# Generated by pormake.
# Topology zzz, (3,6)-cn, num edge types: 1
# Building blocks:
#     Node 0, Type 0, BuildingBlock: ESEHIV_clean_linker_0, # of connection points: 3
#     Node 1, Type 0, BuildingBlock: ESEHIV_clean_linker_0, # of connection points: 3
#     Node 2, Type 0, BuildingBlock: ESEHIV_clean_linker_0, # of connection points: 3
#     Node 3, Type 0, BuildingBlock: ESEHIV_clean_linker_0, # of connection points: 3
#     Node 4, Type 0, BuildingBlock: ESEHIV_clean_linker_0, # of connection points: 3
#     Node 5, Type 0, BuildingBlock: ESEHIV_clean_linker_0, # of connection points: 3
#     Node 6, Type 0, BuildingBlock: ESEHIV_clean_linker_0, # of connection points: 3
#     Node 7, Type 0, BuildingBlock: ESEHIV_clean_linker_0, # of connection points: 3
#     Node 8, Type 1, BuildingBlock: VOLQOD_clean_sbu_1, # of connection points: 6
#     Node 9, Type 1, BuildingBlock: VOLQOD_clean_sbu_1, # of connection points: 6
#     Node 10, Type 1, BuildingBlock: VOLQOD_clean_sbu_1, # of connection points: 6
#     Node 11, Type 1, BuildingBlock: VOLQOD_clean_sbu_1, # of connection points: 6
#     Edge 12, Type (0, 1), BuildingBlock: ZUJKAS_clean_linker_0, # of connection points: 2
#     Edge 13, Type (0, 1), BuildingBlock: ZUJKAS_clean_linker_0, # of connection points: 2
#     Edge 14, Type (0, 1), BuildingBlock: ZUJKAS_clean_linker_0, # of connection points: 2
#     Edge 15, Type (0, 1), BuildingBlock: ZUJKAS_clean_linker_0, # of connection points: 2
#     Edge 16, Type (0, 1), BuildingBlock: ZUJKAS_clean_linker_0, # of connection points: 2
#     Edge 17, Type (0, 1), BuildingBlock: ZUJKAS_clean_linker_0, # of connection points: 2
#     Edge 18, Type (0, 1), BuildingBlock: ZUJKAS_clean_linker_0, # of connection points: 2
#     Edge 19, Type (0, 1), BuildingBlock: ZUJKAS_clean_linker_0, # of connection points: 2
#     Edge 20, Type (0, 1), BuildingBlock: ZUJKAS_clean_linker_0, # of connection points: 2
#     Edge 21, Type (0, 1), BuildingBlock: ZUJKAS_clean_linker_0, # of connection points: 2
#     Edge 22, Type (0, 1), BuildingBlock: ZUJKAS_clean_linker_0, # of connection points: 2
#     Edge 23, Type (0, 1), BuildingBlock: ZUJKAS_clean_linker_0, # of connection points: 2
#     Edge 24, Type (0, 1), BuildingBlock: ZUJKAS_clean_linker_0, # of connection points: 2
#     Edge 25, Type (0, 1), BuildingBlock: ZUJKAS_clean_linker_0, # of connection points: 2
#     Edge 26, Type (0, 1), BuildingBlock: ZUJKAS_clean_linker_0, # of connection points: 2
#     Edge 27, Type (0, 1), BuildingBlock: ZUJKAS_clean_linker_0, # of connection points: 2
#     Edge 28, Type (0, 1), BuildingBlock: ZUJKAS_clean_linker_0, # of connection points: 2
#     Edge 29, Type (0, 1), BuildingBlock: ZUJKAS_clean_linker_0, # of connection points: 2
#     Edge 30, Type (0, 1), BuildingBlock: ZUJKAS_clean_linker_0, # of connection points: 2
#     Edge 31, Type (0, 1), BuildingBlock: ZUJKAS_clean_linker_0, # of connection points: 2
#     Edge 32, Type (0, 1), BuildingBlock: ZUJKAS_clean_linker_0, # of connection points: 2
#     Edge 33, Type (0, 1), BuildingBlock: ZUJKAS_clean_linker_0, # of connection points: 2
#     Edge 34, Type (0, 1), BuildingBlock: ZUJKAS_clean_linker_0, # of connection points: 2
#     Edge 35, Type (0, 1), BuildingBlock: ZUJKAS_clean_linker_0, # of connection points: 2
# Relax obj value: 0.361
# Max RMSD: 0.258
# Mean RMSD: 0.208
data_MOF--net-zzz--node1-VOLQOD_clean_sbu_1--node2-ESEHIV_clean_linker_0--edge1-ZUJKAS_clean_linker_0
_symmetry_space_group_name_H-M    P1
_symmetry_Int_Tables_number       1
_symmetry_cell_setting            triclinic
loop_
_symmetry_equiv_pos_as_xyz
'x, y, z'
_cell_length_a     58.631237
_cell_length_b     57.679378
_cell_length_c     23.055374
_cell_angle_alpha  90.070002
_cell_angle_beta   90.163031
_cell_angle_gamma 92.213212
loop_
_atom_site_label
_atom_site_type_symbol
_atom_site_fract_x
_atom_site_fract_y
_atom_site_fract_z
_atom_type_partial_charge
H0 H 0.82495 0.45055 0.1917 0.0
H1 H 0.77733 0.44571 0.04979 0.0
H2 H 0.7602 0.48239 0.20559 0.0
C3 C 0.80846 0.4541 0.1731 0.0
C4 C 0.79329 0.46733 0.20495 0.0
C5 C 0.80315 0.44654 0.11664 0.0
C6 C 0.78154 0.451 0.09376 0.0
C7 C 0.76574 0.46355 0.12581 0.0
C8 C 0.77196 0.47219 0.18102 0.0
H9 H 0.04068 0.80102 0.22514 0.0
H10 H 0.04108 0.75712 0.07511 0.0
H11 H 0.00424 0.7348 0.22804 0.0
C12 C 0.03595 0.78466 0.20432 0.0
C13 C 0.02216 0.76819 0.23405 0.0
C14 C 0.04262 0.78095 0.14693 0.0
C15 C 0.03608 0.76001 0.1197 0.0
C16 C 0.0223 0.7432 0.14853 0.0
C17 C 0.01533 0.74738 0.20593 0.0
H18 H 0.71206 0.05058 0.18122 0.0
H19 H 0.75927 0.05821 0.04035 0.0
H20 H 0.77853 0.02212 0.19565 0.0
C21 C 0.7289 0.04809 0.1635 0.0
C22 C 0.74476 0.03573 0.19559 0.0
C23 C 0.73386 0.05609 0.10745 0.0
C24 C 0.75557 0.05265 0.08433 0.0
C25 C 0.7719 0.04049 0.11581 0.0
C26 C 0.76625 0.03181 0.17133 0.0
H27 H 0.49533 0.69371 0.22257 0.0
H28 H 0.5294 0.76065 0.24262 0.0
H29 H 0.48913 0.74508 0.0898 0.0
C30 C 0.49863 0.71127 0.20716 0.0
C31 C 0.49025 0.7177 0.15284 0.0
C32 C 0.51272 0.72661 0.23988 0.0
C33 C 0.51834 0.74882 0.21788 0.0
C34 C 0.50942 0.75579 0.16418 0.0
C35 C 0.49542 0.7401 0.13208 0.0
H36 H 0.21024 0.57007 0.1824 0.0
H37 H 0.25935 0.57549 0.3206 0.0
H38 H 0.27318 0.53503 0.16802 0.0
C39 C 0.22706 0.56674 0.19948 0.0
C40 C 0.24127 0.55225 0.16833 0.0
C41 C 0.23332 0.57504 0.25463 0.0
C42 C 0.25463 0.56945 0.27754 0.0
C43 C 0.26932 0.55514 0.24669 0.0
C44 C 0.26235 0.54641 0.19206 0.0
H45 H 0.04922 0.20511 0.12095 0.0
H46 H 0.05155 0.2523 0.26528 0.0
H47 H 0.08211 0.27266 0.1024 0.0
C48 C 0.05427 0.22182 0.13952 0.0
C49 C 0.06632 0.23817 0.10525 0.0
C50 C 0.04894 0.22663 0.19732 0.0
C51 C 0.0555 0.24835 0.2205 0.0
C52 C 0.06727 0.26508 0.18651 0.0
C53 C 0.07282 0.25994 0.12869 0.0
H54 H 0.3252 0.96433 0.13979 0.0
H55 H 0.28219 0.96341 0.29026 0.0
H56 H 0.26621 0.00633 0.14404 0.0
C57 C 0.31015 0.96996 0.16218 0.0
C58 C 0.29632 0.98615 0.13534 0.0
C59 C 0.30553 0.96194 0.21844 0.0
C60 C 0.28596 0.96941 0.24669 0.0
C61 C 0.27146 0.98511 0.22002 0.0
C62 C 0.27685 0.99367 0.1643 0.0
H63 H 0.49563 0.2942 0.12949 0.0
H64 H 0.47465 0.22269 0.10346 0.0
H65 H 0.5122 0.24355 0.25737 0.0
C66 C 0.49498 0.27639 0.14475 0.0
C67 C 0.50535 0.27091 0.19739 0.0
C68 C 0.48384 0.25919 0.11103 0.0
C69 C 0.48313 0.23601 0.1298 0.0
C70 C 0.49388 0.23015 0.1823 0.0
C71 C 0.50476 0.24777 0.21579 0.0
O72 O 0.07475 0.00376 0.63033 0.0
Zn73 Zn 0.05217 0.00597 0.69646 0.0
O74 O 0.02038 0.00235 0.66772 0.0
Zn75 Zn 0.00388 0.03025 0.68443 0.0
Zn76 Zn 0.02052 0.99693 0.58398 0.0
Zn77 Zn 0.00417 0.97636 0.70569 0.0
O78 O 0.97697 0.02414 0.73701 0.0
O79 O 0.97667 0.98614 0.7513 0.0
O80 O 0.058 0.03771 0.73366 0.0
O81 O 0.02453 0.05395 0.72316 0.0
O82 O 0.99305 0.04513 0.61146 0.0
O83 O 0.00456 0.02209 0.54114 0.0
O84 O 0.00622 0.96558 0.56394 0.0
O85 O 0.05893 0.98077 0.75509 0.0
O86 O 0.99452 0.95122 0.6485 0.0
O87 O 0.02525 0.96187 0.76168 0.0
C88 C 0.07234 0.00054 0.57591 0.0
C89 C 0.96821 0.00585 0.76008 0.0
C90 C 0.9947 0.04021 0.55786 0.0
C91 C 0.04523 0.05494 0.74002 0.0
C92 C 0.99677 0.94931 0.59377 0.0
C93 C 0.04607 0.9647 0.77683 0.0
O94 O 0.05262 0.99762 0.55319 0.0
O95 O 0.50956 0.03973 0.60883 0.0
Zn96 Zn 0.51405 0.02014 0.68093 0.0
O97 O 0.52067 0.98787 0.65871 0.0
Zn98 Zn 0.49679 0.96661 0.68754 0.0
Zn99 Zn 0.52219 0.98502 0.57461 0.0
Zn100 Zn 0.54977 0.97873 0.69112 0.0
O101 O 0.5088 0.94499 0.74745 0.0
O102 O 0.54619 0.95247 0.74894 0.0
O103 O 0.48451 0.02115 0.72773 0.0
O104 O 0.47221 0.98426 0.7255 0.0
O105 O 0.4819 0.94773 0.6235 0.0
O106 O 0.49997 0.96043 0.54465 0.0
O107 O 0.55396 0.97829 0.54799 0.0
O108 O 0.54045 0.03498 0.7274 0.0
O109 O 0.57261 0.97092 0.6293 0.0
O110 O 0.56401 0.0058 0.73285 0.0
C111 C 0.5095 0.03493 0.5548 0.0
C112 C 0.52857 0.94116 0.76735 0.0
C113 C 0.4849 0.94726 0.56887 0.0
C114 C 0.46948 0.00529 0.73976 0.0
C115 C 0.57206 0.97264 0.57425 0.0
C116 C 0.55926 0.02668 0.74393 0.0
O117 O 0.51372 0.0147 0.53667 0.0
O118 O 0.46255 0.49535 0.64005 0.0
Zn119 Zn 0.48494 0.49175 0.7064 0.0
O120 O 0.51667 0.49532 0.678 0.0
Zn121 Zn 0.53333 0.46776 0.69691 0.0
Zn122 Zn 0.51682 0.49965 0.594 0.0
Zn123 Zn 0.53228 0.52211 0.7143 0.0
O124 O 0.5594 0.47484 0.75193 0.0
O125 O 0.55869 0.51293 0.76466 0.0
O126 O 0.47879 0.4599 0.74245 0.0
O127 O 0.51246 0.44389 0.73401 0.0
O128 O 0.54546 0.4526 0.62556 0.0
O129 O 0.53254 0.47389 0.55343 0.0
O130 O 0.53218 0.53017 0.57176 0.0
O131 O 0.47816 0.51678 0.76519 0.0
O132 O 0.5437 0.54559 0.6555 0.0
O133 O 0.51033 0.53849 0.76433 0.0
C134 C 0.46508 0.49835 0.58562 0.0
C135 C 0.56739 0.49347 0.77524 0.0
C136 C 0.54335 0.45659 0.57159 0.0
C137 C 0.49161 0.44275 0.74939 0.0
C138 C 0.54204 0.54657 0.6005 0.0
C139 C 0.48993 0.53465 0.7816 0.0
O140 O 0.48483 0.49998 0.56287 0.0
O141 O 0.98003 0.52511 0.60725 0.0
Zn142 Zn 0.01004 0.52825 0.65187 0.0
O143 O 0.02069 0.49758 0.67612 0.0
Zn144 Zn 0.0211 0.49522 0.7606 0.0
Zn145 Zn 0.00048 0.473 0.64481 0.0
Zn146 Zn 0.05144 0.49315 0.64751 0.0
O147 O 0.05228 0.48791 0.79109 0.0
O148 O 0.07372 0.48765 0.71205 0.0
O149 O 0.0051 0.54839 0.72258 0.0
O150 O 0.01314 0.52557 0.79682 0.0
O151 O 0.99832 0.47085 0.78846 0.0
O152 O 0.98578 0.45351 0.70791 0.0
O153 O 0.01675 0.45247 0.58889 0.0
O154 O 0.03393 0.54555 0.60252 0.0
O155 O 0.05245 0.4667 0.59024 0.0
O156 O 0.06286 0.52183 0.60755 0.0
C157 C 0.96813 0.50722 0.5914 0.0
C158 C 0.07158 0.48592 0.76679 0.0
C159 C 0.98592 0.45533 0.76295 0.0
C160 C 0.00716 0.54503 0.77699 0.0
C161 C 0.03732 0.45215 0.57127 0.0
C162 C 0.05455 0.54085 0.59156 0.0
O163 O 0.97449 0.48685 0.60261 0.0
H164 H 0.26926 0.00083 0.33123 0.0
H165 H 0.23497 0.0065 0.3889 0.0
H166 H 0.19293 0.99104 0.23898 0.0
H167 H 0.22736 0.98544 0.18071 0.0
H168 H 0.17755 0.02835 0.3108 0.0
H169 H 0.19521 0.94932 0.43803 0.0
H170 H 0.21838 0.97059 0.43652 0.0
H171 H 0.20946 0.95622 0.37058 0.0
C172 C 0.2527 0.99889 0.31039 0.0
C173 C 0.25092 0.99237 0.25171 0.0
C174 C 0.23316 0.00207 0.3434 0.0
C175 C 0.21143 0.99863 0.31854 0.0
C176 C 0.20957 0.99359 0.25905 0.0
H177 H 0.07359 0.99458 0.45809 0.0
H178 H 0.10706 0.99497 0.39532 0.0
C179 C 0.2292 0.99049 0.22579 0.0
C180 C 0.19081 0.99904 0.35558 0.0
H181 H 0.16498 0.97194 0.47101 0.0
C182 C 0.17471 0.01598 0.34568 0.0
C183 C 0.18716 0.98283 0.40099 0.0
C184 C 0.20333 0.96356 0.412 0.0
C185 C 0.15529 0.01748 0.38097 0.0
C186 C 0.15175 0.00135 0.42662 0.0
C187 C 0.1678 0.98435 0.43622 0.0
C188 C 0.13138 0.00157 0.46469 0.0
C189 C 0.13901 0.03663 0.36993 0.0
C190 C 0.13395 0.00454 0.52484 0.0
C191 C 0.11483 0.00415 0.56108 0.0
C192 C 0.09275 0.00063 0.53786 0.0
C193 C 0.0903 0.99744 0.47755 0.0
C194 C 0.10942 0.99784 0.44142 0.0
H195 H 0.14709 0.05093 0.34398 0.0
H196 H 0.12403 0.02951 0.3453 0.0
H197 H 0.13279 0.0439 0.41134 0.0
H198 H 0.15079 0.00726 0.54373 0.0
H199 H 0.11739 0.00664 0.60724 0.0
H200 H 0.45772 0.19843 0.18744 0.0
H201 H 0.45661 0.16109 0.23874 0.0
H202 H 0.52814 0.1708 0.28029 0.0
H203 H 0.52956 0.20733 0.2273 0.0
H204 H 0.51757 0.12636 0.25499 0.0
H205 H 0.45564 0.15955 0.41428 0.0
H206 H 0.44598 0.1589 0.3403 0.0
H207 H 0.46955 0.17802 0.36102 0.0
C208 C 0.47329 0.19227 0.20635 0.0
C209 C 0.49364 0.20596 0.20426 0.0
C210 C 0.47258 0.17111 0.23628 0.0
C211 C 0.49215 0.16348 0.26477 0.0
C212 C 0.51277 0.17642 0.25922 0.0
H213 H 0.51065 0.08207 0.57064 0.0
H214 H 0.50481 0.11192 0.49725 0.0
C215 C 0.51353 0.19737 0.22917 0.0
C216 C 0.49131 0.14284 0.3032 0.0
H217 H 0.46883 0.12214 0.43042 0.0
C218 C 0.50676 0.12529 0.29307 0.0
C219 C 0.47744 0.14171 0.3534 0.0
C220 C 0.46134 0.16061 0.36841 0.0
C221 C 0.5092 0.107 0.33242 0.0
C222 C 0.49528 0.10583 0.38252 0.0
C223 C 0.47941 0.12303 0.3919 0.0
C224 C 0.49777 0.08759 0.42724 0.0
C225 C 0.52746 0.08979 0.32126 0.0
C226 C 0.49529 0.06401 0.41262 0.0
C227 C 0.49894 0.04696 0.45422 0.0
C228 C 0.5047 0.05313 0.51166 0.0
C229 C 0.50629 0.07675 0.52679 0.0
C230 C 0.50293 0.09381 0.4849 0.0
H231 H 0.54047 0.09665 0.2901 0.0
H232 H 0.53625 0.08515 0.36211 0.0
H233 H 0.51949 0.07374 0.30235 0.0
H234 H 0.49068 0.05878 0.36888 0.0
H235 H 0.49723 0.02891 0.44131 0.0
H236 H 0.29956 0.58219 0.31036 0.0
H237 H 0.33339 0.57006 0.36222 0.0
H238 H 0.32289 0.50065 0.29494 0.0
H239 H 0.28827 0.51234 0.24532 0.0
H240 H 0.33132 0.50009 0.40904 0.0
H241 H 0.39604 0.55777 0.30264 0.0
H242 H 0.37326 0.57377 0.33265 0.0
H243 H 0.36744 0.55351 0.27446 0.0
C244 C 0.30441 0.56433 0.30654 0.0
C245 C 0.29114 0.54825 0.27363 0.0
C246 C 0.32396 0.55749 0.33564 0.0
C247 C 0.33092 0.53454 0.33172 0.0
C248 C 0.31794 0.5185 0.29824 0.0
H249 H 0.46311 0.49607 0.46735 0.0
H250 H 0.43028 0.5024 0.40475 0.0
C251 C 0.29826 0.52528 0.26942 0.0
C252 C 0.35101 0.52703 0.36516 0.0
H253 H 0.40721 0.54051 0.39235 0.0
C254 C 0.34799 0.50876 0.40496 0.0
C255 C 0.37284 0.5381 0.35925 0.0
C256 C 0.37767 0.5567 0.31448 0.0
C257 C 0.36602 0.50172 0.44024 0.0
C258 C 0.38749 0.5137 0.43671 0.0
C259 C 0.39068 0.5315 0.39565 0.0
C260 C 0.4069 0.50826 0.47527 0.0
C261 C 0.36189 0.48137 0.48041 0.0
C262 C 0.40471 0.50936 0.53588 0.0
C263 C 0.42342 0.50547 0.57191 0.0
C264 C 0.4448 0.50085 0.54796 0.0
C265 C 0.4469 0.49965 0.48726 0.0
C266 C 0.42815 0.50327 0.45136 0.0
H267 H 0.34755 0.4698 0.46485 0.0
H268 H 0.37736 0.47098 0.48475 0.0
H269 H 0.35728 0.48785 0.52399 0.0
H270 H 0.38867 0.51379 0.55538 0.0
H271 H 0.42127 0.50676 0.61843 0.0
H272 H 0.05012 0.30658 0.15737 0.0
H273 H 0.0514 0.34179 0.21714 0.0
H274 H 0.09773 0.30973 0.33573 0.0
H275 H 0.09577 0.27431 0.27699 0.0
H276 H 0.06106 0.32335 0.38991 0.0
H277 H 0.09416 0.39614 0.25425 0.0
H278 H 0.07113 0.38002 0.21973 0.0
H279 H 0.09751 0.36616 0.23447 0.0
C280 C 0.06123 0.30748 0.19501 0.0
C281 C 0.07294 0.28793 0.21268 0.0
C282 C 0.06201 0.3276 0.22912 0.0
C283 C 0.07479 0.3285 0.28082 0.0
C284 C 0.0878 0.30947 0.29601 0.0
H285 H 0.07951 0.44556 0.52401 0.0
H286 H 0.08984 0.41604 0.45337 0.0
C287 C 0.08677 0.28931 0.2624 0.0
C288 C 0.07186 0.34754 0.32328 0.0
H289 H 0.07307 0.40647 0.33942 0.0
C290 C 0.064 0.3415 0.37897 0.0
C291 C 0.07577 0.37123 0.30927 0.0
C292 C 0.08533 0.37878 0.25135 0.0
C293 C 0.05935 0.35845 0.4204 0.0
C294 C 0.06211 0.38214 0.40543 0.0
C295 C 0.07068 0.38827 0.35048 0.0
C296 C 0.05572 0.40067 0.44616 0.0
C297 C 0.05151 0.3508 0.47993 0.0
C298 C 0.03305 0.40201 0.46473 0.0
C299 C 0.02708 0.41874 0.50521 0.0
C300 C 0.04367 0.43461 0.52769 0.0
C301 C 0.06631 0.43354 0.50791 0.0
C302 C 0.07226 0.41675 0.46738 0.0
H303 H 0.05629 0.33274 0.48945 0.0
H304 H 0.0589 0.36244 0.5141 0.0
H305 H 0.03264 0.35139 0.48218 0.0
H306 H 0.01995 0.39 0.44809 0.0
H307 H 0.00945 0.41916 0.51897 0.0
H308 H 0.79971 0.07071 0.05506 0.0
H309 H 0.8343 0.06214 0.00135 0.0
H310 H 0.82939 0.99134 0.06128 0.0
H311 H 0.79441 0.99966 0.11421 0.0
H312 H 0.87644 0.04424 0.03967 0.0
H313 H 0.83092 0.98545 0.88247 0.0
H314 H 0.81607 0.00491 0.92925 0.0
H315 H 0.82698 0.97861 0.95792 0.0
C316 C 0.806 0.05332 0.05687 0.0
C317 C 0.79421 0.03582 0.0885 0.0
C318 C 0.82582 0.04848 0.02638 0.0
C319 C 0.83419 0.02603 0.02659 0.0
C320 C 0.82299 0.0087 0.05983 0.0
H321 H 0.946 0.97126 0.82227 0.0
H322 H 0.91426 0.97511 0.89006 0.0
C323 C 0.80316 0.01354 0.09055 0.0
C324 C 0.85432 0.02082 0.99072 0.0
H325 H 0.87063 0.99098 0.87063 0.0
C326 C 0.87522 0.03251 0.00288 0.0
C327 C 0.85267 0.00546 0.94286 0.0
C328 C 0.83045 0.99297 0.92682 0.0
C329 C 0.89451 0.02937 0.96819 0.0
C330 C 0.8927 0.01453 0.91932 0.0
C331 C 0.87196 0.00239 0.90803 0.0
C332 C 0.91186 0.01213 0.87807 0.0
C333 C 0.91669 0.04191 0.98438 0.0
C334 C 0.92071 0.03157 0.84792 0.0
C335 C 0.9388 0.02945 0.80921 0.0
C336 C 0.94835 0.00778 0.79943 0.0
C337 C 0.93911 0.98822 0.8288 0.0
C338 C 0.92099 0.99038 0.86762 0.0
H339 H 0.91708 0.04683 0.031 0.0
H340 H 0.9315 0.03106 0.97521 0.0
H341 H 0.91861 0.05807 0.9585 0.0
H342 H 0.91356 0.04842 0.85421 0.0
H343 H 0.94534 0.04488 0.78715 0.0
H344 H 0.48051 0.78602 0.11558 0.0
H345 H 0.49057 0.82111 0.06067 0.0
H346 H 0.56168 0.81307 0.10123 0.0
H347 H 0.55171 0.77749 0.15555 0.0
H348 H 0.51476 0.86322 0.08988 0.0
H349 H 0.55926 0.8122 0.92193 0.0
H350 H 0.54086 0.79853 0.97553 0.0
H351 H 0.56882 0.80953 0.99572 0.0
C352 C 0.49827 0.79185 0.11324 0.0
C353 C 0.51536 0.7789 0.1392 0.0
C354 C 0.50399 0.81193 0.0821 0.0
C355 C 0.52689 0.81945 0.07612 0.0
C356 C 0.54393 0.80733 0.10466 0.0
H357 H 0.56781 0.92652 0.81922 0.0
H358 H 0.57078 0.89881 0.89935 0.0
C359 C 0.5382 0.78717 0.13608 0.0
C360 C 0.53259 0.83912 0.03688 0.0
H361 H 0.55401 0.85149 0.90232 0.0
C362 C 0.52367 0.86079 0.04929 0.0
C363 C 0.54429 0.83588 0.98403 0.0
C364 C 0.55379 0.81279 0.96798 0.0
C365 C 0.52531 0.87904 0.00919 0.0
C366 C 0.53581 0.87536 0.95499 0.0
C367 C 0.54591 0.85417 0.9439 0.0
C368 C 0.53433 0.89235 0.90719 0.0
C369 C 0.51526 0.90193 0.02454 0.0
C370 C 0.51291 0.89744 0.88439 0.0
C371 C 0.51114 0.91305 0.83861 0.0
C372 C 0.5308 0.9239 0.81445 0.0
C373 C 0.55232 0.91852 0.83688 0.0
C374 C 0.55407 0.90275 0.8827 0.0
H375 H 0.51427 0.90432 0.07229 0.0
H376 H 0.52548 0.91668 0.00573 0.0
H377 H 0.49767 0.90236 0.00679 0.0
H378 H 0.4975 0.88919 0.90185 0.0
H379 H 0.49429 0.91668 0.82245 0.0
H380 H 0.74376 0.50466 0.12263 0.0
H381 H 0.70779 0.51247 0.07282 0.0
H382 H 0.70137 0.44084 0.01938 0.0
H383 H 0.73694 0.43285 0.06967 0.0
H384 H 0.69971 0.50575 0.95264 0.0
H385 H 0.63788 0.45348 0.08442 0.0
H386 H 0.66612 0.46188 0.11033 0.0
H387 H 0.66208 0.43764 0.06173 0.0
C388 C 0.73441 0.49051 0.10123 0.0
C389 C 0.74314 0.46814 0.1 0.0
C390 C 0.71397 0.49501 0.07259 0.0
C391 C 0.7018 0.47717 0.04303 0.0
C392 C 0.71027 0.45476 0.04278 0.0
H393 H 0.59107 0.45535 0.80547 0.0
H394 H 0.62325 0.45345 0.87248 0.0
C395 C 0.7307 0.45027 0.07106 0.0
C396 C 0.68111 0.4821 0.0089 0.0
H397 H 0.62516 0.46505 0.99046 0.0
C398 C 0.6833 0.49716 0.96132 0.0
C399 C 0.65978 0.47079 0.02036 0.0
C400 C 0.6562 0.45521 0.07232 0.0
C401 C 0.66496 0.50039 0.92322 0.0
C402 C 0.6438 0.48854 0.93373 0.0
C403 C 0.64144 0.47403 0.98237 0.0
C404 C 0.62421 0.49006 0.89332 0.0
C405 C 0.66869 0.51563 0.87066 0.0
C406 C 0.61396 0.51127 0.88314 0.0
C407 C 0.59558 0.51245 0.84457 0.0
C408 C 0.58701 0.49239 0.81581 0.0
C409 C 0.59723 0.47114 0.82667 0.0
C410 C 0.6156 0.47001 0.8651 0.0
H411 H 0.68711 0.51927 0.86204 0.0
H412 H 0.66078 0.50743 0.83151 0.0
H413 H 0.66057 0.53244 0.87797 0.0
H414 H 0.62008 0.52687 0.9053 0.0
H415 H 0.58802 0.52907 0.83758 0.0
H416 H 0.00398 0.74021 0.04012 0.0
H417 H 0.99651 0.70526 0.98211 0.0
H418 H 0.0163 0.66296 0.12653 0.0
H419 H 0.02377 0.69807 0.18511 0.0
H420 H 0.03099 0.67492 0.95657 0.0
H421 H 0.95797 0.62876 0.06518 0.0
H422 H 0.96491 0.6592 0.07705 0.0
H423 H 0.98137 0.63755 0.11182 0.0
C424 C 0.00647 0.72344 0.05977 0.0
C425 C 0.0147 0.72183 0.11691 0.0
C426 C 0.00211 0.70351 0.02666 0.0
C427 C 0.00577 0.68152 0.05002 0.0
C428 C 0.013 0.67974 0.10796 0.0
H429 H 0.01285 0.54503 0.89495 0.0
H430 H 0.01106 0.57798 0.96122 0.0
C431 C 0.01731 0.69978 0.14132 0.0
C432 C 0.00428 0.66088 0.0116 0.0
H433 H 0.97633 0.60851 0.98985 0.0
C434 C 0.01895 0.66045 0.96366 0.0
C435 C 0.98869 0.64198 0.02129 0.0
C436 C 0.97218 0.64185 0.07133 0.0
C437 C 0.01863 0.64156 0.92534 0.0
C438 C 0.00286 0.62275 0.93449 0.0
C439 C 0.98828 0.62305 0.98272 0.0
C440 C 0.00177 0.60243 0.89499 0.0
C441 C 0.03559 0.64167 0.87617 0.0
C442 C 0.9965 0.6051 0.836 0.0
C443 C 0.99763 0.58633 0.7978 0.0
C444 C 0.00388 0.56446 0.81802 0.0
C445 C 0.0081 0.56163 0.87772 0.0
C446 C 0.00704 0.58044 0.9158 0.0
H447 H 0.05006 0.65434 0.88379 0.0
H448 H 0.04255 0.62421 0.86991 0.0
H449 H 0.02693 0.64663 0.83544 0.0
H450 H 0.99195 0.62185 0.81928 0.0
H451 H 0.99405 0.5891 0.75227 0.0
H452 H 0.01434 0.23232 0.27543 0.0
H453 H 0.99523 0.20236 0.33547 0.0
H454 H 0.03724 0.1506 0.26003 0.0
H455 H 0.05672 0.18031 0.20104 0.0
H456 H 0.98692 0.13928 0.26786 0.0
H457 H 0.02859 0.16942 0.4738 0.0
H458 H 0.01488 0.19045 0.42934 0.0
H459 H 0.04015 0.17726 0.4037 0.0
C460 C 0.0196 0.21458 0.27197 0.0
C461 C 0.03704 0.20868 0.23347 0.0
C462 C 0.00858 0.19752 0.30596 0.0
C463 C 0.01486 0.17436 0.30192 0.0
C464 C 0.03206 0.16839 0.26325 0.0
H465 H 0.00493 0.0412 0.4423 0.0
H466 H 0.0031 0.07447 0.37799 0.0
C467 C 0.04312 0.18538 0.22952 0.0
C468 C 0.00434 0.15626 0.33947 0.0
H469 H 0.00657 0.13479 0.47679 0.0
C470 C 0.99086 0.13841 0.31379 0.0
C471 C 0.00943 0.15537 0.39928 0.0
C472 C 0.02413 0.17403 0.4285 0.0
C473 C 0.98298 0.11915 0.34618 0.0
C474 C 0.98924 0.11755 0.40528 0.0
C475 C 0.00173 0.13604 0.4315 0.0
C476 C 0.98556 0.09596 0.43926 0.0
C477 C 0.96837 0.10056 0.31651 0.0
C478 C 0.97592 0.09674 0.49483 0.0
C479 C 0.97725 0.07778 0.53216 0.0
C480 C 0.9883 0.05774 0.51456 0.0
C481 C 0.99626 0.05633 0.45725 0.0
C482 C 0.99509 0.07535 0.42015 0.0
H483 H 0.95822 0.10797 0.28073 0.0
H484 H 0.97956 0.08754 0.29721 0.0
H485 H 0.95654 0.0916 0.34743 0.0
H486 H 0.96852 0.11249 0.51047 0.0
H487 H 0.97079 0.07939 0.5759 0.0
H488 H 0.35208 0.96583 0.21322 0.0
H489 H 0.37962 0.94573 0.2712 0.0
H490 H 0.32514 0.90674 0.35603 0.0
H491 H 0.2971 0.92614 0.29579 0.0
H492 H 0.35507 0.93357 0.42968 0.0
H493 H 0.40399 0.87938 0.28079 0.0
H494 H 0.39932 0.90765 0.25156 0.0
H495 H 0.37529 0.88803 0.26504 0.0
C496 C 0.34581 0.95235 0.24236 0.0
C497 C 0.32226 0.94762 0.24954 0.0
C498 C 0.36168 0.94084 0.27561 0.0
C499 C 0.35443 0.92447 0.31715 0.0
C500 C 0.33104 0.91913 0.32359 0.0
H501 H 0.45253 0.91443 0.60304 0.0
H502 H 0.42017 0.89925 0.54525 0.0
C503 C 0.31507 0.93044 0.28962 0.0
C504 C 0.37128 0.91617 0.35935 0.0
H505 H 0.4247 0.89494 0.36478 0.0
C506 C 0.37001 0.92442 0.41637 0.0
C507 C 0.39064 0.90424 0.34155 0.0
C508 C 0.39232 0.89411 0.28148 0.0
C509 C 0.3887 0.9234 0.45424 0.0
C510 C 0.40891 0.91314 0.43481 0.0
C511 C 0.40927 0.90286 0.37956 0.0
C512 C 0.43079 0.91686 0.46643 0.0
C513 C 0.38733 0.93535 0.51242 0.0
C514 C 0.4484 0.93017 0.44002 0.0
C515 C 0.46708 0.93847 0.47247 0.0
C516 C 0.46837 0.93382 0.53219 0.0
C517 C 0.45181 0.91867 0.55733 0.0
C518 C 0.43325 0.91007 0.52447 0.0
H519 H 0.37172 0.94554 0.51663 0.0
H520 H 0.38703 0.92216 0.54739 0.0
H521 H 0.40243 0.94725 0.51937 0.0
H522 H 0.44695 0.93551 0.39515 0.0
H523 H 0.47961 0.9499 0.45152 0.0
H524 H 0.54583 0.27005 0.25723 0.0
H525 H 0.56263 0.30046 0.32059 0.0
H526 H 0.50638 0.34397 0.28251 0.0
H527 H 0.48921 0.31367 0.2204 0.0
H528 H 0.56396 0.36037 0.28002 0.0
H529 H 0.52032 0.32419 0.47653 0.0
H530 H 0.53097 0.30561 0.42041 0.0
H531 H 0.50609 0.32191 0.40713 0.0
C532 C 0.53704 0.28609 0.26247 0.0
C533 C 0.51618 0.28947 0.23387 0.0
C534 C 0.54675 0.30344 0.29817 0.0
C535 C 0.53573 0.32435 0.30562 0.0
C536 C 0.51516 0.32794 0.27662 0.0
H537 H 0.53607 0.4556 0.45444 0.0
H538 H 0.54123 0.42299 0.38941 0.0
C539 C 0.50543 0.31065 0.24109 0.0
C540 C 0.54473 0.34215 0.34627 0.0
H541 H 0.53697 0.36185 0.48369 0.0
C542 C 0.55851 0.36059 0.32493 0.0
C543 C 0.53769 0.3421 0.40468 0.0
C544 C 0.52299 0.32241 0.42907 0.0
C545 C 0.56455 0.37971 0.36024 0.0
C546 C 0.55613 0.38046 0.41763 0.0
C547 C 0.54346 0.36129 0.43971 0.0
C548 C 0.55767 0.40178 0.45343 0.0
C549 C 0.57946 0.39911 0.33535 0.0
C550 C 0.56546 0.40089 0.51095 0.0
C551 C 0.56222 0.41944 0.54864 0.0
C552 C 0.55103 0.43918 0.52944 0.0
C553 C 0.54474 0.44068 0.47071 0.0
C554 C 0.54787 0.42208 0.4332 0.0
H555 H 0.59107 0.39249 0.30166 0.0
H556 H 0.56851 0.41195 0.31436 0.0
H557 H 0.58987 0.40808 0.36954 0.0
H558 H 0.57298 0.38535 0.52749 0.0
H559 H 0.56741 0.41777 0.59351 0.0
H560 H 0.22354 0.56681 0.36842 0.0
H561 H 0.1903 0.57892 0.42184 0.0
H562 H 0.17004 0.62046 0.27652 0.0
H563 H 0.2036 0.60848 0.22243 0.0
H564 H 0.17017 0.62196 0.45331 0.0
H565 H 0.11837 0.57019 0.29196 0.0
H566 H 0.14898 0.56843 0.29552 0.0
H567 H 0.13649 0.59384 0.26628 0.0
C568 C 0.21252 0.57916 0.34838 0.0
C569 C 0.2161 0.58648 0.29089 0.0
C570 C 0.19344 0.58602 0.37897 0.0
C571 C 0.17753 0.60026 0.35274 0.0
C572 C 0.18195 0.60915 0.29714 0.0
H573 H 0.04312 0.57404 0.51184 0.0
H574 H 0.06979 0.5981 0.45278 0.0
C575 C 0.20109 0.60228 0.26636 0.0
C576 C 0.15522 0.60291 0.38139 0.0
H577 H 0.10139 0.57827 0.38046 0.0
C578 C 0.15488 0.61304 0.43672 0.0
C579 C 0.13519 0.59151 0.35935 0.0
C580 C 0.1346 0.58026 0.30015 0.0
C581 C 0.13572 0.61018 0.47267 0.0
C582 C 0.11669 0.59651 0.45304 0.0
C583 C 0.11607 0.58864 0.39547 0.0
C584 C 0.10016 0.58568 0.49421 0.0
C585 C 0.1366 0.6205 0.53276 0.0
C586 C 0.10841 0.57083 0.53685 0.0
C587 C 0.0934 0.55697 0.56955 0.0
C588 C 0.06974 0.55762 0.56052 0.0
C589 C 0.0613 0.57326 0.51971 0.0
C590 C 0.07647 0.58701 0.48616 0.0
H591 H 0.14696 0.63704 0.53325 0.0
H592 H 0.11924 0.62378 0.54926 0.0
H593 H 0.14486 0.6083 0.56269 0.0
H594 H 0.12659 0.56902 0.54283 0.0
H595 H 0.10042 0.54523 0.60098 0.0
H596 H 0.03159 0.82624 0.14527 0.0
H597 H 0.04708 0.85703 0.08331 0.0
H598 H 0.09473 0.81001 0.01008 0.0
H599 H 0.079 0.77873 0.07223 0.0
H600 H 0.08993 0.87806 0.06498 0.0
H601 H 0.05795 0.82957 0.86953 0.0
H602 H 0.05013 0.82055 0.94185 0.0
H603 H 0.0783 0.81577 0.91508 0.0
C604 C 0.04571 0.82251 0.117 0.0
C605 C 0.05404 0.80003 0.11349 0.0
C606 C 0.05456 0.84016 0.08153 0.0
C607 C 0.07191 0.83577 0.04171 0.0
C608 C 0.0811 0.81365 0.03993 0.0
H609 H 0.09101 0.95521 0.79913 0.0
H610 H 0.10495 0.92424 0.86209 0.0
C611 C 0.07211 0.79584 0.07533 0.0
C612 C 0.07826 0.85397 0.99881 0.0
H613 H 0.06746 0.86888 0.85852 0.0
C614 C 0.08574 0.87593 0.01938 0.0
C615 C 0.07273 0.85111 0.93935 0.0
C616 C 0.06422 0.82807 0.91484 0.0
C617 C 0.08589 0.89548 0.98316 0.0
C618 C 0.07853 0.89286 0.92518 0.0
C619 C 0.07315 0.87065 0.90319 0.0
C620 C 0.07128 0.91289 0.89098 0.0
C621 C 0.09188 0.91911 0.00811 0.0
C622 C 0.04791 0.91682 0.88753 0.0
C623 C 0.03997 0.93422 0.85197 0.0
C624 C 0.05526 0.94813 0.81898 0.0
C625 C 0.07885 0.94479 0.82415 0.0
C626 C 0.08683 0.92714 0.85986 0.0
H627 H 0.09901 0.91807 0.05269 0.0
H628 H 0.10451 0.92842 0.9799 0.0
H629 H 0.07634 0.92951 0.00943 0.0
H630 H 0.03572 0.90602 0.91155 0.0
H631 H 0.02173 0.93644 0.84953 0.0
H632 H 0.73594 0.09382 0.03402 0.0
H633 H 0.7054 0.10723 0.97034 0.0
H634 H 0.66031 0.05222 0.03434 0.0
H635 H 0.69028 0.039 0.09724 0.0
H636 H 0.68576 0.08451 0.88373 0.0
H637 H 0.61729 0.10407 0.03513 0.0
H638 H 0.64652 0.10185 0.059 0.0
H639 H 0.62766 0.07638 0.05482 0.0
C640 C 0.71936 0.08487 0.0349 0.0
C641 C 0.71542 0.06554 0.07121 0.0
C642 C 0.70191 0.09263 0.9989 0.0
C643 C 0.68029 0.08121 0.99888 0.0
C644 C 0.67645 0.06201 0.03533 0.0
H645 H 0.6021 0.01495 0.77365 0.0
H646 H 0.6307 0.03758 0.82684 0.0
C647 C 0.69372 0.05434 0.07115 0.0
C648 C 0.66251 0.08677 0.95571 0.0
H649 H 0.60451 0.08417 0.94335 0.0
C650 C 0.66804 0.08535 0.89667 0.0
C651 C 0.63938 0.08876 0.97187 0.0
C652 C 0.63248 0.09315 0.03375 0.0
C653 C 0.65089 0.08242 0.85449 0.0
C654 C 0.62782 0.08023 0.87218 0.0
C655 C 0.62224 0.08513 0.9299 0.0
C656 C 0.61042 0.06797 0.8355 0.0
C657 C 0.65776 0.07991 0.79188 0.0
C658 C 0.58903 0.0772 0.82411 0.0
C659 C 0.57225 0.06402 0.79374 0.0
C660 C 0.57658 0.04133 0.77527 0.0
C661 C 0.59806 0.03232 0.787 0.0
C662 C 0.61466 0.04541 0.81686 0.0
H663 H 0.67303 0.09122 0.78215 0.0
H664 H 0.66237 0.06172 0.78362 0.0
H665 H 0.64372 0.08436 0.76193 0.0
H666 H 0.58528 0.09444 0.83909 0.0
H667 H 0.55587 0.07145 0.78547 0.0
H668 H 0.4562 0.68595 0.18267 0.0
H669 H 0.44137 0.65314 0.12397 0.0
H670 H 0.48357 0.67652 0.98095 0.0
H671 H 0.49816 0.70924 0.03873 0.0
H672 H 0.44082 0.6593 0.94545 0.0
H673 H 0.4823 0.59866 0.09798 0.0
H674 H 0.4611 0.61702 0.12731 0.0
H675 H 0.4877 0.62961 0.10175 0.0
C676 C 0.46202 0.68421 0.13839 0.0
C677 C 0.47845 0.70005 0.11538 0.0
C678 C 0.45358 0.66547 0.10503 0.0
C679 C 0.46169 0.66219 0.04851 0.0
C680 C 0.47706 0.67875 0.02447 0.0
H681 H 0.50286 0.58005 0.79141 0.0
H682 H 0.48795 0.60884 0.85693 0.0
C683 C 0.48535 0.6975 0.05751 0.0
C684 C 0.45616 0.64066 0.01548 0.0
H685 H 0.47029 0.58385 0.00837 0.0
C686 C 0.4467 0.64264 0.95979 0.0
C687 C 0.46372 0.61888 0.03441 0.0
C688 C 0.4744 0.61577 0.09343 0.0
C689 C 0.44632 0.62393 0.92089 0.0
C690 C 0.45569 0.60283 0.93819 0.0
C691 C 0.46311 0.60013 0.99551 0.0
C692 C 0.46243 0.58548 0.89501 0.0
C693 C 0.43729 0.62727 0.86031 0.0
C694 C 0.45306 0.56272 0.89509 0.0
C695 C 0.4615 0.54611 0.85711 0.0
C696 C 0.47979 0.55201 0.81988 0.0
C697 C 0.48889 0.5749 0.81986 0.0
C698 C 0.48025 0.59145 0.85686 0.0
H699 H 0.42473 0.6412 0.85893 0.0
H700 H 0.45168 0.63241 0.83127 0.0
H701 H 0.42911 0.61095 0.84328 0.0
H702 H 0.43948 0.55779 0.92491 0.0
H703 H 0.45422 0.52857 0.85806 0.0
H704 H 0.79805 0.41185 0.03416 0.0
H705 H 0.82747 0.39774 0.96871 0.0
H706 H 0.8778 0.44309 0.05171 0.0
H707 H 0.84878 0.45808 0.11459 0.0
H708 H 0.85464 0.42974 0.89456 0.0
H709 H 0.90866 0.37889 0.04004 0.0
H710 H 0.87891 0.38372 0.05467 0.0
H711 H 0.90043 0.40579 0.07163 0.0
C712 C 0.8154 0.41876 0.0386 0.0
C713 C 0.82098 0.43603 0.08013 0.0
C714 C 0.83219 0.41049 0.00159 0.0
C715 C 0.85484 0.41901 0.00641 0.0
C716 C 0.86052 0.4358 0.04848 0.0
H717 H 0.97801 0.45798 0.87932 0.0
H718 H 0.94571 0.44091 0.9321 0.0
C719 C 0.84382 0.4443 0.08465 0.0
C720 C 0.87235 0.41299 0.9636 0.0
H721 H 0.92776 0.39734 0.958 0.0
C722 C 0.87041 0.42193 0.90741 0.0
C723 C 0.89279 0.40277 0.98083 0.0
C724 C 0.89529 0.39203 0.03997 0.0
C725 C 0.88928 0.42329 0.87009 0.0
C726 C 0.91041 0.41489 0.8893 0.0
C727 C 0.91162 0.40386 0.94343 0.0
C728 C 0.93201 0.42124 0.85903 0.0
C729 C 0.88695 0.43571 0.81286 0.0
C730 C 0.93568 0.41499 0.80106 0.0
C731 C 0.95409 0.42501 0.77033 0.0
C732 C 0.96925 0.44121 0.79741 0.0
C733 C 0.9666 0.44577 0.85687 0.0
C734 C 0.94813 0.43594 0.88726 0.0
H735 H 0.87029 0.4441 0.80856 0.0
H736 H 0.90079 0.44925 0.8078 0.0
H737 H 0.88834 0.42309 0.77683 0.0
H738 H 0.92374 0.40323 0.77887 0.0
H739 H 0.95582 0.42087 0.72475 0.0
H740 H 0.03776 0.22877 0.01539 0.0
H741 H 0.0457 0.2032 0.93396 0.0
H742 H 0.11681 0.20406 0.98275 0.0
H743 H 0.10874 0.22956 0.06509 0.0
H744 H 0.07636 0.19961 0.83775 0.0
H745 H 0.09314 0.13709 0.01595 0.0
H746 H 0.08099 0.16478 0.02988 0.0
H747 H 0.11077 0.16325 0.01295 0.0
C748 C 0.05525 0.22437 0.00703 0.0
C749 C 0.07266 0.23103 0.04621 0.0
C750 C 0.05978 0.20969 0.9607 0.0
C751 C 0.08174 0.20134 0.95315 0.0
C752 C 0.09968 0.21007 0.9884 0.0
H753 H 0.08872 0.06514 0.78088 0.0
H754 H 0.10312 0.10174 0.82447 0.0
C755 C 0.09514 0.22483 0.03491 0.0
C756 C 0.0845 0.18086 0.91529 0.0
H757 H 0.08758 0.12193 0.9231 0.0
C758 C 0.07935 0.18268 0.85605 0.0
C759 C 0.08843 0.15876 0.93929 0.0
C760 C 0.09353 0.15564 0.00301 0.0
C761 C 0.07681 0.16285 0.82087 0.0
C762 C 0.07901 0.14066 0.84594 0.0
C763 C 0.08583 0.13896 0.90406 0.0
C764 C 0.07123 0.11909 0.81544 0.0
C765 C 0.07102 0.16584 0.7576 0.0
C766 C 0.04847 0.11659 0.79692 0.0
C767 C 0.0402 0.09581 0.77243 0.0
C768 C 0.05444 0.07688 0.76627 0.0
C769 C 0.07729 0.07936 0.78495 0.0
C770 C 0.08558 0.10028 0.80961 0.0
H771 H 0.0781 0.18268 0.74088 0.0
H772 H 0.07767 0.15159 0.73082 0.0
H773 H 0.0522 0.16581 0.75244 0.0
H774 H 0.03687 0.13057 0.80266 0.0
H775 H 0.0225 0.09458 0.75885 0.0
H776 H 0.3058 0.96333 0.03575 0.0
H777 H 0.32992 0.97809 0.95668 0.0
H778 H 0.3301 0.04666 0.03153 0.0
H779 H 0.30609 0.03178 0.11148 0.0
H780 H 0.33004 0.01468 0.8729 0.0
H781 H 0.39722 0.02787 0.04282 0.0
H782 H 0.37075 0.01197 0.05714 0.0
H783 H 0.37123 0.04302 0.05159 0.0
C784 C 0.31033 0.98171 0.03419 0.0
C785 C 0.30423 0.99641 0.07974 0.0
C786 C 0.32414 0.99013 0.98911 0.0
C787 C 0.3322 0.01335 0.98893 0.0
C788 C 0.32434 0.02859 0.03139 0.0
H789 H 0.45897 0.04624 0.79385 0.0
H790 H 0.42421 0.05405 0.84884 0.0
C791 C 0.31042 0.02015 0.0766 0.0
C792 C 0.35098 0.02035 0.94882 0.0
H793 H 0.40886 0.02981 0.94622 0.0
C794 C 0.3472 0.0185 0.88884 0.0
C795 C 0.37339 0.02539 0.96968 0.0
C796 C 0.37858 0.02708 0.03376 0.0
C797 C 0.36538 0.02036 0.84936 0.0
C798 C 0.38796 0.0237 0.87053 0.0
C799 C 0.39155 0.02721 0.93012 0.0
C800 C 0.40812 0.02022 0.83316 0.0
C801 C 0.36033 0.01794 0.78542 0.0
C802 C 0.4107 0.99858 0.80672 0.0
C803 C 0.43045 0.99403 0.77589 0.0
C804 C 0.44825 0.01098 0.77086 0.0
C805 C 0.44557 0.03282 0.79675 0.0
C806 C 0.42573 0.03733 0.82807 0.0
H807 H 0.34295 0.02377 0.77499 0.0
H808 H 0.37297 0.02809 0.75898 0.0
H809 H 0.36101 0.9994 0.77287 0.0
H810 H 0.39765 0.98489 0.81131 0.0
H811 H 0.43183 0.97701 0.75659 0.0
H812 H 0.50508 0.26465 0.00812 0.0
H813 H 0.49364 0.29116 0.93159 0.0
H814 H 0.42875 0.29874 0.01585 0.0
H815 H 0.4405 0.27251 0.0933 0.0
H816 H 0.45726 0.29893 0.85282 0.0
H817 H 0.46127 0.36248 0.03544 0.0
H818 H 0.47086 0.33334 0.04332 0.0
H819 H 0.44086 0.33859 0.04188 0.0
C820 C 0.48795 0.27107 0.0086 0.0
C821 C 0.47357 0.26651 0.05604 0.0
C822 C 0.48146 0.28632 0.96513 0.0
C823 C 0.46056 0.29731 0.96879 0.0
C824 C 0.4451 0.2907 0.01274 0.0
H825 H 0.45043 0.43453 0.80439 0.0
H826 H 0.43681 0.39838 0.85131 0.0
C827 C 0.45166 0.27551 0.05648 0.0
C828 C 0.45706 0.31819 0.93286 0.0
H829 H 0.45922 0.37736 0.94182 0.0
C830 C 0.4572 0.31607 0.87221 0.0
C831 C 0.45701 0.34058 0.95828 0.0
C832 C 0.45764 0.34406 0.02324 0.0
C833 C 0.45837 0.33577 0.83639 0.0
C834 C 0.45981 0.35809 0.86198 0.0
C835 C 0.4581 0.36021 0.92237 0.0
C836 C 0.46642 0.37915 0.82822 0.0
C837 C 0.45881 0.33249 0.77151 0.0
C838 C 0.48762 0.38035 0.8002 0.0
C839 C 0.49551 0.40089 0.77401 0.0
C840 C 0.48241 0.42081 0.77537 0.0
C841 C 0.46093 0.4195 0.80252 0.0
C842 C 0.45309 0.39886 0.82916 0.0
H843 H 0.44973 0.31602 0.75859 0.0
H844 H 0.45091 0.34713 0.74871 0.0
H845 H 0.47679 0.3316 0.75701 0.0
H846 H 0.49849 0.36557 0.80025 0.0
H847 H 0.51209 0.40119 0.75342 0.0
H848 H 0.22608 0.57399 0.07203 0.0
H849 H 0.20189 0.55662 0.99552 0.0
H850 H 0.21046 0.48882 0.06924 0.0
H851 H 0.23515 0.50613 0.14521 0.0
H852 H 0.20663 0.48929 0.94379 0.0
H853 H 0.13794 0.53555 0.05503 0.0
H854 H 0.16128 0.5543 0.03176 0.0
H855 H 0.16591 0.53274 0.08641 0.0
C856 C 0.22342 0.5553 0.0706 0.0
C857 C 0.2323 0.54136 0.11445 0.0
C858 C 0.20954 0.54542 0.02719 0.0
C859 C 0.20401 0.52153 0.02764 0.0
C860 C 0.21449 0.5073 0.06835 0.0
H861 H 0.07388 0.47423 0.88155 0.0
H862 H 0.10725 0.47778 0.94509 0.0
C863 C 0.22863 0.51718 0.11152 0.0
C864 C 0.18511 0.5121 0.99083 0.0
H865 H 0.1283 0.51771 0.96529 0.0
C866 C 0.18945 0.49535 0.94852 0.0
C867 C 0.16261 0.51959 0.99828 0.0
C868 C 0.15654 0.53635 0.04569 0.0
C869 C 0.17195 0.48652 0.91184 0.0
C870 C 0.14971 0.49502 0.91724 0.0
C871 C 0.14534 0.51122 0.96089 0.0
C872 C 0.13074 0.4884 0.87696 0.0
C873 C 0.17743 0.46809 0.86814 0.0
C874 C 0.13294 0.49251 0.8172 0.0
C875 C 0.11393 0.4902 0.78064 0.0
C876 C 0.09225 0.48421 0.80338 0.0
C877 C 0.0903 0.47901 0.86274 0.0
C878 C 0.10938 0.48101 0.8991 0.0
H879 H 0.19222 0.45804 0.88241 0.0
H880 H 0.1626 0.45588 0.86071 0.0
H881 H 0.18202 0.47651 0.82629 0.0
H882 H 0.14906 0.49878 0.79921 0.0
H883 H 0.11601 0.49448 0.73518 0.0
H884 H 0.0464 0.78524 0.32626 0.0
H885 H 0.0315 0.80744 0.40634 0.0
H886 H 0.96268 0.78853 0.35257 0.0
H887 H 0.97775 0.76701 0.27024 0.0
H888 H 0.96739 0.83288 0.35709 0.0
H889 H 0.00337 0.80178 0.56106 0.0
H890 H 0.02636 0.80559 0.5107 0.0
H891 H 0.00353 0.78447 0.49574 0.0
C892 C 0.0281 0.78514 0.33271 0.0
C893 C 0.01324 0.77462 0.29175 0.0
C894 C 0.01954 0.79768 0.379 0.0
C895 C 0.9959 0.79963 0.38604 0.0
C896 C 0.98098 0.78726 0.34822 0.0
H897 H 0.97589 0.91041 0.64185 0.0
H898 H 0.96896 0.87248 0.59578 0.0
C899 C 0.98959 0.77479 0.30144 0.0
C900 C 0.98738 0.81788 0.42523 0.0
H901 H 0.99949 0.84443 0.55464 0.0
C902 C 0.97386 0.83501 0.40097 0.0
C903 C 0.99522 0.82064 0.48305 0.0
C904 C 0.00769 0.80193 0.51416 0.0
C905 C 0.96997 0.85572 0.43066 0.0
C906 C 0.98044 0.85974 0.48529 0.0
C907 C 0.99194 0.84168 0.51205 0.0
C908 C 0.98202 0.88323 0.51193 0.0
C909 C 0.9553 0.87338 0.40214 0.0
C910 C 0.99155 0.90195 0.48015 0.0
C911 C 0.99537 0.92362 0.50609 0.0
C912 C 0.9901 0.92705 0.56486 0.0
C913 C 0.98011 0.90841 0.59645 0.0
C914 C 0.97616 0.8867 0.57024 0.0
H915 H 0.94178 0.86472 0.375 0.0
H916 H 0.94709 0.88456 0.43462 0.0
H917 H 0.96604 0.88453 0.37307 0.0
H918 H 0.99688 0.8996 0.43566 0.0
H919 H 0.00324 0.93746 0.48048 0.0
H920 H 0.74959 0.9911 0.23363 0.0
H921 H 0.72862 0.9721 0.31356 0.0
H922 H 0.70085 0.03766 0.36088 0.0
H923 H 0.72263 0.05679 0.28366 0.0
H924 H 0.70669 0.01189 0.45463 0.0
H925 H 0.66194 0.95858 0.28448 0.0
H926 H 0.69202 0.95455 0.29158 0.0
H927 H 0.68199 0.98191 0.26672 0.0
C928 C 0.73967 0.00156 0.26249 0.0
C929 C 0.73735 0.02535 0.25171 0.0
C930 C 0.72742 0.99063 0.30761 0.0
C931 C 0.71248 0.00329 0.34188 0.0
C932 C 0.71201 0.02742 0.33464 0.0
H933 H 0.57938 0.98406 0.46082 0.0
H934 H 0.61565 0.98676 0.40985 0.0
C935 C 0.7244 0.03835 0.29026 0.0
C936 C 0.6954 0.99166 0.3808 0.0
H937 H 0.64679 0.95703 0.37776 0.0
C938 C 0.69378 0.99957 0.43822 0.0
C939 C 0.67844 0.97572 0.35909 0.0
C940 C 0.67847 0.96727 0.29704 0.0
C941 C 0.67498 0.99324 0.47324 0.0
C942 C 0.65767 0.97789 0.45083 0.0
C943 C 0.66008 0.96875 0.39483 0.0
C944 C 0.63554 0.97368 0.48114 0.0
C945 C 0.67307 0.00441 0.53221 0.0
C946 C 0.63442 0.96469 0.53769 0.0
C947 C 0.6136 0.9634 0.56744 0.0
C948 C 0.59348 0.97071 0.54075 0.0
C949 C 0.59449 0.97831 0.48285 0.0
C950 C 0.61528 0.97986 0.45355 0.0
H951 H 0.68544 0.01934 0.53783 0.0
H952 H 0.6556 0.01061 0.53927 0.0
H953 H 0.67665 0.99145 0.56624 0.0
H954 H 0.64969 0.95918 0.55933 0.0
H955 H 0.61339 0.95725 0.61182 0.0
H956 H 0.4901 0.70514 0.32841 0.0
H957 H 0.5066 0.68274 0.4062 0.0
H958 H 0.57421 0.70604 0.35324 0.0
H959 H 0.55757 0.72808 0.27355 0.0
H960 H 0.57117 0.66057 0.35728 0.0
H961 H 0.53544 0.69195 0.5613 0.0
H962 H 0.51251 0.68731 0.51068 0.0
H963 H 0.53483 0.70889 0.49548 0.0
C964 C 0.50845 0.70602 0.33437 0.0
C965 C 0.52257 0.71819 0.29483 0.0
C966 C 0.5179 0.69339 0.37931 0.0
C967 C 0.54168 0.69289 0.3862 0.0
C968 C 0.55581 0.70632 0.34905 0.0
H969 H 0.56415 0.58532 0.64615 0.0
H970 H 0.57186 0.62255 0.59779 0.0
C971 C 0.54631 0.719 0.3038 0.0
C972 C 0.55129 0.6754 0.42562 0.0
H973 H 0.54098 0.64968 0.55644 0.0
C974 C 0.56514 0.65857 0.40149 0.0
C975 C 0.54403 0.67293 0.48382 0.0
C976 C 0.53111 0.69145 0.51436 0.0
C977 C 0.56984 0.63822 0.43184 0.0
C978 C 0.55991 0.63436 0.48701 0.0
C979 C 0.54817 0.6523 0.51354 0.0
C980 C 0.55876 0.61105 0.51432 0.0
C981 C 0.58467 0.62071 0.40342 0.0
C982 C 0.54911 0.59209 0.48336 0.0
C983 C 0.54483 0.57081 0.51066 0.0
C984 C 0.54973 0.56807 0.56991 0.0
C985 C 0.56013 0.58682 0.60046 0.0
C986 C 0.56456 0.60813 0.57291 0.0
H987 H 0.59791 0.6295 0.37592 0.0
H988 H 0.59323 0.60982 0.43596 0.0
H989 H 0.57397 0.60927 0.3747 0.0
H990 H 0.54383 0.59403 0.43864 0.0
H991 H 0.5367 0.55683 0.4858 0.0
H992 H 0.79519 0.51296 0.23688 0.0
H993 H 0.81781 0.53008 0.3172 0.0
H994 H 0.83305 0.46149 0.37665 0.0
H995 H 0.81032 0.44445 0.29732 0.0
H996 H 0.82706 0.49455 0.46794 0.0
H997 H 0.88766 0.52632 0.29687 0.0
H998 H 0.85877 0.53562 0.29329 0.0
H999 H 0.86458 0.50569 0.28098 0.0
C1000 C 0.80269 0.50161 0.26845 0.0
C1001 C 0.80122 0.47742 0.26085 0.0
C1002 C 0.81577 0.51138 0.31387 0.0
C1003 C 0.82747 0.49704 0.35207 0.0
C1004 C 0.82425 0.47288 0.34751 0.0
H1005 H 0.9364 0.47301 0.56576 0.0
H1006 H 0.90043 0.47627 0.5145 0.0
C1007 C 0.81128 0.46315 0.30222 0.0
C1008 C 0.84529 0.50656 0.39213 0.0
H1009 H 0.90077 0.52696 0.39254 0.0
C1010 C 0.84299 0.50216 0.4517 0.0
C1011 C 0.86606 0.51656 0.37083 0.0
C1012 C 0.86964 0.52128 0.30703 0.0
C1013 C 0.86136 0.5062 0.49002 0.0
C1014 C 0.88265 0.51446 0.46794 0.0
C1015 C 0.88443 0.52057 0.40924 0.0
C1016 C 0.90392 0.51343 0.50257 0.0
C1017 C 0.85809 0.50072 0.55346 0.0
C1018 C 0.91821 0.53322 0.5117 0.0
C1019 C 0.93906 0.53142 0.54103 0.0
C1020 C 0.94607 0.50973 0.56079 0.0
C1021 C 0.93164 0.49002 0.55124 0.0
C1022 C 0.91088 0.49186 0.52243 0.0
H1023 H 0.84003 0.50257 0.56658 0.0
H1024 H 0.86253 0.48246 0.56146 0.0
H1025 H 0.86919 0.51219 0.58118 0.0
H1026 H 0.91327 0.54999 0.49591 0.0
H1027 H 0.94977 0.54693 0.54758 0.0
loop_
_geom_bond_atom_site_label_1
_geom_bond_atom_site_label_2
_geom_bond_distance
_geom_bond_site_symmetry_2
_ccdc_geom_bond_type
H0 C3 0.931 . S
H1 C6 0.928 . S
H2 C8 0.930 . S
C3 H0 0.931 . S
C3 C4 1.413 . S
C3 C5 1.360 1_554 S
C4 C3 1.413 . S
C4 C8 1.429 . S
C5 C3 1.360 1_556 S
C5 C6 1.372 . S
C6 H1 0.928 . S
C6 C5 1.372 . S
C6 C7 1.404 1_556 S
C7 C6 1.404 1_554 S
C7 C8 1.391 . S
C8 H2 0.930 . S
C8 C4 1.429 . S
C8 C7 1.391 . S
H9 C12 0.931 . S
H10 C15 0.928 . S
H11 C17 0.930 . S
C12 H9 0.931 . S
C12 C13 1.413 . S
C12 C14 1.360 . S
C13 C12 1.413 . S
C13 C17 1.429 . S
C14 C12 1.360 . S
C14 C15 1.372 . S
C15 H10 0.928 . S
C15 C14 1.372 . S
C15 C16 1.404 . S
C16 C15 1.404 . S
C16 C17 1.391 . S
C17 H11 0.930 . S
C17 C13 1.429 . S
C17 C16 1.391 . S
H18 C21 0.931 . S
H19 C24 0.928 1_556 S
H20 C26 0.930 1_545 S
C21 H18 0.931 . S
C21 C22 1.413 . S
C21 C23 1.360 . S
C22 C21 1.413 . S
C22 C26 1.430 . S
C23 C21 1.360 . S
C23 C24 1.373 . S
C24 H19 0.928 1_554 S
C24 C23 1.373 . S
C24 C25 1.404 . S
C25 C24 1.404 . S
C25 C26 1.390 . S
C26 H20 0.930 1_565 S
C26 C22 1.430 . S
C26 C25 1.390 . S
H27 C30 0.931 . S
H28 C33 0.928 . S
H29 C35 0.930 . S
C30 H27 0.931 . S
C30 C31 1.413 . S
C30 C32 1.360 . S
C31 C30 1.413 . S
C31 C35 1.429 1_554 S
C32 C30 1.360 . S
C32 C33 1.372 . S
C33 H28 0.928 . S
C33 C32 1.372 . S
C33 C34 1.404 . S
C34 C33 1.404 . S
C34 C35 1.391 1_554 S
C35 H29 0.930 . S
C35 C31 1.429 1_556 S
C35 C34 1.391 1_556 S
H36 C39 0.931 . S
H37 C42 0.928 . S
H38 C44 0.930 . S
C39 H36 0.931 . S
C39 C40 1.413 . S
C39 C41 1.360 . S
C40 C39 1.413 . S
C40 C44 1.429 . S
C41 C39 1.360 . S
C41 C42 1.372 . S
C42 H37 0.928 . S
C42 C41 1.372 . S
C42 C43 1.404 . S
C43 C42 1.404 . S
C43 C44 1.391 . S
C44 H38 0.930 . S
C44 C40 1.429 . S
C44 C43 1.391 . S
H45 C48 0.931 . S
H46 C51 0.928 . S
H47 C53 0.930 . S
C48 H45 0.931 . S
C48 C49 1.413 . S
C48 C50 1.360 . S
C49 C48 1.413 . S
C49 C53 1.429 . S
C50 C48 1.360 . S
C50 C51 1.372 . S
C51 H46 0.928 . S
C51 C50 1.372 . S
C51 C52 1.404 . S
C52 C51 1.404 . S
C52 C53 1.391 . S
C53 H47 0.930 . S
C53 C49 1.429 . S
C53 C52 1.391 . S
H54 C57 0.930 . S
H55 C60 0.928 . S
H56 C62 0.929 . S
C57 H54 0.930 . S
C57 C58 1.413 . S
C57 C59 1.360 . S
C58 C57 1.413 . S
C58 C62 1.429 1_565 S
C59 C57 1.360 . S
C59 C60 1.372 . S
C60 H55 0.928 . S
C60 C59 1.372 . S
C60 C61 1.404 . S
C61 C60 1.404 . S
C61 C62 1.391 1_565 S
C62 H56 0.929 . S
C62 C58 1.429 1_545 S
C62 C61 1.391 1_545 S
H63 C66 0.931 . S
H64 C69 0.928 . S
H65 C71 0.930 . S
C66 H63 0.931 . S
C66 C67 1.413 . S
C66 C68 1.360 . S
C67 C66 1.413 . S
C67 C71 1.429 . S
C68 C66 1.360 . S
C68 C69 1.372 . S
C69 H64 0.928 . S
C69 C68 1.372 . S
C69 C70 1.404 . S
C70 C69 1.404 . S
C70 C71 1.391 . S
C71 H65 0.930 . S
C71 C67 1.429 . S
C71 C70 1.391 . S
O72 Zn73 1.954 . S
O72 C88 1.233 . S
Zn73 O72 1.954 . S
Zn73 O74 1.948 . S
Zn73 O80 1.884 1_565 S
Zn73 O85 1.967 . S
O74 Zn73 1.948 . S
O74 Zn75 1.902 1_565 S
O74 Zn76 1.953 . S
O74 Zn77 1.962 . S
Zn75 O74 1.902 1_545 S
Zn75 O78 1.933 1_455 S
Zn75 O81 1.941 . S
Zn75 O82 1.965 . S
Zn76 O74 1.953 . S
Zn76 O83 1.938 1_565 S
Zn76 O84 1.906 . S
Zn76 O94 1.953 . S
Zn77 O74 1.962 . S
Zn77 O79 1.932 1_455 S
Zn77 O86 1.977 . S
Zn77 O87 1.910 . S
O78 Zn75 1.933 1_655 S
O78 C89 1.226 . S
O79 Zn77 1.932 1_655 S
O79 C89 1.307 1_565 S
O80 Zn73 1.884 1_545 S
O80 C91 1.253 . S
O81 Zn75 1.941 . S
O81 C91 1.283 . S
O82 Zn75 1.965 . S
O82 C90 1.303 . S
O83 Zn76 1.938 1_545 S
O83 C90 1.247 . S
O84 Zn76 1.906 . S
O84 C92 1.304 . S
O85 Zn73 1.967 . S
O85 C93 1.311 . S
O86 Zn77 1.977 . S
O86 C92 1.272 . S
O87 Zn77 1.910 . S
O87 C93 1.231 . S
C88 O72 1.233 . S
C88 O94 1.298 . S
C89 O78 1.226 . S
C89 O79 1.307 1_545 S
C90 O82 1.303 . S
C90 O83 1.247 . S
C91 O80 1.253 . S
C91 O81 1.283 . S
C92 O84 1.304 . S
C92 O86 1.272 . S
C93 O85 1.311 . S
C93 O87 1.231 . S
O94 Zn76 1.953 . S
O94 C88 1.298 . S
O95 Zn96 1.953 . S
O95 C111 1.225 . S
Zn96 O95 1.953 . S
Zn96 O97 1.949 . S
Zn96 O103 1.919 . S
Zn96 O108 1.924 . S
O97 Zn96 1.949 . S
O97 Zn98 1.923 1_545 S
O97 Zn99 1.950 . S
O97 Zn100 1.945 1_545 S
Zn98 O97 1.923 1_565 S
Zn98 O101 1.933 . S
Zn98 O104 1.941 . S
Zn98 O105 1.965 . S
Zn99 O97 1.950 . S
Zn99 O106 1.938 . S
Zn99 O107 1.888 1_545 S
Zn99 O117 1.953 . S
Zn100 O97 1.945 1_565 S
Zn100 O102 1.932 . S
Zn100 O109 1.977 . S
Zn100 O110 1.910 1_565 S
O101 Zn98 1.933 . S
O101 C112 1.226 . S
O102 Zn100 1.932 . S
O102 C112 1.307 . S
O103 Zn96 1.919 . S
O103 C114 1.253 . S
O104 Zn98 1.941 . S
O104 C114 1.283 1_565 S
O105 Zn98 1.965 . S
O105 C113 1.303 . S
O106 Zn99 1.938 . S
O106 C113 1.247 1_545 S
O107 Zn99 1.888 1_565 S
O107 C115 1.330 . S
O108 Zn96 1.924 . S
O108 C116 1.311 . S
O109 Zn100 1.977 . S
O109 C115 1.272 . S
O110 Zn100 1.910 1_545 S
O110 C116 1.231 . S
C111 O95 1.225 . S
C111 O117 1.298 . S
C112 O101 1.226 . S
C112 O102 1.307 . S
C113 O105 1.303 . S
C113 O106 1.247 1_565 S
C114 O103 1.253 . S
C114 O104 1.283 1_545 S
C115 O107 1.330 . S
C115 O109 1.272 . S
C116 O108 1.311 . S
C116 O110 1.231 . S
O117 Zn99 1.953 . S
O117 C111 1.298 . S
O118 Zn119 1.953 . S
O118 C134 1.225 . S
Zn119 O118 1.953 . S
Zn119 O120 1.949 . S
Zn119 O126 1.919 . S
Zn119 O131 1.924 . S
O120 Zn119 1.949 . S
O120 Zn121 1.923 . S
O120 Zn122 1.950 . S
O120 Zn123 1.945 . S
Zn121 O120 1.923 . S
Zn121 O124 1.933 . S
Zn121 O127 1.941 . S
Zn121 O128 1.965 . S
Zn122 O120 1.950 . S
Zn122 O129 1.938 . S
Zn122 O130 1.906 . S
Zn122 O140 1.953 . S
Zn123 O120 1.945 . S
Zn123 O125 1.932 . S
Zn123 O132 1.977 . S
Zn123 O133 1.910 . S
O124 Zn121 1.933 . S
O124 C135 1.226 . S
O125 Zn123 1.932 . S
O125 C135 1.307 . S
O126 Zn119 1.919 . S
O126 C137 1.253 . S
O127 Zn121 1.941 . S
O127 C137 1.283 . S
O128 Zn121 1.965 . S
O128 C136 1.303 . S
O129 Zn122 1.938 . S
O129 C136 1.247 . S
O130 Zn122 1.906 . S
O130 C138 1.304 . S
O131 Zn119 1.924 . S
O131 C139 1.311 . S
O132 Zn123 1.977 . S
O132 C138 1.272 . S
O133 Zn123 1.910 . S
O133 C139 1.231 . S
C134 O118 1.225 . S
C134 O140 1.298 . S
C135 O124 1.226 . S
C135 O125 1.307 . S
C136 O128 1.303 . S
C136 O129 1.247 . S
C137 O126 1.253 . S
C137 O127 1.283 . S
C138 O130 1.304 . S
C138 O132 1.272 . S
C139 O131 1.311 . S
C139 O133 1.231 . S
O140 Zn122 1.953 . S
O140 C134 1.298 . S
O141 Zn142 1.953 1_655 S
O141 C157 1.225 . S
Zn142 O141 1.953 1_455 S
Zn142 O143 1.949 . S
Zn142 O149 1.919 . S
Zn142 O154 1.924 . S
O143 Zn142 1.949 . S
O143 Zn144 1.923 . S
O143 Zn145 1.950 1_455 S
O143 Zn146 1.945 . S
Zn144 O143 1.923 . S
Zn144 O147 1.933 . S
Zn144 O150 1.941 . S
Zn144 O151 1.965 1_455 S
Zn145 O143 1.950 1_655 S
Zn145 O152 1.938 . S
Zn145 O153 1.906 1_655 S
Zn145 O163 1.953 . S
Zn146 O143 1.945 . S
Zn146 O148 1.932 . S
Zn146 O155 1.977 . S
Zn146 O156 1.910 . S
O147 Zn144 1.933 . S
O147 C158 1.226 . S
O148 Zn146 1.932 . S
O148 C158 1.307 . S
O149 Zn142 1.919 . S
O149 C160 1.253 . S
O150 Zn144 1.941 . S
O150 C160 1.283 . S
O151 Zn144 1.965 1_655 S
O151 C159 1.303 . S
O152 Zn145 1.938 . S
O152 C159 1.247 . S
O153 Zn145 1.906 1_455 S
O153 C161 1.304 . S
O154 Zn142 1.924 . S
O154 C162 1.311 . S
O155 Zn146 1.977 . S
O155 C161 1.272 . S
O156 Zn146 1.910 . S
O156 C162 1.231 . S
C157 O141 1.225 . S
C157 O163 1.298 . S
C158 O147 1.226 . S
C158 O148 1.307 . S
C159 O151 1.303 . S
C159 O152 1.247 . S
C160 O149 1.253 . S
C160 O150 1.283 . S
C161 O153 1.304 . S
C161 O155 1.272 . S
C162 O154 1.311 . S
C162 O156 1.231 . S
O163 Zn145 1.953 . S
O163 C157 1.298 . S
H164 C172 0.929 . S
H165 C174 0.930 . S
H166 C176 0.930 . S
H167 C179 0.929 . S
H168 C182 0.930 . S
H169 C184 0.960 . S
H170 C184 0.960 . S
H171 C184 0.960 . S
C172 H164 0.929 . S
C172 C173 1.368 1_545 S
C172 C174 1.384 . S
C173 C172 1.368 1_565 S
C173 C179 1.400 . S
C174 H165 0.930 . S
C174 C172 1.384 . S
C174 C175 1.372 1_545 S
C175 C174 1.372 1_565 S
C175 C176 1.400 . S
C175 C180 1.490 . S
C176 H166 0.930 . S
C176 C175 1.400 . S
C176 C179 1.386 . S
H177 C193 0.930 . S
H178 C194 0.931 . S
C179 H167 0.929 . S
C179 C173 1.400 . S
C179 C176 1.386 . S
C180 C175 1.490 . S
C180 C182 1.395 1_565 S
C180 C183 1.403 . S
H181 C187 0.930 . S
C182 H168 0.930 . S
C182 C180 1.395 1_545 S
C182 C185 1.403 . S
C183 C180 1.403 . S
C183 C184 1.524 . S
C183 C187 1.400 . S
C184 H169 0.960 . S
C184 H170 0.960 . S
C184 H171 0.960 . S
C184 C183 1.524 . S
C185 C182 1.403 . S
C185 C186 1.415 . S
C185 C189 1.495 . S
C186 C185 1.415 . S
C186 C187 1.362 1_545 S
C186 C188 1.478 1_545 S
C187 H181 0.930 . S
C187 C183 1.400 . S
C187 C186 1.362 1_565 S
C188 C186 1.478 1_565 S
C188 C190 1.382 1_565 S
C188 C194 1.382 . S
C189 C185 1.495 . S
C189 H195 0.959 . S
C189 H196 0.961 . S
C189 H197 0.960 . S
C190 C188 1.382 1_545 S
C190 C191 1.394 . S
C190 H198 0.930 . S
C191 C190 1.394 . S
C191 C192 1.383 1_545 S
C191 H199 0.929 . S
C192 C191 1.383 1_565 S
C192 C193 1.377 . S
C193 H177 0.930 . S
C193 C192 1.377 . S
C193 C194 1.379 . S
C194 H178 0.931 . S
C194 C188 1.382 . S
C194 C193 1.379 . S
H195 C189 0.959 . S
H196 C189 0.961 . S
H197 C189 0.960 . S
H198 C190 0.930 . S
H199 C191 0.929 . S
H200 C208 0.929 . S
H201 C210 0.930 . S
H202 C212 0.930 . S
H203 C215 0.929 . S
H204 C218 0.930 . S
H205 C220 0.960 . S
H206 C220 0.960 . S
H207 C220 0.960 . S
C208 H200 0.929 . S
C208 C209 1.377 . S
C208 C210 1.384 . S
C209 C208 1.377 . S
C209 C215 1.390 . S
C210 H201 0.930 . S
C210 C208 1.384 . S
C210 C211 1.372 . S
C211 C210 1.372 . S
C211 C212 1.400 . S
C211 C216 1.490 . S
C212 H202 0.930 . S
C212 C211 1.400 . S
C212 C215 1.386 . S
H213 C229 0.930 . S
H214 C230 0.931 . S
C215 H203 0.929 . S
C215 C209 1.390 . S
C215 C212 1.386 . S
C216 C211 1.490 . S
C216 C218 1.395 . S
C216 C219 1.403 . S
H217 C223 0.930 . S
C218 H204 0.930 . S
C218 C216 1.395 . S
C218 C221 1.403 . S
C219 C216 1.403 . S
C219 C220 1.524 . S
C219 C223 1.400 . S
C220 H205 0.960 . S
C220 H206 0.960 . S
C220 H207 0.960 . S
C220 C219 1.524 . S
C221 C218 1.403 . S
C221 C222 1.392 . S
C221 C225 1.495 . S
C222 C221 1.392 . S
C222 C223 1.385 . S
C222 C224 1.478 . S
C223 H217 0.930 . S
C223 C219 1.400 . S
C223 C222 1.385 . S
C224 C222 1.478 . S
C224 C226 1.381 . S
C224 C230 1.383 . S
C225 C221 1.495 . S
C225 H231 0.959 . S
C225 H232 0.961 . S
C225 H233 0.960 . S
C226 C224 1.381 . S
C226 C227 1.394 . S
C226 H234 0.930 . S
C227 C226 1.394 . S
C227 C228 1.383 . S
C227 H235 0.929 . S
C228 C227 1.383 . S
C228 C229 1.377 . S
C229 H213 0.930 . S
C229 C228 1.377 . S
C229 C230 1.379 . S
C230 H214 0.931 . S
C230 C224 1.383 . S
C230 C229 1.379 . S
H231 C225 0.959 . S
H232 C225 0.961 . S
H233 C225 0.960 . S
H234 C226 0.930 . S
H235 C227 0.929 . S
H236 C244 0.929 . S
H237 C246 0.930 . S
H238 C248 0.930 . S
H239 C251 0.929 . S
H240 C254 0.930 . S
H241 C256 0.960 . S
H242 C256 0.960 . S
H243 C256 0.960 . S
C244 H236 0.929 . S
C244 C245 1.377 . S
C244 C246 1.384 . S
C245 C244 1.377 . S
C245 C251 1.390 . S
C246 H237 0.930 . S
C246 C244 1.384 . S
C246 C247 1.372 . S
C247 C246 1.372 . S
C247 C248 1.400 . S
C247 C252 1.490 . S
C248 H238 0.930 . S
C248 C247 1.400 . S
C248 C251 1.386 . S
H249 C265 0.930 . S
H250 C266 0.931 . S
C251 H239 0.929 . S
C251 C245 1.390 . S
C251 C248 1.386 . S
C252 C247 1.490 . S
C252 C254 1.395 . S
C252 C255 1.403 . S
H253 C259 0.930 . S
C254 H240 0.930 . S
C254 C252 1.395 . S
C254 C257 1.403 . S
C255 C252 1.403 . S
C255 C256 1.524 . S
C255 C259 1.400 . S
C256 H241 0.960 . S
C256 H242 0.960 . S
C256 H243 0.960 . S
C256 C255 1.524 . S
C257 C254 1.403 . S
C257 C258 1.392 . S
C257 C261 1.495 . S
C258 C257 1.392 . S
C258 C259 1.385 . S
C258 C260 1.478 . S
C259 H253 0.930 . S
C259 C255 1.400 . S
C259 C258 1.385 . S
C260 C258 1.478 . S
C260 C262 1.381 . S
C260 C266 1.383 . S
C261 C257 1.495 . S
C261 H267 0.959 . S
C261 H268 0.961 . S
C261 H269 0.960 . S
C262 C260 1.381 . S
C262 C263 1.394 . S
C262 H270 0.930 . S
C263 C262 1.394 . S
C263 C264 1.383 . S
C263 H271 0.929 . S
C264 C263 1.383 . S
C264 C265 1.377 . S
C265 H249 0.930 . S
C265 C264 1.377 . S
C265 C266 1.379 . S
C266 H250 0.931 . S
C266 C260 1.383 . S
C266 C265 1.379 . S
H267 C261 0.959 . S
H268 C261 0.961 . S
H269 C261 0.960 . S
H270 C262 0.930 . S
H271 C263 0.929 . S
H272 C280 0.929 . S
H273 C282 0.930 . S
H274 C284 0.930 . S
H275 C287 0.929 . S
H276 C290 0.930 . S
H277 C292 0.960 . S
H278 C292 0.960 . S
H279 C292 0.960 . S
C280 H272 0.929 . S
C280 C281 1.377 . S
C280 C282 1.384 . S
C281 C280 1.377 . S
C281 C287 1.390 . S
C282 H273 0.930 . S
C282 C280 1.384 . S
C282 C283 1.372 . S
C283 C282 1.372 . S
C283 C284 1.400 . S
C283 C288 1.490 . S
C284 H274 0.930 . S
C284 C283 1.400 . S
C284 C287 1.386 . S
H285 C301 0.930 . S
H286 C302 0.931 . S
C287 H275 0.929 . S
C287 C281 1.390 . S
C287 C284 1.386 . S
C288 C283 1.490 . S
C288 C290 1.395 . S
C288 C291 1.403 . S
H289 C295 0.930 . S
C290 H276 0.930 . S
C290 C288 1.395 . S
C290 C293 1.403 . S
C291 C288 1.403 . S
C291 C292 1.524 . S
C291 C295 1.400 . S
C292 H277 0.960 . S
C292 H278 0.960 . S
C292 H279 0.960 . S
C292 C291 1.524 . S
C293 C290 1.403 . S
C293 C294 1.392 . S
C293 C297 1.495 . S
C294 C293 1.392 . S
C294 C295 1.385 . S
C294 C296 1.478 . S
C295 H289 0.930 . S
C295 C291 1.400 . S
C295 C294 1.385 . S
C296 C294 1.478 . S
C296 C298 1.381 . S
C296 C302 1.383 . S
C297 C293 1.495 . S
C297 H303 0.959 . S
C297 H304 0.961 . S
C297 H305 0.960 . S
C298 C296 1.381 . S
C298 C299 1.394 . S
C298 H306 0.930 . S
C299 C298 1.394 . S
C299 C300 1.383 . S
C299 H307 0.929 . S
C300 C299 1.383 . S
C300 C301 1.377 . S
C301 H285 0.930 . S
C301 C300 1.377 . S
C301 C302 1.379 . S
C302 H286 0.931 . S
C302 C296 1.383 . S
C302 C301 1.379 . S
H303 C297 0.959 . S
H304 C297 0.961 . S
H305 C297 0.960 . S
H306 C298 0.930 . S
H307 C299 0.929 . S
H308 C316 0.929 . S
H309 C318 0.930 . S
H310 C320 0.930 . S
H311 C323 0.929 . S
H312 C326 0.930 1_554 S
H313 C328 0.960 . S
H314 C328 0.960 . S
H315 C328 0.960 . S
C316 H308 0.929 . S
C316 C317 1.403 . S
C316 C318 1.384 1_554 S
C317 C316 1.403 . S
C317 C323 1.364 1_545 S
C318 H309 0.930 . S
C318 C316 1.384 1_556 S
C318 C319 1.372 . S
C319 C318 1.372 . S
C319 C320 1.400 1_545 S
C319 C324 1.490 . S
C320 H310 0.930 . S
C320 C319 1.400 1_565 S
C320 C323 1.386 1_556 S
H321 C337 0.930 . S
H322 C338 0.931 . S
C323 H311 0.929 . S
C323 C317 1.364 1_565 S
C323 C320 1.386 1_554 S
C324 C319 1.490 . S
C324 C326 1.395 . S
C324 C327 1.403 1_545 S
H325 C331 0.930 . S
C326 H312 0.930 1_556 S
C326 C324 1.395 . S
C326 C329 1.403 . S
C327 C324 1.403 1_565 S
C327 C328 1.524 . S
C327 C331 1.400 . S
C328 H313 0.960 . S
C328 H314 0.960 . S
C328 H315 0.960 . S
C328 C327 1.524 . S
C329 C326 1.403 . S
C329 C330 1.392 . S
C329 C333 1.495 . S
C330 C329 1.392 . S
C330 C331 1.385 1_545 S
C330 C332 1.478 . S
C331 H325 0.930 . S
C331 C327 1.400 . S
C331 C330 1.385 1_565 S
C332 C330 1.478 . S
C332 C334 1.381 . S
C332 C338 1.383 1_545 S
C333 C329 1.495 . S
C333 H339 0.959 1_556 S
C333 H340 0.961 . S
C333 H341 0.960 . S
C334 C332 1.381 . S
C334 C335 1.394 . S
C334 H342 0.930 . S
C335 C334 1.394 . S
C335 C336 1.383 . S
C335 H343 0.929 . S
C336 C335 1.383 . S
C336 C337 1.377 1_545 S
C337 H321 0.930 . S
C337 C336 1.377 1_565 S
C337 C338 1.379 . S
C338 H322 0.931 . S
C338 C332 1.383 1_565 S
C338 C337 1.379 . S
H339 C333 0.959 1_554 S
H340 C333 0.961 . S
H341 C333 0.960 . S
H342 C334 0.930 . S
H343 C335 0.929 . S
H344 C352 0.929 . S
H345 C354 0.930 . S
H346 C356 0.930 . S
H347 C359 0.929 . S
H348 C362 0.930 . S
H349 C364 0.960 . S
H350 C364 0.960 . S
H351 C364 0.960 . S
C352 H344 0.929 . S
C352 C353 1.377 1_556 S
C352 C354 1.384 . S
C353 C352 1.377 1_554 S
C353 C359 1.390 . S
C354 H345 0.930 . S
C354 C352 1.384 . S
C354 C355 1.372 . S
C355 C354 1.372 . S
C355 C356 1.400 1_556 S
C355 C360 1.490 . S
C356 H346 0.930 . S
C356 C355 1.400 1_554 S
C356 C359 1.386 . S
H357 C373 0.930 . S
H358 C374 0.931 . S
C359 H347 0.929 . S
C359 C353 1.390 . S
C359 C356 1.386 . S
C360 C355 1.490 . S
C360 C362 1.395 . S
C360 C363 1.403 . S
H361 C367 0.930 . S
C362 H348 0.930 . S
C362 C360 1.395 . S
C362 C365 1.403 . S
C363 C360 1.403 . S
C363 C364 1.524 . S
C363 C367 1.400 . S
C364 H349 0.960 . S
C364 H350 0.960 . S
C364 H351 0.960 . S
C364 C363 1.524 . S
C365 C362 1.403 . S
C365 C366 1.392 . S
C365 C369 1.495 . S
C366 C365 1.392 . S
C366 C367 1.385 . S
C366 C368 1.478 . S
C367 H361 0.930 . S
C367 C363 1.400 . S
C367 C366 1.385 . S
C368 C366 1.478 . S
C368 C370 1.381 . S
C368 C374 1.383 . S
C369 C365 1.495 . S
C369 H375 0.959 . S
C369 H376 0.961 . S
C369 H377 0.960 . S
C370 C368 1.381 . S
C370 C371 1.394 . S
C370 H378 0.930 . S
C371 C370 1.394 . S
C371 C372 1.383 . S
C371 H379 0.929 . S
C372 C371 1.383 . S
C372 C373 1.377 . S
C373 H357 0.930 . S
C373 C372 1.377 . S
C373 C374 1.379 . S
C374 H358 0.931 . S
C374 C368 1.383 . S
C374 C373 1.379 . S
H375 C369 0.959 . S
H376 C369 0.961 . S
H377 C369 0.960 . S
H378 C370 0.930 . S
H379 C371 0.929 . S
H380 C388 0.929 . S
H381 C390 0.930 . S
H382 C392 0.930 . S
H383 C395 0.929 . S
H384 C398 0.930 . S
H385 C400 0.960 . S
H386 C400 0.960 . S
H387 C400 0.960 . S
C388 H380 0.929 . S
C388 C389 1.379 . S
C388 C390 1.384 1_554 S
C389 C388 1.379 . S
C389 C395 1.379 1_554 S
C390 H381 0.930 . S
C390 C388 1.384 1_556 S
C390 C391 1.372 . S
C391 C390 1.372 . S
C391 C392 1.400 . S
C391 C396 1.490 . S
C392 H382 0.930 . S
C392 C391 1.400 . S
C392 C395 1.386 . S
H393 C409 0.930 . S
H394 C410 0.931 . S
C395 H383 0.929 . S
C395 C389 1.379 1_556 S
C395 C392 1.386 . S
C396 C391 1.490 . S
C396 C398 1.395 . S
C396 C399 1.403 . S
H397 C403 0.930 . S
C398 H384 0.930 . S
C398 C396 1.395 . S
C398 C401 1.403 . S
C399 C396 1.403 . S
C399 C400 1.524 . S
C399 C403 1.400 . S
C400 H385 0.960 . S
C400 H386 0.960 . S
C400 H387 0.960 . S
C400 C399 1.524 . S
C401 C398 1.403 . S
C401 C402 1.392 . S
C401 C405 1.495 . S
C402 C401 1.392 . S
C402 C403 1.385 . S
C402 C404 1.478 . S
C403 H397 0.930 . S
C403 C399 1.400 . S
C403 C402 1.385 . S
C404 C402 1.478 . S
C404 C406 1.381 . S
C404 C410 1.383 . S
C405 C401 1.495 . S
C405 H411 0.959 . S
C405 H412 0.961 . S
C405 H413 0.960 . S
C406 C404 1.381 . S
C406 C407 1.394 . S
C406 H414 0.930 . S
C407 C406 1.394 . S
C407 C408 1.383 . S
C407 H415 0.929 . S
C408 C407 1.383 . S
C408 C409 1.377 . S
C409 H393 0.930 . S
C409 C408 1.377 . S
C409 C410 1.379 . S
C410 H394 0.931 . S
C410 C404 1.383 . S
C410 C409 1.379 . S
H411 C405 0.959 . S
H412 C405 0.961 . S
H413 C405 0.960 . S
H414 C406 0.930 . S
H415 C407 0.929 . S
H416 C424 0.929 . S
H417 C426 0.930 . S
H418 C428 0.930 . S
H419 C431 0.929 . S
H420 C434 0.930 . S
H421 C436 0.960 . S
H422 C436 0.960 . S
H423 C436 0.960 1_455 S
C424 H416 0.929 . S
C424 C425 1.377 . S
C424 C426 1.384 1_554 S
C425 C424 1.377 . S
C425 C431 1.390 1_655 S
C426 H417 0.930 . S
C426 C424 1.384 1_556 S
C426 C427 1.372 . S
C427 C426 1.372 . S
C427 C428 1.400 1_656 S
C427 C432 1.490 . S
C428 H418 0.930 . S
C428 C427 1.400 1_454 S
C428 C431 1.386 . S
H429 C445 0.930 . S
H430 C446 0.931 . S
C431 H419 0.929 . S
C431 C425 1.390 1_455 S
C431 C428 1.386 . S
C432 C427 1.490 . S
C432 C434 1.391 1_655 S
C432 C435 1.403 . S
H433 C439 0.931 . S
C434 H420 0.930 . S
C434 C432 1.391 1_455 S
C434 C437 1.409 . S
C435 C432 1.403 . S
C435 C436 1.524 1_556 S
C435 C439 1.401 . S
C436 H421 0.960 . S
C436 H422 0.960 . S
C436 H423 0.960 1_655 S
C436 C435 1.524 1_554 S
C437 C434 1.409 . S
C437 C438 1.392 . S
C437 C441 1.495 . S
C438 C437 1.392 . S
C438 C439 1.384 1_455 S
C438 C440 1.478 . S
C439 H433 0.931 . S
C439 C435 1.401 . S
C439 C438 1.384 1_655 S
C440 C438 1.478 . S
C440 C442 1.381 1_455 S
C440 C446 1.383 . S
C441 C437 1.495 . S
C441 H447 0.959 . S
C441 H448 0.961 . S
C441 H449 0.960 1_455 S
C442 C440 1.381 1_655 S
C442 C443 1.394 . S
C442 H450 0.930 . S
C443 C442 1.394 . S
C443 C444 1.383 1_655 S
C443 H451 0.929 . S
C444 C443 1.383 1_455 S
C444 C445 1.377 . S
C445 H429 0.930 . S
C445 C444 1.377 . S
C445 C446 1.379 . S
C446 H430 0.931 . S
C446 C440 1.383 . S
C446 C445 1.379 . S
H447 C441 0.959 . S
H448 C441 0.961 . S
H449 C441 0.960 1_655 S
H450 C442 0.930 . S
H451 C443 0.929 . S
H452 C460 0.929 . S
H453 C462 0.930 . S
H454 C464 0.930 . S
H455 C467 0.929 . S
H456 C470 0.930 . S
H457 C472 0.960 . S
H458 C472 0.960 . S
H459 C472 0.960 . S
C460 H452 0.929 . S
C460 C461 1.377 . S
C460 C462 1.384 . S
C461 C460 1.377 . S
C461 C467 1.390 . S
C462 H453 0.930 . S
C462 C460 1.384 . S
C462 C463 1.372 . S
C463 C462 1.372 . S
C463 C464 1.400 . S
C463 C468 1.490 . S
C464 H454 0.930 . S
C464 C463 1.400 . S
C464 C467 1.386 . S
H465 C481 0.930 . S
H466 C482 0.931 . S
C467 H455 0.929 . S
C467 C461 1.390 . S
C467 C464 1.386 . S
C468 C463 1.490 . S
C468 C470 1.395 . S
C468 C471 1.403 . S
H469 C475 0.930 . S
C470 H456 0.930 . S
C470 C468 1.395 . S
C470 C473 1.403 . S
C471 C468 1.403 . S
C471 C472 1.524 . S
C471 C475 1.400 . S
C472 H457 0.960 . S
C472 H458 0.960 . S
C472 H459 0.960 . S
C472 C471 1.524 . S
C473 C470 1.403 . S
C473 C474 1.392 . S
C473 C477 1.495 . S
C474 C473 1.392 . S
C474 C475 1.385 . S
C474 C476 1.478 . S
C475 H469 0.930 . S
C475 C471 1.400 . S
C475 C474 1.385 . S
C476 C474 1.478 . S
C476 C478 1.381 . S
C476 C482 1.383 . S
C477 C473 1.495 . S
C477 H483 0.959 . S
C477 H484 0.961 . S
C477 H485 0.960 . S
C478 C476 1.381 . S
C478 C479 1.394 . S
C478 H486 0.930 . S
C479 C478 1.394 . S
C479 C480 1.383 . S
C479 H487 0.929 . S
C480 C479 1.383 . S
C480 C481 1.377 . S
C481 H465 0.930 . S
C481 C480 1.377 . S
C481 C482 1.379 . S
C482 H466 0.931 . S
C482 C476 1.383 . S
C482 C481 1.379 . S
H483 C477 0.959 . S
H484 C477 0.961 . S
H485 C477 0.960 . S
H486 C478 0.930 . S
H487 C479 0.929 . S
H488 C496 0.929 . S
H489 C498 0.930 . S
H490 C500 0.930 . S
H491 C503 0.929 . S
H492 C506 0.930 . S
H493 C508 0.960 . S
H494 C508 0.960 . S
H495 C508 0.960 . S
C496 H488 0.929 . S
C496 C497 1.386 . S
C496 C498 1.384 . S
C497 C496 1.386 . S
C497 C503 1.381 1_545 S
C498 H489 0.930 . S
C498 C496 1.384 . S
C498 C499 1.382 . S
C499 C498 1.382 . S
C499 C500 1.390 1_545 S
C499 C504 1.491 . S
C500 H490 0.930 . S
C500 C499 1.390 1_565 S
C500 C503 1.386 . S
H501 C517 0.930 . S
H502 C518 0.931 . S
C503 H491 0.929 . S
C503 C497 1.381 1_565 S
C503 C500 1.386 . S
C504 C499 1.491 . S
C504 C506 1.428 . S
C504 C507 1.370 1_545 S
H505 C511 0.930 . S
C506 H492 0.930 . S
C506 C504 1.428 . S
C506 C509 1.403 . S
C507 C504 1.370 1_565 S
C507 C508 1.524 . S
C507 C511 1.400 . S
C508 H493 0.960 . S
C508 H494 0.960 . S
C508 H495 0.960 . S
C508 C507 1.524 . S
C509 C506 1.403 . S
C509 C510 1.392 . S
C509 C513 1.495 . S
C510 C509 1.392 . S
C510 C511 1.385 1_545 S
C510 C512 1.478 . S
C511 H505 0.930 . S
C511 C507 1.400 . S
C511 C510 1.385 1_565 S
C512 C510 1.478 . S
C512 C514 1.381 . S
C512 C518 1.383 1_545 S
C513 C509 1.495 . S
C513 H519 0.959 . S
C513 H520 0.961 . S
C513 H521 0.960 . S
C514 C512 1.381 . S
C514 C515 1.394 . S
C514 H522 0.930 . S
C515 C514 1.394 . S
C515 C516 1.383 1_545 S
C515 H523 0.929 . S
C516 C515 1.383 1_565 S
C516 C517 1.377 . S
C517 H501 0.930 . S
C517 C516 1.377 . S
C517 C518 1.379 . S
C518 H502 0.931 . S
C518 C512 1.383 1_565 S
C518 C517 1.379 . S
H519 C513 0.959 . S
H520 C513 0.961 . S
H521 C513 0.960 . S
H522 C514 0.930 . S
H523 C515 0.929 . S
H524 C532 0.929 . S
H525 C534 0.930 . S
H526 C536 0.930 . S
H527 C539 0.929 . S
H528 C542 0.930 . S
H529 C544 0.960 . S
H530 C544 0.960 . S
H531 C544 0.960 . S
C532 H524 0.929 . S
C532 C533 1.377 . S
C532 C534 1.384 . S
C533 C532 1.377 . S
C533 C539 1.390 . S
C534 H525 0.930 . S
C534 C532 1.384 . S
C534 C535 1.372 . S
C535 C534 1.372 . S
C535 C536 1.400 . S
C535 C540 1.490 . S
C536 H526 0.930 . S
C536 C535 1.400 . S
C536 C539 1.386 . S
H537 C553 0.930 . S
H538 C554 0.931 . S
C539 H527 0.929 . S
C539 C533 1.390 . S
C539 C536 1.386 . S
C540 C535 1.490 . S
C540 C542 1.395 . S
C540 C543 1.403 . S
H541 C547 0.930 . S
C542 H528 0.930 . S
C542 C540 1.395 . S
C542 C545 1.403 . S
C543 C540 1.403 . S
C543 C544 1.524 . S
C543 C547 1.400 . S
C544 H529 0.960 . S
C544 H530 0.960 . S
C544 H531 0.960 . S
C544 C543 1.524 . S
C545 C542 1.403 . S
C545 C546 1.392 . S
C545 C549 1.495 . S
C546 C545 1.392 . S
C546 C547 1.385 . S
C546 C548 1.478 . S
C547 H541 0.930 . S
C547 C543 1.400 . S
C547 C546 1.385 . S
C548 C546 1.478 . S
C548 C550 1.381 . S
C548 C554 1.383 . S
C549 C545 1.495 . S
C549 H555 0.959 . S
C549 H556 0.961 . S
C549 H557 0.960 . S
C550 C548 1.381 . S
C550 C551 1.394 . S
C550 H558 0.930 . S
C551 C550 1.394 . S
C551 C552 1.383 . S
C551 H559 0.929 . S
C552 C551 1.383 . S
C552 C553 1.377 . S
C553 H537 0.930 . S
C553 C552 1.377 . S
C553 C554 1.379 . S
C554 H538 0.931 . S
C554 C548 1.383 . S
C554 C553 1.379 . S
H555 C549 0.959 . S
H556 C549 0.961 . S
H557 C549 0.960 . S
H558 C550 0.930 . S
H559 C551 0.929 . S
H560 C568 0.929 . S
H561 C570 0.930 . S
H562 C572 0.930 . S
H563 C575 0.929 . S
H564 C578 0.930 . S
H565 C580 0.960 . S
H566 C580 0.960 . S
H567 C580 0.960 . S
C568 H560 0.929 . S
C568 C569 1.377 . S
C568 C570 1.384 . S
C569 C568 1.377 . S
C569 C575 1.390 . S
C570 H561 0.930 . S
C570 C568 1.384 . S
C570 C571 1.372 . S
C571 C570 1.372 . S
C571 C572 1.400 . S
C571 C576 1.490 . S
C572 H562 0.930 . S
C572 C571 1.400 . S
C572 C575 1.386 . S
H573 C589 0.930 . S
H574 C590 0.931 . S
C575 H563 0.929 . S
C575 C569 1.390 . S
C575 C572 1.386 . S
C576 C571 1.490 . S
C576 C578 1.395 . S
C576 C579 1.403 . S
H577 C583 0.930 . S
C578 H564 0.930 . S
C578 C576 1.395 . S
C578 C581 1.403 . S
C579 C576 1.403 . S
C579 C580 1.524 . S
C579 C583 1.400 . S
C580 H565 0.960 . S
C580 H566 0.960 . S
C580 H567 0.960 . S
C580 C579 1.524 . S
C581 C578 1.403 . S
C581 C582 1.392 . S
C581 C585 1.495 . S
C582 C581 1.392 . S
C582 C583 1.385 . S
C582 C584 1.478 . S
C583 H577 0.930 . S
C583 C579 1.400 . S
C583 C582 1.385 . S
C584 C582 1.478 . S
C584 C586 1.381 . S
C584 C590 1.383 . S
C585 C581 1.495 . S
C585 H591 0.959 . S
C585 H592 0.961 . S
C585 H593 0.960 . S
C586 C584 1.381 . S
C586 C587 1.394 . S
C586 H594 0.930 . S
C587 C586 1.394 . S
C587 C588 1.383 . S
C587 H595 0.929 . S
C588 C587 1.383 . S
C588 C589 1.377 . S
C589 H573 0.930 . S
C589 C588 1.377 . S
C589 C590 1.379 . S
C590 H574 0.931 . S
C590 C584 1.383 . S
C590 C589 1.379 . S
H591 C585 0.959 . S
H592 C585 0.961 . S
H593 C585 0.960 . S
H594 C586 0.930 . S
H595 C587 0.929 . S
H596 C604 0.929 . S
H597 C606 0.930 . S
H598 C608 0.930 . S
H599 C611 0.929 . S
H600 C614 0.930 1_654 S
H601 C616 0.960 . S
H602 C616 0.960 . S
H603 C616 0.960 . S
C604 H596 0.929 . S
C604 C605 1.377 . S
C604 C606 1.384 1_554 S
C605 C604 1.377 . S
C605 C611 1.390 1_655 S
C606 H597 0.930 . S
C606 C604 1.384 1_556 S
C606 C607 1.372 1_655 S
C607 C606 1.372 1_455 S
C607 C608 1.400 1_556 S
C607 C612 1.490 . S
C608 H598 0.930 . S
C608 C607 1.400 1_554 S
C608 C611 1.386 . S
H609 C625 0.930 . S
H610 C626 0.931 . S
C611 H599 0.929 . S
C611 C605 1.390 1_455 S
C611 C608 1.386 . S
C612 C607 1.490 . S
C612 C614 1.395 . S
C612 C615 1.403 . S
H613 C619 0.930 . S
C614 H600 0.930 1_456 S
C614 C612 1.395 . S
C614 C617 1.403 . S
C615 C612 1.403 . S
C615 C616 1.524 . S
C615 C619 1.400 . S
C616 H601 0.960 . S
C616 H602 0.960 . S
C616 H603 0.960 . S
C616 C615 1.524 . S
C617 C614 1.403 . S
C617 C618 1.392 . S
C617 C621 1.495 . S
C618 C617 1.392 . S
C618 C619 1.385 . S
C618 C620 1.478 . S
C619 H613 0.930 . S
C619 C615 1.400 . S
C619 C618 1.385 . S
C620 C618 1.478 . S
C620 C622 1.381 . S
C620 C626 1.383 . S
C621 C617 1.495 . S
C621 H627 0.959 1_455 S
C621 H628 0.961 . S
C621 H629 0.960 1_455 S
C622 C620 1.381 . S
C622 C623 1.394 . S
C622 H630 0.930 . S
C623 C622 1.394 . S
C623 C624 1.383 . S
C623 H631 0.929 . S
C624 C623 1.383 . S
C624 C625 1.377 . S
C625 H609 0.930 . S
C625 C624 1.377 . S
C625 C626 1.379 . S
C626 H610 0.931 . S
C626 C620 1.383 . S
C626 C625 1.379 . S
H627 C621 0.959 1_655 S
H628 C621 0.961 . S
H629 C621 0.960 1_655 S
H630 C622 0.930 . S
H631 C623 0.929 . S
H632 C640 0.929 . S
H633 C642 0.930 . S
H634 C644 0.930 1_554 S
H635 C647 0.929 . S
H636 C650 0.930 . S
H637 C652 0.960 . S
H638 C652 0.960 . S
H639 C652 0.960 . S
C640 H632 0.929 . S
C640 C641 1.377 1_546 S
C640 C642 1.384 . S
C641 C640 1.377 1_564 S
C641 C647 1.390 . S
C642 H633 0.930 . S
C642 C640 1.384 . S
C642 C643 1.372 . S
C643 C642 1.372 . S
C643 C644 1.400 1_545 S
C643 C648 1.490 . S
C644 H634 0.930 1_556 S
C644 C643 1.400 1_565 S
C644 C647 1.386 1_556 S
H645 C661 0.930 . S
H646 C662 0.931 1_565 S
C647 H635 0.929 . S
C647 C641 1.390 . S
C647 C644 1.386 1_554 S
C648 C643 1.490 . S
C648 C650 1.395 . S
C648 C651 1.403 . S
H649 C655 0.930 . S
C650 H636 0.930 . S
C650 C648 1.395 . S
C650 C653 1.403 . S
C651 C648 1.403 . S
C651 C652 1.524 1_556 S
C651 C655 1.400 . S
C652 H637 0.960 . S
C652 H638 0.960 . S
C652 H639 0.960 . S
C652 C651 1.524 1_554 S
C653 C650 1.403 . S
C653 C654 1.392 . S
C653 C657 1.495 . S
C654 C653 1.392 . S
C654 C655 1.385 . S
C654 C656 1.478 . S
C655 H649 0.930 . S
C655 C651 1.400 . S
C655 C654 1.385 . S
C656 C654 1.478 . S
C656 C658 1.381 . S
C656 C662 1.383 . S
C657 C653 1.495 . S
C657 H663 0.959 . S
C657 H664 0.961 1_545 S
C657 H665 0.960 . S
C658 C656 1.381 . S
C658 C659 1.394 . S
C658 H666 0.930 . S
C659 C658 1.394 . S
C659 C660 1.383 . S
C659 H667 0.929 . S
C660 C659 1.383 . S
C660 C661 1.377 . S
C661 H645 0.930 . S
C661 C660 1.377 . S
C661 C662 1.379 . S
C662 H646 0.931 1_545 S
C662 C656 1.383 . S
C662 C661 1.379 . S
H663 C657 0.959 . S
H664 C657 0.961 1_565 S
H665 C657 0.960 . S
H666 C658 0.930 . S
H667 C659 0.929 . S
H668 C676 0.929 . S
H669 C678 0.930 . S
H670 C680 0.930 . S
H671 C683 0.929 . S
H672 C686 0.930 . S
H673 C688 0.960 . S
H674 C688 0.960 . S
H675 C688 0.960 . S
C676 H668 0.929 . S
C676 C677 1.377 . S
C676 C678 1.384 1_554 S
C677 C676 1.377 . S
C677 C683 1.390 1_554 S
C678 H669 0.930 . S
C678 C676 1.384 1_556 S
C678 C679 1.372 . S
C679 C678 1.372 . S
C679 C680 1.400 . S
C679 C684 1.490 . S
C680 H670 0.930 . S
C680 C679 1.400 . S
C680 C683 1.386 . S
H681 C697 0.930 . S
H682 C698 0.931 . S
C683 H671 0.929 . S
C683 C677 1.390 1_556 S
C683 C680 1.386 . S
C684 C679 1.490 . S
C684 C686 1.395 . S
C684 C687 1.403 . S
H685 C691 0.930 . S
C686 H672 0.930 . S
C686 C684 1.395 . S
C686 C689 1.403 . S
C687 C684 1.403 . S
C687 C688 1.524 . S
C687 C691 1.400 . S
C688 H673 0.960 . S
C688 H674 0.960 . S
C688 H675 0.960 . S
C688 C687 1.524 . S
C689 C686 1.403 . S
C689 C690 1.392 . S
C689 C693 1.495 . S
C690 C689 1.392 . S
C690 C691 1.385 . S
C690 C692 1.478 . S
C691 H685 0.930 . S
C691 C687 1.400 . S
C691 C690 1.385 . S
C692 C690 1.478 . S
C692 C694 1.381 . S
C692 C698 1.383 . S
C693 C689 1.495 . S
C693 H699 0.959 . S
C693 H700 0.961 . S
C693 H701 0.960 . S
C694 C692 1.381 . S
C694 C695 1.394 . S
C694 H702 0.930 . S
C695 C694 1.394 . S
C695 C696 1.383 . S
C695 H703 0.929 . S
C696 C695 1.383 . S
C696 C697 1.377 . S
C697 H681 0.930 . S
C697 C696 1.377 . S
C697 C698 1.379 . S
C698 H682 0.931 . S
C698 C692 1.383 . S
C698 C697 1.379 . S
H699 C693 0.959 . S
H700 C693 0.961 . S
H701 C693 0.960 . S
H702 C694 0.930 . S
H703 C695 0.929 . S
H704 C712 0.929 . S
H705 C714 0.930 . S
H706 C716 0.930 . S
H707 C719 0.923 1_554 S
H708 C722 0.930 . S
H709 C724 0.960 . S
H710 C724 0.960 . S
H711 C724 0.960 . S
C712 H704 0.929 . S
C712 C713 1.377 . S
C712 C714 1.384 . S
C713 C712 1.377 . S
C713 C719 1.390 . S
C714 H705 0.930 . S
C714 C712 1.384 . S
C714 C715 1.372 . S
C715 C714 1.372 . S
C715 C716 1.400 . S
C715 C720 1.490 . S
C716 H706 0.930 . S
C716 C715 1.400 . S
C716 C719 1.386 . S
H717 C733 0.930 . S
H718 C734 0.931 . S
C719 H707 0.923 1_556 S
C719 C713 1.390 . S
C719 C716 1.386 . S
C720 C715 1.490 . S
C720 C722 1.395 . S
C720 C723 1.403 . S
H721 C727 0.930 . S
C722 H708 0.930 . S
C722 C720 1.395 . S
C722 C725 1.403 . S
C723 C720 1.403 . S
C723 C724 1.524 . S
C723 C727 1.400 . S
C724 H709 0.960 . S
C724 H710 0.960 . S
C724 H711 0.960 . S
C724 C723 1.524 . S
C725 C722 1.403 . S
C725 C726 1.392 . S
C725 C729 1.495 . S
C726 C725 1.392 . S
C726 C727 1.385 . S
C726 C728 1.478 . S
C727 H721 0.930 . S
C727 C723 1.400 . S
C727 C726 1.385 . S
C728 C726 1.478 . S
C728 C730 1.381 . S
C728 C734 1.383 . S
C729 C725 1.495 . S
C729 H735 0.959 . S
C729 H736 0.961 . S
C729 H737 0.960 . S
C730 C728 1.381 . S
C730 C731 1.394 . S
C730 H738 0.930 . S
C731 C730 1.394 . S
C731 C732 1.383 . S
C731 H739 0.929 . S
C732 C731 1.383 . S
C732 C733 1.377 . S
C733 H717 0.930 . S
C733 C732 1.377 . S
C733 C734 1.379 . S
C734 H718 0.931 . S
C734 C728 1.383 . S
C734 C733 1.379 . S
H735 C729 0.959 . S
H736 C729 0.961 . S
H737 C729 0.960 . S
H738 C730 0.930 . S
H739 C731 0.929 . S
H740 C748 0.929 . S
H741 C750 0.930 . S
H742 C752 0.930 . S
H743 C755 0.929 . S
H744 C758 0.930 . S
H745 C760 0.960 . S
H746 C760 0.960 . S
H747 C760 0.960 . S
C748 H740 0.929 . S
C748 C749 1.377 . S
C748 C750 1.384 . S
C749 C748 1.377 . S
C749 C755 1.390 . S
C750 H741 0.930 . S
C750 C748 1.384 . S
C750 C751 1.372 . S
C751 C750 1.372 . S
C751 C752 1.400 . S
C751 C756 1.490 . S
C752 H742 0.930 . S
C752 C751 1.400 . S
C752 C755 1.386 . S
H753 C769 0.930 . S
H754 C770 0.931 . S
C755 H743 0.929 . S
C755 C749 1.390 . S
C755 C752 1.386 . S
C756 C751 1.490 . S
C756 C758 1.395 . S
C756 C759 1.403 . S
H757 C763 0.930 1_556 S
C758 H744 0.930 . S
C758 C756 1.395 . S
C758 C761 1.403 . S
C759 C756 1.403 . S
C759 C760 1.524 . S
C759 C763 1.400 . S
C760 H745 0.960 . S
C760 H746 0.960 . S
C760 H747 0.960 . S
C760 C759 1.524 . S
C761 C758 1.403 . S
C761 C762 1.392 . S
C761 C765 1.495 . S
C762 C761 1.392 . S
C762 C763 1.385 . S
C762 C764 1.478 1_554 S
C763 H757 0.930 1_554 S
C763 C759 1.400 . S
C763 C762 1.385 . S
C764 C762 1.478 1_556 S
C764 C766 1.381 . S
C764 C770 1.383 . S
C765 C761 1.495 . S
C765 H771 0.959 . S
C765 H772 0.961 1_554 S
C765 H773 0.960 . S
C766 C764 1.381 . S
C766 C767 1.394 . S
C766 H774 0.930 1_556 S
C767 C766 1.394 . S
C767 C768 1.383 . S
C767 H775 0.929 . S
C768 C767 1.383 . S
C768 C769 1.377 . S
C769 H753 0.930 . S
C769 C768 1.377 . S
C769 C770 1.379 . S
C770 H754 0.931 . S
C770 C764 1.383 . S
C770 C769 1.379 . S
H771 C765 0.959 . S
H772 C765 0.961 1_556 S
H773 C765 0.960 . S
H774 C766 0.930 1_554 S
H775 C767 0.929 . S
H776 C784 0.929 . S
H777 C786 0.930 . S
H778 C788 0.930 . S
H779 C791 0.929 . S
H780 C794 0.930 . S
H781 C796 0.960 . S
H782 C796 0.960 1_565 S
H783 C796 0.960 . S
C784 H776 0.929 . S
C784 C785 1.383 . S
C784 C786 1.384 . S
C785 C784 1.383 . S
C785 C791 1.385 1_565 S
C786 H777 0.930 . S
C786 C784 1.384 . S
C786 C787 1.372 . S
C787 C786 1.372 . S
C787 C788 1.400 1_565 S
C787 C792 1.490 . S
C788 H778 0.930 . S
C788 C787 1.400 1_545 S
C788 C791 1.386 . S
H789 C805 0.930 . S
H790 C806 0.931 . S
C791 H779 0.929 . S
C791 C785 1.385 1_545 S
C791 C788 1.386 . S
C792 C787 1.490 . S
C792 C794 1.395 1_554 S
C792 C795 1.403 1_565 S
H793 C799 0.930 . S
C794 H780 0.930 . S
C794 C792 1.395 1_556 S
C794 C797 1.403 . S
C795 C792 1.403 1_545 S
C795 C796 1.524 . S
C795 C799 1.400 . S
C796 H781 0.960 . S
C796 H782 0.960 1_545 S
C796 H783 0.960 . S
C796 C795 1.524 . S
C797 C794 1.403 . S
C797 C798 1.392 . S
C797 C801 1.495 . S
C798 C797 1.392 . S
C798 C799 1.385 1_566 S
C798 C800 1.478 . S
C799 H793 0.930 . S
C799 C795 1.400 . S
C799 C798 1.385 1_544 S
C800 C798 1.478 . S
C800 C802 1.423 . S
C800 C806 1.342 1_565 S
C801 C797 1.495 . S
C801 H807 0.959 . S
C801 H808 0.961 1_565 S
C801 H809 0.960 . S
C802 C800 1.423 . S
C802 C803 1.394 . S
C802 H810 0.930 . S
C803 C802 1.394 . S
C803 C804 1.397 . S
C803 H811 0.929 . S
C804 C803 1.397 . S
C804 C805 1.363 1_565 S
C805 H789 0.930 . S
C805 C804 1.363 1_545 S
C805 C806 1.379 . S
C806 H790 0.931 . S
C806 C800 1.342 1_545 S
C806 C805 1.379 . S
H807 C801 0.959 . S
H808 C801 0.961 1_545 S
H809 C801 0.960 . S
H810 C802 0.930 . S
H811 C803 0.929 . S
H812 C820 0.929 . S
H813 C822 0.930 . S
H814 C824 0.930 . S
H815 C827 0.929 . S
H816 C830 0.930 . S
H817 C832 0.960 . S
H818 C832 0.960 . S
H819 C832 0.960 . S
C820 H812 0.929 . S
C820 C821 1.377 . S
C820 C822 1.384 . S
C821 C820 1.377 . S
C821 C827 1.390 . S
C822 H813 0.930 . S
C822 C820 1.384 . S
C822 C823 1.372 . S
C823 C822 1.372 . S
C823 C824 1.400 . S
C823 C828 1.490 . S
C824 H814 0.930 . S
C824 C823 1.400 . S
C824 C827 1.386 . S
H825 C841 0.930 . S
H826 C842 0.931 . S
C827 H815 0.929 . S
C827 C821 1.390 . S
C827 C824 1.386 . S
C828 C823 1.490 . S
C828 C830 1.395 1_554 S
C828 C831 1.403 . S
H829 C835 0.930 . S
C830 H816 0.930 . S
C830 C828 1.395 1_556 S
C830 C833 1.403 . S
C831 C828 1.403 . S
C831 C832 1.524 . S
C831 C835 1.400 1_554 S
C832 H817 0.960 . S
C832 H818 0.960 . S
C832 H819 0.960 . S
C832 C831 1.524 . S
C833 C830 1.403 . S
C833 C834 1.392 . S
C833 C837 1.495 . S
C834 C833 1.392 . S
C834 C835 1.385 . S
C834 C836 1.478 . S
C835 H829 0.930 . S
C835 C831 1.400 1_556 S
C835 C834 1.385 . S
C836 C834 1.478 . S
C836 C838 1.381 . S
C836 C842 1.383 . S
C837 C833 1.495 . S
C837 H843 0.959 . S
C837 H844 0.961 . S
C837 H845 0.960 . S
C838 C836 1.381 . S
C838 C839 1.394 . S
C838 H846 0.930 . S
C839 C838 1.394 . S
C839 C840 1.383 . S
C839 H847 0.929 . S
C840 C839 1.383 . S
C840 C841 1.377 . S
C841 H825 0.930 . S
C841 C840 1.377 . S
C841 C842 1.379 . S
C842 H826 0.931 . S
C842 C836 1.383 . S
C842 C841 1.379 . S
H843 C837 0.959 . S
H844 C837 0.961 . S
H845 C837 0.960 . S
H846 C838 0.930 . S
H847 C839 0.929 . S
H848 C856 0.929 . S
H849 C858 0.930 . S
H850 C860 0.930 . S
H851 C863 0.929 . S
H852 C866 0.930 . S
H853 C868 0.960 . S
H854 C868 0.960 . S
H855 C868 0.960 . S
C856 H848 0.929 . S
C856 C857 1.377 . S
C856 C858 1.384 . S
C857 C856 1.377 . S
C857 C863 1.390 . S
C858 H849 0.930 . S
C858 C856 1.384 . S
C858 C859 1.372 . S
C859 C858 1.372 . S
C859 C860 1.400 . S
C859 C864 1.490 . S
C860 H850 0.930 . S
C860 C859 1.400 . S
C860 C863 1.386 . S
H861 C877 0.930 . S
H862 C878 0.931 . S
C863 H851 0.929 . S
C863 C857 1.390 . S
C863 C860 1.386 . S
C864 C859 1.490 . S
C864 C866 1.395 1_554 S
C864 C867 1.403 . S
H865 C871 0.928 1_554 S
C866 H852 0.930 . S
C866 C864 1.395 1_556 S
C866 C869 1.403 . S
C867 C864 1.403 . S
C867 C868 1.524 . S
C867 C871 1.400 1_554 S
C868 H853 0.960 . S
C868 H854 0.960 . S
C868 H855 0.960 . S
C868 C867 1.524 . S
C869 C866 1.403 . S
C869 C870 1.392 . S
C869 C873 1.495 . S
C870 C869 1.392 . S
C870 C871 1.385 . S
C870 C872 1.478 . S
C871 H865 0.928 1_556 S
C871 C867 1.400 1_556 S
C871 C870 1.385 . S
C872 C870 1.478 . S
C872 C874 1.381 . S
C872 C878 1.383 . S
C873 C869 1.495 . S
C873 H879 0.959 . S
C873 H880 0.961 . S
C873 H881 0.960 . S
C874 C872 1.381 . S
C874 C875 1.394 . S
C874 H882 0.930 . S
C875 C874 1.394 . S
C875 C876 1.383 . S
C875 H883 0.929 . S
C876 C875 1.383 . S
C876 C877 1.377 . S
C877 H861 0.930 . S
C877 C876 1.377 . S
C877 C878 1.379 . S
C878 H862 0.931 . S
C878 C872 1.383 . S
C878 C877 1.379 . S
H879 C873 0.959 . S
H880 C873 0.961 . S
H881 C873 0.960 . S
H882 C874 0.930 . S
H883 C875 0.929 . S
H884 C892 0.929 . S
H885 C894 0.930 . S
H886 C896 0.930 . S
H887 C899 0.929 . S
H888 C902 0.930 . S
H889 C904 0.960 . S
H890 C904 0.960 . S
H891 C904 0.960 1_655 S
C892 H884 0.929 . S
C892 C893 1.377 1_455 S
C892 C894 1.384 . S
C893 C892 1.377 1_655 S
C893 C899 1.390 . S
C894 H885 0.930 . S
C894 C892 1.384 . S
C894 C895 1.372 1_455 S
C895 C894 1.372 1_655 S
C895 C896 1.400 . S
C895 C900 1.490 . S
C896 H886 0.930 . S
C896 C895 1.400 . S
C896 C899 1.386 . S
H897 C913 0.930 . S
H898 C914 0.931 . S
C899 H887 0.929 . S
C899 C893 1.390 . S
C899 C896 1.386 . S
C900 C895 1.490 . S
C900 C902 1.395 . S
C900 C903 1.403 1_655 S
H901 C907 0.930 . S
C902 H888 0.930 . S
C902 C900 1.395 . S
C902 C905 1.403 . S
C903 C900 1.403 1_455 S
C903 C904 1.524 . S
C903 C907 1.400 . S
C904 H889 0.960 . S
C904 H890 0.960 . S
C904 H891 0.960 1_455 S
C904 C903 1.524 . S
C905 C902 1.403 . S
C905 C906 1.392 . S
C905 C909 1.495 . S
C906 C905 1.392 . S
C906 C907 1.385 1_655 S
C906 C908 1.478 . S
C907 H901 0.930 . S
C907 C903 1.400 . S
C907 C906 1.385 1_455 S
C908 C906 1.478 . S
C908 C910 1.381 1_655 S
C908 C914 1.383 . S
C909 C905 1.495 . S
C909 H915 0.959 . S
C909 H916 0.961 . S
C909 H917 0.960 . S
C910 C908 1.381 1_455 S
C910 C911 1.394 . S
C910 H918 0.930 . S
C911 C910 1.394 . S
C911 C912 1.383 1_455 S
C911 H919 0.929 . S
C912 C911 1.383 1_655 S
C912 C913 1.377 . S
C913 H897 0.930 . S
C913 C912 1.377 . S
C913 C914 1.379 . S
C914 H898 0.931 . S
C914 C908 1.383 . S
C914 C913 1.379 . S
H915 C909 0.959 . S
H916 C909 0.961 . S
H917 C909 0.960 . S
H918 C910 0.930 . S
H919 C911 0.929 . S
H920 C928 0.929 . S
H921 C930 0.930 . S
H922 C932 0.930 . S
H923 C935 0.929 . S
H924 C938 0.930 . S
H925 C940 0.960 . S
H926 C940 0.960 . S
H927 C940 0.960 1_545 S
C928 H920 0.929 . S
C928 C929 1.377 . S
C928 C930 1.384 . S
C929 C928 1.377 . S
C929 C935 1.390 1_565 S
C930 H921 0.930 . S
C930 C928 1.384 . S
C930 C931 1.372 . S
C931 C930 1.372 . S
C931 C932 1.400 1_565 S
C931 C936 1.490 . S
C932 H922 0.930 . S
C932 C931 1.400 1_545 S
C932 C935 1.386 . S
H933 C949 0.927 1_545 S
H934 C950 0.931 . S
C935 H923 0.929 . S
C935 C929 1.390 1_545 S
C935 C932 1.386 . S
C936 C931 1.490 . S
C936 C938 1.395 . S
C936 C939 1.403 . S
H937 C943 0.930 . S
C938 H924 0.930 . S
C938 C936 1.395 . S
C938 C941 1.403 . S
C939 C936 1.403 . S
C939 C940 1.524 . S
C939 C943 1.400 . S
C940 H925 0.960 . S
C940 H926 0.960 . S
C940 H927 0.960 1_565 S
C940 C939 1.524 . S
C941 C938 1.403 . S
C941 C942 1.392 . S
C941 C945 1.495 . S
C942 C941 1.392 . S
C942 C943 1.385 . S
C942 C944 1.478 . S
C943 H937 0.930 . S
C943 C939 1.400 . S
C943 C942 1.385 . S
C944 C942 1.478 . S
C944 C946 1.381 . S
C944 C950 1.383 1_565 S
C945 C941 1.495 . S
C945 H951 0.959 . S
C945 H952 0.961 1_565 S
C945 H953 0.960 . S
C946 C944 1.381 . S
C946 C947 1.394 . S
C946 H954 0.930 . S
C947 C946 1.394 . S
C947 C948 1.383 . S
C947 H955 0.929 . S
C948 C947 1.383 . S
C948 C949 1.380 . S
C949 H933 0.927 1_565 S
C949 C948 1.380 . S
C949 C950 1.379 1_565 S
C950 H934 0.931 . S
C950 C944 1.383 1_545 S
C950 C949 1.379 1_545 S
H951 C945 0.959 . S
H952 C945 0.961 1_545 S
H953 C945 0.960 . S
H954 C946 0.930 . S
H955 C947 0.929 . S
H956 C964 0.929 . S
H957 C966 0.930 . S
H958 C968 0.930 . S
H959 C971 0.929 . S
H960 C974 0.930 . S
H961 C976 0.960 . S
H962 C976 0.960 . S
H963 C976 0.960 . S
C964 H956 0.929 . S
C964 C965 1.377 . S
C964 C966 1.384 . S
C965 C964 1.377 . S
C965 C971 1.390 . S
C966 H957 0.930 . S
C966 C964 1.384 . S
C966 C967 1.372 . S
C967 C966 1.372 . S
C967 C968 1.400 . S
C967 C972 1.490 . S
C968 H958 0.930 . S
C968 C967 1.400 . S
C968 C971 1.386 . S
H969 C985 0.930 . S
H970 C986 0.931 . S
C971 H959 0.929 . S
C971 C965 1.390 . S
C971 C968 1.386 . S
C972 C967 1.490 . S
C972 C974 1.395 . S
C972 C975 1.403 . S
H973 C979 0.930 . S
C974 H960 0.930 . S
C974 C972 1.395 . S
C974 C977 1.403 . S
C975 C972 1.403 . S
C975 C976 1.524 . S
C975 C979 1.400 . S
C976 H961 0.960 . S
C976 H962 0.960 . S
C976 H963 0.960 . S
C976 C975 1.524 . S
C977 C974 1.403 . S
C977 C978 1.392 . S
C977 C981 1.495 . S
C978 C977 1.392 . S
C978 C979 1.385 . S
C978 C980 1.478 . S
C979 H973 0.930 . S
C979 C975 1.400 . S
C979 C978 1.385 . S
C980 C978 1.478 . S
C980 C982 1.381 . S
C980 C986 1.383 . S
C981 C977 1.495 . S
C981 H987 0.959 . S
C981 H988 0.961 . S
C981 H989 0.960 . S
C982 C980 1.381 . S
C982 C983 1.394 . S
C982 H990 0.930 . S
C983 C982 1.394 . S
C983 C984 1.383 . S
C983 H991 0.929 . S
C984 C983 1.383 . S
C984 C985 1.377 . S
C985 H969 0.930 . S
C985 C984 1.377 . S
C985 C986 1.379 . S
C986 H970 0.931 . S
C986 C980 1.383 . S
C986 C985 1.379 . S
H987 C981 0.959 . S
H988 C981 0.961 . S
H989 C981 0.960 . S
H990 C982 0.930 . S
H991 C983 0.929 . S
H992 C1000 0.929 . S
H993 C1002 0.930 . S
H994 C1004 0.930 . S
H995 C1007 0.929 . S
H996 C1010 0.930 . S
H997 C1012 0.960 . S
H998 C1012 0.960 . S
H999 C1012 0.960 . S
C1000 H992 0.929 . S
C1000 C1001 1.377 . S
C1000 C1002 1.384 . S
C1001 C1000 1.377 . S
C1001 C1007 1.390 . S
C1002 H993 0.930 . S
C1002 C1000 1.384 . S
C1002 C1003 1.372 . S
C1003 C1002 1.372 . S
C1003 C1004 1.400 . S
C1003 C1008 1.490 . S
C1004 H994 0.930 . S
C1004 C1003 1.400 . S
C1004 C1007 1.386 . S
H1005 C1021 0.930 . S
H1006 C1022 0.931 . S
C1007 H995 0.929 . S
C1007 C1001 1.390 . S
C1007 C1004 1.386 . S
C1008 C1003 1.490 . S
C1008 C1010 1.395 . S
C1008 C1011 1.403 . S
H1009 C1015 0.930 . S
C1010 H996 0.930 . S
C1010 C1008 1.395 . S
C1010 C1013 1.403 . S
C1011 C1008 1.403 . S
C1011 C1012 1.524 . S
C1011 C1015 1.400 . S
C1012 H997 0.960 . S
C1012 H998 0.960 . S
C1012 H999 0.960 . S
C1012 C1011 1.524 . S
C1013 C1010 1.403 . S
C1013 C1014 1.392 . S
C1013 C1017 1.495 . S
C1014 C1013 1.392 . S
C1014 C1015 1.385 . S
C1014 C1016 1.478 . S
C1015 H1009 0.930 . S
C1015 C1011 1.400 . S
C1015 C1014 1.385 . S
C1016 C1014 1.478 . S
C1016 C1018 1.381 . S
C1016 C1022 1.383 . S
C1017 C1013 1.495 . S
C1017 H1023 0.959 . S
C1017 H1024 0.961 . S
C1017 H1025 0.960 . S
C1018 C1016 1.381 . S
C1018 C1019 1.394 . S
C1018 H1026 0.930 . S
C1019 C1018 1.394 . S
C1019 C1020 1.383 . S
C1019 H1027 0.929 . S
C1020 C1019 1.383 . S
C1020 C1021 1.377 . S
C1021 H1005 0.930 . S
C1021 C1020 1.377 . S
C1021 C1022 1.379 . S
C1022 H1006 0.931 . S
C1022 C1016 1.383 . S
C1022 C1021 1.379 . S
H1023 C1017 0.959 . S
H1024 C1017 0.961 . S
H1025 C1017 0.960 . S
H1026 C1018 0.930 . S
H1027 C1019 0.929 . S
C173 C61 1.444 . S
C192 C88 1.445 . S
C228 C111 1.598 . S
C209 C70 1.589 . S
C264 C134 1.559 . S
C245 C43 1.537 . S
C300 C161 1.467 . S
C281 C52 1.506 . S
C336 C89 1.451 . S
C317 C25 1.449 1_545 S
C353 C34 1.411 . S
C372 C112 1.433 . S
C389 C7 1.318 . S
C408 C135 1.323 . S
C425 C16 1.481 . S
C444 C160 1.493 . S
C480 C90 0.289 . S
C461 C50 0.496 . S
C516 C113 0.455 . S
C497 C59 0.384 1_545 S
C552 C136 0.217 . S
C533 C67 0.314 . S
C569 C41 0.254 . S
C588 C162 0.476 . S
C605 C14 0.244 . S
C624 C93 0.485 . S
C660 C116 0.609 . S
C641 C23 0.202 . S
C696 C139 0.671 . S
C677 C31 0.296 . S
C713 C5 0.255 . S
C732 C159 0.372 . S
C749 C49 1.610 . S
C768 C91 1.629 . S
C785 C58 1.497 . S
C804 C114 1.493 1_565 S
C840 C137 1.495 . S
C821 C68 1.500 . S
C876 C158 1.238 . S
C857 C40 1.207 . S
C893 C13 1.558 . S
C912 C92 1.538 1_655 S
C948 C115 1.446 . S
C929 C22 1.500 . S
C984 C138 1.450 . S
C965 C32 1.482 . S
C1001 C4 1.615 . S
C1020 C157 1.664 . S
