# Generated by pormake.
# Topology nom, (4,4)-cn, num edge types: 1
# Building blocks:
#     Node 0, Type 0, BuildingBlock: GIZVER_clean_linker_0, # of connection points: 4
#     Node 1, Type 0, BuildingBlock: GIZVER_clean_linker_0, # of connection points: 4
#     Node 2, Type 0, BuildingBlock: GIZVER_clean_linker_0, # of connection points: 4
#     Node 3, Type 0, BuildingBlock: GIZVER_clean_linker_0, # of connection points: 4
#     Node 4, Type 0, BuildingBlock: GIZVER_clean_linker_0, # of connection points: 4
#     Node 5, Type 0, BuildingBlock: GIZVER_clean_linker_0, # of connection points: 4
#     Node 6, Type 1, BuildingBlock: KUFVIS_clean_sbu_0, # of connection points: 4
#     Node 7, Type 1, BuildingBlock: KUFVIS_clean_sbu_0, # of connection points: 4
#     Node 8, Type 1, BuildingBlock: KUFVIS_clean_sbu_0, # of connection points: 4
#     Node 9, Type 1, BuildingBlock: KUFVIS_clean_sbu_0, # of connection points: 4
#     Node 10, Type 1, BuildingBlock: KUFVIS_clean_sbu_0, # of connection points: 4
#     Node 11, Type 1, BuildingBlock: KUFVIS_clean_sbu_0, # of connection points: 4
#     Edge 12, Type (0, 1), BuildingBlock: OJICUG_clean_linker_0, # of connection points: 2
#     Edge 13, Type (0, 1), BuildingBlock: OJICUG_clean_linker_0, # of connection points: 2
#     Edge 14, Type (0, 1), BuildingBlock: OJICUG_clean_linker_0, # of connection points: 2
#     Edge 15, Type (0, 1), BuildingBlock: OJICUG_clean_linker_0, # of connection points: 2
#     Edge 16, Type (0, 1), BuildingBlock: OJICUG_clean_linker_0, # of connection points: 2
#     Edge 17, Type (0, 1), BuildingBlock: OJICUG_clean_linker_0, # of connection points: 2
#     Edge 18, Type (0, 1), BuildingBlock: OJICUG_clean_linker_0, # of connection points: 2
#     Edge 19, Type (0, 1), BuildingBlock: OJICUG_clean_linker_0, # of connection points: 2
#     Edge 20, Type (0, 1), BuildingBlock: OJICUG_clean_linker_0, # of connection points: 2
#     Edge 21, Type (0, 1), BuildingBlock: OJICUG_clean_linker_0, # of connection points: 2
#     Edge 22, Type (0, 1), BuildingBlock: OJICUG_clean_linker_0, # of connection points: 2
#     Edge 23, Type (0, 1), BuildingBlock: OJICUG_clean_linker_0, # of connection points: 2
#     Edge 24, Type (0, 1), BuildingBlock: OJICUG_clean_linker_0, # of connection points: 2
#     Edge 25, Type (0, 1), BuildingBlock: OJICUG_clean_linker_0, # of connection points: 2
#     Edge 26, Type (0, 1), BuildingBlock: OJICUG_clean_linker_0, # of connection points: 2
#     Edge 27, Type (0, 1), BuildingBlock: OJICUG_clean_linker_0, # of connection points: 2
#     Edge 28, Type (0, 1), BuildingBlock: OJICUG_clean_linker_0, # of connection points: 2
#     Edge 29, Type (0, 1), BuildingBlock: OJICUG_clean_linker_0, # of connection points: 2
#     Edge 30, Type (0, 1), BuildingBlock: OJICUG_clean_linker_0, # of connection points: 2
#     Edge 31, Type (0, 1), BuildingBlock: OJICUG_clean_linker_0, # of connection points: 2
#     Edge 32, Type (0, 1), BuildingBlock: OJICUG_clean_linker_0, # of connection points: 2
#     Edge 33, Type (0, 1), BuildingBlock: OJICUG_clean_linker_0, # of connection points: 2
#     Edge 34, Type (0, 1), BuildingBlock: OJICUG_clean_linker_0, # of connection points: 2
#     Edge 35, Type (0, 1), BuildingBlock: OJICUG_clean_linker_0, # of connection points: 2
# Relax obj value: 0.005
# Max RMSD: 0.075
# Mean RMSD: 0.051
data_MOF--net-nom--node1-KUFVIS_clean_sbu_0--node2-GIZVER_clean_linker_0--edge1-OJICUG_clean_linker_0
_symmetry_space_group_name_H-M    P1
_symmetry_Int_Tables_number       1
_symmetry_cell_setting            triclinic
loop_
_symmetry_equiv_pos_as_xyz
'x, y, z'
_cell_length_a     33.63318
_cell_length_b     34.005674
_cell_length_c     34.899336
_cell_angle_alpha  90.439975
_cell_angle_beta   90.793329
_cell_angle_gamma 120.06738
loop_
_atom_site_label
_atom_site_type_symbol
_atom_site_fract_x
_atom_site_fract_y
_atom_site_fract_z
_atom_type_partial_charge
H0 H 0.96341 0.58692 0.34523 0.0
H1 H 1.01313 0.56517 0.23875 0.0
H2 H 0.87342 0.47591 0.27077 0.0
H3 H 0.0323 0.64772 0.31867 0.0
H4 H 0.04309 0.64413 0.26943 0.0
H5 H 0.07258 0.63158 0.36813 0.0
H6 H 0.19009 0.6217 0.33625 0.0
H7 H 0.09943 0.6224 0.24915 0.0
C8 C 0.958 0.56637 0.31971 0.0
C9 C 0.91457 0.52762 0.31227 0.0
C10 C 0.99378 0.5801 0.29316 0.0
C11 C 0.9861 0.55408 0.25952 0.0
C12 C 0.94285 0.51589 0.25137 0.0
C13 C 0.90779 0.50304 0.27811 0.0
C14 C 0.037 0.62617 0.29713 0.0
C15 C 0.07916 0.62312 0.30775 0.0
C16 C 0.09286 0.62708 0.34657 0.0
C17 C 0.13414 0.62867 0.35702 0.0
C18 C 0.15935 0.62249 0.32829 0.0
C19 C 0.14882 0.62228 0.28934 0.0
C20 C 0.10793 0.62187 0.27913 0.0
H21 H 0.41232 0.97214 0.50697 0.0
H22 H 0.44872 0.99362 0.38768 0.0
H23 H 0.41165 0.86617 0.44042 0.0
H24 H 0.40353 0.0297 0.46782 0.0
H25 H 0.41953 0.03785 0.41869 0.0
H26 H 0.47999 0.04525 0.51323 0.0
H27 H 0.57756 0.1867 0.50051 0.0
H28 H 0.47639 0.11607 0.41211 0.0
C29 C 0.41937 0.96066 0.48023 0.0
C30 C 0.4154 0.91746 0.478 0.0
C31 C 0.43151 0.98853 0.44743 0.0
C32 C 0.43928 0.97228 0.41264 0.0
C33 C 0.43271 0.92809 0.40964 0.0
C34 C 0.42019 0.90133 0.44248 0.0
C35 C 0.43017 0.03264 0.44766 0.0
C36 C 0.47524 0.07441 0.4597 0.0
C37 C 0.49485 0.07531 0.49584 0.0
C38 C 0.53185 0.11561 0.51076 0.0
C39 C 0.54994 0.15495 0.48878 0.0
C40 C 0.53021 0.15606 0.45367 0.0
C41 C 0.49304 0.11534 0.43867 0.0
H42 H 0.41002 0.48726 0.58812 0.0
H43 H 0.44438 0.46648 0.70261 0.0
H44 H 0.41909 0.57589 0.68068 0.0
H45 H 0.40397 0.41547 0.60437 0.0
H46 H 0.40462 0.40257 0.65368 0.0
H47 H 0.48439 0.4699 0.57471 0.0
H48 H 0.57677 0.42055 0.60074 0.0
H49 H 0.46244 0.38542 0.67295 0.0
C50 C 0.41808 0.49845 0.61779 0.0
C51 C 0.41481 0.53626 0.63075 0.0
C52 C 0.42919 0.47327 0.64357 0.0
C53 C 0.43776 0.48665 0.68234 0.0
C54 C 0.43502 0.52423 0.69545 0.0
C55 C 0.42426 0.54898 0.66956 0.0
C56 C 0.4244 0.42812 0.63157 0.0
C57 C 0.47012 0.43041 0.62609 0.0
C58 C 0.49594 0.45235 0.59364 0.0
C59 C 0.53457 0.44899 0.58418 0.0
C60 C 0.54806 0.42489 0.60838 0.0
C61 C 0.52225 0.40129 0.6399 0.0
C62 C 0.48357 0.40481 0.64934 0.0
H63 H 0.93733 0.40198 0.74839 0.0
H64 H 1.00187 0.45085 0.85917 0.0
H65 H 0.85953 0.40927 0.84201 0.0
H66 H 1.00794 0.40496 0.76214 0.0
H67 H 0.02469 0.40779 0.81099 0.0
H68 H 0.04058 0.47431 0.72312 0.0
H69 H 0.17604 0.577 0.75936 0.0
H70 H 0.08693 0.47709 0.8392 0.0
C71 C 0.93582 0.41224 0.77756 0.0
C72 C 0.89367 0.40485 0.79189 0.0
C73 C 0.97511 0.42897 0.80163 0.0
C74 C 0.97248 0.44011 0.83999 0.0
C75 C 0.93104 0.43404 0.85438 0.0
C76 C 0.89225 0.41728 0.82999 0.0
C77 C 1.01627 0.426 0.78882 0.0
C78 C 0.05822 0.47187 0.78243 0.0
C79 C 0.06624 0.49093 0.74579 0.0
C80 C 0.10852 0.52944 0.73763 0.0
C81 C 0.14235 0.54941 0.76663 0.0
C82 C 0.13538 0.5309 0.80333 0.0
C83 C 0.09259 0.49254 0.81129 0.0
H84 H 0.6535 0.09736 0.01021 0.0
H85 H 0.58021 0.02761 0.90722 0.0
H86 H 0.61017 0.16404 0.92937 0.0
H87 H 0.64547 0.02585 -0.00503 0.0
H88 H 0.63419 1.00846 0.94591 0.0
H89 H 0.58342 0.99319 0.04191 0.0
H90 H 0.4695 0.86204 0.01189 0.0
H91 H 0.55847 0.94729 0.924 0.0
C92 C 0.63457 0.09657 0.98459 0.0
C93 C 0.63432 0.13611 0.97296 0.0
C94 C 0.61362 0.05675 0.96157 0.0
C95 C 0.59326 0.05697 0.92628 0.0
C96 C 0.59327 0.09615 0.914 0.0
C97 C 0.61092 0.13417 0.9387 0.0
C98 C 0.61985 0.01689 0.97117 0.0
C99 C 0.57518 0.97536 0.98166 0.0
C100 C 0.56232 0.968 0.02024 0.0
C101 C 0.52366 0.92734 0.03113 0.0
C102 C 0.49738 0.89457 0.00296 0.0
C103 C 0.50909 0.90117 0.96416 0.0
C104 C 0.54813 0.94203 0.95364 0.0
H105 H 0.65572 0.55729 0.08782 0.0
H106 H 0.60607 0.58459 0.19192 0.0
H107 H 0.61767 0.4655 0.18215 0.0
H108 H 0.64904 0.62382 0.0917 0.0
H109 H 0.65569 0.64558 0.13939 0.0
H110 H 0.58199 0.60681 0.05555 0.0
H111 H 0.46767 0.60708 0.10912 0.0
H112 H 0.58805 0.63818 0.17523 0.0
C113 C 0.64077 0.54654 0.11577 0.0
C114 C 0.63931 0.50832 0.13279 0.0
C115 C 0.62633 0.57313 0.13628 0.0
C116 C 0.61256 0.56213 0.17443 0.0
C117 C 0.60982 0.52361 0.19112 0.0
C118 C 0.61996 0.49535 0.16911 0.0
C119 C 0.63217 0.61689 0.12 0.0
C120 C 0.5869 0.61642 0.11658 0.0
C121 C 0.56494 0.60972 0.08051 0.0
C122 C 0.52322 0.60994 0.07685 0.0
C123 C 0.50171 0.61146 0.11061 0.0
C124 C 0.52602 0.6254 0.14552 0.0
C125 C 0.56855 0.62703 0.14852 0.0
Mn126 Mn 0.64113 0.41979 0.39674 0.0
Mn127 Mn 0.69525 0.53244 0.41897 0.0
C128 C 0.60969 0.44872 0.43949 0.0
C129 C 0.6202 0.34371 0.40678 0.0
C130 C 0.64075 0.49252 0.34558 0.0
O131 O 0.70746 0.44143 0.3804 0.0
O132 O 0.73827 0.51612 0.39484 0.0
C133 C 0.76 0.53497 0.47867 0.0
N134 N 0.72606 0.54348 0.46766 0.0
C135 C 0.72735 0.5757 0.52963 0.0
C136 C 0.76253 0.56755 0.54153 0.0
C137 C 0.77887 0.54705 0.51595 0.0
C138 C 0.71029 0.5635 0.49197 0.0
H139 H 0.77256 0.51904 0.45919 0.0
C140 C 0.74143 0.48241 0.38189 0.0
O141 O 0.61609 0.35751 0.37322 0.0
O142 O 0.64039 0.37474 0.43342 0.0
N143 N 0.65774 0.55262 0.44313 0.0
C144 C 0.62086 0.5542 0.42834 0.0
C145 C 0.59882 0.57157 0.451 0.0
C146 C 0.61506 0.58736 0.48848 0.0
C147 C 0.65325 0.58566 0.50298 0.0
C148 C 0.67408 0.56835 0.47896 0.0
H149 H 0.60809 0.54186 0.39963 0.0
O150 O 0.58366 0.41122 0.42052 0.0
O151 O 0.65331 0.46883 0.43246 0.0
O152 O 0.63135 0.45193 0.35166 0.0
O153 O 0.66432 0.52548 0.3689 0.0
C154 C 0.67062 0.5992 0.54069 0.0
C155 C 0.70765 0.59425 0.554 0.0
H156 H 0.77684 0.57637 0.5704 0.0
H157 H 0.80582 0.5404 0.52501 0.0
H158 H 0.56926 0.57261 0.43967 0.0
H159 H 0.59765 0.60027 0.50601 0.0
H160 H 0.6552 0.61268 0.55993 0.0
H161 H 0.72014 0.60401 0.58327 0.0
Mn162 Mn 0.27352 0.67454 0.55343 0.0
Mn163 Mn 0.2159 0.56812 0.51535 0.0
C164 C 0.21546 0.65444 0.50758 0.0
C165 C 0.3324 0.75049 0.5518 0.0
C166 C 0.19587 0.59268 0.59347 0.0
O167 O 0.31558 0.64872 0.56855 0.0
O168 O 0.27386 0.57961 0.54044 0.0
C169 C 0.28292 0.58269 0.45511 0.0
N170 N 0.23923 0.57011 0.46531 0.0
C171 C 0.21262 0.55396 0.39962 0.0
C172 C 0.25727 0.56657 0.38841 0.0
C173 C 0.29261 0.5812 0.41628 0.0
C174 C 0.2052 0.55689 0.43865 0.0
H175 H 0.31017 0.59386 0.47643 0.0
C176 C 0.30901 0.60911 0.55973 0.0
O177 O 0.31065 0.73299 0.58318 0.0
O178 O 0.32241 0.72326 0.52251 0.0
N179 N 0.15891 0.55162 0.48959 0.0
C180 C 0.11743 0.53918 0.50527 0.0
C181 C 0.07818 0.52262 0.48136 0.0
C182 C 0.0818 0.51822 0.44169 0.0
C183 C 0.12462 0.53015 0.42632 0.0
C184 C 0.1625 0.5463 0.45158 0.0
H185 H 0.11427 0.54176 0.5358 0.0
O186 O 0.22772 0.68926 0.53006 0.0
O187 O 0.23797 0.63305 0.51223 0.0
O188 O 0.22662 0.63466 0.59283 0.0
O189 O 0.18924 0.56433 0.56637 0.0
C190 C 0.13114 0.52635 0.38697 0.0
C191 C 0.17515 0.53846 0.37361 0.0
H192 H 0.26481 0.56519 0.35852 0.0
H193 H 0.3272 0.59112 0.40786 0.0
H194 H 0.04519 0.51311 0.49349 0.0
H195 H 0.05149 0.50556 0.42333 0.0
H196 H 0.10257 0.51432 0.36671 0.0
H197 H 0.17976 0.53553 0.34329 0.0
Mn198 Mn 0.61479 0.23479 0.70958 0.0
Mn199 Mn 0.67099 0.17725 0.69163 0.0
C200 C 0.58642 0.17558 0.66485 0.0
C201 C 0.59524 0.29048 0.69632 0.0
C202 C 0.61427 0.1629 0.76211 0.0
O203 O 0.68013 0.27937 0.72976 0.0
O204 O 0.71288 0.23698 0.71617 0.0
C205 C 0.73708 0.23747 0.63419 0.0
N206 N 0.70282 0.1956 0.64434 0.0
C207 C 0.7058 0.16305 0.58371 0.0
C208 C 0.74129 0.20578 0.57272 0.0
C209 C 0.75694 0.24314 0.59806 0.0
C210 C 0.68779 0.15929 0.62032 0.0
H211 H 0.7491 0.26637 0.65346 0.0
C212 C 0.71493 0.27346 0.72888 0.0
O213 O 0.58858 0.27231 0.72987 0.0
O214 O 0.61649 0.27904 0.67179 0.0
N215 N 0.63396 0.11931 0.6669 0.0
C216 C 0.5964 0.0817 0.6803 0.0
C217 C 0.57471 0.04202 0.65743 0.0
C218 C 0.59192 0.04137 0.62113 0.0
C219 C 0.63067 0.08047 0.60799 0.0
C220 C 0.65111 0.11892 0.63219 0.0
H221 H 0.58287 0.08213 0.70809 0.0
O222 O 0.55886 0.18621 0.68175 0.0
O223 O 0.62927 0.19875 0.67552 0.0
O224 O 0.60324 0.19289 0.75491 0.0
O225 O 0.63941 0.15465 0.74034 0.0
C226 C 0.64902 0.08319 0.57142 0.0
C227 C 0.68659 0.12442 0.5593 0.0
H228 H 0.75632 0.21043 0.54469 0.0
H229 H 0.78413 0.27628 0.58969 0.0
H230 H 0.54467 1.01205 0.66768 0.0
H231 H 0.5748 1.01084 0.60341 0.0
H232 H 0.63394 0.054 0.55209 0.0
H233 H 0.69981 0.12632 0.53084 0.0
Mn234 Mn 0.40978 0.65167 0.89027 0.0
Mn235 Mn 0.35929 0.54369 0.92157 0.0
C236 C 0.4474 0.63006 0.9336 0.0
C237 C 0.42388 0.72584 0.89589 0.0
C238 C 0.40583 0.57227 0.84508 0.0
O239 O 0.3426 0.62623 0.87397 0.0
O240 O 0.31274 0.55584 0.89773 0.0
C241 C 0.30676 0.55604 0.98328 0.0
N242 N 0.33785 0.54397 0.972 0.0
C243 C 0.35107 0.52977 0.03708 0.0
C244 C 0.31898 0.54177 0.04935 0.0
C245 C 0.29679 0.55503 0.02233 0.0
C246 C 0.35975 0.53164 -0.00218 0.0
H247 H 0.28989 0.56662 0.96268 0.0
C248 C 0.30863 0.58671 0.88041 0.0
O249 O 0.43006 0.71043 0.8637 0.0
O250 O 0.40776 0.69776 0.92403 0.0
N251 N 0.39966 0.52659 0.94583 0.0
C252 C 0.42848 0.51454 0.92911 0.0
C253 C 0.45217 0.49886 0.95203 0.0
C254 C 0.44566 0.4953 -0.0082 0.0
C255 C 0.41503 0.5069 0.00824 0.0
C256 C 0.3918 0.52157 0.98387 0.0
H257 H 0.43337 0.51687 0.89853 0.0
O258 O 0.47037 0.66647 0.91377 0.0
O259 O 0.40314 0.60848 0.9284 0.0
O260 O 0.41768 0.61414 0.84864 0.0
O261 O 0.3827 0.54225 0.87001 0.0
C262 C 0.40668 0.50454 0.04785 0.0
C263 C 0.375 0.51633 0.0623 0.0
H264 H 0.31122 0.54106 0.07945 0.0
H265 H 0.27215 0.56455 0.0316 0.0
H266 H 0.47551 0.48967 0.93909 0.0
H267 H 0.46437 0.48367 0.00944 0.0
H268 H 0.42462 0.49394 0.06746 0.0
H269 H 0.36916 0.51476 0.09283 0.0
Mn270 Mn 0.79957 0.40821 0.06316 0.0
Mn271 Mn 0.85843 0.35352 0.08111 0.0
C272 C 0.86113 0.43883 0.10596 0.0
C273 C 0.7413 0.424 0.07703 0.0
C274 C 0.86914 0.40694 0.00891 0.0
O275 O 0.75611 0.34405 0.04281 0.0
O276 O 0.79616 0.30946 0.05992 0.0
C277 C 0.80257 0.29362 0.14351 0.0
N278 N 0.84392 0.3263 0.13044 0.0
C279 C 0.88136 0.32965 0.19064 0.0
C280 C 0.83927 0.29561 0.20457 0.0
C281 C 0.79969 0.2776 0.18091 0.0
C282 C 0.88228 0.34379 0.15292 0.0
H283 H 0.772 0.28007 0.1256 0.0
C284 C 0.76053 0.30895 0.04569 0.0
O285 O 0.75941 0.43184 0.04334 0.0
O286 O 0.75479 0.4042 0.10134 0.0
N287 N 0.91872 0.39231 0.10236 0.0
C288 C 0.9555 0.42798 0.08593 0.0
C289 C 0.99722 0.45164 0.10666 0.0
C290 C 1.00073 0.43835 0.14398 0.0
C291 C 0.96246 0.40146 0.16024 0.0
C292 C 0.92189 0.37888 0.13808 0.0
H293 H 0.95292 0.43854 0.05735 0.0
O294 O 0.84786 0.46455 0.08956 0.0
O295 O 0.83796 0.39587 0.09678 0.0
O296 O 0.84119 0.4203 0.01777 0.0
O297 O 0.87706 0.38099 0.03001 0.0
C298 C 0.96261 0.38703 0.19795 0.0
C299 C 0.92211 0.35113 0.21313 0.0
H300 H 0.83679 0.28356 0.23356 0.0
H301 H 0.76698 0.25163 0.19158 0.0
H302 H 0.02655 0.48021 0.09398 0.0
H303 H 0.03283 0.45701 0.16003 0.0
H304 H 0.99348 0.40385 0.21577 0.0
H305 H 0.92244 0.34091 0.2424 0.0
Mn306 Mn 0.40111 0.77189 0.22597 0.0
Mn307 Mn 0.51184 0.83576 0.25729 0.0
C308 C 0.42158 0.8301 0.27037 0.0
C309 C 0.32627 0.71012 0.22911 0.0
C310 C 0.47774 0.8483 0.1803 0.0
O311 O 0.42913 0.73269 0.21118 0.0
O312 O 0.50127 0.77753 0.23461 0.0
C313 C 0.51127 0.77717 0.31987 0.0
N314 N 0.51915 0.81837 0.30767 0.0
C315 C 0.54572 0.85176 0.37053 0.0
C316 C 0.53818 0.80976 0.38372 0.0
C317 C 0.52078 0.77229 0.35829 0.0
C318 C 0.53604 0.8547 0.33185 0.0
H319 H 0.49782 0.74827 0.30045 0.0
C320 C 0.47011 0.74088 0.2182 0.0
O321 O 0.34211 0.73194 0.19757 0.0
O322 O 0.35454 0.72256 0.25836 0.0
N323 N 0.52684 0.89285 0.28047 0.0
C324 C 0.52788 0.92961 0.26413 0.0
C325 C 0.5421 0.96927 0.28626 0.0
C326 C 0.55545 0.97086 0.32482 0.0
C327 C 0.55444 0.93273 0.34092 0.0
C328 C 0.54022 0.89423 0.31741 0.0
H329 H 0.51756 0.92852 0.23452 0.0
O330 O 0.38474 0.81563 0.24917 0.0
O331 O 0.44547 0.81005 0.2652 0.0
O332 O 0.43616 0.81701 0.18399 0.0
O333 O 0.50904 0.85765 0.20565 0.0
C334 C 0.5656 0.93092 0.37969 0.0
C335 C 0.56123 0.89046 0.39449 0.0
H336 H 0.54508 0.80574 0.41341 0.0
H337 H 0.51461 0.7397 0.36832 0.0
H338 H 0.54263 0.99851 0.27366 0.0
H339 H 0.56593 1.00135 0.3419 0.0
H340 H 0.57664 0.96014 0.39858 0.0
H341 H 0.56902 0.88921 0.42452 0.0
C342 C 0.21626 0.61539 0.26802 0.0
C343 C 0.18623 0.63252 0.26163 0.0
H344 H 0.28532 0.62794 0.26412 0.0
C345 C 0.19996 0.66887 0.2363 0.0
H346 H 0.2064 0.58659 0.28643 0.0
C347 C 0.24471 0.69131 0.22214 0.0
C348 C 0.27665 0.67836 0.23375 0.0
H349 H 0.17803 0.68313 0.23067 0.0
H350 H 0.25564 0.72163 0.20543 0.0
C351 C 0.2615 0.63896 0.25527 0.0
C352 C 0.5494 0.2365 0.46205 0.0
C353 C 0.54615 0.20201 0.43736 0.0
H354 H 0.57681 0.30754 0.47235 0.0
C355 C 0.56546 0.2142 0.40083 0.0
H356 H 0.53445 0.22828 0.49023 0.0
C357 C 0.58932 0.26029 0.39017 0.0
C358 C 0.59528 0.29472 0.41636 0.0
H359 H 0.56385 0.18851 0.38131 0.0
H360 H 0.60443 0.26912 0.36211 0.0
C361 C 0.57425 0.28207 0.45203 0.0
C362 C 0.40677 0.60418 0.61236 0.0
C363 C 0.39431 0.55815 0.60649 0.0
H364 H 0.38974 0.65652 0.60288 0.0
C365 C 0.35715 0.53146 0.58149 0.0
H366 H 0.4359 0.62628 0.63072 0.0
C367 C 0.33134 0.54908 0.5651 0.0
C368 C 0.34137 0.59389 0.57344 0.0
H369 H 0.34593 0.49594 0.57633 0.0
H370 H 0.302 0.52645 0.54715 0.0
C371 C 0.38041 0.62172 0.59632 0.0
C372 C 0.81172 0.38285 0.77408 0.0
C373 C 0.8495 0.37587 0.77051 0.0
H374 H 0.73936 0.35607 0.76406 0.0
C375 C 0.84285 0.3368 0.7509 0.0
H376 H 0.81573 0.41282 0.78879 0.0
C377 C 0.79949 0.30462 0.73688 0.0
C378 C 0.76111 0.31019 0.74211 0.0
H379 H 0.8706 0.32958 0.74812 0.0
H380 H 0.79607 0.27457 0.72275 0.0
C381 C 0.76793 0.35032 0.76001 0.0
C382 C 0.50772 0.8501 0.91082 0.0
C383 C 0.48373 0.86211 0.93676 0.0
H384 H 0.50655 0.79691 0.87642 0.0
C385 C 0.43648 0.83164 0.94156 0.0
H386 H 0.54407 0.87249 0.90641 0.0
C387 C 0.4156 0.78791 0.92549 0.0
C388 C 0.44093 0.77452 0.90282 0.0
H389 H 0.41653 0.84024 0.96038 0.0
H390 H 0.38046 0.76369 0.93268 0.0
C391 C 0.48627 0.80669 0.89368 0.0
C392 C 0.68758 0.47202 0.14217 0.0
C393 C 0.66407 0.48576 0.11675 0.0
H394 H 0.7282 0.4407 0.14973 0.0
C395 C 0.6658 0.47843 0.07717 0.0
H396 H 0.68939 0.47888 0.17268 0.0
C397 C 0.69009 0.45746 0.0637 0.0
C398 C 0.71231 0.44287 0.08966 0.0
H399 H 0.64843 0.48877 0.05672 0.0
H400 H 0.69156 0.45275 0.03314 0.0
C401 C 0.71041 0.45022 0.12895 0.0
C402 C 0.42623 0.86156 0.51587 0.0
C403 C 0.40223 0.88531 0.51049 0.0
H404 H 0.42221 0.7991 0.53267 0.0
C405 C 0.35939 0.86868 0.52778 0.0
H406 H 0.45934 0.87358 0.50284 0.0
C407 C 0.3387 0.82638 0.54592 0.0
C408 C 0.36031 0.80005 0.54648 0.0
H409 H 0.33985 0.8858 0.52374 0.0
H410 H 0.30382 0.81218 0.55579 0.0
C411 C 0.40504 0.81886 0.53286 0.0
C412 C 0.53799 0.33764 0.63303 0.0
C413 C 0.53333 0.36806 0.65755 0.0
H414 H 0.56248 0.2911 0.62581 0.0
C415 C 0.54649 0.37078 0.69635 0.0
H416 H 0.52769 0.33437 0.60307 0.0
C417 C 0.56603 0.34502 0.7097 0.0
C418 C 0.5736 0.31723 0.68414 0.0
H419 H 0.54357 0.39415 0.71579 0.0
H420 H 0.57674 0.34809 0.7395 0.0
C421 C 0.55845 0.31322 0.64595 0.0
C422 C 0.18371 0.51526 0.84907 0.0
C423 C 0.17581 0.54697 0.82996 0.0
H424 H 0.23136 0.50283 0.87989 0.0
C425 C 0.21042 0.59314 0.83155 0.0
H426 H 0.15831 0.4794 0.84816 0.0
C427 C 0.25318 0.6066 0.84901 0.0
C428 C 0.26202 0.57427 0.8658 0.0
H429 H 0.20519 0.61864 0.81771 0.0
H430 H 0.27968 0.64206 0.84827 0.0
C431 C 0.22612 0.52875 0.8669 0.0
C432 C 0.67359 0.18386 0.03269 0.0
C433 C 0.66352 0.18098 -0.00691 0.0
H434 H 0.71271 0.2268 0.08042 0.0
C435 C 0.68409 0.22162 0.97204 0.0
H436 H 0.65827 0.15382 0.05014 0.0
C437 C 0.71337 0.26342 -0.01016 0.0
C438 C 0.72446 0.2657 0.02882 0.0
H439 H 0.67936 0.22146 0.94132 0.0
H440 H 0.72934 0.29374 0.97265 0.0
C441 C 0.70439 0.22572 0.05021 0.0
C442 C 0.54438 0.69175 0.18834 0.0
C443 C 0.51164 0.64855 0.17403 0.0
H444 H 0.55702 0.7546 0.21308 0.0
C445 C 0.4647 0.63348 0.17959 0.0
H446 H 0.58074 0.70489 0.18436 0.0
C447 C 0.45088 0.66283 0.1949 0.0
C448 C 0.48374 0.70745 0.20597 0.0
H449 H 0.43848 0.59998 0.16972 0.0
H450 H 0.41451 0.65107 0.19686 0.0
C451 C 0.53062 0.72071 0.20426 0.0
C452 C 0.86531 0.54991 0.34962 0.0
C453 C 0.87364 0.51575 0.33624 0.0
H454 H 0.81761 0.56634 0.3741 0.0
C455 C 0.83918 0.46995 0.34095 0.0
H456 H 0.89054 0.58544 0.34612 0.0
C457 C 0.7965 0.45875 0.35627 0.0
C458 C 0.78739 0.49306 0.36776 0.0
H459 H 0.84465 0.44265 0.33146 0.0
H460 H 0.77042 0.42327 0.35836 0.0
C461 C 0.82292 0.53875 0.36524 0.0
C462 C 0.12633 0.62902 0.42951 0.0
C463 C 0.154 0.64038 0.39685 0.0
H464 H 0.12456 0.62611 0.49118 0.0
C465 C 0.20212 0.66256 0.40241 0.0
H466 H 0.08934 0.61286 0.42678 0.0
C467 C 0.2214 0.66706 0.43865 0.0
C468 C 0.19352 0.65229 0.47062 0.0
H469 H 0.22544 0.67576 0.37874 0.0
H470 H 0.25831 0.68177 0.44169 0.0
C471 C 0.14626 0.63597 0.46635 0.0
C472 C 0.59326 0.15245 0.56092 0.0
C473 C 0.54754 0.12023 0.55138 0.0
H474 H 0.63865 0.19982 0.60273 0.0
C475 C 0.51564 0.1011 0.58106 0.0
H476 H 0.61909 0.16723 0.53911 0.0
C477 C 0.52872 0.11682 0.61897 0.0
C478 C 0.57342 0.15232 0.62731 0.0
H479 H 0.47993 0.07662 0.57478 0.0
H480 H 0.50339 0.10314 0.64124 0.0
C481 C 0.60506 0.17032 0.59779 0.0
C482 C 0.46071 0.57957 0.74996 0.0
C483 C 0.43597 0.53435 0.73677 0.0
H484 H 0.47065 0.62695 0.79459 0.0
C485 C 0.40559 0.50052 0.7615 0.0
H486 H 0.48453 0.60616 0.73144 0.0
C487 C 0.39729 0.51236 0.79776 0.0
C488 C 0.41913 0.55822 0.8096 0.0
H489 H 0.38581 0.46542 0.75179 0.0
H490 H 0.3719 0.48597 0.8155 0.0
C491 C 0.45235 0.59141 0.78597 0.0
C492 C 0.89901 0.45563 0.90952 0.0
C493 C 0.92467 0.43637 0.89602 0.0
H494 H 0.86143 0.46163 0.95576 0.0
C495 C 0.93692 0.41219 0.92145 0.0
H496 H 0.88936 0.47463 0.89049 0.0
C497 C 0.9207 0.40439 0.95884 0.0
C498 C 0.89191 0.42062 0.97145 0.0
H499 H 0.95629 0.39656 0.91168 0.0
H500 H 0.9289 0.38377 0.97717 0.0
C501 C 0.88282 0.4479 0.94685 0.0
C502 C 0.46725 0.89215 0.08367 0.0
C503 C 0.51315 0.91541 0.07197 0.0
H504 H 0.42006 0.85258 0.12687 0.0
C505 C 0.54791 0.9208 0.09793 0.0
H506 H 0.43981 0.88802 0.06443 0.0
C507 C 0.53663 0.90057 0.13389 0.0
C508 C 0.49038 0.87436 0.14439 0.0
H509 H 0.58355 0.9382 0.0896 0.0
H510 H 0.56402 0.90365 0.15264 0.0
C511 C 0.45596 0.87166 0.11938 0.0
C512 C 0.63675 0.55421 0.25739 0.0
C513 C 0.60695 0.51763 0.23319 0.0
H514 H 0.67098 0.57497 0.3121 0.0
C515 C 0.58271 0.47385 0.24844 0.0
H516 H 0.65625 0.58831 0.24641 0.0
C517 C 0.59195 0.46603 0.28581 0.0
C518 C 0.62519 0.50196 0.30878 0.0
H519 H 0.55909 0.44513 0.23055 0.0
H520 H 0.57464 0.43147 0.29601 0.0
C521 C 0.64566 0.54647 0.29494 0.0
C522 C 0.42287 0.919 0.33725 0.0
C523 C 0.43515 0.90738 0.37241 0.0
H524 H 0.4098 0.90399 0.27682 0.0
C525 C 0.44506 0.87171 0.37242 0.0
H526 H 0.41402 0.94547 0.33584 0.0
C527 C 0.43926 0.84625 0.3394 0.0
C528 C 0.42818 0.85844 0.30448 0.0
H529 H 0.45638 0.86232 0.39815 0.0
H530 H 0.44348 0.81678 0.34126 0.0
C531 C 0.41971 0.89485 0.30349 0.0
C532 C 0.52919 0.45159 0.5124 0.0
C533 C 0.55642 0.46226 0.54611 0.0
H534 H 0.52527 0.43968 0.4515 0.0
C535 C 0.603 0.47519 0.54292 0.0
H536 H 0.49302 0.44084 0.51373 0.0
C537 C 0.62001 0.47093 0.50806 0.0
C538 C 0.59262 0.45871 0.47469 0.0
H539 H 0.62531 0.48445 0.56808 0.0
H540 H 0.65407 0.47511 0.50764 0.0
C541 C 0.54733 0.45008 0.47686 0.0
C542 C 0.11647 0.5138 0.66886 0.0
C543 C 0.12154 0.54496 0.69787 0.0
H544 H 0.13621 0.50437 0.61301 0.0
C545 C 0.14664 0.59165 0.69044 0.0
H546 H 0.09771 0.4776 0.67397 0.0
C547 C 0.16929 0.60704 0.6559 0.0
C548 C 0.16718 0.57602 0.62792 0.0
H549 H 0.15077 0.61636 0.71224 0.0
H550 H 0.18982 0.64335 0.65178 0.0
C551 C 0.13903 0.52919 0.63413 0.0
C552 C 0.60741 0.08938 0.84505 0.0
C553 C 0.58612 0.10225 0.87289 0.0
H554 H 0.63284 0.09825 0.78832 0.0
C555 C 0.56728 0.12932 0.86189 0.0
H556 H 0.62269 0.06891 0.85245 0.0
C557 C 0.57414 0.14723 0.82508 0.0
C558 C 0.59959 0.13799 0.79852 0.0
H559 H 0.54996 0.13916 0.88253 0.0
H560 H 0.56164 0.17019 0.81822 0.0
C561 C 0.61394 0.10693 0.80828 0.0
C562 C 0.5182 0.60493 0.00363 0.0
C563 C 0.50454 0.61471 0.03888 0.0
H564 H 0.51203 0.60382 0.94204 0.0
C565 C 0.47431 0.63234 0.03755 0.0
H566 H 0.5415 0.5918 0.00247 0.0
C567 C 0.45536 0.63593 0.00322 0.0
C568 C 0.46797 0.62479 0.9688 0.0
H569 H 0.46526 0.64459 0.06268 0.0
H570 H 0.43133 0.6484 0.00352 0.0
C571 C 0.50098 0.61122 0.9688 0.0
C572 C 0.94703 0.51907 0.17939 0.0
C573 C 0.93093 0.49329 0.21289 0.0
H574 H 0.93783 0.52126 0.11859 0.0
C575 C 0.89662 0.44729 0.20931 0.0
H576 H 0.97288 0.55474 0.18089 0.0
C577 C 0.87487 0.42935 0.17412 0.0
C578 C 0.88963 0.45549 0.14106 0.0
H579 H 0.88398 0.426 0.23423 0.0
H580 H 0.8448 0.39572 0.17323 0.0
C581 C 0.9266 0.50017 0.14372 0.0
loop_
_geom_bond_atom_site_label_1
_geom_bond_atom_site_label_2
_geom_bond_distance
_geom_bond_site_symmetry_2
_ccdc_geom_bond_type
H0 C8 0.930 . S
H1 C11 0.930 . S
H2 C13 0.930 . S
H3 C14 0.970 1_655 S
H4 C14 0.970 . S
H5 C16 0.930 . S
H6 C18 0.930 . S
H7 C20 0.930 . S
C8 H0 0.930 . S
C8 C9 1.382 . S
C8 C10 1.426 . S
C9 C8 1.382 . S
C9 C13 1.389 . S
C10 C8 1.426 . S
C10 C11 1.375 . S
C10 C14 1.532 1_655 S
C11 H1 0.930 . S
C11 C10 1.375 . S
C11 C12 1.416 . S
C12 C11 1.416 . S
C12 C13 1.371 . S
C13 H2 0.930 . S
C13 C9 1.389 . S
C13 C12 1.371 . S
C14 H3 0.970 1_455 S
C14 H4 0.970 . S
C14 C10 1.532 1_455 S
C14 C15 1.499 . S
C15 C14 1.499 . S
C15 C16 1.370 . S
C15 C20 1.415 . S
C16 H5 0.930 . S
C16 C15 1.370 . S
C16 C17 1.407 . S
C17 C16 1.407 . S
C17 C18 1.365 . S
C18 H6 0.930 . S
C18 C17 1.365 . S
C18 C19 1.393 . S
C19 C18 1.393 . S
C19 C20 1.387 . S
C20 H7 0.930 . S
C20 C15 1.415 . S
C20 C19 1.387 . S
H21 C29 0.930 . S
H22 C32 0.930 . S
H23 C34 0.930 . S
H24 C35 0.970 . S
H25 C35 0.970 . S
H26 C37 0.930 . S
H27 C39 0.930 . S
H28 C41 0.930 . S
C29 H21 0.930 . S
C29 C30 1.382 . S
C29 C31 1.426 . S
C30 C29 1.382 . S
C30 C34 1.389 . S
C31 C29 1.426 . S
C31 C32 1.375 . S
C31 C35 1.532 1_565 S
C32 H22 0.930 . S
C32 C31 1.375 . S
C32 C33 1.416 . S
C33 C32 1.416 . S
C33 C34 1.371 . S
C34 H23 0.930 . S
C34 C30 1.389 . S
C34 C33 1.371 . S
C35 H24 0.970 . S
C35 H25 0.970 . S
C35 C31 1.532 1_545 S
C35 C36 1.499 . S
C36 C35 1.499 . S
C36 C37 1.370 . S
C36 C41 1.415 . S
C37 H26 0.930 . S
C37 C36 1.370 . S
C37 C38 1.407 . S
C38 C37 1.407 . S
C38 C39 1.365 . S
C39 H27 0.930 . S
C39 C38 1.365 . S
C39 C40 1.393 . S
C40 C39 1.393 . S
C40 C41 1.387 . S
C41 H28 0.930 . S
C41 C36 1.415 . S
C41 C40 1.387 . S
H42 C50 0.930 . S
H43 C53 0.930 . S
H44 C55 0.930 . S
H45 C56 0.970 . S
H46 C56 0.970 . S
H47 C58 0.930 . S
H48 C60 0.930 . S
H49 C62 0.930 . S
C50 H42 0.930 . S
C50 C51 1.382 . S
C50 C52 1.426 . S
C51 C50 1.382 . S
C51 C55 1.389 . S
C52 C50 1.426 . S
C52 C53 1.375 . S
C52 C56 1.532 . S
C53 H43 0.930 . S
C53 C52 1.375 . S
C53 C54 1.416 . S
C54 C53 1.416 . S
C54 C55 1.371 . S
C55 H44 0.930 . S
C55 C51 1.389 . S
C55 C54 1.371 . S
C56 H45 0.970 . S
C56 H46 0.970 . S
C56 C52 1.532 . S
C56 C57 1.499 . S
C57 C56 1.499 . S
C57 C58 1.370 . S
C57 C62 1.415 . S
C58 H47 0.930 . S
C58 C57 1.370 . S
C58 C59 1.407 . S
C59 C58 1.407 . S
C59 C60 1.365 . S
C60 H48 0.930 . S
C60 C59 1.365 . S
C60 C61 1.393 . S
C61 C60 1.393 . S
C61 C62 1.387 . S
C62 H49 0.930 . S
C62 C57 1.415 . S
C62 C61 1.387 . S
H63 C71 0.930 . S
H64 C74 0.930 . S
H65 C76 0.930 . S
H66 C77 0.968 . S
H67 C77 0.970 . S
H68 C79 0.930 . S
H69 C81 0.930 . S
H70 C83 0.930 . S
C71 H63 0.930 . S
C71 C72 1.382 . S
C71 C73 1.426 . S
C72 C71 1.382 . S
C72 C76 1.389 . S
C73 C71 1.426 . S
C73 C74 1.375 . S
C73 C77 1.532 1_655 S
C74 H64 0.930 . S
C74 C73 1.375 . S
C74 C75 1.416 . S
C75 C74 1.416 . S
C75 C76 1.371 . S
C76 H65 0.930 . S
C76 C72 1.389 . S
C76 C75 1.371 . S
C77 H66 0.968 . S
C77 H67 0.970 . S
C77 C73 1.532 1_455 S
C77 C78 1.499 . S
C78 C77 1.499 . S
C78 C79 1.370 . S
C78 C83 1.415 . S
C79 H68 0.930 . S
C79 C78 1.370 . S
C79 C80 1.407 . S
C80 C79 1.407 . S
C80 C81 1.365 . S
C81 H69 0.930 . S
C81 C80 1.365 . S
C81 C82 1.393 . S
C82 C81 1.393 . S
C82 C83 1.387 . S
C83 H70 0.930 . S
C83 C78 1.415 . S
C83 C82 1.387 . S
H84 C92 0.930 . S
H85 C95 0.930 . S
H86 C97 0.930 . S
H87 C98 0.970 1_554 S
H88 C98 0.970 . S
H89 C100 0.930 . S
H90 C102 0.930 . S
H91 C104 0.930 . S
C92 H84 0.930 . S
C92 C93 1.382 . S
C92 C94 1.426 1_554 S
C93 C92 1.382 . S
C93 C97 1.389 1_554 S
C94 C92 1.426 1_556 S
C94 C95 1.375 . S
C94 C98 1.532 . S
C95 H85 0.930 . S
C95 C94 1.375 . S
C95 C96 1.416 . S
C96 C95 1.416 . S
C96 C97 1.371 . S
C97 H86 0.930 . S
C97 C93 1.389 1_556 S
C97 C96 1.371 . S
C98 H87 0.970 1_556 S
C98 H88 0.970 . S
C98 C94 1.532 . S
C98 C99 1.499 1_546 S
C99 C98 1.499 1_564 S
C99 C100 1.370 . S
C99 C104 1.415 1_554 S
C100 H89 0.930 . S
C100 C99 1.370 . S
C100 C101 1.407 . S
C101 C100 1.407 . S
C101 C102 1.365 . S
C102 H90 0.930 . S
C102 C101 1.365 . S
C102 C103 1.393 1_554 S
C103 C102 1.393 1_556 S
C103 C104 1.387 . S
C104 H91 0.930 . S
C104 C99 1.415 1_556 S
C104 C103 1.387 . S
H105 C113 0.930 . S
H106 C116 0.930 . S
H107 C118 0.930 . S
H108 C119 0.970 . S
H109 C119 0.970 . S
H110 C121 0.930 . S
H111 C123 0.930 . S
H112 C125 0.930 . S
C113 H105 0.930 . S
C113 C114 1.382 . S
C113 C115 1.426 . S
C114 C113 1.382 . S
C114 C118 1.389 . S
C115 C113 1.426 . S
C115 C116 1.375 . S
C115 C119 1.532 . S
C116 H106 0.930 . S
C116 C115 1.375 . S
C116 C117 1.416 . S
C117 C116 1.416 . S
C117 C118 1.371 . S
C118 H107 0.930 . S
C118 C114 1.389 . S
C118 C117 1.371 . S
C119 H108 0.970 . S
C119 H109 0.970 . S
C119 C115 1.532 . S
C119 C120 1.499 . S
C120 C119 1.499 . S
C120 C121 1.370 . S
C120 C125 1.415 . S
C121 H110 0.930 . S
C121 C120 1.370 . S
C121 C122 1.407 . S
C122 C121 1.407 . S
C122 C123 1.365 . S
C123 H111 0.930 . S
C123 C122 1.365 . S
C123 C124 1.393 . S
C124 C123 1.393 . S
C124 C125 1.387 . S
C125 H112 0.930 . S
C125 C120 1.415 . S
C125 C124 1.387 . S
Mn126 O131 2.095 . S
Mn126 O141 2.162 . S
Mn126 O142 2.297 . S
Mn126 O150 2.385 . S
Mn126 O151 2.209 . S
Mn126 O152 2.094 . S
Mn127 O132 2.121 . S
Mn127 N134 2.257 . S
Mn127 N143 2.282 . S
Mn127 O151 2.215 . S
Mn127 O153 2.117 . S
C128 O150 1.234 . S
C128 O151 1.283 . S
C129 O141 1.281 . S
C129 O142 1.236 . S
C130 O152 1.240 . S
C130 O153 1.264 . S
O131 Mn126 2.095 . S
O131 C140 1.250 . S
O132 Mn127 2.121 . S
O132 C140 1.258 . S
C133 N134 1.326 . S
C133 C137 1.460 . S
C133 H139 0.929 . S
N134 Mn127 2.257 . S
N134 C133 1.326 . S
N134 C138 1.362 . S
C135 C136 1.258 . S
C135 C138 1.431 . S
C135 C155 1.449 . S
C136 C135 1.258 . S
C136 C137 1.477 . S
C136 H156 0.931 . S
C137 C133 1.460 . S
C137 C136 1.477 . S
C137 H157 0.930 . S
C138 N134 1.362 . S
C138 C135 1.431 . S
C138 C148 1.476 . S
H139 C133 0.929 . S
C140 O131 1.250 . S
C140 O132 1.258 . S
O141 Mn126 2.162 . S
O141 C129 1.281 . S
O142 Mn126 2.297 . S
O142 C129 1.236 . S
N143 Mn127 2.282 . S
N143 C144 1.328 . S
N143 C148 1.318 . S
C144 N143 1.328 . S
C144 C145 1.457 . S
C144 H149 0.929 . S
C145 C144 1.457 . S
C145 C146 1.291 . S
C145 H158 0.931 . S
C146 C145 1.291 . S
C146 C147 1.373 . S
C146 H159 0.929 . S
C147 C146 1.373 . S
C147 C148 1.396 . S
C147 C154 1.403 . S
C148 C138 1.476 . S
C148 N143 1.318 . S
C148 C147 1.396 . S
H149 C144 0.929 . S
O150 Mn126 2.385 . S
O150 C128 1.234 . S
O151 Mn126 2.209 . S
O151 Mn127 2.215 . S
O151 C128 1.283 . S
O152 Mn126 2.094 . S
O152 C130 1.240 . S
O153 Mn127 2.117 . S
O153 C130 1.264 . S
C154 C147 1.403 . S
C154 C155 1.399 . S
C154 H160 0.929 . S
C155 C135 1.449 . S
C155 C154 1.399 . S
C155 H161 0.930 . S
H156 C136 0.931 . S
H157 C137 0.930 . S
H158 C145 0.931 . S
H159 C146 0.929 . S
H160 C154 0.929 . S
H161 C155 0.930 . S
Mn162 O167 2.095 . S
Mn162 O177 2.162 . S
Mn162 O178 2.297 . S
Mn162 O186 2.385 . S
Mn162 O187 2.209 . S
Mn162 O188 2.094 . S
Mn163 O168 2.121 . S
Mn163 N170 2.257 . S
Mn163 N179 2.282 . S
Mn163 O187 2.215 . S
Mn163 O189 2.117 . S
C164 O186 1.234 . S
C164 O187 1.283 . S
C165 O177 1.281 . S
C165 O178 1.236 . S
C166 O188 1.240 . S
C166 O189 1.264 . S
O167 Mn162 2.095 . S
O167 C176 1.250 . S
O168 Mn163 2.121 . S
O168 C176 1.258 . S
C169 N170 1.326 . S
C169 C173 1.460 . S
C169 H175 0.929 . S
N170 Mn163 2.257 . S
N170 C169 1.326 . S
N170 C174 1.362 . S
C171 C172 1.258 . S
C171 C174 1.431 . S
C171 C191 1.449 . S
C172 C171 1.258 . S
C172 C173 1.477 . S
C172 H192 0.931 . S
C173 C169 1.460 . S
C173 C172 1.477 . S
C173 H193 0.930 . S
C174 N170 1.362 . S
C174 C171 1.431 . S
C174 C184 1.476 . S
H175 C169 0.929 . S
C176 O167 1.250 . S
C176 O168 1.258 . S
O177 Mn162 2.162 . S
O177 C165 1.281 . S
O178 Mn162 2.297 . S
O178 C165 1.236 . S
N179 Mn163 2.282 . S
N179 C180 1.328 . S
N179 C184 1.318 . S
C180 N179 1.328 . S
C180 C181 1.457 . S
C180 H185 0.929 . S
C181 C180 1.457 . S
C181 C182 1.291 . S
C181 H194 0.931 . S
C182 C181 1.291 . S
C182 C183 1.373 . S
C182 H195 0.929 . S
C183 C182 1.373 . S
C183 C184 1.396 . S
C183 C190 1.403 . S
C184 C174 1.476 . S
C184 N179 1.318 . S
C184 C183 1.396 . S
H185 C180 0.929 . S
O186 Mn162 2.385 . S
O186 C164 1.234 . S
O187 Mn162 2.209 . S
O187 Mn163 2.215 . S
O187 C164 1.283 . S
O188 Mn162 2.094 . S
O188 C166 1.240 . S
O189 Mn163 2.117 . S
O189 C166 1.264 . S
C190 C183 1.403 . S
C190 C191 1.399 . S
C190 H196 0.929 . S
C191 C171 1.449 . S
C191 C190 1.399 . S
C191 H197 0.930 . S
H192 C172 0.931 . S
H193 C173 0.930 . S
H194 C181 0.931 . S
H195 C182 0.929 . S
H196 C190 0.929 . S
H197 C191 0.930 . S
Mn198 O203 2.095 . S
Mn198 O213 2.162 . S
Mn198 O214 2.297 . S
Mn198 O222 2.385 . S
Mn198 O223 2.209 . S
Mn198 O224 2.094 . S
Mn199 O204 2.121 . S
Mn199 N206 2.257 . S
Mn199 N215 2.282 . S
Mn199 O223 2.215 . S
Mn199 O225 2.117 . S
C200 O222 1.234 . S
C200 O223 1.283 . S
C201 O213 1.281 . S
C201 O214 1.236 . S
C202 O224 1.240 . S
C202 O225 1.264 . S
O203 Mn198 2.095 . S
O203 C212 1.250 . S
O204 Mn199 2.121 . S
O204 C212 1.258 . S
C205 N206 1.326 . S
C205 C209 1.460 . S
C205 H211 0.929 . S
N206 Mn199 2.257 . S
N206 C205 1.326 . S
N206 C210 1.362 . S
C207 C208 1.258 . S
C207 C210 1.431 . S
C207 C227 1.449 . S
C208 C207 1.258 . S
C208 C209 1.477 . S
C208 H228 0.931 . S
C209 C205 1.460 . S
C209 C208 1.477 . S
C209 H229 0.930 . S
C210 N206 1.362 . S
C210 C207 1.431 . S
C210 C220 1.476 . S
H211 C205 0.929 . S
C212 O203 1.250 . S
C212 O204 1.258 . S
O213 Mn198 2.162 . S
O213 C201 1.281 . S
O214 Mn198 2.297 . S
O214 C201 1.236 . S
N215 Mn199 2.282 . S
N215 C216 1.328 . S
N215 C220 1.318 . S
C216 N215 1.328 . S
C216 C217 1.457 . S
C216 H221 0.929 . S
C217 C216 1.457 . S
C217 C218 1.291 . S
C217 H230 0.931 . S
C218 C217 1.291 . S
C218 C219 1.373 . S
C218 H231 0.929 . S
C219 C218 1.373 . S
C219 C220 1.396 . S
C219 C226 1.403 . S
C220 C210 1.476 . S
C220 N215 1.318 . S
C220 C219 1.396 . S
H221 C216 0.929 . S
O222 Mn198 2.385 . S
O222 C200 1.234 . S
O223 Mn198 2.209 . S
O223 Mn199 2.215 . S
O223 C200 1.283 . S
O224 Mn198 2.094 . S
O224 C202 1.240 . S
O225 Mn199 2.117 . S
O225 C202 1.264 . S
C226 C219 1.403 . S
C226 C227 1.399 . S
C226 H232 0.929 . S
C227 C207 1.449 . S
C227 C226 1.399 . S
C227 H233 0.930 . S
H228 C208 0.931 . S
H229 C209 0.930 . S
H230 C217 0.931 . S
H231 C218 0.929 . S
H232 C226 0.929 . S
H233 C227 0.930 . S
Mn234 O239 2.095 . S
Mn234 O249 2.162 . S
Mn234 O250 2.297 . S
Mn234 O258 2.385 . S
Mn234 O259 2.209 . S
Mn234 O260 2.094 . S
Mn235 O240 2.121 . S
Mn235 N242 2.257 . S
Mn235 N251 2.282 . S
Mn235 O259 2.215 . S
Mn235 O261 2.117 . S
C236 O258 1.234 . S
C236 O259 1.283 . S
C237 O249 1.281 . S
C237 O250 1.236 . S
C238 O260 1.240 . S
C238 O261 1.264 . S
O239 Mn234 2.095 . S
O239 C248 1.250 . S
O240 Mn235 2.121 . S
O240 C248 1.258 . S
C241 N242 1.326 . S
C241 C245 1.460 1_556 S
C241 H247 0.929 . S
N242 Mn235 2.257 . S
N242 C241 1.326 . S
N242 C246 1.362 . S
C243 C244 1.258 . S
C243 C246 1.431 1_554 S
C243 C263 1.449 . S
C244 C243 1.258 . S
C244 C245 1.477 . S
C244 H264 0.931 . S
C245 C241 1.460 1_554 S
C245 C244 1.477 . S
C245 H265 0.930 . S
C246 N242 1.362 . S
C246 C243 1.431 1_556 S
C246 C256 1.476 . S
H247 C241 0.929 . S
C248 O239 1.250 . S
C248 O240 1.258 . S
O249 Mn234 2.162 . S
O249 C237 1.281 . S
O250 Mn234 2.297 . S
O250 C237 1.236 . S
N251 Mn235 2.282 . S
N251 C252 1.328 . S
N251 C256 1.318 . S
C252 N251 1.328 . S
C252 C253 1.457 . S
C252 H257 0.929 . S
C253 C252 1.457 . S
C253 C254 1.291 . S
C253 H266 0.931 . S
C254 C253 1.291 . S
C254 C255 1.373 . S
C254 H267 0.929 . S
C255 C254 1.373 . S
C255 C256 1.396 . S
C255 C262 1.403 1_556 S
C256 C246 1.476 . S
C256 N251 1.318 . S
C256 C255 1.396 . S
H257 C252 0.929 . S
O258 Mn234 2.385 . S
O258 C236 1.234 . S
O259 Mn234 2.209 . S
O259 Mn235 2.215 . S
O259 C236 1.283 . S
O260 Mn234 2.094 . S
O260 C238 1.240 . S
O261 Mn235 2.117 . S
O261 C238 1.264 . S
C262 C255 1.403 1_554 S
C262 C263 1.399 . S
C262 H268 0.929 . S
C263 C243 1.449 . S
C263 C262 1.399 . S
C263 H269 0.930 . S
H264 C244 0.931 . S
H265 C245 0.930 . S
H266 C253 0.931 . S
H267 C254 0.929 . S
H268 C262 0.929 . S
H269 C263 0.930 . S
Mn270 O275 2.095 . S
Mn270 O285 2.162 . S
Mn270 O286 2.297 . S
Mn270 O294 2.385 . S
Mn270 O295 2.209 . S
Mn270 O296 2.094 . S
Mn271 O276 2.121 . S
Mn271 N278 2.257 . S
Mn271 N287 2.282 . S
Mn271 O295 2.215 . S
Mn271 O297 2.117 . S
C272 O294 1.234 . S
C272 O295 1.283 . S
C273 O285 1.281 . S
C273 O286 1.236 . S
C274 O296 1.240 . S
C274 O297 1.264 . S
O275 Mn270 2.095 . S
O275 C284 1.250 . S
O276 Mn271 2.121 . S
O276 C284 1.258 . S
C277 N278 1.326 . S
C277 C281 1.460 . S
C277 H283 0.929 . S
N278 Mn271 2.257 . S
N278 C277 1.326 . S
N278 C282 1.362 . S
C279 C280 1.258 . S
C279 C282 1.431 . S
C279 C299 1.449 . S
C280 C279 1.258 . S
C280 C281 1.477 . S
C280 H300 0.931 . S
C281 C277 1.460 . S
C281 C280 1.477 . S
C281 H301 0.930 . S
C282 N278 1.362 . S
C282 C279 1.431 . S
C282 C292 1.476 . S
H283 C277 0.929 . S
C284 O275 1.250 . S
C284 O276 1.258 . S
O285 Mn270 2.162 . S
O285 C273 1.281 . S
O286 Mn270 2.297 . S
O286 C273 1.236 . S
N287 Mn271 2.282 . S
N287 C288 1.328 . S
N287 C292 1.318 . S
C288 N287 1.328 . S
C288 C289 1.457 . S
C288 H293 0.929 . S
C289 C288 1.457 . S
C289 C290 1.291 . S
C289 H302 0.931 . S
C290 C289 1.291 . S
C290 C291 1.373 . S
C290 H303 0.929 . S
C291 C290 1.373 . S
C291 C292 1.396 . S
C291 C298 1.403 . S
C292 C282 1.476 . S
C292 N287 1.318 . S
C292 C291 1.396 . S
H293 C288 0.929 . S
O294 Mn270 2.385 . S
O294 C272 1.234 . S
O295 Mn270 2.209 . S
O295 Mn271 2.215 . S
O295 C272 1.283 . S
O296 Mn270 2.094 . S
O296 C274 1.240 . S
O297 Mn271 2.117 . S
O297 C274 1.264 . S
C298 C291 1.403 . S
C298 C299 1.399 . S
C298 H304 0.929 . S
C299 C279 1.449 . S
C299 C298 1.399 . S
C299 H305 0.930 . S
H300 C280 0.931 . S
H301 C281 0.930 . S
H302 C289 0.931 . S
H303 C290 0.929 . S
H304 C298 0.929 . S
H305 C299 0.930 . S
Mn306 O311 2.095 . S
Mn306 O321 2.162 . S
Mn306 O322 2.297 . S
Mn306 O330 2.385 . S
Mn306 O331 2.209 . S
Mn306 O332 2.094 . S
Mn307 O312 2.121 . S
Mn307 N314 2.257 . S
Mn307 N323 2.282 . S
Mn307 O331 2.215 . S
Mn307 O333 2.117 . S
C308 O330 1.234 . S
C308 O331 1.283 . S
C309 O321 1.281 . S
C309 O322 1.236 . S
C310 O332 1.240 . S
C310 O333 1.264 . S
O311 Mn306 2.095 . S
O311 C320 1.250 . S
O312 Mn307 2.121 . S
O312 C320 1.258 . S
C313 N314 1.326 . S
C313 C317 1.460 . S
C313 H319 0.929 . S
N314 Mn307 2.257 . S
N314 C313 1.326 . S
N314 C318 1.362 . S
C315 C316 1.258 . S
C315 C318 1.431 . S
C315 C335 1.449 . S
C316 C315 1.258 . S
C316 C317 1.477 . S
C316 H336 0.931 . S
C317 C313 1.460 . S
C317 C316 1.477 . S
C317 H337 0.930 . S
C318 N314 1.362 . S
C318 C315 1.431 . S
C318 C328 1.476 . S
H319 C313 0.929 . S
C320 O311 1.250 . S
C320 O312 1.258 . S
O321 Mn306 2.162 . S
O321 C309 1.281 . S
O322 Mn306 2.297 . S
O322 C309 1.236 . S
N323 Mn307 2.282 . S
N323 C324 1.328 . S
N323 C328 1.318 . S
C324 N323 1.328 . S
C324 C325 1.457 . S
C324 H329 0.929 . S
C325 C324 1.457 . S
C325 C326 1.291 . S
C325 H338 0.931 . S
C326 C325 1.291 . S
C326 C327 1.373 . S
C326 H339 0.929 . S
C327 C326 1.373 . S
C327 C328 1.396 . S
C327 C334 1.403 . S
C328 C318 1.476 . S
C328 N323 1.318 . S
C328 C327 1.396 . S
H329 C324 0.929 . S
O330 Mn306 2.385 . S
O330 C308 1.234 . S
O331 Mn306 2.209 . S
O331 Mn307 2.215 . S
O331 C308 1.283 . S
O332 Mn306 2.094 . S
O332 C310 1.240 . S
O333 Mn307 2.117 . S
O333 C310 1.264 . S
C334 C327 1.403 . S
C334 C335 1.399 . S
C334 H340 0.929 . S
C335 C315 1.449 . S
C335 C334 1.399 . S
C335 H341 0.930 . S
H336 C316 0.931 . S
H337 C317 0.930 . S
H338 C325 0.931 . S
H339 C326 0.929 . S
H340 C334 0.929 . S
H341 C335 0.930 . S
C342 C343 1.387 . S
C342 H346 0.950 . S
C342 C351 1.390 . S
C343 C342 1.387 . S
C343 C345 1.387 . S
H344 C351 0.950 . S
C345 C343 1.387 . S
C345 C347 1.390 . S
C345 H349 0.950 . S
H346 C342 0.950 . S
C347 C345 1.390 . S
C347 C348 1.387 . S
C347 H350 0.950 . S
C348 C347 1.387 . S
C348 C351 1.387 . S
H349 C345 0.950 . S
H350 C347 0.950 . S
C351 C342 1.390 . S
C351 H344 0.950 . S
C351 C348 1.387 . S
C352 C353 1.387 . S
C352 H356 0.950 . S
C352 C361 1.390 . S
C353 C352 1.387 . S
C353 C355 1.387 . S
H354 C361 0.950 . S
C355 C353 1.387 . S
C355 C357 1.390 . S
C355 H359 0.950 . S
H356 C352 0.950 . S
C357 C355 1.390 . S
C357 C358 1.387 . S
C357 H360 0.950 . S
C358 C357 1.387 . S
C358 C361 1.387 . S
H359 C355 0.950 . S
H360 C357 0.950 . S
C361 C352 1.390 . S
C361 H354 0.950 . S
C361 C358 1.387 . S
C362 C363 1.387 . S
C362 H366 0.950 . S
C362 C371 1.390 . S
C363 C362 1.387 . S
C363 C365 1.387 . S
H364 C371 0.950 . S
C365 C363 1.387 . S
C365 C367 1.390 . S
C365 H369 0.950 . S
H366 C362 0.950 . S
C367 C365 1.390 . S
C367 C368 1.387 . S
C367 H370 0.950 . S
C368 C367 1.387 . S
C368 C371 1.387 . S
H369 C365 0.950 . S
H370 C367 0.950 . S
C371 C362 1.390 . S
C371 H364 0.950 . S
C371 C368 1.387 . S
C372 C373 1.387 . S
C372 H376 0.950 . S
C372 C381 1.390 . S
C373 C372 1.387 . S
C373 C375 1.387 . S
H374 C381 0.950 . S
C375 C373 1.387 . S
C375 C377 1.390 . S
C375 H379 0.950 . S
H376 C372 0.950 . S
C377 C375 1.390 . S
C377 C378 1.387 . S
C377 H380 0.950 . S
C378 C377 1.387 . S
C378 C381 1.387 . S
H379 C375 0.950 . S
H380 C377 0.950 . S
C381 C372 1.390 . S
C381 H374 0.950 . S
C381 C378 1.387 . S
C382 C383 1.387 . S
C382 H386 0.950 . S
C382 C391 1.390 . S
C383 C382 1.387 . S
C383 C385 1.387 . S
H384 C391 0.950 . S
C385 C383 1.387 . S
C385 C387 1.390 . S
C385 H389 0.950 . S
H386 C382 0.950 . S
C387 C385 1.390 . S
C387 C388 1.387 . S
C387 H390 0.950 . S
C388 C387 1.387 . S
C388 C391 1.387 . S
H389 C385 0.950 . S
H390 C387 0.950 . S
C391 C382 1.390 . S
C391 H384 0.950 . S
C391 C388 1.387 . S
C392 C393 1.387 . S
C392 H396 0.950 . S
C392 C401 1.390 . S
C393 C392 1.387 . S
C393 C395 1.387 . S
H394 C401 0.950 . S
C395 C393 1.387 . S
C395 C397 1.390 . S
C395 H399 0.950 . S
H396 C392 0.950 . S
C397 C395 1.390 . S
C397 C398 1.387 . S
C397 H400 0.950 . S
C398 C397 1.387 . S
C398 C401 1.387 . S
H399 C395 0.950 . S
H400 C397 0.950 . S
C401 C392 1.390 . S
C401 H394 0.950 . S
C401 C398 1.387 . S
C402 C403 1.387 . S
C402 H406 0.950 . S
C402 C411 1.390 . S
C403 C402 1.387 . S
C403 C405 1.387 . S
H404 C411 0.950 . S
C405 C403 1.387 . S
C405 C407 1.390 . S
C405 H409 0.950 . S
H406 C402 0.950 . S
C407 C405 1.390 . S
C407 C408 1.387 . S
C407 H410 0.950 . S
C408 C407 1.387 . S
C408 C411 1.387 . S
H409 C405 0.950 . S
H410 C407 0.950 . S
C411 C402 1.390 . S
C411 H404 0.950 . S
C411 C408 1.387 . S
C412 C413 1.387 . S
C412 H416 0.950 . S
C412 C421 1.390 . S
C413 C412 1.387 . S
C413 C415 1.387 . S
H414 C421 0.950 . S
C415 C413 1.387 . S
C415 C417 1.390 . S
C415 H419 0.950 . S
H416 C412 0.950 . S
C417 C415 1.390 . S
C417 C418 1.387 . S
C417 H420 0.950 . S
C418 C417 1.387 . S
C418 C421 1.387 . S
H419 C415 0.950 . S
H420 C417 0.950 . S
C421 C412 1.390 . S
C421 H414 0.950 . S
C421 C418 1.387 . S
C422 C423 1.387 . S
C422 H426 0.950 . S
C422 C431 1.390 . S
C423 C422 1.387 . S
C423 C425 1.387 . S
H424 C431 0.950 . S
C425 C423 1.387 . S
C425 C427 1.390 . S
C425 H429 0.950 . S
H426 C422 0.950 . S
C427 C425 1.390 . S
C427 C428 1.387 . S
C427 H430 0.950 . S
C428 C427 1.387 . S
C428 C431 1.387 . S
H429 C425 0.950 . S
H430 C427 0.950 . S
C431 C422 1.390 . S
C431 H424 0.950 . S
C431 C428 1.387 . S
C432 C433 1.387 . S
C432 H436 0.950 . S
C432 C441 1.390 . S
C433 C432 1.387 . S
C433 C435 1.387 1_554 S
H434 C441 0.950 . S
C435 C433 1.387 1_556 S
C435 C437 1.390 1_556 S
C435 H439 0.950 . S
H436 C432 0.950 . S
C437 C435 1.390 1_554 S
C437 C438 1.387 . S
C437 H440 0.950 1_554 S
C438 C437 1.387 . S
C438 C441 1.387 . S
H439 C435 0.950 . S
H440 C437 0.950 1_556 S
C441 C432 1.390 . S
C441 H434 0.950 . S
C441 C438 1.387 . S
C442 C443 1.387 . S
C442 H446 0.950 . S
C442 C451 1.390 . S
C443 C442 1.387 . S
C443 C445 1.387 . S
H444 C451 0.950 . S
C445 C443 1.387 . S
C445 C447 1.390 . S
C445 H449 0.950 . S
H446 C442 0.950 . S
C447 C445 1.390 . S
C447 C448 1.387 . S
C447 H450 0.950 . S
C448 C447 1.387 . S
C448 C451 1.387 . S
H449 C445 0.950 . S
H450 C447 0.950 . S
C451 C442 1.390 . S
C451 H444 0.950 . S
C451 C448 1.387 . S
C452 C453 1.387 . S
C452 H456 0.950 . S
C452 C461 1.390 . S
C453 C452 1.387 . S
C453 C455 1.387 . S
H454 C461 0.950 . S
C455 C453 1.387 . S
C455 C457 1.390 . S
C455 H459 0.950 . S
H456 C452 0.950 . S
C457 C455 1.390 . S
C457 C458 1.387 . S
C457 H460 0.950 . S
C458 C457 1.387 . S
C458 C461 1.387 . S
H459 C455 0.950 . S
H460 C457 0.950 . S
C461 C452 1.390 . S
C461 H454 0.950 . S
C461 C458 1.387 . S
C462 C463 1.387 . S
C462 H466 0.950 . S
C462 C471 1.390 . S
C463 C462 1.387 . S
C463 C465 1.387 . S
H464 C471 0.950 . S
C465 C463 1.387 . S
C465 C467 1.390 . S
C465 H469 0.950 . S
H466 C462 0.950 . S
C467 C465 1.390 . S
C467 C468 1.387 . S
C467 H470 0.950 . S
C468 C467 1.387 . S
C468 C471 1.387 . S
H469 C465 0.950 . S
H470 C467 0.950 . S
C471 C462 1.390 . S
C471 H464 0.950 . S
C471 C468 1.387 . S
C472 C473 1.387 . S
C472 H476 0.950 . S
C472 C481 1.390 . S
C473 C472 1.387 . S
C473 C475 1.387 . S
H474 C481 0.950 . S
C475 C473 1.387 . S
C475 C477 1.390 . S
C475 H479 0.950 . S
H476 C472 0.950 . S
C477 C475 1.390 . S
C477 C478 1.387 . S
C477 H480 0.950 . S
C478 C477 1.387 . S
C478 C481 1.387 . S
H479 C475 0.950 . S
H480 C477 0.950 . S
C481 C472 1.390 . S
C481 H474 0.950 . S
C481 C478 1.387 . S
C482 C483 1.387 . S
C482 H486 0.950 . S
C482 C491 1.390 . S
C483 C482 1.387 . S
C483 C485 1.387 . S
H484 C491 0.950 . S
C485 C483 1.387 . S
C485 C487 1.390 . S
C485 H489 0.950 . S
H486 C482 0.950 . S
C487 C485 1.390 . S
C487 C488 1.387 . S
C487 H490 0.950 . S
C488 C487 1.387 . S
C488 C491 1.387 . S
H489 C485 0.950 . S
H490 C487 0.950 . S
C491 C482 1.390 . S
C491 H484 0.950 . S
C491 C488 1.387 . S
C492 C493 1.387 . S
C492 H496 0.950 . S
C492 C501 1.390 . S
C493 C492 1.387 . S
C493 C495 1.387 . S
H494 C501 0.950 . S
C495 C493 1.387 . S
C495 C497 1.390 . S
C495 H499 0.950 . S
H496 C492 0.950 . S
C497 C495 1.390 . S
C497 C498 1.387 . S
C497 H500 0.950 . S
C498 C497 1.387 . S
C498 C501 1.387 . S
H499 C495 0.950 . S
H500 C497 0.950 . S
C501 C492 1.390 . S
C501 H494 0.950 . S
C501 C498 1.387 . S
C502 C503 1.387 . S
C502 H506 0.950 . S
C502 C511 1.390 . S
C503 C502 1.387 . S
C503 C505 1.387 . S
H504 C511 0.950 . S
C505 C503 1.387 . S
C505 C507 1.390 . S
C505 H509 0.950 . S
H506 C502 0.950 . S
C507 C505 1.390 . S
C507 C508 1.387 . S
C507 H510 0.950 . S
C508 C507 1.387 . S
C508 C511 1.387 . S
H509 C505 0.950 . S
H510 C507 0.950 . S
C511 C502 1.390 . S
C511 H504 0.950 . S
C511 C508 1.387 . S
C512 C513 1.387 . S
C512 H516 0.950 . S
C512 C521 1.390 . S
C513 C512 1.387 . S
C513 C515 1.387 . S
H514 C521 0.950 . S
C515 C513 1.387 . S
C515 C517 1.390 . S
C515 H519 0.950 . S
H516 C512 0.950 . S
C517 C515 1.390 . S
C517 C518 1.387 . S
C517 H520 0.950 . S
C518 C517 1.387 . S
C518 C521 1.387 . S
H519 C515 0.950 . S
H520 C517 0.950 . S
C521 C512 1.390 . S
C521 H514 0.950 . S
C521 C518 1.387 . S
C522 C523 1.387 . S
C522 H526 0.950 . S
C522 C531 1.390 . S
C523 C522 1.387 . S
C523 C525 1.387 . S
H524 C531 0.950 . S
C525 C523 1.387 . S
C525 C527 1.390 . S
C525 H529 0.950 . S
H526 C522 0.950 . S
C527 C525 1.390 . S
C527 C528 1.387 . S
C527 H530 0.950 . S
C528 C527 1.387 . S
C528 C531 1.387 . S
H529 C525 0.950 . S
H530 C527 0.950 . S
C531 C522 1.390 . S
C531 H524 0.950 . S
C531 C528 1.387 . S
C532 C533 1.387 . S
C532 H536 0.950 . S
C532 C541 1.390 . S
C533 C532 1.387 . S
C533 C535 1.387 . S
H534 C541 0.950 . S
C535 C533 1.387 . S
C535 C537 1.390 . S
C535 H539 0.950 . S
H536 C532 0.950 . S
C537 C535 1.390 . S
C537 C538 1.387 . S
C537 H540 0.950 . S
C538 C537 1.387 . S
C538 C541 1.387 . S
H539 C535 0.950 . S
H540 C537 0.950 . S
C541 C532 1.390 . S
C541 H534 0.950 . S
C541 C538 1.387 . S
C542 C543 1.387 . S
C542 H546 0.950 . S
C542 C551 1.390 . S
C543 C542 1.387 . S
C543 C545 1.387 . S
H544 C551 0.950 . S
C545 C543 1.387 . S
C545 C547 1.390 . S
C545 H549 0.950 . S
H546 C542 0.950 . S
C547 C545 1.390 . S
C547 C548 1.387 . S
C547 H550 0.950 . S
C548 C547 1.387 . S
C548 C551 1.387 . S
H549 C545 0.950 . S
H550 C547 0.950 . S
C551 C542 1.390 . S
C551 H544 0.950 . S
C551 C548 1.387 . S
C552 C553 1.387 . S
C552 H556 0.950 . S
C552 C561 1.390 . S
C553 C552 1.387 . S
C553 C555 1.387 . S
H554 C561 0.950 . S
C555 C553 1.387 . S
C555 C557 1.390 . S
C555 H559 0.950 . S
H556 C552 0.950 . S
C557 C555 1.390 . S
C557 C558 1.387 . S
C557 H560 0.950 . S
C558 C557 1.387 . S
C558 C561 1.387 . S
H559 C555 0.950 . S
H560 C557 0.950 . S
C561 C552 1.390 . S
C561 H554 0.950 . S
C561 C558 1.387 . S
C562 C563 1.387 . S
C562 H566 0.950 . S
C562 C571 1.390 1_554 S
C563 C562 1.387 . S
C563 C565 1.387 . S
H564 C571 0.950 . S
C565 C563 1.387 . S
C565 C567 1.390 . S
C565 H569 0.950 . S
H566 C562 0.950 . S
C567 C565 1.390 . S
C567 C568 1.387 1_554 S
C567 H570 0.950 . S
C568 C567 1.387 1_556 S
C568 C571 1.387 . S
H569 C565 0.950 . S
H570 C567 0.950 . S
C571 C562 1.390 1_556 S
C571 H564 0.950 . S
C571 C568 1.387 . S
C572 C573 1.387 . S
C572 H576 0.950 . S
C572 C581 1.390 . S
C573 C572 1.387 . S
C573 C575 1.387 . S
H574 C581 0.950 . S
C575 C573 1.387 . S
C575 C577 1.390 . S
C575 H579 0.950 . S
H576 C572 0.950 . S
C577 C575 1.390 . S
C577 C578 1.387 . S
C577 H580 0.950 . S
C578 C577 1.387 . S
C578 C581 1.387 . S
H579 C575 0.950 . S
H580 C577 0.950 . S
C581 C572 1.390 . S
C581 H574 0.950 . S
C581 C578 1.387 . S
C348 C309 1.569 . S
C343 C19 1.480 . S
C353 C40 1.502 . S
C358 C129 1.599 . S
C363 C51 1.474 . S
C368 C176 1.560 . S
C373 C72 1.442 . S
C378 C212 1.506 . S
C388 C237 1.552 . S
C383 C103 1.461 . S
C393 C114 1.450 . S
C398 C273 1.565 . S
C403 C30 1.482 . S
C408 C165 1.600 . S
C413 C61 1.465 . S
C418 C201 1.553 . S
C423 C82 1.443 . S
C428 C248 1.490 . S
C438 C284 1.528 . S
C433 C93 1.452 . S
C448 C320 1.537 . S
C443 C124 1.484 . S
C458 C140 1.551 . S
C453 C9 1.477 . S
C463 C17 1.430 . S
C468 C164 1.506 . S
C473 C38 1.433 . S
C478 C200 1.511 . S
C488 C238 1.506 . S
C483 C54 1.424 . S
C493 C75 1.430 . S
C498 C274 1.513 1_556 S
C508 C310 1.484 . S
C503 C101 1.397 . S
C518 C130 1.473 . S
C513 C117 1.383 . S
C528 C308 1.491 . S
C523 C33 1.409 . S
C533 C59 1.422 . S
C538 C128 1.498 . S
C548 C166 1.499 . S
C543 C80 1.421 . S
C553 C96 1.415 . S
C558 C202 1.503 . S
C563 C122 1.460 . S
C568 C236 1.533 . S
C573 C12 1.448 . S
C578 C272 1.523 . S
