# Generated by pormake.
# Topology zzz, (3,6)-cn, num edge types: 1
# Building blocks:
#     Node 0, Type 0, BuildingBlock: BETDAH_clean_linker_0, # of connection points: 3
#     Node 1, Type 0, BuildingBlock: BETDAH_clean_linker_0, # of connection points: 3
#     Node 2, Type 0, BuildingBlock: BETDAH_clean_linker_0, # of connection points: 3
#     Node 3, Type 0, BuildingBlock: BETDAH_clean_linker_0, # of connection points: 3
#     Node 4, Type 0, BuildingBlock: BETDAH_clean_linker_0, # of connection points: 3
#     Node 5, Type 0, BuildingBlock: BETDAH_clean_linker_0, # of connection points: 3
#     Node 6, Type 0, BuildingBlock: BETDAH_clean_linker_0, # of connection points: 3
#     Node 7, Type 0, BuildingBlock: BETDAH_clean_linker_0, # of connection points: 3
#     Node 8, Type 1, BuildingBlock: KUMBOL_clean_sbu_0, # of connection points: 6
#     Node 9, Type 1, BuildingBlock: KUMBOL_clean_sbu_0, # of connection points: 6
#     Node 10, Type 1, BuildingBlock: KUMBOL_clean_sbu_0, # of connection points: 6
#     Node 11, Type 1, BuildingBlock: KUMBOL_clean_sbu_0, # of connection points: 6
#     Edge 12, Type (0, 1), BuildingBlock: KIFKEQ_clean_linker_1, # of connection points: 2
#     Edge 13, Type (0, 1), BuildingBlock: KIFKEQ_clean_linker_1, # of connection points: 2
#     Edge 14, Type (0, 1), BuildingBlock: KIFKEQ_clean_linker_1, # of connection points: 2
#     Edge 15, Type (0, 1), BuildingBlock: KIFKEQ_clean_linker_1, # of connection points: 2
#     Edge 16, Type (0, 1), BuildingBlock: KIFKEQ_clean_linker_1, # of connection points: 2
#     Edge 17, Type (0, 1), BuildingBlock: KIFKEQ_clean_linker_1, # of connection points: 2
#     Edge 18, Type (0, 1), BuildingBlock: KIFKEQ_clean_linker_1, # of connection points: 2
#     Edge 19, Type (0, 1), BuildingBlock: KIFKEQ_clean_linker_1, # of connection points: 2
#     Edge 20, Type (0, 1), BuildingBlock: KIFKEQ_clean_linker_1, # of connection points: 2
#     Edge 21, Type (0, 1), BuildingBlock: KIFKEQ_clean_linker_1, # of connection points: 2
#     Edge 22, Type (0, 1), BuildingBlock: KIFKEQ_clean_linker_1, # of connection points: 2
#     Edge 23, Type (0, 1), BuildingBlock: KIFKEQ_clean_linker_1, # of connection points: 2
#     Edge 24, Type (0, 1), BuildingBlock: KIFKEQ_clean_linker_1, # of connection points: 2
#     Edge 25, Type (0, 1), BuildingBlock: KIFKEQ_clean_linker_1, # of connection points: 2
#     Edge 26, Type (0, 1), BuildingBlock: KIFKEQ_clean_linker_1, # of connection points: 2
#     Edge 27, Type (0, 1), BuildingBlock: KIFKEQ_clean_linker_1, # of connection points: 2
#     Edge 28, Type (0, 1), BuildingBlock: KIFKEQ_clean_linker_1, # of connection points: 2
#     Edge 29, Type (0, 1), BuildingBlock: KIFKEQ_clean_linker_1, # of connection points: 2
#     Edge 30, Type (0, 1), BuildingBlock: KIFKEQ_clean_linker_1, # of connection points: 2
#     Edge 31, Type (0, 1), BuildingBlock: KIFKEQ_clean_linker_1, # of connection points: 2
#     Edge 32, Type (0, 1), BuildingBlock: KIFKEQ_clean_linker_1, # of connection points: 2
#     Edge 33, Type (0, 1), BuildingBlock: KIFKEQ_clean_linker_1, # of connection points: 2
#     Edge 34, Type (0, 1), BuildingBlock: KIFKEQ_clean_linker_1, # of connection points: 2
#     Edge 35, Type (0, 1), BuildingBlock: KIFKEQ_clean_linker_1, # of connection points: 2
# Relax obj value: 0.174
# Max RMSD: 0.163
# Mean RMSD: 0.116
data_MOF--net-zzz--node1-KUMBOL_clean_sbu_0--node2-BETDAH_clean_linker_0--edge1-KIFKEQ_clean_linker_1
_symmetry_space_group_name_H-M    P1
_symmetry_Int_Tables_number       1
_symmetry_cell_setting            triclinic
loop_
_symmetry_equiv_pos_as_xyz
'x, y, z'
_cell_length_a     51.467791
_cell_length_b     51.51495
_cell_length_c     14.988829
_cell_angle_alpha  91.343987
_cell_angle_beta   89.997026
_cell_angle_gamma 89.947053
loop_
_atom_site_label
_atom_site_type_symbol
_atom_site_fract_x
_atom_site_fract_y
_atom_site_fract_z
_atom_type_partial_charge
H0 H 0.81927 0.57065 0.22059 0.0
H1 H 0.74505 0.55511 0.1005 0.0
H2 H 0.76347 0.52413 0.35833 0.0
C3 C 0.79991 0.56246 0.22534 0.0
C4 C 0.79361 0.54753 0.29922 0.0
C5 C 0.78263 0.56493 0.15356 0.0
C6 C 0.75801 0.55342 0.15702 0.0
C7 C 0.75056 0.53913 0.23154 0.0
C8 C 0.76872 0.53581 0.30195 0.0
N9 N 0.72541 0.52738 0.23607 0.0
C10 C 0.706 0.52869 0.17026 0.0
H11 H 0.97391 0.83184 0.18664 0.0
H12 H 0.98372 0.75328 0.09152 0.0
H13 H 1.01307 0.77659 0.35089 0.0
C14 C 0.98001 0.81211 0.19917 0.0
C15 C 0.99292 0.80685 0.27944 0.0
C16 C 0.97696 0.79304 0.13121 0.0
C17 C 0.98606 0.76779 0.14438 0.0
C18 C 0.99909 0.76148 0.22306 0.0
C19 C 1.0027 0.78122 0.29043 0.0
N20 N 1.00933 0.73581 0.23434 0.0
C21 C 1.00801 0.71502 0.17126 0.0
H22 H 0.70539 0.97192 0.20373 0.0
H23 H 0.78442 0.97837 0.11716 0.0
H24 H 0.76186 1.00855 0.37687 0.0
C25 C 0.72534 0.97713 0.21873 0.0
C26 C 0.73101 0.98984 0.30038 0.0
C27 C 0.74438 0.97311 0.15264 0.0
C28 C 0.76992 0.98135 0.16877 0.0
C29 C 0.77656 0.99409 0.24941 0.0
C30 C 0.75693 0.99843 0.31503 0.0
N31 N 0.80251 1.00321 0.26472 0.0
C32 C 0.8228 1.00212 0.2017 0.0
H33 H 0.56996 0.71936 0.24673 0.0
H34 H 0.56083 0.79473 0.13465 0.0
H35 H 0.53207 0.78003 0.39963 0.0
C36 C 0.56401 0.73951 0.25449 0.0
C37 C 0.55103 0.74752 0.3324 0.0
C38 C 0.56737 0.75638 0.18324 0.0
C39 C 0.55862 0.78209 0.1909 0.0
C40 C 0.54639 0.79112 0.26969 0.0
C41 C 0.54225 0.77353 0.33993 0.0
N42 N 0.53742 0.81736 0.27887 0.0
C43 C 0.53993 0.83647 0.21405 0.0
H44 H 0.21956 0.4764 0.10562 0.0
H45 H 0.296 0.48906 0.21375 0.0
H46 H 0.27435 0.52251 0.96288 0.0
C47 C 0.23905 0.48412 0.09904 0.0
C48 C 0.24472 0.49913 0.02486 0.0
C49 C 0.25726 0.48069 0.16784 0.0
C50 C 0.28206 0.4917 0.16061 0.0
C51 C 0.2886 0.50667 0.08673 0.0
C52 C 0.26966 0.5106 0.01925 0.0
N53 N 0.3137 0.51843 0.07998 0.0
C54 C 0.3339 0.51648 0.14276 0.0
H55 H 0.06459 0.212 0.13422 0.0
H56 H 0.05421 0.29026 0.2318 0.0
H57 H 0.0221 0.26651 0.9768 0.0
C58 C 0.0579 0.23161 0.12292 0.0
C59 C 0.04388 0.23667 0.04467 0.0
C60 C 0.06137 0.25068 0.19066 0.0
C61 C 0.05152 0.27574 0.17918 0.0
C62 C 0.03731 0.28182 0.10268 0.0
C63 C 0.03334 0.26207 0.03557 0.0
N64 N 0.02627 0.30723 0.09347 0.0
C65 C 0.02776 0.32793 0.15686 0.0
H66 H 0.33108 0.07253 0.10751 0.0
H67 H 0.25243 0.06525 0.19726 0.0
H68 H 0.27504 0.03294 0.9405 0.0
C69 C 0.31121 0.06676 0.09374 0.0
C70 C 0.30563 0.05316 0.0137 0.0
C71 C 0.29225 0.07102 0.16001 0.0
C72 C 0.26687 0.06207 0.14559 0.0
C73 C 0.26034 0.04833 0.06677 0.0
C74 C 0.27989 0.0438 1.00097 0.0
N75 N 0.23458 0.03837 0.05361 0.0
C76 C 0.21447 0.03956 0.11731 0.0
H77 H 0.47597 0.32316 0.06954 0.0
H78 H 0.48102 0.24563 0.16743 0.0
H79 H 0.50965 0.2628 0.90424 0.0
C80 C 0.48082 0.30284 0.05854 0.0
C81 C 0.49272 0.29526 0.97819 0.0
C82 C 0.47665 0.28509 0.12688 0.0
C83 C 0.48408 0.2591 0.11404 0.0
C84 C 0.49577 0.25066 0.03364 0.0
C85 C 0.50018 0.26896 0.96571 0.0
N86 N 0.50374 0.22421 0.02071 0.0
C87 C 0.50157 0.2049 0.08499 0.0
Gd88 Gd 0.99657 0.02968 0.5729 0.0
Gd89 Gd 0.04131 0.01379 0.75069 0.0
C90 C 0.05086 0.08289 0.94975 0.0
C91 C 0.09403 0.09842 0.91462 0.0
C92 C 0.07631 0.06033 0.83658 0.0
C93 C 0.05354 0.06282 0.8842 0.0
C94 C 0.09717 0.07763 0.85342 0.0
C95 C 0.07091 0.10101 0.9629 0.0
C96 C 0.02835 0.0839 1.00151 0.0
C97 C 1.00968 0.06463 0.99 0.0
N98 N 0.03442 0.04506 0.86922 0.0
C99 C 0.01322 0.04512 0.92475 0.0
H100 H 0.99887 0.03013 0.92207 0.0
C101 C 0.10296 0.03375 0.74538 0.0
N102 N 0.07884 0.03985 0.77885 0.0
C103 C 0.12405 0.05045 0.75875 0.0
C104 C 0.12098 0.07287 0.81133 0.0
H105 H 0.10613 0.01586 0.70807 0.0
H106 H 0.06897 0.11673 0.01177 0.0
H107 H 0.03892 1.00966 0.40561 0.0
H108 H 0.02555 0.09899 0.0522 0.0
H109 H 0.99257 0.06461 0.03203 0.0
H110 H 0.10967 0.11208 0.9273 0.0
H111 H 0.93189 0.03143 0.61492 0.0
H112 H 1.00822 0.94241 0.27611 0.0
H113 H 0.04328 0.97464 0.29659 0.0
H114 H 0.92301 0.93497 0.39841 0.0
H115 H 0.14276 0.04578 0.72951 0.0
H116 H 0.13742 0.08566 0.82252 0.0
H117 H 0.96364 0.92753 0.31559 0.0
H118 H 0.89347 1.00375 0.59311 0.0
N119 N 1.00201 0.99752 0.45623 0.0
C120 C 1.00617 0.95785 0.32598 0.0
C121 C 0.02599 0.97593 0.33758 0.0
C122 C 0.98357 0.96045 0.37679 0.0
C123 C 0.9819 0.98089 0.44131 0.0
C124 C 0.02346 0.99584 0.40197 0.0
N125 N 0.9577 1.00578 0.54452 0.0
C126 C 0.95916 0.98495 0.48791 0.0
C127 C 0.91192 0.99793 0.56426 0.0
C128 C 0.91376 0.97522 0.51241 0.0
C129 C 0.93395 0.01336 0.5776 0.0
C130 C 0.93735 0.96888 0.4712 0.0
H131 H 0.8966 0.9634 0.50128 0.0
O132 O 0.96661 0.05449 0.51868 0.0
O133 O 0.02322 0.04678 0.67847 0.0
O134 O 0.99994 1.00439 0.79685 0.0
O135 O 0.97177 0.02262 0.69454 0.0
O136 O 0.98573 0.06137 0.67263 0.0
O137 O 1.00579 0.05674 0.46867 0.0
O138 O 0.07254 0.99003 0.80216 0.0
O139 O 0.01457 0.99672 0.64555 0.0
O140 O 0.03795 0.03781 0.52472 0.0
O141 O 0.06615 0.02045 0.62875 0.0
O142 O 0.05181 0.98167 0.65194 0.0
O143 O 0.03396 0.98689 0.85709 0.0
C144 C 1.00802 0.06416 0.71077 0.0
C145 C 0.93942 0.9477 0.41105 0.0
C146 C 0.9625 0.94352 0.36372 0.0
C147 C 0.98341 0.06842 0.47652 0.0
C148 C 0.98389 0.09627 0.50235 0.0
C149 C 0.96065 0.10931 0.52346 0.0
C150 C 1.00764 0.1094 0.5139 0.0
C151 C 1.00832 0.13557 0.54259 0.0
C152 C 0.96117 0.13492 0.55573 0.0
C153 C 0.98476 0.14805 0.56489 0.0
C154 C 0.97632 1.01154 0.77146 0.0
C155 C 0.02952 0.97909 0.61361 0.0
C156 C 0.05663 0.97589 0.84737 0.0
C157 C 0.05684 0.94793 0.82348 0.0
C158 C 0.08053 0.93506 0.80835 0.0
C159 C 0.03345 0.93448 0.80793 0.0
C160 C 0.03352 0.90811 0.78165 0.0
C161 C 0.0808 0.90922 0.77831 0.0
C162 C 0.05753 0.89574 0.76548 0.0
C163 C 0.06157 0.03099 0.55091 0.0
H164 H 0.9421 0.09955 0.51644 0.0
H165 H 0.02571 0.09931 0.49985 0.0
H166 H 0.94317 0.14481 0.57212 0.0
H167 H 0.98433 0.16832 0.58555 0.0
H168 H 0.09881 0.94512 0.81841 0.0
H169 H 0.01507 0.94444 0.81721 0.0
H170 H 0.09915 0.89943 0.76663 0.0
H171 H 0.05849 0.87533 0.74689 0.0
Gd172 Gd 0.51318 0.99659 0.57374 0.0
Gd173 Gd 0.52398 0.04807 0.74122 0.0
C174 C 0.45847 0.08141 0.91887 0.0
C175 C 0.45679 0.12626 0.87322 0.0
C176 C 0.48808 0.09625 0.8056 0.0
C177 C 0.47888 0.07648 0.85752 0.0
C178 C 0.47755 0.12153 0.81434 0.0
C179 C 0.44721 0.10621 0.92517 0.0
C180 C 0.45025 0.06143 0.97346 0.0
C181 C 0.46275 0.0375 0.96804 0.0
N182 N 0.49038 0.05273 0.85032 0.0
C183 C 0.48296 0.03356 0.90692 0.0
H184 H 0.49148 0.0146 0.90418 0.0
C185 C 0.51988 0.11089 0.70491 0.0
N186 N 0.50819 0.09114 0.74964 0.0
C187 C 0.51014 0.1362 0.71137 0.0
C188 C 0.48865 0.14149 0.76546 0.0
H189 H 0.5365 0.10689 0.6626 0.0
H190 H 0.43145 0.11022 0.97144 0.0
H191 H 0.54686 0.0293 0.41135 0.0
H192 H 0.43456 0.06439 0.02086 0.0
H193 H 0.45669 0.02192 1.01055 0.0
H194 H 0.44835 0.14548 0.88035 0.0
H195 H 0.49986 0.93841 0.65596 0.0
H196 H 0.60197 0.97774 0.29341 0.0
H197 H 0.58127 0.02091 0.30445 0.0
H198 H 0.58624 0.89721 0.4353 0.0
H199 H 0.51918 0.15157 0.67443 0.0
H200 H 0.48115 0.16113 0.77057 0.0
H201 H 0.6038 0.93186 0.34292 0.0
H202 H 0.51621 0.89337 0.64523 0.0
N203 N 0.54659 0.99103 0.46438 0.0
C204 C 0.5864 0.98116 0.34095 0.0
C205 C 0.5747 1.00548 0.34677 0.0
C206 C 0.57763 0.96144 0.39562 0.0
C207 C 0.55741 0.96696 0.45717 0.0
C208 C 0.55466 1.01003 0.4081 0.0
N209 N 0.528 0.95321 0.56632 0.0
C210 C 0.54782 0.9475 0.50973 0.0
C211 C 0.52536 0.90839 0.60699 0.0
C212 C 0.54647 0.90245 0.55186 0.0
C213 C 0.51617 0.93391 0.61281 0.0
C214 C 0.55778 0.92199 0.50156 0.0
H215 H 0.55355 0.88265 0.54729 0.0
O216 O 0.48551 0.96889 0.51836 0.0
O217 O 0.4942 0.02413 0.67139 0.0
O218 O 0.52488 1.0084 0.80735 0.0
O219 O 0.53323 0.97844 0.69216 0.0
O220 O 0.48185 0.98623 0.67364 0.0
O221 O 0.486 1.00803 0.47058 0.0
O222 O 0.55107 0.07621 0.7974 0.0
O223 O 0.54284 0.02059 0.64372 0.0
O224 O 0.51309 0.03591 0.50619 0.0
O225 O 0.50533 0.06647 0.62013 0.0
O226 O 0.55582 0.05826 0.6428 0.0
O227 O 0.55106 0.03709 0.84528 0.0
C228 C 0.47768 1.00924 0.70587 0.0
C229 C 0.57826 0.91663 0.44211 0.0
C230 C 0.58822 0.93634 0.38944 0.0
C231 C 0.47257 0.98673 0.47771 0.0
C232 C 0.44496 0.98944 0.50414 0.0
C233 C 0.43142 0.96796 0.53671 0.0
C234 C 0.43261 0.01381 0.50429 0.0
C235 C 0.40675 0.01668 0.5338 0.0
C236 C 0.40622 0.97082 0.56947 0.0
C237 C 0.39388 0.99491 0.56775 0.0
C238 C 0.53172 0.98478 0.77821 0.0
C239 C 0.55967 0.03526 0.6099 0.0
C240 C 0.56412 0.05864 0.83893 0.0
C241 C 0.59187 0.05654 0.81421 0.0
C242 C 0.60552 0.07876 0.78844 0.0
C243 C 0.60434 0.03225 0.80904 0.0
C244 C 0.63045 0.03013 0.78158 0.0
C245 C 0.63099 0.07671 0.7575 0.0
C246 C 0.64345 0.05266 0.7544 0.0
C247 C 0.50679 0.05976 0.53428 0.0
H248 H 0.44048 0.94899 0.53836 0.0
H249 H 0.44313 0.03055 0.48113 0.0
H250 H 0.39602 0.95418 0.59488 0.0
H251 H 0.37386 0.99605 0.58955 0.0
H252 H 0.59634 0.0977 0.79081 0.0
H253 H 0.59377 0.01497 0.82695 0.0
H254 H 0.64129 0.09392 0.73744 0.0
H255 H 0.66366 0.05207 0.73453 0.0
Gd256 Gd 0.49188 0.53036 0.73904 0.0
Gd257 Gd 0.54549 0.51541 0.58595 0.0
C258 C 0.63212 0.5191 0.6571 0.0
C259 C 0.64726 0.55432 0.56555 0.0
C260 C 0.60204 0.54069 0.55955 0.0
C261 C 0.60681 0.52227 0.62266 0.0
C262 C 0.62232 0.55655 0.52859 0.0
C263 C 0.65216 0.53563 0.62982 0.0
C264 C 0.63672 0.49895 0.7159 0.0
C265 C 0.61658 0.48204 0.73639 0.0
N266 N 0.587 0.50654 0.64682 0.0
C267 C 0.59187 0.4859 0.70018 0.0
H268 H 0.57675 0.47264 0.71794 0.0
C269 C 0.57288 0.55797 0.45475 0.0
N270 N 0.57782 0.54215 0.5249 0.0
C271 C 0.59232 0.57409 0.42175 0.0
C272 C 0.61707 0.57365 0.45967 0.0
H273 H 0.55372 0.5587 0.42566 0.0
H274 H 0.67164 0.53365 0.65624 0.0
H275 H 0.46308 0.57525 0.6093 0.0
H276 H 0.65584 0.49592 0.74412 0.0
H277 H 0.62001 0.46608 0.78059 0.0
H278 H 0.66304 0.56649 0.54329 0.0
H279 H 0.48092 0.48493 0.89027 0.0
H280 H 0.38451 0.55255 0.56329 0.0
H281 H 0.42089 0.58291 0.53964 0.0
H282 H 0.37386 0.47894 0.74885 0.0
H283 H 0.58813 0.58695 0.36749 0.0
H284 H 0.63212 0.58614 0.43399 0.0
H285 H 0.36726 0.51348 0.64046 0.0
H286 H 0.44535 0.45604 0.93703 0.0
N287 N 0.45162 0.54019 0.67124 0.0
C288 C 0.40313 0.54903 0.59453 0.0
C289 C 0.42359 0.56622 0.58119 0.0
C290 C 0.40673 0.52794 0.65021 0.0
C291 C 0.43144 0.52413 0.68876 0.0
C292 C 0.44767 0.56172 0.62127 0.0
N293 N 0.45875 0.50244 0.78797 0.0
C294 C 0.43514 0.50462 0.749 0.0
C295 C 0.44223 0.46951 0.88373 0.0
C296 C 0.41824 0.47047 0.84049 0.0
C297 C 0.46228 0.48594 0.85729 0.0
C298 C 0.4143 0.48846 0.77325 0.0
H299 H 0.40271 0.45775 0.8611 0.0
O300 O 0.48471 0.5372 0.87973 0.0
O301 O 0.5349 0.52879 0.72267 0.0
O302 O 0.53452 0.48004 0.66822 0.0
O303 O 0.49141 0.48685 0.70824 0.0
O304 O 0.52051 0.51474 0.84005 0.0
O305 O 0.48526 0.56963 0.79005 0.0
O306 O 0.5481 0.50565 0.44477 0.0
O307 O 0.50232 0.51742 0.6021 0.0
O308 O 0.50475 0.56673 0.66377 0.0
O309 O 0.54722 0.55868 0.61651 0.0
O310 O 0.51724 0.53285 0.48785 0.0
O311 O 0.55066 0.47526 0.54168 0.0
C312 C 0.54147 0.51957 0.79674 0.0
C313 C 0.39002 0.49136 0.73189 0.0
C314 C 0.38626 0.51104 0.67028 0.0
C315 C 0.48554 0.5623 0.87288 0.0
C316 C 0.50357 0.57556 0.93493 0.0
C317 C 0.50239 0.56978 0.02583 0.0
C318 C 0.52249 0.59303 0.9048 0.0
C319 C 0.53964 0.60526 0.96558 0.0
C320 C 0.51973 0.58123 0.08602 0.0
C321 C 0.53809 0.59895 0.05655 0.0
C322 C 0.51171 0.47128 0.69615 0.0
C323 C 0.49608 0.52771 0.52939 0.0
C324 C 0.54576 0.48091 0.45892 0.0
C325 C 0.52288 0.46802 0.41778 0.0
C326 C 0.50777 0.48091 0.35418 0.0
C327 C 0.51453 0.4438 0.44808 0.0
C328 C 0.49131 0.43262 0.41615 0.0
C329 C 0.48447 0.47019 0.32373 0.0
C330 C 0.4762 0.44627 0.35455 0.0
C331 C 0.52751 0.57476 0.63213 0.0
H332 H 0.48807 0.55625 0.05022 0.0
H333 H 0.52373 0.59724 0.83447 0.0
H334 H 0.51864 0.57674 0.15612 0.0
H335 H 0.55034 0.60841 0.10614 0.0
H336 H 0.51356 0.49962 0.32942 0.0
H337 H 0.52603 0.43366 0.49685 0.0
H338 H 0.47283 0.48042 0.27569 0.0
H339 H 0.45848 0.438 0.32726 0.0
Gd340 Gd 1.00898 0.49587 0.74705 0.0
Gd341 Gd 0.0267 0.54524 0.58897 0.0
C342 C 0.0235 0.63305 0.64719 0.0
C343 C 0.99024 0.64701 0.54375 0.0
C344 C 1.00308 0.60159 0.54771 0.0
C345 C 0.02048 0.60722 0.61522 0.0
C346 C 0.98818 0.62149 0.50957 0.0
C347 C 1.00785 0.65278 0.61262 0.0
C348 C 0.04265 0.63843 0.71101 0.0
C349 C 0.05884 0.61849 0.7388 0.0
N350 N 0.03544 0.58768 0.64632 0.0
C351 C 0.05522 0.59325 0.7047 0.0
H352 H 0.06791 0.57836 0.7283 0.0
C353 C 0.98698 0.57083 0.44237 0.0
N354 N 1.00173 0.57681 0.51605 0.0
C355 C 0.97189 0.58987 0.40211 0.0
C356 C 0.97221 0.61527 0.43662 0.0
H357 H 0.98632 0.55118 0.41583 0.0
H358 H 1.00972 0.67266 0.637 0.0
H359 H 0.96535 0.46509 0.61073 0.0
H360 H 0.04551 0.65797 0.73756 0.0
H361 H 0.07407 0.6225 0.78697 0.0
H362 H 0.97879 0.66252 0.51596 0.0
H363 H 0.0515 0.48705 0.91249 0.0
H364 H 0.9874 0.38561 0.58201 0.0
H365 H 0.95807 0.42183 0.54539 0.0
H366 H 0.05764 0.37747 0.7887 0.0
H367 H 0.9599 0.5849 0.3449 0.0
H368 H 0.96051 0.63 0.40536 0.0
H369 H 0.02485 0.36933 0.67197 0.0
H370 H 0.07873 0.452 0.97254 0.0
N371 N 0.99928 0.45446 0.68327 0.0
C372 C 0.99077 0.40473 0.61139 0.0
C373 C 0.97415 0.4251 0.59077 0.0
C374 C 1.01103 0.4091 0.67197 0.0
C375 C 0.01468 0.43443 0.70786 0.0
C376 C 0.97844 0.44982 0.62849 0.0
N377 N 0.03517 0.46323 0.80895 0.0
C378 C 0.03322 0.43898 0.77282 0.0
C379 C 0.06612 0.44808 0.91606 0.0
C380 C 0.06541 0.42334 0.87615 0.0
C381 C 0.05061 0.46783 0.88209 0.0
C382 C 0.04852 0.41841 0.80456 0.0
H383 H 0.07743 0.40804 0.90256 0.0
O384 O 0.99999 0.49126 0.8867 0.0
O385 O 1.01136 0.53866 0.72511 0.0
O386 O 0.06109 0.53581 0.68002 0.0
O387 O 0.05293 0.49419 0.72888 0.0
O388 O 0.02458 0.52602 0.84598 0.0
O389 O 0.96883 0.49213 0.78974 0.0
O390 O 0.03815 0.54558 0.44981 0.0
O391 O 0.02396 0.50238 0.61098 0.0
O392 O 0.97371 0.50727 0.66157 0.0
O393 O 0.98301 0.54817 0.60699 0.0
O394 O 1.0096 0.51532 0.49232 0.0
O395 O 0.06749 0.54808 0.55285 0.0
C396 C 0.02032 0.54635 0.79997 0.0
C397 C 0.04586 0.39345 0.76597 0.0
C398 C 0.02717 0.38882 0.6996 0.0
C399 C 0.97514 0.49365 0.87405 0.0
C400 C 0.96241 0.51383 0.93006 0.0
C401 C 0.96877 0.51578 0.02099 0.0
C402 C 0.94474 0.53162 0.89389 0.0
C403 C 0.93264 0.55061 0.94885 0.0
C404 C 0.95766 0.53506 0.07519 0.0
C405 C 0.9396 0.55217 0.03997 0.0
C406 C 0.06904 0.51381 0.71565 0.0
C407 C 0.01418 0.49486 0.53718 0.0
C408 C 0.06257 0.5424 0.46928 0.0
C409 C 0.07499 0.5186 0.43199 0.0
C410 C 0.06215 0.50311 0.36716 0.0
C411 C 0.09887 0.51007 0.46614 0.0
C412 C 0.11004 0.48654 0.43562 0.0
C413 C 0.07268 0.47941 0.33867 0.0
C414 C 0.09644 0.47114 0.3724 0.0
C415 C 0.96641 0.52917 0.62323 0.0
H416 H 0.98245 0.50241 0.05011 0.0
H417 H 0.9402 0.53045 0.82339 0.0
H418 H 0.9626 0.53637 0.14536 0.0
H419 H 0.93035 0.56585 0.08572 0.0
H420 H 0.04367 0.50899 0.33958 0.0
H421 H 0.10881 0.52182 0.51641 0.0
H422 H 0.06251 0.46753 0.28948 0.0
H423 H 0.10461 0.45319 0.3459 0.0
H424 H 0.1824 0.07961 0.16641 0.0
H425 H 0.19701 0.99859 0.20984 0.0
H426 H 0.14555 0.07857 0.27041 0.0
H427 H 0.16003 0.99711 0.31196 0.0
H428 H 0.1089 1.00651 0.55591 0.0
H429 H 0.14544 1.00988 0.45489 0.0
H430 H 0.10196 0.06342 0.2952 0.0
H431 H 0.06547 0.06084 0.39978 0.0
C432 C 0.17769 0.06157 0.19835 0.0
C433 C 0.19271 0.03923 0.18053 0.0
C434 C 0.1564 0.06086 0.25758 0.0
C435 C 0.14954 0.03777 0.30082 0.0
C436 C 0.16473 0.01544 0.282 0.0
C437 C 0.18595 0.01619 0.22288 0.0
C438 C 0.10716 0.0195 0.50061 0.0
C439 C 0.08414 0.03376 0.48779 0.0
C440 C 0.12816 0.02108 0.44111 0.0
C441 C 0.12698 0.03684 0.36563 0.0
C442 C 0.10396 0.05126 0.35272 0.0
C443 C 0.08285 0.04967 0.41264 0.0
H444 H 0.5124 0.20803 0.26203 0.0
H445 H 0.48784 0.15467 0.05326 0.0
H446 H 0.51184 0.17282 0.36915 0.0
H447 H 0.48668 0.11938 0.16007 0.0
H448 H 0.51605 0.0571 0.35266 0.0
H449 H 0.5138 0.09181 0.24562 0.0
H450 H 0.4848 0.14409 0.45183 0.0
H451 H 0.48711 0.10928 0.55886 0.0
C452 C 0.50666 0.18875 0.23937 0.0
C453 C 0.50018 0.18407 0.14949 0.0
C454 C 0.50617 0.16851 0.30085 0.0
C455 C 0.49921 0.14299 0.27404 0.0
C456 C 0.4925 0.13854 0.18361 0.0
C457 C 0.49298 0.15881 0.12226 0.0
C458 C 0.50928 0.07596 0.37575 0.0
C459 C 0.50277 0.0804 0.46618 0.0
C460 C 0.50777 0.09597 0.31366 0.0
C461 C 0.49952 0.12115 0.33958 0.0
C462 C 0.49198 0.12529 0.42925 0.0
C463 C 0.49341 0.10523 0.49118 0.0
H464 H 0.38348 0.52591 0.09599 0.0
H465 H 0.33592 0.5067 0.32145 0.0
H466 H 0.42193 0.52737 0.19174 0.0
H467 H 0.37449 0.50847 0.41879 0.0
H468 H 0.4566 0.49136 0.54531 0.0
H469 H 0.41692 0.48745 0.45422 0.0
H470 H 0.44011 0.55479 0.30778 0.0
H471 H 0.4793 0.55853 0.39824 0.0
C472 C 0.3813 0.52196 0.16629 0.0
C473 C 0.35672 0.51625 0.20119 0.0
C474 C 0.40333 0.52295 0.22157 0.0
C475 C 0.4015 0.51826 0.31375 0.0
C476 C 0.37682 0.51201 0.3483 0.0
C477 C 0.35467 0.5111 0.29268 0.0
C478 C 0.45288 0.50555 0.49467 0.0
C479 C 0.47082 0.52566 0.48052 0.0
C480 C 0.43019 0.50327 0.44206 0.0
C481 C 0.42514 0.52076 0.37289 0.0
C482 C 0.44329 0.54072 0.35918 0.0
C483 C 0.46575 0.54302 0.41166 0.0
H484 H 0.03639 0.33176 0.33774 0.0
H485 H 0.01844 0.37727 0.10845 0.0
H486 H 0.03394 0.37114 0.43405 0.0
H487 H 0.01634 0.4165 0.20311 0.0
H488 H 0.98478 0.47674 0.40031 0.0
H489 H 0.98891 0.4366 0.31263 0.0
H490 H 0.05377 0.41375 0.47568 0.0
H491 H 0.04943 0.45447 0.5642 0.0
C492 C 0.0321 0.35022 0.30783 0.0
C493 C 0.02752 0.35135 0.21535 0.0
C494 C 0.03081 0.37288 0.36301 0.0
C495 C 0.02471 0.3973 0.32729 0.0
C496 C 0.02058 0.39822 0.2342 0.0
C497 C 0.02196 0.37567 0.17939 0.0
C498 C 0.99984 0.46309 0.41812 0.0
C499 C 0.01638 0.46874 0.49075 0.0
C500 C 1.00239 0.44002 0.36707 0.0
C501 C 0.02181 0.42162 0.38577 0.0
C502 C 0.03838 0.42714 0.45918 0.0
C503 C 0.03585 0.45049 0.51042 0.0
H504 H 0.85413 0.96179 0.14935 0.0
H505 H 0.84139 0.04352 0.1143 0.0
H506 H 0.89124 0.96297 0.04636 0.0
H507 H 0.8786 0.04512 0.01328 0.0
H508 H 0.92944 0.03675 0.76884 0.0
H509 H 0.89281 0.03313 0.86915 0.0
H510 H 0.93529 0.97754 0.02363 0.0
H511 H 0.97192 0.98039 0.91949 0.0
C512 C 0.85931 0.98002 0.11948 0.0
C513 C 0.84474 1.00253 0.13927 0.0
C514 C 0.88074 0.9808 0.06087 0.0
C515 C 0.88817 1.00412 0.02027 0.0
C516 C 0.87345 0.02663 0.04118 0.0
C517 C 0.85209 0.02581 0.09965 0.0
C518 C 0.93094 0.02326 0.82275 0.0
C519 C 0.95372 1.00851 0.83423 0.0
C520 C 0.9099 0.02153 0.88189 0.0
C521 C 0.91078 1.00514 0.95577 0.0
C522 C 0.93355 0.99022 0.96734 0.0
C523 C 0.95472 0.99195 0.90772 0.0
H524 H 0.55212 0.88676 0.25086 0.0
H525 H 0.53041 0.83427 0.0358 0.0
H526 H 0.55268 0.92292 0.14759 0.0
H527 H 0.53036 0.87036 0.93211 0.0
H528 H 0.55326 0.93628 0.75 0.0
H529 H 0.55656 0.90074 0.8538 0.0
H530 H 0.52503 0.95028 0.06345 0.0
H531 H 0.52185 0.98578 0.95963 0.0
C532 C 0.54752 0.88299 0.18119 0.0
C533 C 0.54128 0.85772 0.1512 0.0
C534 C 0.54764 0.90377 0.12187 0.0
C535 C 0.54149 0.89984 0.03074 0.0
C536 C 0.53556 0.8743 1.00109 0.0
C537 C 0.53543 0.85355 0.06056 0.0
C538 C 0.54669 0.93958 0.81785 0.0
C539 C 0.53637 0.96387 0.84479 0.0
C540 C 0.54866 0.91909 0.87786 0.0
C541 C 0.54068 0.92222 0.96745 0.0
C542 C 0.53145 0.9469 0.99539 0.0
C543 C 0.52942 0.96737 0.93521 0.0
H544 H 0.68408 0.48622 0.09264 0.0
H545 H 0.67858 0.56963 0.10621 0.0
H546 H 0.64597 0.48425 0.99507 0.0
H547 H 0.64002 0.56788 1.00938 0.0
H548 H 0.58126 0.55513 0.77569 0.0
H549 H 0.62231 0.55788 0.85956 0.0
H550 H 0.59986 0.49068 1.00817 0.0
H551 H 0.5594 0.48793 0.92407 0.0
C552 C 0.67475 0.50417 0.07419 0.0
C553 C 0.68429 0.52805 0.10702 0.0
C554 C 0.65274 0.50309 0.01867 0.0
C555 C 0.63953 0.52589 0.9944 0.0
C556 C 0.64964 0.5499 0.02566 0.0
C557 C 0.6717 0.55094 0.08154 0.0
C558 C 0.58538 0.54077 0.82541 0.0
C559 C 0.56734 0.5209 0.84168 0.0
C560 C 0.60879 0.54248 0.87432 0.0
C561 C 0.61475 0.52435 0.94063 0.0
C562 C 0.59644 0.50469 0.95673 0.0
C563 C 0.57309 0.50316 0.9087 0.0
H564 H 1.00054 0.71082 0.9898 0.0
H565 H 0.01626 0.66571 0.22191 0.0
H566 H 1.00296 0.67115 0.89496 0.0
H567 H 0.01833 0.62621 0.12873 0.0
H568 H 0.04955 0.56455 0.93716 0.0
H569 H 0.04596 0.60522 0.02208 0.0
H570 H 0.98272 0.62884 0.853 0.0
H571 H 0.98658 0.58761 0.76704 0.0
C572 C 1.00435 0.69239 0.02063 0.0
C573 C 1.00831 0.69145 0.11349 0.0
C574 C 1.00562 0.66956 0.96628 0.0
C575 C 1.01108 0.64516 1.00326 0.0
C576 C 0.0146 0.64445 0.09669 0.0
C577 C 0.01324 0.66717 0.15065 0.0
C578 C 0.03496 0.57846 0.91745 0.0
C579 C 0.01866 0.57282 0.84416 0.0
C580 C 0.03272 0.60186 0.96689 0.0
C581 C 0.01385 0.6206 0.94588 0.0
C582 C 0.99764 0.61515 0.87146 0.0
C583 C 0.99987 0.59149 0.82175 0.0
H584 H 0.10401 0.22078 0.22951 0.0
H585 H 0.04003 0.26237 0.35249 0.0
H586 H 0.10838 0.19473 0.36262 0.0
H587 H 0.04375 0.23628 0.48283 0.0
H588 H 0.02551 0.17651 0.65006 0.0
H589 H 0.05595 0.20989 0.60354 0.0
H590 H 0.07713 0.16177 0.37463 0.0
H591 H 0.04702 0.12939 0.41903 0.0
C592 C 0.09154 0.22501 0.28626 0.0
C593 C 0.07095 0.24276 0.27927 0.0
C594 C 0.09406 0.21016 0.36265 0.0
C595 C 0.0755 0.21237 0.43147 0.0
C596 C 0.05817 0.23352 0.43088 0.0
C597 C 0.05587 0.24855 0.35521 0.0
C598 C 0.03721 0.17288 0.591 0.0
C599 C 0.03274 0.15085 0.53582 0.0
C600 C 0.05486 0.1919 0.56487 0.0
C601 C 0.06813 0.18915 0.48304 0.0
C602 C 0.06711 0.16499 0.43743 0.0
C603 C 0.04948 0.14616 0.46308 0.0
H604 H 0.32364 0.11262 0.20168 0.0
H605 H 0.2802 0.05069 0.32065 0.0
H606 H 0.35084 0.11595 0.33484 0.0
H607 H 0.30719 0.05379 0.45213 0.0
H608 H 0.41299 0.0502 0.39634 0.0
H609 H 0.38159 0.08035 0.34332 0.0
H610 H 0.33437 0.06886 0.57743 0.0
H611 H 0.36695 0.03895 0.63392 0.0
C612 C 0.31918 0.10052 0.25782 0.0
C613 C 0.30058 0.08066 0.2495 0.0
C614 C 0.33466 0.1025 0.33423 0.0
C615 C 0.33193 0.08438 0.40231 0.0
C616 C 0.31013 0.0679 0.40064 0.0
C617 C 0.29461 0.06599 0.32454 0.0
C618 C 0.39676 0.0549 0.43966 0.0
C619 C 0.39208 0.04109 0.51785 0.0
C620 C 0.37854 0.07252 0.40893 0.0
C621 C 0.35496 0.07641 0.4547 0.0
C622 C 0.35207 0.06572 0.53957 0.0
C623 C 0.3706 0.0483 0.57122 0.0
H624 H 0.49774 0.27578 0.29035 0.0
H625 H 0.43569 0.31722 0.16237 0.0
H626 H 0.49408 0.30467 0.42079 0.0
H627 H 0.43275 0.34674 0.2897 0.0
H628 H 0.4431 0.41228 0.45185 0.0
H629 H 0.43112 0.3666 0.43364 0.0
H630 H 0.51243 0.34644 0.40876 0.0
H631 H 0.52412 0.39138 0.42743 0.0
C632 C 0.48255 0.29036 0.29164 0.0
C633 C 0.4677 0.29505 0.21507 0.0
C634 C 0.48055 0.30704 0.36623 0.0
C635 C 0.46405 0.32883 0.36416 0.0
C636 C 0.44604 0.3305 0.29379 0.0
C637 C 0.44787 0.31372 0.21982 0.0
C638 C 0.45837 0.39787 0.44534 0.0
C639 C 0.48447 0.40549 0.4372 0.0
C640 C 0.45152 0.3717 0.4354 0.0
C641 C 0.47068 0.3529 0.416 0.0
C642 C 0.49698 0.36021 0.42279 0.0
C643 C 0.50379 0.38626 0.43309 0.0
H644 H 0.22799 0.43696 0.18881 0.0
H645 H 0.26643 0.49833 0.33866 0.0
H646 H 0.1985 0.43062 0.31187 0.0
H647 H 0.2379 0.49093 0.46471 0.0
H648 H 0.15089 0.51962 0.4606 0.0
H649 H 0.196 0.50875 0.44848 0.0
H650 H 0.17705 0.42701 0.45125 0.0
H651 H 0.13108 0.43815 0.46463 0.0
C652 C 0.23092 0.44825 0.24988 0.0
C653 C 0.24848 0.46908 0.25232 0.0
C654 C 0.21417 0.44441 0.32146 0.0
C655 C 0.21491 0.46131 0.39663 0.0
C656 C 0.23614 0.47834 0.40611 0.0
C657 C 0.25265 0.48248 0.33383 0.0
C658 C 0.15618 0.49931 0.46302 0.0
C659 C 0.1372 0.47975 0.45956 0.0
C660 C 0.1824 0.49296 0.45642 0.0
C661 C 0.19023 0.46689 0.44522 0.0
C662 C 0.17159 0.44729 0.45663 0.0
C663 C 0.14523 0.45368 0.46356 0.0
H664 H 0.93508 0.82315 0.08595 0.0
H665 H 1.00039 0.78128 0.97307 0.0
H666 H 0.93224 0.84883 0.95151 0.0
H667 H 0.9983 0.80713 0.84166 0.0
H668 H 0.01829 0.86637 0.67435 0.0
H669 H 0.98765 0.83286 0.71848 0.0
H670 H 0.9629 0.88203 0.94045 0.0
H671 H 0.99309 0.91458 0.8981 0.0
C672 C 0.94821 0.81882 0.03108 0.0
C673 C 0.96862 0.80102 0.04127 0.0
C674 C 0.94659 0.83348 0.95397 0.0
C675 C 0.96592 0.8311 0.88771 0.0
C676 C 0.98327 0.81001 0.89145 0.0
C677 C 0.98464 0.79512 0.96775 0.0
C678 C 1.00575 0.87019 0.73122 0.0
C679 C 1.00918 0.8926 0.78538 0.0
C680 C 0.98802 0.85108 0.75604 0.0
C681 C 0.97368 0.85411 0.83563 0.0
C682 C 0.97376 0.87856 0.87948 0.0
C683 C 0.99144 0.8975 0.85505 0.0
H684 H 0.71301 0.932 0.10556 0.0
H685 H 0.75661 0.99517 0.99518 0.0
H686 H 0.68641 0.9296 0.9708 0.0
H687 H 0.73006 0.99319 0.86244 0.0
H688 H 0.67111 1.00989 0.68077 0.0
H689 H 0.70378 0.97968 0.73486 0.0
H690 H 0.65504 0.96397 0.96207 0.0
H691 H 0.62347 0.99426 0.91121 0.0
C692 C 0.7176 0.94462 0.05095 0.0
C693 C 0.73614 0.96444 0.06203 0.0
C694 C 0.70244 0.94321 0.97367 0.0
C695 C 0.70533 0.96195 0.90762 0.0
C696 C 0.72699 0.97859 0.91217 0.0
C697 C 0.74225 0.97987 0.989 0.0
C698 C 0.66717 0.99951 0.74129 0.0
C699 C 0.6452 1.00558 0.79383 0.0
C700 C 0.68576 0.98195 0.7716 0.0
C701 C 0.68249 0.97007 0.85437 0.0
C702 C 0.65846 0.97279 0.89827 0.0
C703 C 0.64013 0.99049 0.86881 0.0
H704 H 0.61439 0.73512 0.13784 0.0
H705 H 0.53797 0.75105 0.0357 0.0
H706 H 0.62043 0.70139 0.02298 0.0
H707 H 0.54251 0.7163 0.92699 0.0
H708 H 0.53104 0.64156 0.83592 0.0
H709 H 0.55111 0.68391 0.83035 0.0
H710 H 0.60621 0.66085 0.03203 0.0
H711 H 0.58819 0.6179 0.02885 0.0
C712 C 0.59927 0.73193 0.08851 0.0
C713 C 0.57547 0.74503 0.09649 0.0
C714 C 0.60245 0.71229 0.02345 0.0
C715 C 0.58131 0.70451 0.96917 0.0
C716 C 0.55925 0.72084 0.96799 0.0
C717 C 0.55646 0.741 0.03096 0.0
C718 C 0.54821 0.64511 0.87607 0.0
C719 C 0.55688 0.62685 0.93783 0.0
C720 C 0.55955 0.66974 0.87396 0.0
C721 C 0.57889 0.6769 0.93642 0.0
C722 C 0.59068 0.65695 0.98511 0.0
C723 C 0.57995 0.63211 0.98483 0.0
H724 H 0.78819 0.53853 0.99772 0.0
H725 H 0.80067 0.61381 0.12093 0.0
H726 H 0.82107 0.54696 0.88916 0.0
H727 H 0.83235 0.62392 1.00649 0.0
H728 H 0.89708 0.53817 0.81539 0.0
H729 H 0.85393 0.55578 0.80363 0.0
H730 H 0.87372 0.61532 1.00073 0.0
H731 H 0.91763 0.59999 1.00192 0.0
C732 C 0.79712 0.55758 0.9982 0.0
C733 C 0.79281 0.5751 0.06935 0.0
C734 C 0.81629 0.56265 0.93529 0.0
C735 C 0.83143 0.58551 0.94234 0.0
C736 C 0.82287 0.60521 1.00257 0.0
C737 C 0.80428 0.59973 0.06753 0.0
C738 C 0.89266 0.55571 0.85351 0.0
C739 C 0.91037 0.56633 0.9159 0.0
C740 C 0.86742 0.56561 0.84817 0.0
C741 C 0.85901 0.58515 0.90904 0.0
C742 C 0.87835 0.59914 0.95647 0.0
C743 C 0.90385 0.58999 0.95873 0.0
H744 H 0.0791 0.20009 0.98344 0.0
H745 H 0.99857 0.22157 0.95667 0.0
H746 H 0.07114 0.15994 0.89882 0.0
H747 H 0.99062 0.18152 0.86932 0.0
H748 H 0.97781 0.09353 0.82134 0.0
H749 H 0.98632 0.13614 0.88926 0.0
H750 H 0.06151 0.13722 0.76167 0.0
H751 H 0.05282 0.09408 0.69446 0.0
C752 C 0.05967 0.19648 0.95835 0.0
C753 C 0.03947 0.21434 0.97823 0.0
C754 C 0.05511 0.17331 0.90891 0.0
C755 C 0.0301 0.16684 0.87727 0.0
C756 C 1.0101 0.18526 0.89358 0.0
C757 C 0.01471 0.2086 0.94286 0.0
C758 C 0.99628 0.10276 0.80825 0.0
C759 C 0.01497 0.08979 0.755 0.0
C760 C 1.00109 0.12751 0.84655 0.0
C761 C 0.02472 0.1406 0.83205 0.0
C762 C 0.04325 0.12785 0.77641 0.0
C763 C 0.03836 0.10296 0.73794 0.0
H764 H 0.34436 0.08637 0.96247 0.0
H765 H 0.31792 1.00764 0.92007 0.0
H766 H 0.38453 0.07618 0.88396 0.0
H767 H 0.3578 0.99762 0.83687 0.0
H768 H 0.44496 0.97917 0.80091 0.0
H769 H 0.40226 0.98981 0.86197 0.0
H770 H 0.40768 0.0664 0.7521 0.0
H771 H 0.4508 0.05562 0.69247 0.0
C772 C 0.34688 0.06689 0.93501 0.0
C773 C 0.32775 0.04778 0.94924 0.0
C774 C 0.37003 0.06107 0.88888 0.0
C775 C 0.37499 0.0359 0.85425 0.0
C776 C 0.3552 0.01711 0.86398 0.0
C777 C 0.33199 0.02295 0.91066 0.0
C778 C 0.43706 0.99834 0.79011 0.0
C779 C 0.4517 0.01675 0.74388 0.0
C780 C 0.41231 1.00442 0.82444 0.0
C781 C 0.40108 0.02909 0.81286 0.0
C782 C 0.41559 0.04735 0.76443 0.0
C783 C 0.44045 0.04123 0.73014 0.0
H784 H 0.53604 0.32537 0.96823 0.0
H785 H 0.46083 0.31405 0.84843 0.0
H786 H 0.5409 0.36625 0.89084 0.0
H787 H 0.46578 0.35453 0.76764 0.0
H788 H 0.46746 0.44332 0.73379 0.0
H789 H 0.46418 0.39949 0.78994 0.0
H790 H 0.54725 0.3903 0.76256 0.0
H791 H 0.55054 0.43463 0.71121 0.0
C792 C 0.52098 0.33116 0.92228 0.0
C793 C 0.49835 0.31608 0.9128 0.0
C794 C 0.52365 0.35478 0.87782 0.0
C795 C 0.50369 0.36424 0.82255 0.0
C796 C 0.48148 0.34844 0.8104 0.0
C797 C 0.47878 0.32487 0.85541 0.0
C798 C 0.48511 0.43214 0.74093 0.0
C799 C 0.50937 0.44319 0.72078 0.0
C800 C 0.4832 0.4066 0.77188 0.0
C801 C 0.50549 0.39096 0.78256 0.0
C802 C 0.52962 0.40165 0.75801 0.0
C803 C 0.53151 0.42725 0.72769 0.0
H804 H 0.21683 0.54353 0.99431 0.0
H805 H 0.22277 0.46323 0.91131 0.0
H806 H 0.17582 0.54723 0.91311 0.0
H807 H 0.18259 0.4669 0.82611 0.0
H808 H 0.09529 0.4707 0.77439 0.0
H809 H 0.13834 0.46828 0.83988 0.0
H810 H 0.15058 0.54936 0.78552 0.0
H811 H 0.10672 0.55201 0.72557 0.0
C812 C 0.20984 0.52691 0.9558 0.0
C813 C 0.22336 0.50321 0.95826 0.0
C814 C 0.18612 0.52893 0.90909 0.0
C815 C 0.17518 0.5073 0.86282 0.0
C816 C 0.1896 0.48394 0.86213 0.0
C817 C 0.21306 0.48188 0.90979 0.0
C818 C 0.10691 0.48817 0.7778 0.0
C819 C 0.09679 0.51175 0.74718 0.0
C820 C 0.13209 0.4867 0.81411 0.0
C821 C 0.14849 0.50868 0.81959 0.0
C822 C 0.1387 0.53205 0.78527 0.0
C823 C 0.11337 0.53354 0.74987 0.0
H824 H 0.95793 0.84434 0.33533 0.0
H825 H 0.03751 0.82097 0.37339 0.0
H826 H 0.96591 0.88442 0.42048 0.0
H827 H 0.04546 0.86096 0.46107 0.0
H828 H 0.05992 0.94877 0.50691 0.0
H829 H 0.05101 0.90622 0.43933 0.0
H830 H 0.97473 0.90713 0.55916 0.0
H831 H 0.98385 0.95021 0.62632 0.0
C832 C 0.97713 0.84752 0.363 0.0
C833 C 0.99709 0.82916 0.34614 0.0
C834 C 0.9817 0.87065 0.4127 0.0
C835 C 1.00649 0.87656 0.44754 0.0
C836 C 0.02618 0.85764 0.43427 0.0
C837 C 0.02155 0.83435 0.38479 0.0
C838 C 0.04113 0.93999 0.51841 0.0
C839 C 0.0223 0.95351 0.56948 0.0
C840 C 0.03608 0.91528 0.4803 0.0
C841 C 1.01204 0.90276 0.49271 0.0
C842 C 0.99333 0.91604 0.54614 0.0
C843 C 0.99847 0.94091 0.58455 0.0
H844 H 0.71964 0.03482 0.39828 0.0
H845 H 0.69132 0.95713 0.34703 0.0
H846 H 0.67986 0.04509 0.48174 0.0
H847 H 0.65129 0.96761 0.42622 0.0
H848 H 0.58569 0.98832 0.62105 0.0
H849 H 0.62861 0.977 0.56064 0.0
H850 H 0.63543 0.05396 0.45474 0.0
H851 H 0.5929 0.06512 0.51621 0.0
C852 C 0.70518 0.01977 0.40583 0.0
C853 C 0.70887 0.99518 0.36473 0.0
C854 C 0.68205 0.02577 0.45268 0.0
C855 C 0.66181 1.00738 0.46017 0.0
C856 C 0.66618 0.98239 0.42299 0.0
C857 C 0.68924 0.97641 0.37654 0.0
C858 C 0.5963 1.00268 0.58404 0.0
C859 C 0.58548 0.02742 0.57143 0.0
C860 C 0.62103 0.99625 0.54937 0.0
C861 C 0.63585 0.01446 0.50186 0.0
C862 C 0.62509 0.03938 0.49151 0.0
C863 C 0.60045 0.04576 0.52607 0.0
H864 H 0.50579 0.72104 0.35776 0.0
H865 H 0.58447 0.72673 0.45306 0.0
H866 H 0.49977 0.68111 0.44009 0.0
H867 H 0.57841 0.68754 0.53944 0.0
H868 H 0.5721 0.60016 0.58318 0.0
H869 H 0.57653 0.64314 0.52247 0.0
H870 H 0.49482 0.65729 0.56897 0.0
H871 H 0.49021 0.61344 0.62468 0.0
C872 C 0.52148 0.71426 0.39938 0.0
C873 C 0.54543 0.72737 0.40022 0.0
C874 C 0.51812 0.69119 0.44673 0.0
C875 C 0.53864 0.68047 0.49669 0.0
C876 C 0.56221 0.6945 0.50066 0.0
C877 C 0.56563 0.71737 0.45239 0.0
C878 C 0.55495 0.61225 0.57967 0.0
C879 C 0.53061 0.60268 0.60648 0.0
C880 C 0.55757 0.63735 0.54595 0.0
C881 C 0.53602 0.65417 0.53926 0.0
C882 C 0.51187 0.64501 0.57042 0.0
C883 C 0.50922 0.61973 0.60336 0.0
H884 H 0.81865 0.50228 0.34143 0.0
H885 H 0.81691 0.58402 0.40729 0.0
H886 H 0.85876 0.4977 0.42731 0.0
H887 H 0.85605 0.57956 0.49718 0.0
H888 H 0.94252 0.57222 0.55495 0.0
H889 H 0.90005 0.57559 0.48655 0.0
H890 H 0.88335 0.49646 0.55699 0.0
H891 H 0.92682 0.49271 0.6203 0.0
C892 C 0.82635 0.51912 0.37704 0.0
C893 C 0.81435 0.54346 0.36812 0.0
C894 C 0.84954 0.51658 0.42648 0.0
C895 C 0.86139 0.5383 0.46926 0.0
C896 C 0.84837 0.56237 0.46384 0.0
C897 C 0.8255 0.56493 0.41337 0.0
C898 C 0.93002 0.55536 0.55496 0.0
C899 C 0.93879 0.53193 0.59113 0.0
C900 C 0.90516 0.55742 0.51676 0.0
C901 C 0.88769 0.53627 0.5148 0.0
C902 C 0.8961 0.51312 0.5546 0.0
C903 C 0.92117 0.51099 0.59194 0.0
loop_
_geom_bond_atom_site_label_1
_geom_bond_atom_site_label_2
_geom_bond_distance
_geom_bond_site_symmetry_2
_ccdc_geom_bond_type
H0 C3 0.929 . S
H1 C6 0.929 . S
H2 C8 0.930 . S
C3 H0 0.929 . S
C3 C4 1.398 . S
C3 C5 1.396 . S
C4 C3 1.398 . S
C4 C8 1.407 . S
C5 C3 1.396 . S
C5 C6 1.394 . S
C6 H1 0.929 . S
C6 C5 1.394 . S
C6 C7 1.382 . S
C7 C6 1.382 . S
C7 C8 1.392 . S
C7 N9 1.420 . S
C8 H2 0.930 . S
C8 C4 1.407 . S
C8 C7 1.392 . S
N9 C7 1.420 . S
N9 C10 1.244 . S
C10 N9 1.244 . S
H11 C14 0.929 . S
H12 C17 0.929 . S
H13 C19 0.930 . S
C14 H11 0.929 . S
C14 C15 1.398 . S
C14 C16 1.396 . S
C15 C14 1.398 . S
C15 C19 1.407 . S
C16 C14 1.396 . S
C16 C17 1.394 . S
C17 H12 0.929 . S
C17 C16 1.394 . S
C17 C18 1.382 . S
C18 C17 1.382 . S
C18 C19 1.392 . S
C18 N20 1.420 . S
C19 H13 0.930 . S
C19 C15 1.407 . S
C19 C18 1.392 . S
N20 C18 1.420 . S
N20 C21 1.244 . S
C21 N20 1.244 . S
H22 C25 0.929 . S
H23 C28 0.929 . S
H24 C30 0.930 . S
C25 H22 0.929 . S
C25 C26 1.398 . S
C25 C27 1.396 . S
C26 C25 1.398 . S
C26 C30 1.407 . S
C27 C25 1.396 . S
C27 C28 1.394 . S
C28 H23 0.929 . S
C28 C27 1.394 . S
C28 C29 1.382 . S
C29 C28 1.382 . S
C29 C30 1.392 . S
C29 N31 1.420 . S
C30 H24 0.930 . S
C30 C26 1.407 . S
C30 C29 1.392 . S
N31 C29 1.420 . S
N31 C32 1.244 . S
C32 N31 1.244 . S
H33 C36 0.929 . S
H34 C39 0.929 . S
H35 C41 0.930 . S
C36 H33 0.929 . S
C36 C37 1.398 . S
C36 C38 1.396 . S
C37 C36 1.398 . S
C37 C41 1.407 . S
C38 C36 1.396 . S
C38 C39 1.394 . S
C39 H34 0.929 . S
C39 C38 1.394 . S
C39 C40 1.382 . S
C40 C39 1.382 . S
C40 C41 1.392 . S
C40 N42 1.420 . S
C41 H35 0.930 . S
C41 C37 1.407 . S
C41 C40 1.392 . S
N42 C40 1.420 . S
N42 C43 1.244 . S
C43 N42 1.244 . S
H44 C47 0.929 . S
H45 C50 0.929 . S
H46 C52 0.930 . S
C47 H44 0.929 . S
C47 C48 1.398 . S
C47 C49 1.396 1_556 S
C48 C47 1.398 . S
C48 C52 1.407 . S
C49 C47 1.396 1_554 S
C49 C50 1.394 . S
C50 H45 0.929 . S
C50 C49 1.394 . S
C50 C51 1.382 . S
C51 C50 1.382 . S
C51 C52 1.392 1_554 S
C51 N53 1.420 . S
C52 H46 0.930 . S
C52 C48 1.407 . S
C52 C51 1.392 1_556 S
N53 C51 1.420 . S
N53 C54 1.244 . S
C54 N53 1.244 . S
H55 C58 0.929 . S
H56 C61 0.929 . S
H57 C63 0.930 . S
C58 H55 0.929 . S
C58 C59 1.398 . S
C58 C60 1.396 1_556 S
C59 C58 1.398 . S
C59 C63 1.407 . S
C60 C58 1.396 1_554 S
C60 C61 1.394 . S
C61 H56 0.929 . S
C61 C60 1.394 . S
C61 C62 1.382 . S
C62 C61 1.382 . S
C62 C63 1.392 1_554 S
C62 N64 1.420 . S
C63 H57 0.930 . S
C63 C59 1.407 . S
C63 C62 1.392 1_556 S
N64 C62 1.420 . S
N64 C65 1.244 . S
C65 N64 1.244 . S
H66 C69 0.929 . S
H67 C72 0.929 . S
H68 C74 0.930 . S
C69 H66 0.929 . S
C69 C70 1.398 . S
C69 C71 1.396 1_556 S
C70 C69 1.398 . S
C70 C74 1.407 . S
C71 C69 1.396 1_554 S
C71 C72 1.394 . S
C72 H67 0.929 . S
C72 C71 1.394 . S
C72 C73 1.374 1_554 S
C73 C72 1.374 1_556 S
C73 C74 1.400 . S
C73 N75 1.420 1_556 S
C74 H68 0.930 . S
C74 C70 1.407 . S
C74 C73 1.400 . S
N75 C73 1.420 1_554 S
N75 C76 1.244 . S
C76 N75 1.244 . S
H77 C80 0.929 . S
H78 C83 0.929 . S
H79 C85 0.930 . S
C80 H77 0.929 . S
C80 C81 1.398 . S
C80 C82 1.396 1_556 S
C81 C80 1.398 . S
C81 C85 1.407 . S
C82 C80 1.396 1_554 S
C82 C83 1.394 . S
C83 H78 0.929 . S
C83 C82 1.394 . S
C83 C84 1.382 . S
C84 C83 1.382 . S
C84 C85 1.392 1_554 S
C84 N86 1.420 . S
C85 H79 0.930 . S
C85 C81 1.407 . S
C85 C84 1.392 1_556 S
N86 C84 1.420 . S
N86 C87 1.244 . S
C87 N86 1.244 . S
Gd88 N119 2.647 1_545 S
Gd88 N125 2.601 . S
Gd88 O132 2.545 . S
Gd88 O133 2.606 1_655 S
Gd88 O135 2.429 . S
Gd88 O136 2.545 1_655 S
Gd88 O137 2.412 . S
Gd88 O139 2.362 1_545 S
Gd88 O140 2.324 1_655 S
Gd88 C147 2.828 . S
Gd89 N98 2.661 1_565 S
Gd89 N102 2.592 1_565 S
Gd89 O133 2.362 1_565 S
Gd89 O134 2.324 1_455 S
Gd89 O138 2.545 . S
Gd89 O139 2.606 1_455 S
Gd89 O141 2.429 . S
Gd89 O142 2.545 . S
Gd89 O143 2.412 . S
Gd89 C156 2.828 . S
C90 C93 1.426 . S
C90 C95 1.426 1_556 S
C90 C96 1.408 1_556 S
C91 C94 1.437 1_554 S
C91 C95 1.317 . S
C91 H110 0.929 . S
C92 C93 1.426 . S
C92 C94 1.413 . S
C92 N102 1.381 . S
C93 C90 1.426 . S
C93 C92 1.426 . S
C93 N98 1.350 . S
C94 C91 1.437 1_556 S
C94 C92 1.413 . S
C94 C104 1.391 . S
C95 C90 1.426 1_554 S
C95 C91 1.317 . S
C95 H106 0.930 . S
C96 C90 1.408 1_554 S
C96 C97 1.355 1_554 S
C96 H108 0.930 . S
C97 C96 1.355 1_556 S
C97 C99 1.402 . S
C97 H109 0.930 1_456 S
N98 Gd89 2.661 1_545 S
N98 C93 1.350 . S
N98 C99 1.307 . S
C99 C97 1.402 . S
C99 N98 1.307 . S
C99 H100 0.930 1_455 S
H100 C99 0.930 1_655 S
C101 N102 1.319 1_565 S
C101 C103 1.394 . S
C101 H105 0.930 . S
N102 Gd89 2.592 1_545 S
N102 C92 1.381 . S
N102 C101 1.319 1_545 S
C103 C101 1.394 . S
C103 C104 1.359 1_565 S
C103 H115 0.930 . S
C104 C94 1.391 . S
C104 C103 1.359 1_545 S
C104 H116 0.929 . S
H105 C101 0.930 . S
H106 C95 0.930 . S
H107 C124 0.930 . S
H108 C96 0.930 . S
H109 C97 0.930 1_654 S
H110 C91 0.929 . S
H111 C129 0.930 . S
H112 C120 0.930 . S
H113 C121 0.930 . S
H114 C145 0.929 . S
H115 C103 0.930 . S
H116 C104 0.929 . S
H117 C146 0.930 . S
H118 C127 0.930 . S
N119 Gd88 2.647 1_565 S
N119 C123 1.356 . S
N119 C124 1.317 1_655 S
C120 H112 0.930 . S
C120 C121 1.355 1_655 S
C120 C122 1.412 . S
C121 H113 0.930 . S
C121 C120 1.355 1_455 S
C121 C124 1.402 . S
C122 C120 1.412 . S
C122 C123 1.417 . S
C122 C146 1.431 . S
C123 N119 1.356 . S
C123 C122 1.417 . S
C123 C126 1.426 1_565 S
C124 H107 0.930 . S
C124 N119 1.317 1_455 S
C124 C121 1.402 . S
N125 Gd88 2.601 . S
N125 C126 1.359 . S
N125 C129 1.334 . S
C126 C123 1.426 1_545 S
C126 N125 1.359 . S
C126 C130 1.411 1_545 S
C127 H118 0.930 . S
C127 C128 1.359 . S
C127 C129 1.394 . S
C128 C127 1.359 . S
C128 C130 1.384 1_545 S
C128 H131 0.929 . S
C129 H111 0.930 . S
C129 N125 1.334 . S
C129 C127 1.394 . S
C130 C126 1.411 1_565 S
C130 C128 1.384 1_565 S
C130 C145 1.446 . S
H131 C128 0.929 . S
O132 Gd88 2.545 . S
O132 C147 1.258 . S
O133 Gd88 2.606 1_455 S
O133 Gd89 2.362 1_545 S
O133 C144 1.284 . S
O134 Gd89 2.324 1_655 S
O134 C154 1.254 1_565 S
O135 Gd88 2.429 . S
O135 C154 1.268 . S
O136 Gd88 2.545 1_455 S
O136 C144 1.250 . S
O137 Gd88 2.412 . S
O137 C147 1.252 . S
O138 Gd89 2.545 . S
O138 C156 1.258 . S
O139 Gd88 2.362 1_565 S
O139 Gd89 2.606 1_655 S
O139 C155 1.284 . S
O140 Gd88 2.324 1_455 S
O140 C163 1.254 . S
O141 Gd89 2.429 . S
O141 C163 1.268 1_565 S
O142 Gd89 2.545 . S
O142 C155 1.250 1_455 S
O143 Gd89 2.412 . S
O143 C156 1.252 . S
C144 O133 1.284 . S
C144 O136 1.250 . S
C145 H114 0.929 . S
C145 C130 1.446 . S
C145 C146 1.317 . S
C146 H117 0.930 . S
C146 C122 1.431 . S
C146 C145 1.317 . S
C147 Gd88 2.828 . S
C147 O132 1.258 . S
C147 O137 1.252 . S
C147 C148 1.497 . S
C148 C147 1.497 . S
C148 C149 1.395 . S
C148 C150 1.380 . S
C149 C148 1.395 . S
C149 C152 1.398 . S
C149 H164 0.930 . S
C150 C148 1.380 . S
C150 C151 1.391 . S
C150 H165 0.930 1_655 S
C151 C150 1.391 . S
C151 C153 1.387 . S
C152 C149 1.398 . S
C152 C153 1.380 . S
C152 H166 0.930 . S
C153 C151 1.387 . S
C153 C152 1.380 . S
C153 H167 0.930 . S
C154 O134 1.254 1_545 S
C154 O135 1.268 . S
C155 O139 1.284 . S
C155 O142 1.250 1_655 S
C156 Gd89 2.828 . S
C156 O138 1.258 . S
C156 O143 1.252 . S
C156 C157 1.497 . S
C157 C156 1.497 . S
C157 C158 1.395 . S
C157 C159 1.380 . S
C158 C157 1.395 . S
C158 C161 1.398 . S
C158 H168 0.930 . S
C159 C157 1.380 . S
C159 C160 1.391 . S
C159 H169 0.937 . S
C160 C159 1.391 . S
C160 C162 1.387 . S
C161 C158 1.398 . S
C161 C162 1.380 . S
C161 H170 0.930 . S
C162 C160 1.387 . S
C162 C161 1.380 . S
C162 H171 0.930 1_556 S
C163 O140 1.254 . S
C163 O141 1.268 1_545 S
H164 C149 0.930 . S
H165 C150 0.930 1_455 S
H166 C152 0.930 . S
H167 C153 0.930 . S
H168 C158 0.930 . S
H169 C159 0.937 . S
H170 C161 0.930 . S
H171 C162 0.930 1_554 S
Gd172 N203 2.661 . S
Gd172 N209 2.601 . S
Gd172 O216 2.545 . S
Gd172 O217 2.606 1_565 S
Gd172 O219 2.429 . S
Gd172 O220 2.545 1_565 S
Gd172 O221 2.412 . S
Gd172 O223 2.362 . S
Gd172 O224 2.324 1_565 S
Gd172 C231 2.828 . S
Gd173 N182 2.661 . S
Gd173 N186 2.601 . S
Gd173 O217 2.362 . S
Gd173 O218 2.324 1_545 S
Gd173 O222 2.545 . S
Gd173 O223 2.606 1_545 S
Gd173 O225 2.429 . S
Gd173 O226 2.545 . S
Gd173 O227 2.412 . S
Gd173 C240 2.828 . S
C174 C177 1.418 1_554 S
C174 C179 1.430 . S
C174 C180 1.411 . S
C175 C178 1.437 1_554 S
C175 C179 1.317 . S
C175 H194 0.929 . S
C176 C177 1.426 . S
C176 C178 1.413 . S
C176 N186 1.359 . S
C177 C174 1.418 1_556 S
C177 C176 1.426 . S
C177 N182 1.350 . S
C178 C175 1.437 1_556 S
C178 C176 1.413 . S
C178 C188 1.391 . S
C179 C174 1.430 . S
C179 C175 1.317 . S
C179 H190 0.930 . S
C180 C174 1.411 . S
C180 C181 1.355 1_554 S
C180 H192 0.930 . S
C181 C180 1.355 1_556 S
C181 C183 1.402 . S
C181 H193 0.930 1_546 S
N182 Gd173 2.661 . S
N182 C177 1.350 . S
N182 C183 1.307 . S
C183 C181 1.402 . S
C183 N182 1.307 . S
C183 H184 0.930 1_545 S
H184 C183 0.930 1_565 S
C185 N186 1.334 . S
C185 C187 1.394 . S
C185 H189 0.930 . S
N186 Gd173 2.601 . S
N186 C176 1.359 . S
N186 C185 1.334 . S
C187 C185 1.394 . S
C187 C188 1.359 . S
C187 H199 0.930 . S
C188 C178 1.391 . S
C188 C187 1.359 . S
C188 H200 0.929 . S
H189 C185 0.930 . S
H190 C179 0.930 . S
H191 C208 0.930 . S
H192 C180 0.930 . S
H193 C181 0.930 1_564 S
H194 C175 0.929 . S
H195 C213 0.930 . S
H196 C204 0.930 . S
H197 C205 0.930 . S
H198 C229 0.929 . S
H199 C187 0.930 . S
H200 C188 0.929 . S
H201 C230 0.930 . S
H202 C211 0.930 . S
N203 Gd172 2.661 . S
N203 C207 1.350 . S
N203 C208 1.307 1_565 S
C204 H196 0.930 . S
C204 C205 1.355 1_565 S
C204 C206 1.412 . S
C205 H197 0.930 . S
C205 C204 1.355 1_545 S
C205 C208 1.402 . S
C206 C204 1.412 . S
C206 C207 1.417 . S
C206 C230 1.431 . S
C207 N203 1.350 . S
C207 C206 1.417 . S
C207 C210 1.426 . S
C208 H191 0.930 . S
C208 N203 1.307 1_545 S
C208 C205 1.402 . S
N209 Gd172 2.601 . S
N209 C210 1.359 . S
N209 C213 1.334 . S
C210 C207 1.426 . S
C210 N209 1.359 . S
C210 C214 1.413 . S
C211 H202 0.930 . S
C211 C212 1.359 . S
C211 C213 1.394 . S
C212 C211 1.359 . S
C212 C214 1.391 . S
C212 H215 0.929 . S
C213 H195 0.930 . S
C213 N209 1.334 . S
C213 C211 1.394 . S
C214 C210 1.413 . S
C214 C212 1.391 . S
C214 C229 1.437 . S
H215 C212 0.929 . S
O216 Gd172 2.545 . S
O216 C231 1.258 . S
O217 Gd172 2.606 1_545 S
O217 Gd173 2.362 . S
O217 C228 1.284 . S
O218 Gd173 2.324 1_565 S
O218 C238 1.254 . S
O219 Gd172 2.429 . S
O219 C238 1.268 . S
O220 Gd172 2.545 1_545 S
O220 C228 1.250 . S
O221 Gd172 2.412 . S
O221 C231 1.252 . S
O222 Gd173 2.545 . S
O222 C240 1.258 . S
O223 Gd172 2.362 . S
O223 Gd173 2.606 1_565 S
O223 C239 1.284 . S
O224 Gd172 2.324 1_545 S
O224 C247 1.254 . S
O225 Gd173 2.429 . S
O225 C247 1.268 . S
O226 Gd173 2.545 . S
O226 C239 1.250 1_545 S
O227 Gd173 2.412 . S
O227 C240 1.252 . S
C228 O217 1.284 . S
C228 O220 1.250 . S
C229 H198 0.929 . S
C229 C214 1.437 . S
C229 C230 1.317 . S
C230 H201 0.930 . S
C230 C206 1.431 . S
C230 C229 1.317 . S
C231 Gd172 2.828 . S
C231 O216 1.258 . S
C231 O221 1.252 . S
C231 C232 1.497 . S
C232 C231 1.497 . S
C232 C233 1.395 . S
C232 C234 1.380 . S
C233 C232 1.395 . S
C233 C236 1.398 . S
C233 H248 0.930 . S
C234 C232 1.380 . S
C234 C235 1.391 . S
C234 H249 0.930 1_565 S
C235 C234 1.391 . S
C235 C237 1.387 . S
C236 C233 1.398 . S
C236 C237 1.380 . S
C236 H250 0.930 . S
C237 C235 1.387 . S
C237 C236 1.380 . S
C237 H251 0.930 . S
C238 O218 1.254 . S
C238 O219 1.268 . S
C239 O223 1.284 . S
C239 O226 1.250 1_565 S
C240 Gd173 2.828 . S
C240 O222 1.258 . S
C240 O227 1.252 . S
C240 C241 1.497 . S
C241 C240 1.497 . S
C241 C242 1.395 . S
C241 C243 1.380 . S
C242 C241 1.395 . S
C242 C245 1.398 . S
C242 H252 0.930 . S
C243 C241 1.380 . S
C243 C244 1.391 . S
C243 H253 0.930 . S
C244 C243 1.391 . S
C244 C246 1.387 . S
C245 C242 1.398 . S
C245 C246 1.380 . S
C245 H254 0.930 . S
C246 C244 1.387 . S
C246 C245 1.380 . S
C246 H255 0.930 1_556 S
C247 O224 1.254 . S
C247 O225 1.268 . S
H248 C233 0.930 . S
H249 C234 0.930 1_545 S
H250 C236 0.930 . S
H251 C237 0.930 . S
H252 C242 0.930 . S
H253 C243 0.930 . S
H254 C245 0.930 . S
H255 C246 0.930 1_554 S
Gd256 N287 2.661 . S
Gd256 N293 2.601 . S
Gd256 O300 2.545 . S
Gd256 O301 2.606 . S
Gd256 O303 2.429 . S
Gd256 O304 2.545 . S
Gd256 O305 2.412 . S
Gd256 O307 2.362 . S
Gd256 O308 2.324 . S
Gd256 C315 2.828 . S
Gd257 N266 2.661 . S
Gd257 N270 2.601 . S
Gd257 O301 2.362 . S
Gd257 O302 2.324 . S
Gd257 O306 2.545 . S
Gd257 O307 2.606 . S
Gd257 O309 2.429 . S
Gd257 O310 2.545 . S
Gd257 O311 2.412 . S
Gd257 C324 2.828 . S
C258 C261 1.417 . S
C258 C263 1.431 . S
C258 C264 1.412 . S
C259 C262 1.437 . S
C259 C263 1.317 . S
C259 H278 0.929 . S
C260 C261 1.426 . S
C260 C262 1.413 . S
C260 N270 1.359 . S
C261 C258 1.417 . S
C261 C260 1.426 . S
C261 N266 1.350 . S
C262 C259 1.437 . S
C262 C260 1.413 . S
C262 C272 1.391 . S
C263 C258 1.431 . S
C263 C259 1.317 . S
C263 H274 0.930 . S
C264 C258 1.412 . S
C264 C265 1.355 . S
C264 H276 0.930 . S
C265 C264 1.355 . S
C265 C267 1.402 . S
C265 H277 0.930 . S
N266 Gd257 2.661 . S
N266 C261 1.350 . S
N266 C267 1.307 . S
C267 C265 1.402 . S
C267 N266 1.307 . S
C267 H268 0.930 . S
H268 C267 0.930 . S
C269 N270 1.334 . S
C269 C271 1.394 . S
C269 H273 0.930 . S
N270 Gd257 2.601 . S
N270 C260 1.359 . S
N270 C269 1.334 . S
C271 C269 1.394 . S
C271 C272 1.359 . S
C271 H283 0.930 . S
C272 C262 1.391 . S
C272 C271 1.359 . S
C272 H284 0.929 . S
H273 C269 0.930 . S
H274 C263 0.930 . S
H275 C292 0.930 . S
H276 C264 0.930 . S
H277 C265 0.930 . S
H278 C259 0.929 . S
H279 C297 0.930 . S
H280 C288 0.930 . S
H281 C289 0.930 . S
H282 C313 0.929 . S
H283 C271 0.930 . S
H284 C272 0.929 . S
H285 C314 0.930 . S
H286 C295 0.930 . S
N287 Gd256 2.661 . S
N287 C291 1.350 . S
N287 C292 1.307 . S
C288 H280 0.930 . S
C288 C289 1.355 . S
C288 C290 1.412 . S
C289 H281 0.930 . S
C289 C288 1.355 . S
C289 C292 1.402 . S
C290 C288 1.412 . S
C290 C291 1.417 . S
C290 C314 1.431 . S
C291 N287 1.350 . S
C291 C290 1.417 . S
C291 C294 1.426 . S
C292 H275 0.930 . S
C292 N287 1.307 . S
C292 C289 1.402 . S
N293 Gd256 2.601 . S
N293 C294 1.359 . S
N293 C297 1.334 . S
C294 C291 1.426 . S
C294 N293 1.359 . S
C294 C298 1.413 . S
C295 H286 0.930 . S
C295 C296 1.359 . S
C295 C297 1.394 . S
C296 C295 1.359 . S
C296 C298 1.391 . S
C296 H299 0.929 . S
C297 H279 0.930 . S
C297 N293 1.334 . S
C297 C295 1.394 . S
C298 C294 1.413 . S
C298 C296 1.391 . S
C298 C313 1.437 . S
H299 C296 0.929 . S
O300 Gd256 2.545 . S
O300 C315 1.258 . S
O301 Gd256 2.606 . S
O301 Gd257 2.362 . S
O301 C312 1.284 . S
O302 Gd257 2.324 . S
O302 C322 1.254 . S
O303 Gd256 2.429 . S
O303 C322 1.268 . S
O304 Gd256 2.545 . S
O304 C312 1.250 . S
O305 Gd256 2.412 . S
O305 C315 1.252 . S
O306 Gd257 2.545 . S
O306 C324 1.258 . S
O307 Gd256 2.362 . S
O307 Gd257 2.606 . S
O307 C323 1.284 . S
O308 Gd256 2.324 . S
O308 C331 1.254 . S
O309 Gd257 2.429 . S
O309 C331 1.268 . S
O310 Gd257 2.545 . S
O310 C323 1.250 . S
O311 Gd257 2.412 . S
O311 C324 1.252 . S
C312 O301 1.284 . S
C312 O304 1.250 . S
C313 H282 0.929 . S
C313 C298 1.437 . S
C313 C314 1.317 . S
C314 H285 0.930 . S
C314 C290 1.431 . S
C314 C313 1.317 . S
C315 Gd256 2.828 . S
C315 O300 1.258 . S
C315 O305 1.252 . S
C315 C316 1.497 . S
C316 C315 1.497 . S
C316 C317 1.395 1_556 S
C316 C318 1.380 . S
C317 C316 1.395 1_554 S
C317 C320 1.398 . S
C317 H332 0.930 . S
C318 C316 1.380 . S
C318 C319 1.391 1_556 S
C318 H333 0.930 . S
C319 C318 1.391 1_554 S
C319 C321 1.387 . S
C320 C317 1.398 . S
C320 C321 1.380 . S
C320 H334 0.930 . S
C321 C319 1.387 . S
C321 C320 1.380 . S
C321 H335 0.930 . S
C322 O302 1.254 . S
C322 O303 1.268 . S
C323 O307 1.284 . S
C323 O310 1.250 . S
C324 Gd257 2.828 . S
C324 O306 1.258 . S
C324 O311 1.252 . S
C324 C325 1.497 . S
C325 C324 1.497 . S
C325 C326 1.395 . S
C325 C327 1.380 . S
C326 C325 1.395 . S
C326 C329 1.398 . S
C326 H336 0.930 . S
C327 C325 1.380 . S
C327 C328 1.391 . S
C327 H337 0.930 . S
C328 C327 1.391 . S
C328 C330 1.387 . S
C329 C326 1.398 . S
C329 C330 1.380 . S
C329 H338 0.930 . S
C330 C328 1.387 . S
C330 C329 1.380 . S
C330 H339 0.930 . S
C331 O308 1.254 . S
C331 O309 1.268 . S
H332 C317 0.930 . S
H333 C318 0.930 . S
H334 C320 0.930 . S
H335 C321 0.930 . S
H336 C326 0.930 . S
H337 C327 0.930 . S
H338 C329 0.930 . S
H339 C330 0.930 . S
Gd340 N371 2.661 . S
Gd340 N377 2.601 . S
Gd340 O384 2.545 . S
Gd340 O385 2.606 1_655 S
Gd340 O387 2.429 1_655 S
Gd340 O388 2.545 . S
Gd340 O389 2.412 . S
Gd340 O391 2.362 1_655 S
Gd340 O392 2.324 . S
Gd340 C399 2.828 . S
Gd341 N350 2.661 . S
Gd341 N354 2.601 . S
Gd341 O385 2.362 . S
Gd341 O386 2.324 . S
Gd341 O390 2.545 . S
Gd341 O391 2.606 . S
Gd341 O393 2.429 1_455 S
Gd341 O394 2.545 . S
Gd341 O395 2.412 . S
Gd341 C408 2.828 . S
C342 C345 1.417 . S
C342 C347 1.431 . S
C342 C348 1.412 . S
C343 C346 1.437 . S
C343 C347 1.317 . S
C343 H362 0.929 . S
C344 C345 1.426 . S
C344 C346 1.413 . S
C344 N354 1.359 . S
C345 C342 1.417 . S
C345 C344 1.426 . S
C345 N350 1.350 . S
C346 C343 1.437 . S
C346 C344 1.413 . S
C346 C356 1.391 . S
C347 C342 1.431 . S
C347 C343 1.317 . S
C347 H358 0.930 . S
C348 C342 1.412 . S
C348 C349 1.355 . S
C348 H360 0.930 . S
C349 C348 1.355 . S
C349 C351 1.402 . S
C349 H361 0.930 . S
N350 Gd341 2.661 . S
N350 C345 1.350 . S
N350 C351 1.307 . S
C351 C349 1.402 . S
C351 N350 1.307 . S
C351 H352 0.930 . S
H352 C351 0.930 . S
C353 N354 1.348 . S
C353 C355 1.392 1_455 S
C353 H357 0.919 1_455 S
N354 Gd341 2.601 . S
N354 C344 1.359 . S
N354 C353 1.348 . S
C355 C353 1.392 1_655 S
C355 C356 1.359 1_655 S
C355 H367 0.930 . S
C356 C346 1.391 . S
C356 C355 1.359 1_455 S
C356 H368 0.929 . S
H357 C353 0.919 1_655 S
H358 C347 0.930 . S
H359 C376 0.930 . S
H360 C348 0.930 . S
H361 C349 0.930 . S
H362 C343 0.929 . S
H363 C381 0.930 . S
H364 C372 0.930 . S
H365 C373 0.930 . S
H366 C397 0.929 . S
H367 C355 0.930 . S
H368 C356 0.929 . S
H369 C398 0.930 . S
H370 C379 0.930 . S
N371 Gd340 2.661 . S
N371 C375 1.350 . S
N371 C376 1.307 . S
C372 H364 0.930 . S
C372 C373 1.355 . S
C372 C374 1.412 . S
C373 H365 0.930 . S
C373 C372 1.355 . S
C373 C376 1.402 . S
C374 C372 1.412 . S
C374 C375 1.417 . S
C374 C398 1.431 . S
C375 N371 1.350 . S
C375 C374 1.417 . S
C375 C378 1.426 . S
C376 H359 0.930 . S
C376 N371 1.307 . S
C376 C373 1.402 . S
N377 Gd340 2.601 . S
N377 C378 1.359 . S
N377 C381 1.334 1_655 S
C378 C375 1.426 . S
C378 N377 1.359 . S
C378 C382 1.413 . S
C379 H370 0.930 . S
C379 C380 1.359 . S
C379 C381 1.394 . S
C380 C379 1.359 . S
C380 C382 1.391 1_455 S
C380 H383 0.929 . S
C381 H363 0.930 . S
C381 N377 1.334 1_455 S
C381 C379 1.394 . S
C382 C378 1.413 . S
C382 C380 1.391 1_655 S
C382 C397 1.437 . S
H383 C380 0.929 . S
O384 Gd340 2.545 . S
O384 C399 1.258 . S
O385 Gd340 2.606 1_455 S
O385 Gd341 2.362 . S
O385 C396 1.284 1_455 S
O386 Gd341 2.324 . S
O386 C406 1.254 . S
O387 Gd340 2.429 1_455 S
O387 C406 1.268 . S
O388 Gd340 2.545 . S
O388 C396 1.250 . S
O389 Gd340 2.412 . S
O389 C399 1.252 . S
O390 Gd341 2.545 . S
O390 C408 1.258 . S
O391 Gd340 2.362 1_455 S
O391 Gd341 2.606 . S
O391 C407 1.284 . S
O392 Gd340 2.324 . S
O392 C415 1.254 . S
O393 Gd341 2.429 1_655 S
O393 C415 1.268 . S
O394 Gd341 2.545 . S
O394 C407 1.250 . S
O395 Gd341 2.412 . S
O395 C408 1.252 . S
C396 O385 1.284 1_655 S
C396 O388 1.250 . S
C397 H366 0.929 . S
C397 C382 1.437 . S
C397 C398 1.317 . S
C398 H369 0.930 . S
C398 C374 1.431 . S
C398 C397 1.317 . S
C399 Gd340 2.828 . S
C399 O384 1.258 . S
C399 O389 1.252 . S
C399 C400 1.497 . S
C400 C399 1.497 . S
C400 C401 1.395 1_556 S
C400 C402 1.380 . S
C401 C400 1.395 1_554 S
C401 C404 1.398 . S
C401 H416 0.930 . S
C402 C400 1.380 . S
C402 C403 1.391 1_556 S
C402 H417 0.930 . S
C403 C402 1.391 1_554 S
C403 C405 1.387 . S
C404 C401 1.398 . S
C404 C405 1.380 . S
C404 H418 0.930 . S
C405 C403 1.387 . S
C405 C404 1.380 . S
C405 H419 0.930 . S
C406 O386 1.254 . S
C406 O387 1.268 . S
C407 O391 1.284 . S
C407 O394 1.250 . S
C408 Gd341 2.828 . S
C408 O390 1.258 . S
C408 O395 1.252 . S
C408 C409 1.497 . S
C409 C408 1.497 . S
C409 C410 1.395 . S
C409 C411 1.380 . S
C410 C409 1.395 . S
C410 C413 1.398 . S
C410 H420 0.930 . S
C411 C409 1.380 . S
C411 C412 1.391 . S
C411 H421 0.930 . S
C412 C411 1.391 . S
C412 C414 1.387 . S
C413 C410 1.398 . S
C413 C414 1.380 . S
C413 H422 0.930 . S
C414 C412 1.387 . S
C414 C413 1.380 . S
C414 H423 0.930 . S
C415 O392 1.254 . S
C415 O393 1.268 . S
H416 C401 0.930 . S
H417 C402 0.930 . S
H418 C404 0.930 . S
H419 C405 0.930 . S
H420 C410 0.930 . S
H421 C411 0.930 . S
H422 C413 0.930 . S
H423 C414 0.930 . S
H424 C432 0.950 . S
H425 C437 0.950 . S
H426 C434 0.950 . S
H427 C436 0.950 . S
H428 C438 0.950 1_565 S
H429 C440 0.950 . S
H430 C442 0.950 . S
H431 C443 0.950 . S
C432 H424 0.950 . S
C432 C433 1.386 . S
C432 C434 1.391 . S
C433 C432 1.386 . S
C433 C437 1.393 . S
C434 H426 0.950 . S
C434 C432 1.391 . S
C434 C435 1.400 . S
C435 C434 1.400 . S
C435 C436 1.398 . S
C435 C441 1.491 . S
C436 H427 0.950 . S
C436 C435 1.398 . S
C436 C437 1.391 . S
C437 H425 0.950 . S
C437 C433 1.393 . S
C437 C436 1.391 . S
C438 H428 0.950 1_545 S
C438 C439 1.386 . S
C438 C440 1.391 . S
C439 C438 1.386 . S
C439 C443 1.393 . S
C440 H429 0.950 . S
C440 C438 1.391 . S
C440 C441 1.400 . S
C441 C435 1.491 . S
C441 C440 1.400 . S
C441 C442 1.398 . S
C442 H430 0.950 . S
C442 C441 1.398 . S
C442 C443 1.391 . S
C443 H431 0.950 . S
C443 C439 1.393 . S
C443 C442 1.391 . S
H444 C452 0.950 . S
H445 C457 0.950 . S
H446 C454 0.950 . S
H447 C456 0.950 . S
H448 C458 0.950 . S
H449 C460 0.950 . S
H450 C462 0.950 . S
H451 C463 0.950 . S
C452 H444 0.950 . S
C452 C453 1.386 . S
C452 C454 1.391 . S
C453 C452 1.386 . S
C453 C457 1.393 . S
C454 H446 0.950 . S
C454 C452 1.391 . S
C454 C455 1.400 . S
C455 C454 1.400 . S
C455 C456 1.398 . S
C455 C461 1.491 . S
C456 H447 0.950 . S
C456 C455 1.398 . S
C456 C457 1.391 . S
C457 H445 0.950 . S
C457 C453 1.393 . S
C457 C456 1.391 . S
C458 H448 0.950 . S
C458 C459 1.386 . S
C458 C460 1.391 . S
C459 C458 1.386 . S
C459 C463 1.393 . S
C460 H449 0.950 . S
C460 C458 1.391 . S
C460 C461 1.400 . S
C461 C455 1.491 . S
C461 C460 1.400 . S
C461 C462 1.398 . S
C462 H450 0.950 . S
C462 C461 1.398 . S
C462 C463 1.391 . S
C463 H451 0.950 . S
C463 C459 1.393 . S
C463 C462 1.391 . S
H464 C472 0.950 . S
H465 C477 0.950 . S
H466 C474 0.950 . S
H467 C476 0.950 . S
H468 C478 0.950 . S
H469 C480 0.950 . S
H470 C482 0.950 . S
H471 C483 0.950 . S
C472 H464 0.950 . S
C472 C473 1.386 . S
C472 C474 1.391 . S
C473 C472 1.386 . S
C473 C477 1.393 . S
C474 H466 0.950 . S
C474 C472 1.391 . S
C474 C475 1.400 . S
C475 C474 1.400 . S
C475 C476 1.398 . S
C475 C481 1.491 . S
C476 H467 0.950 . S
C476 C475 1.398 . S
C476 C477 1.391 . S
C477 H465 0.950 . S
C477 C473 1.393 . S
C477 C476 1.391 . S
C478 H468 0.950 . S
C478 C479 1.386 . S
C478 C480 1.391 . S
C479 C478 1.386 . S
C479 C483 1.393 . S
C480 H469 0.950 . S
C480 C478 1.391 . S
C480 C481 1.400 . S
C481 C475 1.491 . S
C481 C480 1.400 . S
C481 C482 1.398 . S
C482 H470 0.950 . S
C482 C481 1.398 . S
C482 C483 1.391 . S
C483 H471 0.950 . S
C483 C479 1.393 . S
C483 C482 1.391 . S
H484 C492 0.950 . S
H485 C497 0.950 . S
H486 C494 0.950 . S
H487 C496 0.950 . S
H488 C498 0.950 . S
H489 C500 0.950 . S
H490 C502 0.950 . S
H491 C503 0.950 . S
C492 H484 0.950 . S
C492 C493 1.386 . S
C492 C494 1.391 . S
C493 C492 1.386 . S
C493 C497 1.393 . S
C494 H486 0.950 . S
C494 C492 1.391 . S
C494 C495 1.400 . S
C495 C494 1.400 . S
C495 C496 1.398 . S
C495 C501 1.491 . S
C496 H487 0.950 . S
C496 C495 1.398 . S
C496 C497 1.391 . S
C497 H485 0.950 . S
C497 C493 1.393 . S
C497 C496 1.391 . S
C498 H488 0.950 . S
C498 C499 1.386 . S
C498 C500 1.391 . S
C499 C498 1.386 . S
C499 C503 1.393 . S
C500 H489 0.950 . S
C500 C498 1.391 . S
C500 C501 1.400 . S
C501 C495 1.491 . S
C501 C500 1.400 . S
C501 C502 1.398 . S
C502 H490 0.950 . S
C502 C501 1.398 . S
C502 C503 1.391 . S
C503 H491 0.950 . S
C503 C499 1.393 . S
C503 C502 1.391 . S
H504 C512 0.950 . S
H505 C517 0.950 1_545 S
H506 C514 0.950 . S
H507 C516 0.950 1_545 S
H508 C518 0.950 . S
H509 C520 0.950 . S
H510 C522 0.950 . S
H511 C523 0.950 . S
C512 H504 0.950 . S
C512 C513 1.386 . S
C512 C514 1.391 . S
C513 C512 1.386 . S
C513 C517 1.393 . S
C514 H506 0.950 . S
C514 C512 1.391 . S
C514 C515 1.400 . S
C515 C514 1.400 . S
C515 C516 1.398 . S
C515 C521 1.491 1_554 S
C516 H507 0.950 1_565 S
C516 C515 1.398 . S
C516 C517 1.391 . S
C517 H505 0.950 1_565 S
C517 C513 1.393 . S
C517 C516 1.391 . S
C518 H508 0.950 . S
C518 C519 1.386 1_545 S
C518 C520 1.391 . S
C519 C518 1.386 1_565 S
C519 C523 1.393 . S
C520 H509 0.950 . S
C520 C518 1.391 . S
C520 C521 1.400 1_545 S
C521 C515 1.491 1_556 S
C521 C520 1.400 1_565 S
C521 C522 1.398 . S
C522 H510 0.950 . S
C522 C521 1.398 . S
C522 C523 1.391 . S
C523 H511 0.950 . S
C523 C519 1.393 . S
C523 C522 1.391 . S
H524 C532 0.950 . S
H525 C537 0.950 . S
H526 C534 0.950 . S
H527 C536 0.950 1_556 S
H528 C538 0.950 . S
H529 C540 0.950 . S
H530 C542 0.950 1_554 S
H531 C543 0.950 . S
C532 H524 0.950 . S
C532 C533 1.386 . S
C532 C534 1.391 . S
C533 C532 1.386 . S
C533 C537 1.393 . S
C534 H526 0.950 . S
C534 C532 1.391 . S
C534 C535 1.400 . S
C535 C534 1.400 . S
C535 C536 1.398 . S
C535 C541 1.491 1_554 S
C536 H527 0.950 1_554 S
C536 C535 1.398 . S
C536 C537 1.391 . S
C537 H525 0.950 . S
C537 C533 1.393 . S
C537 C536 1.391 . S
C538 H528 0.950 . S
C538 C539 1.386 . S
C538 C540 1.391 . S
C539 C538 1.386 . S
C539 C543 1.393 . S
C540 H529 0.950 . S
C540 C538 1.391 . S
C540 C541 1.400 . S
C541 C535 1.491 1_556 S
C541 C540 1.400 . S
C541 C542 1.398 . S
C542 H530 0.950 1_556 S
C542 C541 1.398 . S
C542 C543 1.391 . S
C543 H531 0.950 . S
C543 C539 1.393 . S
C543 C542 1.391 . S
H544 C552 0.950 . S
H545 C557 0.950 . S
H546 C554 0.950 . S
H547 C556 0.950 1_556 S
H548 C558 0.950 . S
H549 C560 0.950 . S
H550 C562 0.950 . S
H551 C563 0.950 . S
C552 H544 0.950 . S
C552 C553 1.386 . S
C552 C554 1.391 . S
C553 C552 1.386 . S
C553 C557 1.393 . S
C554 H546 0.950 . S
C554 C552 1.391 . S
C554 C555 1.400 . S
C555 C554 1.400 . S
C555 C556 1.398 . S
C555 C561 1.491 1_554 S
C556 H547 0.950 1_554 S
C556 C555 1.398 . S
C556 C557 1.391 . S
C557 H545 0.950 . S
C557 C553 1.393 . S
C557 C556 1.391 . S
C558 H548 0.950 . S
C558 C559 1.386 . S
C558 C560 1.391 . S
C559 C558 1.386 . S
C559 C563 1.393 . S
C560 H549 0.950 . S
C560 C558 1.391 . S
C560 C561 1.400 . S
C561 C555 1.491 1_556 S
C561 C560 1.400 . S
C561 C562 1.398 . S
C562 H550 0.950 . S
C562 C561 1.398 . S
C562 C563 1.391 . S
C563 H551 0.950 . S
C563 C559 1.393 . S
C563 C562 1.391 . S
H564 C572 0.950 . S
H565 C577 0.950 . S
H566 C574 0.951 1_455 S
H567 C576 0.950 . S
H568 C578 0.950 . S
H569 C580 0.950 . S
H570 C582 0.950 1_455 S
H571 C583 0.950 . S
C572 H564 0.950 . S
C572 C573 1.386 . S
C572 C574 1.391 . S
C573 C572 1.386 . S
C573 C577 1.393 . S
C574 H566 0.951 1_655 S
C574 C572 1.391 . S
C574 C575 1.400 . S
C575 C574 1.400 . S
C575 C576 1.398 . S
C575 C581 1.491 1_554 S
C576 H567 0.950 . S
C576 C575 1.398 . S
C576 C577 1.391 . S
C577 H565 0.950 . S
C577 C573 1.393 . S
C577 C576 1.391 . S
C578 H568 0.950 . S
C578 C579 1.386 . S
C578 C580 1.391 . S
C579 C578 1.386 . S
C579 C583 1.393 1_655 S
C580 H569 0.950 . S
C580 C578 1.391 . S
C580 C581 1.400 . S
C581 C575 1.491 1_556 S
C581 C580 1.400 . S
C581 C582 1.398 . S
C582 H570 0.950 1_655 S
C582 C581 1.398 . S
C582 C583 1.391 1_655 S
C583 H571 0.950 . S
C583 C579 1.393 1_455 S
C583 C582 1.391 1_455 S
H584 C592 0.950 . S
H585 C597 0.950 . S
H586 C594 0.950 . S
H587 C596 0.950 . S
H588 C598 0.965 . S
H589 C600 0.950 . S
H590 C602 0.950 . S
H591 C603 0.950 . S
C592 H584 0.950 . S
C592 C593 1.386 . S
C592 C594 1.391 . S
C593 C592 1.386 . S
C593 C597 1.393 . S
C594 H586 0.950 . S
C594 C592 1.391 . S
C594 C595 1.400 . S
C595 C594 1.400 . S
C595 C596 1.398 . S
C595 C601 1.491 . S
C596 H587 0.950 . S
C596 C595 1.398 . S
C596 C597 1.391 . S
C597 H585 0.950 . S
C597 C593 1.393 . S
C597 C596 1.391 . S
C598 H588 0.965 . S
C598 C599 1.382 1_655 S
C598 C600 1.380 1_655 S
C599 C598 1.382 1_455 S
C599 C603 1.393 . S
C600 H589 0.950 . S
C600 C598 1.380 1_455 S
C600 C601 1.400 . S
C601 C595 1.491 . S
C601 C600 1.400 . S
C601 C602 1.398 . S
C602 H590 0.950 . S
C602 C601 1.398 . S
C602 C603 1.391 . S
C603 H591 0.950 . S
C603 C599 1.393 . S
C603 C602 1.391 . S
H604 C612 0.950 . S
H605 C617 0.950 . S
H606 C614 0.950 . S
H607 C616 0.950 . S
H608 C618 0.950 . S
H609 C620 0.950 1_565 S
H610 C622 0.950 . S
H611 C623 0.950 . S
C612 H604 0.950 . S
C612 C613 1.386 . S
C612 C614 1.391 . S
C613 C612 1.386 . S
C613 C617 1.393 . S
C614 H606 0.950 . S
C614 C612 1.391 . S
C614 C615 1.400 . S
C615 C614 1.400 . S
C615 C616 1.398 . S
C615 C621 1.491 . S
C616 H607 0.950 . S
C616 C615 1.398 . S
C616 C617 1.391 . S
C617 H605 0.950 . S
C617 C613 1.393 . S
C617 C616 1.391 . S
C618 H608 0.950 . S
C618 C619 1.386 1_565 S
C618 C620 1.391 1_565 S
C619 C618 1.386 1_545 S
C619 C623 1.393 . S
C620 H609 0.950 1_545 S
C620 C618 1.391 1_545 S
C620 C621 1.400 . S
C621 C615 1.491 . S
C621 C620 1.400 . S
C621 C622 1.398 . S
C622 H610 0.950 . S
C622 C621 1.398 . S
C622 C623 1.391 . S
C623 H611 0.950 . S
C623 C619 1.393 . S
C623 C622 1.391 . S
H624 C632 0.950 . S
H625 C637 0.950 . S
H626 C634 0.950 . S
H627 C636 0.950 . S
H628 C638 0.950 . S
H629 C640 0.950 . S
H630 C642 0.950 . S
H631 C643 0.950 . S
C632 H624 0.950 . S
C632 C633 1.386 . S
C632 C634 1.391 . S
C633 C632 1.386 . S
C633 C637 1.393 . S
C634 H626 0.950 . S
C634 C632 1.391 . S
C634 C635 1.400 . S
C635 C634 1.400 . S
C635 C636 1.398 . S
C635 C641 1.491 . S
C636 H627 0.950 . S
C636 C635 1.398 . S
C636 C637 1.391 . S
C637 H625 0.950 . S
C637 C633 1.393 . S
C637 C636 1.391 . S
C638 H628 0.950 . S
C638 C639 1.386 . S
C638 C640 1.391 . S
C639 C638 1.386 . S
C639 C643 1.393 . S
C640 H629 0.950 . S
C640 C638 1.391 . S
C640 C641 1.400 . S
C641 C635 1.491 . S
C641 C640 1.400 . S
C641 C642 1.398 . S
C642 H630 0.950 . S
C642 C641 1.398 . S
C642 C643 1.391 . S
C643 H631 0.950 . S
C643 C639 1.393 . S
C643 C642 1.391 . S
H644 C652 0.950 . S
H645 C657 0.950 . S
H646 C654 0.950 . S
H647 C656 0.950 . S
H648 C658 0.950 . S
H649 C660 0.950 . S
H650 C662 0.950 . S
H651 C663 0.950 . S
C652 H644 0.950 . S
C652 C653 1.386 . S
C652 C654 1.391 . S
C653 C652 1.386 . S
C653 C657 1.393 . S
C654 H646 0.950 . S
C654 C652 1.391 . S
C654 C655 1.400 . S
C655 C654 1.400 . S
C655 C656 1.398 . S
C655 C661 1.491 . S
C656 H647 0.950 . S
C656 C655 1.398 . S
C656 C657 1.391 . S
C657 H645 0.950 . S
C657 C653 1.393 . S
C657 C656 1.391 . S
C658 H648 0.950 . S
C658 C659 1.386 . S
C658 C660 1.391 . S
C659 C658 1.386 . S
C659 C663 1.393 . S
C660 H649 0.950 . S
C660 C658 1.391 . S
C660 C661 1.400 . S
C661 C655 1.491 . S
C661 C660 1.400 . S
C661 C662 1.398 . S
C662 H650 0.950 . S
C662 C661 1.398 . S
C662 C663 1.391 . S
C663 H651 0.950 . S
C663 C659 1.393 . S
C663 C662 1.391 . S
H664 C672 0.950 . S
H665 C677 0.950 . S
H666 C674 0.950 . S
H667 C676 0.950 . S
H668 C678 0.950 . S
H669 C680 0.950 1_556 S
H670 C682 0.950 . S
H671 C683 0.950 . S
C672 H664 0.950 . S
C672 C673 1.386 . S
C672 C674 1.391 . S
C673 C672 1.386 . S
C673 C677 1.393 . S
C674 H666 0.950 . S
C674 C672 1.391 . S
C674 C675 1.400 . S
C675 C674 1.400 . S
C675 C676 1.398 . S
C675 C681 1.491 . S
C676 H667 0.950 . S
C676 C675 1.398 . S
C676 C677 1.391 . S
C677 H665 0.950 . S
C677 C673 1.393 . S
C677 C676 1.391 . S
C678 H668 0.950 . S
C678 C679 1.386 . S
C678 C680 1.391 1_556 S
C679 C678 1.386 . S
C679 C683 1.393 1_456 S
C680 H669 0.950 1_554 S
C680 C678 1.391 1_554 S
C680 C681 1.400 1_455 S
C681 C675 1.491 . S
C681 C680 1.400 1_655 S
C681 C682 1.398 . S
C682 H670 0.950 . S
C682 C681 1.398 . S
C682 C683 1.391 . S
C683 H671 0.950 . S
C683 C679 1.393 1_654 S
C683 C682 1.391 . S
H684 C692 0.950 . S
H685 C697 0.950 . S
H686 C694 0.950 . S
H687 C696 0.950 1_545 S
H688 C698 0.950 1_556 S
H689 C700 0.950 . S
H690 C702 0.950 . S
H691 C703 0.950 . S
C692 H684 0.950 . S
C692 C693 1.386 . S
C692 C694 1.391 . S
C693 C692 1.386 . S
C693 C697 1.393 . S
C694 H686 0.950 . S
C694 C692 1.391 . S
C694 C695 1.400 . S
C695 C694 1.400 . S
C695 C696 1.398 . S
C695 C701 1.491 . S
C696 H687 0.950 1_565 S
C696 C695 1.398 . S
C696 C697 1.391 . S
C697 H685 0.950 . S
C697 C693 1.393 . S
C697 C696 1.391 . S
C698 H688 0.950 1_554 S
C698 C699 1.386 1_554 S
C698 C700 1.391 . S
C699 C698 1.386 1_556 S
C699 C703 1.393 1_545 S
C700 H689 0.950 . S
C700 C698 1.391 . S
C700 C701 1.400 1_545 S
C701 C695 1.491 . S
C701 C700 1.400 1_565 S
C701 C702 1.398 . S
C702 H690 0.950 . S
C702 C701 1.398 . S
C702 C703 1.391 1_554 S
C703 H691 0.950 . S
C703 C699 1.393 1_565 S
C703 C702 1.391 1_556 S
H704 C712 0.950 . S
H705 C717 0.950 . S
H706 C714 0.950 . S
H707 C716 0.950 . S
H708 C718 0.950 . S
H709 C720 0.948 1_556 S
H710 C722 0.950 . S
H711 C723 0.950 . S
C712 H704 0.950 . S
C712 C713 1.386 . S
C712 C714 1.391 . S
C713 C712 1.386 . S
C713 C717 1.393 . S
C714 H706 0.950 . S
C714 C712 1.391 . S
C714 C715 1.400 . S
C715 C714 1.400 . S
C715 C716 1.398 . S
C715 C721 1.491 . S
C716 H707 0.950 . S
C716 C715 1.398 . S
C716 C717 1.391 . S
C717 H705 0.950 . S
C717 C713 1.393 . S
C717 C716 1.391 . S
C718 H708 0.950 . S
C718 C719 1.386 . S
C718 C720 1.390 1_556 S
C719 C718 1.386 . S
C719 C723 1.393 1_556 S
C720 H709 0.948 1_554 S
C720 C718 1.390 1_554 S
C720 C721 1.403 . S
C721 C715 1.491 . S
C721 C720 1.403 . S
C721 C722 1.398 . S
C722 H710 0.950 . S
C722 C721 1.398 . S
C722 C723 1.391 . S
C723 H711 0.950 . S
C723 C719 1.393 1_554 S
C723 C722 1.391 . S
H724 C732 0.950 . S
H725 C737 0.950 . S
H726 C734 0.950 . S
H727 C736 0.950 . S
H728 C738 0.950 . S
H729 C740 0.950 . S
H730 C742 0.950 . S
H731 C743 0.950 . S
C732 H724 0.950 . S
C732 C733 1.386 . S
C732 C734 1.391 . S
C733 C732 1.386 . S
C733 C737 1.393 . S
C734 H726 0.950 . S
C734 C732 1.391 . S
C734 C735 1.400 . S
C735 C734 1.400 . S
C735 C736 1.398 . S
C735 C741 1.491 . S
C736 H727 0.950 . S
C736 C735 1.398 . S
C736 C737 1.391 . S
C737 H725 0.950 . S
C737 C733 1.393 . S
C737 C736 1.391 . S
C738 H728 0.950 . S
C738 C739 1.386 . S
C738 C740 1.391 . S
C739 C738 1.386 . S
C739 C743 1.393 1_556 S
C740 H729 0.950 . S
C740 C738 1.391 . S
C740 C741 1.400 1_556 S
C741 C735 1.491 . S
C741 C740 1.400 1_554 S
C741 C742 1.398 . S
C742 H730 0.950 . S
C742 C741 1.398 . S
C742 C743 1.391 . S
C743 H731 0.950 . S
C743 C739 1.393 1_554 S
C743 C742 1.391 . S
H744 C752 0.950 . S
H745 C757 0.950 . S
H746 C754 0.950 . S
H747 C756 0.950 . S
H748 C758 0.950 . S
H749 C760 0.950 . S
H750 C762 0.950 . S
H751 C763 0.950 . S
C752 H744 0.950 . S
C752 C753 1.386 . S
C752 C754 1.391 . S
C753 C752 1.386 . S
C753 C757 1.393 . S
C754 H746 0.950 . S
C754 C752 1.391 . S
C754 C755 1.400 . S
C755 C754 1.400 . S
C755 C756 1.398 . S
C755 C761 1.491 . S
C756 H747 0.950 . S
C756 C755 1.398 . S
C756 C757 1.391 . S
C757 H745 0.950 . S
C757 C753 1.393 . S
C757 C756 1.391 . S
C758 H748 0.950 . S
C758 C759 1.386 . S
C758 C760 1.391 . S
C759 C758 1.386 . S
C759 C763 1.393 . S
C760 H749 0.950 . S
C760 C758 1.391 . S
C760 C761 1.400 . S
C761 C755 1.491 . S
C761 C760 1.400 . S
C761 C762 1.398 . S
C762 H750 0.950 . S
C762 C761 1.398 . S
C762 C763 1.391 . S
C763 H751 0.950 . S
C763 C759 1.393 . S
C763 C762 1.391 . S
H764 C772 0.950 . S
H765 C777 0.950 . S
H766 C774 0.950 . S
H767 C776 0.950 . S
H768 C778 0.950 . S
H769 C780 0.950 . S
H770 C782 0.950 . S
H771 C783 0.950 . S
C772 H764 0.950 . S
C772 C773 1.386 . S
C772 C774 1.391 . S
C773 C772 1.386 . S
C773 C777 1.393 . S
C774 H766 0.950 . S
C774 C772 1.391 . S
C774 C775 1.400 . S
C775 C774 1.400 . S
C775 C776 1.398 . S
C775 C781 1.491 . S
C776 H767 0.950 . S
C776 C775 1.398 . S
C776 C777 1.391 . S
C777 H765 0.950 . S
C777 C773 1.393 . S
C777 C776 1.391 . S
C778 H768 0.950 . S
C778 C779 1.386 . S
C778 C780 1.391 . S
C779 C778 1.386 . S
C779 C783 1.393 . S
C780 H769 0.950 . S
C780 C778 1.391 . S
C780 C781 1.400 . S
C781 C775 1.491 . S
C781 C780 1.400 . S
C781 C782 1.398 . S
C782 H770 0.950 . S
C782 C781 1.398 . S
C782 C783 1.391 . S
C783 H771 0.950 . S
C783 C779 1.393 . S
C783 C782 1.391 . S
H784 C792 0.950 . S
H785 C797 0.950 . S
H786 C794 0.950 . S
H787 C796 0.950 . S
H788 C798 0.950 . S
H789 C800 0.950 . S
H790 C802 0.950 . S
H791 C803 0.950 . S
C792 H784 0.950 . S
C792 C793 1.386 . S
C792 C794 1.391 . S
C793 C792 1.386 . S
C793 C797 1.393 . S
C794 H786 0.950 . S
C794 C792 1.391 . S
C794 C795 1.400 . S
C795 C794 1.400 . S
C795 C796 1.398 . S
C795 C801 1.491 . S
C796 H787 0.950 . S
C796 C795 1.398 . S
C796 C797 1.391 . S
C797 H785 0.950 . S
C797 C793 1.393 . S
C797 C796 1.391 . S
C798 H788 0.950 . S
C798 C799 1.386 . S
C798 C800 1.391 . S
C799 C798 1.386 . S
C799 C803 1.393 . S
C800 H789 0.950 . S
C800 C798 1.391 . S
C800 C801 1.400 . S
C801 C795 1.491 . S
C801 C800 1.400 . S
C801 C802 1.398 . S
C802 H790 0.950 . S
C802 C801 1.398 . S
C802 C803 1.391 . S
C803 H791 0.950 . S
C803 C799 1.393 . S
C803 C802 1.391 . S
H804 C812 0.950 . S
H805 C817 0.950 . S
H806 C814 0.950 . S
H807 C816 0.950 . S
H808 C818 0.950 . S
H809 C820 0.950 . S
H810 C822 0.950 . S
H811 C823 0.950 . S
C812 H804 0.950 . S
C812 C813 1.386 . S
C812 C814 1.391 . S
C813 C812 1.386 . S
C813 C817 1.393 . S
C814 H806 0.950 . S
C814 C812 1.391 . S
C814 C815 1.400 . S
C815 C814 1.400 . S
C815 C816 1.398 . S
C815 C821 1.491 . S
C816 H807 0.950 . S
C816 C815 1.398 . S
C816 C817 1.391 . S
C817 H805 0.950 . S
C817 C813 1.393 . S
C817 C816 1.391 . S
C818 H808 0.950 . S
C818 C819 1.386 . S
C818 C820 1.391 . S
C819 C818 1.386 . S
C819 C823 1.393 . S
C820 H809 0.950 . S
C820 C818 1.391 . S
C820 C821 1.400 . S
C821 C815 1.491 . S
C821 C820 1.400 . S
C821 C822 1.398 . S
C822 H810 0.950 . S
C822 C821 1.398 . S
C822 C823 1.391 . S
C823 H811 0.950 . S
C823 C819 1.393 . S
C823 C822 1.391 . S
H824 C832 0.950 . S
H825 C837 0.950 . S
H826 C834 0.950 . S
H827 C836 0.950 . S
H828 C838 0.950 1_455 S
H829 C840 0.950 . S
H830 C842 0.950 . S
H831 C843 0.950 . S
C832 H824 0.950 . S
C832 C833 1.386 . S
C832 C834 1.391 . S
C833 C832 1.386 . S
C833 C837 1.393 . S
C834 H826 0.950 . S
C834 C832 1.391 . S
C834 C835 1.400 . S
C835 C834 1.400 . S
C835 C836 1.398 . S
C835 C841 1.491 . S
C836 H827 0.950 . S
C836 C835 1.398 . S
C836 C837 1.391 . S
C837 H825 0.950 . S
C837 C833 1.393 . S
C837 C836 1.391 . S
C838 H828 0.950 1_655 S
C838 C839 1.386 . S
C838 C840 1.391 . S
C839 C838 1.386 . S
C839 C843 1.393 . S
C840 H829 0.950 . S
C840 C838 1.391 . S
C840 C841 1.400 . S
C841 C835 1.491 . S
C841 C840 1.400 . S
C841 C842 1.398 . S
C842 H830 0.950 . S
C842 C841 1.398 . S
C842 C843 1.391 . S
C843 H831 0.950 . S
C843 C839 1.393 . S
C843 C842 1.391 . S
H844 C852 0.950 1_545 S
H845 C857 0.950 . S
H846 C854 0.950 1_545 S
H847 C856 0.950 . S
H848 C858 0.950 . S
H849 C860 0.950 . S
H850 C862 0.950 . S
H851 C863 0.950 . S
C852 H844 0.950 1_565 S
C852 C853 1.386 . S
C852 C854 1.391 . S
C853 C852 1.386 . S
C853 C857 1.393 . S
C854 H846 0.950 1_565 S
C854 C852 1.391 . S
C854 C855 1.400 . S
C855 C854 1.400 . S
C855 C856 1.398 . S
C855 C861 1.491 . S
C856 H847 0.950 . S
C856 C855 1.398 . S
C856 C857 1.391 . S
C857 H845 0.950 . S
C857 C853 1.393 . S
C857 C856 1.391 . S
C858 H848 0.950 . S
C858 C859 1.386 . S
C858 C860 1.391 . S
C859 C858 1.386 . S
C859 C863 1.393 1_565 S
C860 H849 0.950 . S
C860 C858 1.391 . S
C860 C861 1.400 . S
C861 C855 1.491 . S
C861 C860 1.400 . S
C861 C862 1.398 1_565 S
C862 H850 0.950 . S
C862 C861 1.398 1_545 S
C862 C863 1.391 . S
C863 H851 0.950 . S
C863 C859 1.393 1_545 S
C863 C862 1.391 . S
H864 C872 0.950 . S
H865 C877 0.950 . S
H866 C874 0.950 . S
H867 C876 0.950 . S
H868 C878 0.950 . S
H869 C880 0.950 . S
H870 C882 0.950 . S
H871 C883 0.950 . S
C872 H864 0.950 . S
C872 C873 1.386 . S
C872 C874 1.391 . S
C873 C872 1.386 . S
C873 C877 1.393 . S
C874 H866 0.950 . S
C874 C872 1.391 . S
C874 C875 1.400 . S
C875 C874 1.400 . S
C875 C876 1.398 . S
C875 C881 1.491 . S
C876 H867 0.950 . S
C876 C875 1.398 . S
C876 C877 1.391 . S
C877 H865 0.950 . S
C877 C873 1.393 . S
C877 C876 1.391 . S
C878 H868 0.950 . S
C878 C879 1.386 . S
C878 C880 1.391 . S
C879 C878 1.386 . S
C879 C883 1.393 . S
C880 H869 0.950 . S
C880 C878 1.391 . S
C880 C881 1.400 . S
C881 C875 1.491 . S
C881 C880 1.400 . S
C881 C882 1.398 . S
C882 H870 0.950 . S
C882 C881 1.398 . S
C882 C883 1.391 . S
C883 H871 0.950 . S
C883 C879 1.393 . S
C883 C882 1.391 . S
H884 C892 0.950 . S
H885 C897 0.950 . S
H886 C894 0.950 . S
H887 C896 0.950 . S
H888 C898 0.950 . S
H889 C900 0.950 . S
H890 C902 0.950 . S
H891 C903 0.950 . S
C892 H884 0.950 . S
C892 C893 1.386 . S
C892 C894 1.391 . S
C893 C892 1.386 . S
C893 C897 1.393 . S
C894 H886 0.950 . S
C894 C892 1.391 . S
C894 C895 1.400 . S
C895 C894 1.400 . S
C895 C896 1.398 . S
C895 C901 1.491 . S
C896 H887 0.950 . S
C896 C895 1.398 . S
C896 C897 1.391 . S
C897 H885 0.950 . S
C897 C893 1.393 . S
C897 C896 1.391 . S
C898 H888 0.950 . S
C898 C899 1.386 . S
C898 C900 1.391 . S
C899 C898 1.386 . S
C899 C903 1.393 . S
C900 H889 0.950 . S
C900 C898 1.391 . S
C900 C901 1.400 . S
C901 C895 1.491 . S
C901 C900 1.400 . S
C901 C902 1.398 . S
C902 H890 0.950 . S
C902 C901 1.398 . S
C902 C903 1.391 . S
C903 H891 0.950 . S
C903 C899 1.393 . S
C903 C902 1.391 . S
C433 C76 1.866 . S
C439 C163 1.940 . S
C459 C247 1.939 . S
C453 C87 1.862 . S
C479 C323 1.921 . S
C473 C54 1.965 . S
C499 C407 1.912 . S
C493 C65 1.957 . S
C519 C154 1.920 1_565 S
C513 C32 1.851 . S
C533 C43 1.884 . S
C539 C238 1.941 . S
C553 C10 1.988 . S
C559 C312 1.936 . S
C573 C21 1.970 . S
C579 C396 1.918 . S
C599 C151 0.614 1_455 S
C593 C60 0.670 . S
C619 C235 0.623 1_545 S
C613 C71 0.624 . S
C639 C328 0.614 . S
C633 C82 0.566 . S
C653 C49 0.635 . S
C659 C412 0.590 . S
C673 C16 0.613 . S
C679 C160 0.665 . S
C699 C244 0.625 . S
C693 C27 0.588 . S
C719 C319 0.614 1_556 S
C713 C38 0.563 . S
C733 C5 0.603 . S
C739 C403 0.624 1_556 S
C753 C59 1.990 . S
C759 C144 2.050 . S
C773 C70 1.968 . S
C779 C228 2.023 . S
C799 C322 2.055 . S
C793 C81 1.887 . S
C819 C406 2.081 . S
C813 C48 1.918 . S
C833 C15 2.004 . S
C839 C155 2.065 . S
C859 C239 2.025 . S
C853 C26 1.948 . S
C879 C331 2.062 . S
C873 C37 1.858 . S
C893 C4 1.883 . S
C899 C415 2.093 . S
