# Generated by pormake.
# Topology ctn, (3,4)-cn, num edge types: 1
# Building blocks:
#     Node 0, Type 0, BuildingBlock: CUQRIR_clean_linker_1, # of connection points: 3
#     Node 1, Type 0, BuildingBlock: CUQRIR_clean_linker_1, # of connection points: 3
#     Node 2, Type 0, BuildingBlock: CUQRIR_clean_linker_1, # of connection points: 3
#     Node 3, Type 0, BuildingBlock: CUQRIR_clean_linker_1, # of connection points: 3
#     Node 4, Type 0, BuildingBlock: CUQRIR_clean_linker_1, # of connection points: 3
#     Node 5, Type 0, BuildingBlock: CUQRIR_clean_linker_1, # of connection points: 3
#     Node 6, Type 0, BuildingBlock: CUQRIR_clean_linker_1, # of connection points: 3
#     Node 7, Type 0, BuildingBlock: CUQRIR_clean_linker_1, # of connection points: 3
#     Node 8, Type 0, BuildingBlock: CUQRIR_clean_linker_1, # of connection points: 3
#     Node 9, Type 0, BuildingBlock: CUQRIR_clean_linker_1, # of connection points: 3
#     Node 10, Type 0, BuildingBlock: CUQRIR_clean_linker_1, # of connection points: 3
#     Node 11, Type 0, BuildingBlock: CUQRIR_clean_linker_1, # of connection points: 3
#     Node 12, Type 0, BuildingBlock: CUQRIR_clean_linker_1, # of connection points: 3
#     Node 13, Type 0, BuildingBlock: CUQRIR_clean_linker_1, # of connection points: 3
#     Node 14, Type 0, BuildingBlock: CUQRIR_clean_linker_1, # of connection points: 3
#     Node 15, Type 0, BuildingBlock: CUQRIR_clean_linker_1, # of connection points: 3
#     Node 16, Type 1, BuildingBlock: KUFVIS_clean_sbu_0, # of connection points: 4
#     Node 17, Type 1, BuildingBlock: KUFVIS_clean_sbu_0, # of connection points: 4
#     Node 18, Type 1, BuildingBlock: KUFVIS_clean_sbu_0, # of connection points: 4
#     Node 19, Type 1, BuildingBlock: KUFVIS_clean_sbu_0, # of connection points: 4
#     Node 20, Type 1, BuildingBlock: KUFVIS_clean_sbu_0, # of connection points: 4
#     Node 21, Type 1, BuildingBlock: KUFVIS_clean_sbu_0, # of connection points: 4
#     Node 22, Type 1, BuildingBlock: KUFVIS_clean_sbu_0, # of connection points: 4
#     Node 23, Type 1, BuildingBlock: KUFVIS_clean_sbu_0, # of connection points: 4
#     Node 24, Type 1, BuildingBlock: KUFVIS_clean_sbu_0, # of connection points: 4
#     Node 25, Type 1, BuildingBlock: KUFVIS_clean_sbu_0, # of connection points: 4
#     Node 26, Type 1, BuildingBlock: KUFVIS_clean_sbu_0, # of connection points: 4
#     Node 27, Type 1, BuildingBlock: KUFVIS_clean_sbu_0, # of connection points: 4
#     Edge 28, Type (0, 1), BuildingBlock: ZUJKAS_clean_linker_0, # of connection points: 2
#     Edge 29, Type (0, 1), BuildingBlock: ZUJKAS_clean_linker_0, # of connection points: 2
#     Edge 30, Type (0, 1), BuildingBlock: ZUJKAS_clean_linker_0, # of connection points: 2
#     Edge 31, Type (0, 1), BuildingBlock: ZUJKAS_clean_linker_0, # of connection points: 2
#     Edge 32, Type (0, 1), BuildingBlock: ZUJKAS_clean_linker_0, # of connection points: 2
#     Edge 33, Type (0, 1), BuildingBlock: ZUJKAS_clean_linker_0, # of connection points: 2
#     Edge 34, Type (0, 1), BuildingBlock: ZUJKAS_clean_linker_0, # of connection points: 2
#     Edge 35, Type (0, 1), BuildingBlock: ZUJKAS_clean_linker_0, # of connection points: 2
#     Edge 36, Type (0, 1), BuildingBlock: ZUJKAS_clean_linker_0, # of connection points: 2
#     Edge 37, Type (0, 1), BuildingBlock: ZUJKAS_clean_linker_0, # of connection points: 2
#     Edge 38, Type (0, 1), BuildingBlock: ZUJKAS_clean_linker_0, # of connection points: 2
#     Edge 39, Type (0, 1), BuildingBlock: ZUJKAS_clean_linker_0, # of connection points: 2
#     Edge 40, Type (0, 1), BuildingBlock: ZUJKAS_clean_linker_0, # of connection points: 2
#     Edge 41, Type (0, 1), BuildingBlock: ZUJKAS_clean_linker_0, # of connection points: 2
#     Edge 42, Type (0, 1), BuildingBlock: ZUJKAS_clean_linker_0, # of connection points: 2
#     Edge 43, Type (0, 1), BuildingBlock: ZUJKAS_clean_linker_0, # of connection points: 2
#     Edge 44, Type (0, 1), BuildingBlock: ZUJKAS_clean_linker_0, # of connection points: 2
#     Edge 45, Type (0, 1), BuildingBlock: ZUJKAS_clean_linker_0, # of connection points: 2
#     Edge 46, Type (0, 1), BuildingBlock: ZUJKAS_clean_linker_0, # of connection points: 2
#     Edge 47, Type (0, 1), BuildingBlock: ZUJKAS_clean_linker_0, # of connection points: 2
#     Edge 48, Type (0, 1), BuildingBlock: ZUJKAS_clean_linker_0, # of connection points: 2
#     Edge 49, Type (0, 1), BuildingBlock: ZUJKAS_clean_linker_0, # of connection points: 2
#     Edge 50, Type (0, 1), BuildingBlock: ZUJKAS_clean_linker_0, # of connection points: 2
#     Edge 51, Type (0, 1), BuildingBlock: ZUJKAS_clean_linker_0, # of connection points: 2
#     Edge 52, Type (0, 1), BuildingBlock: ZUJKAS_clean_linker_0, # of connection points: 2
#     Edge 53, Type (0, 1), BuildingBlock: ZUJKAS_clean_linker_0, # of connection points: 2
#     Edge 54, Type (0, 1), BuildingBlock: ZUJKAS_clean_linker_0, # of connection points: 2
#     Edge 55, Type (0, 1), BuildingBlock: ZUJKAS_clean_linker_0, # of connection points: 2
#     Edge 56, Type (0, 1), BuildingBlock: ZUJKAS_clean_linker_0, # of connection points: 2
#     Edge 57, Type (0, 1), BuildingBlock: ZUJKAS_clean_linker_0, # of connection points: 2
#     Edge 58, Type (0, 1), BuildingBlock: ZUJKAS_clean_linker_0, # of connection points: 2
#     Edge 59, Type (0, 1), BuildingBlock: ZUJKAS_clean_linker_0, # of connection points: 2
#     Edge 60, Type (0, 1), BuildingBlock: ZUJKAS_clean_linker_0, # of connection points: 2
#     Edge 61, Type (0, 1), BuildingBlock: ZUJKAS_clean_linker_0, # of connection points: 2
#     Edge 62, Type (0, 1), BuildingBlock: ZUJKAS_clean_linker_0, # of connection points: 2
#     Edge 63, Type (0, 1), BuildingBlock: ZUJKAS_clean_linker_0, # of connection points: 2
#     Edge 64, Type (0, 1), BuildingBlock: ZUJKAS_clean_linker_0, # of connection points: 2
#     Edge 65, Type (0, 1), BuildingBlock: ZUJKAS_clean_linker_0, # of connection points: 2
#     Edge 66, Type (0, 1), BuildingBlock: ZUJKAS_clean_linker_0, # of connection points: 2
#     Edge 67, Type (0, 1), BuildingBlock: ZUJKAS_clean_linker_0, # of connection points: 2
#     Edge 68, Type (0, 1), BuildingBlock: ZUJKAS_clean_linker_0, # of connection points: 2
#     Edge 69, Type (0, 1), BuildingBlock: ZUJKAS_clean_linker_0, # of connection points: 2
#     Edge 70, Type (0, 1), BuildingBlock: ZUJKAS_clean_linker_0, # of connection points: 2
#     Edge 71, Type (0, 1), BuildingBlock: ZUJKAS_clean_linker_0, # of connection points: 2
#     Edge 72, Type (0, 1), BuildingBlock: ZUJKAS_clean_linker_0, # of connection points: 2
#     Edge 73, Type (0, 1), BuildingBlock: ZUJKAS_clean_linker_0, # of connection points: 2
#     Edge 74, Type (0, 1), BuildingBlock: ZUJKAS_clean_linker_0, # of connection points: 2
#     Edge 75, Type (0, 1), BuildingBlock: ZUJKAS_clean_linker_0, # of connection points: 2
# Relax obj value: 0.090
# Max RMSD: 0.207
# Mean RMSD: 0.138
data_MOF--net-ctn--node1-KUFVIS_clean_sbu_0--node2-CUQRIR_clean_linker_1--edge1-ZUJKAS_clean_linker_0
_symmetry_space_group_name_H-M    P1
_symmetry_Int_Tables_number       1
_symmetry_cell_setting            triclinic
loop_
_symmetry_equiv_pos_as_xyz
'x, y, z'
_cell_length_a     67.797492
_cell_length_b     63.092633
_cell_length_c     65.117409
_cell_angle_alpha  96.989399
_cell_angle_beta   89.296093
_cell_angle_gamma 93.781842
loop_
_atom_site_label
_atom_site_type_symbol
_atom_site_fract_x
_atom_site_fract_y
_atom_site_fract_z
_atom_type_partial_charge
C0 C 0.05202 0.02622 0.08087 0.0
N1 N 0.06018 0.03434 0.06413 0.0
N2 N 0.03818 0.03895 0.08974 0.0
C3 C 0.05863 1.00685 0.08961 0.0
C4 C 0.0383 0.0552 0.07796 0.0
N5 N 0.05182 0.05254 0.06255 0.0
C6 C 0.02445 0.07303 0.08082 0.0
H7 H 0.05073 0.99231 0.08151 0.0
H8 H 0.05523 1.00761 0.10638 0.0
H9 H 0.07475 1.00542 0.08726 0.0
H10 H 0.03185 0.08693 0.09048 0.0
H11 H 0.01062 0.06807 0.08873 0.0
H12 H 0.02072 0.07821 0.06574 0.0
C13 C 0.32001 0.71969 0.20245 0.0
N14 N 0.32638 0.71029 0.21859 0.0
N15 N 0.33013 0.73875 0.20139 0.0
C16 C 0.30253 0.7114 0.18908 0.0
C17 C 0.34271 0.74079 0.21759 0.0
N18 N 0.34033 0.72355 0.2282 0.0
C19 C 0.358 0.75907 0.22226 0.0
H20 H 0.2958 0.7245 0.1823 0.0
H21 H 0.29106 0.70315 0.19812 0.0
H22 H 0.30752 0.6997 0.17628 0.0
H23 H 0.35179 0.77146 0.23362 0.0
H24 H 0.36212 0.76644 0.20806 0.0
H25 H 0.37144 0.75359 0.229 0.0
C26 C 0.98011 0.50365 0.07372 0.0
N27 N 0.99224 0.4875 0.07458 0.0
N28 N 0.96939 0.50048 0.05608 0.0
C29 C 0.97867 0.52252 0.09006 0.0
C30 C 0.9755 0.48195 0.04615 0.0
N31 N 0.98961 0.47423 0.05721 0.0
C32 C 0.96727 0.47095 0.02597 0.0
H33 H 0.96824 0.518 0.10229 0.0
H34 H 0.97304 0.5364 0.08358 0.0
H35 H 0.9933 0.52729 0.09726 0.0
H36 H 0.95433 0.47876 0.02084 0.0
H37 H 0.963 0.45392 0.0275 0.0
H38 H 0.97892 0.47126 0.01387 0.0
C39 C 0.68416 0.80282 0.22431 0.0
N40 N 0.69982 0.81164 0.21448 0.0
N41 N 0.67718 0.81723 0.2393 0.0
C42 C 0.67483 0.78064 0.21844 0.0
C43 C 0.68907 0.83515 0.23821 0.0
N44 N 0.70268 0.83183 0.22297 0.0
C45 C 0.68844 0.85528 0.25316 0.0
H46 H 0.65904 0.77964 0.22313 0.0
H47 H 0.68271 0.76917 0.22644 0.0
H48 H 0.67597 0.7759 0.20151 0.0
H49 H 0.68155 0.85197 0.26807 0.0
H50 H 0.67954 0.86675 0.24629 0.0
H51 H 0.70351 0.86289 0.25615 0.0
C52 C 0.03984 0.98056 0.49585 0.0
N53 N 0.05556 0.98334 0.50879 0.0
N54 N 0.0408 0.99551 0.48257 0.0
C55 C 0.02296 0.964 0.49698 0.0
C56 C 0.05767 1.00749 0.48785 0.0
N57 N 0.06656 1.00035 0.50406 0.0
C58 C 0.06646 0.02465 0.47565 0.0
H59 H 0.02666 0.94898 0.48745 0.0
H60 H 0.00914 0.96939 0.49095 0.0
H61 H 0.02044 0.96051 0.51314 0.0
H62 H 0.06155 0.0404 0.48255 0.0
H63 H 0.06148 0.02182 0.45932 0.0
H64 H 0.08285 0.02526 0.4759 0.0
C65 C 0.18598 0.70591 0.82494 0.0
N66 N 0.20176 0.69914 0.83423 0.0
N67 N 0.18381 0.69575 0.80549 0.0
C68 C 0.17386 0.72393 0.83413 0.0
C69 C 0.19904 0.68279 0.80315 0.0
N70 N 0.21009 0.68499 0.8206 0.0
C71 C 0.20236 0.6671 0.78433 0.0
H72 H 0.1617 0.71732 0.84352 0.0
H73 H 0.16731 0.73203 0.8219 0.0
H74 H 0.18298 0.73597 0.8444 0.0
H75 H 0.21309 0.67459 0.77393 0.0
H76 H 0.18838 0.66261 0.77574 0.0
H77 H 0.20858 0.65246 0.78872 0.0
C78 C 0.97522 0.53726 0.47919 0.0
N79 N 0.98961 0.55291 0.47726 0.0
N80 N 0.96489 0.54158 0.49696 0.0
C81 C 0.97197 0.51702 0.4645 0.0
C82 C 0.97355 0.56031 0.5059 0.0
N83 N 0.98872 0.56707 0.49407 0.0
C84 C 0.96609 0.57293 0.52523 0.0
H85 H 0.96155 0.51975 0.45223 0.0
H86 H 0.96541 0.50382 0.47272 0.0
H87 H 0.98607 0.51217 0.45711 0.0
H88 H 0.97393 0.56842 0.53876 0.0
H89 H 0.95 0.56942 0.52739 0.0
H90 H 0.969 0.59038 0.52481 0.0
C91 C 0.80526 0.82838 0.84238 0.0
N92 N 0.82182 0.81746 0.83924 0.0
N93 N 0.80659 0.84607 0.83247 0.0
C94 C 0.78829 0.82255 0.85619 0.0
C95 C 0.82461 0.84564 0.82329 0.0
N96 N 0.83402 0.8284 0.82762 0.0
C97 C 0.83225 0.86099 0.8086 0.0
H98 H 0.77783 0.81081 0.84719 0.0
H99 H 0.78026 0.83683 0.86207 0.0
H100 H 0.79361 0.81511 0.86951 0.0
H101 H 0.84219 0.87363 0.81716 0.0
H102 H 0.82 0.8687 0.80192 0.0
H103 H 0.84085 0.85266 0.79582 0.0
C104 C 0.3071 0.33598 0.34584 0.0
N105 N 0.32305 0.32405 0.34279 0.0
N106 N 0.30916 0.35327 0.3354 0.0
C107 C 0.29001 0.33149 0.36 0.0
C108 C 0.32698 0.35155 0.32595 0.0
N109 N 0.3356 0.33395 0.33066 0.0
C110 C 0.33502 0.36588 0.3105 0.0
H111 H 0.27896 0.32015 0.35136 0.0
H112 H 0.28275 0.34638 0.36561 0.0
H113 H 0.29502 0.3241 0.37348 0.0
H114 H 0.34572 0.37818 0.31839 0.0
H115 H 0.32308 0.37409 0.30385 0.0
H116 H 0.34286 0.35658 0.29771 0.0
C117 C 0.47798 1.00645 0.576 0.0
N118 N 0.49017 0.99028 0.57641 0.0
N119 N 0.467 1.00357 0.5585 0.0
C120 C 0.47793 0.02596 0.59179 0.0
C121 C 0.47305 0.98515 0.5482 0.0
N122 N 0.4873 0.97722 0.55893 0.0
C123 C 0.46383 0.97391 0.52857 0.0
H124 H 0.46744 0.0227 0.6044 0.0
H125 H 0.47317 0.03994 0.58477 0.0
H126 H 0.49284 0.02994 0.5986 0.0
H127 H 0.47249 0.97877 0.51516 0.0
H128 H 0.44836 0.9782 0.52704 0.0
H129 H 0.46398 0.95628 0.52812 0.0
C130 C 0.17784 0.30411 0.72315 0.0
N131 N 0.19512 0.31161 0.71514 0.0
N132 N 0.17483 0.31423 0.74239 0.0
C133 C 0.16483 0.28561 0.71305 0.0
C134 C 0.19088 0.32805 0.74586 0.0
N135 N 0.2033 0.32632 0.7294 0.0
C136 C 0.19384 0.34408 0.76483 0.0
H137 H 0.15424 0.29174 0.7027 0.0
H138 H 0.15628 0.2774 0.72476 0.0
H139 H 0.17374 0.27387 0.70361 0.0
H140 H 0.20281 0.33716 0.77618 0.0
H141 H 0.17947 0.34806 0.77216 0.0
H142 H 0.20184 0.35899 0.76092 0.0
C143 C 0.81062 0.22389 0.71377 0.0
N144 N 0.81762 0.21325 0.72868 0.0
N145 N 0.82265 0.24142 0.71121 0.0
C146 C 0.79099 0.21822 0.70322 0.0
C147 C 0.8371 0.24114 0.72542 0.0
N148 N 0.83391 0.22413 0.73621 0.0
C149 C 0.85526 0.25629 0.72748 0.0
H150 H 0.79319 0.2071 0.68894 0.0
H151 H 0.78437 0.2327 0.69899 0.0
H152 H 0.78047 0.21008 0.71337 0.0
H153 H 0.8524 0.2701 0.73913 0.0
H154 H 0.85904 0.26235 0.71253 0.0
H155 H 0.86806 0.24831 0.73274 0.0
C156 C 0.55413 0.53351 0.58058 0.0
N157 N 0.56109 0.54053 0.56284 0.0
N158 N 0.53753 0.54324 0.58699 0.0
C159 C 0.56333 0.51694 0.59152 0.0
C160 C 0.53462 0.55634 0.57247 0.0
N161 N 0.54889 0.55464 0.55776 0.0
C162 C 0.51838 0.57157 0.57315 0.0
H163 H 0.55179 0.50713 0.59896 0.0
H164 H 0.5733 0.52521 0.60377 0.0
H165 H 0.57222 0.50627 0.58086 0.0
H166 H 0.51329 0.57604 0.58926 0.0
H167 H 0.5057 0.56371 0.56391 0.0
H168 H 0.52345 0.58629 0.56633 0.0
C169 C 0.53858 0.4875 0.99923 0.0
N170 N 0.55466 0.48986 0.01167 0.0
N171 N 0.54076 0.50041 0.9841 0.0
C172 C 0.52065 0.47268 1.00194 0.0
C173 C 0.55879 0.51065 0.98771 0.0
N174 N 0.56726 0.50441 1.00461 0.0
C175 C 0.56883 0.52521 0.97353 0.0
H176 H 0.52283 0.45693 0.99289 0.0
H177 H 0.50717 0.47907 0.9962 0.0
H178 H 0.51836 0.47011 0.01835 0.0
H179 H 0.56515 0.54193 0.97858 0.0
H180 H 0.56366 0.52081 0.95738 0.0
H181 H 0.58512 0.52443 0.97391 0.0
C182 C 0.68918 0.2151 0.32742 0.0
N183 N 0.70494 0.20827 0.33669 0.0
N184 N 0.68751 0.20565 0.30766 0.0
C185 C 0.67654 0.23248 0.33701 0.0
C186 C 0.70301 0.19307 0.30514 0.0
N187 N 0.71373 0.19482 0.32277 0.0
C188 C 0.70689 0.17811 0.28594 0.0
H189 H 0.66441 0.22519 0.34596 0.0
H190 H 0.66994 0.24086 0.32501 0.0
H191 H 0.68531 0.2444 0.34775 0.0
H192 H 0.71765 0.18626 0.27604 0.0
H193 H 0.69311 0.17361 0.277 0.0
H194 H 0.71333 0.16342 0.28992 0.0
C195 C 0.47193 0.04606 0.97564 0.0
N196 N 0.48702 0.06131 0.9763 0.0
N197 N 0.46022 0.04933 0.99254 0.0
C198 C 0.46926 0.02725 0.95912 0.0
C199 C 0.46867 0.06712 1.00353 0.0
N200 N 0.48519 0.07428 0.99382 0.0
C201 C 0.45951 0.0787 0.02252 0.0
H202 H 0.46038 0.03184 0.94636 0.0
H203 H 0.46134 0.01341 0.96531 0.0
H204 H 0.48375 0.0224 0.95271 0.0
H205 H 0.46573 0.07323 0.0365 0.0
H206 H 0.44325 0.07527 0.02273 0.0
H207 H 0.46269 0.09625 0.02324 0.0
Mn208 Mn 0.25626 0.88525 0.02604 0.0
Mn209 Mn 0.25577 0.89618 0.97658 0.0
C210 C 0.24265 0.86019 1.00033 0.0
C211 C 0.27194 0.87163 0.05292 0.0
C212 C 0.22793 0.91517 0.00973 0.0
O213 O 0.27683 0.91037 0.02605 0.0
O214 O 0.27673 0.9147 0.99217 0.0
C215 C 0.2947 0.88091 0.96287 0.0
N216 N 0.27472 0.88005 0.96059 0.0
C217 C 0.27605 0.85334 0.93099 0.0
C218 C 0.29667 0.85401 0.93294 0.0
C219 C 0.30602 0.86783 0.94898 0.0
C220 C 0.26556 0.86679 0.94525 0.0
H221 H 0.30195 0.89147 0.9752 0.0
C222 C 0.28343 0.91943 0.0106 0.0
O223 O 0.25847 0.88533 0.05664 0.0
O224 O 0.27668 0.86645 0.0337 0.0
N225 N 0.23629 0.87907 0.95981 0.0
C226 C 0.21623 0.8795 0.96076 0.0
C227 C 0.2046 0.86624 0.94608 0.0
C228 C 0.21372 0.85278 0.93052 0.0
C229 C 0.23439 0.85266 0.92982 0.0
C230 C 0.24521 0.86634 0.94477 0.0
H231 H 0.20915 0.88986 0.97264 0.0
O232 O 0.23756 0.85941 0.01951 0.0
O233 O 0.25534 0.87567 0.99685 0.0
O234 O 0.23377 0.90526 0.02429 0.0
O235 O 0.23548 0.91323 0.99158 0.0
C236 C 0.24467 0.8393 0.91504 0.0
C237 C 0.26548 0.83958 0.91567 0.0
H238 H 0.30544 0.84388 0.92232 0.0
H239 H 0.32192 0.86837 0.95065 0.0
H240 H 0.18866 0.86639 0.94674 0.0
H241 H 0.20469 0.84254 0.91927 0.0
H242 H 0.23671 0.82854 0.90329 0.0
H243 H 0.2732 0.829 0.90442 0.0
Mn244 Mn 0.15555 0.52964 0.27578 0.0
Mn245 Mn 0.1381 0.57816 0.27354 0.0
C246 C 0.1746 0.55587 0.2608 0.0
C247 C 0.17278 0.50561 0.29223 0.0
C248 C 0.12392 0.5383 0.24525 0.0
O249 O 0.13326 0.53054 0.29742 0.0
O250 O 0.1246 0.56421 0.29599 0.0
C251 C 0.15237 0.60023 0.31391 0.0
N252 N 0.15119 0.59942 0.29297 0.0
C253 C 0.16719 0.63466 0.29375 0.0
C254 C 0.16839 0.63601 0.31536 0.0
C255 C 0.16113 0.61862 0.32546 0.0
C256 C 0.15865 0.61578 0.28305 0.0
H257 H 0.14666 0.58695 0.32171 0.0
C258 C 0.12325 0.54654 0.30388 0.0
O259 O 0.15948 0.49909 0.27832 0.0
O260 O 0.17558 0.52615 0.29716 0.0
N261 N 0.15008 0.59376 0.25277 0.0
C262 C 0.14934 0.5891 0.2318 0.0
C263 C 0.15695 0.60437 0.21929 0.0
C264 C 0.1648 0.62441 0.22848 0.0
C265 C 0.16534 0.62883 0.25011 0.0
C266 C 0.15798 0.61282 0.26175 0.0
H267 H 0.14285 0.57392 0.22469 0.0
O268 O 0.17754 0.53574 0.25603 0.0
O269 O 0.1605 0.56006 0.27407 0.0
O270 O 0.13546 0.52571 0.25215 0.0
O271 O 0.12349 0.55798 0.25254 0.0
C272 C 0.1729 0.64849 0.2606 0.0
C273 C 0.1741 0.6513 0.28239 0.0
H274 H 0.17496 0.65026 0.32434 0.0
H275 H 0.16211 0.61947 0.34212 0.0
H276 H 0.1565 0.60083 0.20262 0.0
H277 H 0.17045 0.63624 0.21879 0.0
H278 H 0.17828 0.66138 0.25202 0.0
H279 H 0.18049 0.66625 0.29023 0.0
Mn280 Mn 0.78025 0.64309 0.01429 0.0
Mn281 Mn 0.73712 0.65497 0.99412 0.0
C282 C 0.75147 0.62233 0.01951 0.0
C283 C 0.80994 0.62608 0.01263 0.0
C284 C 0.75546 0.67972 0.03281 0.0
O285 O 0.78939 0.66271 0.99275 0.0
O286 O 0.75989 0.66799 0.97935 0.0
C287 C 0.74045 0.63074 0.95246 0.0
N288 N 0.73016 0.63508 0.97041 0.0
C289 C 0.70302 0.61062 0.95784 0.0
C290 C 0.71327 0.60599 0.93916 0.0
C291 C 0.73209 0.61604 0.9365 0.0
C292 C 0.71207 0.62545 0.97316 0.0
H293 H 0.75491 0.63843 0.95036 0.0
C294 C 0.77881 0.67058 0.97981 0.0
O295 O 0.8075 0.6433 0.02519 0.0
O296 O 0.79534 0.61912 1.00034 0.0
N297 N 0.7137 0.64343 1.00654 0.0
C298 C 0.70645 0.64844 0.02602 0.0
C299 C 0.68805 0.63911 0.0315 0.0
C300 C 0.6772 0.62496 0.01684 0.0
C301 C 0.68487 0.62021 0.99684 0.0
C302 C 0.70326 0.63004 0.99225 0.0
H303 H 0.71469 0.65937 0.03733 0.0
O304 O 0.76644 0.62279 0.0318 0.0
O305 O 0.75374 0.6339 1.00425 0.0
O306 O 0.7704 0.66855 0.03322 0.0
O307 O 0.74239 0.67624 0.01865 0.0
C308 C 0.67528 0.60562 0.98147 0.0
C309 C 0.68437 0.60079 0.962 0.0
H310 H 0.70692 0.5946 0.92684 0.0
H311 H 0.74013 0.61247 0.92216 0.0
H312 H 0.68226 0.6428 0.04699 0.0
H313 H 0.66309 0.61766 0.02118 0.0
H314 H 0.66109 0.59769 0.9846 0.0
H315 H 0.677 0.58926 0.95043 0.0
Mn316 Mn 0.87673 0.0167 0.2888 0.0
Mn317 Mn 0.88948 0.96541 0.28183 0.0
C318 C 0.85682 0.99058 0.26949 0.0
C319 C 0.8607 0.04498 0.30677 0.0
C320 C 0.90879 1.0001 0.25857 0.0
O321 O 0.89725 0.01623 0.3115 0.0
O322 O 0.90343 0.9813 0.30622 0.0
C323 C 0.87124 0.95103 0.31973 0.0
N324 N 0.87307 0.94875 0.29875 0.0
C325 C 0.84969 0.91814 0.29526 0.0
C326 C 0.84764 0.92008 0.31685 0.0
C327 C 0.85843 0.93662 0.32913 0.0
C328 C 0.86271 0.93293 0.28678 0.0
H329 H 0.87948 0.96375 0.32922 0.0
C330 C 0.90596 1.00009 0.31618 0.0
O331 O 0.87545 0.04827 0.29442 0.0
O332 O 0.85592 0.02526 0.30955 0.0
N333 N 0.87694 0.94812 0.25886 0.0
C334 C 0.88 0.94901 0.23825 0.0
C335 C 0.8701 0.93373 0.22382 0.0
C336 C 0.85729 0.91764 0.23071 0.0
C337 C 0.85447 0.91697 0.252 0.0
C338 C 0.8649 0.93249 0.26566 0.0
H339 H 0.88987 0.9613 0.23284 0.0
O340 O 0.8559 0.01057 0.26699 0.0
O341 O 0.8693 0.98645 0.28324 0.0
O342 O 0.89841 0.01505 0.26671 0.0
O343 O 0.9069 0.98103 0.26336 0.0
C344 C 0.84152 0.90171 0.26019 0.0
C345 C 0.83908 0.90234 0.28181 0.0
H346 H 0.83771 0.90906 0.32416 0.0
H347 H 0.85686 0.93828 0.3458 0.0
H348 H 0.87234 0.93436 0.20741 0.0
H349 H 0.84968 0.9059 0.21953 0.0
H350 H 0.83316 0.8896 0.25001 0.0
H351 H 0.82889 0.89069 0.28792 0.0
Mn352 Mn 0.27751 0.14529 0.51424 0.0
Mn353 Mn 0.23493 0.15801 0.49349 0.0
C354 C 0.2484 0.12471 0.51887 0.0
C355 C 0.3071 0.12807 0.51298 0.0
C356 C 0.25271 0.18191 0.53284 0.0
O357 O 0.28734 0.16517 0.49313 0.0
O358 O 0.25815 0.17112 0.47954 0.0
C359 C 0.23915 0.13447 0.45162 0.0
N360 N 0.22837 0.13872 0.46925 0.0
C361 C 0.20101 0.11541 0.45524 0.0
C362 C 0.21176 0.11091 0.43687 0.0
C363 C 0.23095 0.12042 0.43509 0.0
C364 C 0.20995 0.12958 0.47116 0.0
H365 H 0.25389 0.14177 0.4502 0.0
C366 C 0.27706 0.17346 0.48024 0.0
O367 O 0.30452 0.14517 0.52565 0.0
O368 O 0.2927 0.12132 0.50036 0.0
N369 N 0.21102 0.14655 0.50496 0.0
C370 C 0.20323 0.15138 0.52422 0.0
C371 C 0.18429 0.14274 0.52875 0.0
C372 C 0.17352 0.12934 0.51344 0.0
C373 C 0.18181 0.12466 0.49372 0.0
C374 C 0.20066 0.13394 0.49002 0.0
H375 H 0.21138 0.16178 0.53601 0.0
O376 O 0.26324 0.12492 0.53129 0.0
O377 O 0.251 0.13641 0.5037 0.0
O378 O 0.26758 0.17065 0.53324 0.0
O379 O 0.2398 0.17874 0.51851 0.0
C380 C 0.17232 0.11077 0.47773 0.0
C381 C 0.18194 0.10609 0.45853 0.0
H382 H 0.20552 0.10002 0.4241 0.0
H383 H 0.23937 0.11693 0.421 0.0
H384 H 0.178 0.1464 0.54403 0.0
H385 H 0.15898 0.12255 0.51706 0.0
H386 H 0.15777 0.1033 0.48017 0.0
H387 H 0.17464 0.0951 0.44648 0.0
Mn388 Mn 0.37866 0.51152 0.78706 0.0
Mn389 Mn 0.39736 0.4628 0.78278 0.0
C390 C 0.36167 0.48224 0.76873 0.0
C391 C 0.35988 0.53841 0.80358 0.0
C392 C 0.41238 0.49776 0.75759 0.0
O393 O 0.39919 0.51507 0.81019 0.0
O394 O 0.40992 0.48173 0.80621 0.0
C395 C 0.38139 0.44884 0.82183 0.0
N396 N 0.3833 0.44542 0.80087 0.0
C397 C 0.36463 0.41149 0.79937 0.0
C398 C 0.36254 0.41459 0.82096 0.0
C399 C 0.37089 0.43339 0.83222 0.0
C400 C 0.37517 0.42749 0.78987 0.0
H401 H 0.38785 0.46324 0.83053 0.0
C402 C 0.41016 0.5009 0.81537 0.0
O403 O 0.3742 0.54254 0.79101 0.0
O404 O 0.3569 0.51865 0.80725 0.0
N405 N 0.38664 0.44267 0.76079 0.0
C406 C 0.38933 0.44259 0.74002 0.0
C407 C 0.38197 0.42488 0.72651 0.0
C408 C 0.37207 0.40741 0.73451 0.0
C409 C 0.36927 0.40795 0.75594 0.0
C410 C 0.37715 0.42592 0.76865 0.0
H411 H 0.3972 0.45584 0.7338 0.0
O412 O 0.35853 0.50154 0.76522 0.0
O413 O 0.37458 0.48058 0.78297 0.0
O414 O 0.40051 0.51152 0.76513 0.0
O415 O 0.4126 0.47911 0.76323 0.0
C416 C 0.35899 0.3914 0.7652 0.0
C417 C 0.35654 0.39325 0.78688 0.0
H418 H 0.35446 0.4027 0.82904 0.0
H419 H 0.36928 0.43593 0.84888 0.0
H420 H 0.3841 0.42459 0.70998 0.0
H421 H 0.36679 0.39363 0.72403 0.0
H422 H 0.35277 0.37727 0.75579 0.0
H423 H 0.34838 0.38055 0.7938 0.0
Mn424 Mn 0.75566 0.3892 0.53367 0.0
Mn425 Mn 0.75744 0.39976 0.48408 0.0
C426 C 0.74355 0.36369 0.50755 0.0
C427 C 0.77008 0.37654 0.56169 0.0
C428 C 0.72818 0.41871 0.51574 0.0
O429 O 0.77588 0.41477 0.53446 0.0
O430 O 0.77807 0.41807 0.50035 0.0
C431 C 0.79656 0.38404 0.47175 0.0
N432 N 0.77667 0.3834 0.46879 0.0
C433 C 0.77863 0.35679 0.43917 0.0
C434 C 0.79916 0.35724 0.44183 0.0
C435 C 0.80814 0.37088 0.45822 0.0
C436 C 0.76786 0.3703 0.4531 0.0
H437 H 0.80351 0.39449 0.48434 0.0
C438 C 0.78365 0.42325 0.51915 0.0
O439 O 0.756 0.3896 0.56431 0.0
O440 O 0.77618 0.37131 0.54292 0.0
N441 N 0.73832 0.38277 0.46673 0.0
C442 C 0.71825 0.38333 0.46707 0.0
C443 C 0.70696 0.37022 0.452 0.0
C444 C 0.7164 0.35679 0.43668 0.0
C445 C 0.73706 0.3565 0.43664 0.0
C446 C 0.74755 0.37004 0.45196 0.0
H447 H 0.71092 0.39367 0.47876 0.0
O448 O 0.7377 0.36291 0.5265 0.0
O449 O 0.75623 0.37935 0.50452 0.0
O450 O 0.73293 0.40844 0.53045 0.0
O451 O 0.7369 0.41718 0.49818 0.0
C452 C 0.74763 0.34309 0.42218 0.0
C453 C 0.7684 0.34319 0.42348 0.0
H454 H 0.80813 0.34705 0.43149 0.0
H455 H 0.82396 0.37125 0.46043 0.0
H456 H 0.69101 0.37049 0.45217 0.0
H457 H 0.70762 0.3467 0.42509 0.0
H458 H 0.73992 0.33243 0.41017 0.0
H459 H 0.77633 0.33256 0.41248 0.0
Mn460 Mn 0.65299 0.02292 0.7779 0.0
Mn461 Mn 0.63989 0.07308 0.77463 0.0
C462 C 0.67449 0.04726 0.76358 0.0
C463 C 0.66794 0.99778 0.79502 0.0
C464 C 0.62355 0.03429 0.74621 0.0
O465 O 0.63039 0.02622 0.79893 0.0
O466 O 0.62404 0.06052 0.79657 0.0
C467 C 0.65387 0.09405 0.8155 0.0
N468 N 0.65423 0.09289 0.79448 0.0
C469 C 0.67739 0.12361 0.7957 0.0
C470 C 0.67718 0.12519 0.81736 0.0
C471 C 0.6654 0.11032 0.8273 0.0
C472 C 0.66552 0.10711 0.78476 0.0
H473 H 0.64487 0.08262 0.82321 0.0
C474 C 0.62115 0.04301 0.80467 0.0
O475 O 0.65464 0.99203 0.78091 0.0
O476 O 0.67181 0.01818 0.7999 0.0
N477 N 0.65451 0.08705 0.75421 0.0
C478 C 0.65399 0.0825 0.73321 0.0
C479 C 0.66542 0.09552 0.72095 0.0
C480 C 0.67717 0.1131 0.73038 0.0
C481 C 0.67743 0.1175 0.75201 0.0
C482 C 0.66563 0.10406 0.76343 0.0
H483 H 0.64498 0.06901 0.72588 0.0
O484 O 0.67604 0.02686 0.75879 0.0
O485 O 0.66021 0.05269 0.77618 0.0
O486 O 0.63355 0.02067 0.75372 0.0
O487 O 0.62456 0.05415 0.75319 0.0
C488 C 0.68917 0.13449 0.76269 0.0
C489 C 0.68919 0.1375 0.78452 0.0
H490 H 0.68614 0.13765 0.82652 0.0
H491 H 0.66523 0.11137 0.84401 0.0
H492 H 0.66519 0.09198 0.70427 0.0
H493 H 0.68603 0.12303 0.72086 0.0
H494 H 0.69844 0.14515 0.75428 0.0
H495 H 0.69852 0.15041 0.79256 0.0
Mn496 Mn 1.00532 0.24159 0.90868 0.0
Mn497 Mn 0.96208 0.23553 0.93414 0.0
C498 C 0.97785 0.22434 0.89159 0.0
C499 C 0.02781 0.26019 0.88897 0.0
C500 C 0.99694 0.20904 0.93956 0.0
O501 O 1.00871 0.26416 0.93387 0.0
O502 O 0.97894 0.25943 0.94916 0.0
C503 C 0.94537 0.27655 0.92822 0.0
N504 N 0.94389 0.25476 0.92587 0.0
C505 C 0.91201 0.25381 0.90983 0.0
C506 C 0.91313 0.27624 0.91218 0.0
C507 C 0.92991 0.28765 0.92137 0.0
C508 C 0.92783 0.24362 0.91702 0.0
H509 H 0.95824 0.28539 0.93524 0.0
C510 C 0.99612 0.26913 0.94815 0.0
O511 O 0.03337 0.24625 0.90042 0.0
O512 O 0.00917 0.26388 0.88945 0.0
N513 N 0.94442 0.21323 0.92091 0.0
C514 C 0.94629 0.19169 0.91842 0.0
C515 C 0.9311 0.17799 0.90874 0.0
C516 C 0.91411 0.18655 0.90185 0.0
C517 C 0.9125 0.20875 0.90466 0.0
C518 C 0.9281 0.22162 0.91443 0.0
H519 H 0.95933 0.18503 0.92366 0.0
O520 O 0.99553 0.22048 0.88489 0.0
O521 O 0.97687 0.23778 0.9083 0.0
O522 O 1.00821 0.21765 0.92672 0.0
O523 O 0.97941 0.21459 0.94362 0.0
C524 C 0.89616 0.21865 0.89785 0.0
C525 C 0.89595 0.24116 0.90033 0.0
H526 H 0.90128 0.28487 0.90683 0.0
H527 H 0.93093 0.30497 0.92315 0.0
H528 H 0.93249 0.16087 0.90656 0.0
H529 H 0.90247 0.17594 0.89428 0.0
H530 H 0.88379 0.20909 0.89041 0.0
H531 H 0.88347 0.24858 0.89467 0.0
Mn532 Mn 0.50779 0.74747 0.40691 0.0
Mn533 Mn 0.46389 0.74171 0.43126 0.0
C534 C 0.48052 0.73095 0.38897 0.0
C535 C 0.5312 0.7659 0.38807 0.0
C536 C 0.49802 0.71429 0.43685 0.0
O537 O 0.511 0.76955 0.4325 0.0
O538 O 0.48084 0.76502 0.44702 0.0
C539 C 0.44819 0.78334 0.42571 0.0
N540 N 0.44632 0.76156 0.42299 0.0
C541 C 0.41478 0.76161 0.40643 0.0
C542 C 0.41633 0.78405 0.40916 0.0
C543 C 0.43313 0.79495 0.4188 0.0
C544 C 0.43023 0.7509 0.4137 0.0
H545 H 0.46109 0.7918 0.43308 0.0
C546 C 0.49819 0.77444 0.44657 0.0
O547 O 0.53606 0.75155 0.3994 0.0
O548 O 0.5127 0.77018 0.38822 0.0
N549 N 0.44609 0.71998 0.41735 0.0
C550 C 0.44753 0.69838 0.4146 0.0
C551 C 0.43226 0.68515 0.40447 0.0
C552 C 0.41562 0.69424 0.39744 0.0
C553 C 0.41443 0.7165 0.40056 0.0
C554 C 0.43008 0.72888 0.41077 0.0
H555 H 0.46029 0.69131 0.41996 0.0
O556 O 0.49827 0.72697 0.38261 0.0
O557 O 0.47929 0.7442 0.40579 0.0
O558 O 0.50971 0.72299 0.42444 0.0
O559 O 0.48055 0.72015 0.44069 0.0
C560 C 0.39846 0.72692 0.39365 0.0
C561 C 0.39868 0.74946 0.39648 0.0
H562 H 0.40478 0.79306 0.40378 0.0
H563 H 0.43447 0.81227 0.42088 0.0
H564 H 0.43332 0.66799 0.40207 0.0
H565 H 0.40393 0.68399 0.38953 0.0
H566 H 0.38604 0.71775 0.3859 0.0
H567 H 0.38647 0.75729 0.39077 0.0
Mn568 Mn 0.01716 0.7847 0.64808 0.0
Mn569 Mn 0.99303 0.73715 0.65429 0.0
C570 C 0.01871 0.75575 0.62248 0.0
C571 C 0.01943 0.81883 0.63708 0.0
C572 C 0.03234 0.75167 0.67428 0.0
O573 O 0.99789 0.79321 0.6718 0.0
O574 O 0.98376 0.76042 0.67453 0.0
C575 C 0.95374 0.74813 0.64107 0.0
N576 N 0.96898 0.73498 0.63899 0.0
C577 C 0.95109 0.71025 0.61376 0.0
C578 C 0.93519 0.72351 0.61561 0.0
C579 C 0.9366 0.74263 0.6292 0.0
C580 C 0.96806 0.71695 0.62544 0.0
H581 H 0.95463 0.76262 0.65179 0.0
C582 C 0.9859 0.7805 0.68046 0.0
O583 O 0.03096 0.81382 0.65124 0.0
O584 O 1.00585 0.80437 0.63007 0.0
N585 N 0.99997 0.71251 0.63623 0.0
C586 C 0.0158 0.70053 0.63768 0.0
C587 C 0.01662 0.68077 0.62529 0.0
C588 C 1.00074 0.67304 0.61225 0.0
C589 C 0.98411 0.68504 0.6119 0.0
C590 C 0.98436 0.70491 0.62416 0.0
H591 H 0.02779 0.70604 0.64816 0.0
O592 O 0.03208 0.77149 0.62364 0.0
O593 O 1.00445 0.75746 0.63603 0.0
O594 O 0.03378 0.76994 0.66762 0.0
O595 O 0.0178 0.73797 0.67003 0.0
C596 C 0.96696 0.67767 0.6005 0.0
C597 C 0.95057 0.69041 0.60118 0.0
H598 H 0.92178 0.71909 0.6068 0.0
H599 H 0.92439 0.75293 0.63075 0.0
H600 H 0.02933 0.67138 0.62602 0.0
H601 H 1.00129 0.65764 0.60294 0.0
H602 H 0.9663 0.66231 0.59099 0.0
H603 H 0.93757 0.68468 0.59214 0.0
Mn604 Mn 0.51813 0.29001 0.15011 0.0
Mn605 Mn 0.49652 0.24073 0.15452 0.0
C606 C 0.52195 0.2621 0.1238 0.0
C607 C 0.51871 0.32438 0.13988 0.0
C608 C 0.53424 0.25818 0.17672 0.0
O609 O 0.49773 0.29631 0.1733 0.0
O610 O 0.48397 0.26289 0.17358 0.0
C611 C 0.45708 0.24702 0.13806 0.0
N612 N 0.47341 0.23553 0.1377 0.0
C613 C 0.45922 0.2088 0.11159 0.0
C614 C 0.44217 0.22027 0.11176 0.0
C615 C 0.44114 0.23951 0.125 0.0
C616 C 0.47462 0.21709 0.12494 0.0
H617 H 0.45622 0.26177 0.14826 0.0
C618 C 0.48506 0.2829 0.18013 0.0
O619 O 0.53023 0.31984 0.15425 0.0
O620 O 0.50593 0.3093 0.13229 0.0
N621 N 0.50674 0.21728 0.13718 0.0
C622 C 0.52464 0.20882 0.13809 0.0
C623 C 0.52819 0.18965 0.12568 0.0
C624 C 0.51333 0.17937 0.11248 0.0
C625 C 0.49499 0.1883 0.11189 0.0
C626 C 0.49219 0.20725 0.12488 0.0
H627 H 0.53606 0.21655 0.14832 0.0
O628 O 0.53443 0.27867 0.12599 0.0
O629 O 0.50729 0.26224 0.13697 0.0
O630 O 0.53537 0.27623 0.16973 0.0
O631 O 0.52021 0.24395 0.17218 0.0
C632 C 0.47951 0.17938 0.09868 0.0
C633 C 0.46167 0.18968 0.09845 0.0
H634 H 0.42987 0.21456 0.10168 0.0
H635 H 0.42807 0.2485 0.12515 0.0
H636 H 0.54236 0.18281 0.12629 0.0
H637 H 0.51622 0.1647 0.10275 0.0
H638 H 0.4813 0.1648 0.08837 0.0
H639 H 0.45 0.18286 0.08798 0.0
H640 H 0.1837 0.69894 0.87107 0.0
H641 H 0.19286 0.72266 0.90275 0.0
H642 H 0.24619 0.74467 0.87295 0.0
H643 H 0.23692 0.72089 0.84123 0.0
H644 H 0.24105 0.73474 0.92464 0.0
H645 H 0.1969 0.79281 0.88988 0.0
H646 H 0.18911 0.7647 0.88671 0.0
H647 H 0.21096 0.77383 0.87381 0.0
C648 C 0.19771 0.70828 0.87167 0.0
C649 C 0.20967 0.70824 0.85394 0.0
C650 C 0.2029 0.7218 0.88965 0.0
C651 C 0.22013 0.73539 0.89006 0.0
C652 C 0.23289 0.73415 0.87289 0.0
H653 H 0.26985 0.83799 0.97793 0.0
H654 H 0.26415 0.80654 0.95226 0.0
C655 C 0.2277 0.72056 0.8549 0.0
C656 C 0.22319 0.75293 0.90711 0.0
H657 H 0.21076 0.80394 0.92251 0.0
C658 C 0.23453 0.74992 0.92423 0.0
C659 C 0.21443 0.77254 0.90649 0.0
C660 C 0.20215 0.77638 0.88828 0.0
C661 C 0.23741 0.76624 0.94085 0.0
C662 C 0.22891 0.78605 0.94008 0.0
C663 C 0.21732 0.78882 0.92304 0.0
C664 C 0.23237 0.80442 0.95637 0.0
C665 C 0.24924 0.762 0.95923 0.0
C666 C 0.21637 0.81393 0.96695 0.0
C667 C 0.21962 0.83209 0.98144 0.0
C668 C 0.23884 0.84126 0.98506 0.0
C669 C 0.25484 0.83146 0.9749 0.0
C670 C 0.25163 0.81332 0.9605 0.0
H671 H 0.24963 0.74458 0.96024 0.0
H672 H 0.26469 0.76859 0.95761 0.0
H673 H 0.24307 0.76981 0.9739 0.0
H674 H 0.20139 0.80734 0.96392 0.0
H675 H 0.20714 0.83923 0.98945 0.0
H676 H 0.98034 0.54834 0.43679 0.0
H677 H 1.00325 0.54522 0.40751 0.0
H678 H 0.05243 0.55919 0.44956 0.0
H679 H 0.02935 0.56052 0.47901 0.0
H680 H 0.02793 0.57075 0.39221 0.0
H681 H 0.07068 0.50671 0.4171 0.0
H682 H 0.04835 0.51503 0.43012 0.0
H683 H 0.0716 0.52999 0.4359 0.0
C684 C 0.99606 0.55045 0.43974 0.0
C685 C 1.00313 0.55415 0.46011 0.0
C686 C 0.00917 0.54882 0.42301 0.0
C687 C 0.02968 0.5513 0.42626 0.0
C688 C 0.03674 0.55638 0.44662 0.0
H689 H 0.11146 0.58014 0.33012 0.0
H690 H 0.08925 0.57979 0.35952 0.0
C691 C 0.02357 0.55757 0.46343 0.0
C692 C 0.04343 0.54897 0.4082 0.0
H693 H 0.08415 0.52396 0.38886 0.0
C694 C 0.04013 0.56038 0.39148 0.0
C695 C 0.05911 0.53504 0.40688 0.0
C696 C 0.06252 0.52082 0.42336 0.0
C697 C 0.05218 0.55862 0.37378 0.0
C698 C 0.06865 0.54585 0.37306 0.0
C699 C 0.07172 0.53399 0.38951 0.0
C700 C 0.08325 0.54544 0.35578 0.0
C701 C 0.04681 0.57023 0.35588 0.0
C702 C 0.08832 0.52607 0.34448 0.0
C703 C 0.10164 0.52614 0.32777 0.0
C704 C 0.1099 0.54561 0.32203 0.0
C705 C 0.10516 0.56483 0.33381 0.0
C706 C 0.09228 0.56471 0.35061 0.0
H707 H 0.0307 0.57249 0.35569 0.0
H708 H 0.05464 0.58635 0.35752 0.0
H709 H 0.051 0.56145 0.3408 0.0
H710 H 0.08171 0.51095 0.34834 0.0
H711 H 0.10507 0.51108 0.31909 0.0
H712 H 0.85103 0.81324 0.86587 0.0
H713 H 0.85233 0.78452 0.88818 0.0
H714 H 0.8015 0.75144 0.85667 0.0
H715 H 0.80072 0.77974 0.83423 0.0
H716 H 0.82386 0.7762 0.91493 0.0
H717 H 0.83314 0.7016 0.86324 0.0
H718 H 0.83824 0.72763 0.85478 0.0
H719 H 0.81336 0.71554 0.85431 0.0
C720 C 0.84076 0.79931 0.86323 0.0
C721 C 0.82584 0.79851 0.84837 0.0
C722 C 0.84135 0.78303 0.87606 0.0
C723 C 0.82711 0.76563 0.87407 0.0
C724 C 0.81297 0.7643 0.85828 0.0
H725 H 0.76262 0.68197 0.94488 0.0
H726 H 0.77784 0.70406 0.92002 0.0
C727 C 0.81244 0.7805 0.84549 0.0
C728 C 0.82515 0.7505 0.89002 0.0
H729 H 0.81598 0.6976 0.89581 0.0
C730 C 0.82266 0.75899 0.91081 0.0
C731 C 0.82356 0.728 0.88474 0.0
C732 C 0.82744 0.71769 0.86307 0.0
C733 C 0.81739 0.74572 0.92613 0.0
C734 C 0.81458 0.72337 0.92056 0.0
C735 C 0.81802 0.71477 0.90002 0.0
C736 C 0.80614 0.70902 0.93538 0.0
C737 C 0.81372 0.75574 0.94796 0.0
C738 C 0.81711 0.70423 0.95219 0.0
C739 C 0.80845 0.69143 0.96651 0.0
C740 C 0.78861 0.68338 0.96434 0.0
C741 C 0.77786 0.68801 0.94722 0.0
C742 C 0.78656 0.70057 0.93289 0.0
H743 H 0.81486 0.7735 0.94939 0.0
H744 H 0.7988 0.75031 0.95326 0.0
H745 H 0.82472 0.75051 0.95846 0.0
H746 H 0.8323 0.71051 0.95432 0.0
H747 H 0.81717 0.68819 0.97946 0.0
H748 H 0.02821 0.96556 0.45161 0.0
H749 H 1.00541 0.97007 0.42368 0.0
H750 H 1.00026 0.03595 0.44893 0.0
H751 H 0.02275 0.0312 0.47715 0.0
H752 H 0.96384 0.01403 0.43761 0.0
H753 H 0.01882 1.00288 0.3742 0.0
H754 H 0.01724 0.98146 0.39006 0.0
H755 H 0.02581 1.00795 0.4011 0.0
C756 C 0.02207 0.98091 0.45119 0.0
C757 C 0.02717 0.99806 0.46638 0.0
C758 C 0.00924 0.98356 0.43518 0.0
C759 C 1.00141 1.00346 0.43403 0.0
C760 C 1.00625 0.02052 0.44943 0.0
H761 H 0.91631 0.03661 0.34277 0.0
H762 H 0.93956 0.04012 0.37182 0.0
C763 C 0.0191 0.01785 0.46544 0.0
C764 C 0.98799 1.00629 0.41687 0.0
H765 H 0.98491 1.00104 0.36418 0.0
C766 C 0.96848 0.01148 0.42155 0.0
C767 C 0.99414 1.00314 0.39595 0.0
C768 C 0.0152 0.99876 0.38998 0.0
C769 C 0.95467 0.01249 0.40581 0.0
C770 C 0.96065 1.00847 0.38489 0.0
C771 C 0.98035 1.00406 0.38024 0.0
C772 C 0.9464 1.00684 0.36758 0.0
C773 C 0.93359 0.01688 0.41161 0.0
C774 C 0.94274 0.98709 0.35547 0.0
C775 C 0.9296 0.98504 0.33895 0.0
C776 C 0.91981 1.00275 0.33399 0.0
C777 C 0.92353 0.02263 0.34615 0.0
C778 C 0.93674 0.02465 0.3628 0.0
H779 H 0.93066 0.0163 0.42836 0.0
H780 H 0.93052 0.03304 0.40788 0.0
H781 H 0.92317 1.00509 0.40258 0.0
H782 H 0.95004 0.97316 0.35887 0.0
H783 H 0.92719 0.96944 0.33004 0.0
H784 H 0.23108 0.29588 0.71013 0.0
H785 H 0.24483 0.27791 0.67802 0.0
H786 H 0.19261 0.28981 0.64512 0.0
H787 H 0.17921 0.30824 0.67711 0.0
H788 H 0.22738 0.24159 0.65631 0.0
H789 H 0.23639 0.3059 0.60549 0.0
H790 H 0.23322 0.31137 0.63317 0.0
H791 H 0.21217 0.30365 0.61675 0.0
C792 C 0.22288 0.29513 0.69587 0.0
C793 C 0.20417 0.3034 0.69593 0.0
C794 C 0.23064 0.28479 0.6776 0.0
C795 C 0.21986 0.28271 0.6591 0.0
C796 C 0.2014 0.29159 0.65907 0.0
H797 H 0.22136 0.20731 0.53977 0.0
H798 H 0.21506 0.2326 0.57028 0.0
C799 C 0.19367 0.30193 0.67733 0.0
C800 C 0.22694 0.26949 0.64035 0.0
H801 H 0.23706 0.26993 0.58885 0.0
C802 C 0.22977 0.24785 0.64163 0.0
C803 C 0.22992 0.27766 0.62117 0.0
C804 C 0.22796 0.30097 0.61905 0.0
C805 C 0.23484 0.23398 0.62412 0.0
C806 C 0.23751 0.24206 0.60486 0.0
C807 C 0.235 0.26378 0.60363 0.0
C808 C 0.24222 0.22795 0.58574 0.0
C809 C 0.23659 0.21061 0.62624 0.0
C810 C 0.25982 0.21735 0.58407 0.0
C811 C 0.26349 0.20282 0.56667 0.0
C812 C 0.24964 0.19869 0.55049 0.0
C813 C 0.23235 0.21001 0.5519 0.0
C814 C 0.22871 0.22451 0.56933 0.0
H815 H 0.22974 0.20611 0.64081 0.0
H816 H 0.22949 0.20028 0.61299 0.0
H817 H 0.25245 0.20728 0.62638 0.0
H818 H 0.27061 0.22007 0.5964 0.0
H819 H 0.27702 0.19456 0.5661 0.0
H820 H 0.49842 0.53271 0.58663 0.0
H821 H 0.47727 0.52656 0.61644 0.0
H822 H 0.52806 0.53824 0.65651 0.0
H823 H 0.54896 0.54545 0.62679 0.0
H824 H 0.47853 0.4965 0.64184 0.0
H825 H 0.48946 0.57645 0.68737 0.0
H826 H 0.4972 0.57131 0.66072 0.0
H827 H 0.51223 0.56417 0.68108 0.0
C828 C 0.50492 0.53428 0.60189 0.0
C829 C 0.52521 0.53964 0.60455 0.0
C830 C 0.49291 0.53064 0.61886 0.0
C831 C 0.50102 0.53225 0.63877 0.0
C832 C 0.52139 0.53739 0.64139 0.0
H833 H 0.44375 0.47591 0.74144 0.0
H834 H 0.46556 0.48451 0.71308 0.0
C835 C 0.53336 0.54122 0.62442 0.0
C836 C 0.48824 0.52779 0.6566 0.0
H837 H 0.47328 0.54892 0.70461 0.0
C838 C 0.47733 0.50799 0.65554 0.0
C839 C 0.48646 0.54292 0.67435 0.0
C840 C 0.4968 0.56498 0.67591 0.0
C841 C 0.46485 0.5028 0.67178 0.0
C842 C 0.46368 0.51758 0.68987 0.0
C843 C 0.47439 0.5375 0.69085 0.0
C844 C 0.45105 0.51288 0.70774 0.0
C845 C 0.45271 0.48172 0.66918 0.0
C846 C 0.43616 0.52646 0.71474 0.0
C847 C 0.42384 0.52178 0.73118 0.0
C848 C 0.42615 0.50339 0.74093 0.0
C849 C 0.4414 0.49009 0.73417 0.0
C850 C 0.45382 0.4949 0.71785 0.0
H851 H 0.45096 0.47526 0.6526 0.0
H852 H 0.46028 0.46986 0.67697 0.0
H853 H 0.43779 0.48337 0.67619 0.0
H854 H 0.43383 0.54049 0.70723 0.0
H855 H 0.41226 0.53239 0.73595 0.0
H856 H 0.82671 0.28473 0.71886 0.0
H857 H 0.82174 0.31043 0.69445 0.0
H858 H 0.8061 0.25822 0.64703 0.0
H859 H 0.81364 0.23273 0.67065 0.0
H860 H 0.82475 0.28575 0.62966 0.0
H861 H 0.77121 0.33025 0.67994 0.0
H862 H 0.79501 0.33188 0.69183 0.0
H863 H 0.7812 0.30635 0.68678 0.0
C864 C 0.82268 0.27881 0.70309 0.0
C865 C 0.82035 0.2567 0.69673 0.0
C866 C 0.81938 0.29352 0.68923 0.0
C867 C 0.81278 0.28642 0.669 0.0
C868 C 0.81096 0.26428 0.66256 0.0
H869 H 0.74867 0.36088 0.59251 0.0
H870 H 0.7602 0.33976 0.61851 0.0
C871 C 0.815 0.24964 0.67615 0.0
C872 C 0.80783 0.30178 0.6544 0.0
H873 H 0.78143 0.34519 0.64957 0.0
C874 C 0.81513 0.29864 0.63403 0.0
C875 C 0.79508 0.31853 0.65986 0.0
C876 C 0.78501 0.32181 0.68071 0.0
C877 C 0.80972 0.31126 0.61893 0.0
C878 C 0.79771 0.32863 0.62463 0.0
C879 C 0.79079 0.33209 0.64513 0.0
C880 C 0.79106 0.34252 0.60939 0.0
C881 C 0.81617 0.30496 0.59686 0.0
C882 C 0.8045 0.35167 0.59579 0.0
C883 C 0.79774 0.36302 0.58037 0.0
C884 C 0.77759 0.36641 0.57899 0.0
C885 C 0.76432 0.35856 0.59338 0.0
C886 C 0.77094 0.34649 0.60825 0.0
H887 H 0.81937 0.28779 0.59413 0.0
H888 H 0.80469 0.3078 0.58568 0.0
H889 H 0.82998 0.31446 0.59367 0.0
H890 H 0.82018 0.34977 0.59684 0.0
H891 H 0.80826 0.36916 0.56953 0.0
H892 H 0.52931 0.98547 0.57154 0.0
H893 H 0.55394 0.98723 0.59922 0.0
H894 H 0.50734 0.99367 0.64487 0.0
H895 H 0.48286 0.99101 0.61721 0.0
H896 H 0.56218 0.02067 0.62731 0.0
H897 H 0.53943 0.95174 0.66882 0.0
H898 H 0.53015 0.95444 0.64347 0.0
H899 H 0.51913 0.96804 0.66628 0.0
C900 C 0.52439 0.98659 0.58749 0.0
C901 C 0.50428 0.98817 0.59233 0.0
C902 C 0.53842 0.98776 0.6033 0.0
C903 C 0.53254 0.9904 0.62421 0.0
C904 C 0.5123 0.99117 0.62894 0.0
H905 H 0.59723 0.05733 0.72798 0.0
H906 H 0.57626 0.04555 0.69805 0.0
C907 C 0.49832 0.98987 0.61316 0.0
C908 C 0.5475 0.99448 0.64105 0.0
H909 H 0.55956 0.98019 0.68808 0.0
C910 C 0.56176 0.01161 0.64045 0.0
C911 C 0.54722 0.98254 0.65813 0.0
C912 C 0.53329 0.96303 0.65912 0.0
C913 C 0.57513 0.01764 0.65676 0.0
C914 C 0.57394 1.00662 0.67447 0.0
C915 C 0.56028 0.98891 0.67469 0.0
C916 C 0.58645 0.01353 0.69305 0.0
C917 C 0.59045 0.03575 0.65477 0.0
C918 C 0.59867 0.99923 0.70079 0.0
C919 C 0.61056 1.00585 0.71815 0.0
C920 C 0.61045 0.02692 0.7282 0.0
C921 C 0.59789 0.04105 0.7206 0.0
C922 C 0.58595 0.03438 0.70334 0.0
H923 H 0.59354 0.03774 0.63829 0.0
H924 H 0.58484 0.05091 0.66234 0.0
H925 H 0.60453 0.0331 0.6623 0.0
H926 H 0.59921 0.98301 0.69322 0.0
H927 H 0.61999 0.99449 0.72354 0.0
H928 H 0.85093 0.18715 0.73991 0.0
H929 H 0.87277 0.18031 0.76804 0.0
H930 H 0.86518 0.24394 0.79848 0.0
H931 H 0.84305 0.25038 0.7708 0.0
H932 H 0.90804 0.20201 0.77933 0.0
H933 H 0.85688 0.20894 0.84611 0.0
H934 H 0.84825 0.2056 0.81971 0.0
H935 H 0.85657 0.23169 0.83213 0.0
C936 C 0.85367 0.1994 0.75289 0.0
C937 C 0.84541 0.21928 0.75332 0.0
C938 C 0.86618 0.19557 0.76885 0.0
C939 C 0.8704 0.2115 0.78556 0.0
C940 C 0.86181 0.23121 0.78606 0.0
H941 H 0.95214 0.25208 0.88114 0.0
H942 H 0.92531 0.24533 0.85599 0.0
C943 C 0.84936 0.23499 0.77017 0.0
C944 C 0.88489 0.20838 0.80173 0.0
H945 H 0.89165 0.21484 0.85401 0.0
C946 C 0.90438 0.20432 0.79568 0.0
C947 C 0.88012 0.21135 0.82306 0.0
C948 C 0.85925 0.21441 0.83063 0.0
C949 C 0.91944 0.20449 0.81038 0.0
C950 C 0.91483 0.20861 0.83168 0.0
C951 C 0.89519 0.21171 0.83772 0.0
C952 C 0.93042 0.21186 0.8478 0.0
C953 C 0.94037 0.20149 0.80301 0.0
C954 C 0.94207 0.1952 0.85178 0.0
C955 C 0.95735 0.19903 0.86637 0.0
C956 C 0.96089 0.21944 0.87743 0.0
C957 C 0.94924 0.23602 0.87336 0.0
C958 C 0.93401 0.23222 0.85889 0.0
H959 H 0.94195 0.2018 0.78605 0.0
H960 H 0.95067 0.21416 0.81104 0.0
H961 H 0.9449 0.18581 0.80673 0.0
H962 H 0.93946 0.17934 0.84349 0.0
H963 H 0.96639 0.1861 0.86902 0.0
H964 H 0.50965 0.9666 0.52545 0.0
H965 H 0.51723 0.93015 0.51116 0.0
H966 H 0.49075 0.90582 0.56485 0.0
H967 H 0.48327 0.94241 0.57913 0.0
H968 H 0.53647 0.89251 0.52962 0.0
H969 H 0.45625 0.88224 0.51043 0.0
H970 H 0.46905 0.90833 0.51566 0.0
H971 H 0.46308 0.89284 0.53649 0.0
C972 C 0.50613 0.95348 0.53444 0.0
C973 C 0.49595 0.9571 0.55331 0.0
C974 C 0.51042 0.93275 0.52632 0.0
C975 C 0.50444 0.91532 0.53691 0.0
C976 C 0.4955 0.91909 0.55648 0.0
H977 H 0.48081 0.78303 0.48444 0.0
H978 H 0.48469 0.8159 0.50839 0.0
C979 C 0.49134 0.9399 0.56467 0.0
C980 C 0.50503 0.89327 0.52615 0.0
H981 H 0.47555 0.85349 0.49968 0.0
C982 C 0.52318 0.88383 0.52319 0.0
C983 C 0.48765 0.88211 0.51773 0.0
C984 C 0.46786 0.89182 0.52005 0.0
C985 C 0.52436 0.86334 0.51208 0.0
C986 C 0.507 0.85233 0.50327 0.0
C987 C 0.48886 0.86182 0.50647 0.0
C988 C 0.50708 0.83123 0.49019 0.0
C989 C 0.54414 0.85363 0.51015 0.0
C990 C 0.51869 0.82859 0.47213 0.0
C991 C 0.51669 0.8096 0.45848 0.0
C992 C 0.50273 0.79306 0.46243 0.0
C993 C 0.49163 0.79547 0.48086 0.0
C994 C 0.49384 0.81429 0.4946 0.0
H995 H 0.55417 0.86054 0.52296 0.0
H996 H 0.5425 0.836 0.51014 0.0
H997 H 0.55126 0.85712 0.4954 0.0
H998 H 0.52865 0.84157 0.46806 0.0
H999 H 0.5253 0.80837 0.44432 0.0
H1000 H 0.13585 0.31646 0.73599 0.0
H1001 H 0.1089 0.311 0.76089 0.0
H1002 H 0.15148 0.29722 0.80536 0.0
H1003 H 0.17825 0.30299 0.78059 0.0
H1004 H 0.09718 0.27585 0.77951 0.0
H1005 H 0.1211 0.34236 0.83919 0.0
H1006 H 0.13119 0.3398 0.81329 0.0
H1007 H 0.14033 0.32455 0.83237 0.0
C1008 C 0.13929 0.31227 0.75111 0.0
C1009 C 0.15898 0.31031 0.75659 0.0
C1010 C 0.124 0.30922 0.76531 0.0
C1011 C 0.12823 0.3042 0.78517 0.0
C1012 C 0.14791 0.30172 0.79038 0.0
H1013 H 0.06789 0.25889 0.88831 0.0
H1014 H 0.09103 0.27178 0.86281 0.0
C1015 C 0.16316 0.30488 0.77625 0.0
C1016 C 0.11209 0.30083 0.80026 0.0
H1017 H 0.09746 0.31587 0.85002 0.0
C1018 C 0.09706 0.28481 0.79482 0.0
C1019 C 0.11191 0.31263 0.8202 0.0
C1020 C 0.12689 0.33095 0.82655 0.0
C1021 C 0.08237 0.27962 0.8091 0.0
C1022 C 0.08268 0.29085 0.82926 0.0
C1023 C 0.09735 0.30727 0.83454 0.0
C1024 C 0.06867 0.28476 0.84546 0.0
C1025 C 0.06707 0.2616 0.80286 0.0
C1026 C 0.04851 0.28831 0.8444 0.0
C1027 C 0.03523 0.28107 0.85906 0.0
C1028 C 0.04194 0.27008 0.87489 0.0
C1029 C 0.06225 0.26723 0.87626 0.0
C1030 C 0.0755 0.27459 0.86172 0.0
H1031 H 0.07046 0.25263 0.7876 0.0
H1032 H 0.06603 0.25026 0.81466 0.0
H1033 H 0.0524 0.26822 0.8019 0.0
H1034 H 0.04303 0.29631 0.83203 0.0
H1035 H 0.01967 0.28349 0.8576 0.0
H1036 H 0.57493 0.58726 0.55158 0.0
H1037 H 0.5707 0.61339 0.52708 0.0
H1038 H 0.52011 0.57492 0.50088 0.0
H1039 H 0.5246 0.54883 0.52522 0.0
H1040 H 0.54378 0.59583 0.47123 0.0
H1041 H 0.52292 0.65073 0.54035 0.0
H1042 H 0.54706 0.64066 0.54104 0.0
H1043 H 0.52548 0.62257 0.54123 0.0
C1044 C 0.56352 0.58403 0.53993 0.0
C1045 C 0.5502 0.56608 0.53999 0.0
C1046 C 0.56093 0.59903 0.52616 0.0
C1047 C 0.54488 0.59626 0.51241 0.0
C1048 C 0.53258 0.57738 0.51135 0.0
H1049 H 0.47775 0.69048 0.46387 0.0
H1050 H 0.48979 0.66157 0.48118 0.0
C1051 C 0.53518 0.56245 0.52511 0.0
C1052 C 0.5394 0.61393 0.50094 0.0
H1053 H 0.52166 0.66376 0.50807 0.0
C1054 C 0.5391 0.61077 0.47924 0.0
C1055 C 0.53287 0.6332 0.51148 0.0
C1056 C 0.53189 0.63704 0.5348 0.0
C1057 C 0.53252 0.62643 0.46777 0.0
C1058 C 0.52625 0.64582 0.47832 0.0
C1059 C 0.52656 0.64894 0.50002 0.0
C1060 C 0.5189 0.66295 0.46723 0.0
C1061 C 0.53177 0.62185 0.44449 0.0
C1062 C 0.53132 0.67344 0.45375 0.0
C1063 C 0.5245 0.68999 0.44383 0.0
C1064 C 0.50513 0.69651 0.44726 0.0
C1065 C 0.49274 0.68595 0.46083 0.0
C1066 C 0.49959 0.66939 0.47075 0.0
H1067 H 0.53245 0.60451 0.43915 0.0
H1068 H 0.51807 0.62749 0.43841 0.0
H1069 H 0.5446 0.63047 0.43776 0.0
H1070 H 0.5464 0.66904 0.45112 0.0
H1071 H 0.53452 0.69778 0.43357 0.0
H1072 H 0.86959 0.84989 0.83168 0.0
H1073 H 0.8985 0.84335 0.80921 0.0
H1074 H 0.86818 0.78576 0.77937 0.0
H1075 H 0.83924 0.79249 0.80185 0.0
H1076 H 0.92323 0.80775 0.79935 0.0
H1077 H 0.87922 0.8248 0.73258 0.0
H1078 H 0.87142 0.83134 0.75908 0.0
H1079 H 0.86824 0.80427 0.74676 0.0
C1080 C 0.86944 0.83553 0.82071 0.0
C1081 C 0.85235 0.82164 0.81842 0.0
C1082 C 0.88585 0.83186 0.80783 0.0
C1083 C 0.88533 0.81431 0.79234 0.0
C1084 C 0.86876 0.79958 0.79102 0.0
H1085 H 0.97118 0.75789 0.71064 0.0
H1086 H 0.94865 0.76896 0.73862 0.0
C1087 C 0.85238 0.80323 0.804 0.0
C1088 C 0.9015 0.81224 0.77672 0.0
H1089 H 0.91102 0.81209 0.72502 0.0
C1090 C 0.92059 0.80879 0.78312 0.0
C1091 C 0.89817 0.81415 0.75562 0.0
C1092 C 0.87821 0.81904 0.74804 0.0
C1093 C 0.93623 0.80626 0.76881 0.0
C1094 C 0.93265 0.80709 0.74755 0.0
C1095 C 0.91375 0.81142 0.7413 0.0
C1096 C 0.94772 0.80141 0.73137 0.0
C1097 C 0.95646 0.80256 0.77653 0.0
C1098 C 0.95471 0.81598 0.71778 0.0
C1099 C 0.96781 0.80968 0.70159 0.0
C1100 C 0.97372 0.78857 0.69852 0.0
C1101 C 0.96687 0.77424 0.71242 0.0
C1102 C 0.95407 0.78058 0.7286 0.0
H1103 H 0.95822 0.80861 0.7932 0.0
H1104 H 0.9585 0.78512 0.77464 0.0
H1105 H 0.96825 0.81046 0.7676 0.0
H1106 H 0.94985 0.83212 0.71956 0.0
H1107 H 0.97272 0.82103 0.6911 0.0
H1108 H 0.06326 0.942 0.50351 0.0
H1109 H 0.06013 0.91728 0.52983 0.0
H1110 H 0.05128 0.97035 0.57668 0.0
H1111 H 0.05419 0.99503 0.55003 0.0
H1112 H 0.07834 0.91296 0.56695 0.0
H1113 H 0.99993 0.93248 0.57905 0.0
H1114 H 0.01467 0.94094 0.55791 0.0
H1115 H 0.0179 0.95476 0.58356 0.0
C1116 C 0.06127 0.94835 0.51956 0.0
C1117 C 0.05902 0.97028 0.52488 0.0
C1118 C 0.05937 0.93428 0.53456 0.0
C1119 C 0.05505 0.94188 0.55518 0.0
C1120 C 0.05425 0.96407 0.56081 0.0
H1121 H 0.04671 0.85191 0.64885 0.0
H1122 H 0.05538 0.88327 0.63104 0.0
C1123 C 0.05619 0.97818 0.54571 0.0
C1124 C 0.0499 0.92626 0.57014 0.0
H1125 H 0.01136 0.90634 0.598 0.0
C1126 C 0.06377 0.91165 0.57394 0.0
C1127 C 0.03074 0.9243 0.57893 0.0
C1128 C 0.01485 0.9388 0.57458 0.0
C1129 C 0.05897 0.89501 0.58606 0.0
C1130 C 0.03984 0.89312 0.59495 0.0
C1131 C 0.02605 0.9079 0.59135 0.0
C1132 C 0.03351 0.87516 0.60695 0.0
C1133 C 0.07417 0.87907 0.58848 0.0
C1134 C 0.01769 0.86066 0.59996 0.0
C1135 C 0.01254 0.84283 0.61025 0.0
C1136 C 0.02308 0.83914 0.62781 0.0
C1137 C 0.03835 0.85419 0.63531 0.0
C1138 C 0.04344 0.87206 0.62504 0.0
H1139 H 0.0862 0.87976 0.57679 0.0
H1140 H 0.08094 0.88269 0.60405 0.0
H1141 H 0.06725 0.86251 0.58707 0.0
H1142 H 0.00972 0.86277 0.58611 0.0
H1143 H 1.00072 0.83157 0.60404 0.0
H1144 H 0.19017 0.70662 0.76705 0.0
H1145 H 0.16503 0.71571 0.74318 0.0
H1146 H 0.11928 0.70151 0.78702 0.0
H1147 H 0.14441 0.69239 0.81075 0.0
H1148 H 0.13083 0.69163 0.72535 0.0
H1149 H 0.11168 0.76401 0.7771 0.0
H1150 H 0.13384 0.75039 0.78029 0.0
H1151 H 0.11044 0.73988 0.78925 0.0
C1152 C 0.1747 0.70515 0.77133 0.0
C1153 C 0.16909 0.69895 0.79065 0.0
C1154 C 0.16041 0.71041 0.75781 0.0
C1155 C 0.14036 0.70964 0.76353 0.0
C1156 C 0.13471 0.70261 0.7825 0.0
H1157 H 0.03571 0.7138 0.69018 0.0
H1158 H 0.06255 0.70394 0.71101 0.0
C1159 C 0.14898 0.69734 0.79597 0.0
C1160 C 0.12534 0.71663 0.74991 0.0
H1161 H 0.09072 0.7533 0.7482 0.0
C1162 C 0.1221 0.70516 0.73028 0.0
C1163 C 0.11422 0.7345 0.75628 0.0
C1164 C 0.11779 0.74806 0.7768 0.0
C1165 C 0.1076 0.71073 0.71704 0.0
C1166 C 0.09592 0.72807 0.72377 0.0
C1167 C 0.09956 0.73989 0.74317 0.0
C1168 C 0.07972 0.73408 0.711 0.0
C1169 C 0.10501 0.69815 0.69591 0.0
C1170 C 0.08022 0.75452 0.70452 0.0
C1171 C 0.06482 0.76031 0.69268 0.0
C1172 C 0.04853 0.74579 0.68721 0.0
C1173 C 0.04801 0.7254 0.69399 0.0
C1174 C 0.06342 0.71964 0.7058 0.0
H1175 H 0.11829 0.68936 0.69106 0.0
H1176 H 0.09226 0.68623 0.69631 0.0
H1177 H 0.10196 0.7088 0.6841 0.0
H1178 H 0.09261 0.76596 0.70852 0.0
H1179 H 0.06574 0.77615 0.6878 0.0
H1180 H 0.98496 0.60102 0.47356 0.0
H1181 H 0.99543 0.63831 0.48649 0.0
H1182 H 0.02581 0.61633 0.53695 0.0
H1183 H 0.01521 0.57928 0.52399 0.0
H1184 H 0.98194 0.65379 0.52532 0.0
H1185 H 0.0632 0.66644 0.52227 0.0
H1186 H 0.04957 0.64543 0.50589 0.0
H1187 H 0.05523 0.6419 0.53213 0.0
C1188 C 0.99465 0.60426 0.48683 0.0
C1189 C 0.99953 0.58752 0.49775 0.0
C1190 C 1.00053 0.62547 0.49427 0.0
C1191 C 0.01157 0.63012 0.51259 0.0
C1192 C 0.01771 0.61317 0.52255 0.0
H1193 H 0.04307 0.7234 0.61336 0.0
H1194 H 0.04071 0.6953 0.58405 0.0
C1195 C 0.01168 0.59203 0.5152 0.0
C1196 C 0.01345 0.65223 0.52351 0.0
H1197 H 0.04662 0.68947 0.548 0.0
C1198 C 0.99606 0.66181 0.53018 0.0
C1199 C 0.03186 0.66272 0.52951 0.0
C1200 C 0.05104 0.6537 0.5219 0.0
C1201 C 0.99641 0.68062 0.54417 0.0
C1202 C 0.01493 0.69056 0.55148 0.0
C1203 C 0.03237 0.68175 0.54324 0.0
C1204 C 0.01678 0.70858 0.56886 0.0
C1205 C 0.97668 0.6887 0.55122 0.0
C1206 C 1.00466 0.72602 0.57033 0.0
C1207 C 1.00473 0.74081 0.58822 0.0
C1208 C 0.01808 0.73953 0.60421 0.0
C1209 C 0.03196 0.72396 0.60165 0.0
C1210 C 0.03082 0.70815 0.5846 0.0
H1211 H 0.96476 0.67566 0.54985 0.0
H1212 H 0.97701 0.69619 0.56742 0.0
H1213 H 0.97259 0.70077 0.54124 0.0
H1214 H 0.99479 0.72806 0.55791 0.0
H1215 H 0.99463 0.75352 0.58937 0.0
H1216 H 0.701 0.87039 0.20988 0.0
H1217 H 0.72815 0.89822 0.21053 0.0
H1218 H 0.76815 0.85415 0.23006 0.0
H1219 H 0.74102 0.82628 0.22869 0.0
H1220 H 0.74587 0.91444 0.24502 0.0
H1221 H 0.80313 0.88322 0.19044 0.0
H1222 H 0.77812 0.87141 0.19014 0.0
H1223 H 0.79584 0.86457 0.20824 0.0
C1224 C 0.7158 0.86659 0.21356 0.0
C1225 C 0.71914 0.84637 0.21912 0.0
C1226 C 0.73125 0.88242 0.21403 0.0
C1227 C 0.75027 0.87829 0.22021 0.0
C1228 C 0.75378 0.85763 0.22474 0.0
H1229 H 0.83293 0.9652 0.29089 0.0
H1230 H 0.80672 0.93888 0.27735 0.0
C1231 C 0.73833 0.84173 0.22403 0.0
C1232 C 0.76555 0.89619 0.22467 0.0
H1233 H 0.81407 0.91148 0.21698 0.0
C1234 C 0.7607 0.91388 0.23863 0.0
C1235 C 0.78488 0.89565 0.21624 0.0
C1236 C 0.79074 0.87778 0.20027 0.0
C1237 C 0.77478 0.9306 0.24497 0.0
C1238 C 0.79441 0.92939 0.23755 0.0
C1239 C 0.7991 0.9122 0.22292 0.0
C1240 C 0.81039 0.94531 0.24555 0.0
C1241 C 0.76846 0.94937 0.25962 0.0
C1242 C 0.82142 0.95739 0.23213 0.0
C1243 C 0.83657 0.97228 0.23987 0.0
C1244 C 0.8412 0.97479 0.26101 0.0
C1245 C 0.82994 0.96303 0.27443 0.0
C1246 C 0.81482 0.94824 0.26675 0.0
H1247 H 0.75233 0.95122 0.25855 0.0
H1248 H 0.77166 0.94667 0.27574 0.0
H1249 H 0.77654 0.96452 0.25644 0.0
H1250 H 0.81822 0.95539 0.21573 0.0
H1251 H 0.8449 0.98153 0.22935 0.0
H1252 H 0.71672 0.16846 0.35192 0.0
H1253 H 0.74372 0.14496 0.35567 0.0
H1254 H 0.77519 0.17091 0.30544 0.0
H1255 H 0.74814 0.19427 0.3017 0.0
H1256 H 0.75604 0.11453 0.3197 0.0
H1257 H 0.81721 0.17063 0.35318 0.0
H1258 H 0.79149 0.17637 0.3563 0.0
H1259 H 0.80388 0.17896 0.33214 0.0
C1260 C 0.72963 0.16935 0.34203 0.0
C1261 C 0.73049 0.18298 0.32651 0.0
C1262 C 0.74496 0.15597 0.34412 0.0
C1263 C 0.76149 0.15635 0.33094 0.0
C1264 C 0.76267 0.17058 0.31593 0.0
H1265 H 0.86264 0.08583 0.2968 0.0
H1266 H 0.83876 0.11285 0.30558 0.0
C1267 C 0.74725 0.18378 0.31371 0.0
C1268 C 0.77658 0.14047 0.33142 0.0
H1269 H 0.82553 0.13553 0.34009 0.0
C1270 C 0.77119 0.119 0.32442 0.0
C1271 C 0.7963 0.14649 0.33738 0.0
C1272 C 0.80265 0.16934 0.34533 0.0
C1273 C 0.78521 0.10345 0.32242 0.0
C1274 C 0.80507 0.10943 0.32826 0.0
C1275 C 0.81032 0.13089 0.33574 0.0
C1276 C 0.8208 0.09397 0.32525 0.0
C1277 C 0.77875 0.08102 0.31305 0.0
C1278 C 0.81916 0.07467 0.33406 0.0
C1279 C 0.83269 0.05902 0.32884 0.0
C1280 C 0.84832 0.06259 0.31504 0.0
C1281 C 0.85074 0.08254 0.30744 0.0
C1282 C 0.83708 0.09804 0.31245 0.0
H1283 H 0.76456 0.08051 0.30459 0.0
H1284 H 0.7901 0.07426 0.30216 0.0
H1285 H 0.77656 0.07061 0.32555 0.0
H1286 H 0.80706 0.07141 0.34447 0.0
H1287 H 0.83054 0.0439 0.3351 0.0
H1288 H 0.42796 0.04024 0.96863 0.0
H1289 H 0.39736 0.02003 0.97713 0.0
H1290 H 0.42177 0.01138 0.0362 0.0
H1291 H 0.45253 0.03136 0.02746 0.0
H1292 H 0.4038 0.9736 0.01416 0.0
H1293 H 0.35462 0.0408 0.01909 0.0
H1294 H 0.36884 0.03778 0.99559 0.0
H1295 H 0.38124 0.04484 0.01996 0.0
C1296 C 0.42673 0.0339 0.98335 0.0
C1297 C 0.44243 0.03724 0.99743 0.0
C1298 C 0.40925 0.02259 0.98829 0.0
C1299 C 0.4072 0.01454 1.00744 0.0
C1300 C 0.42301 0.01763 0.02143 0.0
H1301 H 0.30786 0.92904 0.04442 0.0
H1302 H 0.33775 0.95338 0.04729 0.0
C1303 C 0.44048 0.02901 0.01649 0.0
C1304 C 0.38875 1.0023 0.01244 0.0
H1305 H 0.33874 1.0055 0.016 0.0
C1306 C 0.38958 0.9806 0.01492 0.0
C1307 C 0.37028 0.01158 0.01356 0.0
C1308 C 0.36864 0.03509 0.01211 0.0
C1309 C 0.37227 0.96759 0.01724 0.0
C1310 C 0.35373 0.97667 0.0174 0.0
C1311 C 0.35299 0.99859 0.01585 0.0
C1312 C 0.33492 0.96327 0.01684 0.0
C1313 C 0.37387 0.94401 0.01836 0.0
C1314 C 0.32315 0.96138 0.99911 0.0
C1315 C 0.30614 0.94764 0.99744 0.0
C1316 C 0.30043 0.93552 0.01355 0.0
C1317 C 0.31184 0.93809 0.03172 0.0
C1318 C 0.32898 0.95187 0.03333 0.0
H1319 H 0.38903 0.93894 0.01471 0.0
H1320 H 0.37 0.94038 0.03422 0.0
H1321 H 0.36335 0.93435 1.00745 0.0
H1322 H 0.32745 0.97011 0.98625 0.0
H1323 H 0.29768 0.94624 0.98328 0.0
H1324 H 0.27161 0.34591 0.32206 0.0
H1325 H 0.24796 0.37281 0.31739 0.0
H1326 H 0.29135 0.42299 0.34026 0.0
H1327 H 0.31505 0.39599 0.34451 0.0
H1328 H 0.23178 0.40331 0.34456 0.0
H1329 H 0.27648 0.44187 0.28573 0.0
H1330 H 0.28219 0.41664 0.29385 0.0
H1331 H 0.28933 0.44135 0.30957 0.0
C1332 C 0.27595 0.36271 0.32614 0.0
C1333 C 0.29506 0.36902 0.33353 0.0
C1334 C 0.26252 0.37804 0.32347 0.0
C1335 C 0.26798 0.39996 0.32813 0.0
C1336 C 0.28695 0.40622 0.33607 0.0
H1337 H 0.2058 0.51473 0.31628 0.0
H1338 H 0.22836 0.48934 0.32697 0.0
C1339 C 0.30042 0.39088 0.3386 0.0
C1340 C 0.25384 0.41618 0.32457 0.0
H1341 H 0.24777 0.45885 0.29809 0.0
C1342 C 0.23527 0.41544 0.33439 0.0
C1343 C 0.25837 0.43199 0.31124 0.0
C1344 C 0.27759 0.43295 0.29933 0.0
C1345 C 0.22121 0.43016 0.33136 0.0
C1346 C 0.22578 0.44593 0.31806 0.0
C1347 C 0.24438 0.44682 0.3084 0.0
C1348 C 0.21121 0.46116 0.31324 0.0
C1349 C 0.20162 0.42886 0.34251 0.0
C1350 C 0.19404 0.45372 0.30209 0.0
C1351 C 0.18119 0.46816 0.29588 0.0
C1352 C 0.18525 0.49035 0.30072 0.0
C1353 C 0.20219 0.49774 0.3124 0.0
C1354 C 0.21512 0.48327 0.31847 0.0
H1355 H 0.20215 0.41934 0.35575 0.0
H1356 H 0.19704 0.44509 0.34831 0.0
H1357 H 0.19015 0.42103 0.33159 0.0
H1358 H 0.1909 0.43674 0.29761 0.0
H1359 H 0.16831 0.46194 0.28684 0.0
H1360 H 0.07531 0.04168 0.51788 0.0
H1361 H 0.10815 0.05869 0.52501 0.0
H1362 H 0.13189 0.99647 0.52156 0.0
H1363 H 0.09908 0.97958 0.51189 0.0
H1364 H 0.13451 0.06226 0.55062 0.0
H1365 H 0.16738 0.01863 0.48077 0.0
H1366 H 0.14137 0.01587 0.48636 0.0
H1367 H 0.15858 1.00132 0.49921 0.0
C1368 C 0.08759 0.03167 0.51863 0.0
C1369 C 0.08479 1.0094 0.51371 0.0
C1370 C 0.10641 0.04138 0.52286 0.0
C1371 C 0.12291 0.02901 0.52303 0.0
C1372 C 0.11972 1.00653 0.5205 0.0
H1373 H 0.23123 0.11326 0.55424 0.0
H1374 H 0.20352 0.0871 0.55754 0.0
C1375 C 0.10086 0.9968 0.51548 0.0
C1376 C 0.1432 0.04006 0.5249 0.0
H1377 H 0.18859 0.04268 0.50165 0.0
C1378 C 0.14627 0.05808 0.53973 0.0
C1379 C 0.15872 0.03473 0.51078 0.0
C1380 C 0.15633 0.01673 0.49327 0.0
C1381 C 0.16365 0.0716 0.5401 0.0
C1382 C 0.17935 0.06615 0.52615 0.0
C1383 C 0.1767 0.0473 0.51219 0.0
C1384 C 0.19795 0.08026 0.52457 0.0
C1385 C 0.16413 0.09206 0.55483 0.0
C1386 C 0.20589 0.08356 0.50499 0.0
C1387 C 0.22263 0.09743 0.50319 0.0
C1388 C 0.23112 0.10942 0.52076 0.0
C1389 C 0.2242 0.10514 0.54034 0.0
C1390 C 0.20809 0.09038 0.54222 0.0
H1391 H 0.149 0.09718 0.55858 0.0
H1392 H 0.17104 0.08936 0.56956 0.0
H1393 H 0.17256 0.10536 0.54839 0.0
H1394 H 0.19898 0.07574 0.49093 0.0
H1395 H 0.22875 0.09906 0.488 0.0
H1396 H 0.81286 0.17571 0.70487 0.0
H1397 H 0.79152 0.14459 0.7123 0.0
H1398 H 0.78041 0.17595 0.77357 0.0
H1399 H 0.8019 0.20719 0.76599 0.0
H1400 H 0.78611 0.12742 0.76817 0.0
H1401 H 0.73009 0.15462 0.71719 0.0
H1402 H 0.75457 0.15244 0.7065 0.0
H1403 H 0.75043 0.17209 0.72819 0.0
C1404 C 0.80625 0.1756 0.72008 0.0
C1405 C 0.80886 0.19364 0.73488 0.0
C1406 C 0.79405 0.15796 0.72429 0.0
C1407 C 0.78422 0.15815 0.74337 0.0
C1408 C 0.78788 0.17557 0.75875 0.0
H1409 H 0.69378 0.07476 0.79265 0.0
H1410 H 0.7214 0.1006 0.78775 0.0
C1411 C 0.80016 0.19328 0.7545 0.0
C1412 C 0.76875 0.14111 0.74634 0.0
H1413 H 0.72282 0.12151 0.72978 0.0
C1414 C 0.77222 0.12613 0.75989 0.0
C1415 C 0.75072 0.13947 0.7354 0.0
C1416 C 0.74606 0.15557 0.72109 0.0
C1417 C 0.75815 0.10927 0.76257 0.0
C1418 C 0.74002 0.10771 0.75169 0.0
C1419 C 0.73668 0.12269 0.73808 0.0
C1420 C 0.72394 0.09123 0.75476 0.0
C1421 C 0.76303 0.09306 0.77664 0.0
C1422 C 0.71587 0.07762 0.73779 0.0
C1423 C 0.69982 0.06308 0.74055 0.0
C1424 C 0.69135 0.06236 0.76022 0.0
C1425 C 0.69977 0.0755 0.77723 0.0
C1426 C 0.71576 0.08999 0.7745 0.0
H1427 H 0.77926 0.09244 0.77835 0.0
H1428 H 0.75675 0.09768 0.79223 0.0
H1429 H 0.7567 0.07681 0.77076 0.0
H1430 H 0.72192 0.07836 0.7224 0.0
H1431 H 0.69373 0.05277 0.72731 0.0
H1432 H 0.46392 0.01956 0.52213 0.0
H1433 H 0.43739 0.0406 0.51162 0.0
H1434 H 0.4095 0.03825 0.57128 0.0
H1435 H 0.43564 0.01651 0.58141 0.0
H1436 H 0.38304 0.02953 0.53983 0.0
H1437 H 0.42947 0.10327 0.52949 0.0
H1438 H 0.43748 0.07961 0.51443 0.0
H1439 H 0.43839 0.08193 0.54221 0.0
C1440 C 0.45207 0.02356 0.53291 0.0
C1441 C 0.4518 0.01656 0.55258 0.0
C1442 C 0.43704 0.03573 0.52701 0.0
C1443 C 0.42159 0.04132 0.54078 0.0
C1444 C 0.42131 0.03425 0.56043 0.0
H1445 H 0.33823 0.13811 0.53925 0.0
H1446 H 0.36603 0.11661 0.54417 0.0
C1447 C 0.43628 0.022 0.56628 0.0
C1448 C 0.40545 0.05411 0.53463 0.0
H1449 H 0.39601 0.10227 0.51913 0.0
C1450 C 0.38587 0.04542 0.53527 0.0
C1451 C 0.40914 0.07494 0.52886 0.0
C1452 C 0.42973 0.08561 0.52887 0.0
C1453 C 0.36989 0.05699 0.53041 0.0
C1454 C 0.3736 0.07767 0.52429 0.0
C1455 C 0.39319 0.08633 0.52357 0.0
C1456 C 0.35729 0.09118 0.52003 0.0
C1457 C 0.34915 0.04723 0.53259 0.0
C1458 C 0.34335 0.08434 0.50441 0.0
C1459 C 0.3273 0.0966 0.5016 0.0
C1460 C 0.32502 0.11602 0.51425 0.0
C1461 C 0.33948 0.12321 0.52926 0.0
C1462 C 0.35542 0.11094 0.5321 0.0
H1463 H 0.34871 0.03375 0.54213 0.0
H1464 H 0.33919 0.05937 0.53975 0.0
H1465 H 0.34332 0.04093 0.51704 0.0
H1466 H 0.34472 0.06938 0.49458 0.0
H1467 H 0.31648 0.09067 0.48984 0.0
H1468 H 0.56198 0.50373 0.53775 0.0
H1469 H 0.59183 0.48564 0.52623 0.0
H1470 H 0.62781 0.54186 0.55061 0.0
H1471 H 0.5978 0.5594 0.56294 0.0
H1472 H 0.62342 0.49083 0.50222 0.0
H1473 H 0.64707 0.49818 0.58418 0.0
H1474 H 0.62319 0.50555 0.57674 0.0
H1475 H 0.64473 0.5235 0.57487 0.0
C1476 C 0.57629 0.51234 0.53999 0.0
C1477 C 0.57778 0.53285 0.5511 0.0
C1478 C 0.59333 0.50202 0.53356 0.0
C1479 C 0.61213 0.51214 0.53808 0.0
C1480 C 0.6135 0.53348 0.54748 0.0
H1481 H 0.72015 0.45153 0.49394 0.0
H1482 H 0.6927 0.47484 0.49894 0.0
C1483 C 0.59643 0.54366 0.55419 0.0
C1484 C 0.63002 0.49969 0.53449 0.0
H1485 H 0.66889 0.48229 0.5593 0.0
C1486 C 0.63341 0.48902 0.51468 0.0
C1487 C 0.64281 0.49688 0.55087 0.0
C1488 C 0.6392 0.50644 0.5729 0.0
C1489 C 0.64917 0.47563 0.51079 0.0
C1490 C 0.66232 0.47338 0.52703 0.0
C1491 C 0.65895 0.48413 0.54681 0.0
C1492 C 0.6793 0.45945 0.52411 0.0
C1493 C 0.65104 0.46342 0.48951 0.0
C1494 C 0.68147 0.44354 0.53713 0.0
C1495 C 0.69745 0.43049 0.53462 0.0
C1496 C 0.71154 0.43295 0.51892 0.0
C1497 C 0.70944 0.44902 0.50603 0.0
C1498 C 0.69363 0.46228 0.50876 0.0
H1499 H 0.63677 0.46178 0.48107 0.0
H1500 H 0.66197 0.47224 0.48034 0.0
H1501 H 0.65613 0.44718 0.49035 0.0
H1502 H 0.67068 0.44109 0.54916 0.0
H1503 H 0.69859 0.41826 0.54479 0.0
H1504 H 0.6857 0.20672 0.37278 0.0
H1505 H 0.69426 0.22885 0.40555 0.0
H1506 H 0.74884 0.25142 0.37845 0.0
H1507 H 0.74014 0.22931 0.34561 0.0
H1508 H 0.7437 0.24008 0.42823 0.0
H1509 H 0.69784 0.29887 0.39684 0.0
H1510 H 0.68964 0.27089 0.39356 0.0
H1511 H 0.71114 0.27983 0.37997 0.0
C1512 C 0.69981 0.21587 0.37417 0.0
C1513 C 0.71228 0.21652 0.35688 0.0
C1514 C 0.70467 0.22845 0.39277 0.0
C1515 C 0.72211 0.24176 0.39428 0.0
C1516 C 0.73537 0.24111 0.37753 0.0
H1517 H 0.77111 0.34153 0.48557 0.0
H1518 H 0.76571 0.31052 0.45936 0.0
C1519 C 0.73048 0.22849 0.3589 0.0
C1520 C 0.72492 0.25856 0.41202 0.0
H1521 H 0.71149 0.30863 0.42975 0.0
C1522 C 0.73674 0.25512 0.42864 0.0
C1523 C 0.71562 0.27799 0.41245 0.0
C1524 C 0.70285 0.28232 0.39479 0.0
C1525 C 0.73952 0.2708 0.44583 0.0
C1526 C 0.7305 0.29047 0.44609 0.0
C1527 C 0.71845 0.29364 0.42952 0.0
C1528 C 0.73386 0.30837 0.46293 0.0
C1529 C 0.75176 0.26596 0.46367 0.0
C1530 C 0.71775 0.31777 0.4734 0.0
C1531 C 0.72083 0.33577 0.48809 0.0
C1532 C 0.74002 0.34487 0.49211 0.0
C1533 C 0.75614 0.33509 0.48219 0.0
C1534 C 0.75308 0.31715 0.46752 0.0
H1535 H 0.75207 0.24844 0.46418 0.0
H1536 H 0.76721 0.27241 0.46175 0.0
H1537 H 0.74602 0.27342 0.47869 0.0
H1538 H 0.70278 0.31128 0.47006 0.0
H1539 H 0.70825 0.34287 0.49593 0.0
H1540 H 0.52632 0.05963 0.98136 0.0
H1541 H 0.55137 0.05631 0.95359 0.0
H1542 H 0.50649 0.06253 0.90868 0.0
H1543 H 0.48165 0.06566 0.9364 0.0
H1544 H 0.52844 0.02669 0.89878 0.0
H1545 H 0.57728 0.10055 0.91836 0.0
H1546 H 0.57264 0.08425 0.93892 0.0
H1547 H 0.5527 0.09732 0.929 0.0
C1548 C 0.52206 0.06078 0.96559 0.0
C1549 C 0.50222 0.06288 0.96084 0.0
C1550 C 0.53628 0.05886 0.94976 0.0
C1551 C 0.53078 0.05918 0.92905 0.0
C1552 C 0.51104 0.06214 0.92452 0.0
H1553 H 0.59629 0.07406 0.81846 0.0
H1554 H 0.57523 0.07612 0.84905 0.0
C1555 C 0.49691 0.06402 0.94028 0.0
C1556 C 0.54516 0.05525 0.91184 0.0
H1557 H 0.5869 0.07633 0.89005 0.0
C1558 C 0.5413 0.03746 0.89691 0.0
C1559 C 0.56186 0.06938 0.90943 0.0
C1560 C 0.56638 0.08905 0.92465 0.0
C1561 C 0.55347 0.03364 0.87941 0.0
C1562 C 0.57012 0.04783 0.87693 0.0
C1563 C 0.57418 0.0654 0.89206 0.0
C1564 C 0.58264 0.04573 0.85801 0.0
C1565 C 0.54799 0.01493 0.86335 0.0
C1566 C 0.59372 0.02779 0.85271 0.0
C1567 C 0.60582 0.02645 0.83502 0.0
C1568 C 0.60712 0.04312 0.82241 0.0
C1569 C 0.59574 0.06089 0.82773 0.0
C1570 C 0.5837 0.06217 0.84531 0.0
H1571 H 0.53266 1.00818 0.86551 0.0
H1572 H 0.54939 0.01975 0.84752 0.0
H1573 H 0.55822 1.0021 0.86451 0.0
H1574 H 0.59332 0.01503 0.86245 0.0
H1575 H 0.61449 0.01264 0.83152 0.0
H1576 H 0.29967 0.28777 0.33905 0.0
H1577 H 0.29962 0.25938 0.36158 0.0
H1578 H 0.35321 0.28885 0.39045 0.0
H1579 H 0.35276 0.31773 0.36817 0.0
H1580 H 0.3241 0.22941 0.37081 0.0
H1581 H 0.31549 0.29023 0.43923 0.0
H1582 H 0.31381 0.29658 0.41308 0.0
H1583 H 0.33754 0.29391 0.42416 0.0
C1584 C 0.31163 0.28785 0.34993 0.0
C1585 C 0.32608 0.30494 0.35212 0.0
C1586 C 0.31162 0.27168 0.36281 0.0
C1587 C 0.3261 0.27225 0.37814 0.0
C1588 C 0.34157 0.28835 0.37912 0.0
H1589 H 0.31497 0.19249 0.48148 0.0
H1590 H 0.33038 0.21523 0.45679 0.0
C1591 C 0.34151 0.30465 0.36623 0.0
C1592 C 0.32383 0.25692 0.39388 0.0
H1593 H 0.31361 0.25425 0.44516 0.0
C1594 C 0.32209 0.23486 0.38711 0.0
C1595 C 0.32112 0.26397 0.4152 0.0
C1596 C 0.32191 0.28744 0.42342 0.0
C1597 C 0.31712 0.2198 0.40088 0.0
C1598 C 0.31367 0.22693 0.42198 0.0
C1599 C 0.31635 0.24884 0.42898 0.0
C1600 C 0.3051 0.21224 0.43646 0.0
C1601 C 0.3151 0.19636 0.39267 0.0
C1602 C 0.28577 0.20318 0.4333 0.0
C1603 C 0.27689 0.19046 0.44741 0.0
C1604 C 0.28715 0.18638 0.46504 0.0
C1605 C 0.30668 0.19522 0.46804 0.0
C1606 C 0.3155 0.20823 0.45397 0.0
H1607 H 0.32325 0.19299 0.37785 0.0
H1608 H 0.32064 0.18643 0.40405 0.0
H1609 H 0.29925 0.19147 0.38981 0.0
H1610 H 0.27735 0.20631 0.42008 0.0
H1611 H 0.26188 0.18391 0.44449 0.0
H1612 H 0.52742 0.53768 0.97559 0.0
H1613 H 0.50412 0.54277 0.94824 0.0
H1614 H 0.49928 0.47464 0.92978 0.0
H1615 H 0.52298 0.46964 0.95675 0.0
H1616 H 0.50854 0.52813 0.90349 0.0
H1617 H 0.44083 0.49346 0.93911 0.0
H1618 H 0.46264 0.5032 0.95393 0.0
H1619 H 0.46201 0.47764 0.93837 0.0
C1620 C 0.52143 0.52387 0.96557 0.0
C1621 C 0.52688 0.50327 0.96823 0.0
C1622 C 0.5081 0.52676 0.95008 0.0
C1623 C 0.49982 0.50906 0.93719 0.0
C1624 C 0.50527 0.48847 0.93981 0.0
H1625 H 0.44445 0.48263 0.82122 0.0
H1626 H 0.46596 0.48862 0.85138 0.0
C1627 C 0.51874 0.48561 0.95518 0.0
C1628 C 0.48594 0.51208 0.92056 0.0
H1629 H 0.43863 0.49934 0.90376 0.0
C1630 C 0.49319 0.5221 0.90365 0.0
C1631 C 0.46589 0.5044 0.92095 0.0
C1632 C 0.45725 0.49421 0.93912 0.0
C1633 C 0.4811 0.52367 0.8866 0.0
C1634 C 0.46132 0.51505 0.88656 0.0
C1635 C 0.45381 0.50595 0.90389 0.0
C1636 C 0.44894 0.51315 0.86779 0.0
C1637 C 0.48964 0.53401 0.86849 0.0
C1638 C 0.43226 0.52511 0.867 0.0
C1639 C 0.41995 0.52188 0.84958 0.0
C1640 C 0.42395 0.5063 0.83297 0.0
C1641 C 0.44087 0.49467 0.83379 0.0
C1642 C 0.45325 0.49812 0.85097 0.0
H1643 H 0.5035 0.54391 0.87266 0.0
H1644 H 0.49303 0.52136 0.8558 0.0
H1645 H 0.47881 0.54422 0.86254 0.0
H1646 H 0.42867 0.5367 0.87995 0.0
H1647 H 0.40696 0.53098 0.84943 0.0
H1648 H 0.70526 0.82626 0.17753 0.0
H1649 H 0.71833 0.8065 0.1459 0.0
H1650 H 0.73066 0.75469 0.18032 0.0
H1651 H 0.71774 0.77454 0.21188 0.0
H1652 H 0.7559 0.78602 0.13559 0.0
H1653 H 0.6897 0.72902 0.13478 0.0
H1654 H 0.69101 0.75479 0.15034 0.0
H1655 H 0.70345 0.733 0.15852 0.0
C1656 C 0.71123 0.81089 0.17833 0.0
C1657 C 0.71032 0.8017 0.19692 0.0
C1658 C 0.71861 0.79961 0.16033 0.0
C1659 C 0.72514 0.779 0.16074 0.0
C1660 C 0.72541 0.77043 0.17963 0.0
H1661 H 0.77976 0.69266 0.06605 0.0
H1662 H 0.77324 0.71832 0.0962 0.0
C1663 C 0.71806 0.78171 0.19759 0.0
C1664 C 0.73011 0.76575 0.14123 0.0
H1665 H 0.71439 0.72073 0.10971 0.0
C1666 C 0.74686 0.77176 0.12987 0.0
C1667 C 0.71808 0.74734 0.13369 0.0
C1668 C 0.69945 0.74067 0.14482 0.0
C1669 C 0.7521 0.75952 0.11132 0.0
C1670 C 0.74035 0.74078 0.1041 0.0
C1671 C 0.72343 0.73504 0.11531 0.0
C1672 C 0.74523 0.72673 0.085 0.0
C1673 C 0.77 0.76688 0.09946 0.0
C1674 C 0.73161 0.72283 0.06871 0.0
C1675 C 0.73522 0.70809 0.05147 0.0
C1676 C 0.7525 0.69678 0.05022 0.0
C1677 C 0.76633 0.70109 0.06641 0.0
C1678 C 0.7627 0.71588 0.08364 0.0
H1679 H 0.7744 0.78405 0.10413 0.0
H1680 H 0.7826 0.75739 0.1026 0.0
H1681 H 0.76719 0.7644 0.08254 0.0
H1682 H 0.71798 0.73096 0.06951 0.0
H1683 H 0.7242 0.7052 0.03938 0.0
H1684 H 0.0137 1.00442 0.09378 0.0
H1685 H 0.99206 0.99859 0.12343 0.0
H1686 H 0.01298 0.0601 0.15454 0.0
H1687 H 0.0347 0.0658 0.12486 0.0
H1688 H 0.012 0.02373 0.17915 0.0
H1689 H 0.94129 0.03186 0.13931 0.0
H1690 H 0.95785 0.01382 0.12574 0.0
H1691 H 0.9649 0.04193 0.13005 0.0
C1692 C 0.01364 0.01658 0.10703 0.0
C1693 C 0.02569 0.03554 0.10719 0.0
C1694 C 1.00127 0.01333 0.12383 0.0
C1695 C 1.00082 0.02902 0.14104 0.0
C1696 C 0.01308 0.04787 0.14134 0.0
H1697 H 0.91473 0.03732 0.24096 0.0
H1698 H 0.93776 0.04475 0.21319 0.0
C1699 C 0.02537 0.05115 0.12446 0.0
C1700 C 0.9876 0.02567 0.15876 0.0
H1701 H 0.93897 0.02036 0.17261 0.0
C1702 C 0.99603 0.02304 0.17779 0.0
C1703 C 0.96682 0.025 0.1569 0.0
C1704 C 0.95709 0.02846 0.13697 0.0
C1705 C 0.98414 0.01932 0.19496 0.0
C1706 C 0.96334 0.01811 0.19294 0.0
C1707 C 0.95494 0.02116 0.17403 0.0
C1708 C 0.95 0.01374 0.2103 0.0
C1709 C 0.99386 0.0169 0.21518 0.0
C1710 C 0.94924 0.99378 0.21781 0.0
C1711 C 0.93603 0.98941 0.23364 0.0
C1712 C 0.92334 1.00494 0.24229 0.0
C1713 C 0.9243 0.02499 0.23477 0.0
C1714 C 0.93743 0.02929 0.21886 0.0
H1715 H 0.0097 0.02271 0.21541 0.0
H1716 H 0.98614 0.0258 0.22834 0.0
H1717 H 0.99296 0.99974 0.21754 0.0
H1718 H 0.95864 0.98147 0.21117 0.0
H1719 H 0.93567 0.97378 0.23897 0.0
H1720 H 0.31988 0.7793 0.21111 0.0
H1721 H 0.31123 0.80413 0.18679 0.0
H1722 H 0.32475 0.7572 0.13554 0.0
H1723 H 0.33292 0.73232 0.15993 0.0
H1724 H 0.33142 0.82242 0.15616 0.0
H1725 H 0.26876 0.76909 0.12256 0.0
H1726 H 0.28119 0.76442 0.14577 0.0
H1727 H 0.2917 0.75635 0.12074 0.0
C1728 C 0.32116 0.77451 0.19463 0.0
C1729 C 0.32692 0.754 0.18724 0.0
C1730 C 0.31619 0.7886 0.18078 0.0
C1731 C 0.31692 0.78236 0.15933 0.0
C1732 C 0.32355 0.76216 0.152 0.0
H1733 H 0.2971 0.8394 0.04853 0.0
H1734 H 0.30864 0.81935 0.07539 0.0
C1735 C 0.32835 0.74804 0.16585 0.0
C1736 C 0.31042 0.79674 0.14463 0.0
H1737 H 0.2786 0.79892 0.10473 0.0
C1738 C 0.31977 0.81734 0.14503 0.0
C1739 C 0.29506 0.7902 0.13022 0.0
C1740 C 0.28345 0.7689 0.1299 0.0
C1741 C 0.31458 0.83128 0.13097 0.0
C1742 C 0.2997 0.82442 0.11622 0.0
C1743 C 0.29013 0.80402 0.11601 0.0
C1744 C 0.29405 0.83795 0.10048 0.0
C1745 C 0.32526 0.85308 0.1316 0.0
C1746 C 0.28214 0.85517 0.10577 0.0
C1747 C 0.27538 0.86663 0.09042 0.0
C1748 C 0.28049 0.86105 0.06954 0.0
C1749 C 0.29291 0.84416 0.06445 0.0
C1750 C 0.29952 0.83266 0.07976 0.0
H1751 H 0.33774 0.85526 0.14272 0.0
H1752 H 0.33103 0.85554 0.11597 0.0
H1753 H 0.31474 0.86557 0.13619 0.0
H1754 H 0.27765 0.85936 0.12169 0.0
H1755 H 0.26581 0.87952 0.09483 0.0
H1756 H 0.98429 0.48756 0.11524 0.0
H1757 H 1.00847 0.49177 0.14337 0.0
H1758 H 0.05583 0.48692 0.09852 0.0
H1759 H 0.03151 0.48357 0.07037 0.0
H1760 H 0.03809 0.46899 0.15586 0.0
H1761 H 0.06891 0.5454 0.13047 0.0
H1762 H 0.04646 0.53168 0.11988 0.0
H1763 H 0.07009 0.52254 0.11128 0.0
C1764 C 0.99987 0.48723 0.11148 0.0
C1765 C 1.00615 0.48568 0.09075 0.0
C1766 C 0.01367 0.48953 0.1275 0.0
C1767 C 0.03401 0.49022 0.12309 0.0
C1768 C 0.04024 0.48698 0.10232 0.0
H1769 H 0.12312 0.49894 0.22172 0.0
H1770 H 0.1021 0.48606 0.19194 0.0
C1771 C 0.02639 0.48481 0.08626 0.0
C1772 C 0.04848 0.49578 0.14023 0.0
H1773 H 0.08375 0.53405 0.15938 0.0
C1774 C 0.04818 0.48314 0.15659 0.0
C1775 C 0.06141 0.51446 0.14136 0.0
C1776 C 0.06168 0.52944 0.12494 0.0
C1777 C 0.0603 0.48874 0.17406 0.0
C1778 C 0.07338 0.50729 0.17505 0.0
C1779 C 0.07382 0.51977 0.15859 0.0
C1780 C 0.08604 0.51474 0.1934 0.0
C1781 C 0.05843 0.47518 0.19163 0.0
C1782 C 0.08437 0.53533 0.20393 0.0
C1783 C 0.09652 0.54286 0.22081 0.0
C1784 C 0.11067 0.52996 0.22762 0.0
C1785 C 0.11229 0.50928 0.21707 0.0
C1786 C 0.10018 0.50181 0.20007 0.0
H1787 H 0.04439 0.46499 0.19083 0.0
H1788 H 0.07083 0.46448 0.1908 0.0
H1789 H 0.0591 0.48531 0.20683 0.0
H1790 H 0.07361 0.54565 0.19906 0.0
H1791 H 0.09481 0.55886 0.22847 0.0
H1792 H 0.35989 0.68866 0.2332 0.0
H1793 H 0.38095 0.68385 0.26258 0.0
H1794 H 0.36693 0.74592 0.2925 0.0
H1795 H 0.34538 0.75022 0.2636 0.0
H1796 H 0.4138 0.70804 0.27509 0.0
H1797 H 0.36055 0.71113 0.34009 0.0
H1798 H 0.35272 0.70737 0.31342 0.0
H1799 H 0.35931 0.73382 0.32616 0.0
C1800 C 0.36103 0.70098 0.24633 0.0
C1801 C 0.3512 0.71986 0.24619 0.0
C1802 C 0.3731 0.69831 0.26302 0.0
C1803 C 0.37538 0.71442 0.27991 0.0
C1804 C 0.36511 0.73305 0.27993 0.0
H1805 H 0.45469 0.75841 0.37803 0.0
H1806 H 0.42835 0.75131 0.35226 0.0
C1807 C 0.35302 0.73565 0.26332 0.0
C1808 C 0.3897 0.7127 0.29667 0.0
H1809 H 0.39486 0.71904 0.3492 0.0
C1810 C 0.40959 0.71 0.29129 0.0
C1811 C 0.38424 0.71524 0.31784 0.0
C1812 C 0.36299 0.71682 0.32471 0.0
C1813 C 0.42428 0.71093 0.30649 0.0
C1814 C 0.41891 0.71446 0.32762 0.0
C1815 C 0.39895 0.71639 0.33301 0.0
C1816 C 0.43397 0.71795 0.34424 0.0
C1817 C 0.44557 0.70919 0.29985 0.0
C1818 C 0.4457 0.70147 0.34849 0.0
C1819 C 0.46064 0.70548 0.36343 0.0
C1820 C 0.46378 0.72591 0.37454 0.0
C1821 C 0.45206 0.74233 0.37022 0.0
C1822 C 0.43712 0.73833 0.3554 0.0
H1823 H 0.44759 0.70975 0.28296 0.0
H1824 H 0.45509 0.72232 0.30831 0.0
H1825 H 0.45072 0.6938 0.30365 0.0
H1826 H 0.44344 0.6856 0.3401 0.0
H1827 H 0.46976 0.69268 0.36626 0.0
H1828 H 0.01355 0.46256 0.02526 0.0
H1829 H 0.02005 0.42563 0.01149 0.0
H1830 H 0.98941 0.40268 0.06369 0.0
H1831 H 0.98295 0.43973 0.07738 0.0
H1832 H 0.03636 0.38742 0.02986 0.0
H1833 H 0.95661 0.38017 0.00877 0.0
H1834 H 0.97006 0.40578 0.0149 0.0
H1835 H 0.96275 0.39 0.03517 0.0
C1836 C 1.00885 0.44961 0.03406 0.0
C1837 C 0.99779 0.45375 0.05229 0.0
C1838 C 0.01253 0.4286 0.02623 0.0
C1839 C 1.00506 0.41145 0.03649 0.0
C1840 C 0.99528 0.41572 0.05555 0.0
H1841 H 0.97842 0.27913 0.98569 0.0
H1842 H 0.9828 0.31239 0.00901 0.0
C1843 C 0.9917 0.43679 0.06342 0.0
C1844 C 1.00511 0.3893 0.02583 0.0
H1845 H 0.97488 0.35026 0.99927 0.0
C1846 C 0.02294 0.37916 0.02328 0.0
C1847 C 0.98758 0.37869 0.01718 0.0
C1848 C 0.96813 0.38916 0.01895 0.0
C1849 C 0.02364 0.3585 0.0124 0.0
C1850 C 1.00612 0.348 1.00344 0.0
C1851 C 0.9883 0.3582 1.00619 0.0
C1852 C 1.00573 0.3267 0.9907 0.0
C1853 C 0.04306 0.34805 0.01089 0.0
C1854 C 0.01743 0.32338 0.97276 0.0
C1855 C 0.01511 0.30418 0.95945 0.0
C1856 C 1.00077 0.28808 0.96361 0.0
C1857 C 0.98954 0.2912 0.98192 0.0
C1858 C 0.99203 0.31024 0.99531 0.0
H1859 H 0.05314 0.35485 0.02369 0.0
H1860 H 0.04084 0.3305 0.01122 0.0
H1861 H 0.05045 0.35094 0.9961 0.0
H1862 H 0.02774 0.33598 0.96853 0.0
H1863 H 0.02386 0.30242 0.94539 0.0
H1864 H 0.64467 0.83947 0.24596 0.0
H1865 H 0.61865 0.83449 0.27202 0.0
H1866 H 0.64905 0.78261 0.2918 0.0
H1867 H 0.67498 0.78762 0.26576 0.0
H1868 H 0.59492 0.79287 0.27697 0.0
H1869 H 0.64008 0.82711 0.3452 0.0
H1870 H 0.64578 0.83324 0.31929 0.0
H1871 H 0.65158 0.80797 0.32689 0.0
C1872 C 0.64566 0.82703 0.25592 0.0
C1873 C 0.66166 0.81389 0.25401 0.0
C1874 C 0.63088 0.82419 0.2707 0.0
C1875 C 0.63209 0.80833 0.28391 0.0
C1876 C 0.64799 0.79506 0.28185 0.0
H1877 H 0.56987 0.7572 0.38303 0.0
H1878 H 0.59338 0.7698 0.35788 0.0
C1879 C 0.66266 0.7978 0.26698 0.0
C1880 C 0.61668 0.80542 0.29977 0.0
H1881 H 0.60927 0.80922 0.35197 0.0
C1882 C 0.5979 0.79664 0.29338 0.0
C1883 C 0.62075 0.81037 0.32109 0.0
C1884 C 0.64058 0.82035 0.32864 0.0
C1885 C 0.58326 0.79177 0.30785 0.0
C1886 C 0.58743 0.79638 0.32926 0.0
C1887 C 0.60608 0.80575 0.33558 0.0
C1888 C 0.57324 0.79008 0.34532 0.0
C1889 C 0.56385 0.78083 0.30006 0.0
C1890 C 0.55421 0.79774 0.34703 0.0
C1891 C 0.54061 0.79041 0.36136 0.0
C1892 C 0.54593 0.7755 0.37437 0.0
C1893 C 0.56526 0.76864 0.37321 0.0
C1894 C 0.57875 0.77584 0.35884 0.0
H1895 H 0.56477 0.77397 0.28356 0.0
H1896 H 0.55901 0.76778 0.30937 0.0
H1897 H 0.55236 0.79266 0.30141 0.0
H1898 H 0.54979 0.80914 0.33709 0.0
H1899 H 0.52586 0.79609 0.36197 0.0
H1900 H 0.03762 0.04337 0.02406 0.0
H1901 H 0.03272 0.06957 0.99996 0.0
H1902 H 0.06579 0.11797 0.0406 0.0
H1903 H 0.06991 0.09178 0.06492 0.0
H1904 H 0.03086 0.13064 0.03317 0.0
H1905 H 0.06346 0.09986 0.95804 0.0
H1906 H 0.04665 0.0803 0.96782 0.0
H1907 H 0.06896 0.08946 0.98182 0.0
C1908 C 0.04454 0.05938 0.02725 0.0
C1909 C 0.05439 0.06563 0.04603 0.0
C1910 C 0.04173 0.07438 0.01355 0.0
C1911 C 0.04901 0.09579 0.01833 0.0
C1912 C 0.06008 0.10158 0.0365 0.0
H1913 H 0.03502 0.19688 0.94005 0.0
H1914 H 0.04794 0.16962 0.9589 0.0
C1915 C 0.06264 0.08664 0.05028 0.0
C1916 C 0.04276 0.11265 1.00609 0.0
H1917 H 0.03982 0.12652 0.95714 0.0
C1918 C 0.03304 0.12982 0.01657 0.0
C1919 C 0.04565 0.11174 0.98444 0.0
C1920 C 0.05693 0.09446 0.97241 0.0
C1921 C 0.02584 0.14581 1.00602 0.0
C1922 C 0.02786 0.14434 0.98425 0.0
C1923 C 0.03799 0.12748 0.97379 0.0
C1924 C 0.01975 0.16032 0.97218 0.0
C1925 C 0.01636 0.16428 0.01842 0.0
C1926 C 0.99951 0.16393 0.97303 0.0
C1927 C 0.99207 0.17966 0.96241 0.0
C1928 C 1.00468 0.19193 0.95045 0.0
C1929 C 0.02485 0.18781 0.94914 0.0
C1930 C 0.03229 0.17218 0.95989 0.0
H1931 H 0.02111 0.16632 0.03485 0.0
H1932 H 0.02004 0.1795 0.01185 0.0
H1933 H 1.00006 0.16112 0.01814 0.0
H1934 H 0.98944 0.15461 0.98199 0.0
H1935 H 0.97642 0.18216 0.96358 0.0
H1936 H 0.37185 0.35411 0.33239 0.0
H1937 H 0.39949 0.34547 0.30879 0.0
H1938 H 0.36693 0.28726 0.28359 0.0
H1939 H 0.33911 0.2963 0.30692 0.0
H1940 H 0.42383 0.31143 0.29877 0.0
H1941 H 0.37431 0.32087 0.23374 0.0
H1942 H 0.36779 0.32862 0.26041 0.0
H1943 H 0.36517 0.30097 0.24958 0.0
C1944 C 0.37092 0.33919 0.32218 0.0
C1945 C 0.35342 0.3259 0.3213 0.0
C1946 C 0.38663 0.3343 0.30867 0.0
C1947 C 0.38508 0.316 0.29404 0.0
C1948 C 0.36828 0.30171 0.29444 0.0
H1949 H 0.45103 0.2614 0.19058 0.0
H1950 H 0.42808 0.2713 0.21851 0.0
C1951 C 0.35253 0.30667 0.30794 0.0
C1952 C 0.40018 0.31289 0.27733 0.0
H1953 H 0.40592 0.30851 0.22478 0.0
C1954 C 0.41996 0.31089 0.2826 0.0
C1955 C 0.39519 0.31257 0.25623 0.0
C1956 C 0.37451 0.31609 0.24959 0.0
C1957 C 0.43468 0.30771 0.26727 0.0
C1958 C 0.42952 0.30676 0.24617 0.0
C1959 C 0.40985 0.30923 0.24097 0.0
C1960 C 0.44385 0.30145 0.22914 0.0
C1961 C 0.45551 0.30466 0.27367 0.0
C1962 C 0.46029 0.31533 0.22551 0.0
C1963 C 0.47358 0.30975 0.20929 0.0
C1964 C 0.47067 0.29012 0.19655 0.0
C1965 C 0.45394 0.27655 0.20012 0.0
C1966 C 0.44071 0.28218 0.21612 0.0
H1967 H 0.45644 0.30254 0.29031 0.0
H1968 H 0.46133 0.29052 0.26428 0.0
H1969 H 0.46518 0.31892 0.27087 0.0
H1970 H 0.46282 0.33046 0.23519 0.0
H1971 H 0.48627 0.32056 0.20699 0.0
H1972 H 0.53971 0.49782 0.04997 0.0
H1973 H 0.53557 0.47202 0.07522 0.0
H1974 H 0.57083 0.42851 0.0365 0.0
H1975 H 0.57357 0.45382 0.01073 0.0
H1976 H 0.53909 0.40838 0.04531 0.0
H1977 H 0.56621 0.45198 0.11929 0.0
H1978 H 0.54759 0.4661 0.10844 0.0
H1979 H 0.57072 0.46236 0.09494 0.0
C1980 C 0.54721 0.48308 0.04741 0.0
C1981 C 0.55744 0.47797 0.02879 0.0
C1982 C 0.54486 0.4683 0.06181 0.0
C1983 C 0.55311 0.44828 0.05804 0.0
C1984 C 0.56436 0.4438 0.03991 0.0
H1985 H 0.55095 0.35275 0.14412 0.0
H1986 H 0.55865 0.38315 0.12486 0.0
C1987 C 0.56625 0.45837 0.02532 0.0
C1988 C 0.54806 0.43109 0.0715 0.0
H1989 H 0.54525 0.42015 0.12167 0.0
C1990 C 0.54067 0.41097 0.062 0.0
C1991 C 0.55015 0.43422 0.09331 0.0
C1992 C 0.5593 0.45477 0.10455 0.0
C1993 C 0.53533 0.39404 0.07352 0.0
C1994 C 0.53645 0.39748 0.09541 0.0
C1995 C 0.544 0.41753 0.10495 0.0
C1996 C 0.5308 0.38016 0.10852 0.0
C1997 C 0.52914 0.37246 0.06194 0.0
C1998 C 0.51226 0.3687 0.10643 0.0
C1999 C 0.50796 0.35098 0.11716 0.0
C2000 C 0.52188 0.34475 0.13069 0.0
C2001 C 0.53987 0.35712 0.13383 0.0
C2002 C 0.54431 0.37454 0.12279 0.0
H2003 H 0.53493 0.37085 0.04582 0.0
H2004 H 0.53444 0.35924 0.06977 0.0
H2005 H 0.51278 0.37061 0.06109 0.0
H2006 H 0.50125 0.37313 0.09612 0.0
H2007 H 0.4939 0.3419 0.11455 0.0
H2008 H 0.64818 0.20065 0.31276 0.0
H2009 H 0.62263 0.20901 0.28916 0.0
H2010 H 0.66789 0.22634 0.24596 0.0
H2011 H 0.69344 0.21797 0.26971 0.0
H2012 H 0.61897 0.24923 0.27556 0.0
H2013 H 0.62843 0.18579 0.20974 0.0
H2014 H 0.63822 0.18439 0.23518 0.0
H2015 H 0.65062 0.20141 0.21823 0.0
C2016 C 0.65256 0.20606 0.29812 0.0
C2017 C 0.67264 0.20867 0.29292 0.0
C2018 C 0.63804 0.21082 0.28469 0.0
C2019 C 0.64337 0.21815 0.26576 0.0
C2020 C 0.66345 0.22037 0.26034 0.0
H2021 H 0.56658 0.28398 0.19119 0.0
H2022 H 0.59341 0.27483 0.21261 0.0
C2023 C 0.678 0.2156 0.27383 0.0
C2024 C 0.62788 0.22444 0.25227 0.0
H2025 H 0.60623 0.21218 0.20488 0.0
C2026 C 0.61618 0.24116 0.26009 0.0
C2027 C 0.62422 0.21377 0.23218 0.0
C2028 C 0.6359 0.19521 0.22332 0.0
C2029 C 0.60089 0.24752 0.24834 0.0
C2030 C 0.59739 0.23703 0.22815 0.0
C2031 C 0.60907 0.22028 0.22033 0.0
C2032 C 0.58121 0.2427 0.21516 0.0
C2033 C 0.58831 0.26506 0.2578 0.0
C2034 C 0.56563 0.22755 0.20926 0.0
C2035 C 0.55028 0.23268 0.19701 0.0
C2036 C 0.55028 0.25307 0.19028 0.0
C2037 C 0.56601 0.26819 0.19617 0.0
C2038 C 0.58135 0.26302 0.20847 0.0
H2039 H 0.59006 0.26814 0.27487 0.0
H2040 H 0.59278 0.28008 0.25122 0.0
H2041 H 0.57245 0.26095 0.25422 0.0
H2042 H 0.56528 0.21176 0.21424 0.0
H2043 H 0.53851 0.22057 0.19272 0.0
H2044 H 0.50143 0.08418 0.03139 0.0
H2045 H 0.51468 0.11939 0.04638 0.0
H2046 H 0.51232 0.14194 0.98648 0.0
H2047 H 0.49685 0.10709 0.97207 0.0
H2048 H 0.54374 0.14529 0.04385 0.0
H2049 H 0.47994 0.1847 0.01608 0.0
H2050 H 0.48122 0.15613 0.0124 0.0
H2051 H 0.49521 0.1726 0.99588 0.0
C2052 C 0.50378 0.0967 0.02147 0.0
C2053 C 0.4976 0.09317 1.0008 0.0
C2054 C 0.5115 0.11682 0.02997 0.0
C2055 C 0.51384 0.13377 0.0178 0.0
C2056 C 0.50981 0.12952 0.99648 0.0
H2057 H 0.55515 0.24702 0.10465 0.0
H2058 H 0.557 0.2204 0.0742 0.0
C2059 C 0.50139 0.10946 0.98811 0.0
C2060 C 0.51917 0.15583 0.02816 0.0
H2061 H 0.5026 0.20602 0.0373 0.0
C2062 C 0.53462 0.15857 0.04258 0.0
C2063 C 0.50754 0.17334 0.02624 0.0
C2064 C 0.48997 0.17158 0.01196 0.0
C2065 C 0.53762 0.17735 0.05648 0.0
C2066 C 0.52553 0.19475 0.05508 0.0
C2067 C 0.51148 0.1927 0.03908 0.0
C2068 C 0.52524 0.21396 0.07118 0.0
C2069 C 0.55309 0.1774 0.07298 0.0
C2070 C 0.50697 0.22171 0.07815 0.0
C2071 C 0.50607 0.23806 0.09456 0.0
C2072 C 0.52318 0.24611 0.10535 0.0
C2073 C 0.54158 0.24 0.09738 0.0
C2074 C 0.5426 0.22446 0.08014 0.0
H2075 H 0.55652 0.16092 0.07544 0.0
H2076 H 0.56699 0.18566 0.06806 0.0
H2077 H 0.54837 0.18562 0.08801 0.0
H2078 H 0.49317 0.21467 0.07144 0.0
H2079 H 0.49186 0.24394 0.09925 0.0
H2080 H 0.23479 0.32863 0.75427 0.0
H2081 H 0.26343 0.35466 0.75493 0.0
H2082 H 0.24125 0.37872 0.70107 0.0
H2083 H 0.21246 0.35258 0.70051 0.0
H2084 H 0.29022 0.36826 0.71077 0.0
H2085 H 0.24767 0.42515 0.76334 0.0
H2086 H 0.24474 0.39693 0.76575 0.0
H2087 H 0.23571 0.4067 0.74318 0.0
C2088 C 0.23632 0.33923 0.74239 0.0
C2089 C 0.22156 0.33886 0.72743 0.0
C2090 C 0.25259 0.35401 0.74274 0.0
C2091 C 0.2543 0.3686 0.72811 0.0
C2092 C 0.24012 0.3675 0.71243 0.0
H2093 H 0.34854 0.47235 0.72909 0.0
H2094 H 0.32289 0.44459 0.71639 0.0
C2095 C 0.22382 0.35262 0.71206 0.0
C2096 C 0.26999 0.38606 0.73058 0.0
H2097 H 0.28156 0.43427 0.75891 0.0
C2098 C 0.28829 0.38297 0.72088 0.0
C2099 C 0.26736 0.40494 0.74405 0.0
C2100 C 0.24782 0.40885 0.75471 0.0
C2101 C 0.30437 0.39812 0.72482 0.0
C2102 C 0.302 0.41668 0.739 0.0
C2103 C 0.28341 0.42 0.74813 0.0
C2104 C 0.31867 0.43226 0.74584 0.0
C2105 C 0.32404 0.39295 0.71517 0.0
C2106 C 0.32437 0.43495 0.7667 0.0
C2107 C 0.33865 0.45098 0.77398 0.0
C2108 C 0.34785 0.46429 0.76047 0.0
C2109 C 0.34204 0.46181 0.73964 0.0
C2110 C 0.32752 0.44592 0.73238 0.0
H2111 H 0.32219 0.3819 0.70058 0.0
H2112 H 0.33301 0.40743 0.71181 0.0
H2113 H 0.33228 0.38475 0.72613 0.0
H2114 H 0.31743 0.42492 0.77747 0.0
H2115 H 0.3422 0.45326 0.79031 0.0
H2116 H 0.24373 0.68285 0.79827 0.0
H2117 H 0.27059 0.65926 0.80199 0.0
H2118 H 0.24091 0.63677 0.85494 0.0
H2119 H 0.21403 0.66045 0.85115 0.0
H2120 H 0.29491 0.65395 0.84204 0.0
H2121 H 0.24764 0.58348 0.8069 0.0
H2122 H 0.24321 0.6104 0.80222 0.0
H2123 H 0.23737 0.60184 0.82695 0.0
C2124 C 0.24316 0.67303 0.81081 0.0
C2125 C 0.22689 0.67322 0.82434 0.0
C2126 C 0.25845 0.65967 0.81298 0.0
C2127 C 0.25763 0.64622 0.82866 0.0
C2128 C 0.24176 0.64703 0.84273 0.0
H2129 H 0.32817 0.53486 0.82984 0.0
H2130 H 0.30409 0.56163 0.83984 0.0
C2131 C 0.22652 0.66054 0.84063 0.0
C2132 C 0.27266 0.63031 0.82923 0.0
H2133 H 0.28046 0.57778 0.81435 0.0
C2134 C 0.29176 0.63724 0.83619 0.0
C2135 C 0.26841 0.60854 0.82173 0.0
C2136 C 0.2481 0.60046 0.81392 0.0
C2137 C 0.30689 0.62295 0.83553 0.0
C2138 C 0.30289 0.60131 0.82713 0.0
C2139 C 0.28356 0.59432 0.8208 0.0
C2140 C 0.31871 0.58601 0.82328 0.0
C2141 C 0.32696 0.6312 0.8439 0.0
C2142 C 0.33504 0.59082 0.8108 0.0
C2143 C 0.34887 0.57564 0.80523 0.0
C2144 C 0.34653 0.55517 0.81174 0.0
C2145 C 0.33043 0.5505 0.82463 0.0
C2146 C 0.31664 0.56578 0.83032 0.0
H2147 H 0.32577 0.64502 0.85608 0.0
H2148 H 0.33461 0.61856 0.85048 0.0
H2149 H 0.33618 0.6368 0.83118 0.0
H2150 H 0.33672 0.60603 0.80466 0.0
H2151 H 0.361 0.57973 0.79516 0.0
H2152 H 0.93166 0.53306 0.47469 0.0
H2153 H 0.90058 0.51535 0.48535 0.0
H2154 H 0.92639 0.50832 0.54418 0.0
H2155 H 0.95769 0.52593 0.53328 0.0
H2156 H 0.90549 0.47046 0.52381 0.0
H2157 H 0.8608 0.5413 0.52854 0.0
H2158 H 0.87424 0.53672 0.50465 0.0
H2159 H 0.88751 0.54339 0.52856 0.0
C2160 C 0.93066 0.52757 0.48981 0.0
C2161 C 0.94692 0.53068 0.50319 0.0
C2162 C 0.91292 0.5177 0.49598 0.0
C2163 C 0.91111 0.51087 0.51568 0.0
C2164 C 0.92746 0.51367 0.52899 0.0
H2165 H 0.80726 0.43185 0.55368 0.0
H2166 H 0.83807 0.45472 0.55724 0.0
C2167 C 0.94524 0.52366 0.52282 0.0
C2168 C 0.89224 0.50021 0.52188 0.0
H2169 H 0.84277 0.50703 0.526 0.0
C2170 C 0.89179 0.4785 0.52474 0.0
C2171 C 0.87447 0.51084 0.52317 0.0
C2172 C 0.87424 0.53441 0.52127 0.0
C2173 C 0.87381 0.46674 0.52743 0.0
C2174 C 0.85592 0.47713 0.52758 0.0
C2175 C 0.85651 0.49911 0.52586 0.0
C2176 C 0.83643 0.46496 0.52681 0.0
C2177 C 0.87397 0.44304 0.52877 0.0
C2178 C 0.825 0.46383 0.50889 0.0
C2179 C 0.80747 0.45095 0.50684 0.0
C2180 C 0.8009 0.43893 0.52274 0.0
C2181 C 0.8119 0.44087 0.54114 0.0
C2182 C 0.82957 0.45379 0.54315 0.0
H2183 H 0.8888 0.43692 0.52535 0.0
H2184 H 0.86961 0.43979 0.54462 0.0
H2185 H 0.86315 0.434 0.51779 0.0
H2186 H 0.82999 0.4724 0.49613 0.0
H2187 H 0.79933 0.45001 0.49251 0.0
H2188 H 0.8109 0.88877 0.84264 0.0
H2189 H 0.78591 0.91475 0.8397 0.0
H2190 H 0.74428 0.86327 0.81567 0.0
H2191 H 0.76923 0.83741 0.81895 0.0
H2192 H 0.76774 0.92343 0.80524 0.0
H2193 H 0.7113 0.89521 0.85973 0.0
H2194 H 0.73618 0.88655 0.85868 0.0
H2195 H 0.71811 0.87451 0.84005 0.0
C2196 C 0.79634 0.88314 0.83688 0.0
C2197 C 0.79183 0.86122 0.83113 0.0
C2198 C 0.78209 0.89789 0.83522 0.0
C2199 C 0.76307 0.89094 0.82782 0.0
C2200 C 0.75863 0.86898 0.82197 0.0
H2201 H 0.66365 0.9541 0.78718 0.0
H2202 H 0.68633 0.92833 0.79682 0.0
C2203 C 0.77286 0.85424 0.82373 0.0
C2204 C 0.74829 0.90676 0.82516 0.0
H2205 H 0.70122 0.9202 0.83779 0.0
C2206 C 0.75328 0.92284 0.81252 0.0
C2207 C 0.72937 0.90595 0.83463 0.0
C2208 C 0.72346 0.88975 0.84919 0.0
C2209 C 0.73976 0.93781 0.80874 0.0
C2210 C 0.7208 0.93685 0.81801 0.0
C2211 C 0.71578 0.92087 0.83072 0.0
C2212 C 0.70595 0.95215 0.81427 0.0
C2213 C 0.74568 0.95428 0.79444 0.0
C2214 C 0.70913 0.97396 0.8215 0.0
C2215 C 0.69617 0.98871 0.8161 0.0
C2216 C 0.67981 0.98189 0.80334 0.0
C2217 C 0.67613 0.95988 0.79699 0.0
C2218 C 0.68907 0.94513 0.80247 0.0
H2219 H 0.75924 0.95028 0.78543 0.0
H2220 H 0.73356 0.95574 0.78348 0.0
H2221 H 0.74863 0.9701 0.80372 0.0
H2222 H 0.72196 0.97965 0.83084 0.0
H2223 H 0.69942 1.00554 0.82129 0.0
H2224 H 0.59909 0.48359 0.01462 0.0
H2225 H 0.63172 0.5 0.02514 0.0
H2226 H 0.61017 0.5625 0.02228 0.0
H2227 H 0.57724 0.54615 0.0147 0.0
H2228 H 0.65672 0.51863 1.00595 0.0
H2229 H 0.64175 0.57935 0.07063 0.0
H2230 H 0.6229 0.55926 0.06108 0.0
H2231 H 0.62632 0.58416 0.04989 0.0
C2232 C 0.60111 0.50082 0.01739 0.0
C2233 C 0.58557 0.5136 0.01401 0.0
C2234 C 0.61991 0.51028 0.02302 0.0
C2235 C 0.62365 0.53269 0.02487 0.0
C2236 C 0.60785 0.54533 0.02188 0.0
H2237 H 0.73353 0.59474 0.98899 0.0
H2238 H 0.70385 0.57124 0.99179 0.0
C2239 C 0.589 0.53594 0.01714 0.0
C2240 C 0.64423 0.5428 0.02767 0.0
H2241 H 0.66991 0.58846 0.04873 0.0
C2242 C 0.65965 0.53365 0.01575 0.0
C2243 C 0.64861 0.56212 0.04083 0.0
C2244 C 0.634 0.57156 0.05648 0.0
C2245 C 0.6788 0.5437 0.01581 0.0
C2246 C 0.68246 0.56433 0.02696 0.0
C2247 C 0.6673 0.57294 0.03969 0.0
C2248 C 0.70142 0.57764 0.02523 0.0
C2249 C 0.69484 0.5317 1.00418 0.0
C2250 C 0.71 0.58978 0.04286 0.0
C2251 C 0.7263 0.60425 0.04099 0.0
C2252 C 0.73441 0.60689 0.02147 0.0
C2253 C 0.72688 0.59374 1.00407 0.0
C2254 C 0.71022 0.57975 1.00582 0.0
H2255 H 0.69219 0.51419 1.00459 0.0
H2256 H 0.69463 0.53449 0.98768 0.0
H2257 H 0.7097 0.53672 0.01069 0.0
H2258 H 0.70388 0.58838 0.05811 0.0
H2259 H 0.7323 0.61374 0.05476 0.0
H2260 H 0.30987 0.70764 0.25605 0.0
H2261 H 0.28753 0.6782 0.26566 0.0
H2262 H 0.29843 0.64178 0.2066 0.0
H2263 H 0.32123 0.67098 0.1974 0.0
H2264 H 0.25424 0.66762 0.24314 0.0
H2265 H 0.29572 0.59501 0.24444 0.0
H2266 H 0.30779 0.62156 0.24602 0.0
H2267 H 0.29985 0.60774 0.22142 0.0
C2268 C 0.3081 0.69295 0.24557 0.0
C2269 C 0.31713 0.69145 0.22602 0.0
C2270 C 0.29528 0.67621 0.25097 0.0
C2271 C 0.29134 0.65771 0.23689 0.0
C2272 C 0.30148 0.65565 0.21789 0.0
H2273 H 0.19504 0.55795 0.22466 0.0
H2274 H 0.22352 0.58266 0.21844 0.0
C2275 C 0.31437 0.67236 0.21257 0.0
C2276 C 0.2744 0.64246 0.24058 0.0
H2277 H 0.26042 0.58968 0.24278 0.0
C2278 C 0.25568 0.65062 0.2433 0.0
C2279 C 0.2762 0.62021 0.2404 0.0
C2280 C 0.296 0.6106 0.2381 0.0
C2281 C 0.23872 0.63721 0.24565 0.0
C2282 C 0.24041 0.61501 0.2456 0.0
C2283 C 0.25912 0.60673 0.24278 0.0
C2284 C 0.22292 0.60038 0.24903 0.0
C2285 C 0.21901 0.64686 0.24779 0.0
C2286 C 0.21315 0.60218 0.26823 0.0
C2287 C 0.197 0.58812 0.27176 0.0
C2288 C 0.19004 0.57225 0.25606 0.0
C2289 C 0.19983 0.5704 0.23685 0.0
C2290 C 0.21613 0.58438 0.23334 0.0
H2291 H 0.2196 0.66323 0.24306 0.0
H2292 H 0.20781 0.63662 0.23823 0.0
H2293 H 0.21432 0.64788 0.26423 0.0
H2294 H 0.21834 0.61414 0.28068 0.0
H2295 H 0.19043 0.58917 0.28705 0.0
H2296 H 0.93048 0.48966 0.05689 0.0
H2297 H 0.90361 0.51069 0.04692 0.0
H2298 H 0.94659 0.56031 0.03247 0.0
H2299 H 0.97337 0.53899 0.04221 0.0
H2300 H 0.89437 0.55114 0.06396 0.0
H2301 H 0.91217 0.55022 0.98047 0.0
H2302 H 0.92252 0.53224 0.99638 0.0
H2303 H 0.93249 0.55946 0.99738 0.0
C2304 C 0.93403 0.50501 0.05146 0.0
C2305 C 0.95379 0.51284 0.05021 0.0
C2306 C 0.91878 0.51699 0.04579 0.0
C2307 C 0.9231 0.53694 0.03866 0.0
C2308 C 0.94292 0.54478 0.03751 0.0
H2309 H 0.84249 0.63756 0.03665 0.0
H2310 H 0.8702 0.61597 0.04186 0.0
C2311 C 0.95816 0.53277 0.04319 0.0
C2312 C 0.90679 0.54987 0.03329 0.0
H2313 H 0.88781 0.57368 0.99409 0.0
C2314 C 0.89291 0.55601 0.04867 0.0
C2315 C 0.90475 0.55599 0.01325 0.0
C2316 C 0.91865 0.549 0.99583 0.0
C2317 C 0.87727 0.56843 0.04469 0.0
C2318 C 0.87562 0.57519 0.02487 0.0
C2319 C 0.88924 0.56868 0.00933 0.0
C2320 C 0.85978 0.589 0.02013 0.0
C2321 C 0.8625 0.57403 0.06169 0.0
C2322 C 0.84514 0.58136 1.0055 0.0
C2323 C 0.82927 0.59374 1.00239 0.0
C2324 C 0.82784 0.614 0.0138 0.0
C2325 C 0.84305 0.62197 0.0277 0.0
C2326 C 0.85887 0.60961 0.03079 0.0
H2327 H 0.86295 0.56335 0.07403 0.0
H2328 H 0.86598 0.59071 0.06886 0.0
H2329 H 0.84724 0.57296 0.05546 0.0
H2330 H 0.84565 0.56553 0.99702 0.0
H2331 H 0.81781 0.58715 0.99155 0.0
H2332 H 0.06128 0.99473 0.0438 0.0
H2333 H 0.09104 0.97732 0.03101 0.0
H2334 H 0.12533 0.03749 0.04379 0.0
H2335 H 0.09554 0.05462 0.05747 0.0
H2336 H 0.11895 0.9813 1.00199 0.0
H2337 H 0.15231 1.00074 0.08003 0.0
H2338 H 0.12695 1.00526 0.07495 0.0
H2339 H 0.14657 0.02374 0.06806 0.0
C2340 C 0.07515 1.00424 0.04347 0.0
C2341 C 0.07629 0.02586 0.05183 0.0
C2342 C 0.09213 0.99434 0.03619 0.0
C2343 C 0.11057 1.00594 0.03701 0.0
C2344 C 0.11138 0.02807 0.04356 0.0
H2345 H 0.21657 0.94547 0.98637 0.0
H2346 H 0.18895 0.96838 0.99252 0.0
C2347 C 0.09436 0.03794 0.05104 0.0
C2348 C 0.12887 0.99438 0.03247 0.0
H2349 H 0.17157 0.98209 0.05439 0.0
C2350 C 0.13053 0.98157 0.01339 0.0
C2351 C 0.14377 0.99435 0.04754 0.0
C2352 C 0.1423 1.00657 0.06887 0.0
C2353 C 0.14655 0.96866 0.00902 0.0
C2354 C 0.16167 0.969 0.02392 0.0
C2355 C 0.16008 0.98194 0.04292 0.0
C2356 C 0.17891 0.95552 0.02044 0.0
C2357 C 0.14667 0.95416 0.9888 0.0
C2358 C 0.18305 0.94122 0.03454 0.0
C2359 C 0.19911 0.92833 0.03128 0.0
C2360 C 0.21134 0.9294 0.01378 0.0
C2361 C 0.20734 0.94401 0.99988 0.0
C2362 C 0.19143 0.95705 1.00329 0.0
H2363 H 0.13164 0.95121 0.98201 0.0
H2364 H 0.15629 0.96186 0.97754 0.0
H2365 H 0.15249 0.93851 0.99083 0.0
H2366 H 0.17367 0.93982 0.04797 0.0
H2367 H 0.20172 0.91728 0.0423 0.0
loop_
_geom_bond_atom_site_label_1
_geom_bond_atom_site_label_2
_geom_bond_distance
_geom_bond_site_symmetry_2
_ccdc_geom_bond_type
C0 N1 1.317 . S
C0 N2 1.348 . S
C0 C3 1.485 1_545 S
N1 C0 1.317 . S
N1 N5 1.370 . S
N2 C0 1.348 . S
N2 C4 1.346 . S
C3 C0 1.485 1_565 S
C3 H7 0.960 . S
C3 H8 0.961 . S
C3 H9 0.960 . S
C4 N2 1.346 . S
C4 N5 1.307 . S
C4 C6 1.486 1_455 S
N5 N1 1.370 . S
N5 C4 1.307 . S
C6 C4 1.486 1_655 S
C6 H10 0.960 . S
C6 H11 0.960 . S
C6 H12 0.959 . S
H7 C3 0.960 . S
H8 C3 0.961 . S
H9 C3 0.960 . S
H10 C6 0.960 . S
H11 C6 0.960 . S
H12 C6 0.959 . S
C13 N14 1.317 . S
C13 N15 1.348 . S
C13 C16 1.485 . S
N14 C13 1.317 . S
N14 N18 1.370 . S
N15 C13 1.348 . S
N15 C17 1.346 . S
C16 C13 1.485 . S
C16 H20 0.960 . S
C16 H21 0.961 . S
C16 H22 0.960 . S
C17 N15 1.346 . S
C17 N18 1.307 . S
C17 C19 1.486 . S
N18 N14 1.370 . S
N18 C17 1.307 . S
C19 C17 1.486 . S
C19 H23 0.960 . S
C19 H24 0.960 . S
C19 H25 0.959 . S
H20 C16 0.960 . S
H21 C16 0.961 . S
H22 C16 0.960 . S
H23 C19 0.960 . S
H24 C19 0.960 . S
H25 C19 0.959 . S
C26 N27 1.317 . S
C26 N28 1.348 . S
C26 C29 1.485 . S
N27 C26 1.317 . S
N27 N31 1.370 . S
N28 C26 1.348 . S
N28 C30 1.346 . S
C29 C26 1.485 . S
C29 H33 0.960 . S
C29 H34 0.961 . S
C29 H35 0.960 . S
C30 N28 1.346 . S
C30 N31 1.307 . S
C30 C32 1.486 . S
N31 N27 1.370 . S
N31 C30 1.307 . S
C32 C30 1.486 . S
C32 H36 0.960 . S
C32 H37 0.960 . S
C32 H38 0.959 . S
H33 C29 0.960 . S
H34 C29 0.961 . S
H35 C29 0.960 . S
H36 C32 0.960 . S
H37 C32 0.960 . S
H38 C32 0.959 . S
C39 N40 1.317 . S
C39 N41 1.348 . S
C39 C42 1.485 . S
N40 C39 1.317 . S
N40 N44 1.370 . S
N41 C39 1.348 . S
N41 C43 1.346 . S
C42 C39 1.485 . S
C42 H46 0.960 . S
C42 H47 0.961 . S
C42 H48 0.960 . S
C43 N41 1.346 . S
C43 N44 1.307 . S
C43 C45 1.486 . S
N44 N40 1.370 . S
N44 C43 1.307 . S
C45 C43 1.486 . S
C45 H49 0.960 . S
C45 H50 0.960 . S
C45 H51 0.959 . S
H46 C42 0.960 . S
H47 C42 0.961 . S
H48 C42 0.960 . S
H49 C45 0.960 . S
H50 C45 0.960 . S
H51 C45 0.959 . S
C52 N53 1.317 . S
C52 N54 1.348 . S
C52 C55 1.485 . S
N53 C52 1.317 . S
N53 N57 1.370 . S
N54 C52 1.348 . S
N54 C56 1.355 . S
C55 C52 1.485 . S
C55 H59 0.960 . S
C55 H60 0.961 1_455 S
C55 H61 0.960 . S
C56 N54 1.355 . S
C56 N57 1.315 . S
C56 C58 1.471 1_565 S
N57 N53 1.370 . S
N57 C56 1.315 . S
C58 C56 1.471 1_545 S
C58 H62 0.960 . S
C58 H63 0.960 . S
C58 H64 0.959 . S
H59 C55 0.960 . S
H60 C55 0.961 1_655 S
H61 C55 0.960 . S
H62 C58 0.960 . S
H63 C58 0.960 . S
H64 C58 0.959 . S
C65 N66 1.317 . S
C65 N67 1.348 . S
C65 C68 1.485 . S
N66 C65 1.317 . S
N66 N70 1.370 . S
N67 C65 1.348 . S
N67 C69 1.346 . S
C68 C65 1.485 . S
C68 H72 0.960 . S
C68 H73 0.961 . S
C68 H74 0.960 . S
C69 N67 1.346 . S
C69 N70 1.307 . S
C69 C71 1.486 . S
N70 N66 1.370 . S
N70 C69 1.307 . S
C71 C69 1.486 . S
C71 H75 0.960 . S
C71 H76 0.960 . S
C71 H77 0.959 . S
H72 C68 0.960 . S
H73 C68 0.961 . S
H74 C68 0.960 . S
H75 C71 0.960 . S
H76 C71 0.960 . S
H77 C71 0.959 . S
C78 N79 1.317 . S
C78 N80 1.348 . S
C78 C81 1.485 . S
N79 C78 1.317 . S
N79 N83 1.370 . S
N80 C78 1.348 . S
N80 C82 1.346 . S
C81 C78 1.485 . S
C81 H85 0.960 . S
C81 H86 0.961 . S
C81 H87 0.960 . S
C82 N80 1.346 . S
C82 N83 1.307 . S
C82 C84 1.486 . S
N83 N79 1.370 . S
N83 C82 1.307 . S
C84 C82 1.486 . S
C84 H88 0.960 . S
C84 H89 0.960 . S
C84 H90 0.959 . S
H85 C81 0.960 . S
H86 C81 0.961 . S
H87 C81 0.960 . S
H88 C84 0.960 . S
H89 C84 0.960 . S
H90 C84 0.959 . S
C91 N92 1.317 . S
C91 N93 1.348 . S
C91 C94 1.485 . S
N92 C91 1.317 . S
N92 N96 1.370 . S
N93 C91 1.348 . S
N93 C95 1.346 . S
C94 C91 1.485 . S
C94 H98 0.960 . S
C94 H99 0.961 . S
C94 H100 0.960 . S
C95 N93 1.346 . S
C95 N96 1.307 . S
C95 C97 1.486 . S
N96 N92 1.370 . S
N96 C95 1.307 . S
C97 C95 1.486 . S
C97 H101 0.960 . S
C97 H102 0.960 . S
C97 H103 0.959 . S
H98 C94 0.960 . S
H99 C94 0.961 . S
H100 C94 0.960 . S
H101 C97 0.960 . S
H102 C97 0.960 . S
H103 C97 0.959 . S
C104 N105 1.317 . S
C104 N106 1.348 . S
C104 C107 1.485 . S
N105 C104 1.317 . S
N105 N109 1.370 . S
N106 C104 1.348 . S
N106 C108 1.346 . S
C107 C104 1.485 . S
C107 H111 0.960 . S
C107 H112 0.961 . S
C107 H113 0.960 . S
C108 N106 1.346 . S
C108 N109 1.307 . S
C108 C110 1.486 . S
N109 N105 1.370 . S
N109 C108 1.307 . S
C110 C108 1.486 . S
C110 H114 0.960 . S
C110 H115 0.960 . S
C110 H116 0.959 . S
H111 C107 0.960 . S
H112 C107 0.961 . S
H113 C107 0.960 . S
H114 C110 0.960 . S
H115 C110 0.960 . S
H116 C110 0.959 . S
C117 N118 1.317 . S
C117 N119 1.348 . S
C117 C120 1.485 1_565 S
N118 C117 1.317 . S
N118 N122 1.370 . S
N119 C117 1.348 . S
N119 C121 1.346 . S
C120 C117 1.485 1_545 S
C120 H124 0.960 . S
C120 H125 0.961 . S
C120 H126 0.960 . S
C121 N119 1.346 . S
C121 N122 1.307 . S
C121 C123 1.486 . S
N122 N118 1.370 . S
N122 C121 1.307 . S
C123 C121 1.486 . S
C123 H127 0.960 . S
C123 H128 0.960 . S
C123 H129 0.959 . S
H124 C120 0.960 . S
H125 C120 0.961 . S
H126 C120 0.960 . S
H127 C123 0.960 . S
H128 C123 0.960 . S
H129 C123 0.959 . S
C130 N131 1.317 . S
C130 N132 1.348 . S
C130 C133 1.485 . S
N131 C130 1.317 . S
N131 N135 1.370 . S
N132 C130 1.348 . S
N132 C134 1.346 . S
C133 C130 1.485 . S
C133 H137 0.960 . S
C133 H138 0.961 . S
C133 H139 0.960 . S
C134 N132 1.346 . S
C134 N135 1.307 . S
C134 C136 1.486 . S
N135 N131 1.370 . S
N135 C134 1.307 . S
C136 C134 1.486 . S
C136 H140 0.960 . S
C136 H141 0.960 . S
C136 H142 0.959 . S
H137 C133 0.960 . S
H138 C133 0.961 . S
H139 C133 0.960 . S
H140 C136 0.960 . S
H141 C136 0.960 . S
H142 C136 0.959 . S
C143 N144 1.317 . S
C143 N145 1.348 . S
C143 C146 1.485 . S
N144 C143 1.317 . S
N144 N148 1.370 . S
N145 C143 1.348 . S
N145 C147 1.346 . S
C146 C143 1.485 . S
C146 H150 0.960 . S
C146 H151 0.961 . S
C146 H152 0.960 . S
C147 N145 1.346 . S
C147 N148 1.307 . S
C147 C149 1.486 . S
N148 N144 1.370 . S
N148 C147 1.307 . S
C149 C147 1.486 . S
C149 H153 0.960 . S
C149 H154 0.960 . S
C149 H155 0.959 . S
H150 C146 0.960 . S
H151 C146 0.961 . S
H152 C146 0.960 . S
H153 C149 0.960 . S
H154 C149 0.960 . S
H155 C149 0.959 . S
C156 N157 1.317 . S
C156 N158 1.348 . S
C156 C159 1.485 . S
N157 C156 1.317 . S
N157 N161 1.370 . S
N158 C156 1.348 . S
N158 C160 1.346 . S
C159 C156 1.485 . S
C159 H163 0.960 . S
C159 H164 0.961 . S
C159 H165 0.960 . S
C160 N158 1.346 . S
C160 N161 1.307 . S
C160 C162 1.486 . S
N161 N157 1.370 . S
N161 C160 1.307 . S
C162 C160 1.486 . S
C162 H166 0.960 . S
C162 H167 0.960 . S
C162 H168 0.959 . S
H163 C159 0.960 . S
H164 C159 0.961 . S
H165 C159 0.960 . S
H166 C162 0.960 . S
H167 C162 0.960 . S
H168 C162 0.959 . S
C169 N170 1.317 . S
C169 N171 1.348 . S
C169 C172 1.485 . S
N170 C169 1.317 . S
N170 N174 1.370 . S
N171 C169 1.348 . S
N171 C173 1.346 . S
C172 C169 1.485 . S
C172 H176 0.960 . S
C172 H177 0.961 . S
C172 H178 0.960 . S
C173 N171 1.346 . S
C173 N174 1.307 . S
C173 C175 1.486 . S
N174 N170 1.370 . S
N174 C173 1.307 . S
C175 C173 1.486 . S
C175 H179 0.960 . S
C175 H180 0.960 . S
C175 H181 0.959 . S
H176 C172 0.960 . S
H177 C172 0.961 . S
H178 C172 0.960 . S
H179 C175 0.960 . S
H180 C175 0.960 . S
H181 C175 0.959 . S
C182 N183 1.317 . S
C182 N184 1.348 . S
C182 C185 1.485 . S
N183 C182 1.317 . S
N183 N187 1.370 . S
N184 C182 1.348 . S
N184 C186 1.346 . S
C185 C182 1.485 . S
C185 H189 0.960 . S
C185 H190 0.961 . S
C185 H191 0.960 . S
C186 N184 1.346 . S
C186 N187 1.307 . S
C186 C188 1.486 . S
N187 N183 1.370 . S
N187 C186 1.307 . S
C188 C186 1.486 . S
C188 H192 0.960 . S
C188 H193 0.960 . S
C188 H194 0.959 . S
H189 C185 0.960 . S
H190 C185 0.961 . S
H191 C185 0.960 . S
H192 C188 0.960 . S
H193 C188 0.960 . S
H194 C188 0.959 . S
C195 N196 1.317 . S
C195 N197 1.348 . S
C195 C198 1.485 . S
N196 C195 1.317 . S
N196 N200 1.370 . S
N197 C195 1.348 . S
N197 C199 1.346 . S
C198 C195 1.485 . S
C198 H202 0.960 . S
C198 H203 0.961 1_545 S
C198 H204 0.960 . S
C199 N197 1.346 . S
C199 N200 1.307 . S
C199 C201 1.486 1_556 S
N200 N196 1.370 . S
N200 C199 1.307 . S
C201 C199 1.486 1_554 S
C201 H205 0.960 . S
C201 H206 0.960 . S
C201 H207 0.959 . S
H202 C198 0.960 . S
H203 C198 0.961 1_565 S
H204 C198 0.960 . S
H205 C201 0.960 . S
H206 C201 0.960 . S
H207 C201 0.959 . S
Mn208 O213 2.095 . S
Mn208 O223 2.162 . S
Mn208 O224 2.297 . S
Mn208 O232 2.385 . S
Mn208 O233 2.209 1_554 S
Mn208 O234 2.094 . S
Mn209 O214 2.121 . S
Mn209 N216 2.257 . S
Mn209 N225 2.282 . S
Mn209 O233 2.215 . S
Mn209 O235 2.117 1_556 S
C210 O232 1.234 1_556 S
C210 O233 1.283 . S
C211 O223 1.281 . S
C211 O224 1.236 . S
C212 O234 1.240 . S
C212 O235 1.264 . S
O213 Mn208 2.095 . S
O213 C222 1.250 . S
O214 Mn209 2.121 . S
O214 C222 1.258 1_556 S
C215 N216 1.326 . S
C215 C219 1.460 . S
C215 H221 0.929 . S
N216 Mn209 2.257 . S
N216 C215 1.326 . S
N216 C220 1.362 . S
C217 C218 1.258 . S
C217 C220 1.431 . S
C217 C237 1.449 . S
C218 C217 1.258 . S
C218 C219 1.477 . S
C218 H238 0.931 . S
C219 C215 1.460 . S
C219 C218 1.477 . S
C219 H239 0.930 . S
C220 N216 1.362 . S
C220 C217 1.431 . S
C220 C230 1.476 . S
H221 C215 0.929 . S
C222 O213 1.250 . S
C222 O214 1.258 1_554 S
O223 Mn208 2.162 . S
O223 C211 1.281 . S
O224 Mn208 2.297 . S
O224 C211 1.236 . S
N225 Mn209 2.282 . S
N225 C226 1.328 . S
N225 C230 1.318 . S
C226 N225 1.328 . S
C226 C227 1.457 . S
C226 H231 0.929 . S
C227 C226 1.457 . S
C227 C228 1.291 . S
C227 H240 0.931 . S
C228 C227 1.291 . S
C228 C229 1.373 . S
C228 H241 0.929 . S
C229 C228 1.373 . S
C229 C230 1.396 . S
C229 C236 1.403 . S
C230 C220 1.476 . S
C230 N225 1.318 . S
C230 C229 1.396 . S
H231 C226 0.929 . S
O232 Mn208 2.385 . S
O232 C210 1.234 1_554 S
O233 Mn208 2.209 1_556 S
O233 Mn209 2.215 . S
O233 C210 1.283 . S
O234 Mn208 2.094 . S
O234 C212 1.240 . S
O235 Mn209 2.117 1_554 S
O235 C212 1.264 . S
C236 C229 1.403 . S
C236 C237 1.399 . S
C236 H242 0.929 . S
C237 C217 1.449 . S
C237 C236 1.399 . S
C237 H243 0.930 . S
H238 C218 0.931 . S
H239 C219 0.930 . S
H240 C227 0.931 . S
H241 C228 0.929 . S
H242 C236 0.929 . S
H243 C237 0.930 . S
Mn244 O249 2.095 . S
Mn244 O259 2.162 . S
Mn244 O260 2.297 . S
Mn244 O268 2.385 . S
Mn244 O269 2.209 . S
Mn244 O270 2.094 . S
Mn245 O250 2.121 . S
Mn245 N252 2.257 . S
Mn245 N261 2.282 . S
Mn245 O269 2.215 . S
Mn245 O271 2.117 . S
C246 O268 1.234 . S
C246 O269 1.283 . S
C247 O259 1.281 . S
C247 O260 1.236 . S
C248 O270 1.240 . S
C248 O271 1.264 . S
O249 Mn244 2.095 . S
O249 C258 1.250 . S
O250 Mn245 2.121 . S
O250 C258 1.258 . S
C251 N252 1.326 . S
C251 C255 1.460 . S
C251 H257 0.929 . S
N252 Mn245 2.257 . S
N252 C251 1.326 . S
N252 C256 1.362 . S
C253 C254 1.258 . S
C253 C256 1.431 . S
C253 C273 1.449 . S
C254 C253 1.258 . S
C254 C255 1.477 . S
C254 H274 0.931 . S
C255 C251 1.460 . S
C255 C254 1.477 . S
C255 H275 0.930 . S
C256 N252 1.362 . S
C256 C253 1.431 . S
C256 C266 1.476 . S
H257 C251 0.929 . S
C258 O249 1.250 . S
C258 O250 1.258 . S
O259 Mn244 2.162 . S
O259 C247 1.281 . S
O260 Mn244 2.297 . S
O260 C247 1.236 . S
N261 Mn245 2.282 . S
N261 C262 1.328 . S
N261 C266 1.318 . S
C262 N261 1.328 . S
C262 C263 1.457 . S
C262 H267 0.929 . S
C263 C262 1.457 . S
C263 C264 1.291 . S
C263 H276 0.931 . S
C264 C263 1.291 . S
C264 C265 1.373 . S
C264 H277 0.929 . S
C265 C264 1.373 . S
C265 C266 1.396 . S
C265 C272 1.403 . S
C266 C256 1.476 . S
C266 N261 1.318 . S
C266 C265 1.396 . S
H267 C262 0.929 . S
O268 Mn244 2.385 . S
O268 C246 1.234 . S
O269 Mn244 2.209 . S
O269 Mn245 2.215 . S
O269 C246 1.283 . S
O270 Mn244 2.094 . S
O270 C248 1.240 . S
O271 Mn245 2.117 . S
O271 C248 1.264 . S
C272 C265 1.403 . S
C272 C273 1.399 . S
C272 H278 0.929 . S
C273 C253 1.449 . S
C273 C272 1.399 . S
C273 H279 0.930 . S
H274 C254 0.931 . S
H275 C255 0.930 . S
H276 C263 0.931 . S
H277 C264 0.929 . S
H278 C272 0.929 . S
H279 C273 0.930 . S
Mn280 O285 2.118 . S
Mn280 O295 2.162 . S
Mn280 O296 2.297 1_554 S
Mn280 O304 2.385 . S
Mn280 O305 2.209 1_554 S
Mn280 O306 2.094 . S
Mn281 O286 2.121 . S
Mn281 N288 2.257 . S
Mn281 N297 2.282 1_556 S
Mn281 O305 2.215 . S
Mn281 O307 2.117 1_556 S
C282 O304 1.234 . S
C282 O305 1.283 1_554 S
C283 O295 1.281 . S
C283 O296 1.236 1_554 S
C284 O306 1.240 . S
C284 O307 1.264 . S
O285 Mn280 2.118 . S
O285 C294 1.215 1_554 S
O286 Mn281 2.121 . S
O286 C294 1.258 . S
C287 N288 1.326 . S
C287 C291 1.460 . S
C287 H293 0.929 . S
N288 Mn281 2.257 . S
N288 C287 1.326 . S
N288 C292 1.362 . S
C289 C290 1.258 . S
C289 C292 1.431 . S
C289 C309 1.449 . S
C290 C289 1.258 . S
C290 C291 1.477 . S
C290 H310 0.931 . S
C291 C287 1.460 . S
C291 C290 1.477 . S
C291 H311 0.930 . S
C292 N288 1.362 . S
C292 C289 1.431 . S
C292 C302 1.476 . S
H293 C287 0.929 . S
C294 O285 1.215 1_556 S
C294 O286 1.258 . S
O295 Mn280 2.162 . S
O295 C283 1.281 . S
O296 Mn280 2.297 1_556 S
O296 C283 1.236 1_556 S
N297 Mn281 2.282 1_554 S
N297 C298 1.328 . S
N297 C302 1.318 1_554 S
C298 N297 1.328 . S
C298 C299 1.457 . S
C298 H303 0.929 . S
C299 C298 1.457 . S
C299 C300 1.291 . S
C299 H312 0.931 . S
C300 C299 1.291 . S
C300 C301 1.373 1_554 S
C300 H313 0.929 . S
C301 C300 1.373 1_556 S
C301 C302 1.396 . S
C301 C308 1.403 . S
C302 C292 1.476 . S
C302 N297 1.318 1_556 S
C302 C301 1.396 . S
H303 C298 0.929 . S
O304 Mn280 2.385 . S
O304 C282 1.234 . S
O305 Mn280 2.209 1_556 S
O305 Mn281 2.215 . S
O305 C282 1.283 1_556 S
O306 Mn280 2.094 . S
O306 C284 1.240 . S
O307 Mn281 2.117 1_554 S
O307 C284 1.264 . S
C308 C301 1.403 . S
C308 C309 1.399 . S
C308 H314 0.929 . S
C309 C289 1.449 . S
C309 C308 1.399 . S
C309 H315 0.930 . S
H310 C290 0.931 . S
H311 C291 0.930 . S
H312 C299 0.931 . S
H313 C300 0.929 . S
H314 C308 0.929 . S
H315 C309 0.930 . S
Mn316 O321 2.095 . S
Mn316 O331 2.162 . S
Mn316 O332 2.297 . S
Mn316 O340 2.385 1_545 S
Mn316 O341 2.209 1_545 S
Mn316 O342 2.094 . S
Mn317 O322 2.121 . S
Mn317 N324 2.257 . S
Mn317 N333 2.282 . S
Mn317 O341 2.215 . S
Mn317 O343 2.117 . S
C318 O340 1.234 . S
C318 O341 1.283 . S
C319 O331 1.281 . S
C319 O332 1.236 . S
C320 O342 1.240 . S
C320 O343 1.264 1_545 S
O321 Mn316 2.095 . S
O321 C330 1.250 . S
O322 Mn317 2.121 . S
O322 C330 1.258 1_565 S
C323 N324 1.326 . S
C323 C327 1.460 . S
C323 H329 0.929 . S
N324 Mn317 2.257 . S
N324 C323 1.326 . S
N324 C328 1.362 . S
C325 C326 1.258 . S
C325 C328 1.431 . S
C325 C345 1.449 . S
C326 C325 1.258 . S
C326 C327 1.477 . S
C326 H346 0.931 . S
C327 C323 1.460 . S
C327 C326 1.477 . S
C327 H347 0.930 . S
C328 N324 1.362 . S
C328 C325 1.431 . S
C328 C338 1.476 . S
H329 C323 0.929 . S
C330 O321 1.250 . S
C330 O322 1.258 1_545 S
O331 Mn316 2.162 . S
O331 C319 1.281 . S
O332 Mn316 2.297 . S
O332 C319 1.236 . S
N333 Mn317 2.282 . S
N333 C334 1.328 . S
N333 C338 1.318 . S
C334 N333 1.328 . S
C334 C335 1.457 . S
C334 H339 0.929 . S
C335 C334 1.457 . S
C335 C336 1.291 . S
C335 H348 0.931 . S
C336 C335 1.291 . S
C336 C337 1.373 . S
C336 H349 0.929 . S
C337 C336 1.373 . S
C337 C338 1.396 . S
C337 C344 1.403 . S
C338 C328 1.476 . S
C338 N333 1.318 . S
C338 C337 1.396 . S
H339 C334 0.929 . S
O340 Mn316 2.385 1_565 S
O340 C318 1.234 . S
O341 Mn316 2.209 1_565 S
O341 Mn317 2.215 . S
O341 C318 1.283 . S
O342 Mn316 2.094 . S
O342 C320 1.240 . S
O343 Mn317 2.117 . S
O343 C320 1.264 1_565 S
C344 C337 1.403 . S
C344 C345 1.399 . S
C344 H350 0.929 . S
C345 C325 1.449 . S
C345 C344 1.399 . S
C345 H351 0.930 . S
H346 C326 0.931 . S
H347 C327 0.930 . S
H348 C335 0.931 . S
H349 C336 0.929 . S
H350 C344 0.929 . S
H351 C345 0.930 . S
Mn352 O357 2.095 . S
Mn352 O367 2.162 . S
Mn352 O368 2.297 . S
Mn352 O376 2.385 . S
Mn352 O377 2.209 . S
Mn352 O378 2.094 . S
Mn353 O358 2.121 . S
Mn353 N360 2.257 . S
Mn353 N369 2.282 . S
Mn353 O377 2.215 . S
Mn353 O379 2.117 . S
C354 O376 1.234 . S
C354 O377 1.283 . S
C355 O367 1.281 . S
C355 O368 1.236 . S
C356 O378 1.240 . S
C356 O379 1.264 . S
O357 Mn352 2.095 . S
O357 C366 1.250 . S
O358 Mn353 2.121 . S
O358 C366 1.258 . S
C359 N360 1.326 . S
C359 C363 1.460 . S
C359 H365 0.929 . S
N360 Mn353 2.257 . S
N360 C359 1.326 . S
N360 C364 1.362 . S
C361 C362 1.258 . S
C361 C364 1.431 . S
C361 C381 1.449 . S
C362 C361 1.258 . S
C362 C363 1.477 . S
C362 H382 0.931 . S
C363 C359 1.460 . S
C363 C362 1.477 . S
C363 H383 0.930 . S
C364 N360 1.362 . S
C364 C361 1.431 . S
C364 C374 1.476 . S
H365 C359 0.929 . S
C366 O357 1.250 . S
C366 O358 1.258 . S
O367 Mn352 2.162 . S
O367 C355 1.281 . S
O368 Mn352 2.297 . S
O368 C355 1.236 . S
N369 Mn353 2.282 . S
N369 C370 1.328 . S
N369 C374 1.318 . S
C370 N369 1.328 . S
C370 C371 1.457 . S
C370 H375 0.929 . S
C371 C370 1.457 . S
C371 C372 1.291 . S
C371 H384 0.931 . S
C372 C371 1.291 . S
C372 C373 1.373 . S
C372 H385 0.929 . S
C373 C372 1.373 . S
C373 C374 1.396 . S
C373 C380 1.403 . S
C374 C364 1.476 . S
C374 N369 1.318 . S
C374 C373 1.396 . S
H375 C370 0.929 . S
O376 Mn352 2.385 . S
O376 C354 1.234 . S
O377 Mn352 2.209 . S
O377 Mn353 2.215 . S
O377 C354 1.283 . S
O378 Mn352 2.094 . S
O378 C356 1.240 . S
O379 Mn353 2.117 . S
O379 C356 1.264 . S
C380 C373 1.403 . S
C380 C381 1.399 . S
C380 H386 0.929 . S
C381 C361 1.449 . S
C381 C380 1.399 . S
C381 H387 0.930 . S
H382 C362 0.931 . S
H383 C363 0.930 . S
H384 C371 0.931 . S
H385 C372 0.929 . S
H386 C380 0.929 . S
H387 C381 0.930 . S
Mn388 O393 2.095 . S
Mn388 O403 2.162 . S
Mn388 O404 2.297 . S
Mn388 O412 2.385 . S
Mn388 O413 2.209 . S
Mn388 O414 2.094 . S
Mn389 O394 2.121 . S
Mn389 N396 2.257 . S
Mn389 N405 2.282 . S
Mn389 O413 2.215 . S
Mn389 O415 2.117 . S
C390 O412 1.234 . S
C390 O413 1.283 . S
C391 O403 1.281 . S
C391 O404 1.236 . S
C392 O414 1.240 . S
C392 O415 1.264 . S
O393 Mn388 2.095 . S
O393 C402 1.250 . S
O394 Mn389 2.121 . S
O394 C402 1.258 . S
C395 N396 1.326 . S
C395 C399 1.460 . S
C395 H401 0.929 . S
N396 Mn389 2.257 . S
N396 C395 1.326 . S
N396 C400 1.362 . S
C397 C398 1.258 . S
C397 C400 1.431 . S
C397 C417 1.449 . S
C398 C397 1.258 . S
C398 C399 1.477 . S
C398 H418 0.931 . S
C399 C395 1.460 . S
C399 C398 1.477 . S
C399 H419 0.930 . S
C400 N396 1.362 . S
C400 C397 1.431 . S
C400 C410 1.476 . S
H401 C395 0.929 . S
C402 O393 1.250 . S
C402 O394 1.258 . S
O403 Mn388 2.162 . S
O403 C391 1.281 . S
O404 Mn388 2.297 . S
O404 C391 1.236 . S
N405 Mn389 2.282 . S
N405 C406 1.328 . S
N405 C410 1.318 . S
C406 N405 1.328 . S
C406 C407 1.457 . S
C406 H411 0.929 . S
C407 C406 1.457 . S
C407 C408 1.291 . S
C407 H420 0.931 . S
C408 C407 1.291 . S
C408 C409 1.373 . S
C408 H421 0.929 . S
C409 C408 1.373 . S
C409 C410 1.396 . S
C409 C416 1.403 . S
C410 C400 1.476 . S
C410 N405 1.318 . S
C410 C409 1.396 . S
H411 C406 0.929 . S
O412 Mn388 2.385 . S
O412 C390 1.234 . S
O413 Mn388 2.209 . S
O413 Mn389 2.215 . S
O413 C390 1.283 . S
O414 Mn388 2.094 . S
O414 C392 1.240 . S
O415 Mn389 2.117 . S
O415 C392 1.264 . S
C416 C409 1.403 . S
C416 C417 1.399 . S
C416 H422 0.929 . S
C417 C397 1.449 . S
C417 C416 1.399 . S
C417 H423 0.930 . S
H418 C398 0.931 . S
H419 C399 0.930 . S
H420 C407 0.931 . S
H421 C408 0.929 . S
H422 C416 0.929 . S
H423 C417 0.930 . S
Mn424 O429 2.095 . S
Mn424 O439 2.162 . S
Mn424 O440 2.297 . S
Mn424 O448 2.385 . S
Mn424 O449 2.209 . S
Mn424 O450 2.094 . S
Mn425 O430 2.121 . S
Mn425 N432 2.257 . S
Mn425 N441 2.282 . S
Mn425 O449 2.215 . S
Mn425 O451 2.117 . S
C426 O448 1.234 . S
C426 O449 1.283 . S
C427 O439 1.281 . S
C427 O440 1.236 . S
C428 O450 1.240 . S
C428 O451 1.264 . S
O429 Mn424 2.095 . S
O429 C438 1.250 . S
O430 Mn425 2.121 . S
O430 C438 1.258 . S
C431 N432 1.326 . S
C431 C435 1.460 . S
C431 H437 0.929 . S
N432 Mn425 2.257 . S
N432 C431 1.326 . S
N432 C436 1.362 . S
C433 C434 1.258 . S
C433 C436 1.431 . S
C433 C453 1.449 . S
C434 C433 1.258 . S
C434 C435 1.477 . S
C434 H454 0.931 . S
C435 C431 1.460 . S
C435 C434 1.477 . S
C435 H455 0.930 . S
C436 N432 1.362 . S
C436 C433 1.431 . S
C436 C446 1.476 . S
H437 C431 0.929 . S
C438 O429 1.250 . S
C438 O430 1.258 . S
O439 Mn424 2.162 . S
O439 C427 1.281 . S
O440 Mn424 2.297 . S
O440 C427 1.236 . S
N441 Mn425 2.282 . S
N441 C442 1.328 . S
N441 C446 1.318 . S
C442 N441 1.328 . S
C442 C443 1.457 . S
C442 H447 0.929 . S
C443 C442 1.457 . S
C443 C444 1.291 . S
C443 H456 0.931 . S
C444 C443 1.291 . S
C444 C445 1.373 . S
C444 H457 0.929 . S
C445 C444 1.373 . S
C445 C446 1.396 . S
C445 C452 1.403 . S
C446 C436 1.476 . S
C446 N441 1.318 . S
C446 C445 1.396 . S
H447 C442 0.929 . S
O448 Mn424 2.385 . S
O448 C426 1.234 . S
O449 Mn424 2.209 . S
O449 Mn425 2.215 . S
O449 C426 1.283 . S
O450 Mn424 2.094 . S
O450 C428 1.240 . S
O451 Mn425 2.117 . S
O451 C428 1.264 . S
C452 C445 1.403 . S
C452 C453 1.399 . S
C452 H458 0.929 . S
C453 C433 1.449 . S
C453 C452 1.399 . S
C453 H459 0.930 . S
H454 C434 0.931 . S
H455 C435 0.930 . S
H456 C443 0.931 . S
H457 C444 0.929 . S
H458 C452 0.929 . S
H459 C453 0.930 . S
Mn460 O465 2.095 . S
Mn460 O475 2.162 1_545 S
Mn460 O476 2.297 . S
Mn460 O484 2.385 . S
Mn460 O485 2.209 . S
Mn460 O486 2.094 . S
Mn461 O466 2.121 . S
Mn461 N468 2.257 . S
Mn461 N477 2.282 . S
Mn461 O485 2.215 . S
Mn461 O487 2.117 . S
C462 O484 1.234 . S
C462 O485 1.283 . S
C463 O475 1.281 . S
C463 O476 1.236 1_565 S
C464 O486 1.241 . S
C464 O487 1.264 . S
O465 Mn460 2.095 . S
O465 C474 1.250 . S
O466 Mn461 2.121 . S
O466 C474 1.258 . S
C467 N468 1.326 . S
C467 C471 1.460 . S
C467 H473 0.929 . S
N468 Mn461 2.257 . S
N468 C467 1.326 . S
N468 C472 1.362 . S
C469 C470 1.258 . S
C469 C472 1.431 . S
C469 C489 1.449 . S
C470 C469 1.258 . S
C470 C471 1.477 . S
C470 H490 0.931 . S
C471 C467 1.460 . S
C471 C470 1.477 . S
C471 H491 0.930 . S
C472 N468 1.362 . S
C472 C469 1.431 . S
C472 C482 1.476 . S
H473 C467 0.929 . S
C474 O465 1.250 . S
C474 O466 1.258 . S
O475 Mn460 2.162 1_565 S
O475 C463 1.281 . S
O476 Mn460 2.297 . S
O476 C463 1.236 1_545 S
N477 Mn461 2.282 . S
N477 C478 1.328 . S
N477 C482 1.318 . S
C478 N477 1.328 . S
C478 C479 1.457 . S
C478 H483 0.929 . S
C479 C478 1.457 . S
C479 C480 1.291 . S
C479 H492 0.931 . S
C480 C479 1.291 . S
C480 C481 1.373 . S
C480 H493 0.929 . S
C481 C480 1.373 . S
C481 C482 1.396 . S
C481 C488 1.403 . S
C482 C472 1.476 . S
C482 N477 1.318 . S
C482 C481 1.396 . S
H483 C478 0.929 . S
O484 Mn460 2.385 . S
O484 C462 1.234 . S
O485 Mn460 2.209 . S
O485 Mn461 2.215 . S
O485 C462 1.283 . S
O486 Mn460 2.094 . S
O486 C464 1.241 . S
O487 Mn461 2.117 . S
O487 C464 1.264 . S
C488 C481 1.403 . S
C488 C489 1.399 . S
C488 H494 0.929 . S
C489 C469 1.449 . S
C489 C488 1.399 . S
C489 H495 0.930 . S
H490 C470 0.931 . S
H491 C471 0.930 . S
H492 C479 0.931 . S
H493 C480 0.929 . S
H494 C488 0.929 . S
H495 C489 0.930 . S
Mn496 O501 2.095 . S
Mn496 O511 2.162 . S
Mn496 O512 2.297 . S
Mn496 O520 2.383 . S
Mn496 O521 2.209 1_455 S
Mn496 O522 2.094 . S
Mn497 O502 2.121 . S
Mn497 N504 2.257 . S
Mn497 N513 2.282 . S
Mn497 O521 2.215 . S
Mn497 O523 2.117 . S
C498 O520 1.238 1_655 S
C498 O521 1.283 . S
C499 O511 1.281 . S
C499 O512 1.236 . S
C500 O522 1.240 . S
C500 O523 1.264 1_455 S
O501 Mn496 2.095 . S
O501 C510 1.250 . S
O502 Mn497 2.121 . S
O502 C510 1.258 1_655 S
C503 N504 1.326 . S
C503 C507 1.460 . S
C503 H509 0.929 . S
N504 Mn497 2.257 . S
N504 C503 1.326 . S
N504 C508 1.362 . S
C505 C506 1.258 . S
C505 C508 1.431 . S
C505 C525 1.449 . S
C506 C505 1.258 . S
C506 C507 1.477 . S
C506 H526 0.931 . S
C507 C503 1.460 . S
C507 C506 1.477 . S
C507 H527 0.930 . S
C508 N504 1.362 . S
C508 C505 1.431 . S
C508 C518 1.476 . S
H509 C503 0.929 . S
C510 O501 1.250 . S
C510 O502 1.258 1_455 S
O511 Mn496 2.162 . S
O511 C499 1.281 . S
O512 Mn496 2.297 . S
O512 C499 1.236 . S
N513 Mn497 2.282 . S
N513 C514 1.328 . S
N513 C518 1.318 . S
C514 N513 1.328 . S
C514 C515 1.457 . S
C514 H519 0.929 . S
C515 C514 1.457 . S
C515 C516 1.291 . S
C515 H528 0.931 . S
C516 C515 1.291 . S
C516 C517 1.373 . S
C516 H529 0.929 . S
C517 C516 1.373 . S
C517 C518 1.396 . S
C517 C524 1.403 . S
C518 C508 1.476 . S
C518 N513 1.318 . S
C518 C517 1.396 . S
H519 C514 0.929 . S
O520 Mn496 2.383 . S
O520 C498 1.238 1_455 S
O521 Mn496 2.209 1_655 S
O521 Mn497 2.215 . S
O521 C498 1.283 . S
O522 Mn496 2.094 . S
O522 C500 1.240 . S
O523 Mn497 2.117 . S
O523 C500 1.264 1_655 S
C524 C517 1.403 . S
C524 C525 1.399 . S
C524 H530 0.929 . S
C525 C505 1.449 . S
C525 C524 1.399 . S
C525 H531 0.930 . S
H526 C506 0.931 . S
H527 C507 0.930 . S
H528 C515 0.931 . S
H529 C516 0.929 . S
H530 C524 0.929 . S
H531 C525 0.930 . S
Mn532 O537 2.095 . S
Mn532 O547 2.162 . S
Mn532 O548 2.297 . S
Mn532 O556 2.385 . S
Mn532 O557 2.209 . S
Mn532 O558 2.094 . S
Mn533 O538 2.121 . S
Mn533 N540 2.257 . S
Mn533 N549 2.282 . S
Mn533 O557 2.215 . S
Mn533 O559 2.117 . S
C534 O556 1.234 . S
C534 O557 1.283 . S
C535 O547 1.281 . S
C535 O548 1.236 . S
C536 O558 1.240 . S
C536 O559 1.264 . S
O537 Mn532 2.095 . S
O537 C546 1.250 . S
O538 Mn533 2.121 . S
O538 C546 1.258 . S
C539 N540 1.326 . S
C539 C543 1.460 . S
C539 H545 0.929 . S
N540 Mn533 2.257 . S
N540 C539 1.326 . S
N540 C544 1.362 . S
C541 C542 1.258 . S
C541 C544 1.431 . S
C541 C561 1.449 . S
C542 C541 1.258 . S
C542 C543 1.477 . S
C542 H562 0.931 . S
C543 C539 1.460 . S
C543 C542 1.477 . S
C543 H563 0.930 . S
C544 N540 1.362 . S
C544 C541 1.431 . S
C544 C554 1.476 . S
H545 C539 0.929 . S
C546 O537 1.250 . S
C546 O538 1.258 . S
O547 Mn532 2.162 . S
O547 C535 1.281 . S
O548 Mn532 2.297 . S
O548 C535 1.236 . S
N549 Mn533 2.282 . S
N549 C550 1.328 . S
N549 C554 1.318 . S
C550 N549 1.328 . S
C550 C551 1.457 . S
C550 H555 0.929 . S
C551 C550 1.457 . S
C551 C552 1.291 . S
C551 H564 0.931 . S
C552 C551 1.291 . S
C552 C553 1.373 . S
C552 H565 0.929 . S
C553 C552 1.373 . S
C553 C554 1.396 . S
C553 C560 1.403 . S
C554 C544 1.476 . S
C554 N549 1.318 . S
C554 C553 1.396 . S
H555 C550 0.929 . S
O556 Mn532 2.385 . S
O556 C534 1.234 . S
O557 Mn532 2.209 . S
O557 Mn533 2.215 . S
O557 C534 1.283 . S
O558 Mn532 2.094 . S
O558 C536 1.240 . S
O559 Mn533 2.117 . S
O559 C536 1.264 . S
C560 C553 1.403 . S
C560 C561 1.399 . S
C560 H566 0.929 . S
C561 C541 1.449 . S
C561 C560 1.399 . S
C561 H567 0.930 . S
H562 C542 0.931 . S
H563 C543 0.930 . S
H564 C551 0.931 . S
H565 C552 0.929 . S
H566 C560 0.929 . S
H567 C561 0.930 . S
Mn568 O573 2.095 . S
Mn568 O583 2.162 . S
Mn568 O584 2.297 . S
Mn568 O592 2.385 . S
Mn568 O593 2.209 . S
Mn568 O594 2.094 . S
Mn569 O574 2.121 1_455 S
Mn569 N576 2.257 1_455 S
Mn569 N585 2.282 . S
Mn569 O593 2.215 . S
Mn569 O595 2.117 . S
C570 O592 1.234 . S
C570 O593 1.283 . S
C571 O583 1.281 . S
C571 O584 1.236 . S
C572 O594 1.240 . S
C572 O595 1.264 . S
O573 Mn568 2.095 . S
O573 C582 1.250 1_455 S
O574 Mn569 2.121 1_655 S
O574 C582 1.258 . S
C575 N576 1.326 . S
C575 C579 1.460 . S
C575 H581 0.929 . S
N576 Mn569 2.257 1_655 S
N576 C575 1.326 . S
N576 C580 1.362 . S
C577 C578 1.258 . S
C577 C580 1.431 . S
C577 C597 1.449 . S
C578 C577 1.258 . S
C578 C579 1.477 . S
C578 H598 0.931 . S
C579 C575 1.460 . S
C579 C578 1.477 . S
C579 H599 0.930 . S
C580 N576 1.362 . S
C580 C577 1.431 . S
C580 C590 1.476 1_655 S
H581 C575 0.929 . S
C582 O573 1.250 1_655 S
C582 O574 1.258 . S
O583 Mn568 2.162 . S
O583 C571 1.281 . S
O584 Mn568 2.297 . S
O584 C571 1.236 . S
N585 Mn569 2.282 . S
N585 C586 1.328 . S
N585 C590 1.318 . S
C586 N585 1.328 . S
C586 C587 1.457 . S
C586 H591 0.929 . S
C587 C586 1.457 . S
C587 C588 1.291 . S
C587 H600 0.931 . S
C588 C587 1.291 . S
C588 C589 1.373 . S
C588 H601 0.929 . S
C589 C588 1.373 . S
C589 C590 1.396 . S
C589 C596 1.403 1_455 S
C590 C580 1.476 1_455 S
C590 N585 1.318 . S
C590 C589 1.396 . S
H591 C586 0.929 . S
O592 Mn568 2.385 . S
O592 C570 1.234 . S
O593 Mn568 2.209 . S
O593 Mn569 2.215 . S
O593 C570 1.283 . S
O594 Mn568 2.094 . S
O594 C572 1.240 . S
O595 Mn569 2.117 . S
O595 C572 1.264 . S
C596 C589 1.403 1_655 S
C596 C597 1.399 . S
C596 H602 0.929 . S
C597 C577 1.449 . S
C597 C596 1.399 . S
C597 H603 0.930 . S
H598 C578 0.931 . S
H599 C579 0.930 . S
H600 C587 0.931 . S
H601 C588 0.929 . S
H602 C596 0.929 . S
H603 C597 0.930 . S
Mn604 O609 2.095 . S
Mn604 O619 2.162 . S
Mn604 O620 2.297 . S
Mn604 O628 2.385 . S
Mn604 O629 2.209 . S
Mn604 O630 2.094 . S
Mn605 O610 2.121 . S
Mn605 N612 2.257 . S
Mn605 N621 2.282 . S
Mn605 O629 2.215 . S
Mn605 O631 2.117 . S
C606 O628 1.234 . S
C606 O629 1.283 . S
C607 O619 1.281 . S
C607 O620 1.236 . S
C608 O630 1.240 . S
C608 O631 1.264 . S
O609 Mn604 2.095 . S
O609 C618 1.250 . S
O610 Mn605 2.121 . S
O610 C618 1.258 . S
C611 N612 1.326 . S
C611 C615 1.460 . S
C611 H617 0.929 . S
N612 Mn605 2.257 . S
N612 C611 1.326 . S
N612 C616 1.362 . S
C613 C614 1.258 . S
C613 C616 1.431 . S
C613 C633 1.449 . S
C614 C613 1.258 . S
C614 C615 1.477 . S
C614 H634 0.931 . S
C615 C611 1.460 . S
C615 C614 1.477 . S
C615 H635 0.930 . S
C616 N612 1.362 . S
C616 C613 1.431 . S
C616 C626 1.476 . S
H617 C611 0.929 . S
C618 O609 1.250 . S
C618 O610 1.258 . S
O619 Mn604 2.162 . S
O619 C607 1.281 . S
O620 Mn604 2.297 . S
O620 C607 1.236 . S
N621 Mn605 2.282 . S
N621 C622 1.328 . S
N621 C626 1.318 . S
C622 N621 1.328 . S
C622 C623 1.457 . S
C622 H627 0.929 . S
C623 C622 1.457 . S
C623 C624 1.291 . S
C623 H636 0.931 . S
C624 C623 1.291 . S
C624 C625 1.373 . S
C624 H637 0.929 . S
C625 C624 1.373 . S
C625 C626 1.396 . S
C625 C632 1.403 . S
C626 C616 1.476 . S
C626 N621 1.318 . S
C626 C625 1.396 . S
H627 C622 0.929 . S
O628 Mn604 2.385 . S
O628 C606 1.234 . S
O629 Mn604 2.209 . S
O629 Mn605 2.215 . S
O629 C606 1.283 . S
O630 Mn604 2.094 . S
O630 C608 1.240 . S
O631 Mn605 2.117 . S
O631 C608 1.264 . S
C632 C625 1.403 . S
C632 C633 1.399 . S
C632 H638 0.929 . S
C633 C613 1.449 . S
C633 C632 1.399 . S
C633 H639 0.930 . S
H634 C614 0.931 . S
H635 C615 0.930 . S
H636 C623 0.931 . S
H637 C624 0.929 . S
H638 C632 0.929 . S
H639 C633 0.930 . S
H640 C648 0.929 . S
H641 C650 0.930 . S
H642 C652 0.930 . S
H643 C655 0.929 . S
H644 C658 0.930 . S
H645 C660 0.960 . S
H646 C660 0.960 . S
H647 C660 0.960 . S
C648 H640 0.929 . S
C648 C649 1.377 . S
C648 C650 1.384 . S
C649 C648 1.377 . S
C649 C655 1.390 . S
C650 H641 0.930 . S
C650 C648 1.384 . S
C650 C651 1.372 . S
C651 C650 1.372 . S
C651 C652 1.400 . S
C651 C656 1.490 . S
C652 H642 0.930 . S
C652 C651 1.400 . S
C652 C655 1.386 . S
H653 C669 0.930 . S
H654 C670 0.931 . S
C655 H643 0.929 . S
C655 C649 1.390 . S
C655 C652 1.386 . S
C656 C651 1.490 . S
C656 C658 1.395 . S
C656 C659 1.403 . S
H657 C663 0.930 . S
C658 H644 0.930 . S
C658 C656 1.395 . S
C658 C661 1.403 . S
C659 C656 1.403 . S
C659 C660 1.524 . S
C659 C663 1.400 . S
C660 H645 0.960 . S
C660 H646 0.960 . S
C660 H647 0.960 . S
C660 C659 1.524 . S
C661 C658 1.403 . S
C661 C662 1.392 . S
C661 C665 1.495 . S
C662 C661 1.392 . S
C662 C663 1.385 . S
C662 C664 1.478 . S
C663 H657 0.930 . S
C663 C659 1.400 . S
C663 C662 1.385 . S
C664 C662 1.478 . S
C664 C666 1.381 . S
C664 C670 1.383 . S
C665 C661 1.495 . S
C665 H671 0.959 . S
C665 H672 0.961 . S
C665 H673 0.960 . S
C666 C664 1.381 . S
C666 C667 1.394 . S
C666 H674 0.930 . S
C667 C666 1.394 . S
C667 C668 1.383 . S
C667 H675 0.929 . S
C668 C667 1.383 . S
C668 C669 1.377 . S
C669 H653 0.930 . S
C669 C668 1.377 . S
C669 C670 1.379 . S
C670 H654 0.931 . S
C670 C664 1.383 . S
C670 C669 1.379 . S
H671 C665 0.959 . S
H672 C665 0.961 . S
H673 C665 0.960 . S
H674 C666 0.930 . S
H675 C667 0.929 . S
H676 C684 0.929 . S
H677 C686 0.930 . S
H678 C688 0.930 . S
H679 C691 0.929 . S
H680 C694 0.930 . S
H681 C696 0.960 . S
H682 C696 0.960 . S
H683 C696 0.960 . S
C684 H676 0.929 . S
C684 C685 1.377 . S
C684 C686 1.384 1_655 S
C685 C684 1.377 . S
C685 C691 1.390 1_655 S
C686 H677 0.930 . S
C686 C684 1.384 1_455 S
C686 C687 1.372 . S
C687 C686 1.372 . S
C687 C688 1.400 . S
C687 C692 1.490 . S
C688 H678 0.930 . S
C688 C687 1.400 . S
C688 C691 1.386 . S
H689 C705 0.930 . S
H690 C706 0.931 . S
C691 H679 0.929 . S
C691 C685 1.390 1_455 S
C691 C688 1.386 . S
C692 C687 1.490 . S
C692 C694 1.395 . S
C692 C695 1.403 . S
H693 C699 0.930 . S
C694 H680 0.930 . S
C694 C692 1.395 . S
C694 C697 1.403 . S
C695 C692 1.403 . S
C695 C696 1.524 . S
C695 C699 1.400 . S
C696 H681 0.960 . S
C696 H682 0.960 . S
C696 H683 0.960 . S
C696 C695 1.524 . S
C697 C694 1.403 . S
C697 C698 1.392 . S
C697 C701 1.495 . S
C698 C697 1.392 . S
C698 C699 1.385 . S
C698 C700 1.478 . S
C699 H693 0.930 . S
C699 C695 1.400 . S
C699 C698 1.385 . S
C700 C698 1.478 . S
C700 C702 1.381 . S
C700 C706 1.383 . S
C701 C697 1.495 . S
C701 H707 0.959 . S
C701 H708 0.961 . S
C701 H709 0.960 . S
C702 C700 1.381 . S
C702 C703 1.394 . S
C702 H710 0.930 . S
C703 C702 1.394 . S
C703 C704 1.383 . S
C703 H711 0.929 . S
C704 C703 1.383 . S
C704 C705 1.377 . S
C705 H689 0.930 . S
C705 C704 1.377 . S
C705 C706 1.379 . S
C706 H690 0.931 . S
C706 C700 1.383 . S
C706 C705 1.379 . S
H707 C701 0.959 . S
H708 C701 0.961 . S
H709 C701 0.960 . S
H710 C702 0.930 . S
H711 C703 0.929 . S
H712 C720 0.929 . S
H713 C722 0.930 . S
H714 C724 0.930 . S
H715 C727 0.929 . S
H716 C730 0.930 . S
H717 C732 0.960 . S
H718 C732 0.960 . S
H719 C732 0.960 . S
C720 H712 0.929 . S
C720 C721 1.377 . S
C720 C722 1.384 . S
C721 C720 1.377 . S
C721 C727 1.390 . S
C722 H713 0.930 . S
C722 C720 1.384 . S
C722 C723 1.372 . S
C723 C722 1.372 . S
C723 C724 1.400 . S
C723 C728 1.490 . S
C724 H714 0.930 . S
C724 C723 1.400 . S
C724 C727 1.386 . S
H725 C741 0.930 . S
H726 C742 0.931 . S
C727 H715 0.929 . S
C727 C721 1.390 . S
C727 C724 1.386 . S
C728 C723 1.490 . S
C728 C730 1.395 . S
C728 C731 1.403 . S
H729 C735 0.930 . S
C730 H716 0.930 . S
C730 C728 1.395 . S
C730 C733 1.403 . S
C731 C728 1.403 . S
C731 C732 1.524 . S
C731 C735 1.400 . S
C732 H717 0.960 . S
C732 H718 0.960 . S
C732 H719 0.960 . S
C732 C731 1.524 . S
C733 C730 1.403 . S
C733 C734 1.392 . S
C733 C737 1.495 . S
C734 C733 1.392 . S
C734 C735 1.385 . S
C734 C736 1.478 . S
C735 H729 0.930 . S
C735 C731 1.400 . S
C735 C734 1.385 . S
C736 C734 1.478 . S
C736 C738 1.381 . S
C736 C742 1.383 . S
C737 C733 1.495 . S
C737 H743 0.959 . S
C737 H744 0.961 . S
C737 H745 0.960 . S
C738 C736 1.381 . S
C738 C739 1.394 . S
C738 H746 0.930 . S
C739 C738 1.394 . S
C739 C740 1.383 . S
C739 H747 0.929 . S
C740 C739 1.383 . S
C740 C741 1.377 . S
C741 H725 0.930 . S
C741 C740 1.377 . S
C741 C742 1.379 . S
C742 H726 0.931 . S
C742 C736 1.383 . S
C742 C741 1.379 . S
H743 C737 0.959 . S
H744 C737 0.961 . S
H745 C737 0.960 . S
H746 C738 0.930 . S
H747 C739 0.929 . S
H748 C756 0.929 . S
H749 C758 0.930 . S
H750 C760 0.931 1_455 S
H751 C763 0.929 . S
H752 C766 0.930 . S
H753 C768 0.954 1_545 S
H754 C768 0.965 . S
H755 C768 0.960 1_445 S
C756 H748 0.929 . S
C756 C757 1.377 1_655 S
C756 C758 1.384 . S
C757 C756 1.377 1_455 S
C757 C763 1.390 1_565 S
C758 H749 0.930 . S
C758 C756 1.384 . S
C758 C759 1.372 . S
C759 C758 1.372 . S
C759 C760 1.395 1_565 S
C759 C764 1.490 . S
C760 H750 0.931 1_655 S
C760 C759 1.395 1_545 S
C760 C763 1.390 1_655 S
H761 C777 0.930 . S
H762 C778 0.931 . S
C763 H751 0.929 . S
C763 C757 1.390 1_545 S
C763 C760 1.390 1_455 S
C764 C759 1.490 . S
C764 C766 1.395 . S
C764 C767 1.409 . S
H765 C771 0.930 . S
C766 H752 0.930 . S
C766 C764 1.395 . S
C766 C769 1.404 . S
C767 C764 1.409 . S
C767 C768 1.526 . S
C767 C771 1.393 1_565 S
C768 H753 0.954 1_565 S
C768 H754 0.965 . S
C768 H755 0.960 1_665 S
C768 C767 1.526 . S
C769 C766 1.404 . S
C769 C770 1.392 1_565 S
C769 C773 1.495 1_565 S
C770 C769 1.392 1_545 S
C770 C771 1.385 . S
C770 C772 1.478 . S
C771 H765 0.930 . S
C771 C767 1.393 1_545 S
C771 C770 1.385 . S
C772 C770 1.478 . S
C772 C774 1.381 1_545 S
C772 C778 1.383 . S
C773 C769 1.495 1_545 S
C773 H779 0.959 1_545 S
C773 H780 0.963 . S
C773 H781 0.958 1_545 S
C774 C772 1.381 1_565 S
C774 C775 1.394 . S
C774 H782 0.930 . S
C775 C774 1.394 . S
C775 C776 1.383 1_565 S
C775 H783 0.929 . S
C776 C775 1.383 1_545 S
C776 C777 1.377 . S
C777 H761 0.930 . S
C777 C776 1.377 . S
C777 C778 1.379 . S
C778 H762 0.931 . S
C778 C772 1.383 . S
C778 C777 1.379 . S
H779 C773 0.959 1_565 S
H780 C773 0.963 . S
H781 C773 0.958 1_565 S
H782 C774 0.930 . S
H783 C775 0.929 . S
H784 C792 0.929 . S
H785 C794 0.930 . S
H786 C796 0.930 . S
H787 C799 0.929 . S
H788 C802 0.930 . S
H789 C804 0.960 . S
H790 C804 0.960 . S
H791 C804 0.960 . S
C792 H784 0.929 . S
C792 C793 1.377 . S
C792 C794 1.384 . S
C793 C792 1.377 . S
C793 C799 1.390 . S
C794 H785 0.930 . S
C794 C792 1.384 . S
C794 C795 1.372 . S
C795 C794 1.372 . S
C795 C796 1.400 . S
C795 C800 1.490 . S
C796 H786 0.930 . S
C796 C795 1.400 . S
C796 C799 1.386 . S
H797 C813 0.930 . S
H798 C814 0.931 . S
C799 H787 0.929 . S
C799 C793 1.390 . S
C799 C796 1.386 . S
C800 C795 1.490 . S
C800 C802 1.395 . S
C800 C803 1.403 . S
H801 C807 0.930 . S
C802 H788 0.930 . S
C802 C800 1.395 . S
C802 C805 1.403 . S
C803 C800 1.403 . S
C803 C804 1.524 . S
C803 C807 1.400 . S
C804 H789 0.960 . S
C804 H790 0.960 . S
C804 H791 0.960 . S
C804 C803 1.524 . S
C805 C802 1.403 . S
C805 C806 1.392 . S
C805 C809 1.495 . S
C806 C805 1.392 . S
C806 C807 1.385 . S
C806 C808 1.478 . S
C807 H801 0.930 . S
C807 C803 1.400 . S
C807 C806 1.385 . S
C808 C806 1.478 . S
C808 C810 1.381 . S
C808 C814 1.383 . S
C809 C805 1.495 . S
C809 H815 0.959 . S
C809 H816 0.961 . S
C809 H817 0.960 . S
C810 C808 1.381 . S
C810 C811 1.394 . S
C810 H818 0.930 . S
C811 C810 1.394 . S
C811 C812 1.383 . S
C811 H819 0.929 . S
C812 C811 1.383 . S
C812 C813 1.377 . S
C813 H797 0.930 . S
C813 C812 1.377 . S
C813 C814 1.379 . S
C814 H798 0.931 . S
C814 C808 1.383 . S
C814 C813 1.379 . S
H815 C809 0.959 . S
H816 C809 0.961 . S
H817 C809 0.960 . S
H818 C810 0.930 . S
H819 C811 0.929 . S
H820 C828 0.929 . S
H821 C830 0.930 . S
H822 C832 0.930 . S
H823 C835 0.929 . S
H824 C838 0.930 . S
H825 C840 0.960 . S
H826 C840 0.960 . S
H827 C840 0.960 . S
C828 H820 0.929 . S
C828 C829 1.377 . S
C828 C830 1.384 . S
C829 C828 1.377 . S
C829 C835 1.390 . S
C830 H821 0.930 . S
C830 C828 1.384 . S
C830 C831 1.372 . S
C831 C830 1.372 . S
C831 C832 1.400 . S
C831 C836 1.490 . S
C832 H822 0.930 . S
C832 C831 1.400 . S
C832 C835 1.386 . S
H833 C849 0.930 . S
H834 C850 0.931 . S
C835 H823 0.929 . S
C835 C829 1.390 . S
C835 C832 1.386 . S
C836 C831 1.490 . S
C836 C838 1.395 . S
C836 C839 1.403 . S
H837 C843 0.930 . S
C838 H824 0.930 . S
C838 C836 1.395 . S
C838 C841 1.403 . S
C839 C836 1.403 . S
C839 C840 1.524 . S
C839 C843 1.400 . S
C840 H825 0.960 . S
C840 H826 0.960 . S
C840 H827 0.960 . S
C840 C839 1.524 . S
C841 C838 1.403 . S
C841 C842 1.392 . S
C841 C845 1.495 . S
C842 C841 1.392 . S
C842 C843 1.385 . S
C842 C844 1.478 . S
C843 H837 0.930 . S
C843 C839 1.400 . S
C843 C842 1.385 . S
C844 C842 1.478 . S
C844 C846 1.381 . S
C844 C850 1.383 . S
C845 C841 1.495 . S
C845 H851 0.959 . S
C845 H852 0.961 . S
C845 H853 0.960 . S
C846 C844 1.381 . S
C846 C847 1.394 . S
C846 H854 0.930 . S
C847 C846 1.394 . S
C847 C848 1.383 . S
C847 H855 0.929 . S
C848 C847 1.383 . S
C848 C849 1.377 . S
C849 H833 0.930 . S
C849 C848 1.377 . S
C849 C850 1.379 . S
C850 H834 0.931 . S
C850 C844 1.383 . S
C850 C849 1.379 . S
H851 C845 0.959 . S
H852 C845 0.961 . S
H853 C845 0.960 . S
H854 C846 0.930 . S
H855 C847 0.929 . S
H856 C864 0.929 . S
H857 C866 0.930 . S
H858 C868 0.930 . S
H859 C871 0.929 . S
H860 C874 0.930 . S
H861 C876 0.960 . S
H862 C876 0.960 . S
H863 C876 0.960 . S
C864 H856 0.929 . S
C864 C865 1.377 . S
C864 C866 1.384 . S
C865 C864 1.377 . S
C865 C871 1.390 . S
C866 H857 0.930 . S
C866 C864 1.384 . S
C866 C867 1.372 . S
C867 C866 1.372 . S
C867 C868 1.400 . S
C867 C872 1.490 . S
C868 H858 0.930 . S
C868 C867 1.400 . S
C868 C871 1.386 . S
H869 C885 0.930 . S
H870 C886 0.931 . S
C871 H859 0.929 . S
C871 C865 1.390 . S
C871 C868 1.386 . S
C872 C867 1.490 . S
C872 C874 1.395 . S
C872 C875 1.403 . S
H873 C879 0.930 . S
C874 H860 0.930 . S
C874 C872 1.395 . S
C874 C877 1.403 . S
C875 C872 1.403 . S
C875 C876 1.524 . S
C875 C879 1.400 . S
C876 H861 0.960 . S
C876 H862 0.960 . S
C876 H863 0.960 . S
C876 C875 1.524 . S
C877 C874 1.403 . S
C877 C878 1.392 . S
C877 C881 1.495 . S
C878 C877 1.392 . S
C878 C879 1.385 . S
C878 C880 1.478 . S
C879 H873 0.930 . S
C879 C875 1.400 . S
C879 C878 1.385 . S
C880 C878 1.478 . S
C880 C882 1.381 . S
C880 C886 1.383 . S
C881 C877 1.495 . S
C881 H887 0.959 . S
C881 H888 0.961 . S
C881 H889 0.960 . S
C882 C880 1.381 . S
C882 C883 1.394 . S
C882 H890 0.930 . S
C883 C882 1.394 . S
C883 C884 1.383 . S
C883 H891 0.929 . S
C884 C883 1.383 . S
C884 C885 1.377 . S
C885 H869 0.930 . S
C885 C884 1.377 . S
C885 C886 1.379 . S
C886 H870 0.931 . S
C886 C880 1.383 . S
C886 C885 1.379 . S
H887 C881 0.959 . S
H888 C881 0.961 . S
H889 C881 0.960 . S
H890 C882 0.930 . S
H891 C883 0.929 . S
H892 C900 0.929 . S
H893 C902 0.930 . S
H894 C904 0.930 1_545 S
H895 C907 0.929 1_545 S
H896 C910 0.930 . S
H897 C912 0.960 . S
H898 C912 0.960 . S
H899 C912 0.960 . S
C900 H892 0.929 . S
C900 C901 1.377 . S
C900 C902 1.384 . S
C901 C900 1.377 . S
C901 C907 1.390 . S
C902 H893 0.930 . S
C902 C900 1.384 . S
C902 C903 1.372 . S
C903 C902 1.372 . S
C903 C904 1.400 . S
C903 C908 1.490 . S
C904 H894 0.930 1_565 S
C904 C903 1.400 . S
C904 C907 1.386 . S
H905 C921 0.930 . S
H906 C922 0.931 . S
C907 H895 0.929 1_565 S
C907 C901 1.390 . S
C907 C904 1.386 . S
C908 C903 1.490 . S
C908 C910 1.395 . S
C908 C911 1.403 . S
H909 C915 0.930 . S
C910 H896 0.930 . S
C910 C908 1.395 . S
C910 C913 1.403 . S
C911 C908 1.403 . S
C911 C912 1.524 . S
C911 C915 1.400 . S
C912 H897 0.960 . S
C912 H898 0.960 . S
C912 H899 0.960 . S
C912 C911 1.524 . S
C913 C910 1.403 . S
C913 C914 1.392 . S
C913 C917 1.495 . S
C914 C913 1.392 . S
C914 C915 1.385 . S
C914 C916 1.479 . S
C915 H909 0.930 . S
C915 C911 1.400 . S
C915 C914 1.385 . S
C916 C914 1.479 . S
C916 C918 1.407 . S
C916 C922 1.357 1_565 S
C917 C913 1.495 . S
C917 H923 0.959 . S
C917 H924 0.961 1_565 S
C917 H925 0.960 . S
C918 C916 1.407 . S
C918 C919 1.394 . S
C918 H926 0.930 . S
C919 C918 1.394 . S
C919 C920 1.383 1_565 S
C919 H927 0.929 . S
C920 C919 1.383 1_545 S
C920 C921 1.377 . S
C921 H905 0.930 . S
C921 C920 1.377 . S
C921 C922 1.379 . S
C922 H906 0.931 . S
C922 C916 1.357 1_545 S
C922 C921 1.379 . S
H923 C917 0.959 . S
H924 C917 0.961 1_545 S
H925 C917 0.960 . S
H926 C918 0.930 . S
H927 C919 0.929 . S
H928 C936 0.929 . S
H929 C938 0.930 . S
H930 C940 0.930 . S
H931 C943 0.929 . S
H932 C946 0.930 . S
H933 C948 0.960 . S
H934 C948 0.960 . S
H935 C948 0.960 . S
C936 H928 0.929 . S
C936 C937 1.377 . S
C936 C938 1.384 . S
C937 C936 1.377 . S
C937 C943 1.390 . S
C938 H929 0.930 . S
C938 C936 1.384 . S
C938 C939 1.372 . S
C939 C938 1.372 . S
C939 C940 1.400 . S
C939 C944 1.490 . S
C940 H930 0.930 . S
C940 C939 1.400 . S
C940 C943 1.386 . S
H941 C957 0.930 . S
H942 C958 0.931 . S
C943 H931 0.929 . S
C943 C937 1.390 . S
C943 C940 1.386 . S
C944 C939 1.490 . S
C944 C946 1.395 . S
C944 C947 1.403 . S
H945 C951 0.930 . S
C946 H932 0.930 . S
C946 C944 1.395 . S
C946 C949 1.403 . S
C947 C944 1.403 . S
C947 C948 1.524 . S
C947 C951 1.400 . S
C948 H933 0.960 . S
C948 H934 0.960 . S
C948 H935 0.960 . S
C948 C947 1.524 . S
C949 C946 1.403 . S
C949 C950 1.392 . S
C949 C953 1.495 . S
C950 C949 1.392 . S
C950 C951 1.385 . S
C950 C952 1.478 . S
C951 H945 0.930 . S
C951 C947 1.400 . S
C951 C950 1.385 . S
C952 C950 1.478 . S
C952 C954 1.381 . S
C952 C958 1.383 . S
C953 C949 1.495 . S
C953 H959 0.959 . S
C953 H960 0.961 . S
C953 H961 0.960 . S
C954 C952 1.381 . S
C954 C955 1.394 . S
C954 H962 0.930 . S
C955 C954 1.394 . S
C955 C956 1.383 . S
C955 H963 0.929 . S
C956 C955 1.383 . S
C956 C957 1.377 . S
C957 H941 0.930 . S
C957 C956 1.377 . S
C957 C958 1.379 . S
C958 H942 0.931 . S
C958 C952 1.383 . S
C958 C957 1.379 . S
H959 C953 0.959 . S
H960 C953 0.961 . S
H961 C953 0.960 . S
H962 C954 0.930 . S
H963 C955 0.929 . S
H964 C972 0.929 . S
H965 C974 0.930 . S
H966 C976 0.930 . S
H967 C979 0.929 . S
H968 C982 0.930 . S
H969 C984 0.960 . S
H970 C984 0.960 . S
H971 C984 0.960 . S
C972 H964 0.929 . S
C972 C973 1.377 . S
C972 C974 1.384 . S
C973 C972 1.377 . S
C973 C979 1.390 . S
C974 H965 0.930 . S
C974 C972 1.384 . S
C974 C975 1.372 . S
C975 C974 1.372 . S
C975 C976 1.400 . S
C975 C980 1.490 . S
C976 H966 0.930 . S
C976 C975 1.400 . S
C976 C979 1.386 . S
H977 C993 0.930 . S
H978 C994 0.931 . S
C979 H967 0.929 . S
C979 C973 1.390 . S
C979 C976 1.386 . S
C980 C975 1.490 . S
C980 C982 1.395 . S
C980 C983 1.403 . S
H981 C987 0.930 . S
C982 H968 0.930 . S
C982 C980 1.395 . S
C982 C985 1.403 . S
C983 C980 1.403 . S
C983 C984 1.524 . S
C983 C987 1.400 . S
C984 H969 0.960 . S
C984 H970 0.960 . S
C984 H971 0.960 . S
C984 C983 1.524 . S
C985 C982 1.403 . S
C985 C986 1.392 . S
C985 C989 1.495 . S
C986 C985 1.392 . S
C986 C987 1.385 . S
C986 C988 1.478 . S
C987 H981 0.930 . S
C987 C983 1.400 . S
C987 C986 1.385 . S
C988 C986 1.478 . S
C988 C990 1.381 . S
C988 C994 1.383 . S
C989 C985 1.495 . S
C989 H995 0.959 . S
C989 H996 0.961 . S
C989 H997 0.960 . S
C990 C988 1.381 . S
C990 C991 1.394 . S
C990 H998 0.930 . S
C991 C990 1.394 . S
C991 C992 1.383 . S
C991 H999 0.929 . S
C992 C991 1.383 . S
C992 C993 1.377 . S
C993 H977 0.930 . S
C993 C992 1.377 . S
C993 C994 1.379 . S
C994 H978 0.931 . S
C994 C988 1.383 . S
C994 C993 1.379 . S
H995 C989 0.959 . S
H996 C989 0.961 . S
H997 C989 0.960 . S
H998 C990 0.930 . S
H999 C991 0.929 . S
H1000 C1008 0.929 . S
H1001 C1010 0.930 . S
H1002 C1012 0.930 . S
H1003 C1015 0.929 . S
H1004 C1018 0.930 . S
H1005 C1020 0.960 . S
H1006 C1020 0.960 . S
H1007 C1020 0.960 . S
C1008 H1000 0.929 . S
C1008 C1009 1.377 . S
C1008 C1010 1.384 . S
C1009 C1008 1.377 . S
C1009 C1015 1.390 . S
C1010 H1001 0.930 . S
C1010 C1008 1.384 . S
C1010 C1011 1.372 . S
C1011 C1010 1.372 . S
C1011 C1012 1.400 . S
C1011 C1016 1.490 . S
C1012 H1002 0.930 . S
C1012 C1011 1.400 . S
C1012 C1015 1.386 . S
H1013 C1029 0.930 . S
H1014 C1030 0.931 . S
C1015 H1003 0.929 . S
C1015 C1009 1.390 . S
C1015 C1012 1.386 . S
C1016 C1011 1.490 . S
C1016 C1018 1.395 . S
C1016 C1019 1.403 . S
H1017 C1023 0.930 . S
C1018 H1004 0.930 . S
C1018 C1016 1.395 . S
C1018 C1021 1.403 . S
C1019 C1016 1.403 . S
C1019 C1020 1.524 . S
C1019 C1023 1.400 . S
C1020 H1005 0.960 . S
C1020 H1006 0.960 . S
C1020 H1007 0.960 . S
C1020 C1019 1.524 . S
C1021 C1018 1.403 . S
C1021 C1022 1.392 . S
C1021 C1025 1.495 . S
C1022 C1021 1.392 . S
C1022 C1023 1.385 . S
C1022 C1024 1.478 . S
C1023 H1017 0.930 . S
C1023 C1019 1.400 . S
C1023 C1022 1.385 . S
C1024 C1022 1.478 . S
C1024 C1026 1.381 . S
C1024 C1030 1.383 . S
C1025 C1021 1.495 . S
C1025 H1031 0.959 . S
C1025 H1032 0.961 . S
C1025 H1033 0.960 . S
C1026 C1024 1.381 . S
C1026 C1027 1.394 . S
C1026 H1034 0.930 . S
C1027 C1026 1.394 . S
C1027 C1028 1.383 . S
C1027 H1035 0.929 . S
C1028 C1027 1.383 . S
C1028 C1029 1.377 . S
C1029 H1013 0.930 . S
C1029 C1028 1.377 . S
C1029 C1030 1.379 . S
C1030 H1014 0.931 . S
C1030 C1024 1.383 . S
C1030 C1029 1.379 . S
H1031 C1025 0.959 . S
H1032 C1025 0.961 . S
H1033 C1025 0.960 . S
H1034 C1026 0.930 . S
H1035 C1027 0.929 . S
H1036 C1044 0.929 . S
H1037 C1046 0.930 . S
H1038 C1048 0.930 . S
H1039 C1051 0.929 . S
H1040 C1054 0.930 . S
H1041 C1056 0.960 . S
H1042 C1056 0.960 . S
H1043 C1056 0.960 . S
C1044 H1036 0.929 . S
C1044 C1045 1.377 . S
C1044 C1046 1.384 . S
C1045 C1044 1.377 . S
C1045 C1051 1.390 . S
C1046 H1037 0.930 . S
C1046 C1044 1.384 . S
C1046 C1047 1.372 . S
C1047 C1046 1.372 . S
C1047 C1048 1.400 . S
C1047 C1052 1.490 . S
C1048 H1038 0.930 . S
C1048 C1047 1.400 . S
C1048 C1051 1.386 . S
H1049 C1065 0.930 . S
H1050 C1066 0.931 . S
C1051 H1039 0.929 . S
C1051 C1045 1.390 . S
C1051 C1048 1.386 . S
C1052 C1047 1.490 . S
C1052 C1054 1.395 . S
C1052 C1055 1.403 . S
H1053 C1059 0.930 . S
C1054 H1040 0.930 . S
C1054 C1052 1.395 . S
C1054 C1057 1.403 . S
C1055 C1052 1.403 . S
C1055 C1056 1.524 . S
C1055 C1059 1.400 . S
C1056 H1041 0.960 . S
C1056 H1042 0.960 . S
C1056 H1043 0.960 . S
C1056 C1055 1.524 . S
C1057 C1054 1.403 . S
C1057 C1058 1.392 . S
C1057 C1061 1.495 . S
C1058 C1057 1.392 . S
C1058 C1059 1.385 . S
C1058 C1060 1.478 . S
C1059 H1053 0.930 . S
C1059 C1055 1.400 . S
C1059 C1058 1.385 . S
C1060 C1058 1.478 . S
C1060 C1062 1.381 . S
C1060 C1066 1.383 . S
C1061 C1057 1.495 . S
C1061 H1067 0.959 . S
C1061 H1068 0.961 . S
C1061 H1069 0.960 . S
C1062 C1060 1.381 . S
C1062 C1063 1.394 . S
C1062 H1070 0.930 . S
C1063 C1062 1.394 . S
C1063 C1064 1.383 . S
C1063 H1071 0.929 . S
C1064 C1063 1.383 . S
C1064 C1065 1.377 . S
C1065 H1049 0.930 . S
C1065 C1064 1.377 . S
C1065 C1066 1.379 . S
C1066 H1050 0.931 . S
C1066 C1060 1.383 . S
C1066 C1065 1.379 . S
H1067 C1061 0.959 . S
H1068 C1061 0.961 . S
H1069 C1061 0.960 . S
H1070 C1062 0.930 . S
H1071 C1063 0.929 . S
H1072 C1080 0.929 . S
H1073 C1082 0.930 . S
H1074 C1084 0.930 . S
H1075 C1087 0.929 . S
H1076 C1090 0.930 . S
H1077 C1092 0.960 . S
H1078 C1092 0.960 . S
H1079 C1092 0.960 . S
C1080 H1072 0.929 . S
C1080 C1081 1.377 . S
C1080 C1082 1.384 . S
C1081 C1080 1.377 . S
C1081 C1087 1.390 . S
C1082 H1073 0.930 . S
C1082 C1080 1.384 . S
C1082 C1083 1.372 . S
C1083 C1082 1.372 . S
C1083 C1084 1.400 . S
C1083 C1088 1.490 . S
C1084 H1074 0.930 . S
C1084 C1083 1.400 . S
C1084 C1087 1.386 . S
H1085 C1101 0.930 . S
H1086 C1102 0.931 . S
C1087 H1075 0.929 . S
C1087 C1081 1.390 . S
C1087 C1084 1.386 . S
C1088 C1083 1.490 . S
C1088 C1090 1.395 . S
C1088 C1091 1.403 . S
H1089 C1095 0.930 . S
C1090 H1076 0.930 . S
C1090 C1088 1.395 . S
C1090 C1093 1.403 . S
C1091 C1088 1.403 . S
C1091 C1092 1.524 . S
C1091 C1095 1.400 . S
C1092 H1077 0.960 . S
C1092 H1078 0.960 . S
C1092 H1079 0.960 . S
C1092 C1091 1.524 . S
C1093 C1090 1.403 . S
C1093 C1094 1.392 . S
C1093 C1097 1.495 . S
C1094 C1093 1.392 . S
C1094 C1095 1.385 . S
C1094 C1096 1.478 . S
C1095 H1089 0.930 . S
C1095 C1091 1.400 . S
C1095 C1094 1.385 . S
C1096 C1094 1.478 . S
C1096 C1098 1.381 . S
C1096 C1102 1.383 . S
C1097 C1093 1.495 . S
C1097 H1103 0.959 . S
C1097 H1104 0.961 . S
C1097 H1105 0.960 . S
C1098 C1096 1.381 . S
C1098 C1099 1.394 . S
C1098 H1106 0.930 . S
C1099 C1098 1.394 . S
C1099 C1100 1.383 . S
C1099 H1107 0.929 . S
C1100 C1099 1.383 . S
C1100 C1101 1.377 . S
C1101 H1085 0.930 . S
C1101 C1100 1.377 . S
C1101 C1102 1.379 . S
C1102 H1086 0.931 . S
C1102 C1096 1.383 . S
C1102 C1101 1.379 . S
H1103 C1097 0.959 . S
H1104 C1097 0.961 . S
H1105 C1097 0.960 . S
H1106 C1098 0.930 . S
H1107 C1099 0.929 . S
H1108 C1116 0.929 . S
H1109 C1118 0.930 . S
H1110 C1120 0.930 . S
H1111 C1123 0.929 . S
H1112 C1126 0.930 . S
H1113 C1128 0.960 . S
H1114 C1128 0.960 . S
H1115 C1128 0.960 . S
C1116 H1108 0.929 . S
C1116 C1117 1.377 . S
C1116 C1118 1.384 . S
C1117 C1116 1.377 . S
C1117 C1123 1.390 . S
C1118 H1109 0.930 . S
C1118 C1116 1.384 . S
C1118 C1119 1.372 . S
C1119 C1118 1.372 . S
C1119 C1120 1.400 . S
C1119 C1124 1.490 . S
C1120 H1110 0.930 . S
C1120 C1119 1.400 . S
C1120 C1123 1.386 . S
H1121 C1137 0.930 . S
H1122 C1138 0.931 . S
C1123 H1111 0.929 . S
C1123 C1117 1.390 . S
C1123 C1120 1.386 . S
C1124 C1119 1.490 . S
C1124 C1126 1.395 . S
C1124 C1127 1.403 . S
H1125 C1131 0.930 . S
C1126 H1112 0.930 . S
C1126 C1124 1.395 . S
C1126 C1129 1.403 . S
C1127 C1124 1.403 . S
C1127 C1128 1.524 . S
C1127 C1131 1.400 . S
C1128 H1113 0.960 . S
C1128 H1114 0.960 . S
C1128 H1115 0.960 . S
C1128 C1127 1.524 . S
C1129 C1126 1.403 . S
C1129 C1130 1.392 . S
C1129 C1133 1.495 . S
C1130 C1129 1.392 . S
C1130 C1131 1.385 . S
C1130 C1132 1.478 . S
C1131 H1125 0.930 . S
C1131 C1127 1.400 . S
C1131 C1130 1.385 . S
C1132 C1130 1.478 . S
C1132 C1134 1.381 . S
C1132 C1138 1.383 . S
C1133 C1129 1.495 . S
C1133 H1139 0.959 . S
C1133 H1140 0.961 . S
C1133 H1141 0.960 . S
C1134 C1132 1.381 . S
C1134 C1135 1.394 . S
C1134 H1142 0.930 . S
C1135 C1134 1.394 . S
C1135 C1136 1.383 . S
C1135 H1143 0.929 . S
C1136 C1135 1.383 . S
C1136 C1137 1.377 . S
C1137 H1121 0.930 . S
C1137 C1136 1.377 . S
C1137 C1138 1.379 . S
C1138 H1122 0.931 . S
C1138 C1132 1.383 . S
C1138 C1137 1.379 . S
H1139 C1133 0.959 . S
H1140 C1133 0.961 . S
H1141 C1133 0.960 . S
H1142 C1134 0.930 . S
H1143 C1135 0.929 . S
H1144 C1152 0.929 . S
H1145 C1154 0.930 . S
H1146 C1156 0.930 . S
H1147 C1159 0.929 . S
H1148 C1162 0.930 . S
H1149 C1164 0.960 . S
H1150 C1164 0.960 . S
H1151 C1164 0.960 . S
C1152 H1144 0.929 . S
C1152 C1153 1.377 . S
C1152 C1154 1.384 . S
C1153 C1152 1.377 . S
C1153 C1159 1.390 . S
C1154 H1145 0.930 . S
C1154 C1152 1.384 . S
C1154 C1155 1.372 . S
C1155 C1154 1.372 . S
C1155 C1156 1.400 . S
C1155 C1160 1.490 . S
C1156 H1146 0.930 . S
C1156 C1155 1.400 . S
C1156 C1159 1.386 . S
H1157 C1173 0.930 . S
H1158 C1174 0.931 . S
C1159 H1147 0.929 . S
C1159 C1153 1.390 . S
C1159 C1156 1.386 . S
C1160 C1155 1.490 . S
C1160 C1162 1.395 . S
C1160 C1163 1.403 . S
H1161 C1167 0.930 . S
C1162 H1148 0.930 . S
C1162 C1160 1.395 . S
C1162 C1165 1.403 . S
C1163 C1160 1.403 . S
C1163 C1164 1.524 . S
C1163 C1167 1.400 . S
C1164 H1149 0.960 . S
C1164 H1150 0.960 . S
C1164 H1151 0.960 . S
C1164 C1163 1.524 . S
C1165 C1162 1.403 . S
C1165 C1166 1.392 . S
C1165 C1169 1.495 . S
C1166 C1165 1.392 . S
C1166 C1167 1.385 . S
C1166 C1168 1.478 . S
C1167 H1161 0.930 . S
C1167 C1163 1.400 . S
C1167 C1166 1.385 . S
C1168 C1166 1.478 . S
C1168 C1170 1.381 . S
C1168 C1174 1.383 . S
C1169 C1165 1.495 . S
C1169 H1175 0.959 . S
C1169 H1176 0.961 . S
C1169 H1177 0.960 . S
C1170 C1168 1.381 . S
C1170 C1171 1.394 . S
C1170 H1178 0.930 . S
C1171 C1170 1.394 . S
C1171 C1172 1.383 . S
C1171 H1179 0.929 . S
C1172 C1171 1.383 . S
C1172 C1173 1.377 . S
C1173 H1157 0.930 . S
C1173 C1172 1.377 . S
C1173 C1174 1.379 . S
C1174 H1158 0.931 . S
C1174 C1168 1.383 . S
C1174 C1173 1.379 . S
H1175 C1169 0.959 . S
H1176 C1169 0.961 . S
H1177 C1169 0.960 . S
H1178 C1170 0.930 . S
H1179 C1171 0.929 . S
H1180 C1188 0.929 . S
H1181 C1190 0.930 . S
H1182 C1192 0.928 . S
H1183 C1195 0.929 . S
H1184 C1198 0.930 . S
H1185 C1200 0.960 . S
H1186 C1200 0.960 . S
H1187 C1200 0.960 . S
C1188 H1180 0.929 . S
C1188 C1189 1.377 . S
C1188 C1190 1.384 . S
C1189 C1188 1.377 . S
C1189 C1195 1.390 . S
C1190 H1181 0.930 . S
C1190 C1188 1.384 . S
C1190 C1191 1.372 . S
C1191 C1190 1.372 . S
C1191 C1192 1.400 . S
C1191 C1196 1.490 . S
C1192 H1182 0.928 . S
C1192 C1191 1.400 . S
C1192 C1195 1.386 . S
H1193 C1209 0.930 . S
H1194 C1210 0.931 . S
C1195 H1183 0.929 . S
C1195 C1189 1.390 . S
C1195 C1192 1.386 . S
C1196 C1191 1.490 . S
C1196 C1198 1.395 . S
C1196 C1199 1.403 1_655 S
H1197 C1203 0.930 . S
C1198 H1184 0.930 . S
C1198 C1196 1.395 . S
C1198 C1201 1.403 . S
C1199 C1196 1.403 1_455 S
C1199 C1200 1.524 . S
C1199 C1203 1.400 . S
C1200 H1185 0.960 . S
C1200 H1186 0.960 . S
C1200 H1187 0.960 . S
C1200 C1199 1.524 . S
C1201 C1198 1.403 . S
C1201 C1202 1.392 . S
C1201 C1205 1.495 . S
C1202 C1201 1.392 . S
C1202 C1203 1.385 1_655 S
C1202 C1204 1.478 1_655 S
C1203 H1197 0.930 . S
C1203 C1199 1.400 . S
C1203 C1202 1.385 1_455 S
C1204 C1202 1.478 1_455 S
C1204 C1206 1.381 1_455 S
C1204 C1210 1.383 . S
C1205 C1201 1.495 . S
C1205 H1211 0.959 . S
C1205 H1212 0.961 . S
C1205 H1213 0.960 . S
C1206 C1204 1.381 1_655 S
C1206 C1207 1.394 1_655 S
C1206 H1214 0.930 . S
C1207 C1206 1.394 1_455 S
C1207 C1208 1.383 . S
C1207 H1215 0.929 . S
C1208 C1207 1.383 . S
C1208 C1209 1.377 . S
C1209 H1193 0.930 . S
C1209 C1208 1.377 . S
C1209 C1210 1.379 . S
C1210 H1194 0.931 . S
C1210 C1204 1.383 . S
C1210 C1209 1.379 . S
H1211 C1205 0.959 . S
H1212 C1205 0.961 . S
H1213 C1205 0.960 . S
H1214 C1206 0.930 . S
H1215 C1207 0.929 . S
H1216 C1224 0.929 . S
H1217 C1226 0.930 . S
H1218 C1228 0.930 . S
H1219 C1231 0.929 . S
H1220 C1234 0.930 . S
H1221 C1236 0.960 . S
H1222 C1236 0.960 . S
H1223 C1236 0.960 . S
C1224 H1216 0.929 . S
C1224 C1225 1.377 . S
C1224 C1226 1.384 . S
C1225 C1224 1.377 . S
C1225 C1231 1.390 . S
C1226 H1217 0.930 . S
C1226 C1224 1.384 . S
C1226 C1227 1.372 . S
C1227 C1226 1.372 . S
C1227 C1228 1.400 . S
C1227 C1232 1.490 . S
C1228 H1218 0.930 . S
C1228 C1227 1.400 . S
C1228 C1231 1.386 . S
H1229 C1245 0.930 . S
H1230 C1246 0.931 . S
C1231 H1219 0.929 . S
C1231 C1225 1.390 . S
C1231 C1228 1.386 . S
C1232 C1227 1.490 . S
C1232 C1234 1.395 . S
C1232 C1235 1.403 . S
H1233 C1239 0.930 . S
C1234 H1220 0.930 . S
C1234 C1232 1.395 . S
C1234 C1237 1.403 . S
C1235 C1232 1.403 . S
C1235 C1236 1.524 . S
C1235 C1239 1.400 . S
C1236 H1221 0.960 . S
C1236 H1222 0.960 . S
C1236 H1223 0.960 . S
C1236 C1235 1.524 . S
C1237 C1234 1.403 . S
C1237 C1238 1.392 . S
C1237 C1241 1.495 . S
C1238 C1237 1.392 . S
C1238 C1239 1.385 . S
C1238 C1240 1.478 . S
C1239 H1233 0.930 . S
C1239 C1235 1.400 . S
C1239 C1238 1.385 . S
C1240 C1238 1.478 . S
C1240 C1242 1.381 . S
C1240 C1246 1.383 . S
C1241 C1237 1.495 . S
C1241 H1247 0.959 . S
C1241 H1248 0.961 . S
C1241 H1249 0.960 . S
C1242 C1240 1.381 . S
C1242 C1243 1.394 . S
C1242 H1250 0.930 . S
C1243 C1242 1.394 . S
C1243 C1244 1.383 . S
C1243 H1251 0.929 . S
C1244 C1243 1.383 . S
C1244 C1245 1.377 . S
C1245 H1229 0.930 . S
C1245 C1244 1.377 . S
C1245 C1246 1.379 . S
C1246 H1230 0.931 . S
C1246 C1240 1.383 . S
C1246 C1245 1.379 . S
H1247 C1241 0.959 . S
H1248 C1241 0.961 . S
H1249 C1241 0.960 . S
H1250 C1242 0.930 . S
H1251 C1243 0.929 . S
H1252 C1260 0.929 . S
H1253 C1262 0.930 . S
H1254 C1264 0.930 . S
H1255 C1267 0.929 . S
H1256 C1270 0.930 . S
H1257 C1272 0.960 . S
H1258 C1272 0.960 . S
H1259 C1272 0.960 . S
C1260 H1252 0.929 . S
C1260 C1261 1.377 . S
C1260 C1262 1.384 . S
C1261 C1260 1.377 . S
C1261 C1267 1.390 . S
C1262 H1253 0.930 . S
C1262 C1260 1.384 . S
C1262 C1263 1.372 . S
C1263 C1262 1.372 . S
C1263 C1264 1.400 . S
C1263 C1268 1.490 . S
C1264 H1254 0.930 . S
C1264 C1263 1.400 . S
C1264 C1267 1.386 . S
H1265 C1281 0.930 . S
H1266 C1282 0.931 . S
C1267 H1255 0.929 . S
C1267 C1261 1.390 . S
C1267 C1264 1.386 . S
C1268 C1263 1.490 . S
C1268 C1270 1.395 . S
C1268 C1271 1.403 . S
H1269 C1275 0.930 . S
C1270 H1256 0.930 . S
C1270 C1268 1.395 . S
C1270 C1273 1.403 . S
C1271 C1268 1.403 . S
C1271 C1272 1.524 . S
C1271 C1275 1.400 . S
C1272 H1257 0.960 . S
C1272 H1258 0.960 . S
C1272 H1259 0.960 . S
C1272 C1271 1.524 . S
C1273 C1270 1.403 . S
C1273 C1274 1.392 . S
C1273 C1277 1.495 . S
C1274 C1273 1.392 . S
C1274 C1275 1.385 . S
C1274 C1276 1.478 . S
C1275 H1269 0.930 . S
C1275 C1271 1.400 . S
C1275 C1274 1.385 . S
C1276 C1274 1.478 . S
C1276 C1278 1.381 . S
C1276 C1282 1.383 . S
C1277 C1273 1.495 . S
C1277 H1283 0.959 . S
C1277 H1284 0.961 . S
C1277 H1285 0.960 . S
C1278 C1276 1.381 . S
C1278 C1279 1.394 . S
C1278 H1286 0.930 . S
C1279 C1278 1.394 . S
C1279 C1280 1.383 . S
C1279 H1287 0.929 . S
C1280 C1279 1.383 . S
C1280 C1281 1.377 . S
C1281 H1265 0.930 . S
C1281 C1280 1.377 . S
C1281 C1282 1.379 . S
C1282 H1266 0.931 . S
C1282 C1276 1.383 . S
C1282 C1281 1.379 . S
H1283 C1277 0.959 . S
H1284 C1277 0.961 . S
H1285 C1277 0.960 . S
H1286 C1278 0.930 . S
H1287 C1279 0.929 . S
H1288 C1296 0.925 1_565 S
H1289 C1298 0.930 . S
H1290 C1300 0.930 . S
H1291 C1303 0.929 . S
H1292 C1306 0.930 . S
H1293 C1308 0.960 . S
H1294 C1308 0.960 . S
H1295 C1308 0.960 . S
C1296 H1288 0.925 1_545 S
C1296 C1297 1.397 . S
C1296 C1298 1.369 1_545 S
C1297 C1296 1.397 . S
C1297 C1303 1.390 1_556 S
C1298 H1289 0.930 . S
C1298 C1296 1.369 1_565 S
C1298 C1299 1.372 . S
C1299 C1298 1.372 . S
C1299 C1300 1.400 1_566 S
C1299 C1304 1.490 . S
C1300 H1290 0.930 . S
C1300 C1299 1.400 1_544 S
C1300 C1303 1.386 . S
H1301 C1317 0.930 . S
H1302 C1318 0.931 . S
C1303 H1291 0.929 . S
C1303 C1297 1.390 1_554 S
C1303 C1300 1.386 . S
C1304 C1299 1.490 . S
C1304 C1306 1.395 . S
C1304 C1307 1.403 . S
H1305 C1311 0.930 . S
C1306 H1292 0.930 . S
C1306 C1304 1.395 . S
C1306 C1309 1.403 1_556 S
C1307 C1304 1.403 . S
C1307 C1308 1.524 1_565 S
C1307 C1311 1.400 . S
C1308 H1293 0.960 . S
C1308 H1294 0.960 . S
C1308 H1295 0.960 . S
C1308 C1307 1.524 1_545 S
C1309 C1306 1.403 1_554 S
C1309 C1310 1.392 . S
C1309 C1313 1.495 . S
C1310 C1309 1.392 . S
C1310 C1311 1.385 1_554 S
C1310 C1312 1.478 . S
C1311 H1305 0.930 . S
C1311 C1307 1.400 . S
C1311 C1310 1.385 1_556 S
C1312 C1310 1.478 . S
C1312 C1314 1.381 1_554 S
C1312 C1318 1.383 . S
C1313 C1309 1.495 . S
C1313 H1319 0.959 . S
C1313 H1320 0.961 . S
C1313 H1321 0.960 1_554 S
C1314 C1312 1.381 1_556 S
C1314 C1315 1.394 . S
C1314 H1322 0.930 . S
C1315 C1314 1.394 . S
C1315 C1316 1.383 1_556 S
C1315 H1323 0.929 . S
C1316 C1315 1.383 1_554 S
C1316 C1317 1.377 . S
C1317 H1301 0.930 . S
C1317 C1316 1.377 . S
C1317 C1318 1.379 . S
C1318 H1302 0.931 . S
C1318 C1312 1.383 . S
C1318 C1317 1.379 . S
H1319 C1313 0.959 . S
H1320 C1313 0.961 . S
H1321 C1313 0.960 1_556 S
H1322 C1314 0.930 . S
H1323 C1315 0.929 . S
H1324 C1332 0.929 . S
H1325 C1334 0.930 . S
H1326 C1336 0.930 . S
H1327 C1339 0.929 . S
H1328 C1342 0.930 . S
H1329 C1344 0.960 . S
H1330 C1344 0.960 . S
H1331 C1344 0.960 . S
C1332 H1324 0.929 . S
C1332 C1333 1.377 . S
C1332 C1334 1.384 . S
C1333 C1332 1.377 . S
C1333 C1339 1.390 . S
C1334 H1325 0.930 . S
C1334 C1332 1.384 . S
C1334 C1335 1.372 . S
C1335 C1334 1.372 . S
C1335 C1336 1.400 . S
C1335 C1340 1.490 . S
C1336 H1326 0.930 . S
C1336 C1335 1.400 . S
C1336 C1339 1.386 . S
H1337 C1353 0.930 . S
H1338 C1354 0.931 . S
C1339 H1327 0.929 . S
C1339 C1333 1.390 . S
C1339 C1336 1.386 . S
C1340 C1335 1.490 . S
C1340 C1342 1.395 . S
C1340 C1343 1.403 . S
H1341 C1347 0.930 . S
C1342 H1328 0.930 . S
C1342 C1340 1.395 . S
C1342 C1345 1.403 . S
C1343 C1340 1.403 . S
C1343 C1344 1.524 . S
C1343 C1347 1.400 . S
C1344 H1329 0.960 . S
C1344 H1330 0.960 . S
C1344 H1331 0.960 . S
C1344 C1343 1.524 . S
C1345 C1342 1.403 . S
C1345 C1346 1.392 . S
C1345 C1349 1.495 . S
C1346 C1345 1.392 . S
C1346 C1347 1.385 . S
C1346 C1348 1.478 . S
C1347 H1341 0.930 . S
C1347 C1343 1.400 . S
C1347 C1346 1.385 . S
C1348 C1346 1.478 . S
C1348 C1350 1.381 . S
C1348 C1354 1.383 . S
C1349 C1345 1.495 . S
C1349 H1355 0.959 . S
C1349 H1356 0.961 . S
C1349 H1357 0.960 . S
C1350 C1348 1.381 . S
C1350 C1351 1.394 . S
C1350 H1358 0.930 . S
C1351 C1350 1.394 . S
C1351 C1352 1.383 . S
C1351 H1359 0.929 . S
C1352 C1351 1.383 . S
C1352 C1353 1.377 . S
C1353 H1337 0.930 . S
C1353 C1352 1.377 . S
C1353 C1354 1.379 . S
C1354 H1338 0.931 . S
C1354 C1348 1.383 . S
C1354 C1353 1.379 . S
H1355 C1349 0.959 . S
H1356 C1349 0.961 . S
H1357 C1349 0.960 . S
H1358 C1350 0.930 . S
H1359 C1351 0.929 . S
H1360 C1368 0.929 . S
H1361 C1370 0.930 . S
H1362 C1372 0.930 . S
H1363 C1375 0.929 1_565 S
H1364 C1378 0.930 . S
H1365 C1380 0.960 . S
H1366 C1380 0.960 . S
H1367 C1380 0.960 . S
C1368 H1360 0.929 . S
C1368 C1369 1.377 . S
C1368 C1370 1.384 . S
C1369 C1368 1.377 . S
C1369 C1375 1.390 . S
C1370 H1361 0.930 . S
C1370 C1368 1.384 . S
C1370 C1371 1.372 . S
C1371 C1370 1.372 . S
C1371 C1372 1.400 . S
C1371 C1376 1.490 . S
C1372 H1362 0.930 . S
C1372 C1371 1.400 . S
C1372 C1375 1.386 . S
H1373 C1389 0.930 . S
H1374 C1390 0.931 . S
C1375 H1363 0.929 1_545 S
C1375 C1369 1.390 . S
C1375 C1372 1.386 . S
C1376 C1371 1.490 . S
C1376 C1378 1.395 . S
C1376 C1379 1.403 . S
H1377 C1383 0.930 . S
C1378 H1364 0.930 . S
C1378 C1376 1.395 . S
C1378 C1381 1.403 . S
C1379 C1376 1.403 . S
C1379 C1380 1.524 . S
C1379 C1383 1.400 . S
C1380 H1365 0.960 . S
C1380 H1366 0.960 . S
C1380 H1367 0.960 . S
C1380 C1379 1.524 . S
C1381 C1378 1.403 . S
C1381 C1382 1.392 . S
C1381 C1385 1.495 . S
C1382 C1381 1.392 . S
C1382 C1383 1.385 . S
C1382 C1384 1.478 . S
C1383 H1377 0.930 . S
C1383 C1379 1.400 . S
C1383 C1382 1.385 . S
C1384 C1382 1.478 . S
C1384 C1386 1.381 . S
C1384 C1390 1.383 . S
C1385 C1381 1.495 . S
C1385 H1391 0.959 . S
C1385 H1392 0.961 . S
C1385 H1393 0.960 . S
C1386 C1384 1.381 . S
C1386 C1387 1.394 . S
C1386 H1394 0.930 . S
C1387 C1386 1.394 . S
C1387 C1388 1.383 . S
C1387 H1395 0.929 . S
C1388 C1387 1.383 . S
C1388 C1389 1.377 . S
C1389 H1373 0.930 . S
C1389 C1388 1.377 . S
C1389 C1390 1.379 . S
C1390 H1374 0.931 . S
C1390 C1384 1.383 . S
C1390 C1389 1.379 . S
H1391 C1385 0.959 . S
H1392 C1385 0.961 . S
H1393 C1385 0.960 . S
H1394 C1386 0.930 . S
H1395 C1387 0.929 . S
H1396 C1404 0.929 . S
H1397 C1406 0.930 . S
H1398 C1408 0.930 . S
H1399 C1411 0.929 . S
H1400 C1414 0.930 . S
H1401 C1416 0.960 . S
H1402 C1416 0.960 . S
H1403 C1416 0.960 . S
C1404 H1396 0.929 . S
C1404 C1405 1.377 . S
C1404 C1406 1.384 . S
C1405 C1404 1.377 . S
C1405 C1411 1.390 . S
C1406 H1397 0.930 . S
C1406 C1404 1.384 . S
C1406 C1407 1.372 . S
C1407 C1406 1.372 . S
C1407 C1408 1.400 . S
C1407 C1412 1.490 . S
C1408 H1398 0.930 . S
C1408 C1407 1.400 . S
C1408 C1411 1.386 . S
H1409 C1425 0.930 . S
H1410 C1426 0.931 . S
C1411 H1399 0.929 . S
C1411 C1405 1.390 . S
C1411 C1408 1.386 . S
C1412 C1407 1.490 . S
C1412 C1414 1.395 . S
C1412 C1415 1.403 . S
H1413 C1419 0.930 . S
C1414 H1400 0.930 . S
C1414 C1412 1.395 . S
C1414 C1417 1.403 . S
C1415 C1412 1.403 . S
C1415 C1416 1.524 . S
C1415 C1419 1.400 . S
C1416 H1401 0.960 . S
C1416 H1402 0.960 . S
C1416 H1403 0.960 . S
C1416 C1415 1.524 . S
C1417 C1414 1.403 . S
C1417 C1418 1.392 . S
C1417 C1421 1.495 . S
C1418 C1417 1.392 . S
C1418 C1419 1.385 . S
C1418 C1420 1.478 . S
C1419 H1413 0.930 . S
C1419 C1415 1.400 . S
C1419 C1418 1.385 . S
C1420 C1418 1.478 . S
C1420 C1422 1.381 . S
C1420 C1426 1.383 . S
C1421 C1417 1.495 . S
C1421 H1427 0.959 . S
C1421 H1428 0.961 . S
C1421 H1429 0.960 . S
C1422 C1420 1.381 . S
C1422 C1423 1.394 . S
C1422 H1430 0.930 . S
C1423 C1422 1.394 . S
C1423 C1424 1.383 . S
C1423 H1431 0.929 . S
C1424 C1423 1.383 . S
C1424 C1425 1.377 . S
C1425 H1409 0.930 . S
C1425 C1424 1.377 . S
C1425 C1426 1.379 . S
C1426 H1410 0.931 . S
C1426 C1420 1.383 . S
C1426 C1425 1.379 . S
H1427 C1421 0.959 . S
H1428 C1421 0.961 . S
H1429 C1421 0.960 . S
H1430 C1422 0.930 . S
H1431 C1423 0.929 . S
H1432 C1440 0.939 . S
H1433 C1442 0.930 . S
H1434 C1444 0.930 . S
H1435 C1447 0.929 . S
H1436 C1450 0.930 . S
H1437 C1452 0.960 . S
H1438 C1452 0.960 . S
H1439 C1452 0.960 . S
C1440 H1432 0.939 . S
C1440 C1441 1.377 1_565 S
C1440 C1442 1.375 1_565 S
C1441 C1440 1.377 1_545 S
C1441 C1447 1.390 . S
C1442 H1433 0.930 . S
C1442 C1440 1.375 1_545 S
C1442 C1443 1.372 . S
C1443 C1442 1.372 . S
C1443 C1444 1.400 . S
C1443 C1448 1.490 . S
C1444 H1434 0.930 . S
C1444 C1443 1.400 . S
C1444 C1447 1.386 . S
H1445 C1461 0.930 . S
H1446 C1462 0.931 . S
C1447 H1435 0.929 . S
C1447 C1441 1.390 . S
C1447 C1444 1.386 . S
C1448 C1443 1.490 . S
C1448 C1450 1.395 . S
C1448 C1451 1.403 . S
H1449 C1455 0.930 . S
C1450 H1436 0.930 . S
C1450 C1448 1.395 . S
C1450 C1453 1.403 . S
C1451 C1448 1.403 . S
C1451 C1452 1.524 . S
C1451 C1455 1.400 . S
C1452 H1437 0.960 . S
C1452 H1438 0.960 . S
C1452 H1439 0.960 . S
C1452 C1451 1.524 . S
C1453 C1450 1.403 . S
C1453 C1454 1.392 . S
C1453 C1457 1.495 . S
C1454 C1453 1.392 . S
C1454 C1455 1.385 . S
C1454 C1456 1.478 . S
C1455 H1449 0.930 . S
C1455 C1451 1.400 . S
C1455 C1454 1.385 . S
C1456 C1454 1.478 . S
C1456 C1458 1.381 . S
C1456 C1462 1.383 . S
C1457 C1453 1.495 . S
C1457 H1463 0.959 . S
C1457 H1464 0.961 . S
C1457 H1465 0.960 . S
C1458 C1456 1.381 . S
C1458 C1459 1.394 . S
C1458 H1466 0.930 . S
C1459 C1458 1.394 . S
C1459 C1460 1.383 . S
C1459 H1467 0.929 . S
C1460 C1459 1.383 . S
C1460 C1461 1.377 . S
C1461 H1445 0.930 . S
C1461 C1460 1.377 . S
C1461 C1462 1.379 . S
C1462 H1446 0.931 . S
C1462 C1456 1.383 . S
C1462 C1461 1.379 . S
H1463 C1457 0.959 . S
H1464 C1457 0.961 . S
H1465 C1457 0.960 . S
H1466 C1458 0.930 . S
H1467 C1459 0.929 . S
H1468 C1476 0.929 . S
H1469 C1478 0.930 . S
H1470 C1480 0.930 . S
H1471 C1483 0.929 . S
H1472 C1486 0.930 . S
H1473 C1488 0.960 . S
H1474 C1488 0.960 . S
H1475 C1488 0.960 . S
C1476 H1468 0.929 . S
C1476 C1477 1.377 . S
C1476 C1478 1.384 . S
C1477 C1476 1.377 . S
C1477 C1483 1.390 . S
C1478 H1469 0.930 . S
C1478 C1476 1.384 . S
C1478 C1479 1.372 . S
C1479 C1478 1.372 . S
C1479 C1480 1.400 . S
C1479 C1484 1.490 . S
C1480 H1470 0.930 . S
C1480 C1479 1.400 . S
C1480 C1483 1.386 . S
H1481 C1497 0.930 . S
H1482 C1498 0.931 . S
C1483 H1471 0.929 . S
C1483 C1477 1.390 . S
C1483 C1480 1.386 . S
C1484 C1479 1.490 . S
C1484 C1486 1.395 . S
C1484 C1487 1.403 . S
H1485 C1491 0.930 . S
C1486 H1472 0.930 . S
C1486 C1484 1.395 . S
C1486 C1489 1.403 . S
C1487 C1484 1.403 . S
C1487 C1488 1.524 . S
C1487 C1491 1.400 . S
C1488 H1473 0.960 . S
C1488 H1474 0.960 . S
C1488 H1475 0.960 . S
C1488 C1487 1.524 . S
C1489 C1486 1.403 . S
C1489 C1490 1.392 . S
C1489 C1493 1.495 . S
C1490 C1489 1.392 . S
C1490 C1491 1.385 . S
C1490 C1492 1.478 . S
C1491 H1485 0.930 . S
C1491 C1487 1.400 . S
C1491 C1490 1.385 . S
C1492 C1490 1.478 . S
C1492 C1494 1.381 . S
C1492 C1498 1.383 . S
C1493 C1489 1.495 . S
C1493 H1499 0.959 . S
C1493 H1500 0.961 . S
C1493 H1501 0.960 . S
C1494 C1492 1.381 . S
C1494 C1495 1.394 . S
C1494 H1502 0.930 . S
C1495 C1494 1.394 . S
C1495 C1496 1.383 . S
C1495 H1503 0.929 . S
C1496 C1495 1.383 . S
C1496 C1497 1.377 . S
C1497 H1481 0.930 . S
C1497 C1496 1.377 . S
C1497 C1498 1.379 . S
C1498 H1482 0.931 . S
C1498 C1492 1.383 . S
C1498 C1497 1.379 . S
H1499 C1493 0.959 . S
H1500 C1493 0.961 . S
H1501 C1493 0.960 . S
H1502 C1494 0.930 . S
H1503 C1495 0.929 . S
H1504 C1512 0.929 . S
H1505 C1514 0.930 . S
H1506 C1516 0.930 . S
H1507 C1519 0.929 . S
H1508 C1522 0.930 . S
H1509 C1524 0.960 . S
H1510 C1524 0.960 . S
H1511 C1524 0.960 . S
C1512 H1504 0.929 . S
C1512 C1513 1.377 . S
C1512 C1514 1.384 . S
C1513 C1512 1.377 . S
C1513 C1519 1.390 . S
C1514 H1505 0.930 . S
C1514 C1512 1.384 . S
C1514 C1515 1.372 . S
C1515 C1514 1.372 . S
C1515 C1516 1.400 . S
C1515 C1520 1.490 . S
C1516 H1506 0.930 . S
C1516 C1515 1.400 . S
C1516 C1519 1.386 . S
H1517 C1533 0.930 . S
H1518 C1534 0.931 . S
C1519 H1507 0.929 . S
C1519 C1513 1.390 . S
C1519 C1516 1.386 . S
C1520 C1515 1.490 . S
C1520 C1522 1.395 . S
C1520 C1523 1.403 . S
H1521 C1527 0.930 . S
C1522 H1508 0.930 . S
C1522 C1520 1.395 . S
C1522 C1525 1.403 . S
C1523 C1520 1.403 . S
C1523 C1524 1.524 . S
C1523 C1527 1.400 . S
C1524 H1509 0.960 . S
C1524 H1510 0.960 . S
C1524 H1511 0.960 . S
C1524 C1523 1.524 . S
C1525 C1522 1.403 . S
C1525 C1526 1.392 . S
C1525 C1529 1.495 . S
C1526 C1525 1.392 . S
C1526 C1527 1.385 . S
C1526 C1528 1.478 . S
C1527 H1521 0.930 . S
C1527 C1523 1.400 . S
C1527 C1526 1.385 . S
C1528 C1526 1.478 . S
C1528 C1530 1.381 . S
C1528 C1534 1.383 . S
C1529 C1525 1.495 . S
C1529 H1535 0.959 . S
C1529 H1536 0.961 . S
C1529 H1537 0.960 . S
C1530 C1528 1.381 . S
C1530 C1531 1.394 . S
C1530 H1538 0.930 . S
C1531 C1530 1.394 . S
C1531 C1532 1.383 . S
C1531 H1539 0.929 . S
C1532 C1531 1.383 . S
C1532 C1533 1.377 . S
C1533 H1517 0.930 . S
C1533 C1532 1.377 . S
C1533 C1534 1.379 . S
C1534 H1518 0.931 . S
C1534 C1528 1.383 . S
C1534 C1533 1.379 . S
H1535 C1529 0.959 . S
H1536 C1529 0.961 . S
H1537 C1529 0.960 . S
H1538 C1530 0.930 . S
H1539 C1531 0.929 . S
H1540 C1548 0.929 . S
H1541 C1550 0.930 . S
H1542 C1552 0.930 . S
H1543 C1555 0.929 . S
H1544 C1558 0.930 . S
H1545 C1560 0.960 . S
H1546 C1560 0.960 . S
H1547 C1560 0.960 . S
C1548 H1540 0.929 . S
C1548 C1549 1.377 . S
C1548 C1550 1.384 . S
C1549 C1548 1.377 . S
C1549 C1555 1.390 . S
C1550 H1541 0.930 . S
C1550 C1548 1.384 . S
C1550 C1551 1.372 . S
C1551 C1550 1.372 . S
C1551 C1552 1.400 . S
C1551 C1556 1.490 . S
C1552 H1542 0.930 . S
C1552 C1551 1.400 . S
C1552 C1555 1.386 . S
H1553 C1569 0.930 . S
H1554 C1570 0.931 . S
C1555 H1543 0.929 . S
C1555 C1549 1.390 . S
C1555 C1552 1.386 . S
C1556 C1551 1.490 . S
C1556 C1558 1.395 . S
C1556 C1559 1.403 . S
H1557 C1563 0.930 . S
C1558 H1544 0.930 . S
C1558 C1556 1.395 . S
C1558 C1561 1.403 . S
C1559 C1556 1.403 . S
C1559 C1560 1.524 . S
C1559 C1563 1.400 . S
C1560 H1545 0.960 . S
C1560 H1546 0.960 . S
C1560 H1547 0.960 . S
C1560 C1559 1.524 . S
C1561 C1558 1.403 . S
C1561 C1562 1.392 . S
C1561 C1565 1.495 . S
C1562 C1561 1.392 . S
C1562 C1563 1.385 . S
C1562 C1564 1.478 . S
C1563 H1557 0.930 . S
C1563 C1559 1.400 . S
C1563 C1562 1.385 . S
C1564 C1562 1.478 . S
C1564 C1566 1.381 . S
C1564 C1570 1.383 . S
C1565 C1561 1.495 . S
C1565 H1571 0.959 . S
C1565 H1572 0.961 1_545 S
C1565 H1573 0.960 . S
C1566 C1564 1.381 . S
C1566 C1567 1.394 . S
C1566 H1574 0.930 . S
C1567 C1566 1.394 . S
C1567 C1568 1.383 . S
C1567 H1575 0.929 . S
C1568 C1567 1.383 . S
C1568 C1569 1.377 . S
C1569 H1553 0.930 . S
C1569 C1568 1.377 . S
C1569 C1570 1.379 . S
C1570 H1554 0.931 . S
C1570 C1564 1.383 . S
C1570 C1569 1.379 . S
H1571 C1565 0.959 . S
H1572 C1565 0.961 1_565 S
H1573 C1565 0.960 . S
H1574 C1566 0.930 . S
H1575 C1567 0.929 . S
H1576 C1584 0.929 . S
H1577 C1586 0.930 . S
H1578 C1588 0.930 . S
H1579 C1591 0.929 . S
H1580 C1594 0.930 . S
H1581 C1596 0.960 . S
H1582 C1596 0.960 . S
H1583 C1596 0.960 . S
C1584 H1576 0.929 . S
C1584 C1585 1.377 . S
C1584 C1586 1.384 . S
C1585 C1584 1.377 . S
C1585 C1591 1.390 . S
C1586 H1577 0.930 . S
C1586 C1584 1.384 . S
C1586 C1587 1.372 . S
C1587 C1586 1.372 . S
C1587 C1588 1.400 . S
C1587 C1592 1.490 . S
C1588 H1578 0.930 . S
C1588 C1587 1.400 . S
C1588 C1591 1.386 . S
H1589 C1605 0.930 . S
H1590 C1606 0.931 . S
C1591 H1579 0.929 . S
C1591 C1585 1.390 . S
C1591 C1588 1.386 . S
C1592 C1587 1.490 . S
C1592 C1594 1.395 . S
C1592 C1595 1.403 . S
H1593 C1599 0.930 . S
C1594 H1580 0.930 . S
C1594 C1592 1.395 . S
C1594 C1597 1.403 . S
C1595 C1592 1.403 . S
C1595 C1596 1.524 . S
C1595 C1599 1.400 . S
C1596 H1581 0.960 . S
C1596 H1582 0.960 . S
C1596 H1583 0.960 . S
C1596 C1595 1.524 . S
C1597 C1594 1.403 . S
C1597 C1598 1.392 . S
C1597 C1601 1.495 . S
C1598 C1597 1.392 . S
C1598 C1599 1.385 . S
C1598 C1600 1.478 . S
C1599 H1593 0.930 . S
C1599 C1595 1.400 . S
C1599 C1598 1.385 . S
C1600 C1598 1.478 . S
C1600 C1602 1.381 . S
C1600 C1606 1.383 . S
C1601 C1597 1.495 . S
C1601 H1607 0.959 . S
C1601 H1608 0.961 . S
C1601 H1609 0.960 . S
C1602 C1600 1.381 . S
C1602 C1603 1.394 . S
C1602 H1610 0.930 . S
C1603 C1602 1.394 . S
C1603 C1604 1.383 . S
C1603 H1611 0.929 . S
C1604 C1603 1.383 . S
C1604 C1605 1.377 . S
C1605 H1589 0.930 . S
C1605 C1604 1.377 . S
C1605 C1606 1.379 . S
C1606 H1590 0.931 . S
C1606 C1600 1.383 . S
C1606 C1605 1.379 . S
H1607 C1601 0.959 . S
H1608 C1601 0.961 . S
H1609 C1601 0.960 . S
H1610 C1602 0.930 . S
H1611 C1603 0.929 . S
H1612 C1620 0.929 . S
H1613 C1622 0.930 . S
H1614 C1624 0.930 . S
H1615 C1627 0.929 . S
H1616 C1630 0.930 . S
H1617 C1632 0.960 . S
H1618 C1632 0.960 . S
H1619 C1632 0.960 . S
C1620 H1612 0.929 . S
C1620 C1621 1.377 . S
C1620 C1622 1.384 . S
C1621 C1620 1.377 . S
C1621 C1627 1.390 . S
C1622 H1613 0.930 . S
C1622 C1620 1.384 . S
C1622 C1623 1.372 . S
C1623 C1622 1.372 . S
C1623 C1624 1.400 . S
C1623 C1628 1.490 . S
C1624 H1614 0.930 . S
C1624 C1623 1.400 . S
C1624 C1627 1.386 . S
H1625 C1641 0.930 . S
H1626 C1642 0.931 . S
C1627 H1615 0.929 . S
C1627 C1621 1.390 . S
C1627 C1624 1.386 . S
C1628 C1623 1.490 . S
C1628 C1630 1.395 . S
C1628 C1631 1.403 . S
H1629 C1635 0.930 . S
C1630 H1616 0.930 . S
C1630 C1628 1.395 . S
C1630 C1633 1.403 . S
C1631 C1628 1.403 . S
C1631 C1632 1.524 . S
C1631 C1635 1.400 . S
C1632 H1617 0.960 . S
C1632 H1618 0.960 . S
C1632 H1619 0.960 . S
C1632 C1631 1.524 . S
C1633 C1630 1.403 . S
C1633 C1634 1.392 . S
C1633 C1637 1.495 . S
C1634 C1633 1.392 . S
C1634 C1635 1.385 . S
C1634 C1636 1.478 . S
C1635 H1629 0.930 . S
C1635 C1631 1.400 . S
C1635 C1634 1.385 . S
C1636 C1634 1.478 . S
C1636 C1638 1.381 . S
C1636 C1642 1.383 . S
C1637 C1633 1.495 . S
C1637 H1643 0.959 . S
C1637 H1644 0.961 . S
C1637 H1645 0.960 . S
C1638 C1636 1.381 . S
C1638 C1639 1.394 . S
C1638 H1646 0.930 . S
C1639 C1638 1.394 . S
C1639 C1640 1.383 . S
C1639 H1647 0.929 . S
C1640 C1639 1.383 . S
C1640 C1641 1.377 . S
C1641 H1625 0.930 . S
C1641 C1640 1.377 . S
C1641 C1642 1.379 . S
C1642 H1626 0.931 . S
C1642 C1636 1.383 . S
C1642 C1641 1.379 . S
H1643 C1637 0.959 . S
H1644 C1637 0.961 . S
H1645 C1637 0.960 . S
H1646 C1638 0.930 . S
H1647 C1639 0.929 . S
H1648 C1656 0.929 . S
H1649 C1658 0.930 . S
H1650 C1660 0.930 . S
H1651 C1663 0.929 . S
H1652 C1666 0.930 . S
H1653 C1668 0.960 . S
H1654 C1668 0.960 . S
H1655 C1668 0.960 . S
C1656 H1648 0.929 . S
C1656 C1657 1.377 . S
C1656 C1658 1.384 . S
C1657 C1656 1.377 . S
C1657 C1663 1.390 . S
C1658 H1649 0.930 . S
C1658 C1656 1.384 . S
C1658 C1659 1.372 . S
C1659 C1658 1.372 . S
C1659 C1660 1.400 . S
C1659 C1664 1.490 . S
C1660 H1650 0.930 . S
C1660 C1659 1.400 . S
C1660 C1663 1.386 . S
H1661 C1677 0.930 . S
H1662 C1678 0.931 . S
C1663 H1651 0.929 . S
C1663 C1657 1.390 . S
C1663 C1660 1.386 . S
C1664 C1659 1.490 . S
C1664 C1666 1.395 . S
C1664 C1667 1.403 . S
H1665 C1671 0.930 . S
C1666 H1652 0.930 . S
C1666 C1664 1.395 . S
C1666 C1669 1.403 . S
C1667 C1664 1.403 . S
C1667 C1668 1.524 . S
C1667 C1671 1.400 . S
C1668 H1653 0.960 . S
C1668 H1654 0.960 . S
C1668 H1655 0.960 . S
C1668 C1667 1.524 . S
C1669 C1666 1.403 . S
C1669 C1670 1.392 . S
C1669 C1673 1.495 . S
C1670 C1669 1.392 . S
C1670 C1671 1.385 . S
C1670 C1672 1.478 . S
C1671 H1665 0.930 . S
C1671 C1667 1.400 . S
C1671 C1670 1.385 . S
C1672 C1670 1.478 . S
C1672 C1674 1.381 . S
C1672 C1678 1.383 . S
C1673 C1669 1.495 . S
C1673 H1679 0.959 . S
C1673 H1680 0.961 . S
C1673 H1681 0.960 . S
C1674 C1672 1.381 . S
C1674 C1675 1.394 . S
C1674 H1682 0.930 . S
C1675 C1674 1.394 . S
C1675 C1676 1.383 . S
C1675 H1683 0.929 . S
C1676 C1675 1.383 . S
C1676 C1677 1.377 . S
C1677 H1661 0.930 . S
C1677 C1676 1.377 . S
C1677 C1678 1.379 . S
C1678 H1662 0.931 . S
C1678 C1672 1.383 . S
C1678 C1677 1.379 . S
H1679 C1673 0.959 . S
H1680 C1673 0.961 . S
H1681 C1673 0.960 . S
H1682 C1674 0.930 . S
H1683 C1675 0.929 . S
H1684 C1692 0.929 1_455 S
H1685 C1694 0.930 . S
H1686 C1696 0.930 . S
H1687 C1699 0.929 . S
H1688 C1702 0.930 . S
H1689 C1704 0.960 . S
H1690 C1704 0.960 . S
H1691 C1704 0.960 1_545 S
C1692 H1684 0.929 1_655 S
C1692 C1693 1.377 1_565 S
C1692 C1694 1.384 . S
C1693 C1692 1.377 1_545 S
C1693 C1699 1.390 . S
C1694 H1685 0.930 . S
C1694 C1692 1.384 . S
C1694 C1695 1.372 1_565 S
C1695 C1694 1.372 1_545 S
C1695 C1696 1.400 . S
C1695 C1700 1.490 . S
C1696 H1686 0.930 . S
C1696 C1695 1.400 . S
C1696 C1699 1.386 . S
H1697 C1713 0.930 . S
H1698 C1714 0.931 . S
C1699 H1687 0.929 . S
C1699 C1693 1.390 . S
C1699 C1696 1.386 . S
C1700 C1695 1.490 . S
C1700 C1702 1.395 . S
C1700 C1703 1.403 . S
H1701 C1707 0.942 . S
C1702 H1688 0.930 . S
C1702 C1700 1.395 . S
C1702 C1705 1.403 . S
C1703 C1700 1.403 . S
C1703 C1704 1.524 1_545 S
C1703 C1707 1.400 . S
C1704 H1689 0.960 . S
C1704 H1690 0.960 . S
C1704 H1691 0.960 1_565 S
C1704 C1703 1.524 1_565 S
C1705 C1702 1.403 . S
C1705 C1706 1.392 . S
C1705 C1709 1.495 . S
C1706 C1705 1.392 . S
C1706 C1707 1.385 . S
C1706 C1708 1.478 . S
C1707 H1701 0.942 . S
C1707 C1703 1.400 . S
C1707 C1706 1.385 . S
C1708 C1706 1.478 . S
C1708 C1710 1.381 1_545 S
C1708 C1714 1.383 . S
C1709 C1705 1.495 . S
C1709 H1715 0.959 . S
C1709 H1716 0.961 . S
C1709 H1717 0.960 . S
C1710 C1708 1.381 1_565 S
C1710 C1711 1.394 . S
C1710 H1718 0.930 . S
C1711 C1710 1.394 . S
C1711 C1712 1.383 1_565 S
C1711 H1719 0.929 . S
C1712 C1711 1.383 1_545 S
C1712 C1713 1.377 . S
C1713 H1697 0.930 . S
C1713 C1712 1.377 . S
C1713 C1714 1.379 . S
C1714 H1698 0.931 . S
C1714 C1708 1.383 . S
C1714 C1713 1.379 . S
H1715 C1709 0.959 . S
H1716 C1709 0.961 . S
H1717 C1709 0.960 . S
H1718 C1710 0.930 . S
H1719 C1711 0.929 . S
H1720 C1728 0.929 . S
H1721 C1730 0.930 . S
H1722 C1732 0.930 . S
H1723 C1735 0.929 . S
H1724 C1738 0.930 . S
H1725 C1740 0.960 . S
H1726 C1740 0.960 . S
H1727 C1740 0.960 . S
C1728 H1720 0.929 . S
C1728 C1729 1.377 . S
C1728 C1730 1.384 . S
C1729 C1728 1.377 . S
C1729 C1735 1.390 . S
C1730 H1721 0.930 . S
C1730 C1728 1.384 . S
C1730 C1731 1.372 . S
C1731 C1730 1.372 . S
C1731 C1732 1.400 . S
C1731 C1736 1.490 . S
C1732 H1722 0.930 . S
C1732 C1731 1.400 . S
C1732 C1735 1.386 . S
H1733 C1749 0.930 . S
H1734 C1750 0.931 . S
C1735 H1723 0.929 . S
C1735 C1729 1.390 . S
C1735 C1732 1.386 . S
C1736 C1731 1.490 . S
C1736 C1738 1.395 . S
C1736 C1739 1.403 . S
H1737 C1743 0.930 . S
C1738 H1724 0.930 . S
C1738 C1736 1.395 . S
C1738 C1741 1.403 . S
C1739 C1736 1.403 . S
C1739 C1740 1.524 . S
C1739 C1743 1.400 . S
C1740 H1725 0.960 . S
C1740 H1726 0.960 . S
C1740 H1727 0.960 . S
C1740 C1739 1.524 . S
C1741 C1738 1.403 . S
C1741 C1742 1.392 . S
C1741 C1745 1.495 . S
C1742 C1741 1.392 . S
C1742 C1743 1.385 . S
C1742 C1744 1.478 . S
C1743 H1737 0.930 . S
C1743 C1739 1.400 . S
C1743 C1742 1.385 . S
C1744 C1742 1.478 . S
C1744 C1746 1.381 . S
C1744 C1750 1.383 . S
C1745 C1741 1.495 . S
C1745 H1751 0.959 . S
C1745 H1752 0.961 . S
C1745 H1753 0.960 . S
C1746 C1744 1.381 . S
C1746 C1747 1.394 . S
C1746 H1754 0.930 . S
C1747 C1746 1.394 . S
C1747 C1748 1.383 . S
C1747 H1755 0.929 . S
C1748 C1747 1.383 . S
C1748 C1749 1.377 . S
C1749 H1733 0.930 . S
C1749 C1748 1.377 . S
C1749 C1750 1.379 . S
C1750 H1734 0.931 . S
C1750 C1744 1.383 . S
C1750 C1749 1.379 . S
H1751 C1745 0.959 . S
H1752 C1745 0.961 . S
H1753 C1745 0.960 . S
H1754 C1746 0.930 . S
H1755 C1747 0.929 . S
H1756 C1764 0.929 . S
H1757 C1766 0.910 1_655 S
H1758 C1768 0.930 . S
H1759 C1771 0.929 . S
H1760 C1774 0.930 . S
H1761 C1776 0.960 . S
H1762 C1776 0.960 . S
H1763 C1776 0.960 . S
C1764 H1756 0.929 . S
C1764 C1765 1.375 1_655 S
C1764 C1766 1.384 1_655 S
C1765 C1764 1.375 1_455 S
C1765 C1771 1.397 . S
C1766 H1757 0.910 1_455 S
C1766 C1764 1.384 1_455 S
C1766 C1767 1.372 . S
C1767 C1766 1.372 . S
C1767 C1768 1.400 . S
C1767 C1772 1.490 . S
C1768 H1758 0.930 . S
C1768 C1767 1.400 . S
C1768 C1771 1.386 . S
H1769 C1785 0.930 . S
H1770 C1786 0.931 . S
C1771 H1759 0.929 . S
C1771 C1765 1.397 . S
C1771 C1768 1.386 . S
C1772 C1767 1.490 . S
C1772 C1774 1.395 . S
C1772 C1775 1.403 . S
H1773 C1779 0.930 . S
C1774 H1760 0.930 . S
C1774 C1772 1.395 . S
C1774 C1777 1.403 . S
C1775 C1772 1.403 . S
C1775 C1776 1.524 . S
C1775 C1779 1.400 . S
C1776 H1761 0.960 . S
C1776 H1762 0.960 . S
C1776 H1763 0.960 . S
C1776 C1775 1.524 . S
C1777 C1774 1.403 . S
C1777 C1778 1.392 . S
C1777 C1781 1.495 . S
C1778 C1777 1.392 . S
C1778 C1779 1.385 . S
C1778 C1780 1.478 . S
C1779 H1773 0.930 . S
C1779 C1775 1.400 . S
C1779 C1778 1.385 . S
C1780 C1778 1.478 . S
C1780 C1782 1.381 . S
C1780 C1786 1.383 . S
C1781 C1777 1.495 . S
C1781 H1787 0.959 . S
C1781 H1788 0.961 . S
C1781 H1789 0.960 . S
C1782 C1780 1.381 . S
C1782 C1783 1.394 . S
C1782 H1790 0.930 . S
C1783 C1782 1.394 . S
C1783 C1784 1.383 . S
C1783 H1791 0.929 . S
C1784 C1783 1.383 . S
C1784 C1785 1.377 . S
C1785 H1769 0.930 . S
C1785 C1784 1.377 . S
C1785 C1786 1.379 . S
C1786 H1770 0.931 . S
C1786 C1780 1.383 . S
C1786 C1785 1.379 . S
H1787 C1781 0.959 . S
H1788 C1781 0.961 . S
H1789 C1781 0.960 . S
H1790 C1782 0.930 . S
H1791 C1783 0.929 . S
H1792 C1800 0.929 . S
H1793 C1802 0.930 . S
H1794 C1804 0.930 . S
H1795 C1807 0.929 . S
H1796 C1810 0.930 . S
H1797 C1812 0.960 . S
H1798 C1812 0.960 . S
H1799 C1812 0.960 . S
C1800 H1792 0.929 . S
C1800 C1801 1.377 . S
C1800 C1802 1.384 . S
C1801 C1800 1.377 . S
C1801 C1807 1.390 . S
C1802 H1793 0.930 . S
C1802 C1800 1.384 . S
C1802 C1803 1.372 . S
C1803 C1802 1.372 . S
C1803 C1804 1.400 . S
C1803 C1808 1.490 . S
C1804 H1794 0.930 . S
C1804 C1803 1.400 . S
C1804 C1807 1.386 . S
H1805 C1821 0.930 . S
H1806 C1822 0.931 . S
C1807 H1795 0.929 . S
C1807 C1801 1.390 . S
C1807 C1804 1.386 . S
C1808 C1803 1.490 . S
C1808 C1810 1.395 . S
C1808 C1811 1.403 . S
H1809 C1815 0.930 . S
C1810 H1796 0.930 . S
C1810 C1808 1.395 . S
C1810 C1813 1.403 . S
C1811 C1808 1.403 . S
C1811 C1812 1.524 . S
C1811 C1815 1.400 . S
C1812 H1797 0.960 . S
C1812 H1798 0.960 . S
C1812 H1799 0.960 . S
C1812 C1811 1.524 . S
C1813 C1810 1.403 . S
C1813 C1814 1.392 . S
C1813 C1817 1.495 . S
C1814 C1813 1.392 . S
C1814 C1815 1.385 . S
C1814 C1816 1.478 . S
C1815 H1809 0.930 . S
C1815 C1811 1.400 . S
C1815 C1814 1.385 . S
C1816 C1814 1.478 . S
C1816 C1818 1.381 . S
C1816 C1822 1.383 . S
C1817 C1813 1.495 . S
C1817 H1823 0.959 . S
C1817 H1824 0.961 . S
C1817 H1825 0.960 . S
C1818 C1816 1.381 . S
C1818 C1819 1.394 . S
C1818 H1826 0.930 . S
C1819 C1818 1.394 . S
C1819 C1820 1.383 . S
C1819 H1827 0.929 . S
C1820 C1819 1.383 . S
C1820 C1821 1.377 . S
C1821 H1805 0.930 . S
C1821 C1820 1.377 . S
C1821 C1822 1.379 . S
C1822 H1806 0.931 . S
C1822 C1816 1.383 . S
C1822 C1821 1.379 . S
H1823 C1817 0.959 . S
H1824 C1817 0.961 . S
H1825 C1817 0.960 . S
H1826 C1818 0.930 . S
H1827 C1819 0.929 . S
H1828 C1836 0.965 . S
H1829 C1838 0.930 . S
H1830 C1840 0.930 . S
H1831 C1843 0.929 . S
H1832 C1846 0.930 . S
H1833 C1848 0.960 . S
H1834 C1848 0.960 . S
H1835 C1848 0.960 . S
C1836 H1828 0.965 . S
C1836 C1837 1.332 1_455 S
C1836 C1838 1.395 . S
C1837 C1836 1.332 1_655 S
C1837 C1843 1.390 . S
C1838 H1829 0.930 . S
C1838 C1836 1.395 . S
C1838 C1839 1.372 1_455 S
C1839 C1838 1.372 1_655 S
C1839 C1840 1.400 . S
C1839 C1844 1.509 . S
C1840 H1830 0.930 . S
C1840 C1839 1.400 . S
C1840 C1843 1.386 . S
H1841 C1857 0.930 . S
H1842 C1858 0.931 . S
C1843 H1831 0.929 . S
C1843 C1837 1.390 . S
C1843 C1840 1.386 . S
C1844 C1839 1.509 . S
C1844 C1846 1.415 1_655 S
C1844 C1847 1.365 1_554 S
H1845 C1851 0.930 . S
C1846 H1832 0.930 . S
C1846 C1844 1.415 1_455 S
C1846 C1849 1.403 1_554 S
C1847 C1844 1.365 1_556 S
C1847 C1848 1.524 . S
C1847 C1851 1.400 . S
C1848 H1833 0.960 . S
C1848 H1834 0.960 . S
C1848 H1835 0.960 . S
C1848 C1847 1.524 . S
C1849 C1846 1.403 1_556 S
C1849 C1850 1.380 1_455 S
C1849 C1853 1.495 1_556 S
C1850 C1849 1.380 1_655 S
C1850 C1851 1.403 . S
C1850 C1852 1.473 1_655 S
C1851 H1845 0.930 . S
C1851 C1847 1.400 . S
C1851 C1850 1.403 . S
C1852 C1850 1.473 1_455 S
C1852 C1854 1.381 . S
C1852 C1858 1.383 1_455 S
C1853 C1849 1.495 1_554 S
C1853 H1859 0.959 . S
C1853 H1860 0.961 . S
C1853 H1861 0.960 1_554 S
C1854 C1852 1.381 . S
C1854 C1855 1.394 . S
C1854 H1862 0.930 . S
C1855 C1854 1.394 . S
C1855 C1856 1.383 . S
C1855 H1863 0.929 . S
C1856 C1855 1.383 . S
C1856 C1857 1.377 1_455 S
C1857 H1841 0.930 . S
C1857 C1856 1.377 1_655 S
C1857 C1858 1.379 . S
C1858 H1842 0.931 . S
C1858 C1852 1.383 1_655 S
C1858 C1857 1.379 . S
H1859 C1853 0.959 . S
H1860 C1853 0.961 . S
H1861 C1853 0.960 1_556 S
H1862 C1854 0.930 . S
H1863 C1855 0.929 . S
H1864 C1872 0.929 . S
H1865 C1874 0.930 . S
H1866 C1876 0.930 . S
H1867 C1879 0.929 . S
H1868 C1882 0.930 . S
H1869 C1884 0.960 . S
H1870 C1884 0.960 . S
H1871 C1884 0.960 . S
C1872 H1864 0.929 . S
C1872 C1873 1.377 . S
C1872 C1874 1.384 . S
C1873 C1872 1.377 . S
C1873 C1879 1.390 . S
C1874 H1865 0.930 . S
C1874 C1872 1.384 . S
C1874 C1875 1.372 . S
C1875 C1874 1.372 . S
C1875 C1876 1.400 . S
C1875 C1880 1.490 . S
C1876 H1866 0.930 . S
C1876 C1875 1.400 . S
C1876 C1879 1.386 . S
H1877 C1893 0.930 . S
H1878 C1894 0.931 . S
C1879 H1867 0.929 . S
C1879 C1873 1.390 . S
C1879 C1876 1.386 . S
C1880 C1875 1.490 . S
C1880 C1882 1.395 . S
C1880 C1883 1.403 . S
H1881 C1887 0.930 . S
C1882 H1868 0.930 . S
C1882 C1880 1.395 . S
C1882 C1885 1.403 . S
C1883 C1880 1.403 . S
C1883 C1884 1.524 . S
C1883 C1887 1.400 . S
C1884 H1869 0.960 . S
C1884 H1870 0.960 . S
C1884 H1871 0.960 . S
C1884 C1883 1.524 . S
C1885 C1882 1.403 . S
C1885 C1886 1.392 . S
C1885 C1889 1.495 . S
C1886 C1885 1.392 . S
C1886 C1887 1.385 . S
C1886 C1888 1.478 . S
C1887 H1881 0.930 . S
C1887 C1883 1.400 . S
C1887 C1886 1.385 . S
C1888 C1886 1.478 . S
C1888 C1890 1.381 . S
C1888 C1894 1.383 . S
C1889 C1885 1.495 . S
C1889 H1895 0.959 . S
C1889 H1896 0.961 . S
C1889 H1897 0.960 . S
C1890 C1888 1.381 . S
C1890 C1891 1.394 . S
C1890 H1898 0.930 . S
C1891 C1890 1.394 . S
C1891 C1892 1.383 . S
C1891 H1899 0.929 . S
C1892 C1891 1.383 . S
C1892 C1893 1.377 . S
C1893 H1877 0.930 . S
C1893 C1892 1.377 . S
C1893 C1894 1.379 . S
C1894 H1878 0.931 . S
C1894 C1888 1.383 . S
C1894 C1893 1.379 . S
H1895 C1889 0.959 . S
H1896 C1889 0.961 . S
H1897 C1889 0.960 . S
H1898 C1890 0.930 . S
H1899 C1891 0.929 . S
H1900 C1908 0.929 . S
H1901 C1910 0.930 1_656 S
H1902 C1912 0.930 . S
H1903 C1915 0.929 . S
H1904 C1918 0.930 1_554 S
H1905 C1920 0.960 . S
H1906 C1920 0.960 . S
H1907 C1920 0.960 . S
C1908 H1900 0.929 . S
C1908 C1909 1.377 . S
C1908 C1910 1.384 . S
C1909 C1908 1.377 . S
C1909 C1915 1.390 . S
C1910 H1901 0.930 1_454 S
C1910 C1908 1.384 . S
C1910 C1911 1.372 . S
C1911 C1910 1.372 . S
C1911 C1912 1.400 . S
C1911 C1916 1.490 1_554 S
C1912 H1902 0.930 . S
C1912 C1911 1.400 . S
C1912 C1915 1.386 . S
H1913 C1929 0.930 . S
H1914 C1930 0.931 . S
C1915 H1903 0.929 . S
C1915 C1909 1.390 . S
C1915 C1912 1.386 . S
C1916 C1911 1.490 1_556 S
C1916 C1918 1.395 1_455 S
C1916 C1919 1.403 . S
H1917 C1923 0.930 . S
C1918 H1904 0.930 1_556 S
C1918 C1916 1.395 1_655 S
C1918 C1921 1.403 . S
C1919 C1916 1.403 . S
C1919 C1920 1.524 . S
C1919 C1923 1.400 . S
C1920 H1905 0.960 . S
C1920 H1906 0.960 . S
C1920 H1907 0.960 . S
C1920 C1919 1.524 . S
C1921 C1918 1.403 . S
C1921 C1922 1.392 1_655 S
C1921 C1925 1.495 . S
C1922 C1921 1.392 1_455 S
C1922 C1923 1.385 . S
C1922 C1924 1.478 . S
C1923 H1917 0.930 . S
C1923 C1919 1.400 . S
C1923 C1922 1.385 . S
C1924 C1922 1.478 . S
C1924 C1926 1.381 1_455 S
C1924 C1930 1.383 . S
C1925 C1921 1.495 . S
C1925 H1931 0.959 . S
C1925 H1932 0.961 . S
C1925 H1933 0.960 . S
C1926 C1924 1.381 1_655 S
C1926 C1927 1.394 . S
C1926 H1934 0.930 . S
C1927 C1926 1.394 . S
C1927 C1928 1.383 1_655 S
C1927 H1935 0.929 . S
C1928 C1927 1.383 1_455 S
C1928 C1929 1.377 . S
C1929 H1913 0.930 . S
C1929 C1928 1.377 . S
C1929 C1930 1.379 . S
C1930 H1914 0.931 . S
C1930 C1924 1.383 . S
C1930 C1929 1.379 . S
H1931 C1925 0.959 . S
H1932 C1925 0.961 . S
H1933 C1925 0.960 . S
H1934 C1926 0.930 . S
H1935 C1927 0.929 . S
H1936 C1944 0.929 . S
H1937 C1946 0.930 . S
H1938 C1948 0.930 . S
H1939 C1951 0.929 . S
H1940 C1954 0.930 . S
H1941 C1956 0.960 . S
H1942 C1956 0.960 . S
H1943 C1956 0.960 . S
C1944 H1936 0.929 . S
C1944 C1945 1.377 . S
C1944 C1946 1.384 . S
C1945 C1944 1.377 . S
C1945 C1951 1.390 . S
C1946 H1937 0.930 . S
C1946 C1944 1.384 . S
C1946 C1947 1.372 . S
C1947 C1946 1.372 . S
C1947 C1948 1.400 . S
C1947 C1952 1.490 . S
C1948 H1938 0.930 . S
C1948 C1947 1.400 . S
C1948 C1951 1.386 . S
H1949 C1965 0.930 . S
H1950 C1966 0.931 . S
C1951 H1939 0.929 . S
C1951 C1945 1.390 . S
C1951 C1948 1.386 . S
C1952 C1947 1.490 . S
C1952 C1954 1.395 . S
C1952 C1955 1.403 . S
H1953 C1959 0.930 . S
C1954 H1940 0.930 . S
C1954 C1952 1.395 . S
C1954 C1957 1.403 . S
C1955 C1952 1.403 . S
C1955 C1956 1.524 . S
C1955 C1959 1.400 . S
C1956 H1941 0.960 . S
C1956 H1942 0.960 . S
C1956 H1943 0.960 . S
C1956 C1955 1.524 . S
C1957 C1954 1.403 . S
C1957 C1958 1.392 . S
C1957 C1961 1.495 . S
C1958 C1957 1.392 . S
C1958 C1959 1.385 . S
C1958 C1960 1.478 . S
C1959 H1953 0.930 . S
C1959 C1955 1.400 . S
C1959 C1958 1.385 . S
C1960 C1958 1.478 . S
C1960 C1962 1.381 . S
C1960 C1966 1.383 . S
C1961 C1957 1.495 . S
C1961 H1967 0.959 . S
C1961 H1968 0.961 . S
C1961 H1969 0.960 . S
C1962 C1960 1.381 . S
C1962 C1963 1.394 . S
C1962 H1970 0.930 . S
C1963 C1962 1.394 . S
C1963 C1964 1.383 . S
C1963 H1971 0.929 . S
C1964 C1963 1.383 . S
C1964 C1965 1.377 . S
C1965 H1949 0.930 . S
C1965 C1964 1.377 . S
C1965 C1966 1.379 . S
C1966 H1950 0.931 . S
C1966 C1960 1.383 . S
C1966 C1965 1.379 . S
H1967 C1961 0.959 . S
H1968 C1961 0.961 . S
H1969 C1961 0.960 . S
H1970 C1962 0.930 . S
H1971 C1963 0.929 . S
H1972 C1980 0.929 1_556 S
H1973 C1982 0.930 . S
H1974 C1984 0.930 . S
H1975 C1987 0.929 . S
H1976 C1990 0.930 . S
H1977 C1992 0.960 . S
H1978 C1992 0.960 . S
H1979 C1992 0.960 . S
C1980 H1972 0.929 1_554 S
C1980 C1981 1.378 1_554 S
C1980 C1982 1.384 . S
C1981 C1980 1.378 1_556 S
C1981 C1987 1.391 1_556 S
C1982 H1973 0.930 . S
C1982 C1980 1.384 . S
C1982 C1983 1.372 . S
C1983 C1982 1.372 . S
C1983 C1984 1.400 . S
C1983 C1988 1.490 . S
C1984 H1974 0.930 . S
C1984 C1983 1.400 . S
C1984 C1987 1.386 . S
H1985 C2001 0.930 . S
H1986 C2002 0.931 . S
C1987 H1975 0.929 . S
C1987 C1981 1.391 1_554 S
C1987 C1984 1.386 . S
C1988 C1983 1.490 . S
C1988 C1990 1.395 . S
C1988 C1991 1.403 . S
H1989 C1995 0.930 . S
C1990 H1976 0.930 . S
C1990 C1988 1.395 . S
C1990 C1993 1.403 . S
C1991 C1988 1.403 . S
C1991 C1992 1.524 . S
C1991 C1995 1.400 . S
C1992 H1977 0.960 . S
C1992 H1978 0.960 . S
C1992 H1979 0.960 . S
C1992 C1991 1.524 . S
C1993 C1990 1.403 . S
C1993 C1994 1.392 . S
C1993 C1997 1.495 . S
C1994 C1993 1.392 . S
C1994 C1995 1.385 . S
C1994 C1996 1.478 . S
C1995 H1989 0.930 . S
C1995 C1991 1.400 . S
C1995 C1994 1.385 . S
C1996 C1994 1.478 . S
C1996 C1998 1.381 . S
C1996 C2002 1.383 . S
C1997 C1993 1.495 . S
C1997 H2003 0.959 . S
C1997 H2004 0.961 . S
C1997 H2005 0.960 . S
C1998 C1996 1.381 . S
C1998 C1999 1.394 . S
C1998 H2006 0.930 . S
C1999 C1998 1.394 . S
C1999 C2000 1.383 . S
C1999 H2007 0.929 . S
C2000 C1999 1.383 . S
C2000 C2001 1.377 . S
C2001 H1985 0.930 . S
C2001 C2000 1.377 . S
C2001 C2002 1.379 . S
C2002 H1986 0.931 . S
C2002 C1996 1.383 . S
C2002 C2001 1.379 . S
H2003 C1997 0.959 . S
H2004 C1997 0.961 . S
H2005 C1997 0.960 . S
H2006 C1998 0.930 . S
H2007 C1999 0.929 . S
H2008 C2016 0.929 . S
H2009 C2018 0.930 . S
H2010 C2020 0.930 . S
H2011 C2023 0.929 . S
H2012 C2026 0.930 . S
H2013 C2028 0.960 . S
H2014 C2028 0.960 . S
H2015 C2028 0.960 . S
C2016 H2008 0.929 . S
C2016 C2017 1.377 . S
C2016 C2018 1.384 . S
C2017 C2016 1.377 . S
C2017 C2023 1.390 . S
C2018 H2009 0.930 . S
C2018 C2016 1.384 . S
C2018 C2019 1.372 . S
C2019 C2018 1.372 . S
C2019 C2020 1.400 . S
C2019 C2024 1.490 . S
C2020 H2010 0.930 . S
C2020 C2019 1.400 . S
C2020 C2023 1.386 . S
H2021 C2037 0.930 . S
H2022 C2038 0.931 . S
C2023 H2011 0.929 . S
C2023 C2017 1.390 . S
C2023 C2020 1.386 . S
C2024 C2019 1.490 . S
C2024 C2026 1.395 . S
C2024 C2027 1.403 . S
H2025 C2031 0.930 . S
C2026 H2012 0.930 . S
C2026 C2024 1.395 . S
C2026 C2029 1.403 . S
C2027 C2024 1.403 . S
C2027 C2028 1.524 . S
C2027 C2031 1.400 . S
C2028 H2013 0.960 . S
C2028 H2014 0.960 . S
C2028 H2015 0.960 . S
C2028 C2027 1.524 . S
C2029 C2026 1.403 . S
C2029 C2030 1.392 . S
C2029 C2033 1.495 . S
C2030 C2029 1.392 . S
C2030 C2031 1.385 . S
C2030 C2032 1.478 . S
C2031 H2025 0.930 . S
C2031 C2027 1.400 . S
C2031 C2030 1.385 . S
C2032 C2030 1.478 . S
C2032 C2034 1.381 . S
C2032 C2038 1.383 . S
C2033 C2029 1.495 . S
C2033 H2039 0.959 . S
C2033 H2040 0.961 . S
C2033 H2041 0.960 . S
C2034 C2032 1.381 . S
C2034 C2035 1.394 . S
C2034 H2042 0.930 . S
C2035 C2034 1.394 . S
C2035 C2036 1.383 . S
C2035 H2043 0.929 . S
C2036 C2035 1.383 . S
C2036 C2037 1.377 . S
C2037 H2021 0.930 . S
C2037 C2036 1.377 . S
C2037 C2038 1.379 . S
C2038 H2022 0.931 . S
C2038 C2032 1.383 . S
C2038 C2037 1.379 . S
H2039 C2033 0.959 . S
H2040 C2033 0.961 . S
H2041 C2033 0.960 . S
H2042 C2034 0.930 . S
H2043 C2035 0.929 . S
H2044 C2052 0.929 . S
H2045 C2054 0.930 . S
H2046 C2056 0.930 . S
H2047 C2059 0.929 . S
H2048 C2062 0.930 . S
H2049 C2064 0.960 . S
H2050 C2064 0.960 . S
H2051 C2064 0.960 . S
C2052 H2044 0.929 . S
C2052 C2053 1.408 . S
C2052 C2054 1.384 . S
C2053 C2052 1.408 . S
C2053 C2059 1.379 1_554 S
C2054 H2045 0.930 . S
C2054 C2052 1.384 . S
C2054 C2055 1.372 . S
C2055 C2054 1.372 . S
C2055 C2056 1.400 . S
C2055 C2060 1.490 . S
C2056 H2046 0.930 . S
C2056 C2055 1.400 . S
C2056 C2059 1.386 1_554 S
H2057 C2073 0.930 . S
H2058 C2074 0.931 . S
C2059 H2047 0.929 . S
C2059 C2053 1.379 1_556 S
C2059 C2056 1.386 1_556 S
C2060 C2055 1.490 . S
C2060 C2062 1.395 . S
C2060 C2063 1.403 . S
H2061 C2067 0.930 . S
C2062 H2048 0.930 . S
C2062 C2060 1.395 . S
C2062 C2065 1.403 . S
C2063 C2060 1.403 . S
C2063 C2064 1.524 . S
C2063 C2067 1.400 . S
C2064 H2049 0.960 . S
C2064 H2050 0.960 . S
C2064 H2051 0.960 . S
C2064 C2063 1.524 . S
C2065 C2062 1.403 . S
C2065 C2066 1.392 . S
C2065 C2069 1.495 . S
C2066 C2065 1.392 . S
C2066 C2067 1.385 . S
C2066 C2068 1.478 . S
C2067 H2061 0.930 . S
C2067 C2063 1.400 . S
C2067 C2066 1.385 . S
C2068 C2066 1.478 . S
C2068 C2070 1.381 . S
C2068 C2074 1.383 . S
C2069 C2065 1.495 . S
C2069 H2075 0.959 . S
C2069 H2076 0.961 . S
C2069 H2077 0.960 . S
C2070 C2068 1.381 . S
C2070 C2071 1.394 . S
C2070 H2078 0.930 . S
C2071 C2070 1.394 . S
C2071 C2072 1.383 . S
C2071 H2079 0.929 . S
C2072 C2071 1.383 . S
C2072 C2073 1.377 . S
C2073 H2057 0.930 . S
C2073 C2072 1.377 . S
C2073 C2074 1.379 . S
C2074 H2058 0.931 . S
C2074 C2068 1.383 . S
C2074 C2073 1.379 . S
H2075 C2069 0.959 . S
H2076 C2069 0.961 . S
H2077 C2069 0.960 . S
H2078 C2070 0.930 . S
H2079 C2071 0.929 . S
H2080 C2088 0.929 . S
H2081 C2090 0.930 . S
H2082 C2092 0.930 . S
H2083 C2095 0.929 . S
H2084 C2098 0.930 . S
H2085 C2100 0.960 . S
H2086 C2100 0.960 . S
H2087 C2100 0.960 . S
C2088 H2080 0.929 . S
C2088 C2089 1.377 . S
C2088 C2090 1.384 . S
C2089 C2088 1.377 . S
C2089 C2095 1.390 . S
C2090 H2081 0.930 . S
C2090 C2088 1.384 . S
C2090 C2091 1.372 . S
C2091 C2090 1.372 . S
C2091 C2092 1.400 . S
C2091 C2096 1.490 . S
C2092 H2082 0.930 . S
C2092 C2091 1.400 . S
C2092 C2095 1.386 . S
H2093 C2109 0.930 . S
H2094 C2110 0.931 . S
C2095 H2083 0.929 . S
C2095 C2089 1.390 . S
C2095 C2092 1.386 . S
C2096 C2091 1.490 . S
C2096 C2098 1.395 . S
C2096 C2099 1.403 . S
H2097 C2103 0.930 . S
C2098 H2084 0.930 . S
C2098 C2096 1.395 . S
C2098 C2101 1.403 . S
C2099 C2096 1.403 . S
C2099 C2100 1.524 . S
C2099 C2103 1.400 . S
C2100 H2085 0.960 . S
C2100 H2086 0.960 . S
C2100 H2087 0.960 . S
C2100 C2099 1.524 . S
C2101 C2098 1.403 . S
C2101 C2102 1.392 . S
C2101 C2105 1.495 . S
C2102 C2101 1.392 . S
C2102 C2103 1.385 . S
C2102 C2104 1.478 . S
C2103 H2097 0.930 . S
C2103 C2099 1.400 . S
C2103 C2102 1.385 . S
C2104 C2102 1.478 . S
C2104 C2106 1.381 . S
C2104 C2110 1.383 . S
C2105 C2101 1.495 . S
C2105 H2111 0.959 . S
C2105 H2112 0.961 . S
C2105 H2113 0.960 . S
C2106 C2104 1.381 . S
C2106 C2107 1.394 . S
C2106 H2114 0.930 . S
C2107 C2106 1.394 . S
C2107 C2108 1.383 . S
C2107 H2115 0.929 . S
C2108 C2107 1.383 . S
C2108 C2109 1.377 . S
C2109 H2093 0.930 . S
C2109 C2108 1.377 . S
C2109 C2110 1.379 . S
C2110 H2094 0.931 . S
C2110 C2104 1.383 . S
C2110 C2109 1.379 . S
H2111 C2105 0.959 . S
H2112 C2105 0.961 . S
H2113 C2105 0.960 . S
H2114 C2106 0.930 . S
H2115 C2107 0.929 . S
H2116 C2124 0.929 . S
H2117 C2126 0.930 . S
H2118 C2128 0.930 . S
H2119 C2131 0.929 . S
H2120 C2134 0.930 . S
H2121 C2136 0.960 . S
H2122 C2136 0.960 . S
H2123 C2136 0.960 . S
C2124 H2116 0.929 . S
C2124 C2125 1.377 . S
C2124 C2126 1.384 . S
C2125 C2124 1.377 . S
C2125 C2131 1.390 . S
C2126 H2117 0.930 . S
C2126 C2124 1.384 . S
C2126 C2127 1.372 . S
C2127 C2126 1.372 . S
C2127 C2128 1.400 . S
C2127 C2132 1.490 . S
C2128 H2118 0.930 . S
C2128 C2127 1.400 . S
C2128 C2131 1.386 . S
H2129 C2145 0.930 . S
H2130 C2146 0.931 . S
C2131 H2119 0.929 . S
C2131 C2125 1.390 . S
C2131 C2128 1.386 . S
C2132 C2127 1.490 . S
C2132 C2134 1.395 . S
C2132 C2135 1.403 . S
H2133 C2139 0.930 . S
C2134 H2120 0.930 . S
C2134 C2132 1.395 . S
C2134 C2137 1.403 . S
C2135 C2132 1.403 . S
C2135 C2136 1.524 . S
C2135 C2139 1.400 . S
C2136 H2121 0.960 . S
C2136 H2122 0.960 . S
C2136 H2123 0.960 . S
C2136 C2135 1.524 . S
C2137 C2134 1.403 . S
C2137 C2138 1.392 . S
C2137 C2141 1.495 . S
C2138 C2137 1.392 . S
C2138 C2139 1.385 . S
C2138 C2140 1.478 . S
C2139 H2133 0.930 . S
C2139 C2135 1.400 . S
C2139 C2138 1.385 . S
C2140 C2138 1.478 . S
C2140 C2142 1.381 . S
C2140 C2146 1.383 . S
C2141 C2137 1.495 . S
C2141 H2147 0.959 . S
C2141 H2148 0.961 . S
C2141 H2149 0.960 . S
C2142 C2140 1.381 . S
C2142 C2143 1.394 . S
C2142 H2150 0.930 . S
C2143 C2142 1.394 . S
C2143 C2144 1.383 . S
C2143 H2151 0.929 . S
C2144 C2143 1.383 . S
C2144 C2145 1.377 . S
C2145 H2129 0.930 . S
C2145 C2144 1.377 . S
C2145 C2146 1.379 . S
C2146 H2130 0.931 . S
C2146 C2140 1.383 . S
C2146 C2145 1.379 . S
H2147 C2141 0.959 . S
H2148 C2141 0.961 . S
H2149 C2141 0.960 . S
H2150 C2142 0.930 . S
H2151 C2143 0.929 . S
H2152 C2160 0.929 . S
H2153 C2162 0.930 . S
H2154 C2164 0.930 . S
H2155 C2167 0.929 . S
H2156 C2170 0.930 . S
H2157 C2172 0.960 . S
H2158 C2172 0.960 . S
H2159 C2172 0.960 . S
C2160 H2152 0.929 . S
C2160 C2161 1.377 . S
C2160 C2162 1.384 . S
C2161 C2160 1.377 . S
C2161 C2167 1.390 . S
C2162 H2153 0.930 . S
C2162 C2160 1.384 . S
C2162 C2163 1.372 . S
C2163 C2162 1.372 . S
C2163 C2164 1.400 . S
C2163 C2168 1.490 . S
C2164 H2154 0.930 . S
C2164 C2163 1.400 . S
C2164 C2167 1.386 . S
H2165 C2181 0.930 . S
H2166 C2182 0.931 . S
C2167 H2155 0.929 . S
C2167 C2161 1.390 . S
C2167 C2164 1.386 . S
C2168 C2163 1.490 . S
C2168 C2170 1.395 . S
C2168 C2171 1.403 . S
H2169 C2175 0.930 . S
C2170 H2156 0.930 . S
C2170 C2168 1.395 . S
C2170 C2173 1.403 . S
C2171 C2168 1.403 . S
C2171 C2172 1.524 . S
C2171 C2175 1.400 . S
C2172 H2157 0.960 . S
C2172 H2158 0.960 . S
C2172 H2159 0.960 . S
C2172 C2171 1.524 . S
C2173 C2170 1.403 . S
C2173 C2174 1.392 . S
C2173 C2177 1.495 . S
C2174 C2173 1.392 . S
C2174 C2175 1.385 . S
C2174 C2176 1.478 . S
C2175 H2169 0.930 . S
C2175 C2171 1.400 . S
C2175 C2174 1.385 . S
C2176 C2174 1.478 . S
C2176 C2178 1.381 . S
C2176 C2182 1.383 . S
C2177 C2173 1.495 . S
C2177 H2183 0.959 . S
C2177 H2184 0.961 . S
C2177 H2185 0.960 . S
C2178 C2176 1.381 . S
C2178 C2179 1.394 . S
C2178 H2186 0.930 . S
C2179 C2178 1.394 . S
C2179 C2180 1.383 . S
C2179 H2187 0.929 . S
C2180 C2179 1.383 . S
C2180 C2181 1.377 . S
C2181 H2165 0.930 . S
C2181 C2180 1.377 . S
C2181 C2182 1.379 . S
C2182 H2166 0.931 . S
C2182 C2176 1.383 . S
C2182 C2181 1.379 . S
H2183 C2177 0.959 . S
H2184 C2177 0.961 . S
H2185 C2177 0.960 . S
H2186 C2178 0.930 . S
H2187 C2179 0.929 . S
H2188 C2196 0.929 . S
H2189 C2198 0.930 . S
H2190 C2200 0.930 . S
H2191 C2203 0.929 . S
H2192 C2206 0.930 . S
H2193 C2208 0.960 . S
H2194 C2208 0.960 . S
H2195 C2208 0.960 . S
C2196 H2188 0.929 . S
C2196 C2197 1.377 . S
C2196 C2198 1.384 . S
C2197 C2196 1.377 . S
C2197 C2203 1.390 . S
C2198 H2189 0.930 . S
C2198 C2196 1.384 . S
C2198 C2199 1.372 . S
C2199 C2198 1.372 . S
C2199 C2200 1.400 . S
C2199 C2204 1.490 . S
C2200 H2190 0.930 . S
C2200 C2199 1.400 . S
C2200 C2203 1.386 . S
H2201 C2217 0.930 . S
H2202 C2218 0.931 . S
C2203 H2191 0.929 . S
C2203 C2197 1.390 . S
C2203 C2200 1.386 . S
C2204 C2199 1.490 . S
C2204 C2206 1.395 . S
C2204 C2207 1.403 . S
H2205 C2211 0.930 . S
C2206 H2192 0.930 . S
C2206 C2204 1.395 . S
C2206 C2209 1.403 . S
C2207 C2204 1.403 . S
C2207 C2208 1.524 . S
C2207 C2211 1.400 . S
C2208 H2193 0.960 . S
C2208 H2194 0.960 . S
C2208 H2195 0.960 . S
C2208 C2207 1.524 . S
C2209 C2206 1.403 . S
C2209 C2210 1.392 . S
C2209 C2213 1.495 . S
C2210 C2209 1.392 . S
C2210 C2211 1.385 . S
C2210 C2212 1.478 . S
C2211 H2205 0.930 . S
C2211 C2207 1.400 . S
C2211 C2210 1.385 . S
C2212 C2210 1.478 . S
C2212 C2214 1.381 . S
C2212 C2218 1.383 . S
C2213 C2209 1.495 . S
C2213 H2219 0.959 . S
C2213 H2220 0.961 . S
C2213 H2221 0.960 . S
C2214 C2212 1.381 . S
C2214 C2215 1.394 . S
C2214 H2222 0.930 . S
C2215 C2214 1.394 . S
C2215 C2216 1.383 . S
C2215 H2223 0.918 1_565 S
C2216 C2215 1.383 . S
C2216 C2217 1.377 . S
C2217 H2201 0.930 . S
C2217 C2216 1.377 . S
C2217 C2218 1.379 . S
C2218 H2202 0.931 . S
C2218 C2212 1.383 . S
C2218 C2217 1.379 . S
H2219 C2213 0.959 . S
H2220 C2213 0.961 . S
H2221 C2213 0.960 . S
H2222 C2214 0.930 . S
H2223 C2215 0.918 1_545 S
H2224 C2232 0.929 . S
H2225 C2234 0.932 . S
H2226 C2236 0.930 . S
H2227 C2239 0.929 . S
H2228 C2242 0.930 . S
H2229 C2244 0.960 . S
H2230 C2244 0.960 . S
H2231 C2244 0.960 . S
C2232 H2224 0.929 . S
C2232 C2233 1.377 . S
C2232 C2234 1.384 . S
C2233 C2232 1.377 . S
C2233 C2239 1.390 . S
C2234 H2225 0.932 . S
C2234 C2232 1.384 . S
C2234 C2235 1.372 . S
C2235 C2234 1.372 . S
C2235 C2236 1.400 . S
C2235 C2240 1.490 . S
C2236 H2226 0.930 . S
C2236 C2235 1.400 . S
C2236 C2239 1.386 . S
H2237 C2253 0.930 . S
H2238 C2254 0.931 . S
C2239 H2227 0.929 . S
C2239 C2233 1.390 . S
C2239 C2236 1.386 . S
C2240 C2235 1.490 . S
C2240 C2242 1.395 . S
C2240 C2243 1.413 . S
H2241 C2247 0.931 . S
C2242 H2228 0.930 . S
C2242 C2240 1.395 . S
C2242 C2245 1.403 . S
C2243 C2240 1.413 . S
C2243 C2244 1.513 1_556 S
C2243 C2247 1.401 1_556 S
C2244 H2229 0.960 . S
C2244 H2230 0.960 . S
C2244 H2231 0.960 . S
C2244 C2243 1.513 1_554 S
C2245 C2242 1.403 . S
C2245 C2246 1.392 . S
C2245 C2249 1.495 . S
C2246 C2245 1.392 . S
C2246 C2247 1.384 1_556 S
C2246 C2248 1.478 . S
C2247 H2241 0.931 . S
C2247 C2243 1.401 1_554 S
C2247 C2246 1.384 1_554 S
C2248 C2246 1.478 . S
C2248 C2250 1.381 1_556 S
C2248 C2254 1.383 . S
C2249 C2245 1.495 . S
C2249 H2255 0.959 . S
C2249 H2256 0.961 . S
C2249 H2257 0.960 . S
C2250 C2248 1.381 1_554 S
C2250 C2251 1.394 . S
C2250 H2258 0.930 . S
C2251 C2250 1.394 . S
C2251 C2252 1.383 1_554 S
C2251 H2259 0.929 . S
C2252 C2251 1.383 1_556 S
C2252 C2253 1.377 . S
C2253 H2237 0.930 . S
C2253 C2252 1.377 . S
C2253 C2254 1.379 . S
C2254 H2238 0.931 . S
C2254 C2248 1.383 . S
C2254 C2253 1.379 . S
H2255 C2249 0.959 . S
H2256 C2249 0.961 . S
H2257 C2249 0.960 . S
H2258 C2250 0.930 . S
H2259 C2251 0.929 . S
H2260 C2268 0.929 . S
H2261 C2270 0.930 . S
H2262 C2272 0.930 . S
H2263 C2275 0.929 . S
H2264 C2278 0.930 . S
H2265 C2280 0.960 . S
H2266 C2280 0.960 . S
H2267 C2280 0.960 . S
C2268 H2260 0.929 . S
C2268 C2269 1.377 . S
C2268 C2270 1.384 . S
C2269 C2268 1.377 . S
C2269 C2275 1.390 . S
C2270 H2261 0.930 . S
C2270 C2268 1.384 . S
C2270 C2271 1.372 . S
C2271 C2270 1.372 . S
C2271 C2272 1.400 . S
C2271 C2276 1.490 . S
C2272 H2262 0.930 . S
C2272 C2271 1.400 . S
C2272 C2275 1.386 . S
H2273 C2289 0.930 . S
H2274 C2290 0.931 . S
C2275 H2263 0.929 . S
C2275 C2269 1.390 . S
C2275 C2272 1.386 . S
C2276 C2271 1.490 . S
C2276 C2278 1.395 . S
C2276 C2279 1.403 . S
H2277 C2283 0.930 . S
C2278 H2264 0.930 . S
C2278 C2276 1.395 . S
C2278 C2281 1.403 . S
C2279 C2276 1.403 . S
C2279 C2280 1.524 . S
C2279 C2283 1.400 . S
C2280 H2265 0.960 . S
C2280 H2266 0.960 . S
C2280 H2267 0.960 . S
C2280 C2279 1.524 . S
C2281 C2278 1.403 . S
C2281 C2282 1.392 . S
C2281 C2285 1.495 . S
C2282 C2281 1.392 . S
C2282 C2283 1.385 . S
C2282 C2284 1.478 . S
C2283 H2277 0.930 . S
C2283 C2279 1.400 . S
C2283 C2282 1.385 . S
C2284 C2282 1.478 . S
C2284 C2286 1.381 . S
C2284 C2290 1.383 . S
C2285 C2281 1.495 . S
C2285 H2291 0.959 . S
C2285 H2292 0.961 . S
C2285 H2293 0.960 . S
C2286 C2284 1.381 . S
C2286 C2287 1.394 . S
C2286 H2294 0.930 . S
C2287 C2286 1.394 . S
C2287 C2288 1.383 . S
C2287 H2295 0.929 . S
C2288 C2287 1.383 . S
C2288 C2289 1.377 . S
C2289 H2273 0.930 . S
C2289 C2288 1.377 . S
C2289 C2290 1.379 . S
C2290 H2274 0.931 . S
C2290 C2284 1.383 . S
C2290 C2289 1.379 . S
H2291 C2285 0.959 . S
H2292 C2285 0.961 . S
H2293 C2285 0.960 . S
H2294 C2286 0.930 . S
H2295 C2287 0.929 . S
H2296 C2304 0.929 . S
H2297 C2306 0.930 . S
H2298 C2308 0.930 . S
H2299 C2311 0.929 . S
H2300 C2314 0.930 . S
H2301 C2316 0.984 . S
H2302 C2316 0.967 . S
H2303 C2316 0.951 1_554 S
C2304 H2296 0.929 . S
C2304 C2305 1.377 . S
C2304 C2306 1.384 . S
C2305 C2304 1.377 . S
C2305 C2311 1.390 . S
C2306 H2297 0.930 . S
C2306 C2304 1.384 . S
C2306 C2307 1.372 . S
C2307 C2306 1.372 . S
C2307 C2308 1.400 . S
C2307 C2312 1.490 . S
C2308 H2298 0.930 . S
C2308 C2307 1.400 . S
C2308 C2311 1.386 . S
H2309 C2325 0.930 . S
H2310 C2326 0.931 . S
C2311 H2299 0.929 . S
C2311 C2305 1.390 . S
C2311 C2308 1.386 . S
C2312 C2307 1.490 . S
C2312 C2314 1.395 . S
C2312 C2315 1.403 . S
H2313 C2319 0.930 . S
C2314 H2300 0.930 . S
C2314 C2312 1.395 . S
C2314 C2317 1.403 . S
C2315 C2312 1.403 . S
C2315 C2316 1.503 1_554 S
C2315 C2319 1.400 . S
C2316 H2301 0.984 . S
C2316 H2302 0.967 . S
C2316 H2303 0.951 1_556 S
C2316 C2315 1.503 1_556 S
C2317 C2314 1.403 . S
C2317 C2318 1.392 . S
C2317 C2321 1.495 . S
C2318 C2317 1.392 . S
C2318 C2319 1.385 . S
C2318 C2320 1.478 . S
C2319 H2313 0.930 . S
C2319 C2315 1.400 . S
C2319 C2318 1.385 . S
C2320 C2318 1.478 . S
C2320 C2322 1.381 . S
C2320 C2326 1.383 . S
C2321 C2317 1.495 . S
C2321 H2327 0.959 . S
C2321 H2328 0.961 . S
C2321 H2329 0.960 . S
C2322 C2320 1.381 . S
C2322 C2323 1.394 . S
C2322 H2330 0.930 . S
C2323 C2322 1.394 . S
C2323 C2324 1.383 . S
C2323 H2331 0.929 . S
C2324 C2323 1.383 . S
C2324 C2325 1.377 . S
C2325 H2309 0.930 . S
C2325 C2324 1.377 . S
C2325 C2326 1.379 . S
C2326 H2310 0.931 . S
C2326 C2320 1.383 . S
C2326 C2325 1.379 . S
H2327 C2321 0.959 . S
H2328 C2321 0.961 . S
H2329 C2321 0.960 . S
H2330 C2322 0.930 . S
H2331 C2323 0.929 . S
H2332 C2340 0.929 . S
H2333 C2342 0.930 . S
H2334 C2344 0.930 1_545 S
H2335 C2347 0.929 . S
H2336 C2350 0.930 . S
H2337 C2352 0.960 . S
H2338 C2352 0.960 . S
H2339 C2352 0.960 1_545 S
C2340 H2332 0.929 . S
C2340 C2341 1.377 . S
C2340 C2342 1.384 . S
C2341 C2340 1.377 . S
C2341 C2347 1.390 1_565 S
C2342 H2333 0.930 . S
C2342 C2340 1.384 . S
C2342 C2343 1.372 . S
C2343 C2342 1.372 . S
C2343 C2344 1.400 . S
C2343 C2348 1.490 . S
C2344 H2334 0.930 1_565 S
C2344 C2343 1.400 . S
C2344 C2347 1.386 1_565 S
H2345 C2361 0.930 . S
H2346 C2362 0.931 . S
C2347 H2335 0.929 . S
C2347 C2341 1.390 1_545 S
C2347 C2344 1.386 1_545 S
C2348 C2343 1.490 . S
C2348 C2350 1.395 . S
C2348 C2351 1.403 . S
H2349 C2355 0.930 . S
C2350 H2336 0.930 . S
C2350 C2348 1.395 . S
C2350 C2353 1.403 . S
C2351 C2348 1.403 . S
C2351 C2352 1.524 . S
C2351 C2355 1.400 . S
C2352 H2337 0.960 . S
C2352 H2338 0.960 . S
C2352 H2339 0.960 1_565 S
C2352 C2351 1.524 . S
C2353 C2350 1.403 . S
C2353 C2354 1.392 . S
C2353 C2357 1.495 . S
C2354 C2353 1.392 . S
C2354 C2355 1.385 . S
C2354 C2356 1.478 . S
C2355 H2349 0.930 . S
C2355 C2351 1.400 . S
C2355 C2354 1.385 . S
C2356 C2354 1.478 . S
C2356 C2358 1.381 . S
C2356 C2362 1.383 . S
C2357 C2353 1.495 . S
C2357 H2363 0.951 1_554 S
C2357 H2364 0.961 1_554 S
C2357 H2365 0.960 . S
C2358 C2356 1.381 . S
C2358 C2359 1.394 . S
C2358 H2366 0.930 . S
C2359 C2358 1.394 . S
C2359 C2360 1.383 . S
C2359 H2367 0.929 . S
C2360 C2359 1.383 . S
C2360 C2361 1.377 . S
C2361 H2345 0.930 . S
C2361 C2360 1.377 . S
C2361 C2362 1.379 . S
C2362 H2346 0.931 . S
C2362 C2356 1.383 . S
C2362 C2361 1.379 . S
H2363 C2357 0.951 1_556 S
H2364 C2357 0.961 1_556 S
H2365 C2357 0.960 . S
H2366 C2358 0.930 . S
H2367 C2359 0.929 . S
C668 C210 1.059 . S
C649 N66 1.049 . S
C704 C258 1.615 . S
C685 N79 1.679 . S
C721 N92 1.828 . S
C740 C294 1.733 . S
C776 C330 1.390 . S
C757 N54 1.448 . S
C812 C356 1.365 . S
C793 N131 1.349 . S
C848 C392 1.212 . S
C829 N158 1.217 . S
C865 N145 1.547 . S
C884 C427 1.557 . S
C920 C464 1.885 . S
C901 N118 1.872 . S
C937 N148 1.938 . S
C956 C498 1.934 . S
C992 C546 1.732 . S
C973 N122 1.743 . S
C1009 N132 1.051 . S
C1028 C499 1.052 . S
C1064 C536 1.544 . S
C1045 N161 1.514 . S
C1081 N96 1.927 . S
C1100 C582 1.890 . S
C1117 N53 1.814 . S
C1136 C571 1.842 . S
C1153 N67 0.973 . S
C1172 C572 0.981 . S
C1189 N83 1.518 . S
C1208 C570 1.536 . S
C1225 N44 1.258 . S
C1244 C318 1.249 . S
C1261 N187 1.412 . S
C1280 C319 1.413 . S
C1316 C222 1.249 . S
C1297 N197 1.269 . S
C1352 C247 1.243 . S
C1333 N106 1.241 . S
C1369 N57 1.996 1_545 S
C1388 C354 1.994 . S
C1424 C462 1.337 . S
C1405 N144 1.325 . S
C1460 C355 1.424 . S
C1441 N119 1.433 1_545 S
C1496 C428 1.943 . S
C1477 N157 1.927 . S
C1532 C426 1.071 . S
C1513 N183 1.054 . S
C1549 N196 1.685 . S
C1568 C474 1.661 . S
C1585 N105 1.821 . S
C1604 C366 1.760 . S
C1640 C402 1.368 . S
C1621 N171 1.448 . S
C1657 N40 1.345 . S
C1676 C284 1.367 . S
C1712 C320 1.222 . S
C1693 N2 1.220 1_655 S
C1748 C211 1.548 . S
C1729 N15 1.548 . S
C1784 C248 1.893 . S
C1765 N27 1.861 1_455 S
C1801 N18 1.938 . S
C1820 C534 1.939 . S
C1837 N31 1.745 . S
C1856 C510 1.719 . S
C1873 N41 1.052 . S
C1892 C535 1.053 . S
C1909 N5 1.517 . S
C1928 C500 1.542 . S
C1964 C618 1.864 . S
C1945 N109 1.927 . S
C2000 C607 1.843 . S
C1981 N170 1.814 . S
C2036 C608 0.990 . S
C2017 N184 0.982 . S
C2053 N200 1.498 1_554 S
C2072 C606 1.528 . S
C2089 N135 1.250 . S
C2108 C390 1.272 . S
C2144 C391 1.423 . S
C2125 N70 1.405 . S
C2180 C438 1.251 . S
C2161 N80 1.269 . S
C2216 C463 1.234 . S
C2197 N93 1.241 . S
C2233 N174 2.000 . S
C2252 C282 2.008 1_556 S
C2288 C246 1.347 . S
C2269 N14 1.326 . S
C2305 N28 1.434 . S
C2324 C283 1.409 . S
C2360 C212 1.943 . S
C2341 N1 1.926 1_565 S
