# Generated by pormake.
# Topology apo, (3,6)-cn, num edge types: 1
# Building blocks:
#     Node 0, Type 0, BuildingBlock: KAKCAD_clean_linker_0, # of connection points: 3
#     Node 1, Type 0, BuildingBlock: KAKCAD_clean_linker_0, # of connection points: 3
#     Node 2, Type 0, BuildingBlock: KAKCAD_clean_linker_0, # of connection points: 3
#     Node 3, Type 0, BuildingBlock: KAKCAD_clean_linker_0, # of connection points: 3
#     Node 4, Type 0, BuildingBlock: KAKCAD_clean_linker_0, # of connection points: 3
#     Node 5, Type 0, BuildingBlock: KAKCAD_clean_linker_0, # of connection points: 3
#     Node 6, Type 0, BuildingBlock: KAKCAD_clean_linker_0, # of connection points: 3
#     Node 7, Type 0, BuildingBlock: KAKCAD_clean_linker_0, # of connection points: 3
#     Node 8, Type 1, BuildingBlock: KUMJIN_clean_sbu_1, # of connection points: 6
#     Node 9, Type 1, BuildingBlock: KUMJIN_clean_sbu_1, # of connection points: 6
#     Node 10, Type 1, BuildingBlock: KUMJIN_clean_sbu_1, # of connection points: 6
#     Node 11, Type 1, BuildingBlock: KUMJIN_clean_sbu_1, # of connection points: 6
#     Edge 12, Type (0, 1), BuildingBlock: CIFDUS_clean_linker_0, # of connection points: 2
#     Edge 13, Type (0, 1), BuildingBlock: CIFDUS_clean_linker_0, # of connection points: 2
#     Edge 14, Type (0, 1), BuildingBlock: CIFDUS_clean_linker_0, # of connection points: 2
#     Edge 15, Type (0, 1), BuildingBlock: CIFDUS_clean_linker_0, # of connection points: 2
#     Edge 16, Type (0, 1), BuildingBlock: CIFDUS_clean_linker_0, # of connection points: 2
#     Edge 17, Type (0, 1), BuildingBlock: CIFDUS_clean_linker_0, # of connection points: 2
#     Edge 18, Type (0, 1), BuildingBlock: CIFDUS_clean_linker_0, # of connection points: 2
#     Edge 19, Type (0, 1), BuildingBlock: CIFDUS_clean_linker_0, # of connection points: 2
#     Edge 20, Type (0, 1), BuildingBlock: CIFDUS_clean_linker_0, # of connection points: 2
#     Edge 21, Type (0, 1), BuildingBlock: CIFDUS_clean_linker_0, # of connection points: 2
#     Edge 22, Type (0, 1), BuildingBlock: CIFDUS_clean_linker_0, # of connection points: 2
#     Edge 23, Type (0, 1), BuildingBlock: CIFDUS_clean_linker_0, # of connection points: 2
#     Edge 24, Type (0, 1), BuildingBlock: CIFDUS_clean_linker_0, # of connection points: 2
#     Edge 25, Type (0, 1), BuildingBlock: CIFDUS_clean_linker_0, # of connection points: 2
#     Edge 26, Type (0, 1), BuildingBlock: CIFDUS_clean_linker_0, # of connection points: 2
#     Edge 27, Type (0, 1), BuildingBlock: CIFDUS_clean_linker_0, # of connection points: 2
#     Edge 28, Type (0, 1), BuildingBlock: CIFDUS_clean_linker_0, # of connection points: 2
#     Edge 29, Type (0, 1), BuildingBlock: CIFDUS_clean_linker_0, # of connection points: 2
#     Edge 30, Type (0, 1), BuildingBlock: CIFDUS_clean_linker_0, # of connection points: 2
#     Edge 31, Type (0, 1), BuildingBlock: CIFDUS_clean_linker_0, # of connection points: 2
#     Edge 32, Type (0, 1), BuildingBlock: CIFDUS_clean_linker_0, # of connection points: 2
#     Edge 33, Type (0, 1), BuildingBlock: CIFDUS_clean_linker_0, # of connection points: 2
#     Edge 34, Type (0, 1), BuildingBlock: CIFDUS_clean_linker_0, # of connection points: 2
#     Edge 35, Type (0, 1), BuildingBlock: CIFDUS_clean_linker_0, # of connection points: 2
# Relax obj value: 0.009
# Max RMSD: 0.103
# Mean RMSD: 0.080
data_MOF--net-apo--node1-KUMJIN_clean_sbu_1--node2-KAKCAD_clean_linker_0--edge1-CIFDUS_clean_linker_0
_symmetry_space_group_name_H-M    P1
_symmetry_Int_Tables_number       1
_symmetry_cell_setting            triclinic
loop_
_symmetry_equiv_pos_as_xyz
'x, y, z'
_cell_length_a     26.382476
_cell_length_b     47.086465
_cell_length_c     58.163006
_cell_angle_alpha  89.814913
_cell_angle_beta   89.997025
_cell_angle_gamma 90.435682
loop_
_atom_site_label
_atom_site_type_symbol
_atom_site_fract_x
_atom_site_fract_y
_atom_site_fract_z
_atom_type_partial_charge
C0 C 0.29118 0.46604 0.35615 0.0
C1 C 0.33965 0.47825 0.35853 0.0
C2 C 0.27745 0.44204 0.36903 0.0
C3 C 0.31179 0.42988 0.38467 0.0
C4 C 0.35995 0.44239 0.38728 0.0
C5 C 0.37371 0.46627 0.37436 0.0
C6 C 0.29765 0.40409 0.39809 0.0
C7 C 0.27233 0.38138 0.38744 0.0
C8 C 0.25838 0.35681 0.39989 0.0
C9 C 0.27057 0.35527 0.4235 0.0
C10 C 0.29721 0.37758 0.4342 0.0
C11 C 0.31032 0.40187 0.42143 0.0
C12 C 0.31251 0.37592 0.45868 0.0
C13 C 0.27621 0.37312 0.47619 0.0
C14 C 0.36363 0.37967 0.46466 0.0
C15 C 0.3781 0.38164 0.48769 0.0
C16 C 0.34165 0.38047 0.50536 0.0
C17 C 0.2327 0.33274 0.38778 0.0
C18 C 0.19855 0.33809 0.36972 0.0
C19 C 0.24393 0.30433 0.39321 0.0
C20 C 0.2224 0.28198 0.3806 0.0
C21 C 0.18954 0.28743 0.36203 0.0
C22 C 0.17788 0.31586 0.35688 0.0
C23 C 0.29058 0.37554 0.49932 0.0
H24 H 0.26423 0.4747 0.34401 0.0
H25 H 0.23986 0.43305 0.36682 0.0
H26 H 0.3874 0.43342 0.39903 0.0
H27 H 0.41112 0.4754 0.3768 0.0
H28 H 0.26502 0.38257 0.36914 0.0
H29 H 0.32982 0.41931 0.42986 0.0
H30 H 0.26001 0.33671 0.43351 0.0
H31 H 0.23649 0.3704 0.47195 0.0
H32 H 0.39236 0.38162 0.45142 0.0
H33 H 0.41792 0.38459 0.49159 0.0
H34 H 0.18801 0.35959 0.36526 0.0
H35 H 0.27035 0.29928 0.40684 0.0
H36 H 0.26132 0.37475 0.51237 0.0
H37 H 0.15347 0.32118 0.34257 0.0
H38 H 0.23168 0.26042 0.38544 0.0
C39 C 0.19344 0.0273 0.86429 0.0
C40 C 0.1461 0.0151 0.86954 0.0
C41 C 0.2107 0.05133 0.87603 0.0
C42 C 0.18075 0.06397 0.89316 0.0
C43 C 0.1337 0.05141 0.89868 0.0
C44 C 0.11668 0.02716 0.88707 0.0
C45 C 0.19791 0.09062 0.90464 0.0
C46 C 0.22314 0.11182 0.89194 0.0
C47 C 0.23968 0.13709 0.90236 0.0
C48 C 0.22977 0.14143 0.92585 0.0
C49 C 0.20452 0.12044 0.93899 0.0
C50 C 0.18904 0.09508 0.92818 0.0
C51 C 0.19519 0.12445 0.96408 0.0
C52 C 0.23226 0.13698 0.97827 0.0
C53 C 0.14972 0.11482 0.97422 0.0
C54 C 0.14206 0.11698 0.99795 0.0
C55 C 0.1795 0.129 0.01216 0.0
C56 C 0.2675 0.1586 0.88837 0.0
C57 C 0.30645 0.15003 0.87351 0.0
C58 C 0.254 0.1874 0.88884 0.0
C59 C 0.2779 0.20703 0.87418 0.0
C60 C 0.31608 0.19829 0.85887 0.0
C61 C 0.33053 0.16961 0.85902 0.0
C62 C 0.22446 0.13928 1.00201 0.0
H63 H 0.21723 0.01819 0.85108 0.0
H64 H 0.2476 0.06 0.87166 0.0
H65 H 0.10933 0.06074 0.91155 0.0
H66 H 0.07979 0.01835 0.89132 0.0
H67 H 0.22908 0.10898 0.87366 0.0
H68 H 0.1712 0.0784 0.93826 0.0
H69 H 0.24203 0.16104 0.93388 0.0
H70 H 0.26801 0.14428 0.97116 0.0
H71 H 0.1199 0.10556 0.9638 0.0
H72 H 0.10668 0.10927 1.00517 0.0
H73 H 0.31825 0.12805 0.87304 0.0
H74 H 0.22384 0.19457 0.9 0.0
H75 H 0.25433 0.14835 0.01251 0.0
H76 H 0.36062 0.1622 0.84794 0.0
H77 H 0.26547 0.22889 0.87442 0.0
C78 C 0.80077 0.03979 0.66386 0.0
C79 C 0.85018 0.02966 0.66098 0.0
C80 C 0.78239 0.06129 0.64969 0.0
C81 C 0.81331 0.07354 0.63254 0.0
C82 C 0.86232 0.06274 0.62919 0.0
C83 C 0.8805 0.04087 0.64324 0.0
C84 C 0.79489 0.09838 0.61916 0.0
C85 C 0.76646 0.11926 0.63025 0.0
C86 C 0.7457 0.14219 0.61812 0.0
C87 C 0.75676 0.14515 0.59454 0.0
C88 C 0.78706 0.12499 0.58314 0.0
C89 C 0.80515 0.10142 0.5956 0.0
C90 C 0.80003 0.12833 0.55829 0.0
C91 C 0.76448 0.13889 0.54242 0.0
C92 C 0.84838 0.12078 0.55021 0.0
C93 C 0.86069 0.12342 0.52693 0.0
C94 C 0.82521 0.13397 0.51113 0.0
C95 C 0.71245 0.16251 0.63055 0.0
C96 C 0.67999 0.15249 0.64802 0.0
C97 C 0.71435 0.19187 0.6261 0.0
C98 C 0.68581 0.21073 0.63938 0.0
C99 C 0.65524 0.2007 0.65763 0.0
C100 C 0.65254 0.17126 0.66156 0.0
C101 C 0.77703 0.1418 0.51913 0.0
H102 H 0.77637 0.03111 0.67717 0.0
H103 H 0.74398 0.06854 0.65235 0.0
H104 H 0.88721 0.07181 0.61626 0.0
H105 H 0.91883 0.03339 0.64074 0.0
H106 H 0.76085 0.11775 0.64867 0.0
H107 H 0.82638 0.08507 0.58687 0.0
H108 H 0.74187 0.1631 0.5851 0.0
H109 H 0.72666 0.14451 0.5479 0.0
H110 H 0.87715 0.11315 0.56193 0.0
H111 H 0.89842 0.11768 0.52136 0.0
H112 H 0.67633 0.12999 0.65161 0.0
H113 H 0.7389 0.2004 0.61282 0.0
H114 H 0.74877 0.14979 0.50731 0.0
H115 H 0.63028 0.16249 0.67554 0.0
H116 H 0.68814 0.23317 0.63542 0.0
C117 C 0.69285 0.46862 0.15609 0.0
C118 C 0.6431 0.47797 0.15235 0.0
C119 C 0.71158 0.44523 0.1442 0.0
C120 C 0.68101 0.43053 0.12831 0.0
C121 C 0.63149 0.44012 0.12427 0.0
C122 C 0.61272 0.46359 0.13617 0.0
C123 C 0.70089 0.40497 0.11649 0.0
C124 C 0.72942 0.38515 0.12893 0.0
C125 C 0.75201 0.36175 0.11812 0.0
C126 C 0.74408 0.35797 0.09434 0.0
C127 C 0.7134 0.37685 0.08181 0.0
C128 C 0.69218 0.40036 0.09298 0.0
C129 C 0.70246 0.37168 0.05713 0.0
C130 C 0.74191 0.36683 0.04142 0.0
C131 C 0.65211 0.37095 0.04927 0.0
C132 C 0.6413 0.36467 0.02629 0.0
C133 C 0.68069 0.35959 0.01061 0.0
C134 C 0.78286 0.34135 0.13199 0.0
C135 C 0.81002 0.35081 0.15138 0.0
C136 C 0.78401 0.31221 0.12671 0.0
C137 C 0.81071 0.29314 0.14064 0.0
C138 C 0.83598 0.3025 0.16063 0.0
C139 C 0.83516 0.33171 0.16567 0.0
C140 C 0.73112 0.36113 0.0183 0.0
H141 H 0.71755 0.47955 0.16808 0.0
H142 H 0.75026 0.43873 0.14738 0.0
H143 H 0.60686 0.4291 0.11231 0.0
H144 H 0.57404 0.47012 0.13306 0.0
H145 H 0.73305 0.38786 0.14734 0.0
H146 H 0.66988 0.4154 0.0832 0.0
H147 H 0.76114 0.34022 0.08554 0.0
H148 H 0.78105 0.36742 0.04704 0.0
H149 H 0.62101 0.37449 0.06106 0.0
H150 H 0.60212 0.36361 0.02076 0.0
H151 H 0.81167 0.37311 0.1558 0.0
H152 H 0.76343 0.30386 0.11209 0.0
H153 H 0.76211 0.35707 1.00657 0.0
H154 H 0.8531 0.34007 0.18097 0.0
H155 H 0.81123 0.27103 0.13564 0.0
C156 C 0.66905 0.54381 0.67255 0.0
C157 C 0.67466 0.51574 0.66483 0.0
C158 C 0.68528 0.56668 0.65896 0.0
C159 C 0.70727 0.562 0.6373 0.0
C160 C 0.71301 0.53393 0.62961 0.0
C161 C 0.69702 0.51106 0.64325 0.0
C162 C 0.7244 0.58629 0.62279 0.0
C163 C 0.75102 0.6091 0.63259 0.0
C164 C 0.76798 0.63197 0.61902 0.0
C165 C 0.75844 0.63184 0.59522 0.0
C166 C 0.73099 0.60934 0.58505 0.0
C167 C 0.7141 0.58674 0.59912 0.0
C168 C 0.71842 0.60945 0.56 0.0
C169 C 0.70569 0.63479 0.54845 0.0
C170 C 0.71639 0.58378 0.54766 0.0
C171 C 0.6995 0.58321 0.52492 0.0
C172 C 0.6853 0.60834 0.51373 0.0
C173 C 0.79526 0.65595 0.6301 0.0
C174 C 0.77538 0.66834 0.65006 0.0
C175 C 0.84215 0.66568 0.6216 0.0
C176 C 0.86929 0.68689 0.63327 0.0
C177 C 0.84957 0.69901 0.65342 0.0
C178 C 0.8021 0.68971 0.66153 0.0
C179 C 0.68964 0.63424 0.52547 0.0
H180 H 0.65231 0.54811 0.68917 0.0
H181 H 0.67999 0.58806 0.66529 0.0
H182 H 0.73027 0.52963 0.6131 0.0
H183 H 0.7014 0.4897 0.63672 0.0
H184 H 0.75959 0.6088 0.65082 0.0
H185 H 0.69151 0.56972 0.59181 0.0
H186 H 0.772 0.64938 0.58474 0.0
H187 H 0.70628 0.65493 0.55737 0.0
H188 H 0.72724 0.56393 0.55565 0.0
H189 H 0.69711 0.56302 0.51608 0.0
H190 H 0.73918 0.66133 0.65691 0.0
H191 H 0.85842 0.65636 0.60631 0.0
H192 H 0.67873 0.65389 0.51715 0.0
H193 H 0.78612 0.69848 0.6771 0.0
H194 H 0.90566 0.6938 0.62657 0.0
C195 C 0.76252 0.87191 0.01269 0.0
C196 C 0.80905 0.88245 1.00419 0.0
C197 C 0.75249 0.87151 0.03636 0.0
C198 C 0.78889 0.88141 0.05216 0.0
C199 C 0.83588 0.89111 0.04366 0.0
C200 C 0.84559 0.89191 0.02009 0.0
C201 C 0.77816 0.88227 0.07736 0.0
C202 C 0.74994 0.86057 0.08831 0.0
C203 C 0.74263 0.86093 0.11226 0.0
C204 C 0.76341 0.88322 0.12526 0.0
C205 C 0.79091 0.90525 0.11467 0.0
C206 C 0.79754 0.90475 0.09073 0.0
C207 C 0.81405 0.92828 0.12871 0.0
C208 C 0.7875 0.94022 0.14724 0.0
C209 C 0.86348 0.93804 0.12399 0.0
C210 C 0.88598 0.95902 0.13759 0.0
C211 C 0.85967 0.97074 0.15627 0.0
C212 C 0.71443 0.83781 0.12412 0.0
C213 C 0.66535 0.83 0.11708 0.0
C214 C 0.73563 0.82451 0.14348 0.0
C215 C 0.70806 0.80414 0.15579 0.0
C216 C 0.65846 0.79682 0.14918 0.0
C217 C 0.63739 0.80983 0.12963 0.0
C218 C 0.81005 0.9612 0.16086 0.0
H219 H 0.73365 0.86404 1.00107 0.0
H220 H 0.71579 0.86399 0.0422 0.0
H221 H 0.86542 0.8983 0.05524 0.0
H222 H 0.88155 0.90063 0.0144 0.0
H223 H 0.73524 0.84287 0.07843 0.0
H224 H 0.81753 0.92218 0.08247 0.0
H225 H 0.75846 0.88323 0.14376 0.0
H226 H 0.74918 0.93338 0.15119 0.0
H227 H 0.88521 0.92909 0.11001 0.0
H228 H 0.92401 0.96615 0.1334 0.0
H229 H 0.64811 0.84008 0.10229 0.0
H230 H 0.77349 0.83007 0.1492 0.0
H231 H 0.78889 0.9696 0.17524 0.0
H232 H 0.59934 0.80442 0.1241 0.0
H233 H 0.72512 0.79461 0.17087 0.0
C234 C 0.16287 0.95203 0.35234 0.0
C235 C 0.14998 0.97697 0.3642 0.0
C236 C 0.17824 0.92772 0.36416 0.0
C237 C 0.18358 0.92773 0.38826 0.0
C238 C 0.17213 0.95292 0.40012 0.0
C239 C 0.15482 0.97696 0.38834 0.0
C240 C 0.2002 0.90147 0.40079 0.0
C241 C 0.2307 0.88117 0.38969 0.0
C242 C 0.24355 0.85552 0.40052 0.0
C243 C 0.22739 0.85054 0.42314 0.0
C244 C 0.19839 0.87072 0.43484 0.0
C245 C 0.18463 0.89596 0.42362 0.0
C246 C 0.18213 0.86495 0.45877 0.0
C247 C 0.15401 0.84037 0.46391 0.0
C248 C 0.19746 0.88288 0.47673 0.0
C249 C 0.18712 0.87552 0.49963 0.0
C250 C 0.16052 0.85027 0.50496 0.0
C251 C 0.27246 0.83354 0.3879 0.0
C252 C 0.25877 0.82615 0.36534 0.0
C253 C 0.31305 0.81936 0.3984 0.0
C254 C 0.33936 0.79823 0.3866 0.0
C255 C 0.32539 0.79059 0.36407 0.0
C256 C 0.28474 0.80487 0.35361 0.0
C257 C 0.14278 0.83329 0.4867 0.0
H258 H 0.1613 0.951 0.33378 0.0
H259 H 0.18524 0.90884 0.35415 0.0
H260 H 0.1765 0.95432 0.41857 0.0
H261 H 0.1447 0.99536 0.39837 0.0
H262 H 0.24517 0.88523 0.37257 0.0
H263 H 0.16038 0.91069 0.43259 0.0
H264 H 0.23702 0.83078 0.43167 0.0
H265 H 0.14131 0.8264 0.45027 0.0
H266 H 0.21944 0.90191 0.47312 0.0
H267 H 0.20193 0.88902 0.51312 0.0
H268 H 0.22715 0.8364 0.35692 0.0
H269 H 0.32479 0.82482 0.41569 0.0
H270 H 0.12099 0.81413 0.48999 0.0
H271 H 0.27222 0.79924 0.33648 0.0
H272 H 0.37098 0.78808 0.39508 0.0
C273 C 0.30258 0.64937 0.99655 0.0
C274 C 0.35255 0.6434 1.00336 0.0
C275 C 0.28681 0.64434 0.97393 0.0
C276 C 0.32055 0.63304 0.95769 0.0
C277 C 0.37031 0.6268 0.96461 0.0
C278 C 0.3861 0.63193 0.98715 0.0
C279 C 0.30431 0.62792 0.93356 0.0
C280 C 0.27576 0.64835 0.92152 0.0
C281 C 0.26299 0.64415 0.8983 0.0
C282 C 0.27708 0.61883 0.88748 0.0
C283 C 0.30555 0.59842 0.89914 0.0
C284 C 0.31935 0.60306 0.92209 0.0
C285 C 0.32359 0.57334 0.88647 0.0
C286 C 0.28891 0.55548 0.87512 0.0
C287 C 0.37576 0.56885 0.88373 0.0
C288 C 0.39302 0.54751 0.8691 0.0
C289 C 0.35833 0.53001 0.8574 0.0
C290 C 0.23768 0.66654 0.88457 0.0
C291 C 0.19406 0.68025 0.89263 0.0
C292 C 0.25624 0.67336 0.86257 0.0
C293 C 0.23066 0.69249 0.84852 0.0
C294 C 0.1858 0.70533 0.85607 0.0
C295 C 0.16826 0.69948 0.87846 0.0
C296 C 0.30617 0.53375 0.86089 0.0
H297 H 0.27594 0.65843 1.00859 0.0
H298 H 0.24811 0.64917 0.96917 0.0
H299 H 0.39743 0.61836 0.95249 0.0
H300 H 0.42469 0.62684 0.9919 0.0
H301 H 0.26563 0.66807 0.92985 0.0
H302 H 0.34148 0.58717 0.93102 0.0
H303 H 0.26717 0.61533 0.86961 0.0
H304 H 0.24849 0.55872 0.87694 0.0
H305 H 0.40309 0.5826 0.89215 0.0
H306 H 0.43343 0.54484 0.86672 0.0
H307 H 0.17896 0.67535 0.90951 0.0
H308 H 0.29046 0.66362 0.85611 0.0
H309 H 0.27882 0.52049 0.85198 0.0
H310 H 0.13372 0.70901 0.88475 0.0
H311 H 0.24591 0.6971 0.83161 0.0
Eu312 Eu 0.0549 0.13837 0.23906 0.0
C313 C 0.82193 0.12099 0.26524 0.0
N314 N 0.85052 0.14491 0.26789 0.0
C315 C 0.78186 0.17354 0.25442 0.0
C316 C 0.772 0.1225 0.2567 0.0
C317 C 0.8312 0.17102 0.26292 0.0
C318 C 0.75218 0.14918 0.25122 0.0
C319 C 0.81443 0.06962 0.26788 0.0
C320 C 0.84297 0.0948 0.27073 0.0
C321 C 0.76473 0.07107 0.25934 0.0
C322 C 0.74359 0.09742 0.25376 0.0
Eu323 Eu 0.9337 0.13828 0.28159 0.0
N324 N 0.89185 0.09392 0.27824 0.0
C325 C 0.83678 0.04368 0.27365 0.0
C326 C 0.91281 0.06889 0.28499 0.0
C327 C 0.88599 0.04337 0.28247 0.0
H328 H 0.85365 0.18998 0.26573 0.0
H329 H 0.90313 0.0235 0.28754 0.0
H330 H 0.13777 0.09347 0.26321 0.0
H331 H 0.07119 0.25231 0.22245 0.0
H332 H 0.94973 0.06851 0.29269 0.0
H333 H 0.81613 0.02386 0.27168 0.0
H334 H 0.03316 0.20444 0.21939 0.0
H335 H 0.76673 0.19427 0.25039 0.0
H336 H 0.74232 0.05193 0.25696 0.0
H337 H 0.70521 0.09817 0.24717 0.0
H338 H 0.22103 0.09569 0.28258 0.0
H339 H 0.71399 0.15122 0.2446 0.0
H340 H 0.15249 0.2589 0.24306 0.0
N341 N 0.13467 0.13797 0.25725 0.0
C342 C 0.15889 0.16349 0.25894 0.0
C343 C 0.20384 0.11492 0.27611 0.0
C344 C 0.20656 0.16571 0.26975 0.0
C345 C 0.15652 0.11376 0.26531 0.0
C346 C 0.22888 0.14101 0.27843 0.0
N347 N 0.08896 0.18484 0.2401 0.0
C348 C 0.067 0.20736 0.22942 0.0
C349 C 0.1594 0.21434 0.25177 0.0
C350 C 0.13539 0.18758 0.25013 0.0
C351 C 0.1353 0.23796 0.24217 0.0
C352 C 0.08924 0.23437 0.23065 0.0
H353 H 0.26549 0.14184 0.28686 0.0
H354 H 0.26671 0.19457 0.28005 0.0
H355 H 0.22554 0.23709 0.26427 0.0
O356 O 0.05996 0.14602 0.20196 0.0
O357 O 0.06146 0.15702 0.27532 0.0
O358 O 0.98412 0.17715 0.28147 0.0
O359 O 0.1104 0.11605 0.21802 0.0
O360 O 0.98254 0.15997 0.22671 0.0
O361 O 0.94463 0.17757 0.25954 0.0
O362 O 0.93971 0.1295 0.31847 0.0
O363 O 0.92351 0.11736 0.2466 0.0
O364 O 0.00206 0.10048 0.23628 0.0
O365 O 0.88043 0.15675 0.30596 0.0
O366 O 0.0049 0.1141 0.29243 0.0
O367 O 0.04273 0.09779 0.25909 0.0
C368 C 0.03333 0.17694 0.2844 0.0
C369 C 0.14151 0.14155 0.18566 0.0
C370 C 0.1787 0.15403 0.14835 0.0
C371 C 0.2215 0.16497 0.15986 0.0
C372 C 0.18477 0.15249 0.19665 0.0
C373 C 0.22439 0.16417 0.18379 0.0
C374 C 0.13869 0.14228 0.16148 0.0
C375 C 0.95044 0.17697 0.23709 0.0
C376 C 0.09902 0.12962 0.19919 0.0
C377 C 0.2302 0.19243 0.27168 0.0
C378 C 0.2067 0.21666 0.26273 0.0
C379 C 0.95242 0.1003 0.23463 0.0
C380 C 0.91213 0.16611 0.34298 0.0
C381 C 0.90066 0.17991 0.38307 0.0
C382 C 0.92804 0.20509 0.37863 0.0
C383 C 0.93906 0.19138 0.33894 0.0
C384 C 0.89327 0.16028 0.36512 0.0
C385 C 0.94727 0.21068 0.35671 0.0
C386 C 0.03365 0.09597 0.28127 0.0
C387 C 0.90249 0.14619 0.32402 0.0
H388 H 0.25325 0.17374 0.15032 0.0
H389 H 0.18818 0.1519 0.21513 0.0
H390 H 0.25765 0.1725 0.19243 0.0
H391 H 0.10519 0.13399 0.15296 0.0
H392 H 0.93481 0.22039 0.39218 0.0
H393 H 0.95314 0.19624 0.32196 0.0
H394 H 0.87191 0.14088 0.36822 0.0
H395 H 0.96826 0.23012 0.35345 0.0
Eu396 Eu 0.43413 0.35507 0.74123 0.0
C397 C 0.64359 0.40458 0.76953 0.0
N398 N 0.63093 0.37673 0.76768 0.0
C399 C 0.70661 0.36781 0.74627 0.0
C400 C 0.68753 0.4155 0.75881 0.0
C401 C 0.66248 0.35806 0.75716 0.0
C402 C 0.71883 0.39675 0.74681 0.0
C403 C 0.62559 0.4509 0.78535 0.0
C404 C 0.61289 0.42196 0.78259 0.0
C405 C 0.668 0.46226 0.77381 0.0
C406 C 0.69896 0.44458 0.76059 0.0
Eu407 Eu 0.55467 0.36185 0.78503 0.0
N408 N 0.57237 0.41022 0.79363 0.0
C409 C 0.59629 0.4673 0.80024 0.0
C410 C 0.54661 0.42552 0.80967 0.0
C411 C 0.55731 0.4544 0.81282 0.0
H412 H 0.65324 0.33567 0.75704 0.0
H413 H 0.53582 0.46661 0.82512 0.0
H414 H 0.35032 0.40356 0.76181 0.0
H415 H 0.39887 0.24342 0.72349 0.0
H416 H 0.51806 0.41555 0.82032 0.0
H417 H 0.60473 0.48962 0.80283 0.0
H418 H 0.44238 0.29018 0.7199 0.0
H419 H 0.73111 0.35304 0.7375 0.0
H420 H 0.67796 0.48452 0.77551 0.0
H421 H 0.73214 0.45348 0.75219 0.0
H422 H 0.27264 0.40381 0.78519 0.0
H423 H 0.75292 0.4043 0.7383 0.0
H424 H 0.32336 0.23855 0.74857 0.0
N425 N 0.35621 0.35842 0.76154 0.0
C426 C 0.33172 0.33344 0.76581 0.0
C427 C 0.28928 0.38382 0.78017 0.0
C428 C 0.28608 0.33262 0.77844 0.0
C429 C 0.33403 0.38355 0.76728 0.0
C430 C 0.26572 0.35822 0.78618 0.0
N431 N 0.39351 0.31049 0.74348 0.0
C432 C 0.40991 0.28784 0.73106 0.0
C433 C 0.32413 0.28282 0.75863 0.0
C434 C 0.35041 0.30882 0.75612 0.0
C435 C 0.34245 0.25893 0.74708 0.0
C436 C 0.38513 0.26156 0.73294 0.0
H437 H 0.23074 0.35851 0.79594 0.0
H438 H 0.22644 0.30542 0.79202 0.0
H439 H 0.25985 0.26177 0.77466 0.0
O440 O 0.44388 0.35146 0.70404 0.0
O441 O 0.45424 0.3195 0.76635 0.0
O442 O 0.47978 0.34453 0.79775 0.0
O443 O 0.37371 0.36739 0.71758 0.0
O444 O 0.50743 0.33571 0.72875 0.0
O445 O 0.55598 0.32373 0.76095 0.0
O446 O 0.59373 0.3648 0.81834 0.0
O447 O 0.55993 0.37839 0.74818 0.0
O448 O 0.48039 0.39567 0.74154 0.0
O449 O 0.5904 0.3243 0.8 0.0
O450 O 0.47862 0.37946 0.79662 0.0
O451 O 0.4396 0.39503 0.76328 0.0
C452 C 0.45595 0.3228 0.78873 0.0
C453 C 0.40013 0.38464 0.68136 0.0
C454 C 0.38733 0.39846 0.64119 0.0
C455 C 0.39991 0.42665 0.64713 0.0
C456 C 0.41302 0.41276 0.68681 0.0
C457 C 0.41287 0.43363 0.66973 0.0
C458 C 0.38768 0.37753 0.6586 0.0
C459 C 0.5433 0.32112 0.73908 0.0
C460 C 0.40011 0.36243 0.69916 0.0
C461 C 0.26122 0.30649 0.78213 0.0
C462 C 0.28015 0.28164 0.7722 0.0
C463 C 0.52979 0.39755 0.73926 0.0
C464 C 0.63393 0.32419 0.83702 0.0
C465 C 0.66207 0.32269 0.87707 0.0
C466 C 0.68051 0.29517 0.87351 0.0
C467 C 0.6531 0.29673 0.83385 0.0
C468 C 0.63932 0.33734 0.85866 0.0
C469 C 0.67645 0.28242 0.85198 0.0
C470 C 0.44759 0.39652 0.7856 0.0
C471 C 0.60519 0.33797 0.81829 0.0
H472 H 0.39916 0.44345 0.63439 0.0
H473 H 0.423 0.41853 0.70425 0.0
H474 H 0.42258 0.45535 0.67404 0.0
H475 H 0.3789 0.35561 0.65448 0.0
H476 H 0.69825 0.28357 0.88744 0.0
H477 H 0.64948 0.28612 0.81743 0.0
H478 H 0.62422 0.3584 0.86146 0.0
H479 H 0.69088 0.26121 0.8494 0.0
Eu480 Eu 0.06448 0.85594 0.73751 0.0
C481 C 0.83011 0.844 0.75983 0.0
N482 N 0.85792 0.86843 0.76043 0.0
C483 C 0.79032 0.894 0.74259 0.0
C484 C 0.78103 0.84369 0.75022 0.0
C485 C 0.83891 0.89327 0.75215 0.0
C486 C 0.76125 0.86911 0.7416 0.0
C487 C 0.82407 0.79321 0.76689 0.0
C488 C 0.85161 0.81897 0.76801 0.0
C489 C 0.77507 0.79291 0.75746 0.0
C490 C 0.75363 0.81805 0.74916 0.0
Eu491 Eu 0.93885 0.86516 0.77706 0.0
N492 N 0.89984 0.81968 0.77645 0.0
C493 C 0.84663 0.76845 0.77526 0.0
C494 C 0.92091 0.79584 0.78562 0.0
C495 C 0.89504 0.76984 0.78486 0.0
H496 H 0.86094 0.91261 0.75328 0.0
H497 H 0.91226 0.75094 0.79193 0.0
H498 H 0.14236 0.81618 0.76948 0.0
H499 H 0.09517 0.96196 0.70068 0.0
H500 H 0.95701 0.79667 0.79405 0.0
H501 H 0.82672 0.74825 0.7747 0.0
H502 H 0.05118 0.91636 0.70606 0.0
H503 H 0.77528 0.91377 0.73605 0.0
H504 H 0.75347 0.77329 0.75644 0.0
H505 H 0.7159 0.81741 0.74181 0.0
H506 H 0.2247 0.82098 0.78934 0.0
H507 H 0.72369 0.86973 0.73409 0.0
H508 H 0.1763 0.97125 0.72065 0.0
N509 N 0.14305 0.8584 0.75672 0.0
C510 C 0.16987 0.883 0.75417 0.0
C511 C 0.20951 0.83868 0.77969 0.0
C512 C 0.21749 0.88654 0.76484 0.0
C513 C 0.16252 0.83613 0.76876 0.0
C514 C 0.23699 0.86405 0.77786 0.0
N515 N 0.10297 0.90091 0.73106 0.0
C516 C 0.08461 0.92061 0.71602 0.0
C517 C 0.17679 0.93036 0.73779 0.0
C518 C 0.1493 0.9048 0.741 0.0
C519 C 0.15633 0.95136 0.72357 0.0
C520 C 0.11037 0.94629 0.7124 0.0
H521 H 0.27347 0.86594 0.78629 0.0
H522 H 0.28079 0.91534 0.77023 0.0
H523 H 0.24537 0.9536 0.74644 0.0
O524 O 0.07549 0.85455 0.69988 0.0
O525 O 0.07294 0.8805 0.77111 0.0
O526 O 0.99521 0.90146 0.77722 0.0
O527 O 0.11929 0.82698 0.72264 0.0
O528 O 0.99713 0.87965 0.72243 0.0
O529 O 0.95669 0.90172 0.7529 0.0
O530 O 0.92794 0.8582 0.81388 0.0
O531 O 0.92993 0.84393 0.74224 0.0
O532 O 0.00526 0.82084 0.73773 0.0
O533 O 0.88797 0.89214 0.79686 0.0
O534 O 0.00747 0.84336 0.7926 0.0
O535 O 0.04572 0.82041 0.76234 0.0
C536 C 0.04431 0.90007 0.78039 0.0
C537 C 0.13739 0.82281 0.68186 0.0
C538 C 0.15645 0.821 0.64065 0.0
C539 C 0.19232 0.7997 0.64518 0.0
C540 C 0.17305 0.80131 0.68573 0.0
C541 C 0.20026 0.7899 0.6675 0.0
C542 C 0.1291 0.83259 0.65923 0.0
C543 C 0.96806 0.8998 0.73088 0.0
C544 C 0.11039 0.83521 0.70168 0.0
C545 C 0.24421 0.91222 0.76212 0.0
C546 C 0.22398 0.93403 0.7486 0.0
C547 C 0.95739 0.82425 0.73244 0.0
C548 C 0.91194 0.8991 0.83567 0.0
C549 C 0.91383 0.908 0.87692 0.0
C550 C 0.94222 0.93287 0.87294 0.0
C551 C 0.93988 0.9242 0.83194 0.0
C552 C 0.89845 0.89125 0.8582 0.0
C553 C 0.95464 0.94105 0.85052 0.0
C554 C 0.0382 0.82394 0.78449 0.0
C555 C 0.89881 0.88018 0.81644 0.0
H556 H 0.215 0.79082 0.63149 0.0
H557 H 0.18033 0.7934 0.70292 0.0
H558 H 0.22798 0.77352 0.6707 0.0
H559 H 0.10138 0.84901 0.65609 0.0
H560 H 0.95449 0.94601 0.88718 0.0
H561 H 0.95077 0.93062 0.81472 0.0
H562 H 0.87714 0.87181 0.86121 0.0
H563 H 0.97625 0.96035 0.84756 0.0
Eu564 Eu 0.44629 0.638 0.23913 0.0
C565 C 0.66857 0.67476 0.2601 0.0
N566 N 0.64957 0.6481 0.26309 0.0
C567 C 0.72318 0.62823 0.24541 0.0
C568 C 0.71575 0.67917 0.24921 0.0
C569 C 0.67605 0.6249 0.25611 0.0
C570 C 0.74306 0.65547 0.24187 0.0
C571 C 0.65864 0.72566 0.26434 0.0
C572 C 0.63993 0.69774 0.26736 0.0
C573 C 0.70536 0.73014 0.25326 0.0
C574 C 0.73383 0.70697 0.24573 0.0
Eu575 Eu 0.56903 0.64442 0.28037 0.0
N576 N 0.59427 0.69281 0.27765 0.0
C577 C 0.6303 0.74825 0.27294 0.0
C578 C 0.56907 0.71457 0.28789 0.0
C579 C 0.58584 0.74261 0.28518 0.0
H580 H 0.66097 0.60381 0.25897 0.0
H581 H 0.56501 0.75982 0.29294 0.0
H582 H 0.36283 0.68705 0.25645 0.0
H583 H 0.42759 0.52222 0.23582 0.0
H584 H 0.5372 0.71049 0.29891 0.0
H585 H 0.64337 0.76999 0.27099 0.0
H586 H 0.46864 0.56846 0.2287 0.0
H587 H 0.74409 0.60979 0.23987 0.0
H588 H 0.72007 0.75145 0.25066 0.0
H589 H 0.76986 0.71078 0.23728 0.0
H590 H 0.27843 0.68869 0.27475 0.0
H591 H 0.77946 0.65798 0.23345 0.0
H592 H 0.34326 0.52 0.25433 0.0
N593 N 0.36509 0.64202 0.25566 0.0
C594 C 0.33961 0.6172 0.25944 0.0
C595 C 0.29538 0.66845 0.2707 0.0
C596 C 0.29107 0.61714 0.2696 0.0
C597 C 0.34346 0.66747 0.26065 0.0
C598 C 0.26918 0.64318 0.27533 0.0
N599 N 0.40997 0.59232 0.24426 0.0
C600 C 0.43265 0.56788 0.23731 0.0
C601 C 0.33718 0.56566 0.25752 0.0
C602 C 0.36245 0.5917 0.25343 0.0
C603 C 0.36133 0.54043 0.25138 0.0
C604 C 0.40905 0.54158 0.24104 0.0
H605 H 0.23193 0.64402 0.28314 0.0
H606 H 0.22879 0.59076 0.28166 0.0
H607 H 0.26919 0.54574 0.27116 0.0
O608 O 0.44556 0.62695 0.20262 0.0
O609 O 0.44247 0.61882 0.27537 0.0
O610 O 0.52339 0.60409 0.28344 0.0
O611 O 0.38851 0.65493 0.21613 0.0
O612 O 0.51713 0.61434 0.22807 0.0
O613 O 0.56461 0.60294 0.26052 0.0
O614 O 0.571 0.65211 0.31748 0.0
O615 O 0.57568 0.65758 0.24295 0.0
O616 O 0.49811 0.67644 0.23458 0.0
O617 O 0.62969 0.62731 0.30172 0.0
O618 O 0.494 0.66447 0.29123 0.0
O619 O 0.45771 0.67963 0.25742 0.0
C620 C 0.47415 0.60117 0.28525 0.0
C621 C 0.41499 0.66273 0.17796 0.0
C622 C 0.40711 0.67217 0.13678 0.0
C623 C 0.42959 0.69904 0.1402 0.0
C624 C 0.43686 0.68968 0.18097 0.0
C625 C 0.44433 0.70767 0.16216 0.0
C626 C 0.40007 0.65404 0.15587 0.0
C627 C 0.55147 0.59895 0.23881 0.0
C628 C 0.40778 0.64361 0.19775 0.0
C629 C 0.266 0.59121 0.27378 0.0
C630 C 0.28899 0.56556 0.26777 0.0
C631 C 0.5473 0.67522 0.23132 0.0
C632 C 0.60588 0.61497 0.33951 0.0
C633 C 0.61619 0.60184 0.38 0.0
C634 C 0.59862 0.57429 0.37466 0.0
C635 C 0.58827 0.58745 0.33473 0.0
C636 C 0.61944 0.62218 0.36215 0.0
C637 C 0.5845 0.56729 0.35225 0.0
C638 C 0.46356 0.68151 0.27977 0.0
C639 C 0.61039 0.63617 0.32094 0.0
H640 H 0.43494 0.71364 0.12597 0.0
H641 H 0.44775 0.69684 0.19791 0.0
H642 H 0.4612 0.72846 0.16463 0.0
H643 H 0.38342 0.63312 0.15357 0.0
H644 H 0.59668 0.55784 0.38768 0.0
H645 H 0.57799 0.58148 0.31741 0.0
H646 H 0.63227 0.64361 0.36578 0.0
H647 H 0.57116 0.54604 0.34838 0.0
H648 H 0.09788 0.97872 0.32328 0.0
H649 H 0.15929 0.03369 0.37603 0.0
H650 H 0.12621 0.07487 0.35586 0.0
H651 H 0.08071 0.09574 0.32274 0.0
H652 H 0.03141 0.04118 0.26763 0.0
H653 H 0.06075 0.99948 0.28884 0.0
C654 C 0.10547 0.99959 0.3303 0.0
C655 C 0.13113 0.00257 0.35146 0.0
C656 C 0.08868 0.02346 0.31803 0.0
C657 C 0.13864 0.0302 0.36021 0.0
C658 C 0.1202 0.05399 0.34852 0.0
C659 C 0.07659 0.07466 0.31547 0.0
C660 C 0.05366 0.07131 0.29385 0.0
C661 C 0.09512 0.05088 0.32742 0.0
C662 C 0.04914 0.04411 0.28427 0.0
C663 C 0.06568 0.02031 0.29642 0.0
H664 H 0.33886 0.47355 0.85817 0.0
H665 H 0.41854 0.53863 0.82014 0.0
H666 H 0.44885 0.50316 0.79275 0.0
H667 H 0.45502 0.45323 0.78048 0.0
H668 H 0.38388 0.38766 0.82123 0.0
H669 H 0.34664 0.42355 0.84644 0.0
C670 C 0.36263 0.47985 0.84378 0.0
C671 C 0.37647 0.50848 0.84101 0.0
C672 C 0.38091 0.45928 0.82854 0.0
C673 C 0.40774 0.51658 0.82255 0.0
C674 C 0.42482 0.49638 0.80688 0.0
C675 C 0.43069 0.44703 0.79471 0.0
C676 C 0.42141 0.41817 0.79905 0.0
C677 C 0.41184 0.46765 0.80976 0.0
C678 C 0.39106 0.40995 0.81773 0.0
C679 C 0.37004 0.43039 0.83212 0.0
H680 H 0.58544 0.51162 0.6879 0.0
H681 H 0.72207 0.46525 0.67336 0.0
H682 H 0.68985 0.42463 0.69544 0.0
H683 H 0.62128 0.40172 0.71774 0.0
H684 H 0.48554 0.44878 0.7326 0.0
H685 H 0.5188 0.48958 0.71139 0.0
C686 C 0.60845 0.49276 0.68979 0.0
C687 C 0.65602 0.49146 0.67896 0.0
C688 C 0.58966 0.46951 0.7024 0.0
C689 C 0.68503 0.46667 0.68129 0.0
C690 C 0.66672 0.44348 0.69397 0.0
C691 C 0.5994 0.42107 0.7166 0.0
C692 C 0.55119 0.42226 0.72681 0.0
C693 C 0.61887 0.44457 0.70443 0.0
C694 C 0.52269 0.44724 0.72478 0.0
C695 C 0.54174 0.47065 0.71273 0.0
H696 H 0.8173 0.01863 0.17388 0.0
H697 H 0.95731 0.97185 0.17194 0.0
H698 H 0.99836 0.0079 0.1957 0.0
H699 H 0.99455 0.05251 0.21717 0.0
H700 H 0.85454 0.0993 0.21929 0.0
H701 H 0.81318 0.06308 0.19582 0.0
C702 C 0.85665 0.01617 0.17884 0.0
C703 C 0.88418 0.9926 0.17103 0.0
C704 C 0.87999 0.0369 0.19265 0.0
C705 C 0.93539 0.98998 0.17738 0.0
C706 C 0.95885 0.01051 0.19109 0.0
C707 C 0.95505 0.05488 0.21241 0.0
C708 C 0.92767 0.07853 0.22009 0.0
C709 C 0.93157 0.03408 0.19876 0.0
C710 C 0.8764 0.08114 0.21387 0.0
C711 C 0.85274 0.0605 0.20033 0.0
H712 H 0.89591 0.98004 0.65015 0.0
H713 H 0.84878 0.03099 0.70766 0.0
H714 H 0.88107 0.99534 0.73446 0.0
H715 H 0.92344 0.95002 0.74149 0.0
H716 H 0.96694 0.89785 0.68394 0.0
H717 H 0.93584 0.93374 0.65725 0.0
C718 C 0.89302 0.9833 0.66856 0.0
C719 C 0.87022 0.00802 0.67698 0.0
C720 C 0.91101 0.96256 0.68385 0.0
C721 C 0.866 0.01197 0.70084 0.0
C722 C 0.88453 0.99167 0.71614 0.0
C723 C 0.92568 0.94633 0.72312 0.0
C724 C 0.94757 0.92127 0.71478 0.0
C725 C 0.90705 0.96686 0.70784 0.0
C726 C 0.95051 0.91701 0.69088 0.0
C727 C 0.9327 0.93752 0.67557 0.0
H728 H 0.65518 0.48957 0.19791 0.0
H729 H 0.58602 0.52173 0.13591 0.0
H730 H 0.55263 0.56213 0.15715 0.0
H731 H 0.54284 0.58812 0.19313 0.0
H732 H 0.61132 0.5561 0.25539 0.0
H733 H 0.6462 0.51612 0.23405 0.0
C734 C 0.63322 0.50557 0.189 0.0
C735 C 0.62307 0.50259 0.16534 0.0
C736 C 0.61426 0.52881 0.20131 0.0
C737 C 0.59385 0.52329 0.15415 0.0
C738 C 0.575 0.54649 0.16625 0.0
C739 C 0.56546 0.57247 0.20211 0.0
C740 C 0.57449 0.57522 0.22587 0.0
C741 C 0.58488 0.54941 0.18982 0.0
C742 C 0.60402 0.55469 0.23711 0.0
C743 C 0.6238 0.53173 0.22493 0.0
H744 H 0.42887 0.48572 0.33633 0.0
H745 H 0.28534 0.52623 0.34849 0.0
H746 H 0.31338 0.56773 0.32623 0.0
H747 H 0.38088 0.59346 0.305 0.0
H748 H 0.52333 0.55165 0.2926 0.0
H749 H 0.49403 0.51012 0.31384 0.0
C750 C 0.40383 0.50372 0.33428 0.0
C751 C 0.35539 0.50304 0.34429 0.0
C752 C 0.42025 0.52745 0.32165 0.0
C753 C 0.32285 0.52621 0.34092 0.0
C754 C 0.33895 0.55001 0.32832 0.0
C755 C 0.40526 0.57515 0.30681 0.0
C756 C 0.45448 0.57585 0.29753 0.0
C757 C 0.38786 0.551 0.31882 0.0
C758 C 0.48568 0.55197 0.30002 0.0
C759 C 0.46885 0.52807 0.31201 0.0
H760 H 0.14537 0.00899 0.82325 0.0
H761 H 0.10294 0.96615 0.88608 0.0
H762 H 0.06987 0.92588 0.86399 0.0
H763 H 0.05121 0.90333 0.82654 0.0
H764 H 0.08827 0.94792 0.76403 0.0
H765 H 0.12638 0.98678 0.78606 0.0
C766 C 0.12936 0.99069 0.83209 0.0
C767 C 0.12682 0.99044 0.85624 0.0
C768 C 0.10985 0.96789 0.81929 0.0
C769 C 0.1051 0.96686 0.86749 0.0
C770 C 0.08641 0.9438 0.85488 0.0
C771 C 0.06812 0.92153 0.8179 0.0
C772 C 0.06857 0.92267 0.7938 0.0
C773 C 0.08828 0.94416 0.83077 0.0
C774 C 0.08939 0.94637 0.78256 0.0
C775 C 0.11051 0.96867 0.79517 0.0
H776 H 0.20105 0.17291 0.0411 0.0
H777 H 0.14196 0.08725 0.04032 0.0
H778 H 0.13344 0.08795 0.08215 0.0
H779 H 0.14713 0.112 0.11924 0.0
H780 H 0.2063 0.19767 0.11985 0.0
H781 H 0.21082 0.19773 0.07795 0.0
C782 C 0.18642 0.15437 0.0501 0.0
C783 C 0.17238 0.13004 0.03756 0.0
C784 C 0.18184 0.15486 0.07418 0.0
C785 C 0.15267 0.10637 0.04948 0.0
C786 C 0.14803 0.10668 0.07344 0.0
C787 C 0.16029 0.13082 0.11019 0.0
C788 C 0.1768 0.15469 0.12274 0.0
C789 C 0.16293 0.13072 0.08601 0.0
C790 C 0.19417 0.17882 0.11068 0.0
C791 C 0.19663 0.17893 0.08669 0.0
H792 H 0.30404 0.35587 0.54483 0.0
H793 H 0.41298 0.41826 0.52094 0.0
H794 H 0.43808 0.42806 0.56033 0.0
H795 H 0.42865 0.41976 0.60162 0.0
H796 H 0.31535 0.36031 0.62607 0.0
H797 H 0.29282 0.34857 0.58651 0.0
C798 C 0.33298 0.37178 0.5482 0.0
C799 C 0.35677 0.38603 0.52971 0.0
C800 C 0.34666 0.37788 0.57108 0.0
C801 C 0.39468 0.40636 0.53461 0.0
C802 C 0.40884 0.41224 0.55722 0.0
C803 C 0.39856 0.40448 0.59839 0.0
C804 C 0.37382 0.39104 0.61697 0.0
C805 C 0.38498 0.39823 0.57559 0.0
C806 C 0.33572 0.37077 0.61223 0.0
C807 C 0.32246 0.36418 0.58956 0.0
H808 H 0.71509 0.38366 0.97079 0.0
H809 H 0.6201 0.31606 0.997 0.0
H810 H 0.60421 0.29932 0.95789 0.0
H811 H 0.62082 0.30243 0.91634 0.0
H812 H 0.71198 0.37119 0.88954 0.0
H813 H 0.72566 0.38922 0.92865 0.0
C814 C 0.69078 0.36535 0.96783 0.0
C815 C 0.66905 0.35094 0.98668 0.0
C816 C 0.6812 0.35611 0.94523 0.0
C817 C 0.6371 0.32748 0.98271 0.0
C818 C 0.62814 0.31786 0.96038 0.0
C819 C 0.64328 0.32151 0.91913 0.0
C820 C 0.66572 0.33542 0.90026 0.0
C821 C 0.65044 0.3318 0.94155 0.0
C822 C 0.69434 0.36024 0.90391 0.0
C823 C 0.70233 0.37042 0.92623 0.0
H824 H 0.80899 0.1796 0.48342 0.0
H825 H 0.87296 0.09561 0.48362 0.0
H826 H 0.89973 0.10172 0.44364 0.0
H827 H 0.90802 0.13181 0.409 0.0
H828 H 0.8462 0.21632 0.40941 0.0
H829 H 0.81523 0.20911 0.4486 0.0
C830 C 0.82823 0.16252 0.4746 0.0
C831 C 0.83902 0.13722 0.48647 0.0
C832 C 0.84409 0.16633 0.45172 0.0
C833 C 0.86465 0.11541 0.47492 0.0
C834 C 0.87983 0.11885 0.45204 0.0
C835 C 0.88727 0.14848 0.41763 0.0
C836 C 0.87954 0.17458 0.40638 0.0
C837 C 0.87022 0.14434 0.44033 0.0
C838 C 0.85307 0.19615 0.41782 0.0
C839 C 0.83525 0.19202 0.4402 0.0
H840 H 0.89912 0.87517 0.98169 0.0
H841 H 0.74173 0.89498 0.96956 0.0
H842 H 0.75947 0.90202 0.9288 0.0
H843 H 0.82101 0.9061 0.89687 0.0
H844 H 0.97924 0.89114 0.91002 0.0
H845 H 0.96015 0.87925 0.95016 0.0
C846 C 0.86862 0.8813 0.97026 0.0
C847 C 0.81914 0.88467 0.97895 0.0
C848 C 0.8794 0.88642 0.94697 0.0
C849 C 0.78007 0.89181 0.96352 0.0
C850 C 0.79026 0.89615 0.94016 0.0
C851 C 0.85104 0.89999 0.90858 0.0
C852 C 0.90136 0.89938 0.90071 0.0
C853 C 0.8399 0.89397 0.93175 0.0
C854 C 0.94027 0.89173 0.91589 0.0
C855 C 0.92935 0.88496 0.93876 0.0
H856 H 0.71939 0.63494 0.47494 0.0
H857 H 0.60277 0.57838 0.50022 0.0
H858 H 0.56851 0.57326 0.46138 0.0
H859 H 0.57384 0.58317 0.4202 0.0
H860 H 0.69501 0.6363 0.39404 0.0
H861 H 0.72436 0.64511 0.43317 0.0
C862 C 0.68624 0.62173 0.47185 0.0
C863 C 0.66359 0.60698 0.49028 0.0
C864 C 0.66751 0.61832 0.44934 0.0
C865 C 0.6209 0.58975 0.48619 0.0
C866 C 0.60132 0.58685 0.46403 0.0
C867 C 0.60699 0.59647 0.42294 0.0
C868 C 0.63223 0.60882 0.404 0.0
C869 C 0.62478 0.60068 0.44543 0.0
C870 C 0.67427 0.6267 0.40815 0.0
C871 C 0.69147 0.63157 0.43058 0.0
H872 H 0.30334 0.63287 0.04387 0.0
H873 H 0.44172 0.66839 0.01609 0.0
H874 H 0.47144 0.67934 0.0548 0.0
H875 H 0.45777 0.67964 0.09646 0.0
H876 H 0.31895 0.64511 0.12451 0.0
H877 H 0.29003 0.63274 0.08585 0.0
C878 C 0.33986 0.64316 0.0463 0.0
C879 C 0.37023 0.64979 0.02709 0.0
C880 C 0.35676 0.64948 0.06866 0.0
C881 C 0.41781 0.66275 0.03057 0.0
C882 C 0.43476 0.66915 0.0527 0.0
C883 C 0.42105 0.66955 0.09412 0.0
C884 C 0.39051 0.66345 0.11337 0.0
C885 C 0.4045 0.66272 0.07185 0.0
C886 C 0.34345 0.64983 0.11003 0.0
C887 C 0.32672 0.64293 0.08791 0.0
H888 H 0.14436 0.88244 0.54374 0.0
H889 H 0.16455 0.79583 0.52128 0.0
H890 H 0.15928 0.77932 0.56075 0.0
H891 H 0.15422 0.7892 0.60176 0.0
H892 H 0.14205 0.87571 0.62524 0.0
H893 H 0.13837 0.89234 0.58537 0.0
C894 C 0.14783 0.85996 0.54744 0.0
C895 C 0.15459 0.84051 0.5293 0.0
C896 C 0.14624 0.8505 0.57045 0.0
C897 C 0.1582 0.81139 0.53461 0.0
C898 C 0.1557 0.80185 0.5573 0.0
C899 C 0.15106 0.81175 0.59823 0.0
C900 C 0.14906 0.83115 0.61656 0.0
C901 C 0.15048 0.82121 0.57534 0.0
C902 C 0.1434 0.86021 0.61154 0.0
C903 C 0.14174 0.86978 0.58871 0.0
H904 H 0.09624 0.28473 0.34167 0.0
H905 H 0.23374 0.2366 0.35029 0.0
H906 H 0.19771 0.19813 0.32735 0.0
H907 H 0.12637 0.17782 0.30516 0.0
H908 H 0.9937 0.22885 0.29318 0.0
H909 H 0.0291 0.26662 0.31687 0.0
C910 C 0.11898 0.26614 0.33829 0.0
C911 C 0.16774 0.26378 0.34794 0.0
C912 C 0.0988 0.24447 0.32446 0.0
C913 C 0.1957 0.23896 0.34362 0.0
C914 C 0.17531 0.21698 0.33028 0.0
C915 C 0.1056 0.19738 0.30745 0.0
C916 C 0.05715 0.2003 0.29764 0.0
C917 C 0.1268 0.21947 0.32065 0.0
C918 C 0.03064 0.22576 0.30088 0.0
C919 C 0.05093 0.24746 0.31436 0.0
H920 H 0.34334 0.25354 0.8668 0.0
H921 H 0.34376 0.18919 0.8141 0.0
H922 H 0.38752 0.22167 0.78794 0.0
H923 H 0.42806 0.26801 0.78033 0.0
H924 H 0.42313 0.33314 0.8322 0.0
H925 H 0.37908 0.30071 0.85834 0.0
C926 C 0.35234 0.24669 0.84951 0.0
C927 C 0.34063 0.21877 0.84262 0.0
C928 C 0.37704 0.2656 0.83439 0.0
C929 C 0.35323 0.2103 0.82014 0.0
C930 C 0.37802 0.22893 0.80506 0.0
C931 C 0.41653 0.27521 0.79719 0.0
C932 C 0.42847 0.30298 0.80419 0.0
C933 C 0.3905 0.25656 0.81206 0.0
C934 C 0.41454 0.31181 0.82637 0.0
C935 C 0.38914 0.29332 0.84133 0.0
H936 H 0.68366 0.25433 0.67106 0.0
H937 H 0.56334 0.1922 0.67906 0.0
H938 H 0.52158 0.22262 0.70677 0.0
H939 H 0.51856 0.26705 0.72881 0.0
H940 H 0.6304 0.33221 0.71605 0.0
H941 H 0.6764 0.30046 0.69029 0.0
C942 C 0.64786 0.24752 0.67845 0.0
C943 C 0.62746 0.2206 0.67305 0.0
C944 C 0.6228 0.2656 0.69383 0.0
C945 C 0.58114 0.21231 0.68325 0.0
C946 C 0.55681 0.22982 0.69904 0.0
C947 C 0.55292 0.2742 0.7203 0.0
C948 C 0.57211 0.30146 0.72471 0.0
C949 C 0.57741 0.25641 0.70455 0.0
C950 C 0.61631 0.3108 0.71355 0.0
C951 C 0.64209 0.29282 0.69857 0.0
H952 H 0.81351 0.24608 0.16879 0.0
H953 H 0.9196 0.31242 0.18805 0.0
H954 H 0.95928 0.28056 0.21533 0.0
H955 H 0.96562 0.23353 0.23348 0.0
H956 H 0.87126 0.16494 0.20918 0.0
H957 H 0.82516 0.19796 0.18414 0.0
C958 C 0.84588 0.25365 0.17851 0.0
C959 C 0.86247 0.28212 0.17635 0.0
C960 C 0.87062 0.23472 0.19345 0.0
C961 C 0.90426 0.29114 0.18966 0.0
C962 C 0.9276 0.27279 0.20522 0.0
C963 C 0.93525 0.22588 0.22251 0.0
C964 C 0.92177 0.19704 0.2229 0.0
C965 C 0.91112 0.24458 0.20727 0.0
C966 C 0.88213 0.18719 0.20892 0.0
C967 C 0.85599 0.206 0.19464 0.0
H968 H 0.81451 0.74875 0.67023 0.0
H969 H 0.94958 0.69813 0.66575 0.0
H970 H 0.99563 0.73262 0.68946 0.0
H971 H 0.99618 0.77628 0.71285 0.0
H972 H 0.86121 0.82748 0.71558 0.0
H973 H 0.81634 0.79344 0.69164 0.0
C974 C 0.85403 0.74528 0.67446 0.0
C975 C 0.87853 0.72087 0.66638 0.0
C976 C 0.88014 0.76515 0.68805 0.0
C977 C 0.92999 0.71687 0.67166 0.0
C978 C 0.95622 0.73649 0.68532 0.0
C979 C 0.95703 0.78005 0.70814 0.0
C980 C 0.93181 0.8041 0.71661 0.0
C981 C 0.93152 0.76059 0.69382 0.0
C982 C 0.88125 0.80879 0.70999 0.0
C983 C 0.85555 0.78942 0.69608 0.0
H984 H 0.689 0.74533 0.16445 0.0
H985 H 0.56156 0.80205 0.16516 0.0
H986 H 0.51506 0.76932 0.19046 0.0
H987 H 0.51279 0.72561 0.21405 0.0
H988 H 0.63904 0.66796 0.21119 0.0
H989 H 0.68447 0.70041 0.18574 0.0
C990 C 0.65101 0.75047 0.17013 0.0
C991 C 0.62882 0.77608 0.16308 0.0
C992 C 0.62457 0.73157 0.18455 0.0
C993 C 0.57929 0.78234 0.17027 0.0
C994 C 0.55285 0.76373 0.18484 0.0
C995 C 0.54974 0.71988 0.20745 0.0
C996 C 0.57249 0.69443 0.21461 0.0
C997 C 0.5753 0.73837 0.19226 0.0
C998 C 0.6209 0.68762 0.20626 0.0
C999 C 0.64686 0.70608 0.19156 0.0
H1000 H 0.35035 0.78881 0.31853 0.0
H1001 H 0.36183 0.74057 0.38155 0.0
H1002 H 0.40632 0.70299 0.36122 0.0
H1003 H 0.44094 0.68336 0.32538 0.0
H1004 H 0.42669 0.73095 0.26222 0.0
H1005 H 0.38332 0.76887 0.28269 0.0
C1006 C 0.36201 0.76996 0.32782 0.0
C1007 C 0.35269 0.76768 0.35161 0.0
C1008 C 0.38687 0.74817 0.31596 0.0
C1009 C 0.3691 0.74323 0.36335 0.0
C1010 C 0.39425 0.72157 0.35169 0.0
C1011 C 0.42836 0.70205 0.31612 0.0
C1012 C 0.43677 0.70425 0.2923 0.0
C1013 C 0.4033 0.72379 0.328 0.0
C1014 C 0.4202 0.72859 0.28053 0.0
C1015 C 0.39557 0.75034 0.29223 0.0
H1016 H 0.1412 0.75609 0.86567 0.0
H1017 H 0.16569 0.69636 0.81073 0.0
H1018 H 0.12192 0.72753 0.78386 0.0
H1019 H 0.07776 0.77199 0.77573 0.0
H1020 H 0.05269 0.83191 0.83047 0.0
H1021 H 0.09472 0.80024 0.85768 0.0
C1022 C 0.13647 0.74979 0.84788 0.0
C1023 C 0.15708 0.72404 0.8402 0.0
C1024 C 0.11109 0.76783 0.83246 0.0
C1025 C 0.15099 0.7163 0.81702 0.0
C1026 C 0.12572 0.73403 0.80165 0.0
C1027 C 0.08153 0.77813 0.79361 0.0
C1028 C 0.06242 0.80432 0.80102 0.0
C1029 C 0.10596 0.75992 0.80913 0.0
C1030 C 0.06706 0.81183 0.82431 0.0
C1031 C 0.09123 0.79378 0.83988 0.0
loop_
_geom_bond_atom_site_label_1
_geom_bond_atom_site_label_2
_geom_bond_distance
_geom_bond_site_symmetry_2
_ccdc_geom_bond_type
C0 C1 1.386 . S
C0 C2 1.397 . S
C0 H24 0.931 . S
C1 C0 1.386 . S
C1 C5 1.397 . S
C2 C0 1.397 . S
C2 C3 1.384 . S
C2 H25 0.930 . S
C3 C2 1.384 . S
C3 C4 1.377 . S
C3 C6 1.481 . S
C4 C3 1.377 . S
C4 C5 1.389 . S
C4 H26 0.929 . S
C5 C1 1.397 . S
C5 C4 1.389 . S
C5 H27 0.931 . S
C6 C3 1.481 . S
C6 C7 1.387 . S
C6 C11 1.390 . S
C7 C6 1.387 . S
C7 C8 1.401 . S
C7 H28 0.930 . S
C8 C7 1.401 . S
C8 C9 1.376 . S
C8 C17 1.511 . S
C9 C8 1.376 . S
C9 C10 1.392 . S
C9 H30 0.931 . S
C10 C9 1.392 . S
C10 C11 1.361 . S
C10 C12 1.500 . S
C11 C6 1.390 . S
C11 C10 1.361 . S
C11 H29 0.931 . S
C12 C10 1.500 . S
C12 C13 1.371 . S
C12 C14 1.365 . S
C13 C12 1.371 . S
C13 C23 1.386 . S
C13 H31 0.931 . S
C14 C12 1.365 . S
C14 C15 1.409 . S
C14 H32 0.929 . S
C15 C14 1.409 . S
C15 C16 1.380 . S
C15 H33 0.930 . S
C16 C15 1.380 . S
C16 C23 1.357 . S
C17 C8 1.511 . S
C17 C18 1.341 . S
C17 C19 1.371 . S
C18 C17 1.341 . S
C18 C22 1.394 . S
C18 H34 0.930 . S
C19 C17 1.371 . S
C19 C20 1.392 . S
C19 H35 0.931 . S
C20 C19 1.392 . S
C20 C21 1.331 . S
C20 H38 0.932 . S
C21 C20 1.331 . S
C21 C22 1.336 . S
C22 C18 1.394 . S
C22 C21 1.336 . S
C22 H37 0.929 . S
C23 C13 1.386 . S
C23 C16 1.357 . S
C23 H36 0.928 . S
H24 C0 0.931 . S
H25 C2 0.930 . S
H26 C4 0.929 . S
H27 C5 0.931 . S
H28 C7 0.930 . S
H29 C11 0.931 . S
H30 C9 0.931 . S
H31 C13 0.931 . S
H32 C14 0.929 . S
H33 C15 0.930 . S
H34 C18 0.930 . S
H35 C19 0.931 . S
H36 C23 0.928 . S
H37 C22 0.929 . S
H38 C20 0.932 . S
C39 C40 1.386 . S
C39 C41 1.397 . S
C39 H63 0.931 . S
C40 C39 1.386 . S
C40 C44 1.397 . S
C41 C39 1.397 . S
C41 C42 1.384 . S
C41 H64 0.930 . S
C42 C41 1.384 . S
C42 C43 1.377 . S
C42 C45 1.481 . S
C43 C42 1.377 . S
C43 C44 1.389 . S
C43 H65 0.929 . S
C44 C40 1.397 . S
C44 C43 1.389 . S
C44 H66 0.931 . S
C45 C42 1.481 . S
C45 C46 1.387 . S
C45 C50 1.390 . S
C46 C45 1.387 . S
C46 C47 1.401 . S
C46 H67 0.930 . S
C47 C46 1.401 . S
C47 C48 1.376 . S
C47 C56 1.511 . S
C48 C47 1.376 . S
C48 C49 1.392 . S
C48 H69 0.931 . S
C49 C48 1.392 . S
C49 C50 1.361 . S
C49 C51 1.500 . S
C50 C45 1.390 . S
C50 C49 1.361 . S
C50 H68 0.931 . S
C51 C49 1.500 . S
C51 C52 1.371 . S
C51 C53 1.365 . S
C52 C51 1.371 . S
C52 C62 1.386 . S
C52 H70 0.931 . S
C53 C51 1.365 . S
C53 C54 1.409 . S
C53 H71 0.929 . S
C54 C53 1.409 . S
C54 C55 1.380 . S
C54 H72 0.930 . S
C55 C54 1.380 . S
C55 C62 1.357 . S
C56 C47 1.511 . S
C56 C57 1.341 . S
C56 C58 1.371 . S
C57 C56 1.341 . S
C57 C61 1.394 . S
C57 H73 0.930 . S
C58 C56 1.371 . S
C58 C59 1.392 . S
C58 H74 0.931 . S
C59 C58 1.392 . S
C59 C60 1.331 . S
C59 H77 0.932 . S
C60 C59 1.331 . S
C60 C61 1.336 . S
C61 C57 1.394 . S
C61 C60 1.336 . S
C61 H76 0.929 . S
C62 C52 1.386 . S
C62 C55 1.357 . S
C62 H75 0.943 . S
H63 C39 0.931 . S
H64 C41 0.930 . S
H65 C43 0.929 . S
H66 C44 0.931 . S
H67 C46 0.930 . S
H68 C50 0.931 . S
H69 C48 0.931 . S
H70 C52 0.931 . S
H71 C53 0.929 . S
H72 C54 0.930 . S
H73 C57 0.930 . S
H74 C58 0.931 . S
H75 C62 0.943 . S
H76 C61 0.929 . S
H77 C59 0.932 . S
C78 C79 1.386 . S
C78 C80 1.397 . S
C78 H102 0.931 . S
C79 C78 1.386 . S
C79 C83 1.397 . S
C80 C78 1.397 . S
C80 C81 1.384 . S
C80 H103 0.930 . S
C81 C80 1.384 . S
C81 C82 1.377 . S
C81 C84 1.481 . S
C82 C81 1.377 . S
C82 C83 1.389 . S
C82 H104 0.929 . S
C83 C79 1.397 . S
C83 C82 1.389 . S
C83 H105 0.931 . S
C84 C81 1.481 . S
C84 C85 1.387 . S
C84 C89 1.390 . S
C85 C84 1.387 . S
C85 C86 1.401 . S
C85 H106 0.930 . S
C86 C85 1.401 . S
C86 C87 1.376 . S
C86 C95 1.511 . S
C87 C86 1.376 . S
C87 C88 1.392 . S
C87 H108 0.931 . S
C88 C87 1.392 . S
C88 C89 1.361 . S
C88 C90 1.500 . S
C89 C84 1.390 . S
C89 C88 1.361 . S
C89 H107 0.931 . S
C90 C88 1.500 . S
C90 C91 1.371 . S
C90 C92 1.365 . S
C91 C90 1.371 . S
C91 C101 1.386 . S
C91 H109 0.931 . S
C92 C90 1.365 . S
C92 C93 1.409 . S
C92 H110 0.929 . S
C93 C92 1.409 . S
C93 C94 1.380 . S
C93 H111 0.930 . S
C94 C93 1.380 . S
C94 C101 1.357 . S
C95 C86 1.511 . S
C95 C96 1.341 . S
C95 C97 1.371 . S
C96 C95 1.341 . S
C96 C100 1.394 . S
C96 H112 0.930 . S
C97 C95 1.371 . S
C97 C98 1.392 . S
C97 H113 0.931 . S
C98 C97 1.392 . S
C98 C99 1.331 . S
C98 H116 0.932 . S
C99 C98 1.331 . S
C99 C100 1.336 . S
C100 C96 1.394 . S
C100 C99 1.336 . S
C100 H115 0.929 . S
C101 C91 1.386 . S
C101 C94 1.357 . S
C101 H114 0.928 . S
H102 C78 0.931 . S
H103 C80 0.930 . S
H104 C82 0.929 . S
H105 C83 0.931 . S
H106 C85 0.930 . S
H107 C89 0.931 . S
H108 C87 0.931 . S
H109 C91 0.931 . S
H110 C92 0.929 . S
H111 C93 0.930 . S
H112 C96 0.930 . S
H113 C97 0.931 . S
H114 C101 0.928 . S
H115 C100 0.929 . S
H116 C98 0.932 . S
C117 C118 1.386 . S
C117 C119 1.397 . S
C117 H141 0.931 . S
C118 C117 1.386 . S
C118 C122 1.397 . S
C119 C117 1.397 . S
C119 C120 1.384 . S
C119 H142 0.930 . S
C120 C119 1.384 . S
C120 C121 1.377 . S
C120 C123 1.481 . S
C121 C120 1.377 . S
C121 C122 1.389 . S
C121 H143 0.929 . S
C122 C118 1.397 . S
C122 C121 1.389 . S
C122 H144 0.931 . S
C123 C120 1.481 . S
C123 C124 1.387 . S
C123 C128 1.390 . S
C124 C123 1.387 . S
C124 C125 1.401 . S
C124 H145 0.930 . S
C125 C124 1.401 . S
C125 C126 1.376 . S
C125 C134 1.511 . S
C126 C125 1.376 . S
C126 C127 1.392 . S
C126 H147 0.931 . S
C127 C126 1.392 . S
C127 C128 1.361 . S
C127 C129 1.500 . S
C128 C123 1.390 . S
C128 C127 1.361 . S
C128 H146 0.931 . S
C129 C127 1.500 . S
C129 C130 1.371 . S
C129 C131 1.365 . S
C130 C129 1.371 . S
C130 C140 1.386 . S
C130 H148 0.931 . S
C131 C129 1.365 . S
C131 C132 1.409 . S
C131 H149 0.929 . S
C132 C131 1.409 . S
C132 C133 1.380 . S
C132 H150 0.930 . S
C133 C132 1.380 . S
C133 C140 1.357 . S
C134 C125 1.511 . S
C134 C135 1.341 . S
C134 C136 1.371 . S
C135 C134 1.341 . S
C135 C139 1.394 . S
C135 H151 0.930 . S
C136 C134 1.371 . S
C136 C137 1.392 . S
C136 H152 0.931 . S
C137 C136 1.392 . S
C137 C138 1.331 . S
C137 H155 0.932 . S
C138 C137 1.331 . S
C138 C139 1.336 . S
C139 C135 1.394 . S
C139 C138 1.336 . S
C139 H154 0.929 . S
C140 C130 1.386 . S
C140 C133 1.357 . S
C140 H153 0.928 . S
H141 C117 0.931 . S
H142 C119 0.930 . S
H143 C121 0.929 . S
H144 C122 0.931 . S
H145 C124 0.930 . S
H146 C128 0.931 . S
H147 C126 0.931 . S
H148 C130 0.931 . S
H149 C131 0.929 . S
H150 C132 0.930 . S
H151 C135 0.930 . S
H152 C136 0.931 . S
H153 C140 0.928 . S
H154 C139 0.929 . S
H155 C137 0.932 . S
C156 C157 1.386 . S
C156 C158 1.397 . S
C156 H180 0.931 . S
C157 C156 1.386 . S
C157 C161 1.397 . S
C158 C156 1.397 . S
C158 C159 1.384 . S
C158 H181 0.930 . S
C159 C158 1.384 . S
C159 C160 1.377 . S
C159 C162 1.481 . S
C160 C159 1.377 . S
C160 C161 1.389 . S
C160 H182 0.929 . S
C161 C157 1.397 . S
C161 C160 1.389 . S
C161 H183 0.931 . S
C162 C159 1.481 . S
C162 C163 1.387 . S
C162 C167 1.390 . S
C163 C162 1.387 . S
C163 C164 1.401 . S
C163 H184 0.930 . S
C164 C163 1.401 . S
C164 C165 1.376 . S
C164 C173 1.511 . S
C165 C164 1.376 . S
C165 C166 1.392 . S
C165 H186 0.931 . S
C166 C165 1.392 . S
C166 C167 1.361 . S
C166 C168 1.500 . S
C167 C162 1.390 . S
C167 C166 1.361 . S
C167 H185 0.931 . S
C168 C166 1.500 . S
C168 C169 1.371 . S
C168 C170 1.365 . S
C169 C168 1.371 . S
C169 C179 1.386 . S
C169 H187 0.931 . S
C170 C168 1.365 . S
C170 C171 1.409 . S
C170 H188 0.929 . S
C171 C170 1.409 . S
C171 C172 1.380 . S
C171 H189 0.930 . S
C172 C171 1.380 . S
C172 C179 1.357 . S
C173 C164 1.511 . S
C173 C174 1.341 . S
C173 C175 1.371 . S
C174 C173 1.341 . S
C174 C178 1.394 . S
C174 H190 0.930 . S
C175 C173 1.371 . S
C175 C176 1.392 . S
C175 H191 0.931 . S
C176 C175 1.392 . S
C176 C177 1.331 . S
C176 H194 0.932 . S
C177 C176 1.331 . S
C177 C178 1.336 . S
C178 C174 1.394 . S
C178 C177 1.336 . S
C178 H193 0.929 . S
C179 C169 1.386 . S
C179 C172 1.357 . S
C179 H192 0.928 . S
H180 C156 0.931 . S
H181 C158 0.930 . S
H182 C160 0.929 . S
H183 C161 0.931 . S
H184 C163 0.930 . S
H185 C167 0.931 . S
H186 C165 0.931 . S
H187 C169 0.931 . S
H188 C170 0.929 . S
H189 C171 0.930 . S
H190 C174 0.930 . S
H191 C175 0.931 . S
H192 C179 0.928 . S
H193 C178 0.929 . S
H194 C176 0.932 . S
C195 C196 1.386 . S
C195 C197 1.397 . S
C195 H219 0.934 1_554 S
C196 C195 1.386 . S
C196 C200 1.397 . S
C197 C195 1.397 . S
C197 C198 1.384 . S
C197 H220 0.930 . S
C198 C197 1.384 . S
C198 C199 1.377 . S
C198 C201 1.481 . S
C199 C198 1.377 . S
C199 C200 1.389 . S
C199 H221 0.929 . S
C200 C196 1.397 . S
C200 C199 1.389 . S
C200 H222 0.931 . S
C201 C198 1.481 . S
C201 C202 1.387 . S
C201 C206 1.390 . S
C202 C201 1.387 . S
C202 C203 1.401 . S
C202 H223 0.930 . S
C203 C202 1.401 . S
C203 C204 1.376 . S
C203 C212 1.511 . S
C204 C203 1.376 . S
C204 C205 1.392 . S
C204 H225 0.931 . S
C205 C204 1.392 . S
C205 C206 1.361 . S
C205 C207 1.500 . S
C206 C201 1.390 . S
C206 C205 1.361 . S
C206 H224 0.931 . S
C207 C205 1.500 . S
C207 C208 1.371 . S
C207 C209 1.365 . S
C208 C207 1.371 . S
C208 C218 1.386 . S
C208 H226 0.931 . S
C209 C207 1.365 . S
C209 C210 1.409 . S
C209 H227 0.929 . S
C210 C209 1.409 . S
C210 C211 1.380 . S
C210 H228 0.930 . S
C211 C210 1.380 . S
C211 C218 1.357 . S
C212 C203 1.511 . S
C212 C213 1.341 . S
C212 C214 1.371 . S
C213 C212 1.341 . S
C213 C217 1.394 . S
C213 H229 0.930 . S
C214 C212 1.371 . S
C214 C215 1.392 . S
C214 H230 0.931 . S
C215 C214 1.392 . S
C215 C216 1.331 . S
C215 H233 0.932 . S
C216 C215 1.331 . S
C216 C217 1.336 . S
C217 C213 1.394 . S
C217 C216 1.336 . S
C217 H232 0.929 . S
C218 C208 1.386 . S
C218 C211 1.357 . S
C218 H231 0.928 . S
H219 C195 0.934 1_556 S
H220 C197 0.930 . S
H221 C199 0.929 . S
H222 C200 0.931 . S
H223 C202 0.930 . S
H224 C206 0.931 . S
H225 C204 0.931 . S
H226 C208 0.931 . S
H227 C209 0.929 . S
H228 C210 0.930 . S
H229 C213 0.930 . S
H230 C214 0.931 . S
H231 C218 0.928 . S
H232 C217 0.929 . S
H233 C215 0.932 . S
C234 C235 1.386 . S
C234 C236 1.397 . S
C234 H258 0.931 . S
C235 C234 1.386 . S
C235 C239 1.397 . S
C236 C234 1.397 . S
C236 C237 1.384 . S
C236 H259 0.930 . S
C237 C236 1.384 . S
C237 C238 1.377 . S
C237 C240 1.481 . S
C238 C237 1.377 . S
C238 C239 1.389 . S
C238 H260 0.929 . S
C239 C235 1.397 . S
C239 C238 1.389 . S
C239 H261 0.952 . S
C240 C237 1.481 . S
C240 C241 1.387 . S
C240 C245 1.390 . S
C241 C240 1.387 . S
C241 C242 1.401 . S
C241 H262 0.930 . S
C242 C241 1.401 . S
C242 C243 1.376 . S
C242 C251 1.511 . S
C243 C242 1.376 . S
C243 C244 1.392 . S
C243 H264 0.931 . S
C244 C243 1.392 . S
C244 C245 1.361 . S
C244 C246 1.500 . S
C245 C240 1.390 . S
C245 C244 1.361 . S
C245 H263 0.931 . S
C246 C244 1.500 . S
C246 C247 1.371 . S
C246 C248 1.365 . S
C247 C246 1.371 . S
C247 C257 1.386 . S
C247 H265 0.931 . S
C248 C246 1.365 . S
C248 C249 1.409 . S
C248 H266 0.929 . S
C249 C248 1.409 . S
C249 C250 1.380 . S
C249 H267 0.930 . S
C250 C249 1.380 . S
C250 C257 1.357 . S
C251 C242 1.511 . S
C251 C252 1.341 . S
C251 C253 1.371 . S
C252 C251 1.341 . S
C252 C256 1.394 . S
C252 H268 0.930 . S
C253 C251 1.371 . S
C253 C254 1.392 . S
C253 H269 0.931 . S
C254 C253 1.392 . S
C254 C255 1.331 . S
C254 H272 0.932 . S
C255 C254 1.331 . S
C255 C256 1.336 . S
C256 C252 1.394 . S
C256 C255 1.336 . S
C256 H271 0.929 . S
C257 C247 1.386 . S
C257 C250 1.357 . S
C257 H270 0.928 . S
H258 C234 0.931 . S
H259 C236 0.930 . S
H260 C238 0.929 . S
H261 C239 0.952 . S
H262 C241 0.930 . S
H263 C245 0.931 . S
H264 C243 0.931 . S
H265 C247 0.931 . S
H266 C248 0.929 . S
H267 C249 0.930 . S
H268 C252 0.930 . S
H269 C253 0.931 . S
H270 C257 0.928 . S
H271 C256 0.929 . S
H272 C254 0.932 . S
C273 C274 1.386 . S
C273 C275 1.397 . S
C273 H297 0.931 . S
C274 C273 1.386 . S
C274 C278 1.397 . S
C275 C273 1.397 . S
C275 C276 1.384 . S
C275 H298 0.930 . S
C276 C275 1.384 . S
C276 C277 1.377 . S
C276 C279 1.481 . S
C277 C276 1.377 . S
C277 C278 1.389 . S
C277 H299 0.929 . S
C278 C274 1.397 . S
C278 C277 1.389 . S
C278 H300 0.931 . S
C279 C276 1.481 . S
C279 C280 1.387 . S
C279 C284 1.390 . S
C280 C279 1.387 . S
C280 C281 1.401 . S
C280 H301 0.930 . S
C281 C280 1.401 . S
C281 C282 1.376 . S
C281 C290 1.511 . S
C282 C281 1.376 . S
C282 C283 1.392 . S
C282 H303 0.931 . S
C283 C282 1.392 . S
C283 C284 1.361 . S
C283 C285 1.500 . S
C284 C279 1.390 . S
C284 C283 1.361 . S
C284 H302 0.931 . S
C285 C283 1.500 . S
C285 C286 1.371 . S
C285 C287 1.365 . S
C286 C285 1.371 . S
C286 C296 1.386 . S
C286 H304 0.931 . S
C287 C285 1.365 . S
C287 C288 1.409 . S
C287 H305 0.929 . S
C288 C287 1.409 . S
C288 C289 1.380 . S
C288 H306 0.930 . S
C289 C288 1.380 . S
C289 C296 1.357 . S
C290 C281 1.511 . S
C290 C291 1.341 . S
C290 C292 1.371 . S
C291 C290 1.341 . S
C291 C295 1.394 . S
C291 H307 0.930 . S
C292 C290 1.371 . S
C292 C293 1.392 . S
C292 H308 0.931 . S
C293 C292 1.392 . S
C293 C294 1.331 . S
C293 H311 0.932 . S
C294 C293 1.331 . S
C294 C295 1.336 . S
C295 C291 1.394 . S
C295 C294 1.336 . S
C295 H310 0.929 . S
C296 C286 1.386 . S
C296 C289 1.357 . S
C296 H309 0.928 . S
H297 C273 0.931 . S
H298 C275 0.930 . S
H299 C277 0.929 . S
H300 C278 0.931 . S
H301 C280 0.930 . S
H302 C284 0.931 . S
H303 C282 0.931 . S
H304 C286 0.931 . S
H305 C287 0.929 . S
H306 C288 0.930 . S
H307 C291 0.930 . S
H308 C292 0.931 . S
H309 C296 0.928 . S
H310 C295 0.929 . S
H311 C293 0.932 . S
Eu312 N341 2.600 . S
Eu312 N347 2.562 . S
Eu312 O356 2.462 . S
Eu312 O357 2.373 . S
Eu312 O359 2.432 . S
Eu312 O360 2.291 . S
Eu312 O364 2.335 . S
Eu312 O367 2.372 . S
Eu312 C376 2.787 . S
C313 N314 1.365 . S
C313 C316 1.405 . S
C313 C320 1.448 . S
N314 C313 1.365 . S
N314 C317 1.319 . S
N314 Eu323 2.600 . S
C315 C317 1.397 . S
C315 C318 1.367 . S
C315 H335 0.931 . S
C316 C313 1.405 . S
C316 C318 1.403 . S
C316 C322 1.439 . S
C317 N314 1.319 . S
C317 C315 1.397 . S
C317 H328 0.930 . S
C318 C315 1.367 . S
C318 C316 1.403 . S
C318 H339 0.929 . S
C319 C320 1.430 . S
C319 C321 1.387 . S
C319 C325 1.404 . S
C320 C313 1.448 . S
C320 C319 1.430 . S
C320 N324 1.351 . S
C321 C319 1.387 . S
C321 C322 1.374 . S
C321 H336 0.931 . S
C322 C316 1.439 . S
C322 C321 1.374 . S
C322 H337 0.931 . S
Eu323 N314 2.600 . S
Eu323 N324 2.562 . S
Eu323 O358 2.324 1_655 S
Eu323 O361 2.372 . S
Eu323 O362 2.462 . S
Eu323 O363 2.373 . S
Eu323 O365 2.432 . S
Eu323 O366 2.291 1_655 S
Eu323 C387 2.787 . S
N324 C320 1.351 . S
N324 Eu323 2.562 . S
N324 C326 1.325 . S
C325 C319 1.404 . S
C325 C327 1.366 . S
C325 H333 0.930 . S
C326 N324 1.325 . S
C326 C327 1.416 . S
C326 H332 0.929 . S
C327 C325 1.366 . S
C327 C326 1.416 . S
C327 H329 0.930 . S
H328 C317 0.930 . S
H329 C327 0.930 . S
H330 C345 0.930 . S
H331 C352 0.930 . S
H332 C326 0.929 . S
H333 C325 0.930 . S
H334 C348 0.929 . S
H335 C315 0.931 . S
H336 C321 0.931 . S
H337 C322 0.931 . S
H338 C343 0.931 . S
H339 C318 0.929 . S
H340 C351 0.930 . S
N341 Eu312 2.600 . S
N341 C342 1.365 . S
N341 C345 1.319 . S
C342 N341 1.365 . S
C342 C344 1.405 . S
C342 C350 1.448 . S
C343 H338 0.931 . S
C343 C345 1.397 . S
C343 C346 1.367 . S
C344 C342 1.405 . S
C344 C346 1.403 . S
C344 C377 1.439 . S
C345 H330 0.930 . S
C345 N341 1.319 . S
C345 C343 1.397 . S
C346 C343 1.367 . S
C346 C344 1.403 . S
C346 H353 0.929 . S
N347 Eu312 2.562 . S
N347 C348 1.325 . S
N347 C350 1.351 . S
C348 H334 0.929 . S
C348 N347 1.325 . S
C348 C352 1.416 . S
C349 C350 1.430 . S
C349 C351 1.404 . S
C349 C378 1.387 . S
C350 C342 1.448 . S
C350 N347 1.351 . S
C350 C349 1.430 . S
C351 H340 0.930 . S
C351 C349 1.404 . S
C351 C352 1.366 . S
C352 H331 0.930 . S
C352 C348 1.416 . S
C352 C351 1.366 . S
H353 C346 0.929 . S
H354 C377 0.931 . S
H355 C378 0.931 . S
O356 Eu312 2.462 . S
O356 C376 1.252 . S
O357 Eu312 2.373 . S
O357 C368 1.249 . S
O358 Eu323 2.324 1_455 S
O358 C368 1.278 . S
O359 Eu312 2.432 . S
O359 C376 1.268 . S
O360 Eu312 2.291 . S
O360 C375 1.255 1_455 S
O361 Eu323 2.372 . S
O361 C375 1.257 . S
O362 Eu323 2.462 . S
O362 C387 1.252 . S
O363 Eu323 2.373 . S
O363 C379 1.249 . S
O364 Eu312 2.335 . S
O364 C379 1.264 1_455 S
O365 Eu323 2.432 . S
O365 C387 1.268 . S
O366 Eu323 2.291 1_455 S
O366 C386 1.255 . S
O367 Eu312 2.372 . S
O367 C386 1.257 . S
C368 O357 1.249 . S
C368 O358 1.278 . S
C369 C372 1.382 . S
C369 C374 1.390 . S
C369 C376 1.506 . S
C370 C371 1.398 . S
C370 C374 1.392 . S
C371 C370 1.398 . S
C371 C373 1.372 . S
C371 H388 0.931 . S
C372 C369 1.382 . S
C372 C373 1.390 . S
C372 H389 0.931 . S
C373 C371 1.372 . S
C373 C372 1.390 . S
C373 H390 0.929 . S
C374 C369 1.390 . S
C374 C370 1.392 . S
C374 H391 0.930 . S
C375 O360 1.255 1_655 S
C375 O361 1.257 . S
C376 Eu312 2.787 . S
C376 O356 1.252 . S
C376 O359 1.268 . S
C376 C369 1.506 . S
C377 C344 1.439 . S
C377 H354 0.931 . S
C377 C378 1.374 . S
C378 C349 1.387 . S
C378 H355 0.931 . S
C378 C377 1.374 . S
C379 O363 1.249 . S
C379 O364 1.264 1_655 S
C380 C383 1.382 . S
C380 C384 1.390 . S
C380 C387 1.506 . S
C381 C382 1.398 . S
C381 C384 1.392 . S
C382 C381 1.398 . S
C382 C385 1.372 . S
C382 H392 0.931 . S
C383 C380 1.382 . S
C383 C385 1.390 . S
C383 H393 0.931 . S
C384 C380 1.390 . S
C384 C381 1.392 . S
C384 H394 0.930 . S
C385 C382 1.372 . S
C385 C383 1.390 . S
C385 H395 0.929 . S
C386 O366 1.255 . S
C386 O367 1.257 . S
C387 Eu323 2.787 . S
C387 O362 1.252 . S
C387 O365 1.268 . S
C387 C380 1.506 . S
H388 C371 0.931 . S
H389 C372 0.931 . S
H390 C373 0.929 . S
H391 C374 0.930 . S
H392 C382 0.931 . S
H393 C383 0.931 . S
H394 C384 0.930 . S
H395 C385 0.929 . S
Eu396 N425 2.600 . S
Eu396 N431 2.562 . S
Eu396 O440 2.462 . S
Eu396 O441 2.373 . S
Eu396 O443 2.432 . S
Eu396 O444 2.291 . S
Eu396 O448 2.335 . S
Eu396 O451 2.372 . S
Eu396 C460 2.787 . S
C397 N398 1.365 . S
C397 C400 1.405 . S
C397 C404 1.448 . S
N398 C397 1.365 . S
N398 C401 1.319 . S
N398 Eu407 2.600 . S
C399 C401 1.397 . S
C399 C402 1.367 . S
C399 H419 0.931 . S
C400 C397 1.405 . S
C400 C402 1.403 . S
C400 C406 1.439 . S
C401 N398 1.319 . S
C401 C399 1.397 . S
C401 H412 0.930 . S
C402 C399 1.367 . S
C402 C400 1.403 . S
C402 H423 0.929 . S
C403 C404 1.430 . S
C403 C405 1.387 . S
C403 C409 1.404 . S
C404 C397 1.448 . S
C404 C403 1.430 . S
C404 N408 1.351 . S
C405 C403 1.387 . S
C405 C406 1.374 . S
C405 H420 0.931 . S
C406 C400 1.439 . S
C406 C405 1.374 . S
C406 H421 0.931 . S
Eu407 N398 2.600 . S
Eu407 N408 2.562 . S
Eu407 O442 2.335 . S
Eu407 O445 2.372 . S
Eu407 O446 2.462 . S
Eu407 O447 2.373 . S
Eu407 O449 2.432 . S
Eu407 O450 2.291 . S
Eu407 C471 2.787 . S
N408 C404 1.351 . S
N408 Eu407 2.562 . S
N408 C410 1.325 . S
C409 C403 1.404 . S
C409 C411 1.366 . S
C409 H417 0.930 . S
C410 N408 1.325 . S
C410 C411 1.416 . S
C410 H416 0.929 . S
C411 C409 1.366 . S
C411 C410 1.416 . S
C411 H413 0.930 . S
H412 C401 0.930 . S
H413 C411 0.930 . S
H414 C429 0.930 . S
H415 C436 0.930 . S
H416 C410 0.929 . S
H417 C409 0.930 . S
H418 C432 0.929 . S
H419 C399 0.931 . S
H420 C405 0.931 . S
H421 C406 0.931 . S
H422 C427 0.931 . S
H423 C402 0.929 . S
H424 C435 0.930 . S
N425 Eu396 2.600 . S
N425 C426 1.365 . S
N425 C429 1.319 . S
C426 N425 1.365 . S
C426 C428 1.405 . S
C426 C434 1.448 . S
C427 H422 0.931 . S
C427 C429 1.397 . S
C427 C430 1.367 . S
C428 C426 1.405 . S
C428 C430 1.403 . S
C428 C461 1.439 . S
C429 H414 0.930 . S
C429 N425 1.319 . S
C429 C427 1.397 . S
C430 C427 1.367 . S
C430 C428 1.403 . S
C430 H437 0.929 . S
N431 Eu396 2.562 . S
N431 C432 1.325 . S
N431 C434 1.351 . S
C432 H418 0.929 . S
C432 N431 1.325 . S
C432 C436 1.416 . S
C433 C434 1.430 . S
C433 C435 1.404 . S
C433 C462 1.387 . S
C434 C426 1.448 . S
C434 N431 1.351 . S
C434 C433 1.430 . S
C435 H424 0.930 . S
C435 C433 1.404 . S
C435 C436 1.366 . S
C436 H415 0.930 . S
C436 C432 1.416 . S
C436 C435 1.366 . S
H437 C430 0.929 . S
H438 C461 0.931 . S
H439 C462 0.931 . S
O440 Eu396 2.462 . S
O440 C460 1.252 . S
O441 Eu396 2.373 . S
O441 C452 1.249 . S
O442 Eu407 2.335 . S
O442 C452 1.264 . S
O443 Eu396 2.432 . S
O443 C460 1.268 . S
O444 Eu396 2.291 . S
O444 C459 1.255 . S
O445 Eu407 2.372 . S
O445 C459 1.257 . S
O446 Eu407 2.462 . S
O446 C471 1.252 . S
O447 Eu407 2.373 . S
O447 C463 1.249 . S
O448 Eu396 2.335 . S
O448 C463 1.264 . S
O449 Eu407 2.432 . S
O449 C471 1.268 . S
O450 Eu407 2.291 . S
O450 C470 1.255 . S
O451 Eu396 2.372 . S
O451 C470 1.257 . S
C452 O441 1.249 . S
C452 O442 1.264 . S
C453 C456 1.382 . S
C453 C458 1.390 . S
C453 C460 1.506 . S
C454 C455 1.398 . S
C454 C458 1.392 . S
C455 C454 1.398 . S
C455 C457 1.372 . S
C455 H472 0.931 . S
C456 C453 1.382 . S
C456 C457 1.390 . S
C456 H473 0.931 . S
C457 C455 1.372 . S
C457 C456 1.390 . S
C457 H474 0.929 . S
C458 C453 1.390 . S
C458 C454 1.392 . S
C458 H475 0.930 . S
C459 O444 1.255 . S
C459 O445 1.257 . S
C460 Eu396 2.787 . S
C460 O440 1.252 . S
C460 O443 1.268 . S
C460 C453 1.506 . S
C461 C428 1.439 . S
C461 H438 0.931 . S
C461 C462 1.374 . S
C462 C433 1.387 . S
C462 H439 0.931 . S
C462 C461 1.374 . S
C463 O447 1.249 . S
C463 O448 1.264 . S
C464 C467 1.382 . S
C464 C468 1.390 . S
C464 C471 1.506 . S
C465 C466 1.398 . S
C465 C468 1.392 . S
C466 C465 1.398 . S
C466 C469 1.372 . S
C466 H476 0.931 . S
C467 C464 1.382 . S
C467 C469 1.390 . S
C467 H477 0.931 . S
C468 C464 1.390 . S
C468 C465 1.392 . S
C468 H478 0.930 . S
C469 C466 1.372 . S
C469 C467 1.390 . S
C469 H479 0.929 . S
C470 O450 1.255 . S
C470 O451 1.257 . S
C471 Eu407 2.787 . S
C471 O446 1.252 . S
C471 O449 1.268 . S
C471 C464 1.506 . S
H472 C455 0.931 . S
H473 C456 0.931 . S
H474 C457 0.929 . S
H475 C458 0.930 . S
H476 C466 0.931 . S
H477 C467 0.931 . S
H478 C468 0.930 . S
H479 C469 0.929 . S
Eu480 N509 2.600 . S
Eu480 N515 2.562 . S
Eu480 O524 2.462 . S
Eu480 O525 2.373 . S
Eu480 O527 2.432 . S
Eu480 O528 2.291 . S
Eu480 O532 2.335 . S
Eu480 O535 2.372 . S
Eu480 C544 2.787 . S
C481 N482 1.365 . S
C481 C484 1.405 . S
C481 C488 1.448 . S
N482 C481 1.365 . S
N482 C485 1.319 . S
N482 Eu491 2.600 . S
C483 C485 1.397 . S
C483 C486 1.367 . S
C483 H503 0.931 . S
C484 C481 1.405 . S
C484 C486 1.403 . S
C484 C490 1.439 . S
C485 N482 1.319 . S
C485 C483 1.397 . S
C485 H496 0.930 . S
C486 C483 1.367 . S
C486 C484 1.403 . S
C486 H507 0.929 . S
C487 C488 1.430 . S
C487 C489 1.387 . S
C487 C493 1.404 . S
C488 C481 1.448 . S
C488 C487 1.430 . S
C488 N492 1.351 . S
C489 C487 1.387 . S
C489 C490 1.374 . S
C489 H504 0.931 . S
C490 C484 1.439 . S
C490 C489 1.374 . S
C490 H505 0.931 . S
Eu491 N482 2.600 . S
Eu491 N492 2.562 . S
Eu491 O526 2.335 1_655 S
Eu491 O529 2.372 . S
Eu491 O530 2.462 . S
Eu491 O531 2.373 . S
Eu491 O533 2.432 . S
Eu491 O534 2.291 1_655 S
Eu491 C555 2.787 . S
N492 C488 1.351 . S
N492 Eu491 2.562 . S
N492 C494 1.325 . S
C493 C487 1.404 . S
C493 C495 1.366 . S
C493 H501 0.930 . S
C494 N492 1.325 . S
C494 C495 1.416 . S
C494 H500 0.929 . S
C495 C493 1.366 . S
C495 C494 1.416 . S
C495 H497 0.930 . S
H496 C485 0.930 . S
H497 C495 0.930 . S
H498 C513 0.930 . S
H499 C520 0.930 . S
H500 C494 0.929 . S
H501 C493 0.930 . S
H502 C516 0.929 . S
H503 C483 0.931 . S
H504 C489 0.931 . S
H505 C490 0.931 . S
H506 C511 0.931 . S
H507 C486 0.929 . S
H508 C519 0.930 . S
N509 Eu480 2.600 . S
N509 C510 1.365 . S
N509 C513 1.319 . S
C510 N509 1.365 . S
C510 C512 1.405 . S
C510 C518 1.448 . S
C511 H506 0.931 . S
C511 C513 1.397 . S
C511 C514 1.367 . S
C512 C510 1.405 . S
C512 C514 1.403 . S
C512 C545 1.439 . S
C513 H498 0.930 . S
C513 N509 1.319 . S
C513 C511 1.397 . S
C514 C511 1.367 . S
C514 C512 1.403 . S
C514 H521 0.929 . S
N515 Eu480 2.562 . S
N515 C516 1.325 . S
N515 C518 1.351 . S
C516 H502 0.929 . S
C516 N515 1.325 . S
C516 C520 1.416 . S
C517 C518 1.430 . S
C517 C519 1.404 . S
C517 C546 1.387 . S
C518 C510 1.448 . S
C518 N515 1.351 . S
C518 C517 1.430 . S
C519 H508 0.930 . S
C519 C517 1.404 . S
C519 C520 1.366 . S
C520 H499 0.930 . S
C520 C516 1.416 . S
C520 C519 1.366 . S
H521 C514 0.929 . S
H522 C545 0.931 . S
H523 C546 0.931 . S
O524 Eu480 2.462 . S
O524 C544 1.252 . S
O525 Eu480 2.373 . S
O525 C536 1.249 . S
O526 Eu491 2.335 1_455 S
O526 C536 1.264 . S
O527 Eu480 2.432 . S
O527 C544 1.268 . S
O528 Eu480 2.291 . S
O528 C543 1.255 1_455 S
O529 Eu491 2.372 . S
O529 C543 1.257 . S
O530 Eu491 2.462 . S
O530 C555 1.252 . S
O531 Eu491 2.373 . S
O531 C547 1.249 . S
O532 Eu480 2.335 . S
O532 C547 1.264 1_455 S
O533 Eu491 2.432 . S
O533 C555 1.268 . S
O534 Eu491 2.291 1_455 S
O534 C554 1.255 . S
O535 Eu480 2.372 . S
O535 C554 1.257 . S
C536 O525 1.249 . S
C536 O526 1.264 . S
C537 C540 1.382 . S
C537 C542 1.390 . S
C537 C544 1.506 . S
C538 C539 1.398 . S
C538 C542 1.392 . S
C539 C538 1.398 . S
C539 C541 1.372 . S
C539 H556 0.931 . S
C540 C537 1.382 . S
C540 C541 1.390 . S
C540 H557 0.931 . S
C541 C539 1.372 . S
C541 C540 1.390 . S
C541 H558 0.929 . S
C542 C537 1.390 . S
C542 C538 1.392 . S
C542 H559 0.930 . S
C543 O528 1.255 1_655 S
C543 O529 1.257 . S
C544 Eu480 2.787 . S
C544 O524 1.252 . S
C544 O527 1.268 . S
C544 C537 1.506 . S
C545 C512 1.439 . S
C545 H522 0.931 . S
C545 C546 1.374 . S
C546 C517 1.387 . S
C546 H523 0.931 . S
C546 C545 1.374 . S
C547 O531 1.249 . S
C547 O532 1.264 1_655 S
C548 C551 1.382 . S
C548 C552 1.390 . S
C548 C555 1.506 . S
C549 C550 1.398 . S
C549 C552 1.392 . S
C550 C549 1.398 . S
C550 C553 1.372 . S
C550 H560 0.931 . S
C551 C548 1.382 . S
C551 C553 1.390 . S
C551 H561 0.931 . S
C552 C548 1.390 . S
C552 C549 1.392 . S
C552 H562 0.930 . S
C553 C550 1.372 . S
C553 C551 1.390 . S
C553 H563 0.929 . S
C554 O534 1.255 . S
C554 O535 1.257 . S
C555 Eu491 2.787 . S
C555 O530 1.252 . S
C555 O533 1.268 . S
C555 C548 1.506 . S
H556 C539 0.931 . S
H557 C540 0.931 . S
H558 C541 0.929 . S
H559 C542 0.930 . S
H560 C550 0.931 . S
H561 C551 0.931 . S
H562 C552 0.930 . S
H563 C553 0.929 . S
Eu564 N593 2.600 . S
Eu564 N599 2.562 . S
Eu564 O608 2.462 . S
Eu564 O609 2.373 . S
Eu564 O611 2.432 . S
Eu564 O612 2.291 . S
Eu564 O616 2.335 . S
Eu564 O619 2.372 . S
Eu564 C628 2.787 . S
C565 N566 1.365 . S
C565 C568 1.405 . S
C565 C572 1.448 . S
N566 C565 1.365 . S
N566 C569 1.319 . S
N566 Eu575 2.600 . S
C567 C569 1.397 . S
C567 C570 1.367 . S
C567 H587 0.931 . S
C568 C565 1.405 . S
C568 C570 1.403 . S
C568 C574 1.439 . S
C569 N566 1.319 . S
C569 C567 1.397 . S
C569 H580 0.930 . S
C570 C567 1.367 . S
C570 C568 1.403 . S
C570 H591 0.929 . S
C571 C572 1.430 . S
C571 C573 1.387 . S
C571 C577 1.404 . S
C572 C565 1.448 . S
C572 C571 1.430 . S
C572 N576 1.351 . S
C573 C571 1.387 . S
C573 C574 1.374 . S
C573 H588 0.931 . S
C574 C568 1.439 . S
C574 C573 1.374 . S
C574 H589 0.931 . S
Eu575 N566 2.600 . S
Eu575 N576 2.562 . S
Eu575 O610 2.335 . S
Eu575 O613 2.372 . S
Eu575 O614 2.462 . S
Eu575 O615 2.373 . S
Eu575 O617 2.432 . S
Eu575 O618 2.291 . S
Eu575 C639 2.787 . S
N576 C572 1.351 . S
N576 Eu575 2.562 . S
N576 C578 1.325 . S
C577 C571 1.404 . S
C577 C579 1.366 . S
C577 H585 0.930 . S
C578 N576 1.325 . S
C578 C579 1.416 . S
C578 H584 0.929 . S
C579 C577 1.366 . S
C579 C578 1.416 . S
C579 H581 0.930 . S
H580 C569 0.930 . S
H581 C579 0.930 . S
H582 C597 0.930 . S
H583 C604 0.930 . S
H584 C578 0.929 . S
H585 C577 0.930 . S
H586 C600 0.929 . S
H587 C567 0.931 . S
H588 C573 0.931 . S
H589 C574 0.931 . S
H590 C595 0.931 . S
H591 C570 0.929 . S
H592 C603 0.930 . S
N593 Eu564 2.600 . S
N593 C594 1.365 . S
N593 C597 1.319 . S
C594 N593 1.365 . S
C594 C596 1.405 . S
C594 C602 1.448 . S
C595 H590 0.931 . S
C595 C597 1.397 . S
C595 C598 1.367 . S
C596 C594 1.405 . S
C596 C598 1.403 . S
C596 C629 1.439 . S
C597 H582 0.930 . S
C597 N593 1.319 . S
C597 C595 1.397 . S
C598 C595 1.367 . S
C598 C596 1.403 . S
C598 H605 0.929 . S
N599 Eu564 2.562 . S
N599 C600 1.325 . S
N599 C602 1.351 . S
C600 H586 0.929 . S
C600 N599 1.325 . S
C600 C604 1.416 . S
C601 C602 1.430 . S
C601 C603 1.404 . S
C601 C630 1.387 . S
C602 C594 1.448 . S
C602 N599 1.351 . S
C602 C601 1.430 . S
C603 H592 0.930 . S
C603 C601 1.404 . S
C603 C604 1.366 . S
C604 H583 0.930 . S
C604 C600 1.416 . S
C604 C603 1.366 . S
H605 C598 0.929 . S
H606 C629 0.931 . S
H607 C630 0.931 . S
O608 Eu564 2.462 . S
O608 C628 1.252 . S
O609 Eu564 2.373 . S
O609 C620 1.249 . S
O610 Eu575 2.335 . S
O610 C620 1.264 . S
O611 Eu564 2.432 . S
O611 C628 1.268 . S
O612 Eu564 2.291 . S
O612 C627 1.255 . S
O613 Eu575 2.372 . S
O613 C627 1.257 . S
O614 Eu575 2.462 . S
O614 C639 1.252 . S
O615 Eu575 2.373 . S
O615 C631 1.249 . S
O616 Eu564 2.335 . S
O616 C631 1.264 . S
O617 Eu575 2.432 . S
O617 C639 1.268 . S
O618 Eu575 2.291 . S
O618 C638 1.255 . S
O619 Eu564 2.372 . S
O619 C638 1.257 . S
C620 O609 1.249 . S
C620 O610 1.264 . S
C621 C624 1.382 . S
C621 C626 1.390 . S
C621 C628 1.506 . S
C622 C623 1.398 . S
C622 C626 1.392 . S
C623 C622 1.398 . S
C623 C625 1.372 . S
C623 H640 0.931 . S
C624 C621 1.382 . S
C624 C625 1.390 . S
C624 H641 0.931 . S
C625 C623 1.372 . S
C625 C624 1.390 . S
C625 H642 0.929 . S
C626 C621 1.390 . S
C626 C622 1.392 . S
C626 H643 0.930 . S
C627 O612 1.255 . S
C627 O613 1.257 . S
C628 Eu564 2.787 . S
C628 O608 1.252 . S
C628 O611 1.268 . S
C628 C621 1.506 . S
C629 C596 1.439 . S
C629 H606 0.931 . S
C629 C630 1.374 . S
C630 C601 1.387 . S
C630 H607 0.931 . S
C630 C629 1.374 . S
C631 O615 1.249 . S
C631 O616 1.264 . S
C632 C635 1.382 . S
C632 C636 1.390 . S
C632 C639 1.506 . S
C633 C634 1.398 . S
C633 C636 1.392 . S
C634 C633 1.398 . S
C634 C637 1.372 . S
C634 H644 0.931 . S
C635 C632 1.382 . S
C635 C637 1.390 . S
C635 H645 0.931 . S
C636 C632 1.390 . S
C636 C633 1.392 . S
C636 H646 0.930 . S
C637 C634 1.372 . S
C637 C635 1.390 . S
C637 H647 0.929 . S
C638 O618 1.255 . S
C638 O619 1.257 . S
C639 Eu575 2.787 . S
C639 O614 1.252 . S
C639 O617 1.268 . S
C639 C632 1.506 . S
H640 C623 0.931 . S
H641 C624 0.931 . S
H642 C625 0.929 . S
H643 C626 0.930 . S
H644 C634 0.931 . S
H645 C635 0.931 . S
H646 C636 0.930 . S
H647 C637 0.929 . S
H648 C654 0.930 1_565 S
H649 C657 0.930 . S
H650 C658 0.930 . S
H651 C659 0.930 . S
H652 C662 0.930 1_655 S
H653 C663 0.930 . S
C654 H648 0.930 1_545 S
C654 C655 1.355 . S
C654 C656 1.415 . S
C655 C654 1.355 . S
C655 C657 1.419 . S
C656 C654 1.415 . S
C656 C661 1.425 . S
C656 C663 1.409 . S
C657 H649 0.930 . S
C657 C655 1.419 . S
C657 C658 1.362 . S
C658 H650 0.930 . S
C658 C657 1.362 . S
C658 C661 1.409 . S
C659 H651 0.930 . S
C659 C660 1.355 . S
C659 C661 1.415 . S
C660 C659 1.355 . S
C660 C662 1.419 . S
C661 C656 1.425 . S
C661 C658 1.409 . S
C661 C659 1.415 . S
C662 H652 0.930 1_455 S
C662 C660 1.419 . S
C662 C663 1.362 . S
C663 H653 0.930 . S
C663 C656 1.409 . S
C663 C662 1.362 . S
H664 C670 0.930 . S
H665 C673 0.930 . S
H666 C674 0.930 . S
H667 C675 0.930 . S
H668 C678 0.930 . S
H669 C679 0.930 . S
C670 H664 0.930 . S
C670 C671 1.355 . S
C670 C672 1.415 . S
C671 C670 1.355 . S
C671 C673 1.419 . S
C672 C670 1.415 . S
C672 C677 1.425 . S
C672 C679 1.409 . S
C673 H665 0.930 . S
C673 C671 1.419 . S
C673 C674 1.362 . S
C674 H666 0.930 . S
C674 C673 1.362 . S
C674 C677 1.409 . S
C675 H667 0.930 . S
C675 C676 1.355 . S
C675 C677 1.415 . S
C676 C675 1.355 . S
C676 C678 1.419 . S
C677 C672 1.425 . S
C677 C674 1.409 . S
C677 C675 1.415 . S
C678 H668 0.930 . S
C678 C676 1.419 . S
C678 C679 1.362 . S
C679 H669 0.930 . S
C679 C672 1.409 . S
C679 C678 1.362 . S
H680 C686 0.930 . S
H681 C689 0.930 . S
H682 C690 0.930 . S
H683 C691 0.930 . S
H684 C694 0.930 . S
H685 C695 0.930 . S
C686 H680 0.930 . S
C686 C687 1.355 . S
C686 C688 1.415 . S
C687 C686 1.355 . S
C687 C689 1.419 . S
C688 C686 1.415 . S
C688 C693 1.425 . S
C688 C695 1.409 . S
C689 H681 0.930 . S
C689 C687 1.419 . S
C689 C690 1.362 . S
C690 H682 0.930 . S
C690 C689 1.362 . S
C690 C693 1.409 . S
C691 H683 0.930 . S
C691 C692 1.355 . S
C691 C693 1.415 . S
C692 C691 1.355 . S
C692 C694 1.419 . S
C693 C688 1.425 . S
C693 C690 1.409 . S
C693 C691 1.415 . S
C694 H684 0.930 . S
C694 C692 1.419 . S
C694 C695 1.362 . S
C695 H685 0.930 . S
C695 C688 1.409 . S
C695 C694 1.362 . S
H696 C702 0.930 . S
H697 C705 0.930 1_565 S
H698 C706 0.930 . S
H699 C707 0.930 . S
H700 C710 0.930 . S
H701 C711 0.930 . S
C702 H696 0.930 . S
C702 C703 1.355 . S
C702 C704 1.415 . S
C703 C702 1.355 . S
C703 C705 1.419 . S
C704 C702 1.415 . S
C704 C709 1.425 . S
C704 C711 1.409 . S
C705 H697 0.930 1_545 S
C705 C703 1.419 . S
C705 C706 1.362 . S
C706 H698 0.930 . S
C706 C705 1.362 . S
C706 C709 1.409 . S
C707 H699 0.930 . S
C707 C708 1.355 . S
C707 C709 1.415 . S
C708 C707 1.355 . S
C708 C710 1.419 . S
C709 C704 1.425 . S
C709 C706 1.409 . S
C709 C707 1.415 . S
C710 H700 0.930 . S
C710 C708 1.419 . S
C710 C711 1.362 . S
C711 H701 0.930 . S
C711 C704 1.409 . S
C711 C710 1.362 . S
H712 C718 0.930 . S
H713 C721 0.930 . S
H714 C722 0.930 . S
H715 C723 0.930 . S
H716 C726 0.930 . S
H717 C727 0.930 . S
C718 H712 0.930 . S
C718 C719 1.355 . S
C718 C720 1.415 . S
C719 C718 1.355 . S
C719 C721 1.419 1_565 S
C720 C718 1.415 . S
C720 C725 1.425 . S
C720 C727 1.409 . S
C721 H713 0.930 . S
C721 C719 1.419 1_545 S
C721 C722 1.362 1_545 S
C722 H714 0.930 . S
C722 C721 1.362 1_565 S
C722 C725 1.409 . S
C723 H715 0.930 . S
C723 C724 1.355 . S
C723 C725 1.415 . S
C724 C723 1.355 . S
C724 C726 1.419 . S
C725 C720 1.425 . S
C725 C722 1.409 . S
C725 C723 1.415 . S
C726 H716 0.930 . S
C726 C724 1.419 . S
C726 C727 1.362 . S
C727 H717 0.930 . S
C727 C720 1.409 . S
C727 C726 1.362 . S
H728 C734 0.930 . S
H729 C737 0.930 . S
H730 C738 0.930 . S
H731 C739 0.930 . S
H732 C742 0.930 . S
H733 C743 0.930 . S
C734 H728 0.930 . S
C734 C735 1.355 . S
C734 C736 1.415 . S
C735 C734 1.355 . S
C735 C737 1.419 . S
C736 C734 1.415 . S
C736 C741 1.425 . S
C736 C743 1.409 . S
C737 H729 0.930 . S
C737 C735 1.419 . S
C737 C738 1.362 . S
C738 H730 0.930 . S
C738 C737 1.362 . S
C738 C741 1.409 . S
C739 H731 0.930 . S
C739 C740 1.355 . S
C739 C741 1.415 . S
C740 C739 1.355 . S
C740 C742 1.419 . S
C741 C736 1.425 . S
C741 C738 1.409 . S
C741 C739 1.415 . S
C742 H732 0.930 . S
C742 C740 1.419 . S
C742 C743 1.362 . S
C743 H733 0.930 . S
C743 C736 1.409 . S
C743 C742 1.362 . S
H744 C750 0.930 . S
H745 C753 0.930 . S
H746 C754 0.930 . S
H747 C755 0.930 . S
H748 C758 0.930 . S
H749 C759 0.930 . S
C750 H744 0.930 . S
C750 C751 1.355 . S
C750 C752 1.415 . S
C751 C750 1.355 . S
C751 C753 1.419 . S
C752 C750 1.415 . S
C752 C757 1.425 . S
C752 C759 1.409 . S
C753 H745 0.930 . S
C753 C751 1.419 . S
C753 C754 1.362 . S
C754 H746 0.930 . S
C754 C753 1.362 . S
C754 C757 1.409 . S
C755 H747 0.930 . S
C755 C756 1.355 . S
C755 C757 1.415 . S
C756 C755 1.355 . S
C756 C758 1.419 . S
C757 C752 1.425 . S
C757 C754 1.409 . S
C757 C755 1.415 . S
C758 H748 0.930 . S
C758 C756 1.419 . S
C758 C759 1.362 . S
C759 H749 0.930 . S
C759 C752 1.409 . S
C759 C758 1.362 . S
H760 C766 0.930 1_545 S
H761 C769 0.930 . S
H762 C770 0.930 . S
H763 C771 0.930 . S
H764 C774 0.930 . S
H765 C775 0.930 . S
C766 H760 0.930 1_565 S
C766 C767 1.355 . S
C766 C768 1.415 . S
C767 C766 1.355 . S
C767 C769 1.419 . S
C768 C766 1.415 . S
C768 C773 1.425 . S
C768 C775 1.409 . S
C769 H761 0.930 . S
C769 C767 1.419 . S
C769 C770 1.362 . S
C770 H762 0.930 . S
C770 C769 1.362 . S
C770 C773 1.409 . S
C771 H763 0.930 . S
C771 C772 1.355 . S
C771 C773 1.415 . S
C772 C771 1.355 . S
C772 C774 1.419 . S
C773 C768 1.425 . S
C773 C770 1.409 . S
C773 C771 1.415 . S
C774 H764 0.930 . S
C774 C772 1.419 . S
C774 C775 1.362 . S
C775 H765 0.930 . S
C775 C768 1.409 . S
C775 C774 1.362 . S
H776 C782 0.930 . S
H777 C785 0.930 . S
H778 C786 0.930 . S
H779 C787 0.930 . S
H780 C790 0.930 . S
H781 C791 0.930 . S
C782 H776 0.930 . S
C782 C783 1.355 . S
C782 C784 1.415 . S
C783 C782 1.355 . S
C783 C785 1.419 . S
C784 C782 1.415 . S
C784 C789 1.425 . S
C784 C791 1.409 . S
C785 H777 0.930 . S
C785 C783 1.419 . S
C785 C786 1.362 . S
C786 H778 0.930 . S
C786 C785 1.362 . S
C786 C789 1.409 . S
C787 H779 0.930 . S
C787 C788 1.355 . S
C787 C789 1.415 . S
C788 C787 1.355 . S
C788 C790 1.419 . S
C789 C784 1.425 . S
C789 C786 1.409 . S
C789 C787 1.415 . S
C790 H780 0.930 . S
C790 C788 1.419 . S
C790 C791 1.362 . S
C791 H781 0.930 . S
C791 C784 1.409 . S
C791 C790 1.362 . S
H792 C798 0.930 . S
H793 C801 0.930 . S
H794 C802 0.930 . S
H795 C803 0.930 . S
H796 C806 0.930 . S
H797 C807 0.930 . S
C798 H792 0.930 . S
C798 C799 1.355 . S
C798 C800 1.415 . S
C799 C798 1.355 . S
C799 C801 1.419 . S
C800 C798 1.415 . S
C800 C805 1.425 . S
C800 C807 1.409 . S
C801 H793 0.930 . S
C801 C799 1.419 . S
C801 C802 1.362 . S
C802 H794 0.930 . S
C802 C801 1.362 . S
C802 C805 1.409 . S
C803 H795 0.930 . S
C803 C804 1.355 . S
C803 C805 1.415 . S
C804 C803 1.355 . S
C804 C806 1.419 . S
C805 C800 1.425 . S
C805 C802 1.409 . S
C805 C803 1.415 . S
C806 H796 0.930 . S
C806 C804 1.419 . S
C806 C807 1.362 . S
C807 H797 0.930 . S
C807 C800 1.409 . S
C807 C806 1.362 . S
H808 C814 0.930 . S
H809 C817 0.930 . S
H810 C818 0.930 . S
H811 C819 0.930 . S
H812 C822 0.930 . S
H813 C823 0.930 . S
C814 H808 0.930 . S
C814 C815 1.355 . S
C814 C816 1.415 . S
C815 C814 1.355 . S
C815 C817 1.419 . S
C816 C814 1.415 . S
C816 C821 1.425 . S
C816 C823 1.409 . S
C817 H809 0.930 . S
C817 C815 1.419 . S
C817 C818 1.362 . S
C818 H810 0.930 . S
C818 C817 1.362 . S
C818 C821 1.409 . S
C819 H811 0.930 . S
C819 C820 1.355 . S
C819 C821 1.415 . S
C820 C819 1.355 . S
C820 C822 1.419 . S
C821 C816 1.425 . S
C821 C818 1.409 . S
C821 C819 1.415 . S
C822 H812 0.930 . S
C822 C820 1.419 . S
C822 C823 1.362 . S
C823 H813 0.930 . S
C823 C816 1.409 . S
C823 C822 1.362 . S
H824 C830 0.930 . S
H825 C833 0.930 . S
H826 C834 0.930 . S
H827 C835 0.930 . S
H828 C838 0.930 . S
H829 C839 0.930 . S
C830 H824 0.930 . S
C830 C831 1.355 . S
C830 C832 1.415 . S
C831 C830 1.355 . S
C831 C833 1.419 . S
C832 C830 1.415 . S
C832 C837 1.425 . S
C832 C839 1.409 . S
C833 H825 0.930 . S
C833 C831 1.419 . S
C833 C834 1.362 . S
C834 H826 0.930 . S
C834 C833 1.362 . S
C834 C837 1.409 . S
C835 H827 0.930 . S
C835 C836 1.355 . S
C835 C837 1.415 . S
C836 C835 1.355 . S
C836 C838 1.419 . S
C837 C832 1.425 . S
C837 C834 1.409 . S
C837 C835 1.415 . S
C838 H828 0.930 . S
C838 C836 1.419 . S
C838 C839 1.362 . S
C839 H829 0.930 . S
C839 C832 1.409 . S
C839 C838 1.362 . S
H840 C846 0.930 . S
H841 C849 0.930 . S
H842 C850 0.930 . S
H843 C851 0.930 . S
H844 C854 0.930 . S
H845 C855 0.930 . S
C846 H840 0.930 . S
C846 C847 1.355 . S
C846 C848 1.415 . S
C847 C846 1.355 . S
C847 C849 1.419 . S
C848 C846 1.415 . S
C848 C853 1.425 . S
C848 C855 1.409 . S
C849 H841 0.930 . S
C849 C847 1.419 . S
C849 C850 1.362 . S
C850 H842 0.930 . S
C850 C849 1.362 . S
C850 C853 1.409 . S
C851 H843 0.930 . S
C851 C852 1.355 . S
C851 C853 1.415 . S
C852 C851 1.355 . S
C852 C854 1.419 . S
C853 C848 1.425 . S
C853 C850 1.409 . S
C853 C851 1.415 . S
C854 H844 0.930 . S
C854 C852 1.419 . S
C854 C855 1.362 . S
C855 H845 0.930 . S
C855 C848 1.409 . S
C855 C854 1.362 . S
H856 C862 0.930 . S
H857 C865 0.930 . S
H858 C866 0.930 . S
H859 C867 0.930 . S
H860 C870 0.930 . S
H861 C871 0.930 . S
C862 H856 0.930 . S
C862 C863 1.355 . S
C862 C864 1.415 . S
C863 C862 1.355 . S
C863 C865 1.419 . S
C864 C862 1.415 . S
C864 C869 1.425 . S
C864 C871 1.409 . S
C865 H857 0.930 . S
C865 C863 1.419 . S
C865 C866 1.362 . S
C866 H858 0.930 . S
C866 C865 1.362 . S
C866 C869 1.409 . S
C867 H859 0.930 . S
C867 C868 1.355 . S
C867 C869 1.415 . S
C868 C867 1.355 . S
C868 C870 1.419 . S
C869 C864 1.425 . S
C869 C866 1.409 . S
C869 C867 1.415 . S
C870 H860 0.930 . S
C870 C868 1.419 . S
C870 C871 1.362 . S
C871 H861 0.930 . S
C871 C864 1.409 . S
C871 C870 1.362 . S
H872 C878 0.930 . S
H873 C881 0.930 . S
H874 C882 0.930 . S
H875 C883 0.930 . S
H876 C886 0.930 . S
H877 C887 0.930 . S
C878 H872 0.930 . S
C878 C879 1.355 . S
C878 C880 1.415 . S
C879 C878 1.355 . S
C879 C881 1.419 . S
C880 C878 1.415 . S
C880 C885 1.425 . S
C880 C887 1.409 . S
C881 H873 0.930 . S
C881 C879 1.419 . S
C881 C882 1.362 . S
C882 H874 0.930 . S
C882 C881 1.362 . S
C882 C885 1.409 . S
C883 H875 0.930 . S
C883 C884 1.355 . S
C883 C885 1.415 . S
C884 C883 1.355 . S
C884 C886 1.419 . S
C885 C880 1.425 . S
C885 C882 1.409 . S
C885 C883 1.415 . S
C886 H876 0.930 . S
C886 C884 1.419 . S
C886 C887 1.362 . S
C887 H877 0.930 . S
C887 C880 1.409 . S
C887 C886 1.362 . S
H888 C894 0.930 . S
H889 C897 0.930 . S
H890 C898 0.930 . S
H891 C899 0.930 . S
H892 C902 0.930 . S
H893 C903 0.930 . S
C894 H888 0.930 . S
C894 C895 1.355 . S
C894 C896 1.415 . S
C895 C894 1.355 . S
C895 C897 1.419 . S
C896 C894 1.415 . S
C896 C901 1.425 . S
C896 C903 1.409 . S
C897 H889 0.930 . S
C897 C895 1.419 . S
C897 C898 1.362 . S
C898 H890 0.930 . S
C898 C897 1.362 . S
C898 C901 1.409 . S
C899 H891 0.930 . S
C899 C900 1.355 . S
C899 C901 1.415 . S
C900 C899 1.355 . S
C900 C902 1.419 . S
C901 C896 1.425 . S
C901 C898 1.409 . S
C901 C899 1.415 . S
C902 H892 0.930 . S
C902 C900 1.419 . S
C902 C903 1.362 . S
C903 H893 0.930 . S
C903 C896 1.409 . S
C903 C902 1.362 . S
H904 C910 0.930 . S
H905 C913 0.930 . S
H906 C914 0.930 . S
H907 C915 0.930 . S
H908 C918 0.930 . S
H909 C919 0.930 . S
C910 H904 0.930 . S
C910 C911 1.355 . S
C910 C912 1.415 . S
C911 C910 1.355 . S
C911 C913 1.419 . S
C912 C910 1.415 . S
C912 C917 1.425 . S
C912 C919 1.409 . S
C913 H905 0.930 . S
C913 C911 1.419 . S
C913 C914 1.362 . S
C914 H906 0.930 . S
C914 C913 1.362 . S
C914 C917 1.409 . S
C915 H907 0.930 . S
C915 C916 1.355 . S
C915 C917 1.415 . S
C916 C915 1.355 . S
C916 C918 1.419 . S
C917 C912 1.425 . S
C917 C914 1.409 . S
C917 C915 1.415 . S
C918 H908 0.930 . S
C918 C916 1.419 . S
C918 C919 1.362 . S
C919 H909 0.930 . S
C919 C912 1.409 . S
C919 C918 1.362 . S
H920 C926 0.930 . S
H921 C929 0.930 . S
H922 C930 0.930 . S
H923 C931 0.930 . S
H924 C934 0.930 . S
H925 C935 0.930 . S
C926 H920 0.930 . S
C926 C927 1.355 . S
C926 C928 1.415 . S
C927 C926 1.355 . S
C927 C929 1.419 . S
C928 C926 1.415 . S
C928 C933 1.425 . S
C928 C935 1.409 . S
C929 H921 0.930 . S
C929 C927 1.419 . S
C929 C930 1.362 . S
C930 H922 0.930 . S
C930 C929 1.362 . S
C930 C933 1.409 . S
C931 H923 0.930 . S
C931 C932 1.355 . S
C931 C933 1.415 . S
C932 C931 1.355 . S
C932 C934 1.419 . S
C933 C928 1.425 . S
C933 C930 1.409 . S
C933 C931 1.415 . S
C934 H924 0.930 . S
C934 C932 1.419 . S
C934 C935 1.362 . S
C935 H925 0.930 . S
C935 C928 1.409 . S
C935 C934 1.362 . S
H936 C942 0.930 . S
H937 C945 0.930 . S
H938 C946 0.930 . S
H939 C947 0.930 . S
H940 C950 0.930 . S
H941 C951 0.930 . S
C942 H936 0.930 . S
C942 C943 1.355 . S
C942 C944 1.415 . S
C943 C942 1.355 . S
C943 C945 1.419 . S
C944 C942 1.415 . S
C944 C949 1.425 . S
C944 C951 1.409 . S
C945 H937 0.930 . S
C945 C943 1.419 . S
C945 C946 1.362 . S
C946 H938 0.930 . S
C946 C945 1.362 . S
C946 C949 1.409 . S
C947 H939 0.930 . S
C947 C948 1.355 . S
C947 C949 1.415 . S
C948 C947 1.355 . S
C948 C950 1.419 . S
C949 C944 1.425 . S
C949 C946 1.409 . S
C949 C947 1.415 . S
C950 H940 0.930 . S
C950 C948 1.419 . S
C950 C951 1.362 . S
C951 H941 0.930 . S
C951 C944 1.409 . S
C951 C950 1.362 . S
H952 C958 0.930 . S
H953 C961 0.930 . S
H954 C962 0.930 . S
H955 C963 0.930 . S
H956 C966 0.930 . S
H957 C967 0.930 . S
C958 H952 0.930 . S
C958 C959 1.355 . S
C958 C960 1.415 . S
C959 C958 1.355 . S
C959 C961 1.419 . S
C960 C958 1.415 . S
C960 C965 1.425 . S
C960 C967 1.409 . S
C961 H953 0.930 . S
C961 C959 1.419 . S
C961 C962 1.362 . S
C962 H954 0.930 . S
C962 C961 1.362 . S
C962 C965 1.409 . S
C963 H955 0.930 . S
C963 C964 1.355 . S
C963 C965 1.415 . S
C964 C963 1.355 . S
C964 C966 1.419 . S
C965 C960 1.425 . S
C965 C962 1.409 . S
C965 C963 1.415 . S
C966 H956 0.930 . S
C966 C964 1.419 . S
C966 C967 1.362 . S
C967 H957 0.930 . S
C967 C960 1.409 . S
C967 C966 1.362 . S
H968 C974 0.930 . S
H969 C977 0.930 . S
H970 C978 0.930 . S
H971 C979 0.930 . S
H972 C982 0.930 . S
H973 C983 0.930 . S
C974 H968 0.930 . S
C974 C975 1.355 . S
C974 C976 1.415 . S
C975 C974 1.355 . S
C975 C977 1.419 . S
C976 C974 1.415 . S
C976 C981 1.425 . S
C976 C983 1.409 . S
C977 H969 0.930 . S
C977 C975 1.419 . S
C977 C978 1.362 . S
C978 H970 0.930 . S
C978 C977 1.362 . S
C978 C981 1.409 . S
C979 H971 0.930 . S
C979 C980 1.355 . S
C979 C981 1.415 . S
C980 C979 1.355 . S
C980 C982 1.419 . S
C981 C976 1.425 . S
C981 C978 1.409 . S
C981 C979 1.415 . S
C982 H972 0.930 . S
C982 C980 1.419 . S
C982 C983 1.362 . S
C983 H973 0.930 . S
C983 C976 1.409 . S
C983 C982 1.362 . S
H984 C990 0.930 . S
H985 C993 0.930 . S
H986 C994 0.930 . S
H987 C995 0.930 . S
H988 C998 0.930 . S
H989 C999 0.930 . S
C990 H984 0.930 . S
C990 C991 1.355 . S
C990 C992 1.415 . S
C991 C990 1.355 . S
C991 C993 1.419 . S
C992 C990 1.415 . S
C992 C997 1.425 . S
C992 C999 1.409 . S
C993 H985 0.930 . S
C993 C991 1.419 . S
C993 C994 1.362 . S
C994 H986 0.930 . S
C994 C993 1.362 . S
C994 C997 1.409 . S
C995 H987 0.930 . S
C995 C996 1.355 . S
C995 C997 1.415 . S
C996 C995 1.355 . S
C996 C998 1.419 . S
C997 C992 1.425 . S
C997 C994 1.409 . S
C997 C995 1.415 . S
C998 H988 0.930 . S
C998 C996 1.419 . S
C998 C999 1.362 . S
C999 H989 0.930 . S
C999 C992 1.409 . S
C999 C998 1.362 . S
H1000 C1006 0.930 . S
H1001 C1009 0.930 . S
H1002 C1010 0.930 . S
H1003 C1011 0.930 . S
H1004 C1014 0.930 . S
H1005 C1015 0.930 . S
C1006 H1000 0.930 . S
C1006 C1007 1.355 . S
C1006 C1008 1.415 . S
C1007 C1006 1.355 . S
C1007 C1009 1.419 . S
C1008 C1006 1.415 . S
C1008 C1013 1.425 . S
C1008 C1015 1.409 . S
C1009 H1001 0.930 . S
C1009 C1007 1.419 . S
C1009 C1010 1.362 . S
C1010 H1002 0.930 . S
C1010 C1009 1.362 . S
C1010 C1013 1.409 . S
C1011 H1003 0.930 . S
C1011 C1012 1.355 . S
C1011 C1013 1.415 . S
C1012 C1011 1.355 . S
C1012 C1014 1.419 . S
C1013 C1008 1.425 . S
C1013 C1010 1.409 . S
C1013 C1011 1.415 . S
C1014 H1004 0.930 . S
C1014 C1012 1.419 . S
C1014 C1015 1.362 . S
C1015 H1005 0.930 . S
C1015 C1008 1.409 . S
C1015 C1014 1.362 . S
H1016 C1022 0.930 . S
H1017 C1025 0.930 . S
H1018 C1026 0.930 . S
H1019 C1027 0.930 . S
H1020 C1030 0.930 . S
H1021 C1031 0.930 . S
C1022 H1016 0.930 . S
C1022 C1023 1.355 . S
C1022 C1024 1.415 . S
C1023 C1022 1.355 . S
C1023 C1025 1.419 . S
C1024 C1022 1.415 . S
C1024 C1029 1.425 . S
C1024 C1031 1.409 . S
C1025 H1017 0.930 . S
C1025 C1023 1.419 . S
C1025 C1026 1.362 . S
C1026 H1018 0.930 . S
C1026 C1025 1.362 . S
C1026 C1029 1.409 . S
C1027 H1019 0.930 . S
C1027 C1028 1.355 . S
C1027 C1029 1.415 . S
C1028 C1027 1.355 . S
C1028 C1030 1.419 . S
C1029 C1024 1.425 . S
C1029 C1026 1.409 . S
C1029 C1027 1.415 . S
C1030 H1020 0.930 . S
C1030 C1028 1.419 . S
C1030 C1031 1.362 . S
C1031 H1021 0.930 . S
C1031 C1024 1.409 . S
C1031 C1030 1.362 . S
C655 C235 1.483 1_545 S
C660 C386 1.474 . S
C676 C470 1.450 . S
C671 C289 1.470 . S
C692 C463 1.479 . S
C687 C157 1.480 . S
C703 C211 1.464 1_545 S
C708 C379 1.467 . S
C724 C543 1.483 . S
C719 C79 1.476 1_565 S
C740 C627 1.460 . S
C735 C118 1.490 . S
C751 C1 1.483 . S
C756 C620 1.483 . S
C767 C40 1.481 1_565 S
C772 C536 1.481 . S
C788 C370 1.392 . S
C783 C55 1.523 1_554 S
C804 C454 1.333 . S
C799 C16 1.506 . S
C820 C465 1.340 . S
C815 C133 1.518 1_556 S
C836 C381 1.341 . S
C831 C94 1.524 . S
C852 C549 1.396 . S
C847 C196 1.527 1_556 S
C863 C172 1.505 . S
C868 C633 1.269 . S
C884 C622 1.349 . S
C879 C274 1.525 1_554 S
C895 C250 1.532 . S
C900 C538 1.440 . S
C916 C368 1.578 . S
C911 C21 1.568 . S
C932 C452 1.567 . S
C927 C60 1.556 . S
C943 C99 1.554 . S
C948 C459 1.566 . S
C964 C375 1.571 . S
C959 C138 1.556 . S
C980 C547 1.576 . S
C975 C177 1.583 . S
C991 C216 1.565 . S
C996 C631 1.566 . S
C1007 C255 1.556 . S
C1012 C638 1.546 . S
C1023 C294 1.547 . S
C1028 C554 1.574 . S
