# Generated by pormake.
# Topology pyr, (3,6)-cn, num edge types: 1
# Building blocks:
#     Node 0, Type 0, BuildingBlock: KAKCAD_clean_linker_0, # of connection points: 3
#     Node 1, Type 0, BuildingBlock: KAKCAD_clean_linker_0, # of connection points: 3
#     Node 2, Type 0, BuildingBlock: KAKCAD_clean_linker_0, # of connection points: 3
#     Node 3, Type 0, BuildingBlock: KAKCAD_clean_linker_0, # of connection points: 3
#     Node 4, Type 0, BuildingBlock: KAKCAD_clean_linker_0, # of connection points: 3
#     Node 5, Type 0, BuildingBlock: KAKCAD_clean_linker_0, # of connection points: 3
#     Node 6, Type 0, BuildingBlock: KAKCAD_clean_linker_0, # of connection points: 3
#     Node 7, Type 0, BuildingBlock: KAKCAD_clean_linker_0, # of connection points: 3
#     Node 8, Type 1, BuildingBlock: BETFAJ_clean_sbu_0, # of connection points: 6
#     Node 9, Type 1, BuildingBlock: BETFAJ_clean_sbu_0, # of connection points: 6
#     Node 10, Type 1, BuildingBlock: BETFAJ_clean_sbu_0, # of connection points: 6
#     Node 11, Type 1, BuildingBlock: BETFAJ_clean_sbu_0, # of connection points: 6
#     Edge 12, Type (0, 1), BuildingBlock: ZUJKAS_clean_linker_0, # of connection points: 2
#     Edge 13, Type (0, 1), BuildingBlock: ZUJKAS_clean_linker_0, # of connection points: 2
#     Edge 14, Type (0, 1), BuildingBlock: ZUJKAS_clean_linker_0, # of connection points: 2
#     Edge 15, Type (0, 1), BuildingBlock: ZUJKAS_clean_linker_0, # of connection points: 2
#     Edge 16, Type (0, 1), BuildingBlock: ZUJKAS_clean_linker_0, # of connection points: 2
#     Edge 17, Type (0, 1), BuildingBlock: ZUJKAS_clean_linker_0, # of connection points: 2
#     Edge 18, Type (0, 1), BuildingBlock: ZUJKAS_clean_linker_0, # of connection points: 2
#     Edge 19, Type (0, 1), BuildingBlock: ZUJKAS_clean_linker_0, # of connection points: 2
#     Edge 20, Type (0, 1), BuildingBlock: ZUJKAS_clean_linker_0, # of connection points: 2
#     Edge 21, Type (0, 1), BuildingBlock: ZUJKAS_clean_linker_0, # of connection points: 2
#     Edge 22, Type (0, 1), BuildingBlock: ZUJKAS_clean_linker_0, # of connection points: 2
#     Edge 23, Type (0, 1), BuildingBlock: ZUJKAS_clean_linker_0, # of connection points: 2
#     Edge 24, Type (0, 1), BuildingBlock: ZUJKAS_clean_linker_0, # of connection points: 2
#     Edge 25, Type (0, 1), BuildingBlock: ZUJKAS_clean_linker_0, # of connection points: 2
#     Edge 26, Type (0, 1), BuildingBlock: ZUJKAS_clean_linker_0, # of connection points: 2
#     Edge 27, Type (0, 1), BuildingBlock: ZUJKAS_clean_linker_0, # of connection points: 2
#     Edge 28, Type (0, 1), BuildingBlock: ZUJKAS_clean_linker_0, # of connection points: 2
#     Edge 29, Type (0, 1), BuildingBlock: ZUJKAS_clean_linker_0, # of connection points: 2
#     Edge 30, Type (0, 1), BuildingBlock: ZUJKAS_clean_linker_0, # of connection points: 2
#     Edge 31, Type (0, 1), BuildingBlock: ZUJKAS_clean_linker_0, # of connection points: 2
#     Edge 32, Type (0, 1), BuildingBlock: ZUJKAS_clean_linker_0, # of connection points: 2
#     Edge 33, Type (0, 1), BuildingBlock: ZUJKAS_clean_linker_0, # of connection points: 2
#     Edge 34, Type (0, 1), BuildingBlock: ZUJKAS_clean_linker_0, # of connection points: 2
#     Edge 35, Type (0, 1), BuildingBlock: ZUJKAS_clean_linker_0, # of connection points: 2
# Relax obj value: 0.071
# Max RMSD: 0.114
# Mean RMSD: 0.053
data_MOF--net-pyr--node1-BETFAJ_clean_sbu_0--node2-KAKCAD_clean_linker_0--edge1-ZUJKAS_clean_linker_0
_symmetry_space_group_name_H-M    P1
_symmetry_Int_Tables_number       1
_symmetry_cell_setting            triclinic
loop_
_symmetry_equiv_pos_as_xyz
'x, y, z'
_cell_length_a     58.053815
_cell_length_b     60.553592
_cell_length_c     54.548617
_cell_angle_alpha  90.817494
_cell_angle_beta   88.616945
_cell_angle_gamma 99.747486
loop_
_atom_site_label
_atom_site_type_symbol
_atom_site_fract_x
_atom_site_fract_y
_atom_site_fract_z
_atom_type_partial_charge
C0 C 0.24981 0.25188 0.28016 0.0
C1 C 0.25896 0.24249 0.30038 0.0
C2 C 0.26447 0.26116 0.26104 0.0
C3 C 0.28873 0.2615 0.26169 0.0
C4 C 0.29799 0.2525 0.28217 0.0
C5 C 0.28323 0.24301 0.30131 0.0
C6 C 0.30381 0.27002 0.24028 0.0
C7 C 0.29905 0.28841 0.22713 0.0
C8 C 0.3103 0.29429 0.20455 0.0
C9 C 0.32725 0.28213 0.19542 0.0
C10 C 0.33316 0.26436 0.20897 0.0
C11 C 0.32131 0.25841 0.23134 0.0
C12 C 0.35042 0.25084 0.19918 0.0
C13 C 0.34921 0.24282 0.17488 0.0
C14 C 0.36731 0.24471 0.21454 0.0
C15 C 0.38231 0.2304 0.20598 0.0
C16 C 0.38062 0.22171 0.18191 0.0
C17 C 0.302 0.31147 0.18966 0.0
C18 C 0.2927 0.30576 0.16647 0.0
C19 C 0.2999 0.33238 0.20008 0.0
C20 C 0.28743 0.34674 0.18823 0.0
C21 C 0.27643 0.34031 0.16592 0.0
C22 C 0.27993 0.31999 0.15475 0.0
C23 C 0.36408 0.22834 0.16637 0.0
H24 H 0.23115 0.25128 0.27863 0.0
H25 H 0.25658 0.26735 0.24531 0.0
H26 H 0.31662 0.25265 0.28334 0.0
H27 H 0.29076 0.23598 0.31675 0.0
H28 H 0.28563 0.29756 0.23386 0.0
H29 H 0.32477 0.24383 0.24099 0.0
H30 H 0.33577 0.28648 0.17783 0.0
H31 H 0.33615 0.24703 0.16273 0.0
H32 H 0.36878 0.25087 0.23328 0.0
H33 H 0.39513 0.22603 0.21831 0.0
H34 H 0.29386 0.28959 0.15822 0.0
H35 H 0.30706 0.33716 0.21792 0.0
H36 H 0.36202 0.22175 0.14785 0.0
H37 H 0.27158 0.31434 0.13771 0.0
H38 H 0.28563 0.36251 0.19707 0.0
C39 C 0.33177 0.88474 0.6942 0.0
C40 C 0.35605 0.89149 0.69568 0.0
C41 C 0.32156 0.87854 0.67174 0.0
C42 C 0.33539 0.87904 0.6502 0.0
C43 C 0.3598 0.88493 0.65177 0.0
C44 C 0.37006 0.89109 0.67435 0.0
C45 C 0.32409 0.87442 0.62615 0.0
C46 C 0.30404 0.88345 0.62111 0.0
C47 C 0.29254 0.87887 0.59883 0.0
C48 C 0.30158 0.86534 0.58121 0.0
C49 C 0.32186 0.85642 0.58576 0.0
C50 C 0.33303 0.86104 0.60831 0.0
C51 C 0.33101 0.84169 0.56735 0.0
C52 C 0.31576 0.82473 0.55523 0.0
C53 C 0.35516 0.84386 0.56257 0.0
C54 C 0.36398 0.82874 0.5469 0.0
C55 C 0.34882 0.81113 0.53567 0.0
C56 C 0.2713 0.88858 0.59408 0.0
C57 C 0.25464 0.88985 0.61298 0.0
C58 C 0.26799 0.89748 0.57103 0.0
C59 C 0.24879 0.90801 0.56718 0.0
C60 C 0.23267 0.90997 0.58637 0.0
C61 C 0.2356 0.90056 0.6092 0.0
C62 C 0.32459 0.80959 0.53955 0.0
H63 H 0.3206 0.88442 0.71044 0.0
H64 H 0.30275 0.87358 0.67119 0.0
H65 H 0.37088 0.88556 0.63544 0.0
H66 H 0.38883 0.8963 0.67498 0.0
H67 H 0.29763 0.89451 0.63446 0.0
H68 H 0.34826 0.85366 0.6123 0.0
H69 H 0.2928 0.86169 0.56394 0.0
H70 H 0.29706 0.82258 0.55862 0.0
H71 H 0.3673 0.85697 0.57137 0.0
H72 H 0.38275 0.83023 0.54455 0.0
H73 H 0.25642 0.88272 0.63079 0.0
H74 H 0.28063 0.89699 0.55619 0.0
H75 H 0.31248 0.79628 0.53102 0.0
H76 H 0.22319 0.90158 0.62416 0.0
H77 H 0.24699 0.9153 0.54946 0.0
C78 C 0.73366 0.41285 0.89355 0.0
C79 C 0.75168 0.40095 0.89915 0.0
C80 C 0.71299 0.40198 0.88281 0.0
C81 C 0.70965 0.37885 0.87751 0.0
C82 C 0.72772 0.36698 0.88301 0.0
C83 C 0.74842 0.37786 0.89361 0.0
C84 C 0.68733 0.36703 0.86667 0.0
C85 C 0.67635 0.37696 0.84796 0.0
C86 C 0.65537 0.36593 0.83762 0.0
C87 C 0.64533 0.34454 0.84652 0.0
C88 C 0.65602 0.33422 0.86521 0.0
C89 C 0.67696 0.34569 0.87507 0.0
C90 C 0.64546 0.31152 0.87474 0.0
C91 C 0.62128 0.3058 0.87961 0.0
C92 C 0.65972 0.29558 0.8798 0.0
C93 C 0.65019 0.27473 0.8898 0.0
C94 C 0.62607 0.26911 0.89521 0.0
C95 C 0.64424 0.3767 0.81734 0.0
C96 C 0.64395 0.39992 0.81763 0.0
C97 C 0.63423 0.36401 0.79725 0.0
C98 C 0.62451 0.37425 0.77796 0.0
C99 C 0.62444 0.39752 0.77813 0.0
C100 C 0.63421 0.41015 0.79838 0.0
C101 C 0.61173 0.28494 0.88976 0.0
H102 H 0.73559 0.43068 0.89728 0.0
H103 H 0.69943 0.41167 0.87904 0.0
H104 H 0.72595 0.34922 0.87897 0.0
H105 H 0.76174 0.36805 0.89784 0.0
H106 H 0.68457 0.3931 0.84093 0.0
H107 H 0.68493 0.33819 0.8899 0.0
H108 H 0.6292 0.33587 0.83886 0.0
H109 H 0.60977 0.3177 0.87621 0.0
H110 H 0.67835 0.29919 0.87591 0.0
H111 H 0.66182 0.26293 0.89312 0.0
H112 H 0.65108 0.41025 0.83292 0.0
H113 H 0.63438 0.34616 0.7961 0.0
H114 H 0.59315 0.28148 0.89388 0.0
H115 H 0.63414 0.428 0.79956 0.0
H116 H 0.6175 0.36393 0.76261 0.0
C117 C 0.87113 0.64692 0.27647 0.0
C118 C 0.89551 0.64778 0.27503 0.0
C119 C 0.86072 0.65723 0.296 0.0
C120 C 0.87438 0.66885 0.3146 0.0
C121 C 0.89878 0.66994 0.31303 0.0
C122 C 0.90919 0.65947 0.29359 0.0
C123 C 0.86313 0.67953 0.33563 0.0
C124 C 0.84242 0.66821 0.3469 0.0
C125 C 0.83145 0.67799 0.3666 0.0
C126 C 0.84149 0.69954 0.37484 0.0
C127 C 0.86221 0.71125 0.36403 0.0
C128 C 0.87295 0.70099 0.34449 0.0
C129 C 0.87244 0.73415 0.37333 0.0
C130 C 0.85786 0.74966 0.38023 0.0
C131 C 0.89671 0.74052 0.3761 0.0
C132 C 0.90606 0.7616 0.38594 0.0
C133 C 0.89141 0.77695 0.39323 0.0
C134 C 0.80957 0.66575 0.37869 0.0
C135 C 0.79214 0.65243 0.3649 0.0
C136 C 0.80578 0.66752 0.40419 0.0
C137 C 0.78512 0.65661 0.41548 0.0
C138 C 0.76763 0.64335 0.40172 0.0
C139 C 0.77152 0.64136 0.37625 0.0
C140 C 0.86718 0.77069 0.39005 0.0
H141 H 0.85998 0.63793 0.26269 0.0
H142 H 0.84191 0.65622 0.29643 0.0
H143 H 0.90986 0.67859 0.32708 0.0
H144 H 0.92802 0.66068 0.293 0.0
H145 H 0.8352 0.65145 0.34073 0.0
H146 H 0.88861 0.71 0.33569 0.0
H147 H 0.83315 0.7073 0.38985 0.0
H148 H 0.83912 0.74555 0.37807 0.0
H149 H 0.90849 0.72902 0.37116 0.0
H150 H 0.92482 0.76587 0.38777 0.0
H151 H 0.79422 0.65078 0.34522 0.0
H152 H 0.81886 0.67728 0.41558 0.0
H153 H 0.85526 0.78186 0.39562 0.0
H154 H 0.7587 0.6311 0.36499 0.0
H155 H 0.78279 0.6589 0.43505 0.0
C156 C 0.76022 0.78463 0.74922 0.0
C157 C 0.77026 0.80731 0.74689 0.0
C158 C 0.74376 0.77784 0.76794 0.0
C159 C 0.73701 0.79363 0.78462 0.0
C160 C 0.74593 0.81647 0.78119 0.0
C161 C 0.76233 0.82322 0.76252 0.0
C162 C 0.72319 0.78634 0.80724 0.0
C163 C 0.7288 0.76862 0.82088 0.0
C164 C 0.71888 0.76375 0.8443 0.0
C165 C 0.70298 0.77681 0.85412 0.0
C166 C 0.69683 0.79449 0.84056 0.0
C167 C 0.70672 0.79878 0.81692 0.0
C168 C 0.68149 0.80955 0.8516 0.0
C169 C 0.66223 0.8011 0.86689 0.0
C170 C 0.68637 0.83275 0.84724 0.0
C171 C 0.67226 0.84706 0.85761 0.0
C172 C 0.6531 0.83862 0.87289 0.0
C173 C 0.72751 0.74664 0.85917 0.0
C174 C 0.73071 0.72613 0.84839 0.0
C175 C 0.73543 0.7518 0.88304 0.0
C176 C 0.74779 0.73747 0.89518 0.0
C177 C 0.75244 0.71772 0.88365 0.0
C178 C 0.74304 0.71182 0.8605 0.0
C179 C 0.64825 0.81552 0.87753 0.0
H180 H 0.76598 0.77199 0.73743 0.0
H181 H 0.73698 0.76015 0.76995 0.0
H182 H 0.74129 0.82907 0.79379 0.0
H183 H 0.76948 0.84087 0.76088 0.0
H184 H 0.74225 0.75957 0.81401 0.0
H185 H 0.70203 0.8122 0.80618 0.0
H186 H 0.69604 0.77364 0.87258 0.0
H187 H 0.65781 0.78332 0.87047 0.0
H188 H 0.7014 0.84001 0.83615 0.0
H189 H 0.67667 0.86486 0.85408 0.0
H190 H 0.72451 0.7216 0.83012 0.0
H191 H 0.73341 0.76759 0.89171 0.0
H192 H 0.63348 0.80857 0.88915 0.0
H193 H 0.74592 0.69649 0.85136 0.0
H194 H 0.75493 0.74256 0.91294 0.0
C195 C 0.67922 0.176 0.35965 0.0
C196 C 0.67044 0.19369 0.34877 0.0
C197 C 0.6892 0.17873 0.38272 0.0
C198 C 0.69072 0.19923 0.39544 0.0
C199 C 0.68229 0.21706 0.38442 0.0
C200 C 0.67227 0.21432 0.36129 0.0
C201 C 0.70048 0.20172 0.42041 0.0
C202 C 0.72037 0.19257 0.42597 0.0
C203 C 0.72913 0.19409 0.44984 0.0
C204 C 0.71778 0.20499 0.46825 0.0
C205 C 0.6982 0.21459 0.46283 0.0
C206 C 0.6896 0.21283 0.43894 0.0
C207 C 0.68682 0.22685 0.48189 0.0
C208 C 0.6802 0.21724 0.50485 0.0
C209 C 0.68191 0.24817 0.47679 0.0
C210 C 0.67015 0.25952 0.49406 0.0
C211 C 0.66292 0.24977 0.5168 0.0
C212 C 0.75016 0.18436 0.4555 0.0
C213 C 0.75317 0.16347 0.44559 0.0
C214 C 0.76733 0.19587 0.47093 0.0
C215 C 0.78693 0.18655 0.47657 0.0
C216 C 0.78986 0.16557 0.46681 0.0
C217 C 0.77284 0.15421 0.45113 0.0
C218 C 0.66814 0.22855 0.52213 0.0
H219 H 0.6784 0.16 0.3503 0.0
H220 H 0.69532 0.1646 0.3908 0.0
H221 H 0.68345 0.23315 0.39366 0.0
H222 H 0.66556 0.22823 0.35344 0.0
H223 H 0.72931 0.18461 0.41155 0.0
H224 H 0.67402 0.21967 0.43497 0.0
H225 H 0.72424 0.20618 0.48678 0.0
H226 H 0.68376 0.20075 0.50913 0.0
H227 H 0.68699 0.25599 0.45929 0.0
H228 H 0.66601 0.27568 0.48923 0.0
H229 H 0.74016 0.15409 0.43382 0.0
H230 H 0.76568 0.21214 0.47859 0.0
H231 H 0.66272 0.22067 0.53951 0.0
H232 H 0.7747 0.13814 0.44307 0.0
H233 H 0.79957 0.19563 0.48893 0.0
C234 C 0.27386 0.64867 0.19223 0.0
C235 C 0.27057 0.65034 0.16688 0.0
C236 C 0.29473 0.659 0.20302 0.0
C237 C 0.31302 0.67114 0.18873 0.0
C238 C 0.30983 0.67235 0.16328 0.0
C239 C 0.28891 0.66223 0.15256 0.0
C240 C 0.3351 0.68292 0.20025 0.0
C241 C 0.34497 0.67355 0.22019 0.0
C242 C 0.36559 0.68468 0.23123 0.0
C243 C 0.37653 0.70551 0.22157 0.0
C244 C 0.36723 0.71508 0.20137 0.0
C245 C 0.34639 0.70374 0.19121 0.0
C246 C 0.37909 0.73684 0.19055 0.0
C247 C 0.38872 0.75509 0.20547 0.0
C248 C 0.38031 0.73969 0.16494 0.0
C249 C 0.39037 0.76021 0.15457 0.0
C250 C 0.39957 0.77865 0.16944 0.0
C251 C 0.3757 0.67439 0.25263 0.0
C252 C 0.36105 0.66198 0.27035 0.0
C253 C 0.40006 0.67662 0.25549 0.0
C254 C 0.4094 0.66676 0.27531 0.0
C255 C 0.39473 0.65418 0.29292 0.0
C256 C 0.37038 0.65199 0.29006 0.0
C257 C 0.3988 0.7757 0.19507 0.0
H258 H 0.26004 0.63981 0.20386 0.0
H259 H 0.29628 0.65788 0.22268 0.0
H260 H 0.32359 0.68103 0.15147 0.0
H261 H 0.28719 0.66353 0.13293 0.0
H262 H 0.33687 0.65721 0.22673 0.0
H263 H 0.33864 0.71148 0.17643 0.0
H264 H 0.39236 0.71431 0.2297 0.0
H265 H 0.38794 0.75365 0.22524 0.0
H266 H 0.37355 0.72594 0.15279 0.0
H267 H 0.39109 0.76154 0.13479 0.0
H268 H 0.34222 0.66006 0.26917 0.0
H269 H 0.41205 0.68575 0.24221 0.0
H270 H 0.40547 0.7895 0.20719 0.0
H271 H 0.35836 0.64226 0.30287 0.0
H272 H 0.42821 0.6692 0.27688 0.0
C273 C 0.15186 0.2872 0.67552 0.0
C274 C 0.12758 0.28181 0.67227 0.0
C275 C 0.16187 0.30779 0.6859 0.0
C276 C 0.14792 0.32369 0.69332 0.0
C277 C 0.12358 0.31819 0.69042 0.0
C278 C 0.11355 0.29754 0.68005 0.0
C279 C 0.15889 0.34603 0.70353 0.0
C280 C 0.18019 0.35726 0.69349 0.0
C281 C 0.19107 0.37811 0.70287 0.0
C282 C 0.18015 0.38789 0.72259 0.0
C283 C 0.15878 0.37711 0.73301 0.0
C284 C 0.1483 0.35618 0.72325 0.0
C285 C 0.14758 0.38763 0.75422 0.0
C286 C 0.1612 0.39872 0.77316 0.0
C287 C 0.1232 0.38684 0.75568 0.0
C288 C 0.1128 0.39696 0.77538 0.0
C289 C 0.12645 0.40813 0.79426 0.0
C290 C 0.21384 0.38954 0.69198 0.0
C291 C 0.23136 0.3771 0.68495 0.0
C292 C 0.21818 0.41284 0.68816 0.0
C293 C 0.2393 0.42332 0.6773 0.0
C294 C 0.25667 0.4108 0.66993 0.0
C295 C 0.25244 0.38756 0.6741 0.0
C296 C 0.15081 0.40881 0.79286 0.0
H297 H 0.16321 0.27539 0.67025 0.0
H298 H 0.18061 0.31116 0.68828 0.0
H299 H 0.11228 0.33006 0.69562 0.0
H300 H 0.09482 0.29412 0.67762 0.0
H301 H 0.18809 0.34997 0.67784 0.0
H302 H 0.13222 0.34746 0.73151 0.0
H303 H 0.18837 0.40395 0.72988 0.0
H304 H 0.17998 0.39948 0.7729 0.0
H305 H 0.11212 0.37864 0.74139 0.0
H306 H 0.09398 0.39585 0.77589 0.0
H307 H 0.22888 0.35922 0.68801 0.0
H308 H 0.20502 0.42294 0.69305 0.0
H309 H 0.16197 0.41742 0.80684 0.0
H310 H 0.26553 0.37741 0.66916 0.0
H311 H 0.24177 0.44119 0.67414 0.0
Sm312 Sm 0.0115 0.04194 0.50698 0.0
Sm313 Sm 0.99916 1.02108 0.55722 0.0
C314 C 0.01633 0.06095 0.46353 0.0
C315 C 0.03473 0.07798 0.45304 0.0
C316 C 0.03438 0.08386 0.42834 0.0
C317 C 0.05281 0.09911 0.41814 0.0
C318 C 0.07189 0.10853 0.43252 0.0
C319 C 0.07189 0.10283 0.45741 0.0
C320 C 0.05344 0.08771 0.46758 0.0
C321 C 0.04756 0.02677 0.52936 0.0
C322 C 0.02753 0.07173 0.55576 0.0
C323 C 0.99151 0.99608 0.59689 0.0
C324 C 0.98165 0.97269 0.60254 0.0
C325 C 0.98839 0.96286 0.6237 0.0
C326 C 0.97665 0.94185 0.63114 0.0
C327 C 0.95786 0.93043 0.61758 0.0
C328 C 0.95216 0.93981 0.59555 0.0
C329 C 0.96396 0.96073 0.5881 0.0
C330 C 0.97047 0.04954 0.54191 0.0
C331 C 0.98258 0.99029 0.50825 0.0
O332 O 1.00383 0.06786 0.4815 0.0
O333 O 0.02278 0.04171 0.46792 0.0
O334 O 0.02674 1.01688 0.52891 0.0
O335 O 0.05038 0.0451 0.51687 0.0
O336 O 0.01942 0.07238 0.53334 0.0
O337 O 0.02564 0.05254 0.56759 0.0
O338 O 0.01183 0.99984 0.58536 0.0
O339 O 0.97666 1.00808 0.58872 0.0
O340 O 0.97795 0.03492 0.52878 0.0
O341 O 0.97768 0.04934 0.56422 0.0
O342 O 0.9833 0.99139 0.53246 0.0
O343 O 0.99143 1.00759 0.49446 0.0
H344 H 0.02009 0.0764 0.41688 0.0
H345 H 0.05245 0.10305 0.39886 0.0
H346 H 0.08617 0.11003 0.469 0.0
H347 H 0.05393 0.08337 0.48674 0.0
H348 H 1.0021 0.97181 0.63498 0.0
H349 H 0.98175 0.93492 0.64796 0.0
H350 H 0.93765 0.93166 0.58478 0.0
H351 H 0.95846 0.96805 0.57169 0.0
Sm352 Sm 0.53651 0.0288 0.04921 0.0
Sm353 Sm 0.49364 1.02049 1.02075 0.0
C354 C 0.57405 0.04378 0.07492 0.0
C355 C 0.58157 0.06268 0.09157 0.0
C356 C 0.57232 0.08261 0.09015 0.0
C357 C 0.57761 0.09937 0.10804 0.0
C358 C 0.59186 0.09618 0.12768 0.0
C359 C 0.60155 0.07647 0.12859 0.0
C360 C 0.59646 0.05987 0.11063 0.0
C361 C 0.50985 0.98705 0.05779 0.0
C362 C 0.49288 0.05243 0.06905 0.0
C363 C 0.45265 1.008 1.00025 0.0
C364 C 0.44542 1.00013 0.97562 0.0
C365 C 0.42531 0.98395 0.97288 0.0
C366 C 0.4195 0.97466 0.9498 0.0
C367 C 0.43371 0.98148 0.92912 0.0
C368 C 0.4536 0.99805 0.93186 0.0
C369 C 0.4595 1.00719 0.95497 0.0
C370 C 0.52682 0.05468 1.0017 0.0
C371 C 0.53747 0.99895 1.00059 0.0
O372 O 0.57237 0.04838 0.0517 0.0
O373 O 0.55661 0.02905 0.08318 0.0
O374 O 0.50197 1.0052 0.05636 0.0
O375 O 0.53231 0.99057 0.05433 0.0
O376 O 0.51508 0.05095 0.07155 0.0
O377 O 0.48032 0.04133 0.05165 0.0
O378 O 0.46312 0.99433 1.01255 0.0
O379 O 0.46268 0.02898 1.00231 0.0
O380 O 0.52142 0.05179 1.02412 0.0
O381 O 0.51472 0.03911 0.98849 0.0
O382 O 0.51455 0.99516 1.0033 0.0
O383 O 0.55031 1.01482 1.01347 0.0
H384 H 0.56051 0.08491 0.07568 0.0
H385 H 0.56984 0.11438 0.10708 0.0
H386 H 0.61277 0.07374 0.14345 0.0
H387 H 0.60359 0.04452 0.11205 0.0
H388 H 0.41438 0.97818 0.98867 0.0
H389 H 0.40395 0.96206 0.94814 0.0
H390 H 0.46498 1.00343 0.91628 0.0
H391 H 0.47534 1.01941 0.95678 0.0
Sm392 Sm 0.51595 0.50746 0.51751 0.0
Sm393 Sm 0.50958 0.5477 0.55213 0.0
C394 C 0.53657 0.47898 0.49198 0.0
C395 C 0.54151 0.45684 0.49893 0.0
C396 C 0.55275 0.4543 0.521 0.0
C397 C 0.55506 0.4331 0.52911 0.0
C398 C 0.5463 0.41394 0.51527 0.0
C399 C 0.53558 0.41646 0.49285 0.0
C400 C 0.53312 0.43776 0.4848 0.0
C401 C 0.47425 0.49612 0.54385 0.0
C402 C 0.52959 0.50681 0.57681 0.0
C403 C 0.49433 0.58154 0.57436 0.0
C404 C 0.48139 0.59843 0.56503 0.0
C405 C 0.46214 0.59218 0.54976 0.0
C406 C 0.4518 0.6085 0.53854 0.0
C407 C 0.4607 0.63131 0.54214 0.0
C408 C 0.47969 0.63754 0.55773 0.0
C409 C 0.48991 0.62121 0.56913 0.0
C410 C 0.55279 0.55009 0.52944 0.0
C411 C 0.49131 0.54659 0.49407 0.0
O412 O 0.54822 0.49625 0.5037 0.0
O413 O 0.51441 0.48027 0.48946 0.0
O414 O 0.48861 0.51415 0.54515 0.0
O415 O 0.4817 0.48313 0.52746 0.0
O416 O 0.53288 0.49969 0.55407 0.0
O417 O 0.51858 0.52389 0.58145 0.0
O418 O 0.48307 0.5609 0.57549 0.0
O419 O 0.51569 0.58288 0.56565 0.0
O420 O 0.5333 0.5437 0.51954 0.0
O421 O 0.54986 0.5556 0.5523 0.0
O422 O 0.4915 0.55566 0.51639 0.0
O423 O 0.50081 0.52858 0.48921 0.0
H424 H 0.55949 0.46868 0.53229 0.0
H425 H 0.56385 0.43174 0.54617 0.0
H426 H 0.52868 0.40193 0.48182 0.0
H427 H 0.52424 0.4393 0.46782 0.0
H428 H 0.45546 0.57469 0.54592 0.0
H429 H 0.43727 0.60328 0.52649 0.0
H430 H 0.48666 0.65504 0.56109 0.0
H431 H 0.50485 0.62637 0.58065 0.0
Sm432 Sm 0.01483 0.50256 0.04315 0.0
Sm433 Sm 1.00502 0.55305 1.02469 0.0
C434 C 0.03116 0.46445 0.0429 0.0
C435 C 0.04807 0.45391 0.05608 0.0
C436 C 0.06254 0.46599 0.07363 0.0
C437 C 0.0806 0.4567 0.08375 0.0
C438 C 0.08451 0.43526 0.07634 0.0
C439 C 0.06941 0.42299 0.05935 0.0
C440 C 0.05135 0.43226 0.0493 0.0
C441 C 0.99628 0.52677 0.08022 0.0
C442 C 0.05369 0.54865 0.05414 0.0
C443 C 0.98904 0.59129 1.02237 0.0
C444 C 0.97185 0.6004 1.00798 0.0
C445 C 0.95552 0.58613 0.99398 0.0
C446 C 0.93777 0.59457 0.98224 0.0
C447 C 0.93618 0.61745 0.98421 0.0
C448 C 0.95306 0.63179 0.99765 0.0
C449 C 0.97071 0.62329 1.00951 0.0
C450 C 0.02422 0.52862 0.98817 0.0
C451 C 0.96582 0.50701 1.01417 0.0
O452 O 0.04031 0.48181 0.02969 0.0
O453 O 0.01186 0.46712 0.0548 0.0
O454 O 1.00084 0.53194 0.05816 0.0
O455 O 1.00196 0.50713 0.08373 0.0
O456 O 0.04898 0.52639 0.05279 0.0
O457 O 0.03926 0.56188 0.04642 0.0
O458 O 0.98027 0.57499 0.03713 0.0
O459 O 0.00819 0.58784 1.01075 0.0
O460 O 0.01788 0.52327 1.00973 0.0
O461 O 0.02039 0.54894 0.98487 0.0
O462 O 0.97081 0.52929 1.01486 0.0
O463 O 0.98008 0.49379 1.02231 0.0
H464 H 0.06033 0.48284 0.07888 0.0
H465 H 0.09206 0.46665 0.09663 0.0
H466 H 0.07176 0.40631 0.05356 0.0
H467 H 0.04037 0.42277 0.03569 0.0
H468 H 0.95621 0.56839 0.99257 0.0
H469 H 0.9252 0.58318 0.97176 0.0
H470 H 0.95216 0.64944 0.99969 0.0
H471 H 0.98314 0.63449 1.02036 0.0
H472 H 0.2598 0.20175 0.32095 0.0
H473 H 0.22966 0.18034 0.34757 0.0
H474 H 0.1912 0.23531 0.34869 0.0
H475 H 0.22133 0.25696 0.32233 0.0
H476 H 0.20092 0.20339 0.39843 0.0
H477 H 0.15628 0.1668 0.31408 0.0
H478 H 0.18779 0.17217 0.31523 0.0
H479 H 0.17209 0.19517 0.31446 0.0
C480 C 0.24526 0.20951 0.32741 0.0
C481 C 0.24282 0.23096 0.31943 0.0
C482 C 0.22805 0.19724 0.34251 0.0
C483 C 0.20831 0.20631 0.34991 0.0
C484 C 0.2064 0.22812 0.34309 0.0
H485 H 0.07103 0.14322 0.40116 0.0
H486 H 0.10451 0.16777 0.38243 0.0
C487 C 0.22352 0.24037 0.32796 0.0
C488 C 0.18858 0.1923 0.36273 0.0
H489 H 0.13847 0.15551 0.35199 0.0
C490 C 0.18724 0.19285 0.3884 0.0
C491 C 0.1708 0.17884 0.34941 0.0
C492 C 0.17159 0.17806 0.32175 0.0
C493 C 0.16836 0.18015 0.40121 0.0
C494 C 0.15066 0.16641 0.38787 0.0
C495 C 0.15205 0.16603 0.36215 0.0
C496 C 0.13054 0.15218 0.40012 0.0
C497 C 0.16728 0.18192 0.42881 0.0
C498 C 0.1341 0.13518 0.41608 0.0
C499 C 0.11504 0.12117 0.42679 0.0
C500 C 0.09206 0.12376 0.42151 0.0
C501 C 0.08854 0.14073 0.40542 0.0
C502 C 0.10762 0.15481 0.39481 0.0
H503 H 0.17837 0.19746 0.43561 0.0
H504 H 0.14905 0.18167 0.43561 0.0
H505 H 0.17377 0.16742 0.43675 0.0
H506 H 0.15162 0.13245 0.41989 0.0
H507 H 0.1183 0.10797 0.43877 0.0
H508 H 0.39526 0.88122 0.71683 0.0
H509 H 0.41119 0.89423 0.75682 0.0
H510 H 0.35642 0.93374 0.76724 0.0
H511 H 0.34042 0.92078 0.72761 0.0
H512 H 0.42715 0.93725 0.77471 0.0
H513 H 0.35046 0.89604 0.82908 0.0
H514 H 0.35511 0.8893 0.7972 0.0
H515 H 0.34259 0.91365 0.80561 0.0
C516 C 0.38672 0.89274 0.72766 0.0
C517 C 0.36642 0.89974 0.71932 0.0
C518 C 0.39577 0.9001 0.75046 0.0
C519 C 0.38465 0.91453 0.76516 0.0
C520 C 0.36486 0.9221 0.75647 0.0
H521 H 0.43331 1.00222 0.88505 0.0
H522 H 0.42341 0.98468 0.84513 0.0
C523 C 0.35576 0.91469 0.73384 0.0
C524 C 0.39364 0.92193 0.78959 0.0
H525 H 0.37689 0.92446 0.84976 0.0
C526 C 0.41631 0.93426 0.7912 0.0
C527 C 0.37958 0.91765 0.81109 0.0
C528 C 0.35568 0.90323 0.81075 0.0
C529 C 0.42495 0.94324 0.81369 0.0
C530 C 0.4103 0.94016 0.83491 0.0
C531 C 0.388 0.92705 0.83341 0.0
C532 C 0.41743 0.95073 0.8588 0.0
C533 C 0.44967 0.95587 0.81447 0.0
C534 C 0.41675 0.93753 0.87982 0.0
C535 C 0.42205 0.94753 0.90266 0.0
C536 C 0.42815 0.97093 0.90487 0.0
C537 C 0.42894 0.98413 0.88379 0.0
C538 C 0.42344 0.97412 0.86098 0.0
H539 H 0.46062 0.9507 0.79916 0.0
H540 H 0.44945 0.97405 0.8126 0.0
H541 H 0.45796 0.95321 0.83208 0.0
H542 H 0.41205 0.91946 0.87855 0.0
H543 H 0.42156 0.93695 0.91858 0.0
H544 H 0.58553 0.3815 0.75091 0.0
H545 H 0.56974 0.39944 0.71664 0.0
H546 H 0.62404 0.45703 0.72425 0.0
H547 H 0.64046 0.43892 0.75786 0.0
H548 H 0.55219 0.43836 0.71431 0.0
H549 H 0.62939 0.44343 0.65169 0.0
H550 H 0.62615 0.42671 0.67907 0.0
H551 H 0.63615 0.45646 0.68099 0.0
C552 C 0.59437 0.39785 0.74512 0.0
C553 C 0.61445 0.4086 0.75727 0.0
C554 C 0.58516 0.4082 0.72557 0.0
C555 C 0.59583 0.42951 0.71746 0.0
C556 C 0.61568 0.44041 0.72971 0.0
H557 H 0.53151 0.5192 0.62562 0.0
H558 H 0.54708 0.50053 0.65947 0.0
C559 C 0.6249 0.4301 0.74925 0.0
C560 C 0.58597 0.44046 0.69652 0.0
H561 H 0.59972 0.46363 0.64001 0.0
C562 C 0.5626 0.44383 0.69805 0.0
C563 C 0.59933 0.44736 0.67502 0.0
C564 C 0.62407 0.44313 0.6714 0.0
C565 C 0.55241 0.45418 0.67904 0.0
C566 C 0.56603 0.46182 0.65794 0.0
C567 C 0.58928 0.45808 0.65622 0.0
C568 C 0.55643 0.47335 0.63727 0.0
C569 C 0.52696 0.45639 0.68157 0.0
C570 C 0.55694 0.46476 0.61321 0.0
C571 C 0.54819 0.47553 0.59372 0.0
C572 C 0.5388 0.49531 0.59768 0.0
C573 C 0.53843 0.50396 0.62178 0.0
C574 C 0.54723 0.49319 0.64127 0.0
H575 H 0.51748 0.4443 0.69499 0.0
H576 H 0.52562 0.47354 0.68822 0.0
H577 H 0.51814 0.45364 0.66368 0.0
H578 H 0.56395 0.44954 0.6095 0.0
H579 H 0.5487 0.46822 0.57556 0.0
H580 H 0.93098 0.62305 0.27717 0.0
H581 H 0.9485 0.60384 0.24353 0.0
H582 H 0.90227 0.62677 0.19264 0.0
H583 H 0.8849 0.64632 0.22608 0.0
H584 H 0.92518 0.5697 0.21164 0.0
H585 H 0.96758 0.64442 0.1596 0.0
H586 H 0.95791 0.64611 0.19119 0.0
H587 H 0.9371 0.64344 0.16705 0.0
C588 C 0.92472 0.62428 0.25878 0.0
C589 C 0.90653 0.63635 0.25441 0.0
C590 C 0.93468 0.61315 0.23957 0.0
C591 C 0.92693 0.61404 0.21545 0.0
C592 C 0.90882 0.62608 0.21099 0.0
H593 H 0.96537 0.55596 0.07547 0.0
H594 H 0.94884 0.57738 0.10798 0.0
C595 C 0.89873 0.63709 0.23022 0.0
C596 C 0.93727 0.60176 0.19518 0.0
H597 H 0.96828 0.60902 0.14089 0.0
C598 C 0.93469 0.57831 0.19622 0.0
C599 C 0.94952 0.61294 0.17492 0.0
C600 C 0.95342 0.63813 0.17309 0.0
C601 C 0.9437 0.56573 0.17749 0.0
C602 C 0.95628 0.57691 0.15736 0.0
C603 C 0.95874 0.60039 0.15627 0.0
C604 C 0.96706 0.56457 0.13737 0.0
C605 C 0.93906 0.54051 0.17918 0.0
C606 C 0.9832 0.55052 0.1428 0.0
C607 C 0.99274 0.53844 0.12415 0.0
C608 C 0.9868 0.54048 0.09955 0.0
C609 C 0.97099 0.55477 0.09404 0.0
C610 C 0.96129 0.56677 0.11272 0.0
H611 H 0.9236 0.53451 0.19118 0.0
H612 H 0.93611 0.53255 0.1608 0.0
H613 H 0.9544 0.53482 0.18722 0.0
H614 H 0.98843 0.54887 0.16151 0.0
H615 H 1.00488 0.52753 0.12897 0.0
H616 H 0.39321 0.18742 0.20799 0.0
H617 H 0.41582 0.15911 0.19353 0.0
H618 H 0.42244 0.18879 0.12176 0.0
H619 H 0.40094 0.2179 0.13639 0.0
H620 H 0.4046 0.12816 0.15889 0.0
H621 H 0.48874 0.1807 0.13263 0.0
H622 H 0.46666 0.19141 0.15089 0.0
H623 H 0.46463 0.18968 0.118 0.0
C624 C 0.39997 0.18831 0.18929 0.0
C625 C 0.39531 0.20506 0.17339 0.0
C626 C 0.41275 0.17197 0.181 0.0
C627 C 0.42114 0.172 0.15666 0.0
C628 C 0.41663 0.18872 0.14077 0.0
H629 H 0.4488 0.06237 0.06688 0.0
H630 H 0.43226 0.09037 0.09083 0.0
C631 C 0.404 0.20517 0.14908 0.0
C632 C 0.4332 0.15369 0.14743 0.0
H633 H 0.4817 0.14336 0.11566 0.0
C634 C 0.42159 0.13148 0.14971 0.0
C635 C 0.45557 0.15793 0.13587 0.0
C636 C 0.46973 0.18121 0.13443 0.0
C637 C 0.43128 0.1135 0.13981 0.0
C638 C 0.45288 0.1179 0.12673 0.0
C639 C 0.46498 0.14001 0.12541 0.0
C640 C 0.46266 0.10003 0.11324 0.0
C641 C 0.41824 0.08998 0.14348 0.0
C642 C 0.48547 0.09639 0.11753 0.0
C643 C 0.49514 0.08051 0.10362 0.0
C644 C 0.48217 0.06801 0.08511 0.0
C645 C 0.45923 0.07152 0.08111 0.0
C646 C 0.44965 0.08746 0.09492 0.0
H647 H 0.40683 0.08889 0.16022 0.0
H648 H 0.40687 0.08504 0.12757 0.0
H649 H 0.43044 0.07781 0.145 0.0
H650 H 0.49588 0.10602 0.13148 0.0
H651 H 0.5129 0.07831 0.10712 0.0
H652 H 0.2023 0.90615 0.54859 0.0
H653 H 0.17129 0.92818 0.54222 0.0
H654 H 0.18906 0.96458 0.60962 0.0
H655 H 0.21973 0.94226 0.61633 0.0
H656 H 0.14247 0.95308 0.60532 0.0
H657 H 0.18137 0.99228 0.51948 0.0
H658 H 0.17671 0.96227 0.51764 0.0
H659 H 0.19716 0.97672 0.5392 0.0
C660 C 0.19957 0.9189 0.56198 0.0
C661 C 0.21341 0.92263 0.58287 0.0
C662 C 0.18198 0.93151 0.55829 0.0
C663 C 0.17827 0.94833 0.57518 0.0
C664 C 0.19175 0.95176 0.59632 0.0
H665 H 0.09282 0.04682 0.53449 0.0
H666 H 0.12516 0.02965 0.54917 0.0
C667 C 0.20917 0.93898 0.60015 0.0
C668 C 0.1602 0.96225 0.57086 0.0
H669 H 0.14162 0.99571 0.52846 0.0
C670 C 0.14237 0.96259 0.58863 0.0
C671 C 0.16044 0.97506 0.54935 0.0
C672 C 0.18009 0.97679 0.53046 0.0
C673 C 0.12423 0.97474 0.58502 0.0
C674 C 0.12365 0.98632 0.56276 0.0
C675 C 0.14196 0.98664 0.54542 0.0
C676 C 0.10378 0.99739 0.55644 0.0
C677 C 0.10599 0.97512 0.60513 0.0
C678 C 0.08108 0.98498 0.55582 0.0
C679 C 0.06262 0.99481 0.54772 0.0
C680 C 0.06669 1.01706 0.53964 0.0
C681 C 0.08931 0.0296 0.54056 0.0
C682 C 0.10773 1.01983 0.54895 0.0
H683 H 0.11308 0.97239 0.62337 0.0
H684 H 0.09933 0.99127 0.60565 0.0
H685 H 0.09109 0.96139 0.60186 0.0
H686 H 0.07773 0.96748 0.56086 0.0
H687 H 0.04533 0.98476 0.54705 0.0
H688 H 0.75649 0.43311 0.9357 0.0
H689 H 0.79247 0.45168 0.95491 0.0
H690 H 0.8327 0.41308 0.90907 0.0
H691 H 0.79692 0.39481 0.88937 0.0
H692 H 0.82538 0.43267 0.98092 0.0
H693 H 0.86667 0.47762 0.89892 0.0
H694 H 0.83606 0.46542 0.90048 0.0
H695 H 0.85776 0.44799 0.89438 0.0
C696 C 0.77301 0.42875 0.92944 0.0
C697 C 0.7737 0.41247 0.91084 0.0
C698 C 0.79358 0.43929 0.9406 0.0
C699 C 0.8154 0.43402 0.93328 0.0
C700 C 0.81617 0.41773 0.91481 0.0
H701 H 0.94705 0.46215 1.01138 0.0
H702 H 0.91057 0.44474 0.9924 0.0
C703 C 0.7956 0.4071 0.90372 0.0
C704 C 0.83726 0.44523 0.94529 0.0
H705 H 0.89032 0.4782 0.93392 0.0
C706 C 0.83955 0.44265 0.97064 0.0
C707 C 0.85571 0.45851 0.93199 0.0
C708 C 0.85395 0.46278 0.90498 0.0
C709 C 0.85987 0.4526 0.9829 0.0
C710 C 0.87858 0.46535 0.96947 0.0
C711 C 0.87612 0.46828 0.94421 0.0
C712 C 0.90075 0.47597 0.98132 0.0
C713 C 0.86099 0.44966 1.01024 0.0
C714 C 0.90771 0.49935 0.98113 0.0
C715 C 0.92861 0.5094 0.992 0.0
C716 C 0.94326 0.49631 1.00313 0.0
C717 C 0.93627 0.47285 1.00313 0.0
C718 C 0.9153 0.46283 0.99236 0.0
H719 H 0.84336 0.44425 1.01867 0.0
H720 H 0.87174 0.43662 1.01394 0.0
H721 H 0.86925 0.46548 1.01927 0.0
H722 H 0.89687 0.50987 0.97265 0.0
H723 H 0.93333 0.52747 0.99147 0.0
H724 H 0.76161 0.62439 0.44759 0.0
H725 H 0.72515 0.60727 0.46803 0.0
H726 H 0.68672 0.61832 0.40408 0.0
H727 H 0.72293 0.6363 0.38369 0.0
H728 H 0.68168 0.63033 0.47387 0.0
H729 H 0.66776 0.54867 0.42357 0.0
H730 H 0.69646 0.5654 0.42668 0.0
H731 H 0.67607 0.57393 0.40612 0.0
C732 C 0.74545 0.62344 0.43784 0.0
C733 C 0.74541 0.63191 0.41389 0.0
C734 C 0.7246 0.61345 0.44955 0.0
C735 C 0.70325 0.61137 0.43752 0.0
C736 C 0.70305 0.61951 0.41359 0.0
H737 H 0.56003 0.55209 0.47961 0.0
H738 H 0.59647 0.56678 0.45726 0.0
C739 C 0.72387 0.6297 0.40191 0.0
C740 C 0.6811 0.60144 0.45039 0.0
H741 H 0.63868 0.55482 0.45257 0.0
C742 C 0.67227 0.61381 0.46928 0.0
C743 C 0.66875 0.58001 0.44417 0.0
C744 C 0.67766 0.56605 0.42411 0.0
C745 C 0.65131 0.60542 0.48199 0.0
C746 C 0.63916 0.58366 0.47624 0.0
C747 C 0.64796 0.57138 0.45715 0.0
C748 C 0.61731 0.57349 0.48976 0.0
C749 C 0.64208 0.62029 0.50096 0.0
C750 C 0.61692 0.57163 0.51544 0.0
C751 C 0.59607 0.56348 0.52823 0.0
C752 C 0.57521 0.55659 0.51562 0.0
C753 C 0.57581 0.55734 0.48985 0.0
C754 C 0.59664 0.56575 0.47706 0.0
H755 H 0.64907 0.63827 0.49771 0.0
H756 H 0.62269 0.61792 0.50103 0.0
H757 H 0.64767 0.61609 0.51939 0.0
H758 H 0.63271 0.57674 0.52567 0.0
H759 H 0.59622 0.56286 0.54806 0.0
H760 H 0.26846 0.34805 0.11743 0.0
H761 H 0.23745 0.36615 0.10115 0.0
H762 H 0.21514 0.38051 0.17472 0.0
H763 H 0.24538 0.3619 0.19121 0.0
H764 H 0.18746 0.35178 0.11436 0.0
H765 H 0.22042 0.4412 0.13692 0.0
H766 H 0.23939 0.42046 0.13423 0.0
H767 H 0.22127 0.42158 0.1612 0.0
C768 C 0.25703 0.35512 0.13017 0.0
C769 C 0.25953 0.35352 0.15567 0.0
C770 C 0.23942 0.36556 0.12082 0.0
C771 C 0.22422 0.37484 0.13676 0.0
C772 C 0.227 0.3738 0.16213 0.0
H773 H 0.10084 0.43642 0.12319 0.0
H774 H 0.13482 0.42154 0.13752 0.0
C775 C 0.24442 0.36323 0.1715 0.0
C776 C 0.20435 0.38415 0.12708 0.0
H777 H 0.18141 0.43226 0.12338 0.0
C778 C 0.18618 0.3694 0.1161 0.0
C779 C 0.2027 0.40707 0.12972 0.0
C780 C 0.22203 0.42361 0.14099 0.0
C781 C 0.16608 0.3769 0.10808 0.0
C782 C 0.16444 0.39989 0.11059 0.0
C783 C 0.1827 0.41466 0.12149 0.0
C784 C 0.14394 0.40894 0.10189 0.0
C785 C 0.1465 0.36002 0.0977 0.0
C786 C 0.13802 0.40706 0.07708 0.0
C787 C 0.11864 0.41546 0.06889 0.0
C788 C 0.10491 0.42613 0.08531 0.0
C789 C 0.11111 0.42835 0.1101 0.0
C790 C 0.13047 0.41982 0.1183 0.0
H791 H 0.14761 0.34269 0.1034 0.0
H792 H 0.12917 0.36387 0.10362 0.0
H793 H 0.14768 0.36051 0.07738 0.0
H794 H 0.14853 0.39925 0.06398 0.0
H795 H 0.11464 0.41394 0.04959 0.0
H796 H 0.58347 0.24215 0.88712 0.0
H797 H 0.56746 0.20624 0.90601 0.0
H798 H 0.62993 0.20944 0.94787 0.0
H799 H 0.64592 0.24555 0.92956 0.0
H800 H 0.61562 0.16735 0.9251 0.0
H801 H 0.54198 0.19526 0.97676 0.0
H802 H 0.5433 0.20152 0.9446 0.0
H803 H 0.56624 0.21471 0.96412 0.0
C804 C 0.59374 0.23545 0.90059 0.0
C805 C 0.61608 0.247 0.90672 0.0
C806 C 0.58453 0.21481 0.91137 0.0
C807 C 0.59734 0.20514 0.92861 0.0
C808 C 0.61967 0.21648 0.93464 0.0
H809 H 0.54481 0.09327 1.0265 0.0
H810 H 0.56281 0.12946 1.0091 0.0
C811 C 0.62886 0.23715 0.92397 0.0
C812 C 0.58771 0.18307 0.94004 0.0
H813 H 0.54269 0.15619 0.97599 0.0
C814 C 0.59969 0.16494 0.93625 0.0
C815 C 0.56707 0.17989 0.95489 0.0
C816 C 0.55395 0.19889 0.96058 0.0
C817 C 0.59139 0.14373 0.94644 0.0
C818 C 0.5704 0.14039 0.96072 0.0
C819 C 0.55867 0.15863 0.96492 0.0
C820 C 0.56026 0.11809 0.97132 0.0
C821 C 0.60534 0.12511 0.94209 0.0
C822 C 0.5528 0.09954 0.95597 0.0
C823 C 0.54244 0.07886 0.96588 0.0
C824 C 0.53928 0.07621 0.99139 0.0
C825 C 0.54704 0.0947 1.00678 0.0
C826 C 0.55727 0.11544 0.99684 0.0
H827 H 0.62364 0.13166 0.93619 0.0
H828 H 0.6056 0.11506 0.95892 0.0
H829 H 0.59711 0.1138 0.92741 0.0
H830 H 0.55454 0.10117 0.93624 0.0
H831 H 0.53658 0.06501 0.9535 0.0
H832 H 0.92756 0.78693 0.42552 0.0
H833 H 0.94267 0.82312 0.44468 0.0
H834 H 0.89261 0.8537 0.40596 0.0
H835 H 0.87759 0.81772 0.38645 0.0
H836 H 0.96212 0.86427 0.42385 0.0
H837 H 0.88128 0.87152 0.47752 0.0
H838 H 0.88617 0.84557 0.46325 0.0
H839 H 0.87695 0.86699 0.44522 0.0
C840 C 0.91988 0.80137 0.42083 0.0
C841 C 0.90119 0.79923 0.40446 0.0
C842 C 0.92848 0.82206 0.43195 0.0
C843 C 0.91854 0.84111 0.42713 0.0
C844 C 0.90022 0.83917 0.41046 0.0
H845 H 0.97887 0.98065 0.45894 0.0
H846 H 0.9634 0.94477 0.43936 0.0
C847 C 0.89163 0.81851 0.39931 0.0
C848 C 0.92749 0.86302 0.43935 0.0
H849 H 0.91126 0.90349 0.47727 0.0
C850 C 0.951 0.87283 0.43555 0.0
C851 C 0.91309 0.8741 0.4549 0.0
C852 C 0.88802 0.86396 0.46071 0.0
C853 C 0.96037 0.89352 0.44649 0.0
C854 C 0.94579 0.90492 0.46146 0.0
C855 C 0.92239 0.89492 0.4656 0.0
C856 C 0.95462 0.927 0.47335 0.0
C857 C 0.98593 0.90279 0.44229 0.0
C858 C 0.95425 0.92925 0.49901 0.0
C859 C 0.96301 0.94981 0.51031 0.0
C860 C 0.97219 0.96871 0.49621 0.0
C861 C 0.97205 0.96651 0.47046 0.0
C862 C 0.96333 0.94592 0.45919 0.0
H863 H 0.99588 0.88965 0.43568 0.0
H864 H 0.98773 0.91602 0.42817 0.0
H865 H 0.99393 0.91041 0.45938 0.0
H866 H 0.94752 0.91496 0.51036 0.0
H867 H 0.96279 0.95076 0.53014 0.0
H868 H 0.33402 0.76614 0.53935 0.0
H869 H 0.3547 0.73643 0.52508 0.0
H870 H 0.40663 0.78512 0.4887 0.0
H871 H 0.38589 0.81516 0.50287 0.0
H872 H 0.37343 0.72113 0.47898 0.0
H873 H 0.44126 0.75975 0.54469 0.0
H874 H 0.41275 0.76775 0.54421 0.0
H875 H 0.43405 0.7771 0.52054 0.0
C876 C 0.34937 0.77052 0.5276 0.0
C877 C 0.35852 0.79304 0.52253 0.0
C878 C 0.36119 0.75349 0.51948 0.0
C879 C 0.38234 0.75868 0.5062 0.0
C880 C 0.39047 0.78088 0.49923 0.0
H881 H 0.48315 0.66784 0.51737 0.0
H882 H 0.46584 0.6985 0.50082 0.0
C883 C 0.37867 0.79799 0.50741 0.0
C884 C 0.39729 0.74134 0.50325 0.0
H885 H 0.44421 0.72442 0.52897 0.0
C886 C 0.3892 0.72196 0.48947 0.0
C887 C 0.41785 0.74256 0.51696 0.0
C888 C 0.42703 0.7628 0.53258 0.0
C889 C 0.40063 0.70331 0.4899 0.0
C890 C 0.42026 0.70401 0.50494 0.0
C891 C 0.42915 0.72392 0.51745 0.0
C892 C 0.43023 0.68377 0.51056 0.0
C893 C 0.39126 0.68292 0.4747 0.0
C894 C 0.41594 0.66519 0.52124 0.0
C895 C 0.42578 0.64769 0.53064 0.0
C896 C 0.45012 0.64866 0.5299 0.0
C897 C 0.46435 0.66686 0.51844 0.0
C898 C 0.45448 0.68426 0.50882 0.0
H899 H 0.38279 0.68769 0.45798 0.0
H900 H 0.40529 0.67337 0.46912 0.0
H901 H 0.37779 0.67178 0.48562 0.0
H902 H 0.39729 0.66474 0.5235 0.0
H903 H 0.41445 0.63394 0.53958 0.0
H904 H 0.77566 0.79431 0.69885 0.0
H905 H 0.80959 0.80605 0.67132 0.0
H906 H 0.84382 0.84759 0.72911 0.0
H907 H 0.81049 0.83575 0.75662 0.0
H908 H 0.828 0.85055 0.65747 0.0
H909 H 0.89428 0.81214 0.70469 0.0
H910 H 0.86324 0.8033 0.70986 0.0
H911 H 0.8785 0.82764 0.72549 0.0
C912 C 0.79055 0.80579 0.70567 0.0
C913 C 0.79037 0.81424 0.72982 0.0
C914 C 0.80986 0.81246 0.68997 0.0
C915 C 0.82935 0.82734 0.69837 0.0
C916 C 0.82916 0.83572 0.72244 0.0
H917 H 0.94347 0.92303 0.66517 0.0
H918 H 0.91384 0.89306 0.68105 0.0
C919 C 0.80994 0.8292 0.73802 0.0
C920 C 0.84943 0.83559 0.68182 0.0
H921 H 0.90906 0.84454 0.67976 0.0
C922 C 0.84572 0.84877 0.66183 0.0
C923 C 0.87246 0.83309 0.68756 0.0
C924 C 0.87736 0.81807 0.70794 0.0
C925 C 0.8646 0.86111 0.64874 0.0
C926 C 0.88768 0.85992 0.65571 0.0
C927 C 0.89134 0.84547 0.67455 0.0
C928 C 0.90789 0.8759 0.64615 0.0
C929 C 0.85975 0.87661 0.62878 0.0
C930 C 0.91493 0.87571 0.62139 0.0
C931 C 0.93211 0.89281 0.61221 0.0
C932 C 0.94249 0.91033 0.62769 0.0
C933 C 0.93617 0.90969 0.65276 0.0
C934 C 0.9191 0.89262 0.66188 0.0
H935 H 0.84085 0.87752 0.62764 0.0
H936 H 0.86955 0.89377 0.63198 0.0
H937 H 0.86574 0.87055 0.61083 0.0
H938 H 0.90668 0.86273 0.60905 0.0
H939 H 0.93684 0.89263 0.59289 0.0
H940 H 0.64004 0.15727 0.33288 0.0
H941 H 0.6238 0.15039 0.29213 0.0
H942 H 0.65806 0.21595 0.26938 0.0
H943 H 0.6752 0.22268 0.31002 0.0
H944 H 0.59533 0.17351 0.2647 0.0
H945 H 0.68259 0.17369 0.21952 0.0
H946 H 0.67847 0.17248 0.25238 0.0
H947 H 0.67855 0.19835 0.2367 0.0
C948 C 0.64427 0.17019 0.31919 0.0
C949 C 0.65922 0.19037 0.32455 0.0
C950 C 0.63477 0.16633 0.296 0.0
C951 C 0.63998 0.18255 0.27769 0.0
C952 C 0.65413 0.2031 0.28318 0.0
H953 H 0.60678 0.14149 0.12487 0.0
H954 H 0.61601 0.16797 0.15935 0.0
C955 C 0.66373 0.20698 0.30644 0.0
C956 C 0.63138 0.17708 0.25267 0.0
H957 H 0.64961 0.16194 0.19588 0.0
C958 C 0.60717 0.17141 0.24948 0.0
C959 C 0.6469 0.1745 0.23283 0.0
C960 C 0.67309 0.17992 0.2354 0.0
C961 C 0.59811 0.16194 0.22741 0.0
C962 C 0.61368 0.15789 0.20823 0.0
C963 C 0.63777 0.16512 0.21071 0.0
C964 C 0.6058 0.14301 0.18732 0.0
C965 C 0.572 0.1554 0.22515 0.0
C966 C 0.59711 0.12035 0.19176 0.0
C967 C 0.59215 0.10531 0.1723 0.0
C968 C 0.59576 0.11267 0.14801 0.0
C969 C 0.6038 0.1355 0.14348 0.0
C970 C 0.60904 0.15056 0.16307 0.0
H971 H 0.56251 0.16567 0.23756 0.0
H972 H 0.56655 0.15728 0.20601 0.0
H973 H 0.56672 0.13758 0.23037 0.0
H974 H 0.59491 0.11413 0.21035 0.0
H975 H 0.58577 0.08783 0.17623 0.0
H976 H 0.43512 0.63567 0.29377 0.0
H977 H 0.45109 0.61796 0.32804 0.0
H978 H 0.39296 0.62943 0.37419 0.0
H979 H 0.37719 0.64788 0.34037 0.0
H980 H 0.46309 0.63653 0.37712 0.0
H981 H 0.39432 0.56055 0.37942 0.0
H982 H 0.39958 0.57854 0.35303 0.0
H983 H 0.38415 0.58702 0.37949 0.0
C984 C 0.42579 0.63477 0.31123 0.0
C985 C 0.40469 0.6433 0.31401 0.0
C986 C 0.43493 0.62444 0.33084 0.0
C987 C 0.42313 0.62209 0.35368 0.0
C988 C 0.40222 0.63068 0.35666 0.0
H989 H 0.47555 0.58699 0.49493 0.0
H990 H 0.45911 0.60527 0.46135 0.0
C991 C 0.39315 0.64118 0.33714 0.0
C992 C 0.43277 0.61079 0.3744 0.0
H993 H 0.42206 0.56446 0.41092 0.0
C994 C 0.45411 0.62078 0.38452 0.0
C995 C 0.4212 0.59013 0.38398 0.0
C996 C 0.39862 0.57825 0.37338 0.0
C997 C 0.46397 0.61087 0.40408 0.0
C998 C 0.45221 0.59037 0.41392 0.0
C999 C 0.43104 0.58022 0.40356 0.0
C1000 C 0.46184 0.57903 0.43463 0.0
C1001 C 0.48714 0.62222 0.41383 0.0
C1002 C 0.46846 0.55791 0.43111 0.0
C1003 C 0.47791 0.54737 0.45034 0.0
C1004 C 0.48074 0.55755 0.47371 0.0
C1005 C 0.47368 0.57856 0.47727 0.0
C1006 C 0.46438 0.58915 0.45799 0.0
H1007 H 0.49632 0.63506 0.40101 0.0
H1008 H 0.48414 0.63067 0.43152 0.0
H1009 H 0.49869 0.60977 0.41723 0.0
H1010 H 0.46661 0.54969 0.41333 0.0
H1011 H 0.48303 0.53121 0.44683 0.0
H1012 H 0.1378 0.40954 0.84305 0.0
H1013 H 0.12024 0.42815 0.87704 0.0
H1014 H 0.0726 0.45045 0.82726 0.0
H1015 H 0.09013 0.43201 0.79315 0.0
H1016 H 0.11755 0.47234 0.88418 0.0
H1017 H 0.0282 0.4228 0.88146 0.0
H1018 H 0.05274 0.41426 0.8652 0.0
H1019 H 0.03806 0.43526 0.85258 0.0
C1020 C 0.12364 0.41846 0.83925 0.0
C1021 C 0.1154 0.41914 0.81523 0.0
C1022 C 0.11351 0.42902 0.85879 0.0
C1023 C 0.09479 0.44045 0.85489 0.0
C1024 C 0.0866 0.44128 0.83094 0.0
H1025 H 0.04881 0.54348 0.94693 0.0
H1026 H 0.06615 0.52156 0.91567 0.0
C1027 C 0.09669 0.4307 0.81139 0.0
C1028 C 0.08445 0.45214 0.87569 0.0
H1029 H 0.03303 0.45599 0.90622 0.0
C1030 C 0.09909 0.46866 0.88906 0.0
C1031 C 0.06041 0.44717 0.88243 0.0
C1032 C 0.04396 0.42876 0.86984 0.0
C1033 C 0.09029 0.4807 0.9084 0.0
C1034 C 0.06607 0.47643 0.91441 0.0
C1035 C 0.05154 0.45947 0.90152 0.0
C1036 C 0.05546 0.4897 0.93362 0.0
C1037 C 0.10713 0.49775 0.92241 0.0
C1038 C 0.043 0.47912 0.95388 0.0
C1039 C 0.03292 0.49168 0.97177 0.0
C1040 C 0.03507 0.51505 0.96972 0.0
C1041 C 0.04713 0.52553 0.94921 0.0
C1042 C 0.0572 0.51302 0.93138 0.0
H1043 H 0.12533 0.49441 0.92056 0.0
H1044 H 0.10685 0.51466 0.91497 0.0
H1045 H 0.10217 0.49791 0.94219 0.0
H1046 H 0.04109 0.46112 0.95587 0.0
H1047 H 0.02302 0.48305 0.98688 0.0
H1048 H 0.63897 0.84076 0.92084 0.0
H1049 H 0.61744 0.86811 0.94005 0.0
H1050 H 0.61295 0.8987 0.86974 0.0
H1051 H 0.63499 0.87171 0.8506 0.0
H1052 H 0.6265 0.92958 0.90364 0.0
H1053 H 0.54919 0.87201 0.93956 0.0
H1054 H 0.57598 0.86495 0.95021 0.0
H1055 H 0.56981 0.86297 0.91797 0.0
C1056 C 0.63307 0.85312 0.90946 0.0
C1057 C 0.63859 0.85411 0.88424 0.0
C1058 C 0.6207 0.86869 0.92042 0.0
C1059 C 0.61323 0.88525 0.90628 0.0
C1060 C 0.61848 0.88605 0.88101 0.0
H1061 H 0.51706 0.96958 0.96584 0.0
H1062 H 0.53539 0.94323 0.94087 0.0
C1063 C 0.63107 0.87066 0.87011 0.0
C1064 C 0.60108 0.90249 0.91801 0.0
H1065 H 0.55506 0.90944 0.95575 0.0
C1066 C 0.61075 0.92518 0.91485 0.0
C1067 C 0.58032 0.89679 0.93231 0.0
C1068 C 0.56808 0.87286 0.93501 0.0
C1069 C 0.60058 0.94229 0.92611 0.0
C1070 C 0.58058 0.93652 0.94154 0.0
C1071 C 0.57055 0.91386 0.94416 0.0
C1072 C 0.56993 0.95363 0.95546 0.0
C1073 C 0.61124 0.96634 0.92109 0.0
C1074 C 0.58326 0.96833 0.97189 0.0
C1075 C 0.57289 0.98361 0.98597 0.0
C1076 C 0.54888 0.98417 0.98422 0.0
C1077 C 0.5356 0.96954 0.96764 0.0
C1078 C 0.54604 0.95445 0.95337 0.0
H1079 H 0.62113 0.96793 0.90332 0.0
H1080 H 0.59767 0.97723 0.92073 0.0
H1081 H 0.6237 0.97255 0.93575 0.0
H1082 H 0.60157 0.96762 0.97432 0.0
H1083 H 0.58355 0.99447 0.99877 0.0
H1084 H 0.79057 0.12165 0.47708 0.0
H1085 H 0.82392 0.10491 0.48908 0.0
H1086 H 0.86843 0.1695 0.48483 0.0
H1087 H 0.83533 0.18627 0.47166 0.0
H1088 H 0.88902 0.13574 0.46424 0.0
H1089 H 0.85231 0.11198 0.55667 0.0
H1090 H 0.83295 0.10098 0.53263 0.0
H1091 H 0.8402 0.13082 0.53728 0.0
C1092 C 0.8075 0.13227 0.47836 0.0
C1093 C 0.81027 0.15533 0.47353 0.0
C1094 C 0.82647 0.12272 0.48553 0.0
C1095 C 0.84848 0.13607 0.48834 0.0
C1096 C 0.85149 0.15897 0.483 0.0
H1097 H 0.95709 0.08483 0.56636 0.0
H1098 H 0.92982 0.10861 0.55269 0.0
C1099 C 0.83254 0.16854 0.47567 0.0
C1100 C 0.86832 0.12603 0.49685 0.0
H1101 H 0.88493 0.09536 0.54314 0.0
C1102 C 0.88828 0.12708 0.48159 0.0
C1103 C 0.86744 0.11517 0.5197 0.0
C1104 C 0.84718 0.11485 0.53763 0.0
C1105 C 0.90709 0.11679 0.48821 0.0
C1106 C 0.90557 0.10475 0.51039 0.0
C1107 C 0.88596 0.10441 0.52601 0.0
C1108 C 0.92371 0.09179 0.51757 0.0
C1109 C 0.9284 0.11902 0.47146 0.0
C1110 C 0.92936 0.07453 0.50231 0.0
C1111 C 0.94505 0.06108 0.51 0.0
C1112 C 0.95497 0.06445 0.53324 0.0
C1113 C 0.94954 0.08186 0.5484 0.0
C1114 C 0.93404 0.09544 0.5406 0.0
H1115 H 0.93006 0.13426 0.46001 0.0
H1116 H 0.94464 0.11977 0.48202 0.0
H1117 H 0.92679 0.10428 0.4589 0.0
H1118 H 0.92114 0.07103 0.48474 0.0
H1119 H 0.94894 0.04771 0.49802 0.0
H1120 H 0.24444 0.60868 0.17511 0.0
H1121 H 0.20809 0.59155 0.15553 0.0
H1122 H 0.20902 0.65156 0.11364 0.0
H1123 H 0.24556 0.66852 0.13272 0.0
H1124 H 0.16562 0.60224 0.15528 0.0
H1125 H 0.19991 0.60603 0.05959 0.0
H1126 H 0.21879 0.61174 0.0855 0.0
H1127 H 0.20378 0.63309 0.07414 0.0
C1128 C 0.2369 0.61823 0.16172 0.0
C1129 C 0.24811 0.63992 0.15534 0.0
C1130 C 0.2161 0.60839 0.15047 0.0
C1131 C 0.20593 0.61999 0.1326 0.0
C1132 C 0.21679 0.64187 0.12669 0.0
H1133 H 0.07425 0.59311 0.05429 0.0
H1134 H 0.11089 0.61024 0.0734 0.0
C1135 C 0.2377 0.65163 0.13773 0.0
C1136 C 0.18373 0.60941 0.12063 0.0
H1137 H 0.15851 0.59682 0.06487 0.0
C1138 C 0.16418 0.60095 0.13551 0.0
C1139 C 0.18167 0.60758 0.09477 0.0
C1140 C 0.20222 0.61488 0.07758 0.0
C1141 C 0.14271 0.59117 0.12533 0.0
C1142 C 0.14062 0.5897 0.09955 0.0
C1143 C 0.16008 0.5981 0.08463 0.0
C1144 C 0.11843 0.57921 0.08778 0.0
C1145 C 0.12224 0.58274 0.14219 0.0
C1146 C 0.1106 0.55602 0.08922 0.0
C1147 C 0.08977 0.54612 0.07813 0.0
C1148 C 0.07615 0.55921 0.06543 0.0
C1149 C 0.08415 0.58247 0.06395 0.0
C1150 C 0.10514 0.59232 0.07485 0.0
H1151 H 0.1254 0.58859 0.16141 0.0
H1152 H 0.10616 0.58834 0.13581 0.0
H1153 H 0.11906 0.56414 0.14197 0.0
H1154 H 0.12067 0.54552 0.09888 0.0
H1155 H 0.08425 0.52819 0.07974 0.0
H1156 H 0.2835 0.45175 0.68048 0.0
H1157 H 0.31976 0.46958 0.65985 0.0
H1158 H 0.31701 0.41232 0.6115 0.0
H1159 H 0.28052 0.39473 0.63141 0.0
H1160 H 0.36273 0.45492 0.65449 0.0
H1161 H 0.3253 0.46416 0.56354 0.0
H1162 H 0.30732 0.45786 0.59084 0.0
H1163 H 0.31902 0.43598 0.57465 0.0
C1164 C 0.29044 0.44306 0.66525 0.0
C1165 C 0.27893 0.42178 0.65761 0.0
C1166 C 0.31128 0.45323 0.65358 0.0
C1167 C 0.32099 0.44248 0.63385 0.0
C1168 C 0.30969 0.42117 0.62636 0.0
H1169 H 0.44238 0.45815 0.53941 0.0
H1170 H 0.40564 0.44734 0.56227 0.0
C1171 C 0.28891 0.41099 0.638 0.0
C1172 C 0.34313 0.45321 0.62133 0.0
H1173 H 0.36693 0.46896 0.56501 0.0
C1174 C 0.36362 0.45825 0.63498 0.0
C1175 C 0.3443 0.45768 0.59588 0.0
C1176 C 0.32277 0.45386 0.5804 0.0
C1177 C 0.38538 0.46664 0.62368 0.0
C1178 C 0.38664 0.47043 0.59808 0.0
C1179 C 0.36602 0.466 0.5846 0.0
C1180 C 0.4093 0.4775 0.58458 0.0
C1181 C 0.40699 0.47049 0.63903 0.0
C1182 C 0.42367 0.4982 0.58932 0.0
C1183 C 0.44486 0.50447 0.57617 0.0
C1184 C 0.45195 0.49017 0.55801 0.0
C1185 C 0.43745 0.46957 0.55328 0.0
C1186 C 0.41638 0.46335 0.56633 0.0
H1187 H 0.40379 0.46253 0.6573 0.0
H1188 H 0.42153 0.4638 0.62955 0.0
H1189 H 0.41264 0.48876 0.64193 0.0
H1190 H 0.41843 0.50959 0.60303 0.0
H1191 H 0.45564 0.52043 0.58021 0.0
H1192 H 0.75501 0.70554 0.93171 0.0
H1193 H 0.78451 0.68641 0.94966 0.0
H1194 H 0.81689 0.68167 0.87822 0.0
H1195 H 0.78756 0.70057 0.8602 0.0
H1196 H 0.8137 0.64278 0.90408 0.0
H1197 H 0.85183 0.71631 0.96069 0.0
H1198 H 0.82115 0.70682 0.96617 0.0
H1199 H 0.83129 0.71816 0.93682 0.0
C1200 C 0.7684 0.70035 0.91986 0.0
C1201 C 0.76895 0.70457 0.89455 0.0
C1202 C 0.78526 0.6895 0.93013 0.0
C1203 C 0.8031 0.68296 0.91532 0.0
C1204 C 0.80328 0.68658 0.88998 0.0
H1205 H 0.93789 0.65616 0.95844 0.0
H1206 H 0.9051 0.67114 0.94148 0.0
C1207 C 0.78641 0.69729 0.8797 0.0
C1208 C 0.82198 0.67276 0.92607 0.0
H1209 H 0.86729 0.683 0.96568 0.0
C1210 C 0.82539 0.65153 0.9176 0.0
C1211 C 0.83743 0.68439 0.94339 0.0
C1212 C 0.83546 0.70777 0.95217 0.0
C1213 C 0.84384 0.64157 0.92601 0.0
C1214 C 0.85897 0.65299 0.94374 0.0
C1215 C 0.85556 0.67423 0.9522 0.0
C1216 C 0.87878 0.64347 0.95344 0.0
C1217 C 0.84733 0.61923 0.9153 0.0
C1218 C 0.87483 0.623 0.96587 0.0
C1219 C 0.89353 0.61437 0.97548 0.0
C1220 C 0.91649 0.6262 0.97309 0.0
C1221 C 0.92038 0.64674 0.9607 0.0
C1222 C 0.90169 0.65528 0.95097 0.0
H1223 H 0.83845 0.61572 0.89751 0.0
H1224 H 0.8662 0.61852 0.91246 0.0
H1225 H 0.83982 0.60574 0.92818 0.0
H1226 H 0.85725 0.61387 0.96852 0.0
H1227 H 0.88994 0.59871 0.98532 0.0
H1228 H 0.43821 0.80887 0.18351 0.0
H1229 H 0.45489 0.84455 0.16447 0.0
H1230 H 0.40096 0.83435 0.11055 0.0
H1231 H 0.38404 0.7988 0.12955 0.0
H1232 H 0.44443 0.84761 0.08955 0.0
H1233 H 0.43114 0.90414 0.16752 0.0
H1234 H 0.44689 0.88222 0.17533 0.0
H1235 H 0.41694 0.87523 0.16625 0.0
C1236 C 0.42965 0.81431 0.16781 0.0
C1237 C 0.40969 0.80078 0.15816 0.0
C1238 C 0.43924 0.83481 0.15692 0.0
C1239 C 0.42906 0.8424 0.13619 0.0
C1240 C 0.40919 0.82894 0.1265 0.0
H1241 H 0.46423 0.97812 0.07489 0.0
H1242 H 0.44359 0.94305 0.09293 0.0
C1243 C 0.39958 0.80848 0.13737 0.0
C1244 C 0.43948 0.86397 0.12411 0.0
H1245 H 0.4552 0.9204 0.13426 0.0
C1246 C 0.44668 0.86352 0.09934 0.0
C1247 C 0.44216 0.88488 0.13666 0.0
C1248 C 0.43368 0.88678 0.16283 0.0
C1249 C 0.45695 0.88318 0.08703 0.0
C1250 C 0.46047 0.90395 0.09985 0.0
C1251 C 0.45272 0.90451 0.12443 0.0
C1252 C 0.47268 0.92513 0.08826 0.0
C1253 C 0.46374 0.88153 0.06028 0.0
C1254 C 0.49592 0.92687 0.07969 0.0
C1255 C 0.5077 0.94684 0.06943 0.0
C1256 C 0.49659 0.96565 0.06756 0.0
C1257 C 0.47326 0.96392 0.07599 0.0
C1258 C 0.46148 0.9439 0.08637 0.0
H1259 H 0.45406 0.86616 0.0515 0.0
H1260 H 0.46038 0.89636 0.05006 0.0
H1261 H 0.48269 0.88082 0.05863 0.0
H1262 H 0.50514 0.91285 0.0813 0.0
H1263 H 0.52568 0.94761 0.06321 0.0
H1264 H 0.08647 0.25402 0.68481 0.0
H1265 H 0.06967 0.21816 0.66588 0.0
H1266 H 0.12778 0.22426 0.61431 0.0
H1267 H 0.14465 0.26006 0.63306 0.0
H1268 H 0.05529 0.20764 0.61921 0.0
H1269 H 0.12716 0.16196 0.64085 0.0
H1270 H 0.12451 0.18868 0.65472 0.0
H1271 H 0.13693 0.18736 0.6243 0.0
C1272 C 0.09565 0.24781 0.66937 0.0
C1273 C 0.11706 0.25996 0.66065 0.0
C1274 C 0.08606 0.22721 0.65861 0.0
C1275 C 0.09764 0.2182 0.63892 0.0
C1276 C 0.11879 0.23047 0.62989 0.0
H1277 H 0.03604 0.114 0.53648 0.0
H1278 H 0.05277 0.14908 0.55679 0.0
C1279 C 0.12842 0.25101 0.64066 0.0
C1280 C 0.08737 0.19625 0.6275 0.0
H1281 H 0.09891 0.144 0.61288 0.0
C1282 C 0.06481 0.19371 0.61792 0.0
C1283 C 0.09959 0.17787 0.62608 0.0
C1284 C 0.12329 0.17896 0.63724 0.0
C1285 C 0.05437 0.17357 0.60657 0.0
C1286 C 0.06696 0.1555 0.60428 0.0
C1287 C 0.08932 0.15788 0.61433 0.0
C1288 C 0.05719 0.13397 0.5917 0.0
C1289 C 0.02976 0.17174 0.59751 0.0
C1290 C 0.05477 0.11353 0.6042 0.0
C1291 C 0.04536 0.09332 0.59253 0.0
C1292 C 0.03823 0.09305 0.56802 0.0
C1293 C 0.04111 0.11351 0.55541 0.0
C1294 C 0.05056 0.13368 0.56708 0.0
H1295 H 0.02032 0.18416 0.60673 0.0
H1296 H 0.03039 0.17507 0.57754 0.0
H1297 H 0.01963 0.1547 0.60059 0.0
H1298 H 0.05988 0.11324 0.62314 0.0
H1299 H 0.0435 0.07794 0.60283 0.0
H1300 H 0.67055 0.29375 0.53023 0.0
H1301 H 0.64185 0.31462 0.54766 0.0
H1302 H 0.59369 0.2529 0.55948 0.0
H1303 H 0.62224 0.23192 0.54078 0.0
H1304 H 0.57433 0.27843 0.53286 0.0
H1305 H 0.6114 0.33191 0.60855 0.0
H1306 H 0.63326 0.33492 0.58462 0.0
H1307 H 0.62392 0.30786 0.59851 0.0
C1308 C 0.6541 0.28457 0.53718 0.0
C1309 C 0.64843 0.2613 0.53372 0.0
C1310 C 0.63776 0.2965 0.54757 0.0
C1311 C 0.61556 0.28537 0.55513 0.0
C1312 C 0.61072 0.26185 0.55389 0.0
H1313 H 0.53857 0.39728 0.56167 0.0
H1314 H 0.54767 0.36193 0.5769 0.0
C1315 C 0.62708 0.24987 0.54328 0.0
C1316 C 0.59647 0.29863 0.55888 0.0
H1317 H 0.58921 0.35077 0.57822 0.0
C1318 C 0.57712 0.29387 0.54354 0.0
C1319 C 0.5994 0.31846 0.57331 0.0
C1320 C 0.61803 0.32335 0.59236 0.0
C1321 C 0.56268 0.30977 0.53971 0.0
C1322 C 0.56819 0.33112 0.55096 0.0
C1323 C 0.58542 0.33466 0.56889 0.0
C1324 C 0.55926 0.3508 0.54153 0.0
C1325 C 0.54254 0.30398 0.52251 0.0
C1326 C 0.56262 0.35622 0.51659 0.0
C1327 C 0.55743 0.37629 0.50786 0.0
C1328 C 0.54913 0.39155 0.524 0.0
C1329 C 0.54515 0.38588 0.54886 0.0
C1330 C 0.55021 0.36568 0.55756 0.0
H1331 H 0.53466 0.28599 0.52404 0.0
H1332 H 0.52875 0.31431 0.52631 0.0
H1333 H 0.54906 0.30682 0.50333 0.0
H1334 H 0.57035 0.34541 0.504 0.0
H1335 H 0.56103 0.38037 0.48873 0.0
loop_
_geom_bond_atom_site_label_1
_geom_bond_atom_site_label_2
_geom_bond_distance
_geom_bond_site_symmetry_2
_ccdc_geom_bond_type
C0 C1 1.386 . S
C0 C2 1.397 . S
C0 H24 0.931 . S
C1 C0 1.386 . S
C1 C5 1.397 . S
C2 C0 1.397 . S
C2 C3 1.384 . S
C2 H25 0.930 . S
C3 C2 1.384 . S
C3 C4 1.377 . S
C3 C6 1.481 . S
C4 C3 1.377 . S
C4 C5 1.389 . S
C4 H26 0.929 . S
C5 C1 1.397 . S
C5 C4 1.389 . S
C5 H27 0.931 . S
C6 C3 1.481 . S
C6 C7 1.387 . S
C6 C11 1.390 . S
C7 C6 1.387 . S
C7 C8 1.401 . S
C7 H28 0.930 . S
C8 C7 1.401 . S
C8 C9 1.376 . S
C8 C17 1.511 . S
C9 C8 1.376 . S
C9 C10 1.392 . S
C9 H30 0.931 . S
C10 C9 1.392 . S
C10 C11 1.361 . S
C10 C12 1.500 . S
C11 C6 1.390 . S
C11 C10 1.361 . S
C11 H29 0.931 . S
C12 C10 1.500 . S
C12 C13 1.371 . S
C12 C14 1.365 . S
C13 C12 1.371 . S
C13 C23 1.386 . S
C13 H31 0.931 . S
C14 C12 1.365 . S
C14 C15 1.409 . S
C14 H32 0.929 . S
C15 C14 1.409 . S
C15 C16 1.380 . S
C15 H33 0.930 . S
C16 C15 1.380 . S
C16 C23 1.357 . S
C17 C8 1.511 . S
C17 C18 1.341 . S
C17 C19 1.371 . S
C18 C17 1.341 . S
C18 C22 1.394 . S
C18 H34 0.930 . S
C19 C17 1.371 . S
C19 C20 1.392 . S
C19 H35 0.931 . S
C20 C19 1.392 . S
C20 C21 1.331 . S
C20 H38 0.932 . S
C21 C20 1.331 . S
C21 C22 1.336 . S
C22 C18 1.394 . S
C22 C21 1.336 . S
C22 H37 0.929 . S
C23 C13 1.386 . S
C23 C16 1.357 . S
C23 H36 0.928 . S
H24 C0 0.931 . S
H25 C2 0.930 . S
H26 C4 0.929 . S
H27 C5 0.931 . S
H28 C7 0.930 . S
H29 C11 0.931 . S
H30 C9 0.931 . S
H31 C13 0.931 . S
H32 C14 0.929 . S
H33 C15 0.930 . S
H34 C18 0.930 . S
H35 C19 0.931 . S
H36 C23 0.928 . S
H37 C22 0.929 . S
H38 C20 0.932 . S
C39 C40 1.386 . S
C39 C41 1.397 . S
C39 H63 0.931 . S
C40 C39 1.386 . S
C40 C44 1.397 . S
C41 C39 1.397 . S
C41 C42 1.384 . S
C41 H64 0.930 . S
C42 C41 1.384 . S
C42 C43 1.377 . S
C42 C45 1.481 . S
C43 C42 1.377 . S
C43 C44 1.389 . S
C43 H65 0.929 . S
C44 C40 1.397 . S
C44 C43 1.389 . S
C44 H66 0.931 . S
C45 C42 1.481 . S
C45 C46 1.387 . S
C45 C50 1.390 . S
C46 C45 1.387 . S
C46 C47 1.401 . S
C46 H67 0.930 . S
C47 C46 1.401 . S
C47 C48 1.376 . S
C47 C56 1.511 . S
C48 C47 1.376 . S
C48 C49 1.392 . S
C48 H69 0.931 . S
C49 C48 1.392 . S
C49 C50 1.361 . S
C49 C51 1.500 . S
C50 C45 1.390 . S
C50 C49 1.361 . S
C50 H68 0.931 . S
C51 C49 1.500 . S
C51 C52 1.371 . S
C51 C53 1.365 . S
C52 C51 1.371 . S
C52 C62 1.386 . S
C52 H70 0.931 . S
C53 C51 1.365 . S
C53 C54 1.409 . S
C53 H71 0.929 . S
C54 C53 1.409 . S
C54 C55 1.380 . S
C54 H72 0.930 . S
C55 C54 1.380 . S
C55 C62 1.357 . S
C56 C47 1.511 . S
C56 C57 1.341 . S
C56 C58 1.371 . S
C57 C56 1.341 . S
C57 C61 1.394 . S
C57 H73 0.930 . S
C58 C56 1.371 . S
C58 C59 1.392 . S
C58 H74 0.931 . S
C59 C58 1.392 . S
C59 C60 1.331 . S
C59 H77 0.932 . S
C60 C59 1.331 . S
C60 C61 1.336 . S
C61 C57 1.394 . S
C61 C60 1.336 . S
C61 H76 0.929 . S
C62 C52 1.386 . S
C62 C55 1.357 . S
C62 H75 0.928 . S
H63 C39 0.931 . S
H64 C41 0.930 . S
H65 C43 0.929 . S
H66 C44 0.931 . S
H67 C46 0.930 . S
H68 C50 0.931 . S
H69 C48 0.931 . S
H70 C52 0.931 . S
H71 C53 0.929 . S
H72 C54 0.930 . S
H73 C57 0.930 . S
H74 C58 0.931 . S
H75 C62 0.928 . S
H76 C61 0.929 . S
H77 C59 0.932 . S
C78 C79 1.386 . S
C78 C80 1.397 . S
C78 H102 0.931 . S
C79 C78 1.386 . S
C79 C83 1.397 . S
C80 C78 1.397 . S
C80 C81 1.384 . S
C80 H103 0.930 . S
C81 C80 1.384 . S
C81 C82 1.377 . S
C81 C84 1.481 . S
C82 C81 1.377 . S
C82 C83 1.389 . S
C82 H104 0.929 . S
C83 C79 1.397 . S
C83 C82 1.389 . S
C83 H105 0.931 . S
C84 C81 1.481 . S
C84 C85 1.387 . S
C84 C89 1.390 . S
C85 C84 1.387 . S
C85 C86 1.401 . S
C85 H106 0.930 . S
C86 C85 1.401 . S
C86 C87 1.376 . S
C86 C95 1.511 . S
C87 C86 1.376 . S
C87 C88 1.392 . S
C87 H108 0.931 . S
C88 C87 1.392 . S
C88 C89 1.361 . S
C88 C90 1.500 . S
C89 C84 1.390 . S
C89 C88 1.361 . S
C89 H107 0.931 . S
C90 C88 1.500 . S
C90 C91 1.371 . S
C90 C92 1.365 . S
C91 C90 1.371 . S
C91 C101 1.386 . S
C91 H109 0.931 . S
C92 C90 1.365 . S
C92 C93 1.409 . S
C92 H110 0.929 . S
C93 C92 1.409 . S
C93 C94 1.380 . S
C93 H111 0.930 . S
C94 C93 1.380 . S
C94 C101 1.357 . S
C95 C86 1.511 . S
C95 C96 1.341 . S
C95 C97 1.371 . S
C96 C95 1.341 . S
C96 C100 1.394 . S
C96 H112 0.930 . S
C97 C95 1.371 . S
C97 C98 1.392 . S
C97 H113 0.931 . S
C98 C97 1.392 . S
C98 C99 1.331 . S
C98 H116 0.932 . S
C99 C98 1.331 . S
C99 C100 1.336 . S
C100 C96 1.394 . S
C100 C99 1.336 . S
C100 H115 0.929 . S
C101 C91 1.386 . S
C101 C94 1.357 . S
C101 H114 0.928 . S
H102 C78 0.931 . S
H103 C80 0.930 . S
H104 C82 0.929 . S
H105 C83 0.931 . S
H106 C85 0.930 . S
H107 C89 0.931 . S
H108 C87 0.931 . S
H109 C91 0.931 . S
H110 C92 0.929 . S
H111 C93 0.930 . S
H112 C96 0.930 . S
H113 C97 0.931 . S
H114 C101 0.928 . S
H115 C100 0.929 . S
H116 C98 0.932 . S
C117 C118 1.386 . S
C117 C119 1.397 . S
C117 H141 0.931 . S
C118 C117 1.386 . S
C118 C122 1.397 . S
C119 C117 1.397 . S
C119 C120 1.384 . S
C119 H142 0.930 . S
C120 C119 1.384 . S
C120 C121 1.377 . S
C120 C123 1.481 . S
C121 C120 1.377 . S
C121 C122 1.389 . S
C121 H143 0.929 . S
C122 C118 1.397 . S
C122 C121 1.389 . S
C122 H144 0.931 . S
C123 C120 1.481 . S
C123 C124 1.387 . S
C123 C128 1.390 . S
C124 C123 1.387 . S
C124 C125 1.401 . S
C124 H145 0.930 . S
C125 C124 1.401 . S
C125 C126 1.376 . S
C125 C134 1.511 . S
C126 C125 1.376 . S
C126 C127 1.392 . S
C126 H147 0.931 . S
C127 C126 1.392 . S
C127 C128 1.361 . S
C127 C129 1.500 . S
C128 C123 1.390 . S
C128 C127 1.361 . S
C128 H146 0.931 . S
C129 C127 1.500 . S
C129 C130 1.371 . S
C129 C131 1.365 . S
C130 C129 1.371 . S
C130 C140 1.386 . S
C130 H148 0.931 . S
C131 C129 1.365 . S
C131 C132 1.409 . S
C131 H149 0.929 . S
C132 C131 1.409 . S
C132 C133 1.380 . S
C132 H150 0.930 . S
C133 C132 1.380 . S
C133 C140 1.357 . S
C134 C125 1.511 . S
C134 C135 1.341 . S
C134 C136 1.371 . S
C135 C134 1.341 . S
C135 C139 1.394 . S
C135 H151 0.930 . S
C136 C134 1.371 . S
C136 C137 1.392 . S
C136 H152 0.931 . S
C137 C136 1.392 . S
C137 C138 1.331 . S
C137 H155 0.932 . S
C138 C137 1.331 . S
C138 C139 1.336 . S
C139 C135 1.394 . S
C139 C138 1.336 . S
C139 H154 0.929 . S
C140 C130 1.386 . S
C140 C133 1.357 . S
C140 H153 0.928 . S
H141 C117 0.931 . S
H142 C119 0.930 . S
H143 C121 0.929 . S
H144 C122 0.931 . S
H145 C124 0.930 . S
H146 C128 0.931 . S
H147 C126 0.931 . S
H148 C130 0.931 . S
H149 C131 0.929 . S
H150 C132 0.930 . S
H151 C135 0.930 . S
H152 C136 0.931 . S
H153 C140 0.928 . S
H154 C139 0.929 . S
H155 C137 0.932 . S
C156 C157 1.386 . S
C156 C158 1.397 . S
C156 H180 0.931 . S
C157 C156 1.386 . S
C157 C161 1.397 . S
C158 C156 1.397 . S
C158 C159 1.384 . S
C158 H181 0.930 . S
C159 C158 1.384 . S
C159 C160 1.377 . S
C159 C162 1.481 . S
C160 C159 1.377 . S
C160 C161 1.389 . S
C160 H182 0.929 . S
C161 C157 1.397 . S
C161 C160 1.389 . S
C161 H183 0.931 . S
C162 C159 1.481 . S
C162 C163 1.387 . S
C162 C167 1.390 . S
C163 C162 1.387 . S
C163 C164 1.401 . S
C163 H184 0.930 . S
C164 C163 1.401 . S
C164 C165 1.376 . S
C164 C173 1.511 . S
C165 C164 1.376 . S
C165 C166 1.392 . S
C165 H186 0.931 . S
C166 C165 1.392 . S
C166 C167 1.361 . S
C166 C168 1.500 . S
C167 C162 1.390 . S
C167 C166 1.361 . S
C167 H185 0.931 . S
C168 C166 1.500 . S
C168 C169 1.371 . S
C168 C170 1.365 . S
C169 C168 1.371 . S
C169 C179 1.386 . S
C169 H187 0.931 . S
C170 C168 1.365 . S
C170 C171 1.409 . S
C170 H188 0.929 . S
C171 C170 1.409 . S
C171 C172 1.380 . S
C171 H189 0.930 . S
C172 C171 1.380 . S
C172 C179 1.357 . S
C173 C164 1.511 . S
C173 C174 1.341 . S
C173 C175 1.371 . S
C174 C173 1.341 . S
C174 C178 1.394 . S
C174 H190 0.930 . S
C175 C173 1.371 . S
C175 C176 1.392 . S
C175 H191 0.931 . S
C176 C175 1.392 . S
C176 C177 1.331 . S
C176 H194 0.932 . S
C177 C176 1.331 . S
C177 C178 1.336 . S
C178 C174 1.394 . S
C178 C177 1.336 . S
C178 H193 0.929 . S
C179 C169 1.386 . S
C179 C172 1.357 . S
C179 H192 0.928 . S
H180 C156 0.931 . S
H181 C158 0.930 . S
H182 C160 0.929 . S
H183 C161 0.931 . S
H184 C163 0.930 . S
H185 C167 0.931 . S
H186 C165 0.931 . S
H187 C169 0.931 . S
H188 C170 0.929 . S
H189 C171 0.930 . S
H190 C174 0.930 . S
H191 C175 0.931 . S
H192 C179 0.928 . S
H193 C178 0.929 . S
H194 C176 0.932 . S
C195 C196 1.386 . S
C195 C197 1.397 . S
C195 H219 0.931 . S
C196 C195 1.386 . S
C196 C200 1.397 . S
C197 C195 1.397 . S
C197 C198 1.384 . S
C197 H220 0.930 . S
C198 C197 1.384 . S
C198 C199 1.377 . S
C198 C201 1.481 . S
C199 C198 1.377 . S
C199 C200 1.389 . S
C199 H221 0.929 . S
C200 C196 1.397 . S
C200 C199 1.389 . S
C200 H222 0.931 . S
C201 C198 1.481 . S
C201 C202 1.387 . S
C201 C206 1.390 . S
C202 C201 1.387 . S
C202 C203 1.401 . S
C202 H223 0.930 . S
C203 C202 1.401 . S
C203 C204 1.376 . S
C203 C212 1.511 . S
C204 C203 1.376 . S
C204 C205 1.392 . S
C204 H225 0.931 . S
C205 C204 1.392 . S
C205 C206 1.361 . S
C205 C207 1.500 . S
C206 C201 1.390 . S
C206 C205 1.361 . S
C206 H224 0.931 . S
C207 C205 1.500 . S
C207 C208 1.371 . S
C207 C209 1.365 . S
C208 C207 1.371 . S
C208 C218 1.386 . S
C208 H226 0.931 . S
C209 C207 1.365 . S
C209 C210 1.409 . S
C209 H227 0.929 . S
C210 C209 1.409 . S
C210 C211 1.380 . S
C210 H228 0.930 . S
C211 C210 1.380 . S
C211 C218 1.357 . S
C212 C203 1.511 . S
C212 C213 1.341 . S
C212 C214 1.371 . S
C213 C212 1.341 . S
C213 C217 1.394 . S
C213 H229 0.930 . S
C214 C212 1.371 . S
C214 C215 1.392 . S
C214 H230 0.931 . S
C215 C214 1.392 . S
C215 C216 1.331 . S
C215 H233 0.932 . S
C216 C215 1.331 . S
C216 C217 1.336 . S
C217 C213 1.394 . S
C217 C216 1.336 . S
C217 H232 0.929 . S
C218 C208 1.386 . S
C218 C211 1.357 . S
C218 H231 0.928 . S
H219 C195 0.931 . S
H220 C197 0.930 . S
H221 C199 0.929 . S
H222 C200 0.931 . S
H223 C202 0.930 . S
H224 C206 0.931 . S
H225 C204 0.931 . S
H226 C208 0.931 . S
H227 C209 0.929 . S
H228 C210 0.930 . S
H229 C213 0.930 . S
H230 C214 0.931 . S
H231 C218 0.928 . S
H232 C217 0.929 . S
H233 C215 0.932 . S
C234 C235 1.386 . S
C234 C236 1.397 . S
C234 H258 0.931 . S
C235 C234 1.386 . S
C235 C239 1.397 . S
C236 C234 1.397 . S
C236 C237 1.384 . S
C236 H259 0.930 . S
C237 C236 1.384 . S
C237 C238 1.377 . S
C237 C240 1.481 . S
C238 C237 1.377 . S
C238 C239 1.389 . S
C238 H260 0.929 . S
C239 C235 1.397 . S
C239 C238 1.389 . S
C239 H261 0.931 . S
C240 C237 1.481 . S
C240 C241 1.387 . S
C240 C245 1.390 . S
C241 C240 1.387 . S
C241 C242 1.401 . S
C241 H262 0.930 . S
C242 C241 1.401 . S
C242 C243 1.376 . S
C242 C251 1.511 . S
C243 C242 1.376 . S
C243 C244 1.392 . S
C243 H264 0.931 . S
C244 C243 1.392 . S
C244 C245 1.361 . S
C244 C246 1.500 . S
C245 C240 1.390 . S
C245 C244 1.361 . S
C245 H263 0.931 . S
C246 C244 1.500 . S
C246 C247 1.371 . S
C246 C248 1.365 . S
C247 C246 1.371 . S
C247 C257 1.386 . S
C247 H265 0.931 . S
C248 C246 1.365 . S
C248 C249 1.409 . S
C248 H266 0.929 . S
C249 C248 1.409 . S
C249 C250 1.380 . S
C249 H267 0.930 . S
C250 C249 1.380 . S
C250 C257 1.357 . S
C251 C242 1.511 . S
C251 C252 1.341 . S
C251 C253 1.371 . S
C252 C251 1.341 . S
C252 C256 1.394 . S
C252 H268 0.930 . S
C253 C251 1.371 . S
C253 C254 1.392 . S
C253 H269 0.931 . S
C254 C253 1.392 . S
C254 C255 1.331 . S
C254 H272 0.932 . S
C255 C254 1.331 . S
C255 C256 1.336 . S
C256 C252 1.394 . S
C256 C255 1.336 . S
C256 H271 0.929 . S
C257 C247 1.386 . S
C257 C250 1.357 . S
C257 H270 0.928 . S
H258 C234 0.931 . S
H259 C236 0.930 . S
H260 C238 0.929 . S
H261 C239 0.931 . S
H262 C241 0.930 . S
H263 C245 0.931 . S
H264 C243 0.931 . S
H265 C247 0.931 . S
H266 C248 0.929 . S
H267 C249 0.930 . S
H268 C252 0.930 . S
H269 C253 0.931 . S
H270 C257 0.928 . S
H271 C256 0.929 . S
H272 C254 0.932 . S
C273 C274 1.386 . S
C273 C275 1.397 . S
C273 H297 0.931 . S
C274 C273 1.386 . S
C274 C278 1.397 . S
C275 C273 1.397 . S
C275 C276 1.384 . S
C275 H298 0.930 . S
C276 C275 1.384 . S
C276 C277 1.377 . S
C276 C279 1.481 . S
C277 C276 1.377 . S
C277 C278 1.389 . S
C277 H299 0.929 . S
C278 C274 1.397 . S
C278 C277 1.389 . S
C278 H300 0.931 . S
C279 C276 1.481 . S
C279 C280 1.387 . S
C279 C284 1.390 . S
C280 C279 1.387 . S
C280 C281 1.401 . S
C280 H301 0.930 . S
C281 C280 1.401 . S
C281 C282 1.376 . S
C281 C290 1.511 . S
C282 C281 1.376 . S
C282 C283 1.392 . S
C282 H303 0.931 . S
C283 C282 1.392 . S
C283 C284 1.361 . S
C283 C285 1.500 . S
C284 C279 1.390 . S
C284 C283 1.361 . S
C284 H302 0.931 . S
C285 C283 1.500 . S
C285 C286 1.371 . S
C285 C287 1.365 . S
C286 C285 1.371 . S
C286 C296 1.386 . S
C286 H304 0.931 . S
C287 C285 1.365 . S
C287 C288 1.409 . S
C287 H305 0.929 . S
C288 C287 1.409 . S
C288 C289 1.380 . S
C288 H306 0.930 . S
C289 C288 1.380 . S
C289 C296 1.357 . S
C290 C281 1.511 . S
C290 C291 1.341 . S
C290 C292 1.371 . S
C291 C290 1.341 . S
C291 C295 1.394 . S
C291 H307 0.930 . S
C292 C290 1.371 . S
C292 C293 1.392 . S
C292 H308 0.931 . S
C293 C292 1.392 . S
C293 C294 1.331 . S
C293 H311 0.932 . S
C294 C293 1.331 . S
C294 C295 1.336 . S
C295 C291 1.394 . S
C295 C294 1.336 . S
C295 H310 0.929 . S
C296 C286 1.386 . S
C296 C289 1.357 . S
C296 H309 0.928 . S
H297 C273 0.931 . S
H298 C275 0.930 . S
H299 C277 0.929 . S
H300 C278 0.931 . S
H301 C280 0.930 . S
H302 C284 0.931 . S
H303 C282 0.931 . S
H304 C286 0.931 . S
H305 C287 0.929 . S
H306 C288 0.930 . S
H307 C291 0.930 . S
H308 C292 0.931 . S
H309 C296 0.928 . S
H310 C295 0.929 . S
H311 C293 0.932 . S
Sm312 C314 2.846 . S
Sm312 O332 2.543 . S
Sm312 O333 2.450 . S
Sm312 O334 2.681 1_545 S
Sm312 O335 2.464 1_545 S
Sm312 O336 2.396 . S
Sm312 O340 2.386 1_455 S
Sm312 O343 2.408 1_445 S
Sm313 C323 2.812 1_545 S
Sm313 O334 2.368 1_645 S
Sm313 O337 2.446 1_655 S
Sm313 O338 2.499 1_545 S
Sm313 O339 2.432 1_545 S
Sm313 O340 2.703 . S
Sm313 O341 2.489 . S
Sm313 O342 2.367 1_545 S
C314 Sm312 2.846 . S
C314 C315 1.506 . S
C314 O332 1.261 . S
C314 O333 1.242 . S
C315 C314 1.506 . S
C315 C316 1.358 . S
C315 C320 1.382 . S
C316 C315 1.358 . S
C316 C317 1.385 . S
C316 H344 0.930 . S
C317 C316 1.385 . S
C317 C318 1.395 . S
C317 H345 0.929 . S
C318 C317 1.395 . S
C318 C319 1.335 . S
C319 C318 1.335 . S
C319 C320 1.398 . S
C319 H346 0.930 . S
C320 C315 1.382 . S
C320 C319 1.398 . S
C320 H347 0.929 . S
C321 O334 1.271 . S
C321 O335 1.251 . S
C322 O336 1.252 . S
C322 O337 1.272 . S
C323 Sm313 2.812 1_565 S
C323 C324 1.506 . S
C323 O338 1.261 . S
C323 O339 1.242 . S
C324 C323 1.506 . S
C324 C325 1.358 . S
C324 C329 1.382 . S
C325 C324 1.358 . S
C325 C326 1.385 . S
C325 H348 0.930 . S
C326 C325 1.385 . S
C326 C327 1.395 . S
C326 H349 0.929 . S
C327 C326 1.395 . S
C327 C328 1.335 . S
C328 C327 1.335 . S
C328 C329 1.398 . S
C328 H350 0.930 . S
C329 C324 1.382 . S
C329 C328 1.398 . S
C329 H351 0.929 . S
C330 O340 1.271 . S
C330 O341 1.251 . S
C331 O342 1.252 . S
C331 O343 1.272 . S
O332 Sm312 2.543 . S
O332 C314 1.261 . S
O333 Sm312 2.450 . S
O333 C314 1.242 . S
O334 Sm312 2.681 1_565 S
O334 Sm313 2.368 1_465 S
O334 C321 1.271 . S
O335 Sm312 2.464 1_565 S
O335 C321 1.251 . S
O336 Sm312 2.396 . S
O336 C322 1.252 . S
O337 Sm313 2.446 1_455 S
O337 C322 1.272 . S
O338 Sm313 2.499 1_565 S
O338 C323 1.261 . S
O339 Sm313 2.432 1_565 S
O339 C323 1.242 . S
O340 Sm312 2.386 1_655 S
O340 Sm313 2.703 . S
O340 C330 1.271 . S
O341 Sm313 2.489 . S
O341 C330 1.251 . S
O342 Sm313 2.367 1_565 S
O342 C331 1.252 . S
O343 Sm312 2.408 1_665 S
O343 C331 1.272 . S
H344 C316 0.930 . S
H345 C317 0.929 . S
H346 C319 0.930 . S
H347 C320 0.929 . S
H348 C325 0.930 . S
H349 C326 0.929 . S
H350 C328 0.930 . S
H351 C329 0.929 . S
Sm352 C354 2.846 . S
Sm352 O372 2.543 . S
Sm352 O373 2.450 . S
Sm352 O374 2.681 1_545 S
Sm352 O375 2.464 1_545 S
Sm352 O376 2.396 . S
Sm352 O380 2.386 1_554 S
Sm352 O383 2.408 1_544 S
Sm353 C363 2.846 1_545 S
Sm353 O374 2.386 1_546 S
Sm353 O377 2.408 1_556 S
Sm353 O378 2.543 1_545 S
Sm353 O379 2.449 1_545 S
Sm353 O380 2.681 . S
Sm353 O381 2.464 . S
Sm353 O382 2.396 1_545 S
C354 Sm352 2.846 . S
C354 C355 1.506 . S
C354 O372 1.261 . S
C354 O373 1.242 . S
C355 C354 1.506 . S
C355 C356 1.358 . S
C355 C360 1.382 . S
C356 C355 1.358 . S
C356 C357 1.385 . S
C356 H384 0.930 . S
C357 C356 1.385 . S
C357 C358 1.395 . S
C357 H385 0.929 . S
C358 C357 1.395 . S
C358 C359 1.335 . S
C359 C358 1.335 . S
C359 C360 1.398 . S
C359 H386 0.930 . S
C360 C355 1.382 . S
C360 C359 1.398 . S
C360 H387 0.929 . S
C361 O374 1.271 . S
C361 O375 1.251 . S
C362 O376 1.252 . S
C362 O377 1.272 . S
C363 Sm353 2.846 1_565 S
C363 C364 1.506 . S
C363 O378 1.261 . S
C363 O379 1.262 . S
C364 C363 1.506 . S
C364 C365 1.358 . S
C364 C369 1.382 . S
C365 C364 1.358 . S
C365 C366 1.385 . S
C365 H388 0.930 . S
C366 C365 1.385 . S
C366 C367 1.395 . S
C366 H389 0.929 . S
C367 C366 1.395 . S
C367 C368 1.335 . S
C368 C367 1.335 . S
C368 C369 1.398 . S
C368 H390 0.930 . S
C369 C364 1.382 . S
C369 C368 1.398 . S
C369 H391 0.929 . S
C370 O380 1.271 . S
C370 O381 1.251 . S
C371 O382 1.252 . S
C371 O383 1.272 . S
O372 Sm352 2.543 . S
O372 C354 1.261 . S
O373 Sm352 2.450 . S
O373 C354 1.242 . S
O374 Sm352 2.681 1_565 S
O374 Sm353 2.386 1_564 S
O374 C361 1.271 . S
O375 Sm352 2.464 1_565 S
O375 C361 1.251 . S
O376 Sm352 2.396 . S
O376 C362 1.252 . S
O377 Sm353 2.408 1_554 S
O377 C362 1.272 . S
O378 Sm353 2.543 1_565 S
O378 C363 1.261 . S
O379 Sm353 2.449 1_565 S
O379 C363 1.262 . S
O380 Sm352 2.386 1_556 S
O380 Sm353 2.681 . S
O380 C370 1.271 . S
O381 Sm353 2.464 . S
O381 C370 1.251 . S
O382 Sm353 2.396 1_565 S
O382 C371 1.252 . S
O383 Sm352 2.408 1_566 S
O383 C371 1.272 . S
H384 C356 0.930 . S
H385 C357 0.929 . S
H386 C359 0.930 . S
H387 C360 0.929 . S
H388 C365 0.930 . S
H389 C366 0.929 . S
H390 C368 0.930 . S
H391 C369 0.929 . S
Sm392 C394 2.846 . S
Sm392 O412 2.543 . S
Sm392 O413 2.450 . S
Sm392 O414 2.681 . S
Sm392 O415 2.464 . S
Sm392 O416 2.396 . S
Sm392 O420 2.386 . S
Sm392 O423 2.408 . S
Sm393 C403 2.846 . S
Sm393 O414 2.386 . S
Sm393 O417 2.408 . S
Sm393 O418 2.543 . S
Sm393 O419 2.450 . S
Sm393 O420 2.681 . S
Sm393 O421 2.464 . S
Sm393 O422 2.396 . S
C394 Sm392 2.846 . S
C394 C395 1.506 . S
C394 O412 1.261 . S
C394 O413 1.242 . S
C395 C394 1.506 . S
C395 C396 1.358 . S
C395 C400 1.382 . S
C396 C395 1.358 . S
C396 C397 1.385 . S
C396 H424 0.930 . S
C397 C396 1.385 . S
C397 C398 1.395 . S
C397 H425 0.929 . S
C398 C397 1.395 . S
C398 C399 1.335 . S
C399 C398 1.335 . S
C399 C400 1.398 . S
C399 H426 0.930 . S
C400 C395 1.382 . S
C400 C399 1.398 . S
C400 H427 0.929 . S
C401 O414 1.271 . S
C401 O415 1.251 . S
C402 O416 1.252 . S
C402 O417 1.272 . S
C403 Sm393 2.846 . S
C403 C404 1.506 . S
C403 O418 1.261 . S
C403 O419 1.242 . S
C404 C403 1.506 . S
C404 C405 1.358 . S
C404 C409 1.382 . S
C405 C404 1.358 . S
C405 C406 1.385 . S
C405 H428 0.930 . S
C406 C405 1.385 . S
C406 C407 1.395 . S
C406 H429 0.929 . S
C407 C406 1.395 . S
C407 C408 1.335 . S
C408 C407 1.335 . S
C408 C409 1.398 . S
C408 H430 0.930 . S
C409 C404 1.382 . S
C409 C408 1.398 . S
C409 H431 0.929 . S
C410 O420 1.271 . S
C410 O421 1.251 . S
C411 O422 1.252 . S
C411 O423 1.272 . S
O412 Sm392 2.543 . S
O412 C394 1.261 . S
O413 Sm392 2.450 . S
O413 C394 1.242 . S
O414 Sm392 2.681 . S
O414 Sm393 2.386 . S
O414 C401 1.271 . S
O415 Sm392 2.464 . S
O415 C401 1.251 . S
O416 Sm392 2.396 . S
O416 C402 1.252 . S
O417 Sm393 2.408 . S
O417 C402 1.272 . S
O418 Sm393 2.543 . S
O418 C403 1.261 . S
O419 Sm393 2.450 . S
O419 C403 1.242 . S
O420 Sm392 2.386 . S
O420 Sm393 2.681 . S
O420 C410 1.271 . S
O421 Sm393 2.464 . S
O421 C410 1.251 . S
O422 Sm393 2.396 . S
O422 C411 1.252 . S
O423 Sm392 2.408 . S
O423 C411 1.272 . S
H424 C396 0.930 . S
H425 C397 0.929 . S
H426 C399 0.930 . S
H427 C400 0.929 . S
H428 C405 0.930 . S
H429 C406 0.929 . S
H430 C408 0.930 . S
H431 C409 0.929 . S
Sm432 C434 2.846 . S
Sm432 O452 2.543 . S
Sm432 O453 2.450 . S
Sm432 O454 2.681 1_455 S
Sm432 O455 2.464 1_455 S
Sm432 O456 2.396 . S
Sm432 O460 2.386 1_554 S
Sm432 O463 2.408 1_454 S
Sm433 C443 2.846 1_455 S
Sm433 O454 2.386 1_456 S
Sm433 O457 2.408 1_556 S
Sm433 O458 2.543 1_455 S
Sm433 O459 2.450 1_455 S
Sm433 O460 2.681 . S
Sm433 O461 2.464 . S
Sm433 O462 2.396 1_455 S
C434 Sm432 2.846 . S
C434 C435 1.506 . S
C434 O452 1.261 . S
C434 O453 1.242 . S
C435 C434 1.506 . S
C435 C436 1.358 . S
C435 C440 1.382 . S
C436 C435 1.358 . S
C436 C437 1.385 . S
C436 H464 0.930 . S
C437 C436 1.385 . S
C437 C438 1.395 . S
C437 H465 0.929 . S
C438 C437 1.395 . S
C438 C439 1.335 . S
C439 C438 1.335 . S
C439 C440 1.398 . S
C439 H466 0.930 . S
C440 C435 1.382 . S
C440 C439 1.398 . S
C440 H467 0.929 . S
C441 O454 1.271 . S
C441 O455 1.251 . S
C442 O456 1.252 . S
C442 O457 1.272 . S
C443 Sm433 2.846 1_655 S
C443 C444 1.506 . S
C443 O458 1.261 . S
C443 O459 1.242 . S
C444 C443 1.506 . S
C444 C445 1.358 . S
C444 C449 1.382 . S
C445 C444 1.358 . S
C445 C446 1.385 . S
C445 H468 0.930 . S
C446 C445 1.385 . S
C446 C447 1.395 . S
C446 H469 0.929 . S
C447 C446 1.395 . S
C447 C448 1.335 . S
C448 C447 1.335 . S
C448 C449 1.398 . S
C448 H470 0.930 . S
C449 C444 1.382 . S
C449 C448 1.398 . S
C449 H471 0.929 . S
C450 O460 1.271 . S
C450 O461 1.251 . S
C451 O462 1.252 . S
C451 O463 1.272 . S
O452 Sm432 2.543 . S
O452 C434 1.261 . S
O453 Sm432 2.450 . S
O453 C434 1.242 . S
O454 Sm432 2.681 1_655 S
O454 Sm433 2.386 1_654 S
O454 C441 1.271 . S
O455 Sm432 2.464 1_655 S
O455 C441 1.251 . S
O456 Sm432 2.396 . S
O456 C442 1.252 . S
O457 Sm433 2.408 1_554 S
O457 C442 1.272 . S
O458 Sm433 2.543 1_655 S
O458 C443 1.261 . S
O459 Sm433 2.450 1_655 S
O459 C443 1.242 . S
O460 Sm432 2.386 1_556 S
O460 Sm433 2.681 . S
O460 C450 1.271 . S
O461 Sm433 2.464 . S
O461 C450 1.251 . S
O462 Sm433 2.396 1_655 S
O462 C451 1.252 . S
O463 Sm432 2.408 1_656 S
O463 C451 1.272 . S
H464 C436 0.930 . S
H465 C437 0.929 . S
H466 C439 0.930 . S
H467 C440 0.929 . S
H468 C445 0.930 . S
H469 C446 0.929 . S
H470 C448 0.930 . S
H471 C449 0.929 . S
H472 C480 0.929 . S
H473 C482 0.930 . S
H474 C484 0.930 . S
H475 C487 0.929 . S
H476 C490 0.930 . S
H477 C492 0.960 . S
H478 C492 0.960 . S
H479 C492 0.960 . S
C480 H472 0.929 . S
C480 C481 1.377 . S
C480 C482 1.384 . S
C481 C480 1.377 . S
C481 C487 1.390 . S
C482 H473 0.930 . S
C482 C480 1.384 . S
C482 C483 1.372 . S
C483 C482 1.372 . S
C483 C484 1.400 . S
C483 C488 1.490 . S
C484 H474 0.930 . S
C484 C483 1.400 . S
C484 C487 1.386 . S
H485 C501 0.930 . S
H486 C502 0.931 . S
C487 H475 0.929 . S
C487 C481 1.390 . S
C487 C484 1.386 . S
C488 C483 1.490 . S
C488 C490 1.395 . S
C488 C491 1.403 . S
H489 C495 0.930 . S
C490 H476 0.930 . S
C490 C488 1.395 . S
C490 C493 1.403 . S
C491 C488 1.403 . S
C491 C492 1.524 . S
C491 C495 1.400 . S
C492 H477 0.960 . S
C492 H478 0.960 . S
C492 H479 0.960 . S
C492 C491 1.524 . S
C493 C490 1.403 . S
C493 C494 1.392 . S
C493 C497 1.495 . S
C494 C493 1.392 . S
C494 C495 1.385 . S
C494 C496 1.478 . S
C495 H489 0.930 . S
C495 C491 1.400 . S
C495 C494 1.385 . S
C496 C494 1.478 . S
C496 C498 1.381 . S
C496 C502 1.383 . S
C497 C493 1.495 . S
C497 H503 0.959 . S
C497 H504 0.961 . S
C497 H505 0.960 . S
C498 C496 1.381 . S
C498 C499 1.394 . S
C498 H506 0.930 . S
C499 C498 1.394 . S
C499 C500 1.383 . S
C499 H507 0.929 . S
C500 C499 1.383 . S
C500 C501 1.377 . S
C501 H485 0.930 . S
C501 C500 1.377 . S
C501 C502 1.379 . S
C502 H486 0.931 . S
C502 C496 1.383 . S
C502 C501 1.379 . S
H503 C497 0.959 . S
H504 C497 0.961 . S
H505 C497 0.960 . S
H506 C498 0.930 . S
H507 C499 0.929 . S
H508 C516 0.929 . S
H509 C518 0.930 . S
H510 C520 0.930 . S
H511 C523 0.929 . S
H512 C526 0.930 . S
H513 C528 0.960 . S
H514 C528 0.960 . S
H515 C528 0.960 . S
C516 H508 0.929 . S
C516 C517 1.377 . S
C516 C518 1.384 . S
C517 C516 1.377 . S
C517 C523 1.390 . S
C518 H509 0.930 . S
C518 C516 1.384 . S
C518 C519 1.372 . S
C519 C518 1.372 . S
C519 C520 1.400 . S
C519 C524 1.490 . S
C520 H510 0.930 . S
C520 C519 1.400 . S
C520 C523 1.386 . S
H521 C537 0.930 . S
H522 C538 0.931 . S
C523 H511 0.929 . S
C523 C517 1.390 . S
C523 C520 1.386 . S
C524 C519 1.490 . S
C524 C526 1.395 . S
C524 C527 1.403 . S
H525 C531 0.930 . S
C526 H512 0.930 . S
C526 C524 1.395 . S
C526 C529 1.403 . S
C527 C524 1.403 . S
C527 C528 1.524 . S
C527 C531 1.400 . S
C528 H513 0.960 . S
C528 H514 0.960 . S
C528 H515 0.960 . S
C528 C527 1.524 . S
C529 C526 1.403 . S
C529 C530 1.392 . S
C529 C533 1.495 . S
C530 C529 1.392 . S
C530 C531 1.385 . S
C530 C532 1.478 . S
C531 H525 0.930 . S
C531 C527 1.400 . S
C531 C530 1.385 . S
C532 C530 1.478 . S
C532 C534 1.381 . S
C532 C538 1.383 . S
C533 C529 1.495 . S
C533 H539 0.959 . S
C533 H540 0.961 . S
C533 H541 0.960 . S
C534 C532 1.381 . S
C534 C535 1.394 . S
C534 H542 0.930 . S
C535 C534 1.394 . S
C535 C536 1.383 . S
C535 H543 0.929 . S
C536 C535 1.383 . S
C536 C537 1.377 . S
C537 H521 0.930 . S
C537 C536 1.377 . S
C537 C538 1.379 . S
C538 H522 0.931 . S
C538 C532 1.383 . S
C538 C537 1.379 . S
H539 C533 0.959 . S
H540 C533 0.961 . S
H541 C533 0.960 . S
H542 C534 0.930 . S
H543 C535 0.929 . S
H544 C552 0.929 . S
H545 C554 0.930 . S
H546 C556 0.930 . S
H547 C559 0.929 . S
H548 C562 0.930 . S
H549 C564 0.960 . S
H550 C564 0.960 . S
H551 C564 0.960 . S
C552 H544 0.929 . S
C552 C553 1.377 . S
C552 C554 1.384 . S
C553 C552 1.377 . S
C553 C559 1.390 . S
C554 H545 0.930 . S
C554 C552 1.384 . S
C554 C555 1.372 . S
C555 C554 1.372 . S
C555 C556 1.400 . S
C555 C560 1.490 . S
C556 H546 0.930 . S
C556 C555 1.400 . S
C556 C559 1.386 . S
H557 C573 0.930 . S
H558 C574 0.931 . S
C559 H547 0.929 . S
C559 C553 1.390 . S
C559 C556 1.386 . S
C560 C555 1.490 . S
C560 C562 1.395 . S
C560 C563 1.403 . S
H561 C567 0.930 . S
C562 H548 0.930 . S
C562 C560 1.395 . S
C562 C565 1.403 . S
C563 C560 1.403 . S
C563 C564 1.524 . S
C563 C567 1.400 . S
C564 H549 0.960 . S
C564 H550 0.960 . S
C564 H551 0.960 . S
C564 C563 1.524 . S
C565 C562 1.403 . S
C565 C566 1.392 . S
C565 C569 1.495 . S
C566 C565 1.392 . S
C566 C567 1.385 . S
C566 C568 1.478 . S
C567 H561 0.930 . S
C567 C563 1.400 . S
C567 C566 1.385 . S
C568 C566 1.478 . S
C568 C570 1.381 . S
C568 C574 1.383 . S
C569 C565 1.495 . S
C569 H575 0.959 . S
C569 H576 0.961 . S
C569 H577 0.960 . S
C570 C568 1.381 . S
C570 C571 1.394 . S
C570 H578 0.930 . S
C571 C570 1.394 . S
C571 C572 1.383 . S
C571 H579 0.929 . S
C572 C571 1.383 . S
C572 C573 1.377 . S
C573 H557 0.930 . S
C573 C572 1.377 . S
C573 C574 1.379 . S
C574 H558 0.931 . S
C574 C568 1.383 . S
C574 C573 1.379 . S
H575 C569 0.959 . S
H576 C569 0.961 . S
H577 C569 0.960 . S
H578 C570 0.930 . S
H579 C571 0.929 . S
H580 C588 0.929 . S
H581 C590 0.930 . S
H582 C592 0.930 . S
H583 C595 0.929 . S
H584 C598 0.930 . S
H585 C600 0.960 . S
H586 C600 0.960 . S
H587 C600 0.960 . S
C588 H580 0.929 . S
C588 C589 1.377 . S
C588 C590 1.384 . S
C589 C588 1.377 . S
C589 C595 1.390 . S
C590 H581 0.930 . S
C590 C588 1.384 . S
C590 C591 1.372 . S
C591 C590 1.372 . S
C591 C592 1.400 . S
C591 C596 1.490 . S
C592 H582 0.930 . S
C592 C591 1.400 . S
C592 C595 1.386 . S
H593 C609 0.930 . S
H594 C610 0.931 . S
C595 H583 0.929 . S
C595 C589 1.390 . S
C595 C592 1.386 . S
C596 C591 1.490 . S
C596 C598 1.395 . S
C596 C599 1.403 . S
H597 C603 0.930 . S
C598 H584 0.930 . S
C598 C596 1.395 . S
C598 C601 1.403 . S
C599 C596 1.403 . S
C599 C600 1.524 . S
C599 C603 1.400 . S
C600 H585 0.960 . S
C600 H586 0.960 . S
C600 H587 0.960 . S
C600 C599 1.524 . S
C601 C598 1.403 . S
C601 C602 1.392 . S
C601 C605 1.495 . S
C602 C601 1.392 . S
C602 C603 1.385 . S
C602 C604 1.478 . S
C603 H597 0.930 . S
C603 C599 1.400 . S
C603 C602 1.385 . S
C604 C602 1.478 . S
C604 C606 1.381 . S
C604 C610 1.383 . S
C605 C601 1.495 . S
C605 H611 0.959 . S
C605 H612 0.961 . S
C605 H613 0.960 . S
C606 C604 1.381 . S
C606 C607 1.394 . S
C606 H614 0.930 . S
C607 C606 1.394 . S
C607 C608 1.383 . S
C607 H615 0.929 . S
C608 C607 1.383 . S
C608 C609 1.377 . S
C609 H593 0.930 . S
C609 C608 1.377 . S
C609 C610 1.379 . S
C610 H594 0.931 . S
C610 C604 1.383 . S
C610 C609 1.379 . S
H611 C605 0.959 . S
H612 C605 0.961 . S
H613 C605 0.960 . S
H614 C606 0.930 . S
H615 C607 0.929 . S
H616 C624 0.929 . S
H617 C626 0.930 . S
H618 C628 0.930 . S
H619 C631 0.929 . S
H620 C634 0.930 . S
H621 C636 0.960 . S
H622 C636 0.960 . S
H623 C636 0.960 . S
C624 H616 0.929 . S
C624 C625 1.377 . S
C624 C626 1.384 . S
C625 C624 1.377 . S
C625 C631 1.390 . S
C626 H617 0.930 . S
C626 C624 1.384 . S
C626 C627 1.372 . S
C627 C626 1.372 . S
C627 C628 1.400 . S
C627 C632 1.490 . S
C628 H618 0.930 . S
C628 C627 1.400 . S
C628 C631 1.386 . S
H629 C645 0.930 . S
H630 C646 0.931 . S
C631 H619 0.929 . S
C631 C625 1.390 . S
C631 C628 1.386 . S
C632 C627 1.490 . S
C632 C634 1.395 . S
C632 C635 1.403 . S
H633 C639 0.930 . S
C634 H620 0.930 . S
C634 C632 1.395 . S
C634 C637 1.403 . S
C635 C632 1.403 . S
C635 C636 1.524 . S
C635 C639 1.400 . S
C636 H621 0.960 . S
C636 H622 0.960 . S
C636 H623 0.960 . S
C636 C635 1.524 . S
C637 C634 1.403 . S
C637 C638 1.392 . S
C637 C641 1.495 . S
C638 C637 1.392 . S
C638 C639 1.385 . S
C638 C640 1.478 . S
C639 H633 0.930 . S
C639 C635 1.400 . S
C639 C638 1.385 . S
C640 C638 1.478 . S
C640 C642 1.381 . S
C640 C646 1.383 . S
C641 C637 1.495 . S
C641 H647 0.959 . S
C641 H648 0.961 . S
C641 H649 0.960 . S
C642 C640 1.381 . S
C642 C643 1.394 . S
C642 H650 0.930 . S
C643 C642 1.394 . S
C643 C644 1.383 . S
C643 H651 0.929 . S
C644 C643 1.383 . S
C644 C645 1.377 . S
C645 H629 0.930 . S
C645 C644 1.377 . S
C645 C646 1.379 . S
C646 H630 0.931 . S
C646 C640 1.383 . S
C646 C645 1.379 . S
H647 C641 0.959 . S
H648 C641 0.961 . S
H649 C641 0.960 . S
H650 C642 0.930 . S
H651 C643 0.929 . S
H652 C660 0.929 . S
H653 C662 0.930 . S
H654 C664 0.930 . S
H655 C667 0.929 . S
H656 C670 0.930 . S
H657 C672 0.960 . S
H658 C672 0.960 . S
H659 C672 0.960 . S
C660 H652 0.929 . S
C660 C661 1.377 . S
C660 C662 1.384 . S
C661 C660 1.377 . S
C661 C667 1.390 . S
C662 H653 0.930 . S
C662 C660 1.384 . S
C662 C663 1.372 . S
C663 C662 1.372 . S
C663 C664 1.400 . S
C663 C668 1.490 . S
C664 H654 0.930 . S
C664 C663 1.400 . S
C664 C667 1.386 . S
H665 C681 0.930 . S
H666 C682 0.931 . S
C667 H655 0.929 . S
C667 C661 1.390 . S
C667 C664 1.386 . S
C668 C663 1.490 . S
C668 C670 1.395 . S
C668 C671 1.403 . S
H669 C675 0.930 . S
C670 H656 0.930 . S
C670 C668 1.395 . S
C670 C673 1.403 . S
C671 C668 1.403 . S
C671 C672 1.524 . S
C671 C675 1.400 . S
C672 H657 0.960 . S
C672 H658 0.960 . S
C672 H659 0.960 . S
C672 C671 1.524 . S
C673 C670 1.403 . S
C673 C674 1.392 . S
C673 C677 1.495 . S
C674 C673 1.392 . S
C674 C675 1.385 . S
C674 C676 1.478 . S
C675 H669 0.930 . S
C675 C671 1.400 . S
C675 C674 1.385 . S
C676 C674 1.478 . S
C676 C678 1.381 . S
C676 C682 1.383 . S
C677 C673 1.495 . S
C677 H683 0.959 . S
C677 H684 0.961 . S
C677 H685 0.960 . S
C678 C676 1.381 . S
C678 C679 1.394 . S
C678 H686 0.930 . S
C679 C678 1.394 . S
C679 C680 1.383 . S
C679 H687 0.929 . S
C680 C679 1.383 . S
C680 C681 1.377 . S
C681 H665 0.930 . S
C681 C680 1.377 . S
C681 C682 1.379 . S
C682 H666 0.931 . S
C682 C676 1.383 . S
C682 C681 1.379 . S
H683 C677 0.959 . S
H684 C677 0.961 . S
H685 C677 0.960 . S
H686 C678 0.930 . S
H687 C679 0.929 . S
H688 C696 0.929 . S
H689 C698 0.930 . S
H690 C700 0.930 . S
H691 C703 0.929 . S
H692 C706 0.930 . S
H693 C708 0.960 . S
H694 C708 0.960 . S
H695 C708 0.960 . S
C696 H688 0.929 . S
C696 C697 1.377 . S
C696 C698 1.384 . S
C697 C696 1.377 . S
C697 C703 1.390 . S
C698 H689 0.930 . S
C698 C696 1.384 . S
C698 C699 1.372 . S
C699 C698 1.372 . S
C699 C700 1.400 . S
C699 C704 1.490 . S
C700 H690 0.930 . S
C700 C699 1.400 . S
C700 C703 1.386 . S
H701 C717 0.930 . S
H702 C718 0.931 . S
C703 H691 0.929 . S
C703 C697 1.390 . S
C703 C700 1.386 . S
C704 C699 1.490 . S
C704 C706 1.395 . S
C704 C707 1.403 . S
H705 C711 0.930 . S
C706 H692 0.930 . S
C706 C704 1.395 . S
C706 C709 1.403 . S
C707 C704 1.403 . S
C707 C708 1.524 . S
C707 C711 1.400 . S
C708 H693 0.960 . S
C708 H694 0.960 . S
C708 H695 0.960 . S
C708 C707 1.524 . S
C709 C706 1.403 . S
C709 C710 1.392 . S
C709 C713 1.495 . S
C710 C709 1.392 . S
C710 C711 1.385 . S
C710 C712 1.478 . S
C711 H705 0.930 . S
C711 C707 1.400 . S
C711 C710 1.385 . S
C712 C710 1.478 . S
C712 C714 1.381 . S
C712 C718 1.383 . S
C713 C709 1.495 . S
C713 H719 0.959 . S
C713 H720 0.961 . S
C713 H721 0.960 . S
C714 C712 1.381 . S
C714 C715 1.394 . S
C714 H722 0.930 . S
C715 C714 1.394 . S
C715 C716 1.383 . S
C715 H723 0.929 . S
C716 C715 1.383 . S
C716 C717 1.377 . S
C717 H701 0.930 . S
C717 C716 1.377 . S
C717 C718 1.379 . S
C718 H702 0.931 . S
C718 C712 1.383 . S
C718 C717 1.379 . S
H719 C713 0.959 . S
H720 C713 0.961 . S
H721 C713 0.960 . S
H722 C714 0.930 . S
H723 C715 0.929 . S
H724 C732 0.929 . S
H725 C734 0.930 . S
H726 C736 0.930 . S
H727 C739 0.929 . S
H728 C742 0.930 . S
H729 C744 0.960 . S
H730 C744 0.960 . S
H731 C744 0.960 . S
C732 H724 0.929 . S
C732 C733 1.377 . S
C732 C734 1.384 . S
C733 C732 1.377 . S
C733 C739 1.390 . S
C734 H725 0.930 . S
C734 C732 1.384 . S
C734 C735 1.372 . S
C735 C734 1.372 . S
C735 C736 1.400 . S
C735 C740 1.490 . S
C736 H726 0.930 . S
C736 C735 1.400 . S
C736 C739 1.386 . S
H737 C753 0.930 . S
H738 C754 0.931 . S
C739 H727 0.929 . S
C739 C733 1.390 . S
C739 C736 1.386 . S
C740 C735 1.490 . S
C740 C742 1.395 . S
C740 C743 1.403 . S
H741 C747 0.930 . S
C742 H728 0.930 . S
C742 C740 1.395 . S
C742 C745 1.403 . S
C743 C740 1.403 . S
C743 C744 1.524 . S
C743 C747 1.400 . S
C744 H729 0.960 . S
C744 H730 0.960 . S
C744 H731 0.960 . S
C744 C743 1.524 . S
C745 C742 1.403 . S
C745 C746 1.392 . S
C745 C749 1.495 . S
C746 C745 1.392 . S
C746 C747 1.385 . S
C746 C748 1.478 . S
C747 H741 0.930 . S
C747 C743 1.400 . S
C747 C746 1.385 . S
C748 C746 1.478 . S
C748 C750 1.381 . S
C748 C754 1.383 . S
C749 C745 1.495 . S
C749 H755 0.959 . S
C749 H756 0.961 . S
C749 H757 0.960 . S
C750 C748 1.381 . S
C750 C751 1.394 . S
C750 H758 0.930 . S
C751 C750 1.394 . S
C751 C752 1.383 . S
C751 H759 0.929 . S
C752 C751 1.383 . S
C752 C753 1.377 . S
C753 H737 0.930 . S
C753 C752 1.377 . S
C753 C754 1.379 . S
C754 H738 0.931 . S
C754 C748 1.383 . S
C754 C753 1.379 . S
H755 C749 0.959 . S
H756 C749 0.961 . S
H757 C749 0.960 . S
H758 C750 0.930 . S
H759 C751 0.929 . S
H760 C768 0.929 . S
H761 C770 0.930 . S
H762 C772 0.930 . S
H763 C775 0.929 . S
H764 C778 0.930 . S
H765 C780 0.960 . S
H766 C780 0.960 . S
H767 C780 0.960 . S
C768 H760 0.929 . S
C768 C769 1.377 . S
C768 C770 1.384 . S
C769 C768 1.377 . S
C769 C775 1.390 . S
C770 H761 0.930 . S
C770 C768 1.384 . S
C770 C771 1.372 . S
C771 C770 1.372 . S
C771 C772 1.400 . S
C771 C776 1.490 . S
C772 H762 0.930 . S
C772 C771 1.400 . S
C772 C775 1.386 . S
H773 C789 0.930 . S
H774 C790 0.931 . S
C775 H763 0.929 . S
C775 C769 1.390 . S
C775 C772 1.386 . S
C776 C771 1.490 . S
C776 C778 1.395 . S
C776 C779 1.403 . S
H777 C783 0.930 . S
C778 H764 0.930 . S
C778 C776 1.395 . S
C778 C781 1.403 . S
C779 C776 1.403 . S
C779 C780 1.524 . S
C779 C783 1.400 . S
C780 H765 0.960 . S
C780 H766 0.960 . S
C780 H767 0.960 . S
C780 C779 1.524 . S
C781 C778 1.403 . S
C781 C782 1.392 . S
C781 C785 1.495 . S
C782 C781 1.392 . S
C782 C783 1.385 . S
C782 C784 1.478 . S
C783 H777 0.930 . S
C783 C779 1.400 . S
C783 C782 1.385 . S
C784 C782 1.478 . S
C784 C786 1.381 . S
C784 C790 1.383 . S
C785 C781 1.495 . S
C785 H791 0.959 . S
C785 H792 0.961 . S
C785 H793 0.960 . S
C786 C784 1.381 . S
C786 C787 1.394 . S
C786 H794 0.930 . S
C787 C786 1.394 . S
C787 C788 1.383 . S
C787 H795 0.929 . S
C788 C787 1.383 . S
C788 C789 1.377 . S
C789 H773 0.930 . S
C789 C788 1.377 . S
C789 C790 1.379 . S
C790 H774 0.931 . S
C790 C784 1.383 . S
C790 C789 1.379 . S
H791 C785 0.959 . S
H792 C785 0.961 . S
H793 C785 0.960 . S
H794 C786 0.930 . S
H795 C787 0.929 . S
H796 C804 0.929 . S
H797 C806 0.930 . S
H798 C808 0.930 . S
H799 C811 0.929 . S
H800 C814 0.930 . S
H801 C816 0.960 . S
H802 C816 0.960 . S
H803 C816 0.960 . S
C804 H796 0.929 . S
C804 C805 1.377 . S
C804 C806 1.384 . S
C805 C804 1.377 . S
C805 C811 1.390 . S
C806 H797 0.930 . S
C806 C804 1.384 . S
C806 C807 1.372 . S
C807 C806 1.372 . S
C807 C808 1.400 . S
C807 C812 1.490 . S
C808 H798 0.930 . S
C808 C807 1.400 . S
C808 C811 1.386 . S
H809 C825 0.930 . S
H810 C826 0.931 . S
C811 H799 0.929 . S
C811 C805 1.390 . S
C811 C808 1.386 . S
C812 C807 1.490 . S
C812 C814 1.395 . S
C812 C815 1.403 . S
H813 C819 0.930 . S
C814 H800 0.930 . S
C814 C812 1.395 . S
C814 C817 1.403 . S
C815 C812 1.403 . S
C815 C816 1.524 . S
C815 C819 1.400 . S
C816 H801 0.960 . S
C816 H802 0.960 . S
C816 H803 0.960 . S
C816 C815 1.524 . S
C817 C814 1.403 . S
C817 C818 1.392 . S
C817 C821 1.495 . S
C818 C817 1.392 . S
C818 C819 1.385 . S
C818 C820 1.478 . S
C819 H813 0.930 . S
C819 C815 1.400 . S
C819 C818 1.385 . S
C820 C818 1.478 . S
C820 C822 1.381 . S
C820 C826 1.383 . S
C821 C817 1.495 . S
C821 H827 0.959 . S
C821 H828 0.961 . S
C821 H829 0.960 . S
C822 C820 1.381 . S
C822 C823 1.394 . S
C822 H830 0.930 . S
C823 C822 1.394 . S
C823 C824 1.383 . S
C823 H831 0.929 . S
C824 C823 1.383 . S
C824 C825 1.377 . S
C825 H809 0.930 . S
C825 C824 1.377 . S
C825 C826 1.379 . S
C826 H810 0.931 . S
C826 C820 1.383 . S
C826 C825 1.379 . S
H827 C821 0.959 . S
H828 C821 0.961 . S
H829 C821 0.960 . S
H830 C822 0.930 . S
H831 C823 0.929 . S
H832 C840 0.929 . S
H833 C842 0.930 . S
H834 C844 0.930 . S
H835 C847 0.929 . S
H836 C850 0.930 . S
H837 C852 0.960 . S
H838 C852 0.960 . S
H839 C852 0.960 . S
C840 H832 0.929 . S
C840 C841 1.377 . S
C840 C842 1.384 . S
C841 C840 1.377 . S
C841 C847 1.390 . S
C842 H833 0.930 . S
C842 C840 1.384 . S
C842 C843 1.372 . S
C843 C842 1.372 . S
C843 C844 1.400 . S
C843 C848 1.490 . S
C844 H834 0.930 . S
C844 C843 1.400 . S
C844 C847 1.386 . S
H845 C861 0.930 . S
H846 C862 0.931 . S
C847 H835 0.929 . S
C847 C841 1.390 . S
C847 C844 1.386 . S
C848 C843 1.490 . S
C848 C850 1.395 . S
C848 C851 1.403 . S
H849 C855 0.930 . S
C850 H836 0.930 . S
C850 C848 1.395 . S
C850 C853 1.403 . S
C851 C848 1.403 . S
C851 C852 1.524 . S
C851 C855 1.400 . S
C852 H837 0.960 . S
C852 H838 0.960 . S
C852 H839 0.960 . S
C852 C851 1.524 . S
C853 C850 1.403 . S
C853 C854 1.392 . S
C853 C857 1.495 . S
C854 C853 1.392 . S
C854 C855 1.385 . S
C854 C856 1.478 . S
C855 H849 0.930 . S
C855 C851 1.400 . S
C855 C854 1.385 . S
C856 C854 1.478 . S
C856 C858 1.381 . S
C856 C862 1.383 . S
C857 C853 1.495 . S
C857 H863 0.959 . S
C857 H864 0.961 . S
C857 H865 0.960 . S
C858 C856 1.381 . S
C858 C859 1.394 . S
C858 H866 0.930 . S
C859 C858 1.394 . S
C859 C860 1.383 . S
C859 H867 0.929 . S
C860 C859 1.383 . S
C860 C861 1.377 . S
C861 H845 0.930 . S
C861 C860 1.377 . S
C861 C862 1.379 . S
C862 H846 0.931 . S
C862 C856 1.383 . S
C862 C861 1.379 . S
H863 C857 0.959 . S
H864 C857 0.961 . S
H865 C857 0.960 . S
H866 C858 0.930 . S
H867 C859 0.929 . S
H868 C876 0.929 . S
H869 C878 0.930 . S
H870 C880 0.930 . S
H871 C883 0.929 . S
H872 C886 0.930 . S
H873 C888 0.960 . S
H874 C888 0.960 . S
H875 C888 0.960 . S
C876 H868 0.929 . S
C876 C877 1.377 . S
C876 C878 1.384 . S
C877 C876 1.377 . S
C877 C883 1.390 . S
C878 H869 0.930 . S
C878 C876 1.384 . S
C878 C879 1.372 . S
C879 C878 1.372 . S
C879 C880 1.400 . S
C879 C884 1.490 . S
C880 H870 0.930 . S
C880 C879 1.400 . S
C880 C883 1.386 . S
H881 C897 0.930 . S
H882 C898 0.931 . S
C883 H871 0.929 . S
C883 C877 1.390 . S
C883 C880 1.386 . S
C884 C879 1.490 . S
C884 C886 1.395 . S
C884 C887 1.403 . S
H885 C891 0.930 . S
C886 H872 0.930 . S
C886 C884 1.395 . S
C886 C889 1.403 . S
C887 C884 1.403 . S
C887 C888 1.524 . S
C887 C891 1.400 . S
C888 H873 0.960 . S
C888 H874 0.960 . S
C888 H875 0.960 . S
C888 C887 1.524 . S
C889 C886 1.403 . S
C889 C890 1.392 . S
C889 C893 1.495 . S
C890 C889 1.392 . S
C890 C891 1.385 . S
C890 C892 1.478 . S
C891 H885 0.930 . S
C891 C887 1.400 . S
C891 C890 1.385 . S
C892 C890 1.478 . S
C892 C894 1.381 . S
C892 C898 1.383 . S
C893 C889 1.495 . S
C893 H899 0.959 . S
C893 H900 0.961 . S
C893 H901 0.960 . S
C894 C892 1.381 . S
C894 C895 1.394 . S
C894 H902 0.930 . S
C895 C894 1.394 . S
C895 C896 1.383 . S
C895 H903 0.929 . S
C896 C895 1.383 . S
C896 C897 1.377 . S
C897 H881 0.930 . S
C897 C896 1.377 . S
C897 C898 1.379 . S
C898 H882 0.931 . S
C898 C892 1.383 . S
C898 C897 1.379 . S
H899 C893 0.959 . S
H900 C893 0.961 . S
H901 C893 0.960 . S
H902 C894 0.930 . S
H903 C895 0.929 . S
H904 C912 0.929 . S
H905 C914 0.930 . S
H906 C916 0.930 . S
H907 C919 0.929 . S
H908 C922 0.930 . S
H909 C924 0.960 . S
H910 C924 0.960 . S
H911 C924 0.960 . S
C912 H904 0.929 . S
C912 C913 1.377 . S
C912 C914 1.384 . S
C913 C912 1.377 . S
C913 C919 1.390 . S
C914 H905 0.930 . S
C914 C912 1.384 . S
C914 C915 1.372 . S
C915 C914 1.372 . S
C915 C916 1.400 . S
C915 C920 1.490 . S
C916 H906 0.930 . S
C916 C915 1.400 . S
C916 C919 1.386 . S
H917 C933 0.930 . S
H918 C934 0.931 . S
C919 H907 0.929 . S
C919 C913 1.390 . S
C919 C916 1.386 . S
C920 C915 1.490 . S
C920 C922 1.395 . S
C920 C923 1.403 . S
H921 C927 0.930 . S
C922 H908 0.930 . S
C922 C920 1.395 . S
C922 C925 1.403 . S
C923 C920 1.403 . S
C923 C924 1.524 . S
C923 C927 1.400 . S
C924 H909 0.960 . S
C924 H910 0.960 . S
C924 H911 0.960 . S
C924 C923 1.524 . S
C925 C922 1.403 . S
C925 C926 1.392 . S
C925 C929 1.495 . S
C926 C925 1.392 . S
C926 C927 1.385 . S
C926 C928 1.478 . S
C927 H921 0.930 . S
C927 C923 1.400 . S
C927 C926 1.385 . S
C928 C926 1.478 . S
C928 C930 1.381 . S
C928 C934 1.383 . S
C929 C925 1.495 . S
C929 H935 0.959 . S
C929 H936 0.961 . S
C929 H937 0.960 . S
C930 C928 1.381 . S
C930 C931 1.394 . S
C930 H938 0.930 . S
C931 C930 1.394 . S
C931 C932 1.383 . S
C931 H939 0.929 . S
C932 C931 1.383 . S
C932 C933 1.377 . S
C933 H917 0.930 . S
C933 C932 1.377 . S
C933 C934 1.379 . S
C934 H918 0.931 . S
C934 C928 1.383 . S
C934 C933 1.379 . S
H935 C929 0.959 . S
H936 C929 0.961 . S
H937 C929 0.960 . S
H938 C930 0.930 . S
H939 C931 0.929 . S
H940 C948 0.929 . S
H941 C950 0.930 . S
H942 C952 0.930 . S
H943 C955 0.929 . S
H944 C958 0.930 . S
H945 C960 0.960 . S
H946 C960 0.960 . S
H947 C960 0.960 . S
C948 H940 0.929 . S
C948 C949 1.377 . S
C948 C950 1.384 . S
C949 C948 1.377 . S
C949 C955 1.390 . S
C950 H941 0.930 . S
C950 C948 1.384 . S
C950 C951 1.372 . S
C951 C950 1.372 . S
C951 C952 1.400 . S
C951 C956 1.490 . S
C952 H942 0.930 . S
C952 C951 1.400 . S
C952 C955 1.386 . S
H953 C969 0.930 . S
H954 C970 0.931 . S
C955 H943 0.929 . S
C955 C949 1.390 . S
C955 C952 1.386 . S
C956 C951 1.490 . S
C956 C958 1.395 . S
C956 C959 1.403 . S
H957 C963 0.930 . S
C958 H944 0.930 . S
C958 C956 1.395 . S
C958 C961 1.403 . S
C959 C956 1.403 . S
C959 C960 1.524 . S
C959 C963 1.400 . S
C960 H945 0.960 . S
C960 H946 0.960 . S
C960 H947 0.960 . S
C960 C959 1.524 . S
C961 C958 1.403 . S
C961 C962 1.392 . S
C961 C965 1.495 . S
C962 C961 1.392 . S
C962 C963 1.385 . S
C962 C964 1.478 . S
C963 H957 0.930 . S
C963 C959 1.400 . S
C963 C962 1.385 . S
C964 C962 1.478 . S
C964 C966 1.381 . S
C964 C970 1.383 . S
C965 C961 1.495 . S
C965 H971 0.959 . S
C965 H972 0.961 . S
C965 H973 0.960 . S
C966 C964 1.381 . S
C966 C967 1.394 . S
C966 H974 0.930 . S
C967 C966 1.394 . S
C967 C968 1.383 . S
C967 H975 0.929 . S
C968 C967 1.383 . S
C968 C969 1.377 . S
C969 H953 0.930 . S
C969 C968 1.377 . S
C969 C970 1.379 . S
C970 H954 0.931 . S
C970 C964 1.383 . S
C970 C969 1.379 . S
H971 C965 0.959 . S
H972 C965 0.961 . S
H973 C965 0.960 . S
H974 C966 0.930 . S
H975 C967 0.929 . S
H976 C984 0.929 . S
H977 C986 0.930 . S
H978 C988 0.930 . S
H979 C991 0.929 . S
H980 C994 0.930 . S
H981 C996 0.960 . S
H982 C996 0.960 . S
H983 C996 0.960 . S
C984 H976 0.929 . S
C984 C985 1.377 . S
C984 C986 1.384 . S
C985 C984 1.377 . S
C985 C991 1.390 . S
C986 H977 0.930 . S
C986 C984 1.384 . S
C986 C987 1.372 . S
C987 C986 1.372 . S
C987 C988 1.400 . S
C987 C992 1.490 . S
C988 H978 0.930 . S
C988 C987 1.400 . S
C988 C991 1.386 . S
H989 C1005 0.930 . S
H990 C1006 0.931 . S
C991 H979 0.929 . S
C991 C985 1.390 . S
C991 C988 1.386 . S
C992 C987 1.490 . S
C992 C994 1.395 . S
C992 C995 1.403 . S
H993 C999 0.930 . S
C994 H980 0.930 . S
C994 C992 1.395 . S
C994 C997 1.403 . S
C995 C992 1.403 . S
C995 C996 1.524 . S
C995 C999 1.400 . S
C996 H981 0.960 . S
C996 H982 0.960 . S
C996 H983 0.960 . S
C996 C995 1.524 . S
C997 C994 1.403 . S
C997 C998 1.392 . S
C997 C1001 1.495 . S
C998 C997 1.392 . S
C998 C999 1.385 . S
C998 C1000 1.478 . S
C999 H993 0.930 . S
C999 C995 1.400 . S
C999 C998 1.385 . S
C1000 C998 1.478 . S
C1000 C1002 1.381 . S
C1000 C1006 1.383 . S
C1001 C997 1.495 . S
C1001 H1007 0.959 . S
C1001 H1008 0.961 . S
C1001 H1009 0.960 . S
C1002 C1000 1.381 . S
C1002 C1003 1.394 . S
C1002 H1010 0.930 . S
C1003 C1002 1.394 . S
C1003 C1004 1.383 . S
C1003 H1011 0.929 . S
C1004 C1003 1.383 . S
C1004 C1005 1.377 . S
C1005 H989 0.930 . S
C1005 C1004 1.377 . S
C1005 C1006 1.379 . S
C1006 H990 0.931 . S
C1006 C1000 1.383 . S
C1006 C1005 1.379 . S
H1007 C1001 0.959 . S
H1008 C1001 0.961 . S
H1009 C1001 0.960 . S
H1010 C1002 0.930 . S
H1011 C1003 0.929 . S
H1012 C1020 0.929 . S
H1013 C1022 0.930 . S
H1014 C1024 0.930 . S
H1015 C1027 0.929 . S
H1016 C1030 0.930 . S
H1017 C1032 0.960 . S
H1018 C1032 0.960 . S
H1019 C1032 0.960 . S
C1020 H1012 0.929 . S
C1020 C1021 1.377 . S
C1020 C1022 1.384 . S
C1021 C1020 1.377 . S
C1021 C1027 1.390 . S
C1022 H1013 0.930 . S
C1022 C1020 1.384 . S
C1022 C1023 1.372 . S
C1023 C1022 1.372 . S
C1023 C1024 1.400 . S
C1023 C1028 1.490 . S
C1024 H1014 0.930 . S
C1024 C1023 1.400 . S
C1024 C1027 1.386 . S
H1025 C1041 0.930 . S
H1026 C1042 0.931 . S
C1027 H1015 0.929 . S
C1027 C1021 1.390 . S
C1027 C1024 1.386 . S
C1028 C1023 1.490 . S
C1028 C1030 1.395 . S
C1028 C1031 1.403 . S
H1029 C1035 0.930 . S
C1030 H1016 0.930 . S
C1030 C1028 1.395 . S
C1030 C1033 1.403 . S
C1031 C1028 1.403 . S
C1031 C1032 1.524 . S
C1031 C1035 1.400 . S
C1032 H1017 0.960 . S
C1032 H1018 0.960 . S
C1032 H1019 0.960 . S
C1032 C1031 1.524 . S
C1033 C1030 1.403 . S
C1033 C1034 1.392 . S
C1033 C1037 1.495 . S
C1034 C1033 1.392 . S
C1034 C1035 1.385 . S
C1034 C1036 1.478 . S
C1035 H1029 0.930 . S
C1035 C1031 1.400 . S
C1035 C1034 1.385 . S
C1036 C1034 1.478 . S
C1036 C1038 1.381 . S
C1036 C1042 1.383 . S
C1037 C1033 1.495 . S
C1037 H1043 0.959 . S
C1037 H1044 0.961 . S
C1037 H1045 0.960 . S
C1038 C1036 1.381 . S
C1038 C1039 1.394 . S
C1038 H1046 0.930 . S
C1039 C1038 1.394 . S
C1039 C1040 1.383 . S
C1039 H1047 0.929 . S
C1040 C1039 1.383 . S
C1040 C1041 1.377 . S
C1041 H1025 0.930 . S
C1041 C1040 1.377 . S
C1041 C1042 1.379 . S
C1042 H1026 0.931 . S
C1042 C1036 1.383 . S
C1042 C1041 1.379 . S
H1043 C1037 0.959 . S
H1044 C1037 0.961 . S
H1045 C1037 0.960 . S
H1046 C1038 0.930 . S
H1047 C1039 0.929 . S
H1048 C1056 0.929 . S
H1049 C1058 0.930 . S
H1050 C1060 0.930 . S
H1051 C1063 0.929 . S
H1052 C1066 0.930 . S
H1053 C1068 0.960 . S
H1054 C1068 0.960 . S
H1055 C1068 0.960 . S
C1056 H1048 0.929 . S
C1056 C1057 1.377 . S
C1056 C1058 1.384 . S
C1057 C1056 1.377 . S
C1057 C1063 1.390 . S
C1058 H1049 0.930 . S
C1058 C1056 1.384 . S
C1058 C1059 1.372 . S
C1059 C1058 1.372 . S
C1059 C1060 1.400 . S
C1059 C1064 1.490 . S
C1060 H1050 0.930 . S
C1060 C1059 1.400 . S
C1060 C1063 1.386 . S
H1061 C1077 0.930 . S
H1062 C1078 0.931 . S
C1063 H1051 0.929 . S
C1063 C1057 1.390 . S
C1063 C1060 1.386 . S
C1064 C1059 1.490 . S
C1064 C1066 1.395 . S
C1064 C1067 1.403 . S
H1065 C1071 0.930 . S
C1066 H1052 0.930 . S
C1066 C1064 1.395 . S
C1066 C1069 1.403 . S
C1067 C1064 1.403 . S
C1067 C1068 1.524 . S
C1067 C1071 1.400 . S
C1068 H1053 0.960 . S
C1068 H1054 0.960 . S
C1068 H1055 0.960 . S
C1068 C1067 1.524 . S
C1069 C1066 1.403 . S
C1069 C1070 1.392 . S
C1069 C1073 1.495 . S
C1070 C1069 1.392 . S
C1070 C1071 1.385 . S
C1070 C1072 1.478 . S
C1071 H1065 0.930 . S
C1071 C1067 1.400 . S
C1071 C1070 1.385 . S
C1072 C1070 1.478 . S
C1072 C1074 1.381 . S
C1072 C1078 1.383 . S
C1073 C1069 1.495 . S
C1073 H1079 0.959 . S
C1073 H1080 0.961 . S
C1073 H1081 0.960 . S
C1074 C1072 1.381 . S
C1074 C1075 1.394 . S
C1074 H1082 0.930 . S
C1075 C1074 1.394 . S
C1075 C1076 1.383 . S
C1075 H1083 0.929 . S
C1076 C1075 1.383 . S
C1076 C1077 1.377 . S
C1077 H1061 0.930 . S
C1077 C1076 1.377 . S
C1077 C1078 1.379 . S
C1078 H1062 0.931 . S
C1078 C1072 1.383 . S
C1078 C1077 1.379 . S
H1079 C1073 0.959 . S
H1080 C1073 0.961 . S
H1081 C1073 0.960 . S
H1082 C1074 0.930 . S
H1083 C1075 0.929 . S
H1084 C1092 0.929 . S
H1085 C1094 0.930 . S
H1086 C1096 0.930 . S
H1087 C1099 0.929 . S
H1088 C1102 0.930 . S
H1089 C1104 0.960 . S
H1090 C1104 0.960 . S
H1091 C1104 0.960 . S
C1092 H1084 0.929 . S
C1092 C1093 1.377 . S
C1092 C1094 1.384 . S
C1093 C1092 1.377 . S
C1093 C1099 1.390 . S
C1094 H1085 0.930 . S
C1094 C1092 1.384 . S
C1094 C1095 1.372 . S
C1095 C1094 1.372 . S
C1095 C1096 1.400 . S
C1095 C1100 1.490 . S
C1096 H1086 0.930 . S
C1096 C1095 1.400 . S
C1096 C1099 1.386 . S
H1097 C1113 0.930 . S
H1098 C1114 0.931 . S
C1099 H1087 0.929 . S
C1099 C1093 1.390 . S
C1099 C1096 1.386 . S
C1100 C1095 1.490 . S
C1100 C1102 1.395 . S
C1100 C1103 1.403 . S
H1101 C1107 0.930 . S
C1102 H1088 0.930 . S
C1102 C1100 1.395 . S
C1102 C1105 1.403 . S
C1103 C1100 1.403 . S
C1103 C1104 1.524 . S
C1103 C1107 1.400 . S
C1104 H1089 0.960 . S
C1104 H1090 0.960 . S
C1104 H1091 0.960 . S
C1104 C1103 1.524 . S
C1105 C1102 1.403 . S
C1105 C1106 1.392 . S
C1105 C1109 1.495 . S
C1106 C1105 1.392 . S
C1106 C1107 1.385 . S
C1106 C1108 1.478 . S
C1107 H1101 0.930 . S
C1107 C1103 1.400 . S
C1107 C1106 1.385 . S
C1108 C1106 1.478 . S
C1108 C1110 1.381 . S
C1108 C1114 1.383 . S
C1109 C1105 1.495 . S
C1109 H1115 0.959 . S
C1109 H1116 0.961 . S
C1109 H1117 0.960 . S
C1110 C1108 1.381 . S
C1110 C1111 1.394 . S
C1110 H1118 0.930 . S
C1111 C1110 1.394 . S
C1111 C1112 1.383 . S
C1111 H1119 0.929 . S
C1112 C1111 1.383 . S
C1112 C1113 1.377 . S
C1113 H1097 0.930 . S
C1113 C1112 1.377 . S
C1113 C1114 1.379 . S
C1114 H1098 0.931 . S
C1114 C1108 1.383 . S
C1114 C1113 1.379 . S
H1115 C1109 0.959 . S
H1116 C1109 0.961 . S
H1117 C1109 0.960 . S
H1118 C1110 0.930 . S
H1119 C1111 0.929 . S
H1120 C1128 0.929 . S
H1121 C1130 0.930 . S
H1122 C1132 0.930 . S
H1123 C1135 0.929 . S
H1124 C1138 0.930 . S
H1125 C1140 0.960 . S
H1126 C1140 0.960 . S
H1127 C1140 0.960 . S
C1128 H1120 0.929 . S
C1128 C1129 1.377 . S
C1128 C1130 1.384 . S
C1129 C1128 1.377 . S
C1129 C1135 1.390 . S
C1130 H1121 0.930 . S
C1130 C1128 1.384 . S
C1130 C1131 1.372 . S
C1131 C1130 1.372 . S
C1131 C1132 1.400 . S
C1131 C1136 1.490 . S
C1132 H1122 0.930 . S
C1132 C1131 1.400 . S
C1132 C1135 1.386 . S
H1133 C1149 0.930 . S
H1134 C1150 0.931 . S
C1135 H1123 0.929 . S
C1135 C1129 1.390 . S
C1135 C1132 1.386 . S
C1136 C1131 1.490 . S
C1136 C1138 1.395 . S
C1136 C1139 1.403 . S
H1137 C1143 0.930 . S
C1138 H1124 0.930 . S
C1138 C1136 1.395 . S
C1138 C1141 1.403 . S
C1139 C1136 1.403 . S
C1139 C1140 1.524 . S
C1139 C1143 1.400 . S
C1140 H1125 0.960 . S
C1140 H1126 0.960 . S
C1140 H1127 0.960 . S
C1140 C1139 1.524 . S
C1141 C1138 1.403 . S
C1141 C1142 1.392 . S
C1141 C1145 1.495 . S
C1142 C1141 1.392 . S
C1142 C1143 1.385 . S
C1142 C1144 1.478 . S
C1143 H1137 0.930 . S
C1143 C1139 1.400 . S
C1143 C1142 1.385 . S
C1144 C1142 1.478 . S
C1144 C1146 1.381 . S
C1144 C1150 1.383 . S
C1145 C1141 1.495 . S
C1145 H1151 0.959 . S
C1145 H1152 0.961 . S
C1145 H1153 0.960 . S
C1146 C1144 1.381 . S
C1146 C1147 1.394 . S
C1146 H1154 0.930 . S
C1147 C1146 1.394 . S
C1147 C1148 1.383 . S
C1147 H1155 0.929 . S
C1148 C1147 1.383 . S
C1148 C1149 1.377 . S
C1149 H1133 0.930 . S
C1149 C1148 1.377 . S
C1149 C1150 1.379 . S
C1150 H1134 0.931 . S
C1150 C1144 1.383 . S
C1150 C1149 1.379 . S
H1151 C1145 0.959 . S
H1152 C1145 0.961 . S
H1153 C1145 0.960 . S
H1154 C1146 0.930 . S
H1155 C1147 0.929 . S
H1156 C1164 0.929 . S
H1157 C1166 0.930 . S
H1158 C1168 0.930 . S
H1159 C1171 0.929 . S
H1160 C1174 0.930 . S
H1161 C1176 0.960 . S
H1162 C1176 0.960 . S
H1163 C1176 0.960 . S
C1164 H1156 0.929 . S
C1164 C1165 1.377 . S
C1164 C1166 1.384 . S
C1165 C1164 1.377 . S
C1165 C1171 1.390 . S
C1166 H1157 0.930 . S
C1166 C1164 1.384 . S
C1166 C1167 1.372 . S
C1167 C1166 1.372 . S
C1167 C1168 1.400 . S
C1167 C1172 1.490 . S
C1168 H1158 0.930 . S
C1168 C1167 1.400 . S
C1168 C1171 1.386 . S
H1169 C1185 0.930 . S
H1170 C1186 0.931 . S
C1171 H1159 0.929 . S
C1171 C1165 1.390 . S
C1171 C1168 1.386 . S
C1172 C1167 1.490 . S
C1172 C1174 1.395 . S
C1172 C1175 1.403 . S
H1173 C1179 0.930 . S
C1174 H1160 0.930 . S
C1174 C1172 1.395 . S
C1174 C1177 1.403 . S
C1175 C1172 1.403 . S
C1175 C1176 1.524 . S
C1175 C1179 1.400 . S
C1176 H1161 0.960 . S
C1176 H1162 0.960 . S
C1176 H1163 0.960 . S
C1176 C1175 1.524 . S
C1177 C1174 1.403 . S
C1177 C1178 1.392 . S
C1177 C1181 1.495 . S
C1178 C1177 1.392 . S
C1178 C1179 1.385 . S
C1178 C1180 1.478 . S
C1179 H1173 0.930 . S
C1179 C1175 1.400 . S
C1179 C1178 1.385 . S
C1180 C1178 1.478 . S
C1180 C1182 1.381 . S
C1180 C1186 1.383 . S
C1181 C1177 1.495 . S
C1181 H1187 0.959 . S
C1181 H1188 0.961 . S
C1181 H1189 0.960 . S
C1182 C1180 1.381 . S
C1182 C1183 1.394 . S
C1182 H1190 0.930 . S
C1183 C1182 1.394 . S
C1183 C1184 1.383 . S
C1183 H1191 0.929 . S
C1184 C1183 1.383 . S
C1184 C1185 1.377 . S
C1185 H1169 0.930 . S
C1185 C1184 1.377 . S
C1185 C1186 1.379 . S
C1186 H1170 0.931 . S
C1186 C1180 1.383 . S
C1186 C1185 1.379 . S
H1187 C1181 0.959 . S
H1188 C1181 0.961 . S
H1189 C1181 0.960 . S
H1190 C1182 0.930 . S
H1191 C1183 0.929 . S
H1192 C1200 0.929 . S
H1193 C1202 0.930 . S
H1194 C1204 0.930 . S
H1195 C1207 0.929 . S
H1196 C1210 0.930 . S
H1197 C1212 0.960 . S
H1198 C1212 0.960 . S
H1199 C1212 0.960 . S
C1200 H1192 0.929 . S
C1200 C1201 1.377 . S
C1200 C1202 1.384 . S
C1201 C1200 1.377 . S
C1201 C1207 1.390 . S
C1202 H1193 0.930 . S
C1202 C1200 1.384 . S
C1202 C1203 1.372 . S
C1203 C1202 1.372 . S
C1203 C1204 1.400 . S
C1203 C1208 1.490 . S
C1204 H1194 0.930 . S
C1204 C1203 1.400 . S
C1204 C1207 1.386 . S
H1205 C1221 0.930 . S
H1206 C1222 0.931 . S
C1207 H1195 0.929 . S
C1207 C1201 1.390 . S
C1207 C1204 1.386 . S
C1208 C1203 1.490 . S
C1208 C1210 1.395 . S
C1208 C1211 1.403 . S
H1209 C1215 0.930 . S
C1210 H1196 0.930 . S
C1210 C1208 1.395 . S
C1210 C1213 1.403 . S
C1211 C1208 1.403 . S
C1211 C1212 1.524 . S
C1211 C1215 1.400 . S
C1212 H1197 0.960 . S
C1212 H1198 0.960 . S
C1212 H1199 0.960 . S
C1212 C1211 1.524 . S
C1213 C1210 1.403 . S
C1213 C1214 1.392 . S
C1213 C1217 1.495 . S
C1214 C1213 1.392 . S
C1214 C1215 1.385 . S
C1214 C1216 1.478 . S
C1215 H1209 0.930 . S
C1215 C1211 1.400 . S
C1215 C1214 1.385 . S
C1216 C1214 1.478 . S
C1216 C1218 1.381 . S
C1216 C1222 1.383 . S
C1217 C1213 1.495 . S
C1217 H1223 0.959 . S
C1217 H1224 0.961 . S
C1217 H1225 0.960 . S
C1218 C1216 1.381 . S
C1218 C1219 1.394 . S
C1218 H1226 0.930 . S
C1219 C1218 1.394 . S
C1219 C1220 1.383 . S
C1219 H1227 0.929 . S
C1220 C1219 1.383 . S
C1220 C1221 1.377 . S
C1221 H1205 0.930 . S
C1221 C1220 1.377 . S
C1221 C1222 1.379 . S
C1222 H1206 0.931 . S
C1222 C1216 1.383 . S
C1222 C1221 1.379 . S
H1223 C1217 0.959 . S
H1224 C1217 0.961 . S
H1225 C1217 0.960 . S
H1226 C1218 0.930 . S
H1227 C1219 0.929 . S
H1228 C1236 0.929 . S
H1229 C1238 0.930 . S
H1230 C1240 0.930 . S
H1231 C1243 0.929 . S
H1232 C1246 0.930 . S
H1233 C1248 0.960 . S
H1234 C1248 0.960 . S
H1235 C1248 0.960 . S
C1236 H1228 0.929 . S
C1236 C1237 1.377 . S
C1236 C1238 1.384 . S
C1237 C1236 1.377 . S
C1237 C1243 1.390 . S
C1238 H1229 0.930 . S
C1238 C1236 1.384 . S
C1238 C1239 1.372 . S
C1239 C1238 1.372 . S
C1239 C1240 1.400 . S
C1239 C1244 1.490 . S
C1240 H1230 0.930 . S
C1240 C1239 1.400 . S
C1240 C1243 1.386 . S
H1241 C1257 0.930 . S
H1242 C1258 0.931 . S
C1243 H1231 0.929 . S
C1243 C1237 1.390 . S
C1243 C1240 1.386 . S
C1244 C1239 1.490 . S
C1244 C1246 1.395 . S
C1244 C1247 1.403 . S
H1245 C1251 0.930 . S
C1246 H1232 0.930 . S
C1246 C1244 1.395 . S
C1246 C1249 1.403 . S
C1247 C1244 1.403 . S
C1247 C1248 1.524 . S
C1247 C1251 1.400 . S
C1248 H1233 0.960 . S
C1248 H1234 0.960 . S
C1248 H1235 0.960 . S
C1248 C1247 1.524 . S
C1249 C1246 1.403 . S
C1249 C1250 1.392 . S
C1249 C1253 1.495 . S
C1250 C1249 1.392 . S
C1250 C1251 1.385 . S
C1250 C1252 1.478 . S
C1251 H1245 0.930 . S
C1251 C1247 1.400 . S
C1251 C1250 1.385 . S
C1252 C1250 1.478 . S
C1252 C1254 1.381 . S
C1252 C1258 1.383 . S
C1253 C1249 1.495 . S
C1253 H1259 0.959 . S
C1253 H1260 0.961 . S
C1253 H1261 0.960 . S
C1254 C1252 1.381 . S
C1254 C1255 1.394 . S
C1254 H1262 0.930 . S
C1255 C1254 1.394 . S
C1255 C1256 1.383 . S
C1255 H1263 0.929 . S
C1256 C1255 1.383 . S
C1256 C1257 1.377 . S
C1257 H1241 0.930 . S
C1257 C1256 1.377 . S
C1257 C1258 1.379 . S
C1258 H1242 0.931 . S
C1258 C1252 1.383 . S
C1258 C1257 1.379 . S
H1259 C1253 0.959 . S
H1260 C1253 0.961 . S
H1261 C1253 0.960 . S
H1262 C1254 0.930 . S
H1263 C1255 0.929 . S
H1264 C1272 0.929 . S
H1265 C1274 0.930 . S
H1266 C1276 0.930 . S
H1267 C1279 0.929 . S
H1268 C1282 0.930 . S
H1269 C1284 0.960 . S
H1270 C1284 0.960 . S
H1271 C1284 0.960 . S
C1272 H1264 0.929 . S
C1272 C1273 1.377 . S
C1272 C1274 1.384 . S
C1273 C1272 1.377 . S
C1273 C1279 1.390 . S
C1274 H1265 0.930 . S
C1274 C1272 1.384 . S
C1274 C1275 1.372 . S
C1275 C1274 1.372 . S
C1275 C1276 1.400 . S
C1275 C1280 1.490 . S
C1276 H1266 0.930 . S
C1276 C1275 1.400 . S
C1276 C1279 1.386 . S
H1277 C1293 0.930 . S
H1278 C1294 0.931 . S
C1279 H1267 0.929 . S
C1279 C1273 1.390 . S
C1279 C1276 1.386 . S
C1280 C1275 1.490 . S
C1280 C1282 1.395 . S
C1280 C1283 1.403 . S
H1281 C1287 0.930 . S
C1282 H1268 0.930 . S
C1282 C1280 1.395 . S
C1282 C1285 1.403 . S
C1283 C1280 1.403 . S
C1283 C1284 1.524 . S
C1283 C1287 1.400 . S
C1284 H1269 0.960 . S
C1284 H1270 0.960 . S
C1284 H1271 0.960 . S
C1284 C1283 1.524 . S
C1285 C1282 1.403 . S
C1285 C1286 1.392 . S
C1285 C1289 1.495 . S
C1286 C1285 1.392 . S
C1286 C1287 1.385 . S
C1286 C1288 1.478 . S
C1287 H1281 0.930 . S
C1287 C1283 1.400 . S
C1287 C1286 1.385 . S
C1288 C1286 1.478 . S
C1288 C1290 1.381 . S
C1288 C1294 1.383 . S
C1289 C1285 1.495 . S
C1289 H1295 0.959 . S
C1289 H1296 0.961 . S
C1289 H1297 0.960 . S
C1290 C1288 1.381 . S
C1290 C1291 1.394 . S
C1290 H1298 0.930 . S
C1291 C1290 1.394 . S
C1291 C1292 1.383 . S
C1291 H1299 0.929 . S
C1292 C1291 1.383 . S
C1292 C1293 1.377 . S
C1293 H1277 0.930 . S
C1293 C1292 1.377 . S
C1293 C1294 1.379 . S
C1294 H1278 0.931 . S
C1294 C1288 1.383 . S
C1294 C1293 1.379 . S
H1295 C1289 0.959 . S
H1296 C1289 0.961 . S
H1297 C1289 0.960 . S
H1298 C1290 0.930 . S
H1299 C1291 0.929 . S
H1300 C1308 0.929 . S
H1301 C1310 0.930 . S
H1302 C1312 0.930 . S
H1303 C1315 0.929 . S
H1304 C1318 0.930 . S
H1305 C1320 0.960 . S
H1306 C1320 0.960 . S
H1307 C1320 0.960 . S
C1308 H1300 0.929 . S
C1308 C1309 1.377 . S
C1308 C1310 1.384 . S
C1309 C1308 1.377 . S
C1309 C1315 1.390 . S
C1310 H1301 0.930 . S
C1310 C1308 1.384 . S
C1310 C1311 1.372 . S
C1311 C1310 1.372 . S
C1311 C1312 1.400 . S
C1311 C1316 1.490 . S
C1312 H1302 0.930 . S
C1312 C1311 1.400 . S
C1312 C1315 1.386 . S
H1313 C1329 0.930 . S
H1314 C1330 0.931 . S
C1315 H1303 0.929 . S
C1315 C1309 1.390 . S
C1315 C1312 1.386 . S
C1316 C1311 1.490 . S
C1316 C1318 1.395 . S
C1316 C1319 1.403 . S
H1317 C1323 0.930 . S
C1318 H1304 0.930 . S
C1318 C1316 1.395 . S
C1318 C1321 1.403 . S
C1319 C1316 1.403 . S
C1319 C1320 1.524 . S
C1319 C1323 1.400 . S
C1320 H1305 0.960 . S
C1320 H1306 0.960 . S
C1320 H1307 0.960 . S
C1320 C1319 1.524 . S
C1321 C1318 1.403 . S
C1321 C1322 1.392 . S
C1321 C1325 1.495 . S
C1322 C1321 1.392 . S
C1322 C1323 1.385 . S
C1322 C1324 1.478 . S
C1323 H1317 0.930 . S
C1323 C1319 1.400 . S
C1323 C1322 1.385 . S
C1324 C1322 1.478 . S
C1324 C1326 1.381 . S
C1324 C1330 1.383 . S
C1325 C1321 1.495 . S
C1325 H1331 0.959 . S
C1325 H1332 0.961 . S
C1325 H1333 0.960 . S
C1326 C1324 1.381 . S
C1326 C1327 1.394 . S
C1326 H1334 0.930 . S
C1327 C1326 1.394 . S
C1327 C1328 1.383 . S
C1327 H1335 0.929 . S
C1328 C1327 1.383 . S
C1328 C1329 1.377 . S
C1329 H1313 0.930 . S
C1329 C1328 1.377 . S
C1329 C1330 1.379 . S
C1330 H1314 0.931 . S
C1330 C1324 1.383 . S
C1330 C1329 1.379 . S
H1331 C1325 0.959 . S
H1332 C1325 0.961 . S
H1333 C1325 0.960 . S
H1334 C1326 0.930 . S
H1335 C1327 0.929 . S
C481 C1 1.215 . S
C500 C318 1.239 . S
C517 C40 0.941 . S
C536 C367 0.940 . S
C572 C402 2.429 . S
C553 C99 2.485 . S
C589 C118 2.319 . S
C608 C441 2.239 . S
C644 C362 2.500 . S
C625 C16 2.427 . S
C680 C321 0.917 . S
C661 C60 0.923 . S
C716 C451 1.880 . S
C697 C79 1.921 . S
C752 C410 1.468 . S
C733 C138 1.519 . S
C769 C21 1.707 . S
C788 C438 1.765 . S
C824 C370 2.328 . S
C805 C94 2.405 . S
C841 C133 2.317 . S
C860 C331 2.305 . S
C877 C55 0.708 . S
C896 C407 0.702 . S
C932 C327 1.243 . S
C913 C157 1.234 . S
C949 C196 0.949 . S
C968 C358 0.954 . S
C985 C255 2.483 . S
C1004 C411 2.437 . S
C1021 C289 2.314 . S
C1040 C450 2.252 . S
C1057 C172 2.417 . S
C1076 C371 2.497 . S
C1112 C330 0.903 . S
C1093 C216 0.924 . S
C1148 C442 1.862 . S
C1129 C235 1.922 . S
C1184 C401 1.495 . S
C1165 C294 1.519 . S
C1201 C177 1.721 . S
C1220 C447 1.760 . S
C1256 C361 2.313 . S
C1237 C250 2.407 . S
C1292 C322 2.308 . S
C1273 C274 2.320 . S
C1309 C211 0.711 . S
C1328 C398 0.718 . S
