# Generated by pormake.
# Topology pyr, (3,6)-cn, num edge types: 1
# Building blocks:
#     Node 0, Type 0, BuildingBlock: CUQRIR_clean_linker_1, # of connection points: 3
#     Node 1, Type 0, BuildingBlock: CUQRIR_clean_linker_1, # of connection points: 3
#     Node 2, Type 0, BuildingBlock: CUQRIR_clean_linker_1, # of connection points: 3
#     Node 3, Type 0, BuildingBlock: CUQRIR_clean_linker_1, # of connection points: 3
#     Node 4, Type 0, BuildingBlock: CUQRIR_clean_linker_1, # of connection points: 3
#     Node 5, Type 0, BuildingBlock: CUQRIR_clean_linker_1, # of connection points: 3
#     Node 6, Type 0, BuildingBlock: CUQRIR_clean_linker_1, # of connection points: 3
#     Node 7, Type 0, BuildingBlock: CUQRIR_clean_linker_1, # of connection points: 3
#     Node 8, Type 1, BuildingBlock: BETDIP_clean_sbu_0, # of connection points: 6
#     Node 9, Type 1, BuildingBlock: BETDIP_clean_sbu_0, # of connection points: 6
#     Node 10, Type 1, BuildingBlock: BETDIP_clean_sbu_0, # of connection points: 6
#     Node 11, Type 1, BuildingBlock: BETDIP_clean_sbu_0, # of connection points: 6
#     Edge 12, Type (0, 1), BuildingBlock: XUDNAN_clean_linker_2, # of connection points: 2
#     Edge 13, Type (0, 1), BuildingBlock: XUDNAN_clean_linker_2, # of connection points: 2
#     Edge 14, Type (0, 1), BuildingBlock: XUDNAN_clean_linker_2, # of connection points: 2
#     Edge 15, Type (0, 1), BuildingBlock: XUDNAN_clean_linker_2, # of connection points: 2
#     Edge 16, Type (0, 1), BuildingBlock: XUDNAN_clean_linker_2, # of connection points: 2
#     Edge 17, Type (0, 1), BuildingBlock: XUDNAN_clean_linker_2, # of connection points: 2
#     Edge 18, Type (0, 1), BuildingBlock: XUDNAN_clean_linker_2, # of connection points: 2
#     Edge 19, Type (0, 1), BuildingBlock: XUDNAN_clean_linker_2, # of connection points: 2
#     Edge 20, Type (0, 1), BuildingBlock: XUDNAN_clean_linker_2, # of connection points: 2
#     Edge 21, Type (0, 1), BuildingBlock: XUDNAN_clean_linker_2, # of connection points: 2
#     Edge 22, Type (0, 1), BuildingBlock: XUDNAN_clean_linker_2, # of connection points: 2
#     Edge 23, Type (0, 1), BuildingBlock: XUDNAN_clean_linker_2, # of connection points: 2
#     Edge 24, Type (0, 1), BuildingBlock: XUDNAN_clean_linker_2, # of connection points: 2
#     Edge 25, Type (0, 1), BuildingBlock: XUDNAN_clean_linker_2, # of connection points: 2
#     Edge 26, Type (0, 1), BuildingBlock: XUDNAN_clean_linker_2, # of connection points: 2
#     Edge 27, Type (0, 1), BuildingBlock: XUDNAN_clean_linker_2, # of connection points: 2
#     Edge 28, Type (0, 1), BuildingBlock: XUDNAN_clean_linker_2, # of connection points: 2
#     Edge 29, Type (0, 1), BuildingBlock: XUDNAN_clean_linker_2, # of connection points: 2
#     Edge 30, Type (0, 1), BuildingBlock: XUDNAN_clean_linker_2, # of connection points: 2
#     Edge 31, Type (0, 1), BuildingBlock: XUDNAN_clean_linker_2, # of connection points: 2
#     Edge 32, Type (0, 1), BuildingBlock: XUDNAN_clean_linker_2, # of connection points: 2
#     Edge 33, Type (0, 1), BuildingBlock: XUDNAN_clean_linker_2, # of connection points: 2
#     Edge 34, Type (0, 1), BuildingBlock: XUDNAN_clean_linker_2, # of connection points: 2
#     Edge 35, Type (0, 1), BuildingBlock: XUDNAN_clean_linker_2, # of connection points: 2
# Relax obj value: 0.207
# Max RMSD: 0.288
# Mean RMSD: 0.173
data_MOF--net-pyr--node1-BETDIP_clean_sbu_0--node2-CUQRIR_clean_linker_1--edge1-XUDNAN_clean_linker_2
_symmetry_space_group_name_H-M    P1
_symmetry_Int_Tables_number       1
_symmetry_cell_setting            triclinic
loop_
_symmetry_equiv_pos_as_xyz
'x, y, z'
_cell_length_a     32.607275
_cell_length_b     36.680417
_cell_length_c     35.154476
_cell_angle_alpha  87.526137
_cell_angle_beta   94.148987
_cell_angle_gamma 107.77927
loop_
_atom_site_label
_atom_site_type_symbol
_atom_site_fract_x
_atom_site_fract_y
_atom_site_fract_z
_atom_type_partial_charge
C0 C 0.41295 0.38477 0.24958 0.0
N1 N 0.42106 0.35141 0.25926 0.0
N2 N 0.41541 0.39222 0.21163 0.0
C3 C 0.39727 0.40791 0.27634 0.0
C4 C 0.42642 0.36243 0.19861 0.0
N5 N 0.43039 0.3379 0.22757 0.0
C6 C 0.42673 0.35428 0.15712 0.0
H7 H 0.3619 0.40206 0.27103 0.0
H8 H 0.41278 0.43892 0.27091 0.0
H9 H 0.40451 0.40089 0.30661 0.0
H10 H 0.45696 0.34803 0.15171 0.0
H11 H 0.42402 0.37883 0.13863 0.0
H12 H 0.39937 0.3285 0.14963 0.0
C13 C 0.13001 0.77892 0.72879 0.0
N14 N 0.12853 0.8062 0.75289 0.0
N15 N 0.14485 0.75191 0.74745 0.0
C16 C 0.12553 0.78275 0.68603 0.0
C17 C 0.15167 0.76366 0.78395 0.0
N18 N 0.14271 0.79701 0.78724 0.0
C19 C 0.17236 0.7447 0.81528 0.0
H20 H 0.12314 0.75542 0.67232 0.0
H21 H 0.15414 0.80539 0.67605 0.0
H22 H 0.09649 0.79148 0.67718 0.0
H23 H 0.20776 0.75363 0.81254 0.0
H24 H 0.16015 0.71313 0.81248 0.0
H25 H 0.16573 0.75264 0.8438 0.0
C26 C 0.60599 0.37536 0.87254 0.0
N27 N 0.63206 0.37225 0.90402 0.0
N28 N 0.62025 0.41034 0.85449 0.0
C29 C 0.56825 0.34303 0.85769 0.0
C30 C 0.6563 0.42844 0.87648 0.0
N31 N 0.6642 0.40536 0.906 0.0
C32 C 0.68052 0.47036 0.87187 0.0
H33 H 0.57421 0.31507 0.8637 0.0
H34 H 0.56196 0.34639 0.8265 0.0
H35 H 0.5391 0.34286 0.8722 0.0
H36 H 0.69388 0.48328 0.89979 0.0
H37 H 0.65927 0.48642 0.85838 0.0
H38 H 0.70755 0.47362 0.85327 0.0
C39 C 0.8606 0.70686 0.36233 0.0
N40 N 0.89925 0.73253 0.35262 0.0
N41 N 0.84431 0.71857 0.39254 0.0
C42 C 0.83653 0.67168 0.34021 0.0
C43 C 0.87387 0.75255 0.40097 0.0
N44 N 0.90662 0.7623 0.3767 0.0
C45 C 0.87167 0.7753 0.43523 0.0
H46 H 0.84041 0.67705 0.30917 0.0
H47 H 0.80167 0.66242 0.34542 0.0
H48 H 0.84976 0.64799 0.34944 0.0
H49 H 0.90427 0.78878 0.44888 0.0
H50 H 0.85144 0.75684 0.45694 0.0
H51 H 0.8572 0.79821 0.42601 0.0
C52 C 0.64272 0.83633 0.90936 0.0
N53 N 0.66572 0.81969 0.88917 0.0
N54 N 0.62938 0.86233 0.88727 0.0
C55 C 0.63837 0.83122 0.95176 0.0
C56 C 0.64503 0.86047 0.85294 0.0
N57 N 0.66725 0.8348 0.85414 0.0
C58 C 0.64084 0.88526 0.81857 0.0
H59 H 0.60431 0.81557 0.95716 0.0
H60 H 0.64665 0.85954 0.96531 0.0
H61 H 0.6593 0.8149 0.96534 0.0
H62 H 0.6712 0.90922 0.8165 0.0
H63 H 0.61352 0.89706 0.82046 0.0
H64 H 0.63596 0.86842 0.79223 0.0
C65 C 0.91821 0.35985 0.4793 0.0
N66 N 0.92368 0.33451 0.45479 0.0
N67 N 0.88595 0.37384 0.4657 0.0
C68 C 0.94053 0.36738 0.51828 0.0
C69 C 0.87183 0.35574 0.43232 0.0
N70 N 0.89451 0.33162 0.42579 0.0
C71 C 0.8317 0.35728 0.40906 0.0
H72 H 0.92163 0.34616 0.53885 0.0
H73 H 0.94252 0.39647 0.52745 0.0
H74 H 0.97337 0.36428 0.51863 0.0
H75 H 0.82266 0.38309 0.41542 0.0
H76 H 0.80472 0.33136 0.41568 0.0
H77 H 0.83662 0.35748 0.37817 0.0
C78 C 0.35939 0.70315 0.27128 0.0
N79 N 0.39333 0.73152 0.28726 0.0
N80 N 0.34467 0.71459 0.23721 0.0
C81 C 0.34332 0.66264 0.28673 0.0
C82 C 0.37097 0.75066 0.23225 0.0
N83 N 0.40105 0.76125 0.26193 0.0
C84 C 0.36601 0.77634 0.19862 0.0
H85 H 0.37058 0.6528 0.2989 0.0
H86 H 0.32529 0.64261 0.26424 0.0
H87 H 0.32126 0.6615 0.30963 0.0
H88 H 0.37109 0.80603 0.20779 0.0
H89 H 0.33358 0.76591 0.1837 0.0
H90 H 0.39066 0.77709 0.17818 0.0
C91 C 0.11133 0.36604 0.77975 0.0
N92 N 0.1351 0.36321 0.74985 0.0
N93 N 0.12544 0.4014 0.79621 0.0
C94 C 0.07449 0.33357 0.79343 0.0
C95 C 0.15971 0.41987 0.77506 0.0
N96 N 0.16578 0.39729 0.74688 0.0
C97 C 0.19054 0.45843 0.78537 0.0
H98 H 0.0521 0.34435 0.80875 0.0
H99 H 0.08754 0.31481 0.81318 0.0
H100 H 0.05655 0.3161 0.76907 0.0
H101 H 0.18998 0.46416 0.81602 0.0
H102 H 0.18079 0.48098 0.76843 0.0
H103 H 0.22405 0.46037 0.77927 0.0
Tb104 Tb 1.00745 0.05382 0.56611 0.0
Tb105 Tb 0.08994 0.07309 0.54281 0.0
C106 C 0.93275 1.01959 0.58727 0.0
C107 C 0.91165 0.98553 0.6105 0.0
C108 C 0.86894 0.96429 0.60036 0.0
C109 C 0.84638 0.93459 0.62423 0.0
C110 C 0.86612 0.92577 0.65881 0.0
C111 C 0.90967 0.94588 0.66799 0.0
C112 C 0.93232 0.97544 0.64396 0.0
C113 C 0.05433 0.12334 0.59376 0.0
C114 C 0.07491 1.02242 0.61431 0.0
C115 C 0.16485 0.10033 0.51923 0.0
C116 C 0.19318 0.13287 0.49819 0.0
C117 C 0.23345 0.15309 0.51538 0.0
C118 C 0.26386 0.18003 0.49432 0.0
C119 C 0.25471 0.18704 0.45548 0.0
C120 C 0.21364 0.16779 0.43873 0.0
C121 C 0.18315 0.14105 0.45987 0.0
C122 C 0.04371 1.00223 0.51836 0.0
C123 C 0.0257 0.11331 0.50185 0.0
O124 O 0.94639 1.01359 0.55484 0.0
O125 O 0.96041 0.04789 0.60537 0.0
O126 O 0.06681 0.09364 0.59162 0.0
O127 O 1.01455 0.11378 0.58043 0.0
O128 O 0.03409 1.0154 0.6025 0.0
O129 O 0.10454 0.04947 0.59746 0.0
O130 O 0.15468 0.10664 0.553 0.0
O131 O 0.13247 0.07703 0.49996 0.0
O132 O 0.03065 1.03196 0.51761 0.0
O133 O 0.08203 1.01246 0.53481 0.0
O134 O 0.06629 0.11647 0.51179 0.0
O135 O 0.99475 0.08501 0.51565 0.0
H136 H 0.85248 0.97161 0.57465 0.0
H137 H 0.81275 0.91994 0.61657 0.0
H138 H 0.9258 0.93947 0.6943 0.0
H139 H 0.96544 0.99122 0.65224 0.0
H140 H 0.24197 0.14712 0.54485 0.0
H141 H 0.29482 0.19483 0.50831 0.0
H142 H 0.20558 0.1721 0.4088 0.0
H143 H 0.15242 0.12578 0.44575 0.0
Tb144 Tb 0.56748 0.08183 0.11365 0.0
Tb145 Tb 0.47956 0.06274 0.08818 0.0
C146 C 0.64565 0.11235 0.13491 0.0
C147 C 0.67272 0.12847 0.16925 0.0
C148 C 0.67914 0.16661 0.17917 0.0
C149 C 0.70728 0.18248 0.21006 0.0
C150 C 0.72967 0.1606 0.23156 0.0
C151 C 0.72305 0.12242 0.22186 0.0
C152 C 0.69504 0.10658 0.19084 0.0
C153 C 0.52029 1.0142 0.14317 0.0
C154 C 0.50525 0.11446 0.15695 0.0
C155 C 0.40079 1.03039 0.07052 0.0
C156 C 0.37064 1.0118 1.03922 0.0
C157 C 0.32745 0.99428 0.04693 0.0
C158 C 0.29767 0.97555 1.01826 0.0
C159 C 0.31054 0.9741 0.98119 0.0
C160 C 0.35403 0.99202 0.97347 0.0
C161 C 0.38394 1.01076 1.00236 0.0
C162 C 0.52719 0.13045 0.05862 0.0
C163 C 0.54195 1.03462 1.04086 0.0
O164 O 0.62052 0.1313 0.11932 0.0
O165 O 0.62665 0.07548 0.13522 0.0
O166 O 0.50987 0.04492 0.13937 0.0
O167 O 0.55817 1.0214 0.13049 0.0
O168 O 0.54513 0.12084 0.14704 0.0
O169 O 0.47413 0.08579 0.14231 0.0
O170 O 0.42737 1.01232 0.08494 0.0
O171 O 0.41946 0.06717 0.06685 0.0
O172 O 0.53745 0.09987 0.06331 0.0
O173 O 0.48801 0.12278 0.06863 0.0
O174 O 0.50197 1.02664 0.05108 0.0
O175 O 0.57302 0.06184 0.05791 0.0
H176 H 0.6628 0.18439 0.16287 0.0
H177 H 0.71136 0.21185 0.21726 0.0
H178 H 0.74021 0.10505 0.23778 0.0
H179 H 0.69132 0.07732 0.18344 0.0
H180 H 0.3168 0.99472 0.07536 0.0
H181 H 0.26474 0.96143 1.02543 0.0
H182 H 0.3649 0.99164 0.94515 0.0
H183 H 0.4173 1.02422 0.99603 0.0
Tb184 Tb 0.49684 0.5977 0.58275 0.0
Tb185 Tb 0.50744 0.53255 0.5495 0.0
C186 C 0.48618 0.66006 0.59874 0.0
C187 C 0.4527 0.66754 0.62011 0.0
C188 C 0.43904 0.69957 0.61039 0.0
C189 C 0.40237 0.70358 0.62578 0.0
C190 C 0.3787 0.6755 0.65111 0.0
C191 C 0.39334 0.64398 0.66162 0.0
C192 C 0.42993 0.63996 0.64614 0.0
C193 C 0.52107 0.55135 0.63447 0.0
C194 C 0.41952 0.52277 0.59156 0.0
C195 C 0.52102 0.47033 0.53761 0.0
C196 C 0.56279 0.46279 0.53702 0.0
C197 C 0.59889 0.48538 0.55859 0.0
C198 C 0.63936 0.48043 0.55621 0.0
C199 C 0.64462 0.45275 0.53224 0.0
C200 C 0.60828 0.4297 0.51112 0.0
C201 C 0.56768 0.43479 0.51342 0.0
C202 C 0.48377 0.57966 0.49744 0.0
C203 C 0.58375 0.60563 0.54068 0.0
O204 O 0.47147 0.64244 0.56679 0.0
O205 O 0.51346 0.64547 0.61809 0.0
O206 O 0.53598 0.5605 0.60163 0.0
O207 O 0.49324 0.56925 0.63872 0.0
O208 O 0.43152 0.56046 0.59415 0.0
O209 O 0.44442 0.50629 0.57495 0.0
O210 O 0.51187 0.47952 0.57075 0.0
O211 O 0.51293 0.4928 0.51023 0.0
O212 O 0.46917 0.57046 0.53036 0.0
O213 O 0.50958 0.55986 0.49262 0.0
O214 O 0.57439 0.56824 0.54533 0.0
O215 O 0.55597 0.62279 0.55095 0.0
H216 H 0.45571 0.72069 0.58973 0.0
H217 H 0.39165 0.72793 0.61664 0.0
H218 H 0.37622 0.62213 0.68142 0.0
H219 H 0.43958 0.61468 0.65356 0.0
H220 H 0.59594 0.50722 0.57707 0.0
H221 H 0.66655 0.49827 0.57319 0.0
H222 H 0.61142 0.40841 0.49207 0.0
H223 H 0.54031 0.41735 0.49633 0.0
Tb224 Tb 1.00384 0.59492 1.04207 0.0
Tb225 Tb 1.01004 0.53573 0.10434 0.0
C226 C 0.97715 0.63744 0.99517 0.0
C227 C 0.94312 0.65605 0.99144 0.0
C228 C 0.90889 0.6459 1.01569 0.0
C229 C 0.87452 0.66116 1.00912 0.0
C230 C 0.87394 0.68678 0.97822 0.0
C231 C 0.90905 0.69762 0.95477 0.0
C232 C 0.9433 0.68233 0.96134 0.0
C233 C 0.08246 0.60218 0.0733 0.0
C234 C 0.98013 0.60603 0.13059 0.0
C235 C 0.04798 0.50218 0.15187 0.0
C236 C 0.09081 0.49595 0.15285 0.0
C237 C 0.10113 0.47448 0.12482 0.0
C238 C 0.14228 0.47011 0.12538 0.0
C239 C 0.1741 0.48737 0.15372 0.0
C240 C 0.16382 0.50886 0.18167 0.0
C241 C 0.12252 0.51293 0.18134 0.0
C242 C 0.93035 0.51466 0.07053 0.0
C243 C 0.03452 0.52591 1.01633 0.0
O244 O 0.96366 0.59994 0.99446 0.0
O245 O 1.00844 0.6505 1.02128 0.0
O246 O 0.0474 0.59214 0.08934 0.0
O247 O 0.07443 0.61128 1.03804 0.0
O248 O 0.98199 0.61752 0.09362 0.0
O249 O 0.98898 0.57372 0.14154 0.0
O250 O 0.04837 0.53767 0.1553 0.0
O251 O 1.01914 0.48431 0.12563 0.0
O252 O 0.96205 0.54346 0.06339 0.0
O253 O 0.9426 0.49782 0.10054 0.0
O254 O 0.03866 0.51821 0.05388 0.0
O255 O 1.01764 0.55346 1.00451 0.0
H256 H 0.9083 0.62556 1.03909 0.0
H257 H 0.84821 0.65262 1.02796 0.0
H258 H 0.90938 0.71685 0.93046 0.0
H259 H 0.96939 0.69023 0.94223 0.0
H260 H 0.07757 0.46119 0.10228 0.0
H261 H 0.14937 0.45355 0.10337 0.0
H262 H 0.18751 0.52194 0.20422 0.0
H263 H 0.11536 0.52949 0.20331 0.0
H264 H 0.34055 0.33037 0.28258 0.0
H265 H 0.46772 0.31915 0.30953 0.0
H266 H 0.44004 0.2771 0.36553 0.0
H267 H 0.31206 0.334 0.3801 0.0
H268 H 0.25634 0.30719 0.36949 0.0
H269 H 0.28727 0.33691 0.33301 0.0
H270 H 0.26859 0.27845 0.28896 0.0
H271 H 0.23787 0.24844 0.32531 0.0
H272 H 0.28113 0.23571 0.30577 0.0
H273 H 0.39632 0.23447 0.41704 0.0
H274 H 0.34143 0.19443 0.45874 0.0
H275 H 0.24412 0.23739 0.39832 0.0
C276 C 0.36274 0.31982 0.30093 0.0
C277 C 0.4064 0.32855 0.29274 0.0
C278 C 0.43433 0.31304 0.31609 0.0
C279 C 0.41884 0.28929 0.34773 0.0
C280 C 0.37547 0.28159 0.35528 0.0
C281 C 0.34794 0.29654 0.33246 0.0
C282 C 0.30254 0.2833 0.34559 0.0
C283 C 0.28876 0.31738 0.35778 0.0
C284 C 0.27067 0.26009 0.31457 0.0
C285 C 0.30848 0.25819 0.37937 0.0
C286 C 0.35068 0.25751 0.38463 0.0
C287 C 0.36332 0.23516 0.4134 0.0
C288 C 0.33192 0.21271 0.43713 0.0
C289 C 0.28838 0.21284 0.43199 0.0
C290 C 0.27693 0.23632 0.40291 0.0
H291 H 0.22504 0.82279 0.81589 0.0
H292 H 0.09752 0.8334 0.82453 0.0
H293 H 0.12705 0.88299 0.87378 0.0
H294 H 0.25815 0.83176 0.91585 0.0
H295 H 0.31323 0.85829 0.90726 0.0
H296 H 0.28134 0.82449 0.87286 0.0
H297 H 0.29717 0.87796 0.82041 0.0
H298 H 0.32854 0.91213 0.85476 0.0
H299 H 0.28386 0.92138 0.82712 0.0
H300 H 0.17146 0.93101 0.92216 0.0
H301 H 0.22573 0.9718 0.96758 0.0
H302 H 0.32345 0.92697 0.92784 0.0
C303 C 0.2032 0.83481 0.82898 0.0
C304 C 0.15886 0.82369 0.81762 0.0
C305 C 0.13145 0.84131 0.83371 0.0
C306 C 0.14799 0.86947 0.86138 0.0
C307 C 0.192 0.87959 0.87221 0.0
C308 C 0.21912 0.86263 0.85656 0.0
C309 C 0.26504 0.87821 0.87301 0.0
C310 C 0.28032 0.84629 0.89347 0.0
C311 C 0.29543 0.89864 0.84197 0.0
C312 C 0.2596 0.90635 0.9009 0.0
C313 C 0.21736 0.90703 0.8998 0.0
C314 C 0.20457 0.9306 0.92334 0.0
C315 C 0.2356 0.95351 0.94915 0.0
C316 C 0.27886 0.95249 0.95142 0.0
C317 C 0.29089 0.92888 0.92651 0.0
H318 H 0.65624 0.45191 0.7904 0.0
H319 H 0.53582 0.40681 0.84562 0.0
H320 H 0.4986 0.43369 0.79324 0.0
H321 H 0.63825 0.54138 0.75777 0.0
H322 H 0.6626 0.54383 0.71292 0.0
H323 H 0.67996 0.51922 0.75344 0.0
H324 H 0.66336 0.45815 0.71373 0.0
H325 H 0.64563 0.4825 0.67316 0.0
H326 H 0.61016 0.4382 0.69116 0.0
H327 H 0.47388 0.46705 0.73643 0.0
H328 H 0.4634 0.50668 0.68065 0.0
H329 H 0.59882 0.53359 0.65891 0.0
C330 C 0.62199 0.44759 0.79137 0.0
C331 C 0.59895 0.42629 0.82242 0.0
C332 C 0.55418 0.42181 0.8222 0.0
C333 C 0.53274 0.43733 0.79248 0.0
C334 C 0.55612 0.45785 0.76251 0.0
C335 C 0.59984 0.46325 0.76163 0.0
C336 C 0.61715 0.48786 0.72635 0.0
C337 C 0.65154 0.5253 0.73834 0.0
C338 C 0.63516 0.46533 0.69951 0.0
C339 C 0.57646 0.4957 0.70784 0.0
C340 C 0.54175 0.47771 0.7294 0.0
C341 C 0.50088 0.48106 0.7194 0.0
C342 C 0.49523 0.50378 0.68736 0.0
C343 C 0.5299 0.52335 0.66466 0.0
C344 C 0.57125 0.51864 0.67492 0.0
H345 H 0.92898 0.67112 0.34048 0.0
H346 H 0.91856 0.77653 0.28703 0.0
H347 H 0.93846 0.75674 0.22584 0.0
H348 H 1.01994 0.66247 0.28618 0.0
H349 H 0.99812 0.61113 0.28354 0.0
H350 H 0.98747 0.63559 0.32333 0.0
H351 H 0.90563 0.60465 0.30908 0.0
H352 H 0.91595 0.58047 0.26897 0.0
H353 H 0.88173 0.61093 0.26238 0.0
H354 H 0.95383 0.72057 0.16638 0.0
H355 H 0.96775 0.67756 0.1201 0.0
H356 H 0.96856 0.59413 0.21104 0.0
C357 C 0.9323 0.69081 0.31626 0.0
C358 C 0.92307 0.72648 0.31992 0.0
C359 C 0.92666 0.75007 0.28641 0.0
C360 C 0.93739 0.73848 0.25099 0.0
C361 C 0.94475 0.70273 0.24832 0.0
C362 C 0.94291 0.6795 0.28053 0.0
C363 C 0.95071 0.64183 0.2701 0.0
C364 C 0.99148 0.6375 0.2921 0.0
C365 C 0.91116 0.60743 0.27812 0.0
C366 C 0.95709 0.64701 0.22699 0.0
C367 C 0.95337 0.68238 0.21494 0.0
C368 C 0.95701 0.69313 0.17619 0.0
C369 C 0.96492 0.66804 0.14964 0.0
C370 C 0.96961 0.63156 0.16068 0.0
C371 C 0.96541 0.62139 0.20058 0.0
H372 H 0.50038 0.32335 0.20311 0.0
H373 H 0.37263 0.26894 0.24215 0.0
H374 H 0.38299 0.20534 0.23702 0.0
H375 H 0.49257 0.25491 0.13189 0.0
H376 H 0.54854 0.2568 0.13768 0.0
H377 H 0.5327 0.29787 0.14858 0.0
H378 H 0.56927 0.29819 0.21663 0.0
H379 H 0.58467 0.25669 0.20605 0.0
H380 H 0.55357 0.25572 0.24664 0.0
H381 H 0.40526 0.14806 0.22413 0.0
H382 H 0.43442 0.10034 0.1982 0.0
H383 H 0.5473 0.19122 0.16489 0.0
C384 C 0.47489 0.2979 0.21078 0.0
C385 C 0.43617 0.30081 0.22395 0.0
C386 C 0.40299 0.26717 0.23317 0.0
C387 C 0.40861 0.23102 0.23023 0.0
C388 C 0.4474 0.22905 0.21755 0.0
C389 C 0.47979 0.26154 0.20746 0.0
C390 C 0.51671 0.25126 0.19143 0.0
C391 C 0.52297 0.26608 0.14994 0.0
C392 C 0.55853 0.26637 0.21671 0.0
C393 C 0.49974 0.20789 0.19361 0.0
C394 C 0.45996 0.19577 0.20926 0.0
C395 C 0.43656 0.15716 0.21218 0.0
C396 C 0.45345 0.13026 0.19746 0.0
C397 C 0.49332 0.14204 0.17993 0.0
C398 C 0.5173 0.1813 0.17902 0.0
H399 H 0.05856 0.82433 0.72288 0.0
H400 H 0.19484 0.87145 0.75411 0.0
H401 H 0.19329 0.93521 0.72945 0.0
H402 H 0.06168 0.87274 0.63522 0.0
H403 H 1.00987 0.8806 0.63651 0.0
H404 H 1.02004 0.84042 0.66213 0.0
H405 H 0.99927 0.86339 0.72467 0.0
H406 H 0.98906 0.90372 0.69909 0.0
H407 H 0.02655 0.91137 0.74038 0.0
H408 H 0.17902 0.99117 0.69543 0.0
H409 H 0.15379 1.03579 0.65238 0.0
H410 H 0.02643 0.95245 0.64145 0.0
C411 C 0.08761 0.84849 0.72523 0.0
C412 C 0.12655 0.84368 0.74119 0.0
C413 C 0.16453 0.87522 0.74299 0.0
C414 C 0.16391 0.91136 0.72898 0.0
C415 C 0.12504 0.91525 0.71306 0.0
C416 C 0.08753 0.88471 0.71104 0.0
C417 C 0.0512 0.89574 0.68905 0.0
C418 C 0.03476 0.87091 0.65363 0.0
C419 C 1.01434 0.89342 0.71485 0.0
C420 C 0.07454 0.93686 0.67807 0.0
C421 C 0.11691 0.94765 0.69268 0.0
C422 C 0.14575 0.9833 0.68427 0.0
C423 C 0.13114 1.00839 0.6597 0.0
C424 C 0.08813 0.99763 0.64372 0.0
C425 C 0.0593 0.9617 0.65372 0.0
H426 H 0.75018 0.44162 0.89713 0.0
H427 H 0.6577 0.39617 0.98287 0.0
H428 H 0.7153 0.42065 1.03355 0.0
H429 H 0.84395 0.42566 0.94888 0.0
H430 H 0.88093 0.47006 0.9327 0.0
H431 H 0.83317 0.44672 0.90344 0.0
H432 H 0.81073 0.50867 0.90151 0.0
H433 H 0.85822 0.53208 0.9311 0.0
H434 H 0.80556 0.52972 0.94562 0.0
H435 H 0.78333 0.45063 0.07519 0.0
H436 H 0.85593 0.48218 0.10464 0.0
H437 H 0.90461 0.51409 0.9926 0.0
C438 C 0.74206 0.43676 0.9266 0.0
C439 C 0.69907 0.41653 0.93584 0.0
C440 C 0.69019 0.41068 0.97486 0.0
C441 C 0.72276 0.42497 1.00388 0.0
C442 C 0.76432 0.44564 0.99371 0.0
C443 C 0.77409 0.45156 0.95596 0.0
C444 C 0.82113 0.47566 0.95276 0.0
C445 C 0.84628 0.45318 0.93329 0.0
C446 C 0.82407 0.51379 0.93148 0.0
C447 C 0.83652 0.48219 0.99464 0.0
C448 C 0.80308 0.46442 1.01768 0.0
C449 C 0.80947 0.46487 0.05733 0.0
C450 C 0.85093 0.48309 0.07385 0.0
C451 C 0.88597 0.50144 0.05116 0.0
C452 C 0.87835 0.50137 1.01085 0.0
H453 H 0.8078 0.6498 0.43126 0.0
H454 H 0.78434 0.75517 0.39048 0.0
H455 H 0.71714 0.73793 0.42447 0.0
H456 H 0.6917 0.59038 0.42475 0.0
H457 H 0.69688 0.56245 0.46727 0.0
H458 H 0.74247 0.58201 0.43852 0.0
H459 H 0.78769 0.61533 0.49776 0.0
H460 H 0.74201 0.59619 0.52646 0.0
H461 H 0.76833 0.64713 0.52421 0.0
H462 H 0.65552 0.71257 0.46683 0.0
H463 H 0.5983 0.67712 0.50833 0.0
H464 H 0.65573 0.58459 0.52084 0.0
C465 C 0.7879 0.6687 0.42888 0.0
C466 C 0.80157 0.70407 0.40793 0.0
C467 C 0.77472 0.72813 0.40612 0.0
C468 C 0.73648 0.71858 0.42555 0.0
C469 C 0.72448 0.68432 0.44672 0.0
C470 C 0.74879 0.65924 0.44802 0.0
C471 C 0.72772 0.62416 0.47306 0.0
C472 C 0.71387 0.58758 0.44949 0.0
C473 C 0.75827 0.6205 0.50741 0.0
C474 C 0.68838 0.63383 0.48588 0.0
C475 C 0.68763 0.66892 0.47045 0.0
C476 C 0.65566 0.68491 0.47877 0.0
C477 C 0.62323 0.66452 0.50281 0.0
C478 C 0.62198 0.62789 0.51842 0.0
C479 C 0.65542 0.61249 0.50967 0.0
H480 H 0.33665 0.3645 0.17732 0.0
H481 H 0.43828 0.46913 0.20335 0.0
H482 H 0.38871 0.50695 0.183 0.0
H483 H 0.28015 0.40352 0.09443 0.0
H484 H 0.22803 0.37495 0.10919 0.0
H485 H 0.27405 0.35756 0.11769 0.0
H486 H 0.25968 0.34882 0.18953 0.0
H487 H 0.21429 0.36685 0.18155 0.0
H488 H 0.25757 0.38928 0.21581 0.0
H489 H 0.3247 0.53167 0.17097 0.0
H490 H 0.25286 0.54185 0.16456 0.0
H491 H 0.19292 0.4204 0.14684 0.0
C492 C 0.34884 0.39547 0.17666 0.0
C493 C 0.39131 0.41425 0.19074 0.0
C494 C 0.40605 0.45464 0.19162 0.0
C495 C 0.37807 0.47615 0.18032 0.0
C496 C 0.3356 0.45665 0.16808 0.0
C497 C 0.32125 0.41717 0.16563 0.0
C498 C 0.27308 0.40268 0.15607 0.0
C499 C 0.26326 0.38355 0.11701 0.0
C500 C 0.24982 0.37532 0.18762 0.0
C501 C 0.2622 0.43998 0.15481 0.0
C502 C 0.29869 0.47085 0.16145 0.0
C503 C 0.29607 0.50781 0.16494 0.0
C504 C 0.25516 0.51328 0.16158 0.0
C505 C 0.21744 0.48195 0.15488 0.0
C506 C 0.22127 0.44499 0.15103 0.0
H507 H 0.56036 0.33292 0.94221 0.0
H508 H 0.69022 0.33364 0.92323 0.0
H509 H 0.67865 0.27299 0.96122 0.0
H510 H 0.55834 0.29365 1.04056 0.0
H511 H 0.5024 0.26549 1.03514 0.0
H512 H 0.52173 0.3094 1.0078 0.0
H513 H 0.49278 0.27267 0.9454 0.0
H514 H 0.47351 0.22865 0.97252 0.0
H515 H 0.50981 0.23191 0.93532 0.0
H516 H 0.65014 0.20838 0.99901 0.0
H517 H 0.61021 0.15034 1.03512 0.0
H518 H 0.49913 0.19201 1.03151 0.0
C519 C 0.58646 0.32041 0.94625 0.0
C520 C 0.62642 0.33839 0.92946 0.0
C521 C 0.65962 0.32092 0.93585 0.0
C522 C 0.65312 0.2862 0.95732 0.0
C523 C 0.61317 0.26891 0.97288 0.0
C524 C 0.58056 0.28582 0.96796 0.0
C525 C 0.5406 0.26151 0.98761 0.0
C526 C 0.53015 0.28385 1.01967 0.0
C527 C 0.50188 0.24788 0.95847 0.0
C528 C 0.55532 0.22793 1.00386 0.0
C529 C 0.59732 0.23268 0.99502 0.0
C530 C 0.6174 0.20482 1.00619 0.0
C531 C 0.59435 0.1717 1.02677 0.0
C532 C 0.55137 0.16614 1.03657 0.0
C533 C 0.53193 0.19508 1.02484 0.0
H534 H 0.90007 0.83508 0.3695 0.0
H535 H 0.9898 0.77228 0.40321 0.0
H536 H 0.03477 0.82789 0.44042 0.0
H537 H 0.98004 0.93536 0.36823 0.0
H538 H 0.94283 0.95569 0.38832 0.0
H539 H 0.92276 0.91441 0.35849 0.0
H540 H 0.87577 0.87809 0.41231 0.0
H541 H 0.89635 0.9188 0.44273 0.0
H542 H 0.90097 0.87277 0.45869 0.0
H543 H 0.06449 0.88728 0.48266 0.0
H544 H 0.08108 0.94572 0.51957 0.0
H545 H 0.97142 0.97303 0.46216 0.0
C546 C 0.93071 0.83392 0.38266 0.0
C547 C 0.94173 0.79879 0.38156 0.0
C548 C 0.981 0.7985 0.40158 0.0
C549 C 1.00633 0.83002 0.42378 0.0
C550 C 0.99261 0.86263 0.42636 0.0
C551 C 0.95595 0.86509 0.40571 0.0
C552 C 0.94628 0.90202 0.416 0.0
C553 C 0.94808 0.92844 0.38065 0.0
C554 C 0.90222 0.89234 0.43346 0.0
C555 C 0.98307 0.92012 0.4458 0.0
C556 C 1.00925 0.89658 0.45115 0.0
C557 C 0.04433 0.90586 0.47797 0.0
C558 C 0.05349 0.93966 0.49914 0.0
C559 C 0.02833 0.96545 0.4944 0.0
C560 C 0.99202 0.95488 0.46701 0.0
H561 H 0.2249 0.78475 0.72652 0.0
H562 H 0.12459 0.67624 0.73314 0.0
H563 H 0.17362 0.64351 0.70832 0.0
H564 H 0.26974 0.76799 0.64019 0.0
H565 H 0.32444 0.79246 0.65692 0.0
H566 H 0.28048 0.80639 0.67338 0.0
H567 H 0.30594 0.79578 0.74344 0.0
H568 H 0.34983 0.78161 0.72723 0.0
H569 H 0.31222 0.75 0.75819 0.0
H570 H 0.23514 0.62371 0.68337 0.0
H571 H 0.30275 0.61797 0.66048 0.0
H572 H 0.36287 0.74019 0.67381 0.0
C573 C 0.21336 0.75416 0.72213 0.0
C574 C 0.17128 0.73272 0.73097 0.0
C575 C 0.1568 0.69277 0.7259 0.0
C576 C 0.18438 0.67419 0.712 0.0
C577 C 0.2261 0.69624 0.70373 0.0
C578 C 0.2404 0.73539 0.70866 0.0
C579 C 0.28682 0.75266 0.69893 0.0
C580 C 0.29057 0.78157 0.66535 0.0
C581 C 0.31537 0.77108 0.73404 0.0
C582 C 0.29669 0.71715 0.68763 0.0
C583 C 0.26136 0.68486 0.69046 0.0
C584 C 0.26301 0.6488 0.68123 0.0
C585 C 0.30168 0.64578 0.66859 0.0
C586 C 0.33824 0.67861 0.66552 0.0
C587 C 0.33547 0.71462 0.6754 0.0
H588 H 0.74613 0.88413 0.84949 0.0
H589 H 0.65486 0.78541 0.79659 0.0
H590 H 0.7029 0.79176 0.7432 0.0
H591 H 0.77032 0.93853 0.76984 0.0
H592 H 0.8269 0.96042 0.78236 0.0
H593 H 0.7899 0.94331 0.81924 0.0
H594 H 0.83503 0.90019 0.84772 0.0
H595 H 0.87269 0.91785 0.81114 0.0
H596 H 0.84755 0.86708 0.81748 0.0
H597 H 0.7549 0.81627 0.69121 0.0
H598 H 0.80657 0.85526 0.646 0.0
H599 H 0.86448 0.93719 0.73459 0.0
C600 C 0.73749 0.863 0.82736 0.0
C601 C 0.69776 0.83379 0.82709 0.0
C602 C 0.68587 0.80736 0.79727 0.0
C603 C 0.71291 0.81084 0.76705 0.0
C604 C 0.75177 0.84066 0.76765 0.0
C605 C 0.76428 0.86594 0.79745 0.0
C606 C 0.80504 0.89786 0.78974 0.0
C607 C 0.79755 0.93733 0.79031 0.0
C608 C 0.84228 0.8956 0.81821 0.0
C609 C 0.8124 0.88793 0.75003 0.0
C610 C 0.7818 0.85454 0.73792 0.0
C611 C 0.77961 0.84191 0.70074 0.0
C612 C 0.80889 0.86431 0.67521 0.0
C613 C 0.83985 0.89897 0.68696 0.0
C614 C 0.84208 0.91026 0.72512 0.0
H615 H 0.89059 0.33188 0.34886 0.0
H616 H 0.85831 0.25898 0.44909 0.0
H617 H 0.8224 0.20364 0.40863 0.0
H618 H 0.79065 0.29664 0.30309 0.0
H619 H 0.80833 0.29968 0.25532 0.0
H620 H 0.8408 0.33128 0.29112 0.0
H621 H 0.90623 0.30809 0.27922 0.0
H622 H 0.87407 0.2766 0.24299 0.0
H623 H 0.90062 0.25763 0.28223 0.0
H624 H 0.78144 0.15905 0.3586 0.0
H625 H 0.73579 0.1286 0.30255 0.0
H626 H 0.79007 0.23128 0.23434 0.0
C627 C 0.87721 0.30384 0.36187 0.0
C628 C 0.8787 0.29896 0.40179 0.0
C629 C 0.85936 0.26253 0.41845 0.0
C630 C 0.83856 0.23111 0.39569 0.0
C631 C 0.83674 0.23689 0.3563 0.0
C632 C 0.85542 0.27237 0.33945 0.0
C633 C 0.8434 0.27219 0.29705 0.0
C634 C 0.81936 0.30168 0.28602 0.0
C635 C 0.88347 0.27902 0.27401 0.0
C636 C 0.81382 0.23158 0.29305 0.0
C637 C 0.81118 0.21147 0.32738 0.0
C638 C 0.78378 0.17421 0.33136 0.0
C639 C 0.75803 0.15716 0.29942 0.0
C640 C 0.75952 0.17761 0.26422 0.0
C641 C 0.78827 0.21505 0.26097 0.0
H642 H 0.36441 0.70531 0.35778 0.0
H643 H 0.47919 0.73877 0.2941 0.0
H644 H 0.51624 0.70845 0.34442 0.0
H645 H 0.41883 0.71213 0.4567 0.0
H646 H 0.37861 0.6701 0.47359 0.0
H647 H 0.3641 0.70018 0.43643 0.0
H648 H 0.33451 0.64154 0.39315 0.0
H649 H 0.34934 0.61132 0.42986 0.0
H650 H 0.36925 0.61372 0.383 0.0
H651 H 0.53739 0.666 0.39759 0.0
H652 H 0.54269 0.61955 0.44887 0.0
H653 H 0.41344 0.61033 0.47955 0.0
C654 C 0.39794 0.70754 0.35513 0.0
C655 C 0.41899 0.72539 0.32174 0.0
C656 C 0.46256 0.72659 0.31939 0.0
C657 C 0.48364 0.70877 0.34781 0.0
C658 C 0.46105 0.68958 0.37902 0.0
C659 C 0.41921 0.68933 0.3831 0.0
C660 C 0.40089 0.66406 0.41763 0.0
C661 C 0.38995 0.68805 0.44789 0.0
C662 C 0.36114 0.63069 0.40516 0.0
C663 C 0.4386 0.64948 0.43218 0.0
C664 C 0.47301 0.66486 0.40942 0.0
C665 C 0.5107 0.65439 0.41563 0.0
C666 C 0.51335 0.62767 0.44511 0.0
C667 C 0.47886 0.61102 0.46912 0.0
C668 C 0.44093 0.62272 0.46258 0.0
H669 H 0.10133 0.46711 0.80876 0.0
H670 H 0.11951 0.36599 0.86642 0.0
H671 H 0.09943 0.38649 0.92677 0.0
H672 H 0.14182 0.53261 0.88821 0.0
H673 H 0.10256 0.558 0.87937 0.0
H674 H 0.11855 0.53585 0.84056 0.0
H675 H 0.03891 0.49773 0.82422 0.0
H676 H 0.02269 0.51981 0.86295 0.0
H677 H 1.00745 0.46837 0.86067 0.0
H678 H 0.07886 0.41976 0.98367 0.0
H679 H 0.05644 0.45899 1.02852 0.0
H680 H 0.04712 0.53885 0.93617 0.0
C681 C 0.101 0.44917 0.83405 0.0
C682 C 0.11208 0.41422 0.83187 0.0
C683 C 0.1109 0.39225 0.86632 0.0
C684 C 0.09963 0.40398 0.90116 0.0
C685 C 0.08888 0.43818 0.90233 0.0
C686 C 0.0891 0.46038 0.86947 0.0
C687 C 0.07531 0.49557 0.87869 0.0
C688 C 0.11173 0.53272 0.87125 0.0
C689 C 0.03361 0.49536 0.85522 0.0
C690 C 0.06748 0.4899 0.92164 0.0
C691 C 0.07593 0.45664 0.93465 0.0
C692 C 0.07202 0.44564 0.97329 0.0
C693 C 0.05917 0.46848 0.99897 0.0
C694 C 0.04938 0.50263 0.987 0.0
C695 C 0.05383 0.5131 0.94715 0.0
H696 H 0.5603 0.85692 0.92863 0.0
H697 H 0.67065 0.9375 0.87851 0.0
H698 H 0.65222 0.99114 0.90487 0.0
H699 H 0.48751 0.91884 0.92102 0.0
H700 H 0.46683 0.90325 0.9671 0.0
H701 H 0.48378 0.87118 0.93886 0.0
H702 H 0.536 0.86191 0.99497 0.0
H703 H 0.51918 0.89382 1.02334 0.0
H704 H 0.57554 0.90331 1.01543 0.0
H705 H 0.62849 1.03487 0.94204 0.0
H706 H 0.60209 0.06701 0.9906 0.0
H707 H 0.50729 0.95947 1.01969 0.0
C708 C 0.57981 0.88598 0.92265 0.0
C709 C 0.61606 0.89329 0.90052 0.0
C710 C 0.64177 0.93149 0.89403 0.0
C711 C 0.63168 0.96209 0.90908 0.0
C712 C 0.59596 0.95402 0.93096 0.0
C713 C 0.5704 0.91698 0.93797 0.0
C714 C 0.53685 0.9163 0.96601 0.0
C715 C 0.49102 0.90151 0.94711 0.0
C716 C 0.54224 0.89243 1.00207 0.0
C717 C 0.54862 0.95859 0.97454 0.0
C718 C 0.58242 0.97973 0.95345 0.0
C719 C 0.60157 1.01882 0.95828 0.0
C720 C 0.58647 1.03677 0.98601 0.0
C721 C 0.55253 1.0157 1.00854 0.0
C722 C 0.53263 0.97629 1.00215 0.0
H723 H 0.91208 0.27563 0.50523 0.0
H724 H 0.99128 0.33542 0.41507 0.0
H725 H 0.02802 0.28507 0.41667 0.0
H726 H 0.98885 0.2337 0.55703 0.0
H727 H 0.94805 0.18889 0.56577 0.0
H728 H 0.93379 0.2327 0.56138 0.0
H729 H 0.87608 0.20317 0.50746 0.0
H730 H 0.89051 0.15947 0.51095 0.0
H731 H 0.89199 0.18511 0.46588 0.0
H732 H 0.05527 0.22688 0.42882 0.0
H733 H 0.06788 0.16495 0.44789 0.0
H734 H 0.9617 0.13968 0.52211 0.0
C735 C 0.93823 0.27855 0.48689 0.0
C736 C 0.9501 0.30958 0.46083 0.0
C737 C 0.98291 0.31207 0.43582 0.0
C738 C 1.00354 0.28356 0.43639 0.0
C739 C 0.98991 0.25233 0.46147 0.0
C740 C 0.95772 0.24958 0.48602 0.0
C741 C 0.94558 0.21145 0.50718 0.0
C742 C 0.95459 0.217 0.55042 0.0
C743 C 0.89824 0.18845 0.49726 0.0
C744 C 0.97623 0.19327 0.4911 0.0
C745 C 1.0021 0.21741 0.46523 0.0
C746 C 0.03473 0.20749 0.44858 0.0
C747 C 0.04151 0.17228 0.45932 0.0
C748 C 1.01493 0.14716 0.48548 0.0
C749 C 0.98154 0.15769 0.50098 0.0
H750 H 0.25827 0.68392 0.24641 0.0
H751 H 0.35646 0.69697 0.16608 0.0
H752 H 0.3003 0.66537 0.11657 0.0
H753 H 0.18718 0.59032 0.21318 0.0
H754 H 0.13801 0.60165 0.21931 0.0
H755 H 0.18572 0.62293 0.24954 0.0
H756 H 0.18204 0.69059 0.23022 0.0
H757 H 0.134 0.66987 0.2003 0.0
H758 H 0.18 0.70426 0.18041 0.0
H759 H 0.23303 0.63781 0.07409 0.0
H760 H 0.15986 0.61445 1.04227 0.0
H761 H 0.10395 0.61684 0.14996 0.0
C762 C 0.26776 0.67931 0.21858 0.0
C763 C 0.31172 0.69265 0.20998 0.0
C764 C 0.32301 0.68683 0.17311 0.0
C765 C 0.29131 0.66891 0.1449 0.0
C766 C 0.24816 0.65671 0.15391 0.0
C767 C 0.23628 0.66143 0.18993 0.0
C768 C 0.18739 0.64723 0.19148 0.0
C769 C 0.17375 0.61351 0.22008 0.0
C770 C 0.16984 0.67994 0.20117 0.0
C771 C 0.17366 0.63433 0.15065 0.0
C772 C 0.20931 0.64008 0.1295 0.0
C773 C 0.20494 0.63271 0.09053 0.0
C774 C 0.16323 0.6195 0.07263 0.0
C775 C 0.12616 0.61342 0.09356 0.0
C776 C 0.13163 0.62051 0.13327 0.0
H777 H 0.19791 0.46553 0.70612 0.0
H778 H 0.21924 0.35566 0.7302 0.0
H779 H 0.28051 0.37402 0.68941 0.0
H780 H 0.23462 0.48339 0.60959 0.0
H781 H 0.26338 0.53328 0.61685 0.0
H782 H 0.21717 0.50991 0.64377 0.0
H783 H 0.26346 0.53057 0.70629 0.0
H784 H 0.31023 0.55343 0.67986 0.0
H785 H 0.31219 0.51735 0.71575 0.0
H786 H 0.34168 0.40478 0.646 0.0
H787 H 0.40065 0.44644 0.60969 0.0
H788 H 0.34937 0.54146 0.62015 0.0
C789 C 0.21523 0.44512 0.70279 0.0
C790 C 0.20143 0.40794 0.72081 0.0
C791 C 0.22616 0.38294 0.71543 0.0
C792 C 0.26211 0.39364 0.69264 0.0
C793 C 0.27477 0.43027 0.67578 0.0
C794 C 0.25254 0.45599 0.68116 0.0
C795 C 0.27554 0.49484 0.66263 0.0
C796 C 0.2459 0.50601 0.63135 0.0
C797 C 0.29127 0.52589 0.69294 0.0
C798 C 0.31374 0.48675 0.64554 0.0
C799 C 0.31213 0.44906 0.65319 0.0
C800 C 0.34314 0.43433 0.64007 0.0
C801 C 0.37669 0.45843 0.61909 0.0
C802 C 0.3803 0.49761 0.61136 0.0
C803 C 0.34795 0.51178 0.62508 0.0
H804 H 0.7521 0.83677 0.90201 0.0
H805 H 0.63165 0.74603 0.91046 0.0
H806 H 0.67166 0.70178 0.9368 0.0
H807 H 0.81343 0.77796 0.87156 0.0
H808 H 0.86234 0.80396 0.89801 0.0
H809 H 0.82366 0.82794 0.88108 0.0
H810 H 0.8198 0.84862 0.9499 0.0
H811 H 0.85816 0.82442 0.96721 0.0
H812 H 0.80636 0.81273 0.98747 0.0
H813 H 0.72534 0.66789 0.96119 0.0
H814 H 0.78835 0.64572 0.98008 0.0
H815 H 0.87388 0.7593 0.95507 0.0
C816 C 0.73442 0.80742 0.9089 0.0
C817 C 0.68912 0.7942 0.90379 0.0
C818 C 0.66652 0.7561 0.91409 0.0
C819 C 0.68894 0.73103 0.92904 0.0
C820 C 0.73384 0.74481 0.93348 0.0
C821 C 0.75633 0.7821 0.92362 0.0
C822 C 0.8045 0.78968 0.9306 0.0
C823 C 0.82733 0.80051 0.89308 0.0
C824 C 0.82329 0.8207 0.96059 0.0
C825 C 0.8057 0.75076 0.94578 0.0
C826 C 0.76464 0.72534 0.94744 0.0
C827 C 0.75765 0.68757 0.96019 0.0
C828 C 0.79364 0.67534 0.97113 0.0
C829 C 0.83606 0.70078 0.96918 0.0
C830 C 0.84191 0.73907 0.95662 0.0
H831 H 0.47024 0.79451 0.22012 0.0
H832 H 0.39135 0.81807 0.30344 0.0
H833 H 0.41459 0.88671 0.2838 0.0
H834 H 0.56007 0.88959 0.22616 0.0
H835 H 0.56623 0.8904 0.17556 0.0
H836 H 0.54942 0.84531 0.2014 0.0
H837 H 0.48224 0.8234 0.15447 0.0
H838 H 0.49794 0.86876 0.12917 0.0
H839 H 0.44556 0.85164 0.14851 0.0
H840 H 0.43648 0.95188 0.24522 0.0
H841 H 0.46451 1.00725 0.20099 0.0
H842 H 0.5315 0.94221 0.14373 0.0
C843 C 0.46029 0.81459 0.23611 0.0
C844 C 0.42999 0.80049 0.26465 0.0
C845 C 0.41582 0.82784 0.28292 0.0
C846 C 0.42819 0.86699 0.27112 0.0
C847 C 0.45555 0.87921 0.24104 0.0
C848 C 0.47249 0.85384 0.22458 0.0
C849 C 0.4991 0.87335 0.19121 0.0
C850 C 0.54653 0.87475 0.19905 0.0
C851 C 0.48007 0.85307 0.15363 0.0
C852 C 0.49417 0.91346 0.19095 0.0
C853 C 0.46855 0.91627 0.21968 0.0
C854 C 0.45725 0.9499 0.22325 0.0
C855 C 0.47312 0.98134 0.1977 0.0
C856 C 0.50068 0.97971 0.16879 0.0
C857 C 0.511 0.94492 0.16566 0.0
H858 H 0.08606 0.33521 0.68288 0.0
H859 H 0.17013 0.30696 0.77233 0.0
H860 H 0.16192 0.2454 0.7414 0.0
H861 H 1.01237 0.23816 0.67792 0.0
H862 H 0.99997 0.23934 0.62726 0.0
H863 H 1.01515 0.28304 0.65355 0.0
H864 H 0.07686 0.31366 0.60964 0.0
H865 H 0.06246 0.27057 0.58238 0.0
H866 H 0.11659 0.28978 0.60315 0.0
H867 H 0.14612 0.18571 0.69805 0.0
H868 H 0.11733 0.13221 0.65312 0.0
H869 H 0.03643 0.19377 0.59447 0.0
C870 C 0.10346 0.3164 0.6955 0.0
C871 C 0.13091 0.3275 0.72943 0.0
C872 C 0.15061 0.30041 0.74581 0.0
C873 C 0.14591 0.26506 0.72831 0.0
C874 C 0.11967 0.25536 0.6946 0.0
C875 C 0.09801 0.28002 0.67876 0.0
C876 C 0.06891 0.26107 0.64415 0.0
C877 C 1.02128 0.25507 0.65111 0.0
C878 C 0.08196 0.28521 0.60767 0.0
C879 C 0.07808 0.22242 0.64253 0.0
C880 C 0.10796 0.21997 0.6717 0.0
C881 C 0.12244 0.18754 0.67544 0.0
C882 C 0.10592 0.15701 0.64947 0.0
C883 C 0.07421 0.15785 0.61982 0.0
C884 C 0.0604 0.19154 0.61666 0.0
H885 H 0.81014 0.33981 0.4955 0.0
H886 H 0.90651 0.44919 0.4795 0.0
H887 H 0.85699 0.48222 0.50229 0.0
H888 H 0.7251 0.3674 0.45758 0.0
H889 H 0.6856 0.33923 0.48911 0.0
H890 H 0.73131 0.32403 0.47984 0.0
H891 H 0.75277 0.32286 0.5522 0.0
H892 H 0.70654 0.33733 0.5619 0.0
H893 H 0.75972 0.3649 0.57974 0.0
H894 H 0.79297 0.50287 0.51749 0.0
H895 H 0.72115 0.50987 0.52568 0.0
H896 H 0.66604 0.3862 0.53009 0.0
C897 C 0.82117 0.3706 0.49847 0.0
C898 C 0.86203 0.39224 0.48668 0.0
C899 C 0.87549 0.43247 0.48933 0.0
C900 C 0.84753 0.45127 0.50202 0.0
C901 C 0.80646 0.42916 0.5119 0.0
C902 C 0.79352 0.38961 0.51064 0.0
C903 C 0.74635 0.37256 0.51835 0.0
C904 C 0.7206 0.34946 0.48419 0.0
C905 C 0.74105 0.34797 0.55525 0.0
C906 C 0.73426 0.40867 0.52304 0.0
C907 C 0.76943 0.44102 0.51975 0.0
C908 C 0.76545 0.47772 0.52088 0.0
C909 C 0.72453 0.4814 0.52557 0.0
C910 C 0.68805 0.44856 0.52875 0.0
C911 C 0.69327 0.41182 0.52768 0.0
loop_
_geom_bond_atom_site_label_1
_geom_bond_atom_site_label_2
_geom_bond_distance
_geom_bond_site_symmetry_2
_ccdc_geom_bond_type
C0 N1 1.317 . S
C0 N2 1.348 . S
C0 C3 1.485 . S
N1 C0 1.317 . S
N1 N5 1.370 . S
N2 C0 1.348 . S
N2 C4 1.346 . S
C3 C0 1.485 . S
C3 H7 0.960 . S
C3 H8 0.961 . S
C3 H9 0.960 . S
C4 N2 1.346 . S
C4 N5 1.307 . S
C4 C6 1.486 . S
N5 N1 1.370 . S
N5 C4 1.307 . S
C6 C4 1.486 . S
C6 H10 0.960 . S
C6 H11 0.960 . S
C6 H12 0.959 . S
H7 C3 0.960 . S
H8 C3 0.961 . S
H9 C3 0.960 . S
H10 C6 0.960 . S
H11 C6 0.960 . S
H12 C6 0.959 . S
C13 N14 1.317 . S
C13 N15 1.348 . S
C13 C16 1.485 . S
N14 C13 1.317 . S
N14 N18 1.370 . S
N15 C13 1.348 . S
N15 C17 1.346 . S
C16 C13 1.485 . S
C16 H20 0.960 . S
C16 H21 0.961 . S
C16 H22 0.960 . S
C17 N15 1.346 . S
C17 N18 1.307 . S
C17 C19 1.486 . S
N18 N14 1.370 . S
N18 C17 1.307 . S
C19 C17 1.486 . S
C19 H23 0.960 . S
C19 H24 0.960 . S
C19 H25 0.959 . S
H20 C16 0.960 . S
H21 C16 0.961 . S
H22 C16 0.960 . S
H23 C19 0.960 . S
H24 C19 0.960 . S
H25 C19 0.959 . S
C26 N27 1.317 . S
C26 N28 1.348 . S
C26 C29 1.485 . S
N27 C26 1.317 . S
N27 N31 1.370 . S
N28 C26 1.348 . S
N28 C30 1.346 . S
C29 C26 1.485 . S
C29 H33 0.960 . S
C29 H34 0.961 . S
C29 H35 0.960 . S
C30 N28 1.346 . S
C30 N31 1.307 . S
C30 C32 1.486 . S
N31 N27 1.370 . S
N31 C30 1.307 . S
C32 C30 1.486 . S
C32 H36 0.960 . S
C32 H37 0.960 . S
C32 H38 0.959 . S
H33 C29 0.960 . S
H34 C29 0.961 . S
H35 C29 0.960 . S
H36 C32 0.960 . S
H37 C32 0.960 . S
H38 C32 0.959 . S
C39 N40 1.317 . S
C39 N41 1.348 . S
C39 C42 1.485 . S
N40 C39 1.317 . S
N40 N44 1.370 . S
N41 C39 1.348 . S
N41 C43 1.346 . S
C42 C39 1.485 . S
C42 H46 0.960 . S
C42 H47 0.961 . S
C42 H48 0.960 . S
C43 N41 1.346 . S
C43 N44 1.307 . S
C43 C45 1.486 . S
N44 N40 1.370 . S
N44 C43 1.307 . S
C45 C43 1.486 . S
C45 H49 0.960 . S
C45 H50 0.960 . S
C45 H51 0.959 . S
H46 C42 0.960 . S
H47 C42 0.961 . S
H48 C42 0.960 . S
H49 C45 0.960 . S
H50 C45 0.960 . S
H51 C45 0.959 . S
C52 N53 1.317 . S
C52 N54 1.348 . S
C52 C55 1.485 . S
N53 C52 1.317 . S
N53 N57 1.370 . S
N54 C52 1.348 . S
N54 C56 1.346 . S
C55 C52 1.485 . S
C55 H59 0.960 . S
C55 H60 0.961 . S
C55 H61 0.960 . S
C56 N54 1.346 . S
C56 N57 1.307 . S
C56 C58 1.486 . S
N57 N53 1.370 . S
N57 C56 1.307 . S
C58 C56 1.486 . S
C58 H62 0.960 . S
C58 H63 0.960 . S
C58 H64 0.959 . S
H59 C55 0.960 . S
H60 C55 0.961 . S
H61 C55 0.960 . S
H62 C58 0.960 . S
H63 C58 0.960 . S
H64 C58 0.959 . S
C65 N66 1.317 . S
C65 N67 1.348 . S
C65 C68 1.485 . S
N66 C65 1.317 . S
N66 N70 1.370 . S
N67 C65 1.348 . S
N67 C69 1.346 . S
C68 C65 1.485 . S
C68 H72 0.960 . S
C68 H73 0.961 . S
C68 H74 0.960 . S
C69 N67 1.346 . S
C69 N70 1.307 . S
C69 C71 1.486 . S
N70 N66 1.370 . S
N70 C69 1.307 . S
C71 C69 1.486 . S
C71 H75 0.960 . S
C71 H76 0.960 . S
C71 H77 0.959 . S
H72 C68 0.960 . S
H73 C68 0.961 . S
H74 C68 0.960 . S
H75 C71 0.960 . S
H76 C71 0.960 . S
H77 C71 0.959 . S
C78 N79 1.317 . S
C78 N80 1.348 . S
C78 C81 1.485 . S
N79 C78 1.317 . S
N79 N83 1.370 . S
N80 C78 1.348 . S
N80 C82 1.346 . S
C81 C78 1.485 . S
C81 H85 0.960 . S
C81 H86 0.961 . S
C81 H87 0.960 . S
C82 N80 1.346 . S
C82 N83 1.307 . S
C82 C84 1.486 . S
N83 N79 1.370 . S
N83 C82 1.307 . S
C84 C82 1.486 . S
C84 H88 0.960 . S
C84 H89 0.960 . S
C84 H90 0.959 . S
H85 C81 0.960 . S
H86 C81 0.961 . S
H87 C81 0.960 . S
H88 C84 0.960 . S
H89 C84 0.960 . S
H90 C84 0.959 . S
C91 N92 1.317 . S
C91 N93 1.348 . S
C91 C94 1.485 . S
N92 C91 1.317 . S
N92 N96 1.370 . S
N93 C91 1.348 . S
N93 C95 1.346 . S
C94 C91 1.485 . S
C94 H98 0.960 . S
C94 H99 0.961 . S
C94 H100 0.960 . S
C95 N93 1.346 . S
C95 N96 1.307 . S
C95 C97 1.486 . S
N96 N92 1.370 . S
N96 C95 1.307 . S
C97 C95 1.486 . S
C97 H101 0.960 . S
C97 H102 0.960 . S
C97 H103 0.959 . S
H98 C94 0.960 . S
H99 C94 0.961 . S
H100 C94 0.960 . S
H101 C97 0.960 . S
H102 C97 0.960 . S
H103 C97 0.959 . S
Tb104 C106 2.809 1_545 S
Tb104 O124 2.484 1_545 S
Tb104 O125 2.440 1_545 S
Tb104 O126 2.658 1_655 S
Tb104 O127 2.409 1_655 S
Tb104 O128 2.378 1_645 S
Tb104 O132 2.325 1_645 S
Tb104 O135 2.341 . S
Tb105 C115 2.809 . S
Tb105 O126 2.325 . S
Tb105 O129 2.341 1_545 S
Tb105 O130 2.484 . S
Tb105 O131 2.440 . S
Tb105 O132 2.658 1_545 S
Tb105 O133 2.409 1_545 S
Tb105 O134 2.378 . S
C106 Tb104 2.809 1_565 S
C106 C107 1.514 . S
C106 O124 1.248 . S
C106 O125 1.266 . S
C107 C106 1.514 . S
C107 C108 1.359 . S
C107 C112 1.348 . S
C108 C107 1.359 . S
C108 C109 1.380 . S
C108 H136 0.929 . S
C109 C108 1.380 . S
C109 C110 1.347 . S
C109 H137 0.931 . S
C110 C109 1.347 . S
C110 C111 1.369 . S
C111 C110 1.369 . S
C111 C112 1.408 . S
C111 H138 0.930 . S
C112 C107 1.348 . S
C112 C111 1.408 . S
C112 H139 0.930 . S
C113 O126 1.281 . S
C113 O127 1.254 . S
C114 O128 1.236 . S
C114 O129 1.266 . S
C115 Tb105 2.809 . S
C115 C116 1.514 . S
C115 O130 1.248 . S
C115 O131 1.266 . S
C116 C115 1.514 . S
C116 C117 1.359 . S
C116 C121 1.348 . S
C117 C116 1.359 . S
C117 C118 1.380 . S
C117 H140 0.929 . S
C118 C117 1.380 . S
C118 C119 1.347 . S
C118 H141 0.931 . S
C119 C118 1.347 . S
C119 C120 1.369 . S
C120 C119 1.369 . S
C120 C121 1.408 . S
C120 H142 0.930 . S
C121 C116 1.348 . S
C121 C120 1.408 . S
C121 H143 0.930 . S
C122 O132 1.281 . S
C122 O133 1.254 . S
C123 O134 1.236 . S
C123 O135 1.266 1_455 S
O124 Tb104 2.484 1_565 S
O124 C106 1.248 . S
O125 Tb104 2.440 1_565 S
O125 C106 1.266 . S
O126 Tb104 2.658 1_455 S
O126 Tb105 2.325 . S
O126 C113 1.281 . S
O127 Tb104 2.409 1_455 S
O127 C113 1.254 . S
O128 Tb104 2.378 1_465 S
O128 C114 1.236 . S
O129 Tb105 2.341 1_565 S
O129 C114 1.266 . S
O130 Tb105 2.484 . S
O130 C115 1.248 . S
O131 Tb105 2.440 . S
O131 C115 1.266 . S
O132 Tb104 2.325 1_465 S
O132 Tb105 2.658 1_565 S
O132 C122 1.281 . S
O133 Tb105 2.409 1_565 S
O133 C122 1.254 . S
O134 Tb105 2.378 . S
O134 C123 1.236 . S
O135 Tb104 2.341 . S
O135 C123 1.266 1_655 S
H136 C108 0.929 . S
H137 C109 0.931 . S
H138 C111 0.930 . S
H139 C112 0.930 . S
H140 C117 0.929 . S
H141 C118 0.931 . S
H142 C120 0.930 . S
H143 C121 0.930 . S
Tb144 C146 2.809 . S
Tb144 O164 2.484 . S
Tb144 O165 2.440 . S
Tb144 O166 2.658 1_545 S
Tb144 O167 2.409 1_545 S
Tb144 O168 2.378 . S
Tb144 O172 2.325 . S
Tb144 O175 2.343 1_545 S
Tb145 C155 2.809 1_544 S
Tb145 O166 2.325 1_545 S
Tb145 O169 2.341 . S
Tb145 O170 2.484 1_545 S
Tb145 O171 2.440 1_554 S
Tb145 O172 2.658 . S
Tb145 O173 2.409 1_554 S
Tb145 O174 2.378 . S
C146 Tb144 2.809 . S
C146 C147 1.514 . S
C146 O164 1.248 . S
C146 O165 1.266 . S
C147 C146 1.514 . S
C147 C148 1.359 . S
C147 C152 1.348 . S
C148 C147 1.359 . S
C148 C149 1.380 . S
C148 H176 0.929 . S
C149 C148 1.380 . S
C149 C150 1.347 . S
C149 H177 0.931 . S
C150 C149 1.347 . S
C150 C151 1.369 . S
C151 C150 1.369 . S
C151 C152 1.408 . S
C151 H178 0.930 . S
C152 C147 1.348 . S
C152 C151 1.408 . S
C152 H179 0.930 . S
C153 O166 1.281 . S
C153 O167 1.254 . S
C154 O168 1.236 . S
C154 O169 1.266 . S
C155 Tb145 2.809 1_566 S
C155 C156 1.514 . S
C155 O170 1.248 1_556 S
C155 O171 1.266 1_565 S
C156 C155 1.514 . S
C156 C157 1.359 . S
C156 C161 1.348 . S
C157 C156 1.359 . S
C157 C158 1.380 . S
C157 H180 0.929 . S
C158 C157 1.380 . S
C158 C159 1.347 . S
C158 H181 0.931 . S
C159 C158 1.347 . S
C159 C160 1.369 . S
C160 C159 1.369 . S
C160 C161 1.408 . S
C160 H182 0.930 . S
C161 C156 1.348 . S
C161 C160 1.408 . S
C161 H183 0.930 . S
C162 O172 1.281 . S
C162 O173 1.254 1_554 S
C163 O174 1.236 1_565 S
C163 O175 1.265 . S
O164 Tb144 2.484 . S
O164 C146 1.248 . S
O165 Tb144 2.440 . S
O165 C146 1.266 . S
O166 Tb144 2.658 1_565 S
O166 Tb145 2.325 1_565 S
O166 C153 1.281 . S
O167 Tb144 2.409 1_565 S
O167 C153 1.254 . S
O168 Tb144 2.378 . S
O168 C154 1.236 . S
O169 Tb145 2.341 . S
O169 C154 1.266 . S
O170 Tb145 2.484 1_565 S
O170 C155 1.248 1_554 S
O171 Tb145 2.440 1_556 S
O171 C155 1.266 1_545 S
O172 Tb144 2.325 . S
O172 Tb145 2.658 . S
O172 C162 1.281 . S
O173 Tb145 2.409 1_556 S
O173 C162 1.254 1_556 S
O174 Tb145 2.378 . S
O174 C163 1.236 1_545 S
O175 Tb144 2.343 1_565 S
O175 C163 1.265 . S
H176 C148 0.929 . S
H177 C149 0.931 . S
H178 C151 0.930 . S
H179 C152 0.930 . S
H180 C157 0.929 . S
H181 C158 0.931 . S
H182 C160 0.930 . S
H183 C161 0.930 . S
Tb184 C186 2.809 . S
Tb184 O204 2.484 . S
Tb184 O205 2.440 . S
Tb184 O206 2.658 . S
Tb184 O207 2.409 . S
Tb184 O208 2.378 . S
Tb184 O212 2.325 . S
Tb184 O215 2.341 . S
Tb185 C195 2.809 . S
Tb185 O206 2.325 . S
Tb185 O209 2.341 . S
Tb185 O210 2.484 . S
Tb185 O211 2.440 . S
Tb185 O212 2.658 . S
Tb185 O213 2.409 . S
Tb185 O214 2.378 . S
C186 Tb184 2.809 . S
C186 C187 1.514 . S
C186 O204 1.248 . S
C186 O205 1.266 . S
C187 C186 1.514 . S
C187 C188 1.359 . S
C187 C192 1.348 . S
C188 C187 1.359 . S
C188 C189 1.380 . S
C188 H216 0.929 . S
C189 C188 1.380 . S
C189 C190 1.347 . S
C189 H217 0.931 . S
C190 C189 1.347 . S
C190 C191 1.369 . S
C191 C190 1.369 . S
C191 C192 1.408 . S
C191 H218 0.930 . S
C192 C187 1.348 . S
C192 C191 1.408 . S
C192 H219 0.930 . S
C193 O206 1.281 . S
C193 O207 1.254 . S
C194 O208 1.236 . S
C194 O209 1.266 . S
C195 Tb185 2.809 . S
C195 C196 1.514 . S
C195 O210 1.248 . S
C195 O211 1.266 . S
C196 C195 1.514 . S
C196 C197 1.359 . S
C196 C201 1.348 . S
C197 C196 1.359 . S
C197 C198 1.380 . S
C197 H220 0.929 . S
C198 C197 1.380 . S
C198 C199 1.347 . S
C198 H221 0.931 . S
C199 C198 1.347 . S
C199 C200 1.369 . S
C200 C199 1.369 . S
C200 C201 1.408 . S
C200 H222 0.930 . S
C201 C196 1.348 . S
C201 C200 1.408 . S
C201 H223 0.930 . S
C202 O212 1.281 . S
C202 O213 1.254 . S
C203 O214 1.236 . S
C203 O215 1.266 . S
O204 Tb184 2.484 . S
O204 C186 1.248 . S
O205 Tb184 2.440 . S
O205 C186 1.266 . S
O206 Tb184 2.658 . S
O206 Tb185 2.325 . S
O206 C193 1.281 . S
O207 Tb184 2.409 . S
O207 C193 1.254 . S
O208 Tb184 2.378 . S
O208 C194 1.236 . S
O209 Tb185 2.341 . S
O209 C194 1.266 . S
O210 Tb185 2.484 . S
O210 C195 1.248 . S
O211 Tb185 2.440 . S
O211 C195 1.266 . S
O212 Tb184 2.325 . S
O212 Tb185 2.658 . S
O212 C202 1.281 . S
O213 Tb185 2.409 . S
O213 C202 1.254 . S
O214 Tb185 2.378 . S
O214 C203 1.236 . S
O215 Tb184 2.341 . S
O215 C203 1.266 . S
H216 C188 0.929 . S
H217 C189 0.931 . S
H218 C191 0.930 . S
H219 C192 0.930 . S
H220 C197 0.929 . S
H221 C198 0.931 . S
H222 C200 0.930 . S
H223 C201 0.930 . S
Tb224 C226 2.808 . S
Tb224 O244 2.484 . S
Tb224 O245 2.440 . S
Tb224 O246 2.659 1_656 S
Tb224 O247 2.409 1_656 S
Tb224 O248 2.378 1_556 S
Tb224 O252 2.324 . S
Tb224 O255 2.342 1_655 S
Tb225 C235 2.809 . S
Tb225 O246 2.325 . S
Tb225 O249 2.341 1_455 S
Tb225 O250 2.484 . S
Tb225 O251 2.440 . S
Tb225 O252 2.658 1_454 S
Tb225 O253 2.409 1_455 S
Tb225 O254 2.378 1_554 S
C226 Tb224 2.808 . S
C226 C227 1.514 . S
C226 O244 1.248 . S
C226 O245 1.266 . S
C227 C226 1.514 . S
C227 C228 1.359 . S
C227 C232 1.348 . S
C228 C227 1.359 . S
C228 C229 1.380 . S
C228 H256 0.929 . S
C229 C228 1.380 . S
C229 C230 1.347 . S
C229 H257 0.931 . S
C230 C229 1.347 . S
C230 C231 1.369 . S
C231 C230 1.369 . S
C231 C232 1.408 . S
C231 H258 0.930 . S
C232 C227 1.348 . S
C232 C231 1.408 . S
C232 H259 0.930 . S
C233 O246 1.281 . S
C233 O247 1.254 . S
C234 O248 1.236 . S
C234 O249 1.266 . S
C235 Tb225 2.809 . S
C235 C236 1.514 . S
C235 O250 1.248 . S
C235 O251 1.266 . S
C236 C235 1.514 . S
C236 C237 1.359 . S
C236 C241 1.348 . S
C237 C236 1.359 . S
C237 C238 1.380 . S
C237 H260 0.929 . S
C238 C237 1.380 . S
C238 C239 1.347 . S
C238 H261 0.931 . S
C239 C238 1.347 . S
C239 C240 1.369 . S
C240 C239 1.369 . S
C240 C241 1.408 . S
C240 H262 0.930 . S
C241 C236 1.348 . S
C241 C240 1.408 . S
C241 H263 0.930 . S
C242 O252 1.281 . S
C242 O253 1.254 1_556 S
C243 O254 1.236 . S
C243 O255 1.266 . S
O244 Tb224 2.484 . S
O244 C226 1.248 . S
O245 Tb224 2.440 . S
O245 C226 1.266 . S
O246 Tb224 2.659 1_454 S
O246 Tb225 2.325 . S
O246 C233 1.281 . S
O247 Tb224 2.409 1_454 S
O247 C233 1.254 . S
O248 Tb224 2.378 1_554 S
O248 C234 1.236 . S
O249 Tb225 2.341 1_655 S
O249 C234 1.266 . S
O250 Tb225 2.484 . S
O250 C235 1.248 . S
O251 Tb225 2.440 . S
O251 C235 1.266 . S
O252 Tb224 2.324 . S
O252 Tb225 2.658 1_656 S
O252 C242 1.281 . S
O253 Tb225 2.409 1_655 S
O253 C242 1.254 1_554 S
O254 Tb225 2.378 1_556 S
O254 C243 1.236 . S
O255 Tb224 2.342 1_455 S
O255 C243 1.266 . S
H256 C228 0.929 . S
H257 C229 0.931 . S
H258 C231 0.930 . S
H259 C232 0.930 . S
H260 C237 0.929 . S
H261 C238 0.931 . S
H262 C240 0.930 . S
H263 C241 0.930 . S
H264 C276 0.930 . S
H265 C278 0.930 . S
H266 C279 0.930 . S
H267 C283 0.959 . S
H268 C283 0.959 . S
H269 C283 0.961 . S
H270 C284 0.960 . S
H271 C284 0.961 . S
H272 C284 0.959 . S
H273 C287 0.929 . S
H274 C288 0.931 . S
H275 C290 0.930 . S
C276 H264 0.930 . S
C276 C277 1.399 . S
C276 C281 1.399 . S
C277 C276 1.399 . S
C277 C278 1.376 . S
C278 H265 0.930 . S
C278 C277 1.376 . S
C278 C279 1.388 . S
C279 H266 0.930 . S
C279 C278 1.388 . S
C279 C280 1.390 . S
C280 C279 1.390 . S
C280 C281 1.394 . S
C280 C286 1.465 . S
C281 C276 1.399 . S
C281 C280 1.394 . S
C281 C282 1.516 . S
C282 C281 1.516 . S
C282 C283 1.502 . S
C282 C284 1.561 . S
C282 C285 1.526 . S
C283 H267 0.959 . S
C283 H268 0.959 . S
C283 H269 0.961 . S
C283 C282 1.502 . S
C284 H270 0.960 . S
C284 H271 0.961 . S
C284 H272 0.959 . S
C284 C282 1.561 . S
C285 C282 1.526 . S
C285 C286 1.396 . S
C285 C290 1.390 . S
C286 C280 1.465 . S
C286 C285 1.396 . S
C286 C287 1.399 . S
C287 H273 0.929 . S
C287 C286 1.399 . S
C287 C288 1.385 . S
C288 H274 0.931 . S
C288 C287 1.385 . S
C288 C289 1.389 . S
C289 C288 1.389 . S
C289 C290 1.387 . S
C290 H275 0.930 . S
C290 C285 1.390 . S
C290 C289 1.387 . S
H291 C303 0.930 . S
H292 C305 0.930 . S
H293 C306 0.930 . S
H294 C310 0.959 . S
H295 C310 0.959 . S
H296 C310 0.961 . S
H297 C311 0.960 . S
H298 C311 0.961 . S
H299 C311 0.959 . S
H300 C314 0.929 . S
H301 C315 0.931 . S
H302 C317 0.930 . S
C303 H291 0.930 . S
C303 C304 1.399 . S
C303 C308 1.399 . S
C304 C303 1.399 . S
C304 C305 1.376 . S
C305 H292 0.930 . S
C305 C304 1.376 . S
C305 C306 1.388 . S
C306 H293 0.930 . S
C306 C305 1.388 . S
C306 C307 1.390 . S
C307 C306 1.390 . S
C307 C308 1.394 . S
C307 C313 1.465 . S
C308 C303 1.399 . S
C308 C307 1.394 . S
C308 C309 1.516 . S
C309 C308 1.516 . S
C309 C310 1.502 . S
C309 C311 1.561 . S
C309 C312 1.526 . S
C310 H294 0.959 . S
C310 H295 0.959 . S
C310 H296 0.961 . S
C310 C309 1.502 . S
C311 H297 0.960 . S
C311 H298 0.961 . S
C311 H299 0.959 . S
C311 C309 1.561 . S
C312 C309 1.526 . S
C312 C313 1.396 . S
C312 C317 1.390 . S
C313 C307 1.465 . S
C313 C312 1.396 . S
C313 C314 1.399 . S
C314 H300 0.929 . S
C314 C313 1.399 . S
C314 C315 1.385 . S
C315 H301 0.931 . S
C315 C314 1.385 . S
C315 C316 1.389 . S
C316 C315 1.389 . S
C316 C317 1.387 . S
C317 H302 0.930 . S
C317 C312 1.390 . S
C317 C316 1.387 . S
H318 C330 0.930 . S
H319 C332 0.930 . S
H320 C333 0.930 . S
H321 C337 0.959 . S
H322 C337 0.959 . S
H323 C337 0.961 . S
H324 C338 0.960 . S
H325 C338 0.961 . S
H326 C338 0.959 . S
H327 C341 0.929 . S
H328 C342 0.931 . S
H329 C344 0.930 . S
C330 H318 0.930 . S
C330 C331 1.399 . S
C330 C335 1.399 . S
C331 C330 1.399 . S
C331 C332 1.376 . S
C332 H319 0.930 . S
C332 C331 1.376 . S
C332 C333 1.388 . S
C333 H320 0.930 . S
C333 C332 1.388 . S
C333 C334 1.390 . S
C334 C333 1.390 . S
C334 C335 1.394 . S
C334 C340 1.465 . S
C335 C330 1.399 . S
C335 C334 1.394 . S
C335 C336 1.516 . S
C336 C335 1.516 . S
C336 C337 1.502 . S
C336 C338 1.561 . S
C336 C339 1.526 . S
C337 H321 0.959 . S
C337 H322 0.959 . S
C337 H323 0.961 . S
C337 C336 1.502 . S
C338 H324 0.960 . S
C338 H325 0.961 . S
C338 H326 0.959 . S
C338 C336 1.561 . S
C339 C336 1.526 . S
C339 C340 1.396 . S
C339 C344 1.390 . S
C340 C334 1.465 . S
C340 C339 1.396 . S
C340 C341 1.399 . S
C341 H327 0.929 . S
C341 C340 1.399 . S
C341 C342 1.385 . S
C342 H328 0.931 . S
C342 C341 1.385 . S
C342 C343 1.389 . S
C343 C342 1.389 . S
C343 C344 1.387 . S
C344 H329 0.930 . S
C344 C339 1.390 . S
C344 C343 1.387 . S
H345 C357 0.930 . S
H346 C359 0.930 . S
H347 C360 0.930 . S
H348 C364 0.959 . S
H349 C364 0.959 . S
H350 C364 0.961 . S
H351 C365 0.960 . S
H352 C365 0.961 . S
H353 C365 0.959 . S
H354 C368 0.929 . S
H355 C369 0.931 . S
H356 C371 0.930 . S
C357 H345 0.930 . S
C357 C358 1.399 . S
C357 C362 1.399 . S
C358 C357 1.399 . S
C358 C359 1.376 . S
C359 H346 0.930 . S
C359 C358 1.376 . S
C359 C360 1.388 . S
C360 H347 0.930 . S
C360 C359 1.388 . S
C360 C361 1.390 . S
C361 C360 1.390 . S
C361 C362 1.394 . S
C361 C367 1.465 . S
C362 C357 1.399 . S
C362 C361 1.394 . S
C362 C363 1.516 . S
C363 C362 1.516 . S
C363 C364 1.502 . S
C363 C365 1.561 . S
C363 C366 1.526 . S
C364 H348 0.959 . S
C364 H349 0.959 . S
C364 H350 0.961 . S
C364 C363 1.502 . S
C365 H351 0.960 . S
C365 H352 0.961 . S
C365 H353 0.959 . S
C365 C363 1.561 . S
C366 C363 1.526 . S
C366 C367 1.396 . S
C366 C371 1.390 . S
C367 C361 1.465 . S
C367 C366 1.396 . S
C367 C368 1.399 . S
C368 H354 0.929 . S
C368 C367 1.399 . S
C368 C369 1.385 . S
C369 H355 0.931 . S
C369 C368 1.385 . S
C369 C370 1.389 . S
C370 C369 1.389 . S
C370 C371 1.387 . S
C371 H356 0.930 . S
C371 C366 1.390 . S
C371 C370 1.387 . S
H372 C384 0.930 . S
H373 C386 0.930 . S
H374 C387 0.930 . S
H375 C391 0.959 . S
H376 C391 0.959 . S
H377 C391 0.961 . S
H378 C392 0.960 . S
H379 C392 0.961 . S
H380 C392 0.959 . S
H381 C395 0.929 . S
H382 C396 0.931 . S
H383 C398 0.930 . S
C384 H372 0.930 . S
C384 C385 1.399 . S
C384 C389 1.399 . S
C385 C384 1.399 . S
C385 C386 1.376 . S
C386 H373 0.930 . S
C386 C385 1.376 . S
C386 C387 1.388 . S
C387 H374 0.930 . S
C387 C386 1.388 . S
C387 C388 1.390 . S
C388 C387 1.390 . S
C388 C389 1.394 . S
C388 C394 1.465 . S
C389 C384 1.399 . S
C389 C388 1.394 . S
C389 C390 1.516 . S
C390 C389 1.516 . S
C390 C391 1.502 . S
C390 C392 1.561 . S
C390 C393 1.526 . S
C391 H375 0.959 . S
C391 H376 0.959 . S
C391 H377 0.961 . S
C391 C390 1.502 . S
C392 H378 0.960 . S
C392 H379 0.961 . S
C392 H380 0.959 . S
C392 C390 1.561 . S
C393 C390 1.526 . S
C393 C394 1.396 . S
C393 C398 1.390 . S
C394 C388 1.465 . S
C394 C393 1.396 . S
C394 C395 1.399 . S
C395 H381 0.929 . S
C395 C394 1.399 . S
C395 C396 1.385 . S
C396 H382 0.931 . S
C396 C395 1.385 . S
C396 C397 1.389 . S
C397 C396 1.389 . S
C397 C398 1.387 . S
C398 H383 0.930 . S
C398 C393 1.390 . S
C398 C397 1.387 . S
H399 C411 0.930 . S
H400 C413 0.930 . S
H401 C414 0.930 . S
H402 C418 0.959 . S
H403 C418 0.959 1_655 S
H404 C418 0.961 1_655 S
H405 C419 0.960 . S
H406 C419 0.961 . S
H407 C419 0.959 . S
H408 C422 0.929 . S
H409 C423 0.931 . S
H410 C425 0.930 . S
C411 H399 0.930 . S
C411 C412 1.399 . S
C411 C416 1.399 . S
C412 C411 1.399 . S
C412 C413 1.376 . S
C413 H400 0.930 . S
C413 C412 1.376 . S
C413 C414 1.388 . S
C414 H401 0.930 . S
C414 C413 1.388 . S
C414 C415 1.390 . S
C415 C414 1.390 . S
C415 C416 1.394 . S
C415 C421 1.465 . S
C416 C411 1.399 . S
C416 C415 1.394 . S
C416 C417 1.516 . S
C417 C416 1.516 . S
C417 C418 1.502 . S
C417 C419 1.561 . S
C417 C420 1.526 . S
C418 H402 0.959 . S
C418 H403 0.959 1_455 S
C418 H404 0.961 1_455 S
C418 C417 1.502 . S
C419 H405 0.960 . S
C419 H406 0.961 . S
C419 H407 0.959 . S
C419 C417 1.561 . S
C420 C417 1.526 . S
C420 C421 1.396 . S
C420 C425 1.390 . S
C421 C415 1.465 . S
C421 C420 1.396 . S
C421 C422 1.399 . S
C422 H408 0.929 . S
C422 C421 1.399 . S
C422 C423 1.385 . S
C423 H409 0.931 . S
C423 C422 1.385 . S
C423 C424 1.389 . S
C424 C423 1.389 . S
C424 C425 1.387 . S
C425 H410 0.930 . S
C425 C420 1.390 . S
C425 C424 1.387 . S
H426 C438 0.930 . S
H427 C440 0.930 . S
H428 C441 0.930 . S
H429 C445 0.959 . S
H430 C445 0.959 . S
H431 C445 0.961 . S
H432 C446 0.960 . S
H433 C446 0.961 . S
H434 C446 0.959 . S
H435 C449 0.929 . S
H436 C450 0.931 . S
H437 C452 0.930 . S
C438 H426 0.930 . S
C438 C439 1.399 . S
C438 C443 1.399 . S
C439 C438 1.399 . S
C439 C440 1.376 . S
C440 H427 0.930 . S
C440 C439 1.376 . S
C440 C441 1.388 . S
C441 H428 0.930 . S
C441 C440 1.388 . S
C441 C442 1.390 . S
C442 C441 1.390 . S
C442 C443 1.394 . S
C442 C448 1.465 . S
C443 C438 1.399 . S
C443 C442 1.394 . S
C443 C444 1.516 . S
C444 C443 1.516 . S
C444 C445 1.502 . S
C444 C446 1.561 . S
C444 C447 1.526 . S
C445 H429 0.959 . S
C445 H430 0.959 . S
C445 H431 0.961 . S
C445 C444 1.502 . S
C446 H432 0.960 . S
C446 H433 0.961 . S
C446 H434 0.959 . S
C446 C444 1.561 . S
C447 C444 1.526 . S
C447 C448 1.396 . S
C447 C452 1.390 . S
C448 C442 1.465 . S
C448 C447 1.396 . S
C448 C449 1.399 . S
C449 H435 0.929 . S
C449 C448 1.399 . S
C449 C450 1.385 . S
C450 H436 0.931 . S
C450 C449 1.385 . S
C450 C451 1.389 . S
C451 C450 1.389 . S
C451 C452 1.387 . S
C452 H437 0.930 . S
C452 C447 1.390 . S
C452 C451 1.387 . S
H453 C465 0.930 . S
H454 C467 0.930 . S
H455 C468 0.930 . S
H456 C472 0.959 . S
H457 C472 0.959 . S
H458 C472 0.961 . S
H459 C473 0.960 . S
H460 C473 0.961 . S
H461 C473 0.959 . S
H462 C476 0.929 . S
H463 C477 0.931 . S
H464 C479 0.930 . S
C465 H453 0.930 . S
C465 C466 1.399 . S
C465 C470 1.399 . S
C466 C465 1.399 . S
C466 C467 1.376 . S
C467 H454 0.930 . S
C467 C466 1.376 . S
C467 C468 1.388 . S
C468 H455 0.930 . S
C468 C467 1.388 . S
C468 C469 1.390 . S
C469 C468 1.390 . S
C469 C470 1.394 . S
C469 C475 1.465 . S
C470 C465 1.399 . S
C470 C469 1.394 . S
C470 C471 1.516 . S
C471 C470 1.516 . S
C471 C472 1.502 . S
C471 C473 1.561 . S
C471 C474 1.526 . S
C472 H456 0.959 . S
C472 H457 0.959 . S
C472 H458 0.961 . S
C472 C471 1.502 . S
C473 H459 0.960 . S
C473 H460 0.961 . S
C473 H461 0.959 . S
C473 C471 1.561 . S
C474 C471 1.526 . S
C474 C475 1.396 . S
C474 C479 1.390 . S
C475 C469 1.465 . S
C475 C474 1.396 . S
C475 C476 1.399 . S
C476 H462 0.929 . S
C476 C475 1.399 . S
C476 C477 1.385 . S
C477 H463 0.931 . S
C477 C476 1.385 . S
C477 C478 1.389 . S
C478 C477 1.389 . S
C478 C479 1.387 . S
C479 H464 0.930 . S
C479 C474 1.390 . S
C479 C478 1.387 . S
H480 C492 0.930 . S
H481 C494 0.930 . S
H482 C495 0.930 . S
H483 C499 0.959 . S
H484 C499 0.959 . S
H485 C499 0.961 . S
H486 C500 0.960 . S
H487 C500 0.961 . S
H488 C500 0.959 . S
H489 C503 0.929 . S
H490 C504 0.931 . S
H491 C506 0.930 . S
C492 H480 0.930 . S
C492 C493 1.399 . S
C492 C497 1.399 . S
C493 C492 1.399 . S
C493 C494 1.376 . S
C494 H481 0.930 . S
C494 C493 1.376 . S
C494 C495 1.388 . S
C495 H482 0.930 . S
C495 C494 1.388 . S
C495 C496 1.390 . S
C496 C495 1.390 . S
C496 C497 1.394 . S
C496 C502 1.465 . S
C497 C492 1.399 . S
C497 C496 1.394 . S
C497 C498 1.516 . S
C498 C497 1.516 . S
C498 C499 1.502 . S
C498 C500 1.561 . S
C498 C501 1.526 . S
C499 H483 0.959 . S
C499 H484 0.959 . S
C499 H485 0.961 . S
C499 C498 1.502 . S
C500 H486 0.960 . S
C500 H487 0.961 . S
C500 H488 0.959 . S
C500 C498 1.561 . S
C501 C498 1.526 . S
C501 C502 1.396 . S
C501 C506 1.390 . S
C502 C496 1.465 . S
C502 C501 1.396 . S
C502 C503 1.399 . S
C503 H489 0.929 . S
C503 C502 1.399 . S
C503 C504 1.385 . S
C504 H490 0.931 . S
C504 C503 1.385 . S
C504 C505 1.389 . S
C505 C504 1.389 . S
C505 C506 1.387 . S
C506 H491 0.930 . S
C506 C501 1.390 . S
C506 C505 1.387 . S
H507 C519 0.930 . S
H508 C521 0.930 . S
H509 C522 0.930 . S
H510 C526 0.959 . S
H511 C526 0.959 1_554 S
H512 C526 0.961 . S
H513 C527 0.960 . S
H514 C527 0.932 1_554 S
H515 C527 0.959 . S
H516 C530 0.929 . S
H517 C531 0.931 . S
H518 C533 0.930 1_554 S
C519 H507 0.930 . S
C519 C520 1.399 . S
C519 C524 1.399 . S
C520 C519 1.399 . S
C520 C521 1.376 . S
C521 H508 0.930 . S
C521 C520 1.376 . S
C521 C522 1.388 . S
C522 H509 0.930 . S
C522 C521 1.388 . S
C522 C523 1.390 . S
C523 C522 1.390 . S
C523 C524 1.394 . S
C523 C529 1.465 . S
C524 C519 1.399 . S
C524 C523 1.394 . S
C524 C525 1.516 . S
C525 C524 1.516 . S
C525 C526 1.502 . S
C525 C527 1.561 . S
C525 C528 1.526 . S
C526 H510 0.959 . S
C526 H511 0.959 1_556 S
C526 H512 0.961 . S
C526 C525 1.502 . S
C527 H513 0.960 . S
C527 H514 0.932 1_556 S
C527 H515 0.959 . S
C527 C525 1.561 . S
C528 C525 1.526 . S
C528 C529 1.396 . S
C528 C533 1.390 . S
C529 C523 1.465 . S
C529 C528 1.396 . S
C529 C530 1.399 . S
C530 H516 0.929 . S
C530 C529 1.399 . S
C530 C531 1.385 . S
C531 H517 0.931 . S
C531 C530 1.385 . S
C531 C532 1.389 . S
C532 C531 1.389 . S
C532 C533 1.387 . S
C533 H518 0.930 1_556 S
C533 C528 1.390 . S
C533 C532 1.387 . S
H534 C546 0.930 . S
H535 C548 0.930 . S
H536 C549 0.930 . S
H537 C553 0.959 . S
H538 C553 0.959 . S
H539 C553 0.961 . S
H540 C554 0.960 . S
H541 C554 0.961 . S
H542 C554 0.959 . S
H543 C557 0.929 1_455 S
H544 C558 0.946 . S
H545 C560 0.930 . S
C546 H534 0.930 . S
C546 C547 1.399 . S
C546 C551 1.399 . S
C547 C546 1.399 . S
C547 C548 1.376 . S
C548 H535 0.930 . S
C548 C547 1.376 . S
C548 C549 1.388 . S
C549 H536 0.930 . S
C549 C548 1.388 . S
C549 C550 1.390 . S
C550 C549 1.390 . S
C550 C551 1.394 . S
C550 C556 1.465 . S
C551 C546 1.399 . S
C551 C550 1.394 . S
C551 C552 1.516 . S
C552 C551 1.516 . S
C552 C553 1.502 . S
C552 C554 1.561 . S
C552 C555 1.526 . S
C553 H537 0.959 . S
C553 H538 0.959 . S
C553 H539 0.961 . S
C553 C552 1.502 . S
C554 H540 0.960 . S
C554 H541 0.961 . S
C554 H542 0.959 . S
C554 C552 1.561 . S
C555 C552 1.526 . S
C555 C556 1.396 . S
C555 C560 1.390 . S
C556 C550 1.465 . S
C556 C555 1.396 . S
C556 C557 1.399 . S
C557 H543 0.929 1_655 S
C557 C556 1.399 . S
C557 C558 1.387 1_655 S
C558 H544 0.946 . S
C558 C557 1.387 1_455 S
C558 C559 1.373 1_455 S
C559 C558 1.373 1_655 S
C559 C560 1.387 . S
C560 H545 0.930 . S
C560 C555 1.390 . S
C560 C559 1.387 . S
H561 C573 0.930 . S
H562 C575 0.930 . S
H563 C576 0.930 . S
H564 C580 0.959 . S
H565 C580 0.959 . S
H566 C580 0.961 . S
H567 C581 0.960 . S
H568 C581 0.961 . S
H569 C581 0.959 . S
H570 C584 0.929 . S
H571 C585 0.931 . S
H572 C587 0.930 . S
C573 H561 0.930 . S
C573 C574 1.399 . S
C573 C578 1.399 . S
C574 C573 1.399 . S
C574 C575 1.376 . S
C575 H562 0.930 . S
C575 C574 1.376 . S
C575 C576 1.388 . S
C576 H563 0.930 . S
C576 C575 1.388 . S
C576 C577 1.390 . S
C577 C576 1.390 . S
C577 C578 1.394 . S
C577 C583 1.465 . S
C578 C573 1.399 . S
C578 C577 1.394 . S
C578 C579 1.516 . S
C579 C578 1.516 . S
C579 C580 1.502 . S
C579 C581 1.561 . S
C579 C582 1.526 . S
C580 H564 0.959 . S
C580 H565 0.959 . S
C580 H566 0.961 . S
C580 C579 1.502 . S
C581 H567 0.960 . S
C581 H568 0.961 . S
C581 H569 0.959 . S
C581 C579 1.561 . S
C582 C579 1.526 . S
C582 C583 1.396 . S
C582 C587 1.390 . S
C583 C577 1.465 . S
C583 C582 1.396 . S
C583 C584 1.399 . S
C584 H570 0.929 . S
C584 C583 1.399 . S
C584 C585 1.385 . S
C585 H571 0.931 . S
C585 C584 1.385 . S
C585 C586 1.389 . S
C586 C585 1.389 . S
C586 C587 1.387 . S
C587 H572 0.930 . S
C587 C582 1.390 . S
C587 C586 1.387 . S
H588 C600 0.930 . S
H589 C602 0.930 . S
H590 C603 0.930 . S
H591 C607 0.959 . S
H592 C607 0.959 . S
H593 C607 0.961 . S
H594 C608 0.960 . S
H595 C608 0.961 . S
H596 C608 0.959 . S
H597 C611 0.929 . S
H598 C612 0.931 . S
H599 C614 0.930 . S
C600 H588 0.930 . S
C600 C601 1.399 . S
C600 C605 1.399 . S
C601 C600 1.399 . S
C601 C602 1.376 . S
C602 H589 0.930 . S
C602 C601 1.376 . S
C602 C603 1.388 . S
C603 H590 0.930 . S
C603 C602 1.388 . S
C603 C604 1.390 . S
C604 C603 1.390 . S
C604 C605 1.394 . S
C604 C610 1.465 . S
C605 C600 1.399 . S
C605 C604 1.394 . S
C605 C606 1.516 . S
C606 C605 1.516 . S
C606 C607 1.502 . S
C606 C608 1.561 . S
C606 C609 1.526 . S
C607 H591 0.959 . S
C607 H592 0.959 . S
C607 H593 0.961 . S
C607 C606 1.502 . S
C608 H594 0.960 . S
C608 H595 0.961 . S
C608 H596 0.959 . S
C608 C606 1.561 . S
C609 C606 1.526 . S
C609 C610 1.396 . S
C609 C614 1.390 . S
C610 C604 1.465 . S
C610 C609 1.396 . S
C610 C611 1.399 . S
C611 H597 0.929 . S
C611 C610 1.399 . S
C611 C612 1.385 . S
C612 H598 0.931 . S
C612 C611 1.385 . S
C612 C613 1.389 . S
C613 C612 1.389 . S
C613 C614 1.387 . S
C614 H599 0.930 . S
C614 C609 1.390 . S
C614 C613 1.387 . S
H615 C627 0.930 . S
H616 C629 0.930 . S
H617 C630 0.930 . S
H618 C634 0.959 . S
H619 C634 0.959 . S
H620 C634 0.961 . S
H621 C635 0.960 . S
H622 C635 0.961 . S
H623 C635 0.959 . S
H624 C638 0.929 . S
H625 C639 0.931 . S
H626 C641 0.930 . S
C627 H615 0.930 . S
C627 C628 1.399 . S
C627 C632 1.399 . S
C628 C627 1.399 . S
C628 C629 1.376 . S
C629 H616 0.930 . S
C629 C628 1.376 . S
C629 C630 1.388 . S
C630 H617 0.930 . S
C630 C629 1.388 . S
C630 C631 1.390 . S
C631 C630 1.390 . S
C631 C632 1.394 . S
C631 C637 1.465 . S
C632 C627 1.399 . S
C632 C631 1.394 . S
C632 C633 1.516 . S
C633 C632 1.516 . S
C633 C634 1.502 . S
C633 C635 1.561 . S
C633 C636 1.526 . S
C634 H618 0.959 . S
C634 H619 0.959 . S
C634 H620 0.961 . S
C634 C633 1.502 . S
C635 H621 0.960 . S
C635 H622 0.961 . S
C635 H623 0.959 . S
C635 C633 1.561 . S
C636 C633 1.526 . S
C636 C637 1.396 . S
C636 C641 1.390 . S
C637 C631 1.465 . S
C637 C636 1.396 . S
C637 C638 1.399 . S
C638 H624 0.929 . S
C638 C637 1.399 . S
C638 C639 1.385 . S
C639 H625 0.931 . S
C639 C638 1.385 . S
C639 C640 1.389 . S
C640 C639 1.389 . S
C640 C641 1.387 . S
C641 H626 0.930 . S
C641 C636 1.390 . S
C641 C640 1.387 . S
H642 C654 0.930 . S
H643 C656 0.930 . S
H644 C657 0.930 . S
H645 C661 0.959 . S
H646 C661 0.959 . S
H647 C661 0.961 . S
H648 C662 0.960 . S
H649 C662 0.961 . S
H650 C662 0.959 . S
H651 C665 0.929 . S
H652 C666 0.931 . S
H653 C668 0.930 . S
C654 H642 0.930 . S
C654 C655 1.399 . S
C654 C659 1.399 . S
C655 C654 1.399 . S
C655 C656 1.376 . S
C656 H643 0.930 . S
C656 C655 1.376 . S
C656 C657 1.388 . S
C657 H644 0.930 . S
C657 C656 1.388 . S
C657 C658 1.390 . S
C658 C657 1.390 . S
C658 C659 1.394 . S
C658 C664 1.465 . S
C659 C654 1.399 . S
C659 C658 1.394 . S
C659 C660 1.516 . S
C660 C659 1.516 . S
C660 C661 1.502 . S
C660 C662 1.561 . S
C660 C663 1.526 . S
C661 H645 0.959 . S
C661 H646 0.959 . S
C661 H647 0.961 . S
C661 C660 1.502 . S
C662 H648 0.960 . S
C662 H649 0.961 . S
C662 H650 0.959 . S
C662 C660 1.561 . S
C663 C660 1.526 . S
C663 C664 1.396 . S
C663 C668 1.390 . S
C664 C658 1.465 . S
C664 C663 1.396 . S
C664 C665 1.399 . S
C665 H651 0.929 . S
C665 C664 1.399 . S
C665 C666 1.385 . S
C666 H652 0.931 . S
C666 C665 1.385 . S
C666 C667 1.389 . S
C667 C666 1.389 . S
C667 C668 1.387 . S
C668 H653 0.930 . S
C668 C663 1.390 . S
C668 C667 1.387 . S
H669 C681 0.930 . S
H670 C683 0.930 . S
H671 C684 0.930 . S
H672 C688 0.959 . S
H673 C688 0.959 . S
H674 C688 0.961 . S
H675 C689 0.960 . S
H676 C689 0.961 . S
H677 C689 0.959 . S
H678 C692 0.929 . S
H679 C693 0.931 . S
H680 C695 0.930 . S
C681 H669 0.930 . S
C681 C682 1.399 . S
C681 C686 1.399 . S
C682 C681 1.399 . S
C682 C683 1.376 . S
C683 H670 0.930 . S
C683 C682 1.376 . S
C683 C684 1.388 . S
C684 H671 0.930 . S
C684 C683 1.388 . S
C684 C685 1.390 . S
C685 C684 1.390 . S
C685 C686 1.394 . S
C685 C691 1.465 . S
C686 C681 1.399 . S
C686 C685 1.394 . S
C686 C687 1.516 . S
C687 C686 1.516 . S
C687 C688 1.502 . S
C687 C689 1.561 . S
C687 C690 1.526 . S
C688 H672 0.959 . S
C688 H673 0.959 . S
C688 H674 0.961 . S
C688 C687 1.502 . S
C689 H675 0.960 . S
C689 H676 0.961 . S
C689 H677 0.959 . S
C689 C687 1.561 . S
C690 C687 1.526 . S
C690 C691 1.396 . S
C690 C695 1.390 . S
C691 C685 1.465 . S
C691 C690 1.396 . S
C691 C692 1.399 . S
C692 H678 0.929 . S
C692 C691 1.399 . S
C692 C693 1.385 . S
C693 H679 0.931 . S
C693 C692 1.385 . S
C693 C694 1.389 . S
C694 C693 1.389 . S
C694 C695 1.387 . S
C695 H680 0.930 . S
C695 C690 1.390 . S
C695 C694 1.387 . S
H696 C708 0.930 . S
H697 C710 0.930 . S
H698 C711 0.930 . S
H699 C715 0.959 . S
H700 C715 0.959 . S
H701 C715 0.961 . S
H702 C716 0.960 . S
H703 C716 0.961 . S
H704 C716 0.959 . S
H705 C719 0.929 . S
H706 C720 0.931 1_545 S
H707 C722 0.930 . S
C708 H696 0.930 . S
C708 C709 1.399 . S
C708 C713 1.399 . S
C709 C708 1.399 . S
C709 C710 1.376 . S
C710 H697 0.930 . S
C710 C709 1.376 . S
C710 C711 1.388 . S
C711 H698 0.930 . S
C711 C710 1.388 . S
C711 C712 1.390 . S
C712 C711 1.390 . S
C712 C713 1.394 . S
C712 C718 1.465 . S
C713 C708 1.399 . S
C713 C712 1.394 . S
C713 C714 1.516 . S
C714 C713 1.516 . S
C714 C715 1.502 . S
C714 C716 1.561 1_556 S
C714 C717 1.526 . S
C715 H699 0.959 . S
C715 H700 0.959 . S
C715 H701 0.961 . S
C715 C714 1.502 . S
C716 H702 0.960 . S
C716 H703 0.961 . S
C716 H704 0.959 . S
C716 C714 1.561 1_554 S
C717 C714 1.526 . S
C717 C718 1.396 . S
C717 C722 1.390 1_556 S
C718 C712 1.465 . S
C718 C717 1.396 . S
C718 C719 1.399 . S
C719 H705 0.929 . S
C719 C718 1.399 . S
C719 C720 1.385 . S
C720 H706 0.931 1_565 S
C720 C719 1.385 . S
C720 C721 1.389 1_556 S
C721 C720 1.389 1_554 S
C721 C722 1.387 . S
C722 H707 0.930 . S
C722 C717 1.390 1_554 S
C722 C721 1.387 . S
H723 C735 0.930 . S
H724 C737 0.930 . S
H725 C738 0.930 . S
H726 C742 0.959 . S
H727 C742 0.959 . S
H728 C742 0.961 . S
H729 C743 0.960 . S
H730 C743 0.961 . S
H731 C743 0.959 . S
H732 C746 0.929 . S
H733 C747 0.931 . S
H734 C749 0.930 1_455 S
C735 H723 0.930 . S
C735 C736 1.399 . S
C735 C740 1.399 . S
C736 C735 1.399 . S
C736 C737 1.376 . S
C737 H724 0.930 . S
C737 C736 1.376 . S
C737 C738 1.388 . S
C738 H725 0.930 . S
C738 C737 1.388 . S
C738 C739 1.390 . S
C739 C738 1.390 . S
C739 C740 1.394 . S
C739 C745 1.465 . S
C740 C735 1.399 . S
C740 C739 1.394 . S
C740 C741 1.516 . S
C741 C740 1.516 . S
C741 C742 1.502 1_655 S
C741 C743 1.561 . S
C741 C744 1.526 . S
C742 H726 0.959 . S
C742 H727 0.959 . S
C742 H728 0.961 . S
C742 C741 1.502 1_455 S
C743 H729 0.960 . S
C743 H730 0.961 . S
C743 H731 0.959 . S
C743 C741 1.561 . S
C744 C741 1.526 . S
C744 C745 1.396 . S
C744 C749 1.390 . S
C745 C739 1.465 . S
C745 C744 1.396 . S
C745 C746 1.399 . S
C746 H732 0.929 . S
C746 C745 1.399 . S
C746 C747 1.385 . S
C747 H733 0.931 . S
C747 C746 1.385 . S
C747 C748 1.389 . S
C748 C747 1.389 . S
C748 C749 1.387 . S
C749 H734 0.930 1_655 S
C749 C744 1.390 . S
C749 C748 1.387 . S
H750 C762 0.930 . S
H751 C764 0.930 . S
H752 C765 0.930 . S
H753 C769 0.959 . S
H754 C769 0.959 . S
H755 C769 0.961 . S
H756 C770 0.960 . S
H757 C770 0.961 . S
H758 C770 0.959 . S
H759 C773 0.929 . S
H760 C774 0.931 . S
H761 C776 0.930 . S
C762 H750 0.930 . S
C762 C763 1.399 . S
C762 C767 1.399 . S
C763 C762 1.399 . S
C763 C764 1.376 . S
C764 H751 0.930 . S
C764 C763 1.376 . S
C764 C765 1.388 . S
C765 H752 0.930 . S
C765 C764 1.388 . S
C765 C766 1.390 . S
C766 C765 1.390 . S
C766 C767 1.394 . S
C766 C772 1.465 . S
C767 C762 1.399 . S
C767 C766 1.394 . S
C767 C768 1.516 . S
C768 C767 1.516 . S
C768 C769 1.502 . S
C768 C770 1.561 . S
C768 C771 1.526 . S
C769 H753 0.959 . S
C769 H754 0.959 . S
C769 H755 0.961 . S
C769 C768 1.502 . S
C770 H756 0.960 . S
C770 H757 0.961 . S
C770 H758 0.959 . S
C770 C768 1.561 . S
C771 C768 1.526 . S
C771 C772 1.396 . S
C771 C776 1.390 . S
C772 C766 1.465 . S
C772 C771 1.396 . S
C772 C773 1.399 . S
C773 H759 0.929 . S
C773 C772 1.399 . S
C773 C774 1.385 . S
C774 H760 0.931 . S
C774 C773 1.385 . S
C774 C775 1.389 . S
C775 C774 1.389 . S
C775 C776 1.387 . S
C776 H761 0.930 . S
C776 C771 1.390 . S
C776 C775 1.387 . S
H777 C789 0.930 . S
H778 C791 0.930 . S
H779 C792 0.930 . S
H780 C796 0.959 . S
H781 C796 0.959 . S
H782 C796 0.961 . S
H783 C797 0.960 . S
H784 C797 0.961 . S
H785 C797 0.959 . S
H786 C800 0.929 . S
H787 C801 0.931 . S
H788 C803 0.930 . S
C789 H777 0.930 . S
C789 C790 1.399 . S
C789 C794 1.399 . S
C790 C789 1.399 . S
C790 C791 1.376 . S
C791 H778 0.930 . S
C791 C790 1.376 . S
C791 C792 1.388 . S
C792 H779 0.930 . S
C792 C791 1.388 . S
C792 C793 1.390 . S
C793 C792 1.390 . S
C793 C794 1.394 . S
C793 C799 1.465 . S
C794 C789 1.399 . S
C794 C793 1.394 . S
C794 C795 1.516 . S
C795 C794 1.516 . S
C795 C796 1.502 . S
C795 C797 1.561 . S
C795 C798 1.526 . S
C796 H780 0.959 . S
C796 H781 0.959 . S
C796 H782 0.961 . S
C796 C795 1.502 . S
C797 H783 0.960 . S
C797 H784 0.961 . S
C797 H785 0.959 . S
C797 C795 1.561 . S
C798 C795 1.526 . S
C798 C799 1.396 . S
C798 C803 1.390 . S
C799 C793 1.465 . S
C799 C798 1.396 . S
C799 C800 1.399 . S
C800 H786 0.929 . S
C800 C799 1.399 . S
C800 C801 1.385 . S
C801 H787 0.931 . S
C801 C800 1.385 . S
C801 C802 1.389 . S
C802 C801 1.389 . S
C802 C803 1.387 . S
C803 H788 0.930 . S
C803 C798 1.390 . S
C803 C802 1.387 . S
H804 C816 0.930 . S
H805 C818 0.930 . S
H806 C819 0.930 . S
H807 C823 0.959 . S
H808 C823 0.959 . S
H809 C823 0.961 . S
H810 C824 0.960 . S
H811 C824 0.966 . S
H812 C824 0.959 . S
H813 C827 0.929 . S
H814 C828 0.931 . S
H815 C830 0.930 . S
C816 H804 0.930 . S
C816 C817 1.399 . S
C816 C821 1.399 . S
C817 C816 1.399 . S
C817 C818 1.376 . S
C818 H805 0.930 . S
C818 C817 1.376 . S
C818 C819 1.388 . S
C819 H806 0.930 . S
C819 C818 1.388 . S
C819 C820 1.390 . S
C820 C819 1.390 . S
C820 C821 1.394 . S
C820 C826 1.465 . S
C821 C816 1.399 . S
C821 C820 1.394 . S
C821 C822 1.516 . S
C822 C821 1.516 . S
C822 C823 1.502 . S
C822 C824 1.561 . S
C822 C825 1.526 . S
C823 H807 0.959 . S
C823 H808 0.959 . S
C823 H809 0.961 . S
C823 C822 1.502 . S
C824 H810 0.960 . S
C824 H811 0.966 . S
C824 H812 0.959 . S
C824 C822 1.561 . S
C825 C822 1.526 . S
C825 C826 1.396 . S
C825 C830 1.390 . S
C826 C820 1.465 . S
C826 C825 1.396 . S
C826 C827 1.399 . S
C827 H813 0.929 . S
C827 C826 1.399 . S
C827 C828 1.385 . S
C828 H814 0.931 . S
C828 C827 1.385 . S
C828 C829 1.389 . S
C829 C828 1.389 . S
C829 C830 1.387 . S
C830 H815 0.930 . S
C830 C825 1.390 . S
C830 C829 1.387 . S
H831 C843 0.930 . S
H832 C845 0.930 . S
H833 C846 0.930 . S
H834 C850 0.959 . S
H835 C850 0.959 . S
H836 C850 0.961 . S
H837 C851 0.960 . S
H838 C851 0.961 . S
H839 C851 0.959 . S
H840 C854 0.929 . S
H841 C855 0.931 . S
H842 C857 0.930 . S
C843 H831 0.930 . S
C843 C844 1.399 . S
C843 C848 1.399 . S
C844 C843 1.399 . S
C844 C845 1.376 . S
C845 H832 0.930 . S
C845 C844 1.376 . S
C845 C846 1.388 . S
C846 H833 0.930 . S
C846 C845 1.388 . S
C846 C847 1.390 . S
C847 C846 1.390 . S
C847 C848 1.394 . S
C847 C853 1.465 . S
C848 C843 1.399 . S
C848 C847 1.394 . S
C848 C849 1.516 . S
C849 C848 1.516 . S
C849 C850 1.502 . S
C849 C851 1.561 . S
C849 C852 1.526 . S
C850 H834 0.959 . S
C850 H835 0.959 . S
C850 H836 0.961 . S
C850 C849 1.502 . S
C851 H837 0.960 . S
C851 H838 0.961 . S
C851 H839 0.959 . S
C851 C849 1.561 . S
C852 C849 1.526 . S
C852 C853 1.396 . S
C852 C857 1.390 . S
C853 C847 1.465 . S
C853 C852 1.396 . S
C853 C854 1.399 . S
C854 H840 0.929 . S
C854 C853 1.399 . S
C854 C855 1.385 . S
C855 H841 0.931 . S
C855 C854 1.385 . S
C855 C856 1.389 . S
C856 C855 1.389 . S
C856 C857 1.387 . S
C857 H842 0.930 . S
C857 C852 1.390 . S
C857 C856 1.387 . S
H858 C870 0.930 . S
H859 C872 0.930 . S
H860 C873 0.930 . S
H861 C877 0.959 . S
H862 C877 0.959 . S
H863 C877 0.961 . S
H864 C878 0.960 . S
H865 C878 0.961 . S
H866 C878 0.959 . S
H867 C881 0.929 . S
H868 C882 0.931 . S
H869 C884 0.930 . S
C870 H858 0.930 . S
C870 C871 1.399 . S
C870 C875 1.399 . S
C871 C870 1.399 . S
C871 C872 1.376 . S
C872 H859 0.930 . S
C872 C871 1.376 . S
C872 C873 1.388 . S
C873 H860 0.930 . S
C873 C872 1.388 . S
C873 C874 1.390 . S
C874 C873 1.390 . S
C874 C875 1.394 . S
C874 C880 1.465 . S
C875 C870 1.399 . S
C875 C874 1.394 . S
C875 C876 1.516 . S
C876 C875 1.516 . S
C876 C877 1.502 . S
C876 C878 1.561 . S
C876 C879 1.526 . S
C877 H861 0.959 . S
C877 H862 0.959 . S
C877 H863 0.961 . S
C877 C876 1.502 . S
C878 H864 0.960 . S
C878 H865 0.961 . S
C878 H866 0.959 . S
C878 C876 1.561 . S
C879 C876 1.526 . S
C879 C880 1.396 . S
C879 C884 1.390 . S
C880 C874 1.465 . S
C880 C879 1.396 . S
C880 C881 1.399 . S
C881 H867 0.929 . S
C881 C880 1.399 . S
C881 C882 1.385 . S
C882 H868 0.931 . S
C882 C881 1.385 . S
C882 C883 1.389 . S
C883 C882 1.389 . S
C883 C884 1.387 . S
C884 H869 0.930 . S
C884 C879 1.390 . S
C884 C883 1.387 . S
H885 C897 0.930 . S
H886 C899 0.930 . S
H887 C900 0.930 . S
H888 C904 0.959 . S
H889 C904 0.959 . S
H890 C904 0.961 . S
H891 C905 0.960 . S
H892 C905 0.961 . S
H893 C905 0.959 . S
H894 C908 0.929 . S
H895 C909 0.931 . S
H896 C911 0.930 . S
C897 H885 0.930 . S
C897 C898 1.399 . S
C897 C902 1.399 . S
C898 C897 1.399 . S
C898 C899 1.376 . S
C899 H886 0.930 . S
C899 C898 1.376 . S
C899 C900 1.388 . S
C900 H887 0.930 . S
C900 C899 1.388 . S
C900 C901 1.390 . S
C901 C900 1.390 . S
C901 C902 1.394 . S
C901 C907 1.465 . S
C902 C897 1.399 . S
C902 C901 1.394 . S
C902 C903 1.516 . S
C903 C902 1.516 . S
C903 C904 1.502 . S
C903 C905 1.561 . S
C903 C906 1.526 . S
C904 H888 0.959 . S
C904 H889 0.959 . S
C904 H890 0.961 . S
C904 C903 1.502 . S
C905 H891 0.960 . S
C905 H892 0.961 . S
C905 H893 0.959 . S
C905 C903 1.561 . S
C906 C903 1.526 . S
C906 C907 1.396 . S
C906 C911 1.390 . S
C907 C901 1.465 . S
C907 C906 1.396 . S
C907 C908 1.399 . S
C908 H894 0.929 . S
C908 C907 1.399 . S
C908 C909 1.385 . S
C909 H895 0.931 . S
C909 C908 1.385 . S
C909 C910 1.389 . S
C910 C909 1.389 . S
C910 C911 1.387 . S
C911 H896 0.930 . S
C911 C906 1.390 . S
C911 C910 1.387 . S
C277 N1 1.060 . S
C289 C119 1.097 . S
C304 N18 1.133 . S
C316 C159 1.096 . S
C343 C193 1.841 . S
C331 N28 1.876 . S
C358 N40 2.817 . S
C370 C234 2.803 . S
C397 C154 1.687 . S
C385 N5 1.678 . S
C424 C114 1.767 . S
C412 N14 1.631 . S
C451 C242 1.707 . S
C439 N31 1.667 . S
C478 C203 1.538 . S
C466 N41 1.618 . S
C493 N2 1.093 . S
C505 C239 1.093 . S
C532 C162 2.184 1_556 S
C520 N27 2.239 . S
C547 N44 2.512 . S
C559 C122 2.501 1_655 S
C574 N15 1.157 . S
C586 C190 1.205 . S
C613 C110 1.663 . S
C601 N57 1.660 . S
C628 N70 0.858 . S
C640 C150 0.946 . S
C655 N79 2.109 . S
C667 C202 2.186 . S
C682 N93 2.560 . S
C694 C243 2.465 . S
C709 N54 1.240 . S
C721 C163 1.305 . S
C748 C123 2.343 1_655 S
C736 N66 2.314 . S
C775 C233 1.218 . S
C763 N80 1.195 . S
C802 C194 1.733 . S
C790 N96 1.823 . S
C817 N53 1.274 . S
C829 C230 1.212 . S
C856 C153 1.752 . S
C844 N83 1.669 . S
C883 C113 2.480 . S
C871 N92 2.621 . S
C898 N67 1.477 . S
C910 C199 1.453 . S
