# Generated by pormake.
# Topology rtl, (3,6)-cn, num edge types: 1
# Building blocks:
#     Node 0, Type 0, BuildingBlock: VETTIZ_charged_linker_0, # of connection points: 3
#     Node 1, Type 0, BuildingBlock: VETTIZ_charged_linker_0, # of connection points: 3
#     Node 2, Type 0, BuildingBlock: VETTIZ_charged_linker_0, # of connection points: 3
#     Node 3, Type 0, BuildingBlock: VETTIZ_charged_linker_0, # of connection points: 3
#     Node 4, Type 1, BuildingBlock: KUMBOL_clean_sbu_1, # of connection points: 6
#     Node 5, Type 1, BuildingBlock: KUMBOL_clean_sbu_1, # of connection points: 6
#     Edge 6, Type (0, 1), BuildingBlock: EZIPEK_clean_linker_0, # of connection points: 2
#     Edge 7, Type (0, 1), BuildingBlock: EZIPEK_clean_linker_0, # of connection points: 2
#     Edge 8, Type (0, 1), BuildingBlock: EZIPEK_clean_linker_0, # of connection points: 2
#     Edge 9, Type (0, 1), BuildingBlock: EZIPEK_clean_linker_0, # of connection points: 2
#     Edge 10, Type (0, 1), BuildingBlock: EZIPEK_clean_linker_0, # of connection points: 2
#     Edge 11, Type (0, 1), BuildingBlock: EZIPEK_clean_linker_0, # of connection points: 2
#     Edge 12, Type (0, 1), BuildingBlock: EZIPEK_clean_linker_0, # of connection points: 2
#     Edge 13, Type (0, 1), BuildingBlock: EZIPEK_clean_linker_0, # of connection points: 2
#     Edge 14, Type (0, 1), BuildingBlock: EZIPEK_clean_linker_0, # of connection points: 2
#     Edge 15, Type (0, 1), BuildingBlock: EZIPEK_clean_linker_0, # of connection points: 2
#     Edge 16, Type (0, 1), BuildingBlock: EZIPEK_clean_linker_0, # of connection points: 2
#     Edge 17, Type (0, 1), BuildingBlock: EZIPEK_clean_linker_0, # of connection points: 2
# Relax obj value: 0.018
# Max RMSD: 0.114
# Mean RMSD: 0.067
data_MOF--net-rtl--node1-KUMBOL_clean_sbu_1--node2-VETTIZ_charged_linker_0--edge1-EZIPEK_clean_linker_0
_symmetry_space_group_name_H-M    P1
_symmetry_Int_Tables_number       1
_symmetry_cell_setting            triclinic
loop_
_symmetry_equiv_pos_as_xyz
'x, y, z'
_cell_length_a     30.788648
_cell_length_b     31.573632
_cell_length_c     28.060668
_cell_angle_alpha  77.094292
_cell_angle_beta   98.871343
_cell_angle_gamma 90.497963
loop_
_atom_site_label
_atom_site_type_symbol
_atom_site_fract_x
_atom_site_fract_y
_atom_site_fract_z
_atom_type_partial_charge
C0 C 0.20473 0.92562 0.84333 0.0
C1 C 0.16301 0.9463 0.82955 0.0
C2 C 0.14201 0.95776 0.86628 0.0
C3 C 0.20125 0.92342 0.92993 0.0
C4 C 0.22237 0.91296 0.89383 0.0
C5 C 0.26177 0.88315 0.91583 0.0
H6 H 0.34865 0.72516 0.10549 0.0
C7 C 0.22543 0.90173 0.9789 0.0
C8 C 0.26053 0.87741 0.97101 0.0
H9 H 0.38982 0.7642 0.96195 0.0
H10 H 0.34579 0.83063 0.94454 0.0
H11 H 0.36821 0.82289 0.12276 0.0
H12 H 0.24753 0.75915 0.08678 0.0
H13 H 0.24579 0.78409 0.13739 0.0
H14 H 0.28666 0.7427 0.14259 0.0
H15 H 0.33948 0.79372 0.17021 0.0
H16 H 0.32716 0.8505 0.14208 0.0
C17 C 0.30353 0.90664 0.90055 0.0
C18 C 0.25327 0.84032 0.89803 0.0
C19 C 0.17102 0.91968 0.13567 0.0
C20 C 0.18455 0.90094 0.18603 0.0
C21 C 0.22049 0.87112 0.20014 0.0
C22 C 0.24212 0.85936 0.16425 0.0
C23 C 0.22756 0.87758 0.11385 0.0
C24 C 0.19304 0.90775 0.10033 0.0
C25 C 0.18189 0.92346 0.04506 0.0
C26 C 0.21708 0.89968 0.02779 0.0
C27 C 0.24296 0.87203 0.06816 0.0
C28 C 0.18734 0.97326 0.03183 0.0
C29 C 0.13486 0.90852 0.02839 0.0
C30 C 0.34806 0.74808 0.07035 0.0
C31 C 0.37068 0.73847 0.03385 0.0
C32 C 0.37125 0.77018 0.98971 0.0
C33 C 0.34556 0.8084 0.97951 0.0
C34 C 0.31951 0.81524 0.01402 0.0
C35 C 0.32395 0.78749 0.06019 0.0
C36 C 0.3004 0.80533 0.09513 0.0
C37 C 0.27613 0.84472 0.05989 0.0
C38 C 0.28646 0.84927 0.01199 0.0
C39 C 0.33537 0.81864 0.13485 0.0
C40 C 0.26836 0.77106 0.11689 0.0
H41 H 0.14335 0.95647 0.94222 0.0
H42 H 0.2217 0.91696 0.81567 0.0
H43 H 0.22045 0.82778 0.90519 0.0
H44 H 0.27722 0.81398 0.91645 0.0
H45 H 0.25383 0.8457 0.85763 0.0
H46 H 0.29896 0.94259 0.89285 0.0
H47 H 0.31204 0.89829 0.86663 0.0
H48 H 0.33218 0.89909 0.93047 0.0
H49 H 0.14326 0.94246 0.12408 0.0
H50 H 0.23117 0.85639 0.23889 0.0
H51 H 0.26874 0.83591 0.1769 0.0
H52 H 0.21886 0.98226 0.05191 0.0
H53 H 0.16016 0.99033 0.0424 0.0
H54 H 0.18843 0.98615 0.99209 0.0
H55 H 0.12428 0.88149 0.05673 0.0
H56 H 0.13277 0.89524 0.99478 0.0
H57 H 0.11019 0.93553 0.02149 0.0
H58 H 0.11014 0.97436 0.85632 0.0
C59 C 0.16117 0.94705 0.91616 0.0
C60 C 0.62295 0.67613 0.78797 0.0
C61 C 0.6018 0.63586 0.79868 0.0
C62 C 0.59692 0.61048 0.76272 0.0
C63 C 0.62842 0.66644 0.70562 0.0
C64 C 0.63824 0.68943 0.74223 0.0
C65 C 0.67021 0.72506 0.7281 0.0
H66 H 0.79073 0.8295 0.5539 0.0
C67 C 0.64752 0.68852 0.6621 0.0
C68 C 0.67365 0.72205 0.67526 0.0
H69 H 0.80141 0.84181 0.70521 0.0
H70 H 0.7405 0.79267 0.71798 0.0
H71 H 0.78134 0.72939 0.57338 0.0
H72 H 0.6849 0.83375 0.53343 0.0
H73 H 0.66278 0.7938 0.50291 0.0
H74 H 0.71375 0.8186 0.48869 0.0
H75 H 0.77073 0.76456 0.5128 0.0
H76 H 0.74047 0.71573 0.52885 0.0
C77 C 0.71446 0.71319 0.76342 0.0
C78 C 0.64988 0.76915 0.72957 0.0
C79 C 0.60266 0.64426 0.49801 0.0
C80 C 0.61751 0.65725 0.45215 0.0
C81 C 0.64523 0.69294 0.44424 0.0
C82 C 0.66028 0.71383 0.48238 0.0
C83 C 0.64809 0.69842 0.52928 0.0
C84 C 0.61905 0.66477 0.53636 0.0
C85 C 0.61258 0.65069 0.58966 0.0
C86 C 0.64106 0.68287 0.61272 0.0
C87 C 0.66209 0.71017 0.57726 0.0
C88 C 0.63029 0.60307 0.60993 0.0
C89 C 0.56334 0.65691 0.59227 0.0
C90 C 0.7801 0.82122 0.58983 0.0
C91 C 0.80102 0.83849 0.62888 0.0
C92 C 0.786 0.82794 0.67501 0.0
C93 C 0.75101 0.79939 0.68236 0.0
C94 C 0.73136 0.781 0.64327 0.0
C95 C 0.74564 0.79267 0.5978 0.0
C96 C 0.72112 0.77051 0.56025 0.0
C97 C 0.69155 0.74161 0.5912 0.0
C98 C 0.69722 0.74791 0.63982 0.0
C99 C 0.75488 0.74379 0.54237 0.0
C100 C 0.69439 0.80574 0.51883 0.0
H101 H 0.60201 0.60596 0.68997 0.0
H102 H 0.6285 0.6962 0.81485 0.0
H103 H 0.616 0.7735 0.70831 0.0
H104 H 0.66886 0.79689 0.71289 0.0
H105 H 0.64796 0.77103 0.76826 0.0
H106 H 0.71888 0.67743 0.77775 0.0
H107 H 0.71626 0.72819 0.7959 0.0
H108 H 0.74325 0.72272 0.74472 0.0
H109 H 0.58159 0.6166 0.5049 0.0
H110 H 0.6567 0.70349 0.40896 0.0
H111 H 0.68239 0.73996 0.47435 0.0
H112 H 0.6505 0.59222 0.58504 0.0
H113 H 0.603 0.57999 0.61457 0.0
H114 H 0.65266 0.59911 0.64572 0.0
H115 H 0.5518 0.6907 0.57367 0.0
H116 H 0.55644 0.6512 0.63059 0.0
H117 H 0.54313 0.63431 0.57343 0.0
H118 H 0.58276 0.57859 0.77025 0.0
C119 C 0.60847 0.62619 0.71599 0.0
C120 C 0.82213 0.08834 0.25129 0.0
C121 C 0.85786 0.05858 0.26346 0.0
C122 C 0.87237 0.04193 0.22594 0.0
C123 C 0.81751 0.08698 0.16444 0.0
C124 C 0.80316 0.10274 0.20166 0.0
C125 C 0.76968 0.13923 0.18181 0.0
H126 H 0.64386 0.27115 0.9869 0.0
C127 C 0.79221 0.11042 0.11669 0.0
C128 C 0.76403 0.14089 0.12671 0.0
H129 H 0.66697 0.27982 0.14022 0.0
H130 H 0.7123 0.21475 0.16175 0.0
H131 H 0.74999 0.2489 0.98575 0.0
H132 H 0.6375 0.16746 1.00376 0.0
H133 H 0.67092 0.14493 0.96984 0.0
H134 H 0.64576 0.1983 0.94401 0.0
H135 H 0.70201 0.25297 0.93934 0.0
H136 H 0.74517 0.21401 0.94418 0.0
C137 C 0.79004 0.18132 0.19472 0.0
C138 C 0.72696 0.12576 0.20326 0.0
C139 C 0.82901 0.08676 0.95428 0.0
C140 C 0.81024 0.10337 0.90475 0.0
C141 C 0.76935 0.12594 0.89427 0.0
C142 C 0.74992 0.13604 0.93252 0.0
C143 C 0.77142 0.12301 0.98159 0.0
C144 C 0.80865 0.09635 0.99209 0.0
C145 C 0.82437 0.08201 0.04683 0.0
C146 C 0.79256 0.10726 0.06706 0.0
C147 C 0.76235 0.13224 0.02849 0.0
C148 C 0.87235 0.09658 0.05788 0.0
C149 C 0.81844 0.0323 0.06231 0.0
C150 C 0.65918 0.25902 0.02493 0.0
C151 C 0.65208 0.28065 0.06192 0.0
C152 C 0.67224 0.26383 0.11111 0.0
C153 C 0.69875 0.22612 0.12353 0.0
C154 C 0.70664 0.20547 0.08624 0.0
C155 C 0.68742 0.22207 0.03778 0.0
C156 C 0.70255 0.19738 1.00286 0.0
C157 C 0.73427 0.16368 0.03849 0.0
C158 C 0.73579 0.16832 0.0873 0.0
C159 C 0.72609 0.22974 0.96578 0.0
C160 C 0.66223 0.17603 0.97837 0.0
H161 H 0.86496 0.04235 0.14938 0.0
H162 H 0.8113 0.10238 0.27948 0.0
H163 H 0.71879 0.09185 0.20075 0.0
H164 H 0.69807 0.1461 0.18294 0.0
H165 H 0.73075 0.12725 0.24286 0.0
H166 H 0.82651 0.17852 0.20426 0.0
H167 H 0.77736 0.189 0.22689 0.0
H168 H 0.78397 0.20976 0.16302 0.0
H169 H 0.85984 0.06832 0.96323 0.0
H170 H 0.75397 0.13808 0.85625 0.0
H171 H 0.71974 0.15487 0.92238 0.0
H172 H 0.87656 0.12967 0.03527 0.0
H173 H 0.89586 0.07408 0.04902 0.0
H174 H 0.8822 0.09904 0.09664 0.0
H175 H 0.78921 0.02196 0.03944 0.0
H176 H 0.81211 0.02162 0.10082 0.0
H177 H 0.84756 0.01405 0.05756 0.0
H178 H 0.9002 0.01926 0.23482 0.0
C179 C 0.852 0.05557 0.1765 0.0
C180 C 0.37422 0.34571 0.30917 0.0
C181 C 0.40494 0.37888 0.30175 0.0
C182 C 0.42683 0.39363 0.34248 0.0
C183 C 0.38697 0.34318 0.39733 0.0
C184 C 0.36569 0.32833 0.35731 0.0
C185 C 0.33393 0.29301 0.37254 0.0
H186 H 0.21719 0.19181 0.55022 0.0
C187 C 0.36971 0.32003 0.44195 0.0
C188 C 0.33801 0.29095 0.42778 0.0
H189 H 0.21396 0.16551 0.40524 0.0
H190 H 0.27121 0.21788 0.38853 0.0
H191 H 0.31896 0.18079 0.57238 0.0
H192 H 0.23328 0.29381 0.52702 0.0
H193 H 0.27504 0.30416 0.57297 0.0
H194 H 0.23966 0.25889 0.5878 0.0
H195 H 0.29283 0.20123 0.61581 0.0
H196 H 0.34591 0.2197 0.60113 0.0
C197 C 0.35061 0.25033 0.36225 0.0
C198 C 0.28748 0.30815 0.34456 0.0
C199 C 0.42563 0.35657 0.60823 0.0
C200 C 0.41465 0.34219 0.65642 0.0
C201 C 0.37876 0.31375 0.66114 0.0
C202 C 0.35739 0.29782 0.62135 0.0
C203 C 0.37063 0.3109 0.57492 0.0
C204 C 0.40396 0.34 0.56878 0.0
C205 C 0.41176 0.35218 0.51577 0.0
C206 C 0.37848 0.32429 0.49182 0.0
C207 C 0.3544 0.30049 0.52667 0.0
C208 C 0.45959 0.33833 0.51434 0.0
C209 C 0.40109 0.40152 0.49571 0.0
C210 C 0.22853 0.1976 0.51468 0.0
C211 C 0.21041 0.17536 0.47861 0.0
C212 C 0.22696 0.18291 0.43328 0.0
C213 C 0.2602 0.21313 0.42377 0.0
C214 C 0.27792 0.23512 0.46049 0.0
C215 C 0.26293 0.22587 0.50557 0.0
C216 C 0.28928 0.24703 0.5429 0.0
C217 C 0.32129 0.27238 0.5123 0.0
C218 C 0.31393 0.26642 0.46356 0.0
C219 C 0.31285 0.21061 0.58558 0.0
C220 C 0.25792 0.27743 0.55903 0.0
H221 H 0.43587 0.38852 0.41975 0.0
H222 H 0.35751 0.33361 0.27819 0.0
H223 H 0.28002 0.34181 0.34747 0.0
H224 H 0.26123 0.28786 0.3594 0.0
H225 H 0.28505 0.30806 0.30467 0.0
H226 H 0.38718 0.24805 0.36908 0.0
H227 H 0.33947 0.24851 0.32319 0.0
H228 H 0.34013 0.22109 0.38711 0.0
H229 H 0.44922 0.38122 0.5995 0.0
H230 H 0.36539 0.30452 0.69527 0.0
H231 H 0.33062 0.27656 0.62824 0.0
H232 H 0.46815 0.30585 0.53929 0.0
H233 H 0.48334 0.36182 0.52677 0.0
H234 H 0.4649 0.33484 0.47737 0.0
H235 H 0.37715 0.41343 0.51599 0.0
H236 H 0.385 0.40938 0.45662 0.0
H237 H 0.43113 0.42097 0.49956 0.0
H238 H 0.45091 0.41881 0.3372 0.0
C239 C 0.41807 0.37593 0.39022 0.0
C240 C 0.95007 0.14741 0.49623 0.0
C241 C 0.87635 0.14107 0.45276 0.0
C242 C 0.91319 0.12252 0.48742 0.0
C243 C 0.87673 0.18476 0.42759 0.0
C244 C 0.9503 0.19136 0.47092 0.0
C245 C 0.91354 0.2098 0.43663 0.0
N246 N 0.98537 0.12897 0.52984 0.0
C247 C 0.02107 0.15306 0.54097 0.0
C248 C 0.98739 0.21574 0.48109 0.0
C249 C 0.0228 0.19655 0.51638 0.0
Gd250 Gd 0.03351 0.95801 0.52756 0.0
Gd251 Gd 0.97754 0.0563 0.56975 0.0
N252 N 0.91397 0.07979 0.51133 0.0
C253 C 0.84024 0.11508 0.44401 0.0
C254 C 0.87859 0.05449 0.50307 0.0
C255 C 0.84144 0.07161 0.4692 0.0
H256 H 0.88035 0.02037 0.51972 0.0
H257 H 0.81404 0.05103 0.46196 0.0
H258 H 0.13212 0.99304 0.56513 0.0
H259 H 0.04784 0.13925 0.56979 0.0
H260 H 0.20058 0.96448 0.62156 0.0
H261 H 0.81148 0.12815 0.41749 0.0
H262 H 0.84869 0.19951 0.40091 0.0
H263 H 0.97147 0.87271 0.5134 0.0
H264 H 0.98874 0.24958 0.46239 0.0
H265 H 0.05121 0.21542 0.52516 0.0
H266 H 0.17446 0.81225 0.67512 0.0
H267 H 0.9132 0.24351 0.41695 0.0
H268 H 0.03929 0.75793 0.60475 0.0
H269 H 0.97483 0.79279 0.54533 0.0
N270 N 0.03299 0.88239 0.55507 0.0
C271 C 0.06897 0.86387 0.58713 0.0
C272 C 0.99957 0.85754 0.53952 0.0
C273 C 0.03788 0.79289 0.59106 0.0
C274 C 1.00147 0.81243 0.55739 0.0
C275 C 0.07238 0.81857 0.60606 0.0
H276 H 0.11353 0.76556 0.65353 0.0
N277 N 0.09931 0.93362 0.57988 0.0
C278 C 0.10327 0.89019 0.59962 0.0
C279 C 0.17685 0.89929 0.63998 0.0
C280 C 0.14198 0.8719 0.63087 0.0
C281 C 0.13427 0.95977 0.5853 0.0
C282 C 0.17321 0.94335 0.61642 0.0
O283 O 0.96409 0.0517 0.48909 0.0
O284 O 0.96828 0.9807 0.48263 0.0
O285 O 0.07023 0.98143 0.46698 0.0
O286 O 0.04432 0.91673 0.47778 0.0
O287 O 0.95377 0.98849 0.59788 0.0
O288 O 0.96253 0.94589 0.54234 0.0
O289 O 0.04692 0.95675 0.6102 0.0
O290 O 0.04165 0.02763 0.61539 0.0
O291 O 0.94472 0.04353 0.63531 0.0
O292 O 0.96253 0.1085 0.60368 0.0
O293 O 0.05733 0.02698 0.50499 0.0
O294 O 0.04975 0.06403 0.56542 0.0
C295 C 0.95634 0.02145 0.46358 0.0
C296 C 0.94182 0.95622 0.57665 0.0
C297 C 0.0535 0.95137 0.3965 0.0
C298 C 0.07354 0.94534 0.31742 0.0
C299 C 0.99997 0.97008 0.32144 0.0
C300 C 0.01108 0.96567 0.37252 0.0
C301 C 0.03099 0.95988 0.29397 0.0
C302 C 0.08475 0.94123 0.36879 0.0
C303 C 0.06539 0.94595 0.45038 0.0
C304 C 0.14506 0.82691 0.65083 0.0
C305 C 0.11035 0.80031 0.63848 0.0
H306 H 0.20717 0.88651 0.66376 0.0
C307 C 0.05084 0.98656 0.63683 0.0
C308 C 0.06937 0.05751 0.52909 0.0
C309 C 0.95354 0.09405 0.6878 0.0
C310 C 0.92779 0.09922 0.76436 0.0
C311 C 0.99953 0.12586 0.74846 0.0
C312 C 0.99204 0.11518 0.70233 0.0
C313 C 0.96765 0.11789 0.7794 0.0
C314 C 0.92113 0.08655 0.71884 0.0
C315 C 0.94451 0.08401 0.63838 0.0
H316 H 0.96715 0.9811 0.30318 0.0
H317 H 0.98655 0.973 0.39334 0.0
H318 H 0.02178 0.96306 0.25445 0.0
H319 H 0.11751 0.92977 0.38711 0.0
H320 H 0.02962 0.14148 0.75967 0.0
H321 H 0.01636 0.12361 0.67794 0.0
H322 H 0.97326 0.12792 0.8143 0.0
H323 H 0.89016 0.07265 0.70679 0.0
C324 C 0.64927 0.54625 0.08367 0.0
C325 C 0.65525 0.62311 0.08271 0.0
C326 C 0.63042 0.58501 0.08707 0.0
C327 C 0.69847 0.62208 0.07271 0.0
C328 C 0.69334 0.54477 0.07566 0.0
C329 C 0.71742 0.58304 0.06904 0.0
N330 N 0.62552 0.50952 0.0913 0.0
C331 C 0.64537 0.46992 0.0962 0.0
C332 C 0.71248 0.50459 0.07634 0.0
C333 C 0.68861 0.46691 0.08756 0.0
Gd334 Gd 0.45467 0.48302 1.00151 0.0
Gd335 Gd 0.552 0.51901 0.10167 0.0
N336 N 0.5883 0.58529 0.09608 0.0
C337 C 0.63605 0.66109 0.089 0.0
C338 C 0.57025 0.62174 0.10462 0.0
C339 C 0.59355 0.66023 0.10061 0.0
H340 H 0.53795 0.62131 0.11492 0.0
H341 H 0.5788 0.68913 0.10678 0.0
H342 H 0.4886 0.38183 1.00638 0.0
H343 H 0.62882 0.4403 0.10839 0.0
H344 H 0.4641 0.30675 0.03342 0.0
H345 H 0.65405 0.69097 0.08594 0.0
H346 H 0.71779 0.65115 0.06863 0.0
H347 H 0.36447 0.54841 0.99219 0.0
H348 H 0.74621 0.50211 0.07033 0.0
H349 H 0.70377 0.43542 0.09057 0.0
H350 H 0.32402 0.32494 0.0826 0.0
H351 H 0.75115 0.58254 0.06242 0.0
H352 H 0.26521 0.46971 0.0551 0.0
H353 H 0.29145 0.54179 0.01737 0.0
N354 N 0.38223 0.48124 0.02019 0.0
C355 C 0.36703 0.44096 0.03731 0.0
C356 C 0.35464 0.51692 0.0107 0.0
C357 C 0.29793 0.47249 0.04517 0.0
C358 C 0.31266 0.51323 0.02405 0.0
C359 C 0.32473 0.43558 0.05093 0.0
H360 H 0.27771 0.3889 0.07937 0.0
N361 N 0.4331 0.41088 0.02436 0.0
C362 C 0.39289 0.40475 0.03873 0.0
C363 C 0.40383 0.32693 0.0531 0.0
C364 C 0.37751 0.36251 0.05436 0.0
C365 C 0.45789 0.3765 0.02056 0.0
C366 C 0.44391 0.33399 0.03544 0.0
O367 O 0.56421 0.53574 0.0214 0.0
O368 O 0.49374 0.54312 0.97666 0.0
O369 O 0.45606 0.45495 0.93741 0.0
O370 O 0.40981 0.50833 0.93314 0.0
O371 O 0.50235 0.57282 0.06471 0.0
O372 O 0.43904 0.54208 0.03052 0.0
O373 O 0.46475 0.44273 0.07915 0.0
O374 O 0.48509 0.49576 0.12037 0.0
O375 O 0.54275 0.53867 0.16868 0.0
O376 O 0.59031 0.48752 0.17236 0.0
O377 O 0.52439 0.45687 0.00931 0.0
O378 O 0.55065 0.45037 0.09199 0.0
C379 C 0.53646 0.54891 0.9797 0.0
C380 C 0.46002 0.57377 0.04738 0.0
C381 C 0.40734 0.47984 0.85896 0.0
C382 C 0.40704 0.44792 0.78738 0.0
C383 C 0.35549 0.50666 0.78375 0.0
C384 C 0.37269 0.50828 0.83232 0.0
C385 C 0.37239 0.47651 0.7614 0.0
C386 C 0.42493 0.45009 0.83595 0.0
C387 C 0.42457 0.48094 0.9107 0.0
C388 C 0.33625 0.35714 0.07001 0.0
C389 C 0.30992 0.39358 0.0683 0.0
H390 H 0.39316 0.29396 0.06481 0.0
C391 C 0.46746 0.45782 0.11909 0.0
C392 C 0.549 0.43678 0.0508 0.0
C393 C 0.60692 0.53598 0.22616 0.0
C394 C 0.62242 0.57592 0.29145 0.0
C395 C 0.67914 0.56578 0.24353 0.0
C396 C 0.65021 0.54244 0.21639 0.0
C397 C 0.66539 0.58242 0.28096 0.0
C398 C 0.59314 0.55284 0.26386 0.0
C399 C 0.57501 0.51399 0.19584 0.0
H400 H 0.32875 0.52863 0.7635 0.0
H401 H 0.35869 0.53164 0.84906 0.0
H402 H 0.35839 0.47535 0.72386 0.0
H403 H 0.45183 0.42806 0.85585 0.0
H404 H 0.71236 0.57083 0.23566 0.0
H405 H 0.6617 0.52967 0.18775 0.0
H406 H 0.68836 0.60008 0.30209 0.0
H407 H 0.55985 0.548 0.27182 0.0
C408 C 0.18185 0.11023 0.53382 0.0
C409 C 0.17523 0.14333 0.48966 0.0
C410 C 0.10355 0.11327 0.4668 0.0
C411 C 0.10669 0.0857 0.51493 0.0
N412 N 0.14791 0.06466 0.59802 0.0
N413 N 0.12378 0.1825 0.42016 0.0
C414 C 0.14537 0.08646 0.54978 0.0
C415 C 0.13436 0.14668 0.45775 0.0
N416 N 0.22323 0.09998 0.55949 0.0
N417 N 0.07204 0.10743 0.4292 0.0
H418 H 0.14434 0.20889 0.41372 0.0
H419 H 0.09253 0.188 0.39909 0.0
H420 H 0.0512 0.08132 0.43269 0.0
H421 H 0.07072 0.1251 0.39284 0.0
H422 H 0.23009 0.07343 0.58944 0.0
H423 H 0.25124 0.11469 0.54734 0.0
H424 H 0.17377 0.06837 0.62538 0.0
H425 H 0.12314 0.04522 0.61155 0.0
C426 C 0.42307 0.67628 0.08139 0.0
C427 C 0.39145 0.69465 0.03957 0.0
C428 C 0.40673 0.63512 1.0011 0.0
C429 C 0.43455 0.61425 0.04514 0.0
N430 N 0.45639 0.60926 0.13274 0.0
N431 N 0.34303 0.68242 0.9676 0.0
C432 C 0.43892 0.63308 0.08707 0.0
C433 C 0.38006 0.67123 1.00185 0.0
N434 N 0.43958 0.7003 0.11457 0.0
N435 N 0.40709 0.62232 0.95778 0.0
H436 H 0.32095 0.70696 0.96862 0.0
H437 H 0.33172 0.66387 0.94199 0.0
H438 H 0.42776 0.59759 0.95446 0.0
H439 H 0.39008 0.63947 0.92403 0.0
H440 H 0.46553 0.68907 0.14316 0.0
H441 H 0.43075 0.73287 0.11043 0.0
H442 H 0.457 0.62064 0.16497 0.0
H443 H 0.46562 0.57658 0.13884 0.0
C444 C 0.82929 0.91401 0.60827 0.0
C445 C 0.83788 0.86866 0.62055 0.0
C446 C 0.91564 0.88123 0.61326 0.0
C447 C 0.90658 0.92668 0.59655 0.0
N448 N 0.85832 0.9854 0.60237 0.0
N449 N 0.88824 0.80806 0.63165 0.0
C450 C 0.86448 0.94301 0.60095 0.0
C451 C 0.88086 0.85199 0.62253 0.0
N452 N 0.78694 0.92967 0.60131 0.0
N453 N 0.95823 0.8665 0.62573 0.0
H454 H 0.86419 0.78555 0.64093 0.0
H455 H 0.91729 0.794 0.62688 0.0
H456 H 0.98432 0.88738 0.62185 0.0
H457 H 0.96776 0.83484 0.64447 0.0
H458 H 0.77781 0.96202 0.58525 0.0
H459 H 0.76022 0.90978 0.60756 0.0
H460 H 0.83007 0.99726 0.61169 0.0
H461 H 0.88273 0.00803 0.60012 0.0
C462 C 0.58766 0.31821 0.07927 0.0
C463 C 0.62227 0.31979 0.05139 0.0
C464 C 0.60528 0.39773 0.01732 0.0
C465 C 0.57532 0.39686 0.05156 0.0
N466 N 0.55278 0.35639 0.12805 0.0
N467 N 0.66897 0.36323 0.99895 0.0
C468 C 0.57062 0.35728 0.0863 0.0
C469 C 0.63222 0.36006 0.02117 0.0
N470 N 0.57123 0.27919 0.09975 0.0
N471 N 0.60976 0.4349 0.98277 0.0
H472 H 0.69003 0.33686 1.00169 0.0
H473 H 0.68063 0.39269 0.98121 0.0
H474 H 0.59519 0.46466 0.98233 0.0
H475 H 0.62673 0.4357 0.95321 0.0
H476 H 0.54345 0.27687 0.11719 0.0
H477 H 0.58235 0.24974 0.09431 0.0
H478 H 0.55309 0.32829 0.15596 0.0
H479 H 0.54277 0.38379 0.13841 0.0
C480 C 0.12841 0.88087 0.24301 0.0
C481 C 0.15936 0.91095 0.22358 0.0
C482 C 0.13554 0.96378 0.26741 0.0
C483 C 0.10563 0.93317 0.2878 0.0
N484 N 0.07841 0.8619 0.30394 0.0
N485 N 0.19813 0.9776 0.22336 0.0
C486 C 0.10381 0.89122 0.27812 0.0
C487 C 0.16466 0.95145 0.23767 0.0
N488 N 0.12111 0.84365 0.22601 0.0
N489 N 0.13509 0.00493 0.27533 0.0
H490 H 0.21984 0.96955 0.20145 0.0
H491 H 0.20663 0.00552 0.23616 0.0
H492 H 0.11505 0.01442 0.2981 0.0
H493 H 0.15247 0.03036 0.25724 0.0
H494 H 0.09546 0.82292 0.23389 0.0
H495 H 0.13878 0.83488 0.20068 0.0
H496 H 0.07664 0.82916 0.30275 0.0
H497 H 0.07664 0.82916 0.30275 0.0
C498 C 0.54288 0.59768 0.84405 0.0
C499 C 0.5837 0.61909 0.84607 0.0
C500 C 0.5864 0.60488 0.93591 0.0
C501 C 0.55302 0.5738 0.93399 0.0
N502 N 0.5103 0.5322 0.88197 0.0
N503 N 0.64964 0.6332 0.89975 0.0
C504 C 0.53389 0.56796 0.88675 0.0
C505 C 0.60723 0.62012 0.89367 0.0
N506 N 0.51257 0.60554 0.80196 0.0
N507 N 0.59569 0.62279 0.97585 0.0
H508 H 0.66819 0.63989 0.87103 0.0
H509 H 0.66767 0.63189 0.93478 0.0
H510 H 0.57536 0.6178 1.00286 0.0
H511 H 0.61814 0.64762 0.97714 0.0
H512 H 0.48176 0.5914 0.80063 0.0
H513 H 0.51639 0.6298 0.77096 0.0
H514 H 0.49761 0.52601 0.84756 0.0
H515 H 0.51049 0.50608 0.912 0.0
C516 C 0.87769 0.00948 0.34805 0.0
C517 C 0.88306 0.04917 0.31449 0.0
C518 C 0.93496 0.07282 0.37856 0.0
C519 C 0.92851 0.03337 0.41325 0.0
N520 N 0.88177 0.97201 0.43367 0.0
N521 N 0.91162 0.12145 0.29881 0.0
C522 C 0.89662 0.00377 0.39869 0.0
C523 C 0.91004 0.08163 0.33018 0.0
N524 N 0.85428 0.97714 0.33169 0.0
N525 N 0.96607 0.1015 0.39031 0.0
H526 H 0.89808 0.1281 0.26142 0.0
H527 H 0.92413 0.14885 0.31042 0.0
H528 H 0.98224 0.10079 0.4256 0.0
H529 H 0.97754 0.12594 0.36408 0.0
H530 H 0.85387 0.9456 0.35299 0.0
H531 H 0.838 0.98083 0.29549 0.0
H532 H 0.85566 0.95223 0.42567 0.0
H533 H 0.89134 0.96896 0.47152 0.0
C534 C 0.45707 0.4002 0.69462 0.0
C535 C 0.43504 0.36033 0.70038 0.0
C536 C 0.4145 0.37094 0.77753 0.0
C537 C 0.42405 0.41569 0.76307 0.0
N538 N 0.46166 0.47178 0.71246 0.0
N539 N 0.42673 0.29851 0.76536 0.0
C540 C 0.44803 0.42996 0.72325 0.0
C541 C 0.4246 0.34247 0.74797 0.0
N542 N 0.49152 0.40615 0.66888 0.0
N543 N 0.39306 0.35615 0.81692 0.0
H544 H 0.43677 0.27792 0.74444 0.0
H545 H 0.42306 0.28342 0.80149 0.0
H546 H 0.38451 0.37596 0.83933 0.0
H547 H 0.38127 0.32475 0.82525 0.0
H548 H 0.51122 0.43331 0.66659 0.0
H549 H 0.50422 0.38055 0.65676 0.0
H550 H 0.47491 0.48491 0.6805 0.0
H551 H 0.45806 0.49364 0.73463 0.0
C552 C 0.62813 0.58942 0.42163 0.0
C553 C 0.6084 0.63152 0.41352 0.0
C554 C 0.58912 0.63352 0.32492 0.0
C555 C 0.6096 0.59192 0.33324 0.0
N556 N 0.63509 0.52479 0.38999 0.0
N557 N 0.55978 0.68813 0.36102 0.0
C558 C 0.62426 0.56795 0.38194 0.0
C559 C 0.58527 0.65169 0.36619 0.0
N560 N 0.65361 0.5713 0.4658 0.0
N561 N 0.57522 0.65632 0.27761 0.0
H562 H 0.55616 0.70166 0.39095 0.0
H563 H 0.53923 0.70248 0.32841 0.0
H564 H 0.57631 0.64325 0.24678 0.0
H565 H 0.56473 0.68879 0.26877 0.0
H566 H 0.6727 0.54302 0.4715 0.0
H567 H 0.65904 0.58618 0.49568 0.0
H568 H 0.64185 0.50452 0.4252 0.0
H569 H 0.63286 0.50836 0.36133 0.0
C570 C 0.85005 0.14058 0.83583 0.0
C571 C 0.83577 0.1014 0.86431 0.0
C572 C 0.87946 0.05916 0.82407 0.0
C573 C 0.89164 0.09848 0.79406 0.0
N574 N 0.87766 0.17521 0.76094 0.0
N575 N 0.82886 0.02365 0.87784 0.0
C576 C 0.87315 0.1387 0.79646 0.0
C577 C 0.84795 0.06066 0.85596 0.0
N578 N 0.84442 0.17941 0.84835 0.0
N579 N 0.89923 0.02073 0.82359 0.0
H580 H 0.80526 0.02385 0.90079 0.0
H581 H 0.83337 0.99354 0.8697 0.0
H582 H 0.92184 0.01844 0.80011 0.0
H583 H 0.89542 0.99169 0.84867 0.0
H584 H 0.85836 0.20805 0.83175 0.0
H585 H 0.83003 0.18244 0.87872 0.0
H586 H 0.86118 0.20455 0.75826 0.0
H587 H 0.89405 0.17487 0.73112 0.0
C588 C 0.40043 0.43995 0.226 0.0
C589 C 0.41575 0.39749 0.25166 0.0
C590 C 0.4509 0.38993 0.18168 0.0
C591 C 0.44382 0.43524 0.16037 0.0
N592 N 0.40462 0.50178 0.15773 0.0
N593 N 0.4602 0.33367 0.25677 0.0
C594 C 0.41641 0.45983 0.18134 0.0
C595 C 0.44205 0.37287 0.2302 0.0
N596 N 0.36958 0.46053 0.24368 0.0
N597 N 0.46386 0.36221 0.1554 0.0
H598 H 0.45449 0.31957 0.2925 0.0
H599 H 0.48411 0.31703 0.24497 0.0
H600 H 0.46888 0.37185 0.11909 0.0
H601 H 0.46453 0.32851 0.16779 0.0
H602 H 0.35384 0.48986 0.2249 0.0
H603 H 0.35713 0.44655 0.27599 0.0
H604 H 0.39028 0.52364 0.17386 0.0
H605 H 0.4093 0.51492 0.12142 0.0
C606 C 0.12739 0.99915 0.75395 0.0
C607 C 0.13957 0.9556 0.77744 0.0
C608 C 0.08895 0.93093 0.71289 0.0
C609 C 0.07709 0.97498 0.68879 0.0
N610 N 0.06895 0.04631 0.70476 0.0
N611 N 0.137 0.87949 0.7755 0.0
C612 C 0.09218 0.0081 0.71393 0.0
C613 C 0.12232 0.92136 0.75543 0.0
N614 N 0.14955 0.03225 0.77011 0.0
N615 N 0.06365 0.89834 0.70004 0.0
H616 H 0.15772 0.86999 0.8092 0.0
H617 H 0.13113 0.8544 0.75693 0.0
H618 H 0.03304 0.90488 0.67819 0.0
H619 H 0.06864 0.86556 0.71705 0.0
H620 H 0.14485 0.06469 0.75122 0.0
H621 H 0.17594 0.02676 0.79916 0.0
H622 H 0.077 0.07041 0.72438 0.0
H623 H 0.03719 0.04994 0.68524 0.0
loop_
_geom_bond_atom_site_label_1
_geom_bond_atom_site_label_2
_geom_bond_distance
_geom_bond_site_symmetry_2
_ccdc_geom_bond_type
C0 C1 1.391 . S
C0 C4 1.391 . S
C0 H42 0.948 . S
C1 C0 1.391 . S
C1 C2 1.391 . S
C2 C1 1.391 . S
C2 H58 0.947 . S
C2 C59 1.392 . S
C3 C4 1.391 . S
C3 C7 1.397 . S
C3 C59 1.419 . S
C4 C0 1.391 . S
C4 C3 1.391 . S
C4 C5 1.399 . S
C5 C4 1.399 . S
C5 C8 1.396 . S
C5 C17 1.453 . S
C5 C18 1.684 . S
H6 C30 0.948 . S
C7 C3 1.397 . S
C7 C8 1.394 . S
C7 C26 1.723 1_556 S
C8 C5 1.396 . S
C8 C7 1.394 . S
C8 C38 1.723 1_556 S
H9 C32 0.947 . S
H10 C33 0.948 . S
H11 C39 0.982 . S
H12 C40 0.979 . S
H13 C40 0.980 . S
H14 C40 0.983 . S
H15 C39 0.979 . S
H16 C39 0.977 . S
C17 C5 1.453 . S
C17 H46 0.982 . S
C17 H47 0.979 . S
C17 H48 0.977 . S
C18 C5 1.684 . S
C18 H43 0.979 . S
C18 H44 0.980 . S
C18 H45 0.983 . S
C19 C20 1.391 . S
C19 C24 1.391 . S
C19 H49 0.948 . S
C20 C19 1.391 . S
C20 C21 1.391 . S
C21 C20 1.391 . S
C21 C22 1.392 . S
C21 H50 0.947 . S
C22 C21 1.392 . S
C22 C23 1.419 . S
C22 H51 0.948 . S
C23 C22 1.419 . S
C23 C24 1.391 . S
C23 C27 1.397 . S
C24 C19 1.391 . S
C24 C23 1.391 . S
C24 C25 1.399 . S
C25 C24 1.399 . S
C25 C26 1.396 . S
C25 C28 1.453 . S
C25 C29 1.684 . S
C26 C7 1.723 1_554 S
C26 C25 1.396 . S
C26 C27 1.394 . S
C27 C23 1.397 . S
C27 C26 1.394 . S
C27 C37 1.723 . S
C28 C25 1.453 . S
C28 H52 0.982 . S
C28 H53 0.979 . S
C28 H54 0.977 1_554 S
C29 C25 1.684 . S
C29 H55 0.979 . S
C29 H56 0.980 1_554 S
C29 H57 0.983 . S
C30 H6 0.948 . S
C30 C31 1.391 . S
C30 C35 1.391 . S
C31 C30 1.391 . S
C31 C32 1.391 1_554 S
C32 H9 0.947 . S
C32 C31 1.391 1_556 S
C32 C33 1.392 . S
C33 H10 0.948 . S
C33 C32 1.392 . S
C33 C34 1.419 1_556 S
C34 C33 1.419 1_554 S
C34 C35 1.391 . S
C34 C38 1.397 . S
C35 C30 1.391 . S
C35 C34 1.391 . S
C35 C36 1.399 . S
C36 C35 1.399 . S
C36 C37 1.396 . S
C36 C39 1.453 . S
C36 C40 1.684 . S
C37 C27 1.723 . S
C37 C36 1.396 . S
C37 C38 1.394 . S
C38 C8 1.723 1_554 S
C38 C34 1.397 . S
C38 C37 1.394 . S
C39 H11 0.982 . S
C39 H15 0.979 . S
C39 H16 0.977 . S
C39 C36 1.453 . S
C40 H12 0.979 . S
C40 H13 0.980 . S
C40 H14 0.983 . S
C40 C36 1.684 . S
H41 C59 0.948 . S
H42 C0 0.948 . S
H43 C18 0.979 . S
H44 C18 0.980 . S
H45 C18 0.983 . S
H46 C17 0.982 . S
H47 C17 0.979 . S
H48 C17 0.977 . S
H49 C19 0.948 . S
H50 C21 0.947 . S
H51 C22 0.948 . S
H52 C28 0.982 . S
H53 C28 0.979 . S
H54 C28 0.977 1_556 S
H55 C29 0.979 . S
H56 C29 0.980 1_556 S
H57 C29 0.983 . S
H58 C2 0.947 . S
C59 C2 1.392 . S
C59 C3 1.419 . S
C59 H41 0.948 . S
C60 C61 1.391 . S
C60 C64 1.391 . S
C60 H102 0.948 . S
C61 C60 1.391 . S
C61 C62 1.391 . S
C62 C61 1.391 . S
C62 H118 0.947 . S
C62 C119 1.392 . S
C63 C64 1.391 . S
C63 C67 1.397 . S
C63 C119 1.419 . S
C64 C60 1.391 . S
C64 C63 1.391 . S
C64 C65 1.399 . S
C65 C64 1.399 . S
C65 C68 1.396 . S
C65 C77 1.453 . S
C65 C78 1.684 . S
H66 C90 0.948 . S
C67 C63 1.397 . S
C67 C68 1.394 . S
C67 C86 1.723 . S
C68 C65 1.396 . S
C68 C67 1.394 . S
C68 C98 1.723 . S
H69 C92 0.947 . S
H70 C93 0.948 . S
H71 C99 0.982 . S
H72 C100 0.979 . S
H73 C100 0.980 . S
H74 C100 0.983 . S
H75 C99 0.979 . S
H76 C99 0.977 . S
C77 C65 1.453 . S
C77 H106 0.982 . S
C77 H107 0.979 . S
C77 H108 0.977 . S
C78 C65 1.684 . S
C78 H103 0.979 . S
C78 H104 0.980 . S
C78 H105 0.983 . S
C79 C80 1.391 . S
C79 C84 1.391 . S
C79 H109 0.948 . S
C80 C79 1.391 . S
C80 C81 1.391 . S
C81 C80 1.391 . S
C81 C82 1.392 . S
C81 H110 0.947 . S
C82 C81 1.392 . S
C82 C83 1.419 . S
C82 H111 0.948 . S
C83 C82 1.419 . S
C83 C84 1.391 . S
C83 C87 1.397 . S
C84 C79 1.391 . S
C84 C83 1.391 . S
C84 C85 1.399 . S
C85 C84 1.399 . S
C85 C86 1.396 . S
C85 C88 1.453 . S
C85 C89 1.684 . S
C86 C67 1.723 . S
C86 C85 1.396 . S
C86 C87 1.394 . S
C87 C83 1.397 . S
C87 C86 1.394 . S
C87 C97 1.723 . S
C88 C85 1.453 . S
C88 H112 0.982 . S
C88 H113 0.979 . S
C88 H114 0.977 . S
C89 C85 1.684 . S
C89 H115 0.979 . S
C89 H116 0.980 . S
C89 H117 0.983 . S
C90 H66 0.948 . S
C90 C91 1.391 . S
C90 C95 1.391 . S
C91 C90 1.391 . S
C91 C92 1.391 . S
C92 H69 0.947 . S
C92 C91 1.391 . S
C92 C93 1.392 . S
C93 H70 0.948 . S
C93 C92 1.392 . S
C93 C94 1.419 . S
C94 C93 1.419 . S
C94 C95 1.391 . S
C94 C98 1.397 . S
C95 C90 1.391 . S
C95 C94 1.391 . S
C95 C96 1.399 . S
C96 C95 1.399 . S
C96 C97 1.396 . S
C96 C99 1.453 . S
C96 C100 1.684 . S
C97 C87 1.723 . S
C97 C96 1.396 . S
C97 C98 1.394 . S
C98 C68 1.723 . S
C98 C94 1.397 . S
C98 C97 1.394 . S
C99 H71 0.982 . S
C99 H75 0.979 . S
C99 H76 0.977 . S
C99 C96 1.453 . S
C100 H72 0.979 . S
C100 H73 0.980 . S
C100 H74 0.983 . S
C100 C96 1.684 . S
H101 C119 0.948 . S
H102 C60 0.948 . S
H103 C78 0.979 . S
H104 C78 0.980 . S
H105 C78 0.983 . S
H106 C77 0.982 . S
H107 C77 0.979 . S
H108 C77 0.977 . S
H109 C79 0.948 . S
H110 C81 0.947 . S
H111 C82 0.948 . S
H112 C88 0.982 . S
H113 C88 0.979 . S
H114 C88 0.977 . S
H115 C89 0.979 . S
H116 C89 0.980 . S
H117 C89 0.983 . S
H118 C62 0.947 . S
C119 C62 1.392 . S
C119 C63 1.419 . S
C119 H101 0.948 . S
C120 C121 1.391 . S
C120 C124 1.391 . S
C120 H162 0.948 . S
C121 C120 1.391 . S
C121 C122 1.391 . S
C122 C121 1.391 . S
C122 H178 0.947 . S
C122 C179 1.392 . S
C123 C124 1.391 . S
C123 C127 1.397 . S
C123 C179 1.419 . S
C124 C120 1.391 . S
C124 C123 1.391 . S
C124 C125 1.399 . S
C125 C124 1.399 . S
C125 C128 1.396 . S
C125 C137 1.453 . S
C125 C138 1.684 . S
H126 C150 0.948 1_556 S
C127 C123 1.397 . S
C127 C128 1.394 . S
C127 C146 1.723 . S
C128 C125 1.396 . S
C128 C127 1.394 . S
C128 C158 1.723 . S
H129 C152 0.947 . S
H130 C153 0.948 . S
H131 C159 0.982 . S
H132 C160 0.979 . S
H133 C160 0.980 . S
H134 C160 0.983 . S
H135 C159 0.979 . S
H136 C159 0.977 . S
C137 C125 1.453 . S
C137 H166 0.982 . S
C137 H167 0.979 . S
C137 H168 0.977 . S
C138 C125 1.684 . S
C138 H163 0.979 . S
C138 H164 0.980 . S
C138 H165 0.983 . S
C139 C140 1.391 . S
C139 C144 1.391 . S
C139 H169 0.948 . S
C140 C139 1.391 . S
C140 C141 1.391 . S
C141 C140 1.391 . S
C141 C142 1.392 . S
C141 H170 0.947 . S
C142 C141 1.392 . S
C142 C143 1.419 . S
C142 H171 0.948 . S
C143 C142 1.419 . S
C143 C144 1.391 . S
C143 C147 1.397 1_556 S
C144 C139 1.391 . S
C144 C143 1.391 . S
C144 C145 1.399 1_556 S
C145 C144 1.399 1_554 S
C145 C146 1.396 . S
C145 C148 1.453 . S
C145 C149 1.684 . S
C146 C127 1.723 . S
C146 C145 1.396 . S
C146 C147 1.394 . S
C147 C143 1.397 1_554 S
C147 C146 1.394 . S
C147 C157 1.723 . S
C148 C145 1.453 . S
C148 H172 0.982 . S
C148 H173 0.979 . S
C148 H174 0.977 . S
C149 C145 1.684 . S
C149 H175 0.979 . S
C149 H176 0.980 . S
C149 H177 0.983 . S
C150 H126 0.948 1_554 S
C150 C151 1.391 . S
C150 C155 1.391 . S
C151 C150 1.391 . S
C151 C152 1.391 . S
C152 H129 0.947 . S
C152 C151 1.391 . S
C152 C153 1.392 . S
C153 H130 0.948 . S
C153 C152 1.392 . S
C153 C154 1.419 . S
C154 C153 1.419 . S
C154 C155 1.391 . S
C154 C158 1.397 . S
C155 C150 1.391 . S
C155 C154 1.391 . S
C155 C156 1.399 1_554 S
C156 C155 1.399 1_556 S
C156 C157 1.396 1_556 S
C156 C159 1.453 . S
C156 C160 1.684 . S
C157 C147 1.723 . S
C157 C156 1.396 1_554 S
C157 C158 1.394 . S
C158 C128 1.723 . S
C158 C154 1.397 . S
C158 C157 1.394 . S
C159 H131 0.982 . S
C159 H135 0.979 . S
C159 H136 0.977 . S
C159 C156 1.453 . S
C160 H132 0.979 . S
C160 H133 0.980 . S
C160 H134 0.983 . S
C160 C156 1.684 . S
H161 C179 0.948 . S
H162 C120 0.948 . S
H163 C138 0.979 . S
H164 C138 0.980 . S
H165 C138 0.983 . S
H166 C137 0.982 . S
H167 C137 0.979 . S
H168 C137 0.977 . S
H169 C139 0.948 . S
H170 C141 0.947 . S
H171 C142 0.948 . S
H172 C148 0.982 . S
H173 C148 0.979 . S
H174 C148 0.977 . S
H175 C149 0.979 . S
H176 C149 0.980 . S
H177 C149 0.983 . S
H178 C122 0.947 . S
C179 C122 1.392 . S
C179 C123 1.419 . S
C179 H161 0.948 . S
C180 C181 1.391 . S
C180 C184 1.391 . S
C180 H222 0.948 . S
C181 C180 1.391 . S
C181 C182 1.391 . S
C182 C181 1.391 . S
C182 H238 0.947 . S
C182 C239 1.392 . S
C183 C184 1.391 . S
C183 C187 1.397 . S
C183 C239 1.419 . S
C184 C180 1.391 . S
C184 C183 1.391 . S
C184 C185 1.399 . S
C185 C184 1.399 . S
C185 C188 1.396 . S
C185 C197 1.453 . S
C185 C198 1.684 . S
H186 C210 0.948 . S
C187 C183 1.397 . S
C187 C188 1.394 . S
C187 C206 1.723 . S
C188 C185 1.396 . S
C188 C187 1.394 . S
C188 C218 1.723 . S
H189 C212 0.947 . S
H190 C213 0.948 . S
H191 C219 0.982 . S
H192 C220 0.979 . S
H193 C220 0.980 . S
H194 C220 0.983 . S
H195 C219 0.979 . S
H196 C219 0.977 . S
C197 C185 1.453 . S
C197 H226 0.982 . S
C197 H227 0.979 . S
C197 H228 0.977 . S
C198 C185 1.684 . S
C198 H223 0.979 . S
C198 H224 0.980 . S
C198 H225 0.983 . S
C199 C200 1.391 . S
C199 C204 1.391 . S
C199 H229 0.948 . S
C200 C199 1.391 . S
C200 C201 1.391 . S
C201 C200 1.391 . S
C201 C202 1.392 . S
C201 H230 0.947 . S
C202 C201 1.392 . S
C202 C203 1.419 . S
C202 H231 0.948 . S
C203 C202 1.419 . S
C203 C204 1.391 . S
C203 C207 1.397 . S
C204 C199 1.391 . S
C204 C203 1.391 . S
C204 C205 1.399 . S
C205 C204 1.399 . S
C205 C206 1.396 . S
C205 C208 1.453 . S
C205 C209 1.684 . S
C206 C187 1.723 . S
C206 C205 1.396 . S
C206 C207 1.394 . S
C207 C203 1.397 . S
C207 C206 1.394 . S
C207 C217 1.723 . S
C208 C205 1.453 . S
C208 H232 0.982 . S
C208 H233 0.979 . S
C208 H234 0.977 . S
C209 C205 1.684 . S
C209 H235 0.979 . S
C209 H236 0.980 . S
C209 H237 0.983 . S
C210 H186 0.948 . S
C210 C211 1.391 . S
C210 C215 1.391 . S
C211 C210 1.391 . S
C211 C212 1.391 . S
C212 H189 0.947 . S
C212 C211 1.391 . S
C212 C213 1.392 . S
C213 H190 0.948 . S
C213 C212 1.392 . S
C213 C214 1.419 . S
C214 C213 1.419 . S
C214 C215 1.391 . S
C214 C218 1.397 . S
C215 C210 1.391 . S
C215 C214 1.391 . S
C215 C216 1.399 . S
C216 C215 1.399 . S
C216 C217 1.396 . S
C216 C219 1.453 . S
C216 C220 1.684 . S
C217 C207 1.723 . S
C217 C216 1.396 . S
C217 C218 1.394 . S
C218 C188 1.723 . S
C218 C214 1.397 . S
C218 C217 1.394 . S
C219 H191 0.982 . S
C219 H195 0.979 . S
C219 H196 0.977 . S
C219 C216 1.453 . S
C220 H192 0.979 . S
C220 H193 0.980 . S
C220 H194 0.983 . S
C220 C216 1.684 . S
H221 C239 0.948 . S
H222 C180 0.948 . S
H223 C198 0.979 . S
H224 C198 0.980 . S
H225 C198 0.983 . S
H226 C197 0.982 . S
H227 C197 0.979 . S
H228 C197 0.977 . S
H229 C199 0.948 . S
H230 C201 0.947 . S
H231 C202 0.948 . S
H232 C208 0.982 . S
H233 C208 0.979 . S
H234 C208 0.977 . S
H235 C209 0.979 . S
H236 C209 0.980 . S
H237 C209 0.983 . S
H238 C182 0.947 . S
C239 C182 1.392 . S
C239 C183 1.419 . S
C239 H221 0.948 . S
C240 C242 1.422 . S
C240 C244 1.415 . S
C240 N246 1.369 . S
C241 C242 1.421 . S
C241 C243 1.417 . S
C241 C253 1.422 . S
C242 C240 1.422 . S
C242 C241 1.421 . S
C242 N252 1.359 . S
C243 C241 1.417 . S
C243 C245 1.329 . S
C243 H262 0.930 . S
C244 C240 1.415 . S
C244 C245 1.437 . S
C244 C248 1.413 . S
C245 C243 1.329 . S
C245 C244 1.437 . S
C245 H267 0.929 . S
N246 C240 1.369 . S
N246 C247 1.338 . S
N246 Gd251 2.622 . S
C247 N246 1.338 . S
C247 C249 1.378 . S
C247 H259 0.929 1_655 S
C248 C244 1.413 . S
C248 C249 1.348 . S
C248 H264 0.931 . S
C249 C247 1.378 . S
C249 C248 1.348 . S
C249 H265 0.930 1_655 S
Gd250 N270 2.622 . S
Gd250 N277 2.570 . S
Gd250 O284 2.353 1_465 S
Gd250 O285 2.468 . S
Gd250 O286 2.427 . S
Gd250 O288 2.388 1_455 S
Gd250 O289 2.386 . S
Gd250 O293 2.307 1_565 S
Gd250 C303 2.805 . S
Gd251 N246 2.622 . S
Gd251 N252 2.570 . S
Gd251 O283 2.386 . S
Gd251 O287 2.307 1_545 S
Gd251 O290 2.353 1_655 S
Gd251 O291 2.468 . S
Gd251 O292 2.427 . S
Gd251 O294 2.388 1_655 S
Gd251 C315 2.805 . S
N252 C242 1.359 . S
N252 Gd251 2.570 . S
N252 C254 1.343 . S
C253 C241 1.422 . S
C253 C255 1.321 . S
C253 H261 0.931 . S
C254 N252 1.343 . S
C254 C255 1.390 . S
C254 H256 0.931 . S
C255 C253 1.321 . S
C255 C254 1.390 . S
C255 H257 0.930 . S
H256 C254 0.931 . S
H257 C255 0.930 . S
H258 C281 0.931 . S
H259 C247 0.929 1_455 S
H260 C282 0.930 . S
H261 C253 0.931 . S
H262 C243 0.930 . S
H263 C272 0.929 1_655 S
H264 C248 0.931 . S
H265 C249 0.930 1_455 S
H266 C304 0.930 . S
H267 C245 0.929 . S
H268 C273 0.931 . S
H269 C274 0.930 1_655 S
N270 Gd250 2.622 . S
N270 C271 1.369 . S
N270 C272 1.338 . S
C271 N270 1.369 . S
C271 C275 1.415 . S
C271 C278 1.422 . S
C272 H263 0.929 1_455 S
C272 N270 1.338 . S
C272 C274 1.378 . S
C273 H268 0.931 . S
C273 C274 1.348 . S
C273 C275 1.413 . S
C274 H269 0.930 1_455 S
C274 C272 1.378 . S
C274 C273 1.348 . S
C275 C271 1.415 . S
C275 C273 1.413 . S
C275 C305 1.437 . S
H276 C305 0.929 . S
N277 Gd250 2.570 . S
N277 C278 1.359 . S
N277 C281 1.343 . S
C278 C271 1.422 . S
C278 N277 1.359 . S
C278 C280 1.421 . S
C279 C280 1.422 . S
C279 C282 1.321 . S
C279 H306 0.931 . S
C280 C278 1.421 . S
C280 C279 1.422 . S
C280 C304 1.417 . S
C281 H258 0.931 . S
C281 N277 1.343 . S
C281 C282 1.390 . S
C282 H260 0.930 . S
C282 C279 1.321 . S
C282 C281 1.390 . S
O283 Gd251 2.386 . S
O283 C295 1.265 . S
O284 Gd250 2.353 1_645 S
O284 C295 1.242 . S
O285 Gd250 2.468 . S
O285 C303 1.263 . S
O286 Gd250 2.427 . S
O286 C303 1.252 . S
O287 Gd251 2.307 1_565 S
O287 C296 1.261 . S
O288 Gd250 2.388 1_655 S
O288 C296 1.252 . S
O289 Gd250 2.386 . S
O289 C307 1.265 . S
O290 Gd251 2.353 1_455 S
O290 C307 1.242 1_545 S
O291 Gd251 2.468 . S
O291 C315 1.263 . S
O292 Gd251 2.427 . S
O292 C315 1.252 . S
O293 Gd250 2.307 1_545 S
O293 C308 1.261 . S
O294 Gd251 2.388 1_455 S
O294 C308 1.252 . S
C295 O283 1.265 . S
C295 O284 1.242 . S
C296 O287 1.261 . S
C296 O288 1.252 . S
C297 C300 1.394 . S
C297 C302 1.370 . S
C297 C303 1.500 . S
C298 C301 1.383 . S
C298 C302 1.395 . S
C299 C300 1.396 . S
C299 C301 1.365 . S
C299 H316 0.929 . S
C300 C297 1.394 . S
C300 C299 1.396 . S
C300 H317 0.930 . S
C301 C298 1.383 . S
C301 C299 1.365 . S
C301 H318 0.931 . S
C302 C297 1.370 . S
C302 C298 1.395 . S
C302 H319 0.930 . S
C303 Gd250 2.805 . S
C303 O285 1.263 . S
C303 O286 1.252 . S
C303 C297 1.500 . S
C304 H266 0.930 . S
C304 C280 1.417 . S
C304 C305 1.329 . S
C305 C275 1.437 . S
C305 H276 0.929 . S
C305 C304 1.329 . S
H306 C279 0.931 . S
C307 O289 1.265 . S
C307 O290 1.242 1_565 S
C308 O293 1.261 . S
C308 O294 1.252 . S
C309 C312 1.394 . S
C309 C314 1.370 . S
C309 C315 1.500 . S
C310 C313 1.383 . S
C310 C314 1.395 . S
C311 C312 1.396 . S
C311 C313 1.365 . S
C311 H320 0.929 . S
C312 C309 1.394 . S
C312 C311 1.396 . S
C312 H321 0.930 . S
C313 C310 1.383 . S
C313 C311 1.365 . S
C313 H322 0.931 . S
C314 C309 1.370 . S
C314 C310 1.395 . S
C314 H323 0.930 . S
C315 Gd251 2.805 . S
C315 O291 1.263 . S
C315 O292 1.252 . S
C315 C309 1.500 . S
H316 C299 0.929 . S
H317 C300 0.930 . S
H318 C301 0.931 . S
H319 C302 0.930 . S
H320 C311 0.929 . S
H321 C312 0.930 . S
H322 C313 0.931 . S
H323 C314 0.930 . S
C324 C326 1.422 . S
C324 C328 1.415 . S
C324 N330 1.369 . S
C325 C326 1.421 . S
C325 C327 1.417 . S
C325 C337 1.422 . S
C326 C324 1.422 . S
C326 C325 1.421 . S
C326 N336 1.359 . S
C327 C325 1.417 . S
C327 C329 1.329 . S
C327 H346 0.930 . S
C328 C324 1.415 . S
C328 C329 1.437 . S
C328 C332 1.413 . S
C329 C327 1.329 . S
C329 C328 1.437 . S
C329 H351 0.929 . S
N330 C324 1.369 . S
N330 C331 1.338 . S
N330 Gd335 2.622 . S
C331 N330 1.338 . S
C331 C333 1.378 . S
C331 H343 0.929 . S
C332 C328 1.413 . S
C332 C333 1.348 . S
C332 H348 0.931 . S
C333 C331 1.378 . S
C333 C332 1.348 . S
C333 H349 0.930 . S
Gd334 N354 2.623 . S
Gd334 N361 2.570 1_556 S
Gd334 O368 2.353 . S
Gd334 O369 2.468 . S
Gd334 O370 2.427 . S
Gd334 O372 2.388 1_556 S
Gd334 O373 2.386 1_556 S
Gd334 O377 2.307 1_556 S
Gd334 C387 2.805 . S
Gd335 N330 2.622 . S
Gd335 N336 2.570 . S
Gd335 O367 2.386 . S
Gd335 O371 2.307 . S
Gd335 O374 2.353 . S
Gd335 O375 2.468 . S
Gd335 O376 2.427 . S
Gd335 O378 2.388 . S
Gd335 C399 2.805 . S
N336 C326 1.359 . S
N336 Gd335 2.570 . S
N336 C338 1.343 . S
C337 C325 1.422 . S
C337 C339 1.321 . S
C337 H345 0.931 . S
C338 N336 1.343 . S
C338 C339 1.390 . S
C338 H340 0.931 . S
C339 C337 1.321 . S
C339 C338 1.390 . S
C339 H341 0.930 . S
H340 C338 0.931 . S
H341 C339 0.930 . S
H342 C365 0.931 . S
H343 C331 0.929 . S
H344 C366 0.930 . S
H345 C337 0.931 . S
H346 C327 0.930 . S
H347 C356 0.929 . S
H348 C332 0.931 . S
H349 C333 0.930 . S
H350 C388 0.930 . S
H351 C329 0.929 . S
H352 C357 0.931 . S
H353 C358 0.930 . S
N354 Gd334 2.623 . S
N354 C355 1.367 1_556 S
N354 C356 1.337 . S
C355 N354 1.367 1_554 S
C355 C359 1.415 . S
C355 C362 1.422 . S
C356 H347 0.929 . S
C356 N354 1.337 . S
C356 C358 1.378 . S
C357 H352 0.931 . S
C357 C358 1.348 1_554 S
C357 C359 1.413 . S
C358 H353 0.930 . S
C358 C356 1.378 . S
C358 C357 1.348 1_556 S
C359 C355 1.415 . S
C359 C357 1.413 . S
C359 C389 1.437 . S
H360 C389 0.929 . S
N361 Gd334 2.570 1_554 S
N361 C362 1.359 . S
N361 C365 1.343 . S
C362 C355 1.422 . S
C362 N361 1.359 . S
C362 C364 1.421 . S
C363 C364 1.422 . S
C363 C366 1.321 . S
C363 H390 0.931 . S
C364 C362 1.421 . S
C364 C363 1.422 . S
C364 C388 1.417 . S
C365 H342 0.931 . S
C365 N361 1.343 . S
C365 C366 1.390 . S
C366 H344 0.930 . S
C366 C363 1.321 . S
C366 C365 1.390 . S
O367 Gd335 2.386 . S
O367 C379 1.265 1_554 S
O368 Gd334 2.353 . S
O368 C379 1.242 . S
O369 Gd334 2.468 . S
O369 C387 1.263 . S
O370 Gd334 2.427 . S
O370 C387 1.252 . S
O371 Gd335 2.307 . S
O371 C380 1.261 . S
O372 Gd334 2.388 1_554 S
O372 C380 1.252 . S
O373 Gd334 2.386 1_554 S
O373 C391 1.265 . S
O374 Gd335 2.353 . S
O374 C391 1.242 . S
O375 Gd335 2.468 . S
O375 C399 1.263 . S
O376 Gd335 2.427 . S
O376 C399 1.252 . S
O377 Gd334 2.307 1_554 S
O377 C392 1.261 . S
O378 Gd335 2.388 . S
O378 C392 1.252 . S
C379 O367 1.265 1_556 S
C379 O368 1.242 . S
C380 O371 1.261 . S
C380 O372 1.252 . S
C381 C384 1.394 . S
C381 C386 1.370 . S
C381 C387 1.500 . S
C382 C385 1.383 . S
C382 C386 1.395 . S
C383 C384 1.396 . S
C383 C385 1.365 . S
C383 H400 0.929 . S
C384 C381 1.394 . S
C384 C383 1.396 . S
C384 H401 0.930 . S
C385 C382 1.383 . S
C385 C383 1.365 . S
C385 H402 0.931 . S
C386 C381 1.370 . S
C386 C382 1.395 . S
C386 H403 0.930 . S
C387 Gd334 2.805 . S
C387 O369 1.263 . S
C387 O370 1.252 . S
C387 C381 1.500 . S
C388 H350 0.930 . S
C388 C364 1.417 . S
C388 C389 1.329 . S
C389 C359 1.437 . S
C389 H360 0.929 . S
C389 C388 1.329 . S
H390 C363 0.931 . S
C391 O373 1.265 . S
C391 O374 1.242 . S
C392 O377 1.261 . S
C392 O378 1.252 . S
C393 C396 1.394 . S
C393 C398 1.370 . S
C393 C399 1.500 . S
C394 C397 1.383 . S
C394 C398 1.395 . S
C395 C396 1.396 . S
C395 C397 1.365 . S
C395 H404 0.929 . S
C396 C393 1.394 . S
C396 C395 1.396 . S
C396 H405 0.930 . S
C397 C394 1.383 . S
C397 C395 1.365 . S
C397 H406 0.931 . S
C398 C393 1.370 . S
C398 C394 1.395 . S
C398 H407 0.930 . S
C399 Gd335 2.805 . S
C399 O375 1.263 . S
C399 O376 1.252 . S
C399 C393 1.500 . S
H400 C383 0.929 . S
H401 C384 0.930 . S
H402 C385 0.931 . S
H403 C386 0.930 . S
H404 C395 0.929 . S
H405 C396 0.930 . S
H406 C397 0.931 . S
H407 C398 0.930 . S
C408 C409 1.363 . S
C408 C414 1.379 . S
C408 N416 1.356 . S
C409 C408 1.363 . S
C409 C415 1.363 . S
C410 C411 1.363 . S
C410 C415 1.379 . S
C410 N417 1.356 . S
C411 C410 1.363 . S
C411 C414 1.363 . S
N412 C414 1.356 . S
N412 H424 0.984 . S
N412 H425 0.985 . S
N413 C415 1.356 . S
N413 H418 0.984 . S
N413 H419 0.985 . S
C414 C408 1.379 . S
C414 C411 1.363 . S
C414 N412 1.356 . S
C415 C409 1.363 . S
C415 C410 1.379 . S
C415 N413 1.356 . S
N416 C408 1.356 . S
N416 H422 0.984 . S
N416 H423 0.984 . S
N417 C410 1.356 . S
N417 H420 0.984 . S
N417 H421 0.985 . S
H418 N413 0.984 . S
H419 N413 0.985 . S
H420 N417 0.984 . S
H421 N417 0.985 . S
H422 N416 0.984 . S
H423 N416 0.984 . S
H424 N412 0.984 . S
H425 N412 0.985 . S
C426 C427 1.363 . S
C426 C432 1.379 . S
C426 N434 1.356 . S
C427 C426 1.363 . S
C427 C433 1.363 . S
C428 C429 1.363 . S
C428 C433 1.379 . S
C428 N435 1.356 1_554 S
C429 C428 1.363 . S
C429 C432 1.363 . S
N430 C432 1.356 . S
N430 H442 0.984 . S
N430 H443 0.985 . S
N431 C433 1.356 1_556 S
N431 H436 0.984 . S
N431 H437 0.985 . S
C432 C426 1.379 . S
C432 C429 1.363 . S
C432 N430 1.356 . S
C433 C427 1.363 . S
C433 C428 1.379 . S
C433 N431 1.356 1_554 S
N434 C426 1.356 . S
N434 H440 0.984 . S
N434 H441 0.984 . S
N435 C428 1.356 1_556 S
N435 H438 0.984 . S
N435 H439 0.985 . S
H436 N431 0.984 . S
H437 N431 0.985 . S
H438 N435 0.984 . S
H439 N435 0.985 . S
H440 N434 0.984 . S
H441 N434 0.984 . S
H442 N430 0.984 . S
H443 N430 0.985 . S
C444 C445 1.363 . S
C444 C450 1.379 . S
C444 N452 1.356 . S
C445 C444 1.363 . S
C445 C451 1.363 . S
C446 C447 1.363 . S
C446 C451 1.379 . S
C446 N453 1.356 . S
C447 C446 1.363 . S
C447 C450 1.363 . S
N448 C450 1.356 . S
N448 H460 0.984 1_565 S
N448 H461 0.985 . S
N449 C451 1.356 . S
N449 H454 0.984 . S
N449 H455 0.985 . S
C450 C444 1.379 . S
C450 C447 1.363 . S
C450 N448 1.356 . S
C451 C445 1.363 . S
C451 C446 1.379 . S
C451 N449 1.356 . S
N452 C444 1.356 . S
N452 H458 0.984 . S
N452 H459 0.984 . S
N453 C446 1.356 . S
N453 H456 0.984 . S
N453 H457 0.985 . S
H454 N449 0.984 . S
H455 N449 0.985 . S
H456 N453 0.984 . S
H457 N453 0.985 . S
H458 N452 0.984 . S
H459 N452 0.984 . S
H460 N448 0.984 1_545 S
H461 N448 0.985 . S
C462 C463 1.363 . S
C462 C468 1.379 . S
C462 N470 1.356 . S
C463 C462 1.363 . S
C463 C469 1.363 . S
C464 C465 1.363 . S
C464 C469 1.379 . S
C464 N471 1.356 1_554 S
C465 C464 1.363 . S
C465 C468 1.363 . S
N466 C468 1.356 . S
N466 H478 0.984 . S
N466 H479 0.985 . S
N467 C469 1.356 1_556 S
N467 H472 0.984 . S
N467 H473 0.985 . S
C468 C462 1.379 . S
C468 C465 1.363 . S
C468 N466 1.356 . S
C469 C463 1.363 . S
C469 C464 1.379 . S
C469 N467 1.356 1_554 S
N470 C462 1.356 . S
N470 H476 0.984 . S
N470 H477 0.984 . S
N471 C464 1.356 1_556 S
N471 H474 0.984 . S
N471 H475 0.985 . S
H472 N467 0.984 . S
H473 N467 0.985 . S
H474 N471 0.984 . S
H475 N471 0.985 . S
H476 N470 0.984 . S
H477 N470 0.984 . S
H478 N466 0.984 . S
H479 N466 0.985 . S
C480 C481 1.363 . S
C480 C486 1.379 . S
C480 N488 1.356 . S
C481 C480 1.363 . S
C481 C487 1.363 . S
C482 C483 1.363 . S
C482 C487 1.379 . S
C482 N489 1.356 1_565 S
C483 C482 1.363 . S
C483 C486 1.363 . S
N484 C486 1.356 . S
N484 H496 0.984 . S
N484 H497 0.985 . S
N485 C487 1.356 . S
N485 H490 0.984 . S
N485 H491 0.985 1_565 S
C486 C480 1.379 . S
C486 C483 1.363 . S
C486 N484 1.356 . S
C487 C481 1.363 . S
C487 C482 1.379 . S
C487 N485 1.356 . S
N488 C480 1.356 . S
N488 H494 0.984 . S
N488 H495 0.984 . S
N489 C482 1.356 1_545 S
N489 H492 0.983 . S
N489 H493 0.985 . S
H490 N485 0.984 . S
H491 N485 0.985 1_545 S
H492 N489 0.983 . S
H493 N489 0.985 . S
H494 N488 0.984 . S
H495 N488 0.984 . S
H496 N484 0.984 . S
H497 N484 0.985 . S
C498 C499 1.363 . S
C498 C504 1.379 . S
C498 N506 1.356 . S
C499 C498 1.363 . S
C499 C505 1.363 . S
C500 C501 1.363 . S
C500 C505 1.379 . S
C500 N507 1.356 . S
C501 C500 1.363 . S
C501 C504 1.363 . S
N502 C504 1.356 . S
N502 H514 0.984 . S
N502 H515 0.985 . S
N503 C505 1.356 . S
N503 H508 0.984 . S
N503 H509 0.985 . S
C504 C498 1.379 . S
C504 C501 1.363 . S
C504 N502 1.356 . S
C505 C499 1.363 . S
C505 C500 1.379 . S
C505 N503 1.356 . S
N506 C498 1.356 . S
N506 H512 0.984 . S
N506 H513 0.984 . S
N507 C500 1.356 . S
N507 H510 0.984 . S
N507 H511 0.985 . S
H508 N503 0.984 . S
H509 N503 0.985 . S
H510 N507 0.984 . S
H511 N507 0.985 . S
H512 N506 0.984 . S
H513 N506 0.984 . S
H514 N502 0.984 . S
H515 N502 0.985 . S
C516 C517 1.363 . S
C516 C522 1.379 . S
C516 N524 1.356 1_545 S
C517 C516 1.363 . S
C517 C523 1.363 . S
C518 C519 1.363 . S
C518 C523 1.379 . S
C518 N525 1.356 . S
C519 C518 1.363 . S
C519 C522 1.363 . S
N520 C522 1.356 1_565 S
N520 H532 0.984 . S
N520 H533 0.985 . S
N521 C523 1.356 . S
N521 H526 0.984 . S
N521 H527 0.985 . S
C522 C516 1.379 . S
C522 C519 1.363 . S
C522 N520 1.356 1_545 S
C523 C517 1.363 . S
C523 C518 1.379 . S
C523 N521 1.356 . S
N524 C516 1.356 1_565 S
N524 H530 0.984 . S
N524 H531 0.984 . S
N525 C518 1.356 . S
N525 H528 0.984 . S
N525 H529 0.985 . S
H526 N521 0.984 . S
H527 N521 0.985 . S
H528 N525 0.984 . S
H529 N525 0.985 . S
H530 N524 0.984 . S
H531 N524 0.984 . S
H532 N520 0.984 . S
H533 N520 0.985 . S
C534 C535 1.363 . S
C534 C540 1.379 . S
C534 N542 1.356 . S
C535 C534 1.363 . S
C535 C541 1.363 . S
C536 C537 1.363 . S
C536 C541 1.379 . S
C536 N543 1.356 . S
C537 C536 1.363 . S
C537 C540 1.363 . S
N538 C540 1.356 . S
N538 H550 0.984 . S
N538 H551 0.985 . S
N539 C541 1.356 . S
N539 H544 0.984 . S
N539 H545 0.985 . S
C540 C534 1.379 . S
C540 C537 1.363 . S
C540 N538 1.356 . S
C541 C535 1.363 . S
C541 C536 1.379 . S
C541 N539 1.356 . S
N542 C534 1.356 . S
N542 H548 0.984 . S
N542 H549 0.984 . S
N543 C536 1.356 . S
N543 H546 0.984 . S
N543 H547 0.985 . S
H544 N539 0.984 . S
H545 N539 0.985 . S
H546 N543 0.984 . S
H547 N543 0.985 . S
H548 N542 0.984 . S
H549 N542 0.984 . S
H550 N538 0.984 . S
H551 N538 0.985 . S
C552 C553 1.363 . S
C552 C558 1.379 . S
C552 N560 1.356 . S
C553 C552 1.363 . S
C553 C559 1.363 . S
C554 C555 1.363 . S
C554 C559 1.379 . S
C554 N561 1.356 . S
C555 C554 1.363 . S
C555 C558 1.363 . S
N556 C558 1.356 . S
N556 H568 0.984 . S
N556 H569 0.985 . S
N557 C559 1.356 . S
N557 H562 0.984 . S
N557 H563 0.985 . S
C558 C552 1.379 . S
C558 C555 1.363 . S
C558 N556 1.356 . S
C559 C553 1.363 . S
C559 C554 1.379 . S
C559 N557 1.356 . S
N560 C552 1.356 . S
N560 H566 0.984 . S
N560 H567 0.984 . S
N561 C554 1.356 . S
N561 H564 0.984 . S
N561 H565 0.985 . S
H562 N557 0.984 . S
H563 N557 0.985 . S
H564 N561 0.984 . S
H565 N561 0.985 . S
H566 N560 0.984 . S
H567 N560 0.984 . S
H568 N556 0.984 . S
H569 N556 0.985 . S
C570 C571 1.363 . S
C570 C576 1.379 . S
C570 N578 1.356 . S
C571 C570 1.363 . S
C571 C577 1.363 . S
C572 C573 1.363 . S
C572 C577 1.379 . S
C572 N579 1.356 1_545 S
C573 C572 1.363 . S
C573 C576 1.363 . S
N574 C576 1.356 . S
N574 H586 0.984 . S
N574 H587 0.985 . S
N575 C577 1.356 . S
N575 H580 0.984 . S
N575 H581 0.985 1_545 S
C576 C570 1.379 . S
C576 C573 1.363 . S
C576 N574 1.356 . S
C577 C571 1.363 . S
C577 C572 1.379 . S
C577 N575 1.356 . S
N578 C570 1.356 . S
N578 H584 0.984 . S
N578 H585 0.984 . S
N579 C572 1.356 1_565 S
N579 H582 0.984 . S
N579 H583 0.985 . S
H580 N575 0.984 . S
H581 N575 0.985 1_565 S
H582 N579 0.984 . S
H583 N579 0.985 . S
H584 N578 0.984 . S
H585 N578 0.984 . S
H586 N574 0.984 . S
H587 N574 0.985 . S
C588 C589 1.363 . S
C588 C594 1.379 . S
C588 N596 1.356 . S
C589 C588 1.363 . S
C589 C595 1.363 . S
C590 C591 1.363 . S
C590 C595 1.379 . S
C590 N597 1.356 . S
C591 C590 1.363 . S
C591 C594 1.363 . S
N592 C594 1.356 . S
N592 H604 0.984 . S
N592 H605 0.985 . S
N593 C595 1.356 . S
N593 H598 0.984 . S
N593 H599 0.985 . S
C594 C588 1.379 . S
C594 C591 1.363 . S
C594 N592 1.356 . S
C595 C589 1.363 . S
C595 C590 1.379 . S
C595 N593 1.356 . S
N596 C588 1.356 . S
N596 H602 0.984 . S
N596 H603 0.984 . S
N597 C590 1.356 . S
N597 H600 0.984 . S
N597 H601 0.985 . S
H598 N593 0.984 . S
H599 N593 0.985 . S
H600 N597 0.984 . S
H601 N597 0.985 . S
H602 N596 0.984 . S
H603 N596 0.984 . S
H604 N592 0.984 . S
H605 N592 0.985 . S
C606 C607 1.363 . S
C606 C612 1.379 . S
C606 N614 1.356 1_565 S
C607 C606 1.363 . S
C607 C613 1.363 . S
C608 C609 1.363 . S
C608 C613 1.379 . S
C608 N615 1.356 . S
C609 C608 1.363 . S
C609 C612 1.363 . S
N610 C612 1.356 1_545 S
N610 H622 0.984 . S
N610 H623 0.985 . S
N611 C613 1.356 . S
N611 H616 0.984 . S
N611 H617 0.985 . S
C612 C606 1.379 . S
C612 C609 1.363 . S
C612 N610 1.356 1_565 S
C613 C607 1.363 . S
C613 C608 1.379 . S
C613 N611 1.356 . S
N614 C606 1.356 1_545 S
N614 H620 0.984 . S
N614 H621 0.984 . S
N615 C608 1.356 . S
N615 H618 0.984 . S
N615 H619 0.985 . S
H616 N611 0.984 . S
H617 N611 0.985 . S
H618 N615 0.984 . S
H619 N615 0.985 . S
H620 N614 0.984 . S
H621 N614 0.984 . S
H622 N610 0.984 . S
H623 N610 0.985 . S
C411 C308 1.668 . S
C409 C211 1.641 . S
C427 C31 1.552 . S
C429 C380 1.661 . S
C445 C91 1.679 . S
C447 C296 1.668 . S
C463 C151 1.620 . S
C465 C392 1.661 . S
C483 C298 1.428 . S
C481 C20 1.517 . S
C501 C379 1.628 . S
C499 C61 1.571 . S
C517 C121 1.649 . S
C519 C295 1.666 . S
C535 C200 1.482 . S
C537 C382 1.407 . S
C555 C394 1.407 . S
C553 C80 1.501 . S
C573 C310 1.427 . S
C571 C140 1.551 . S
C591 C391 1.628 . S
C589 C181 1.531 . S
C607 C1 1.578 . S
C609 C307 1.666 . S
