# Generated by pormake.
# Topology apo, (3,6)-cn, num edge types: 1
# Building blocks:
#     Node 0, Type 0, BuildingBlock: ESEHIV_clean_linker_0, # of connection points: 3
#     Node 1, Type 0, BuildingBlock: ESEHIV_clean_linker_0, # of connection points: 3
#     Node 2, Type 0, BuildingBlock: ESEHIV_clean_linker_0, # of connection points: 3
#     Node 3, Type 0, BuildingBlock: ESEHIV_clean_linker_0, # of connection points: 3
#     Node 4, Type 0, BuildingBlock: ESEHIV_clean_linker_0, # of connection points: 3
#     Node 5, Type 0, BuildingBlock: ESEHIV_clean_linker_0, # of connection points: 3
#     Node 6, Type 0, BuildingBlock: ESEHIV_clean_linker_0, # of connection points: 3
#     Node 7, Type 0, BuildingBlock: ESEHIV_clean_linker_0, # of connection points: 3
#     Node 8, Type 1, BuildingBlock: KUMJIN_clean_sbu_1, # of connection points: 6
#     Node 9, Type 1, BuildingBlock: KUMJIN_clean_sbu_1, # of connection points: 6
#     Node 10, Type 1, BuildingBlock: KUMJIN_clean_sbu_1, # of connection points: 6
#     Node 11, Type 1, BuildingBlock: KUMJIN_clean_sbu_1, # of connection points: 6
#     Edge 12, Type (0, 1), BuildingBlock: KIFKEQ_clean_linker_1, # of connection points: 2
#     Edge 13, Type (0, 1), BuildingBlock: KIFKEQ_clean_linker_1, # of connection points: 2
#     Edge 14, Type (0, 1), BuildingBlock: KIFKEQ_clean_linker_1, # of connection points: 2
#     Edge 15, Type (0, 1), BuildingBlock: KIFKEQ_clean_linker_1, # of connection points: 2
#     Edge 16, Type (0, 1), BuildingBlock: KIFKEQ_clean_linker_1, # of connection points: 2
#     Edge 17, Type (0, 1), BuildingBlock: KIFKEQ_clean_linker_1, # of connection points: 2
#     Edge 18, Type (0, 1), BuildingBlock: KIFKEQ_clean_linker_1, # of connection points: 2
#     Edge 19, Type (0, 1), BuildingBlock: KIFKEQ_clean_linker_1, # of connection points: 2
#     Edge 20, Type (0, 1), BuildingBlock: KIFKEQ_clean_linker_1, # of connection points: 2
#     Edge 21, Type (0, 1), BuildingBlock: KIFKEQ_clean_linker_1, # of connection points: 2
#     Edge 22, Type (0, 1), BuildingBlock: KIFKEQ_clean_linker_1, # of connection points: 2
#     Edge 23, Type (0, 1), BuildingBlock: KIFKEQ_clean_linker_1, # of connection points: 2
#     Edge 24, Type (0, 1), BuildingBlock: KIFKEQ_clean_linker_1, # of connection points: 2
#     Edge 25, Type (0, 1), BuildingBlock: KIFKEQ_clean_linker_1, # of connection points: 2
#     Edge 26, Type (0, 1), BuildingBlock: KIFKEQ_clean_linker_1, # of connection points: 2
#     Edge 27, Type (0, 1), BuildingBlock: KIFKEQ_clean_linker_1, # of connection points: 2
#     Edge 28, Type (0, 1), BuildingBlock: KIFKEQ_clean_linker_1, # of connection points: 2
#     Edge 29, Type (0, 1), BuildingBlock: KIFKEQ_clean_linker_1, # of connection points: 2
#     Edge 30, Type (0, 1), BuildingBlock: KIFKEQ_clean_linker_1, # of connection points: 2
#     Edge 31, Type (0, 1), BuildingBlock: KIFKEQ_clean_linker_1, # of connection points: 2
#     Edge 32, Type (0, 1), BuildingBlock: KIFKEQ_clean_linker_1, # of connection points: 2
#     Edge 33, Type (0, 1), BuildingBlock: KIFKEQ_clean_linker_1, # of connection points: 2
#     Edge 34, Type (0, 1), BuildingBlock: KIFKEQ_clean_linker_1, # of connection points: 2
#     Edge 35, Type (0, 1), BuildingBlock: KIFKEQ_clean_linker_1, # of connection points: 2
# Relax obj value: 0.008
# Max RMSD: 0.112
# Mean RMSD: 0.086
data_MOF--net-apo--node1-KUMJIN_clean_sbu_1--node2-ESEHIV_clean_linker_0--edge1-KIFKEQ_clean_linker_1
_symmetry_space_group_name_H-M    P1
_symmetry_Int_Tables_number       1
_symmetry_cell_setting            triclinic
loop_
_symmetry_equiv_pos_as_xyz
'x, y, z'
_cell_length_a     23.093459
_cell_length_b     40.669516
_cell_length_c     51.571139
_cell_angle_alpha  90.015006
_cell_angle_beta   89.945815
_cell_angle_gamma 90.281272
loop_
_atom_site_label
_atom_site_type_symbol
_atom_site_fract_x
_atom_site_fract_y
_atom_site_fract_z
_atom_type_partial_charge
H0 H 0.33271 0.42205 0.43339 0.0
H1 H 0.26322 0.38001 0.36374 0.0
H2 H 0.24113 0.32939 0.43636 0.0
C3 C 0.30961 0.40223 0.42382 0.0
C4 C 0.28879 0.3753 0.43837 0.0
C5 C 0.30095 0.4039 0.39692 0.0
C6 C 0.27002 0.37869 0.38451 0.0
C7 C 0.24754 0.35193 0.39858 0.0
C8 C 0.2577 0.3502 0.42548 0.0
H9 H 0.1745 0.07439 0.93287 0.0
H10 H 0.23147 0.11836 0.86139 0.0
H11 H 0.27641 0.16342 0.9339 0.0
C12 C 0.19845 0.0934 0.92272 0.0
C13 C 0.22582 0.11864 0.93694 0.0
C14 C 0.20027 0.09292 0.89545 0.0
C15 C 0.22879 0.11864 0.88237 0.0
C16 C 0.25569 0.14429 0.8961 0.0
C17 C 0.25474 0.1439 0.92335 0.0
H18 H 0.8329 0.08377 0.58997 0.0
H19 H 0.76467 0.12145 0.66161 0.0
H20 H 0.73823 0.17467 0.59061 0.0
C21 C 0.80954 0.10259 0.60051 0.0
C22 C 0.78696 0.12974 0.58713 0.0
C23 C 0.80153 0.09947 0.62739 0.0
C24 C 0.7709 0.12383 0.64086 0.0
C25 C 0.74775 0.15102 0.62778 0.0
C26 C 0.75614 0.15384 0.6009 0.0
H27 H 0.66534 0.42513 0.08976 0.0
H28 H 0.72727 0.37979 0.15976 0.0
H29 H 0.75421 0.3323 0.08649 0.0
C30 C 0.68693 0.40499 0.09943 0.0
C31 C 0.70963 0.37888 0.08464 0.0
C32 C 0.69251 0.40533 0.12665 0.0
C33 C 0.72104 0.3792 0.13893 0.0
C34 C 0.74369 0.35292 0.1246 0.0
C35 C 0.73777 0.35293 0.09752 0.0
H36 H 0.69241 0.56768 0.5828 0.0
H37 H 0.79107 0.65803 0.58194 0.0
H38 H 0.74428 0.61307 0.65433 0.0
C39 C 0.71523 0.58714 0.59294 0.0
C40 C 0.71532 0.58727 0.62021 0.0
C41 C 0.74237 0.61258 0.57877 0.0
C42 C 0.76988 0.63831 0.59246 0.0
C43 C 0.76971 0.63899 0.61972 0.0
C44 C 0.74287 0.61321 0.63332 0.0
H45 H 0.84477 0.9183 0.09229 0.0
H46 H 0.7711 0.87801 0.16205 0.0
H47 H 0.74496 0.82871 0.08906 0.0
C48 C 0.81922 0.89956 0.10201 0.0
C49 C 0.7959 0.87342 0.0875 0.0
C50 C 0.81027 0.90161 0.12889 0.0
C51 C 0.77849 0.87664 0.14131 0.0
C52 C 0.75477 0.85027 0.12718 0.0
C53 C 0.76262 0.84911 0.1001 0.0
H54 H 0.14155 0.91737 0.43472 0.0
H55 H 0.22513 0.82288 0.43489 0.0
H56 H 0.19868 0.87461 0.36312 0.0
C57 C 0.16221 0.89739 0.4244 0.0
C58 C 0.16671 0.89877 0.39726 0.0
C59 C 0.18285 0.86997 0.43818 0.0
C60 C 0.20879 0.84396 0.4244 0.0
C61 C 0.21452 0.84526 0.39722 0.0
C62 C 0.19309 0.87277 0.38394 0.0
H63 H 0.3448 0.58924 0.9352 0.0
H64 H 0.26486 0.61928 0.86392 0.0
H65 H 0.25563 0.68175 0.93098 0.0
C66 C 0.31998 0.607 0.92426 0.0
C67 C 0.3031 0.63666 0.93607 0.0
C68 C 0.30528 0.60027 0.89834 0.0
C69 C 0.27389 0.62369 0.88424 0.0
C70 C 0.25564 0.65316 0.89574 0.0
C71 C 0.27049 0.65942 0.92171 0.0
Eu72 Eu 0.07476 0.13432 0.23531 0.0
C73 C 0.8052 0.11873 0.27081 0.0
N74 N 0.8384 0.14642 0.27104 0.0
C75 C 0.7574 0.17816 0.25635 0.0
C76 C 0.7473 0.11949 0.26212 0.0
C77 C 0.81433 0.17622 0.26541 0.0
C78 C 0.72409 0.14957 0.25417 0.0
C79 C 0.79259 0.0618 0.28382 0.0
C80 C 0.82729 0.0903 0.28169 0.0
C81 C 0.73619 0.06186 0.27369 0.0
C82 C 0.71356 0.09067 0.26287 0.0
Eu83 Eu 0.93499 0.14034 0.28601 0.0
N84 N 0.88176 0.09108 0.29155 0.0
C85 C 0.81498 0.03447 0.29686 0.0
C86 C 0.90249 0.0653 0.30565 0.0
C87 C 0.86986 0.03642 0.30817 0.0
H88 H 0.83929 0.19861 0.26763 0.0
H89 H 0.88695 0.01576 0.31889 0.0
H90 H 0.14869 0.06583 0.25169 0.0
H91 H 0.14868 0.2623 0.23144 0.0
H92 H 0.94446 0.06699 0.31467 0.0
H93 H 0.78966 0.01212 0.29894 0.0
H94 H 0.08007 0.21653 0.22544 0.0
H95 H 0.73916 0.20174 0.25121 0.0
H96 H 0.70907 0.0401 0.27489 0.0
H97 H 0.66924 0.09071 0.25599 0.0
H98 H 0.24335 0.05135 0.27021 0.0
H99 H 0.6798 0.15119 0.2474 0.0
H100 H 0.24602 0.25176 0.24943 0.0
N101 N 0.16466 0.1174 0.25254 0.0
C102 C 0.20474 0.1416 0.25623 0.0
C103 C 0.23279 0.07686 0.2667 0.0
C104 C 0.26006 0.13427 0.26624 0.0
C105 C 0.17865 0.08524 0.25666 0.0
C106 C 0.27347 0.1015 0.27178 0.0
N107 N 0.13732 0.18022 0.23987 0.0
C108 C 0.1222 0.21146 0.23317 0.0
C109 C 0.23167 0.19932 0.25327 0.0
C110 C 0.191 0.17377 0.24947 0.0
C111 C 0.21604 0.23146 0.24673 0.0
C112 C 0.16112 0.23752 0.23659 0.0
H113 H 0.31551 0.0949 0.27943 0.0
H114 H 0.34311 0.1545 0.2778 0.0
H115 H 0.31804 0.21145 0.26671 0.0
O116 O 0.09966 0.14715 0.19574 0.0
O117 O 0.08703 0.16038 0.27391 0.0
O118 O 0.99745 0.18267 0.27951 0.0
O119 O 0.10698 0.09677 0.20849 0.0
O120 O 0.00944 0.17303 0.22295 0.0
O121 O 0.92748 0.17267 0.25006 0.0
O122 O 0.93861 0.13471 0.32837 0.0
O123 O 0.93932 0.09527 0.26024 0.0
O124 O 0.98303 0.11838 0.22497 0.0
O125 O 0.89317 0.17558 0.31169 0.0
O126 O 0.02069 0.11722 0.29754 0.0
O127 O 0.05553 0.09054 0.2614 0.0
C128 C 0.05256 0.18145 0.28539 0.0
C129 C 0.17066 0.11508 0.17506 0.0
C130 C 0.22073 0.11561 0.13327 0.0
C131 C 0.274 0.11427 0.14639 0.0
C132 C 0.22425 0.11347 0.18775 0.0
C133 C 0.2756 0.11304 0.17345 0.0
C134 C 0.1691 0.11587 0.14782 0.0
C135 C 0.95688 0.18283 0.2295 0.0
C136 C 0.11603 0.11758 0.18967 0.0
C137 C 0.30053 0.15969 0.27004 0.0
C138 C 0.28633 0.19212 0.26364 0.0
C139 C 0.95363 0.09428 0.23564 0.0
C140 C 0.85316 0.15229 0.34953 0.0
C141 C 0.81078 0.14681 0.39266 0.0
C142 C 0.75605 0.14215 0.38134 0.0
C143 C 0.79791 0.14757 0.33868 0.0
C144 C 0.85955 0.15148 0.37664 0.0
C145 C 0.74983 0.14233 0.35449 0.0
C146 C 0.04513 0.09159 0.28653 0.0
C147 C 0.90355 0.15903 0.3327 0.0
H148 H 0.31438 0.11381 0.1357 0.0
H149 H 0.22663 0.11274 0.20861 0.0
H150 H 0.31681 0.11186 0.18338 0.0
H151 H 0.12773 0.11745 0.13797 0.0
H152 H 0.71806 0.13829 0.39333 0.0
H153 H 0.7915 0.1484 0.31801 0.0
H154 H 0.90186 0.15533 0.38524 0.0
H155 H 0.70751 0.13876 0.3459 0.0
Eu156 Eu 0.4223 0.36762 0.73975 0.0
C157 C 0.68315 0.39802 0.76028 0.0
N158 N 0.65631 0.36817 0.76086 0.0
C159 C 0.73324 0.34442 0.73606 0.0
C160 C 0.73597 0.40228 0.74691 0.0
C161 C 0.68074 0.34141 0.74938 0.0
C162 C 0.76089 0.375 0.73474 0.0
C163 C 0.68257 0.45607 0.77123 0.0
C164 C 0.65631 0.42468 0.77216 0.0
C165 C 0.7351 0.46038 0.75788 0.0
C166 C 0.76171 0.43358 0.74577 0.0
Eu167 Eu 0.56817 0.36531 0.78381 0.0
N168 N 0.60463 0.41999 0.78449 0.0
C169 C 0.65558 0.4822 0.78399 0.0
C170 C 0.58049 0.44493 0.79842 0.0
C171 C 0.60479 0.47647 0.79797 0.0
H172 H 0.66013 0.31764 0.75087 0.0
H173 H 0.58483 0.49622 0.80877 0.0
H174 H 0.32473 0.40736 0.77562 0.0
H175 H 0.41549 0.24169 0.70124 0.0
H176 H 0.54375 0.44063 0.81068 0.0
H177 H 0.67441 0.50665 0.78376 0.0
H178 H 0.44979 0.2987 0.70388 0.0
H179 H 0.75242 0.32314 0.72689 0.0
H180 H 0.75566 0.48436 0.75689 0.0
H181 H 0.80217 0.43734 0.73551 0.0
H182 H 0.23276 0.39557 0.79855 0.0
H183 H 0.80143 0.37729 0.72428 0.0
H184 H 0.33036 0.22394 0.72683 0.0
N185 N 0.33413 0.3586 0.76169 0.0
C186 C 0.31112 0.32783 0.7601 0.0
C187 C 0.25445 0.37629 0.78788 0.0
C188 C 0.25893 0.31995 0.77295 0.0
C189 C 0.30654 0.38288 0.77502 0.0
C190 C 0.23063 0.34466 0.78693 0.0
N191 N 0.39099 0.31236 0.73381 0.0
C192 C 0.41556 0.29095 0.71666 0.0
C193 C 0.31798 0.27177 0.74436 0.0
C194 C 0.34087 0.30394 0.74619 0.0
C195 C 0.34659 0.24886 0.72877 0.0
C196 C 0.39489 0.25871 0.71444 0.0
H197 H 0.19046 0.33957 0.79708 0.0
H198 H 0.19736 0.28113 0.7817 0.0
H199 H 0.24874 0.23903 0.7565 0.0
O200 O 0.4082 0.36872 0.69724 0.0
O201 O 0.41606 0.34555 0.7803 0.0
O202 O 0.5054 0.32238 0.78703 0.0
O203 O 0.35408 0.39775 0.72324 0.0
O204 O 0.503 0.3427 0.72349 0.0
O205 O 0.54776 0.32061 0.75945 0.0
O206 O 0.58671 0.37008 0.82584 0.0
O207 O 0.57301 0.38777 0.74329 0.0
O208 O 0.4837 0.41105 0.73913 0.0
O209 O 0.63445 0.33527 0.80178 0.0
O210 O 0.48919 0.39062 0.80112 0.0
O211 O 0.43769 0.41132 0.76619 0.0
C212 C 0.44937 0.32353 0.79133 0.0
C213 C 0.33186 0.40264 0.67742 0.0
C214 C 0.31071 0.40662 0.63103 0.0
C215 C 0.27047 0.4315 0.63634 0.0
C216 C 0.29084 0.42739 0.68214 0.0
C217 C 0.26041 0.44162 0.66174 0.0
C218 C 0.34123 0.39198 0.65168 0.0
C219 C 0.53764 0.32102 0.73438 0.0
C220 C 0.36546 0.38932 0.69949 0.0
C221 C 0.23712 0.28771 0.77177 0.0
C222 C 0.26657 0.2637 0.75753 0.0
C223 C 0.53862 0.40973 0.73295 0.0
C224 C 0.6623 0.33691 0.84707 0.0
C225 C 0.69244 0.341 0.89245 0.0
C226 C 0.73465 0.31694 0.88784 0.0
C227 C 0.70475 0.31271 0.84314 0.0
C228 C 0.65573 0.35078 0.87202 0.0
C229 C 0.74044 0.3028 0.8634 0.0
C230 C 0.45087 0.41095 0.79107 0.0
C231 C 0.62722 0.3479 0.82468 0.0
H232 H 0.24652 0.443 0.62075 0.0
H233 H 0.28261 0.43611 0.70164 0.0
H234 H 0.22915 0.46076 0.66562 0.0
H235 H 0.37273 0.37298 0.64764 0.0
H236 H 0.76303 0.30892 0.9033 0.0
H237 H 0.71085 0.30154 0.82427 0.0
H238 H 0.6234 0.36953 0.87541 0.0
H239 H 0.77302 0.28421 0.8601 0.0
Eu240 Eu 0.06286 0.86556 0.73866 0.0
C241 C 0.79325 0.83866 0.76175 0.0
N242 N 0.8236 0.86698 0.76556 0.0
C243 C 0.74411 0.89869 0.7496 0.0
C244 C 0.73682 0.83936 0.75134 0.0
C245 C 0.79998 0.89678 0.75989 0.0
C246 C 0.71243 0.86986 0.74524 0.0
C247 C 0.789 0.77899 0.76355 0.0
C248 C 0.81911 0.80876 0.76779 0.0
C249 C 0.73277 0.77965 0.75322 0.0
C250 C 0.70676 0.80973 0.74715 0.0
Eu251 Eu 0.91759 0.86114 0.78247 0.0
N252 N 0.87447 0.80876 0.77691 0.0
C253 C 0.81651 0.74939 0.76961 0.0
C254 C 0.90066 0.78006 0.78372 0.0
C255 C 0.87239 0.74996 0.77992 0.0
H256 H 0.82387 0.91912 0.76376 0.0
H257 H 0.89364 0.72722 0.78505 0.0
H258 H 0.16077 0.827 0.77537 0.0
H259 H 0.05636 0.99418 0.70695 0.0
H260 H 0.9431 0.78012 0.79224 0.0
H261 H 0.79486 0.72601 0.76659 0.0
H262 H 0.03033 0.93555 0.70585 0.0
H263 H 0.72546 0.92238 0.74513 0.0
H264 H 0.70908 0.75701 0.74977 0.0
H265 H 0.66342 0.80981 0.73912 0.0
H266 H 0.24761 0.8408 0.80131 0.0
H267 H 0.66918 0.87142 0.73722 0.0
H268 H 0.13566 0.01335 0.73549 0.0
N269 N 0.14616 0.87631 0.7637 0.0
C270 C 0.16537 0.90799 0.764 0.0
C271 C 0.22471 0.85993 0.79102 0.0
C272 C 0.21461 0.91698 0.77857 0.0
C273 C 0.1754 0.85221 0.7765 0.0
C274 C 0.24426 0.89247 0.79217 0.0
N275 N 0.08695 0.92225 0.73646 0.0
C276 C 0.06152 0.94387 0.71984 0.0
C277 C 0.15279 0.96479 0.7508 0.0
C278 C 0.1343 0.93166 0.75043 0.0
C279 C 0.12283 0.98768 0.73574 0.0
C280 C 0.07775 0.97703 0.71977 0.0
H281 H 0.28225 0.89841 0.80359 0.0
H282 H 0.26954 0.95748 0.79072 0.0
H283 H 0.21567 0.99928 0.76632 0.0
O284 O 0.08557 0.87123 0.6971 0.0
O285 O 0.06155 0.88431 0.78053 0.0
O286 O 0.97209 0.90725 0.78417 0.0
O287 O 0.13689 0.83984 0.72251 0.0
O288 O 0.9793 0.88691 0.72209 0.0
O289 O 0.93093 0.9067 0.75804 0.0
O290 O 0.92218 0.85123 0.82415 0.0
O291 O 0.9133 0.83653 0.74289 0.0
O292 O 0.00617 0.82075 0.73171 0.0
O293 O 0.85243 0.88061 0.80897 0.0
O294 O 0.99756 0.83417 0.79675 0.0
O295 O 0.05154 0.81826 0.76101 0.0
C296 C 0.02734 0.90717 0.78975 0.0
C297 C 0.17019 0.84344 0.678 0.0
C298 C 0.19893 0.84496 0.63229 0.0
C299 C 0.25066 0.8289 0.63881 0.0
C300 C 0.22221 0.82724 0.68386 0.0
C301 C 0.26199 0.82002 0.66438 0.0
C302 C 0.1584 0.85204 0.65201 0.0
C303 C 0.94136 0.90684 0.73293 0.0
C304 C 0.13008 0.85188 0.69939 0.0
C305 C 0.23211 0.95007 0.77945 0.0
C306 C 0.20124 0.9739 0.76565 0.0
C307 C 0.9496 0.8185 0.72939 0.0
C308 C 0.88608 0.89349 0.85095 0.0
C309 C 0.88284 0.90691 0.89725 0.0
C310 C 0.90124 0.9391 0.89117 0.0
C311 C 0.90479 0.92561 0.84552 0.0
C312 C 0.87534 0.88416 0.87681 0.0
C313 C 0.91237 0.94823 0.86555 0.0
C314 C 0.03709 0.81566 0.7856 0.0
C315 C 0.87784 0.86965 0.82974 0.0
H316 H 0.28221 0.82289 0.624 0.0
H317 H 0.23257 0.82039 0.70361 0.0
H318 H 0.30193 0.80758 0.66914 0.0
H319 H 0.11856 0.86461 0.64719 0.0
H320 H 0.90635 0.95751 0.90618 0.0
H321 H 0.91309 0.93325 0.82576 0.0
H322 H 0.86181 0.85915 0.88094 0.0
H323 H 0.92654 0.97303 0.86118 0.0
Eu324 Eu 0.42876 0.63859 0.23653 0.0
C325 C 0.6688 0.6849 0.27353 0.0
N326 N 0.64984 0.65353 0.27017 0.0
C327 C 0.73584 0.64031 0.24642 0.0
C328 C 0.72161 0.69554 0.2626 0.0
C329 C 0.68281 0.63098 0.25737 0.0
C330 C 0.75512 0.6728 0.24886 0.0
C331 C 0.65321 0.73917 0.29155 0.0
C332 C 0.63474 0.70641 0.28771 0.0
C333 C 0.70507 0.75017 0.28013 0.0
C334 C 0.73921 0.7284 0.26571 0.0
Eu335 Eu 0.56027 0.6395 0.28922 0.0
N336 N 0.58474 0.69503 0.29853 0.0
C337 C 0.61976 0.75969 0.3073 0.0
C338 C 0.55459 0.71422 0.31549 0.0
C339 C 0.57076 0.74697 0.31967 0.0
H340 H 0.66803 0.60584 0.25559 0.0
H341 H 0.54598 0.76221 0.33278 0.0
H342 H 0.33361 0.69634 0.25694 0.0
H343 H 0.37966 0.51207 0.20958 0.0
H344 H 0.51894 0.70425 0.32647 0.0
H345 H 0.63247 0.785 0.31075 0.0
H346 H 0.43618 0.56412 0.21016 0.0
H347 H 0.76172 0.62248 0.23607 0.0
H348 H 0.71966 0.77532 0.28271 0.0
H349 H 0.77941 0.73714 0.25726 0.0
H350 H 0.24038 0.69867 0.28014 0.0
H351 H 0.79603 0.68001 0.24021 0.0
H352 H 0.28795 0.50796 0.23434 0.0
N353 N 0.33626 0.64412 0.2561 0.0
C354 C 0.30491 0.61595 0.25887 0.0
C355 C 0.2585 0.67515 0.27472 0.0
C356 C 0.25 0.61615 0.27089 0.0
C357 C 0.31213 0.67371 0.26218 0.0
C358 C 0.22779 0.64614 0.2796 0.0
N359 N 0.3775 0.58833 0.23537 0.0
C360 C 0.39612 0.56229 0.22092 0.0
C361 C 0.29215 0.55825 0.24811 0.0
C362 C 0.32559 0.58733 0.2477 0.0
C363 C 0.31249 0.53074 0.23458 0.0
C364 C 0.36423 0.53295 0.22056 0.0
H365 H 0.18582 0.64735 0.28895 0.0
H366 H 0.17599 0.58639 0.28214 0.0
H367 H 0.2129 0.53568 0.26214 0.0
O368 O 0.44586 0.63478 0.19498 0.0
O369 O 0.44043 0.59443 0.26338 0.0
O370 O 0.47185 0.61991 0.30004 0.0
O371 O 0.36678 0.65715 0.20813 0.0
O372 O 0.51373 0.61467 0.22535 0.0
O373 O 0.55752 0.59451 0.26263 0.0
O374 O 0.58925 0.64266 0.32935 0.0
O375 O 0.57305 0.66011 0.24849 0.0
O376 O 0.48593 0.68396 0.23965 0.0
O377 O 0.60735 0.59878 0.30737 0.0
O378 O 0.47338 0.66114 0.3012 0.0
O379 O 0.4344 0.68285 0.26375 0.0
C380 C 0.44721 0.59482 0.28863 0.0
C381 C 0.40546 0.67538 0.16824 0.0
C382 C 0.40125 0.69102 0.12256 0.0
C383 C 0.42 0.72286 0.12937 0.0
C384 C 0.4235 0.70728 0.17469 0.0
C385 C 0.43103 0.73085 0.15528 0.0
C386 C 0.39448 0.66733 0.14226 0.0
C387 C 0.54577 0.59283 0.23753 0.0
C388 C 0.39885 0.64996 0.18821 0.0
C389 C 0.21796 0.58677 0.27274 0.0
C390 C 0.23892 0.5579 0.2613 0.0
C391 C 0.54244 0.68309 0.23712 0.0
C392 C 0.67151 0.61311 0.34198 0.0
C393 C 0.72764 0.61326 0.3822 0.0
C394 C 0.77878 0.61555 0.36747 0.0
C395 C 0.72302 0.61526 0.32765 0.0
C396 C 0.67409 0.61188 0.36921 0.0
C397 C 0.77635 0.61637 0.34039 0.0
C398 C 0.43995 0.68243 0.28919 0.0
C399 C 0.61439 0.61419 0.32933 0.0
H400 H 0.42517 0.74176 0.11475 0.0
H401 H 0.43154 0.71384 0.19469 0.0
H402 H 0.44513 0.75545 0.16035 0.0
H403 H 0.38124 0.64247 0.1374 0.0
H404 H 0.82065 0.61644 0.37689 0.0
H405 H 0.72208 0.61638 0.30672 0.0
H406 H 0.63421 0.61078 0.3803 0.0
H407 H 0.81598 0.61809 0.32923 0.0
H408 H 0.09892 0.89816 0.35408 0.0
H409 H 0.1861 0.96402 0.40696 0.0
H410 H 0.06823 0.94482 0.32794 0.0
H411 H 0.15707 0.01086 0.38042 0.0
H412 H 0.052 0.08994 0.33942 0.0
H413 H 0.07792 0.04367 0.36688 0.0
H414 H 0.10636 0.98406 0.29867 0.0
H415 H 0.07724 0.02979 0.27131 0.0
C416 C 0.11162 0.92271 0.36004 0.0
C417 C 0.14501 0.92749 0.38249 0.0
C418 C 0.09439 0.94946 0.34498 0.0
C419 C 0.11064 0.98169 0.35185 0.0
C420 C 0.14314 0.98648 0.37465 0.0
C421 C 0.15988 0.95967 0.38988 0.0
C422 C 0.06373 0.06694 0.33027 0.0
C423 C 0.06302 0.06369 0.30312 0.0
C424 C 0.07903 0.04043 0.34605 0.0
C425 C 0.09439 0.01003 0.33507 0.0
C426 C 0.09401 0.0069 0.30788 0.0
C427 C 0.07815 0.03333 0.29212 0.0
H428 H 0.24153 0.5616 0.86563 0.0
H429 H 0.40985 0.56872 0.90182 0.0
H430 H 0.27379 0.51395 0.84096 0.0
H431 H 0.44169 0.52057 0.8774 0.0
H432 H 0.38332 0.46316 0.77713 0.0
H433 H 0.34547 0.50636 0.805 0.0
H434 H 0.42264 0.45978 0.87168 0.0
H435 H 0.46029 0.41623 0.84389 0.0
C436 C 0.2854 0.55296 0.86837 0.0
C437 C 0.32336 0.56923 0.88547 0.0
C438 C 0.30377 0.52564 0.85426 0.0
C439 C 0.36036 0.51374 0.85709 0.0
C440 C 0.39765 0.52908 0.87497 0.0
C441 C 0.37938 0.55661 0.88899 0.0
C442 C 0.39178 0.46184 0.79775 0.0
C443 C 0.42507 0.43624 0.80822 0.0
C444 C 0.36993 0.48659 0.81373 0.0
C445 C 0.38121 0.48645 0.8405 0.0
C446 C 0.41376 0.46066 0.85107 0.0
C447 C 0.43512 0.43569 0.83513 0.0
H448 H 0.71833 0.52072 0.61147 0.0
H449 H 0.64691 0.59364 0.66315 0.0
H450 H 0.67392 0.47714 0.63756 0.0
H451 H 0.60446 0.55027 0.68964 0.0
H452 H 0.48856 0.46709 0.71736 0.0
H453 H 0.52894 0.50899 0.68878 0.0
H454 H 0.68478 0.45163 0.68019 0.0
H455 H 0.64326 0.40901 0.70791 0.0
C456 C 0.69291 0.52744 0.6283 0.0
C457 C 0.68635 0.56064 0.63528 0.0
C458 C 0.66803 0.50248 0.64342 0.0
C459 C 0.63579 0.51019 0.66576 0.0
C460 C 0.62851 0.54343 0.67244 0.0
C461 C 0.6534 0.5683 0.65739 0.0
C462 C 0.53133 0.4633 0.70928 0.0
C463 C 0.56304 0.43489 0.71523 0.0
C464 C 0.55467 0.48747 0.69303 0.0
C465 C 0.61028 0.48382 0.6823 0.0
C466 C 0.64166 0.45514 0.68795 0.0
C467 C 0.6182 0.43091 0.70415 0.0
H468 H 0.80985 0.96684 0.11575 0.0
H469 H 0.86407 0.90025 0.17616 0.0
H470 H 0.8459 0.0133 0.14107 0.0
H471 H 0.90037 0.94663 0.20142 0.0
H472 H 0.89728 0.0387 0.25172 0.0
H473 H 0.86358 0.99279 0.22562 0.0
H474 H 0.93416 0.03906 0.15704 0.0
H475 H 0.96635 0.08573 0.18319 0.0
C476 C 0.83008 0.96209 0.13431 0.0
C477 C 0.83388 0.92984 0.14398 0.0
C478 C 0.85079 0.98872 0.14882 0.0
C479 C 0.87587 0.98375 0.17334 0.0
C480 C 0.88036 0.95143 0.18283 0.0
C481 C 0.85958 0.92482 0.16835 0.0
C482 C 0.90521 0.03932 0.23108 0.0
C483 C 0.93396 0.06614 0.21957 0.0
C484 C 0.88643 0.01273 0.2161 0.0
C485 C 0.89621 0.01214 0.1892 0.0
C486 C 0.92526 0.0389 0.17766 0.0
C487 C 0.94398 0.06558 0.19268 0.0
H488 H 0.78891 0.03465 0.61461 0.0
H489 H 0.86363 0.09903 0.67223 0.0
H490 H 0.81922 0.98685 0.63979 0.0
H491 H 0.89542 0.05151 0.69708 0.0
H492 H 0.89149 0.96376 0.74963 0.0
H493 H 0.85611 0.00904 0.72345 0.0
H494 H 0.90142 0.95597 0.65374 0.0
H495 H 0.93409 0.90982 0.68004 0.0
C496 C 0.81261 0.03851 0.63248 0.0
C497 C 0.82372 0.07047 0.64156 0.0
C498 C 0.83 0.01117 0.64691 0.0
C499 C 0.85927 0.01529 0.67062 0.0
C500 C 0.87168 0.04738 0.67926 0.0
C501 C 0.85385 0.07463 0.66497 0.0
C502 C 0.89285 0.96143 0.72871 0.0
C503 C 0.91562 0.93317 0.71691 0.0
C504 C 0.87336 0.98764 0.71368 0.0
C505 C 0.87665 0.98641 0.68646 0.0
C506 C 0.89786 0.95771 0.67463 0.0
C507 C 0.91688 0.93132 0.6897 0.0
H508 H 0.63534 0.40228 0.17313 0.0
H509 H 0.69976 0.47136 0.11628 0.0
H510 H 0.60333 0.44775 0.20033 0.0
H511 H 0.66753 0.51688 0.14347 0.0
H512 H 0.54258 0.58656 0.18488 0.0
H513 H 0.57813 0.5417 0.15848 0.0
H514 H 0.6416 0.49295 0.22713 0.0
H515 H 0.60482 0.53795 0.25393 0.0
C516 C 0.64292 0.42719 0.16648 0.0
C517 C 0.67018 0.43316 0.1425 0.0
C518 C 0.62475 0.45326 0.18214 0.0
C519 C 0.63313 0.48597 0.17418 0.0
C520 C 0.65985 0.49196 0.15008 0.0
C521 C 0.67813 0.46587 0.13442 0.0
C522 C 0.56425 0.56641 0.1945 0.0
C523 C 0.57063 0.5659 0.22165 0.0
C524 C 0.58501 0.54071 0.17923 0.0
C525 C 0.61276 0.51371 0.19063 0.0
C526 C 0.61983 0.51326 0.21776 0.0
C527 C 0.59912 0.53914 0.23311 0.0
H528 H 0.29019 0.46954 0.4072 0.0
H529 H 0.36341 0.40161 0.35206 0.0
H530 H 0.32473 0.51569 0.38108 0.0
H531 H 0.39988 0.44751 0.32634 0.0
H532 H 0.40783 0.53477 0.27219 0.0
H533 H 0.3707 0.48967 0.29829 0.0
H534 H 0.40774 0.54521 0.36789 0.0
H535 H 0.44094 0.59118 0.34152 0.0
C536 C 0.31436 0.46454 0.38964 0.0
C537 C 0.32396 0.43202 0.38161 0.0
C538 C 0.33437 0.49096 0.37467 0.0
C539 C 0.36509 0.48548 0.35146 0.0
C540 C 0.37537 0.45282 0.34374 0.0
C541 C 0.35475 0.42645 0.35854 0.0
C542 C 0.40682 0.53765 0.29299 0.0
C543 C 0.42618 0.56689 0.30463 0.0
C544 C 0.38648 0.51148 0.30808 0.0
C545 C 0.38609 0.51361 0.33533 0.0
C546 C 0.40628 0.54278 0.34699 0.0
C547 C 0.42588 0.56911 0.33184 0.0
H548 H 0.19847 0.02718 0.90751 0.0
H549 H 0.1404 0.0963 0.84957 0.0
H550 H 0.15474 0.98232 0.88303 0.0
H551 H 0.09996 0.05126 0.8243 0.0
H552 H 0.9831 0.96838 0.79726 0.0
H553 H 0.02275 0.01264 0.82373 0.0
H554 H 0.16733 0.95088 0.84451 0.0
H555 H 0.12531 0.90594 0.81936 0.0
C556 C 0.17627 0.03287 0.88959 0.0
C557 C 0.173 0.06546 0.88058 0.0
C558 C 0.1519 0.00703 0.87533 0.0
C559 C 0.1239 0.01306 0.85159 0.0
C560 C 0.1205 0.04566 0.84264 0.0
C561 C 0.14447 0.07151 0.85698 0.0
C562 C 0.02303 0.96417 0.80773 0.0
C563 C 0.05142 0.9338 0.80607 0.0
C564 C 0.04619 0.98969 0.82267 0.0
C565 C 0.09856 0.98553 0.83617 0.0
C566 C 0.12663 0.95493 0.83465 0.0
C567 C 0.10304 0.92929 0.81993 0.0
H568 H 0.23122 0.06561 0.9699 0.0
H569 H 0.21607 0.17156 0.96993 0.0
H570 H 0.22693 0.06551 0.01713 0.0
H571 H 0.2141 0.1713 0.01723 0.0
H572 H 0.28402 0.15545 0.10129 0.0
H573 H 0.28385 0.1566 0.05386 0.0
H574 H 0.1542 0.07978 0.05284 0.0
H575 H 0.15431 0.07867 0.10034 0.0
C576 C 0.22654 0.08888 0.97987 0.0
C577 C 0.22393 0.1186 0.96592 0.0
C578 C 0.22429 0.08877 1.00698 0.0
C579 C 0.22018 0.11839 0.02085 0.0
C580 C 0.21788 0.14812 1.00704 0.0
C581 C 0.21934 0.14823 0.97991 0.0
C582 C 0.25552 0.13882 0.09091 0.0
C583 C 0.21928 0.11691 0.10449 0.0
C584 C 0.25512 0.13964 0.0638 0.0
C585 C 0.21909 0.11824 0.04966 0.0
C586 C 0.18271 0.09639 0.06324 0.0
C587 C 0.18247 0.09591 0.09038 0.0
H588 H 0.38641 0.3936 0.46519 0.0
H589 H 0.21411 0.35423 0.47664 0.0
H590 H 0.39939 0.39706 0.51202 0.0
H591 H 0.22797 0.35693 0.52354 0.0
H592 H 0.28725 0.34741 0.60814 0.0
H593 H 0.28731 0.33518 0.56142 0.0
H594 H 0.35334 0.43275 0.54586 0.0
H595 H 0.35262 0.44481 0.59226 0.0
C596 C 0.35129 0.38558 0.47764 0.0
C597 C 0.29882 0.37409 0.467 0.0
C598 C 0.35895 0.38741 0.50451 0.0
C599 C 0.31463 0.37744 0.5215 0.0
C600 C 0.26319 0.3645 0.51096 0.0
C601 C 0.25528 0.36294 0.48404 0.0
C602 C 0.30297 0.36583 0.59466 0.0
C603 C 0.32025 0.39695 0.60367 0.0
C604 C 0.30251 0.359 0.56798 0.0
C605 C 0.32019 0.38303 0.54994 0.0
C606 C 0.34002 0.41359 0.55922 0.0
C607 C 0.3396 0.42054 0.58575 0.0
H608 H 0.6163 0.39601 0.05431 0.0
H609 H 0.79224 0.36099 0.04953 0.0
H610 H 0.60852 0.39332 1.00701 0.0
H611 H 0.78374 0.35688 1.00278 0.0
H612 H 0.77664 0.37375 0.91845 0.0
H613 H 0.77813 0.38843 0.96427 0.0
H614 H 0.60213 0.35317 0.97227 0.0
H615 H 0.60042 0.33964 0.92593 0.0
C616 C 0.65341 0.38794 0.04319 0.0
C617 C 0.70483 0.37857 0.05578 0.0
C618 C 0.64875 0.38607 0.01609 0.0
C619 C 0.69551 0.37497 1.00096 0.0
C620 C 0.74706 0.36608 0.01363 0.0
C621 C 0.75171 0.36797 0.04058 0.0
C622 C 0.73789 0.36988 0.92993 0.0
C623 C 0.68851 0.35549 0.91877 0.0
C624 C 0.73884 0.37795 0.95625 0.0
C625 C 0.6907 0.37132 0.9722 0.0
C626 C 0.63994 0.35875 0.96062 0.0
C627 C 0.63883 0.35099 0.93409 0.0
H628 H 0.88624 0.12306 0.55863 0.0
H629 H 0.7035 0.14274 0.55153 0.0
H630 H 0.89771 0.12946 0.51173 0.0
H631 H 0.71414 0.14809 0.50482 0.0
H632 H 0.75296 0.18631 0.42593 0.0
H633 H 0.75187 0.1838 0.4731 0.0
H634 H 0.87614 0.10461 0.47085 0.0
H635 H 0.87879 0.10838 0.42346 0.0
C636 C 0.8485 0.12848 0.54696 0.0
C637 C 0.79408 0.13267 0.55867 0.0
C638 C 0.85497 0.13207 0.52011 0.0
C639 C 0.80698 0.13963 0.50444 0.0
C640 C 0.75241 0.14318 0.51627 0.0
C641 C 0.74614 0.13995 0.54305 0.0
C642 C 0.78052 0.16868 0.43563 0.0
C643 C 0.81566 0.14739 0.42121 0.0
C644 C 0.77959 0.16699 0.46262 0.0
C645 C 0.81304 0.14354 0.47585 0.0
C646 C 0.85006 0.12309 0.46137 0.0
C647 C 0.85158 0.12515 0.43426 0.0
H648 H 0.71861 0.87104 0.0473 0.0
H649 H 0.9013 0.87236 0.0643 0.0
H650 H 0.74006 0.87589 1.00094 0.0
H651 H 0.92332 0.87552 0.01818 0.0
H652 H 0.94297 0.92609 0.94051 0.0
H653 H 0.92088 0.91479 0.98551 0.0
H654 H 0.7772 0.85311 0.96208 0.0
H655 H 0.79707 0.86641 0.91679 0.0
C656 C 0.76336 0.87161 0.04099 0.0
C657 C 0.8083 0.87165 0.0593 0.0
C658 C 0.77581 0.87429 0.01443 0.0
C659 C 0.83356 0.87663 1.00564 0.0
C660 C 0.87834 0.87479 0.0241 0.0
C661 C 0.86585 0.87267 0.05056 0.0
C662 C 0.90624 0.91038 0.94485 0.0
C663 C 0.8715 0.89752 0.92484 0.0
C664 C 0.89407 0.90338 0.97081 0.0
C665 C 0.84725 0.88286 0.97768 0.0
C666 C 0.81319 0.86933 0.95766 0.0
C667 C 0.8251 0.8766 0.93159 0.0
H668 H 0.75038 0.55977 0.54561 0.0
H669 H 0.73056 0.66543 0.54592 0.0
H670 H 0.74597 0.55983 0.49834 0.0
H671 H 0.72813 0.66539 0.49868 0.0
H672 H 0.79122 0.6534 0.41393 0.0
H673 H 0.79523 0.65306 0.46131 0.0
H674 H 0.67327 0.57229 0.46306 0.0
H675 H 0.66948 0.57253 0.41563 0.0
C676 C 0.74478 0.583 0.5357 0.0
C677 C 0.74087 0.6126 0.54977 0.0
C678 C 0.74243 0.583 0.50857 0.0
C679 C 0.73679 0.61261 0.49478 0.0
C680 C 0.73327 0.64221 0.50874 0.0
C681 C 0.73494 0.6422 0.53587 0.0
C682 C 0.76553 0.63546 0.42444 0.0
C683 C 0.7301 0.61295 0.41105 0.0
C684 C 0.76746 0.63544 0.45157 0.0
C685 C 0.73457 0.61265 0.46593 0.0
C686 C 0.69944 0.58999 0.45253 0.0
C687 C 0.69693 0.59029 0.4254 0.0
H688 H 0.30006 0.5952 0.97795 0.0
H689 H 0.34315 0.69482 0.9559 0.0
H690 H 0.32612 0.60765 0.02278 0.0
H691 H 0.36739 0.70756 1.00082 0.0
H692 H 0.46173 0.7089 0.07894 0.0
H693 H 0.43969 0.69523 0.03393 0.0
H694 H 0.28932 0.6402 0.05901 0.0
H695 H 0.31115 0.65396 0.10394 0.0
C696 C 0.31529 0.61971 0.98266 0.0
C697 C 0.31942 0.64403 0.96337 0.0
C698 C 0.32965 0.62695 1.00839 0.0
C699 C 0.3487 0.65863 0.01541 0.0
C700 C 0.35339 0.68283 0.99605 0.0
C701 C 0.33886 0.67563 0.97035 0.0
C702 C 0.42372 0.6941 0.07483 0.0
C703 C 0.38824 0.68253 0.09508 0.0
C704 C 0.41112 0.68623 0.04903 0.0
C705 C 0.36277 0.66658 0.04286 0.0
C706 C 0.32743 0.65493 0.06311 0.0
C707 C 0.33996 0.66283 0.08888 0.0
H708 H 0.20739 0.91901 0.47285 0.0
H709 H 0.14821 0.81828 0.46867 0.0
H710 H 0.20379 0.91654 0.52015 0.0
H711 H 0.14539 0.81566 0.51604 0.0
H712 H 0.10444 0.83041 0.60222 0.0
H713 H 0.09441 0.83874 0.55526 0.0
H714 H 0.26124 0.88714 0.55354 0.0
H715 H 0.27097 0.87886 0.60018 0.0
C716 C 0.19307 0.89644 0.48203 0.0
C717 C 0.17835 0.86879 0.46699 0.0
C718 C 0.19136 0.89496 0.50913 0.0
C719 C 0.17436 0.8659 0.52187 0.0
C720 C 0.15814 0.83851 0.50683 0.0
C721 C 0.1604 0.83989 0.47971 0.0
C722 C 0.1383 0.84337 0.5918 0.0
C723 C 0.18853 0.85391 0.60477 0.0
C724 C 0.13287 0.84787 0.56494 0.0
C725 C 0.17718 0.86345 0.55066 0.0
C726 C 0.22614 0.87528 0.56395 0.0
C727 C 0.23186 0.87041 0.59064 0.0
H728 H 0.25579 0.28489 0.40346 0.0
H729 H 0.16285 0.36049 0.3623 0.0
H730 H 0.20513 0.24278 0.37817 0.0
H731 H 0.11366 0.31864 0.33656 0.0
H732 H 0.99972 0.2342 0.30851 0.0
H733 H 0.04289 0.2742 0.33819 0.0
H734 H 0.20619 0.22318 0.33349 0.0
H735 H 0.16285 0.18283 0.30456 0.0
C736 C 0.22416 0.2925 0.38921 0.0
C737 C 0.21369 0.32604 0.38477 0.0
C738 C 0.19556 0.26841 0.37452 0.0
C739 C 0.15557 0.27731 0.35518 0.0
C740 C 0.14379 0.31084 0.35139 0.0
C741 C 0.17247 0.33486 0.36598 0.0
C742 C 0.04476 0.23144 0.31391 0.0
C743 C 0.07792 0.20547 0.30389 0.0
C744 C 0.06959 0.25446 0.33084 0.0
C745 C 0.12809 0.25197 0.33822 0.0
C746 C 0.16088 0.22567 0.32851 0.0
C747 C 0.1361 0.2027 0.31162 0.0
H748 H 0.2125 0.17974 0.85572 0.0
H749 H 0.36392 0.17013 0.90411 0.0
H750 H 0.26026 0.22373 0.83134 0.0
H751 H 0.41177 0.21426 0.8797 0.0
H752 H 0.49553 0.26498 0.80709 0.0
H753 H 0.44919 0.22238 0.83344 0.0
H754 H 0.29585 0.28212 0.83986 0.0
H755 H 0.34292 0.32522 0.81446 0.0
C756 C 0.25603 0.18705 0.86111 0.0
C757 C 0.28455 0.1715 0.88179 0.0
C758 C 0.28317 0.21236 0.84729 0.0
C759 C 0.33971 0.2224 0.85363 0.0
C760 C 0.3683 0.20686 0.8743 0.0
C761 C 0.34081 0.18182 0.88837 0.0
C762 C 0.45212 0.26916 0.8143 0.0
C763 C 0.42237 0.29822 0.80817 0.0
C764 C 0.42565 0.24477 0.82941 0.0
C765 C 0.36875 0.24882 0.83851 0.0
C766 C 0.3394 0.27809 0.83275 0.0
C767 C 0.3662 0.30266 0.81802 0.0
H768 H 0.66525 0.14075 0.66489 0.0
H769 H 0.75433 0.21804 0.62323 0.0
H770 H 0.61247 0.1818 0.68978 0.0
H771 H 0.70147 0.25921 0.6482 0.0
H772 H 0.55549 0.32279 0.68194 0.0
H773 H 0.6039 0.28161 0.65516 0.0
H774 H 0.63382 0.22226 0.72328 0.0
H775 H 0.58441 0.26288 0.74983 0.0
C776 C 0.6738 0.16653 0.66116 0.0
C777 C 0.71427 0.17616 0.64223 0.0
C778 C 0.64354 0.19005 0.67541 0.0
C779 C 0.65302 0.22376 0.67107 0.0
C780 C 0.69271 0.23343 0.6518 0.0
C781 C 0.72302 0.20986 0.63752 0.0
C782 C 0.57213 0.30082 0.69112 0.0
C783 C 0.56618 0.29606 0.71797 0.0
C784 C 0.60021 0.27738 0.67583 0.0
C785 C 0.62265 0.24866 0.68709 0.0
C786 C 0.61635 0.2439 0.71394 0.0
C787 C 0.58842 0.26731 0.7292 0.0
H788 H 0.84625 0.3239 0.11116 0.0
H789 H 0.71029 0.32084 0.16867 0.0
H790 H 0.89833 0.28096 0.13464 0.0
H791 H 0.76279 0.2786 0.1924 0.0
H792 H 0.84423 0.18105 0.21471 0.0
H793 H 0.79204 0.22078 0.18832 0.0
H794 H 0.95101 0.27503 0.17612 0.0
H795 H 0.00272 0.23551 0.20303 0.0
C796 C 0.82732 0.31388 0.1287 0.0
C797 C 0.77424 0.32579 0.13811 0.0
C798 C 0.8574 0.28955 0.14227 0.0
C799 C 0.83476 0.27644 0.16541 0.0
C800 C 0.78117 0.28796 0.17452 0.0
C801 C 0.75134 0.31237 0.16106 0.0
C802 C 0.86765 0.20192 0.20696 0.0
C803 C 0.92704 0.2059 0.21189 0.0
C804 C 0.83794 0.22447 0.19158 0.0
C805 C 0.8672 0.25134 0.18042 0.0
C806 C 0.92723 0.25454 0.18439 0.0
C807 C 0.95688 0.23196 0.19991 0.0
H808 H 0.72544 0.67129 0.66158 0.0
H809 H 0.87446 0.66941 0.61095 0.0
H810 H 0.77033 0.71482 0.68707 0.0
H811 H 0.91885 0.71395 0.63608 0.0
H812 H 0.00428 0.7659 0.70692 0.0
H813 H 0.96142 0.7235 0.67926 0.0
H814 H 0.79617 0.77251 0.68377 0.0
H815 H 0.83877 0.81473 0.71119 0.0
C816 C 0.76783 0.68024 0.65586 0.0
C817 C 0.79651 0.66674 0.63431 0.0
C818 C 0.79332 0.70545 0.67032 0.0
C819 C 0.84819 0.71793 0.66361 0.0
C820 C 0.87677 0.70468 0.64191 0.0
C821 C 0.85111 0.67943 0.62735 0.0
C822 C 0.9589 0.76772 0.70186 0.0
C823 C 0.9248 0.79347 0.71162 0.0
C824 C 0.93439 0.74348 0.68594 0.0
C825 C 0.87526 0.74447 0.67944 0.0
C826 C 0.84158 0.77063 0.68877 0.0
C827 C 0.86607 0.79486 0.70455 0.0
H828 H 0.79289 0.81536 0.16863 0.0
H829 H 0.64586 0.82583 0.11778 0.0
H830 H 0.74014 0.77421 0.19397 0.0
H831 H 0.59246 0.78466 0.14344 0.0
H832 H 0.50322 0.74281 0.21993 0.0
H833 H 0.55304 0.78162 0.1911 0.0
H834 H 0.69922 0.71614 0.18681 0.0
H835 H 0.64841 0.67673 0.21433 0.0
C836 C 0.74929 0.8087 0.16284 0.0
C837 C 0.72341 0.82375 0.14126 0.0
C838 C 0.7192 0.78509 0.17727 0.0
C839 C 0.66217 0.77629 0.17071 0.0
C840 C 0.63626 0.79116 0.14901 0.0
C841 C 0.66687 0.81445 0.13424 0.0
C842 C 0.54553 0.73645 0.21244 0.0
C843 C 0.57194 0.70671 0.21954 0.0
C844 C 0.57407 0.7587 0.196 0.0
C845 C 0.63008 0.75193 0.18678 0.0
C846 C 0.65632 0.72217 0.19382 0.0
C847 C 0.62735 0.6997 0.20976 0.0
H848 H 0.18548 0.81937 0.34983 0.0
H849 H 0.3123 0.81127 0.41106 0.0
H850 H 0.23979 0.78 0.32388 0.0
H851 H 0.36567 0.77117 0.38526 0.0
H852 H 0.39383 0.74164 0.27469 0.0
H853 H 0.33707 0.7794 0.30136 0.0
H854 H 0.35458 0.71408 0.36683 0.0
H855 H 0.41024 0.67607 0.34012 0.0
C856 C 0.22492 0.80923 0.3578 0.0
C857 C 0.2447 0.81878 0.38251 0.0
C858 C 0.25598 0.78665 0.34289 0.0
C859 C 0.30722 0.77272 0.35244 0.0
C860 C 0.32609 0.78135 0.37746 0.0
C861 C 0.29531 0.80422 0.39229 0.0
C862 C 0.385 0.73519 0.29469 0.0
C863 C 0.40603 0.70572 0.3052 0.0
C864 C 0.35255 0.7568 0.30996 0.0
C865 C 0.34124 0.74963 0.33617 0.0
C866 C 0.36294 0.72038 0.34676 0.0
C867 C 0.39476 0.69862 0.33143 0.0
H868 H 0.26287 0.72064 0.89672 0.0
H869 H 0.17085 0.64041 0.85989 0.0
H870 H 0.2086 0.75981 0.87047 0.0
H871 H 0.11859 0.67962 0.83306 0.0
H872 H 0.09443 0.76045 0.76989 0.0
H873 H 0.14646 0.72116 0.7971 0.0
H874 H 0.1018 0.77742 0.86517 0.0
H875 H 0.04946 0.81655 0.83812 0.0
C876 C 0.23085 0.71132 0.88323 0.0
C877 C 0.22153 0.67729 0.88039 0.0
C878 C 0.20003 0.73377 0.86812 0.0
C879 C 0.15979 0.72266 0.84965 0.0
C880 C 0.15005 0.68877 0.8469 0.0
C881 C 0.1802 0.66636 0.86223 0.0
C882 C 0.09565 0.76437 0.79066 0.0
C883 C 0.06773 0.79148 0.80188 0.0
C884 C 0.12518 0.74185 0.80621 0.0
C885 C 0.12809 0.74634 0.8332 0.0
C886 C 0.10049 0.77354 0.84439 0.0
C887 C 0.07021 0.79575 0.82892 0.0
loop_
_geom_bond_atom_site_label_1
_geom_bond_atom_site_label_2
_geom_bond_distance
_geom_bond_site_symmetry_2
_ccdc_geom_bond_type
H0 C3 0.931 . S
H1 C6 0.928 . S
H2 C8 0.930 . S
C3 H0 0.931 . S
C3 C4 1.413 . S
C3 C5 1.360 . S
C4 C3 1.413 . S
C4 C8 1.429 . S
C5 C3 1.360 . S
C5 C6 1.372 . S
C6 H1 0.928 . S
C6 C5 1.372 . S
C6 C7 1.404 . S
C7 C6 1.404 . S
C7 C8 1.391 . S
C8 H2 0.930 . S
C8 C4 1.429 . S
C8 C7 1.391 . S
H9 C12 0.931 . S
H10 C15 0.928 . S
H11 C17 0.930 . S
C12 H9 0.931 . S
C12 C13 1.413 . S
C12 C14 1.360 . S
C13 C12 1.413 . S
C13 C17 1.429 . S
C14 C12 1.360 . S
C14 C15 1.372 . S
C15 H10 0.928 . S
C15 C14 1.372 . S
C15 C16 1.404 . S
C16 C15 1.404 . S
C16 C17 1.391 . S
C17 H11 0.930 . S
C17 C13 1.429 . S
C17 C16 1.391 . S
H18 C21 0.931 . S
H19 C24 0.928 . S
H20 C26 0.930 . S
C21 H18 0.931 . S
C21 C22 1.413 . S
C21 C23 1.360 . S
C22 C21 1.413 . S
C22 C26 1.429 . S
C23 C21 1.360 . S
C23 C24 1.372 . S
C24 H19 0.928 . S
C24 C23 1.372 . S
C24 C25 1.404 . S
C25 C24 1.404 . S
C25 C26 1.391 . S
C26 H20 0.930 . S
C26 C22 1.429 . S
C26 C25 1.391 . S
H27 C30 0.931 . S
H28 C33 0.928 . S
H29 C35 0.930 . S
C30 H27 0.931 . S
C30 C31 1.413 . S
C30 C32 1.360 . S
C31 C30 1.413 . S
C31 C35 1.429 . S
C32 C30 1.360 . S
C32 C33 1.372 . S
C33 H28 0.928 . S
C33 C32 1.372 . S
C33 C34 1.404 . S
C34 C33 1.404 . S
C34 C35 1.391 . S
C35 H29 0.930 . S
C35 C31 1.429 . S
C35 C34 1.391 . S
H36 C39 0.931 . S
H37 C42 0.928 . S
H38 C44 0.930 . S
C39 H36 0.931 . S
C39 C40 1.413 . S
C39 C41 1.360 . S
C40 C39 1.413 . S
C40 C44 1.429 . S
C41 C39 1.360 . S
C41 C42 1.372 . S
C42 H37 0.928 . S
C42 C41 1.372 . S
C42 C43 1.404 . S
C43 C42 1.404 . S
C43 C44 1.391 . S
C44 H38 0.930 . S
C44 C40 1.429 . S
C44 C43 1.391 . S
H45 C48 0.931 . S
H46 C51 0.928 . S
H47 C53 0.930 . S
C48 H45 0.931 . S
C48 C49 1.413 . S
C48 C50 1.360 . S
C49 C48 1.413 . S
C49 C53 1.429 . S
C50 C48 1.360 . S
C50 C51 1.372 . S
C51 H46 0.928 . S
C51 C50 1.372 . S
C51 C52 1.404 . S
C52 C51 1.404 . S
C52 C53 1.391 . S
C53 H47 0.930 . S
C53 C49 1.429 . S
C53 C52 1.391 . S
H54 C57 0.931 . S
H55 C60 0.928 . S
H56 C62 0.930 . S
C57 H54 0.931 . S
C57 C58 1.413 . S
C57 C59 1.360 . S
C58 C57 1.413 . S
C58 C62 1.429 . S
C59 C57 1.360 . S
C59 C60 1.372 . S
C60 H55 0.928 . S
C60 C59 1.372 . S
C60 C61 1.404 . S
C61 C60 1.404 . S
C61 C62 1.391 . S
C62 H56 0.930 . S
C62 C58 1.429 . S
C62 C61 1.391 . S
H63 C66 0.931 . S
H64 C69 0.928 . S
H65 C71 0.930 . S
C66 H63 0.931 . S
C66 C67 1.413 . S
C66 C68 1.360 . S
C67 C66 1.413 . S
C67 C71 1.429 . S
C68 C66 1.360 . S
C68 C69 1.372 . S
C69 H64 0.928 . S
C69 C68 1.372 . S
C69 C70 1.404 . S
C70 C69 1.404 . S
C70 C71 1.391 . S
C71 H65 0.930 . S
C71 C67 1.429 . S
C71 C70 1.391 . S
Eu72 N101 2.600 . S
Eu72 N107 2.562 . S
Eu72 O116 2.462 . S
Eu72 O117 2.373 . S
Eu72 O119 2.432 . S
Eu72 O120 2.291 . S
Eu72 O124 2.335 . S
Eu72 O127 2.372 . S
Eu72 C136 2.787 . S
C73 N74 1.365 . S
C73 C76 1.405 . S
C73 C80 1.448 . S
N74 C73 1.365 . S
N74 C77 1.319 . S
N74 Eu83 2.600 . S
C75 C77 1.397 . S
C75 C78 1.367 . S
C75 H95 0.931 . S
C76 C73 1.405 . S
C76 C78 1.403 . S
C76 C82 1.439 . S
C77 N74 1.319 . S
C77 C75 1.397 . S
C77 H88 0.930 . S
C78 C75 1.367 . S
C78 C76 1.403 . S
C78 H99 0.929 . S
C79 C80 1.430 . S
C79 C81 1.387 . S
C79 C85 1.404 . S
C80 C73 1.448 . S
C80 C79 1.430 . S
C80 N84 1.351 . S
C81 C79 1.387 . S
C81 C82 1.374 . S
C81 H96 0.931 . S
C82 C76 1.439 . S
C82 C81 1.374 . S
C82 H97 0.931 . S
Eu83 N74 2.600 . S
Eu83 N84 2.562 . S
Eu83 O118 2.335 1_655 S
Eu83 O121 2.372 . S
Eu83 O122 2.462 . S
Eu83 O123 2.373 . S
Eu83 O125 2.432 . S
Eu83 O126 2.291 1_655 S
Eu83 C147 2.787 . S
N84 C80 1.351 . S
N84 Eu83 2.562 . S
N84 C86 1.325 . S
C85 C79 1.404 . S
C85 C87 1.366 . S
C85 H93 0.930 . S
C86 N84 1.325 . S
C86 C87 1.416 . S
C86 H92 0.929 . S
C87 C85 1.366 . S
C87 C86 1.416 . S
C87 H89 0.930 . S
H88 C77 0.930 . S
H89 C87 0.930 . S
H90 C105 0.930 . S
H91 C112 0.930 . S
H92 C86 0.929 . S
H93 C85 0.930 . S
H94 C108 0.929 . S
H95 C75 0.931 . S
H96 C81 0.931 . S
H97 C82 0.931 . S
H98 C103 0.931 . S
H99 C78 0.929 . S
H100 C111 0.930 . S
N101 Eu72 2.600 . S
N101 C102 1.365 . S
N101 C105 1.319 . S
C102 N101 1.365 . S
C102 C104 1.405 . S
C102 C110 1.448 . S
C103 H98 0.931 . S
C103 C105 1.397 . S
C103 C106 1.367 . S
C104 C102 1.405 . S
C104 C106 1.403 . S
C104 C137 1.439 . S
C105 H90 0.930 . S
C105 N101 1.319 . S
C105 C103 1.397 . S
C106 C103 1.367 . S
C106 C104 1.403 . S
C106 H113 0.929 . S
N107 Eu72 2.562 . S
N107 C108 1.325 . S
N107 C110 1.351 . S
C108 H94 0.929 . S
C108 N107 1.325 . S
C108 C112 1.416 . S
C109 C110 1.430 . S
C109 C111 1.404 . S
C109 C138 1.387 . S
C110 C102 1.448 . S
C110 N107 1.351 . S
C110 C109 1.430 . S
C111 H100 0.930 . S
C111 C109 1.404 . S
C111 C112 1.366 . S
C112 H91 0.930 . S
C112 C108 1.416 . S
C112 C111 1.366 . S
H113 C106 0.929 . S
H114 C137 0.931 . S
H115 C138 0.931 . S
O116 Eu72 2.462 . S
O116 C136 1.252 . S
O117 Eu72 2.373 . S
O117 C128 1.249 . S
O118 Eu83 2.335 1_455 S
O118 C128 1.264 . S
O119 Eu72 2.432 . S
O119 C136 1.268 . S
O120 Eu72 2.291 . S
O120 C135 1.255 1_455 S
O121 Eu83 2.372 . S
O121 C135 1.257 . S
O122 Eu83 2.462 . S
O122 C147 1.252 . S
O123 Eu83 2.373 . S
O123 C139 1.249 . S
O124 Eu72 2.335 . S
O124 C139 1.264 1_455 S
O125 Eu83 2.432 . S
O125 C147 1.268 . S
O126 Eu83 2.291 1_455 S
O126 C146 1.255 . S
O127 Eu72 2.372 . S
O127 C146 1.257 . S
C128 O117 1.249 . S
C128 O118 1.264 . S
C129 C132 1.382 . S
C129 C134 1.390 . S
C129 C136 1.506 . S
C130 C131 1.398 . S
C130 C134 1.392 . S
C131 C130 1.398 . S
C131 C133 1.372 . S
C131 H148 0.931 . S
C132 C129 1.382 . S
C132 C133 1.390 . S
C132 H149 0.931 . S
C133 C131 1.372 . S
C133 C132 1.390 . S
C133 H150 0.929 . S
C134 C129 1.390 . S
C134 C130 1.392 . S
C134 H151 0.930 . S
C135 O120 1.255 1_655 S
C135 O121 1.257 . S
C136 Eu72 2.787 . S
C136 O116 1.252 . S
C136 O119 1.268 . S
C136 C129 1.506 . S
C137 C104 1.439 . S
C137 H114 0.931 . S
C137 C138 1.374 . S
C138 C109 1.387 . S
C138 H115 0.931 . S
C138 C137 1.374 . S
C139 O123 1.249 . S
C139 O124 1.264 1_655 S
C140 C143 1.382 . S
C140 C144 1.390 . S
C140 C147 1.506 . S
C141 C142 1.398 . S
C141 C144 1.392 . S
C142 C141 1.398 . S
C142 C145 1.372 . S
C142 H152 0.931 . S
C143 C140 1.382 . S
C143 C145 1.390 . S
C143 H153 0.931 . S
C144 C140 1.390 . S
C144 C141 1.392 . S
C144 H154 0.930 . S
C145 C142 1.372 . S
C145 C143 1.390 . S
C145 H155 0.929 . S
C146 O126 1.255 . S
C146 O127 1.257 . S
C147 Eu83 2.787 . S
C147 O122 1.252 . S
C147 O125 1.268 . S
C147 C140 1.506 . S
H148 C131 0.931 . S
H149 C132 0.931 . S
H150 C133 0.929 . S
H151 C134 0.930 . S
H152 C142 0.931 . S
H153 C143 0.931 . S
H154 C144 0.930 . S
H155 C145 0.929 . S
Eu156 N185 2.600 . S
Eu156 N191 2.562 . S
Eu156 O200 2.462 . S
Eu156 O201 2.373 . S
Eu156 O203 2.432 . S
Eu156 O204 2.291 . S
Eu156 O208 2.335 . S
Eu156 O211 2.372 . S
Eu156 C220 2.787 . S
C157 N158 1.365 . S
C157 C160 1.405 . S
C157 C164 1.448 . S
N158 C157 1.365 . S
N158 C161 1.319 . S
N158 Eu167 2.600 . S
C159 C161 1.397 . S
C159 C162 1.367 . S
C159 H179 0.931 . S
C160 C157 1.405 . S
C160 C162 1.403 . S
C160 C166 1.439 . S
C161 N158 1.319 . S
C161 C159 1.397 . S
C161 H172 0.930 . S
C162 C159 1.367 . S
C162 C160 1.403 . S
C162 H183 0.929 . S
C163 C164 1.430 . S
C163 C165 1.387 . S
C163 C169 1.404 . S
C164 C157 1.448 . S
C164 C163 1.430 . S
C164 N168 1.351 . S
C165 C163 1.387 . S
C165 C166 1.374 . S
C165 H180 0.931 . S
C166 C160 1.439 . S
C166 C165 1.374 . S
C166 H181 0.931 . S
Eu167 N158 2.600 . S
Eu167 N168 2.562 . S
Eu167 O202 2.335 . S
Eu167 O205 2.372 . S
Eu167 O206 2.462 . S
Eu167 O207 2.373 . S
Eu167 O209 2.432 . S
Eu167 O210 2.291 . S
Eu167 C231 2.787 . S
N168 C164 1.351 . S
N168 Eu167 2.562 . S
N168 C170 1.325 . S
C169 C163 1.404 . S
C169 C171 1.366 . S
C169 H177 0.930 . S
C170 N168 1.325 . S
C170 C171 1.416 . S
C170 H176 0.929 . S
C171 C169 1.366 . S
C171 C170 1.416 . S
C171 H173 0.930 . S
H172 C161 0.930 . S
H173 C171 0.930 . S
H174 C189 0.930 . S
H175 C196 0.930 . S
H176 C170 0.929 . S
H177 C169 0.930 . S
H178 C192 0.929 . S
H179 C159 0.931 . S
H180 C165 0.931 . S
H181 C166 0.931 . S
H182 C187 0.931 . S
H183 C162 0.929 . S
H184 C195 0.930 . S
N185 Eu156 2.600 . S
N185 C186 1.365 . S
N185 C189 1.319 . S
C186 N185 1.365 . S
C186 C188 1.405 . S
C186 C194 1.448 . S
C187 H182 0.931 . S
C187 C189 1.397 . S
C187 C190 1.367 . S
C188 C186 1.405 . S
C188 C190 1.403 . S
C188 C221 1.439 . S
C189 H174 0.930 . S
C189 N185 1.319 . S
C189 C187 1.397 . S
C190 C187 1.367 . S
C190 C188 1.403 . S
C190 H197 0.929 . S
N191 Eu156 2.562 . S
N191 C192 1.325 . S
N191 C194 1.351 . S
C192 H178 0.929 . S
C192 N191 1.325 . S
C192 C196 1.416 . S
C193 C194 1.430 . S
C193 C195 1.404 . S
C193 C222 1.387 . S
C194 C186 1.448 . S
C194 N191 1.351 . S
C194 C193 1.430 . S
C195 H184 0.930 . S
C195 C193 1.404 . S
C195 C196 1.366 . S
C196 H175 0.930 . S
C196 C192 1.416 . S
C196 C195 1.366 . S
H197 C190 0.929 . S
H198 C221 0.931 . S
H199 C222 0.931 . S
O200 Eu156 2.462 . S
O200 C220 1.252 . S
O201 Eu156 2.373 . S
O201 C212 1.249 . S
O202 Eu167 2.335 . S
O202 C212 1.264 . S
O203 Eu156 2.432 . S
O203 C220 1.268 . S
O204 Eu156 2.291 . S
O204 C219 1.255 . S
O205 Eu167 2.372 . S
O205 C219 1.257 . S
O206 Eu167 2.462 . S
O206 C231 1.252 . S
O207 Eu167 2.373 . S
O207 C223 1.249 . S
O208 Eu156 2.335 . S
O208 C223 1.264 . S
O209 Eu167 2.432 . S
O209 C231 1.268 . S
O210 Eu167 2.291 . S
O210 C230 1.255 . S
O211 Eu156 2.372 . S
O211 C230 1.257 . S
C212 O201 1.249 . S
C212 O202 1.264 . S
C213 C216 1.382 . S
C213 C218 1.390 . S
C213 C220 1.506 . S
C214 C215 1.398 . S
C214 C218 1.392 . S
C215 C214 1.398 . S
C215 C217 1.372 . S
C215 H232 0.931 . S
C216 C213 1.382 . S
C216 C217 1.390 . S
C216 H233 0.931 . S
C217 C215 1.372 . S
C217 C216 1.390 . S
C217 H234 0.929 . S
C218 C213 1.390 . S
C218 C214 1.392 . S
C218 H235 0.930 . S
C219 O204 1.255 . S
C219 O205 1.257 . S
C220 Eu156 2.787 . S
C220 O200 1.252 . S
C220 O203 1.268 . S
C220 C213 1.506 . S
C221 C188 1.439 . S
C221 H198 0.931 . S
C221 C222 1.374 . S
C222 C193 1.387 . S
C222 H199 0.931 . S
C222 C221 1.374 . S
C223 O207 1.249 . S
C223 O208 1.264 . S
C224 C227 1.382 . S
C224 C228 1.390 . S
C224 C231 1.506 . S
C225 C226 1.398 . S
C225 C228 1.392 . S
C226 C225 1.398 . S
C226 C229 1.372 . S
C226 H236 0.931 . S
C227 C224 1.382 . S
C227 C229 1.390 . S
C227 H237 0.931 . S
C228 C224 1.390 . S
C228 C225 1.392 . S
C228 H238 0.930 . S
C229 C226 1.372 . S
C229 C227 1.390 . S
C229 H239 0.929 . S
C230 O210 1.255 . S
C230 O211 1.257 . S
C231 Eu167 2.787 . S
C231 O206 1.252 . S
C231 O209 1.268 . S
C231 C224 1.506 . S
H232 C215 0.931 . S
H233 C216 0.931 . S
H234 C217 0.929 . S
H235 C218 0.930 . S
H236 C226 0.931 . S
H237 C227 0.931 . S
H238 C228 0.930 . S
H239 C229 0.929 . S
Eu240 N269 2.600 . S
Eu240 N275 2.562 . S
Eu240 O284 2.462 . S
Eu240 O285 2.373 . S
Eu240 O287 2.432 . S
Eu240 O288 2.291 . S
Eu240 O292 2.335 . S
Eu240 O295 2.372 . S
Eu240 C304 2.787 . S
C241 N242 1.365 . S
C241 C244 1.405 . S
C241 C248 1.448 . S
N242 C241 1.365 . S
N242 C245 1.319 . S
N242 Eu251 2.600 . S
C243 C245 1.397 . S
C243 C246 1.367 . S
C243 H263 0.931 . S
C244 C241 1.405 . S
C244 C246 1.403 . S
C244 C250 1.439 . S
C245 N242 1.319 . S
C245 C243 1.397 . S
C245 H256 0.930 . S
C246 C243 1.367 . S
C246 C244 1.403 . S
C246 H267 0.929 . S
C247 C248 1.430 . S
C247 C249 1.387 . S
C247 C253 1.404 . S
C248 C241 1.448 . S
C248 C247 1.430 . S
C248 N252 1.351 . S
C249 C247 1.387 . S
C249 C250 1.374 . S
C249 H264 0.931 . S
C250 C244 1.439 . S
C250 C249 1.374 . S
C250 H265 0.931 . S
Eu251 N242 2.600 . S
Eu251 N252 2.562 . S
Eu251 O286 2.335 1_655 S
Eu251 O289 2.372 . S
Eu251 O290 2.462 . S
Eu251 O291 2.373 . S
Eu251 O293 2.432 . S
Eu251 O294 2.291 1_655 S
Eu251 C315 2.787 . S
N252 C248 1.351 . S
N252 Eu251 2.562 . S
N252 C254 1.325 . S
C253 C247 1.404 . S
C253 C255 1.366 . S
C253 H261 0.930 . S
C254 N252 1.325 . S
C254 C255 1.416 . S
C254 H260 0.929 . S
C255 C253 1.366 . S
C255 C254 1.416 . S
C255 H257 0.930 . S
H256 C245 0.930 . S
H257 C255 0.930 . S
H258 C273 0.930 . S
H259 C280 0.930 . S
H260 C254 0.929 . S
H261 C253 0.930 . S
H262 C276 0.929 . S
H263 C243 0.931 . S
H264 C249 0.931 . S
H265 C250 0.931 . S
H266 C271 0.931 . S
H267 C246 0.929 . S
H268 C279 0.930 . S
N269 Eu240 2.600 . S
N269 C270 1.365 . S
N269 C273 1.319 . S
C270 N269 1.365 . S
C270 C272 1.405 . S
C270 C278 1.448 . S
C271 H266 0.931 . S
C271 C273 1.397 . S
C271 C274 1.367 . S
C272 C270 1.405 . S
C272 C274 1.403 . S
C272 C305 1.439 . S
C273 H258 0.930 . S
C273 N269 1.319 . S
C273 C271 1.397 . S
C274 C271 1.367 . S
C274 C272 1.403 . S
C274 H281 0.929 . S
N275 Eu240 2.562 . S
N275 C276 1.325 . S
N275 C278 1.351 . S
C276 H262 0.929 . S
C276 N275 1.325 . S
C276 C280 1.416 . S
C277 C278 1.430 . S
C277 C279 1.404 . S
C277 C306 1.387 . S
C278 C270 1.448 . S
C278 N275 1.351 . S
C278 C277 1.430 . S
C279 H268 0.930 . S
C279 C277 1.404 . S
C279 C280 1.366 . S
C280 H259 0.930 . S
C280 C276 1.416 . S
C280 C279 1.366 . S
H281 C274 0.929 . S
H282 C305 0.931 . S
H283 C306 0.931 . S
O284 Eu240 2.462 . S
O284 C304 1.252 . S
O285 Eu240 2.373 . S
O285 C296 1.249 . S
O286 Eu251 2.335 1_455 S
O286 C296 1.264 . S
O287 Eu240 2.432 . S
O287 C304 1.268 . S
O288 Eu240 2.291 . S
O288 C303 1.255 1_455 S
O289 Eu251 2.372 . S
O289 C303 1.257 . S
O290 Eu251 2.462 . S
O290 C315 1.252 . S
O291 Eu251 2.373 . S
O291 C307 1.249 . S
O292 Eu240 2.335 . S
O292 C307 1.264 1_455 S
O293 Eu251 2.432 . S
O293 C315 1.268 . S
O294 Eu251 2.291 1_455 S
O294 C314 1.255 . S
O295 Eu240 2.372 . S
O295 C314 1.257 . S
C296 O285 1.249 . S
C296 O286 1.264 . S
C297 C300 1.382 . S
C297 C302 1.390 . S
C297 C304 1.506 . S
C298 C299 1.398 . S
C298 C302 1.392 . S
C299 C298 1.398 . S
C299 C301 1.372 . S
C299 H316 0.931 . S
C300 C297 1.382 . S
C300 C301 1.390 . S
C300 H317 0.931 . S
C301 C299 1.372 . S
C301 C300 1.390 . S
C301 H318 0.929 . S
C302 C297 1.390 . S
C302 C298 1.392 . S
C302 H319 0.930 . S
C303 O288 1.255 1_655 S
C303 O289 1.257 . S
C304 Eu240 2.787 . S
C304 O284 1.252 . S
C304 O287 1.268 . S
C304 C297 1.506 . S
C305 C272 1.439 . S
C305 H282 0.931 . S
C305 C306 1.374 . S
C306 C277 1.387 . S
C306 H283 0.931 . S
C306 C305 1.374 . S
C307 O291 1.249 . S
C307 O292 1.264 1_655 S
C308 C311 1.382 . S
C308 C312 1.390 . S
C308 C315 1.506 . S
C309 C310 1.398 . S
C309 C312 1.392 . S
C310 C309 1.398 . S
C310 C313 1.372 . S
C310 H320 0.931 . S
C311 C308 1.382 . S
C311 C313 1.390 . S
C311 H321 0.931 . S
C312 C308 1.390 . S
C312 C309 1.392 . S
C312 H322 0.930 . S
C313 C310 1.372 . S
C313 C311 1.390 . S
C313 H323 0.929 . S
C314 O294 1.255 . S
C314 O295 1.257 . S
C315 Eu251 2.787 . S
C315 O290 1.252 . S
C315 O293 1.268 . S
C315 C308 1.506 . S
H316 C299 0.931 . S
H317 C300 0.931 . S
H318 C301 0.929 . S
H319 C302 0.930 . S
H320 C310 0.931 . S
H321 C311 0.931 . S
H322 C312 0.930 . S
H323 C313 0.929 . S
Eu324 N353 2.600 . S
Eu324 N359 2.562 . S
Eu324 O368 2.462 . S
Eu324 O369 2.373 . S
Eu324 O371 2.432 . S
Eu324 O372 2.291 . S
Eu324 O376 2.335 . S
Eu324 O379 2.372 . S
Eu324 C388 2.787 . S
C325 N326 1.365 . S
C325 C328 1.405 . S
C325 C332 1.448 . S
N326 C325 1.365 . S
N326 C329 1.319 . S
N326 Eu335 2.600 . S
C327 C329 1.397 . S
C327 C330 1.367 . S
C327 H347 0.931 . S
C328 C325 1.405 . S
C328 C330 1.403 . S
C328 C334 1.439 . S
C329 N326 1.319 . S
C329 C327 1.397 . S
C329 H340 0.930 . S
C330 C327 1.367 . S
C330 C328 1.403 . S
C330 H351 0.929 . S
C331 C332 1.430 . S
C331 C333 1.387 . S
C331 C337 1.404 . S
C332 C325 1.448 . S
C332 C331 1.430 . S
C332 N336 1.351 . S
C333 C331 1.387 . S
C333 C334 1.374 . S
C333 H348 0.931 . S
C334 C328 1.439 . S
C334 C333 1.374 . S
C334 H349 0.931 . S
Eu335 N326 2.600 . S
Eu335 N336 2.562 . S
Eu335 O370 2.335 . S
Eu335 O373 2.372 . S
Eu335 O374 2.462 . S
Eu335 O375 2.373 . S
Eu335 O377 2.432 . S
Eu335 O378 2.291 . S
Eu335 C399 2.787 . S
N336 C332 1.351 . S
N336 Eu335 2.562 . S
N336 C338 1.325 . S
C337 C331 1.404 . S
C337 C339 1.366 . S
C337 H345 0.930 . S
C338 N336 1.325 . S
C338 C339 1.416 . S
C338 H344 0.929 . S
C339 C337 1.366 . S
C339 C338 1.416 . S
C339 H341 0.930 . S
H340 C329 0.930 . S
H341 C339 0.930 . S
H342 C357 0.930 . S
H343 C364 0.930 . S
H344 C338 0.929 . S
H345 C337 0.930 . S
H346 C360 0.929 . S
H347 C327 0.931 . S
H348 C333 0.931 . S
H349 C334 0.931 . S
H350 C355 0.931 . S
H351 C330 0.929 . S
H352 C363 0.930 . S
N353 Eu324 2.600 . S
N353 C354 1.365 . S
N353 C357 1.319 . S
C354 N353 1.365 . S
C354 C356 1.405 . S
C354 C362 1.448 . S
C355 H350 0.931 . S
C355 C357 1.397 . S
C355 C358 1.367 . S
C356 C354 1.405 . S
C356 C358 1.403 . S
C356 C389 1.439 . S
C357 H342 0.930 . S
C357 N353 1.319 . S
C357 C355 1.397 . S
C358 C355 1.367 . S
C358 C356 1.403 . S
C358 H365 0.929 . S
N359 Eu324 2.562 . S
N359 C360 1.325 . S
N359 C362 1.351 . S
C360 H346 0.929 . S
C360 N359 1.325 . S
C360 C364 1.416 . S
C361 C362 1.430 . S
C361 C363 1.404 . S
C361 C390 1.387 . S
C362 C354 1.448 . S
C362 N359 1.351 . S
C362 C361 1.430 . S
C363 H352 0.930 . S
C363 C361 1.404 . S
C363 C364 1.366 . S
C364 H343 0.930 . S
C364 C360 1.416 . S
C364 C363 1.366 . S
H365 C358 0.929 . S
H366 C389 0.931 . S
H367 C390 0.931 . S
O368 Eu324 2.462 . S
O368 C388 1.252 . S
O369 Eu324 2.373 . S
O369 C380 1.249 . S
O370 Eu335 2.335 . S
O370 C380 1.264 . S
O371 Eu324 2.432 . S
O371 C388 1.268 . S
O372 Eu324 2.291 . S
O372 C387 1.255 . S
O373 Eu335 2.372 . S
O373 C387 1.257 . S
O374 Eu335 2.462 . S
O374 C399 1.252 . S
O375 Eu335 2.373 . S
O375 C391 1.249 . S
O376 Eu324 2.335 . S
O376 C391 1.264 . S
O377 Eu335 2.432 . S
O377 C399 1.268 . S
O378 Eu335 2.291 . S
O378 C398 1.255 . S
O379 Eu324 2.372 . S
O379 C398 1.257 . S
C380 O369 1.249 . S
C380 O370 1.264 . S
C381 C384 1.382 . S
C381 C386 1.390 . S
C381 C388 1.506 . S
C382 C383 1.398 . S
C382 C386 1.392 . S
C383 C382 1.398 . S
C383 C385 1.372 . S
C383 H400 0.931 . S
C384 C381 1.382 . S
C384 C385 1.390 . S
C384 H401 0.931 . S
C385 C383 1.372 . S
C385 C384 1.390 . S
C385 H402 0.929 . S
C386 C381 1.390 . S
C386 C382 1.392 . S
C386 H403 0.930 . S
C387 O372 1.255 . S
C387 O373 1.257 . S
C388 Eu324 2.787 . S
C388 O368 1.252 . S
C388 O371 1.268 . S
C388 C381 1.506 . S
C389 C356 1.439 . S
C389 H366 0.931 . S
C389 C390 1.374 . S
C390 C361 1.387 . S
C390 H367 0.931 . S
C390 C389 1.374 . S
C391 O375 1.249 . S
C391 O376 1.264 . S
C392 C395 1.382 . S
C392 C396 1.390 . S
C392 C399 1.506 . S
C393 C394 1.398 . S
C393 C396 1.392 . S
C394 C393 1.398 . S
C394 C397 1.372 . S
C394 H404 0.931 . S
C395 C392 1.382 . S
C395 C397 1.390 . S
C395 H405 0.931 . S
C396 C392 1.390 . S
C396 C393 1.392 . S
C396 H406 0.930 . S
C397 C394 1.372 . S
C397 C395 1.390 . S
C397 H407 0.929 . S
C398 O378 1.255 . S
C398 O379 1.257 . S
C399 Eu335 2.787 . S
C399 O374 1.252 . S
C399 O377 1.268 . S
C399 C392 1.506 . S
H400 C383 0.931 . S
H401 C384 0.931 . S
H402 C385 0.929 . S
H403 C386 0.930 . S
H404 C394 0.931 . S
H405 C395 0.931 . S
H406 C396 0.930 . S
H407 C397 0.929 . S
H408 C416 0.950 . S
H409 C421 0.950 . S
H410 C418 0.950 . S
H411 C420 0.950 1_545 S
H412 C422 0.950 . S
H413 C424 0.950 . S
H414 C426 0.950 1_565 S
H415 C427 0.950 . S
C416 H408 0.950 . S
C416 C417 1.386 . S
C416 C418 1.391 . S
C417 C416 1.386 . S
C417 C421 1.393 . S
C418 H410 0.950 . S
C418 C416 1.391 . S
C418 C419 1.400 . S
C419 C418 1.400 . S
C419 C420 1.398 . S
C419 C425 1.491 1_565 S
C420 H411 0.950 1_565 S
C420 C419 1.398 . S
C420 C421 1.391 . S
C421 H409 0.950 . S
C421 C417 1.393 . S
C421 C420 1.391 . S
C422 H412 0.950 . S
C422 C423 1.386 . S
C422 C424 1.391 . S
C423 C422 1.386 . S
C423 C427 1.393 . S
C424 H413 0.950 . S
C424 C422 1.391 . S
C424 C425 1.400 . S
C425 C419 1.491 1_545 S
C425 C424 1.400 . S
C425 C426 1.398 . S
C426 H414 0.950 1_545 S
C426 C425 1.398 . S
C426 C427 1.391 . S
C427 H415 0.950 . S
C427 C423 1.393 . S
C427 C426 1.391 . S
H428 C436 0.950 . S
H429 C441 0.950 . S
H430 C438 0.950 . S
H431 C440 0.950 . S
H432 C442 0.950 . S
H433 C444 0.950 . S
H434 C446 0.950 . S
H435 C447 0.950 . S
C436 H428 0.950 . S
C436 C437 1.386 . S
C436 C438 1.391 . S
C437 C436 1.386 . S
C437 C441 1.393 . S
C438 H430 0.950 . S
C438 C436 1.391 . S
C438 C439 1.400 . S
C439 C438 1.400 . S
C439 C440 1.398 . S
C439 C445 1.491 . S
C440 H431 0.950 . S
C440 C439 1.398 . S
C440 C441 1.391 . S
C441 H429 0.950 . S
C441 C437 1.393 . S
C441 C440 1.391 . S
C442 H432 0.950 . S
C442 C443 1.386 . S
C442 C444 1.391 . S
C443 C442 1.386 . S
C443 C447 1.393 . S
C444 H433 0.950 . S
C444 C442 1.391 . S
C444 C445 1.400 . S
C445 C439 1.491 . S
C445 C444 1.400 . S
C445 C446 1.398 . S
C446 H434 0.950 . S
C446 C445 1.398 . S
C446 C447 1.391 . S
C447 H435 0.950 . S
C447 C443 1.393 . S
C447 C446 1.391 . S
H448 C456 0.950 . S
H449 C461 0.950 . S
H450 C458 0.950 . S
H451 C460 0.950 . S
H452 C462 0.950 . S
H453 C464 0.950 . S
H454 C466 0.950 . S
H455 C467 0.950 . S
C456 H448 0.950 . S
C456 C457 1.386 . S
C456 C458 1.391 . S
C457 C456 1.386 . S
C457 C461 1.393 . S
C458 H450 0.950 . S
C458 C456 1.391 . S
C458 C459 1.400 . S
C459 C458 1.400 . S
C459 C460 1.398 . S
C459 C465 1.491 . S
C460 H451 0.950 . S
C460 C459 1.398 . S
C460 C461 1.391 . S
C461 H449 0.950 . S
C461 C457 1.393 . S
C461 C460 1.391 . S
C462 H452 0.950 . S
C462 C463 1.386 . S
C462 C464 1.391 . S
C463 C462 1.386 . S
C463 C467 1.393 . S
C464 H453 0.950 . S
C464 C462 1.391 . S
C464 C465 1.400 . S
C465 C459 1.491 . S
C465 C464 1.400 . S
C465 C466 1.398 . S
C466 H454 0.950 . S
C466 C465 1.398 . S
C466 C467 1.391 . S
C467 H455 0.950 . S
C467 C463 1.393 . S
C467 C466 1.391 . S
H468 C476 0.950 . S
H469 C481 0.950 . S
H470 C478 0.950 1_545 S
H471 C480 0.950 . S
H472 C482 0.950 . S
H473 C484 0.950 1_565 S
H474 C486 0.950 . S
H475 C487 0.950 . S
C476 H468 0.950 . S
C476 C477 1.386 . S
C476 C478 1.391 . S
C477 C476 1.386 . S
C477 C481 1.393 . S
C478 H470 0.950 1_565 S
C478 C476 1.391 . S
C478 C479 1.400 . S
C479 C478 1.400 . S
C479 C480 1.398 . S
C479 C485 1.491 1_565 S
C480 H471 0.950 . S
C480 C479 1.398 . S
C480 C481 1.391 . S
C481 H469 0.950 . S
C481 C477 1.393 . S
C481 C480 1.391 . S
C482 H472 0.950 . S
C482 C483 1.386 . S
C482 C484 1.391 . S
C483 C482 1.386 . S
C483 C487 1.393 . S
C484 H473 0.950 1_545 S
C484 C482 1.391 . S
C484 C485 1.400 . S
C485 C479 1.491 1_545 S
C485 C484 1.400 . S
C485 C486 1.398 . S
C486 H474 0.950 . S
C486 C485 1.398 . S
C486 C487 1.391 . S
C487 H475 0.950 . S
C487 C483 1.393 . S
C487 C486 1.391 . S
H488 C496 0.950 . S
H489 C501 0.950 . S
H490 C498 0.950 1_565 S
H491 C500 0.950 . S
H492 C502 0.950 . S
H493 C504 0.950 1_545 S
H494 C506 0.950 . S
H495 C507 0.950 . S
C496 H488 0.950 . S
C496 C497 1.386 . S
C496 C498 1.391 . S
C497 C496 1.386 . S
C497 C501 1.393 . S
C498 H490 0.950 1_545 S
C498 C496 1.391 . S
C498 C499 1.400 . S
C499 C498 1.400 . S
C499 C500 1.398 . S
C499 C505 1.491 1_545 S
C500 H491 0.950 . S
C500 C499 1.398 . S
C500 C501 1.391 . S
C501 H489 0.950 . S
C501 C497 1.393 . S
C501 C500 1.391 . S
C502 H492 0.950 . S
C502 C503 1.386 . S
C502 C504 1.391 . S
C503 C502 1.386 . S
C503 C507 1.393 . S
C504 H493 0.950 1_565 S
C504 C502 1.391 . S
C504 C505 1.400 . S
C505 C499 1.491 1_565 S
C505 C504 1.400 . S
C505 C506 1.398 . S
C506 H494 0.950 . S
C506 C505 1.398 . S
C506 C507 1.391 . S
C507 H495 0.950 . S
C507 C503 1.393 . S
C507 C506 1.391 . S
H508 C516 0.950 . S
H509 C521 0.950 . S
H510 C518 0.950 . S
H511 C520 0.950 . S
H512 C522 0.950 . S
H513 C524 0.950 . S
H514 C526 0.950 . S
H515 C527 0.950 . S
C516 H508 0.950 . S
C516 C517 1.386 . S
C516 C518 1.391 . S
C517 C516 1.386 . S
C517 C521 1.393 . S
C518 H510 0.950 . S
C518 C516 1.391 . S
C518 C519 1.400 . S
C519 C518 1.400 . S
C519 C520 1.398 . S
C519 C525 1.491 . S
C520 H511 0.950 . S
C520 C519 1.398 . S
C520 C521 1.391 . S
C521 H509 0.950 . S
C521 C517 1.393 . S
C521 C520 1.391 . S
C522 H512 0.950 . S
C522 C523 1.386 . S
C522 C524 1.391 . S
C523 C522 1.386 . S
C523 C527 1.393 . S
C524 H513 0.950 . S
C524 C522 1.391 . S
C524 C525 1.400 . S
C525 C519 1.491 . S
C525 C524 1.400 . S
C525 C526 1.398 . S
C526 H514 0.950 . S
C526 C525 1.398 . S
C526 C527 1.391 . S
C527 H515 0.950 . S
C527 C523 1.393 . S
C527 C526 1.391 . S
H528 C536 0.950 . S
H529 C541 0.950 . S
H530 C538 0.950 . S
H531 C540 0.950 . S
H532 C542 0.950 . S
H533 C544 0.950 . S
H534 C546 0.950 . S
H535 C547 0.950 . S
C536 H528 0.950 . S
C536 C537 1.386 . S
C536 C538 1.391 . S
C537 C536 1.386 . S
C537 C541 1.393 . S
C538 H530 0.950 . S
C538 C536 1.391 . S
C538 C539 1.400 . S
C539 C538 1.400 . S
C539 C540 1.398 . S
C539 C545 1.491 . S
C540 H531 0.950 . S
C540 C539 1.398 . S
C540 C541 1.391 . S
C541 H529 0.950 . S
C541 C537 1.393 . S
C541 C540 1.391 . S
C542 H532 0.950 . S
C542 C543 1.386 . S
C542 C544 1.391 . S
C543 C542 1.386 . S
C543 C547 1.393 . S
C544 H533 0.950 . S
C544 C542 1.391 . S
C544 C545 1.400 . S
C545 C539 1.491 . S
C545 C544 1.400 . S
C545 C546 1.398 . S
C546 H534 0.950 . S
C546 C545 1.398 . S
C546 C547 1.391 . S
C547 H535 0.950 . S
C547 C543 1.393 . S
C547 C546 1.391 . S
H548 C556 0.950 . S
H549 C561 0.950 . S
H550 C558 0.950 1_565 S
H551 C560 0.950 . S
H552 C562 0.950 . S
H553 C564 0.950 1_545 S
H554 C566 0.950 . S
H555 C567 0.950 . S
C556 H548 0.950 . S
C556 C557 1.386 . S
C556 C558 1.391 . S
C557 C556 1.386 . S
C557 C561 1.393 . S
C558 H550 0.950 1_545 S
C558 C556 1.391 . S
C558 C559 1.400 . S
C559 C558 1.400 . S
C559 C560 1.398 . S
C559 C565 1.491 1_545 S
C560 H551 0.950 . S
C560 C559 1.398 . S
C560 C561 1.391 . S
C561 H549 0.950 . S
C561 C557 1.393 . S
C561 C560 1.391 . S
C562 H552 0.950 . S
C562 C563 1.386 . S
C562 C564 1.391 . S
C563 C562 1.386 . S
C563 C567 1.393 . S
C564 H553 0.950 1_565 S
C564 C562 1.391 . S
C564 C565 1.400 . S
C565 C559 1.491 1_565 S
C565 C564 1.400 . S
C565 C566 1.398 . S
C566 H554 0.950 . S
C566 C565 1.398 . S
C566 C567 1.391 . S
C567 H555 0.950 . S
C567 C563 1.393 . S
C567 C566 1.391 . S
H568 C576 0.950 . S
H569 C581 0.950 . S
H570 C578 0.950 1_554 S
H571 C580 0.950 . S
H572 C582 0.950 . S
H573 C584 0.950 . S
H574 C586 0.950 . S
H575 C587 0.950 . S
C576 H568 0.950 . S
C576 C577 1.386 . S
C576 C578 1.391 . S
C577 C576 1.386 . S
C577 C581 1.393 . S
C578 H570 0.950 1_556 S
C578 C576 1.391 . S
C578 C579 1.400 1_556 S
C579 C578 1.400 1_554 S
C579 C580 1.398 1_554 S
C579 C585 1.491 . S
C580 H571 0.950 . S
C580 C579 1.398 1_556 S
C580 C581 1.391 . S
C581 H569 0.950 . S
C581 C577 1.393 . S
C581 C580 1.391 . S
C582 H572 0.950 . S
C582 C583 1.386 . S
C582 C584 1.391 . S
C583 C582 1.386 . S
C583 C587 1.393 . S
C584 H573 0.950 . S
C584 C582 1.391 . S
C584 C585 1.400 . S
C585 C579 1.491 . S
C585 C584 1.400 . S
C585 C586 1.398 . S
C586 H574 0.950 . S
C586 C585 1.398 . S
C586 C587 1.391 . S
C587 H575 0.950 . S
C587 C583 1.393 . S
C587 C586 1.391 . S
H588 C596 0.950 . S
H589 C601 0.950 . S
H590 C598 0.950 . S
H591 C600 0.950 . S
H592 C602 0.950 . S
H593 C604 0.950 . S
H594 C606 0.950 . S
H595 C607 0.950 . S
C596 H588 0.950 . S
C596 C597 1.386 . S
C596 C598 1.391 . S
C597 C596 1.386 . S
C597 C601 1.393 . S
C598 H590 0.950 . S
C598 C596 1.391 . S
C598 C599 1.400 . S
C599 C598 1.400 . S
C599 C600 1.398 . S
C599 C605 1.491 . S
C600 H591 0.950 . S
C600 C599 1.398 . S
C600 C601 1.391 . S
C601 H589 0.950 . S
C601 C597 1.393 . S
C601 C600 1.391 . S
C602 H592 0.950 . S
C602 C603 1.386 . S
C602 C604 1.391 . S
C603 C602 1.386 . S
C603 C607 1.393 . S
C604 H593 0.950 . S
C604 C602 1.391 . S
C604 C605 1.400 . S
C605 C599 1.491 . S
C605 C604 1.400 . S
C605 C606 1.398 . S
C606 H594 0.950 . S
C606 C605 1.398 . S
C606 C607 1.391 . S
C607 H595 0.950 . S
C607 C603 1.393 . S
C607 C606 1.391 . S
H608 C616 0.950 . S
H609 C621 0.950 . S
H610 C618 0.950 . S
H611 C620 0.950 1_556 S
H612 C622 0.950 . S
H613 C624 0.950 . S
H614 C626 0.950 . S
H615 C627 0.950 . S
C616 H608 0.950 . S
C616 C617 1.386 . S
C616 C618 1.391 . S
C617 C616 1.386 . S
C617 C621 1.393 . S
C618 H610 0.950 . S
C618 C616 1.391 . S
C618 C619 1.400 1_554 S
C619 C618 1.400 1_556 S
C619 C620 1.398 1_556 S
C619 C625 1.491 . S
C620 H611 0.950 1_554 S
C620 C619 1.398 1_554 S
C620 C621 1.391 . S
C621 H609 0.950 . S
C621 C617 1.393 . S
C621 C620 1.391 . S
C622 H612 0.950 . S
C622 C623 1.386 . S
C622 C624 1.391 . S
C623 C622 1.386 . S
C623 C627 1.393 . S
C624 H613 0.950 . S
C624 C622 1.391 . S
C624 C625 1.400 . S
C625 C619 1.491 . S
C625 C624 1.400 . S
C625 C626 1.398 . S
C626 H614 0.950 . S
C626 C625 1.398 . S
C626 C627 1.391 . S
C627 H615 0.950 . S
C627 C623 1.393 . S
C627 C626 1.391 . S
H628 C636 0.950 . S
H629 C641 0.950 . S
H630 C638 0.950 . S
H631 C640 0.950 . S
H632 C642 0.950 . S
H633 C644 0.950 . S
H634 C646 0.950 . S
H635 C647 0.950 . S
C636 H628 0.950 . S
C636 C637 1.386 . S
C636 C638 1.391 . S
C637 C636 1.386 . S
C637 C641 1.393 . S
C638 H630 0.950 . S
C638 C636 1.391 . S
C638 C639 1.400 . S
C639 C638 1.400 . S
C639 C640 1.398 . S
C639 C645 1.491 . S
C640 H631 0.950 . S
C640 C639 1.398 . S
C640 C641 1.391 . S
C641 H629 0.950 . S
C641 C637 1.393 . S
C641 C640 1.391 . S
C642 H632 0.950 . S
C642 C643 1.386 . S
C642 C644 1.391 . S
C643 C642 1.386 . S
C643 C647 1.393 . S
C644 H633 0.950 . S
C644 C642 1.391 . S
C644 C645 1.400 . S
C645 C639 1.491 . S
C645 C644 1.400 . S
C645 C646 1.398 . S
C646 H634 0.950 . S
C646 C645 1.398 . S
C646 C647 1.391 . S
C647 H635 0.950 . S
C647 C643 1.393 . S
C647 C646 1.391 . S
H648 C656 0.950 . S
H649 C661 0.950 . S
H650 C658 0.950 1_556 S
H651 C660 0.950 . S
H652 C662 0.950 . S
H653 C664 0.950 . S
H654 C666 0.950 . S
H655 C667 0.950 . S
C656 H648 0.950 . S
C656 C657 1.386 . S
C656 C658 1.391 . S
C657 C656 1.386 . S
C657 C661 1.393 . S
C658 H650 0.950 1_554 S
C658 C656 1.391 . S
C658 C659 1.400 1_554 S
C659 C658 1.400 1_556 S
C659 C660 1.398 1_556 S
C659 C665 1.491 . S
C660 H651 0.950 . S
C660 C659 1.398 1_554 S
C660 C661 1.391 . S
C661 H649 0.950 . S
C661 C657 1.393 . S
C661 C660 1.391 . S
C662 H652 0.950 . S
C662 C663 1.386 . S
C662 C664 1.391 . S
C663 C662 1.386 . S
C663 C667 1.393 . S
C664 H653 0.950 . S
C664 C662 1.391 . S
C664 C665 1.400 . S
C665 C659 1.491 . S
C665 C664 1.400 . S
C665 C666 1.398 . S
C666 H654 0.950 . S
C666 C665 1.398 . S
C666 C667 1.391 . S
C667 H655 0.950 . S
C667 C663 1.393 . S
C667 C666 1.391 . S
H668 C676 0.950 . S
H669 C681 0.950 . S
H670 C678 0.950 . S
H671 C680 0.950 . S
H672 C682 0.950 . S
H673 C684 0.950 . S
H674 C686 0.950 . S
H675 C687 0.950 . S
C676 H668 0.950 . S
C676 C677 1.386 . S
C676 C678 1.391 . S
C677 C676 1.386 . S
C677 C681 1.393 . S
C678 H670 0.950 . S
C678 C676 1.391 . S
C678 C679 1.400 . S
C679 C678 1.400 . S
C679 C680 1.398 . S
C679 C685 1.491 . S
C680 H671 0.950 . S
C680 C679 1.398 . S
C680 C681 1.391 . S
C681 H669 0.950 . S
C681 C677 1.393 . S
C681 C680 1.391 . S
C682 H672 0.950 . S
C682 C683 1.386 . S
C682 C684 1.391 . S
C683 C682 1.386 . S
C683 C687 1.393 . S
C684 H673 0.950 . S
C684 C682 1.391 . S
C684 C685 1.400 . S
C685 C679 1.491 . S
C685 C684 1.400 . S
C685 C686 1.398 . S
C686 H674 0.950 . S
C686 C685 1.398 . S
C686 C687 1.391 . S
C687 H675 0.950 . S
C687 C683 1.393 . S
C687 C686 1.391 . S
H688 C696 0.950 . S
H689 C701 0.950 . S
H690 C698 0.950 1_554 S
H691 C700 0.950 . S
H692 C702 0.950 . S
H693 C704 0.950 . S
H694 C706 0.950 . S
H695 C707 0.950 . S
C696 H688 0.950 . S
C696 C697 1.386 . S
C696 C698 1.391 . S
C697 C696 1.386 . S
C697 C701 1.393 . S
C698 H690 0.950 1_556 S
C698 C696 1.391 . S
C698 C699 1.400 1_556 S
C699 C698 1.400 1_554 S
C699 C700 1.398 1_554 S
C699 C705 1.491 . S
C700 H691 0.950 . S
C700 C699 1.398 1_556 S
C700 C701 1.391 . S
C701 H689 0.950 . S
C701 C697 1.393 . S
C701 C700 1.391 . S
C702 H692 0.950 . S
C702 C703 1.386 . S
C702 C704 1.391 . S
C703 C702 1.386 . S
C703 C707 1.393 . S
C704 H693 0.950 . S
C704 C702 1.391 . S
C704 C705 1.400 . S
C705 C699 1.491 . S
C705 C704 1.400 . S
C705 C706 1.398 . S
C706 H694 0.950 . S
C706 C705 1.398 . S
C706 C707 1.391 . S
C707 H695 0.950 . S
C707 C703 1.393 . S
C707 C706 1.391 . S
H708 C716 0.950 . S
H709 C721 0.950 . S
H710 C718 0.950 . S
H711 C720 0.950 . S
H712 C722 0.950 . S
H713 C724 0.950 . S
H714 C726 0.950 . S
H715 C727 0.950 . S
C716 H708 0.950 . S
C716 C717 1.386 . S
C716 C718 1.391 . S
C717 C716 1.386 . S
C717 C721 1.393 . S
C718 H710 0.950 . S
C718 C716 1.391 . S
C718 C719 1.400 . S
C719 C718 1.400 . S
C719 C720 1.398 . S
C719 C725 1.491 . S
C720 H711 0.950 . S
C720 C719 1.398 . S
C720 C721 1.391 . S
C721 H709 0.950 . S
C721 C717 1.393 . S
C721 C720 1.391 . S
C722 H712 0.950 . S
C722 C723 1.386 . S
C722 C724 1.391 . S
C723 C722 1.386 . S
C723 C727 1.393 . S
C724 H713 0.950 . S
C724 C722 1.391 . S
C724 C725 1.400 . S
C725 C719 1.491 . S
C725 C724 1.400 . S
C725 C726 1.398 . S
C726 H714 0.950 . S
C726 C725 1.398 . S
C726 C727 1.391 . S
C727 H715 0.950 . S
C727 C723 1.393 . S
C727 C726 1.391 . S
H728 C736 0.950 . S
H729 C741 0.950 . S
H730 C738 0.950 . S
H731 C740 0.950 . S
H732 C742 0.950 . S
H733 C744 0.950 . S
H734 C746 0.950 . S
H735 C747 0.950 . S
C736 H728 0.950 . S
C736 C737 1.386 . S
C736 C738 1.391 . S
C737 C736 1.386 . S
C737 C741 1.393 . S
C738 H730 0.950 . S
C738 C736 1.391 . S
C738 C739 1.400 . S
C739 C738 1.400 . S
C739 C740 1.398 . S
C739 C745 1.491 . S
C740 H731 0.950 . S
C740 C739 1.398 . S
C740 C741 1.391 . S
C741 H729 0.950 . S
C741 C737 1.393 . S
C741 C740 1.391 . S
C742 H732 0.950 . S
C742 C743 1.386 . S
C742 C744 1.391 . S
C743 C742 1.386 . S
C743 C747 1.393 . S
C744 H733 0.950 . S
C744 C742 1.391 . S
C744 C745 1.400 . S
C745 C739 1.491 . S
C745 C744 1.400 . S
C745 C746 1.398 . S
C746 H734 0.950 . S
C746 C745 1.398 . S
C746 C747 1.391 . S
C747 H735 0.950 . S
C747 C743 1.393 . S
C747 C746 1.391 . S
H748 C756 0.950 . S
H749 C761 0.950 . S
H750 C758 0.950 . S
H751 C760 0.950 . S
H752 C762 0.950 . S
H753 C764 0.950 . S
H754 C766 0.950 . S
H755 C767 0.950 . S
C756 H748 0.950 . S
C756 C757 1.386 . S
C756 C758 1.391 . S
C757 C756 1.386 . S
C757 C761 1.393 . S
C758 H750 0.950 . S
C758 C756 1.391 . S
C758 C759 1.400 . S
C759 C758 1.400 . S
C759 C760 1.398 . S
C759 C765 1.491 . S
C760 H751 0.950 . S
C760 C759 1.398 . S
C760 C761 1.391 . S
C761 H749 0.950 . S
C761 C757 1.393 . S
C761 C760 1.391 . S
C762 H752 0.950 . S
C762 C763 1.386 . S
C762 C764 1.391 . S
C763 C762 1.386 . S
C763 C767 1.393 . S
C764 H753 0.950 . S
C764 C762 1.391 . S
C764 C765 1.400 . S
C765 C759 1.491 . S
C765 C764 1.400 . S
C765 C766 1.398 . S
C766 H754 0.950 . S
C766 C765 1.398 . S
C766 C767 1.391 . S
C767 H755 0.950 . S
C767 C763 1.393 . S
C767 C766 1.391 . S
H768 C776 0.950 . S
H769 C781 0.950 . S
H770 C778 0.950 . S
H771 C780 0.950 . S
H772 C782 0.950 . S
H773 C784 0.950 . S
H774 C786 0.950 . S
H775 C787 0.950 . S
C776 H768 0.950 . S
C776 C777 1.386 . S
C776 C778 1.391 . S
C777 C776 1.386 . S
C777 C781 1.393 . S
C778 H770 0.950 . S
C778 C776 1.391 . S
C778 C779 1.400 . S
C779 C778 1.400 . S
C779 C780 1.398 . S
C779 C785 1.491 . S
C780 H771 0.950 . S
C780 C779 1.398 . S
C780 C781 1.391 . S
C781 H769 0.950 . S
C781 C777 1.393 . S
C781 C780 1.391 . S
C782 H772 0.950 . S
C782 C783 1.386 . S
C782 C784 1.391 . S
C783 C782 1.386 . S
C783 C787 1.393 . S
C784 H773 0.950 . S
C784 C782 1.391 . S
C784 C785 1.400 . S
C785 C779 1.491 . S
C785 C784 1.400 . S
C785 C786 1.398 . S
C786 H774 0.950 . S
C786 C785 1.398 . S
C786 C787 1.391 . S
C787 H775 0.950 . S
C787 C783 1.393 . S
C787 C786 1.391 . S
H788 C796 0.950 . S
H789 C801 0.950 . S
H790 C798 0.950 . S
H791 C800 0.950 . S
H792 C802 0.950 . S
H793 C804 0.950 . S
H794 C806 0.950 . S
H795 C807 0.949 . S
C796 H788 0.950 . S
C796 C797 1.386 . S
C796 C798 1.391 . S
C797 C796 1.386 . S
C797 C801 1.393 . S
C798 H790 0.950 . S
C798 C796 1.391 . S
C798 C799 1.400 . S
C799 C798 1.400 . S
C799 C800 1.398 . S
C799 C805 1.491 . S
C800 H791 0.950 . S
C800 C799 1.398 . S
C800 C801 1.391 . S
C801 H789 0.950 . S
C801 C797 1.393 . S
C801 C800 1.391 . S
C802 H792 0.950 . S
C802 C803 1.386 . S
C802 C804 1.391 . S
C803 C802 1.386 . S
C803 C807 1.393 . S
C804 H793 0.950 . S
C804 C802 1.391 . S
C804 C805 1.400 . S
C805 C799 1.491 . S
C805 C804 1.400 . S
C805 C806 1.398 . S
C806 H794 0.950 . S
C806 C805 1.398 . S
C806 C807 1.391 . S
C807 H795 0.949 . S
C807 C803 1.393 . S
C807 C806 1.391 . S
H808 C816 0.950 . S
H809 C821 0.950 . S
H810 C818 0.950 . S
H811 C820 0.950 . S
H812 C822 0.950 . S
H813 C824 0.950 . S
H814 C826 0.950 . S
H815 C827 0.950 . S
C816 H808 0.950 . S
C816 C817 1.386 . S
C816 C818 1.391 . S
C817 C816 1.386 . S
C817 C821 1.393 . S
C818 H810 0.950 . S
C818 C816 1.391 . S
C818 C819 1.400 . S
C819 C818 1.400 . S
C819 C820 1.398 . S
C819 C825 1.491 . S
C820 H811 0.950 . S
C820 C819 1.398 . S
C820 C821 1.391 . S
C821 H809 0.950 . S
C821 C817 1.393 . S
C821 C820 1.391 . S
C822 H812 0.950 . S
C822 C823 1.386 . S
C822 C824 1.391 . S
C823 C822 1.386 . S
C823 C827 1.393 . S
C824 H813 0.950 . S
C824 C822 1.391 . S
C824 C825 1.400 . S
C825 C819 1.491 . S
C825 C824 1.400 . S
C825 C826 1.398 . S
C826 H814 0.950 . S
C826 C825 1.398 . S
C826 C827 1.391 . S
C827 H815 0.950 . S
C827 C823 1.393 . S
C827 C826 1.391 . S
H828 C836 0.950 . S
H829 C841 0.950 . S
H830 C838 0.950 . S
H831 C840 0.950 . S
H832 C842 0.950 . S
H833 C844 0.950 . S
H834 C846 0.950 . S
H835 C847 0.950 . S
C836 H828 0.950 . S
C836 C837 1.386 . S
C836 C838 1.391 . S
C837 C836 1.386 . S
C837 C841 1.393 . S
C838 H830 0.950 . S
C838 C836 1.391 . S
C838 C839 1.400 . S
C839 C838 1.400 . S
C839 C840 1.398 . S
C839 C845 1.491 . S
C840 H831 0.950 . S
C840 C839 1.398 . S
C840 C841 1.391 . S
C841 H829 0.950 . S
C841 C837 1.393 . S
C841 C840 1.391 . S
C842 H832 0.950 . S
C842 C843 1.386 . S
C842 C844 1.391 . S
C843 C842 1.386 . S
C843 C847 1.393 . S
C844 H833 0.950 . S
C844 C842 1.391 . S
C844 C845 1.400 . S
C845 C839 1.491 . S
C845 C844 1.400 . S
C845 C846 1.398 . S
C846 H834 0.950 . S
C846 C845 1.398 . S
C846 C847 1.391 . S
C847 H835 0.950 . S
C847 C843 1.393 . S
C847 C846 1.391 . S
H848 C856 0.950 . S
H849 C861 0.950 . S
H850 C858 0.950 . S
H851 C860 0.950 . S
H852 C862 0.950 . S
H853 C864 0.950 . S
H854 C866 0.950 . S
H855 C867 0.950 . S
C856 H848 0.950 . S
C856 C857 1.386 . S
C856 C858 1.391 . S
C857 C856 1.386 . S
C857 C861 1.393 . S
C858 H850 0.950 . S
C858 C856 1.391 . S
C858 C859 1.400 . S
C859 C858 1.400 . S
C859 C860 1.398 . S
C859 C865 1.491 . S
C860 H851 0.950 . S
C860 C859 1.398 . S
C860 C861 1.391 . S
C861 H849 0.950 . S
C861 C857 1.393 . S
C861 C860 1.391 . S
C862 H852 0.950 . S
C862 C863 1.386 . S
C862 C864 1.391 . S
C863 C862 1.386 . S
C863 C867 1.393 . S
C864 H853 0.950 . S
C864 C862 1.391 . S
C864 C865 1.400 . S
C865 C859 1.491 . S
C865 C864 1.400 . S
C865 C866 1.398 . S
C866 H854 0.950 . S
C866 C865 1.398 . S
C866 C867 1.391 . S
C867 H855 0.950 . S
C867 C863 1.393 . S
C867 C866 1.391 . S
H868 C876 0.950 . S
H869 C881 0.950 . S
H870 C878 0.950 . S
H871 C880 0.950 . S
H872 C882 0.950 . S
H873 C884 0.950 . S
H874 C886 0.950 . S
H875 C887 0.950 . S
C876 H868 0.950 . S
C876 C877 1.386 . S
C876 C878 1.391 . S
C877 C876 1.386 . S
C877 C881 1.393 . S
C878 H870 0.950 . S
C878 C876 1.391 . S
C878 C879 1.400 . S
C879 C878 1.400 . S
C879 C880 1.398 . S
C879 C885 1.491 . S
C880 H871 0.950 . S
C880 C879 1.398 . S
C880 C881 1.391 . S
C881 H869 0.950 . S
C881 C877 1.393 . S
C881 C880 1.391 . S
C882 H872 0.950 . S
C882 C883 1.386 . S
C882 C884 1.391 . S
C883 C882 1.386 . S
C883 C887 1.393 . S
C884 H873 0.950 . S
C884 C882 1.391 . S
C884 C885 1.400 . S
C885 C879 1.491 . S
C885 C884 1.400 . S
C885 C886 1.398 . S
C886 H874 0.950 . S
C886 C885 1.398 . S
C886 C887 1.391 . S
C887 H875 0.950 . S
C887 C883 1.393 . S
C887 C886 1.391 . S
C417 C58 1.471 . S
C423 C146 1.442 . S
C443 C230 1.460 . S
C437 C68 1.469 . S
C463 C223 1.459 . S
C457 C40 1.460 . S
C477 C50 1.463 . S
C483 C139 1.462 . S
C503 C303 1.454 . S
C497 C23 1.471 . S
C523 C387 1.459 . S
C517 C32 1.471 . S
C537 C5 1.461 . S
C543 C380 1.460 . S
C557 C14 1.462 . S
C563 C296 1.460 . S
C583 C130 1.344 . S
C577 C13 1.502 . S
C603 C214 1.356 . S
C597 C4 1.503 . S
C623 C225 1.388 . S
C617 C31 1.521 . S
C643 C141 1.404 . S
C637 C22 1.522 . S
C663 C309 1.338 . S
C657 C49 1.500 . S
C677 C41 1.501 . S
C683 C393 1.322 . S
C703 C382 1.379 . S
C697 C67 1.519 . S
C717 C59 1.521 . S
C723 C298 1.378 . S
C743 C128 1.533 . S
C737 C7 1.533 . S
C763 C212 1.532 . S
C757 C16 1.530 . S
C777 C25 1.523 . S
C783 C219 1.513 . S
C803 C135 1.516 . S
C797 C34 1.521 . S
C823 C307 1.531 . S
C817 C43 1.527 . S
C837 C52 1.524 . S
C843 C391 1.533 . S
C857 C61 1.526 . S
C863 C398 1.518 . S
C877 C70 1.522 . S
C883 C314 1.516 . S
