# Generated by pormake.
# Topology tsx, (6,3)-cn, num edge types: 1
# Building blocks:
#     Node 0, Type 0, BuildingBlock: LEVNOQ01_clean_sbu_1, # of connection points: 6
#     Node 1, Type 0, BuildingBlock: LEVNOQ01_clean_sbu_1, # of connection points: 6
#     Node 2, Type 1, BuildingBlock: CUQRIR_clean_linker_1, # of connection points: 3
#     Node 3, Type 1, BuildingBlock: CUQRIR_clean_linker_1, # of connection points: 3
#     Node 4, Type 1, BuildingBlock: CUQRIR_clean_linker_1, # of connection points: 3
#     Node 5, Type 1, BuildingBlock: CUQRIR_clean_linker_1, # of connection points: 3
#     Edge 6, Type (0, 1), BuildingBlock: FUNLAD_clean_linker_1, # of connection points: 2
#     Edge 7, Type (0, 1), BuildingBlock: FUNLAD_clean_linker_1, # of connection points: 2
#     Edge 8, Type (0, 1), BuildingBlock: FUNLAD_clean_linker_1, # of connection points: 2
#     Edge 9, Type (0, 1), BuildingBlock: FUNLAD_clean_linker_1, # of connection points: 2
#     Edge 10, Type (0, 1), BuildingBlock: FUNLAD_clean_linker_1, # of connection points: 2
#     Edge 11, Type (0, 1), BuildingBlock: FUNLAD_clean_linker_1, # of connection points: 2
#     Edge 12, Type (0, 1), BuildingBlock: FUNLAD_clean_linker_1, # of connection points: 2
#     Edge 13, Type (0, 1), BuildingBlock: FUNLAD_clean_linker_1, # of connection points: 2
#     Edge 14, Type (0, 1), BuildingBlock: FUNLAD_clean_linker_1, # of connection points: 2
#     Edge 15, Type (0, 1), BuildingBlock: FUNLAD_clean_linker_1, # of connection points: 2
#     Edge 16, Type (0, 1), BuildingBlock: FUNLAD_clean_linker_1, # of connection points: 2
#     Edge 17, Type (0, 1), BuildingBlock: FUNLAD_clean_linker_1, # of connection points: 2
# Relax obj value: 0.160
# Max RMSD: 0.177
# Mean RMSD: 0.163
data_MOF--net-tsx--node1-LEVNOQ01_clean_sbu_1--node2-CUQRIR_clean_linker_1--edge1-FUNLAD_clean_linker_1
_symmetry_space_group_name_H-M    P1
_symmetry_Int_Tables_number       1
_symmetry_cell_setting            triclinic
loop_
_symmetry_equiv_pos_as_xyz
'x, y, z'
_cell_length_a     17.776374
_cell_length_b     21.88854
_cell_length_c     34.631159
_cell_angle_alpha  85.521398
_cell_angle_beta   91.531722
_cell_angle_gamma 90.593942
loop_
_atom_site_label
_atom_site_type_symbol
_atom_site_fract_x
_atom_site_fract_y
_atom_site_fract_z
_atom_type_partial_charge
O0 O 0.2075 0.00225 0.0703 0.0
Mg1 Mg 0.2535 0.02679 0.01545 0.0
O2 O 0.08622 0.01522 0.05376 0.0
Mg3 Mg 0.08632 0.03337 -0.01393 0.0
O4 O 0.19058 0.09683 -0.00925 0.0
O5 O 0.31189 0.10779 0.00625 0.0
O6 O 0.09475 0.04991 0.91957 0.0
O7 O 0.02804 0.1307 -0.01131 0.0
Mg8 Mg 0.94815 0.05037 0.96074 0.0
O9 O 0.97803 0.96521 -0.01524 0.0
O10 O 0.98201 0.08552 0.9048 0.0
O11 O 0.91044 0.11068 -2e-05 0.0
O12 O 0.86861 0.98756 0.95238 0.0
C13 C 0.21558 0.92307 0.9722 0.0
C14 C 0.13868 0.00275 0.0792 0.0
C15 C 0.24932 0.13211 -0.00657 0.0
C16 C 0.04798 0.0742 0.8948 0.0
C17 C 0.96319 0.14934 -0.00301 0.0
C18 C 0.91054 0.94938 0.97299 0.0
O19 O 0.2713 0.95714 -0.0208 0.0
O20 O 0.14859 0.94035 0.97788 0.0
O21 O 0.70736 0.50358 0.55502 0.0
Mg22 Mg 0.73057 0.5472 0.49906 0.0
O23 O 0.58532 0.5228 0.55009 0.0
Mg24 Mg 0.5888 0.53808 0.48308 0.0
O25 O 0.67 0.6248 0.48775 0.0
O26 O 0.7938 0.62426 0.5024 0.0
O27 O 0.61009 0.55453 0.41597 0.0
O28 O 0.49735 0.61522 0.48109 0.0
Mg29 Mg 0.46367 0.50016 0.42963 0.0
O30 O 0.49699 0.46169 0.48269 0.0
O31 O 0.53644 0.49377 0.38394 0.0
O32 O 0.41438 0.58591 0.4369 0.0
O33 O 0.4053 0.42271 0.44643 0.0
C34 C 0.72722 0.44758 0.46166 0.0
C35 C 0.64327 0.50459 0.57031 0.0
C36 C 0.73258 0.65416 0.49412 0.0
C37 C 0.59165 0.53038 0.38471 0.0
C38 C 0.43712 0.62434 0.4604 0.0
C39 C 0.44415 0.42108 0.47854 0.0
O40 O 0.76398 0.49597 0.45332 0.0
O41 O 0.6683 0.45097 0.4815 0.0
C42 C 0.98252 0.97648 0.42473 0.0
N43 N 0.01663 0.94803 0.39665 0.0
N44 N 0.944 0.0263 0.4093 0.0
C45 C 0.97884 0.95058 0.46606 0.0
C46 C 0.95291 0.02481 0.37058 0.0
N47 N 0.99728 0.97766 0.36311 0.0
C48 C 0.91198 0.06507 0.33978 0.0
H49 H 0.97656 0.89976 0.46745 0.0
H50 H 0.9287 0.96717 0.47993 0.0
H51 H 0.02992 0.96407 0.48239 0.0
H52 H 0.94417 0.10832 0.33409 0.0
H53 H 0.85522 0.07646 0.34939 0.0
H54 H 0.90609 0.04264 0.31221 0.0
C55 C 1.00537 0.10092 0.54924 0.0
N56 N 0.03183 0.14149 0.57394 0.0
N57 N 0.94113 0.07355 0.56211 0.0
C58 C 0.04609 0.08283 0.51446 0.0
C59 C 0.92931 0.09914 0.59583 0.0
N60 N 0.98467 0.14 0.60319 0.0
C61 C 0.87412 0.07474 0.62568 0.0
H62 H 1.00494 0.06904 0.49219 0.0
H63 H 0.08303 0.04338 0.52332 0.0
H64 H 0.08132 0.12071 0.50155 0.0
H65 H 0.85909 0.11067 0.64492 0.0
H66 H 0.9004 0.03628 0.64381 0.0
H67 H 0.82176 0.0578 0.61208 0.0
C68 C 0.57681 0.52494 0.91172 0.0
N69 N 0.60569 0.48222 0.89021 0.0
N70 N 0.51703 0.55294 0.89329 0.0
C71 C 0.60419 0.53833 0.95162 0.0
C72 C 0.51072 0.52612 0.8594 0.0
N73 N 0.56387 0.48257 0.85775 0.0
C74 C 0.45729 0.54644 0.82644 0.0
H75 H 0.62674 0.58577 0.95052 0.0
H76 H 0.6476 0.50642 0.96429 0.0
H77 H 0.55585 0.53491 0.97107 0.0
H78 H 0.45676 0.5971 0.82211 0.0
H79 H 0.39957 0.53048 0.83357 0.0
H80 H 0.47202 0.52772 0.79885 0.0
C81 C 0.51128 0.59267 0.04368 0.0
N82 N 0.55896 0.60877 0.07258 0.0
N83 N 0.46948 0.54279 0.05541 0.0
C84 C 0.49789 0.62968 0.00583 0.0
C85 C 0.49278 0.52963 0.09254 0.0
N86 N 0.54697 0.56915 0.10281 0.0
C87 C 0.4655 0.47582 0.11831 0.0
H88 H 0.46908 0.67273 0.01139 0.0
H89 H 0.46088 0.60467 -0.01392 0.0
H90 H 0.55172 0.6424 -0.00808 0.0
H91 H 0.45559 0.4352 0.10155 0.0
H92 H 0.41132 0.48796 0.13079 0.0
H93 H 0.50641 0.46385 0.14242 0.0
H94 H 0.18851 0.22047 -0.01739 0.0
C95 C 0.24312 0.19974 -0.01089 0.0
H96 H 0.35722 0.21399 0.0051 0.0
H97 H 0.38767 0.49292 0.95865 0.0
H98 H 0.40165 0.46042 0.89408 0.0
H99 H 0.37287 0.3546 0.87921 0.0
H100 H 0.32489 0.28076 0.92883 0.0
C101 C 0.30275 0.2348 -0.0017 0.0
C102 C 0.29854 0.30139 0.00366 0.0
C103 C 0.32649 0.34406 0.97474 0.0
C104 C 0.3444 0.40507 -0.01644 0.0
C105 C 0.37271 0.44623 0.95381 0.0
C106 C 0.38195 0.42802 0.91661 0.0
C107 C 0.36522 0.36839 0.90819 0.0
C108 C 0.33807 0.32654 0.93688 0.0
H109 H 0.47375 0.47037 0.0163 0.0
C110 C 0.43611 0.49884 0.03123 0.0
H111 H 0.32734 0.51179 0.0499 0.0
H112 H 0.23643 0.23265 0.06406 0.0
H113 H 0.21311 0.26528 0.12795 0.0
H114 H 0.24405 0.37057 0.14398 0.0
H115 H 0.2979 0.44362 0.09656 0.0
C116 C 0.36291 0.48386 0.0335 0.0
C117 C 0.33389 0.4234 0.02158 0.0
C118 C 0.29964 0.38174 0.04963 0.0
C119 C 0.2822 0.32071 0.0406 0.0
C120 C 0.25095 0.27937 0.06949 0.0
C121 C 0.23715 0.2975 0.10627 0.0
C122 C 0.25447 0.35678 0.11526 0.0
C123 C 0.28541 0.39848 0.08751 0.0
H124 H 0.18147 0.83636 0.94709 0.0
C125 C 0.22904 0.86279 0.95733 0.0
H126 H 0.34692 0.86772 0.96597 0.0
H127 H 0.30727 0.57059 0.94777 0.0
H128 H 0.2284 0.56667 0.00399 0.0
H129 H 0.19179 0.66172 0.03218 0.0
H130 H 0.23214 0.76082 0.00374 0.0
C131 C 0.29935 0.8407 0.95635 0.0
C132 C 0.31761 0.78272 0.93909 0.0
C133 C 0.29483 0.72513 0.95682 0.0
C134 C 0.31919 0.67014 0.94184 0.0
C135 C 0.29338 0.61337 0.95911 0.0
C136 C 0.24757 0.6106 -0.0088 0.0
C137 C 0.22662 0.66411 0.00692 0.0
C138 C 0.24982 0.72082 -0.00991 0.0
H139 H 0.51377 0.64102 0.91842 0.0
C140 C 0.48004 0.60678 0.9046 0.0
H141 H 0.3699 0.57987 0.88873 0.0
H142 H 0.36552 0.88544 0.89606 0.0
H143 H 0.44572 0.88867 0.8404 0.0
H144 H 0.49122 0.79327 0.81585 0.0
H145 H 0.45654 0.69441 0.84672 0.0
C146 C 0.40558 0.61554 0.89955 0.0
C147 C 0.37021 0.67278 0.91092 0.0
C148 C 0.39053 0.73039 0.89227 0.0
C149 C 0.36407 0.78532 0.90632 0.0
C150 C 0.38483 0.84223 0.88696 0.0
C151 C 0.43054 0.84478 0.85482 0.0
C152 C 0.45617 0.79112 0.84102 0.0
C153 C 0.43629 0.73454 0.85926 0.0
H154 H 0.8315 0.87447 0.96492 0.0
C155 C 0.87666 0.88917 -0.01599 0.0
H156 H 0.92591 0.87665 0.04 0.0
H157 H 0.61577 0.77268 0.10607 0.0
H158 H 0.64382 0.85742 0.14548 0.0
H159 H 0.75566 0.92307 0.13331 0.0
H160 H 0.84065 0.90404 0.08213 0.0
C161 C 0.8855 0.85961 0.01925 0.0
C162 C 0.82804 0.8125 0.03236 0.0
C163 C 0.77905 0.82437 0.06262 0.0
C164 C 0.71373 0.78719 0.06929 0.0
C165 C 0.6656 0.8 0.09953 0.0
C166 C 0.68108 0.84841 0.1224 0.0
C167 C 0.7441 0.88532 0.11556 0.0
C168 C 0.7925 0.87386 0.08599 0.0
H169 H 0.67819 0.62919 0.08135 0.0
C170 C 0.62538 0.64712 0.06904 0.0
H171 H 0.57346 0.72461 0.04006 0.0
H172 H 0.91896 0.76865 0.97865 0.0
H173 H 0.89263 0.68196 0.94045 0.0
H174 H 0.77647 0.62049 0.94988 0.0
H175 H 0.68686 0.64477 -0.00214 0.0
C176 C 0.62559 0.70318 0.05056 0.0
C177 C 0.69736 0.73845 0.04574 0.0
C178 C 0.74916 0.72377 0.01745 0.0
C179 C 0.81508 0.76023 0.01121 0.0
C180 C 0.86676 0.74368 -0.01651 0.0
C181 C 0.85263 0.6938 0.96162 0.0
C182 C 0.78732 0.65914 0.96699 0.0
C183 C 0.73618 0.67364 -0.00541 0.0
H184 H 0.96991 0.2336 0.95948 0.0
C185 C 0.94239 0.21311 -0.01496 0.0
H186 H 0.85146 0.21453 0.02179 0.0
H187 H 0.80977 0.43698 0.87417 0.0
H188 H 0.93559 0.47375 0.88961 0.0
H189 H 1.01058 0.42351 0.94389 0.0
H190 H 0.96178 0.33446 -0.01839 0.0
C191 C 0.87712 0.23602 -0.00403 0.0
C192 C 0.82816 0.27471 0.96815 0.0
C193 C 0.8549 0.33015 0.94903 0.0
C194 C 0.80877 0.36293 0.92041 0.0
C195 C 0.84042 0.41337 0.8982 0.0
C196 C 0.91273 0.43452 0.90651 0.0
C197 C 0.9551 0.40601 0.9369 0.0
C198 C 0.92676 0.35449 0.95805 0.0
H199 H 0.71077 0.46233 0.92203 0.0
C200 C 0.67078 0.44528 0.90117 0.0
H201 H 0.63745 0.36795 0.87251 0.0
H202 H 0.76168 0.16462 -0.00667 0.0
H203 H 0.63261 0.13446 -0.01735 0.0
H204 H 0.54541 0.20173 0.94301 0.0
H205 H 0.58797 0.2981 0.91244 0.0
C206 C 0.67827 0.38723 0.89199 0.0
C207 C 0.73227 0.34541 0.91479 0.0
C208 C 0.70498 0.29049 0.93434 0.0
C209 C 0.75387 0.25381 0.9596 0.0
C210 C 0.72659 0.1965 0.97585 0.0
C211 C 0.65237 0.1781 0.96968 0.0
C212 C 0.60343 0.2158 0.94722 0.0
C213 C 0.62902 0.27121 0.92965 0.0
H214 H 0.6783 0.74434 0.49677 0.0
C215 C 0.73215 0.72136 0.4964 0.0
H216 H 0.84998 0.72919 0.5028 0.0
H217 H 0.75452 0.02377 0.48618 0.0
H218 H 0.6981 0.00591 0.42338 0.0
H219 H 0.69086 0.90203 0.40091 0.0
H220 H 0.73686 0.81461 0.44166 0.0
C221 C 0.79643 0.75285 0.50214 0.0
C222 C 0.79781 0.81623 0.51511 0.0
C223 C 0.77237 0.86699 0.49042 0.0
C224 C 0.78005 0.92751 0.5026 0.0
C225 C 0.75205 0.97714 0.47794 0.0
C226 C 0.71962 0.96761 0.44183 0.0
C227 C 0.71511 0.90898 0.42925 0.0
C228 C 0.74129 0.8591 0.45307 0.0
H229 H 0.95646 0.97953 0.54805 0.0
C230 C 0.91474 0.0144 0.55185 0.0
H231 H 0.7994 0.03607 0.54825 0.0
H232 H 0.84323 0.72877 0.57173 0.0
H233 H 0.89551 0.74653 0.63522 0.0
H234 H 0.9103 0.85153 0.65571 0.0
H235 H 0.87279 0.93917 0.61272 0.0
C236 C 0.84137 0.00066 0.54706 0.0
C237 C 0.81754 0.93739 0.53827 0.0
C238 C 0.83809 0.88636 0.56405 0.0
C239 C 0.82861 0.82586 0.5524 0.0
C240 C 0.84996 0.77584 0.57878 0.0
C241 C 0.87967 0.78532 0.61547 0.0
C242 C 0.88808 0.84439 0.62699 0.0
C243 C 0.86715 0.8944 0.60182 0.0
H244 H 0.80627 0.39007 0.43334 0.0
C245 C 0.75851 0.38848 0.45238 0.0
H246 H 0.68738 0.33109 0.4876 0.0
H247 H 0.76739 0.09739 0.39759 0.0
H248 H 0.6334 0.10615 0.38463 0.0
H249 H 0.56247 0.19272 0.40659 0.0
H250 H 0.62551 0.2711 0.44167 0.0
C251 C 0.73526 0.33395 0.46867 0.0
C252 C 0.77524 0.27646 0.46111 0.0
C253 C 0.73734 0.23017 0.44159 0.0
C254 C 0.77831 0.17993 0.42914 0.0
C255 C 0.73931 0.13589 0.40827 0.0
C256 C 0.66224 0.14051 0.4005 0.0
C257 C 0.62232 0.18926 0.41284 0.0
C258 C 0.65919 0.23389 0.43298 0.0
H259 H 0.87051 0.05419 0.45463 0.0
C260 C 0.90178 0.06977 0.42928 0.0
H261 H 0.94004 0.14711 0.39519 0.0
H262 H 0.86087 0.3477 0.50701 0.0
H263 H 0.99447 0.33905 0.52036 0.0
H264 H 0.06798 0.25659 0.49489 0.0
H265 H 1.00678 0.18216 0.45569 0.0
C266 C 0.90265 0.12995 0.41786 0.0
C267 C 0.85721 0.17609 0.43631 0.0
C268 C 0.89413 0.22061 0.45777 0.0
C269 C 0.85271 0.26965 0.4712 0.0
C270 C 0.89025 0.31124 0.49455 0.0
C271 C 0.96699 0.30631 0.50287 0.0
C272 C 1.00814 0.2599 0.48853 0.0
C273 C 0.97238 0.21743 0.46618 0.0
H274 H 0.43639 0.39118 0.54101 0.0
C275 C 0.41812 0.3811 0.51198 0.0
H276 H 0.34279 0.33167 0.47779 0.0
H277 H 0.22726 0.15276 0.61669 0.0
H278 H 0.34636 0.09988 0.61279 0.0
H279 H 0.4498 0.14711 0.57434 0.0
H280 H 0.43525 0.24814 0.5402 0.0
C281 C 0.3616 0.34095 0.50689 0.0
C282 C 0.31027 0.31928 0.53821 0.0
C283 C 0.31959 0.26063 0.55763 0.0
C284 C 0.25906 0.23255 0.57857 0.0
C285 C 0.27049 0.17469 0.59892 0.0
C286 C 0.33868 0.1443 0.5972 0.0
C287 C 0.39698 0.17095 0.5756 0.0
C288 C 0.38791 0.2286 0.55603 0.0
H289 H 0.14415 0.1582 0.5513 0.0
C290 C 0.10284 0.17417 0.57063 0.0
H291 H 0.07602 0.24547 0.60497 0.0
H292 H 0.28062 0.43761 0.51117 0.0
H293 H 0.16556 0.49328 0.51909 0.0
H294 H 0.06041 0.44472 0.55543 0.0
H295 H 0.06938 0.34049 0.58371 0.0
C296 C 0.11821 0.2262 0.58773 0.0
C297 C 0.18831 0.2622 0.57833 0.0
C298 C 0.18307 0.32453 0.5639 0.0
C299 C 0.24401 0.35285 0.54336 0.0
C300 C 0.23613 0.41396 0.52713 0.0
C301 C 0.17047 0.44652 0.53155 0.0
C302 C 0.11133 0.41919 0.55202 0.0
C303 C 0.11718 0.35896 0.56801 0.0
H304 H 0.41348 0.71559 0.4814 0.0
C305 C 0.39295 0.68086 0.46288 0.0
H306 H 0.30907 0.65577 0.42253 0.0
H307 H 0.10311 0.85921 0.49759 0.0
H308 H 0.11288 0.7952 0.55779 0.0
H309 H 0.20055 0.70819 0.56495 0.0
H310 H 0.27899 0.6848 0.51198 0.0
C311 C 0.32848 0.68977 0.44186 0.0
C312 C 0.2841 0.74718 0.44027 0.0
C313 C 0.23929 0.76059 0.47177 0.0
C314 C 0.18828 0.81054 0.46751 0.0
C315 C 0.14306 0.82215 0.49919 0.0
C316 C 0.14796 0.78564 0.53394 0.0
C317 C 0.19732 0.73667 0.53797 0.0
C318 C 0.2423 0.72389 0.50731 0.0
H319 H 0.06327 0.86143 0.38127 0.0
C320 C 0.06791 0.89727 0.40125 0.0
H321 H 0.13227 0.93423 0.44593 0.0
H322 H 0.36506 0.73595 0.3751 0.0
H323 H 0.35659 0.80073 0.31507 0.0
H324 H 0.27056 0.88886 0.30821 0.0
H325 H 0.19252 0.91255 0.36115 0.0
C326 C 0.12579 0.89705 0.4271 0.0
C327 C 0.18163 0.84653 0.43167 0.0
C328 C 0.22892 0.83474 0.40075 0.0
C329 C 0.27952 0.78461 0.40495 0.0
C330 C 0.32522 0.77317 0.37341 0.0
C331 C 0.32127 0.81021 0.33885 0.0
C332 C 0.27284 0.85978 0.33498 0.0
C333 C 0.22765 0.87247 0.36555 0.0
H334 H 0.17081 0.97987 0.13997 0.0
C335 C 0.1227 0.99042 0.12057 0.0
H336 H 1.00608 0.00862 0.11769 0.0
H337 H 0.10494 0.87833 0.29475 0.0
H338 H 0.11832 0.78487 0.26232 0.0
H339 H 0.09694 0.78455 0.19161 0.0
H340 H 0.06372 0.87819 0.15283 0.0
C341 C 0.05483 0.99533 0.13589 0.0
C342 C 0.04939 0.99203 0.17888 0.0
C343 C 0.06484 0.93641 0.20141 0.0
C344 C 0.07349 0.93599 0.2424 0.0
C345 C 0.09424 0.88067 0.26379 0.0
C346 C 0.10273 0.82679 0.24547 0.0
C347 C 0.09103 0.82666 0.20565 0.0
C348 C 0.0724 0.88072 0.18372 0.0
H349 H 0.97544 0.92789 0.3121 0.0
C350 C 0.01403 0.95936 0.32542 0.0
H351 H 0.10074 0.02398 0.31762 0.0
H352 H 0.01658 0.10571 0.14434 0.0
H353 H 1.00106 0.19895 0.17659 0.0
H354 H 0.01339 0.19823 0.24772 0.0
H355 H 0.04175 0.10476 0.28687 0.0
C356 C 0.0655 0.99047 0.30404 0.0
C357 C 0.06311 0.99071 0.26097 0.0
C358 C 0.04641 0.04618 0.23841 0.0
C359 C 0.03901 0.04667 0.19738 0.0
C360 C 0.02273 0.10269 0.17558 0.0
C361 C 0.01356 0.1566 0.19372 0.0
C362 C 0.02048 0.15619 0.23374 0.0
C363 C 0.03666 0.1019 0.25593 0.0
H364 H 0.12347 0.06864 0.84557 0.0
C365 C 0.06955 0.08556 0.85407 0.0
H366 H 0.96937 0.13131 0.8352 0.0
H367 H 0.10195 0.24284 0.67662 0.0
H368 H 0.11434 0.33223 0.71382 0.0
H369 H 0.09328 0.32391 0.78421 0.0
H370 H 0.05997 0.22614 0.81784 0.0
C371 C 0.02266 0.11274 0.82711 0.0
C372 C 0.04042 0.11693 0.78535 0.0
C373 C 0.05967 0.17435 0.76626 0.0
C374 C 0.071 0.17936 0.72566 0.0
C375 C 0.0912 0.23698 0.70728 0.0
C376 C 0.09891 0.28848 0.72834 0.0
C377 C 0.08713 0.28377 0.76798 0.0
C378 C 0.0679 0.22745 0.78691 0.0
H379 H 0.95917 0.17946 0.65703 0.0
C380 C 1.0025 0.15753 0.64153 0.0
H381 H 0.10183 0.10614 0.64668 0.0
H382 H 1.00194 -4e-05 0.81288 0.0
H383 H 0.98932 0.91125 0.77556 0.0
H384 H 1.01023 0.91983 0.70521 0.0
H385 H 0.04397 0.01711 0.67188 0.0
C386 C 0.06211 0.1331 0.66136 0.0
C387 C 0.06198 0.1271 0.7043 0.0
C388 C 0.04504 0.06922 0.72354 0.0
C389 C 0.0336 0.06418 0.76411 0.0
C390 C 0.01295 0.00638 0.78228 0.0
C391 C 1.00506 0.955 0.76115 0.0
C392 C 0.01679 0.95983 0.72156 0.0
C393 C 0.03631 0.0161 0.7028 0.0
H394 H 0.6927 0.47296 0.62687 0.0
C395 C 0.64024 0.48766 0.61227 0.0
H396 H 0.52734 0.5117 0.62019 0.0
H397 H 0.65982 0.36377 0.78614 0.0
H398 H 0.65864 0.27267 0.75022 0.0
H399 H 0.62282 0.27883 0.68069 0.0
H400 H 0.58874 0.37618 0.64651 0.0
C401 C 0.57954 0.49429 0.63366 0.0
C402 C 0.58773 0.4879 0.67678 0.0
C403 C 0.60536 0.43036 0.69659 0.0
C404 C 0.62367 0.42643 0.73697 0.0
C405 C 0.64362 0.36889 0.75572 0.0
C406 C 0.64346 0.31637 0.73542 0.0
C407 C 0.62352 0.31987 0.69623 0.0
C408 C 0.60458 0.37606 0.67691 0.0
H409 H 0.53453 0.42737 0.81046 0.0
C410 C 0.58003 0.45321 0.82332 0.0
H411 H 0.6765 0.50641 0.81246 0.0
H412 H 0.55222 0.60461 0.64819 0.0
H413 H 0.54741 0.69449 0.68463 0.0
H414 H 0.5763 0.68742 0.75488 0.0
H415 H 0.61073 0.59086 0.78896 0.0
C416 C 0.63485 0.47596 0.80049 0.0
C417 C 0.62233 0.47972 0.75768 0.0
C418 C 0.60255 0.53698 0.73809 0.0
C419 C 0.58495 0.54097 0.69767 0.0
C420 C 0.56567 0.59875 0.67888 0.0
C421 C 0.56265 0.65082 0.69946 0.0
C422 C 0.579 0.64687 0.73898 0.0
C423 C 0.59888 0.5909 0.75818 0.0
H424 H 0.681 0.57777 0.34971 0.0
C425 C 0.6323 0.54746 0.3487 0.0
H426 H 0.55974 0.49667 0.31396 0.0
H427 H 0.64659 0.68398 0.16876 0.0
H428 H 0.60807 0.76814 0.20568 0.0
H429 H 0.58294 0.75057 0.27547 0.0
H430 H 0.59756 0.64977 0.30885 0.0
C431 C 0.60731 0.5282 0.31469 0.0
C432 C 0.64242 0.54515 0.27683 0.0
C433 C 0.63346 0.60484 0.25818 0.0
C434 C 0.64514 0.61472 0.21772 0.0
C435 C 0.63631 0.67431 0.19933 0.0
C436 C 0.61461 0.72279 0.22017 0.0
C437 C 0.60064 0.71289 0.25947 0.0
C438 C 0.60947 0.65466 0.27837 0.0
H439 H 0.5293 0.58123 0.16332 0.0
C440 C 0.57207 0.57634 0.1419 0.0
H441 H 0.68619 0.55715 0.13342 0.0
H442 H 0.68208 0.43004 0.3056 0.0
H443 H 0.72531 0.34772 0.26853 0.0
H444 H 0.74064 0.36432 0.19784 0.0
H445 H 0.71349 0.46325 0.16384 0.0
C446 C 0.64399 0.56841 0.15371 0.0
C447 C 0.6621 0.56471 0.19598 0.0
C448 C 0.68079 0.50741 0.21534 0.0
C449 C 0.67103 0.49768 0.25593 0.0
C450 C 0.68762 0.4394 0.27464 0.0
C451 C 0.71269 0.39198 0.25375 0.0
C452 C 0.72137 0.40134 0.21395 0.0
C453 C 0.70543 0.45826 0.19477 0.0
loop_
_geom_bond_atom_site_label_1
_geom_bond_atom_site_label_2
_geom_bond_distance
_geom_bond_site_symmetry_2
_ccdc_geom_bond_type
O0 Mg1 1.990 . S
O0 C14 1.253 . S
Mg1 O0 1.990 . S
Mg1 O4 2.180 . S
Mg1 O5 2.117 . S
Mg1 O19 2.030 1_545 S
O2 Mg3 2.072 1_554 S
O2 C14 1.260 . S
Mg3 O2 2.072 1_556 S
Mg3 O4 2.099 1_556 S
Mg3 O6 2.079 . S
Mg3 O7 2.073 1_556 S
Mg3 O9 2.099 1_445 S
Mg3 O20 2.079 1_545 S
O4 Mg1 2.180 . S
O4 Mg3 2.099 1_554 S
O4 C15 1.279 . S
O5 Mg1 2.117 . S
O5 C15 1.250 . S
O6 Mg3 2.079 . S
O6 C16 1.264 . S
O7 Mg3 2.073 1_554 S
O7 C17 1.261 1_454 S
Mg8 O9 2.180 1_545 S
Mg8 O10 2.030 . S
Mg8 O11 1.990 . S
Mg8 O12 2.117 1_545 S
O9 Mg3 2.099 1_665 S
O9 Mg8 2.180 1_565 S
O9 C18 1.279 1_556 S
O10 Mg8 2.030 . S
O10 C16 1.248 1_655 S
O11 Mg8 1.990 . S
O11 C17 1.253 . S
O12 Mg8 2.117 1_565 S
O12 C18 1.250 1_556 S
C13 O19 1.248 . S
C13 O20 1.264 1_554 S
C14 O0 1.253 . S
C14 O2 1.260 . S
C15 O4 1.279 . S
C15 O5 1.250 . S
C16 O6 1.264 . S
C16 O10 1.248 1_455 S
C17 O7 1.261 1_656 S
C17 O11 1.253 . S
C18 O9 1.279 1_554 S
C18 O12 1.250 1_554 S
O19 Mg1 2.030 1_565 S
O19 C13 1.248 . S
O20 Mg3 2.079 1_565 S
O20 C13 1.264 1_556 S
O21 Mg22 1.990 . S
O21 C35 1.253 . S
Mg22 O21 1.990 . S
Mg22 O25 2.180 . S
Mg22 O26 2.117 . S
Mg22 O40 2.030 . S
O23 Mg24 2.072 . S
O23 C35 1.260 . S
Mg24 O23 2.072 . S
Mg24 O25 2.099 . S
Mg24 O27 2.079 . S
Mg24 O28 2.072 . S
Mg24 O30 2.099 . S
Mg24 O41 2.079 . S
O25 Mg22 2.180 . S
O25 Mg24 2.099 . S
O25 C36 1.279 . S
O26 Mg22 2.117 . S
O26 C36 1.250 . S
O27 Mg24 2.079 . S
O27 C37 1.264 . S
O28 Mg24 2.072 . S
O28 C38 1.260 . S
Mg29 O30 2.180 . S
Mg29 O31 2.030 . S
Mg29 O32 1.990 . S
Mg29 O33 2.117 . S
O30 Mg24 2.099 . S
O30 Mg29 2.180 . S
O30 C39 1.279 . S
O31 Mg29 2.030 . S
O31 C37 1.248 . S
O32 Mg29 1.990 . S
O32 C38 1.253 . S
O33 Mg29 2.117 . S
O33 C39 1.250 . S
C34 O40 1.248 . S
C34 O41 1.264 . S
C35 O21 1.253 . S
C35 O23 1.260 . S
C36 O25 1.279 . S
C36 O26 1.250 . S
C37 O27 1.264 . S
C37 O31 1.248 . S
C38 O28 1.260 . S
C38 O32 1.253 . S
C39 O30 1.279 . S
C39 O33 1.250 . S
O40 Mg22 2.030 . S
O40 C34 1.248 . S
O41 Mg24 2.079 . S
O41 C34 1.264 . S
C42 N43 1.317 1_545 S
C42 N44 1.348 1_455 S
C42 C45 1.482 1_545 S
N43 C42 1.317 1_565 S
N43 N47 1.370 1_565 S
N44 C42 1.348 1_655 S
N44 C46 1.346 . S
C45 C42 1.482 1_565 S
C45 H49 0.970 . S
C45 H50 0.947 1_565 S
C45 H51 0.967 . S
C46 N44 1.346 . S
C46 N47 1.305 1_655 S
C46 C48 1.488 . S
N47 N43 1.370 1_545 S
N47 C46 1.305 1_455 S
C48 C46 1.488 . S
C48 H52 0.960 . S
C48 H53 0.960 . S
C48 H54 0.959 . S
H49 C45 0.970 . S
H50 C45 0.947 1_545 S
H51 C45 0.967 . S
H52 C48 0.960 . S
H53 C48 0.960 . S
H54 C48 0.959 . S
C55 N56 1.317 . S
C55 N57 1.348 1_455 S
C55 C58 1.485 . S
N56 C55 1.317 . S
N56 N60 1.370 . S
N57 C55 1.348 1_655 S
N57 C59 1.346 . S
C58 C55 1.485 . S
C58 H62 0.960 1_455 S
C58 H63 0.961 . S
C58 H64 0.960 . S
C59 N57 1.346 . S
C59 N60 1.307 1_655 S
C59 C61 1.486 . S
N60 N56 1.370 . S
N60 C59 1.307 1_455 S
C61 C59 1.486 . S
C61 H65 0.960 1_545 S
C61 H66 0.960 . S
C61 H67 0.959 . S
H62 C58 0.960 1_655 S
H63 C58 0.961 . S
H64 C58 0.960 . S
H65 C61 0.960 1_565 S
H66 C61 0.960 . S
H67 C61 0.959 . S
C68 N69 1.317 . S
C68 N70 1.348 . S
C68 C71 1.485 1_556 S
N69 C68 1.317 . S
N69 N73 1.370 . S
N70 C68 1.348 . S
N70 C72 1.346 . S
C71 C68 1.485 1_554 S
C71 H75 0.960 . S
C71 H76 0.961 . S
C71 H77 0.960 . S
C72 N70 1.346 . S
C72 N73 1.307 . S
C72 C74 1.486 . S
N73 N69 1.370 . S
N73 C72 1.307 . S
C74 C72 1.486 . S
C74 H78 0.960 . S
C74 H79 0.960 . S
C74 H80 0.959 . S
H75 C71 0.960 . S
H76 C71 0.961 . S
H77 C71 0.960 . S
H78 C74 0.960 . S
H79 C74 0.960 . S
H80 C74 0.959 . S
C81 N82 1.317 . S
C81 N83 1.348 . S
C81 C84 1.485 1_554 S
N82 C81 1.317 . S
N82 N86 1.370 . S
N83 C81 1.348 . S
N83 C85 1.346 . S
C84 C81 1.485 1_556 S
C84 H88 0.960 . S
C84 H89 0.961 . S
C84 H90 0.960 . S
C85 N83 1.346 . S
C85 N86 1.307 . S
C85 C87 1.486 . S
N86 N82 1.370 . S
N86 C85 1.307 . S
C87 C85 1.486 . S
C87 H91 0.960 . S
C87 H92 0.960 . S
C87 H93 0.959 . S
H88 C84 0.960 . S
H89 C84 0.961 . S
H90 C84 0.960 . S
H91 C87 0.960 . S
H92 C87 0.960 . S
H93 C87 0.959 . S
H94 C95 0.951 . S
C95 H94 0.951 . S
C95 C101 1.265 . S
H96 C101 0.950 1_556 S
H97 C105 0.949 . S
H98 C106 0.950 . S
H99 C107 0.951 . S
H100 C108 0.951 . S
C101 C95 1.265 . S
C101 H96 0.950 1_554 S
C101 C102 1.478 . S
C102 C101 1.478 . S
C102 C103 1.397 1_554 S
C102 C119 1.394 . S
C103 C102 1.397 1_556 S
C103 C104 1.438 . S
C103 C108 1.429 . S
C104 C103 1.438 . S
C104 C105 1.428 . S
C104 C117 1.394 1_556 S
C105 H97 0.949 . S
C105 C104 1.428 . S
C105 C106 1.345 . S
C106 H98 0.950 . S
C106 C105 1.345 . S
C106 C107 1.424 . S
C107 H99 0.951 . S
C107 C106 1.424 . S
C107 C108 1.347 . S
C108 H100 0.951 . S
C108 C103 1.429 . S
C108 C107 1.347 . S
H109 C110 0.951 . S
C110 H109 0.951 . S
C110 C116 1.265 . S
H111 C116 0.950 . S
H112 C120 0.949 . S
H113 C121 0.950 . S
H114 C122 0.951 . S
H115 C123 0.951 . S
C116 C110 1.265 . S
C116 H111 0.950 . S
C116 C117 1.478 . S
C117 C104 1.394 1_554 S
C117 C116 1.478 . S
C117 C118 1.397 . S
C118 C117 1.397 . S
C118 C119 1.438 . S
C118 C123 1.429 . S
C119 C102 1.394 . S
C119 C118 1.438 . S
C119 C120 1.428 . S
C120 H112 0.949 . S
C120 C119 1.428 . S
C120 C121 1.345 . S
C121 H113 0.950 . S
C121 C120 1.345 . S
C121 C122 1.424 . S
C122 H114 0.951 . S
C122 C121 1.424 . S
C122 C123 1.347 . S
C123 H115 0.951 . S
C123 C118 1.429 . S
C123 C122 1.347 . S
H124 C125 0.951 1_556 S
C125 H124 0.951 1_554 S
C125 C131 1.265 . S
H126 C131 0.950 . S
H127 C135 0.949 . S
H128 C136 0.950 . S
H129 C137 0.951 . S
H130 C138 0.951 . S
C131 C125 1.265 . S
C131 H126 0.950 . S
C131 C132 1.478 . S
C132 C131 1.478 . S
C132 C133 1.397 . S
C132 C149 1.394 1_554 S
C133 C132 1.397 . S
C133 C134 1.438 . S
C133 C138 1.429 . S
C134 C133 1.438 . S
C134 C135 1.428 . S
C134 C147 1.394 1_554 S
C135 H127 0.949 . S
C135 C134 1.428 . S
C135 C136 1.345 . S
C136 H128 0.950 . S
C136 C135 1.345 . S
C136 C137 1.424 . S
C137 H129 0.951 . S
C137 C136 1.424 . S
C137 C138 1.347 . S
C138 H130 0.951 . S
C138 C133 1.429 . S
C138 C137 1.347 . S
H139 C140 0.951 . S
C140 H139 0.951 . S
C140 C146 1.265 . S
H141 C146 0.950 . S
H142 C150 0.949 . S
H143 C151 0.950 . S
H144 C152 0.951 . S
H145 C153 0.951 . S
C146 C140 1.265 . S
C146 H141 0.950 . S
C146 C147 1.478 . S
C147 C134 1.394 1_556 S
C147 C146 1.478 . S
C147 C148 1.397 . S
C148 C147 1.397 . S
C148 C149 1.438 . S
C148 C153 1.429 . S
C149 C132 1.394 1_556 S
C149 C148 1.438 . S
C149 C150 1.428 . S
C150 H142 0.949 . S
C150 C149 1.428 . S
C150 C151 1.345 . S
C151 H143 0.950 . S
C151 C150 1.345 . S
C151 C152 1.424 . S
C152 H144 0.951 . S
C152 C151 1.424 . S
C152 C153 1.347 . S
C153 H145 0.951 . S
C153 C148 1.429 . S
C153 C152 1.347 . S
H154 C155 0.951 . S
C155 H154 0.951 . S
C155 C161 1.265 . S
H156 C161 0.950 . S
H157 C165 0.949 . S
H158 C166 0.950 . S
H159 C167 0.951 . S
H160 C168 0.951 . S
C161 C155 1.265 . S
C161 H156 0.950 . S
C161 C162 1.478 . S
C162 C161 1.478 . S
C162 C163 1.397 . S
C162 C179 1.413 . S
C163 C162 1.397 . S
C163 C164 1.438 . S
C163 C168 1.429 . S
C164 C163 1.438 . S
C164 C165 1.428 . S
C164 C177 1.394 . S
C165 H157 0.949 . S
C165 C164 1.428 . S
C165 C166 1.345 . S
C166 H158 0.950 . S
C166 C165 1.345 . S
C166 C167 1.424 . S
C167 H159 0.951 . S
C167 C166 1.424 . S
C167 C168 1.347 . S
C168 H160 0.951 . S
C168 C163 1.429 . S
C168 C167 1.347 . S
H169 C170 0.951 . S
C170 H169 0.951 . S
C170 C176 1.265 . S
H171 C176 0.950 . S
H172 C180 0.949 . S
H173 C181 0.950 . S
H174 C182 0.951 . S
H175 C183 0.951 . S
C176 C170 1.265 . S
C176 H171 0.950 . S
C176 C177 1.478 . S
C177 C164 1.394 . S
C177 C176 1.478 . S
C177 C178 1.397 . S
C178 C177 1.397 . S
C178 C179 1.438 . S
C178 C183 1.429 1_554 S
C179 C162 1.413 . S
C179 C178 1.438 . S
C179 C180 1.408 1_554 S
C180 H172 0.949 . S
C180 C179 1.408 1_556 S
C180 C181 1.345 . S
C181 H173 0.950 . S
C181 C180 1.345 . S
C181 C182 1.424 . S
C182 H174 0.951 . S
C182 C181 1.424 . S
C182 C183 1.347 . S
C183 H175 0.951 . S
C183 C178 1.429 1_556 S
C183 C182 1.347 . S
H184 C185 0.951 . S
C185 H184 0.951 . S
C185 C191 1.265 . S
H186 C191 0.950 1_554 S
H187 C195 0.949 . S
H188 C196 0.950 . S
H189 C197 0.951 . S
H190 C198 0.951 . S
C191 C185 1.265 . S
C191 H186 0.950 1_556 S
C191 C192 1.478 . S
C192 C191 1.478 . S
C192 C193 1.397 . S
C192 C209 1.394 . S
C193 C192 1.397 . S
C193 C194 1.438 . S
C193 C198 1.429 . S
C194 C193 1.438 . S
C194 C195 1.428 . S
C194 C207 1.394 . S
C195 H187 0.949 . S
C195 C194 1.428 . S
C195 C196 1.345 . S
C196 H188 0.950 . S
C196 C195 1.345 . S
C196 C197 1.424 . S
C197 H189 0.951 . S
C197 C196 1.424 . S
C197 C198 1.347 . S
C198 H190 0.951 . S
C198 C193 1.429 . S
C198 C197 1.347 . S
H199 C200 0.951 . S
C200 H199 0.951 . S
C200 C206 1.265 . S
H201 C206 0.950 . S
H202 C210 0.949 . S
H203 C211 0.950 . S
H204 C212 0.951 . S
H205 C213 0.947 1_556 S
C206 C200 1.265 . S
C206 H201 0.950 . S
C206 C207 1.478 . S
C207 C194 1.394 . S
C207 C206 1.478 . S
C207 C208 1.397 . S
C208 C207 1.397 . S
C208 C209 1.438 . S
C208 C213 1.421 1_556 S
C209 C192 1.394 . S
C209 C208 1.438 . S
C209 C210 1.428 1_556 S
C210 H202 0.949 . S
C210 C209 1.428 1_554 S
C210 C211 1.345 . S
C211 H203 0.950 . S
C211 C210 1.345 . S
C211 C212 1.424 . S
C212 H204 0.951 . S
C212 C211 1.424 . S
C212 C213 1.360 . S
C213 H205 0.947 1_554 S
C213 C208 1.421 1_554 S
C213 C212 1.360 . S
H214 C215 0.951 . S
C215 H214 0.951 . S
C215 C221 1.265 . S
H216 C221 0.950 . S
H217 C225 0.949 . S
H218 C226 0.950 1_455 S
H219 C227 0.951 . S
H220 C228 0.951 . S
C221 C215 1.265 . S
C221 H216 0.950 . S
C221 C222 1.478 . S
C222 C221 1.478 . S
C222 C223 1.397 . S
C222 C239 1.394 . S
C223 C222 1.397 . S
C223 C224 1.438 . S
C223 C228 1.429 . S
C224 C223 1.438 . S
C224 C225 1.428 . S
C224 C237 1.394 . S
C225 H217 0.949 . S
C225 C224 1.428 . S
C225 C226 1.345 . S
C226 H218 0.950 1_655 S
C226 C225 1.345 . S
C226 C227 1.424 . S
C227 H219 0.951 . S
C227 C226 1.424 . S
C227 C228 1.347 . S
C228 H220 0.951 . S
C228 C223 1.429 . S
C228 C227 1.347 . S
H229 C230 0.951 . S
C230 H229 0.951 . S
C230 C236 1.265 . S
H231 C236 0.950 1_545 S
H232 C240 0.949 . S
H233 C241 0.950 . S
H234 C242 0.951 . S
H235 C243 0.951 . S
C236 C230 1.265 . S
C236 H231 0.950 1_565 S
C236 C237 1.478 . S
C237 C224 1.394 . S
C237 C236 1.478 . S
C237 C238 1.397 . S
C238 C237 1.397 . S
C238 C239 1.438 . S
C238 C243 1.429 . S
C239 C222 1.394 . S
C239 C238 1.438 . S
C239 C240 1.428 . S
C240 H232 0.949 . S
C240 C239 1.428 . S
C240 C241 1.345 . S
C241 H233 0.950 . S
C241 C240 1.345 . S
C241 C242 1.424 . S
C242 H234 0.951 . S
C242 C241 1.424 . S
C242 C243 1.347 . S
C243 H235 0.951 . S
C243 C238 1.429 . S
C243 C242 1.347 . S
H244 C245 0.951 . S
C245 H244 0.951 . S
C245 C251 1.265 . S
H246 C251 0.950 . S
H247 C255 0.949 . S
H248 C256 0.950 . S
H249 C257 0.951 . S
H250 C258 0.951 . S
C251 C245 1.265 . S
C251 H246 0.950 . S
C251 C252 1.478 . S
C252 C251 1.478 . S
C252 C253 1.397 . S
C252 C269 1.394 . S
C253 C252 1.397 . S
C253 C254 1.438 . S
C253 C258 1.429 . S
C254 C253 1.438 . S
C254 C255 1.428 . S
C254 C267 1.394 . S
C255 H247 0.949 . S
C255 C254 1.428 . S
C255 C256 1.345 . S
C256 H248 0.950 . S
C256 C255 1.345 . S
C256 C257 1.424 . S
C257 H249 0.951 . S
C257 C256 1.424 . S
C257 C258 1.347 . S
C258 H250 0.951 . S
C258 C253 1.429 . S
C258 C257 1.347 . S
H259 C260 0.951 . S
C260 H259 0.951 . S
C260 C266 1.265 . S
H261 C266 0.950 1_455 S
H262 C270 0.949 . S
H263 C271 0.950 . S
H264 C272 0.951 . S
H265 C273 0.951 . S
C266 C260 1.265 . S
C266 H261 0.950 1_655 S
C266 C267 1.478 . S
C267 C254 1.394 . S
C267 C266 1.478 . S
C267 C268 1.397 . S
C268 C267 1.397 . S
C268 C269 1.438 . S
C268 C273 1.429 . S
C269 C252 1.394 . S
C269 C268 1.438 . S
C269 C270 1.428 . S
C270 H262 0.949 . S
C270 C269 1.428 . S
C270 C271 1.345 . S
C271 H263 0.950 . S
C271 C270 1.345 . S
C271 C272 1.424 . S
C272 H264 0.951 . S
C272 C271 1.424 . S
C272 C273 1.347 . S
C273 H265 0.951 . S
C273 C268 1.429 . S
C273 C272 1.347 . S
H274 C275 0.951 . S
C275 H274 0.951 . S
C275 C281 1.265 . S
H276 C281 0.950 . S
H277 C285 0.949 . S
H278 C286 0.950 . S
H279 C287 0.951 . S
H280 C288 0.951 . S
C281 C275 1.265 . S
C281 H276 0.950 . S
C281 C282 1.478 . S
C282 C281 1.478 . S
C282 C283 1.397 . S
C282 C299 1.394 . S
C283 C282 1.397 . S
C283 C284 1.438 . S
C283 C288 1.429 . S
C284 C283 1.438 . S
C284 C285 1.428 . S
C284 C297 1.394 . S
C285 H277 0.949 . S
C285 C284 1.428 . S
C285 C286 1.345 . S
C286 H278 0.950 . S
C286 C285 1.345 . S
C286 C287 1.424 . S
C287 H279 0.951 . S
C287 C286 1.424 . S
C287 C288 1.347 . S
C288 H280 0.951 . S
C288 C283 1.429 . S
C288 C287 1.347 . S
H289 C290 0.951 . S
C290 H289 0.951 . S
C290 C296 1.265 . S
H291 C296 0.950 . S
H292 C300 0.949 . S
H293 C301 0.950 . S
H294 C302 0.951 . S
H295 C303 0.951 . S
C296 C290 1.265 . S
C296 H291 0.950 . S
C296 C297 1.478 . S
C297 C284 1.394 . S
C297 C296 1.478 . S
C297 C298 1.397 . S
C298 C297 1.397 . S
C298 C299 1.438 . S
C298 C303 1.429 . S
C299 C282 1.394 . S
C299 C298 1.438 . S
C299 C300 1.428 . S
C300 H292 0.949 . S
C300 C299 1.428 . S
C300 C301 1.345 . S
C301 H293 0.950 . S
C301 C300 1.345 . S
C301 C302 1.424 . S
C302 H294 0.951 . S
C302 C301 1.424 . S
C302 C303 1.347 . S
C303 H295 0.951 . S
C303 C298 1.429 . S
C303 C302 1.347 . S
H304 C305 0.951 . S
C305 H304 0.951 . S
C305 C311 1.265 . S
H306 C311 0.950 . S
H307 C315 0.949 . S
H308 C316 0.950 . S
H309 C317 0.951 . S
H310 C318 0.951 . S
C311 C305 1.265 . S
C311 H306 0.950 . S
C311 C312 1.478 . S
C312 C311 1.478 . S
C312 C313 1.397 . S
C312 C329 1.394 . S
C313 C312 1.397 . S
C313 C314 1.438 . S
C313 C318 1.429 . S
C314 C313 1.438 . S
C314 C315 1.428 . S
C314 C327 1.394 . S
C315 H307 0.949 . S
C315 C314 1.428 . S
C315 C316 1.345 . S
C316 H308 0.950 . S
C316 C315 1.345 . S
C316 C317 1.424 . S
C317 H309 0.951 . S
C317 C316 1.424 . S
C317 C318 1.347 . S
C318 H310 0.951 . S
C318 C313 1.429 . S
C318 C317 1.347 . S
H319 C320 0.951 . S
C320 H319 0.951 . S
C320 C326 1.265 . S
H321 C326 0.950 . S
H322 C330 0.949 . S
H323 C331 0.950 . S
H324 C332 0.951 . S
H325 C333 0.951 . S
C326 C320 1.265 . S
C326 H321 0.950 . S
C326 C327 1.478 . S
C327 C314 1.394 . S
C327 C326 1.478 . S
C327 C328 1.397 . S
C328 C327 1.397 . S
C328 C329 1.438 . S
C328 C333 1.429 . S
C329 C312 1.394 . S
C329 C328 1.438 . S
C329 C330 1.428 . S
C330 H322 0.949 . S
C330 C329 1.428 . S
C330 C331 1.345 . S
C331 H323 0.950 . S
C331 C330 1.345 . S
C331 C332 1.424 . S
C332 H324 0.951 . S
C332 C331 1.424 . S
C332 C333 1.347 . S
C333 H325 0.951 . S
C333 C328 1.429 . S
C333 C332 1.347 . S
H334 C335 0.951 . S
C335 H334 0.951 . S
C335 C341 1.265 . S
H336 C341 0.950 1_655 S
H337 C345 0.949 . S
H338 C346 0.950 . S
H339 C347 0.951 . S
H340 C348 0.951 . S
C341 C335 1.265 . S
C341 H336 0.950 1_455 S
C341 C342 1.478 . S
C342 C341 1.478 . S
C342 C343 1.397 1_545 S
C342 C359 1.394 . S
C343 C342 1.397 1_565 S
C343 C344 1.438 . S
C343 C348 1.429 1_455 S
C344 C343 1.438 . S
C344 C345 1.428 . S
C344 C357 1.394 . S
C345 H337 0.949 . S
C345 C344 1.428 . S
C345 C346 1.345 1_455 S
C346 H338 0.950 . S
C346 C345 1.345 1_655 S
C346 C347 1.424 . S
C347 H339 0.951 . S
C347 C346 1.424 . S
C347 C348 1.347 . S
C348 H340 0.951 . S
C348 C343 1.429 1_655 S
C348 C347 1.347 . S
H349 C350 0.951 1_655 S
C350 H349 0.951 1_455 S
C350 C356 1.265 . S
H351 C356 0.950 . S
H352 C360 0.949 . S
H353 C361 0.950 . S
H354 C362 0.951 . S
H355 C363 0.951 . S
C356 C350 1.265 . S
C356 H351 0.950 . S
C356 C357 1.478 . S
C357 C344 1.394 . S
C357 C356 1.478 . S
C357 C358 1.397 1_565 S
C358 C357 1.397 1_545 S
C358 C359 1.438 . S
C358 C363 1.429 . S
C359 C342 1.394 . S
C359 C358 1.438 . S
C359 C360 1.428 . S
C360 H352 0.949 . S
C360 C359 1.428 . S
C360 C361 1.345 . S
C361 H353 0.950 . S
C361 C360 1.345 . S
C361 C362 1.424 . S
C362 H354 0.951 . S
C362 C361 1.424 . S
C362 C363 1.347 . S
C363 H355 0.951 . S
C363 C358 1.429 . S
C363 C362 1.347 . S
H364 C365 0.951 . S
C365 H364 0.951 . S
C365 C371 1.265 . S
H366 C371 0.950 1_655 S
H367 C375 0.949 . S
H368 C376 0.950 . S
H369 C377 0.951 . S
H370 C378 0.951 . S
C371 C365 1.265 . S
C371 H366 0.950 1_455 S
C371 C372 1.478 . S
C372 C371 1.478 . S
C372 C373 1.397 . S
C372 C389 1.394 . S
C373 C372 1.397 . S
C373 C374 1.438 . S
C373 C378 1.429 1_455 S
C374 C373 1.438 . S
C374 C375 1.428 . S
C374 C387 1.394 . S
C375 H367 0.949 . S
C375 C374 1.428 . S
C375 C376 1.345 1_455 S
C376 H368 0.950 . S
C376 C375 1.345 1_655 S
C376 C377 1.424 . S
C377 H369 0.951 . S
C377 C376 1.424 . S
C377 C378 1.347 . S
C378 H370 0.951 . S
C378 C373 1.429 1_655 S
C378 C377 1.347 . S
H379 C380 0.951 1_655 S
C380 H379 0.951 1_455 S
C380 C386 1.265 . S
H381 C386 0.950 . S
H382 C390 0.949 . S
H383 C391 0.950 . S
H384 C392 0.951 . S
H385 C393 0.951 . S
C386 C380 1.265 . S
C386 H381 0.950 . S
C386 C387 1.478 . S
C387 C374 1.394 . S
C387 C386 1.478 . S
C387 C388 1.397 . S
C388 C387 1.397 . S
C388 C389 1.438 . S
C388 C393 1.429 1_545 S
C389 C372 1.394 . S
C389 C388 1.438 . S
C389 C390 1.428 1_545 S
C390 H382 0.949 . S
C390 C389 1.428 1_565 S
C390 C391 1.345 . S
C391 H383 0.950 . S
C391 C390 1.345 . S
C391 C392 1.424 . S
C392 H384 0.951 . S
C392 C391 1.424 . S
C392 C393 1.347 . S
C393 H385 0.951 . S
C393 C388 1.429 1_565 S
C393 C392 1.347 . S
H394 C395 0.951 . S
C395 H394 0.951 . S
C395 C401 1.265 . S
H396 C401 0.950 . S
H397 C405 0.949 . S
H398 C406 0.950 . S
H399 C407 0.951 . S
H400 C408 0.951 . S
C401 C395 1.265 . S
C401 H396 0.950 . S
C401 C402 1.478 . S
C402 C401 1.478 . S
C402 C403 1.397 . S
C402 C419 1.394 . S
C403 C402 1.397 . S
C403 C404 1.438 . S
C403 C408 1.429 . S
C404 C403 1.438 . S
C404 C405 1.428 . S
C404 C417 1.394 . S
C405 H397 0.949 . S
C405 C404 1.428 . S
C405 C406 1.345 . S
C406 H398 0.950 . S
C406 C405 1.345 . S
C406 C407 1.424 . S
C407 H399 0.951 . S
C407 C406 1.424 . S
C407 C408 1.347 . S
C408 H400 0.951 . S
C408 C403 1.429 . S
C408 C407 1.347 . S
H409 C410 0.951 . S
C410 H409 0.951 . S
C410 C416 1.265 . S
H411 C416 0.950 . S
H412 C420 0.949 . S
H413 C421 0.950 . S
H414 C422 0.951 . S
H415 C423 0.951 . S
C416 C410 1.265 . S
C416 H411 0.950 . S
C416 C417 1.478 . S
C417 C404 1.394 . S
C417 C416 1.478 . S
C417 C418 1.397 . S
C418 C417 1.397 . S
C418 C419 1.438 . S
C418 C423 1.429 . S
C419 C402 1.394 . S
C419 C418 1.438 . S
C419 C420 1.428 . S
C420 H412 0.949 . S
C420 C419 1.428 . S
C420 C421 1.345 . S
C421 H413 0.950 . S
C421 C420 1.345 . S
C421 C422 1.424 . S
C422 H414 0.951 . S
C422 C421 1.424 . S
C422 C423 1.347 . S
C423 H415 0.951 . S
C423 C418 1.429 . S
C423 C422 1.347 . S
H424 C425 0.951 . S
C425 H424 0.951 . S
C425 C431 1.265 . S
H426 C431 0.950 . S
H427 C435 0.949 . S
H428 C436 0.950 . S
H429 C437 0.951 . S
H430 C438 0.951 . S
C431 C425 1.265 . S
C431 H426 0.950 . S
C431 C432 1.478 . S
C432 C431 1.478 . S
C432 C433 1.397 . S
C432 C449 1.394 . S
C433 C432 1.397 . S
C433 C434 1.438 . S
C433 C438 1.429 . S
C434 C433 1.438 . S
C434 C435 1.428 . S
C434 C447 1.394 . S
C435 H427 0.949 . S
C435 C434 1.428 . S
C435 C436 1.345 . S
C436 H428 0.950 . S
C436 C435 1.345 . S
C436 C437 1.424 . S
C437 H429 0.951 . S
C437 C436 1.424 . S
C437 C438 1.347 . S
C438 H430 0.951 . S
C438 C433 1.429 . S
C438 C437 1.347 . S
H439 C440 0.951 . S
C440 H439 0.951 . S
C440 C446 1.265 . S
H441 C446 0.950 . S
H442 C450 0.949 . S
H443 C451 0.950 . S
H444 C452 0.951 . S
H445 C453 0.951 . S
C446 C440 1.265 . S
C446 H441 0.950 . S
C446 C447 1.478 . S
C447 C434 1.394 . S
C447 C446 1.478 . S
C447 C448 1.397 . S
C448 C447 1.397 . S
C448 C449 1.438 . S
C448 C453 1.429 . S
C449 C432 1.394 . S
C449 C448 1.438 . S
C449 C450 1.428 . S
C450 H442 0.949 . S
C450 C449 1.428 . S
C450 C451 1.345 . S
C451 H443 0.950 . S
C451 C450 1.345 . S
C451 C452 1.424 . S
C452 H444 0.951 . S
C452 C451 1.424 . S
C452 C453 1.347 . S
C453 H445 0.951 . S
C453 C448 1.429 . S
C453 C452 1.347 . S
C110 N83 1.350 . S
C95 C15 1.236 . S
C125 C13 1.438 . S
C140 N70 1.417 . S
C155 C18 1.226 . S
C170 N82 1.510 . S
C185 C17 1.346 . S
C200 N69 1.454 . S
C215 C36 1.284 . S
C230 N57 1.328 1_565 S
C245 C34 1.389 . S
C260 N44 1.420 . S
C290 N56 1.517 . S
C275 C39 1.324 . S
C320 N43 1.487 . S
C305 C38 1.450 . S
C335 C14 1.512 . S
C350 N47 1.555 1_565 S
C365 C16 1.450 . S
C380 N60 1.422 . S
C410 N73 1.562 . S
C395 C35 1.505 . S
C425 C37 1.448 . S
C440 N86 1.425 . S
