# Generated by pormake.
# Topology pyr, (3,6)-cn, num edge types: 1
# Building blocks:
#     Node 0, Type 0, BuildingBlock: QEWDON_clean_linker_0, # of connection points: 3
#     Node 1, Type 0, BuildingBlock: QEWDON_clean_linker_0, # of connection points: 3
#     Node 2, Type 0, BuildingBlock: QEWDON_clean_linker_0, # of connection points: 3
#     Node 3, Type 0, BuildingBlock: QEWDON_clean_linker_0, # of connection points: 3
#     Node 4, Type 0, BuildingBlock: QEWDON_clean_linker_0, # of connection points: 3
#     Node 5, Type 0, BuildingBlock: QEWDON_clean_linker_0, # of connection points: 3
#     Node 6, Type 0, BuildingBlock: QEWDON_clean_linker_0, # of connection points: 3
#     Node 7, Type 0, BuildingBlock: QEWDON_clean_linker_0, # of connection points: 3
#     Node 8, Type 1, BuildingBlock: FUNLAD_clean_sbu_0, # of connection points: 6
#     Node 9, Type 1, BuildingBlock: FUNLAD_clean_sbu_0, # of connection points: 6
#     Node 10, Type 1, BuildingBlock: FUNLAD_clean_sbu_0, # of connection points: 6
#     Node 11, Type 1, BuildingBlock: FUNLAD_clean_sbu_0, # of connection points: 6
#     Edge 12, Type (0, 1), BuildingBlock: XUDNAN_clean_linker_2, # of connection points: 2
#     Edge 13, Type (0, 1), BuildingBlock: XUDNAN_clean_linker_2, # of connection points: 2
#     Edge 14, Type (0, 1), BuildingBlock: XUDNAN_clean_linker_2, # of connection points: 2
#     Edge 15, Type (0, 1), BuildingBlock: XUDNAN_clean_linker_2, # of connection points: 2
#     Edge 16, Type (0, 1), BuildingBlock: XUDNAN_clean_linker_2, # of connection points: 2
#     Edge 17, Type (0, 1), BuildingBlock: XUDNAN_clean_linker_2, # of connection points: 2
#     Edge 18, Type (0, 1), BuildingBlock: XUDNAN_clean_linker_2, # of connection points: 2
#     Edge 19, Type (0, 1), BuildingBlock: XUDNAN_clean_linker_2, # of connection points: 2
#     Edge 20, Type (0, 1), BuildingBlock: XUDNAN_clean_linker_2, # of connection points: 2
#     Edge 21, Type (0, 1), BuildingBlock: XUDNAN_clean_linker_2, # of connection points: 2
#     Edge 22, Type (0, 1), BuildingBlock: XUDNAN_clean_linker_2, # of connection points: 2
#     Edge 23, Type (0, 1), BuildingBlock: XUDNAN_clean_linker_2, # of connection points: 2
#     Edge 24, Type (0, 1), BuildingBlock: XUDNAN_clean_linker_2, # of connection points: 2
#     Edge 25, Type (0, 1), BuildingBlock: XUDNAN_clean_linker_2, # of connection points: 2
#     Edge 26, Type (0, 1), BuildingBlock: XUDNAN_clean_linker_2, # of connection points: 2
#     Edge 27, Type (0, 1), BuildingBlock: XUDNAN_clean_linker_2, # of connection points: 2
#     Edge 28, Type (0, 1), BuildingBlock: XUDNAN_clean_linker_2, # of connection points: 2
#     Edge 29, Type (0, 1), BuildingBlock: XUDNAN_clean_linker_2, # of connection points: 2
#     Edge 30, Type (0, 1), BuildingBlock: XUDNAN_clean_linker_2, # of connection points: 2
#     Edge 31, Type (0, 1), BuildingBlock: XUDNAN_clean_linker_2, # of connection points: 2
#     Edge 32, Type (0, 1), BuildingBlock: XUDNAN_clean_linker_2, # of connection points: 2
#     Edge 33, Type (0, 1), BuildingBlock: XUDNAN_clean_linker_2, # of connection points: 2
#     Edge 34, Type (0, 1), BuildingBlock: XUDNAN_clean_linker_2, # of connection points: 2
#     Edge 35, Type (0, 1), BuildingBlock: XUDNAN_clean_linker_2, # of connection points: 2
# Relax obj value: 0.267
# Max RMSD: 0.293
# Mean RMSD: 0.188
data_MOF--net-pry--node1-FUNLAD_clean_sbu_0--node2-QEWDON_clean_linker_0--edge1-XUDNAN_clean_linker_2
_symmetry_space_group_name_H-M    P1
_symmetry_Int_Tables_number       1
_symmetry_cell_setting            triclinic
loop_
_symmetry_equiv_pos_as_xyz
'x, y, z'
_cell_length_a     34.50155
_cell_length_b     37.033561
_cell_length_c     39.615289
_cell_angle_alpha  89.403414
_cell_angle_beta   90.703697
_cell_angle_gamma 90.639057
loop_
_atom_site_label
_atom_site_type_symbol
_atom_site_fract_x
_atom_site_fract_y
_atom_site_fract_z
_atom_type_partial_charge
H0 H 0.22832 0.26162 0.21521 0.0
C1 C 0.21721 0.24424 0.23506 0.0
C2 C 0.23436 0.21018 0.24187 0.0
C3 C 0.18717 0.25738 0.25504 0.0
H4 H 0.23145 0.16271 0.27434 0.0
C5 C 0.21845 0.1884 0.26802 0.0
C6 C 0.18721 0.20054 0.28762 0.0
C7 C 0.17208 0.23503 0.28077 0.0
C8 C 0.1761 0.29639 0.25352 0.0
H9 H 0.14865 0.24499 0.29596 0.0
C10 C 0.16394 0.31442 0.22341 0.0
C11 C 0.15405 0.35171 0.22384 0.0
C12 C 0.17887 0.31616 0.28355 0.0
H13 H 0.18859 0.30338 0.30685 0.0
C14 C 0.17021 0.3527 0.28395 0.0
H15 H 0.16138 0.29933 0.20022 0.0
C16 C 0.15818 0.37034 0.25455 0.0
H17 H 0.15274 0.39901 0.25596 0.0
H18 H 0.17314 0.36759 0.30724 0.0
H19 H 0.38296 0.96422 0.83047 0.0
C20 C 0.39645 0.94228 0.81721 0.0
C21 C 0.43114 0.92797 0.82999 0.0
C22 C 0.37685 0.92651 0.78953 0.0
H23 H 0.47424 0.88723 0.8231 0.0
C24 C 0.4474 0.89833 0.81332 0.0
C25 C 0.42873 0.88212 0.78508 0.0
C26 C 0.39355 0.89699 0.77313 0.0
C27 C 0.33607 0.93727 0.78223 0.0
H28 H 0.37758 0.88388 0.75287 0.0
C29 C 0.3227 0.94678 0.74945 0.0
C30 C 0.28434 0.95914 0.74459 0.0
C31 C 0.31017 0.93865 0.80935 0.0
H32 H 0.31932 0.93078 0.83461 0.0
C33 C 0.27224 0.95009 0.80439 0.0
H34 H 0.34222 0.94583 0.72827 0.0
C35 C 0.25947 0.96052 0.77236 0.0
H36 H 0.22982 0.96945 0.76918 0.0
H37 H 0.2527 0.95105 0.82552 0.0
H38 H 0.68601 0.56088 1.03089 0.0
C39 C 0.6765 0.53302 1.02842 0.0
C40 C 0.70259 0.50669 1.01769 0.0
C41 C 0.63735 0.52397 1.03321 0.0
H42 H 0.70967 0.45052 1.00578 0.0
C43 C 0.68938 0.47107 1.01309 0.0
C44 C 0.65032 0.46174 1.01783 0.0
C45 C 0.62455 0.48837 1.02802 0.0
C46 C 0.60822 0.55232 1.03752 0.0
H47 H 0.59398 0.48188 1.03048 0.0
C48 C 0.58016 0.55681 1.01215 0.0
C49 C 0.55118 0.5829 1.01466 0.0
C50 C 0.60786 0.5746 0.06588 0.0
H51 H 0.62949 0.57157 0.08572 0.0
C52 C 0.579 0.60069 0.06881 0.0
H53 H 0.58202 0.54051 0.98964 0.0
C54 C 0.5508 0.60495 0.04332 0.0
H55 H 0.529 0.62552 0.0459 0.0
H56 H 0.57861 0.61778 0.09079 0.0
H57 H 0.89098 0.6828 0.44553 0.0
C58 C 0.87854 0.67227 0.46862 0.0
C59 C 0.88973 0.68834 0.499 0.0
C60 C 0.85069 0.64419 0.46791 0.0
H61 H 0.88002 0.69138 0.5522 0.0
C62 C 0.87199 0.67773 0.52903 0.0
C63 C 0.84156 0.65228 0.52873 0.0
C64 C 0.83233 0.63443 0.49835 0.0
C65 C 0.83952 0.62697 0.4351 0.0
H66 H 0.8096 0.61413 0.49819 0.0
C67 C 0.86632 0.62577 0.40857 0.0
C68 C 0.85568 0.61263 0.37656 0.0
C69 C 0.80186 0.61306 0.42929 0.0
H70 H 0.77977 0.61421 0.44837 0.0
C71 C 0.79163 0.59828 0.3981 0.0
H72 H 0.89541 0.63612 0.41243 0.0
C73 C 0.81819 0.59819 0.37183 0.0
H74 H 0.80922 0.58709 0.34775 0.0
H75 H 0.76264 0.58758 0.39403 0.0
H76 H 0.87974 0.8769 0.90439 0.0
C77 C 0.89261 0.89426 0.88531 0.0
C78 C 0.93011 0.8871 0.8733 0.0
C79 C 0.87008 0.92204 0.8712 0.0
H80 H 0.97348 0.90447 0.83687 0.0
C81 C 0.9447 0.90899 0.84645 0.0
C82 C 0.92249 0.93737 0.83226 0.0
C83 C 0.88527 0.94349 0.84496 0.0
C84 C 0.82848 0.92483 0.87988 0.0
H85 H 0.86745 0.96443 0.83365 0.0
C86 C 0.81605 0.93942 0.91072 0.0
C87 C 0.77596 0.94138 0.91793 0.0
C88 C 0.80078 0.91219 0.85653 0.0
H89 H 0.80973 0.90087 0.83277 0.0
C90 C 0.7614 0.91374 0.8636 0.0
H91 H 0.83739 0.94925 0.92879 0.0
C92 C 0.74903 0.92822 0.89392 0.0
H93 H 0.71816 0.92992 0.89815 0.0
H94 H 0.74029 0.90396 0.84534 0.0
H95 H 0.69655 0.24383 0.46615 0.0
C96 C 0.69227 0.23333 0.44095 0.0
C97 C 0.71973 0.20928 0.42762 0.0
C98 C 0.65826 0.24234 0.42271 0.0
H99 H 0.73325 0.17608 0.38492 0.0
C100 C 0.71233 0.19419 0.39558 0.0
C101 C 0.67849 0.20245 0.37685 0.0
C102 C 0.65245 0.22731 0.39029 0.0
C103 C 0.62678 0.2646 0.43809 0.0
H104 H 0.62658 0.23388 0.37588 0.0
C105 C 0.63435 0.29477 0.45931 0.0
C106 C 0.60331 0.31561 0.47172 0.0
C107 C 0.5878 0.25508 0.43125 0.0
H108 H 0.58041 0.23141 0.41661 0.0
C109 C 0.5575 0.27546 0.44345 0.0
H110 H 0.66394 0.30253 0.46547 0.0
C111 C 0.5651 0.30556 0.46321 0.0
H112 H 0.5408 0.32059 0.47266 0.0
H113 H 0.52781 0.2677 0.43772 0.0
H114 H 0.48668 0.64552 0.18336 0.0
C115 C 0.45902 0.64474 0.17007 0.0
C116 C 0.44658 0.67555 0.15259 0.0
C117 C 0.4343 0.61446 0.17345 0.0
H118 H 0.40061 0.69933 0.12309 0.0
C119 C 0.41048 0.67517 0.13618 0.0
C120 C 0.38568 0.64516 0.13873 0.0
C121 C 0.39785 0.61452 0.15697 0.0
C122 C 0.44372 0.58605 0.19887 0.0
H123 H 0.37767 0.59224 0.16075 0.0
C124 C 0.45892 0.59618 0.23054 0.0
C125 C 0.46509 0.57048 0.25612 0.0
C126 C 0.43524 0.54944 0.19297 0.0
H127 H 0.42353 0.54086 0.16883 0.0
C128 C 0.44165 0.52362 0.21842 0.0
H129 H 0.46429 0.62443 0.23605 0.0
C130 C 0.45616 0.53407 0.25002 0.0
H131 H 0.46044 0.51385 0.26963 0.0
H132 H 0.43492 0.49548 0.21377 0.0
H133 H 0.15304 0.57419 0.59835 0.0
C134 C 0.14691 0.551 0.58256 0.0
C135 C 0.17719 0.52843 0.57339 0.0
C136 C 0.10837 0.54158 0.57504 0.0
H137 H 0.19237 0.47865 0.5498 0.0
C138 C 0.16895 0.49682 0.55543 0.0
C139 C 0.13029 0.48634 0.54871 0.0
C140 C 0.10023 0.5097 0.55753 0.0
C141 C 0.07744 0.55791 0.5948 0.0
H142 H 0.07026 0.50096 0.55486 0.0
C143 C 0.07735 0.55115 0.62957 0.0
C144 C 0.04761 0.5639 0.64977 0.0
C145 C 0.04737 0.57778 0.57984 0.0
H146 H 0.04675 0.58274 0.55285 0.0
C147 C 1.01798 0.59151 0.60002 0.0
H148 H 0.10059 0.53547 0.64092 0.0
C149 C 1.0181 0.58475 0.63492 0.0
H150 H 0.99491 0.59513 0.65011 0.0
H151 H 0.99489 0.60714 0.58855 0.0
C152 C 0.06358 0.09722 0.49279 0.0
N153 N 0.05429 0.15728 0.58088 0.0
C154 C 0.09017 0.16992 0.57262 0.0
C155 C 0.09746 0.20699 0.57076 0.0
C156 C 0.06735 0.23103 0.57703 0.0
C157 C 0.03176 0.21732 0.58856 0.0
C158 C 0.02591 0.18002 0.59061 0.0
Zn159 Zn 0.03963 0.10642 0.56594 0.0
C160 C 0.95948 0.10874 0.53219 0.0
N161 N 1.00725 1.00384 0.52811 0.0
C162 C 0.0358 0.98485 0.51318 0.0
C163 C 0.9719 0.98874 0.53423 0.0
C164 C 0.96469 0.95263 0.52636 0.0
C165 C 0.99435 0.93201 0.51251 0.0
C166 C 0.03001 0.94862 0.50532 0.0
Zn167 Zn 1.0206 0.05394 0.54513 0.0
O168 O 0.06567 0.11902 0.51737 0.0
C169 C 0.10018 0.05297 0.57974 0.0
O170 O 0.04569 0.06735 0.4971 0.0
H171 H 0.9498 1.00435 0.54633 0.0
H172 H 0.11211 0.15144 0.56444 0.0
H173 H 0.06363 0.99747 0.50842 0.0
O174 O 0.09285 0.086 0.58471 0.0
O175 O 0.07575 0.03384 0.56329 0.0
H176 H 0.99763 0.1694 0.59713 0.0
O177 O 0.99674 0.04004 0.59403 0.0
O178 O 1.01405 0.0928 0.61429 0.0
O179 O 0.96483 0.07522 0.52715 0.0
O180 O 0.9859 0.12657 0.54741 0.0
C181 C 0.99891 0.06152 0.61892 0.0
H182 H 0.12523 0.21662 0.56167 0.0
H183 H 1.00806 0.23521 0.59401 0.0
H184 H 0.93689 0.94052 0.53248 0.0
H185 H 0.05339 0.93354 0.4944 0.0
C186 C 0.60287 0.04917 0.0808 0.0
N187 N 0.54915 0.14785 0.06751 0.0
C188 C 0.58551 0.16239 0.0689 0.0
C189 C 0.59357 0.19505 0.05269 0.0
C190 C 0.56378 0.2131 1.0355 0.0
C191 C 0.52649 0.19784 1.03441 0.0
C192 C 0.51983 0.16463 0.05046 0.0
Zn193 Zn 0.53958 0.10045 0.09227 0.0
C194 C 0.49818 0.04492 0.04827 0.0
N195 N 0.51953 1.00159 0.14356 0.0
C196 C 0.55084 0.98664 0.15931 0.0
C197 C 0.48591 0.98266 0.13925 0.0
C198 C 0.48383 0.94635 0.14876 0.0
C199 C 0.51663 0.92953 0.16301 0.0
C200 C 0.54994 0.95053 0.16946 0.0
Zn201 Zn 0.52708 0.04972 0.11957 0.0
O202 O 0.59337 0.08167 0.07541 0.0
C203 C 0.57158 0.10142 0.16371 0.0
O204 O 0.58059 0.029 0.09832 0.0
H205 H 0.4615 0.99508 0.12649 0.0
H206 H 0.60824 0.14885 0.08295 0.0
H207 H 0.57741 1.00212 0.16223 0.0
O208 O 0.56765 0.12233 0.13814 0.0
O209 O 0.55767 0.06961 0.16211 0.0
H210 H 0.49119 0.15247 0.04967 0.0
O211 O 0.47294 0.07138 0.14001 0.0
O212 O 0.48576 0.11973 0.10966 0.0
O213 O 0.49793 0.02917 0.07687 0.0
O214 O 0.51251 0.07682 0.04634 0.0
C215 C 0.46382 0.10325 0.13045 0.0
H216 H 0.62251 0.20664 0.05432 0.0
H217 H 0.50291 0.21154 1.02152 0.0
H218 H 0.45765 0.93115 0.14293 0.0
H219 H 0.57562 0.93878 0.18086 0.0
C220 C 0.54799 0.52481 0.61375 0.0
N221 N 0.5342 0.56407 0.71301 0.0
C222 C 0.50855 0.54075 0.72781 0.0
C223 C 0.50114 0.54311 0.76241 0.0
C224 C 0.5204 0.56966 0.78153 0.0
C225 C 0.54971 0.59038 0.76632 0.0
C226 C 0.55605 0.58727 0.73192 0.0
Zn227 Zn 0.52902 0.57797 0.66294 0.0
C228 C 0.60147 0.6132 0.63704 0.0
N229 N 0.51372 0.62051 0.56369 0.0
C230 C 0.49526 0.59463 0.54519 0.0
C231 C 0.52818 0.65097 0.54869 0.0
C232 C 0.52478 0.65573 0.51355 0.0
C233 C 0.50644 0.62881 0.49395 0.0
C234 C 0.49149 0.59813 0.51046 0.0
Zn235 Zn 0.5212 0.60606 0.61342 0.0
O236 O 0.54493 0.52628 0.64571 0.0
C237 C 0.44841 0.57073 0.63782 0.0
O238 O 0.53986 0.55278 0.59608 0.0
H239 H 0.54311 0.67106 0.56379 0.0
H240 H 0.49129 0.52257 0.71246 0.0
H241 H 0.48447 0.57026 0.55716 0.0
O242 O 0.46921 0.56231 0.66329 0.0
O243 O 0.46332 0.58878 0.61391 0.0
H244 H 0.57562 0.60628 0.71998 0.0
O245 O 0.50364 0.65905 0.6325 0.0
O246 O 0.51387 0.62995 0.67998 0.0
O247 O 0.57907 0.62342 0.61324 0.0
O248 O 0.58859 0.59353 0.66092 0.0
C249 C 0.5046 0.65897 0.66473 0.0
H250 H 0.4786 0.52634 0.77342 0.0
H251 H 0.56589 0.61055 0.78043 0.0
H252 H 0.53673 0.67988 0.50186 0.0
H253 H 0.47825 0.57604 0.49664 0.0
C254 C 0.03091 0.67146 0.99638 0.0
N255 N 1.01577 0.63432 0.09813 0.0
C256 C 0.02873 0.66414 0.11488 0.0
C257 C 1.01608 0.6708 0.14772 0.0
C258 C 0.9893 0.64696 0.16268 0.0
C259 C 0.97572 0.61716 0.14451 0.0
C260 C 0.98981 0.61101 0.11245 0.0
Zn261 Zn 0.03727 0.61836 0.0528 0.0
C262 C 0.97596 0.58051 1.01312 0.0
N263 N 0.0799 0.57593 0.96169 0.0
C264 C 0.09965 0.59891 0.94097 0.0
C265 C 0.06704 0.54316 0.95086 0.0
C266 C 0.07105 0.53361 0.91718 0.0
C267 C 0.08841 0.5581 0.89453 0.0
C268 C 0.10429 0.59046 0.90704 0.0
Zn269 Zn 0.06054 0.59392 1.00654 0.0
O270 O 1.02267 0.66959 1.0277 0.0
C271 C 0.12138 0.63174 0.04717 0.0
O272 O 0.04663 0.64435 0.98289 0.0
H273 H 0.05121 0.52543 0.96776 0.0
H274 H 0.04975 0.68207 0.10327 0.0
H275 H 0.10963 0.62482 0.95019 0.0
O276 O 0.09233 0.63843 0.06536 0.0
O277 O 0.11685 0.61356 1.02029 0.0
H278 H 0.98091 0.58665 0.09963 0.0
O279 O 0.07454 0.54415 1.03017 0.0
O280 O 0.05263 0.56648 0.07705 0.0
O281 O 1.00385 0.57389 0.99362 0.0
O282 O 0.98249 0.59861 1.0395 0.0
C283 C 0.06822 0.54045 0.06153 0.0
H284 H 0.02738 0.69388 0.16139 0.0
H285 H 0.95574 0.59779 0.15566 0.0
H286 H 0.05813 0.50851 0.90856 0.0
H287 H 0.11844 0.6098 0.89046 0.0
H288 H 0.1659 0.22241 0.35145 0.0
H289 H 0.17109 0.1276 0.28831 0.0
H290 H 0.14092 0.09103 0.33376 0.0
H291 H 0.18717 0.17663 0.43097 0.0
H292 H 0.15456 0.2039 0.45482 0.0
H293 H 0.17729 0.22234 0.41764 0.0
H294 H 0.10984 0.23778 0.39237 0.0
H295 H 0.08694 0.21931 0.42944 0.0
H296 H 0.07361 0.2026 0.38828 0.0
H297 H 0.10694 0.06524 0.38548 0.0
H298 H 0.07577 0.05161 0.44 0.0
H299 H 0.09372 0.16287 0.47037 0.0
C300 C 0.16065 0.19395 0.34707 0.0
C301 C 0.17086 0.178 0.31598 0.0
C302 C 0.16394 0.1405 0.3118 0.0
C303 C 0.14656 0.11952 0.33747 0.0
C304 C 0.13643 0.13622 0.36752 0.0
C305 C 0.14355 0.17256 0.37255 0.0
C306 C 0.13 0.18393 0.40723 0.0
C307 C 0.1643 0.1975 0.42895 0.0
C308 C 0.09821 0.2126 0.40413 0.0
C309 C 0.11383 0.1484 0.42088 0.0
C310 C 0.11768 0.12126 0.39749 0.0
C311 C 0.10405 0.0863 0.40399 0.0
C312 C 0.08622 0.07883 0.4351 0.0
C313 C 0.08225 0.10604 0.45974 0.0
C314 C 0.09642 0.14132 0.45231 0.0
H315 H 0.4418 0.99821 0.85373 0.0
H316 H 0.45357 0.88562 0.88325 0.0
H317 H 0.47128 0.90407 0.94101 0.0
H318 H 0.52372 0.03161 0.90639 0.0
H319 H 0.49996 0.07307 0.91679 0.0
H320 H 0.48938 0.0514 0.87715 0.0
H321 H 0.41639 0.05026 0.89145 0.0
H322 H 0.42678 0.07156 0.93128 0.0
H323 H 0.40069 0.02914 0.93022 0.0
H324 H 0.48182 0.93342 0.99632 0.0
H325 H 0.49348 0.97203 0.04525 0.0
H326 H 0.47991 0.06757 0.98175 0.0
C327 C 0.44862 0.9775 0.87228 0.0
C328 C 0.44653 0.9403 0.86365 0.0
C329 C 0.45559 0.91416 0.88881 0.0
C330 C 0.46535 0.9244 0.92188 0.0
C331 C 0.4665 0.96104 0.92965 0.0
C332 C 0.45915 0.98733 0.90554 0.0
C333 C 0.46297 0.02485 0.92098 0.0
C334 C 0.49598 0.04651 0.90433 0.0
C335 C 0.42441 0.04515 0.91832 0.0
C336 C 0.47296 1.01541 0.95762 0.0
C337 C 0.47433 0.97833 0.96183 0.0
C338 C 0.48126 0.96248 0.99325 0.0
C339 C 0.4876 0.98488 1.02107 0.0
C340 C 0.48766 1.02313 1.01773 0.0
C341 C 0.48018 0.03856 0.98532 0.0
H342 H 0.51651 0.53134 0.97554 0.0
H343 H 0.52848 0.64726 0.98641 0.0
H344 H 0.50398 0.65585 0.92832 0.0
H345 H 0.56123 0.52869 0.90429 0.0
H346 H 0.53384 0.49308 0.88405 0.0
H347 H 0.53572 0.49526 0.9292 0.0
H348 H 0.46083 0.49707 0.93165 0.0
H349 H 0.45848 0.49404 0.88625 0.0
H350 H 0.43482 0.53051 0.90728 0.0
H351 H 0.49733 0.65195 0.86668 0.0
H352 H 0.50772 0.6363 0.80726 0.0
H353 H 0.50681 0.52252 0.83409 0.0
C354 C 0.51238 0.55859 0.96609 0.0
C355 C 0.52462 0.58862 0.98538 0.0
C356 C 0.51883 0.62386 0.97233 0.0
C357 C 0.50503 0.62895 0.9392 0.0
C358 C 0.49704 0.59857 0.91962 0.0
C359 C 0.49997 0.56395 0.93277 0.0
C360 C 0.49812 0.5359 0.90514 0.0
C361 C 0.53438 0.51188 0.90572 0.0
C362 C 0.46083 0.51303 0.90774 0.0
C363 C 0.49702 0.56021 0.87425 0.0
C364 C 0.49489 0.59617 0.8832 0.0
C365 C 0.49807 0.62389 0.85936 0.0
C366 C 0.50449 0.61474 0.82575 0.0
C367 C 0.50841 0.57818 0.81628 0.0
C368 C 0.50332 0.55059 0.84066 0.0
H369 H 0.83786 0.6292 0.31038 0.0
H370 H 0.93524 0.60537 0.37728 0.0
H371 H 0.98033 0.61923 0.33105 0.0
H372 H 0.87853 0.58617 0.23802 0.0
H373 H 0.85805 0.61834 0.20858 0.0
H374 H 0.83397 0.60859 0.24772 0.0
H375 H 0.83564 0.67685 0.26171 0.0
H376 H 0.86059 0.68668 0.22294 0.0
H377 H 0.88145 0.70076 0.26268 0.0
H378 H 1.01501 0.63635 0.27757 0.0
H379 H 0.03599 0.6453 0.21843 0.0
H380 H 0.91598 0.65336 0.18607 0.0
C381 C 0.86859 0.62632 0.31536 0.0
C382 C 0.88284 0.61673 0.34781 0.0
C383 C 0.92346 0.61364 0.353 0.0
C384 C 0.94938 0.62139 0.32686 0.0
C385 C 0.93429 0.6317 0.29552 0.0
C386 C 0.89483 0.63336 0.28947 0.0
C387 C 0.88596 0.64276 0.25296 0.0
C388 C 0.86277 0.61214 0.23581 0.0
C389 C 0.86465 0.67891 0.24992 0.0
C390 C 0.92664 0.64588 0.23935 0.0
C391 C 0.95416 0.64013 0.26442 0.0
C392 C 0.99376 0.64098 0.25773 0.0
C393 C 1.00543 0.64643 0.22425 0.0
C394 C 0.97753 0.65038 0.19808 0.0
C395 C 0.93777 0.65091 0.20586 0.0
H396 H 0.26164 0.1406 0.22681 0.0
H397 H 0.29207 0.25455 0.21664 0.0
H398 H 0.35022 0.2386 0.186 0.0
H399 H 0.36116 0.11225 0.24322 0.0
H400 H 0.356 0.07032 0.22081 0.0
H401 H 0.3145 0.09 0.24045 0.0
H402 H 0.27751 0.08908 0.18326 0.0
H403 H 0.31894 0.06951 0.16342 0.0
H404 H 0.29874 0.11084 0.14689 0.0
H405 H 0.40444 0.212 0.15538 0.0
H406 H 0.45558 0.17578 0.13065 0.0
H407 H 0.39714 0.07743 0.16409 0.0
C408 C 0.28046 0.16233 0.21833 0.0
C409 C 0.27068 0.19919 0.2236 0.0
C410 C 0.29696 0.22627 0.21194 0.0
C411 C 0.33075 0.21747 0.19471 0.0
C412 C 0.33904 0.18127 0.18967 0.0
C413 C 0.31515 0.15398 0.20151 0.0
C414 C 0.33247 0.11719 0.19374 0.0
C415 C 0.34157 0.0962 0.22651 0.0
C416 C 0.30529 0.09537 0.17044 0.0
C417 C 0.36962 0.12831 0.17559 0.0
C418 C 0.37224 0.16552 0.17336 0.0
C419 C 0.40286 0.18284 0.15715 0.0
C420 C 0.43182 0.16182 0.14299 0.0
C421 C 0.43078 0.12353 0.14525 0.0
C422 C 0.39906 0.10656 0.16197 0.0
H423 H 0.2525 1.02399 0.72866 0.0
H424 H 0.27884 0.91993 0.68632 0.0
H425 H 0.23959 0.93525 0.6353 0.0
H426 H 0.15714 0.02587 0.70504 0.0
H427 H 0.15511 0.0735 0.69545 0.0
H428 H 0.19026 0.05691 0.72549 0.0
H429 H 0.24579 0.08634 0.69096 0.0
H430 H 0.21069 0.10347 0.66093 0.0
H431 H 0.25012 0.07616 0.64677 0.0
H432 H 0.18808 0.95826 0.59385 0.0
H433 H 0.13403 0.98862 0.56368 0.0
H434 H 0.1438 0.07858 0.63258 0.0
C435 C 0.25108 1.00498 0.70806 0.0
C436 C 0.26894 0.97094 0.71113 0.0
C437 C 0.26592 0.94639 0.6841 0.0
C438 C 0.2435 0.95483 0.65517 0.0
C439 C 0.22489 0.98816 0.65354 0.0
C440 C 0.22918 1.01313 0.67907 0.0
C441 C 0.20407 0.04586 0.67266 0.0
C442 C 0.17493 0.05079 0.70136 0.0
C443 C 0.22917 0.07998 0.66752 0.0
C444 C 0.18381 0.03498 0.64017 0.0
C445 C 0.19622 1.00169 0.62938 0.0
C446 C 0.17889 0.98472 0.60165 0.0
C447 C 0.14811 1.00211 0.58472 0.0
C448 C 0.13504 0.03623 0.59542 0.0
C449 C 0.15369 0.05294 0.62322 0.0
H450 H 0.75323 0.54869 0.0544 0.0
H451 H 0.74352 0.48626 0.96253 0.0
H452 H 0.81221 0.49955 0.95014 0.0
H453 H 0.81776 0.61858 1.02083 0.0
H454 H 0.84492 0.62246 0.05981 0.0
H455 H 0.79454 0.6092 0.06054 0.0
H456 H 0.8125 0.55127 0.09432 0.0
H457 H 0.86289 0.5643 0.09355 0.0
H458 H 0.84776 0.52093 0.07753 0.0
H459 H 0.88288 0.51783 0.94895 0.0
H460 H 0.94985 0.54033 0.95915 0.0
H461 H 0.91214 0.59088 0.05141 0.0
C462 C 0.76543 0.53826 1.03146 0.0
C463 C 0.7432 0.51633 1.00953 0.0
C464 C 0.76029 0.50275 0.97993 0.0
C465 C 0.79916 0.5103 0.97255 0.0
C466 C 0.82048 0.53159 0.99496 0.0
C467 C 0.80418 0.54548 1.02374 0.0
C468 C 0.83362 0.56674 0.04417 0.0
C469 C 0.82201 0.60661 0.04645 0.0
C470 C 0.83954 0.54978 0.07947 0.0
C471 C 0.86904 0.56231 1.02258 0.0
C472 C 0.86096 0.5421 0.99422 0.0
C473 C 0.88954 0.53389 0.97098 0.0
C474 C 0.92744 0.54671 0.97697 0.0
C475 C 0.9362 0.56737 1.006 0.0
C476 C 0.90644 0.57526 1.02889 0.0
H477 H 0.80257 0.59167 0.55243 0.0
H478 H 0.81895 0.70639 0.5704 0.0
H479 H 0.7664 0.70468 0.6112 0.0
H480 H 0.70603 0.59496 0.54607 0.0
H481 H 0.69503 0.55223 0.56617 0.0
H482 H 0.74098 0.55911 0.54623 0.0
H483 H 0.77662 0.54234 0.60209 0.0
H484 H 0.73055 0.53512 0.62224 0.0
H485 H 0.76559 0.5661 0.64022 0.0
H486 H 0.70348 0.69537 0.63807 0.0
H487 H 0.63589 0.67744 0.65101 0.0
H488 H 0.65795 0.56937 0.6161 0.0
C489 C 0.79588 0.61619 0.56568 0.0
C490 C 0.81544 0.64901 0.55827 0.0
C491 C 0.80548 0.68055 0.57613 0.0
C492 C 0.77535 0.67996 0.59938 0.0
C493 C 0.75535 0.64765 0.60474 0.0
C494 C 0.76545 0.61616 0.58873 0.0
C495 C 0.73566 0.58652 0.59485 0.0
C496 C 0.71841 0.57242 0.56135 0.0
C497 C 0.75316 0.5557 0.61613 0.0
C498 C 0.70604 0.60706 0.61473 0.0
C499 C 0.7184 0.64208 0.62084 0.0
C500 C 0.69397 0.6677 0.63461 0.0
C501 C 0.65573 0.65744 0.64177 0.0
C502 C 0.64269 0.62196 0.63527 0.0
C503 C 0.66818 0.59628 0.62234 0.0
H504 H 0.10117 0.40744 0.22023 0.0
H505 H 0.1759 0.34378 0.15717 0.0
H506 H 0.15846 0.38254 0.10817 0.0
H507 H 0.02682 0.42845 0.15716 0.0
H508 H 1.02082 0.47384 0.17207 0.0
H509 H 0.03561 0.43861 0.20102 0.0
H510 H 0.09618 0.47649 0.21801 0.0
H511 H 0.08164 0.51176 0.18908 0.0
H512 H 0.12897 0.49207 0.18576 0.0
H513 H 0.13581 0.43133 0.06656 0.0
H514 H 0.11117 0.48522 1.03654 0.0
H515 H 0.05487 0.51958 0.12798 0.0
C516 C 0.11409 0.40141 0.19622 0.0
C517 C 0.14031 0.37229 0.19298 0.0
C518 C 0.15547 0.36537 0.16059 0.0
C519 C 0.1459 0.38751 0.13256 0.0
C520 C 0.1211 0.41663 0.13712 0.0
C521 C 0.10538 0.42353 0.16821 0.0
C522 C 0.08132 0.4577 0.16711 0.0
C523 C 0.03861 0.44912 0.17479 0.0
C524 C 0.09804 0.48618 0.19143 0.0
C525 C 0.08629 0.46938 0.13057 0.0
C526 C 0.10895 0.44508 0.11359 0.0
C527 C 0.11794 0.45035 0.07967 0.0
C528 C 0.10371 0.48118 0.06279 0.0
C529 C 0.08093 0.50688 0.07974 0.0
C530 C 0.07207 0.50057 0.11415 0.0
H531 H 0.59779 0.4219 0.05423 0.0
H532 H 0.67102 0.41749 0.96605 0.0
H533 H 0.65012 0.35443 0.95668 0.0
H534 H 0.61583 0.33613 0.08469 0.0
H535 H 0.56723 0.32694 0.09886 0.0
H536 H 0.58487 0.37272 0.09643 0.0
H537 H 0.52673 0.38971 0.05753 0.0
H538 H 0.50893 0.3438 0.05978 0.0
H539 H 0.51791 0.36476 1.01931 0.0
H540 H 0.62778 0.29017 0.96113 0.0
H541 H 0.60484 0.22937 0.97917 0.0
H542 H 0.54305 0.27682 0.06184 0.0
C543 C 0.60872 0.40801 1.03246 0.0
C544 C 0.63618 0.42456 1.01099 0.0
C545 C 0.65044 0.40515 0.98319 0.0
C546 C 0.63839 0.36948 0.97741 0.0
C547 C 0.61163 0.35385 0.99932 0.0
C548 C 0.59673 0.37258 1.02613 0.0
C549 C 0.57038 0.34889 0.04731 0.0
C550 C 0.5855 0.346 0.08397 0.0
C551 C 0.5285 0.36261 0.04588 0.0
C552 C 0.57398 0.31351 1.02899 0.0
C553 C 0.5976 0.31699 1.00114 0.0
C554 C 0.60841 0.28723 0.98229 0.0
C555 C 0.59532 0.25295 0.9926 0.0
C556 C 0.57157 0.24905 1.0212 0.0
C557 C 0.56015 0.27963 1.03918 0.0
H558 H 0.87397 0.75373 0.47196 0.0
H559 H 0.96205 0.69435 0.5272 0.0
H560 H 1.0026 0.75002 0.53087 0.0
H561 H 0.93896 0.81707 0.42594 0.0
H562 H 0.90627 0.85424 0.43078 0.0
H563 H 0.88745 0.80876 0.42797 0.0
H564 H 0.85207 0.81675 0.48471 0.0
H565 H 0.87086 0.86209 0.4878 0.0
H566 H 0.87954 0.83013 0.52161 0.0
H567 H 0.03068 0.81278 0.532 0.0
H568 H 0.04244 0.87868 0.53447 0.0
H569 H 0.93382 0.89727 0.48121 0.0
C570 C 0.90231 0.75243 0.48398 0.0
C571 C 0.91561 0.72006 0.49873 0.0
C572 C 0.952 0.7191 0.51539 0.0
C573 C 0.97509 0.75043 0.51745 0.0
C574 C 0.96094 0.78225 0.50299 0.0
C575 C 0.92528 0.78348 0.48672 0.0
C576 C 0.91472 0.82165 0.47664 0.0
C577 C 0.91169 0.82565 0.43804 0.0
C578 C 0.87708 0.83332 0.49372 0.0
C579 C 0.94956 0.84189 0.49051 0.0
C580 C 0.97629 0.81864 0.50495 0.0
C581 C 1.01019 0.83121 0.52047 0.0
C582 C 1.01665 0.86859 0.52168 0.0
C583 C 0.98903 0.8928 0.50793 0.0
C584 C 0.95535 0.87922 0.49185 0.0
H585 H 0.42909 0.85783 0.7181 0.0
H586 H 0.46038 0.8258 0.82066 0.0
H587 H 0.48401 0.7681 0.7999 0.0
H588 H 0.39492 0.76921 0.69218 0.0
H589 H 0.41354 0.77273 0.64995 0.0
H590 H 0.39998 0.81287 0.67206 0.0
H591 H 0.46852 0.83997 0.66287 0.0
H592 H 0.48231 0.7999 0.64075 0.0
H593 H 0.5104 0.8149 0.67672 0.0
H594 H 0.50309 0.71378 0.76992 0.0
H595 H 0.51686 0.6642 0.73209 0.0
H596 H 0.47338 0.72716 0.64666 0.0
C597 C 0.44099 0.8387 0.73618 0.0
C598 C 0.44347 0.84718 0.77118 0.0
C599 C 0.45912 0.82099 0.79376 0.0
C600 C 0.47237 0.78776 0.78221 0.0
C601 C 0.46978 0.78047 0.74785 0.0
C602 C 0.45449 0.80497 0.725 0.0
C603 C 0.45478 0.78934 0.68941 0.0
C604 C 0.41334 0.78583 0.67505 0.0
C605 C 0.48054 0.81241 0.66605 0.0
C606 C 0.47248 0.75227 0.69606 0.0
C607 C 0.48078 0.74816 0.7301 0.0
C608 C 0.49677 0.71669 0.74321 0.0
C609 C 0.50445 0.68848 0.72122 0.0
C610 C 0.49628 0.69127 0.68601 0.0
C611 C 0.48016 0.72397 0.67326 0.0
H612 H 0.94482 0.91869 0.76754 0.0
H613 H 0.93169 1.01041 0.83327 0.0
H614 H 0.94998 0.05173 0.78652 0.0
H615 H 0.02682 0.95473 0.7188 0.0
H616 H 1.00918 0.93658 0.67938 0.0
H617 H 0.99761 0.91405 0.71858 0.0
H618 H 0.92454 0.91786 0.70353 0.0
H619 H 0.93589 0.94068 0.66444 0.0
H620 H 0.90361 0.9612 0.69389 0.0
H621 H 0.96899 0.08357 0.73216 0.0
H622 H 0.98635 0.10339 0.67447 0.0
H623 H 0.98415 0.99178 0.64215 0.0
C624 C 0.94653 0.94743 0.77216 0.0
C625 C 0.93734 0.96129 0.80433 0.0
C626 C 0.93892 0.99916 0.80905 0.0
C627 C 0.94923 1.02286 0.78256 0.0
C628 C 0.95754 1.00851 0.75107 0.0
C629 C 0.95626 0.97166 0.74567 0.0
C630 C 0.96496 0.96356 0.7089 0.0
C631 C 1.00184 0.94089 0.70627 0.0
C632 C 0.93018 0.94471 0.69168 0.0
C633 C 0.97128 1.00149 0.69455 0.0
C634 C 0.96712 0.02699 0.71941 0.0
C635 C 0.97219 0.06379 0.71251 0.0
C636 C 0.98201 0.07484 0.67954 0.0
C637 C 0.98636 0.04936 0.65343 0.0
C638 C 0.98062 1.01213 0.66127 0.0
H639 H 0.64337 0.22851 0.3175 0.0
H640 H 0.68992 0.131 0.36362 0.0
H641 H 0.67091 0.09668 0.31317 0.0
H642 H 0.56027 0.18642 0.27929 0.0
H643 H 0.56124 0.21342 0.24117 0.0
H644 H 0.5806 0.23147 0.27999 0.0
H645 H 0.64625 0.24427 0.25104 0.0
H646 H 0.62706 0.22626 0.2121 0.0
H647 H 0.67082 0.20804 0.23045 0.0
H648 H 0.6432 0.07149 0.26024 0.0
H649 H 0.61017 0.05699 0.20667 0.0
H650 H 0.58134 0.16994 0.19213 0.0
C651 C 0.64977 0.19997 0.31695 0.0
C652 C 0.6687 0.18272 0.34477 0.0
C653 C 0.67641 0.14527 0.34266 0.0
C654 C 0.66541 0.12536 0.3141 0.0
C655 C 0.64669 0.14307 0.28743 0.0
C656 C 0.63905 0.17954 0.28837 0.0
C657 C 0.6176 0.19148 0.25631 0.0
C658 C 0.57755 0.20659 0.2647 0.0
C659 C 0.64189 0.21916 0.23629 0.0
C660 C 0.61391 0.15587 0.23754 0.0
C661 C 0.63098 0.12842 0.25617 0.0
C662 C 0.63007 0.09281 0.2453 0.0
C663 C 0.61108 0.08485 0.21477 0.0
C664 C 0.59326 0.11226 0.19493 0.0
C665 C 0.59513 0.14844 0.2064 0.0
H666 H 0.42738 0.56324 0.31576 0.0
H667 H 0.5324 0.60638 0.27122 0.0
H668 H 0.55306 0.63059 0.32684 0.0
H669 H 0.41142 0.63894 0.37053 0.0
H670 H 0.39268 0.61131 0.40446 0.0
H671 H 0.38676 0.59693 0.36139 0.0
H672 H 0.42043 0.53637 0.37603 0.0
H673 H 0.42593 0.55039 0.41919 0.0
H674 H 0.46779 0.53708 0.39577 0.0
H675 H 0.56312 0.64745 0.38835 0.0
H676 H 0.56219 0.65454 0.45033 0.0
H677 H 0.44718 0.6058 0.45248 0.0
C678 C 0.45491 0.57744 0.31793 0.0
C679 C 0.47871 0.58258 0.28963 0.0
C680 C 0.5141 0.60198 0.29294 0.0
C681 C 0.5259 0.61593 0.32428 0.0
C682 C 0.50152 0.61078 0.35177 0.0
C683 C 0.46668 0.59213 0.3488 0.0
C684 C 0.44556 0.59061 0.38198 0.0
C685 C 0.40681 0.61065 0.37942 0.0
C686 C 0.4396 0.55128 0.39394 0.0
C687 C 0.47433 0.61053 0.40429 0.0
C688 C 0.50643 0.62203 0.38651 0.0
C689 C 0.53787 0.639 0.40246 0.0
C690 C 0.53694 0.64323 0.43766 0.0
C691 C 0.5047 0.63064 0.45643 0.0
C692 C 0.47253 0.61535 0.43907 0.0
H693 H 0.04058 0.61023 0.7028 0.0
H694 H 0.05826 0.4977 0.67856 0.0
H695 H 0.07112 0.48387 0.7387 0.0
H696 H 0.11478 0.6175 0.76332 0.0
H697 H 0.08892 0.64612 0.79166 0.0
H698 H 0.07756 0.64704 0.74719 0.0
H699 H 1.00548 0.63209 0.75952 0.0
H700 H 1.01648 0.63194 0.8041 0.0
H701 H 0.99355 0.59306 0.78508 0.0
H702 H 0.08716 0.48313 0.80034 0.0
H703 H 0.09922 0.49458 0.86095 0.0
H704 H 0.06987 0.60727 0.84516 0.0
C705 C 0.0461 0.58256 0.71037 0.0
C706 C 0.04851 0.55502 0.68621 0.0
C707 C 0.05652 0.51918 0.69683 0.0
C708 C 0.06388 0.51107 0.73085 0.0
C709 C 0.06282 0.53907 0.75392 0.0
C710 C 0.05354 0.57397 0.7443 0.0
C711 C 0.05546 0.59919 0.77409 0.0
C712 C 0.086 0.62923 0.76872 0.0
C713 C 1.01535 0.61499 0.78111 0.0
C714 C 0.06789 0.57312 0.80172 0.0
C715 C 0.07197 0.53858 0.78957 0.0
C716 C 0.08368 0.50999 0.81028 0.0
C717 C 0.0905 0.51673 0.8446 0.0
C718 C 0.0856 0.55178 0.85774 0.0
C719 C 0.07454 0.58031 0.83581 0.0
H720 H 0.71534 0.919 0.95811 0.0
H721 H 0.80203 1.004 0.9476 0.0
H722 H 0.77118 0.03764 0.99348 0.0
H723 H 0.6367 0.97507 0.96877 0.0
H724 H 0.61211 0.94674 0.99915 0.0
H725 H 0.64409 0.92695 0.96916 0.0
H726 H 0.68383 0.89783 1.01801 0.0
H727 H 0.65182 0.91748 0.04822 0.0
H728 H 0.7033 0.92592 0.05118 0.0
H729 H 0.7252 0.06619 1.03409 0.0
H730 H 0.67006 0.08581 0.06838 0.0
H731 H 0.6138 0.98178 0.05409 0.0
C732 C 0.72831 0.9444 0.96585 0.0
C733 C 0.76129 0.95878 0.94916 0.0
C734 C 0.77725 0.99209 0.96022 0.0
C735 C 0.75974 1.0115 0.98618 0.0
C736 C 0.72652 0.99709 1.00124 0.0
C737 C 0.71126 0.96404 0.99178 0.0
C738 C 0.67388 0.95564 1.01033 0.0
C739 C 0.63969 0.95083 0.98536 0.0
C740 C 0.6785 0.92223 1.0333 0.0
C741 C 0.66974 0.98966 1.03093 0.0
C742 C 0.70055 1.01316 1.02542 0.0
C743 C 0.70146 0.04766 1.03917 0.0
C744 C 0.66998 0.0586 0.0586 0.0
C745 C 0.63805 0.03508 0.06448 0.0
C746 C 0.63837 0.9999 0.05093 0.0
H747 H 0.75761 0.14315 0.43166 0.0
H748 H 0.76478 0.25341 0.46782 0.0
H749 H 0.82457 0.23852 0.49935 0.0
H750 H 0.79429 0.09951 0.50771 0.0
H751 H 0.82167 0.06631 0.48548 0.0
H752 H 0.77847 0.08491 0.46646 0.0
H753 H 0.81758 0.10461 0.41393 0.0
H754 H 0.86087 0.08599 0.43274 0.0
H755 H 0.86026 0.13262 0.41923 0.0
H756 H 0.88427 0.21274 0.52589 0.0
H757 H 0.94053 0.17819 0.54566 0.0
H758 H 0.89736 0.08393 0.49201 0.0
C759 C 0.77178 0.16432 0.44602 0.0
C760 C 0.75593 0.19962 0.44718 0.0
C761 C 0.77553 0.22609 0.46681 0.0
C762 C 0.8098 0.21793 0.4847 0.0
C763 C 0.82452 0.18309 0.48287 0.0
C764 C 0.80624 0.15665 0.46404 0.0
C765 C 0.8288 0.1215 0.46602 0.0
C766 C 0.80434 0.09127 0.4824 0.0
C767 C 0.8427 0.11054 0.43089 0.0
C768 C 0.86275 0.13241 0.48877 0.0
C769 C 0.85943 0.1681 0.49817 0.0
C770 C 0.88711 0.18478 0.51872 0.0
C771 C 0.91913 0.16474 0.52984 0.0
C772 C 0.92374 0.1281 0.52054 0.0
C773 C 0.89481 0.11173 0.49977 0.0
H774 H 0.34379 0.60111 0.09572 0.0
H775 H 0.3363 0.69778 0.1561 0.0
H776 H 0.26918 0.70689 0.13604 0.0
H777 H 0.28778 0.63525 1.02419 0.0
H778 H 0.26377 0.59272 1.01595 0.0
H779 H 0.3116 0.59348 1.03476 0.0
H780 H 0.28693 0.5548 0.08518 0.0
H781 H 0.23918 0.5536 0.06633 0.0
H782 H 0.24588 0.56991 0.10873 0.0
H783 H 0.20292 0.70455 0.11189 0.0
H784 H 0.13975 0.69019 0.0851 0.0
H785 H 0.18983 0.59667 1.03786 0.0
C786 C 0.32781 0.62405 0.10466 0.0
C787 C 0.34505 0.64891 0.12721 0.0
C788 C 0.32355 0.67871 0.13849 0.0
C789 C 0.2855 0.68412 0.12727 0.0
C790 C 0.26945 0.65957 0.1046 0.0
C791 C 0.28974 0.63011 0.09337 0.0
C792 C 0.26517 0.60776 0.06924 0.0
C793 C 0.28316 0.60729 1.03394 0.0
C794 C 0.25892 0.56924 0.08321 0.0
C795 C 0.22787 0.62904 0.06913 0.0
C796 C 0.23112 0.65883 0.08972 0.0
C797 C 0.20005 0.68157 0.09536 0.0
C798 C 0.16437 0.67325 0.08004 0.0
C799 C 0.16023 0.6427 0.05912 0.0
C800 C 0.19256 0.6207 0.0531 0.0
H801 H 0.24674 0.5397 0.54202 0.0
H802 H 0.19388 0.52787 0.64025 0.0
H803 H 0.25828 0.53403 0.66786 0.0
H804 H 0.33545 0.49205 0.56149 0.0
H805 H 0.36557 0.5226 0.53736 0.0
H806 H 0.31557 0.51555 0.52526 0.0
H807 H 0.30365 0.58443 0.52849 0.0
H808 H 0.35364 0.59165 0.54038 0.0
H809 H 0.31567 0.60803 0.56686 0.0
H810 H 0.32851 0.54081 0.68465 0.0
H811 H 0.39901 0.5537 0.68951 0.0
H812 H 0.40501 0.56425 0.58047 0.0
C813 C 0.24896 0.53842 0.5693 0.0
C814 C 0.21573 0.53348 0.58916 0.0
C815 C 0.21928 0.53199 0.62479 0.0
C816 C 0.25563 0.53521 0.64062 0.0
C817 C 0.288 0.54014 0.62041 0.0
C818 C 0.28499 0.54216 0.58555 0.0
C819 C 0.32406 0.54942 0.56982 0.0
C820 C 0.33585 0.51803 0.54715 0.0
C821 C 0.32425 0.58553 0.55024 0.0
C822 C 0.34934 0.55134 0.60125 0.0
C823 C 0.32817 0.54537 0.63016 0.0
C824 C 0.34543 0.54564 0.6622 0.0
C825 C 0.38539 0.55284 0.66474 0.0
C826 C 0.40722 0.56019 0.63543 0.0
C827 C 0.38892 0.55902 0.60336 0.0
H828 H 0.93079 0.8591 0.93911 0.0
H829 H 0.97957 0.84186 0.84001 0.0
H830 H 1.01277 0.78788 0.86197 0.0
H831 H 1.01341 0.82715 0.98904 0.0
H832 H 0.98373 0.8052 1.02044 0.0
H833 H 0.96593 0.84427 0.99789 0.0
H834 H 0.90511 0.80795 0.97893 0.0
H835 H 0.92269 0.76878 1.0014 0.0
H836 H 0.91094 0.76596 0.95704 0.0
H837 H 0.03813 0.73383 0.8934 0.0
H838 H 0.05399 0.68348 0.93172 0.0
H839 H 0.98752 0.73295 1.011 0.0
C840 C 0.9484 0.8441 0.92186 0.0
C841 C 0.95245 0.85544 0.88756 0.0
C842 C 0.97635 0.83476 0.8664 0.0
C843 C 0.99519 0.80367 0.87863 0.0
C844 C 0.99003 0.79316 0.91222 0.0
C845 C 0.96726 0.81273 0.93361 0.0
C846 C 0.96545 0.79461 0.96833 0.0
C847 C 0.98319 0.81929 0.99553 0.0
C848 C 0.92356 0.78368 0.97692 0.0
C849 C 0.99044 0.76155 0.963 0.0
C850 C 1.00442 0.76153 0.93042 0.0
C851 C 0.02746 0.73371 0.91897 0.0
C852 C 0.03627 0.70505 0.94111 0.0
C853 C 1.02216 0.70391 0.97467 0.0
C854 C 0.99907 0.73292 0.98572 0.0
H855 H 0.41658 0.73747 0.17556 0.0
H856 H 0.52312 0.69126 0.13963 0.0
H857 H 0.55591 0.75105 0.14519 0.0
H858 H 0.42309 0.81889 0.13218 0.0
H859 H 0.40305 0.84563 0.16534 0.0
H860 H 0.39003 0.79867 0.16198 0.0
H861 H 0.41303 0.7877 0.22379 0.0
H862 H 0.42627 0.83474 0.22731 0.0
H863 H 0.46169 0.80041 0.23623 0.0
H864 H 0.57397 0.81725 0.14869 0.0
H865 H 0.5762 0.88377 0.14923 0.0
H866 H 0.45796 0.88526 0.18538 0.0
C867 C 0.4469 0.73994 0.16903 0.0
C868 C 0.4674 0.7102 0.15676 0.0
C869 C 0.50711 0.71401 0.14895 0.0
C870 C 0.52585 0.74771 0.15216 0.0
C871 C 0.50448 0.77676 0.16382 0.0
C872 C 0.46594 0.77302 0.17237 0.0
C873 C 0.4486 0.80855 0.18236 0.0
C874 C 0.41418 0.81851 0.15907 0.0
C875 C 0.43671 0.80779 0.21964 0.0
C876 C 0.48295 0.83335 0.17679 0.0
C877 C 0.51509 0.81454 0.16654 0.0
C878 C 0.54928 0.83216 0.15739 0.0
C879 C 0.55031 0.87 0.15799 0.0
C880 C 0.51729 0.88977 0.16759 0.0
C881 C 0.48364 0.87097 0.17793 0.0
H882 H 0.16536 0.42579 0.57386 0.0
H883 H 0.07175 0.46058 0.50732 0.0
H884 H 0.04685 0.39778 0.50536 0.0
H885 H 0.17867 0.33512 0.53433 0.0
H886 H 0.18935 0.31474 0.57485 0.0
H887 H 0.20247 0.36126 0.56682 0.0
H888 H 0.16405 0.37981 0.61954 0.0
H889 H 0.14982 0.33363 0.62725 0.0
H890 H 0.11338 0.36785 0.62237 0.0
H891 H 0.02697 0.33359 0.5178 0.0
H892 H 1.01818 0.27052 0.53756 0.0
H893 H 0.1264 0.2777 0.59406 0.0
C894 C 0.14069 0.42014 0.55754 0.0
C895 C 0.12064 0.4482 0.54056 0.0
C896 C 0.08753 0.43955 0.52059 0.0
C897 C 0.07321 0.40398 0.51931 0.0
C898 C 0.09271 0.37736 0.53769 0.0
C899 C 0.12628 0.38486 0.55576 0.0
C900 C 0.14049 0.35197 0.57502 0.0
C901 C 0.18009 0.34006 0.56196 0.0
C902 C 0.142 0.35875 0.6133 0.0
C903 C 0.10894 0.32506 0.56591 0.0
C904 C 0.08165 0.3402 0.54435 0.0
C905 C 0.04849 0.32127 0.5342 0.0
C906 C 0.04351 0.28569 0.54587 0.0
C907 C 0.0716 0.26948 0.56736 0.0
C908 C 0.10468 0.28946 0.57745 0.0
H909 H 0.57496 0.38405 0.46353 0.0
H910 H 0.64129 0.31723 0.53297 0.0
H911 H 0.6367 0.36456 0.57658 0.0
H912 H 0.61565 0.47277 0.49252 0.0
H913 H 0.56976 0.49485 0.48646 0.0
H914 H 0.58246 0.4576 0.46001 0.0
H915 H 0.51891 0.42457 0.4768 0.0
H916 H 0.50638 0.46136 0.50376 0.0
H917 H 0.50918 0.41613 0.52081 0.0
H918 H 0.61641 0.41594 0.61509 0.0
H919 H 0.59005 0.46988 0.6427 0.0
H920 H 0.53924 0.50451 0.54722 0.0
C921 C 0.58959 0.37991 0.48759 0.0
C922 C 0.60888 0.34704 0.49475 0.0
C923 C 0.62705 0.34238 0.5267 0.0
C924 C 0.62422 0.36904 0.55171 0.0
C925 C 0.60361 0.4005 0.54425 0.0
C926 C 0.58741 0.40639 0.51262 0.0
C927 C 0.56563 0.44185 0.51126 0.0
C928 C 0.58451 0.46834 0.48607 0.0
C929 C 0.52248 0.43558 0.50265 0.0
C930 C 0.57108 0.4546 0.54731 0.0
C931 C 0.59297 0.43035 0.56601 0.0
C932 C 0.59983 0.43533 0.60046 0.0
C933 C 0.58446 0.46598 0.61602 0.0
C934 C 0.56267 0.49164 0.59721 0.0
C935 C 0.55609 0.48568 0.56232 0.0
loop_
_geom_bond_atom_site_label_1
_geom_bond_atom_site_label_2
_geom_bond_distance
_geom_bond_site_symmetry_2
_ccdc_geom_bond_type
H0 C1 0.949 . S
C1 H0 0.949 . S
C1 C2 1.395 . S
C1 C3 1.391 . S
C2 C1 1.395 . S
C2 C5 1.390 . S
C3 C1 1.391 . S
C3 C7 1.387 . S
C3 C8 1.491 . S
H4 C5 0.950 . S
C5 C2 1.390 . S
C5 H4 0.950 . S
C5 C6 1.378 . S
C6 C5 1.378 . S
C6 C7 1.409 . S
C7 C3 1.387 . S
C7 C6 1.409 . S
C7 H9 0.951 . S
C8 C3 1.491 . S
C8 C10 1.382 . S
C8 C12 1.404 . S
H9 C7 0.951 . S
C10 C8 1.382 . S
C10 C11 1.390 . S
C10 H15 0.949 . S
C11 C10 1.390 . S
C11 C16 1.399 . S
C12 C8 1.404 . S
C12 H13 0.950 . S
C12 C14 1.375 . S
H13 C12 0.950 . S
C14 C12 1.375 . S
C14 C16 1.382 . S
C14 H18 0.950 . S
H15 C10 0.949 . S
C16 C11 1.399 . S
C16 C14 1.382 . S
C16 H17 0.952 . S
H17 C16 0.952 . S
H18 C14 0.950 . S
H19 C20 0.949 . S
C20 H19 0.949 . S
C20 C21 1.395 . S
C20 C22 1.391 . S
C21 C20 1.395 . S
C21 C24 1.390 . S
C22 C20 1.391 . S
C22 C26 1.387 . S
C22 C27 1.491 . S
H23 C24 0.950 . S
C24 C21 1.390 . S
C24 H23 0.950 . S
C24 C25 1.378 . S
C25 C24 1.378 . S
C25 C26 1.409 . S
C26 C22 1.387 . S
C26 C25 1.409 . S
C26 H28 0.951 . S
C27 C22 1.491 . S
C27 C29 1.382 . S
C27 C31 1.404 . S
H28 C26 0.951 . S
C29 C27 1.382 . S
C29 C30 1.390 . S
C29 H34 0.949 . S
C30 C29 1.390 . S
C30 C35 1.399 . S
C31 C27 1.404 . S
C31 H32 0.950 . S
C31 C33 1.375 . S
H32 C31 0.950 . S
C33 C31 1.375 . S
C33 C35 1.382 . S
C33 H37 0.950 . S
H34 C29 0.949 . S
C35 C30 1.399 . S
C35 C33 1.382 . S
C35 H36 0.952 . S
H36 C35 0.952 . S
H37 C33 0.950 . S
H38 C39 0.949 . S
C39 H38 0.949 . S
C39 C40 1.395 . S
C39 C41 1.391 . S
C40 C39 1.395 . S
C40 C43 1.390 . S
C41 C39 1.391 . S
C41 C45 1.387 . S
C41 C46 1.491 . S
H42 C43 0.965 . S
C43 C40 1.390 . S
C43 H42 0.965 . S
C43 C44 1.378 . S
C44 C43 1.378 . S
C44 C45 1.409 . S
C45 C41 1.387 . S
C45 C44 1.409 . S
C45 H47 0.951 . S
C46 C41 1.491 . S
C46 C48 1.382 . S
C46 C50 1.404 . S
H47 C45 0.951 . S
C48 C46 1.382 . S
C48 C49 1.390 . S
C48 H53 0.949 . S
C49 C48 1.390 . S
C49 C54 1.399 . S
C50 C46 1.404 . S
C50 H51 0.950 . S
C50 C52 1.375 . S
H51 C50 0.950 . S
C52 C50 1.375 . S
C52 C54 1.382 . S
C52 H56 0.950 . S
H53 C48 0.949 . S
C54 C49 1.399 . S
C54 C52 1.382 . S
C54 H55 0.952 . S
H55 C54 0.952 . S
H56 C52 0.950 . S
H57 C58 0.949 . S
C58 H57 0.949 . S
C58 C59 1.395 . S
C58 C60 1.391 . S
C59 C58 1.395 . S
C59 C62 1.390 . S
C60 C58 1.391 . S
C60 C64 1.387 . S
C60 C65 1.491 . S
H61 C62 0.950 . S
C62 C59 1.390 . S
C62 H61 0.950 . S
C62 C63 1.378 . S
C63 C62 1.378 . S
C63 C64 1.409 . S
C64 C60 1.387 . S
C64 C63 1.409 . S
C64 H66 0.951 . S
C65 C60 1.491 . S
C65 C67 1.382 . S
C65 C69 1.404 . S
H66 C64 0.951 . S
C67 C65 1.382 . S
C67 C68 1.390 . S
C67 H72 0.949 . S
C68 C67 1.390 . S
C68 C73 1.399 . S
C69 C65 1.404 . S
C69 H70 0.950 . S
C69 C71 1.375 . S
H70 C69 0.950 . S
C71 C69 1.375 . S
C71 C73 1.382 . S
C71 H75 0.950 . S
H72 C67 0.949 . S
C73 C68 1.399 . S
C73 C71 1.382 . S
C73 H74 0.952 . S
H74 C73 0.952 . S
H75 C71 0.950 . S
H76 C77 0.949 . S
C77 H76 0.949 . S
C77 C78 1.395 . S
C77 C79 1.391 . S
C78 C77 1.395 . S
C78 C81 1.390 . S
C79 C77 1.391 . S
C79 C83 1.387 . S
C79 C84 1.491 . S
H80 C81 0.950 . S
C81 C78 1.390 . S
C81 H80 0.950 . S
C81 C82 1.378 . S
C82 C81 1.378 . S
C82 C83 1.409 . S
C83 C79 1.387 . S
C83 C82 1.409 . S
C83 H85 0.951 . S
C84 C79 1.491 . S
C84 C86 1.382 . S
C84 C88 1.404 . S
H85 C83 0.951 . S
C86 C84 1.382 . S
C86 C87 1.390 . S
C86 H91 0.949 . S
C87 C86 1.390 . S
C87 C92 1.399 . S
C88 C84 1.404 . S
C88 H89 0.950 . S
C88 C90 1.375 . S
H89 C88 0.950 . S
C90 C88 1.375 . S
C90 C92 1.382 . S
C90 H94 0.950 . S
H91 C86 0.949 . S
C92 C87 1.399 . S
C92 C90 1.382 . S
C92 H93 0.952 . S
H93 C92 0.952 . S
H94 C90 0.950 . S
H95 C96 0.949 . S
C96 H95 0.949 . S
C96 C97 1.395 . S
C96 C98 1.391 . S
C97 C96 1.395 . S
C97 C100 1.390 . S
C98 C96 1.391 . S
C98 C102 1.387 . S
C98 C103 1.491 . S
H99 C100 0.950 . S
C100 C97 1.390 . S
C100 H99 0.950 . S
C100 C101 1.378 . S
C101 C100 1.378 . S
C101 C102 1.409 . S
C102 C98 1.387 . S
C102 C101 1.409 . S
C102 H104 0.951 . S
C103 C98 1.491 . S
C103 C105 1.382 . S
C103 C107 1.404 . S
H104 C102 0.951 . S
C105 C103 1.382 . S
C105 C106 1.390 . S
C105 H110 0.949 . S
C106 C105 1.390 . S
C106 C111 1.399 . S
C107 C103 1.404 . S
C107 H108 0.950 . S
C107 C109 1.375 . S
H108 C107 0.950 . S
C109 C107 1.375 . S
C109 C111 1.382 . S
C109 H113 0.950 . S
H110 C105 0.949 . S
C111 C106 1.399 . S
C111 C109 1.382 . S
C111 H112 0.952 . S
H112 C111 0.952 . S
H113 C109 0.950 . S
H114 C115 0.949 . S
C115 H114 0.949 . S
C115 C116 1.395 . S
C115 C117 1.391 . S
C116 C115 1.395 . S
C116 C119 1.390 . S
C117 C115 1.391 . S
C117 C121 1.387 . S
C117 C122 1.491 . S
H118 C119 0.950 . S
C119 C116 1.390 . S
C119 H118 0.950 . S
C119 C120 1.378 . S
C120 C119 1.378 . S
C120 C121 1.409 . S
C121 C117 1.387 . S
C121 C120 1.409 . S
C121 H123 0.951 . S
C122 C117 1.491 . S
C122 C124 1.382 . S
C122 C126 1.404 . S
H123 C121 0.951 . S
C124 C122 1.382 . S
C124 C125 1.390 . S
C124 H129 0.949 . S
C125 C124 1.390 . S
C125 C130 1.399 . S
C126 C122 1.404 . S
C126 H127 0.950 . S
C126 C128 1.375 . S
H127 C126 0.950 . S
C128 C126 1.375 . S
C128 C130 1.382 . S
C128 H132 0.950 . S
H129 C124 0.949 . S
C130 C125 1.399 . S
C130 C128 1.382 . S
C130 H131 0.952 . S
H131 C130 0.952 . S
H132 C128 0.950 . S
H133 C134 0.949 . S
C134 H133 0.949 . S
C134 C135 1.395 . S
C134 C136 1.391 . S
C135 C134 1.395 . S
C135 C138 1.390 . S
C136 C134 1.391 . S
C136 C140 1.387 . S
C136 C141 1.491 . S
H137 C138 0.950 . S
C138 C135 1.390 . S
C138 H137 0.950 . S
C138 C139 1.378 . S
C139 C138 1.378 . S
C139 C140 1.409 . S
C140 C136 1.387 . S
C140 C139 1.409 . S
C140 H142 0.951 . S
C141 C136 1.491 . S
C141 C143 1.382 . S
C141 C145 1.404 . S
H142 C140 0.951 . S
C143 C141 1.382 . S
C143 C144 1.390 . S
C143 H148 0.949 . S
C144 C143 1.390 . S
C144 C149 1.399 . S
C145 C141 1.404 . S
C145 H146 0.950 . S
C145 C147 1.375 . S
H146 C145 0.950 . S
C147 C145 1.375 . S
C147 C149 1.382 . S
C147 H151 0.950 . S
H148 C143 0.949 . S
C149 C144 1.399 . S
C149 C147 1.382 . S
C149 H150 0.952 . S
H150 C149 0.952 . S
H151 C147 0.950 . S
C152 O168 1.251 . S
C152 O170 1.254 . S
N153 C154 1.333 . S
N153 C158 1.307 . S
N153 Zn159 2.020 . S
C154 N153 1.333 . S
C154 C155 1.379 . S
C154 H172 0.952 . S
C155 C154 1.379 . S
C155 C156 1.390 . S
C155 H182 0.949 . S
C156 C155 1.390 . S
C156 C157 1.357 . S
C157 C156 1.357 . S
C157 C158 1.370 . S
C157 H183 0.950 . S
C158 N153 1.307 . S
C158 C157 1.370 . S
C158 H176 0.948 1_455 S
Zn159 N153 2.020 . S
Zn159 O168 2.039 . S
Zn159 O174 2.034 . S
Zn159 O178 2.025 1_455 S
Zn159 O180 2.024 1_455 S
C160 O179 1.246 . S
C160 O180 1.249 . S
N161 C162 1.307 . S
N161 C163 1.333 . S
N161 Zn167 2.020 1_565 S
C162 N161 1.307 . S
C162 C166 1.370 . S
C162 H173 0.948 1_655 S
C163 N161 1.333 . S
C163 C164 1.379 . S
C163 H171 0.952 . S
C164 C163 1.379 . S
C164 C165 1.390 . S
C164 H184 0.949 . S
C165 C164 1.390 . S
C165 C166 1.357 . S
C166 C162 1.370 . S
C166 C165 1.357 . S
C166 H185 0.950 . S
Zn167 N161 2.020 1_545 S
Zn167 O170 2.025 1_655 S
Zn167 O175 2.024 1_655 S
Zn167 O177 2.039 . S
Zn167 O179 2.034 . S
O168 C152 1.251 . S
O168 Zn159 2.039 . S
C169 O174 1.246 . S
C169 O175 1.249 . S
O170 C152 1.254 . S
O170 Zn167 2.025 1_455 S
H171 C163 0.952 . S
H172 C154 0.952 . S
H173 C162 0.948 1_455 S
O174 Zn159 2.034 . S
O174 C169 1.246 . S
O175 Zn167 2.024 1_455 S
O175 C169 1.249 . S
H176 C158 0.948 1_655 S
O177 Zn167 2.039 . S
O177 C181 1.251 . S
O178 Zn159 2.025 1_655 S
O178 C181 1.254 . S
O179 C160 1.246 . S
O179 Zn167 2.034 . S
O180 Zn159 2.024 1_655 S
O180 C160 1.249 . S
C181 O177 1.251 . S
C181 O178 1.254 . S
H182 C155 0.949 . S
H183 C157 0.950 . S
H184 C164 0.949 . S
H185 C166 0.950 . S
C186 O202 1.251 . S
C186 O204 1.254 . S
N187 C188 1.333 . S
N187 C192 1.307 . S
N187 Zn193 2.020 . S
C188 N187 1.333 . S
C188 C189 1.379 . S
C188 H206 0.952 . S
C189 C188 1.379 . S
C189 C190 1.390 . S
C189 H216 0.949 . S
C190 C189 1.390 . S
C190 C191 1.357 . S
C191 C190 1.357 . S
C191 C192 1.370 . S
C191 H217 0.950 . S
C192 N187 1.307 . S
C192 C191 1.370 . S
C192 H210 0.948 . S
Zn193 N187 2.020 . S
Zn193 O202 2.039 . S
Zn193 O208 2.034 . S
Zn193 O212 2.025 . S
Zn193 O214 2.024 . S
C194 O213 1.243 . S
C194 O214 1.249 . S
N195 C196 1.307 . S
N195 C197 1.333 . S
N195 Zn201 2.020 1_565 S
C196 N195 1.307 . S
C196 C200 1.370 . S
C196 H207 0.948 . S
C197 N195 1.333 . S
C197 C198 1.379 . S
C197 H205 0.952 . S
C198 C197 1.379 . S
C198 C199 1.390 . S
C198 H218 0.949 . S
C199 C198 1.390 . S
C199 C200 1.357 . S
C200 C196 1.370 . S
C200 C199 1.357 . S
C200 H219 0.950 . S
Zn201 N195 2.020 1_545 S
Zn201 O204 2.025 . S
Zn201 O209 2.024 . S
Zn201 O211 2.039 . S
Zn201 O213 2.034 . S
O202 C186 1.251 . S
O202 Zn193 2.039 . S
C203 O208 1.246 . S
C203 O209 1.249 . S
O204 C186 1.254 . S
O204 Zn201 2.025 . S
H205 C197 0.952 . S
H206 C188 0.952 . S
H207 C196 0.948 . S
O208 Zn193 2.034 . S
O208 C203 1.246 . S
O209 Zn201 2.024 . S
O209 C203 1.249 . S
H210 C192 0.948 . S
O211 Zn201 2.039 . S
O211 C215 1.251 . S
O212 Zn193 2.025 . S
O212 C215 1.254 . S
O213 C194 1.243 . S
O213 Zn201 2.034 . S
O214 Zn193 2.024 . S
O214 C194 1.249 . S
C215 O211 1.251 . S
C215 O212 1.254 . S
H216 C189 0.949 . S
H217 C191 0.950 . S
H218 C198 0.949 . S
H219 C200 0.950 . S
C220 O236 1.251 . S
C220 O238 1.254 . S
N221 C222 1.333 . S
N221 C226 1.307 . S
N221 Zn227 2.020 . S
C222 N221 1.333 . S
C222 C223 1.379 . S
C222 H240 0.952 . S
C223 C222 1.379 . S
C223 C224 1.390 . S
C223 H250 0.949 . S
C224 C223 1.390 . S
C224 C225 1.357 . S
C225 C224 1.357 . S
C225 C226 1.370 . S
C225 H251 0.950 . S
C226 N221 1.307 . S
C226 C225 1.370 . S
C226 H244 0.948 . S
Zn227 N221 2.020 . S
Zn227 O236 2.039 . S
Zn227 O242 2.034 . S
Zn227 O246 2.025 . S
Zn227 O248 2.024 . S
C228 O247 1.246 . S
C228 O248 1.249 . S
N229 C230 1.307 . S
N229 C231 1.333 . S
N229 Zn235 2.020 . S
C230 N229 1.307 . S
C230 C234 1.370 . S
C230 H241 0.948 . S
C231 N229 1.333 . S
C231 C232 1.379 . S
C231 H239 0.952 . S
C232 C231 1.379 . S
C232 C233 1.390 . S
C232 H252 0.949 . S
C233 C232 1.390 . S
C233 C234 1.357 . S
C234 C230 1.370 . S
C234 C233 1.357 . S
C234 H253 0.950 . S
Zn235 N229 2.020 . S
Zn235 O238 2.025 . S
Zn235 O243 2.024 . S
Zn235 O245 2.039 . S
Zn235 O247 2.034 . S
O236 C220 1.251 . S
O236 Zn227 2.039 . S
C237 O242 1.246 . S
C237 O243 1.249 . S
O238 C220 1.254 . S
O238 Zn235 2.025 . S
H239 C231 0.952 . S
H240 C222 0.952 . S
H241 C230 0.948 . S
O242 Zn227 2.034 . S
O242 C237 1.246 . S
O243 Zn235 2.024 . S
O243 C237 1.249 . S
H244 C226 0.948 . S
O245 Zn235 2.039 . S
O245 C249 1.251 . S
O246 Zn227 2.025 . S
O246 C249 1.254 . S
O247 C228 1.246 . S
O247 Zn235 2.034 . S
O248 Zn227 2.024 . S
O248 C228 1.249 . S
C249 O245 1.251 . S
C249 O246 1.254 . S
H250 C223 0.949 . S
H251 C225 0.950 . S
H252 C232 0.949 . S
H253 C234 0.950 . S
C254 O270 1.269 . S
C254 O272 1.241 1_654 S
N255 C256 1.333 . S
N255 C260 1.307 . S
N255 Zn261 2.020 . S
C256 N255 1.333 . S
C256 C257 1.379 . S
C256 H274 0.952 . S
C257 C256 1.379 . S
C257 C258 1.390 . S
C257 H284 0.949 . S
C258 C257 1.390 . S
C258 C259 1.357 . S
C259 C258 1.357 . S
C259 C260 1.370 . S
C259 H285 0.950 . S
C260 N255 1.307 . S
C260 C259 1.370 . S
C260 H278 0.948 . S
Zn261 N255 2.020 . S
Zn261 O270 2.039 . S
Zn261 O276 2.034 1_655 S
Zn261 O280 2.025 1_655 S
Zn261 O282 2.024 . S
C262 O281 1.246 . S
C262 O282 1.249 1_556 S
N263 C264 1.307 . S
N263 C265 1.333 . S
N263 Zn269 2.020 . S
C264 N263 1.307 . S
C264 C268 1.370 . S
C264 H275 0.948 . S
C265 N263 1.333 . S
C265 C266 1.379 . S
C265 H273 0.952 . S
C266 C265 1.379 . S
C266 C267 1.390 . S
C266 H286 0.949 . S
C267 C266 1.390 . S
C267 C268 1.357 . S
C268 C264 1.370 . S
C268 C267 1.357 . S
C268 H287 0.950 . S
Zn269 N263 2.020 . S
Zn269 O272 2.025 . S
Zn269 O277 2.024 1_556 S
Zn269 O279 2.039 1_556 S
Zn269 O281 2.034 1_455 S
O270 C254 1.269 . S
O270 Zn261 2.039 . S
C271 O276 1.246 . S
C271 O277 1.249 . S
O272 C254 1.241 1_456 S
O272 Zn269 2.025 . S
H273 C265 0.952 . S
H274 C256 0.952 . S
H275 C264 0.948 . S
O276 Zn261 2.034 1_455 S
O276 C271 1.246 . S
O277 Zn269 2.024 1_554 S
O277 C271 1.249 . S
H278 C260 0.948 . S
O279 Zn269 2.039 1_554 S
O279 C283 1.251 . S
O280 Zn261 2.025 1_455 S
O280 C283 1.254 . S
O281 C262 1.246 . S
O281 Zn269 2.034 1_655 S
O282 Zn261 2.024 . S
O282 C262 1.249 1_554 S
C283 O279 1.251 . S
C283 O280 1.254 . S
H284 C257 0.949 . S
H285 C259 0.950 . S
H286 C266 0.949 . S
H287 C268 0.950 . S
H288 C300 0.930 . S
H289 C302 0.930 . S
H290 C303 0.930 . S
H291 C307 0.959 . S
H292 C307 0.959 . S
H293 C307 0.961 . S
H294 C308 0.960 . S
H295 C308 0.961 . S
H296 C308 0.959 . S
H297 C311 0.929 . S
H298 C312 0.931 . S
H299 C314 0.930 . S
C300 H288 0.930 . S
C300 C301 1.399 . S
C300 C305 1.399 . S
C301 C300 1.399 . S
C301 C302 1.376 . S
C302 H289 0.930 . S
C302 C301 1.376 . S
C302 C303 1.388 . S
C303 H290 0.930 . S
C303 C302 1.388 . S
C303 C304 1.390 . S
C304 C303 1.390 . S
C304 C305 1.394 . S
C304 C310 1.465 . S
C305 C300 1.399 . S
C305 C304 1.394 . S
C305 C306 1.516 . S
C306 C305 1.516 . S
C306 C307 1.502 . S
C306 C308 1.561 . S
C306 C309 1.526 . S
C307 H291 0.959 . S
C307 H292 0.959 . S
C307 H293 0.961 . S
C307 C306 1.502 . S
C308 H294 0.960 . S
C308 H295 0.961 . S
C308 H296 0.959 . S
C308 C306 1.561 . S
C309 C306 1.526 . S
C309 C310 1.396 . S
C309 C314 1.390 . S
C310 C304 1.465 . S
C310 C309 1.396 . S
C310 C311 1.399 . S
C311 H297 0.929 . S
C311 C310 1.399 . S
C311 C312 1.385 . S
C312 H298 0.931 . S
C312 C311 1.385 . S
C312 C313 1.389 . S
C313 C312 1.389 . S
C313 C314 1.387 . S
C314 H299 0.930 . S
C314 C309 1.390 . S
C314 C313 1.387 . S
H315 C327 0.930 1_545 S
H316 C329 0.930 . S
H317 C330 0.930 . S
H318 C334 0.959 . S
H319 C334 0.959 . S
H320 C334 0.961 . S
H321 C335 0.960 . S
H322 C335 0.961 . S
H323 C335 0.959 . S
H324 C338 0.929 . S
H325 C339 0.931 . S
H326 C341 0.930 . S
C327 H315 0.930 1_565 S
C327 C328 1.399 . S
C327 C332 1.399 . S
C328 C327 1.399 . S
C328 C329 1.376 . S
C329 H316 0.930 . S
C329 C328 1.376 . S
C329 C330 1.388 . S
C330 H317 0.930 . S
C330 C329 1.388 . S
C330 C331 1.390 . S
C331 C330 1.390 . S
C331 C332 1.394 . S
C331 C337 1.465 . S
C332 C327 1.399 . S
C332 C331 1.394 . S
C332 C333 1.516 1_565 S
C333 C332 1.516 1_545 S
C333 C334 1.502 . S
C333 C335 1.561 . S
C333 C336 1.526 . S
C334 H318 0.959 . S
C334 H319 0.959 . S
C334 H320 0.961 . S
C334 C333 1.502 . S
C335 H321 0.960 . S
C335 H322 0.961 . S
C335 H323 0.959 . S
C335 C333 1.561 . S
C336 C333 1.526 . S
C336 C337 1.396 1_545 S
C336 C341 1.390 . S
C337 C331 1.465 . S
C337 C336 1.396 1_565 S
C337 C338 1.399 . S
C338 H324 0.929 . S
C338 C337 1.399 . S
C338 C339 1.385 . S
C339 H325 0.931 . S
C339 C338 1.385 . S
C339 C340 1.389 1_565 S
C340 C339 1.389 1_545 S
C340 C341 1.387 . S
C341 H326 0.930 . S
C341 C336 1.390 . S
C341 C340 1.387 . S
H342 C354 0.930 . S
H343 C356 0.930 . S
H344 C357 0.930 . S
H345 C361 0.959 . S
H346 C361 0.959 . S
H347 C361 0.961 . S
H348 C362 0.960 . S
H349 C362 0.961 . S
H350 C362 0.959 . S
H351 C365 0.929 . S
H352 C366 0.931 . S
H353 C368 0.930 . S
C354 H342 0.930 . S
C354 C355 1.399 . S
C354 C359 1.399 . S
C355 C354 1.399 . S
C355 C356 1.376 . S
C356 H343 0.930 . S
C356 C355 1.376 . S
C356 C357 1.388 . S
C357 H344 0.930 . S
C357 C356 1.388 . S
C357 C358 1.390 . S
C358 C357 1.390 . S
C358 C359 1.394 . S
C358 C364 1.465 . S
C359 C354 1.399 . S
C359 C358 1.394 . S
C359 C360 1.516 . S
C360 C359 1.516 . S
C360 C361 1.502 . S
C360 C362 1.561 . S
C360 C363 1.526 . S
C361 H345 0.959 . S
C361 H346 0.959 . S
C361 H347 0.961 . S
C361 C360 1.502 . S
C362 H348 0.960 . S
C362 H349 0.961 . S
C362 H350 0.959 . S
C362 C360 1.561 . S
C363 C360 1.526 . S
C363 C364 1.396 . S
C363 C368 1.390 . S
C364 C358 1.465 . S
C364 C363 1.396 . S
C364 C365 1.399 . S
C365 H351 0.929 . S
C365 C364 1.399 . S
C365 C366 1.385 . S
C366 H352 0.931 . S
C366 C365 1.385 . S
C366 C367 1.389 . S
C367 C366 1.389 . S
C367 C368 1.387 . S
C368 H353 0.930 . S
C368 C363 1.390 . S
C368 C367 1.387 . S
H369 C381 0.930 . S
H370 C383 0.930 . S
H371 C384 0.930 . S
H372 C388 0.959 . S
H373 C388 0.959 . S
H374 C388 0.961 . S
H375 C389 0.960 . S
H376 C389 0.961 . S
H377 C389 0.959 . S
H378 C392 0.929 . S
H379 C393 0.931 . S
H380 C395 0.930 . S
C381 H369 0.930 . S
C381 C382 1.399 . S
C381 C386 1.399 . S
C382 C381 1.399 . S
C382 C383 1.376 . S
C383 H370 0.930 . S
C383 C382 1.376 . S
C383 C384 1.388 . S
C384 H371 0.930 . S
C384 C383 1.388 . S
C384 C385 1.390 . S
C385 C384 1.390 . S
C385 C386 1.394 . S
C385 C391 1.465 . S
C386 C381 1.399 . S
C386 C385 1.394 . S
C386 C387 1.516 . S
C387 C386 1.516 . S
C387 C388 1.502 . S
C387 C389 1.561 . S
C387 C390 1.526 . S
C388 H372 0.959 . S
C388 H373 0.959 . S
C388 H374 0.961 . S
C388 C387 1.502 . S
C389 H375 0.960 . S
C389 H376 0.961 . S
C389 H377 0.959 . S
C389 C387 1.561 . S
C390 C387 1.526 . S
C390 C391 1.396 . S
C390 C395 1.390 . S
C391 C385 1.465 . S
C391 C390 1.396 . S
C391 C392 1.399 . S
C392 H378 0.929 . S
C392 C391 1.399 . S
C392 C393 1.385 . S
C393 H379 0.931 . S
C393 C392 1.385 . S
C393 C394 1.389 . S
C394 C393 1.389 . S
C394 C395 1.387 . S
C395 H380 0.930 . S
C395 C390 1.390 . S
C395 C394 1.387 . S
H396 C408 0.930 . S
H397 C410 0.930 . S
H398 C411 0.930 . S
H399 C415 0.959 . S
H400 C415 0.959 . S
H401 C415 0.961 . S
H402 C416 0.960 . S
H403 C416 0.961 . S
H404 C416 0.959 . S
H405 C419 0.929 . S
H406 C420 0.931 . S
H407 C422 0.930 . S
C408 H396 0.930 . S
C408 C409 1.399 . S
C408 C413 1.399 . S
C409 C408 1.399 . S
C409 C410 1.376 . S
C410 H397 0.930 . S
C410 C409 1.376 . S
C410 C411 1.388 . S
C411 H398 0.930 . S
C411 C410 1.388 . S
C411 C412 1.390 . S
C412 C411 1.390 . S
C412 C413 1.394 . S
C412 C418 1.465 . S
C413 C408 1.399 . S
C413 C412 1.394 . S
C413 C414 1.516 . S
C414 C413 1.516 . S
C414 C415 1.502 . S
C414 C416 1.561 . S
C414 C417 1.526 . S
C415 H399 0.959 . S
C415 H400 0.959 . S
C415 H401 0.961 . S
C415 C414 1.502 . S
C416 H402 0.960 . S
C416 H403 0.961 . S
C416 H404 0.959 . S
C416 C414 1.561 . S
C417 C414 1.526 . S
C417 C418 1.396 . S
C417 C422 1.390 . S
C418 C412 1.465 . S
C418 C417 1.396 . S
C418 C419 1.399 . S
C419 H405 0.929 . S
C419 C418 1.399 . S
C419 C420 1.385 . S
C420 H406 0.931 . S
C420 C419 1.385 . S
C420 C421 1.389 . S
C421 C420 1.389 . S
C421 C422 1.387 . S
C422 H407 0.930 . S
C422 C417 1.390 . S
C422 C421 1.387 . S
H423 C435 0.930 . S
H424 C437 0.930 . S
H425 C438 0.930 . S
H426 C442 0.959 . S
H427 C442 0.959 . S
H428 C442 0.961 . S
H429 C443 0.960 . S
H430 C443 0.961 . S
H431 C443 0.959 . S
H432 C446 0.929 . S
H433 C447 0.931 . S
H434 C449 0.930 . S
C435 H423 0.930 . S
C435 C436 1.399 1_545 S
C435 C440 1.399 . S
C436 C435 1.399 1_565 S
C436 C437 1.376 . S
C437 H424 0.930 . S
C437 C436 1.376 . S
C437 C438 1.388 . S
C438 H425 0.930 . S
C438 C437 1.388 . S
C438 C439 1.390 . S
C439 C438 1.390 . S
C439 C440 1.394 1_565 S
C439 C445 1.472 . S
C440 C435 1.399 . S
C440 C439 1.394 1_545 S
C440 C441 1.516 . S
C441 C440 1.516 . S
C441 C442 1.502 . S
C441 C443 1.561 . S
C441 C444 1.526 . S
C442 H426 0.959 . S
C442 H427 0.959 . S
C442 H428 0.961 . S
C442 C441 1.502 . S
C443 H429 0.960 . S
C443 H430 0.961 . S
C443 H431 0.959 . S
C443 C441 1.561 . S
C444 C441 1.526 . S
C444 C445 1.376 1_545 S
C444 C449 1.390 . S
C445 C439 1.472 . S
C445 C444 1.376 1_565 S
C445 C446 1.409 . S
C446 H432 0.929 . S
C446 C445 1.409 . S
C446 C447 1.385 . S
C447 H433 0.931 . S
C447 C446 1.385 . S
C447 C448 1.389 1_565 S
C448 C447 1.389 1_545 S
C448 C449 1.387 . S
C449 H434 0.930 . S
C449 C444 1.390 . S
C449 C448 1.387 . S
H450 C462 0.930 1_554 S
H451 C464 0.930 . S
H452 C465 0.930 . S
H453 C469 0.959 1_556 S
H454 C469 0.959 . S
H455 C469 0.961 . S
H456 C470 0.960 . S
H457 C470 0.961 . S
H458 C470 0.959 . S
H459 C473 0.929 . S
H460 C474 0.931 . S
H461 C476 0.930 . S
C462 H450 0.930 1_556 S
C462 C463 1.399 . S
C462 C467 1.399 . S
C463 C462 1.399 . S
C463 C464 1.376 . S
C464 H451 0.930 . S
C464 C463 1.376 . S
C464 C465 1.388 . S
C465 H452 0.930 . S
C465 C464 1.388 . S
C465 C466 1.390 . S
C466 C465 1.390 . S
C466 C467 1.394 . S
C466 C472 1.465 . S
C467 C462 1.399 . S
C467 C466 1.394 . S
C467 C468 1.516 1_556 S
C468 C467 1.516 1_554 S
C468 C469 1.502 . S
C468 C470 1.561 . S
C468 C471 1.526 1_554 S
C469 H453 0.959 1_554 S
C469 H454 0.959 . S
C469 H455 0.961 . S
C469 C468 1.502 . S
C470 H456 0.960 . S
C470 H457 0.961 . S
C470 H458 0.959 . S
C470 C468 1.561 . S
C471 C468 1.526 1_556 S
C471 C472 1.396 . S
C471 C476 1.390 1_556 S
C472 C466 1.465 . S
C472 C471 1.396 . S
C472 C473 1.399 . S
C473 H459 0.929 . S
C473 C472 1.399 . S
C473 C474 1.385 . S
C474 H460 0.931 . S
C474 C473 1.385 . S
C474 C475 1.389 . S
C475 C474 1.389 . S
C475 C476 1.387 1_556 S
C476 H461 0.930 . S
C476 C471 1.390 1_554 S
C476 C475 1.387 1_554 S
H477 C489 0.930 . S
H478 C491 0.930 . S
H479 C492 0.930 . S
H480 C496 0.959 . S
H481 C496 0.959 . S
H482 C496 0.961 . S
H483 C497 0.960 . S
H484 C497 0.961 . S
H485 C497 0.959 . S
H486 C500 0.929 . S
H487 C501 0.931 . S
H488 C503 0.930 . S
C489 H477 0.930 . S
C489 C490 1.399 . S
C489 C494 1.399 . S
C490 C489 1.399 . S
C490 C491 1.376 . S
C491 H478 0.930 . S
C491 C490 1.376 . S
C491 C492 1.388 . S
C492 H479 0.930 . S
C492 C491 1.388 . S
C492 C493 1.390 . S
C493 C492 1.390 . S
C493 C494 1.394 . S
C493 C499 1.465 . S
C494 C489 1.399 . S
C494 C493 1.394 . S
C494 C495 1.516 . S
C495 C494 1.516 . S
C495 C496 1.502 . S
C495 C497 1.561 . S
C495 C498 1.526 . S
C496 H480 0.959 . S
C496 H481 0.959 . S
C496 H482 0.961 . S
C496 C495 1.502 . S
C497 H483 0.960 . S
C497 H484 0.961 . S
C497 H485 0.959 . S
C497 C495 1.561 . S
C498 C495 1.526 . S
C498 C499 1.396 . S
C498 C503 1.390 . S
C499 C493 1.465 . S
C499 C498 1.396 . S
C499 C500 1.399 . S
C500 H486 0.929 . S
C500 C499 1.399 . S
C500 C501 1.385 . S
C501 H487 0.931 . S
C501 C500 1.385 . S
C501 C502 1.389 . S
C502 C501 1.389 . S
C502 C503 1.387 . S
C503 H488 0.930 . S
C503 C498 1.390 . S
C503 C502 1.387 . S
H504 C516 0.930 . S
H505 C518 0.930 . S
H506 C519 0.930 . S
H507 C523 0.959 . S
H508 C523 0.959 . S
H509 C523 0.961 . S
H510 C524 0.960 . S
H511 C524 0.961 . S
H512 C524 0.959 1_455 S
H513 C527 0.929 . S
H514 C528 0.931 . S
H515 C530 0.930 1_655 S
C516 H504 0.930 . S
C516 C517 1.399 . S
C516 C521 1.399 . S
C517 C516 1.399 . S
C517 C518 1.376 . S
C518 H505 0.930 . S
C518 C517 1.376 . S
C518 C519 1.388 . S
C519 H506 0.930 . S
C519 C518 1.388 . S
C519 C520 1.390 . S
C520 C519 1.390 . S
C520 C521 1.394 . S
C520 C526 1.465 . S
C521 C516 1.399 . S
C521 C520 1.394 . S
C521 C522 1.516 . S
C522 C521 1.516 . S
C522 C523 1.502 1_455 S
C522 C524 1.561 1_455 S
C522 C525 1.526 . S
C523 H507 0.959 . S
C523 H508 0.959 . S
C523 H509 0.961 . S
C523 C522 1.502 1_655 S
C524 H510 0.960 . S
C524 H511 0.961 . S
C524 H512 0.959 1_655 S
C524 C522 1.561 1_655 S
C525 C522 1.526 . S
C525 C526 1.396 . S
C525 C530 1.390 . S
C526 C520 1.465 . S
C526 C525 1.396 . S
C526 C527 1.399 . S
C527 H513 0.929 . S
C527 C526 1.399 . S
C527 C528 1.385 . S
C528 H514 0.931 . S
C528 C527 1.385 . S
C528 C529 1.389 . S
C529 C528 1.389 . S
C529 C530 1.387 . S
C530 H515 0.930 1_455 S
C530 C525 1.390 . S
C530 C529 1.387 . S
H531 C543 0.930 . S
H532 C545 0.930 . S
H533 C546 0.930 . S
H534 C550 0.959 . S
H535 C550 0.959 . S
H536 C550 0.961 . S
H537 C551 0.960 . S
H538 C551 0.961 . S
H539 C551 0.959 . S
H540 C554 0.929 . S
H541 C555 0.931 . S
H542 C557 0.932 . S
C543 H531 0.930 . S
C543 C544 1.399 . S
C543 C548 1.399 . S
C544 C543 1.399 . S
C544 C545 1.376 . S
C545 H532 0.930 . S
C545 C544 1.376 . S
C545 C546 1.388 . S
C546 H533 0.930 . S
C546 C545 1.388 . S
C546 C547 1.390 . S
C547 C546 1.390 . S
C547 C548 1.394 . S
C547 C553 1.465 . S
C548 C543 1.399 . S
C548 C547 1.394 . S
C548 C549 1.516 . S
C549 C548 1.516 . S
C549 C550 1.502 1_556 S
C549 C551 1.561 . S
C549 C552 1.526 . S
C550 H534 0.959 . S
C550 H535 0.959 . S
C550 H536 0.961 . S
C550 C549 1.502 1_554 S
C551 H537 0.960 . S
C551 H538 0.961 . S
C551 H539 0.959 . S
C551 C549 1.561 . S
C552 C549 1.526 . S
C552 C553 1.396 . S
C552 C557 1.395 . S
C553 C547 1.465 . S
C553 C552 1.396 . S
C553 C554 1.399 1_556 S
C554 H540 0.929 . S
C554 C553 1.399 1_554 S
C554 C555 1.385 . S
C555 H541 0.931 . S
C555 C554 1.385 . S
C555 C556 1.389 . S
C556 C555 1.389 . S
C556 C557 1.381 1_554 S
C557 H542 0.932 . S
C557 C552 1.395 . S
C557 C556 1.381 1_556 S
H558 C570 0.930 . S
H559 C572 0.930 . S
H560 C573 0.930 . S
H561 C577 0.959 . S
H562 C577 0.959 . S
H563 C577 0.961 . S
H564 C578 0.960 . S
H565 C578 0.961 . S
H566 C578 0.959 . S
H567 C581 0.929 . S
H568 C582 0.931 . S
H569 C584 0.930 . S
C570 H558 0.930 . S
C570 C571 1.399 . S
C570 C575 1.399 . S
C571 C570 1.399 . S
C571 C572 1.376 . S
C572 H559 0.930 . S
C572 C571 1.376 . S
C572 C573 1.388 . S
C573 H560 0.930 . S
C573 C572 1.388 . S
C573 C574 1.390 . S
C574 C573 1.390 . S
C574 C575 1.394 . S
C574 C580 1.465 . S
C575 C570 1.399 . S
C575 C574 1.394 . S
C575 C576 1.516 . S
C576 C575 1.516 . S
C576 C577 1.502 . S
C576 C578 1.561 . S
C576 C579 1.526 . S
C577 H561 0.959 . S
C577 H562 0.959 . S
C577 H563 0.961 . S
C577 C576 1.502 . S
C578 H564 0.960 . S
C578 H565 0.961 . S
C578 H566 0.959 . S
C578 C576 1.561 . S
C579 C576 1.526 . S
C579 C580 1.396 . S
C579 C584 1.390 . S
C580 C574 1.465 . S
C580 C579 1.396 . S
C580 C581 1.399 . S
C581 H567 0.929 . S
C581 C580 1.399 . S
C581 C582 1.385 . S
C582 H568 0.931 . S
C582 C581 1.385 . S
C582 C583 1.389 . S
C583 C582 1.389 . S
C583 C584 1.387 . S
C584 H569 0.930 . S
C584 C579 1.390 . S
C584 C583 1.387 . S
H585 C597 0.930 . S
H586 C599 0.930 . S
H587 C600 0.930 . S
H588 C604 0.959 . S
H589 C604 0.959 . S
H590 C604 0.961 . S
H591 C605 0.960 . S
H592 C605 0.961 . S
H593 C605 0.959 . S
H594 C608 0.929 . S
H595 C609 0.931 . S
H596 C611 0.930 . S
C597 H585 0.930 . S
C597 C598 1.399 . S
C597 C602 1.399 . S
C598 C597 1.399 . S
C598 C599 1.376 . S
C599 H586 0.930 . S
C599 C598 1.376 . S
C599 C600 1.388 . S
C600 H587 0.930 . S
C600 C599 1.388 . S
C600 C601 1.390 . S
C601 C600 1.390 . S
C601 C602 1.394 . S
C601 C607 1.465 . S
C602 C597 1.399 . S
C602 C601 1.394 . S
C602 C603 1.516 . S
C603 C602 1.516 . S
C603 C604 1.502 . S
C603 C605 1.561 . S
C603 C606 1.526 . S
C604 H588 0.959 . S
C604 H589 0.959 . S
C604 H590 0.961 . S
C604 C603 1.502 . S
C605 H591 0.960 . S
C605 H592 0.961 . S
C605 H593 0.959 . S
C605 C603 1.561 . S
C606 C603 1.526 . S
C606 C607 1.396 . S
C606 C611 1.390 . S
C607 C601 1.465 . S
C607 C606 1.396 . S
C607 C608 1.399 . S
C608 H594 0.929 . S
C608 C607 1.399 . S
C608 C609 1.385 . S
C609 H595 0.931 . S
C609 C608 1.385 . S
C609 C610 1.389 . S
C610 C609 1.389 . S
C610 C611 1.387 . S
C611 H596 0.930 . S
C611 C606 1.390 . S
C611 C610 1.387 . S
H612 C624 0.930 . S
H613 C626 0.930 1_545 S
H614 C627 0.930 . S
H615 C631 0.959 . S
H616 C631 0.959 . S
H617 C631 0.961 . S
H618 C632 0.960 . S
H619 C632 0.961 . S
H620 C632 0.959 . S
H621 C635 0.929 . S
H622 C636 0.931 . S
H623 C638 0.930 . S
C624 H612 0.930 . S
C624 C625 1.399 . S
C624 C629 1.399 . S
C625 C624 1.399 . S
C625 C626 1.376 . S
C626 H613 0.930 1_565 S
C626 C625 1.376 . S
C626 C627 1.388 1_565 S
C627 H614 0.930 . S
C627 C626 1.388 1_545 S
C627 C628 1.390 1_545 S
C628 C627 1.390 1_565 S
C628 C629 1.394 . S
C628 C634 1.465 1_565 S
C629 C624 1.399 . S
C629 C628 1.394 . S
C629 C630 1.516 . S
C630 C629 1.516 . S
C630 C631 1.502 1_655 S
C630 C632 1.561 . S
C630 C633 1.526 . S
C631 H615 0.959 . S
C631 H616 0.959 . S
C631 H617 0.961 . S
C631 C630 1.502 1_455 S
C632 H618 0.960 . S
C632 H619 0.961 . S
C632 H620 0.959 . S
C632 C630 1.561 . S
C633 C630 1.526 . S
C633 C634 1.396 1_565 S
C633 C638 1.390 . S
C634 C628 1.465 1_545 S
C634 C633 1.396 1_545 S
C634 C635 1.399 . S
C635 H621 0.929 . S
C635 C634 1.399 . S
C635 C636 1.385 . S
C636 H622 0.931 . S
C636 C635 1.385 . S
C636 C637 1.389 . S
C637 C636 1.389 . S
C637 C638 1.387 1_545 S
C638 H623 0.930 . S
C638 C633 1.390 . S
C638 C637 1.387 1_565 S
H639 C651 0.930 . S
H640 C653 0.930 . S
H641 C654 0.930 . S
H642 C658 0.959 . S
H643 C658 0.959 . S
H644 C658 0.961 . S
H645 C659 0.960 . S
H646 C659 0.961 . S
H647 C659 0.959 . S
H648 C662 0.929 . S
H649 C663 0.931 . S
H650 C665 0.930 . S
C651 H639 0.930 . S
C651 C652 1.399 . S
C651 C656 1.399 . S
C652 C651 1.399 . S
C652 C653 1.376 . S
C653 H640 0.930 . S
C653 C652 1.376 . S
C653 C654 1.388 . S
C654 H641 0.930 . S
C654 C653 1.388 . S
C654 C655 1.390 . S
C655 C654 1.390 . S
C655 C656 1.394 . S
C655 C661 1.465 . S
C656 C651 1.399 . S
C656 C655 1.394 . S
C656 C657 1.516 . S
C657 C656 1.516 . S
C657 C658 1.502 . S
C657 C659 1.561 . S
C657 C660 1.526 . S
C658 H642 0.959 . S
C658 H643 0.959 . S
C658 H644 0.961 . S
C658 C657 1.502 . S
C659 H645 0.960 . S
C659 H646 0.961 . S
C659 H647 0.959 . S
C659 C657 1.561 . S
C660 C657 1.526 . S
C660 C661 1.396 . S
C660 C665 1.390 . S
C661 C655 1.465 . S
C661 C660 1.396 . S
C661 C662 1.399 . S
C662 H648 0.929 . S
C662 C661 1.399 . S
C662 C663 1.385 . S
C663 H649 0.931 . S
C663 C662 1.385 . S
C663 C664 1.389 . S
C664 C663 1.389 . S
C664 C665 1.387 . S
C665 H650 0.930 . S
C665 C660 1.390 . S
C665 C664 1.387 . S
H666 C678 0.930 . S
H667 C680 0.930 . S
H668 C681 0.930 . S
H669 C685 0.959 . S
H670 C685 0.959 . S
H671 C685 0.961 . S
H672 C686 0.960 . S
H673 C686 0.961 . S
H674 C686 0.959 . S
H675 C689 0.929 . S
H676 C690 0.931 . S
H677 C692 0.930 . S
C678 H666 0.930 . S
C678 C679 1.399 . S
C678 C683 1.399 . S
C679 C678 1.399 . S
C679 C680 1.376 . S
C680 H667 0.930 . S
C680 C679 1.376 . S
C680 C681 1.388 . S
C681 H668 0.930 . S
C681 C680 1.388 . S
C681 C682 1.390 . S
C682 C681 1.390 . S
C682 C683 1.394 . S
C682 C688 1.465 . S
C683 C678 1.399 . S
C683 C682 1.394 . S
C683 C684 1.516 . S
C684 C683 1.516 . S
C684 C685 1.502 . S
C684 C686 1.561 . S
C684 C687 1.526 . S
C685 H669 0.959 . S
C685 H670 0.959 . S
C685 H671 0.961 . S
C685 C684 1.502 . S
C686 H672 0.960 . S
C686 H673 0.961 . S
C686 H674 0.959 . S
C686 C684 1.561 . S
C687 C684 1.526 . S
C687 C688 1.396 . S
C687 C692 1.390 . S
C688 C682 1.465 . S
C688 C687 1.396 . S
C688 C689 1.399 . S
C689 H675 0.929 . S
C689 C688 1.399 . S
C689 C690 1.385 . S
C690 H676 0.931 . S
C690 C689 1.385 . S
C690 C691 1.389 . S
C691 C690 1.389 . S
C691 C692 1.387 . S
C692 H677 0.930 . S
C692 C687 1.390 . S
C692 C691 1.387 . S
H693 C705 0.930 . S
H694 C707 0.930 . S
H695 C708 0.930 . S
H696 C712 0.959 . S
H697 C712 0.959 . S
H698 C712 0.961 . S
H699 C713 0.960 . S
H700 C713 0.961 . S
H701 C713 0.959 . S
H702 C716 0.929 . S
H703 C717 0.931 . S
H704 C719 0.930 . S
C705 H693 0.930 . S
C705 C706 1.399 . S
C705 C710 1.399 . S
C706 C705 1.399 . S
C706 C707 1.376 . S
C707 H694 0.930 . S
C707 C706 1.376 . S
C707 C708 1.388 . S
C708 H695 0.930 . S
C708 C707 1.388 . S
C708 C709 1.390 . S
C709 C708 1.390 . S
C709 C710 1.394 . S
C709 C715 1.465 . S
C710 C705 1.399 . S
C710 C709 1.394 . S
C710 C711 1.516 . S
C711 C710 1.516 . S
C711 C712 1.502 . S
C711 C713 1.561 . S
C711 C714 1.526 . S
C712 H696 0.959 . S
C712 H697 0.959 . S
C712 H698 0.961 . S
C712 C711 1.502 . S
C713 H699 0.960 . S
C713 H700 0.961 . S
C713 H701 0.959 . S
C713 C711 1.561 . S
C714 C711 1.526 . S
C714 C715 1.396 . S
C714 C719 1.390 . S
C715 C709 1.465 . S
C715 C714 1.396 . S
C715 C716 1.399 . S
C716 H702 0.929 . S
C716 C715 1.399 . S
C716 C717 1.385 . S
C717 H703 0.931 . S
C717 C716 1.385 . S
C717 C718 1.389 . S
C718 C717 1.389 . S
C718 C719 1.387 . S
C719 H704 0.930 . S
C719 C714 1.390 . S
C719 C718 1.387 . S
H720 C732 0.930 . S
H721 C734 0.930 . S
H722 C735 0.930 . S
H723 C739 0.959 . S
H724 C739 0.959 . S
H725 C739 0.961 . S
H726 C740 0.960 . S
H727 C740 0.961 . S
H728 C740 0.959 . S
H729 C743 0.929 . S
H730 C744 0.931 . S
H731 C746 0.930 . S
C732 H720 0.930 . S
C732 C733 1.399 . S
C732 C737 1.399 . S
C733 C732 1.399 . S
C733 C734 1.376 1_565 S
C734 H721 0.930 . S
C734 C733 1.376 1_545 S
C734 C735 1.388 . S
C735 H722 0.930 . S
C735 C734 1.388 . S
C735 C736 1.390 . S
C736 C735 1.390 . S
C736 C737 1.394 1_545 S
C736 C742 1.465 1_556 S
C737 C732 1.399 . S
C737 C736 1.394 1_565 S
C737 C738 1.516 . S
C738 C737 1.516 . S
C738 C739 1.502 . S
C738 C740 1.561 1_556 S
C738 C741 1.526 1_556 S
C739 H723 0.959 . S
C739 H724 0.959 . S
C739 H725 0.961 . S
C739 C738 1.502 . S
C740 H726 0.960 . S
C740 H727 0.961 . S
C740 H728 0.959 . S
C740 C738 1.561 1_554 S
C741 C738 1.526 1_554 S
C741 C742 1.396 1_565 S
C741 C746 1.390 . S
C742 C736 1.465 1_554 S
C742 C741 1.396 1_545 S
C742 C743 1.399 . S
C743 H729 0.929 . S
C743 C742 1.399 . S
C743 C744 1.385 . S
C744 H730 0.931 . S
C744 C743 1.385 . S
C744 C745 1.389 . S
C745 C744 1.389 . S
C745 C746 1.387 1_545 S
C746 H731 0.930 . S
C746 C741 1.390 . S
C746 C745 1.387 1_565 S
H747 C759 0.930 . S
H748 C761 0.930 . S
H749 C762 0.930 . S
H750 C766 0.959 . S
H751 C766 0.959 . S
H752 C766 0.961 . S
H753 C767 0.960 . S
H754 C767 0.961 . S
H755 C767 0.959 . S
H756 C770 0.929 . S
H757 C771 0.931 . S
H758 C773 0.930 . S
C759 H747 0.930 . S
C759 C760 1.399 . S
C759 C764 1.399 . S
C760 C759 1.399 . S
C760 C761 1.376 . S
C761 H748 0.930 . S
C761 C760 1.376 . S
C761 C762 1.388 . S
C762 H749 0.930 . S
C762 C761 1.388 . S
C762 C763 1.390 . S
C763 C762 1.390 . S
C763 C764 1.394 . S
C763 C769 1.465 . S
C764 C759 1.399 . S
C764 C763 1.394 . S
C764 C765 1.516 . S
C765 C764 1.516 . S
C765 C766 1.502 . S
C765 C767 1.561 . S
C765 C768 1.526 . S
C766 H750 0.959 . S
C766 H751 0.959 . S
C766 H752 0.961 . S
C766 C765 1.502 . S
C767 H753 0.960 . S
C767 H754 0.961 . S
C767 H755 0.959 . S
C767 C765 1.561 . S
C768 C765 1.526 . S
C768 C769 1.396 . S
C768 C773 1.390 . S
C769 C763 1.465 . S
C769 C768 1.396 . S
C769 C770 1.399 . S
C770 H756 0.929 . S
C770 C769 1.399 . S
C770 C771 1.385 . S
C771 H757 0.931 . S
C771 C770 1.385 . S
C771 C772 1.389 . S
C772 C771 1.389 . S
C772 C773 1.387 . S
C773 H758 0.930 . S
C773 C768 1.390 . S
C773 C772 1.387 . S
H774 C786 0.930 . S
H775 C788 0.930 . S
H776 C789 0.930 . S
H777 C793 0.959 . S
H778 C793 0.959 . S
H779 C793 0.961 . S
H780 C794 0.960 . S
H781 C794 0.961 1_556 S
H782 C794 0.959 . S
H783 C797 0.929 . S
H784 C798 0.931 . S
H785 C800 0.930 . S
C786 H774 0.930 . S
C786 C787 1.399 . S
C786 C791 1.399 . S
C787 C786 1.399 . S
C787 C788 1.376 . S
C788 H775 0.930 . S
C788 C787 1.376 . S
C788 C789 1.388 . S
C789 H776 0.930 . S
C789 C788 1.388 . S
C789 C790 1.390 . S
C790 C789 1.390 . S
C790 C791 1.394 . S
C790 C796 1.465 . S
C791 C786 1.399 . S
C791 C790 1.394 . S
C791 C792 1.516 . S
C792 C791 1.516 . S
C792 C793 1.502 . S
C792 C794 1.561 . S
C792 C795 1.526 . S
C793 H777 0.959 . S
C793 H778 0.959 . S
C793 H779 0.961 . S
C793 C792 1.502 . S
C794 H780 0.960 . S
C794 H781 0.961 1_554 S
C794 H782 0.959 . S
C794 C792 1.561 . S
C795 C792 1.526 . S
C795 C796 1.396 . S
C795 C800 1.390 . S
C796 C790 1.465 . S
C796 C795 1.396 . S
C796 C797 1.399 . S
C797 H783 0.929 . S
C797 C796 1.399 . S
C797 C798 1.385 . S
C798 H784 0.931 . S
C798 C797 1.385 . S
C798 C799 1.389 . S
C799 C798 1.389 . S
C799 C800 1.387 . S
C800 H785 0.930 . S
C800 C795 1.390 . S
C800 C799 1.387 . S
H801 C813 0.930 . S
H802 C815 0.930 . S
H803 C816 0.930 . S
H804 C820 0.959 . S
H805 C820 0.959 . S
H806 C820 0.961 . S
H807 C821 0.960 . S
H808 C821 0.961 . S
H809 C821 0.959 . S
H810 C824 0.929 . S
H811 C825 0.931 . S
H812 C827 0.930 . S
C813 H801 0.930 . S
C813 C814 1.399 . S
C813 C818 1.399 . S
C814 C813 1.399 . S
C814 C815 1.376 . S
C815 H802 0.930 . S
C815 C814 1.376 . S
C815 C816 1.388 . S
C816 H803 0.930 . S
C816 C815 1.388 . S
C816 C817 1.390 . S
C817 C816 1.390 . S
C817 C818 1.394 . S
C817 C823 1.465 . S
C818 C813 1.399 . S
C818 C817 1.394 . S
C818 C819 1.516 . S
C819 C818 1.516 . S
C819 C820 1.502 . S
C819 C821 1.561 . S
C819 C822 1.526 . S
C820 H804 0.959 . S
C820 H805 0.959 . S
C820 H806 0.961 . S
C820 C819 1.502 . S
C821 H807 0.960 . S
C821 H808 0.961 . S
C821 H809 0.959 . S
C821 C819 1.561 . S
C822 C819 1.526 . S
C822 C823 1.396 . S
C822 C827 1.390 . S
C823 C817 1.465 . S
C823 C822 1.396 . S
C823 C824 1.399 . S
C824 H810 0.929 . S
C824 C823 1.399 . S
C824 C825 1.385 . S
C825 H811 0.931 . S
C825 C824 1.385 . S
C825 C826 1.389 . S
C826 C825 1.389 . S
C826 C827 1.387 . S
C827 H812 0.930 . S
C827 C822 1.390 . S
C827 C826 1.387 . S
H828 C840 0.930 . S
H829 C842 0.930 . S
H830 C843 0.930 . S
H831 C847 0.959 . S
H832 C847 0.959 . S
H833 C847 0.961 . S
H834 C848 0.960 1_554 S
H835 C848 0.961 1_554 S
H836 C848 0.959 . S
H837 C851 0.929 . S
H838 C852 0.931 . S
H839 C854 0.930 1_554 S
C840 H828 0.930 . S
C840 C841 1.399 . S
C840 C845 1.399 . S
C841 C840 1.399 . S
C841 C842 1.376 . S
C842 H829 0.930 . S
C842 C841 1.376 . S
C842 C843 1.388 . S
C843 H830 0.930 . S
C843 C842 1.388 . S
C843 C844 1.390 . S
C844 C843 1.390 . S
C844 C845 1.394 . S
C844 C850 1.465 . S
C845 C840 1.399 . S
C845 C844 1.394 . S
C845 C846 1.516 . S
C846 C845 1.516 . S
C846 C847 1.502 1_556 S
C846 C848 1.561 . S
C846 C849 1.526 . S
C847 H831 0.959 . S
C847 H832 0.959 . S
C847 H833 0.961 . S
C847 C846 1.502 1_554 S
C848 H834 0.960 1_556 S
C848 H835 0.961 1_556 S
C848 H836 0.959 . S
C848 C846 1.561 . S
C849 C846 1.526 . S
C849 C850 1.396 . S
C849 C854 1.390 . S
C850 C844 1.465 . S
C850 C849 1.396 . S
C850 C851 1.399 . S
C851 H837 0.929 . S
C851 C850 1.399 . S
C851 C852 1.385 . S
C852 H838 0.931 . S
C852 C851 1.385 . S
C852 C853 1.389 . S
C853 C852 1.389 . S
C853 C854 1.387 . S
C854 H839 0.930 1_556 S
C854 C849 1.390 . S
C854 C853 1.387 . S
H855 C867 0.930 . S
H856 C869 0.930 . S
H857 C870 0.930 . S
H858 C874 0.959 . S
H859 C874 0.959 . S
H860 C874 0.961 . S
H861 C875 0.960 . S
H862 C875 0.961 . S
H863 C875 0.959 . S
H864 C878 0.929 . S
H865 C879 0.931 . S
H866 C881 0.930 . S
C867 H855 0.930 . S
C867 C868 1.399 . S
C867 C872 1.399 . S
C868 C867 1.399 . S
C868 C869 1.376 . S
C869 H856 0.930 . S
C869 C868 1.376 . S
C869 C870 1.388 . S
C870 H857 0.930 . S
C870 C869 1.388 . S
C870 C871 1.390 . S
C871 C870 1.390 . S
C871 C872 1.394 . S
C871 C877 1.465 . S
C872 C867 1.399 . S
C872 C871 1.394 . S
C872 C873 1.516 . S
C873 C872 1.516 . S
C873 C874 1.502 . S
C873 C875 1.561 . S
C873 C876 1.526 . S
C874 H858 0.959 . S
C874 H859 0.959 . S
C874 H860 0.961 . S
C874 C873 1.502 . S
C875 H861 0.960 . S
C875 H862 0.961 . S
C875 H863 0.959 . S
C875 C873 1.561 . S
C876 C873 1.526 . S
C876 C877 1.396 . S
C876 C881 1.390 . S
C877 C871 1.465 . S
C877 C876 1.396 . S
C877 C878 1.399 . S
C878 H864 0.929 . S
C878 C877 1.399 . S
C878 C879 1.385 . S
C879 H865 0.931 . S
C879 C878 1.385 . S
C879 C880 1.389 . S
C880 C879 1.389 . S
C880 C881 1.387 . S
C881 H866 0.930 . S
C881 C876 1.390 . S
C881 C880 1.387 . S
H882 C894 0.930 . S
H883 C896 0.930 . S
H884 C897 0.930 . S
H885 C901 0.959 . S
H886 C901 0.959 . S
H887 C901 0.961 . S
H888 C902 0.960 . S
H889 C902 0.961 . S
H890 C902 0.959 . S
H891 C905 0.929 . S
H892 C906 0.931 . S
H893 C908 0.930 . S
C894 H882 0.930 . S
C894 C895 1.399 . S
C894 C899 1.399 . S
C895 C894 1.399 . S
C895 C896 1.376 . S
C896 H883 0.930 . S
C896 C895 1.376 . S
C896 C897 1.388 . S
C897 H884 0.930 . S
C897 C896 1.388 . S
C897 C898 1.390 . S
C898 C897 1.390 . S
C898 C899 1.394 . S
C898 C904 1.465 . S
C899 C894 1.399 . S
C899 C898 1.394 . S
C899 C900 1.516 . S
C900 C899 1.516 . S
C900 C901 1.502 . S
C900 C902 1.561 . S
C900 C903 1.526 . S
C901 H885 0.959 . S
C901 H886 0.959 . S
C901 H887 0.961 . S
C901 C900 1.502 . S
C902 H888 0.960 . S
C902 H889 0.961 . S
C902 H890 0.959 . S
C902 C900 1.561 . S
C903 C900 1.526 . S
C903 C904 1.396 . S
C903 C908 1.390 . S
C904 C898 1.465 . S
C904 C903 1.396 . S
C904 C905 1.399 . S
C905 H891 0.929 . S
C905 C904 1.399 . S
C905 C906 1.385 . S
C906 H892 0.931 . S
C906 C905 1.385 . S
C906 C907 1.389 . S
C907 C906 1.389 . S
C907 C908 1.387 . S
C908 H893 0.930 . S
C908 C903 1.390 . S
C908 C907 1.387 . S
H909 C921 0.930 . S
H910 C923 0.930 . S
H911 C924 0.930 . S
H912 C928 0.959 . S
H913 C928 0.959 . S
H914 C928 0.961 . S
H915 C929 0.960 . S
H916 C929 0.961 . S
H917 C929 0.959 . S
H918 C932 0.929 . S
H919 C933 0.931 . S
H920 C935 0.930 . S
C921 H909 0.930 . S
C921 C922 1.399 . S
C921 C926 1.399 . S
C922 C921 1.399 . S
C922 C923 1.376 . S
C923 H910 0.930 . S
C923 C922 1.376 . S
C923 C924 1.388 . S
C924 H911 0.930 . S
C924 C923 1.388 . S
C924 C925 1.390 . S
C925 C924 1.390 . S
C925 C926 1.394 . S
C925 C931 1.465 . S
C926 C921 1.399 . S
C926 C925 1.394 . S
C926 C927 1.516 . S
C927 C926 1.516 . S
C927 C928 1.502 . S
C927 C929 1.561 . S
C927 C930 1.526 . S
C928 H912 0.959 . S
C928 H913 0.959 . S
C928 H914 0.961 . S
C928 C927 1.502 . S
C929 H915 0.960 . S
C929 H916 0.961 . S
C929 H917 0.959 . S
C929 C927 1.561 . S
C930 C927 1.526 . S
C930 C931 1.396 . S
C930 C935 1.390 . S
C931 C925 1.465 . S
C931 C930 1.396 . S
C931 C932 1.399 . S
C932 H918 0.929 . S
C932 C931 1.399 . S
C932 C933 1.385 . S
C933 H919 0.931 . S
C933 C932 1.385 . S
C933 C934 1.389 . S
C934 C933 1.389 . S
C934 C935 1.387 . S
C935 H920 0.930 . S
C935 C930 1.390 . S
C935 C934 1.387 . S
C301 C6 2.615 . S
C313 C152 2.622 . S
C328 C21 2.849 . S
C340 C194 2.879 1_556 S
C367 C224 0.452 . S
C355 C49 0.479 . S
C382 C68 0.862 . S
C394 C258 0.844 . S
C421 C215 2.530 . S
C409 C2 2.523 . S
C448 C169 1.643 . S
C436 C30 1.392 . S
C475 C262 1.038 . S
C463 C40 0.990 . S
C502 C228 1.056 . S
C490 C63 1.043 . S
C517 C11 1.966 . S
C529 C283 2.212 . S
C556 C190 1.276 . S
C544 C44 1.240 . S
C571 C59 0.843 . S
C583 C165 0.851 . S
C598 C25 2.468 . S
C610 C249 2.475 . S
C637 C181 2.810 . S
C625 C82 2.774 . S
C652 C101 2.568 . S
C664 C203 2.571 . S
C679 C125 0.782 . S
C691 C233 0.784 . S
C706 C144 0.770 . S
C718 C267 0.605 . S
C733 C87 1.520 . S
C745 C186 1.644 . S
C772 C160 2.495 . S
C760 C97 2.482 . S
C799 C271 0.968 . S
C787 C120 0.977 . S
C826 C237 1.169 . S
C814 C135 1.133 . S
C841 C78 2.571 . S
C853 C254 2.575 1_556 S
C880 C199 0.800 . S
C868 C116 0.866 . S
C907 C156 1.250 . S
C895 C139 1.255 . S
C922 C106 2.037 . S
C934 C220 2.178 . S
