# Generated by pormake.
# Topology llk, (3,12)-cn, num edge types: 1
# Building blocks:
#     Node 0, Type 0, BuildingBlock: BELTOD_clean_linker_0, # of connection points: 3
#     Node 1, Type 0, BuildingBlock: BELTOD_clean_linker_0, # of connection points: 3
#     Node 2, Type 0, BuildingBlock: BELTOD_clean_linker_0, # of connection points: 3
#     Node 3, Type 0, BuildingBlock: BELTOD_clean_linker_0, # of connection points: 3
#     Node 4, Type 0, BuildingBlock: BELTOD_clean_linker_0, # of connection points: 3
#     Node 5, Type 0, BuildingBlock: BELTOD_clean_linker_0, # of connection points: 3
#     Node 6, Type 0, BuildingBlock: BELTOD_clean_linker_0, # of connection points: 3
#     Node 7, Type 0, BuildingBlock: BELTOD_clean_linker_0, # of connection points: 3
#     Node 8, Type 0, BuildingBlock: BELTOD_clean_linker_0, # of connection points: 3
#     Node 9, Type 0, BuildingBlock: BELTOD_clean_linker_0, # of connection points: 3
#     Node 10, Type 0, BuildingBlock: BELTOD_clean_linker_0, # of connection points: 3
#     Node 11, Type 0, BuildingBlock: BELTOD_clean_linker_0, # of connection points: 3
#     Node 12, Type 0, BuildingBlock: BELTOD_clean_linker_0, # of connection points: 3
#     Node 13, Type 0, BuildingBlock: BELTOD_clean_linker_0, # of connection points: 3
#     Node 14, Type 0, BuildingBlock: BELTOD_clean_linker_0, # of connection points: 3
#     Node 15, Type 0, BuildingBlock: BELTOD_clean_linker_0, # of connection points: 3
#     Node 16, Type 0, BuildingBlock: BELTOD_clean_linker_0, # of connection points: 3
#     Node 17, Type 0, BuildingBlock: BELTOD_clean_linker_0, # of connection points: 3
#     Node 18, Type 0, BuildingBlock: BELTOD_clean_linker_0, # of connection points: 3
#     Node 19, Type 0, BuildingBlock: BELTOD_clean_linker_0, # of connection points: 3
#     Node 20, Type 0, BuildingBlock: BELTOD_clean_linker_0, # of connection points: 3
#     Node 21, Type 0, BuildingBlock: BELTOD_clean_linker_0, # of connection points: 3
#     Node 22, Type 0, BuildingBlock: BELTOD_clean_linker_0, # of connection points: 3
#     Node 23, Type 0, BuildingBlock: BELTOD_clean_linker_0, # of connection points: 3
#     Node 24, Type 1, BuildingBlock: QEWDON_clean_sbu_0, # of connection points: 12
#     Node 25, Type 1, BuildingBlock: QEWDON_clean_sbu_0, # of connection points: 12
#     Node 26, Type 1, BuildingBlock: QEWDON_clean_sbu_0, # of connection points: 12
#     Node 27, Type 1, BuildingBlock: QEWDON_clean_sbu_0, # of connection points: 12
#     Node 28, Type 1, BuildingBlock: QEWDON_clean_sbu_0, # of connection points: 12
#     Node 29, Type 1, BuildingBlock: QEWDON_clean_sbu_0, # of connection points: 12
#     Edge 30, Type (0, 1), BuildingBlock: AJUNOK_clean_linker_0, # of connection points: 2
#     Edge 31, Type (0, 1), BuildingBlock: AJUNOK_clean_linker_0, # of connection points: 2
#     Edge 32, Type (0, 1), BuildingBlock: AJUNOK_clean_linker_0, # of connection points: 2
#     Edge 33, Type (0, 1), BuildingBlock: AJUNOK_clean_linker_0, # of connection points: 2
#     Edge 34, Type (0, 1), BuildingBlock: AJUNOK_clean_linker_0, # of connection points: 2
#     Edge 35, Type (0, 1), BuildingBlock: AJUNOK_clean_linker_0, # of connection points: 2
#     Edge 36, Type (0, 1), BuildingBlock: AJUNOK_clean_linker_0, # of connection points: 2
#     Edge 37, Type (0, 1), BuildingBlock: AJUNOK_clean_linker_0, # of connection points: 2
#     Edge 38, Type (0, 1), BuildingBlock: AJUNOK_clean_linker_0, # of connection points: 2
#     Edge 39, Type (0, 1), BuildingBlock: AJUNOK_clean_linker_0, # of connection points: 2
#     Edge 40, Type (0, 1), BuildingBlock: AJUNOK_clean_linker_0, # of connection points: 2
#     Edge 41, Type (0, 1), BuildingBlock: AJUNOK_clean_linker_0, # of connection points: 2
#     Edge 42, Type (0, 1), BuildingBlock: AJUNOK_clean_linker_0, # of connection points: 2
#     Edge 43, Type (0, 1), BuildingBlock: AJUNOK_clean_linker_0, # of connection points: 2
#     Edge 44, Type (0, 1), BuildingBlock: AJUNOK_clean_linker_0, # of connection points: 2
#     Edge 45, Type (0, 1), BuildingBlock: AJUNOK_clean_linker_0, # of connection points: 2
#     Edge 46, Type (0, 1), BuildingBlock: AJUNOK_clean_linker_0, # of connection points: 2
#     Edge 47, Type (0, 1), BuildingBlock: AJUNOK_clean_linker_0, # of connection points: 2
#     Edge 48, Type (0, 1), BuildingBlock: AJUNOK_clean_linker_0, # of connection points: 2
#     Edge 49, Type (0, 1), BuildingBlock: AJUNOK_clean_linker_0, # of connection points: 2
#     Edge 50, Type (0, 1), BuildingBlock: AJUNOK_clean_linker_0, # of connection points: 2
#     Edge 51, Type (0, 1), BuildingBlock: AJUNOK_clean_linker_0, # of connection points: 2
#     Edge 52, Type (0, 1), BuildingBlock: AJUNOK_clean_linker_0, # of connection points: 2
#     Edge 53, Type (0, 1), BuildingBlock: AJUNOK_clean_linker_0, # of connection points: 2
#     Edge 54, Type (0, 1), BuildingBlock: AJUNOK_clean_linker_0, # of connection points: 2
#     Edge 55, Type (0, 1), BuildingBlock: AJUNOK_clean_linker_0, # of connection points: 2
#     Edge 56, Type (0, 1), BuildingBlock: AJUNOK_clean_linker_0, # of connection points: 2
#     Edge 57, Type (0, 1), BuildingBlock: AJUNOK_clean_linker_0, # of connection points: 2
#     Edge 58, Type (0, 1), BuildingBlock: AJUNOK_clean_linker_0, # of connection points: 2
#     Edge 59, Type (0, 1), BuildingBlock: AJUNOK_clean_linker_0, # of connection points: 2
#     Edge 60, Type (0, 1), BuildingBlock: AJUNOK_clean_linker_0, # of connection points: 2
#     Edge 61, Type (0, 1), BuildingBlock: AJUNOK_clean_linker_0, # of connection points: 2
#     Edge 62, Type (0, 1), BuildingBlock: AJUNOK_clean_linker_0, # of connection points: 2
#     Edge 63, Type (0, 1), BuildingBlock: AJUNOK_clean_linker_0, # of connection points: 2
#     Edge 64, Type (0, 1), BuildingBlock: AJUNOK_clean_linker_0, # of connection points: 2
#     Edge 65, Type (0, 1), BuildingBlock: AJUNOK_clean_linker_0, # of connection points: 2
#     Edge 66, Type (0, 1), BuildingBlock: AJUNOK_clean_linker_0, # of connection points: 2
#     Edge 67, Type (0, 1), BuildingBlock: AJUNOK_clean_linker_0, # of connection points: 2
#     Edge 68, Type (0, 1), BuildingBlock: AJUNOK_clean_linker_0, # of connection points: 2
#     Edge 69, Type (0, 1), BuildingBlock: AJUNOK_clean_linker_0, # of connection points: 2
#     Edge 70, Type (0, 1), BuildingBlock: AJUNOK_clean_linker_0, # of connection points: 2
#     Edge 71, Type (0, 1), BuildingBlock: AJUNOK_clean_linker_0, # of connection points: 2
#     Edge 72, Type (0, 1), BuildingBlock: AJUNOK_clean_linker_0, # of connection points: 2
#     Edge 73, Type (0, 1), BuildingBlock: AJUNOK_clean_linker_0, # of connection points: 2
#     Edge 74, Type (0, 1), BuildingBlock: AJUNOK_clean_linker_0, # of connection points: 2
#     Edge 75, Type (0, 1), BuildingBlock: AJUNOK_clean_linker_0, # of connection points: 2
#     Edge 76, Type (0, 1), BuildingBlock: AJUNOK_clean_linker_0, # of connection points: 2
#     Edge 77, Type (0, 1), BuildingBlock: AJUNOK_clean_linker_0, # of connection points: 2
#     Edge 78, Type (0, 1), BuildingBlock: AJUNOK_clean_linker_0, # of connection points: 2
#     Edge 79, Type (0, 1), BuildingBlock: AJUNOK_clean_linker_0, # of connection points: 2
#     Edge 80, Type (0, 1), BuildingBlock: AJUNOK_clean_linker_0, # of connection points: 2
#     Edge 81, Type (0, 1), BuildingBlock: AJUNOK_clean_linker_0, # of connection points: 2
#     Edge 82, Type (0, 1), BuildingBlock: AJUNOK_clean_linker_0, # of connection points: 2
#     Edge 83, Type (0, 1), BuildingBlock: AJUNOK_clean_linker_0, # of connection points: 2
#     Edge 84, Type (0, 1), BuildingBlock: AJUNOK_clean_linker_0, # of connection points: 2
#     Edge 85, Type (0, 1), BuildingBlock: AJUNOK_clean_linker_0, # of connection points: 2
#     Edge 86, Type (0, 1), BuildingBlock: AJUNOK_clean_linker_0, # of connection points: 2
#     Edge 87, Type (0, 1), BuildingBlock: AJUNOK_clean_linker_0, # of connection points: 2
#     Edge 88, Type (0, 1), BuildingBlock: AJUNOK_clean_linker_0, # of connection points: 2
#     Edge 89, Type (0, 1), BuildingBlock: AJUNOK_clean_linker_0, # of connection points: 2
#     Edge 90, Type (0, 1), BuildingBlock: AJUNOK_clean_linker_0, # of connection points: 2
#     Edge 91, Type (0, 1), BuildingBlock: AJUNOK_clean_linker_0, # of connection points: 2
#     Edge 92, Type (0, 1), BuildingBlock: AJUNOK_clean_linker_0, # of connection points: 2
#     Edge 93, Type (0, 1), BuildingBlock: AJUNOK_clean_linker_0, # of connection points: 2
#     Edge 94, Type (0, 1), BuildingBlock: AJUNOK_clean_linker_0, # of connection points: 2
#     Edge 95, Type (0, 1), BuildingBlock: AJUNOK_clean_linker_0, # of connection points: 2
#     Edge 96, Type (0, 1), BuildingBlock: AJUNOK_clean_linker_0, # of connection points: 2
#     Edge 97, Type (0, 1), BuildingBlock: AJUNOK_clean_linker_0, # of connection points: 2
#     Edge 98, Type (0, 1), BuildingBlock: AJUNOK_clean_linker_0, # of connection points: 2
#     Edge 99, Type (0, 1), BuildingBlock: AJUNOK_clean_linker_0, # of connection points: 2
#     Edge 100, Type (0, 1), BuildingBlock: AJUNOK_clean_linker_0, # of connection points: 2
#     Edge 101, Type (0, 1), BuildingBlock: AJUNOK_clean_linker_0, # of connection points: 2
# Relax obj value: 0.120
# Max RMSD: 0.148
# Mean RMSD: 0.135
data_MOF--net-llk--node1-QEWDON_clean_sbu_0--node2-BELTOD_clean_linker_0--edge1-AJUNOK_clean_linker_0
_symmetry_space_group_name_H-M    P1
_symmetry_Int_Tables_number       1
_symmetry_cell_setting            triclinic
loop_
_symmetry_equiv_pos_as_xyz
'x, y, z'
_cell_length_a     40.657505
_cell_length_b     42.284845
_cell_length_c     41.354211
_cell_angle_alpha  90.08078
_cell_angle_beta   90.01648
_cell_angle_gamma 89.570629
loop_
_atom_site_label
_atom_site_type_symbol
_atom_site_fract_x
_atom_site_fract_y
_atom_site_fract_z
_atom_type_partial_charge
P0 P 0.99756 0.26831 0.26634 0.0
H1 H 0.96349 0.27386 0.20409 0.0
H2 H 0.97418 0.30853 0.15813 0.0
H3 H 0.07072 0.32826 0.19625 0.0
H4 H 0.05984 0.29364 0.24235 0.0
H5 H 0.96042 0.2128 0.28552 0.0
H6 H 0.97562 0.16705 0.31784 0.0
H7 H 0.0779 0.19244 0.31086 0.0
H8 H 0.06255 0.2385 0.27739 0.0
H9 H 0.99716 0.33705 0.26552 0.0
H10 H 0.0258 0.26349 0.33247 0.0
O11 O 0.95652 0.2699 0.26694 0.0
H12 H 0.01144 0.37697 0.30575 0.0
H13 H 0.04072 0.30342 0.37225 0.0
C14 C 0.01072 0.28147 0.22692 0.0
C15 C 0.98747 0.28462 0.20199 0.0
C16 C 0.99358 0.30451 0.17564 0.0
C17 C 0.0231 0.32149 0.17386 0.0
C18 C 0.0476 0.31573 0.19721 0.0
C19 C 0.04155 0.29567 0.22341 0.0
C20 C 0.01034 0.22918 0.27892 0.0
C21 C 0.98628 0.20804 0.2896 0.0
C22 C 0.99497 0.1818 0.30822 0.0
C23 C 0.0279 0.17629 0.31686 0.0
C24 C 0.05235 0.1962 0.3044 0.0
C25 C 0.04363 0.22228 0.28507 0.0
C26 C 0.01119 0.2972 0.29545 0.0
C27 C 0.00742 0.32945 0.28843 0.0
C28 C 0.01587 0.35227 0.3113 0.0
C29 C 0.0279 0.34321 0.34177 0.0
C30 C 0.032 0.31094 0.34871 0.0
C31 C 0.02352 0.2881 0.32581 0.0
P32 P 0.76643 0.99118 0.23049 0.0
H33 H 0.76219 0.97321 0.16273 0.0
H34 H 0.72634 0.9928 0.12005 0.0
H35 H 0.69989 0.07336 0.17915 0.0
H36 H 0.73604 0.05354 0.22208 0.0
H37 H 0.81743 0.95841 0.2656 0.0
H38 H 0.85065 0.97929 0.3094 0.0
H39 H 0.83231 0.0743 0.27577 0.0
H40 H 0.79937 0.05319 0.23102 0.0
H41 H 0.69957 0.96795 0.23937 0.0
H42 H 0.76569 0.03059 0.28978 0.0
O43 O 0.76862 0.95247 0.2227 0.0
H44 H 0.65715 0.9791 0.28042 0.0
H45 H 0.7239 0.042 0.3293 0.0
C46 C 0.75124 0.01164 0.19567 0.0
C47 C 0.74964 0.99565 0.16613 0.0
C48 C 0.72905 0.00688 0.14175 0.0
C49 C 0.70968 0.03414 0.14672 0.0
C50 C 0.71404 0.05193 0.17506 0.0
C51 C 0.73488 0.04075 0.19941 0.0
C52 C 0.80533 0.00429 0.24555 0.0
C53 C 0.82207 0.9836 0.26629 0.0
C54 C 0.84064 0.99556 0.29164 0.0
C55 C 0.84247 0.02832 0.2965 0.0
C56 C 0.83052 0.04893 0.27264 0.0
C57 C 0.81207 0.03683 0.24688 0.0
C58 C 0.73625 0.99767 0.26172 0.0
C59 C 0.70511 0.98383 0.25917 0.0
C60 C 0.68085 0.9905 0.28224 0.0
C61 C 0.6876 0.01116 0.30794 0.0
C62 C 0.71837 0.02564 0.30987 0.0
C63 C 0.74245 0.01891 0.28708 0.0
P64 P 0.06192 0.75853 0.25573 0.0
H65 H 0.07716 0.75323 0.18691 0.0
H66 H 0.05486 0.71911 0.1452 0.0
H67 H 0.97271 0.6968 0.2071 0.0
H68 H 0.99596 0.73063 0.24949 0.0
H69 H 0.09473 0.7924 0.30582 0.0
H70 H 0.07874 0.83573 0.3409 0.0
H71 H 0.99044 0.85011 0.28441 0.0
H72 H 0.00566 0.80419 0.25054 0.0
H73 H 0.09452 0.6974 0.26559 0.0
H74 H 0.02043 0.75423 0.3135 0.0
O75 O 0.1014 0.7604 0.24488 0.0
H76 H 0.08758 0.656 0.30684 0.0
H77 H 0.01436 0.71353 0.35474 0.0
C78 C 0.03841 0.74444 0.2215 0.0
C79 C 0.05372 0.74202 0.19122 0.0
C80 C 0.04073 0.72247 0.16714 0.0
C81 C 0.01182 0.70511 0.17262 0.0
C82 C 0.99506 0.70969 0.20209 0.0
C83 C 0.00819 0.72927 0.22627 0.0
C84 C 0.05182 0.79559 0.27505 0.0
C85 C 0.07226 0.8053 0.3004 0.0
C86 C 0.06312 0.83031 0.32046 0.0
C87 C 0.03373 0.84715 0.31502 0.0
C88 C 0.01334 0.83772 0.28916 0.0
C89 C 0.02218 0.81185 0.26948 0.0
C90 C 0.05859 0.72916 0.28689 0.0
C91 C 0.07738 0.70127 0.28527 0.0
C92 C 0.07359 0.67783 0.30877 0.0
C93 C 0.05107 0.68225 0.33406 0.0
C94 C 0.03242 0.71017 0.33575 0.0
C95 C 0.03591 0.73334 0.31214 0.0
P96 P 0.26261 0.94965 0.23717 0.0
H97 H 0.19326 0.93208 0.23727 0.0
H98 H 0.14821 0.95542 0.26837 0.0
H99 H 0.20573 0.03926 0.2844 0.0
H100 H 0.25078 0.01604 0.25303 0.0
H101 H 0.31381 0.91574 0.20286 0.0
H102 H 0.35163 0.9316 0.15977 0.0
H103 H 0.29904 0.02006 0.14992 0.0
H104 H 0.26136 0.00432 0.1931 0.0
H105 H 0.25516 0.9363 0.3058 0.0
H106 H 0.32366 0.986 0.24475 0.0
O107 O 0.2544 0.91105 0.23772 0.0
H108 H 0.28583 0.95377 0.35388 0.0
H109 H 0.35422 0.00281 0.29239 0.0
C110 C 0.22552 0.9721 0.2434 0.0
C111 C 0.19559 0.95616 0.24587 0.0
C112 C 0.16982 0.96953 0.26358 0.0
C113 C 0.17386 0.99889 0.27891 0.0
C114 C 0.20203 0.01672 0.2725 0.0
C115 C 0.22778 0.00337 0.25464 0.0
C116 C 0.28452 0.95864 0.20076 0.0
C117 C 0.30985 0.93817 0.1908 0.0
C118 C 0.33153 0.94726 0.16645 0.0
C119 C 0.32793 0.97686 0.15166 0.0
C120 C 0.30184 0.9969 0.1608 0.0
C121 C 0.28034 0.98791 0.18539 0.0
C122 C 0.28762 0.95907 0.27167 0.0
C123 C 0.27698 0.95053 0.30272 0.0
C124 C 0.29407 0.96086 0.33008 0.0
C125 C 0.32199 0.97978 0.32654 0.0
C126 C 0.33259 0.9883 0.29551 0.0
C127 C 0.31535 0.97831 0.26827 0.0
P128 P 0.95892 0.77102 0.75787 0.0
H129 H 0.94852 0.77629 0.82748 0.0
H130 H 0.96698 0.74197 0.8714 0.0
H131 H 0.03785 0.69811 0.8076 0.0
H132 H 0.02025 0.73322 0.76409 0.0
H133 H 0.92389 0.81689 0.71921 0.0
H134 H 0.94241 0.8606 0.68552 0.0
H135 H 0.04089 0.84897 0.72299 0.0
H136 H 0.02212 0.80481 0.75674 0.0
H137 H 0.91613 0.71937 0.73604 0.0
H138 H 0.00945 0.7596 0.70936 0.0
O139 O 0.91946 0.77431 0.76865 0.0
H140 H 0.92249 0.67947 0.69334 0.0
H141 H 0.01676 0.71925 0.66829 0.0
C142 C 0.98203 0.75649 0.79213 0.0
C143 C 0.96902 0.76031 0.82324 0.0
C144 C 0.97965 0.7407 0.84838 0.0
C145 C 0.00331 0.71686 0.84266 0.0
C146 C 0.01955 0.71617 0.81272 0.0
C147 C 0.00909 0.73607 0.78763 0.0
C148 C 0.9715 0.80808 0.74095 0.0
C149 C 0.94926 0.82435 0.72099 0.0
C150 C 0.95989 0.84916 0.70156 0.0
C151 C 0.99312 0.85786 0.7014 0.0
C152 C 0.01521 0.84236 0.72236 0.0
C153 C 0.00445 0.81753 0.74199 0.0
C154 C 0.96217 0.74262 0.72564 0.0
C155 C 0.93789 0.71969 0.72097 0.0
C156 C 0.9417 0.69674 0.69679 0.0
C157 C 0.9702 0.6961 0.67752 0.0
C158 C 0.99424 0.71936 0.68229 0.0
C159 C 0.99015 0.74245 0.70594 0.0
P160 P 0.26824 0.94766 0.77869 0.0
H161 H 0.27973 0.92993 0.84643 0.0
H162 H 0.3185 0.95049 0.88634 0.0
H163 H 0.34174 0.02742 0.82173 0.0
H164 H 0.30227 0.00764 0.78296 0.0
H165 H 0.21344 0.92153 0.7436 0.0
H166 H 0.1743 0.94663 0.70706 0.0
H167 H 0.20336 0.0385 0.74194 0.0
H168 H 0.2423 0.01314 0.77925 0.0
H169 H 0.33465 0.92231 0.77178 0.0
H170 H 0.26855 0.98147 0.71615 0.0
O171 O 0.26216 0.90969 0.78768 0.0
H172 H 0.37963 0.93603 0.73483 0.0
H173 H 0.31301 0.99602 0.68095 0.0
C174 C 0.28774 0.9675 0.81193 0.0
C175 C 0.29218 0.95195 0.84152 0.0
C176 C 0.31463 0.96357 0.86419 0.0
C177 C 0.33294 0.99091 0.85755 0.0
C178 C 0.32732 0.00699 0.8283 0.0
C179 C 0.30466 0.99563 0.80596 0.0
C180 C 0.23059 0.96535 0.76445 0.0
C181 C 0.21027 0.94696 0.74472 0.0
C182 C 0.18812 0.96137 0.72357 0.0
C183 C 0.18607 0.99448 0.72163 0.0
C184 C 0.20467 0.01293 0.74301 0.0
C185 C 0.22661 0.9984 0.76458 0.0
C186 C 0.29804 0.95043 0.74671 0.0
C187 C 0.32956 0.93749 0.75128 0.0
C188 C 0.35528 0.94571 0.73057 0.0
C189 C 0.34965 0.96695 0.70506 0.0
C190 C 0.31788 0.97909 0.70003 0.0
C191 C 0.2923 0.97072 0.72045 0.0
P192 P 0.06804 0.27498 0.7575 0.0
H193 H 0.09725 0.27828 0.82181 0.0
H194 H 0.08434 0.31299 0.86717 0.0
H195 H 0.99126 0.33701 0.8229 0.0
H196 H 0.00464 0.30253 0.77702 0.0
H197 H 0.1024 0.2309 0.71696 0.0
H198 H 0.08531 0.18498 0.68677 0.0
H199 H 0.98995 0.18901 0.73286 0.0
H200 H 0.00739 0.23644 0.76301 0.0
H201 H 0.09344 0.33728 0.74431 0.0
H202 H 0.01598 0.27794 0.70744 0.0
O203 O 0.10904 0.27526 0.76 0.0
H204 H 0.07688 0.3791 0.7068 0.0
H205 H -0.00039 0.31985 0.6696 0.0
C206 C 0.05211 0.28817 0.79582 0.0
C207 C 0.0735 0.29003 0.82234 0.0
C208 C 0.06609 0.30992 0.84837 0.0
C209 C 0.03698 0.32802 0.84837 0.0
C210 C 0.01408 0.32362 0.82328 0.0
C211 C 0.02155 0.30367 0.79723 0.0
C212 C 0.05643 0.2367 0.74273 0.0
C213 C 0.07813 0.2215 0.72148 0.0
C214 C 0.06826 0.19512 0.70411 0.0
C215 C 0.03627 0.18325 0.70739 0.0
C216 C 0.01468 0.19779 0.72964 0.0
C217 C 0.02471 0.22455 0.74717 0.0
C218 C 0.05645 0.30432 0.72821 0.0
C219 C 0.07307 0.33315 0.72798 0.0
C220 C 0.06343 0.35707 0.70683 0.0
C221 C 0.03685 0.35258 0.68571 0.0
C222 C 0.02016 0.32369 0.68578 0.0
C223 C 0.02967 0.29976 0.70725 0.0
P224 P 0.78928 0.08904 0.7858 0.0
H225 H 0.77118 0.11776 0.84792 0.0
H226 H 0.72805 0.10405 0.88691 0.0
H227 H 0.71261 0.01581 0.83703 0.0
H228 H 0.75591 0.02924 0.79825 0.0
H229 H 0.84535 0.11662 0.75435 0.0
H230 H 0.88668 0.09045 0.72111 0.0
H231 H 0.86268 0.00097 0.76455 0.0
H232 H 0.82163 0.02754 0.79897 0.0
H233 H 0.72737 0.11302 0.75982 0.0
H234 H 0.79787 0.04 0.73474 0.0
O235 O 0.79068 0.12843 0.78785 0.0
H236 H 0.69331 0.09683 0.71377 0.0
H237 H 0.76419 0.02404 0.6898 0.0
C238 C 0.76668 0.07456 0.82009 0.0
C239 C 0.75932 0.09501 0.84593 0.0
C240 C 0.73458 0.08734 0.86804 0.0
C241 C 0.71701 0.05916 0.86445 0.0
C242 C 0.72592 0.03773 0.84001 0.0
C243 C 0.75077 0.0453 0.81806 0.0
C244 C 0.83025 0.07404 0.77908 0.0
C245 C 0.85038 0.09176 0.75852 0.0
C246 C 0.87385 0.07675 0.73923 0.0
C247 C 0.87739 0.04379 0.74016 0.0
C248 C 0.86035 0.02649 0.76367 0.0
C249 C 0.83718 0.04173 0.78358 0.0
C250 C 0.76568 0.07844 0.75058 0.0
C251 C 0.7358 0.09392 0.74437 0.0
C252 C 0.71634 0.08454 0.71829 0.0
C253 C 0.72659 0.05953 0.69818 0.0
C254 C 0.75623 0.04385 0.70457 0.0
C255 C 0.77554 0.05314 0.73059 0.0
P256 P 0.24083 0.2666 0.97294 0.0
H257 H 0.25533 0.20519 0.94416 0.0
H258 H 0.29792 0.16748 0.95863 0.0
H259 H 0.30591 0.2105 0.05307 0.0
H260 H 0.2637 0.2491 0.038 0.0
H261 H 0.18726 0.29737 0.93903 0.0
H262 H 0.14641 0.33527 0.95788 0.0
H263 H 0.16945 0.31166 0.05671 0.0
H264 H 0.2092 0.27162 0.03769 0.0
H265 H 0.30071 0.28452 0.93851 0.0
H266 H 0.25272 0.30895 0.02831 0.0
O267 O 0.23851 0.2624 0.93283 0.0
H268 H 0.34652 0.31927 0.95284 0.0
H269 H 0.29827 0.34231 0.04293 0.0
C270 C 0.25651 0.23034 0.98979 0.0
C271 C 0.26503 0.20578 0.96853 0.0
C272 C 0.28954 0.18405 0.97689 0.0
C273 C 0.30564 0.18628 0.00688 0.0
C274 C 0.29422 0.20852 0.02962 0.0
C275 C 0.2697 0.23035 0.02115 0.0
C276 C 0.20185 0.28199 0.98693 0.0
C277 C 0.18246 0.29884 0.96473 0.0
C278 C 0.15909 0.32063 0.97549 0.0
C279 C 0.15522 0.32643 0.00863 0.0
C280 C 0.17204 0.30735 0.03101 0.0
C281 C 0.19479 0.2846 0.0201 0.0
C282 C 0.27245 0.29502 0.98161 0.0
C283 C 0.29963 0.29772 0.96095 0.0
C284 C 0.32598 0.31719 0.96935 0.0
C285 C 0.32563 0.33391 0.99876 0.0
C286 C 0.29875 0.33052 0.01966 0.0
C287 C 0.27244 0.31138 0.01114 0.0
P288 P 0.23543 0.78251 0.97644 0.0
H289 H 0.16482 0.79176 0.96739 0.0
H290 H 0.12051 0.7569 0.98424 0.0
H291 H 0.18507 0.7133 0.05422 0.0
H292 H 0.22893 0.74909 0.0383 0.0
H293 H 0.26858 0.82911 0.93736 0.0
H294 H 0.30035 0.87565 0.95119 0.0
H295 H 0.27208 0.86556 0.05135 0.0
H296 H 0.24067 0.81812 0.03725 0.0
H297 H 0.23427 0.71487 0.96388 0.0
H298 H 0.30371 0.78257 0.00101 0.0
O299 O 0.22416 0.78248 0.93762 0.0
H300 H 0.27326 0.67183 0.97559 0.0
H301 H 0.34278 0.73991 0.01195 0.0
C302 C 0.20046 0.77176 0.00048 0.0
C303 C 0.16889 0.77607 0.98769 0.0
C304 C 0.14349 0.75626 0.99752 0.0
C305 C 0.14988 0.73177 0.01969 0.0
C306 C 0.17962 0.73181 0.03689 0.0
C307 C 0.20487 0.75203 0.02743 0.0
C308 C 0.25179 0.82061 0.98619 0.0
C309 C 0.26825 0.83749 0.96212 0.0
C310 C 0.28627 0.86429 0.97006 0.0
C311 C 0.28823 0.87468 0.0023 0.0
C312 C 0.27072 0.85827 0.02627 0.0
C313 C 0.25268 0.83131 0.01825 0.0
C314 C 0.26603 0.7519 0.98158 0.0
C315 C 0.25802 0.7205 0.97417 0.0
C316 C 0.28018 0.69596 0.98097 0.0
C317 C 0.31069 0.70252 0.99531 0.0
C318 C 0.31902 0.73411 0.00178 0.0
C319 C 0.2968 0.75859 0.99514 0.0
P320 P 0.80988 0.26308 0.94854 0.0
H321 H 0.87938 0.26462 0.92978 0.0
H322 H 0.92465 0.29713 0.9499 0.0
H323 H 0.86441 0.32617 0.0309 0.0
H324 H 0.82053 0.29237 0.01196 0.0
H325 H 0.76972 0.2174 0.91562 0.0
H326 H 0.74054 0.17117 0.93482 0.0
H327 H 0.79213 0.17689 0.02602 0.0
H328 H 0.82086 0.22408 0.0067 0.0
H329 H 0.78487 0.32092 0.91806 0.0
H330 H 0.7633 0.26507 0.00253 0.0
O331 O 0.816 0.26405 0.90865 0.0
H332 H 0.74275 0.35947 0.93428 0.0
H333 H 0.72293 0.30421 0.01985 0.0
C334 C 0.84614 0.27715 0.96866 0.0
C335 C 0.87638 0.2772 0.95243 0.0
C336 C 0.90212 0.29596 0.9638 0.0
C337 C 0.89757 0.31522 0.99122 0.0
C338 C 0.86865 0.31191 0.00949 0.0
C339 C 0.84326 0.29277 0.99843 0.0
C340 C 0.79758 0.22395 0.95963 0.0
C341 C 0.77566 0.2081 0.93933 0.0
C342 C 0.759 0.18159 0.95036 0.0
C343 C 0.76378 0.1706 0.98208 0.0
C344 C 0.78764 0.18515 0.00162 0.0
C345 C 0.8043 0.21187 0.99051 0.0
C346 C 0.77665 0.28972 0.95861 0.0
C347 C 0.77085 0.31676 0.93988 0.0
C348 C 0.74708 0.33897 0.94941 0.0
C349 C 0.72917 0.33474 0.97817 0.0
C350 C 0.73545 0.30773 0.99704 0.0
C351 C 0.75868 0.28531 0.98717 0.0
P352 P 0.7933 0.77817 0.04069 0.0
H353 H 0.86395 0.79111 0.0366 0.0
H354 H 0.90813 0.75653 0.01711 0.0
H355 H 0.83559 0.69842 0.96932 0.0
H356 H 0.79343 0.73458 0.98488 0.0
H357 H 0.7591 0.8169 0.08657 0.0
H358 H 0.71758 0.85733 0.07858 0.0
H359 H 0.74582 0.86507 0.97817 0.0
H360 H 0.78695 0.82292 0.98626 0.0
H361 H 0.76878 0.72385 0.07703 0.0
H362 H 0.7415 0.77653 0.9917 0.0
O363 O 0.80759 0.77373 0.07828 0.0
H364 H 0.72313 0.68787 0.06754 0.0
H365 H 0.69696 0.73981 0.9812 0.0
C366 C 0.82512 0.76493 0.01334 0.0
C367 C 0.85799 0.77204 0.02014 0.0
C368 C 0.8832 0.75187 0.0093 0.0
C369 C 0.87563 0.72366 0.99263 0.0
C370 C 0.84313 0.7196 0.98184 0.0
C371 C 0.81832 0.7404 0.99153 0.0
C372 C 0.7765 0.81729 0.03714 0.0
C373 C 0.75765 0.82836 0.06319 0.0
C374 C 0.73369 0.85156 0.05854 0.0
C375 C 0.7284 0.86458 0.02774 0.0
C376 C 0.74927 0.85535 0.00216 0.0
C377 C 0.77317 0.83173 0.00684 0.0
C378 C 0.75815 0.75319 0.03547 0.0
C379 C 0.75281 0.72789 0.05648 0.0
C380 C 0.72692 0.70719 0.05081 0.0
C381 C 0.70637 0.71116 0.02369 0.0
C382 C 0.71177 0.73663 0.00273 0.0
C383 C 0.7373 0.75763 0.00875 0.0
P384 P 0.49604 0.76892 0.74377 0.0
H385 H 0.47403 0.76634 0.67651 0.0
H386 H 0.48884 0.79888 0.62994 0.0
H387 H 0.57094 0.83635 0.68379 0.0
H388 H 0.55693 0.80276 0.72941 0.0
H389 H 0.45695 0.7162 0.76628 0.0
H390 H 0.47066 0.67329 0.80304 0.0
H391 H 0.57373 0.69429 0.79321 0.0
H392 H 0.56 0.73727 0.75513 0.0
H393 H 0.48501 0.83667 0.74697 0.0
H394 H 0.52633 0.76466 0.80936 0.0
O395 O 0.45531 0.76993 0.73873 0.0
H396 H 0.49384 0.87615 0.78959 0.0
H397 H 0.53537 0.80408 0.85118 0.0
C398 C 0.51416 0.7824 0.70655 0.0
C399 C 0.49602 0.78058 0.67778 0.0
C400 C 0.50429 0.79948 0.65128 0.0
C401 C 0.53089 0.82048 0.65315 0.0
C402 C 0.55063 0.82013 0.68115 0.0
C403 C 0.54257 0.80094 0.70744 0.0
C404 C 0.50746 0.73 0.75784 0.0
C405 C 0.48265 0.71078 0.77052 0.0
C406 C 0.49044 0.68629 0.79173 0.0
C407 C 0.52313 0.68081 0.80092 0.0
C408 C 0.54835 0.6981 0.78616 0.0
C409 C 0.54054 0.72239 0.76425 0.0
C410 C 0.50516 0.79768 0.77464 0.0
C411 C 0.49656 0.82943 0.76941 0.0
C412 C 0.50188 0.85197 0.79349 0.0
C413 C 0.51582 0.84294 0.82307 0.0
C414 C 0.52517 0.81143 0.82815 0.0
C415 C 0.51984 0.78889 0.80411 0.0
P416 P 0.31126 0.49356 0.74521 0.0
H417 H 0.31035 0.47057 0.67861 0.0
H418 H 0.27234 0.48559 0.63558 0.0
H419 H 0.24883 0.57194 0.68632 0.0
H420 H 0.28683 0.55695 0.72953 0.0
H421 H 0.36285 0.45862 0.77821 0.0
H422 H 0.40289 0.4749 0.81853 0.0
H423 H 0.37976 0.57277 0.79951 0.0
H424 H 0.34057 0.55644 0.75739 0.0
H425 H 0.24554 0.46638 0.74622 0.0
H426 H 0.29813 0.53824 0.79891 0.0
O427 O 0.31401 0.4546 0.73896 0.0
H428 H 0.19587 0.4787 0.7776 0.0
H429 H 0.24886 0.5514 0.82883 0.0
C430 C 0.30093 0.51235 0.70761 0.0
C431 C 0.29853 0.49357 0.67976 0.0
C432 C 0.27681 0.50214 0.65511 0.0
C433 C 0.25757 0.52966 0.65807 0.0
C434 C 0.26365 0.55071 0.68355 0.0
C435 C 0.28546 0.54214 0.70822 0.0
C436 C 0.34844 0.5063 0.76492 0.0
C437 C 0.36735 0.48364 0.7814 0.0
C438 C 0.39024 0.49291 0.80452 0.0
C439 C 0.39411 0.52498 0.81203 0.0
C440 C 0.37724 0.5479 0.79381 0.0
C441 C 0.35493 0.53855 0.7698 0.0
C442 C 0.27598 0.50069 0.77071 0.0
C443 C 0.24653 0.48463 0.7646 0.0
C444 C 0.21799 0.49213 0.78204 0.0
C445 C 0.2184 0.51625 0.80547 0.0
C446 C 0.24782 0.53257 0.81107 0.0
C447 C 0.27626 0.52487 0.79393 0.0
P448 P 0.52761 0.26866 0.75132 0.0
H449 H 0.55309 0.26809 0.68573 0.0
H450 H 0.54248 0.23191 0.64193 0.0
H451 H 0.45265 0.2025 0.68872 0.0
H452 H 0.46524 0.23743 0.73438 0.0
H453 H 0.56725 0.32525 0.75968 0.0
H454 H 0.55967 0.37048 0.795 0.0
H455 H 0.45805 0.34565 0.80892 0.0
H456 H 0.465 0.30097 0.77109 0.0
H457 H 0.56202 0.21038 0.76641 0.0
H458 H 0.4769 0.26013 0.80342 0.0
O459 O 0.56835 0.26839 0.74588 0.0
H460 H 0.55644 0.1711 0.80886 0.0
H461 H 0.47081 0.2204 0.84545 0.0
C462 C 0.51043 0.25489 0.71374 0.0
C463 C 0.5305 0.25469 0.68623 0.0
C464 C 0.52409 0.23401 0.66072 0.0
C465 C 0.49673 0.2138 0.66164 0.0
C466 C 0.4743 0.2172 0.68745 0.0
C467 C 0.48123 0.23747 0.71344 0.0
C468 C 0.51719 0.30836 0.76441 0.0
C469 C 0.54288 0.32987 0.76913 0.0
C470 C 0.53856 0.356 0.78924 0.0
C471 C 0.5086 0.36087 0.80524 0.0
C472 C 0.48152 0.34205 0.79704 0.0
C473 C 0.48568 0.31622 0.77597 0.0
C474 C 0.52063 0.23903 0.78206 0.0
C475 C 0.54198 0.21289 0.78349 0.0
C476 C 0.53844 0.19006 0.80753 0.0
C477 C 0.51296 0.19246 0.83038 0.0
C478 C 0.49077 0.21801 0.82825 0.0
C479 C 0.49443 0.24096 0.80415 0.0
P480 P 0.73495 0.45403 0.75793 0.0
H481 H 0.6653 0.43674 0.76269 0.0
H482 H 0.6218 0.45745 0.79799 0.0
H483 H 0.68455 0.53546 0.82434 0.0
H484 H 0.72665 0.51578 0.78791 0.0
H485 H 0.76877 0.42155 0.70592 0.0
H486 H 0.81123 0.44181 0.6702 0.0
H487 H 0.78049 0.53735 0.6921 0.0
H488 H 0.73743 0.51692 0.72758 0.0
H489 H 0.73809 0.44176 0.82731 0.0
H490 H 0.80203 0.48144 0.75467 0.0
O491 O 0.72726 0.41537 0.75577 0.0
H492 H 0.77806 0.45639 0.86926 0.0
H493 H 0.84082 0.49644 0.79609 0.0
C494 C 0.69927 0.4746 0.77296 0.0
C495 C 0.66902 0.45905 0.77499 0.0
C496 C 0.64431 0.47075 0.79539 0.0
C497 C 0.64971 0.49801 0.81416 0.0
C498 C 0.67907 0.51486 0.80979 0.0
C499 C 0.7034 0.50348 0.789 0.0
C500 C 0.75011 0.4677 0.71966 0.0
C501 C 0.7698 0.44679 0.7017 0.0
C502 C 0.79443 0.4584 0.68165 0.0
C503 C 0.79966 0.49108 0.67933 0.0
C504 C 0.77703 0.51203 0.69372 0.0
C505 C 0.75222 0.50033 0.71381 0.0
C506 C 0.76672 0.46049 0.78773 0.0
C507 C 0.76064 0.45338 0.82031 0.0
C508 C 0.78316 0.46213 0.84425 0.0
C509 C 0.81213 0.47799 0.83583 0.0
C510 C 0.81854 0.48437 0.80318 0.0
C511 C 0.79613 0.47568 0.77938 0.0
P512 P 0.45839 0.27146 0.27017 0.0
H513 H 0.46309 0.29451 0.33741 0.0
H514 H 0.48562 0.26947 0.38603 0.0
H515 H 0.52748 0.19521 0.32635 0.0
H516 H 0.50891 0.22196 0.27902 0.0
H517 H 0.42333 0.30593 0.22083 0.0
H518 H 0.4398 0.34941 0.18605 0.0
H519 H 0.52334 0.36664 0.2481 0.0
H520 H 0.50778 0.32139 0.28164 0.0
H521 H 0.42966 0.2113 0.24824 0.0
H522 H 0.51 0.2721 0.22166 0.0
O523 O 0.41885 0.26767 0.28012 0.0
H524 H 0.44595 0.17393 0.20523 0.0
H525 H 0.52608 0.23521 0.17916 0.0
C526 C 0.48329 0.25977 0.30446 0.0
C527 C 0.47819 0.27344 0.33496 0.0
C528 C 0.49051 0.25855 0.36286 0.0
C529 C 0.50676 0.22894 0.36072 0.0
C530 C 0.51489 0.2176 0.32969 0.0
C531 C 0.50363 0.23295 0.30205 0.0
C532 C 0.46435 0.31042 0.25377 0.0
C533 C 0.44466 0.31968 0.22754 0.0
C534 C 0.45413 0.34462 0.2076 0.0
C535 C 0.48342 0.36101 0.21369 0.0
C536 C 0.50125 0.35377 0.24205 0.0
C537 C 0.49212 0.32825 0.26162 0.0
C538 C 0.46785 0.24503 0.23726 0.0
C539 C 0.45037 0.21685 0.23287 0.0
C540 C 0.45984 0.19544 0.20864 0.0
C541 C 0.48686 0.20213 0.18869 0.0
C542 C 0.50469 0.22996 0.19378 0.0
C543 C 0.49535 0.25114 0.2179 0.0
P544 P 0.72943 0.54763 0.27817 0.0
H545 H 0.66092 0.56105 0.26176 0.0
H546 H 0.62578 0.53844 0.22015 0.0
H547 H 0.69528 0.46183 0.20677 0.0
H548 H 0.73053 0.48463 0.24864 0.0
H549 H 0.73764 0.58413 0.33713 0.0
H550 H 0.77189 0.57223 0.38377 0.0
H551 H 0.77648 0.47417 0.35506 0.0
H552 H 0.74115 0.486 0.30866 0.0
H553 H 0.74287 0.5518 0.20932 0.0
H554 H 0.79912 0.53473 0.29635 0.0
O555 O 0.71853 0.58575 0.27715 0.0
H556 H 0.79211 0.5413 0.17686 0.0
H557 H 0.84802 0.524 0.26379 0.0
C558 C 0.69849 0.52474 0.25796 0.0
C559 C 0.66798 0.53868 0.25093 0.0
C560 C 0.64778 0.52558 0.22721 0.0
C561 C 0.65785 0.49834 0.21022 0.0
C562 C 0.68695 0.48277 0.21958 0.0
C563 C 0.70701 0.49575 0.24356 0.0
C564 C 0.73719 0.536 0.31921 0.0
C565 C 0.74421 0.5597 0.34181 0.0
C566 C 0.76394 0.55291 0.36846 0.0
C567 C 0.77732 0.52245 0.37249 0.0
C568 C 0.76637 0.49781 0.35251 0.0
C569 C 0.74616 0.50458 0.32596 0.0
C570 C 0.7669 0.54321 0.25521 0.0
C571 C 0.76567 0.54574 0.22146 0.0
C572 C 0.79365 0.53955 0.20295 0.0
C573 C 0.8234 0.53118 0.21799 0.0
C574 C 0.82512 0.53002 0.2518 0.0
C575 C 0.79703 0.53605 0.27034 0.0
P576 P 0.58952 0.77681 0.26939 0.0
H577 H 0.60725 0.78247 0.33806 0.0
H578 H 0.58348 0.81503 0.38143 0.0
H579 H 0.49975 0.8361 0.32105 0.0
H580 H 0.52305 0.80293 0.27794 0.0
H581 H 0.62732 0.7354 0.22777 0.0
H582 H 0.61155 0.69205 0.19252 0.0
H583 H 0.51585 0.69002 0.23778 0.0
H584 H 0.53162 0.73466 0.27237 0.0
H585 H 0.60923 0.84258 0.25954 0.0
H586 H 0.54882 0.77392 0.21055 0.0
O587 O 0.62968 0.77839 0.27759 0.0
H588 H 0.59548 0.88177 0.21753 0.0
H589 H 0.5357 0.81242 0.16901 0.0
C590 C 0.56706 0.7904 0.30459 0.0
C591 C 0.58319 0.79306 0.33451 0.0
C592 C 0.5697 0.81177 0.35927 0.0
C593 C 0.54001 0.82822 0.35432 0.0
C594 C 0.52273 0.82367 0.32531 0.0
C595 C 0.53598 0.80459 0.30077 0.0
C596 C 0.58091 0.73797 0.2532 0.0
C597 C 0.60338 0.72483 0.23111 0.0
C598 C 0.5943 0.69986 0.21086 0.0
C599 C 0.56244 0.68725 0.2123 0.0
C600 C 0.54056 0.69921 0.23592 0.0
C601 C 0.54965 0.72448 0.25606 0.0
C602 C 0.58088 0.80502 0.23779 0.0
C603 C 0.59342 0.83581 0.23966 0.0
C604 C 0.5854 0.85818 0.2159 0.0
C605 C 0.5648 0.84987 0.19002 0.0
C606 C 0.55204 0.81919 0.1885 0.0
C607 C 0.55972 0.79709 0.21229 0.0
P608 P 0.30341 0.58783 0.27138 0.0
H609 H 0.3032 0.59434 0.34194 0.0
H610 H 0.26313 0.57279 0.37985 0.0
H611 H 0.23312 0.50494 0.30764 0.0
H612 H 0.27542 0.52425 0.27142 0.0
H613 H 0.35053 0.6305 0.24309 0.0
H614 H 0.39331 0.61957 0.20307 0.0
H615 H 0.38634 0.51989 0.22345 0.0
H616 H 0.34371 0.53082 0.26391 0.0
H617 H 0.23266 0.59596 0.26717 0.0
H618 H 0.31068 0.56301 0.20436 0.0
O619 O 0.29935 0.62526 0.28372 0.0
H620 H 0.19223 0.58181 0.22579 0.0
H621 H 0.27042 0.54913 0.16332 0.0
C622 C 0.29085 0.56197 0.30336 0.0
C623 C 0.28928 0.57369 0.33498 0.0
C624 C 0.26596 0.56169 0.35638 0.0
C625 C 0.24338 0.53888 0.34566 0.0
C626 C 0.24943 0.52324 0.31626 0.0
C627 C 0.27364 0.53441 0.29541 0.0
C628 C 0.34421 0.58146 0.25658 0.0
C629 C 0.35956 0.60648 0.24044 0.0
C630 C 0.38384 0.60028 0.21747 0.0
C631 C 0.39274 0.56902 0.21045 0.0
C632 C 0.37988 0.54422 0.22895 0.0
C633 C 0.35577 0.55046 0.25218 0.0
C634 C 0.27478 0.58119 0.23882 0.0
C635 C 0.24116 0.58623 0.24439 0.0
C636 C 0.21813 0.57788 0.22094 0.0
C637 C 0.22845 0.56456 0.19147 0.0
C638 C 0.26201 0.55923 0.18597 0.0
C639 C 0.28504 0.56754 0.20945 0.0
P640 P 0.77352 0.7745 0.45541 0.0
H641 H 0.78118 0.71278 0.42404 0.0
H642 H 0.81643 0.66804 0.43795 0.0
H643 H 0.8296 0.70653 0.53377 0.0
H644 H 0.79477 0.75176 0.51952 0.0
H645 H 0.72858 0.81552 0.42143 0.0
H646 H 0.68507 0.85094 0.43873 0.0
H647 H 0.69182 0.81387 0.53569 0.0
H648 H 0.73623 0.77759 0.51789 0.0
H649 H 0.83148 0.79726 0.42004 0.0
H650 H 0.78802 0.80995 0.51442 0.0
O651 O 0.77227 0.77188 0.41512 0.0
H652 H 0.87297 0.83721 0.43322 0.0
H653 H 0.82927 0.84929 0.52759 0.0
C654 C 0.78564 0.73607 0.47055 0.0
C655 C 0.79062 0.7112 0.44846 0.0
C656 C 0.81086 0.68545 0.45642 0.0
C657 C 0.82633 0.68405 0.48674 0.0
C658 C 0.81849 0.7073 0.50997 0.0
C659 C 0.79825 0.73306 0.50196 0.0
C660 C 0.73535 0.79319 0.46807 0.0
C661 C 0.72008 0.81388 0.44618 0.0
C662 C 0.69506 0.83435 0.45615 0.0
C663 C 0.68452 0.83495 0.48848 0.0
C664 C 0.69923 0.81375 0.51053 0.0
C665 C 0.72438 0.79284 0.50033 0.0
C666 C 0.80598 0.80138 0.46585 0.0
C667 C 0.83093 0.80844 0.4436 0.0
C668 C 0.8548 0.83098 0.45122 0.0
C669 C 0.854 0.84647 0.48127 0.0
C670 C 0.83009 0.83797 0.50408 0.0
C671 C 0.80639 0.81556 0.49648 0.0
P672 P 0.77005 0.26653 0.45567 0.0
H673 H 0.70289 0.25332 0.43507 0.0
H674 H 0.66029 0.22022 0.45759 0.0
H675 H 0.71635 0.21041 0.54588 0.0
H676 H 0.76032 0.24222 0.52199 0.0
H677 H 0.80058 0.31759 0.42004 0.0
H678 H 0.83201 0.36361 0.43728 0.0
H679 H 0.80699 0.34397 0.53663 0.0
H680 H 0.77483 0.29828 0.51917 0.0
H681 H 0.77618 0.20092 0.43588 0.0
H682 H 0.83659 0.26957 0.48492 0.0
O683 O 0.76086 0.26874 0.41639 0.0
H684 H 0.81874 0.16048 0.44484 0.0
H685 H 0.87864 0.22936 0.49398 0.0
C686 C 0.73491 0.25044 0.47677 0.0
C687 C 0.7059 0.24469 0.45953 0.0
C688 C 0.68131 0.22569 0.47263 0.0
C689 C 0.68486 0.21208 0.50353 0.0
C690 C 0.71303 0.21973 0.52173 0.0
C691 C 0.73797 0.23848 0.50832 0.0
C692 C 0.78463 0.30484 0.46824 0.0
C693 C 0.80081 0.32377 0.44546 0.0
C694 C 0.8192 0.34983 0.45533 0.0
C695 C 0.82196 0.35738 0.48826 0.0
C696 C 0.80481 0.33905 0.51101 0.0
C697 C 0.78629 0.31297 0.50107 0.0
C698 C 0.80306 0.23824 0.4597 0.0
C699 C 0.79871 0.20741 0.44813 0.0
C700 C 0.82296 0.1844 0.4532 0.0
C701 C 0.85202 0.192 0.46976 0.0
C702 C 0.85675 0.22311 0.48054 0.0
C703 C 0.83243 0.24606 0.47559 0.0
P704 P 0.26862 0.76624 0.48035 0.0
H705 H 0.3333 0.77171 0.44973 0.0
H706 H 0.37798 0.80879 0.45999 0.0
H707 H 0.33323 0.83468 0.55094 0.0
H708 H 0.28879 0.79715 0.54084 0.0
H709 H 0.249 0.70964 0.44537 0.0
H710 H 0.21411 0.66607 0.46177 0.0
H711 H 0.22318 0.69465 0.56145 0.0
H712 H 0.25948 0.7382 0.54501 0.0
H713 H 0.26445 0.83445 0.47409 0.0
H714 H 0.20185 0.76 0.50953 0.0
O715 O 0.26972 0.76593 0.43999 0.0
H716 H 0.22193 0.87333 0.48757 0.0
H717 H 0.16031 0.79891 0.52449 0.0
C718 C 0.30734 0.78202 0.49427 0.0
C719 C 0.33362 0.78449 0.47243 0.0
C720 C 0.359 0.80599 0.47811 0.0
C721 C 0.35849 0.82538 0.50574 0.0
C722 C 0.33413 0.82025 0.52929 0.0
C723 C 0.30878 0.79865 0.52362 0.0
C724 C 0.25692 0.72733 0.49395 0.0
C725 C 0.24507 0.70581 0.47095 0.0
C726 C 0.22492 0.68089 0.4803 0.0
C727 C 0.21589 0.67725 0.51278 0.0
C728 C 0.22999 0.69701 0.53626 0.0
C729 C 0.25096 0.72164 0.52691 0.0
C730 C 0.23693 0.7943 0.49144 0.0
C731 C 0.24192 0.82647 0.48532 0.0
C732 C 0.21773 0.84868 0.49327 0.0
C733 C 0.18797 0.8391 0.50732 0.0
C734 C 0.183 0.8069 0.51361 0.0
C735 C 0.2071 0.78462 0.50533 0.0
P736 P 0.26847 0.26285 0.56361 0.0
H737 H 0.3353 0.28086 0.54472 0.0
H738 H 0.37988 0.24939 0.5207 0.0
H739 H 0.31083 0.1754 0.49836 0.0
H740 H 0.26638 0.20784 0.51933 0.0
H741 H 0.23412 0.30834 0.60316 0.0
H742 H 0.20015 0.35407 0.58933 0.0
H743 H 0.2341 0.34833 0.49053 0.0
H744 H 0.2674 0.30159 0.50441 0.0
H745 H 0.25552 0.20212 0.59472 0.0
H746 H 0.2031 0.2684 0.53383 0.0
O747 O 0.28596 0.26296 0.60011 0.0
H748 H 0.212 0.16306 0.5857 0.0
H749 H 0.15964 0.23024 0.52608 0.0
C750 C 0.29769 0.24627 0.53514 0.0
C751 C 0.32957 0.25847 0.53337 0.0
C752 C 0.35507 0.24028 0.51986 0.0
C753 C 0.34919 0.20908 0.50925 0.0
C754 C 0.31646 0.19899 0.50687 0.0
C755 C 0.2909 0.21753 0.51948 0.0
C756 C 0.25388 0.3021 0.55499 0.0
C757 C 0.23529 0.31765 0.5788 0.0
C758 C 0.21574 0.34371 0.57084 0.0
C759 C 0.21465 0.35485 0.5389 0.0
C760 C 0.23448 0.34011 0.51532 0.0
C761 C 0.2539 0.31378 0.5233 0.0
C762 C 0.23265 0.23818 0.56503 0.0
C763 C 0.23412 0.20875 0.58061 0.0
C764 C 0.20927 0.18656 0.57561 0.0
C765 C 0.1828 0.19377 0.55507 0.0
C766 C 0.17996 0.22423 0.54196 0.0
C767 C 0.20491 0.24609 0.54647 0.0
Zn768 Zn 0.95135 0.99047 0.44114 0.0
Zn769 Zn 0.9597 0.06632 0.4548 0.0
O770 O 0.9843 0.02484 0.45187 0.0
H771 H 0.00664 0.02079 0.45863 0.0
C772 C 0.93436 0.95198 0.52114 0.0
O773 O 0.92215 0.98083 0.52056 0.0
Zn774 Zn 0.06887 0.06525 0.56417 0.0
Zn775 Zn 0.07164 0.98965 0.56426 0.0
O776 O 0.04082 0.02717 0.56165 0.0
H777 H 0.02173 0.02566 0.57525 0.0
Zn778 Zn 0.97598 0.9854 0.56391 0.0
O779 O 0.97805 0.02612 0.53782 0.0
Zn780 Zn 0.96484 0.05846 0.57105 0.0
H781 H 0.99184 0.02916 0.51908 0.0
Zn782 Zn 0.06735 0.98506 0.4535 0.0
O783 O 0.06642 0.02375 0.48128 0.0
H784 H 0.05399 0.02469 0.50112 0.0
Zn785 Zn 0.07224 0.05933 0.45021 0.0
C786 C 0.09886 0.94386 0.50016 0.0
O787 O 0.1078 0.9714 0.51185 0.0
O788 O 0.91148 0.01178 0.41983 0.0
O789 O 0.91628 0.06295 0.43195 0.0
O790 O 0.11112 0.00247 0.59142 0.0
O791 O 0.10516 0.05466 0.5968 0.0
O792 O 0.95506 0.99145 0.60959 0.0
O793 O 0.93302 0.0393 0.60262 0.0
C794 C 0.01313 0.09672 0.42503 0.0
O795 O 0.09171 0.99364 0.41109 0.0
O796 O 0.09315 0.04609 0.40802 0.0
O797 O 0.05164 0.94997 0.58632 0.0
C798 C 0.90131 0.0403 0.41816 0.0
O799 O 0.96807 0.94997 0.41653 0.0
C800 C 0.01688 0.09883 0.60067 0.0
O801 O 0.95975 0.9465 0.53815 0.0
C802 C 0.11903 0.02855 0.60457 0.0
O803 O 0.07998 0.94327 0.47571 0.0
C804 C 0.94142 0.0971 0.51874 0.0
O805 O 0.98229 0.09912 0.42792 0.0
O806 O 0.02788 0.07728 0.44333 0.0
C807 C 0.93599 0.01378 0.61872 0.0
O808 O 0.0427 0.10122 0.58345 0.0
O809 O 0.00156 0.07281 0.60132 0.0
C810 C 0.10122 0.09444 0.50161 0.0
O811 O 0.94195 0.09527 0.5494 0.0
O812 O 0.95717 0.07673 0.50229 0.0
C813 C 0.09971 0.01887 0.39641 0.0
O814 O 0.10021 0.09138 0.47111 0.0
O815 O 0.08352 0.07607 0.51857 0.0
C816 C 0.03414 0.95534 0.61126 0.0
O817 O 0.02755 0.98476 0.61929 0.0
C818 C 0.99612 0.9499 0.40293 0.0
O819 O 0.01473 0.97498 0.40601 0.0
Zn820 Zn 0.47313 0.07463 0.04919 0.0
Zn821 Zn 0.47649 0.08134 0.97157 0.0
O822 O 0.48309 0.05091 0.00794 0.0
H823 H 0.48326 0.0281 0.00767 0.0
C824 C 0.53816 0.12215 0.08667 0.0
O825 O 0.52763 0.12414 0.05672 0.0
Zn826 Zn 0.56475 0.971 0.95916 0.0
Zn827 Zn 0.55635 0.98198 0.03581 0.0
O828 O 0.5465 0.00103 0.99182 0.0
H829 H 0.53506 0.02055 0.9872 0.0
Zn830 Zn 0.58733 0.08669 0.05259 0.0
O831 O 0.5593 0.08031 0.01322 0.0
Zn832 Zn 0.58796 0.08008 0.97428 0.0
H833 H 0.53613 0.07603 0.01423 0.0
Zn834 Zn 0.4686 0.96514 0.04883 0.0
O835 O 0.49333 0.96412 0.00623 0.0
H836 H 0.51313 0.9517 0.00325 0.0
Zn837 Zn 0.45994 0.96898 0.97151 0.0
C838 C 0.51607 0.92739 0.08484 0.0
O839 O 0.5232 0.91888 0.05509 0.0
O840 O 0.4417 0.11182 0.04022 0.0
O841 O 0.44496 0.11557 0.98658 0.0
O842 O 0.59143 0.94681 0.03267 0.0
O843 O 0.59736 0.94054 0.97967 0.0
O844 O 0.63447 0.09968 0.04025 0.0
O845 O 0.63433 0.09196 0.98681 0.0
C846 C 0.44374 0.03214 0.93634 0.0
O847 O 0.42011 0.95214 0.04252 0.0
O848 O 0.41528 0.95667 0.98896 0.0
O849 O 0.57584 0.01242 0.06909 0.0
C850 C 0.43269 0.12416 0.01361 0.0
O851 O 0.45028 0.04506 0.08111 0.0
C852 C 0.60046 0.02245 0.93326 0.0
O853 O 0.5642 0.10644 0.09262 0.0
C854 C 0.60599 0.93425 0.00859 0.0
O855 O 0.49329 0.94767 0.08934 0.0
C856 C 0.53844 0.11126 0.9383 0.0
O857 O 0.45142 0.06113 0.9357 0.0
O858 O 0.4594 0.01415 0.95573 0.0
C859 C 0.64909 0.0996 0.01295 0.0
O860 O 0.59321 0.99396 0.92706 0.0
O861 O 0.58531 0.03655 0.95586 0.0
C862 C 0.50258 0.93394 0.92617 0.0
O863 O 0.56958 0.11012 0.94064 0.0
O864 O 0.52168 0.0951 0.95808 0.0
C865 C 0.40304 0.95057 0.01669 0.0
O866 O 0.47338 0.93912 0.93603 0.0
O867 O 0.52659 0.94833 0.93899 0.0
C868 C 0.60266 0.0233 0.0582 0.0
O869 O 0.60993 0.01816 0.02767 0.0
C870 C 0.42489 0.03324 0.068 0.0
O871 O 0.41886 0.03969 0.03749 0.0
Zn872 Zn 0.98152 0.49074 0.95203 0.0
Zn873 Zn 0.95462 0.56267 0.96097 0.0
O874 O 0.99356 0.53425 0.96854 0.0
H875 H 0.00574 0.53678 0.98838 0.0
C876 C 0.95507 0.43542 0.02385 0.0
O877 O 0.9556 0.45855 0.00272 0.0
Zn878 Zn 0.07225 0.56875 0.05727 0.0
Zn879 Zn 0.07485 0.49228 0.07392 0.0
O880 O 0.04649 0.52782 0.05411 0.0
H881 H 0.02537 0.52502 0.04386 0.0
Zn882 Zn 0.96412 0.4876 0.07122 0.0
O883 O 0.95681 0.52463 0.04061 0.0
Zn884 Zn 0.95588 0.56103 0.07218 0.0
H885 H 0.94432 0.52263 0.02086 0.0
Zn886 Zn 0.08218 0.4946 0.94985 0.0
O887 O 0.06484 0.53331 0.97213 0.0
H888 H 0.06352 0.53465 0.99534 0.0
Zn889 Zn 0.06639 0.56943 0.94084 0.0
C890 C 0.09335 0.44612 0.00028 0.0
O891 O 0.06331 0.45385 0.0088 0.0
O892 O 0.93638 0.491 0.93132 0.0
O893 O 0.91638 0.53959 0.93893 0.0
O894 O 0.11683 0.50998 0.09553 0.0
O895 O 0.1142 0.5606 0.081 0.0
O896 O 0.93902 0.49524 0.11354 0.0
O897 O 0.93389 0.54775 0.1136 0.0
C898 C 0.99673 0.6033 0.92214 0.0
O899 O 0.10587 0.50656 0.90855 0.0
O900 O 0.09397 0.55763 0.90077 0.0
O901 O 0.05556 0.45254 0.09803 0.0
C902 C 0.91368 0.51151 0.92783 0.0
O903 O 0.01223 0.46033 0.92626 0.0
C904 C 0.01765 0.59822 0.09043 0.0
O905 O 0.95876 0.44192 0.05362 0.0
C906 C 0.12843 0.5379 0.09578 0.0
O907 O 0.1065 0.46032 0.97664 0.0
C908 C 0.93307 0.60275 0.02291 0.0
O909 O 0.96766 0.59741 0.93142 0.0
O910 O 0.01992 0.58566 0.93271 0.0
C911 C 0.9287 0.52081 0.12641 0.0
O912 O 0.04816 0.59982 0.08511 0.0
O913 O 0.00215 0.57484 0.07874 0.0
C914 C 0.09179 0.6093 0.99321 0.0
O915 O 0.9332 0.59868 0.05333 0.0
O916 O 0.94292 0.57997 0.00517 0.0
C917 C 0.10824 0.53188 0.89221 0.0
O918 O 0.08871 0.60464 0.963 0.0
O919 O 0.0811 0.58817 0.01256 0.0
C920 C 0.03866 0.42945 0.08747 0.0
O921 O 0.02854 0.42958 0.05737 0.0
C922 C 0.01945 0.43334 0.93789 0.0
O923 O 0.01337 0.428 0.96855 0.0
Zn924 Zn 0.46651 0.47026 0.98654 0.0
Zn925 Zn 0.47299 0.46635 0.0642 0.0
O926 O 0.4858 0.49192 0.02546 0.0
H927 H 0.49725 0.51179 0.02495 0.0
C928 C 0.52758 0.44004 0.91811 0.0
O929 O 0.52075 0.47034 0.91631 0.0
Zn930 Zn 0.57186 0.57051 0.05982 0.0
Zn931 Zn 0.55682 0.57405 0.98365 0.0
O932 O 0.55349 0.5448 0.02291 0.0
H933 H 0.55265 0.52209 0.02094 0.0
Zn934 Zn 0.56643 0.453 0.98031 0.0
O935 O 0.54184 0.45053 0.02292 0.0
Zn936 Zn 0.57754 0.45373 0.05628 0.0
H937 H 0.52228 0.43782 0.02476 0.0
Zn938 Zn 0.48147 0.59575 0.98049 0.0
O939 O 0.5054 0.59111 0.0234 0.0
H940 H 0.52571 0.60241 0.02649 0.0
Zn941 Zn 0.47138 0.58568 0.05829 0.0
C942 C 0.5124 0.60562 0.91592 0.0
O943 O 0.50735 0.57519 0.91366 0.0
O944 O 0.4426 0.42961 0.99763 0.0
O945 O 0.44036 0.43182 0.05152 0.0
O946 O 0.58549 0.61313 0.99166 0.0
O947 O 0.60264 0.60265 0.0418 0.0
O948 O 0.6141 0.43683 0.98587 0.0
O949 O 0.61813 0.43162 0.03936 0.0
C950 C 0.45334 0.5256 0.09404 0.0
O951 O 0.43367 0.60985 0.98898 0.0
O952 O 0.42848 0.60538 0.04251 0.0
O953 O 0.5683 0.55546 0.93866 0.0
C954 C 0.43254 0.41906 0.02458 0.0
O955 O 0.44183 0.49651 0.95183 0.0
C956 C 0.59793 0.51367 0.08944 0.0
O957 O 0.54456 0.42973 0.94171 0.0
C958 C 0.60408 0.61856 0.01572 0.0
O959 O 0.50453 0.61965 0.94208 0.0
C960 C 0.53315 0.43331 0.10404 0.0
O961 O 0.45267 0.49564 0.09606 0.0
O962 O 0.46629 0.53891 0.06955 0.0
C963 C 0.62971 0.42785 0.01096 0.0
O964 O 0.59669 0.54357 0.091 0.0
O965 O 0.58487 0.49966 0.06557 0.0
C966 C 0.51716 0.60912 0.10424 0.0
O967 O 0.56348 0.43245 0.09701 0.0
O968 O 0.51413 0.44792 0.08459 0.0
C969 C 0.41701 0.61338 0.01488 0.0
O970 O 0.48666 0.60955 0.09757 0.0
O971 O 0.5363 0.5935 0.08567 0.0
C972 C 0.58147 0.52866 0.93337 0.0
O973 O 0.58635 0.5092 0.95764 0.0
C974 C 0.45678 0.51665 0.9347 0.0
O975 O 0.48793 0.52198 0.94061 0.0
Zn976 Zn 0.96276 0.48301 0.46719 0.0
Zn977 Zn 0.95764 0.5586 0.46141 0.0
O978 O 0.98975 0.52329 0.46842 0.0
H979 H 0.00969 0.52496 0.48096 0.0
C980 C 0.91112 0.45548 0.532 0.0
O981 O 0.90049 0.48454 0.53672 0.0
Zn982 Zn 0.07539 0.57107 0.56286 0.0
Zn983 Zn 0.07732 0.49541 0.56067 0.0
O984 O 0.0472 0.53285 0.55684 0.0
H985 H 0.02854 0.53253 0.54238 0.0
Zn986 Zn 0.96107 0.48468 0.56765 0.0
O987 O 0.96462 0.52445 0.54114 0.0
Zn988 Zn 0.96022 0.56134 0.57166 0.0
H989 H 0.95599 0.52306 0.51948 0.0
Zn990 Zn 0.08112 0.4883 0.45738 0.0
O991 O 0.07415 0.52765 0.48461 0.0
H992 H 0.0829 0.52826 0.50627 0.0
Zn993 Zn 0.07314 0.56398 0.4532 0.0
C994 C 0.12411 0.45479 0.50002 0.0
O995 O 0.13194 0.48434 0.50583 0.0
O996 O 0.91517 0.48925 0.44975 0.0
O997 O 0.91645 0.54137 0.44229 0.0
O998 O 0.12066 0.50777 0.58257 0.0
O999 O 0.11913 0.56046 0.5838 0.0
O1000 O 0.93341 0.49484 0.60796 0.0
O1001 O 0.93255 0.54758 0.60953 0.0
C1002 C 0.00776 0.59167 0.42803 0.0
O1003 O 0.11117 0.50071 0.42023 0.0
O1004 O 0.09856 0.55149 0.41338 0.0
O1005 O 0.05654 0.45465 0.5782 0.0
C1006 C 0.90197 0.51486 0.43978 0.0
O1007 O 0.98711 0.44352 0.44959 0.0
C1008 C 0.01973 0.59962 0.59274 0.0
O1009 O 0.93968 0.44789 0.54197 0.0
C1010 C 0.1334 0.53422 0.59005 0.0
O1011 O 0.10069 0.44914 0.48054 0.0
C1012 C 0.9313 0.59723 0.52108 0.0
O1013 O 0.9767 0.59018 0.43065 0.0
O1014 O 0.02532 0.57465 0.44658 0.0
C1015 C 0.92331 0.5208 0.62022 0.0
O1016 O 0.05048 0.60346 0.58916 0.0
O1017 O 0.00639 0.57568 0.57995 0.0
C1018 C 0.10148 0.60269 0.50137 0.0
O1019 O 0.93422 0.59691 0.55155 0.0
O1020 O 0.9479 0.57721 0.50495 0.0
C1021 C 0.11518 0.52689 0.40573 0.0
O1022 O 0.0996 0.60037 0.47094 0.0
O1023 O 0.08234 0.58577 0.518 0.0
C1024 C 0.03385 0.45758 0.59911 0.0
O1025 O 0.02282 0.48604 0.6062 0.0
C1026 C 0.01159 0.44626 0.4307 0.0
O1027 O 0.02248 0.47469 0.42407 0.0
Zn1028 Zn 0.47558 0.9941 0.45743 0.0
Zn1029 Zn 0.45309 0.06877 0.45712 0.0
O1030 O 0.49253 0.03888 0.45399 0.0
H1031 H 0.51069 0.04132 0.43918 0.0
C1032 C 0.43519 0.9403 0.52309 0.0
O1033 O 0.42879 0.96548 0.50556 0.0
Zn1034 Zn 0.58072 0.06809 0.56483 0.0
Zn1035 Zn 0.58746 0.99151 0.56164 0.0
O1036 O 0.55404 0.02759 0.56232 0.0
H1037 H 0.53134 0.02406 0.56799 0.0
Zn1038 Zn 0.47816 0.98449 0.56147 0.0
O1039 O 0.47264 0.0249 0.53496 0.0
Zn1040 Zn 0.46749 0.05884 0.56897 0.0
H1041 H 0.46671 0.0252 0.51237 0.0
Zn1042 Zn 0.56822 0.99968 0.47272 0.0
O1043 O 0.55084 0.04174 0.49122 0.0
H1044 H 0.5332 0.04332 0.50677 0.0
Zn1045 Zn 0.55912 0.07608 0.45707 0.0
C1046 C 0.60934 0.95008 0.50582 0.0
O1047 O 0.62923 0.97397 0.51064 0.0
O1048 O 0.42939 0.996 0.43882 0.0
O1049 O 0.41465 0.04685 0.43423 0.0
O1050 O 0.62902 0.0057 0.58539 0.0
O1051 O 0.62289 0.05821 0.58728 0.0
O1052 O 0.47105 0.99148 0.61014 0.0
O1053 O 0.44725 0.03887 0.60801 0.0
C1054 C 0.49466 0.11822 0.4372 0.0
O1055 O 0.59191 0.00723 0.43066 0.0
O1056 O 0.58218 0.05763 0.41747 0.0
O1057 O 0.57404 0.94642 0.57698 0.0
C1058 C 0.40935 0.01737 0.42945 0.0
O1059 O 0.50144 0.95759 0.4336 0.0
C1060 C 0.52611 0.10165 0.59016 0.0
O1061 O 0.4552 0.94259 0.54658 0.0
C1062 C 0.63886 0.03299 0.59376 0.0
O1063 O 0.58088 0.95559 0.494 0.0
C1064 C 0.43374 0.0995 0.52456 0.0
O1065 O 0.46453 0.11042 0.43724 0.0
O1066 O 0.51577 0.09765 0.44605 0.0
C1067 C 0.4528 0.01283 0.62251 0.0
O1068 O 0.55722 0.10237 0.58916 0.0
O1069 O 0.51183 0.0775 0.57857 0.0
C1070 C 0.59665 0.10908 0.50362 0.0
O1071 O 0.43838 0.09375 0.55428 0.0
O1072 O 0.44463 0.07929 0.50419 0.0
C1073 C 0.59483 0.03051 0.41154 0.0
O1074 O 0.5887 0.10975 0.47404 0.0
O1075 O 0.5864 0.08597 0.52039 0.0
C1076 C 0.54876 0.93001 0.57071 0.0
O1077 O 0.52587 0.94143 0.55154 0.0
C1078 C 0.49888 0.92891 0.44258 0.0
O1079 O 0.48292 0.92285 0.46939 0.0
C1080 C 0.14242 0.14955 0.56221 0.0
C1081 C 0.162 0.16835 0.54203 0.0
C1082 C 0.12267 0.12552 0.54919 0.0
C1083 C 0.12226 0.11944 0.51568 0.0
H1084 H 0.1421 0.1537 0.58806 0.0
H1085 H 0.10761 0.11181 0.56543 0.0
S1086 S 0.17167 0.16116 0.4532 0.0
N1087 N 0.18139 0.17852 0.48757 0.0
N1088 N 0.1447 0.13386 0.4629 0.0
C1089 C 0.14247 0.13795 0.49549 0.0
C1090 C 0.16226 0.16225 0.50873 0.0
C1091 C 0.86382 0.14048 0.49624 0.0
C1092 C 0.8755 0.16679 0.47909 0.0
C1093 C 0.88551 0.11762 0.50836 0.0
C1094 C 0.91948 0.12002 0.50321 0.0
H1095 H 0.83782 0.13815 0.50135 0.0
H1096 H 0.87571 0.09815 0.52228 0.0
S1097 S 0.96258 0.18341 0.45895 0.0
N1098 N 0.92327 0.19352 0.45694 0.0
N1099 N 0.96407 0.14992 0.47947 0.0
C1100 C 0.93156 0.14557 0.48539 0.0
C1101 C 0.90951 0.1692 0.47341 0.0
C1102 C 0.8614 0.90227 0.49822 0.0
C1103 C 0.87574 0.87353 0.48826 0.0
C1104 C 0.88075 0.9279 0.50738 0.0
C1105 C 0.91523 0.92564 0.50746 0.0
H1106 H 0.83488 0.90483 0.49935 0.0
H1107 H 0.86848 0.94924 0.5157 0.0
S1108 S 0.96502 0.85664 0.4805 0.0
N1109 N 0.9265 0.84494 0.4766 0.0
N1110 N 0.96314 0.89326 0.49445 0.0
C1111 C 0.93004 0.89746 0.49642 0.0
C1112 C 0.91022 0.87137 0.48658 0.0
C1113 C 0.16896 0.89174 0.52759 0.0
C1114 C 0.16152 0.86276 0.51268 0.0
C1115 C 0.14692 0.91728 0.52624 0.0
C1116 C 0.11687 0.91478 0.50958 0.0
H1117 H 0.19277 0.89523 0.53876 0.0
H1118 H 0.15469 0.93972 0.53622 0.0
S1119 S 0.08312 0.84207 0.47219 0.0
N1120 N 0.12012 0.8316 0.4849 0.0
N1121 N 0.07846 0.87951 0.48273 0.0
C1122 C 0.10769 0.88494 0.49763 0.0
C1123 C 0.13013 0.85892 0.49905 0.0
C1124 C 0.50616 0.14925 0.16844 0.0
C1125 C 0.49664 0.18069 0.16209 0.0
C1126 C 0.51934 0.13005 0.14381 0.0
C1127 C 0.52258 0.14156 0.11207 0.0
H1128 H 0.50455 0.1399 0.19276 0.0
H1129 H 0.52724 0.10619 0.14964 0.0
S1130 S 0.50005 0.22178 0.08309 0.0
N1131 N 0.49058 0.22213 0.1219 0.0
N1132 N 0.51464 0.18598 0.0756 0.0
C1133 C 0.51207 0.17256 0.10534 0.0
C1134 C 0.49928 0.19216 0.13038 0.0
C1135 C 0.8803 0.54429 0.20049 0.0
C1136 C 0.85272 0.52461 0.1981 0.0
C1137 C 0.90609 0.54184 0.17813 0.0
C1138 C 0.90535 0.51907 0.15339 0.0
H1139 H 0.88105 0.56284 0.21857 0.0
H1140 H 0.92611 0.55856 0.17947 0.0
S1141 S 0.83987 0.46011 0.1388 0.0
N1142 N 0.82698 0.48048 0.17052 0.0
N1143 N 0.87585 0.47521 0.12899 0.0
C1144 C 0.87889 0.4979 0.15212 0.0
C1145 C 0.85239 0.50086 0.17438 0.0
C1146 C 0.56211 0.86425 0.13179 0.0
C1147 C 0.55628 0.87262 0.16416 0.0
C1148 C 0.55031 0.88299 0.10642 0.0
C1149 C 0.53174 0.91063 0.11241 0.0
H1150 H 0.57516 0.84252 0.12604 0.0
H1151 H 0.55475 0.87495 0.08191 0.0
S1152 S 0.51226 0.94421 0.19328 0.0
N1153 N 0.5329 0.91132 0.20117 0.0
N1154 N 0.51037 0.94671 0.15346 0.0
C1155 C 0.52708 0.92007 0.1448 0.0
C1156 C 0.53946 0.90103 0.17069 0.0
C1157 C 0.20144 0.52774 0.15219 0.0
C1158 C 0.20428 0.55812 0.16575 0.0
C1159 C 0.17743 0.5214 0.1287 0.0
C1160 C 0.15603 0.54541 0.11769 0.0
H1161 H 0.21726 0.50865 0.16041 0.0
H1162 H 0.17534 0.49751 0.11947 0.0
S1163 S 0.15506 0.62922 0.14509 0.0
N1164 N 0.18496 0.61246 0.16601 0.0
N1165 N 0.14001 0.60098 0.12198 0.0
C1166 C 0.1595 0.5761 0.13056 0.0
C1167 C 0.18357 0.58232 0.15461 0.0
C1168 C 0.48883 0.86342 0.87214 0.0
C1169 C 0.51513 0.86508 0.85035 0.0
C1170 C 0.48532 0.88568 0.89684 0.0
C1171 C 0.50825 0.91012 0.90077 0.0
H1172 H 0.47041 0.8452 0.86955 0.0
H1173 H 0.46434 0.88378 0.91286 0.0
S1174 S 0.58248 0.92347 0.85058 0.0
N1175 N 0.56502 0.89204 0.83433 0.0
N1176 N 0.55896 0.9339 0.88145 0.0
C1177 C 0.53537 0.91136 0.87969 0.0
C1178 C 0.53865 0.88883 0.85419 0.0
C1179 C 0.19385 0.52513 0.85981 0.0
C1180 C 0.18934 0.5229 0.82617 0.0
C1181 C 0.16724 0.52982 0.88056 0.0
C1182 C 0.13506 0.5326 0.86859 0.0
H1183 H 0.21807 0.52216 0.87037 0.0
H1184 H 0.17175 0.53026 0.9064 0.0
S1185 S 0.10968 0.53 0.78274 0.0
N1186 N 0.15007 0.52525 0.7817 0.0
N1187 N 0.09974 0.53364 0.82134 0.0
C1188 C 0.12996 0.53124 0.83513 0.0
C1189 C 0.1572 0.5264 0.81376 0.0
C1190 C 0.51015 0.18161 0.88988 0.0
C1191 C 0.51176 0.16995 0.85796 0.0
C1192 C 0.51605 0.1617 0.91644 0.0
C1193 C 0.52338 0.12952 0.91191 0.0
H1194 H 0.50663 0.20666 0.89429 0.0
H1195 H 0.51695 0.17193 0.94046 0.0
S1196 S 0.5256 0.0863 0.83403 0.0
N1197 N 0.51714 0.12325 0.82386 0.0
N1198 N 0.52887 0.08614 0.87385 0.0
C1199 C 0.52267 0.1171 0.88049 0.0
C1200 C 0.51662 0.13724 0.85347 0.0
C1201 C 0.86949 0.47653 0.85628 0.0
C1202 C 0.8368 0.48656 0.86054 0.0
C1203 C 0.89378 0.48456 0.87857 0.0
C1204 C 0.88651 0.50337 0.9058 0.0
H1205 H 0.87633 0.46222 0.83556 0.0
H1206 H 0.91868 0.47636 0.87407 0.0
S1207 S 0.80475 0.5361 0.92774 0.0
N1208 N 0.79818 0.51632 0.89387 0.0
N1209 N 0.8444 0.53204 0.93575 0.0
C1210 C 0.85401 0.51388 0.91029 0.0
C1211 C 0.82898 0.5052 0.88772 0.0
C1212 C 0.68723 0.65555 0.02094 0.0
C1213 C 0.68018 0.68794 0.01716 0.0
C1214 C 0.66237 0.6331 0.01923 0.0
C1215 C 0.62981 0.64221 0.0129 0.0
H1216 H 0.71203 0.64752 0.02617 0.0
H1217 H 0.66853 0.60848 0.02354 0.0
S1218 S 0.59856 0.72323 0.99796 0.0
N1219 N 0.63827 0.72774 0.00497 0.0
N1220 N 0.5917 0.68484 0.0003 0.0
C1221 C 0.62256 0.67406 0.00682 0.0
C1222 C 0.64778 0.69716 0.00923 0.0
C1223 C 0.34297 0.65466 0.97854 0.0
C1224 C 0.33434 0.67665 0.00267 0.0
C1225 C 0.36844 0.63268 0.98348 0.0
C1226 C 0.3859 0.63164 0.01287 0.0
H1227 H 0.33114 0.65551 0.95508 0.0
H1228 H 0.37538 0.61725 0.96364 0.0
S1229 S 0.36985 0.68161 0.08514 0.0
N1230 N 0.34291 0.69409 0.05805 0.0
N1231 N 0.39078 0.65282 0.06743 0.0
C1232 C 0.37594 0.65208 0.03797 0.0
C1233 C 0.35023 0.67464 0.03281 0.0
C1234 C 0.38591 0.34488 0.00463 0.0
C1235 C 0.35301 0.35513 0.0077 0.0
C1236 C 0.41203 0.36516 0.01201 0.0
C1237 C 0.40596 0.39597 0.02333 0.0
H1238 H 0.39148 0.32122 0.99607 0.0
H1239 H 0.43705 0.35703 0.00812 0.0
S1240 S 0.32479 0.43496 0.03341 0.0
N1241 N 0.31613 0.39881 0.02109 0.0
N1242 N 0.36528 0.43632 0.03601 0.0
C1243 C 0.37337 0.40636 0.02687 0.0
C1244 C 0.34684 0.38605 0.01884 0.0
C1245 C 0.7109 0.39115 0.98613 0.0
C1246 C 0.7042 0.35853 0.98852 0.0
C1247 C 0.68714 0.41399 0.9945 0.0
C1248 C 0.65633 0.40484 0.00624 0.0
H1249 H 0.73457 0.3991 0.97744 0.0
H1250 H 0.69271 0.43882 0.99142 0.0
S1251 S 0.62558 0.32322 0.01583 0.0
N1252 N 0.66347 0.31872 0.00215 0.0
N1253 N 0.61971 0.36173 0.0193 0.0
C1254 C 0.64942 0.37258 0.00928 0.0
C1255 C 0.67316 0.34936 0.00014 0.0
C1256 C 0.99048 0.67851 0.62337 0.0
C1257 C 0.97633 0.67072 0.6534 0.0
C1258 C 0.00283 0.65505 0.60275 0.0
C1259 C 0.00059 0.62301 0.61099 0.0
H1260 H 0.99347 0.70302 0.61645 0.0
H1261 H 0.01533 0.66206 0.58078 0.0
S1262 S 0.96405 0.5896 0.68529 0.0
N1263 N 0.95973 0.62826 0.68953 0.0
N1264 N 0.98186 0.5842 0.6498 0.0
C1265 C 0.98458 0.61462 0.63968 0.0
C1266 C 0.97258 0.63851 0.66111 0.0
C1267 C 0.40613 0.9891 0.69759 0.0
C1268 C 0.37679 0.97738 0.68405 0.0
C1269 C 0.43118 0.00107 0.6778 0.0
C1270 C 0.42717 0.00171 0.64417 0.0
H1271 H 0.40945 0.98955 0.72358 0.0
H1272 H 0.45351 0.00994 0.68874 0.0
S1273 S 0.35647 0.97215 0.59676 0.0
N1274 N 0.34635 0.9657 0.63484 0.0
N1275 N 0.39302 0.98882 0.59793 0.0
C1276 C 0.39834 0.98974 0.6304 0.0
C1277 C 0.37317 0.97741 0.6503 0.0
C1278 C 0.03202 0.37358 0.62969 0.0
C1279 C 0.02779 0.37807 0.66307 0.0
C1280 C 0.03143 0.39941 0.6085 0.0
C1281 C 0.02614 0.43038 0.62005 0.0
H1282 H 0.03816 0.35036 0.62024 0.0
H1283 H 0.03693 0.39532 0.5832 0.0
S1284 S 0.00866 0.45339 0.70502 0.0
N1285 N 0.0145 0.41474 0.70638 0.0
N1286 N 0.01271 0.46335 0.66664 0.0
C1287 C 0.01882 0.43462 0.65303 0.0
C1288 C 0.01991 0.4084 0.67458 0.0
C1289 C 0.67261 0.0425 0.67684 0.0
C1290 C 0.70581 0.04932 0.67107 0.0
C1291 C 0.65156 0.03539 0.65132 0.0
C1292 C 0.6631 0.03497 0.61938 0.0
H1293 H 0.66273 0.04334 0.70117 0.0
H1294 H 0.62578 0.03136 0.65645 0.0
S1295 S 0.74814 0.0485 0.5916 0.0
N1296 N 0.74976 0.05319 0.63126 0.0
N1297 N 0.70954 0.03977 0.58305 0.0
C1298 C 0.69636 0.04023 0.61322 0.0
C1299 C 0.71798 0.04736 0.63925 0.0
C1300 C 0.01244 0.36365 0.39601 0.0
C1301 C 0.03098 0.36717 0.36763 0.0
C1302 C 0.00844 0.38878 0.41768 0.0
C1303 C 0.02284 0.4184 0.41175 0.0
H1304 H -0.001 0.34204 0.40041 0.0
H1305 H 0.99229 0.38542 0.43819 0.0
S1306 S 0.08006 0.43707 0.34448 0.0
N1307 N 0.06829 0.40042 0.33724 0.0
N1308 N 0.06119 0.44787 0.37815 0.0
C1309 C 0.04428 0.42113 0.38513 0.0
C1310 C 0.04814 0.39548 0.36293 0.0
C1311 C 0.63197 0.02814 0.32769 0.0
C1312 C 0.6637 0.01621 0.33417 0.0
C1313 C 0.60958 0.03373 0.35294 0.0
C1314 C 0.61831 0.02685 0.38502 0.0
H1315 H 0.62464 0.03345 0.30309 0.0
H1316 H 0.58524 0.04279 0.34736 0.0
S1317 S 0.69846 0.99597 0.41447 0.0
N1318 N 0.70277 0.9983 0.37486 0.0
N1319 N 0.66069 0.00844 0.42211 0.0
C1320 C 0.64995 0.0151 0.39169 0.0
C1321 C 0.6727 0.00984 0.36626 0.0
C1322 C 0.05805 0.65513 0.38728 0.0
C1323 C 0.04358 0.65639 0.35645 0.0
C1324 C 0.04761 0.63283 0.41016 0.0
C1325 C 0.02211 0.61174 0.40282 0.0
H1326 H 0.0767 0.67209 0.39401 0.0
H1327 H 0.05824 0.63324 0.43414 0.0
S1328 S 0.97765 0.60506 0.32483 0.0
N1329 N 0.00384 0.63421 0.31923 0.0
N1330 N 0.98379 0.59263 0.36222 0.0
C1331 C 0.0082 0.61237 0.37173 0.0
C1332 C 0.01907 0.63468 0.34849 0.0
C1333 C 0.37413 0.97632 0.35681 0.0
C1334 C 0.3421 0.9885 0.35472 0.0
C1335 C 0.39497 0.98535 0.38183 0.0
C1336 C 0.38481 0.00738 0.40544 0.0
H1337 H 0.38326 0.9599 0.3387 0.0
H1338 H 0.41974 0.97567 0.38203 0.0
S1339 S 0.30267 0.04528 0.41127 0.0
N1340 N 0.30034 0.0226 0.37875 0.0
N1341 N 0.34032 0.04051 0.42573 0.0
C1342 C 0.35268 0.01957 0.4039 0.0
C1343 C 0.33106 0.00979 0.37858 0.0
C1344 C 0.04481 0.16271 0.37329 0.0
C1345 C 0.0351 0.15249 0.34229 0.0
C1346 C 0.04142 0.14295 0.40046 0.0
C1347 C 0.0288 0.11227 0.39722 0.0
H1348 H 0.05206 0.18704 0.37704 0.0
H1349 H 0.04596 0.15264 0.42429 0.0
S1350 S 0.00441 0.07292 0.3209 0.0
N1351 N 0.01577 0.10868 0.30964 0.0
N1352 N 0.00997 0.07149 0.36045 0.0
C1353 C 0.02205 0.10088 0.36603 0.0
C1354 C 0.0251 0.12101 0.33856 0.0
C1355 C 0.88095 0.05751 0.33261 0.0
C1356 C 0.85214 0.03995 0.32865 0.0
C1357 C 0.89457 0.06154 0.36345 0.0
C1358 C 0.87987 0.04776 0.39084 0.0
H1359 H 0.89437 0.06583 0.31169 0.0
H1360 H 0.91851 0.07251 0.36538 0.0
S1361 S 0.8004 0.00603 0.39358 0.0
N1362 N 0.80604 0.0141 0.3549 0.0
N1363 N 0.83269 0.02044 0.41272 0.0
C1364 C 0.84939 0.03312 0.38748 0.0
C1365 C 0.83521 0.02955 0.3563 0.0
C1366 C 0.99206 0.87663 0.34908 0.0
C1367 C 0.02433 0.87383 0.33699 0.0
C1368 C 0.98331 0.90078 0.37094 0.0
C1369 C 0.00643 0.92322 0.38151 0.0
H1370 H 0.97349 0.85975 0.34198 0.0
H1371 H 0.95809 0.90203 0.3793 0.0
S1372 S 0.09437 0.92581 0.35761 0.0
N1373 N 0.07938 0.8958 0.33708 0.0
N1374 N 0.06338 0.94015 0.37892 0.0
C1375 C 0.03886 0.92039 0.36988 0.0
C1376 C 0.04767 0.89603 0.34746 0.0
C1377 C 0.15763 0.98492 0.33433 0.0
C1378 C 0.15445 0.00578 0.30813 0.0
C1379 C 0.14039 0.99005 0.36296 0.0
C1380 C 0.11887 0.01595 0.36635 0.0
H1381 H 0.17383 0.96449 0.33273 0.0
H1382 H 0.14389 0.97343 0.38261 0.0
S1383 S 0.10394 0.07894 0.30567 0.0
N1384 N 0.13025 0.05454 0.28784 0.0
N1385 N 0.09679 0.06392 0.34186 0.0
C1386 C 0.11632 0.03774 0.34077 0.0
C1387 C 0.13432 0.03265 0.31153 0.0
C1388 C 0.98803 0.9116 0.67686 0.0
C1389 C 0.00451 0.88233 0.67843 0.0
C1390 C 0.99759 0.93479 0.65474 0.0
C1391 C 0.02359 0.92946 0.6329 0.0
H1392 H 0.96777 0.91674 0.6931 0.0
H1393 H 0.98442 0.9571 0.65485 0.0
S1394 S 0.07427 0.85633 0.62682 0.0
N1395 N 0.0478 0.84892 0.65608 0.0
N1396 N 0.06569 0.89252 0.61426 0.0
C1397 C 0.04008 0.90011 0.63397 0.0
C1398 C 0.0306 0.87659 0.65684 0.0
C1399 C 0.18284 0.02768 0.67151 0.0
C1400 C 0.16697 0.00903 0.69502 0.0
C1401 C 0.16688 0.03591 0.64244 0.0
C1402 C 0.1347 0.02573 0.63645 0.0
H1403 H 0.20834 0.03424 0.67473 0.0
H1404 H 0.18025 0.04874 0.62405 0.0
S1405 S 0.08126 0.98014 0.69184 0.0
N1406 N 0.11645 0.98341 0.71146 0.0
N1407 N 0.0865 0.99901 0.65733 0.0
C1408 C 0.11802 0.00901 0.66069 0.0
C1409 C 0.13414 1.0006 0.68992 0.0
C1410 C 0.048 0.13237 0.67908 0.0
C1411 C 0.02591 0.15747 0.68524 0.0
C1412 C 0.04408 0.11269 0.65222 0.0
C1413 C 0.01758 0.11703 0.63089 0.0
H1414 H 0.06965 0.12912 0.69404 0.0
H1415 H 0.0626 0.09472 0.64738 0.0
S1416 S 0.94948 0.17491 0.63919 0.0
N1417 N 0.97426 0.18288 0.66979 0.0
N1418 N 0.96641 0.14471 0.61981 0.0
C1419 C 0.99353 0.13974 0.63836 0.0
C1420 C -0.00228 0.16022 0.66555 0.0
C1421 C 0.87306 0.02126 0.68505 0.0
C1422 C 0.89281 0.02802 0.71212 0.0
C1423 C 0.88721 0.01426 0.65493 0.0
C1424 C 0.9215 0.01319 0.65122 0.0
H1425 H 0.84654 0.02361 0.68667 0.0
H1426 H 0.87132 0.0113 0.63412 0.0
S1427 S 0.98377 0.02786 0.71479 0.0
N1428 N 0.94812 0.03239 0.73351 0.0
N1429 N 0.97483 0.01838 0.67704 0.0
C1430 C 0.94145 0.01815 0.67847 0.0
C1431 C 0.92705 0.02581 0.70897 0.0
C1432 C 0.38542 0.99235 0.13934 0.0
C1433 C 0.35294 0.98805 0.12875 0.0
C1434 C 0.4089 0.00609 0.11913 0.0
C1435 C 0.40071 0.01573 0.08756 0.0
H1436 H 0.39238 0.98608 0.16382 0.0
H1437 H 0.43342 0.00981 0.1286 0.0
S1438 S 0.31921 0.00698 0.0479 0.0
N1439 N 0.31397 0.99257 0.08461 0.0
N1440 N 0.358 0.01811 0.04614 0.0
C1441 C 0.36853 0.01017 0.07628 0.0
C1442 C 0.34462 0.99647 0.09705 0.0
C1443 C 0.03542 0.37817 0.16268 0.0
C1444 C 0.02658 0.34824 0.15077 0.0
C1445 C 0.03849 0.40425 0.14211 0.0
C1446 C 0.03283 0.40163 0.10865 0.0
H1447 H 0.03977 0.38158 0.1883 0.0
H1448 H 0.04549 0.42669 0.15263 0.0
S1449 S 0.00938 0.32819 0.0651 0.0
N1450 N 0.01217 0.3173 0.10336 0.0
N1451 N 0.01798 0.3663 0.06446 0.0
C1452 C 0.02353 0.37184 0.09636 0.0
C1453 C 0.02038 0.34519 0.11746 0.0
C1454 C 0.68742 0.03909 0.09089 0.0
C1455 C 0.68203 0.04061 0.12438 0.0
C1456 C 0.66116 0.03609 0.06936 0.0
C1457 C 0.62851 0.03445 0.08054 0.0
H1458 H 0.71225 0.03812 0.08142 0.0
H1459 H 0.66683 0.03294 0.04396 0.0
S1460 S 0.60095 0.04298 0.16565 0.0
N1461 N 0.64148 0.04419 0.16759 0.0
N1462 N 0.59194 0.03925 0.12691 0.0
C1463 C 0.62256 0.03908 0.11372 0.0
C1464 C 0.6494 0.04205 0.13571 0.0
C1465 C 0.99667 0.6484 0.162 0.0
C1466 C 0.00252 0.67905 0.14985 0.0
C1467 C 0.99665 0.62176 0.1415 0.0
C1468 C 0.00231 0.62483 0.10815 0.0
H1469 H 0.99506 0.64452 0.18783 0.0
H1470 H 0.99554 0.59845 0.15228 0.0
S1471 S 0.01267 0.6999 0.06328 0.0
N1472 N 0.0088 0.71103 0.10141 0.0
N1473 N 0.00978 0.66096 0.06333 0.0
C1474 C 0.0049 0.65547 0.09535 0.0
C1475 C 0.00477 0.68257 0.11606 0.0
C1476 C 0.38182 0.97947 0.89307 0.0
C1477 C 0.3595 0.00153 0.87973 0.0
C1478 C 0.40884 0.98932 0.9116 0.0
C1479 C 0.41492 0.02154 0.91709 0.0
H1480 H 0.37892 0.95442 0.88851 0.0
H1481 H 0.42526 0.97156 0.92114 0.0
S1482 S 0.36139 0.0886 0.89083 0.0
N1483 N 0.34332 0.05685 0.87622 0.0
N1484 N 0.39448 0.07548 0.90974 0.0
C1485 C 0.39208 0.04378 0.9047 0.0
C1486 C 0.36436 0.03374 0.88636 0.0
C1487 C 0.02515 0.3848 0.86077 0.0
C1488 C 0.03258 0.35419 0.87201 0.0
C1489 C 0.02242 0.41044 0.88211 0.0
C1490 C 0.02672 0.40652 0.91567 0.0
H1491 H 0.02176 0.38909 0.83516 0.0
H1492 H 0.01615 0.43339 0.87214 0.0
S1493 S 0.04653 0.33098 0.95735 0.0
N1494 N 0.0444 0.32129 0.91872 0.0
N1495 N 0.03902 0.36936 0.959 0.0
C1496 C 0.03442 0.376 0.92719 0.0
C1497 C 0.03742 0.34991 0.90536 0.0
C1498 C 0.65619 0.06065 0.8719 0.0
C1499 C 0.68757 0.05314 0.88424 0.0
C1500 C 0.62757 0.0522 0.88871 0.0
C1501 C 0.62972 0.03616 0.9183 0.0
H1502 H 0.65384 0.07227 0.84867 0.0
H1503 H 0.60375 0.05723 0.87804 0.0
S1504 S 0.70583 0.01199 0.96118 0.0
N1505 N 0.71903 0.02957 0.92798 0.0
N1506 N 0.66525 0.01381 0.9597 0.0
C1507 C 0.66088 0.02943 0.9313 0.0
C1508 C 0.6899 0.03791 0.9142 0.0
C1509 C 0.97416 0.67365 0.87032 0.0
C1510 C 0.00411 0.6886 0.86394 0.0
C1511 C 0.97286 0.6459 0.88825 0.0
C1512 C 0.00137 0.63161 0.90123 0.0
H1513 H 0.95132 0.68313 0.86073 0.0
H1514 H 0.9489 0.63553 0.89175 0.0
S1515 S 0.08652 0.66077 0.89039 0.0
N1516 N 0.06347 0.68681 0.8708 0.0
N1517 N 0.06099 0.63428 0.90537 0.0
C1518 C 0.03181 0.64594 0.89463 0.0
C1519 C 0.03317 0.67447 0.87582 0.0
C1520 C 0.10548 0.35973 0.01967 0.0
C1521 C 0.13985 0.35669 0.01819 0.0
C1522 C 0.09034 0.38963 0.01748 0.0
C1523 C 0.10917 0.41705 0.01273 0.0
H1524 H 0.09027 0.33883 0.0201 0.0
H1525 H 0.06377 0.3909 0.01648 0.0
S1526 S 0.20016 0.42169 0.01302 0.0
N1527 N 0.19234 0.38359 0.01668 0.0
N1528 N 0.16394 0.43962 0.01152 0.0
C1529 C 0.14357 0.41443 0.01433 0.0
C1530 C 0.15891 0.38421 0.01729 0.0
C1531 C 0.13444 0.68766 0.98429 0.0
C1532 C 0.13288 0.70135 0.01512 0.0
C1533 C 0.12221 0.65762 0.97849 0.0
C1534 C 0.10736 0.63961 0.0031 0.0
H1535 H 0.14602 0.70001 0.96441 0.0
H1536 H 0.12454 0.64858 0.95408 0.0
S1537 S 0.09814 0.6648 0.08865 0.0
N1538 N 0.11652 0.69495 0.0711 0.0
N1539 N 0.093 0.63787 0.06011 0.0
C1540 C 0.10621 0.65282 0.03437 0.0
C1541 C 0.11903 0.6838 0.04039 0.0
C1542 C 0.36517 0.18573 0.02267 0.0
C1543 C 0.33716 0.16906 0.01207 0.0
C1544 C 0.39639 0.17129 0.0234 0.0
C1545 C 0.40051 0.13998 0.01303 0.0
H1546 H 0.36319 0.21044 0.02938 0.0
H1547 H 0.41741 0.18482 0.0314 0.0
S1548 S 0.33516 0.08483 0.98691 0.0
N1549 N 0.31556 0.11847 0.99415 0.0
N1550 N 0.37431 0.09178 0.99453 0.0
C1551 C 0.37275 0.12271 0.00353 0.0
C1552 C 0.34102 0.13715 0.00324 0.0
C1553 C 0.92759 0.35014 0.03003 0.0
C1554 C 0.91947 0.34242 0.99795 0.0
C1555 C 0.94082 0.37965 0.03787 0.0
C1556 C 0.94622 0.40277 0.01398 0.0
H1557 H 0.9222 0.33381 0.04946 0.0
H1558 H 0.94535 0.38482 0.06314 0.0
S1559 S 0.93263 0.39284 0.92568 0.0
N1560 N 0.92073 0.35908 0.94166 0.0
N1561 N 0.94504 0.41466 0.95638 0.0
C1562 C 0.94026 0.39453 0.9815 0.0
C1563 C 0.92713 0.3643 0.97349 0.0
C1564 C 0.67778 0.87758 0.99559 0.0
C1565 C 0.69863 0.88439 0.02188 0.0
C1566 C 0.64758 0.89342 0.99163 0.0
C1567 C 0.63685 0.91623 0.01412 0.0
H1568 H 0.6844 0.85928 0.97838 0.0
H1569 H 0.63236 0.88748 0.97102 0.0
S1570 S 0.68394 0.94528 0.08505 0.0
N1571 N 0.70773 0.91763 0.06901 0.0
N1572 N 0.65067 0.94663 0.06223 0.0
C1573 C 0.65782 0.92378 0.04009 0.0
C1574 C 0.68876 0.90808 0.04379 0.0
C1575 C 0.91537 0.69024 0.02357 0.0
C1576 C 0.89818 0.69554 0.99448 0.0
C1577 C 0.9281 0.6605 0.03126 0.0
C1578 C 0.92422 0.63447 0.01043 0.0
H1579 H 0.91675 0.7083 0.04207 0.0
H1580 H 0.93955 0.65757 0.05473 0.0
S1581 S 0.88679 0.63651 0.9288 0.0
N1582 N 0.88333 0.67324 0.94209 0.0
N1583 N 0.90529 0.61647 0.95793 0.0
C1584 C 0.90981 0.63976 0.98007 0.0
C1585 C 0.89733 0.67049 0.97179 0.0
C1586 C 0.3356 0.89299 0.03566 0.0
C1587 C 0.31252 0.89927 0.01107 0.0
C1588 C 0.36369 0.91163 0.03924 0.0
C1589 C 0.36987 0.93683 0.01802 0.0
H1590 H 0.33329 0.87217 0.0507 0.0
H1591 H 0.38189 0.90465 0.05706 0.0
S1592 S 0.3132 0.9679 0.95533 0.0
N1593 N 0.29454 0.93625 0.96955 0.0
N1594 N 0.34814 0.97056 0.97548 0.0
C1595 C 0.34559 0.94516 0.9954 0.0
C1596 C 0.31669 0.92656 0.99214 0.0
C1597 C 0.73087 0.12124 0.97659 0.0
C1598 C 0.74024 0.14739 0.99544 0.0
C1599 C 0.70245 0.10422 0.98386 0.0
C1600 C 0.68266 0.11242 0.01049 0.0
H1601 H 0.74436 0.11522 0.95481 0.0
H1602 H 0.69493 0.08569 0.96743 0.0
S1603 S 0.69848 0.17653 0.06968 0.0
N1604 N 0.72889 0.17906 0.04341 0.0
N1605 N 0.67618 0.14624 0.05773 0.0
C1606 C 0.69342 0.13657 0.03129 0.0
C1607 C 0.7221 0.15426 0.02361 0.0
C1608 C 0.52709 0.67543 0.86042 0.0
C1609 C 0.52921 0.66115 0.82979 0.0
C1610 C 0.5238 0.65717 0.88848 0.0
C1611 C 0.52224 0.62395 0.88687 0.0
H1612 H 0.5259 0.70096 0.86247 0.0
H1613 H 0.52065 0.66934 0.91135 0.0
S1614 S 0.53149 0.57535 0.81231 0.0
N1615 N 0.53299 0.61226 0.7994 0.0
N1616 N 0.52706 0.57754 0.85195 0.0
C1617 C 0.52683 0.6094 0.8564 0.0
C1618 C 0.53016 0.62811 0.82788 0.0
C1619 C 0.44493 0.5306 0.84528 0.0
C1620 C 0.41056 0.53294 0.84271 0.0
C1621 C 0.46017 0.52828 0.87565 0.0
C1622 C 0.4414 0.52757 0.90427 0.0
H1623 H 0.45985 0.52834 0.82369 0.0
H1624 H 0.48651 0.52431 0.8765 0.0
S1625 S 0.3508 0.53636 0.91023 0.0
N1626 N 0.35846 0.53741 0.87102 0.0
N1627 N 0.38695 0.53252 0.92811 0.0
C1628 C 0.40721 0.53215 0.90197 0.0
C1629 C 0.39182 0.53499 0.87114 0.0
C1630 C 0.49511 0.41015 0.83712 0.0
C1631 C 0.50891 0.37966 0.83538 0.0
C1632 C 0.50015 0.42929 0.86456 0.0
C1633 C 0.51914 0.41844 0.891 0.0
H1634 H 0.48146 0.41962 0.81678 0.0
H1635 H 0.48991 0.45301 0.86462 0.0
S1636 S 0.55832 0.339 0.89833 0.0
N1637 N 0.54045 0.3387 0.86253 0.0
N1638 N 0.54998 0.3741 0.91388 0.0
C1639 C 0.53168 0.38729 0.88982 0.0
C1640 C 0.52657 0.36807 0.86204 0.0
C1641 C 0.61755 0.48228 0.86307 0.0
C1642 C 0.62748 0.50618 0.84154 0.0
C1643 C 0.60171 0.48966 0.89226 0.0
C1644 C 0.59494 0.5212 0.90093 0.0
H1645 H 0.62359 0.45773 0.85822 0.0
H1646 H 0.59559 0.47054 0.90854 0.0
S1647 S 0.61436 0.59248 0.85225 0.0
N1648 N 0.62756 0.56253 0.83001 0.0
N1649 N 0.59867 0.57654 0.88517 0.0
C1650 C 0.60355 0.54526 0.87903 0.0
C1651 C 0.61959 0.53772 0.84928 0.0
C1652 C 0.47669 0.40326 0.17093 0.0
C1653 C 0.4972 0.38219 0.18825 0.0
C1654 C 0.48843 0.4202 0.14407 0.0
C1655 C 0.52117 0.41679 0.13352 0.0
H1656 H 0.45116 0.40626 0.17784 0.0
H1657 H 0.4716 0.43572 0.13126 0.0
S1658 S 0.58501 0.36463 0.17043 0.0
N1659 N 0.55183 0.35875 0.19245 0.0
N1660 N 0.57416 0.39112 0.14316 0.0
C1661 C 0.54215 0.39645 0.15122 0.0
C1662 C 0.53014 0.37906 0.17825 0.0
C1663 C 0.66094 0.49159 0.15056 0.0
C1664 C 0.64186 0.49077 0.17897 0.0
C1665 C 0.6461 0.49479 0.12014 0.0
C1666 C 0.61178 0.4968 0.11721 0.0
H1667 H 0.68751 0.49296 0.15202 0.0
H1668 H 0.66159 0.49876 0.09923 0.0
S1669 S 0.55086 0.49043 0.18334 0.0
N1670 N 0.58688 0.48782 0.20171 0.0
N1671 N 0.55904 0.49428 0.14442 0.0
C1672 C 0.59243 0.49288 0.14496 0.0
C1673 C 0.60748 0.4897 0.17593 0.0
C1674 C 0.52031 0.67054 0.17147 0.0
C1675 C 0.55084 0.66497 0.18657 0.0
C1676 C 0.5098 0.65218 0.14522 0.0
C1677 C 0.52943 0.62756 0.13249 0.0
H1678 H 0.50468 0.68993 0.17933 0.0
H1679 H 0.48623 0.65787 0.13437 0.0
S1680 S 0.6099 0.60073 0.16526 0.0
N1681 N 0.59945 0.63105 0.18844 0.0
N1682 N 0.57996 0.59707 0.13854 0.0
C1683 C 0.5597 0.62113 0.14774 0.0
C1684 C 0.57031 0.63966 0.17484 0.0
C1685 C 0.38992 0.55261 0.15324 0.0
C1686 C 0.4092 0.56191 0.17973 0.0
C1687 C 0.40458 0.54351 0.12409 0.0
C1688 C 0.43889 0.54359 0.12064 0.0
H1689 H 0.36338 0.55145 0.15545 0.0
H1690 H 0.38912 0.53481 0.10471 0.0
S1691 S 0.49991 0.56556 0.18312 0.0
N1692 N 0.46391 0.57133 0.2008 0.0
N1693 N 0.49177 0.5529 0.14615 0.0
C1694 C 0.45838 0.55342 0.14676 0.0
C1695 C 0.4434 0.56301 0.17636 0.0
C1696 C 0.8609 0.48965 0.67872 0.0
C1697 C 0.83135 0.50257 0.66651 0.0
C1698 C 0.89136 0.49764 0.66539 0.0
C1699 C 0.89333 0.51936 0.63992 0.0
H1700 H 0.86036 0.47245 0.6981 0.0
H1701 H 0.91335 0.48578 0.67411 0.0
S1702 S 0.82341 0.56022 0.59961 0.0
N1703 N 0.80603 0.53844 0.62791 0.0
N1704 N 0.86341 0.55407 0.60316 0.0
C1705 C 0.86415 0.53366 0.62854 0.0
C1706 C 0.83308 0.52515 0.64181 0.0
C1707 C 0.50845 0.86294 0.61662 0.0
C1708 C 0.53567 0.84526 0.62797 0.0
C1709 C 0.51264 0.88945 0.59662 0.0
C1710 C 0.54423 0.89946 0.58757 0.0
H1711 H 0.48379 0.85725 0.62449 0.0
H1712 H 0.49113 0.90307 0.58966 0.0
S1713 S 0.623 0.85858 0.60616 0.0
N1714 N 0.5949 0.83744 0.62497 0.0
N1715 N 0.60278 0.88768 0.58829 0.0
C1716 C 0.57142 0.88101 0.59717 0.0
C1717 C 0.56715 0.85385 0.61716 0.0
C1718 C 0.2201 0.55442 0.61674 0.0
C1719 C 0.22602 0.53155 0.64068 0.0
C1720 C 0.18967 0.5557 0.60061 0.0
C1721 C 0.16463 0.53405 0.608 0.0
H1722 H 0.2391 0.57109 0.61032 0.0
H1723 H 0.18591 0.57329 0.58193 0.0
S1724 S 0.16691 0.4727 0.67195 0.0
N1725 N 0.20369 0.48896 0.67312 0.0
N1726 N 0.14675 0.49126 0.64287 0.0
C1727 C 0.17002 0.51196 0.63276 0.0
C1728 C 0.20072 0.51073 0.6491 0.0
C1729 C 0.48796 0.1557 0.65197 0.0
C1730 C 0.49529 0.1859 0.63935 0.0
C1731 C 0.49445 0.12795 0.63426 0.0
C1732 C 0.50859 0.12939 0.6034 0.0
H1733 H 0.4797 0.15319 0.67671 0.0
H1734 H 0.49107 0.10526 0.6459 0.0
S1735 S 0.52595 0.20191 0.55638 0.0
N1736 N 0.51199 0.21515 0.59142 0.0
N1737 N 0.52562 0.16294 0.55903 0.0
C1738 C 0.5134 0.15922 0.58937 0.0
C1739 C 0.50639 0.18747 0.6071 0.0
C1740 C 0.83442 0.53911 0.38274 0.0
C1741 C 0.80836 0.51895 0.39075 0.0
C1742 C 0.86456 0.53701 0.39854 0.0
C1743 C 0.87009 0.51447 0.42288 0.0
H1744 H 0.83159 0.55664 0.36382 0.0
H1745 H 0.88377 0.55323 0.39147 0.0
S1746 S 0.81023 0.45535 0.45225 0.0
N1747 N 0.79004 0.47513 0.42397 0.0
N1748 N 0.84736 0.47096 0.45394 0.0
C1749 C 0.84462 0.49348 0.43068 0.0
C1750 C 0.81359 0.49575 0.41452 0.0
C1751 C 0.53215 0.88505 0.3688 0.0
C1752 C 0.52923 0.85307 0.37744 0.0
C1753 C 0.52303 0.90934 0.39026 0.0
C1754 C 0.51027 0.9026 0.42116 0.0
H1755 H 0.54182 0.89135 0.34528 0.0
H1756 H 0.52571 0.93358 0.38232 0.0
S1757 S 0.49847 0.8222 0.45543 0.0
N1758 N 0.51348 0.81566 0.41888 0.0
N1759 N 0.49573 0.86102 0.45926 0.0
C1760 C 0.50728 0.8705 0.43004 0.0
C1761 C 0.51691 0.84581 0.40818 0.0
C1762 C 0.19564 0.50637 0.36448 0.0
C1763 C 0.21062 0.53605 0.36117 0.0
C1764 C 0.16368 0.5037 0.37679 0.0
C1765 C 0.14539 0.53064 0.38617 0.0
H1766 H 0.20887 0.48498 0.35787 0.0
H1767 H 0.15361 0.48024 0.37986 0.0
S1768 S 0.17276 0.61416 0.38043 0.0
N1769 N 0.20395 0.59315 0.36638 0.0
N1770 N 0.14446 0.58816 0.39022 0.0
C1771 C 0.15978 0.56057 0.38206 0.0
C1772 C 0.19227 0.56325 0.36957 0.0
C1773 C 0.5349 0.18315 0.38896 0.0
C1774 C 0.51004 0.20682 0.38901 0.0
C1775 C 0.53159 0.15514 0.40692 0.0
C1776 C 0.50372 0.15026 0.42618 0.0
H1777 H 0.55582 0.18504 0.3729 0.0
H1778 H 0.54953 0.13633 0.40364 0.0
S1779 S 0.43831 0.20896 0.44501 0.0
N1780 N 0.46077 0.22602 0.41688 0.0
N1781 N 0.45601 0.17437 0.45169 0.0
C1782 C 0.48179 0.17568 0.4308 0.0
C1783 C 0.48468 0.20386 0.41213 0.0
C1784 C 0.66846 0.88181 0.52287 0.0
C1785 C 0.66029 0.85979 0.49866 0.0
C1786 C 0.65031 0.91011 0.52671 0.0
C1787 C 0.62301 0.91722 0.50687 0.0
H1788 H 0.69042 0.87832 0.53731 0.0
H1789 H 0.65873 0.92727 0.54428 0.0
S1790 S 0.5896 0.86537 0.44251 0.0
N1791 N 0.62136 0.84544 0.45687 0.0
N1792 N 0.58729 0.89825 0.46396 0.0
C1793 C 0.61306 0.89407 0.48446 0.0
C1794 C 0.63169 0.86549 0.48041 0.0
C1795 C 0.6269 0.19213 0.50702 0.0
C1796 C 0.66047 0.18787 0.51448 0.0
C1797 C 0.60493 0.16675 0.50774 0.0
C1798 C 0.61536 0.13617 0.51657 0.0
H1799 H 0.61801 0.21471 0.49811 0.0
H1800 H 0.5802 0.17053 0.49864 0.0
S1801 S 0.69847 0.11347 0.54509 0.0
N1802 N 0.70168 0.15132 0.53588 0.0
N1803 N 0.65981 0.10397 0.53793 0.0
C1804 C 0.64759 0.13233 0.52804 0.0
C1805 C 0.67029 0.15813 0.5269 0.0
C1806 C 0.88346 0.67206 0.50571 0.0
C1807 C 0.85357 0.66105 0.49282 0.0
C1808 C 0.90947 0.65129 0.51269 0.0
C1809 C 0.90691 0.61877 0.50653 0.0
H1810 H 0.88666 0.69697 0.51087 0.0
H1811 H 0.93146 0.66061 0.52393 0.0
S1812 S 0.83409 0.57748 0.47366 0.0
N1813 N 0.82303 0.61516 0.47434 0.0
N1814 N 0.87222 0.57616 0.48746 0.0
C1815 C 0.87763 0.60737 0.49294 0.0
C1816 C 0.85092 0.62852 0.48599 0.0
C1817 C 0.3982 0.85893 0.53716 0.0
C1818 C 0.38073 0.85315 0.50842 0.0
C1819 C 0.41666 0.88662 0.54121 0.0
C1820 C 0.4179 0.90995 0.51691 0.0
H1821 H 0.39722 0.8421 0.55685 0.0
H1822 H 0.42921 0.89017 0.56403 0.0
S1823 S 0.37739 0.90567 0.43653 0.0
N1824 N 0.36663 0.87264 0.45482 0.0
N1825 N 0.40112 0.92457 0.46243 0.0
C1826 C 0.4012 0.90406 0.48772 0.0
C1827 C 0.38271 0.87572 0.48348 0.0
C1828 C 0.1699 0.37642 0.50348 0.0
C1829 C 0.19129 0.38045 0.52989 0.0
C1830 C 0.14725 0.40008 0.49479 0.0
C1831 C 0.14547 0.42882 0.51194 0.0
H1832 H 0.17056 0.35473 0.48951 0.0
H1833 H 0.13171 0.39612 0.47391 0.0
S1834 S 0.19559 0.4506 0.58349 0.0
N1835 N 0.20881 0.41492 0.57353 0.0
N1836 N 0.16643 0.45949 0.55717 0.0
C1837 C 0.16638 0.4329 0.53871 0.0
C1838 C 0.18922 0.4087 0.5477 0.0
C1839 C 0.37685 0.16046 0.48502 0.0
C1840 C 0.37625 0.18493 0.50837 0.0
C1841 C 0.39739 0.13359 0.48866 0.0
C1842 C 0.41774 0.13019 0.51597 0.0
H1843 H 0.36021 0.16142 0.46459 0.0
H1844 H 0.39579 0.11462 0.47112 0.0
S1845 S 0.42693 0.18827 0.58297 0.0
N1846 N 0.39918 0.20421 0.55891 0.0
N1847 N 0.43806 0.15498 0.5652 0.0
C1848 C 0.41894 0.15553 0.5382 0.0
C1849 C 0.39816 0.18255 0.53457 0.0
C1850 C 0.87689 0.38422 0.48764 0.0
C1851 C 0.84415 0.38319 0.49887 0.0
C1852 C 0.89869 0.40763 0.4984 0.0
C1853 C 0.88821 0.43118 0.52015 0.0
H1854 H 0.88592 0.36639 0.47095 0.0
H1855 H 0.92377 0.40744 0.48952 0.0
S1856 S 0.80511 0.43955 0.55619 0.0
N1857 N 0.80248 0.40809 0.53266 0.0
N1858 N 0.8432 0.45226 0.55242 0.0
C1859 C 0.85551 0.43074 0.53109 0.0
C1860 C 0.83355 0.40667 0.52063 0.0
C1861 C 0.15627 0.67031 0.52397 0.0
C1862 C 0.18771 0.65656 0.52035 0.0
C1863 C 0.12769 0.65199 0.52122 0.0
C1864 C 0.1298 0.61934 0.5153 0.0
H1865 H 0.1537 0.69575 0.52614 0.0
H1866 H 0.10394 0.66377 0.52123 0.0
S1867 S 0.20615 0.57161 0.50741 0.0
N1868 N 0.21921 0.60813 0.51307 0.0
N1869 N 0.16556 0.57359 0.5086 0.0
C1870 C 0.16105 0.605 0.51421 0.0
C1871 C 0.19006 0.62365 0.51658 0.0
loop_
_geom_bond_atom_site_label_1
_geom_bond_atom_site_label_2
_geom_bond_distance
_geom_bond_site_symmetry_2
_ccdc_geom_bond_type
P0 O11 1.490 . S
P0 C14 1.812 1_655 S
P0 C20 1.803 1_655 S
P0 C26 1.819 1_655 S
H1 C15 0.941 . S
H2 C16 0.939 1_655 S
H3 C18 0.940 . S
H4 C19 0.940 . S
H5 C21 0.939 . S
H6 C22 0.942 1_655 S
H7 C24 0.940 . S
H8 C25 0.939 . S
H9 C27 0.941 . S
H10 C31 0.939 . S
O11 P0 1.490 . S
H12 C28 0.928 1_655 S
H13 C30 0.940 . S
C14 P0 1.812 1_455 S
C14 C15 1.389 1_455 S
C14 C19 1.391 . S
C15 H1 0.941 . S
C15 C14 1.389 1_655 S
C15 C16 1.397 1_655 S
C16 H2 0.939 1_455 S
C16 C15 1.397 1_455 S
C16 C17 1.378 . S
C17 C16 1.378 . S
C17 C18 1.378 . S
C18 H3 0.940 . S
C18 C17 1.378 . S
C18 C19 1.396 . S
C19 H4 0.940 . S
C19 C14 1.391 . S
C19 C18 1.396 . S
C20 P0 1.803 1_455 S
C20 C21 1.378 1_455 S
C20 C25 1.400 . S
C21 H5 0.939 . S
C21 C20 1.378 1_655 S
C21 C22 1.361 1_655 S
C22 H6 0.942 1_455 S
C22 C21 1.361 1_455 S
C22 C23 1.369 . S
C23 C22 1.369 . S
C23 C24 1.404 . S
C24 H7 0.940 . S
C24 C23 1.404 . S
C24 C25 1.389 . S
C25 H8 0.939 . S
C25 C20 1.400 . S
C25 C24 1.389 . S
C26 P0 1.819 1_455 S
C26 C27 1.391 1_455 S
C26 C31 1.391 . S
C27 H9 0.941 . S
C27 C26 1.391 1_655 S
C27 C28 1.396 1_655 S
C28 H12 0.928 1_455 S
C28 C27 1.396 1_455 S
C28 C29 1.397 . S
C29 C28 1.397 . S
C29 C30 1.385 . S
C30 H13 0.940 . S
C30 C29 1.385 . S
C30 C31 1.388 . S
C31 H10 0.939 . S
C31 C26 1.391 . S
C31 C30 1.388 . S
P32 O43 1.490 . S
P32 C46 1.812 1_565 S
P32 C52 1.803 1_565 S
P32 C58 1.819 1_565 S
H33 C47 0.941 . S
H34 C48 0.939 1_565 S
H35 C50 0.940 . S
H36 C51 0.940 . S
H37 C53 0.939 . S
H38 C54 0.942 1_565 S
H39 C56 0.940 . S
H40 C57 0.939 . S
H41 C59 0.941 . S
H42 C63 0.939 . S
O43 P32 1.490 . S
H44 C60 0.950 . S
H45 C62 0.940 . S
C46 P32 1.812 1_545 S
C46 C47 1.389 1_545 S
C46 C51 1.391 . S
C47 H33 0.941 . S
C47 C46 1.389 1_565 S
C47 C48 1.397 1_565 S
C48 H34 0.939 1_545 S
C48 C47 1.397 1_545 S
C48 C49 1.378 . S
C49 C48 1.378 . S
C49 C50 1.378 . S
C50 H35 0.940 . S
C50 C49 1.378 . S
C50 C51 1.396 . S
C51 H36 0.940 . S
C51 C46 1.391 . S
C51 C50 1.396 . S
C52 P32 1.803 1_545 S
C52 C53 1.378 1_545 S
C52 C57 1.400 . S
C53 H37 0.939 . S
C53 C52 1.378 1_565 S
C53 C54 1.361 1_565 S
C54 H38 0.942 1_545 S
C54 C53 1.361 1_545 S
C54 C55 1.369 . S
C55 C54 1.369 . S
C55 C56 1.404 . S
C56 H39 0.940 . S
C56 C55 1.404 . S
C56 C57 1.389 . S
C57 H40 0.939 . S
C57 C52 1.400 . S
C57 C56 1.389 . S
C58 P32 1.819 1_545 S
C58 C59 1.391 1_545 S
C58 C63 1.391 . S
C59 H41 0.941 . S
C59 C58 1.391 1_565 S
C59 C60 1.396 1_565 S
C60 H44 0.950 . S
C60 C59 1.396 1_545 S
C60 C61 1.397 . S
C61 C60 1.397 . S
C61 C62 1.385 . S
C62 H45 0.940 . S
C62 C61 1.385 . S
C62 C63 1.388 . S
C63 H42 0.939 . S
C63 C58 1.391 . S
C63 C62 1.388 . S
P64 O75 1.490 . S
P64 C78 1.812 . S
P64 C84 1.803 . S
P64 C90 1.819 . S
H65 C79 0.941 . S
H66 C80 0.939 . S
H67 C82 0.940 1_655 S
H68 C83 0.940 . S
H69 C85 0.939 . S
H70 C86 0.942 . S
H71 C88 0.940 1_655 S
H72 C89 0.939 . S
H73 C91 0.941 . S
H74 C95 0.939 . S
O75 P64 1.490 . S
H76 C92 0.939 . S
H77 C94 0.940 . S
C78 P64 1.812 . S
C78 C79 1.389 . S
C78 C83 1.391 . S
C79 H65 0.941 . S
C79 C78 1.389 . S
C79 C80 1.397 . S
C80 H66 0.939 . S
C80 C79 1.397 . S
C80 C81 1.378 . S
C81 C80 1.378 . S
C81 C82 1.378 . S
C82 H67 0.940 1_455 S
C82 C81 1.378 . S
C82 C83 1.396 . S
C83 H68 0.940 . S
C83 C78 1.391 . S
C83 C82 1.396 . S
C84 P64 1.803 . S
C84 C85 1.378 . S
C84 C89 1.400 . S
C85 H69 0.939 . S
C85 C84 1.378 . S
C85 C86 1.361 . S
C86 H70 0.942 . S
C86 C85 1.361 . S
C86 C87 1.369 . S
C87 C86 1.369 . S
C87 C88 1.404 . S
C88 H71 0.940 1_455 S
C88 C87 1.404 . S
C88 C89 1.389 . S
C89 H72 0.939 . S
C89 C84 1.400 . S
C89 C88 1.389 . S
C90 P64 1.819 . S
C90 C91 1.391 . S
C90 C95 1.391 . S
C91 H73 0.941 . S
C91 C90 1.391 . S
C91 C92 1.396 . S
C92 H76 0.939 . S
C92 C91 1.396 . S
C92 C93 1.397 . S
C93 C92 1.397 . S
C93 C94 1.385 . S
C94 H77 0.940 . S
C94 C93 1.385 . S
C94 C95 1.388 . S
C95 H74 0.939 . S
C95 C90 1.391 . S
C95 C94 1.388 . S
P96 O107 1.490 . S
P96 C110 1.812 . S
P96 C116 1.803 . S
P96 C122 1.819 . S
H97 C111 0.941 . S
H98 C112 0.939 . S
H99 C114 0.940 . S
H100 C115 0.940 . S
H101 C117 0.939 . S
H102 C118 0.942 . S
H103 C120 0.940 . S
H104 C121 0.939 . S
H105 C123 0.941 . S
H106 C127 0.939 1_545 S
O107 P96 1.490 . S
H108 C124 0.939 . S
H109 C126 0.940 . S
C110 P96 1.812 . S
C110 C111 1.389 . S
C110 C115 1.391 1_565 S
C111 H97 0.941 . S
C111 C110 1.389 . S
C111 C112 1.397 . S
C112 H98 0.939 . S
C112 C111 1.397 . S
C112 C113 1.378 . S
C113 C112 1.378 . S
C113 C114 1.378 1_565 S
C114 H99 0.940 . S
C114 C113 1.378 1_545 S
C114 C115 1.396 . S
C115 H100 0.940 . S
C115 C110 1.391 1_545 S
C115 C114 1.396 . S
C116 P96 1.803 . S
C116 C117 1.378 . S
C116 C121 1.400 1_565 S
C117 H101 0.939 . S
C117 C116 1.378 . S
C117 C118 1.361 . S
C118 H102 0.942 . S
C118 C117 1.361 . S
C118 C119 1.369 . S
C119 C118 1.369 . S
C119 C120 1.404 1_565 S
C120 H103 0.940 . S
C120 C119 1.404 1_545 S
C120 C121 1.389 . S
C121 H104 0.939 . S
C121 C116 1.400 1_545 S
C121 C120 1.389 . S
C122 P96 1.819 . S
C122 C123 1.391 . S
C122 C127 1.391 . S
C123 H105 0.941 . S
C123 C122 1.391 . S
C123 C124 1.396 . S
C124 H108 0.939 . S
C124 C123 1.396 . S
C124 C125 1.397 . S
C125 C124 1.397 . S
C125 C126 1.385 1_565 S
C126 H109 0.940 . S
C126 C125 1.385 1_545 S
C126 C127 1.388 1_545 S
C127 H106 0.939 1_565 S
C127 C122 1.391 . S
C127 C126 1.388 1_565 S
P128 O139 1.490 . S
P128 C142 1.812 . S
P128 C148 1.803 . S
P128 C154 1.819 . S
H129 C143 0.941 . S
H130 C144 0.939 . S
H131 C146 0.940 . S
H132 C147 0.949 . S
H133 C149 0.939 . S
H134 C150 0.942 . S
H135 C152 0.940 . S
H136 C153 0.939 . S
H137 C155 0.941 . S
H138 C159 0.939 1_455 S
O139 P128 1.490 . S
H140 C156 0.939 . S
H141 C158 0.940 . S
C142 P128 1.812 . S
C142 C143 1.389 . S
C142 C147 1.377 1_655 S
C143 H129 0.941 . S
C143 C142 1.389 . S
C143 C144 1.397 . S
C144 H130 0.939 . S
C144 C143 1.397 . S
C144 C145 1.378 . S
C145 C144 1.378 . S
C145 C146 1.378 1_655 S
C146 H131 0.940 . S
C146 C145 1.378 1_455 S
C146 C147 1.402 . S
C147 H132 0.949 . S
C147 C142 1.377 1_455 S
C147 C146 1.402 . S
C148 P128 1.803 . S
C148 C149 1.378 . S
C148 C153 1.400 1_655 S
C149 H133 0.939 . S
C149 C148 1.378 . S
C149 C150 1.361 . S
C150 H134 0.942 . S
C150 C149 1.361 . S
C150 C151 1.369 . S
C151 C150 1.369 . S
C151 C152 1.404 1_655 S
C152 H135 0.940 . S
C152 C151 1.404 1_455 S
C152 C153 1.389 . S
C153 H136 0.939 . S
C153 C148 1.400 1_455 S
C153 C152 1.389 . S
C154 P128 1.819 . S
C154 C155 1.391 . S
C154 C159 1.391 . S
C155 H137 0.941 . S
C155 C154 1.391 . S
C155 C156 1.396 . S
C156 H140 0.939 . S
C156 C155 1.396 . S
C156 C157 1.397 . S
C157 C156 1.397 . S
C157 C158 1.385 1_655 S
C158 H141 0.940 . S
C158 C157 1.385 1_455 S
C158 C159 1.388 1_455 S
C159 H138 0.939 1_655 S
C159 C154 1.391 . S
C159 C158 1.388 1_655 S
P160 O171 1.490 . S
P160 C174 1.812 . S
P160 C180 1.803 . S
P160 C186 1.819 . S
H161 C175 0.941 . S
H162 C176 0.939 . S
H163 C178 0.940 . S
H164 C179 0.940 . S
H165 C181 0.939 . S
H166 C182 0.942 . S
H167 C184 0.940 . S
H168 C185 0.939 . S
H169 C187 0.941 . S
H170 C191 0.941 . S
O171 P160 1.490 . S
H172 C188 0.939 . S
H173 C190 0.940 . S
C174 P160 1.812 . S
C174 C175 1.389 . S
C174 C179 1.391 1_565 S
C175 H161 0.941 . S
C175 C174 1.389 . S
C175 C176 1.397 . S
C176 H162 0.939 . S
C176 C175 1.397 . S
C176 C177 1.378 1_565 S
C177 C176 1.378 1_545 S
C177 C178 1.378 . S
C178 H163 0.940 . S
C178 C177 1.378 . S
C178 C179 1.396 . S
C179 H164 0.940 . S
C179 C174 1.391 1_545 S
C179 C178 1.396 . S
C180 P160 1.803 . S
C180 C181 1.378 . S
C180 C185 1.400 1_565 S
C181 H165 0.939 . S
C181 C180 1.378 . S
C181 C182 1.361 . S
C182 H166 0.942 . S
C182 C181 1.361 . S
C182 C183 1.356 1_565 S
C183 C182 1.356 1_545 S
C183 C184 1.412 . S
C184 H167 0.940 . S
C184 C183 1.412 . S
C184 C185 1.389 . S
C185 H168 0.939 . S
C185 C180 1.400 1_545 S
C185 C184 1.389 . S
C186 P160 1.819 . S
C186 C187 1.391 . S
C186 C191 1.389 1_565 S
C187 H169 0.941 . S
C187 C186 1.391 . S
C187 C188 1.396 . S
C188 H172 0.939 . S
C188 C187 1.396 . S
C188 C189 1.392 1_565 S
C189 C188 1.392 1_545 S
C189 C190 1.387 . S
C190 H173 0.940 . S
C190 C189 1.387 . S
C190 C191 1.390 . S
C191 H170 0.941 . S
C191 C186 1.389 1_545 S
C191 C190 1.390 . S
P192 O203 1.490 . S
P192 C206 1.812 . S
P192 C212 1.803 . S
P192 C218 1.819 . S
H193 C207 0.941 . S
H194 C208 0.939 . S
H195 C210 0.940 1_655 S
H196 C211 0.940 . S
H197 C213 0.939 . S
H198 C214 0.942 . S
H199 C216 0.940 1_655 S
H200 C217 0.939 . S
H201 C219 0.941 . S
H202 C223 0.939 . S
O203 P192 1.490 . S
H204 C220 0.939 . S
H205 C222 0.940 . S
C206 P192 1.812 . S
C206 C207 1.389 . S
C206 C211 1.391 . S
C207 H193 0.941 . S
C207 C206 1.389 . S
C207 C208 1.397 . S
C208 H194 0.939 . S
C208 C207 1.397 . S
C208 C209 1.378 . S
C209 C208 1.378 . S
C209 C210 1.378 . S
C210 H195 0.940 1_455 S
C210 C209 1.378 . S
C210 C211 1.396 . S
C211 H196 0.940 . S
C211 C206 1.391 . S
C211 C210 1.396 . S
C212 P192 1.803 . S
C212 C213 1.378 . S
C212 C217 1.400 . S
C213 H197 0.939 . S
C213 C212 1.378 . S
C213 C214 1.361 . S
C214 H198 0.942 . S
C214 C213 1.361 . S
C214 C215 1.369 . S
C215 C214 1.369 . S
C215 C216 1.404 . S
C216 H199 0.940 1_455 S
C216 C215 1.404 . S
C216 C217 1.389 . S
C217 H200 0.939 . S
C217 C212 1.400 . S
C217 C216 1.389 . S
C218 P192 1.819 . S
C218 C219 1.391 . S
C218 C223 1.391 . S
C219 H201 0.941 . S
C219 C218 1.391 . S
C219 C220 1.396 . S
C220 H204 0.939 . S
C220 C219 1.396 . S
C220 C221 1.397 . S
C221 C220 1.397 . S
C221 C222 1.385 . S
C222 H205 0.940 . S
C222 C221 1.385 . S
C222 C223 1.388 . S
C223 H202 0.939 . S
C223 C218 1.391 . S
C223 C222 1.388 . S
P224 O235 1.490 . S
P224 C238 1.812 . S
P224 C244 1.803 . S
P224 C250 1.819 . S
H225 C239 0.941 . S
H226 C240 0.939 . S
H227 C242 0.940 . S
H228 C243 0.940 . S
H229 C245 0.939 . S
H230 C246 0.942 . S
H231 C248 0.940 . S
H232 C249 0.939 . S
H233 C251 0.941 . S
H234 C255 0.939 . S
O235 P224 1.490 . S
H236 C252 0.939 . S
H237 C254 0.940 . S
C238 P224 1.812 . S
C238 C239 1.389 . S
C238 C243 1.391 . S
C239 H225 0.941 . S
C239 C238 1.389 . S
C239 C240 1.397 . S
C240 H226 0.939 . S
C240 C239 1.397 . S
C240 C241 1.378 . S
C241 C240 1.378 . S
C241 C242 1.378 . S
C242 H227 0.940 . S
C242 C241 1.378 . S
C242 C243 1.396 . S
C243 H228 0.940 . S
C243 C238 1.391 . S
C243 C242 1.396 . S
C244 P224 1.803 . S
C244 C245 1.378 . S
C244 C249 1.400 . S
C245 H229 0.939 . S
C245 C244 1.378 . S
C245 C246 1.361 . S
C246 H230 0.942 . S
C246 C245 1.361 . S
C246 C247 1.369 . S
C247 C246 1.369 . S
C247 C248 1.404 . S
C248 H231 0.940 . S
C248 C247 1.404 . S
C248 C249 1.389 . S
C249 H232 0.939 . S
C249 C244 1.400 . S
C249 C248 1.389 . S
C250 P224 1.819 . S
C250 C251 1.391 . S
C250 C255 1.391 . S
C251 H233 0.941 . S
C251 C250 1.391 . S
C251 C252 1.396 . S
C252 H236 0.939 . S
C252 C251 1.396 . S
C252 C253 1.397 . S
C253 C252 1.397 . S
C253 C254 1.385 . S
C254 H237 0.940 . S
C254 C253 1.385 . S
C254 C255 1.388 . S
C255 H234 0.939 . S
C255 C250 1.391 . S
C255 C254 1.388 . S
P256 O267 1.490 . S
P256 C270 1.812 . S
P256 C276 1.803 . S
P256 C282 1.819 . S
H257 C271 0.941 . S
H258 C272 0.939 . S
H259 C274 0.940 . S
H260 C275 0.940 . S
H261 C277 0.939 . S
H262 C278 0.942 . S
H263 C280 0.940 . S
H264 C281 0.939 . S
H265 C283 0.941 . S
H266 C287 0.939 . S
O267 P256 1.490 . S
H268 C284 0.939 . S
H269 C286 0.940 . S
C270 P256 1.812 . S
C270 C271 1.389 . S
C270 C275 1.391 1_556 S
C271 H257 0.941 . S
C271 C270 1.389 . S
C271 C272 1.397 . S
C272 H258 0.939 . S
C272 C271 1.397 . S
C272 C273 1.378 1_556 S
C273 C272 1.378 1_554 S
C273 C274 1.378 . S
C274 H259 0.940 . S
C274 C273 1.378 . S
C274 C275 1.396 . S
C275 H260 0.940 . S
C275 C270 1.391 1_554 S
C275 C274 1.396 . S
C276 P256 1.803 . S
C276 C277 1.378 . S
C276 C281 1.400 1_556 S
C277 H261 0.939 . S
C277 C276 1.378 . S
C277 C278 1.361 . S
C278 H262 0.942 . S
C278 C277 1.361 . S
C278 C279 1.369 1_556 S
C279 C278 1.369 1_554 S
C279 C280 1.404 . S
C280 H263 0.940 . S
C280 C279 1.404 . S
C280 C281 1.389 . S
C281 H264 0.939 . S
C281 C276 1.400 1_554 S
C281 C280 1.389 . S
C282 P256 1.819 . S
C282 C283 1.391 . S
C282 C287 1.391 1_556 S
C283 H265 0.941 . S
C283 C282 1.391 . S
C283 C284 1.396 . S
C284 H268 0.939 . S
C284 C283 1.396 . S
C284 C285 1.397 1_556 S
C285 C284 1.397 1_554 S
C285 C286 1.385 . S
C286 H269 0.940 . S
C286 C285 1.385 . S
C286 C287 1.388 . S
C287 H266 0.939 . S
C287 C282 1.391 1_554 S
C287 C286 1.388 . S
P288 O299 1.490 . S
P288 C302 1.812 . S
P288 C308 1.803 . S
P288 C314 1.819 . S
H289 C303 0.941 . S
H290 C304 0.939 . S
H291 C306 0.940 . S
H292 C307 0.940 . S
H293 C309 0.939 . S
H294 C310 0.942 . S
H295 C312 0.940 . S
H296 C313 0.939 . S
H297 C315 0.941 . S
H298 C319 0.939 . S
O299 P288 1.490 . S
H300 C316 0.939 . S
H301 C318 0.940 . S
C302 P288 1.812 . S
C302 C303 1.389 . S
C302 C307 1.391 1_556 S
C303 H289 0.941 . S
C303 C302 1.389 . S
C303 C304 1.397 . S
C304 H290 0.939 . S
C304 C303 1.397 . S
C304 C305 1.378 1_556 S
C305 C304 1.378 1_554 S
C305 C306 1.378 . S
C306 H291 0.940 . S
C306 C305 1.378 . S
C306 C307 1.396 . S
C307 H292 0.940 . S
C307 C302 1.391 1_554 S
C307 C306 1.396 . S
C308 P288 1.803 . S
C308 C309 1.378 . S
C308 C313 1.400 1_556 S
C309 H293 0.939 . S
C309 C308 1.378 . S
C309 C310 1.361 . S
C310 H294 0.942 . S
C310 C309 1.361 . S
C310 C311 1.369 1_556 S
C311 C310 1.369 1_554 S
C311 C312 1.404 . S
C312 H295 0.940 . S
C312 C311 1.404 . S
C312 C313 1.389 . S
C313 H296 0.939 . S
C313 C308 1.400 1_554 S
C313 C312 1.389 . S
C314 P288 1.819 . S
C314 C315 1.391 . S
C314 C319 1.391 1_556 S
C315 H297 0.941 . S
C315 C314 1.391 . S
C315 C316 1.396 . S
C316 H300 0.939 . S
C316 C315 1.396 . S
C316 C317 1.397 1_556 S
C317 C316 1.397 1_554 S
C317 C318 1.385 . S
C318 H301 0.940 . S
C318 C317 1.385 . S
C318 C319 1.388 . S
C319 H298 0.939 . S
C319 C314 1.391 1_554 S
C319 C318 1.388 . S
P320 O331 1.490 . S
P320 C334 1.812 . S
P320 C340 1.803 . S
P320 C346 1.819 . S
H321 C335 0.941 . S
H322 C336 0.939 . S
H323 C338 0.940 . S
H324 C339 0.940 . S
H325 C341 0.939 . S
H326 C342 0.942 . S
H327 C344 0.940 . S
H328 C345 0.939 . S
H329 C347 0.941 . S
H330 C351 0.939 1_554 S
O331 P320 1.490 . S
H332 C348 0.939 . S
H333 C350 0.940 . S
C334 P320 1.812 . S
C334 C335 1.389 . S
C334 C339 1.391 1_556 S
C335 H321 0.941 . S
C335 C334 1.389 . S
C335 C336 1.397 . S
C336 H322 0.939 . S
C336 C335 1.397 . S
C336 C337 1.378 . S
C337 C336 1.378 . S
C337 C338 1.378 1_556 S
C338 H323 0.940 . S
C338 C337 1.378 1_554 S
C338 C339 1.396 . S
C339 H324 0.940 . S
C339 C334 1.391 1_554 S
C339 C338 1.396 . S
C340 P320 1.803 . S
C340 C341 1.378 . S
C340 C345 1.400 1_556 S
C341 H325 0.939 . S
C341 C340 1.378 . S
C341 C342 1.361 . S
C342 H326 0.942 . S
C342 C341 1.361 . S
C342 C343 1.369 . S
C343 C342 1.369 . S
C343 C344 1.404 1_556 S
C344 H327 0.940 . S
C344 C343 1.404 1_554 S
C344 C345 1.389 . S
C345 H328 0.939 . S
C345 C340 1.400 1_554 S
C345 C344 1.389 . S
C346 P320 1.819 . S
C346 C347 1.391 . S
C346 C351 1.391 . S
C347 H329 0.941 . S
C347 C346 1.391 . S
C347 C348 1.396 . S
C348 H332 0.939 . S
C348 C347 1.396 . S
C348 C349 1.397 . S
C349 C348 1.397 . S
C349 C350 1.385 1_556 S
C350 H333 0.940 . S
C350 C349 1.385 1_554 S
C350 C351 1.388 1_554 S
C351 H330 0.939 1_556 S
C351 C346 1.391 . S
C351 C350 1.388 1_556 S
P352 O363 1.490 . S
P352 C366 1.812 . S
P352 C372 1.803 . S
P352 C378 1.819 . S
H353 C367 0.941 . S
H354 C368 0.939 . S
H355 C370 0.940 . S
H356 C371 0.940 1_556 S
H357 C373 0.939 . S
H358 C374 0.942 . S
H359 C376 0.940 . S
H360 C377 0.939 1_556 S
H361 C379 0.941 . S
H362 C383 0.939 . S
O363 P352 1.490 . S
H364 C380 0.939 . S
H365 C382 0.941 1_556 S
C366 P352 1.812 . S
C366 C367 1.389 . S
C366 C371 1.391 . S
C367 H353 0.941 . S
C367 C366 1.389 . S
C367 C368 1.397 . S
C368 H354 0.939 . S
C368 C367 1.397 . S
C368 C369 1.378 . S
C369 C368 1.378 . S
C369 C370 1.378 1_554 S
C370 H355 0.940 . S
C370 C369 1.378 1_556 S
C370 C371 1.396 1_556 S
C371 H356 0.940 1_554 S
C371 C366 1.391 . S
C371 C370 1.396 1_554 S
C372 P352 1.803 . S
C372 C373 1.378 . S
C372 C377 1.400 . S
C373 H357 0.939 . S
C373 C372 1.378 . S
C373 C374 1.361 . S
C374 H358 0.942 . S
C374 C373 1.361 . S
C374 C375 1.369 . S
C375 C374 1.369 . S
C375 C376 1.404 1_554 S
C376 H359 0.940 . S
C376 C375 1.404 1_556 S
C376 C377 1.389 1_556 S
C377 H360 0.939 1_554 S
C377 C372 1.400 . S
C377 C376 1.389 1_554 S
C378 P352 1.819 . S
C378 C379 1.391 . S
C378 C383 1.391 . S
C379 H361 0.941 . S
C379 C378 1.391 . S
C379 C380 1.396 . S
C380 H364 0.939 . S
C380 C379 1.396 . S
C380 C381 1.397 . S
C381 C380 1.397 . S
C381 C382 1.384 . S
C382 H365 0.941 1_554 S
C382 C381 1.384 . S
C382 C383 1.388 . S
C383 H362 0.939 . S
C383 C378 1.391 . S
C383 C382 1.388 . S
P384 O395 1.490 . S
P384 C398 1.812 . S
P384 C404 1.803 . S
P384 C410 1.819 . S
H385 C399 0.941 . S
H386 C400 0.939 . S
H387 C402 0.940 . S
H388 C403 0.940 . S
H389 C405 0.939 . S
H390 C406 0.942 . S
H391 C408 0.940 . S
H392 C409 0.939 . S
H393 C411 0.941 . S
H394 C415 0.939 . S
O395 P384 1.490 . S
H396 C412 0.939 . S
H397 C414 0.940 . S
C398 P384 1.812 . S
C398 C399 1.389 . S
C398 C403 1.391 . S
C399 H385 0.941 . S
C399 C398 1.389 . S
C399 C400 1.397 . S
C400 H386 0.939 . S
C400 C399 1.397 . S
C400 C401 1.378 . S
C401 C400 1.378 . S
C401 C402 1.378 . S
C402 H387 0.940 . S
C402 C401 1.378 . S
C402 C403 1.396 . S
C403 H388 0.940 . S
C403 C398 1.391 . S
C403 C402 1.396 . S
C404 P384 1.803 . S
C404 C405 1.378 . S
C404 C409 1.400 . S
C405 H389 0.939 . S
C405 C404 1.378 . S
C405 C406 1.361 . S
C406 H390 0.942 . S
C406 C405 1.361 . S
C406 C407 1.369 . S
C407 C406 1.369 . S
C407 C408 1.404 . S
C408 H391 0.940 . S
C408 C407 1.404 . S
C408 C409 1.389 . S
C409 H392 0.939 . S
C409 C404 1.400 . S
C409 C408 1.389 . S
C410 P384 1.819 . S
C410 C411 1.391 . S
C410 C415 1.391 . S
C411 H393 0.941 . S
C411 C410 1.391 . S
C411 C412 1.396 . S
C412 H396 0.939 . S
C412 C411 1.396 . S
C412 C413 1.397 . S
C413 C412 1.397 . S
C413 C414 1.385 . S
C414 H397 0.940 . S
C414 C413 1.385 . S
C414 C415 1.388 . S
C415 H394 0.939 . S
C415 C410 1.391 . S
C415 C414 1.388 . S
P416 O427 1.490 . S
P416 C430 1.812 . S
P416 C436 1.803 . S
P416 C442 1.819 . S
H417 C431 0.941 . S
H418 C432 0.939 . S
H419 C434 0.940 . S
H420 C435 0.940 . S
H421 C437 0.939 . S
H422 C438 0.942 . S
H423 C440 0.940 . S
H424 C441 0.939 . S
H425 C443 0.941 . S
H426 C447 0.939 . S
O427 P416 1.490 . S
H428 C444 0.939 . S
H429 C446 0.940 . S
C430 P416 1.812 . S
C430 C431 1.389 . S
C430 C435 1.391 . S
C431 H417 0.941 . S
C431 C430 1.389 . S
C431 C432 1.397 . S
C432 H418 0.939 . S
C432 C431 1.397 . S
C432 C433 1.378 . S
C433 C432 1.378 . S
C433 C434 1.378 . S
C434 H419 0.940 . S
C434 C433 1.378 . S
C434 C435 1.396 . S
C435 H420 0.940 . S
C435 C430 1.391 . S
C435 C434 1.396 . S
C436 P416 1.803 . S
C436 C437 1.378 . S
C436 C441 1.400 . S
C437 H421 0.939 . S
C437 C436 1.378 . S
C437 C438 1.361 . S
C438 H422 0.942 . S
C438 C437 1.361 . S
C438 C439 1.369 . S
C439 C438 1.369 . S
C439 C440 1.404 . S
C440 H423 0.940 . S
C440 C439 1.404 . S
C440 C441 1.389 . S
C441 H424 0.939 . S
C441 C436 1.400 . S
C441 C440 1.389 . S
C442 P416 1.819 . S
C442 C443 1.391 . S
C442 C447 1.391 . S
C443 H425 0.941 . S
C443 C442 1.391 . S
C443 C444 1.396 . S
C444 H428 0.939 . S
C444 C443 1.396 . S
C444 C445 1.397 . S
C445 C444 1.397 . S
C445 C446 1.385 . S
C446 H429 0.940 . S
C446 C445 1.385 . S
C446 C447 1.388 . S
C447 H426 0.939 . S
C447 C442 1.391 . S
C447 C446 1.388 . S
P448 O459 1.490 . S
P448 C462 1.812 . S
P448 C468 1.803 . S
P448 C474 1.819 . S
H449 C463 0.941 . S
H450 C464 0.939 . S
H451 C466 0.940 . S
H452 C467 0.940 . S
H453 C469 0.939 . S
H454 C470 0.942 . S
H455 C472 0.940 . S
H456 C473 0.939 . S
H457 C475 0.941 . S
H458 C479 0.939 . S
O459 P448 1.490 . S
H460 C476 0.939 . S
H461 C478 0.940 . S
C462 P448 1.812 . S
C462 C463 1.389 . S
C462 C467 1.391 . S
C463 H449 0.941 . S
C463 C462 1.389 . S
C463 C464 1.397 . S
C464 H450 0.939 . S
C464 C463 1.397 . S
C464 C465 1.378 . S
C465 C464 1.378 . S
C465 C466 1.378 . S
C466 H451 0.940 . S
C466 C465 1.378 . S
C466 C467 1.396 . S
C467 H452 0.940 . S
C467 C462 1.391 . S
C467 C466 1.396 . S
C468 P448 1.803 . S
C468 C469 1.378 . S
C468 C473 1.400 . S
C469 H453 0.939 . S
C469 C468 1.378 . S
C469 C470 1.361 . S
C470 H454 0.942 . S
C470 C469 1.361 . S
C470 C471 1.369 . S
C471 C470 1.369 . S
C471 C472 1.404 . S
C472 H455 0.940 . S
C472 C471 1.404 . S
C472 C473 1.389 . S
C473 H456 0.939 . S
C473 C468 1.400 . S
C473 C472 1.389 . S
C474 P448 1.819 . S
C474 C475 1.391 . S
C474 C479 1.391 . S
C475 H457 0.941 . S
C475 C474 1.391 . S
C475 C476 1.396 . S
C476 H460 0.939 . S
C476 C475 1.396 . S
C476 C477 1.397 . S
C477 C476 1.397 . S
C477 C478 1.385 . S
C478 H461 0.940 . S
C478 C477 1.385 . S
C478 C479 1.388 . S
C479 H458 0.939 . S
C479 C474 1.391 . S
C479 C478 1.388 . S
P480 O491 1.490 . S
P480 C494 1.812 . S
P480 C500 1.803 . S
P480 C506 1.819 . S
H481 C495 0.941 . S
H482 C496 0.939 . S
H483 C498 0.940 . S
H484 C499 0.940 . S
H485 C501 0.939 . S
H486 C502 0.942 . S
H487 C504 0.940 . S
H488 C505 0.939 . S
H489 C507 0.941 . S
H490 C511 0.939 . S
O491 P480 1.490 . S
H492 C508 0.939 . S
H493 C510 0.940 . S
C494 P480 1.812 . S
C494 C495 1.389 . S
C494 C499 1.391 . S
C495 H481 0.941 . S
C495 C494 1.389 . S
C495 C496 1.397 . S
C496 H482 0.939 . S
C496 C495 1.397 . S
C496 C497 1.378 . S
C497 C496 1.378 . S
C497 C498 1.378 . S
C498 H483 0.940 . S
C498 C497 1.378 . S
C498 C499 1.396 . S
C499 H484 0.940 . S
C499 C494 1.391 . S
C499 C498 1.396 . S
C500 P480 1.803 . S
C500 C501 1.378 . S
C500 C505 1.400 . S
C501 H485 0.939 . S
C501 C500 1.378 . S
C501 C502 1.361 . S
C502 H486 0.942 . S
C502 C501 1.361 . S
C502 C503 1.369 . S
C503 C502 1.369 . S
C503 C504 1.404 . S
C504 H487 0.940 . S
C504 C503 1.404 . S
C504 C505 1.389 . S
C505 H488 0.939 . S
C505 C500 1.400 . S
C505 C504 1.389 . S
C506 P480 1.819 . S
C506 C507 1.391 . S
C506 C511 1.391 . S
C507 H489 0.941 . S
C507 C506 1.391 . S
C507 C508 1.396 . S
C508 H492 0.939 . S
C508 C507 1.396 . S
C508 C509 1.397 . S
C509 C508 1.397 . S
C509 C510 1.385 . S
C510 H493 0.940 . S
C510 C509 1.385 . S
C510 C511 1.388 . S
C511 H490 0.939 . S
C511 C506 1.391 . S
C511 C510 1.388 . S
P512 O523 1.490 . S
P512 C526 1.812 . S
P512 C532 1.803 . S
P512 C538 1.819 . S
H513 C527 0.941 . S
H514 C528 0.939 . S
H515 C530 0.940 . S
H516 C531 0.940 . S
H517 C533 0.939 . S
H518 C534 0.942 . S
H519 C536 0.940 . S
H520 C537 0.939 . S
H521 C539 0.941 . S
H522 C543 0.939 . S
O523 P512 1.490 . S
H524 C540 0.939 . S
H525 C542 0.940 . S
C526 P512 1.812 . S
C526 C527 1.389 . S
C526 C531 1.391 . S
C527 H513 0.941 . S
C527 C526 1.389 . S
C527 C528 1.397 . S
C528 H514 0.939 . S
C528 C527 1.397 . S
C528 C529 1.378 . S
C529 C528 1.378 . S
C529 C530 1.378 . S
C530 H515 0.940 . S
C530 C529 1.378 . S
C530 C531 1.396 . S
C531 H516 0.940 . S
C531 C526 1.391 . S
C531 C530 1.396 . S
C532 P512 1.803 . S
C532 C533 1.378 . S
C532 C537 1.400 . S
C533 H517 0.939 . S
C533 C532 1.378 . S
C533 C534 1.361 . S
C534 H518 0.942 . S
C534 C533 1.361 . S
C534 C535 1.369 . S
C535 C534 1.369 . S
C535 C536 1.404 . S
C536 H519 0.940 . S
C536 C535 1.404 . S
C536 C537 1.389 . S
C537 H520 0.939 . S
C537 C532 1.400 . S
C537 C536 1.389 . S
C538 P512 1.819 . S
C538 C539 1.391 . S
C538 C543 1.391 . S
C539 H521 0.941 . S
C539 C538 1.391 . S
C539 C540 1.396 . S
C540 H524 0.939 . S
C540 C539 1.396 . S
C540 C541 1.397 . S
C541 C540 1.397 . S
C541 C542 1.385 . S
C542 H525 0.940 . S
C542 C541 1.385 . S
C542 C543 1.388 . S
C543 H522 0.939 . S
C543 C538 1.391 . S
C543 C542 1.388 . S
P544 O555 1.490 . S
P544 C558 1.812 . S
P544 C564 1.803 . S
P544 C570 1.819 . S
H545 C559 0.941 . S
H546 C560 0.939 . S
H547 C562 0.940 . S
H548 C563 0.940 . S
H549 C565 0.939 . S
H550 C566 0.942 . S
H551 C568 0.940 . S
H552 C569 0.939 . S
H553 C571 0.941 . S
H554 C575 0.939 . S
O555 P544 1.490 . S
H556 C572 0.939 . S
H557 C574 0.940 . S
C558 P544 1.812 . S
C558 C559 1.389 . S
C558 C563 1.391 . S
C559 H545 0.941 . S
C559 C558 1.389 . S
C559 C560 1.397 . S
C560 H546 0.939 . S
C560 C559 1.397 . S
C560 C561 1.378 . S
C561 C560 1.378 . S
C561 C562 1.378 . S
C562 H547 0.940 . S
C562 C561 1.378 . S
C562 C563 1.396 . S
C563 H548 0.940 . S
C563 C558 1.391 . S
C563 C562 1.396 . S
C564 P544 1.803 . S
C564 C565 1.378 . S
C564 C569 1.400 . S
C565 H549 0.939 . S
C565 C564 1.378 . S
C565 C566 1.361 . S
C566 H550 0.942 . S
C566 C565 1.361 . S
C566 C567 1.369 . S
C567 C566 1.369 . S
C567 C568 1.404 . S
C568 H551 0.940 . S
C568 C567 1.404 . S
C568 C569 1.389 . S
C569 H552 0.939 . S
C569 C564 1.400 . S
C569 C568 1.389 . S
C570 P544 1.819 . S
C570 C571 1.391 . S
C570 C575 1.391 . S
C571 H553 0.941 . S
C571 C570 1.391 . S
C571 C572 1.396 . S
C572 H556 0.939 . S
C572 C571 1.396 . S
C572 C573 1.397 . S
C573 C572 1.397 . S
C573 C574 1.385 . S
C574 H557 0.940 . S
C574 C573 1.385 . S
C574 C575 1.388 . S
C575 H554 0.939 . S
C575 C570 1.391 . S
C575 C574 1.388 . S
P576 O587 1.490 . S
P576 C590 1.812 . S
P576 C596 1.803 . S
P576 C602 1.819 . S
H577 C591 0.941 . S
H578 C592 0.939 . S
H579 C594 0.940 . S
H580 C595 0.940 . S
H581 C597 0.939 . S
H582 C598 0.942 . S
H583 C600 0.940 . S
H584 C601 0.939 . S
H585 C603 0.941 . S
H586 C607 0.939 . S
O587 P576 1.490 . S
H588 C604 0.939 . S
H589 C606 0.940 . S
C590 P576 1.812 . S
C590 C591 1.389 . S
C590 C595 1.391 . S
C591 H577 0.941 . S
C591 C590 1.389 . S
C591 C592 1.397 . S
C592 H578 0.939 . S
C592 C591 1.397 . S
C592 C593 1.378 . S
C593 C592 1.378 . S
C593 C594 1.378 . S
C594 H579 0.940 . S
C594 C593 1.378 . S
C594 C595 1.396 . S
C595 H580 0.940 . S
C595 C590 1.391 . S
C595 C594 1.396 . S
C596 P576 1.803 . S
C596 C597 1.378 . S
C596 C601 1.400 . S
C597 H581 0.939 . S
C597 C596 1.378 . S
C597 C598 1.361 . S
C598 H582 0.942 . S
C598 C597 1.361 . S
C598 C599 1.369 . S
C599 C598 1.369 . S
C599 C600 1.404 . S
C600 H583 0.940 . S
C600 C599 1.404 . S
C600 C601 1.389 . S
C601 H584 0.939 . S
C601 C596 1.400 . S
C601 C600 1.389 . S
C602 P576 1.819 . S
C602 C603 1.391 . S
C602 C607 1.391 . S
C603 H585 0.941 . S
C603 C602 1.391 . S
C603 C604 1.396 . S
C604 H588 0.939 . S
C604 C603 1.396 . S
C604 C605 1.397 . S
C605 C604 1.397 . S
C605 C606 1.385 . S
C606 H589 0.940 . S
C606 C605 1.385 . S
C606 C607 1.388 . S
C607 H586 0.939 . S
C607 C602 1.391 . S
C607 C606 1.388 . S
P608 O619 1.490 . S
P608 C622 1.812 . S
P608 C628 1.803 . S
P608 C634 1.819 . S
H609 C623 0.941 . S
H610 C624 0.939 . S
H611 C626 0.940 . S
H612 C627 0.940 . S
H613 C629 0.939 . S
H614 C630 0.942 . S
H615 C632 0.940 . S
H616 C633 0.939 . S
H617 C635 0.941 . S
H618 C639 0.939 . S
O619 P608 1.490 . S
H620 C636 0.939 . S
H621 C638 0.940 . S
C622 P608 1.812 . S
C622 C623 1.389 . S
C622 C627 1.391 . S
C623 H609 0.941 . S
C623 C622 1.389 . S
C623 C624 1.397 . S
C624 H610 0.939 . S
C624 C623 1.397 . S
C624 C625 1.378 . S
C625 C624 1.378 . S
C625 C626 1.378 . S
C626 H611 0.940 . S
C626 C625 1.378 . S
C626 C627 1.396 . S
C627 H612 0.940 . S
C627 C622 1.391 . S
C627 C626 1.396 . S
C628 P608 1.803 . S
C628 C629 1.378 . S
C628 C633 1.400 . S
C629 H613 0.939 . S
C629 C628 1.378 . S
C629 C630 1.361 . S
C630 H614 0.942 . S
C630 C629 1.361 . S
C630 C631 1.369 . S
C631 C630 1.369 . S
C631 C632 1.404 . S
C632 H615 0.940 . S
C632 C631 1.404 . S
C632 C633 1.389 . S
C633 H616 0.939 . S
C633 C628 1.400 . S
C633 C632 1.389 . S
C634 P608 1.819 . S
C634 C635 1.391 . S
C634 C639 1.391 . S
C635 H617 0.941 . S
C635 C634 1.391 . S
C635 C636 1.396 . S
C636 H620 0.939 . S
C636 C635 1.396 . S
C636 C637 1.397 . S
C637 C636 1.397 . S
C637 C638 1.385 . S
C638 H621 0.940 . S
C638 C637 1.385 . S
C638 C639 1.388 . S
C639 H618 0.939 . S
C639 C634 1.391 . S
C639 C638 1.388 . S
P640 O651 1.490 . S
P640 C654 1.812 . S
P640 C660 1.803 . S
P640 C666 1.819 . S
H641 C655 0.941 . S
H642 C656 0.939 . S
H643 C658 0.940 . S
H644 C659 0.940 . S
H645 C661 0.939 . S
H646 C662 0.942 . S
H647 C664 0.940 . S
H648 C665 0.939 . S
H649 C667 0.941 . S
H650 C671 0.939 . S
O651 P640 1.490 . S
H652 C668 0.939 . S
H653 C670 0.940 . S
C654 P640 1.812 . S
C654 C655 1.389 . S
C654 C659 1.391 . S
C655 H641 0.941 . S
C655 C654 1.389 . S
C655 C656 1.397 . S
C656 H642 0.939 . S
C656 C655 1.397 . S
C656 C657 1.378 . S
C657 C656 1.378 . S
C657 C658 1.378 . S
C658 H643 0.940 . S
C658 C657 1.378 . S
C658 C659 1.396 . S
C659 H644 0.940 . S
C659 C654 1.391 . S
C659 C658 1.396 . S
C660 P640 1.803 . S
C660 C661 1.378 . S
C660 C665 1.400 . S
C661 H645 0.939 . S
C661 C660 1.378 . S
C661 C662 1.361 . S
C662 H646 0.942 . S
C662 C661 1.361 . S
C662 C663 1.369 . S
C663 C662 1.369 . S
C663 C664 1.404 . S
C664 H647 0.940 . S
C664 C663 1.404 . S
C664 C665 1.389 . S
C665 H648 0.939 . S
C665 C660 1.400 . S
C665 C664 1.389 . S
C666 P640 1.819 . S
C666 C667 1.391 . S
C666 C671 1.391 . S
C667 H649 0.941 . S
C667 C666 1.391 . S
C667 C668 1.396 . S
C668 H652 0.939 . S
C668 C667 1.396 . S
C668 C669 1.397 . S
C669 C668 1.397 . S
C669 C670 1.385 . S
C670 H653 0.940 . S
C670 C669 1.385 . S
C670 C671 1.388 . S
C671 H650 0.939 . S
C671 C666 1.391 . S
C671 C670 1.388 . S
P672 O683 1.490 . S
P672 C686 1.812 . S
P672 C692 1.803 . S
P672 C698 1.819 . S
H673 C687 0.941 . S
H674 C688 0.939 . S
H675 C690 0.940 . S
H676 C691 0.940 . S
H677 C693 0.939 . S
H678 C694 0.942 . S
H679 C696 0.940 . S
H680 C697 0.939 . S
H681 C699 0.941 . S
H682 C703 0.939 . S
O683 P672 1.490 . S
H684 C700 0.939 . S
H685 C702 0.940 . S
C686 P672 1.812 . S
C686 C687 1.389 . S
C686 C691 1.391 . S
C687 H673 0.941 . S
C687 C686 1.389 . S
C687 C688 1.397 . S
C688 H674 0.939 . S
C688 C687 1.397 . S
C688 C689 1.378 . S
C689 C688 1.378 . S
C689 C690 1.378 . S
C690 H675 0.940 . S
C690 C689 1.378 . S
C690 C691 1.396 . S
C691 H676 0.940 . S
C691 C686 1.391 . S
C691 C690 1.396 . S
C692 P672 1.803 . S
C692 C693 1.378 . S
C692 C697 1.400 . S
C693 H677 0.939 . S
C693 C692 1.378 . S
C693 C694 1.361 . S
C694 H678 0.942 . S
C694 C693 1.361 . S
C694 C695 1.369 . S
C695 C694 1.369 . S
C695 C696 1.404 . S
C696 H679 0.940 . S
C696 C695 1.404 . S
C696 C697 1.389 . S
C697 H680 0.939 . S
C697 C692 1.400 . S
C697 C696 1.389 . S
C698 P672 1.819 . S
C698 C699 1.391 . S
C698 C703 1.391 . S
C699 H681 0.941 . S
C699 C698 1.391 . S
C699 C700 1.396 . S
C700 H684 0.939 . S
C700 C699 1.396 . S
C700 C701 1.397 . S
C701 C700 1.397 . S
C701 C702 1.385 . S
C702 H685 0.940 . S
C702 C701 1.385 . S
C702 C703 1.388 . S
C703 H682 0.939 . S
C703 C698 1.391 . S
C703 C702 1.388 . S
P704 O715 1.490 . S
P704 C718 1.812 . S
P704 C724 1.803 . S
P704 C730 1.819 . S
H705 C719 0.941 . S
H706 C720 0.939 . S
H707 C722 0.940 . S
H708 C723 0.940 . S
H709 C725 0.939 . S
H710 C726 0.942 . S
H711 C728 0.940 . S
H712 C729 0.939 . S
H713 C731 0.941 . S
H714 C735 0.939 . S
O715 P704 1.490 . S
H716 C732 0.939 . S
H717 C734 0.940 . S
C718 P704 1.812 . S
C718 C719 1.389 . S
C718 C723 1.391 . S
C719 H705 0.941 . S
C719 C718 1.389 . S
C719 C720 1.397 . S
C720 H706 0.939 . S
C720 C719 1.397 . S
C720 C721 1.378 . S
C721 C720 1.378 . S
C721 C722 1.378 . S
C722 H707 0.940 . S
C722 C721 1.378 . S
C722 C723 1.396 . S
C723 H708 0.940 . S
C723 C718 1.391 . S
C723 C722 1.396 . S
C724 P704 1.803 . S
C724 C725 1.378 . S
C724 C729 1.400 . S
C725 H709 0.939 . S
C725 C724 1.378 . S
C725 C726 1.361 . S
C726 H710 0.942 . S
C726 C725 1.361 . S
C726 C727 1.369 . S
C727 C726 1.369 . S
C727 C728 1.404 . S
C728 H711 0.940 . S
C728 C727 1.404 . S
C728 C729 1.389 . S
C729 H712 0.939 . S
C729 C724 1.400 . S
C729 C728 1.389 . S
C730 P704 1.819 . S
C730 C731 1.391 . S
C730 C735 1.391 . S
C731 H713 0.941 . S
C731 C730 1.391 . S
C731 C732 1.396 . S
C732 H716 0.939 . S
C732 C731 1.396 . S
C732 C733 1.397 . S
C733 C732 1.397 . S
C733 C734 1.385 . S
C734 H717 0.940 . S
C734 C733 1.385 . S
C734 C735 1.388 . S
C735 H714 0.939 . S
C735 C730 1.391 . S
C735 C734 1.388 . S
P736 O747 1.490 . S
P736 C750 1.812 . S
P736 C756 1.803 . S
P736 C762 1.819 . S
H737 C751 0.941 . S
H738 C752 0.939 . S
H739 C754 0.940 . S
H740 C755 0.940 . S
H741 C757 0.939 . S
H742 C758 0.942 . S
H743 C760 0.940 . S
H744 C761 0.939 . S
H745 C763 0.941 . S
H746 C767 0.939 . S
O747 P736 1.490 . S
H748 C764 0.939 . S
H749 C766 0.940 . S
C750 P736 1.812 . S
C750 C751 1.389 . S
C750 C755 1.391 . S
C751 H737 0.941 . S
C751 C750 1.389 . S
C751 C752 1.397 . S
C752 H738 0.939 . S
C752 C751 1.397 . S
C752 C753 1.378 . S
C753 C752 1.378 . S
C753 C754 1.378 . S
C754 H739 0.940 . S
C754 C753 1.378 . S
C754 C755 1.396 . S
C755 H740 0.940 . S
C755 C750 1.391 . S
C755 C754 1.396 . S
C756 P736 1.803 . S
C756 C757 1.378 . S
C756 C761 1.400 . S
C757 H741 0.939 . S
C757 C756 1.378 . S
C757 C758 1.361 . S
C758 H742 0.942 . S
C758 C757 1.361 . S
C758 C759 1.369 . S
C759 C758 1.369 . S
C759 C760 1.404 . S
C760 H743 0.940 . S
C760 C759 1.404 . S
C760 C761 1.389 . S
C761 H744 0.939 . S
C761 C756 1.400 . S
C761 C760 1.389 . S
C762 P736 1.819 . S
C762 C763 1.391 . S
C762 C767 1.391 . S
C763 H745 0.941 . S
C763 C762 1.391 . S
C763 C764 1.396 . S
C764 H748 0.939 . S
C764 C763 1.396 . S
C764 C765 1.397 . S
C765 C764 1.397 . S
C765 C766 1.385 . S
C766 H749 0.940 . S
C766 C765 1.385 . S
C766 C767 1.388 . S
C767 H746 0.939 . S
C767 C762 1.391 . S
C767 C766 1.388 . S
Zn768 O770 1.933 1_565 S
Zn768 O788 1.985 . S
Zn768 O799 1.955 . S
Zn769 O770 1.911 . S
Zn769 O789 1.970 . S
Zn769 O805 1.945 . S
Zn769 O812 1.981 . S
O770 Zn768 1.933 1_545 S
O770 Zn769 1.911 . S
O770 H771 0.841 1_655 S
H771 O770 0.841 1_455 S
C772 O773 1.246 . S
C772 O801 1.276 . S
O773 C772 1.246 . S
Zn774 O776 1.911 . S
Zn774 O791 1.970 . S
Zn774 O808 1.945 . S
Zn774 O815 1.981 . S
Zn775 O776 1.933 1_565 S
Zn775 O790 1.985 . S
Zn775 O797 1.955 . S
O776 Zn774 1.911 . S
O776 Zn775 1.933 1_545 S
O776 H777 0.841 . S
H777 O776 0.841 . S
Zn778 O779 1.933 1_565 S
Zn778 O792 1.985 . S
Zn778 O801 1.955 . S
O779 Zn778 1.933 1_545 S
O779 Zn780 1.911 . S
O779 H781 0.841 . S
Zn780 O779 1.911 . S
Zn780 O793 1.970 . S
Zn780 O809 1.981 1_655 S
Zn780 O811 1.945 . S
H781 O779 0.841 . S
Zn782 O783 1.933 1_565 S
Zn782 O795 1.985 . S
Zn782 O803 1.955 . S
O783 Zn782 1.933 1_545 S
O783 H784 0.841 . S
O783 Zn785 1.911 . S
H784 O783 0.841 . S
Zn785 O783 1.911 . S
Zn785 O796 1.970 . S
Zn785 O806 1.981 . S
Zn785 O814 1.945 . S
C786 O787 1.246 . S
C786 O803 1.276 . S
O787 C786 1.246 . S
O788 Zn768 1.985 . S
O788 C798 1.245 1_565 S
O789 Zn769 1.970 . S
O789 C798 1.263 . S
O790 Zn775 1.985 . S
O790 C802 1.245 1_565 S
O791 Zn774 1.970 . S
O791 C802 1.263 . S
O792 Zn778 1.985 . S
O792 C807 1.245 1_565 S
O793 Zn780 1.970 . S
O793 C807 1.263 . S
C794 O805 1.262 1_455 S
C794 O806 1.245 . S
O795 Zn782 1.985 . S
O795 C813 1.245 1_565 S
O796 Zn785 1.970 . S
O796 C813 1.263 . S
O797 Zn775 1.955 . S
O797 C816 1.276 . S
C798 O788 1.245 1_545 S
C798 O789 1.263 . S
O799 Zn768 1.955 . S
O799 C818 1.276 1_655 S
C800 O808 1.262 . S
C800 O809 1.245 . S
O801 C772 1.276 . S
O801 Zn778 1.955 . S
C802 O790 1.245 1_545 S
C802 O791 1.263 . S
O803 Zn782 1.955 . S
O803 C786 1.276 . S
C804 O811 1.262 . S
C804 O812 1.245 . S
O805 Zn769 1.945 . S
O805 C794 1.262 1_655 S
O806 Zn785 1.981 . S
O806 C794 1.245 . S
C807 O792 1.245 1_545 S
C807 O793 1.263 . S
O808 Zn774 1.945 . S
O808 C800 1.262 . S
O809 Zn780 1.981 1_455 S
O809 C800 1.245 . S
C810 O814 1.262 . S
C810 O815 1.245 . S
O811 Zn780 1.945 . S
O811 C804 1.262 . S
O812 Zn769 1.981 . S
O812 C804 1.245 . S
C813 O795 1.245 1_545 S
C813 O796 1.263 . S
O814 Zn785 1.945 . S
O814 C810 1.262 . S
O815 Zn774 1.981 . S
O815 C810 1.245 . S
C816 O797 1.276 . S
C816 O817 1.246 . S
O817 C816 1.246 . S
C818 O799 1.276 1_455 S
C818 O819 1.246 . S
O819 C818 1.246 . S
Zn820 O822 1.933 . S
Zn820 O840 1.985 . S
Zn820 O851 1.955 . S
Zn821 O822 1.911 1_556 S
Zn821 O841 1.970 . S
Zn821 O857 1.945 . S
Zn821 O864 1.981 . S
O822 Zn820 1.933 . S
O822 Zn821 1.911 1_554 S
O822 H823 0.841 . S
H823 O822 0.841 . S
C824 O825 1.246 . S
C824 O853 1.276 . S
O825 C824 1.246 . S
Zn826 O828 1.911 1_556 S
Zn826 O843 1.970 . S
Zn826 O860 1.945 . S
Zn826 O867 1.981 . S
Zn827 O828 1.933 . S
Zn827 O842 1.985 . S
Zn827 O849 1.955 . S
O828 Zn826 1.911 1_554 S
O828 Zn827 1.933 . S
O828 H829 0.841 1_565 S
H829 O828 0.841 1_545 S
Zn830 O831 1.933 . S
Zn830 O844 1.985 . S
Zn830 O853 1.955 . S
O831 Zn830 1.933 . S
O831 Zn832 1.911 1_554 S
O831 H833 0.841 . S
Zn832 O831 1.911 1_556 S
Zn832 O845 1.970 . S
Zn832 O861 1.981 . S
Zn832 O863 1.945 . S
H833 O831 0.841 . S
Zn834 O835 1.933 . S
Zn834 O847 1.985 . S
Zn834 O855 1.955 . S
O835 Zn834 1.933 . S
O835 H836 0.841 . S
O835 Zn837 1.911 1_554 S
H836 O835 0.841 . S
Zn837 O835 1.911 1_556 S
Zn837 O848 1.970 . S
Zn837 O858 1.981 1_565 S
Zn837 O866 1.945 . S
C838 O839 1.246 . S
C838 O855 1.276 . S
O839 C838 1.246 . S
O840 Zn820 1.985 . S
O840 C850 1.245 . S
O841 Zn821 1.970 . S
O841 C850 1.263 1_556 S
O842 Zn827 1.985 . S
O842 C854 1.245 . S
O843 Zn826 1.970 . S
O843 C854 1.263 1_556 S
O844 Zn830 1.985 . S
O844 C859 1.245 . S
O845 Zn832 1.970 . S
O845 C859 1.263 1_556 S
C846 O857 1.262 . S
C846 O858 1.245 . S
O847 Zn834 1.985 . S
O847 C865 1.245 . S
O848 Zn837 1.970 . S
O848 C865 1.263 1_556 S
O849 Zn827 1.955 . S
O849 C868 1.276 1_565 S
C850 O840 1.245 . S
C850 O841 1.263 1_554 S
O851 Zn820 1.955 . S
O851 C870 1.276 . S
C852 O860 1.262 1_545 S
C852 O861 1.245 . S
O853 C824 1.276 . S
O853 Zn830 1.955 . S
C854 O842 1.245 . S
C854 O843 1.263 1_554 S
O855 Zn834 1.955 . S
O855 C838 1.276 . S
C856 O863 1.262 . S
C856 O864 1.245 . S
O857 Zn821 1.945 . S
O857 C846 1.262 . S
O858 Zn837 1.981 1_545 S
O858 C846 1.245 . S
C859 O844 1.245 . S
C859 O845 1.263 1_554 S
O860 Zn826 1.945 . S
O860 C852 1.262 1_565 S
O861 Zn832 1.981 . S
O861 C852 1.245 . S
C862 O866 1.262 . S
C862 O867 1.245 . S
O863 Zn832 1.945 . S
O863 C856 1.262 . S
O864 Zn821 1.981 . S
O864 C856 1.245 . S
C865 O847 1.245 . S
C865 O848 1.263 1_554 S
O866 Zn837 1.945 . S
O866 C862 1.262 . S
O867 Zn826 1.981 . S
O867 C862 1.245 . S
C868 O849 1.276 1_545 S
C868 O869 1.246 . S
O869 C868 1.246 . S
C870 O851 1.276 . S
C870 O871 1.246 . S
O871 C870 1.246 . S
Zn872 O874 1.933 . S
Zn872 O892 1.985 . S
Zn872 O903 1.955 . S
Zn873 O874 1.911 . S
Zn873 O893 1.970 . S
Zn873 O909 1.945 . S
Zn873 O916 1.981 . S
O874 Zn872 1.933 . S
O874 Zn873 1.911 . S
O874 H875 0.841 1_655 S
H875 O874 0.841 1_455 S
C876 O877 1.246 1_554 S
C876 O905 1.276 . S
O877 C876 1.246 1_556 S
Zn878 O880 1.911 . S
Zn878 O895 1.970 . S
Zn878 O912 1.945 . S
Zn878 O919 1.981 . S
Zn879 O880 1.933 . S
Zn879 O894 1.985 . S
Zn879 O901 1.955 . S
O880 Zn878 1.911 . S
O880 Zn879 1.933 . S
O880 H881 0.841 . S
H881 O880 0.841 . S
Zn882 O883 1.933 . S
Zn882 O896 1.985 . S
Zn882 O905 1.955 . S
O883 Zn882 1.933 . S
O883 Zn884 1.911 . S
O883 H885 0.841 . S
Zn884 O883 1.911 . S
Zn884 O897 1.970 . S
Zn884 O913 1.981 1_655 S
Zn884 O915 1.945 . S
H885 O883 0.841 . S
Zn886 O887 1.933 . S
Zn886 O899 1.985 . S
Zn886 O907 1.955 . S
O887 Zn886 1.933 . S
O887 H888 0.841 1_556 S
O887 Zn889 1.911 . S
H888 O887 0.841 1_554 S
Zn889 O887 1.911 . S
Zn889 O900 1.970 . S
Zn889 O910 1.981 . S
Zn889 O918 1.945 . S
C890 O891 1.246 . S
C890 O907 1.276 1_554 S
O891 C890 1.246 . S
O892 Zn872 1.985 . S
O892 C902 1.245 . S
O893 Zn873 1.970 . S
O893 C902 1.263 . S
O894 Zn879 1.985 . S
O894 C906 1.245 . S
O895 Zn878 1.970 . S
O895 C906 1.263 . S
O896 Zn882 1.985 . S
O896 C911 1.245 . S
O897 Zn884 1.970 . S
O897 C911 1.263 . S
C898 O909 1.262 1_455 S
C898 O910 1.245 . S
O899 Zn886 1.985 . S
O899 C917 1.245 . S
O900 Zn889 1.970 . S
O900 C917 1.263 . S
O901 Zn879 1.955 . S
O901 C920 1.276 . S
C902 O892 1.245 . S
C902 O893 1.263 . S
O903 Zn872 1.955 . S
O903 C922 1.276 1_655 S
C904 O912 1.262 . S
C904 O913 1.245 . S
O905 C876 1.276 . S
O905 Zn882 1.955 . S
C906 O894 1.245 . S
C906 O895 1.263 . S
O907 Zn886 1.955 . S
O907 C890 1.276 1_556 S
C908 O915 1.262 . S
C908 O916 1.245 1_554 S
O909 Zn873 1.945 . S
O909 C898 1.262 1_655 S
O910 Zn889 1.981 . S
O910 C898 1.245 . S
C911 O896 1.245 . S
C911 O897 1.263 . S
O912 Zn878 1.945 . S
O912 C904 1.262 . S
O913 Zn884 1.981 1_455 S
O913 C904 1.245 . S
C914 O918 1.262 1_554 S
C914 O919 1.245 . S
O915 Zn884 1.945 . S
O915 C908 1.262 . S
O916 Zn873 1.981 . S
O916 C908 1.245 1_556 S
C917 O899 1.245 . S
C917 O900 1.263 . S
O918 Zn889 1.945 . S
O918 C914 1.262 1_556 S
O919 Zn878 1.981 . S
O919 C914 1.245 . S
C920 O901 1.276 . S
C920 O921 1.246 . S
O921 C920 1.246 . S
C922 O903 1.276 1_455 S
C922 O923 1.246 . S
O923 C922 1.246 . S
Zn924 O926 1.933 1_556 S
Zn924 O944 1.985 . S
Zn924 O955 1.955 . S
Zn925 O926 1.911 . S
Zn925 O945 1.970 . S
Zn925 O961 1.945 . S
Zn925 O968 1.981 . S
O926 Zn924 1.933 1_554 S
O926 Zn925 1.911 . S
O926 H927 0.841 . S
H927 O926 0.841 . S
C928 O929 1.246 . S
C928 O957 1.276 . S
O929 C928 1.246 . S
Zn930 O932 1.911 . S
Zn930 O947 1.970 . S
Zn930 O964 1.945 . S
Zn930 O971 1.981 . S
Zn931 O932 1.933 1_556 S
Zn931 O946 1.985 . S
Zn931 O953 1.955 . S
O932 Zn930 1.911 . S
O932 Zn931 1.933 1_554 S
O932 H933 0.841 . S
H933 O932 0.841 . S
Zn934 O935 1.933 1_556 S
Zn934 O948 1.985 . S
Zn934 O957 1.955 . S
O935 Zn934 1.933 1_554 S
O935 Zn936 1.911 . S
O935 H937 0.841 . S
Zn936 O935 1.911 . S
Zn936 O949 1.970 . S
Zn936 O965 1.981 . S
Zn936 O967 1.945 . S
H937 O935 0.841 . S
Zn938 O939 1.933 1_556 S
Zn938 O951 1.985 . S
Zn938 O959 1.955 . S
O939 Zn938 1.933 1_554 S
O939 H940 0.841 . S
O939 Zn941 1.911 . S
H940 O939 0.841 . S
Zn941 O939 1.911 . S
Zn941 O952 1.970 . S
Zn941 O962 1.981 . S
Zn941 O970 1.945 . S
C942 O943 1.246 . S
C942 O959 1.276 . S
O943 C942 1.246 . S
O944 Zn924 1.985 . S
O944 C954 1.245 1_556 S
O945 Zn925 1.970 . S
O945 C954 1.263 . S
O946 Zn931 1.985 . S
O946 C958 1.245 1_556 S
O947 Zn930 1.970 . S
O947 C958 1.263 . S
O948 Zn934 1.985 . S
O948 C963 1.245 1_556 S
O949 Zn936 1.970 . S
O949 C963 1.263 . S
C950 O961 1.262 . S
C950 O962 1.245 . S
O951 Zn938 1.985 . S
O951 C969 1.245 1_556 S
O952 Zn941 1.970 . S
O952 C969 1.263 . S
O953 Zn931 1.955 . S
O953 C972 1.276 . S
C954 O944 1.245 1_554 S
C954 O945 1.263 . S
O955 Zn924 1.955 . S
O955 C974 1.276 . S
C956 O964 1.262 . S
C956 O965 1.245 . S
O957 C928 1.276 . S
O957 Zn934 1.955 . S
C958 O946 1.245 1_554 S
C958 O947 1.263 . S
O959 Zn938 1.955 . S
O959 C942 1.276 . S
C960 O967 1.262 . S
C960 O968 1.245 . S
O961 Zn925 1.945 . S
O961 C950 1.262 . S
O962 Zn941 1.981 . S
O962 C950 1.245 . S
C963 O948 1.245 1_554 S
C963 O949 1.263 . S
O964 Zn930 1.945 . S
O964 C956 1.262 . S
O965 Zn936 1.981 . S
O965 C956 1.245 . S
C966 O970 1.262 . S
C966 O971 1.245 . S
O967 Zn936 1.945 . S
O967 C960 1.262 . S
O968 Zn925 1.981 . S
O968 C960 1.245 . S
C969 O951 1.245 1_554 S
C969 O952 1.263 . S
O970 Zn941 1.945 . S
O970 C966 1.262 . S
O971 Zn930 1.981 . S
O971 C966 1.245 . S
C972 O953 1.276 . S
C972 O973 1.246 . S
O973 C972 1.246 . S
C974 O955 1.276 . S
C974 O975 1.246 . S
O975 C974 1.246 . S
Zn976 O978 1.933 . S
Zn976 O996 1.985 . S
Zn976 O1007 1.955 . S
Zn977 O978 1.911 . S
Zn977 O997 1.970 . S
Zn977 O1013 1.945 . S
Zn977 O1020 1.981 . S
O978 Zn976 1.933 . S
O978 Zn977 1.911 . S
O978 H979 0.841 1_655 S
H979 O978 0.841 1_455 S
C980 O981 1.246 . S
C980 O1009 1.276 . S
O981 C980 1.246 . S
Zn982 O984 1.911 . S
Zn982 O999 1.970 . S
Zn982 O1016 1.945 . S
Zn982 O1023 1.981 . S
Zn983 O984 1.933 . S
Zn983 O998 1.985 . S
Zn983 O1005 1.955 . S
O984 Zn982 1.911 . S
O984 Zn983 1.933 . S
O984 H985 0.841 . S
H985 O984 0.841 . S
Zn986 O987 1.933 . S
Zn986 O1000 1.985 . S
Zn986 O1009 1.955 . S
O987 Zn986 1.933 . S
O987 Zn988 1.911 . S
O987 H989 0.841 . S
Zn988 O987 1.911 . S
Zn988 O1001 1.970 . S
Zn988 O1017 1.981 1_655 S
Zn988 O1019 1.945 . S
H989 O987 0.841 . S
Zn990 O991 1.933 . S
Zn990 O1003 1.985 . S
Zn990 O1011 1.955 . S
O991 Zn990 1.933 . S
O991 H992 0.841 . S
O991 Zn993 1.911 . S
H992 O991 0.841 . S
Zn993 O991 1.911 . S
Zn993 O1004 1.970 . S
Zn993 O1014 1.981 . S
Zn993 O1022 1.945 . S
C994 O995 1.246 . S
C994 O1011 1.276 . S
O995 C994 1.246 . S
O996 Zn976 1.985 . S
O996 C1006 1.245 . S
O997 Zn977 1.970 . S
O997 C1006 1.263 . S
O998 Zn983 1.985 . S
O998 C1010 1.245 . S
O999 Zn982 1.970 . S
O999 C1010 1.263 . S
O1000 Zn986 1.985 . S
O1000 C1015 1.245 . S
O1001 Zn988 1.970 . S
O1001 C1015 1.263 . S
C1002 O1013 1.262 1_455 S
C1002 O1014 1.245 . S
O1003 Zn990 1.985 . S
O1003 C1021 1.245 . S
O1004 Zn993 1.970 . S
O1004 C1021 1.263 . S
O1005 Zn983 1.955 . S
O1005 C1024 1.276 . S
C1006 O996 1.245 . S
C1006 O997 1.263 . S
O1007 Zn976 1.955 . S
O1007 C1026 1.276 1_655 S
C1008 O1016 1.262 . S
C1008 O1017 1.245 . S
O1009 C980 1.276 . S
O1009 Zn986 1.955 . S
C1010 O998 1.245 . S
C1010 O999 1.263 . S
O1011 Zn990 1.955 . S
O1011 C994 1.276 . S
C1012 O1019 1.262 . S
C1012 O1020 1.245 . S
O1013 Zn977 1.945 . S
O1013 C1002 1.262 1_655 S
O1014 Zn993 1.981 . S
O1014 C1002 1.245 . S
C1015 O1000 1.245 . S
C1015 O1001 1.263 . S
O1016 Zn982 1.945 . S
O1016 C1008 1.262 . S
O1017 Zn988 1.981 1_455 S
O1017 C1008 1.245 . S
C1018 O1022 1.262 . S
C1018 O1023 1.245 . S
O1019 Zn988 1.945 . S
O1019 C1012 1.262 . S
O1020 Zn977 1.981 . S
O1020 C1012 1.245 . S
C1021 O1003 1.245 . S
C1021 O1004 1.263 . S
O1022 Zn993 1.945 . S
O1022 C1018 1.262 . S
O1023 Zn982 1.981 . S
O1023 C1018 1.245 . S
C1024 O1005 1.276 . S
C1024 O1025 1.246 . S
O1025 C1024 1.246 . S
C1026 O1007 1.276 1_455 S
C1026 O1027 1.246 . S
O1027 C1026 1.246 . S
Zn1028 O1030 1.933 1_565 S
Zn1028 O1048 1.985 . S
Zn1028 O1059 1.955 . S
Zn1029 O1030 1.911 . S
Zn1029 O1049 1.970 . S
Zn1029 O1065 1.945 . S
Zn1029 O1072 1.981 . S
O1030 Zn1028 1.933 1_545 S
O1030 Zn1029 1.911 . S
O1030 H1031 0.841 . S
H1031 O1030 0.841 . S
C1032 O1033 1.246 . S
C1032 O1061 1.276 . S
O1033 C1032 1.246 . S
Zn1034 O1036 1.911 . S
Zn1034 O1051 1.970 . S
Zn1034 O1068 1.945 . S
Zn1034 O1075 1.981 . S
Zn1035 O1036 1.933 1_565 S
Zn1035 O1050 1.985 . S
Zn1035 O1057 1.955 . S
O1036 Zn1034 1.911 . S
O1036 Zn1035 1.933 1_545 S
O1036 H1037 0.841 . S
H1037 O1036 0.841 . S
Zn1038 O1039 1.933 1_565 S
Zn1038 O1052 1.985 . S
Zn1038 O1061 1.955 . S
O1039 Zn1038 1.933 1_545 S
O1039 Zn1040 1.911 . S
O1039 H1041 0.841 . S
Zn1040 O1039 1.911 . S
Zn1040 O1053 1.970 . S
Zn1040 O1069 1.981 . S
Zn1040 O1071 1.945 . S
H1041 O1039 0.841 . S
Zn1042 O1043 1.933 1_565 S
Zn1042 O1055 1.985 . S
Zn1042 O1063 1.955 . S
O1043 Zn1042 1.933 1_545 S
O1043 H1044 0.841 . S
O1043 Zn1045 1.911 . S
H1044 O1043 0.841 . S
Zn1045 O1043 1.911 . S
Zn1045 O1056 1.970 . S
Zn1045 O1066 1.981 . S
Zn1045 O1074 1.945 . S
C1046 O1047 1.246 . S
C1046 O1063 1.276 . S
O1047 C1046 1.246 . S
O1048 Zn1028 1.985 . S
O1048 C1058 1.245 1_565 S
O1049 Zn1029 1.970 . S
O1049 C1058 1.263 . S
O1050 Zn1035 1.985 . S
O1050 C1062 1.245 1_565 S
O1051 Zn1034 1.970 . S
O1051 C1062 1.263 . S
O1052 Zn1038 1.985 . S
O1052 C1067 1.245 1_565 S
O1053 Zn1040 1.970 . S
O1053 C1067 1.263 . S
C1054 O1065 1.262 . S
C1054 O1066 1.245 . S
O1055 Zn1042 1.985 . S
O1055 C1073 1.245 1_565 S
O1056 Zn1045 1.970 . S
O1056 C1073 1.263 . S
O1057 Zn1035 1.955 . S
O1057 C1076 1.276 . S
C1058 O1048 1.245 1_545 S
C1058 O1049 1.263 . S
O1059 Zn1028 1.955 . S
O1059 C1078 1.276 . S
C1060 O1068 1.262 . S
C1060 O1069 1.245 . S
O1061 C1032 1.276 . S
O1061 Zn1038 1.955 . S
C1062 O1050 1.245 1_545 S
C1062 O1051 1.263 . S
O1063 Zn1042 1.955 . S
O1063 C1046 1.276 . S
C1064 O1071 1.262 . S
C1064 O1072 1.245 . S
O1065 Zn1029 1.945 . S
O1065 C1054 1.262 . S
O1066 Zn1045 1.981 . S
O1066 C1054 1.245 . S
C1067 O1052 1.245 1_545 S
C1067 O1053 1.263 . S
O1068 Zn1034 1.945 . S
O1068 C1060 1.262 . S
O1069 Zn1040 1.981 . S
O1069 C1060 1.245 . S
C1070 O1074 1.262 . S
C1070 O1075 1.245 . S
O1071 Zn1040 1.945 . S
O1071 C1064 1.262 . S
O1072 Zn1029 1.981 . S
O1072 C1064 1.245 . S
C1073 O1055 1.245 1_545 S
C1073 O1056 1.263 . S
O1074 Zn1045 1.945 . S
O1074 C1070 1.262 . S
O1075 Zn1034 1.981 . S
O1075 C1070 1.245 . S
C1076 O1057 1.276 . S
C1076 O1077 1.246 . S
O1077 C1076 1.246 . S
C1078 O1059 1.276 . S
C1078 O1079 1.246 . S
O1079 C1078 1.246 . S
C1080 C1081 1.369 . S
C1080 C1082 1.419 . S
C1080 H1084 0.930 . S
C1081 C1080 1.369 . S
C1081 C1090 1.429 . S
C1082 C1080 1.419 . S
C1082 C1083 1.363 . S
C1082 H1085 0.929 . S
C1083 C1082 1.363 . S
C1083 C1089 1.428 . S
H1084 C1080 0.930 . S
H1085 C1082 0.929 . S
S1086 N1087 1.613 . S
S1086 N1088 1.610 . S
N1087 S1086 1.613 . S
N1087 C1090 1.350 . S
N1088 S1086 1.610 . S
N1088 C1089 1.351 . S
C1089 C1083 1.428 . S
C1089 N1088 1.351 . S
C1089 C1090 1.434 . S
C1090 C1081 1.429 . S
C1090 N1087 1.350 . S
C1090 C1089 1.434 . S
C1091 C1092 1.369 . S
C1091 C1093 1.419 . S
C1091 H1095 0.930 . S
C1092 C1091 1.369 . S
C1092 C1101 1.429 . S
C1093 C1091 1.419 . S
C1093 C1094 1.363 . S
C1093 H1096 0.929 . S
C1094 C1093 1.363 . S
C1094 C1100 1.428 . S
H1095 C1091 0.930 . S
H1096 C1093 0.929 . S
S1097 N1098 1.613 . S
S1097 N1099 1.610 . S
N1098 S1097 1.613 . S
N1098 C1101 1.350 . S
N1099 S1097 1.610 . S
N1099 C1100 1.351 . S
C1100 C1094 1.428 . S
C1100 N1099 1.351 . S
C1100 C1101 1.434 . S
C1101 C1092 1.429 . S
C1101 N1098 1.350 . S
C1101 C1100 1.434 . S
C1102 C1103 1.369 . S
C1102 C1104 1.419 . S
C1102 H1106 0.930 . S
C1103 C1102 1.369 . S
C1103 C1112 1.429 . S
C1104 C1102 1.419 . S
C1104 C1105 1.363 . S
C1104 H1107 0.929 . S
C1105 C1104 1.363 . S
C1105 C1111 1.428 . S
H1106 C1102 0.930 . S
H1107 C1104 0.929 . S
S1108 N1109 1.613 . S
S1108 N1110 1.610 . S
N1109 S1108 1.613 . S
N1109 C1112 1.350 . S
N1110 S1108 1.610 . S
N1110 C1111 1.351 . S
C1111 C1105 1.428 . S
C1111 N1110 1.351 . S
C1111 C1112 1.434 . S
C1112 C1103 1.429 . S
C1112 N1109 1.350 . S
C1112 C1111 1.434 . S
C1113 C1114 1.369 . S
C1113 C1115 1.419 . S
C1113 H1117 0.930 . S
C1114 C1113 1.369 . S
C1114 C1123 1.429 . S
C1115 C1113 1.419 . S
C1115 C1116 1.363 . S
C1115 H1118 0.929 . S
C1116 C1115 1.363 . S
C1116 C1122 1.428 . S
H1117 C1113 0.930 . S
H1118 C1115 0.929 . S
S1119 N1120 1.613 . S
S1119 N1121 1.610 . S
N1120 S1119 1.613 . S
N1120 C1123 1.350 . S
N1121 S1119 1.610 . S
N1121 C1122 1.351 . S
C1122 C1116 1.428 . S
C1122 N1121 1.351 . S
C1122 C1123 1.434 . S
C1123 C1114 1.429 . S
C1123 N1120 1.350 . S
C1123 C1122 1.434 . S
C1124 C1125 1.369 . S
C1124 C1126 1.419 . S
C1124 H1128 0.930 . S
C1125 C1124 1.369 . S
C1125 C1134 1.429 . S
C1126 C1124 1.419 . S
C1126 C1127 1.363 . S
C1126 H1129 0.929 . S
C1127 C1126 1.363 . S
C1127 C1133 1.428 . S
H1128 C1124 0.930 . S
H1129 C1126 0.929 . S
S1130 N1131 1.613 . S
S1130 N1132 1.610 . S
N1131 S1130 1.613 . S
N1131 C1134 1.350 . S
N1132 S1130 1.610 . S
N1132 C1133 1.351 . S
C1133 C1127 1.428 . S
C1133 N1132 1.351 . S
C1133 C1134 1.434 . S
C1134 C1125 1.429 . S
C1134 N1131 1.350 . S
C1134 C1133 1.434 . S
C1135 C1136 1.369 . S
C1135 C1137 1.419 . S
C1135 H1139 0.930 . S
C1136 C1135 1.369 . S
C1136 C1145 1.429 . S
C1137 C1135 1.419 . S
C1137 C1138 1.363 . S
C1137 H1140 0.929 . S
C1138 C1137 1.363 . S
C1138 C1144 1.428 . S
H1139 C1135 0.930 . S
H1140 C1137 0.929 . S
S1141 N1142 1.613 . S
S1141 N1143 1.610 . S
N1142 S1141 1.613 . S
N1142 C1145 1.350 . S
N1143 S1141 1.610 . S
N1143 C1144 1.351 . S
C1144 C1138 1.428 . S
C1144 N1143 1.351 . S
C1144 C1145 1.434 . S
C1145 C1136 1.429 . S
C1145 N1142 1.350 . S
C1145 C1144 1.434 . S
C1146 C1147 1.369 . S
C1146 C1148 1.419 . S
C1146 H1150 0.930 . S
C1147 C1146 1.369 . S
C1147 C1156 1.429 . S
C1148 C1146 1.419 . S
C1148 C1149 1.363 . S
C1148 H1151 0.929 . S
C1149 C1148 1.363 . S
C1149 C1155 1.428 . S
H1150 C1146 0.930 . S
H1151 C1148 0.929 . S
S1152 N1153 1.613 . S
S1152 N1154 1.610 . S
N1153 S1152 1.613 . S
N1153 C1156 1.350 . S
N1154 S1152 1.610 . S
N1154 C1155 1.351 . S
C1155 C1149 1.428 . S
C1155 N1154 1.351 . S
C1155 C1156 1.434 . S
C1156 C1147 1.429 . S
C1156 N1153 1.350 . S
C1156 C1155 1.434 . S
C1157 C1158 1.369 . S
C1157 C1159 1.419 . S
C1157 H1161 0.930 . S
C1158 C1157 1.369 . S
C1158 C1167 1.429 . S
C1159 C1157 1.419 . S
C1159 C1160 1.363 . S
C1159 H1162 0.929 . S
C1160 C1159 1.363 . S
C1160 C1166 1.428 . S
H1161 C1157 0.930 . S
H1162 C1159 0.929 . S
S1163 N1164 1.613 . S
S1163 N1165 1.610 . S
N1164 S1163 1.613 . S
N1164 C1167 1.350 . S
N1165 S1163 1.610 . S
N1165 C1166 1.351 . S
C1166 C1160 1.428 . S
C1166 N1165 1.351 . S
C1166 C1167 1.434 . S
C1167 C1158 1.429 . S
C1167 N1164 1.350 . S
C1167 C1166 1.434 . S
C1168 C1169 1.369 . S
C1168 C1170 1.419 . S
C1168 H1172 0.930 . S
C1169 C1168 1.369 . S
C1169 C1178 1.429 . S
C1170 C1168 1.419 . S
C1170 C1171 1.363 . S
C1170 H1173 0.929 . S
C1171 C1170 1.363 . S
C1171 C1177 1.428 . S
H1172 C1168 0.930 . S
H1173 C1170 0.929 . S
S1174 N1175 1.613 . S
S1174 N1176 1.610 . S
N1175 S1174 1.613 . S
N1175 C1178 1.350 . S
N1176 S1174 1.610 . S
N1176 C1177 1.351 . S
C1177 C1171 1.428 . S
C1177 N1176 1.351 . S
C1177 C1178 1.434 . S
C1178 C1169 1.429 . S
C1178 N1175 1.350 . S
C1178 C1177 1.434 . S
C1179 C1180 1.369 . S
C1179 C1181 1.419 . S
C1179 H1183 0.930 . S
C1180 C1179 1.369 . S
C1180 C1189 1.429 . S
C1181 C1179 1.419 . S
C1181 C1182 1.363 . S
C1181 H1184 0.929 . S
C1182 C1181 1.363 . S
C1182 C1188 1.428 . S
H1183 C1179 0.930 . S
H1184 C1181 0.929 . S
S1185 N1186 1.613 . S
S1185 N1187 1.610 . S
N1186 S1185 1.613 . S
N1186 C1189 1.350 . S
N1187 S1185 1.610 . S
N1187 C1188 1.351 . S
C1188 C1182 1.428 . S
C1188 N1187 1.351 . S
C1188 C1189 1.434 . S
C1189 C1180 1.429 . S
C1189 N1186 1.350 . S
C1189 C1188 1.434 . S
C1190 C1191 1.369 . S
C1190 C1192 1.419 . S
C1190 H1194 0.930 . S
C1191 C1190 1.369 . S
C1191 C1200 1.429 . S
C1192 C1190 1.419 . S
C1192 C1193 1.363 . S
C1192 H1195 0.929 . S
C1193 C1192 1.363 . S
C1193 C1199 1.428 . S
H1194 C1190 0.930 . S
H1195 C1192 0.929 . S
S1196 N1197 1.613 . S
S1196 N1198 1.610 . S
N1197 S1196 1.613 . S
N1197 C1200 1.350 . S
N1198 S1196 1.610 . S
N1198 C1199 1.351 . S
C1199 C1193 1.428 . S
C1199 N1198 1.351 . S
C1199 C1200 1.434 . S
C1200 C1191 1.429 . S
C1200 N1197 1.350 . S
C1200 C1199 1.434 . S
C1201 C1202 1.369 . S
C1201 C1203 1.419 . S
C1201 H1205 0.930 . S
C1202 C1201 1.369 . S
C1202 C1211 1.429 . S
C1203 C1201 1.419 . S
C1203 C1204 1.363 . S
C1203 H1206 0.929 . S
C1204 C1203 1.363 . S
C1204 C1210 1.428 . S
H1205 C1201 0.930 . S
H1206 C1203 0.929 . S
S1207 N1208 1.613 . S
S1207 N1209 1.610 . S
N1208 S1207 1.613 . S
N1208 C1211 1.350 . S
N1209 S1207 1.610 . S
N1209 C1210 1.351 . S
C1210 C1204 1.428 . S
C1210 N1209 1.351 . S
C1210 C1211 1.434 . S
C1211 C1202 1.429 . S
C1211 N1208 1.350 . S
C1211 C1210 1.434 . S
C1212 C1213 1.369 . S
C1212 C1214 1.419 . S
C1212 H1216 0.930 . S
C1213 C1212 1.369 . S
C1213 C1222 1.429 1_554 S
C1214 C1212 1.419 . S
C1214 C1215 1.363 . S
C1214 H1217 0.929 . S
C1215 C1214 1.363 . S
C1215 C1221 1.428 1_554 S
H1216 C1212 0.930 . S
H1217 C1214 0.929 . S
S1218 N1219 1.613 . S
S1218 N1220 1.610 . S
N1219 S1218 1.613 . S
N1219 C1222 1.350 . S
N1220 S1218 1.610 . S
N1220 C1221 1.351 . S
C1221 C1215 1.428 1_556 S
C1221 N1220 1.351 . S
C1221 C1222 1.434 . S
C1222 C1213 1.429 1_556 S
C1222 N1219 1.350 . S
C1222 C1221 1.434 . S
C1223 C1224 1.369 1_556 S
C1223 C1225 1.419 . S
C1223 H1227 0.930 . S
C1224 C1223 1.369 1_554 S
C1224 C1233 1.429 . S
C1225 C1223 1.419 . S
C1225 C1226 1.363 1_556 S
C1225 H1228 0.929 . S
C1226 C1225 1.363 1_554 S
C1226 C1232 1.428 . S
H1227 C1223 0.930 . S
H1228 C1225 0.929 . S
S1229 N1230 1.613 . S
S1229 N1231 1.610 . S
N1230 S1229 1.613 . S
N1230 C1233 1.350 . S
N1231 S1229 1.610 . S
N1231 C1232 1.351 . S
C1232 C1226 1.428 . S
C1232 N1231 1.351 . S
C1232 C1233 1.434 . S
C1233 C1224 1.429 . S
C1233 N1230 1.350 . S
C1233 C1232 1.434 . S
C1234 C1235 1.369 . S
C1234 C1236 1.419 . S
C1234 H1238 0.930 . S
C1235 C1234 1.369 . S
C1235 C1244 1.429 . S
C1236 C1234 1.419 . S
C1236 C1237 1.363 . S
C1236 H1239 0.929 1_554 S
C1237 C1236 1.363 . S
C1237 C1243 1.428 . S
H1238 C1234 0.930 . S
H1239 C1236 0.929 1_556 S
S1240 N1241 1.613 . S
S1240 N1242 1.610 . S
N1241 S1240 1.613 . S
N1241 C1244 1.350 . S
N1242 S1240 1.610 . S
N1242 C1243 1.351 . S
C1243 C1237 1.428 . S
C1243 N1242 1.351 . S
C1243 C1244 1.434 . S
C1244 C1235 1.429 . S
C1244 N1241 1.350 . S
C1244 C1243 1.434 . S
C1245 C1246 1.369 1_556 S
C1245 C1247 1.419 . S
C1245 H1249 0.930 . S
C1246 C1245 1.369 1_554 S
C1246 C1255 1.429 . S
C1247 C1245 1.419 . S
C1247 C1248 1.363 1_556 S
C1247 H1250 0.929 . S
C1248 C1247 1.363 1_554 S
C1248 C1254 1.428 . S
H1249 C1245 0.930 . S
H1250 C1247 0.929 . S
S1251 N1252 1.613 . S
S1251 N1253 1.610 . S
N1252 S1251 1.613 . S
N1252 C1255 1.350 . S
N1253 S1251 1.610 . S
N1253 C1254 1.351 . S
C1254 C1248 1.428 . S
C1254 N1253 1.351 . S
C1254 C1255 1.434 . S
C1255 C1246 1.429 . S
C1255 N1252 1.350 . S
C1255 C1254 1.434 . S
C1256 C1257 1.369 . S
C1256 C1258 1.419 . S
C1256 H1260 0.930 . S
C1257 C1256 1.369 . S
C1257 C1266 1.429 1_455 S
C1258 C1256 1.419 . S
C1258 C1259 1.363 . S
C1258 H1261 0.929 . S
C1259 C1258 1.363 . S
C1259 C1265 1.428 1_455 S
H1260 C1256 0.930 . S
H1261 C1258 0.929 . S
S1262 N1263 1.613 . S
S1262 N1264 1.610 . S
N1263 S1262 1.613 . S
N1263 C1266 1.350 . S
N1264 S1262 1.610 . S
N1264 C1265 1.351 . S
C1265 C1259 1.428 1_655 S
C1265 N1264 1.351 . S
C1265 C1266 1.434 . S
C1266 C1257 1.429 1_655 S
C1266 N1263 1.350 . S
C1266 C1265 1.434 . S
C1267 C1268 1.369 . S
C1267 C1269 1.419 . S
C1267 H1271 0.930 . S
C1268 C1267 1.369 . S
C1268 C1277 1.429 . S
C1269 C1267 1.419 . S
C1269 C1270 1.363 . S
C1269 H1272 0.929 . S
C1270 C1269 1.363 . S
C1270 C1276 1.428 . S
H1271 C1267 0.930 . S
H1272 C1269 0.929 . S
S1273 N1274 1.613 . S
S1273 N1275 1.610 1_565 S
N1274 S1273 1.613 . S
N1274 C1277 1.350 1_565 S
N1275 S1273 1.610 1_545 S
N1275 C1276 1.351 . S
C1276 C1270 1.428 . S
C1276 N1275 1.351 . S
C1276 C1277 1.434 . S
C1277 C1268 1.429 . S
C1277 N1274 1.350 1_545 S
C1277 C1276 1.434 . S
C1278 C1279 1.369 . S
C1278 C1280 1.419 . S
C1278 H1282 0.930 . S
C1279 C1278 1.369 . S
C1279 C1288 1.429 . S
C1280 C1278 1.419 . S
C1280 C1281 1.363 . S
C1280 H1283 0.929 1_455 S
C1281 C1280 1.363 . S
C1281 C1287 1.428 . S
H1282 C1278 0.930 . S
H1283 C1280 0.929 1_655 S
S1284 N1285 1.613 . S
S1284 N1286 1.610 . S
N1285 S1284 1.613 . S
N1285 C1288 1.350 . S
N1286 S1284 1.610 . S
N1286 C1287 1.351 . S
C1287 C1281 1.428 . S
C1287 N1286 1.351 . S
C1287 C1288 1.434 . S
C1288 C1279 1.429 . S
C1288 N1285 1.350 . S
C1288 C1287 1.434 . S
C1289 C1290 1.369 . S
C1289 C1291 1.419 . S
C1289 H1293 0.930 . S
C1290 C1289 1.369 . S
C1290 C1299 1.429 . S
C1291 C1289 1.419 . S
C1291 C1292 1.363 . S
C1291 H1294 0.929 . S
C1292 C1291 1.363 . S
C1292 C1298 1.428 . S
H1293 C1289 0.930 . S
H1294 C1291 0.929 . S
S1295 N1296 1.613 . S
S1295 N1297 1.610 . S
N1296 S1295 1.613 . S
N1296 C1299 1.350 . S
N1297 S1295 1.610 . S
N1297 C1298 1.351 . S
C1298 C1292 1.428 . S
C1298 N1297 1.351 . S
C1298 C1299 1.434 . S
C1299 C1290 1.429 . S
C1299 N1296 1.350 . S
C1299 C1298 1.434 . S
C1300 C1301 1.369 . S
C1300 C1302 1.419 . S
C1300 H1304 0.930 . S
C1301 C1300 1.369 . S
C1301 C1310 1.429 . S
C1302 C1300 1.419 . S
C1302 C1303 1.363 . S
C1302 H1305 0.929 . S
C1303 C1302 1.363 . S
C1303 C1309 1.428 . S
H1304 C1300 0.930 . S
H1305 C1302 0.929 . S
S1306 N1307 1.613 . S
S1306 N1308 1.610 . S
N1307 S1306 1.613 . S
N1307 C1310 1.350 . S
N1308 S1306 1.610 . S
N1308 C1309 1.351 . S
C1309 C1303 1.428 . S
C1309 N1308 1.351 . S
C1309 C1310 1.434 . S
C1310 C1301 1.429 . S
C1310 N1307 1.350 . S
C1310 C1309 1.434 . S
C1311 C1312 1.369 . S
C1311 C1313 1.419 . S
C1311 H1315 0.930 . S
C1312 C1311 1.369 . S
C1312 C1321 1.429 . S
C1313 C1311 1.419 . S
C1313 C1314 1.363 . S
C1313 H1316 0.929 . S
C1314 C1313 1.363 . S
C1314 C1320 1.428 . S
H1315 C1311 0.930 . S
H1316 C1313 0.929 . S
S1317 N1318 1.613 . S
S1317 N1319 1.610 . S
N1318 S1317 1.613 . S
N1318 C1321 1.350 . S
N1319 S1317 1.610 . S
N1319 C1320 1.351 . S
C1320 C1314 1.428 . S
C1320 N1319 1.351 . S
C1320 C1321 1.434 . S
C1321 C1312 1.429 . S
C1321 N1318 1.350 . S
C1321 C1320 1.434 . S
C1322 C1323 1.369 . S
C1322 C1324 1.419 . S
C1322 H1326 0.930 . S
C1323 C1322 1.369 . S
C1323 C1332 1.429 . S
C1324 C1322 1.419 . S
C1324 C1325 1.363 . S
C1324 H1327 0.929 . S
C1325 C1324 1.363 . S
C1325 C1331 1.428 . S
H1326 C1322 0.930 . S
H1327 C1324 0.929 . S
S1328 N1329 1.613 . S
S1328 N1330 1.610 . S
N1329 S1328 1.613 . S
N1329 C1332 1.350 1_655 S
N1330 S1328 1.610 . S
N1330 C1331 1.351 1_655 S
C1331 C1325 1.428 . S
C1331 N1330 1.351 1_455 S
C1331 C1332 1.434 . S
C1332 C1323 1.429 . S
C1332 N1329 1.350 1_455 S
C1332 C1331 1.434 . S
C1333 C1334 1.369 1_565 S
C1333 C1335 1.419 1_565 S
C1333 H1337 0.930 . S
C1334 C1333 1.369 1_545 S
C1334 C1343 1.429 . S
C1335 C1333 1.419 1_545 S
C1335 C1336 1.363 . S
C1335 H1338 0.922 1_545 S
C1336 C1335 1.363 . S
C1336 C1342 1.428 . S
H1337 C1333 0.930 . S
H1338 C1335 0.922 1_565 S
S1339 N1340 1.613 . S
S1339 N1341 1.610 . S
N1340 S1339 1.613 . S
N1340 C1343 1.350 . S
N1341 S1339 1.610 . S
N1341 C1342 1.351 . S
C1342 C1336 1.428 . S
C1342 N1341 1.351 . S
C1342 C1343 1.434 . S
C1343 C1334 1.429 . S
C1343 N1340 1.350 . S
C1343 C1342 1.434 . S
C1344 C1345 1.369 . S
C1344 C1346 1.419 . S
C1344 H1348 0.930 . S
C1345 C1344 1.369 . S
C1345 C1354 1.429 . S
C1346 C1344 1.419 . S
C1346 C1347 1.363 . S
C1346 H1349 0.929 . S
C1347 C1346 1.363 . S
C1347 C1353 1.428 . S
H1348 C1344 0.930 . S
H1349 C1346 0.929 . S
S1350 N1351 1.613 1_655 S
S1350 N1352 1.610 1_655 S
N1351 S1350 1.613 1_455 S
N1351 C1354 1.350 . S
N1352 S1350 1.610 1_455 S
N1352 C1353 1.351 . S
C1353 C1347 1.428 . S
C1353 N1352 1.351 . S
C1353 C1354 1.434 . S
C1354 C1345 1.429 . S
C1354 N1351 1.350 . S
C1354 C1353 1.434 . S
C1355 C1356 1.369 . S
C1355 C1357 1.419 . S
C1355 H1359 0.930 . S
C1356 C1355 1.369 . S
C1356 C1365 1.429 . S
C1357 C1355 1.419 . S
C1357 C1358 1.363 . S
C1357 H1360 0.929 . S
C1358 C1357 1.363 . S
C1358 C1364 1.428 . S
H1359 C1355 0.930 . S
H1360 C1357 0.929 . S
S1361 N1362 1.613 . S
S1361 N1363 1.610 . S
N1362 S1361 1.613 . S
N1362 C1365 1.350 . S
N1363 S1361 1.610 . S
N1363 C1364 1.351 . S
C1364 C1358 1.428 . S
C1364 N1363 1.351 . S
C1364 C1365 1.434 . S
C1365 C1356 1.429 . S
C1365 N1362 1.350 . S
C1365 C1364 1.434 . S
C1366 C1367 1.347 1_655 S
C1366 C1368 1.417 1_655 S
C1366 H1370 0.955 . S
C1367 C1366 1.347 1_455 S
C1367 C1376 1.429 . S
C1368 C1366 1.417 1_455 S
C1368 C1369 1.363 . S
C1368 H1371 0.929 1_455 S
C1369 C1368 1.363 . S
C1369 C1375 1.428 . S
H1370 C1366 0.955 . S
H1371 C1368 0.929 1_655 S
S1372 N1373 1.613 . S
S1372 N1374 1.610 . S
N1373 S1372 1.613 . S
N1373 C1376 1.350 . S
N1374 S1372 1.610 . S
N1374 C1375 1.351 . S
C1375 C1369 1.428 . S
C1375 N1374 1.351 . S
C1375 C1376 1.434 . S
C1376 C1367 1.429 . S
C1376 N1373 1.350 . S
C1376 C1375 1.434 . S
C1377 C1378 1.369 1_565 S
C1377 C1379 1.419 . S
C1377 H1381 0.930 . S
C1378 C1377 1.369 1_545 S
C1378 C1387 1.429 . S
C1379 C1377 1.419 . S
C1379 C1380 1.363 1_565 S
C1379 H1382 0.929 . S
C1380 C1379 1.363 1_545 S
C1380 C1386 1.428 . S
H1381 C1377 0.930 . S
H1382 C1379 0.929 . S
S1383 N1384 1.613 . S
S1383 N1385 1.610 . S
N1384 S1383 1.613 . S
N1384 C1387 1.350 . S
N1385 S1383 1.610 . S
N1385 C1386 1.351 . S
C1386 C1380 1.428 . S
C1386 N1385 1.351 . S
C1386 C1387 1.434 . S
C1387 C1378 1.429 . S
C1387 N1384 1.350 . S
C1387 C1386 1.434 . S
C1388 C1389 1.369 1_655 S
C1388 C1390 1.419 . S
C1388 H1392 0.930 . S
C1389 C1388 1.369 1_455 S
C1389 C1398 1.429 . S
C1390 C1388 1.419 . S
C1390 C1391 1.363 1_655 S
C1390 H1393 0.929 . S
C1391 C1390 1.363 1_455 S
C1391 C1397 1.428 . S
H1392 C1388 0.930 . S
H1393 C1390 0.929 . S
S1394 N1395 1.613 . S
S1394 N1396 1.610 . S
N1395 S1394 1.613 . S
N1395 C1398 1.350 . S
N1396 S1394 1.610 . S
N1396 C1397 1.351 . S
C1397 C1391 1.428 . S
C1397 N1396 1.351 . S
C1397 C1398 1.434 . S
C1398 C1389 1.429 . S
C1398 N1395 1.350 . S
C1398 C1397 1.434 . S
C1399 C1400 1.369 . S
C1399 C1401 1.419 . S
C1399 H1403 0.930 . S
C1400 C1399 1.369 . S
C1400 C1409 1.429 1_545 S
C1401 C1399 1.419 . S
C1401 C1402 1.363 . S
C1401 H1404 0.929 . S
C1402 C1401 1.363 . S
C1402 C1408 1.428 1_545 S
H1403 C1399 0.930 . S
H1404 C1401 0.929 . S
S1405 N1406 1.613 . S
S1405 N1407 1.610 . S
N1406 S1405 1.613 . S
N1406 C1409 1.350 . S
N1407 S1405 1.610 . S
N1407 C1408 1.351 . S
C1408 C1402 1.428 1_565 S
C1408 N1407 1.351 . S
C1408 C1409 1.434 . S
C1409 C1400 1.429 1_565 S
C1409 N1406 1.350 . S
C1409 C1408 1.434 . S
C1410 C1411 1.369 . S
C1410 C1412 1.419 . S
C1410 H1414 0.930 . S
C1411 C1410 1.369 . S
C1411 C1420 1.429 1_455 S
C1412 C1410 1.419 . S
C1412 C1413 1.363 . S
C1412 H1415 0.929 . S
C1413 C1412 1.363 . S
C1413 C1419 1.428 1_455 S
H1414 C1410 0.930 . S
H1415 C1412 0.929 . S
S1416 N1417 1.613 . S
S1416 N1418 1.610 . S
N1417 S1416 1.613 . S
N1417 C1420 1.350 . S
N1418 S1416 1.610 . S
N1418 C1419 1.351 . S
C1419 C1413 1.428 1_655 S
C1419 N1418 1.351 . S
C1419 C1420 1.434 . S
C1420 C1411 1.429 1_655 S
C1420 N1417 1.350 . S
C1420 C1419 1.434 . S
C1421 C1422 1.369 . S
C1421 C1423 1.419 . S
C1421 H1425 0.930 . S
C1422 C1421 1.369 . S
C1422 C1431 1.429 . S
C1423 C1421 1.419 . S
C1423 C1424 1.363 . S
C1423 H1426 0.929 . S
C1424 C1423 1.363 . S
C1424 C1430 1.428 . S
H1425 C1421 0.930 . S
H1426 C1423 0.929 . S
S1427 N1428 1.613 . S
S1427 N1429 1.610 . S
N1428 S1427 1.613 . S
N1428 C1431 1.350 . S
N1429 S1427 1.610 . S
N1429 C1430 1.351 . S
C1430 C1424 1.428 . S
C1430 N1429 1.351 . S
C1430 C1431 1.434 . S
C1431 C1422 1.429 . S
C1431 N1428 1.350 . S
C1431 C1430 1.434 . S
C1432 C1433 1.369 . S
C1432 C1434 1.419 . S
C1432 H1436 0.930 . S
C1433 C1432 1.369 . S
C1433 C1442 1.429 . S
C1434 C1432 1.419 . S
C1434 C1435 1.363 . S
C1434 H1437 0.929 . S
C1435 C1434 1.363 . S
C1435 C1441 1.428 . S
H1436 C1432 0.930 . S
H1437 C1434 0.929 . S
S1438 N1439 1.613 . S
S1438 N1440 1.610 . S
N1439 S1438 1.613 . S
N1439 C1442 1.350 . S
N1440 S1438 1.610 . S
N1440 C1441 1.351 . S
C1441 C1435 1.428 . S
C1441 N1440 1.351 . S
C1441 C1442 1.434 . S
C1442 C1433 1.429 . S
C1442 N1439 1.350 . S
C1442 C1441 1.434 . S
C1443 C1444 1.369 . S
C1443 C1445 1.419 . S
C1443 H1447 0.930 . S
C1444 C1443 1.369 . S
C1444 C1453 1.429 . S
C1445 C1443 1.419 . S
C1445 C1446 1.363 . S
C1445 H1448 0.929 . S
C1446 C1445 1.363 . S
C1446 C1452 1.428 . S
H1447 C1443 0.930 . S
H1448 C1445 0.929 . S
S1449 N1450 1.613 . S
S1449 N1451 1.610 . S
N1450 S1449 1.613 . S
N1450 C1453 1.350 . S
N1451 S1449 1.610 . S
N1451 C1452 1.351 . S
C1452 C1446 1.428 . S
C1452 N1451 1.351 . S
C1452 C1453 1.434 . S
C1453 C1444 1.429 . S
C1453 N1450 1.350 . S
C1453 C1452 1.434 . S
C1454 C1455 1.369 . S
C1454 C1456 1.419 . S
C1454 H1458 0.930 . S
C1455 C1454 1.369 . S
C1455 C1464 1.429 . S
C1456 C1454 1.419 . S
C1456 C1457 1.363 . S
C1456 H1459 0.929 . S
C1457 C1456 1.363 . S
C1457 C1463 1.428 . S
H1458 C1454 0.930 . S
H1459 C1456 0.929 . S
S1460 N1461 1.613 . S
S1460 N1462 1.610 . S
N1461 S1460 1.613 . S
N1461 C1464 1.350 . S
N1462 S1460 1.610 . S
N1462 C1463 1.351 . S
C1463 C1457 1.428 . S
C1463 N1462 1.351 . S
C1463 C1464 1.434 . S
C1464 C1455 1.429 . S
C1464 N1461 1.350 . S
C1464 C1463 1.434 . S
C1465 C1466 1.369 . S
C1465 C1467 1.419 . S
C1465 H1469 0.930 . S
C1466 C1465 1.369 . S
C1466 C1475 1.429 . S
C1467 C1465 1.419 . S
C1467 C1468 1.363 . S
C1467 H1470 0.929 . S
C1468 C1467 1.363 . S
C1468 C1474 1.428 . S
H1469 C1465 0.930 . S
H1470 C1467 0.929 . S
S1471 N1472 1.613 . S
S1471 N1473 1.610 . S
N1472 S1471 1.613 . S
N1472 C1475 1.350 . S
N1473 S1471 1.610 . S
N1473 C1474 1.351 . S
C1474 C1468 1.428 . S
C1474 N1473 1.351 . S
C1474 C1475 1.434 . S
C1475 C1466 1.429 . S
C1475 N1472 1.350 . S
C1475 C1474 1.434 . S
C1476 C1477 1.369 1_565 S
C1476 C1478 1.419 . S
C1476 H1480 0.930 . S
C1477 C1476 1.369 1_545 S
C1477 C1486 1.429 . S
C1478 C1476 1.419 . S
C1478 C1479 1.363 1_565 S
C1478 H1481 0.929 . S
C1479 C1478 1.363 1_545 S
C1479 C1485 1.428 . S
H1480 C1476 0.930 . S
H1481 C1478 0.929 . S
S1482 N1483 1.613 . S
S1482 N1484 1.610 . S
N1483 S1482 1.613 . S
N1483 C1486 1.350 . S
N1484 S1482 1.610 . S
N1484 C1485 1.351 . S
C1485 C1479 1.428 . S
C1485 N1484 1.351 . S
C1485 C1486 1.434 . S
C1486 C1477 1.429 . S
C1486 N1483 1.350 . S
C1486 C1485 1.434 . S
C1487 C1488 1.369 . S
C1487 C1489 1.419 . S
C1487 H1491 0.930 . S
C1488 C1487 1.369 . S
C1488 C1497 1.429 . S
C1489 C1487 1.419 . S
C1489 C1490 1.363 . S
C1489 H1492 0.929 . S
C1490 C1489 1.363 . S
C1490 C1496 1.428 . S
H1491 C1487 0.930 . S
H1492 C1489 0.929 . S
S1493 N1494 1.613 . S
S1493 N1495 1.610 . S
N1494 S1493 1.613 . S
N1494 C1497 1.350 . S
N1495 S1493 1.610 . S
N1495 C1496 1.351 . S
C1496 C1490 1.428 . S
C1496 N1495 1.351 . S
C1496 C1497 1.434 . S
C1497 C1488 1.429 . S
C1497 N1494 1.350 . S
C1497 C1496 1.434 . S
C1498 C1499 1.369 . S
C1498 C1500 1.419 . S
C1498 H1502 0.930 . S
C1499 C1498 1.369 . S
C1499 C1508 1.429 . S
C1500 C1498 1.419 . S
C1500 C1501 1.363 . S
C1500 H1503 0.929 . S
C1501 C1500 1.363 . S
C1501 C1507 1.428 . S
H1502 C1498 0.930 . S
H1503 C1500 0.929 . S
S1504 N1505 1.613 1_565 S
S1504 N1506 1.610 1_565 S
N1505 S1504 1.613 1_545 S
N1505 C1508 1.350 . S
N1506 S1504 1.610 1_545 S
N1506 C1507 1.351 . S
C1507 C1501 1.428 . S
C1507 N1506 1.351 . S
C1507 C1508 1.434 . S
C1508 C1499 1.429 . S
C1508 N1505 1.350 . S
C1508 C1507 1.434 . S
C1509 C1510 1.369 1_655 S
C1509 C1511 1.419 . S
C1509 H1513 0.930 . S
C1510 C1509 1.369 1_455 S
C1510 C1519 1.429 . S
C1511 C1509 1.419 . S
C1511 C1512 1.363 1_655 S
C1511 H1514 0.929 . S
C1512 C1511 1.363 1_455 S
C1512 C1518 1.428 . S
H1513 C1509 0.930 . S
H1514 C1511 0.929 . S
S1515 N1516 1.613 . S
S1515 N1517 1.610 . S
N1516 S1515 1.613 . S
N1516 C1519 1.350 . S
N1517 S1515 1.610 . S
N1517 C1518 1.351 . S
C1518 C1512 1.428 . S
C1518 N1517 1.351 . S
C1518 C1519 1.434 . S
C1519 C1510 1.429 . S
C1519 N1516 1.350 . S
C1519 C1518 1.434 . S
C1520 C1521 1.369 . S
C1520 C1522 1.419 . S
C1520 H1524 0.930 . S
C1521 C1520 1.369 . S
C1521 C1530 1.429 . S
C1522 C1520 1.419 . S
C1522 C1523 1.363 . S
C1522 H1525 0.929 . S
C1523 C1522 1.363 . S
C1523 C1529 1.428 . S
H1524 C1520 0.930 . S
H1525 C1522 0.929 . S
S1526 N1527 1.613 . S
S1526 N1528 1.610 . S
N1527 S1526 1.613 . S
N1527 C1530 1.350 . S
N1528 S1526 1.610 . S
N1528 C1529 1.351 . S
C1529 C1523 1.428 . S
C1529 N1528 1.351 . S
C1529 C1530 1.434 . S
C1530 C1521 1.429 . S
C1530 N1527 1.350 . S
C1530 C1529 1.434 . S
C1531 C1532 1.369 1_556 S
C1531 C1533 1.419 . S
C1531 H1535 0.930 . S
C1532 C1531 1.369 1_554 S
C1532 C1541 1.429 . S
C1533 C1531 1.419 . S
C1533 C1534 1.363 1_556 S
C1533 H1536 0.929 . S
C1534 C1533 1.363 1_554 S
C1534 C1540 1.428 . S
H1535 C1531 0.930 . S
H1536 C1533 0.929 . S
S1537 N1538 1.613 . S
S1537 N1539 1.610 . S
N1538 S1537 1.613 . S
N1538 C1541 1.350 . S
N1539 S1537 1.610 . S
N1539 C1540 1.351 . S
C1540 C1534 1.428 . S
C1540 N1539 1.351 . S
C1540 C1541 1.434 . S
C1541 C1532 1.429 . S
C1541 N1538 1.350 . S
C1541 C1540 1.434 . S
C1542 C1543 1.369 . S
C1542 C1544 1.419 . S
C1542 H1546 0.930 . S
C1543 C1542 1.369 . S
C1543 C1552 1.429 . S
C1544 C1542 1.419 . S
C1544 C1545 1.363 . S
C1544 H1547 0.929 . S
C1545 C1544 1.363 . S
C1545 C1551 1.428 . S
H1546 C1542 0.930 . S
H1547 C1544 0.929 . S
S1548 N1549 1.613 . S
S1548 N1550 1.610 . S
N1549 S1548 1.613 . S
N1549 C1552 1.350 1_556 S
N1550 S1548 1.610 . S
N1550 C1551 1.351 1_556 S
C1551 C1545 1.428 . S
C1551 N1550 1.351 1_554 S
C1551 C1552 1.434 . S
C1552 C1543 1.429 . S
C1552 N1549 1.350 1_554 S
C1552 C1551 1.434 . S
C1553 C1554 1.369 . S
C1553 C1555 1.419 . S
C1553 H1557 0.930 . S
C1554 C1553 1.369 . S
C1554 C1563 1.429 1_554 S
C1555 C1553 1.419 . S
C1555 C1556 1.369 . S
C1555 H1558 0.929 . S
C1556 C1555 1.369 . S
C1556 C1562 1.423 1_554 S
H1557 C1553 0.930 . S
H1558 C1555 0.929 . S
S1559 N1560 1.613 . S
S1559 N1561 1.610 . S
N1560 S1559 1.613 . S
N1560 C1563 1.350 . S
N1561 S1559 1.610 . S
N1561 C1562 1.351 . S
C1562 C1556 1.423 1_556 S
C1562 N1561 1.351 . S
C1562 C1563 1.434 . S
C1563 C1554 1.429 1_556 S
C1563 N1560 1.350 . S
C1563 C1562 1.434 . S
C1564 C1565 1.369 1_556 S
C1564 C1566 1.419 . S
C1564 H1568 0.930 . S
C1565 C1564 1.369 1_554 S
C1565 C1574 1.429 . S
C1566 C1564 1.419 . S
C1566 C1567 1.363 1_556 S
C1566 H1569 0.929 . S
C1567 C1566 1.363 1_554 S
C1567 C1573 1.428 . S
H1568 C1564 0.930 . S
H1569 C1566 0.929 . S
S1570 N1571 1.613 . S
S1570 N1572 1.610 . S
N1571 S1570 1.613 . S
N1571 C1574 1.350 . S
N1572 S1570 1.610 . S
N1572 C1573 1.351 . S
C1573 C1567 1.428 . S
C1573 N1572 1.351 . S
C1573 C1574 1.434 . S
C1574 C1565 1.429 . S
C1574 N1571 1.350 . S
C1574 C1573 1.434 . S
C1575 C1576 1.369 . S
C1575 C1577 1.419 . S
C1575 H1579 0.930 . S
C1576 C1575 1.369 . S
C1576 C1585 1.429 1_554 S
C1577 C1575 1.419 . S
C1577 C1578 1.363 . S
C1577 H1580 0.929 . S
C1578 C1577 1.363 . S
C1578 C1584 1.428 1_554 S
H1579 C1575 0.930 . S
H1580 C1577 0.929 . S
S1581 N1582 1.613 . S
S1581 N1583 1.610 . S
N1582 S1581 1.613 . S
N1582 C1585 1.350 . S
N1583 S1581 1.610 . S
N1583 C1584 1.351 . S
C1584 C1578 1.428 1_556 S
C1584 N1583 1.351 . S
C1584 C1585 1.434 . S
C1585 C1576 1.429 1_556 S
C1585 N1582 1.350 . S
C1585 C1584 1.434 . S
C1586 C1587 1.369 . S
C1586 C1588 1.419 . S
C1586 H1590 0.930 . S
C1587 C1586 1.369 . S
C1587 C1596 1.429 1_554 S
C1588 C1586 1.419 . S
C1588 C1589 1.363 . S
C1588 H1591 0.929 . S
C1589 C1588 1.363 . S
C1589 C1595 1.428 1_554 S
H1590 C1586 0.930 . S
H1591 C1588 0.929 . S
S1592 N1593 1.613 . S
S1592 N1594 1.610 . S
N1593 S1592 1.613 . S
N1593 C1596 1.350 . S
N1594 S1592 1.610 . S
N1594 C1595 1.351 . S
C1595 C1589 1.428 1_556 S
C1595 N1594 1.351 . S
C1595 C1596 1.434 . S
C1596 C1587 1.429 1_556 S
C1596 N1593 1.350 . S
C1596 C1595 1.434 . S
C1597 C1598 1.369 1_556 S
C1597 C1599 1.419 . S
C1597 H1601 0.930 . S
C1598 C1597 1.369 1_554 S
C1598 C1607 1.429 . S
C1599 C1597 1.419 . S
C1599 C1600 1.363 1_556 S
C1599 H1602 0.929 . S
C1600 C1599 1.363 1_554 S
C1600 C1606 1.428 . S
H1601 C1597 0.930 . S
H1602 C1599 0.929 . S
S1603 N1604 1.613 . S
S1603 N1605 1.610 . S
N1604 S1603 1.613 . S
N1604 C1607 1.350 . S
N1605 S1603 1.610 . S
N1605 C1606 1.351 . S
C1606 C1600 1.428 . S
C1606 N1605 1.351 . S
C1606 C1607 1.434 . S
C1607 C1598 1.429 . S
C1607 N1604 1.350 . S
C1607 C1606 1.434 . S
C1608 C1609 1.369 . S
C1608 C1610 1.419 . S
C1608 H1612 0.930 . S
C1609 C1608 1.369 . S
C1609 C1618 1.429 . S
C1610 C1608 1.419 . S
C1610 C1611 1.363 . S
C1610 H1613 0.929 . S
C1611 C1610 1.363 . S
C1611 C1617 1.428 . S
H1612 C1608 0.930 . S
H1613 C1610 0.929 . S
S1614 N1615 1.613 . S
S1614 N1616 1.610 . S
N1615 S1614 1.613 . S
N1615 C1618 1.350 . S
N1616 S1614 1.610 . S
N1616 C1617 1.351 . S
C1617 C1611 1.428 . S
C1617 N1616 1.351 . S
C1617 C1618 1.434 . S
C1618 C1609 1.429 . S
C1618 N1615 1.350 . S
C1618 C1617 1.434 . S
C1619 C1620 1.369 . S
C1619 C1621 1.419 . S
C1619 H1623 0.930 . S
C1620 C1619 1.369 . S
C1620 C1629 1.429 . S
C1621 C1619 1.419 . S
C1621 C1622 1.363 . S
C1621 H1624 0.929 . S
C1622 C1621 1.363 . S
C1622 C1628 1.428 . S
H1623 C1619 0.930 . S
H1624 C1621 0.929 . S
S1625 N1626 1.613 . S
S1625 N1627 1.610 . S
N1626 S1625 1.613 . S
N1626 C1629 1.350 . S
N1627 S1625 1.610 . S
N1627 C1628 1.351 . S
C1628 C1622 1.428 . S
C1628 N1627 1.351 . S
C1628 C1629 1.434 . S
C1629 C1620 1.429 . S
C1629 N1626 1.350 . S
C1629 C1628 1.434 . S
C1630 C1631 1.369 . S
C1630 C1632 1.419 . S
C1630 H1634 0.930 . S
C1631 C1630 1.369 . S
C1631 C1640 1.429 . S
C1632 C1630 1.419 . S
C1632 C1633 1.363 . S
C1632 H1635 0.929 . S
C1633 C1632 1.363 . S
C1633 C1639 1.428 . S
H1634 C1630 0.930 . S
H1635 C1632 0.929 . S
S1636 N1637 1.613 . S
S1636 N1638 1.610 . S
N1637 S1636 1.613 . S
N1637 C1640 1.350 . S
N1638 S1636 1.610 . S
N1638 C1639 1.351 . S
C1639 C1633 1.428 . S
C1639 N1638 1.351 . S
C1639 C1640 1.434 . S
C1640 C1631 1.429 . S
C1640 N1637 1.350 . S
C1640 C1639 1.434 . S
C1641 C1642 1.369 . S
C1641 C1643 1.419 . S
C1641 H1645 0.930 . S
C1642 C1641 1.369 . S
C1642 C1651 1.429 . S
C1643 C1641 1.419 . S
C1643 C1644 1.363 . S
C1643 H1646 0.929 . S
C1644 C1643 1.363 . S
C1644 C1650 1.428 . S
H1645 C1641 0.930 . S
H1646 C1643 0.929 . S
S1647 N1648 1.613 . S
S1647 N1649 1.610 . S
N1648 S1647 1.613 . S
N1648 C1651 1.350 . S
N1649 S1647 1.610 . S
N1649 C1650 1.351 . S
C1650 C1644 1.428 . S
C1650 N1649 1.351 . S
C1650 C1651 1.434 . S
C1651 C1642 1.429 . S
C1651 N1648 1.350 . S
C1651 C1650 1.434 . S
C1652 C1653 1.369 . S
C1652 C1654 1.419 . S
C1652 H1656 0.930 . S
C1653 C1652 1.369 . S
C1653 C1662 1.429 . S
C1654 C1652 1.419 . S
C1654 C1655 1.363 . S
C1654 H1657 0.929 . S
C1655 C1654 1.363 . S
C1655 C1661 1.428 . S
H1656 C1652 0.930 . S
H1657 C1654 0.929 . S
S1658 N1659 1.613 . S
S1658 N1660 1.610 . S
N1659 S1658 1.613 . S
N1659 C1662 1.350 . S
N1660 S1658 1.610 . S
N1660 C1661 1.351 . S
C1661 C1655 1.428 . S
C1661 N1660 1.351 . S
C1661 C1662 1.434 . S
C1662 C1653 1.429 . S
C1662 N1659 1.350 . S
C1662 C1661 1.434 . S
C1663 C1664 1.369 . S
C1663 C1665 1.419 . S
C1663 H1667 0.930 . S
C1664 C1663 1.369 . S
C1664 C1673 1.429 . S
C1665 C1663 1.419 . S
C1665 C1666 1.363 . S
C1665 H1668 0.929 . S
C1666 C1665 1.363 . S
C1666 C1672 1.428 . S
H1667 C1663 0.930 . S
H1668 C1665 0.929 . S
S1669 N1670 1.613 . S
S1669 N1671 1.610 . S
N1670 S1669 1.613 . S
N1670 C1673 1.350 . S
N1671 S1669 1.610 . S
N1671 C1672 1.351 . S
C1672 C1666 1.428 . S
C1672 N1671 1.351 . S
C1672 C1673 1.434 . S
C1673 C1664 1.429 . S
C1673 N1670 1.350 . S
C1673 C1672 1.434 . S
C1674 C1675 1.369 . S
C1674 C1676 1.419 . S
C1674 H1678 0.930 . S
C1675 C1674 1.369 . S
C1675 C1684 1.429 . S
C1676 C1674 1.419 . S
C1676 C1677 1.363 . S
C1676 H1679 0.929 . S
C1677 C1676 1.363 . S
C1677 C1683 1.428 . S
H1678 C1674 0.930 . S
H1679 C1676 0.929 . S
S1680 N1681 1.613 . S
S1680 N1682 1.610 . S
N1681 S1680 1.613 . S
N1681 C1684 1.350 . S
N1682 S1680 1.610 . S
N1682 C1683 1.351 . S
C1683 C1677 1.428 . S
C1683 N1682 1.351 . S
C1683 C1684 1.434 . S
C1684 C1675 1.429 . S
C1684 N1681 1.350 . S
C1684 C1683 1.434 . S
C1685 C1686 1.369 . S
C1685 C1687 1.419 . S
C1685 H1689 0.930 . S
C1686 C1685 1.369 . S
C1686 C1695 1.429 . S
C1687 C1685 1.419 . S
C1687 C1688 1.363 . S
C1687 H1690 0.929 . S
C1688 C1687 1.363 . S
C1688 C1694 1.428 . S
H1689 C1685 0.930 . S
H1690 C1687 0.929 . S
S1691 N1692 1.613 . S
S1691 N1693 1.610 . S
N1692 S1691 1.613 . S
N1692 C1695 1.350 . S
N1693 S1691 1.610 . S
N1693 C1694 1.351 . S
C1694 C1688 1.428 . S
C1694 N1693 1.351 . S
C1694 C1695 1.434 . S
C1695 C1686 1.429 . S
C1695 N1692 1.350 . S
C1695 C1694 1.434 . S
C1696 C1697 1.369 . S
C1696 C1698 1.419 . S
C1696 H1700 0.930 . S
C1697 C1696 1.369 . S
C1697 C1706 1.429 . S
C1698 C1696 1.419 . S
C1698 C1699 1.363 . S
C1698 H1701 0.929 . S
C1699 C1698 1.363 . S
C1699 C1705 1.428 . S
H1700 C1696 0.930 . S
H1701 C1698 0.929 . S
S1702 N1703 1.613 . S
S1702 N1704 1.610 . S
N1703 S1702 1.613 . S
N1703 C1706 1.350 . S
N1704 S1702 1.610 . S
N1704 C1705 1.351 . S
C1705 C1699 1.428 . S
C1705 N1704 1.351 . S
C1705 C1706 1.434 . S
C1706 C1697 1.429 . S
C1706 N1703 1.350 . S
C1706 C1705 1.434 . S
C1707 C1708 1.369 . S
C1707 C1709 1.419 . S
C1707 H1711 0.930 . S
C1708 C1707 1.369 . S
C1708 C1717 1.429 . S
C1709 C1707 1.419 . S
C1709 C1710 1.363 . S
C1709 H1712 0.929 . S
C1710 C1709 1.363 . S
C1710 C1716 1.428 . S
H1711 C1707 0.930 . S
H1712 C1709 0.929 . S
S1713 N1714 1.613 . S
S1713 N1715 1.610 . S
N1714 S1713 1.613 . S
N1714 C1717 1.350 . S
N1715 S1713 1.610 . S
N1715 C1716 1.351 . S
C1716 C1710 1.428 . S
C1716 N1715 1.351 . S
C1716 C1717 1.434 . S
C1717 C1708 1.429 . S
C1717 N1714 1.350 . S
C1717 C1716 1.434 . S
C1718 C1719 1.369 . S
C1718 C1720 1.419 . S
C1718 H1722 0.930 . S
C1719 C1718 1.369 . S
C1719 C1728 1.429 . S
C1720 C1718 1.419 . S
C1720 C1721 1.363 . S
C1720 H1723 0.929 . S
C1721 C1720 1.363 . S
C1721 C1727 1.428 . S
H1722 C1718 0.930 . S
H1723 C1720 0.929 . S
S1724 N1725 1.613 . S
S1724 N1726 1.610 . S
N1725 S1724 1.613 . S
N1725 C1728 1.350 . S
N1726 S1724 1.610 . S
N1726 C1727 1.351 . S
C1727 C1721 1.428 . S
C1727 N1726 1.351 . S
C1727 C1728 1.434 . S
C1728 C1719 1.429 . S
C1728 N1725 1.350 . S
C1728 C1727 1.434 . S
C1729 C1730 1.369 . S
C1729 C1731 1.419 . S
C1729 H1733 0.930 . S
C1730 C1729 1.369 . S
C1730 C1739 1.429 . S
C1731 C1729 1.419 . S
C1731 C1732 1.363 . S
C1731 H1734 0.929 . S
C1732 C1731 1.363 . S
C1732 C1738 1.428 . S
H1733 C1729 0.930 . S
H1734 C1731 0.929 . S
S1735 N1736 1.613 . S
S1735 N1737 1.610 . S
N1736 S1735 1.613 . S
N1736 C1739 1.350 . S
N1737 S1735 1.610 . S
N1737 C1738 1.351 . S
C1738 C1732 1.428 . S
C1738 N1737 1.351 . S
C1738 C1739 1.434 . S
C1739 C1730 1.429 . S
C1739 N1736 1.350 . S
C1739 C1738 1.434 . S
C1740 C1741 1.369 . S
C1740 C1742 1.419 . S
C1740 H1744 0.930 . S
C1741 C1740 1.369 . S
C1741 C1750 1.429 . S
C1742 C1740 1.419 . S
C1742 C1743 1.363 . S
C1742 H1745 0.929 . S
C1743 C1742 1.363 . S
C1743 C1749 1.428 . S
H1744 C1740 0.930 . S
H1745 C1742 0.929 . S
S1746 N1747 1.613 . S
S1746 N1748 1.610 . S
N1747 S1746 1.613 . S
N1747 C1750 1.350 . S
N1748 S1746 1.610 . S
N1748 C1749 1.351 . S
C1749 C1743 1.428 . S
C1749 N1748 1.351 . S
C1749 C1750 1.434 . S
C1750 C1741 1.429 . S
C1750 N1747 1.350 . S
C1750 C1749 1.434 . S
C1751 C1752 1.369 . S
C1751 C1753 1.419 . S
C1751 H1755 0.930 . S
C1752 C1751 1.369 . S
C1752 C1761 1.429 . S
C1753 C1751 1.419 . S
C1753 C1754 1.363 . S
C1753 H1756 0.929 . S
C1754 C1753 1.363 . S
C1754 C1760 1.428 . S
H1755 C1751 0.930 . S
H1756 C1753 0.929 . S
S1757 N1758 1.613 . S
S1757 N1759 1.610 . S
N1758 S1757 1.613 . S
N1758 C1761 1.350 . S
N1759 S1757 1.610 . S
N1759 C1760 1.351 . S
C1760 C1754 1.428 . S
C1760 N1759 1.351 . S
C1760 C1761 1.434 . S
C1761 C1752 1.429 . S
C1761 N1758 1.350 . S
C1761 C1760 1.434 . S
C1762 C1763 1.369 . S
C1762 C1764 1.419 . S
C1762 H1766 0.930 . S
C1763 C1762 1.369 . S
C1763 C1772 1.429 . S
C1764 C1762 1.419 . S
C1764 C1765 1.363 . S
C1764 H1767 0.929 . S
C1765 C1764 1.363 . S
C1765 C1771 1.428 . S
H1766 C1762 0.930 . S
H1767 C1764 0.929 . S
S1768 N1769 1.613 . S
S1768 N1770 1.610 . S
N1769 S1768 1.613 . S
N1769 C1772 1.350 . S
N1770 S1768 1.610 . S
N1770 C1771 1.351 . S
C1771 C1765 1.428 . S
C1771 N1770 1.351 . S
C1771 C1772 1.434 . S
C1772 C1763 1.429 . S
C1772 N1769 1.350 . S
C1772 C1771 1.434 . S
C1773 C1774 1.369 . S
C1773 C1775 1.419 . S
C1773 H1777 0.930 . S
C1774 C1773 1.369 . S
C1774 C1783 1.429 . S
C1775 C1773 1.419 . S
C1775 C1776 1.363 . S
C1775 H1778 0.929 . S
C1776 C1775 1.363 . S
C1776 C1782 1.428 . S
H1777 C1773 0.930 . S
H1778 C1775 0.929 . S
S1779 N1780 1.613 . S
S1779 N1781 1.610 . S
N1780 S1779 1.613 . S
N1780 C1783 1.350 . S
N1781 S1779 1.610 . S
N1781 C1782 1.351 . S
C1782 C1776 1.428 . S
C1782 N1781 1.351 . S
C1782 C1783 1.434 . S
C1783 C1774 1.429 . S
C1783 N1780 1.350 . S
C1783 C1782 1.434 . S
C1784 C1785 1.369 . S
C1784 C1786 1.419 . S
C1784 H1788 0.930 . S
C1785 C1784 1.369 . S
C1785 C1794 1.429 . S
C1786 C1784 1.419 . S
C1786 C1787 1.363 . S
C1786 H1789 0.929 . S
C1787 C1786 1.363 . S
C1787 C1793 1.428 . S
H1788 C1784 0.930 . S
H1789 C1786 0.929 . S
S1790 N1791 1.613 . S
S1790 N1792 1.610 . S
N1791 S1790 1.613 . S
N1791 C1794 1.350 . S
N1792 S1790 1.610 . S
N1792 C1793 1.351 . S
C1793 C1787 1.428 . S
C1793 N1792 1.351 . S
C1793 C1794 1.434 . S
C1794 C1785 1.429 . S
C1794 N1791 1.350 . S
C1794 C1793 1.434 . S
C1795 C1796 1.369 . S
C1795 C1797 1.419 . S
C1795 H1799 0.930 . S
C1796 C1795 1.369 . S
C1796 C1805 1.429 . S
C1797 C1795 1.419 . S
C1797 C1798 1.363 . S
C1797 H1800 0.929 . S
C1798 C1797 1.363 . S
C1798 C1804 1.428 . S
H1799 C1795 0.930 . S
H1800 C1797 0.929 . S
S1801 N1802 1.613 . S
S1801 N1803 1.610 . S
N1802 S1801 1.613 . S
N1802 C1805 1.350 . S
N1803 S1801 1.610 . S
N1803 C1804 1.351 . S
C1804 C1798 1.428 . S
C1804 N1803 1.351 . S
C1804 C1805 1.434 . S
C1805 C1796 1.429 . S
C1805 N1802 1.350 . S
C1805 C1804 1.434 . S
C1806 C1807 1.369 . S
C1806 C1808 1.419 . S
C1806 H1810 0.930 . S
C1807 C1806 1.369 . S
C1807 C1816 1.429 . S
C1808 C1806 1.419 . S
C1808 C1809 1.363 . S
C1808 H1811 0.929 . S
C1809 C1808 1.363 . S
C1809 C1815 1.428 . S
H1810 C1806 0.930 . S
H1811 C1808 0.929 . S
S1812 N1813 1.613 . S
S1812 N1814 1.610 . S
N1813 S1812 1.613 . S
N1813 C1816 1.350 . S
N1814 S1812 1.610 . S
N1814 C1815 1.351 . S
C1815 C1809 1.428 . S
C1815 N1814 1.351 . S
C1815 C1816 1.434 . S
C1816 C1807 1.429 . S
C1816 N1813 1.350 . S
C1816 C1815 1.434 . S
C1817 C1818 1.369 . S
C1817 C1819 1.419 . S
C1817 H1821 0.930 . S
C1818 C1817 1.369 . S
C1818 C1827 1.429 . S
C1819 C1817 1.419 . S
C1819 C1820 1.363 . S
C1819 H1822 0.929 . S
C1820 C1819 1.363 . S
C1820 C1826 1.428 . S
H1821 C1817 0.930 . S
H1822 C1819 0.929 . S
S1823 N1824 1.613 . S
S1823 N1825 1.610 . S
N1824 S1823 1.613 . S
N1824 C1827 1.350 . S
N1825 S1823 1.610 . S
N1825 C1826 1.351 . S
C1826 C1820 1.428 . S
C1826 N1825 1.351 . S
C1826 C1827 1.434 . S
C1827 C1818 1.429 . S
C1827 N1824 1.350 . S
C1827 C1826 1.434 . S
C1828 C1829 1.369 . S
C1828 C1830 1.419 . S
C1828 H1832 0.930 . S
C1829 C1828 1.369 . S
C1829 C1838 1.429 . S
C1830 C1828 1.419 . S
C1830 C1831 1.363 . S
C1830 H1833 0.929 . S
C1831 C1830 1.363 . S
C1831 C1837 1.428 . S
H1832 C1828 0.930 . S
H1833 C1830 0.929 . S
S1834 N1835 1.613 . S
S1834 N1836 1.610 . S
N1835 S1834 1.613 . S
N1835 C1838 1.350 . S
N1836 S1834 1.610 . S
N1836 C1837 1.351 . S
C1837 C1831 1.428 . S
C1837 N1836 1.351 . S
C1837 C1838 1.434 . S
C1838 C1829 1.429 . S
C1838 N1835 1.350 . S
C1838 C1837 1.434 . S
C1839 C1840 1.369 . S
C1839 C1841 1.419 . S
C1839 H1843 0.930 . S
C1840 C1839 1.369 . S
C1840 C1849 1.429 . S
C1841 C1839 1.419 . S
C1841 C1842 1.363 . S
C1841 H1844 0.929 . S
C1842 C1841 1.363 . S
C1842 C1848 1.428 . S
H1843 C1839 0.930 . S
H1844 C1841 0.929 . S
S1845 N1846 1.613 . S
S1845 N1847 1.610 . S
N1846 S1845 1.613 . S
N1846 C1849 1.350 . S
N1847 S1845 1.610 . S
N1847 C1848 1.351 . S
C1848 C1842 1.428 . S
C1848 N1847 1.351 . S
C1848 C1849 1.434 . S
C1849 C1840 1.429 . S
C1849 N1846 1.350 . S
C1849 C1848 1.434 . S
C1850 C1851 1.369 . S
C1850 C1852 1.419 . S
C1850 H1854 0.930 . S
C1851 C1850 1.369 . S
C1851 C1860 1.429 . S
C1852 C1850 1.419 . S
C1852 C1853 1.363 . S
C1852 H1855 0.929 . S
C1853 C1852 1.363 . S
C1853 C1859 1.428 . S
H1854 C1850 0.930 . S
H1855 C1852 0.929 . S
S1856 N1857 1.613 . S
S1856 N1858 1.610 . S
N1857 S1856 1.613 . S
N1857 C1860 1.350 . S
N1858 S1856 1.610 . S
N1858 C1859 1.351 . S
C1859 C1853 1.428 . S
C1859 N1858 1.351 . S
C1859 C1860 1.434 . S
C1860 C1851 1.429 . S
C1860 N1857 1.350 . S
C1860 C1859 1.434 . S
C1861 C1862 1.369 . S
C1861 C1863 1.419 . S
C1861 H1865 0.930 . S
C1862 C1861 1.369 . S
C1862 C1871 1.429 . S
C1863 C1861 1.419 . S
C1863 C1864 1.363 . S
C1863 H1866 0.929 . S
C1864 C1863 1.363 . S
C1864 C1870 1.428 . S
H1865 C1861 0.930 . S
H1866 C1863 0.929 . S
S1867 N1868 1.613 . S
S1867 N1869 1.610 . S
N1868 S1867 1.613 . S
N1868 C1871 1.350 . S
N1869 S1867 1.610 . S
N1869 C1870 1.351 . S
C1870 C1864 1.428 . S
C1870 N1869 1.351 . S
C1870 C1871 1.434 . S
C1871 C1862 1.429 . S
C1871 N1868 1.350 . S
C1871 C1870 1.434 . S
C1083 C810 1.167 . S
C1081 C765 1.199 . S
C1092 C701 1.228 . S
C1094 C804 1.197 . S
C1105 C772 1.299 . S
C1103 C669 1.336 . S
C1114 C733 1.349 . S
C1116 C786 1.281 . S
C1127 C824 1.599 . S
C1125 C541 1.679 . S
C1138 C911 1.185 . S
C1136 C573 1.195 . S
C1147 C605 1.749 . S
C1149 C838 1.678 . S
C1160 C906 0.936 . S
C1158 C637 0.951 . S
C1169 C413 1.706 . S
C1171 C862 1.658 . S
C1182 C917 1.259 . S
C1180 C445 1.261 . S
C1191 C477 1.627 . S
C1193 C856 1.623 . S
C1202 C509 0.969 . S
C1204 C902 0.959 . S
C1215 C958 0.966 . S
C1213 C381 0.955 . S
C1224 C317 1.277 . S
C1226 C969 1.281 . S
C1235 C285 1.026 . S
C1237 C954 1.028 . S
C1248 C963 1.301 . S
C1246 C349 1.312 1_554 S
C1257 C157 1.299 1_455 S
C1259 C1008 1.256 . S
C1268 C189 0.592 . S
C1270 C1067 0.598 . S
C1279 C221 1.441 . S
C1281 C1024 1.342 . S
C1290 C253 0.961 . S
C1292 C1062 0.952 . S
C1303 C1026 1.380 . S
C1301 C29 1.438 . S
C1314 C1073 0.598 . S
C1312 C61 0.617 . S
C1323 C93 1.273 . S
C1325 C1002 1.224 . S
C1336 C1058 0.914 . S
C1334 C125 0.937 1_545 S
C1347 C794 1.809 . S
C1345 C23 1.817 . S
C1356 C55 1.551 . S
C1358 C798 1.631 . S
C1367 C87 1.850 . S
C1369 C818 1.816 . S
C1378 C113 1.333 1_545 S
C1380 C813 1.435 . S
C1389 C151 1.886 1_455 S
C1391 C816 1.845 . S
C1402 C802 1.605 . S
C1400 C183 1.582 . S
C1411 C215 1.835 . S
C1413 C800 1.791 . S
C1424 C807 1.451 . S
C1422 C247 1.324 . S
C1435 C870 1.803 . S
C1433 C119 1.854 1_545 S
C1444 C17 2.002 . S
C1446 C920 2.058 . S
C1457 C868 1.512 . S
C1455 C49 1.535 . S
C1468 C904 1.974 . S
C1466 C81 1.951 . S
C1477 C177 1.487 . S
C1479 C846 1.456 . S
C1490 C922 2.034 . S
C1488 C209 1.989 . S
C1501 C852 1.759 . S
C1499 C241 1.812 . S
C1512 C898 2.000 . S
C1510 C145 1.981 1_455 S
C1523 C890 1.898 . S
C1521 C279 1.759 . S
C1532 C305 1.671 . S
C1534 C914 1.815 . S
C1545 C850 1.580 . S
C1543 C273 1.541 . S
C1556 C876 1.837 . S
C1554 C337 1.695 1_554 S
C1565 C375 1.477 . S
C1567 C854 1.542 . S
C1576 C369 1.720 . S
C1578 C908 1.850 . S
C1589 C865 1.850 . S
C1587 C311 1.658 . S
C1600 C859 1.898 . S
C1598 C343 1.716 1_554 S
C1611 C942 2.190 . S
C1609 C407 2.078 . S
C1622 C974 1.949 . S
C1620 C439 1.775 . S
C1631 C471 2.017 . S
C1633 C928 2.170 . S
C1644 C972 1.599 . S
C1642 C497 1.505 . S
C1655 C960 2.145 . S
C1653 C535 2.034 . S
C1664 C561 1.735 . S
C1666 C956 1.887 . S
C1675 C599 2.105 . S
C1677 C966 2.227 . S
C1688 C950 1.588 . S
C1686 C631 1.461 . S
C1699 C1015 1.764 . S
C1697 C503 1.744 . S
C1708 C401 1.846 . S
C1710 C1076 1.968 . S
C1721 C1010 1.602 . S
C1719 C433 1.412 . S
C1732 C1060 1.976 . S
C1730 C465 1.803 . S
C1743 C1006 1.551 . S
C1741 C567 1.367 . S
C1752 C593 1.818 . S
C1754 C1078 1.914 . S
C1765 C1021 1.699 . S
C1763 C625 1.693 . S
C1776 C1054 1.847 . S
C1774 C529 1.780 . S
C1787 C1046 1.979 . S
C1785 C663 1.925 . S
C1796 C689 1.975 . S
C1798 C1070 1.984 . S
C1809 C1012 1.699 . S
C1807 C657 1.738 . S
C1818 C721 1.980 . S
C1820 C1032 2.031 . S
C1831 C994 1.743 . S
C1829 C759 1.766 . S
C1842 C1064 1.904 . S
C1840 C753 1.858 . S
C1853 C980 1.741 . S
C1851 C695 1.801 . S
C1862 C727 1.743 . S
C1864 C1018 1.703 . S
