# Generated by pormake.
# Topology pts, (4,4)-cn, num edge types: 1
# Building blocks:
#     Node 0, Type 0, BuildingBlock: NAWXER_clean_linker_0, # of connection points: 4
#     Node 1, Type 0, BuildingBlock: NAWXER_clean_linker_0, # of connection points: 4
#     Node 2, Type 1, BuildingBlock: QUQFOY_clean_sbu_1, # of connection points: 4
#     Node 3, Type 1, BuildingBlock: QUQFOY_clean_sbu_1, # of connection points: 4
#     Edge 4, Type (0, 1), BuildingBlock: TEMPAE_clean_linker_10, # of connection points: 2
#     Edge 5, Type (0, 1), BuildingBlock: TEMPAE_clean_linker_10, # of connection points: 2
#     Edge 6, Type (0, 1), BuildingBlock: TEMPAE_clean_linker_10, # of connection points: 2
#     Edge 7, Type (0, 1), BuildingBlock: TEMPAE_clean_linker_10, # of connection points: 2
#     Edge 8, Type (0, 1), BuildingBlock: TEMPAE_clean_linker_10, # of connection points: 2
#     Edge 9, Type (0, 1), BuildingBlock: TEMPAE_clean_linker_10, # of connection points: 2
#     Edge 10, Type (0, 1), BuildingBlock: TEMPAE_clean_linker_10, # of connection points: 2
#     Edge 11, Type (0, 1), BuildingBlock: TEMPAE_clean_linker_10, # of connection points: 2
# Relax obj value: 0.095
# Max RMSD: 0.252
# Mean RMSD: 0.145
data_MOF--net-pts--node1-QUQFOY_clean_sbu_1--node2-NAWXER_clean_linker_0--edge1-TEMPAE_clean_linker_10
_symmetry_space_group_name_H-M    P1
_symmetry_Int_Tables_number       1
_symmetry_cell_setting            triclinic
loop_
_symmetry_equiv_pos_as_xyz
'x, y, z'
_cell_length_a     28.115456
_cell_length_b     31.044583
_cell_length_c     45.961214
_cell_angle_alpha  89.963994
_cell_angle_beta   89.978532
_cell_angle_gamma 90.013734
loop_
_atom_site_label
_atom_site_type_symbol
_atom_site_fract_x
_atom_site_fract_y
_atom_site_fract_z
_atom_type_partial_charge
C0 C 0.65274 0.02238 0.94373 0.0
C1 C 0.65402 0.99085 0.9218 0.0
C2 C 0.61557 0.02301 0.96396 0.0
C3 C 0.57954 0.99167 0.96284 0.0
C4 C 0.61865 0.95894 0.92122 0.0
C5 C 0.58177 0.95942 0.9415 0.0
C6 C 0.53631 0.99517 0.98102 0.0
C7 C 0.65225 0.97513 0.04819 0.0
C8 C 0.65442 0.0067 0.07007 0.0
C9 C 0.61498 0.97519 0.02804 0.0
C10 C 0.57978 0.00727 0.02917 0.0
C11 C 0.61986 0.03931 0.07067 0.0
C12 C 0.5829 0.03953 0.05047 0.0
C13 C 0.53646 0.00472 0.01103 0.0
C14 C 0.33508 0.97796 0.04827 0.0
C15 C 0.33378 0.00925 0.07035 0.0
C16 C 0.37222 0.9776 0.02801 0.0
C17 C 0.4082 0.00898 0.02926 0.0
C18 C 0.36909 0.04121 0.07106 0.0
C19 C 0.40594 0.041 0.05076 0.0
C20 C 0.45141 0.00573 0.01105 0.0
C21 C 0.33555 0.0267 0.94405 0.0
C22 C 0.3334 0.99556 0.92189 0.0
C23 C 0.37278 0.02621 0.96422 0.0
C24 C 0.40795 0.99411 0.96284 0.0
C25 C 0.36792 0.96294 0.92101 0.0
C26 C 0.40484 0.96228 0.94125 0.0
C27 C 0.45127 0.99631 0.98102 0.0
H28 H 0.6793 0.04764 0.94445 0.0
H29 H 0.61395 0.04906 0.97959 0.0
H30 H 0.6191 0.93398 0.90477 0.0
H31 H 0.55424 0.93508 0.94007 0.0
H32 H 0.67819 0.94935 0.04746 0.0
H33 H 0.61265 0.94915 0.01244 0.0
H34 H 0.62102 0.06434 0.08707 0.0
H35 H 0.55602 0.06445 0.0519 0.0
H36 H 0.30857 0.95267 0.04744 0.0
H37 H 0.37386 0.95173 0.01226 0.0
H38 H 0.36861 0.06601 0.08763 0.0
H39 H 0.43342 0.06538 0.05228 0.0
H40 H 0.30962 0.05246 0.945 0.0
H41 H 0.37512 0.05197 0.98003 0.0
H42 H 0.36677 0.93825 0.90438 0.0
H43 H 0.43169 0.93736 0.93961 0.0
N44 N 0.49372 0.99131 0.96734 0.0
N45 N 0.494 0.00965 0.02472 0.0
C46 C 0.02989 0.6493 0.53988 0.0
C47 C -0.00403 0.65611 0.5619 0.0
C48 C 0.02954 0.61128 0.52362 0.0
C49 C -0.00514 0.57956 0.52875 0.0
C50 C 0.96201 0.62382 0.56743 0.0
C51 C 0.96162 0.58587 0.5511 0.0
C52 C 0.99348 0.53949 0.5113 0.0
C53 C 0.95959 0.64902 0.45131 0.0
C54 C -0.00636 0.65546 0.42931 0.0
C55 C 0.95963 0.61118 0.46779 0.0
C56 C -0.00587 0.57924 0.46288 0.0
C57 C 0.02745 0.62297 0.42403 0.0
C58 C 0.02752 0.58517 0.44057 0.0
C59 C -0.00488 0.53933 0.48055 0.0
C60 C 0.95813 0.35288 0.45197 0.0
C61 C 0.99255 0.34578 0.43029 0.0
C62 C 0.95841 0.39092 0.46821 0.0
C63 C 0.99344 0.4224 0.46334 0.0
C64 C 0.02695 0.3778 0.42506 0.0
C65 C 0.02721 0.41582 0.44133 0.0
C66 C -0.00531 0.46248 0.48077 0.0
C67 C 0.028 0.35289 0.54085 0.0
C68 C -0.00632 0.34647 0.5627 0.0
C69 C 0.02818 0.39074 0.52438 0.0
C70 C -0.00633 0.42271 0.52915 0.0
C71 C 0.95982 0.37897 0.56783 0.0
C72 C 0.95999 0.41679 0.55131 0.0
C73 C 0.99294 0.46264 0.51151 0.0
H74 H 0.05647 0.67351 0.53503 0.0
H75 H 0.05638 0.60669 0.507 0.0
H76 H 0.93603 0.62764 0.58464 0.0
H77 H 0.93494 0.5616 0.5557 0.0
H78 H 0.93313 0.67341 0.45598 0.0
H79 H 0.9327 0.60689 0.4844 0.0
H80 H 0.05354 0.62651 0.40685 0.0
H81 H 0.05407 0.56073 0.43615 0.0
H82 H 0.93121 0.32885 0.45656 0.0
H83 H 0.93124 0.39571 0.48461 0.0
H84 H 0.05335 0.37372 0.40812 0.0
H85 H 0.0542 0.43989 0.43697 0.0
H86 H 0.05451 0.32849 0.53632 0.0
H87 H 0.05531 0.39502 0.50789 0.0
H88 H 0.93351 0.37543 0.58488 0.0
H89 H 0.93342 0.44124 0.55561 0.0
N90 N 0.99206 0.50114 0.52558 0.0
N91 N -0.00394 0.50083 0.46648 0.0
O92 O 0.93199 0.96562 0.2287 0.0
Cd93 Cd -0.00576 0.95665 0.25163 0.0
Cd94 Cd -0.00625 0.0451 0.25266 0.0
O95 O 0.93198 0.03664 0.22936 0.0
O96 O -0.00537 0.89409 0.26091 0.0
O97 O -0.00627 0.94456 0.29478 0.0
C98 C -0.00582 0.90414 0.2881 0.0
C99 C 0.9932 0.09729 0.28933 0.0
C100 C 0.91317 0.0013 0.22154 0.0
C101 C 0.07547 0.00201 0.22216 0.0
O102 O 0.05618 0.03716 0.22993 0.0
O103 O 0.05682 0.96617 0.22911 0.0
O104 O -0.00635 0.10756 0.26219 0.0
O105 O 0.99296 0.05682 0.29589 0.0
O106 O 0.93046 0.03537 0.76303 0.0
Cd107 Cd 0.99297 0.04555 0.74056 0.0
Cd108 Cd -0.00561 0.95709 0.73935 0.0
O109 O 0.93191 0.96439 0.76213 0.0
O110 O 0.99187 0.10808 0.73124 0.0
O111 O 0.99346 0.05757 0.69741 0.0
C112 C 0.99253 0.098 0.70406 0.0
C113 C -0.0045 0.90482 0.70273 0.0
C114 C 0.91221 0.99934 0.76994 0.0
C115 C 0.07452 0.00155 0.77055 0.0
O116 O 0.0561 0.96609 0.7626 0.0
O117 O 0.05528 0.0371 0.76352 0.0
O118 O -0.00471 0.89462 0.72989 0.0
O119 O -0.00484 0.94528 0.69614 0.0
C120 C 0.31043 0.01178 0.12276 0.0
C121 C 0.29714 0.00748 0.09349 0.0
C122 C 0.27639 0.01024 0.14503 0.0
C123 C 0.2279 0.00453 0.13781 0.0
C124 C 0.21427 0.99997 0.1083 0.0
C125 C 0.24915 0.00129 0.08647 0.0
C126 C 0.2923 0.01476 0.17626 0.0
C127 C 0.16281 0.99419 0.09977 0.0
C128 C 0.14017 0.96456 0.19451 0.0
C129 C 0.11755 0.00295 0.20276 0.0
C130 C 0.17697 0.96469 0.17388 0.0
C131 C 0.19123 0.0041 0.16107 0.0
C132 C 0.16952 0.04308 0.16989 0.0
C133 C 0.13309 0.04206 0.19072 0.0
C134 C 0.19977 0.92255 0.16525 0.0
C135 C 0.18377 0.08574 0.15668 0.0
H136 H 0.34764 0.01587 0.12827 0.0
H137 H 0.23882 0.99822 0.06384 0.0
H138 H 0.27528 0.0434 0.18626 0.0
H139 H 0.28086 0.98623 0.18902 0.0
H140 H 0.33151 0.01814 0.17822 0.0
H141 H 0.15819 0.99077 0.07588 0.0
H142 H 0.14792 0.96518 0.11056 0.0
H143 H 0.14167 0.02225 0.10727 0.0
H144 H 0.12853 0.93421 0.20377 0.0
H145 H 0.11583 0.0719 0.1969 0.0
H146 H 0.23895 0.92458 0.16777 0.0
H147 H 0.19242 0.91584 0.14197 0.0
H148 H 0.18646 0.89505 0.17842 0.0
H149 H 0.22254 0.09101 0.15936 0.0
H150 H 0.16452 0.11329 0.16663 0.0
H151 H 0.17631 0.08546 0.13297 0.0
C152 C 0.95077 0.28603 0.58774 0.0
C153 C -0.00629 0.30649 0.58054 0.0
C154 C 0.95005 0.24973 0.60596 0.0
C155 C 0.9933 0.23346 0.61725 0.0
C156 C 0.03688 0.25308 0.60931 0.0
C157 C 0.03656 0.28938 0.59109 0.0
C158 C 0.90286 0.22964 0.61386 0.0
C159 C 0.08375 0.2367 0.62092 0.0
C160 C 0.98924 0.17552 0.68986 0.0
C161 C 0.99233 0.13214 0.68152 0.0
C162 C 0.98933 0.20863 0.66913 0.0
C163 C 0.99269 0.19824 0.63923 0.0
C164 C -0.00431 0.15453 0.63057 0.0
C165 C -0.00459 0.12194 0.65185 0.0
C166 C 0.98593 0.25482 0.67927 0.0
C167 C -0.00059 0.14228 0.59888 0.0
H168 H 0.9176 0.29861 0.57925 0.0
H169 H 0.06984 0.30522 0.58586 0.0
H170 H 0.90355 0.19452 0.60946 0.0
H171 H 0.89615 0.23381 0.63749 0.0
H172 H 0.87279 0.2442 0.60165 0.0
H173 H 0.11465 0.25328 0.61082 0.0
H174 H 0.08526 0.24176 0.6448 0.0
H175 H 0.08709 0.20158 0.61698 0.0
H176 H 0.98675 0.18376 0.71273 0.0
H177 H -0.00217 0.0885 0.64524 0.0
H178 H 0.95433 0.27051 0.66944 0.0
H179 H 0.0177 0.27309 0.67198 0.0
H180 H 0.98321 0.25743 0.70332 0.0
H181 H 0.96838 0.15505 0.58672 0.0
H182 H 0.00106 0.10684 0.59571 0.0
H183 H 0.03173 0.15698 0.5892 0.0
C184 C 0.67827 0.00966 0.12236 0.0
C185 C 0.69121 0.00468 0.09308 0.0
C186 C 0.7125 0.00824 0.1445 0.0
C187 C 0.76085 0.00197 0.13713 0.0
C188 C 0.77412 0.99659 0.10762 0.0
C189 C 0.73904 0.9978 0.08592 0.0
C190 C 0.69696 0.01362 0.17575 0.0
C191 C 0.82543 0.99017 0.09894 0.0
C192 C 0.85608 0.04058 0.18936 0.0
C193 C 0.87135 0.00178 0.20195 0.0
C194 C 0.81971 0.04114 0.16851 0.0
C195 C 0.79777 0.002 0.16023 0.0
C196 C 0.81184 0.9629 0.17353 0.0
C197 C 0.84862 0.96323 0.19416 0.0
C198 C 0.80569 0.08346 0.15474 0.0
C199 C 0.78877 0.92062 0.16549 0.0
H200 H 0.64117 0.01429 0.12798 0.0
H201 H 0.7491 0.99418 0.06328 0.0
H202 H 0.70852 0.98544 0.18881 0.0
H203 H 0.71413 0.04252 0.18529 0.0
H204 H 0.65778 0.01709 0.17785 0.0
H205 H 0.82973 0.98595 0.07508 0.0
H206 H 0.84688 0.01835 0.1059 0.0
H207 H 0.84021 0.96144 0.11008 0.0
H208 H 0.87347 0.07053 0.19517 0.0
H209 H 0.86006 0.93312 0.20384 0.0
H210 H 0.76701 0.08911 0.15758 0.0
H211 H 0.81279 0.08236 0.131 0.0
H212 H 0.82535 0.11119 0.16417 0.0
H213 H 0.74963 0.92284 0.1682 0.0
H214 H 0.80212 0.89342 0.17891 0.0
H215 H 0.79578 0.91331 0.14226 0.0
C216 C 0.03956 0.71359 0.58952 0.0
C217 C -0.00354 0.69632 0.57949 0.0
C218 C 0.04031 0.75006 0.60756 0.0
C219 C -0.00309 0.76962 0.61589 0.0
C220 C 0.95339 0.75321 0.60508 0.0
C221 C 0.9537 0.71681 0.58698 0.0
C222 C 0.08745 0.76662 0.61863 0.0
C223 C 0.90637 0.77319 0.61342 0.0
C224 C -0.00619 0.82732 0.68852 0.0
C225 C -0.00404 0.87075 0.68017 0.0
C226 C -0.00591 0.79427 0.66779 0.0
C227 C -0.00326 0.80478 0.63787 0.0
C228 C -0.00097 0.84853 0.62921 0.0
C229 C -0.00147 0.88108 0.65049 0.0
C230 C 0.99144 0.74802 0.67794 0.0
C231 C 0.00206 0.86089 0.59749 0.0
H232 H 0.07274 0.69776 0.58406 0.0
H233 H 0.92032 0.70413 0.57887 0.0
H234 H 0.09044 0.80179 0.61475 0.0
H235 H 0.08979 0.76138 0.64247 0.0
H236 H 0.1181 0.75029 0.6081 0.0
H237 H 0.87602 0.75855 0.60153 0.0
H238 H 0.9003 0.76901 0.63711 0.0
H239 H 0.90685 0.80831 0.60897 0.0
H240 H 0.99175 0.81899 0.71139 0.0
H241 H 0.00026 0.91456 0.64388 0.0
H242 H 0.02311 0.73 0.67026 0.0
H243 H 0.95966 0.73213 0.66848 0.0
H244 H 0.9895 0.74531 0.70202 0.0
H245 H 0.03407 0.84612 0.5875 0.0
H246 H 0.00378 0.89634 0.59434 0.0
H247 H 0.97067 0.84827 0.58562 0.0
C248 C 0.24875 0.00451 0.90613 0.0
C249 C 0.29661 0.99804 0.8989 0.0
C250 C 0.21366 0.00598 0.88445 0.0
C251 C 0.22696 0.00132 0.85488 0.0
C252 C 0.27536 0.99557 0.84745 0.0
C253 C 0.3096 0.99383 0.86957 0.0
C254 C 0.16229 0.01181 0.8932 0.0
C255 C 0.29094 0.99098 0.81615 0.0
C256 C 0.13219 0.96246 0.80243 0.0
C257 C 0.11635 0.00127 0.79013 0.0
C258 C 0.1686 0.962 0.82326 0.0
C259 C 0.19 0.00125 0.83181 0.0
C260 C 0.17536 0.04039 0.8188 0.0
C261 C 0.13855 0.03997 0.79818 0.0
C262 C 0.18323 0.91962 0.83671 0.0
C263 C 0.19785 0.0828 0.82713 0.0
H264 H 0.23867 0.00754 0.92881 0.0
H265 H 0.34674 0.98952 0.86391 0.0
H266 H 0.14715 0.04055 0.88224 0.0
H267 H 0.14116 0.98352 0.88608 0.0
H268 H 0.15799 0.01567 0.91709 0.0
H269 H 0.33017 0.98811 0.814 0.0
H270 H 0.27426 0.962 0.80639 0.0
H271 H 0.27887 0.01921 0.80332 0.0
H272 H 0.11523 0.9324 0.79641 0.0
H273 H 0.12666 0.07009 0.78872 0.0
H274 H 0.17621 0.92029 0.86047 0.0
H275 H 0.22197 0.91443 0.83378 0.0
H276 H 0.1639 0.89183 0.82713 0.0
H277 H 0.19076 0.08968 0.85041 0.0
H278 H 0.18412 0.11006 0.8139 0.0
H279 H 0.23701 0.08106 0.8244 0.0
C280 C 0.94916 0.28897 0.40199 0.0
C281 C 0.99212 0.30559 0.41271 0.0
C282 C 0.94853 0.25256 0.3839 0.0
C283 C 0.99192 0.23234 0.37629 0.0
C284 C 0.03524 0.24807 0.38783 0.0
C285 C 0.03481 0.28449 0.4059 0.0
C286 C 0.90161 0.23677 0.37201 0.0
C287 C 0.08223 0.22733 0.38029 0.0
C288 C 0.98917 0.12098 0.34156 0.0
C289 C 0.99305 0.13131 0.31193 0.0
C290 C 0.98869 0.15349 0.36287 0.0
C291 C 0.99238 0.1972 0.35428 0.0
C292 C -0.0035 0.20771 0.32443 0.0
C293 C -0.00331 0.17469 0.30366 0.0
C294 C 0.98408 0.14115 0.39451 0.0
C295 C 0.00071 0.2539 0.31437 0.0
H296 H 0.91606 0.3053 0.40694 0.0
H297 H 0.06805 0.29671 0.41455 0.0
H298 H 0.9005 0.24201 0.34814 0.0
H299 H 0.89772 0.20167 0.37585 0.0
H300 H 0.87081 0.25364 0.38199 0.0
H301 H 0.11228 0.24142 0.39276 0.0
H302 H 0.08082 0.19221 0.38466 0.0
H303 H 0.08952 0.2315 0.35673 0.0
H304 H 0.98629 0.08754 0.3481 0.0
H305 H -0.00018 0.18301 0.28083 0.0
H306 H 0.95185 0.15628 0.40397 0.0
H307 H 0.0151 0.15339 0.40692 0.0
H308 H 0.98171 0.10572 0.39761 0.0
H309 H 0.96909 0.2725 0.32149 0.0
H310 H 0.00386 0.2566 0.29034 0.0
H311 H 0.03237 0.26919 0.32442 0.0
C312 C 0.73865 0.99866 0.90565 0.0
C313 C 0.69067 0.99238 0.89865 0.0
C314 C 0.77351 0.99997 0.88381 0.0
C315 C 0.75986 0.99531 0.85431 0.0
C316 C 0.71139 0.98939 0.84712 0.0
C317 C 0.67738 0.98786 0.8694 0.0
C318 C 0.82496 0.00597 0.89231 0.0
C319 C 0.69546 0.98474 0.8159 0.0
C320 C 0.84715 0.03615 0.79764 0.0
C321 C 0.87014 0.99798 0.78933 0.0
C322 C 0.81036 0.03565 0.81828 0.0
C323 C 0.79648 0.99608 0.83102 0.0
C324 C 0.81855 0.95731 0.82212 0.0
C325 C 0.85497 0.9587 0.8013 0.0
C326 C 0.78718 0.07758 0.827 0.0
C327 C 0.8047 0.91449 0.83526 0.0
H328 H 0.74899 0.00188 0.92827 0.0
H329 H 0.64017 0.98368 0.86391 0.0
H330 H 0.84627 0.97808 0.8847 0.0
H331 H 0.83961 0.03514 0.88161 0.0
H332 H 0.82961 0.00923 0.91621 0.0
H333 H 0.6563 0.98093 0.81397 0.0
H334 H 0.70649 0.01343 0.80316 0.0
H335 H 0.71285 0.95632 0.80585 0.0
H336 H 0.85849 0.06663 0.78844 0.0
H337 H 0.87251 0.92902 0.79505 0.0
H338 H 0.79449 0.08425 0.85029 0.0
H339 H 0.74802 0.07527 0.82449 0.0
H340 H 0.80022 0.10523 0.81387 0.0
H341 H 0.81227 0.9147 0.85895 0.0
H342 H 0.82414 0.88712 0.82521 0.0
H343 H 0.76596 0.90897 0.83263 0.0
C344 C 0.95044 0.71271 0.40124 0.0
C345 C 0.99341 0.69547 0.41149 0.0
C346 C 0.94991 0.74906 0.38306 0.0
C347 C 0.99341 0.76856 0.37483 0.0
C348 C 0.03681 0.75215 0.38582 0.0
C349 C 0.03628 0.71583 0.40402 0.0
C350 C 0.90289 0.76561 0.37178 0.0
C351 C 0.08393 0.7721 0.3776 0.0
C352 C -0.00328 0.82657 0.30223 0.0
C353 C -0.00582 0.86996 0.31062 0.0
C354 C -0.00339 0.79343 0.32294 0.0
C355 C -0.00623 0.80381 0.35286 0.0
C356 C 0.99123 0.84751 0.36156 0.0
C357 C 0.99153 0.88014 0.34031 0.0
C358 C -0.00049 0.74723 0.31275 0.0
C359 C 0.98806 0.85974 0.39329 0.0
H360 H 0.91719 0.69696 0.40667 0.0
H361 H 0.06957 0.70316 0.41229 0.0
H362 H 0.8998 0.80074 0.37573 0.0
H363 H 0.90089 0.76054 0.34792 0.0
H364 H 0.87212 0.74915 0.38212 0.0
H365 H 0.11417 0.7574 0.38957 0.0
H366 H 0.09016 0.76797 0.35392 0.0
H367 H 0.08347 0.80721 0.38206 0.0
H368 H -0.00115 0.81835 0.27935 0.0
H369 H 0.98952 0.91358 0.34695 0.0
H370 H 0.96778 0.72911 0.32028 0.0
H371 H 0.03121 0.73138 0.32234 0.0
H372 H 0.00172 0.74463 0.28868 0.0
H373 H 0.95591 0.84505 0.40318 0.0
H374 H 0.98648 0.89518 0.39648 0.0
H375 H 0.0193 0.84696 0.40523 0.0
loop_
_geom_bond_atom_site_label_1
_geom_bond_atom_site_label_2
_geom_bond_distance
_geom_bond_site_symmetry_2
_ccdc_geom_bond_type
C0 C1 1.384 1_545 S
C0 C2 1.384 . S
C0 H28 0.931 . S
C1 C0 1.384 1_565 S
C1 C4 1.382 . S
C2 C0 1.384 . S
C2 C3 1.381 1_545 S
C2 H29 0.930 . S
C3 C2 1.381 1_565 S
C3 C5 1.381 . S
C3 C6 1.487 . S
C4 C1 1.382 . S
C4 C5 1.387 . S
C4 H30 0.930 . S
C5 C3 1.381 . S
C5 C4 1.387 . S
C5 H31 0.931 . S
C6 C3 1.487 . S
C6 C13 1.399 1_566 S
C6 N44 1.343 . S
C7 C8 1.384 1_565 S
C7 C9 1.384 . S
C7 H32 0.931 . S
C8 C7 1.384 1_545 S
C8 C11 1.382 . S
C9 C7 1.384 . S
C9 C10 1.381 1_565 S
C9 H33 0.930 . S
C10 C9 1.381 1_545 S
C10 C12 1.381 . S
C10 C13 1.487 . S
C11 C8 1.382 . S
C11 C12 1.387 . S
C11 H34 0.930 . S
C12 C10 1.381 . S
C12 C11 1.387 . S
C12 H35 0.931 . S
C13 C6 1.399 1_544 S
C13 C10 1.487 . S
C13 N45 1.343 . S
C14 C15 1.384 1_565 S
C14 C16 1.384 . S
C14 H36 0.931 . S
C15 C14 1.384 1_545 S
C15 C18 1.382 . S
C16 C14 1.384 . S
C16 C17 1.381 1_565 S
C16 H37 0.930 . S
C17 C16 1.381 1_545 S
C17 C19 1.381 . S
C17 C20 1.487 . S
C18 C15 1.382 . S
C18 C19 1.387 . S
C18 H38 0.930 . S
C19 C17 1.381 . S
C19 C18 1.387 . S
C19 H39 0.931 . S
C20 C17 1.487 . S
C20 C27 1.399 1_544 S
C20 N45 1.343 . S
C21 C22 1.384 1_545 S
C21 C23 1.384 . S
C21 H40 0.931 . S
C22 C21 1.384 1_565 S
C22 C25 1.382 . S
C23 C21 1.384 . S
C23 C24 1.381 1_545 S
C23 H41 0.930 . S
C24 C23 1.381 1_565 S
C24 C26 1.381 . S
C24 C27 1.487 . S
C25 C22 1.382 . S
C25 C26 1.387 . S
C25 H42 0.930 . S
C26 C24 1.381 . S
C26 C25 1.387 . S
C26 H43 0.931 . S
C27 C20 1.399 1_566 S
C27 C24 1.487 . S
C27 N44 1.343 . S
H28 C0 0.931 . S
H29 C2 0.930 . S
H30 C4 0.930 . S
H31 C5 0.931 . S
H32 C7 0.931 . S
H33 C9 0.930 . S
H34 C11 0.930 . S
H35 C12 0.931 . S
H36 C14 0.931 . S
H37 C16 0.930 . S
H38 C18 0.930 . S
H39 C19 0.931 . S
H40 C21 0.931 . S
H41 C23 0.930 . S
H42 C25 0.930 . S
H43 C26 0.931 . S
N44 C6 1.343 . S
N44 C27 1.343 . S
N45 C13 1.343 . S
N45 C20 1.343 . S
C46 C47 1.384 1_455 S
C46 C48 1.384 . S
C46 H74 0.931 . S
C47 C46 1.384 1_655 S
C47 C50 1.382 . S
C48 C46 1.384 . S
C48 C49 1.381 1_455 S
C48 H75 0.930 . S
C49 C48 1.381 1_655 S
C49 C51 1.381 . S
C49 C52 1.487 . S
C50 C47 1.382 . S
C50 C51 1.387 . S
C50 H76 0.930 . S
C51 C49 1.381 . S
C51 C50 1.387 . S
C51 H77 0.931 . S
C52 C49 1.487 . S
C52 C59 1.399 1_655 S
C52 N90 1.343 . S
C53 C54 1.384 1_655 S
C53 C55 1.384 . S
C53 H78 0.931 . S
C54 C53 1.384 1_455 S
C54 C57 1.382 . S
C55 C53 1.384 . S
C55 C56 1.381 1_655 S
C55 H79 0.930 . S
C56 C55 1.381 1_455 S
C56 C58 1.381 . S
C56 C59 1.487 . S
C57 C54 1.382 . S
C57 C58 1.387 . S
C57 H80 0.930 . S
C58 C56 1.381 . S
C58 C57 1.387 . S
C58 H81 0.931 . S
C59 C52 1.399 1_455 S
C59 C56 1.487 . S
C59 N91 1.343 . S
C60 C61 1.384 1_655 S
C60 C62 1.384 . S
C60 H82 0.931 . S
C61 C60 1.384 1_455 S
C61 C64 1.382 . S
C62 C60 1.384 . S
C62 C63 1.381 1_655 S
C62 H83 0.930 . S
C63 C62 1.381 1_455 S
C63 C65 1.381 . S
C63 C66 1.487 . S
C64 C61 1.382 . S
C64 C65 1.387 . S
C64 H84 0.930 . S
C65 C63 1.381 . S
C65 C64 1.387 . S
C65 H85 0.931 . S
C66 C63 1.487 . S
C66 C73 1.399 1_455 S
C66 N91 1.343 . S
C67 C68 1.384 1_455 S
C67 C69 1.384 . S
C67 H86 0.931 . S
C68 C67 1.384 1_655 S
C68 C71 1.382 . S
C69 C67 1.384 . S
C69 C70 1.381 1_455 S
C69 H87 0.930 . S
C70 C69 1.381 1_655 S
C70 C72 1.381 . S
C70 C73 1.487 . S
C71 C68 1.382 . S
C71 C72 1.387 . S
C71 H88 0.930 . S
C72 C70 1.381 . S
C72 C71 1.387 . S
C72 H89 0.931 . S
C73 C66 1.399 1_655 S
C73 C70 1.487 . S
C73 N90 1.343 . S
H74 C46 0.931 . S
H75 C48 0.930 . S
H76 C50 0.930 . S
H77 C51 0.931 . S
H78 C53 0.931 . S
H79 C55 0.930 . S
H80 C57 0.930 . S
H81 C58 0.931 . S
H82 C60 0.931 . S
H83 C62 0.930 . S
H84 C64 0.930 . S
H85 C65 0.931 . S
H86 C67 0.931 . S
H87 C69 0.930 . S
H88 C71 0.930 . S
H89 C72 0.931 . S
N90 C52 1.343 . S
N90 C73 1.343 . S
N91 C59 1.343 . S
N91 C66 1.343 . S
O92 Cd93 2.223 1_655 S
O92 C100 1.315 . S
Cd93 O92 2.223 1_455 S
Cd93 O96 2.297 1_455 S
Cd93 O97 2.439 1_455 S
Cd93 O103 2.240 1_565 S
Cd94 O95 2.240 1_545 S
Cd94 O102 2.223 1_655 S
Cd94 O104 2.297 1_655 S
Cd94 O105 2.439 1_655 S
O95 Cd94 2.240 1_565 S
O95 C100 1.279 . S
O96 Cd93 2.297 1_655 S
O96 C98 1.247 . S
O97 Cd93 2.439 1_655 S
O97 C98 1.208 . S
C98 O96 1.247 . S
C98 O97 1.208 . S
C99 O104 1.247 . S
C99 O105 1.208 . S
C100 O92 1.315 . S
C100 O95 1.279 . S
C101 O102 1.315 . S
C101 O103 1.279 . S
O102 Cd94 2.223 1_455 S
O102 C101 1.315 . S
O103 Cd93 2.240 1_545 S
O103 C101 1.279 . S
O104 Cd94 2.297 1_455 S
O104 C99 1.247 . S
O105 Cd94 2.439 1_455 S
O105 C99 1.208 . S
O106 Cd107 2.223 1_655 S
O106 C114 1.315 . S
Cd107 O106 2.223 1_455 S
Cd107 O110 2.297 1_455 S
Cd107 O111 2.439 1_455 S
Cd107 O117 2.240 1_545 S
Cd108 O109 2.240 1_565 S
Cd108 O116 2.223 1_655 S
Cd108 O118 2.297 1_655 S
Cd108 O119 2.439 1_655 S
O109 Cd108 2.240 1_545 S
O109 C114 1.279 . S
O110 Cd107 2.297 1_655 S
O110 C112 1.247 . S
O111 Cd107 2.439 1_655 S
O111 C112 1.208 . S
C112 O110 1.247 . S
C112 O111 1.208 . S
C113 O118 1.247 . S
C113 O119 1.208 . S
C114 O106 1.315 . S
C114 O109 1.279 . S
C115 O116 1.315 . S
C115 O117 1.279 . S
O116 Cd108 2.223 1_455 S
O116 C115 1.315 . S
O117 Cd107 2.240 1_565 S
O117 C115 1.279 . S
O118 Cd108 2.297 1_455 S
O118 C113 1.247 . S
O119 Cd108 2.439 1_455 S
O119 C113 1.208 . S
C120 C121 1.391 . S
C120 C122 1.394 . S
C120 H136 0.931 . S
C121 C120 1.391 . S
C121 C125 1.376 . S
C122 C120 1.394 . S
C122 C123 1.369 . S
C122 C126 1.531 . S
C123 C122 1.369 . S
C123 C124 1.410 . S
C123 C131 1.503 . S
C124 C123 1.410 . S
C124 C125 1.392 . S
C124 C127 1.511 . S
C125 C121 1.376 . S
C125 C124 1.392 . S
C125 H137 0.929 1_545 S
C126 C122 1.531 . S
C126 H138 0.960 . S
C126 H139 0.962 . S
C126 H140 0.960 . S
C127 C124 1.511 . S
C127 H141 0.961 1_545 S
C127 H142 0.961 1_545 S
C127 H143 0.961 . S
C128 C129 1.370 1_565 S
C128 C130 1.363 . S
C128 H144 0.931 . S
C129 C128 1.370 1_545 S
C129 C133 1.408 . S
C130 C128 1.363 . S
C130 C131 1.370 1_565 S
C130 C134 1.524 . S
C131 C123 1.503 . S
C131 C130 1.370 1_545 S
C131 C132 1.403 . S
C132 C131 1.403 . S
C132 C133 1.404 . S
C132 C135 1.539 . S
C133 C129 1.408 . S
C133 C132 1.404 . S
C133 H145 0.930 . S
C134 C130 1.524 . S
C134 H146 0.956 . S
C134 H147 0.961 . S
C134 H148 0.961 . S
C135 C132 1.539 . S
C135 H149 0.958 . S
C135 H150 0.961 . S
C135 H151 0.960 . S
H136 C120 0.931 . S
H137 C125 0.929 1_565 S
H138 C126 0.960 . S
H139 C126 0.962 . S
H140 C126 0.960 . S
H141 C127 0.961 1_565 S
H142 C127 0.961 1_565 S
H143 C127 0.961 . S
H144 C128 0.931 . S
H145 C133 0.930 . S
H146 C134 0.956 . S
H147 C134 0.961 . S
H148 C134 0.961 . S
H149 C135 0.958 . S
H150 C135 0.961 . S
H151 C135 0.960 . S
C152 C153 1.391 . S
C152 C154 1.394 . S
C152 H168 0.931 . S
C153 C152 1.391 . S
C153 C157 1.376 1_655 S
C154 C152 1.394 . S
C154 C155 1.369 . S
C154 C158 1.531 . S
C155 C154 1.369 . S
C155 C156 1.410 1_655 S
C155 C163 1.503 . S
C156 C155 1.410 1_455 S
C156 C157 1.392 . S
C156 C159 1.511 . S
C157 C153 1.376 1_455 S
C157 C156 1.392 . S
C157 H169 0.929 . S
C158 C154 1.531 . S
C158 H170 0.960 . S
C158 H171 0.962 . S
C158 H172 0.960 . S
C159 C156 1.511 . S
C159 H173 0.961 . S
C159 H174 0.961 . S
C159 H175 0.961 . S
C160 C161 1.370 . S
C160 C162 1.363 . S
C160 H176 0.931 . S
C161 C160 1.370 . S
C161 C165 1.408 . S
C162 C160 1.363 . S
C162 C163 1.370 . S
C162 C166 1.524 . S
C163 C155 1.503 . S
C163 C162 1.370 . S
C163 C164 1.403 . S
C164 C163 1.403 . S
C164 C165 1.404 . S
C164 C167 1.539 . S
C165 C161 1.408 . S
C165 C164 1.404 . S
C165 H177 0.930 . S
C166 C162 1.524 . S
C166 H178 0.956 . S
C166 H179 0.961 . S
C166 H180 0.961 . S
C167 C164 1.539 . S
C167 H181 0.958 . S
C167 H182 0.961 1_655 S
C167 H183 0.960 1_655 S
H168 C152 0.931 . S
H169 C157 0.929 . S
H170 C158 0.960 . S
H171 C158 0.962 . S
H172 C158 0.960 . S
H173 C159 0.961 . S
H174 C159 0.961 . S
H175 C159 0.961 . S
H176 C160 0.931 . S
H177 C165 0.930 . S
H178 C166 0.956 . S
H179 C166 0.961 . S
H180 C166 0.961 . S
H181 C167 0.958 . S
H182 C167 0.961 1_455 S
H183 C167 0.960 1_455 S
C184 C185 1.391 . S
C184 C186 1.394 . S
C184 H200 0.931 1_565 S
C185 C184 1.391 . S
C185 C189 1.376 . S
C186 C184 1.394 . S
C186 C187 1.369 . S
C186 C190 1.531 . S
C187 C186 1.369 . S
C187 C188 1.410 . S
C187 C195 1.503 . S
C188 C187 1.410 . S
C188 C189 1.392 . S
C188 C191 1.511 . S
C189 C185 1.376 . S
C189 C188 1.392 . S
C189 H201 0.929 . S
C190 C186 1.531 . S
C190 H202 0.960 . S
C190 H203 0.962 1_565 S
C190 H204 0.960 . S
C191 C188 1.511 . S
C191 H205 0.961 . S
C191 H206 0.961 . S
C191 H207 0.961 . S
C192 C193 1.370 1_545 S
C192 C194 1.363 . S
C192 H208 0.931 . S
C193 C192 1.370 1_565 S
C193 C197 1.408 . S
C194 C192 1.363 . S
C194 C195 1.370 1_545 S
C194 C198 1.524 . S
C195 C187 1.503 . S
C195 C194 1.370 1_565 S
C195 C196 1.403 . S
C196 C195 1.403 . S
C196 C197 1.404 . S
C196 C199 1.539 . S
C197 C193 1.408 . S
C197 C196 1.404 . S
C197 H209 0.930 . S
C198 C194 1.524 . S
C198 H210 0.956 . S
C198 H211 0.961 . S
C198 H212 0.961 . S
C199 C196 1.539 . S
C199 H213 0.958 . S
C199 H214 0.961 . S
C199 H215 0.960 . S
H200 C184 0.931 1_545 S
H201 C189 0.929 . S
H202 C190 0.960 . S
H203 C190 0.962 1_545 S
H204 C190 0.960 . S
H205 C191 0.961 . S
H206 C191 0.961 . S
H207 C191 0.961 . S
H208 C192 0.931 . S
H209 C197 0.930 . S
H210 C198 0.956 . S
H211 C198 0.961 . S
H212 C198 0.961 . S
H213 C199 0.958 . S
H214 C199 0.961 . S
H215 C199 0.960 . S
C216 C217 1.407 . S
C216 C218 1.394 . S
C216 H232 0.931 . S
C217 C216 1.407 . S
C217 C221 1.361 1_455 S
C218 C216 1.394 . S
C218 C219 1.369 . S
C218 C222 1.531 . S
C219 C218 1.369 . S
C219 C220 1.410 1_455 S
C219 C227 1.503 . S
C220 C219 1.410 1_655 S
C220 C221 1.392 . S
C220 C223 1.511 . S
C221 C217 1.361 1_655 S
C221 C220 1.392 . S
C221 H233 0.929 . S
C222 C218 1.531 . S
C222 H234 0.960 . S
C222 H235 0.962 . S
C222 H236 0.960 . S
C223 C220 1.511 . S
C223 H237 0.961 . S
C223 H238 0.961 . S
C223 H239 0.961 . S
C224 C225 1.370 . S
C224 C226 1.363 . S
C224 H240 0.931 . S
C225 C224 1.370 . S
C225 C229 1.408 . S
C226 C224 1.363 . S
C226 C227 1.370 . S
C226 C230 1.524 . S
C227 C219 1.503 . S
C227 C226 1.370 . S
C227 C228 1.403 1_455 S
C228 C227 1.403 1_655 S
C228 C229 1.404 1_655 S
C228 C231 1.539 . S
C229 C225 1.408 . S
C229 C228 1.404 1_455 S
C229 H241 0.930 1_455 S
C230 C226 1.524 . S
C230 H242 0.956 . S
C230 H243 0.961 . S
C230 H244 0.961 . S
C231 C228 1.539 . S
C231 H245 0.958 . S
C231 H246 0.961 . S
C231 H247 0.960 . S
H232 C216 0.931 . S
H233 C221 0.929 . S
H234 C222 0.960 . S
H235 C222 0.962 . S
H236 C222 0.960 . S
H237 C223 0.961 . S
H238 C223 0.961 . S
H239 C223 0.961 . S
H240 C224 0.931 . S
H241 C229 0.930 1_655 S
H242 C230 0.956 . S
H243 C230 0.961 . S
H244 C230 0.961 . S
H245 C231 0.958 . S
H246 C231 0.961 . S
H247 C231 0.960 . S
C248 C249 1.391 . S
C248 C250 1.394 . S
C248 H264 0.931 . S
C249 C248 1.391 . S
C249 C253 1.376 . S
C250 C248 1.394 . S
C250 C251 1.369 . S
C250 C254 1.530 1_545 S
C251 C250 1.369 . S
C251 C252 1.410 . S
C251 C259 1.502 1_545 S
C252 C251 1.410 . S
C252 C253 1.392 . S
C252 C255 1.511 . S
C253 C249 1.376 . S
C253 C252 1.392 . S
C253 H265 0.929 . S
C254 C250 1.530 1_565 S
C254 H266 0.959 1_565 S
C254 H267 0.963 . S
C254 H268 0.960 1_565 S
C255 C252 1.511 . S
C255 H269 0.961 1_545 S
C255 H270 0.961 1_545 S
C255 H271 0.961 . S
C256 C257 1.370 . S
C256 C258 1.363 . S
C256 H272 0.931 . S
C257 C256 1.370 . S
C257 C261 1.408 1_565 S
C258 C256 1.363 . S
C258 C259 1.370 . S
C258 C262 1.524 . S
C259 C251 1.502 1_565 S
C259 C258 1.370 . S
C259 C260 1.403 1_565 S
C260 C259 1.403 1_545 S
C260 C261 1.404 . S
C260 C263 1.539 . S
C261 C257 1.408 1_545 S
C261 C260 1.404 . S
C261 H273 0.930 . S
C262 C258 1.524 . S
C262 H274 0.956 . S
C262 H275 0.961 . S
C262 H276 0.961 . S
C263 C260 1.539 . S
C263 H277 0.958 . S
C263 H278 0.961 . S
C263 H279 0.960 . S
H264 C248 0.931 . S
H265 C253 0.929 . S
H266 C254 0.959 1_545 S
H267 C254 0.963 . S
H268 C254 0.960 1_545 S
H269 C255 0.961 1_565 S
H270 C255 0.961 1_565 S
H271 C255 0.961 . S
H272 C256 0.931 . S
H273 C261 0.930 . S
H274 C262 0.956 . S
H275 C262 0.961 . S
H276 C262 0.961 . S
H277 C263 0.958 . S
H278 C263 0.961 . S
H279 C263 0.960 . S
C280 C281 1.391 1_655 S
C280 C282 1.394 . S
C280 H296 0.931 . S
C281 C280 1.391 1_455 S
C281 C285 1.376 . S
C282 C280 1.394 . S
C282 C283 1.369 1_655 S
C282 C286 1.531 . S
C283 C282 1.369 1_455 S
C283 C284 1.410 . S
C283 C291 1.503 . S
C284 C283 1.410 . S
C284 C285 1.392 . S
C284 C287 1.511 . S
C285 C281 1.376 . S
C285 C284 1.392 . S
C285 H297 0.929 . S
C286 C282 1.531 . S
C286 H298 0.974 . S
C286 H299 0.962 . S
C286 H300 0.960 . S
C287 C284 1.511 . S
C287 H301 0.961 . S
C287 H302 0.961 . S
C287 H303 0.961 . S
C288 C289 1.370 1_655 S
C288 C290 1.363 . S
C288 H304 0.931 . S
C289 C288 1.370 1_455 S
C289 C293 1.408 . S
C290 C288 1.363 . S
C290 C291 1.370 1_655 S
C290 C294 1.524 . S
C291 C283 1.503 . S
C291 C290 1.370 1_455 S
C291 C292 1.403 . S
C292 C291 1.403 . S
C292 C293 1.404 . S
C292 C295 1.539 . S
C293 C289 1.408 . S
C293 C292 1.404 . S
C293 H305 0.930 . S
C294 C290 1.524 . S
C294 H306 0.956 . S
C294 H307 0.961 . S
C294 H308 0.961 . S
C295 C292 1.539 . S
C295 H309 0.958 . S
C295 H310 0.961 . S
C295 H311 0.960 . S
H296 C280 0.931 . S
H297 C285 0.929 . S
H298 C286 0.974 . S
H299 C286 0.962 . S
H300 C286 0.960 . S
H301 C287 0.961 . S
H302 C287 0.961 . S
H303 C287 0.961 . S
H304 C288 0.931 . S
H305 C293 0.930 . S
H306 C294 0.956 . S
H307 C294 0.961 . S
H308 C294 0.961 . S
H309 C295 0.958 . S
H310 C295 0.961 . S
H311 C295 0.960 . S
C312 C313 1.391 . S
C312 C314 1.394 . S
C312 H328 0.931 . S
C313 C312 1.391 . S
C313 C317 1.376 1_565 S
C314 C312 1.394 . S
C314 C315 1.367 1_565 S
C314 C318 1.531 . S
C315 C314 1.367 1_545 S
C315 C316 1.412 . S
C315 C323 1.504 . S
C316 C315 1.412 . S
C316 C317 1.392 . S
C316 C319 1.511 . S
C317 C313 1.376 1_545 S
C317 C316 1.392 . S
C317 H329 0.929 . S
C318 C314 1.531 . S
C318 H330 0.960 . S
C318 H331 0.962 . S
C318 H332 0.960 . S
C319 C316 1.511 . S
C319 H333 0.961 . S
C319 H334 0.961 . S
C319 H335 0.961 . S
C320 C321 1.370 . S
C320 C322 1.363 . S
C320 H336 0.931 . S
C321 C320 1.370 . S
C321 C325 1.408 1_545 S
C322 C320 1.363 . S
C322 C323 1.370 . S
C322 C326 1.524 . S
C323 C315 1.504 . S
C323 C322 1.370 . S
C323 C324 1.403 1_545 S
C324 C323 1.403 1_565 S
C324 C325 1.404 . S
C324 C327 1.539 . S
C325 C321 1.408 1_565 S
C325 C324 1.404 . S
C325 H337 0.930 . S
C326 C322 1.524 . S
C326 H338 0.956 . S
C326 H339 0.961 . S
C326 H340 0.961 . S
C327 C324 1.539 . S
C327 H341 0.958 . S
C327 H342 0.961 . S
C327 H343 0.960 . S
H328 C312 0.931 . S
H329 C317 0.929 . S
H330 C318 0.960 . S
H331 C318 0.962 . S
H332 C318 0.960 . S
H333 C319 0.961 . S
H334 C319 0.961 . S
H335 C319 0.961 . S
H336 C320 0.931 . S
H337 C325 0.930 . S
H338 C326 0.956 . S
H339 C326 0.961 . S
H340 C326 0.961 . S
H341 C327 0.958 . S
H342 C327 0.961 . S
H343 C327 0.960 . S
C344 C345 1.391 . S
C344 C346 1.394 . S
C344 H360 0.931 . S
C345 C344 1.391 . S
C345 C349 1.376 1_655 S
C346 C344 1.394 . S
C346 C347 1.369 . S
C346 C350 1.531 . S
C347 C346 1.369 . S
C347 C348 1.410 1_655 S
C347 C355 1.503 . S
C348 C347 1.410 1_455 S
C348 C349 1.392 . S
C348 C351 1.511 . S
C349 C345 1.376 1_455 S
C349 C348 1.392 . S
C349 H361 0.929 . S
C350 C346 1.531 . S
C350 H362 0.960 . S
C350 H363 0.962 . S
C350 H364 0.960 . S
C351 C348 1.511 . S
C351 H365 0.961 . S
C351 H366 0.961 . S
C351 H367 0.961 . S
C352 C353 1.370 . S
C352 C354 1.363 . S
C352 H368 0.931 . S
C353 C352 1.370 . S
C353 C357 1.408 . S
C354 C352 1.363 . S
C354 C355 1.370 . S
C354 C358 1.524 . S
C355 C347 1.503 . S
C355 C354 1.370 . S
C355 C356 1.403 . S
C356 C355 1.403 . S
C356 C357 1.404 . S
C356 C359 1.539 1_655 S
C357 C353 1.408 . S
C357 C356 1.404 . S
C357 H369 0.932 . S
C358 C354 1.524 . S
C358 H370 0.956 . S
C358 H371 0.961 . S
C358 H372 0.961 . S
C359 C356 1.539 1_455 S
C359 H373 0.958 1_455 S
C359 H374 0.961 . S
C359 H375 0.960 . S
H360 C344 0.931 . S
H361 C349 0.929 . S
H362 C350 0.960 . S
H363 C350 0.962 . S
H364 C350 0.960 . S
H365 C351 0.961 . S
H366 C351 0.961 . S
H367 C351 0.961 . S
H368 C352 0.931 . S
H369 C357 0.932 . S
H370 C358 0.956 . S
H371 C358 0.961 . S
H372 C358 0.961 . S
H373 C359 0.958 1_655 S
H374 C359 0.961 . S
H375 C359 0.960 . S
C129 C101 1.604 . S
C121 C15 1.588 . S
C161 C112 1.534 . S
C153 C68 1.589 . S
C193 C100 1.604 . S
C185 C8 1.597 1_565 S
C225 C113 1.528 . S
C217 C47 1.593 1_455 S
C257 C115 1.605 . S
C249 C22 1.608 1_545 S
C289 C99 1.538 . S
C281 C61 1.586 . S
C321 C114 1.605 . S
C313 C1 1.607 . S
C345 C54 1.593 1_655 S
C353 C98 1.531 . S
