# Generated by pormake.
# Topology ctn, (3,4)-cn, num edge types: 1
# Building blocks:
#     Node 0, Type 0, BuildingBlock: ESEHIV_clean_linker_0, # of connection points: 3
#     Node 1, Type 0, BuildingBlock: ESEHIV_clean_linker_0, # of connection points: 3
#     Node 2, Type 0, BuildingBlock: ESEHIV_clean_linker_0, # of connection points: 3
#     Node 3, Type 0, BuildingBlock: ESEHIV_clean_linker_0, # of connection points: 3
#     Node 4, Type 0, BuildingBlock: ESEHIV_clean_linker_0, # of connection points: 3
#     Node 5, Type 0, BuildingBlock: ESEHIV_clean_linker_0, # of connection points: 3
#     Node 6, Type 0, BuildingBlock: ESEHIV_clean_linker_0, # of connection points: 3
#     Node 7, Type 0, BuildingBlock: ESEHIV_clean_linker_0, # of connection points: 3
#     Node 8, Type 0, BuildingBlock: ESEHIV_clean_linker_0, # of connection points: 3
#     Node 9, Type 0, BuildingBlock: ESEHIV_clean_linker_0, # of connection points: 3
#     Node 10, Type 0, BuildingBlock: ESEHIV_clean_linker_0, # of connection points: 3
#     Node 11, Type 0, BuildingBlock: ESEHIV_clean_linker_0, # of connection points: 3
#     Node 12, Type 0, BuildingBlock: ESEHIV_clean_linker_0, # of connection points: 3
#     Node 13, Type 0, BuildingBlock: ESEHIV_clean_linker_0, # of connection points: 3
#     Node 14, Type 0, BuildingBlock: ESEHIV_clean_linker_0, # of connection points: 3
#     Node 15, Type 0, BuildingBlock: ESEHIV_clean_linker_0, # of connection points: 3
#     Node 16, Type 1, BuildingBlock: KUFVIS_clean_sbu_0, # of connection points: 4
#     Node 17, Type 1, BuildingBlock: KUFVIS_clean_sbu_0, # of connection points: 4
#     Node 18, Type 1, BuildingBlock: KUFVIS_clean_sbu_0, # of connection points: 4
#     Node 19, Type 1, BuildingBlock: KUFVIS_clean_sbu_0, # of connection points: 4
#     Node 20, Type 1, BuildingBlock: KUFVIS_clean_sbu_0, # of connection points: 4
#     Node 21, Type 1, BuildingBlock: KUFVIS_clean_sbu_0, # of connection points: 4
#     Node 22, Type 1, BuildingBlock: KUFVIS_clean_sbu_0, # of connection points: 4
#     Node 23, Type 1, BuildingBlock: KUFVIS_clean_sbu_0, # of connection points: 4
#     Node 24, Type 1, BuildingBlock: KUFVIS_clean_sbu_0, # of connection points: 4
#     Node 25, Type 1, BuildingBlock: KUFVIS_clean_sbu_0, # of connection points: 4
#     Node 26, Type 1, BuildingBlock: KUFVIS_clean_sbu_0, # of connection points: 4
#     Node 27, Type 1, BuildingBlock: KUFVIS_clean_sbu_0, # of connection points: 4
#     Edge 28, Type (0, 1), None
#     Edge 29, Type (0, 1), None
#     Edge 30, Type (0, 1), None
#     Edge 31, Type (0, 1), None
#     Edge 32, Type (0, 1), None
#     Edge 33, Type (0, 1), None
#     Edge 34, Type (0, 1), None
#     Edge 35, Type (0, 1), None
#     Edge 36, Type (0, 1), None
#     Edge 37, Type (0, 1), None
#     Edge 38, Type (0, 1), None
#     Edge 39, Type (0, 1), None
#     Edge 40, Type (0, 1), None
#     Edge 41, Type (0, 1), None
#     Edge 42, Type (0, 1), None
#     Edge 43, Type (0, 1), None
#     Edge 44, Type (0, 1), None
#     Edge 45, Type (0, 1), None
#     Edge 46, Type (0, 1), None
#     Edge 47, Type (0, 1), None
#     Edge 48, Type (0, 1), None
#     Edge 49, Type (0, 1), None
#     Edge 50, Type (0, 1), None
#     Edge 51, Type (0, 1), None
#     Edge 52, Type (0, 1), None
#     Edge 53, Type (0, 1), None
#     Edge 54, Type (0, 1), None
#     Edge 55, Type (0, 1), None
#     Edge 56, Type (0, 1), None
#     Edge 57, Type (0, 1), None
#     Edge 58, Type (0, 1), None
#     Edge 59, Type (0, 1), None
#     Edge 60, Type (0, 1), None
#     Edge 61, Type (0, 1), None
#     Edge 62, Type (0, 1), None
#     Edge 63, Type (0, 1), None
#     Edge 64, Type (0, 1), None
#     Edge 65, Type (0, 1), None
#     Edge 66, Type (0, 1), None
#     Edge 67, Type (0, 1), None
#     Edge 68, Type (0, 1), None
#     Edge 69, Type (0, 1), None
#     Edge 70, Type (0, 1), None
#     Edge 71, Type (0, 1), None
#     Edge 72, Type (0, 1), None
#     Edge 73, Type (0, 1), None
#     Edge 74, Type (0, 1), None
#     Edge 75, Type (0, 1), None
# Relax obj value: 0.013
# Max RMSD: 0.062
# Mean RMSD: 0.034
data_MOF--net-ctn--node1-KUFVIS_clean_sbu_0--node2-ESEHIV_clean_linker_0--edge1-none
_symmetry_space_group_name_H-M    P1
_symmetry_Int_Tables_number       1
_symmetry_cell_setting            triclinic
loop_
_symmetry_equiv_pos_as_xyz
'x, y, z'
_cell_length_a     20.334217
_cell_length_b     20.145267
_cell_length_c     19.986281
_cell_angle_alpha  91.103837
_cell_angle_beta   89.737621
_cell_angle_gamma 91.103349
loop_
_atom_site_label
_atom_site_type_symbol
_atom_site_fract_x
_atom_site_fract_y
_atom_site_fract_z
_atom_type_partial_charge
H0 H 0.96635 0.11052 0.09051 0.0
H1 H 0.08386 0.93815 0.10155 0.0
H2 H 0.13079 0.08714 0.95682 0.0
C3 C 0.00894 0.08282 0.07447 0.0
C4 C 0.04588 0.10485 0.01896 0.0
C5 C 0.02328 0.02327 0.10659 0.0
C6 C 0.07709 0.9867 0.0823 0.0
C7 C 0.1189 0.01074 0.03057 0.0
C8 C 0.10181 0.06968 0.99882 0.0
H9 H 0.31593 0.62021 0.31491 0.0
H10 H 0.41568 0.76573 0.19519 0.0
H11 H 0.22971 0.68459 0.13152 0.0
C12 C 0.31733 0.65275 0.27257 0.0
C13 C 0.2653 0.64866 0.22473 0.0
C14 C 0.37267 0.69588 0.26306 0.0
C15 C 0.37411 0.73376 0.20409 0.0
C16 C 0.32183 0.73162 0.15768 0.0
C17 C 0.26891 0.68782 0.16806 0.0
H18 H 0.95607 0.57262 0.11262 0.0
H19 H 0.06514 0.39365 0.08575 0.0
H20 H 0.90923 0.44245 0.94891 0.0
C21 C 0.96523 0.52758 0.08512 0.0
C22 C 0.92487 0.51151 0.02961 0.0
C23 C 0.0165 0.487 0.10711 0.0
C24 C 0.02853 0.42792 0.06911 0.0
C25 C 0.99028 0.41201 1.01097 0.0
C26 C 0.94005 0.45536 0.99141 0.0
H27 H 0.63143 0.73053 0.1986 0.0
H28 H 0.79684 0.83461 0.11355 0.0
H29 H 0.70354 0.91071 0.29295 0.0
C30 C 0.66597 0.77211 0.19978 0.0
C31 C 0.65891 0.82179 0.24889 0.0
C32 C 0.71618 0.77552 0.15215 0.0
C33 C 0.76059 0.82988 0.1531 0.0
C34 C 0.75794 0.87814 0.20465 0.0
C35 C 0.70631 0.87404 0.2527 0.0
H36 H 0.92738 0.93273 0.4646 0.0
H37 H 0.0792 0.06176 0.38785 0.0
H38 H 0.09951 0.97492 0.57947 0.0
C39 C 0.97257 0.96035 0.47118 0.0
C40 C 0.01231 0.94422 0.52497 0.0
C41 C 0.9947 1.00509 0.42165 0.0
C42 C 0.05708 0.03655 0.42968 0.0
C43 C 0.09313 0.03035 0.48954 0.0
C44 C 0.06999 0.98337 0.53599 0.0
H45 H 0.11219 0.8033 0.83759 0.0
H46 H 0.2861 0.70509 0.89535 0.0
H47 H 0.19097 0.64609 0.71357 0.0
C48 C 0.15032 0.76789 0.82683 0.0
C49 C 0.14572 0.72618 0.76934 0.0
C50 C 0.20402 0.76277 0.87045 0.0
C51 C 0.24775 0.71063 0.86004 0.0
C52 C 0.24223 0.66714 0.80469 0.0
C53 C 0.19318 0.67769 0.75779 0.0
H54 H 0.88981 0.57639 0.56495 0.0
H55 H 0.07196 0.62231 0.46812 0.0
H56 H 0.9724 0.44053 0.42093 0.0
C57 C 0.93208 0.5602 0.5367 0.0
C58 C 0.92848 0.49894 0.50093 0.0
C59 C 0.98688 0.60362 0.5296 0.0
C60 C 0.03328 0.58737 0.47944 0.0
C61 C 0.02672 0.53039 0.43774 0.0
C62 C 0.97762 0.48398 0.45298 0.0
H63 H 0.74751 0.86243 0.92876 0.0
H64 H 0.85382 0.89887 0.74723 0.0
H65 H 0.89905 0.73029 0.8667 0.0
C66 C 0.78987 0.85226 0.89716 0.0
C67 C 0.82332 0.7924 0.90492 0.0
C68 C 0.80029 0.8909 0.84062 0.0
C69 C 0.84984 0.87315 0.79428 0.0
C70 C 0.88721 0.8161 0.80415 0.0
C71 C 0.87529 0.77772 0.86172 0.0
H72 H 0.24751 0.36243 0.42876 0.0
H73 H 0.35382 0.39887 0.24723 0.0
H74 H 0.39905 0.23029 0.3667 0.0
C75 C 0.28987 0.35226 0.39716 0.0
C76 C 0.32332 0.2924 0.40492 0.0
C77 C 0.30029 0.3909 0.34062 0.0
C78 C 0.34984 0.37315 0.29428 0.0
C79 C 0.38721 0.3161 0.30415 0.0
C80 C 0.37529 0.27772 0.36172 0.0
H81 H 0.45607 0.07262 0.61262 0.0
H82 H 0.56514 0.89365 0.58575 0.0
H83 H 0.40923 0.94245 0.44891 0.0
C84 C 0.46523 0.02758 0.58512 0.0
C85 C 0.42487 0.01151 0.52961 0.0
C86 C 0.5165 0.987 0.60711 0.0
C87 C 0.52853 0.92792 0.56911 0.0
C88 C 0.49028 0.91201 0.51097 0.0
C89 C 0.44005 0.95536 0.49141 0.0
H90 H 0.13143 0.23053 0.6986 0.0
H91 H 0.29684 0.33461 0.61355 0.0
H92 H 0.20354 0.41071 0.79295 0.0
C93 C 0.16597 0.27211 0.69978 0.0
C94 C 0.15891 0.32179 0.74889 0.0
C95 C 0.21618 0.27552 0.65216 0.0
C96 C 0.26059 0.32988 0.6531 0.0
C97 C 0.25794 0.37814 0.70465 0.0
C98 C 0.20631 0.37404 0.7527 0.0
H99 H 0.81593 0.12021 0.81491 0.0
H100 H 0.91568 0.26573 0.69519 0.0
H101 H 0.72971 0.18459 0.63152 0.0
C102 C 0.81733 0.15275 0.77257 0.0
C103 C 0.7653 0.14866 0.72473 0.0
C104 C 0.87267 0.19588 0.76306 0.0
C105 C 0.87411 0.23376 0.70409 0.0
C106 C 0.82183 0.23162 0.65768 0.0
C107 C 0.76891 0.18782 0.66806 0.0
H108 H 0.46635 0.61052 0.59051 0.0
H109 H 0.58386 0.43815 0.60155 0.0
H110 H 0.63079 0.58714 0.45682 0.0
C111 C 0.50894 0.58282 0.57447 0.0
C112 C 0.54588 0.60485 0.51896 0.0
C113 C 0.52328 0.52327 0.60659 0.0
C114 C 0.57709 0.4867 0.5823 0.0
C115 C 0.6189 0.51074 0.53057 0.0
C116 C 0.60181 0.56968 0.49882 0.0
H117 H 0.42738 0.43273 0.96459 0.0
H118 H 0.5792 0.56176 0.88785 0.0
H119 H 0.59951 0.47492 0.07947 0.0
C120 C 0.47257 0.46035 0.97118 0.0
C121 C 0.51231 0.44422 0.02497 0.0
C122 C 0.4947 0.50509 0.92165 0.0
C123 C 0.55708 0.53655 0.92968 0.0
C124 C 0.59313 0.53035 0.98954 0.0
C125 C 0.56999 0.48337 0.03599 0.0
H126 H 0.61219 0.3033 0.33759 0.0
H127 H 0.7861 0.20509 0.39535 0.0
H128 H 0.69097 0.14609 0.21357 0.0
C129 C 0.65032 0.26789 0.32683 0.0
C130 C 0.64572 0.22618 0.26934 0.0
C131 C 0.70402 0.26277 0.37045 0.0
C132 C 0.74775 0.21063 0.36004 0.0
C133 C 0.74223 0.16714 0.30469 0.0
C134 C 0.69318 0.17769 0.25779 0.0
H135 H 0.38981 0.07639 0.06495 0.0
H136 H 0.57196 0.12231 0.96812 0.0
H137 H 0.4724 0.94053 0.92093 0.0
C138 C 0.43208 0.0602 0.0367 0.0
C139 C 0.42848 0.99894 1.00093 0.0
C140 C 0.48688 0.10362 0.0296 0.0
C141 C 0.53328 0.08737 0.97944 0.0
C142 C 0.52672 0.03039 0.93774 0.0
C143 C 0.47762 0.98398 0.95298 0.0
Mn144 Mn 0.26673 0.85417 0.02686 0.0
Mn145 Mn 0.2618 0.94031 0.88468 0.0
C146 C 0.2148 0.8072 0.92983 0.0
C147 C 0.31194 0.78382 0.10748 0.0
C148 C 0.17663 0.97177 1.00571 0.0
O149 O 0.33979 0.92713 0.03962 0.0
O150 O 0.34098 0.96598 0.93455 0.0
C151 C 0.37554 0.87755 0.81696 0.0
N152 N 0.31224 0.89813 0.81603 0.0
C153 C 0.30141 0.86879 0.69981 0.0
C154 C 0.3675 0.84995 0.69836 0.0
C155 C 0.40437 0.85299 0.75769 0.0
C156 C 0.27496 0.89029 0.76091 0.0
H157 H 0.40307 0.87904 0.86275 0.0
C158 C 0.36504 0.96273 0.99305 0.0
O159 O 0.2703 0.82915 0.12178 0.0
O160 O 0.33065 0.77971 0.04514 0.0
N161 N 0.18778 0.92193 0.82948 0.0
C162 C 0.12455 0.94057 0.84058 0.0
C163 C 0.08138 0.94375 0.78674 0.0
C164 C 0.10392 0.92865 0.72211 0.0
C165 C 0.16841 0.90636 0.71178 0.0
C166 C 0.20935 0.90504 0.76751 0.0
H167 H 0.10753 0.9554 0.88962 0.0
O168 O 0.20279 0.78477 0.98888 0.0
O169 O 0.25858 0.85463 0.92942 0.0
O170 O 0.19329 0.92133 0.03789 0.0
O171 O 0.20541 0.9881 0.95133 0.0
C172 C 0.19508 0.88844 0.64869 0.0
C173 C 0.26094 0.86807 0.64307 0.0
H174 H 0.39012 0.83243 0.65228 0.0
H175 H 0.45489 0.83704 0.75761 0.0
H176 H 0.03163 0.96054 0.7946 0.0
H177 H 0.07112 0.93746 0.68168 0.0
H178 H 0.16613 0.88997 0.6039 0.0
H179 H 0.28055 0.85329 0.59478 0.0
Mn180 Mn 0.16671 0.50006 0.27192 0.0
Mn181 Mn 0.07313 0.63566 0.25817 0.0
C182 C 0.21389 0.59523 0.22655 0.0
C183 C 0.24617 0.43315 0.31921 0.0
C184 C 0.05479 0.5102 0.16926 0.0
O185 O 0.0971 0.48765 0.34809 0.0
O186 O 0.04457 0.58472 0.3371 0.0
C187 C 0.0641 0.72474 0.37385 0.0
N188 N 0.09457 0.71078 0.31441 0.0
C189 C 0.12479 0.82636 0.3039 0.0
C190 C 0.10168 0.83913 0.36861 0.0
C191 C 0.0681 0.78877 0.40225 0.0
C192 C 0.11814 0.76136 0.27723 0.0
H193 H 0.03057 0.68953 0.39571 0.0
C194 C 0.05705 0.53225 0.36941 0.0
O195 O 0.20228 0.40932 0.27828 0.0
O196 O 0.24066 0.49473 0.33822 0.0
N197 N 0.0999 0.68974 0.18566 0.0
C198 C 0.0889 0.67785 0.11925 0.0
C199 C 0.09614 0.72961 0.07429 0.0
C200 C 0.1155 0.7928 0.09782 0.0
C201 C 0.12964 0.80346 0.16564 0.0
C202 C 0.1197 0.75044 0.2088 0.0
H203 H 0.07179 0.63012 0.10067 0.0
O204 O 0.23219 0.53634 0.208 0.0
O205 O 0.16314 0.59775 0.267 0.0
O206 O 0.10219 0.47776 0.19269 0.0
O207 O 0.03963 0.56605 0.19511 0.0
C208 C 0.14786 0.86604 0.19279 0.0
C209 C 0.14481 0.87783 0.26195 0.0
H210 H 0.10344 0.88892 0.39015 0.0
H211 H 0.04273 0.80036 0.44839 0.0
H212 H 0.08466 0.72138 0.02191 0.0
H213 H 0.11612 0.83322 0.06344 0.0
H214 H 0.16235 0.90639 0.1612 0.0
H215 H 0.15289 0.92781 0.28164 0.0
Mn216 Mn 0.76446 0.61357 0.01968 0.0
Mn217 Mn 0.64597 0.7084 0.96384 0.0
C218 C 0.65919 0.56428 1.00148 0.0
C219 C 0.86296 0.54996 0.01956 0.0
C220 C 0.71396 0.72934 0.09464 0.0
O221 O 0.81051 0.69767 0.97804 0.0
O222 O 0.72563 0.73332 0.91559 0.0
C223 C 0.62001 0.68943 0.81989 0.0
N224 N 0.59922 0.68615 0.88462 0.0
C225 C 0.48603 0.68642 0.85186 0.0
C226 C 0.50572 0.68941 0.78456 0.0
C227 C 0.57312 0.68994 0.76845 0.0
C228 C 0.53459 0.6852 0.90049 0.0
H229 H 0.67182 0.69345 0.80795 0.0
C230 C 0.78533 0.73753 0.93552 0.0
O231 O 0.84295 0.5867 0.06776 0.0
O232 O 0.82456 0.54813 0.96735 0.0
N233 N 0.56808 0.68481 1.01105 0.0
C234 C 0.55894 0.67025 0.07674 0.0
C235 C 0.49545 0.65508 0.10024 0.0
C236 C 0.44234 0.65534 0.05577 0.0
C237 C 0.45387 0.6692 0.98821 0.0
C238 C 0.51827 0.68159 0.96745 0.0
H239 H 0.59994 0.66751 0.1101 0.0
O240 O 0.70131 0.53894 0.0422 0.0
O241 O 0.68069 0.61731 0.97108 0.0
O242 O 0.73119 0.66972 0.09914 0.0
O243 O 0.6856 0.74951 0.04351 0.0
C244 C 0.4042 0.67027 0.94037 0.0
C245 C 0.42014 0.68401 0.873 0.0
H246 H 0.4696 0.69045 0.74493 0.0
H247 H 0.58882 0.69233 0.71672 0.0
H248 H 0.48757 0.64274 0.15215 0.0
H249 H 0.39326 0.64335 0.07355 0.0
H250 H 0.35429 0.66028 0.95611 0.0
H251 H 0.38225 0.69193 0.8374 0.0
Mn252 Mn 0.85968 0.03063 0.25121 0.0
Mn253 Mn 0.93812 0.88563 0.25326 0.0
C254 C 0.80716 0.9339 0.20766 0.0
C255 C 0.79066 0.11486 0.29062 0.0
C256 C 0.97892 0.99882 0.1621 0.0
O257 O 0.92943 0.04376 0.32796 0.0
O258 O 0.96626 0.93905 0.33066 0.0
C259 C 0.86891 0.83333 0.37238 0.0
N260 N 0.89279 0.8246 0.30933 0.0
C261 C 0.86054 0.70982 0.30767 0.0
C262 C 0.84057 0.71582 0.37476 0.0
C263 C 0.84306 0.77851 0.40677 0.0
C264 C 0.8842 0.7667 0.27597 0.0
H265 H 0.86749 0.88211 0.39459 0.0
C266 C 0.96334 0.99776 0.3547 0.0
O267 O 0.83692 0.12564 0.2476 0.0
O268 O 0.78549 0.05512 0.31407 0.0
N269 N 0.91684 0.82567 0.18208 0.0
C270 C 0.9346 0.83053 0.11662 0.0
C271 C 0.93448 0.77341 0.076 0.0
C272 C 0.91763 0.71193 0.10352 0.0
C273 C 0.89707 0.70798 0.17078 0.0
C274 C 0.89859 0.76678 0.20861 0.0
H275 H 0.9511 0.87711 0.09609 0.0
O276 O 0.79125 0.99219 0.18725 0.0
O277 O 0.85512 0.93438 0.25012 0.0
O278 O 0.92953 0.03356 0.17753 0.0
O279 O 0.99025 0.94434 0.19134 0.0
C280 C 0.87744 0.64872 0.20319 0.0
C281 C 0.85781 0.64996 0.27085 0.0
H282 H 0.82146 0.67321 0.40138 0.0
H283 H 0.82493 0.78458 0.45747 0.0
H284 H 0.95014 0.77622 0.02426 0.0
H285 H 0.9234 0.66899 0.07185 0.0
H286 H 0.87627 0.60126 0.17818 0.0
H287 H 0.84126 0.60442 0.29413 0.0
Mn288 Mn 0.26446 0.11357 0.51968 0.0
Mn289 Mn 0.14597 0.2084 0.46384 0.0
C290 C 0.15919 0.06428 0.50148 0.0
C291 C 0.36296 0.04996 0.51956 0.0
C292 C 0.21396 0.22934 0.59464 0.0
O293 O 0.31051 0.19767 0.47804 0.0
O294 O 0.22563 0.23332 0.41559 0.0
C295 C 0.12001 0.18943 0.31989 0.0
N296 N 0.09922 0.18615 0.38462 0.0
C297 C 0.98603 0.18642 0.35186 0.0
C298 C 1.00572 0.18941 0.28456 0.0
C299 C 0.07312 0.18994 0.26845 0.0
C300 C 0.03459 0.1852 0.40049 0.0
H301 H 0.17182 0.19345 0.30795 0.0
C302 C 0.28533 0.23753 0.43552 0.0
O303 O 0.34295 0.0867 0.56776 0.0
O304 O 0.32456 0.04813 0.46735 0.0
N305 N 0.06808 0.18481 0.51105 0.0
C306 C 0.05894 0.17025 0.57674 0.0
C307 C 0.99545 0.15508 0.60025 0.0
C308 C 0.94234 0.15534 0.55577 0.0
C309 C 0.95387 0.1692 0.48821 0.0
C310 C 0.01827 0.18159 0.46745 0.0
H311 H 0.09994 0.16751 0.6101 0.0
O312 O 0.20131 0.03894 0.5422 0.0
O313 O 0.18069 0.11731 0.47108 0.0
O314 O 0.23119 0.16972 0.59914 0.0
O315 O 0.1856 0.24951 0.54351 0.0
C316 C 0.9042 0.17027 0.44037 0.0
C317 C 0.92014 0.18401 0.373 0.0
H318 H 0.9696 0.19045 0.24493 0.0
H319 H 0.08882 0.19233 0.21672 0.0
H320 H 0.98757 0.14274 0.65215 0.0
H321 H 0.89326 0.14335 0.57355 0.0
H322 H 0.85429 0.16028 0.45611 0.0
H323 H 0.88225 0.19193 0.33741 0.0
Mn324 Mn 0.35968 0.53063 0.75121 0.0
Mn325 Mn 0.43812 0.38563 0.75326 0.0
C326 C 0.30716 0.4339 0.70766 0.0
C327 C 0.29066 0.61486 0.79062 0.0
C328 C 0.47892 0.49882 0.6621 0.0
O329 O 0.42943 0.54376 0.82796 0.0
O330 O 0.46626 0.43905 0.83066 0.0
C331 C 0.36891 0.33333 0.87238 0.0
N332 N 0.39279 0.3246 0.80933 0.0
C333 C 0.36054 0.20982 0.80767 0.0
C334 C 0.34057 0.21582 0.87476 0.0
C335 C 0.34306 0.27851 0.90677 0.0
C336 C 0.3842 0.2667 0.77597 0.0
H337 H 0.36749 0.38211 0.89459 0.0
C338 C 0.46334 0.49776 0.8547 0.0
O339 O 0.33692 0.62564 0.7476 0.0
O340 O 0.28549 0.55512 0.81407 0.0
N341 N 0.41684 0.32567 0.68208 0.0
C342 C 0.4346 0.33053 0.61662 0.0
C343 C 0.43448 0.27341 0.576 0.0
C344 C 0.41763 0.21193 0.60352 0.0
C345 C 0.39707 0.20798 0.67078 0.0
C346 C 0.39859 0.26678 0.70861 0.0
H347 H 0.4511 0.37711 0.59609 0.0
O348 O 0.29125 0.49219 0.68725 0.0
O349 O 0.35512 0.43438 0.75012 0.0
O350 O 0.42953 0.53356 0.67753 0.0
O351 O 0.49025 0.44434 0.69134 0.0
C352 C 0.37744 0.14872 0.70319 0.0
C353 C 0.35781 0.14996 0.77085 0.0
H354 H 0.32146 0.17321 0.90138 0.0
H355 H 0.32493 0.28458 0.95747 0.0
H356 H 0.45014 0.27622 0.52426 0.0
H357 H 0.4234 0.16899 0.57185 0.0
H358 H 0.37627 0.10126 0.67818 0.0
H359 H 0.34126 0.10442 0.79413 0.0
Mn360 Mn 0.76673 0.35417 0.52686 0.0
Mn361 Mn 0.7618 0.44031 0.38468 0.0
C362 C 0.7148 0.3072 0.42983 0.0
C363 C 0.81194 0.28382 0.60748 0.0
C364 C 0.67663 0.47177 0.50571 0.0
O365 O 0.83979 0.42713 0.53962 0.0
O366 O 0.84098 0.46598 0.43455 0.0
C367 C 0.87554 0.37755 0.31696 0.0
N368 N 0.81224 0.39813 0.31603 0.0
C369 C 0.80141 0.36879 0.19981 0.0
C370 C 0.8675 0.34995 0.19836 0.0
C371 C 0.90437 0.35299 0.25769 0.0
C372 C 0.77496 0.39029 0.26091 0.0
H373 H 0.90307 0.37904 0.36275 0.0
C374 C 0.86504 0.46273 0.49305 0.0
O375 O 0.7703 0.32915 0.62178 0.0
O376 O 0.83065 0.27971 0.54514 0.0
N377 N 0.68778 0.42193 0.32948 0.0
C378 C 0.62455 0.44057 0.34058 0.0
C379 C 0.58138 0.44375 0.28674 0.0
C380 C 0.60392 0.42865 0.22211 0.0
C381 C 0.66841 0.40636 0.21178 0.0
C382 C 0.70935 0.40504 0.26751 0.0
H383 H 0.60753 0.4554 0.38962 0.0
O384 O 0.70279 0.28477 0.48888 0.0
O385 O 0.75858 0.35463 0.42942 0.0
O386 O 0.69329 0.42133 0.53789 0.0
O387 O 0.70541 0.4881 0.45133 0.0
C388 C 0.69508 0.38844 0.14869 0.0
C389 C 0.76094 0.36807 0.14307 0.0
H390 H 0.89012 0.33243 0.15228 0.0
H391 H 0.95489 0.33704 0.25761 0.0
H392 H 0.53163 0.46054 0.2946 0.0
H393 H 0.57112 0.43746 0.18168 0.0
H394 H 0.66613 0.38997 0.1039 0.0
H395 H 0.78055 0.35329 0.09478 0.0
Mn396 Mn 0.66671 1.00006 0.77192 0.0
Mn397 Mn 0.57313 0.13566 0.75817 0.0
C398 C 0.71389 0.09523 0.72655 0.0
C399 C 0.74617 0.93315 0.81921 0.0
C400 C 0.55479 0.0102 0.66926 0.0
O401 O 0.5971 0.98765 0.84809 0.0
O402 O 0.54457 0.08472 0.8371 0.0
C403 C 0.5641 0.22474 0.87385 0.0
N404 N 0.59457 0.21078 0.81441 0.0
C405 C 0.62479 0.32636 0.8039 0.0
C406 C 0.60168 0.33913 0.86861 0.0
C407 C 0.5681 0.28877 0.90225 0.0
C408 C 0.61814 0.26136 0.77723 0.0
H409 H 0.53057 0.18953 0.89571 0.0
C410 C 0.55705 0.03225 0.86941 0.0
O411 O 0.70228 0.90932 0.77828 0.0
O412 O 0.74066 0.99473 0.83822 0.0
N413 N 0.5999 0.18974 0.68566 0.0
C414 C 0.5889 0.17785 0.61925 0.0
C415 C 0.59614 0.22961 0.57429 0.0
C416 C 0.6155 0.2928 0.59782 0.0
C417 C 0.62964 0.30346 0.66564 0.0
C418 C 0.6197 0.25044 0.7088 0.0
H419 H 0.57179 0.13012 0.60067 0.0
O420 O 0.73219 0.03634 0.708 0.0
O421 O 0.66314 0.09775 0.767 0.0
O422 O 0.60219 0.97776 0.69269 0.0
O423 O 0.53963 0.06605 0.69511 0.0
C424 C 0.64786 0.36604 0.69279 0.0
C425 C 0.64481 0.37783 0.76195 0.0
H426 H 0.60344 0.38892 0.89015 0.0
H427 H 0.54273 0.30036 0.94839 0.0
H428 H 0.58466 0.22138 0.52191 0.0
H429 H 0.61612 0.33322 0.56344 0.0
H430 H 0.66235 0.40639 0.6612 0.0
H431 H 0.65289 0.42781 0.78164 0.0
Mn432 Mn 0.02693 0.25153 0.86438 0.0
Mn433 Mn 0.89528 0.22889 0.95735 0.0
C434 C 0.93068 0.20197 0.8111 0.0
C435 C 0.10933 0.30803 0.80153 0.0
C436 C 0.02138 0.16052 0.9787 0.0
O437 O 0.03566 0.31972 0.9457 0.0
O438 O 0.92955 0.31795 0.97928 0.0
C439 C 0.79376 0.32568 0.9369 0.0
N440 N 0.81167 0.26095 0.93465 0.0
C441 C 0.71082 0.22613 0.98698 0.0
C442 C 0.6921 0.29261 0.99176 0.0
C443 C 0.73243 0.3424 0.96398 0.0
C444 C 0.76995 0.2119 0.95459 0.0
H445 H 0.82806 0.36433 0.92236 0.0
C446 C 0.98714 0.34447 0.97924 0.0
O447 O 0.12178 0.26129 0.84196 0.0
O448 O 0.04769 0.32429 0.79744 0.0
N449 N 0.85861 0.14258 0.94057 0.0
C450 C 0.88788 0.08228 0.93827 0.0
C451 C 0.85143 0.0255 0.95646 0.0
C452 C 0.7868 0.03227 0.98037 0.0
C453 C 0.75816 0.09509 0.98134 0.0
C454 C 0.79451 0.14836 0.95545 0.0
H455 H 0.93872 0.0776 0.92399 0.0
O456 O 0.99 0.19306 0.78825 0.0
O457 O 0.92964 0.24008 0.86457 0.0
O458 O 0.04167 0.1692 0.91994 0.0
O459 O 0.97286 0.19216 1.00063 0.0
C460 C 0.69848 0.10848 1.01375 0.0
C461 C 0.67691 0.17439 0.01947 0.0
H462 H 0.64723 0.30605 0.01748 0.0
H463 H 0.71831 0.39388 0.96776 0.0
H464 H 0.87419 0.97737 0.9556 0.0
H465 H 0.76024 0.98933 0.99919 0.0
H466 H 0.6709 0.06922 0.038 0.0
H467 H 0.63561 0.18476 0.05131 0.0
Mn468 Mn 0.52693 0.75153 0.36438 0.0
Mn469 Mn 0.39528 0.72889 0.45735 0.0
C470 C 0.43068 0.70197 0.3111 0.0
C471 C 0.60933 0.80803 0.30153 0.0
C472 C 0.52138 0.66052 0.4787 0.0
O473 O 0.53566 0.81972 0.4457 0.0
O474 O 0.42955 0.81795 0.47928 0.0
C475 C 0.29376 0.82568 0.4369 0.0
N476 N 0.31167 0.76095 0.43465 0.0
C477 C 0.21082 0.72613 0.48698 0.0
C478 C 0.1921 0.79261 0.49176 0.0
C479 C 0.23243 0.8424 0.46398 0.0
C480 C 0.26995 0.7119 0.45459 0.0
H481 H 0.32806 0.86433 0.42236 0.0
C482 C 0.48714 0.84447 0.47924 0.0
O483 O 0.62178 0.76129 0.34196 0.0
O484 O 0.54769 0.82429 0.29744 0.0
N485 N 0.35861 0.64258 0.44057 0.0
C486 C 0.38788 0.58228 0.43827 0.0
C487 C 0.35143 0.5255 0.45646 0.0
C488 C 0.28679 0.53227 0.48037 0.0
C489 C 0.25816 0.59509 0.48134 0.0
C490 C 0.29451 0.64836 0.45545 0.0
H491 H 0.43872 0.5776 0.42399 0.0
O492 O 0.49 0.69306 0.28825 0.0
O493 O 0.42964 0.74008 0.36457 0.0
O494 O 0.54167 0.6692 0.41994 0.0
O495 O 0.47286 0.69216 0.50063 0.0
C496 C 0.19848 0.60848 0.51375 0.0
C497 C 0.17691 0.67439 0.51947 0.0
H498 H 0.14723 0.80605 0.51748 0.0
H499 H 0.21831 0.89389 0.46776 0.0
H500 H 0.37419 0.47737 0.4556 0.0
H501 H 0.26024 0.48933 0.49919 0.0
H502 H 0.1709 0.56922 0.538 0.0
H503 H 0.13561 0.68476 0.55131 0.0
Mn504 Mn 1.00486 0.77615 0.62011 0.0
Mn505 Mn 0.96049 0.64603 0.71092 0.0
C506 C 0.99212 0.67053 0.56524 0.0
C507 C 1.00201 0.88096 0.5633 0.0
C508 C 0.08596 0.72421 0.72829 0.0
O509 O 0.96254 0.81395 0.70885 0.0
O510 O 0.90827 0.72063 0.74209 0.0
C511 C 0.82073 0.60738 0.69822 0.0
N512 N 0.88533 0.59233 0.69043 0.0
C513 C 0.86103 0.47525 0.69394 0.0
C514 C 0.79421 0.48931 0.70165 0.0
C515 C 0.77371 0.55559 0.70262 0.0
C516 C 0.90513 0.52855 0.68837 0.0
H517 H 0.80571 0.6584 0.70351 0.0
C518 C 0.92179 0.78282 0.74775 0.0
O519 O 0.04946 0.86074 0.59808 0.0
O520 O 0.95199 0.83942 0.5598 0.0
N521 N 0.01085 0.57231 0.6818 0.0
C522 C 0.07557 0.56858 0.665 0.0
C523 C 0.10346 0.50614 0.65364 0.0
C524 C 0.06398 0.4486 0.65918 0.0
C525 C 0.99669 0.45463 0.67331 0.0
C526 C 0.97165 0.51811 0.68188 0.0
H527 H 0.10465 0.61287 0.65821 0.0
O528 O 0.02691 0.71862 0.53984 0.0
O529 O 0.96244 0.68661 0.621 0.0
O530 O 0.08647 0.74502 0.66926 0.0
O531 O 0.03778 0.69128 0.75049 0.0
C532 C 0.95358 0.40027 0.68002 0.0
C533 C 0.88616 0.41059 0.69339 0.0
H534 H 0.75856 0.44958 0.70744 0.0
H535 H 0.72218 0.5667 0.70921 0.0
H536 H 0.15505 0.50232 0.64095 0.0
H537 H 0.08543 0.4003 0.65117 0.0
H538 H 0.97309 0.35106 0.67585 0.0
H539 H 0.85406 0.36903 0.70386 0.0
Mn540 Mn 0.50486 0.27615 0.12011 0.0
Mn541 Mn 0.4605 0.14603 0.21092 0.0
C542 C 0.49212 0.17053 0.06524 0.0
C543 C 0.50201 0.38096 0.0633 0.0
C544 C 0.58596 0.22421 0.22829 0.0
O545 O 0.46254 0.31395 0.20885 0.0
O546 O 0.40827 0.22063 0.24209 0.0
C547 C 0.32073 0.10738 0.19822 0.0
N548 N 0.38533 0.09233 0.19043 0.0
C549 C 0.36103 0.97525 0.19394 0.0
C550 C 0.29421 0.98931 0.20165 0.0
C551 C 0.27371 0.05559 0.20262 0.0
C552 C 0.40513 0.02855 0.18837 0.0
H553 H 0.30571 0.1584 0.20351 0.0
C554 C 0.42179 0.28282 0.24775 0.0
O555 O 0.54946 0.36074 0.09808 0.0
O556 O 0.45199 0.33942 0.0598 0.0
N557 N 0.51085 0.07231 0.1818 0.0
C558 C 0.57557 0.06858 0.165 0.0
C559 C 0.60346 1.00614 0.15364 0.0
C560 C 0.56398 0.9486 0.15918 0.0
C561 C 0.49669 0.95463 0.17331 0.0
C562 C 0.47165 0.01811 0.18188 0.0
H563 H 0.60465 0.11287 0.15821 0.0
O564 O 0.52691 0.21862 0.03984 0.0
O565 O 0.46244 0.18661 0.121 0.0
O566 O 0.58647 0.24502 0.16926 0.0
O567 O 0.53778 0.19128 0.25049 0.0
C568 C 0.45358 0.90027 0.18002 0.0
C569 C 0.38616 0.91059 0.19339 0.0
H570 H 0.25856 0.94958 0.20744 0.0
H571 H 0.22218 0.0667 0.20921 0.0
H572 H 0.65505 1.00232 0.14095 0.0
H573 H 0.58543 0.9003 0.15117 0.0
H574 H 0.47309 0.85106 0.17585 0.0
H575 H 0.35406 0.86903 0.20386 0.0
loop_
_geom_bond_atom_site_label_1
_geom_bond_atom_site_label_2
_geom_bond_distance
_geom_bond_site_symmetry_2
_ccdc_geom_bond_type
H0 C3 0.931 . S
H1 C6 0.928 . S
H2 C8 0.930 . S
C3 H0 0.931 . S
C3 C4 1.413 1_655 S
C3 C5 1.360 1_655 S
C4 C3 1.413 1_455 S
C4 C8 1.429 1_554 S
C5 C3 1.360 1_455 S
C5 C6 1.372 1_545 S
C6 H1 0.928 . S
C6 C5 1.372 1_565 S
C6 C7 1.404 . S
C7 C6 1.404 . S
C7 C8 1.391 1_564 S
C8 H2 0.930 . S
C8 C4 1.429 1_556 S
C8 C7 1.391 1_546 S
H9 C12 0.931 . S
H10 C15 0.928 . S
H11 C17 0.930 . S
C12 H9 0.931 . S
C12 C13 1.413 . S
C12 C14 1.360 . S
C13 C12 1.413 . S
C13 C17 1.429 . S
C14 C12 1.360 . S
C14 C15 1.372 . S
C15 H10 0.928 . S
C15 C14 1.372 . S
C15 C16 1.404 . S
C16 C15 1.404 . S
C16 C17 1.391 . S
C17 H11 0.930 . S
C17 C13 1.429 . S
C17 C16 1.391 . S
H18 C21 0.931 . S
H19 C24 0.928 . S
H20 C26 0.930 . S
C21 H18 0.931 . S
C21 C22 1.413 . S
C21 C23 1.360 1_655 S
C22 C21 1.413 . S
C22 C26 1.429 1_554 S
C23 C21 1.360 1_455 S
C23 C24 1.372 . S
C24 H19 0.928 . S
C24 C23 1.372 . S
C24 C25 1.404 1_454 S
C25 C24 1.404 1_656 S
C25 C26 1.391 . S
C26 H20 0.930 . S
C26 C22 1.429 1_556 S
C26 C25 1.391 . S
H27 C30 0.931 . S
H28 C33 0.928 . S
H29 C35 0.930 . S
C30 H27 0.931 . S
C30 C31 1.413 . S
C30 C32 1.360 . S
C31 C30 1.413 . S
C31 C35 1.429 . S
C32 C30 1.360 . S
C32 C33 1.372 . S
C33 H28 0.928 . S
C33 C32 1.372 . S
C33 C34 1.404 . S
C34 C33 1.404 . S
C34 C35 1.391 . S
C35 H29 0.930 . S
C35 C31 1.429 . S
C35 C34 1.391 . S
H36 C39 0.931 . S
H37 C42 0.928 . S
H38 C44 0.930 . S
C39 H36 0.931 . S
C39 C40 1.413 1_655 S
C39 C41 1.360 1_655 S
C40 C39 1.413 1_455 S
C40 C44 1.429 . S
C41 C39 1.360 1_455 S
C41 C42 1.372 1_565 S
C42 H37 0.928 . S
C42 C41 1.372 1_545 S
C42 C43 1.404 . S
C43 C42 1.404 . S
C43 C44 1.391 1_545 S
C44 H38 0.930 . S
C44 C40 1.429 . S
C44 C43 1.391 1_565 S
H45 C48 0.931 . S
H46 C51 0.928 . S
H47 C53 0.930 . S
C48 H45 0.931 . S
C48 C49 1.413 . S
C48 C50 1.360 . S
C49 C48 1.413 . S
C49 C53 1.429 . S
C50 C48 1.360 . S
C50 C51 1.372 . S
C51 H46 0.928 . S
C51 C50 1.372 . S
C51 C52 1.404 . S
C52 C51 1.404 . S
C52 C53 1.391 . S
C53 H47 0.930 . S
C53 C49 1.429 . S
C53 C52 1.391 . S
H54 C57 0.931 . S
H55 C60 0.928 . S
H56 C62 0.930 . S
C57 H54 0.931 . S
C57 C58 1.413 . S
C57 C59 1.360 . S
C58 C57 1.413 . S
C58 C62 1.429 . S
C59 C57 1.360 . S
C59 C60 1.372 1_655 S
C60 H55 0.928 . S
C60 C59 1.372 1_455 S
C60 C61 1.404 . S
C61 C60 1.404 . S
C61 C62 1.391 1_455 S
C62 H56 0.930 . S
C62 C58 1.429 . S
C62 C61 1.391 1_655 S
H63 C66 0.931 . S
H64 C69 0.928 . S
H65 C71 0.930 . S
C66 H63 0.931 . S
C66 C67 1.413 . S
C66 C68 1.360 . S
C67 C66 1.413 . S
C67 C71 1.429 . S
C68 C66 1.360 . S
C68 C69 1.372 . S
C69 H64 0.928 . S
C69 C68 1.372 . S
C69 C70 1.404 . S
C70 C69 1.404 . S
C70 C71 1.391 . S
C71 H65 0.930 . S
C71 C67 1.429 . S
C71 C70 1.391 . S
H72 C75 0.931 . S
H73 C78 0.928 . S
H74 C80 0.930 . S
C75 H72 0.931 . S
C75 C76 1.413 . S
C75 C77 1.360 . S
C76 C75 1.413 . S
C76 C80 1.429 . S
C77 C75 1.360 . S
C77 C78 1.372 . S
C78 H73 0.928 . S
C78 C77 1.372 . S
C78 C79 1.404 . S
C79 C78 1.404 . S
C79 C80 1.391 . S
C80 H74 0.930 . S
C80 C76 1.429 . S
C80 C79 1.391 . S
H81 C84 0.931 . S
H82 C87 0.928 . S
H83 C89 0.930 . S
C84 H81 0.931 . S
C84 C85 1.413 . S
C84 C86 1.360 1_545 S
C85 C84 1.413 . S
C85 C89 1.429 1_545 S
C86 C84 1.360 1_565 S
C86 C87 1.372 . S
C87 H82 0.928 . S
C87 C86 1.372 . S
C87 C88 1.404 . S
C88 C87 1.404 . S
C88 C89 1.391 . S
C89 H83 0.930 . S
C89 C85 1.429 1_565 S
C89 C88 1.391 . S
H90 C93 0.931 . S
H91 C96 0.928 . S
H92 C98 0.930 . S
C93 H90 0.931 . S
C93 C94 1.413 . S
C93 C95 1.360 . S
C94 C93 1.413 . S
C94 C98 1.429 . S
C95 C93 1.360 . S
C95 C96 1.372 . S
C96 H91 0.928 . S
C96 C95 1.372 . S
C96 C97 1.404 . S
C97 C96 1.404 . S
C97 C98 1.391 . S
C98 H92 0.930 . S
C98 C94 1.429 . S
C98 C97 1.391 . S
H99 C102 0.931 . S
H100 C105 0.928 . S
H101 C107 0.930 . S
C102 H99 0.931 . S
C102 C103 1.413 . S
C102 C104 1.360 . S
C103 C102 1.413 . S
C103 C107 1.429 . S
C104 C102 1.360 . S
C104 C105 1.372 . S
C105 H100 0.928 . S
C105 C104 1.372 . S
C105 C106 1.404 . S
C106 C105 1.404 . S
C106 C107 1.391 . S
C107 H101 0.930 . S
C107 C103 1.429 . S
C107 C106 1.391 . S
H108 C111 0.931 . S
H109 C114 0.928 . S
H110 C116 0.930 . S
C111 H108 0.931 . S
C111 C112 1.413 . S
C111 C113 1.360 . S
C112 C111 1.413 . S
C112 C116 1.429 . S
C113 C111 1.360 . S
C113 C114 1.372 . S
C114 H109 0.928 . S
C114 C113 1.372 . S
C114 C115 1.404 . S
C115 C114 1.404 . S
C115 C116 1.391 . S
C116 H110 0.930 . S
C116 C112 1.429 . S
C116 C115 1.391 . S
H117 C120 0.931 . S
H118 C123 0.928 . S
H119 C125 0.930 . S
C120 H117 0.931 . S
C120 C121 1.413 1_556 S
C120 C122 1.360 . S
C121 C120 1.413 1_554 S
C121 C125 1.429 . S
C122 C120 1.360 . S
C122 C123 1.372 . S
C123 H118 0.928 . S
C123 C122 1.372 . S
C123 C124 1.404 . S
C124 C123 1.404 . S
C124 C125 1.391 1_556 S
C125 H119 0.930 . S
C125 C121 1.429 . S
C125 C124 1.391 1_554 S
H126 C129 0.931 . S
H127 C132 0.928 . S
H128 C134 0.930 . S
C129 H126 0.931 . S
C129 C130 1.413 . S
C129 C131 1.360 . S
C130 C129 1.413 . S
C130 C134 1.429 . S
C131 C129 1.360 . S
C131 C132 1.372 . S
C132 H127 0.928 . S
C132 C131 1.372 . S
C132 C133 1.404 . S
C133 C132 1.404 . S
C133 C134 1.391 . S
C134 H128 0.930 . S
C134 C130 1.429 . S
C134 C133 1.391 . S
H135 C138 0.931 . S
H136 C141 0.928 . S
H137 C143 0.930 . S
C138 H135 0.931 . S
C138 C139 1.404 1_544 S
C138 C140 1.360 . S
C139 C138 1.404 1_566 S
C139 C143 1.431 . S
C140 C138 1.360 . S
C140 C141 1.372 1_554 S
C141 H136 0.928 . S
C141 C140 1.372 1_556 S
C141 C142 1.404 . S
C142 C141 1.404 . S
C142 C143 1.391 1_545 S
C143 H137 0.930 . S
C143 C139 1.431 . S
C143 C142 1.391 1_565 S
Mn144 O149 2.095 . S
Mn144 O159 2.162 . S
Mn144 O160 2.297 . S
Mn144 O168 2.385 1_554 S
Mn144 O169 2.209 1_554 S
Mn144 O170 2.094 . S
Mn145 O150 2.121 . S
Mn145 N152 2.257 . S
Mn145 N161 2.282 . S
Mn145 O169 2.215 . S
Mn145 O171 2.117 . S
C146 O168 1.234 . S
C146 O169 1.283 . S
C147 O159 1.281 . S
C147 O160 1.236 . S
C148 O170 1.240 . S
C148 O171 1.264 1_554 S
O149 Mn144 2.095 . S
O149 C158 1.250 1_554 S
O150 Mn145 2.121 . S
O150 C158 1.258 . S
C151 N152 1.326 . S
C151 C155 1.460 . S
C151 H157 0.929 . S
N152 Mn145 2.257 . S
N152 C151 1.326 . S
N152 C156 1.362 . S
C153 C154 1.258 . S
C153 C156 1.431 . S
C153 C173 1.449 . S
C154 C153 1.258 . S
C154 C155 1.477 . S
C154 H174 0.931 . S
C155 C151 1.460 . S
C155 C154 1.477 . S
C155 H175 0.930 . S
C156 N152 1.362 . S
C156 C153 1.431 . S
C156 C166 1.476 . S
H157 C151 0.929 . S
C158 O149 1.250 1_556 S
C158 O150 1.258 . S
O159 Mn144 2.162 . S
O159 C147 1.281 . S
O160 Mn144 2.297 . S
O160 C147 1.236 . S
N161 Mn145 2.282 . S
N161 C162 1.328 . S
N161 C166 1.318 . S
C162 N161 1.328 . S
C162 C163 1.457 . S
C162 H167 0.929 . S
C163 C162 1.457 . S
C163 C164 1.291 . S
C163 H176 0.931 . S
C164 C163 1.291 . S
C164 C165 1.373 . S
C164 H177 0.929 . S
C165 C164 1.373 . S
C165 C166 1.396 . S
C165 C172 1.403 . S
C166 C156 1.476 . S
C166 N161 1.318 . S
C166 C165 1.396 . S
H167 C162 0.929 . S
O168 Mn144 2.385 1_556 S
O168 C146 1.234 . S
O169 Mn144 2.209 1_556 S
O169 Mn145 2.215 . S
O169 C146 1.283 . S
O170 Mn144 2.094 . S
O170 C148 1.240 . S
O171 Mn145 2.117 . S
O171 C148 1.264 1_556 S
C172 C165 1.403 . S
C172 C173 1.399 . S
C172 H178 0.929 . S
C173 C153 1.449 . S
C173 C172 1.399 . S
C173 H179 0.930 . S
H174 C154 0.931 . S
H175 C155 0.930 . S
H176 C163 0.931 . S
H177 C164 0.929 . S
H178 C172 0.929 . S
H179 C173 0.930 . S
Mn180 O185 2.095 . S
Mn180 O195 2.162 . S
Mn180 O196 2.297 . S
Mn180 O204 2.385 . S
Mn180 O205 2.209 . S
Mn180 O206 2.094 . S
Mn181 O186 2.121 . S
Mn181 N188 2.257 . S
Mn181 N197 2.282 . S
Mn181 O205 2.215 . S
Mn181 O207 2.117 . S
C182 O204 1.234 . S
C182 O205 1.283 . S
C183 O195 1.281 . S
C183 O196 1.236 . S
C184 O206 1.240 . S
C184 O207 1.264 . S
O185 Mn180 2.095 . S
O185 C194 1.250 . S
O186 Mn181 2.121 . S
O186 C194 1.258 . S
C187 N188 1.326 . S
C187 C191 1.460 . S
C187 H193 0.929 . S
N188 Mn181 2.257 . S
N188 C187 1.326 . S
N188 C192 1.362 . S
C189 C190 1.258 . S
C189 C192 1.431 . S
C189 C209 1.449 . S
C190 C189 1.258 . S
C190 C191 1.477 . S
C190 H210 0.931 . S
C191 C187 1.460 . S
C191 C190 1.477 . S
C191 H211 0.930 . S
C192 N188 1.362 . S
C192 C189 1.431 . S
C192 C202 1.476 . S
H193 C187 0.929 . S
C194 O185 1.250 . S
C194 O186 1.258 . S
O195 Mn180 2.162 . S
O195 C183 1.281 . S
O196 Mn180 2.297 . S
O196 C183 1.236 . S
N197 Mn181 2.282 . S
N197 C198 1.328 . S
N197 C202 1.318 . S
C198 N197 1.328 . S
C198 C199 1.457 . S
C198 H203 0.929 . S
C199 C198 1.457 . S
C199 C200 1.291 . S
C199 H212 0.931 . S
C200 C199 1.291 . S
C200 C201 1.373 . S
C200 H213 0.929 . S
C201 C200 1.373 . S
C201 C202 1.396 . S
C201 C208 1.403 . S
C202 C192 1.476 . S
C202 N197 1.318 . S
C202 C201 1.396 . S
H203 C198 0.929 . S
O204 Mn180 2.385 . S
O204 C182 1.234 . S
O205 Mn180 2.209 . S
O205 Mn181 2.215 . S
O205 C182 1.283 . S
O206 Mn180 2.094 . S
O206 C184 1.240 . S
O207 Mn181 2.117 . S
O207 C184 1.264 . S
C208 C201 1.403 . S
C208 C209 1.399 . S
C208 H214 0.929 . S
C209 C189 1.449 . S
C209 C208 1.399 . S
C209 H215 0.930 . S
H210 C190 0.931 . S
H211 C191 0.930 . S
H212 C199 0.931 . S
H213 C200 0.929 . S
H214 C208 0.929 . S
H215 C209 0.930 . S
Mn216 O221 2.095 1_554 S
Mn216 O231 2.162 . S
Mn216 O232 2.297 1_554 S
Mn216 O240 2.385 . S
Mn216 O241 2.209 1_554 S
Mn216 O242 2.094 . S
Mn217 O222 2.121 . S
Mn217 N224 2.257 . S
Mn217 N233 2.282 . S
Mn217 O241 2.215 . S
Mn217 O243 2.117 1_556 S
C218 O240 1.234 . S
C218 O241 1.283 1_554 S
C219 O231 1.281 . S
C219 O232 1.236 1_554 S
C220 O242 1.240 . S
C220 O243 1.264 . S
O221 Mn216 2.095 1_556 S
O221 C230 1.250 . S
O222 Mn217 2.121 . S
O222 C230 1.258 . S
C223 N224 1.326 . S
C223 C227 1.460 . S
C223 H229 0.929 . S
N224 Mn217 2.257 . S
N224 C223 1.326 . S
N224 C228 1.362 . S
C225 C226 1.258 . S
C225 C228 1.431 . S
C225 C245 1.449 . S
C226 C225 1.258 . S
C226 C227 1.477 . S
C226 H246 0.931 . S
C227 C223 1.460 . S
C227 C226 1.477 . S
C227 H247 0.930 . S
C228 N224 1.362 . S
C228 C225 1.431 . S
C228 C238 1.476 . S
H229 C223 0.929 . S
C230 O221 1.250 . S
C230 O222 1.258 . S
O231 Mn216 2.162 . S
O231 C219 1.281 . S
O232 Mn216 2.297 1_556 S
O232 C219 1.236 1_556 S
N233 Mn217 2.282 . S
N233 C234 1.328 1_556 S
N233 C238 1.318 . S
C234 N233 1.328 1_554 S
C234 C235 1.457 . S
C234 H239 0.929 . S
C235 C234 1.457 . S
C235 C236 1.291 . S
C235 H248 0.931 . S
C236 C235 1.291 . S
C236 C237 1.373 1_554 S
C236 H249 0.929 . S
C237 C236 1.373 1_556 S
C237 C238 1.396 . S
C237 C244 1.403 . S
C238 C228 1.476 . S
C238 N233 1.318 . S
C238 C237 1.396 . S
H239 C234 0.929 . S
O240 Mn216 2.385 . S
O240 C218 1.234 . S
O241 Mn216 2.209 1_556 S
O241 Mn217 2.215 . S
O241 C218 1.283 1_556 S
O242 Mn216 2.094 . S
O242 C220 1.240 . S
O243 Mn217 2.117 1_554 S
O243 C220 1.264 . S
C244 C237 1.403 . S
C244 C245 1.399 . S
C244 H250 0.929 . S
C245 C225 1.449 . S
C245 C244 1.399 . S
C245 H251 0.930 . S
H246 C226 0.931 . S
H247 C227 0.930 . S
H248 C235 0.931 . S
H249 C236 0.929 . S
H250 C244 0.929 . S
H251 C245 0.930 . S
Mn252 O257 2.095 . S
Mn252 O267 2.162 . S
Mn252 O268 2.297 . S
Mn252 O276 2.385 1_545 S
Mn252 O277 2.209 1_545 S
Mn252 O278 2.094 . S
Mn253 O258 2.121 . S
Mn253 N260 2.257 . S
Mn253 N269 2.282 . S
Mn253 O277 2.215 . S
Mn253 O279 2.117 . S
C254 O276 1.234 . S
C254 O277 1.283 . S
C255 O267 1.281 . S
C255 O268 1.236 . S
C256 O278 1.240 . S
C256 O279 1.264 1_545 S
O257 Mn252 2.095 . S
O257 C266 1.250 1_545 S
O258 Mn253 2.121 . S
O258 C266 1.258 . S
C259 N260 1.326 . S
C259 C263 1.460 . S
C259 H265 0.929 . S
N260 Mn253 2.257 . S
N260 C259 1.326 . S
N260 C264 1.362 . S
C261 C262 1.258 . S
C261 C264 1.431 . S
C261 C281 1.449 . S
C262 C261 1.258 . S
C262 C263 1.477 . S
C262 H282 0.931 . S
C263 C259 1.460 . S
C263 C262 1.477 . S
C263 H283 0.930 . S
C264 N260 1.362 . S
C264 C261 1.431 . S
C264 C274 1.476 . S
H265 C259 0.929 . S
C266 O257 1.250 1_565 S
C266 O258 1.258 . S
O267 Mn252 2.162 . S
O267 C255 1.281 . S
O268 Mn252 2.297 . S
O268 C255 1.236 . S
N269 Mn253 2.282 . S
N269 C270 1.328 . S
N269 C274 1.318 . S
C270 N269 1.328 . S
C270 C271 1.457 . S
C270 H275 0.929 . S
C271 C270 1.457 . S
C271 C272 1.291 . S
C271 H284 0.931 . S
C272 C271 1.291 . S
C272 C273 1.373 . S
C272 H285 0.929 . S
C273 C272 1.373 . S
C273 C274 1.396 . S
C273 C280 1.403 . S
C274 C264 1.476 . S
C274 N269 1.318 . S
C274 C273 1.396 . S
H275 C270 0.929 . S
O276 Mn252 2.385 1_565 S
O276 C254 1.234 . S
O277 Mn252 2.209 1_565 S
O277 Mn253 2.215 . S
O277 C254 1.283 . S
O278 Mn252 2.094 . S
O278 C256 1.240 . S
O279 Mn253 2.117 . S
O279 C256 1.264 1_565 S
C280 C273 1.403 . S
C280 C281 1.399 . S
C280 H286 0.929 . S
C281 C261 1.449 . S
C281 C280 1.399 . S
C281 H287 0.930 . S
H282 C262 0.931 . S
H283 C263 0.930 . S
H284 C271 0.931 . S
H285 C272 0.929 . S
H286 C280 0.929 . S
H287 C281 0.930 . S
Mn288 O293 2.095 . S
Mn288 O303 2.162 . S
Mn288 O304 2.297 . S
Mn288 O312 2.385 . S
Mn288 O313 2.209 . S
Mn288 O314 2.094 . S
Mn289 O294 2.121 . S
Mn289 N296 2.257 . S
Mn289 N305 2.282 . S
Mn289 O313 2.215 . S
Mn289 O315 2.117 . S
C290 O312 1.234 . S
C290 O313 1.283 . S
C291 O303 1.281 . S
C291 O304 1.236 . S
C292 O314 1.240 . S
C292 O315 1.264 . S
O293 Mn288 2.095 . S
O293 C302 1.250 . S
O294 Mn289 2.121 . S
O294 C302 1.258 . S
C295 N296 1.326 . S
C295 C299 1.460 . S
C295 H301 0.929 . S
N296 Mn289 2.257 . S
N296 C295 1.326 . S
N296 C300 1.362 . S
C297 C298 1.258 . S
C297 C300 1.431 1_655 S
C297 C317 1.449 . S
C298 C297 1.258 . S
C298 C299 1.477 1_655 S
C298 H318 0.931 . S
C299 C295 1.460 . S
C299 C298 1.477 1_455 S
C299 H319 0.930 . S
C300 N296 1.362 . S
C300 C297 1.431 1_455 S
C300 C310 1.476 . S
H301 C295 0.929 . S
C302 O293 1.250 . S
C302 O294 1.258 . S
O303 Mn288 2.162 . S
O303 C291 1.281 . S
O304 Mn288 2.297 . S
O304 C291 1.236 . S
N305 Mn289 2.282 . S
N305 C306 1.328 . S
N305 C310 1.318 . S
C306 N305 1.328 . S
C306 C307 1.457 1_455 S
C306 H311 0.929 . S
C307 C306 1.457 1_655 S
C307 C308 1.291 . S
C307 H320 0.931 . S
C308 C307 1.291 . S
C308 C309 1.373 . S
C308 H321 0.929 . S
C309 C308 1.373 . S
C309 C310 1.396 1_655 S
C309 C316 1.403 . S
C310 C300 1.476 . S
C310 N305 1.318 . S
C310 C309 1.396 1_455 S
H311 C306 0.929 . S
O312 Mn288 2.385 . S
O312 C290 1.234 . S
O313 Mn288 2.209 . S
O313 Mn289 2.215 . S
O313 C290 1.283 . S
O314 Mn288 2.094 . S
O314 C292 1.240 . S
O315 Mn289 2.117 . S
O315 C292 1.264 . S
C316 C309 1.403 . S
C316 C317 1.399 . S
C316 H322 0.929 . S
C317 C297 1.449 . S
C317 C316 1.399 . S
C317 H323 0.930 . S
H318 C298 0.931 . S
H319 C299 0.930 . S
H320 C307 0.931 . S
H321 C308 0.929 . S
H322 C316 0.929 . S
H323 C317 0.930 . S
Mn324 O329 2.095 . S
Mn324 O339 2.162 . S
Mn324 O340 2.297 . S
Mn324 O348 2.385 . S
Mn324 O349 2.209 . S
Mn324 O350 2.094 . S
Mn325 O330 2.121 . S
Mn325 N332 2.257 . S
Mn325 N341 2.282 . S
Mn325 O349 2.215 . S
Mn325 O351 2.117 . S
C326 O348 1.234 . S
C326 O349 1.283 . S
C327 O339 1.281 . S
C327 O340 1.236 . S
C328 O350 1.240 . S
C328 O351 1.264 . S
O329 Mn324 2.095 . S
O329 C338 1.250 . S
O330 Mn325 2.121 . S
O330 C338 1.258 . S
C331 N332 1.326 . S
C331 C335 1.460 . S
C331 H337 0.929 . S
N332 Mn325 2.257 . S
N332 C331 1.326 . S
N332 C336 1.362 . S
C333 C334 1.258 . S
C333 C336 1.431 . S
C333 C353 1.449 . S
C334 C333 1.258 . S
C334 C335 1.477 . S
C334 H354 0.931 . S
C335 C331 1.460 . S
C335 C334 1.477 . S
C335 H355 0.930 . S
C336 N332 1.362 . S
C336 C333 1.431 . S
C336 C346 1.476 . S
H337 C331 0.929 . S
C338 O329 1.250 . S
C338 O330 1.258 . S
O339 Mn324 2.162 . S
O339 C327 1.281 . S
O340 Mn324 2.297 . S
O340 C327 1.236 . S
N341 Mn325 2.282 . S
N341 C342 1.328 . S
N341 C346 1.318 . S
C342 N341 1.328 . S
C342 C343 1.457 . S
C342 H347 0.929 . S
C343 C342 1.457 . S
C343 C344 1.291 . S
C343 H356 0.931 . S
C344 C343 1.291 . S
C344 C345 1.373 . S
C344 H357 0.929 . S
C345 C344 1.373 . S
C345 C346 1.396 . S
C345 C352 1.403 . S
C346 C336 1.476 . S
C346 N341 1.318 . S
C346 C345 1.396 . S
H347 C342 0.929 . S
O348 Mn324 2.385 . S
O348 C326 1.234 . S
O349 Mn324 2.209 . S
O349 Mn325 2.215 . S
O349 C326 1.283 . S
O350 Mn324 2.094 . S
O350 C328 1.240 . S
O351 Mn325 2.117 . S
O351 C328 1.264 . S
C352 C345 1.403 . S
C352 C353 1.399 . S
C352 H358 0.929 . S
C353 C333 1.449 . S
C353 C352 1.399 . S
C353 H359 0.930 . S
H354 C334 0.931 . S
H355 C335 0.930 . S
H356 C343 0.931 . S
H357 C344 0.929 . S
H358 C352 0.929 . S
H359 C353 0.930 . S
Mn360 O365 2.095 . S
Mn360 O375 2.162 . S
Mn360 O376 2.297 . S
Mn360 O384 2.385 . S
Mn360 O385 2.209 . S
Mn360 O386 2.094 . S
Mn361 O366 2.121 . S
Mn361 N368 2.257 . S
Mn361 N377 2.282 . S
Mn361 O385 2.215 . S
Mn361 O387 2.117 . S
C362 O384 1.234 . S
C362 O385 1.283 . S
C363 O375 1.281 . S
C363 O376 1.236 . S
C364 O386 1.240 . S
C364 O387 1.264 . S
O365 Mn360 2.095 . S
O365 C374 1.250 . S
O366 Mn361 2.121 . S
O366 C374 1.258 . S
C367 N368 1.326 . S
C367 C371 1.460 . S
C367 H373 0.929 . S
N368 Mn361 2.257 . S
N368 C367 1.326 . S
N368 C372 1.362 . S
C369 C370 1.258 . S
C369 C372 1.431 . S
C369 C389 1.449 . S
C370 C369 1.258 . S
C370 C371 1.477 . S
C370 H390 0.931 . S
C371 C367 1.460 . S
C371 C370 1.477 . S
C371 H391 0.930 . S
C372 N368 1.362 . S
C372 C369 1.431 . S
C372 C382 1.476 . S
H373 C367 0.929 . S
C374 O365 1.250 . S
C374 O366 1.258 . S
O375 Mn360 2.162 . S
O375 C363 1.281 . S
O376 Mn360 2.297 . S
O376 C363 1.236 . S
N377 Mn361 2.282 . S
N377 C378 1.328 . S
N377 C382 1.318 . S
C378 N377 1.328 . S
C378 C379 1.457 . S
C378 H383 0.929 . S
C379 C378 1.457 . S
C379 C380 1.291 . S
C379 H392 0.931 . S
C380 C379 1.291 . S
C380 C381 1.373 . S
C380 H393 0.929 . S
C381 C380 1.373 . S
C381 C382 1.396 . S
C381 C388 1.403 . S
C382 C372 1.476 . S
C382 N377 1.318 . S
C382 C381 1.396 . S
H383 C378 0.929 . S
O384 Mn360 2.385 . S
O384 C362 1.234 . S
O385 Mn360 2.209 . S
O385 Mn361 2.215 . S
O385 C362 1.283 . S
O386 Mn360 2.094 . S
O386 C364 1.240 . S
O387 Mn361 2.117 . S
O387 C364 1.264 . S
C388 C381 1.403 . S
C388 C389 1.399 . S
C388 H394 0.929 . S
C389 C369 1.449 . S
C389 C388 1.399 . S
C389 H395 0.930 . S
H390 C370 0.931 . S
H391 C371 0.930 . S
H392 C379 0.931 . S
H393 C380 0.929 . S
H394 C388 0.929 . S
H395 C389 0.930 . S
Mn396 O401 2.095 . S
Mn396 O411 2.162 . S
Mn396 O412 2.297 . S
Mn396 O420 2.385 1_565 S
Mn396 O421 2.209 1_565 S
Mn396 O422 2.094 . S
Mn397 O402 2.121 . S
Mn397 N404 2.257 . S
Mn397 N413 2.282 . S
Mn397 O421 2.215 . S
Mn397 O423 2.117 . S
C398 O420 1.234 . S
C398 O421 1.283 . S
C399 O411 1.281 . S
C399 O412 1.236 . S
C400 O422 1.240 1_545 S
C400 O423 1.264 . S
O401 Mn396 2.095 . S
O401 C410 1.250 1_565 S
O402 Mn397 2.121 . S
O402 C410 1.258 . S
C403 N404 1.326 . S
C403 C407 1.460 . S
C403 H409 0.929 . S
N404 Mn397 2.257 . S
N404 C403 1.326 . S
N404 C408 1.362 . S
C405 C406 1.258 . S
C405 C408 1.431 . S
C405 C425 1.449 . S
C406 C405 1.258 . S
C406 C407 1.477 . S
C406 H426 0.931 . S
C407 C403 1.460 . S
C407 C406 1.477 . S
C407 H427 0.930 . S
C408 N404 1.362 . S
C408 C405 1.431 . S
C408 C418 1.476 . S
H409 C403 0.929 . S
C410 O401 1.250 1_545 S
C410 O402 1.258 . S
O411 Mn396 2.162 . S
O411 C399 1.281 . S
O412 Mn396 2.297 . S
O412 C399 1.236 . S
N413 Mn397 2.282 . S
N413 C414 1.328 . S
N413 C418 1.318 . S
C414 N413 1.328 . S
C414 C415 1.457 . S
C414 H419 0.929 . S
C415 C414 1.457 . S
C415 C416 1.291 . S
C415 H428 0.931 . S
C416 C415 1.291 . S
C416 C417 1.373 . S
C416 H429 0.929 . S
C417 C416 1.373 . S
C417 C418 1.396 . S
C417 C424 1.403 . S
C418 C408 1.476 . S
C418 N413 1.318 . S
C418 C417 1.396 . S
H419 C414 0.929 . S
O420 Mn396 2.385 1_545 S
O420 C398 1.234 . S
O421 Mn396 2.209 1_545 S
O421 Mn397 2.215 . S
O421 C398 1.283 . S
O422 Mn396 2.094 . S
O422 C400 1.240 1_565 S
O423 Mn397 2.117 . S
O423 C400 1.264 . S
C424 C417 1.403 . S
C424 C425 1.399 . S
C424 H430 0.929 . S
C425 C405 1.449 . S
C425 C424 1.399 . S
C425 H431 0.930 . S
H426 C406 0.931 . S
H427 C407 0.930 . S
H428 C415 0.931 . S
H429 C416 0.929 . S
H430 C424 0.929 . S
H431 C425 0.930 . S
Mn432 O437 2.095 . S
Mn432 O447 2.162 . S
Mn432 O448 2.297 . S
Mn432 O456 2.385 1_455 S
Mn432 O457 2.209 1_455 S
Mn432 O458 2.094 . S
Mn433 O438 2.121 . S
Mn433 N440 2.257 . S
Mn433 N449 2.282 . S
Mn433 O457 2.215 . S
Mn433 O459 2.117 . S
C434 O456 1.234 . S
C434 O457 1.283 . S
C435 O447 1.281 . S
C435 O448 1.236 . S
C436 O458 1.240 . S
C436 O459 1.264 1_455 S
O437 Mn432 2.095 . S
O437 C446 1.250 1_455 S
O438 Mn433 2.121 . S
O438 C446 1.258 . S
C439 N440 1.326 . S
C439 C443 1.460 . S
C439 H445 0.929 . S
N440 Mn433 2.257 . S
N440 C439 1.326 . S
N440 C444 1.362 . S
C441 C442 1.258 . S
C441 C444 1.431 . S
C441 C461 1.449 . S
C442 C441 1.258 . S
C442 C443 1.477 . S
C442 H462 0.931 . S
C443 C439 1.460 . S
C443 C442 1.477 . S
C443 H463 0.930 . S
C444 N440 1.362 . S
C444 C441 1.431 . S
C444 C454 1.476 . S
H445 C439 0.929 . S
C446 O437 1.250 1_655 S
C446 O438 1.258 . S
O447 Mn432 2.162 . S
O447 C435 1.281 . S
O448 Mn432 2.297 . S
O448 C435 1.236 . S
N449 Mn433 2.282 . S
N449 C450 1.328 . S
N449 C454 1.318 . S
C450 N449 1.328 . S
C450 C451 1.457 . S
C450 H455 0.929 . S
C451 C450 1.457 . S
C451 C452 1.291 . S
C451 H464 0.931 1_545 S
C452 C451 1.291 . S
C452 C453 1.373 . S
C452 H465 0.929 . S
C453 C452 1.373 . S
C453 C454 1.396 . S
C453 C460 1.403 . S
C454 C444 1.476 . S
C454 N449 1.318 . S
C454 C453 1.396 . S
H455 C450 0.929 . S
O456 Mn432 2.385 1_655 S
O456 C434 1.234 . S
O457 Mn432 2.209 1_655 S
O457 Mn433 2.215 . S
O457 C434 1.283 . S
O458 Mn432 2.094 . S
O458 C436 1.240 . S
O459 Mn433 2.117 . S
O459 C436 1.264 1_655 S
C460 C453 1.403 . S
C460 C461 1.399 . S
C460 H466 0.929 . S
C461 C441 1.449 . S
C461 C460 1.399 . S
C461 H467 0.930 . S
H462 C442 0.931 . S
H463 C443 0.930 . S
H464 C451 0.931 1_565 S
H465 C452 0.929 . S
H466 C460 0.929 . S
H467 C461 0.930 . S
Mn468 O473 2.095 . S
Mn468 O483 2.162 . S
Mn468 O484 2.297 . S
Mn468 O492 2.385 . S
Mn468 O493 2.209 . S
Mn468 O494 2.094 . S
Mn469 O474 2.121 . S
Mn469 N476 2.257 . S
Mn469 N485 2.282 . S
Mn469 O493 2.215 . S
Mn469 O495 2.117 . S
C470 O492 1.234 . S
C470 O493 1.283 . S
C471 O483 1.281 . S
C471 O484 1.236 . S
C472 O494 1.240 . S
C472 O495 1.264 . S
O473 Mn468 2.095 . S
O473 C482 1.250 . S
O474 Mn469 2.121 . S
O474 C482 1.258 . S
C475 N476 1.326 . S
C475 C479 1.460 . S
C475 H481 0.929 . S
N476 Mn469 2.257 . S
N476 C475 1.326 . S
N476 C480 1.362 . S
C477 C478 1.258 . S
C477 C480 1.431 . S
C477 C497 1.449 . S
C478 C477 1.258 . S
C478 C479 1.477 . S
C478 H498 0.931 . S
C479 C475 1.460 . S
C479 C478 1.477 . S
C479 H499 0.930 . S
C480 N476 1.362 . S
C480 C477 1.431 . S
C480 C490 1.476 . S
H481 C475 0.929 . S
C482 O473 1.250 . S
C482 O474 1.258 . S
O483 Mn468 2.162 . S
O483 C471 1.281 . S
O484 Mn468 2.297 . S
O484 C471 1.236 . S
N485 Mn469 2.282 . S
N485 C486 1.328 . S
N485 C490 1.318 . S
C486 N485 1.328 . S
C486 C487 1.457 . S
C486 H491 0.929 . S
C487 C486 1.457 . S
C487 C488 1.291 . S
C487 H500 0.931 . S
C488 C487 1.291 . S
C488 C489 1.373 . S
C488 H501 0.929 . S
C489 C488 1.373 . S
C489 C490 1.396 . S
C489 C496 1.403 . S
C490 C480 1.476 . S
C490 N485 1.318 . S
C490 C489 1.396 . S
H491 C486 0.929 . S
O492 Mn468 2.385 . S
O492 C470 1.234 . S
O493 Mn468 2.209 . S
O493 Mn469 2.215 . S
O493 C470 1.283 . S
O494 Mn468 2.094 . S
O494 C472 1.240 . S
O495 Mn469 2.117 . S
O495 C472 1.264 . S
C496 C489 1.403 . S
C496 C497 1.399 . S
C496 H502 0.929 . S
C497 C477 1.449 . S
C497 C496 1.399 . S
C497 H503 0.930 . S
H498 C478 0.931 . S
H499 C479 0.930 . S
H500 C487 0.931 . S
H501 C488 0.929 . S
H502 C496 0.929 . S
H503 C497 0.930 . S
Mn504 O509 2.095 1_455 S
Mn504 O519 2.162 . S
Mn504 O520 2.297 1_455 S
Mn504 O528 2.385 . S
Mn504 O529 2.209 1_455 S
Mn504 O530 2.094 . S
Mn505 O510 2.121 . S
Mn505 N512 2.257 . S
Mn505 N521 2.284 . S
Mn505 O529 2.215 . S
Mn505 O531 2.117 1_655 S
C506 O528 1.234 . S
C506 O529 1.283 1_455 S
C507 O519 1.281 . S
C507 O520 1.236 1_455 S
C508 O530 1.240 . S
C508 O531 1.264 . S
O509 Mn504 2.095 1_655 S
O509 C518 1.250 . S
O510 Mn505 2.121 . S
O510 C518 1.258 . S
C511 N512 1.326 . S
C511 C515 1.460 . S
C511 H517 0.929 . S
N512 Mn505 2.257 . S
N512 C511 1.326 . S
N512 C516 1.362 . S
C513 C514 1.258 . S
C513 C516 1.431 . S
C513 C533 1.449 . S
C514 C513 1.258 . S
C514 C515 1.477 . S
C514 H534 0.931 . S
C515 C511 1.460 . S
C515 C514 1.477 . S
C515 H535 0.930 . S
C516 N512 1.362 . S
C516 C513 1.431 . S
C516 C526 1.476 . S
H517 C511 0.929 . S
C518 O509 1.250 . S
C518 O510 1.258 . S
O519 Mn504 2.162 . S
O519 C507 1.281 . S
O520 Mn504 2.297 1_655 S
O520 C507 1.236 1_655 S
N521 Mn505 2.284 . S
N521 C522 1.324 1_655 S
N521 C526 1.320 . S
C522 N521 1.324 1_455 S
C522 C523 1.457 . S
C522 H527 0.929 . S
C523 C522 1.457 . S
C523 C524 1.291 . S
C523 H536 0.931 . S
C524 C523 1.291 . S
C524 C525 1.373 1_455 S
C524 H537 0.929 . S
C525 C524 1.373 1_655 S
C525 C526 1.396 . S
C525 C532 1.403 . S
C526 C516 1.476 . S
C526 N521 1.320 . S
C526 C525 1.396 . S
H527 C522 0.929 . S
O528 Mn504 2.385 . S
O528 C506 1.234 . S
O529 Mn504 2.209 1_655 S
O529 Mn505 2.215 . S
O529 C506 1.283 1_655 S
O530 Mn504 2.094 . S
O530 C508 1.240 . S
O531 Mn505 2.117 1_455 S
O531 C508 1.264 . S
C532 C525 1.403 . S
C532 C533 1.399 . S
C532 H538 0.929 . S
C533 C513 1.449 . S
C533 C532 1.399 . S
C533 H539 0.930 . S
H534 C514 0.931 . S
H535 C515 0.930 . S
H536 C523 0.931 . S
H537 C524 0.929 . S
H538 C532 0.929 . S
H539 C533 0.930 . S
Mn540 O545 2.095 . S
Mn540 O555 2.162 . S
Mn540 O556 2.297 . S
Mn540 O564 2.385 . S
Mn540 O565 2.209 . S
Mn540 O566 2.094 . S
Mn541 O546 2.121 . S
Mn541 N548 2.257 . S
Mn541 N557 2.282 . S
Mn541 O565 2.215 . S
Mn541 O567 2.117 . S
C542 O564 1.234 . S
C542 O565 1.283 . S
C543 O555 1.281 . S
C543 O556 1.236 . S
C544 O566 1.240 . S
C544 O567 1.264 . S
O545 Mn540 2.095 . S
O545 C554 1.250 . S
O546 Mn541 2.121 . S
O546 C554 1.258 . S
C547 N548 1.326 . S
C547 C551 1.460 . S
C547 H553 0.929 . S
N548 Mn541 2.257 . S
N548 C547 1.326 . S
N548 C552 1.362 . S
C549 C550 1.258 . S
C549 C552 1.431 1_565 S
C549 C569 1.449 . S
C550 C549 1.258 . S
C550 C551 1.477 1_565 S
C550 H570 0.931 . S
C551 C547 1.460 . S
C551 C550 1.477 1_545 S
C551 H571 0.930 . S
C552 N548 1.362 . S
C552 C549 1.431 1_545 S
C552 C562 1.476 1_545 S
H553 C547 0.929 . S
C554 O545 1.250 . S
C554 O546 1.258 . S
O555 Mn540 2.162 . S
O555 C543 1.281 . S
O556 Mn540 2.297 . S
O556 C543 1.236 . S
N557 Mn541 2.282 . S
N557 C558 1.328 . S
N557 C562 1.318 1_545 S
C558 N557 1.328 . S
C558 C559 1.457 1_545 S
C558 H563 0.929 . S
C559 C558 1.457 1_565 S
C559 C560 1.291 . S
C559 H572 0.931 . S
C560 C559 1.291 . S
C560 C561 1.373 . S
C560 H573 0.929 . S
C561 C560 1.373 . S
C561 C562 1.396 . S
C561 C568 1.403 . S
C562 C552 1.476 1_565 S
C562 N557 1.318 1_565 S
C562 C561 1.396 . S
H563 C558 0.929 . S
O564 Mn540 2.385 . S
O564 C542 1.234 . S
O565 Mn540 2.209 . S
O565 Mn541 2.215 . S
O565 C542 1.283 . S
O566 Mn540 2.094 . S
O566 C544 1.240 . S
O567 Mn541 2.117 . S
O567 C544 1.264 . S
C568 C561 1.403 . S
C568 C569 1.399 . S
C568 H574 0.929 . S
C569 C549 1.449 . S
C569 C568 1.399 . S
C569 H575 0.930 . S
H570 C550 0.931 . S
H571 C551 0.930 . S
H572 C559 0.931 . S
H573 C560 0.929 . S
H574 C568 0.929 . S
H575 C569 0.930 . S
C146 C50 1.437 . S
C194 C61 1.602 . S
C67 C230 1.363 . S
C266 C41 1.521 1_655 S
C292 C95 1.482 . S
C328 C113 1.554 . S
C106 C363 1.540 . S
C400 C86 1.627 1_545 S
C104 C434 1.451 . S
C482 C88 1.536 . S
C94 C435 1.466 . S
C472 C112 1.602 . S
C70 C518 1.411 . S
C40 C507 1.590 . S
C49 C508 1.524 . S
C59 C506 1.640 1_655 S
C34 C254 1.438 . S
C133 C255 1.471 . S
C158 C139 1.576 . S
C183 C77 1.539 . S
C43 C290 1.607 . S
C398 C103 1.496 . S
C291 C85 1.564 . S
C364 C115 1.586 . S
C362 C131 1.437 . S
C142 C410 1.602 . S
C76 C302 1.363 . S
C338 C122 1.521 . S
C32 C220 1.481 . S
C256 C5 1.554 1_655 S
C147 C16 1.540 . S
C184 C23 1.627 . S
C14 C470 1.451 . S
C25 C446 1.536 . S
C31 C471 1.466 . S
C4 C436 1.602 1_554 S
C554 C79 1.411 . S
C543 C121 1.590 . S
C544 C130 1.523 . S
C140 C542 1.640 . S
C97 C326 1.438 . S
C327 C52 1.471 . S
C374 C58 1.572 . S
C399 C68 1.539 . S
C124 C218 1.607 1_556 S
C182 C13 1.496 . S
C22 C219 1.565 . S
C148 C7 1.586 . S
