# Generated by pormake.
# Topology anh, (6,3)-cn, num edge types: 1
# Building blocks:
#     Node 0, Type 0, BuildingBlock: GEDQOX_clean_sbu_0, # of connection points: 6
#     Node 1, Type 0, BuildingBlock: GEDQOX_clean_sbu_0, # of connection points: 6
#     Node 2, Type 0, BuildingBlock: GEDQOX_clean_sbu_0, # of connection points: 6
#     Node 3, Type 1, BuildingBlock: BELTOD_clean_linker_0, # of connection points: 3
#     Node 4, Type 1, BuildingBlock: BELTOD_clean_linker_0, # of connection points: 3
#     Node 5, Type 1, BuildingBlock: BELTOD_clean_linker_0, # of connection points: 3
#     Node 6, Type 1, BuildingBlock: BELTOD_clean_linker_0, # of connection points: 3
#     Node 7, Type 1, BuildingBlock: BELTOD_clean_linker_0, # of connection points: 3
#     Node 8, Type 1, BuildingBlock: BELTOD_clean_linker_0, # of connection points: 3
#     Edge 9, Type (0, 1), BuildingBlock: KIFKEQ_clean_linker_1, # of connection points: 2
#     Edge 10, Type (0, 1), BuildingBlock: KIFKEQ_clean_linker_1, # of connection points: 2
#     Edge 11, Type (0, 1), BuildingBlock: KIFKEQ_clean_linker_1, # of connection points: 2
#     Edge 12, Type (0, 1), BuildingBlock: KIFKEQ_clean_linker_1, # of connection points: 2
#     Edge 13, Type (0, 1), BuildingBlock: KIFKEQ_clean_linker_1, # of connection points: 2
#     Edge 14, Type (0, 1), BuildingBlock: KIFKEQ_clean_linker_1, # of connection points: 2
#     Edge 15, Type (0, 1), BuildingBlock: KIFKEQ_clean_linker_1, # of connection points: 2
#     Edge 16, Type (0, 1), BuildingBlock: KIFKEQ_clean_linker_1, # of connection points: 2
#     Edge 17, Type (0, 1), BuildingBlock: KIFKEQ_clean_linker_1, # of connection points: 2
#     Edge 18, Type (0, 1), BuildingBlock: KIFKEQ_clean_linker_1, # of connection points: 2
#     Edge 19, Type (0, 1), BuildingBlock: KIFKEQ_clean_linker_1, # of connection points: 2
#     Edge 20, Type (0, 1), BuildingBlock: KIFKEQ_clean_linker_1, # of connection points: 2
#     Edge 21, Type (0, 1), BuildingBlock: KIFKEQ_clean_linker_1, # of connection points: 2
#     Edge 22, Type (0, 1), BuildingBlock: KIFKEQ_clean_linker_1, # of connection points: 2
#     Edge 23, Type (0, 1), BuildingBlock: KIFKEQ_clean_linker_1, # of connection points: 2
#     Edge 24, Type (0, 1), BuildingBlock: KIFKEQ_clean_linker_1, # of connection points: 2
#     Edge 25, Type (0, 1), BuildingBlock: KIFKEQ_clean_linker_1, # of connection points: 2
#     Edge 26, Type (0, 1), BuildingBlock: KIFKEQ_clean_linker_1, # of connection points: 2
# Relax obj value: 0.174
# Max RMSD: 0.208
# Mean RMSD: 0.149
data_MOF--net-anh--node1-GEDQOX_clean_sbu_0--node2-BELTOD_clean_linker_0--edge1-KIFKEQ_clean_linker_1
_symmetry_space_group_name_H-M    P1
_symmetry_Int_Tables_number       1
_symmetry_cell_setting            triclinic
loop_
_symmetry_equiv_pos_as_xyz
'x, y, z'
_cell_length_a     34.922819
_cell_length_b     33.898949
_cell_length_c     61.343873
_cell_angle_alpha  93.69742
_cell_angle_beta   91.066862
_cell_angle_gamma 104.51354
loop_
_atom_site_label
_atom_site_type_symbol
_atom_site_fract_x
_atom_site_fract_y
_atom_site_fract_z
_atom_type_partial_charge
Nd0 Nd 0.08358 0.56394 0.15058 0.0
Nd1 Nd 1.06149 0.47159 0.15023 0.0
C2 C 0.11622 0.64119 0.1437 0.0
C3 C 0.15411 0.67092 0.15005 0.0
C4 C 0.17463 0.69595 0.1345 0.0
C5 C 0.21106 0.72359 0.14013 0.0
C6 C 0.22752 0.72687 0.16148 0.0
C7 C 0.20686 0.70171 0.17702 0.0
C8 C 0.17064 0.67387 0.17134 0.0
C9 C 0.071 0.5347 0.19117 0.0
C10 C 0.15518 0.51376 0.15155 0.0
C11 C 1.03044 0.3937 0.15656 0.0
C12 C 0.99235 0.36669 0.16234 0.0
C13 C 0.97074 0.37742 0.17988 0.0
C14 C 0.93569 0.35036 0.18567 0.0
C15 C 0.92138 0.31228 0.17391 0.0
C16 C 0.94263 0.30211 0.15606 0.0
C17 C 0.97782 0.329 0.1504 0.0
C18 C 0.07668 0.50353 0.11032 0.0
C19 C 0.99057 0.52066 0.14857 0.0
O20 O 0.11828 0.61072 0.12994 0.0
O21 O 0.09164 0.62997 0.15931 0.0
O22 O 1.06055 0.56666 0.18529 0.0
O23 O 0.08931 0.52062 0.1763 0.0
O24 O 0.14478 0.54779 0.1476 0.0
O25 O 0.12834 0.48017 0.1556 0.0
O26 O 1.04979 0.4204 0.17183 0.0
O27 O 1.03185 0.4083 0.13729 0.0
O28 O 0.08942 0.47282 0.11625 0.0
O29 O 1.05641 0.51508 0.12495 0.0
O30 O 1.00187 0.48934 0.15606 0.0
O31 O 1.0171 0.55198 0.14155 0.0
H32 H 0.16251 0.69399 0.11796 0.0
H33 H 0.22615 0.74271 0.12784 0.0
H34 H 0.21905 0.70305 0.19349 0.0
H35 H 0.15572 0.65448 0.18358 0.0
H36 H 0.98107 0.4065 0.18926 0.0
H37 H 0.91975 0.35926 0.19934 0.0
H38 H 0.93261 0.27287 0.14681 0.0
H39 H 0.99401 0.32009 0.13683 0.0
Nd40 Nd 0.51311 0.96849 0.52354 0.0
Nd41 Nd 0.60706 0.99158 0.51704 0.0
C42 C 0.44235 0.94163 0.53928 0.0
C43 C 0.40769 0.90783 0.53238 0.0
C44 C 0.38683 0.88326 0.548 0.0
C45 C 0.35583 0.84921 0.5415 0.0
C46 C 0.34502 0.83923 0.51923 0.0
C47 C 0.36563 0.86432 0.50365 0.0
C48 C 0.39676 0.89813 0.51014 0.0
C49 C 0.52961 0.96749 0.4795 0.0
C50 C 0.56187 0.89617 0.51571 0.0
C51 C 0.68159 0.02315 0.50767 0.0
C52 C 0.70728 0.06189 0.50126 0.0
C53 C 0.69492 0.08499 0.48559 0.0
C54 C 0.72 0.12208 0.48026 0.0
C55 C 0.75759 0.13684 0.49072 0.0
C56 C 0.76962 0.1136 0.50644 0.0
C57 C 0.74476 0.07651 0.5116 0.0
C58 C 0.5815 0.97467 0.55822 0.0
C59 C 0.55884 0.0643 0.52205 0.0
O60 O 0.47358 0.93059 0.54627 0.0
O61 O 0.45108 0.97228 0.52666 0.0
O62 O 0.49386 0.95906 0.4865 0.0
O63 O 0.55324 0.97523 0.4957 0.0
O64 O 0.53142 0.90755 0.52436 0.0
O65 O 0.5927 0.92266 0.50834 0.0
O66 O 0.65509 1.00155 0.49326 0.0
O67 O 0.66849 0.02387 0.5275 0.0
O68 O 0.61119 0.96333 0.54975 0.0
O69 O 0.56725 0.99527 0.54533 0.0
O70 O 0.58972 0.05248 0.51434 0.0
O71 O 0.52759 0.03833 0.52937 0.0
H72 H 0.39495 0.89004 0.56522 0.0
H73 H 0.34035 0.83065 0.5539 0.0
H74 H 0.35846 0.85714 0.48636 0.0
H75 H 0.41275 0.9162 0.49771 0.0
H76 H 0.66591 0.07453 0.47755 0.0
H77 H 0.70982 0.13946 0.4682 0.0
H78 H 0.79856 0.12383 0.51456 0.0
H79 H 0.75481 0.0592 0.52376 0.0
Nd80 Nd 0.50727 0.46349 0.83152 0.0
Nd81 Nd 0.59211 0.48547 0.8511 0.0
C82 C 0.44319 0.4597 0.807 0.0
C83 C 0.42048 0.48948 0.80232 0.0
C84 C 0.37922 0.47693 0.79963 0.0
C85 C 0.35705 0.50595 0.79878 0.0
C86 C 0.37579 0.54807 0.80116 0.0
C87 C 0.41744 0.5602 0.80239 0.0
C88 C 0.43948 0.53117 0.80273 0.0
C89 C 0.51321 0.46418 0.87622 0.0
C90 C 0.55573 0.56154 0.84275 0.0
C91 C 0.65837 0.49242 0.87422 0.0
C92 C 0.69542 0.52267 0.88057 0.0
C93 C 0.72598 0.50974 0.89059 0.0
C94 C 0.76197 0.53762 0.89635 0.0
C95 C 0.76801 0.57905 0.89223 0.0
C96 C 0.73712 0.59194 0.88218 0.0
C97 C 0.701 0.56389 0.87638 0.0
C98 C 0.58637 0.48837 0.80681 0.0
C99 C 0.54328 0.38849 0.84075 0.0
O100 O 0.47883 0.46669 0.79937 0.0
O101 O 0.4419 0.44876 0.8271 0.0
O102 O 0.48602 0.43772 0.86445 0.0
O103 O 0.53419 0.48966 0.86451 0.0
O104 O 0.52554 0.53428 0.83272 0.0
O105 O 0.58468 0.55062 0.85296 0.0
O106 O 0.65368 0.47952 0.85356 0.0
O107 O 0.62612 0.49877 0.88267 0.0
O108 O 0.61299 0.51422 0.81919 0.0
O109 O 0.5656 0.46101 0.8177 0.0
O110 O 0.56994 0.41543 0.85333 0.0
O111 O 0.5181 0.4 0.82785 0.0
H112 H 0.36406 0.44478 0.79902 0.0
H113 H 0.32514 0.49529 0.79713 0.0
H114 H 0.43324 0.59211 0.80443 0.0
H115 H 0.47138 0.54145 0.80432 0.0
H116 H 0.72214 0.47793 0.89377 0.0
H117 H 0.78537 0.52649 0.90365 0.0
H118 H 0.74079 0.62366 0.8789 0.0
H119 H 0.67756 0.57426 0.86858 0.0
P120 P 0.61589 0.97055 0.24558 0.0
H121 H 0.59303 0.92677 0.20289 0.0
H122 H 0.52885 0.89275 0.18529 0.0
H123 H 0.47024 0.93584 0.23998 0.0
H124 H 0.5343 0.97105 0.2569 0.0
H125 H 0.6789 0.03519 0.26722 0.0
H126 H 0.72245 0.09686 0.25457 0.0
H127 H 0.65982 0.07331 0.19183 0.0
H128 H 0.61581 0.01165 0.20472 0.0
H129 H 0.61352 0.91024 0.27764 0.0
H130 H 0.60028 0.03326 0.27716 0.0
O131 O 0.64342 0.93774 0.2398 0.0
H132 H 0.60145 0.91044 0.31674 0.0
H133 H 0.58784 0.03363 0.31633 0.0
C134 C 0.56854 0.95089 0.23137 0.0
C135 C 0.56631 0.92934 0.21091 0.0
C136 C 0.52953 0.9096 0.20096 0.0
C137 C 0.49418 0.91089 0.21134 0.0
C138 C 0.49668 0.93428 0.23138 0.0
C139 C 0.53348 0.95428 0.24121 0.0
C140 C 0.64324 0.01939 0.23717 0.0
C141 C 0.67365 0.04388 0.25097 0.0
C142 C 0.69868 0.07914 0.24369 0.0
C143 C 0.69446 0.09011 0.22223 0.0
C144 C 0.66381 0.06563 0.20844 0.0
C145 C 0.63843 0.03054 0.21586 0.0
C146 C 0.60879 0.97209 0.27464 0.0
C147 C 0.6084 0.93747 0.28601 0.0
C148 C 0.60116 0.93751 0.30833 0.0
C149 C 0.59386 0.97213 0.31968 0.0
C150 C 0.59405 0.00676 0.30816 0.0
C151 C 0.60114 0.00659 0.28578 0.0
P152 P 0.62025 0.50584 0.57132 0.0
H153 H 0.55867 0.45354 0.54044 0.0
H154 H 0.5452 0.38063 0.528 0.0
H155 H 0.64577 0.37043 0.56737 0.0
H156 H 0.65928 0.44253 0.57907 0.0
H157 H 0.64581 0.54723 0.53199 0.0
H158 H 0.63037 0.60641 0.5165 0.0
H159 H 0.53701 0.60156 0.56222 0.0
H160 H 0.55237 0.54219 0.57747 0.0
H161 H 0.64692 0.56313 0.60919 0.0
H162 H 0.55862 0.44978 0.59453 0.0
O163 O 0.66935 0.52413 0.57235 0.0
H164 H 0.63107 0.56102 0.64777 0.0
H165 H 0.54222 0.44763 0.63311 0.0
C166 C 0.61062 0.4536 0.56018 0.0
C167 C 0.57808 0.43557 0.54601 0.0
C168 C 0.57024 0.39385 0.53911 0.0
C169 C 0.59473 0.36963 0.54643 0.0
C170 C 0.62691 0.38813 0.56086 0.0
C171 C 0.63467 0.42949 0.56763 0.0
C172 C 0.6006 0.54059 0.55605 0.0
C173 C 0.62132 0.55823 0.53829 0.0
C174 C 0.61271 0.59232 0.52959 0.0
C175 C 0.58295 0.60923 0.5384 0.0
C176 C 0.5601 0.58935 0.55504 0.0
C177 C 0.5689 0.55533 0.56381 0.0
C178 C 0.60467 0.50615 0.59913 0.0
C179 C 0.62385 0.53797 0.61427 0.0
C180 C 0.61452 0.53686 0.6363 0.0
C181 C 0.58562 0.50391 0.64356 0.0
C182 C 0.56513 0.47302 0.6281 0.0
C183 C 0.57443 0.47426 0.60603 0.0
P184 P 0.18438 0.78016 0.93666 0.0
H185 H 0.18023 0.79014 0.88975 0.0
H186 H 0.21489 0.7668 0.85908 0.0
H187 H 0.29168 0.72821 0.90461 0.0
H188 H 0.25663 0.75099 0.93514 0.0
H189 H 0.1165 0.81319 0.94764 0.0
H190 H 1.04521 0.78671 0.93937 0.0
H191 H 0.06881 0.6878 0.89826 0.0
H192 H 0.13937 0.71401 0.90658 0.0
H193 H 0.20038 0.79689 0.98406 0.0
H194 H 0.17247 0.69213 0.9375 0.0
O195 O 0.19807 0.8294 0.9455 0.0
H196 H 0.19401 0.75179 0.014 0.0
H197 H 0.16347 0.64683 0.96713 0.0
C198 C 0.21496 0.77082 0.91463 0.0
C199 C 0.2048 0.77705 0.89312 0.0
C200 C 0.22461 0.76383 0.87563 0.0
C201 C 0.25561 0.74533 0.8795 0.0
C202 C 0.26793 0.74247 0.90117 0.0
C203 C 0.24772 0.75516 0.91862 0.0
C204 C 0.13327 0.76601 0.92743 0.0
C205 C 0.10632 0.78642 0.93642 0.0
C206 C 0.06568 0.77129 0.9317 0.0
C207 C 1.0516 0.73513 0.91826 0.0
C208 C 0.07885 0.71555 0.90881 0.0
C209 C 0.11925 0.73074 0.91343 0.0
C210 C 0.18683 0.74786 0.95857 0.0
C211 C 0.19327 0.76418 0.98027 0.0
C212 C 0.18914 0.73823 0.99739 0.0
C213 C 0.17765 0.69545 0.99312 0.0
C214 C 0.17282 0.67944 0.9712 0.0
C215 C 0.17759 0.7054 0.95415 0.0
P216 P 0.08827 0.45454 0.42345 0.0
H217 H 0.141 0.47541 0.46229 0.0
H218 H 0.1771 0.54061 0.48069 0.0
H219 H 0.11848 0.60439 0.43744 0.0
H220 H 0.08272 0.53927 0.41908 0.0
H221 H 1.02104 0.39611 0.40116 0.0
H222 H 0.96072 0.35245 0.41416 0.0
H223 H 0.99174 0.40692 0.47977 0.0
H224 H 1.05241 0.45106 0.46653 0.0
H225 H 0.13673 0.44245 0.38633 0.0
H226 H 1.0319 0.4852 0.3976 0.0
O227 O 0.11848 0.42395 0.42635 0.0
H228 H 0.13145 0.45299 0.34741 0.0
H229 H 1.02693 0.49654 0.3587 0.0
C230 C 0.10982 0.50237 0.43895 0.0
C231 C 0.13562 0.50339 0.45689 0.0
C232 C 0.15611 0.54072 0.46749 0.0
C233 C 0.1511 0.57777 0.46033 0.0
C234 C 0.12361 0.57645 0.44306 0.0
C235 C 0.103 0.53908 0.43257 0.0
C236 C 1.04075 0.4278 0.43275 0.0
C237 C 1.01441 0.39971 0.41823 0.0
C238 C 0.97983 0.3746 0.4257 0.0
C239 C 0.97125 0.37636 0.44798 0.0
C240 C 0.99754 0.40483 0.46251 0.0
C241 C 1.03205 0.4303 0.45494 0.0
C242 C 0.08459 0.46288 0.39482 0.0
C243 C 0.11255 0.45406 0.38045 0.0
C244 C 0.10947 0.45997 0.3582 0.0
C245 C 0.07873 0.47547 0.35006 0.0
C246 C 1.05104 0.48477 0.36457 0.0
C247 C 1.05384 0.47829 0.38675 0.0
P248 P 0.60616 0.98786 0.79498 0.0
H249 H 0.64573 0.05862 0.82407 0.0
H250 H 0.62533 0.11914 0.83759 0.0
H251 H 0.5066 0.06461 0.81177 0.0
H252 H 0.52727 0.00354 0.79838 0.0
H253 H 0.65128 0.94632 0.82201 0.0
H254 H 0.63749 0.87722 0.8339 0.0
H255 H 0.51781 0.85344 0.80715 0.0
H256 H 0.53245 0.92277 0.79469 0.0
H257 H 0.57709 0.04135 0.76623 0.0
H258 H 0.60194 0.92281 0.76074 0.0
O259 O 0.65545 0.00332 0.79489 0.0
H260 H 0.55929 0.03509 0.72752 0.0
H261 H 0.58696 0.91748 0.72155 0.0
C262 C 0.5882 0.02695 0.80981 0.0
C263 C 0.61506 0.05914 0.82174 0.0
C264 C 0.60331 0.09377 0.82955 0.0
C265 C 0.56449 0.09692 0.82547 0.0
C266 C 0.53686 0.06327 0.81489 0.0
C267 C 0.54855 0.0283 0.80737 0.0
C268 C 0.59305 0.93949 0.80719 0.0
C269 C 0.62191 0.92646 0.81891 0.0
C270 C 0.61385 0.88684 0.82585 0.0
C271 C 0.5766 0.85941 0.82134 0.0
C272 C 0.54705 0.87341 0.81055 0.0
C273 C 0.55522 0.91315 0.80358 0.0
C274 C 0.58942 0.98183 0.76666 0.0
C275 C 0.57802 0.01353 0.75683 0.0
C276 C 0.56851 0.01022 0.73445 0.0
C277 C 0.57161 0.97575 0.7212 0.0
C278 C 0.58322 0.94407 0.73117 0.0
C279 C 0.59202 0.94713 0.75365 0.0
P280 P 0.56139 0.46561 0.11523 0.0
H281 H 0.60524 0.44912 0.15336 0.0
H282 H 0.67626 0.46381 0.16201 0.0
H283 H 0.69892 0.54745 0.11088 0.0
H284 H 0.62777 0.53265 0.10232 0.0
H285 H 0.48082 0.41909 0.1089 0.0
H286 H 0.41713 0.43076 0.11732 0.0
H287 H 0.47504 0.54676 0.15124 0.0
H288 H 0.53997 0.53509 0.14169 0.0
H289 H 0.5951 0.42691 0.07916 0.0
H290 H 0.5282 0.51753 0.08739 0.0
O291 O 0.5559 0.41577 0.11777 0.0
H292 H 0.5902 0.42933 0.0395 0.0
H293 H 0.52202 0.51921 0.04778 0.0
C294 C 0.6107 0.4896 0.12713 0.0
C295 C 0.62526 0.47172 0.14446 0.0
C296 C 0.66615 0.47968 0.14919 0.0
C297 C 0.69372 0.50616 0.13684 0.0
C298 C 0.67881 0.52683 0.12074 0.0
C299 C 0.63784 0.51852 0.1159 0.0
C300 C 0.51552 0.47554 0.12519 0.0
C301 C 0.48013 0.44681 0.11855 0.0
C302 C 0.4433 0.45356 0.12349 0.0
C303 C 0.4402 0.48942 0.13546 0.0
C304 C 0.47588 0.51869 0.14203 0.0
C305 C 0.51319 0.51191 0.13682 0.0
C306 C 0.56125 0.4713 0.08619 0.0
C307 C 0.57933 0.44732 0.07241 0.0
C308 C 0.57626 0.44855 0.04973 0.0
C309 C 0.55511 0.47394 0.04038 0.0
C310 C 0.5386 0.49937 0.05436 0.0
C311 C 0.54185 0.49821 0.07707 0.0
H312 H 0.19112 0.46044 0.17029 0.0
H313 H 0.21644 0.56533 0.13179 0.0
H314 H 0.25983 0.45754 0.16893 0.0
H315 H 0.28504 0.56124 0.12923 0.0
H316 H 0.41501 0.56122 0.13823 0.0
H317 H 0.34833 0.5693 0.14402 0.0
H318 H 0.30596 0.43885 0.14801 0.0
H319 H 0.37243 0.43145 0.14413 0.0
C320 C 0.21134 0.48278 0.16135 0.0
C321 C 0.19793 0.51302 0.1511 0.0
C322 C 0.25104 0.48096 0.16037 0.0
C323 C 0.27878 0.50878 0.14868 0.0
C324 C 0.2653 0.53945 0.13866 0.0
C325 C 0.22564 0.5417 0.14 0.0
C326 C 0.39164 0.53435 0.14079 0.0
C327 C 0.3997 0.49557 0.14042 0.0
C328 C 0.35293 0.53888 0.14379 0.0
C329 C 0.32084 0.50477 0.1464 0.0
C330 C 0.32929 0.46623 0.14643 0.0
C331 C 0.36783 0.46181 0.14375 0.0
H332 H 0.80176 0.19808 0.5187 0.0
H333 H 0.77493 0.1637 0.45007 0.0
H334 H 0.85009 0.25969 0.50954 0.0
H335 H 0.82382 0.22483 0.44081 0.0
H336 H 0.89589 0.35204 0.43001 0.0
H337 H 0.84113 0.29769 0.44109 0.0
H338 H 0.91424 0.2775 0.49477 0.0
H339 H 0.96852 0.33221 0.48388 0.0
C340 C 0.80625 0.20372 0.50164 0.0
C341 C 0.78472 0.17589 0.4851 0.0
C342 C 0.83403 0.23899 0.49637 0.0
C343 C 0.8412 0.24721 0.47442 0.0
C344 C 0.81878 0.21989 0.4579 0.0
C345 C 0.79078 0.18474 0.46318 0.0
C346 C 0.90008 0.33615 0.44428 0.0
C347 C 0.93658 0.34638 0.45604 0.0
C348 C 0.86876 0.30487 0.45059 0.0
C349 C 0.87324 0.28289 0.46875 0.0
C350 C 0.9094 0.29407 0.4809 0.0
C351 C 0.94062 0.32549 0.47466 0.0
H352 H 0.49539 0.59536 0.83171 0.0
H353 H 0.61865 0.62769 0.85277 0.0
H354 H 0.49814 0.66704 0.82803 0.0
H355 H 0.62137 0.69972 0.84923 0.0
H356 H 0.60279 0.82878 0.85766 0.0
H357 H 0.59653 0.75732 0.86447 0.0
H358 H 0.52875 0.71977 0.80376 0.0
H359 H 0.53542 0.79098 0.79677 0.0
C360 C 0.52318 0.6177 0.83541 0.0
C361 C 0.55697 0.60558 0.84213 0.0
C362 C 0.52472 0.6589 0.83336 0.0
C363 C 0.56006 0.68917 0.83814 0.0
C364 C 0.59358 0.67723 0.84556 0.0
C365 C 0.59206 0.6359 0.84753 0.0
C366 C 0.58659 0.80531 0.84573 0.0
C367 C 0.56972 0.81583 0.82661 0.0
C368 C 0.58303 0.76432 0.84965 0.0
C369 C 0.56228 0.73278 0.83463 0.0
C370 C 0.5445 0.74324 0.81583 0.0
C371 C 0.54823 0.78419 0.81185 0.0
H372 H 0.95357 0.57071 0.12715 0.0
H373 H 0.92919 0.46882 0.16785 0.0
H374 H 0.88314 0.5678 0.1246 0.0
H375 H 0.8591 0.46695 0.16624 0.0
H376 H 0.73082 0.44492 0.14248 0.0
H377 H 0.80118 0.449 0.14537 0.0
H378 H 0.82709 0.57964 0.1407 0.0
H379 H 0.75631 0.57503 0.13702 0.0
C380 C 0.93325 0.54792 0.13578 0.0
C381 C 0.94738 0.51994 0.14765 0.0
C382 C 0.89257 0.54637 0.13445 0.0
C383 C 0.86457 0.51705 0.14514 0.0
C384 C 0.87903 0.4895 0.1573 0.0
C385 C 0.9196 0.49075 0.1584 0.0
C386 C 0.75145 0.47465 0.1423 0.0
C387 C 0.73748 0.50965 0.13964 0.0
C388 C 0.79218 0.47708 0.14402 0.0
C389 C 0.82068 0.51473 0.1434 0.0
C390 C 0.80661 0.54986 0.1409 0.0
C391 C 0.76576 0.54731 0.1389 0.0
H392 H 0.33294 0.76275 0.534 0.0
H393 H 0.28572 0.83153 0.48823 0.0
H394 H 0.28389 0.70077 0.52064 0.0
H395 H 0.23614 0.76976 0.47509 0.0
H396 H 0.18819 0.64392 0.43873 0.0
H397 H 0.23247 0.70748 0.45386 0.0
H398 H 0.21521 0.66544 0.51885 0.0
H399 H 0.17125 0.60137 0.50356 0.0
C400 C 0.31163 0.76475 0.52133 0.0
C401 C 0.31335 0.80204 0.51211 0.0
C402 C 0.28341 0.7292 0.51367 0.0
C403 C 0.25605 0.73009 0.49668 0.0
C404 C 0.25718 0.76768 0.48788 0.0
C405 C 0.28555 0.80315 0.49544 0.0
C406 C 0.19336 0.64846 0.45629 0.0
C407 C 0.17612 0.61755 0.46993 0.0
C408 C 0.21878 0.685 0.465 0.0
C409 C 0.22752 0.69175 0.48762 0.0
C410 C 0.2097 0.66109 0.50132 0.0
C411 C 0.1844 0.62439 0.49258 0.0
H412 H 0.59879 0.35432 0.85839 0.0
H413 H 0.48585 0.32297 0.8231 0.0
H414 H 0.59963 0.28269 0.85635 0.0
H415 H 0.48584 0.25098 0.8218 0.0
H416 H 0.52557 0.13595 0.79854 0.0
H417 H 0.51737 0.20504 0.80381 0.0
H418 H 0.5726 0.21717 0.8684 0.0
H419 H 0.58184 0.14825 0.86271 0.0
C420 C 0.57382 0.33206 0.85046 0.0
C421 C 0.54239 0.34449 0.84077 0.0
C422 C 0.57414 0.2908 0.84943 0.0
C423 C 0.54282 0.26076 0.83886 0.0
C424 C 0.51084 0.27318 0.82971 0.0
C425 C 0.51073 0.31452 0.83055 0.0
C426 C 0.53523 0.15308 0.81403 0.0
C427 C 0.55443 0.13666 0.83018 0.0
C428 C 0.53052 0.19282 0.8171 0.0
C429 C 0.54457 0.21708 0.83649 0.0
C430 C 0.56218 0.19986 0.85305 0.0
C431 C 0.56726 0.16024 0.84988 0.0
H432 H 0.61425 0.8576 0.49626 0.0
H433 H 0.51105 0.83555 0.53588 0.0
H434 H 0.61743 0.787 0.49881 0.0
H435 H 0.51505 0.76571 0.53912 0.0
H436 H 0.51424 0.63227 0.53017 0.0
H437 H 0.5074 0.69977 0.52191 0.0
H438 H 0.63477 0.74499 0.52448 0.0
H439 H 0.64139 0.67754 0.53215 0.0
C440 C 0.59219 0.83773 0.50548 0.0
C441 C 0.56249 0.85246 0.5159 0.0
C442 C 0.59415 0.79721 0.50709 0.0
C443 C 0.56666 0.77041 0.51931 0.0
C444 C 0.53643 0.78501 0.52929 0.0
C445 C 0.53428 0.82535 0.52753 0.0
C446 C 0.54072 0.65663 0.52881 0.0
C447 C 0.57834 0.64941 0.53175 0.0
C448 C 0.53686 0.69544 0.52416 0.0
C449 C 0.57053 0.72817 0.52257 0.0
C450 C 0.60812 0.72059 0.52514 0.0
C451 C 0.61195 0.68177 0.52958 0.0
H452 H 0.80995 0.63973 0.86812 0.0
H453 H 0.8142 0.58386 0.92919 0.0
H454 H 0.87736 0.68173 0.87575 0.0
H455 H 0.88159 0.62527 0.93655 0.0
H456 H 1.01456 0.65587 0.92284 0.0
H457 H 0.94435 0.62261 0.91778 0.0
H458 H 0.92103 0.73722 0.90255 0.0
H459 H 0.992 0.77073 0.90751 0.0
C460 C 0.82494 0.63696 0.88334 0.0
C461 C 0.80695 0.60804 0.89791 0.0
C462 C 0.86352 0.66098 0.88768 0.0
C463 C 0.88478 0.65634 0.9066 0.0
C464 C 0.86608 0.62892 0.92165 0.0
C465 C 0.82757 0.60515 0.91739 0.0
C466 C 0.9945 0.67396 0.91833 0.0
C467 C 1.00868 0.71579 0.91542 0.0
C468 C 0.95427 0.65503 0.91566 0.0
C469 C 0.92726 0.67741 0.9099 0.0
C470 C 0.94131 0.7193 0.90695 0.0
C471 C 0.98173 0.73845 0.90988 0.0
H472 H 0.29529 0.74136 0.1383 0.0
H473 H 0.24739 0.77828 0.19842 0.0
H474 H 0.3595 0.78794 0.14883 0.0
H475 H 0.31169 0.82431 0.2091 0.0
H476 H 0.42255 0.93104 0.21129 0.0
H477 H 0.35803 0.88823 0.19835 0.0
H478 H 0.41262 0.79199 0.17713 0.0
H479 H 0.47689 0.83418 0.19045 0.0
C480 C 0.29841 0.75964 0.15369 0.0
C481 C 0.26628 0.75608 0.16755 0.0
C482 C 0.33525 0.78605 0.1598 0.0
C483 C 0.34069 0.80979 0.17981 0.0
C484 C 0.30838 0.80673 0.19349 0.0
C485 C 0.27166 0.78007 0.18747 0.0
C486 C 0.42085 0.9007 0.20395 0.0
C487 C 0.4551 0.88616 0.20199 0.0
C488 C 0.38384 0.8762 0.19651 0.0
C489 C 0.3802 0.83669 0.18675 0.0
C490 C 0.41449 0.82249 0.18431 0.0
C491 C 0.45142 0.84682 0.1919 0.0
H492 H 0.51246 0.10522 0.54537 0.0
H493 H 0.60888 0.1239 0.50096 0.0
H494 H 0.51898 0.17874 0.5491 0.0
H495 H 0.61439 0.19692 0.50395 0.0
H496 H 0.64889 0.326 0.53631 0.0
H497 H 0.63777 0.2528 0.52928 0.0
H498 H 0.51159 0.23857 0.53286 0.0
H499 H 0.52307 0.31217 0.54124 0.0
C500 C 0.53465 0.12492 0.53615 0.0
C501 C 0.5604 0.10861 0.52305 0.0
C502 C 0.53826 0.16716 0.53817 0.0
C503 C 0.56748 0.1941 0.52699 0.0
C504 C 0.59216 0.17743 0.51325 0.0
C505 C 0.58885 0.13537 0.51143 0.0
C506 C 0.61872 0.30735 0.53572 0.0
C507 C 0.58694 0.32513 0.53963 0.0
C508 C 0.61225 0.2652 0.53136 0.0
C509 C 0.57371 0.23941 0.53049 0.0
C510 C 0.54172 0.25729 0.53369 0.0
C511 C 0.54826 0.29963 0.53821 0.0
H512 H 0.39282 0.62802 0.78967 0.0
H513 H 0.30599 0.53893 0.82235 0.0
H514 H 0.36214 0.68151 0.80356 0.0
H515 H 0.27444 0.59181 0.8348 0.0
H516 H 0.21428 0.69198 0.84733 0.0
H517 H 0.23996 0.64721 0.82186 0.0
H518 H 0.35902 0.70602 0.84559 0.0
H519 H 0.33334 0.75067 0.87123 0.0
C520 C 0.36691 0.61955 0.79943 0.0
C521 C 0.35245 0.57899 0.80515 0.0
C522 C 0.34922 0.6502 0.80719 0.0
C523 C 0.31609 0.64068 0.82026 0.0
C524 C 0.29973 0.59985 0.82451 0.0
C525 C 0.31784 0.56941 0.81722 0.0
C526 C 0.24602 0.69619 0.84662 0.0
C527 C 0.27189 0.72456 0.86131 0.0
C528 C 0.26062 0.6705 0.83213 0.0
C529 C 0.30136 0.6732 0.83186 0.0
C530 C 0.32749 0.70363 0.84537 0.0
C531 C 0.31283 0.72892 0.86012 0.0
H532 H 0.85974 0.26612 0.14782 0.0
H533 H 0.90149 0.2911 0.21519 0.0
H534 H 0.80195 0.21522 0.15876 0.0
H535 H 0.84443 0.23963 0.22615 0.0
H536 H 0.72326 0.16641 0.24257 0.0
H537 H 0.77511 0.22244 0.2304 0.0
H538 H 0.78461 0.14876 0.17152 0.0
H539 H 0.73209 0.09336 0.1835 0.0
C540 C 0.8566 0.26062 0.16497 0.0
C541 C 0.8852 0.28262 0.18063 0.0
C542 C 0.82353 0.23134 0.17126 0.0
C543 C 0.8184 0.22307 0.19336 0.0
C544 C 0.84685 0.24557 0.20904 0.0
C545 C 0.87971 0.27507 0.20276 0.0
C546 C 0.73631 0.16238 0.22696 0.0
C547 C 0.72363 0.12545 0.21401 0.0
C548 C 0.76619 0.19441 0.22001 0.0
C549 C 0.78443 0.19017 0.20002 0.0
C550 C 0.77096 0.15351 0.18684 0.0
C551 C 0.74084 0.12163 0.19371 0.0
H552 H 1.04408 0.55885 0.09253 0.0
H553 H 0.14334 0.50486 0.08729 0.0
H554 H 0.07056 0.60449 0.06442 0.0
H555 H 0.17117 0.55193 0.05968 0.0
H556 H 0.18883 0.61814 0.99582 0.0
H557 H 0.16442 0.57016 0.02329 0.0
H558 H 0.12158 0.66276 0.0598 0.0
H559 H 0.1429 0.7094 0.0316 0.0
C560 C 0.07163 0.55679 0.08527 0.0
C561 C 0.09163 0.52834 0.09198 0.0
C562 C 0.08713 0.58329 0.06934 0.0
C563 C 0.12341 0.58248 0.05996 0.0
C564 C 0.14303 0.55326 0.06639 0.0
C565 C 0.12715 0.52629 0.08219 0.0
C566 C 0.1739 0.6282 0.00961 0.0
C567 C 0.16755 0.6677 0.01125 0.0
C568 C 0.16034 0.60077 0.02556 0.0
C569 C 0.14046 0.61227 0.04367 0.0
C570 C 0.13583 0.65237 0.04581 0.0
C571 C 0.14885 0.67954 0.02977 0.0
H572 H 0.4799 0.94106 0.44418 0.0
H573 H 0.60234 0.99642 0.46254 0.0
H574 H 0.49599 0.94269 0.40566 0.0
H575 H 0.61882 0.99754 0.42394 0.0
H576 H 0.62188 0.03262 0.3521 0.0
H577 H 0.60691 0.03183 0.39088 0.0
H578 H 0.53217 0.9094 0.37944 0.0
H579 H 0.54626 0.9106 0.34069 0.0
C580 C 0.51034 0.9534 0.43995 0.0
C581 C 0.54 0.96831 0.45631 0.0
C582 C 0.5196 0.95414 0.4179 0.0
C583 C 0.55872 0.97005 0.41173 0.0
C584 C 0.58836 0.9853 0.42815 0.0
C585 C 0.57907 0.98433 0.45025 0.0
C586 C 0.60206 0.00567 0.35787 0.0
C587 C 0.58525 0.97168 0.34332 0.0
C588 C 0.59382 0.00505 0.3801 0.0
C589 C 0.56834 0.97056 0.38823 0.0
C590 C 0.55161 0.93659 0.37366 0.0
C591 C 0.56 0.93712 0.35149 0.0
H592 H 0.6258 0.54833 0.78233 0.0
H593 H 0.53741 0.43315 0.77759 0.0
H594 H 0.62073 0.5517 0.74289 0.0
H595 H 0.5316 0.43685 0.73798 0.0
H596 H 0.57574 0.43597 0.66668 0.0
H597 H 0.57163 0.43203 0.70612 0.0
H598 H 0.57645 0.56078 0.71372 0.0
H599 H 0.58065 0.56474 0.67423 0.0
C600 C 0.60507 0.52384 0.77283 0.0
C601 C 0.5821 0.49042 0.78297 0.0
C602 C 0.60188 0.52594 0.75024 0.0
C603 C 0.57564 0.49462 0.73726 0.0
C604 C 0.55233 0.4613 0.74749 0.0
C605 C 0.5555 0.45925 0.77015 0.0
C606 C 0.57512 0.46327 0.67671 0.0
C607 C 0.5788 0.50074 0.66731 0.0
C608 C 0.57277 0.461 0.69934 0.0
C609 C 0.57406 0.49616 0.7131 0.0
C610 C 0.57616 0.5333 0.70361 0.0
C611 C 0.57854 0.53557 0.68099 0.0
H612 H 0.60043 0.92186 0.58534 0.0
H613 H 0.53984 0.01806 0.58305 0.0
H614 H 0.59062 0.91976 0.62463 0.0
H615 H 0.53059 0.01643 0.62257 0.0
H616 H 0.58956 0.03903 0.69425 0.0
H617 H 0.58337 0.0357 0.65462 0.0
H618 H 0.53539 0.90522 0.65304 0.0
H619 H 0.53964 0.90844 0.69293 0.0
C620 C 0.58457 0.94218 0.59324 0.0
C621 C 0.57115 0.97033 0.58127 0.0
C622 C 0.57878 0.94082 0.61567 0.0
C623 C 0.56001 0.96805 0.62661 0.0
C624 C 0.54534 0.99527 0.6145 0.0
C625 C 0.5505 0.99611 0.59194 0.0
C626 C 0.57657 0.00968 0.68565 0.0
C627 C 0.56521 0.97397 0.69698 0.0
C628 C 0.57317 0.00784 0.66286 0.0
C629 C 0.55893 0.97022 0.65079 0.0
C630 C 0.54673 0.9346 0.66199 0.0
C631 C 0.54949 0.93648 0.68484 0.0
H632 H 0.47338 0.40989 0.90417 0.0
H633 H 0.56454 0.5222 0.90246 0.0
H634 H 0.48275 0.41263 0.94391 0.0
H635 H 0.57497 0.52431 0.94192 0.0
H636 H 0.55639 0.53809 0.015 0.0
H637 H 0.54442 0.53564 0.97561 0.0
H638 H 0.52983 0.40495 0.97148 0.0
H639 H 0.53986 0.40713 0.01095 0.0
C640 C 0.4955 0.43505 0.9123 0.0
C641 C 0.51835 0.46569 0.90024 0.0
C642 C 0.5011 0.43651 0.93503 0.0
C643 C 0.52971 0.46866 0.94616 0.0
C644 C 0.55235 0.49939 0.93398 0.0
C645 C 0.54665 0.49797 0.91132 0.0
C646 C 0.55026 0.50877 0.00573 0.0
C647 C 0.54916 0.47283 0.0162 0.0
C648 C 0.54382 0.50741 0.98308 0.0
C649 C 0.53618 0.47009 0.97031 0.0
C650 C 0.53515 0.43417 0.98079 0.0
C651 C 0.5415 0.43552 0.00343 0.0
H652 H 1.02653 0.55623 0.22343 0.0
H653 H 0.11123 0.48531 0.20985 0.0
H654 H 1.02574 0.5393 0.26142 0.0
H655 H 0.11216 0.46987 0.24813 0.0
H656 H 0.08244 0.4227 0.31506 0.0
H657 H 0.07763 0.43403 0.27632 0.0
H658 H 0.06543 0.55596 0.2935 0.0
H659 H 0.06864 0.54374 0.33209 0.0
C660 C 1.04509 0.53708 0.22865 0.0
C661 C 0.06912 0.52229 0.2138 0.0
C662 C 1.04492 0.52761 0.25047 0.0
C663 C 0.06928 0.50361 0.25804 0.0
C664 C 0.09268 0.48805 0.24293 0.0
C665 C 0.09237 0.49707 0.221 0.0
C666 C 0.0787 0.45186 0.31046 0.0
C667 C 0.07581 0.48232 0.32653 0.0
C668 C 0.07609 0.45848 0.28827 0.0
C669 C 0.07108 0.49593 0.28166 0.0
C670 C 0.06839 0.5264 0.29787 0.0
C671 C 0.07044 0.51955 0.32002 0.0
loop_
_geom_bond_atom_site_label_1
_geom_bond_atom_site_label_2
_geom_bond_distance
_geom_bond_site_symmetry_2
_ccdc_geom_bond_type
Nd0 C2 2.836 . S
Nd0 O20 2.500 . S
Nd0 O21 2.492 . S
Nd0 O22 2.487 . S
Nd0 O23 2.682 . S
Nd0 O24 2.410 . S
Nd0 O29 2.414 . S
Nd0 O31 2.424 1_455 S
Nd1 C11 2.831 1_455 S
Nd1 O23 2.414 . S
Nd1 O25 2.431 . S
Nd1 O26 2.495 1_455 S
Nd1 O27 2.488 1_455 S
Nd1 O28 2.487 . S
Nd1 O29 2.683 . S
Nd1 O30 2.404 1_455 S
C2 Nd0 2.836 . S
C2 C3 1.498 . S
C2 O20 1.258 . S
C2 O21 1.239 . S
C3 C2 1.498 . S
C3 C4 1.366 . S
C3 C8 1.407 . S
C4 C3 1.366 . S
C4 C5 1.392 . S
C4 H32 0.930 . S
C5 C4 1.392 . S
C5 C6 1.398 . S
C5 H33 0.929 . S
C6 C5 1.398 . S
C6 C7 1.352 . S
C7 C6 1.352 . S
C7 C8 1.384 . S
C7 H34 0.930 . S
C8 C3 1.407 . S
C8 C7 1.384 . S
C8 H35 0.929 . S
C9 O22 1.241 . S
C9 O23 1.273 . S
C10 O24 1.251 . S
C10 O25 1.268 . S
C11 Nd1 2.831 1_655 S
C11 C12 1.498 . S
C11 O26 1.258 . S
C11 O27 1.239 . S
C12 C11 1.498 . S
C12 C13 1.366 . S
C12 C17 1.407 . S
C13 C12 1.366 . S
C13 C14 1.392 . S
C13 H36 0.930 . S
C14 C13 1.392 . S
C14 C15 1.398 . S
C14 H37 0.929 . S
C15 C14 1.398 . S
C15 C16 1.352 . S
C16 C15 1.352 . S
C16 C17 1.384 . S
C16 H38 0.930 . S
C17 C12 1.407 . S
C17 C16 1.384 . S
C17 H39 0.929 . S
C18 O28 1.241 . S
C18 O29 1.273 . S
C19 O30 1.251 . S
C19 O31 1.268 . S
O20 Nd0 2.500 . S
O20 C2 1.258 . S
O21 Nd0 2.492 . S
O21 C2 1.239 . S
O22 Nd0 2.487 . S
O22 C9 1.241 . S
O23 Nd0 2.682 . S
O23 Nd1 2.414 . S
O23 C9 1.273 . S
O24 Nd0 2.410 . S
O24 C10 1.251 . S
O25 Nd1 2.431 . S
O25 C10 1.268 . S
O26 Nd1 2.495 1_655 S
O26 C11 1.258 . S
O27 Nd1 2.488 1_655 S
O27 C11 1.239 . S
O28 Nd1 2.487 . S
O28 C18 1.241 . S
O29 Nd0 2.414 . S
O29 Nd1 2.683 . S
O29 C18 1.273 . S
O30 Nd1 2.404 1_655 S
O30 C19 1.251 . S
O31 Nd0 2.424 1_655 S
O31 C19 1.268 . S
H32 C4 0.930 . S
H33 C5 0.929 . S
H34 C7 0.930 . S
H35 C8 0.929 . S
H36 C13 0.930 . S
H37 C14 0.929 . S
H38 C16 0.930 . S
H39 C17 0.929 . S
Nd40 C42 2.836 1_545 S
Nd40 O60 2.500 1_545 S
Nd40 O61 2.492 1_545 S
Nd40 O62 2.487 1_545 S
Nd40 O63 2.682 . S
Nd40 O64 2.410 1_545 S
Nd40 O69 2.414 . S
Nd40 O71 2.424 . S
Nd41 C51 2.836 . S
Nd41 O63 2.414 . S
Nd41 O65 2.424 1_545 S
Nd41 O66 2.500 . S
Nd41 O67 2.492 . S
Nd41 O68 2.487 . S
Nd41 O69 2.682 . S
Nd41 O70 2.410 . S
C42 Nd40 2.836 1_565 S
C42 C43 1.498 . S
C42 O60 1.258 . S
C42 O61 1.239 . S
C43 C42 1.498 . S
C43 C44 1.366 . S
C43 C48 1.407 . S
C44 C43 1.366 . S
C44 C45 1.392 . S
C44 H72 0.930 . S
C45 C44 1.392 . S
C45 C46 1.398 . S
C45 H73 0.929 . S
C46 C45 1.398 . S
C46 C47 1.352 . S
C47 C46 1.352 . S
C47 C48 1.384 . S
C47 H74 0.930 . S
C48 C43 1.407 . S
C48 C47 1.384 . S
C48 H75 0.929 . S
C49 O62 1.241 1_545 S
C49 O63 1.273 . S
C50 O64 1.251 . S
C50 O65 1.268 . S
C51 Nd41 2.836 . S
C51 C52 1.498 . S
C51 O66 1.258 . S
C51 O67 1.239 . S
C52 C51 1.498 . S
C52 C53 1.366 . S
C52 C57 1.407 . S
C53 C52 1.366 . S
C53 C54 1.392 . S
C53 H76 0.930 . S
C54 C53 1.392 . S
C54 C55 1.398 . S
C54 H77 0.929 . S
C55 C54 1.398 . S
C55 C56 1.352 . S
C56 C55 1.352 . S
C56 C57 1.384 . S
C56 H78 0.930 . S
C57 C52 1.407 . S
C57 C56 1.384 . S
C57 H79 0.929 . S
C58 O68 1.241 . S
C58 O69 1.273 . S
C59 O70 1.251 . S
C59 O71 1.268 . S
O60 Nd40 2.500 1_565 S
O60 C42 1.258 . S
O61 Nd40 2.492 1_565 S
O61 C42 1.239 . S
O62 Nd40 2.487 1_565 S
O62 C49 1.241 1_565 S
O63 Nd40 2.682 . S
O63 Nd41 2.414 . S
O63 C49 1.273 . S
O64 Nd40 2.410 1_565 S
O64 C50 1.251 . S
O65 Nd41 2.424 1_565 S
O65 C50 1.268 . S
O66 Nd41 2.500 . S
O66 C51 1.258 . S
O67 Nd41 2.492 . S
O67 C51 1.239 . S
O68 Nd41 2.487 . S
O68 C58 1.241 . S
O69 Nd40 2.414 . S
O69 Nd41 2.682 . S
O69 C58 1.273 . S
O70 Nd41 2.410 . S
O70 C59 1.251 . S
O71 Nd40 2.424 . S
O71 C59 1.268 . S
H72 C44 0.930 . S
H73 C45 0.929 . S
H74 C47 0.930 . S
H75 C48 0.929 . S
H76 C53 0.930 . S
H77 C54 0.929 . S
H78 C56 0.930 . S
H79 C57 0.929 . S
Nd80 C82 2.836 . S
Nd80 O100 2.500 . S
Nd80 O101 2.492 . S
Nd80 O102 2.487 . S
Nd80 O103 2.682 . S
Nd80 O104 2.410 . S
Nd80 O109 2.414 . S
Nd80 O111 2.424 . S
Nd81 C91 2.836 . S
Nd81 O103 2.414 . S
Nd81 O105 2.424 . S
Nd81 O106 2.500 . S
Nd81 O107 2.492 . S
Nd81 O108 2.487 . S
Nd81 O109 2.682 . S
Nd81 O110 2.410 . S
C82 Nd80 2.836 . S
C82 C83 1.498 . S
C82 O100 1.258 . S
C82 O101 1.239 . S
C83 C82 1.498 . S
C83 C84 1.366 . S
C83 C88 1.407 . S
C84 C83 1.366 . S
C84 C85 1.392 . S
C84 H112 0.930 . S
C85 C84 1.392 . S
C85 C86 1.398 . S
C85 H113 0.929 . S
C86 C85 1.398 . S
C86 C87 1.352 . S
C87 C86 1.352 . S
C87 C88 1.384 . S
C87 H114 0.930 . S
C88 C83 1.407 . S
C88 C87 1.384 . S
C88 H115 0.929 . S
C89 O102 1.241 . S
C89 O103 1.273 . S
C90 O104 1.251 . S
C90 O105 1.268 . S
C91 Nd81 2.836 . S
C91 C92 1.498 . S
C91 O106 1.258 . S
C91 O107 1.239 . S
C92 C91 1.498 . S
C92 C93 1.366 . S
C92 C97 1.407 . S
C93 C92 1.366 . S
C93 C94 1.392 . S
C93 H116 0.930 . S
C94 C93 1.392 . S
C94 C95 1.398 . S
C94 H117 0.929 . S
C95 C94 1.398 . S
C95 C96 1.352 . S
C96 C95 1.352 . S
C96 C97 1.384 . S
C96 H118 0.930 . S
C97 C92 1.407 . S
C97 C96 1.384 . S
C97 H119 0.929 . S
C98 O108 1.241 . S
C98 O109 1.273 . S
C99 O110 1.251 . S
C99 O111 1.268 . S
O100 Nd80 2.500 . S
O100 C82 1.258 . S
O101 Nd80 2.492 . S
O101 C82 1.239 . S
O102 Nd80 2.487 . S
O102 C89 1.241 . S
O103 Nd80 2.682 . S
O103 Nd81 2.414 . S
O103 C89 1.273 . S
O104 Nd80 2.410 . S
O104 C90 1.251 . S
O105 Nd81 2.424 . S
O105 C90 1.268 . S
O106 Nd81 2.500 . S
O106 C91 1.258 . S
O107 Nd81 2.492 . S
O107 C91 1.239 . S
O108 Nd81 2.487 . S
O108 C98 1.241 . S
O109 Nd80 2.414 . S
O109 Nd81 2.682 . S
O109 C98 1.273 . S
O110 Nd81 2.410 . S
O110 C99 1.251 . S
O111 Nd80 2.424 . S
O111 C99 1.268 . S
H112 C84 0.930 . S
H113 C85 0.929 . S
H114 C87 0.930 . S
H115 C88 0.929 . S
H116 C93 0.930 . S
H117 C94 0.929 . S
H118 C96 0.930 . S
H119 C97 0.929 . S
P120 O131 1.490 . S
P120 C134 1.812 . S
P120 C140 1.803 1_565 S
P120 C146 1.819 1_565 S
H121 C135 0.941 . S
H122 C136 0.939 . S
H123 C138 0.940 . S
H124 C139 0.940 1_545 S
H125 C141 0.939 . S
H126 C142 0.942 . S
H127 C144 0.940 . S
H128 C145 0.939 . S
H129 C147 0.941 . S
H130 C151 0.939 . S
O131 P120 1.490 . S
H132 C148 0.939 . S
H133 C150 0.940 . S
C134 P120 1.812 . S
C134 C135 1.389 . S
C134 C139 1.391 . S
C135 H121 0.941 . S
C135 C134 1.389 . S
C135 C136 1.397 . S
C136 H122 0.939 . S
C136 C135 1.397 . S
C136 C137 1.378 . S
C137 C136 1.378 . S
C137 C138 1.378 . S
C138 H123 0.940 . S
C138 C137 1.378 . S
C138 C139 1.396 . S
C139 H124 0.940 1_565 S
C139 C134 1.391 . S
C139 C138 1.396 . S
C140 P120 1.803 1_545 S
C140 C141 1.378 . S
C140 C145 1.400 . S
C141 H125 0.939 . S
C141 C140 1.378 . S
C141 C142 1.361 . S
C142 H126 0.942 . S
C142 C141 1.361 . S
C142 C143 1.369 . S
C143 C142 1.369 . S
C143 C144 1.404 . S
C144 H127 0.940 . S
C144 C143 1.404 . S
C144 C145 1.389 . S
C145 H128 0.939 . S
C145 C140 1.400 . S
C145 C144 1.389 . S
C146 P120 1.819 1_545 S
C146 C147 1.391 1_545 S
C146 C151 1.391 . S
C147 H129 0.941 . S
C147 C146 1.391 1_565 S
C147 C148 1.396 . S
C148 H132 0.939 . S
C148 C147 1.396 . S
C148 C149 1.397 1_565 S
C149 C148 1.397 1_545 S
C149 C150 1.385 . S
C150 H133 0.940 . S
C150 C149 1.385 . S
C150 C151 1.388 . S
C151 H130 0.939 . S
C151 C146 1.391 . S
C151 C150 1.388 . S
P152 O163 1.490 . S
P152 C166 1.812 . S
P152 C172 1.803 . S
P152 C178 1.819 . S
H153 C167 0.941 . S
H154 C168 0.939 . S
H155 C170 0.940 . S
H156 C171 0.940 . S
H157 C173 0.939 . S
H158 C174 0.942 . S
H159 C176 0.940 . S
H160 C177 0.939 . S
H161 C179 0.941 . S
H162 C183 0.939 . S
O163 P152 1.490 . S
H164 C180 0.939 . S
H165 C182 0.940 . S
C166 P152 1.812 . S
C166 C167 1.389 . S
C166 C171 1.391 . S
C167 H153 0.941 . S
C167 C166 1.389 . S
C167 C168 1.397 . S
C168 H154 0.939 . S
C168 C167 1.397 . S
C168 C169 1.378 . S
C169 C168 1.378 . S
C169 C170 1.378 . S
C170 H155 0.940 . S
C170 C169 1.378 . S
C170 C171 1.396 . S
C171 H156 0.940 . S
C171 C166 1.391 . S
C171 C170 1.396 . S
C172 P152 1.803 . S
C172 C173 1.378 . S
C172 C177 1.400 . S
C173 H157 0.939 . S
C173 C172 1.378 . S
C173 C174 1.361 . S
C174 H158 0.942 . S
C174 C173 1.361 . S
C174 C175 1.369 . S
C175 C174 1.369 . S
C175 C176 1.404 . S
C176 H159 0.940 . S
C176 C175 1.404 . S
C176 C177 1.389 . S
C177 H160 0.939 . S
C177 C172 1.400 . S
C177 C176 1.389 . S
C178 P152 1.819 . S
C178 C179 1.391 . S
C178 C183 1.391 . S
C179 H161 0.941 . S
C179 C178 1.391 . S
C179 C180 1.396 . S
C180 H164 0.939 . S
C180 C179 1.396 . S
C180 C181 1.397 . S
C181 C180 1.397 . S
C181 C182 1.385 . S
C182 H165 0.940 . S
C182 C181 1.385 . S
C182 C183 1.388 . S
C183 H162 0.939 . S
C183 C178 1.391 . S
C183 C182 1.388 . S
P184 O195 1.490 . S
P184 C198 1.812 . S
P184 C204 1.803 . S
P184 C210 1.819 . S
H185 C199 0.941 . S
H186 C200 0.939 . S
H187 C202 0.940 . S
H188 C203 0.940 . S
H189 C205 0.939 . S
H190 C206 0.942 . S
H191 C208 0.940 . S
H192 C209 0.939 1_455 S
H193 C211 0.941 . S
H194 C215 0.939 1_655 S
O195 P184 1.490 . S
H196 C212 0.939 . S
H197 C214 0.940 1_655 S
C198 P184 1.812 . S
C198 C199 1.389 . S
C198 C203 1.391 . S
C199 H185 0.941 . S
C199 C198 1.389 . S
C199 C200 1.397 . S
C200 H186 0.939 . S
C200 C199 1.397 . S
C200 C201 1.378 . S
C201 C200 1.378 . S
C201 C202 1.378 . S
C202 H187 0.940 . S
C202 C201 1.378 . S
C202 C203 1.396 . S
C203 H188 0.940 . S
C203 C198 1.391 . S
C203 C202 1.396 . S
C204 P184 1.803 . S
C204 C205 1.378 1_455 S
C204 C209 1.400 1_455 S
C205 H189 0.939 . S
C205 C204 1.378 1_655 S
C205 C206 1.361 . S
C206 H190 0.942 . S
C206 C205 1.361 . S
C206 C207 1.369 . S
C207 C206 1.369 . S
C207 C208 1.404 . S
C208 H191 0.940 . S
C208 C207 1.404 . S
C208 C209 1.389 . S
C209 H192 0.939 1_655 S
C209 C204 1.400 1_655 S
C209 C208 1.389 . S
C210 P184 1.819 . S
C210 C211 1.391 . S
C210 C215 1.391 . S
C211 H193 0.941 . S
C211 C210 1.391 . S
C211 C212 1.396 . S
C212 H196 0.939 . S
C212 C211 1.396 . S
C212 C213 1.397 . S
C213 C212 1.397 . S
C213 C214 1.385 . S
C214 H197 0.940 1_455 S
C214 C213 1.385 . S
C214 C215 1.388 . S
C215 H194 0.939 1_455 S
C215 C210 1.391 . S
C215 C214 1.388 . S
P216 O227 1.490 . S
P216 C230 1.812 . S
P216 C236 1.803 1_455 S
P216 C242 1.819 . S
H217 C231 0.941 . S
H218 C232 0.939 . S
H219 C234 0.940 . S
H220 C235 0.940 . S
H221 C237 0.939 . S
H222 C238 0.942 . S
H223 C240 0.940 . S
H224 C241 0.939 . S
H225 C243 0.941 . S
H226 C247 0.939 . S
O227 P216 1.490 . S
H228 C244 0.939 . S
H229 C246 0.940 . S
C230 P216 1.812 . S
C230 C231 1.389 . S
C230 C235 1.391 . S
C231 H217 0.941 . S
C231 C230 1.389 . S
C231 C232 1.397 . S
C232 H218 0.939 . S
C232 C231 1.397 . S
C232 C233 1.378 . S
C233 C232 1.378 . S
C233 C234 1.378 . S
C234 H219 0.940 . S
C234 C233 1.378 . S
C234 C235 1.396 . S
C235 H220 0.940 . S
C235 C230 1.391 . S
C235 C234 1.396 . S
C236 P216 1.803 1_655 S
C236 C237 1.378 . S
C236 C241 1.400 . S
C237 H221 0.939 . S
C237 C236 1.378 . S
C237 C238 1.361 . S
C238 H222 0.942 . S
C238 C237 1.361 . S
C238 C239 1.369 . S
C239 C238 1.369 . S
C239 C240 1.404 . S
C240 H223 0.940 . S
C240 C239 1.404 . S
C240 C241 1.389 . S
C241 H224 0.939 . S
C241 C236 1.400 . S
C241 C240 1.389 . S
C242 P216 1.819 . S
C242 C243 1.391 . S
C242 C247 1.391 1_455 S
C243 H225 0.941 . S
C243 C242 1.391 . S
C243 C244 1.396 . S
C244 H228 0.939 . S
C244 C243 1.396 . S
C244 C245 1.397 . S
C245 C244 1.397 . S
C245 C246 1.385 1_455 S
C246 H229 0.940 . S
C246 C245 1.385 1_655 S
C246 C247 1.388 . S
C247 H226 0.939 . S
C247 C242 1.391 1_655 S
C247 C246 1.388 . S
P248 O259 1.490 . S
P248 C262 1.812 . S
P248 C268 1.803 1_545 S
P248 C274 1.819 . S
H249 C263 0.941 . S
H250 C264 0.939 . S
H251 C266 0.940 . S
H252 C267 0.940 . S
H253 C269 0.939 . S
H254 C270 0.942 . S
H255 C272 0.940 . S
H256 C273 0.939 . S
H257 C275 0.941 . S
H258 C279 0.939 . S
O259 P248 1.490 . S
H260 C276 0.939 . S
H261 C278 0.940 . S
C262 P248 1.812 . S
C262 C263 1.389 . S
C262 C267 1.391 . S
C263 H249 0.941 . S
C263 C262 1.389 . S
C263 C264 1.397 . S
C264 H250 0.939 . S
C264 C263 1.397 . S
C264 C265 1.378 . S
C265 C264 1.378 . S
C265 C266 1.378 . S
C266 H251 0.940 . S
C266 C265 1.378 . S
C266 C267 1.396 . S
C267 H252 0.940 . S
C267 C262 1.391 . S
C267 C266 1.396 . S
C268 P248 1.803 1_565 S
C268 C269 1.378 . S
C268 C273 1.400 . S
C269 H253 0.939 . S
C269 C268 1.378 . S
C269 C270 1.361 . S
C270 H254 0.942 . S
C270 C269 1.361 . S
C270 C271 1.369 . S
C271 C270 1.369 . S
C271 C272 1.404 . S
C272 H255 0.940 . S
C272 C271 1.404 . S
C272 C273 1.389 . S
C273 H256 0.939 . S
C273 C268 1.400 . S
C273 C272 1.389 . S
C274 P248 1.819 . S
C274 C275 1.391 . S
C274 C279 1.391 1_545 S
C275 H257 0.941 . S
C275 C274 1.391 . S
C275 C276 1.396 . S
C276 H260 0.939 . S
C276 C275 1.396 . S
C276 C277 1.397 . S
C277 C276 1.397 . S
C277 C278 1.385 1_545 S
C278 H261 0.940 . S
C278 C277 1.385 1_565 S
C278 C279 1.388 . S
C279 H258 0.939 . S
C279 C274 1.391 1_565 S
C279 C278 1.388 . S
P280 O291 1.490 . S
P280 C294 1.812 . S
P280 C300 1.803 . S
P280 C306 1.819 . S
H281 C295 0.941 . S
H282 C296 0.939 . S
H283 C298 0.940 . S
H284 C299 0.940 . S
H285 C301 0.939 . S
H286 C302 0.942 . S
H287 C304 0.940 . S
H288 C305 0.939 . S
H289 C307 0.941 . S
H290 C311 0.939 . S
O291 P280 1.490 . S
H292 C308 0.939 . S
H293 C310 0.940 . S
C294 P280 1.812 . S
C294 C295 1.389 . S
C294 C299 1.391 . S
C295 H281 0.941 . S
C295 C294 1.389 . S
C295 C296 1.397 . S
C296 H282 0.939 . S
C296 C295 1.397 . S
C296 C297 1.378 . S
C297 C296 1.378 . S
C297 C298 1.378 . S
C298 H283 0.940 . S
C298 C297 1.378 . S
C298 C299 1.396 . S
C299 H284 0.940 . S
C299 C294 1.391 . S
C299 C298 1.396 . S
C300 P280 1.803 . S
C300 C301 1.378 . S
C300 C305 1.400 . S
C301 H285 0.939 . S
C301 C300 1.378 . S
C301 C302 1.361 . S
C302 H286 0.942 . S
C302 C301 1.361 . S
C302 C303 1.369 . S
C303 C302 1.369 . S
C303 C304 1.404 . S
C304 H287 0.940 . S
C304 C303 1.404 . S
C304 C305 1.389 . S
C305 H288 0.939 . S
C305 C300 1.400 . S
C305 C304 1.389 . S
C306 P280 1.819 . S
C306 C307 1.391 . S
C306 C311 1.391 . S
C307 H289 0.941 . S
C307 C306 1.391 . S
C307 C308 1.396 . S
C308 H292 0.939 . S
C308 C307 1.396 . S
C308 C309 1.397 . S
C309 C308 1.397 . S
C309 C310 1.385 . S
C310 H293 0.940 . S
C310 C309 1.385 . S
C310 C311 1.388 . S
C311 H290 0.939 . S
C311 C306 1.391 . S
C311 C310 1.388 . S
H312 C320 0.950 . S
H313 C325 0.950 . S
H314 C322 0.950 . S
H315 C324 0.950 . S
H316 C326 0.950 . S
H317 C328 0.950 . S
H318 C330 0.950 . S
H319 C331 0.950 . S
C320 H312 0.950 . S
C320 C321 1.386 . S
C320 C322 1.391 . S
C321 C320 1.386 . S
C321 C325 1.393 . S
C322 H314 0.950 . S
C322 C320 1.391 . S
C322 C323 1.400 . S
C323 C322 1.400 . S
C323 C324 1.398 . S
C323 C329 1.491 . S
C324 H315 0.950 . S
C324 C323 1.398 . S
C324 C325 1.391 . S
C325 H313 0.950 . S
C325 C321 1.393 . S
C325 C324 1.391 . S
C326 H316 0.950 . S
C326 C327 1.386 . S
C326 C328 1.391 . S
C327 C326 1.386 . S
C327 C331 1.393 . S
C328 H317 0.950 . S
C328 C326 1.391 . S
C328 C329 1.400 . S
C329 C323 1.491 . S
C329 C328 1.400 . S
C329 C330 1.398 . S
C330 H318 0.950 . S
C330 C329 1.398 . S
C330 C331 1.391 . S
C331 H319 0.950 . S
C331 C327 1.393 . S
C331 C330 1.391 . S
H332 C340 0.950 . S
H333 C345 0.950 . S
H334 C342 0.950 . S
H335 C344 0.950 . S
H336 C346 0.950 . S
H337 C348 0.950 . S
H338 C350 0.950 . S
H339 C351 0.950 . S
C340 H332 0.950 . S
C340 C341 1.386 . S
C340 C342 1.391 . S
C341 C340 1.386 . S
C341 C345 1.393 . S
C342 H334 0.950 . S
C342 C340 1.391 . S
C342 C343 1.400 . S
C343 C342 1.400 . S
C343 C344 1.398 . S
C343 C349 1.491 . S
C344 H335 0.950 . S
C344 C343 1.398 . S
C344 C345 1.391 . S
C345 H333 0.950 . S
C345 C341 1.393 . S
C345 C344 1.391 . S
C346 H336 0.950 . S
C346 C347 1.386 . S
C346 C348 1.391 . S
C347 C346 1.386 . S
C347 C351 1.393 . S
C348 H337 0.950 . S
C348 C346 1.391 . S
C348 C349 1.400 . S
C349 C343 1.491 . S
C349 C348 1.400 . S
C349 C350 1.398 . S
C350 H338 0.950 . S
C350 C349 1.398 . S
C350 C351 1.391 . S
C351 H339 0.950 . S
C351 C347 1.393 . S
C351 C350 1.391 . S
H352 C360 0.950 . S
H353 C365 0.950 . S
H354 C362 0.950 . S
H355 C364 0.950 . S
H356 C366 0.950 . S
H357 C368 0.950 . S
H358 C370 0.950 . S
H359 C371 0.950 . S
C360 H352 0.950 . S
C360 C361 1.386 . S
C360 C362 1.391 . S
C361 C360 1.386 . S
C361 C365 1.393 . S
C362 H354 0.950 . S
C362 C360 1.391 . S
C362 C363 1.400 . S
C363 C362 1.400 . S
C363 C364 1.398 . S
C363 C369 1.491 . S
C364 H355 0.950 . S
C364 C363 1.398 . S
C364 C365 1.391 . S
C365 H353 0.950 . S
C365 C361 1.393 . S
C365 C364 1.391 . S
C366 H356 0.950 . S
C366 C367 1.386 . S
C366 C368 1.391 . S
C367 C366 1.386 . S
C367 C371 1.393 . S
C368 H357 0.950 . S
C368 C366 1.391 . S
C368 C369 1.400 . S
C369 C363 1.491 . S
C369 C368 1.400 . S
C369 C370 1.398 . S
C370 H358 0.950 . S
C370 C369 1.398 . S
C370 C371 1.391 . S
C371 H359 0.950 . S
C371 C367 1.393 . S
C371 C370 1.391 . S
H372 C380 0.950 . S
H373 C385 0.950 . S
H374 C382 0.950 . S
H375 C384 0.950 . S
H376 C386 0.950 . S
H377 C388 0.950 . S
H378 C390 0.950 . S
H379 C391 0.950 . S
C380 H372 0.950 . S
C380 C381 1.386 . S
C380 C382 1.391 . S
C381 C380 1.386 . S
C381 C385 1.393 . S
C382 H374 0.950 . S
C382 C380 1.391 . S
C382 C383 1.400 . S
C383 C382 1.400 . S
C383 C384 1.398 . S
C383 C389 1.491 . S
C384 H375 0.950 . S
C384 C383 1.398 . S
C384 C385 1.391 . S
C385 H373 0.950 . S
C385 C381 1.393 . S
C385 C384 1.391 . S
C386 H376 0.950 . S
C386 C387 1.386 . S
C386 C388 1.391 . S
C387 C386 1.386 . S
C387 C391 1.393 . S
C388 H377 0.950 . S
C388 C386 1.391 . S
C388 C389 1.400 . S
C389 C383 1.491 . S
C389 C388 1.400 . S
C389 C390 1.398 . S
C390 H378 0.950 . S
C390 C389 1.398 . S
C390 C391 1.391 . S
C391 H379 0.950 . S
C391 C387 1.393 . S
C391 C390 1.391 . S
H392 C400 0.950 . S
H393 C405 0.950 . S
H394 C402 0.950 . S
H395 C404 0.950 . S
H396 C406 0.950 . S
H397 C408 0.950 . S
H398 C410 0.950 . S
H399 C411 0.950 . S
C400 H392 0.950 . S
C400 C401 1.386 . S
C400 C402 1.391 . S
C401 C400 1.386 . S
C401 C405 1.393 . S
C402 H394 0.950 . S
C402 C400 1.391 . S
C402 C403 1.400 . S
C403 C402 1.400 . S
C403 C404 1.398 . S
C403 C409 1.491 . S
C404 H395 0.950 . S
C404 C403 1.398 . S
C404 C405 1.391 . S
C405 H393 0.950 . S
C405 C401 1.393 . S
C405 C404 1.391 . S
C406 H396 0.950 . S
C406 C407 1.386 . S
C406 C408 1.391 . S
C407 C406 1.386 . S
C407 C411 1.393 . S
C408 H397 0.950 . S
C408 C406 1.391 . S
C408 C409 1.400 . S
C409 C403 1.491 . S
C409 C408 1.400 . S
C409 C410 1.398 . S
C410 H398 0.950 . S
C410 C409 1.398 . S
C410 C411 1.391 . S
C411 H399 0.950 . S
C411 C407 1.393 . S
C411 C410 1.391 . S
H412 C420 0.950 . S
H413 C425 0.950 . S
H414 C422 0.950 . S
H415 C424 0.950 . S
H416 C426 0.950 . S
H417 C428 0.950 . S
H418 C430 0.950 . S
H419 C431 0.950 . S
C420 H412 0.950 . S
C420 C421 1.386 . S
C420 C422 1.391 . S
C421 C420 1.386 . S
C421 C425 1.393 . S
C422 H414 0.950 . S
C422 C420 1.391 . S
C422 C423 1.400 . S
C423 C422 1.400 . S
C423 C424 1.398 . S
C423 C429 1.491 . S
C424 H415 0.950 . S
C424 C423 1.398 . S
C424 C425 1.391 . S
C425 H413 0.950 . S
C425 C421 1.393 . S
C425 C424 1.391 . S
C426 H416 0.950 . S
C426 C427 1.386 . S
C426 C428 1.391 . S
C427 C426 1.386 . S
C427 C431 1.393 . S
C428 H417 0.950 . S
C428 C426 1.391 . S
C428 C429 1.400 . S
C429 C423 1.491 . S
C429 C428 1.400 . S
C429 C430 1.398 . S
C430 H418 0.950 . S
C430 C429 1.398 . S
C430 C431 1.391 . S
C431 H419 0.950 . S
C431 C427 1.393 . S
C431 C430 1.391 . S
H432 C440 0.950 . S
H433 C445 0.950 . S
H434 C442 0.950 . S
H435 C444 0.950 . S
H436 C446 0.950 . S
H437 C448 0.950 . S
H438 C450 0.950 . S
H439 C451 0.950 . S
C440 H432 0.950 . S
C440 C441 1.386 . S
C440 C442 1.391 . S
C441 C440 1.386 . S
C441 C445 1.393 . S
C442 H434 0.950 . S
C442 C440 1.391 . S
C442 C443 1.400 . S
C443 C442 1.400 . S
C443 C444 1.398 . S
C443 C449 1.491 . S
C444 H435 0.950 . S
C444 C443 1.398 . S
C444 C445 1.391 . S
C445 H433 0.950 . S
C445 C441 1.393 . S
C445 C444 1.391 . S
C446 H436 0.950 . S
C446 C447 1.386 . S
C446 C448 1.391 . S
C447 C446 1.386 . S
C447 C451 1.393 . S
C448 H437 0.950 . S
C448 C446 1.391 . S
C448 C449 1.400 . S
C449 C443 1.491 . S
C449 C448 1.400 . S
C449 C450 1.398 . S
C450 H438 0.950 . S
C450 C449 1.398 . S
C450 C451 1.391 . S
C451 H439 0.950 . S
C451 C447 1.393 . S
C451 C450 1.391 . S
H452 C460 0.950 . S
H453 C465 0.950 . S
H454 C462 0.950 . S
H455 C464 0.950 . S
H456 C466 0.950 . S
H457 C468 0.950 . S
H458 C470 0.950 . S
H459 C471 0.950 . S
C460 H452 0.950 . S
C460 C461 1.386 . S
C460 C462 1.391 . S
C461 C460 1.386 . S
C461 C465 1.393 . S
C462 H454 0.950 . S
C462 C460 1.391 . S
C462 C463 1.400 . S
C463 C462 1.400 . S
C463 C464 1.398 . S
C463 C469 1.491 . S
C464 H455 0.950 . S
C464 C463 1.398 . S
C464 C465 1.391 . S
C465 H453 0.950 . S
C465 C461 1.393 . S
C465 C464 1.391 . S
C466 H456 0.950 . S
C466 C467 1.386 . S
C466 C468 1.391 . S
C467 C466 1.386 . S
C467 C471 1.393 . S
C468 H457 0.950 . S
C468 C466 1.391 . S
C468 C469 1.400 . S
C469 C463 1.491 . S
C469 C468 1.400 . S
C469 C470 1.398 . S
C470 H458 0.950 . S
C470 C469 1.398 . S
C470 C471 1.391 . S
C471 H459 0.950 . S
C471 C467 1.393 . S
C471 C470 1.391 . S
H472 C480 0.950 . S
H473 C485 0.950 . S
H474 C482 0.950 . S
H475 C484 0.950 . S
H476 C486 0.950 . S
H477 C488 0.950 . S
H478 C490 0.950 . S
H479 C491 0.950 . S
C480 H472 0.950 . S
C480 C481 1.386 . S
C480 C482 1.391 . S
C481 C480 1.386 . S
C481 C485 1.393 . S
C482 H474 0.950 . S
C482 C480 1.391 . S
C482 C483 1.400 . S
C483 C482 1.400 . S
C483 C484 1.398 . S
C483 C489 1.491 . S
C484 H475 0.950 . S
C484 C483 1.398 . S
C484 C485 1.391 . S
C485 H473 0.950 . S
C485 C481 1.393 . S
C485 C484 1.391 . S
C486 H476 0.950 . S
C486 C487 1.386 . S
C486 C488 1.391 . S
C487 C486 1.386 . S
C487 C491 1.393 . S
C488 H477 0.950 . S
C488 C486 1.391 . S
C488 C489 1.400 . S
C489 C483 1.491 . S
C489 C488 1.400 . S
C489 C490 1.398 . S
C490 H478 0.950 . S
C490 C489 1.398 . S
C490 C491 1.391 . S
C491 H479 0.950 . S
C491 C487 1.393 . S
C491 C490 1.391 . S
H492 C500 0.950 . S
H493 C505 0.950 . S
H494 C502 0.950 . S
H495 C504 0.950 . S
H496 C506 0.950 . S
H497 C508 0.950 . S
H498 C510 0.950 . S
H499 C511 0.950 . S
C500 H492 0.950 . S
C500 C501 1.386 . S
C500 C502 1.391 . S
C501 C500 1.386 . S
C501 C505 1.393 . S
C502 H494 0.950 . S
C502 C500 1.391 . S
C502 C503 1.400 . S
C503 C502 1.400 . S
C503 C504 1.398 . S
C503 C509 1.491 . S
C504 H495 0.950 . S
C504 C503 1.398 . S
C504 C505 1.391 . S
C505 H493 0.950 . S
C505 C501 1.393 . S
C505 C504 1.391 . S
C506 H496 0.950 . S
C506 C507 1.386 . S
C506 C508 1.391 . S
C507 C506 1.386 . S
C507 C511 1.393 . S
C508 H497 0.950 . S
C508 C506 1.391 . S
C508 C509 1.400 . S
C509 C503 1.491 . S
C509 C508 1.400 . S
C509 C510 1.398 . S
C510 H498 0.950 . S
C510 C509 1.398 . S
C510 C511 1.391 . S
C511 H499 0.950 . S
C511 C507 1.393 . S
C511 C510 1.391 . S
H512 C520 0.950 . S
H513 C525 0.950 . S
H514 C522 0.950 . S
H515 C524 0.950 . S
H516 C526 0.950 . S
H517 C528 0.950 . S
H518 C530 0.950 . S
H519 C531 0.950 . S
C520 H512 0.950 . S
C520 C521 1.386 . S
C520 C522 1.391 . S
C521 C520 1.386 . S
C521 C525 1.393 . S
C522 H514 0.950 . S
C522 C520 1.391 . S
C522 C523 1.400 . S
C523 C522 1.400 . S
C523 C524 1.398 . S
C523 C529 1.491 . S
C524 H515 0.950 . S
C524 C523 1.398 . S
C524 C525 1.391 . S
C525 H513 0.950 . S
C525 C521 1.393 . S
C525 C524 1.391 . S
C526 H516 0.950 . S
C526 C527 1.386 . S
C526 C528 1.391 . S
C527 C526 1.386 . S
C527 C531 1.393 . S
C528 H517 0.950 . S
C528 C526 1.391 . S
C528 C529 1.400 . S
C529 C523 1.491 . S
C529 C528 1.400 . S
C529 C530 1.398 . S
C530 H518 0.950 . S
C530 C529 1.398 . S
C530 C531 1.391 . S
C531 H519 0.950 . S
C531 C527 1.393 . S
C531 C530 1.391 . S
H532 C540 0.950 . S
H533 C545 0.950 . S
H534 C542 0.950 . S
H535 C544 0.950 . S
H536 C546 0.950 . S
H537 C548 0.950 . S
H538 C550 0.950 . S
H539 C551 0.950 . S
C540 H532 0.950 . S
C540 C541 1.386 . S
C540 C542 1.391 . S
C541 C540 1.386 . S
C541 C545 1.393 . S
C542 H534 0.950 . S
C542 C540 1.391 . S
C542 C543 1.400 . S
C543 C542 1.400 . S
C543 C544 1.398 . S
C543 C549 1.491 . S
C544 H535 0.950 . S
C544 C543 1.398 . S
C544 C545 1.391 . S
C545 H533 0.950 . S
C545 C541 1.393 . S
C545 C544 1.391 . S
C546 H536 0.950 . S
C546 C547 1.386 . S
C546 C548 1.391 . S
C547 C546 1.386 . S
C547 C551 1.393 . S
C548 H537 0.950 . S
C548 C546 1.391 . S
C548 C549 1.400 . S
C549 C543 1.491 . S
C549 C548 1.400 . S
C549 C550 1.398 . S
C550 H538 0.950 . S
C550 C549 1.398 . S
C550 C551 1.391 . S
C551 H539 0.950 . S
C551 C547 1.393 . S
C551 C550 1.391 . S
H552 C560 0.950 . S
H553 C565 0.950 . S
H554 C562 0.950 . S
H555 C564 0.950 . S
H556 C566 0.950 1_556 S
H557 C568 0.950 . S
H558 C570 0.948 . S
H559 C571 0.950 1_656 S
C560 H552 0.950 . S
C560 C561 1.386 1_655 S
C560 C562 1.391 . S
C561 C560 1.386 1_455 S
C561 C565 1.393 . S
C562 H554 0.950 . S
C562 C560 1.391 . S
C562 C563 1.400 1_655 S
C563 C562 1.400 1_455 S
C563 C564 1.398 . S
C563 C569 1.491 . S
C564 H555 0.950 . S
C564 C563 1.398 . S
C564 C565 1.391 . S
C565 H553 0.950 . S
C565 C561 1.393 . S
C565 C564 1.391 . S
C566 H556 0.950 1_554 S
C566 C567 1.386 1_554 S
C566 C568 1.391 . S
C567 C566 1.386 1_556 S
C567 C571 1.393 1_556 S
C568 H557 0.950 . S
C568 C566 1.391 . S
C568 C569 1.400 . S
C569 C563 1.491 . S
C569 C568 1.400 . S
C569 C570 1.401 1_455 S
C570 H558 0.948 . S
C570 C569 1.401 1_655 S
C570 C571 1.391 1_655 S
C571 H559 0.950 1_454 S
C571 C567 1.393 1_554 S
C571 C570 1.391 1_455 S
H572 C580 0.950 . S
H573 C585 0.950 . S
H574 C582 0.950 . S
H575 C584 0.950 . S
H576 C586 0.950 . S
H577 C588 0.950 . S
H578 C590 0.950 . S
H579 C591 0.950 . S
C580 H572 0.950 . S
C580 C581 1.386 . S
C580 C582 1.391 . S
C581 C580 1.386 . S
C581 C585 1.393 . S
C582 H574 0.950 . S
C582 C580 1.391 . S
C582 C583 1.400 . S
C583 C582 1.400 . S
C583 C584 1.398 . S
C583 C589 1.491 . S
C584 H575 0.950 . S
C584 C583 1.398 . S
C584 C585 1.391 . S
C585 H573 0.950 . S
C585 C581 1.393 . S
C585 C584 1.391 . S
C586 H576 0.950 . S
C586 C587 1.386 . S
C586 C588 1.391 . S
C587 C586 1.386 . S
C587 C591 1.393 . S
C588 H577 0.950 . S
C588 C586 1.391 . S
C588 C589 1.400 . S
C589 C583 1.491 . S
C589 C588 1.400 . S
C589 C590 1.398 . S
C590 H578 0.950 . S
C590 C589 1.398 . S
C590 C591 1.391 . S
C591 H579 0.950 . S
C591 C587 1.393 . S
C591 C590 1.391 . S
H592 C600 0.950 . S
H593 C605 0.950 . S
H594 C602 0.950 . S
H595 C604 0.950 . S
H596 C606 0.950 . S
H597 C608 0.950 . S
H598 C610 0.950 . S
H599 C611 0.950 . S
C600 H592 0.950 . S
C600 C601 1.386 . S
C600 C602 1.391 . S
C601 C600 1.386 . S
C601 C605 1.393 . S
C602 H594 0.950 . S
C602 C600 1.391 . S
C602 C603 1.400 . S
C603 C602 1.400 . S
C603 C604 1.398 . S
C603 C609 1.491 . S
C604 H595 0.950 . S
C604 C603 1.398 . S
C604 C605 1.391 . S
C605 H593 0.950 . S
C605 C601 1.393 . S
C605 C604 1.391 . S
C606 H596 0.950 . S
C606 C607 1.386 . S
C606 C608 1.391 . S
C607 C606 1.386 . S
C607 C611 1.393 . S
C608 H597 0.950 . S
C608 C606 1.391 . S
C608 C609 1.400 . S
C609 C603 1.491 . S
C609 C608 1.400 . S
C609 C610 1.398 . S
C610 H598 0.950 . S
C610 C609 1.398 . S
C610 C611 1.391 . S
C611 H599 0.950 . S
C611 C607 1.393 . S
C611 C610 1.391 . S
H612 C620 0.950 . S
H613 C625 0.950 . S
H614 C622 0.950 . S
H615 C624 0.950 . S
H616 C626 0.950 . S
H617 C628 0.950 . S
H618 C630 0.950 . S
H619 C631 0.950 . S
C620 H612 0.950 . S
C620 C621 1.386 1_565 S
C620 C622 1.391 . S
C621 C620 1.386 1_545 S
C621 C625 1.393 . S
C622 H614 0.950 . S
C622 C620 1.391 . S
C622 C623 1.400 1_565 S
C623 C622 1.400 1_545 S
C623 C624 1.398 . S
C623 C629 1.491 . S
C624 H615 0.950 . S
C624 C623 1.398 . S
C624 C625 1.391 . S
C625 H613 0.950 . S
C625 C621 1.393 . S
C625 C624 1.391 . S
C626 H616 0.950 . S
C626 C627 1.386 . S
C626 C628 1.391 . S
C627 C626 1.386 . S
C627 C631 1.393 1_545 S
C628 H617 0.950 . S
C628 C626 1.391 . S
C628 C629 1.400 . S
C629 C623 1.491 . S
C629 C628 1.400 . S
C629 C630 1.398 1_545 S
C630 H618 0.950 . S
C630 C629 1.398 1_565 S
C630 C631 1.391 . S
C631 H619 0.950 . S
C631 C627 1.393 1_565 S
C631 C630 1.391 . S
H632 C640 0.950 . S
H633 C645 0.950 . S
H634 C642 0.950 . S
H635 C644 0.950 . S
H636 C646 0.950 . S
H637 C648 0.950 . S
H638 C650 0.950 . S
H639 C651 0.951 . S
C640 H632 0.950 . S
C640 C641 1.386 . S
C640 C642 1.391 . S
C641 C640 1.386 . S
C641 C645 1.393 . S
C642 H634 0.950 . S
C642 C640 1.391 . S
C642 C643 1.400 . S
C643 C642 1.400 . S
C643 C644 1.398 . S
C643 C649 1.491 . S
C644 H635 0.950 . S
C644 C643 1.398 . S
C644 C645 1.391 . S
C645 H633 0.950 . S
C645 C641 1.393 . S
C645 C644 1.391 . S
C646 H636 0.950 . S
C646 C647 1.386 . S
C646 C648 1.391 1_554 S
C647 C646 1.386 . S
C647 C651 1.395 . S
C648 H637 0.950 . S
C648 C646 1.391 1_556 S
C648 C649 1.400 . S
C649 C643 1.491 . S
C649 C648 1.400 . S
C649 C650 1.398 . S
C650 H638 0.950 . S
C650 C649 1.398 . S
C650 C651 1.387 1_556 S
C651 H639 0.951 . S
C651 C647 1.395 . S
C651 C650 1.387 1_554 S
H652 C660 0.950 . S
H653 C665 0.950 . S
H654 C662 0.950 . S
H655 C664 0.950 . S
H656 C666 0.950 . S
H657 C668 0.950 . S
H658 C670 0.950 . S
H659 C671 0.950 . S
C660 H652 0.950 . S
C660 C661 1.386 1_655 S
C660 C662 1.391 . S
C661 C660 1.386 1_455 S
C661 C665 1.393 . S
C662 H654 0.950 . S
C662 C660 1.391 . S
C662 C663 1.400 1_655 S
C663 C662 1.400 1_455 S
C663 C664 1.398 . S
C663 C669 1.491 . S
C664 H655 0.950 . S
C664 C663 1.398 . S
C664 C665 1.391 . S
C665 H653 0.950 . S
C665 C661 1.393 . S
C665 C664 1.391 . S
C666 H656 0.950 . S
C666 C667 1.386 . S
C666 C668 1.391 . S
C667 C666 1.386 . S
C667 C671 1.393 1_455 S
C668 H657 0.950 . S
C668 C666 1.391 . S
C668 C669 1.400 . S
C669 C663 1.491 . S
C669 C668 1.400 . S
C669 C670 1.398 1_455 S
C670 H658 0.950 . S
C670 C669 1.398 1_655 S
C670 C671 1.391 . S
C671 H659 0.950 . S
C671 C667 1.393 1_655 S
C671 C670 1.391 . S
C321 C10 3.061 . S
C327 C303 2.997 . S
C341 C55 1.216 . S
C347 C239 1.233 . S
C361 C90 1.886 . S
C367 C271 1.837 . S
C381 C19 2.975 . S
C387 C297 2.962 . S
C407 C233 1.264 . S
C401 C46 1.273 . S
C427 C265 1.941 . S
C421 C99 1.994 . S
C441 C50 1.894 . S
C447 C175 1.837 . S
C461 C95 0.574 . S
C467 C207 0.552 . S
C481 C6 1.301 . S
C487 C137 1.278 . S
C507 C169 1.917 . S
C501 C59 1.961 . S
C527 C201 0.453 . S
C521 C86 0.526 . S
C541 C15 1.275 . S
C547 C143 1.260 . S
C567 C213 1.113 . S
C561 C18 1.106 . S
C581 C49 1.455 . S
C587 C149 1.446 . S
C601 C98 1.343 . S
C607 C181 1.336 . S
C627 C277 1.364 . S
C621 C58 1.329 . S
C647 C309 1.741 . S
C641 C89 1.716 . S
C661 C9 1.468 . S
C667 C245 1.485 . S
