# Generated by pormake.
# Topology tbo, (3,4)-cn, num edge types: 1
# Building blocks:
#     Node 0, Type 0, BuildingBlock: WUSLED_clean_sbu_0, # of connection points: 3
#     Node 1, Type 0, BuildingBlock: WUSLED_clean_sbu_0, # of connection points: 3
#     Node 2, Type 0, BuildingBlock: WUSLED_clean_sbu_0, # of connection points: 3
#     Node 3, Type 0, BuildingBlock: WUSLED_clean_sbu_0, # of connection points: 3
#     Node 4, Type 0, BuildingBlock: WUSLED_clean_sbu_0, # of connection points: 3
#     Node 5, Type 0, BuildingBlock: WUSLED_clean_sbu_0, # of connection points: 3
#     Node 6, Type 0, BuildingBlock: WUSLED_clean_sbu_0, # of connection points: 3
#     Node 7, Type 0, BuildingBlock: WUSLED_clean_sbu_0, # of connection points: 3
#     Node 8, Type 0, BuildingBlock: WUSLED_clean_sbu_0, # of connection points: 3
#     Node 9, Type 0, BuildingBlock: WUSLED_clean_sbu_0, # of connection points: 3
#     Node 10, Type 0, BuildingBlock: WUSLED_clean_sbu_0, # of connection points: 3
#     Node 11, Type 0, BuildingBlock: WUSLED_clean_sbu_0, # of connection points: 3
#     Node 12, Type 0, BuildingBlock: WUSLED_clean_sbu_0, # of connection points: 3
#     Node 13, Type 0, BuildingBlock: WUSLED_clean_sbu_0, # of connection points: 3
#     Node 14, Type 0, BuildingBlock: WUSLED_clean_sbu_0, # of connection points: 3
#     Node 15, Type 0, BuildingBlock: WUSLED_clean_sbu_0, # of connection points: 3
#     Node 16, Type 0, BuildingBlock: WUSLED_clean_sbu_0, # of connection points: 3
#     Node 17, Type 0, BuildingBlock: WUSLED_clean_sbu_0, # of connection points: 3
#     Node 18, Type 0, BuildingBlock: WUSLED_clean_sbu_0, # of connection points: 3
#     Node 19, Type 0, BuildingBlock: WUSLED_clean_sbu_0, # of connection points: 3
#     Node 20, Type 0, BuildingBlock: WUSLED_clean_sbu_0, # of connection points: 3
#     Node 21, Type 0, BuildingBlock: WUSLED_clean_sbu_0, # of connection points: 3
#     Node 22, Type 0, BuildingBlock: WUSLED_clean_sbu_0, # of connection points: 3
#     Node 23, Type 0, BuildingBlock: WUSLED_clean_sbu_0, # of connection points: 3
#     Node 24, Type 0, BuildingBlock: WUSLED_clean_sbu_0, # of connection points: 3
#     Node 25, Type 0, BuildingBlock: WUSLED_clean_sbu_0, # of connection points: 3
#     Node 26, Type 0, BuildingBlock: WUSLED_clean_sbu_0, # of connection points: 3
#     Node 27, Type 0, BuildingBlock: WUSLED_clean_sbu_0, # of connection points: 3
#     Node 28, Type 0, BuildingBlock: WUSLED_clean_sbu_0, # of connection points: 3
#     Node 29, Type 0, BuildingBlock: WUSLED_clean_sbu_0, # of connection points: 3
#     Node 30, Type 0, BuildingBlock: WUSLED_clean_sbu_0, # of connection points: 3
#     Node 31, Type 0, BuildingBlock: WUSLED_clean_sbu_0, # of connection points: 3
#     Node 32, Type 1, BuildingBlock: KUFVIS_clean_linker_0, # of connection points: 4
#     Node 33, Type 1, BuildingBlock: KUFVIS_clean_linker_0, # of connection points: 4
#     Node 34, Type 1, BuildingBlock: KUFVIS_clean_linker_0, # of connection points: 4
#     Node 35, Type 1, BuildingBlock: KUFVIS_clean_linker_0, # of connection points: 4
#     Node 36, Type 1, BuildingBlock: KUFVIS_clean_linker_0, # of connection points: 4
#     Node 37, Type 1, BuildingBlock: KUFVIS_clean_linker_0, # of connection points: 4
#     Node 38, Type 1, BuildingBlock: KUFVIS_clean_linker_0, # of connection points: 4
#     Node 39, Type 1, BuildingBlock: KUFVIS_clean_linker_0, # of connection points: 4
#     Node 40, Type 1, BuildingBlock: KUFVIS_clean_linker_0, # of connection points: 4
#     Node 41, Type 1, BuildingBlock: KUFVIS_clean_linker_0, # of connection points: 4
#     Node 42, Type 1, BuildingBlock: KUFVIS_clean_linker_0, # of connection points: 4
#     Node 43, Type 1, BuildingBlock: KUFVIS_clean_linker_0, # of connection points: 4
#     Node 44, Type 1, BuildingBlock: KUFVIS_clean_linker_0, # of connection points: 4
#     Node 45, Type 1, BuildingBlock: KUFVIS_clean_linker_0, # of connection points: 4
#     Node 46, Type 1, BuildingBlock: KUFVIS_clean_linker_0, # of connection points: 4
#     Node 47, Type 1, BuildingBlock: KUFVIS_clean_linker_0, # of connection points: 4
#     Node 48, Type 1, BuildingBlock: KUFVIS_clean_linker_0, # of connection points: 4
#     Node 49, Type 1, BuildingBlock: KUFVIS_clean_linker_0, # of connection points: 4
#     Node 50, Type 1, BuildingBlock: KUFVIS_clean_linker_0, # of connection points: 4
#     Node 51, Type 1, BuildingBlock: KUFVIS_clean_linker_0, # of connection points: 4
#     Node 52, Type 1, BuildingBlock: KUFVIS_clean_linker_0, # of connection points: 4
#     Node 53, Type 1, BuildingBlock: KUFVIS_clean_linker_0, # of connection points: 4
#     Node 54, Type 1, BuildingBlock: KUFVIS_clean_linker_0, # of connection points: 4
#     Node 55, Type 1, BuildingBlock: KUFVIS_clean_linker_0, # of connection points: 4
#     Edge 56, Type (0, 1), BuildingBlock: TEMPAE_clean_linker_10, # of connection points: 2
#     Edge 57, Type (0, 1), BuildingBlock: TEMPAE_clean_linker_10, # of connection points: 2
#     Edge 58, Type (0, 1), BuildingBlock: TEMPAE_clean_linker_10, # of connection points: 2
#     Edge 59, Type (0, 1), BuildingBlock: TEMPAE_clean_linker_10, # of connection points: 2
#     Edge 60, Type (0, 1), BuildingBlock: TEMPAE_clean_linker_10, # of connection points: 2
#     Edge 61, Type (0, 1), BuildingBlock: TEMPAE_clean_linker_10, # of connection points: 2
#     Edge 62, Type (0, 1), BuildingBlock: TEMPAE_clean_linker_10, # of connection points: 2
#     Edge 63, Type (0, 1), BuildingBlock: TEMPAE_clean_linker_10, # of connection points: 2
#     Edge 64, Type (0, 1), BuildingBlock: TEMPAE_clean_linker_10, # of connection points: 2
#     Edge 65, Type (0, 1), BuildingBlock: TEMPAE_clean_linker_10, # of connection points: 2
#     Edge 66, Type (0, 1), BuildingBlock: TEMPAE_clean_linker_10, # of connection points: 2
#     Edge 67, Type (0, 1), BuildingBlock: TEMPAE_clean_linker_10, # of connection points: 2
#     Edge 68, Type (0, 1), BuildingBlock: TEMPAE_clean_linker_10, # of connection points: 2
#     Edge 69, Type (0, 1), BuildingBlock: TEMPAE_clean_linker_10, # of connection points: 2
#     Edge 70, Type (0, 1), BuildingBlock: TEMPAE_clean_linker_10, # of connection points: 2
#     Edge 71, Type (0, 1), BuildingBlock: TEMPAE_clean_linker_10, # of connection points: 2
#     Edge 72, Type (0, 1), BuildingBlock: TEMPAE_clean_linker_10, # of connection points: 2
#     Edge 73, Type (0, 1), BuildingBlock: TEMPAE_clean_linker_10, # of connection points: 2
#     Edge 74, Type (0, 1), BuildingBlock: TEMPAE_clean_linker_10, # of connection points: 2
#     Edge 75, Type (0, 1), BuildingBlock: TEMPAE_clean_linker_10, # of connection points: 2
#     Edge 76, Type (0, 1), BuildingBlock: TEMPAE_clean_linker_10, # of connection points: 2
#     Edge 77, Type (0, 1), BuildingBlock: TEMPAE_clean_linker_10, # of connection points: 2
#     Edge 78, Type (0, 1), BuildingBlock: TEMPAE_clean_linker_10, # of connection points: 2
#     Edge 79, Type (0, 1), BuildingBlock: TEMPAE_clean_linker_10, # of connection points: 2
#     Edge 80, Type (0, 1), BuildingBlock: TEMPAE_clean_linker_10, # of connection points: 2
#     Edge 81, Type (0, 1), BuildingBlock: TEMPAE_clean_linker_10, # of connection points: 2
#     Edge 82, Type (0, 1), BuildingBlock: TEMPAE_clean_linker_10, # of connection points: 2
#     Edge 83, Type (0, 1), BuildingBlock: TEMPAE_clean_linker_10, # of connection points: 2
#     Edge 84, Type (0, 1), BuildingBlock: TEMPAE_clean_linker_10, # of connection points: 2
#     Edge 85, Type (0, 1), BuildingBlock: TEMPAE_clean_linker_10, # of connection points: 2
#     Edge 86, Type (0, 1), BuildingBlock: TEMPAE_clean_linker_10, # of connection points: 2
#     Edge 87, Type (0, 1), BuildingBlock: TEMPAE_clean_linker_10, # of connection points: 2
#     Edge 88, Type (0, 1), BuildingBlock: TEMPAE_clean_linker_10, # of connection points: 2
#     Edge 89, Type (0, 1), BuildingBlock: TEMPAE_clean_linker_10, # of connection points: 2
#     Edge 90, Type (0, 1), BuildingBlock: TEMPAE_clean_linker_10, # of connection points: 2
#     Edge 91, Type (0, 1), BuildingBlock: TEMPAE_clean_linker_10, # of connection points: 2
#     Edge 92, Type (0, 1), BuildingBlock: TEMPAE_clean_linker_10, # of connection points: 2
#     Edge 93, Type (0, 1), BuildingBlock: TEMPAE_clean_linker_10, # of connection points: 2
#     Edge 94, Type (0, 1), BuildingBlock: TEMPAE_clean_linker_10, # of connection points: 2
#     Edge 95, Type (0, 1), BuildingBlock: TEMPAE_clean_linker_10, # of connection points: 2
#     Edge 96, Type (0, 1), BuildingBlock: TEMPAE_clean_linker_10, # of connection points: 2
#     Edge 97, Type (0, 1), BuildingBlock: TEMPAE_clean_linker_10, # of connection points: 2
#     Edge 98, Type (0, 1), BuildingBlock: TEMPAE_clean_linker_10, # of connection points: 2
#     Edge 99, Type (0, 1), BuildingBlock: TEMPAE_clean_linker_10, # of connection points: 2
#     Edge 100, Type (0, 1), BuildingBlock: TEMPAE_clean_linker_10, # of connection points: 2
#     Edge 101, Type (0, 1), BuildingBlock: TEMPAE_clean_linker_10, # of connection points: 2
#     Edge 102, Type (0, 1), BuildingBlock: TEMPAE_clean_linker_10, # of connection points: 2
#     Edge 103, Type (0, 1), BuildingBlock: TEMPAE_clean_linker_10, # of connection points: 2
#     Edge 104, Type (0, 1), BuildingBlock: TEMPAE_clean_linker_10, # of connection points: 2
#     Edge 105, Type (0, 1), BuildingBlock: TEMPAE_clean_linker_10, # of connection points: 2
#     Edge 106, Type (0, 1), BuildingBlock: TEMPAE_clean_linker_10, # of connection points: 2
#     Edge 107, Type (0, 1), BuildingBlock: TEMPAE_clean_linker_10, # of connection points: 2
#     Edge 108, Type (0, 1), BuildingBlock: TEMPAE_clean_linker_10, # of connection points: 2
#     Edge 109, Type (0, 1), BuildingBlock: TEMPAE_clean_linker_10, # of connection points: 2
#     Edge 110, Type (0, 1), BuildingBlock: TEMPAE_clean_linker_10, # of connection points: 2
#     Edge 111, Type (0, 1), BuildingBlock: TEMPAE_clean_linker_10, # of connection points: 2
#     Edge 112, Type (0, 1), BuildingBlock: TEMPAE_clean_linker_10, # of connection points: 2
#     Edge 113, Type (0, 1), BuildingBlock: TEMPAE_clean_linker_10, # of connection points: 2
#     Edge 114, Type (0, 1), BuildingBlock: TEMPAE_clean_linker_10, # of connection points: 2
#     Edge 115, Type (0, 1), BuildingBlock: TEMPAE_clean_linker_10, # of connection points: 2
#     Edge 116, Type (0, 1), BuildingBlock: TEMPAE_clean_linker_10, # of connection points: 2
#     Edge 117, Type (0, 1), BuildingBlock: TEMPAE_clean_linker_10, # of connection points: 2
#     Edge 118, Type (0, 1), BuildingBlock: TEMPAE_clean_linker_10, # of connection points: 2
#     Edge 119, Type (0, 1), BuildingBlock: TEMPAE_clean_linker_10, # of connection points: 2
#     Edge 120, Type (0, 1), BuildingBlock: TEMPAE_clean_linker_10, # of connection points: 2
#     Edge 121, Type (0, 1), BuildingBlock: TEMPAE_clean_linker_10, # of connection points: 2
#     Edge 122, Type (0, 1), BuildingBlock: TEMPAE_clean_linker_10, # of connection points: 2
#     Edge 123, Type (0, 1), BuildingBlock: TEMPAE_clean_linker_10, # of connection points: 2
#     Edge 124, Type (0, 1), BuildingBlock: TEMPAE_clean_linker_10, # of connection points: 2
#     Edge 125, Type (0, 1), BuildingBlock: TEMPAE_clean_linker_10, # of connection points: 2
#     Edge 126, Type (0, 1), BuildingBlock: TEMPAE_clean_linker_10, # of connection points: 2
#     Edge 127, Type (0, 1), BuildingBlock: TEMPAE_clean_linker_10, # of connection points: 2
#     Edge 128, Type (0, 1), BuildingBlock: TEMPAE_clean_linker_10, # of connection points: 2
#     Edge 129, Type (0, 1), BuildingBlock: TEMPAE_clean_linker_10, # of connection points: 2
#     Edge 130, Type (0, 1), BuildingBlock: TEMPAE_clean_linker_10, # of connection points: 2
#     Edge 131, Type (0, 1), BuildingBlock: TEMPAE_clean_linker_10, # of connection points: 2
#     Edge 132, Type (0, 1), BuildingBlock: TEMPAE_clean_linker_10, # of connection points: 2
#     Edge 133, Type (0, 1), BuildingBlock: TEMPAE_clean_linker_10, # of connection points: 2
#     Edge 134, Type (0, 1), BuildingBlock: TEMPAE_clean_linker_10, # of connection points: 2
#     Edge 135, Type (0, 1), BuildingBlock: TEMPAE_clean_linker_10, # of connection points: 2
#     Edge 136, Type (0, 1), BuildingBlock: TEMPAE_clean_linker_10, # of connection points: 2
#     Edge 137, Type (0, 1), BuildingBlock: TEMPAE_clean_linker_10, # of connection points: 2
#     Edge 138, Type (0, 1), BuildingBlock: TEMPAE_clean_linker_10, # of connection points: 2
#     Edge 139, Type (0, 1), BuildingBlock: TEMPAE_clean_linker_10, # of connection points: 2
#     Edge 140, Type (0, 1), BuildingBlock: TEMPAE_clean_linker_10, # of connection points: 2
#     Edge 141, Type (0, 1), BuildingBlock: TEMPAE_clean_linker_10, # of connection points: 2
#     Edge 142, Type (0, 1), BuildingBlock: TEMPAE_clean_linker_10, # of connection points: 2
#     Edge 143, Type (0, 1), BuildingBlock: TEMPAE_clean_linker_10, # of connection points: 2
#     Edge 144, Type (0, 1), BuildingBlock: TEMPAE_clean_linker_10, # of connection points: 2
#     Edge 145, Type (0, 1), BuildingBlock: TEMPAE_clean_linker_10, # of connection points: 2
#     Edge 146, Type (0, 1), BuildingBlock: TEMPAE_clean_linker_10, # of connection points: 2
#     Edge 147, Type (0, 1), BuildingBlock: TEMPAE_clean_linker_10, # of connection points: 2
#     Edge 148, Type (0, 1), BuildingBlock: TEMPAE_clean_linker_10, # of connection points: 2
#     Edge 149, Type (0, 1), BuildingBlock: TEMPAE_clean_linker_10, # of connection points: 2
#     Edge 150, Type (0, 1), BuildingBlock: TEMPAE_clean_linker_10, # of connection points: 2
#     Edge 151, Type (0, 1), BuildingBlock: TEMPAE_clean_linker_10, # of connection points: 2
# Relax obj value: 0.000
# Max RMSD: 0.055
# Mean RMSD: 0.026
data_MOF--net-tbo--node1-WUSLED_clean_sbu_0--node2-KUFVIS_clean_linker_0--edge1-TEMPAE_clean_linker_10
_symmetry_space_group_name_H-M    P1
_symmetry_Int_Tables_number       1
_symmetry_cell_setting            triclinic
loop_
_symmetry_equiv_pos_as_xyz
'x, y, z'
_cell_length_a     95.042327
_cell_length_b     95.35592
_cell_length_c     95.13993
_cell_angle_alpha  89.643279
_cell_angle_beta   90.293409
_cell_angle_gamma 90.820297
loop_
_atom_site_label
_atom_site_type_symbol
_atom_site_fract_x
_atom_site_fract_y
_atom_site_fract_z
_atom_type_partial_charge
C0 C 0.17984 0.14296 0.20253 0.0
C1 C 0.19094 0.13805 0.19429 0.0
C2 C 0.19608 0.11998 0.21187 0.0
C3 C 0.19896 0.12663 0.1989 0.0
C4 C 0.18483 0.1249 0.21995 0.0
C5 C 0.17682 0.13625 0.21533 0.0
U6 U 0.17147 0.17445 0.17826 0.0
O7 O 0.15089 0.1824 0.17136 0.0
O8 O 0.16495 0.19574 0.18402 0.0
C9 C 0.15253 0.19435 0.17802 0.0
C10 C 0.17143 0.15519 0.19822 0.0
C11 C 0.14041 0.19927 0.18623 0.0
C12 C 0.12144 0.19556 0.20305 0.0
C13 C 0.13296 0.19045 0.19553 0.0
C14 C 0.12476 0.21833 0.19207 0.0
C15 C 0.11723 0.20961 0.20146 0.0
C16 C 0.13619 0.21321 0.18456 0.0
C17 C 0.19535 0.18239 0.14627 0.0
C18 C 0.1925 0.2019 0.1299 0.0
C19 C 0.21251 0.18663 0.1278 0.0
C20 C 0.2077 0.17874 0.13929 0.0
C21 C 0.20506 0.1984 0.123 0.0
C22 C 0.18771 0.19399 0.14146 0.0
C23 C 0.19093 0.1741 0.15867 0.0
O24 O 0.17769 0.1675 0.19949 0.0
O25 O 0.1642 0.15394 0.18647 0.0
O26 O 0.17886 0.16727 0.15764 0.0
O27 O 0.19271 0.18022 0.1709 0.0
H28 H 0.19347 0.14312 0.18438 0.0
H29 H 0.20762 0.12321 0.19247 0.0
H30 H 0.18215 0.11993 0.22987 0.0
H31 H 0.16828 0.13985 0.22182 0.0
H32 H 0.11599 0.1886 0.21029 0.0
H33 H 0.13607 0.17965 0.19701 0.0
H34 H 0.12173 0.22912 0.1904 0.0
H35 H 0.14176 0.22018 0.17739 0.0
H36 H 0.18657 0.21096 0.12656 0.0
H37 H 0.22208 0.18348 0.12264 0.0
H38 H 0.21372 0.1698 0.14281 0.0
H39 H 0.17815 0.197 0.14675 0.0
C40 C 0.8299 0.1787 0.14474 0.0
C41 C 0.83831 0.18907 0.13827 0.0
C42 C 0.81922 0.1945 0.12189 0.0
C43 C 0.83303 0.19688 0.1269 0.0
C44 C 0.81093 0.184 0.12839 0.0
C45 C 0.81623 0.1762 0.13968 0.0
U46 U 0.85549 0.17125 0.17553 0.0
O47 O 0.85049 0.16402 0.19696 0.0
O48 O 0.86323 0.15092 0.18324 0.0
C49 C 0.85663 0.15189 0.1953 0.0
C50 C 0.83497 0.17044 0.15686 0.0
C51 C 0.84833 0.13947 0.19971 0.0
C52 C 0.82885 0.12292 0.19646 0.0
C53 C 0.83685 0.13449 0.19174 0.0
C54 C 0.84379 0.12118 0.21708 0.0
C55 C 0.83215 0.11621 0.20927 0.0
C56 C 0.85178 0.13268 0.21234 0.0
C57 C 0.88691 0.1961 0.18307 0.0
C58 C 0.90261 0.19382 0.20324 0.0
C59 C 0.90588 0.21307 0.1868 0.0
C60 C 0.89444 0.20813 0.17885 0.0
C61 C 0.91004 0.20607 0.19918 0.0
C62 C 0.89112 0.18889 0.19526 0.0
C63 C 0.8745 0.19157 0.17481 0.0
O64 O 0.84697 0.16396 0.15524 0.0
O65 O 0.83386 0.17644 0.16919 0.0
O66 O 0.86232 0.19263 0.18116 0.0
O67 O 0.87571 0.17981 0.16781 0.0
H68 H 0.84889 0.19119 0.14207 0.0
H69 H 0.83964 0.20498 0.12223 0.0
H70 H 0.80034 0.18176 0.12471 0.0
H71 H 0.80959 0.16821 0.14452 0.0
H72 H 0.81988 0.11946 0.19026 0.0
H73 H 0.834 0.13964 0.18197 0.0
H74 H 0.84675 0.11616 0.22687 0.0
H75 H 0.86062 0.13635 0.21862 0.0
H76 H 0.90544 0.18825 0.21277 0.0
H77 H 0.91146 0.2224 0.18324 0.0
H78 H 0.89138 0.21382 0.16945 0.0
H79 H 0.8854 0.17959 0.1987 0.0
C80 C 0.83329 0.84938 0.14652 0.0
C81 C 0.84091 0.8378 0.14187 0.0
C82 C 0.8236 0.83354 0.1232 0.0
C83 C 0.83613 0.82996 0.13028 0.0
C84 C 0.81616 0.84528 0.12785 0.0
C85 C 0.82095 0.85309 0.13937 0.0
U86 U 0.85747 0.85716 0.17843 0.0
O87 O 0.86502 0.87757 0.18649 0.0
O88 O 0.85163 0.86401 0.19964 0.0
C89 C 0.85809 0.87623 0.19835 0.0
C90 C 0.83776 0.85762 0.15889 0.0
C91 C 0.85013 0.88855 0.20294 0.0
C92 C 0.83011 0.90414 0.20121 0.0
C93 C 0.83763 0.89262 0.19625 0.0
C94 C 0.8476 0.9077 0.21948 0.0
C95 C 0.83498 0.91182 0.21294 0.0
C96 C 0.85507 0.89622 0.21452 0.0
C97 C 0.88872 0.83289 0.18673 0.0
C98 C 0.90461 0.83544 0.20676 0.0
C99 C 0.90722 0.81597 0.19081 0.0
C100 C 0.89588 0.8208 0.18281 0.0
C101 C 0.91169 0.82314 0.20297 0.0
C102 C 0.8932 0.84026 0.19872 0.0
C103 C 0.87651 0.83737 0.17828 0.0
O104 O 0.83614 0.85141 0.17116 0.0
O105 O 0.84978 0.86453 0.15782 0.0
O106 O 0.87794 0.8493 0.1714 0.0
O107 O 0.86416 0.8359 0.1843 0.0
H108 H 0.85046 0.83474 0.14727 0.0
H109 H 0.84206 0.82092 0.12708 0.0
H110 H 0.8066 0.84848 0.12255 0.0
H111 H 0.81494 0.86201 0.14276 0.0
H112 H 0.82052 0.90708 0.19582 0.0
H113 H 0.83365 0.88683 0.18726 0.0
H114 H 0.85157 0.91315 0.22867 0.0
H115 H 0.86466 0.89321 0.21988 0.0
H116 H 0.90768 0.84116 0.21611 0.0
H117 H 0.91253 0.8066 0.18744 0.0
H118 H 0.89261 0.81499 0.17356 0.0
H119 H 0.88778 0.84962 0.20193 0.0
C120 C 0.14193 0.83138 0.18452 0.0
C121 C 0.13543 0.83969 0.19468 0.0
C122 C 0.11867 0.82068 0.19993 0.0
C123 C 0.12387 0.8344 0.20229 0.0
C124 C 0.12521 0.81251 0.18964 0.0
C125 C 0.13669 0.8178 0.18204 0.0
U126 U 0.17271 0.85732 0.17712 0.0
O127 O 0.19432 0.85273 0.17051 0.0
O128 O 0.18066 0.86513 0.15675 0.0
C129 C 0.19284 0.85891 0.15822 0.0
C130 C 0.15421 0.83651 0.17643 0.0
C131 C 0.19787 0.85104 0.14595 0.0
C132 C 0.19689 0.8309 0.13034 0.0
C133 C 0.19157 0.8383 0.14182 0.0
C134 C 0.21474 0.84895 0.12696 0.0
C135 C 0.2086 0.83611 0.12277 0.0
C136 C 0.20943 0.85631 0.13841 0.0
C137 C 0.17884 0.88914 0.20162 0.0
C138 C 0.19914 0.90503 0.20108 0.0
C139 C 0.1802 0.9091 0.21741 0.0
C140 C 0.17303 0.89726 0.2123 0.0
C141 C 0.1934 0.91313 0.21194 0.0
C142 C 0.19192 0.89315 0.19596 0.0
C143 C 0.17122 0.87639 0.19694 0.0
O144 O 0.15263 0.84834 0.16946 0.0
O145 O 0.16646 0.83569 0.18283 0.0
O146 O 0.17792 0.86452 0.19848 0.0
O147 O 0.16446 0.87731 0.18489 0.0
H148 H 0.13934 0.85019 0.19678 0.0
H149 H 0.11919 0.84093 0.21022 0.0
H150 H 0.12139 0.802 0.1874 0.0
H151 H 0.14153 0.81125 0.17422 0.0
H152 H 0.1918 0.82112 0.12735 0.0
H153 H 0.18261 0.83406 0.14751 0.0
H154 H 0.22389 0.85319 0.1216 0.0
H155 H 0.21448 0.86609 0.14147 0.0
H156 H 0.2092 0.90788 0.19651 0.0
H157 H 0.17554 0.9149 0.22592 0.0
H158 H 0.16298 0.89431 0.21686 0.0
H159 H 0.19657 0.88703 0.18768 0.0
C160 C 0.13976 0.83368 0.85653 0.0
C161 C 0.13567 0.84123 0.84451 0.0
C162 C 0.11697 0.82401 0.83979 0.0
C163 C 0.12433 0.83645 0.83622 0.0
C164 C 0.12104 0.81665 0.85199 0.0
C165 C 0.13231 0.82144 0.86025 0.0
U166 U 0.17146 0.85794 0.86488 0.0
O167 O 0.17916 0.86545 0.88544 0.0
O168 O 0.19257 0.85234 0.87239 0.0
C169 C 0.19097 0.85851 0.88459 0.0
C170 C 0.15192 0.83811 0.86518 0.0
C171 C 0.19492 0.85016 0.89707 0.0
C172 C 0.1939 0.82864 0.91096 0.0
C173 C 0.18937 0.83662 0.8994 0.0
C174 C 0.20932 0.84776 0.91812 0.0
C175 C 0.20403 0.83407 0.92042 0.0
C176 C 0.2048 0.85569 0.90658 0.0
C177 C 0.18016 0.88907 0.84008 0.0
C178 C 0.19953 0.90574 0.84338 0.0
C179 C 0.18528 0.90673 0.82222 0.0
C180 C 0.17714 0.8954 0.8271 0.0
C181 C 0.19666 0.91199 0.83023 0.0
C182 C 0.19136 0.89433 0.84825 0.0
C183 C 0.17161 0.87687 0.84463 0.0
O184 O 0.16433 0.8366 0.85938 0.0
O185 O 0.15071 0.85006 0.87184 0.0
O186 O 0.16457 0.87827 0.85639 0.0
O187 O 0.17764 0.86461 0.84357 0.0
H188 H 0.14133 0.8507 0.84146 0.0
H189 H 0.12156 0.84231 0.82684 0.0
H190 H 0.11549 0.80716 0.85517 0.0
H191 H 0.13529 0.81549 0.86951 0.0
H192 H 0.18951 0.8182 0.91247 0.0
H193 H 0.18168 0.83217 0.89219 0.0
H194 H 0.21727 0.85222 0.92503 0.0
H195 H 0.20924 0.8661 0.90493 0.0
H196 H 0.20827 0.90945 0.84975 0.0
H197 H 0.18264 0.9114 0.81216 0.0
H198 H 0.16851 0.89151 0.82067 0.0
H199 H 0.19387 0.88955 0.85829 0.0
C200 C 0.13999 0.1832 0.83661 0.0
C201 C 0.1263 0.18059 0.84169 0.0
C202 C 0.11691 0.19926 0.82681 0.0
C203 C 0.11492 0.18857 0.8369 0.0
C204 C 0.13064 0.20201 0.82194 0.0
C205 C 0.14199 0.19407 0.82673 0.0
U206 U 0.17198 0.17223 0.85957 0.0
O207 O 0.17893 0.15112 0.86582 0.0
O208 O 0.1926 0.16458 0.85283 0.0
C209 C 0.19075 0.15221 0.85875 0.0
C210 C 0.15186 0.17388 0.84054 0.0
C211 C 0.19472 0.14003 0.85023 0.0
C212 C 0.19102 0.12397 0.8307 0.0
C213 C 0.18655 0.13532 0.83882 0.0
C214 C 0.21175 0.12192 0.84542 0.0
C215 C 0.20379 0.11723 0.83382 0.0
C216 C 0.20727 0.13317 0.85351 0.0
C217 C 0.18344 0.19503 0.89147 0.0
C218 C 0.18781 0.19587 0.91679 0.0
C219 C 0.20348 0.20826 0.90092 0.0
C220 C 0.19548 0.20356 0.88945 0.0
C221 C 0.19966 0.20464 0.91475 0.0
C222 C 0.17976 0.19118 0.9053 0.0
C223 C 0.17408 0.19129 0.87941 0.0
O224 O 0.16464 0.179 0.83868 0.0
O225 O 0.15063 0.16649 0.8522 0.0
O226 O 0.16631 0.17983 0.88064 0.0
O227 O 0.17935 0.19296 0.86675 0.0
H228 H 0.12429 0.17216 0.84913 0.0
H229 H 0.10448 0.18605 0.84077 0.0
H230 H 0.13262 0.21028 0.81432 0.0
H231 H 0.15232 0.1963 0.82244 0.0
H232 H 0.18468 0.12069 0.82178 0.0
H233 H 0.17683 0.14051 0.8361 0.0
H234 H 0.2215 0.11686 0.84828 0.0
H235 H 0.2137 0.13662 0.86231 0.0
H236 H 0.18447 0.19299 0.9273 0.0
H237 H 0.21265 0.21484 0.89894 0.0
H238 H 0.19859 0.20687 0.87899 0.0
H239 H 0.17043 0.18482 0.90728 0.0
C240 C 0.82991 0.14265 0.85613 0.0
C241 C 0.83789 0.13685 0.8453 0.0
C242 C 0.81941 0.11929 0.84089 0.0
C243 C 0.83271 0.12523 0.83777 0.0
C244 C 0.81157 0.12512 0.85186 0.0
C245 C 0.81677 0.13666 0.85938 0.0
U246 U 0.85526 0.174 0.86292 0.0
O247 O 0.85022 0.19541 0.86959 0.0
O248 O 0.86329 0.18215 0.88311 0.0
C249 C 0.8567 0.19411 0.88175 0.0
C250 C 0.83488 0.15502 0.8641 0.0
C251 C 0.84889 0.1989 0.89416 0.0
C252 C 0.82899 0.19738 0.91016 0.0
C253 C 0.83637 0.19227 0.89855 0.0
C254 C 0.84663 0.21569 0.91315 0.0
C255 C 0.834 0.20921 0.91759 0.0
C256 C 0.85397 0.21058 0.90158 0.0
C257 C 0.8865 0.18093 0.83773 0.0
C258 C 0.90269 0.20093 0.8389 0.0
C259 C 0.90552 0.18342 0.82084 0.0
C260 C 0.89388 0.17598 0.8261 0.0
C261 C 0.91008 0.19604 0.82712 0.0
C262 C 0.89101 0.19343 0.84416 0.0
C263 C 0.87402 0.17299 0.84269 0.0
O264 O 0.84694 0.15376 0.8708 0.0
O265 O 0.83362 0.16719 0.8577 0.0
O266 O 0.8619 0.17936 0.84139 0.0
O267 O 0.87536 0.1663 0.85473 0.0
H268 H 0.84806 0.14136 0.8426 0.0
H269 H 0.83897 0.12111 0.8293 0.0
H270 H 0.80139 0.12072 0.85469 0.0
H271 H 0.81046 0.14096 0.86773 0.0
H272 H 0.81938 0.19203 0.91334 0.0
H273 H 0.83227 0.18321 0.89297 0.0
H274 H 0.85072 0.22494 0.91841 0.0
H275 H 0.86358 0.21589 0.89832 0.0
H276 H 0.90597 0.21052 0.84408 0.0
H277 H 0.91074 0.17944 0.81163 0.0
H278 H 0.89053 0.16638 0.82096 0.0
H279 H 0.88546 0.19743 0.85318 0.0
C280 C 0.85051 0.88975 0.8349 0.0
C281 C 0.83809 0.89392 0.8415 0.0
C282 C 0.8356 0.9133 0.82471 0.0
C283 C 0.83069 0.90558 0.83645 0.0
C284 C 0.84814 0.90908 0.81826 0.0
C285 C 0.85549 0.89745 0.82331 0.0
U286 U 0.85731 0.85843 0.85998 0.0
O287 O 0.86342 0.83688 0.85475 0.0
O288 O 0.87753 0.85011 0.86747 0.0
C289 C 0.87575 0.83808 0.86097 0.0
C290 C 0.85832 0.87728 0.83964 0.0
C291 C 0.8879 0.83287 0.85302 0.0
C292 C 0.90606 0.83555 0.83517 0.0
C293 C 0.89458 0.84094 0.84254 0.0
C294 C 0.90429 0.81402 0.84871 0.0
C295 C 0.91101 0.82196 0.83811 0.0
C296 C 0.89288 0.81942 0.85606 0.0
C297 C 0.83287 0.85186 0.89184 0.0
C298 C 0.83415 0.83186 0.90781 0.0
C299 C 0.81652 0.84955 0.91134 0.0
C300 C 0.82156 0.85694 0.89961 0.0
C301 C 0.82269 0.83686 0.9156 0.0
C302 C 0.8392 0.83929 0.89604 0.0
C303 C 0.83759 0.85974 0.87927 0.0
O304 O 0.86539 0.87854 0.85149 0.0
O305 O 0.85162 0.86518 0.83854 0.0
O306 O 0.83584 0.85335 0.86717 0.0
O307 O 0.84979 0.86633 0.8803 0.0
H308 H 0.83408 0.88812 0.85049 0.0
H309 H 0.82117 0.90859 0.84178 0.0
H310 H 0.85213 0.91456 0.80908 0.0
H311 H 0.86502 0.89436 0.81803 0.0
H312 H 0.91088 0.8419 0.82699 0.0
H313 H 0.89087 0.85135 0.84001 0.0
H314 H 0.90791 0.80362 0.85141 0.0
H315 H 0.88792 0.81304 0.86414 0.0
H316 H 0.83926 0.82221 0.91084 0.0
H317 H 0.80755 0.85363 0.91688 0.0
H318 H 0.81649 0.86659 0.8965 0.0
H319 H 0.84797 0.83521 0.89018 0.0
C320 C 0.18173 0.64359 0.70252 0.0
C321 C 0.18048 0.63044 0.69593 0.0
C322 C 0.19677 0.6201 0.7129 0.0
C323 C 0.18791 0.61885 0.70106 0.0
C324 C 0.19811 0.63329 0.71937 0.0
C325 C 0.19065 0.64483 0.7143 0.0
U326 U 0.17213 0.67506 0.67823 0.0
O327 O 0.15122 0.68241 0.6716 0.0
O328 O 0.16504 0.69609 0.68415 0.0
C329 C 0.15258 0.69436 0.67832 0.0
C330 C 0.17299 0.65571 0.69808 0.0
C331 C 0.14045 0.69872 0.68681 0.0
C332 C 0.12452 0.69577 0.70664 0.0
C333 C 0.13587 0.69104 0.69861 0.0
C334 C 0.12219 0.71578 0.69106 0.0
C335 C 0.11762 0.70829 0.70302 0.0
C336 C 0.13346 0.71104 0.68307 0.0
C337 C 0.19572 0.68348 0.64593 0.0
C338 C 0.19271 0.70276 0.62928 0.0
C339 C 0.21286 0.68765 0.6274 0.0
C340 C 0.20812 0.67987 0.639 0.0
C341 C 0.20531 0.69929 0.62244 0.0
C342 C 0.18797 0.69494 0.64096 0.0
C343 C 0.19141 0.67525 0.65843 0.0
O344 O 0.17878 0.66825 0.69938 0.0
O345 O 0.16547 0.65438 0.68651 0.0
O346 O 0.17949 0.66815 0.65748 0.0
O347 O 0.19311 0.68147 0.67062 0.0
H348 H 0.1736 0.62902 0.68693 0.0
H349 H 0.18671 0.60889 0.69574 0.0
H350 H 0.20464 0.63461 0.72865 0.0
H351 H 0.19167 0.65472 0.71979 0.0
H352 H 0.12136 0.6898 0.71584 0.0
H353 H 0.14116 0.6815 0.70169 0.0
H354 H 0.11701 0.72532 0.68782 0.0
H355 H 0.1368 0.71709 0.67396 0.0
H356 H 0.18669 0.71171 0.62582 0.0
H357 H 0.22247 0.68452 0.6223 0.0
H358 H 0.21423 0.67103 0.64263 0.0
H359 H 0.17838 0.69792 0.64619 0.0
C360 C 0.83267 0.67996 0.64483 0.0
C361 C 0.84068 0.6914 0.63981 0.0
C362 C 0.8228 0.69626 0.62197 0.0
C363 C 0.8358 0.69946 0.62846 0.0
C364 C 0.81494 0.68465 0.62697 0.0
C365 C 0.81984 0.6766 0.63827 0.0
U366 U 0.85775 0.67294 0.67576 0.0
O367 O 0.8529 0.66619 0.69738 0.0
O368 O 0.86583 0.65295 0.68399 0.0
C369 C 0.85931 0.65416 0.69607 0.0
C370 C 0.83731 0.67161 0.65705 0.0
C371 C 0.85139 0.64167 0.70102 0.0
C372 C 0.83149 0.62539 0.69951 0.0
C373 C 0.83903 0.63704 0.69426 0.0
C374 C 0.84866 0.62287 0.71821 0.0
C375 C 0.83618 0.61819 0.71161 0.0
C376 C 0.85617 0.63447 0.71296 0.0
C377 C 0.88883 0.69871 0.68211 0.0
C378 C 0.90641 0.69637 0.70063 0.0
C379 C 0.90612 0.71731 0.6861 0.0
C380 C 0.89461 0.71187 0.67861 0.0
C381 C 0.91212 0.70969 0.69729 0.0
C382 C 0.89483 0.69094 0.69313 0.0
C383 C 0.8764 0.69355 0.67427 0.0
O384 O 0.84929 0.66505 0.65567 0.0
O385 O 0.83606 0.67772 0.66932 0.0
O386 O 0.8643 0.69458 0.68076 0.0
O387 O 0.87778 0.68157 0.66769 0.0
H388 H 0.8506 0.69419 0.64479 0.0
H389 H 0.84205 0.70841 0.62498 0.0
H390 H 0.80499 0.68176 0.62212 0.0
H391 H 0.81353 0.66779 0.64198 0.0
H392 H 0.822 0.62202 0.69408 0.0
H393 H 0.83518 0.64247 0.68501 0.0
H394 H 0.85249 0.61777 0.72766 0.0
H395 H 0.86566 0.63794 0.71835 0.0
H396 H 0.91069 0.69029 0.70927 0.0
H397 H 0.91035 0.7275 0.68312 0.0
H398 H 0.89014 0.718 0.67011 0.0
H399 H 0.89047 0.68077 0.69601 0.0
C400 C 0.8306 0.35007 0.6453 0.0
C401 C 0.83844 0.33858 0.64081 0.0
C402 C 0.82129 0.33386 0.62211 0.0
C403 C 0.83384 0.33056 0.62929 0.0
C404 C 0.81361 0.3455 0.62662 0.0
C405 C 0.81822 0.3535 0.63808 0.0
U406 U 0.85397 0.35836 0.67772 0.0
O407 O 0.86157 0.37893 0.68536 0.0
O408 O 0.84756 0.36597 0.69847 0.0
C409 C 0.85412 0.37811 0.69694 0.0
C410 C 0.83489 0.35856 0.65756 0.0
C411 C 0.84603 0.39067 0.70066 0.0
C412 C 0.82462 0.40441 0.70003 0.0
C413 C 0.8323 0.39278 0.69562 0.0
C414 C 0.8444 0.4121 0.71428 0.0
C415 C 0.83053 0.41418 0.70952 0.0
C416 C 0.85204 0.40048 0.7099 0.0
C417 C 0.88452 0.33347 0.68756 0.0
C418 C 0.90344 0.3377 0.70447 0.0
C419 C 0.89986 0.3145 0.69478 0.0
C420 C 0.88853 0.31941 0.68681 0.0
C421 C 0.90747 0.32355 0.70376 0.0
C422 C 0.89203 0.34261 0.69647 0.0
C423 C 0.8726 0.3382 0.67878 0.0
O424 O 0.83278 0.35274 0.66994 0.0
O425 O 0.84707 0.3652 0.65665 0.0
O426 O 0.87449 0.34991 0.67163 0.0
O427 O 0.86007 0.33713 0.68448 0.0
H428 H 0.84802 0.33575 0.64629 0.0
H429 H 0.83995 0.3216 0.62619 0.0
H430 H 0.80403 0.3485 0.62125 0.0
H431 H 0.81204 0.36236 0.64135 0.0
H432 H 0.81403 0.40574 0.69602 0.0
H433 H 0.82747 0.38534 0.68844 0.0
H434 H 0.84925 0.41923 0.72174 0.0
H435 H 0.8626 0.39902 0.71395 0.0
H436 H 0.90896 0.34493 0.71136 0.0
H437 H 0.90277 0.30362 0.69376 0.0
H438 H 0.88292 0.31219 0.67996 0.0
H439 H 0.88909 0.35351 0.69723 0.0
C440 C 0.14058 0.33203 0.68242 0.0
C441 C 0.13647 0.33853 0.69492 0.0
C442 C 0.11685 0.3218 0.69745 0.0
C443 C 0.12471 0.33345 0.70237 0.0
C444 C 0.12102 0.31546 0.68483 0.0
C445 C 0.13273 0.32053 0.67743 0.0
U446 U 0.17253 0.35674 0.67566 0.0
O447 O 0.19389 0.35131 0.66896 0.0
O448 O 0.18084 0.36462 0.65546 0.0
C449 C 0.19272 0.35783 0.65681 0.0
C450 C 0.15311 0.33681 0.67451 0.0
C451 C 0.19743 0.35003 0.64439 0.0
C452 C 0.19627 0.32982 0.62889 0.0
C453 C 0.19116 0.33721 0.64047 0.0
C454 C 0.21381 0.34807 0.62497 0.0
C455 C 0.20773 0.33513 0.62102 0.0
C456 C 0.20871 0.35542 0.63651 0.0
C457 C 0.18056 0.38776 0.70043 0.0
C458 C 0.19954 0.40487 0.69702 0.0
C459 C 0.18573 0.40522 0.71832 0.0
C460 C 0.17772 0.3938 0.71348 0.0
C461 C 0.19682 0.41087 0.71021 0.0
C462 C 0.19151 0.39339 0.69218 0.0
C463 C 0.17208 0.37554 0.6958 0.0
O464 O 0.15206 0.34885 0.66781 0.0
O465 O 0.16527 0.33533 0.68094 0.0
O466 O 0.17809 0.36328 0.69717 0.0
O467 O 0.16527 0.37695 0.68382 0.0
H468 H 0.14238 0.34744 0.69893 0.0
H469 H 0.12175 0.33869 0.71196 0.0
H470 H 0.11542 0.30635 0.68082 0.0
H471 H 0.13577 0.31534 0.66783 0.0
H472 H 0.19124 0.31996 0.62609 0.0
H473 H 0.18241 0.33289 0.64642 0.0
H474 H 0.22278 0.35239 0.61935 0.0
H475 H 0.21372 0.36527 0.63941 0.0
H476 H 0.20807 0.40886 0.69056 0.0
H477 H 0.18319 0.40968 0.72843 0.0
H478 H 0.16929 0.38964 0.71997 0.0
H479 H 0.1939 0.38883 0.68208 0.0
C480 C 0.13843 0.33062 0.35725 0.0
C481 C 0.13464 0.33675 0.34435 0.0
C482 C 0.11475 0.32035 0.34214 0.0
C483 C 0.12291 0.33165 0.33686 0.0
C484 C 0.11855 0.31441 0.35518 0.0
C485 C 0.13025 0.3195 0.36263 0.0
U486 U 0.1704 0.35526 0.3637 0.0
O487 O 0.17907 0.36288 0.38382 0.0
O488 O 0.19189 0.34977 0.37019 0.0
C489 C 0.19087 0.35601 0.38241 0.0
C490 C 0.15103 0.3353 0.36511 0.0
C491 C 0.19544 0.34773 0.39469 0.0
C492 C 0.19301 0.32761 0.41042 0.0
C493 C 0.18809 0.33559 0.39901 0.0
C494 C 0.21254 0.34395 0.41336 0.0
C495 C 0.2054 0.33162 0.41764 0.0
C496 C 0.2076 0.35189 0.40201 0.0
C497 C 0.17804 0.38639 0.33873 0.0
C498 C 0.1983 0.40216 0.34092 0.0
C499 C 0.18208 0.40483 0.3214 0.0
C500 C 0.174 0.39354 0.32648 0.0
C501 C 0.19441 0.40923 0.32847 0.0
C502 C 0.19019 0.39081 0.34599 0.0
C503 C 0.16957 0.37419 0.34348 0.0
O504 O 0.1631 0.33388 0.35863 0.0
O505 O 0.15007 0.3473 0.37174 0.0
O506 O 0.16303 0.37555 0.35553 0.0
O507 O 0.17551 0.36192 0.34211 0.0
H508 H 0.14082 0.34537 0.34004 0.0
H509 H 0.12021 0.33657 0.32693 0.0
H510 H 0.1127 0.30557 0.35948 0.0
H511 H 0.13305 0.3146 0.37255 0.0
H512 H 0.18733 0.31812 0.41335 0.0
H513 H 0.17867 0.33219 0.39346 0.0
H514 H 0.22197 0.34747 0.4188 0.0
H515 H 0.21339 0.36126 0.39886 0.0
H516 H 0.20778 0.40517 0.34656 0.0
H517 H 0.17865 0.41014 0.31192 0.0
H518 H 0.16463 0.39031 0.32076 0.0
H519 H 0.19349 0.38538 0.35546 0.0
C520 C 0.14044 0.67942 0.33605 0.0
C521 C 0.136 0.69059 0.34441 0.0
C522 C 0.1178 0.69635 0.32713 0.0
C523 C 0.12473 0.69896 0.34 0.0
C524 C 0.12227 0.68503 0.31892 0.0
C525 C 0.13345 0.67669 0.32334 0.0
U526 U 0.1727 0.6698 0.35906 0.0
O527 O 0.1796 0.64887 0.36604 0.0
O528 O 0.19311 0.66169 0.35227 0.0
C529 C 0.1912 0.64951 0.35859 0.0
C530 C 0.1524 0.67054 0.34014 0.0
C531 C 0.1946 0.63695 0.35032 0.0
C532 C 0.19429 0.62363 0.32854 0.0
C533 C 0.19005 0.63527 0.33636 0.0
C534 C 0.20739 0.6151 0.34866 0.0
C535 C 0.20314 0.61345 0.33456 0.0
C536 C 0.20316 0.62671 0.35642 0.0
C537 C 0.18438 0.69345 0.39029 0.0
C538 C 0.18918 0.6942 0.41554 0.0
C539 C 0.20393 0.70754 0.39954 0.0
C540 C 0.19593 0.7026 0.38816 0.0
C541 C 0.20057 0.70356 0.41341 0.0
C542 C 0.18115 0.68927 0.40414 0.0
C543 C 0.17502 0.68942 0.37832 0.0
O544 O 0.165 0.67602 0.33809 0.0
O545 O 0.1513 0.66377 0.35217 0.0
O546 O 0.16715 0.67806 0.37988 0.0
O547 O 0.18029 0.69068 0.36561 0.0
H548 H 0.14129 0.69289 0.35426 0.0
H549 H 0.12166 0.70766 0.34652 0.0
H550 H 0.11706 0.68257 0.30907 0.0
H551 H 0.13669 0.66809 0.31676 0.0
H552 H 0.19069 0.62264 0.31777 0.0
H553 H 0.18339 0.64304 0.33145 0.0
H554 H 0.21437 0.60764 0.3536 0.0
H555 H 0.20685 0.62783 0.36716 0.0
H556 H 0.18618 0.69104 0.42607 0.0
H557 H 0.21274 0.71457 0.39747 0.0
H558 H 0.19867 0.7062 0.37769 0.0
H559 H 0.17219 0.68244 0.40622 0.0
C560 C 0.83081 0.64154 0.35637 0.0
C561 C 0.83725 0.63778 0.34373 0.0
C562 C 0.82054 0.61824 0.3409 0.0
C563 C 0.83216 0.62623 0.33605 0.0
C564 C 0.81425 0.62205 0.35366 0.0
C565 C 0.81934 0.63356 0.36129 0.0
U566 U 0.8559 0.67293 0.36385 0.0
O567 O 0.85065 0.69417 0.37084 0.0
O568 O 0.8636 0.68073 0.38431 0.0
C569 C 0.85683 0.69261 0.38313 0.0
C570 C 0.8356 0.65386 0.3645 0.0
C571 C 0.84858 0.69683 0.39548 0.0
C572 C 0.82703 0.69643 0.40925 0.0
C573 C 0.83483 0.69174 0.39775 0.0
C574 C 0.84672 0.71112 0.41647 0.0
C575 C 0.83285 0.70627 0.41872 0.0
C576 C 0.85447 0.70645 0.40498 0.0
C577 C 0.88757 0.68014 0.33913 0.0
C578 C 0.90356 0.7003 0.34017 0.0
C579 C 0.9071 0.68227 0.32279 0.0
C580 C 0.89536 0.67489 0.32791 0.0
C581 C 0.91136 0.69512 0.32879 0.0
C582 C 0.89177 0.69287 0.3453 0.0
C583 C 0.87497 0.67224 0.34389 0.0
O584 O 0.84755 0.65256 0.37136 0.0
O585 O 0.8344 0.66608 0.35819 0.0
O586 O 0.86289 0.67866 0.34253 0.0
O587 O 0.87615 0.6654 0.35586 0.0
H588 H 0.84615 0.64381 0.33977 0.0
H589 H 0.83735 0.62354 0.32635 0.0
H590 H 0.80516 0.61633 0.35762 0.0
H591 H 0.81419 0.63633 0.371 0.0
H592 H 0.81645 0.69236 0.41073 0.0
H593 H 0.8301 0.68425 0.39056 0.0
H594 H 0.85149 0.71884 0.42337 0.0
H595 H 0.86505 0.71054 0.40339 0.0
H596 H 0.90659 0.71008 0.34514 0.0
H597 H 0.91264 0.67805 0.31388 0.0
H598 H 0.89224 0.66511 0.32296 0.0
H599 H 0.8859 0.69709 0.354 0.0
C600 C 0.84944 0.39062 0.33416 0.0
C601 C 0.8363 0.39398 0.33981 0.0
C602 C 0.83474 0.41439 0.32417 0.0
C603 C 0.82901 0.40575 0.33486 0.0
C604 C 0.84801 0.411 0.31872 0.0
C605 C 0.85525 0.39927 0.32367 0.0
U606 U 0.85587 0.35831 0.35816 0.0
O607 O 0.86209 0.33706 0.35202 0.0
O608 O 0.87606 0.34971 0.36543 0.0
C609 C 0.8744 0.33803 0.35832 0.0
C610 C 0.85712 0.37798 0.33862 0.0
C611 C 0.8866 0.3334 0.35008 0.0
C612 C 0.90327 0.33631 0.33087 0.0
C613 C 0.89186 0.34124 0.33867 0.0
C614 C 0.9043 0.31575 0.34588 0.0
C615 C 0.90956 0.32342 0.3343 0.0
C616 C 0.89296 0.32069 0.35365 0.0
C617 C 0.83083 0.35042 0.38944 0.0
C618 C 0.83418 0.33314 0.4081 0.0
C619 C 0.81178 0.34468 0.40558 0.0
C620 C 0.81702 0.3523 0.39408 0.0
C621 C 0.82026 0.33495 0.41274 0.0
C622 C 0.83941 0.34078 0.39653 0.0
C623 C 0.8359 0.35873 0.37725 0.0
O624 O 0.86398 0.37879 0.35063 0.0
O625 O 0.85044 0.36594 0.33696 0.0
O626 O 0.83429 0.35288 0.36487 0.0
O627 O 0.84811 0.36524 0.37872 0.0
H628 H 0.83164 0.38745 0.34795 0.0
H629 H 0.8189 0.40809 0.33941 0.0
H630 H 0.85267 0.41722 0.31034 0.0
H631 H 0.86534 0.39682 0.31912 0.0
H632 H 0.90696 0.34243 0.32196 0.0
H633 H 0.88707 0.35108 0.33573 0.0
H634 H 0.90899 0.30591 0.34898 0.0
H635 H 0.8891 0.31451 0.36245 0.0
H636 H 0.84096 0.32565 0.41326 0.0
H637 H 0.8011 0.34651 0.40894 0.0
H638 H 0.81023 0.35973 0.3888 0.0
H639 H 0.85011 0.33913 0.39309 0.0
C640 C 0.68114 0.14186 0.70073 0.0
C641 C 0.69461 0.13966 0.69523 0.0
C642 C 0.69689 0.11822 0.70929 0.0
C643 C 0.70242 0.12796 0.69948 0.0
C644 C 0.68327 0.12041 0.71454 0.0
C645 C 0.67552 0.13209 0.7103 0.0
U646 U 0.67282 0.17461 0.67808 0.0
O647 O 0.65221 0.18316 0.67213 0.0
O648 O 0.66679 0.19571 0.68503 0.0
C649 C 0.65417 0.19473 0.67937 0.0
C650 C 0.67296 0.15447 0.69714 0.0
C651 C 0.64235 0.19934 0.68821 0.0
C652 C 0.62281 0.1947 0.70418 0.0
C653 C 0.63417 0.18988 0.69622 0.0
C654 C 0.62775 0.21842 0.69627 0.0
C655 C 0.61946 0.20906 0.70433 0.0
C656 C 0.63904 0.21361 0.68834 0.0
C657 C 0.69618 0.18325 0.64566 0.0
C658 C 0.69312 0.20264 0.62916 0.0
C659 C 0.71349 0.18782 0.62739 0.0
C660 C 0.70872 0.17987 0.63886 0.0
C661 C 0.70583 0.19938 0.62242 0.0
C662 C 0.68835 0.19466 0.64072 0.0
C663 C 0.69173 0.17473 0.65793 0.0
O664 O 0.6795 0.16659 0.69875 0.0
O665 O 0.66537 0.15386 0.68557 0.0
O666 O 0.67949 0.16822 0.65694 0.0
O667 O 0.69393 0.18038 0.67032 0.0
H668 H 0.69915 0.14707 0.68779 0.0
H669 H 0.71279 0.12656 0.6951 0.0
H670 H 0.67873 0.11332 0.72226 0.0
H671 H 0.66517 0.13362 0.71473 0.0
H672 H 0.61676 0.1872 0.71035 0.0
H673 H 0.63655 0.17881 0.69631 0.0
H674 H 0.6254 0.2295 0.69592 0.0
H675 H 0.64515 0.22108 0.68219 0.0
H676 H 0.68701 0.21153 0.6257 0.0
H677 H 0.72319 0.18485 0.62236 0.0
H678 H 0.71489 0.17107 0.64248 0.0
H679 H 0.67864 0.19745 0.64585 0.0
C680 C 0.33031 0.17804 0.64637 0.0
C681 C 0.33858 0.1884 0.6397 0.0
C682 C 0.31948 0.19314 0.62313 0.0
C683 C 0.33322 0.19585 0.62814 0.0
C684 C 0.31133 0.18265 0.62982 0.0
C685 C 0.31671 0.17518 0.64131 0.0
U686 U 0.35609 0.17239 0.67722 0.0
O687 O 0.35145 0.16609 0.69904 0.0
O688 O 0.36445 0.15269 0.68586 0.0
C689 C 0.35792 0.15406 0.69792 0.0
C690 C 0.33547 0.17026 0.65877 0.0
C691 C 0.35003 0.14165 0.70307 0.0
C692 C 0.3324 0.12313 0.70001 0.0
C693 C 0.33996 0.13472 0.69467 0.0
C694 C 0.34491 0.1253 0.72214 0.0
C695 C 0.33471 0.11835 0.71386 0.0
C696 C 0.35248 0.13682 0.71679 0.0
C697 C 0.38683 0.19857 0.68315 0.0
C698 C 0.40501 0.19608 0.70108 0.0
C699 C 0.40337 0.2177 0.68773 0.0
C700 C 0.3919 0.21214 0.68025 0.0
C701 C 0.41003 0.20979 0.69831 0.0
C702 C 0.39347 0.19053 0.6936 0.0
C703 C 0.37447 0.1932 0.67532 0.0
O704 O 0.34759 0.16395 0.65738 0.0
O705 O 0.33426 0.1767 0.67086 0.0
O706 O 0.36234 0.19423 0.68176 0.0
O707 O 0.37596 0.18114 0.66891 0.0
H708 H 0.3491 0.1908 0.64351 0.0
H709 H 0.33971 0.20396 0.62333 0.0
H710 H 0.30079 0.18016 0.62615 0.0
H711 H 0.31018 0.16721 0.64631 0.0
H712 H 0.32453 0.11811 0.6934 0.0
H713 H 0.33787 0.13834 0.68406 0.0
H714 H 0.34708 0.12181 0.73278 0.0
H715 H 0.36022 0.14202 0.72343 0.0
H716 H 0.4098 0.18975 0.70925 0.0
H717 H 0.40705 0.22822 0.6852 0.0
H718 H 0.38693 0.2185 0.67221 0.0
H719 H 0.38966 0.18004 0.69604 0.0
C720 C 0.3324 0.84786 0.64508 0.0
C721 C 0.33976 0.83587 0.6411 0.0
C722 C 0.32315 0.83182 0.62177 0.0
C723 C 0.3352 0.82793 0.6295 0.0
C724 C 0.31604 0.84401 0.62571 0.0
C725 C 0.32061 0.85192 0.63723 0.0
U726 U 0.35511 0.85674 0.67805 0.0
O727 O 0.3611 0.87759 0.68619 0.0
O728 O 0.34772 0.86351 0.69879 0.0
C729 C 0.35326 0.87616 0.69748 0.0
C730 C 0.33638 0.85615 0.65757 0.0
C731 C 0.34409 0.88807 0.7013 0.0
C732 C 0.33718 0.91255 0.69895 0.0
C733 C 0.34507 0.90114 0.69437 0.0
C734 C 0.32705 0.89806 0.71735 0.0
C735 C 0.32812 0.91119 0.71056 0.0
C736 C 0.33496 0.8867 0.71282 0.0
C737 C 0.38695 0.83391 0.68908 0.0
C738 C 0.41149 0.83628 0.69657 0.0
C739 C 0.39701 0.81741 0.70592 0.0
C740 C 0.3856 0.82208 0.69789 0.0
C741 C 0.41015 0.82437 0.7053 0.0
C742 C 0.40004 0.84099 0.68855 0.0
C743 C 0.37504 0.83789 0.67969 0.0
O744 O 0.33446 0.84995 0.6698 0.0
O745 O 0.34825 0.86336 0.65688 0.0
O746 O 0.37633 0.84965 0.67246 0.0
O747 O 0.36229 0.83585 0.68469 0.0
H748 H 0.34887 0.83255 0.64707 0.0
H749 H 0.34086 0.81855 0.62681 0.0
H750 H 0.30688 0.84745 0.61989 0.0
H751 H 0.31482 0.86116 0.6401 0.0
H752 H 0.33819 0.92247 0.69342 0.0
H753 H 0.35209 0.90265 0.68555 0.0
H754 H 0.3204 0.89666 0.72648 0.0
H755 H 0.33414 0.87687 0.71855 0.0
H756 H 0.42142 0.84196 0.69591 0.0
H757 H 0.39563 0.80805 0.71231 0.0
H758 H 0.37577 0.8162 0.69835 0.0
H759 H 0.40154 0.85005 0.68178 0.0
C760 C 0.64154 0.83154 0.68443 0.0
C761 C 0.63502 0.83995 0.69448 0.0
C762 C 0.61845 0.8209 0.7001 0.0
C763 C 0.62354 0.83469 0.70222 0.0
C764 C 0.62503 0.8126 0.68994 0.0
C765 C 0.63643 0.81787 0.68221 0.0
U766 U 0.67247 0.85719 0.67662 0.0
O767 O 0.69381 0.85234 0.66942 0.0
O768 O 0.68 0.86503 0.6561 0.0
C769 C 0.69204 0.8585 0.65716 0.0
C770 C 0.65369 0.83664 0.67615 0.0
C771 C 0.69631 0.85035 0.64478 0.0
C772 C 0.69526 0.82926 0.63047 0.0
C773 C 0.69056 0.837 0.64199 0.0
C774 C 0.71133 0.84821 0.62429 0.0
C775 C 0.70578 0.83473 0.6215 0.0
C776 C 0.70664 0.85591 0.63579 0.0
C777 C 0.67955 0.88866 0.70145 0.0
C778 C 0.69927 0.90518 0.69988 0.0
C779 C 0.682 0.90765 0.71828 0.0
C780 C 0.67466 0.89591 0.71318 0.0
C781 C 0.69445 0.91245 0.71176 0.0
C782 C 0.69188 0.89339 0.69477 0.0
C783 C 0.67172 0.87606 0.69669 0.0
O784 O 0.65209 0.84857 0.66937 0.0
O785 O 0.66606 0.83559 0.68226 0.0
O786 O 0.67833 0.8641 0.69792 0.0
O787 O 0.66473 0.87722 0.6848 0.0
H788 H 0.63884 0.85053 0.69638 0.0
H789 H 0.61883 0.84132 0.71005 0.0
H790 H 0.62129 0.80202 0.68789 0.0
H791 H 0.64128 0.81123 0.67447 0.0
H792 H 0.69065 0.81899 0.62858 0.0
H793 H 0.68253 0.83254 0.64879 0.0
H794 H 0.71959 0.8527 0.61779 0.0
H795 H 0.71125 0.86617 0.63779 0.0
H796 H 0.70873 0.90863 0.6945 0.0
H797 H 0.67808 0.91277 0.72758 0.0
H798 H 0.6652 0.89239 0.71852 0.0
H799 H 0.69582 0.88794 0.68568 0.0
C800 C 0.63963 0.83104 0.35533 0.0
C801 C 0.63319 0.83932 0.34495 0.0
C802 C 0.61639 0.82036 0.33987 0.0
C803 C 0.62163 0.83403 0.33731 0.0
C804 C 0.62285 0.81221 0.3504 0.0
C805 C 0.63433 0.81751 0.35804 0.0
U806 U 0.67058 0.85681 0.36214 0.0
O807 O 0.67903 0.86454 0.38234 0.0
O808 O 0.69232 0.85218 0.36847 0.0
C809 C 0.69099 0.85792 0.38092 0.0
C810 C 0.652 0.83612 0.36333 0.0
C811 C 0.69602 0.84961 0.39321 0.0
C812 C 0.71096 0.83134 0.40298 0.0
C813 C 0.70543 0.83853 0.39138 0.0
C814 C 0.69783 0.84612 0.41861 0.0
C815 C 0.70729 0.83507 0.41676 0.0
C816 C 0.69229 0.85332 0.40698 0.0
C817 C 0.67684 0.88825 0.33708 0.0
C818 C 0.69657 0.90471 0.33881 0.0
C819 C 0.67981 0.90682 0.31968 0.0
C820 C 0.67228 0.89524 0.32493 0.0
C821 C 0.69211 0.91169 0.32649 0.0
C822 C 0.689 0.89309 0.34405 0.0
C823 C 0.66895 0.87574 0.34198 0.0
O824 O 0.66415 0.83519 0.3569 0.0
O825 O 0.65057 0.848 0.37007 0.0
O826 O 0.66246 0.87686 0.35408 0.0
O827 O 0.67538 0.86373 0.34057 0.0
H828 H 0.63718 0.84978 0.34267 0.0
H829 H 0.61701 0.84052 0.32918 0.0
H830 H 0.61899 0.80173 0.35278 0.0
H831 H 0.63915 0.81099 0.36603 0.0
H832 H 0.71842 0.82308 0.40114 0.0
H833 H 0.70877 0.83552 0.38097 0.0
H834 H 0.69469 0.84922 0.42905 0.0
H835 H 0.68523 0.86192 0.40881 0.0
H836 H 0.7059 0.90825 0.34441 0.0
H837 H 0.67618 0.91173 0.31006 0.0
H838 H 0.66296 0.8916 0.31936 0.0
H839 H 0.69268 0.88782 0.35347 0.0
C840 C 0.64242 0.17729 0.33578 0.0
C841 C 0.63877 0.18999 0.3421 0.0
C842 C 0.61882 0.19238 0.32593 0.0
C843 C 0.62708 0.19747 0.33721 0.0
C844 C 0.6225 0.17955 0.31979 0.0
C845 C 0.63416 0.17212 0.32467 0.0
U846 U 0.67443 0.17045 0.36005 0.0
O847 O 0.68286 0.1503 0.36744 0.0
O848 O 0.69584 0.16421 0.35424 0.0
C849 C 0.69473 0.15195 0.36055 0.0
C850 C 0.65496 0.16942 0.34027 0.0
C851 C 0.69957 0.13978 0.35246 0.0
C852 C 0.69598 0.12149 0.33499 0.0
C853 C 0.69093 0.13297 0.34253 0.0
C854 C 0.71831 0.12353 0.34722 0.0
C855 C 0.70978 0.11667 0.33718 0.0
C856 C 0.71325 0.13494 0.35475 0.0
C857 C 0.68229 0.19499 0.39141 0.0
C858 C 0.7015 0.19213 0.40819 0.0
C859 C 0.68699 0.21276 0.40911 0.0
C860 C 0.67905 0.20777 0.39773 0.0
C861 C 0.69839 0.20508 0.41445 0.0
C862 C 0.69354 0.18715 0.39673 0.0
C863 C 0.67388 0.19027 0.37918 0.0
O864 O 0.66712 0.17597 0.33876 0.0
O865 O 0.65395 0.16251 0.35223 0.0
O866 O 0.66722 0.17816 0.38054 0.0
O867 O 0.67987 0.19189 0.36685 0.0
H868 H 0.64501 0.19415 0.35071 0.0
H869 H 0.62449 0.20722 0.34229 0.0
H870 H 0.61659 0.1754 0.31096 0.0
H871 H 0.63684 0.16237 0.31961 0.0
H872 H 0.68917 0.11655 0.32724 0.0
H873 H 0.68034 0.13658 0.34058 0.0
H874 H 0.7289 0.12001 0.34933 0.0
H875 H 0.72007 0.14001 0.3624 0.0
H876 H 0.71027 0.186 0.41194 0.0
H877 H 0.68415 0.22266 0.41377 0.0
H878 H 0.67038 0.21396 0.3938 0.0
H879 H 0.69623 0.17726 0.39196 0.0
C880 C 0.33091 0.1428 0.35538 0.0
C881 C 0.3393 0.1363 0.34529 0.0
C882 C 0.32013 0.11984 0.3397 0.0
C883 C 0.33397 0.12489 0.33754 0.0
C884 C 0.31185 0.12639 0.34991 0.0
C885 C 0.31719 0.13772 0.35765 0.0
U886 U 0.3566 0.17372 0.36323 0.0
O887 O 0.35165 0.19498 0.37039 0.0
O888 O 0.36444 0.18126 0.38371 0.0
C889 C 0.35798 0.19332 0.38258 0.0
C890 C 0.33606 0.1549 0.36367 0.0
C891 C 0.3501 0.19789 0.39502 0.0
C892 C 0.33011 0.19609 0.41087 0.0
C893 C 0.33758 0.19115 0.39924 0.0
C894 C 0.34767 0.21443 0.41419 0.0
C895 C 0.33504 0.20784 0.41847 0.0
C896 C 0.3551 0.20949 0.40261 0.0
C897 C 0.38811 0.1816 0.33883 0.0
C898 C 0.40536 0.20038 0.34247 0.0
C899 C 0.40606 0.18648 0.32128 0.0
C900 C 0.39444 0.17862 0.32595 0.0
C901 C 0.41163 0.19755 0.32941 0.0
C902 C 0.39367 0.1925 0.34712 0.0
C903 C 0.37561 0.17333 0.34321 0.0
O904 O 0.34805 0.15332 0.3704 0.0
O905 O 0.33496 0.16725 0.3576 0.0
O906 O 0.36348 0.17966 0.34191 0.0
O907 O 0.37677 0.16622 0.35503 0.0
H908 H 0.34992 0.1401 0.34335 0.0
H909 H 0.34059 0.1202 0.32968 0.0
H910 H 0.30124 0.12268 0.35201 0.0
H911 H 0.31055 0.14255 0.36542 0.0
H912 H 0.3205 0.19067 0.41392 0.0
H913 H 0.33355 0.18216 0.39351 0.0
H914 H 0.35168 0.22363 0.41958 0.0
H915 H 0.36471 0.21488 0.39947 0.0
H916 H 0.40929 0.2089 0.34894 0.0
H917 H 0.41072 0.18386 0.31129 0.0
H918 H 0.39033 0.17022 0.31942 0.0
H919 H 0.3889 0.19499 0.3571 0.0
C920 C 0.34839 0.8887 0.33292 0.0
C921 C 0.33898 0.89563 0.34174 0.0
C922 C 0.33315 0.91204 0.32278 0.0
C923 C 0.33146 0.90723 0.33673 0.0
C924 C 0.34267 0.90505 0.31408 0.0
C925 C 0.35019 0.89354 0.3191 0.0
U926 U 0.35581 0.85713 0.35766 0.0
O927 O 0.36258 0.83594 0.35193 0.0
O928 O 0.37625 0.84922 0.36504 0.0
C929 C 0.37489 0.83737 0.35815 0.0
C930 C 0.35647 0.87643 0.33774 0.0
C931 C 0.38717 0.83294 0.34991 0.0
C932 C 0.40403 0.83633 0.33092 0.0
C933 C 0.39256 0.84107 0.33876 0.0
C934 C 0.40487 0.81537 0.34537 0.0
C935 C 0.41026 0.82333 0.33406 0.0
C936 C 0.39347 0.82012 0.35318 0.0
C937 C 0.33077 0.84908 0.38895 0.0
C938 C 0.33442 0.83236 0.40807 0.0
C939 C 0.31163 0.84295 0.40484 0.0
C940 C 0.3168 0.85052 0.39328 0.0
C941 C 0.32033 0.83372 0.41239 0.0
C942 C 0.33958 0.83994 0.39643 0.0
C943 C 0.33575 0.8573 0.37667 0.0
O944 O 0.36326 0.87768 0.34975 0.0
O945 O 0.35021 0.86415 0.33627 0.0
O946 O 0.33435 0.85122 0.36438 0.0
O947 O 0.34778 0.86414 0.3781 0.0
H948 H 0.33739 0.89204 0.35245 0.0
H949 H 0.32412 0.91227 0.34368 0.0
H950 H 0.34441 0.90855 0.30336 0.0
H951 H 0.35744 0.88837 0.31213 0.0
H952 H 0.40781 0.84268 0.32222 0.0
H953 H 0.38781 0.85099 0.33603 0.0
H954 H 0.40951 0.80543 0.34824 0.0
H955 H 0.38951 0.81371 0.36178 0.0
H956 H 0.34138 0.82525 0.41353 0.0
H957 H 0.30081 0.84444 0.40795 0.0
H958 H 0.30983 0.85756 0.3877 0.0
H959 H 0.35041 0.83863 0.39324 0.0
C960 C 0.67958 0.64285 0.20106 0.0
C961 C 0.69171 0.63888 0.19381 0.0
C962 C 0.69573 0.61995 0.21079 0.0
C963 C 0.6997 0.62751 0.19862 0.0
C964 C 0.68343 0.62392 0.21784 0.0
C965 C 0.67547 0.63523 0.21303 0.0
U966 U 0.67156 0.67444 0.17678 0.0
O967 O 0.65107 0.68205 0.16915 0.0
O968 O 0.66439 0.6955 0.18246 0.0
C969 C 0.65224 0.69397 0.17596 0.0
C970 C 0.67116 0.65502 0.19659 0.0
C971 C 0.6397 0.69852 0.18372 0.0
C972 C 0.62415 0.69758 0.204 0.0
C973 C 0.63586 0.69257 0.19671 0.0
C974 C 0.61994 0.71437 0.18532 0.0
C975 C 0.61605 0.70861 0.19842 0.0
C976 C 0.6316 0.70938 0.17808 0.0
C977 C 0.69623 0.68284 0.14548 0.0
C978 C 0.69362 0.70239 0.12911 0.0
C979 C 0.71359 0.68705 0.12719 0.0
C980 C 0.70864 0.67916 0.13862 0.0
C981 C 0.70623 0.69885 0.12233 0.0
C982 C 0.68868 0.69447 0.14062 0.0
C983 C 0.69162 0.67449 0.15778 0.0
O984 O 0.67723 0.66739 0.19813 0.0
O985 O 0.66432 0.65377 0.18461 0.0
O986 O 0.67972 0.66743 0.15639 0.0
O987 O 0.6929 0.68065 0.17005 0.0
H988 H 0.69507 0.64466 0.18455 0.0
H989 H 0.70916 0.62485 0.19299 0.0
H990 H 0.67991 0.61824 0.2271 0.0
H991 H 0.66612 0.63809 0.21875 0.0
H992 H 0.62142 0.69279 0.21398 0.0
H993 H 0.64198 0.68416 0.20124 0.0
H994 H 0.61417 0.72302 0.18078 0.0
H995 H 0.63442 0.71415 0.1681 0.0
H996 H 0.68775 0.71147 0.12573 0.0
H997 H 0.7232 0.68387 0.12211 0.0
H998 H 0.71459 0.67019 0.14218 0.0
H999 H 0.67907 0.69749 0.1458 0.0
C1000 C 0.33072 0.67659 0.14586 0.0
C1001 C 0.33907 0.68707 0.13947 0.0
C1002 C 0.31997 0.6925 0.1231 0.0
C1003 C 0.33375 0.69493 0.12816 0.0
C1004 C 0.31174 0.6819 0.12952 0.0
C1005 C 0.31707 0.67405 0.14076 0.0
U1006 U 0.35667 0.66912 0.17627 0.0
O1007 O 0.35212 0.66185 0.19778 0.0
O1008 O 0.36472 0.64885 0.18384 0.0
C1009 C 0.35844 0.64982 0.19607 0.0
C1010 C 0.33587 0.66828 0.15791 0.0
C1011 C 0.3506 0.63725 0.2009 0.0
C1012 C 0.33014 0.62164 0.20019 0.0
C1013 C 0.33758 0.63335 0.19497 0.0
C1014 C 0.34875 0.61754 0.21714 0.0
C1015 C 0.3356 0.61362 0.21141 0.0
C1016 C 0.35615 0.62922 0.21193 0.0
C1017 C 0.38825 0.69378 0.18333 0.0
C1018 C 0.40279 0.69292 0.20445 0.0
C1019 C 0.4089 0.70896 0.18554 0.0
C1020 C 0.39727 0.70415 0.1778 0.0
C1021 C 0.41177 0.70351 0.19902 0.0
C1022 C 0.39115 0.68808 0.19665 0.0
C1023 C 0.37568 0.68942 0.17522 0.0
O1024 O 0.34782 0.66176 0.15614 0.0
O1025 O 0.33493 0.67426 0.17027 0.0
O1026 O 0.36359 0.6905 0.18175 0.0
O1027 O 0.37672 0.6777 0.16812 0.0
H1028 H 0.34963 0.68924 0.1433 0.0
H1029 H 0.34032 0.70311 0.12357 0.0
H1030 H 0.30117 0.67962 0.1258 0.0
H1031 H 0.31048 0.66598 0.14552 0.0
H1032 H 0.32012 0.61885 0.19543 0.0
H1033 H 0.33314 0.63943 0.18642 0.0
H1034 H 0.35319 0.61179 0.22592 0.0
H1035 H 0.36616 0.63211 0.21667 0.0
H1036 H 0.40475 0.68839 0.21472 0.0
H1037 H 0.41543 0.71726 0.18111 0.0
H1038 H 0.39518 0.7087 0.16755 0.0
H1039 H 0.38432 0.68002 0.20109 0.0
C1040 C 0.33348 0.34618 0.14744 0.0
C1041 C 0.33871 0.3489 0.13385 0.0
C1042 C 0.32327 0.33075 0.12395 0.0
C1043 C 0.33372 0.34124 0.12227 0.0
C1044 C 0.3182 0.32793 0.13756 0.0
C1045 C 0.32318 0.33556 0.14911 0.0
U1046 U 0.35741 0.35553 0.17926 0.0
O1047 O 0.36449 0.37623 0.18695 0.0
O1048 O 0.35141 0.3626 0.20035 0.0
C1049 C 0.35749 0.37497 0.19879 0.0
C1050 C 0.33781 0.35503 0.15961 0.0
C1051 C 0.34903 0.38711 0.20298 0.0
C1052 C 0.32918 0.40272 0.19972 0.0
C1053 C 0.33731 0.39146 0.19512 0.0
C1054 C 0.34449 0.40544 0.21996 0.0
C1055 C 0.33259 0.40976 0.2123 0.0
C1056 C 0.35259 0.39425 0.21535 0.0
C1057 C 0.38875 0.33094 0.18764 0.0
C1058 C 0.40738 0.33444 0.20501 0.0
C1059 C 0.40489 0.31211 0.19321 0.0
C1060 C 0.39342 0.31723 0.1856 0.0
C1061 C 0.41201 0.3206 0.20307 0.0
C1062 C 0.39582 0.33955 0.19738 0.0
C1063 C 0.37651 0.33579 0.17942 0.0
O1064 O 0.33612 0.34947 0.17218 0.0
O1065 O 0.34963 0.36229 0.15845 0.0
O1066 O 0.378 0.34772 0.17255 0.0
O1067 O 0.36419 0.33438 0.1855 0.0
H1068 H 0.34647 0.35713 0.13211 0.0
H1069 H 0.33775 0.34381 0.11193 0.0
H1070 H 0.3103 0.31981 0.1393 0.0
H1071 H 0.31877 0.33327 0.15936 0.0
H1072 H 0.32003 0.40568 0.19362 0.0
H1073 H 0.33436 0.38604 0.18554 0.0
H1074 H 0.34757 0.41072 0.22956 0.0
H1075 H 0.36162 0.39108 0.22154 0.0
H1076 H 0.41253 0.34121 0.2126 0.0
H1077 H 0.40826 0.30149 0.19127 0.0
H1078 H 0.38815 0.31043 0.17809 0.0
H1079 H 0.39235 0.35017 0.19913 0.0
C1080 C 0.64158 0.33246 0.18447 0.0
C1081 C 0.63777 0.33945 0.19679 0.0
C1082 C 0.61877 0.32237 0.2009 0.0
C1083 C 0.62645 0.33447 0.20493 0.0
C1084 C 0.62255 0.31558 0.1884 0.0
C1085 C 0.63382 0.32057 0.1803 0.0
U1086 U 0.67292 0.3573 0.17665 0.0
O1087 O 0.69425 0.35222 0.16958 0.0
O1088 O 0.68076 0.3653 0.1563 0.0
C1089 C 0.69277 0.35871 0.15745 0.0
C1090 C 0.65375 0.33711 0.17598 0.0
C1091 C 0.69742 0.35099 0.14493 0.0
C1092 C 0.69645 0.33072 0.12948 0.0
C1093 C 0.69137 0.33803 0.14114 0.0
C1094 C 0.71352 0.34933 0.12523 0.0
C1095 C 0.70766 0.33625 0.1214 0.0
C1096 C 0.70845 0.35659 0.13685 0.0
C1097 C 0.68035 0.38829 0.20194 0.0
C1098 C 0.69738 0.40731 0.19845 0.0
C1099 C 0.6858 0.40447 0.22092 0.0
C1100 C 0.67834 0.39284 0.21575 0.0
C1101 C 0.69547 0.41184 0.21238 0.0
C1102 C 0.68991 0.3956 0.19329 0.0
C1103 C 0.67233 0.3759 0.19696 0.0
O1104 O 0.65241 0.34909 0.16923 0.0
O1105 O 0.66614 0.33576 0.18199 0.0
O1106 O 0.67869 0.3638 0.19812 0.0
O1107 O 0.66545 0.37732 0.18502 0.0
H1108 H 0.64366 0.34864 0.20021 0.0
H1109 H 0.62393 0.33988 0.21454 0.0
H1110 H 0.61677 0.30639 0.18485 0.0
H1111 H 0.63657 0.31506 0.17079 0.0
H1112 H 0.69158 0.32075 0.12678 0.0
H1113 H 0.68282 0.33353 0.14724 0.0
H1114 H 0.7223 0.35383 0.11946 0.0
H1115 H 0.7133 0.36655 0.13964 0.0
H1116 H 0.70484 0.41265 0.19164 0.0
H1117 H 0.68391 0.40776 0.23162 0.0
H1118 H 0.67097 0.38737 0.22258 0.0
H1119 H 0.69165 0.39221 0.18259 0.0
C1120 C 0.64031 0.33348 0.85394 0.0
C1121 C 0.63588 0.34108 0.84207 0.0
C1122 C 0.61741 0.3236 0.83747 0.0
C1123 C 0.6245 0.3362 0.83391 0.0
C1124 C 0.62181 0.31618 0.84951 0.0
C1125 C 0.63313 0.32108 0.85764 0.0
U1126 U 0.67175 0.35816 0.86217 0.0
O1127 O 0.67968 0.36541 0.88272 0.0
O1128 O 0.69309 0.35275 0.86923 0.0
C1129 C 0.69162 0.35873 0.88153 0.0
C1130 C 0.65254 0.33802 0.86244 0.0
C1131 C 0.696 0.3503 0.89379 0.0
C1132 C 0.69329 0.3301 0.90938 0.0
C1133 C 0.68852 0.33819 0.89798 0.0
C1134 C 0.71293 0.34624 0.91256 0.0
C1135 C 0.70566 0.33395 0.91671 0.0
C1136 C 0.70815 0.35431 0.90123 0.0
C1137 C 0.6798 0.38981 0.83789 0.0
C1138 C 0.69918 0.40643 0.84133 0.0
C1139 C 0.68465 0.40791 0.8204 0.0
C1140 C 0.67659 0.39645 0.82512 0.0
C1141 C 0.69613 0.41299 0.82838 0.0
C1142 C 0.6911 0.3949 0.84603 0.0
C1143 C 0.67138 0.37744 0.84227 0.0
O1144 O 0.66487 0.33682 0.85642 0.0
O1145 O 0.65123 0.34985 0.8693 0.0
O1146 O 0.66447 0.37854 0.85414 0.0
O1147 O 0.67751 0.36527 0.84088 0.0
H1148 H 0.64133 0.35068 0.83903 0.0
H1149 H 0.62147 0.3421 0.82465 0.0
H1150 H 0.61648 0.30657 0.85269 0.0
H1151 H 0.63637 0.31509 0.86679 0.0
H1152 H 0.6875 0.32064 0.91221 0.0
H1153 H 0.67912 0.33491 0.89233 0.0
H1154 H 0.72236 0.34965 0.91809 0.0
H1155 H 0.71404 0.36365 0.89818 0.0
H1156 H 0.70801 0.41 0.84767 0.0
H1157 H 0.68187 0.41281 0.81049 0.0
H1158 H 0.66788 0.39269 0.81871 0.0
H1159 H 0.69376 0.38988 0.85592 0.0
C1160 C 0.64137 0.68164 0.83704 0.0
C1161 C 0.63646 0.69262 0.84539 0.0
C1162 C 0.61833 0.69793 0.82789 0.0
C1163 C 0.62501 0.70067 0.84088 0.0
C1164 C 0.62324 0.68679 0.8197 0.0
C1165 C 0.63463 0.67876 0.82423 0.0
U1166 U 0.67324 0.67304 0.86086 0.0
O1167 O 0.68094 0.65238 0.86772 0.0
O1168 O 0.69432 0.66609 0.85471 0.0
C1169 C 0.69279 0.65374 0.86074 0.0
C1170 C 0.65359 0.67317 0.84125 0.0
C1171 C 0.69703 0.64158 0.85229 0.0
C1172 C 0.69411 0.62595 0.83229 0.0
C1173 C 0.68946 0.63728 0.84032 0.0
C1174 C 0.71384 0.62307 0.84819 0.0
C1175 C 0.70647 0.61879 0.83605 0.0
C1176 C 0.70917 0.63433 0.8562 0.0
C1177 C 0.682 0.69696 0.89263 0.0
C1178 C 0.70217 0.69462 0.90835 0.0
C1179 C 0.68604 0.71378 0.91139 0.0
C1180 C 0.678 0.70891 0.90002 0.0
C1181 C 0.69831 0.7068 0.91564 0.0
C1182 C 0.6941 0.68976 0.89691 0.0
C1183 C 0.67353 0.69253 0.88035 0.0
O1184 O 0.66599 0.67925 0.83973 0.0
O1185 O 0.65242 0.66607 0.85309 0.0
O1186 O 0.66651 0.68061 0.88158 0.0
O1187 O 0.67955 0.69412 0.86803 0.0
H1188 H 0.64156 0.69503 0.85531 0.0
H1189 H 0.62158 0.70923 0.8474 0.0
H1190 H 0.61825 0.68423 0.80977 0.0
H1191 H 0.63822 0.67031 0.81765 0.0
H1192 H 0.68824 0.62302 0.82295 0.0
H1193 H 0.68006 0.64278 0.83712 0.0
H1194 H 0.72325 0.61769 0.85155 0.0
H1195 H 0.71514 0.63745 0.86542 0.0
H1196 H 0.71161 0.68906 0.91126 0.0
H1197 H 0.68261 0.72303 0.91687 0.0
H1198 H 0.66867 0.71458 0.89692 0.0
H1199 H 0.69738 0.68052 0.8913 0.0
C1200 C 0.33059 0.6414 0.85422 0.0
C1201 C 0.33794 0.63741 0.84215 0.0
C1202 C 0.32088 0.61844 0.83792 0.0
C1203 C 0.33314 0.626 0.83408 0.0
C1204 C 0.31374 0.62241 0.85016 0.0
C1205 C 0.31854 0.63376 0.8582 0.0
U1206 U 0.35539 0.67265 0.8628 0.0
O1207 O 0.35006 0.69396 0.86951 0.0
O1208 O 0.36241 0.68049 0.88349 0.0
C1209 C 0.35562 0.69234 0.8821 0.0
C1210 C 0.33504 0.65362 0.86267 0.0
C1211 C 0.34708 0.69696 0.89429 0.0
C1212 C 0.32866 0.71162 0.90395 0.0
C1213 C 0.33585 0.70625 0.89239 0.0
C1214 C 0.34367 0.69851 0.91968 0.0
C1215 C 0.33254 0.70792 0.91777 0.0
C1216 C 0.35087 0.69314 0.9081 0.0
C1217 C 0.38775 0.67966 0.83889 0.0
C1218 C 0.40309 0.70034 0.83917 0.0
C1219 C 0.40808 0.68115 0.82349 0.0
C1220 C 0.3963 0.67381 0.82857 0.0
C1221 C 0.41161 0.69456 0.82864 0.0
C1222 C 0.39127 0.69295 0.84426 0.0
C1223 C 0.37503 0.67185 0.84342 0.0
O1224 O 0.34673 0.65227 0.86996 0.0
O1225 O 0.33406 0.66591 0.85644 0.0
O1226 O 0.36301 0.6783 0.84169 0.0
O1227 O 0.37588 0.66508 0.85546 0.0
H1228 H 0.34727 0.6432 0.8389 0.0
H1229 H 0.33883 0.62332 0.82467 0.0
H1230 H 0.30441 0.61672 0.85357 0.0
H1231 H 0.31275 0.63664 0.8675 0.0
H1232 H 0.32033 0.71903 0.90203 0.0
H1233 H 0.33277 0.70967 0.88195 0.0
H1234 H 0.34688 0.69531 0.93014 0.0
H1235 H 0.35959 0.68617 0.91 0.0
H1236 H 0.40556 0.71057 0.84348 0.0
H1237 H 0.4142 0.67645 0.81524 0.0
H1238 H 0.39372 0.6636 0.82425 0.0
H1239 H 0.3848 0.69764 0.85225 0.0
C1240 C 0.34958 0.39016 0.83709 0.0
C1241 C 0.33592 0.39222 0.84217 0.0
C1242 C 0.33372 0.41344 0.82778 0.0
C1243 C 0.32806 0.40373 0.83755 0.0
C1244 C 0.34752 0.41139 0.82294 0.0
C1245 C 0.35533 0.39989 0.82754 0.0
U1246 U 0.35698 0.35793 0.86056 0.0
O1247 O 0.36389 0.33689 0.85451 0.0
O1248 O 0.37725 0.34983 0.86827 0.0
C1249 C 0.376 0.3381 0.86116 0.0
C1250 C 0.35788 0.3778 0.84123 0.0
C1251 C 0.38856 0.33357 0.8534 0.0
C1252 C 0.40382 0.33422 0.83289 0.0
C1253 C 0.39215 0.33926 0.84022 0.0
C1254 C 0.40851 0.31794 0.8519 0.0
C1255 C 0.41213 0.32342 0.83861 0.0
C1256 C 0.39688 0.32296 0.85919 0.0
C1257 C 0.33152 0.34953 0.89137 0.0
C1258 C 0.33479 0.33218 0.90997 0.0
C1259 C 0.3124 0.34375 0.9074 0.0
C1260 C 0.31769 0.35141 0.89596 0.0
C1261 C 0.32085 0.33398 0.91455 0.0
C1262 C 0.34007 0.33986 0.89845 0.0
C1263 C 0.33664 0.35788 0.87927 0.0
O1264 O 0.36466 0.37866 0.85327 0.0
O1265 O 0.35172 0.36552 0.83932 0.0
O1266 O 0.33542 0.35194 0.86689 0.0
O1267 O 0.34867 0.36467 0.88096 0.0
H1268 H 0.3313 0.38485 0.8496 0.0
H1269 H 0.31754 0.40504 0.84162 0.0
H1270 H 0.35217 0.41848 0.81527 0.0
H1271 H 0.36584 0.39848 0.82346 0.0
H1272 H 0.40635 0.33881 0.82276 0.0
H1273 H 0.38587 0.34748 0.83557 0.0
H1274 H 0.41445 0.30947 0.85656 0.0
H1275 H 0.39426 0.31838 0.86931 0.0
H1276 H 0.34154 0.32465 0.91513 0.0
H1277 H 0.30171 0.34557 0.91073 0.0
H1278 H 0.31094 0.35887 0.89069 0.0
H1279 H 0.35078 0.33822 0.89505 0.0
H1280 H 0.26712 0.26201 0.97014 0.0
H1281 H 0.27877 0.28267 1.00825 0.0
H1282 H 0.25136 0.24578 1.00898 0.0
H1283 H 0.24536 0.25213 0.02954 0.0
H1284 H 0.26363 0.26588 0.06826 0.0
H1285 H 0.28344 0.27793 0.0298 0.0
C1286 C 0.26674 0.26249 0.98152 0.0
C1287 C 0.25816 0.25296 0.98885 0.0
C1288 C 0.27442 0.27297 0.98851 0.0
C1289 C 0.2732 0.27412 1.00321 0.0
C1290 C 0.26503 0.26431 1.01115 0.0
C1291 C 0.25753 0.25373 1.0036 0.0
C1292 C 0.26447 0.26496 0.02713 0.0
C1293 C 0.25376 0.25775 0.03483 0.0
C1294 C 0.25351 0.25792 0.04963 0.0
C1295 C 0.26381 0.26567 0.05687 0.0
C1296 C 0.2744 0.27308 0.04972 0.0
C1297 C 0.27478 0.2726 0.03494 0.0
H1298 H 0.76681 0.26883 0.06849 0.0
H1299 H 0.77794 0.24861 0.03022 0.0
H1300 H 0.75255 0.2861 0.02948 0.0
H1301 H 0.74566 0.27894 1.00898 0.0
H1302 H 0.76452 0.26664 0.97034 0.0
H1303 H 0.78399 0.25471 1.0091 0.0
C1304 C 0.76655 0.26854 0.05709 0.0
C1305 C 0.75865 0.27846 0.04973 0.0
C1306 C 0.77379 0.258 0.05009 0.0
C1307 C 0.77272 0.25715 0.03535 0.0
C1308 C 0.76517 0.26726 0.02742 0.0
C1309 C 0.75815 0.27791 0.03494 0.0
C1310 C 0.76483 0.26683 1.01147 0.0
C1311 C 0.75414 0.27374 1.0037 0.0
C1312 C 0.75407 0.27382 0.9889 0.0
C1313 C 0.76454 0.26661 0.98174 0.0
C1314 C 0.77515 0.2595 0.98898 0.0
C1315 C 0.77533 0.25974 1.00378 0.0
H1316 H 0.7651 0.76699 0.96975 0.0
H1317 H 0.75323 0.74714 1.00841 0.0
H1318 H 0.77785 0.78587 1.00848 0.0
H1319 H 0.78439 0.77954 0.02943 0.0
H1320 H 0.7654 0.76629 0.06801 0.0
H1321 H 0.74666 0.7533 0.02922 0.0
C1322 C 0.76528 0.76679 0.98115 0.0
C1323 C 0.77259 0.77738 0.98837 0.0
C1324 C 0.75811 0.75603 0.98832 0.0
C1325 C 0.7584 0.75583 1.00313 0.0
C1326 C 0.76555 0.76648 1.0109 0.0
C1327 C 0.77261 0.77726 1.00317 0.0
C1328 C 0.76554 0.76641 0.02687 0.0
C1329 C 0.77595 0.77394 0.03468 0.0
C1330 C 0.77585 0.77403 0.04949 0.0
C1331 C 0.76544 0.76632 0.05661 0.0
C1332 C 0.75509 0.75867 0.04936 0.0
C1333 C 0.75509 0.75884 0.03456 0.0
H1334 H 0.26772 0.76754 0.07047 0.0
H1335 H 0.27959 0.74827 0.03197 0.0
H1336 H 0.25476 0.78619 0.0317 0.0
H1337 H 0.24911 0.78086 1.01059 0.0
H1338 H 0.26876 0.7692 0.97224 0.0
H1339 H 0.28573 0.75406 1.01103 0.0
C1340 C 0.26772 0.76757 0.05907 0.0
C1341 C 0.26016 0.77781 0.0518 0.0
C1342 C 0.27503 0.75717 0.05195 0.0
C1343 C 0.27432 0.75673 0.03717 0.0
C1344 C 0.26712 0.76718 0.02932 0.0
C1345 C 0.26006 0.77771 0.037 0.0
C1346 C 0.26732 0.76735 0.01333 0.0
C1347 C 0.25744 0.7753 1.00545 0.0
C1348 C 0.25831 0.77643 0.99073 0.0
C1349 C 0.26849 0.7688 0.98363 0.0
C1350 C 0.27816 0.76049 0.99089 0.0
C1351 C 0.27767 0.75996 1.00569 0.0
H1352 H 0.06164 0.26082 0.27335 0.0
H1353 H 0.02349 0.25058 0.25152 0.0
H1354 H 0.02278 0.27574 0.28942 0.0
H1355 H 1.00257 0.28276 0.28225 0.0
H1356 H 0.96358 0.26531 0.26757 0.0
H1357 H 1.00188 0.24539 0.25637 0.0
C1358 C 0.05026 0.26131 0.27265 0.0
C1359 C 0.04294 0.26933 0.28237 0.0
C1360 C 0.04326 0.25426 0.26176 0.0
C1361 C 0.02857 0.25564 0.26035 0.0
C1362 C 0.02066 0.26329 0.2703 0.0
C1363 C 0.02819 0.27008 0.28133 0.0
C1364 C 1.0047 0.26401 0.26938 0.0
C1365 C 0.99714 0.27458 0.27649 0.0
C1366 C 0.98233 0.27497 0.27601 0.0
C1367 C 0.97497 0.26497 0.26805 0.0
C1368 C 0.982 0.25448 0.26077 0.0
C1369 C 0.99678 0.25395 0.26158 0.0
H1370 H 0.76429 0.96418 0.26924 0.0
H1371 H 0.78352 1.00304 0.25666 0.0
H1372 H 0.74415 1.00252 0.27962 0.0
H1373 H 0.74995 0.0237 0.28577 0.0
H1374 H 0.76224 0.06206 0.26555 0.0
H1375 H 0.77691 0.02336 0.24907 0.0
C1376 C 0.76418 0.97555 0.26894 0.0
C1377 C 0.75325 0.98261 0.27554 0.0
C1378 C 0.77493 0.98286 0.26192 0.0
C1379 C 0.77481 0.99763 0.26167 0.0
C1380 C 0.76382 1.00521 0.26811 0.0
C1381 C 0.75303 0.99736 0.27498 0.0
C1382 C 0.76348 0.02111 0.26751 0.0
C1383 C 0.75553 0.0289 0.27731 0.0
C1384 C 0.7546 0.0436 0.27626 0.0
C1385 C 0.76235 0.05069 0.26589 0.0
C1386 C 0.77065 0.04346 0.25633 0.0
C1387 C 0.77097 0.02872 0.257 0.0
H1388 H 0.06397 0.76684 0.27243 0.0
H1389 H 0.02513 0.75181 0.28961 0.0
H1390 H 0.0255 0.77919 0.25292 0.0
H1391 H 1.00424 0.78412 0.25831 0.0
H1392 H 0.96556 0.76396 0.26997 0.0
H1393 H 1.00425 0.74578 0.28326 0.0
C1394 C 0.05256 0.76669 0.2723 0.0
C1395 C 0.04546 0.77451 0.26208 0.0
C1396 C 0.04528 0.75825 0.28198 0.0
C1397 C 0.03046 0.75788 0.28158 0.0
C1398 C 0.02279 0.76546 0.27122 0.0
C1399 C 0.03067 0.77354 0.2613 0.0
C1400 C 1.00677 0.76502 0.27084 0.0
C1401 C 0.999 0.77541 0.26349 0.0
C1402 C 0.98418 0.775 0.26304 0.0
C1403 C 0.97698 0.76428 0.27023 0.0
C1404 C 0.98418 0.75394 0.27773 0.0
C1405 C 0.999 0.75424 0.27787 0.0
H1406 H 0.26596 0.06559 0.26715 0.0
H1407 H 0.2501 0.02695 0.25053 0.0
H1408 H 0.2777 0.02727 0.28711 0.0
H1409 H 0.28179 1.00576 0.28258 0.0
H1410 H 0.2603 0.96762 0.27198 0.0
H1411 H 0.24382 1.00632 0.2569 0.0
C1412 C 0.26561 0.05421 0.26741 0.0
C1413 C 0.27335 0.04711 0.2777 0.0
C1414 C 0.25698 0.047 0.25786 0.0
C1415 C 0.25634 0.03223 0.25846 0.0
C1416 C 0.26383 0.02456 0.2689 0.0
C1417 C 0.27211 0.03239 0.27867 0.0
C1418 C 0.26293 1.0086 0.26966 0.0
C1419 C 0.27296 1.0007 0.27742 0.0
C1420 C 0.27172 0.986 0.27873 0.0
C1421 C 0.26088 0.97898 0.27154 0.0
C1422 C 0.25106 0.98626 0.26342 0.0
C1423 C 0.25196 1.001 0.2627 0.0
H1424 H 0.06379 0.76603 0.77038 0.0
H1425 H 0.02505 0.74723 0.7569 0.0
H1426 H 0.02528 0.78473 0.78267 0.0
H1427 H 1.00391 0.78013 0.78739 0.0
H1428 H 0.9653 0.76614 0.76878 0.0
H1429 H 1.00392 0.75189 0.75167 0.0
C1430 C 0.05238 0.76602 0.77019 0.0
C1431 C 0.04522 0.77626 0.77768 0.0
C1432 C 0.04513 0.75575 0.76249 0.0
C1433 C 0.0303 0.75565 0.76246 0.0
C1434 C 0.02256 0.76598 0.76977 0.0
C1435 C 0.03041 0.77632 0.77728 0.0
C1436 C 1.00652 0.76601 0.76955 0.0
C1437 C 0.99872 0.77406 0.77931 0.0
C1438 C 0.98392 0.77454 0.7787 0.0
C1439 C 0.97672 0.7661 0.76901 0.0
C1440 C 0.98391 0.75762 0.7596 0.0
C1441 C 0.99872 0.758 0.75954 0.0
H1442 H 0.26707 0.96609 0.77383 0.0
H1443 H 0.27797 1.00404 0.75228 0.0
H1444 H 0.25041 1.00462 0.7886 0.0
H1445 H 0.24393 0.02473 0.78158 0.0
H1446 H 0.26056 0.06362 0.76605 0.0
H1447 H 0.2817 0.02582 0.75602 0.0
C1448 C 0.26642 0.97742 0.77304 0.0
C1449 C 0.25761 0.98462 0.78216 0.0
C1450 C 0.27402 0.98445 0.76255 0.0
C1451 C 0.27246 0.99903 0.76088 0.0
C1452 C 0.26404 1.00687 0.77025 0.0
C1453 C 0.25671 0.99931 0.78093 0.0
C1454 C 0.26296 0.02274 0.76896 0.0
C1455 C 0.25204 0.03017 0.7757 0.0
C1456 C 0.2512 0.04488 0.7748 0.0
C1457 C 0.26099 0.05227 0.76657 0.0
C1458 C 0.27173 0.04538 0.75951 0.0
C1459 C 0.27292 0.03075 0.76106 0.0
H1460 H 0.06231 0.26415 0.76727 0.0
H1461 H 0.02341 0.25231 0.78666 0.0
H1462 H 0.02378 0.2772 0.74825 0.0
H1463 H 1.00306 0.28385 0.75445 0.0
H1464 H 0.96396 0.26589 0.76795 0.0
H1465 H 1.00226 0.24621 0.78044 0.0
C1466 C 0.0509 0.26436 0.76735 0.0
C1467 C 0.04381 0.27176 0.75679 0.0
C1468 C 0.04358 0.25715 0.77793 0.0
C1469 C 0.02877 0.25753 0.77806 0.0
C1470 C 0.02113 0.26484 0.7675 0.0
C1471 C 0.02899 0.27188 0.75683 0.0
C1472 C 1.00514 0.26509 0.76758 0.0
C1473 C 0.99762 0.27557 0.76012 0.0
C1474 C 0.98282 0.27574 0.76015 0.0
C1475 C 0.97537 0.26561 0.76786 0.0
C1476 C 0.98234 0.25507 0.7753 0.0
C1477 C 0.99716 0.25478 0.77507 0.0
H1478 H 0.76333 0.06483 0.77047 0.0
H1479 H 0.74937 0.02634 0.75204 0.0
H1480 H 0.77907 0.02634 0.78697 0.0
H1481 H 0.78437 1.00556 0.78066 0.0
H1482 H 0.76503 0.96675 0.76856 0.0
H1483 H 0.74477 1.00499 0.75758 0.0
C1484 C 0.76365 0.05346 0.77015 0.0
C1485 C 0.77266 0.04634 0.7793 0.0
C1486 C 0.75496 0.04627 0.76065 0.0
C1487 C 0.7557 0.03154 0.75994 0.0
C1488 C 0.76429 0.0238 0.76944 0.0
C1489 C 0.77257 0.03156 0.77928 0.0
C1490 C 0.76454 1.00782 0.76915 0.0
C1491 C 0.77559 1.00022 0.77571 0.0
C1492 C 0.77572 0.98544 0.77564 0.0
C1493 C 0.76491 0.97812 0.76872 0.0
C1494 C 0.75393 0.98515 0.76201 0.0
C1495 C 0.7537 0.99991 0.76236 0.0
H1496 H 0.26764 0.76203 0.46871 0.0
H1497 H 0.25202 0.74541 0.50749 0.0
H1498 H 0.27912 0.78253 0.50697 0.0
H1499 H 0.28416 0.77719 0.52843 0.0
H1500 H 0.26404 0.76538 0.56685 0.0
H1501 H 0.24573 0.75194 0.52804 0.0
C1502 C 0.26724 0.76242 0.4801 0.0
C1503 C 0.27483 0.77292 0.48714 0.0
C1504 C 0.25874 0.75277 0.48737 0.0
C1505 C 0.25812 0.75344 0.50213 0.0
C1506 C 0.26554 0.76402 0.50974 0.0
C1507 C 0.27362 0.77396 0.50186 0.0
C1508 C 0.26499 0.76455 0.52572 0.0
C1509 C 0.27542 0.77198 0.53359 0.0
C1510 C 0.27504 0.77241 0.54838 0.0
C1511 C 0.26428 0.76517 0.55546 0.0
C1512 C 0.25389 0.75759 0.54818 0.0
C1513 C 0.25418 0.75744 0.53338 0.0
H1514 H 0.7679 0.76861 0.56939 0.0
H1515 H 0.78452 0.75357 0.53088 0.0
H1516 H 0.75017 0.78326 0.53089 0.0
H1517 H 0.75406 0.78705 0.50952 0.0
H1518 H 0.76926 0.77067 0.47098 0.0
H1519 H 0.78121 0.75067 0.5093 0.0
C1520 C 0.76789 0.76868 0.55799 0.0
C1521 C 0.7585 0.77732 0.55079 0.0
C1522 C 0.77703 0.75993 0.5508 0.0
C1523 C 0.77685 0.75997 0.536 0.0
C1524 C 0.76731 0.7684 0.52818 0.0
C1525 C 0.75791 0.77681 0.536 0.0
C1526 C 0.76751 0.76874 0.51212 0.0
C1527 C 0.76006 0.7791 0.50436 0.0
C1528 C 0.76059 0.77977 0.48959 0.0
C1529 C 0.76891 0.77026 0.48237 0.0
C1530 C 0.77659 0.76004 0.48952 0.0
C1531 C 0.77551 0.75901 0.50425 0.0
H1532 H 0.76711 0.26295 0.46872 0.0
H1533 H 0.75186 0.24623 0.50758 0.0
H1534 H 0.77891 0.28338 0.50689 0.0
H1535 H 0.78365 0.27863 0.52844 0.0
H1536 H 0.76393 0.2664 0.56691 0.0
H1537 H 0.7458 0.25247 0.52819 0.0
C1538 C 0.76682 0.2633 0.48011 0.0
C1539 C 0.77449 0.27379 0.4871 0.0
C1540 C 0.75841 0.25361 0.48743 0.0
C1541 C 0.75789 0.25428 0.5022 0.0
C1542 C 0.76531 0.2649 0.50977 0.0
C1543 C 0.77336 0.27482 0.50183 0.0
C1544 C 0.76479 0.26548 0.52577 0.0
C1545 C 0.77505 0.2732 0.53359 0.0
C1546 C 0.77468 0.27366 0.54838 0.0
C1547 C 0.76414 0.26617 0.55552 0.0
C1548 C 0.75389 0.25836 0.54829 0.0
C1549 C 0.75415 0.25817 0.53348 0.0
H1550 H 0.26701 0.26689 0.56915 0.0
H1551 H 0.25305 0.28416 0.53004 0.0
H1552 H 0.27823 0.24654 0.53097 0.0
H1553 H 0.28443 0.25273 0.50984 0.0
H1554 H 0.26502 0.26464 0.47104 0.0
H1555 H 0.24598 0.27677 0.50965 0.0
C1556 C 0.2668 0.26658 0.55775 0.0
C1557 C 0.27403 0.256 0.55081 0.0
C1558 C 0.25899 0.27652 0.55033 0.0
C1559 C 0.25857 0.27595 0.53555 0.0
C1560 C 0.26554 0.26523 0.5281 0.0
C1561 C 0.27303 0.25511 0.53607 0.0
C1562 C 0.26522 0.26477 0.51216 0.0
C1563 C 0.27576 0.25773 0.5045 0.0
C1564 C 0.27561 0.25751 0.48971 0.0
C1565 C 0.265 0.26459 0.48244 0.0
C1566 C 0.25448 0.27174 0.48958 0.0
C1567 C 0.25451 0.27163 0.50438 0.0
H1568 H 0.76685 0.46729 0.77281 0.0
H1569 H 0.75138 0.50586 0.78875 0.0
H1570 H 0.77942 0.50561 0.75282 0.0
H1571 H 0.78446 0.52692 0.75815 0.0
H1572 H 0.76508 0.56528 0.76958 0.0
H1573 H 0.74568 0.52653 0.78215 0.0
C1574 C 0.76658 0.47865 0.77239 0.0
C1575 C 0.77459 0.48578 0.76226 0.0
C1576 C 0.75795 0.48584 0.78168 0.0
C1577 C 0.75756 0.50058 0.78097 0.0
C1578 C 0.76532 0.50826 0.77068 0.0
C1579 C 0.77358 0.50046 0.76112 0.0
C1580 C 0.76505 0.5242 0.77014 0.0
C1581 C 0.77573 0.53205 0.76307 0.0
C1582 C 0.77566 0.54681 0.7627 0.0
C1583 C 0.765 0.5539 0.76967 0.0
C1584 C 0.75437 0.54663 0.77691 0.0
C1585 C 0.75431 0.53185 0.77694 0.0
H1586 H 0.26177 0.56389 0.77029 0.0
H1587 H 0.24522 0.52498 0.75529 0.0
H1588 H 0.28307 0.52619 0.78122 0.0
H1589 H 0.28003 0.50441 0.78491 0.0
H1590 H 0.26791 0.4661 0.76508 0.0
H1591 H 0.2506 0.50432 0.74974 0.0
C1592 C 0.26254 0.55256 0.76969 0.0
C1593 C 0.27338 0.54574 0.77684 0.0
C1594 C 0.25264 0.54508 0.76173 0.0
C1595 C 0.25339 0.53037 0.76113 0.0
C1596 C 0.26424 0.52293 0.76824 0.0
C1597 C 0.27427 0.53103 0.776 0.0
C1598 C 0.26517 0.50699 0.76745 0.0
C1599 C 0.27404 0.49928 0.77673 0.0
C1600 C 0.27546 0.48465 0.7755 0.0
C1601 C 0.26732 0.47744 0.76554 0.0
C1602 C 0.25813 0.48448 0.75652 0.0
C1603 C 0.25728 0.49919 0.75732 0.0
H1604 H 0.26335 0.46243 0.26901 0.0
H1605 H 0.25127 0.50072 0.28826 0.0
H1606 H 0.27746 0.50122 0.25095 0.0
H1607 H 0.28392 0.52181 0.25715 0.0
H1608 H 0.26786 0.56038 0.27246 0.0
H1609 H 0.24663 0.52212 0.28341 0.0
C1610 C 0.26361 0.4738 0.26915 0.0
C1611 C 0.27155 0.4811 0.25906 0.0
C1612 C 0.25609 0.48086 0.27947 0.0
C1613 C 0.25665 0.49561 0.27978 0.0
C1614 C 0.26441 0.50349 0.26964 0.0
C1615 C 0.27173 0.49588 0.25921 0.0
C1616 C 0.26513 0.51944 0.27015 0.0
C1617 C 0.27589 0.52709 0.26301 0.0
C1618 C 0.2768 0.54182 0.26367 0.0
C1619 C 0.26722 0.54902 0.27195 0.0
C1620 C 0.2566 0.54192 0.27934 0.0
C1621 C 0.25528 0.52724 0.27804 0.0
H1622 H 0.76234 0.56578 0.27017 0.0
H1623 H 0.75168 0.52766 0.24895 0.0
H1624 H 0.77634 0.52694 0.2875 0.0
H1625 H 0.78399 0.50706 0.2802 0.0
H1626 H 0.76779 0.46818 0.26446 0.0
H1627 H 0.74642 0.50601 0.25399 0.0
C1628 C 0.76283 0.55444 0.26958 0.0
C1629 C 0.77041 0.5471 0.27983 0.0
C1630 C 0.75588 0.54747 0.25861 0.0
C1631 C 0.75666 0.53274 0.25783 0.0
C1632 C 0.76415 0.52485 0.26809 0.0
C1633 C 0.7709 0.53237 0.27914 0.0
C1634 C 0.76506 0.50898 0.26722 0.0
C1635 C 0.77594 0.50158 0.27425 0.0
C1636 C 0.77689 0.48688 0.27336 0.0
C1637 C 0.76718 0.47951 0.26503 0.0
C1638 C 0.75643 0.48639 0.25778 0.0
C1639 C 0.75515 0.50101 0.25922 0.0
H1640 H 0.46464 0.26384 0.77153 0.0
H1641 H 0.50396 0.27822 0.78833 0.0
H1642 H 0.50252 0.25237 0.75086 0.0
H1643 H 0.52391 0.24736 0.75519 0.0
H1644 H 0.56303 0.26549 0.7683 0.0
H1645 H 0.52485 0.284 0.78217 0.0
C1646 C 0.47605 0.26408 0.7711 0.0
C1647 C 0.48285 0.2567 0.76051 0.0
C1648 C 0.48361 0.27208 0.78089 0.0
C1649 C 0.49842 0.27252 0.78019 0.0
C1650 C 0.50579 0.26535 0.76947 0.0
C1651 C 0.49761 0.25772 0.75947 0.0
C1652 C 0.5218 0.26561 0.76886 0.0
C1653 C 0.52931 0.25558 0.76091 0.0
C1654 C 0.5441 0.25573 0.76054 0.0
C1655 C 0.55162 0.26567 0.76837 0.0
C1656 C 0.5447 0.27573 0.77632 0.0
C1657 C 0.52987 0.27578 0.77638 0.0
H1658 H 0.56377 0.76752 0.77297 0.0
H1659 H 0.52496 0.7515 0.78927 0.0
H1660 H 0.52551 0.77882 0.7525 0.0
H1661 H 0.50376 0.78215 0.75593 0.0
H1662 H 0.46561 0.76051 0.76643 0.0
H1663 H 0.50425 0.74548 0.78337 0.0
C1664 C 0.55236 0.7671 0.7726 0.0
C1665 C 0.5453 0.77469 0.76218 0.0
C1666 C 0.54507 0.75849 0.78212 0.0
C1667 C 0.53027 0.75774 0.78136 0.0
C1668 C 0.52263 0.76507 0.77077 0.0
C1669 C 0.53056 0.77333 0.76105 0.0
C1670 C 0.50663 0.76396 0.76977 0.0
C1671 C 0.49873 0.7735 0.76139 0.0
C1672 C 0.48406 0.77192 0.75976 0.0
C1673 C 0.47699 0.76133 0.76723 0.0
C1674 C 0.48423 0.75209 0.77602 0.0
C1675 C 0.49898 0.75325 0.77705 0.0
H1676 H 0.46422 0.76783 0.26484 0.0
H1677 H 0.50312 0.78462 0.28035 0.0
H1678 H 0.50248 0.74912 0.25186 0.0
H1679 H 0.52382 0.75395 0.24734 0.0
H1680 H 0.56267 0.76766 0.26559 0.0
H1681 H 0.52429 0.77951 0.28504 0.0
C1682 C 0.47563 0.76771 0.26507 0.0
C1683 C 0.48268 0.75791 0.25692 0.0
C1684 C 0.48296 0.7771 0.27375 0.0
C1685 C 0.49778 0.77677 0.2741 0.0
C1686 C 0.5054 0.7668 0.26617 0.0
C1687 C 0.49744 0.75717 0.25786 0.0
C1688 C 0.52145 0.76671 0.26623 0.0
C1689 C 0.52911 0.7595 0.25573 0.0
C1690 C 0.54393 0.75974 0.25554 0.0
C1691 C 0.55125 0.76755 0.26565 0.0
C1692 C 0.54418 0.77496 0.27603 0.0
C1693 C 0.52939 0.77414 0.27657 0.0
H1694 H 0.56543 0.26206 0.26867 0.0
H1695 H 0.52729 0.28306 0.25844 0.0
H1696 H 0.52646 0.24448 0.283 0.0
H1697 H 0.50612 0.25084 0.29001 0.0
H1698 H 0.46739 0.2669 0.27415 0.0
H1699 H 0.50564 0.2785 0.25353 0.0
C1700 C 0.55406 0.26259 0.26929 0.0
C1701 C 0.54668 0.25231 0.27692 0.0
C1702 C 0.54708 0.2735 0.26242 0.0
C1703 C 0.53232 0.27419 0.26334 0.0
C1704 C 0.52436 0.26386 0.27082 0.0
C1705 C 0.53189 0.25288 0.27752 0.0
C1706 C 0.5084 0.26461 0.27168 0.0
C1707 C 0.50077 0.2571 0.2822 0.0
C1708 C 0.486 0.2578 0.28306 0.0
C1709 C 0.47878 0.26648 0.27367 0.0
C1710 C 0.48585 0.27421 0.26329 0.0
C1711 C 0.50054 0.27291 0.26204 0.0
C1712 C 0.2251 0.21037 0.11043 0.0
C1713 C 0.21067 0.20712 0.11113 0.0
C1714 C 0.23069 0.21852 0.09938 0.0
C1715 C 0.22165 0.22361 0.08867 0.0
C1716 C 0.20707 0.22034 0.08925 0.0
C1717 C 0.20175 0.21219 0.10049 0.0
C1718 C 0.24627 0.22184 0.09928 0.0
C1719 C 0.1971 0.2255 0.07802 0.0
C1720 C 0.23647 0.25564 0.06959 0.0
C1721 C 0.243 0.2496 0.05793 0.0
C1722 C 0.2288 0.24741 0.07924 0.0
C1723 C 0.22755 0.23274 0.07722 0.0
C1724 C 0.23329 0.22673 0.06494 0.0
C1725 C 0.24094 0.23524 0.05543 0.0
C1726 C 0.22281 0.25431 0.0921 0.0
C1727 C 0.23213 0.21117 0.06231 0.0
H1728 H 0.23206 0.20672 0.11869 0.0
H1729 H 0.19061 0.20962 0.10085 0.0
H1730 H 0.25099 0.2182 0.08933 0.0
H1731 H 0.24802 0.23336 0.09982 0.0
H1732 H 0.25192 0.21686 0.10822 0.0
H1733 H 0.18611 0.22178 0.0798 0.0
H1734 H 0.19725 0.23713 0.07774 0.0
H1735 H 0.20056 0.22187 0.06755 0.0
H1736 H 0.23787 0.26677 0.07148 0.0
H1737 H 0.24602 0.23049 0.0465 0.0
H1738 H 0.22878 0.25094 0.10155 0.0
H1739 H 0.21168 0.25101 0.09364 0.0
H1740 H 0.22335 0.26594 0.09138 0.0
H1741 H 0.23887 0.20551 0.06994 0.0
H1742 H 0.23547 0.20841 0.05151 0.0
H1743 H 0.22115 0.20739 0.06389 0.0
C1744 C 0.79951 0.20815 0.11104 0.0
C1745 C 0.81329 0.20312 0.11019 0.0
C1746 C 0.79374 0.21643 0.10026 0.0
C1747 C 0.8019 0.21978 0.08824 0.0
C1748 C 0.81575 0.21459 0.08721 0.0
C1749 C 0.8213 0.20637 0.09821 0.0
C1750 C 0.77899 0.22186 0.10189 0.0
C1751 C 0.82475 0.21786 0.07456 0.0
C1752 C 0.78114 0.23349 0.05669 0.0
C1753 C 0.7824 0.24804 0.05855 0.0
C1754 C 0.78792 0.22411 0.06592 0.0
C1755 C 0.79613 0.22941 0.07725 0.0
C1756 C 0.79797 0.24409 0.07871 0.0
C1757 C 0.79114 0.25318 0.06934 0.0
C1758 C 0.78577 0.20854 0.06393 0.0
C1759 C 0.80665 0.25024 0.09057 0.0
H1760 H 0.79331 0.20587 0.12033 0.0
H1761 H 0.83188 0.2024 0.09739 0.0
H1762 H 0.77926 0.23349 0.10221 0.0
H1763 H 0.77243 0.21877 0.09271 0.0
H1764 H 0.77384 0.21787 0.1116 0.0
H1765 H 0.83503 0.21246 0.07501 0.0
H1766 H 0.81915 0.21469 0.0648 0.0
H1767 H 0.82676 0.22933 0.07382 0.0
H1768 H 0.77438 0.22944 0.04841 0.0
H1769 H 0.79235 0.26442 0.07069 0.0
H1770 H 0.77934 0.20421 0.07268 0.0
H1771 H 0.79603 0.20313 0.06422 0.0
H1772 H 0.78037 0.20607 0.05385 0.0
H1773 H 0.80158 0.24769 0.10077 0.0
H1774 H 0.80783 0.26182 0.08967 0.0
H1775 H 0.81727 0.24557 0.09077 0.0
C1776 C 0.82703 0.81985 0.10084 0.0
C1777 C 0.81804 0.82492 0.11126 0.0
C1778 C 0.82177 0.81175 0.08957 0.0
C1779 C 0.80718 0.80855 0.08873 0.0
C1780 C 0.79807 0.81366 0.09921 0.0
C1781 C 0.80359 0.82175 0.11029 0.0
C1782 C 0.83183 0.80656 0.07861 0.0
C1783 C 0.78247 0.81042 0.09884 0.0
C1784 C 0.78828 0.79678 0.05524 0.0
C1785 C 0.78621 0.78242 0.05791 0.0
C1786 C 0.79579 0.80534 0.0648 0.0
C1787 C 0.80137 0.79938 0.07731 0.0
C1788 C 0.8001 0.78472 0.07954 0.0
C1789 C 0.79258 0.77645 0.06983 0.0
C1790 C 0.79698 0.82089 0.06194 0.0
C1791 C 0.80593 0.77787 0.09264 0.0
H1792 H 0.83817 0.82235 0.10139 0.0
H1793 H 0.79657 0.82541 0.11839 0.0
H1794 H 0.8317 0.79492 0.07852 0.0
H1795 H 0.82844 0.81013 0.06801 0.0
H1796 H 0.84279 0.81029 0.0805 0.0
H1797 H 0.77676 0.81547 0.10757 0.0
H1798 H 0.77788 0.81402 0.08873 0.0
H1799 H 0.78067 0.79891 0.09955 0.0
H1800 H 0.78333 0.80148 0.0461 0.0
H1801 H 0.79117 0.76532 0.07186 0.0
H1802 H 0.80794 0.82467 0.06369 0.0
H1803 H 0.79016 0.82658 0.06935 0.0
H1804 H 0.79374 0.82361 0.05103 0.0
H1805 H 0.81705 0.78112 0.09434 0.0
H1806 H 0.80534 0.76624 0.09213 0.0
H1807 H 0.79988 0.78131 0.10191 0.0
C1808 C 0.21606 0.81344 0.11173 0.0
C1809 C 0.21473 0.82807 0.11085 0.0
C1810 C 0.22273 0.80587 0.10106 0.0
C1811 C 0.22827 0.81306 0.08918 0.0
C1812 C 0.22659 0.82775 0.08802 0.0
C1813 C 0.21984 0.83506 0.09883 0.0
C1814 C 0.22427 0.79021 0.10274 0.0
C1815 C 0.23229 0.83583 0.07554 0.0
C1816 C 0.25893 0.79519 0.0714 0.0
C1817 C 0.25233 0.78842 0.06003 0.0
C1818 C 0.25131 0.8036 0.08064 0.0
C1819 C 0.23667 0.80531 0.07854 0.0
C1820 C 0.23005 0.79901 0.06671 0.0
C1821 C 0.23797 0.79067 0.05757 0.0
C1822 C 0.25886 0.81023 0.09298 0.0
C1823 C 0.21448 0.80056 0.06407 0.0
H1824 H 0.21231 0.80792 0.121 0.0
H1825 H 0.21867 0.84631 0.09789 0.0
H1826 H 0.22023 0.78475 0.09325 0.0
H1827 H 0.23557 0.78763 0.10385 0.0
H1828 H 0.21858 0.78605 0.11208 0.0
H1829 H 0.22931 0.84705 0.07572 0.0
H1830 H 0.24394 0.83524 0.07544 0.0
H1831 H 0.22837 0.83112 0.06561 0.0
H1832 H 0.27006 0.7936 0.07328 0.0
H1833 H 0.2328 0.78538 0.04887 0.0
H1834 H 0.25475 0.80568 0.10293 0.0
H1835 H 0.25689 0.82167 0.09321 0.0
H1836 H 0.27041 0.8086 0.09265 0.0
H1837 H 0.2085 0.79512 0.07254 0.0
H1838 H 0.21116 0.79608 0.0538 0.0
H1839 H 0.21157 0.81178 0.06431 0.0
C1840 C 0.21289 0.81121 0.93014 0.0
C1841 C 0.20962 0.82536 0.93225 0.0
C1842 C 0.21946 0.80326 0.94073 0.0
C1843 C 0.22289 0.80956 0.95378 0.0
C1844 C 0.21906 0.82364 0.9562 0.0
C1845 C 0.21248 0.83135 0.94543 0.0
C1846 C 0.22337 0.7883 0.93768 0.0
C1847 C 0.22244 0.83075 0.96997 0.0
C1848 C 0.23434 0.78535 0.9838 0.0
C1849 C 0.24903 0.78588 0.98242 0.0
C1850 C 0.22564 0.79325 0.97478 0.0
C1851 C 0.23179 0.80191 0.96423 0.0
C1852 C 0.24663 0.80287 0.96321 0.0
C1853 C 0.25502 0.79488 0.9723 0.0
C1854 C 0.20987 0.79197 0.97623 0.0
C1855 C 0.25368 0.81203 0.95223 0.0
H1856 H 0.21086 0.8065 0.91999 0.0
H1857 H 0.20978 0.84219 0.94726 0.0
H1858 H 0.23499 0.78749 0.93716 0.0
H1859 H 0.21971 0.78124 0.94626 0.0
H1860 H 0.21882 0.78453 0.92759 0.0
H1861 H 0.21749 0.8412 0.97075 0.0
H1862 H 0.21884 0.82413 0.97892 0.0
H1863 H 0.234 0.83215 0.97104 0.0
H1864 H 0.22966 0.77838 0.99156 0.0
H1865 H 0.26638 0.79548 0.97133 0.0
H1866 H 0.20536 0.78685 0.96675 0.0
H1867 H 0.20516 0.80252 0.97695 0.0
H1868 H 0.20675 0.78572 0.98563 0.0
H1869 H 0.25075 0.80829 0.94158 0.0
H1870 H 0.26533 0.81205 0.95321 0.0
H1871 H 0.25001 0.82298 0.95311 0.0
C1872 C 0.21213 0.22457 0.92692 0.0
C1873 C 0.20773 0.21046 0.92697 0.0
C1874 C 0.21992 0.23026 0.93816 0.0
C1875 C 0.22348 0.22166 0.94981 0.0
C1876 C 0.21892 0.20745 0.95004 0.0
C1877 C 0.21107 0.20202 0.93864 0.0
C1878 C 0.22447 0.2455 0.93749 0.0
C1879 C 0.22254 0.19791 0.9622 0.0
C1880 C 0.2556 0.23509 0.96978 0.0
C1881 C 0.24948 0.24271 0.98068 0.0
C1882 C 0.24729 0.22749 0.96016 0.0
C1883 C 0.23244 0.22754 0.96138 0.0
C1884 C 0.22625 0.23448 0.9729 0.0
C1885 C 0.23485 0.24195 0.98245 0.0
C1886 C 0.25438 0.22013 0.94817 0.0
C1887 C 0.21048 0.23479 0.97463 0.0
H1888 H 0.20938 0.23125 0.9181 0.0
H1889 H 0.20781 0.19109 0.93874 0.0
H1890 H 0.22063 0.25112 0.94686 0.0
H1891 H 0.23613 0.24631 0.93759 0.0
H1892 H 0.22049 0.25088 0.92791 0.0
H1893 H 0.21766 0.18731 0.96112 0.0
H1894 H 0.23413 0.19678 0.96293 0.0
H1895 H 0.21901 0.20255 0.97222 0.0
H1896 H 0.26693 0.23554 0.96846 0.0
H1897 H 0.23006 0.2479 0.99079 0.0
H1898 H 0.25208 0.22572 0.93817 0.0
H1899 H 0.25021 0.20925 0.94712 0.0
H1900 H 0.26598 0.21974 0.94958 0.0
H1901 H 0.20585 0.24143 0.96622 0.0
H1902 H 0.2074 0.23909 0.98497 0.0
H1903 H 0.20586 0.22411 0.97353 0.0
C1904 C 0.833 0.22045 0.9415 0.0
C1905 C 0.82595 0.21512 0.92962 0.0
C1906 C 0.82566 0.22702 0.95239 0.0
C1907 C 0.81085 0.2283 0.95146 0.0
C1908 C 0.80361 0.22252 0.93973 0.0
C1909 C 0.81123 0.21603 0.92898 0.0
C1910 C 0.83379 0.23298 0.9647 0.0
C1911 C 0.78784 0.22364 0.93829 0.0
C1912 C 0.78855 0.23768 0.98329 0.0
C1913 C 0.7859 0.2519 0.98072 0.0
C1914 C 0.79701 0.22992 0.97412 0.0
C1915 C 0.80302 0.23656 0.96214 0.0
C1916 C 0.80092 0.25109 0.95992 0.0
C1917 C 0.79241 0.25854 0.9692 0.0
C1918 C 0.79899 0.21447 0.97689 0.0
C1919 C 0.80723 0.25867 0.94742 0.0
H1920 H 0.84434 0.2196 0.94226 0.0
H1921 H 0.80565 0.21211 0.91982 0.0
H1922 H 0.83293 0.24457 0.96471 0.0
H1923 H 0.82928 0.22905 0.97474 0.0
H1924 H 0.84511 0.23026 0.96439 0.0
H1925 H 0.78367 0.21778 0.92907 0.0
H1926 H 0.78261 0.21955 0.9479 0.0
H1927 H 0.78494 0.23482 0.93712 0.0
H1928 H 0.78347 0.23247 0.99211 0.0
H1929 H 0.79051 0.26957 0.96725 0.0
H1930 H 0.81031 0.21184 0.97649 0.0
H1931 H 0.79355 0.20831 0.96857 0.0
H1932 H 0.79473 0.21115 0.98726 0.0
H1933 H 0.81874 0.25697 0.94705 0.0
H1934 H 0.80531 0.27013 0.94766 0.0
H1935 H 0.80263 0.25437 0.93757 0.0
C1936 C 0.81209 0.83569 0.93986 0.0
C1937 C 0.81683 0.82875 0.92782 0.0
C1938 C 0.80557 0.8283 0.95097 0.0
C1939 C 0.80375 0.81356 0.95009 0.0
C1940 C 0.80892 0.80644 0.93819 0.0
C1941 C 0.81537 0.81409 0.92723 0.0
C1942 C 0.80027 0.83631 0.96345 0.0
C1943 C 0.80721 0.79074 0.9368 0.0
C1944 C 0.79463 0.79095 0.98219 0.0
C1945 C 0.78022 0.78836 0.98004 0.0
C1946 C 0.80239 0.79951 0.9728 0.0
C1947 C 0.79554 0.80568 0.96105 0.0
C1948 C 0.78084 0.80367 0.95931 0.0
C1949 C 0.7734 0.79504 0.96879 0.0
C1950 C 0.81802 0.8014 0.97506 0.0
C1951 C 0.77305 0.81015 0.94707 0.0
H1952 H 0.81337 0.84698 0.94057 0.0
H1953 H 0.81883 0.80861 0.91795 0.0
H1954 H 0.78862 0.83551 0.96385 0.0
H1955 H 0.80438 0.83169 0.97336 0.0
H1956 H 0.80337 0.84759 0.96303 0.0
H1957 H 0.81263 0.78665 0.92739 0.0
H1958 H 0.81144 0.78539 0.94628 0.0
H1959 H 0.79586 0.78793 0.93602 0.0
H1960 H 0.79997 0.78572 0.9908 0.0
H1961 H 0.76223 0.79315 0.96716 0.0
H1962 H 0.82102 0.81267 0.97452 0.0
H1963 H 0.82377 0.796 0.96658 0.0
H1964 H 0.82152 0.79707 0.98535 0.0
H1965 H 0.77516 0.82161 0.94661 0.0
H1966 H 0.7615 0.80833 0.94773 0.0
H1967 H 0.77684 0.80562 0.93709 0.0
C1968 C 0.09274 0.20748 0.21153 0.0
C1969 C 0.10523 0.21531 0.20966 0.0
C1970 C 0.08139 0.21287 0.2192 0.0
C1971 C 0.08256 0.22639 0.22523 0.0
C1972 C 0.0951 0.23436 0.22331 0.0
C1973 C 0.10623 0.22875 0.21557 0.0
C1974 C 0.0682 0.20404 0.22096 0.0
C1975 C 0.09689 0.24876 0.22965 0.0
C1976 C 0.0509 0.24733 0.23741 0.0
C1977 C 0.05172 0.24555 0.25204 0.0
C1978 C 0.06047 0.24066 0.22845 0.0
C1979 C 0.07107 0.23199 0.23425 0.0
C1980 C 0.07141 0.22958 0.24894 0.0
C1981 C 0.06176 0.23635 0.25761 0.0
C1982 C 0.05968 0.24345 0.21284 0.0
C1983 C 0.08243 0.22039 0.25562 0.0
H1984 H 0.09177 0.19717 0.20687 0.0
H1985 H 0.11588 0.23482 0.21438 0.0
H1986 H 0.06652 0.20165 0.23226 0.0
H1987 H 0.05892 0.20994 0.2172 0.0
H1988 H 0.0687 0.194 0.21513 0.0
H1989 H 0.10708 0.25383 0.22676 0.0
H1990 H 0.08822 0.25564 0.22614 0.0
H1991 H 0.09634 0.24798 0.24128 0.0
H1992 H 0.04322 0.25445 0.23304 0.0
H1993 H 0.06233 0.23479 0.2689 0.0
H1994 H 0.06 0.23346 0.20694 0.0
H1995 H 0.06894 0.24986 0.20956 0.0
H1996 H 0.04999 0.24912 0.20982 0.0
H1997 H 0.08263 0.21005 0.25037 0.0
H1998 H 0.08058 0.21869 0.26703 0.0
H1999 H 0.09298 0.22534 0.25428 0.0
C2000 C 0.81843 0.09363 0.20586 0.0
C2001 C 0.82328 0.10437 0.21476 0.0
C2002 C 0.81004 0.08247 0.21104 0.0
C2003 C 0.80633 0.08208 0.22545 0.0
C2004 C 0.81123 0.09288 0.23446 0.0
C2005 C 0.81963 0.10385 0.22903 0.0
C2006 C 0.80509 0.07113 0.20111 0.0
C2007 C 0.80743 0.09298 0.24986 0.0
C2008 C 0.77363 0.06323 0.23904 0.0
C2009 C 0.77939 0.05169 0.24614 0.0
C2010 C 0.78219 0.07278 0.23158 0.0
C2011 C 0.79691 0.07074 0.23114 0.0
C2012 C 0.80266 0.05858 0.23746 0.0
C2013 C 0.79383 0.04919 0.24489 0.0
C2014 C 0.77556 0.08552 0.22495 0.0
C2015 C 0.81828 0.05595 0.23715 0.0
H2016 H 0.82132 0.09387 0.19486 0.0
H2017 H 0.82313 0.1122 0.23595 0.0
H2018 H 0.80848 0.06072 0.20502 0.0
H2019 H 0.79342 0.07087 0.20063 0.0
H2020 H 0.8092 0.07273 0.1903 0.0
H2021 H 0.81234 0.10196 0.25553 0.0
H2022 H 0.79584 0.09354 0.25102 0.0
H2023 H 0.81084 0.0831 0.25499 0.0
H2024 H 0.76243 0.06511 0.23981 0.0
H2025 H 0.79836 0.04034 0.2504 0.0
H2026 H 0.77921 0.08691 0.21396 0.0
H2027 H 0.77885 0.09504 0.23084 0.0
H2028 H 0.76388 0.08482 0.22494 0.0
H2029 H 0.82242 0.0574 0.22635 0.0
H2030 H 0.82086 0.04523 0.24088 0.0
H2031 H 0.82381 0.06366 0.24399 0.0
C2032 C 0.92421 0.80306 0.2145 0.0
C2033 C 0.92341 0.81752 0.21179 0.0
C2034 C 0.93511 0.79748 0.22275 0.0
C2035 C 0.94556 0.80654 0.2285 0.0
C2036 C 0.94488 0.82115 0.22577 0.0
C2037 C 0.93381 0.82646 0.21749 0.0
C2038 C 0.93531 0.78186 0.22548 0.0
C2039 C 0.95583 0.83115 0.23165 0.0
C2040 C 0.96385 0.79133 0.26065 0.0
C2041 C 0.97586 0.78534 0.25476 0.0
C2042 C 0.95431 0.79893 0.25236 0.0
C2043 C 0.9568 0.80064 0.23779 0.0
C2044 C 0.96938 0.79542 0.23196 0.0
C2045 C 0.97878 0.78785 0.24052 0.0
C2046 C 0.94112 0.80437 0.25908 0.0
C2047 C 0.9725 0.79708 0.2165 0.0
H2048 H 0.91613 0.79608 0.21036 0.0
H2049 H 0.93338 0.83762 0.21534 0.0
H2050 H 0.94546 0.7775 0.222 0.0
H2051 H 0.93439 0.77975 0.23693 0.0
H2052 H 0.92662 0.7762 0.21997 0.0
H2053 H 0.95405 0.84216 0.22827 0.0
H2054 H 0.95573 0.83068 0.2433 0.0
H2055 H 0.96647 0.82802 0.22823 0.0
H2056 H 0.96163 0.78958 0.27169 0.0
H2057 H 0.98799 0.78319 0.23588 0.0
H2058 H 0.93186 0.79832 0.25516 0.0
H2059 H 0.93953 0.81552 0.25617 0.0
H2060 H 0.94144 0.80347 0.27073 0.0
H2061 H 0.96511 0.79037 0.21035 0.0
H2062 H 0.98343 0.79404 0.21394 0.0
H2063 H 0.97091 0.80808 0.21306 0.0
C2064 C 0.21585 0.92474 0.22041 0.0
C2065 C 0.20129 0.92541 0.21797 0.0
C2066 C 0.22322 0.93578 0.22704 0.0
C2067 C 0.21591 0.94785 0.23139 0.0
C2068 C 0.20131 0.9488 0.22857 0.0
C2069 C 0.19419 0.9376 0.2219 0.0
C2070 C 0.23879 0.93431 0.22983 0.0
C2071 C 0.19311 0.96147 0.23296 0.0
C2072 C 0.23274 0.96715 0.26219 0.0
C2073 C 0.24023 0.97804 0.25546 0.0
C2074 C 0.22435 0.95763 0.25453 0.0
C2075 C 0.2234 0.95896 0.23972 0.0
C2076 C 0.23034 0.97038 0.23293 0.0
C2077 C 0.23865 0.97981 0.24089 0.0
C2078 C 0.21703 0.94575 0.26226 0.0
C2079 C 0.2296 0.97221 0.21719 0.0
H2080 H 0.22143 0.91535 0.21759 0.0
H2081 H 0.183 0.93837 0.21986 0.0
H2082 H 0.24463 0.94358 0.22566 0.0
H2083 H 0.24075 0.93387 0.24133 0.0
H2084 H 0.24311 0.92471 0.22501 0.0
H2085 H 0.18204 0.96105 0.22915 0.0
H2086 H 0.19306 0.96219 0.24459 0.0
H2087 H 0.19822 0.9712 0.22888 0.0
H2088 H 0.23384 0.96581 0.27347 0.0
H2089 H 0.2445 0.98813 0.23562 0.0
H2090 H 0.22164 0.93562 0.25912 0.0
H2091 H 0.2057 0.94534 0.2594 0.0
H2092 H 0.21798 0.94677 0.27385 0.0
H2093 H 0.23528 0.96356 0.21206 0.0
H2094 H 0.23434 0.98235 0.21367 0.0
H2095 H 0.21851 0.97165 0.2135 0.0
C2096 C 0.10449 0.80404 0.82774 0.0
C2097 C 0.10537 0.81843 0.83068 0.0
C2098 C 0.09373 0.7985 0.81917 0.0
C2099 C 0.08351 0.80754 0.81334 0.0
C2100 C 0.08426 0.82208 0.8163 0.0
C2101 C 0.09521 0.82736 0.8249 0.0
C2102 C 0.09342 0.78295 0.8162 0.0
C2103 C 0.07355 0.83205 0.81034 0.0
C2104 C 0.0657 0.79287 0.78066 0.0
C2105 C 0.05354 0.78648 0.78626 0.0
C2106 C 0.07515 0.80043 0.78922 0.0
C2107 C 0.0724 0.8017 0.80377 0.0
C2108 C 0.05967 0.79608 0.8093 0.0
C2109 C 0.05038 0.78854 0.80047 0.0
C2110 C 0.08852 0.8063 0.78284 0.0
C2111 C 0.05627 0.79728 0.82472 0.0
H2112 H 0.1124 0.79708 0.83196 0.0
H2113 H 0.09572 0.83847 0.82722 0.0
H2114 H 0.08315 0.77831 0.81943 0.0
H2115 H 0.09452 0.78118 0.80475 0.0
H2116 H 0.10195 0.7773 0.82178 0.0
H2117 H 0.07538 0.843 0.81392 0.0
H2118 H 0.07388 0.83189 0.79869 0.0
H2119 H 0.0628 0.82865 0.8135 0.0
H2120 H 0.06809 0.7915 0.76963 0.0
H2121 H 0.04105 0.78358 0.80488 0.0
H2122 H 0.09765 0.80033 0.78685 0.0
H2123 H 0.09016 0.8174 0.78593 0.0
H2124 H 0.08842 0.8057 0.77118 0.0
H2125 H 0.06347 0.79055 0.83091 0.0
H2126 H 0.04526 0.79398 0.82703 0.0
H2127 H 0.05792 0.80823 0.82833 0.0
C2128 C 0.22337 0.10529 0.82121 0.0
C2129 C 0.20909 0.10563 0.82489 0.0
C2130 C 0.22873 0.09439 0.81306 0.0
C2131 C 0.21964 0.08345 0.8084 0.0
C2132 C 0.20519 0.08371 0.81202 0.0
C2133 C 0.20008 0.09482 0.82017 0.0
C2134 C 0.24417 0.09464 0.80935 0.0
C2135 C 0.19517 0.07224 0.80731 0.0
C2136 C 0.23372 0.06426 0.77667 0.0
C2137 C 0.24072 0.05296 0.78298 0.0
C2138 C 0.22608 0.07379 0.78472 0.0
C2139 C 0.22536 0.072 0.79949 0.0
C2140 C 0.23155 0.06005 0.8058 0.0
C2141 C 0.23915 0.05066 0.79746 0.0
C2142 C 0.2196 0.0863 0.77751 0.0
C2143 C 0.23096 0.05767 0.82148 0.0
H2144 H 0.23037 0.1137 0.8246 0.0
H2145 H 0.18907 0.09492 0.82305 0.0
H2146 H 0.24923 0.08492 0.81321 0.0
H2147 H 0.24541 0.09497 0.79776 0.0
H2148 H 0.24987 0.10381 0.81391 0.0
H2149 H 0.18427 0.07391 0.81105 0.0
H2150 H 0.19501 0.07168 0.79566 0.0
H2151 H 0.19881 0.06195 0.81129 0.0
H2152 H 0.23474 0.06599 0.76544 0.0
H2153 H 0.24458 0.04201 0.80243 0.0
H2154 H 0.22557 0.09595 0.7804 0.0
H2155 H 0.20859 0.08766 0.78102 0.0
H2156 H 0.21965 0.08532 0.76588 0.0
H2157 H 0.23776 0.06556 0.82682 0.0
H2158 H 0.23459 0.04705 0.82451 0.0
H2159 H 0.22008 0.05903 0.82538 0.0
C2160 C 0.93403 0.19729 0.8158 0.0
C2161 C 0.9222 0.2042 0.82104 0.0
C2162 C 0.94499 0.20473 0.80905 0.0
C2163 C 0.94419 0.21947 0.8075 0.0
C2164 C 0.93254 0.22657 0.81319 0.0
C2165 C 0.9217 0.21887 0.81985 0.0
C2166 C 0.95722 0.19674 0.80319 0.0
C2167 C 0.93125 0.24228 0.81178 0.0
C2168 C 0.97636 0.24187 0.79754 0.0
C2169 C 0.9738 0.24447 0.78324 0.0
C2170 C 0.96704 0.23343 0.80554 0.0
C2171 C 0.95495 0.22739 0.79904 0.0
C2172 C 0.95272 0.22948 0.78445 0.0
C2173 C 0.96213 0.23798 0.77676 0.0
C2174 C 0.96981 0.23149 0.82105 0.0
C2175 C 0.9401 0.22313 0.77702 0.0
H2176 H 0.93467 0.18599 0.81687 0.0
H2177 H 0.91259 0.22432 0.8237 0.0
H2178 H 0.95721 0.19763 0.79156 0.0
H2179 H 0.96732 0.20133 0.80701 0.0
H2180 H 0.9568 0.18545 0.80612 0.0
H2181 H 0.92209 0.24634 0.81763 0.0
H2182 H 0.94094 0.24758 0.81573 0.0
H2183 H 0.93005 0.24518 0.80053 0.0
H2184 H 0.9853 0.24693 0.80262 0.0
H2185 H 0.96019 0.23985 0.76567 0.0
H2186 H 0.96934 0.22019 0.8239 0.0
H2187 H 0.96152 0.23678 0.82714 0.0
H2188 H 0.98022 0.23586 0.82428 0.0
H2189 H 0.9396 0.21164 0.77891 0.0
H2190 H 0.94032 0.22508 0.7655 0.0
H2191 H 0.93031 0.22761 0.7813 0.0
C2192 C 0.83455 0.93744 0.81372 0.0
C2193 C 0.82752 0.92541 0.81887 0.0
C2194 C 0.82716 0.94846 0.80728 0.0
C2195 C 0.81233 0.94751 0.80594 0.0
C2196 C 0.80512 0.93561 0.81149 0.0
C2197 C 0.81278 0.92473 0.81786 0.0
C2198 C 0.83526 0.96095 0.80157 0.0
C2199 C 0.78933 0.93413 0.81029 0.0
C2200 C 0.78986 0.97939 0.79724 0.0
C2201 C 0.78687 0.97725 0.78296 0.0
C2202 C 0.79853 0.97008 0.8048 0.0
C2203 C 0.80439 0.95841 0.79788 0.0
C2204 C 0.80199 0.95668 0.78328 0.0
C2205 C 0.79327 0.96608 0.77603 0.0
C2206 C 0.80083 0.97235 0.82032 0.0
C2207 C 0.80813 0.94452 0.77541 0.0
H2208 H 0.84591 0.93821 0.81465 0.0
H2209 H 0.80722 0.91546 0.82163 0.0
H2210 H 0.83418 0.96135 0.78995 0.0
H2211 H 0.83089 0.97082 0.80572 0.0
H2212 H 0.84664 0.96058 0.80428 0.0
H2213 H 0.78521 0.9247 0.81592 0.0
H2214 H 0.7842 0.94354 0.81461 0.0
H2215 H 0.78624 0.93336 0.79906 0.0
H2216 H 0.78485 0.98793 0.80267 0.0
H2217 H 0.79109 0.96444 0.76496 0.0
H2218 H 0.8122 0.97187 0.82295 0.0
H2219 H 0.79543 0.96386 0.82634 0.0
H2220 H 0.79673 0.98259 0.82385 0.0
H2221 H 0.81967 0.94412 0.77716 0.0
H2222 H 0.80606 0.94518 0.76392 0.0
H2223 H 0.80354 0.93452 0.77944 0.0
C2224 C 0.20894 0.10765 0.23142 0.0
C2225 C 0.20492 0.1082 0.21721 0.0
C2226 C 0.2172 0.0967 0.23673 0.0
C2227 C 0.22162 0.08592 0.22764 0.0
C2228 C 0.21759 0.08635 0.21328 0.0
C2229 C 0.20933 0.09749 0.20823 0.0
C2230 C 0.22135 0.09677 0.25208 0.0
C2231 C 0.22202 0.07505 0.20326 0.0
C2232 C 0.25413 0.06692 0.24074 0.0
C2233 C 0.24822 0.0553 0.24782 0.0
C2234 C 0.24566 0.07655 0.23348 0.0
C2235 C 0.23086 0.07454 0.23322 0.0
C2236 C 0.22492 0.06232 0.23953 0.0
C2237 C 0.23367 0.05284 0.24675 0.0
C2238 C 0.2525 0.08933 0.22685 0.0
C2239 C 0.20923 0.0597 0.23942 0.0
H2240 H 0.2058 0.11597 0.23841 0.0
H2241 H 0.20618 0.09772 0.19727 0.0
H2242 H 0.21777 0.08689 0.25723 0.0
H2243 H 0.23298 0.09734 0.25309 0.0
H2244 H 0.21682 0.10574 0.25782 0.0
H2245 H 0.21778 0.07672 0.19248 0.0
H2246 H 0.23367 0.07477 0.20271 0.0
H2247 H 0.21837 0.06464 0.20715 0.0
H2248 H 0.26539 0.0688 0.24138 0.0
H2249 H 0.22901 0.04395 0.25225 0.0
H2250 H 0.24961 0.09882 0.23282 0.0
H2251 H 0.24867 0.09078 0.21591 0.0
H2252 H 0.26416 0.08864 0.22671 0.0
H2253 H 0.20408 0.06741 0.24633 0.0
H2254 H 0.20641 0.04898 0.24318 0.0
H2255 H 0.20488 0.06116 0.22867 0.0
C2256 C 0.2097 0.92379 0.81046 0.0
C2257 C 0.20563 0.9237 0.82462 0.0
C2258 C 0.21805 0.93471 0.80487 0.0
C2259 C 0.2225 0.94591 0.81362 0.0
C2260 C 0.21844 0.94593 0.82793 0.0
C2261 C 0.2101 0.9348 0.83327 0.0
C2262 C 0.22222 0.93418 0.78958 0.0
C2263 C 0.22292 0.95769 0.83758 0.0
C2264 C 0.25491 0.96529 0.8 0.0
C2265 C 0.24894 0.97642 0.79242 0.0
C2266 C 0.24649 0.95573 0.80761 0.0
C2267 C 0.2317 0.95733 0.80772 0.0
C2268 C 0.2257 0.96909 0.80089 0.0
C2269 C 0.23439 0.9785 0.79332 0.0
C2270 C 0.25337 0.94342 0.8148 0.0
C2271 C 0.21 0.97126 0.80082 0.0
H2272 H 0.2065 0.91516 0.80374 0.0
H2273 H 0.2069 0.93489 0.84419 0.0
H2274 H 0.21862 0.94375 0.78402 0.0
H2275 H 0.23385 0.93395 0.78871 0.0
H2276 H 0.21773 0.92486 0.78414 0.0
H2277 H 0.21874 0.95626 0.84839 0.0
H2278 H 0.23457 0.95836 0.83816 0.0
H2279 H 0.21921 0.96785 0.83333 0.0
H2280 H 0.26617 0.96373 0.79952 0.0
H2281 H 0.22969 0.98703 0.78744 0.0
H2282 H 0.25051 0.93363 0.80916 0.0
H2283 H 0.24953 0.94227 0.82574 0.0
H2284 H 0.26502 0.94449 0.81503 0.0
H2285 H 0.20484 0.96314 0.79418 0.0
H2286 H 0.20717 0.98175 0.79663 0.0
H2287 H 0.2057 0.97008 0.81159 0.0
C2288 C 0.10397 0.21026 0.80655 0.0
C2289 C 0.10474 0.20724 0.82099 0.0
C2290 C 0.09285 0.21805 0.80086 0.0
C2291 C 0.08213 0.22299 0.80978 0.0
C2292 C 0.08266 0.21976 0.82433 0.0
C2293 C 0.09394 0.21191 0.82976 0.0
C2294 C 0.0927 0.22117 0.78527 0.0
C2295 C 0.07149 0.22484 0.83421 0.0
C2296 C 0.06363 0.25494 0.79495 0.0
C2297 C 0.05177 0.24888 0.78842 0.0
C2298 C 0.07316 0.24674 0.80265 0.0
C2299 C 0.07082 0.23208 0.80383 0.0
C2300 C 0.05837 0.22605 0.79804 0.0
C2301 C 0.04897 0.23454 0.79042 0.0
C2302 C 0.08618 0.25367 0.80875 0.0
C2303 C 0.05544 0.21048 0.79909 0.0
H2304 H 0.11208 0.20647 0.79963 0.0
H2305 H 0.09447 0.20971 0.84094 0.0
H2306 H 0.08265 0.21742 0.78054 0.0
H2307 H 0.09339 0.23267 0.78349 0.0
H2308 H 0.10154 0.21618 0.77969 0.0
H2309 H 0.07293 0.22075 0.84507 0.0
H2310 H 0.07174 0.23647 0.83452 0.0
H2311 H 0.0609 0.2216 0.83036 0.0
H2312 H 0.06577 0.26606 0.79354 0.0
H2313 H 0.03987 0.22979 0.78532 0.0
H2314 H 0.09556 0.25029 0.80284 0.0
H2315 H 0.08768 0.25042 0.81987 0.0
H2316 H 0.08569 0.2653 0.80825 0.0
H2317 H 0.06294 0.20482 0.79236 0.0
H2318 H 0.04456 0.2077 0.79567 0.0
H2319 H 0.057 0.20673 0.81004 0.0
C2320 C 0.7993 0.10719 0.82842 0.0
C2321 C 0.81351 0.10731 0.83255 0.0
C2322 C 0.79354 0.09618 0.82039 0.0
C2323 C 0.80215 0.0849 0.81636 0.0
C2324 C 0.81645 0.08482 0.82065 0.0
C2325 C 0.82197 0.09603 0.82864 0.0
C2326 C 0.77828 0.09679 0.81595 0.0
C2327 C 0.82597 0.07298 0.81664 0.0
C2328 C 0.78217 0.05237 0.80337 0.0
C2329 C 0.78197 0.05475 0.78881 0.0
C2330 C 0.78926 0.06174 0.81249 0.0
C2331 C 0.79631 0.07374 0.80689 0.0
C2332 C 0.79676 0.07571 0.79214 0.0
C2333 C 0.78963 0.06622 0.78332 0.0
C2334 C 0.7886 0.05919 0.82813 0.0
C2335 C 0.80418 0.08827 0.78567 0.0
H2336 H 0.79271 0.11593 0.83119 0.0
H2337 H 0.8329 0.09593 0.83192 0.0
H2338 H 0.77754 0.09742 0.80432 0.0
H2339 H 0.77262 0.08709 0.81929 0.0
H2340 H 0.77284 0.10596 0.82044 0.0
H2341 H 0.83661 0.07406 0.82144 0.0
H2342 H 0.82126 0.06278 0.81997 0.0
H2343 H 0.8271 0.07268 0.80504 0.0
H2344 H 0.77623 0.04357 0.80768 0.0
H2345 H 0.78966 0.068 0.77205 0.0
H2346 H 0.78192 0.06724 0.83304 0.0
H2347 H 0.79924 0.06018 0.8329 0.0
H2348 H 0.78415 0.04866 0.83073 0.0
H2349 H 0.79866 0.09799 0.78863 0.0
H2350 H 0.80451 0.0877 0.77401 0.0
H2351 H 0.81511 0.08918 0.78973 0.0
C2352 C 0.92228 0.80187 0.82563 0.0
C2353 C 0.92292 0.8159 0.83003 0.0
C2354 C 0.93328 0.79594 0.81795 0.0
C2355 C 0.94531 0.8042 0.81453 0.0
C2356 C 0.94613 0.81832 0.81906 0.0
C2357 C 0.93492 0.82401 0.82671 0.0
C2358 C 0.93187 0.78089 0.81323 0.0
C2359 C 0.95877 0.82746 0.8157 0.0
C2360 C 0.97726 0.78351 0.80266 0.0
C2361 C 0.97555 0.78377 0.78801 0.0
C2362 C 0.96787 0.79063 0.81147 0.0
C2363 C 0.95654 0.7982 0.80547 0.0
C2364 C 0.95528 0.79909 0.79066 0.0
C2365 C 0.96478 0.79191 0.78215 0.0
C2366 C 0.96966 0.78948 0.82719 0.0
C2367 C 0.94346 0.80706 0.78376 0.0
H2368 H 0.913 0.79556 0.82795 0.0
H2369 H 0.93561 0.8348 0.83019 0.0
H2370 H 0.93172 0.78047 0.80158 0.0
H2371 H 0.94106 0.77481 0.8169 0.0
H2372 H 0.92213 0.77571 0.81723 0.0
H2373 H 0.95813 0.83799 0.82056 0.0
H2374 H 0.96853 0.82235 0.81943 0.0
H2375 H 0.95969 0.8288 0.80415 0.0
H2376 H 0.98551 0.7772 0.80725 0.0
H2377 H 0.96352 0.79232 0.77082 0.0
H2378 H 0.96092 0.78303 0.83163 0.0
H2379 H 0.96916 0.79999 0.83208 0.0
H2380 H 0.97978 0.78458 0.83018 0.0
H2381 H 0.93325 0.80184 0.78623 0.0
H2382 H 0.94457 0.80765 0.77215 0.0
H2383 H 0.94306 0.81788 0.78794 0.0
C2384 C 0.83372 0.93581 0.22388 0.0
C2385 C 0.82679 0.92376 0.21871 0.0
C2386 C 0.82624 0.94664 0.23033 0.0
C2387 C 0.81143 0.94548 0.23163 0.0
C2388 C 0.80432 0.93359 0.22602 0.0
C2389 C 0.81206 0.9229 0.21966 0.0
C2390 C 0.83424 0.95914 0.23611 0.0
C2391 C 0.78854 0.93192 0.22716 0.0
C2392 C 0.79243 0.96346 0.26151 0.0
C2393 C 0.78595 0.97471 0.25459 0.0
C2394 C 0.80114 0.95421 0.25426 0.0
C2395 C 0.80343 0.95618 0.23968 0.0
C2396 C 0.79745 0.96791 0.23276 0.0
C2397 C 0.78881 0.97706 0.24031 0.0
C2398 C 0.80743 0.94199 0.26213 0.0
C2399 C 0.79962 0.9704 0.21724 0.0
H2400 H 0.84505 0.93673 0.223 0.0
H2401 H 0.80659 0.91361 0.21586 0.0
H2402 H 0.82973 0.96901 0.23197 0.0
H2403 H 0.83321 0.95934 0.24772 0.0
H2404 H 0.8456 0.95893 0.23345 0.0
H2405 H 0.7845 0.92255 0.22146 0.0
H2406 H 0.78554 0.93093 0.23838 0.0
H2407 H 0.78329 0.94135 0.22287 0.0
H2408 H 0.79035 0.96167 0.27257 0.0
H2409 H 0.78373 0.98567 0.23489 0.0
H2410 H 0.81897 0.94173 0.26044 0.0
H2411 H 0.80292 0.93201 0.25803 0.0
H2412 H 0.80541 0.94245 0.2736 0.0
H2413 H 0.81098 0.97011 0.21466 0.0
H2414 H 0.79536 0.98063 0.2137 0.0
H2415 H 0.7943 0.96192 0.2112 0.0
C2416 C 0.10716 0.80089 0.21338 0.0
C2417 C 0.10671 0.81474 0.20833 0.0
C2418 C 0.09614 0.79511 0.22144 0.0
C2419 C 0.08427 0.80333 0.22456 0.0
C2420 C 0.08363 0.81727 0.21935 0.0
C2421 C 0.09486 0.82282 0.21135 0.0
C2422 C 0.09736 0.78026 0.22689 0.0
C2423 C 0.07115 0.82637 0.22237 0.0
C2424 C 0.05211 0.78269 0.23767 0.0
C2425 C 0.05392 0.78351 0.25228 0.0
C2426 C 0.06154 0.78961 0.22846 0.0
C2427 C 0.07302 0.79753 0.234 0.0
C2428 C 0.0744 0.79898 0.24874 0.0
C2429 C 0.06485 0.792 0.25766 0.0
C2430 C 0.05961 0.78787 0.21281 0.0
C2431 C 0.0864 0.80735 0.25515 0.0
H2432 H 0.11633 0.79462 0.21129 0.0
H2433 H 0.09432 0.83347 0.20735 0.0
H2434 H 0.09759 0.78027 0.23855 0.0
H2435 H 0.08804 0.77393 0.22359 0.0
H2436 H 0.10699 0.77507 0.22307 0.0
H2437 H 0.0719 0.83672 0.21698 0.0
H2438 H 0.06128 0.82099 0.21899 0.0
H2439 H 0.07036 0.82813 0.23386 0.0
H2440 H 0.04373 0.77611 0.23344 0.0
H2441 H 0.06619 0.79284 0.26895 0.0
H2442 H 0.06821 0.78137 0.20863 0.0
H2443 H 0.06024 0.7982 0.20742 0.0
H2444 H 0.04939 0.78274 0.21014 0.0
H2445 H 0.09651 0.80218 0.25285 0.0
H2446 H 0.08539 0.80833 0.26673 0.0
H2447 H 0.08693 0.81802 0.25046 0.0
C2448 C 0.92282 0.22635 0.21044 0.0
C2449 C 0.92177 0.21187 0.20801 0.0
C2450 C 0.93362 0.23206 0.21887 0.0
C2451 C 0.9437 0.2231 0.22507 0.0
C2452 C 0.94281 0.20848 0.22257 0.0
C2453 C 0.93184 0.20303 0.21411 0.0
C2454 C 0.93407 0.24769 0.22134 0.0
C2455 C 0.95338 0.19859 0.22892 0.0
C2456 C 0.9769 0.24196 0.23807 0.0
C2457 C 0.97356 0.24435 0.25218 0.0
C2458 C 0.96762 0.23441 0.22923 0.0
C2459 C 0.95471 0.22911 0.23467 0.0
C2460 C 0.95174 0.23075 0.24913 0.0
C2461 C 0.9612 0.2383 0.25769 0.0
C2462 C 0.97125 0.23281 0.21391 0.0
C2463 C 0.93818 0.22522 0.25541 0.0
H2464 H 0.91499 0.23325 0.20598 0.0
H2465 H 0.93121 0.19185 0.21218 0.0
H2466 H 0.93277 0.24984 0.2327 0.0
H2467 H 0.94445 0.25211 0.21817 0.0
H2468 H 0.92572 0.25327 0.21542 0.0
H2469 H 0.95157 0.18758 0.22554 0.0
H2470 H 0.9642 0.20189 0.22591 0.0
H2471 H 0.95282 0.19899 0.24056 0.0
H2472 H 0.98641 0.24665 0.23373 0.0
H2473 H 0.95866 0.23993 0.26865 0.0
H2474 H 0.96421 0.23946 0.20744 0.0
H2475 H 0.96955 0.2218 0.21054 0.0
H2476 H 0.98232 0.23595 0.2117 0.0
H2477 H 0.9292 0.23114 0.251 0.0
H2478 H 0.93805 0.22621 0.26704 0.0
H2479 H 0.93651 0.21404 0.25266 0.0
C2480 C 0.20193 0.71274 0.59971 0.0
C2481 C 0.21087 0.7079 0.61044 0.0
C2482 C 0.20723 0.72071 0.58832 0.0
C2483 C 0.2218 0.72401 0.58766 0.0
C2484 C 0.23085 0.71917 0.59848 0.0
C2485 C 0.22529 0.7112 0.60968 0.0
C2486 C 0.19724 0.72562 0.57699 0.0
C2487 C 0.24643 0.72253 0.59833 0.0
C2488 C 0.24116 0.73505 0.55424 0.0
C2489 C 0.24323 0.74946 0.55649 0.0
C2490 C 0.23347 0.72672 0.56388 0.0
C2491 C 0.22769 0.73294 0.57603 0.0
C2492 C 0.22892 0.74765 0.57777 0.0
C2493 C 0.23665 0.7557 0.568 0.0
C2494 C 0.23233 0.71111 0.56153 0.0
C2495 C 0.22289 0.75479 0.59047 0.0
H2496 H 0.1908 0.71014 0.60011 0.0
H2497 H 0.23227 0.70773 0.61801 0.0
H2498 H 0.19738 0.73724 0.57645 0.0
H2499 H 0.2007 0.72177 0.5666 0.0
H2500 H 0.18626 0.72193 0.57885 0.0
H2501 H 0.25208 0.71775 0.60737 0.0
H2502 H 0.25116 0.71871 0.58846 0.0
H2503 H 0.24814 0.73406 0.59863 0.0
H2504 H 0.24628 0.73014 0.54542 0.0
H2505 H 0.23808 0.76686 0.56971 0.0
H2506 H 0.22136 0.70734 0.56319 0.0
H2507 H 0.23909 0.7056 0.56927 0.0
H2508 H 0.23568 0.70815 0.55079 0.0
H2509 H 0.21178 0.75147 0.59207 0.0
H2510 H 0.22338 0.76641 0.5895 0.0
H2511 H 0.22888 0.75166 0.6 0.0
C2512 C 0.80295 0.70889 0.61013 0.0
C2513 C 0.81719 0.70519 0.61034 0.0
C2514 C 0.79747 0.71748 0.59944 0.0
C2515 C 0.80641 0.72253 0.58861 0.0
C2516 C 0.82077 0.71872 0.58864 0.0
C2517 C 0.826 0.71014 0.59952 0.0
C2518 C 0.78213 0.72137 0.5999 0.0
C2519 C 0.83062 0.72382 0.57725 0.0
C2520 C 0.78719 0.73624 0.55615 0.0
C2521 C 0.7865 0.75062 0.55908 0.0
C2522 C 0.79424 0.72702 0.56532 0.0
C2523 C 0.80076 0.7323 0.57768 0.0
C2524 C 0.80079 0.74692 0.58021 0.0
C2525 C 0.7937 0.75588 0.57089 0.0
C2526 C 0.79405 0.71153 0.56216 0.0
C2527 C 0.80765 0.75304 0.59319 0.0
H2528 H 0.79611 0.7053 0.61853 0.0
H2529 H 0.83697 0.70721 0.5995 0.0
H2530 H 0.78119 0.7329 0.60094 0.0
H2531 H 0.77682 0.71834 0.58994 0.0
H2532 H 0.77649 0.71624 0.60878 0.0
H2533 H 0.84135 0.71948 0.57847 0.0
H2534 H 0.82641 0.72082 0.56678 0.0
H2535 H 0.83142 0.73543 0.57744 0.0
H2536 H 0.7816 0.7321 0.54709 0.0
H2537 H 0.7934 0.76701 0.57309 0.0
H2538 H 0.78722 0.70595 0.56986 0.0
H2539 H 0.80477 0.70718 0.56325 0.0
H2540 H 0.79003 0.70929 0.55141 0.0
H2541 H 0.80184 0.74942 0.60266 0.0
H2542 H 0.80779 0.7647 0.59302 0.0
H2543 H 0.81862 0.74935 0.59425 0.0
C2544 C 0.80156 0.32165 0.60919 0.0
C2545 C 0.81594 0.32507 0.61021 0.0
C2546 C 0.79623 0.31346 0.59809 0.0
C2547 C 0.80548 0.30849 0.58767 0.0
C2548 C 0.82002 0.31192 0.58858 0.0
C2549 C 0.82508 0.32013 0.59984 0.0
C2550 C 0.78069 0.30996 0.59765 0.0
C2551 C 0.83021 0.30687 0.57767 0.0
C2552 C 0.79134 0.27623 0.56873 0.0
C2553 C 0.78496 0.28214 0.55679 0.0
C2554 C 0.79876 0.28458 0.57845 0.0
C2555 C 0.79987 0.29925 0.57621 0.0
C2556 C 0.79427 0.30514 0.56368 0.0
C2557 C 0.78689 0.29651 0.5541 0.0
C2558 C 0.80463 0.27779 0.59156 0.0
C2559 C 0.79527 0.32071 0.56083 0.0
H2560 H 0.79444 0.32521 0.61724 0.0
H2561 H 0.83618 0.32282 0.60045 0.0
H2562 H 0.77608 0.3135 0.58751 0.0
H2563 H 0.77906 0.29843 0.59834 0.0
H2564 H 0.77485 0.31491 0.60635 0.0
H2565 H 0.84112 0.31073 0.57966 0.0
H2566 H 0.83022 0.29524 0.57756 0.0
H2567 H 0.82686 0.31043 0.56707 0.0
H2568 H 0.79 0.26509 0.57078 0.0
H2569 H 0.78192 0.30114 0.54493 0.0
H2570 H 0.79845 0.2811 0.60081 0.0
H2571 H 0.81568 0.28123 0.59335 0.0
H2572 H 0.80424 0.26616 0.59102 0.0
H2573 H 0.78834 0.3263 0.56821 0.0
H2574 H 0.79204 0.3234 0.54991 0.0
H2575 H 0.80617 0.32463 0.56263 0.0
C2576 C 0.21845 0.33397 0.59686 0.0
C2577 C 0.21372 0.32705 0.60908 0.0
C2578 C 0.22514 0.32665 0.58603 0.0
C2579 C 0.22714 0.31201 0.58738 0.0
C2580 C 0.22197 0.30488 0.59945 0.0
C2581 C 0.21535 0.31247 0.61013 0.0
C2582 C 0.23043 0.33465 0.57333 0.0
C2583 C 0.22387 0.28929 0.60134 0.0
C2584 C 0.23673 0.2892 0.55607 0.0
C2585 C 0.25116 0.28724 0.55837 0.0
C2586 C 0.22881 0.29762 0.56514 0.0
C2587 C 0.23551 0.30428 0.57672 0.0
C2588 C 0.25022 0.30289 0.57862 0.0
C2589 C 0.25783 0.2944 0.56945 0.0
C2590 C 0.21317 0.29883 0.56273 0.0
C2591 C 0.25785 0.30992 0.59069 0.0
H2592 H 0.21704 0.34518 0.5958 0.0
H2593 H 0.2119 0.30701 0.61956 0.0
H2594 H 0.24209 0.33434 0.57305 0.0
H2595 H 0.22647 0.32967 0.56354 0.0
H2596 H 0.22717 0.34579 0.57338 0.0
H2597 H 0.21844 0.28515 0.61083 0.0
H2598 H 0.21978 0.2836 0.592 0.0
H2599 H 0.23525 0.28696 0.60228 0.0
H2600 H 0.2315 0.28362 0.5476 0.0
H2601 H 0.26901 0.29303 0.57118 0.0
H2602 H 0.21004 0.30999 0.56289 0.0
H2603 H 0.20744 0.29338 0.57135 0.0
H2604 H 0.20978 0.29416 0.55257 0.0
H2605 H 0.25561 0.3213 0.59076 0.0
H2606 H 0.26942 0.30855 0.59017 0.0
H2607 H 0.25403 0.30545 0.60079 0.0
C2608 C 0.22566 0.32034 0.43013 0.0
C2609 C 0.21116 0.32282 0.4293 0.0
C2610 C 0.23137 0.31204 0.44093 0.0
C2611 C 0.22238 0.306 0.45122 0.0
C2612 C 0.20773 0.3085 0.45051 0.0
C2613 C 0.20229 0.31684 0.43954 0.0
C2614 C 0.24703 0.30957 0.44119 0.0
C2615 C 0.19781 0.30231 0.4613 0.0
C2616 C 0.23781 0.27401 0.4692 0.0
C2617 C 0.24402 0.27988 0.48126 0.0
C2618 C 0.23006 0.28224 0.45972 0.0
C2619 C 0.22841 0.29672 0.46236 0.0
C2620 C 0.23384 0.3025 0.47501 0.0
C2621 C 0.24157 0.294 0.48432 0.0
C2622 C 0.22439 0.27559 0.44645 0.0
C2623 C 0.23224 0.31785 0.47828 0.0
H2624 H 0.23258 0.32471 0.42216 0.0
H2625 H 0.1911 0.31881 0.43907 0.0
H2626 H 0.25156 0.31299 0.4514 0.0
H2627 H 0.24909 0.2982 0.44016 0.0
H2628 H 0.25261 0.31526 0.4326 0.0
H2629 H 0.18676 0.30552 0.45949 0.0
H2630 H 0.19825 0.29069 0.46105 0.0
H2631 H 0.2011 0.30562 0.472 0.0
H2632 H 0.23949 0.26304 0.46688 0.0
H2633 H 0.24639 0.29863 0.49358 0.0
H2634 H 0.23034 0.27971 0.43727 0.0
H2635 H 0.21319 0.27832 0.44483 0.0
H2636 H 0.22527 0.26398 0.44665 0.0
H2637 H 0.23889 0.3242 0.47102 0.0
H2638 H 0.23543 0.32033 0.48925 0.0
H2639 H 0.22119 0.3211 0.47665 0.0
C2640 C 0.21255 0.7238 0.4256 0.0
C2641 C 0.20863 0.70955 0.42556 0.0
C2642 C 0.22031 0.72965 0.43678 0.0
C2643 C 0.22432 0.72107 0.4483 0.0
C2644 C 0.22023 0.70672 0.44846 0.0
C2645 C 0.21242 0.70114 0.43711 0.0
C2646 C 0.22437 0.74501 0.43618 0.0
C2647 C 0.22432 0.69722 0.4605 0.0
C2648 C 0.25635 0.73513 0.46804 0.0
C2649 C 0.25018 0.74245 0.47912 0.0
C2650 C 0.24811 0.72747 0.4584 0.0
C2651 C 0.23328 0.72713 0.4598 0.0
C2652 C 0.22705 0.73377 0.47149 0.0
C2653 C 0.23559 0.74133 0.48103 0.0
C2654 C 0.25523 0.72046 0.44621 0.0
C2655 C 0.2113 0.73363 0.47343 0.0
H2656 H 0.20944 0.73046 0.41689 0.0
H2657 H 0.20954 0.69011 0.43716 0.0
H2658 H 0.22047 0.75044 0.44564 0.0
H2659 H 0.236 0.74619 0.43614 0.0
H2660 H 0.2201 0.75034 0.42669 0.0
H2661 H 0.21974 0.68649 0.45941 0.0
H2662 H 0.23594 0.69644 0.46106 0.0
H2663 H 0.22079 0.70168 0.47061 0.0
H2664 H 0.26765 0.73584 0.4666 0.0
H2665 H 0.23075 0.74704 0.48951 0.0
H2666 H 0.25258 0.72606 0.43631 0.0
H2667 H 0.25141 0.70948 0.44514 0.0
H2668 H 0.26687 0.72045 0.44742 0.0
H2669 H 0.20637 0.7402 0.46515 0.0
H2670 H 0.20824 0.73775 0.48386 0.0
H2671 H 0.20697 0.72283 0.47231 0.0
C2672 C 0.83062 0.71445 0.44377 0.0
C2673 C 0.82439 0.71194 0.43058 0.0
C2674 C 0.82315 0.72098 0.4546 0.0
C2675 C 0.80908 0.72513 0.45224 0.0
C2676 C 0.80255 0.7221 0.43916 0.0
C2677 C 0.81026 0.71556 0.42851 0.0
C2678 C 0.83051 0.72392 0.46839 0.0
C2679 C 0.78758 0.72635 0.43616 0.0
C2680 C 0.78527 0.7362 0.48242 0.0
C2681 C 0.78599 0.75086 0.48123 0.0
C2682 C 0.79299 0.72762 0.4733 0.0
C2683 C 0.80166 0.73387 0.46282 0.0
C2684 C 0.80283 0.74867 0.46202 0.0
C2685 C 0.79502 0.75694 0.4712 0.0
C2686 C 0.79148 0.71189 0.47454 0.0
C2687 C 0.81202 0.75583 0.45114 0.0
H2688 H 0.84145 0.71148 0.44558 0.0
H2689 H 0.80536 0.7138 0.41835 0.0
H2690 H 0.83206 0.73541 0.46962 0.0
H2691 H 0.82395 0.7202 0.47731 0.0
H2692 H 0.84094 0.71885 0.46908 0.0
H2693 H 0.78362 0.72217 0.42599 0.0
H2694 H 0.78052 0.72259 0.44467 0.0
H2695 H 0.78698 0.73796 0.43583 0.0
H2696 H 0.77827 0.73144 0.4901 0.0
H2697 H 0.79575 0.76827 0.47035 0.0
H2698 H 0.80199 0.707 0.47516 0.0
H2699 H 0.78614 0.70771 0.46502 0.0
H2700 H 0.78529 0.70865 0.48391 0.0
H2701 H 0.82295 0.75195 0.45194 0.0
H2702 H 0.81226 0.76741 0.4523 0.0
H2703 H 0.80808 0.75327 0.44045 0.0
C2704 C 0.80069 0.32103 0.42415 0.0
C2705 C 0.81443 0.32662 0.42482 0.0
C2706 C 0.79498 0.31314 0.43533 0.0
C2707 C 0.80315 0.31072 0.44759 0.0
C2708 C 0.81698 0.31643 0.44841 0.0
C2709 C 0.82247 0.32426 0.43702 0.0
C2710 C 0.78025 0.30715 0.4339 0.0
C2711 C 0.82603 0.31416 0.46128 0.0
C2712 C 0.78233 0.29814 0.47967 0.0
C2713 C 0.7835 0.28354 0.47858 0.0
C2714 C 0.78918 0.3072 0.47004 0.0
C2715 C 0.79741 0.30154 0.4591 0.0
C2716 C 0.79922 0.28684 0.45847 0.0
C2717 C 0.79229 0.27807 0.4682 0.0
C2718 C 0.78704 0.3228 0.47115 0.0
C2719 C 0.80792 0.28029 0.44708 0.0
H2720 H 0.79445 0.32259 0.41472 0.0
H2721 H 0.83302 0.32867 0.43773 0.0
H2722 H 0.78056 0.29552 0.43425 0.0
H2723 H 0.77368 0.31056 0.44283 0.0
H2724 H 0.77507 0.31041 0.42393 0.0
H2725 H 0.83631 0.3198 0.46057 0.0
H2726 H 0.82047 0.31776 0.4708 0.0
H2727 H 0.82801 0.3028 0.46271 0.0
H2728 H 0.77551 0.30243 0.48761 0.0
H2729 H 0.79338 0.2668 0.4674 0.0
H2730 H 0.78054 0.32644 0.46216 0.0
H2731 H 0.79729 0.3285 0.4706 0.0
H2732 H 0.7817 0.32567 0.48107 0.0
H2733 H 0.80279 0.282 0.43672 0.0
H2734 H 0.80921 0.26883 0.44871 0.0
H2735 H 0.8185 0.28533 0.44663 0.0
C2736 C 0.10533 0.72819 0.71478 0.0
C2737 C 0.10594 0.7138 0.71181 0.0
C2738 C 0.09444 0.73368 0.72292 0.0
C2739 C 0.08379 0.72462 0.72829 0.0
C2740 C 0.08428 0.71009 0.72532 0.0
C2741 C 0.09536 0.70485 0.71716 0.0
C2742 C 0.09444 0.74922 0.72592 0.0
C2743 C 0.07313 0.70008 0.73079 0.0
C2744 C 0.06525 0.73915 0.76027 0.0
C2745 C 0.05342 0.74552 0.75421 0.0
C2746 C 0.0748 0.73167 0.75208 0.0
C2747 C 0.07251 0.73043 0.73742 0.0
C2748 C 0.06009 0.73603 0.73139 0.0
C2749 C 0.05069 0.7435 0.73986 0.0
C2750 C 0.08781 0.72583 0.75901 0.0
C2751 C 0.05716 0.73487 0.71583 0.0
H2752 H 0.11355 0.73518 0.71091 0.0
H2753 H 0.09565 0.69375 0.71482 0.0
H2754 H 0.08442 0.75385 0.72225 0.0
H2755 H 0.09521 0.75098 0.73742 0.0
H2756 H 0.10331 0.7549 0.72073 0.0
H2757 H 0.07482 0.68913 0.7273 0.0
H2758 H 0.07305 0.70024 0.74245 0.0
H2759 H 0.06259 0.70344 0.72715 0.0
H2760 H 0.06733 0.74051 0.7714 0.0
H2761 H 0.04163 0.74844 0.73508 0.0
H2762 H 0.09721 0.73184 0.7554 0.0
H2763 H 0.08927 0.71474 0.75596 0.0
H2764 H 0.08735 0.7264 0.77066 0.0
H2765 H 0.06474 0.74163 0.70997 0.0
H2766 H 0.04632 0.73816 0.71307 0.0
H2767 H 0.05863 0.72394 0.71225 0.0
C2768 C 0.83475 0.59443 0.72336 0.0
C2769 C 0.82791 0.60617 0.71768 0.0
C2770 C 0.82716 0.58356 0.73008 0.0
C2771 C 0.81234 0.58436 0.73116 0.0
C2772 C 0.80533 0.59593 0.72504 0.0
C2773 C 0.81317 0.60667 0.7184 0.0
C2774 C 0.83506 0.57141 0.73641 0.0
C2775 C 0.78954 0.59721 0.72593 0.0
C2776 C 0.78953 0.55249 0.74089 0.0
C2777 C 0.7866 0.55515 0.75505 0.0
C2778 C 0.79826 0.56166 0.73304 0.0
C2779 C 0.80424 0.5737 0.73954 0.0
C2780 C 0.80184 0.57602 0.75402 0.0
C2781 C 0.79307 0.56674 0.76157 0.0
C2782 C 0.80056 0.55879 0.71765 0.0
C2783 C 0.80811 0.58861 0.76144 0.0
H2784 H 0.8461 0.5938 0.72265 0.0
H2785 H 0.80777 0.61572 0.71421 0.0
H2786 H 0.83395 0.57149 0.74801 0.0
H2787 H 0.83053 0.56132 0.73263 0.0
H2788 H 0.84644 0.57181 0.73382 0.0
H2789 H 0.78558 0.60632 0.71983 0.0
H2790 H 0.7843 0.58754 0.72197 0.0
H2791 H 0.78641 0.59844 0.73708 0.0
H2792 H 0.78448 0.54361 0.73578 0.0
H2793 H 0.79096 0.56875 0.77256 0.0
H2794 H 0.81194 0.55927 0.71516 0.0
H2795 H 0.79535 0.56699 0.71123 0.0
H2796 H 0.79627 0.54838 0.71448 0.0
H2797 H 0.81967 0.58908 0.75989 0.0
H2798 H 0.80594 0.58845 0.7729 0.0
H2799 H 0.80371 0.59836 0.75688 0.0
C2800 C 0.93204 0.32594 0.71386 0.0
C2801 C 0.9195 0.31811 0.71231 0.0
C2802 C 0.94356 0.32061 0.72149 0.0
C2803 C 0.94255 0.30711 0.72774 0.0
C2804 C 0.92987 0.29923 0.72634 0.0
C2805 C 0.91854 0.30482 0.7187 0.0
C2806 C 0.95684 0.32938 0.7228 0.0
C2807 C 0.92827 0.28481 0.73287 0.0
C2808 C 0.97457 0.2852 0.73702 0.0
C2809 C 0.97469 0.28602 0.75171 0.0
C2810 C 0.96459 0.29257 0.72898 0.0
C2811 C 0.95463 0.30109 0.73582 0.0
C2812 C 0.95538 0.30265 0.75061 0.0
C2813 C 0.96529 0.29497 0.75838 0.0
C2814 C 0.96409 0.29047 0.71328 0.0
C2815 C 0.94517 0.31178 0.75833 0.0
H2816 H 0.93296 0.33616 0.70886 0.0
H2817 H 0.90884 0.29877 0.71781 0.0
H2818 H 0.95951 0.33095 0.73405 0.0
H2819 H 0.96575 0.32381 0.71797 0.0
H2820 H 0.95585 0.3398 0.71764 0.0
H2821 H 0.91779 0.27997 0.73068 0.0
H2822 H 0.9365 0.2778 0.72879 0.0
H2823 H 0.92974 0.28545 0.74442 0.0
H2824 H 0.9817 0.27811 0.73189 0.0
H2825 H 0.96533 0.29551 0.76976 0.0
H2826 H 0.96354 0.30071 0.70773 0.0
H2827 H 0.95445 0.28438 0.71046 0.0
H2828 H 0.97338 0.28473 0.70941 0.0
H2829 H 0.94441 0.3222 0.75313 0.0
H2830 H 0.94829 0.31333 0.76949 0.0
H2831 H 0.93453 0.30685 0.75805 0.0
C2832 C 0.20973 0.43399 0.70697 0.0
C2833 C 0.20563 0.42275 0.71572 0.0
C2834 C 0.21798 0.44523 0.71217 0.0
C2835 C 0.22233 0.44521 0.72644 0.0
C2836 C 0.21821 0.4339 0.7353 0.0
C2837 C 0.20994 0.42286 0.72985 0.0
C2838 C 0.22209 0.4571 0.70239 0.0
C2839 C 0.2227 0.43336 0.75054 0.0
C2840 C 0.25497 0.46493 0.73919 0.0
C2841 C 0.24914 0.47607 0.74668 0.0
C2842 C 0.2464 0.45523 0.73195 0.0
C2843 C 0.2316 0.45669 0.73212 0.0
C2844 C 0.2257 0.46842 0.73889 0.0
C2845 C 0.23455 0.47798 0.74609 0.0
C2846 C 0.25318 0.44296 0.72482 0.0
C2847 C 0.20999 0.47044 0.73925 0.0
H2848 H 0.20633 0.43409 0.69608 0.0
H2849 H 0.20703 0.41414 0.73665 0.0
H2850 H 0.21845 0.46721 0.70668 0.0
H2851 H 0.23371 0.45784 0.70157 0.0
H2852 H 0.21759 0.45574 0.69167 0.0
H2853 H 0.21838 0.42399 0.75612 0.0
H2854 H 0.23435 0.43318 0.75129 0.0
H2855 H 0.21917 0.44289 0.75606 0.0
H2856 H 0.26626 0.4635 0.73943 0.0
H2857 H 0.22996 0.4865 0.75191 0.0
H2858 H 0.24913 0.44184 0.71392 0.0
H2859 H 0.25045 0.43314 0.73057 0.0
H2860 H 0.26483 0.44406 0.72447 0.0
H2861 H 0.2054 0.46928 0.72857 0.0
H2862 H 0.20717 0.48088 0.74341 0.0
H2863 H 0.20509 0.46224 0.74603 0.0
C2864 C 0.09029 0.30986 0.34071 0.0
C2865 C 0.10267 0.31435 0.33393 0.0
C2866 C 0.07928 0.3032 0.33326 0.0
C2867 C 0.08063 0.30096 0.31863 0.0
C2868 C 0.0929 0.30587 0.31164 0.0
C2869 C 0.10374 0.31248 0.31935 0.0
C2870 C 0.06638 0.29819 0.34111 0.0
C2871 C 0.09479 0.30371 0.29605 0.0
C2872 C 0.06185 0.27039 0.30079 0.0
C2873 C 0.05107 0.27711 0.29333 0.0
C2874 C 0.07117 0.27796 0.30948 0.0
C2875 C 0.06974 0.29266 0.31076 0.0
C2876 C 0.05844 0.29941 0.30382 0.0
C2877 C 0.04921 0.29155 0.29521 0.0
C2878 C 0.08295 0.27028 0.31679 0.0
C2879 C 0.05652 0.31504 0.30494 0.0
H2880 H 0.08923 0.31145 0.35193 0.0
H2881 H 0.1133 0.31575 0.31401 0.0
H2882 H 0.05673 0.30218 0.33595 0.0
H2883 H 0.06572 0.28656 0.34086 0.0
H2884 H 0.06648 0.30159 0.35226 0.0
H2885 H 0.1045 0.30892 0.29202 0.0
H2886 H 0.09535 0.29232 0.29382 0.0
H2887 H 0.08562 0.30784 0.29017 0.0
H2888 H 0.06323 0.25921 0.29949 0.0
H2889 H 0.04097 0.29681 0.28939 0.0
H2890 H 0.08304 0.2727 0.32818 0.0
H2891 H 0.09322 0.27386 0.31246 0.0
H2892 H 0.08204 0.25874 0.31549 0.0
H2893 H 0.05673 0.31831 0.31611 0.0
H2894 H 0.04647 0.31848 0.30009 0.0
H2895 H 0.06534 0.32058 0.29958 0.0
C2896 C 0.21303 0.60366 0.3122 0.0
C2897 C 0.20853 0.6015 0.32609 0.0
C2898 C 0.21946 0.5929 0.30459 0.0
C2899 C 0.22149 0.57961 0.311 0.0
C2900 C 0.21642 0.57718 0.32478 0.0
C2901 C 0.21001 0.58811 0.33214 0.0
C2902 C 0.22468 0.59598 0.28992 0.0
C2903 C 0.21831 0.56318 0.332 0.0
C2904 C 0.23256 0.54953 0.28721 0.0
C2905 C 0.24725 0.5502 0.28858 0.0
C2906 C 0.22395 0.55878 0.2947 0.0
C2907 C 0.23019 0.56885 0.30382 0.0
C2908 C 0.24498 0.5691 0.30566 0.0
C2909 C 0.25329 0.55981 0.29804 0.0
C2910 C 0.20823 0.55816 0.29244 0.0
C2911 C 0.25212 0.57951 0.31536 0.0
H2912 H 0.21209 0.61396 0.30744 0.0
H2913 H 0.20635 0.58623 0.34276 0.0
H2914 H 0.23636 0.59591 0.28986 0.0
H2915 H 0.22096 0.58773 0.28256 0.0
H2916 H 0.22114 0.60633 0.28594 0.0
H2917 H 0.21258 0.5625 0.34213 0.0
H2918 H 0.21458 0.55455 0.32511 0.0
H2919 H 0.22966 0.5615 0.3341 0.0
H2920 H 0.22786 0.54217 0.27985 0.0
H2921 H 0.26464 0.56027 0.29924 0.0
H2922 H 0.20478 0.56788 0.28705 0.0
H2923 H 0.20271 0.5576 0.30268 0.0
H2924 H 0.20491 0.54901 0.28599 0.0
H2925 H 0.25031 0.59034 0.31148 0.0
H2926 H 0.26365 0.57788 0.31615 0.0
H2927 H 0.24756 0.5787 0.32605 0.0
C2928 C 0.923 0.71781 0.32114 0.0
C2929 C 0.92359 0.70319 0.32282 0.0
C2930 C 0.93396 0.7254 0.31456 0.0
C2931 C 0.94585 0.71824 0.30947 0.0
C2932 C 0.94674 0.70356 0.31153 0.0
C2933 C 0.93564 0.69624 0.31818 0.0
C2934 C 0.93257 0.74105 0.3126 0.0
C2935 C 0.95922 0.69552 0.30632 0.0
C2936 C 0.96454 0.73618 0.27883 0.0
C2937 C 0.97583 0.74309 0.28552 0.0
C2938 C 0.95505 0.72766 0.28642 0.0
C2939 C 0.95681 0.72601 0.30113 0.0
C2940 C 0.96859 0.73242 0.30785 0.0
C2941 C 0.97799 0.74085 0.29995 0.0
C2942 C 0.94277 0.72092 0.27877 0.0
C2943 C 0.97089 0.73092 0.32349 0.0
H2944 H 0.91372 0.7233 0.32453 0.0
H2945 H 0.93635 0.68499 0.31963 0.0
H2946 H 0.94207 0.74657 0.31672 0.0
H2947 H 0.93175 0.74358 0.30123 0.0
H2948 H 0.92317 0.74519 0.31798 0.0
H2949 H 0.9588 0.68431 0.30959 0.0
H2950 H 0.95959 0.69604 0.29468 0.0
H2951 H 0.96915 0.70031 0.31032 0.0
H2952 H 0.96289 0.73778 0.26765 0.0
H2953 H 0.98663 0.74626 0.30519 0.0
H2954 H 0.93279 0.72546 0.28251 0.0
H2955 H 0.94231 0.7095 0.28105 0.0
H2956 H 0.9434 0.72247 0.26721 0.0
H2957 H 0.96241 0.73638 0.32915 0.0
H2958 H 0.98119 0.73542 0.3269 0.0
H2959 H 0.97035 0.71972 0.32666 0.0
C2960 C 0.8338 0.4391 0.31457 0.0
C2961 C 0.82679 0.42655 0.31829 0.0
C2962 C 0.82664 0.45022 0.30803 0.0
C2963 C 0.81206 0.44882 0.30512 0.0
C2964 C 0.80482 0.43638 0.30926 0.0
C2965 C 0.81225 0.42543 0.31577 0.0
C2966 C 0.83476 0.4633 0.30386 0.0
C2967 C 0.78928 0.43442 0.30638 0.0
C2968 C 0.78917 0.48024 0.29589 0.0
C2969 C 0.7877 0.4788 0.28129 0.0
C2970 C 0.79748 0.47088 0.30378 0.0
C2971 C 0.80452 0.45988 0.29689 0.0
C2972 C 0.80367 0.4589 0.28206 0.0
C2973 C 0.79527 0.46833 0.27447 0.0
C2974 C 0.79812 0.47234 0.31955 0.0
C2975 C 0.81111 0.44747 0.27422 0.0
H2976 H 0.84498 0.44021 0.31668 0.0
H2977 H 0.80672 0.41576 0.31843 0.0
H2978 H 0.83487 0.46431 0.29223 0.0
H2979 H 0.82956 0.47273 0.30802 0.0
H2980 H 0.84581 0.46318 0.30773 0.0
H2981 H 0.785 0.42456 0.31106 0.0
H2982 H 0.78335 0.44338 0.31063 0.0
H2983 H 0.78738 0.43419 0.29487 0.0
H2984 H 0.78325 0.48823 0.30123 0.0
H2985 H 0.79426 0.46724 0.26317 0.0
H2986 H 0.80919 0.47208 0.32329 0.0
H2987 H 0.79247 0.46335 0.32453 0.0
H2988 H 0.79328 0.48221 0.32317 0.0
H2989 H 0.82243 0.44739 0.27713 0.0
H2990 H 0.8102 0.44874 0.26264 0.0
H2991 H 0.80655 0.4371 0.27721 0.0
C2992 C 0.19754 0.59458 0.72002 0.0
C2993 C 0.20435 0.6077 0.71875 0.0
C2994 C 0.20432 0.58305 0.72627 0.0
C2995 C 0.21829 0.58462 0.73135 0.0
C2996 C 0.22534 0.59774 0.72977 0.0
C2997 C 0.21829 0.60908 0.72354 0.0
C2998 C 0.1964 0.5693 0.72781 0.0
C2999 C 0.24027 0.59989 0.73492 0.0
C3000 C 0.23297 0.56218 0.76105 0.0
C3001 C 0.24185 0.55312 0.75384 0.0
C3002 C 0.22465 0.57194 0.7538 0.0
C3003 C 0.2254 0.57286 0.73895 0.0
C3004 C 0.23386 0.56326 0.73157 0.0
C3005 C 0.24193 0.55343 0.73911 0.0
C3006 C 0.21563 0.58178 0.76211 0.0
C3007 C 0.23507 0.56391 0.71577 0.0
H3008 H 0.18672 0.59341 0.7165 0.0
H3009 H 0.22373 0.61909 0.72242 0.0
H3010 H 0.20257 0.56066 0.72327 0.0
H3011 H 0.19489 0.56685 0.73912 0.0
H3012 H 0.18592 0.56951 0.72259 0.0
H3013 H 0.24449 0.61051 0.73233 0.0
H3014 H 0.24071 0.59842 0.74649 0.0
H3015 H 0.24722 0.59196 0.73021 0.0
H3016 H 0.23296 0.56198 0.77245 0.0
H3017 H 0.24895 0.54657 0.73353 0.0
H3018 H 0.2048 0.58197 0.75772 0.0
H3019 H 0.22003 0.5926 0.76133 0.0
H3020 H 0.21507 0.57878 0.77339 0.0
H3021 H 0.22448 0.56416 0.71082 0.0
H3022 H 0.24089 0.55487 0.71151 0.0
H3023 H 0.24069 0.57373 0.71267 0.0
C3024 C 0.20594 0.42158 0.30809 0.0
C3025 C 0.20333 0.42086 0.32258 0.0
C3026 C 0.21439 0.43232 0.30228 0.0
C3027 C 0.22043 0.44268 0.31116 0.0
C3028 C 0.21777 0.4421 0.32579 0.0
C3029 C 0.2093 0.43118 0.33134 0.0
C3030 C 0.21703 0.43245 0.28664 0.0
C3031 C 0.22396 0.45296 0.33559 0.0
C3032 C 0.25306 0.4604 0.29593 0.0
C3033 C 0.24748 0.47248 0.28965 0.0
C3034 C 0.24451 0.45098 0.30357 0.0
C3035 C 0.22999 0.4537 0.30505 0.0
C3036 C 0.22447 0.46633 0.29951 0.0
C3037 C 0.23329 0.47558 0.29187 0.0
C3038 C 0.2509 0.43772 0.30936 0.0
C3039 C 0.20908 0.46968 0.30093 0.0
H3040 H 0.20157 0.41355 0.30126 0.0
H3041 H 0.20723 0.4308 0.34252 0.0
H3042 H 0.2138 0.44262 0.28201 0.0
H3043 H 0.22845 0.43133 0.28461 0.0
H3044 H 0.21125 0.42387 0.28113 0.0
H3045 H 0.22053 0.45132 0.34663 0.0
H3046 H 0.23562 0.45264 0.33526 0.0
H3047 H 0.22085 0.46361 0.33214 0.0
H3048 H 0.26408 0.45805 0.29443 0.0
H3049 H 0.22889 0.48486 0.28701 0.0
H3050 H 0.24663 0.42854 0.30352 0.0
H3051 H 0.24804 0.43624 0.32056 0.0
H3052 H 0.26255 0.43779 0.30847 0.0
H3053 H 0.20273 0.46238 0.29434 0.0
H3054 H 0.20678 0.4806 0.29758 0.0
H3055 H 0.20562 0.4682 0.31197 0.0
C3056 C 0.10556 0.70961 0.30783 0.0
C3057 C 0.10617 0.7055 0.32201 0.0
C3058 C 0.09467 0.71806 0.30269 0.0
C3059 C 0.08403 0.72259 0.31192 0.0
C3060 C 0.08455 0.71851 0.32626 0.0
C3061 C 0.09563 0.71005 0.33115 0.0
C3062 C 0.09464 0.72226 0.28735 0.0
C3063 C 0.07341 0.72307 0.33644 0.0
C3064 C 0.06531 0.75521 0.29896 0.0
C3065 C 0.05354 0.74945 0.29199 0.0
C3066 C 0.0749 0.74666 0.30618 0.0
C3067 C 0.07268 0.73194 0.3065 0.0
C3068 C 0.06031 0.72616 0.30031 0.0
C3069 C 0.05087 0.73498 0.29313 0.0
C3070 C 0.08785 0.75332 0.31269 0.0
C3071 C 0.05748 0.71055 0.30047 0.0
H3072 H 0.11376 0.70636 0.30073 0.0
H3073 H 0.09592 0.70683 0.34209 0.0
H3074 H 0.08464 0.71882 0.2823 0.0
H3075 H 0.09533 0.73385 0.28636 0.0
H3076 H 0.10354 0.71767 0.2815 0.0
H3077 H 0.07518 0.71885 0.3472 0.0
H3078 H 0.07324 0.73469 0.33695 0.0
H3079 H 0.06288 0.71951 0.33272 0.0
H3080 H 0.06734 0.76641 0.29826 0.0
H3081 H 0.04185 0.73045 0.28772 0.0
H3082 H 0.09727 0.75038 0.3066 0.0
H3083 H 0.08938 0.74944 0.3236 0.0
H3084 H 0.08727 0.76495 0.31288 0.0
H3085 H 0.06508 0.70532 0.29348 0.0
H3086 H 0.04665 0.70788 0.29683 0.0
H3087 H 0.059 0.7062 0.31121 0.0
C3088 C 0.80974 0.59399 0.33923 0.0
C3089 C 0.81463 0.60628 0.33253 0.0
C3090 C 0.80319 0.5831 0.3316 0.0
C3091 C 0.80146 0.58447 0.31686 0.0
C3092 C 0.80677 0.59665 0.30997 0.0
C3093 C 0.81326 0.60738 0.31787 0.0
C3094 C 0.79775 0.57029 0.33936 0.0
C3095 C 0.80515 0.59857 0.29428 0.0
C3096 C 0.79238 0.55319 0.29346 0.0
C3097 C 0.77799 0.55519 0.29095 0.0
C3098 C 0.80011 0.56234 0.30226 0.0
C3099 C 0.79326 0.57371 0.30874 0.0
C3100 C 0.77859 0.5753 0.3068 0.0
C3101 C 0.77116 0.56605 0.29795 0.0
C3102 C 0.81572 0.56024 0.30408 0.0
C3103 C 0.7708 0.58715 0.31361 0.0
H3104 H 0.81095 0.5929 0.35052 0.0
H3105 H 0.81684 0.61687 0.31257 0.0
H3106 H 0.7861 0.56976 0.33858 0.0
H3107 H 0.80183 0.56062 0.33449 0.0
H3108 H 0.80077 0.57036 0.35065 0.0
H3109 H 0.81064 0.60819 0.29039 0.0
H3110 H 0.80939 0.58938 0.2887 0.0
H3111 H 0.79383 0.59926 0.29152 0.0
H3112 H 0.79774 0.54489 0.288 0.0
H3113 H 0.76 0.56755 0.29616 0.0
H3114 H 0.81864 0.56041 0.31538 0.0
H3115 H 0.82155 0.56898 0.29887 0.0
H3116 H 0.81921 0.5502 0.29949 0.0
H3117 H 0.77282 0.58721 0.3251 0.0
H3118 H 0.75926 0.5864 0.31179 0.0
H3119 H 0.77468 0.59733 0.30933 0.0
C3120 C 0.93236 0.32646 0.32095 0.0
C3121 C 0.92132 0.31773 0.32574 0.0
C3122 C 0.9435 0.32107 0.31299 0.0
C3123 C 0.9436 0.30661 0.30963 0.0
C3124 C 0.93249 0.29777 0.31443 0.0
C3125 C 0.92154 0.30342 0.32238 0.0
C3126 C 0.95514 0.33084 0.30813 0.0
C3127 C 0.93208 0.28232 0.31102 0.0
C3128 C 0.96272 0.2922 0.27793 0.0
C3129 C 0.97413 0.28534 0.28422 0.0
C3130 C 0.95315 0.29982 0.28598 0.0
C3131 C 0.95499 0.30065 0.30073 0.0
C3132 C 0.96702 0.29453 0.30703 0.0
C3133 C 0.97646 0.28696 0.29869 0.0
C3134 C 0.94059 0.30625 0.27877 0.0
C3135 C 0.96945 0.29521 0.32269 0.0
H3136 H 0.93238 0.3375 0.3236 0.0
H3137 H 0.91298 0.29661 0.3258 0.0
H3138 H 0.96544 0.32706 0.31203 0.0
H3139 H 0.95561 0.33094 0.29648 0.0
H3140 H 0.95368 0.34175 0.31182 0.0
H3141 H 0.92287 0.2768 0.31577 0.0
H3142 H 0.93163 0.28088 0.29946 0.0
H3143 H 0.94182 0.27726 0.31487 0.0
H3144 H 0.96095 0.29113 0.26672 0.0
H3145 H 0.98519 0.28162 0.30364 0.0
H3146 H 0.93936 0.3173 0.28207 0.0
H3147 H 0.93088 0.30045 0.28189 0.0
H3148 H 0.94144 0.30597 0.26713 0.0
H3149 H 0.96821 0.30609 0.3265 0.0
H3150 H 0.98007 0.2915 0.32573 0.0
H3151 H 0.96146 0.28856 0.32813 0.0
C3152 C 0.82851 0.43937 0.71715 0.0
C3153 C 0.82217 0.42615 0.71498 0.0
C3154 C 0.82115 0.45033 0.72353 0.0
C3155 C 0.80706 0.44807 0.72787 0.0
C3156 C 0.80041 0.43495 0.72518 0.0
C3157 C 0.80802 0.42418 0.71879 0.0
C3158 C 0.82864 0.46414 0.72612 0.0
C3159 C 0.78542 0.43206 0.72963 0.0
C3160 C 0.79304 0.46762 0.75944 0.0
C3161 C 0.78411 0.47748 0.75319 0.0
C3162 C 0.80085 0.45833 0.7513 0.0
C3163 C 0.79974 0.45883 0.73646 0.0
C3164 C 0.79117 0.46914 0.73003 0.0
C3165 C 0.78347 0.47839 0.73849 0.0
C3166 C 0.80994 0.44764 0.75864 0.0
C3167 C 0.7897 0.47005 0.71426 0.0
H3168 H 0.83935 0.44112 0.71402 0.0
H3169 H 0.80303 0.414 0.71731 0.0
H3170 H 0.82217 0.47297 0.72225 0.0
H3171 H 0.8302 0.46561 0.73759 0.0
H3172 H 0.83908 0.46471 0.72093 0.0
H3173 H 0.78136 0.42182 0.72569 0.0
H3174 H 0.7848 0.43198 0.74128 0.0
H3175 H 0.77844 0.44048 0.72574 0.0
H3176 H 0.79368 0.46698 0.77081 0.0
H3177 H 0.77652 0.48593 0.73361 0.0
H3178 H 0.82086 0.44833 0.75462 0.0
H3179 H 0.80588 0.43692 0.75639 0.0
H3180 H 0.8102 0.44909 0.77022 0.0
H3181 H 0.80022 0.47052 0.70927 0.0
H3182 H 0.78364 0.47936 0.71085 0.0
H3183 H 0.78424 0.46048 0.71032 0.0
C3184 C 0.1053 0.31476 0.72027 0.0
C3185 C 0.10464 0.31594 0.70556 0.0
C3186 C 0.09433 0.30832 0.72794 0.0
C3187 C 0.08236 0.30286 0.72078 0.0
C3188 C 0.08141 0.3044 0.70599 0.0
C3189 C 0.09252 0.31092 0.69858 0.0
C3190 C 0.0958 0.30691 0.74369 0.0
C3191 C 0.06883 0.2988 0.69794 0.0
C3192 C 0.0635 0.27263 0.73938 0.0
C3193 C 0.05228 0.27937 0.74593 0.0
C3194 C 0.07304 0.28007 0.73081 0.0
C3195 C 0.07138 0.29466 0.72868 0.0
C3196 C 0.05968 0.30142 0.73472 0.0
C3197 C 0.05024 0.29368 0.74325 0.0
C3198 C 0.08523 0.27237 0.72448 0.0
C3199 C 0.0575 0.31695 0.7327 0.0
H3200 H 0.11464 0.31844 0.72578 0.0
H3201 H 0.09176 0.31198 0.68726 0.0
H3202 H 0.08636 0.31108 0.74895 0.0
H3203 H 0.09655 0.29566 0.74662 0.0
H3204 H 0.10527 0.31252 0.74779 0.0
H3205 H 0.06921 0.30169 0.68662 0.0
H3206 H 0.06838 0.28719 0.69885 0.0
H3207 H 0.05896 0.30283 0.70247 0.0
H3208 H 0.06504 0.26154 0.74131 0.0
H3209 H 0.04165 0.29897 0.74836 0.0
H3210 H 0.09527 0.27641 0.72902 0.0
H3211 H 0.08564 0.27425 0.71297 0.0
H3212 H 0.08456 0.26088 0.72643 0.0
H3213 H 0.06608 0.32287 0.73807 0.0
H3214 H 0.04726 0.32038 0.73698 0.0
H3215 H 0.05796 0.31976 0.72138 0.0
C3216 C 0.92364 0.73002 0.70967 0.0
C3217 C 0.92396 0.71589 0.70566 0.0
C3218 C 0.93449 0.73603 0.7178 0.0
C3219 C 0.94604 0.72776 0.72204 0.0
C3220 C 0.94657 0.71354 0.71784 0.0
C3221 C 0.9355 0.70776 0.70975 0.0
C3222 C 0.9334 0.75118 0.72216 0.0
C3223 C 0.95873 0.7044 0.72207 0.0
C3224 C 0.978 0.74846 0.73543 0.0
C3225 C 0.97557 0.74842 0.74995 0.0
C3226 C 0.96883 0.74124 0.7262 0.0
C3227 C 0.95699 0.73383 0.73164 0.0
C3228 C 0.95496 0.73318 0.74636 0.0
C3229 C 0.96427 0.74043 0.7553 0.0
C3230 C 0.97143 0.74211 0.71058 0.0
C3231 C 0.94254 0.72538 0.75266 0.0
H3232 H 0.91468 0.73633 0.70673 0.0
H3233 H 0.93592 0.69689 0.70656 0.0
H3234 H 0.93269 0.75182 0.73377 0.0
H3235 H 0.94299 0.75713 0.71894 0.0
H3236 H 0.92407 0.75636 0.71748 0.0
H3237 H 0.95801 0.69382 0.71727 0.0
H3238 H 0.96883 0.70944 0.71892 0.0
H3239 H 0.95899 0.70316 0.73367 0.0
H3240 H 0.98669 0.75464 0.73123 0.0
H3241 H 0.96247 0.74019 0.76655 0.0
H3242 H 0.96316 0.74853 0.70553 0.0
H3243 H 0.97081 0.73151 0.70585 0.0
H3244 H 0.98186 0.7469 0.70812 0.0
H3245 H 0.93264 0.73058 0.74947 0.0
H3246 H 0.94303 0.72502 0.76433 0.0
H3247 H 0.94201 0.71448 0.74867 0.0
C3248 C 0.72575 0.21156 0.60979 0.0
C3249 C 0.71136 0.20809 0.61048 0.0
C3250 C 0.73127 0.21959 0.59862 0.0
C3251 C 0.72222 0.22435 0.58777 0.0
C3252 C 0.70768 0.22089 0.58836 0.0
C3253 C 0.70241 0.21285 0.59971 0.0
C3254 C 0.74681 0.22312 0.59854 0.0
C3255 C 0.69768 0.22571 0.577 0.0
C3256 C 0.73672 0.25622 0.56815 0.0
C3257 C 0.74339 0.25006 0.55663 0.0
C3258 C 0.7291 0.24807 0.57792 0.0
C3259 C 0.72806 0.23335 0.57617 0.0
C3260 C 0.73393 0.2272 0.56403 0.0
C3261 C 0.74152 0.23563 0.55439 0.0
C3262 C 0.72296 0.25513 0.59061 0.0
C3263 C 0.73298 0.21158 0.56168 0.0
H3264 H 0.73272 0.20814 0.61814 0.0
H3265 H 0.69131 0.21012 0.60006 0.0
H3266 H 0.75163 0.21936 0.58869 0.0
H3267 H 0.7484 0.23467 0.59886 0.0
H3268 H 0.75248 0.21839 0.6076 0.0
H3269 H 0.68673 0.22193 0.57882 0.0
H3270 H 0.69771 0.23734 0.57646 0.0
H3271 H 0.70121 0.22189 0.56662 0.0
H3272 H 0.73799 0.2674 0.56985 0.0
H3273 H 0.7467 0.23079 0.54557 0.0
H3274 H 0.72896 0.25204 0.60015 0.0
H3275 H 0.71188 0.25171 0.59217 0.0
H3276 H 0.72334 0.26675 0.58967 0.0
H3277 H 0.73977 0.20615 0.56945 0.0
H3278 H 0.73642 0.20866 0.55096 0.0
H3279 H 0.72205 0.20769 0.56328 0.0
C3280 C 0.32145 0.20465 0.59927 0.0
C3281 C 0.31344 0.20147 0.61127 0.0
C3282 C 0.31587 0.21272 0.58818 0.0
C3283 C 0.30199 0.21784 0.58914 0.0
C3284 C 0.29381 0.21452 0.60115 0.0
C3285 C 0.29962 0.20638 0.61202 0.0
C3286 C 0.32489 0.21595 0.57552 0.0
C3287 C 0.27903 0.21988 0.6027 0.0
C3288 C 0.29129 0.2512 0.57014 0.0
C3289 C 0.28259 0.24603 0.55932 0.0
C3290 C 0.29807 0.24212 0.57956 0.0
C3291 C 0.29624 0.22745 0.57811 0.0
C3292 C 0.28808 0.22212 0.56676 0.0
C3293 C 0.28134 0.23149 0.55749 0.0
C3294 C 0.3067 0.24829 0.59144 0.0
C3295 C 0.28595 0.20655 0.56479 0.0
H3296 H 0.33208 0.20076 0.59852 0.0
H3297 H 0.29341 0.20414 0.62132 0.0
H3298 H 0.31928 0.21281 0.56576 0.0
H3299 H 0.32696 0.22741 0.5748 0.0
H3300 H 0.33514 0.2105 0.57598 0.0
H3301 H 0.27384 0.21586 0.61239 0.0
H3302 H 0.27925 0.23151 0.60304 0.0
H3303 H 0.27252 0.21676 0.59349 0.0
H3304 H 0.2925 0.26244 0.57147 0.0
H3305 H 0.27461 0.22742 0.54919 0.0
H3306 H 0.31734 0.24366 0.59168 0.0
H3307 H 0.30161 0.24572 0.60163 0.0
H3308 H 0.30785 0.25988 0.59056 0.0
H3309 H 0.2962 0.20114 0.56514 0.0
H3310 H 0.28059 0.20406 0.55469 0.0
H3311 H 0.27947 0.20223 0.57352 0.0
C3312 C 0.30315 0.82035 0.60864 0.0
C3313 C 0.31766 0.82305 0.60993 0.0
C3314 C 0.29765 0.8122 0.59761 0.0
C3315 C 0.30685 0.80655 0.5875 0.0
C3316 C 0.32151 0.80926 0.58867 0.0
C3317 C 0.32675 0.81743 0.59989 0.0
C3318 C 0.28197 0.80947 0.5969 0.0
C3319 C 0.33165 0.8035 0.57808 0.0
C3320 C 0.29149 0.77462 0.56895 0.0
C3321 C 0.28554 0.78059 0.55681 0.0
C3322 C 0.29915 0.7828 0.57863 0.0
C3323 C 0.301 0.79736 0.57612 0.0
C3324 C 0.29588 0.80327 0.56339 0.0
C3325 C 0.28821 0.79481 0.55388 0.0
C3326 C 0.30445 0.776 0.59198 0.0
C3327 C 0.29772 0.81871 0.56024 0.0
H3328 H 0.29606 0.82445 0.61645 0.0
H3329 H 0.33795 0.81956 0.60072 0.0
H3330 H 0.27775 0.81305 0.58661 0.0
H3331 H 0.27976 0.79803 0.59774 0.0
H3332 H 0.27622 0.81486 0.60539 0.0
H3333 H 0.34269 0.80688 0.58022 0.0
H3334 H 0.3311 0.79187 0.5782 0.0
H3335 H 0.32868 0.80699 0.56734 0.0
H3336 H 0.28962 0.76358 0.57118 0.0
H3337 H 0.2836 0.79951 0.54456 0.0
H3338 H 0.29831 0.77982 0.60104 0.0
H3339 H 0.31563 0.77892 0.59389 0.0
H3340 H 0.30348 0.76438 0.59167 0.0
H3341 H 0.29094 0.82481 0.56735 0.0
H3342 H 0.29486 0.82132 0.5492 0.0
H3343 H 0.30877 0.82213 0.56219 0.0
C3344 C 0.71483 0.83271 0.59672 0.0
C3345 C 0.71142 0.8263 0.60962 0.0
C3346 C 0.7213 0.82518 0.58591 0.0
C3347 C 0.72447 0.81084 0.58799 0.0
C3348 C 0.72054 0.80416 0.60075 0.0
C3349 C 0.71409 0.81195 0.61139 0.0
C3350 C 0.72524 0.83271 0.57246 0.0
C3351 C 0.72372 0.78891 0.60344 0.0
C3352 C 0.735 0.78734 0.55743 0.0
C3353 C 0.74966 0.78703 0.5591 0.0
C3354 C 0.72662 0.79531 0.56652 0.0
C3355 C 0.73308 0.80319 0.57746 0.0
C3356 C 0.74793 0.80332 0.57877 0.0
C3357 C 0.756 0.79526 0.56962 0.0
C3358 C 0.71084 0.7949 0.56475 0.0
C3359 C 0.75532 0.81164 0.59015 0.0
H3360 H 0.71259 0.84372 0.59512 0.0
H3361 H 0.71164 0.80689 0.62133 0.0
H3362 H 0.73687 0.83349 0.57164 0.0
H3363 H 0.72138 0.82671 0.56322 0.0
H3364 H 0.72091 0.84346 0.57193 0.0
H3365 H 0.71892 0.78495 0.61335 0.0
H3366 H 0.7198 0.78238 0.5946 0.0
H3367 H 0.73528 0.78753 0.60412 0.0
H3368 H 0.73005 0.78094 0.54938 0.0
H3369 H 0.76735 0.79519 0.57084 0.0
H3370 H 0.70668 0.8057 0.56427 0.0
H3371 H 0.70598 0.78961 0.57398 0.0
H3372 H 0.70751 0.78921 0.55511 0.0
H3373 H 0.76696 0.81114 0.58936 0.0
H3374 H 0.75214 0.80756 0.60063 0.0
H3375 H 0.7522 0.8228 0.58958 0.0
C3376 C 0.7183 0.83521 0.44095 0.0
C3377 C 0.71368 0.82769 0.42909 0.0
C3378 C 0.7252 0.82848 0.45218 0.0
C3379 C 0.72762 0.81387 0.45156 0.0
C3380 C 0.7226 0.80616 0.43983 0.0
C3381 C 0.71569 0.81314 0.42879 0.0
C3382 C 0.73034 0.83708 0.4645 0.0
C3383 C 0.72491 0.79057 0.43873 0.0
C3384 C 0.75888 0.79753 0.47016 0.0
C3385 C 0.75243 0.79026 0.48133 0.0
C3386 C 0.751 0.80572 0.46077 0.0
C3387 C 0.73627 0.80675 0.46258 0.0
C3388 C 0.72981 0.8001 0.47431 0.0
C3389 C 0.73798 0.79192 0.48356 0.0
C3390 C 0.75836 0.81269 0.44849 0.0
C3391 C 0.71417 0.80103 0.47669 0.0
H3392 H 0.71693 0.84647 0.44126 0.0
H3393 H 0.71194 0.80718 0.41983 0.0
H3394 H 0.72686 0.83219 0.47453 0.0
H3395 H 0.74201 0.83739 0.46464 0.0
H3396 H 0.72649 0.84802 0.46404 0.0
H3397 H 0.71974 0.78597 0.4293 0.0
H3398 H 0.73636 0.78849 0.43821 0.0
H3399 H 0.72079 0.78511 0.44822 0.0
H3400 H 0.77009 0.79645 0.4685 0.0
H3401 H 0.73293 0.78628 0.49213 0.0
H3402 H 0.75575 0.82398 0.44797 0.0
H3403 H 0.75467 0.80784 0.43854 0.0
H3404 H 0.76998 0.81171 0.44915 0.0
H3405 H 0.71076 0.81209 0.47601 0.0
H3406 H 0.71102 0.79664 0.48707 0.0
H3407 H 0.70847 0.79513 0.46835 0.0
C3408 C 0.71093 0.22507 0.42648 0.0
C3409 C 0.70713 0.21079 0.42627 0.0
C3410 C 0.71909 0.23074 0.43748 0.0
C3411 C 0.72362 0.22196 0.44863 0.0
C3412 C 0.7198 0.20754 0.44853 0.0
C3413 C 0.71165 0.20212 0.43735 0.0
C3414 C 0.723 0.24615 0.43706 0.0
C3415 C 0.72437 0.19783 0.46023 0.0
C3416 C 0.75587 0.23616 0.46791 0.0
C3417 C 0.74983 0.24326 0.47922 0.0
C3418 C 0.74754 0.22853 0.45832 0.0
C3419 C 0.73275 0.22792 0.46005 0.0
C3420 C 0.72668 0.23426 0.47199 0.0
C3421 C 0.7353 0.24185 0.48144 0.0
C3422 C 0.7545 0.22187 0.44585 0.0
C3423 C 0.71099 0.2338 0.4743 0.0
H3424 H 0.7077 0.23183 0.41789 0.0
H3425 H 0.70865 0.19111 0.43736 0.0
H3426 H 0.71934 0.25135 0.44674 0.0
H3427 H 0.73462 0.24744 0.4367 0.0
H3428 H 0.7184 0.25162 0.42781 0.0
H3429 H 0.72029 0.18695 0.45878 0.0
H3430 H 0.73602 0.19757 0.46078 0.0
H3431 H 0.72063 0.20179 0.47048 0.0
H3432 H 0.76713 0.23707 0.46624 0.0
H3433 H 0.73055 0.24736 0.49011 0.0
H3434 H 0.75154 0.2276 0.43611 0.0
H3435 H 0.75083 0.21085 0.44464 0.0
H3436 H 0.76616 0.22202 0.44679 0.0
H3437 H 0.70575 0.24044 0.46627 0.0
H3438 H 0.7081 0.23766 0.48488 0.0
H3439 H 0.70682 0.22295 0.47305 0.0
C3440 C 0.31216 0.21449 0.42974 0.0
C3441 C 0.32688 0.21359 0.43049 0.0
C3442 C 0.30446 0.22088 0.44049 0.0
C3443 C 0.31161 0.22657 0.45231 0.0
C3444 C 0.3264 0.2253 0.45336 0.0
C3445 C 0.33384 0.21882 0.44248 0.0
C3446 C 0.2887 0.222 0.43893 0.0
C3447 C 0.33443 0.23117 0.46578 0.0
C3448 C 0.293 0.25669 0.47006 0.0
C3449 C 0.28642 0.24997 0.48148 0.0
C3450 C 0.3016 0.24929 0.46081 0.0
C3451 C 0.30369 0.23476 0.46297 0.0
C3452 C 0.29759 0.22804 0.47485 0.0
C3453 C 0.28906 0.23575 0.48401 0.0
C3454 C 0.30801 0.25695 0.4484 0.0
C3455 C 0.29955 0.21258 0.47755 0.0
H3456 H 0.30667 0.21065 0.4205 0.0
H3457 H 0.34517 0.21797 0.44331 0.0
H3458 H 0.28339 0.21786 0.44848 0.0
H3459 H 0.2858 0.23318 0.43778 0.0
H3460 H 0.28461 0.21618 0.42965 0.0
H3461 H 0.34575 0.22844 0.46555 0.0
H3462 H 0.33359 0.24276 0.46584 0.0
H3463 H 0.32982 0.22719 0.47575 0.0
H3464 H 0.29111 0.26773 0.46815 0.0
H3465 H 0.28392 0.23049 0.49276 0.0
H3466 H 0.30349 0.25272 0.4385 0.0
H3467 H 0.31952 0.25526 0.44811 0.0
H3468 H 0.30609 0.26841 0.4487 0.0
H3469 H 0.29418 0.20646 0.46916 0.0
H3470 H 0.29521 0.2092 0.48787 0.0
H3471 H 0.31088 0.20995 0.47722 0.0
C3472 C 0.30105 0.81934 0.42372 0.0
C3473 C 0.31457 0.82543 0.42453 0.0
C3474 C 0.29538 0.81152 0.43498 0.0
C3475 C 0.30338 0.80967 0.44744 0.0
C3476 C 0.317 0.81587 0.4484 0.0
C3477 C 0.32244 0.82363 0.43694 0.0
C3478 C 0.28088 0.805 0.43341 0.0
C3479 C 0.32586 0.81421 0.46149 0.0
C3480 C 0.28227 0.79727 0.4794 0.0
C3481 C 0.28385 0.7827 0.47867 0.0
C3482 C 0.28908 0.8063 0.4697 0.0
C3483 C 0.2977 0.80061 0.45908 0.0
C3484 C 0.29994 0.78596 0.45886 0.0
C3485 C 0.293 0.77722 0.46861 0.0
C3486 C 0.28644 0.82184 0.47036 0.0
C3487 C 0.30909 0.7794 0.44783 0.0
H3488 H 0.29495 0.82046 0.41414 0.0
H3489 H 0.33281 0.82842 0.43775 0.0
H3490 H 0.28158 0.79341 0.43407 0.0
H3491 H 0.27402 0.80841 0.44211 0.0
H3492 H 0.27581 0.80784 0.42326 0.0
H3493 H 0.33599 0.82012 0.46082 0.0
H3494 H 0.32001 0.81789 0.47079 0.0
H3495 H 0.32815 0.80295 0.46327 0.0
H3496 H 0.27516 0.80155 0.48709 0.0
H3497 H 0.29436 0.76597 0.46809 0.0
H3498 H 0.28001 0.82505 0.46115 0.0
H3499 H 0.29652 0.82783 0.46985 0.0
H3500 H 0.2808 0.82479 0.48008 0.0
H3501 H 0.3041 0.78063 0.43734 0.0
H3502 H 0.31073 0.76805 0.44983 0.0
H3503 H 0.3195 0.78479 0.44743 0.0
C3504 C 0.60874 0.22711 0.72005 0.0
C3505 C 0.60742 0.21438 0.71278 0.0
C3506 C 0.59742 0.23262 0.72759 0.0
C3507 C 0.58438 0.22524 0.728 0.0
C3508 C 0.58301 0.21228 0.72087 0.0
C3509 C 0.59452 0.20702 0.71335 0.0
C3510 C 0.59942 0.24644 0.73508 0.0
C3511 C 0.56933 0.20404 0.72108 0.0
C3512 C 0.56097 0.23602 0.75834 0.0
C3513 C 0.55217 0.24581 0.75184 0.0
C3514 C 0.5709 0.22856 0.75054 0.0
C3515 C 0.57229 0.2312 0.73593 0.0
C3516 C 0.56295 0.24063 0.72923 0.0
C3517 C 0.55294 0.24777 0.73727 0.0
C3518 C 0.58044 0.21846 0.7581 0.0
C3519 C 0.56413 0.2439 0.71374 0.0
H3520 H 0.6187 0.23278 0.71992 0.0
H3521 H 0.59332 0.19725 0.70767 0.0
H3522 H 0.59168 0.25412 0.7311 0.0
H3523 H 0.59749 0.24502 0.74649 0.0
H3524 H 0.61017 0.25093 0.73366 0.0
H3525 H 0.57005 0.19397 0.71534 0.0
H3526 H 0.5662 0.20178 0.73209 0.0
H3527 H 0.56085 0.21035 0.71624 0.0
H3528 H 0.56046 0.23463 0.76965 0.0
H3529 H 0.5463 0.25553 0.73229 0.0
H3530 H 0.59127 0.22294 0.75856 0.0
H3531 H 0.58095 0.20841 0.75233 0.0
H3532 H 0.57689 0.21625 0.76901 0.0
H3533 H 0.57413 0.24971 0.71173 0.0
H3534 H 0.55527 0.25036 0.70985 0.0
H3535 H 0.56441 0.23408 0.70757 0.0
C3536 C 0.3209 0.10725 0.73352 0.0
C3537 C 0.32628 0.10643 0.71985 0.0
C3538 C 0.31271 0.09629 0.7393 0.0
C3539 C 0.30983 0.08412 0.73126 0.0
C3540 C 0.3154 0.08311 0.71752 0.0
C3541 C 0.3235 0.09429 0.71196 0.0
C3542 C 0.30687 0.09789 0.75393 0.0
C3543 C 0.31265 0.07029 0.70864 0.0
C3544 C 0.29633 0.0525 0.75225 0.0
C3545 C 0.28172 0.05389 0.75078 0.0
C3546 C 0.30568 0.06189 0.74545 0.0
C3547 C 0.30029 0.07291 0.73701 0.0
C3548 C 0.28558 0.07388 0.73494 0.0
C3549 C 0.27651 0.06435 0.7418 0.0
C3550 C 0.3213 0.06042 0.74784 0.0
C3551 C 0.27934 0.0854 0.72601 0.0
H3552 H 0.32282 0.11664 0.73963 0.0
H3553 H 0.32776 0.0935 0.70145 0.0
H3554 H 0.2952 0.09784 0.75348 0.0
H3555 H 0.31003 0.08891 0.76064 0.0
H3556 H 0.31051 0.10776 0.75901 0.0
H3557 H 0.31834 0.07079 0.69847 0.0
H3558 H 0.3159 0.06072 0.71442 0.0
H3559 H 0.30121 0.06919 0.70644 0.0
H3560 H 0.30043 0.04449 0.75922 0.0
H3561 H 0.26523 0.06534 0.74044 0.0
H3562 H 0.32527 0.06933 0.75425 0.0
H3563 H 0.32697 0.0608 0.73768 0.0
H3564 H 0.32389 0.05049 0.75337 0.0
H3565 H 0.2815 0.09571 0.73098 0.0
H3566 H 0.26778 0.0841 0.72465 0.0
H3567 H 0.28429 0.08565 0.71548 0.0
C3568 C 0.4358 0.81808 0.70712 0.0
C3569 C 0.42246 0.81883 0.71336 0.0
C3570 C 0.44716 0.81178 0.71418 0.0
C3571 C 0.44518 0.80607 0.72782 0.0
C3572 C 0.4319 0.80729 0.73438 0.0
C3573 C 0.42074 0.81362 0.72709 0.0
C3574 C 0.46111 0.81071 0.70679 0.0
C3575 C 0.42932 0.80143 0.74893 0.0
C3576 C 0.46639 0.77492 0.7405 0.0
C3577 C 0.47571 0.78109 0.75022 0.0
C3578 C 0.45684 0.78302 0.73275 0.0
C3579 C 0.4565 0.79771 0.73478 0.0
C3580 C 0.46633 0.80411 0.74411 0.0
C3581 C 0.47587 0.79571 0.7517 0.0
C3582 C 0.4467 0.77573 0.72284 0.0
C3583 C 0.46634 0.81972 0.74656 0.0
H3584 H 0.43724 0.82194 0.69648 0.0
H3585 H 0.41057 0.81436 0.73211 0.0
H3586 H 0.46979 0.81441 0.71374 0.0
H3587 H 0.46314 0.79957 0.70429 0.0
H3588 H 0.4614 0.81689 0.69686 0.0
H3589 H 0.41875 0.8041 0.75297 0.0
H3590 H 0.4302 0.78984 0.74877 0.0
H3591 H 0.43741 0.80548 0.75637 0.0
H3592 H 0.46632 0.76362 0.73925 0.0
H3593 H 0.48299 0.8005 0.75927 0.0
H3594 H 0.4471 0.78075 0.7123 0.0
H3595 H 0.4358 0.77675 0.72679 0.0
H3596 H 0.44898 0.76441 0.72171 0.0
H3597 H 0.46649 0.82548 0.7364 0.0
H3598 H 0.47548 0.82325 0.75301 0.0
H3599 H 0.45654 0.82261 0.75207 0.0
C3600 C 0.71726 0.92447 0.71855 0.0
C3601 C 0.70252 0.92467 0.71768 0.0
C3602 C 0.72491 0.9354 0.72507 0.0
C3603 C 0.71768 0.94686 0.73093 0.0
C3604 C 0.70284 0.94736 0.7297 0.0
C3605 C 0.69546 0.9363 0.72309 0.0
C3606 C 0.74072 0.93443 0.72613 0.0
C3607 C 0.69471 0.95937 0.73575 0.0
C3608 C 0.73672 0.96503 0.76117 0.0
C3609 C 0.74294 0.97671 0.7545 0.0
C3610 C 0.72808 0.95555 0.75373 0.0
C3611 C 0.72559 0.95773 0.7392 0.0
C3612 C 0.73131 0.96987 0.73254 0.0
C3613 C 0.73988 0.97925 0.74029 0.0
C3614 C 0.72209 0.94288 0.76133 0.0
C3615 C 0.72892 0.97261 0.71708 0.0
H3616 H 0.72284 0.9155 0.71457 0.0
H3617 H 0.6841 0.93672 0.72226 0.0
H3618 H 0.74576 0.94419 0.72204 0.0
H3619 H 0.74389 0.93332 0.73732 0.0
H3620 H 0.74485 0.92537 0.72021 0.0
H3621 H 0.68333 0.95872 0.73308 0.0
H3622 H 0.69585 0.95938 0.74736 0.0
H3623 H 0.69902 0.96953 0.73182 0.0
H3624 H 0.73897 0.96309 0.7722 0.0
H3625 H 0.74476 0.98819 0.73505 0.0
H3626 H 0.72672 0.93321 0.75701 0.0
H3627 H 0.71055 0.94214 0.75966 0.0
H3628 H 0.72425 0.94318 0.77282 0.0
H3629 H 0.73431 0.96451 0.71085 0.0
H3630 H 0.73296 0.9831 0.71376 0.0
H3631 H 0.71754 0.97185 0.7145 0.0
C3632 C 0.59267 0.82242 0.32809 0.0
C3633 C 0.60453 0.81439 0.33136 0.0
C3634 C 0.58157 0.81687 0.31988 0.0
C3635 C 0.58238 0.803 0.31471 0.0
C3636 C 0.59426 0.79481 0.31812 0.0
C3637 C 0.60514 0.80058 0.32639 0.0
C3638 C 0.56907 0.82592 0.31656 0.0
C3639 C 0.59565 0.78004 0.31272 0.0
C3640 C 0.55059 0.78245 0.30068 0.0
C3641 C 0.55263 0.78358 0.28612 0.0
C3642 C 0.55984 0.78921 0.31017 0.0
C3643 C 0.57136 0.79728 0.30497 0.0
C3644 C 0.57301 0.79901 0.29028 0.0
C3645 C 0.56362 0.79219 0.28107 0.0
C3646 C 0.55766 0.7872 0.32575 0.0
C3647 C 0.58508 0.80753 0.28423 0.0
H3648 H 0.59203 0.83303 0.33202 0.0
H3649 H 0.61433 0.79435 0.3287 0.0
H3650 H 0.56849 0.82791 0.30507 0.0
H3651 H 0.55918 0.82039 0.3196 0.0
H3652 H 0.56962 0.83616 0.32205 0.0
H3653 H 0.60524 0.77484 0.31681 0.0
H3654 H 0.58631 0.77362 0.31574 0.0
H3655 H 0.59611 0.7802 0.30106 0.0
H3656 H 0.54215 0.77578 0.30465 0.0
H3657 H 0.56511 0.7933 0.26983 0.0
H3658 H 0.5581 0.79745 0.3312 0.0
H3659 H 0.56625 0.78071 0.33015 0.0
H3660 H 0.54744 0.78193 0.32813 0.0
H3661 H 0.58541 0.81815 0.28892 0.0
H3662 H 0.58432 0.80863 0.27262 0.0
H3663 H 0.59518 0.80242 0.28687 0.0
C3664 C 0.70724 0.0927 0.32623 0.0
C3665 C 0.71546 0.10477 0.32888 0.0
C3666 C 0.71258 0.08148 0.31841 0.0
C3667 C 0.72643 0.08235 0.313 0.0
C3668 C 0.73479 0.09447 0.31571 0.0
C3669 C 0.72922 0.10548 0.3236 0.0
C3670 C 0.70335 0.06874 0.3158 0.0
C3671 C 0.74955 0.09595 0.31004 0.0
C3672 C 0.74683 0.05055 0.30054 0.0
C3673 C 0.74573 0.05198 0.2859 0.0
C3674 C 0.74008 0.05998 0.30957 0.0
C3675 C 0.73203 0.07106 0.30381 0.0
C3676 C 0.73027 0.07203 0.28905 0.0
C3677 C 0.73711 0.0625 0.28032 0.0
C3678 C 0.74215 0.05851 0.32524 0.0
C3679 C 0.72175 0.08359 0.28241 0.0
H3680 H 0.69667 0.09196 0.3304 0.0
H3681 H 0.73559 0.11483 0.32539 0.0
H3682 H 0.70137 0.06759 0.30436 0.0
H3683 H 0.70877 0.05913 0.31942 0.0
H3684 H 0.69307 0.06937 0.32125 0.0
H3685 H 0.75487 0.10579 0.31352 0.0
H3686 H 0.75597 0.08693 0.31351 0.0
H3687 H 0.74927 0.09586 0.29838 0.0
H3688 H 0.75352 0.04249 0.30492 0.0
H3689 H 0.73606 0.06354 0.26901 0.0
H3690 H 0.7319 0.05899 0.33072 0.0
H3691 H 0.74877 0.06736 0.32912 0.0
H3692 H 0.74735 0.04853 0.32813 0.0
H3693 H 0.71116 0.08397 0.28723 0.0
H3694 H 0.72048 0.08223 0.27088 0.0
H3695 H 0.72702 0.09386 0.28434 0.0
C3696 C 0.42407 0.21044 0.30988 0.0
C3697 C 0.42369 0.20624 0.32405 0.0
C3698 C 0.43528 0.2186 0.30455 0.0
C3699 C 0.44649 0.22272 0.31356 0.0
C3700 C 0.44624 0.21849 0.32787 0.0
C3701 C 0.43483 0.21035 0.33295 0.0
C3702 C 0.43501 0.22296 0.28926 0.0
C3703 C 0.45799 0.2226 0.3378 0.0
C3704 C 0.47961 0.23454 0.29409 0.0
C3705 C 0.47769 0.24908 0.29321 0.0
C3706 C 0.46997 0.22585 0.3014 0.0
C3707 C 0.45814 0.23185 0.30797 0.0
C3708 C 0.45672 0.24661 0.30791 0.0
C3709 C 0.4665 0.25502 0.30056 0.0
C3710 C 0.47196 0.21018 0.30129 0.0
C3711 C 0.44436 0.2535 0.31483 0.0
H3712 H 0.41543 0.20753 0.30296 0.0
H3713 H 0.43472 0.20704 0.34387 0.0
H3714 H 0.43491 0.23457 0.28841 0.0
H3715 H 0.44465 0.21935 0.28393 0.0
H3716 H 0.42569 0.21866 0.28357 0.0
H3717 H 0.45641 0.21822 0.34854 0.0
H3718 H 0.46819 0.21889 0.33372 0.0
H3719 H 0.45877 0.2342 0.33852 0.0
H3720 H 0.48818 0.22986 0.28838 0.0
H3721 H 0.46505 0.26627 0.30006 0.0
H3722 H 0.46387 0.20525 0.2944 0.0
H3723 H 0.47056 0.20573 0.31199 0.0
H3724 H 0.48252 0.20731 0.29737 0.0
H3725 H 0.43458 0.25086 0.30894 0.0
H3726 H 0.44557 0.2651 0.31515 0.0
H3727 H 0.44302 0.24951 0.32573 0.0
C3728 C 0.32286 0.93619 0.32522 0.0
C3729 C 0.32488 0.92409 0.31717 0.0
C3730 C 0.31505 0.94754 0.31994 0.0
C3731 C 0.309 0.94677 0.30631 0.0
C3732 C 0.31109 0.93462 0.29812 0.0
C3733 C 0.31898 0.92348 0.30362 0.0
C3734 C 0.31315 0.9603 0.329 0.0
C3735 C 0.30472 0.93325 0.2836 0.0
C3736 C 0.27623 0.96708 0.29647 0.0
C3737 C 0.28162 0.97753 0.28744 0.0
C3738 C 0.28509 0.95742 0.30316 0.0
C3739 C 0.29978 0.9582 0.30084 0.0
C3740 C 0.30539 0.96922 0.29237 0.0
C3741 C 0.29624 0.97877 0.28577 0.0
C3742 C 0.27861 0.94594 0.31213 0.0
C3743 C 0.32099 0.97049 0.28971 0.0
H3744 H 0.32751 0.93684 0.33562 0.0
H3745 H 0.32028 0.91413 0.29737 0.0
H3746 H 0.31671 0.96987 0.32326 0.0
H3747 H 0.30183 0.9616 0.33138 0.0
H3748 H 0.31907 0.95958 0.33907 0.0
H3749 H 0.30775 0.92337 0.27837 0.0
H3750 H 0.29307 0.9335 0.28429 0.0
H3751 H 0.30809 0.94223 0.2769 0.0
H3752 H 0.26495 0.96618 0.29796 0.0
H3753 H 0.30047 0.98676 0.27876 0.0
H3754 H 0.28391 0.94548 0.32253 0.0
H3755 H 0.2801 0.93565 0.307 0.0
H3756 H 0.26717 0.94744 0.31377 0.0
H3757 H 0.32694 0.96991 0.29975 0.0
H3758 H 0.32384 0.98045 0.28424 0.0
H3759 H 0.32439 0.96161 0.28312 0.0
C3760 C 0.71976 0.108 0.71777 0.0
C3761 C 0.70542 0.10617 0.71456 0.0
C3762 C 0.7276 0.09716 0.72397 0.0
C3763 C 0.72097 0.0841 0.72709 0.0
C3764 C 0.70665 0.08198 0.72336 0.0
C3765 C 0.69907 0.093 0.71716 0.0
C3766 C 0.74283 0.09991 0.72776 0.0
C3767 C 0.69918 0.06823 0.72643 0.0
C3768 C 0.74485 0.05358 0.73716 0.0
C3769 C 0.74498 0.05454 0.75186 0.0
C3770 C 0.73679 0.06287 0.7289 0.0
C3771 C 0.72863 0.07327 0.73552 0.0
C3772 C 0.72828 0.0738 0.75039 0.0
C3773 C 0.73644 0.06447 0.75833 0.0
C3774 C 0.73743 0.06192 0.7131 0.0
C3775 C 0.71967 0.08457 0.75794 0.0
H3776 H 0.72477 0.11813 0.71596 0.0
H3777 H 0.68807 0.09136 0.7145 0.0
H3778 H 0.74404 0.09998 0.73937 0.0
H3779 H 0.74951 0.09141 0.7237 0.0
H3780 H 0.74678 0.1101 0.72353 0.0
H3781 H 0.68848 0.06776 0.72168 0.0
H3782 H 0.70537 0.05935 0.72242 0.0
H3783 H 0.69819 0.06679 0.73797 0.0
H3784 H 0.7515 0.04599 0.73211 0.0
H3785 H 0.7364 0.06515 0.7697 0.0
H3786 H 0.7428 0.07142 0.70881 0.0
H3787 H 0.72667 0.06157 0.70855 0.0
H3788 H 0.74321 0.05253 0.70958 0.0
H3789 H 0.72371 0.09526 0.75539 0.0
H3790 H 0.71997 0.08314 0.76954 0.0
H3791 H 0.70855 0.08399 0.75437 0.0
C3792 C 0.69365 0.93523 0.31434 0.0
C3793 C 0.70044 0.92366 0.32041 0.0
C3794 C 0.70132 0.94603 0.30758 0.0
C3795 C 0.71617 0.94531 0.30689 0.0
C3796 C 0.72312 0.93392 0.31341 0.0
C3797 C 0.71519 0.92325 0.32006 0.0
C3798 C 0.6935 0.95799 0.30081 0.0
C3799 C 0.73894 0.93273 0.31293 0.0
C3800 C 0.73607 0.96249 0.27664 0.0
C3801 C 0.74224 0.97427 0.28308 0.0
C3802 C 0.72719 0.95328 0.28414 0.0
C3803 C 0.7244 0.95586 0.2985 0.0
C3804 C 0.73011 0.96808 0.30491 0.0
C3805 C 0.73893 0.97717 0.2971 0.0
C3806 C 0.72122 0.94049 0.27683 0.0
C3807 C 0.7274 0.97122 0.32018 0.0
H3808 H 0.68228 0.9358 0.31476 0.0
H3809 H 0.72056 0.91432 0.32455 0.0
H3810 H 0.69785 0.96819 0.3045 0.0
H3811 H 0.6949 0.95769 0.28925 0.0
H3812 H 0.68205 0.95755 0.30312 0.0
H3813 H 0.74281 0.92378 0.31933 0.0
H3814 H 0.74235 0.9313 0.3019 0.0
H3815 H 0.74401 0.94253 0.31681 0.0
H3816 H 0.73848 0.96029 0.26575 0.0
H3817 H 0.74376 0.98621 0.30215 0.0
H3818 H 0.70962 0.93995 0.27809 0.0
H3819 H 0.72558 0.93087 0.28169 0.0
H3820 H 0.72368 0.94045 0.26542 0.0
H3821 H 0.71595 0.97071 0.32238 0.0
H3822 H 0.73154 0.98172 0.32325 0.0
H3823 H 0.7325 0.96317 0.32688 0.0
C3824 C 0.60777 0.21519 0.31861 0.0
C3825 C 0.60671 0.20056 0.3202 0.0
C3826 C 0.59689 0.22289 0.31229 0.0
C3827 C 0.58459 0.21586 0.30739 0.0
C3828 C 0.58326 0.20116 0.30935 0.0
C3829 C 0.5943 0.19371 0.31572 0.0
C3830 C 0.59878 0.23855 0.31043 0.0
C3831 C 0.57033 0.19324 0.30434 0.0
C3832 C 0.55304 0.23887 0.29884 0.0
C3833 C 0.55482 0.24125 0.28439 0.0
C3834 C 0.56234 0.23023 0.30643 0.0
C3835 C 0.57364 0.22378 0.29938 0.0
C3836 C 0.57499 0.22557 0.28466 0.0
C3837 C 0.5656 0.23428 0.27737 0.0
C3838 C 0.5605 0.22858 0.3221 0.0
C3839 C 0.58674 0.2188 0.27665 0.0
H3840 H 0.61734 0.22059 0.32186 0.0
H3841 H 0.59324 0.18246 0.3171 0.0
H3842 H 0.59928 0.24118 0.29907 0.0
H3843 H 0.58963 0.24409 0.31483 0.0
H3844 H 0.60852 0.24258 0.31561 0.0
H3845 H 0.57047 0.18201 0.30749 0.0
H3846 H 0.5607 0.19805 0.30862 0.0
H3847 H 0.5696 0.1939 0.29271 0.0
H3848 H 0.54481 0.24432 0.30434 0.0
H3849 H 0.56694 0.23598 0.26618 0.0
H3850 H 0.56934 0.23393 0.32763 0.0
H3851 H 0.56074 0.21734 0.32515 0.0
H3852 H 0.55047 0.2331 0.32578 0.0
H3853 H 0.59702 0.22322 0.28019 0.0
H3854 H 0.58577 0.22045 0.26512 0.0
H3855 H 0.58686 0.20736 0.27883 0.0
C3856 C 0.30032 0.10863 0.32599 0.0
C3857 C 0.31415 0.10802 0.33119 0.0
C3858 C 0.29448 0.09769 0.31791 0.0
C3859 C 0.30261 0.08575 0.31492 0.0
C3860 C 0.31654 0.08497 0.32025 0.0
C3861 C 0.32215 0.09612 0.32827 0.0
C3862 C 0.27965 0.09907 0.31234 0.0
C3863 C 0.32554 0.07241 0.31736 0.0
C3864 C 0.28156 0.05385 0.30205 0.0
C3865 C 0.28247 0.05551 0.28743 0.0
C3866 C 0.28858 0.06323 0.3112 0.0
C3867 C 0.29671 0.07452 0.30557 0.0
C3868 C 0.29825 0.07575 0.29082 0.0
C3869 C 0.29116 0.06625 0.28197 0.0
C3870 C 0.28673 0.06148 0.32685 0.0
C3871 C 0.30683 0.08754 0.28432 0.0
H3872 H 0.29411 0.11784 0.328 0.0
H3873 H 0.33278 0.09545 0.33237 0.0
H3874 H 0.27975 0.09917 0.30068 0.0
H3875 H 0.27314 0.0899 0.3157 0.0
H3876 H 0.27454 0.10878 0.31601 0.0
H3877 H 0.33592 0.07311 0.32275 0.0
H3878 H 0.32005 0.06267 0.32086 0.0
H3879 H 0.32731 0.07148 0.30589 0.0
H3880 H 0.27483 0.04563 0.30634 0.0
H3881 H 0.29206 0.06747 0.27067 0.0
H3882 H 0.28032 0.07019 0.33092 0.0
H3883 H 0.29708 0.06201 0.33228 0.0
H3884 H 0.28143 0.05139 0.32961 0.0
H3885 H 0.30175 0.0977 0.28647 0.0
H3886 H 0.30788 0.08639 0.27276 0.0
H3887 H 0.3175 0.08799 0.28908 0.0
C3888 C 0.43318 0.82669 0.321 0.0
C3889 C 0.42208 0.81786 0.32543 0.0
C3890 C 0.44433 0.82151 0.3129 0.0
C3891 C 0.44437 0.80718 0.30904 0.0
C3892 C 0.43321 0.79823 0.31351 0.0
C3893 C 0.42225 0.80366 0.32162 0.0
C3894 C 0.45604 0.83139 0.30842 0.0
C3895 C 0.43272 0.78292 0.30954 0.0
C3896 C 0.4633 0.79412 0.27663 0.0
C3897 C 0.47474 0.78696 0.28254 0.0
C3898 C 0.45377 0.80136 0.28507 0.0
C3899 C 0.45568 0.80152 0.29984 0.0
C3900 C 0.46771 0.79509 0.30579 0.0
C3901 C 0.47711 0.78789 0.29707 0.0
C3902 C 0.44118 0.80812 0.27821 0.0
C3903 C 0.47022 0.79509 0.32146 0.0
H3904 H 0.43323 0.83763 0.324 0.0
H3905 H 0.41364 0.79678 0.32478 0.0
H3906 H 0.46633 0.82734 0.31206 0.0
H3907 H 0.45642 0.83202 0.29678 0.0
H3908 H 0.45471 0.84213 0.31262 0.0
H3909 H 0.42351 0.77727 0.31415 0.0
H3910 H 0.4322 0.78191 0.29794 0.0
H3911 H 0.44245 0.77769 0.31315 0.0
H3912 H 0.46151 0.7936 0.26538 0.0
H3913 H 0.48587 0.78234 0.30172 0.0
H3914 H 0.44008 0.81905 0.28192 0.0
H3915 H 0.43147 0.80227 0.28123 0.0
H3916 H 0.44193 0.80824 0.26656 0.0
H3917 H 0.46907 0.80581 0.32573 0.0
H3918 H 0.48084 0.7912 0.32428 0.0
H3919 H 0.46223 0.78826 0.32666 0.0
C3920 C 0.30627 0.92171 0.72064 0.0
C3921 C 0.32018 0.92344 0.71597 0.0
C3922 C 0.29905 0.9328 0.72692 0.0
C3923 C 0.30587 0.946 0.72861 0.0
C3924 C 0.31971 0.94799 0.72341 0.0
C3925 C 0.32669 0.9367 0.71717 0.0
C3926 C 0.28429 0.9302 0.73224 0.0
C3927 C 0.32737 0.96186 0.725 0.0
C3928 C 0.28238 0.97648 0.73881 0.0
C3929 C 0.28355 0.97616 0.75351 0.0
C3930 C 0.28997 0.96707 0.73046 0.0
C3931 C 0.29897 0.95719 0.73698 0.0
C3932 C 0.30068 0.95736 0.75177 0.0
C3933 C 0.29296 0.9668 0.75982 0.0
C3934 C 0.28787 0.96727 0.71473 0.0
C3935 C 0.31023 0.94714 0.7592 0.0
H3936 H 0.30105 0.9116 0.71955 0.0
H3937 H 0.33746 0.93814 0.71371 0.0
H3938 H 0.2842 0.93094 0.74387 0.0
H3939 H 0.27712 0.93834 0.72808 0.0
H3940 H 0.28009 0.91972 0.7292 0.0
H3941 H 0.33744 0.96219 0.71912 0.0
H3942 H 0.32067 0.97057 0.72125 0.0
H3943 H 0.3297 0.96374 0.73628 0.0
H3944 H 0.27506 0.98364 0.7339 0.0
H3945 H 0.294 0.96662 0.77118 0.0
H3946 H 0.28221 0.95756 0.71146 0.0
H3947 H 0.29818 0.96746 0.70931 0.0
H3948 H 0.2817 0.97645 0.71116 0.0
H3949 H 0.30609 0.9363 0.7578 0.0
H3950 H 0.31114 0.94927 0.77064 0.0
H3951 H 0.32091 0.9476 0.75455 0.0
C3952 C 0.59462 0.82301 0.71142 0.0
C3953 C 0.60656 0.81501 0.70861 0.0
C3954 C 0.5834 0.81747 0.71945 0.0
C3955 C 0.58418 0.80364 0.7249 0.0
C3956 C 0.59617 0.79551 0.72203 0.0
C3957 C 0.60717 0.80127 0.71393 0.0
C3958 C 0.57079 0.82646 0.72221 0.0
C3959 C 0.59753 0.78077 0.72774 0.0
C3960 C 0.56448 0.79245 0.75786 0.0
C3961 C 0.55376 0.78372 0.75242 0.0
C3962 C 0.57404 0.79947 0.74899 0.0
C3963 C 0.57288 0.79782 0.73425 0.0
C3964 C 0.5616 0.78966 0.72864 0.0
C3965 C 0.55217 0.7827 0.7378 0.0
C3966 C 0.58582 0.80808 0.75546 0.0
C3967 C 0.55993 0.78771 0.713 0.0
H3968 H 0.59397 0.83357 0.70722 0.0
H3969 H 0.61643 0.79507 0.712 0.0
H3970 H 0.56103 0.82095 0.71873 0.0
H3971 H 0.5698 0.82832 0.73366 0.0
H3972 H 0.5715 0.83677 0.71674 0.0
H3973 H 0.6073 0.77565 0.72416 0.0
H3974 H 0.59757 0.78096 0.7394 0.0
H3975 H 0.58836 0.77425 0.7244 0.0
H3976 H 0.56564 0.79344 0.76915 0.0
H3977 H 0.54396 0.77594 0.73353 0.0
H3978 H 0.58629 0.81869 0.75061 0.0
H3979 H 0.59604 0.80301 0.7534 0.0
H3980 H 0.58461 0.80922 0.767 0.0
H3981 H 0.56048 0.79799 0.70748 0.0
H3982 H 0.54982 0.7824 0.71024 0.0
H3983 H 0.56868 0.78129 0.70902 0.0
C3984 C 0.42116 0.22988 0.71144 0.0
C3985 C 0.4219 0.21602 0.70663 0.0
C3986 C 0.43206 0.23589 0.71952 0.0
C3987 C 0.44408 0.2279 0.72289 0.0
C3988 C 0.44501 0.21397 0.7179 0.0
C3989 C 0.43389 0.20818 0.70988 0.0
C3990 C 0.43054 0.25072 0.72474 0.0
C3991 C 0.45767 0.20513 0.72119 0.0
C3992 C 0.47592 0.24895 0.73608 0.0
C3993 C 0.47419 0.24797 0.75069 0.0
C3994 C 0.46654 0.24201 0.72685 0.0
C3995 C 0.45518 0.23391 0.73237 0.0
C3996 C 0.45383 0.23237 0.74711 0.0
C3997 C 0.46335 0.23936 0.75605 0.0
C3998 C 0.46841 0.24383 0.7112 0.0
C3999 C 0.44194 0.22383 0.75348 0.0
H4000 H 0.41186 0.23595 0.70915 0.0
H4001 H 0.43463 0.19753 0.70608 0.0
H4002 H 0.43027 0.25071 0.7364 0.0
H4003 H 0.43975 0.25722 0.72148 0.0
H4004 H 0.42082 0.25572 0.72072 0.0
H4005 H 0.45715 0.19479 0.7159 0.0
H4006 H 0.46744 0.21072 0.71788 0.0
H4007 H 0.45846 0.20336 0.7327 0.0
H4008 H 0.48423 0.25562 0.73187 0.0
H4009 H 0.4621 0.23836 0.76734 0.0
H4010 H 0.45964 0.2501 0.70686 0.0
H4011 H 0.46805 0.23349 0.70592 0.0
H4012 H 0.4785 0.24922 0.70857 0.0
H4013 H 0.43175 0.22878 0.75091 0.0
H4014 H 0.44289 0.22294 0.76509 0.0
H4015 H 0.44166 0.21312 0.74898 0.0
C4016 C 0.70313 0.71271 0.09982 0.0
C4017 C 0.71196 0.70755 0.11049 0.0
C4018 C 0.70856 0.72087 0.08864 0.0
C4019 C 0.72316 0.72404 0.08813 0.0
C4020 C 0.73211 0.71884 0.09886 0.0
C4021 C 0.72642 0.7107 0.10986 0.0
C4022 C 0.69867 0.72616 0.0774 0.0
C4023 C 0.74772 0.72205 0.09884 0.0
C4024 C 0.74255 0.73592 0.05502 0.0
C4025 C 0.74464 0.75025 0.05764 0.0
C4026 C 0.73489 0.72734 0.06446 0.0
C4027 C 0.72916 0.73325 0.07679 0.0
C4028 C 0.73045 0.74789 0.07895 0.0
C4029 C 0.73814 0.75619 0.06937 0.0
C4030 C 0.73368 0.71181 0.06168 0.0
C4031 C 0.72447 0.7547 0.09186 0.0
H4032 H 0.69197 0.71022 0.10013 0.0
H4033 H 0.73332 0.70697 0.11814 0.0
H4034 H 0.69885 0.73779 0.07722 0.0
H4035 H 0.70218 0.72262 0.06692 0.0
H4036 H 0.68766 0.72246 0.07907 0.0
H4037 H 0.7533 0.71694 0.10775 0.0
H4038 H 0.75245 0.71849 0.08887 0.0
H4039 H 0.74954 0.73355 0.09951 0.0
H4040 H 0.7476 0.73125 0.04602 0.0
H4041 H 0.73957 0.76731 0.07136 0.0
H4042 H 0.72269 0.70805 0.06318 0.0
H4043 H 0.74037 0.70605 0.0693 0.0
H4044 H 0.73707 0.70912 0.05088 0.0
H4045 H 0.71331 0.75147 0.09332 0.0
H4046 H 0.7251 0.76633 0.09128 0.0
H4047 H 0.73037 0.75118 0.10131 0.0
C4048 C 0.30018 0.70609 0.11226 0.0
C4049 C 0.31401 0.70118 0.11144 0.0
C4050 C 0.29442 0.71448 0.10156 0.0
C4051 C 0.30265 0.71809 0.08966 0.0
C4052 C 0.31653 0.713 0.08863 0.0
C4053 C 0.32207 0.70465 0.09955 0.0
C4054 C 0.27963 0.71979 0.10317 0.0
C4055 C 0.32562 0.71653 0.0761 0.0
C4056 C 0.28222 0.73248 0.05816 0.0
C4057 C 0.28347 0.74698 0.06033 0.0
C4058 C 0.28886 0.7229 0.06729 0.0
C4059 C 0.29694 0.72795 0.07882 0.0
C4060 C 0.29876 0.74259 0.08062 0.0
C4061 C 0.29206 0.75189 0.07136 0.0
C4062 C 0.28674 0.70738 0.06494 0.0
C4063 C 0.30731 0.74848 0.0927 0.0
H4064 H 0.29393 0.70363 0.12147 0.0
H4065 H 0.33269 0.70077 0.09874 0.0
H4066 H 0.27984 0.73141 0.10379 0.0
H4067 H 0.27317 0.7169 0.09386 0.0
H4068 H 0.2744 0.71554 0.11273 0.0
H4069 H 0.33588 0.7111 0.07649 0.0
H4070 H 0.32006 0.7136 0.06624 0.0
H4071 H 0.32765 0.72801 0.07565 0.0
H4072 H 0.27557 0.72862 0.0497 0.0
H4073 H 0.29327 0.76309 0.07295 0.0
H4074 H 0.28024 0.70286 0.07355 0.0
H4075 H 0.297 0.70197 0.06519 0.0
H4076 H 0.28142 0.70513 0.05477 0.0
H4077 H 0.30216 0.74566 0.1028 0.0
H4078 H 0.30844 0.76008 0.09211 0.0
H4079 H 0.31795 0.74387 0.09288 0.0
C4080 C 0.32617 0.31831 0.1008 0.0
C4081 C 0.31739 0.323 0.11158 0.0
C4082 C 0.3207 0.31059 0.08938 0.0
C4083 C 0.30609 0.30747 0.0887 0.0
C4084 C 0.29715 0.31245 0.09939 0.0
C4085 C 0.30288 0.32014 0.11064 0.0
C4086 C 0.33059 0.30547 0.07823 0.0
C4087 C 0.2815 0.30943 0.09908 0.0
C4088 C 0.28687 0.29579 0.05538 0.0
C4089 C 0.28478 0.28145 0.05809 0.0
C4090 C 0.29446 0.30433 0.06488 0.0
C4091 C 0.30012 0.29835 0.07734 0.0
C4092 C 0.29882 0.2837 0.0796 0.0
C4093 C 0.29118 0.27545 0.06997 0.0
C4094 C 0.29567 0.31988 0.06202 0.0
C4095 C 0.30476 0.27682 0.09264 0.0
H4096 H 0.3374 0.32038 0.10145 0.0
H4097 H 0.29596 0.32395 0.11874 0.0
H4098 H 0.33085 0.29385 0.07845 0.0
H4099 H 0.32679 0.30865 0.06765 0.0
H4100 H 0.34148 0.3096 0.07972 0.0
H4101 H 0.27592 0.31449 0.10789 0.0
H4102 H 0.2769 0.31317 0.08902 0.0
H4103 H 0.27955 0.29794 0.09971 0.0
H4104 H 0.28188 0.30049 0.04626 0.0
H4105 H 0.28972 0.26433 0.07202 0.0
H4106 H 0.30664 0.32364 0.06369 0.0
H4107 H 0.28891 0.32558 0.06948 0.0
H4108 H 0.29235 0.32262 0.05113 0.0
H4109 H 0.31592 0.28002 0.0942 0.0
H4110 H 0.3041 0.2652 0.09215 0.0
H4111 H 0.29884 0.28032 0.10198 0.0
C4112 C 0.71804 0.33528 0.09706 0.0
C4113 C 0.71362 0.32828 0.10935 0.0
C4114 C 0.72466 0.32808 0.0861 0.0
C4115 C 0.72692 0.31348 0.08738 0.0
C4116 C 0.72207 0.30626 0.09953 0.0
C4117 C 0.71551 0.31373 0.11034 0.0
C4118 C 0.72962 0.33618 0.07333 0.0
C4119 C 0.72424 0.2907 0.10135 0.0
C4120 C 0.73631 0.29088 0.05583 0.0
C4121 C 0.75081 0.28912 0.05787 0.0
C4122 C 0.72843 0.29915 0.06506 0.0
C4123 C 0.73522 0.30589 0.07655 0.0
C4124 C 0.74998 0.30471 0.07817 0.0
C4125 C 0.75756 0.29635 0.06886 0.0
C4126 C 0.71273 0.30013 0.06293 0.0
C4127 C 0.75772 0.31182 0.09013 0.0
H4128 H 0.71643 0.34647 0.09604 0.0
H4129 H 0.7123 0.3082 0.11981 0.0
H4130 H 0.74128 0.33603 0.07283 0.0
H4131 H 0.72555 0.33118 0.0636 0.0
H4132 H 0.72621 0.34728 0.07347 0.0
H4133 H 0.71904 0.28646 0.11094 0.0
H4134 H 0.72006 0.28497 0.09208 0.0
H4135 H 0.73566 0.28854 0.10209 0.0
H4136 H 0.73102 0.28522 0.04743 0.0
H4137 H 0.76879 0.29512 0.0704 0.0
H4138 H 0.70943 0.31124 0.06317 0.0
H4139 H 0.70723 0.29457 0.07163 0.0
H4140 H 0.70924 0.29544 0.05282 0.0
H4141 H 0.7553 0.32316 0.09028 0.0
H4142 H 0.76931 0.31063 0.08939 0.0
H4143 H 0.75417 0.30726 0.10029 0.0
C4144 C 0.72574 0.32243 0.92927 0.0
C4145 C 0.71127 0.32504 0.92837 0.0
C4146 C 0.73132 0.31408 0.9401 0.0
C4147 C 0.72223 0.30814 0.95036 0.0
C4148 C 0.70761 0.31076 0.94957 0.0
C4149 C 0.70229 0.31914 0.93856 0.0
C4150 C 0.74696 0.31147 0.94044 0.0
C4151 C 0.69759 0.30467 0.96032 0.0
C4152 C 0.73738 0.2761 0.96853 0.0
C4153 C 0.74362 0.28198 0.98057 0.0
C4154 C 0.7297 0.28434 0.959 0.0
C4155 C 0.72814 0.29885 0.96158 0.0
C4156 C 0.73358 0.30464 0.97421 0.0
C4157 C 0.74125 0.29613 0.98357 0.0
C4158 C 0.72402 0.27768 0.94574 0.0
C4159 C 0.73207 0.32002 0.97743 0.0
H4160 H 0.73274 0.32674 0.92134 0.0
H4161 H 0.69112 0.32121 0.93803 0.0
H4162 H 0.75147 0.31491 0.95065 0.0
H4163 H 0.74892 0.30007 0.93948 0.0
H4164 H 0.75262 0.31707 0.93185 0.0
H4165 H 0.68656 0.30793 0.95843 0.0
H4166 H 0.69796 0.29305 0.96014 0.0
H4167 H 0.70082 0.30803 0.97102 0.0
H4168 H 0.739 0.26512 0.96625 0.0
H4169 H 0.7461 0.30076 0.99281 0.0
H4170 H 0.73005 0.2817 0.93657 0.0
H4171 H 0.71286 0.28051 0.94405 0.0
H4172 H 0.72479 0.26607 0.94601 0.0
H4173 H 0.7388 0.32629 0.97018 0.0
H4174 H 0.73523 0.32251 0.9884 0.0
H4175 H 0.72105 0.32333 0.97573 0.0
C4176 C 0.71301 0.70366 0.93763 0.0
C4177 C 0.70718 0.71253 0.92737 0.0
C4178 C 0.72128 0.70909 0.94873 0.0
C4179 C 0.72388 0.72374 0.94955 0.0
C4180 C 0.71802 0.73272 0.93922 0.0
C4181 C 0.70977 0.72702 0.92831 0.0
C4182 C 0.72728 0.69916 0.95954 0.0
C4183 C 0.7206 0.74838 0.93958 0.0
C4184 C 0.73572 0.74268 0.98288 0.0
C4185 C 0.74995 0.74547 0.97997 0.0
C4186 C 0.72724 0.73491 0.97345 0.0
C4187 C 0.73313 0.72979 0.96084 0.0
C4188 C 0.7477 0.73178 0.95837 0.0
C4189 C 0.75591 0.73955 0.96795 0.0
C4190 C 0.71178 0.73295 0.97657 0.0
C4191 C 0.75448 0.72646 0.94515 0.0
H4192 H 0.71096 0.69246 0.93708 0.0
H4193 H 0.70552 0.73396 0.92033 0.0
H4194 H 0.73894 0.69987 0.95945 0.0
H4195 H 0.72382 0.70219 0.97021 0.0
H4196 H 0.72403 0.6881 0.95763 0.0
H4197 H 0.71505 0.75395 0.93095 0.0
H4198 H 0.71706 0.75266 0.94976 0.0
H4199 H 0.73204 0.75069 0.9387 0.0
H4200 H 0.73102 0.74727 0.9921 0.0
H4201 H 0.76695 0.74151 0.96573 0.0
H4202 H 0.70846 0.72188 0.97486 0.0
H4203 H 0.70554 0.73955 0.96927 0.0
H4204 H 0.7092 0.73591 0.98753 0.0
H4205 H 0.75167 0.71527 0.94346 0.0
H4206 H 0.76613 0.72757 0.94548 0.0
H4207 H 0.7505 0.73244 0.93595 0.0
C4208 C 0.33294 0.71867 0.94197 0.0
C4209 C 0.32527 0.71426 0.93009 0.0
C4210 C 0.32634 0.72546 0.95321 0.0
C4211 C 0.3117 0.72797 0.9526 0.0
C4212 C 0.30383 0.72319 0.94083 0.0
C4213 C 0.31068 0.71639 0.92977 0.0
C4214 C 0.33513 0.73036 0.96555 0.0
C4215 C 0.28819 0.72561 0.93972 0.0
C4216 C 0.29019 0.73797 0.98477 0.0
C4217 C 0.28859 0.75243 0.98263 0.0
C4218 C 0.29817 0.72991 0.97542 0.0
C4219 C 0.30471 0.73648 0.96368 0.0
C4220 C 0.30375 0.7512 0.96196 0.0
C4221 C 0.29575 0.75896 0.97144 0.0
C4222 C 0.29901 0.71428 0.97771 0.0
C4223 C 0.31061 0.75869 0.9497 0.0
H4224 H 0.34423 0.71724 0.9423 0.0
H4225 H 0.30458 0.71281 0.9208 0.0
H4226 H 0.33546 0.74199 0.96575 0.0
H4227 H 0.33033 0.72673 0.97556 0.0
H4228 H 0.3461 0.72651 0.96507 0.0
H4229 H 0.28346 0.72062 0.93026 0.0
H4230 H 0.28279 0.72138 0.94918 0.0
H4231 H 0.28617 0.73703 0.93925 0.0
H4232 H 0.28463 0.73285 0.99334 0.0
H4233 H 0.2947 0.77017 0.96983 0.0
H4234 H 0.31007 0.71081 0.97701 0.0
H4235 H 0.29297 0.70878 0.96933 0.0
H4236 H 0.29469 0.71099 0.98807 0.0
H4237 H 0.32191 0.75602 0.94912 0.0
H4238 H 0.30972 0.77027 0.95041 0.0
H4239 H 0.30558 0.75519 0.93974 0.0
C4240 C 0.30123 0.32001 0.92576 0.0
C4241 C 0.31496 0.32561 0.92654 0.0
C4242 C 0.29544 0.31211 0.93689 0.0
C4243 C 0.30353 0.30969 0.94919 0.0
C4244 C 0.31735 0.31539 0.95013 0.0
C4245 C 0.32291 0.32324 0.93879 0.0
C4246 C 0.28072 0.30613 0.93535 0.0
C4247 C 0.32631 0.3131 0.96307 0.0
C4248 C 0.28241 0.29725 0.98109 0.0
C4249 C 0.28352 0.28264 0.98001 0.0
C4250 C 0.28939 0.30627 0.97152 0.0
C4251 C 0.29769 0.30054 0.96066 0.0
C4252 C 0.29944 0.28584 0.96007 0.0
C4253 C 0.29237 0.27711 0.96973 0.0
C4254 C 0.28729 0.32188 0.97258 0.0
C4255 C 0.30823 0.27925 0.94876 0.0
H4256 H 0.29506 0.32159 0.91629 0.0
H4257 H 0.33346 0.32765 0.93958 0.0
H4258 H 0.28101 0.2945 0.93572 0.0
H4259 H 0.27408 0.30956 0.94421 0.0
H4260 H 0.27562 0.30937 0.92533 0.0
H4261 H 0.33662 0.3187 0.96241 0.0
H4262 H 0.32069 0.31675 0.97253 0.0
H4263 H 0.32823 0.30174 0.96453 0.0
H4264 H 0.27554 0.30158 0.98897 0.0
H4265 H 0.29341 0.26583 0.96896 0.0
H4266 H 0.28088 0.32553 0.96353 0.0
H4267 H 0.29756 0.32754 0.97211 0.0
H4268 H 0.28187 0.32478 0.98244 0.0
H4269 H 0.30318 0.28094 0.93836 0.0
H4270 H 0.30948 0.26779 0.95044 0.0
H4271 H 0.31882 0.28427 0.94839 0.0
C4272 C 0.59168 0.71875 0.19924 0.0
C4273 C 0.60392 0.71449 0.20634 0.0
C4274 C 0.58067 0.72536 0.20637 0.0
C4275 C 0.58184 0.72776 0.221 0.0
C4276 C 0.59393 0.72304 0.22833 0.0
C4277 C 0.6048 0.7165 0.22093 0.0
C4278 C 0.56799 0.73017 0.19814 0.0
C4279 C 0.59563 0.72535 0.24393 0.0
C4280 C 0.56331 0.75846 0.23788 0.0
C4281 C 0.55216 0.7518 0.245 0.0
C4282 C 0.5727 0.75083 0.22964 0.0
C4283 C 0.57099 0.73609 0.22851 0.0
C4284 C 0.55935 0.72938 0.23515 0.0
C4285 C 0.55004 0.73732 0.24328 0.0
C4286 C 0.58481 0.75848 0.22263 0.0
C4287 C 0.55712 0.71371 0.23421 0.0
H4288 H 0.59074 0.71703 0.18802 0.0
H4289 H 0.61422 0.71341 0.22654 0.0
H4290 H 0.55818 0.72615 0.2031 0.0
H4291 H 0.56757 0.74179 0.19825 0.0
H4292 H 0.56819 0.72665 0.18704 0.0
H4293 H 0.60513 0.7202 0.24826 0.0
H4294 H 0.59645 0.73676 0.24608 0.0
H4295 H 0.58625 0.72125 0.24961 0.0
H4296 H 0.56493 0.76967 0.23909 0.0
H4297 H 0.54151 0.73211 0.24886 0.0
H4298 H 0.58507 0.75595 0.21127 0.0
H4299 H 0.5949 0.75499 0.2273 0.0
H4300 H 0.58415 0.77004 0.22378 0.0
H4301 H 0.55745 0.71029 0.2231 0.0
H4302 H 0.54694 0.71026 0.23885 0.0
H4303 H 0.56576 0.70832 0.23987 0.0
C4304 C 0.33432 0.58928 0.22188 0.0
C4305 C 0.32746 0.60154 0.21753 0.0
C4306 C 0.32697 0.5783 0.22868 0.0
C4307 C 0.31237 0.57954 0.23119 0.0
C4308 C 0.30529 0.59167 0.22641 0.0
C4309 C 0.31291 0.6025 0.21967 0.0
C4310 C 0.3349 0.56554 0.23354 0.0
C4311 C 0.28974 0.59344 0.22888 0.0
C4312 C 0.28913 0.54807 0.24112 0.0
C4313 C 0.28755 0.55003 0.25562 0.0
C4314 C 0.29758 0.5573 0.23305 0.0
C4315 C 0.30464 0.56869 0.23967 0.0
C4316 C 0.30364 0.57024 0.25443 0.0
C4317 C 0.29512 0.56091 0.26219 0.0
C4318 C 0.29839 0.55526 0.21736 0.0
C4319 C 0.3111 0.58212 0.26196 0.0
H4320 H 0.34552 0.58832 0.22008 0.0
H4321 H 0.30752 0.61196 0.21651 0.0
H4322 H 0.33488 0.56499 0.24519 0.0
H4323 H 0.32965 0.55585 0.22964 0.0
H4324 H 0.346 0.56571 0.2299 0.0
H4325 H 0.28561 0.60303 0.22371 0.0
H4326 H 0.28377 0.58421 0.22486 0.0
H4327 H 0.2877 0.59409 0.24033 0.0
H4328 H 0.28323 0.53974 0.23597 0.0
H4329 H 0.29405 0.56237 0.27343 0.0
H4330 H 0.3095 0.55553 0.21386 0.0
H4331 H 0.29293 0.56397 0.21192 0.0
H4332 H 0.29345 0.54518 0.21401 0.0
H4333 H 0.32246 0.58228 0.25934 0.0
H4334 H 0.31 0.58131 0.27356 0.0
H4335 H 0.30671 0.59228 0.25844 0.0
C4336 C 0.43628 0.32282 0.21384 0.0
C4337 C 0.42399 0.31483 0.21143 0.0
C4338 C 0.44764 0.31733 0.2216 0.0
C4339 C 0.44666 0.30353 0.22717 0.0
C4340 C 0.4343 0.29541 0.22473 0.0
C4341 C 0.42316 0.30114 0.21692 0.0
C4342 C 0.46063 0.32631 0.22392 0.0
C4343 C 0.43271 0.28072 0.23059 0.0
C4344 C 0.47847 0.28242 0.23912 0.0
C4345 C 0.47746 0.28341 0.25378 0.0
C4346 C 0.46893 0.28946 0.23024 0.0
C4347 C 0.45818 0.29771 0.23617 0.0
C4348 C 0.45767 0.29936 0.25094 0.0
C4349 C 0.4673 0.29222 0.25952 0.0
C4350 C 0.46989 0.28748 0.21456 0.0
C4351 C 0.44648 0.30807 0.25775 0.0
H4352 H 0.4371 0.33334 0.20951 0.0
H4353 H 0.41365 0.29494 0.21531 0.0
H4354 H 0.4622 0.32815 0.23533 0.0
H4355 H 0.47006 0.32079 0.22009 0.0
H4356 H 0.45997 0.33662 0.21848 0.0
H4357 H 0.42263 0.27562 0.22738 0.0
H4358 H 0.44151 0.27414 0.22698 0.0
H4359 H 0.4332 0.28098 0.24224 0.0
H4360 H 0.48624 0.27558 0.23462 0.0
H4361 H 0.46659 0.29317 0.27085 0.0
H4362 H 0.46944 0.29775 0.20904 0.0
H4363 H 0.46078 0.28108 0.21087 0.0
H4364 H 0.47972 0.28214 0.21151 0.0
H4365 H 0.44612 0.31864 0.25283 0.0
H4366 H 0.44827 0.3093 0.26923 0.0
H4367 H 0.43602 0.30302 0.25612 0.0
C4368 C 0.70581 0.43629 0.21022 0.0
C4369 C 0.70369 0.42399 0.21817 0.0
C4370 C 0.71357 0.44774 0.21566 0.0
C4371 C 0.71946 0.44686 0.22934 0.0
C4372 C 0.71728 0.4345 0.23744 0.0
C4373 C 0.70944 0.42327 0.23177 0.0
C4374 C 0.7156 0.46073 0.20671 0.0
C4375 C 0.72348 0.43302 0.25201 0.0
C4376 C 0.75213 0.46779 0.23978 0.0
C4377 C 0.74664 0.47787 0.24885 0.0
C4378 C 0.74334 0.45807 0.23287 0.0
C4379 C 0.72862 0.45842 0.235 0.0
C4380 C 0.72292 0.46909 0.2435 0.0
C4381 C 0.73201 0.47871 0.25033 0.0
C4382 C 0.74991 0.44695 0.22387 0.0
C4383 C 0.70729 0.4699 0.24597 0.0
H4384 H 0.70128 0.43701 0.19976 0.0
H4385 H 0.70804 0.41375 0.23793 0.0
H4386 H 0.71199 0.47009 0.21247 0.0
H4387 H 0.72695 0.46238 0.20447 0.0
H4388 H 0.7098 0.46005 0.19657 0.0
H4389 H 0.72038 0.42295 0.25714 0.0
H4390 H 0.73513 0.4336 0.25146 0.0
H4391 H 0.72003 0.44178 0.25874 0.0
H4392 H 0.76343 0.46722 0.23844 0.0
H4393 H 0.7277 0.48644 0.25736 0.0
H4394 H 0.74472 0.44656 0.21341 0.0
H4395 H 0.74837 0.43651 0.2289 0.0
H4396 H 0.76137 0.44881 0.22236 0.0
H4397 H 0.70147 0.46935 0.23584 0.0
H4398 H 0.70438 0.47968 0.25146 0.0
H4399 H 0.70379 0.4608 0.25245 0.0
C4400 C 0.60501 0.30354 0.82545 0.0
C4401 C 0.60574 0.31792 0.8285 0.0
C4402 C 0.59416 0.29791 0.81704 0.0
C4403 C 0.58369 0.30684 0.81149 0.0
C4404 C 0.5843 0.32136 0.81455 0.0
C4405 C 0.59533 0.32673 0.82298 0.0
C4406 C 0.59401 0.28239 0.81396 0.0
C4407 C 0.57333 0.33122 0.80889 0.0
C4408 C 0.56528 0.29226 0.77908 0.0
C4409 C 0.55327 0.28578 0.78488 0.0
C4410 C 0.57489 0.29979 0.78751 0.0
C4411 C 0.57245 0.30091 0.80212 0.0
C4412 C 0.5599 0.29514 0.80789 0.0
C4413 C 0.55045 0.28765 0.7992 0.0
C4414 C 0.58805 0.30584 0.78087 0.0
C4415 C 0.55686 0.29616 0.8234 0.0
H4416 H 0.61311 0.29667 0.82946 0.0
H4417 H 0.59572 0.33783 0.82539 0.0
H4418 H 0.58389 0.27757 0.81736 0.0
H4419 H 0.5949 0.28071 0.80247 0.0
H4420 H 0.60274 0.27682 0.81931 0.0
H4421 H 0.57511 0.34217 0.81247 0.0
H4422 H 0.5734 0.33111 0.79723 0.0
H4423 H 0.56271 0.32767 0.81227 0.0
H4424 H 0.56742 0.29103 0.76798 0.0
H4425 H 0.54123 0.28261 0.80376 0.0
H4426 H 0.59734 0.29996 0.78467 0.0
H4427 H 0.58962 0.31694 0.78398 0.0
H4428 H 0.58772 0.30528 0.76921 0.0
H4429 H 0.56432 0.28952 0.82937 0.0
H4430 H 0.54596 0.29265 0.82595 0.0
H4431 H 0.55839 0.3071 0.82706 0.0
C4432 C 0.70288 0.59686 0.82158 0.0
C4433 C 0.71195 0.60716 0.82722 0.0
C4434 C 0.7081 0.58584 0.81337 0.0
C4435 C 0.72272 0.58512 0.81065 0.0
C4436 C 0.73189 0.59551 0.81631 0.0
C4437 C 0.72642 0.60635 0.82449 0.0
C4438 C 0.69796 0.57497 0.80759 0.0
C4439 C 0.74754 0.59527 0.8136 0.0
C4440 C 0.74143 0.55199 0.79921 0.0
C4441 C 0.74388 0.55485 0.78495 0.0
C4442 C 0.73382 0.56135 0.80758 0.0
C4443 C 0.72854 0.57387 0.80154 0.0
C4444 C 0.73017 0.57629 0.78693 0.0
C4445 C 0.73778 0.56677 0.77884 0.0
C4446 C 0.73224 0.55828 0.82307 0.0
C4447 C 0.72465 0.58941 0.77999 0.0
H4448 H 0.69171 0.59731 0.82373 0.0
H4449 H 0.7335 0.61436 0.82859 0.0
H4450 H 0.69839 0.57501 0.79594 0.0
H4451 H 0.70105 0.56436 0.8112 0.0
H4452 H 0.68695 0.57683 0.81086 0.0
H4453 H 0.75328 0.60395 0.81896 0.0
H4454 H 0.75193 0.58516 0.81725 0.0
H4455 H 0.74953 0.59611 0.80214 0.0
H4456 H 0.74616 0.54285 0.80403 0.0
H4457 H 0.73948 0.56896 0.76778 0.0
H4458 H 0.72123 0.55992 0.82643 0.0
H4459 H 0.73904 0.56563 0.82916 0.0
H4460 H 0.73527 0.54738 0.8258 0.0
H4461 H 0.7135 0.59104 0.78288 0.0
H4462 H 0.72543 0.58902 0.76835 0.0
H4463 H 0.73078 0.59865 0.78376 0.0
C4464 C 0.43629 0.69579 0.81904 0.0
C4465 C 0.42379 0.70261 0.82257 0.0
C4466 C 0.44739 0.70299 0.81225 0.0
C4467 C 0.44602 0.7174 0.80892 0.0
C4468 C 0.43365 0.72446 0.81289 0.0
C4469 C 0.42271 0.717 0.81963 0.0
C4470 C 0.4604 0.69507 0.80826 0.0
C4471 C 0.43174 0.73982 0.80955 0.0
C4472 C 0.4776 0.74053 0.79893 0.0
C4473 C 0.47598 0.74152 0.7843 0.0
C4474 C 0.46823 0.73234 0.80709 0.0
C4475 C 0.45703 0.72491 0.80044 0.0
C4476 C 0.45584 0.7253 0.78559 0.0
C4477 C 0.4653 0.7336 0.77773 0.0
C4478 C 0.46989 0.73219 0.82287 0.0
C4479 C 0.4442 0.71744 0.77802 0.0
H4480 H 0.43737 0.68474 0.82147 0.0
H4481 H 0.41307 0.72236 0.82215 0.0
H4482 H 0.46124 0.69465 0.79665 0.0
H4483 H 0.46996 0.70058 0.81224 0.0
H4484 H 0.46027 0.68417 0.81246 0.0
H4485 H 0.42195 0.74401 0.81416 0.0
H4486 H 0.44083 0.74605 0.81358 0.0
H4487 H 0.43133 0.74138 0.79799 0.0
H4488 H 0.48576 0.74672 0.80407 0.0
H4489 H 0.46409 0.73423 0.76641 0.0
H4490 H 0.46964 0.72126 0.82693 0.0
H4491 H 0.46096 0.73774 0.8277 0.0
H4492 H 0.47986 0.73735 0.82632 0.0
H4493 H 0.44408 0.70624 0.78124 0.0
H4494 H 0.44529 0.71807 0.76641 0.0
H4495 H 0.43387 0.72184 0.78093 0.0
C4496 C 0.31096 0.42325 0.81858 0.0
C4497 C 0.32518 0.42532 0.82219 0.0
C4498 C 0.30311 0.43397 0.8122 0.0
C4499 C 0.30958 0.44716 0.80931 0.0
C4500 C 0.32376 0.4495 0.81341 0.0
C4501 C 0.33137 0.43859 0.81977 0.0
C4502 C 0.28803 0.43098 0.80799 0.0
C4503 C 0.33107 0.46339 0.81061 0.0
C4504 C 0.29438 0.46684 0.77798 0.0
C4505 C 0.28546 0.47649 0.78438 0.0
C4506 C 0.30257 0.45759 0.78598 0.0
C4507 C 0.3019 0.45793 0.80084 0.0
C4508 C 0.29338 0.46807 0.80741 0.0
C4509 C 0.28528 0.47726 0.79909 0.0
C4510 C 0.31157 0.44709 0.77849 0.0
C4511 C 0.29239 0.46882 0.82321 0.0
H4512 H 0.30608 0.41304 0.82025 0.0
H4513 H 0.34227 0.44041 0.82273 0.0
H4514 H 0.28107 0.43927 0.81202 0.0
H4515 H 0.28709 0.43106 0.79636 0.0
H4516 H 0.28418 0.42065 0.81198 0.0
H4517 H 0.34167 0.464 0.81556 0.0
H4518 H 0.33224 0.46498 0.79911 0.0
H4519 H 0.32465 0.47213 0.81459 0.0
H4520 H 0.29467 0.4663 0.7666 0.0
H4521 H 0.27835 0.48464 0.80409 0.0
H4522 H 0.30769 0.4363 0.78082 0.0
H4523 H 0.3226 0.44785 0.78231 0.0
H4524 H 0.3115 0.44867 0.76691 0.0
H4525 H 0.28713 0.45917 0.82728 0.0
H4526 H 0.28636 0.47805 0.82671 0.0
H4527 H 0.30306 0.46933 0.82797 0.0
C4528 C 0.71045 0.59837 0.20737 0.0
C4529 C 0.7045 0.60824 0.2164 0.0
C4530 C 0.71873 0.58734 0.21265 0.0
C4531 C 0.72119 0.58618 0.22732 0.0
C4532 C 0.71516 0.59608 0.23646 0.0
C4533 C 0.70693 0.60694 0.23091 0.0
C4534 C 0.7249 0.577 0.20254 0.0
C4535 C 0.71759 0.59534 0.25215 0.0
C4536 C 0.7334 0.55268 0.24558 0.0
C4537 C 0.74759 0.55593 0.24832 0.0
C4538 C 0.72481 0.56209 0.23808 0.0
C4539 C 0.73054 0.57504 0.23319 0.0
C4540 C 0.74508 0.57791 0.23516 0.0
C4541 C 0.75339 0.56835 0.24267 0.0
C4542 C 0.7094 0.55855 0.23615 0.0
C4543 C 0.7517 0.5915 0.23008 0.0
H4544 H 0.70853 0.59917 0.19616 0.0
H4545 H 0.70258 0.61461 0.23798 0.0
H4546 H 0.73656 0.57747 0.20318 0.0
H4547 H 0.72159 0.56617 0.20547 0.0
H4548 H 0.72165 0.57906 0.1915 0.0
H4549 H 0.71184 0.60359 0.25788 0.0
H4550 H 0.71417 0.58494 0.25627 0.0
H4551 H 0.72899 0.59656 0.25449 0.0
H4552 H 0.72883 0.54315 0.24997 0.0
H4553 H 0.7644 0.57084 0.24461 0.0
H4554 H 0.70611 0.56046 0.2251 0.0
H4555 H 0.70305 0.56545 0.2429 0.0
H4556 H 0.70693 0.54746 0.23896 0.0
H4557 H 0.74898 0.59341 0.21888 0.0
H4558 H 0.76335 0.59155 0.2312 0.0
H4559 H 0.74752 0.60035 0.23622 0.0
C4560 C 0.70969 0.43569 0.83177 0.0
C4561 C 0.70505 0.42481 0.82292 0.0
C4562 C 0.71809 0.44685 0.8266 0.0
C4563 C 0.72203 0.44712 0.81226 0.0
C4564 C 0.71736 0.43618 0.80329 0.0
C4565 C 0.70895 0.42521 0.80871 0.0
C4566 C 0.72278 0.45834 0.83649 0.0
C4567 C 0.72141 0.43595 0.78796 0.0
C4568 C 0.73458 0.47994 0.79269 0.0
C4569 C 0.74907 0.47757 0.79172 0.0
C4570 C 0.72569 0.47053 0.80005 0.0
C4571 C 0.73145 0.45848 0.80658 0.0
C4572 C 0.74619 0.45657 0.80641 0.0
C4573 C 0.7548 0.46614 0.79903 0.0
C4574 C 0.71005 0.47302 0.80006 0.0
C4575 C 0.75282 0.44395 0.81329 0.0
H4576 H 0.70662 0.43555 0.84273 0.0
H4577 H 0.70562 0.41676 0.80183 0.0
H4578 H 0.73444 0.45872 0.83712 0.0
H4579 H 0.71933 0.46867 0.83241 0.0
H4580 H 0.71853 0.45681 0.84725 0.0
H4581 H 0.71668 0.42685 0.78232 0.0
H4582 H 0.71799 0.44573 0.78266 0.0
H4583 H 0.73302 0.43548 0.787 0.0
H4584 H 0.73007 0.4887 0.78703 0.0
H4585 H 0.76603 0.46436 0.7985 0.0
H4586 H 0.70575 0.47167 0.81081 0.0
H4587 H 0.70471 0.46518 0.79323 0.0
H4588 H 0.70744 0.48368 0.79614 0.0
H4589 H 0.74902 0.44266 0.82423 0.0
H4590 H 0.76449 0.44474 0.81347 0.0
H4591 H 0.74969 0.43435 0.80746 0.0
C4592 C 0.60599 0.71095 0.8085 0.0
C4593 C 0.60651 0.70678 0.82266 0.0
C4594 C 0.59498 0.71919 0.80327 0.0
C4595 C 0.58411 0.72343 0.81239 0.0
C4596 C 0.58453 0.71925 0.82671 0.0
C4597 C 0.59574 0.71102 0.83168 0.0
C4598 C 0.59506 0.7235 0.78796 0.0
C4599 C 0.57315 0.72348 0.83676 0.0
C4600 C 0.56488 0.75575 0.79942 0.0
C4601 C 0.55334 0.7498 0.79223 0.0
C4602 C 0.57454 0.74734 0.80671 0.0
C4603 C 0.57264 0.73258 0.80688 0.0
C4604 C 0.56047 0.7266 0.80048 0.0
C4605 C 0.55096 0.73528 0.79323 0.0
C4606 C 0.58727 0.75422 0.81346 0.0
C4607 C 0.55797 0.71094 0.80049 0.0
H4608 H 0.61436 0.70795 0.80149 0.0
H4609 H 0.59596 0.70773 0.84261 0.0
H4610 H 0.58519 0.7199 0.78275 0.0
H4611 H 0.59552 0.7351 0.78706 0.0
H4612 H 0.60413 0.71914 0.78219 0.0
H4613 H 0.57484 0.71919 0.84751 0.0
H4614 H 0.57274 0.73508 0.83739 0.0
H4615 H 0.56274 0.71976 0.83285 0.0
H4616 H 0.56669 0.76699 0.79883 0.0
H4617 H 0.54212 0.7306 0.78764 0.0
H4618 H 0.59684 0.75151 0.80746 0.0
H4619 H 0.58873 0.75027 0.82435 0.0
H4620 H 0.58644 0.76582 0.81372 0.0
H4621 H 0.56575 0.70593 0.79354 0.0
H4622 H 0.54723 0.70808 0.7967 0.0
H4623 H 0.55945 0.70654 0.8112 0.0
C4624 C 0.32431 0.59683 0.82315 0.0
C4625 C 0.31528 0.60671 0.82905 0.0
C4626 C 0.31902 0.5858 0.81476 0.0
C4627 C 0.30436 0.58464 0.81213 0.0
C4628 C 0.29521 0.59455 0.81811 0.0
C4629 C 0.30076 0.60541 0.82646 0.0
C4630 C 0.32913 0.57545 0.80862 0.0
C4631 C 0.27953 0.59381 0.8155 0.0
C4632 C 0.28925 0.56676 0.77969 0.0
C4633 C 0.28349 0.55433 0.78534 0.0
C4634 C 0.29672 0.57636 0.78814 0.0
C4635 C 0.29851 0.5735 0.80266 0.0
C4636 C 0.29347 0.56056 0.80826 0.0
C4637 C 0.28603 0.55111 0.79952 0.0
C4638 C 0.30197 0.58994 0.78167 0.0
C4639 C 0.29521 0.55705 0.82365 0.0
H4640 H 0.33551 0.59764 0.8252 0.0
H4641 H 0.2937 0.6131 0.83076 0.0
H4642 H 0.32608 0.56462 0.81182 0.0
H4643 H 0.32862 0.57591 0.79698 0.0
H4644 H 0.34016 0.57752 0.812 0.0
H4645 H 0.2738 0.60205 0.82124 0.0
H4646 H 0.27732 0.59502 0.80409 0.0
H4647 H 0.27529 0.5834 0.81879 0.0
H4648 H 0.28747 0.56923 0.76869 0.0
H4649 H 0.28155 0.54157 0.80397 0.0
H4650 H 0.31316 0.59187 0.78451 0.0
H4651 H 0.29584 0.5988 0.78586 0.0
H4652 H 0.30096 0.58998 0.77003 0.0
H4653 H 0.30625 0.55895 0.82707 0.0
H4654 H 0.29226 0.54598 0.82602 0.0
H4655 H 0.28845 0.56399 0.82996 0.0
C4656 C 0.42307 0.3151 0.8161 0.0
C4657 C 0.42419 0.31746 0.83062 0.0
C4658 C 0.43388 0.30852 0.80865 0.0
C4659 C 0.44616 0.30412 0.81586 0.0
C4660 C 0.44756 0.30685 0.83042 0.0
C4661 C 0.4366 0.31349 0.8376 0.0
C4662 C 0.43193 0.30584 0.79314 0.0
C4663 C 0.46046 0.30238 0.83851 0.0
C4664 C 0.46476 0.27336 0.79913 0.0
C4665 C 0.47563 0.28005 0.79161 0.0
C4666 C 0.45548 0.28101 0.80748 0.0
C4667 C 0.45701 0.29579 0.80832 0.0
C4668 C 0.46839 0.30254 0.80129 0.0
C4669 C 0.4776 0.29458 0.79305 0.0
C4670 C 0.44365 0.27332 0.81491 0.0
C4671 C 0.47042 0.31824 0.8019 0.0
H4672 H 0.41352 0.31796 0.81059 0.0
H4673 H 0.43772 0.31546 0.84875 0.0
H4674 H 0.44113 0.30998 0.7872 0.0
H4675 H 0.43126 0.29438 0.79125 0.0
H4676 H 0.42225 0.31073 0.78888 0.0
H4677 H 0.4604 0.30613 0.84955 0.0
H4678 H 0.46104 0.29077 0.83863 0.0
H4679 H 0.47012 0.30644 0.8333 0.0
H4680 H 0.46326 0.26212 0.79813 0.0
H4681 H 0.48589 0.29982 0.78716 0.0
H4682 H 0.43341 0.27653 0.81036 0.0
H4683 H 0.44357 0.2761 0.82622 0.0
H4684 H 0.44449 0.26175 0.81401 0.0
H4685 H 0.46162 0.32341 0.79628 0.0
H4686 H 0.48048 0.32174 0.79703 0.0
H4687 H 0.47023 0.32187 0.81295 0.0
C4688 C 0.32039 0.42191 0.23207 0.0
C4689 C 0.32363 0.42129 0.21771 0.0
C4690 C 0.31201 0.43262 0.23746 0.0
C4691 C 0.30667 0.44307 0.2283 0.0
C4692 C 0.30992 0.44256 0.21379 0.0
C4693 C 0.31831 0.43166 0.20866 0.0
C4694 C 0.30872 0.43265 0.25298 0.0
C4695 C 0.30451 0.45352 0.20369 0.0
C4696 C 0.27422 0.46102 0.24238 0.0
C4697 C 0.28007 0.47293 0.24891 0.0
C4698 C 0.28264 0.45162 0.23498 0.0
C4699 C 0.29732 0.45417 0.234 0.0
C4700 C 0.30314 0.46668 0.23973 0.0
C4701 C 0.29445 0.47591 0.24712 0.0
C4702 C 0.27593 0.4385 0.22898 0.0
C4703 C 0.31871 0.46988 0.23883 0.0
H4704 H 0.32423 0.41384 0.23912 0.0
H4705 H 0.32086 0.43136 0.19758 0.0
H4706 H 0.3122 0.44273 0.2577 0.0
H4707 H 0.29718 0.43168 0.25453 0.0
H4708 H 0.31389 0.42394 0.25874 0.0
H4709 H 0.30823 0.45185 0.19279 0.0
H4710 H 0.29284 0.45336 0.20366 0.0
H4711 H 0.30798 0.46412 0.20715 0.0
H4712 H 0.26307 0.45875 0.24355 0.0
H4713 H 0.29907 0.48505 0.25218 0.0
H4714 H 0.27952 0.42923 0.23504 0.0
H4715 H 0.27921 0.43705 0.21792 0.0
H4716 H 0.26426 0.43875 0.22936 0.0
H4717 H 0.32453 0.46249 0.2457 0.0
H4718 H 0.32131 0.48076 0.24219 0.0
H4719 H 0.3225 0.46842 0.22794 0.0
C4720 C 0.60588 0.30203 0.2121 0.0
C4721 C 0.60715 0.31656 0.20984 0.0
C4722 C 0.59516 0.2963 0.22056 0.0
C4723 C 0.58537 0.30527 0.22701 0.0
C4724 C 0.5865 0.31994 0.22471 0.0
C4725 C 0.59739 0.32541 0.21619 0.0
C4726 C 0.59445 0.28061 0.2228 0.0
C4727 C 0.57626 0.32986 0.23133 0.0
C4728 C 0.552 0.2867 0.23994 0.0
C4729 C 0.55553 0.28381 0.25399 0.0
C4730 C 0.56129 0.29433 0.23117 0.0
C4731 C 0.5744 0.2992 0.23659 0.0
C4732 C 0.57757 0.29707 0.251 0.0
C4733 C 0.56812 0.28943 0.2595 0.0
C4734 C 0.55744 0.29645 0.21591 0.0
C4735 C 0.59134 0.30214 0.25728 0.0
H4736 H 0.61348 0.29511 0.20744 0.0
H4737 H 0.59817 0.33663 0.2144 0.0
H4738 H 0.5959 0.27812 0.23412 0.0
H4739 H 0.58393 0.27647 0.21965 0.0
H4740 H 0.60259 0.27504 0.21673 0.0
H4741 H 0.57827 0.34094 0.22815 0.0
H4742 H 0.56533 0.3269 0.22832 0.0
H4743 H 0.57699 0.32908 0.24295 0.0
H4744 H 0.54234 0.28233 0.23559 0.0
H4745 H 0.57081 0.2874 0.2704 0.0
H4746 H 0.56424 0.28986 0.20927 0.0
H4747 H 0.5593 0.30753 0.21271 0.0
H4748 H 0.54627 0.29359 0.21373 0.0
H4749 H 0.60012 0.29615 0.25273 0.0
H4750 H 0.59163 0.30083 0.26889 0.0
H4751 H 0.59321 0.31336 0.25468 0.0
C4752 C 0.42189 0.71222 0.22189 0.0
C4753 C 0.42369 0.70935 0.20757 0.0
C4754 C 0.43256 0.71891 0.22978 0.0
C4755 C 0.44539 0.72284 0.22322 0.0
C4756 C 0.4475 0.71945 0.20892 0.0
C4757 C 0.43664 0.71277 0.20127 0.0
C4758 C 0.42984 0.72235 0.24499 0.0
C4759 C 0.46103 0.72338 0.20153 0.0
C4760 C 0.46389 0.75481 0.2387 0.0
C4761 C 0.47428 0.74879 0.24725 0.0
C4762 C 0.45472 0.74649 0.23058 0.0
C4763 C 0.45593 0.73171 0.23094 0.0
C4764 C 0.46676 0.72556 0.23912 0.0
C4765 C 0.47584 0.73419 0.24718 0.0
C4766 C 0.44343 0.75354 0.22193 0.0
C4767 C 0.46844 0.70986 0.23975 0.0
H4768 H 0.4119 0.70977 0.22684 0.0
H4769 H 0.43823 0.71039 0.19028 0.0
H4770 H 0.43863 0.71868 0.25171 0.0
H4771 H 0.42925 0.73389 0.24622 0.0
H4772 H 0.41987 0.71754 0.24886 0.0
H4773 H 0.46158 0.71881 0.19084 0.0
H4774 H 0.46191 0.73496 0.20058 0.0
H4775 H 0.47022 0.7198 0.20775 0.0
H4776 H 0.46277 0.76611 0.23856 0.0
H4777 H 0.48381 0.72948 0.25381 0.0
H4778 H 0.4329 0.7503 0.22585 0.0
H4779 H 0.44408 0.75022 0.21081 0.0
H4780 H 0.44428 0.76516 0.22233 0.0
H4781 H 0.45914 0.705 0.24495 0.0
H4782 H 0.47804 0.70678 0.24565 0.0
H4783 H 0.46895 0.70551 0.22898 0.0
loop_
_geom_bond_atom_site_label_1
_geom_bond_atom_site_label_2
_geom_bond_distance
_geom_bond_site_symmetry_2
_ccdc_geom_bond_type
C0 C1 1.264 . S
C0 C5 1.479 . S
C0 C10 1.465 . S
C1 C0 1.264 . S
C1 C3 1.339 . S
C1 H28 0.931 . S
C2 C3 1.395 . S
C2 C4 1.320 . S
C3 C1 1.339 . S
C3 C2 1.395 . S
C3 H29 0.929 . S
C4 C2 1.320 . S
C4 C5 1.405 . S
C4 H30 0.930 . S
C5 C0 1.479 . S
C5 C4 1.405 . S
C5 H31 0.931 . S
U6 O7 2.454 . S
U6 O8 2.458 . S
U6 C9 2.984 . S
U6 C10 2.847 . S
U6 C23 2.882 . S
U6 O24 2.441 . S
U6 O25 2.420 . S
U6 O26 2.455 . S
U6 O27 2.449 . S
O7 U6 2.454 . S
O7 C9 1.353 . S
O8 U6 2.458 . S
O8 C9 1.286 . S
C9 U6 2.984 . S
C9 O7 1.353 . S
C9 O8 1.286 . S
C9 C11 1.363 . S
C10 C0 1.465 . S
C10 U6 2.847 . S
C10 O24 1.249 . S
C10 O25 1.202 . S
C11 C9 1.363 . S
C11 C13 1.408 . S
C11 C16 1.342 . S
C12 C13 1.310 . S
C12 C15 1.461 . S
C12 H32 0.932 . S
C13 C11 1.408 . S
C13 C12 1.310 . S
C13 H33 0.930 . S
C14 C15 1.474 . S
C14 C16 1.285 . S
C14 H34 0.929 . S
C15 C12 1.461 . S
C15 C14 1.474 . S
C16 C11 1.342 . S
C16 C14 1.285 . S
C16 H35 0.930 . S
C17 C20 1.424 . S
C17 C22 1.245 . S
C17 C23 1.428 . S
C18 C21 1.260 . S
C18 C22 1.477 . S
C18 H36 0.932 . S
C19 C20 1.384 . S
C19 C21 1.479 . S
C19 H37 0.929 . S
C20 C17 1.424 . S
C20 C19 1.384 . S
C20 H38 0.928 . S
C21 C18 1.260 . S
C21 C19 1.479 . S
C22 C17 1.245 . S
C22 C18 1.477 . S
C22 H39 0.932 . S
C23 U6 2.882 . S
C23 C17 1.428 . S
C23 O26 1.301 . S
C23 O27 1.282 . S
O24 U6 2.441 . S
O24 C10 1.249 . S
O25 U6 2.420 . S
O25 C10 1.202 . S
O26 U6 2.455 . S
O26 C23 1.301 . S
O27 U6 2.449 . S
O27 C23 1.282 . S
H28 C1 0.931 . S
H29 C3 0.929 . S
H30 C4 0.930 . S
H31 C5 0.931 . S
H32 C12 0.932 . S
H33 C13 0.930 . S
H34 C14 0.929 . S
H35 C16 0.930 . S
H36 C18 0.932 . S
H37 C19 0.929 . S
H38 C20 0.928 . S
H39 C22 0.932 . S
C40 C41 1.264 . S
C40 C45 1.479 . S
C40 C50 1.465 . S
C41 C40 1.264 . S
C41 C43 1.339 . S
C41 H68 0.931 . S
C42 C43 1.395 . S
C42 C44 1.320 . S
C43 C41 1.339 . S
C43 C42 1.395 . S
C43 H69 0.929 . S
C44 C42 1.320 . S
C44 C45 1.405 . S
C44 H70 0.930 . S
C45 C40 1.479 . S
C45 C44 1.405 . S
C45 H71 0.931 . S
U46 O47 2.454 . S
U46 O48 2.458 . S
U46 C49 2.984 . S
U46 C50 2.847 . S
U46 C63 2.882 . S
U46 O64 2.441 . S
U46 O65 2.420 . S
U46 O66 2.455 . S
U46 O67 2.449 . S
O47 U46 2.454 . S
O47 C49 1.353 . S
O48 U46 2.458 . S
O48 C49 1.286 . S
C49 U46 2.984 . S
C49 O47 1.353 . S
C49 O48 1.286 . S
C49 C51 1.363 . S
C50 C40 1.465 . S
C50 U46 2.847 . S
C50 O64 1.249 . S
C50 O65 1.202 . S
C51 C49 1.363 . S
C51 C53 1.408 . S
C51 C56 1.342 . S
C52 C53 1.310 . S
C52 C55 1.461 . S
C52 H72 0.932 . S
C53 C51 1.408 . S
C53 C52 1.310 . S
C53 H73 0.930 . S
C54 C55 1.474 . S
C54 C56 1.285 . S
C54 H74 0.929 . S
C55 C52 1.461 . S
C55 C54 1.474 . S
C56 C51 1.342 . S
C56 C54 1.285 . S
C56 H75 0.930 . S
C57 C60 1.424 . S
C57 C62 1.245 . S
C57 C63 1.428 . S
C58 C61 1.260 . S
C58 C62 1.477 . S
C58 H76 0.932 . S
C59 C60 1.384 . S
C59 C61 1.479 . S
C59 H77 0.929 . S
C60 C57 1.424 . S
C60 C59 1.384 . S
C60 H78 0.928 . S
C61 C58 1.260 . S
C61 C59 1.479 . S
C62 C57 1.245 . S
C62 C58 1.477 . S
C62 H79 0.932 . S
C63 U46 2.882 . S
C63 C57 1.428 . S
C63 O66 1.301 . S
C63 O67 1.282 . S
O64 U46 2.441 . S
O64 C50 1.249 . S
O65 U46 2.420 . S
O65 C50 1.202 . S
O66 U46 2.455 . S
O66 C63 1.301 . S
O67 U46 2.449 . S
O67 C63 1.282 . S
H68 C41 0.931 . S
H69 C43 0.929 . S
H70 C44 0.930 . S
H71 C45 0.931 . S
H72 C52 0.932 . S
H73 C53 0.930 . S
H74 C54 0.929 . S
H75 C56 0.930 . S
H76 C58 0.932 . S
H77 C59 0.929 . S
H78 C60 0.928 . S
H79 C62 0.932 . S
C80 C81 1.264 . S
C80 C85 1.479 . S
C80 C90 1.465 . S
C81 C80 1.264 . S
C81 C83 1.339 . S
C81 H108 0.931 . S
C82 C83 1.395 . S
C82 C84 1.320 . S
C83 C81 1.339 . S
C83 C82 1.395 . S
C83 H109 0.929 . S
C84 C82 1.320 . S
C84 C85 1.405 . S
C84 H110 0.930 . S
C85 C80 1.479 . S
C85 C84 1.405 . S
C85 H111 0.931 . S
U86 O87 2.454 . S
U86 O88 2.458 . S
U86 C89 2.984 . S
U86 C90 2.847 . S
U86 C103 2.882 . S
U86 O104 2.441 . S
U86 O105 2.420 . S
U86 O106 2.455 . S
U86 O107 2.449 . S
O87 U86 2.454 . S
O87 C89 1.353 . S
O88 U86 2.458 . S
O88 C89 1.286 . S
C89 U86 2.984 . S
C89 O87 1.353 . S
C89 O88 1.286 . S
C89 C91 1.363 . S
C90 C80 1.465 . S
C90 U86 2.847 . S
C90 O104 1.249 . S
C90 O105 1.202 . S
C91 C89 1.363 . S
C91 C93 1.408 . S
C91 C96 1.342 . S
C92 C93 1.310 . S
C92 C95 1.461 . S
C92 H112 0.932 . S
C93 C91 1.408 . S
C93 C92 1.310 . S
C93 H113 0.930 . S
C94 C95 1.474 . S
C94 C96 1.285 . S
C94 H114 0.929 . S
C95 C92 1.461 . S
C95 C94 1.474 . S
C96 C91 1.342 . S
C96 C94 1.285 . S
C96 H115 0.930 . S
C97 C100 1.424 . S
C97 C102 1.245 . S
C97 C103 1.428 . S
C98 C101 1.260 . S
C98 C102 1.477 . S
C98 H116 0.932 . S
C99 C100 1.384 . S
C99 C101 1.479 . S
C99 H117 0.929 . S
C100 C97 1.424 . S
C100 C99 1.384 . S
C100 H118 0.928 . S
C101 C98 1.260 . S
C101 C99 1.479 . S
C102 C97 1.245 . S
C102 C98 1.477 . S
C102 H119 0.932 . S
C103 U86 2.882 . S
C103 C97 1.428 . S
C103 O106 1.301 . S
C103 O107 1.282 . S
O104 U86 2.441 . S
O104 C90 1.249 . S
O105 U86 2.420 . S
O105 C90 1.202 . S
O106 U86 2.455 . S
O106 C103 1.301 . S
O107 U86 2.449 . S
O107 C103 1.282 . S
H108 C81 0.931 . S
H109 C83 0.929 . S
H110 C84 0.930 . S
H111 C85 0.931 . S
H112 C92 0.932 . S
H113 C93 0.930 . S
H114 C94 0.929 . S
H115 C96 0.930 . S
H116 C98 0.932 . S
H117 C99 0.929 . S
H118 C100 0.928 . S
H119 C102 0.932 . S
C120 C121 1.264 . S
C120 C125 1.479 . S
C120 C130 1.465 . S
C121 C120 1.264 . S
C121 C123 1.339 . S
C121 H148 0.931 . S
C122 C123 1.395 . S
C122 C124 1.320 . S
C123 C121 1.339 . S
C123 C122 1.395 . S
C123 H149 0.929 . S
C124 C122 1.320 . S
C124 C125 1.405 . S
C124 H150 0.930 . S
C125 C120 1.479 . S
C125 C124 1.405 . S
C125 H151 0.931 . S
U126 O127 2.454 . S
U126 O128 2.458 . S
U126 C129 2.984 . S
U126 C130 2.847 . S
U126 C143 2.882 . S
U126 O144 2.441 . S
U126 O145 2.420 . S
U126 O146 2.455 . S
U126 O147 2.449 . S
O127 U126 2.454 . S
O127 C129 1.353 . S
O128 U126 2.458 . S
O128 C129 1.286 . S
C129 U126 2.984 . S
C129 O127 1.353 . S
C129 O128 1.286 . S
C129 C131 1.363 . S
C130 C120 1.465 . S
C130 U126 2.847 . S
C130 O144 1.249 . S
C130 O145 1.202 . S
C131 C129 1.363 . S
C131 C133 1.408 . S
C131 C136 1.342 . S
C132 C133 1.310 . S
C132 C135 1.461 . S
C132 H152 0.932 . S
C133 C131 1.408 . S
C133 C132 1.310 . S
C133 H153 0.930 . S
C134 C135 1.474 . S
C134 C136 1.285 . S
C134 H154 0.929 . S
C135 C132 1.461 . S
C135 C134 1.474 . S
C136 C131 1.342 . S
C136 C134 1.285 . S
C136 H155 0.930 . S
C137 C140 1.424 . S
C137 C142 1.245 . S
C137 C143 1.428 . S
C138 C141 1.260 . S
C138 C142 1.477 . S
C138 H156 0.932 . S
C139 C140 1.384 . S
C139 C141 1.479 . S
C139 H157 0.929 . S
C140 C137 1.424 . S
C140 C139 1.384 . S
C140 H158 0.928 . S
C141 C138 1.260 . S
C141 C139 1.479 . S
C142 C137 1.245 . S
C142 C138 1.477 . S
C142 H159 0.932 . S
C143 U126 2.882 . S
C143 C137 1.428 . S
C143 O146 1.301 . S
C143 O147 1.282 . S
O144 U126 2.441 . S
O144 C130 1.249 . S
O145 U126 2.420 . S
O145 C130 1.202 . S
O146 U126 2.455 . S
O146 C143 1.301 . S
O147 U126 2.449 . S
O147 C143 1.282 . S
H148 C121 0.931 . S
H149 C123 0.929 . S
H150 C124 0.930 . S
H151 C125 0.931 . S
H152 C132 0.932 . S
H153 C133 0.930 . S
H154 C134 0.929 . S
H155 C136 0.930 . S
H156 C138 0.932 . S
H157 C139 0.929 . S
H158 C140 0.928 . S
H159 C142 0.932 . S
C160 C161 1.264 . S
C160 C165 1.479 . S
C160 C170 1.465 . S
C161 C160 1.264 . S
C161 C163 1.339 . S
C161 H188 0.931 . S
C162 C163 1.395 . S
C162 C164 1.320 . S
C163 C161 1.339 . S
C163 C162 1.395 . S
C163 H189 0.929 . S
C164 C162 1.320 . S
C164 C165 1.405 . S
C164 H190 0.930 . S
C165 C160 1.479 . S
C165 C164 1.405 . S
C165 H191 0.931 . S
U166 O167 2.454 . S
U166 O168 2.458 . S
U166 C169 2.984 . S
U166 C170 2.847 . S
U166 C183 2.882 . S
U166 O184 2.441 . S
U166 O185 2.420 . S
U166 O186 2.455 . S
U166 O187 2.449 . S
O167 U166 2.454 . S
O167 C169 1.353 . S
O168 U166 2.458 . S
O168 C169 1.286 . S
C169 U166 2.984 . S
C169 O167 1.353 . S
C169 O168 1.286 . S
C169 C171 1.363 . S
C170 C160 1.465 . S
C170 U166 2.847 . S
C170 O184 1.249 . S
C170 O185 1.202 . S
C171 C169 1.363 . S
C171 C173 1.408 . S
C171 C176 1.342 . S
C172 C173 1.310 . S
C172 C175 1.461 . S
C172 H192 0.932 . S
C173 C171 1.408 . S
C173 C172 1.310 . S
C173 H193 0.930 . S
C174 C175 1.474 . S
C174 C176 1.285 . S
C174 H194 0.929 . S
C175 C172 1.461 . S
C175 C174 1.474 . S
C176 C171 1.342 . S
C176 C174 1.285 . S
C176 H195 0.930 . S
C177 C180 1.424 . S
C177 C182 1.245 . S
C177 C183 1.428 . S
C178 C181 1.260 . S
C178 C182 1.477 . S
C178 H196 0.932 . S
C179 C180 1.384 . S
C179 C181 1.479 . S
C179 H197 0.929 . S
C180 C177 1.424 . S
C180 C179 1.384 . S
C180 H198 0.928 . S
C181 C178 1.260 . S
C181 C179 1.479 . S
C182 C177 1.245 . S
C182 C178 1.477 . S
C182 H199 0.932 . S
C183 U166 2.882 . S
C183 C177 1.428 . S
C183 O186 1.301 . S
C183 O187 1.282 . S
O184 U166 2.441 . S
O184 C170 1.249 . S
O185 U166 2.420 . S
O185 C170 1.202 . S
O186 U166 2.455 . S
O186 C183 1.301 . S
O187 U166 2.449 . S
O187 C183 1.282 . S
H188 C161 0.931 . S
H189 C163 0.929 . S
H190 C164 0.930 . S
H191 C165 0.931 . S
H192 C172 0.932 . S
H193 C173 0.930 . S
H194 C174 0.929 . S
H195 C176 0.930 . S
H196 C178 0.932 . S
H197 C179 0.929 . S
H198 C180 0.928 . S
H199 C182 0.932 . S
C200 C201 1.264 . S
C200 C205 1.479 . S
C200 C210 1.465 . S
C201 C200 1.264 . S
C201 C203 1.339 . S
C201 H228 0.931 . S
C202 C203 1.395 . S
C202 C204 1.320 . S
C203 C201 1.339 . S
C203 C202 1.395 . S
C203 H229 0.929 . S
C204 C202 1.320 . S
C204 C205 1.405 . S
C204 H230 0.930 . S
C205 C200 1.479 . S
C205 C204 1.405 . S
C205 H231 0.931 . S
U206 O207 2.454 . S
U206 O208 2.458 . S
U206 C209 2.984 . S
U206 C210 2.847 . S
U206 C223 2.882 . S
U206 O224 2.441 . S
U206 O225 2.420 . S
U206 O226 2.455 . S
U206 O227 2.449 . S
O207 U206 2.454 . S
O207 C209 1.353 . S
O208 U206 2.458 . S
O208 C209 1.286 . S
C209 U206 2.984 . S
C209 O207 1.353 . S
C209 O208 1.286 . S
C209 C211 1.363 . S
C210 C200 1.465 . S
C210 U206 2.847 . S
C210 O224 1.249 . S
C210 O225 1.202 . S
C211 C209 1.363 . S
C211 C213 1.408 . S
C211 C216 1.342 . S
C212 C213 1.310 . S
C212 C215 1.461 . S
C212 H232 0.932 . S
C213 C211 1.408 . S
C213 C212 1.310 . S
C213 H233 0.930 . S
C214 C215 1.474 . S
C214 C216 1.285 . S
C214 H234 0.929 . S
C215 C212 1.461 . S
C215 C214 1.474 . S
C216 C211 1.342 . S
C216 C214 1.285 . S
C216 H235 0.930 . S
C217 C220 1.424 . S
C217 C222 1.245 . S
C217 C223 1.428 . S
C218 C221 1.260 . S
C218 C222 1.477 . S
C218 H236 0.932 . S
C219 C220 1.384 . S
C219 C221 1.479 . S
C219 H237 0.929 . S
C220 C217 1.424 . S
C220 C219 1.384 . S
C220 H238 0.928 . S
C221 C218 1.260 . S
C221 C219 1.479 . S
C222 C217 1.245 . S
C222 C218 1.477 . S
C222 H239 0.932 . S
C223 U206 2.882 . S
C223 C217 1.428 . S
C223 O226 1.301 . S
C223 O227 1.282 . S
O224 U206 2.441 . S
O224 C210 1.249 . S
O225 U206 2.420 . S
O225 C210 1.202 . S
O226 U206 2.455 . S
O226 C223 1.301 . S
O227 U206 2.449 . S
O227 C223 1.282 . S
H228 C201 0.931 . S
H229 C203 0.929 . S
H230 C204 0.930 . S
H231 C205 0.931 . S
H232 C212 0.932 . S
H233 C213 0.930 . S
H234 C214 0.929 . S
H235 C216 0.930 . S
H236 C218 0.932 . S
H237 C219 0.929 . S
H238 C220 0.928 . S
H239 C222 0.932 . S
C240 C241 1.264 . S
C240 C245 1.479 . S
C240 C250 1.465 . S
C241 C240 1.264 . S
C241 C243 1.339 . S
C241 H268 0.931 . S
C242 C243 1.395 . S
C242 C244 1.320 . S
C243 C241 1.339 . S
C243 C242 1.395 . S
C243 H269 0.929 . S
C244 C242 1.320 . S
C244 C245 1.405 . S
C244 H270 0.930 . S
C245 C240 1.479 . S
C245 C244 1.405 . S
C245 H271 0.931 . S
U246 O247 2.454 . S
U246 O248 2.458 . S
U246 C249 2.984 . S
U246 C250 2.847 . S
U246 C263 2.882 . S
U246 O264 2.441 . S
U246 O265 2.420 . S
U246 O266 2.455 . S
U246 O267 2.449 . S
O247 U246 2.454 . S
O247 C249 1.353 . S
O248 U246 2.458 . S
O248 C249 1.286 . S
C249 U246 2.984 . S
C249 O247 1.353 . S
C249 O248 1.286 . S
C249 C251 1.363 . S
C250 C240 1.465 . S
C250 U246 2.847 . S
C250 O264 1.249 . S
C250 O265 1.202 . S
C251 C249 1.363 . S
C251 C253 1.408 . S
C251 C256 1.342 . S
C252 C253 1.310 . S
C252 C255 1.461 . S
C252 H272 0.932 . S
C253 C251 1.408 . S
C253 C252 1.310 . S
C253 H273 0.930 . S
C254 C255 1.474 . S
C254 C256 1.285 . S
C254 H274 0.929 . S
C255 C252 1.461 . S
C255 C254 1.474 . S
C256 C251 1.342 . S
C256 C254 1.285 . S
C256 H275 0.930 . S
C257 C260 1.424 . S
C257 C262 1.245 . S
C257 C263 1.428 . S
C258 C261 1.260 . S
C258 C262 1.477 . S
C258 H276 0.932 . S
C259 C260 1.384 . S
C259 C261 1.479 . S
C259 H277 0.929 . S
C260 C257 1.424 . S
C260 C259 1.384 . S
C260 H278 0.928 . S
C261 C258 1.260 . S
C261 C259 1.479 . S
C262 C257 1.245 . S
C262 C258 1.477 . S
C262 H279 0.932 . S
C263 U246 2.882 . S
C263 C257 1.428 . S
C263 O266 1.301 . S
C263 O267 1.282 . S
O264 U246 2.441 . S
O264 C250 1.249 . S
O265 U246 2.420 . S
O265 C250 1.202 . S
O266 U246 2.455 . S
O266 C263 1.301 . S
O267 U246 2.449 . S
O267 C263 1.282 . S
H268 C241 0.931 . S
H269 C243 0.929 . S
H270 C244 0.930 . S
H271 C245 0.931 . S
H272 C252 0.932 . S
H273 C253 0.930 . S
H274 C254 0.929 . S
H275 C256 0.930 . S
H276 C258 0.932 . S
H277 C259 0.929 . S
H278 C260 0.928 . S
H279 C262 0.932 . S
C280 C281 1.264 . S
C280 C285 1.479 . S
C280 C290 1.465 . S
C281 C280 1.264 . S
C281 C283 1.339 . S
C281 H308 0.931 . S
C282 C283 1.395 . S
C282 C284 1.320 . S
C283 C281 1.339 . S
C283 C282 1.395 . S
C283 H309 0.929 . S
C284 C282 1.320 . S
C284 C285 1.405 . S
C284 H310 0.930 . S
C285 C280 1.479 . S
C285 C284 1.405 . S
C285 H311 0.931 . S
U286 O287 2.454 . S
U286 O288 2.458 . S
U286 C289 2.984 . S
U286 C290 2.847 . S
U286 C303 2.882 . S
U286 O304 2.441 . S
U286 O305 2.420 . S
U286 O306 2.455 . S
U286 O307 2.449 . S
O287 U286 2.454 . S
O287 C289 1.353 . S
O288 U286 2.458 . S
O288 C289 1.286 . S
C289 U286 2.984 . S
C289 O287 1.353 . S
C289 O288 1.286 . S
C289 C291 1.363 . S
C290 C280 1.465 . S
C290 U286 2.847 . S
C290 O304 1.249 . S
C290 O305 1.202 . S
C291 C289 1.363 . S
C291 C293 1.408 . S
C291 C296 1.342 . S
C292 C293 1.310 . S
C292 C295 1.461 . S
C292 H312 0.932 . S
C293 C291 1.408 . S
C293 C292 1.310 . S
C293 H313 0.930 . S
C294 C295 1.474 . S
C294 C296 1.285 . S
C294 H314 0.929 . S
C295 C292 1.461 . S
C295 C294 1.474 . S
C296 C291 1.342 . S
C296 C294 1.285 . S
C296 H315 0.930 . S
C297 C300 1.424 . S
C297 C302 1.245 . S
C297 C303 1.428 . S
C298 C301 1.260 . S
C298 C302 1.477 . S
C298 H316 0.932 . S
C299 C300 1.384 . S
C299 C301 1.479 . S
C299 H317 0.929 . S
C300 C297 1.424 . S
C300 C299 1.384 . S
C300 H318 0.928 . S
C301 C298 1.260 . S
C301 C299 1.479 . S
C302 C297 1.245 . S
C302 C298 1.477 . S
C302 H319 0.932 . S
C303 U286 2.882 . S
C303 C297 1.428 . S
C303 O306 1.301 . S
C303 O307 1.282 . S
O304 U286 2.441 . S
O304 C290 1.249 . S
O305 U286 2.420 . S
O305 C290 1.202 . S
O306 U286 2.455 . S
O306 C303 1.301 . S
O307 U286 2.449 . S
O307 C303 1.282 . S
H308 C281 0.931 . S
H309 C283 0.929 . S
H310 C284 0.930 . S
H311 C285 0.931 . S
H312 C292 0.932 . S
H313 C293 0.930 . S
H314 C294 0.929 . S
H315 C296 0.930 . S
H316 C298 0.932 . S
H317 C299 0.929 . S
H318 C300 0.928 . S
H319 C302 0.932 . S
C320 C321 1.264 . S
C320 C325 1.479 . S
C320 C330 1.465 . S
C321 C320 1.264 . S
C321 C323 1.339 . S
C321 H348 0.931 . S
C322 C323 1.395 . S
C322 C324 1.320 . S
C323 C321 1.339 . S
C323 C322 1.395 . S
C323 H349 0.929 . S
C324 C322 1.320 . S
C324 C325 1.405 . S
C324 H350 0.930 . S
C325 C320 1.479 . S
C325 C324 1.405 . S
C325 H351 0.931 . S
U326 O327 2.454 . S
U326 O328 2.458 . S
U326 C329 2.984 . S
U326 C330 2.847 . S
U326 C343 2.882 . S
U326 O344 2.441 . S
U326 O345 2.420 . S
U326 O346 2.455 . S
U326 O347 2.449 . S
O327 U326 2.454 . S
O327 C329 1.353 . S
O328 U326 2.458 . S
O328 C329 1.286 . S
C329 U326 2.984 . S
C329 O327 1.353 . S
C329 O328 1.286 . S
C329 C331 1.363 . S
C330 C320 1.465 . S
C330 U326 2.847 . S
C330 O344 1.249 . S
C330 O345 1.202 . S
C331 C329 1.363 . S
C331 C333 1.408 . S
C331 C336 1.342 . S
C332 C333 1.310 . S
C332 C335 1.461 . S
C332 H352 0.932 . S
C333 C331 1.408 . S
C333 C332 1.310 . S
C333 H353 0.930 . S
C334 C335 1.474 . S
C334 C336 1.285 . S
C334 H354 0.929 . S
C335 C332 1.461 . S
C335 C334 1.474 . S
C336 C331 1.342 . S
C336 C334 1.285 . S
C336 H355 0.930 . S
C337 C340 1.424 . S
C337 C342 1.245 . S
C337 C343 1.428 . S
C338 C341 1.260 . S
C338 C342 1.477 . S
C338 H356 0.932 . S
C339 C340 1.384 . S
C339 C341 1.479 . S
C339 H357 0.929 . S
C340 C337 1.424 . S
C340 C339 1.384 . S
C340 H358 0.928 . S
C341 C338 1.260 . S
C341 C339 1.479 . S
C342 C337 1.245 . S
C342 C338 1.477 . S
C342 H359 0.932 . S
C343 U326 2.882 . S
C343 C337 1.428 . S
C343 O346 1.301 . S
C343 O347 1.282 . S
O344 U326 2.441 . S
O344 C330 1.249 . S
O345 U326 2.420 . S
O345 C330 1.202 . S
O346 U326 2.455 . S
O346 C343 1.301 . S
O347 U326 2.449 . S
O347 C343 1.282 . S
H348 C321 0.931 . S
H349 C323 0.929 . S
H350 C324 0.930 . S
H351 C325 0.931 . S
H352 C332 0.932 . S
H353 C333 0.930 . S
H354 C334 0.929 . S
H355 C336 0.930 . S
H356 C338 0.932 . S
H357 C339 0.929 . S
H358 C340 0.928 . S
H359 C342 0.932 . S
C360 C361 1.264 . S
C360 C365 1.479 . S
C360 C370 1.465 . S
C361 C360 1.264 . S
C361 C363 1.339 . S
C361 H388 0.931 . S
C362 C363 1.395 . S
C362 C364 1.320 . S
C363 C361 1.339 . S
C363 C362 1.395 . S
C363 H389 0.929 . S
C364 C362 1.320 . S
C364 C365 1.405 . S
C364 H390 0.930 . S
C365 C360 1.479 . S
C365 C364 1.405 . S
C365 H391 0.931 . S
U366 O367 2.454 . S
U366 O368 2.458 . S
U366 C369 2.984 . S
U366 C370 2.847 . S
U366 C383 2.882 . S
U366 O384 2.441 . S
U366 O385 2.420 . S
U366 O386 2.455 . S
U366 O387 2.449 . S
O367 U366 2.454 . S
O367 C369 1.353 . S
O368 U366 2.458 . S
O368 C369 1.286 . S
C369 U366 2.984 . S
C369 O367 1.353 . S
C369 O368 1.286 . S
C369 C371 1.363 . S
C370 C360 1.465 . S
C370 U366 2.847 . S
C370 O384 1.249 . S
C370 O385 1.202 . S
C371 C369 1.363 . S
C371 C373 1.408 . S
C371 C376 1.342 . S
C372 C373 1.310 . S
C372 C375 1.461 . S
C372 H392 0.932 . S
C373 C371 1.408 . S
C373 C372 1.310 . S
C373 H393 0.930 . S
C374 C375 1.474 . S
C374 C376 1.285 . S
C374 H394 0.929 . S
C375 C372 1.461 . S
C375 C374 1.474 . S
C376 C371 1.342 . S
C376 C374 1.285 . S
C376 H395 0.930 . S
C377 C380 1.424 . S
C377 C382 1.245 . S
C377 C383 1.428 . S
C378 C381 1.260 . S
C378 C382 1.477 . S
C378 H396 0.932 . S
C379 C380 1.384 . S
C379 C381 1.479 . S
C379 H397 0.929 . S
C380 C377 1.424 . S
C380 C379 1.384 . S
C380 H398 0.928 . S
C381 C378 1.260 . S
C381 C379 1.479 . S
C382 C377 1.245 . S
C382 C378 1.477 . S
C382 H399 0.932 . S
C383 U366 2.882 . S
C383 C377 1.428 . S
C383 O386 1.301 . S
C383 O387 1.282 . S
O384 U366 2.441 . S
O384 C370 1.249 . S
O385 U366 2.420 . S
O385 C370 1.202 . S
O386 U366 2.455 . S
O386 C383 1.301 . S
O387 U366 2.449 . S
O387 C383 1.282 . S
H388 C361 0.931 . S
H389 C363 0.929 . S
H390 C364 0.930 . S
H391 C365 0.931 . S
H392 C372 0.932 . S
H393 C373 0.930 . S
H394 C374 0.929 . S
H395 C376 0.930 . S
H396 C378 0.932 . S
H397 C379 0.929 . S
H398 C380 0.928 . S
H399 C382 0.932 . S
C400 C401 1.264 . S
C400 C405 1.479 . S
C400 C410 1.465 . S
C401 C400 1.264 . S
C401 C403 1.339 . S
C401 H428 0.931 . S
C402 C403 1.395 . S
C402 C404 1.320 . S
C403 C401 1.339 . S
C403 C402 1.395 . S
C403 H429 0.929 . S
C404 C402 1.320 . S
C404 C405 1.405 . S
C404 H430 0.930 . S
C405 C400 1.479 . S
C405 C404 1.405 . S
C405 H431 0.931 . S
U406 O407 2.454 . S
U406 O408 2.458 . S
U406 C409 2.984 . S
U406 C410 2.847 . S
U406 C423 2.882 . S
U406 O424 2.441 . S
U406 O425 2.420 . S
U406 O426 2.455 . S
U406 O427 2.449 . S
O407 U406 2.454 . S
O407 C409 1.353 . S
O408 U406 2.458 . S
O408 C409 1.286 . S
C409 U406 2.984 . S
C409 O407 1.353 . S
C409 O408 1.286 . S
C409 C411 1.363 . S
C410 C400 1.465 . S
C410 U406 2.847 . S
C410 O424 1.249 . S
C410 O425 1.202 . S
C411 C409 1.363 . S
C411 C413 1.408 . S
C411 C416 1.342 . S
C412 C413 1.310 . S
C412 C415 1.461 . S
C412 H432 0.932 . S
C413 C411 1.408 . S
C413 C412 1.310 . S
C413 H433 0.930 . S
C414 C415 1.474 . S
C414 C416 1.285 . S
C414 H434 0.929 . S
C415 C412 1.461 . S
C415 C414 1.474 . S
C416 C411 1.342 . S
C416 C414 1.285 . S
C416 H435 0.930 . S
C417 C420 1.424 . S
C417 C422 1.245 . S
C417 C423 1.428 . S
C418 C421 1.260 . S
C418 C422 1.477 . S
C418 H436 0.932 . S
C419 C420 1.384 . S
C419 C421 1.479 . S
C419 H437 0.929 . S
C420 C417 1.424 . S
C420 C419 1.384 . S
C420 H438 0.928 . S
C421 C418 1.260 . S
C421 C419 1.479 . S
C422 C417 1.245 . S
C422 C418 1.477 . S
C422 H439 0.932 . S
C423 U406 2.882 . S
C423 C417 1.428 . S
C423 O426 1.301 . S
C423 O427 1.282 . S
O424 U406 2.441 . S
O424 C410 1.249 . S
O425 U406 2.420 . S
O425 C410 1.202 . S
O426 U406 2.455 . S
O426 C423 1.301 . S
O427 U406 2.449 . S
O427 C423 1.282 . S
H428 C401 0.931 . S
H429 C403 0.929 . S
H430 C404 0.930 . S
H431 C405 0.931 . S
H432 C412 0.932 . S
H433 C413 0.930 . S
H434 C414 0.929 . S
H435 C416 0.930 . S
H436 C418 0.932 . S
H437 C419 0.929 . S
H438 C420 0.928 . S
H439 C422 0.932 . S
C440 C441 1.264 . S
C440 C445 1.479 . S
C440 C450 1.465 . S
C441 C440 1.264 . S
C441 C443 1.339 . S
C441 H468 0.931 . S
C442 C443 1.395 . S
C442 C444 1.320 . S
C443 C441 1.339 . S
C443 C442 1.395 . S
C443 H469 0.929 . S
C444 C442 1.320 . S
C444 C445 1.405 . S
C444 H470 0.930 . S
C445 C440 1.479 . S
C445 C444 1.405 . S
C445 H471 0.931 . S
U446 O447 2.454 . S
U446 O448 2.458 . S
U446 C449 2.984 . S
U446 C450 2.847 . S
U446 C463 2.882 . S
U446 O464 2.441 . S
U446 O465 2.420 . S
U446 O466 2.455 . S
U446 O467 2.449 . S
O447 U446 2.454 . S
O447 C449 1.353 . S
O448 U446 2.458 . S
O448 C449 1.286 . S
C449 U446 2.984 . S
C449 O447 1.353 . S
C449 O448 1.286 . S
C449 C451 1.363 . S
C450 C440 1.465 . S
C450 U446 2.847 . S
C450 O464 1.249 . S
C450 O465 1.202 . S
C451 C449 1.363 . S
C451 C453 1.408 . S
C451 C456 1.342 . S
C452 C453 1.310 . S
C452 C455 1.461 . S
C452 H472 0.932 . S
C453 C451 1.408 . S
C453 C452 1.310 . S
C453 H473 0.930 . S
C454 C455 1.474 . S
C454 C456 1.285 . S
C454 H474 0.929 . S
C455 C452 1.461 . S
C455 C454 1.474 . S
C456 C451 1.342 . S
C456 C454 1.285 . S
C456 H475 0.930 . S
C457 C460 1.424 . S
C457 C462 1.245 . S
C457 C463 1.428 . S
C458 C461 1.260 . S
C458 C462 1.477 . S
C458 H476 0.932 . S
C459 C460 1.384 . S
C459 C461 1.479 . S
C459 H477 0.929 . S
C460 C457 1.424 . S
C460 C459 1.384 . S
C460 H478 0.928 . S
C461 C458 1.260 . S
C461 C459 1.479 . S
C462 C457 1.245 . S
C462 C458 1.477 . S
C462 H479 0.932 . S
C463 U446 2.882 . S
C463 C457 1.428 . S
C463 O466 1.301 . S
C463 O467 1.282 . S
O464 U446 2.441 . S
O464 C450 1.249 . S
O465 U446 2.420 . S
O465 C450 1.202 . S
O466 U446 2.455 . S
O466 C463 1.301 . S
O467 U446 2.449 . S
O467 C463 1.282 . S
H468 C441 0.931 . S
H469 C443 0.929 . S
H470 C444 0.930 . S
H471 C445 0.931 . S
H472 C452 0.932 . S
H473 C453 0.930 . S
H474 C454 0.929 . S
H475 C456 0.930 . S
H476 C458 0.932 . S
H477 C459 0.929 . S
H478 C460 0.928 . S
H479 C462 0.932 . S
C480 C481 1.264 . S
C480 C485 1.479 . S
C480 C490 1.465 . S
C481 C480 1.264 . S
C481 C483 1.339 . S
C481 H508 0.931 . S
C482 C483 1.395 . S
C482 C484 1.320 . S
C483 C481 1.339 . S
C483 C482 1.395 . S
C483 H509 0.929 . S
C484 C482 1.320 . S
C484 C485 1.405 . S
C484 H510 0.930 . S
C485 C480 1.479 . S
C485 C484 1.405 . S
C485 H511 0.931 . S
U486 O487 2.454 . S
U486 O488 2.458 . S
U486 C489 2.984 . S
U486 C490 2.847 . S
U486 C503 2.882 . S
U486 O504 2.441 . S
U486 O505 2.420 . S
U486 O506 2.455 . S
U486 O507 2.449 . S
O487 U486 2.454 . S
O487 C489 1.353 . S
O488 U486 2.458 . S
O488 C489 1.286 . S
C489 U486 2.984 . S
C489 O487 1.353 . S
C489 O488 1.286 . S
C489 C491 1.363 . S
C490 C480 1.465 . S
C490 U486 2.847 . S
C490 O504 1.249 . S
C490 O505 1.202 . S
C491 C489 1.363 . S
C491 C493 1.408 . S
C491 C496 1.342 . S
C492 C493 1.310 . S
C492 C495 1.461 . S
C492 H512 0.932 . S
C493 C491 1.408 . S
C493 C492 1.310 . S
C493 H513 0.930 . S
C494 C495 1.474 . S
C494 C496 1.285 . S
C494 H514 0.929 . S
C495 C492 1.461 . S
C495 C494 1.474 . S
C496 C491 1.342 . S
C496 C494 1.285 . S
C496 H515 0.930 . S
C497 C500 1.424 . S
C497 C502 1.245 . S
C497 C503 1.428 . S
C498 C501 1.260 . S
C498 C502 1.477 . S
C498 H516 0.932 . S
C499 C500 1.384 . S
C499 C501 1.479 . S
C499 H517 0.929 . S
C500 C497 1.424 . S
C500 C499 1.384 . S
C500 H518 0.928 . S
C501 C498 1.260 . S
C501 C499 1.479 . S
C502 C497 1.245 . S
C502 C498 1.477 . S
C502 H519 0.932 . S
C503 U486 2.882 . S
C503 C497 1.428 . S
C503 O506 1.301 . S
C503 O507 1.282 . S
O504 U486 2.441 . S
O504 C490 1.249 . S
O505 U486 2.420 . S
O505 C490 1.202 . S
O506 U486 2.455 . S
O506 C503 1.301 . S
O507 U486 2.449 . S
O507 C503 1.282 . S
H508 C481 0.931 . S
H509 C483 0.929 . S
H510 C484 0.930 . S
H511 C485 0.931 . S
H512 C492 0.932 . S
H513 C493 0.930 . S
H514 C494 0.929 . S
H515 C496 0.930 . S
H516 C498 0.932 . S
H517 C499 0.929 . S
H518 C500 0.928 . S
H519 C502 0.932 . S
C520 C521 1.264 . S
C520 C525 1.479 . S
C520 C530 1.465 . S
C521 C520 1.264 . S
C521 C523 1.339 . S
C521 H548 0.931 . S
C522 C523 1.395 . S
C522 C524 1.320 . S
C523 C521 1.339 . S
C523 C522 1.395 . S
C523 H549 0.929 . S
C524 C522 1.320 . S
C524 C525 1.405 . S
C524 H550 0.930 . S
C525 C520 1.479 . S
C525 C524 1.405 . S
C525 H551 0.931 . S
U526 O527 2.454 . S
U526 O528 2.458 . S
U526 C529 2.984 . S
U526 C530 2.847 . S
U526 C543 2.882 . S
U526 O544 2.441 . S
U526 O545 2.420 . S
U526 O546 2.455 . S
U526 O547 2.449 . S
O527 U526 2.454 . S
O527 C529 1.353 . S
O528 U526 2.458 . S
O528 C529 1.286 . S
C529 U526 2.984 . S
C529 O527 1.353 . S
C529 O528 1.286 . S
C529 C531 1.363 . S
C530 C520 1.465 . S
C530 U526 2.847 . S
C530 O544 1.249 . S
C530 O545 1.202 . S
C531 C529 1.363 . S
C531 C533 1.408 . S
C531 C536 1.342 . S
C532 C533 1.310 . S
C532 C535 1.461 . S
C532 H552 0.932 . S
C533 C531 1.408 . S
C533 C532 1.310 . S
C533 H553 0.930 . S
C534 C535 1.474 . S
C534 C536 1.285 . S
C534 H554 0.929 . S
C535 C532 1.461 . S
C535 C534 1.474 . S
C536 C531 1.342 . S
C536 C534 1.285 . S
C536 H555 0.930 . S
C537 C540 1.424 . S
C537 C542 1.245 . S
C537 C543 1.428 . S
C538 C541 1.260 . S
C538 C542 1.477 . S
C538 H556 0.932 . S
C539 C540 1.384 . S
C539 C541 1.479 . S
C539 H557 0.929 . S
C540 C537 1.424 . S
C540 C539 1.384 . S
C540 H558 0.928 . S
C541 C538 1.260 . S
C541 C539 1.479 . S
C542 C537 1.245 . S
C542 C538 1.477 . S
C542 H559 0.932 . S
C543 U526 2.882 . S
C543 C537 1.428 . S
C543 O546 1.301 . S
C543 O547 1.282 . S
O544 U526 2.441 . S
O544 C530 1.249 . S
O545 U526 2.420 . S
O545 C530 1.202 . S
O546 U526 2.455 . S
O546 C543 1.301 . S
O547 U526 2.449 . S
O547 C543 1.282 . S
H548 C521 0.931 . S
H549 C523 0.929 . S
H550 C524 0.930 . S
H551 C525 0.931 . S
H552 C532 0.932 . S
H553 C533 0.930 . S
H554 C534 0.929 . S
H555 C536 0.930 . S
H556 C538 0.932 . S
H557 C539 0.929 . S
H558 C540 0.928 . S
H559 C542 0.932 . S
C560 C561 1.264 . S
C560 C565 1.479 . S
C560 C570 1.465 . S
C561 C560 1.264 . S
C561 C563 1.339 . S
C561 H588 0.931 . S
C562 C563 1.395 . S
C562 C564 1.320 . S
C563 C561 1.339 . S
C563 C562 1.395 . S
C563 H589 0.929 . S
C564 C562 1.320 . S
C564 C565 1.405 . S
C564 H590 0.930 . S
C565 C560 1.479 . S
C565 C564 1.405 . S
C565 H591 0.931 . S
U566 O567 2.454 . S
U566 O568 2.458 . S
U566 C569 2.984 . S
U566 C570 2.847 . S
U566 C583 2.882 . S
U566 O584 2.441 . S
U566 O585 2.420 . S
U566 O586 2.455 . S
U566 O587 2.449 . S
O567 U566 2.454 . S
O567 C569 1.353 . S
O568 U566 2.458 . S
O568 C569 1.286 . S
C569 U566 2.984 . S
C569 O567 1.353 . S
C569 O568 1.286 . S
C569 C571 1.363 . S
C570 C560 1.465 . S
C570 U566 2.847 . S
C570 O584 1.249 . S
C570 O585 1.202 . S
C571 C569 1.363 . S
C571 C573 1.408 . S
C571 C576 1.342 . S
C572 C573 1.310 . S
C572 C575 1.461 . S
C572 H592 0.932 . S
C573 C571 1.408 . S
C573 C572 1.310 . S
C573 H593 0.930 . S
C574 C575 1.474 . S
C574 C576 1.285 . S
C574 H594 0.929 . S
C575 C572 1.461 . S
C575 C574 1.474 . S
C576 C571 1.342 . S
C576 C574 1.285 . S
C576 H595 0.930 . S
C577 C580 1.424 . S
C577 C582 1.245 . S
C577 C583 1.428 . S
C578 C581 1.260 . S
C578 C582 1.477 . S
C578 H596 0.932 . S
C579 C580 1.384 . S
C579 C581 1.479 . S
C579 H597 0.929 . S
C580 C577 1.424 . S
C580 C579 1.384 . S
C580 H598 0.928 . S
C581 C578 1.260 . S
C581 C579 1.479 . S
C582 C577 1.245 . S
C582 C578 1.477 . S
C582 H599 0.932 . S
C583 U566 2.882 . S
C583 C577 1.428 . S
C583 O586 1.301 . S
C583 O587 1.282 . S
O584 U566 2.441 . S
O584 C570 1.249 . S
O585 U566 2.420 . S
O585 C570 1.202 . S
O586 U566 2.455 . S
O586 C583 1.301 . S
O587 U566 2.449 . S
O587 C583 1.282 . S
H588 C561 0.931 . S
H589 C563 0.929 . S
H590 C564 0.930 . S
H591 C565 0.931 . S
H592 C572 0.932 . S
H593 C573 0.930 . S
H594 C574 0.929 . S
H595 C576 0.930 . S
H596 C578 0.932 . S
H597 C579 0.929 . S
H598 C580 0.928 . S
H599 C582 0.932 . S
C600 C601 1.264 . S
C600 C605 1.479 . S
C600 C610 1.465 . S
C601 C600 1.264 . S
C601 C603 1.339 . S
C601 H628 0.931 . S
C602 C603 1.395 . S
C602 C604 1.320 . S
C603 C601 1.339 . S
C603 C602 1.395 . S
C603 H629 0.929 . S
C604 C602 1.320 . S
C604 C605 1.405 . S
C604 H630 0.930 . S
C605 C600 1.479 . S
C605 C604 1.405 . S
C605 H631 0.931 . S
U606 O607 2.454 . S
U606 O608 2.458 . S
U606 C609 2.984 . S
U606 C610 2.847 . S
U606 C623 2.882 . S
U606 O624 2.441 . S
U606 O625 2.420 . S
U606 O626 2.455 . S
U606 O627 2.449 . S
O607 U606 2.454 . S
O607 C609 1.353 . S
O608 U606 2.458 . S
O608 C609 1.286 . S
C609 U606 2.984 . S
C609 O607 1.353 . S
C609 O608 1.286 . S
C609 C611 1.363 . S
C610 C600 1.465 . S
C610 U606 2.847 . S
C610 O624 1.249 . S
C610 O625 1.202 . S
C611 C609 1.363 . S
C611 C613 1.408 . S
C611 C616 1.342 . S
C612 C613 1.310 . S
C612 C615 1.461 . S
C612 H632 0.932 . S
C613 C611 1.408 . S
C613 C612 1.310 . S
C613 H633 0.930 . S
C614 C615 1.474 . S
C614 C616 1.285 . S
C614 H634 0.929 . S
C615 C612 1.461 . S
C615 C614 1.474 . S
C616 C611 1.342 . S
C616 C614 1.285 . S
C616 H635 0.930 . S
C617 C620 1.424 . S
C617 C622 1.245 . S
C617 C623 1.428 . S
C618 C621 1.260 . S
C618 C622 1.477 . S
C618 H636 0.932 . S
C619 C620 1.384 . S
C619 C621 1.479 . S
C619 H637 0.929 . S
C620 C617 1.424 . S
C620 C619 1.384 . S
C620 H638 0.928 . S
C621 C618 1.260 . S
C621 C619 1.479 . S
C622 C617 1.245 . S
C622 C618 1.477 . S
C622 H639 0.932 . S
C623 U606 2.882 . S
C623 C617 1.428 . S
C623 O626 1.301 . S
C623 O627 1.282 . S
O624 U606 2.441 . S
O624 C610 1.249 . S
O625 U606 2.420 . S
O625 C610 1.202 . S
O626 U606 2.455 . S
O626 C623 1.301 . S
O627 U606 2.449 . S
O627 C623 1.282 . S
H628 C601 0.931 . S
H629 C603 0.929 . S
H630 C604 0.930 . S
H631 C605 0.931 . S
H632 C612 0.932 . S
H633 C613 0.930 . S
H634 C614 0.929 . S
H635 C616 0.930 . S
H636 C618 0.932 . S
H637 C619 0.929 . S
H638 C620 0.928 . S
H639 C622 0.932 . S
C640 C641 1.264 . S
C640 C645 1.479 . S
C640 C650 1.465 . S
C641 C640 1.264 . S
C641 C643 1.339 . S
C641 H668 0.931 . S
C642 C643 1.395 . S
C642 C644 1.320 . S
C643 C641 1.339 . S
C643 C642 1.395 . S
C643 H669 0.929 . S
C644 C642 1.320 . S
C644 C645 1.405 . S
C644 H670 0.930 . S
C645 C640 1.479 . S
C645 C644 1.405 . S
C645 H671 0.931 . S
U646 O647 2.454 . S
U646 O648 2.458 . S
U646 C649 2.984 . S
U646 C650 2.847 . S
U646 C663 2.882 . S
U646 O664 2.441 . S
U646 O665 2.420 . S
U646 O666 2.455 . S
U646 O667 2.449 . S
O647 U646 2.454 . S
O647 C649 1.353 . S
O648 U646 2.458 . S
O648 C649 1.286 . S
C649 U646 2.984 . S
C649 O647 1.353 . S
C649 O648 1.286 . S
C649 C651 1.363 . S
C650 C640 1.465 . S
C650 U646 2.847 . S
C650 O664 1.249 . S
C650 O665 1.202 . S
C651 C649 1.363 . S
C651 C653 1.408 . S
C651 C656 1.342 . S
C652 C653 1.310 . S
C652 C655 1.461 . S
C652 H672 0.932 . S
C653 C651 1.408 . S
C653 C652 1.310 . S
C653 H673 0.930 . S
C654 C655 1.474 . S
C654 C656 1.285 . S
C654 H674 0.929 . S
C655 C652 1.461 . S
C655 C654 1.474 . S
C656 C651 1.342 . S
C656 C654 1.285 . S
C656 H675 0.930 . S
C657 C660 1.424 . S
C657 C662 1.245 . S
C657 C663 1.428 . S
C658 C661 1.260 . S
C658 C662 1.477 . S
C658 H676 0.932 . S
C659 C660 1.384 . S
C659 C661 1.479 . S
C659 H677 0.929 . S
C660 C657 1.424 . S
C660 C659 1.384 . S
C660 H678 0.928 . S
C661 C658 1.260 . S
C661 C659 1.479 . S
C662 C657 1.245 . S
C662 C658 1.477 . S
C662 H679 0.932 . S
C663 U646 2.882 . S
C663 C657 1.428 . S
C663 O666 1.301 . S
C663 O667 1.282 . S
O664 U646 2.441 . S
O664 C650 1.249 . S
O665 U646 2.420 . S
O665 C650 1.202 . S
O666 U646 2.455 . S
O666 C663 1.301 . S
O667 U646 2.449 . S
O667 C663 1.282 . S
H668 C641 0.931 . S
H669 C643 0.929 . S
H670 C644 0.930 . S
H671 C645 0.931 . S
H672 C652 0.932 . S
H673 C653 0.930 . S
H674 C654 0.929 . S
H675 C656 0.930 . S
H676 C658 0.932 . S
H677 C659 0.929 . S
H678 C660 0.928 . S
H679 C662 0.932 . S
C680 C681 1.264 . S
C680 C685 1.479 . S
C680 C690 1.465 . S
C681 C680 1.264 . S
C681 C683 1.339 . S
C681 H708 0.931 . S
C682 C683 1.395 . S
C682 C684 1.320 . S
C683 C681 1.339 . S
C683 C682 1.395 . S
C683 H709 0.929 . S
C684 C682 1.320 . S
C684 C685 1.405 . S
C684 H710 0.930 . S
C685 C680 1.479 . S
C685 C684 1.405 . S
C685 H711 0.931 . S
U686 O687 2.454 . S
U686 O688 2.458 . S
U686 C689 2.984 . S
U686 C690 2.847 . S
U686 C703 2.882 . S
U686 O704 2.441 . S
U686 O705 2.420 . S
U686 O706 2.455 . S
U686 O707 2.449 . S
O687 U686 2.454 . S
O687 C689 1.353 . S
O688 U686 2.458 . S
O688 C689 1.286 . S
C689 U686 2.984 . S
C689 O687 1.353 . S
C689 O688 1.286 . S
C689 C691 1.363 . S
C690 C680 1.465 . S
C690 U686 2.847 . S
C690 O704 1.249 . S
C690 O705 1.202 . S
C691 C689 1.363 . S
C691 C693 1.408 . S
C691 C696 1.342 . S
C692 C693 1.310 . S
C692 C695 1.461 . S
C692 H712 0.932 . S
C693 C691 1.408 . S
C693 C692 1.310 . S
C693 H713 0.930 . S
C694 C695 1.474 . S
C694 C696 1.285 . S
C694 H714 0.929 . S
C695 C692 1.461 . S
C695 C694 1.474 . S
C696 C691 1.342 . S
C696 C694 1.285 . S
C696 H715 0.930 . S
C697 C700 1.424 . S
C697 C702 1.245 . S
C697 C703 1.428 . S
C698 C701 1.260 . S
C698 C702 1.477 . S
C698 H716 0.932 . S
C699 C700 1.384 . S
C699 C701 1.479 . S
C699 H717 0.929 . S
C700 C697 1.424 . S
C700 C699 1.384 . S
C700 H718 0.928 . S
C701 C698 1.260 . S
C701 C699 1.479 . S
C702 C697 1.245 . S
C702 C698 1.477 . S
C702 H719 0.932 . S
C703 U686 2.882 . S
C703 C697 1.428 . S
C703 O706 1.301 . S
C703 O707 1.282 . S
O704 U686 2.441 . S
O704 C690 1.249 . S
O705 U686 2.420 . S
O705 C690 1.202 . S
O706 U686 2.455 . S
O706 C703 1.301 . S
O707 U686 2.449 . S
O707 C703 1.282 . S
H708 C681 0.931 . S
H709 C683 0.929 . S
H710 C684 0.930 . S
H711 C685 0.931 . S
H712 C692 0.932 . S
H713 C693 0.930 . S
H714 C694 0.929 . S
H715 C696 0.930 . S
H716 C698 0.932 . S
H717 C699 0.929 . S
H718 C700 0.928 . S
H719 C702 0.932 . S
C720 C721 1.264 . S
C720 C725 1.479 . S
C720 C730 1.465 . S
C721 C720 1.264 . S
C721 C723 1.339 . S
C721 H748 0.931 . S
C722 C723 1.395 . S
C722 C724 1.320 . S
C723 C721 1.339 . S
C723 C722 1.395 . S
C723 H749 0.929 . S
C724 C722 1.320 . S
C724 C725 1.405 . S
C724 H750 0.930 . S
C725 C720 1.479 . S
C725 C724 1.405 . S
C725 H751 0.931 . S
U726 O727 2.454 . S
U726 O728 2.458 . S
U726 C729 2.984 . S
U726 C730 2.847 . S
U726 C743 2.882 . S
U726 O744 2.441 . S
U726 O745 2.420 . S
U726 O746 2.455 . S
U726 O747 2.449 . S
O727 U726 2.454 . S
O727 C729 1.353 . S
O728 U726 2.458 . S
O728 C729 1.286 . S
C729 U726 2.984 . S
C729 O727 1.353 . S
C729 O728 1.286 . S
C729 C731 1.363 . S
C730 C720 1.465 . S
C730 U726 2.847 . S
C730 O744 1.249 . S
C730 O745 1.202 . S
C731 C729 1.363 . S
C731 C733 1.408 . S
C731 C736 1.342 . S
C732 C733 1.310 . S
C732 C735 1.461 . S
C732 H752 0.932 . S
C733 C731 1.408 . S
C733 C732 1.310 . S
C733 H753 0.930 . S
C734 C735 1.474 . S
C734 C736 1.285 . S
C734 H754 0.929 . S
C735 C732 1.461 . S
C735 C734 1.474 . S
C736 C731 1.342 . S
C736 C734 1.285 . S
C736 H755 0.930 . S
C737 C740 1.424 . S
C737 C742 1.245 . S
C737 C743 1.428 . S
C738 C741 1.260 . S
C738 C742 1.477 . S
C738 H756 0.932 . S
C739 C740 1.384 . S
C739 C741 1.479 . S
C739 H757 0.929 . S
C740 C737 1.424 . S
C740 C739 1.384 . S
C740 H758 0.928 . S
C741 C738 1.260 . S
C741 C739 1.479 . S
C742 C737 1.245 . S
C742 C738 1.477 . S
C742 H759 0.932 . S
C743 U726 2.882 . S
C743 C737 1.428 . S
C743 O746 1.301 . S
C743 O747 1.282 . S
O744 U726 2.441 . S
O744 C730 1.249 . S
O745 U726 2.420 . S
O745 C730 1.202 . S
O746 U726 2.455 . S
O746 C743 1.301 . S
O747 U726 2.449 . S
O747 C743 1.282 . S
H748 C721 0.931 . S
H749 C723 0.929 . S
H750 C724 0.930 . S
H751 C725 0.931 . S
H752 C732 0.932 . S
H753 C733 0.930 . S
H754 C734 0.929 . S
H755 C736 0.930 . S
H756 C738 0.932 . S
H757 C739 0.929 . S
H758 C740 0.928 . S
H759 C742 0.932 . S
C760 C761 1.264 . S
C760 C765 1.479 . S
C760 C770 1.465 . S
C761 C760 1.264 . S
C761 C763 1.339 . S
C761 H788 0.931 . S
C762 C763 1.395 . S
C762 C764 1.320 . S
C763 C761 1.339 . S
C763 C762 1.395 . S
C763 H789 0.929 . S
C764 C762 1.320 . S
C764 C765 1.405 . S
C764 H790 0.930 . S
C765 C760 1.479 . S
C765 C764 1.405 . S
C765 H791 0.931 . S
U766 O767 2.454 . S
U766 O768 2.458 . S
U766 C769 2.984 . S
U766 C770 2.847 . S
U766 C783 2.882 . S
U766 O784 2.441 . S
U766 O785 2.420 . S
U766 O786 2.455 . S
U766 O787 2.449 . S
O767 U766 2.454 . S
O767 C769 1.353 . S
O768 U766 2.458 . S
O768 C769 1.286 . S
C769 U766 2.984 . S
C769 O767 1.353 . S
C769 O768 1.286 . S
C769 C771 1.363 . S
C770 C760 1.465 . S
C770 U766 2.847 . S
C770 O784 1.249 . S
C770 O785 1.202 . S
C771 C769 1.363 . S
C771 C773 1.408 . S
C771 C776 1.342 . S
C772 C773 1.310 . S
C772 C775 1.461 . S
C772 H792 0.932 . S
C773 C771 1.408 . S
C773 C772 1.310 . S
C773 H793 0.930 . S
C774 C775 1.474 . S
C774 C776 1.285 . S
C774 H794 0.929 . S
C775 C772 1.461 . S
C775 C774 1.474 . S
C776 C771 1.342 . S
C776 C774 1.285 . S
C776 H795 0.930 . S
C777 C780 1.424 . S
C777 C782 1.245 . S
C777 C783 1.428 . S
C778 C781 1.260 . S
C778 C782 1.477 . S
C778 H796 0.932 . S
C779 C780 1.384 . S
C779 C781 1.479 . S
C779 H797 0.929 . S
C780 C777 1.424 . S
C780 C779 1.384 . S
C780 H798 0.928 . S
C781 C778 1.260 . S
C781 C779 1.479 . S
C782 C777 1.245 . S
C782 C778 1.477 . S
C782 H799 0.932 . S
C783 U766 2.882 . S
C783 C777 1.428 . S
C783 O786 1.301 . S
C783 O787 1.282 . S
O784 U766 2.441 . S
O784 C770 1.249 . S
O785 U766 2.420 . S
O785 C770 1.202 . S
O786 U766 2.455 . S
O786 C783 1.301 . S
O787 U766 2.449 . S
O787 C783 1.282 . S
H788 C761 0.931 . S
H789 C763 0.929 . S
H790 C764 0.930 . S
H791 C765 0.931 . S
H792 C772 0.932 . S
H793 C773 0.930 . S
H794 C774 0.929 . S
H795 C776 0.930 . S
H796 C778 0.932 . S
H797 C779 0.929 . S
H798 C780 0.928 . S
H799 C782 0.932 . S
C800 C801 1.264 . S
C800 C805 1.479 . S
C800 C810 1.465 . S
C801 C800 1.264 . S
C801 C803 1.339 . S
C801 H828 0.931 . S
C802 C803 1.395 . S
C802 C804 1.320 . S
C803 C801 1.339 . S
C803 C802 1.395 . S
C803 H829 0.929 . S
C804 C802 1.320 . S
C804 C805 1.405 . S
C804 H830 0.930 . S
C805 C800 1.479 . S
C805 C804 1.405 . S
C805 H831 0.931 . S
U806 O807 2.454 . S
U806 O808 2.458 . S
U806 C809 2.984 . S
U806 C810 2.847 . S
U806 C823 2.882 . S
U806 O824 2.441 . S
U806 O825 2.420 . S
U806 O826 2.455 . S
U806 O827 2.449 . S
O807 U806 2.454 . S
O807 C809 1.353 . S
O808 U806 2.458 . S
O808 C809 1.286 . S
C809 U806 2.984 . S
C809 O807 1.353 . S
C809 O808 1.286 . S
C809 C811 1.363 . S
C810 C800 1.465 . S
C810 U806 2.847 . S
C810 O824 1.249 . S
C810 O825 1.202 . S
C811 C809 1.363 . S
C811 C813 1.408 . S
C811 C816 1.342 . S
C812 C813 1.310 . S
C812 C815 1.461 . S
C812 H832 0.932 . S
C813 C811 1.408 . S
C813 C812 1.310 . S
C813 H833 0.930 . S
C814 C815 1.474 . S
C814 C816 1.285 . S
C814 H834 0.929 . S
C815 C812 1.461 . S
C815 C814 1.474 . S
C816 C811 1.342 . S
C816 C814 1.285 . S
C816 H835 0.930 . S
C817 C820 1.424 . S
C817 C822 1.245 . S
C817 C823 1.428 . S
C818 C821 1.260 . S
C818 C822 1.477 . S
C818 H836 0.932 . S
C819 C820 1.384 . S
C819 C821 1.479 . S
C819 H837 0.929 . S
C820 C817 1.424 . S
C820 C819 1.384 . S
C820 H838 0.928 . S
C821 C818 1.260 . S
C821 C819 1.479 . S
C822 C817 1.245 . S
C822 C818 1.477 . S
C822 H839 0.932 . S
C823 U806 2.882 . S
C823 C817 1.428 . S
C823 O826 1.301 . S
C823 O827 1.282 . S
O824 U806 2.441 . S
O824 C810 1.249 . S
O825 U806 2.420 . S
O825 C810 1.202 . S
O826 U806 2.455 . S
O826 C823 1.301 . S
O827 U806 2.449 . S
O827 C823 1.282 . S
H828 C801 0.931 . S
H829 C803 0.929 . S
H830 C804 0.930 . S
H831 C805 0.931 . S
H832 C812 0.932 . S
H833 C813 0.930 . S
H834 C814 0.929 . S
H835 C816 0.930 . S
H836 C818 0.932 . S
H837 C819 0.929 . S
H838 C820 0.928 . S
H839 C822 0.932 . S
C840 C841 1.264 . S
C840 C845 1.479 . S
C840 C850 1.465 . S
C841 C840 1.264 . S
C841 C843 1.339 . S
C841 H868 0.931 . S
C842 C843 1.395 . S
C842 C844 1.320 . S
C843 C841 1.339 . S
C843 C842 1.395 . S
C843 H869 0.929 . S
C844 C842 1.320 . S
C844 C845 1.405 . S
C844 H870 0.930 . S
C845 C840 1.479 . S
C845 C844 1.405 . S
C845 H871 0.931 . S
U846 O847 2.454 . S
U846 O848 2.458 . S
U846 C849 2.984 . S
U846 C850 2.847 . S
U846 C863 2.882 . S
U846 O864 2.441 . S
U846 O865 2.420 . S
U846 O866 2.455 . S
U846 O867 2.449 . S
O847 U846 2.454 . S
O847 C849 1.353 . S
O848 U846 2.458 . S
O848 C849 1.286 . S
C849 U846 2.984 . S
C849 O847 1.353 . S
C849 O848 1.286 . S
C849 C851 1.363 . S
C850 C840 1.465 . S
C850 U846 2.847 . S
C850 O864 1.249 . S
C850 O865 1.202 . S
C851 C849 1.363 . S
C851 C853 1.408 . S
C851 C856 1.342 . S
C852 C853 1.310 . S
C852 C855 1.461 . S
C852 H872 0.932 . S
C853 C851 1.408 . S
C853 C852 1.310 . S
C853 H873 0.930 . S
C854 C855 1.474 . S
C854 C856 1.285 . S
C854 H874 0.929 . S
C855 C852 1.461 . S
C855 C854 1.474 . S
C856 C851 1.342 . S
C856 C854 1.285 . S
C856 H875 0.930 . S
C857 C860 1.424 . S
C857 C862 1.245 . S
C857 C863 1.428 . S
C858 C861 1.260 . S
C858 C862 1.477 . S
C858 H876 0.932 . S
C859 C860 1.384 . S
C859 C861 1.479 . S
C859 H877 0.929 . S
C860 C857 1.424 . S
C860 C859 1.384 . S
C860 H878 0.928 . S
C861 C858 1.260 . S
C861 C859 1.479 . S
C862 C857 1.245 . S
C862 C858 1.477 . S
C862 H879 0.932 . S
C863 U846 2.882 . S
C863 C857 1.428 . S
C863 O866 1.301 . S
C863 O867 1.282 . S
O864 U846 2.441 . S
O864 C850 1.249 . S
O865 U846 2.420 . S
O865 C850 1.202 . S
O866 U846 2.455 . S
O866 C863 1.301 . S
O867 U846 2.449 . S
O867 C863 1.282 . S
H868 C841 0.931 . S
H869 C843 0.929 . S
H870 C844 0.930 . S
H871 C845 0.931 . S
H872 C852 0.932 . S
H873 C853 0.930 . S
H874 C854 0.929 . S
H875 C856 0.930 . S
H876 C858 0.932 . S
H877 C859 0.929 . S
H878 C860 0.928 . S
H879 C862 0.932 . S
C880 C881 1.264 . S
C880 C885 1.479 . S
C880 C890 1.465 . S
C881 C880 1.264 . S
C881 C883 1.339 . S
C881 H908 0.931 . S
C882 C883 1.395 . S
C882 C884 1.320 . S
C883 C881 1.339 . S
C883 C882 1.395 . S
C883 H909 0.929 . S
C884 C882 1.320 . S
C884 C885 1.405 . S
C884 H910 0.930 . S
C885 C880 1.479 . S
C885 C884 1.405 . S
C885 H911 0.931 . S
U886 O887 2.454 . S
U886 O888 2.458 . S
U886 C889 2.984 . S
U886 C890 2.847 . S
U886 C903 2.882 . S
U886 O904 2.441 . S
U886 O905 2.420 . S
U886 O906 2.455 . S
U886 O907 2.449 . S
O887 U886 2.454 . S
O887 C889 1.353 . S
O888 U886 2.458 . S
O888 C889 1.286 . S
C889 U886 2.984 . S
C889 O887 1.353 . S
C889 O888 1.286 . S
C889 C891 1.363 . S
C890 C880 1.465 . S
C890 U886 2.847 . S
C890 O904 1.249 . S
C890 O905 1.202 . S
C891 C889 1.363 . S
C891 C893 1.408 . S
C891 C896 1.342 . S
C892 C893 1.310 . S
C892 C895 1.461 . S
C892 H912 0.932 . S
C893 C891 1.408 . S
C893 C892 1.310 . S
C893 H913 0.930 . S
C894 C895 1.474 . S
C894 C896 1.285 . S
C894 H914 0.929 . S
C895 C892 1.461 . S
C895 C894 1.474 . S
C896 C891 1.342 . S
C896 C894 1.285 . S
C896 H915 0.930 . S
C897 C900 1.424 . S
C897 C902 1.245 . S
C897 C903 1.428 . S
C898 C901 1.260 . S
C898 C902 1.477 . S
C898 H916 0.932 . S
C899 C900 1.384 . S
C899 C901 1.479 . S
C899 H917 0.929 . S
C900 C897 1.424 . S
C900 C899 1.384 . S
C900 H918 0.928 . S
C901 C898 1.260 . S
C901 C899 1.479 . S
C902 C897 1.245 . S
C902 C898 1.477 . S
C902 H919 0.932 . S
C903 U886 2.882 . S
C903 C897 1.428 . S
C903 O906 1.301 . S
C903 O907 1.282 . S
O904 U886 2.441 . S
O904 C890 1.249 . S
O905 U886 2.420 . S
O905 C890 1.202 . S
O906 U886 2.455 . S
O906 C903 1.301 . S
O907 U886 2.449 . S
O907 C903 1.282 . S
H908 C881 0.931 . S
H909 C883 0.929 . S
H910 C884 0.930 . S
H911 C885 0.931 . S
H912 C892 0.932 . S
H913 C893 0.930 . S
H914 C894 0.929 . S
H915 C896 0.930 . S
H916 C898 0.932 . S
H917 C899 0.929 . S
H918 C900 0.928 . S
H919 C902 0.932 . S
C920 C921 1.264 . S
C920 C925 1.479 . S
C920 C930 1.465 . S
C921 C920 1.264 . S
C921 C923 1.339 . S
C921 H948 0.931 . S
C922 C923 1.395 . S
C922 C924 1.320 . S
C923 C921 1.339 . S
C923 C922 1.395 . S
C923 H949 0.929 . S
C924 C922 1.320 . S
C924 C925 1.405 . S
C924 H950 0.930 . S
C925 C920 1.479 . S
C925 C924 1.405 . S
C925 H951 0.931 . S
U926 O927 2.454 . S
U926 O928 2.458 . S
U926 C929 2.984 . S
U926 C930 2.847 . S
U926 C943 2.882 . S
U926 O944 2.441 . S
U926 O945 2.420 . S
U926 O946 2.455 . S
U926 O947 2.449 . S
O927 U926 2.454 . S
O927 C929 1.353 . S
O928 U926 2.458 . S
O928 C929 1.286 . S
C929 U926 2.984 . S
C929 O927 1.353 . S
C929 O928 1.286 . S
C929 C931 1.363 . S
C930 C920 1.465 . S
C930 U926 2.847 . S
C930 O944 1.249 . S
C930 O945 1.202 . S
C931 C929 1.363 . S
C931 C933 1.408 . S
C931 C936 1.342 . S
C932 C933 1.310 . S
C932 C935 1.461 . S
C932 H952 0.932 . S
C933 C931 1.408 . S
C933 C932 1.310 . S
C933 H953 0.930 . S
C934 C935 1.474 . S
C934 C936 1.285 . S
C934 H954 0.929 . S
C935 C932 1.461 . S
C935 C934 1.474 . S
C936 C931 1.342 . S
C936 C934 1.285 . S
C936 H955 0.930 . S
C937 C940 1.424 . S
C937 C942 1.245 . S
C937 C943 1.428 . S
C938 C941 1.260 . S
C938 C942 1.477 . S
C938 H956 0.932 . S
C939 C940 1.384 . S
C939 C941 1.479 . S
C939 H957 0.929 . S
C940 C937 1.424 . S
C940 C939 1.384 . S
C940 H958 0.928 . S
C941 C938 1.260 . S
C941 C939 1.479 . S
C942 C937 1.245 . S
C942 C938 1.477 . S
C942 H959 0.932 . S
C943 U926 2.882 . S
C943 C937 1.428 . S
C943 O946 1.301 . S
C943 O947 1.282 . S
O944 U926 2.441 . S
O944 C930 1.249 . S
O945 U926 2.420 . S
O945 C930 1.202 . S
O946 U926 2.455 . S
O946 C943 1.301 . S
O947 U926 2.449 . S
O947 C943 1.282 . S
H948 C921 0.931 . S
H949 C923 0.929 . S
H950 C924 0.930 . S
H951 C925 0.931 . S
H952 C932 0.932 . S
H953 C933 0.930 . S
H954 C934 0.929 . S
H955 C936 0.930 . S
H956 C938 0.932 . S
H957 C939 0.929 . S
H958 C940 0.928 . S
H959 C942 0.932 . S
C960 C961 1.264 . S
C960 C965 1.479 . S
C960 C970 1.465 . S
C961 C960 1.264 . S
C961 C963 1.339 . S
C961 H988 0.931 . S
C962 C963 1.395 . S
C962 C964 1.320 . S
C963 C961 1.339 . S
C963 C962 1.395 . S
C963 H989 0.929 . S
C964 C962 1.320 . S
C964 C965 1.405 . S
C964 H990 0.930 . S
C965 C960 1.479 . S
C965 C964 1.405 . S
C965 H991 0.931 . S
U966 O967 2.454 . S
U966 O968 2.458 . S
U966 C969 2.984 . S
U966 C970 2.847 . S
U966 C983 2.882 . S
U966 O984 2.441 . S
U966 O985 2.420 . S
U966 O986 2.455 . S
U966 O987 2.449 . S
O967 U966 2.454 . S
O967 C969 1.353 . S
O968 U966 2.458 . S
O968 C969 1.286 . S
C969 U966 2.984 . S
C969 O967 1.353 . S
C969 O968 1.286 . S
C969 C971 1.363 . S
C970 C960 1.465 . S
C970 U966 2.847 . S
C970 O984 1.249 . S
C970 O985 1.202 . S
C971 C969 1.363 . S
C971 C973 1.408 . S
C971 C976 1.342 . S
C972 C973 1.310 . S
C972 C975 1.461 . S
C972 H992 0.932 . S
C973 C971 1.408 . S
C973 C972 1.310 . S
C973 H993 0.930 . S
C974 C975 1.474 . S
C974 C976 1.285 . S
C974 H994 0.929 . S
C975 C972 1.461 . S
C975 C974 1.474 . S
C976 C971 1.342 . S
C976 C974 1.285 . S
C976 H995 0.930 . S
C977 C980 1.424 . S
C977 C982 1.245 . S
C977 C983 1.428 . S
C978 C981 1.260 . S
C978 C982 1.477 . S
C978 H996 0.932 . S
C979 C980 1.384 . S
C979 C981 1.479 . S
C979 H997 0.929 . S
C980 C977 1.424 . S
C980 C979 1.384 . S
C980 H998 0.928 . S
C981 C978 1.260 . S
C981 C979 1.479 . S
C982 C977 1.245 . S
C982 C978 1.477 . S
C982 H999 0.932 . S
C983 U966 2.882 . S
C983 C977 1.428 . S
C983 O986 1.301 . S
C983 O987 1.282 . S
O984 U966 2.441 . S
O984 C970 1.249 . S
O985 U966 2.420 . S
O985 C970 1.202 . S
O986 U966 2.455 . S
O986 C983 1.301 . S
O987 U966 2.449 . S
O987 C983 1.282 . S
H988 C961 0.931 . S
H989 C963 0.929 . S
H990 C964 0.930 . S
H991 C965 0.931 . S
H992 C972 0.932 . S
H993 C973 0.930 . S
H994 C974 0.929 . S
H995 C976 0.930 . S
H996 C978 0.932 . S
H997 C979 0.929 . S
H998 C980 0.928 . S
H999 C982 0.932 . S
C1000 C1001 1.264 . S
C1000 C1005 1.479 . S
C1000 C1010 1.465 . S
C1001 C1000 1.264 . S
C1001 C1003 1.339 . S
C1001 H1028 0.931 . S
C1002 C1003 1.395 . S
C1002 C1004 1.320 . S
C1003 C1001 1.339 . S
C1003 C1002 1.395 . S
C1003 H1029 0.929 . S
C1004 C1002 1.320 . S
C1004 C1005 1.405 . S
C1004 H1030 0.930 . S
C1005 C1000 1.479 . S
C1005 C1004 1.405 . S
C1005 H1031 0.931 . S
U1006 O1007 2.454 . S
U1006 O1008 2.458 . S
U1006 C1009 2.984 . S
U1006 C1010 2.847 . S
U1006 C1023 2.882 . S
U1006 O1024 2.441 . S
U1006 O1025 2.420 . S
U1006 O1026 2.455 . S
U1006 O1027 2.449 . S
O1007 U1006 2.454 . S
O1007 C1009 1.353 . S
O1008 U1006 2.458 . S
O1008 C1009 1.286 . S
C1009 U1006 2.984 . S
C1009 O1007 1.353 . S
C1009 O1008 1.286 . S
C1009 C1011 1.363 . S
C1010 C1000 1.465 . S
C1010 U1006 2.847 . S
C1010 O1024 1.249 . S
C1010 O1025 1.202 . S
C1011 C1009 1.363 . S
C1011 C1013 1.408 . S
C1011 C1016 1.342 . S
C1012 C1013 1.310 . S
C1012 C1015 1.461 . S
C1012 H1032 0.932 . S
C1013 C1011 1.408 . S
C1013 C1012 1.310 . S
C1013 H1033 0.930 . S
C1014 C1015 1.474 . S
C1014 C1016 1.285 . S
C1014 H1034 0.929 . S
C1015 C1012 1.461 . S
C1015 C1014 1.474 . S
C1016 C1011 1.342 . S
C1016 C1014 1.285 . S
C1016 H1035 0.930 . S
C1017 C1020 1.424 . S
C1017 C1022 1.245 . S
C1017 C1023 1.428 . S
C1018 C1021 1.260 . S
C1018 C1022 1.477 . S
C1018 H1036 0.932 . S
C1019 C1020 1.384 . S
C1019 C1021 1.479 . S
C1019 H1037 0.929 . S
C1020 C1017 1.424 . S
C1020 C1019 1.384 . S
C1020 H1038 0.928 . S
C1021 C1018 1.260 . S
C1021 C1019 1.479 . S
C1022 C1017 1.245 . S
C1022 C1018 1.477 . S
C1022 H1039 0.932 . S
C1023 U1006 2.882 . S
C1023 C1017 1.428 . S
C1023 O1026 1.301 . S
C1023 O1027 1.282 . S
O1024 U1006 2.441 . S
O1024 C1010 1.249 . S
O1025 U1006 2.420 . S
O1025 C1010 1.202 . S
O1026 U1006 2.455 . S
O1026 C1023 1.301 . S
O1027 U1006 2.449 . S
O1027 C1023 1.282 . S
H1028 C1001 0.931 . S
H1029 C1003 0.929 . S
H1030 C1004 0.930 . S
H1031 C1005 0.931 . S
H1032 C1012 0.932 . S
H1033 C1013 0.930 . S
H1034 C1014 0.929 . S
H1035 C1016 0.930 . S
H1036 C1018 0.932 . S
H1037 C1019 0.929 . S
H1038 C1020 0.928 . S
H1039 C1022 0.932 . S
C1040 C1041 1.264 . S
C1040 C1045 1.479 . S
C1040 C1050 1.465 . S
C1041 C1040 1.264 . S
C1041 C1043 1.339 . S
C1041 H1068 0.931 . S
C1042 C1043 1.395 . S
C1042 C1044 1.320 . S
C1043 C1041 1.339 . S
C1043 C1042 1.395 . S
C1043 H1069 0.929 . S
C1044 C1042 1.320 . S
C1044 C1045 1.405 . S
C1044 H1070 0.930 . S
C1045 C1040 1.479 . S
C1045 C1044 1.405 . S
C1045 H1071 0.931 . S
U1046 O1047 2.454 . S
U1046 O1048 2.458 . S
U1046 C1049 2.984 . S
U1046 C1050 2.847 . S
U1046 C1063 2.882 . S
U1046 O1064 2.441 . S
U1046 O1065 2.420 . S
U1046 O1066 2.455 . S
U1046 O1067 2.449 . S
O1047 U1046 2.454 . S
O1047 C1049 1.353 . S
O1048 U1046 2.458 . S
O1048 C1049 1.286 . S
C1049 U1046 2.984 . S
C1049 O1047 1.353 . S
C1049 O1048 1.286 . S
C1049 C1051 1.363 . S
C1050 C1040 1.465 . S
C1050 U1046 2.847 . S
C1050 O1064 1.249 . S
C1050 O1065 1.202 . S
C1051 C1049 1.363 . S
C1051 C1053 1.408 . S
C1051 C1056 1.342 . S
C1052 C1053 1.310 . S
C1052 C1055 1.461 . S
C1052 H1072 0.932 . S
C1053 C1051 1.408 . S
C1053 C1052 1.310 . S
C1053 H1073 0.930 . S
C1054 C1055 1.474 . S
C1054 C1056 1.285 . S
C1054 H1074 0.929 . S
C1055 C1052 1.461 . S
C1055 C1054 1.474 . S
C1056 C1051 1.342 . S
C1056 C1054 1.285 . S
C1056 H1075 0.930 . S
C1057 C1060 1.424 . S
C1057 C1062 1.245 . S
C1057 C1063 1.428 . S
C1058 C1061 1.260 . S
C1058 C1062 1.477 . S
C1058 H1076 0.932 . S
C1059 C1060 1.384 . S
C1059 C1061 1.479 . S
C1059 H1077 0.929 . S
C1060 C1057 1.424 . S
C1060 C1059 1.384 . S
C1060 H1078 0.928 . S
C1061 C1058 1.260 . S
C1061 C1059 1.479 . S
C1062 C1057 1.245 . S
C1062 C1058 1.477 . S
C1062 H1079 0.932 . S
C1063 U1046 2.882 . S
C1063 C1057 1.428 . S
C1063 O1066 1.301 . S
C1063 O1067 1.282 . S
O1064 U1046 2.441 . S
O1064 C1050 1.249 . S
O1065 U1046 2.420 . S
O1065 C1050 1.202 . S
O1066 U1046 2.455 . S
O1066 C1063 1.301 . S
O1067 U1046 2.449 . S
O1067 C1063 1.282 . S
H1068 C1041 0.931 . S
H1069 C1043 0.929 . S
H1070 C1044 0.930 . S
H1071 C1045 0.931 . S
H1072 C1052 0.932 . S
H1073 C1053 0.930 . S
H1074 C1054 0.929 . S
H1075 C1056 0.930 . S
H1076 C1058 0.932 . S
H1077 C1059 0.929 . S
H1078 C1060 0.928 . S
H1079 C1062 0.932 . S
C1080 C1081 1.264 . S
C1080 C1085 1.479 . S
C1080 C1090 1.465 . S
C1081 C1080 1.264 . S
C1081 C1083 1.339 . S
C1081 H1108 0.931 . S
C1082 C1083 1.395 . S
C1082 C1084 1.320 . S
C1083 C1081 1.339 . S
C1083 C1082 1.395 . S
C1083 H1109 0.929 . S
C1084 C1082 1.320 . S
C1084 C1085 1.405 . S
C1084 H1110 0.930 . S
C1085 C1080 1.479 . S
C1085 C1084 1.405 . S
C1085 H1111 0.931 . S
U1086 O1087 2.454 . S
U1086 O1088 2.458 . S
U1086 C1089 2.984 . S
U1086 C1090 2.847 . S
U1086 C1103 2.882 . S
U1086 O1104 2.441 . S
U1086 O1105 2.420 . S
U1086 O1106 2.455 . S
U1086 O1107 2.449 . S
O1087 U1086 2.454 . S
O1087 C1089 1.353 . S
O1088 U1086 2.458 . S
O1088 C1089 1.286 . S
C1089 U1086 2.984 . S
C1089 O1087 1.353 . S
C1089 O1088 1.286 . S
C1089 C1091 1.363 . S
C1090 C1080 1.465 . S
C1090 U1086 2.847 . S
C1090 O1104 1.249 . S
C1090 O1105 1.202 . S
C1091 C1089 1.363 . S
C1091 C1093 1.408 . S
C1091 C1096 1.342 . S
C1092 C1093 1.310 . S
C1092 C1095 1.461 . S
C1092 H1112 0.932 . S
C1093 C1091 1.408 . S
C1093 C1092 1.310 . S
C1093 H1113 0.930 . S
C1094 C1095 1.474 . S
C1094 C1096 1.285 . S
C1094 H1114 0.929 . S
C1095 C1092 1.461 . S
C1095 C1094 1.474 . S
C1096 C1091 1.342 . S
C1096 C1094 1.285 . S
C1096 H1115 0.930 . S
C1097 C1100 1.424 . S
C1097 C1102 1.245 . S
C1097 C1103 1.428 . S
C1098 C1101 1.260 . S
C1098 C1102 1.477 . S
C1098 H1116 0.932 . S
C1099 C1100 1.384 . S
C1099 C1101 1.479 . S
C1099 H1117 0.929 . S
C1100 C1097 1.424 . S
C1100 C1099 1.384 . S
C1100 H1118 0.928 . S
C1101 C1098 1.260 . S
C1101 C1099 1.479 . S
C1102 C1097 1.245 . S
C1102 C1098 1.477 . S
C1102 H1119 0.932 . S
C1103 U1086 2.882 . S
C1103 C1097 1.428 . S
C1103 O1106 1.301 . S
C1103 O1107 1.282 . S
O1104 U1086 2.441 . S
O1104 C1090 1.249 . S
O1105 U1086 2.420 . S
O1105 C1090 1.202 . S
O1106 U1086 2.455 . S
O1106 C1103 1.301 . S
O1107 U1086 2.449 . S
O1107 C1103 1.282 . S
H1108 C1081 0.931 . S
H1109 C1083 0.929 . S
H1110 C1084 0.930 . S
H1111 C1085 0.931 . S
H1112 C1092 0.932 . S
H1113 C1093 0.930 . S
H1114 C1094 0.929 . S
H1115 C1096 0.930 . S
H1116 C1098 0.932 . S
H1117 C1099 0.929 . S
H1118 C1100 0.928 . S
H1119 C1102 0.932 . S
C1120 C1121 1.264 . S
C1120 C1125 1.479 . S
C1120 C1130 1.465 . S
C1121 C1120 1.264 . S
C1121 C1123 1.339 . S
C1121 H1148 0.931 . S
C1122 C1123 1.395 . S
C1122 C1124 1.320 . S
C1123 C1121 1.339 . S
C1123 C1122 1.395 . S
C1123 H1149 0.929 . S
C1124 C1122 1.320 . S
C1124 C1125 1.405 . S
C1124 H1150 0.930 . S
C1125 C1120 1.479 . S
C1125 C1124 1.405 . S
C1125 H1151 0.931 . S
U1126 O1127 2.454 . S
U1126 O1128 2.458 . S
U1126 C1129 2.984 . S
U1126 C1130 2.847 . S
U1126 C1143 2.882 . S
U1126 O1144 2.441 . S
U1126 O1145 2.420 . S
U1126 O1146 2.455 . S
U1126 O1147 2.449 . S
O1127 U1126 2.454 . S
O1127 C1129 1.353 . S
O1128 U1126 2.458 . S
O1128 C1129 1.286 . S
C1129 U1126 2.984 . S
C1129 O1127 1.353 . S
C1129 O1128 1.286 . S
C1129 C1131 1.363 . S
C1130 C1120 1.465 . S
C1130 U1126 2.847 . S
C1130 O1144 1.249 . S
C1130 O1145 1.202 . S
C1131 C1129 1.363 . S
C1131 C1133 1.408 . S
C1131 C1136 1.342 . S
C1132 C1133 1.310 . S
C1132 C1135 1.461 . S
C1132 H1152 0.932 . S
C1133 C1131 1.408 . S
C1133 C1132 1.310 . S
C1133 H1153 0.930 . S
C1134 C1135 1.474 . S
C1134 C1136 1.285 . S
C1134 H1154 0.929 . S
C1135 C1132 1.461 . S
C1135 C1134 1.474 . S
C1136 C1131 1.342 . S
C1136 C1134 1.285 . S
C1136 H1155 0.930 . S
C1137 C1140 1.424 . S
C1137 C1142 1.245 . S
C1137 C1143 1.428 . S
C1138 C1141 1.260 . S
C1138 C1142 1.477 . S
C1138 H1156 0.932 . S
C1139 C1140 1.384 . S
C1139 C1141 1.479 . S
C1139 H1157 0.929 . S
C1140 C1137 1.424 . S
C1140 C1139 1.384 . S
C1140 H1158 0.928 . S
C1141 C1138 1.260 . S
C1141 C1139 1.479 . S
C1142 C1137 1.245 . S
C1142 C1138 1.477 . S
C1142 H1159 0.932 . S
C1143 U1126 2.882 . S
C1143 C1137 1.428 . S
C1143 O1146 1.301 . S
C1143 O1147 1.282 . S
O1144 U1126 2.441 . S
O1144 C1130 1.249 . S
O1145 U1126 2.420 . S
O1145 C1130 1.202 . S
O1146 U1126 2.455 . S
O1146 C1143 1.301 . S
O1147 U1126 2.449 . S
O1147 C1143 1.282 . S
H1148 C1121 0.931 . S
H1149 C1123 0.929 . S
H1150 C1124 0.930 . S
H1151 C1125 0.931 . S
H1152 C1132 0.932 . S
H1153 C1133 0.930 . S
H1154 C1134 0.929 . S
H1155 C1136 0.930 . S
H1156 C1138 0.932 . S
H1157 C1139 0.929 . S
H1158 C1140 0.928 . S
H1159 C1142 0.932 . S
C1160 C1161 1.264 . S
C1160 C1165 1.479 . S
C1160 C1170 1.465 . S
C1161 C1160 1.264 . S
C1161 C1163 1.339 . S
C1161 H1188 0.931 . S
C1162 C1163 1.395 . S
C1162 C1164 1.320 . S
C1163 C1161 1.339 . S
C1163 C1162 1.395 . S
C1163 H1189 0.929 . S
C1164 C1162 1.320 . S
C1164 C1165 1.405 . S
C1164 H1190 0.930 . S
C1165 C1160 1.479 . S
C1165 C1164 1.405 . S
C1165 H1191 0.931 . S
U1166 O1167 2.454 . S
U1166 O1168 2.458 . S
U1166 C1169 2.984 . S
U1166 C1170 2.847 . S
U1166 C1183 2.882 . S
U1166 O1184 2.441 . S
U1166 O1185 2.420 . S
U1166 O1186 2.455 . S
U1166 O1187 2.449 . S
O1167 U1166 2.454 . S
O1167 C1169 1.353 . S
O1168 U1166 2.458 . S
O1168 C1169 1.286 . S
C1169 U1166 2.984 . S
C1169 O1167 1.353 . S
C1169 O1168 1.286 . S
C1169 C1171 1.363 . S
C1170 C1160 1.465 . S
C1170 U1166 2.847 . S
C1170 O1184 1.249 . S
C1170 O1185 1.202 . S
C1171 C1169 1.363 . S
C1171 C1173 1.408 . S
C1171 C1176 1.342 . S
C1172 C1173 1.310 . S
C1172 C1175 1.461 . S
C1172 H1192 0.932 . S
C1173 C1171 1.408 . S
C1173 C1172 1.310 . S
C1173 H1193 0.930 . S
C1174 C1175 1.474 . S
C1174 C1176 1.285 . S
C1174 H1194 0.929 . S
C1175 C1172 1.461 . S
C1175 C1174 1.474 . S
C1176 C1171 1.342 . S
C1176 C1174 1.285 . S
C1176 H1195 0.930 . S
C1177 C1180 1.424 . S
C1177 C1182 1.245 . S
C1177 C1183 1.428 . S
C1178 C1181 1.260 . S
C1178 C1182 1.477 . S
C1178 H1196 0.932 . S
C1179 C1180 1.384 . S
C1179 C1181 1.479 . S
C1179 H1197 0.929 . S
C1180 C1177 1.424 . S
C1180 C1179 1.384 . S
C1180 H1198 0.928 . S
C1181 C1178 1.260 . S
C1181 C1179 1.479 . S
C1182 C1177 1.245 . S
C1182 C1178 1.477 . S
C1182 H1199 0.932 . S
C1183 U1166 2.882 . S
C1183 C1177 1.428 . S
C1183 O1186 1.301 . S
C1183 O1187 1.282 . S
O1184 U1166 2.441 . S
O1184 C1170 1.249 . S
O1185 U1166 2.420 . S
O1185 C1170 1.202 . S
O1186 U1166 2.455 . S
O1186 C1183 1.301 . S
O1187 U1166 2.449 . S
O1187 C1183 1.282 . S
H1188 C1161 0.931 . S
H1189 C1163 0.929 . S
H1190 C1164 0.930 . S
H1191 C1165 0.931 . S
H1192 C1172 0.932 . S
H1193 C1173 0.930 . S
H1194 C1174 0.929 . S
H1195 C1176 0.930 . S
H1196 C1178 0.932 . S
H1197 C1179 0.929 . S
H1198 C1180 0.928 . S
H1199 C1182 0.932 . S
C1200 C1201 1.264 . S
C1200 C1205 1.479 . S
C1200 C1210 1.465 . S
C1201 C1200 1.264 . S
C1201 C1203 1.339 . S
C1201 H1228 0.931 . S
C1202 C1203 1.395 . S
C1202 C1204 1.320 . S
C1203 C1201 1.339 . S
C1203 C1202 1.395 . S
C1203 H1229 0.929 . S
C1204 C1202 1.320 . S
C1204 C1205 1.405 . S
C1204 H1230 0.930 . S
C1205 C1200 1.479 . S
C1205 C1204 1.405 . S
C1205 H1231 0.931 . S
U1206 O1207 2.454 . S
U1206 O1208 2.458 . S
U1206 C1209 2.984 . S
U1206 C1210 2.847 . S
U1206 C1223 2.882 . S
U1206 O1224 2.441 . S
U1206 O1225 2.420 . S
U1206 O1226 2.455 . S
U1206 O1227 2.449 . S
O1207 U1206 2.454 . S
O1207 C1209 1.353 . S
O1208 U1206 2.458 . S
O1208 C1209 1.286 . S
C1209 U1206 2.984 . S
C1209 O1207 1.353 . S
C1209 O1208 1.286 . S
C1209 C1211 1.363 . S
C1210 C1200 1.465 . S
C1210 U1206 2.847 . S
C1210 O1224 1.249 . S
C1210 O1225 1.202 . S
C1211 C1209 1.363 . S
C1211 C1213 1.408 . S
C1211 C1216 1.342 . S
C1212 C1213 1.310 . S
C1212 C1215 1.461 . S
C1212 H1232 0.932 . S
C1213 C1211 1.408 . S
C1213 C1212 1.310 . S
C1213 H1233 0.930 . S
C1214 C1215 1.474 . S
C1214 C1216 1.285 . S
C1214 H1234 0.929 . S
C1215 C1212 1.461 . S
C1215 C1214 1.474 . S
C1216 C1211 1.342 . S
C1216 C1214 1.285 . S
C1216 H1235 0.930 . S
C1217 C1220 1.424 . S
C1217 C1222 1.245 . S
C1217 C1223 1.428 . S
C1218 C1221 1.260 . S
C1218 C1222 1.477 . S
C1218 H1236 0.932 . S
C1219 C1220 1.384 . S
C1219 C1221 1.479 . S
C1219 H1237 0.929 . S
C1220 C1217 1.424 . S
C1220 C1219 1.384 . S
C1220 H1238 0.928 . S
C1221 C1218 1.260 . S
C1221 C1219 1.479 . S
C1222 C1217 1.245 . S
C1222 C1218 1.477 . S
C1222 H1239 0.932 . S
C1223 U1206 2.882 . S
C1223 C1217 1.428 . S
C1223 O1226 1.301 . S
C1223 O1227 1.282 . S
O1224 U1206 2.441 . S
O1224 C1210 1.249 . S
O1225 U1206 2.420 . S
O1225 C1210 1.202 . S
O1226 U1206 2.455 . S
O1226 C1223 1.301 . S
O1227 U1206 2.449 . S
O1227 C1223 1.282 . S
H1228 C1201 0.931 . S
H1229 C1203 0.929 . S
H1230 C1204 0.930 . S
H1231 C1205 0.931 . S
H1232 C1212 0.932 . S
H1233 C1213 0.930 . S
H1234 C1214 0.929 . S
H1235 C1216 0.930 . S
H1236 C1218 0.932 . S
H1237 C1219 0.929 . S
H1238 C1220 0.928 . S
H1239 C1222 0.932 . S
C1240 C1241 1.264 . S
C1240 C1245 1.479 . S
C1240 C1250 1.465 . S
C1241 C1240 1.264 . S
C1241 C1243 1.339 . S
C1241 H1268 0.931 . S
C1242 C1243 1.395 . S
C1242 C1244 1.320 . S
C1243 C1241 1.339 . S
C1243 C1242 1.395 . S
C1243 H1269 0.929 . S
C1244 C1242 1.320 . S
C1244 C1245 1.405 . S
C1244 H1270 0.930 . S
C1245 C1240 1.479 . S
C1245 C1244 1.405 . S
C1245 H1271 0.931 . S
U1246 O1247 2.454 . S
U1246 O1248 2.458 . S
U1246 C1249 2.984 . S
U1246 C1250 2.847 . S
U1246 C1263 2.882 . S
U1246 O1264 2.441 . S
U1246 O1265 2.420 . S
U1246 O1266 2.455 . S
U1246 O1267 2.449 . S
O1247 U1246 2.454 . S
O1247 C1249 1.353 . S
O1248 U1246 2.458 . S
O1248 C1249 1.286 . S
C1249 U1246 2.984 . S
C1249 O1247 1.353 . S
C1249 O1248 1.286 . S
C1249 C1251 1.363 . S
C1250 C1240 1.465 . S
C1250 U1246 2.847 . S
C1250 O1264 1.249 . S
C1250 O1265 1.202 . S
C1251 C1249 1.363 . S
C1251 C1253 1.408 . S
C1251 C1256 1.342 . S
C1252 C1253 1.310 . S
C1252 C1255 1.461 . S
C1252 H1272 0.932 . S
C1253 C1251 1.408 . S
C1253 C1252 1.310 . S
C1253 H1273 0.930 . S
C1254 C1255 1.474 . S
C1254 C1256 1.285 . S
C1254 H1274 0.929 . S
C1255 C1252 1.461 . S
C1255 C1254 1.474 . S
C1256 C1251 1.342 . S
C1256 C1254 1.285 . S
C1256 H1275 0.930 . S
C1257 C1260 1.424 . S
C1257 C1262 1.245 . S
C1257 C1263 1.428 . S
C1258 C1261 1.260 . S
C1258 C1262 1.477 . S
C1258 H1276 0.932 . S
C1259 C1260 1.384 . S
C1259 C1261 1.479 . S
C1259 H1277 0.929 . S
C1260 C1257 1.424 . S
C1260 C1259 1.384 . S
C1260 H1278 0.928 . S
C1261 C1258 1.260 . S
C1261 C1259 1.479 . S
C1262 C1257 1.245 . S
C1262 C1258 1.477 . S
C1262 H1279 0.932 . S
C1263 U1246 2.882 . S
C1263 C1257 1.428 . S
C1263 O1266 1.301 . S
C1263 O1267 1.282 . S
O1264 U1246 2.441 . S
O1264 C1250 1.249 . S
O1265 U1246 2.420 . S
O1265 C1250 1.202 . S
O1266 U1246 2.455 . S
O1266 C1263 1.301 . S
O1267 U1246 2.449 . S
O1267 C1263 1.282 . S
H1268 C1241 0.931 . S
H1269 C1243 0.929 . S
H1270 C1244 0.930 . S
H1271 C1245 0.931 . S
H1272 C1252 0.932 . S
H1273 C1253 0.930 . S
H1274 C1254 0.929 . S
H1275 C1256 0.930 . S
H1276 C1258 0.932 . S
H1277 C1259 0.929 . S
H1278 C1260 0.928 . S
H1279 C1262 0.932 . S
H1280 C1286 0.930 . S
H1281 C1289 0.931 . S
H1282 C1291 0.931 . S
H1283 C1293 0.930 . S
H1284 C1295 0.930 . S
H1285 C1297 0.931 . S
C1286 H1280 0.930 . S
C1286 C1287 1.380 . S
C1286 C1288 1.394 . S
C1287 C1286 1.380 . S
C1287 C1291 1.382 . S
C1288 C1286 1.394 . S
C1288 C1289 1.400 . S
C1289 H1281 0.931 . S
C1289 C1288 1.400 . S
C1289 C1290 1.375 . S
C1290 C1289 1.375 . S
C1290 C1291 1.415 . S
C1290 C1292 1.501 1_556 S
C1291 H1282 0.931 . S
C1291 C1287 1.382 . S
C1291 C1290 1.415 . S
C1292 C1290 1.501 1_554 S
C1292 C1293 1.384 . S
C1292 C1297 1.408 . S
C1293 H1283 0.930 . S
C1293 C1292 1.384 . S
C1293 C1294 1.389 . S
C1294 C1293 1.389 . S
C1294 C1295 1.405 . S
C1295 H1284 0.930 . S
C1295 C1294 1.405 . S
C1295 C1296 1.364 . S
C1296 C1295 1.364 . S
C1296 C1297 1.400 . S
C1297 H1285 0.931 . S
C1297 C1292 1.408 . S
C1297 C1296 1.400 . S
H1298 C1304 0.930 . S
H1299 C1307 0.931 . S
H1300 C1309 0.931 . S
H1301 C1311 0.930 . S
H1302 C1313 0.930 . S
H1303 C1315 0.931 . S
C1304 H1298 0.930 . S
C1304 C1305 1.380 . S
C1304 C1306 1.394 . S
C1305 C1304 1.380 . S
C1305 C1309 1.382 . S
C1306 C1304 1.394 . S
C1306 C1307 1.400 . S
C1307 H1299 0.931 . S
C1307 C1306 1.400 . S
C1307 C1308 1.375 . S
C1308 C1307 1.375 . S
C1308 C1309 1.415 . S
C1308 C1310 1.497 1_554 S
C1309 H1300 0.931 . S
C1309 C1305 1.382 . S
C1309 C1308 1.415 . S
C1310 C1308 1.497 1_556 S
C1310 C1311 1.386 . S
C1310 C1315 1.410 . S
C1311 H1301 0.930 . S
C1311 C1310 1.386 . S
C1311 C1312 1.389 . S
C1312 C1311 1.389 . S
C1312 C1313 1.405 . S
C1313 H1302 0.930 . S
C1313 C1312 1.405 . S
C1313 C1314 1.364 . S
C1314 C1313 1.364 . S
C1314 C1315 1.400 . S
C1315 H1303 0.931 . S
C1315 C1310 1.410 . S
C1315 C1314 1.400 . S
H1316 C1322 0.930 . S
H1317 C1325 0.931 . S
H1318 C1327 0.931 . S
H1319 C1329 0.930 . S
H1320 C1331 0.930 . S
H1321 C1333 0.931 . S
C1322 H1316 0.930 . S
C1322 C1323 1.380 . S
C1322 C1324 1.394 . S
C1323 C1322 1.380 . S
C1323 C1327 1.382 . S
C1324 C1322 1.394 . S
C1324 C1325 1.400 . S
C1325 H1317 0.931 . S
C1325 C1324 1.400 . S
C1325 C1326 1.375 . S
C1326 C1325 1.375 . S
C1326 C1327 1.415 . S
C1326 C1328 1.501 1_556 S
C1327 H1318 0.931 . S
C1327 C1323 1.382 . S
C1327 C1326 1.415 . S
C1328 C1326 1.501 1_554 S
C1328 C1329 1.384 . S
C1328 C1333 1.408 . S
C1329 H1319 0.930 . S
C1329 C1328 1.384 . S
C1329 C1330 1.389 . S
C1330 C1329 1.389 . S
C1330 C1331 1.405 . S
C1331 H1320 0.930 . S
C1331 C1330 1.405 . S
C1331 C1332 1.364 . S
C1332 C1331 1.364 . S
C1332 C1333 1.400 . S
C1333 H1321 0.931 . S
C1333 C1328 1.408 . S
C1333 C1332 1.400 . S
H1334 C1340 0.930 . S
H1335 C1343 0.931 . S
H1336 C1345 0.931 . S
H1337 C1347 0.930 . S
H1338 C1349 0.930 . S
H1339 C1351 0.931 . S
C1340 H1334 0.930 . S
C1340 C1341 1.380 . S
C1340 C1342 1.394 . S
C1341 C1340 1.380 . S
C1341 C1345 1.382 . S
C1342 C1340 1.394 . S
C1342 C1343 1.400 . S
C1343 H1335 0.931 . S
C1343 C1342 1.400 . S
C1343 C1344 1.375 . S
C1344 C1343 1.375 . S
C1344 C1345 1.415 . S
C1344 C1346 1.490 1_554 S
C1345 H1336 0.931 . S
C1345 C1341 1.382 . S
C1345 C1344 1.415 . S
C1346 C1344 1.490 1_556 S
C1346 C1347 1.390 . S
C1346 C1351 1.413 . S
C1347 H1337 0.930 . S
C1347 C1346 1.390 . S
C1347 C1348 1.389 . S
C1348 C1347 1.389 . S
C1348 C1349 1.405 . S
C1349 H1338 0.930 . S
C1349 C1348 1.405 . S
C1349 C1350 1.364 . S
C1350 C1349 1.364 . S
C1350 C1351 1.400 . S
C1351 H1339 0.931 . S
C1351 C1346 1.413 . S
C1351 C1350 1.400 . S
H1352 C1358 0.930 . S
H1353 C1361 0.931 . S
H1354 C1363 0.931 . S
H1355 C1365 0.930 . S
H1356 C1367 0.930 . S
H1357 C1369 0.931 . S
C1358 H1352 0.930 . S
C1358 C1359 1.380 . S
C1358 C1360 1.394 . S
C1359 C1358 1.380 . S
C1359 C1363 1.382 . S
C1360 C1358 1.394 . S
C1360 C1361 1.400 . S
C1361 H1353 0.931 . S
C1361 C1360 1.400 . S
C1361 C1362 1.375 . S
C1362 C1361 1.375 . S
C1362 C1363 1.415 . S
C1362 C1364 1.501 1_455 S
C1363 H1354 0.931 . S
C1363 C1359 1.382 . S
C1363 C1362 1.415 . S
C1364 C1362 1.501 1_655 S
C1364 C1365 1.384 . S
C1364 C1369 1.408 . S
C1365 H1355 0.930 . S
C1365 C1364 1.384 . S
C1365 C1366 1.389 . S
C1366 C1365 1.389 . S
C1366 C1367 1.405 . S
C1367 H1356 0.930 . S
C1367 C1366 1.405 . S
C1367 C1368 1.364 . S
C1368 C1367 1.364 . S
C1368 C1369 1.400 . S
C1369 H1357 0.931 . S
C1369 C1364 1.408 . S
C1369 C1368 1.400 . S
H1370 C1376 0.930 . S
H1371 C1379 0.931 . S
H1372 C1381 0.931 . S
H1373 C1383 0.930 . S
H1374 C1385 0.930 . S
H1375 C1387 0.931 . S
C1376 H1370 0.930 . S
C1376 C1377 1.380 . S
C1376 C1378 1.394 . S
C1377 C1376 1.380 . S
C1377 C1381 1.382 . S
C1378 C1376 1.394 . S
C1378 C1379 1.400 . S
C1379 H1371 0.931 . S
C1379 C1378 1.400 . S
C1379 C1380 1.375 . S
C1380 C1379 1.375 . S
C1380 C1381 1.415 . S
C1380 C1382 1.501 1_565 S
C1381 H1372 0.931 . S
C1381 C1377 1.382 . S
C1381 C1380 1.415 . S
C1382 C1380 1.501 1_545 S
C1382 C1383 1.384 . S
C1382 C1387 1.408 . S
C1383 H1373 0.930 . S
C1383 C1382 1.384 . S
C1383 C1384 1.389 . S
C1384 C1383 1.389 . S
C1384 C1385 1.405 . S
C1385 H1374 0.930 . S
C1385 C1384 1.405 . S
C1385 C1386 1.364 . S
C1386 C1385 1.364 . S
C1386 C1387 1.400 . S
C1387 H1375 0.931 . S
C1387 C1382 1.408 . S
C1387 C1386 1.400 . S
H1388 C1394 0.930 . S
H1389 C1397 0.931 . S
H1390 C1399 0.931 . S
H1391 C1401 0.930 . S
H1392 C1403 0.930 . S
H1393 C1405 0.931 . S
C1394 H1388 0.930 . S
C1394 C1395 1.380 . S
C1394 C1396 1.394 . S
C1395 C1394 1.380 . S
C1395 C1399 1.382 . S
C1396 C1394 1.394 . S
C1396 C1397 1.400 . S
C1397 H1389 0.931 . S
C1397 C1396 1.400 . S
C1397 C1398 1.375 . S
C1398 C1397 1.375 . S
C1398 C1399 1.415 . S
C1398 C1400 1.501 1_455 S
C1399 H1390 0.931 . S
C1399 C1395 1.382 . S
C1399 C1398 1.415 . S
C1400 C1398 1.501 1_655 S
C1400 C1401 1.384 . S
C1400 C1405 1.408 . S
C1401 H1391 0.930 . S
C1401 C1400 1.384 . S
C1401 C1402 1.389 . S
C1402 C1401 1.389 . S
C1402 C1403 1.405 . S
C1403 H1392 0.930 . S
C1403 C1402 1.405 . S
C1403 C1404 1.364 . S
C1404 C1403 1.364 . S
C1404 C1405 1.400 . S
C1405 H1393 0.931 . S
C1405 C1400 1.408 . S
C1405 C1404 1.400 . S
H1406 C1412 0.930 . S
H1407 C1415 0.931 . S
H1408 C1417 0.931 . S
H1409 C1419 0.930 . S
H1410 C1421 0.930 . S
H1411 C1423 0.931 . S
C1412 H1406 0.930 . S
C1412 C1413 1.380 . S
C1412 C1414 1.394 . S
C1413 C1412 1.380 . S
C1413 C1417 1.382 . S
C1414 C1412 1.394 . S
C1414 C1415 1.400 . S
C1415 H1407 0.931 . S
C1415 C1414 1.400 . S
C1415 C1416 1.375 . S
C1416 C1415 1.375 . S
C1416 C1417 1.415 . S
C1416 C1418 1.501 1_545 S
C1417 H1408 0.931 . S
C1417 C1413 1.382 . S
C1417 C1416 1.415 . S
C1418 C1416 1.501 1_565 S
C1418 C1419 1.384 . S
C1418 C1423 1.408 . S
C1419 H1409 0.930 . S
C1419 C1418 1.384 . S
C1419 C1420 1.389 . S
C1420 C1419 1.389 . S
C1420 C1421 1.405 . S
C1421 H1410 0.930 . S
C1421 C1420 1.405 . S
C1421 C1422 1.364 . S
C1422 C1421 1.364 . S
C1422 C1423 1.400 . S
C1423 H1411 0.931 . S
C1423 C1418 1.408 . S
C1423 C1422 1.400 . S
H1424 C1430 0.930 . S
H1425 C1433 0.931 . S
H1426 C1435 0.931 . S
H1427 C1437 0.930 . S
H1428 C1439 0.930 . S
H1429 C1441 0.931 . S
C1430 H1424 0.930 . S
C1430 C1431 1.380 . S
C1430 C1432 1.394 . S
C1431 C1430 1.380 . S
C1431 C1435 1.382 . S
C1432 C1430 1.394 . S
C1432 C1433 1.400 . S
C1433 H1425 0.931 . S
C1433 C1432 1.400 . S
C1433 C1434 1.375 . S
C1434 C1433 1.375 . S
C1434 C1435 1.415 . S
C1434 C1436 1.501 1_455 S
C1435 H1426 0.931 . S
C1435 C1431 1.382 . S
C1435 C1434 1.415 . S
C1436 C1434 1.501 1_655 S
C1436 C1437 1.384 . S
C1436 C1441 1.408 . S
C1437 H1427 0.930 . S
C1437 C1436 1.384 . S
C1437 C1438 1.389 . S
C1438 C1437 1.389 . S
C1438 C1439 1.405 . S
C1439 H1428 0.930 . S
C1439 C1438 1.405 . S
C1439 C1440 1.364 . S
C1440 C1439 1.364 . S
C1440 C1441 1.400 . S
C1441 H1429 0.931 . S
C1441 C1436 1.408 . S
C1441 C1440 1.400 . S
H1442 C1448 0.930 . S
H1443 C1451 0.931 . S
H1444 C1453 0.931 . S
H1445 C1455 0.930 . S
H1446 C1457 0.930 . S
H1447 C1459 0.931 . S
C1448 H1442 0.930 . S
C1448 C1449 1.380 . S
C1448 C1450 1.394 . S
C1449 C1448 1.380 . S
C1449 C1453 1.382 . S
C1450 C1448 1.394 . S
C1450 C1451 1.400 . S
C1451 H1443 0.931 . S
C1451 C1450 1.400 . S
C1451 C1452 1.375 . S
C1452 C1451 1.375 . S
C1452 C1453 1.415 . S
C1452 C1454 1.501 1_565 S
C1453 H1444 0.931 . S
C1453 C1449 1.382 . S
C1453 C1452 1.415 . S
C1454 C1452 1.501 1_545 S
C1454 C1455 1.384 . S
C1454 C1459 1.408 . S
C1455 H1445 0.930 . S
C1455 C1454 1.384 . S
C1455 C1456 1.389 . S
C1456 C1455 1.389 . S
C1456 C1457 1.405 . S
C1457 H1446 0.930 . S
C1457 C1456 1.405 . S
C1457 C1458 1.364 . S
C1458 C1457 1.364 . S
C1458 C1459 1.400 . S
C1459 H1447 0.931 . S
C1459 C1454 1.408 . S
C1459 C1458 1.400 . S
H1460 C1466 0.930 . S
H1461 C1469 0.931 . S
H1462 C1471 0.931 . S
H1463 C1473 0.930 . S
H1464 C1475 0.930 . S
H1465 C1477 0.931 . S
C1466 H1460 0.930 . S
C1466 C1467 1.380 . S
C1466 C1468 1.394 . S
C1467 C1466 1.380 . S
C1467 C1471 1.382 . S
C1468 C1466 1.394 . S
C1468 C1469 1.400 . S
C1469 H1461 0.931 . S
C1469 C1468 1.400 . S
C1469 C1470 1.375 . S
C1470 C1469 1.375 . S
C1470 C1471 1.415 . S
C1470 C1472 1.501 1_455 S
C1471 H1462 0.931 . S
C1471 C1467 1.382 . S
C1471 C1470 1.415 . S
C1472 C1470 1.501 1_655 S
C1472 C1473 1.384 . S
C1472 C1477 1.408 . S
C1473 H1463 0.930 . S
C1473 C1472 1.384 . S
C1473 C1474 1.389 . S
C1474 C1473 1.389 . S
C1474 C1475 1.405 . S
C1475 H1464 0.930 . S
C1475 C1474 1.405 . S
C1475 C1476 1.364 . S
C1476 C1475 1.364 . S
C1476 C1477 1.400 . S
C1477 H1465 0.931 . S
C1477 C1472 1.408 . S
C1477 C1476 1.400 . S
H1478 C1484 0.930 . S
H1479 C1487 0.931 . S
H1480 C1489 0.931 . S
H1481 C1491 0.930 . S
H1482 C1493 0.930 . S
H1483 C1495 0.931 . S
C1484 H1478 0.930 . S
C1484 C1485 1.380 . S
C1484 C1486 1.394 . S
C1485 C1484 1.380 . S
C1485 C1489 1.382 . S
C1486 C1484 1.394 . S
C1486 C1487 1.400 . S
C1487 H1479 0.931 . S
C1487 C1486 1.400 . S
C1487 C1488 1.375 . S
C1488 C1487 1.375 . S
C1488 C1489 1.415 . S
C1488 C1490 1.501 1_545 S
C1489 H1480 0.931 . S
C1489 C1485 1.382 . S
C1489 C1488 1.415 . S
C1490 C1488 1.501 1_565 S
C1490 C1491 1.384 . S
C1490 C1495 1.408 . S
C1491 H1481 0.930 . S
C1491 C1490 1.384 . S
C1491 C1492 1.389 . S
C1492 C1491 1.389 . S
C1492 C1493 1.405 . S
C1493 H1482 0.930 . S
C1493 C1492 1.405 . S
C1493 C1494 1.364 . S
C1494 C1493 1.364 . S
C1494 C1495 1.400 . S
C1495 H1483 0.931 . S
C1495 C1490 1.408 . S
C1495 C1494 1.400 . S
H1496 C1502 0.930 . S
H1497 C1505 0.931 . S
H1498 C1507 0.931 . S
H1499 C1509 0.930 . S
H1500 C1511 0.930 . S
H1501 C1513 0.931 . S
C1502 H1496 0.930 . S
C1502 C1503 1.380 . S
C1502 C1504 1.394 . S
C1503 C1502 1.380 . S
C1503 C1507 1.382 . S
C1504 C1502 1.394 . S
C1504 C1505 1.400 . S
C1505 H1497 0.931 . S
C1505 C1504 1.400 . S
C1505 C1506 1.375 . S
C1506 C1505 1.375 . S
C1506 C1507 1.415 . S
C1506 C1508 1.501 . S
C1507 H1498 0.931 . S
C1507 C1503 1.382 . S
C1507 C1506 1.415 . S
C1508 C1506 1.501 . S
C1508 C1509 1.384 . S
C1508 C1513 1.408 . S
C1509 H1499 0.930 . S
C1509 C1508 1.384 . S
C1509 C1510 1.389 . S
C1510 C1509 1.389 . S
C1510 C1511 1.405 . S
C1511 H1500 0.930 . S
C1511 C1510 1.405 . S
C1511 C1512 1.364 . S
C1512 C1511 1.364 . S
C1512 C1513 1.400 . S
C1513 H1501 0.931 . S
C1513 C1508 1.408 . S
C1513 C1512 1.400 . S
H1514 C1520 0.930 . S
H1515 C1523 0.931 . S
H1516 C1525 0.931 . S
H1517 C1527 0.930 . S
H1518 C1529 0.930 . S
H1519 C1531 0.931 . S
C1520 H1514 0.930 . S
C1520 C1521 1.380 . S
C1520 C1522 1.394 . S
C1521 C1520 1.380 . S
C1521 C1525 1.382 . S
C1522 C1520 1.394 . S
C1522 C1523 1.400 . S
C1523 H1515 0.931 . S
C1523 C1522 1.400 . S
C1523 C1524 1.375 . S
C1524 C1523 1.375 . S
C1524 C1525 1.415 . S
C1524 C1526 1.501 . S
C1525 H1516 0.931 . S
C1525 C1521 1.382 . S
C1525 C1524 1.415 . S
C1526 C1524 1.501 . S
C1526 C1527 1.384 . S
C1526 C1531 1.408 . S
C1527 H1517 0.930 . S
C1527 C1526 1.384 . S
C1527 C1528 1.389 . S
C1528 C1527 1.389 . S
C1528 C1529 1.405 . S
C1529 H1518 0.930 . S
C1529 C1528 1.405 . S
C1529 C1530 1.364 . S
C1530 C1529 1.364 . S
C1530 C1531 1.400 . S
C1531 H1519 0.931 . S
C1531 C1526 1.408 . S
C1531 C1530 1.400 . S
H1532 C1538 0.930 . S
H1533 C1541 0.931 . S
H1534 C1543 0.931 . S
H1535 C1545 0.930 . S
H1536 C1547 0.930 . S
H1537 C1549 0.931 . S
C1538 H1532 0.930 . S
C1538 C1539 1.380 . S
C1538 C1540 1.394 . S
C1539 C1538 1.380 . S
C1539 C1543 1.382 . S
C1540 C1538 1.394 . S
C1540 C1541 1.400 . S
C1541 H1533 0.931 . S
C1541 C1540 1.400 . S
C1541 C1542 1.375 . S
C1542 C1541 1.375 . S
C1542 C1543 1.415 . S
C1542 C1544 1.501 . S
C1543 H1534 0.931 . S
C1543 C1539 1.382 . S
C1543 C1542 1.415 . S
C1544 C1542 1.501 . S
C1544 C1545 1.384 . S
C1544 C1549 1.408 . S
C1545 H1535 0.930 . S
C1545 C1544 1.384 . S
C1545 C1546 1.389 . S
C1546 C1545 1.389 . S
C1546 C1547 1.405 . S
C1547 H1536 0.930 . S
C1547 C1546 1.405 . S
C1547 C1548 1.364 . S
C1548 C1547 1.364 . S
C1548 C1549 1.400 . S
C1549 H1537 0.931 . S
C1549 C1544 1.408 . S
C1549 C1548 1.400 . S
H1550 C1556 0.930 . S
H1551 C1559 0.931 . S
H1552 C1561 0.931 . S
H1553 C1563 0.930 . S
H1554 C1565 0.930 . S
H1555 C1567 0.931 . S
C1556 H1550 0.930 . S
C1556 C1557 1.380 . S
C1556 C1558 1.394 . S
C1557 C1556 1.380 . S
C1557 C1561 1.382 . S
C1558 C1556 1.394 . S
C1558 C1559 1.400 . S
C1559 H1551 0.931 . S
C1559 C1558 1.400 . S
C1559 C1560 1.375 . S
C1560 C1559 1.375 . S
C1560 C1561 1.415 . S
C1560 C1562 1.501 . S
C1561 H1552 0.931 . S
C1561 C1557 1.382 . S
C1561 C1560 1.415 . S
C1562 C1560 1.501 . S
C1562 C1563 1.384 . S
C1562 C1567 1.408 . S
C1563 H1553 0.930 . S
C1563 C1562 1.384 . S
C1563 C1564 1.389 . S
C1564 C1563 1.389 . S
C1564 C1565 1.405 . S
C1565 H1554 0.930 . S
C1565 C1564 1.405 . S
C1565 C1566 1.364 . S
C1566 C1565 1.364 . S
C1566 C1567 1.400 . S
C1567 H1555 0.931 . S
C1567 C1562 1.408 . S
C1567 C1566 1.400 . S
H1568 C1574 0.930 . S
H1569 C1577 0.931 . S
H1570 C1579 0.931 . S
H1571 C1581 0.930 . S
H1572 C1583 0.930 . S
H1573 C1585 0.931 . S
C1574 H1568 0.930 . S
C1574 C1575 1.380 . S
C1574 C1576 1.394 . S
C1575 C1574 1.380 . S
C1575 C1579 1.382 . S
C1576 C1574 1.394 . S
C1576 C1577 1.400 . S
C1577 H1569 0.931 . S
C1577 C1576 1.400 . S
C1577 C1578 1.375 . S
C1578 C1577 1.375 . S
C1578 C1579 1.415 . S
C1578 C1580 1.501 . S
C1579 H1570 0.931 . S
C1579 C1575 1.382 . S
C1579 C1578 1.415 . S
C1580 C1578 1.501 . S
C1580 C1581 1.384 . S
C1580 C1585 1.408 . S
C1581 H1571 0.930 . S
C1581 C1580 1.384 . S
C1581 C1582 1.389 . S
C1582 C1581 1.389 . S
C1582 C1583 1.405 . S
C1583 H1572 0.930 . S
C1583 C1582 1.405 . S
C1583 C1584 1.364 . S
C1584 C1583 1.364 . S
C1584 C1585 1.400 . S
C1585 H1573 0.931 . S
C1585 C1580 1.408 . S
C1585 C1584 1.400 . S
H1586 C1592 0.930 . S
H1587 C1595 0.931 . S
H1588 C1597 0.931 . S
H1589 C1599 0.930 . S
H1590 C1601 0.930 . S
H1591 C1603 0.931 . S
C1592 H1586 0.930 . S
C1592 C1593 1.380 . S
C1592 C1594 1.394 . S
C1593 C1592 1.380 . S
C1593 C1597 1.382 . S
C1594 C1592 1.394 . S
C1594 C1595 1.400 . S
C1595 H1587 0.931 . S
C1595 C1594 1.400 . S
C1595 C1596 1.375 . S
C1596 C1595 1.375 . S
C1596 C1597 1.415 . S
C1596 C1598 1.501 . S
C1597 H1588 0.931 . S
C1597 C1593 1.382 . S
C1597 C1596 1.415 . S
C1598 C1596 1.501 . S
C1598 C1599 1.384 . S
C1598 C1603 1.408 . S
C1599 H1589 0.930 . S
C1599 C1598 1.384 . S
C1599 C1600 1.389 . S
C1600 C1599 1.389 . S
C1600 C1601 1.405 . S
C1601 H1590 0.930 . S
C1601 C1600 1.405 . S
C1601 C1602 1.364 . S
C1602 C1601 1.364 . S
C1602 C1603 1.400 . S
C1603 H1591 0.931 . S
C1603 C1598 1.408 . S
C1603 C1602 1.400 . S
H1604 C1610 0.930 . S
H1605 C1613 0.931 . S
H1606 C1615 0.931 . S
H1607 C1617 0.930 . S
H1608 C1619 0.930 . S
H1609 C1621 0.931 . S
C1610 H1604 0.930 . S
C1610 C1611 1.380 . S
C1610 C1612 1.394 . S
C1611 C1610 1.380 . S
C1611 C1615 1.382 . S
C1612 C1610 1.394 . S
C1612 C1613 1.400 . S
C1613 H1605 0.931 . S
C1613 C1612 1.400 . S
C1613 C1614 1.375 . S
C1614 C1613 1.375 . S
C1614 C1615 1.415 . S
C1614 C1616 1.501 . S
C1615 H1606 0.931 . S
C1615 C1611 1.382 . S
C1615 C1614 1.415 . S
C1616 C1614 1.501 . S
C1616 C1617 1.384 . S
C1616 C1621 1.408 . S
C1617 H1607 0.930 . S
C1617 C1616 1.384 . S
C1617 C1618 1.389 . S
C1618 C1617 1.389 . S
C1618 C1619 1.405 . S
C1619 H1608 0.930 . S
C1619 C1618 1.405 . S
C1619 C1620 1.364 . S
C1620 C1619 1.364 . S
C1620 C1621 1.400 . S
C1621 H1609 0.931 . S
C1621 C1616 1.408 . S
C1621 C1620 1.400 . S
H1622 C1628 0.930 . S
H1623 C1631 0.931 . S
H1624 C1633 0.931 . S
H1625 C1635 0.930 . S
H1626 C1637 0.930 . S
H1627 C1639 0.931 . S
C1628 H1622 0.930 . S
C1628 C1629 1.380 . S
C1628 C1630 1.394 . S
C1629 C1628 1.380 . S
C1629 C1633 1.382 . S
C1630 C1628 1.394 . S
C1630 C1631 1.400 . S
C1631 H1623 0.931 . S
C1631 C1630 1.400 . S
C1631 C1632 1.375 . S
C1632 C1631 1.375 . S
C1632 C1633 1.415 . S
C1632 C1634 1.501 . S
C1633 H1624 0.931 . S
C1633 C1629 1.382 . S
C1633 C1632 1.415 . S
C1634 C1632 1.501 . S
C1634 C1635 1.384 . S
C1634 C1639 1.408 . S
C1635 H1625 0.930 . S
C1635 C1634 1.384 . S
C1635 C1636 1.389 . S
C1636 C1635 1.389 . S
C1636 C1637 1.405 . S
C1637 H1626 0.930 . S
C1637 C1636 1.405 . S
C1637 C1638 1.364 . S
C1638 C1637 1.364 . S
C1638 C1639 1.400 . S
C1639 H1627 0.931 . S
C1639 C1634 1.408 . S
C1639 C1638 1.400 . S
H1640 C1646 0.930 . S
H1641 C1649 0.931 . S
H1642 C1651 0.931 . S
H1643 C1653 0.930 . S
H1644 C1655 0.930 . S
H1645 C1657 0.931 . S
C1646 H1640 0.930 . S
C1646 C1647 1.380 . S
C1646 C1648 1.394 . S
C1647 C1646 1.380 . S
C1647 C1651 1.382 . S
C1648 C1646 1.394 . S
C1648 C1649 1.400 . S
C1649 H1641 0.931 . S
C1649 C1648 1.400 . S
C1649 C1650 1.375 . S
C1650 C1649 1.375 . S
C1650 C1651 1.415 . S
C1650 C1652 1.501 . S
C1651 H1642 0.931 . S
C1651 C1647 1.382 . S
C1651 C1650 1.415 . S
C1652 C1650 1.501 . S
C1652 C1653 1.384 . S
C1652 C1657 1.408 . S
C1653 H1643 0.930 . S
C1653 C1652 1.384 . S
C1653 C1654 1.389 . S
C1654 C1653 1.389 . S
C1654 C1655 1.405 . S
C1655 H1644 0.930 . S
C1655 C1654 1.405 . S
C1655 C1656 1.364 . S
C1656 C1655 1.364 . S
C1656 C1657 1.400 . S
C1657 H1645 0.931 . S
C1657 C1652 1.408 . S
C1657 C1656 1.400 . S
H1658 C1664 0.930 . S
H1659 C1667 0.931 . S
H1660 C1669 0.931 . S
H1661 C1671 0.930 . S
H1662 C1673 0.930 . S
H1663 C1675 0.931 . S
C1664 H1658 0.930 . S
C1664 C1665 1.380 . S
C1664 C1666 1.394 . S
C1665 C1664 1.380 . S
C1665 C1669 1.382 . S
C1666 C1664 1.394 . S
C1666 C1667 1.400 . S
C1667 H1659 0.931 . S
C1667 C1666 1.400 . S
C1667 C1668 1.375 . S
C1668 C1667 1.375 . S
C1668 C1669 1.415 . S
C1668 C1670 1.501 . S
C1669 H1660 0.931 . S
C1669 C1665 1.382 . S
C1669 C1668 1.415 . S
C1670 C1668 1.501 . S
C1670 C1671 1.384 . S
C1670 C1675 1.408 . S
C1671 H1661 0.930 . S
C1671 C1670 1.384 . S
C1671 C1672 1.389 . S
C1672 C1671 1.389 . S
C1672 C1673 1.405 . S
C1673 H1662 0.930 . S
C1673 C1672 1.405 . S
C1673 C1674 1.364 . S
C1674 C1673 1.364 . S
C1674 C1675 1.400 . S
C1675 H1663 0.931 . S
C1675 C1670 1.408 . S
C1675 C1674 1.400 . S
H1676 C1682 0.930 . S
H1677 C1685 0.931 . S
H1678 C1687 0.931 . S
H1679 C1689 0.930 . S
H1680 C1691 0.930 . S
H1681 C1693 0.931 . S
C1682 H1676 0.930 . S
C1682 C1683 1.380 . S
C1682 C1684 1.394 . S
C1683 C1682 1.380 . S
C1683 C1687 1.382 . S
C1684 C1682 1.394 . S
C1684 C1685 1.400 . S
C1685 H1677 0.931 . S
C1685 C1684 1.400 . S
C1685 C1686 1.375 . S
C1686 C1685 1.375 . S
C1686 C1687 1.415 . S
C1686 C1688 1.501 . S
C1687 H1678 0.931 . S
C1687 C1683 1.382 . S
C1687 C1686 1.415 . S
C1688 C1686 1.501 . S
C1688 C1689 1.384 . S
C1688 C1693 1.408 . S
C1689 H1679 0.930 . S
C1689 C1688 1.384 . S
C1689 C1690 1.389 . S
C1690 C1689 1.389 . S
C1690 C1691 1.405 . S
C1691 H1680 0.930 . S
C1691 C1690 1.405 . S
C1691 C1692 1.364 . S
C1692 C1691 1.364 . S
C1692 C1693 1.400 . S
C1693 H1681 0.931 . S
C1693 C1688 1.408 . S
C1693 C1692 1.400 . S
H1694 C1700 0.930 . S
H1695 C1703 0.931 . S
H1696 C1705 0.931 . S
H1697 C1707 0.930 . S
H1698 C1709 0.930 . S
H1699 C1711 0.931 . S
C1700 H1694 0.930 . S
C1700 C1701 1.380 . S
C1700 C1702 1.394 . S
C1701 C1700 1.380 . S
C1701 C1705 1.382 . S
C1702 C1700 1.394 . S
C1702 C1703 1.400 . S
C1703 H1695 0.931 . S
C1703 C1702 1.400 . S
C1703 C1704 1.375 . S
C1704 C1703 1.375 . S
C1704 C1705 1.415 . S
C1704 C1706 1.501 . S
C1705 H1696 0.931 . S
C1705 C1701 1.382 . S
C1705 C1704 1.415 . S
C1706 C1704 1.501 . S
C1706 C1707 1.384 . S
C1706 C1711 1.408 . S
C1707 H1697 0.930 . S
C1707 C1706 1.384 . S
C1707 C1708 1.389 . S
C1708 C1707 1.389 . S
C1708 C1709 1.405 . S
C1709 H1698 0.930 . S
C1709 C1708 1.405 . S
C1709 C1710 1.364 . S
C1710 C1709 1.364 . S
C1710 C1711 1.400 . S
C1711 H1699 0.931 . S
C1711 C1706 1.408 . S
C1711 C1710 1.400 . S
C1712 C1713 1.391 . S
C1712 C1714 1.394 . S
C1712 H1728 0.931 . S
C1713 C1712 1.391 . S
C1713 C1717 1.376 . S
C1714 C1712 1.394 . S
C1714 C1715 1.369 . S
C1714 C1718 1.531 . S
C1715 C1714 1.369 . S
C1715 C1716 1.410 . S
C1715 C1723 1.503 . S
C1716 C1715 1.410 . S
C1716 C1717 1.392 . S
C1716 C1719 1.511 . S
C1717 C1713 1.376 . S
C1717 C1716 1.392 . S
C1717 H1729 0.929 . S
C1718 C1714 1.531 . S
C1718 H1730 0.960 . S
C1718 H1731 0.962 . S
C1718 H1732 0.960 . S
C1719 C1716 1.511 . S
C1719 H1733 0.961 . S
C1719 H1734 0.961 . S
C1719 H1735 0.961 . S
C1720 C1721 1.370 . S
C1720 C1722 1.363 . S
C1720 H1736 0.931 . S
C1721 C1720 1.370 . S
C1721 C1725 1.408 . S
C1722 C1720 1.363 . S
C1722 C1723 1.370 . S
C1722 C1726 1.524 . S
C1723 C1715 1.503 . S
C1723 C1722 1.370 . S
C1723 C1724 1.403 . S
C1724 C1723 1.403 . S
C1724 C1725 1.404 . S
C1724 C1727 1.539 . S
C1725 C1721 1.408 . S
C1725 C1724 1.404 . S
C1725 H1737 0.930 . S
C1726 C1722 1.524 . S
C1726 H1738 0.956 . S
C1726 H1739 0.961 . S
C1726 H1740 0.961 . S
C1727 C1724 1.539 . S
C1727 H1741 0.958 . S
C1727 H1742 0.961 . S
C1727 H1743 0.960 . S
H1728 C1712 0.931 . S
H1729 C1717 0.929 . S
H1730 C1718 0.960 . S
H1731 C1718 0.962 . S
H1732 C1718 0.960 . S
H1733 C1719 0.961 . S
H1734 C1719 0.961 . S
H1735 C1719 0.961 . S
H1736 C1720 0.931 . S
H1737 C1725 0.930 . S
H1738 C1726 0.956 . S
H1739 C1726 0.961 . S
H1740 C1726 0.961 . S
H1741 C1727 0.958 . S
H1742 C1727 0.961 . S
H1743 C1727 0.960 . S
C1744 C1745 1.391 . S
C1744 C1746 1.394 . S
C1744 H1760 0.931 . S
C1745 C1744 1.391 . S
C1745 C1749 1.376 . S
C1746 C1744 1.394 . S
C1746 C1747 1.369 . S
C1746 C1750 1.531 . S
C1747 C1746 1.369 . S
C1747 C1748 1.410 . S
C1747 C1755 1.503 . S
C1748 C1747 1.410 . S
C1748 C1749 1.392 . S
C1748 C1751 1.511 . S
C1749 C1745 1.376 . S
C1749 C1748 1.392 . S
C1749 H1761 0.929 . S
C1750 C1746 1.531 . S
C1750 H1762 0.960 . S
C1750 H1763 0.962 . S
C1750 H1764 0.960 . S
C1751 C1748 1.511 . S
C1751 H1765 0.961 . S
C1751 H1766 0.961 . S
C1751 H1767 0.961 . S
C1752 C1753 1.370 . S
C1752 C1754 1.363 . S
C1752 H1768 0.931 . S
C1753 C1752 1.370 . S
C1753 C1757 1.408 . S
C1754 C1752 1.363 . S
C1754 C1755 1.370 . S
C1754 C1758 1.524 . S
C1755 C1747 1.503 . S
C1755 C1754 1.370 . S
C1755 C1756 1.403 . S
C1756 C1755 1.403 . S
C1756 C1757 1.404 . S
C1756 C1759 1.539 . S
C1757 C1753 1.408 . S
C1757 C1756 1.404 . S
C1757 H1769 0.930 . S
C1758 C1754 1.524 . S
C1758 H1770 0.956 . S
C1758 H1771 0.961 . S
C1758 H1772 0.961 . S
C1759 C1756 1.539 . S
C1759 H1773 0.958 . S
C1759 H1774 0.961 . S
C1759 H1775 0.960 . S
H1760 C1744 0.931 . S
H1761 C1749 0.929 . S
H1762 C1750 0.960 . S
H1763 C1750 0.962 . S
H1764 C1750 0.960 . S
H1765 C1751 0.961 . S
H1766 C1751 0.961 . S
H1767 C1751 0.961 . S
H1768 C1752 0.931 . S
H1769 C1757 0.930 . S
H1770 C1758 0.956 . S
H1771 C1758 0.961 . S
H1772 C1758 0.961 . S
H1773 C1759 0.958 . S
H1774 C1759 0.961 . S
H1775 C1759 0.960 . S
C1776 C1777 1.391 . S
C1776 C1778 1.394 . S
C1776 H1792 0.931 . S
C1777 C1776 1.391 . S
C1777 C1781 1.376 . S
C1778 C1776 1.394 . S
C1778 C1779 1.369 . S
C1778 C1782 1.531 . S
C1779 C1778 1.369 . S
C1779 C1780 1.410 . S
C1779 C1787 1.503 . S
C1780 C1779 1.410 . S
C1780 C1781 1.392 . S
C1780 C1783 1.511 . S
C1781 C1777 1.376 . S
C1781 C1780 1.392 . S
C1781 H1793 0.929 . S
C1782 C1778 1.531 . S
C1782 H1794 0.960 . S
C1782 H1795 0.962 . S
C1782 H1796 0.960 . S
C1783 C1780 1.511 . S
C1783 H1797 0.961 . S
C1783 H1798 0.961 . S
C1783 H1799 0.961 . S
C1784 C1785 1.370 . S
C1784 C1786 1.363 . S
C1784 H1800 0.931 . S
C1785 C1784 1.370 . S
C1785 C1789 1.408 . S
C1786 C1784 1.363 . S
C1786 C1787 1.370 . S
C1786 C1790 1.524 . S
C1787 C1779 1.503 . S
C1787 C1786 1.370 . S
C1787 C1788 1.403 . S
C1788 C1787 1.403 . S
C1788 C1789 1.404 . S
C1788 C1791 1.539 . S
C1789 C1785 1.408 . S
C1789 C1788 1.404 . S
C1789 H1801 0.930 . S
C1790 C1786 1.524 . S
C1790 H1802 0.956 . S
C1790 H1803 0.961 . S
C1790 H1804 0.961 . S
C1791 C1788 1.539 . S
C1791 H1805 0.958 . S
C1791 H1806 0.961 . S
C1791 H1807 0.960 . S
H1792 C1776 0.931 . S
H1793 C1781 0.929 . S
H1794 C1782 0.960 . S
H1795 C1782 0.962 . S
H1796 C1782 0.960 . S
H1797 C1783 0.961 . S
H1798 C1783 0.961 . S
H1799 C1783 0.961 . S
H1800 C1784 0.931 . S
H1801 C1789 0.930 . S
H1802 C1790 0.956 . S
H1803 C1790 0.961 . S
H1804 C1790 0.961 . S
H1805 C1791 0.958 . S
H1806 C1791 0.961 . S
H1807 C1791 0.960 . S
C1808 C1809 1.391 . S
C1808 C1810 1.394 . S
C1808 H1824 0.931 . S
C1809 C1808 1.391 . S
C1809 C1813 1.376 . S
C1810 C1808 1.394 . S
C1810 C1811 1.369 . S
C1810 C1814 1.531 . S
C1811 C1810 1.369 . S
C1811 C1812 1.410 . S
C1811 C1819 1.503 . S
C1812 C1811 1.410 . S
C1812 C1813 1.392 . S
C1812 C1815 1.511 . S
C1813 C1809 1.376 . S
C1813 C1812 1.392 . S
C1813 H1825 0.929 . S
C1814 C1810 1.531 . S
C1814 H1826 0.960 . S
C1814 H1827 0.962 . S
C1814 H1828 0.960 . S
C1815 C1812 1.511 . S
C1815 H1829 0.961 . S
C1815 H1830 0.961 . S
C1815 H1831 0.961 . S
C1816 C1817 1.370 . S
C1816 C1818 1.363 . S
C1816 H1832 0.931 . S
C1817 C1816 1.370 . S
C1817 C1821 1.408 . S
C1818 C1816 1.363 . S
C1818 C1819 1.370 . S
C1818 C1822 1.524 . S
C1819 C1811 1.503 . S
C1819 C1818 1.370 . S
C1819 C1820 1.403 . S
C1820 C1819 1.403 . S
C1820 C1821 1.404 . S
C1820 C1823 1.539 . S
C1821 C1817 1.408 . S
C1821 C1820 1.404 . S
C1821 H1833 0.930 . S
C1822 C1818 1.524 . S
C1822 H1834 0.956 . S
C1822 H1835 0.961 . S
C1822 H1836 0.961 . S
C1823 C1820 1.539 . S
C1823 H1837 0.958 . S
C1823 H1838 0.961 . S
C1823 H1839 0.960 . S
H1824 C1808 0.931 . S
H1825 C1813 0.929 . S
H1826 C1814 0.960 . S
H1827 C1814 0.962 . S
H1828 C1814 0.960 . S
H1829 C1815 0.961 . S
H1830 C1815 0.961 . S
H1831 C1815 0.961 . S
H1832 C1816 0.931 . S
H1833 C1821 0.930 . S
H1834 C1822 0.956 . S
H1835 C1822 0.961 . S
H1836 C1822 0.961 . S
H1837 C1823 0.958 . S
H1838 C1823 0.961 . S
H1839 C1823 0.960 . S
C1840 C1841 1.391 . S
C1840 C1842 1.394 . S
C1840 H1856 0.931 . S
C1841 C1840 1.391 . S
C1841 C1845 1.376 . S
C1842 C1840 1.394 . S
C1842 C1843 1.369 . S
C1842 C1846 1.531 . S
C1843 C1842 1.369 . S
C1843 C1844 1.410 . S
C1843 C1851 1.503 . S
C1844 C1843 1.410 . S
C1844 C1845 1.392 . S
C1844 C1847 1.511 . S
C1845 C1841 1.376 . S
C1845 C1844 1.392 . S
C1845 H1857 0.929 . S
C1846 C1842 1.531 . S
C1846 H1858 0.960 . S
C1846 H1859 0.962 . S
C1846 H1860 0.960 . S
C1847 C1844 1.511 . S
C1847 H1861 0.961 . S
C1847 H1862 0.961 . S
C1847 H1863 0.961 . S
C1848 C1849 1.370 . S
C1848 C1850 1.363 . S
C1848 H1864 0.931 . S
C1849 C1848 1.370 . S
C1849 C1853 1.408 . S
C1850 C1848 1.363 . S
C1850 C1851 1.370 . S
C1850 C1854 1.524 . S
C1851 C1843 1.503 . S
C1851 C1850 1.370 . S
C1851 C1852 1.403 . S
C1852 C1851 1.403 . S
C1852 C1853 1.404 . S
C1852 C1855 1.539 . S
C1853 C1849 1.408 . S
C1853 C1852 1.404 . S
C1853 H1865 0.930 . S
C1854 C1850 1.524 . S
C1854 H1866 0.956 . S
C1854 H1867 0.961 . S
C1854 H1868 0.961 . S
C1855 C1852 1.539 . S
C1855 H1869 0.958 . S
C1855 H1870 0.961 . S
C1855 H1871 0.960 . S
H1856 C1840 0.931 . S
H1857 C1845 0.929 . S
H1858 C1846 0.960 . S
H1859 C1846 0.962 . S
H1860 C1846 0.960 . S
H1861 C1847 0.961 . S
H1862 C1847 0.961 . S
H1863 C1847 0.961 . S
H1864 C1848 0.931 . S
H1865 C1853 0.930 . S
H1866 C1854 0.956 . S
H1867 C1854 0.961 . S
H1868 C1854 0.961 . S
H1869 C1855 0.958 . S
H1870 C1855 0.961 . S
H1871 C1855 0.960 . S
C1872 C1873 1.391 . S
C1872 C1874 1.394 . S
C1872 H1888 0.931 . S
C1873 C1872 1.391 . S
C1873 C1877 1.376 . S
C1874 C1872 1.394 . S
C1874 C1875 1.369 . S
C1874 C1878 1.531 . S
C1875 C1874 1.369 . S
C1875 C1876 1.410 . S
C1875 C1883 1.503 . S
C1876 C1875 1.410 . S
C1876 C1877 1.392 . S
C1876 C1879 1.511 . S
C1877 C1873 1.376 . S
C1877 C1876 1.392 . S
C1877 H1889 0.929 . S
C1878 C1874 1.531 . S
C1878 H1890 0.960 . S
C1878 H1891 0.962 . S
C1878 H1892 0.960 . S
C1879 C1876 1.511 . S
C1879 H1893 0.961 . S
C1879 H1894 0.961 . S
C1879 H1895 0.961 . S
C1880 C1881 1.370 . S
C1880 C1882 1.363 . S
C1880 H1896 0.931 . S
C1881 C1880 1.370 . S
C1881 C1885 1.408 . S
C1882 C1880 1.363 . S
C1882 C1883 1.370 . S
C1882 C1886 1.524 . S
C1883 C1875 1.503 . S
C1883 C1882 1.370 . S
C1883 C1884 1.403 . S
C1884 C1883 1.403 . S
C1884 C1885 1.404 . S
C1884 C1887 1.539 . S
C1885 C1881 1.408 . S
C1885 C1884 1.404 . S
C1885 H1897 0.930 . S
C1886 C1882 1.524 . S
C1886 H1898 0.956 . S
C1886 H1899 0.961 . S
C1886 H1900 0.961 . S
C1887 C1884 1.539 . S
C1887 H1901 0.958 . S
C1887 H1902 0.961 . S
C1887 H1903 0.960 . S
H1888 C1872 0.931 . S
H1889 C1877 0.929 . S
H1890 C1878 0.960 . S
H1891 C1878 0.962 . S
H1892 C1878 0.960 . S
H1893 C1879 0.961 . S
H1894 C1879 0.961 . S
H1895 C1879 0.961 . S
H1896 C1880 0.931 . S
H1897 C1885 0.930 . S
H1898 C1886 0.956 . S
H1899 C1886 0.961 . S
H1900 C1886 0.961 . S
H1901 C1887 0.958 . S
H1902 C1887 0.961 . S
H1903 C1887 0.960 . S
C1904 C1905 1.391 . S
C1904 C1906 1.394 . S
C1904 H1920 0.931 . S
C1905 C1904 1.391 . S
C1905 C1909 1.376 . S
C1906 C1904 1.394 . S
C1906 C1907 1.369 . S
C1906 C1910 1.531 . S
C1907 C1906 1.369 . S
C1907 C1908 1.410 . S
C1907 C1915 1.503 . S
C1908 C1907 1.410 . S
C1908 C1909 1.392 . S
C1908 C1911 1.511 . S
C1909 C1905 1.376 . S
C1909 C1908 1.392 . S
C1909 H1921 0.929 . S
C1910 C1906 1.531 . S
C1910 H1922 0.960 . S
C1910 H1923 0.962 . S
C1910 H1924 0.960 . S
C1911 C1908 1.511 . S
C1911 H1925 0.961 . S
C1911 H1926 0.961 . S
C1911 H1927 0.961 . S
C1912 C1913 1.370 . S
C1912 C1914 1.363 . S
C1912 H1928 0.931 . S
C1913 C1912 1.370 . S
C1913 C1917 1.408 . S
C1914 C1912 1.363 . S
C1914 C1915 1.370 . S
C1914 C1918 1.524 . S
C1915 C1907 1.503 . S
C1915 C1914 1.370 . S
C1915 C1916 1.403 . S
C1916 C1915 1.403 . S
C1916 C1917 1.404 . S
C1916 C1919 1.539 . S
C1917 C1913 1.408 . S
C1917 C1916 1.404 . S
C1917 H1929 0.930 . S
C1918 C1914 1.524 . S
C1918 H1930 0.956 . S
C1918 H1931 0.961 . S
C1918 H1932 0.961 . S
C1919 C1916 1.539 . S
C1919 H1933 0.958 . S
C1919 H1934 0.961 . S
C1919 H1935 0.960 . S
H1920 C1904 0.931 . S
H1921 C1909 0.929 . S
H1922 C1910 0.960 . S
H1923 C1910 0.962 . S
H1924 C1910 0.960 . S
H1925 C1911 0.961 . S
H1926 C1911 0.961 . S
H1927 C1911 0.961 . S
H1928 C1912 0.931 . S
H1929 C1917 0.930 . S
H1930 C1918 0.956 . S
H1931 C1918 0.961 . S
H1932 C1918 0.961 . S
H1933 C1919 0.958 . S
H1934 C1919 0.961 . S
H1935 C1919 0.960 . S
C1936 C1937 1.391 . S
C1936 C1938 1.394 . S
C1936 H1952 0.931 . S
C1937 C1936 1.391 . S
C1937 C1941 1.376 . S
C1938 C1936 1.394 . S
C1938 C1939 1.369 . S
C1938 C1942 1.531 . S
C1939 C1938 1.369 . S
C1939 C1940 1.410 . S
C1939 C1947 1.503 . S
C1940 C1939 1.410 . S
C1940 C1941 1.392 . S
C1940 C1943 1.511 . S
C1941 C1937 1.376 . S
C1941 C1940 1.392 . S
C1941 H1953 0.929 . S
C1942 C1938 1.531 . S
C1942 H1954 0.960 . S
C1942 H1955 0.962 . S
C1942 H1956 0.960 . S
C1943 C1940 1.511 . S
C1943 H1957 0.961 . S
C1943 H1958 0.961 . S
C1943 H1959 0.961 . S
C1944 C1945 1.370 . S
C1944 C1946 1.363 . S
C1944 H1960 0.931 . S
C1945 C1944 1.370 . S
C1945 C1949 1.408 . S
C1946 C1944 1.363 . S
C1946 C1947 1.370 . S
C1946 C1950 1.524 . S
C1947 C1939 1.503 . S
C1947 C1946 1.370 . S
C1947 C1948 1.403 . S
C1948 C1947 1.403 . S
C1948 C1949 1.404 . S
C1948 C1951 1.539 . S
C1949 C1945 1.408 . S
C1949 C1948 1.404 . S
C1949 H1961 0.930 . S
C1950 C1946 1.524 . S
C1950 H1962 0.956 . S
C1950 H1963 0.961 . S
C1950 H1964 0.961 . S
C1951 C1948 1.539 . S
C1951 H1965 0.958 . S
C1951 H1966 0.961 . S
C1951 H1967 0.960 . S
H1952 C1936 0.931 . S
H1953 C1941 0.929 . S
H1954 C1942 0.960 . S
H1955 C1942 0.962 . S
H1956 C1942 0.960 . S
H1957 C1943 0.961 . S
H1958 C1943 0.961 . S
H1959 C1943 0.961 . S
H1960 C1944 0.931 . S
H1961 C1949 0.930 . S
H1962 C1950 0.956 . S
H1963 C1950 0.961 . S
H1964 C1950 0.961 . S
H1965 C1951 0.958 . S
H1966 C1951 0.961 . S
H1967 C1951 0.960 . S
C1968 C1969 1.391 . S
C1968 C1970 1.394 . S
C1968 H1984 0.931 . S
C1969 C1968 1.391 . S
C1969 C1973 1.376 . S
C1970 C1968 1.394 . S
C1970 C1971 1.369 . S
C1970 C1974 1.531 . S
C1971 C1970 1.369 . S
C1971 C1972 1.410 . S
C1971 C1979 1.503 . S
C1972 C1971 1.410 . S
C1972 C1973 1.392 . S
C1972 C1975 1.511 . S
C1973 C1969 1.376 . S
C1973 C1972 1.392 . S
C1973 H1985 0.929 . S
C1974 C1970 1.531 . S
C1974 H1986 0.960 . S
C1974 H1987 0.962 . S
C1974 H1988 0.960 . S
C1975 C1972 1.511 . S
C1975 H1989 0.961 . S
C1975 H1990 0.961 . S
C1975 H1991 0.961 . S
C1976 C1977 1.370 . S
C1976 C1978 1.363 . S
C1976 H1992 0.931 . S
C1977 C1976 1.370 . S
C1977 C1981 1.408 . S
C1978 C1976 1.363 . S
C1978 C1979 1.370 . S
C1978 C1982 1.524 . S
C1979 C1971 1.503 . S
C1979 C1978 1.370 . S
C1979 C1980 1.403 . S
C1980 C1979 1.403 . S
C1980 C1981 1.404 . S
C1980 C1983 1.539 . S
C1981 C1977 1.408 . S
C1981 C1980 1.404 . S
C1981 H1993 0.930 . S
C1982 C1978 1.524 . S
C1982 H1994 0.956 . S
C1982 H1995 0.961 . S
C1982 H1996 0.961 . S
C1983 C1980 1.539 . S
C1983 H1997 0.958 . S
C1983 H1998 0.961 . S
C1983 H1999 0.960 . S
H1984 C1968 0.931 . S
H1985 C1973 0.929 . S
H1986 C1974 0.960 . S
H1987 C1974 0.962 . S
H1988 C1974 0.960 . S
H1989 C1975 0.961 . S
H1990 C1975 0.961 . S
H1991 C1975 0.961 . S
H1992 C1976 0.931 . S
H1993 C1981 0.930 . S
H1994 C1982 0.956 . S
H1995 C1982 0.961 . S
H1996 C1982 0.961 . S
H1997 C1983 0.958 . S
H1998 C1983 0.961 . S
H1999 C1983 0.960 . S
C2000 C2001 1.391 . S
C2000 C2002 1.394 . S
C2000 H2016 0.931 . S
C2001 C2000 1.391 . S
C2001 C2005 1.376 . S
C2002 C2000 1.394 . S
C2002 C2003 1.369 . S
C2002 C2006 1.531 . S
C2003 C2002 1.369 . S
C2003 C2004 1.410 . S
C2003 C2011 1.503 . S
C2004 C2003 1.410 . S
C2004 C2005 1.392 . S
C2004 C2007 1.511 . S
C2005 C2001 1.376 . S
C2005 C2004 1.392 . S
C2005 H2017 0.929 . S
C2006 C2002 1.531 . S
C2006 H2018 0.960 . S
C2006 H2019 0.962 . S
C2006 H2020 0.960 . S
C2007 C2004 1.511 . S
C2007 H2021 0.961 . S
C2007 H2022 0.961 . S
C2007 H2023 0.961 . S
C2008 C2009 1.370 . S
C2008 C2010 1.363 . S
C2008 H2024 0.931 . S
C2009 C2008 1.370 . S
C2009 C2013 1.408 . S
C2010 C2008 1.363 . S
C2010 C2011 1.370 . S
C2010 C2014 1.524 . S
C2011 C2003 1.503 . S
C2011 C2010 1.370 . S
C2011 C2012 1.403 . S
C2012 C2011 1.403 . S
C2012 C2013 1.404 . S
C2012 C2015 1.539 . S
C2013 C2009 1.408 . S
C2013 C2012 1.404 . S
C2013 H2025 0.930 . S
C2014 C2010 1.524 . S
C2014 H2026 0.956 . S
C2014 H2027 0.961 . S
C2014 H2028 0.961 . S
C2015 C2012 1.539 . S
C2015 H2029 0.958 . S
C2015 H2030 0.961 . S
C2015 H2031 0.960 . S
H2016 C2000 0.931 . S
H2017 C2005 0.929 . S
H2018 C2006 0.960 . S
H2019 C2006 0.962 . S
H2020 C2006 0.960 . S
H2021 C2007 0.961 . S
H2022 C2007 0.961 . S
H2023 C2007 0.961 . S
H2024 C2008 0.931 . S
H2025 C2013 0.930 . S
H2026 C2014 0.956 . S
H2027 C2014 0.961 . S
H2028 C2014 0.961 . S
H2029 C2015 0.958 . S
H2030 C2015 0.961 . S
H2031 C2015 0.960 . S
C2032 C2033 1.391 . S
C2032 C2034 1.394 . S
C2032 H2048 0.931 . S
C2033 C2032 1.391 . S
C2033 C2037 1.376 . S
C2034 C2032 1.394 . S
C2034 C2035 1.369 . S
C2034 C2038 1.531 . S
C2035 C2034 1.369 . S
C2035 C2036 1.410 . S
C2035 C2043 1.503 . S
C2036 C2035 1.410 . S
C2036 C2037 1.392 . S
C2036 C2039 1.511 . S
C2037 C2033 1.376 . S
C2037 C2036 1.392 . S
C2037 H2049 0.929 . S
C2038 C2034 1.531 . S
C2038 H2050 0.960 . S
C2038 H2051 0.962 . S
C2038 H2052 0.960 . S
C2039 C2036 1.511 . S
C2039 H2053 0.961 . S
C2039 H2054 0.961 . S
C2039 H2055 0.961 . S
C2040 C2041 1.370 . S
C2040 C2042 1.363 . S
C2040 H2056 0.931 . S
C2041 C2040 1.370 . S
C2041 C2045 1.408 . S
C2042 C2040 1.363 . S
C2042 C2043 1.370 . S
C2042 C2046 1.524 . S
C2043 C2035 1.503 . S
C2043 C2042 1.370 . S
C2043 C2044 1.403 . S
C2044 C2043 1.403 . S
C2044 C2045 1.404 . S
C2044 C2047 1.539 . S
C2045 C2041 1.408 . S
C2045 C2044 1.404 . S
C2045 H2057 0.930 . S
C2046 C2042 1.524 . S
C2046 H2058 0.956 . S
C2046 H2059 0.961 . S
C2046 H2060 0.961 . S
C2047 C2044 1.539 . S
C2047 H2061 0.958 . S
C2047 H2062 0.961 . S
C2047 H2063 0.960 . S
H2048 C2032 0.931 . S
H2049 C2037 0.929 . S
H2050 C2038 0.960 . S
H2051 C2038 0.962 . S
H2052 C2038 0.960 . S
H2053 C2039 0.961 . S
H2054 C2039 0.961 . S
H2055 C2039 0.961 . S
H2056 C2040 0.931 . S
H2057 C2045 0.930 . S
H2058 C2046 0.956 . S
H2059 C2046 0.961 . S
H2060 C2046 0.961 . S
H2061 C2047 0.958 . S
H2062 C2047 0.961 . S
H2063 C2047 0.960 . S
C2064 C2065 1.391 . S
C2064 C2066 1.394 . S
C2064 H2080 0.931 . S
C2065 C2064 1.391 . S
C2065 C2069 1.376 . S
C2066 C2064 1.394 . S
C2066 C2067 1.369 . S
C2066 C2070 1.531 . S
C2067 C2066 1.369 . S
C2067 C2068 1.410 . S
C2067 C2075 1.503 . S
C2068 C2067 1.410 . S
C2068 C2069 1.392 . S
C2068 C2071 1.511 . S
C2069 C2065 1.376 . S
C2069 C2068 1.392 . S
C2069 H2081 0.929 . S
C2070 C2066 1.531 . S
C2070 H2082 0.960 . S
C2070 H2083 0.962 . S
C2070 H2084 0.960 . S
C2071 C2068 1.511 . S
C2071 H2085 0.961 . S
C2071 H2086 0.961 . S
C2071 H2087 0.961 . S
C2072 C2073 1.370 . S
C2072 C2074 1.363 . S
C2072 H2088 0.931 . S
C2073 C2072 1.370 . S
C2073 C2077 1.408 . S
C2074 C2072 1.363 . S
C2074 C2075 1.370 . S
C2074 C2078 1.524 . S
C2075 C2067 1.503 . S
C2075 C2074 1.370 . S
C2075 C2076 1.403 . S
C2076 C2075 1.403 . S
C2076 C2077 1.404 . S
C2076 C2079 1.539 . S
C2077 C2073 1.408 . S
C2077 C2076 1.404 . S
C2077 H2089 0.930 . S
C2078 C2074 1.524 . S
C2078 H2090 0.956 . S
C2078 H2091 0.961 . S
C2078 H2092 0.961 . S
C2079 C2076 1.539 . S
C2079 H2093 0.958 . S
C2079 H2094 0.961 . S
C2079 H2095 0.960 . S
H2080 C2064 0.931 . S
H2081 C2069 0.929 . S
H2082 C2070 0.960 . S
H2083 C2070 0.962 . S
H2084 C2070 0.960 . S
H2085 C2071 0.961 . S
H2086 C2071 0.961 . S
H2087 C2071 0.961 . S
H2088 C2072 0.931 . S
H2089 C2077 0.930 . S
H2090 C2078 0.956 . S
H2091 C2078 0.961 . S
H2092 C2078 0.961 . S
H2093 C2079 0.958 . S
H2094 C2079 0.961 . S
H2095 C2079 0.960 . S
C2096 C2097 1.391 . S
C2096 C2098 1.394 . S
C2096 H2112 0.931 . S
C2097 C2096 1.391 . S
C2097 C2101 1.376 . S
C2098 C2096 1.394 . S
C2098 C2099 1.369 . S
C2098 C2102 1.531 . S
C2099 C2098 1.369 . S
C2099 C2100 1.410 . S
C2099 C2107 1.503 . S
C2100 C2099 1.410 . S
C2100 C2101 1.392 . S
C2100 C2103 1.511 . S
C2101 C2097 1.376 . S
C2101 C2100 1.392 . S
C2101 H2113 0.929 . S
C2102 C2098 1.531 . S
C2102 H2114 0.960 . S
C2102 H2115 0.962 . S
C2102 H2116 0.960 . S
C2103 C2100 1.511 . S
C2103 H2117 0.961 . S
C2103 H2118 0.961 . S
C2103 H2119 0.961 . S
C2104 C2105 1.370 . S
C2104 C2106 1.363 . S
C2104 H2120 0.931 . S
C2105 C2104 1.370 . S
C2105 C2109 1.408 . S
C2106 C2104 1.363 . S
C2106 C2107 1.370 . S
C2106 C2110 1.524 . S
C2107 C2099 1.503 . S
C2107 C2106 1.370 . S
C2107 C2108 1.403 . S
C2108 C2107 1.403 . S
C2108 C2109 1.404 . S
C2108 C2111 1.539 . S
C2109 C2105 1.408 . S
C2109 C2108 1.404 . S
C2109 H2121 0.930 . S
C2110 C2106 1.524 . S
C2110 H2122 0.956 . S
C2110 H2123 0.961 . S
C2110 H2124 0.961 . S
C2111 C2108 1.539 . S
C2111 H2125 0.958 . S
C2111 H2126 0.961 . S
C2111 H2127 0.960 . S
H2112 C2096 0.931 . S
H2113 C2101 0.929 . S
H2114 C2102 0.960 . S
H2115 C2102 0.962 . S
H2116 C2102 0.960 . S
H2117 C2103 0.961 . S
H2118 C2103 0.961 . S
H2119 C2103 0.961 . S
H2120 C2104 0.931 . S
H2121 C2109 0.930 . S
H2122 C2110 0.956 . S
H2123 C2110 0.961 . S
H2124 C2110 0.961 . S
H2125 C2111 0.958 . S
H2126 C2111 0.961 . S
H2127 C2111 0.960 . S
C2128 C2129 1.391 . S
C2128 C2130 1.394 . S
C2128 H2144 0.931 . S
C2129 C2128 1.391 . S
C2129 C2133 1.376 . S
C2130 C2128 1.394 . S
C2130 C2131 1.369 . S
C2130 C2134 1.531 . S
C2131 C2130 1.369 . S
C2131 C2132 1.410 . S
C2131 C2139 1.503 . S
C2132 C2131 1.410 . S
C2132 C2133 1.392 . S
C2132 C2135 1.511 . S
C2133 C2129 1.376 . S
C2133 C2132 1.392 . S
C2133 H2145 0.929 . S
C2134 C2130 1.531 . S
C2134 H2146 0.960 . S
C2134 H2147 0.962 . S
C2134 H2148 0.960 . S
C2135 C2132 1.511 . S
C2135 H2149 0.961 . S
C2135 H2150 0.961 . S
C2135 H2151 0.961 . S
C2136 C2137 1.370 . S
C2136 C2138 1.363 . S
C2136 H2152 0.931 . S
C2137 C2136 1.370 . S
C2137 C2141 1.408 . S
C2138 C2136 1.363 . S
C2138 C2139 1.370 . S
C2138 C2142 1.524 . S
C2139 C2131 1.503 . S
C2139 C2138 1.370 . S
C2139 C2140 1.403 . S
C2140 C2139 1.403 . S
C2140 C2141 1.404 . S
C2140 C2143 1.539 . S
C2141 C2137 1.408 . S
C2141 C2140 1.404 . S
C2141 H2153 0.930 . S
C2142 C2138 1.524 . S
C2142 H2154 0.956 . S
C2142 H2155 0.961 . S
C2142 H2156 0.961 . S
C2143 C2140 1.539 . S
C2143 H2157 0.958 . S
C2143 H2158 0.961 . S
C2143 H2159 0.960 . S
H2144 C2128 0.931 . S
H2145 C2133 0.929 . S
H2146 C2134 0.960 . S
H2147 C2134 0.962 . S
H2148 C2134 0.960 . S
H2149 C2135 0.961 . S
H2150 C2135 0.961 . S
H2151 C2135 0.961 . S
H2152 C2136 0.931 . S
H2153 C2141 0.930 . S
H2154 C2142 0.956 . S
H2155 C2142 0.961 . S
H2156 C2142 0.961 . S
H2157 C2143 0.958 . S
H2158 C2143 0.961 . S
H2159 C2143 0.960 . S
C2160 C2161 1.391 . S
C2160 C2162 1.394 . S
C2160 H2176 0.931 . S
C2161 C2160 1.391 . S
C2161 C2165 1.376 . S
C2162 C2160 1.394 . S
C2162 C2163 1.369 . S
C2162 C2166 1.531 . S
C2163 C2162 1.369 . S
C2163 C2164 1.410 . S
C2163 C2171 1.503 . S
C2164 C2163 1.410 . S
C2164 C2165 1.392 . S
C2164 C2167 1.511 . S
C2165 C2161 1.376 . S
C2165 C2164 1.392 . S
C2165 H2177 0.929 . S
C2166 C2162 1.531 . S
C2166 H2178 0.960 . S
C2166 H2179 0.962 . S
C2166 H2180 0.960 . S
C2167 C2164 1.511 . S
C2167 H2181 0.961 . S
C2167 H2182 0.961 . S
C2167 H2183 0.961 . S
C2168 C2169 1.370 . S
C2168 C2170 1.363 . S
C2168 H2184 0.931 . S
C2169 C2168 1.370 . S
C2169 C2173 1.408 . S
C2170 C2168 1.363 . S
C2170 C2171 1.370 . S
C2170 C2174 1.524 . S
C2171 C2163 1.503 . S
C2171 C2170 1.370 . S
C2171 C2172 1.403 . S
C2172 C2171 1.403 . S
C2172 C2173 1.404 . S
C2172 C2175 1.539 . S
C2173 C2169 1.408 . S
C2173 C2172 1.404 . S
C2173 H2185 0.930 . S
C2174 C2170 1.524 . S
C2174 H2186 0.956 . S
C2174 H2187 0.961 . S
C2174 H2188 0.961 . S
C2175 C2172 1.539 . S
C2175 H2189 0.958 . S
C2175 H2190 0.961 . S
C2175 H2191 0.960 . S
H2176 C2160 0.931 . S
H2177 C2165 0.929 . S
H2178 C2166 0.960 . S
H2179 C2166 0.962 . S
H2180 C2166 0.960 . S
H2181 C2167 0.961 . S
H2182 C2167 0.961 . S
H2183 C2167 0.961 . S
H2184 C2168 0.931 . S
H2185 C2173 0.930 . S
H2186 C2174 0.956 . S
H2187 C2174 0.961 . S
H2188 C2174 0.961 . S
H2189 C2175 0.958 . S
H2190 C2175 0.961 . S
H2191 C2175 0.960 . S
C2192 C2193 1.391 . S
C2192 C2194 1.394 . S
C2192 H2208 0.931 . S
C2193 C2192 1.391 . S
C2193 C2197 1.376 . S
C2194 C2192 1.394 . S
C2194 C2195 1.369 . S
C2194 C2198 1.531 . S
C2195 C2194 1.369 . S
C2195 C2196 1.410 . S
C2195 C2203 1.503 . S
C2196 C2195 1.410 . S
C2196 C2197 1.392 . S
C2196 C2199 1.511 . S
C2197 C2193 1.376 . S
C2197 C2196 1.392 . S
C2197 H2209 0.929 . S
C2198 C2194 1.531 . S
C2198 H2210 0.960 . S
C2198 H2211 0.962 . S
C2198 H2212 0.960 . S
C2199 C2196 1.511 . S
C2199 H2213 0.961 . S
C2199 H2214 0.961 . S
C2199 H2215 0.961 . S
C2200 C2201 1.370 . S
C2200 C2202 1.363 . S
C2200 H2216 0.931 . S
C2201 C2200 1.370 . S
C2201 C2205 1.408 . S
C2202 C2200 1.363 . S
C2202 C2203 1.370 . S
C2202 C2206 1.524 . S
C2203 C2195 1.503 . S
C2203 C2202 1.370 . S
C2203 C2204 1.403 . S
C2204 C2203 1.403 . S
C2204 C2205 1.404 . S
C2204 C2207 1.539 . S
C2205 C2201 1.408 . S
C2205 C2204 1.404 . S
C2205 H2217 0.930 . S
C2206 C2202 1.524 . S
C2206 H2218 0.956 . S
C2206 H2219 0.961 . S
C2206 H2220 0.961 . S
C2207 C2204 1.539 . S
C2207 H2221 0.958 . S
C2207 H2222 0.961 . S
C2207 H2223 0.960 . S
H2208 C2192 0.931 . S
H2209 C2197 0.929 . S
H2210 C2198 0.960 . S
H2211 C2198 0.962 . S
H2212 C2198 0.960 . S
H2213 C2199 0.961 . S
H2214 C2199 0.961 . S
H2215 C2199 0.961 . S
H2216 C2200 0.931 . S
H2217 C2205 0.930 . S
H2218 C2206 0.956 . S
H2219 C2206 0.961 . S
H2220 C2206 0.961 . S
H2221 C2207 0.958 . S
H2222 C2207 0.961 . S
H2223 C2207 0.960 . S
C2224 C2225 1.391 . S
C2224 C2226 1.394 . S
C2224 H2240 0.931 . S
C2225 C2224 1.391 . S
C2225 C2229 1.376 . S
C2226 C2224 1.394 . S
C2226 C2227 1.369 . S
C2226 C2230 1.531 . S
C2227 C2226 1.369 . S
C2227 C2228 1.410 . S
C2227 C2235 1.503 . S
C2228 C2227 1.410 . S
C2228 C2229 1.392 . S
C2228 C2231 1.511 . S
C2229 C2225 1.376 . S
C2229 C2228 1.392 . S
C2229 H2241 0.929 . S
C2230 C2226 1.531 . S
C2230 H2242 0.960 . S
C2230 H2243 0.962 . S
C2230 H2244 0.960 . S
C2231 C2228 1.511 . S
C2231 H2245 0.961 . S
C2231 H2246 0.961 . S
C2231 H2247 0.961 . S
C2232 C2233 1.370 . S
C2232 C2234 1.363 . S
C2232 H2248 0.931 . S
C2233 C2232 1.370 . S
C2233 C2237 1.408 . S
C2234 C2232 1.363 . S
C2234 C2235 1.370 . S
C2234 C2238 1.524 . S
C2235 C2227 1.503 . S
C2235 C2234 1.370 . S
C2235 C2236 1.403 . S
C2236 C2235 1.403 . S
C2236 C2237 1.404 . S
C2236 C2239 1.539 . S
C2237 C2233 1.408 . S
C2237 C2236 1.404 . S
C2237 H2249 0.930 . S
C2238 C2234 1.524 . S
C2238 H2250 0.956 . S
C2238 H2251 0.961 . S
C2238 H2252 0.961 . S
C2239 C2236 1.539 . S
C2239 H2253 0.958 . S
C2239 H2254 0.961 . S
C2239 H2255 0.960 . S
H2240 C2224 0.931 . S
H2241 C2229 0.929 . S
H2242 C2230 0.960 . S
H2243 C2230 0.962 . S
H2244 C2230 0.960 . S
H2245 C2231 0.961 . S
H2246 C2231 0.961 . S
H2247 C2231 0.961 . S
H2248 C2232 0.931 . S
H2249 C2237 0.930 . S
H2250 C2238 0.956 . S
H2251 C2238 0.961 . S
H2252 C2238 0.961 . S
H2253 C2239 0.958 . S
H2254 C2239 0.961 . S
H2255 C2239 0.960 . S
C2256 C2257 1.391 . S
C2256 C2258 1.394 . S
C2256 H2272 0.931 . S
C2257 C2256 1.391 . S
C2257 C2261 1.376 . S
C2258 C2256 1.394 . S
C2258 C2259 1.369 . S
C2258 C2262 1.531 . S
C2259 C2258 1.369 . S
C2259 C2260 1.410 . S
C2259 C2267 1.503 . S
C2260 C2259 1.410 . S
C2260 C2261 1.392 . S
C2260 C2263 1.511 . S
C2261 C2257 1.376 . S
C2261 C2260 1.392 . S
C2261 H2273 0.929 . S
C2262 C2258 1.531 . S
C2262 H2274 0.960 . S
C2262 H2275 0.962 . S
C2262 H2276 0.960 . S
C2263 C2260 1.511 . S
C2263 H2277 0.961 . S
C2263 H2278 0.961 . S
C2263 H2279 0.961 . S
C2264 C2265 1.370 . S
C2264 C2266 1.363 . S
C2264 H2280 0.931 . S
C2265 C2264 1.370 . S
C2265 C2269 1.408 . S
C2266 C2264 1.363 . S
C2266 C2267 1.370 . S
C2266 C2270 1.524 . S
C2267 C2259 1.503 . S
C2267 C2266 1.370 . S
C2267 C2268 1.403 . S
C2268 C2267 1.403 . S
C2268 C2269 1.404 . S
C2268 C2271 1.539 . S
C2269 C2265 1.408 . S
C2269 C2268 1.404 . S
C2269 H2281 0.930 . S
C2270 C2266 1.524 . S
C2270 H2282 0.956 . S
C2270 H2283 0.961 . S
C2270 H2284 0.961 . S
C2271 C2268 1.539 . S
C2271 H2285 0.958 . S
C2271 H2286 0.961 . S
C2271 H2287 0.960 . S
H2272 C2256 0.931 . S
H2273 C2261 0.929 . S
H2274 C2262 0.960 . S
H2275 C2262 0.962 . S
H2276 C2262 0.960 . S
H2277 C2263 0.961 . S
H2278 C2263 0.961 . S
H2279 C2263 0.961 . S
H2280 C2264 0.931 . S
H2281 C2269 0.930 . S
H2282 C2270 0.956 . S
H2283 C2270 0.961 . S
H2284 C2270 0.961 . S
H2285 C2271 0.958 . S
H2286 C2271 0.961 . S
H2287 C2271 0.960 . S
C2288 C2289 1.391 . S
C2288 C2290 1.394 . S
C2288 H2304 0.931 . S
C2289 C2288 1.391 . S
C2289 C2293 1.376 . S
C2290 C2288 1.394 . S
C2290 C2291 1.369 . S
C2290 C2294 1.531 . S
C2291 C2290 1.369 . S
C2291 C2292 1.410 . S
C2291 C2299 1.503 . S
C2292 C2291 1.410 . S
C2292 C2293 1.392 . S
C2292 C2295 1.511 . S
C2293 C2289 1.376 . S
C2293 C2292 1.392 . S
C2293 H2305 0.929 . S
C2294 C2290 1.531 . S
C2294 H2306 0.960 . S
C2294 H2307 0.962 . S
C2294 H2308 0.960 . S
C2295 C2292 1.511 . S
C2295 H2309 0.961 . S
C2295 H2310 0.961 . S
C2295 H2311 0.961 . S
C2296 C2297 1.370 . S
C2296 C2298 1.363 . S
C2296 H2312 0.931 . S
C2297 C2296 1.370 . S
C2297 C2301 1.408 . S
C2298 C2296 1.363 . S
C2298 C2299 1.370 . S
C2298 C2302 1.524 . S
C2299 C2291 1.503 . S
C2299 C2298 1.370 . S
C2299 C2300 1.403 . S
C2300 C2299 1.403 . S
C2300 C2301 1.404 . S
C2300 C2303 1.539 . S
C2301 C2297 1.408 . S
C2301 C2300 1.404 . S
C2301 H2313 0.930 . S
C2302 C2298 1.524 . S
C2302 H2314 0.956 . S
C2302 H2315 0.961 . S
C2302 H2316 0.961 . S
C2303 C2300 1.539 . S
C2303 H2317 0.958 . S
C2303 H2318 0.961 . S
C2303 H2319 0.960 . S
H2304 C2288 0.931 . S
H2305 C2293 0.929 . S
H2306 C2294 0.960 . S
H2307 C2294 0.962 . S
H2308 C2294 0.960 . S
H2309 C2295 0.961 . S
H2310 C2295 0.961 . S
H2311 C2295 0.961 . S
H2312 C2296 0.931 . S
H2313 C2301 0.930 . S
H2314 C2302 0.956 . S
H2315 C2302 0.961 . S
H2316 C2302 0.961 . S
H2317 C2303 0.958 . S
H2318 C2303 0.961 . S
H2319 C2303 0.960 . S
C2320 C2321 1.391 . S
C2320 C2322 1.394 . S
C2320 H2336 0.931 . S
C2321 C2320 1.391 . S
C2321 C2325 1.376 . S
C2322 C2320 1.394 . S
C2322 C2323 1.369 . S
C2322 C2326 1.531 . S
C2323 C2322 1.369 . S
C2323 C2324 1.410 . S
C2323 C2331 1.503 . S
C2324 C2323 1.410 . S
C2324 C2325 1.392 . S
C2324 C2327 1.511 . S
C2325 C2321 1.376 . S
C2325 C2324 1.392 . S
C2325 H2337 0.929 . S
C2326 C2322 1.531 . S
C2326 H2338 0.960 . S
C2326 H2339 0.962 . S
C2326 H2340 0.960 . S
C2327 C2324 1.511 . S
C2327 H2341 0.961 . S
C2327 H2342 0.961 . S
C2327 H2343 0.961 . S
C2328 C2329 1.370 . S
C2328 C2330 1.363 . S
C2328 H2344 0.931 . S
C2329 C2328 1.370 . S
C2329 C2333 1.408 . S
C2330 C2328 1.363 . S
C2330 C2331 1.370 . S
C2330 C2334 1.524 . S
C2331 C2323 1.503 . S
C2331 C2330 1.370 . S
C2331 C2332 1.403 . S
C2332 C2331 1.403 . S
C2332 C2333 1.404 . S
C2332 C2335 1.539 . S
C2333 C2329 1.408 . S
C2333 C2332 1.404 . S
C2333 H2345 0.930 . S
C2334 C2330 1.524 . S
C2334 H2346 0.956 . S
C2334 H2347 0.961 . S
C2334 H2348 0.961 . S
C2335 C2332 1.539 . S
C2335 H2349 0.958 . S
C2335 H2350 0.961 . S
C2335 H2351 0.960 . S
H2336 C2320 0.931 . S
H2337 C2325 0.929 . S
H2338 C2326 0.960 . S
H2339 C2326 0.962 . S
H2340 C2326 0.960 . S
H2341 C2327 0.961 . S
H2342 C2327 0.961 . S
H2343 C2327 0.961 . S
H2344 C2328 0.931 . S
H2345 C2333 0.930 . S
H2346 C2334 0.956 . S
H2347 C2334 0.961 . S
H2348 C2334 0.961 . S
H2349 C2335 0.958 . S
H2350 C2335 0.961 . S
H2351 C2335 0.960 . S
C2352 C2353 1.391 . S
C2352 C2354 1.394 . S
C2352 H2368 0.931 . S
C2353 C2352 1.391 . S
C2353 C2357 1.376 . S
C2354 C2352 1.394 . S
C2354 C2355 1.369 . S
C2354 C2358 1.531 . S
C2355 C2354 1.369 . S
C2355 C2356 1.410 . S
C2355 C2363 1.503 . S
C2356 C2355 1.410 . S
C2356 C2357 1.392 . S
C2356 C2359 1.511 . S
C2357 C2353 1.376 . S
C2357 C2356 1.392 . S
C2357 H2369 0.929 . S
C2358 C2354 1.531 . S
C2358 H2370 0.960 . S
C2358 H2371 0.962 . S
C2358 H2372 0.960 . S
C2359 C2356 1.511 . S
C2359 H2373 0.961 . S
C2359 H2374 0.961 . S
C2359 H2375 0.961 . S
C2360 C2361 1.370 . S
C2360 C2362 1.363 . S
C2360 H2376 0.931 . S
C2361 C2360 1.370 . S
C2361 C2365 1.408 . S
C2362 C2360 1.363 . S
C2362 C2363 1.370 . S
C2362 C2366 1.524 . S
C2363 C2355 1.503 . S
C2363 C2362 1.370 . S
C2363 C2364 1.403 . S
C2364 C2363 1.403 . S
C2364 C2365 1.404 . S
C2364 C2367 1.539 . S
C2365 C2361 1.408 . S
C2365 C2364 1.404 . S
C2365 H2377 0.930 . S
C2366 C2362 1.524 . S
C2366 H2378 0.956 . S
C2366 H2379 0.961 . S
C2366 H2380 0.961 . S
C2367 C2364 1.539 . S
C2367 H2381 0.958 . S
C2367 H2382 0.961 . S
C2367 H2383 0.960 . S
H2368 C2352 0.931 . S
H2369 C2357 0.929 . S
H2370 C2358 0.960 . S
H2371 C2358 0.962 . S
H2372 C2358 0.960 . S
H2373 C2359 0.961 . S
H2374 C2359 0.961 . S
H2375 C2359 0.961 . S
H2376 C2360 0.931 . S
H2377 C2365 0.930 . S
H2378 C2366 0.956 . S
H2379 C2366 0.961 . S
H2380 C2366 0.961 . S
H2381 C2367 0.958 . S
H2382 C2367 0.961 . S
H2383 C2367 0.960 . S
C2384 C2385 1.391 . S
C2384 C2386 1.394 . S
C2384 H2400 0.931 . S
C2385 C2384 1.391 . S
C2385 C2389 1.376 . S
C2386 C2384 1.394 . S
C2386 C2387 1.369 . S
C2386 C2390 1.531 . S
C2387 C2386 1.369 . S
C2387 C2388 1.410 . S
C2387 C2395 1.503 . S
C2388 C2387 1.410 . S
C2388 C2389 1.392 . S
C2388 C2391 1.511 . S
C2389 C2385 1.376 . S
C2389 C2388 1.392 . S
C2389 H2401 0.929 . S
C2390 C2386 1.531 . S
C2390 H2402 0.960 . S
C2390 H2403 0.962 . S
C2390 H2404 0.960 . S
C2391 C2388 1.511 . S
C2391 H2405 0.961 . S
C2391 H2406 0.961 . S
C2391 H2407 0.961 . S
C2392 C2393 1.370 . S
C2392 C2394 1.363 . S
C2392 H2408 0.931 . S
C2393 C2392 1.370 . S
C2393 C2397 1.408 . S
C2394 C2392 1.363 . S
C2394 C2395 1.370 . S
C2394 C2398 1.524 . S
C2395 C2387 1.503 . S
C2395 C2394 1.370 . S
C2395 C2396 1.403 . S
C2396 C2395 1.403 . S
C2396 C2397 1.404 . S
C2396 C2399 1.539 . S
C2397 C2393 1.408 . S
C2397 C2396 1.404 . S
C2397 H2409 0.930 . S
C2398 C2394 1.524 . S
C2398 H2410 0.956 . S
C2398 H2411 0.961 . S
C2398 H2412 0.961 . S
C2399 C2396 1.539 . S
C2399 H2413 0.958 . S
C2399 H2414 0.961 . S
C2399 H2415 0.960 . S
H2400 C2384 0.931 . S
H2401 C2389 0.929 . S
H2402 C2390 0.960 . S
H2403 C2390 0.962 . S
H2404 C2390 0.960 . S
H2405 C2391 0.961 . S
H2406 C2391 0.961 . S
H2407 C2391 0.961 . S
H2408 C2392 0.931 . S
H2409 C2397 0.930 . S
H2410 C2398 0.956 . S
H2411 C2398 0.961 . S
H2412 C2398 0.961 . S
H2413 C2399 0.958 . S
H2414 C2399 0.961 . S
H2415 C2399 0.960 . S
C2416 C2417 1.391 . S
C2416 C2418 1.394 . S
C2416 H2432 0.931 . S
C2417 C2416 1.391 . S
C2417 C2421 1.376 . S
C2418 C2416 1.394 . S
C2418 C2419 1.369 . S
C2418 C2422 1.531 . S
C2419 C2418 1.369 . S
C2419 C2420 1.410 . S
C2419 C2427 1.503 . S
C2420 C2419 1.410 . S
C2420 C2421 1.392 . S
C2420 C2423 1.511 . S
C2421 C2417 1.376 . S
C2421 C2420 1.392 . S
C2421 H2433 0.929 . S
C2422 C2418 1.531 . S
C2422 H2434 0.960 . S
C2422 H2435 0.962 . S
C2422 H2436 0.960 . S
C2423 C2420 1.511 . S
C2423 H2437 0.961 . S
C2423 H2438 0.961 . S
C2423 H2439 0.961 . S
C2424 C2425 1.370 . S
C2424 C2426 1.363 . S
C2424 H2440 0.931 . S
C2425 C2424 1.370 . S
C2425 C2429 1.408 . S
C2426 C2424 1.363 . S
C2426 C2427 1.370 . S
C2426 C2430 1.524 . S
C2427 C2419 1.503 . S
C2427 C2426 1.370 . S
C2427 C2428 1.403 . S
C2428 C2427 1.403 . S
C2428 C2429 1.404 . S
C2428 C2431 1.539 . S
C2429 C2425 1.408 . S
C2429 C2428 1.404 . S
C2429 H2441 0.930 . S
C2430 C2426 1.524 . S
C2430 H2442 0.956 . S
C2430 H2443 0.961 . S
C2430 H2444 0.961 . S
C2431 C2428 1.539 . S
C2431 H2445 0.958 . S
C2431 H2446 0.961 . S
C2431 H2447 0.960 . S
H2432 C2416 0.931 . S
H2433 C2421 0.929 . S
H2434 C2422 0.960 . S
H2435 C2422 0.962 . S
H2436 C2422 0.960 . S
H2437 C2423 0.961 . S
H2438 C2423 0.961 . S
H2439 C2423 0.961 . S
H2440 C2424 0.931 . S
H2441 C2429 0.930 . S
H2442 C2430 0.956 . S
H2443 C2430 0.961 . S
H2444 C2430 0.961 . S
H2445 C2431 0.958 . S
H2446 C2431 0.961 . S
H2447 C2431 0.960 . S
C2448 C2449 1.391 . S
C2448 C2450 1.394 . S
C2448 H2464 0.931 . S
C2449 C2448 1.391 . S
C2449 C2453 1.376 . S
C2450 C2448 1.394 . S
C2450 C2451 1.369 . S
C2450 C2454 1.531 . S
C2451 C2450 1.369 . S
C2451 C2452 1.410 . S
C2451 C2459 1.503 . S
C2452 C2451 1.410 . S
C2452 C2453 1.392 . S
C2452 C2455 1.511 . S
C2453 C2449 1.376 . S
C2453 C2452 1.392 . S
C2453 H2465 0.929 . S
C2454 C2450 1.531 . S
C2454 H2466 0.960 . S
C2454 H2467 0.962 . S
C2454 H2468 0.960 . S
C2455 C2452 1.511 . S
C2455 H2469 0.961 . S
C2455 H2470 0.961 . S
C2455 H2471 0.961 . S
C2456 C2457 1.370 . S
C2456 C2458 1.363 . S
C2456 H2472 0.931 . S
C2457 C2456 1.370 . S
C2457 C2461 1.408 . S
C2458 C2456 1.363 . S
C2458 C2459 1.370 . S
C2458 C2462 1.524 . S
C2459 C2451 1.503 . S
C2459 C2458 1.370 . S
C2459 C2460 1.403 . S
C2460 C2459 1.403 . S
C2460 C2461 1.404 . S
C2460 C2463 1.539 . S
C2461 C2457 1.408 . S
C2461 C2460 1.404 . S
C2461 H2473 0.930 . S
C2462 C2458 1.524 . S
C2462 H2474 0.956 . S
C2462 H2475 0.961 . S
C2462 H2476 0.961 . S
C2463 C2460 1.539 . S
C2463 H2477 0.958 . S
C2463 H2478 0.961 . S
C2463 H2479 0.960 . S
H2464 C2448 0.931 . S
H2465 C2453 0.929 . S
H2466 C2454 0.960 . S
H2467 C2454 0.962 . S
H2468 C2454 0.960 . S
H2469 C2455 0.961 . S
H2470 C2455 0.961 . S
H2471 C2455 0.961 . S
H2472 C2456 0.931 . S
H2473 C2461 0.930 . S
H2474 C2462 0.956 . S
H2475 C2462 0.961 . S
H2476 C2462 0.961 . S
H2477 C2463 0.958 . S
H2478 C2463 0.961 . S
H2479 C2463 0.960 . S
C2480 C2481 1.391 . S
C2480 C2482 1.394 . S
C2480 H2496 0.931 . S
C2481 C2480 1.391 . S
C2481 C2485 1.376 . S
C2482 C2480 1.394 . S
C2482 C2483 1.369 . S
C2482 C2486 1.531 . S
C2483 C2482 1.369 . S
C2483 C2484 1.410 . S
C2483 C2491 1.503 . S
C2484 C2483 1.410 . S
C2484 C2485 1.392 . S
C2484 C2487 1.511 . S
C2485 C2481 1.376 . S
C2485 C2484 1.392 . S
C2485 H2497 0.929 . S
C2486 C2482 1.531 . S
C2486 H2498 0.960 . S
C2486 H2499 0.962 . S
C2486 H2500 0.960 . S
C2487 C2484 1.511 . S
C2487 H2501 0.961 . S
C2487 H2502 0.961 . S
C2487 H2503 0.961 . S
C2488 C2489 1.370 . S
C2488 C2490 1.363 . S
C2488 H2504 0.931 . S
C2489 C2488 1.370 . S
C2489 C2493 1.408 . S
C2490 C2488 1.363 . S
C2490 C2491 1.370 . S
C2490 C2494 1.524 . S
C2491 C2483 1.503 . S
C2491 C2490 1.370 . S
C2491 C2492 1.403 . S
C2492 C2491 1.403 . S
C2492 C2493 1.404 . S
C2492 C2495 1.539 . S
C2493 C2489 1.408 . S
C2493 C2492 1.404 . S
C2493 H2505 0.930 . S
C2494 C2490 1.524 . S
C2494 H2506 0.956 . S
C2494 H2507 0.961 . S
C2494 H2508 0.961 . S
C2495 C2492 1.539 . S
C2495 H2509 0.958 . S
C2495 H2510 0.961 . S
C2495 H2511 0.960 . S
H2496 C2480 0.931 . S
H2497 C2485 0.929 . S
H2498 C2486 0.960 . S
H2499 C2486 0.962 . S
H2500 C2486 0.960 . S
H2501 C2487 0.961 . S
H2502 C2487 0.961 . S
H2503 C2487 0.961 . S
H2504 C2488 0.931 . S
H2505 C2493 0.930 . S
H2506 C2494 0.956 . S
H2507 C2494 0.961 . S
H2508 C2494 0.961 . S
H2509 C2495 0.958 . S
H2510 C2495 0.961 . S
H2511 C2495 0.960 . S
C2512 C2513 1.391 . S
C2512 C2514 1.394 . S
C2512 H2528 0.931 . S
C2513 C2512 1.391 . S
C2513 C2517 1.376 . S
C2514 C2512 1.394 . S
C2514 C2515 1.369 . S
C2514 C2518 1.531 . S
C2515 C2514 1.369 . S
C2515 C2516 1.410 . S
C2515 C2523 1.503 . S
C2516 C2515 1.410 . S
C2516 C2517 1.392 . S
C2516 C2519 1.511 . S
C2517 C2513 1.376 . S
C2517 C2516 1.392 . S
C2517 H2529 0.929 . S
C2518 C2514 1.531 . S
C2518 H2530 0.960 . S
C2518 H2531 0.962 . S
C2518 H2532 0.960 . S
C2519 C2516 1.511 . S
C2519 H2533 0.961 . S
C2519 H2534 0.961 . S
C2519 H2535 0.961 . S
C2520 C2521 1.370 . S
C2520 C2522 1.363 . S
C2520 H2536 0.931 . S
C2521 C2520 1.370 . S
C2521 C2525 1.408 . S
C2522 C2520 1.363 . S
C2522 C2523 1.370 . S
C2522 C2526 1.524 . S
C2523 C2515 1.503 . S
C2523 C2522 1.370 . S
C2523 C2524 1.403 . S
C2524 C2523 1.403 . S
C2524 C2525 1.404 . S
C2524 C2527 1.539 . S
C2525 C2521 1.408 . S
C2525 C2524 1.404 . S
C2525 H2537 0.930 . S
C2526 C2522 1.524 . S
C2526 H2538 0.956 . S
C2526 H2539 0.961 . S
C2526 H2540 0.961 . S
C2527 C2524 1.539 . S
C2527 H2541 0.958 . S
C2527 H2542 0.961 . S
C2527 H2543 0.960 . S
H2528 C2512 0.931 . S
H2529 C2517 0.929 . S
H2530 C2518 0.960 . S
H2531 C2518 0.962 . S
H2532 C2518 0.960 . S
H2533 C2519 0.961 . S
H2534 C2519 0.961 . S
H2535 C2519 0.961 . S
H2536 C2520 0.931 . S
H2537 C2525 0.930 . S
H2538 C2526 0.956 . S
H2539 C2526 0.961 . S
H2540 C2526 0.961 . S
H2541 C2527 0.958 . S
H2542 C2527 0.961 . S
H2543 C2527 0.960 . S
C2544 C2545 1.391 . S
C2544 C2546 1.394 . S
C2544 H2560 0.931 . S
C2545 C2544 1.391 . S
C2545 C2549 1.376 . S
C2546 C2544 1.394 . S
C2546 C2547 1.369 . S
C2546 C2550 1.531 . S
C2547 C2546 1.369 . S
C2547 C2548 1.410 . S
C2547 C2555 1.503 . S
C2548 C2547 1.410 . S
C2548 C2549 1.392 . S
C2548 C2551 1.511 . S
C2549 C2545 1.376 . S
C2549 C2548 1.392 . S
C2549 H2561 0.929 . S
C2550 C2546 1.531 . S
C2550 H2562 0.960 . S
C2550 H2563 0.962 . S
C2550 H2564 0.960 . S
C2551 C2548 1.511 . S
C2551 H2565 0.961 . S
C2551 H2566 0.961 . S
C2551 H2567 0.961 . S
C2552 C2553 1.370 . S
C2552 C2554 1.363 . S
C2552 H2568 0.931 . S
C2553 C2552 1.370 . S
C2553 C2557 1.408 . S
C2554 C2552 1.363 . S
C2554 C2555 1.370 . S
C2554 C2558 1.524 . S
C2555 C2547 1.503 . S
C2555 C2554 1.370 . S
C2555 C2556 1.403 . S
C2556 C2555 1.403 . S
C2556 C2557 1.404 . S
C2556 C2559 1.539 . S
C2557 C2553 1.408 . S
C2557 C2556 1.404 . S
C2557 H2569 0.930 . S
C2558 C2554 1.524 . S
C2558 H2570 0.956 . S
C2558 H2571 0.961 . S
C2558 H2572 0.961 . S
C2559 C2556 1.539 . S
C2559 H2573 0.958 . S
C2559 H2574 0.961 . S
C2559 H2575 0.960 . S
H2560 C2544 0.931 . S
H2561 C2549 0.929 . S
H2562 C2550 0.960 . S
H2563 C2550 0.962 . S
H2564 C2550 0.960 . S
H2565 C2551 0.961 . S
H2566 C2551 0.961 . S
H2567 C2551 0.961 . S
H2568 C2552 0.931 . S
H2569 C2557 0.930 . S
H2570 C2558 0.956 . S
H2571 C2558 0.961 . S
H2572 C2558 0.961 . S
H2573 C2559 0.958 . S
H2574 C2559 0.961 . S
H2575 C2559 0.960 . S
C2576 C2577 1.391 . S
C2576 C2578 1.394 . S
C2576 H2592 0.931 . S
C2577 C2576 1.391 . S
C2577 C2581 1.376 . S
C2578 C2576 1.394 . S
C2578 C2579 1.369 . S
C2578 C2582 1.531 . S
C2579 C2578 1.369 . S
C2579 C2580 1.410 . S
C2579 C2587 1.503 . S
C2580 C2579 1.410 . S
C2580 C2581 1.392 . S
C2580 C2583 1.511 . S
C2581 C2577 1.376 . S
C2581 C2580 1.392 . S
C2581 H2593 0.929 . S
C2582 C2578 1.531 . S
C2582 H2594 0.960 . S
C2582 H2595 0.962 . S
C2582 H2596 0.960 . S
C2583 C2580 1.511 . S
C2583 H2597 0.961 . S
C2583 H2598 0.961 . S
C2583 H2599 0.961 . S
C2584 C2585 1.370 . S
C2584 C2586 1.363 . S
C2584 H2600 0.931 . S
C2585 C2584 1.370 . S
C2585 C2589 1.408 . S
C2586 C2584 1.363 . S
C2586 C2587 1.370 . S
C2586 C2590 1.524 . S
C2587 C2579 1.503 . S
C2587 C2586 1.370 . S
C2587 C2588 1.403 . S
C2588 C2587 1.403 . S
C2588 C2589 1.404 . S
C2588 C2591 1.539 . S
C2589 C2585 1.408 . S
C2589 C2588 1.404 . S
C2589 H2601 0.930 . S
C2590 C2586 1.524 . S
C2590 H2602 0.956 . S
C2590 H2603 0.961 . S
C2590 H2604 0.961 . S
C2591 C2588 1.539 . S
C2591 H2605 0.958 . S
C2591 H2606 0.961 . S
C2591 H2607 0.960 . S
H2592 C2576 0.931 . S
H2593 C2581 0.929 . S
H2594 C2582 0.960 . S
H2595 C2582 0.962 . S
H2596 C2582 0.960 . S
H2597 C2583 0.961 . S
H2598 C2583 0.961 . S
H2599 C2583 0.961 . S
H2600 C2584 0.931 . S
H2601 C2589 0.930 . S
H2602 C2590 0.956 . S
H2603 C2590 0.961 . S
H2604 C2590 0.961 . S
H2605 C2591 0.958 . S
H2606 C2591 0.961 . S
H2607 C2591 0.960 . S
C2608 C2609 1.391 . S
C2608 C2610 1.394 . S
C2608 H2624 0.931 . S
C2609 C2608 1.391 . S
C2609 C2613 1.376 . S
C2610 C2608 1.394 . S
C2610 C2611 1.369 . S
C2610 C2614 1.531 . S
C2611 C2610 1.369 . S
C2611 C2612 1.410 . S
C2611 C2619 1.503 . S
C2612 C2611 1.410 . S
C2612 C2613 1.392 . S
C2612 C2615 1.511 . S
C2613 C2609 1.376 . S
C2613 C2612 1.392 . S
C2613 H2625 0.929 . S
C2614 C2610 1.531 . S
C2614 H2626 0.960 . S
C2614 H2627 0.962 . S
C2614 H2628 0.960 . S
C2615 C2612 1.511 . S
C2615 H2629 0.961 . S
C2615 H2630 0.961 . S
C2615 H2631 0.961 . S
C2616 C2617 1.370 . S
C2616 C2618 1.363 . S
C2616 H2632 0.931 . S
C2617 C2616 1.370 . S
C2617 C2621 1.408 . S
C2618 C2616 1.363 . S
C2618 C2619 1.370 . S
C2618 C2622 1.524 . S
C2619 C2611 1.503 . S
C2619 C2618 1.370 . S
C2619 C2620 1.403 . S
C2620 C2619 1.403 . S
C2620 C2621 1.404 . S
C2620 C2623 1.539 . S
C2621 C2617 1.408 . S
C2621 C2620 1.404 . S
C2621 H2633 0.930 . S
C2622 C2618 1.524 . S
C2622 H2634 0.956 . S
C2622 H2635 0.961 . S
C2622 H2636 0.961 . S
C2623 C2620 1.539 . S
C2623 H2637 0.958 . S
C2623 H2638 0.961 . S
C2623 H2639 0.960 . S
H2624 C2608 0.931 . S
H2625 C2613 0.929 . S
H2626 C2614 0.960 . S
H2627 C2614 0.962 . S
H2628 C2614 0.960 . S
H2629 C2615 0.961 . S
H2630 C2615 0.961 . S
H2631 C2615 0.961 . S
H2632 C2616 0.931 . S
H2633 C2621 0.930 . S
H2634 C2622 0.956 . S
H2635 C2622 0.961 . S
H2636 C2622 0.961 . S
H2637 C2623 0.958 . S
H2638 C2623 0.961 . S
H2639 C2623 0.960 . S
C2640 C2641 1.391 . S
C2640 C2642 1.394 . S
C2640 H2656 0.931 . S
C2641 C2640 1.391 . S
C2641 C2645 1.376 . S
C2642 C2640 1.394 . S
C2642 C2643 1.369 . S
C2642 C2646 1.531 . S
C2643 C2642 1.369 . S
C2643 C2644 1.410 . S
C2643 C2651 1.503 . S
C2644 C2643 1.410 . S
C2644 C2645 1.392 . S
C2644 C2647 1.511 . S
C2645 C2641 1.376 . S
C2645 C2644 1.392 . S
C2645 H2657 0.929 . S
C2646 C2642 1.531 . S
C2646 H2658 0.960 . S
C2646 H2659 0.962 . S
C2646 H2660 0.960 . S
C2647 C2644 1.511 . S
C2647 H2661 0.961 . S
C2647 H2662 0.961 . S
C2647 H2663 0.961 . S
C2648 C2649 1.370 . S
C2648 C2650 1.363 . S
C2648 H2664 0.931 . S
C2649 C2648 1.370 . S
C2649 C2653 1.408 . S
C2650 C2648 1.363 . S
C2650 C2651 1.370 . S
C2650 C2654 1.524 . S
C2651 C2643 1.503 . S
C2651 C2650 1.370 . S
C2651 C2652 1.403 . S
C2652 C2651 1.403 . S
C2652 C2653 1.404 . S
C2652 C2655 1.539 . S
C2653 C2649 1.408 . S
C2653 C2652 1.404 . S
C2653 H2665 0.930 . S
C2654 C2650 1.524 . S
C2654 H2666 0.956 . S
C2654 H2667 0.961 . S
C2654 H2668 0.961 . S
C2655 C2652 1.539 . S
C2655 H2669 0.958 . S
C2655 H2670 0.961 . S
C2655 H2671 0.960 . S
H2656 C2640 0.931 . S
H2657 C2645 0.929 . S
H2658 C2646 0.960 . S
H2659 C2646 0.962 . S
H2660 C2646 0.960 . S
H2661 C2647 0.961 . S
H2662 C2647 0.961 . S
H2663 C2647 0.961 . S
H2664 C2648 0.931 . S
H2665 C2653 0.930 . S
H2666 C2654 0.956 . S
H2667 C2654 0.961 . S
H2668 C2654 0.961 . S
H2669 C2655 0.958 . S
H2670 C2655 0.961 . S
H2671 C2655 0.960 . S
C2672 C2673 1.391 . S
C2672 C2674 1.394 . S
C2672 H2688 0.931 . S
C2673 C2672 1.391 . S
C2673 C2677 1.376 . S
C2674 C2672 1.394 . S
C2674 C2675 1.369 . S
C2674 C2678 1.531 . S
C2675 C2674 1.369 . S
C2675 C2676 1.410 . S
C2675 C2683 1.503 . S
C2676 C2675 1.410 . S
C2676 C2677 1.392 . S
C2676 C2679 1.511 . S
C2677 C2673 1.376 . S
C2677 C2676 1.392 . S
C2677 H2689 0.929 . S
C2678 C2674 1.531 . S
C2678 H2690 0.960 . S
C2678 H2691 0.962 . S
C2678 H2692 0.960 . S
C2679 C2676 1.511 . S
C2679 H2693 0.961 . S
C2679 H2694 0.961 . S
C2679 H2695 0.961 . S
C2680 C2681 1.370 . S
C2680 C2682 1.363 . S
C2680 H2696 0.931 . S
C2681 C2680 1.370 . S
C2681 C2685 1.408 . S
C2682 C2680 1.363 . S
C2682 C2683 1.370 . S
C2682 C2686 1.524 . S
C2683 C2675 1.503 . S
C2683 C2682 1.370 . S
C2683 C2684 1.403 . S
C2684 C2683 1.403 . S
C2684 C2685 1.404 . S
C2684 C2687 1.539 . S
C2685 C2681 1.408 . S
C2685 C2684 1.404 . S
C2685 H2697 0.930 . S
C2686 C2682 1.524 . S
C2686 H2698 0.956 . S
C2686 H2699 0.961 . S
C2686 H2700 0.961 . S
C2687 C2684 1.539 . S
C2687 H2701 0.958 . S
C2687 H2702 0.961 . S
C2687 H2703 0.960 . S
H2688 C2672 0.931 . S
H2689 C2677 0.929 . S
H2690 C2678 0.960 . S
H2691 C2678 0.962 . S
H2692 C2678 0.960 . S
H2693 C2679 0.961 . S
H2694 C2679 0.961 . S
H2695 C2679 0.961 . S
H2696 C2680 0.931 . S
H2697 C2685 0.930 . S
H2698 C2686 0.956 . S
H2699 C2686 0.961 . S
H2700 C2686 0.961 . S
H2701 C2687 0.958 . S
H2702 C2687 0.961 . S
H2703 C2687 0.960 . S
C2704 C2705 1.391 . S
C2704 C2706 1.394 . S
C2704 H2720 0.931 . S
C2705 C2704 1.391 . S
C2705 C2709 1.376 . S
C2706 C2704 1.394 . S
C2706 C2707 1.369 . S
C2706 C2710 1.531 . S
C2707 C2706 1.369 . S
C2707 C2708 1.410 . S
C2707 C2715 1.503 . S
C2708 C2707 1.410 . S
C2708 C2709 1.392 . S
C2708 C2711 1.511 . S
C2709 C2705 1.376 . S
C2709 C2708 1.392 . S
C2709 H2721 0.929 . S
C2710 C2706 1.531 . S
C2710 H2722 0.960 . S
C2710 H2723 0.962 . S
C2710 H2724 0.960 . S
C2711 C2708 1.511 . S
C2711 H2725 0.961 . S
C2711 H2726 0.961 . S
C2711 H2727 0.961 . S
C2712 C2713 1.370 . S
C2712 C2714 1.363 . S
C2712 H2728 0.931 . S
C2713 C2712 1.370 . S
C2713 C2717 1.408 . S
C2714 C2712 1.363 . S
C2714 C2715 1.370 . S
C2714 C2718 1.524 . S
C2715 C2707 1.503 . S
C2715 C2714 1.370 . S
C2715 C2716 1.403 . S
C2716 C2715 1.403 . S
C2716 C2717 1.404 . S
C2716 C2719 1.539 . S
C2717 C2713 1.408 . S
C2717 C2716 1.404 . S
C2717 H2729 0.930 . S
C2718 C2714 1.524 . S
C2718 H2730 0.956 . S
C2718 H2731 0.961 . S
C2718 H2732 0.961 . S
C2719 C2716 1.539 . S
C2719 H2733 0.958 . S
C2719 H2734 0.961 . S
C2719 H2735 0.960 . S
H2720 C2704 0.931 . S
H2721 C2709 0.929 . S
H2722 C2710 0.960 . S
H2723 C2710 0.962 . S
H2724 C2710 0.960 . S
H2725 C2711 0.961 . S
H2726 C2711 0.961 . S
H2727 C2711 0.961 . S
H2728 C2712 0.931 . S
H2729 C2717 0.930 . S
H2730 C2718 0.956 . S
H2731 C2718 0.961 . S
H2732 C2718 0.961 . S
H2733 C2719 0.958 . S
H2734 C2719 0.961 . S
H2735 C2719 0.960 . S
C2736 C2737 1.391 . S
C2736 C2738 1.394 . S
C2736 H2752 0.931 . S
C2737 C2736 1.391 . S
C2737 C2741 1.376 . S
C2738 C2736 1.394 . S
C2738 C2739 1.369 . S
C2738 C2742 1.531 . S
C2739 C2738 1.369 . S
C2739 C2740 1.410 . S
C2739 C2747 1.503 . S
C2740 C2739 1.410 . S
C2740 C2741 1.392 . S
C2740 C2743 1.511 . S
C2741 C2737 1.376 . S
C2741 C2740 1.392 . S
C2741 H2753 0.929 . S
C2742 C2738 1.531 . S
C2742 H2754 0.960 . S
C2742 H2755 0.962 . S
C2742 H2756 0.960 . S
C2743 C2740 1.511 . S
C2743 H2757 0.961 . S
C2743 H2758 0.961 . S
C2743 H2759 0.961 . S
C2744 C2745 1.370 . S
C2744 C2746 1.363 . S
C2744 H2760 0.931 . S
C2745 C2744 1.370 . S
C2745 C2749 1.408 . S
C2746 C2744 1.363 . S
C2746 C2747 1.370 . S
C2746 C2750 1.524 . S
C2747 C2739 1.503 . S
C2747 C2746 1.370 . S
C2747 C2748 1.403 . S
C2748 C2747 1.403 . S
C2748 C2749 1.404 . S
C2748 C2751 1.539 . S
C2749 C2745 1.408 . S
C2749 C2748 1.404 . S
C2749 H2761 0.930 . S
C2750 C2746 1.524 . S
C2750 H2762 0.956 . S
C2750 H2763 0.961 . S
C2750 H2764 0.961 . S
C2751 C2748 1.539 . S
C2751 H2765 0.958 . S
C2751 H2766 0.961 . S
C2751 H2767 0.960 . S
H2752 C2736 0.931 . S
H2753 C2741 0.929 . S
H2754 C2742 0.960 . S
H2755 C2742 0.962 . S
H2756 C2742 0.960 . S
H2757 C2743 0.961 . S
H2758 C2743 0.961 . S
H2759 C2743 0.961 . S
H2760 C2744 0.931 . S
H2761 C2749 0.930 . S
H2762 C2750 0.956 . S
H2763 C2750 0.961 . S
H2764 C2750 0.961 . S
H2765 C2751 0.958 . S
H2766 C2751 0.961 . S
H2767 C2751 0.960 . S
C2768 C2769 1.391 . S
C2768 C2770 1.394 . S
C2768 H2784 0.931 . S
C2769 C2768 1.391 . S
C2769 C2773 1.376 . S
C2770 C2768 1.394 . S
C2770 C2771 1.369 . S
C2770 C2774 1.531 . S
C2771 C2770 1.369 . S
C2771 C2772 1.410 . S
C2771 C2779 1.503 . S
C2772 C2771 1.410 . S
C2772 C2773 1.392 . S
C2772 C2775 1.511 . S
C2773 C2769 1.376 . S
C2773 C2772 1.392 . S
C2773 H2785 0.929 . S
C2774 C2770 1.531 . S
C2774 H2786 0.960 . S
C2774 H2787 0.962 . S
C2774 H2788 0.960 . S
C2775 C2772 1.511 . S
C2775 H2789 0.961 . S
C2775 H2790 0.961 . S
C2775 H2791 0.961 . S
C2776 C2777 1.370 . S
C2776 C2778 1.363 . S
C2776 H2792 0.931 . S
C2777 C2776 1.370 . S
C2777 C2781 1.408 . S
C2778 C2776 1.363 . S
C2778 C2779 1.370 . S
C2778 C2782 1.524 . S
C2779 C2771 1.503 . S
C2779 C2778 1.370 . S
C2779 C2780 1.403 . S
C2780 C2779 1.403 . S
C2780 C2781 1.404 . S
C2780 C2783 1.539 . S
C2781 C2777 1.408 . S
C2781 C2780 1.404 . S
C2781 H2793 0.930 . S
C2782 C2778 1.524 . S
C2782 H2794 0.956 . S
C2782 H2795 0.961 . S
C2782 H2796 0.961 . S
C2783 C2780 1.539 . S
C2783 H2797 0.958 . S
C2783 H2798 0.961 . S
C2783 H2799 0.960 . S
H2784 C2768 0.931 . S
H2785 C2773 0.929 . S
H2786 C2774 0.960 . S
H2787 C2774 0.962 . S
H2788 C2774 0.960 . S
H2789 C2775 0.961 . S
H2790 C2775 0.961 . S
H2791 C2775 0.961 . S
H2792 C2776 0.931 . S
H2793 C2781 0.930 . S
H2794 C2782 0.956 . S
H2795 C2782 0.961 . S
H2796 C2782 0.961 . S
H2797 C2783 0.958 . S
H2798 C2783 0.961 . S
H2799 C2783 0.960 . S
C2800 C2801 1.391 . S
C2800 C2802 1.394 . S
C2800 H2816 0.931 . S
C2801 C2800 1.391 . S
C2801 C2805 1.376 . S
C2802 C2800 1.394 . S
C2802 C2803 1.369 . S
C2802 C2806 1.531 . S
C2803 C2802 1.369 . S
C2803 C2804 1.410 . S
C2803 C2811 1.503 . S
C2804 C2803 1.410 . S
C2804 C2805 1.392 . S
C2804 C2807 1.511 . S
C2805 C2801 1.376 . S
C2805 C2804 1.392 . S
C2805 H2817 0.929 . S
C2806 C2802 1.531 . S
C2806 H2818 0.960 . S
C2806 H2819 0.962 . S
C2806 H2820 0.960 . S
C2807 C2804 1.511 . S
C2807 H2821 0.961 . S
C2807 H2822 0.961 . S
C2807 H2823 0.961 . S
C2808 C2809 1.370 . S
C2808 C2810 1.363 . S
C2808 H2824 0.931 . S
C2809 C2808 1.370 . S
C2809 C2813 1.408 . S
C2810 C2808 1.363 . S
C2810 C2811 1.370 . S
C2810 C2814 1.524 . S
C2811 C2803 1.503 . S
C2811 C2810 1.370 . S
C2811 C2812 1.403 . S
C2812 C2811 1.403 . S
C2812 C2813 1.404 . S
C2812 C2815 1.539 . S
C2813 C2809 1.408 . S
C2813 C2812 1.404 . S
C2813 H2825 0.930 . S
C2814 C2810 1.524 . S
C2814 H2826 0.956 . S
C2814 H2827 0.961 . S
C2814 H2828 0.961 . S
C2815 C2812 1.539 . S
C2815 H2829 0.958 . S
C2815 H2830 0.961 . S
C2815 H2831 0.960 . S
H2816 C2800 0.931 . S
H2817 C2805 0.929 . S
H2818 C2806 0.960 . S
H2819 C2806 0.962 . S
H2820 C2806 0.960 . S
H2821 C2807 0.961 . S
H2822 C2807 0.961 . S
H2823 C2807 0.961 . S
H2824 C2808 0.931 . S
H2825 C2813 0.930 . S
H2826 C2814 0.956 . S
H2827 C2814 0.961 . S
H2828 C2814 0.961 . S
H2829 C2815 0.958 . S
H2830 C2815 0.961 . S
H2831 C2815 0.960 . S
C2832 C2833 1.391 . S
C2832 C2834 1.394 . S
C2832 H2848 0.931 . S
C2833 C2832 1.391 . S
C2833 C2837 1.376 . S
C2834 C2832 1.394 . S
C2834 C2835 1.369 . S
C2834 C2838 1.531 . S
C2835 C2834 1.369 . S
C2835 C2836 1.410 . S
C2835 C2843 1.503 . S
C2836 C2835 1.410 . S
C2836 C2837 1.392 . S
C2836 C2839 1.511 . S
C2837 C2833 1.376 . S
C2837 C2836 1.392 . S
C2837 H2849 0.929 . S
C2838 C2834 1.531 . S
C2838 H2850 0.960 . S
C2838 H2851 0.962 . S
C2838 H2852 0.960 . S
C2839 C2836 1.511 . S
C2839 H2853 0.961 . S
C2839 H2854 0.961 . S
C2839 H2855 0.961 . S
C2840 C2841 1.370 . S
C2840 C2842 1.363 . S
C2840 H2856 0.931 . S
C2841 C2840 1.370 . S
C2841 C2845 1.408 . S
C2842 C2840 1.363 . S
C2842 C2843 1.370 . S
C2842 C2846 1.524 . S
C2843 C2835 1.503 . S
C2843 C2842 1.370 . S
C2843 C2844 1.403 . S
C2844 C2843 1.403 . S
C2844 C2845 1.404 . S
C2844 C2847 1.539 . S
C2845 C2841 1.408 . S
C2845 C2844 1.404 . S
C2845 H2857 0.930 . S
C2846 C2842 1.524 . S
C2846 H2858 0.956 . S
C2846 H2859 0.961 . S
C2846 H2860 0.961 . S
C2847 C2844 1.539 . S
C2847 H2861 0.958 . S
C2847 H2862 0.961 . S
C2847 H2863 0.960 . S
H2848 C2832 0.931 . S
H2849 C2837 0.929 . S
H2850 C2838 0.960 . S
H2851 C2838 0.962 . S
H2852 C2838 0.960 . S
H2853 C2839 0.961 . S
H2854 C2839 0.961 . S
H2855 C2839 0.961 . S
H2856 C2840 0.931 . S
H2857 C2845 0.930 . S
H2858 C2846 0.956 . S
H2859 C2846 0.961 . S
H2860 C2846 0.961 . S
H2861 C2847 0.958 . S
H2862 C2847 0.961 . S
H2863 C2847 0.960 . S
C2864 C2865 1.391 . S
C2864 C2866 1.394 . S
C2864 H2880 0.931 . S
C2865 C2864 1.391 . S
C2865 C2869 1.376 . S
C2866 C2864 1.394 . S
C2866 C2867 1.369 . S
C2866 C2870 1.531 . S
C2867 C2866 1.369 . S
C2867 C2868 1.410 . S
C2867 C2875 1.503 . S
C2868 C2867 1.410 . S
C2868 C2869 1.392 . S
C2868 C2871 1.511 . S
C2869 C2865 1.376 . S
C2869 C2868 1.392 . S
C2869 H2881 0.929 . S
C2870 C2866 1.531 . S
C2870 H2882 0.960 . S
C2870 H2883 0.962 . S
C2870 H2884 0.960 . S
C2871 C2868 1.511 . S
C2871 H2885 0.961 . S
C2871 H2886 0.961 . S
C2871 H2887 0.961 . S
C2872 C2873 1.370 . S
C2872 C2874 1.363 . S
C2872 H2888 0.931 . S
C2873 C2872 1.370 . S
C2873 C2877 1.408 . S
C2874 C2872 1.363 . S
C2874 C2875 1.370 . S
C2874 C2878 1.524 . S
C2875 C2867 1.503 . S
C2875 C2874 1.370 . S
C2875 C2876 1.403 . S
C2876 C2875 1.403 . S
C2876 C2877 1.404 . S
C2876 C2879 1.539 . S
C2877 C2873 1.408 . S
C2877 C2876 1.404 . S
C2877 H2889 0.930 . S
C2878 C2874 1.524 . S
C2878 H2890 0.956 . S
C2878 H2891 0.961 . S
C2878 H2892 0.961 . S
C2879 C2876 1.539 . S
C2879 H2893 0.958 . S
C2879 H2894 0.961 . S
C2879 H2895 0.960 . S
H2880 C2864 0.931 . S
H2881 C2869 0.929 . S
H2882 C2870 0.960 . S
H2883 C2870 0.962 . S
H2884 C2870 0.960 . S
H2885 C2871 0.961 . S
H2886 C2871 0.961 . S
H2887 C2871 0.961 . S
H2888 C2872 0.931 . S
H2889 C2877 0.930 . S
H2890 C2878 0.956 . S
H2891 C2878 0.961 . S
H2892 C2878 0.961 . S
H2893 C2879 0.958 . S
H2894 C2879 0.961 . S
H2895 C2879 0.960 . S
C2896 C2897 1.391 . S
C2896 C2898 1.394 . S
C2896 H2912 0.931 . S
C2897 C2896 1.391 . S
C2897 C2901 1.376 . S
C2898 C2896 1.394 . S
C2898 C2899 1.369 . S
C2898 C2902 1.531 . S
C2899 C2898 1.369 . S
C2899 C2900 1.410 . S
C2899 C2907 1.503 . S
C2900 C2899 1.410 . S
C2900 C2901 1.392 . S
C2900 C2903 1.511 . S
C2901 C2897 1.376 . S
C2901 C2900 1.392 . S
C2901 H2913 0.929 . S
C2902 C2898 1.531 . S
C2902 H2914 0.960 . S
C2902 H2915 0.962 . S
C2902 H2916 0.960 . S
C2903 C2900 1.511 . S
C2903 H2917 0.961 . S
C2903 H2918 0.961 . S
C2903 H2919 0.961 . S
C2904 C2905 1.370 . S
C2904 C2906 1.363 . S
C2904 H2920 0.931 . S
C2905 C2904 1.370 . S
C2905 C2909 1.408 . S
C2906 C2904 1.363 . S
C2906 C2907 1.370 . S
C2906 C2910 1.524 . S
C2907 C2899 1.503 . S
C2907 C2906 1.370 . S
C2907 C2908 1.403 . S
C2908 C2907 1.403 . S
C2908 C2909 1.404 . S
C2908 C2911 1.539 . S
C2909 C2905 1.408 . S
C2909 C2908 1.404 . S
C2909 H2921 0.930 . S
C2910 C2906 1.524 . S
C2910 H2922 0.956 . S
C2910 H2923 0.961 . S
C2910 H2924 0.961 . S
C2911 C2908 1.539 . S
C2911 H2925 0.958 . S
C2911 H2926 0.961 . S
C2911 H2927 0.960 . S
H2912 C2896 0.931 . S
H2913 C2901 0.929 . S
H2914 C2902 0.960 . S
H2915 C2902 0.962 . S
H2916 C2902 0.960 . S
H2917 C2903 0.961 . S
H2918 C2903 0.961 . S
H2919 C2903 0.961 . S
H2920 C2904 0.931 . S
H2921 C2909 0.930 . S
H2922 C2910 0.956 . S
H2923 C2910 0.961 . S
H2924 C2910 0.961 . S
H2925 C2911 0.958 . S
H2926 C2911 0.961 . S
H2927 C2911 0.960 . S
C2928 C2929 1.391 . S
C2928 C2930 1.394 . S
C2928 H2944 0.931 . S
C2929 C2928 1.391 . S
C2929 C2933 1.376 . S
C2930 C2928 1.394 . S
C2930 C2931 1.369 . S
C2930 C2934 1.531 . S
C2931 C2930 1.369 . S
C2931 C2932 1.410 . S
C2931 C2939 1.503 . S
C2932 C2931 1.410 . S
C2932 C2933 1.392 . S
C2932 C2935 1.511 . S
C2933 C2929 1.376 . S
C2933 C2932 1.392 . S
C2933 H2945 0.929 . S
C2934 C2930 1.531 . S
C2934 H2946 0.960 . S
C2934 H2947 0.962 . S
C2934 H2948 0.960 . S
C2935 C2932 1.511 . S
C2935 H2949 0.961 . S
C2935 H2950 0.961 . S
C2935 H2951 0.961 . S
C2936 C2937 1.370 . S
C2936 C2938 1.363 . S
C2936 H2952 0.931 . S
C2937 C2936 1.370 . S
C2937 C2941 1.408 . S
C2938 C2936 1.363 . S
C2938 C2939 1.370 . S
C2938 C2942 1.524 . S
C2939 C2931 1.503 . S
C2939 C2938 1.370 . S
C2939 C2940 1.403 . S
C2940 C2939 1.403 . S
C2940 C2941 1.404 . S
C2940 C2943 1.539 . S
C2941 C2937 1.408 . S
C2941 C2940 1.404 . S
C2941 H2953 0.930 . S
C2942 C2938 1.524 . S
C2942 H2954 0.956 . S
C2942 H2955 0.961 . S
C2942 H2956 0.961 . S
C2943 C2940 1.539 . S
C2943 H2957 0.958 . S
C2943 H2958 0.961 . S
C2943 H2959 0.960 . S
H2944 C2928 0.931 . S
H2945 C2933 0.929 . S
H2946 C2934 0.960 . S
H2947 C2934 0.962 . S
H2948 C2934 0.960 . S
H2949 C2935 0.961 . S
H2950 C2935 0.961 . S
H2951 C2935 0.961 . S
H2952 C2936 0.931 . S
H2953 C2941 0.930 . S
H2954 C2942 0.956 . S
H2955 C2942 0.961 . S
H2956 C2942 0.961 . S
H2957 C2943 0.958 . S
H2958 C2943 0.961 . S
H2959 C2943 0.960 . S
C2960 C2961 1.391 . S
C2960 C2962 1.394 . S
C2960 H2976 0.931 . S
C2961 C2960 1.391 . S
C2961 C2965 1.376 . S
C2962 C2960 1.394 . S
C2962 C2963 1.369 . S
C2962 C2966 1.531 . S
C2963 C2962 1.369 . S
C2963 C2964 1.410 . S
C2963 C2971 1.503 . S
C2964 C2963 1.410 . S
C2964 C2965 1.392 . S
C2964 C2967 1.511 . S
C2965 C2961 1.376 . S
C2965 C2964 1.392 . S
C2965 H2977 0.929 . S
C2966 C2962 1.531 . S
C2966 H2978 0.960 . S
C2966 H2979 0.962 . S
C2966 H2980 0.960 . S
C2967 C2964 1.511 . S
C2967 H2981 0.961 . S
C2967 H2982 0.961 . S
C2967 H2983 0.961 . S
C2968 C2969 1.370 . S
C2968 C2970 1.363 . S
C2968 H2984 0.931 . S
C2969 C2968 1.370 . S
C2969 C2973 1.408 . S
C2970 C2968 1.363 . S
C2970 C2971 1.370 . S
C2970 C2974 1.524 . S
C2971 C2963 1.503 . S
C2971 C2970 1.370 . S
C2971 C2972 1.403 . S
C2972 C2971 1.403 . S
C2972 C2973 1.404 . S
C2972 C2975 1.539 . S
C2973 C2969 1.408 . S
C2973 C2972 1.404 . S
C2973 H2985 0.930 . S
C2974 C2970 1.524 . S
C2974 H2986 0.956 . S
C2974 H2987 0.961 . S
C2974 H2988 0.961 . S
C2975 C2972 1.539 . S
C2975 H2989 0.958 . S
C2975 H2990 0.961 . S
C2975 H2991 0.960 . S
H2976 C2960 0.931 . S
H2977 C2965 0.929 . S
H2978 C2966 0.960 . S
H2979 C2966 0.962 . S
H2980 C2966 0.960 . S
H2981 C2967 0.961 . S
H2982 C2967 0.961 . S
H2983 C2967 0.961 . S
H2984 C2968 0.931 . S
H2985 C2973 0.930 . S
H2986 C2974 0.956 . S
H2987 C2974 0.961 . S
H2988 C2974 0.961 . S
H2989 C2975 0.958 . S
H2990 C2975 0.961 . S
H2991 C2975 0.960 . S
C2992 C2993 1.391 . S
C2992 C2994 1.394 . S
C2992 H3008 0.931 . S
C2993 C2992 1.391 . S
C2993 C2997 1.376 . S
C2994 C2992 1.394 . S
C2994 C2995 1.369 . S
C2994 C2998 1.531 . S
C2995 C2994 1.369 . S
C2995 C2996 1.410 . S
C2995 C3003 1.503 . S
C2996 C2995 1.410 . S
C2996 C2997 1.392 . S
C2996 C2999 1.511 . S
C2997 C2993 1.376 . S
C2997 C2996 1.392 . S
C2997 H3009 0.929 . S
C2998 C2994 1.531 . S
C2998 H3010 0.960 . S
C2998 H3011 0.962 . S
C2998 H3012 0.960 . S
C2999 C2996 1.511 . S
C2999 H3013 0.961 . S
C2999 H3014 0.961 . S
C2999 H3015 0.961 . S
C3000 C3001 1.370 . S
C3000 C3002 1.363 . S
C3000 H3016 0.931 . S
C3001 C3000 1.370 . S
C3001 C3005 1.408 . S
C3002 C3000 1.363 . S
C3002 C3003 1.370 . S
C3002 C3006 1.524 . S
C3003 C2995 1.503 . S
C3003 C3002 1.370 . S
C3003 C3004 1.403 . S
C3004 C3003 1.403 . S
C3004 C3005 1.404 . S
C3004 C3007 1.539 . S
C3005 C3001 1.408 . S
C3005 C3004 1.404 . S
C3005 H3017 0.930 . S
C3006 C3002 1.524 . S
C3006 H3018 0.956 . S
C3006 H3019 0.961 . S
C3006 H3020 0.961 . S
C3007 C3004 1.539 . S
C3007 H3021 0.958 . S
C3007 H3022 0.961 . S
C3007 H3023 0.960 . S
H3008 C2992 0.931 . S
H3009 C2997 0.929 . S
H3010 C2998 0.960 . S
H3011 C2998 0.962 . S
H3012 C2998 0.960 . S
H3013 C2999 0.961 . S
H3014 C2999 0.961 . S
H3015 C2999 0.961 . S
H3016 C3000 0.931 . S
H3017 C3005 0.930 . S
H3018 C3006 0.956 . S
H3019 C3006 0.961 . S
H3020 C3006 0.961 . S
H3021 C3007 0.958 . S
H3022 C3007 0.961 . S
H3023 C3007 0.960 . S
C3024 C3025 1.391 . S
C3024 C3026 1.394 . S
C3024 H3040 0.931 . S
C3025 C3024 1.391 . S
C3025 C3029 1.376 . S
C3026 C3024 1.394 . S
C3026 C3027 1.369 . S
C3026 C3030 1.531 . S
C3027 C3026 1.369 . S
C3027 C3028 1.410 . S
C3027 C3035 1.503 . S
C3028 C3027 1.410 . S
C3028 C3029 1.392 . S
C3028 C3031 1.511 . S
C3029 C3025 1.376 . S
C3029 C3028 1.392 . S
C3029 H3041 0.929 . S
C3030 C3026 1.531 . S
C3030 H3042 0.960 . S
C3030 H3043 0.962 . S
C3030 H3044 0.960 . S
C3031 C3028 1.511 . S
C3031 H3045 0.961 . S
C3031 H3046 0.961 . S
C3031 H3047 0.961 . S
C3032 C3033 1.370 . S
C3032 C3034 1.363 . S
C3032 H3048 0.931 . S
C3033 C3032 1.370 . S
C3033 C3037 1.408 . S
C3034 C3032 1.363 . S
C3034 C3035 1.370 . S
C3034 C3038 1.524 . S
C3035 C3027 1.503 . S
C3035 C3034 1.370 . S
C3035 C3036 1.403 . S
C3036 C3035 1.403 . S
C3036 C3037 1.404 . S
C3036 C3039 1.539 . S
C3037 C3033 1.408 . S
C3037 C3036 1.404 . S
C3037 H3049 0.930 . S
C3038 C3034 1.524 . S
C3038 H3050 0.956 . S
C3038 H3051 0.961 . S
C3038 H3052 0.961 . S
C3039 C3036 1.539 . S
C3039 H3053 0.958 . S
C3039 H3054 0.961 . S
C3039 H3055 0.960 . S
H3040 C3024 0.931 . S
H3041 C3029 0.929 . S
H3042 C3030 0.960 . S
H3043 C3030 0.962 . S
H3044 C3030 0.960 . S
H3045 C3031 0.961 . S
H3046 C3031 0.961 . S
H3047 C3031 0.961 . S
H3048 C3032 0.931 . S
H3049 C3037 0.930 . S
H3050 C3038 0.956 . S
H3051 C3038 0.961 . S
H3052 C3038 0.961 . S
H3053 C3039 0.958 . S
H3054 C3039 0.961 . S
H3055 C3039 0.960 . S
C3056 C3057 1.391 . S
C3056 C3058 1.394 . S
C3056 H3072 0.931 . S
C3057 C3056 1.391 . S
C3057 C3061 1.376 . S
C3058 C3056 1.394 . S
C3058 C3059 1.369 . S
C3058 C3062 1.531 . S
C3059 C3058 1.369 . S
C3059 C3060 1.410 . S
C3059 C3067 1.503 . S
C3060 C3059 1.410 . S
C3060 C3061 1.392 . S
C3060 C3063 1.511 . S
C3061 C3057 1.376 . S
C3061 C3060 1.392 . S
C3061 H3073 0.929 . S
C3062 C3058 1.531 . S
C3062 H3074 0.960 . S
C3062 H3075 0.962 . S
C3062 H3076 0.960 . S
C3063 C3060 1.511 . S
C3063 H3077 0.961 . S
C3063 H3078 0.961 . S
C3063 H3079 0.961 . S
C3064 C3065 1.370 . S
C3064 C3066 1.363 . S
C3064 H3080 0.931 . S
C3065 C3064 1.370 . S
C3065 C3069 1.408 . S
C3066 C3064 1.363 . S
C3066 C3067 1.370 . S
C3066 C3070 1.524 . S
C3067 C3059 1.503 . S
C3067 C3066 1.370 . S
C3067 C3068 1.403 . S
C3068 C3067 1.403 . S
C3068 C3069 1.404 . S
C3068 C3071 1.539 . S
C3069 C3065 1.408 . S
C3069 C3068 1.404 . S
C3069 H3081 0.930 . S
C3070 C3066 1.524 . S
C3070 H3082 0.956 . S
C3070 H3083 0.961 . S
C3070 H3084 0.961 . S
C3071 C3068 1.539 . S
C3071 H3085 0.958 . S
C3071 H3086 0.961 . S
C3071 H3087 0.960 . S
H3072 C3056 0.931 . S
H3073 C3061 0.929 . S
H3074 C3062 0.960 . S
H3075 C3062 0.962 . S
H3076 C3062 0.960 . S
H3077 C3063 0.961 . S
H3078 C3063 0.961 . S
H3079 C3063 0.961 . S
H3080 C3064 0.931 . S
H3081 C3069 0.930 . S
H3082 C3070 0.956 . S
H3083 C3070 0.961 . S
H3084 C3070 0.961 . S
H3085 C3071 0.958 . S
H3086 C3071 0.961 . S
H3087 C3071 0.960 . S
C3088 C3089 1.391 . S
C3088 C3090 1.394 . S
C3088 H3104 0.931 . S
C3089 C3088 1.391 . S
C3089 C3093 1.376 . S
C3090 C3088 1.394 . S
C3090 C3091 1.369 . S
C3090 C3094 1.531 . S
C3091 C3090 1.369 . S
C3091 C3092 1.410 . S
C3091 C3099 1.503 . S
C3092 C3091 1.410 . S
C3092 C3093 1.392 . S
C3092 C3095 1.511 . S
C3093 C3089 1.376 . S
C3093 C3092 1.392 . S
C3093 H3105 0.929 . S
C3094 C3090 1.531 . S
C3094 H3106 0.960 . S
C3094 H3107 0.962 . S
C3094 H3108 0.960 . S
C3095 C3092 1.511 . S
C3095 H3109 0.961 . S
C3095 H3110 0.961 . S
C3095 H3111 0.961 . S
C3096 C3097 1.370 . S
C3096 C3098 1.363 . S
C3096 H3112 0.931 . S
C3097 C3096 1.370 . S
C3097 C3101 1.408 . S
C3098 C3096 1.363 . S
C3098 C3099 1.370 . S
C3098 C3102 1.524 . S
C3099 C3091 1.503 . S
C3099 C3098 1.370 . S
C3099 C3100 1.403 . S
C3100 C3099 1.403 . S
C3100 C3101 1.404 . S
C3100 C3103 1.539 . S
C3101 C3097 1.408 . S
C3101 C3100 1.404 . S
C3101 H3113 0.930 . S
C3102 C3098 1.524 . S
C3102 H3114 0.956 . S
C3102 H3115 0.961 . S
C3102 H3116 0.961 . S
C3103 C3100 1.539 . S
C3103 H3117 0.958 . S
C3103 H3118 0.961 . S
C3103 H3119 0.960 . S
H3104 C3088 0.931 . S
H3105 C3093 0.929 . S
H3106 C3094 0.960 . S
H3107 C3094 0.962 . S
H3108 C3094 0.960 . S
H3109 C3095 0.961 . S
H3110 C3095 0.961 . S
H3111 C3095 0.961 . S
H3112 C3096 0.931 . S
H3113 C3101 0.930 . S
H3114 C3102 0.956 . S
H3115 C3102 0.961 . S
H3116 C3102 0.961 . S
H3117 C3103 0.958 . S
H3118 C3103 0.961 . S
H3119 C3103 0.960 . S
C3120 C3121 1.391 . S
C3120 C3122 1.394 . S
C3120 H3136 0.931 . S
C3121 C3120 1.391 . S
C3121 C3125 1.376 . S
C3122 C3120 1.394 . S
C3122 C3123 1.369 . S
C3122 C3126 1.531 . S
C3123 C3122 1.369 . S
C3123 C3124 1.410 . S
C3123 C3131 1.503 . S
C3124 C3123 1.410 . S
C3124 C3125 1.392 . S
C3124 C3127 1.511 . S
C3125 C3121 1.376 . S
C3125 C3124 1.392 . S
C3125 H3137 0.929 . S
C3126 C3122 1.531 . S
C3126 H3138 0.960 . S
C3126 H3139 0.962 . S
C3126 H3140 0.960 . S
C3127 C3124 1.511 . S
C3127 H3141 0.961 . S
C3127 H3142 0.961 . S
C3127 H3143 0.961 . S
C3128 C3129 1.370 . S
C3128 C3130 1.363 . S
C3128 H3144 0.931 . S
C3129 C3128 1.370 . S
C3129 C3133 1.408 . S
C3130 C3128 1.363 . S
C3130 C3131 1.370 . S
C3130 C3134 1.524 . S
C3131 C3123 1.503 . S
C3131 C3130 1.370 . S
C3131 C3132 1.403 . S
C3132 C3131 1.403 . S
C3132 C3133 1.404 . S
C3132 C3135 1.539 . S
C3133 C3129 1.408 . S
C3133 C3132 1.404 . S
C3133 H3145 0.930 . S
C3134 C3130 1.524 . S
C3134 H3146 0.956 . S
C3134 H3147 0.961 . S
C3134 H3148 0.961 . S
C3135 C3132 1.539 . S
C3135 H3149 0.958 . S
C3135 H3150 0.961 . S
C3135 H3151 0.960 . S
H3136 C3120 0.931 . S
H3137 C3125 0.929 . S
H3138 C3126 0.960 . S
H3139 C3126 0.962 . S
H3140 C3126 0.960 . S
H3141 C3127 0.961 . S
H3142 C3127 0.961 . S
H3143 C3127 0.961 . S
H3144 C3128 0.931 . S
H3145 C3133 0.930 . S
H3146 C3134 0.956 . S
H3147 C3134 0.961 . S
H3148 C3134 0.961 . S
H3149 C3135 0.958 . S
H3150 C3135 0.961 . S
H3151 C3135 0.960 . S
C3152 C3153 1.391 . S
C3152 C3154 1.394 . S
C3152 H3168 0.931 . S
C3153 C3152 1.391 . S
C3153 C3157 1.376 . S
C3154 C3152 1.394 . S
C3154 C3155 1.369 . S
C3154 C3158 1.531 . S
C3155 C3154 1.369 . S
C3155 C3156 1.410 . S
C3155 C3163 1.503 . S
C3156 C3155 1.410 . S
C3156 C3157 1.392 . S
C3156 C3159 1.511 . S
C3157 C3153 1.376 . S
C3157 C3156 1.392 . S
C3157 H3169 0.929 . S
C3158 C3154 1.531 . S
C3158 H3170 0.960 . S
C3158 H3171 0.962 . S
C3158 H3172 0.960 . S
C3159 C3156 1.511 . S
C3159 H3173 0.961 . S
C3159 H3174 0.961 . S
C3159 H3175 0.961 . S
C3160 C3161 1.370 . S
C3160 C3162 1.363 . S
C3160 H3176 0.931 . S
C3161 C3160 1.370 . S
C3161 C3165 1.408 . S
C3162 C3160 1.363 . S
C3162 C3163 1.370 . S
C3162 C3166 1.524 . S
C3163 C3155 1.503 . S
C3163 C3162 1.370 . S
C3163 C3164 1.403 . S
C3164 C3163 1.403 . S
C3164 C3165 1.404 . S
C3164 C3167 1.539 . S
C3165 C3161 1.408 . S
C3165 C3164 1.404 . S
C3165 H3177 0.930 . S
C3166 C3162 1.524 . S
C3166 H3178 0.956 . S
C3166 H3179 0.961 . S
C3166 H3180 0.961 . S
C3167 C3164 1.539 . S
C3167 H3181 0.958 . S
C3167 H3182 0.961 . S
C3167 H3183 0.960 . S
H3168 C3152 0.931 . S
H3169 C3157 0.929 . S
H3170 C3158 0.960 . S
H3171 C3158 0.962 . S
H3172 C3158 0.960 . S
H3173 C3159 0.961 . S
H3174 C3159 0.961 . S
H3175 C3159 0.961 . S
H3176 C3160 0.931 . S
H3177 C3165 0.930 . S
H3178 C3166 0.956 . S
H3179 C3166 0.961 . S
H3180 C3166 0.961 . S
H3181 C3167 0.958 . S
H3182 C3167 0.961 . S
H3183 C3167 0.960 . S
C3184 C3185 1.391 . S
C3184 C3186 1.394 . S
C3184 H3200 0.931 . S
C3185 C3184 1.391 . S
C3185 C3189 1.376 . S
C3186 C3184 1.394 . S
C3186 C3187 1.369 . S
C3186 C3190 1.531 . S
C3187 C3186 1.369 . S
C3187 C3188 1.410 . S
C3187 C3195 1.503 . S
C3188 C3187 1.410 . S
C3188 C3189 1.392 . S
C3188 C3191 1.511 . S
C3189 C3185 1.376 . S
C3189 C3188 1.392 . S
C3189 H3201 0.929 . S
C3190 C3186 1.531 . S
C3190 H3202 0.960 . S
C3190 H3203 0.962 . S
C3190 H3204 0.960 . S
C3191 C3188 1.511 . S
C3191 H3205 0.961 . S
C3191 H3206 0.961 . S
C3191 H3207 0.961 . S
C3192 C3193 1.370 . S
C3192 C3194 1.363 . S
C3192 H3208 0.931 . S
C3193 C3192 1.370 . S
C3193 C3197 1.408 . S
C3194 C3192 1.363 . S
C3194 C3195 1.370 . S
C3194 C3198 1.524 . S
C3195 C3187 1.503 . S
C3195 C3194 1.370 . S
C3195 C3196 1.403 . S
C3196 C3195 1.403 . S
C3196 C3197 1.404 . S
C3196 C3199 1.539 . S
C3197 C3193 1.408 . S
C3197 C3196 1.404 . S
C3197 H3209 0.930 . S
C3198 C3194 1.524 . S
C3198 H3210 0.956 . S
C3198 H3211 0.961 . S
C3198 H3212 0.961 . S
C3199 C3196 1.539 . S
C3199 H3213 0.958 . S
C3199 H3214 0.961 . S
C3199 H3215 0.960 . S
H3200 C3184 0.931 . S
H3201 C3189 0.929 . S
H3202 C3190 0.960 . S
H3203 C3190 0.962 . S
H3204 C3190 0.960 . S
H3205 C3191 0.961 . S
H3206 C3191 0.961 . S
H3207 C3191 0.961 . S
H3208 C3192 0.931 . S
H3209 C3197 0.930 . S
H3210 C3198 0.956 . S
H3211 C3198 0.961 . S
H3212 C3198 0.961 . S
H3213 C3199 0.958 . S
H3214 C3199 0.961 . S
H3215 C3199 0.960 . S
C3216 C3217 1.391 . S
C3216 C3218 1.394 . S
C3216 H3232 0.931 . S
C3217 C3216 1.391 . S
C3217 C3221 1.376 . S
C3218 C3216 1.394 . S
C3218 C3219 1.369 . S
C3218 C3222 1.531 . S
C3219 C3218 1.369 . S
C3219 C3220 1.410 . S
C3219 C3227 1.503 . S
C3220 C3219 1.410 . S
C3220 C3221 1.392 . S
C3220 C3223 1.511 . S
C3221 C3217 1.376 . S
C3221 C3220 1.392 . S
C3221 H3233 0.929 . S
C3222 C3218 1.531 . S
C3222 H3234 0.960 . S
C3222 H3235 0.962 . S
C3222 H3236 0.960 . S
C3223 C3220 1.511 . S
C3223 H3237 0.961 . S
C3223 H3238 0.961 . S
C3223 H3239 0.961 . S
C3224 C3225 1.370 . S
C3224 C3226 1.363 . S
C3224 H3240 0.931 . S
C3225 C3224 1.370 . S
C3225 C3229 1.408 . S
C3226 C3224 1.363 . S
C3226 C3227 1.370 . S
C3226 C3230 1.524 . S
C3227 C3219 1.503 . S
C3227 C3226 1.370 . S
C3227 C3228 1.403 . S
C3228 C3227 1.403 . S
C3228 C3229 1.404 . S
C3228 C3231 1.539 . S
C3229 C3225 1.408 . S
C3229 C3228 1.404 . S
C3229 H3241 0.930 . S
C3230 C3226 1.524 . S
C3230 H3242 0.956 . S
C3230 H3243 0.961 . S
C3230 H3244 0.961 . S
C3231 C3228 1.539 . S
C3231 H3245 0.958 . S
C3231 H3246 0.961 . S
C3231 H3247 0.960 . S
H3232 C3216 0.931 . S
H3233 C3221 0.929 . S
H3234 C3222 0.960 . S
H3235 C3222 0.962 . S
H3236 C3222 0.960 . S
H3237 C3223 0.961 . S
H3238 C3223 0.961 . S
H3239 C3223 0.961 . S
H3240 C3224 0.931 . S
H3241 C3229 0.930 . S
H3242 C3230 0.956 . S
H3243 C3230 0.961 . S
H3244 C3230 0.961 . S
H3245 C3231 0.958 . S
H3246 C3231 0.961 . S
H3247 C3231 0.960 . S
C3248 C3249 1.391 . S
C3248 C3250 1.394 . S
C3248 H3264 0.931 . S
C3249 C3248 1.391 . S
C3249 C3253 1.376 . S
C3250 C3248 1.394 . S
C3250 C3251 1.369 . S
C3250 C3254 1.531 . S
C3251 C3250 1.369 . S
C3251 C3252 1.410 . S
C3251 C3259 1.503 . S
C3252 C3251 1.410 . S
C3252 C3253 1.392 . S
C3252 C3255 1.511 . S
C3253 C3249 1.376 . S
C3253 C3252 1.392 . S
C3253 H3265 0.929 . S
C3254 C3250 1.531 . S
C3254 H3266 0.960 . S
C3254 H3267 0.962 . S
C3254 H3268 0.960 . S
C3255 C3252 1.511 . S
C3255 H3269 0.961 . S
C3255 H3270 0.961 . S
C3255 H3271 0.961 . S
C3256 C3257 1.370 . S
C3256 C3258 1.363 . S
C3256 H3272 0.931 . S
C3257 C3256 1.370 . S
C3257 C3261 1.408 . S
C3258 C3256 1.363 . S
C3258 C3259 1.370 . S
C3258 C3262 1.524 . S
C3259 C3251 1.503 . S
C3259 C3258 1.370 . S
C3259 C3260 1.403 . S
C3260 C3259 1.403 . S
C3260 C3261 1.404 . S
C3260 C3263 1.539 . S
C3261 C3257 1.408 . S
C3261 C3260 1.404 . S
C3261 H3273 0.930 . S
C3262 C3258 1.524 . S
C3262 H3274 0.956 . S
C3262 H3275 0.961 . S
C3262 H3276 0.961 . S
C3263 C3260 1.539 . S
C3263 H3277 0.958 . S
C3263 H3278 0.961 . S
C3263 H3279 0.960 . S
H3264 C3248 0.931 . S
H3265 C3253 0.929 . S
H3266 C3254 0.960 . S
H3267 C3254 0.962 . S
H3268 C3254 0.960 . S
H3269 C3255 0.961 . S
H3270 C3255 0.961 . S
H3271 C3255 0.961 . S
H3272 C3256 0.931 . S
H3273 C3261 0.930 . S
H3274 C3262 0.956 . S
H3275 C3262 0.961 . S
H3276 C3262 0.961 . S
H3277 C3263 0.958 . S
H3278 C3263 0.961 . S
H3279 C3263 0.960 . S
C3280 C3281 1.391 . S
C3280 C3282 1.394 . S
C3280 H3296 0.931 . S
C3281 C3280 1.391 . S
C3281 C3285 1.376 . S
C3282 C3280 1.394 . S
C3282 C3283 1.369 . S
C3282 C3286 1.531 . S
C3283 C3282 1.369 . S
C3283 C3284 1.410 . S
C3283 C3291 1.503 . S
C3284 C3283 1.410 . S
C3284 C3285 1.392 . S
C3284 C3287 1.511 . S
C3285 C3281 1.376 . S
C3285 C3284 1.392 . S
C3285 H3297 0.929 . S
C3286 C3282 1.531 . S
C3286 H3298 0.960 . S
C3286 H3299 0.962 . S
C3286 H3300 0.960 . S
C3287 C3284 1.511 . S
C3287 H3301 0.961 . S
C3287 H3302 0.961 . S
C3287 H3303 0.961 . S
C3288 C3289 1.370 . S
C3288 C3290 1.363 . S
C3288 H3304 0.931 . S
C3289 C3288 1.370 . S
C3289 C3293 1.408 . S
C3290 C3288 1.363 . S
C3290 C3291 1.370 . S
C3290 C3294 1.524 . S
C3291 C3283 1.503 . S
C3291 C3290 1.370 . S
C3291 C3292 1.403 . S
C3292 C3291 1.403 . S
C3292 C3293 1.404 . S
C3292 C3295 1.539 . S
C3293 C3289 1.408 . S
C3293 C3292 1.404 . S
C3293 H3305 0.930 . S
C3294 C3290 1.524 . S
C3294 H3306 0.956 . S
C3294 H3307 0.961 . S
C3294 H3308 0.961 . S
C3295 C3292 1.539 . S
C3295 H3309 0.958 . S
C3295 H3310 0.961 . S
C3295 H3311 0.960 . S
H3296 C3280 0.931 . S
H3297 C3285 0.929 . S
H3298 C3286 0.960 . S
H3299 C3286 0.962 . S
H3300 C3286 0.960 . S
H3301 C3287 0.961 . S
H3302 C3287 0.961 . S
H3303 C3287 0.961 . S
H3304 C3288 0.931 . S
H3305 C3293 0.930 . S
H3306 C3294 0.956 . S
H3307 C3294 0.961 . S
H3308 C3294 0.961 . S
H3309 C3295 0.958 . S
H3310 C3295 0.961 . S
H3311 C3295 0.960 . S
C3312 C3313 1.391 . S
C3312 C3314 1.394 . S
C3312 H3328 0.931 . S
C3313 C3312 1.391 . S
C3313 C3317 1.376 . S
C3314 C3312 1.394 . S
C3314 C3315 1.369 . S
C3314 C3318 1.531 . S
C3315 C3314 1.369 . S
C3315 C3316 1.410 . S
C3315 C3323 1.503 . S
C3316 C3315 1.410 . S
C3316 C3317 1.392 . S
C3316 C3319 1.511 . S
C3317 C3313 1.376 . S
C3317 C3316 1.392 . S
C3317 H3329 0.929 . S
C3318 C3314 1.531 . S
C3318 H3330 0.960 . S
C3318 H3331 0.962 . S
C3318 H3332 0.960 . S
C3319 C3316 1.511 . S
C3319 H3333 0.961 . S
C3319 H3334 0.961 . S
C3319 H3335 0.961 . S
C3320 C3321 1.370 . S
C3320 C3322 1.363 . S
C3320 H3336 0.931 . S
C3321 C3320 1.370 . S
C3321 C3325 1.408 . S
C3322 C3320 1.363 . S
C3322 C3323 1.370 . S
C3322 C3326 1.524 . S
C3323 C3315 1.503 . S
C3323 C3322 1.370 . S
C3323 C3324 1.403 . S
C3324 C3323 1.403 . S
C3324 C3325 1.404 . S
C3324 C3327 1.539 . S
C3325 C3321 1.408 . S
C3325 C3324 1.404 . S
C3325 H3337 0.930 . S
C3326 C3322 1.524 . S
C3326 H3338 0.956 . S
C3326 H3339 0.961 . S
C3326 H3340 0.961 . S
C3327 C3324 1.539 . S
C3327 H3341 0.958 . S
C3327 H3342 0.961 . S
C3327 H3343 0.960 . S
H3328 C3312 0.931 . S
H3329 C3317 0.929 . S
H3330 C3318 0.960 . S
H3331 C3318 0.962 . S
H3332 C3318 0.960 . S
H3333 C3319 0.961 . S
H3334 C3319 0.961 . S
H3335 C3319 0.961 . S
H3336 C3320 0.931 . S
H3337 C3325 0.930 . S
H3338 C3326 0.956 . S
H3339 C3326 0.961 . S
H3340 C3326 0.961 . S
H3341 C3327 0.958 . S
H3342 C3327 0.961 . S
H3343 C3327 0.960 . S
C3344 C3345 1.391 . S
C3344 C3346 1.394 . S
C3344 H3360 0.931 . S
C3345 C3344 1.391 . S
C3345 C3349 1.376 . S
C3346 C3344 1.394 . S
C3346 C3347 1.369 . S
C3346 C3350 1.531 . S
C3347 C3346 1.369 . S
C3347 C3348 1.410 . S
C3347 C3355 1.503 . S
C3348 C3347 1.410 . S
C3348 C3349 1.392 . S
C3348 C3351 1.511 . S
C3349 C3345 1.376 . S
C3349 C3348 1.392 . S
C3349 H3361 0.929 . S
C3350 C3346 1.531 . S
C3350 H3362 0.960 . S
C3350 H3363 0.962 . S
C3350 H3364 0.960 . S
C3351 C3348 1.511 . S
C3351 H3365 0.961 . S
C3351 H3366 0.961 . S
C3351 H3367 0.961 . S
C3352 C3353 1.370 . S
C3352 C3354 1.363 . S
C3352 H3368 0.931 . S
C3353 C3352 1.370 . S
C3353 C3357 1.408 . S
C3354 C3352 1.363 . S
C3354 C3355 1.370 . S
C3354 C3358 1.524 . S
C3355 C3347 1.503 . S
C3355 C3354 1.370 . S
C3355 C3356 1.403 . S
C3356 C3355 1.403 . S
C3356 C3357 1.404 . S
C3356 C3359 1.539 . S
C3357 C3353 1.408 . S
C3357 C3356 1.404 . S
C3357 H3369 0.930 . S
C3358 C3354 1.524 . S
C3358 H3370 0.956 . S
C3358 H3371 0.961 . S
C3358 H3372 0.961 . S
C3359 C3356 1.539 . S
C3359 H3373 0.958 . S
C3359 H3374 0.961 . S
C3359 H3375 0.960 . S
H3360 C3344 0.931 . S
H3361 C3349 0.929 . S
H3362 C3350 0.960 . S
H3363 C3350 0.962 . S
H3364 C3350 0.960 . S
H3365 C3351 0.961 . S
H3366 C3351 0.961 . S
H3367 C3351 0.961 . S
H3368 C3352 0.931 . S
H3369 C3357 0.930 . S
H3370 C3358 0.956 . S
H3371 C3358 0.961 . S
H3372 C3358 0.961 . S
H3373 C3359 0.958 . S
H3374 C3359 0.961 . S
H3375 C3359 0.960 . S
C3376 C3377 1.391 . S
C3376 C3378 1.394 . S
C3376 H3392 0.931 . S
C3377 C3376 1.391 . S
C3377 C3381 1.376 . S
C3378 C3376 1.394 . S
C3378 C3379 1.369 . S
C3378 C3382 1.531 . S
C3379 C3378 1.369 . S
C3379 C3380 1.410 . S
C3379 C3387 1.503 . S
C3380 C3379 1.410 . S
C3380 C3381 1.392 . S
C3380 C3383 1.511 . S
C3381 C3377 1.376 . S
C3381 C3380 1.392 . S
C3381 H3393 0.929 . S
C3382 C3378 1.531 . S
C3382 H3394 0.960 . S
C3382 H3395 0.962 . S
C3382 H3396 0.960 . S
C3383 C3380 1.511 . S
C3383 H3397 0.961 . S
C3383 H3398 0.961 . S
C3383 H3399 0.961 . S
C3384 C3385 1.370 . S
C3384 C3386 1.363 . S
C3384 H3400 0.931 . S
C3385 C3384 1.370 . S
C3385 C3389 1.408 . S
C3386 C3384 1.363 . S
C3386 C3387 1.370 . S
C3386 C3390 1.524 . S
C3387 C3379 1.503 . S
C3387 C3386 1.370 . S
C3387 C3388 1.403 . S
C3388 C3387 1.403 . S
C3388 C3389 1.404 . S
C3388 C3391 1.539 . S
C3389 C3385 1.408 . S
C3389 C3388 1.404 . S
C3389 H3401 0.930 . S
C3390 C3386 1.524 . S
C3390 H3402 0.956 . S
C3390 H3403 0.961 . S
C3390 H3404 0.961 . S
C3391 C3388 1.539 . S
C3391 H3405 0.958 . S
C3391 H3406 0.961 . S
C3391 H3407 0.960 . S
H3392 C3376 0.931 . S
H3393 C3381 0.929 . S
H3394 C3382 0.960 . S
H3395 C3382 0.962 . S
H3396 C3382 0.960 . S
H3397 C3383 0.961 . S
H3398 C3383 0.961 . S
H3399 C3383 0.961 . S
H3400 C3384 0.931 . S
H3401 C3389 0.930 . S
H3402 C3390 0.956 . S
H3403 C3390 0.961 . S
H3404 C3390 0.961 . S
H3405 C3391 0.958 . S
H3406 C3391 0.961 . S
H3407 C3391 0.960 . S
C3408 C3409 1.391 . S
C3408 C3410 1.394 . S
C3408 H3424 0.931 . S
C3409 C3408 1.391 . S
C3409 C3413 1.376 . S
C3410 C3408 1.394 . S
C3410 C3411 1.369 . S
C3410 C3414 1.531 . S
C3411 C3410 1.369 . S
C3411 C3412 1.410 . S
C3411 C3419 1.503 . S
C3412 C3411 1.410 . S
C3412 C3413 1.392 . S
C3412 C3415 1.511 . S
C3413 C3409 1.376 . S
C3413 C3412 1.392 . S
C3413 H3425 0.929 . S
C3414 C3410 1.531 . S
C3414 H3426 0.960 . S
C3414 H3427 0.962 . S
C3414 H3428 0.960 . S
C3415 C3412 1.511 . S
C3415 H3429 0.961 . S
C3415 H3430 0.961 . S
C3415 H3431 0.961 . S
C3416 C3417 1.370 . S
C3416 C3418 1.363 . S
C3416 H3432 0.931 . S
C3417 C3416 1.370 . S
C3417 C3421 1.408 . S
C3418 C3416 1.363 . S
C3418 C3419 1.370 . S
C3418 C3422 1.524 . S
C3419 C3411 1.503 . S
C3419 C3418 1.370 . S
C3419 C3420 1.403 . S
C3420 C3419 1.403 . S
C3420 C3421 1.404 . S
C3420 C3423 1.539 . S
C3421 C3417 1.408 . S
C3421 C3420 1.404 . S
C3421 H3433 0.930 . S
C3422 C3418 1.524 . S
C3422 H3434 0.956 . S
C3422 H3435 0.961 . S
C3422 H3436 0.961 . S
C3423 C3420 1.539 . S
C3423 H3437 0.958 . S
C3423 H3438 0.961 . S
C3423 H3439 0.960 . S
H3424 C3408 0.931 . S
H3425 C3413 0.929 . S
H3426 C3414 0.960 . S
H3427 C3414 0.962 . S
H3428 C3414 0.960 . S
H3429 C3415 0.961 . S
H3430 C3415 0.961 . S
H3431 C3415 0.961 . S
H3432 C3416 0.931 . S
H3433 C3421 0.930 . S
H3434 C3422 0.956 . S
H3435 C3422 0.961 . S
H3436 C3422 0.961 . S
H3437 C3423 0.958 . S
H3438 C3423 0.961 . S
H3439 C3423 0.960 . S
C3440 C3441 1.391 . S
C3440 C3442 1.394 . S
C3440 H3456 0.931 . S
C3441 C3440 1.391 . S
C3441 C3445 1.376 . S
C3442 C3440 1.394 . S
C3442 C3443 1.369 . S
C3442 C3446 1.531 . S
C3443 C3442 1.369 . S
C3443 C3444 1.410 . S
C3443 C3451 1.503 . S
C3444 C3443 1.410 . S
C3444 C3445 1.392 . S
C3444 C3447 1.511 . S
C3445 C3441 1.376 . S
C3445 C3444 1.392 . S
C3445 H3457 0.929 . S
C3446 C3442 1.531 . S
C3446 H3458 0.960 . S
C3446 H3459 0.962 . S
C3446 H3460 0.960 . S
C3447 C3444 1.511 . S
C3447 H3461 0.961 . S
C3447 H3462 0.961 . S
C3447 H3463 0.961 . S
C3448 C3449 1.370 . S
C3448 C3450 1.363 . S
C3448 H3464 0.931 . S
C3449 C3448 1.370 . S
C3449 C3453 1.408 . S
C3450 C3448 1.363 . S
C3450 C3451 1.370 . S
C3450 C3454 1.524 . S
C3451 C3443 1.503 . S
C3451 C3450 1.370 . S
C3451 C3452 1.403 . S
C3452 C3451 1.403 . S
C3452 C3453 1.404 . S
C3452 C3455 1.539 . S
C3453 C3449 1.408 . S
C3453 C3452 1.404 . S
C3453 H3465 0.930 . S
C3454 C3450 1.524 . S
C3454 H3466 0.956 . S
C3454 H3467 0.961 . S
C3454 H3468 0.961 . S
C3455 C3452 1.539 . S
C3455 H3469 0.958 . S
C3455 H3470 0.961 . S
C3455 H3471 0.960 . S
H3456 C3440 0.931 . S
H3457 C3445 0.929 . S
H3458 C3446 0.960 . S
H3459 C3446 0.962 . S
H3460 C3446 0.960 . S
H3461 C3447 0.961 . S
H3462 C3447 0.961 . S
H3463 C3447 0.961 . S
H3464 C3448 0.931 . S
H3465 C3453 0.930 . S
H3466 C3454 0.956 . S
H3467 C3454 0.961 . S
H3468 C3454 0.961 . S
H3469 C3455 0.958 . S
H3470 C3455 0.961 . S
H3471 C3455 0.960 . S
C3472 C3473 1.391 . S
C3472 C3474 1.394 . S
C3472 H3488 0.931 . S
C3473 C3472 1.391 . S
C3473 C3477 1.376 . S
C3474 C3472 1.394 . S
C3474 C3475 1.369 . S
C3474 C3478 1.531 . S
C3475 C3474 1.369 . S
C3475 C3476 1.410 . S
C3475 C3483 1.503 . S
C3476 C3475 1.410 . S
C3476 C3477 1.392 . S
C3476 C3479 1.511 . S
C3477 C3473 1.376 . S
C3477 C3476 1.392 . S
C3477 H3489 0.929 . S
C3478 C3474 1.531 . S
C3478 H3490 0.960 . S
C3478 H3491 0.962 . S
C3478 H3492 0.960 . S
C3479 C3476 1.511 . S
C3479 H3493 0.961 . S
C3479 H3494 0.961 . S
C3479 H3495 0.961 . S
C3480 C3481 1.370 . S
C3480 C3482 1.363 . S
C3480 H3496 0.931 . S
C3481 C3480 1.370 . S
C3481 C3485 1.408 . S
C3482 C3480 1.363 . S
C3482 C3483 1.370 . S
C3482 C3486 1.524 . S
C3483 C3475 1.503 . S
C3483 C3482 1.370 . S
C3483 C3484 1.403 . S
C3484 C3483 1.403 . S
C3484 C3485 1.404 . S
C3484 C3487 1.539 . S
C3485 C3481 1.408 . S
C3485 C3484 1.404 . S
C3485 H3497 0.930 . S
C3486 C3482 1.524 . S
C3486 H3498 0.956 . S
C3486 H3499 0.961 . S
C3486 H3500 0.961 . S
C3487 C3484 1.539 . S
C3487 H3501 0.958 . S
C3487 H3502 0.961 . S
C3487 H3503 0.960 . S
H3488 C3472 0.931 . S
H3489 C3477 0.929 . S
H3490 C3478 0.960 . S
H3491 C3478 0.962 . S
H3492 C3478 0.960 . S
H3493 C3479 0.961 . S
H3494 C3479 0.961 . S
H3495 C3479 0.961 . S
H3496 C3480 0.931 . S
H3497 C3485 0.930 . S
H3498 C3486 0.956 . S
H3499 C3486 0.961 . S
H3500 C3486 0.961 . S
H3501 C3487 0.958 . S
H3502 C3487 0.961 . S
H3503 C3487 0.960 . S
C3504 C3505 1.391 . S
C3504 C3506 1.394 . S
C3504 H3520 0.931 . S
C3505 C3504 1.391 . S
C3505 C3509 1.376 . S
C3506 C3504 1.394 . S
C3506 C3507 1.369 . S
C3506 C3510 1.531 . S
C3507 C3506 1.369 . S
C3507 C3508 1.410 . S
C3507 C3515 1.503 . S
C3508 C3507 1.410 . S
C3508 C3509 1.392 . S
C3508 C3511 1.511 . S
C3509 C3505 1.376 . S
C3509 C3508 1.392 . S
C3509 H3521 0.929 . S
C3510 C3506 1.531 . S
C3510 H3522 0.960 . S
C3510 H3523 0.962 . S
C3510 H3524 0.960 . S
C3511 C3508 1.511 . S
C3511 H3525 0.961 . S
C3511 H3526 0.961 . S
C3511 H3527 0.961 . S
C3512 C3513 1.370 . S
C3512 C3514 1.363 . S
C3512 H3528 0.931 . S
C3513 C3512 1.370 . S
C3513 C3517 1.408 . S
C3514 C3512 1.363 . S
C3514 C3515 1.370 . S
C3514 C3518 1.524 . S
C3515 C3507 1.503 . S
C3515 C3514 1.370 . S
C3515 C3516 1.403 . S
C3516 C3515 1.403 . S
C3516 C3517 1.404 . S
C3516 C3519 1.539 . S
C3517 C3513 1.408 . S
C3517 C3516 1.404 . S
C3517 H3529 0.930 . S
C3518 C3514 1.524 . S
C3518 H3530 0.956 . S
C3518 H3531 0.961 . S
C3518 H3532 0.961 . S
C3519 C3516 1.539 . S
C3519 H3533 0.958 . S
C3519 H3534 0.961 . S
C3519 H3535 0.960 . S
H3520 C3504 0.931 . S
H3521 C3509 0.929 . S
H3522 C3510 0.960 . S
H3523 C3510 0.962 . S
H3524 C3510 0.960 . S
H3525 C3511 0.961 . S
H3526 C3511 0.961 . S
H3527 C3511 0.961 . S
H3528 C3512 0.931 . S
H3529 C3517 0.930 . S
H3530 C3518 0.956 . S
H3531 C3518 0.961 . S
H3532 C3518 0.961 . S
H3533 C3519 0.958 . S
H3534 C3519 0.961 . S
H3535 C3519 0.960 . S
C3536 C3537 1.391 . S
C3536 C3538 1.394 . S
C3536 H3552 0.931 . S
C3537 C3536 1.391 . S
C3537 C3541 1.376 . S
C3538 C3536 1.394 . S
C3538 C3539 1.369 . S
C3538 C3542 1.531 . S
C3539 C3538 1.369 . S
C3539 C3540 1.410 . S
C3539 C3547 1.503 . S
C3540 C3539 1.410 . S
C3540 C3541 1.392 . S
C3540 C3543 1.511 . S
C3541 C3537 1.376 . S
C3541 C3540 1.392 . S
C3541 H3553 0.929 . S
C3542 C3538 1.531 . S
C3542 H3554 0.960 . S
C3542 H3555 0.962 . S
C3542 H3556 0.960 . S
C3543 C3540 1.511 . S
C3543 H3557 0.961 . S
C3543 H3558 0.961 . S
C3543 H3559 0.961 . S
C3544 C3545 1.370 . S
C3544 C3546 1.363 . S
C3544 H3560 0.931 . S
C3545 C3544 1.370 . S
C3545 C3549 1.408 . S
C3546 C3544 1.363 . S
C3546 C3547 1.370 . S
C3546 C3550 1.524 . S
C3547 C3539 1.503 . S
C3547 C3546 1.370 . S
C3547 C3548 1.403 . S
C3548 C3547 1.403 . S
C3548 C3549 1.404 . S
C3548 C3551 1.539 . S
C3549 C3545 1.408 . S
C3549 C3548 1.404 . S
C3549 H3561 0.930 . S
C3550 C3546 1.524 . S
C3550 H3562 0.956 . S
C3550 H3563 0.961 . S
C3550 H3564 0.961 . S
C3551 C3548 1.539 . S
C3551 H3565 0.958 . S
C3551 H3566 0.961 . S
C3551 H3567 0.960 . S
H3552 C3536 0.931 . S
H3553 C3541 0.929 . S
H3554 C3542 0.960 . S
H3555 C3542 0.962 . S
H3556 C3542 0.960 . S
H3557 C3543 0.961 . S
H3558 C3543 0.961 . S
H3559 C3543 0.961 . S
H3560 C3544 0.931 . S
H3561 C3549 0.930 . S
H3562 C3550 0.956 . S
H3563 C3550 0.961 . S
H3564 C3550 0.961 . S
H3565 C3551 0.958 . S
H3566 C3551 0.961 . S
H3567 C3551 0.960 . S
C3568 C3569 1.391 . S
C3568 C3570 1.394 . S
C3568 H3584 0.931 . S
C3569 C3568 1.391 . S
C3569 C3573 1.376 . S
C3570 C3568 1.394 . S
C3570 C3571 1.369 . S
C3570 C3574 1.531 . S
C3571 C3570 1.369 . S
C3571 C3572 1.410 . S
C3571 C3579 1.503 . S
C3572 C3571 1.410 . S
C3572 C3573 1.392 . S
C3572 C3575 1.511 . S
C3573 C3569 1.376 . S
C3573 C3572 1.392 . S
C3573 H3585 0.929 . S
C3574 C3570 1.531 . S
C3574 H3586 0.960 . S
C3574 H3587 0.962 . S
C3574 H3588 0.960 . S
C3575 C3572 1.511 . S
C3575 H3589 0.961 . S
C3575 H3590 0.961 . S
C3575 H3591 0.961 . S
C3576 C3577 1.370 . S
C3576 C3578 1.363 . S
C3576 H3592 0.931 . S
C3577 C3576 1.370 . S
C3577 C3581 1.408 . S
C3578 C3576 1.363 . S
C3578 C3579 1.370 . S
C3578 C3582 1.524 . S
C3579 C3571 1.503 . S
C3579 C3578 1.370 . S
C3579 C3580 1.403 . S
C3580 C3579 1.403 . S
C3580 C3581 1.404 . S
C3580 C3583 1.539 . S
C3581 C3577 1.408 . S
C3581 C3580 1.404 . S
C3581 H3593 0.930 . S
C3582 C3578 1.524 . S
C3582 H3594 0.956 . S
C3582 H3595 0.961 . S
C3582 H3596 0.961 . S
C3583 C3580 1.539 . S
C3583 H3597 0.958 . S
C3583 H3598 0.961 . S
C3583 H3599 0.960 . S
H3584 C3568 0.931 . S
H3585 C3573 0.929 . S
H3586 C3574 0.960 . S
H3587 C3574 0.962 . S
H3588 C3574 0.960 . S
H3589 C3575 0.961 . S
H3590 C3575 0.961 . S
H3591 C3575 0.961 . S
H3592 C3576 0.931 . S
H3593 C3581 0.930 . S
H3594 C3582 0.956 . S
H3595 C3582 0.961 . S
H3596 C3582 0.961 . S
H3597 C3583 0.958 . S
H3598 C3583 0.961 . S
H3599 C3583 0.960 . S
C3600 C3601 1.391 . S
C3600 C3602 1.394 . S
C3600 H3616 0.931 . S
C3601 C3600 1.391 . S
C3601 C3605 1.376 . S
C3602 C3600 1.394 . S
C3602 C3603 1.369 . S
C3602 C3606 1.531 . S
C3603 C3602 1.369 . S
C3603 C3604 1.410 . S
C3603 C3611 1.503 . S
C3604 C3603 1.410 . S
C3604 C3605 1.392 . S
C3604 C3607 1.511 . S
C3605 C3601 1.376 . S
C3605 C3604 1.392 . S
C3605 H3617 0.929 . S
C3606 C3602 1.531 . S
C3606 H3618 0.960 . S
C3606 H3619 0.962 . S
C3606 H3620 0.960 . S
C3607 C3604 1.511 . S
C3607 H3621 0.961 . S
C3607 H3622 0.961 . S
C3607 H3623 0.961 . S
C3608 C3609 1.370 . S
C3608 C3610 1.363 . S
C3608 H3624 0.931 . S
C3609 C3608 1.370 . S
C3609 C3613 1.408 . S
C3610 C3608 1.363 . S
C3610 C3611 1.370 . S
C3610 C3614 1.524 . S
C3611 C3603 1.503 . S
C3611 C3610 1.370 . S
C3611 C3612 1.403 . S
C3612 C3611 1.403 . S
C3612 C3613 1.404 . S
C3612 C3615 1.539 . S
C3613 C3609 1.408 . S
C3613 C3612 1.404 . S
C3613 H3625 0.930 . S
C3614 C3610 1.524 . S
C3614 H3626 0.956 . S
C3614 H3627 0.961 . S
C3614 H3628 0.961 . S
C3615 C3612 1.539 . S
C3615 H3629 0.958 . S
C3615 H3630 0.961 . S
C3615 H3631 0.960 . S
H3616 C3600 0.931 . S
H3617 C3605 0.929 . S
H3618 C3606 0.960 . S
H3619 C3606 0.962 . S
H3620 C3606 0.960 . S
H3621 C3607 0.961 . S
H3622 C3607 0.961 . S
H3623 C3607 0.961 . S
H3624 C3608 0.931 . S
H3625 C3613 0.930 . S
H3626 C3614 0.956 . S
H3627 C3614 0.961 . S
H3628 C3614 0.961 . S
H3629 C3615 0.958 . S
H3630 C3615 0.961 . S
H3631 C3615 0.960 . S
C3632 C3633 1.391 . S
C3632 C3634 1.394 . S
C3632 H3648 0.931 . S
C3633 C3632 1.391 . S
C3633 C3637 1.376 . S
C3634 C3632 1.394 . S
C3634 C3635 1.369 . S
C3634 C3638 1.531 . S
C3635 C3634 1.369 . S
C3635 C3636 1.410 . S
C3635 C3643 1.503 . S
C3636 C3635 1.410 . S
C3636 C3637 1.392 . S
C3636 C3639 1.511 . S
C3637 C3633 1.376 . S
C3637 C3636 1.392 . S
C3637 H3649 0.929 . S
C3638 C3634 1.531 . S
C3638 H3650 0.960 . S
C3638 H3651 0.962 . S
C3638 H3652 0.960 . S
C3639 C3636 1.511 . S
C3639 H3653 0.961 . S
C3639 H3654 0.961 . S
C3639 H3655 0.961 . S
C3640 C3641 1.370 . S
C3640 C3642 1.363 . S
C3640 H3656 0.931 . S
C3641 C3640 1.370 . S
C3641 C3645 1.408 . S
C3642 C3640 1.363 . S
C3642 C3643 1.370 . S
C3642 C3646 1.524 . S
C3643 C3635 1.503 . S
C3643 C3642 1.370 . S
C3643 C3644 1.403 . S
C3644 C3643 1.403 . S
C3644 C3645 1.404 . S
C3644 C3647 1.539 . S
C3645 C3641 1.408 . S
C3645 C3644 1.404 . S
C3645 H3657 0.930 . S
C3646 C3642 1.524 . S
C3646 H3658 0.956 . S
C3646 H3659 0.961 . S
C3646 H3660 0.961 . S
C3647 C3644 1.539 . S
C3647 H3661 0.958 . S
C3647 H3662 0.961 . S
C3647 H3663 0.960 . S
H3648 C3632 0.931 . S
H3649 C3637 0.929 . S
H3650 C3638 0.960 . S
H3651 C3638 0.962 . S
H3652 C3638 0.960 . S
H3653 C3639 0.961 . S
H3654 C3639 0.961 . S
H3655 C3639 0.961 . S
H3656 C3640 0.931 . S
H3657 C3645 0.930 . S
H3658 C3646 0.956 . S
H3659 C3646 0.961 . S
H3660 C3646 0.961 . S
H3661 C3647 0.958 . S
H3662 C3647 0.961 . S
H3663 C3647 0.960 . S
C3664 C3665 1.391 . S
C3664 C3666 1.394 . S
C3664 H3680 0.931 . S
C3665 C3664 1.391 . S
C3665 C3669 1.376 . S
C3666 C3664 1.394 . S
C3666 C3667 1.369 . S
C3666 C3670 1.531 . S
C3667 C3666 1.369 . S
C3667 C3668 1.410 . S
C3667 C3675 1.503 . S
C3668 C3667 1.410 . S
C3668 C3669 1.392 . S
C3668 C3671 1.511 . S
C3669 C3665 1.376 . S
C3669 C3668 1.392 . S
C3669 H3681 0.929 . S
C3670 C3666 1.531 . S
C3670 H3682 0.960 . S
C3670 H3683 0.962 . S
C3670 H3684 0.960 . S
C3671 C3668 1.511 . S
C3671 H3685 0.961 . S
C3671 H3686 0.961 . S
C3671 H3687 0.961 . S
C3672 C3673 1.370 . S
C3672 C3674 1.363 . S
C3672 H3688 0.931 . S
C3673 C3672 1.370 . S
C3673 C3677 1.408 . S
C3674 C3672 1.363 . S
C3674 C3675 1.370 . S
C3674 C3678 1.524 . S
C3675 C3667 1.503 . S
C3675 C3674 1.370 . S
C3675 C3676 1.403 . S
C3676 C3675 1.403 . S
C3676 C3677 1.404 . S
C3676 C3679 1.539 . S
C3677 C3673 1.408 . S
C3677 C3676 1.404 . S
C3677 H3689 0.930 . S
C3678 C3674 1.524 . S
C3678 H3690 0.956 . S
C3678 H3691 0.961 . S
C3678 H3692 0.961 . S
C3679 C3676 1.539 . S
C3679 H3693 0.958 . S
C3679 H3694 0.961 . S
C3679 H3695 0.960 . S
H3680 C3664 0.931 . S
H3681 C3669 0.929 . S
H3682 C3670 0.960 . S
H3683 C3670 0.962 . S
H3684 C3670 0.960 . S
H3685 C3671 0.961 . S
H3686 C3671 0.961 . S
H3687 C3671 0.961 . S
H3688 C3672 0.931 . S
H3689 C3677 0.930 . S
H3690 C3678 0.956 . S
H3691 C3678 0.961 . S
H3692 C3678 0.961 . S
H3693 C3679 0.958 . S
H3694 C3679 0.961 . S
H3695 C3679 0.960 . S
C3696 C3697 1.391 . S
C3696 C3698 1.394 . S
C3696 H3712 0.931 . S
C3697 C3696 1.391 . S
C3697 C3701 1.376 . S
C3698 C3696 1.394 . S
C3698 C3699 1.369 . S
C3698 C3702 1.531 . S
C3699 C3698 1.369 . S
C3699 C3700 1.410 . S
C3699 C3707 1.503 . S
C3700 C3699 1.410 . S
C3700 C3701 1.392 . S
C3700 C3703 1.511 . S
C3701 C3697 1.376 . S
C3701 C3700 1.392 . S
C3701 H3713 0.929 . S
C3702 C3698 1.531 . S
C3702 H3714 0.960 . S
C3702 H3715 0.962 . S
C3702 H3716 0.960 . S
C3703 C3700 1.511 . S
C3703 H3717 0.961 . S
C3703 H3718 0.961 . S
C3703 H3719 0.961 . S
C3704 C3705 1.370 . S
C3704 C3706 1.363 . S
C3704 H3720 0.931 . S
C3705 C3704 1.370 . S
C3705 C3709 1.408 . S
C3706 C3704 1.363 . S
C3706 C3707 1.370 . S
C3706 C3710 1.524 . S
C3707 C3699 1.503 . S
C3707 C3706 1.370 . S
C3707 C3708 1.403 . S
C3708 C3707 1.403 . S
C3708 C3709 1.404 . S
C3708 C3711 1.539 . S
C3709 C3705 1.408 . S
C3709 C3708 1.404 . S
C3709 H3721 0.930 . S
C3710 C3706 1.524 . S
C3710 H3722 0.956 . S
C3710 H3723 0.961 . S
C3710 H3724 0.961 . S
C3711 C3708 1.539 . S
C3711 H3725 0.958 . S
C3711 H3726 0.961 . S
C3711 H3727 0.960 . S
H3712 C3696 0.931 . S
H3713 C3701 0.929 . S
H3714 C3702 0.960 . S
H3715 C3702 0.962 . S
H3716 C3702 0.960 . S
H3717 C3703 0.961 . S
H3718 C3703 0.961 . S
H3719 C3703 0.961 . S
H3720 C3704 0.931 . S
H3721 C3709 0.930 . S
H3722 C3710 0.956 . S
H3723 C3710 0.961 . S
H3724 C3710 0.961 . S
H3725 C3711 0.958 . S
H3726 C3711 0.961 . S
H3727 C3711 0.960 . S
C3728 C3729 1.391 . S
C3728 C3730 1.394 . S
C3728 H3744 0.931 . S
C3729 C3728 1.391 . S
C3729 C3733 1.376 . S
C3730 C3728 1.394 . S
C3730 C3731 1.369 . S
C3730 C3734 1.531 . S
C3731 C3730 1.369 . S
C3731 C3732 1.410 . S
C3731 C3739 1.503 . S
C3732 C3731 1.410 . S
C3732 C3733 1.392 . S
C3732 C3735 1.511 . S
C3733 C3729 1.376 . S
C3733 C3732 1.392 . S
C3733 H3745 0.929 . S
C3734 C3730 1.531 . S
C3734 H3746 0.960 . S
C3734 H3747 0.962 . S
C3734 H3748 0.960 . S
C3735 C3732 1.511 . S
C3735 H3749 0.961 . S
C3735 H3750 0.961 . S
C3735 H3751 0.961 . S
C3736 C3737 1.370 . S
C3736 C3738 1.363 . S
C3736 H3752 0.931 . S
C3737 C3736 1.370 . S
C3737 C3741 1.408 . S
C3738 C3736 1.363 . S
C3738 C3739 1.370 . S
C3738 C3742 1.524 . S
C3739 C3731 1.503 . S
C3739 C3738 1.370 . S
C3739 C3740 1.403 . S
C3740 C3739 1.403 . S
C3740 C3741 1.404 . S
C3740 C3743 1.539 . S
C3741 C3737 1.408 . S
C3741 C3740 1.404 . S
C3741 H3753 0.930 . S
C3742 C3738 1.524 . S
C3742 H3754 0.956 . S
C3742 H3755 0.961 . S
C3742 H3756 0.961 . S
C3743 C3740 1.539 . S
C3743 H3757 0.958 . S
C3743 H3758 0.961 . S
C3743 H3759 0.960 . S
H3744 C3728 0.931 . S
H3745 C3733 0.929 . S
H3746 C3734 0.960 . S
H3747 C3734 0.962 . S
H3748 C3734 0.960 . S
H3749 C3735 0.961 . S
H3750 C3735 0.961 . S
H3751 C3735 0.961 . S
H3752 C3736 0.931 . S
H3753 C3741 0.930 . S
H3754 C3742 0.956 . S
H3755 C3742 0.961 . S
H3756 C3742 0.961 . S
H3757 C3743 0.958 . S
H3758 C3743 0.961 . S
H3759 C3743 0.960 . S
C3760 C3761 1.391 . S
C3760 C3762 1.394 . S
C3760 H3776 0.931 . S
C3761 C3760 1.391 . S
C3761 C3765 1.376 . S
C3762 C3760 1.394 . S
C3762 C3763 1.369 . S
C3762 C3766 1.531 . S
C3763 C3762 1.369 . S
C3763 C3764 1.410 . S
C3763 C3771 1.503 . S
C3764 C3763 1.410 . S
C3764 C3765 1.392 . S
C3764 C3767 1.511 . S
C3765 C3761 1.376 . S
C3765 C3764 1.392 . S
C3765 H3777 0.929 . S
C3766 C3762 1.531 . S
C3766 H3778 0.960 . S
C3766 H3779 0.962 . S
C3766 H3780 0.960 . S
C3767 C3764 1.511 . S
C3767 H3781 0.961 . S
C3767 H3782 0.961 . S
C3767 H3783 0.961 . S
C3768 C3769 1.370 . S
C3768 C3770 1.363 . S
C3768 H3784 0.931 . S
C3769 C3768 1.370 . S
C3769 C3773 1.408 . S
C3770 C3768 1.363 . S
C3770 C3771 1.370 . S
C3770 C3774 1.524 . S
C3771 C3763 1.503 . S
C3771 C3770 1.370 . S
C3771 C3772 1.403 . S
C3772 C3771 1.403 . S
C3772 C3773 1.404 . S
C3772 C3775 1.539 . S
C3773 C3769 1.408 . S
C3773 C3772 1.404 . S
C3773 H3785 0.930 . S
C3774 C3770 1.524 . S
C3774 H3786 0.956 . S
C3774 H3787 0.961 . S
C3774 H3788 0.961 . S
C3775 C3772 1.539 . S
C3775 H3789 0.958 . S
C3775 H3790 0.961 . S
C3775 H3791 0.960 . S
H3776 C3760 0.931 . S
H3777 C3765 0.929 . S
H3778 C3766 0.960 . S
H3779 C3766 0.962 . S
H3780 C3766 0.960 . S
H3781 C3767 0.961 . S
H3782 C3767 0.961 . S
H3783 C3767 0.961 . S
H3784 C3768 0.931 . S
H3785 C3773 0.930 . S
H3786 C3774 0.956 . S
H3787 C3774 0.961 . S
H3788 C3774 0.961 . S
H3789 C3775 0.958 . S
H3790 C3775 0.961 . S
H3791 C3775 0.960 . S
C3792 C3793 1.391 . S
C3792 C3794 1.394 . S
C3792 H3808 0.931 . S
C3793 C3792 1.391 . S
C3793 C3797 1.376 . S
C3794 C3792 1.394 . S
C3794 C3795 1.369 . S
C3794 C3798 1.531 . S
C3795 C3794 1.369 . S
C3795 C3796 1.410 . S
C3795 C3803 1.503 . S
C3796 C3795 1.410 . S
C3796 C3797 1.392 . S
C3796 C3799 1.511 . S
C3797 C3793 1.376 . S
C3797 C3796 1.392 . S
C3797 H3809 0.929 . S
C3798 C3794 1.531 . S
C3798 H3810 0.960 . S
C3798 H3811 0.962 . S
C3798 H3812 0.960 . S
C3799 C3796 1.511 . S
C3799 H3813 0.961 . S
C3799 H3814 0.961 . S
C3799 H3815 0.961 . S
C3800 C3801 1.370 . S
C3800 C3802 1.363 . S
C3800 H3816 0.931 . S
C3801 C3800 1.370 . S
C3801 C3805 1.408 . S
C3802 C3800 1.363 . S
C3802 C3803 1.370 . S
C3802 C3806 1.524 . S
C3803 C3795 1.503 . S
C3803 C3802 1.370 . S
C3803 C3804 1.403 . S
C3804 C3803 1.403 . S
C3804 C3805 1.404 . S
C3804 C3807 1.539 . S
C3805 C3801 1.408 . S
C3805 C3804 1.404 . S
C3805 H3817 0.930 . S
C3806 C3802 1.524 . S
C3806 H3818 0.956 . S
C3806 H3819 0.961 . S
C3806 H3820 0.961 . S
C3807 C3804 1.539 . S
C3807 H3821 0.958 . S
C3807 H3822 0.961 . S
C3807 H3823 0.960 . S
H3808 C3792 0.931 . S
H3809 C3797 0.929 . S
H3810 C3798 0.960 . S
H3811 C3798 0.962 . S
H3812 C3798 0.960 . S
H3813 C3799 0.961 . S
H3814 C3799 0.961 . S
H3815 C3799 0.961 . S
H3816 C3800 0.931 . S
H3817 C3805 0.930 . S
H3818 C3806 0.956 . S
H3819 C3806 0.961 . S
H3820 C3806 0.961 . S
H3821 C3807 0.958 . S
H3822 C3807 0.961 . S
H3823 C3807 0.960 . S
C3824 C3825 1.391 . S
C3824 C3826 1.394 . S
C3824 H3840 0.931 . S
C3825 C3824 1.391 . S
C3825 C3829 1.376 . S
C3826 C3824 1.394 . S
C3826 C3827 1.369 . S
C3826 C3830 1.531 . S
C3827 C3826 1.369 . S
C3827 C3828 1.410 . S
C3827 C3835 1.503 . S
C3828 C3827 1.410 . S
C3828 C3829 1.392 . S
C3828 C3831 1.511 . S
C3829 C3825 1.376 . S
C3829 C3828 1.392 . S
C3829 H3841 0.929 . S
C3830 C3826 1.531 . S
C3830 H3842 0.960 . S
C3830 H3843 0.962 . S
C3830 H3844 0.960 . S
C3831 C3828 1.511 . S
C3831 H3845 0.961 . S
C3831 H3846 0.961 . S
C3831 H3847 0.961 . S
C3832 C3833 1.370 . S
C3832 C3834 1.363 . S
C3832 H3848 0.931 . S
C3833 C3832 1.370 . S
C3833 C3837 1.408 . S
C3834 C3832 1.363 . S
C3834 C3835 1.370 . S
C3834 C3838 1.524 . S
C3835 C3827 1.503 . S
C3835 C3834 1.370 . S
C3835 C3836 1.403 . S
C3836 C3835 1.403 . S
C3836 C3837 1.404 . S
C3836 C3839 1.539 . S
C3837 C3833 1.408 . S
C3837 C3836 1.404 . S
C3837 H3849 0.930 . S
C3838 C3834 1.524 . S
C3838 H3850 0.956 . S
C3838 H3851 0.961 . S
C3838 H3852 0.961 . S
C3839 C3836 1.539 . S
C3839 H3853 0.958 . S
C3839 H3854 0.961 . S
C3839 H3855 0.960 . S
H3840 C3824 0.931 . S
H3841 C3829 0.929 . S
H3842 C3830 0.960 . S
H3843 C3830 0.962 . S
H3844 C3830 0.960 . S
H3845 C3831 0.961 . S
H3846 C3831 0.961 . S
H3847 C3831 0.961 . S
H3848 C3832 0.931 . S
H3849 C3837 0.930 . S
H3850 C3838 0.956 . S
H3851 C3838 0.961 . S
H3852 C3838 0.961 . S
H3853 C3839 0.958 . S
H3854 C3839 0.961 . S
H3855 C3839 0.960 . S
C3856 C3857 1.391 . S
C3856 C3858 1.394 . S
C3856 H3872 0.931 . S
C3857 C3856 1.391 . S
C3857 C3861 1.376 . S
C3858 C3856 1.394 . S
C3858 C3859 1.369 . S
C3858 C3862 1.531 . S
C3859 C3858 1.369 . S
C3859 C3860 1.410 . S
C3859 C3867 1.503 . S
C3860 C3859 1.410 . S
C3860 C3861 1.392 . S
C3860 C3863 1.511 . S
C3861 C3857 1.376 . S
C3861 C3860 1.392 . S
C3861 H3873 0.929 . S
C3862 C3858 1.531 . S
C3862 H3874 0.960 . S
C3862 H3875 0.962 . S
C3862 H3876 0.960 . S
C3863 C3860 1.511 . S
C3863 H3877 0.961 . S
C3863 H3878 0.961 . S
C3863 H3879 0.961 . S
C3864 C3865 1.370 . S
C3864 C3866 1.363 . S
C3864 H3880 0.931 . S
C3865 C3864 1.370 . S
C3865 C3869 1.408 . S
C3866 C3864 1.363 . S
C3866 C3867 1.370 . S
C3866 C3870 1.524 . S
C3867 C3859 1.503 . S
C3867 C3866 1.370 . S
C3867 C3868 1.403 . S
C3868 C3867 1.403 . S
C3868 C3869 1.404 . S
C3868 C3871 1.539 . S
C3869 C3865 1.408 . S
C3869 C3868 1.404 . S
C3869 H3881 0.930 . S
C3870 C3866 1.524 . S
C3870 H3882 0.956 . S
C3870 H3883 0.961 . S
C3870 H3884 0.961 . S
C3871 C3868 1.539 . S
C3871 H3885 0.958 . S
C3871 H3886 0.961 . S
C3871 H3887 0.960 . S
H3872 C3856 0.931 . S
H3873 C3861 0.929 . S
H3874 C3862 0.960 . S
H3875 C3862 0.962 . S
H3876 C3862 0.960 . S
H3877 C3863 0.961 . S
H3878 C3863 0.961 . S
H3879 C3863 0.961 . S
H3880 C3864 0.931 . S
H3881 C3869 0.930 . S
H3882 C3870 0.956 . S
H3883 C3870 0.961 . S
H3884 C3870 0.961 . S
H3885 C3871 0.958 . S
H3886 C3871 0.961 . S
H3887 C3871 0.960 . S
C3888 C3889 1.391 . S
C3888 C3890 1.394 . S
C3888 H3904 0.931 . S
C3889 C3888 1.391 . S
C3889 C3893 1.376 . S
C3890 C3888 1.394 . S
C3890 C3891 1.369 . S
C3890 C3894 1.531 . S
C3891 C3890 1.369 . S
C3891 C3892 1.410 . S
C3891 C3899 1.503 . S
C3892 C3891 1.410 . S
C3892 C3893 1.392 . S
C3892 C3895 1.511 . S
C3893 C3889 1.376 . S
C3893 C3892 1.392 . S
C3893 H3905 0.929 . S
C3894 C3890 1.531 . S
C3894 H3906 0.960 . S
C3894 H3907 0.962 . S
C3894 H3908 0.960 . S
C3895 C3892 1.511 . S
C3895 H3909 0.961 . S
C3895 H3910 0.961 . S
C3895 H3911 0.961 . S
C3896 C3897 1.370 . S
C3896 C3898 1.363 . S
C3896 H3912 0.931 . S
C3897 C3896 1.370 . S
C3897 C3901 1.408 . S
C3898 C3896 1.363 . S
C3898 C3899 1.370 . S
C3898 C3902 1.524 . S
C3899 C3891 1.503 . S
C3899 C3898 1.370 . S
C3899 C3900 1.403 . S
C3900 C3899 1.403 . S
C3900 C3901 1.404 . S
C3900 C3903 1.539 . S
C3901 C3897 1.408 . S
C3901 C3900 1.404 . S
C3901 H3913 0.930 . S
C3902 C3898 1.524 . S
C3902 H3914 0.956 . S
C3902 H3915 0.961 . S
C3902 H3916 0.961 . S
C3903 C3900 1.539 . S
C3903 H3917 0.958 . S
C3903 H3918 0.961 . S
C3903 H3919 0.960 . S
H3904 C3888 0.931 . S
H3905 C3893 0.929 . S
H3906 C3894 0.960 . S
H3907 C3894 0.962 . S
H3908 C3894 0.960 . S
H3909 C3895 0.961 . S
H3910 C3895 0.961 . S
H3911 C3895 0.961 . S
H3912 C3896 0.931 . S
H3913 C3901 0.930 . S
H3914 C3902 0.956 . S
H3915 C3902 0.961 . S
H3916 C3902 0.961 . S
H3917 C3903 0.958 . S
H3918 C3903 0.961 . S
H3919 C3903 0.960 . S
C3920 C3921 1.391 . S
C3920 C3922 1.394 . S
C3920 H3936 0.931 . S
C3921 C3920 1.391 . S
C3921 C3925 1.376 . S
C3922 C3920 1.394 . S
C3922 C3923 1.369 . S
C3922 C3926 1.531 . S
C3923 C3922 1.369 . S
C3923 C3924 1.410 . S
C3923 C3931 1.503 . S
C3924 C3923 1.410 . S
C3924 C3925 1.392 . S
C3924 C3927 1.511 . S
C3925 C3921 1.376 . S
C3925 C3924 1.392 . S
C3925 H3937 0.929 . S
C3926 C3922 1.531 . S
C3926 H3938 0.960 . S
C3926 H3939 0.962 . S
C3926 H3940 0.960 . S
C3927 C3924 1.511 . S
C3927 H3941 0.961 . S
C3927 H3942 0.961 . S
C3927 H3943 0.961 . S
C3928 C3929 1.370 . S
C3928 C3930 1.363 . S
C3928 H3944 0.931 . S
C3929 C3928 1.370 . S
C3929 C3933 1.408 . S
C3930 C3928 1.363 . S
C3930 C3931 1.370 . S
C3930 C3934 1.524 . S
C3931 C3923 1.503 . S
C3931 C3930 1.370 . S
C3931 C3932 1.403 . S
C3932 C3931 1.403 . S
C3932 C3933 1.404 . S
C3932 C3935 1.539 . S
C3933 C3929 1.408 . S
C3933 C3932 1.404 . S
C3933 H3945 0.930 . S
C3934 C3930 1.524 . S
C3934 H3946 0.956 . S
C3934 H3947 0.961 . S
C3934 H3948 0.961 . S
C3935 C3932 1.539 . S
C3935 H3949 0.958 . S
C3935 H3950 0.961 . S
C3935 H3951 0.960 . S
H3936 C3920 0.931 . S
H3937 C3925 0.929 . S
H3938 C3926 0.960 . S
H3939 C3926 0.962 . S
H3940 C3926 0.960 . S
H3941 C3927 0.961 . S
H3942 C3927 0.961 . S
H3943 C3927 0.961 . S
H3944 C3928 0.931 . S
H3945 C3933 0.930 . S
H3946 C3934 0.956 . S
H3947 C3934 0.961 . S
H3948 C3934 0.961 . S
H3949 C3935 0.958 . S
H3950 C3935 0.961 . S
H3951 C3935 0.960 . S
C3952 C3953 1.391 . S
C3952 C3954 1.394 . S
C3952 H3968 0.931 . S
C3953 C3952 1.391 . S
C3953 C3957 1.376 . S
C3954 C3952 1.394 . S
C3954 C3955 1.369 . S
C3954 C3958 1.531 . S
C3955 C3954 1.369 . S
C3955 C3956 1.410 . S
C3955 C3963 1.503 . S
C3956 C3955 1.410 . S
C3956 C3957 1.392 . S
C3956 C3959 1.511 . S
C3957 C3953 1.376 . S
C3957 C3956 1.392 . S
C3957 H3969 0.929 . S
C3958 C3954 1.531 . S
C3958 H3970 0.960 . S
C3958 H3971 0.962 . S
C3958 H3972 0.960 . S
C3959 C3956 1.511 . S
C3959 H3973 0.961 . S
C3959 H3974 0.961 . S
C3959 H3975 0.961 . S
C3960 C3961 1.370 . S
C3960 C3962 1.363 . S
C3960 H3976 0.931 . S
C3961 C3960 1.370 . S
C3961 C3965 1.408 . S
C3962 C3960 1.363 . S
C3962 C3963 1.370 . S
C3962 C3966 1.524 . S
C3963 C3955 1.503 . S
C3963 C3962 1.370 . S
C3963 C3964 1.403 . S
C3964 C3963 1.403 . S
C3964 C3965 1.404 . S
C3964 C3967 1.539 . S
C3965 C3961 1.408 . S
C3965 C3964 1.404 . S
C3965 H3977 0.930 . S
C3966 C3962 1.524 . S
C3966 H3978 0.956 . S
C3966 H3979 0.961 . S
C3966 H3980 0.961 . S
C3967 C3964 1.539 . S
C3967 H3981 0.958 . S
C3967 H3982 0.961 . S
C3967 H3983 0.960 . S
H3968 C3952 0.931 . S
H3969 C3957 0.929 . S
H3970 C3958 0.960 . S
H3971 C3958 0.962 . S
H3972 C3958 0.960 . S
H3973 C3959 0.961 . S
H3974 C3959 0.961 . S
H3975 C3959 0.961 . S
H3976 C3960 0.931 . S
H3977 C3965 0.930 . S
H3978 C3966 0.956 . S
H3979 C3966 0.961 . S
H3980 C3966 0.961 . S
H3981 C3967 0.958 . S
H3982 C3967 0.961 . S
H3983 C3967 0.960 . S
C3984 C3985 1.391 . S
C3984 C3986 1.394 . S
C3984 H4000 0.931 . S
C3985 C3984 1.391 . S
C3985 C3989 1.376 . S
C3986 C3984 1.394 . S
C3986 C3987 1.369 . S
C3986 C3990 1.531 . S
C3987 C3986 1.369 . S
C3987 C3988 1.410 . S
C3987 C3995 1.503 . S
C3988 C3987 1.410 . S
C3988 C3989 1.392 . S
C3988 C3991 1.511 . S
C3989 C3985 1.376 . S
C3989 C3988 1.392 . S
C3989 H4001 0.929 . S
C3990 C3986 1.531 . S
C3990 H4002 0.960 . S
C3990 H4003 0.962 . S
C3990 H4004 0.960 . S
C3991 C3988 1.511 . S
C3991 H4005 0.961 . S
C3991 H4006 0.961 . S
C3991 H4007 0.961 . S
C3992 C3993 1.370 . S
C3992 C3994 1.363 . S
C3992 H4008 0.931 . S
C3993 C3992 1.370 . S
C3993 C3997 1.408 . S
C3994 C3992 1.363 . S
C3994 C3995 1.370 . S
C3994 C3998 1.524 . S
C3995 C3987 1.503 . S
C3995 C3994 1.370 . S
C3995 C3996 1.403 . S
C3996 C3995 1.403 . S
C3996 C3997 1.404 . S
C3996 C3999 1.539 . S
C3997 C3993 1.408 . S
C3997 C3996 1.404 . S
C3997 H4009 0.930 . S
C3998 C3994 1.524 . S
C3998 H4010 0.956 . S
C3998 H4011 0.961 . S
C3998 H4012 0.961 . S
C3999 C3996 1.539 . S
C3999 H4013 0.958 . S
C3999 H4014 0.961 . S
C3999 H4015 0.960 . S
H4000 C3984 0.931 . S
H4001 C3989 0.929 . S
H4002 C3990 0.960 . S
H4003 C3990 0.962 . S
H4004 C3990 0.960 . S
H4005 C3991 0.961 . S
H4006 C3991 0.961 . S
H4007 C3991 0.961 . S
H4008 C3992 0.931 . S
H4009 C3997 0.930 . S
H4010 C3998 0.956 . S
H4011 C3998 0.961 . S
H4012 C3998 0.961 . S
H4013 C3999 0.958 . S
H4014 C3999 0.961 . S
H4015 C3999 0.960 . S
C4016 C4017 1.391 . S
C4016 C4018 1.394 . S
C4016 H4032 0.931 . S
C4017 C4016 1.391 . S
C4017 C4021 1.376 . S
C4018 C4016 1.394 . S
C4018 C4019 1.369 . S
C4018 C4022 1.531 . S
C4019 C4018 1.369 . S
C4019 C4020 1.410 . S
C4019 C4027 1.503 . S
C4020 C4019 1.410 . S
C4020 C4021 1.392 . S
C4020 C4023 1.511 . S
C4021 C4017 1.376 . S
C4021 C4020 1.392 . S
C4021 H4033 0.929 . S
C4022 C4018 1.531 . S
C4022 H4034 0.960 . S
C4022 H4035 0.962 . S
C4022 H4036 0.960 . S
C4023 C4020 1.511 . S
C4023 H4037 0.961 . S
C4023 H4038 0.961 . S
C4023 H4039 0.961 . S
C4024 C4025 1.370 . S
C4024 C4026 1.363 . S
C4024 H4040 0.931 . S
C4025 C4024 1.370 . S
C4025 C4029 1.408 . S
C4026 C4024 1.363 . S
C4026 C4027 1.370 . S
C4026 C4030 1.524 . S
C4027 C4019 1.503 . S
C4027 C4026 1.370 . S
C4027 C4028 1.403 . S
C4028 C4027 1.403 . S
C4028 C4029 1.404 . S
C4028 C4031 1.539 . S
C4029 C4025 1.408 . S
C4029 C4028 1.404 . S
C4029 H4041 0.930 . S
C4030 C4026 1.524 . S
C4030 H4042 0.956 . S
C4030 H4043 0.961 . S
C4030 H4044 0.961 . S
C4031 C4028 1.539 . S
C4031 H4045 0.958 . S
C4031 H4046 0.961 . S
C4031 H4047 0.960 . S
H4032 C4016 0.931 . S
H4033 C4021 0.929 . S
H4034 C4022 0.960 . S
H4035 C4022 0.962 . S
H4036 C4022 0.960 . S
H4037 C4023 0.961 . S
H4038 C4023 0.961 . S
H4039 C4023 0.961 . S
H4040 C4024 0.931 . S
H4041 C4029 0.930 . S
H4042 C4030 0.956 . S
H4043 C4030 0.961 . S
H4044 C4030 0.961 . S
H4045 C4031 0.958 . S
H4046 C4031 0.961 . S
H4047 C4031 0.960 . S
C4048 C4049 1.391 . S
C4048 C4050 1.394 . S
C4048 H4064 0.931 . S
C4049 C4048 1.391 . S
C4049 C4053 1.376 . S
C4050 C4048 1.394 . S
C4050 C4051 1.369 . S
C4050 C4054 1.531 . S
C4051 C4050 1.369 . S
C4051 C4052 1.410 . S
C4051 C4059 1.503 . S
C4052 C4051 1.410 . S
C4052 C4053 1.392 . S
C4052 C4055 1.511 . S
C4053 C4049 1.376 . S
C4053 C4052 1.392 . S
C4053 H4065 0.929 . S
C4054 C4050 1.531 . S
C4054 H4066 0.960 . S
C4054 H4067 0.962 . S
C4054 H4068 0.960 . S
C4055 C4052 1.511 . S
C4055 H4069 0.961 . S
C4055 H4070 0.961 . S
C4055 H4071 0.961 . S
C4056 C4057 1.370 . S
C4056 C4058 1.363 . S
C4056 H4072 0.931 . S
C4057 C4056 1.370 . S
C4057 C4061 1.408 . S
C4058 C4056 1.363 . S
C4058 C4059 1.370 . S
C4058 C4062 1.524 . S
C4059 C4051 1.503 . S
C4059 C4058 1.370 . S
C4059 C4060 1.403 . S
C4060 C4059 1.403 . S
C4060 C4061 1.404 . S
C4060 C4063 1.539 . S
C4061 C4057 1.408 . S
C4061 C4060 1.404 . S
C4061 H4073 0.930 . S
C4062 C4058 1.524 . S
C4062 H4074 0.956 . S
C4062 H4075 0.961 . S
C4062 H4076 0.961 . S
C4063 C4060 1.539 . S
C4063 H4077 0.958 . S
C4063 H4078 0.961 . S
C4063 H4079 0.960 . S
H4064 C4048 0.931 . S
H4065 C4053 0.929 . S
H4066 C4054 0.960 . S
H4067 C4054 0.962 . S
H4068 C4054 0.960 . S
H4069 C4055 0.961 . S
H4070 C4055 0.961 . S
H4071 C4055 0.961 . S
H4072 C4056 0.931 . S
H4073 C4061 0.930 . S
H4074 C4062 0.956 . S
H4075 C4062 0.961 . S
H4076 C4062 0.961 . S
H4077 C4063 0.958 . S
H4078 C4063 0.961 . S
H4079 C4063 0.960 . S
C4080 C4081 1.391 . S
C4080 C4082 1.394 . S
C4080 H4096 0.931 . S
C4081 C4080 1.391 . S
C4081 C4085 1.376 . S
C4082 C4080 1.394 . S
C4082 C4083 1.369 . S
C4082 C4086 1.531 . S
C4083 C4082 1.369 . S
C4083 C4084 1.410 . S
C4083 C4091 1.503 . S
C4084 C4083 1.410 . S
C4084 C4085 1.392 . S
C4084 C4087 1.511 . S
C4085 C4081 1.376 . S
C4085 C4084 1.392 . S
C4085 H4097 0.929 . S
C4086 C4082 1.531 . S
C4086 H4098 0.960 . S
C4086 H4099 0.962 . S
C4086 H4100 0.960 . S
C4087 C4084 1.511 . S
C4087 H4101 0.961 . S
C4087 H4102 0.961 . S
C4087 H4103 0.961 . S
C4088 C4089 1.370 . S
C4088 C4090 1.363 . S
C4088 H4104 0.931 . S
C4089 C4088 1.370 . S
C4089 C4093 1.408 . S
C4090 C4088 1.363 . S
C4090 C4091 1.370 . S
C4090 C4094 1.524 . S
C4091 C4083 1.503 . S
C4091 C4090 1.370 . S
C4091 C4092 1.403 . S
C4092 C4091 1.403 . S
C4092 C4093 1.404 . S
C4092 C4095 1.539 . S
C4093 C4089 1.408 . S
C4093 C4092 1.404 . S
C4093 H4105 0.930 . S
C4094 C4090 1.524 . S
C4094 H4106 0.956 . S
C4094 H4107 0.961 . S
C4094 H4108 0.961 . S
C4095 C4092 1.539 . S
C4095 H4109 0.958 . S
C4095 H4110 0.961 . S
C4095 H4111 0.960 . S
H4096 C4080 0.931 . S
H4097 C4085 0.929 . S
H4098 C4086 0.960 . S
H4099 C4086 0.962 . S
H4100 C4086 0.960 . S
H4101 C4087 0.961 . S
H4102 C4087 0.961 . S
H4103 C4087 0.961 . S
H4104 C4088 0.931 . S
H4105 C4093 0.930 . S
H4106 C4094 0.956 . S
H4107 C4094 0.961 . S
H4108 C4094 0.961 . S
H4109 C4095 0.958 . S
H4110 C4095 0.961 . S
H4111 C4095 0.960 . S
C4112 C4113 1.391 . S
C4112 C4114 1.394 . S
C4112 H4128 0.931 . S
C4113 C4112 1.391 . S
C4113 C4117 1.376 . S
C4114 C4112 1.394 . S
C4114 C4115 1.369 . S
C4114 C4118 1.531 . S
C4115 C4114 1.369 . S
C4115 C4116 1.410 . S
C4115 C4123 1.503 . S
C4116 C4115 1.410 . S
C4116 C4117 1.392 . S
C4116 C4119 1.511 . S
C4117 C4113 1.376 . S
C4117 C4116 1.392 . S
C4117 H4129 0.929 . S
C4118 C4114 1.531 . S
C4118 H4130 0.960 . S
C4118 H4131 0.962 . S
C4118 H4132 0.960 . S
C4119 C4116 1.511 . S
C4119 H4133 0.961 . S
C4119 H4134 0.961 . S
C4119 H4135 0.961 . S
C4120 C4121 1.370 . S
C4120 C4122 1.363 . S
C4120 H4136 0.931 . S
C4121 C4120 1.370 . S
C4121 C4125 1.408 . S
C4122 C4120 1.363 . S
C4122 C4123 1.370 . S
C4122 C4126 1.524 . S
C4123 C4115 1.503 . S
C4123 C4122 1.370 . S
C4123 C4124 1.403 . S
C4124 C4123 1.403 . S
C4124 C4125 1.404 . S
C4124 C4127 1.539 . S
C4125 C4121 1.408 . S
C4125 C4124 1.404 . S
C4125 H4137 0.930 . S
C4126 C4122 1.524 . S
C4126 H4138 0.956 . S
C4126 H4139 0.961 . S
C4126 H4140 0.961 . S
C4127 C4124 1.539 . S
C4127 H4141 0.958 . S
C4127 H4142 0.961 . S
C4127 H4143 0.960 . S
H4128 C4112 0.931 . S
H4129 C4117 0.929 . S
H4130 C4118 0.960 . S
H4131 C4118 0.962 . S
H4132 C4118 0.960 . S
H4133 C4119 0.961 . S
H4134 C4119 0.961 . S
H4135 C4119 0.961 . S
H4136 C4120 0.931 . S
H4137 C4125 0.930 . S
H4138 C4126 0.956 . S
H4139 C4126 0.961 . S
H4140 C4126 0.961 . S
H4141 C4127 0.958 . S
H4142 C4127 0.961 . S
H4143 C4127 0.960 . S
C4144 C4145 1.391 . S
C4144 C4146 1.394 . S
C4144 H4160 0.931 . S
C4145 C4144 1.391 . S
C4145 C4149 1.376 . S
C4146 C4144 1.394 . S
C4146 C4147 1.369 . S
C4146 C4150 1.531 . S
C4147 C4146 1.369 . S
C4147 C4148 1.410 . S
C4147 C4155 1.503 . S
C4148 C4147 1.410 . S
C4148 C4149 1.392 . S
C4148 C4151 1.511 . S
C4149 C4145 1.376 . S
C4149 C4148 1.392 . S
C4149 H4161 0.929 . S
C4150 C4146 1.531 . S
C4150 H4162 0.960 . S
C4150 H4163 0.962 . S
C4150 H4164 0.960 . S
C4151 C4148 1.511 . S
C4151 H4165 0.961 . S
C4151 H4166 0.961 . S
C4151 H4167 0.961 . S
C4152 C4153 1.370 . S
C4152 C4154 1.363 . S
C4152 H4168 0.931 . S
C4153 C4152 1.370 . S
C4153 C4157 1.408 . S
C4154 C4152 1.363 . S
C4154 C4155 1.370 . S
C4154 C4158 1.524 . S
C4155 C4147 1.503 . S
C4155 C4154 1.370 . S
C4155 C4156 1.403 . S
C4156 C4155 1.403 . S
C4156 C4157 1.404 . S
C4156 C4159 1.539 . S
C4157 C4153 1.408 . S
C4157 C4156 1.404 . S
C4157 H4169 0.930 . S
C4158 C4154 1.524 . S
C4158 H4170 0.956 . S
C4158 H4171 0.961 . S
C4158 H4172 0.961 . S
C4159 C4156 1.539 . S
C4159 H4173 0.958 . S
C4159 H4174 0.961 . S
C4159 H4175 0.960 . S
H4160 C4144 0.931 . S
H4161 C4149 0.929 . S
H4162 C4150 0.960 . S
H4163 C4150 0.962 . S
H4164 C4150 0.960 . S
H4165 C4151 0.961 . S
H4166 C4151 0.961 . S
H4167 C4151 0.961 . S
H4168 C4152 0.931 . S
H4169 C4157 0.930 . S
H4170 C4158 0.956 . S
H4171 C4158 0.961 . S
H4172 C4158 0.961 . S
H4173 C4159 0.958 . S
H4174 C4159 0.961 . S
H4175 C4159 0.960 . S
C4176 C4177 1.391 . S
C4176 C4178 1.394 . S
C4176 H4192 0.931 . S
C4177 C4176 1.391 . S
C4177 C4181 1.376 . S
C4178 C4176 1.394 . S
C4178 C4179 1.369 . S
C4178 C4182 1.531 . S
C4179 C4178 1.369 . S
C4179 C4180 1.410 . S
C4179 C4187 1.503 . S
C4180 C4179 1.410 . S
C4180 C4181 1.392 . S
C4180 C4183 1.511 . S
C4181 C4177 1.376 . S
C4181 C4180 1.392 . S
C4181 H4193 0.929 . S
C4182 C4178 1.531 . S
C4182 H4194 0.960 . S
C4182 H4195 0.962 . S
C4182 H4196 0.960 . S
C4183 C4180 1.511 . S
C4183 H4197 0.961 . S
C4183 H4198 0.961 . S
C4183 H4199 0.961 . S
C4184 C4185 1.370 . S
C4184 C4186 1.363 . S
C4184 H4200 0.931 . S
C4185 C4184 1.370 . S
C4185 C4189 1.408 . S
C4186 C4184 1.363 . S
C4186 C4187 1.370 . S
C4186 C4190 1.524 . S
C4187 C4179 1.503 . S
C4187 C4186 1.370 . S
C4187 C4188 1.403 . S
C4188 C4187 1.403 . S
C4188 C4189 1.404 . S
C4188 C4191 1.539 . S
C4189 C4185 1.408 . S
C4189 C4188 1.404 . S
C4189 H4201 0.930 . S
C4190 C4186 1.524 . S
C4190 H4202 0.956 . S
C4190 H4203 0.961 . S
C4190 H4204 0.961 . S
C4191 C4188 1.539 . S
C4191 H4205 0.958 . S
C4191 H4206 0.961 . S
C4191 H4207 0.960 . S
H4192 C4176 0.931 . S
H4193 C4181 0.929 . S
H4194 C4182 0.960 . S
H4195 C4182 0.962 . S
H4196 C4182 0.960 . S
H4197 C4183 0.961 . S
H4198 C4183 0.961 . S
H4199 C4183 0.961 . S
H4200 C4184 0.931 . S
H4201 C4189 0.930 . S
H4202 C4190 0.956 . S
H4203 C4190 0.961 . S
H4204 C4190 0.961 . S
H4205 C4191 0.958 . S
H4206 C4191 0.961 . S
H4207 C4191 0.960 . S
C4208 C4209 1.391 . S
C4208 C4210 1.394 . S
C4208 H4224 0.931 . S
C4209 C4208 1.391 . S
C4209 C4213 1.376 . S
C4210 C4208 1.394 . S
C4210 C4211 1.369 . S
C4210 C4214 1.531 . S
C4211 C4210 1.369 . S
C4211 C4212 1.410 . S
C4211 C4219 1.503 . S
C4212 C4211 1.410 . S
C4212 C4213 1.392 . S
C4212 C4215 1.511 . S
C4213 C4209 1.376 . S
C4213 C4212 1.392 . S
C4213 H4225 0.929 . S
C4214 C4210 1.531 . S
C4214 H4226 0.960 . S
C4214 H4227 0.962 . S
C4214 H4228 0.960 . S
C4215 C4212 1.511 . S
C4215 H4229 0.961 . S
C4215 H4230 0.961 . S
C4215 H4231 0.961 . S
C4216 C4217 1.370 . S
C4216 C4218 1.363 . S
C4216 H4232 0.931 . S
C4217 C4216 1.370 . S
C4217 C4221 1.408 . S
C4218 C4216 1.363 . S
C4218 C4219 1.370 . S
C4218 C4222 1.524 . S
C4219 C4211 1.503 . S
C4219 C4218 1.370 . S
C4219 C4220 1.403 . S
C4220 C4219 1.403 . S
C4220 C4221 1.404 . S
C4220 C4223 1.539 . S
C4221 C4217 1.408 . S
C4221 C4220 1.404 . S
C4221 H4233 0.930 . S
C4222 C4218 1.524 . S
C4222 H4234 0.956 . S
C4222 H4235 0.961 . S
C4222 H4236 0.961 . S
C4223 C4220 1.539 . S
C4223 H4237 0.958 . S
C4223 H4238 0.961 . S
C4223 H4239 0.960 . S
H4224 C4208 0.931 . S
H4225 C4213 0.929 . S
H4226 C4214 0.960 . S
H4227 C4214 0.962 . S
H4228 C4214 0.960 . S
H4229 C4215 0.961 . S
H4230 C4215 0.961 . S
H4231 C4215 0.961 . S
H4232 C4216 0.931 . S
H4233 C4221 0.930 . S
H4234 C4222 0.956 . S
H4235 C4222 0.961 . S
H4236 C4222 0.961 . S
H4237 C4223 0.958 . S
H4238 C4223 0.961 . S
H4239 C4223 0.960 . S
C4240 C4241 1.391 . S
C4240 C4242 1.394 . S
C4240 H4256 0.931 . S
C4241 C4240 1.391 . S
C4241 C4245 1.376 . S
C4242 C4240 1.394 . S
C4242 C4243 1.369 . S
C4242 C4246 1.531 . S
C4243 C4242 1.369 . S
C4243 C4244 1.410 . S
C4243 C4251 1.503 . S
C4244 C4243 1.410 . S
C4244 C4245 1.392 . S
C4244 C4247 1.511 . S
C4245 C4241 1.376 . S
C4245 C4244 1.392 . S
C4245 H4257 0.929 . S
C4246 C4242 1.531 . S
C4246 H4258 0.960 . S
C4246 H4259 0.962 . S
C4246 H4260 0.960 . S
C4247 C4244 1.511 . S
C4247 H4261 0.961 . S
C4247 H4262 0.961 . S
C4247 H4263 0.961 . S
C4248 C4249 1.370 . S
C4248 C4250 1.363 . S
C4248 H4264 0.931 . S
C4249 C4248 1.370 . S
C4249 C4253 1.408 . S
C4250 C4248 1.363 . S
C4250 C4251 1.370 . S
C4250 C4254 1.524 . S
C4251 C4243 1.503 . S
C4251 C4250 1.370 . S
C4251 C4252 1.403 . S
C4252 C4251 1.403 . S
C4252 C4253 1.404 . S
C4252 C4255 1.539 . S
C4253 C4249 1.408 . S
C4253 C4252 1.404 . S
C4253 H4265 0.930 . S
C4254 C4250 1.524 . S
C4254 H4266 0.956 . S
C4254 H4267 0.961 . S
C4254 H4268 0.961 . S
C4255 C4252 1.539 . S
C4255 H4269 0.958 . S
C4255 H4270 0.961 . S
C4255 H4271 0.960 . S
H4256 C4240 0.931 . S
H4257 C4245 0.929 . S
H4258 C4246 0.960 . S
H4259 C4246 0.962 . S
H4260 C4246 0.960 . S
H4261 C4247 0.961 . S
H4262 C4247 0.961 . S
H4263 C4247 0.961 . S
H4264 C4248 0.931 . S
H4265 C4253 0.930 . S
H4266 C4254 0.956 . S
H4267 C4254 0.961 . S
H4268 C4254 0.961 . S
H4269 C4255 0.958 . S
H4270 C4255 0.961 . S
H4271 C4255 0.960 . S
C4272 C4273 1.391 . S
C4272 C4274 1.394 . S
C4272 H4288 0.931 . S
C4273 C4272 1.391 . S
C4273 C4277 1.376 . S
C4274 C4272 1.394 . S
C4274 C4275 1.369 . S
C4274 C4278 1.531 . S
C4275 C4274 1.369 . S
C4275 C4276 1.410 . S
C4275 C4283 1.503 . S
C4276 C4275 1.410 . S
C4276 C4277 1.392 . S
C4276 C4279 1.511 . S
C4277 C4273 1.376 . S
C4277 C4276 1.392 . S
C4277 H4289 0.929 . S
C4278 C4274 1.531 . S
C4278 H4290 0.960 . S
C4278 H4291 0.962 . S
C4278 H4292 0.960 . S
C4279 C4276 1.511 . S
C4279 H4293 0.961 . S
C4279 H4294 0.961 . S
C4279 H4295 0.961 . S
C4280 C4281 1.370 . S
C4280 C4282 1.363 . S
C4280 H4296 0.931 . S
C4281 C4280 1.370 . S
C4281 C4285 1.408 . S
C4282 C4280 1.363 . S
C4282 C4283 1.370 . S
C4282 C4286 1.524 . S
C4283 C4275 1.503 . S
C4283 C4282 1.370 . S
C4283 C4284 1.403 . S
C4284 C4283 1.403 . S
C4284 C4285 1.404 . S
C4284 C4287 1.539 . S
C4285 C4281 1.408 . S
C4285 C4284 1.404 . S
C4285 H4297 0.930 . S
C4286 C4282 1.524 . S
C4286 H4298 0.956 . S
C4286 H4299 0.961 . S
C4286 H4300 0.961 . S
C4287 C4284 1.539 . S
C4287 H4301 0.958 . S
C4287 H4302 0.961 . S
C4287 H4303 0.960 . S
H4288 C4272 0.931 . S
H4289 C4277 0.929 . S
H4290 C4278 0.960 . S
H4291 C4278 0.962 . S
H4292 C4278 0.960 . S
H4293 C4279 0.961 . S
H4294 C4279 0.961 . S
H4295 C4279 0.961 . S
H4296 C4280 0.931 . S
H4297 C4285 0.930 . S
H4298 C4286 0.956 . S
H4299 C4286 0.961 . S
H4300 C4286 0.961 . S
H4301 C4287 0.958 . S
H4302 C4287 0.961 . S
H4303 C4287 0.960 . S
C4304 C4305 1.391 . S
C4304 C4306 1.394 . S
C4304 H4320 0.931 . S
C4305 C4304 1.391 . S
C4305 C4309 1.376 . S
C4306 C4304 1.394 . S
C4306 C4307 1.369 . S
C4306 C4310 1.531 . S
C4307 C4306 1.369 . S
C4307 C4308 1.410 . S
C4307 C4315 1.503 . S
C4308 C4307 1.410 . S
C4308 C4309 1.392 . S
C4308 C4311 1.511 . S
C4309 C4305 1.376 . S
C4309 C4308 1.392 . S
C4309 H4321 0.929 . S
C4310 C4306 1.531 . S
C4310 H4322 0.960 . S
C4310 H4323 0.962 . S
C4310 H4324 0.960 . S
C4311 C4308 1.511 . S
C4311 H4325 0.961 . S
C4311 H4326 0.961 . S
C4311 H4327 0.961 . S
C4312 C4313 1.370 . S
C4312 C4314 1.363 . S
C4312 H4328 0.931 . S
C4313 C4312 1.370 . S
C4313 C4317 1.408 . S
C4314 C4312 1.363 . S
C4314 C4315 1.370 . S
C4314 C4318 1.524 . S
C4315 C4307 1.503 . S
C4315 C4314 1.370 . S
C4315 C4316 1.403 . S
C4316 C4315 1.403 . S
C4316 C4317 1.404 . S
C4316 C4319 1.539 . S
C4317 C4313 1.408 . S
C4317 C4316 1.404 . S
C4317 H4329 0.930 . S
C4318 C4314 1.524 . S
C4318 H4330 0.956 . S
C4318 H4331 0.961 . S
C4318 H4332 0.961 . S
C4319 C4316 1.539 . S
C4319 H4333 0.958 . S
C4319 H4334 0.961 . S
C4319 H4335 0.960 . S
H4320 C4304 0.931 . S
H4321 C4309 0.929 . S
H4322 C4310 0.960 . S
H4323 C4310 0.962 . S
H4324 C4310 0.960 . S
H4325 C4311 0.961 . S
H4326 C4311 0.961 . S
H4327 C4311 0.961 . S
H4328 C4312 0.931 . S
H4329 C4317 0.930 . S
H4330 C4318 0.956 . S
H4331 C4318 0.961 . S
H4332 C4318 0.961 . S
H4333 C4319 0.958 . S
H4334 C4319 0.961 . S
H4335 C4319 0.960 . S
C4336 C4337 1.391 . S
C4336 C4338 1.394 . S
C4336 H4352 0.931 . S
C4337 C4336 1.391 . S
C4337 C4341 1.376 . S
C4338 C4336 1.394 . S
C4338 C4339 1.369 . S
C4338 C4342 1.531 . S
C4339 C4338 1.369 . S
C4339 C4340 1.410 . S
C4339 C4347 1.503 . S
C4340 C4339 1.410 . S
C4340 C4341 1.392 . S
C4340 C4343 1.511 . S
C4341 C4337 1.376 . S
C4341 C4340 1.392 . S
C4341 H4353 0.929 . S
C4342 C4338 1.531 . S
C4342 H4354 0.960 . S
C4342 H4355 0.962 . S
C4342 H4356 0.960 . S
C4343 C4340 1.511 . S
C4343 H4357 0.961 . S
C4343 H4358 0.961 . S
C4343 H4359 0.961 . S
C4344 C4345 1.370 . S
C4344 C4346 1.363 . S
C4344 H4360 0.931 . S
C4345 C4344 1.370 . S
C4345 C4349 1.408 . S
C4346 C4344 1.363 . S
C4346 C4347 1.370 . S
C4346 C4350 1.524 . S
C4347 C4339 1.503 . S
C4347 C4346 1.370 . S
C4347 C4348 1.403 . S
C4348 C4347 1.403 . S
C4348 C4349 1.404 . S
C4348 C4351 1.539 . S
C4349 C4345 1.408 . S
C4349 C4348 1.404 . S
C4349 H4361 0.930 . S
C4350 C4346 1.524 . S
C4350 H4362 0.956 . S
C4350 H4363 0.961 . S
C4350 H4364 0.961 . S
C4351 C4348 1.539 . S
C4351 H4365 0.958 . S
C4351 H4366 0.961 . S
C4351 H4367 0.960 . S
H4352 C4336 0.931 . S
H4353 C4341 0.929 . S
H4354 C4342 0.960 . S
H4355 C4342 0.962 . S
H4356 C4342 0.960 . S
H4357 C4343 0.961 . S
H4358 C4343 0.961 . S
H4359 C4343 0.961 . S
H4360 C4344 0.931 . S
H4361 C4349 0.930 . S
H4362 C4350 0.956 . S
H4363 C4350 0.961 . S
H4364 C4350 0.961 . S
H4365 C4351 0.958 . S
H4366 C4351 0.961 . S
H4367 C4351 0.960 . S
C4368 C4369 1.391 . S
C4368 C4370 1.394 . S
C4368 H4384 0.931 . S
C4369 C4368 1.391 . S
C4369 C4373 1.376 . S
C4370 C4368 1.394 . S
C4370 C4371 1.369 . S
C4370 C4374 1.531 . S
C4371 C4370 1.369 . S
C4371 C4372 1.410 . S
C4371 C4379 1.503 . S
C4372 C4371 1.410 . S
C4372 C4373 1.392 . S
C4372 C4375 1.511 . S
C4373 C4369 1.376 . S
C4373 C4372 1.392 . S
C4373 H4385 0.929 . S
C4374 C4370 1.531 . S
C4374 H4386 0.960 . S
C4374 H4387 0.962 . S
C4374 H4388 0.960 . S
C4375 C4372 1.511 . S
C4375 H4389 0.961 . S
C4375 H4390 0.961 . S
C4375 H4391 0.961 . S
C4376 C4377 1.370 . S
C4376 C4378 1.363 . S
C4376 H4392 0.931 . S
C4377 C4376 1.370 . S
C4377 C4381 1.408 . S
C4378 C4376 1.363 . S
C4378 C4379 1.370 . S
C4378 C4382 1.524 . S
C4379 C4371 1.503 . S
C4379 C4378 1.370 . S
C4379 C4380 1.403 . S
C4380 C4379 1.403 . S
C4380 C4381 1.404 . S
C4380 C4383 1.539 . S
C4381 C4377 1.408 . S
C4381 C4380 1.404 . S
C4381 H4393 0.930 . S
C4382 C4378 1.524 . S
C4382 H4394 0.956 . S
C4382 H4395 0.961 . S
C4382 H4396 0.961 . S
C4383 C4380 1.539 . S
C4383 H4397 0.958 . S
C4383 H4398 0.961 . S
C4383 H4399 0.960 . S
H4384 C4368 0.931 . S
H4385 C4373 0.929 . S
H4386 C4374 0.960 . S
H4387 C4374 0.962 . S
H4388 C4374 0.960 . S
H4389 C4375 0.961 . S
H4390 C4375 0.961 . S
H4391 C4375 0.961 . S
H4392 C4376 0.931 . S
H4393 C4381 0.930 . S
H4394 C4382 0.956 . S
H4395 C4382 0.961 . S
H4396 C4382 0.961 . S
H4397 C4383 0.958 . S
H4398 C4383 0.961 . S
H4399 C4383 0.960 . S
C4400 C4401 1.391 . S
C4400 C4402 1.394 . S
C4400 H4416 0.931 . S
C4401 C4400 1.391 . S
C4401 C4405 1.376 . S
C4402 C4400 1.394 . S
C4402 C4403 1.369 . S
C4402 C4406 1.531 . S
C4403 C4402 1.369 . S
C4403 C4404 1.410 . S
C4403 C4411 1.503 . S
C4404 C4403 1.410 . S
C4404 C4405 1.392 . S
C4404 C4407 1.511 . S
C4405 C4401 1.376 . S
C4405 C4404 1.392 . S
C4405 H4417 0.929 . S
C4406 C4402 1.531 . S
C4406 H4418 0.960 . S
C4406 H4419 0.962 . S
C4406 H4420 0.960 . S
C4407 C4404 1.511 . S
C4407 H4421 0.961 . S
C4407 H4422 0.961 . S
C4407 H4423 0.961 . S
C4408 C4409 1.370 . S
C4408 C4410 1.363 . S
C4408 H4424 0.931 . S
C4409 C4408 1.370 . S
C4409 C4413 1.408 . S
C4410 C4408 1.363 . S
C4410 C4411 1.370 . S
C4410 C4414 1.524 . S
C4411 C4403 1.503 . S
C4411 C4410 1.370 . S
C4411 C4412 1.403 . S
C4412 C4411 1.403 . S
C4412 C4413 1.404 . S
C4412 C4415 1.539 . S
C4413 C4409 1.408 . S
C4413 C4412 1.404 . S
C4413 H4425 0.930 . S
C4414 C4410 1.524 . S
C4414 H4426 0.956 . S
C4414 H4427 0.961 . S
C4414 H4428 0.961 . S
C4415 C4412 1.539 . S
C4415 H4429 0.958 . S
C4415 H4430 0.961 . S
C4415 H4431 0.960 . S
H4416 C4400 0.931 . S
H4417 C4405 0.929 . S
H4418 C4406 0.960 . S
H4419 C4406 0.962 . S
H4420 C4406 0.960 . S
H4421 C4407 0.961 . S
H4422 C4407 0.961 . S
H4423 C4407 0.961 . S
H4424 C4408 0.931 . S
H4425 C4413 0.930 . S
H4426 C4414 0.956 . S
H4427 C4414 0.961 . S
H4428 C4414 0.961 . S
H4429 C4415 0.958 . S
H4430 C4415 0.961 . S
H4431 C4415 0.960 . S
C4432 C4433 1.391 . S
C4432 C4434 1.394 . S
C4432 H4448 0.931 . S
C4433 C4432 1.391 . S
C4433 C4437 1.376 . S
C4434 C4432 1.394 . S
C4434 C4435 1.369 . S
C4434 C4438 1.531 . S
C4435 C4434 1.369 . S
C4435 C4436 1.410 . S
C4435 C4443 1.503 . S
C4436 C4435 1.410 . S
C4436 C4437 1.392 . S
C4436 C4439 1.511 . S
C4437 C4433 1.376 . S
C4437 C4436 1.392 . S
C4437 H4449 0.929 . S
C4438 C4434 1.531 . S
C4438 H4450 0.960 . S
C4438 H4451 0.962 . S
C4438 H4452 0.960 . S
C4439 C4436 1.511 . S
C4439 H4453 0.961 . S
C4439 H4454 0.961 . S
C4439 H4455 0.961 . S
C4440 C4441 1.370 . S
C4440 C4442 1.363 . S
C4440 H4456 0.931 . S
C4441 C4440 1.370 . S
C4441 C4445 1.408 . S
C4442 C4440 1.363 . S
C4442 C4443 1.370 . S
C4442 C4446 1.524 . S
C4443 C4435 1.503 . S
C4443 C4442 1.370 . S
C4443 C4444 1.403 . S
C4444 C4443 1.403 . S
C4444 C4445 1.404 . S
C4444 C4447 1.539 . S
C4445 C4441 1.408 . S
C4445 C4444 1.404 . S
C4445 H4457 0.930 . S
C4446 C4442 1.524 . S
C4446 H4458 0.956 . S
C4446 H4459 0.961 . S
C4446 H4460 0.961 . S
C4447 C4444 1.539 . S
C4447 H4461 0.958 . S
C4447 H4462 0.961 . S
C4447 H4463 0.960 . S
H4448 C4432 0.931 . S
H4449 C4437 0.929 . S
H4450 C4438 0.960 . S
H4451 C4438 0.962 . S
H4452 C4438 0.960 . S
H4453 C4439 0.961 . S
H4454 C4439 0.961 . S
H4455 C4439 0.961 . S
H4456 C4440 0.931 . S
H4457 C4445 0.930 . S
H4458 C4446 0.956 . S
H4459 C4446 0.961 . S
H4460 C4446 0.961 . S
H4461 C4447 0.958 . S
H4462 C4447 0.961 . S
H4463 C4447 0.960 . S
C4464 C4465 1.391 . S
C4464 C4466 1.394 . S
C4464 H4480 0.931 . S
C4465 C4464 1.391 . S
C4465 C4469 1.376 . S
C4466 C4464 1.394 . S
C4466 C4467 1.369 . S
C4466 C4470 1.531 . S
C4467 C4466 1.369 . S
C4467 C4468 1.410 . S
C4467 C4475 1.503 . S
C4468 C4467 1.410 . S
C4468 C4469 1.392 . S
C4468 C4471 1.511 . S
C4469 C4465 1.376 . S
C4469 C4468 1.392 . S
C4469 H4481 0.929 . S
C4470 C4466 1.531 . S
C4470 H4482 0.960 . S
C4470 H4483 0.962 . S
C4470 H4484 0.960 . S
C4471 C4468 1.511 . S
C4471 H4485 0.961 . S
C4471 H4486 0.961 . S
C4471 H4487 0.961 . S
C4472 C4473 1.370 . S
C4472 C4474 1.363 . S
C4472 H4488 0.931 . S
C4473 C4472 1.370 . S
C4473 C4477 1.408 . S
C4474 C4472 1.363 . S
C4474 C4475 1.370 . S
C4474 C4478 1.524 . S
C4475 C4467 1.503 . S
C4475 C4474 1.370 . S
C4475 C4476 1.403 . S
C4476 C4475 1.403 . S
C4476 C4477 1.404 . S
C4476 C4479 1.539 . S
C4477 C4473 1.408 . S
C4477 C4476 1.404 . S
C4477 H4489 0.930 . S
C4478 C4474 1.524 . S
C4478 H4490 0.956 . S
C4478 H4491 0.961 . S
C4478 H4492 0.961 . S
C4479 C4476 1.539 . S
C4479 H4493 0.958 . S
C4479 H4494 0.961 . S
C4479 H4495 0.960 . S
H4480 C4464 0.931 . S
H4481 C4469 0.929 . S
H4482 C4470 0.960 . S
H4483 C4470 0.962 . S
H4484 C4470 0.960 . S
H4485 C4471 0.961 . S
H4486 C4471 0.961 . S
H4487 C4471 0.961 . S
H4488 C4472 0.931 . S
H4489 C4477 0.930 . S
H4490 C4478 0.956 . S
H4491 C4478 0.961 . S
H4492 C4478 0.961 . S
H4493 C4479 0.958 . S
H4494 C4479 0.961 . S
H4495 C4479 0.960 . S
C4496 C4497 1.391 . S
C4496 C4498 1.394 . S
C4496 H4512 0.931 . S
C4497 C4496 1.391 . S
C4497 C4501 1.376 . S
C4498 C4496 1.394 . S
C4498 C4499 1.369 . S
C4498 C4502 1.531 . S
C4499 C4498 1.369 . S
C4499 C4500 1.410 . S
C4499 C4507 1.503 . S
C4500 C4499 1.410 . S
C4500 C4501 1.392 . S
C4500 C4503 1.511 . S
C4501 C4497 1.376 . S
C4501 C4500 1.392 . S
C4501 H4513 0.929 . S
C4502 C4498 1.531 . S
C4502 H4514 0.960 . S
C4502 H4515 0.962 . S
C4502 H4516 0.960 . S
C4503 C4500 1.511 . S
C4503 H4517 0.961 . S
C4503 H4518 0.961 . S
C4503 H4519 0.961 . S
C4504 C4505 1.370 . S
C4504 C4506 1.363 . S
C4504 H4520 0.931 . S
C4505 C4504 1.370 . S
C4505 C4509 1.408 . S
C4506 C4504 1.363 . S
C4506 C4507 1.370 . S
C4506 C4510 1.524 . S
C4507 C4499 1.503 . S
C4507 C4506 1.370 . S
C4507 C4508 1.403 . S
C4508 C4507 1.403 . S
C4508 C4509 1.404 . S
C4508 C4511 1.539 . S
C4509 C4505 1.408 . S
C4509 C4508 1.404 . S
C4509 H4521 0.930 . S
C4510 C4506 1.524 . S
C4510 H4522 0.956 . S
C4510 H4523 0.961 . S
C4510 H4524 0.961 . S
C4511 C4508 1.539 . S
C4511 H4525 0.958 . S
C4511 H4526 0.961 . S
C4511 H4527 0.960 . S
H4512 C4496 0.931 . S
H4513 C4501 0.929 . S
H4514 C4502 0.960 . S
H4515 C4502 0.962 . S
H4516 C4502 0.960 . S
H4517 C4503 0.961 . S
H4518 C4503 0.961 . S
H4519 C4503 0.961 . S
H4520 C4504 0.931 . S
H4521 C4509 0.930 . S
H4522 C4510 0.956 . S
H4523 C4510 0.961 . S
H4524 C4510 0.961 . S
H4525 C4511 0.958 . S
H4526 C4511 0.961 . S
H4527 C4511 0.960 . S
C4528 C4529 1.391 . S
C4528 C4530 1.394 . S
C4528 H4544 0.931 . S
C4529 C4528 1.391 . S
C4529 C4533 1.376 . S
C4530 C4528 1.394 . S
C4530 C4531 1.369 . S
C4530 C4534 1.531 . S
C4531 C4530 1.369 . S
C4531 C4532 1.410 . S
C4531 C4539 1.503 . S
C4532 C4531 1.410 . S
C4532 C4533 1.392 . S
C4532 C4535 1.511 . S
C4533 C4529 1.376 . S
C4533 C4532 1.392 . S
C4533 H4545 0.929 . S
C4534 C4530 1.531 . S
C4534 H4546 0.960 . S
C4534 H4547 0.962 . S
C4534 H4548 0.960 . S
C4535 C4532 1.511 . S
C4535 H4549 0.961 . S
C4535 H4550 0.961 . S
C4535 H4551 0.961 . S
C4536 C4537 1.370 . S
C4536 C4538 1.363 . S
C4536 H4552 0.931 . S
C4537 C4536 1.370 . S
C4537 C4541 1.408 . S
C4538 C4536 1.363 . S
C4538 C4539 1.370 . S
C4538 C4542 1.524 . S
C4539 C4531 1.503 . S
C4539 C4538 1.370 . S
C4539 C4540 1.403 . S
C4540 C4539 1.403 . S
C4540 C4541 1.404 . S
C4540 C4543 1.539 . S
C4541 C4537 1.408 . S
C4541 C4540 1.404 . S
C4541 H4553 0.930 . S
C4542 C4538 1.524 . S
C4542 H4554 0.956 . S
C4542 H4555 0.961 . S
C4542 H4556 0.961 . S
C4543 C4540 1.539 . S
C4543 H4557 0.958 . S
C4543 H4558 0.961 . S
C4543 H4559 0.960 . S
H4544 C4528 0.931 . S
H4545 C4533 0.929 . S
H4546 C4534 0.960 . S
H4547 C4534 0.962 . S
H4548 C4534 0.960 . S
H4549 C4535 0.961 . S
H4550 C4535 0.961 . S
H4551 C4535 0.961 . S
H4552 C4536 0.931 . S
H4553 C4541 0.930 . S
H4554 C4542 0.956 . S
H4555 C4542 0.961 . S
H4556 C4542 0.961 . S
H4557 C4543 0.958 . S
H4558 C4543 0.961 . S
H4559 C4543 0.960 . S
C4560 C4561 1.391 . S
C4560 C4562 1.394 . S
C4560 H4576 0.931 . S
C4561 C4560 1.391 . S
C4561 C4565 1.376 . S
C4562 C4560 1.394 . S
C4562 C4563 1.369 . S
C4562 C4566 1.531 . S
C4563 C4562 1.369 . S
C4563 C4564 1.410 . S
C4563 C4571 1.503 . S
C4564 C4563 1.410 . S
C4564 C4565 1.392 . S
C4564 C4567 1.511 . S
C4565 C4561 1.376 . S
C4565 C4564 1.392 . S
C4565 H4577 0.929 . S
C4566 C4562 1.531 . S
C4566 H4578 0.960 . S
C4566 H4579 0.962 . S
C4566 H4580 0.960 . S
C4567 C4564 1.511 . S
C4567 H4581 0.961 . S
C4567 H4582 0.961 . S
C4567 H4583 0.961 . S
C4568 C4569 1.370 . S
C4568 C4570 1.363 . S
C4568 H4584 0.931 . S
C4569 C4568 1.370 . S
C4569 C4573 1.408 . S
C4570 C4568 1.363 . S
C4570 C4571 1.370 . S
C4570 C4574 1.524 . S
C4571 C4563 1.503 . S
C4571 C4570 1.370 . S
C4571 C4572 1.403 . S
C4572 C4571 1.403 . S
C4572 C4573 1.404 . S
C4572 C4575 1.539 . S
C4573 C4569 1.408 . S
C4573 C4572 1.404 . S
C4573 H4585 0.930 . S
C4574 C4570 1.524 . S
C4574 H4586 0.956 . S
C4574 H4587 0.961 . S
C4574 H4588 0.961 . S
C4575 C4572 1.539 . S
C4575 H4589 0.958 . S
C4575 H4590 0.961 . S
C4575 H4591 0.960 . S
H4576 C4560 0.931 . S
H4577 C4565 0.929 . S
H4578 C4566 0.960 . S
H4579 C4566 0.962 . S
H4580 C4566 0.960 . S
H4581 C4567 0.961 . S
H4582 C4567 0.961 . S
H4583 C4567 0.961 . S
H4584 C4568 0.931 . S
H4585 C4573 0.930 . S
H4586 C4574 0.956 . S
H4587 C4574 0.961 . S
H4588 C4574 0.961 . S
H4589 C4575 0.958 . S
H4590 C4575 0.961 . S
H4591 C4575 0.960 . S
C4592 C4593 1.391 . S
C4592 C4594 1.394 . S
C4592 H4608 0.931 . S
C4593 C4592 1.391 . S
C4593 C4597 1.376 . S
C4594 C4592 1.394 . S
C4594 C4595 1.369 . S
C4594 C4598 1.531 . S
C4595 C4594 1.369 . S
C4595 C4596 1.410 . S
C4595 C4603 1.503 . S
C4596 C4595 1.410 . S
C4596 C4597 1.392 . S
C4596 C4599 1.511 . S
C4597 C4593 1.376 . S
C4597 C4596 1.392 . S
C4597 H4609 0.929 . S
C4598 C4594 1.531 . S
C4598 H4610 0.960 . S
C4598 H4611 0.962 . S
C4598 H4612 0.960 . S
C4599 C4596 1.511 . S
C4599 H4613 0.961 . S
C4599 H4614 0.961 . S
C4599 H4615 0.961 . S
C4600 C4601 1.370 . S
C4600 C4602 1.363 . S
C4600 H4616 0.931 . S
C4601 C4600 1.370 . S
C4601 C4605 1.408 . S
C4602 C4600 1.363 . S
C4602 C4603 1.370 . S
C4602 C4606 1.524 . S
C4603 C4595 1.503 . S
C4603 C4602 1.370 . S
C4603 C4604 1.403 . S
C4604 C4603 1.403 . S
C4604 C4605 1.404 . S
C4604 C4607 1.539 . S
C4605 C4601 1.408 . S
C4605 C4604 1.404 . S
C4605 H4617 0.930 . S
C4606 C4602 1.524 . S
C4606 H4618 0.956 . S
C4606 H4619 0.961 . S
C4606 H4620 0.961 . S
C4607 C4604 1.539 . S
C4607 H4621 0.958 . S
C4607 H4622 0.961 . S
C4607 H4623 0.960 . S
H4608 C4592 0.931 . S
H4609 C4597 0.929 . S
H4610 C4598 0.960 . S
H4611 C4598 0.962 . S
H4612 C4598 0.960 . S
H4613 C4599 0.961 . S
H4614 C4599 0.961 . S
H4615 C4599 0.961 . S
H4616 C4600 0.931 . S
H4617 C4605 0.930 . S
H4618 C4606 0.956 . S
H4619 C4606 0.961 . S
H4620 C4606 0.961 . S
H4621 C4607 0.958 . S
H4622 C4607 0.961 . S
H4623 C4607 0.960 . S
C4624 C4625 1.391 . S
C4624 C4626 1.394 . S
C4624 H4640 0.931 . S
C4625 C4624 1.391 . S
C4625 C4629 1.376 . S
C4626 C4624 1.394 . S
C4626 C4627 1.369 . S
C4626 C4630 1.531 . S
C4627 C4626 1.369 . S
C4627 C4628 1.410 . S
C4627 C4635 1.503 . S
C4628 C4627 1.410 . S
C4628 C4629 1.392 . S
C4628 C4631 1.511 . S
C4629 C4625 1.376 . S
C4629 C4628 1.392 . S
C4629 H4641 0.929 . S
C4630 C4626 1.531 . S
C4630 H4642 0.960 . S
C4630 H4643 0.962 . S
C4630 H4644 0.960 . S
C4631 C4628 1.511 . S
C4631 H4645 0.961 . S
C4631 H4646 0.961 . S
C4631 H4647 0.961 . S
C4632 C4633 1.370 . S
C4632 C4634 1.363 . S
C4632 H4648 0.931 . S
C4633 C4632 1.370 . S
C4633 C4637 1.408 . S
C4634 C4632 1.363 . S
C4634 C4635 1.370 . S
C4634 C4638 1.524 . S
C4635 C4627 1.503 . S
C4635 C4634 1.370 . S
C4635 C4636 1.403 . S
C4636 C4635 1.403 . S
C4636 C4637 1.404 . S
C4636 C4639 1.539 . S
C4637 C4633 1.408 . S
C4637 C4636 1.404 . S
C4637 H4649 0.930 . S
C4638 C4634 1.524 . S
C4638 H4650 0.956 . S
C4638 H4651 0.961 . S
C4638 H4652 0.961 . S
C4639 C4636 1.539 . S
C4639 H4653 0.958 . S
C4639 H4654 0.961 . S
C4639 H4655 0.960 . S
H4640 C4624 0.931 . S
H4641 C4629 0.929 . S
H4642 C4630 0.960 . S
H4643 C4630 0.962 . S
H4644 C4630 0.960 . S
H4645 C4631 0.961 . S
H4646 C4631 0.961 . S
H4647 C4631 0.961 . S
H4648 C4632 0.931 . S
H4649 C4637 0.930 . S
H4650 C4638 0.956 . S
H4651 C4638 0.961 . S
H4652 C4638 0.961 . S
H4653 C4639 0.958 . S
H4654 C4639 0.961 . S
H4655 C4639 0.960 . S
C4656 C4657 1.391 . S
C4656 C4658 1.394 . S
C4656 H4672 0.931 . S
C4657 C4656 1.391 . S
C4657 C4661 1.376 . S
C4658 C4656 1.394 . S
C4658 C4659 1.369 . S
C4658 C4662 1.531 . S
C4659 C4658 1.369 . S
C4659 C4660 1.410 . S
C4659 C4667 1.503 . S
C4660 C4659 1.410 . S
C4660 C4661 1.392 . S
C4660 C4663 1.511 . S
C4661 C4657 1.376 . S
C4661 C4660 1.392 . S
C4661 H4673 0.929 . S
C4662 C4658 1.531 . S
C4662 H4674 0.960 . S
C4662 H4675 0.962 . S
C4662 H4676 0.960 . S
C4663 C4660 1.511 . S
C4663 H4677 0.961 . S
C4663 H4678 0.961 . S
C4663 H4679 0.961 . S
C4664 C4665 1.370 . S
C4664 C4666 1.363 . S
C4664 H4680 0.931 . S
C4665 C4664 1.370 . S
C4665 C4669 1.408 . S
C4666 C4664 1.363 . S
C4666 C4667 1.370 . S
C4666 C4670 1.524 . S
C4667 C4659 1.503 . S
C4667 C4666 1.370 . S
C4667 C4668 1.403 . S
C4668 C4667 1.403 . S
C4668 C4669 1.404 . S
C4668 C4671 1.539 . S
C4669 C4665 1.408 . S
C4669 C4668 1.404 . S
C4669 H4681 0.930 . S
C4670 C4666 1.524 . S
C4670 H4682 0.956 . S
C4670 H4683 0.961 . S
C4670 H4684 0.961 . S
C4671 C4668 1.539 . S
C4671 H4685 0.958 . S
C4671 H4686 0.961 . S
C4671 H4687 0.960 . S
H4672 C4656 0.931 . S
H4673 C4661 0.929 . S
H4674 C4662 0.960 . S
H4675 C4662 0.962 . S
H4676 C4662 0.960 . S
H4677 C4663 0.961 . S
H4678 C4663 0.961 . S
H4679 C4663 0.961 . S
H4680 C4664 0.931 . S
H4681 C4669 0.930 . S
H4682 C4670 0.956 . S
H4683 C4670 0.961 . S
H4684 C4670 0.961 . S
H4685 C4671 0.958 . S
H4686 C4671 0.961 . S
H4687 C4671 0.960 . S
C4688 C4689 1.391 . S
C4688 C4690 1.394 . S
C4688 H4704 0.931 . S
C4689 C4688 1.391 . S
C4689 C4693 1.376 . S
C4690 C4688 1.394 . S
C4690 C4691 1.369 . S
C4690 C4694 1.531 . S
C4691 C4690 1.369 . S
C4691 C4692 1.410 . S
C4691 C4699 1.503 . S
C4692 C4691 1.410 . S
C4692 C4693 1.392 . S
C4692 C4695 1.511 . S
C4693 C4689 1.376 . S
C4693 C4692 1.392 . S
C4693 H4705 0.929 . S
C4694 C4690 1.531 . S
C4694 H4706 0.960 . S
C4694 H4707 0.962 . S
C4694 H4708 0.960 . S
C4695 C4692 1.511 . S
C4695 H4709 0.961 . S
C4695 H4710 0.961 . S
C4695 H4711 0.961 . S
C4696 C4697 1.370 . S
C4696 C4698 1.363 . S
C4696 H4712 0.931 . S
C4697 C4696 1.370 . S
C4697 C4701 1.408 . S
C4698 C4696 1.363 . S
C4698 C4699 1.370 . S
C4698 C4702 1.524 . S
C4699 C4691 1.503 . S
C4699 C4698 1.370 . S
C4699 C4700 1.403 . S
C4700 C4699 1.403 . S
C4700 C4701 1.404 . S
C4700 C4703 1.539 . S
C4701 C4697 1.408 . S
C4701 C4700 1.404 . S
C4701 H4713 0.930 . S
C4702 C4698 1.524 . S
C4702 H4714 0.956 . S
C4702 H4715 0.961 . S
C4702 H4716 0.961 . S
C4703 C4700 1.539 . S
C4703 H4717 0.958 . S
C4703 H4718 0.961 . S
C4703 H4719 0.960 . S
H4704 C4688 0.931 . S
H4705 C4693 0.929 . S
H4706 C4694 0.960 . S
H4707 C4694 0.962 . S
H4708 C4694 0.960 . S
H4709 C4695 0.961 . S
H4710 C4695 0.961 . S
H4711 C4695 0.961 . S
H4712 C4696 0.931 . S
H4713 C4701 0.930 . S
H4714 C4702 0.956 . S
H4715 C4702 0.961 . S
H4716 C4702 0.961 . S
H4717 C4703 0.958 . S
H4718 C4703 0.961 . S
H4719 C4703 0.960 . S
C4720 C4721 1.391 . S
C4720 C4722 1.394 . S
C4720 H4736 0.931 . S
C4721 C4720 1.391 . S
C4721 C4725 1.376 . S
C4722 C4720 1.394 . S
C4722 C4723 1.369 . S
C4722 C4726 1.531 . S
C4723 C4722 1.369 . S
C4723 C4724 1.410 . S
C4723 C4731 1.503 . S
C4724 C4723 1.410 . S
C4724 C4725 1.392 . S
C4724 C4727 1.511 . S
C4725 C4721 1.376 . S
C4725 C4724 1.392 . S
C4725 H4737 0.929 . S
C4726 C4722 1.531 . S
C4726 H4738 0.960 . S
C4726 H4739 0.962 . S
C4726 H4740 0.960 . S
C4727 C4724 1.511 . S
C4727 H4741 0.961 . S
C4727 H4742 0.961 . S
C4727 H4743 0.961 . S
C4728 C4729 1.370 . S
C4728 C4730 1.363 . S
C4728 H4744 0.931 . S
C4729 C4728 1.370 . S
C4729 C4733 1.408 . S
C4730 C4728 1.363 . S
C4730 C4731 1.370 . S
C4730 C4734 1.524 . S
C4731 C4723 1.503 . S
C4731 C4730 1.370 . S
C4731 C4732 1.403 . S
C4732 C4731 1.403 . S
C4732 C4733 1.404 . S
C4732 C4735 1.539 . S
C4733 C4729 1.408 . S
C4733 C4732 1.404 . S
C4733 H4745 0.930 . S
C4734 C4730 1.524 . S
C4734 H4746 0.956 . S
C4734 H4747 0.961 . S
C4734 H4748 0.961 . S
C4735 C4732 1.539 . S
C4735 H4749 0.958 . S
C4735 H4750 0.961 . S
C4735 H4751 0.960 . S
H4736 C4720 0.931 . S
H4737 C4725 0.929 . S
H4738 C4726 0.960 . S
H4739 C4726 0.962 . S
H4740 C4726 0.960 . S
H4741 C4727 0.961 . S
H4742 C4727 0.961 . S
H4743 C4727 0.961 . S
H4744 C4728 0.931 . S
H4745 C4733 0.930 . S
H4746 C4734 0.956 . S
H4747 C4734 0.961 . S
H4748 C4734 0.961 . S
H4749 C4735 0.958 . S
H4750 C4735 0.961 . S
H4751 C4735 0.960 . S
C4752 C4753 1.391 . S
C4752 C4754 1.394 . S
C4752 H4768 0.931 . S
C4753 C4752 1.391 . S
C4753 C4757 1.376 . S
C4754 C4752 1.394 . S
C4754 C4755 1.369 . S
C4754 C4758 1.531 . S
C4755 C4754 1.369 . S
C4755 C4756 1.410 . S
C4755 C4763 1.503 . S
C4756 C4755 1.410 . S
C4756 C4757 1.392 . S
C4756 C4759 1.511 . S
C4757 C4753 1.376 . S
C4757 C4756 1.392 . S
C4757 H4769 0.929 . S
C4758 C4754 1.531 . S
C4758 H4770 0.960 . S
C4758 H4771 0.962 . S
C4758 H4772 0.960 . S
C4759 C4756 1.511 . S
C4759 H4773 0.961 . S
C4759 H4774 0.961 . S
C4759 H4775 0.961 . S
C4760 C4761 1.370 . S
C4760 C4762 1.363 . S
C4760 H4776 0.931 . S
C4761 C4760 1.370 . S
C4761 C4765 1.408 . S
C4762 C4760 1.363 . S
C4762 C4763 1.370 . S
C4762 C4766 1.524 . S
C4763 C4755 1.503 . S
C4763 C4762 1.370 . S
C4763 C4764 1.403 . S
C4764 C4763 1.403 . S
C4764 C4765 1.404 . S
C4764 C4767 1.539 . S
C4765 C4761 1.408 . S
C4765 C4764 1.404 . S
C4765 H4777 0.930 . S
C4766 C4762 1.524 . S
C4766 H4778 0.956 . S
C4766 H4779 0.961 . S
C4766 H4780 0.961 . S
C4767 C4764 1.539 . S
C4767 H4781 0.958 . S
C4767 H4782 0.961 . S
C4767 H4783 0.960 . S
H4768 C4752 0.931 . S
H4769 C4757 0.929 . S
H4770 C4758 0.960 . S
H4771 C4758 0.962 . S
H4772 C4758 0.960 . S
H4773 C4759 0.961 . S
H4774 C4759 0.961 . S
H4775 C4759 0.961 . S
H4776 C4760 0.931 . S
H4777 C4765 0.930 . S
H4778 C4766 0.956 . S
H4779 C4766 0.961 . S
H4780 C4766 0.961 . S
H4781 C4767 0.958 . S
H4782 C4767 0.961 . S
H4783 C4767 0.960 . S
C1721 C1294 1.510 . S
C1713 C21 1.529 . S
C1753 C1306 1.416 . S
C1745 C42 1.498 . S
C1777 C82 1.544 . S
C1785 C1330 1.471 . S
C1817 C1341 1.474 . S
C1809 C135 1.530 . S
C1841 C175 1.494 . S
C1849 C1348 1.409 . S
C1873 C221 1.513 . S
C1881 C1287 1.510 . S
C1905 C255 1.534 . S
C1913 C1314 1.436 . S
C1945 C1323 1.508 . S
C1937 C301 1.577 . S
C1977 C1360 1.468 . S
C1969 C15 1.540 . S
C2001 C55 1.491 . S
C2009 C1386 1.432 . S
C2033 C101 1.533 . S
C2041 C1402 1.518 . S
C2073 C1422 1.476 . S
C2065 C141 1.548 . S
C2097 C162 1.461 . S
C2105 C1431 1.458 . S
C2137 C1456 1.492 . S
C2129 C215 1.530 . S
C2161 C261 1.539 . S
C2169 C1476 1.462 . S
C2201 C1492 1.473 . S
C2193 C282 1.540 . S
C2225 C2 1.497 . S
C2233 C1414 1.501 . S
C2257 C181 1.453 . S
C2265 C1449 1.436 . S
C2297 C1468 1.518 . S
C2289 C202 1.517 . S
C2321 C242 1.550 . S
C2329 C1485 1.466 . S
C2361 C1438 1.458 . S
C2353 C295 1.545 . S
C2393 C1378 1.488 . S
C2385 C95 1.533 . S
C2417 C122 1.532 . S
C2425 C1395 1.450 . S
C2457 C1368 1.432 . S
C2449 C61 1.519 . S
C2489 C1512 1.495 . S
C2481 C341 1.546 . S
C2513 C362 1.496 . S
C2521 C1522 1.416 . S
C2545 C402 1.518 . S
C2553 C1546 1.492 . S
C2585 C1558 1.461 . S
C2577 C455 1.536 . S
C2609 C495 1.468 . S
C2617 C1566 1.431 . S
C2641 C541 1.509 . S
C2649 C1504 1.512 . S
C2673 C575 1.535 . S
C2681 C1530 1.441 . S
C2705 C621 1.582 . S
C2713 C1539 1.510 . S
C2745 C1432 1.491 . S
C2737 C335 1.527 . S
C2769 C375 1.506 . S
C2777 C1582 1.414 . S
C2809 C1474 1.513 . S
C2801 C421 1.544 . S
C2833 C461 1.545 . S
C2841 C1602 1.483 . S
C2865 C482 1.459 . S
C2873 C1359 1.460 . S
C2905 C1620 1.456 . S
C2897 C535 1.547 . S
C2929 C581 1.547 . S
C2937 C1404 1.474 . S
C2969 C1636 1.471 . S
C2961 C602 1.541 . S
C2993 C322 1.521 . S
C3001 C1594 1.487 . S
C3033 C1612 1.434 . S
C3025 C501 1.461 . S
C3057 C522 1.515 . S
C3065 C1396 1.512 . S
C3097 C1629 1.468 . S
C3089 C562 1.534 . S
C3121 C615 1.536 . S
C3129 C1366 1.470 . S
C3153 C415 1.533 . S
C3161 C1575 1.486 . S
C3185 C442 1.539 . S
C3193 C1467 1.479 . S
C3217 C381 1.521 . S
C3225 C1440 1.437 . S
C3249 C661 1.519 . S
C3257 C1548 1.516 . S
C3289 C1557 1.426 . S
C3281 C682 1.487 . S
C3313 C722 1.499 . S
C3321 C1510 1.500 . S
C3345 C775 1.543 . S
C3353 C1521 1.449 . S
C3377 C815 1.468 . S
C3385 C1528 1.434 . S
C3409 C861 1.539 . S
C3417 C1540 1.502 . S
C3449 C1564 1.473 . S
C3441 C895 1.520 . S
C3473 C941 1.579 . S
C3481 C1503 1.506 . S
C3513 C1654 1.480 . S
C3505 C655 1.540 . S
C3537 C695 1.506 . S
C3545 C1458 1.415 . S
C3577 C1672 1.508 . S
C3569 C741 1.542 . S
C3601 C781 1.549 . S
C3609 C1494 1.482 . S
C3633 C802 1.487 . S
C3641 C1692 1.451 . S
C3665 C855 1.547 . S
C3673 C1384 1.462 . S
C3705 C1708 1.478 . S
C3697 C901 1.546 . S
C3729 C922 1.543 . S
C3737 C1420 1.494 . S
C3769 C1486 1.476 . S
C3761 C642 1.538 . S
C3801 C1377 1.440 . S
C3793 C821 1.444 . S
C3825 C842 1.554 . S
C3833 C1701 1.487 . S
C3857 C882 1.544 . S
C3865 C1413 1.461 . S
C3897 C1684 1.476 . S
C3889 C935 1.530 . S
C3929 C1450 1.481 . S
C3921 C735 1.544 . S
C3961 C1665 1.480 . S
C3953 C762 1.534 . S
C3993 C1647 1.426 . S
C3985 C701 1.517 . S
C4017 C981 1.562 . S
C4025 C1332 1.490 . S
C4049 C1002 1.502 . S
C4057 C1342 1.425 . S
C4089 C1296 1.468 . S
C4081 C1042 1.545 . S
C4121 C1305 1.458 . S
C4113 C1095 1.532 . S
C4153 C1312 1.433 . S
C4145 C1135 1.467 . S
C4185 C1324 1.486 . S
C4177 C1181 1.552 . S
C4217 C1350 1.439 . S
C4209 C1215 1.537 . S
C4241 C1261 1.574 . S
C4249 C1288 1.505 . S
C4273 C975 1.533 . S
C4281 C1690 1.485 . S
C4313 C1618 1.414 . S
C4305 C1015 1.507 . S
C4345 C1710 1.502 . S
C4337 C1061 1.556 . S
C4377 C1638 1.484 . S
C4369 C1101 1.546 . S
C4401 C1122 1.459 . S
C4409 C1656 1.458 . S
C4441 C1584 1.454 . S
C4433 C1175 1.546 . S
C4473 C1674 1.464 . S
C4465 C1221 1.540 . S
C4497 C1242 1.551 . S
C4505 C1600 1.494 . S
C4537 C1630 1.481 . S
C4529 C962 1.538 . S
C4569 C1576 1.423 . S
C4561 C1141 1.479 . S
C4601 C1666 1.510 . S
C4593 C1162 1.519 . S
C4625 C1202 1.535 . S
C4633 C1593 1.477 . S
C4657 C1255 1.527 . S
C4665 C1648 1.477 . S
C4689 C1055 1.536 . S
C4697 C1611 1.486 . S
C4721 C1082 1.542 . S
C4729 C1702 1.470 . S
C4761 C1683 1.446 . S
C4753 C1021 1.520 . S
