# Generated by pormake.
# Topology pth, (4,4)-cn, num edge types: 1
# Building blocks:
#     Node 0, Type 0, BuildingBlock: UXUYUI_clean_sbu_0, # of connection points: 4
#     Node 1, Type 0, BuildingBlock: UXUYUI_clean_sbu_0, # of connection points: 4
#     Node 2, Type 0, BuildingBlock: UXUYUI_clean_sbu_0, # of connection points: 4
#     Node 3, Type 1, BuildingBlock: NAHDIM_clean_linker_0, # of connection points: 4
#     Node 4, Type 1, BuildingBlock: NAHDIM_clean_linker_0, # of connection points: 4
#     Node 5, Type 1, BuildingBlock: NAHDIM_clean_linker_0, # of connection points: 4
#     Edge 6, Type (0, 1), BuildingBlock: ZUJKAS_clean_linker_0, # of connection points: 2
#     Edge 7, Type (0, 1), BuildingBlock: ZUJKAS_clean_linker_0, # of connection points: 2
#     Edge 8, Type (0, 1), BuildingBlock: ZUJKAS_clean_linker_0, # of connection points: 2
#     Edge 9, Type (0, 1), BuildingBlock: ZUJKAS_clean_linker_0, # of connection points: 2
#     Edge 10, Type (0, 1), BuildingBlock: ZUJKAS_clean_linker_0, # of connection points: 2
#     Edge 11, Type (0, 1), BuildingBlock: ZUJKAS_clean_linker_0, # of connection points: 2
#     Edge 12, Type (0, 1), BuildingBlock: ZUJKAS_clean_linker_0, # of connection points: 2
#     Edge 13, Type (0, 1), BuildingBlock: ZUJKAS_clean_linker_0, # of connection points: 2
#     Edge 14, Type (0, 1), BuildingBlock: ZUJKAS_clean_linker_0, # of connection points: 2
#     Edge 15, Type (0, 1), BuildingBlock: ZUJKAS_clean_linker_0, # of connection points: 2
#     Edge 16, Type (0, 1), BuildingBlock: ZUJKAS_clean_linker_0, # of connection points: 2
#     Edge 17, Type (0, 1), BuildingBlock: ZUJKAS_clean_linker_0, # of connection points: 2
# Relax obj value: 0.093
# Max RMSD: 0.220
# Mean RMSD: 0.135
data_MOF--net-pth--node1-UXUYUI_clean_sbu_0--node2-NAHDIM_clean_linker_0--edge1-ZUJKAS_clean_linker_0
_symmetry_space_group_name_H-M    P1
_symmetry_Int_Tables_number       1
_symmetry_cell_setting            triclinic
loop_
_symmetry_equiv_pos_as_xyz
'x, y, z'
_cell_length_a     43.625294
_cell_length_b     43.649107
_cell_length_c     111.20785
_cell_angle_alpha  89.823807
_cell_angle_beta   90.267346
_cell_angle_gamma 119.99293
loop_
_atom_site_label
_atom_site_type_symbol
_atom_site_fract_x
_atom_site_fract_y
_atom_site_fract_z
_atom_type_partial_charge
Li0 Li 0.03674 0.04132 0.07097 0.0
Li1 Li 0.99756 0.04242 0.08647 0.0
Li2 Li 0.01429 0.99488 0.08661 0.0
Li3 Li 0.97238 0.99529 0.07205 0.0
C4 C 0.079 0.06504 0.09268 0.0
N5 N 0.14775 0.10154 0.10124 0.0
C6 C 0.09294 0.09941 0.09713 0.0
C7 C 0.09986 0.04902 0.09282 0.0
C8 C 0.1278 0.1175 0.10134 0.0
C9 C 0.13459 0.06795 0.09712 0.0
C10 C 0.98725 0.07358 0.06736 0.0
C11 C 0.94761 0.0968 0.06921 0.0
N12 N 0.97347 0.1286 0.06504 0.0
C13 C 0.01333 0.10639 0.06299 0.0
C14 C 0.95401 0.06861 0.0704 0.0
C15 C 0.00589 0.13391 0.06192 0.0
C16 C 0.07528 0.05737 0.04938 0.0
N17 N 0.07497 0.06985 0.06053 0.0
C18 C 0.12632 0.12523 0.05599 0.0
C19 C 0.09987 0.10299 0.06397 0.0
C20 C 0.12698 0.11335 0.04431 0.0
C21 C 0.1013 0.07869 0.04111 0.0
H22 H 0.0548 0.03111 0.04681 0.0
H23 H 0.09836 0.11274 0.07272 0.0
C24 C 0.96514 0.05932 0.10531 0.0
N25 N 0.98971 0.07311 0.09643 0.0
C26 C 0.96064 0.08169 0.11316 0.0
C27 C 0.0063 0.13191 0.1024 0.0
C28 C 0.01005 0.10861 0.09482 0.0
C29 C 0.98163 0.11853 0.11181 0.0
H30 H 0.94956 0.03097 0.10646 0.0
H31 H 0.0298 0.11887 0.08782 0.0
C32 C 0.03081 0.9722 0.06462 0.0
N33 N 0.06518 0.93808 0.05599 0.0
C34 C 0.01157 0.93913 0.0591 0.0
C35 C 0.06759 0.98813 0.06557 0.0
C36 C 0.02941 0.92224 0.05484 0.0
C37 C 0.08446 0.97042 0.0612 0.0
C38 C 0.93395 0.96416 0.0915 0.0
C39 C 0.92769 0.9305 0.09468 0.0
C40 C 0.9054 0.96988 0.08991 0.0
C41 C 0.89285 0.90294 0.09602 0.0
C42 C 0.87096 0.94163 0.09131 0.0
N43 N 0.86545 0.90902 0.0943 0.0
C44 C 0.03423 0.97739 0.10823 0.0
C45 C 0.02077 0.93484 0.0929 0.0
C46 C 0.04 0.95663 0.11647 0.0
N47 N 0.0247 0.96617 0.09673 0.0
C48 C 0.02652 0.91333 0.10082 0.0
C49 C 0.03583 0.92399 0.11281 0.0
H50 H 0.03675 0.00225 0.11105 0.0
H51 H 0.0121 0.92594 0.08383 0.0
C52 C 0.9162 0.97782 0.0554 0.0
N53 N 0.93164 0.96476 0.06289 0.0
C54 C 0.88709 0.95485 0.04836 0.0
C55 C 0.89016 0.90559 0.05704 0.0
C56 C 0.91923 0.92946 0.06384 0.0
C57 C 0.87388 0.91821 0.04909 0.0
H58 H 0.92684 0.00605 0.05474 0.0
H59 H 0.93235 0.91988 0.06975 0.0
O60 O 0.04473 0.04686 0.08863 0.0
O61 O 0.99418 0.04643 0.06859 0.0
O62 O 0.01365 0.989 0.06886 0.0
O63 O 0.96785 0.99135 0.08998 0.0
H64 H 0.07711 0.11211 0.09726 0.0
H65 H 0.0893 0.02209 0.08981 0.0
H66 H 0.13898 0.14421 0.10471 0.0
H67 H 0.15102 0.05586 0.09725 0.0
H68 H 0.92209 0.09339 0.07161 0.0
H69 H 0.03909 0.11063 0.0605 0.0
H70 H 0.93347 0.04334 0.07371 0.0
H71 H 0.02589 0.1595 0.05861 0.0
H72 H 0.14503 0.15199 0.05876 0.0
H73 H 0.10091 0.06838 0.03223 0.0
H74 H 0.94126 0.07031 0.12028 0.0
H75 H 0.0235 0.16011 0.10117 0.0
H76 H 0.98315 0.92655 0.05813 0.0
H77 H 0.08303 0.01412 0.06947 0.0
H78 H 0.01481 0.89655 0.05062 0.0
H79 H 0.11292 0.98247 0.0619 0.0
H80 H 0.94945 0.92563 0.09599 0.0
H81 H 0.90979 0.99581 0.08755 0.0
H82 H 0.8876 0.87671 0.0984 0.0
H83 H 0.84861 0.94563 0.09003 0.0
H84 H 0.04729 0.96582 0.12564 0.0
H85 H 0.02239 0.88804 0.09772 0.0
H86 H 0.87526 0.96563 0.04235 0.0
H87 H 0.88135 0.87764 0.05771 0.0
Li88 Li 0.01417 0.0016 0.40618 0.0
Li89 Li 0.0536 0.04112 0.42187 0.0
Li90 Li 0.98873 0.02309 0.4216 0.0
Li91 Li 0.03076 0.06559 0.40718 0.0
C92 C 0.99679 0.95902 0.42745 0.0
N93 N 0.96777 0.88951 0.43487 0.0
C94 C 0.01861 0.94643 0.43176 0.0
C95 C 0.96014 0.93642 0.42716 0.0
C96 C 0.00346 0.91116 0.43539 0.0
C97 C 0.94599 0.90134 0.43089 0.0
C98 C 0.09587 0.05498 0.40223 0.0
C99 C 0.15777 0.09921 0.40317 0.0
N100 N 0.16617 0.07551 0.39858 0.0
C101 C 0.10508 0.03117 0.3974 0.0
C102 C 0.12238 0.08938 0.40504 0.0
C103 C 0.14078 0.04201 0.39566 0.0
C104 C 0.99094 0.96052 0.38489 0.0
N105 N 0.00642 0.96389 0.39582 0.0
C106 C 0.01529 0.91528 0.39164 0.0
C107 C 0.01873 0.94211 0.39926 0.0
C108 C -0.00058 0.91106 0.38028 0.0
C109 C 0.98693 0.93398 0.37696 0.0
H110 H 0.98225 0.97883 0.38225 0.0
H111 H 0.0321 0.94616 0.40778 0.0
C112 C 0.10173 0.07128 0.44141 0.0
N113 N 0.09244 0.04923 0.43179 0.0
C114 C 0.12904 0.07543 0.44907 0.0
C115 C 0.13708 0.03475 0.43659 0.0
C116 C 0.10945 0.03111 0.42928 0.0
C117 C 0.14687 0.05668 0.44677 0.0
H118 H 0.08736 0.08495 0.4433 0.0
H119 H 0.10105 0.01321 0.42172 0.0
C120 C 0.94995 0.00682 0.39955 0.0
N121 N 0.88127 0.97352 0.39092 0.0
C122 C 0.93636 0.02658 0.3942 0.0
C123 C 0.92879 0.97007 0.40032 0.0
C124 C 0.90151 0.00928 0.38996 0.0
C125 C 0.8941 0.95374 0.39595 0.0
C126 C 0.03878 0.10405 0.42717 0.0
C127 C 0.01179 0.11106 0.43015 0.0
C128 C 0.07369 0.13189 0.42651 0.0
C129 C 0.02011 0.14596 0.43216 0.0
C130 C 0.08095 0.16643 0.42859 0.0
N131 N 0.05423 0.17271 0.43133 0.0
C132 C 0.94582 0.99798 0.44229 0.0
C133 C 0.92465 0.02123 0.4272 0.0
C134 C 0.91819 0.99254 0.44993 0.0
N135 N 0.9486 0.01226 0.4312 0.0
C136 C 0.89656 0.01611 0.43449 0.0
C137 C 0.89335 0.00213 0.44611 0.0
H138 H 0.96564 0.99172 0.44534 0.0
H139 H 0.92801 0.03355 0.41851 0.0
C140 C 0.06543 0.11745 0.38916 0.0
N141 N 0.03982 0.10532 0.3977 0.0
C142 C 0.06969 0.1443 0.3813 0.0
C143 C 0.02165 0.14614 0.39139 0.0
C144 C 0.01823 0.11918 0.39899 0.0
C145 C 0.04718 0.15856 0.38223 0.0
H146 H 0.08168 0.10538 0.38814 0.0
H147 H 0.99753 0.10845 0.40566 0.0
O148 O 0.01125 0.99357 0.4239 0.0
O149 O 0.06105 0.04473 0.40408 0.0
O150 O 0.984 0.02344 0.40379 0.0
O151 O 0.0311 0.07004 0.42512 0.0
H152 H 0.04697 0.96363 0.43221 0.0
H153 H 0.94272 0.94592 0.42425 0.0
H154 H 0.02008 0.90102 0.43864 0.0
H155 H 0.91768 0.88355 0.43067 0.0
H156 H 0.17856 0.12571 0.40536 0.0
H157 H 0.08492 0.00456 0.39506 0.0
H158 H 0.11569 0.10828 0.40859 0.0
H159 H 0.1483 0.02379 0.392 0.0
H160 H 0.02508 0.89808 0.39462 0.0
H161 H 0.97505 0.93203 0.36822 0.0
H162 H 0.13526 0.09217 0.45691 0.0
H163 H 0.15031 0.02014 0.43435 0.0
H164 H 0.95245 0.05501 0.39341 0.0
H165 H 0.93918 0.95426 0.40408 0.0
H166 H 0.89058 0.02429 0.38588 0.0
H167 H 0.87744 0.92531 0.39651 0.0
H168 H 0.98467 0.08982 0.43081 0.0
H169 H 0.09498 0.12688 0.42447 0.0
H170 H -0.00055 0.15179 0.43439 0.0
H171 H 0.10785 0.18825 0.42805 0.0
H172 H 0.91716 0.98228 0.45888 0.0
H173 H 0.87794 0.02367 0.43113 0.0
H174 H 0.0893 0.15264 0.37425 0.0
H175 H 0.00394 0.15658 0.3925 0.0
Li176 Li 0.03933 0.02187 0.73891 0.0
Li177 Li 0.03547 0.06316 0.75279 0.0
Li178 Li 0.99143 0.99804 0.75337 0.0
Li179 Li 0.98958 0.03503 0.73707 0.0
C180 C 0.06918 0.0153 0.75931 0.0
N181 N 0.12232 3e-05 0.76416 0.0
C182 C 0.10246 0.04201 0.76314 0.0
C183 C 0.06278 0.98072 0.75814 0.0
C184 C 0.12903 0.03379 0.7655 0.0
C185 C 0.09002 0.97355 0.76058 0.0
C186 C 0.06029 0.10176 0.7313 0.0
C187 C 0.06363 0.15719 0.72634 0.0
N188 N 0.09845 0.17116 0.72358 0.0
C189 C 0.09596 0.11651 0.72824 0.0
C190 C 0.04387 0.12211 0.7302 0.0
C191 C 0.11486 0.15171 0.72443 0.0
C192 C 0.05783 0.98855 0.72103 0.0
N193 N 0.07115 0.01349 0.72982 0.0
C194 C 0.13027 0.0291 0.72461 0.0
C195 C 0.10659 0.0337 0.73171 0.0
C196 C 0.11731 0.00374 0.71538 0.0
C197 C 0.08055 0.98317 0.71367 0.0
H198 H 0.02957 0.97326 0.71958 0.0
H199 H 0.11653 0.05396 0.73855 0.0
C200 C 0.04676 0.10715 0.77274 0.0
N201 N 0.06218 0.10356 0.76266 0.0
C202 C 0.06667 0.13379 0.78104 0.0
C203 C 0.11797 0.1527 0.7684 0.0
C204 C 0.09697 0.12589 0.7603 0.0
C205 C 0.10302 0.15651 0.77907 0.0
H206 H 0.01926 0.0885 0.77457 0.0
H207 H 0.10895 0.12167 0.75248 0.0
C208 C 0.9637 0.95401 0.73435 0.0
N209 N 0.91369 0.88325 0.73185 0.0
C210 C 0.92935 0.944 0.73056 0.0
C211 C 0.97276 0.92804 0.73666 0.0
C212 C 0.90441 0.90809 0.72941 0.0
C213 C 0.94707 0.89241 0.73541 0.0
C214 C 0.96193 0.05263 0.75713 0.0
C215 C 0.92802 0.0311 0.76179 0.0
C216 C 0.97428 0.08861 0.75529 0.0
C217 C 0.90672 0.04581 0.76427 0.0
C218 C 0.95221 0.10234 0.7579 0.0
N219 N 0.91914 0.08082 0.76228 0.0
C220 C 0.97747 0.95224 0.77322 0.0
C221 C 0.92698 0.94177 0.76189 0.0
C222 C 0.95633 0.92516 0.78122 0.0
N223 N 0.96253 0.95983 0.76376 0.0
C224 C 0.9049 0.91434 0.7696 0.0
C225 C 0.91953 0.90581 0.77943 0.0
H226 H 0.00573 0.96752 0.77465 0.0
H227 H 0.91567 0.94908 0.75454 0.0
C228 C 0.97292 0.05424 0.71489 0.0
N229 N 0.95973 0.04082 0.72593 0.0
C230 C 0.95164 0.05797 0.70627 0.0
C231 C 0.9034 0.03341 0.72049 0.0
C232 C 0.9256 0.03015 0.72882 0.0
C233 C 0.91633 0.04747 0.70903 0.0
H234 H -4e-05 0.06178 0.71275 0.0
H235 H 0.91538 0.0185 0.7375 0.0
O236 O 0.04292 0.0229 0.75686 0.0
O237 O 0.04137 0.06725 0.73499 0.0
O238 O 0.9884 0.98905 0.73564 0.0
O239 O 0.98309 0.03858 0.75463 0.0
H240 H 0.10782 0.06883 0.76423 0.0
H241 H 0.03703 0.95962 0.75543 0.0
H242 H 0.15497 0.05426 0.76839 0.0
H243 H 0.08545 0.94693 0.75964 0.0
H244 H 0.05125 0.17325 0.72548 0.0
H245 H 0.10902 0.10106 0.72888 0.0
H246 H 0.01606 0.11088 0.73215 0.0
H247 H 0.14255 0.16353 0.72214 0.0
H248 H 0.15843 0.04594 0.7261 0.0
H249 H 0.06948 0.96319 0.70671 0.0
H250 H 0.05391 0.13588 0.78907 0.0
H251 H 0.146 0.16896 0.76662 0.0
H252 H 0.92193 0.9637 0.72863 0.0
H253 H -0.00063 0.93529 0.73933 0.0
H254 H 0.87766 0.89997 0.72658 0.0
H255 H 0.9537 0.87204 0.73722 0.0
H256 H 0.91816 0.00328 0.76341 0.0
H257 H 0.00081 0.10588 0.75207 0.0
H258 H 0.88033 0.02939 0.7678 0.0
H259 H 0.96144 0.13015 0.7565 0.0
H260 H 0.96863 0.91934 0.78869 0.0
H261 H 0.87659 0.90054 0.76804 0.0
H262 H 0.96253 0.06843 0.69749 0.0
H263 H 0.87646 0.02522 0.72305 0.0
C264 C 0.94524 0.58809 0.31895 0.0
C265 C 0.97358 0.62033 0.31215 0.0
C266 C 0.97623 0.60354 0.2917 0.0
C267 C 0.0125 0.61687 0.28995 0.0
C268 C 0.02442 0.60033 0.28195 0.0
C269 C -0.00057 0.56973 0.27567 0.0
C270 C 0.96277 0.55712 0.27709 0.0
C271 C 0.95166 0.57466 0.28497 0.0
C272 C 0.06367 0.61493 0.28046 0.0
C273 C 0.93532 0.52435 0.27065 0.0
C274 C 0.02397 0.35066 0.30894 0.0
C275 C 0.01326 0.3703 0.30063 0.0
C276 C 0.03725 0.42714 0.29041 0.0
C277 C 0.00597 0.41789 0.28397 0.0
C278 C 0.00317 0.44275 0.27676 0.0
C279 C 0.03243 0.47742 0.27579 0.0
C280 C 0.06425 0.48662 0.28199 0.0
C281 C 0.0662 0.46129 0.28926 0.0
C282 C 0.96869 0.43207 0.27033 0.0
C283 C 0.09598 0.52329 0.28103 0.0
C284 C 0.0628 0.43689 0.20119 0.0
C285 C 0.02736 0.42437 0.20435 0.0
C286 C 0.01687 0.44735 0.20918 0.0
C287 C 0.04237 0.48345 0.21089 0.0
C288 C 0.07758 0.49648 0.20701 0.0
C289 C 0.08724 0.47298 0.20208 0.0
C290 C 0.97883 0.43285 0.21287 0.0
C291 C 0.10529 0.5349 0.20853 0.0
C292 C 0.95081 0.67714 0.20959 0.0
C293 C 0.97889 0.6725 0.20295 0.0
C294 C 0.97749 0.61604 0.20208 0.0
C295 C 0.9537 0.58023 0.20406 0.0
C296 C 0.96548 0.55766 0.20839 0.0
C297 C 0.00202 0.5714 0.21059 0.0
C298 C 0.02651 0.60687 0.20756 0.0
C299 C 0.01398 0.62889 0.20329 0.0
C300 C 0.93874 0.51972 0.21128 0.0
C301 C 0.06572 0.62195 0.20945 0.0
C302 C 0.01151 0.54917 0.26851 0.0
C303 C 0.01921 0.52598 0.27473 0.0
C304 C 0.02894 0.50424 0.26865 0.0
C305 C 0.03175 0.50594 0.25599 0.0
C306 C 0.04211 0.48486 0.24962 0.0
C307 C 0.04316 0.48549 0.23713 0.0
C308 C 0.03361 0.50702 0.23051 0.0
C309 C 0.03309 0.5067 0.21778 0.0
C310 C 0.02315 0.52817 0.21148 0.0
C311 C 0.01388 0.55027 0.21761 0.0
C312 C 0.01464 0.55127 0.23033 0.0
C313 C 0.00582 0.57354 0.23675 0.0
C314 C 0.00551 0.57349 0.24926 0.0
C315 C 0.01353 0.55083 0.25582 0.0
C316 C 0.02342 0.52889 0.24954 0.0
C317 C 0.0241 0.52922 0.23678 0.0
C318 C 0.09363 0.37828 0.20637 0.0
C319 C 0.06235 0.38066 0.2012 0.0
O320 O 0.96443 0.61758 0.30009 0.0
O321 O 0.96432 0.63758 0.19936 0.0
O322 O 0.07436 0.41501 0.1973 0.0
O323 O 0.04029 0.4041 0.29789 0.0
H324 H 0.99904 0.62047 0.31332 0.0
H325 H 0.94365 0.56362 0.31535 0.0
H326 H 0.91887 0.58591 0.31791 0.0
H327 H 0.95204 0.59008 0.32867 0.0
H328 H 0.03141 0.63993 0.29497 0.0
H329 H 0.9237 0.5649 0.28634 0.0
H330 H 0.0712 0.59652 0.28467 0.0
H331 H 0.07954 0.64135 0.28471 0.0
H332 H 0.07047 0.61705 0.27077 0.0
H333 H 0.90791 0.51688 0.27327 0.0
H334 H 0.93961 0.50182 0.27264 0.0
H335 H 0.93798 0.52885 0.26079 0.0
H336 H 0.98807 0.36941 0.30312 0.0
H337 H 0.00799 0.34651 0.31733 0.0
H338 H 0.0498 0.3708 0.31317 0.0
H339 H 0.01892 0.30852 0.29841 0.0
H340 H 0.98347 0.3914 0.28459 0.0
H341 H 0.09028 0.46814 0.29418 0.0
H342 H 0.97294 0.43362 0.26047 0.0
H343 H 0.95914 0.45059 0.27265 0.0
H344 H 0.94773 0.40475 0.27264 0.0
H345 H 0.11962 0.52549 0.28566 0.0
H346 H 0.08963 0.54267 0.28509 0.0
H347 H 0.10247 0.5306 0.27142 0.0
H348 H 0.04286 0.37343 0.20862 0.0
H349 H 0.00796 0.39668 0.20312 0.0
H350 H 0.11435 0.48244 0.19937 0.0
H351 H 0.97722 0.43301 0.22282 0.0
H352 H 0.96146 0.40535 0.20965 0.0
H353 H 0.96868 0.44989 0.20929 0.0
H354 H 0.1313 0.54105 0.20477 0.0
H355 H 0.10873 0.5418 0.21824 0.0
H356 H 0.09642 0.55187 0.20402 0.0
H357 H 0.00061 0.67969 0.20961 0.0
H358 H 0.96165 0.70525 0.21222 0.0
H359 H 0.94275 0.66077 0.21789 0.0
H360 H 0.92687 0.66865 0.20392 0.0
H361 H 0.92565 0.57043 0.20282 0.0
H362 H 0.03264 0.65625 0.20118 0.0
H363 H 0.93772 0.51572 0.22117 0.0
H364 H 0.94685 0.50172 0.20717 0.0
H365 H 0.91177 0.51225 0.20803 0.0
H366 H 0.08154 0.64881 0.2055 0.0
H367 H 0.07428 0.60424 0.20538 0.0
H368 H 0.07147 0.62352 0.21923 0.0
H369 H 0.01657 0.52406 0.28445 0.0
H370 H 0.04933 0.46749 0.25424 0.0
H371 H 0.05116 0.46853 0.23273 0.0
H372 H 0.02235 0.52745 0.20173 0.0
H373 H 0.99886 0.59119 0.23221 0.0
H374 H 0.99841 0.59107 0.25372 0.0
H375 H 0.11438 0.38529 0.19943 0.0
H376 H 0.08473 0.35107 0.2097 0.0
H377 H 0.10541 0.39689 0.21404 0.0
C378 C 0.38494 0.9535 0.65066 0.0
C379 C 0.3801 0.98208 0.6444 0.0
C380 C 0.3986 0.98662 0.62384 0.0
C381 C 0.41847 0.02292 0.62149 0.0
C382 C 0.44714 0.03635 0.61352 0.0
C383 C 0.4563 0.01286 0.60799 0.0
C384 C 0.43536 0.97597 0.61005 0.0
C385 C 0.40628 0.96326 0.61783 0.0
C386 C 0.46831 0.0757 0.61133 0.0
C387 C 0.44458 0.95013 0.60448 0.0
C388 C 0.66247 0.13006 0.65551 0.0
C389 C 0.66143 0.10204 0.64703 0.0
C390 C 0.64098 0.09931 0.62652 0.0
C391 C 0.62212 0.06258 0.62478 0.0
C392 C 0.59472 0.04732 0.61626 0.0
C393 C 0.58593 0.06932 0.60945 0.0
C394 C 0.60605 0.10652 0.61082 0.0
C395 C 0.63383 0.12107 0.61922 0.0
C396 C 0.57452 0.00766 0.61478 0.0
C397 C 0.59728 0.13083 0.60381 0.0
C398 C 0.65888 0.07615 0.5363 0.0
C399 C 0.63485 0.04044 0.53881 0.0
C400 C 0.60069 0.02997 0.54296 0.0
C401 C 0.59038 0.05571 0.54454 0.0
C402 C 0.61361 0.0912 0.54114 0.0
C403 C 0.6476 0.10092 0.53698 0.0
C404 C 0.57611 0.99169 0.54616 0.0
C405 C 0.60315 0.11913 0.54249 0.0
C406 C 0.30158 0.95042 0.53857 0.0
C407 C 0.33549 0.9828 0.53415 0.0
C408 C 0.39294 0.98631 0.53331 0.0
C409 C 0.40705 0.96395 0.53452 0.0
C410 C 0.441 0.97644 0.53936 0.0
C411 C 0.46139 0.01235 0.54281 0.0
C412 C 0.44844 0.03579 0.54057 0.0
C413 C 0.41421 0.02248 0.53587 0.0
C414 C 0.4543 0.9509 0.54142 0.0
C415 C 0.47006 0.07452 0.54371 0.0
C416 C 0.48964 0.02707 0.60105 0.0
C417 C 0.5212 0.0408 0.60757 0.0
C418 C 0.55368 0.05338 0.6018 0.0
C419 C 0.55484 0.05145 0.58915 0.0
C420 C 0.58682 0.06213 0.5831 0.0
C421 C 0.58766 0.06035 0.57063 0.0
C422 C 0.55658 0.04809 0.56372 0.0
C423 C 0.55718 0.04627 0.55102 0.0
C424 C 0.52597 0.03472 0.5444 0.0
C425 C 0.49381 0.02427 0.55018 0.0
C426 C 0.49252 0.02498 0.56289 0.0
C427 C 0.46041 0.01369 0.569 0.0
C428 C 0.45939 0.01447 0.58149 0.0
C429 C 0.4904 0.02652 0.58835 0.0
C430 C 0.52311 0.0384 0.58239 0.0
C431 C 0.52408 0.0372 0.56965 0.0
C432 C 0.7474 0.10267 0.54316 0.0
C433 C 0.71341 0.07337 0.53743 0.0
O434 O 0.37298 0.97395 0.6323 0.0
O435 O 0.35852 0.97204 0.52998 0.0
O436 O 0.69314 0.08771 0.53339 0.0
O437 O 0.66569 0.11439 0.63531 0.0
H438 H 0.40526 0.00772 0.64552 0.0
H439 H 0.40769 0.9525 0.64664 0.0
H440 H 0.36084 0.9271 0.64961 0.0
H441 H 0.39045 0.95955 0.66039 0.0
H442 H 0.41184 0.04071 0.62608 0.0
H443 H 0.39049 0.93521 0.61972 0.0
H444 H 0.49417 0.08677 0.61605 0.0
H445 H 0.45446 0.08953 0.61465 0.0
H446 H 0.47372 0.08125 0.60158 0.0
H447 H 0.42714 0.92264 0.6077 0.0
H448 H 0.47248 0.95802 0.60658 0.0
H449 H 0.44207 0.95049 0.59455 0.0
H450 H 0.63501 0.0779 0.64823 0.0
H451 H 0.65905 0.12072 0.66498 0.0
H452 H 0.64061 0.13518 0.65323 0.0
H453 H 0.68799 0.1553 0.6547 0.0
H454 H 0.62861 0.04587 0.63018 0.0
H455 H 0.64898 0.14944 0.62056 0.0
H456 H 0.57118 0.00056 0.60509 0.0
H457 H 0.54772 0.99685 0.61871 0.0
H458 H 0.58796 0.99484 0.61931 0.0
H459 H 0.61421 0.15898 0.60645 0.0
H460 H 0.56913 0.12308 0.60522 0.0
H461 H 0.60088 0.12839 0.59406 0.0
H462 H 0.6995 0.05355 0.54467 0.0
H463 H 0.64287 0.0208 0.5377 0.0
H464 H 0.66611 0.12827 0.53476 0.0
H465 H 0.57147 0.98926 0.55601 0.0
H466 H 0.58695 0.97446 0.54351 0.0
H467 H 0.55008 0.98202 0.54167 0.0
H468 H 0.62303 0.14488 0.53854 0.0
H469 H 0.60018 0.12309 0.55218 0.0
H470 H 0.57715 0.11026 0.53808 0.0
H471 H 0.34698 0.00053 0.54209 0.0
H472 H 0.28263 0.9584 0.54192 0.0
H473 H 0.30794 0.93764 0.54607 0.0
H474 H 0.28879 0.93074 0.53124 0.0
H475 H 0.39062 0.93623 0.53225 0.0
H476 H 0.40384 0.04016 0.53444 0.0
H477 H 0.45824 0.94887 0.5512 0.0
H478 H 0.48034 0.96092 0.53699 0.0
H479 H 0.43569 0.92405 0.5379 0.0
H480 H 0.45871 0.09012 0.53976 0.0
H481 H 0.49768 0.0856 0.5405 0.0
H482 H 0.47101 0.07759 0.55363 0.0
H483 H 0.52047 0.04177 0.61731 0.0
H484 H 0.61153 0.07184 0.58796 0.0
H485 H 0.61309 0.06891 0.56649 0.0
H486 H 0.52669 0.03367 0.53466 0.0
H487 H 0.43559 0.00397 0.56422 0.0
H488 H 0.43397 0.00554 0.5857 0.0
H489 H 0.76424 0.09185 0.5464 0.0
H490 H 0.7407 0.11398 0.55098 0.0
H491 H 0.76268 0.12429 0.53662 0.0
C492 C 0.65027 0.58737 0.84068 0.0
C493 C 0.65283 0.61918 0.84734 0.0
C494 C 0.62975 0.60306 0.86753 0.0
C495 C 0.60773 0.61778 0.8684 0.0
C496 C 0.57864 0.6032 0.8762 0.0
C497 C 0.57139 0.57314 0.88317 0.0
C498 C 0.59436 0.55898 0.88256 0.0
C499 C 0.62373 0.57468 0.87489 0.0
C500 C 0.55524 0.61947 0.87682 0.0
C501 C 0.58743 0.5267 0.88972 0.0
C502 C 0.33506 0.36002 0.84749 0.0
C503 C 0.36622 0.38183 0.8553 0.0
C504 C 0.39193 0.43407 0.86806 0.0
C505 C 0.41672 0.42666 0.87348 0.0
C506 C 0.4432 0.45122 0.88109 0.0
C507 C 0.44526 0.4841 0.88328 0.0
C508 C 0.41991 0.49139 0.87812 0.0
C509 C 0.39332 0.46607 0.87063 0.0
C510 C 0.46964 0.44238 0.88653 0.0
C511 C 0.42141 0.52618 0.88033 0.0
C512 C 0.378 0.44451 0.95941 0.0
C513 C 0.39968 0.43175 0.95511 0.0
C514 C 0.43207 0.45462 0.94955 0.0
C515 C 0.44272 0.49088 0.94823 0.0
C516 C 0.42168 0.50405 0.9531 0.0
C517 C 0.38968 0.48064 0.95877 0.0
C518 C 0.4545 0.4399 0.94486 0.0
C519 C 0.43248 0.5426 0.95198 0.0
C520 C 0.73483 0.66321 0.95607 0.0
C521 C 0.70018 0.66241 0.95889 0.0
C522 C 0.64052 0.61118 0.95783 0.0
C523 C 0.62347 0.57462 0.95625 0.0
C524 C 0.58937 0.55614 0.95129 0.0
C525 C 0.57166 0.57478 0.94816 0.0
C526 C 0.58773 0.6114 0.95063 0.0
C527 C 0.62222 0.62936 0.95536 0.0
C528 C 0.57284 0.51696 0.94898 0.0
C529 C 0.56899 0.63175 0.94783 0.0
C530 C 0.53838 0.55483 0.89033 0.0
C531 C 0.50711 0.53235 0.88418 0.0
C532 C 0.4755 0.51142 0.89032 0.0
C533 C 0.4746 0.51353 0.90298 0.0
C534 C 0.44318 0.49299 0.90943 0.0
C535 C 0.44297 0.49397 0.92193 0.0
C536 C 0.47433 0.51502 0.92847 0.0
C537 C 0.47486 0.51452 0.94119 0.0
C538 C 0.5066 0.53527 0.9474 0.0
C539 C 0.53812 0.55656 0.94121 0.0
C540 C 0.53804 0.55778 0.92849 0.0
C541 C 0.56929 0.579 0.92199 0.0
C542 C 0.56925 0.57896 0.90949 0.0
C543 C 0.53818 0.55701 0.903 0.0
C544 C 0.50619 0.53608 0.90935 0.0
C545 C 0.5061 0.53662 0.92211 0.0
C546 C 0.28915 0.39187 0.95504 0.0
C547 C 0.32109 0.38985 0.95973 0.0
O548 O 0.65672 0.61555 0.85955 0.0
O549 O 0.67468 0.62795 0.96162 0.0
O550 O 0.34581 0.42267 0.96427 0.0
O551 O 0.36685 0.41128 0.86024 0.0
H552 H 0.62787 0.61951 0.84549 0.0
H553 H 0.62682 0.56268 0.84388 0.0
H554 H 0.6743 0.58525 0.84231 0.0
H555 H 0.64724 0.58986 0.83085 0.0
H556 H 0.61325 0.64054 0.86292 0.0
H557 H 0.64129 0.5639 0.87422 0.0
H558 H 0.52936 0.60139 0.87252 0.0
H559 H 0.56714 0.64546 0.87217 0.0
H560 H 0.5501 0.62303 0.88634 0.0
H561 H 0.60496 0.51629 0.88698 0.0
H562 H 0.55948 0.50539 0.88863 0.0
H563 H 0.59199 0.53354 0.89941 0.0
H564 H 0.39223 0.38807 0.85137 0.0
H565 H 0.30808 0.31179 0.85675 0.0
H566 H 0.34623 0.36226 0.83821 0.0
H567 H 0.32277 0.3768 0.84538 0.0
H568 H 0.41582 0.40185 0.87173 0.0
H569 H 0.374 0.47153 0.8665 0.0
H570 H 0.47175 0.44711 0.89638 0.0
H571 H 0.49612 0.4599 0.88258 0.0
H572 H 0.46242 0.41446 0.88488 0.0
H573 H 0.39917 0.52747 0.87594 0.0
H574 H 0.44678 0.54815 0.87686 0.0
H575 H 0.4207 0.53036 0.89015 0.0
H576 H 0.332 0.38237 0.95196 0.0
H577 H 0.39132 0.40396 0.95609 0.0
H578 H 0.37297 0.49025 0.96235 0.0
H579 H 0.45429 0.44023 0.93489 0.0
H580 H 0.44474 0.41229 0.94791 0.0
H581 H 0.48236 0.45663 0.94787 0.0
H582 H 0.41291 0.54857 0.9561 0.0
H583 H 0.43554 0.55026 0.94234 0.0
H584 H 0.45854 0.55911 0.95641 0.0
H585 H 0.69254 0.67158 0.95063 0.0
H586 H 0.7557 0.69041 0.95356 0.0
H587 H 0.73081 0.64537 0.94838 0.0
H588 H 0.74401 0.65426 0.96397 0.0
H589 H 0.63765 0.56082 0.95843 0.0
H590 H 0.63488 0.65753 0.95703 0.0
H591 H 0.56609 0.51133 0.93929 0.0
H592 H 0.54787 0.50244 0.95415 0.0
H593 H 0.5906 0.50664 0.95159 0.0
H594 H 0.5827 0.65861 0.95187 0.0
H595 H 0.54136 0.61714 0.95119 0.0
H596 H 0.56781 0.63448 0.93794 0.0
H597 H 0.50773 0.52986 0.87448 0.0
H598 H 0.41842 0.47582 0.90488 0.0
H599 H 0.41799 0.47751 0.92641 0.0
H600 H 0.50698 0.53406 0.95714 0.0
H601 H 0.59426 0.5958 0.92647 0.0
H602 H 0.59406 0.59582 0.90497 0.0
H603 H 0.27688 0.39925 0.96239 0.0
H604 H 0.26903 0.36598 0.95123 0.0
H605 H 0.29765 0.41214 0.94783 0.0
H606 H 0.98245 0.18064 0.10729 0.0
H607 H 0.98799 0.22481 0.12204 0.0
H608 H 0.98273 0.15624 0.1509 0.0
H609 H 0.97761 0.11212 0.13626 0.0
H610 H 0.94087 0.21145 0.14736 0.0
H611 H 0.08571 0.25938 0.14893 0.0
H612 H 0.0595 0.23894 0.13563 0.0
H613 H 0.055 0.21241 0.14855 0.0
C614 C 0.98205 0.17481 0.11678 0.0
C615 C 0.97985 0.14303 0.12062 0.0
C616 C 0.98493 0.1999 0.12517 0.0
C617 C 0.98573 0.1936 0.13749 0.0
C618 C 0.98189 0.16131 0.14139 0.0
H619 H 0.00733 0.31251 0.20212 0.0
H620 H 0.9856 0.26794 0.18615 0.0
C621 C 0.97888 0.13615 0.13302 0.0
C622 C 0.99457 0.2222 0.14623 0.0
H623 H 0.06417 0.28639 0.16196 0.0
C624 C 0.96777 0.228 0.15056 0.0
C625 C 0.02974 0.24373 0.15023 0.0
C626 C 0.05936 0.23862 0.14562 0.0
C627 C 0.97534 0.25483 0.15899 0.0
C628 C 0.0105 0.27592 0.16322 0.0
C629 C 0.03726 0.27025 0.15871 0.0
C630 C 0.02043 0.30365 0.17249 0.0
C631 C 0.9458 0.26063 0.16318 0.0
C632 C 0.04744 0.33841 0.17015 0.0
C633 C 0.06014 0.36373 0.17928 0.0
C634 C 0.04579 0.35485 0.19091 0.0
C635 C 0.01828 0.32021 0.19318 0.0
C636 C 0.00573 0.29482 0.18405 0.0
H637 H 0.92337 0.24967 0.15669 0.0
H638 H 0.93568 0.24697 0.17191 0.0
H639 H 0.95527 0.28921 0.16449 0.0
H640 H 0.05942 0.34567 0.16132 0.0
H641 H 0.08188 0.38997 0.17733 0.0
H642 H 0.85401 0.94992 0.46253 0.0
H643 H 0.81236 0.94954 0.47734 0.0
H644 H 0.82932 0.04918 0.46349 0.0
H645 H 0.87118 0.05015 0.44888 0.0
H646 H 0.82983 0.00141 0.49485 0.0
H647 H 0.72138 0.99073 0.46594 0.0
H648 H 0.75361 0.97937 0.46072 0.0
H649 H 0.76412 0.02483 0.46103 0.0
C650 C 0.8487 0.97164 0.4626 0.0
C651 C 0.86587 0.0 0.45448 0.0
C652 C 0.82473 0.97124 0.47101 0.0
C653 C 0.81728 0.999 0.47135 0.0
C654 C 0.83391 0.027 0.46315 0.0
H655 H 0.7392 0.10155 0.51516 0.0
H656 H 0.75941 0.07719 0.49928 0.0
C657 C 0.85789 0.02749 0.45479 0.0
C658 C 0.79498 0.00087 0.48099 0.0
H659 H 0.72568 0.0148 0.48576 0.0
C660 C 0.80659 0.00359 0.49293 0.0
C661 C 0.76471 0.00369 0.47842 0.0
C662 C 0.74999 0.99914 0.46584 0.0
C663 C 0.79017 0.01145 0.50228 0.0
C664 C 0.76091 0.01599 0.49962 0.0
C665 C 0.7482 0.01147 0.48777 0.0
C666 C 0.74533 0.02861 0.50881 0.0
C667 C 0.8056 0.01691 0.5148 0.0
C668 C 0.72991 0.00896 0.51928 0.0
C669 C 0.71861 0.02298 0.5284 0.0
C670 C 0.7221 0.05663 0.5271 0.0
C671 C 0.73615 0.07554 0.51637 0.0
C672 C 0.74762 0.06163 0.50731 0.0
H673 H 0.83224 0.01943 0.51483 0.0
H674 H 0.80773 0.04099 0.51896 0.0
H675 H 0.78796 0.99388 0.52049 0.0
H676 H 0.72731 0.98315 0.52051 0.0
H677 H 0.70782 0.00785 0.53657 0.0
H678 H 0.92219 0.90695 0.80403 0.0
H679 H 0.8823 0.86039 0.81792 0.0
H680 H 0.82422 0.79446 0.78782 0.0
H681 H 0.8642 0.84052 0.7739 0.0
H682 H 0.80729 0.83033 0.81919 0.0
H683 H 0.84571 0.72966 0.80926 0.0
H684 H 0.87319 0.77581 0.8054 0.0
H685 H 0.83598 0.74722 0.79608 0.0
C686 C 0.90123 0.8823 0.80039 0.0
C687 C 0.89633 0.8773 0.78788 0.0
C688 C 0.87841 0.85587 0.80832 0.0
C689 C 0.85065 0.82391 0.80388 0.0
C690 C 0.84584 0.81877 0.79142 0.0
H691 H 0.65176 0.66629 0.8313 0.0
H692 H 0.70201 0.71834 0.82237 0.0
C693 C 0.86848 0.8452 0.78349 0.0
C694 C 0.8256 0.79636 0.8122 0.0
H695 H 0.79088 0.70935 0.81956 0.0
C696 C 0.80395 0.80398 0.81941 0.0
C697 C 0.82174 0.76224 0.81258 0.0
C698 C 0.84561 0.75324 0.80551 0.0
C699 C 0.77729 0.77778 0.82657 0.0
C700 C 0.77197 0.74305 0.82637 0.0
C701 C 0.79479 0.73592 0.81961 0.0
C702 C 0.7417 0.71322 0.83252 0.0
C703 C 0.75486 0.78741 0.8342 0.0
C704 C 0.74739 0.69277 0.84103 0.0
C705 C 0.7187 0.66292 0.8461 0.0
C706 C 0.68385 0.65307 0.84273 0.0
C707 C 0.67829 0.67369 0.83423 0.0
C708 C 0.70695 0.70349 0.82917 0.0
H709 H 0.76881 0.81619 0.83623 0.0
H710 H 0.73019 0.78081 0.82924 0.0
H711 H 0.74749 0.77248 0.84281 0.0
H712 H 0.77404 0.69962 0.84361 0.0
H713 H 0.72372 0.64712 0.85248 0.0
H714 H 0.00751 0.90719 0.13523 0.0
H715 H 0.00963 0.86572 0.14947 0.0
H716 H 0.07291 0.84515 0.12463 0.0
H717 H 0.07023 0.88634 0.11016 0.0
H718 H 0.02122 0.7852 0.13348 0.0
H719 H 0.08744 0.87629 0.1713 0.0
H720 H 0.0495 0.87896 0.16663 0.0
H721 H 0.08592 0.89195 0.1564 0.0
C722 C 0.02242 0.89433 0.13288 0.0
C723 C 0.03898 0.90022 0.12164 0.0
C724 C 0.02374 0.87072 0.14105 0.0
C725 C 0.04217 0.85297 0.13824 0.0
C726 C 0.05882 0.85882 0.12702 0.0
H727 H 0.04674 0.72601 0.19863 0.0
H728 H 0.0682 0.76766 0.18176 0.0
C729 C 0.05721 0.88224 0.11877 0.0
C730 C 0.04179 0.82665 0.14679 0.0
H731 H 0.05077 0.81431 0.17658 0.0
C732 C 0.02833 0.79167 0.14287 0.0
C733 C 0.05201 0.83518 0.15896 0.0
C734 C 0.06992 0.87275 0.16352 0.0
C735 C 0.02243 0.76458 0.15098 0.0
C736 C 0.02909 0.77255 0.16337 0.0
C737 C 0.04495 0.80794 0.16712 0.0
C738 C 0.01739 0.74463 0.17272 0.0
C739 C 0.00881 0.72771 0.14615 0.0
C740 C 0.98183 0.71756 0.1732 0.0
C741 C 0.96971 0.69346 0.18271 0.0
C742 C 0.99268 0.6966 0.19213 0.0
C743 C 0.02843 0.72318 0.19153 0.0
C744 C 0.04069 0.74694 0.1819 0.0
H745 H 0.01837 0.72853 0.13685 0.0
H746 H 0.01716 0.71228 0.15188 0.0
H747 H 0.97947 0.71371 0.1458 0.0
H748 H 0.96305 0.71575 0.16644 0.0
H749 H 0.94211 0.67302 0.1829 0.0
H750 H 0.15717 0.0024 0.45373 0.0
H751 H 0.20044 0.00411 0.46805 0.0
H752 H 0.24039 0.11525 0.47397 0.0
H753 H 0.19776 0.11428 0.45926 0.0
H754 H 0.28526 0.06273 0.4681 0.0
H755 H 0.2021 0.05156 0.50767 0.0
H756 H 0.18173 0.03348 0.49329 0.0
H757 H 0.20722 0.08045 0.49524 0.0
C758 C 0.17557 0.02746 0.45785 0.0
C759 C 0.17405 0.05827 0.45527 0.0
C760 C 0.20015 0.02829 0.46608 0.0
C761 C 0.22348 0.05978 0.47199 0.0
C762 C 0.22248 0.09073 0.46944 0.0
H763 H 0.33491 0.04529 0.53548 0.0
H764 H 0.31523 0.07217 0.52013 0.0
C765 C 0.19796 0.09002 0.46112 0.0
C766 C 0.24755 0.05923 0.48123 0.0
H767 H 0.25022 0.0426 0.51104 0.0
C768 C 0.27811 0.059 0.47754 0.0
C769 C 0.23815 0.05472 0.49349 0.0
C770 C 0.20554 0.05503 0.49777 0.0
C771 C 0.29881 0.05278 0.4858 0.0
C772 C 0.28794 0.04561 0.49796 0.0
C773 C 0.25846 0.04792 0.50172 0.0
C774 C 0.3044 0.03229 0.50666 0.0
C775 C 0.33175 0.05339 0.48139 0.0
C776 C 0.30504 0.00109 0.50416 0.0
C777 C 0.31649 0.98591 0.51286 0.0
C778 C 0.32714 0.00142 0.52428 0.0
C779 C 0.3271 0.03298 0.52671 0.0
C780 C 0.31586 0.0483 0.51797 0.0
H781 H 0.34323 0.07141 0.47355 0.0
H782 H 0.35217 0.06193 0.48857 0.0
H783 H 0.32483 0.02644 0.47841 0.0
H784 H 0.29531 0.98764 0.49564 0.0
H785 H 0.31584 0.96134 0.51082 0.0
H786 H 0.15998 0.22349 0.77622 0.0
H787 H 0.20215 0.26084 0.7917 0.0
H788 H 0.13951 0.18449 0.81883 0.0
H789 H 0.09825 0.14629 0.80344 0.0
H790 H 0.19673 0.29181 0.8132 0.0
H791 H 0.236 0.19069 0.82157 0.0
H792 H 0.20949 0.18878 0.80879 0.0
H793 H 0.18949 0.17439 0.82335 0.0
C794 C 0.15515 0.21464 0.78548 0.0
C795 C 0.12591 0.18165 0.78854 0.0
C796 C 0.17911 0.23617 0.79432 0.0
C797 C 0.17423 0.22507 0.80636 0.0
C798 C 0.14402 0.19322 0.80955 0.0
H799 H 0.30298 0.364 0.87277 0.0
H800 H 0.24905 0.32716 0.85459 0.0
C801 C 0.12022 0.1716 0.80073 0.0
C802 C 0.20183 0.24556 0.81545 0.0
H803 H 0.25918 0.23939 0.83486 0.0
C804 C 0.21049 0.28048 0.81795 0.0
C805 C 0.22019 0.23088 0.82143 0.0
C806 C 0.21364 0.19426 0.81859 0.0
C807 C 0.23681 0.30101 0.82643 0.0
C808 C 0.25423 0.2858 0.83271 0.0
C809 C 0.24576 0.25104 0.83009 0.0
C810 C 0.28198 0.3052 0.84181 0.0
C811 C 0.24633 0.33899 0.82823 0.0
C812 C 0.32122 0.30115 0.84126 0.0
C813 C 0.35516 0.32148 0.85253 0.0
C814 C 0.34995 0.35204 0.8628 0.0
C815 C 0.30637 0.34871 0.86581 0.0
C816 C 0.27389 0.3274 0.85407 0.0
H817 H 0.23945 0.34954 0.82019 0.0
H818 H 0.23109 0.34058 0.83592 0.0
H819 H 0.27498 0.35615 0.83013 0.0
H820 H 0.32441 0.28633 0.83408 0.0
H821 H 0.38001 0.32179 0.85168 0.0
H822 H 0.84647 0.00104 0.70426 0.0
H823 H 0.80714 0.00965 0.69075 0.0
H824 H 0.89424 0.11056 0.67978 0.0
H825 H 0.93354 0.10279 0.69364 0.0
H826 H 0.83658 0.1145 0.68663 0.0
H827 H 0.79561 0.00401 0.65448 0.0
H828 H 0.78909 0.98965 0.66987 0.0
H829 H 0.83322 0.01838 0.66441 0.0
C830 C 0.8573 0.02506 0.69896 0.0
C831 C 0.89311 0.05133 0.70009 0.0
C832 C 0.83489 0.02968 0.6911 0.0
C833 C 0.8479 0.06048 0.68411 0.0
C834 C 0.88377 0.08643 0.68501 0.0
H835 H 0.7328 0.14149 0.64233 0.0
H836 H 0.78005 0.13142 0.6498 0.0
C837 C 0.90621 0.08187 0.6929 0.0
C838 C 0.82334 0.06705 0.67678 0.0
H839 H 0.75959 0.03137 0.65498 0.0
C840 C 0.82015 0.09665 0.67957 0.0
C841 C 0.80185 0.04361 0.66762 0.0
C842 C 0.80532 0.01232 0.66383 0.0
C843 C 0.79507 0.10273 0.67379 0.0
C844 C 0.77296 0.07882 0.66485 0.0
C845 C 0.77663 0.04962 0.66184 0.0
C846 C 0.74457 0.08279 0.65907 0.0
C847 C 0.79141 0.13389 0.67764 0.0
C848 C 0.70906 0.05813 0.66149 0.0
C849 C 0.68212 0.06373 0.6572 0.0
C850 C 0.69025 0.0939 0.65032 0.0
C851 C 0.72582 0.11789 0.64753 0.0
C852 C 0.75276 0.11227 0.65183 0.0
H853 H 0.80567 0.1457 0.68619 0.0
H854 H 0.80259 0.15461 0.67058 0.0
H855 H 0.7631 0.12589 0.6788 0.0
H856 H 0.70228 0.03526 0.66708 0.0
H857 H 0.65497 0.04501 0.65956 0.0
H858 H 0.81757 0.85341 0.05476 0.0
H859 H 0.77609 0.80843 0.04074 0.0
H860 H 0.82358 0.88128 0.01124 0.0
H861 H 0.86539 0.92629 0.02514 0.0
H862 H 0.74418 0.83447 0.01078 0.0
H863 H 0.82088 0.76508 0.01767 0.0
H864 H 0.80479 0.77585 0.03093 0.0
H865 H 0.83803 0.81067 0.02191 0.0
C866 C 0.8189 0.85998 0.0453 0.0
C867 C 0.84506 0.89321 0.04102 0.0
C868 C 0.7951 0.83435 0.03734 0.0
C869 C 0.79715 0.84153 0.02498 0.0
C870 C 0.82162 0.87537 0.02077 0.0
H871 H 0.72313 0.73304 0.95787 0.0
H872 H 0.74089 0.77508 0.97452 0.0
C873 C 0.84543 0.90105 0.02873 0.0
C874 C 0.77676 0.81276 0.01631 0.0
H875 H 0.77366 0.73985 0.00402 0.0
C876 C 0.7503 0.81354 0.00933 0.0
C877 C 0.78494 0.78562 0.0145 0.0
C878 C 0.81384 0.78416 0.02156 0.0
C879 C 0.73177 0.78775 0.0005 0.0
C880 C 0.74069 0.76115 0.99845 0.0
C881 C 0.7667 0.76011 0.00563 0.0
C882 C 0.72527 0.73533 0.98846 0.0
C883 C 0.70278 0.78918 0.99352 0.0
C884 C 0.71099 0.69905 0.99074 0.0
C885 C 0.70152 0.67513 0.98123 0.0
C886 C 0.70566 0.687 0.96926 0.0
C887 C 0.71899 0.72316 0.96701 0.0
C888 C 0.72887 0.74714 0.97652 0.0
H889 H 0.69119 0.80253 -0.00124 0.0
H890 H 0.71404 0.80463 0.98515 0.0
H891 H 0.6813 0.76228 0.99103 0.0
H892 H 0.70837 0.68941 -0.00012 0.0
H893 H 0.692 0.64754 0.98325 0.0
H894 H 0.94363 0.86774 0.36564 0.0
H895 H 0.93851 0.82018 0.35259 0.0
H896 H 0.04338 0.84393 0.36309 0.0
H897 H 0.04907 0.89182 0.37593 0.0
H898 H 0.98741 0.82313 0.33306 0.0
H899 H 0.97454 0.73684 0.37185 0.0
H900 H 0.96645 0.77345 0.37309 0.0
H901 H 0.011 0.78146 0.37261 0.0
C902 C 0.96577 0.86314 0.36505 0.0
C903 C 0.9966 0.88328 0.37193 0.0
C904 C 0.96274 0.83593 0.35763 0.0
C905 C 0.9904 0.8284 0.35703 0.0
C906 C 0.02156 0.84909 0.36359 0.0
H907 H 0.02652 0.66849 0.32667 0.0
H908 H 0.03046 0.72032 0.33657 0.0
C909 C 0.02466 0.87628 0.37097 0.0
C910 C 0.98649 0.7982 0.34988 0.0
H911 H 0.98156 0.71805 0.35265 0.0
C912 C 0.98588 0.79999 0.33729 0.0
C913 C 0.9845 0.76819 0.3555 0.0
C914 C 0.98386 0.76454 0.36901 0.0
C915 C 0.98444 0.77283 0.33013 0.0
C916 C 0.98293 0.74299 0.33577 0.0
C917 C 0.98293 0.74105 0.34836 0.0
C918 C 0.98181 0.71353 0.32885 0.0
C919 C 0.98564 0.77676 0.31663 0.0
C920 C 0.95322 0.69265 0.32119 0.0
C921 C 0.95104 0.66314 0.31547 0.0
C922 C 0.97736 0.65398 0.31737 0.0
C923 C 0.00609 0.67516 0.32495 0.0
C924 C 0.00831 0.70468 0.33062 0.0
H925 H 0.99554 0.80462 0.31386 0.0
H926 H 0.00281 0.76751 0.31259 0.0
H927 H 0.95855 0.76039 0.31292 0.0
H928 H 0.93207 0.69854 0.31993 0.0
H929 H 0.92836 0.64693 0.30981 0.0
H930 H 0.17725 0.00238 0.72173 0.0
H931 H 0.21931 0.99787 0.70838 0.0
H932 H 0.15525 0.99062 0.67769 0.0
H933 H 0.1134 0.99582 0.69094 0.0
H934 H 0.20573 0.94236 0.69158 0.0
H935 H 0.256 0.07359 0.66967 0.0
H936 H 0.23182 0.06207 0.68364 0.0
H937 H 0.20873 0.04512 0.66968 0.0
C938 C 0.17224 4e-05 0.71213 0.0
C939 C 0.1421 -0.0004 0.70737 0.0
C940 C 0.19615 0.99727 0.70454 0.0
C941 C 0.19052 0.99431 0.69207 0.0
C942 C 0.16023 0.99332 0.68729 0.0
H943 H 0.30814 0.93804 0.6417 0.0
H944 H 0.26039 0.94047 0.65245 0.0
C945 C 0.13621 0.99595 0.69488 0.0
C946 C 0.21645 0.99227 0.68409 0.0
H947 H 0.27813 0.03758 0.66245 0.0
C948 C 0.22148 0.96305 0.68516 0.0
C949 C 0.23706 0.01951 0.67583 0.0
C950 C 0.23348 0.05203 0.67465 0.0
C951 C 0.24678 0.9604 0.6782 0.0
C952 C 0.26724 0.98753 0.66987 0.0
C953 C 0.26212 0.0167 0.66877 0.0
C954 C 0.29556 0.9871 0.66274 0.0
C955 C 0.25215 0.92913 0.68005 0.0
C956 C 0.33094 0.01307 0.66475 0.0
C957 C 0.35812 0.01187 0.65858 0.0
C958 C 0.35035 0.98491 0.6502 0.0
C959 C 0.3148 0.9593 0.64803 0.0
C960 C 0.28759 0.96051 0.65421 0.0
H961 H 0.23953 0.91452 0.68845 0.0
H962 H 0.24021 0.91058 0.67238 0.0
H963 H 0.28079 0.93776 0.68038 0.0
H964 H 0.33758 0.03377 0.67131 0.0
H965 H 0.38528 0.03168 0.66053 0.0
H966 H 0.11391 0.12055 0.02075 0.0
H967 H 0.15343 0.16536 0.00649 0.0
H968 H 0.2363 0.20821 0.03324 0.0
H969 H 0.19719 0.16263 0.04751 0.0
H970 H 0.18129 0.23725 0.01096 0.0
H971 H 0.28798 0.20575 0.00249 0.0
H972 H 0.24549 0.17389 0.00863 0.0
H973 H 0.27826 0.20795 0.01806 0.0
C974 C 0.14084 0.1388 0.02352 0.0
C975 C 0.15238 0.13802 0.03528 0.0
C976 C 0.16333 0.16456 0.01537 0.0
C977 C 0.19782 0.18993 0.01878 0.0
C978 C 0.20994 0.18854 0.03037 0.0
H979 H 0.31272 0.39581 0.98406 0.0
H980 H 0.28684 0.34827 -0.00101 0.0
C981 C 0.18743 0.16274 0.03855 0.0
C982 C 0.21955 0.21985 0.01063 0.0
H983 H 0.29644 0.26007 0.99459 0.0
C984 C 0.20647 0.24225 0.00737 0.0
C985 C 0.25226 0.22611 0.00595 0.0
C986 C 0.26682 0.20205 0.00885 0.0
C987 C 0.22513 0.27077 -0.00047 0.0
C988 C 0.25819 0.27752 0.995 0.0
C989 C 0.27129 0.25504 0.99821 0.0
C990 C 0.27851 0.3069 0.98648 0.0
C991 C 0.20882 0.29289 0.99592 0.0
C992 C 0.2838 0.29954 0.97465 0.0
C993 C 0.29904 0.32671 0.96615 0.0
C994 C 0.30952 0.36173 0.96937 0.0
C995 C 0.30534 0.36917 0.98135 0.0
C996 C 0.29032 0.34203 0.98986 0.0
H997 H 0.18 0.27919 0.99786 0.0
H998 H 0.22169 0.318 0.00108 0.0
H999 H 0.21277 0.29948 0.9862 0.0
H1000 H 0.27477 0.27258 0.97187 0.0
H1001 H 0.30153 0.32021 0.95695 0.0
H1002 H 0.10571 0.21463 0.37203 0.0
H1003 H 0.10673 0.25439 0.35619 0.0
H1004 H 0.99261 0.19943 0.35599 0.0
H1005 H 0.99129 0.15959 0.37161 0.0
H1006 H 0.07658 0.23532 0.33318 0.0
H1007 H 0.01865 0.30298 0.35847 0.0
H1008 H 0.03659 0.27837 0.36581 0.0
H1009 H 0.99245 0.25575 0.35967 0.0
C1010 C 0.08086 0.21115 0.36863 0.0
C1011 C 0.04841 0.18416 0.37316 0.0
C1012 C 0.08151 0.23394 0.35963 0.0
C1013 C 0.04976 0.23022 0.3551 0.0
C1014 C 0.01743 0.20335 0.3596 0.0
H1015 H 0.94631 0.30005 0.29895 0.0
H1016 H 0.96665 0.26784 0.31775 0.0
C1017 C 0.01674 0.18062 0.36856 0.0
C1018 C 0.04985 0.25286 0.34517 0.0
H1019 H 0.01518 0.3046 0.3369 0.0
C1020 C 0.06383 0.2511 0.33402 0.0
C1021 C 0.03326 0.27343 0.34633 0.0
C1022 C 0.01972 0.27808 0.35825 0.0
C1023 C 0.05964 0.26761 0.32379 0.0
C1024 C 0.04145 0.28665 0.32487 0.0
C1025 C 0.02887 0.28969 0.33611 0.0
C1026 C 0.03267 0.3015 0.31442 0.0
C1027 C 0.07287 0.26276 0.31183 0.0
C1028 C 0.06718 0.33268 0.30461 0.0
C1029 C 0.05678 0.35292 0.2923 0.0
C1030 C 0.01056 0.34482 0.29236 0.0
C1031 C 0.97344 0.30597 0.29986 0.0
C1032 C 0.98657 0.28735 0.31188 0.0
H1033 H 0.07753 0.23996 0.31197 0.0
H1034 H 0.05384 0.25865 0.3045 0.0
H1035 H 0.09839 0.28688 0.30974 0.0
H1036 H 0.09443 0.34 0.30628 0.0
H1037 H 0.07745 0.37383 0.28702 0.0
loop_
_geom_bond_atom_site_label_1
_geom_bond_atom_site_label_2
_geom_bond_distance
_geom_bond_site_symmetry_2
_ccdc_geom_bond_type
Li0 N17 1.990 . S
Li0 O60 1.956 . S
Li0 O61 1.990 . S
Li0 O62 1.961 1_545 S
Li1 N25 1.989 . S
Li1 O60 1.973 1_655 S
Li1 O61 1.956 1_655 S
Li1 O63 1.961 1_545 S
Li2 N47 1.990 . S
Li2 O60 1.961 1_565 S
Li2 O62 1.956 . S
Li2 O63 1.970 1_455 S
Li3 N53 1.990 . S
Li3 O61 1.961 1_665 S
Li3 O62 1.970 1_655 S
Li3 O63 1.956 . S
C4 C6 1.348 . S
C4 C7 1.356 . S
C4 O60 1.325 . S
N5 C8 1.314 . S
N5 C9 1.279 . S
C6 C4 1.348 . S
C6 C8 1.353 . S
C6 H64 0.929 . S
C7 C4 1.356 . S
C7 C9 1.358 . S
C7 H65 0.930 . S
C8 N5 1.314 . S
C8 C6 1.353 . S
C8 H66 0.930 . S
C9 N5 1.279 . S
C9 C7 1.358 . S
C9 H67 0.930 . S
C10 C13 1.348 1_655 S
C10 C14 1.356 . S
C10 O61 1.313 1_655 S
C11 N12 1.279 . S
C11 C14 1.358 . S
C11 H68 0.930 . S
N12 C11 1.279 . S
N12 C15 1.314 1_655 S
C13 C10 1.348 1_455 S
C13 C15 1.353 . S
C13 H69 0.929 . S
C14 C10 1.356 . S
C14 C11 1.358 . S
C14 H70 0.930 . S
C15 N12 1.314 1_455 S
C15 C13 1.353 . S
C15 H71 0.930 . S
C16 N17 1.314 . S
C16 C21 1.353 . S
C16 H22 0.930 . S
N17 Li0 1.990 . S
N17 C16 1.314 . S
N17 C19 1.279 . S
C18 C19 1.358 . S
C18 C20 1.356 . S
C18 H72 0.930 . S
C19 N17 1.279 . S
C19 C18 1.358 . S
C19 H23 0.930 . S
C20 C18 1.356 . S
C20 C21 1.348 . S
C21 C16 1.353 . S
C21 C20 1.348 . S
C21 H73 0.929 . S
H22 C16 0.930 . S
H23 C19 0.930 . S
C24 N25 1.314 . S
C24 C26 1.353 . S
C24 H30 0.930 . S
N25 Li1 1.989 . S
N25 C24 1.314 . S
N25 C28 1.279 . S
C26 C24 1.353 . S
C26 C29 1.348 . S
C26 H74 0.929 . S
C27 C28 1.358 . S
C27 C29 1.356 . S
C27 H75 0.930 . S
C28 N25 1.279 . S
C28 C27 1.358 . S
C28 H31 0.930 . S
C29 C26 1.348 . S
C29 C27 1.356 . S
H30 C24 0.930 . S
H31 C28 0.930 . S
C32 C34 1.348 . S
C32 C35 1.356 . S
C32 O62 1.325 . S
N33 C36 1.314 . S
N33 C37 1.279 . S
C34 C32 1.348 . S
C34 C36 1.353 . S
C34 H76 0.929 1_455 S
C35 C32 1.356 . S
C35 C37 1.358 . S
C35 H77 0.930 . S
C36 N33 1.314 . S
C36 C34 1.353 . S
C36 H78 0.930 1_455 S
C37 N33 1.279 . S
C37 C35 1.358 . S
C37 H79 0.930 . S
C38 C39 1.348 . S
C38 C40 1.356 . S
C38 O63 1.325 . S
C39 C38 1.348 . S
C39 C41 1.353 . S
C39 H80 0.929 . S
C40 C38 1.356 . S
C40 C42 1.358 . S
C40 H81 0.930 . S
C41 C39 1.353 . S
C41 N43 1.314 . S
C41 H82 0.930 . S
C42 C40 1.358 . S
C42 N43 1.279 . S
C42 H83 0.930 . S
N43 C41 1.314 . S
N43 C42 1.279 . S
C44 C46 1.353 . S
C44 N47 1.314 . S
C44 H50 0.930 . S
C45 N47 1.279 . S
C45 C48 1.358 . S
C45 H51 0.930 . S
C46 C44 1.353 . S
C46 C49 1.348 . S
C46 H84 0.929 . S
N47 Li2 1.990 . S
N47 C44 1.314 . S
N47 C45 1.279 . S
C48 C45 1.358 . S
C48 C49 1.356 . S
C48 H85 0.930 . S
C49 C46 1.348 . S
C49 C48 1.356 . S
H50 C44 0.930 . S
H51 C45 0.930 . S
C52 N53 1.314 . S
C52 C54 1.353 . S
C52 H58 0.930 . S
N53 Li3 1.990 . S
N53 C52 1.314 . S
N53 C56 1.279 . S
C54 C52 1.353 . S
C54 C57 1.348 . S
C54 H86 0.929 . S
C55 C56 1.358 . S
C55 C57 1.356 . S
C55 H87 0.930 . S
C56 N53 1.279 . S
C56 C55 1.358 . S
C56 H59 0.930 . S
C57 C54 1.348 . S
C57 C55 1.356 . S
H58 C52 0.930 . S
H59 C56 0.930 . S
O60 Li0 1.956 . S
O60 Li1 1.973 1_455 S
O60 Li2 1.961 1_545 S
O60 C4 1.325 . S
O61 Li0 1.990 . S
O61 Li1 1.956 1_455 S
O61 Li3 1.961 1_445 S
O61 C10 1.313 1_455 S
O62 Li0 1.961 1_565 S
O62 Li2 1.956 . S
O62 Li3 1.970 1_455 S
O62 C32 1.325 . S
O63 Li1 1.961 1_565 S
O63 Li2 1.970 1_655 S
O63 Li3 1.956 . S
O63 C38 1.325 . S
H64 C6 0.929 . S
H65 C7 0.930 . S
H66 C8 0.930 . S
H67 C9 0.930 . S
H68 C11 0.930 . S
H69 C13 0.929 . S
H70 C14 0.930 . S
H71 C15 0.930 . S
H72 C18 0.930 . S
H73 C21 0.929 . S
H74 C26 0.929 . S
H75 C27 0.930 . S
H76 C34 0.929 1_655 S
H77 C35 0.930 . S
H78 C36 0.930 1_655 S
H79 C37 0.930 . S
H80 C39 0.929 . S
H81 C40 0.930 . S
H82 C41 0.930 . S
H83 C42 0.930 . S
H84 C46 0.929 . S
H85 C48 0.930 . S
H86 C54 0.929 . S
H87 C55 0.930 . S
Li88 N105 1.990 1_455 S
Li88 O148 1.956 . S
Li88 O149 1.970 1_565 S
Li88 O150 1.961 1_465 S
Li89 N113 1.990 . S
Li89 O148 1.970 1_545 S
Li89 O149 1.956 . S
Li89 O151 1.961 . S
Li90 N135 1.990 . S
Li90 O148 1.961 1_645 S
Li90 O150 1.956 . S
Li90 O151 1.970 1_655 S
Li91 N141 1.990 . S
Li91 O149 1.961 . S
Li91 O150 1.970 1_455 S
Li91 O151 1.956 . S
C92 C94 1.348 . S
C92 C95 1.356 1_455 S
C92 O148 1.325 . S
N93 C96 1.314 1_655 S
N93 C97 1.279 . S
C94 C92 1.348 . S
C94 C96 1.353 . S
C94 H152 0.929 . S
C95 C92 1.356 1_655 S
C95 C97 1.358 . S
C95 H153 0.930 . S
C96 N93 1.314 1_455 S
C96 C94 1.353 . S
C96 H154 0.930 . S
C97 N93 1.279 . S
C97 C95 1.358 . S
C97 H155 0.930 . S
C98 C101 1.348 . S
C98 C102 1.356 . S
C98 O149 1.325 . S
C99 N100 1.279 . S
C99 C102 1.358 . S
C99 H156 0.930 . S
N100 C99 1.279 . S
N100 C103 1.314 . S
C101 C98 1.348 . S
C101 C103 1.353 . S
C101 H157 0.929 1_545 S
C102 C98 1.356 . S
C102 C99 1.358 . S
C102 H158 0.930 . S
C103 N100 1.314 . S
C103 C101 1.353 . S
C103 H159 0.930 . S
C104 N105 1.314 . S
C104 C109 1.353 . S
C104 H110 0.930 . S
N105 Li88 1.990 1_655 S
N105 C104 1.314 . S
N105 C107 1.279 . S
C106 C107 1.358 . S
C106 C108 1.356 . S
C106 H160 0.930 . S
C107 N105 1.279 . S
C107 C106 1.358 . S
C107 H111 0.923 1_655 S
C108 C106 1.356 . S
C108 C109 1.348 . S
C109 C104 1.353 . S
C109 C108 1.348 . S
C109 H161 0.929 . S
H110 C104 0.930 . S
H111 C107 0.923 1_455 S
C112 N113 1.314 . S
C112 C114 1.353 . S
C112 H118 0.930 . S
N113 Li89 1.990 . S
N113 C112 1.314 . S
N113 C116 1.279 . S
C114 C112 1.353 . S
C114 C117 1.348 . S
C114 H162 0.929 . S
C115 C116 1.358 . S
C115 C117 1.356 . S
C115 H163 0.930 . S
C116 N113 1.279 . S
C116 C115 1.358 . S
C116 H119 0.930 . S
C117 C114 1.348 . S
C117 C115 1.356 . S
H118 C112 0.930 . S
H119 C116 0.930 . S
C120 C122 1.348 . S
C120 C123 1.356 1_545 S
C120 O150 1.325 . S
N121 C124 1.314 1_565 S
N121 C125 1.279 . S
C122 C120 1.348 . S
C122 C124 1.353 . S
C122 H164 0.929 . S
C123 C120 1.356 1_565 S
C123 C125 1.358 . S
C123 H165 0.930 . S
C124 N121 1.314 1_545 S
C124 C122 1.353 . S
C124 H166 0.930 . S
C125 N121 1.279 . S
C125 C123 1.358 . S
C125 H167 0.930 . S
C126 C127 1.348 . S
C126 C128 1.356 . S
C126 O151 1.325 . S
C127 C126 1.348 . S
C127 C129 1.353 . S
C127 H168 0.929 1_455 S
C128 C126 1.356 . S
C128 C130 1.358 . S
C128 H169 0.930 . S
C129 C127 1.353 . S
C129 N131 1.314 . S
C129 H170 0.930 . S
C130 C128 1.358 . S
C130 N131 1.279 . S
C130 H171 0.930 . S
N131 C129 1.314 . S
N131 C130 1.279 . S
C132 C134 1.353 . S
C132 N135 1.314 1_565 S
C132 H138 0.930 . S
C133 N135 1.279 . S
C133 C136 1.358 1_545 S
C133 H139 0.930 . S
C134 C132 1.353 . S
C134 C137 1.348 . S
C134 H172 0.929 . S
N135 Li90 1.990 . S
N135 C132 1.314 1_545 S
N135 C133 1.279 . S
C136 C133 1.358 1_565 S
C136 C137 1.356 . S
C136 H173 0.930 . S
C137 C134 1.348 . S
C137 C136 1.356 . S
H138 C132 0.930 . S
H139 C133 0.930 . S
C140 N141 1.314 . S
C140 C142 1.353 . S
C140 H146 0.930 . S
N141 Li91 1.990 . S
N141 C140 1.314 . S
N141 C144 1.279 . S
C142 C140 1.353 . S
C142 C145 1.348 . S
C142 H174 0.929 . S
C143 C144 1.358 . S
C143 C145 1.356 . S
C143 H175 0.930 . S
C144 N141 1.279 . S
C144 C143 1.358 . S
C144 H147 0.930 . S
C145 C142 1.348 . S
C145 C143 1.356 . S
H146 C140 0.930 . S
H147 C144 0.930 . S
O148 Li88 1.956 . S
O148 Li89 1.970 1_565 S
O148 Li90 1.961 1_465 S
O148 C92 1.325 . S
O149 Li88 1.970 1_545 S
O149 Li89 1.956 . S
O149 Li91 1.961 . S
O149 C98 1.325 . S
O150 Li88 1.961 1_645 S
O150 Li90 1.956 . S
O150 Li91 1.970 1_655 S
O150 C120 1.325 . S
O151 Li89 1.961 . S
O151 Li90 1.970 1_455 S
O151 Li91 1.956 . S
O151 C126 1.325 . S
H152 C94 0.929 . S
H153 C95 0.930 . S
H154 C96 0.930 . S
H155 C97 0.930 . S
H156 C99 0.930 . S
H157 C101 0.929 1_565 S
H158 C102 0.930 . S
H159 C103 0.930 . S
H160 C106 0.930 . S
H161 C109 0.929 . S
H162 C114 0.929 . S
H163 C115 0.930 . S
H164 C122 0.929 . S
H165 C123 0.930 . S
H166 C124 0.930 . S
H167 C125 0.930 . S
H168 C127 0.929 1_655 S
H169 C128 0.930 . S
H170 C129 0.930 . S
H171 C130 0.930 . S
H172 C134 0.929 . S
H173 C136 0.930 . S
H174 C142 0.929 . S
H175 C143 0.930 . S
Li176 N193 1.990 . S
Li176 O236 1.956 . S
Li176 O237 1.970 . S
Li176 O238 1.961 1_445 S
Li177 N201 1.990 . S
Li177 O236 1.970 . S
Li177 O237 1.956 . S
Li177 O239 1.961 1_455 S
Li178 N223 1.990 . S
Li178 O236 1.961 1_665 S
Li178 O238 1.956 . S
Li178 O239 1.970 1_565 S
Li179 N229 1.990 . S
Li179 O237 1.961 1_655 S
Li179 O238 1.970 1_545 S
Li179 O239 1.956 . S
C180 C182 1.348 . S
C180 C183 1.356 1_545 S
C180 O236 1.325 . S
N181 C184 1.314 1_565 S
N181 C185 1.279 . S
C182 C180 1.348 . S
C182 C184 1.353 . S
C182 H240 0.929 . S
C183 C180 1.356 1_565 S
C183 C185 1.358 . S
C183 H241 0.930 . S
C184 N181 1.314 1_545 S
C184 C182 1.353 . S
C184 H242 0.930 . S
C185 N181 1.279 . S
C185 C183 1.358 . S
C185 H243 0.930 . S
C186 C189 1.348 . S
C186 C190 1.356 . S
C186 O237 1.325 . S
C187 N188 1.279 . S
C187 C190 1.358 . S
C187 H244 0.930 . S
N188 C187 1.279 . S
N188 C191 1.314 . S
C189 C186 1.348 . S
C189 C191 1.353 . S
C189 H245 0.929 . S
C190 C186 1.356 . S
C190 C187 1.358 . S
C190 H246 0.930 . S
C191 N188 1.314 . S
C191 C189 1.353 . S
C191 H247 0.930 . S
C192 N193 1.314 1_565 S
C192 C197 1.353 . S
C192 H198 0.930 . S
N193 Li176 1.990 . S
N193 C192 1.314 1_545 S
N193 C195 1.279 . S
C194 C195 1.358 1_565 S
C194 C196 1.356 . S
C194 H248 0.930 . S
C195 N193 1.279 . S
C195 C194 1.358 1_545 S
C195 H199 0.930 . S
C196 C194 1.356 . S
C196 C197 1.348 . S
C197 C192 1.353 . S
C197 C196 1.348 . S
C197 H249 0.929 . S
H198 C192 0.930 . S
H199 C195 0.930 . S
C200 N201 1.314 . S
C200 C202 1.353 . S
C200 H206 0.930 . S
N201 Li177 1.990 . S
N201 C200 1.314 . S
N201 C204 1.279 . S
C202 C200 1.353 . S
C202 C205 1.348 . S
C202 H250 0.929 . S
C203 C204 1.358 . S
C203 C205 1.356 . S
C203 H251 0.930 . S
C204 N201 1.279 . S
C204 C203 1.358 . S
C204 H207 0.930 . S
C205 C202 1.348 . S
C205 C203 1.356 . S
H206 C200 0.930 . S
H207 C204 0.930 . S
C208 C210 1.348 . S
C208 C211 1.356 . S
C208 O238 1.325 . S
N209 C212 1.314 . S
N209 C213 1.279 . S
C210 C208 1.348 . S
C210 C212 1.353 . S
C210 H252 0.929 . S
C211 C208 1.356 . S
C211 C213 1.358 . S
C211 H253 0.930 . S
C212 N209 1.314 . S
C212 C210 1.353 . S
C212 H254 0.930 . S
C213 N209 1.279 . S
C213 C211 1.358 . S
C213 H255 0.930 . S
C214 C215 1.348 . S
C214 C216 1.356 . S
C214 O239 1.325 . S
C215 C214 1.348 . S
C215 C217 1.353 . S
C215 H256 0.929 1_545 S
C216 C214 1.356 . S
C216 C218 1.358 . S
C216 H257 0.930 . S
C217 C215 1.353 . S
C217 N219 1.314 . S
C217 H258 0.930 . S
C218 C216 1.358 . S
C218 N219 1.279 . S
C218 H259 0.930 . S
N219 C217 1.314 . S
N219 C218 1.279 . S
C220 C222 1.353 . S
C220 N223 1.314 . S
C220 H226 0.930 . S
C221 N223 1.279 . S
C221 C224 1.358 . S
C221 H227 0.930 . S
C222 C220 1.353 . S
C222 C225 1.348 . S
C222 H260 0.929 . S
N223 Li178 1.990 . S
N223 C220 1.314 . S
N223 C221 1.279 . S
C224 C221 1.358 . S
C224 C225 1.356 . S
C224 H261 0.930 . S
C225 C222 1.348 . S
C225 C224 1.356 . S
H226 C220 0.930 . S
H227 C221 0.930 . S
C228 N229 1.314 . S
C228 C230 1.353 . S
C228 H234 0.930 . S
N229 Li179 1.990 . S
N229 C228 1.314 . S
N229 C232 1.279 . S
C230 C228 1.353 . S
C230 C233 1.348 . S
C230 H262 0.929 . S
C231 C232 1.358 . S
C231 C233 1.356 . S
C231 H263 0.930 . S
C232 N229 1.279 . S
C232 C231 1.358 . S
C232 H235 0.930 . S
C233 C230 1.348 . S
C233 C231 1.356 . S
H234 C228 0.930 . S
H235 C232 0.930 . S
O236 Li176 1.956 . S
O236 Li177 1.970 . S
O236 Li178 1.961 1_445 S
O236 C180 1.325 . S
O237 Li176 1.970 . S
O237 Li177 1.956 . S
O237 Li179 1.961 1_455 S
O237 C186 1.325 . S
O238 Li176 1.961 1_665 S
O238 Li178 1.956 . S
O238 Li179 1.970 1_565 S
O238 C208 1.325 . S
O239 Li177 1.961 1_655 S
O239 Li178 1.970 1_545 S
O239 Li179 1.956 . S
O239 C214 1.325 . S
H240 C182 0.929 . S
H241 C183 0.930 . S
H242 C184 0.930 . S
H243 C185 0.930 . S
H244 C187 0.930 . S
H245 C189 0.929 . S
H246 C190 0.930 . S
H247 C191 0.930 . S
H248 C194 0.930 . S
H249 C197 0.929 . S
H250 C202 0.929 . S
H251 C203 0.930 . S
H252 C210 0.929 . S
H253 C211 0.930 . S
H254 C212 0.930 . S
H255 C213 0.930 . S
H256 C215 0.929 1_565 S
H257 C216 0.930 . S
H258 C217 0.930 . S
H259 C218 0.930 . S
H260 C222 0.929 . S
H261 C224 0.930 . S
H262 C230 0.929 . S
H263 C231 0.930 . S
C264 C265 1.560 . S
C264 H325 0.959 . S
C264 H326 0.959 . S
C264 H327 0.960 . S
C265 C264 1.560 . S
C265 O320 1.426 . S
C265 H324 0.980 1_655 S
C266 C267 1.407 1_655 S
C266 C271 1.418 . S
C266 O320 1.334 . S
C267 C266 1.407 1_455 S
C267 C268 1.360 . S
C267 H328 0.929 . S
C268 C267 1.360 . S
C268 C269 1.401 . S
C268 C272 1.527 . S
C269 C268 1.401 . S
C269 C270 1.405 1_455 S
C269 C302 1.587 . S
C270 C269 1.405 1_655 S
C270 C271 1.332 . S
C270 C273 1.496 . S
C271 C266 1.418 . S
C271 C270 1.332 . S
C271 H329 0.929 . S
C272 C268 1.527 . S
C272 H330 0.959 . S
C272 H331 0.961 . S
C272 H332 0.961 . S
C273 C270 1.496 . S
C273 H333 0.960 . S
C273 H334 0.960 . S
C273 H335 0.961 . S
C274 C275 1.517 . S
C274 H337 0.961 . S
C274 H338 0.960 . S
C274 H339 0.959 . S
C275 C274 1.517 . S
C275 O323 1.468 . S
C275 H336 0.980 . S
C276 C277 1.349 . S
C276 C281 1.367 . S
C276 O323 1.408 . S
C277 C276 1.349 . S
C277 C278 1.407 . S
C277 H340 0.930 . S
C278 C277 1.407 . S
C278 C279 1.449 . S
C278 C282 1.535 1_455 S
C279 C278 1.449 . S
C279 C280 1.384 . S
C279 C304 1.553 . S
C280 C279 1.384 . S
C280 C281 1.364 . S
C280 C283 1.450 . S
C281 C276 1.367 . S
C281 C280 1.364 . S
C281 H341 0.931 . S
C282 C278 1.535 1_655 S
C282 H342 0.959 . S
C282 H343 0.961 . S
C282 H344 0.959 . S
C283 C280 1.450 . S
C283 H345 0.960 . S
C283 H346 0.960 . S
C283 H347 0.960 . S
C284 C285 1.309 . S
C284 C289 1.304 . S
C284 O322 1.435 . S
C285 C284 1.309 . S
C285 C286 1.476 . S
C285 H349 0.930 1_455 S
C286 C285 1.476 . S
C286 C287 1.400 . S
C286 C290 1.567 1_455 S
C287 C286 1.400 . S
C287 C288 1.373 . S
C287 C309 1.432 . S
C288 C287 1.373 . S
C288 C289 1.339 . S
C288 C291 1.530 . S
C289 C284 1.304 . S
C289 C288 1.339 . S
C289 H350 0.930 . S
C290 C286 1.567 1_655 S
C290 H351 0.961 . S
C290 H352 0.960 . S
C290 H353 0.958 . S
C291 C288 1.530 . S
C291 H354 0.961 . S
C291 H355 0.960 . S
C291 H356 0.960 . S
C292 C293 1.530 1_655 S
C292 H358 0.961 . S
C292 H359 0.961 . S
C292 H360 0.959 . S
C293 C292 1.530 1_455 S
C293 O321 1.412 1_455 S
C293 H357 0.980 . S
C294 C295 1.288 . S
C294 C299 1.377 1_655 S
C294 O321 1.393 . S
C295 C294 1.288 . S
C295 C296 1.369 . S
C295 H361 0.932 . S
C296 C295 1.369 . S
C296 C297 1.398 1_655 S
C296 C300 1.527 . S
C297 C296 1.398 1_455 S
C297 C298 1.380 . S
C297 C311 1.497 . S
C298 C297 1.380 . S
C298 C299 1.383 . S
C298 C301 1.603 . S
C299 C294 1.377 1_455 S
C299 C298 1.383 . S
C299 H362 0.929 . S
C300 C296 1.527 . S
C300 H363 0.961 . S
C300 H364 0.959 . S
C300 H365 0.959 . S
C301 C298 1.603 . S
C301 H366 0.960 . S
C301 H367 0.962 . S
C301 H368 0.961 . S
C302 C269 1.587 . S
C302 C303 1.360 . S
C302 C315 1.412 . S
C303 C302 1.360 . S
C303 C304 1.365 . S
C303 H369 0.929 . S
C304 C279 1.553 . S
C304 C303 1.365 . S
C304 C305 1.404 . S
C305 C304 1.404 . S
C305 C306 1.395 . S
C305 C316 1.451 . S
C306 C305 1.395 . S
C306 C307 1.322 . S
C306 H370 0.930 . S
C307 C306 1.322 . S
C307 C308 1.459 . S
C307 H371 0.929 . S
C308 C307 1.459 . S
C308 C309 1.445 . S
C308 C317 1.395 . S
C309 C287 1.432 . S
C309 C308 1.445 . S
C309 C310 1.370 . S
C310 C309 1.370 . S
C310 C311 1.438 . S
C310 H372 0.930 . S
C311 C297 1.497 . S
C311 C310 1.438 . S
C311 C312 1.360 . S
C312 C311 1.360 . S
C312 C313 1.401 . S
C312 C317 1.446 . S
C313 C312 1.401 . S
C313 C314 1.347 . S
C313 H373 0.929 . S
C314 C313 1.347 . S
C314 C315 1.455 . S
C314 H374 0.930 . S
C315 C302 1.412 . S
C315 C314 1.455 . S
C315 C316 1.331 . S
C316 C305 1.451 . S
C316 C315 1.331 . S
C316 C317 1.497 . S
C317 C308 1.395 . S
C317 C312 1.446 . S
C317 C316 1.497 . S
C318 C319 1.582 . S
C318 H375 0.962 . S
C318 H376 0.959 . S
C318 H377 0.958 . S
C319 C318 1.582 . S
C319 O322 1.458 . S
C319 H348 0.980 . S
O320 C265 1.426 . S
O320 C266 1.334 . S
O321 C293 1.412 1_655 S
O321 C294 1.393 . S
O322 C284 1.435 . S
O322 C319 1.458 . S
O323 C275 1.468 . S
O323 C276 1.408 . S
H324 C265 0.980 1_455 S
H325 C264 0.959 . S
H326 C264 0.959 . S
H327 C264 0.960 . S
H328 C267 0.929 . S
H329 C271 0.929 . S
H330 C272 0.959 . S
H331 C272 0.961 . S
H332 C272 0.961 . S
H333 C273 0.960 . S
H334 C273 0.960 . S
H335 C273 0.961 . S
H336 C275 0.980 . S
H337 C274 0.961 . S
H338 C274 0.960 . S
H339 C274 0.959 . S
H340 C277 0.930 . S
H341 C281 0.931 . S
H342 C282 0.959 . S
H343 C282 0.961 . S
H344 C282 0.959 . S
H345 C283 0.960 . S
H346 C283 0.960 . S
H347 C283 0.960 . S
H348 C319 0.980 . S
H349 C285 0.930 1_655 S
H350 C289 0.930 . S
H351 C290 0.961 . S
H352 C290 0.960 . S
H353 C290 0.958 . S
H354 C291 0.961 . S
H355 C291 0.960 . S
H356 C291 0.960 . S
H357 C293 0.980 . S
H358 C292 0.961 . S
H359 C292 0.961 . S
H360 C292 0.959 . S
H361 C295 0.932 . S
H362 C299 0.929 . S
H363 C300 0.961 . S
H364 C300 0.959 . S
H365 C300 0.959 . S
H366 C301 0.960 . S
H367 C301 0.962 . S
H368 C301 0.961 . S
H369 C303 0.929 . S
H370 C306 0.930 . S
H371 C307 0.929 . S
H372 C310 0.930 . S
H373 C313 0.929 . S
H374 C314 0.930 . S
H375 C318 0.962 . S
H376 C318 0.959 . S
H377 C318 0.958 . S
C378 C379 1.560 1_565 S
C378 H439 0.959 . S
C378 H440 0.959 . S
C378 H441 0.960 . S
C379 C378 1.560 1_545 S
C379 O434 1.426 1_545 S
C379 H438 0.980 . S
C380 C381 1.407 . S
C380 C385 1.418 1_545 S
C380 O434 1.334 1_545 S
C381 C380 1.407 . S
C381 C382 1.360 . S
C381 H442 0.929 . S
C382 C381 1.360 . S
C382 C383 1.401 . S
C382 C386 1.527 . S
C383 C382 1.401 . S
C383 C384 1.405 1_545 S
C383 C416 1.587 . S
C384 C383 1.405 1_565 S
C384 C385 1.332 . S
C384 C387 1.496 . S
C385 C380 1.418 1_565 S
C385 C384 1.332 . S
C385 H443 0.929 . S
C386 C382 1.527 . S
C386 H444 0.959 . S
C386 H445 0.961 . S
C386 H446 0.961 . S
C387 C384 1.496 . S
C387 H447 0.960 . S
C387 H448 0.960 . S
C387 H449 0.961 . S
C388 C389 1.517 . S
C388 H451 0.961 . S
C388 H452 0.960 . S
C388 H453 0.959 . S
C389 C388 1.517 . S
C389 O437 1.468 . S
C389 H450 0.980 . S
C390 C391 1.349 . S
C390 C395 1.367 . S
C390 O437 1.408 . S
C391 C390 1.349 . S
C391 C392 1.407 . S
C391 H454 0.930 . S
C392 C391 1.407 . S
C392 C393 1.449 . S
C392 C396 1.535 1_545 S
C393 C392 1.449 . S
C393 C394 1.384 . S
C393 C418 1.553 . S
C394 C393 1.384 . S
C394 C395 1.364 . S
C394 C397 1.450 . S
C395 C390 1.367 . S
C395 C394 1.364 . S
C395 H455 0.931 . S
C396 C392 1.535 1_565 S
C396 H456 0.959 . S
C396 H457 0.961 . S
C396 H458 0.959 . S
C397 C394 1.450 . S
C397 H459 0.960 . S
C397 H460 0.960 . S
C397 H461 0.960 . S
C398 C399 1.309 . S
C398 C403 1.304 . S
C398 O436 1.435 . S
C399 C398 1.309 . S
C399 C400 1.476 . S
C399 H463 0.930 . S
C400 C399 1.476 . S
C400 C401 1.400 . S
C400 C404 1.567 1_545 S
C401 C400 1.400 . S
C401 C402 1.373 . S
C401 C423 1.432 . S
C402 C401 1.373 . S
C402 C403 1.339 . S
C402 C405 1.530 . S
C403 C398 1.304 . S
C403 C402 1.339 . S
C403 H464 0.930 . S
C404 C400 1.567 1_565 S
C404 H465 0.961 . S
C404 H466 0.960 . S
C404 H467 0.958 . S
C405 C402 1.530 . S
C405 H468 0.961 . S
C405 H469 0.960 . S
C405 H470 0.960 . S
C406 C407 1.530 1_565 S
C406 H472 0.961 1_565 S
C406 H473 0.961 . S
C406 H474 0.959 . S
C407 C406 1.530 1_545 S
C407 O435 1.412 1_545 S
C407 H471 0.980 . S
C408 C409 1.288 1_545 S
C408 C413 1.377 . S
C408 O435 1.393 1_545 S
C409 C408 1.288 1_565 S
C409 C410 1.369 . S
C409 H475 0.932 . S
C410 C409 1.369 . S
C410 C411 1.398 1_565 S
C410 C414 1.527 . S
C411 C410 1.398 1_545 S
C411 C412 1.380 . S
C411 C425 1.497 . S
C412 C411 1.380 . S
C412 C413 1.383 . S
C412 C415 1.603 . S
C413 C408 1.377 . S
C413 C412 1.383 . S
C413 H476 0.929 . S
C414 C410 1.527 . S
C414 H477 0.961 . S
C414 H478 0.959 . S
C414 H479 0.959 . S
C415 C412 1.603 . S
C415 H480 0.960 . S
C415 H481 0.962 . S
C415 H482 0.961 . S
C416 C383 1.587 . S
C416 C417 1.360 . S
C416 C429 1.412 . S
C417 C416 1.360 . S
C417 C418 1.365 . S
C417 H483 0.929 . S
C418 C393 1.553 . S
C418 C417 1.365 . S
C418 C419 1.404 . S
C419 C418 1.404 . S
C419 C420 1.395 . S
C419 C430 1.451 . S
C420 C419 1.395 . S
C420 C421 1.322 . S
C420 H484 0.930 . S
C421 C420 1.322 . S
C421 C422 1.459 . S
C421 H485 0.929 . S
C422 C421 1.459 . S
C422 C423 1.445 . S
C422 C431 1.395 . S
C423 C401 1.432 . S
C423 C422 1.445 . S
C423 C424 1.370 . S
C424 C423 1.370 . S
C424 C425 1.438 . S
C424 H486 0.930 . S
C425 C411 1.497 . S
C425 C424 1.438 . S
C425 C426 1.360 . S
C426 C425 1.360 . S
C426 C427 1.401 . S
C426 C431 1.446 . S
C427 C426 1.401 . S
C427 C428 1.347 . S
C427 H487 0.929 . S
C428 C427 1.347 . S
C428 C429 1.455 . S
C428 H488 0.930 . S
C429 C416 1.412 . S
C429 C428 1.455 . S
C429 C430 1.331 . S
C430 C419 1.451 . S
C430 C429 1.331 . S
C430 C431 1.497 . S
C431 C422 1.395 . S
C431 C426 1.446 . S
C431 C430 1.497 . S
C432 C433 1.582 . S
C432 H489 0.962 . S
C432 H490 0.959 . S
C432 H491 0.958 . S
C433 C432 1.582 . S
C433 O436 1.458 . S
C433 H462 0.980 . S
O434 C379 1.426 1_565 S
O434 C380 1.334 1_565 S
O435 C407 1.412 1_565 S
O435 C408 1.393 1_565 S
O436 C398 1.435 . S
O436 C433 1.458 . S
O437 C389 1.468 . S
O437 C390 1.408 . S
H438 C379 0.980 . S
H439 C378 0.959 . S
H440 C378 0.959 . S
H441 C378 0.960 . S
H442 C381 0.929 . S
H443 C385 0.929 . S
H444 C386 0.959 . S
H445 C386 0.961 . S
H446 C386 0.961 . S
H447 C387 0.960 . S
H448 C387 0.960 . S
H449 C387 0.961 . S
H450 C389 0.980 . S
H451 C388 0.961 . S
H452 C388 0.960 . S
H453 C388 0.959 . S
H454 C391 0.930 . S
H455 C395 0.931 . S
H456 C396 0.959 . S
H457 C396 0.961 . S
H458 C396 0.959 . S
H459 C397 0.960 . S
H460 C397 0.960 . S
H461 C397 0.960 . S
H462 C433 0.980 . S
H463 C399 0.930 . S
H464 C403 0.930 . S
H465 C404 0.961 . S
H466 C404 0.960 . S
H467 C404 0.958 . S
H468 C405 0.961 . S
H469 C405 0.960 . S
H470 C405 0.960 . S
H471 C407 0.980 . S
H472 C406 0.961 1_545 S
H473 C406 0.961 . S
H474 C406 0.959 . S
H475 C409 0.932 . S
H476 C413 0.929 . S
H477 C414 0.961 . S
H478 C414 0.959 . S
H479 C414 0.959 . S
H480 C415 0.960 . S
H481 C415 0.962 . S
H482 C415 0.961 . S
H483 C417 0.929 . S
H484 C420 0.930 . S
H485 C421 0.929 . S
H486 C424 0.930 . S
H487 C427 0.929 . S
H488 C428 0.930 . S
H489 C432 0.962 . S
H490 C432 0.959 . S
H491 C432 0.958 . S
C492 C493 1.560 . S
C492 H553 0.959 . S
C492 H554 0.959 . S
C492 H555 0.960 . S
C493 C492 1.560 . S
C493 O548 1.426 . S
C493 H552 0.980 . S
C494 C495 1.407 . S
C494 C499 1.418 . S
C494 O548 1.334 . S
C495 C494 1.407 . S
C495 C496 1.360 . S
C495 H556 0.929 . S
C496 C495 1.360 . S
C496 C497 1.401 . S
C496 C500 1.527 . S
C497 C496 1.401 . S
C497 C498 1.405 . S
C497 C530 1.587 . S
C498 C497 1.405 . S
C498 C499 1.332 . S
C498 C501 1.496 . S
C499 C494 1.418 . S
C499 C498 1.332 . S
C499 H557 0.929 . S
C500 C496 1.527 . S
C500 H558 0.959 . S
C500 H559 0.961 . S
C500 H560 0.961 . S
C501 C498 1.496 . S
C501 H561 0.960 . S
C501 H562 0.960 . S
C501 H563 0.961 . S
C502 C503 1.517 . S
C502 H565 0.961 . S
C502 H566 0.960 . S
C502 H567 0.959 . S
C503 C502 1.517 . S
C503 O551 1.468 . S
C503 H564 0.980 . S
C504 C505 1.349 . S
C504 C509 1.367 . S
C504 O551 1.408 . S
C505 C504 1.349 . S
C505 C506 1.407 . S
C505 H568 0.930 . S
C506 C505 1.407 . S
C506 C507 1.449 . S
C506 C510 1.535 . S
C507 C506 1.449 . S
C507 C508 1.384 . S
C507 C532 1.553 . S
C508 C507 1.384 . S
C508 C509 1.364 . S
C508 C511 1.450 . S
C509 C504 1.367 . S
C509 C508 1.364 . S
C509 H569 0.931 . S
C510 C506 1.535 . S
C510 H570 0.959 . S
C510 H571 0.961 . S
C510 H572 0.959 . S
C511 C508 1.450 . S
C511 H573 0.960 . S
C511 H574 0.960 . S
C511 H575 0.960 . S
C512 C513 1.309 . S
C512 C517 1.304 . S
C512 O550 1.435 . S
C513 C512 1.309 . S
C513 C514 1.476 . S
C513 H577 0.930 . S
C514 C513 1.476 . S
C514 C515 1.400 . S
C514 C518 1.567 . S
C515 C514 1.400 . S
C515 C516 1.373 . S
C515 C537 1.432 . S
C516 C515 1.373 . S
C516 C517 1.339 . S
C516 C519 1.530 . S
C517 C512 1.304 . S
C517 C516 1.339 . S
C517 H578 0.930 . S
C518 C514 1.567 . S
C518 H579 0.961 . S
C518 H580 0.960 . S
C518 H581 0.958 . S
C519 C516 1.530 . S
C519 H582 0.961 . S
C519 H583 0.960 . S
C519 H584 0.960 . S
C520 C521 1.530 . S
C520 H586 0.961 . S
C520 H587 0.961 . S
C520 H588 0.959 . S
C521 C520 1.530 . S
C521 O549 1.412 . S
C521 H585 0.980 . S
C522 C523 1.288 . S
C522 C527 1.377 . S
C522 O549 1.393 . S
C523 C522 1.288 . S
C523 C524 1.369 . S
C523 H589 0.932 . S
C524 C523 1.369 . S
C524 C525 1.398 . S
C524 C528 1.527 . S
C525 C524 1.398 . S
C525 C526 1.380 . S
C525 C539 1.497 . S
C526 C525 1.380 . S
C526 C527 1.383 . S
C526 C529 1.603 . S
C527 C522 1.377 . S
C527 C526 1.383 . S
C527 H590 0.929 . S
C528 C524 1.527 . S
C528 H591 0.961 . S
C528 H592 0.959 . S
C528 H593 0.959 . S
C529 C526 1.603 . S
C529 H594 0.960 . S
C529 H595 0.962 . S
C529 H596 0.961 . S
C530 C497 1.587 . S
C530 C531 1.360 . S
C530 C543 1.412 . S
C531 C530 1.360 . S
C531 C532 1.365 . S
C531 H597 0.929 . S
C532 C507 1.553 . S
C532 C531 1.365 . S
C532 C533 1.404 . S
C533 C532 1.404 . S
C533 C534 1.395 . S
C533 C544 1.451 . S
C534 C533 1.395 . S
C534 C535 1.322 . S
C534 H598 0.930 . S
C535 C534 1.322 . S
C535 C536 1.459 . S
C535 H599 0.929 . S
C536 C535 1.459 . S
C536 C537 1.445 . S
C536 C545 1.395 . S
C537 C515 1.432 . S
C537 C536 1.445 . S
C537 C538 1.370 . S
C538 C537 1.370 . S
C538 C539 1.438 . S
C538 H600 0.930 . S
C539 C525 1.497 . S
C539 C538 1.438 . S
C539 C540 1.360 . S
C540 C539 1.360 . S
C540 C541 1.401 . S
C540 C545 1.446 . S
C541 C540 1.401 . S
C541 C542 1.347 . S
C541 H601 0.929 . S
C542 C541 1.347 . S
C542 C543 1.455 . S
C542 H602 0.930 . S
C543 C530 1.412 . S
C543 C542 1.455 . S
C543 C544 1.331 . S
C544 C533 1.451 . S
C544 C543 1.331 . S
C544 C545 1.497 . S
C545 C536 1.395 . S
C545 C540 1.446 . S
C545 C544 1.497 . S
C546 C547 1.582 . S
C546 H603 0.962 . S
C546 H604 0.959 . S
C546 H605 0.958 . S
C547 C546 1.582 . S
C547 O550 1.458 . S
C547 H576 0.980 . S
O548 C493 1.426 . S
O548 C494 1.334 . S
O549 C521 1.412 . S
O549 C522 1.393 . S
O550 C512 1.435 . S
O550 C547 1.458 . S
O551 C503 1.468 . S
O551 C504 1.408 . S
H552 C493 0.980 . S
H553 C492 0.959 . S
H554 C492 0.959 . S
H555 C492 0.960 . S
H556 C495 0.929 . S
H557 C499 0.929 . S
H558 C500 0.959 . S
H559 C500 0.961 . S
H560 C500 0.961 . S
H561 C501 0.960 . S
H562 C501 0.960 . S
H563 C501 0.961 . S
H564 C503 0.980 . S
H565 C502 0.961 . S
H566 C502 0.960 . S
H567 C502 0.959 . S
H568 C505 0.930 . S
H569 C509 0.931 . S
H570 C510 0.959 . S
H571 C510 0.961 . S
H572 C510 0.959 . S
H573 C511 0.960 . S
H574 C511 0.960 . S
H575 C511 0.960 . S
H576 C547 0.980 . S
H577 C513 0.930 . S
H578 C517 0.930 . S
H579 C518 0.961 . S
H580 C518 0.960 . S
H581 C518 0.958 . S
H582 C519 0.961 . S
H583 C519 0.960 . S
H584 C519 0.960 . S
H585 C521 0.980 . S
H586 C520 0.961 . S
H587 C520 0.961 . S
H588 C520 0.959 . S
H589 C523 0.932 . S
H590 C527 0.929 . S
H591 C528 0.961 . S
H592 C528 0.959 . S
H593 C528 0.959 . S
H594 C529 0.960 . S
H595 C529 0.962 . S
H596 C529 0.961 . S
H597 C531 0.929 . S
H598 C534 0.930 . S
H599 C535 0.929 . S
H600 C538 0.930 . S
H601 C541 0.929 . S
H602 C542 0.930 . S
H603 C546 0.962 . S
H604 C546 0.959 . S
H605 C546 0.958 . S
H606 C614 0.929 . S
H607 C616 0.930 . S
H608 C618 0.930 1_455 S
H609 C621 0.929 . S
H610 C624 0.930 . S
H611 C626 0.960 . S
H612 C626 0.960 . S
H613 C626 0.960 . S
C614 H606 0.929 . S
C614 C615 1.377 . S
C614 C616 1.384 . S
C615 C614 1.377 . S
C615 C621 1.390 . S
C616 H607 0.930 . S
C616 C614 1.384 . S
C616 C617 1.372 . S
C617 C616 1.372 . S
C617 C618 1.400 . S
C617 C622 1.490 . S
C618 H608 0.930 1_655 S
C618 C617 1.400 . S
C618 C621 1.386 . S
H619 C635 0.930 . S
H620 C636 0.931 . S
C621 H609 0.929 . S
C621 C615 1.390 . S
C621 C618 1.386 . S
C622 C617 1.490 . S
C622 C624 1.395 . S
C622 C625 1.403 1_655 S
H623 C629 0.930 . S
C624 H610 0.930 . S
C624 C622 1.395 . S
C624 C627 1.403 . S
C625 C622 1.403 1_455 S
C625 C626 1.524 . S
C625 C629 1.400 . S
C626 H611 0.960 . S
C626 H612 0.960 . S
C626 H613 0.960 . S
C626 C625 1.524 . S
C627 C624 1.403 . S
C627 C628 1.392 . S
C627 C631 1.495 . S
C628 C627 1.392 . S
C628 C629 1.385 1_655 S
C628 C630 1.478 . S
C629 H623 0.930 . S
C629 C625 1.400 . S
C629 C628 1.385 1_455 S
C630 C628 1.478 . S
C630 C632 1.381 . S
C630 C636 1.383 1_655 S
C631 C627 1.495 . S
C631 H637 0.959 . S
C631 H638 0.961 . S
C631 H639 0.960 . S
C632 C630 1.381 . S
C632 C633 1.394 . S
C632 H640 0.930 . S
C633 C632 1.394 . S
C633 C634 1.388 . S
C633 H641 0.929 . S
C634 C633 1.388 . S
C634 C635 1.369 1_655 S
C635 H619 0.930 . S
C635 C634 1.369 1_455 S
C635 C636 1.379 . S
C636 H620 0.931 . S
C636 C630 1.383 1_455 S
C636 C635 1.379 . S
H637 C631 0.959 . S
H638 C631 0.961 . S
H639 C631 0.960 . S
H640 C632 0.930 . S
H641 C633 0.929 . S
H642 C650 0.929 . S
H643 C652 0.930 . S
H644 C654 0.930 . S
H645 C657 0.929 . S
H646 C660 0.945 . S
H647 C662 0.960 . S
H648 C662 0.960 1_565 S
H649 C662 0.960 . S
C650 H642 0.929 . S
C650 C651 1.377 . S
C650 C652 1.384 . S
C651 C650 1.377 . S
C651 C657 1.390 1_565 S
C652 H643 0.930 . S
C652 C650 1.384 . S
C652 C653 1.372 . S
C653 C652 1.372 . S
C653 C654 1.400 1_565 S
C653 C658 1.491 . S
C654 H644 0.930 . S
C654 C653 1.400 1_545 S
C654 C657 1.386 . S
H655 C671 0.930 . S
H656 C672 0.931 . S
C657 H645 0.929 . S
C657 C651 1.390 1_545 S
C657 C654 1.386 . S
C658 C653 1.491 . S
C658 C660 1.392 . S
C658 C661 1.401 1_565 S
H659 C665 0.930 . S
C660 H646 0.945 . S
C660 C658 1.392 . S
C660 C663 1.393 1_565 S
C661 C658 1.401 1_545 S
C661 C662 1.524 . S
C661 C665 1.400 . S
C662 H647 0.960 . S
C662 H648 0.960 1_545 S
C662 H649 0.960 . S
C662 C661 1.524 . S
C663 C660 1.393 1_545 S
C663 C664 1.392 . S
C663 C667 1.495 . S
C664 C663 1.392 . S
C664 C665 1.385 . S
C664 C666 1.478 . S
C665 H659 0.930 . S
C665 C661 1.400 . S
C665 C664 1.385 . S
C666 C664 1.478 . S
C666 C668 1.381 1_545 S
C666 C672 1.383 . S
C667 C663 1.495 . S
C667 H673 0.957 1_545 S
C667 H674 0.961 . S
C667 H675 0.960 1_545 S
C668 C666 1.381 1_565 S
C668 C669 1.394 . S
C668 H676 0.930 . S
C669 C668 1.394 . S
C669 C670 1.383 1_565 S
C669 H677 0.929 . S
C670 C669 1.383 1_545 S
C670 C671 1.377 . S
C671 H655 0.930 . S
C671 C670 1.377 . S
C671 C672 1.379 . S
C672 H656 0.931 . S
C672 C666 1.383 . S
C672 C671 1.379 . S
H673 C667 0.957 1_565 S
H674 C667 0.961 . S
H675 C667 0.960 1_565 S
H676 C668 0.930 . S
H677 C669 0.929 . S
H678 C686 0.929 . S
H679 C688 0.930 . S
H680 C690 0.930 . S
H681 C693 0.929 . S
H682 C696 0.930 . S
H683 C698 0.960 . S
H684 C698 0.960 . S
H685 C698 0.960 . S
C686 H678 0.929 . S
C686 C687 1.377 . S
C686 C688 1.384 . S
C687 C686 1.377 . S
C687 C693 1.390 . S
C688 H679 0.930 . S
C688 C686 1.384 . S
C688 C689 1.372 . S
C689 C688 1.372 . S
C689 C690 1.400 . S
C689 C694 1.490 . S
C690 H680 0.930 . S
C690 C689 1.400 . S
C690 C693 1.386 . S
H691 C707 0.930 . S
H692 C708 0.931 . S
C693 H681 0.929 . S
C693 C687 1.390 . S
C693 C690 1.386 . S
C694 C689 1.490 . S
C694 C696 1.395 . S
C694 C697 1.403 . S
H695 C701 0.930 . S
C696 H682 0.930 . S
C696 C694 1.395 . S
C696 C699 1.403 . S
C697 C694 1.403 . S
C697 C698 1.524 . S
C697 C701 1.400 . S
C698 H683 0.960 . S
C698 H684 0.960 . S
C698 H685 0.960 . S
C698 C697 1.524 . S
C699 C696 1.403 . S
C699 C700 1.392 . S
C699 C703 1.495 . S
C700 C699 1.392 . S
C700 C701 1.385 . S
C700 C702 1.478 . S
C701 H695 0.930 . S
C701 C697 1.400 . S
C701 C700 1.385 . S
C702 C700 1.478 . S
C702 C704 1.381 . S
C702 C708 1.383 . S
C703 C699 1.495 . S
C703 H709 0.959 . S
C703 H710 0.961 . S
C703 H711 0.960 . S
C704 C702 1.381 . S
C704 C705 1.394 . S
C704 H712 0.930 . S
C705 C704 1.394 . S
C705 C706 1.383 . S
C705 H713 0.929 . S
C706 C705 1.383 . S
C706 C707 1.377 . S
C707 H691 0.930 . S
C707 C706 1.377 . S
C707 C708 1.379 . S
C708 H692 0.931 . S
C708 C702 1.383 . S
C708 C707 1.379 . S
H709 C703 0.959 . S
H710 C703 0.961 . S
H711 C703 0.960 . S
H712 C704 0.930 . S
H713 C705 0.929 . S
H714 C722 0.929 1_655 S
H715 C724 0.930 1_655 S
H716 C726 0.930 . S
H717 C729 0.929 . S
H718 C732 0.929 . S
H719 C734 0.960 . S
H720 C734 0.960 . S
H721 C734 0.960 . S
C722 H714 0.929 1_455 S
C722 C723 1.377 . S
C722 C724 1.384 . S
C723 C722 1.377 . S
C723 C729 1.390 . S
C724 H715 0.930 1_455 S
C724 C722 1.384 . S
C724 C725 1.372 . S
C725 C724 1.372 . S
C725 C726 1.400 . S
C725 C730 1.490 . S
C726 H716 0.930 . S
C726 C725 1.400 . S
C726 C729 1.386 . S
H727 C743 0.930 . S
H728 C744 0.931 . S
C729 H717 0.929 . S
C729 C723 1.390 . S
C729 C726 1.386 . S
C730 C725 1.490 . S
C730 C732 1.395 . S
C730 C733 1.403 . S
H731 C737 0.930 . S
C732 H718 0.929 . S
C732 C730 1.395 . S
C732 C735 1.403 . S
C733 C730 1.403 . S
C733 C734 1.524 . S
C733 C737 1.400 . S
C734 H719 0.960 . S
C734 H720 0.960 . S
C734 H721 0.960 . S
C734 C733 1.524 . S
C735 C732 1.403 . S
C735 C736 1.392 . S
C735 C739 1.495 1_455 S
C736 C735 1.392 . S
C736 C737 1.385 . S
C736 C738 1.478 . S
C737 H731 0.930 . S
C737 C733 1.400 . S
C737 C736 1.385 . S
C738 C736 1.478 . S
C738 C740 1.381 1_455 S
C738 C744 1.383 . S
C739 C735 1.495 1_655 S
C739 H745 0.959 . S
C739 H746 0.961 . S
C739 H747 0.960 . S
C740 C738 1.381 1_655 S
C740 C741 1.394 . S
C740 H748 0.930 . S
C741 C740 1.394 . S
C741 C742 1.383 1_655 S
C741 H749 0.929 . S
C742 C741 1.383 1_455 S
C742 C743 1.377 . S
C743 H727 0.930 . S
C743 C742 1.377 . S
C743 C744 1.379 . S
C744 H728 0.931 . S
C744 C738 1.383 . S
C744 C743 1.379 . S
H745 C739 0.959 . S
H746 C739 0.961 . S
H747 C739 0.960 . S
H748 C740 0.930 . S
H749 C741 0.929 . S
H750 C758 0.929 . S
H751 C760 0.930 . S
H752 C762 0.930 . S
H753 C765 0.929 . S
H754 C768 0.930 . S
H755 C770 0.960 . S
H756 C770 0.960 . S
H757 C770 0.960 . S
C758 H750 0.929 . S
C758 C759 1.377 . S
C758 C760 1.384 . S
C759 C758 1.377 . S
C759 C765 1.390 . S
C760 H751 0.930 . S
C760 C758 1.384 . S
C760 C761 1.372 . S
C761 C760 1.372 . S
C761 C762 1.400 . S
C761 C766 1.490 . S
C762 H752 0.930 . S
C762 C761 1.400 . S
C762 C765 1.386 . S
H763 C779 0.930 . S
H764 C780 0.931 . S
C765 H753 0.929 . S
C765 C759 1.390 . S
C765 C762 1.386 . S
C766 C761 1.490 . S
C766 C768 1.395 . S
C766 C769 1.403 . S
H767 C773 0.930 . S
C768 H754 0.930 . S
C768 C766 1.395 . S
C768 C771 1.403 . S
C769 C766 1.403 . S
C769 C770 1.524 . S
C769 C773 1.400 . S
C770 H755 0.960 . S
C770 H756 0.960 . S
C770 H757 0.960 . S
C770 C769 1.524 . S
C771 C768 1.403 . S
C771 C772 1.392 . S
C771 C775 1.495 . S
C772 C771 1.392 . S
C772 C773 1.385 . S
C772 C774 1.478 . S
C773 H767 0.930 . S
C773 C769 1.400 . S
C773 C772 1.385 . S
C774 C772 1.478 . S
C774 C776 1.381 . S
C774 C780 1.383 . S
C775 C771 1.495 . S
C775 H781 0.959 . S
C775 H782 0.961 . S
C775 H783 0.960 . S
C776 C774 1.381 . S
C776 C777 1.394 . S
C776 H784 0.930 . S
C777 C776 1.394 . S
C777 C778 1.383 . S
C777 H785 0.929 . S
C778 C777 1.383 . S
C778 C779 1.377 . S
C779 H763 0.930 . S
C779 C778 1.377 . S
C779 C780 1.379 . S
C780 H764 0.931 . S
C780 C774 1.383 . S
C780 C779 1.379 . S
H781 C775 0.959 . S
H782 C775 0.961 . S
H783 C775 0.960 . S
H784 C776 0.930 . S
H785 C777 0.929 . S
H786 C794 0.929 . S
H787 C796 0.930 . S
H788 C798 0.930 . S
H789 C801 0.929 . S
H790 C804 0.930 . S
H791 C806 0.960 . S
H792 C806 0.960 . S
H793 C806 0.960 . S
C794 H786 0.929 . S
C794 C795 1.377 . S
C794 C796 1.384 . S
C795 C794 1.377 . S
C795 C801 1.390 . S
C796 H787 0.930 . S
C796 C794 1.384 . S
C796 C797 1.372 . S
C797 C796 1.372 . S
C797 C798 1.400 . S
C797 C802 1.490 . S
C798 H788 0.930 . S
C798 C797 1.400 . S
C798 C801 1.386 . S
H799 C815 0.930 . S
H800 C816 0.931 . S
C801 H789 0.929 . S
C801 C795 1.390 . S
C801 C798 1.386 . S
C802 C797 1.490 . S
C802 C804 1.395 . S
C802 C805 1.403 . S
H803 C809 0.930 . S
C804 H790 0.930 . S
C804 C802 1.395 . S
C804 C807 1.403 . S
C805 C802 1.403 . S
C805 C806 1.524 . S
C805 C809 1.400 . S
C806 H791 0.960 . S
C806 H792 0.960 . S
C806 H793 0.960 . S
C806 C805 1.524 . S
C807 C804 1.403 . S
C807 C808 1.392 . S
C807 C811 1.495 . S
C808 C807 1.392 . S
C808 C809 1.385 . S
C808 C810 1.478 . S
C809 H803 0.930 . S
C809 C805 1.400 . S
C809 C808 1.385 . S
C810 C808 1.478 . S
C810 C812 1.381 . S
C810 C816 1.383 . S
C811 C807 1.495 . S
C811 H817 0.959 . S
C811 H818 0.961 . S
C811 H819 0.960 . S
C812 C810 1.381 . S
C812 C813 1.394 . S
C812 H820 0.930 . S
C813 C812 1.394 . S
C813 C814 1.383 . S
C813 H821 0.929 . S
C814 C813 1.383 . S
C814 C815 1.377 . S
C815 H799 0.930 . S
C815 C814 1.377 . S
C815 C816 1.379 . S
C816 H800 0.931 . S
C816 C810 1.383 . S
C816 C815 1.379 . S
H817 C811 0.959 . S
H818 C811 0.961 . S
H819 C811 0.960 . S
H820 C812 0.930 . S
H821 C813 0.929 . S
H822 C830 0.929 . S
H823 C832 0.930 . S
H824 C834 0.930 . S
H825 C837 0.929 . S
H826 C840 0.930 . S
H827 C842 0.960 1_565 S
H828 C842 0.960 1_565 S
H829 C842 0.960 . S
C830 H822 0.929 . S
C830 C831 1.377 . S
C830 C832 1.384 . S
C831 C830 1.377 . S
C831 C837 1.390 . S
C832 H823 0.930 . S
C832 C830 1.384 . S
C832 C833 1.372 . S
C833 C832 1.372 . S
C833 C834 1.400 . S
C833 C838 1.490 . S
C834 H824 0.930 . S
C834 C833 1.400 . S
C834 C837 1.386 . S
H835 C851 0.930 . S
H836 C852 0.931 . S
C837 H825 0.929 . S
C837 C831 1.390 . S
C837 C834 1.386 . S
C838 C833 1.490 . S
C838 C840 1.395 . S
C838 C841 1.403 . S
H839 C845 0.930 . S
C840 H826 0.930 . S
C840 C838 1.395 . S
C840 C843 1.403 . S
C841 C838 1.403 . S
C841 C842 1.524 . S
C841 C845 1.400 . S
C842 H827 0.960 1_545 S
C842 H828 0.960 1_545 S
C842 H829 0.960 . S
C842 C841 1.524 . S
C843 C840 1.403 . S
C843 C844 1.392 . S
C843 C847 1.495 . S
C844 C843 1.392 . S
C844 C845 1.385 . S
C844 C846 1.478 . S
C845 H839 0.930 . S
C845 C841 1.400 . S
C845 C844 1.385 . S
C846 C844 1.478 . S
C846 C848 1.381 . S
C846 C852 1.383 . S
C847 C843 1.495 . S
C847 H853 0.959 . S
C847 H854 0.961 . S
C847 H855 0.960 . S
C848 C846 1.381 . S
C848 C849 1.394 . S
C848 H856 0.930 . S
C849 C848 1.394 . S
C849 C850 1.383 . S
C849 H857 0.929 . S
C850 C849 1.383 . S
C850 C851 1.377 . S
C851 H835 0.930 . S
C851 C850 1.377 . S
C851 C852 1.379 . S
C852 H836 0.931 . S
C852 C846 1.383 . S
C852 C851 1.379 . S
H853 C847 0.959 . S
H854 C847 0.961 . S
H855 C847 0.960 . S
H856 C848 0.930 . S
H857 C849 0.929 . S
H858 C866 0.929 . S
H859 C868 0.930 . S
H860 C870 0.930 . S
H861 C873 0.929 . S
H862 C876 0.930 . S
H863 C878 0.960 . S
H864 C878 0.960 . S
H865 C878 0.960 . S
C866 H858 0.929 . S
C866 C867 1.377 . S
C866 C868 1.384 . S
C867 C866 1.377 . S
C867 C873 1.390 . S
C868 H859 0.930 . S
C868 C866 1.384 . S
C868 C869 1.372 . S
C869 C868 1.372 . S
C869 C870 1.400 . S
C869 C874 1.490 . S
C870 H860 0.930 . S
C870 C869 1.400 . S
C870 C873 1.386 . S
H871 C887 0.930 . S
H872 C888 0.931 . S
C873 H861 0.929 . S
C873 C867 1.390 . S
C873 C870 1.386 . S
C874 C869 1.490 . S
C874 C876 1.395 . S
C874 C877 1.403 . S
H875 C881 0.930 . S
C876 H862 0.930 . S
C876 C874 1.395 . S
C876 C879 1.403 . S
C877 C874 1.403 . S
C877 C878 1.524 . S
C877 C881 1.400 . S
C878 H863 0.960 . S
C878 H864 0.960 . S
C878 H865 0.960 . S
C878 C877 1.524 . S
C879 C876 1.403 . S
C879 C880 1.388 1_554 S
C879 C883 1.495 1_554 S
C880 C879 1.388 1_556 S
C880 C881 1.370 1_556 S
C880 C882 1.497 . S
C881 H875 0.930 . S
C881 C877 1.400 . S
C881 C880 1.370 1_554 S
C882 C880 1.497 . S
C882 C884 1.381 . S
C882 C888 1.383 . S
C883 C879 1.495 1_556 S
C883 H889 0.959 . S
C883 H890 0.961 . S
C883 H891 0.960 . S
C884 C882 1.381 . S
C884 C885 1.394 . S
C884 H892 0.991 . S
C885 C884 1.394 . S
C885 C886 1.383 . S
C885 H893 0.929 . S
C886 C885 1.383 . S
C886 C887 1.377 . S
C887 H871 0.930 . S
C887 C886 1.377 . S
C887 C888 1.379 . S
C888 H872 0.931 . S
C888 C882 1.383 . S
C888 C887 1.379 . S
H889 C883 0.959 . S
H890 C883 0.961 . S
H891 C883 0.960 . S
H892 C884 0.991 . S
H893 C885 0.929 . S
H894 C902 0.929 . S
H895 C904 0.930 . S
H896 C906 0.930 . S
H897 C909 0.929 . S
H898 C912 0.930 . S
H899 C914 0.960 . S
H900 C914 0.960 . S
H901 C914 0.960 1_455 S
C902 H894 0.929 . S
C902 C903 1.377 . S
C902 C904 1.384 . S
C903 C902 1.377 . S
C903 C909 1.390 1_655 S
C904 H895 0.930 . S
C904 C902 1.384 . S
C904 C905 1.372 . S
C905 C904 1.372 . S
C905 C906 1.400 1_655 S
C905 C910 1.490 . S
C906 H896 0.930 . S
C906 C905 1.400 1_455 S
C906 C909 1.386 . S
H907 C923 0.930 . S
H908 C924 0.931 . S
C909 H897 0.929 . S
C909 C903 1.390 1_455 S
C909 C906 1.386 . S
C910 C905 1.490 . S
C910 C912 1.395 . S
C910 C913 1.403 . S
H911 C917 0.930 . S
C912 H898 0.930 . S
C912 C910 1.395 . S
C912 C915 1.403 . S
C913 C910 1.403 . S
C913 C914 1.524 . S
C913 C917 1.400 . S
C914 H899 0.960 . S
C914 H900 0.960 . S
C914 H901 0.960 1_655 S
C914 C913 1.524 . S
C915 C912 1.403 . S
C915 C916 1.392 . S
C915 C919 1.495 . S
C916 C915 1.392 . S
C916 C917 1.385 . S
C916 C918 1.485 . S
C917 H911 0.930 . S
C917 C913 1.400 . S
C917 C916 1.385 . S
C918 C916 1.485 . S
C918 C920 1.389 . S
C918 C924 1.367 1_655 S
C919 C915 1.495 . S
C919 H925 0.959 . S
C919 H926 0.961 1_655 S
C919 H927 0.960 . S
C920 C918 1.389 . S
C920 C921 1.394 . S
C920 H928 0.930 . S
C921 C920 1.394 . S
C921 C922 1.383 1_655 S
C921 H929 0.929 . S
C922 C921 1.383 1_455 S
C922 C923 1.377 . S
C923 H907 0.930 . S
C923 C922 1.377 . S
C923 C924 1.379 . S
C924 H908 0.931 . S
C924 C918 1.367 1_455 S
C924 C923 1.379 . S
H925 C919 0.959 . S
H926 C919 0.961 1_455 S
H927 C919 0.960 . S
H928 C920 0.930 . S
H929 C921 0.929 . S
H930 C938 0.929 . S
H931 C940 0.938 1_545 S
H932 C942 0.930 . S
H933 C945 0.929 . S
H934 C948 0.930 . S
H935 C950 0.960 . S
H936 C950 0.960 . S
H937 C950 0.960 . S
C938 H930 0.929 . S
C938 C939 1.377 . S
C938 C940 1.384 . S
C939 C938 1.377 . S
C939 C945 1.390 . S
C940 H931 0.938 1_565 S
C940 C938 1.384 . S
C940 C941 1.372 . S
C941 C940 1.372 . S
C941 C942 1.400 . S
C941 C946 1.492 1_565 S
C942 H932 0.930 . S
C942 C941 1.400 . S
C942 C945 1.386 . S
H943 C959 0.930 . S
H944 C960 0.931 1_565 S
C945 H933 0.929 . S
C945 C939 1.390 . S
C945 C942 1.386 . S
C946 C941 1.492 1_545 S
C946 C948 1.390 1_545 S
C946 C949 1.406 . S
H947 C953 0.930 . S
C948 H934 0.930 . S
C948 C946 1.390 1_565 S
C948 C951 1.403 . S
C949 C946 1.406 . S
C949 C950 1.524 . S
C949 C953 1.400 . S
C950 H935 0.960 . S
C950 H936 0.960 . S
C950 H937 0.960 . S
C950 C949 1.524 . S
C951 C948 1.403 . S
C951 C952 1.392 1_565 S
C951 C955 1.495 . S
C952 C951 1.392 1_545 S
C952 C953 1.385 . S
C952 C954 1.478 . S
C953 H947 0.930 . S
C953 C949 1.400 . S
C953 C952 1.385 . S
C954 C952 1.478 . S
C954 C956 1.381 . S
C954 C960 1.383 . S
C955 C951 1.495 . S
C955 H961 0.959 . S
C955 H962 0.961 . S
C955 H963 0.960 . S
C956 C954 1.381 . S
C956 C957 1.394 . S
C956 H964 0.930 . S
C957 C956 1.394 . S
C957 C958 1.383 . S
C957 H965 0.929 . S
C958 C957 1.383 . S
C958 C959 1.377 . S
C959 H943 0.930 . S
C959 C958 1.377 . S
C959 C960 1.379 . S
C960 H944 0.931 1_545 S
C960 C954 1.383 . S
C960 C959 1.379 . S
H961 C955 0.959 . S
H962 C955 0.961 . S
H963 C955 0.960 . S
H964 C956 0.930 . S
H965 C957 0.929 . S
H966 C974 0.929 . S
H967 C976 0.930 . S
H968 C978 0.930 . S
H969 C981 0.929 . S
H970 C984 0.930 . S
H971 C986 0.960 1_556 S
H972 C986 0.960 . S
H973 C986 0.960 . S
C974 H966 0.929 . S
C974 C975 1.377 . S
C974 C976 1.384 . S
C975 C974 1.377 . S
C975 C981 1.390 . S
C976 H967 0.930 . S
C976 C974 1.384 . S
C976 C977 1.372 . S
C977 C976 1.372 . S
C977 C978 1.400 . S
C977 C982 1.490 . S
C978 H968 0.930 . S
C978 C977 1.400 . S
C978 C981 1.386 . S
H979 C995 0.930 . S
H980 C996 0.931 . S
C981 H969 0.929 . S
C981 C975 1.390 . S
C981 C978 1.386 . S
C982 C977 1.490 . S
C982 C984 1.395 . S
C982 C985 1.403 . S
H983 C989 0.930 . S
C984 H970 0.930 . S
C984 C982 1.395 . S
C984 C987 1.403 . S
C985 C982 1.403 . S
C985 C986 1.524 . S
C985 C989 1.400 1_554 S
C986 H971 0.960 1_554 S
C986 H972 0.960 . S
C986 H973 0.960 . S
C986 C985 1.524 . S
C987 C984 1.403 . S
C987 C988 1.392 1_554 S
C987 C991 1.495 . S
C988 C987 1.392 1_556 S
C988 C989 1.385 . S
C988 C990 1.478 . S
C989 H983 0.930 . S
C989 C985 1.400 1_556 S
C989 C988 1.385 . S
C990 C988 1.478 . S
C990 C992 1.381 . S
C990 C996 1.383 . S
C991 C987 1.495 . S
C991 H997 0.959 . S
C991 H998 0.961 . S
C991 H999 0.960 1_554 S
C992 C990 1.381 . S
C992 C993 1.394 . S
C992 H1000 0.930 . S
C993 C992 1.394 . S
C993 C994 1.383 . S
C993 H1001 0.929 . S
C994 C993 1.383 . S
C994 C995 1.377 . S
C995 H979 0.930 . S
C995 C994 1.377 . S
C995 C996 1.379 . S
C996 H980 0.931 . S
C996 C990 1.383 . S
C996 C995 1.379 . S
H997 C991 0.959 . S
H998 C991 0.961 . S
H999 C991 0.960 1_556 S
H1000 C992 0.930 . S
H1001 C993 0.929 . S
H1002 C1010 0.929 . S
H1003 C1012 0.930 . S
H1004 C1014 0.930 1_655 S
H1005 C1017 0.929 . S
H1006 C1020 0.930 . S
H1007 C1022 0.963 . S
H1008 C1022 0.960 . S
H1009 C1022 0.960 1_655 S
C1010 H1002 0.929 . S
C1010 C1011 1.377 . S
C1010 C1012 1.384 . S
C1011 C1010 1.377 . S
C1011 C1017 1.390 . S
C1012 H1003 0.930 . S
C1012 C1010 1.384 . S
C1012 C1013 1.372 . S
C1013 C1012 1.372 . S
C1013 C1014 1.400 . S
C1013 C1018 1.490 . S
C1014 H1004 0.930 1_455 S
C1014 C1013 1.400 . S
C1014 C1017 1.386 . S
H1015 C1031 0.930 . S
H1016 C1032 0.918 1_655 S
C1017 H1005 0.929 . S
C1017 C1011 1.390 . S
C1017 C1014 1.386 . S
C1018 C1013 1.490 . S
C1018 C1020 1.395 . S
C1018 C1021 1.403 . S
H1019 C1025 0.930 . S
C1020 H1006 0.930 . S
C1020 C1018 1.395 . S
C1020 C1023 1.403 . S
C1021 C1018 1.403 . S
C1021 C1022 1.524 . S
C1021 C1025 1.400 . S
C1022 H1007 0.963 . S
C1022 H1008 0.960 . S
C1022 H1009 0.960 1_455 S
C1022 C1021 1.524 . S
C1023 C1020 1.403 . S
C1023 C1024 1.392 . S
C1023 C1027 1.495 . S
C1024 C1023 1.392 . S
C1024 C1025 1.385 . S
C1024 C1026 1.478 . S
C1025 H1019 0.930 . S
C1025 C1021 1.400 . S
C1025 C1024 1.385 . S
C1026 C1024 1.478 . S
C1026 C1028 1.381 . S
C1026 C1032 1.413 . S
C1027 C1023 1.495 . S
C1027 H1033 0.959 . S
C1027 H1034 0.961 . S
C1027 H1035 0.960 . S
C1028 C1026 1.381 . S
C1028 C1029 1.394 . S
C1028 H1036 0.930 . S
C1029 C1028 1.394 . S
C1029 C1030 1.383 . S
C1029 H1037 0.929 . S
C1030 C1029 1.383 . S
C1030 C1031 1.377 1_455 S
C1031 H1015 0.930 . S
C1031 C1030 1.377 1_655 S
C1031 C1032 1.363 1_655 S
C1032 H1016 0.918 1_455 S
C1032 C1026 1.413 . S
C1032 C1031 1.363 1_455 S
H1033 C1027 0.959 . S
H1034 C1027 0.961 . S
H1035 C1027 0.960 . S
H1036 C1028 0.930 . S
H1037 C1029 0.929 . S
C634 C319 1.169 1_655 S
C615 C29 1.457 . S
C651 C137 1.463 . S
C670 C433 1.085 . S
C687 C225 1.171 . S
C706 C493 0.989 . S
C723 C49 1.255 . S
C742 C293 1.076 . S
C778 C407 1.123 . S
C759 C117 1.255 . S
C795 C205 1.359 . S
C814 C503 0.722 . S
C850 C389 0.713 . S
C831 C233 1.358 . S
C867 C57 1.255 . S
C886 C521 1.083 . S
C922 C265 0.990 1_455 S
C903 C108 1.164 . S
C958 C379 0.849 . S
C939 C196 1.166 . S
C994 C547 1.101 . S
C975 C20 1.457 . S
C1011 C145 1.366 . S
C1030 C275 0.843 . S
