# Generated by pormake.
# Topology hwx, (6,3)-cn, num edge types: 1
# Building blocks:
#     Node 0, Type 0, BuildingBlock: OJICUG_clean_sbu_0, # of connection points: 6
#     Node 1, Type 0, BuildingBlock: OJICUG_clean_sbu_0, # of connection points: 6
#     Node 2, Type 0, BuildingBlock: OJICUG_clean_sbu_0, # of connection points: 6
#     Node 3, Type 0, BuildingBlock: OJICUG_clean_sbu_0, # of connection points: 6
#     Node 4, Type 1, BuildingBlock: PAMTOO_clean_linker_0, # of connection points: 3
#     Node 5, Type 1, BuildingBlock: PAMTOO_clean_linker_0, # of connection points: 3
#     Node 6, Type 1, BuildingBlock: PAMTOO_clean_linker_0, # of connection points: 3
#     Node 7, Type 1, BuildingBlock: PAMTOO_clean_linker_0, # of connection points: 3
#     Node 8, Type 1, BuildingBlock: PAMTOO_clean_linker_0, # of connection points: 3
#     Node 9, Type 1, BuildingBlock: PAMTOO_clean_linker_0, # of connection points: 3
#     Node 10, Type 1, BuildingBlock: PAMTOO_clean_linker_0, # of connection points: 3
#     Node 11, Type 1, BuildingBlock: PAMTOO_clean_linker_0, # of connection points: 3
#     Edge 12, Type (0, 1), BuildingBlock: AJUNOK_clean_linker_0, # of connection points: 2
#     Edge 13, Type (0, 1), BuildingBlock: AJUNOK_clean_linker_0, # of connection points: 2
#     Edge 14, Type (0, 1), BuildingBlock: AJUNOK_clean_linker_0, # of connection points: 2
#     Edge 15, Type (0, 1), BuildingBlock: AJUNOK_clean_linker_0, # of connection points: 2
#     Edge 16, Type (0, 1), BuildingBlock: AJUNOK_clean_linker_0, # of connection points: 2
#     Edge 17, Type (0, 1), BuildingBlock: AJUNOK_clean_linker_0, # of connection points: 2
#     Edge 18, Type (0, 1), BuildingBlock: AJUNOK_clean_linker_0, # of connection points: 2
#     Edge 19, Type (0, 1), BuildingBlock: AJUNOK_clean_linker_0, # of connection points: 2
#     Edge 20, Type (0, 1), BuildingBlock: AJUNOK_clean_linker_0, # of connection points: 2
#     Edge 21, Type (0, 1), BuildingBlock: AJUNOK_clean_linker_0, # of connection points: 2
#     Edge 22, Type (0, 1), BuildingBlock: AJUNOK_clean_linker_0, # of connection points: 2
#     Edge 23, Type (0, 1), BuildingBlock: AJUNOK_clean_linker_0, # of connection points: 2
#     Edge 24, Type (0, 1), BuildingBlock: AJUNOK_clean_linker_0, # of connection points: 2
#     Edge 25, Type (0, 1), BuildingBlock: AJUNOK_clean_linker_0, # of connection points: 2
#     Edge 26, Type (0, 1), BuildingBlock: AJUNOK_clean_linker_0, # of connection points: 2
#     Edge 27, Type (0, 1), BuildingBlock: AJUNOK_clean_linker_0, # of connection points: 2
#     Edge 28, Type (0, 1), BuildingBlock: AJUNOK_clean_linker_0, # of connection points: 2
#     Edge 29, Type (0, 1), BuildingBlock: AJUNOK_clean_linker_0, # of connection points: 2
#     Edge 30, Type (0, 1), BuildingBlock: AJUNOK_clean_linker_0, # of connection points: 2
#     Edge 31, Type (0, 1), BuildingBlock: AJUNOK_clean_linker_0, # of connection points: 2
#     Edge 32, Type (0, 1), BuildingBlock: AJUNOK_clean_linker_0, # of connection points: 2
#     Edge 33, Type (0, 1), BuildingBlock: AJUNOK_clean_linker_0, # of connection points: 2
#     Edge 34, Type (0, 1), BuildingBlock: AJUNOK_clean_linker_0, # of connection points: 2
#     Edge 35, Type (0, 1), BuildingBlock: AJUNOK_clean_linker_0, # of connection points: 2
# Relax obj value: 0.008
# Max RMSD: 0.042
# Mean RMSD: 0.040
data_MOF--net-hwx--node1-OJICUG_clean_sbu_0--node2-PAMTOO_clean_linker_0--edge1-AJUNOK_clean_linker_0
_symmetry_space_group_name_H-M    P1
_symmetry_Int_Tables_number       1
_symmetry_cell_setting            triclinic
loop_
_symmetry_equiv_pos_as_xyz
'x, y, z'
_cell_length_a     39.065272
_cell_length_b     39.018845
_cell_length_c     15.28065
_cell_angle_alpha  88.170281
_cell_angle_beta   91.751376
_cell_angle_gamma 89.780618
loop_
_atom_site_label
_atom_site_type_symbol
_atom_site_fract_x
_atom_site_fract_y
_atom_site_fract_z
_atom_type_partial_charge
Sc0 Sc 0.24477 0.23928 0.12088 0.0
Sc1 Sc 0.18572 0.18655 0.00968 0.0
Sc2 Sc 0.23863 0.24325 0.89123 0.0
O3 O 0.22305 0.22303 0.00726 0.0
C4 C 0.23818 0.30966 0.00857 0.0
C5 C 0.16508 0.23404 0.16511 0.0
C6 C 0.15805 0.23668 0.85433 0.0
C7 C 0.23695 0.15905 0.16299 0.0
C8 C 0.30986 0.23688 -0.00062 0.0
C9 C 0.23095 0.16317 0.85239 0.0
O10 O 0.24117 0.2925 0.08046 0.0
O11 O 0.15767 0.21259 0.1067 0.0
O12 O 0.18706 0.25004 0.84041 0.0
O13 O 0.25117 0.18789 0.17423 0.0
O14 O 0.29201 0.23923 0.9285 0.0
O15 O 0.21002 0.15693 0.91279 0.0
O16 O 0.29645 0.23611 0.07429 0.0
O17 O 0.21258 0.15503 0.10749 0.0
O18 O 0.24285 0.19301 0.83644 0.0
O19 O 0.19537 0.245 0.17888 0.0
O20 O 0.23667 0.29551 0.93458 0.0
O21 O 0.15383 0.21309 0.91204 0.0
Sc22 Sc 0.26672 0.74416 0.38795 0.0
Sc23 Sc 0.31741 0.68105 0.50253 0.0
Sc24 Sc 0.26657 0.73807 0.61741 0.0
O25 O 0.28353 0.72103 0.50245 0.0
C26 C 0.27754 0.80854 0.51112 0.0
C27 C 0.34623 0.73186 0.35467 0.0
C28 C 0.3454 0.72231 0.6653 0.0
C29 C 0.26816 0.66497 0.33976 0.0
C30 C 0.19841 0.74381 0.49684 0.0
C31 C 0.26558 0.65678 0.64904 0.0
O32 O 0.27379 0.79523 0.4365 0.0
O33 O 0.3497 0.70687 0.40976 0.0
O34 O 0.31677 0.73651 0.67809 0.0
O35 O 0.25827 0.69581 0.32567 0.0
O36 O 0.21446 0.74234 0.57036 0.0
O37 O 0.28877 0.65082 0.59496 0.0
O38 O 0.21364 0.74374 0.42442 0.0
O39 O 0.28928 0.65575 0.40073 0.0
O40 O 0.25497 0.68688 0.66346 0.0
O41 O 0.31789 0.74746 0.34004 0.0
O42 O 0.27618 0.79092 0.58234 0.0
O43 O 0.34979 0.70155 0.60436 0.0
Sc44 Sc 0.76422 0.76947 0.87506 0.0
Sc45 Sc 0.82147 0.8232 -0.01103 0.0
Sc46 Sc 0.7689 0.76536 0.10474 0.0
O47 O 0.78488 0.78605 -0.01044 0.0
C48 C 0.69846 0.77174 -0.00581 0.0
C49 C 0.77 0.85002 0.83573 0.0
C50 C 0.77527 0.84505 0.14625 0.0
C51 C 0.84366 0.77718 0.83176 0.0
C52 C 0.77249 0.69936 -0.01285 0.0
C53 C 0.84926 0.77244 0.14264 0.0
O54 O 0.71234 0.77224 0.91989 0.0
O55 O 0.79376 0.85477 0.89255 0.0
O56 O 0.76334 0.81513 0.16037 0.0
O57 O 0.81391 0.76484 0.81819 0.0
O58 O 0.77276 0.7135 0.06097 0.0
O59 O 0.85366 0.79613 0.08521 0.0
O60 O 0.76916 0.71639 0.91511 0.0
O61 O 0.85013 0.79868 0.89062 0.0
O62 O 0.82017 0.75933 0.15671 0.0
O63 O 0.75711 0.82073 0.82252 0.0
O64 O 0.71581 0.76899 0.06564 0.0
O65 O 0.7967 0.8517 0.08729 0.0
Sc66 Sc 0.74208 0.26667 0.59555 0.0
Sc67 Sc 0.68269 0.31997 0.47603 0.0
Sc68 Sc 0.74119 0.26908 0.36584 0.0
O69 O 0.72193 0.2852 0.47925 0.0
C70 C 0.80931 0.27777 0.48376 0.0
C71 C 0.72952 0.34586 0.63454 0.0
C72 C 0.72918 0.349 0.32386 0.0
C73 C 0.66168 0.26815 0.63102 0.0
C74 C 0.74311 0.19954 0.48109 0.0
C75 C 0.66075 0.27115 0.32103 0.0
O76 O 0.79427 0.27478 0.55632 0.0
O77 O 0.70687 0.35071 0.57405 0.0
O78 O 0.74308 0.32022 0.31104 0.0
O79 O 0.69193 0.25673 0.64655 0.0
O80 O 0.74223 0.21617 0.40827 0.0
O81 O 0.65392 0.29316 0.37748 0.0
O82 O 0.74308 0.21425 0.55416 0.0
O83 O 0.65479 0.29117 0.5724 0.0
O84 O 0.69096 0.26025 0.30969 0.0
O85 O 0.74391 0.31691 0.65017 0.0
O86 O 0.79336 0.27611 0.41027 0.0
O87 O 0.70623 0.35299 0.37977 0.0
H88 H 0.22948 0.61002 0.981 0.0
H89 H 0.2211 0.51028 0.87153 0.0
H90 H 0.23373 0.51975 0.15021 0.0
H91 H 0.27254 0.46332 0.0774 0.0
C92 C 0.25595 0.45819 0.01885 0.0
O93 O 0.22587 0.47667 0.0224 0.0
H94 H 0.2703 0.46647 0.95998 0.0
C95 C 0.22769 0.58239 -0.00985 0.0
C96 C 0.23167 0.56767 0.07463 0.0
C97 C 0.22457 0.56209 0.91658 0.0
C98 C 0.22295 0.52637 0.92797 0.0
C99 C 0.22549 0.51121 0.01245 0.0
C100 C 0.22996 0.53181 0.08579 0.0
H101 H 0.89966 0.74249 0.4898 0.0
H102 H 0.99698 0.73549 0.36789 0.0
H103 H 0.99267 0.74037 0.64805 0.0
H104 H 0.04582 0.78366 0.56516 0.0
C105 C 0.05092 0.76786 0.50754 0.0
O106 O 0.03315 0.7375 0.51432 0.0
H107 H 0.04214 0.78295 0.44788 0.0
C108 C 0.9273 0.73974 0.49556 0.0
C109 C 0.94359 0.74076 0.57828 0.0
C110 C 0.94622 0.738 0.41953 0.0
C111 C 0.982 0.73628 0.42634 0.0
C112 C 0.99864 0.73704 0.50877 0.0
C113 C 0.97952 0.7392 0.58477 0.0
H114 H 0.75393 0.40238 0.98266 0.0
H115 H 0.75932 0.4993 0.10789 0.0
H116 H 0.76081 0.49578 0.82676 0.0
H117 H 0.80865 0.54653 0.90245 0.0
C118 C 0.795 0.5518 0.96351 0.0
O119 O 0.76362 0.53581 0.9616 0.0
H120 H 0.8112 0.54161 0.01975 0.0
C121 C 0.75646 0.43007 0.97793 0.0
C122 C 0.75747 0.44662 0.8955 0.0
C123 C 0.7571 0.44877 0.05444 0.0
C124 C 0.75898 0.48457 0.04894 0.0
C125 C 0.7609 0.50139 0.96675 0.0
C126 C 0.75978 0.48251 0.89001 0.0
H127 H 0.10759 0.26504 0.50609 0.0
H128 H 0.0096 0.27042 0.62556 0.0
H129 H 0.0155 0.26998 0.34473 0.0
H130 H 0.96265 0.31797 0.41113 0.0
C131 C 0.95673 0.3037 0.47302 0.0
O132 O 0.97413 0.27285 0.47698 0.0
H133 H 0.96511 0.3198 0.52851 0.0
C134 C 0.07994 0.26771 0.49983 0.0
C135 C 0.06409 0.26832 0.41651 0.0
C136 C 0.06068 0.26839 0.57543 0.0
C137 C 0.02486 0.27006 0.56756 0.0
C138 C 0.00864 0.27123 0.48426 0.0
C139 C 0.02821 0.26988 0.40876 0.0
H140 H 0.73945 0.90041 0.48749 0.0
H141 H 0.73262 0.99777 0.60976 0.0
H142 H 0.7369 0.99365 0.32951 0.0
H143 H 0.77978 0.04648 0.40746 0.0
C144 C 0.76496 0.05166 0.46673 0.0
O145 O 0.73445 0.03407 0.46312 0.0
H146 H 0.78084 0.04273 0.52487 0.0
C147 C 0.73662 0.92808 0.48191 0.0
C148 C 0.73753 0.94449 0.39923 0.0
C149 C 0.73497 0.94695 0.55807 0.0
C150 C 0.73329 0.9828 0.55131 0.0
C151 C 0.73385 0.99952 0.46882 0.0
C152 C 0.73582 0.98043 0.3928 0.0
H153 H 0.60955 0.23449 0.97602 0.0
H154 H 0.51445 0.22728 0.10942 0.0
H155 H 0.51475 0.22525 0.82823 0.0
H156 H 0.46072 0.26751 0.89602 0.0
C157 C 0.45722 0.25448 0.96098 0.0
O158 O 0.47618 0.22456 0.96622 0.0
H159 H 0.46643 0.27241 0.01175 0.0
C160 C 0.58204 0.23063 0.97401 0.0
C161 C 0.56462 0.22902 0.89284 0.0
C162 C 0.56435 0.23016 0.0523 0.0
C163 C 0.52857 0.22718 0.04949 0.0
C164 C 0.51077 0.22527 0.96869 0.0
C165 C 0.52876 0.22605 0.89041 0.0
H166 H 0.26292 0.10666 0.51204 0.0
H167 H 0.27146 0.00976 0.3883 0.0
H168 H 0.26794 0.01322 0.66909 0.0
H169 H 0.31591 0.96034 0.60642 0.0
C170 C 0.30325 0.95563 0.54171 0.0
O171 O 0.27244 0.97302 0.53504 0.0
H172 H 0.32072 0.96518 0.49022 0.0
C173 C 0.266 0.07901 0.5172 0.0
C174 C 0.26575 0.06246 0.59975 0.0
C175 C 0.26797 0.06041 0.44076 0.0
C176 C 0.27022 0.02453 0.44698 0.0
C177 C 0.2707 0.0076 0.52946 0.0
C178 C 0.26818 0.02652 0.60578 0.0
H179 H 0.40126 0.74899 0.01648 0.0
H180 H 0.49512 0.74984 0.87681 0.0
H181 H 0.49754 0.75914 0.157 0.0
H182 H 0.54307 0.80757 0.05403 0.0
C183 C 0.54986 0.78983 0.00159 0.0
O184 O 0.53459 0.75844 0.01591 0.0
H185 H 0.54034 0.80153 0.93797 0.0
C186 C 0.42896 0.75115 0.01641 0.0
C187 C 0.44723 0.7546 0.09568 0.0
C188 C 0.4459 0.74922 0.93745 0.0
C189 C 0.4817 0.75102 0.93766 0.0
C190 C 0.50023 0.75525 0.01665 0.0
C191 C 0.48307 0.75647 0.09599 0.0
C192 C 0.10707 0.22661 0.22901 0.0
C193 C 0.13726 0.24603 0.22089 0.0
C194 C 0.08187 0.23554 0.28779 0.0
C195 C 0.0859 0.26428 0.34002 0.0
H196 H 0.10352 0.20342 0.19276 0.0
H197 H 0.06014 0.2187 0.29616 0.0
S198 S 0.15697 0.32687 0.33364 0.0
N199 N 0.16745 0.29778 0.26288 0.0
N200 N 0.11999 0.31439 0.37294 0.0
C201 C 0.11463 0.28526 0.3281 0.0
C202 C 0.14036 0.27616 0.26876 0.0
C203 C 0.22024 0.63237 0.74398 0.0
C204 C 0.25135 0.62787 0.70149 0.0
C205 C 0.20925 0.6084 0.80694 0.0
C206 C 0.22898 0.57913 0.82992 0.0
H207 H 0.20513 0.65548 0.73212 0.0
H208 H 0.18657 0.61417 0.84296 0.0
S209 S 0.30958 0.55258 0.72912 0.0
N210 N 0.29943 0.58951 0.67899 0.0
N211 N 0.27886 0.54479 0.79876 0.0
C212 C 0.25832 0.57258 0.78217 0.0
C213 C 0.26953 0.59694 0.71762 0.0
C214 C 0.87554 0.72992 0.25003 0.0
C215 C 0.87856 0.76058 0.19968 0.0
C216 C 0.89965 0.72093 0.31623 0.0
C217 C 0.92775 0.74214 0.33426 0.0
H218 H 0.85347 0.7135 0.24138 0.0
H219 H 0.89514 0.69835 0.35734 0.0
S220 S 0.95025 0.82258 0.21452 0.0
N221 N 0.91418 0.81018 0.16632 0.0
N222 N 0.95939 0.79314 0.29182 0.0
C223 C 0.93281 0.77124 0.2799 0.0
C224 C 0.90821 0.78051 0.21224 0.0
C225 C 0.76754 0.37143 0.74949 0.0
C226 C 0.73895 0.37475 0.6914 0.0
C227 C 0.77493 0.39631 0.81107 0.0
C228 C 0.75409 0.42552 0.81705 0.0
H229 H 0.78382 0.34889 0.7496 0.0
H230 H 0.79625 0.39189 0.85717 0.0
S231 S 0.67815 0.44843 0.67583 0.0
N232 N 0.69125 0.41133 0.6396 0.0
N233 N 0.70519 0.4578 0.75661 0.0
C234 C 0.72675 0.43038 0.75623 0.0
C235 C 0.71914 0.40505 0.69316 0.0
C236 C 0.63783 0.22803 0.2175 0.0
C237 C 0.63269 0.25818 0.26367 0.0
C238 C 0.61393 0.21741 0.15417 0.0
C239 C 0.58397 0.23651 0.13441 0.0
H240 H 0.6611 0.21307 0.22797 0.0
H241 H 0.61977 0.19504 0.117 0.0
S242 S 0.55652 0.31548 0.24163 0.0
N243 N 0.59373 0.30543 0.2901 0.0
N244 N 0.54906 0.28551 0.1697 0.0
C245 C 0.57728 0.26537 0.18384 0.0
C246 C 0.60161 0.27622 0.24877 0.0
C247 C 0.2711 0.13832 0.74662 0.0
C248 C 0.24176 0.13462 0.79722 0.0
C249 C 0.28026 0.11335 0.68783 0.0
C250 C 0.26042 0.0837 0.67691 0.0
H251 H 0.28672 0.16113 0.7506 0.0
H252 H 0.30223 0.118 0.64757 0.0
S253 S 0.1826 0.0602 0.79742 0.0
N254 N 0.19413 0.09755 0.83644 0.0
N255 N 0.21127 0.05097 0.72447 0.0
C256 C 0.23214 0.07864 0.73022 0.0
C257 C 0.22279 0.10404 0.7906 0.0
C258 C 0.40365 0.71884 0.2941 0.0
C259 C 0.37588 0.74173 0.30091 0.0
C260 C 0.4291 0.7249 0.23276 0.0
C261 C 0.4277 0.75409 0.17674 0.0
H262 H 0.40472 0.69502 0.33249 0.0
H263 H 0.44849 0.70542 0.22468 0.0
S264 S 0.36451 0.82504 0.1786 0.0
N265 N 0.35164 0.79729 0.2544 0.0
N266 N 0.39934 0.80816 0.1387 0.0
C267 C 0.40194 0.77856 0.18789 0.0
C268 C 0.37604 0.77251 0.25012 0.0
C269 C 0.72752 0.87575 0.72725 0.0
C270 C 0.7579 0.87919 0.77822 0.0
C271 C 0.7184 0.89983 0.66095 0.0
C272 C 0.7392 0.92832 0.64329 0.0
H273 H 0.71143 0.8534 0.73557 0.0
H274 H 0.69603 0.89503 0.61952 0.0
S275 S 0.81879 0.95194 0.76451 0.0
N276 N 0.80677 0.9156 0.81245 0.0
N277 N 0.78953 0.9607 0.68668 0.0
C278 C 0.76801 0.93375 0.69815 0.0
C279 C 0.7774 0.90919 0.76597 0.0
C280 C 0.86793 0.73655 0.72623 0.0
C281 C 0.87184 0.76619 0.77569 0.0
C282 C 0.89265 0.72706 0.66712 0.0
C283 C 0.92225 0.74682 0.65485 0.0
H284 H 0.8452 0.72091 0.73151 0.0
H285 H 0.88791 0.7048 0.62796 0.0
S286 S 0.94601 0.82557 0.77124 0.0
N287 N 0.90888 0.8142 0.81177 0.0
N288 N 0.955 0.79643 0.69931 0.0
C289 C 0.92742 0.77552 0.7067 0.0
C290 C 0.90228 0.78521 0.76733 0.0
C291 C 0.71582 0.40523 0.24659 0.0
C292 C 0.73938 0.37865 0.2682 0.0
C293 C 0.72305 0.43037 0.1822 0.0
C294 C 0.75412 0.42975 0.13847 0.0
H295 H 0.69081 0.40536 0.2753 0.0
H296 H 0.70332 0.44883 0.16213 0.0
S297 S 0.82678 0.36986 0.18242 0.0
N298 N 0.79699 0.35642 0.24958 0.0
N299 N 0.81019 0.40357 0.12822 0.0
C300 C 0.77896 0.40525 0.16478 0.0
C301 C 0.77169 0.37968 0.22985 0.0
C302 C 0.13105 0.27831 0.74542 0.0
C303 C 0.12861 0.24778 0.79649 0.0
C304 C 0.10678 0.28659 0.67895 0.0
C305 C 0.07914 0.26473 0.66102 0.0
H306 H 0.15277 0.2952 0.75386 0.0
H307 H 0.11086 0.30918 0.6375 0.0
S308 S 0.0583 0.18413 0.78205 0.0
N309 N 0.09401 0.19747 0.83032 0.0
N310 N 0.04862 0.21316 0.70414 0.0
C311 C 0.07468 0.23568 0.71585 0.0
C312 C 0.0994 0.22716 0.78393 0.0
C313 C 0.27499 0.63956 0.19583 0.0
C314 C 0.25834 0.6394 0.27562 0.0
C315 C 0.26699 0.61532 0.13324 0.0
C316 C 0.24153 0.59037 0.14738 0.0
H317 H 0.29449 0.65849 0.1819 0.0
H318 H 0.2807 0.61636 0.07264 0.0
S319 S 0.19129 0.57898 0.34814 0.0
N320 N 0.21653 0.61189 0.36843 0.0
N321 N 0.20031 0.56674 0.24881 0.0
C322 C 0.22517 0.58957 0.22812 0.0
C323 C 0.23378 0.6141 0.29265 0.0
C324 C 0.37351 0.76107 0.77154 0.0
C325 C 0.3745 0.73053 0.72506 0.0
C326 C 0.39835 0.76807 0.83598 0.0
C327 C 0.42516 0.74485 0.85641 0.0
H328 H 0.35278 0.77934 0.75996 0.0
H329 H 0.39575 0.79114 0.87293 0.0
S330 S 0.44112 0.66251 0.75042 0.0
N331 N 0.40598 0.67786 0.70032 0.0
N332 N 0.45268 0.69118 0.82272 0.0
C333 C 0.42775 0.71519 0.80745 0.0
C334 C 0.40239 0.70798 0.7414 0.0
C335 C 0.73412 0.86901 0.25079 0.0
C336 C 0.76388 0.87316 0.2019 0.0
C337 C 0.72432 0.89361 0.30988 0.0
C338 C 0.74387 0.92331 0.32262 0.0
H339 H 0.71864 0.84616 0.24513 0.0
H340 H 0.702 0.88868 0.34869 0.0
S341 S 0.82279 0.94769 0.20774 0.0
N342 N 0.81175 0.91053 0.1668 0.0
N343 N 0.79339 0.95643 0.27919 0.0
C344 C 0.77266 0.92873 0.27126 0.0
C345 C 0.78267 0.90372 0.21068 0.0
C346 C 0.63924 0.22606 0.74218 0.0
C347 C 0.63363 0.25518 0.68669 0.0
C348 C 0.6152 0.21589 0.80382 0.0
C349 C 0.58461 0.2344 0.81267 0.0
H350 H 0.66296 0.21166 0.74046 0.0
H351 H 0.62142 0.19439 0.8482 0.0
S352 S 0.55569 0.31039 0.67817 0.0
N353 N 0.59341 0.3006 0.63976 0.0
N354 N 0.54868 0.28159 0.75699 0.0
C355 C 0.57751 0.2621 0.75397 0.0
C356 C 0.60193 0.27249 0.69076 0.0
C357 C 0.27783 0.13249 0.27467 0.0
C358 C 0.24802 0.1296 0.22123 0.0
C359 C 0.28599 0.10795 0.34074 0.0
C360 C 0.26476 0.07953 0.35586 0.0
H361 H 0.29422 0.15471 0.26842 0.0
H362 H 0.30794 0.11233 0.38395 0.0
S363 S 0.18646 0.05719 0.22771 0.0
N364 N 0.19928 0.09367 0.18207 0.0
N365 N 0.21472 0.04783 0.30751 0.0
C366 C 0.23654 0.07468 0.29874 0.0
C367 C 0.22812 0.09968 0.2311 0.0
C368 C 0.2454 0.36749 0.93454 0.0
C369 C 0.23894 0.34779 0.01118 0.0
C370 C 0.24996 0.40311 0.93697 0.0
C371 C 0.24835 0.42038 0.01608 0.0
H372 H 0.24802 0.35527 0.87244 0.0
H373 H 0.25568 0.4171 0.87684 0.0
S374 S 0.22798 0.38208 0.23302 0.0
N375 N 0.22806 0.34927 0.1674 0.0
N376 N 0.23683 0.41612 0.17099 0.0
C377 C 0.24018 0.4015 0.09214 0.0
C378 C 0.23552 0.36525 0.09 0.0
C379 C 0.14456 0.75424 0.57668 0.0
C380 C 0.16052 0.74772 0.4972 0.0
C381 C 0.10931 0.76033 0.57944 0.0
C382 C 0.08858 0.76036 0.50292 0.0
H383 H 0.15941 0.75529 0.63754 0.0
H384 H 0.09826 0.76557 0.64184 0.0
S385 S 0.11622 0.74133 0.27972 0.0
N386 N 0.15185 0.73928 0.34073 0.0
N387 N 0.08542 0.75074 0.34677 0.0
C388 C 0.10364 0.75257 0.42365 0.0
C389 C 0.13965 0.74638 0.42052 0.0
C390 C 0.78206 0.64648 0.90226 0.0
C391 C 0.77747 0.66162 0.98376 0.0
C392 C 0.78787 0.61122 0.89641 0.0
C393 C 0.78961 0.58971 0.97175 0.0
H394 H 0.78142 0.66194 0.84208 0.0
H395 H 0.79113 0.60072 0.8324 0.0
S396 S 0.77746 0.61528 0.20017 0.0
N397 N 0.7738 0.65146 0.14151 0.0
N398 N 0.78468 0.58512 0.12955 0.0
C399 C 0.7844 0.60407 0.05334 0.0
C400 C 0.77848 0.64003 0.05963 0.0
C401 C 0.86277 0.29246 0.40406 0.0
C402 C 0.84692 0.28401 0.48365 0.0
C403 C 0.89801 0.29877 0.40115 0.0
C404 C 0.91884 0.29716 0.47768 0.0
H405 H 0.84789 0.29442 0.3431 0.0
H406 H 0.90901 0.3051 0.33848 0.0
S407 S 0.89118 0.27484 0.70206 0.0
N408 N 0.85565 0.27346 0.64091 0.0
N409 N 0.92189 0.28543 0.63454 0.0
C410 C 0.90371 0.28833 0.55738 0.0
C411 C 0.86778 0.28186 0.56066 0.0
C412 C 0.75158 0.1457 0.39935 0.0
C413 C 0.74627 0.16156 0.47959 0.0
C414 C 0.75716 0.11034 0.39572 0.0
C415 C 0.75785 0.08941 0.4721 0.0
H416 H 0.7521 0.16072 0.33856 0.0
H417 H 0.76151 0.09935 0.33276 0.0
S418 S 0.74195 0.11674 0.6973 0.0
N419 N 0.7396 0.15256 0.63681 0.0
N420 N 0.75011 0.08598 0.62905 0.0
C421 C 0.7512 0.10438 0.55217 0.0
C422 C 0.74552 0.14047 0.5562 0.0
C423 C 0.36258 0.23844 0.90972 0.0
C424 C 0.34788 0.23747 -0.00696 0.0
C425 C 0.39785 0.2429 0.9002 0.0
C426 C 0.41988 0.24678 0.97342 0.0
H427 H 0.3467 0.23659 0.85074 0.0
H428 H 0.40783 0.24427 0.83481 0.0
S429 S 0.39588 0.24213 0.20619 0.0
N430 N 0.35925 0.23783 0.15083 0.0
N431 N 0.42558 0.24615 0.13199 0.0
C432 C 0.40612 0.24396 0.05714 0.0
C433 C 0.37014 0.23941 0.06718 0.0
C434 C 0.28706 0.8612 0.59875 0.0
C435 C 0.28391 0.8461 0.51618 0.0
C436 C 0.2933 0.89635 0.60633 0.0
C437 C 0.29699 0.91784 0.53182 0.0
H438 H 0.28467 0.84583 0.65851 0.0
H439 H 0.29536 0.90679 0.67112 0.0
S440 S 0.29007 0.89226 0.3005 0.0
N441 N 0.28435 0.85627 0.35785 0.0
N442 N 0.29596 0.92231 0.37307 0.0
C443 C 0.29345 0.90349 0.44896 0.0
C444 C 0.28707 0.86766 0.44091 0.0
C445 C 0.64054 0.77893 0.91978 0.0
C446 C 0.66058 0.77544 -0.00209 0.0
C447 C 0.60495 0.7835 0.92135 0.0
C448 C 0.58807 0.7851 0.00099 0.0
H449 H 0.65234 0.77828 0.85664 0.0
H450 H 0.59055 0.78602 0.85975 0.0
S451 S 0.62758 0.77589 0.22389 0.0
N452 N 0.66001 0.77282 0.1578 0.0
N453 N 0.59319 0.78144 0.15946 0.0
C454 C 0.60741 0.781 0.0794 0.0
C455 C 0.64362 0.77627 0.0782 0.0
loop_
_geom_bond_atom_site_label_1
_geom_bond_atom_site_label_2
_geom_bond_distance
_geom_bond_site_symmetry_2
_ccdc_geom_bond_type
Sc0 O3 2.025 . S
Sc0 O10 2.105 . S
Sc0 O13 2.105 . S
Sc0 O16 2.105 . S
Sc0 O19 2.105 . S
Sc1 O3 2.025 . S
Sc1 O11 2.105 . S
Sc1 O15 2.105 1_554 S
Sc1 O17 2.105 . S
Sc1 O21 2.105 1_554 S
Sc2 O3 2.025 1_556 S
Sc2 O12 2.105 . S
Sc2 O14 2.105 . S
Sc2 O18 2.105 . S
Sc2 O20 2.105 . S
O3 Sc0 2.025 . S
O3 Sc1 2.025 . S
O3 Sc2 2.025 1_554 S
C4 O10 1.268 . S
C4 O20 1.268 1_554 S
C5 O11 1.268 . S
C5 O19 1.268 . S
C6 O12 1.268 . S
C6 O21 1.268 . S
C7 O13 1.268 . S
C7 O17 1.268 . S
C8 O14 1.268 1_554 S
C8 O16 1.268 . S
C9 O15 1.268 . S
C9 O18 1.268 . S
O10 Sc0 2.105 . S
O10 C4 1.268 . S
O11 Sc1 2.105 . S
O11 C5 1.268 . S
O12 Sc2 2.105 . S
O12 C6 1.268 . S
O13 Sc0 2.105 . S
O13 C7 1.268 . S
O14 Sc2 2.105 . S
O14 C8 1.268 1_556 S
O15 Sc1 2.105 1_556 S
O15 C9 1.268 . S
O16 Sc0 2.105 . S
O16 C8 1.268 . S
O17 Sc1 2.105 . S
O17 C7 1.268 . S
O18 Sc2 2.105 . S
O18 C9 1.268 . S
O19 Sc0 2.105 . S
O19 C5 1.268 . S
O20 Sc2 2.105 . S
O20 C4 1.268 1_556 S
O21 Sc1 2.105 1_556 S
O21 C6 1.268 . S
Sc22 O25 2.025 . S
Sc22 O32 2.105 . S
Sc22 O35 2.105 . S
Sc22 O38 2.105 . S
Sc22 O41 2.105 . S
Sc23 O25 2.025 . S
Sc23 O33 2.105 . S
Sc23 O37 2.105 . S
Sc23 O39 2.105 . S
Sc23 O43 2.105 . S
Sc24 O25 2.025 . S
Sc24 O34 2.105 . S
Sc24 O36 2.105 . S
Sc24 O40 2.105 . S
Sc24 O42 2.105 . S
O25 Sc22 2.025 . S
O25 Sc23 2.025 . S
O25 Sc24 2.025 . S
C26 O32 1.268 . S
C26 O42 1.268 . S
C27 O33 1.268 . S
C27 O41 1.268 . S
C28 O34 1.268 . S
C28 O43 1.268 . S
C29 O35 1.268 . S
C29 O39 1.268 . S
C30 O36 1.268 . S
C30 O38 1.268 . S
C31 O37 1.268 . S
C31 O40 1.268 . S
O32 Sc22 2.105 . S
O32 C26 1.268 . S
O33 Sc23 2.105 . S
O33 C27 1.268 . S
O34 Sc24 2.105 . S
O34 C28 1.268 . S
O35 Sc22 2.105 . S
O35 C29 1.268 . S
O36 Sc24 2.105 . S
O36 C30 1.268 . S
O37 Sc23 2.105 . S
O37 C31 1.268 . S
O38 Sc22 2.105 . S
O38 C30 1.268 . S
O39 Sc23 2.105 . S
O39 C29 1.268 . S
O40 Sc24 2.105 . S
O40 C31 1.268 . S
O41 Sc22 2.105 . S
O41 C27 1.268 . S
O42 Sc24 2.105 . S
O42 C26 1.268 . S
O43 Sc23 2.105 . S
O43 C28 1.268 . S
Sc44 O47 2.025 1_556 S
Sc44 O54 2.105 . S
Sc44 O57 2.105 . S
Sc44 O60 2.105 . S
Sc44 O63 2.105 . S
Sc45 O47 2.025 . S
Sc45 O55 2.105 1_554 S
Sc45 O59 2.105 . S
Sc45 O61 2.105 1_554 S
Sc45 O65 2.105 . S
Sc46 O47 2.025 . S
Sc46 O56 2.105 . S
Sc46 O58 2.105 . S
Sc46 O62 2.105 . S
Sc46 O64 2.105 . S
O47 Sc44 2.025 1_554 S
O47 Sc45 2.025 . S
O47 Sc46 2.025 . S
C48 O54 1.268 1_554 S
C48 O64 1.268 . S
C49 O55 1.268 . S
C49 O63 1.268 . S
C50 O56 1.268 . S
C50 O65 1.268 . S
C51 O57 1.268 . S
C51 O61 1.268 . S
C52 O58 1.268 . S
C52 O60 1.268 1_554 S
C53 O59 1.268 . S
C53 O62 1.268 . S
O54 Sc44 2.105 . S
O54 C48 1.268 1_556 S
O55 Sc45 2.105 1_556 S
O55 C49 1.268 . S
O56 Sc46 2.105 . S
O56 C50 1.268 . S
O57 Sc44 2.105 . S
O57 C51 1.268 . S
O58 Sc46 2.105 . S
O58 C52 1.268 . S
O59 Sc45 2.105 . S
O59 C53 1.268 . S
O60 Sc44 2.105 . S
O60 C52 1.268 1_556 S
O61 Sc45 2.105 1_556 S
O61 C51 1.268 . S
O62 Sc46 2.105 . S
O62 C53 1.268 . S
O63 Sc44 2.105 . S
O63 C49 1.268 . S
O64 Sc46 2.105 . S
O64 C48 1.268 . S
O65 Sc45 2.105 . S
O65 C50 1.268 . S
Sc66 O69 2.025 . S
Sc66 O76 2.105 . S
Sc66 O79 2.105 . S
Sc66 O82 2.105 . S
Sc66 O85 2.105 . S
Sc67 O69 2.025 . S
Sc67 O77 2.105 . S
Sc67 O81 2.105 . S
Sc67 O83 2.105 . S
Sc67 O87 2.105 . S
Sc68 O69 2.025 . S
Sc68 O78 2.105 . S
Sc68 O80 2.105 . S
Sc68 O84 2.105 . S
Sc68 O86 2.105 . S
O69 Sc66 2.025 . S
O69 Sc67 2.025 . S
O69 Sc68 2.025 . S
C70 O76 1.268 . S
C70 O86 1.268 . S
C71 O77 1.268 . S
C71 O85 1.268 . S
C72 O78 1.268 . S
C72 O87 1.268 . S
C73 O79 1.268 . S
C73 O83 1.268 . S
C74 O80 1.268 . S
C74 O82 1.268 . S
C75 O81 1.268 . S
C75 O84 1.268 . S
O76 Sc66 2.105 . S
O76 C70 1.268 . S
O77 Sc67 2.105 . S
O77 C71 1.268 . S
O78 Sc68 2.105 . S
O78 C72 1.268 . S
O79 Sc66 2.105 . S
O79 C73 1.268 . S
O80 Sc68 2.105 . S
O80 C74 1.268 . S
O81 Sc67 2.105 . S
O81 C75 1.268 . S
O82 Sc66 2.105 . S
O82 C74 1.268 . S
O83 Sc67 2.105 . S
O83 C73 1.268 . S
O84 Sc68 2.105 . S
O84 C75 1.268 . S
O85 Sc66 2.105 . S
O85 C71 1.268 . S
O86 Sc68 2.105 . S
O86 C70 1.268 . S
O87 Sc67 2.105 . S
O87 C72 1.268 . S
H88 C95 0.929 . S
H89 C98 0.930 . S
H90 C100 0.929 . S
H91 C92 0.969 . S
C92 H91 0.969 . S
C92 O93 1.550 1_556 S
C92 H94 0.973 . S
O93 C92 1.550 1_554 S
O93 C99 1.412 . S
H94 C92 0.973 . S
C95 H88 0.929 . S
C95 C96 1.400 . S
C95 C97 1.364 1_554 S
C96 C95 1.400 . S
C96 C100 1.377 . S
C97 C95 1.364 1_556 S
C97 C98 1.374 . S
C98 H89 0.930 . S
C98 C97 1.374 . S
C98 C99 1.383 1_556 S
C99 O93 1.412 . S
C99 C98 1.383 1_554 S
C99 C100 1.394 . S
C100 H90 0.929 . S
C100 C96 1.377 . S
C100 C99 1.394 . S
H101 C108 0.929 . S
H102 C111 0.930 . S
H103 C113 0.929 . S
H104 C105 0.969 . S
C105 H104 0.969 . S
C105 O106 1.550 . S
C105 H107 0.973 . S
O106 C105 1.550 . S
O106 C112 1.421 . S
H107 C105 0.973 . S
C108 H101 0.929 . S
C108 C109 1.400 . S
C108 C110 1.364 . S
C109 C108 1.400 . S
C109 C113 1.377 . S
C110 C108 1.364 . S
C110 C111 1.374 . S
C111 H102 0.930 . S
C111 C110 1.374 . S
C111 C112 1.379 1_655 S
C112 O106 1.421 . S
C112 C111 1.379 1_455 S
C112 C113 1.389 1_455 S
C113 H103 0.929 . S
C113 C109 1.377 . S
C113 C112 1.389 1_655 S
H114 C121 0.929 . S
H115 C124 0.930 . S
H116 C126 0.929 . S
H117 C118 0.969 . S
C118 H117 0.969 . S
C118 O119 1.550 1_554 S
C118 H120 0.973 . S
O119 C118 1.550 1_556 S
O119 C125 1.412 . S
H120 C118 0.973 . S
C121 H114 0.929 . S
C121 C122 1.400 1_554 S
C121 C123 1.364 . S
C122 C121 1.400 1_556 S
C122 C126 1.377 . S
C123 C121 1.364 . S
C123 C124 1.374 . S
C124 H115 0.930 . S
C124 C123 1.374 . S
C124 C125 1.383 1_554 S
C125 O119 1.412 . S
C125 C124 1.383 1_556 S
C125 C126 1.394 . S
C126 H116 0.929 . S
C126 C122 1.377 . S
C126 C125 1.394 . S
H127 C134 0.929 . S
H128 C137 0.930 . S
H129 C139 0.929 . S
H130 C131 0.969 . S
C131 H130 0.969 . S
C131 O132 1.550 . S
C131 H133 0.973 . S
O132 C131 1.550 . S
O132 C138 1.402 1_655 S
H133 C131 0.973 . S
C134 H127 0.929 . S
C134 C135 1.400 . S
C134 C136 1.364 . S
C135 C134 1.400 . S
C135 C139 1.377 . S
C136 C134 1.364 . S
C136 C137 1.374 . S
C137 H128 0.930 . S
C137 C136 1.374 . S
C137 C138 1.387 . S
C138 O132 1.402 1_455 S
C138 C137 1.387 . S
C138 C139 1.401 . S
C139 H129 0.929 . S
C139 C135 1.377 . S
C139 C138 1.401 . S
H140 C147 0.929 . S
H141 C150 0.930 . S
H142 C152 0.929 . S
H143 C144 0.969 . S
C144 H143 0.969 . S
C144 O145 1.550 . S
C144 H146 0.973 . S
O145 C144 1.550 . S
O145 C151 1.413 1_545 S
H146 C144 0.973 . S
C147 H140 0.929 . S
C147 C148 1.400 . S
C147 C149 1.364 . S
C148 C147 1.400 . S
C148 C152 1.377 . S
C149 C147 1.364 . S
C149 C150 1.374 . S
C150 H141 0.930 . S
C150 C149 1.374 . S
C150 C151 1.383 . S
C151 O145 1.413 1_565 S
C151 C150 1.383 . S
C151 C152 1.394 . S
C152 H142 0.929 . S
C152 C148 1.377 . S
C152 C151 1.394 . S
H153 C160 0.929 . S
H154 C163 0.930 . S
H155 C165 0.929 . S
H156 C157 0.969 . S
C157 H156 0.969 . S
C157 O158 1.550 1_554 S
C157 H159 0.973 . S
O158 C157 1.550 1_556 S
O158 C164 1.412 . S
H159 C157 0.973 . S
C160 H153 0.929 . S
C160 C161 1.400 1_554 S
C160 C162 1.364 . S
C161 C160 1.400 1_556 S
C161 C165 1.377 . S
C162 C160 1.364 . S
C162 C163 1.374 . S
C163 H154 0.930 . S
C163 C162 1.374 . S
C163 C164 1.383 1_554 S
C164 O158 1.412 . S
C164 C163 1.383 1_556 S
C164 C165 1.394 . S
C165 H155 0.929 . S
C165 C161 1.377 . S
C165 C164 1.394 . S
H166 C173 0.929 . S
H167 C176 0.930 . S
H168 C178 0.929 . S
H169 C170 0.969 . S
C170 H169 0.969 . S
C170 O171 1.550 . S
C170 H172 0.973 . S
O171 C170 1.550 . S
O171 C177 1.411 . S
H172 C170 0.973 . S
C173 H166 0.929 . S
C173 C174 1.400 . S
C173 C175 1.364 . S
C174 C173 1.400 . S
C174 C178 1.377 . S
C175 C173 1.364 . S
C175 C176 1.374 . S
C176 H167 0.930 . S
C176 C175 1.374 . S
C176 C177 1.383 1_545 S
C177 O171 1.411 . S
C177 C176 1.383 1_565 S
C177 C178 1.395 1_565 S
C178 H168 0.929 . S
C178 C174 1.377 . S
C178 C177 1.395 1_545 S
H179 C186 0.929 . S
H180 C189 0.930 . S
H181 C191 0.929 . S
H182 C183 0.969 . S
C183 H182 0.969 . S
C183 O184 1.550 1_556 S
C183 H185 0.973 . S
O184 C183 1.550 1_554 S
O184 C190 1.412 . S
H185 C183 0.973 . S
C186 H179 0.929 . S
C186 C187 1.400 . S
C186 C188 1.364 1_554 S
C187 C186 1.400 . S
C187 C191 1.377 . S
C188 C186 1.364 1_556 S
C188 C189 1.374 . S
C189 H180 0.930 . S
C189 C188 1.374 . S
C189 C190 1.383 1_556 S
C190 O184 1.412 . S
C190 C189 1.383 1_554 S
C190 C191 1.394 . S
C191 H181 0.929 . S
C191 C187 1.377 . S
C191 C190 1.394 . S
C192 C193 1.369 . S
C192 C194 1.419 . S
C192 H196 0.930 . S
C193 C192 1.369 . S
C193 C202 1.429 . S
C194 C192 1.419 . S
C194 C195 1.363 . S
C194 H197 0.929 . S
C195 C194 1.363 . S
C195 C201 1.428 . S
H196 C192 0.930 . S
H197 C194 0.929 . S
S198 N199 1.613 . S
S198 N200 1.610 . S
N199 S198 1.613 . S
N199 C202 1.350 . S
N200 S198 1.610 . S
N200 C201 1.351 . S
C201 C195 1.428 . S
C201 N200 1.351 . S
C201 C202 1.434 . S
C202 C193 1.429 . S
C202 N199 1.350 . S
C202 C201 1.434 . S
C203 C204 1.369 . S
C203 C205 1.419 . S
C203 H207 0.930 . S
C204 C203 1.369 . S
C204 C213 1.429 . S
C205 C203 1.419 . S
C205 C206 1.363 . S
C205 H208 0.929 . S
C206 C205 1.363 . S
C206 C212 1.428 . S
H207 C203 0.930 . S
H208 C205 0.929 . S
S209 N210 1.613 . S
S209 N211 1.610 . S
N210 S209 1.613 . S
N210 C213 1.350 . S
N211 S209 1.610 . S
N211 C212 1.351 . S
C212 C206 1.428 . S
C212 N211 1.351 . S
C212 C213 1.434 . S
C213 C204 1.429 . S
C213 N210 1.350 . S
C213 C212 1.434 . S
C214 C215 1.369 . S
C214 C216 1.419 . S
C214 H218 0.930 . S
C215 C214 1.369 . S
C215 C224 1.429 . S
C216 C214 1.419 . S
C216 C217 1.363 . S
C216 H219 0.929 . S
C217 C216 1.363 . S
C217 C223 1.428 . S
H218 C214 0.930 . S
H219 C216 0.929 . S
S220 N221 1.613 . S
S220 N222 1.610 . S
N221 S220 1.613 . S
N221 C224 1.350 . S
N222 S220 1.610 . S
N222 C223 1.351 . S
C223 C217 1.428 . S
C223 N222 1.351 . S
C223 C224 1.434 . S
C224 C215 1.429 . S
C224 N221 1.350 . S
C224 C223 1.434 . S
C225 C226 1.369 . S
C225 C227 1.419 . S
C225 H229 0.930 . S
C226 C225 1.369 . S
C226 C235 1.429 . S
C227 C225 1.419 . S
C227 C228 1.363 . S
C227 H230 0.929 . S
C228 C227 1.363 . S
C228 C234 1.428 . S
H229 C225 0.930 . S
H230 C227 0.929 . S
S231 N232 1.613 . S
S231 N233 1.610 . S
N232 S231 1.613 . S
N232 C235 1.350 . S
N233 S231 1.610 . S
N233 C234 1.351 . S
C234 C228 1.428 . S
C234 N233 1.351 . S
C234 C235 1.434 . S
C235 C226 1.429 . S
C235 N232 1.350 . S
C235 C234 1.434 . S
C236 C237 1.369 . S
C236 C238 1.419 . S
C236 H240 0.930 . S
C237 C236 1.369 . S
C237 C246 1.429 . S
C238 C236 1.419 . S
C238 C239 1.363 . S
C238 H241 0.929 . S
C239 C238 1.363 . S
C239 C245 1.428 . S
H240 C236 0.930 . S
H241 C238 0.929 . S
S242 N243 1.613 . S
S242 N244 1.610 . S
N243 S242 1.613 . S
N243 C246 1.350 . S
N244 S242 1.610 . S
N244 C245 1.351 . S
C245 C239 1.428 . S
C245 N244 1.351 . S
C245 C246 1.434 . S
C246 C237 1.429 . S
C246 N243 1.350 . S
C246 C245 1.434 . S
C247 C248 1.369 . S
C247 C249 1.419 . S
C247 H251 0.930 . S
C248 C247 1.369 . S
C248 C257 1.429 . S
C249 C247 1.419 . S
C249 C250 1.363 . S
C249 H252 0.929 . S
C250 C249 1.363 . S
C250 C256 1.428 . S
H251 C247 0.930 . S
H252 C249 0.929 . S
S253 N254 1.613 . S
S253 N255 1.610 . S
N254 S253 1.613 . S
N254 C257 1.350 . S
N255 S253 1.610 . S
N255 C256 1.351 . S
C256 C250 1.428 . S
C256 N255 1.351 . S
C256 C257 1.434 . S
C257 C248 1.429 . S
C257 N254 1.350 . S
C257 C256 1.434 . S
C258 C259 1.369 . S
C258 C260 1.419 . S
C258 H262 0.930 . S
C259 C258 1.369 . S
C259 C268 1.429 . S
C260 C258 1.419 . S
C260 C261 1.363 . S
C260 H263 0.929 . S
C261 C260 1.363 . S
C261 C267 1.428 . S
H262 C258 0.930 . S
H263 C260 0.929 . S
S264 N265 1.613 . S
S264 N266 1.610 . S
N265 S264 1.613 . S
N265 C268 1.350 . S
N266 S264 1.610 . S
N266 C267 1.351 . S
C267 C261 1.428 . S
C267 N266 1.351 . S
C267 C268 1.434 . S
C268 C259 1.429 . S
C268 N265 1.350 . S
C268 C267 1.434 . S
C269 C270 1.369 . S
C269 C271 1.419 . S
C269 H273 0.930 . S
C270 C269 1.369 . S
C270 C279 1.429 . S
C271 C269 1.419 . S
C271 C272 1.363 . S
C271 H274 0.929 . S
C272 C271 1.363 . S
C272 C278 1.428 . S
H273 C269 0.930 . S
H274 C271 0.929 . S
S275 N276 1.613 . S
S275 N277 1.610 . S
N276 S275 1.613 . S
N276 C279 1.350 . S
N277 S275 1.610 . S
N277 C278 1.351 . S
C278 C272 1.428 . S
C278 N277 1.351 . S
C278 C279 1.434 . S
C279 C270 1.429 . S
C279 N276 1.350 . S
C279 C278 1.434 . S
C280 C281 1.369 . S
C280 C282 1.419 . S
C280 H284 0.930 . S
C281 C280 1.369 . S
C281 C290 1.429 . S
C282 C280 1.419 . S
C282 C283 1.363 . S
C282 H285 0.929 . S
C283 C282 1.363 . S
C283 C289 1.428 . S
H284 C280 0.930 . S
H285 C282 0.929 . S
S286 N287 1.613 . S
S286 N288 1.610 . S
N287 S286 1.613 . S
N287 C290 1.350 . S
N288 S286 1.610 . S
N288 C289 1.351 . S
C289 C283 1.428 . S
C289 N288 1.351 . S
C289 C290 1.434 . S
C290 C281 1.429 . S
C290 N287 1.350 . S
C290 C289 1.434 . S
C291 C292 1.369 . S
C291 C293 1.419 . S
C291 H295 0.930 . S
C292 C291 1.369 . S
C292 C301 1.429 . S
C293 C291 1.419 . S
C293 C294 1.363 . S
C293 H296 0.929 . S
C294 C293 1.363 . S
C294 C300 1.428 . S
H295 C291 0.930 . S
H296 C293 0.929 . S
S297 N298 1.613 . S
S297 N299 1.610 . S
N298 S297 1.613 . S
N298 C301 1.350 . S
N299 S297 1.610 . S
N299 C300 1.351 . S
C300 C294 1.428 . S
C300 N299 1.351 . S
C300 C301 1.434 . S
C301 C292 1.429 . S
C301 N298 1.350 . S
C301 C300 1.434 . S
C302 C303 1.369 . S
C302 C304 1.419 . S
C302 H306 0.930 . S
C303 C302 1.369 . S
C303 C312 1.429 . S
C304 C302 1.419 . S
C304 C305 1.363 . S
C304 H307 0.929 . S
C305 C304 1.363 . S
C305 C311 1.428 . S
H306 C302 0.930 . S
H307 C304 0.929 . S
S308 N309 1.613 . S
S308 N310 1.610 . S
N309 S308 1.613 . S
N309 C312 1.350 . S
N310 S308 1.610 . S
N310 C311 1.351 . S
C311 C305 1.428 . S
C311 N310 1.351 . S
C311 C312 1.434 . S
C312 C303 1.429 . S
C312 N309 1.350 . S
C312 C311 1.434 . S
C313 C314 1.369 . S
C313 C315 1.419 . S
C313 H317 0.930 . S
C314 C313 1.369 . S
C314 C323 1.429 . S
C315 C313 1.419 . S
C315 C316 1.363 . S
C315 H318 0.929 . S
C316 C315 1.363 . S
C316 C322 1.428 . S
H317 C313 0.930 . S
H318 C315 0.929 . S
S319 N320 1.613 . S
S319 N321 1.610 . S
N320 S319 1.613 . S
N320 C323 1.350 . S
N321 S319 1.610 . S
N321 C322 1.351 . S
C322 C316 1.428 . S
C322 N321 1.351 . S
C322 C323 1.434 . S
C323 C314 1.429 . S
C323 N320 1.350 . S
C323 C322 1.434 . S
C324 C325 1.369 . S
C324 C326 1.419 . S
C324 H328 0.930 . S
C325 C324 1.369 . S
C325 C334 1.429 . S
C326 C324 1.419 . S
C326 C327 1.363 . S
C326 H329 0.929 . S
C327 C326 1.363 . S
C327 C333 1.428 . S
H328 C324 0.930 . S
H329 C326 0.929 . S
S330 N331 1.613 . S
S330 N332 1.610 . S
N331 S330 1.613 . S
N331 C334 1.350 . S
N332 S330 1.610 . S
N332 C333 1.351 . S
C333 C327 1.428 . S
C333 N332 1.351 . S
C333 C334 1.434 . S
C334 C325 1.429 . S
C334 N331 1.350 . S
C334 C333 1.434 . S
C335 C336 1.369 . S
C335 C337 1.419 . S
C335 H339 0.930 . S
C336 C335 1.369 . S
C336 C345 1.429 . S
C337 C335 1.419 . S
C337 C338 1.363 . S
C337 H340 0.929 . S
C338 C337 1.363 . S
C338 C344 1.428 . S
H339 C335 0.930 . S
H340 C337 0.929 . S
S341 N342 1.613 . S
S341 N343 1.610 . S
N342 S341 1.613 . S
N342 C345 1.350 . S
N343 S341 1.610 . S
N343 C344 1.351 . S
C344 C338 1.428 . S
C344 N343 1.351 . S
C344 C345 1.434 . S
C345 C336 1.429 . S
C345 N342 1.350 . S
C345 C344 1.434 . S
C346 C347 1.369 . S
C346 C348 1.419 . S
C346 H350 0.930 . S
C347 C346 1.369 . S
C347 C356 1.429 . S
C348 C346 1.419 . S
C348 C349 1.363 . S
C348 H351 0.929 . S
C349 C348 1.363 . S
C349 C355 1.428 . S
H350 C346 0.930 . S
H351 C348 0.929 . S
S352 N353 1.613 . S
S352 N354 1.610 . S
N353 S352 1.613 . S
N353 C356 1.350 . S
N354 S352 1.610 . S
N354 C355 1.351 . S
C355 C349 1.428 . S
C355 N354 1.351 . S
C355 C356 1.434 . S
C356 C347 1.429 . S
C356 N353 1.350 . S
C356 C355 1.434 . S
C357 C358 1.369 . S
C357 C359 1.419 . S
C357 H361 0.930 . S
C358 C357 1.369 . S
C358 C367 1.429 . S
C359 C357 1.419 . S
C359 C360 1.363 . S
C359 H362 0.929 . S
C360 C359 1.363 . S
C360 C366 1.428 . S
H361 C357 0.930 . S
H362 C359 0.929 . S
S363 N364 1.613 . S
S363 N365 1.610 . S
N364 S363 1.613 . S
N364 C367 1.350 . S
N365 S363 1.610 . S
N365 C366 1.351 . S
C366 C360 1.428 . S
C366 N365 1.351 . S
C366 C367 1.434 . S
C367 C358 1.429 . S
C367 N364 1.350 . S
C367 C366 1.434 . S
C368 C369 1.369 1_556 S
C368 C370 1.419 . S
C368 H372 0.930 . S
C369 C368 1.369 1_554 S
C369 C378 1.429 . S
C370 C368 1.419 . S
C370 C371 1.363 1_556 S
C370 H373 0.929 . S
C371 C370 1.363 1_554 S
C371 C377 1.428 . S
H372 C368 0.930 . S
H373 C370 0.929 . S
S374 N375 1.613 . S
S374 N376 1.610 . S
N375 S374 1.613 . S
N375 C378 1.350 . S
N376 S374 1.610 . S
N376 C377 1.351 . S
C377 C371 1.428 . S
C377 N376 1.351 . S
C377 C378 1.434 . S
C378 C369 1.429 . S
C378 N375 1.350 . S
C378 C377 1.434 . S
C379 C380 1.369 . S
C379 C381 1.419 . S
C379 H383 0.930 . S
C380 C379 1.369 . S
C380 C389 1.429 . S
C381 C379 1.419 . S
C381 C382 1.363 . S
C381 H384 0.929 . S
C382 C381 1.363 . S
C382 C388 1.428 . S
H383 C379 0.930 . S
H384 C381 0.929 . S
S385 N386 1.613 . S
S385 N387 1.610 . S
N386 S385 1.613 . S
N386 C389 1.350 . S
N387 S385 1.610 . S
N387 C388 1.351 . S
C388 C382 1.428 . S
C388 N387 1.351 . S
C388 C389 1.434 . S
C389 C380 1.429 . S
C389 N386 1.350 . S
C389 C388 1.434 . S
C390 C391 1.369 1_556 S
C390 C392 1.419 . S
C390 H394 0.930 . S
C391 C390 1.369 1_554 S
C391 C400 1.429 . S
C392 C390 1.419 . S
C392 C393 1.363 1_556 S
C392 H395 0.929 . S
C393 C392 1.363 1_554 S
C393 C399 1.428 . S
H394 C390 0.930 . S
H395 C392 0.929 . S
S396 N397 1.613 . S
S396 N398 1.610 . S
N397 S396 1.613 . S
N397 C400 1.350 . S
N398 S396 1.610 . S
N398 C399 1.351 . S
C399 C393 1.428 . S
C399 N398 1.351 . S
C399 C400 1.434 . S
C400 C391 1.429 . S
C400 N397 1.350 . S
C400 C399 1.434 . S
C401 C402 1.369 . S
C401 C403 1.419 . S
C401 H405 0.930 . S
C402 C401 1.369 . S
C402 C411 1.429 . S
C403 C401 1.419 . S
C403 C404 1.363 . S
C403 H406 0.929 . S
C404 C403 1.363 . S
C404 C410 1.428 . S
H405 C401 0.930 . S
H406 C403 0.929 . S
S407 N408 1.613 . S
S407 N409 1.610 . S
N408 S407 1.613 . S
N408 C411 1.350 . S
N409 S407 1.610 . S
N409 C410 1.351 . S
C410 C404 1.428 . S
C410 N409 1.351 . S
C410 C411 1.434 . S
C411 C402 1.429 . S
C411 N408 1.350 . S
C411 C410 1.434 . S
C412 C413 1.369 . S
C412 C414 1.419 . S
C412 H416 0.930 . S
C413 C412 1.369 . S
C413 C422 1.429 . S
C414 C412 1.419 . S
C414 C415 1.363 . S
C414 H417 0.929 . S
C415 C414 1.363 . S
C415 C421 1.428 . S
H416 C412 0.930 . S
H417 C414 0.929 . S
S418 N419 1.613 . S
S418 N420 1.610 . S
N419 S418 1.613 . S
N419 C422 1.350 . S
N420 S418 1.610 . S
N420 C421 1.351 . S
C421 C415 1.428 . S
C421 N420 1.351 . S
C421 C422 1.434 . S
C422 C413 1.429 . S
C422 N419 1.350 . S
C422 C421 1.434 . S
C423 C424 1.369 . S
C423 C425 1.419 . S
C423 H427 0.930 1_554 S
C424 C423 1.369 . S
C424 C433 1.429 . S
C425 C423 1.419 . S
C425 C426 1.363 . S
C425 H428 0.929 1_554 S
C426 C425 1.363 . S
C426 C432 1.428 . S
H427 C423 0.930 1_556 S
H428 C425 0.929 1_556 S
S429 N430 1.613 . S
S429 N431 1.610 . S
N430 S429 1.613 . S
N430 C433 1.350 . S
N431 S429 1.610 . S
N431 C432 1.351 . S
C432 C426 1.428 . S
C432 N431 1.351 . S
C432 C433 1.434 . S
C433 C424 1.429 . S
C433 N430 1.350 . S
C433 C432 1.434 . S
C434 C435 1.369 . S
C434 C436 1.419 . S
C434 H438 0.930 . S
C435 C434 1.369 . S
C435 C444 1.429 . S
C436 C434 1.419 . S
C436 C437 1.363 . S
C436 H439 0.929 . S
C437 C436 1.363 . S
C437 C443 1.428 . S
H438 C434 0.930 . S
H439 C436 0.929 . S
S440 N441 1.613 . S
S440 N442 1.610 . S
N441 S440 1.613 . S
N441 C444 1.350 . S
N442 S440 1.610 . S
N442 C443 1.351 . S
C443 C437 1.428 . S
C443 N442 1.351 . S
C443 C444 1.434 . S
C444 C435 1.429 . S
C444 N441 1.350 . S
C444 C443 1.434 . S
C445 C446 1.369 1_556 S
C445 C447 1.419 . S
C445 H449 0.930 . S
C446 C445 1.369 1_554 S
C446 C455 1.429 . S
C447 C445 1.419 . S
C447 C448 1.363 1_556 S
C447 H450 0.929 . S
C448 C447 1.363 1_554 S
C448 C454 1.428 . S
H449 C445 0.930 . S
H450 C447 0.929 . S
S451 N452 1.613 . S
S451 N453 1.610 . S
N452 S451 1.613 . S
N452 C455 1.350 . S
N453 S451 1.610 . S
N453 C454 1.351 . S
C454 C448 1.428 . S
C454 N453 1.351 . S
C454 C455 1.434 . S
C455 C446 1.429 . S
C455 N452 1.350 . S
C455 C454 1.434 . S
C193 C5 1.472 . S
C195 C135 1.480 . S
C204 C31 1.498 . S
C206 C97 1.479 . S
C217 C110 1.466 . S
C215 C53 1.478 . S
C226 C71 1.456 . S
C228 C122 1.467 . S
C239 C162 1.479 . S
C237 C75 1.499 . S
C250 C174 1.480 . S
C248 C9 1.474 . S
C261 C187 1.467 . S
C259 C27 1.456 . S
C272 C149 1.465 . S
C270 C49 1.478 . S
C281 C51 1.472 . S
C283 C109 1.475 . S
C292 C72 1.502 . S
C294 C123 1.485 . S
C303 C6 1.478 . S
C305 C136 1.467 . S
C316 C96 1.464 . S
C314 C29 1.456 . S
C325 C28 1.499 . S
C327 C188 1.481 . S
C338 C148 1.475 . S
C336 C50 1.472 . S
C349 C161 1.463 . S
C347 C73 1.454 . S
C358 C7 1.478 . S
C360 C175 1.467 . S
C371 C92 1.448 1_554 S
C369 C4 1.507 . S
C382 C105 1.445 . S
C380 C30 1.508 . S
C391 C52 1.508 . S
C393 C118 1.478 . S
C402 C70 1.507 . S
C404 C131 1.482 . S
C415 C144 1.443 . S
C413 C74 1.506 . S
C424 C8 1.505 . S
C426 C157 1.443 . S
C435 C26 1.506 . S
C437 C170 1.482 . S
C446 C48 1.506 . S
C448 C183 1.484 1_554 S
