# Generated by pormake.
# Topology nom, (4,4)-cn, num edge types: 1
# Building blocks:
#     Node 0, Type 0, BuildingBlock: GIZVER_clean_linker_0, # of connection points: 4
#     Node 1, Type 0, BuildingBlock: GIZVER_clean_linker_0, # of connection points: 4
#     Node 2, Type 0, BuildingBlock: GIZVER_clean_linker_0, # of connection points: 4
#     Node 3, Type 0, BuildingBlock: GIZVER_clean_linker_0, # of connection points: 4
#     Node 4, Type 0, BuildingBlock: GIZVER_clean_linker_0, # of connection points: 4
#     Node 5, Type 0, BuildingBlock: GIZVER_clean_linker_0, # of connection points: 4
#     Node 6, Type 1, BuildingBlock: CEKHIL_clean_sbu_0, # of connection points: 4
#     Node 7, Type 1, BuildingBlock: CEKHIL_clean_sbu_0, # of connection points: 4
#     Node 8, Type 1, BuildingBlock: CEKHIL_clean_sbu_0, # of connection points: 4
#     Node 9, Type 1, BuildingBlock: CEKHIL_clean_sbu_0, # of connection points: 4
#     Node 10, Type 1, BuildingBlock: CEKHIL_clean_sbu_0, # of connection points: 4
#     Node 11, Type 1, BuildingBlock: CEKHIL_clean_sbu_0, # of connection points: 4
#     Edge 12, Type (0, 1), BuildingBlock: UVAHIK_clean_linker_0, # of connection points: 2
#     Edge 13, Type (0, 1), BuildingBlock: UVAHIK_clean_linker_0, # of connection points: 2
#     Edge 14, Type (0, 1), BuildingBlock: UVAHIK_clean_linker_0, # of connection points: 2
#     Edge 15, Type (0, 1), BuildingBlock: UVAHIK_clean_linker_0, # of connection points: 2
#     Edge 16, Type (0, 1), BuildingBlock: UVAHIK_clean_linker_0, # of connection points: 2
#     Edge 17, Type (0, 1), BuildingBlock: UVAHIK_clean_linker_0, # of connection points: 2
#     Edge 18, Type (0, 1), BuildingBlock: UVAHIK_clean_linker_0, # of connection points: 2
#     Edge 19, Type (0, 1), BuildingBlock: UVAHIK_clean_linker_0, # of connection points: 2
#     Edge 20, Type (0, 1), BuildingBlock: UVAHIK_clean_linker_0, # of connection points: 2
#     Edge 21, Type (0, 1), BuildingBlock: UVAHIK_clean_linker_0, # of connection points: 2
#     Edge 22, Type (0, 1), BuildingBlock: UVAHIK_clean_linker_0, # of connection points: 2
#     Edge 23, Type (0, 1), BuildingBlock: UVAHIK_clean_linker_0, # of connection points: 2
#     Edge 24, Type (0, 1), BuildingBlock: UVAHIK_clean_linker_0, # of connection points: 2
#     Edge 25, Type (0, 1), BuildingBlock: UVAHIK_clean_linker_0, # of connection points: 2
#     Edge 26, Type (0, 1), BuildingBlock: UVAHIK_clean_linker_0, # of connection points: 2
#     Edge 27, Type (0, 1), BuildingBlock: UVAHIK_clean_linker_0, # of connection points: 2
#     Edge 28, Type (0, 1), BuildingBlock: UVAHIK_clean_linker_0, # of connection points: 2
#     Edge 29, Type (0, 1), BuildingBlock: UVAHIK_clean_linker_0, # of connection points: 2
#     Edge 30, Type (0, 1), BuildingBlock: UVAHIK_clean_linker_0, # of connection points: 2
#     Edge 31, Type (0, 1), BuildingBlock: UVAHIK_clean_linker_0, # of connection points: 2
#     Edge 32, Type (0, 1), BuildingBlock: UVAHIK_clean_linker_0, # of connection points: 2
#     Edge 33, Type (0, 1), BuildingBlock: UVAHIK_clean_linker_0, # of connection points: 2
#     Edge 34, Type (0, 1), BuildingBlock: UVAHIK_clean_linker_0, # of connection points: 2
#     Edge 35, Type (0, 1), BuildingBlock: UVAHIK_clean_linker_0, # of connection points: 2
# Relax obj value: 0.005
# Max RMSD: 0.070
# Mean RMSD: 0.052
data_MOF--net-nom--node1-CEKHIL_clean_sbu_0--node2-GIZVER_clean_linker_0--edge1-UVAHIK_clean_linker_0
_symmetry_space_group_name_H-M    P1
_symmetry_Int_Tables_number       1
_symmetry_cell_setting            triclinic
loop_
_symmetry_equiv_pos_as_xyz
'x, y, z'
_cell_length_a     60.402893
_cell_length_b     59.877192
_cell_length_c     59.177817
_cell_angle_alpha  90.00496
_cell_angle_beta   90.021236
_cell_angle_gamma 121.01995
loop_
_atom_site_label
_atom_site_type_symbol
_atom_site_fract_x
_atom_site_fract_y
_atom_site_fract_z
_atom_type_partial_charge
H0 H 0.97366 0.54372 0.35289 0.0
H1 H 1.00257 0.55009 0.28505 0.0
H2 H 0.92559 0.48942 0.3016 0.0
H3 H 0.0129 0.58262 0.34163 0.0
H4 H 0.02166 0.58807 0.31254 0.0
H5 H 0.02836 0.55977 0.36632 0.0
H6 H 0.09942 0.56644 0.34517 0.0
H7 H 0.05355 0.57919 0.29725 0.0
C8 C 0.97116 0.53623 0.33581 0.0
C9 C 0.94733 0.51457 0.32933 0.0
C10 C 0.99146 0.54886 0.32004 0.0
C11 C 0.98755 0.53983 0.29756 0.0
C12 C 0.96391 0.51808 0.2911 0.0
C13 C 0.94422 0.50542 0.30708 0.0
C14 C 0.01604 0.57363 0.32645 0.0
C15 C 0.03798 0.56899 0.33104 0.0
C16 C 0.04184 0.56253 0.35298 0.0
C17 C 0.06381 0.56111 0.35801 0.0
C18 C 0.08165 0.56576 0.34083 0.0
C19 C 0.0784 0.57253 0.31889 0.0
C20 C 0.05616 0.57361 0.31401 0.0
H21 H 0.44357 0.96751 0.51322 0.0
H22 H 0.46832 0.99429 0.4452 0.0
H23 H 0.45637 0.92033 0.46686 0.0
H24 H 0.43829 0.00191 0.49702 0.0
H25 H 0.4474 0.01222 0.46855 0.0
H26 H 0.47215 0.0182 0.5277 0.0
H27 H 0.53685 0.09492 0.51586 0.0
H28 H 0.48876 0.04977 0.46019 0.0
C29 C 0.4504 0.96524 0.49694 0.0
C30 C 0.45046 0.94231 0.49223 0.0
C31 C 0.45749 0.98444 0.4802 0.0
C32 C 0.46432 0.98028 0.45852 0.0
C33 C 0.46413 0.95719 0.45358 0.0
C34 C 0.45808 0.93885 0.47082 0.0
C35 C 0.45388 0.00725 0.48438 0.0
C36 C 0.47833 0.03089 0.49281 0.0
C37 C 0.4845 0.03355 0.51598 0.0
C38 C 0.506 0.05647 0.52414 0.0
C39 C 0.52128 0.0767 0.50912 0.0
C40 C 0.51514 0.07476 0.48607 0.0
C41 C 0.49389 0.05148 0.47792 0.0
H42 H 0.43808 0.4714 0.62237 0.0
H43 H 0.46124 0.46789 0.69064 0.0
H44 H 0.44716 0.52852 0.67132 0.0
H45 H 0.43854 0.43357 0.63436 0.0
H46 H 0.43869 0.4281 0.66395 0.0
H47 H 0.48238 0.46198 0.61434 0.0
H48 H 0.53946 0.44504 0.63808 0.0
H49 H 0.47407 0.4267 0.67963 0.0
C50 C 0.44367 0.47974 0.63914 0.0
C51 C 0.44247 0.50193 0.64467 0.0
C52 C 0.45105 0.46767 0.65552 0.0
C53 C 0.45682 0.47778 0.67766 0.0
C54 C 0.45589 0.50006 0.6832 0.0
C55 C 0.4492 0.51216 0.66657 0.0
C56 C 0.4496 0.44226 0.65021 0.0
C57 C 0.47604 0.44549 0.64783 0.0
C58 C 0.49011 0.45553 0.62767 0.0
C59 C 0.51317 0.4556 0.62407 0.0
C60 C 0.5225 0.44641 0.64121 0.0
C61 C 0.50847 0.43578 0.66116 0.0
C62 C 0.48536 0.43561 0.66452 0.0
H63 H 0.97346 0.44024 0.79725 0.0
H64 H 0.99626 0.45441 0.86724 0.0
H65 H 0.92724 0.45187 0.84555 0.0
H66 H 1.00347 0.42809 0.81293 0.0
H67 H 0.01273 0.4338 0.84191 0.0
H68 H 0.02349 0.46506 0.78495 0.0
H69 H 0.10105 0.52479 0.80108 0.0
H70 H 0.05178 0.47295 0.85319 0.0
C71 C 0.97062 0.4451 0.81423 0.0
C72 C 0.94869 0.44671 0.81913 0.0
C73 C 0.98814 0.44828 0.83145 0.0
C74 C 0.98354 0.45315 0.85373 0.0
C75 C 0.96176 0.4549 0.8588 0.0
C76 C 0.94488 0.4522 0.84134 0.0
C77 C 0.00943 0.44271 0.82674 0.0
C78 C 0.03442 0.46694 0.82006 0.0
C79 C 0.03856 0.47542 0.79743 0.0
C80 C 0.06248 0.49661 0.79072 0.0
C81 C 0.0822 0.50937 0.80671 0.0
C82 C 0.07876 0.50093 0.82922 0.0
C83 C 0.0546 0.47986 0.8359 0.0
H84 H 0.5736 0.04676 0.01404 0.0
H85 H 0.56372 0.02437 0.94389 0.0
H86 H 0.56873 0.09574 0.96374 0.0
H87 H 0.58544 0.01553 -0.00046 0.0
H88 H 0.57966 0.00516 0.97083 0.0
H89 H 0.54953 0.99704 0.02758 0.0
H90 H 0.48689 0.92021 0.01199 0.0
H91 H 0.53862 0.96799 0.95931 0.0
C92 C 0.57028 0.05006 0.99669 0.0
C93 C 0.57038 0.07293 0.99104 0.0
C94 C 0.56744 0.03219 0.97979 0.0
C95 C 0.56468 0.0374 0.95708 0.0
C96 C 0.56473 0.06018 0.95125 0.0
C97 C 0.567 0.07738 0.96839 0.0
C98 C 0.57122 0.00978 0.98553 0.0
C99 C 0.54629 0.98564 0.99247 0.0
C100 C 0.53832 0.98201 0.01522 0.0
C101 C 0.51654 0.95855 0.02219 0.0
C102 C 0.5027 0.93887 0.00625 0.0
C103 C 0.51046 0.94186 0.98359 0.0
C104 C 0.53214 0.96555 0.9767 0.0
H105 H 0.59034 0.54588 0.12345 0.0
H106 H 0.56128 0.54221 0.19075 0.0
H107 H 0.57733 0.48382 0.16805 0.0
H108 H 0.58865 0.58223 0.13774 0.0
H109 H 0.58578 0.58443 0.16749 0.0
H110 H 0.54654 0.55597 0.11447 0.0
H111 H 0.48945 0.57378 0.13625 0.0
H112 H 0.54889 0.58382 0.18207 0.0
C113 C 0.58304 0.53568 0.13935 0.0
C114 C 0.5839 0.51306 0.14357 0.0
C115 C 0.57407 0.5459 0.15608 0.0
C116 C 0.56665 0.53359 0.17733 0.0
C117 C 0.5675 0.51097 0.18162 0.0
C118 C 0.57538 0.50049 0.16442 0.0
C119 C 0.57612 0.57188 0.15251 0.0
C120 C 0.5501 0.56931 0.14889 0.0
C121 C 0.53796 0.56168 0.12762 0.0
C122 C 0.51571 0.56284 0.12296 0.0
C123 C 0.50547 0.57109 0.14011 0.0
C124 C 0.51707 0.57854 0.16147 0.0
C125 C 0.53935 0.57743 0.16582 0.0
Co126 Co 0.64132 0.38084 0.40426 0.0
O127 O 0.66663 0.38059 0.38462 0.0
O128 O 0.67428 0.4129 0.40767 0.0
C129 C 0.62574 0.33984 0.41726 0.0
O130 O 0.62104 0.38803 0.42777 0.0
Co131 Co 0.58241 0.34173 0.39872 0.0
O132 O 0.579 0.35686 0.42732 0.0
C133 C 0.60979 0.38609 0.36707 0.0
C134 C 0.68315 0.40318 0.39311 0.0
C135 C 0.5979 0.37756 0.43563 0.0
O136 O 0.63025 0.39644 0.37953 0.0
O137 O 0.59006 0.36348 0.37084 0.0
O138 O 0.6465 0.35922 0.42604 0.0
O139 O 0.61613 0.34561 0.40039 0.0
Co140 Co 0.27277 0.63637 0.57502 0.0
O141 O 0.29818 0.63518 0.59375 0.0
O142 O 0.27314 0.60467 0.56916 0.0
C143 C 0.2992 0.67829 0.56432 0.0
O144 O 0.24527 0.63112 0.55207 0.0
Co145 Co 0.25408 0.67508 0.58438 0.0
O146 O 0.23606 0.66288 0.55497 0.0
C147 C 0.23412 0.62716 0.61203 0.0
C148 C 0.29182 0.61334 0.58384 0.0
C149 C 0.23339 0.64262 0.54529 0.0
O150 O 0.24541 0.6186 0.59921 0.0
O151 O 0.23722 0.64989 0.60991 0.0
O152 O 0.29998 0.65961 0.5539 0.0
O153 O 0.28376 0.67127 0.58136 0.0
Co154 Co 0.64734 0.27237 0.73412 0.0
O155 O 0.64243 0.29483 0.714 0.0
O156 O 0.61563 0.2713 0.74148 0.0
C157 C 0.68932 0.30147 0.74195 0.0
O158 O 0.64576 0.24765 0.75867 0.0
Co159 Co 0.68694 0.25517 0.72421 0.0
O160 O 0.67797 0.23957 0.7548 0.0
C161 C 0.63674 0.22996 0.70001 0.0
C162 C 0.62147 0.28812 0.72529 0.0
C163 C 0.65846 0.23699 0.76544 0.0
O164 O 0.62877 0.24217 0.71235 0.0
O165 O 0.65979 0.23421 0.70105 0.0
O166 O 0.67105 0.30248 0.75258 0.0
O167 O 0.6818 0.28438 0.726 0.0
Co168 Co 0.38451 0.6358 0.90222 0.0
O169 O 0.35847 0.63472 0.88258 0.0
O170 O 0.35196 0.60362 0.90662 0.0
C171 C 0.39974 0.67722 0.91394 0.0
O172 O 0.40552 0.62988 0.92592 0.0
Co173 Co 0.44326 0.67539 0.89644 0.0
O174 O 0.44635 0.66377 0.92703 0.0
C175 C 0.4164 0.62922 0.86623 0.0
C176 C 0.34242 0.61244 0.89183 0.0
C177 C 0.42815 0.64232 0.93492 0.0
O178 O 0.39555 0.61955 0.87809 0.0
O179 O 0.43625 0.65182 0.8699 0.0
O180 O 0.37931 0.65802 0.92328 0.0
O181 O 0.40931 0.671 0.89735 0.0
Co182 Co 0.75134 0.37597 0.0758 0.0
O183 O 0.72824 0.37963 0.0959 0.0
O184 O 0.7528 0.4085 0.07 0.0
C185 C 0.72249 0.33425 0.06596 0.0
O186 O 0.77679 0.37919 0.05147 0.0
Co187 Co 0.7676 0.335 0.08323 0.0
O188 O 0.78428 0.34619 0.05325 0.0
C189 C 0.79128 0.38335 0.11085 0.0
C190 C 0.73528 0.40145 0.08559 0.0
C191 C 0.78743 0.36677 0.04387 0.0
O192 O 0.78027 0.39285 0.09878 0.0
O193 O 0.78681 0.36013 0.10832 0.0
O194 O 0.72217 0.35344 0.05605 0.0
O195 O 0.73895 0.34071 0.08218 0.0
Co196 Co 0.3819 0.74464 0.2366 0.0
O197 O 0.3851 0.72087 0.2168 0.0
O198 O 0.41272 0.7439 0.24398 0.0
C199 C 0.33946 0.71727 0.24422 0.0
O200 O 0.38499 0.77014 0.26109 0.0
Co201 Co 0.3445 0.76476 0.22689 0.0
O202 O 0.35345 0.77929 0.2578 0.0
C203 C 0.39598 0.78996 0.20479 0.0
C204 C 0.4058 0.72654 0.2281 0.0
C205 C 0.37288 0.78131 0.26815 0.0
O206 O 0.40186 0.77463 0.21488 0.0
O207 O 0.37408 0.78833 0.20674 0.0
O208 O 0.35699 0.71514 0.25506 0.0
O209 O 0.34789 0.73446 0.22833 0.0
C210 C 0.11588 0.57109 0.30215 0.0
C211 C 0.10038 0.58234 0.30272 0.0
C212 C 0.1401 0.58401 0.29175 0.0
C213 C 0.19057 0.65152 0.27674 0.0
H214 H 0.22622 0.61777 0.2539 0.0
C215 C 0.29439 0.70839 0.241 0.0
C216 C 0.31164 0.70138 0.24966 0.0
C217 C 0.26797 0.69321 0.24557 0.0
C218 C 0.21647 0.6274 0.26033 0.0
H219 H 0.09721 0.61479 0.29067 0.0
H220 H 0.13867 0.63651 0.27137 0.0
H221 H 0.18011 0.59163 0.26243 0.0
H222 H 0.31475 0.67285 0.26974 0.0
H223 H 0.26831 0.64597 0.27746 0.0
H224 H 0.22694 0.6873 0.2743 0.0
C225 C 0.13265 0.61825 0.27989 0.0
C226 C 0.19006 0.61246 0.26526 0.0
C227 C 0.10856 0.6055 0.29061 0.0
C228 C 0.30191 0.67878 0.26292 0.0
C229 C 0.27537 0.66332 0.2672 0.0
C230 C 0.21683 0.66645 0.27149 0.0
C231 C 0.14928 0.60832 0.28127 0.0
C232 C 0.17678 0.62428 0.27381 0.0
C233 C 0.25817 0.67046 0.2586 0.0
C234 C 0.23011 0.65452 0.26349 0.0
H235 H 0.10994 0.553 0.31095 0.0
H236 H 0.15219 0.57562 0.29323 0.0
H237 H 0.18134 0.66137 0.28381 0.0
H238 H 0.30128 0.72568 0.23069 0.0
H239 H 0.25513 0.69908 0.23865 0.0
C240 C 0.51437 0.10589 0.45819 0.0
C241 C 0.52867 0.09863 0.47186 0.0
C242 C 0.52588 0.13109 0.44932 0.0
C243 C 0.58878 0.19368 0.44183 0.0
H244 H 0.54546 0.22357 0.44863 0.0
C245 C 0.62856 0.30505 0.43846 0.0
C246 C 0.61454 0.31255 0.42469 0.0
C247 C 0.61859 0.2787 0.44356 0.0
C248 C 0.55775 0.21547 0.44648 0.0
H249 H 0.56691 0.11129 0.48492 0.0
H250 H 0.58677 0.15537 0.47006 0.0
H251 H 0.52757 0.17749 0.4562 0.0
H252 H 0.57889 0.29848 0.40595 0.0
H253 H 0.56144 0.25279 0.4151 0.0
H254 H 0.61915 0.23209 0.43264 0.0
C255 C 0.56671 0.14169 0.46608 0.0
C256 C 0.54745 0.18897 0.45064 0.0
C257 C 0.55525 0.11642 0.47477 0.0
C258 C 0.59014 0.29334 0.41664 0.0
C259 C 0.5801 0.26714 0.42192 0.0
C260 C 0.59915 0.2203 0.43784 0.0
C261 C 0.55189 0.14966 0.45404 0.0
C262 C 0.56278 0.17766 0.44833 0.0
C263 C 0.5943 0.25948 0.43522 0.0
C264 C 0.58371 0.23144 0.44009 0.0
H265 H 0.49385 0.09275 0.45563 0.0
H266 H 0.51406 0.13633 0.43957 0.0
H267 H 0.60111 0.18563 0.43969 0.0
H268 H 0.64747 0.31944 0.44481 0.0
H269 H 0.62985 0.27335 0.45404 0.0
C270 C 0.40646 0.49627 0.61948 0.0
C271 C 0.43085 0.51274 0.62925 0.0
C272 C 0.3922 0.50667 0.61048 0.0
C273 C 0.38344 0.56062 0.62275 0.0
H274 H 0.34379 0.54398 0.56732 0.0
C275 C 0.33032 0.61376 0.59958 0.0
C276 C 0.30663 0.60029 0.58807 0.0
C277 C 0.34528 0.60243 0.60284 0.0
C278 C 0.35443 0.54853 0.58304 0.0
H279 H 0.46055 0.55304 0.63502 0.0
H280 H 0.43564 0.57111 0.6195 0.0
H281 H 0.37122 0.52556 0.57422 0.0
H282 H 0.27996 0.56421 0.57101 0.0
H283 H 0.30565 0.54383 0.57752 0.0
H284 H 0.36623 0.58261 0.63224 0.0
C285 C 0.42739 0.55019 0.61908 0.0
C286 C 0.37027 0.53811 0.58687 0.0
C287 C 0.44167 0.53986 0.62788 0.0
C288 C 0.29813 0.57505 0.57999 0.0
C289 C 0.31299 0.56349 0.58356 0.0
C290 C 0.36739 0.57064 0.61914 0.0
C291 C 0.40209 0.53366 0.61123 0.0
C292 C 0.38519 0.54439 0.60664 0.0
C293 C 0.33681 0.57706 0.59504 0.0
C294 C 0.3529 0.56509 0.59911 0.0
H295 H 0.39752 0.47529 0.62045 0.0
H296 H 0.37273 0.4935 0.60452 0.0
H297 H 0.39424 0.56527 0.63841 0.0
H298 H 0.33765 0.63339 0.60573 0.0
H299 H 0.36375 0.61386 0.61122 0.0
C300 C 0.91789 0.41519 0.79035 0.0
C301 C 0.92732 0.43854 0.80256 0.0
C302 C 0.8938 0.40372 0.77962 0.0
C303 C 0.832 0.39799 0.78914 0.0
H304 H 0.81235 0.36338 0.73098 0.0
C305 C 0.72535 0.34127 0.7605 0.0
C306 C 0.71695 0.31862 0.74761 0.0
C307 C 0.75164 0.35792 0.76513 0.0
C308 C 0.81742 0.37263 0.74742 0.0
H309 H 0.92017 0.46952 0.81098 0.0
H310 H 0.87801 0.44928 0.79253 0.0
H311 H 0.85801 0.38965 0.74112 0.0
H312 H 0.7294 0.29539 0.72974 0.0
H313 H 0.77496 0.32361 0.73866 0.0
H314 H 0.79172 0.38015 0.79614 0.0
C315 C 0.88909 0.43972 0.79154 0.0
C316 C 0.84362 0.38785 0.7531 0.0
C317 C 0.91323 0.45131 0.80203 0.0
C318 C 0.7353 0.31279 0.73964 0.0
C319 C 0.76152 0.32917 0.74458 0.0
C320 C 0.80585 0.38247 0.78365 0.0
C321 C 0.87868 0.4153 0.78104 0.0
C322 C 0.85115 0.40062 0.77405 0.0
C323 C 0.77012 0.35207 0.75731 0.0
C324 C 0.79813 0.36943 0.76275 0.0
H325 H 0.9281 0.40472 0.79058 0.0
H326 H 0.88622 0.38486 0.77166 0.0
H327 H 0.83722 0.40721 0.8056 0.0
H328 H 0.71165 0.34639 0.76667 0.0
H329 H 0.75744 0.37556 0.77462 0.0
C330 C 0.51295 0.91139 0.95602 0.0
C331 C 0.49788 0.9186 0.96858 0.0
C332 C 0.5018 0.8864 0.9467 0.0
C333 C 0.43877 0.82447 0.93629 0.0
H334 H 0.48053 0.79321 0.94574 0.0
C335 C 0.39715 0.71269 0.93419 0.0
C336 C 0.41114 0.7047 0.92095 0.0
C337 C 0.40743 0.73917 0.939 0.0
C338 C 0.46869 0.80171 0.94286 0.0
H339 H 0.45885 0.90622 0.97917 0.0
H340 H 0.43957 0.86256 0.96359 0.0
H341 H 0.49883 0.83936 0.9534 0.0
H342 H 0.44706 0.71801 0.90288 0.0
H343 H 0.4651 0.76393 0.91164 0.0
H344 H 0.40837 0.78633 0.92642 0.0
C345 C 0.45996 0.87606 0.96076 0.0
C346 C 0.47924 0.82826 0.94705 0.0
C347 C 0.47106 0.9011 0.96986 0.0
C348 C 0.43581 0.72354 0.91314 0.0
C349 C 0.44619 0.74986 0.9182 0.0
C350 C 0.42813 0.79779 0.93234 0.0
C351 C 0.47537 0.86801 0.94987 0.0
C352 C 0.46445 0.84004 0.94384 0.0
C353 C 0.43203 0.75801 0.93095 0.0
C354 C 0.44299 0.78616 0.93559 0.0
H355 H 0.53367 0.92435 0.95473 0.0
H356 H 0.51416 0.88114 0.93786 0.0
H357 H 0.42686 0.83286 0.93338 0.0
H358 H 0.37804 0.69859 0.94034 0.0
H359 H 0.3962 0.74491 0.94905 0.0
C360 C 0.58564 0.47874 0.121 0.0
C361 C 0.59776 0.50467 0.12843 0.0
C362 C 0.60025 0.46877 0.11206 0.0
C363 C 0.66742 0.48694 0.09459 0.0
H364 H 0.64395 0.41672 0.11504 0.0
C365 C 0.72302 0.43396 0.07408 0.0
C366 C 0.72217 0.41616 0.09004 0.0
C367 C 0.70817 0.44557 0.07709 0.0
C368 C 0.65105 0.43648 0.10942 0.0
H369 H 0.63434 0.54085 0.13151 0.0
H370 H 0.66001 0.52348 0.11658 0.0
H371 H 0.61733 0.43539 0.12167 0.0
H372 H 0.70608 0.39752 0.12218 0.0
H373 H 0.68121 0.41857 0.12801 0.0
H374 H 0.70191 0.48845 0.08356 0.0
C375 C 0.63921 0.51084 0.11696 0.0
C376 C 0.63542 0.44707 0.11279 0.0
C377 C 0.62451 0.52091 0.1255 0.0
C378 C 0.70699 0.41101 0.10949 0.0
C379 C 0.69248 0.4229 0.11268 0.0
C380 C 0.68326 0.47644 0.09149 0.0
C381 C 0.62739 0.48435 0.1109 0.0
C382 C 0.64339 0.47253 0.10557 0.0
C383 C 0.69238 0.43992 0.0963 0.0
C384 C 0.6754 0.45112 0.09906 0.0
H385 H 0.56502 0.46582 0.12322 0.0
H386 H 0.59029 0.44852 0.10696 0.0
H387 H 0.67417 0.50646 0.08851 0.0
H388 H 0.73438 0.43817 0.05881 0.0
H389 H 0.70847 0.45831 0.06396 0.0
C390 C 0.41106 0.90811 0.51176 0.0
C391 C 0.43755 0.91943 0.50735 0.0
C392 C 0.39681 0.88286 0.52045 0.0
C393 C 0.39849 0.83092 0.55054 0.0
H394 H 0.34326 0.78405 0.51007 0.0
C395 C 0.31928 0.72544 0.57346 0.0
C396 C 0.31552 0.706 0.55797 0.0
C397 C 0.33518 0.75175 0.56807 0.0
C398 C 0.35866 0.79693 0.52146 0.0
H399 H 0.4703 0.91411 0.5098 0.0
H400 H 0.44548 0.87017 0.52602 0.0
H401 H 0.36903 0.83065 0.50127 0.0
H402 H 0.32521 0.69878 0.52458 0.0
H403 H 0.35252 0.74511 0.5148 0.0
H404 H 0.3877 0.79722 0.57097 0.0
C405 C 0.43577 0.88077 0.5225 0.0
C406 C 0.37321 0.82353 0.51655 0.0
C407 C 0.44995 0.90586 0.51335 0.0
C408 C 0.32779 0.71338 0.53683 0.0
C409 C 0.34333 0.7398 0.53124 0.0
C410 C 0.38354 0.80437 0.5557 0.0
C411 C 0.40892 0.86872 0.52527 0.0
C412 C 0.39324 0.84074 0.53104 0.0
C413 C 0.34727 0.75918 0.5469 0.0
C414 C 0.36355 0.78715 0.54116 0.0
H415 H 0.401 0.91801 0.50689 0.0
H416 H 0.37613 0.87395 0.52257 0.0
H417 H 0.4139 0.84385 0.56189 0.0
H418 H 0.31015 0.72034 0.58993 0.0
H419 H 0.33774 0.76634 0.58033 0.0
C420 C 0.49875 0.39399 0.67911 0.0
C421 C 0.51593 0.42082 0.67604 0.0
C422 C 0.50748 0.3783 0.68813 0.0
C423 C 0.559 0.37699 0.71989 0.0
H424 H 0.5478 0.32191 0.67837 0.0
C425 C 0.59004 0.30118 0.73765 0.0
C426 C 0.60602 0.30038 0.72079 0.0
C427 C 0.57713 0.31471 0.73401 0.0
C428 C 0.55092 0.3371 0.69017 0.0
H429 H 0.55516 0.4526 0.68133 0.0
H430 H 0.57026 0.42524 0.69785 0.0
H431 H 0.52808 0.34802 0.67068 0.0
H432 H 0.62046 0.31247 0.68674 0.0
H433 H 0.59715 0.3353 0.68011 0.0
H434 H 0.58195 0.36602 0.73932 0.0
C435 C 0.55013 0.41635 0.6931 0.0
C436 C 0.53952 0.3519 0.68588 0.0
C437 C 0.54152 0.43198 0.68369 0.0
C438 C 0.60827 0.31274 0.70002 0.0
C439 C 0.59491 0.32575 0.69621 0.0
C440 C 0.56998 0.36179 0.72443 0.0
C441 C 0.53343 0.38923 0.6946 0.0
C442 C 0.54371 0.3722 0.70052 0.0
C443 C 0.57949 0.32714 0.71326 0.0
C444 C 0.56635 0.34197 0.70942 0.0
H445 H 0.47903 0.38485 0.67305 0.0
H446 H 0.4942 0.35745 0.68922 0.0
H447 H 0.56256 0.39256 0.7314 0.0
H448 H 0.58809 0.29199 0.75389 0.0
H449 H 0.56526 0.31543 0.74737 0.0
C450 C 0.11987 0.53916 0.84378 0.0
C451 C 0.10172 0.51227 0.84437 0.0
C452 C 0.1443 0.54921 0.85344 0.0
C453 C 0.18997 0.52763 0.86771 0.0
H454 H 0.23195 0.59876 0.88905 0.0
C455 C 0.29727 0.57412 0.89606 0.0
C456 C 0.31432 0.59905 0.88724 0.0
C457 C 0.27053 0.5625 0.89314 0.0
C458 C 0.22046 0.57887 0.88306 0.0
H459 H 0.09429 0.47515 0.85726 0.0
H460 H 0.13659 0.49281 0.87497 0.0
H461 H 0.1859 0.58047 0.88247 0.0
H462 H 0.31668 0.6312 0.86825 0.0
H463 H 0.27013 0.61101 0.86331 0.0
H464 H 0.2247 0.52616 0.86839 0.0
C465 C 0.13223 0.50606 0.86638 0.0
C466 C 0.19405 0.56837 0.87926 0.0
C467 C 0.10778 0.49597 0.85656 0.0
C468 C 0.3041 0.61195 0.8752 0.0
C469 C 0.27741 0.6005 0.87254 0.0
C470 C 0.21633 0.53806 0.87178 0.0
C471 C 0.15117 0.53266 0.86417 0.0
C472 C 0.17852 0.54278 0.87106 0.0
C473 C 0.26032 0.57575 0.88164 0.0
C474 C 0.23196 0.56396 0.87904 0.0
H475 H 0.11568 0.55228 0.83472 0.0
H476 H 0.15827 0.56975 0.85123 0.0
H477 H 0.17884 0.50803 0.86105 0.0
H478 H 0.30454 0.56372 0.90547 0.0
H479 H 0.25781 0.54343 0.90036 0.0
C480 C 0.56686 0.10979 0.00688 0.0
C481 C 0.57846 0.09458 0.00746 0.0
C482 C 0.57887 0.13432 0.01711 0.0
C483 C 0.63052 0.17942 0.05599 0.0
H484 H 0.64128 0.23185 0.0117 0.0
C485 C 0.70935 0.28734 0.06777 0.0
C486 C 0.70475 0.30667 0.0598 0.0
C487 C 0.69207 0.26108 0.06298 0.0
C488 C 0.63813 0.21759 0.0245 0.0
H489 H 0.61046 0.09214 0.02112 0.0
H490 H 0.63108 0.13472 0.03949 0.0
H491 H 0.61269 0.18598 0.00291 0.0
H492 H 0.67838 0.31371 0.04065 0.0
H493 H 0.64772 0.2678 0.0328 0.0
H494 H 0.65582 0.21096 0.07768 0.0
C495 C 0.61282 0.12773 0.03093 0.0
C496 C 0.62171 0.19124 0.01942 0.0
C497 C 0.60091 0.10325 0.0205 0.0
C498 C 0.68254 0.29923 0.04684 0.0
C499 C 0.66501 0.27288 0.0423 0.0
C500 C 0.64669 0.20584 0.06122 0.0
C501 C 0.60255 0.14399 0.02839 0.0
C502 C 0.61798 0.17186 0.03498 0.0
C503 C 0.66951 0.25341 0.05036 0.0
C504 C 0.65105 0.2253 0.0454 0.0
H505 H 0.54937 0.10346 0.99722 0.0
H506 H 0.57029 0.14626 0.01526 0.0
H507 H 0.62787 0.16489 0.06834 0.0
H508 H 0.72639 0.29249 0.07772 0.0
H509 H 0.6966 0.24682 0.06903 0.0
C510 C 0.52446 0.6146 0.18799 0.0
C511 C 0.50736 0.5906 0.17765 0.0
C512 C 0.51504 0.62886 0.19882 0.0
C513 C 0.45383 0.62557 0.21733 0.0
H514 H 0.49223 0.69928 0.20285 0.0
C515 C 0.4073 0.68864 0.21232 0.0
C516 C 0.41955 0.71235 0.2242 0.0
C517 C 0.41929 0.67409 0.20992 0.0
C518 C 0.48146 0.67879 0.20725 0.0
H519 H 0.46696 0.56167 0.17241 0.0
H520 H 0.45061 0.58665 0.19044 0.0
H521 H 0.51089 0.67255 0.19441 0.0
H522 H 0.4542 0.73971 0.24248 0.0
H523 H 0.47559 0.71456 0.23759 0.0
H524 H 0.42379 0.63178 0.22893 0.0
C525 C 0.47126 0.59458 0.19053 0.0
C526 C 0.4922 0.66342 0.20257 0.0
C527 C 0.48065 0.58027 0.17996 0.0
C528 C 0.44432 0.72151 0.23322 0.0
C529 C 0.45654 0.70716 0.23043 0.0
C530 C 0.44295 0.64086 0.22163 0.0
C531 C 0.48834 0.61953 0.1994 0.0
C532 C 0.47833 0.63646 0.20715 0.0
C533 C 0.44397 0.68315 0.21901 0.0
C534 C 0.45648 0.66752 0.21628 0.0
H535 H 0.54515 0.62316 0.18649 0.0
H536 H 0.52879 0.64767 0.20595 0.0
H537 H 0.44277 0.60507 0.2216 0.0
H538 H 0.38817 0.68098 0.20527 0.0
H539 H 0.40931 0.65579 0.20082 0.0
C540 C 0.91674 0.51929 0.35479 0.0
C541 C 0.92425 0.50316 0.34426 0.0
C542 C 0.89177 0.50865 0.36364 0.0
C543 C 0.8275 0.45477 0.35091 0.0
H544 H 0.80581 0.47146 0.40683 0.0
C545 C 0.72039 0.40224 0.37589 0.0
C546 C 0.71102 0.41603 0.38769 0.0
C547 C 0.74681 0.41337 0.37195 0.0
C548 C 0.81153 0.46689 0.39098 0.0
H549 H 0.91251 0.4631 0.33685 0.0
H550 H 0.86901 0.4446 0.35217 0.0
H551 H 0.85188 0.48966 0.39944 0.0
H552 H 0.72203 0.45253 0.40437 0.0
H553 H 0.76822 0.47247 0.39675 0.0
H554 H 0.78764 0.43286 0.34187 0.0
C555 C 0.88222 0.46546 0.35326 0.0
C556 C 0.83792 0.47719 0.38686 0.0
C557 C 0.90714 0.47604 0.34459 0.0
C558 C 0.72867 0.44142 0.3952 0.0
C559 C 0.75518 0.45274 0.39102 0.0
C560 C 0.80128 0.44481 0.35485 0.0
C561 C 0.87392 0.48175 0.36198 0.0
C562 C 0.84611 0.47096 0.36688 0.0
C563 C 0.76462 0.43879 0.37941 0.0
C564 C 0.79283 0.45046 0.37503 0.0
H565 H 0.92942 0.54028 0.35463 0.0
H566 H 0.88587 0.52165 0.37029 0.0
H567 H 0.83328 0.45014 0.3351 0.0
H568 H 0.70736 0.38251 0.37011 0.0
H569 H 0.75325 0.40174 0.36341 0.0
C570 C 0.0814 0.54355 0.38671 0.0
C571 C 0.07104 0.55927 0.3816 0.0
C572 C 0.09473 0.54697 0.40695 0.0
C573 C 0.11163 0.58155 0.4625 0.0
H574 H 0.17755 0.58666 0.45236 0.0
C575 C 0.19915 0.64147 0.52047 0.0
C576 C 0.21437 0.63086 0.52658 0.0
C577 C 0.17985 0.62943 0.50411 0.0
C578 C 0.15909 0.58496 0.4556 0.0
H579 H 0.06483 0.5895 0.39436 0.0
H580 H 0.08807 0.59557 0.42961 0.0
H581 H 0.14502 0.56961 0.42264 0.0
H582 H 0.22143 0.59943 0.51976 0.0
H583 H 0.18777 0.57854 0.49101 0.0
H584 H 0.12617 0.59776 0.49523 0.0
C585 C 0.08578 0.58042 0.41815 0.0
C586 C 0.14034 0.57506 0.43858 0.0
C587 C 0.07235 0.5769 0.39795 0.0
C588 C 0.21013 0.60819 0.51549 0.0
C589 C 0.19085 0.5962 0.49899 0.0
C590 C 0.13043 0.59155 0.47947 0.0
C591 C 0.09808 0.56627 0.42246 0.0
C592 C 0.11654 0.57367 0.44166 0.0
C593 C 0.17529 0.60654 0.49333 0.0
C594 C 0.15455 0.59384 0.47605 0.0
H595 H 0.0805 0.52967 0.37444 0.0
H596 H 0.10341 0.53529 0.40997 0.0
H597 H 0.09338 0.58037 0.46558 0.0
H598 H 0.20184 0.65893 0.52855 0.0
H599 H 0.16855 0.63818 0.49981 0.0
C600 C 0.53577 0.06906 0.557 0.0
C601 C 0.51121 0.06161 0.54855 0.0
C602 C 0.54367 0.08115 0.57805 0.0
C603 C 0.53385 0.12513 0.61295 0.0
H604 H 0.58164 0.11968 0.653 0.0
C605 C 0.59203 0.20099 0.68381 0.0
C606 C 0.61837 0.20886 0.68465 0.0
C607 C 0.57479 0.17981 0.6703 0.0
C608 C 0.5683 0.12145 0.64198 0.0
H609 H 0.47507 0.05951 0.5558 0.0
H610 H 0.48887 0.08072 0.59283 0.0
H611 H 0.55771 0.08578 0.6249 0.0
H612 H 0.64717 0.20088 0.67138 0.0
H613 H 0.61741 0.16457 0.64798 0.0
H614 H 0.54533 0.16142 0.6294 0.0
C615 C 0.50199 0.07717 0.58317 0.0
C616 C 0.55455 0.10198 0.62595 0.0
C617 C 0.49398 0.06477 0.56216 0.0
C618 C 0.62705 0.19538 0.67137 0.0
C619 C 0.6099 0.17431 0.65805 0.0
C620 C 0.54767 0.14466 0.62899 0.0
C621 C 0.52725 0.08633 0.59095 0.0
C622 C 0.53781 0.10403 0.61077 0.0
C623 C 0.58353 0.16604 0.65753 0.0
C624 C 0.56573 0.14348 0.64313 0.0
H625 H 0.54946 0.06711 0.54662 0.0
H626 H 0.56333 0.08818 0.58342 0.0
H627 H 0.52129 0.12742 0.60135 0.0
H628 H 0.58466 0.21089 0.69381 0.0
H629 H 0.55456 0.17392 0.67018 0.0
C630 C 0.43935 0.49348 0.72272 0.0
C631 C 0.45814 0.50929 0.70673 0.0
C632 C 0.43593 0.50454 0.7423 0.0
C633 C 0.44441 0.56738 0.75856 0.0
H634 H 0.42487 0.53812 0.81877 0.0
C635 C 0.43884 0.62598 0.83211 0.0
C636 C 0.41856 0.61363 0.84781 0.0
C637 C 0.44255 0.61164 0.81563 0.0
C638 C 0.42996 0.5463 0.80193 0.0
H639 H 0.48965 0.54828 0.6995 0.0
H640 H 0.48434 0.56746 0.73394 0.0
H641 H 0.43616 0.51601 0.79013 0.0
H642 H 0.38601 0.57636 0.85822 0.0
H643 H 0.39248 0.55112 0.82903 0.0
H644 H 0.43815 0.59748 0.77005 0.0
C645 C 0.47177 0.54672 0.73118 0.0
C646 C 0.43657 0.53374 0.7856 0.0
C647 C 0.47506 0.53573 0.71163 0.0
C648 C 0.40174 0.58648 0.84633 0.0
C649 C 0.40559 0.57201 0.82977 0.0
C650 C 0.4378 0.57982 0.77476 0.0
C651 C 0.4513 0.53153 0.74611 0.0
C652 C 0.44426 0.54441 0.76382 0.0
C653 C 0.42611 0.5845 0.81428 0.0
C654 C 0.43087 0.56969 0.79673 0.0
H655 H 0.42586 0.4731 0.71913 0.0
H656 H 0.42001 0.49232 0.75347 0.0
H657 H 0.44943 0.57569 0.74175 0.0
H658 H 0.45217 0.64684 0.83265 0.0
H659 H 0.45875 0.62185 0.80418 0.0
C660 C 0.94354 0.47062 0.88858 0.0
C661 C 0.95352 0.45484 0.88244 0.0
C662 C 0.92931 0.46573 0.9085 0.0
C663 C 0.90916 0.42638 0.96159 0.0
H664 H 0.84505 0.42519 0.95174 0.0
C665 C 0.81988 0.36637 0.01769 0.0
C666 C 0.80595 0.37806 0.02476 0.0
C667 C 0.83925 0.37825 0.00138 0.0
C668 C 0.86299 0.42573 0.9549 0.0
H669 H 0.95802 0.4228 0.89307 0.0
H670 H 0.93321 0.41416 0.92774 0.0
H671 H 0.87853 0.4433 0.92286 0.0
H672 H 0.8011 0.41118 0.01956 0.0
H673 H 0.83484 0.4318 0.99088 0.0
H674 H 0.89317 0.40805 0.99338 0.0
C675 C 0.9365 0.43049 0.91737 0.0
C676 C 0.88229 0.43624 0.93838 0.0
C677 C 0.95084 0.43548 0.8975 0.0
C678 C 0.81138 0.40158 0.01453 0.0
C679 C 0.83071 0.41341 -0.00192 0.0
C680 C 0.8898 0.41576 0.97806 0.0
C681 C 0.92465 0.44485 0.92263 0.0
C682 C 0.90548 0.43635 0.94136 0.0
C683 C 0.84515 0.40208 0.9916 0.0
C684 C 0.86633 0.41493 0.97474 0.0
H685 H 0.94547 0.48579 0.87731 0.0
H686 H 0.92102 0.47759 0.9123 0.0
H687 H 0.92691 0.4265 0.96462 0.0
H688 H 0.81624 0.34824 0.02509 0.0
H689 H 0.84965 0.36875 0.99642 0.0
C690 C 0.4835 0.94044 0.0528 0.0
C691 C 0.50952 0.95246 0.04633 0.0
C692 C 0.47548 0.92838 0.07383 0.0
C693 C 0.49439 0.89624 0.11601 0.0
H694 H 0.43428 0.88831 0.14699 0.0
C695 C 0.42942 0.80831 0.17409 0.0
C696 C 0.41564 0.81192 0.19132 0.0
C697 C 0.4451 0.82892 0.15943 0.0
C698 C 0.45139 0.89055 0.13893 0.0
H699 H 0.5479 0.96299 0.05735 0.0
H700 H 0.534 0.94247 0.09454 0.0
H701 H 0.45432 0.92058 0.11738 0.0
H702 H 0.40892 0.84001 0.20812 0.0
H703 H 0.43716 0.87614 0.18353 0.0
H704 H 0.49155 0.8663 0.13781 0.0
C705 C 0.5197 0.94191 0.08314 0.0
C706 C 0.4627 0.90891 0.12166 0.0
C707 C 0.52774 0.95402 0.062 0.0
C708 C 0.41908 0.8367 0.19466 0.0
C709 C 0.43511 0.85734 0.18044 0.0
C710 C 0.48321 0.87799 0.1335 0.0
C711 C 0.49334 0.92814 0.08895 0.0
C712 C 0.48392 0.91155 0.10957 0.0
C713 C 0.44758 0.85354 0.16208 0.0
C714 C 0.46122 0.87453 0.14489 0.0
H715 H 0.46908 0.93896 0.041 0.0
H716 H 0.45501 0.91782 0.07755 0.0
H717 H 0.51057 0.89753 0.10693 0.0
H718 H 0.42697 0.7893 0.17122 0.0
H719 H 0.45424 0.82515 0.14541 0.0
C720 C 0.58142 0.51637 0.22196 0.0
C721 C 0.56478 0.50038 0.20473 0.0
C722 C 0.5849 0.50529 0.24148 0.0
C723 C 0.58195 0.44456 0.25682 0.0
H724 H 0.59516 0.47174 0.31796 0.0
C725 C 0.58911 0.38758 0.33112 0.0
C726 C 0.60783 0.40095 0.34794 0.0
C727 C 0.58501 0.40112 0.31412 0.0
C728 C 0.59187 0.46419 0.30088 0.0
H729 H 0.53681 0.46067 0.19525 0.0
H730 H 0.5422 0.44133 0.22956 0.0
H731 H 0.58267 0.49229 0.28882 0.0
H732 H 0.63737 0.43916 0.35977 0.0
H733 H 0.63021 0.46305 0.32972 0.0
H734 H 0.59114 0.41659 0.26865 0.0
C735 C 0.55317 0.46234 0.22779 0.0
C736 C 0.58458 0.47584 0.28425 0.0
C737 C 0.54983 0.47338 0.20828 0.0
C738 C 0.62288 0.4283 0.347 0.0
C739 C 0.61861 0.44197 0.32996 0.0
C740 C 0.58922 0.433 0.27335 0.0
C741 C 0.57171 0.47806 0.24405 0.0
C742 C 0.57919 0.4659 0.26209 0.0
C743 C 0.59948 0.42846 0.31343 0.0
C744 C 0.59395 0.44243 0.29563 0.0
H745 H 0.5934 0.53723 0.21951 0.0
H746 H 0.59931 0.51794 0.25368 0.0
H747 H 0.57876 0.43691 0.23978 0.0
H748 H 0.57721 0.36651 0.33124 0.0
H749 H 0.56993 0.39012 0.30183 0.0
C750 C 0.44772 0.94994 0.41395 0.0
C751 C 0.46445 0.94905 0.42993 0.0
C752 C 0.44143 0.93515 0.39417 0.0
C753 C 0.45631 0.89418 0.35782 0.0
H754 H 0.38171 0.85146 0.35318 0.0
C755 C 0.40535 0.80331 0.29949 0.0
C756 C 0.38337 0.79938 0.28772 0.0
C757 C 0.41654 0.8223 0.31645 0.0
C758 C 0.40257 0.86342 0.35394 0.0
H759 H 0.48995 0.93436 0.43655 0.0
H760 H 0.47903 0.90857 0.4019 0.0
H761 H 0.40101 0.88622 0.38096 0.0
H762 H 0.3558 0.81226 0.2849 0.0
H763 H 0.37542 0.84536 0.3139 0.0
H764 H 0.45781 0.87135 0.33063 0.0
C765 C 0.47064 0.92053 0.40473 0.0
C766 C 0.41365 0.88342 0.36987 0.0
C767 C 0.47687 0.93527 0.42458 0.0
C768 C 0.37259 0.81453 0.29365 0.0
C769 C 0.38384 0.83354 0.31042 0.0
C770 C 0.4452 0.87425 0.34165 0.0
C771 C 0.45183 0.91927 0.38994 0.0
C772 C 0.44061 0.89908 0.37197 0.0
C773 C 0.40605 0.83784 0.32196 0.0
C774 C 0.41815 0.85864 0.33949 0.0
H775 H 0.4377 0.9602 0.4176 0.0
H776 H 0.42723 0.93491 0.38283 0.0
H777 H 0.47716 0.90592 0.35911 0.0
H778 H 0.41419 0.79202 0.29538 0.0
H779 H 0.43341 0.82479 0.32522 0.0
C780 C 0.55215 0.4738 0.59891 0.0
C781 C 0.52513 0.4603 0.6013 0.0
C782 C 0.56341 0.4723 0.57875 0.0
C783 C 0.54862 0.44748 0.51925 0.0
H784 H 0.60203 0.4311 0.53019 0.0
C785 C 0.56691 0.38328 0.45946 0.0
C786 C 0.59255 0.39089 0.45412 0.0
C787 C 0.56159 0.39654 0.47594 0.0
C788 C 0.58744 0.43603 0.52678 0.0
H789 H 0.4888 0.43622 0.58389 0.0
H790 H 0.50825 0.43346 0.54892 0.0
H791 H 0.58776 0.44774 0.56094 0.0
H792 H 0.63272 0.41832 0.46228 0.0
H793 H 0.62329 0.44122 0.49149 0.0
H794 H 0.54751 0.43448 0.48531 0.0
C795 C 0.5209 0.44549 0.56241 0.0
C796 C 0.5793 0.44571 0.54438 0.0
C797 C 0.50967 0.44711 0.58251 0.0
C798 C 0.61275 0.41192 0.46596 0.0
C799 C 0.60738 0.42504 0.48269 0.0
C800 C 0.55661 0.4376 0.50172 0.0
C801 C 0.54788 0.45715 0.56059 0.0
C802 C 0.5593 0.45093 0.541 0.0
C803 C 0.58173 0.41762 0.48767 0.0
C804 C 0.57563 0.43114 0.50545 0.0
H805 H 0.56455 0.48432 0.61308 0.0
H806 H 0.58426 0.48206 0.57777 0.0
H807 H 0.53357 0.45178 0.51589 0.0
H808 H 0.55082 0.36724 0.4507 0.0
H809 H 0.54161 0.39008 0.47968 0.0
C810 C 0.06958 0.4865 0.75143 0.0
C811 C 0.06881 0.50401 0.76674 0.0
C812 C 0.08233 0.49543 0.73069 0.0
C813 C 0.1121 0.55221 0.69173 0.0
H814 H 0.1648 0.53431 0.68313 0.0
C815 C 0.20537 0.62009 0.64492 0.0
C816 C 0.21501 0.60969 0.62909 0.0
C817 C 0.18502 0.60384 0.65917 0.0
C818 C 0.14992 0.53915 0.68502 0.0
H819 H 0.07902 0.54396 0.77198 0.0
H820 H 0.10078 0.55952 0.73571 0.0
H821 H 0.1309 0.51094 0.71127 0.0
H822 H 0.21142 0.57388 0.61663 0.0
H823 H 0.17571 0.5453 0.64194 0.0
H824 H 0.13157 0.581 0.66608 0.0
C825 C 0.09163 0.53894 0.73955 0.0
C826 C 0.13044 0.52573 0.70109 0.0
C827 C 0.07917 0.53009 0.76031 0.0
C828 C 0.20448 0.58254 0.62864 0.0
C829 C 0.184 0.56618 0.64306 0.0
C830 C 0.13151 0.56558 0.67571 0.0
C831 C 0.09425 0.52195 0.72489 0.0
C832 C 0.1118 0.53269 0.7051 0.0
C833 C 0.17367 0.57669 0.65808 0.0
C834 C 0.15114 0.55981 0.67271 0.0
H835 H 0.06201 0.46637 0.75619 0.0
H836 H 0.08385 0.48186 0.71965 0.0
H837 H 0.09777 0.55773 0.69417 0.0
H838 H 0.21317 0.6409 0.64603 0.0
H839 H 0.17802 0.61261 0.67101 0.0
C840 C 0.58687 0.07036 0.91375 0.0
C841 C 0.56724 0.06901 0.92745 0.0
C842 C 0.59441 0.08534 0.89401 0.0
C843 C 0.57776 0.12225 0.85386 0.0
H844 H 0.65201 0.16933 0.85213 0.0
C845 C 0.62582 0.21348 0.79628 0.0
C846 C 0.64863 0.21897 0.78508 0.0
C847 C 0.61521 0.19442 0.81319 0.0
C848 C 0.63127 0.15615 0.85213 0.0
H849 H 0.53845 0.08016 0.93015 0.0
H850 H 0.55151 0.10624 0.89567 0.0
H851 H 0.63324 0.1348 0.88021 0.0
H852 H 0.67845 0.209 0.78341 0.0
H853 H 0.6599 0.17581 0.81254 0.0
H854 H 0.57584 0.14377 0.82578 0.0
C855 C 0.56118 0.09586 0.90016 0.0
C856 C 0.6205 0.13626 0.8682 0.0
C857 C 0.55371 0.08095 0.91993 0.0
C858 C 0.66092 0.20543 0.79166 0.0
C859 C 0.6503 0.18638 0.80848 0.0
C860 C 0.58857 0.14212 0.83766 0.0
C861 C 0.58239 0.09917 0.88754 0.0
C862 C 0.59362 0.11908 0.86931 0.0
C863 C 0.62715 0.1804 0.8193 0.0
C864 C 0.61548 0.15937 0.83664 0.0
H865 H 0.59778 0.06155 0.91917 0.0
H866 H 0.6105 0.08712 0.88439 0.0
H867 H 0.55699 0.10927 0.85423 0.0
H868 H 0.61582 0.22351 0.7917 0.0
H869 H 0.5976 0.19063 0.82144 0.0
C870 C 0.52155 0.57023 0.08096 0.0
C871 C 0.50499 0.55943 0.09965 0.0
C872 C 0.51212 0.57324 0.06028 0.0
C873 C 0.45135 0.56082 0.03057 0.0
H874 H 0.49927 0.62734 0.00315 0.0
C875 C 0.42202 0.60301 0.95561 0.0
C876 C 0.43417 0.63024 0.95391 0.0
C877 C 0.42994 0.59167 0.97197 0.0
C878 C 0.48542 0.60888 0.01076 0.0
H879 H 0.46493 0.54017 0.11027 0.0
H880 H 0.44888 0.54689 0.07506 0.0
H881 H 0.51408 0.6107 0.03288 0.0
H882 H 0.46307 0.66692 0.96873 0.0
H883 H 0.47582 0.64732 -0.00196 0.0
H884 H 0.42221 0.56014 0.00954 0.0
C885 C 0.46909 0.55289 0.07598 0.0
C886 C 0.49415 0.59891 0.02757 0.0
C887 C 0.4784 0.54931 0.09643 0.0
C888 C 0.45356 0.64587 0.96949 0.0
C889 C 0.46106 0.63456 0.98614 0.0
C890 C 0.44247 0.5711 0.01404 0.0
C891 C 0.48603 0.56606 0.05792 0.0
C892 C 0.4772 0.57488 0.03802 0.0
C893 C 0.44986 0.60731 0.98729 0.0
C894 C 0.45931 0.59551 0.00415 0.0
H895 H 0.54212 0.57811 0.08267 0.0
H896 H 0.52566 0.58247 0.04653 0.0
H897 H 0.43772 0.54203 0.03777 0.0
H898 H 0.40715 0.59047 0.94367 0.0
H899 H 0.42095 0.57068 0.97206 0.0
C900 C 0.95045 0.48426 0.26139 0.0
C901 C 0.95762 0.50978 0.26733 0.0
C902 C 0.93637 0.47303 0.24166 0.0
C903 C 0.90998 0.48444 0.18894 0.0
H904 H 0.85164 0.41604 0.2033 0.0
C905 C 0.81948 0.42651 0.13059 0.0
C906 C 0.81079 0.39985 0.12811 0.0
C907 C 0.83872 0.44175 0.14647 0.0
C908 C 0.86791 0.43501 0.1989 0.0
H909 H 0.95744 0.54427 0.25681 0.0
H910 H 0.93259 0.52461 0.22226 0.0
H911 H 0.88521 0.43935 0.23125 0.0
H912 H 0.81574 0.36848 0.14048 0.0
H913 H 0.8489 0.3948 0.16766 0.0
H914 H 0.89223 0.47987 0.15645 0.0
C915 C 0.93811 0.51335 0.23261 0.0
C916 C 0.88728 0.44834 0.2149 0.0
C917 C 0.95244 0.52468 0.25231 0.0
C918 C 0.82172 0.38886 0.14188 0.0
C919 C 0.84075 0.40397 0.15763 0.0
C920 C 0.89049 0.47099 0.17281 0.0
C921 C 0.92881 0.48698 0.22771 0.0
C922 C 0.90873 0.47306 0.21007 0.0
C923 C 0.84945 0.43053 0.16023 0.0
C924 C 0.8694 0.44597 0.17756 0.0
H925 H 0.95409 0.47239 0.27285 0.0
H926 H 0.93003 0.45286 0.23807 0.0
H927 H 0.92621 0.50352 0.18477 0.0
H928 H 0.81158 0.43564 0.1202 0.0
H929 H 0.84495 0.46217 0.1482 0.0
loop_
_geom_bond_atom_site_label_1
_geom_bond_atom_site_label_2
_geom_bond_distance
_geom_bond_site_symmetry_2
_ccdc_geom_bond_type
H0 C8 0.930 . S
H1 C11 0.930 . S
H2 C13 0.930 . S
H3 C14 0.970 . S
H4 C14 0.970 . S
H5 C16 0.930 . S
H6 C18 0.930 . S
H7 C20 0.930 . S
C8 H0 0.930 . S
C8 C9 1.382 . S
C8 C10 1.426 . S
C9 C8 1.382 . S
C9 C13 1.389 . S
C10 C8 1.426 . S
C10 C11 1.375 . S
C10 C14 1.532 1_655 S
C11 H1 0.930 . S
C11 C10 1.375 . S
C11 C12 1.416 . S
C12 C11 1.416 . S
C12 C13 1.371 . S
C13 H2 0.930 . S
C13 C9 1.389 . S
C13 C12 1.371 . S
C14 H3 0.970 . S
C14 H4 0.970 . S
C14 C10 1.532 1_455 S
C14 C15 1.499 . S
C15 C14 1.499 . S
C15 C16 1.370 . S
C15 C20 1.415 . S
C16 H5 0.930 . S
C16 C15 1.370 . S
C16 C17 1.407 . S
C17 C16 1.407 . S
C17 C18 1.365 . S
C18 H6 0.930 . S
C18 C17 1.365 . S
C18 C19 1.393 . S
C19 C18 1.393 . S
C19 C20 1.387 . S
C20 H7 0.930 . S
C20 C15 1.415 . S
C20 C19 1.387 . S
H21 C29 0.930 . S
H22 C32 0.930 . S
H23 C34 0.930 . S
H24 C35 0.970 . S
H25 C35 0.970 . S
H26 C37 0.930 . S
H27 C39 0.930 . S
H28 C41 0.930 . S
C29 H21 0.930 . S
C29 C30 1.382 . S
C29 C31 1.426 . S
C30 C29 1.382 . S
C30 C34 1.389 . S
C31 C29 1.426 . S
C31 C32 1.375 . S
C31 C35 1.532 1_565 S
C32 H22 0.930 . S
C32 C31 1.375 . S
C32 C33 1.416 . S
C33 C32 1.416 . S
C33 C34 1.371 . S
C34 H23 0.930 . S
C34 C30 1.389 . S
C34 C33 1.371 . S
C35 H24 0.970 . S
C35 H25 0.970 . S
C35 C31 1.532 1_545 S
C35 C36 1.499 . S
C36 C35 1.499 . S
C36 C37 1.370 . S
C36 C41 1.415 . S
C37 H26 0.930 . S
C37 C36 1.370 . S
C37 C38 1.407 . S
C38 C37 1.407 . S
C38 C39 1.365 . S
C39 H27 0.930 . S
C39 C38 1.365 . S
C39 C40 1.393 . S
C40 C39 1.393 . S
C40 C41 1.387 . S
C41 H28 0.930 . S
C41 C36 1.415 . S
C41 C40 1.387 . S
H42 C50 0.930 . S
H43 C53 0.930 . S
H44 C55 0.930 . S
H45 C56 0.970 . S
H46 C56 0.970 . S
H47 C58 0.930 . S
H48 C60 0.930 . S
H49 C62 0.930 . S
C50 H42 0.930 . S
C50 C51 1.382 . S
C50 C52 1.426 . S
C51 C50 1.382 . S
C51 C55 1.389 . S
C52 C50 1.426 . S
C52 C53 1.375 . S
C52 C56 1.532 . S
C53 H43 0.930 . S
C53 C52 1.375 . S
C53 C54 1.416 . S
C54 C53 1.416 . S
C54 C55 1.371 . S
C55 H44 0.930 . S
C55 C51 1.389 . S
C55 C54 1.371 . S
C56 H45 0.970 . S
C56 H46 0.970 . S
C56 C52 1.532 . S
C56 C57 1.499 . S
C57 C56 1.499 . S
C57 C58 1.370 . S
C57 C62 1.415 . S
C58 H47 0.930 . S
C58 C57 1.370 . S
C58 C59 1.407 . S
C59 C58 1.407 . S
C59 C60 1.365 . S
C60 H48 0.930 . S
C60 C59 1.365 . S
C60 C61 1.393 . S
C61 C60 1.393 . S
C61 C62 1.387 . S
C62 H49 0.930 . S
C62 C57 1.415 . S
C62 C61 1.387 . S
H63 C71 0.930 . S
H64 C74 0.930 . S
H65 C76 0.930 . S
H66 C77 0.970 . S
H67 C77 0.970 . S
H68 C79 0.930 . S
H69 C81 0.930 . S
H70 C83 0.930 . S
C71 H63 0.930 . S
C71 C72 1.382 . S
C71 C73 1.426 . S
C72 C71 1.382 . S
C72 C76 1.389 . S
C73 C71 1.426 . S
C73 C74 1.375 . S
C73 C77 1.532 1_655 S
C74 H64 0.930 . S
C74 C73 1.375 . S
C74 C75 1.416 . S
C75 C74 1.416 . S
C75 C76 1.371 . S
C76 H65 0.930 . S
C76 C72 1.389 . S
C76 C75 1.371 . S
C77 H66 0.970 . S
C77 H67 0.970 . S
C77 C73 1.532 1_455 S
C77 C78 1.499 . S
C78 C77 1.499 . S
C78 C79 1.370 . S
C78 C83 1.415 . S
C79 H68 0.930 . S
C79 C78 1.370 . S
C79 C80 1.407 . S
C80 C79 1.407 . S
C80 C81 1.365 . S
C81 H69 0.930 . S
C81 C80 1.365 . S
C81 C82 1.393 . S
C82 C81 1.393 . S
C82 C83 1.387 . S
C83 H70 0.930 . S
C83 C78 1.415 . S
C83 C82 1.387 . S
H84 C92 0.930 . S
H85 C95 0.930 . S
H86 C97 0.930 . S
H87 C98 0.970 1_554 S
H88 C98 0.967 . S
H89 C100 0.930 . S
H90 C102 0.930 . S
H91 C104 0.930 . S
C92 H84 0.930 . S
C92 C93 1.382 1_554 S
C92 C94 1.426 1_554 S
C93 C92 1.382 1_556 S
C93 C97 1.389 . S
C94 C92 1.426 1_556 S
C94 C95 1.375 . S
C94 C98 1.532 . S
C95 H85 0.930 . S
C95 C94 1.375 . S
C95 C96 1.416 . S
C96 C95 1.416 . S
C96 C97 1.371 . S
C97 H86 0.930 . S
C97 C93 1.389 . S
C97 C96 1.371 . S
C98 H87 0.970 1_556 S
C98 H88 0.967 . S
C98 C94 1.532 . S
C98 C99 1.499 1_545 S
C99 C98 1.499 1_565 S
C99 C100 1.370 1_556 S
C99 C104 1.415 . S
C100 H89 0.930 . S
C100 C99 1.370 1_554 S
C100 C101 1.407 . S
C101 C100 1.407 . S
C101 C102 1.365 . S
C102 H90 0.930 . S
C102 C101 1.365 . S
C102 C103 1.393 1_554 S
C103 C102 1.393 1_556 S
C103 C104 1.387 . S
C104 H91 0.930 . S
C104 C99 1.415 . S
C104 C103 1.387 . S
H105 C113 0.930 . S
H106 C116 0.930 . S
H107 C118 0.930 . S
H108 C119 0.970 . S
H109 C119 0.970 . S
H110 C121 0.930 . S
H111 C123 0.930 . S
H112 C125 0.930 . S
C113 H105 0.930 . S
C113 C114 1.382 . S
C113 C115 1.426 . S
C114 C113 1.382 . S
C114 C118 1.389 . S
C115 C113 1.426 . S
C115 C116 1.375 . S
C115 C119 1.532 . S
C116 H106 0.930 . S
C116 C115 1.375 . S
C116 C117 1.416 . S
C117 C116 1.416 . S
C117 C118 1.371 . S
C118 H107 0.930 . S
C118 C114 1.389 . S
C118 C117 1.371 . S
C119 H108 0.970 . S
C119 H109 0.970 . S
C119 C115 1.532 . S
C119 C120 1.499 . S
C120 C119 1.499 . S
C120 C121 1.370 . S
C120 C125 1.415 . S
C121 H110 0.930 . S
C121 C120 1.370 . S
C121 C122 1.407 . S
C122 C121 1.407 . S
C122 C123 1.365 . S
C123 H111 0.930 . S
C123 C122 1.365 . S
C123 C124 1.393 . S
C124 C123 1.393 . S
C124 C125 1.387 . S
C125 H112 0.930 . S
C125 C120 1.415 . S
C125 C124 1.387 . S
Co126 O127 2.216 . S
Co126 O128 2.091 . S
Co126 O130 2.004 . S
Co126 O136 2.021 . S
Co126 O138 2.137 . S
Co126 O139 2.244 . S
O127 Co126 2.216 . S
O127 C134 1.247 . S
O128 Co126 2.091 . S
O128 C134 1.261 . S
C129 O138 1.247 . S
C129 O139 1.272 . S
O130 Co126 2.004 . S
O130 C135 1.259 . S
Co131 O132 2.061 . S
Co131 O137 2.052 . S
Co131 O139 2.135 . S
O132 Co131 2.061 . S
O132 C135 1.235 . S
C133 O136 1.238 . S
C133 O137 1.241 . S
C134 O127 1.247 . S
C134 O128 1.261 . S
C135 O130 1.259 . S
C135 O132 1.235 . S
O136 Co126 2.021 . S
O136 C133 1.238 . S
O137 Co131 2.052 . S
O137 C133 1.241 . S
O138 Co126 2.137 . S
O138 C129 1.247 . S
O139 Co126 2.244 . S
O139 C129 1.272 . S
O139 Co131 2.135 . S
Co140 O141 2.216 . S
Co140 O142 2.091 . S
Co140 O144 2.004 . S
Co140 O150 2.021 . S
Co140 O152 2.137 . S
Co140 O153 2.244 . S
O141 Co140 2.216 . S
O141 C148 1.247 . S
O142 Co140 2.091 . S
O142 C148 1.261 . S
C143 O152 1.247 . S
C143 O153 1.272 . S
O144 Co140 2.004 . S
O144 C149 1.259 . S
Co145 O146 2.061 . S
Co145 O151 2.052 . S
Co145 O153 2.135 . S
O146 Co145 2.061 . S
O146 C149 1.235 . S
C147 O150 1.238 . S
C147 O151 1.241 . S
C148 O141 1.247 . S
C148 O142 1.261 . S
C149 O144 1.259 . S
C149 O146 1.235 . S
O150 Co140 2.021 . S
O150 C147 1.238 . S
O151 Co145 2.052 . S
O151 C147 1.241 . S
O152 Co140 2.137 . S
O152 C143 1.247 . S
O153 Co140 2.244 . S
O153 C143 1.272 . S
O153 Co145 2.135 . S
Co154 O155 2.216 . S
Co154 O156 2.091 . S
Co154 O158 2.004 . S
Co154 O164 2.021 . S
Co154 O166 2.137 . S
Co154 O167 2.244 . S
O155 Co154 2.216 . S
O155 C162 1.247 . S
O156 Co154 2.091 . S
O156 C162 1.261 . S
C157 O166 1.247 . S
C157 O167 1.272 . S
O158 Co154 2.004 . S
O158 C163 1.259 . S
Co159 O160 2.061 . S
Co159 O165 2.052 . S
Co159 O167 2.135 . S
O160 Co159 2.061 . S
O160 C163 1.235 . S
C161 O164 1.238 . S
C161 O165 1.241 . S
C162 O155 1.247 . S
C162 O156 1.261 . S
C163 O158 1.259 . S
C163 O160 1.235 . S
O164 Co154 2.021 . S
O164 C161 1.238 . S
O165 Co159 2.052 . S
O165 C161 1.241 . S
O166 Co154 2.137 . S
O166 C157 1.247 . S
O167 Co154 2.244 . S
O167 C157 1.272 . S
O167 Co159 2.135 . S
Co168 O169 2.216 . S
Co168 O170 2.091 . S
Co168 O172 2.004 . S
Co168 O178 2.021 . S
Co168 O180 2.137 . S
Co168 O181 2.244 . S
O169 Co168 2.216 . S
O169 C176 1.247 . S
O170 Co168 2.091 . S
O170 C176 1.261 . S
C171 O180 1.247 . S
C171 O181 1.272 . S
O172 Co168 2.004 . S
O172 C177 1.259 . S
Co173 O174 2.061 . S
Co173 O179 2.052 . S
Co173 O181 2.135 . S
O174 Co173 2.061 . S
O174 C177 1.235 . S
C175 O178 1.238 . S
C175 O179 1.241 . S
C176 O169 1.247 . S
C176 O170 1.261 . S
C177 O172 1.259 . S
C177 O174 1.235 . S
O178 Co168 2.021 . S
O178 C175 1.238 . S
O179 Co173 2.052 . S
O179 C175 1.241 . S
O180 Co168 2.137 . S
O180 C171 1.247 . S
O181 Co168 2.244 . S
O181 C171 1.272 . S
O181 Co173 2.135 . S
Co182 O183 2.216 . S
Co182 O184 2.091 . S
Co182 O186 2.004 . S
Co182 O192 2.021 . S
Co182 O194 2.137 . S
Co182 O195 2.244 . S
O183 Co182 2.216 . S
O183 C190 1.247 . S
O184 Co182 2.091 . S
O184 C190 1.261 . S
C185 O194 1.247 . S
C185 O195 1.272 . S
O186 Co182 2.004 . S
O186 C191 1.259 . S
Co187 O188 2.061 . S
Co187 O193 2.052 . S
Co187 O195 2.135 . S
O188 Co187 2.061 . S
O188 C191 1.235 . S
C189 O192 1.238 . S
C189 O193 1.241 . S
C190 O183 1.247 . S
C190 O184 1.261 . S
C191 O186 1.259 . S
C191 O188 1.235 . S
O192 Co182 2.021 . S
O192 C189 1.238 . S
O193 Co187 2.052 . S
O193 C189 1.241 . S
O194 Co182 2.137 . S
O194 C185 1.247 . S
O195 Co182 2.244 . S
O195 C185 1.272 . S
O195 Co187 2.135 . S
Co196 O197 2.216 . S
Co196 O198 2.091 . S
Co196 O200 2.004 . S
Co196 O206 2.021 . S
Co196 O208 2.137 . S
Co196 O209 2.244 . S
O197 Co196 2.216 . S
O197 C204 1.247 . S
O198 Co196 2.091 . S
O198 C204 1.261 . S
C199 O208 1.247 . S
C199 O209 1.272 . S
O200 Co196 2.004 . S
O200 C205 1.259 . S
Co201 O202 2.061 . S
Co201 O207 2.052 . S
Co201 O209 2.135 . S
O202 Co201 2.061 . S
O202 C205 1.235 . S
C203 O206 1.238 . S
C203 O207 1.241 . S
C204 O197 1.247 . S
C204 O198 1.261 . S
C205 O200 1.259 . S
C205 O202 1.235 . S
O206 Co196 2.021 . S
O206 C203 1.238 . S
O207 Co201 2.052 . S
O207 C203 1.241 . S
O208 Co196 2.137 . S
O208 C199 1.247 . S
O209 Co196 2.244 . S
O209 C199 1.272 . S
O209 Co201 2.135 . S
C210 C211 1.349 . S
C210 C212 1.327 . S
C210 H235 0.950 . S
C211 C210 1.349 . S
C211 C227 1.349 . S
C212 C210 1.327 . S
C212 C231 1.429 . S
C212 H236 0.950 . S
C213 C230 1.574 . S
C213 C232 1.368 . S
C213 H237 0.949 . S
H214 C218 0.949 . S
C215 C216 1.349 . S
C215 C217 1.327 . S
C215 H238 0.950 . S
C216 C215 1.349 . S
C216 C228 1.349 . S
C217 C215 1.327 . S
C217 C233 1.429 . S
C217 H239 0.950 . S
C218 H214 0.949 . S
C218 C226 1.574 . S
C218 C234 1.368 . S
H219 C227 0.950 . S
H220 C225 0.950 . S
H221 C226 0.949 . S
H222 C228 0.950 . S
H223 C229 0.950 . S
H224 C230 0.949 . S
C225 H220 0.950 . S
C225 C227 1.327 . S
C225 C231 1.429 . S
C226 C218 1.574 . S
C226 H221 0.949 . S
C226 C232 1.368 . S
C227 C211 1.349 . S
C227 H219 0.950 . S
C227 C225 1.327 . S
C228 C216 1.349 . S
C228 H222 0.950 . S
C228 C229 1.327 . S
C229 H223 0.950 . S
C229 C228 1.327 . S
C229 C233 1.429 . S
C230 C213 1.574 . S
C230 H224 0.949 . S
C230 C234 1.368 . S
C231 C212 1.429 . S
C231 C225 1.429 . S
C231 C232 1.523 . S
C232 C213 1.368 . S
C232 C226 1.368 . S
C232 C231 1.523 . S
C233 C217 1.429 . S
C233 C229 1.429 . S
C233 C234 1.523 . S
C234 C218 1.368 . S
C234 C230 1.368 . S
C234 C233 1.523 . S
H235 C210 0.950 . S
H236 C212 0.950 . S
H237 C213 0.949 . S
H238 C215 0.950 . S
H239 C217 0.950 . S
C240 C241 1.349 . S
C240 C242 1.327 . S
C240 H265 0.950 . S
C241 C240 1.349 . S
C241 C257 1.349 . S
C242 C240 1.327 . S
C242 C261 1.429 . S
C242 H266 0.950 . S
C243 C260 1.574 . S
C243 C262 1.368 . S
C243 H267 0.949 . S
H244 C248 0.949 . S
C245 C246 1.349 . S
C245 C247 1.327 . S
C245 H268 0.950 . S
C246 C245 1.349 . S
C246 C258 1.349 . S
C247 C245 1.327 . S
C247 C263 1.429 . S
C247 H269 0.950 . S
C248 H244 0.949 . S
C248 C256 1.574 . S
C248 C264 1.368 . S
H249 C257 0.950 . S
H250 C255 0.950 . S
H251 C256 0.949 . S
H252 C258 0.950 . S
H253 C259 0.950 . S
H254 C260 0.949 . S
C255 H250 0.950 . S
C255 C257 1.327 . S
C255 C261 1.429 . S
C256 C248 1.574 . S
C256 H251 0.949 . S
C256 C262 1.368 . S
C257 C241 1.349 . S
C257 H249 0.950 . S
C257 C255 1.327 . S
C258 C246 1.349 . S
C258 H252 0.950 . S
C258 C259 1.327 . S
C259 H253 0.950 . S
C259 C258 1.327 . S
C259 C263 1.429 . S
C260 C243 1.574 . S
C260 H254 0.949 . S
C260 C264 1.368 . S
C261 C242 1.429 . S
C261 C255 1.429 . S
C261 C262 1.523 . S
C262 C243 1.368 . S
C262 C256 1.368 . S
C262 C261 1.523 . S
C263 C247 1.429 . S
C263 C259 1.429 . S
C263 C264 1.523 . S
C264 C248 1.368 . S
C264 C260 1.368 . S
C264 C263 1.523 . S
H265 C240 0.950 . S
H266 C242 0.950 . S
H267 C243 0.949 . S
H268 C245 0.950 . S
H269 C247 0.950 . S
C270 C271 1.349 . S
C270 C272 1.327 . S
C270 H295 0.950 . S
C271 C270 1.349 . S
C271 C287 1.349 . S
C272 C270 1.327 . S
C272 C291 1.429 . S
C272 H296 0.950 . S
C273 C290 1.574 . S
C273 C292 1.368 . S
C273 H297 0.949 . S
H274 C278 0.949 . S
C275 C276 1.349 . S
C275 C277 1.327 . S
C275 H298 0.950 . S
C276 C275 1.349 . S
C276 C288 1.349 . S
C277 C275 1.327 . S
C277 C293 1.429 . S
C277 H299 0.950 . S
C278 H274 0.949 . S
C278 C286 1.574 . S
C278 C294 1.368 . S
H279 C287 0.950 . S
H280 C285 0.950 . S
H281 C286 0.949 . S
H282 C288 0.950 . S
H283 C289 0.950 . S
H284 C290 0.949 . S
C285 H280 0.950 . S
C285 C287 1.327 . S
C285 C291 1.429 . S
C286 C278 1.574 . S
C286 H281 0.949 . S
C286 C292 1.368 . S
C287 C271 1.349 . S
C287 H279 0.950 . S
C287 C285 1.327 . S
C288 C276 1.349 . S
C288 H282 0.950 . S
C288 C289 1.327 . S
C289 H283 0.950 . S
C289 C288 1.327 . S
C289 C293 1.429 . S
C290 C273 1.574 . S
C290 H284 0.949 . S
C290 C294 1.368 . S
C291 C272 1.429 . S
C291 C285 1.429 . S
C291 C292 1.523 . S
C292 C273 1.368 . S
C292 C286 1.368 . S
C292 C291 1.523 . S
C293 C277 1.429 . S
C293 C289 1.429 . S
C293 C294 1.523 . S
C294 C278 1.368 . S
C294 C290 1.368 . S
C294 C293 1.523 . S
H295 C270 0.950 . S
H296 C272 0.950 . S
H297 C273 0.949 . S
H298 C275 0.950 . S
H299 C277 0.950 . S
C300 C301 1.349 . S
C300 C302 1.327 . S
C300 H325 0.950 . S
C301 C300 1.349 . S
C301 C317 1.349 . S
C302 C300 1.327 . S
C302 C321 1.429 . S
C302 H326 0.950 . S
C303 C320 1.574 . S
C303 C322 1.368 . S
C303 H327 0.949 . S
H304 C308 0.949 . S
C305 C306 1.349 . S
C305 C307 1.327 . S
C305 H328 0.950 . S
C306 C305 1.349 . S
C306 C318 1.349 . S
C307 C305 1.327 . S
C307 C323 1.429 . S
C307 H329 0.950 . S
C308 H304 0.949 . S
C308 C316 1.574 . S
C308 C324 1.368 . S
H309 C317 0.950 . S
H310 C315 0.950 . S
H311 C316 0.949 . S
H312 C318 0.950 . S
H313 C319 0.950 . S
H314 C320 0.949 . S
C315 H310 0.950 . S
C315 C317 1.327 . S
C315 C321 1.429 . S
C316 C308 1.574 . S
C316 H311 0.949 . S
C316 C322 1.368 . S
C317 C301 1.349 . S
C317 H309 0.950 . S
C317 C315 1.327 . S
C318 C306 1.349 . S
C318 H312 0.950 . S
C318 C319 1.327 . S
C319 H313 0.950 . S
C319 C318 1.327 . S
C319 C323 1.429 . S
C320 C303 1.574 . S
C320 H314 0.949 . S
C320 C324 1.368 . S
C321 C302 1.429 . S
C321 C315 1.429 . S
C321 C322 1.523 . S
C322 C303 1.368 . S
C322 C316 1.368 . S
C322 C321 1.523 . S
C323 C307 1.429 . S
C323 C319 1.429 . S
C323 C324 1.523 . S
C324 C308 1.368 . S
C324 C320 1.368 . S
C324 C323 1.523 . S
H325 C300 0.950 . S
H326 C302 0.950 . S
H327 C303 0.949 . S
H328 C305 0.950 . S
H329 C307 0.950 . S
C330 C331 1.349 . S
C330 C332 1.327 . S
C330 H355 0.950 . S
C331 C330 1.349 . S
C331 C347 1.349 . S
C332 C330 1.327 . S
C332 C351 1.429 . S
C332 H356 0.950 . S
C333 C350 1.574 . S
C333 C352 1.368 . S
C333 H357 0.949 . S
H334 C338 0.949 . S
C335 C336 1.349 . S
C335 C337 1.327 . S
C335 H358 0.950 . S
C336 C335 1.349 . S
C336 C348 1.349 . S
C337 C335 1.327 . S
C337 C353 1.429 . S
C337 H359 0.950 . S
C338 H334 0.949 . S
C338 C346 1.574 . S
C338 C354 1.368 . S
H339 C347 0.950 . S
H340 C345 0.950 . S
H341 C346 0.949 . S
H342 C348 0.950 . S
H343 C349 0.950 . S
H344 C350 0.949 . S
C345 H340 0.950 . S
C345 C347 1.327 . S
C345 C351 1.429 . S
C346 C338 1.574 . S
C346 H341 0.949 . S
C346 C352 1.368 . S
C347 C331 1.349 . S
C347 H339 0.950 . S
C347 C345 1.327 . S
C348 C336 1.349 . S
C348 H342 0.950 . S
C348 C349 1.327 . S
C349 H343 0.950 . S
C349 C348 1.327 . S
C349 C353 1.429 . S
C350 C333 1.574 . S
C350 H344 0.949 . S
C350 C354 1.368 . S
C351 C332 1.429 . S
C351 C345 1.429 . S
C351 C352 1.523 . S
C352 C333 1.368 . S
C352 C346 1.368 . S
C352 C351 1.523 . S
C353 C337 1.429 . S
C353 C349 1.429 . S
C353 C354 1.523 . S
C354 C338 1.368 . S
C354 C350 1.368 . S
C354 C353 1.523 . S
H355 C330 0.950 . S
H356 C332 0.950 . S
H357 C333 0.949 . S
H358 C335 0.950 . S
H359 C337 0.950 . S
C360 C361 1.349 . S
C360 C362 1.327 . S
C360 H385 0.950 . S
C361 C360 1.349 . S
C361 C377 1.349 . S
C362 C360 1.327 . S
C362 C381 1.429 . S
C362 H386 0.950 . S
C363 C380 1.574 . S
C363 C382 1.368 . S
C363 H387 0.949 . S
H364 C368 0.949 . S
C365 C366 1.349 . S
C365 C367 1.327 . S
C365 H388 0.950 . S
C366 C365 1.349 . S
C366 C378 1.349 . S
C367 C365 1.327 . S
C367 C383 1.429 . S
C367 H389 0.950 . S
C368 H364 0.949 . S
C368 C376 1.574 . S
C368 C384 1.368 . S
H369 C377 0.950 . S
H370 C375 0.950 . S
H371 C376 0.949 . S
H372 C378 0.950 . S
H373 C379 0.950 . S
H374 C380 0.949 . S
C375 H370 0.950 . S
C375 C377 1.327 . S
C375 C381 1.429 . S
C376 C368 1.574 . S
C376 H371 0.949 . S
C376 C382 1.368 . S
C377 C361 1.349 . S
C377 H369 0.950 . S
C377 C375 1.327 . S
C378 C366 1.349 . S
C378 H372 0.950 . S
C378 C379 1.327 . S
C379 H373 0.950 . S
C379 C378 1.327 . S
C379 C383 1.429 . S
C380 C363 1.574 . S
C380 H374 0.949 . S
C380 C384 1.368 . S
C381 C362 1.429 . S
C381 C375 1.429 . S
C381 C382 1.523 . S
C382 C363 1.368 . S
C382 C376 1.368 . S
C382 C381 1.523 . S
C383 C367 1.429 . S
C383 C379 1.429 . S
C383 C384 1.523 . S
C384 C368 1.368 . S
C384 C380 1.368 . S
C384 C383 1.523 . S
H385 C360 0.950 . S
H386 C362 0.950 . S
H387 C363 0.949 . S
H388 C365 0.950 . S
H389 C367 0.950 . S
C390 C391 1.349 . S
C390 C392 1.327 . S
C390 H415 0.950 . S
C391 C390 1.349 . S
C391 C407 1.349 . S
C392 C390 1.327 . S
C392 C411 1.429 . S
C392 H416 0.950 . S
C393 C410 1.574 . S
C393 C412 1.368 . S
C393 H417 0.949 . S
H394 C398 0.949 . S
C395 C396 1.349 . S
C395 C397 1.327 . S
C395 H418 0.950 . S
C396 C395 1.349 . S
C396 C408 1.349 . S
C397 C395 1.327 . S
C397 C413 1.429 . S
C397 H419 0.950 . S
C398 H394 0.949 . S
C398 C406 1.574 . S
C398 C414 1.368 . S
H399 C407 0.950 . S
H400 C405 0.950 . S
H401 C406 0.949 . S
H402 C408 0.950 . S
H403 C409 0.950 . S
H404 C410 0.949 . S
C405 H400 0.950 . S
C405 C407 1.327 . S
C405 C411 1.429 . S
C406 C398 1.574 . S
C406 H401 0.949 . S
C406 C412 1.368 . S
C407 C391 1.349 . S
C407 H399 0.950 . S
C407 C405 1.327 . S
C408 C396 1.349 . S
C408 H402 0.950 . S
C408 C409 1.327 . S
C409 H403 0.950 . S
C409 C408 1.327 . S
C409 C413 1.429 . S
C410 C393 1.574 . S
C410 H404 0.949 . S
C410 C414 1.368 . S
C411 C392 1.429 . S
C411 C405 1.429 . S
C411 C412 1.523 . S
C412 C393 1.368 . S
C412 C406 1.368 . S
C412 C411 1.523 . S
C413 C397 1.429 . S
C413 C409 1.429 . S
C413 C414 1.523 . S
C414 C398 1.368 . S
C414 C410 1.368 . S
C414 C413 1.523 . S
H415 C390 0.950 . S
H416 C392 0.950 . S
H417 C393 0.949 . S
H418 C395 0.950 . S
H419 C397 0.950 . S
C420 C421 1.349 . S
C420 C422 1.327 . S
C420 H445 0.950 . S
C421 C420 1.349 . S
C421 C437 1.349 . S
C422 C420 1.327 . S
C422 C441 1.429 . S
C422 H446 0.950 . S
C423 C440 1.574 . S
C423 C442 1.368 . S
C423 H447 0.949 . S
H424 C428 0.949 . S
C425 C426 1.349 . S
C425 C427 1.327 . S
C425 H448 0.950 . S
C426 C425 1.349 . S
C426 C438 1.349 . S
C427 C425 1.327 . S
C427 C443 1.429 . S
C427 H449 0.950 . S
C428 H424 0.949 . S
C428 C436 1.574 . S
C428 C444 1.368 . S
H429 C437 0.950 . S
H430 C435 0.950 . S
H431 C436 0.949 . S
H432 C438 0.950 . S
H433 C439 0.950 . S
H434 C440 0.949 . S
C435 H430 0.950 . S
C435 C437 1.327 . S
C435 C441 1.429 . S
C436 C428 1.574 . S
C436 H431 0.949 . S
C436 C442 1.368 . S
C437 C421 1.349 . S
C437 H429 0.950 . S
C437 C435 1.327 . S
C438 C426 1.349 . S
C438 H432 0.950 . S
C438 C439 1.327 . S
C439 H433 0.950 . S
C439 C438 1.327 . S
C439 C443 1.429 . S
C440 C423 1.574 . S
C440 H434 0.949 . S
C440 C444 1.368 . S
C441 C422 1.429 . S
C441 C435 1.429 . S
C441 C442 1.523 . S
C442 C423 1.368 . S
C442 C436 1.368 . S
C442 C441 1.523 . S
C443 C427 1.429 . S
C443 C439 1.429 . S
C443 C444 1.523 . S
C444 C428 1.368 . S
C444 C440 1.368 . S
C444 C443 1.523 . S
H445 C420 0.950 . S
H446 C422 0.950 . S
H447 C423 0.949 . S
H448 C425 0.950 . S
H449 C427 0.950 . S
C450 C451 1.349 . S
C450 C452 1.327 . S
C450 H475 0.950 . S
C451 C450 1.349 . S
C451 C467 1.349 . S
C452 C450 1.327 . S
C452 C471 1.429 . S
C452 H476 0.950 . S
C453 C470 1.574 . S
C453 C472 1.368 . S
C453 H477 0.949 . S
H454 C458 0.949 . S
C455 C456 1.349 . S
C455 C457 1.327 . S
C455 H478 0.950 . S
C456 C455 1.349 . S
C456 C468 1.349 . S
C457 C455 1.327 . S
C457 C473 1.429 . S
C457 H479 0.950 . S
C458 H454 0.949 . S
C458 C466 1.574 . S
C458 C474 1.368 . S
H459 C467 0.950 . S
H460 C465 0.950 . S
H461 C466 0.949 . S
H462 C468 0.950 . S
H463 C469 0.950 . S
H464 C470 0.949 . S
C465 H460 0.950 . S
C465 C467 1.327 . S
C465 C471 1.429 . S
C466 C458 1.574 . S
C466 H461 0.949 . S
C466 C472 1.368 . S
C467 C451 1.349 . S
C467 H459 0.950 . S
C467 C465 1.327 . S
C468 C456 1.349 . S
C468 H462 0.950 . S
C468 C469 1.327 . S
C469 H463 0.950 . S
C469 C468 1.327 . S
C469 C473 1.429 . S
C470 C453 1.574 . S
C470 H464 0.949 . S
C470 C474 1.368 . S
C471 C452 1.429 . S
C471 C465 1.429 . S
C471 C472 1.523 . S
C472 C453 1.368 . S
C472 C466 1.368 . S
C472 C471 1.523 . S
C473 C457 1.429 . S
C473 C469 1.429 . S
C473 C474 1.523 . S
C474 C458 1.368 . S
C474 C470 1.368 . S
C474 C473 1.523 . S
H475 C450 0.950 . S
H476 C452 0.950 . S
H477 C453 0.949 . S
H478 C455 0.950 . S
H479 C457 0.950 . S
C480 C481 1.349 1_556 S
C480 C482 1.327 1_556 S
C480 H505 0.950 . S
C481 C480 1.349 1_554 S
C481 C497 1.349 . S
C482 C480 1.327 1_554 S
C482 C501 1.429 . S
C482 H506 0.950 1_554 S
C483 C500 1.574 . S
C483 C502 1.368 . S
C483 H507 0.949 . S
H484 C488 0.949 . S
C485 C486 1.349 . S
C485 C487 1.327 . S
C485 H508 0.950 . S
C486 C485 1.349 . S
C486 C498 1.349 . S
C487 C485 1.327 . S
C487 C503 1.429 . S
C487 H509 0.950 . S
C488 H484 0.949 . S
C488 C496 1.574 . S
C488 C504 1.368 . S
H489 C497 0.950 . S
H490 C495 0.950 . S
H491 C496 0.949 . S
H492 C498 0.950 . S
H493 C499 0.950 . S
H494 C500 0.949 . S
C495 H490 0.950 . S
C495 C497 1.327 . S
C495 C501 1.429 . S
C496 C488 1.574 . S
C496 H491 0.949 . S
C496 C502 1.368 . S
C497 C481 1.349 . S
C497 H489 0.950 . S
C497 C495 1.327 . S
C498 C486 1.349 . S
C498 H492 0.950 . S
C498 C499 1.327 . S
C499 H493 0.950 . S
C499 C498 1.327 . S
C499 C503 1.429 . S
C500 C483 1.574 . S
C500 H494 0.949 . S
C500 C504 1.368 . S
C501 C482 1.429 . S
C501 C495 1.429 . S
C501 C502 1.523 . S
C502 C483 1.368 . S
C502 C496 1.368 . S
C502 C501 1.523 . S
C503 C487 1.429 . S
C503 C499 1.429 . S
C503 C504 1.523 . S
C504 C488 1.368 . S
C504 C500 1.368 . S
C504 C503 1.523 . S
H505 C480 0.950 . S
H506 C482 0.950 1_556 S
H507 C483 0.949 . S
H508 C485 0.950 . S
H509 C487 0.950 . S
C510 C511 1.349 . S
C510 C512 1.327 . S
C510 H535 0.950 . S
C511 C510 1.349 . S
C511 C527 1.349 . S
C512 C510 1.327 . S
C512 C531 1.429 . S
C512 H536 0.950 . S
C513 C530 1.574 . S
C513 C532 1.368 . S
C513 H537 0.949 . S
H514 C518 0.949 . S
C515 C516 1.349 . S
C515 C517 1.327 . S
C515 H538 0.950 . S
C516 C515 1.349 . S
C516 C528 1.349 . S
C517 C515 1.327 . S
C517 C533 1.429 . S
C517 H539 0.950 . S
C518 H514 0.949 . S
C518 C526 1.574 . S
C518 C534 1.368 . S
H519 C527 0.950 . S
H520 C525 0.950 . S
H521 C526 0.949 . S
H522 C528 0.950 . S
H523 C529 0.950 . S
H524 C530 0.949 . S
C525 H520 0.950 . S
C525 C527 1.327 . S
C525 C531 1.429 . S
C526 C518 1.574 . S
C526 H521 0.949 . S
C526 C532 1.368 . S
C527 C511 1.349 . S
C527 H519 0.950 . S
C527 C525 1.327 . S
C528 C516 1.349 . S
C528 H522 0.950 . S
C528 C529 1.327 . S
C529 H523 0.950 . S
C529 C528 1.327 . S
C529 C533 1.429 . S
C530 C513 1.574 . S
C530 H524 0.949 . S
C530 C534 1.368 . S
C531 C512 1.429 . S
C531 C525 1.429 . S
C531 C532 1.523 . S
C532 C513 1.368 . S
C532 C526 1.368 . S
C532 C531 1.523 . S
C533 C517 1.429 . S
C533 C529 1.429 . S
C533 C534 1.523 . S
C534 C518 1.368 . S
C534 C530 1.368 . S
C534 C533 1.523 . S
H535 C510 0.950 . S
H536 C512 0.950 . S
H537 C513 0.949 . S
H538 C515 0.950 . S
H539 C517 0.950 . S
C540 C541 1.349 . S
C540 C542 1.327 . S
C540 H565 0.950 . S
C541 C540 1.349 . S
C541 C557 1.349 . S
C542 C540 1.327 . S
C542 C561 1.429 . S
C542 H566 0.950 . S
C543 C560 1.574 . S
C543 C562 1.368 . S
C543 H567 0.949 . S
H544 C548 0.949 . S
C545 C546 1.349 . S
C545 C547 1.327 . S
C545 H568 0.950 . S
C546 C545 1.349 . S
C546 C558 1.349 . S
C547 C545 1.327 . S
C547 C563 1.429 . S
C547 H569 0.950 . S
C548 H544 0.949 . S
C548 C556 1.574 . S
C548 C564 1.368 . S
H549 C557 0.950 . S
H550 C555 0.950 . S
H551 C556 0.949 . S
H552 C558 0.950 . S
H553 C559 0.950 . S
H554 C560 0.949 . S
C555 H550 0.950 . S
C555 C557 1.327 . S
C555 C561 1.429 . S
C556 C548 1.574 . S
C556 H551 0.949 . S
C556 C562 1.368 . S
C557 C541 1.349 . S
C557 H549 0.950 . S
C557 C555 1.327 . S
C558 C546 1.349 . S
C558 H552 0.950 . S
C558 C559 1.327 . S
C559 H553 0.950 . S
C559 C558 1.327 . S
C559 C563 1.429 . S
C560 C543 1.574 . S
C560 H554 0.949 . S
C560 C564 1.368 . S
C561 C542 1.429 . S
C561 C555 1.429 . S
C561 C562 1.523 . S
C562 C543 1.368 . S
C562 C556 1.368 . S
C562 C561 1.523 . S
C563 C547 1.429 . S
C563 C559 1.429 . S
C563 C564 1.523 . S
C564 C548 1.368 . S
C564 C560 1.368 . S
C564 C563 1.523 . S
H565 C540 0.950 . S
H566 C542 0.950 . S
H567 C543 0.949 . S
H568 C545 0.950 . S
H569 C547 0.950 . S
C570 C571 1.349 . S
C570 C572 1.327 . S
C570 H595 0.950 . S
C571 C570 1.349 . S
C571 C587 1.349 . S
C572 C570 1.327 . S
C572 C591 1.429 . S
C572 H596 0.950 . S
C573 C590 1.574 . S
C573 C592 1.368 . S
C573 H597 0.949 . S
H574 C578 0.949 . S
C575 C576 1.349 . S
C575 C577 1.327 . S
C575 H598 0.950 . S
C576 C575 1.349 . S
C576 C588 1.349 . S
C577 C575 1.327 . S
C577 C593 1.429 . S
C577 H599 0.950 . S
C578 H574 0.949 . S
C578 C586 1.574 . S
C578 C594 1.368 . S
H579 C587 0.950 . S
H580 C585 0.950 . S
H581 C586 0.949 . S
H582 C588 0.950 . S
H583 C589 0.950 . S
H584 C590 0.949 . S
C585 H580 0.950 . S
C585 C587 1.327 . S
C585 C591 1.429 . S
C586 C578 1.574 . S
C586 H581 0.949 . S
C586 C592 1.368 . S
C587 C571 1.349 . S
C587 H579 0.950 . S
C587 C585 1.327 . S
C588 C576 1.349 . S
C588 H582 0.950 . S
C588 C589 1.327 . S
C589 H583 0.950 . S
C589 C588 1.327 . S
C589 C593 1.429 . S
C590 C573 1.574 . S
C590 H584 0.949 . S
C590 C594 1.368 . S
C591 C572 1.429 . S
C591 C585 1.429 . S
C591 C592 1.523 . S
C592 C573 1.368 . S
C592 C586 1.368 . S
C592 C591 1.523 . S
C593 C577 1.429 . S
C593 C589 1.429 . S
C593 C594 1.523 . S
C594 C578 1.368 . S
C594 C590 1.368 . S
C594 C593 1.523 . S
H595 C570 0.950 . S
H596 C572 0.950 . S
H597 C573 0.949 . S
H598 C575 0.950 . S
H599 C577 0.950 . S
C600 C601 1.349 . S
C600 C602 1.327 . S
C600 H625 0.950 . S
C601 C600 1.349 . S
C601 C617 1.349 . S
C602 C600 1.327 . S
C602 C621 1.429 . S
C602 H626 0.950 . S
C603 C620 1.574 . S
C603 C622 1.368 . S
C603 H627 0.949 . S
H604 C608 0.949 . S
C605 C606 1.349 . S
C605 C607 1.327 . S
C605 H628 0.950 . S
C606 C605 1.349 . S
C606 C618 1.349 . S
C607 C605 1.327 . S
C607 C623 1.429 . S
C607 H629 0.950 . S
C608 H604 0.949 . S
C608 C616 1.574 . S
C608 C624 1.368 . S
H609 C617 0.950 . S
H610 C615 0.950 . S
H611 C616 0.949 . S
H612 C618 0.950 . S
H613 C619 0.950 . S
H614 C620 0.949 . S
C615 H610 0.950 . S
C615 C617 1.327 . S
C615 C621 1.429 . S
C616 C608 1.574 . S
C616 H611 0.949 . S
C616 C622 1.368 . S
C617 C601 1.349 . S
C617 H609 0.950 . S
C617 C615 1.327 . S
C618 C606 1.349 . S
C618 H612 0.950 . S
C618 C619 1.327 . S
C619 H613 0.950 . S
C619 C618 1.327 . S
C619 C623 1.429 . S
C620 C603 1.574 . S
C620 H614 0.949 . S
C620 C624 1.368 . S
C621 C602 1.429 . S
C621 C615 1.429 . S
C621 C622 1.523 . S
C622 C603 1.368 . S
C622 C616 1.368 . S
C622 C621 1.523 . S
C623 C607 1.429 . S
C623 C619 1.429 . S
C623 C624 1.523 . S
C624 C608 1.368 . S
C624 C620 1.368 . S
C624 C623 1.523 . S
H625 C600 0.950 . S
H626 C602 0.950 . S
H627 C603 0.949 . S
H628 C605 0.950 . S
H629 C607 0.950 . S
C630 C631 1.349 . S
C630 C632 1.327 . S
C630 H655 0.950 . S
C631 C630 1.349 . S
C631 C647 1.349 . S
C632 C630 1.327 . S
C632 C651 1.429 . S
C632 H656 0.950 . S
C633 C650 1.574 . S
C633 C652 1.368 . S
C633 H657 0.949 . S
H634 C638 0.949 . S
C635 C636 1.349 . S
C635 C637 1.327 . S
C635 H658 0.950 . S
C636 C635 1.349 . S
C636 C648 1.349 . S
C637 C635 1.327 . S
C637 C653 1.429 . S
C637 H659 0.950 . S
C638 H634 0.949 . S
C638 C646 1.574 . S
C638 C654 1.368 . S
H639 C647 0.950 . S
H640 C645 0.950 . S
H641 C646 0.949 . S
H642 C648 0.950 . S
H643 C649 0.950 . S
H644 C650 0.949 . S
C645 H640 0.950 . S
C645 C647 1.327 . S
C645 C651 1.429 . S
C646 C638 1.574 . S
C646 H641 0.949 . S
C646 C652 1.368 . S
C647 C631 1.349 . S
C647 H639 0.950 . S
C647 C645 1.327 . S
C648 C636 1.349 . S
C648 H642 0.950 . S
C648 C649 1.327 . S
C649 H643 0.950 . S
C649 C648 1.327 . S
C649 C653 1.429 . S
C650 C633 1.574 . S
C650 H644 0.949 . S
C650 C654 1.368 . S
C651 C632 1.429 . S
C651 C645 1.429 . S
C651 C652 1.523 . S
C652 C633 1.368 . S
C652 C646 1.368 . S
C652 C651 1.523 . S
C653 C637 1.429 . S
C653 C649 1.429 . S
C653 C654 1.523 . S
C654 C638 1.368 . S
C654 C650 1.368 . S
C654 C653 1.523 . S
H655 C630 0.950 . S
H656 C632 0.950 . S
H657 C633 0.949 . S
H658 C635 0.950 . S
H659 C637 0.950 . S
C660 C661 1.349 . S
C660 C662 1.327 . S
C660 H685 0.950 . S
C661 C660 1.349 . S
C661 C677 1.349 . S
C662 C660 1.327 . S
C662 C681 1.429 . S
C662 H686 0.950 . S
C663 C680 1.574 . S
C663 C682 1.368 . S
C663 H687 0.949 . S
H664 C668 0.949 . S
C665 C666 1.349 . S
C665 C667 1.327 1_554 S
C665 H688 0.950 . S
C666 C665 1.349 . S
C666 C678 1.349 . S
C667 C665 1.327 1_556 S
C667 C683 1.429 . S
C667 H689 0.950 . S
C668 H664 0.949 . S
C668 C676 1.574 . S
C668 C684 1.368 . S
H669 C677 0.950 . S
H670 C675 0.950 . S
H671 C676 0.949 . S
H672 C678 0.950 . S
H673 C679 0.950 . S
H674 C680 0.949 . S
C675 H670 0.950 . S
C675 C677 1.327 . S
C675 C681 1.429 . S
C676 C668 1.574 . S
C676 H671 0.949 . S
C676 C682 1.368 . S
C677 C661 1.349 . S
C677 H669 0.950 . S
C677 C675 1.327 . S
C678 C666 1.349 . S
C678 H672 0.950 . S
C678 C679 1.327 1_554 S
C679 H673 0.950 . S
C679 C678 1.327 1_556 S
C679 C683 1.429 . S
C680 C663 1.574 . S
C680 H674 0.949 . S
C680 C684 1.368 . S
C681 C662 1.429 . S
C681 C675 1.429 . S
C681 C682 1.523 . S
C682 C663 1.368 . S
C682 C676 1.368 . S
C682 C681 1.523 . S
C683 C667 1.429 . S
C683 C679 1.429 . S
C683 C684 1.523 . S
C684 C668 1.368 . S
C684 C680 1.368 . S
C684 C683 1.523 . S
H685 C660 0.950 . S
H686 C662 0.950 . S
H687 C663 0.949 . S
H688 C665 0.950 . S
H689 C667 0.950 . S
C690 C691 1.349 . S
C690 C692 1.327 . S
C690 H715 0.950 . S
C691 C690 1.349 . S
C691 C707 1.349 . S
C692 C690 1.327 . S
C692 C711 1.429 . S
C692 H716 0.950 . S
C693 C710 1.574 . S
C693 C712 1.368 . S
C693 H717 0.949 . S
H694 C698 0.949 . S
C695 C696 1.349 . S
C695 C697 1.327 . S
C695 H718 0.950 . S
C696 C695 1.349 . S
C696 C708 1.349 . S
C697 C695 1.327 . S
C697 C713 1.429 . S
C697 H719 0.950 . S
C698 H694 0.949 . S
C698 C706 1.574 . S
C698 C714 1.368 . S
H699 C707 0.950 . S
H700 C705 0.950 . S
H701 C706 0.949 . S
H702 C708 0.950 . S
H703 C709 0.950 . S
H704 C710 0.949 . S
C705 H700 0.950 . S
C705 C707 1.327 . S
C705 C711 1.429 . S
C706 C698 1.574 . S
C706 H701 0.949 . S
C706 C712 1.368 . S
C707 C691 1.349 . S
C707 H699 0.950 . S
C707 C705 1.327 . S
C708 C696 1.349 . S
C708 H702 0.950 . S
C708 C709 1.327 . S
C709 H703 0.950 . S
C709 C708 1.327 . S
C709 C713 1.429 . S
C710 C693 1.574 . S
C710 H704 0.949 . S
C710 C714 1.368 . S
C711 C692 1.429 . S
C711 C705 1.429 . S
C711 C712 1.523 . S
C712 C693 1.368 . S
C712 C706 1.368 . S
C712 C711 1.523 . S
C713 C697 1.429 . S
C713 C709 1.429 . S
C713 C714 1.523 . S
C714 C698 1.368 . S
C714 C710 1.368 . S
C714 C713 1.523 . S
H715 C690 0.950 . S
H716 C692 0.950 . S
H717 C693 0.949 . S
H718 C695 0.950 . S
H719 C697 0.950 . S
C720 C721 1.349 . S
C720 C722 1.327 . S
C720 H745 0.950 . S
C721 C720 1.349 . S
C721 C737 1.349 . S
C722 C720 1.327 . S
C722 C741 1.429 . S
C722 H746 0.950 . S
C723 C740 1.574 . S
C723 C742 1.368 . S
C723 H747 0.949 . S
H724 C728 0.949 . S
C725 C726 1.349 . S
C725 C727 1.327 . S
C725 H748 0.950 . S
C726 C725 1.349 . S
C726 C738 1.349 . S
C727 C725 1.327 . S
C727 C743 1.429 . S
C727 H749 0.950 . S
C728 H724 0.949 . S
C728 C736 1.574 . S
C728 C744 1.368 . S
H729 C737 0.950 . S
H730 C735 0.950 . S
H731 C736 0.949 . S
H732 C738 0.950 . S
H733 C739 0.950 . S
H734 C740 0.949 . S
C735 H730 0.950 . S
C735 C737 1.327 . S
C735 C741 1.429 . S
C736 C728 1.574 . S
C736 H731 0.949 . S
C736 C742 1.368 . S
C737 C721 1.349 . S
C737 H729 0.950 . S
C737 C735 1.327 . S
C738 C726 1.349 . S
C738 H732 0.950 . S
C738 C739 1.327 . S
C739 H733 0.950 . S
C739 C738 1.327 . S
C739 C743 1.429 . S
C740 C723 1.574 . S
C740 H734 0.949 . S
C740 C744 1.368 . S
C741 C722 1.429 . S
C741 C735 1.429 . S
C741 C742 1.523 . S
C742 C723 1.368 . S
C742 C736 1.368 . S
C742 C741 1.523 . S
C743 C727 1.429 . S
C743 C739 1.429 . S
C743 C744 1.523 . S
C744 C728 1.368 . S
C744 C740 1.368 . S
C744 C743 1.523 . S
H745 C720 0.950 . S
H746 C722 0.950 . S
H747 C723 0.949 . S
H748 C725 0.950 . S
H749 C727 0.950 . S
C750 C751 1.349 . S
C750 C752 1.327 . S
C750 H775 0.950 . S
C751 C750 1.349 . S
C751 C767 1.349 . S
C752 C750 1.327 . S
C752 C771 1.429 . S
C752 H776 0.950 . S
C753 C770 1.574 . S
C753 C772 1.368 . S
C753 H777 0.949 . S
H754 C758 0.949 . S
C755 C756 1.349 . S
C755 C757 1.327 . S
C755 H778 0.950 . S
C756 C755 1.349 . S
C756 C768 1.349 . S
C757 C755 1.327 . S
C757 C773 1.429 . S
C757 H779 0.950 . S
C758 H754 0.949 . S
C758 C766 1.574 . S
C758 C774 1.368 . S
H759 C767 0.950 . S
H760 C765 0.950 . S
H761 C766 0.949 . S
H762 C768 0.950 . S
H763 C769 0.950 . S
H764 C770 0.949 . S
C765 H760 0.950 . S
C765 C767 1.327 . S
C765 C771 1.429 . S
C766 C758 1.574 . S
C766 H761 0.949 . S
C766 C772 1.368 . S
C767 C751 1.349 . S
C767 H759 0.950 . S
C767 C765 1.327 . S
C768 C756 1.349 . S
C768 H762 0.950 . S
C768 C769 1.327 . S
C769 H763 0.950 . S
C769 C768 1.327 . S
C769 C773 1.429 . S
C770 C753 1.574 . S
C770 H764 0.949 . S
C770 C774 1.368 . S
C771 C752 1.429 . S
C771 C765 1.429 . S
C771 C772 1.523 . S
C772 C753 1.368 . S
C772 C766 1.368 . S
C772 C771 1.523 . S
C773 C757 1.429 . S
C773 C769 1.429 . S
C773 C774 1.523 . S
C774 C758 1.368 . S
C774 C770 1.368 . S
C774 C773 1.523 . S
H775 C750 0.950 . S
H776 C752 0.950 . S
H777 C753 0.949 . S
H778 C755 0.950 . S
H779 C757 0.950 . S
C780 C781 1.349 . S
C780 C782 1.327 . S
C780 H805 0.950 . S
C781 C780 1.349 . S
C781 C797 1.349 . S
C782 C780 1.327 . S
C782 C801 1.429 . S
C782 H806 0.950 . S
C783 C800 1.574 . S
C783 C802 1.368 . S
C783 H807 0.949 . S
H784 C788 0.949 . S
C785 C786 1.349 . S
C785 C787 1.327 . S
C785 H808 0.950 . S
C786 C785 1.349 . S
C786 C798 1.349 . S
C787 C785 1.327 . S
C787 C803 1.429 . S
C787 H809 0.950 . S
C788 H784 0.949 . S
C788 C796 1.574 . S
C788 C804 1.368 . S
H789 C797 0.950 . S
H790 C795 0.950 . S
H791 C796 0.949 . S
H792 C798 0.950 . S
H793 C799 0.950 . S
H794 C800 0.949 . S
C795 H790 0.950 . S
C795 C797 1.327 . S
C795 C801 1.429 . S
C796 C788 1.574 . S
C796 H791 0.949 . S
C796 C802 1.368 . S
C797 C781 1.349 . S
C797 H789 0.950 . S
C797 C795 1.327 . S
C798 C786 1.349 . S
C798 H792 0.950 . S
C798 C799 1.327 . S
C799 H793 0.950 . S
C799 C798 1.327 . S
C799 C803 1.429 . S
C800 C783 1.574 . S
C800 H794 0.949 . S
C800 C804 1.368 . S
C801 C782 1.429 . S
C801 C795 1.429 . S
C801 C802 1.523 . S
C802 C783 1.368 . S
C802 C796 1.368 . S
C802 C801 1.523 . S
C803 C787 1.429 . S
C803 C799 1.429 . S
C803 C804 1.523 . S
C804 C788 1.368 . S
C804 C800 1.368 . S
C804 C803 1.523 . S
H805 C780 0.950 . S
H806 C782 0.950 . S
H807 C783 0.949 . S
H808 C785 0.950 . S
H809 C787 0.950 . S
C810 C811 1.349 . S
C810 C812 1.327 . S
C810 H835 0.950 . S
C811 C810 1.349 . S
C811 C827 1.349 . S
C812 C810 1.327 . S
C812 C831 1.429 . S
C812 H836 0.950 . S
C813 C830 1.574 . S
C813 C832 1.368 . S
C813 H837 0.949 . S
H814 C818 0.949 . S
C815 C816 1.349 . S
C815 C817 1.327 . S
C815 H838 0.950 . S
C816 C815 1.349 . S
C816 C828 1.349 . S
C817 C815 1.327 . S
C817 C833 1.429 . S
C817 H839 0.950 . S
C818 H814 0.949 . S
C818 C826 1.574 . S
C818 C834 1.368 . S
H819 C827 0.950 . S
H820 C825 0.950 . S
H821 C826 0.949 . S
H822 C828 0.950 . S
H823 C829 0.950 . S
H824 C830 0.949 . S
C825 H820 0.950 . S
C825 C827 1.327 . S
C825 C831 1.429 . S
C826 C818 1.574 . S
C826 H821 0.949 . S
C826 C832 1.368 . S
C827 C811 1.349 . S
C827 H819 0.950 . S
C827 C825 1.327 . S
C828 C816 1.349 . S
C828 H822 0.950 . S
C828 C829 1.327 . S
C829 H823 0.950 . S
C829 C828 1.327 . S
C829 C833 1.429 . S
C830 C813 1.574 . S
C830 H824 0.949 . S
C830 C834 1.368 . S
C831 C812 1.429 . S
C831 C825 1.429 . S
C831 C832 1.523 . S
C832 C813 1.368 . S
C832 C826 1.368 . S
C832 C831 1.523 . S
C833 C817 1.429 . S
C833 C829 1.429 . S
C833 C834 1.523 . S
C834 C818 1.368 . S
C834 C830 1.368 . S
C834 C833 1.523 . S
H835 C810 0.950 . S
H836 C812 0.950 . S
H837 C813 0.949 . S
H838 C815 0.950 . S
H839 C817 0.950 . S
C840 C841 1.349 . S
C840 C842 1.327 . S
C840 H865 0.950 . S
C841 C840 1.349 . S
C841 C857 1.349 . S
C842 C840 1.327 . S
C842 C861 1.429 . S
C842 H866 0.950 . S
C843 C860 1.574 . S
C843 C862 1.368 . S
C843 H867 0.949 . S
H844 C848 0.949 . S
C845 C846 1.349 . S
C845 C847 1.327 . S
C845 H868 0.950 . S
C846 C845 1.349 . S
C846 C858 1.349 . S
C847 C845 1.327 . S
C847 C863 1.429 . S
C847 H869 0.950 . S
C848 H844 0.949 . S
C848 C856 1.574 . S
C848 C864 1.368 . S
H849 C857 0.950 . S
H850 C855 0.950 . S
H851 C856 0.949 . S
H852 C858 0.950 . S
H853 C859 0.950 . S
H854 C860 0.949 . S
C855 H850 0.950 . S
C855 C857 1.327 . S
C855 C861 1.429 . S
C856 C848 1.574 . S
C856 H851 0.949 . S
C856 C862 1.368 . S
C857 C841 1.349 . S
C857 H849 0.950 . S
C857 C855 1.327 . S
C858 C846 1.349 . S
C858 H852 0.950 . S
C858 C859 1.327 . S
C859 H853 0.950 . S
C859 C858 1.327 . S
C859 C863 1.429 . S
C860 C843 1.574 . S
C860 H854 0.949 . S
C860 C864 1.368 . S
C861 C842 1.429 . S
C861 C855 1.429 . S
C861 C862 1.523 . S
C862 C843 1.368 . S
C862 C856 1.368 . S
C862 C861 1.523 . S
C863 C847 1.429 . S
C863 C859 1.429 . S
C863 C864 1.523 . S
C864 C848 1.368 . S
C864 C860 1.368 . S
C864 C863 1.523 . S
H865 C840 0.950 . S
H866 C842 0.950 . S
H867 C843 0.949 . S
H868 C845 0.950 . S
H869 C847 0.950 . S
C870 C871 1.349 . S
C870 C872 1.327 . S
C870 H895 0.950 . S
C871 C870 1.349 . S
C871 C887 1.349 . S
C872 C870 1.327 . S
C872 C891 1.429 . S
C872 H896 0.950 . S
C873 C890 1.574 . S
C873 C892 1.368 . S
C873 H897 0.949 . S
H874 C878 0.949 . S
C875 C876 1.349 . S
C875 C877 1.327 . S
C875 H898 0.950 . S
C876 C875 1.349 . S
C876 C888 1.349 . S
C877 C875 1.327 . S
C877 C893 1.429 . S
C877 H899 0.950 . S
C878 H874 0.949 . S
C878 C886 1.574 . S
C878 C894 1.368 . S
H879 C887 0.950 . S
H880 C885 0.950 . S
H881 C886 0.949 . S
H882 C888 0.950 . S
H883 C889 0.950 . S
H884 C890 0.949 . S
C885 H880 0.950 . S
C885 C887 1.327 . S
C885 C891 1.429 . S
C886 C878 1.574 . S
C886 H881 0.949 . S
C886 C892 1.368 . S
C887 C871 1.349 . S
C887 H879 0.950 . S
C887 C885 1.327 . S
C888 C876 1.349 . S
C888 H882 0.950 . S
C888 C889 1.327 . S
C889 H883 0.950 . S
C889 C888 1.327 . S
C889 C893 1.429 . S
C890 C873 1.574 . S
C890 H884 0.949 . S
C890 C894 1.368 . S
C891 C872 1.429 . S
C891 C885 1.429 . S
C891 C892 1.523 . S
C892 C873 1.368 . S
C892 C886 1.368 . S
C892 C891 1.523 . S
C893 C877 1.429 . S
C893 C889 1.429 . S
C893 C894 1.523 1_556 S
C894 C878 1.368 . S
C894 C890 1.368 . S
C894 C893 1.523 1_554 S
H895 C870 0.950 . S
H896 C872 0.950 . S
H897 C873 0.949 . S
H898 C875 0.950 . S
H899 C877 0.950 . S
C900 C901 1.349 . S
C900 C902 1.327 . S
C900 H925 0.950 . S
C901 C900 1.349 . S
C901 C917 1.349 . S
C902 C900 1.327 . S
C902 C921 1.429 . S
C902 H926 0.950 . S
C903 C920 1.574 . S
C903 C922 1.368 . S
C903 H927 0.949 . S
H904 C908 0.949 . S
C905 C906 1.349 . S
C905 C907 1.327 . S
C905 H928 0.950 . S
C906 C905 1.349 . S
C906 C918 1.349 . S
C907 C905 1.327 . S
C907 C923 1.429 . S
C907 H929 0.950 . S
C908 H904 0.949 . S
C908 C916 1.574 . S
C908 C924 1.368 . S
H909 C917 0.950 . S
H910 C915 0.950 . S
H911 C916 0.949 . S
H912 C918 0.950 . S
H913 C919 0.950 . S
H914 C920 0.949 . S
C915 H910 0.950 . S
C915 C917 1.327 . S
C915 C921 1.429 . S
C916 C908 1.574 . S
C916 H911 0.949 . S
C916 C922 1.368 . S
C917 C901 1.349 . S
C917 H909 0.950 . S
C917 C915 1.327 . S
C918 C906 1.349 . S
C918 H912 0.950 . S
C918 C919 1.327 . S
C919 H913 0.950 . S
C919 C918 1.327 . S
C919 C923 1.429 . S
C920 C903 1.574 . S
C920 H914 0.949 . S
C920 C924 1.368 . S
C921 C902 1.429 . S
C921 C915 1.429 . S
C921 C922 1.523 . S
C922 C903 1.368 . S
C922 C916 1.368 . S
C922 C921 1.523 . S
C923 C907 1.429 . S
C923 C919 1.429 . S
C923 C924 1.523 . S
C924 C908 1.368 . S
C924 C920 1.368 . S
C924 C923 1.523 . S
H925 C900 0.950 . S
H926 C902 0.950 . S
H927 C903 0.949 . S
H928 C905 0.950 . S
H929 C907 0.950 . S
C216 C199 1.622 . S
C211 C19 1.528 . S
C241 C40 1.540 . S
C246 C129 1.627 . S
C271 C51 1.538 . S
C276 C148 1.647 . S
C301 C72 1.517 . S
C306 C157 1.628 . S
C336 C171 1.624 . S
C331 C103 1.537 . S
C361 C114 1.531 . S
C366 C190 1.639 . S
C391 C30 1.517 . S
C396 C143 1.623 . S
C421 C61 1.526 . S
C426 C162 1.620 . S
C451 C82 1.531 . S
C456 C176 1.618 . S
C486 C185 1.614 . S
C481 C93 1.510 1_554 S
C516 C204 1.618 . S
C511 C124 1.524 . S
C546 C134 1.623 . S
C541 C9 1.520 . S
C571 C17 1.446 . S
C576 C149 1.520 . S
C601 C38 1.443 . S
C606 C161 1.496 . S
C636 C175 1.496 . S
C631 C54 1.434 . S
C661 C75 1.438 . S
C666 C191 1.519 . S
C696 C203 1.495 . S
C691 C101 1.442 . S
C726 C133 1.497 . S
C721 C117 1.435 . S
C756 C205 1.523 . S
C751 C33 1.443 . S
C781 C59 1.454 . S
C786 C135 1.536 . S
C816 C147 1.512 . S
C811 C80 1.456 . S
C841 C96 1.444 . S
C846 C163 1.525 . S
C871 C122 1.453 . S
C876 C177 1.535 . S
C901 C12 1.448 . S
C906 C189 1.511 . S
