# Generated by pormake.
# Topology the, (3,8)-cn, num edge types: 1
# Building blocks:
#     Node 0, Type 0, BuildingBlock: VETTIZ_charged_linker_0, # of connection points: 3
#     Node 1, Type 0, BuildingBlock: VETTIZ_charged_linker_0, # of connection points: 3
#     Node 2, Type 0, BuildingBlock: VETTIZ_charged_linker_0, # of connection points: 3
#     Node 3, Type 0, BuildingBlock: VETTIZ_charged_linker_0, # of connection points: 3
#     Node 4, Type 0, BuildingBlock: VETTIZ_charged_linker_0, # of connection points: 3
#     Node 5, Type 0, BuildingBlock: VETTIZ_charged_linker_0, # of connection points: 3
#     Node 6, Type 0, BuildingBlock: VETTIZ_charged_linker_0, # of connection points: 3
#     Node 7, Type 0, BuildingBlock: VETTIZ_charged_linker_0, # of connection points: 3
#     Node 8, Type 1, BuildingBlock: GIZVER_clean_sbu_0, # of connection points: 8
#     Node 9, Type 1, BuildingBlock: GIZVER_clean_sbu_0, # of connection points: 8
#     Node 10, Type 1, BuildingBlock: GIZVER_clean_sbu_0, # of connection points: 8
#     Edge 11, Type (0, 1), BuildingBlock: EZIPEK_clean_linker_0, # of connection points: 2
#     Edge 12, Type (0, 1), BuildingBlock: EZIPEK_clean_linker_0, # of connection points: 2
#     Edge 13, Type (0, 1), BuildingBlock: EZIPEK_clean_linker_0, # of connection points: 2
#     Edge 14, Type (0, 1), BuildingBlock: EZIPEK_clean_linker_0, # of connection points: 2
#     Edge 15, Type (0, 1), BuildingBlock: EZIPEK_clean_linker_0, # of connection points: 2
#     Edge 16, Type (0, 1), BuildingBlock: EZIPEK_clean_linker_0, # of connection points: 2
#     Edge 17, Type (0, 1), BuildingBlock: EZIPEK_clean_linker_0, # of connection points: 2
#     Edge 18, Type (0, 1), BuildingBlock: EZIPEK_clean_linker_0, # of connection points: 2
#     Edge 19, Type (0, 1), BuildingBlock: EZIPEK_clean_linker_0, # of connection points: 2
#     Edge 20, Type (0, 1), BuildingBlock: EZIPEK_clean_linker_0, # of connection points: 2
#     Edge 21, Type (0, 1), BuildingBlock: EZIPEK_clean_linker_0, # of connection points: 2
#     Edge 22, Type (0, 1), BuildingBlock: EZIPEK_clean_linker_0, # of connection points: 2
#     Edge 23, Type (0, 1), BuildingBlock: EZIPEK_clean_linker_0, # of connection points: 2
#     Edge 24, Type (0, 1), BuildingBlock: EZIPEK_clean_linker_0, # of connection points: 2
#     Edge 25, Type (0, 1), BuildingBlock: EZIPEK_clean_linker_0, # of connection points: 2
#     Edge 26, Type (0, 1), BuildingBlock: EZIPEK_clean_linker_0, # of connection points: 2
#     Edge 27, Type (0, 1), BuildingBlock: EZIPEK_clean_linker_0, # of connection points: 2
#     Edge 28, Type (0, 1), BuildingBlock: EZIPEK_clean_linker_0, # of connection points: 2
#     Edge 29, Type (0, 1), BuildingBlock: EZIPEK_clean_linker_0, # of connection points: 2
#     Edge 30, Type (0, 1), BuildingBlock: EZIPEK_clean_linker_0, # of connection points: 2
#     Edge 31, Type (0, 1), BuildingBlock: EZIPEK_clean_linker_0, # of connection points: 2
#     Edge 32, Type (0, 1), BuildingBlock: EZIPEK_clean_linker_0, # of connection points: 2
#     Edge 33, Type (0, 1), BuildingBlock: EZIPEK_clean_linker_0, # of connection points: 2
#     Edge 34, Type (0, 1), BuildingBlock: EZIPEK_clean_linker_0, # of connection points: 2
# Relax obj value: 0.049
# Max RMSD: 0.137
# Mean RMSD: 0.074
data_MOF--net-the--node1-GIZVER_clean_sbu_0--node2-VETTIZ_charged_linker_0--edge1-EZIPEK_clean_linker_0
_symmetry_space_group_name_H-M    P1
_symmetry_Int_Tables_number       1
_symmetry_cell_setting            triclinic
loop_
_symmetry_equiv_pos_as_xyz
'x, y, z'
_cell_length_a     39.322112
_cell_length_b     37.187945
_cell_length_c     34.525385
_cell_angle_alpha  86.387695
_cell_angle_beta   95.351899
_cell_angle_gamma 103.7386
loop_
_atom_site_label
_atom_site_type_symbol
_atom_site_fract_x
_atom_site_fract_y
_atom_site_fract_z
_atom_type_partial_charge
C0 C 0.38214 0.26704 0.48145 0.0
C1 C 0.41525 0.26466 0.47145 0.0
C2 C 0.43444 0.29248 0.44721 0.0
C3 C 0.38416 0.31948 0.43573 0.0
C4 C 0.36704 0.29484 0.46327 0.0
C5 C 0.33057 0.29959 0.46714 0.0
H6 H 0.19729 0.37586 0.3935 0.0
C7 C 0.35866 0.33872 0.41531 0.0
C8 C 0.32724 0.32734 0.43358 0.0
H9 H 0.20838 0.32075 0.50607 0.0
H10 H 0.26303 0.30778 0.48999 0.0
H11 H 0.22451 0.32088 0.34342 0.0
H12 H 0.27569 0.42407 0.39462 0.0
H13 H 0.28536 0.42505 0.34539 0.0
H14 H 0.24065 0.41786 0.35648 0.0
H15 H 0.22638 0.36407 0.31673 0.0
H16 H 0.26059 0.33922 0.31584 0.0
C17 C 0.30391 0.262 0.46098 0.0
C18 C 0.33 0.3159 0.50734 0.0
C19 C 0.38776 0.40883 0.28721 0.0
C20 C 0.3662 0.41711 0.25471 0.0
C21 C 0.32979 0.41132 0.25776 0.0
C22 C 0.31512 0.39757 0.29271 0.0
C23 C 0.33688 0.38822 0.32447 0.0
C24 C 0.3724 0.39297 0.32105 0.0
C25 C 0.39015 0.37477 0.35464 0.0
C26 C 0.35958 0.35976 0.37952 0.0
C27 C 0.32881 0.36872 0.36219 0.0
C28 C 0.40464 0.34351 0.33884 0.0
C29 C 0.41855 0.40502 0.37558 0.0
C30 C 0.21124 0.36015 0.41408 0.0
C31 C 0.19901 0.349 0.45079 0.0
C32 C 0.21757 0.32914 0.47752 0.0
C33 C 0.24937 0.32228 0.46837 0.0
C34 C 0.26254 0.33579 0.43242 0.0
C35 C 0.24331 0.35393 0.40573 0.0
C36 C 0.26251 0.36872 0.37027 0.0
C37 C 0.2975 0.35896 0.38157 0.0
C38 C 0.29697 0.33891 0.41741 0.0
C39 C 0.24253 0.34741 0.33459 0.0
C40 C 0.26627 0.41118 0.36619 0.0
H41 H 0.43399 0.33966 0.40961 0.0
H42 H 0.36745 0.24608 0.50065 0.0
H43 H 0.3569 0.32731 0.52093 0.0
H44 H 0.31712 0.33954 0.50491 0.0
H45 H 0.31643 0.29452 0.52822 0.0
H46 H 0.30903 0.24912 0.43455 0.0
H47 H 0.30586 0.24242 0.48629 0.0
H48 H 0.27646 0.26474 0.45668 0.0
H49 H 0.41566 0.41192 0.2852 0.0
H50 H 0.31265 0.41688 0.23283 0.0
H51 H 0.2873 0.39376 0.29337 0.0
H52 H 0.39414 0.33692 0.30843 0.0
H53 H 0.43373 0.35134 0.33896 0.0
H54 H 0.39682 0.31684 0.35553 0.0
H55 H 0.40805 0.42968 0.37966 0.0
H56 H 0.42734 0.39565 0.40502 0.0
H57 H 0.44175 0.41421 0.35826 0.0
H58 H 0.46028 0.29108 0.43986 0.0
C59 C 0.419 0.3201 0.4293 0.0
C60 C 0.64989 0.21794 0.36609 0.0
C61 C 0.62114 0.19309 0.34744 0.0
C62 C 0.61268 0.19935 0.30732 0.0
C63 C 0.6561 0.25793 0.30747 0.0
C64 C 0.66762 0.24945 0.34517 0.0
C65 C 0.70092 0.27669 0.35869 0.0
H66 H 0.81246 0.44532 0.33924 0.0
C67 C 0.67714 0.29499 0.29571 0.0
C68 C 0.70404 0.30582 0.32517 0.0
H69 H 0.82486 0.35269 0.41693 0.0
H70 H 0.77066 0.31561 0.38868 0.0
H71 H 0.72475 0.42975 0.34123 0.0
H72 H 0.78493 0.39413 0.25806 0.0
H73 H 0.75346 0.41764 0.23539 0.0
H74 H 0.78927 0.44229 0.26667 0.0
H75 H 0.75088 0.46246 0.3089 0.0
H76 H 0.70751 0.43646 0.29306 0.0
C77 C 0.69546 0.29269 0.39729 0.0
C78 C 0.73143 0.25636 0.36201 0.0
C79 C 0.6297 0.36349 0.17904 0.0
C80 C 0.63476 0.4011 0.16702 0.0
C81 C 0.66242 0.42688 0.18645 0.0
C82 C 0.68411 0.41528 0.21747 0.0
C83 C 0.6775 0.37763 0.23019 0.0
C84 C 0.65015 0.35271 0.21118 0.0
C85 C 0.64301 0.31502 0.23135 0.0
C86 C 0.67126 0.3207 0.26496 0.0
C87 C 0.69219 0.35726 0.26403 0.0
C88 C 0.60551 0.30729 0.24538 0.0
C89 C 0.64822 0.2865 0.20294 0.0
C90 C 0.80357 0.41685 0.34965 0.0
C91 C 0.82302 0.40199 0.38068 0.0
C92 C 0.8105 0.36481 0.39333 0.0
C93 C 0.77905 0.34318 0.37675 0.0
C94 C 0.75982 0.3582 0.3463 0.0
C95 C 0.77235 0.39416 0.33238 0.0
C96 C 0.74848 0.40411 0.29828 0.0
C97 C 0.72101 0.36755 0.29296 0.0
C98 C 0.72733 0.34141 0.32244 0.0
C99 C 0.73207 0.43501 0.31067 0.0
C100 C 0.77007 0.41532 0.26254 0.0
H101 H 0.62094 0.23578 0.25742 0.0
H102 H 0.65818 0.21304 0.39636 0.0
H103 H 0.72362 0.22865 0.34903 0.0
H104 H 0.75396 0.27183 0.34595 0.0
H105 H 0.74079 0.25176 0.39288 0.0
H106 H 0.67099 0.30304 0.39431 0.0
H107 H 0.69321 0.27115 0.42132 0.0
H108 H 0.71719 0.31622 0.40617 0.0
H109 H 0.6085 0.34303 0.16516 0.0
H110 H 0.66681 0.45607 0.17805 0.0
H111 H 0.70461 0.43614 0.23111 0.0
H112 H 0.60142 0.33206 0.25911 0.0
H113 H 0.58527 0.30063 0.22057 0.0
H114 H 0.60012 0.28463 0.26759 0.0
H115 H 0.66797 0.29956 0.18208 0.0
H116 H 0.65875 0.26386 0.21811 0.0
H117 H 0.62329 0.27445 0.18566 0.0
H118 H 0.5916 0.17996 0.29187 0.0
C119 C 0.6296 0.23182 0.28745 0.0
C120 C 0.80256 0.68896 0.39055 0.0
C121 C 0.82194 0.66727 0.37398 0.0
C122 C 0.81507 0.66009 0.33401 0.0
C123 C 0.76688 0.69058 0.32933 0.0
C124 C 0.77591 0.70133 0.36723 0.0
C125 C 0.75475 0.72763 0.37814 0.0
H126 H 0.62021 0.81265 0.33152 0.0
C127 C 0.73627 0.70503 0.31385 0.0
C128 C 0.72966 0.7279 0.34166 0.0
H129 H 0.69693 0.8303 0.43044 0.0
H130 H 0.7254 0.78545 0.40776 0.0
H131 H 0.60825 0.72642 0.3346 0.0
H132 H 0.67587 0.80858 0.2652 0.0
H133 H 0.65126 0.77309 0.23529 0.0
H134 H 0.62877 0.80008 0.26062 0.0
H135 H 0.5916 0.74664 0.2905 0.0
H136 H 0.60966 0.70627 0.29035 0.0
C137 C 0.73494 0.71086 0.41411 0.0
C138 C 0.78003 0.76611 0.38471 0.0
C139 C 0.66619 0.65233 0.19041 0.0
C140 C 0.63547 0.65826 0.16856 0.0
C141 C 0.61729 0.68155 0.18524 0.0
C142 C 0.63112 0.70124 0.21878 0.0
C143 C 0.6631 0.69696 0.2377 0.0
C144 C 0.67979 0.67238 0.22374 0.0
C145 C 0.71292 0.66998 0.2484 0.0
C146 C 0.71283 0.69668 0.27999 0.0
C147 C 0.68363 0.7125 0.27355 0.0
C148 C 0.70876 0.62963 0.26492 0.0
C149 C 0.74458 0.68367 0.22319 0.0
C150 C 0.64351 0.80719 0.34777 0.0
C151 C 0.65668 0.82509 0.38255 0.0
C152 C 0.68661 0.81694 0.40349 0.0
C153 C 0.70308 0.79099 0.39025 0.0
C154 C 0.6896 0.7731 0.35555 0.0
C155 C 0.66042 0.78144 0.33475 0.0
C156 C 0.6496 0.75923 0.29877 0.0
C157 C 0.67812 0.73768 0.3004 0.0
C158 C 0.70115 0.74549 0.33411 0.0
C159 C 0.6128 0.73339 0.3034 0.0
C160 C 0.6512 0.78648 0.26289 0.0
H161 H 0.78263 0.66342 0.28211 0.0
H162 H 0.80791 0.69589 0.42086 0.0
H163 H 0.80507 0.769 0.37092 0.0
H164 H 0.76889 0.78906 0.37119 0.0
H165 H 0.78691 0.77087 0.41621 0.0
H166 H 0.72122 0.68144 0.40963 0.0
H167 H 0.75344 0.71169 0.44059 0.0
H168 H 0.7146 0.72536 0.4199 0.0
H169 H 0.6796 0.6319 0.18337 0.0
H170 H 0.59158 0.68418 0.1733 0.0
H171 H 0.61606 0.71879 0.22897 0.0
H172 H 0.6832 0.61983 0.27804 0.0
H173 H 0.70948 0.61067 0.24156 0.0
H174 H 0.72924 0.62643 0.28803 0.0
H175 H 0.73784 0.70007 0.19672 0.0
H176 H 0.76685 0.70271 0.23895 0.0
H177 H 0.75387 0.66009 0.21324 0.0
H178 H 0.83019 0.64428 0.32036 0.0
C179 C 0.78739 0.67107 0.31187 0.0
C180 C 0.39609 0.80483 0.37337 0.0
C181 C 0.38363 0.82534 0.39952 0.0
C182 C 0.34824 0.81415 0.40819 0.0
C183 C 0.3388 0.76181 0.36652 0.0
C184 C 0.37319 0.7735 0.35698 0.0
C185 C 0.38177 0.74904 0.32787 0.0
H186 H 0.3311 0.59807 0.21647 0.0
C187 C 0.32219 0.72777 0.34525 0.0
C188 C 0.34713 0.72035 0.32218 0.0
H189 H 0.43148 0.67665 0.22479 0.0
H190 H 0.41064 0.71126 0.27088 0.0
H191 H 0.3224 0.59156 0.30745 0.0
H192 H 0.28152 0.6592 0.21728 0.0
H193 H 0.24765 0.63759 0.24693 0.0
H194 H 0.26785 0.60951 0.22 0.0
H195 H 0.286 0.57235 0.27377 0.0
H196 H 0.27984 0.59259 0.31802 0.0
C197 C 0.41162 0.73152 0.34687 0.0
C198 C 0.3909 0.77283 0.29012 0.0
C199 C 0.1975 0.65859 0.37007 0.0
C200 C 0.17393 0.62636 0.35534 0.0
C201 C 0.18753 0.60606 0.32941 0.0
C202 C 0.22128 0.61885 0.31626 0.0
C203 C 0.24303 0.65202 0.32981 0.0
C204 C 0.23102 0.67107 0.35653 0.0
C205 C 0.25801 0.7052 0.36913 0.0
C206 C 0.28831 0.70341 0.34566 0.0
C207 C 0.2795 0.67213 0.32264 0.0
C208 C 0.26748 0.70069 0.41347 0.0
C209 C 0.24297 0.73955 0.35686 0.0
C210 C 0.34828 0.62297 0.22807 0.0
C211 C 0.38284 0.63499 0.21701 0.0
C212 C 0.40476 0.66716 0.23292 0.0
C213 C 0.39259 0.6871 0.25968 0.0
C214 C 0.3581 0.67469 0.27089 0.0
C215 C 0.33654 0.64311 0.25511 0.0
C216 C 0.30104 0.63353 0.27133 0.0
C217 C 0.30455 0.66497 0.29868 0.0
C218 C 0.33813 0.68896 0.29842 0.0
C219 C 0.29672 0.59544 0.29364 0.0
C220 C 0.27279 0.63473 0.23725 0.0
H221 H 0.29942 0.77511 0.4004 0.0
H222 H 0.42309 0.81304 0.36592 0.0
H223 H 0.3751 0.79412 0.28519 0.0
H224 H 0.38463 0.7565 0.26369 0.0
H225 H 0.41906 0.78757 0.29173 0.0
H226 H 0.40772 0.72372 0.37807 0.0
H227 H 0.4376 0.75127 0.3455 0.0
H228 H 0.41249 0.70557 0.33358 0.0
H229 H 0.19152 0.67412 0.3926 0.0
H230 H 0.17261 0.57937 0.31978 0.0
H231 H 0.22934 0.60205 0.29636 0.0
H232 H 0.26943 0.67177 0.42156 0.0
H233 H 0.24712 0.70698 0.43047 0.0
H234 H 0.29325 0.71822 0.4233 0.0
H235 H 0.22456 0.73455 0.3302 0.0
H236 H 0.26348 0.76418 0.34894 0.0
H237 H 0.22829 0.74656 0.38017 0.0
H238 H 0.3381 0.8297 0.42804 0.0
C239 C 0.32589 0.78245 0.3921 0.0
C240 C 0.40018 0.66317 0.82211 0.0
C241 C 0.38414 0.62986 0.84155 0.0
C242 C 0.34785 0.61516 0.83273 0.0
C243 C 0.3458 0.66331 0.78204 0.0
C244 C 0.38041 0.67975 0.79328 0.0
C245 C 0.39268 0.71651 0.77195 0.0
H246 H 0.37425 0.83269 0.61705 0.0
C247 C 0.33383 0.68574 0.74855 0.0
C248 C 0.36108 0.71732 0.74303 0.0
H249 H 0.45289 0.85009 0.71429 0.0
H250 H 0.42307 0.79312 0.74611 0.0
H251 H 0.30474 0.80198 0.6743 0.0
H252 H 0.36646 0.74717 0.61129 0.0
H253 H 0.32259 0.72176 0.6069 0.0
H254 H 0.33367 0.76865 0.58664 0.0
H255 H 0.30567 0.80609 0.62224 0.0
H256 H 0.277 0.76747 0.64543 0.0
C257 C 0.39904 0.74753 0.80171 0.0
C258 C 0.4256 0.71546 0.75117 0.0
C259 C 0.21855 0.63399 0.66832 0.0
C260 C 0.20504 0.6424 0.63037 0.0
C261 C 0.22373 0.67389 0.6099 0.0
C262 C 0.25497 0.6964 0.62677 0.0
C263 C 0.26856 0.68691 0.66423 0.0
C264 C 0.25068 0.65564 0.68398 0.0
C265 C 0.27123 0.64671 0.72098 0.0
C266 C 0.30368 0.67864 0.72119 0.0
C267 C 0.30171 0.70264 0.68818 0.0
C268 C 0.24936 0.6475 0.75575 0.0
C269 C 0.28015 0.60888 0.71645 0.0
C270 C 0.38437 0.82455 0.64567 0.0
C271 C 0.41589 0.84587 0.66338 0.0
C272 C 0.42852 0.83431 0.70044 0.0
C273 C 0.41131 0.80108 0.7187 0.0
C274 C 0.38078 0.7792 0.70009 0.0
C275 C 0.36694 0.79165 0.6649 0.0
C276 C 0.3332 0.7652 0.65068 0.0
C277 C 0.329 0.73528 0.6834 0.0
C278 C 0.35773 0.74316 0.71151 0.0
C279 C 0.30341 0.78611 0.64772 0.0
C280 C 0.33893 0.74994 0.61169 0.0
H281 H 0.30151 0.61829 0.79689 0.0
H282 H 0.42764 0.67592 0.82916 0.0
H283 H 0.42066 0.69012 0.73403 0.0
H284 H 0.43323 0.73929 0.73055 0.0
H285 H 0.44843 0.71517 0.77262 0.0
H286 H 0.38702 0.73748 0.8295 0.0
H287 H 0.42753 0.75881 0.80919 0.0
H288 H 0.38678 0.77058 0.7908 0.0
H289 H 0.20526 0.60971 0.68468 0.0
H290 H 0.21434 0.68078 0.58052 0.0
H291 H 0.26786 0.71986 0.60958 0.0
H292 H 0.23495 0.67 0.75116 0.0
H293 H 0.22967 0.62089 0.75952 0.0
H294 H 0.26583 0.65351 0.78335 0.0
H295 H 0.28854 0.60724 0.68683 0.0
H296 H 0.3021 0.60403 0.73667 0.0
H297 H 0.2569 0.58569 0.72056 0.0
H298 H 0.33459 0.59017 0.84803 0.0
C299 C 0.32877 0.63139 0.80288 0.0
C300 C 0.20036 0.30797 0.64434 0.0
C301 C 0.18186 0.32909 0.66327 0.0
C302 C 0.18908 0.33318 0.7038 0.0
C303 C 0.2373 0.30321 0.70399 0.0
C304 C 0.22715 0.29411 0.66579 0.0
C305 C 0.24689 0.26722 0.65289 0.0
H306 H 0.38713 0.18885 0.68366 0.0
C307 C 0.26834 0.28862 0.71709 0.0
C308 C 0.27346 0.26619 0.68799 0.0
H309 H 0.29761 0.15843 0.59986 0.0
H310 H 0.27142 0.20464 0.62407 0.0
H311 H 0.39092 0.2799 0.68165 0.0
H312 H 0.34151 0.18691 0.75398 0.0
H313 H 0.35884 0.22427 0.78425 0.0
H314 H 0.38812 0.20565 0.7583 0.0
H315 H 0.41547 0.25487 0.71522 0.0
H316 H 0.39887 0.29242 0.73052 0.0
C317 C 0.26517 0.28339 0.61582 0.0
C318 C 0.22066 0.22913 0.64707 0.0
C319 C 0.34931 0.3493 0.83029 0.0
C320 C 0.38322 0.34706 0.84521 0.0
C321 C 0.39844 0.3202 0.83137 0.0
C322 C 0.38077 0.29697 0.80167 0.0
C323 C 0.34754 0.30076 0.78546 0.0
C324 C 0.332 0.32602 0.80046 0.0
C325 C 0.2966 0.32627 0.77978 0.0
C326 C 0.29415 0.29811 0.74878 0.0
C327 C 0.32412 0.28338 0.75213 0.0
C328 C 0.29794 0.36573 0.76179 0.0
C329 C 0.26815 0.31315 0.80918 0.0
C330 C 0.36191 0.19221 0.6705 0.0
C331 C 0.34469 0.17035 0.63939 0.0
C332 C 0.31156 0.17516 0.62352 0.0
C333 C 0.29627 0.20171 0.63772 0.0
C334 C 0.3136 0.2229 0.66907 0.0
C335 C 0.34554 0.21748 0.68545 0.0
C336 C 0.35839 0.23997 0.72097 0.0
C337 C 0.32836 0.25876 0.7239 0.0
C338 C 0.3028 0.24964 0.69251 0.0
C339 C 0.39285 0.26822 0.71204 0.0
C340 C 0.36224 0.21306 0.75636 0.0
H341 H 0.22217 0.32618 0.75441 0.0
H342 H 0.19424 0.30266 0.6137 0.0
H343 H 0.19479 0.22807 0.65825 0.0
H344 H 0.23032 0.20629 0.66326 0.0
H345 H 0.21547 0.22266 0.61578 0.0
H346 H 0.28169 0.31172 0.62067 0.0
H347 H 0.24549 0.28518 0.59094 0.0
H348 H 0.28249 0.26633 0.6072 0.0
H349 H 0.33727 0.36993 0.84047 0.0
H350 H 0.42474 0.31841 0.84234 0.0
H351 H 0.3941 0.27767 0.79172 0.0
H352 H 0.3204 0.37468 0.74329 0.0
H353 H 0.30127 0.38603 0.78491 0.0
H354 H 0.27405 0.36778 0.74331 0.0
H355 H 0.27837 0.30012 0.8363 0.0
H356 H 0.24578 0.29149 0.79718 0.0
H357 H 0.258 0.33662 0.81794 0.0
H358 H 0.17427 0.34787 0.7194 0.0
C359 C 0.21698 0.3209 0.72404 0.0
C360 C 0.6482 0.21316 0.66596 0.0
C361 C 0.65691 0.19471 0.63529 0.0
C362 C 0.68962 0.20839 0.61977 0.0
C363 C 0.704 0.25884 0.66451 0.0
C364 C 0.67204 0.24503 0.68007 0.0
C365 C 0.66628 0.26892 0.71141 0.0
H366 H 0.72556 0.4208 0.82057 0.0
C367 C 0.72233 0.29289 0.68508 0.0
C368 C 0.70039 0.29868 0.71295 0.0
H369 H 0.62425 0.34397 0.81931 0.0
H370 H 0.64161 0.30764 0.77202 0.0
H371 H 0.72763 0.42538 0.72673 0.0
H372 H 0.77209 0.36272 0.81837 0.0
H373 H 0.80235 0.3725 0.78264 0.0
H374 H 0.79246 0.41017 0.8067 0.0
H375 H 0.76211 0.44572 0.76211 0.0
H376 H 0.77153 0.42829 0.71791 0.0
C377 C 0.63413 0.2851 0.69749 0.0
C378 C 0.66222 0.24513 0.74984 0.0
C379 C 0.83975 0.37123 0.64294 0.0
C380 C 0.86276 0.40329 0.65802 0.0
C381 C 0.85552 0.41688 0.69277 0.0
C382 C 0.82509 0.40027 0.71117 0.0
C383 C 0.80139 0.3695 0.69487 0.0
C384 C 0.80944 0.35452 0.66217 0.0
C385 C 0.78198 0.32008 0.65095 0.0
C386 C 0.75544 0.3182 0.68101 0.0
C387 C 0.76679 0.34773 0.70618 0.0
C388 C 0.76616 0.32661 0.6091 0.0
C389 C 0.79948 0.28671 0.65586 0.0
C390 C 0.70733 0.39597 0.81023 0.0
C391 C 0.6735 0.38519 0.82352 0.0
C392 C 0.6504 0.35277 0.80937 0.0
C393 C 0.66051 0.33186 0.78181 0.0
C394 C 0.69404 0.34361 0.7678 0.0
C395 C 0.71679 0.37519 0.78212 0.0
C396 C 0.75066 0.38464 0.76265 0.0
C397 C 0.74461 0.35361 0.7343 0.0
C398 C 0.71147 0.32945 0.7375 0.0
C399 C 0.75353 0.42308 0.74132 0.0
C400 C 0.78116 0.38274 0.79403 0.0
H401 H 0.73748 0.24957 0.62081 0.0
H402 H 0.62293 0.20357 0.67786 0.0
H403 H 0.68179 0.22768 0.75356 0.0
H404 H 0.66702 0.2619 0.77589 0.0
H405 H 0.63564 0.22634 0.74995 0.0
H406 H 0.63221 0.28992 0.6653 0.0
H407 H 0.60925 0.2659 0.70535 0.0
H408 H 0.63587 0.31252 0.70912 0.0
H409 H 0.84483 0.36008 0.6164 0.0
H410 H 0.87295 0.4414 0.70491 0.0
H411 H 0.82082 0.41263 0.73697 0.0
H412 H 0.76057 0.35464 0.60553 0.0
H413 H 0.78468 0.32476 0.5873 0.0
H414 H 0.7409 0.30694 0.60183 0.0
H415 H 0.82093 0.29086 0.67972 0.0
H416 H 0.78109 0.26064 0.66442 0.0
H417 H 0.81111 0.28274 0.62878 0.0
H418 H 0.69652 0.19483 0.59578 0.0
C419 C 0.71322 0.24023 0.63424 0.0
C420 C 0.65752 0.60064 0.71584 0.0
C421 C 0.62686 0.60601 0.72981 0.0
C422 C 0.60947 0.63183 0.71053 0.0
C423 C 0.65642 0.65086 0.66769 0.0
C424 C 0.672 0.62356 0.68497 0.0
C425 C 0.70654 0.62443 0.66927 0.0
H426 H 0.83562 0.70858 0.55515 0.0
C427 C 0.68092 0.67376 0.64105 0.0
C428 C 0.71027 0.65842 0.64184 0.0
H429 H 0.82413 0.60478 0.62181 0.0
H430 H 0.77041 0.6122 0.64478 0.0
H431 H 0.81826 0.75218 0.61827 0.0
H432 H 0.75016 0.70027 0.52311 0.0
H433 H 0.74804 0.74724 0.52629 0.0
H434 H 0.78922 0.73674 0.51979 0.0
H435 H 0.81059 0.77807 0.57423 0.0
H436 H 0.7829 0.77402 0.61398 0.0
C437 C 0.73542 0.63008 0.70362 0.0
C438 C 0.70261 0.58834 0.64726 0.0
C439 C 0.65618 0.7932 0.57968 0.0
C440 C 0.67873 0.82585 0.56607 0.0
C441 C 0.71386 0.82578 0.56103 0.0
C442 C 0.72612 0.79345 0.56884 0.0
C443 C 0.70361 0.76155 0.58393 0.0
C444 C 0.66959 0.76213 0.59024 0.0
C445 C 0.65218 0.72919 0.61471 0.0
C446 C 0.68076 0.70779 0.62011 0.0
C447 C 0.71033 0.72641 0.60097 0.0
C448 C 0.64444 0.74314 0.65378 0.0
C449 C 0.61923 0.70759 0.59091 0.0
C450 C 0.82128 0.68775 0.57473 0.0
C451 C 0.83354 0.65608 0.58686 0.0
C452 C 0.81476 0.62934 0.61241 0.0
C453 C 0.78357 0.63359 0.62547 0.0
C454 C 0.77115 0.66506 0.613 0.0
C455 C 0.7899 0.69169 0.58828 0.0
C456 C 0.77275 0.7237 0.57929 0.0
C457 C 0.73947 0.71028 0.60043 0.0
C458 C 0.73909 0.67625 0.62043 0.0
C459 C 0.7973 0.7589 0.59711 0.0
C460 C 0.76459 0.72741 0.53471 0.0
H461 H 0.61015 0.67402 0.66609 0.0
H462 H 0.67108 0.58074 0.73035 0.0
H463 H 0.67472 0.57602 0.6375 0.0
H464 H 0.71631 0.59327 0.62013 0.0
H465 H 0.71246 0.567 0.66602 0.0
H466 H 0.73117 0.65054 0.72374 0.0
H467 H 0.73514 0.6037 0.72071 0.0
H468 H 0.7621 0.64139 0.69432 0.0
H469 H 0.62943 0.79291 0.58519 0.0
H470 H 0.7319 0.85092 0.55156 0.0
H471 H 0.75296 0.79487 0.56421 0.0
H472 H 0.66087 0.77126 0.65992 0.0
H473 H 0.61654 0.74462 0.65349 0.0
H474 H 0.65093 0.72576 0.67929 0.0
H475 H 0.62539 0.7042 0.56073 0.0
H476 H 0.60928 0.67932 0.60327 0.0
H477 H 0.59781 0.72261 0.58898 0.0
H478 H 0.58557 0.63591 0.72099 0.0
C479 C 0.62398 0.65414 0.67919 0.0
Co480 Co 0.07682 0.46038 0.54563 0.0
Co481 Co 0.05677 0.4571 0.47227 0.0
Co482 Co 0.01738 0.51228 0.5076 0.0
O483 O 0.03447 0.46538 0.51494 0.0
H484 H 0.0153 0.44429 0.51953 0.0
O485 O 0.99942 0.55846 0.5 0.0
Co486 Co 0.95081 0.55547 0.48314 0.0
Co487 Co 0.99004 0.56979 0.54905 0.0
H488 H 0.01535 0.579 0.48785 0.0
O489 O 0.05824 0.4108 0.45813 0.0
O490 O 0.09676 0.44879 0.49891 0.0
O491 O 0.07219 0.49739 0.43642 0.0
O492 O 0.05048 0.53723 0.46615 0.0
O493 O 0.98047 0.48711 0.46652 0.0
O494 O 0.90749 0.55636 0.46666 0.0
O495 O 0.95496 0.60405 0.46746 0.0
O496 O 0.93958 0.50474 0.49438 0.0
O497 O 0.98381 0.48918 0.54881 0.0
O498 O 0.99278 0.53287 0.59147 0.0
O499 O 0.94222 0.56452 0.53647 0.0
O500 O 0.97987 0.61493 0.55905 0.0
C501 C 0.09441 0.418 0.57789 0.0
C502 C 0.08637 0.53762 0.55268 0.0
C503 C 0.06902 0.52994 0.44029 0.0
C504 C 0.08837 0.41925 0.47836 0.0
C505 C 0.92151 0.5908 0.4578 0.0
C506 C 0.94786 0.4851 0.46975 0.0
C507 C 0.97916 0.49986 0.58205 0.0
C508 C 0.94774 0.59622 0.55226 0.0
O509 O 0.11394 0.45131 0.5741 0.0
O510 O 0.06301 0.41073 0.5596 0.0
O511 O 0.05366 0.53764 0.54916 0.0
O512 O 0.09718 0.51227 0.5376 0.0
Co513 Co 0.55292 0.94905 0.47777 0.0
Co514 Co 0.57472 0.97913 0.54504 0.0
Co515 Co 0.51732 0.01824 0.50652 0.0
O516 O 0.55828 0.99737 0.49752 0.0
H517 H 0.57706 0.01542 0.48625 0.0
O518 O 0.47576 0.03919 0.51535 0.0
Co519 Co 0.46876 0.06613 0.55969 0.0
Co520 Co 0.47414 0.08305 0.48992 0.0
H521 H 0.45422 0.02126 0.50837 0.0
O522 O 0.6212 0.97906 0.55384 0.0
O523 O 0.57683 0.93393 0.52792 0.0
O524 O 0.54424 0.96663 0.58722 0.0
O525 O 0.49952 0.98153 0.5511 0.0
O526 O 0.55091 0.05376 0.54235 0.0
O527 O 0.45682 0.08824 0.59918 0.0
O528 O 0.42113 0.05655 0.55203 0.0
O529 O 0.51716 0.08104 0.57316 0.0
O530 O 0.53443 0.05347 0.46032 0.0
O531 O 0.51076 0.10242 0.45776 0.0
O532 O 0.47399 0.11417 0.52781 0.0
O533 O 0.43343 0.09851 0.47716 0.0
C534 C 0.58157 0.92107 0.44865 0.0
C535 C 0.48367 0.94692 0.47479 0.0
C536 C 0.5116 0.96446 0.58069 0.0
C537 C 0.60961 0.94586 0.54125 0.0
C538 C 0.42533 0.07697 0.58229 0.0
C539 C 0.54707 0.07686 0.56648 0.0
C540 C 0.53267 0.08605 0.44689 0.0
C541 C 0.45047 0.12275 0.50201 0.0
O542 O 0.55026 0.90531 0.45834 0.0
O543 O 0.59472 0.95596 0.45629 0.0
O544 O 0.48551 0.9818 0.47046 0.0
O545 O 0.50755 0.93513 0.49562 0.0
Co546 Co 0.47924 0.53379 0.08319 0.0
Co547 Co 0.46333 0.46607 0.06571 0.0
Co548 Co 0.51128 0.51144 1.00077 0.0
O549 O 0.47204 0.50823 0.03507 0.0
H550 H 0.45055 0.51063 0.02024 0.0
O551 O 0.55158 0.5163 0.96674 0.0
Co552 Co 0.55972 0.47919 0.93302 0.0
Co553 Co 0.54355 0.5385 0.92009 0.0
H554 H 0.5735 0.52936 0.97963 0.0
O555 O 0.41901 0.4454 0.07931 0.0
O556 O 0.46252 0.48583 0.11312 0.0
O557 O 0.49873 0.43888 0.07181 0.0
O558 O 0.5358 0.47513 0.03363 0.0
O559 O 0.47918 0.4701 0.96987 0.0
O560 O 0.57001 0.44595 0.9044 0.0
O561 O 0.60806 0.49109 0.93721 0.0
O562 O 0.51187 0.46038 0.92396 0.0
O563 O 0.487 0.54855 0.96923 0.0
O564 O 0.49883 0.54901 0.90746 0.0
O565 O 0.55912 0.51322 0.88503 0.0
O566 O 0.57848 0.57348 0.90258 0.0
C567 C 0.45031 0.5591 0.1151 0.0
C568 C 0.54738 0.55149 0.06854 0.0
C569 C 0.52864 0.44771 0.0585 0.0
C570 C 0.43141 0.46309 0.11075 0.0
C571 C 0.60207 0.46258 0.9149 0.0
C572 C 0.48262 0.45526 0.9384 0.0
C573 C 0.48049 0.55602 0.93285 0.0
C574 C 0.57639 0.5476 0.87814 0.0
O575 O 0.4827 0.55881 0.12643 0.0
O576 O 0.43597 0.543 0.08297 0.0
O577 O 0.5417 0.55277 0.03154 0.0
O578 O 0.52622 0.52896 0.08934 0.0
C579 C 0.1356 0.34317 0.4618 0.0
C580 C 0.17064 0.36445 0.46296 0.0
C581 C 0.15081 0.42091 0.46826 0.0
C582 C 0.11605 0.39963 0.47216 0.0
N583 N 0.07585 0.33921 0.47669 0.0
N584 N 0.21253 0.42184 0.47714 0.0
C585 C 0.10846 0.3603 0.47006 0.0
C586 C 0.1785 0.40269 0.46983 0.0
N587 N 0.12822 0.30699 0.45179 0.0
N588 N 0.15721 0.45816 0.45936 0.0
H589 H 0.23377 0.40936 0.47842 0.0
H590 H 0.21921 0.44915 0.48582 0.0
H591 H 0.13734 0.47227 0.45255 0.0
H592 H 0.18189 0.474 0.45312 0.0
H593 H 0.10281 0.29119 0.44581 0.0
H594 H 0.14773 0.29344 0.44694 0.0
H595 H 0.06998 0.31039 0.47912 0.0
H596 H 0.05526 0.35021 0.4835 0.0
C597 C 0.61388 0.13665 0.39458 0.0
C598 C 0.59868 0.1619 0.37006 0.0
C599 C 0.54055 0.12627 0.38628 0.0
C600 C 0.55591 0.10652 0.41682 0.0
N601 N 0.60906 0.09813 0.45389 0.0
N602 N 0.5466 0.18516 0.35128 0.0
C603 C 0.59315 0.11274 0.42191 0.0
C604 C 0.56167 0.15781 0.368 0.0
N605 N 0.64779 0.1349 0.39142 0.0
N606 N 0.5056 0.11508 0.37485 0.0
H607 H 0.56109 0.21055 0.34085 0.0
H608 H 0.52002 0.18439 0.35232 0.0
H609 H 0.4896 0.09117 0.3867 0.0
H610 H 0.49377 0.12714 0.35079 0.0
H611 H 0.65906 0.11486 0.40647 0.0
H612 H 0.66321 0.15074 0.37063 0.0
H613 H 0.63615 0.10514 0.46064 0.0
H614 H 0.59521 0.08198 0.47559 0.0
C615 C 0.87702 0.66975 0.42046 0.0
C616 C 0.84746 0.64912 0.39798 0.0
C617 C 0.87204 0.5946 0.40808 0.0
C618 C 0.89856 0.61309 0.43557 0.0
N619 N 0.92127 0.66749 0.47366 0.0
N620 N 0.81207 0.58841 0.38222 0.0
C621 C 0.89977 0.65054 0.44349 0.0
C622 C 0.84344 0.61043 0.39558 0.0
N623 N 0.88436 0.70756 0.41875 0.0
N624 N 0.87474 0.56268 0.3923 0.0
H625 H 0.78961 0.59854 0.37505 0.0
H626 H 0.80752 0.55958 0.38284 0.0
H627 H 0.897 0.55188 0.39744 0.0
H628 H 0.85694 0.5499 0.37016 0.0
H629 H 0.90741 0.72377 0.43181 0.0
H630 H 0.86927 0.72269 0.40116 0.0
H631 H 0.92009 0.69329 0.48289 0.0
H632 H 0.93773 0.65451 0.49187 0.0
C633 C 0.41513 0.85722 0.45969 0.0
C634 C 0.40764 0.85804 0.41862 0.0
C635 C 0.44916 0.91888 0.41381 0.0
C636 C 0.45446 0.91914 0.4551 0.0
N637 N 0.43489 0.89313 0.51703 0.0
N638 N 0.41145 0.89356 0.35757 0.0
C639 C 0.43506 0.88965 0.47792 0.0
C640 C 0.42281 0.89011 0.39595 0.0
N641 N 0.40463 0.82502 0.48125 0.0
N642 N 0.47037 0.94488 0.3915 0.0
H643 H 0.39188 0.87341 0.34364 0.0
H644 H 0.419 0.91787 0.34064 0.0
H645 H 0.4901 0.96625 0.40321 0.0
H646 H 0.47032 0.94343 0.36146 0.0
H647 H 0.4125 0.82201 0.51071 0.0
H648 H 0.39103 0.80023 0.46902 0.0
H649 H 0.41892 0.8739 0.53481 0.0
H650 H 0.44769 0.91742 0.5307 0.0
C651 C 0.17163 0.57819 0.61111 0.0
C652 C 0.17305 0.61664 0.61126 0.0
C653 C 0.11506 0.60485 0.57328 0.0
C654 C 0.11305 0.56596 0.57629 0.0
N655 N 0.13245 0.51816 0.61588 0.0
N656 N 0.14092 0.66477 0.6009 0.0
C657 C 0.13935 0.55339 0.60041 0.0
C658 C 0.14322 0.62955 0.59474 0.0
N659 N 0.20112 0.56499 0.61996 0.0
N660 N 0.09095 0.61858 0.54958 0.0
H661 H 0.16005 0.68296 0.61772 0.0
H662 H 0.11843 0.67454 0.59284 0.0
H663 H 0.06975 0.60189 0.53402 0.0
H664 H 0.09362 0.64679 0.54298 0.0
H665 H 0.2011 0.53715 0.61755 0.0
H666 H 0.22606 0.58222 0.62509 0.0
H667 H 0.15014 0.50852 0.63591 0.0
H668 H 0.10708 0.50136 0.61329 0.0
C669 C 0.37088 0.11391 0.64941 0.0
C670 C 0.36098 0.142 0.62398 0.0
C671 C 0.37839 0.11332 0.56922 0.0
C672 C 0.39606 0.09157 0.59551 0.0
N673 N 0.40756 0.06963 0.66142 0.0
N674 N 0.36123 0.17164 0.55953 0.0
C675 C 0.39175 0.0914 0.63591 0.0
C676 C 0.36608 0.14244 0.58373 0.0
N677 N 0.35922 0.10771 0.68585 0.0
N678 N 0.37288 0.10625 0.53059 0.0
H679 H 0.35485 0.19499 0.56928 0.0
H680 H 0.36739 0.17451 0.53062 0.0
H681 H 0.37843 0.08321 0.51931 0.0
H682 H 0.35821 0.12013 0.51086 0.0
H683 H 0.36304 0.08558 0.7044 0.0
H684 H 0.3425 0.12232 0.69601 0.0
H685 H 0.40927 0.07178 0.69152 0.0
H686 H 0.42006 0.05024 0.65219 0.0
C687 C 0.89051 0.46202 0.62271 0.0
C688 C 0.89234 0.42579 0.63618 0.0
C689 C 0.95224 0.43772 0.61477 0.0
C690 C 0.95167 0.47554 0.60578 0.0
N691 N 0.92262 0.52509 0.61504 0.0
N692 N 0.92669 0.38013 0.64971 0.0
C693 C 0.92161 0.48821 0.61382 0.0
C694 C 0.92367 0.41375 0.63335 0.0
N695 N 0.85879 0.47148 0.61793 0.0
N696 N 0.98032 0.42483 0.60621 0.0
H697 H 0.90628 0.36195 0.66312 0.0
H698 H 0.95008 0.37134 0.65238 0.0
H699 H 1.00312 0.44217 0.59643 0.0
H700 H 0.98048 0.39681 0.60747 0.0
H701 H 0.85555 0.49644 0.60437 0.0
H702 H 0.83521 0.45276 0.62341 0.0
H703 H 0.90184 0.53491 0.62352 0.0
H704 H 0.94533 0.54588 0.6137 0.0
C705 C 0.66867 0.88252 0.52595 0.0
C706 C 0.66604 0.86063 0.56131 0.0
C707 C 0.62861 0.89709 0.58475 0.0
C708 C 0.63179 0.91918 0.54982 0.0
N709 N 0.66481 0.94167 0.49435 0.0
N710 N 0.65551 0.85744 0.62946 0.0
C711 C 0.65532 0.91493 0.5228 0.0
C712 C 0.64969 0.87112 0.59239 0.0
N713 N 0.6817 0.87137 0.49465 0.0
N714 N 0.60533 0.90059 0.61049 0.0
H715 H 0.67294 0.84037 0.63659 0.0
H716 H 0.64643 0.86653 0.65361 0.0
H717 H 0.59041 0.92048 0.60678 0.0
H718 H 0.59923 0.88209 0.63417 0.0
H719 H 0.68203 0.88532 0.46752 0.0
H720 H 0.68887 0.84619 0.49448 0.0
H721 H 0.68398 0.94125 0.4756 0.0
H722 H 0.65619 0.96622 0.49236 0.0
C723 C 0.42577 0.206 0.44982 0.0
C724 C 0.42692 0.22995 0.48038 0.0
C725 C 0.44665 0.18541 0.52719 0.0
C726 C 0.44665 0.16187 0.49595 0.0
N727 N 0.45167 0.15998 0.42671 0.0
N728 N 0.44499 0.2467 0.54654 0.0
C729 C 0.44083 0.17521 0.45699 0.0
C730 C 0.43938 0.22096 0.51863 0.0
N731 N 0.40942 0.21189 0.41406 0.0
N732 N 0.45255 0.174 0.56498 0.0
H733 H 0.43947 0.27275 0.54118 0.0
H734 H 0.45775 0.24357 0.57391 0.0
H735 H 0.46182 0.15069 0.5732 0.0
H736 H 0.44698 0.1872 0.58854 0.0
H737 H 0.40501 0.1928 0.39221 0.0
H738 H 0.39713 0.23373 0.40746 0.0
H739 H 0.45062 0.17103 0.39822 0.0
H740 H 0.46614 0.13977 0.43075 0.0
C741 C 0.88672 0.43987 0.38306 0.0
C742 C 0.85551 0.42469 0.40202 0.0
C743 C 0.88868 0.44086 0.46495 0.0
C744 C 0.91846 0.46065 0.44586 0.0
N745 N 0.94291 0.48451 0.38509 0.0
N746 N 0.82545 0.41958 0.46071 0.0
C747 C 0.9168 0.4616 0.40441 0.0
C748 C 0.85615 0.42782 0.44291 0.0
N749 N 0.88821 0.43263 0.34505 0.0
N750 N 0.89164 0.43353 0.50427 0.0
H751 H 0.80089 0.41161 0.4454 0.0
H752 H 0.82421 0.42468 0.48982 0.0
H753 H 0.91546 0.44079 0.5212 0.0
H754 H 0.87154 0.41654 0.51917 0.0
H755 H 0.91136 0.43973 0.33101 0.0
H756 H 0.86711 0.41655 0.32862 0.0
H757 H 0.94105 0.48929 0.35499 0.0
H758 H 0.96503 0.5013 0.3992 0.0
C759 C 0.64161 0.88738 0.38442 0.0
C760 C 0.63763 0.85015 0.39887 0.0
C761 C 0.60177 0.86155 0.44902 0.0
C762 C 0.60241 0.89771 0.43207 0.0
N763 N 0.61793 0.9422 0.37881 0.0
N764 N 0.60868 0.79968 0.44022 0.0
C765 C 0.62116 0.91001 0.39856 0.0
C766 C 0.61604 0.83661 0.42967 0.0
N767 N 0.66536 0.90132 0.35764 0.0
N768 N 0.58943 0.85152 0.48484 0.0
H769 H 0.61894 0.78047 0.42715 0.0
H770 H 0.58987 0.78754 0.45942 0.0
H771 H 0.58043 0.86916 0.50149 0.0
H772 H 0.59218 0.82728 0.50033 0.0
H773 H 0.67234 0.92932 0.34922 0.0
H774 H 0.68019 0.88535 0.34612 0.0
H775 H 0.62803 0.95056 0.35201 0.0
H776 H 0.60223 0.95886 0.38714 0.0
C777 C 0.12873 0.62121 0.40578 0.0
C778 C 0.1375 0.61095 0.37001 0.0
C779 C 0.08824 0.55597 0.37381 0.0
C780 C 0.08895 0.5604 0.41471 0.0
N781 N 0.11395 0.59853 0.46966 0.0
N782 N 0.10919 0.58245 0.31143 0.0
C783 C 0.10993 0.59359 0.43067 0.0
C784 C 0.11235 0.58207 0.35115 0.0
N785 N 0.13263 0.65755 0.41317 0.0
N786 N 0.06482 0.52688 0.35687 0.0
H787 H 0.12389 0.60415 0.29494 0.0
H788 H 0.09015 0.56399 0.29494 0.0
H789 H 0.04446 0.50999 0.37153 0.0
H790 H 0.06561 0.51921 0.32857 0.0
H791 H 0.12424 0.66592 0.43822 0.0
H792 H 0.13846 0.67822 0.39127 0.0
H793 H 0.13119 0.62168 0.48177 0.0
H794 H 0.10336 0.57798 0.48967 0.0
C795 C 0.434 0.91331 0.63923 0.0
C796 C 0.439 0.87656 0.64115 0.0
C797 C 0.48914 0.897 0.60139 0.0
C798 C 0.48666 0.93463 0.60244 0.0
N799 N 0.45821 0.97905 0.62503 0.0
N800 N 0.4738 0.83404 0.62787 0.0
C801 C 0.45928 0.94288 0.62193 0.0
C802 C 0.46738 0.86874 0.6235 0.0
N803 N 0.40495 0.91979 0.65374 0.0
N804 N 0.51043 0.88748 0.57676 0.0
H805 H 0.45695 0.81137 0.64067 0.0
H806 H 0.49712 0.82819 0.62103 0.0
H807 H 0.52575 0.90661 0.55878 0.0
H808 H 0.51001 0.86027 0.57076 0.0
H809 H 0.39759 0.94495 0.65007 0.0
H810 H 0.38674 0.89899 0.66743 0.0
H811 H 0.44111 0.98753 0.64179 0.0
H812 H 0.47633 1.00109 0.61295 0.0
C813 C 0.16127 0.38769 0.64744 0.0
C814 C 0.15685 0.34945 0.64136 0.0
C815 C 0.10556 0.35248 0.59518 0.0
C816 C 0.10945 0.39037 0.60368 0.0
N817 N 0.12974 0.43471 0.6535 0.0
N818 N 0.11842 0.29327 0.61716 0.0
C819 C 0.13376 0.40498 0.6348 0.0
C820 C 0.12711 0.33107 0.61738 0.0
N821 N 0.19214 0.40819 0.66393 0.0
N822 N 0.08183 0.33674 0.56621 0.0
H823 H 0.13259 0.2768 0.63417 0.0
H824 H 0.09522 0.27822 0.60327 0.0
H825 H 0.06329 0.34973 0.552 0.0
H826 H 0.08129 0.31098 0.55563 0.0
H827 H 0.19669 0.4368 0.66633 0.0
H828 H 0.21436 0.39758 0.67071 0.0
H829 H 0.14582 0.44494 0.67805 0.0
H830 H 0.10743 0.44535 0.64756 0.0
C831 C 0.60752 0.1717 0.58474 0.0
C832 C 0.63036 0.16356 0.61661 0.0
C833 C 0.60022 0.0973 0.61453 0.0
C834 C 0.57817 0.10543 0.58185 0.0
N835 N 0.56534 0.14892 0.53108 0.0
N836 N 0.65223 0.11859 0.65872 0.0
C837 C 0.58325 0.14224 0.5656 0.0
C838 C 0.62787 0.12626 0.63053 0.0
N839 N 0.60822 0.2078 0.57349 0.0
N840 N 0.59389 0.06221 0.63101 0.0
H841 H 0.67212 0.1392 0.67154 0.0
H842 H 0.65426 0.09188 0.66765 0.0
H843 H 0.57457 0.04044 0.61925 0.0
H844 H 0.60629 0.05499 0.65729 0.0
H845 H 0.58936 0.21582 0.55387 0.0
H846 H 0.62625 0.23023 0.58586 0.0
H847 H 0.57067 0.17403 0.51512 0.0
H848 H 0.54709 0.12819 0.51656 0.0
C849 C 0.85938 0.62118 0.54435 0.0
C850 C 0.86498 0.6485 0.57212 0.0
C851 C 0.92359 0.63855 0.59138 0.0
C852 C 0.91765 0.61054 0.56351 0.0
N853 N 0.87151 0.56317 0.53214 0.0
N854 N 0.90341 0.68832 0.61776 0.0
C855 C 0.88336 0.59841 0.54466 0.0
C856 C 0.8976 0.65894 0.59417 0.0
N857 N 0.83038 0.61619 0.51846 0.0
N858 N 0.9517 0.64211 0.61852 0.0
H859 H 0.88444 0.70329 0.62025 0.0
H860 H 0.92767 0.69995 0.632 0.0
H861 H 0.96754 0.6231 0.62201 0.0
H862 H 0.9566 0.66033 0.64112 0.0
H863 H 0.8268 0.59876 0.49516 0.0
H864 H 0.81215 0.6326 0.51793 0.0
H865 H 0.84592 0.55301 0.52022 0.0
H866 H 0.88434 0.54204 0.53999 0.0
C867 C 0.37621 0.46097 0.1956 0.0
C868 C 0.38139 0.42835 0.21663 0.0
C869 C 0.42082 0.4199 0.16891 0.0
C870 C 0.41339 0.45074 0.1465 0.0
N871 N 0.37522 0.4927 0.13225 0.0
N872 N 0.39908 0.3704 0.21531 0.0
C873 C 0.38823 0.46881 0.15779 0.0
C874 C 0.40099 0.4059 0.20103 0.0
N875 N 0.36119 0.4852 0.2121 0.0
N876 N 0.44673 0.40389 0.15963 0.0
H877 H 0.38258 0.35795 0.23675 0.0
H878 H 0.41051 0.35195 0.20263 0.0
H879 H 0.46124 0.41266 0.13558 0.0
H880 H 0.45558 0.38384 0.17759 0.0
H881 H 0.35902 0.51056 0.19875 0.0
H882 H 0.35413 0.48179 0.2407 0.0
H883 H 0.35483 0.50453 0.1381 0.0
H884 H 0.38215 0.49733 0.10365 0.0
C885 C 0.40586 0.57221 0.86386 0.0
C886 C 0.40556 0.60967 0.86972 0.0
C887 C 0.45179 0.61086 0.92358 0.0
C888 C 0.45061 0.57304 0.91832 0.0
N889 N 0.41708 0.51517 0.89388 0.0
N890 N 0.42146 0.66086 0.91273 0.0
C891 C 0.42442 0.55293 0.8919 0.0
C892 C 0.42644 0.62788 0.90201 0.0
N893 N 0.3907 0.55557 0.83029 0.0
N894 N 0.47776 0.63089 0.94793 0.0
H895 H 0.4023 0.6733 0.89862 0.0
H896 H 0.43375 0.67381 0.93791 0.0
H897 H 0.49593 0.61901 0.96489 0.0
H898 H 0.48243 0.65955 0.94953 0.0
H899 H 0.3932 0.52944 0.8235 0.0
H900 H 0.37923 0.56927 0.80728 0.0
H901 H 0.39632 0.49881 0.87724 0.0
H902 H 0.42927 0.50059 0.91555 0.0
C903 C 0.40662 0.37209 0.91145 0.0
C904 C 0.40509 0.37658 0.87025 0.0
C905 C 0.44697 0.43679 0.87551 0.0
C906 C 0.45223 0.43033 0.91657 0.0
N907 N 0.43968 0.38921 0.97314 0.0
N908 N 0.42563 0.41167 0.81244 0.0
C909 C 0.43236 0.39751 0.93459 0.0
C910 C 0.4256 0.40863 0.85217 0.0
N911 N 0.38344 0.34347 0.9284 0.0
N912 N 0.46196 0.47038 0.85875 0.0
H913 H 0.40919 0.39265 0.79396 0.0
H914 H 0.44366 0.43165 0.79767 0.0
H915 H 0.47796 0.4917 0.87456 0.0
H916 H 0.45577 0.47858 0.83009 0.0
H917 H 0.38056 0.34074 0.95819 0.0
H918 H 0.36499 0.324 0.9122 0.0
H919 H 0.42903 0.36379 0.9868 0.0
H920 H 0.45852 0.40651 0.99108 0.0
C921 C 0.65332 0.39406 0.88904 0.0
C922 C 0.66152 0.40843 0.851 0.0
C923 C 0.64486 0.46567 0.86491 0.0
C924 C 0.63047 0.44857 0.89936 0.0
N925 N 0.62118 0.39659 0.9453 0.0
N926 N 0.66175 0.45712 0.8011 0.0
C927 C 0.63515 0.41288 0.91196 0.0
C928 C 0.6569 0.44431 0.83865 0.0
N929 N 0.66342 0.36277 0.90339 0.0
N930 N 0.64679 0.50243 0.8573 0.0
H931 H 0.6695 0.44208 0.78044 0.0
H932 H 0.65505 0.48125 0.78939 0.0
H933 H 0.63915 0.51828 0.87715 0.0
H934 H 0.6595 0.51765 0.83427 0.0
H935 H 0.66104 0.35263 0.93205 0.0
H936 H 0.67711 0.34871 0.88751 0.0
H937 H 0.61966 0.36892 0.9538 0.0
H938 H 0.60978 0.4107 0.96379 0.0
C939 C 0.58467 0.55962 0.76846 0.0
C940 C 0.61549 0.58831 0.7675 0.0
C941 C 0.62419 0.58436 0.83858 0.0
C942 C 0.59081 0.55915 0.83985 0.0
N943 N 0.53549 0.53032 0.80508 0.0
N944 N 0.66181 0.63264 0.80158 0.0
C945 C 0.57006 0.54838 0.80457 0.0
C946 C 0.63459 0.60193 0.80254 0.0
N947 N 0.56926 0.54322 0.73488 0.0
N948 N 0.64646 0.59085 0.87159 0.0
H949 H 0.67039 0.64657 0.77584 0.0
H950 H 0.67388 0.64633 0.82643 0.0
H951 H 0.6405 0.57784 0.89856 0.0
H952 H 0.67244 0.60587 0.87141 0.0
H953 H 0.54875 0.51958 0.73449 0.0
H954 H 0.57915 0.55118 0.70783 0.0
H955 H 0.51858 0.52513 0.77994 0.0
H956 H 0.52239 0.5245 0.83037 0.0
C957 C 0.59053 0.64598 0.10904 0.0
C958 C 0.61982 0.63745 0.13173 0.0
C959 C 0.60686 0.57691 0.10244 0.0
C960 C 0.57341 0.58206 0.08774 0.0
N961 N 0.53359 0.62273 0.075 0.0
N962 N 0.66659 0.6096 0.11829 0.0
C963 C 0.56546 0.61717 0.08987 0.0
C964 C 0.6316 0.60685 0.12002 0.0
N965 N 0.58925 0.68213 0.10178 0.0
N966 N 0.61521 0.54363 0.09969 0.0
H967 H 0.6848 0.63489 0.12193 0.0
H968 H 0.67652 0.58919 0.10699 0.0
H969 H 0.59809 0.52134 0.08604 0.0
H970 H 0.63823 0.53778 0.11327 0.0
H971 H 0.5703 0.69048 0.08251 0.0
H972 H 0.60997 0.70374 0.11137 0.0
H973 H 0.52507 0.64642 0.07986 0.0
H974 H 0.51471 0.60263 0.06008 0.0
C975 C 0.4109 0.58303 0.20499 0.0
C976 C 0.39697 0.61337 0.1899 0.0
C977 C 0.41388 0.6053 0.12453 0.0
C978 C 0.42993 0.57639 0.14013 0.0
N979 N 0.44488 0.53825 0.1955 0.0
N980 N 0.38549 0.65468 0.13649 0.0
C981 C 0.42868 0.5654 0.18045 0.0
C982 C 0.39824 0.6246 0.14986 0.0
N983 N 0.40646 0.57062 0.24279 0.0
N984 N 0.4142 0.61482 0.08561 0.0
H985 H 0.37253 0.66829 0.15376 0.0
H986 H 0.38877 0.66738 0.10897 0.0
H987 H 0.42836 0.60437 0.06681 0.0
H988 H 0.3996 0.63227 0.07122 0.0
H989 H 0.41209 0.54612 0.25478 0.0
H990 H 0.39483 0.5836 0.26206 0.0
H991 H 0.44957 0.53251 0.22512 0.0
H992 H 0.4547 0.52157 0.17845 0.0
C993 C 0.61931 0.43127 0.10062 0.0
C994 C 0.60881 0.41286 0.13661 0.0
C995 C 0.5476 0.40344 0.10996 0.0
C996 C 0.55697 0.42954 0.07863 0.0
N997 N 0.60364 0.4623 0.03972 0.0
N998 N 0.56115 0.38881 0.17761 0.0
C999 C 0.59349 0.44188 0.07264 0.0
C1000 C 0.57243 0.40121 0.14186 0.0
N1001 N 0.65347 0.43669 0.09216 0.0
N1002 N 0.51561 0.37897 0.10839 0.0
H1003 H 0.57827 0.38886 0.20259 0.0
H1004 H 0.53466 0.38262 0.18294 0.0
H1005 H 0.49859 0.37603 0.08312 0.0
H1006 H 0.50863 0.3581 0.12981 0.0
H1007 H 0.66236 0.44658 0.06516 0.0
H1008 H 0.6726 0.42837 0.1112 0.0
H1009 H 0.62925 0.47738 0.03658 0.0
H1010 H 0.58651 0.46325 0.015 0.0
loop_
_geom_bond_atom_site_label_1
_geom_bond_atom_site_label_2
_geom_bond_distance
_geom_bond_site_symmetry_2
_ccdc_geom_bond_type
C0 C1 1.391 . S
C0 C4 1.391 . S
C0 H42 0.948 . S
C1 C0 1.391 . S
C1 C2 1.391 . S
C2 C1 1.391 . S
C2 H58 0.947 . S
C2 C59 1.392 . S
C3 C4 1.391 . S
C3 C7 1.397 . S
C3 C59 1.419 . S
C4 C0 1.391 . S
C4 C3 1.391 . S
C4 C5 1.399 . S
C5 C4 1.399 . S
C5 C8 1.396 . S
C5 C17 1.453 . S
C5 C18 1.684 . S
H6 C30 0.948 . S
C7 C3 1.397 . S
C7 C8 1.394 . S
C7 C26 1.723 . S
C8 C5 1.396 . S
C8 C7 1.394 . S
C8 C38 1.723 . S
H9 C32 0.947 . S
H10 C33 0.948 . S
H11 C39 0.982 . S
H12 C40 0.979 . S
H13 C40 0.980 . S
H14 C40 0.983 . S
H15 C39 0.979 . S
H16 C39 0.977 . S
C17 C5 1.453 . S
C17 H46 0.982 . S
C17 H47 0.979 . S
C17 H48 0.977 . S
C18 C5 1.684 . S
C18 H43 0.979 . S
C18 H44 0.980 . S
C18 H45 0.983 . S
C19 C20 1.391 . S
C19 C24 1.391 . S
C19 H49 0.948 . S
C20 C19 1.391 . S
C20 C21 1.391 . S
C21 C20 1.391 . S
C21 C22 1.392 . S
C21 H50 0.947 . S
C22 C21 1.392 . S
C22 C23 1.419 . S
C22 H51 0.948 . S
C23 C22 1.419 . S
C23 C24 1.391 . S
C23 C27 1.397 . S
C24 C19 1.391 . S
C24 C23 1.391 . S
C24 C25 1.399 . S
C25 C24 1.399 . S
C25 C26 1.396 . S
C25 C28 1.453 . S
C25 C29 1.684 . S
C26 C7 1.723 . S
C26 C25 1.396 . S
C26 C27 1.394 . S
C27 C23 1.397 . S
C27 C26 1.394 . S
C27 C37 1.723 . S
C28 C25 1.453 . S
C28 H52 0.982 . S
C28 H53 0.979 . S
C28 H54 0.977 . S
C29 C25 1.684 . S
C29 H55 0.979 . S
C29 H56 0.980 . S
C29 H57 0.983 . S
C30 H6 0.948 . S
C30 C31 1.391 . S
C30 C35 1.391 . S
C31 C30 1.391 . S
C31 C32 1.391 . S
C32 H9 0.947 . S
C32 C31 1.391 . S
C32 C33 1.392 . S
C33 H10 0.948 . S
C33 C32 1.392 . S
C33 C34 1.419 . S
C34 C33 1.419 . S
C34 C35 1.391 . S
C34 C38 1.397 . S
C35 C30 1.391 . S
C35 C34 1.391 . S
C35 C36 1.399 . S
C36 C35 1.399 . S
C36 C37 1.396 . S
C36 C39 1.453 . S
C36 C40 1.684 . S
C37 C27 1.723 . S
C37 C36 1.396 . S
C37 C38 1.394 . S
C38 C8 1.723 . S
C38 C34 1.397 . S
C38 C37 1.394 . S
C39 H11 0.982 . S
C39 H15 0.979 . S
C39 H16 0.977 . S
C39 C36 1.453 . S
C40 H12 0.979 . S
C40 H13 0.980 . S
C40 H14 0.983 . S
C40 C36 1.684 . S
H41 C59 0.948 . S
H42 C0 0.948 . S
H43 C18 0.979 . S
H44 C18 0.980 . S
H45 C18 0.983 . S
H46 C17 0.982 . S
H47 C17 0.979 . S
H48 C17 0.977 . S
H49 C19 0.948 . S
H50 C21 0.947 . S
H51 C22 0.948 . S
H52 C28 0.982 . S
H53 C28 0.979 . S
H54 C28 0.977 . S
H55 C29 0.979 . S
H56 C29 0.980 . S
H57 C29 0.983 . S
H58 C2 0.947 . S
C59 C2 1.392 . S
C59 C3 1.419 . S
C59 H41 0.948 . S
C60 C61 1.391 . S
C60 C64 1.391 . S
C60 H102 0.948 . S
C61 C60 1.391 . S
C61 C62 1.391 . S
C62 C61 1.391 . S
C62 H118 0.947 . S
C62 C119 1.392 . S
C63 C64 1.391 . S
C63 C67 1.397 . S
C63 C119 1.419 . S
C64 C60 1.391 . S
C64 C63 1.391 . S
C64 C65 1.399 . S
C65 C64 1.399 . S
C65 C68 1.396 . S
C65 C77 1.453 . S
C65 C78 1.684 . S
H66 C90 0.948 . S
C67 C63 1.397 . S
C67 C68 1.394 . S
C67 C86 1.723 . S
C68 C65 1.396 . S
C68 C67 1.394 . S
C68 C98 1.723 . S
H69 C92 0.947 . S
H70 C93 0.948 . S
H71 C99 0.982 . S
H72 C100 0.979 . S
H73 C100 0.980 . S
H74 C100 0.983 . S
H75 C99 0.979 . S
H76 C99 0.977 . S
C77 C65 1.453 . S
C77 H106 0.982 . S
C77 H107 0.979 . S
C77 H108 0.977 . S
C78 C65 1.684 . S
C78 H103 0.979 . S
C78 H104 0.980 . S
C78 H105 0.983 . S
C79 C80 1.391 . S
C79 C84 1.391 . S
C79 H109 0.948 . S
C80 C79 1.391 . S
C80 C81 1.391 . S
C81 C80 1.391 . S
C81 C82 1.392 . S
C81 H110 0.947 . S
C82 C81 1.392 . S
C82 C83 1.419 . S
C82 H111 0.948 . S
C83 C82 1.419 . S
C83 C84 1.391 . S
C83 C87 1.397 . S
C84 C79 1.391 . S
C84 C83 1.391 . S
C84 C85 1.399 . S
C85 C84 1.399 . S
C85 C86 1.396 . S
C85 C88 1.453 . S
C85 C89 1.684 . S
C86 C67 1.723 . S
C86 C85 1.396 . S
C86 C87 1.394 . S
C87 C83 1.397 . S
C87 C86 1.394 . S
C87 C97 1.723 . S
C88 C85 1.453 . S
C88 H112 0.982 . S
C88 H113 0.979 . S
C88 H114 0.977 . S
C89 C85 1.684 . S
C89 H115 0.979 . S
C89 H116 0.980 . S
C89 H117 0.983 . S
C90 H66 0.948 . S
C90 C91 1.391 . S
C90 C95 1.391 . S
C91 C90 1.391 . S
C91 C92 1.391 . S
C92 H69 0.947 . S
C92 C91 1.391 . S
C92 C93 1.392 . S
C93 H70 0.948 . S
C93 C92 1.392 . S
C93 C94 1.419 . S
C94 C93 1.419 . S
C94 C95 1.391 . S
C94 C98 1.397 . S
C95 C90 1.391 . S
C95 C94 1.391 . S
C95 C96 1.399 . S
C96 C95 1.399 . S
C96 C97 1.396 . S
C96 C99 1.453 . S
C96 C100 1.684 . S
C97 C87 1.723 . S
C97 C96 1.396 . S
C97 C98 1.394 . S
C98 C68 1.723 . S
C98 C94 1.397 . S
C98 C97 1.394 . S
C99 H71 0.982 . S
C99 H75 0.979 . S
C99 H76 0.977 . S
C99 C96 1.453 . S
C100 H72 0.979 . S
C100 H73 0.980 . S
C100 H74 0.983 . S
C100 C96 1.684 . S
H101 C119 0.948 . S
H102 C60 0.948 . S
H103 C78 0.979 . S
H104 C78 0.980 . S
H105 C78 0.983 . S
H106 C77 0.982 . S
H107 C77 0.979 . S
H108 C77 0.977 . S
H109 C79 0.948 . S
H110 C81 0.947 . S
H111 C82 0.948 . S
H112 C88 0.982 . S
H113 C88 0.979 . S
H114 C88 0.977 . S
H115 C89 0.979 . S
H116 C89 0.980 . S
H117 C89 0.983 . S
H118 C62 0.947 . S
C119 C62 1.392 . S
C119 C63 1.419 . S
C119 H101 0.948 . S
C120 C121 1.391 . S
C120 C124 1.391 . S
C120 H162 0.948 . S
C121 C120 1.391 . S
C121 C122 1.391 . S
C122 C121 1.391 . S
C122 H178 0.947 . S
C122 C179 1.392 . S
C123 C124 1.391 . S
C123 C127 1.397 . S
C123 C179 1.419 . S
C124 C120 1.391 . S
C124 C123 1.391 . S
C124 C125 1.399 . S
C125 C124 1.399 . S
C125 C128 1.396 . S
C125 C137 1.453 . S
C125 C138 1.684 . S
H126 C150 0.948 . S
C127 C123 1.397 . S
C127 C128 1.394 . S
C127 C146 1.723 . S
C128 C125 1.396 . S
C128 C127 1.394 . S
C128 C158 1.723 . S
H129 C152 0.947 . S
H130 C153 0.948 . S
H131 C159 0.982 . S
H132 C160 0.979 . S
H133 C160 0.980 . S
H134 C160 0.983 . S
H135 C159 0.979 . S
H136 C159 0.977 . S
C137 C125 1.453 . S
C137 H166 0.982 . S
C137 H167 0.979 . S
C137 H168 0.977 . S
C138 C125 1.684 . S
C138 H163 0.979 . S
C138 H164 0.980 . S
C138 H165 0.983 . S
C139 C140 1.391 . S
C139 C144 1.391 . S
C139 H169 0.948 . S
C140 C139 1.391 . S
C140 C141 1.391 . S
C141 C140 1.391 . S
C141 C142 1.392 . S
C141 H170 0.947 . S
C142 C141 1.392 . S
C142 C143 1.419 . S
C142 H171 0.948 . S
C143 C142 1.419 . S
C143 C144 1.391 . S
C143 C147 1.397 . S
C144 C139 1.391 . S
C144 C143 1.391 . S
C144 C145 1.399 . S
C145 C144 1.399 . S
C145 C146 1.396 . S
C145 C148 1.453 . S
C145 C149 1.684 . S
C146 C127 1.723 . S
C146 C145 1.396 . S
C146 C147 1.394 . S
C147 C143 1.397 . S
C147 C146 1.394 . S
C147 C157 1.723 . S
C148 C145 1.453 . S
C148 H172 0.982 . S
C148 H173 0.979 . S
C148 H174 0.977 . S
C149 C145 1.684 . S
C149 H175 0.979 . S
C149 H176 0.980 . S
C149 H177 0.983 . S
C150 H126 0.948 . S
C150 C151 1.391 . S
C150 C155 1.391 . S
C151 C150 1.391 . S
C151 C152 1.391 . S
C152 H129 0.947 . S
C152 C151 1.391 . S
C152 C153 1.392 . S
C153 H130 0.948 . S
C153 C152 1.392 . S
C153 C154 1.419 . S
C154 C153 1.419 . S
C154 C155 1.391 . S
C154 C158 1.397 . S
C155 C150 1.391 . S
C155 C154 1.391 . S
C155 C156 1.399 . S
C156 C155 1.399 . S
C156 C157 1.396 . S
C156 C159 1.453 . S
C156 C160 1.684 . S
C157 C147 1.723 . S
C157 C156 1.396 . S
C157 C158 1.394 . S
C158 C128 1.723 . S
C158 C154 1.397 . S
C158 C157 1.394 . S
C159 H131 0.982 . S
C159 H135 0.979 . S
C159 H136 0.977 . S
C159 C156 1.453 . S
C160 H132 0.979 . S
C160 H133 0.980 . S
C160 H134 0.983 . S
C160 C156 1.684 . S
H161 C179 0.948 . S
H162 C120 0.948 . S
H163 C138 0.979 . S
H164 C138 0.980 . S
H165 C138 0.983 . S
H166 C137 0.982 . S
H167 C137 0.979 . S
H168 C137 0.977 . S
H169 C139 0.948 . S
H170 C141 0.947 . S
H171 C142 0.948 . S
H172 C148 0.982 . S
H173 C148 0.979 . S
H174 C148 0.977 . S
H175 C149 0.979 . S
H176 C149 0.980 . S
H177 C149 0.983 . S
H178 C122 0.947 . S
C179 C122 1.392 . S
C179 C123 1.419 . S
C179 H161 0.948 . S
C180 C181 1.391 . S
C180 C184 1.391 . S
C180 H222 0.948 . S
C181 C180 1.391 . S
C181 C182 1.391 . S
C182 C181 1.391 . S
C182 H238 0.947 . S
C182 C239 1.392 . S
C183 C184 1.391 . S
C183 C187 1.397 . S
C183 C239 1.419 . S
C184 C180 1.391 . S
C184 C183 1.391 . S
C184 C185 1.399 . S
C185 C184 1.399 . S
C185 C188 1.396 . S
C185 C197 1.453 . S
C185 C198 1.684 . S
H186 C210 0.948 . S
C187 C183 1.397 . S
C187 C188 1.394 . S
C187 C206 1.723 . S
C188 C185 1.396 . S
C188 C187 1.394 . S
C188 C218 1.723 . S
H189 C212 0.947 . S
H190 C213 0.948 . S
H191 C219 0.982 . S
H192 C220 0.979 . S
H193 C220 0.980 . S
H194 C220 0.983 . S
H195 C219 0.979 . S
H196 C219 0.977 . S
C197 C185 1.453 . S
C197 H226 0.982 . S
C197 H227 0.979 . S
C197 H228 0.977 . S
C198 C185 1.684 . S
C198 H223 0.979 . S
C198 H224 0.980 . S
C198 H225 0.983 . S
C199 C200 1.391 . S
C199 C204 1.391 . S
C199 H229 0.948 . S
C200 C199 1.391 . S
C200 C201 1.391 . S
C201 C200 1.391 . S
C201 C202 1.392 . S
C201 H230 0.947 . S
C202 C201 1.392 . S
C202 C203 1.419 . S
C202 H231 0.948 . S
C203 C202 1.419 . S
C203 C204 1.391 . S
C203 C207 1.397 . S
C204 C199 1.391 . S
C204 C203 1.391 . S
C204 C205 1.399 . S
C205 C204 1.399 . S
C205 C206 1.396 . S
C205 C208 1.453 . S
C205 C209 1.684 . S
C206 C187 1.723 . S
C206 C205 1.396 . S
C206 C207 1.394 . S
C207 C203 1.397 . S
C207 C206 1.394 . S
C207 C217 1.723 . S
C208 C205 1.453 . S
C208 H232 0.982 . S
C208 H233 0.979 . S
C208 H234 0.977 . S
C209 C205 1.684 . S
C209 H235 0.979 . S
C209 H236 0.980 . S
C209 H237 0.983 . S
C210 H186 0.948 . S
C210 C211 1.391 . S
C210 C215 1.391 . S
C211 C210 1.391 . S
C211 C212 1.391 . S
C212 H189 0.947 . S
C212 C211 1.391 . S
C212 C213 1.392 . S
C213 H190 0.948 . S
C213 C212 1.392 . S
C213 C214 1.419 . S
C214 C213 1.419 . S
C214 C215 1.391 . S
C214 C218 1.397 . S
C215 C210 1.391 . S
C215 C214 1.391 . S
C215 C216 1.399 . S
C216 C215 1.399 . S
C216 C217 1.396 . S
C216 C219 1.453 . S
C216 C220 1.684 . S
C217 C207 1.723 . S
C217 C216 1.396 . S
C217 C218 1.394 . S
C218 C188 1.723 . S
C218 C214 1.397 . S
C218 C217 1.394 . S
C219 H191 0.982 . S
C219 H195 0.979 . S
C219 H196 0.977 . S
C219 C216 1.453 . S
C220 H192 0.979 . S
C220 H193 0.980 . S
C220 H194 0.983 . S
C220 C216 1.684 . S
H221 C239 0.948 . S
H222 C180 0.948 . S
H223 C198 0.979 . S
H224 C198 0.980 . S
H225 C198 0.983 . S
H226 C197 0.982 . S
H227 C197 0.979 . S
H228 C197 0.977 . S
H229 C199 0.948 . S
H230 C201 0.947 . S
H231 C202 0.948 . S
H232 C208 0.982 . S
H233 C208 0.979 . S
H234 C208 0.977 . S
H235 C209 0.979 . S
H236 C209 0.980 . S
H237 C209 0.983 . S
H238 C182 0.947 . S
C239 C182 1.392 . S
C239 C183 1.419 . S
C239 H221 0.948 . S
C240 C241 1.391 . S
C240 C244 1.391 . S
C240 H282 0.948 . S
C241 C240 1.391 . S
C241 C242 1.391 . S
C242 C241 1.391 . S
C242 H298 0.947 . S
C242 C299 1.392 . S
C243 C244 1.391 . S
C243 C247 1.397 . S
C243 C299 1.419 . S
C244 C240 1.391 . S
C244 C243 1.391 . S
C244 C245 1.399 . S
C245 C244 1.399 . S
C245 C248 1.396 . S
C245 C257 1.453 . S
C245 C258 1.684 . S
H246 C270 0.948 . S
C247 C243 1.397 . S
C247 C248 1.394 . S
C247 C266 1.723 . S
C248 C245 1.396 . S
C248 C247 1.394 . S
C248 C278 1.723 . S
H249 C272 0.947 . S
H250 C273 0.948 . S
H251 C279 0.982 . S
H252 C280 0.979 . S
H253 C280 0.980 . S
H254 C280 0.983 . S
H255 C279 0.979 . S
H256 C279 0.977 . S
C257 C245 1.453 . S
C257 H286 0.982 . S
C257 H287 0.979 . S
C257 H288 0.977 . S
C258 C245 1.684 . S
C258 H283 0.979 . S
C258 H284 0.980 . S
C258 H285 0.983 . S
C259 C260 1.391 . S
C259 C264 1.391 . S
C259 H289 0.948 . S
C260 C259 1.391 . S
C260 C261 1.391 . S
C261 C260 1.391 . S
C261 C262 1.392 . S
C261 H290 0.947 . S
C262 C261 1.392 . S
C262 C263 1.419 . S
C262 H291 0.948 . S
C263 C262 1.419 . S
C263 C264 1.391 . S
C263 C267 1.397 . S
C264 C259 1.391 . S
C264 C263 1.391 . S
C264 C265 1.399 . S
C265 C264 1.399 . S
C265 C266 1.396 . S
C265 C268 1.453 . S
C265 C269 1.684 . S
C266 C247 1.723 . S
C266 C265 1.396 . S
C266 C267 1.394 . S
C267 C263 1.397 . S
C267 C266 1.394 . S
C267 C277 1.723 . S
C268 C265 1.453 . S
C268 H292 0.982 . S
C268 H293 0.979 . S
C268 H294 0.977 . S
C269 C265 1.684 . S
C269 H295 0.979 . S
C269 H296 0.980 . S
C269 H297 0.983 . S
C270 H246 0.948 . S
C270 C271 1.391 . S
C270 C275 1.391 . S
C271 C270 1.391 . S
C271 C272 1.391 . S
C272 H249 0.947 . S
C272 C271 1.391 . S
C272 C273 1.392 . S
C273 H250 0.948 . S
C273 C272 1.392 . S
C273 C274 1.419 . S
C274 C273 1.419 . S
C274 C275 1.391 . S
C274 C278 1.397 . S
C275 C270 1.391 . S
C275 C274 1.391 . S
C275 C276 1.399 . S
C276 C275 1.399 . S
C276 C277 1.396 . S
C276 C279 1.453 . S
C276 C280 1.684 . S
C277 C267 1.723 . S
C277 C276 1.396 . S
C277 C278 1.394 . S
C278 C248 1.723 . S
C278 C274 1.397 . S
C278 C277 1.394 . S
C279 H251 0.982 . S
C279 H255 0.979 . S
C279 H256 0.977 . S
C279 C276 1.453 . S
C280 H252 0.979 . S
C280 H253 0.980 . S
C280 H254 0.983 . S
C280 C276 1.684 . S
H281 C299 0.948 . S
H282 C240 0.948 . S
H283 C258 0.979 . S
H284 C258 0.980 . S
H285 C258 0.983 . S
H286 C257 0.982 . S
H287 C257 0.979 . S
H288 C257 0.977 . S
H289 C259 0.948 . S
H290 C261 0.947 . S
H291 C262 0.948 . S
H292 C268 0.982 . S
H293 C268 0.979 . S
H294 C268 0.977 . S
H295 C269 0.979 . S
H296 C269 0.980 . S
H297 C269 0.983 . S
H298 C242 0.947 . S
C299 C242 1.392 . S
C299 C243 1.419 . S
C299 H281 0.948 . S
C300 C301 1.391 . S
C300 C304 1.391 . S
C300 H342 0.948 . S
C301 C300 1.391 . S
C301 C302 1.391 . S
C302 C301 1.391 . S
C302 H358 0.947 . S
C302 C359 1.392 . S
C303 C304 1.391 . S
C303 C307 1.397 . S
C303 C359 1.419 . S
C304 C300 1.391 . S
C304 C303 1.391 . S
C304 C305 1.399 . S
C305 C304 1.399 . S
C305 C308 1.396 . S
C305 C317 1.453 . S
C305 C318 1.684 . S
H306 C330 0.948 . S
C307 C303 1.397 . S
C307 C308 1.394 . S
C307 C326 1.723 . S
C308 C305 1.396 . S
C308 C307 1.394 . S
C308 C338 1.723 . S
H309 C332 0.947 . S
H310 C333 0.948 . S
H311 C339 0.982 . S
H312 C340 0.979 . S
H313 C340 0.980 . S
H314 C340 0.983 . S
H315 C339 0.979 . S
H316 C339 0.977 . S
C317 C305 1.453 . S
C317 H346 0.982 . S
C317 H347 0.979 . S
C317 H348 0.977 . S
C318 C305 1.684 . S
C318 H343 0.979 . S
C318 H344 0.980 . S
C318 H345 0.983 . S
C319 C320 1.391 . S
C319 C324 1.391 . S
C319 H349 0.948 . S
C320 C319 1.391 . S
C320 C321 1.391 . S
C321 C320 1.391 . S
C321 C322 1.392 . S
C321 H350 0.947 . S
C322 C321 1.392 . S
C322 C323 1.419 . S
C322 H351 0.948 . S
C323 C322 1.419 . S
C323 C324 1.391 . S
C323 C327 1.397 . S
C324 C319 1.391 . S
C324 C323 1.391 . S
C324 C325 1.399 . S
C325 C324 1.399 . S
C325 C326 1.396 . S
C325 C328 1.453 . S
C325 C329 1.684 . S
C326 C307 1.723 . S
C326 C325 1.396 . S
C326 C327 1.394 . S
C327 C323 1.397 . S
C327 C326 1.394 . S
C327 C337 1.723 . S
C328 C325 1.453 . S
C328 H352 0.982 . S
C328 H353 0.979 . S
C328 H354 0.977 . S
C329 C325 1.684 . S
C329 H355 0.979 . S
C329 H356 0.980 . S
C329 H357 0.983 . S
C330 H306 0.948 . S
C330 C331 1.391 . S
C330 C335 1.391 . S
C331 C330 1.391 . S
C331 C332 1.391 . S
C332 H309 0.947 . S
C332 C331 1.391 . S
C332 C333 1.392 . S
C333 H310 0.948 . S
C333 C332 1.392 . S
C333 C334 1.419 . S
C334 C333 1.419 . S
C334 C335 1.391 . S
C334 C338 1.397 . S
C335 C330 1.391 . S
C335 C334 1.391 . S
C335 C336 1.399 . S
C336 C335 1.399 . S
C336 C337 1.396 . S
C336 C339 1.453 . S
C336 C340 1.684 . S
C337 C327 1.723 . S
C337 C336 1.396 . S
C337 C338 1.394 . S
C338 C308 1.723 . S
C338 C334 1.397 . S
C338 C337 1.394 . S
C339 H311 0.982 . S
C339 H315 0.979 . S
C339 H316 0.977 . S
C339 C336 1.453 . S
C340 H312 0.979 . S
C340 H313 0.980 . S
C340 H314 0.983 . S
C340 C336 1.684 . S
H341 C359 0.948 . S
H342 C300 0.948 . S
H343 C318 0.979 . S
H344 C318 0.980 . S
H345 C318 0.983 . S
H346 C317 0.982 . S
H347 C317 0.979 . S
H348 C317 0.977 . S
H349 C319 0.948 . S
H350 C321 0.947 . S
H351 C322 0.948 . S
H352 C328 0.982 . S
H353 C328 0.979 . S
H354 C328 0.977 . S
H355 C329 0.979 . S
H356 C329 0.980 . S
H357 C329 0.983 . S
H358 C302 0.947 . S
C359 C302 1.392 . S
C359 C303 1.419 . S
C359 H341 0.948 . S
C360 C361 1.391 . S
C360 C364 1.391 . S
C360 H402 0.948 . S
C361 C360 1.391 . S
C361 C362 1.391 . S
C362 C361 1.391 . S
C362 H418 0.947 . S
C362 C419 1.392 . S
C363 C364 1.391 . S
C363 C367 1.397 . S
C363 C419 1.419 . S
C364 C360 1.391 . S
C364 C363 1.391 . S
C364 C365 1.399 . S
C365 C364 1.399 . S
C365 C368 1.396 . S
C365 C377 1.453 . S
C365 C378 1.684 . S
H366 C390 0.948 . S
C367 C363 1.397 . S
C367 C368 1.394 . S
C367 C386 1.723 . S
C368 C365 1.396 . S
C368 C367 1.394 . S
C368 C398 1.723 . S
H369 C392 0.947 . S
H370 C393 0.948 . S
H371 C399 0.982 . S
H372 C400 0.979 . S
H373 C400 0.980 . S
H374 C400 0.983 . S
H375 C399 0.979 . S
H376 C399 0.977 . S
C377 C365 1.453 . S
C377 H406 0.982 . S
C377 H407 0.979 . S
C377 H408 0.977 . S
C378 C365 1.684 . S
C378 H403 0.979 . S
C378 H404 0.980 . S
C378 H405 0.983 . S
C379 C380 1.391 . S
C379 C384 1.391 . S
C379 H409 0.948 . S
C380 C379 1.391 . S
C380 C381 1.391 . S
C381 C380 1.391 . S
C381 C382 1.392 . S
C381 H410 0.947 . S
C382 C381 1.392 . S
C382 C383 1.419 . S
C382 H411 0.948 . S
C383 C382 1.419 . S
C383 C384 1.391 . S
C383 C387 1.397 . S
C384 C379 1.391 . S
C384 C383 1.391 . S
C384 C385 1.399 . S
C385 C384 1.399 . S
C385 C386 1.396 . S
C385 C388 1.453 . S
C385 C389 1.684 . S
C386 C367 1.723 . S
C386 C385 1.396 . S
C386 C387 1.394 . S
C387 C383 1.397 . S
C387 C386 1.394 . S
C387 C397 1.723 . S
C388 C385 1.453 . S
C388 H412 0.982 . S
C388 H413 0.979 . S
C388 H414 0.977 . S
C389 C385 1.684 . S
C389 H415 0.979 . S
C389 H416 0.980 . S
C389 H417 0.983 . S
C390 H366 0.948 . S
C390 C391 1.391 . S
C390 C395 1.391 . S
C391 C390 1.391 . S
C391 C392 1.391 . S
C392 H369 0.947 . S
C392 C391 1.391 . S
C392 C393 1.392 . S
C393 H370 0.948 . S
C393 C392 1.392 . S
C393 C394 1.419 . S
C394 C393 1.419 . S
C394 C395 1.391 . S
C394 C398 1.397 . S
C395 C390 1.391 . S
C395 C394 1.391 . S
C395 C396 1.399 . S
C396 C395 1.399 . S
C396 C397 1.396 . S
C396 C399 1.453 . S
C396 C400 1.684 . S
C397 C387 1.723 . S
C397 C396 1.396 . S
C397 C398 1.394 . S
C398 C368 1.723 . S
C398 C394 1.397 . S
C398 C397 1.394 . S
C399 H371 0.982 . S
C399 H375 0.979 . S
C399 H376 0.977 . S
C399 C396 1.453 . S
C400 H372 0.979 . S
C400 H373 0.980 . S
C400 H374 0.983 . S
C400 C396 1.684 . S
H401 C419 0.948 . S
H402 C360 0.948 . S
H403 C378 0.979 . S
H404 C378 0.980 . S
H405 C378 0.983 . S
H406 C377 0.982 . S
H407 C377 0.979 . S
H408 C377 0.977 . S
H409 C379 0.948 . S
H410 C381 0.947 . S
H411 C382 0.948 . S
H412 C388 0.982 . S
H413 C388 0.979 . S
H414 C388 0.977 . S
H415 C389 0.979 . S
H416 C389 0.980 . S
H417 C389 0.983 . S
H418 C362 0.947 . S
C419 C362 1.392 . S
C419 C363 1.419 . S
C419 H401 0.948 . S
C420 C421 1.391 . S
C420 C424 1.391 . S
C420 H462 0.948 . S
C421 C420 1.391 . S
C421 C422 1.391 . S
C422 C421 1.391 . S
C422 H478 0.947 . S
C422 C479 1.392 . S
C423 C424 1.391 . S
C423 C427 1.397 . S
C423 C479 1.419 . S
C424 C420 1.391 . S
C424 C423 1.391 . S
C424 C425 1.399 . S
C425 C424 1.399 . S
C425 C428 1.396 . S
C425 C437 1.453 . S
C425 C438 1.684 . S
H426 C450 0.948 . S
C427 C423 1.397 . S
C427 C428 1.394 . S
C427 C446 1.723 . S
C428 C425 1.396 . S
C428 C427 1.394 . S
C428 C458 1.723 . S
H429 C452 0.947 . S
H430 C453 0.948 . S
H431 C459 0.982 . S
H432 C460 0.979 . S
H433 C460 0.980 . S
H434 C460 0.983 . S
H435 C459 0.979 . S
H436 C459 0.977 . S
C437 C425 1.453 . S
C437 H466 0.982 . S
C437 H467 0.979 . S
C437 H468 0.977 . S
C438 C425 1.684 . S
C438 H463 0.979 . S
C438 H464 0.980 . S
C438 H465 0.983 . S
C439 C440 1.391 . S
C439 C444 1.391 . S
C439 H469 0.948 . S
C440 C439 1.391 . S
C440 C441 1.391 . S
C441 C440 1.391 . S
C441 C442 1.392 . S
C441 H470 0.947 . S
C442 C441 1.392 . S
C442 C443 1.419 . S
C442 H471 0.948 . S
C443 C442 1.419 . S
C443 C444 1.391 . S
C443 C447 1.397 . S
C444 C439 1.391 . S
C444 C443 1.391 . S
C444 C445 1.399 . S
C445 C444 1.399 . S
C445 C446 1.396 . S
C445 C448 1.453 . S
C445 C449 1.684 . S
C446 C427 1.723 . S
C446 C445 1.396 . S
C446 C447 1.394 . S
C447 C443 1.397 . S
C447 C446 1.394 . S
C447 C457 1.723 . S
C448 C445 1.453 . S
C448 H472 0.982 . S
C448 H473 0.979 . S
C448 H474 0.977 . S
C449 C445 1.684 . S
C449 H475 0.979 . S
C449 H476 0.980 . S
C449 H477 0.983 . S
C450 H426 0.948 . S
C450 C451 1.391 . S
C450 C455 1.391 . S
C451 C450 1.391 . S
C451 C452 1.391 . S
C452 H429 0.947 . S
C452 C451 1.391 . S
C452 C453 1.392 . S
C453 H430 0.948 . S
C453 C452 1.392 . S
C453 C454 1.419 . S
C454 C453 1.419 . S
C454 C455 1.391 . S
C454 C458 1.397 . S
C455 C450 1.391 . S
C455 C454 1.391 . S
C455 C456 1.399 . S
C456 C455 1.399 . S
C456 C457 1.396 . S
C456 C459 1.453 . S
C456 C460 1.684 . S
C457 C447 1.723 . S
C457 C456 1.396 . S
C457 C458 1.394 . S
C458 C428 1.723 . S
C458 C454 1.397 . S
C458 C457 1.394 . S
C459 H431 0.982 . S
C459 H435 0.979 . S
C459 H436 0.977 . S
C459 C456 1.453 . S
C460 H432 0.979 . S
C460 H433 0.980 . S
C460 H434 0.983 . S
C460 C456 1.684 . S
H461 C479 0.948 . S
H462 C420 0.948 . S
H463 C438 0.979 . S
H464 C438 0.980 . S
H465 C438 0.983 . S
H466 C437 0.982 . S
H467 C437 0.979 . S
H468 C437 0.977 . S
H469 C439 0.948 . S
H470 C441 0.947 . S
H471 C442 0.948 . S
H472 C448 0.982 . S
H473 C448 0.979 . S
H474 C448 0.977 . S
H475 C449 0.979 . S
H476 C449 0.980 . S
H477 C449 0.983 . S
H478 C422 0.947 . S
C479 C422 1.392 . S
C479 C423 1.419 . S
C479 H461 0.948 . S
Co480 O483 2.042 . S
Co480 O490 2.264 . S
Co480 O509 2.286 . S
Co480 O510 2.069 . S
Co480 O512 2.015 . S
Co481 O483 2.122 . S
Co481 O489 2.073 . S
Co481 O490 2.327 . S
Co481 O491 1.976 . S
Co482 O483 2.102 . S
Co482 O485 2.072 1_455 S
Co482 O492 2.119 . S
Co482 O493 2.133 1_455 S
Co482 O497 2.104 1_455 S
Co482 O511 2.154 . S
O483 Co480 2.042 . S
O483 Co481 2.122 . S
O483 Co482 2.102 . S
O483 H484 0.980 . S
H484 O483 0.980 . S
O485 Co482 2.072 1_655 S
O485 Co486 2.042 . S
O485 Co487 2.122 . S
O485 H488 0.980 . S
Co486 O485 2.042 . S
Co486 O494 2.286 . S
Co486 O495 2.069 . S
Co486 O496 2.015 . S
Co486 O499 2.264 . S
Co487 O485 2.122 . S
Co487 O498 1.976 . S
Co487 O499 2.327 . S
Co487 O500 2.073 . S
H488 O485 0.980 . S
O489 Co481 2.073 . S
O489 C504 1.245 . S
O490 Co480 2.264 . S
O490 Co481 2.327 . S
O490 C504 1.257 . S
O491 Co481 1.976 . S
O491 C503 1.251 . S
O492 Co482 2.119 . S
O492 C503 1.274 . S
O493 Co482 2.133 1_655 S
O493 C506 1.246 . S
O494 Co486 2.286 . S
O494 C505 1.259 . S
O495 Co486 2.069 . S
O495 C505 1.289 . S
O496 Co486 2.015 . S
O496 C506 1.257 . S
O497 Co482 2.104 1_655 S
O497 C507 1.274 . S
O498 Co487 1.976 . S
O498 C507 1.251 . S
O499 Co486 2.264 . S
O499 Co487 2.327 . S
O499 C508 1.257 . S
O500 Co487 2.073 . S
O500 C508 1.245 . S
C501 O509 1.259 . S
C501 O510 1.289 . S
C502 O511 1.246 . S
C502 O512 1.257 . S
C503 O491 1.251 . S
C503 O492 1.274 . S
C504 O489 1.245 . S
C504 O490 1.257 . S
C505 O494 1.259 . S
C505 O495 1.289 . S
C506 O493 1.246 . S
C506 O496 1.257 . S
C507 O497 1.274 . S
C507 O498 1.251 . S
C508 O499 1.257 . S
C508 O500 1.245 . S
O509 Co480 2.286 . S
O509 C501 1.259 . S
O510 Co480 2.069 . S
O510 C501 1.289 . S
O511 Co482 2.154 . S
O511 C502 1.246 . S
O512 Co480 2.015 . S
O512 C502 1.257 . S
Co513 O516 2.042 . S
Co513 O523 2.264 . S
Co513 O542 2.286 . S
Co513 O543 2.069 . S
Co513 O545 2.015 . S
Co514 O516 2.122 . S
Co514 O522 2.073 . S
Co514 O523 2.327 . S
Co514 O524 1.976 . S
Co515 O516 2.062 1_545 S
Co515 O518 2.113 . S
Co515 O525 2.100 1_545 S
Co515 O526 2.162 . S
Co515 O530 2.123 . S
Co515 O544 2.125 1_545 S
O516 Co513 2.042 . S
O516 Co514 2.122 . S
O516 Co515 2.062 1_565 S
O516 H517 0.980 . S
H517 O516 0.980 . S
O518 Co515 2.113 . S
O518 Co519 2.042 . S
O518 Co520 2.122 . S
O518 H521 0.980 . S
Co519 O518 2.042 . S
Co519 O527 2.286 . S
Co519 O528 2.069 . S
Co519 O529 2.015 . S
Co519 O532 2.264 . S
Co520 O518 2.122 . S
Co520 O531 1.976 . S
Co520 O532 2.327 . S
Co520 O533 2.073 . S
H521 O518 0.980 . S
O522 Co514 2.073 . S
O522 C537 1.245 . S
O523 Co513 2.264 . S
O523 Co514 2.327 . S
O523 C537 1.257 . S
O524 Co514 1.976 . S
O524 C536 1.251 . S
O525 Co515 2.100 1_565 S
O525 C536 1.274 . S
O526 Co515 2.162 . S
O526 C539 1.246 . S
O527 Co519 2.286 . S
O527 C538 1.259 . S
O528 Co519 2.069 . S
O528 C538 1.289 . S
O529 Co519 2.015 . S
O529 C539 1.257 . S
O530 Co515 2.123 . S
O530 C540 1.274 . S
O531 Co520 1.976 . S
O531 C540 1.251 . S
O532 Co519 2.264 . S
O532 Co520 2.327 . S
O532 C541 1.257 . S
O533 Co520 2.073 . S
O533 C541 1.245 . S
C534 O542 1.259 . S
C534 O543 1.289 . S
C535 O544 1.246 . S
C535 O545 1.257 . S
C536 O524 1.251 . S
C536 O525 1.274 . S
C537 O522 1.245 . S
C537 O523 1.257 . S
C538 O527 1.259 . S
C538 O528 1.289 . S
C539 O526 1.246 . S
C539 O529 1.257 . S
C540 O530 1.274 . S
C540 O531 1.251 . S
C541 O532 1.257 . S
C541 O533 1.245 . S
O542 Co513 2.286 . S
O542 C534 1.259 . S
O543 Co513 2.069 . S
O543 C534 1.289 . S
O544 Co515 2.125 1_565 S
O544 C535 1.246 . S
O545 Co513 2.015 . S
O545 C535 1.257 . S
Co546 O549 2.042 . S
Co546 O556 2.264 . S
Co546 O575 2.286 . S
Co546 O576 2.069 . S
Co546 O578 2.015 . S
Co547 O549 2.122 . S
Co547 O555 2.073 . S
Co547 O556 2.327 . S
Co547 O557 1.976 . S
Co548 O549 2.098 . S
Co548 O551 2.076 1_554 S
Co548 O558 2.116 . S
Co548 O559 2.135 1_554 S
Co548 O563 2.106 1_554 S
Co548 O577 2.152 . S
O549 Co546 2.042 . S
O549 Co547 2.122 . S
O549 Co548 2.098 . S
O549 H550 0.980 . S
H550 O549 0.980 . S
O551 Co548 2.076 1_556 S
O551 Co552 2.042 . S
O551 Co553 2.122 . S
O551 H554 0.980 . S
Co552 O551 2.042 . S
Co552 O560 2.286 . S
Co552 O561 2.069 . S
Co552 O562 2.015 . S
Co552 O565 2.264 . S
Co553 O551 2.122 . S
Co553 O564 1.976 . S
Co553 O565 2.327 . S
Co553 O566 2.073 . S
H554 O551 0.980 . S
O555 Co547 2.073 . S
O555 C570 1.245 . S
O556 Co546 2.264 . S
O556 Co547 2.327 . S
O556 C570 1.257 . S
O557 Co547 1.976 . S
O557 C569 1.251 . S
O558 Co548 2.116 . S
O558 C569 1.274 . S
O559 Co548 2.135 1_556 S
O559 C572 1.246 . S
O560 Co552 2.286 . S
O560 C571 1.259 . S
O561 Co552 2.069 . S
O561 C571 1.289 . S
O562 Co552 2.015 . S
O562 C572 1.257 . S
O563 Co548 2.106 1_556 S
O563 C573 1.274 . S
O564 Co553 1.976 . S
O564 C573 1.251 . S
O565 Co552 2.264 . S
O565 Co553 2.327 . S
O565 C574 1.257 . S
O566 Co553 2.073 . S
O566 C574 1.245 . S
C567 O575 1.259 . S
C567 O576 1.289 . S
C568 O577 1.246 . S
C568 O578 1.257 . S
C569 O557 1.251 . S
C569 O558 1.274 . S
C570 O555 1.245 . S
C570 O556 1.257 . S
C571 O560 1.259 . S
C571 O561 1.289 . S
C572 O559 1.246 . S
C572 O562 1.257 . S
C573 O563 1.274 . S
C573 O564 1.251 . S
C574 O565 1.257 . S
C574 O566 1.245 . S
O575 Co546 2.286 . S
O575 C567 1.259 . S
O576 Co546 2.069 . S
O576 C567 1.289 . S
O577 Co548 2.152 . S
O577 C568 1.246 . S
O578 Co546 2.015 . S
O578 C568 1.257 . S
C579 C580 1.363 . S
C579 C585 1.379 . S
C579 N587 1.356 . S
C580 C579 1.363 . S
C580 C586 1.363 . S
C581 C582 1.363 . S
C581 C586 1.379 . S
C581 N588 1.356 . S
C582 C581 1.363 . S
C582 C585 1.363 . S
N583 C585 1.356 . S
N583 H595 0.984 . S
N583 H596 0.985 . S
N584 C586 1.356 . S
N584 H589 0.984 . S
N584 H590 0.985 . S
C585 C579 1.379 . S
C585 C582 1.363 . S
C585 N583 1.356 . S
C586 C580 1.363 . S
C586 C581 1.379 . S
C586 N584 1.356 . S
N587 C579 1.356 . S
N587 H593 0.984 . S
N587 H594 0.984 . S
N588 C581 1.356 . S
N588 H591 0.984 . S
N588 H592 0.985 . S
H589 N584 0.984 . S
H590 N584 0.985 . S
H591 N588 0.984 . S
H592 N588 0.985 . S
H593 N587 0.984 . S
H594 N587 0.984 . S
H595 N583 0.984 . S
H596 N583 0.985 . S
C597 C598 1.363 . S
C597 C603 1.379 . S
C597 N605 1.356 . S
C598 C597 1.363 . S
C598 C604 1.363 . S
C599 C600 1.363 . S
C599 C604 1.379 . S
C599 N606 1.356 . S
C600 C599 1.363 . S
C600 C603 1.363 . S
N601 C603 1.356 . S
N601 H613 0.984 . S
N601 H614 0.985 . S
N602 C604 1.356 . S
N602 H607 0.984 . S
N602 H608 0.985 . S
C603 C597 1.379 . S
C603 C600 1.363 . S
C603 N601 1.356 . S
C604 C598 1.363 . S
C604 C599 1.379 . S
C604 N602 1.356 . S
N605 C597 1.356 . S
N605 H611 0.984 . S
N605 H612 0.984 . S
N606 C599 1.356 . S
N606 H609 0.984 . S
N606 H610 0.985 . S
H607 N602 0.984 . S
H608 N602 0.985 . S
H609 N606 0.984 . S
H610 N606 0.985 . S
H611 N605 0.984 . S
H612 N605 0.984 . S
H613 N601 0.984 . S
H614 N601 0.985 . S
C615 C616 1.363 . S
C615 C621 1.379 . S
C615 N623 1.356 . S
C616 C615 1.363 . S
C616 C622 1.363 . S
C617 C618 1.363 . S
C617 C622 1.379 . S
C617 N624 1.356 . S
C618 C617 1.363 . S
C618 C621 1.363 . S
N619 C621 1.356 . S
N619 H631 0.984 . S
N619 H632 0.985 . S
N620 C622 1.356 . S
N620 H625 0.984 . S
N620 H626 0.985 . S
C621 C615 1.379 . S
C621 C618 1.363 . S
C621 N619 1.356 . S
C622 C616 1.363 . S
C622 C617 1.379 . S
C622 N620 1.356 . S
N623 C615 1.356 . S
N623 H629 0.984 . S
N623 H630 0.984 . S
N624 C617 1.356 . S
N624 H627 0.984 . S
N624 H628 0.985 . S
H625 N620 0.984 . S
H626 N620 0.985 . S
H627 N624 0.984 . S
H628 N624 0.985 . S
H629 N623 0.984 . S
H630 N623 0.984 . S
H631 N619 0.984 . S
H632 N619 0.985 . S
C633 C634 1.363 . S
C633 C639 1.379 . S
C633 N641 1.356 . S
C634 C633 1.363 . S
C634 C640 1.363 . S
C635 C636 1.363 . S
C635 C640 1.379 . S
C635 N642 1.356 . S
C636 C635 1.363 . S
C636 C639 1.363 . S
N637 C639 1.356 . S
N637 H649 0.984 . S
N637 H650 0.985 . S
N638 C640 1.356 . S
N638 H643 0.984 . S
N638 H644 0.985 . S
C639 C633 1.379 . S
C639 C636 1.363 . S
C639 N637 1.356 . S
C640 C634 1.363 . S
C640 C635 1.379 . S
C640 N638 1.356 . S
N641 C633 1.356 . S
N641 H647 0.984 . S
N641 H648 0.984 . S
N642 C635 1.356 . S
N642 H645 0.984 . S
N642 H646 0.985 . S
H643 N638 0.984 . S
H644 N638 0.985 . S
H645 N642 0.984 . S
H646 N642 0.985 . S
H647 N641 0.984 . S
H648 N641 0.984 . S
H649 N637 0.984 . S
H650 N637 0.985 . S
C651 C652 1.363 . S
C651 C657 1.379 . S
C651 N659 1.356 . S
C652 C651 1.363 . S
C652 C658 1.363 . S
C653 C654 1.363 . S
C653 C658 1.379 . S
C653 N660 1.356 . S
C654 C653 1.363 . S
C654 C657 1.363 . S
N655 C657 1.356 . S
N655 H667 0.984 . S
N655 H668 0.985 . S
N656 C658 1.356 . S
N656 H661 0.984 . S
N656 H662 0.985 . S
C657 C651 1.379 . S
C657 C654 1.363 . S
C657 N655 1.356 . S
C658 C652 1.363 . S
C658 C653 1.379 . S
C658 N656 1.356 . S
N659 C651 1.356 . S
N659 H665 0.984 . S
N659 H666 0.984 . S
N660 C653 1.356 . S
N660 H663 0.984 . S
N660 H664 0.985 . S
H661 N656 0.984 . S
H662 N656 0.985 . S
H663 N660 0.984 . S
H664 N660 0.985 . S
H665 N659 0.984 . S
H666 N659 0.984 . S
H667 N655 0.984 . S
H668 N655 0.985 . S
C669 C670 1.363 . S
C669 C675 1.379 . S
C669 N677 1.356 . S
C670 C669 1.363 . S
C670 C676 1.363 . S
C671 C672 1.363 . S
C671 C676 1.379 . S
C671 N678 1.356 . S
C672 C671 1.363 . S
C672 C675 1.363 . S
N673 C675 1.356 . S
N673 H685 0.984 . S
N673 H686 0.985 . S
N674 C676 1.356 . S
N674 H679 0.984 . S
N674 H680 0.985 . S
C675 C669 1.379 . S
C675 C672 1.363 . S
C675 N673 1.356 . S
C676 C670 1.363 . S
C676 C671 1.379 . S
C676 N674 1.356 . S
N677 C669 1.356 . S
N677 H683 0.984 . S
N677 H684 0.984 . S
N678 C671 1.356 . S
N678 H681 0.984 . S
N678 H682 0.985 . S
H679 N674 0.984 . S
H680 N674 0.985 . S
H681 N678 0.984 . S
H682 N678 0.985 . S
H683 N677 0.984 . S
H684 N677 0.984 . S
H685 N673 0.984 . S
H686 N673 0.985 . S
C687 C688 1.363 . S
C687 C693 1.379 . S
C687 N695 1.356 . S
C688 C687 1.363 . S
C688 C694 1.363 . S
C689 C690 1.363 . S
C689 C694 1.379 . S
C689 N696 1.356 . S
C690 C689 1.363 . S
C690 C693 1.363 . S
N691 C693 1.356 . S
N691 H703 0.984 . S
N691 H704 0.985 . S
N692 C694 1.356 . S
N692 H697 0.984 . S
N692 H698 0.985 . S
C693 C687 1.379 . S
C693 C690 1.363 . S
C693 N691 1.356 . S
C694 C688 1.363 . S
C694 C689 1.379 . S
C694 N692 1.356 . S
N695 C687 1.356 . S
N695 H701 0.984 . S
N695 H702 0.984 . S
N696 C689 1.356 . S
N696 H699 0.984 . S
N696 H700 0.985 . S
H697 N692 0.984 . S
H698 N692 0.985 . S
H699 N696 0.984 . S
H700 N696 0.985 . S
H701 N695 0.984 . S
H702 N695 0.984 . S
H703 N691 0.984 . S
H704 N691 0.985 . S
C705 C706 1.363 . S
C705 C711 1.379 . S
C705 N713 1.356 . S
C706 C705 1.363 . S
C706 C712 1.363 . S
C707 C708 1.363 . S
C707 C712 1.379 . S
C707 N714 1.356 . S
C708 C707 1.363 . S
C708 C711 1.363 . S
N709 C711 1.356 . S
N709 H721 0.984 . S
N709 H722 0.985 . S
N710 C712 1.356 . S
N710 H715 0.984 . S
N710 H716 0.985 . S
C711 C705 1.379 . S
C711 C708 1.363 . S
C711 N709 1.356 . S
C712 C706 1.363 . S
C712 C707 1.379 . S
C712 N710 1.356 . S
N713 C705 1.356 . S
N713 H719 0.984 . S
N713 H720 0.984 . S
N714 C707 1.356 . S
N714 H717 0.984 . S
N714 H718 0.985 . S
H715 N710 0.984 . S
H716 N710 0.985 . S
H717 N714 0.984 . S
H718 N714 0.985 . S
H719 N713 0.984 . S
H720 N713 0.984 . S
H721 N709 0.984 . S
H722 N709 0.985 . S
C723 C724 1.363 . S
C723 C729 1.379 . S
C723 N731 1.356 . S
C724 C723 1.363 . S
C724 C730 1.363 . S
C725 C726 1.363 . S
C725 C730 1.379 . S
C725 N732 1.356 . S
C726 C725 1.363 . S
C726 C729 1.363 . S
N727 C729 1.356 . S
N727 H739 0.984 . S
N727 H740 0.985 . S
N728 C730 1.356 . S
N728 H733 0.984 . S
N728 H734 0.985 . S
C729 C723 1.379 . S
C729 C726 1.363 . S
C729 N727 1.356 . S
C730 C724 1.363 . S
C730 C725 1.379 . S
C730 N728 1.356 . S
N731 C723 1.356 . S
N731 H737 0.984 . S
N731 H738 0.984 . S
N732 C725 1.356 . S
N732 H735 0.984 . S
N732 H736 0.985 . S
H733 N728 0.984 . S
H734 N728 0.985 . S
H735 N732 0.984 . S
H736 N732 0.985 . S
H737 N731 0.984 . S
H738 N731 0.984 . S
H739 N727 0.984 . S
H740 N727 0.985 . S
C741 C742 1.363 . S
C741 C747 1.379 . S
C741 N749 1.356 . S
C742 C741 1.363 . S
C742 C748 1.363 . S
C743 C744 1.363 . S
C743 C748 1.379 . S
C743 N750 1.356 . S
C744 C743 1.363 . S
C744 C747 1.363 . S
N745 C747 1.356 . S
N745 H757 0.984 . S
N745 H758 0.985 . S
N746 C748 1.356 . S
N746 H751 0.984 . S
N746 H752 0.985 . S
C747 C741 1.379 . S
C747 C744 1.363 . S
C747 N745 1.356 . S
C748 C742 1.363 . S
C748 C743 1.379 . S
C748 N746 1.356 . S
N749 C741 1.356 . S
N749 H755 0.984 . S
N749 H756 0.984 . S
N750 C743 1.356 . S
N750 H753 0.984 . S
N750 H754 0.985 . S
H751 N746 0.984 . S
H752 N746 0.985 . S
H753 N750 0.984 . S
H754 N750 0.985 . S
H755 N749 0.984 . S
H756 N749 0.984 . S
H757 N745 0.984 . S
H758 N745 0.985 . S
C759 C760 1.363 . S
C759 C765 1.379 . S
C759 N767 1.356 . S
C760 C759 1.363 . S
C760 C766 1.363 . S
C761 C762 1.363 . S
C761 C766 1.379 . S
C761 N768 1.356 . S
C762 C761 1.363 . S
C762 C765 1.363 . S
N763 C765 1.356 . S
N763 H775 0.984 . S
N763 H776 0.985 . S
N764 C766 1.356 . S
N764 H769 0.984 . S
N764 H770 0.985 . S
C765 C759 1.379 . S
C765 C762 1.363 . S
C765 N763 1.356 . S
C766 C760 1.363 . S
C766 C761 1.379 . S
C766 N764 1.356 . S
N767 C759 1.356 . S
N767 H773 0.984 . S
N767 H774 0.984 . S
N768 C761 1.356 . S
N768 H771 0.984 . S
N768 H772 0.985 . S
H769 N764 0.984 . S
H770 N764 0.985 . S
H771 N768 0.984 . S
H772 N768 0.985 . S
H773 N767 0.984 . S
H774 N767 0.984 . S
H775 N763 0.984 . S
H776 N763 0.985 . S
C777 C778 1.363 . S
C777 C783 1.379 . S
C777 N785 1.356 . S
C778 C777 1.363 . S
C778 C784 1.363 . S
C779 C780 1.363 . S
C779 C784 1.379 . S
C779 N786 1.356 . S
C780 C779 1.363 . S
C780 C783 1.363 . S
N781 C783 1.356 . S
N781 H793 0.984 . S
N781 H794 0.985 . S
N782 C784 1.356 . S
N782 H787 0.984 . S
N782 H788 0.985 . S
C783 C777 1.379 . S
C783 C780 1.363 . S
C783 N781 1.356 . S
C784 C778 1.363 . S
C784 C779 1.379 . S
C784 N782 1.356 . S
N785 C777 1.356 . S
N785 H791 0.984 . S
N785 H792 0.984 . S
N786 C779 1.356 . S
N786 H789 0.984 . S
N786 H790 0.985 . S
H787 N782 0.984 . S
H788 N782 0.985 . S
H789 N786 0.984 . S
H790 N786 0.985 . S
H791 N785 0.984 . S
H792 N785 0.984 . S
H793 N781 0.984 . S
H794 N781 0.985 . S
C795 C796 1.363 . S
C795 C801 1.379 . S
C795 N803 1.356 . S
C796 C795 1.363 . S
C796 C802 1.363 . S
C797 C798 1.363 . S
C797 C802 1.379 . S
C797 N804 1.356 . S
C798 C797 1.363 . S
C798 C801 1.363 . S
N799 C801 1.356 . S
N799 H811 0.984 . S
N799 H812 0.985 . S
N800 C802 1.356 . S
N800 H805 0.984 . S
N800 H806 0.985 . S
C801 C795 1.379 . S
C801 C798 1.363 . S
C801 N799 1.356 . S
C802 C796 1.363 . S
C802 C797 1.379 . S
C802 N800 1.356 . S
N803 C795 1.356 . S
N803 H809 0.984 . S
N803 H810 0.984 . S
N804 C797 1.356 . S
N804 H807 0.984 . S
N804 H808 0.985 . S
H805 N800 0.984 . S
H806 N800 0.985 . S
H807 N804 0.984 . S
H808 N804 0.985 . S
H809 N803 0.984 . S
H810 N803 0.984 . S
H811 N799 0.984 . S
H812 N799 0.985 . S
C813 C814 1.363 . S
C813 C819 1.379 . S
C813 N821 1.356 . S
C814 C813 1.363 . S
C814 C820 1.363 . S
C815 C816 1.363 . S
C815 C820 1.379 . S
C815 N822 1.356 . S
C816 C815 1.363 . S
C816 C819 1.363 . S
N817 C819 1.356 . S
N817 H829 0.984 . S
N817 H830 0.985 . S
N818 C820 1.356 . S
N818 H823 0.984 . S
N818 H824 0.985 . S
C819 C813 1.379 . S
C819 C816 1.363 . S
C819 N817 1.356 . S
C820 C814 1.363 . S
C820 C815 1.379 . S
C820 N818 1.356 . S
N821 C813 1.356 . S
N821 H827 0.984 . S
N821 H828 0.984 . S
N822 C815 1.356 . S
N822 H825 0.984 . S
N822 H826 0.985 . S
H823 N818 0.984 . S
H824 N818 0.985 . S
H825 N822 0.984 . S
H826 N822 0.985 . S
H827 N821 0.984 . S
H828 N821 0.984 . S
H829 N817 0.984 . S
H830 N817 0.985 . S
C831 C832 1.363 . S
C831 C837 1.379 . S
C831 N839 1.356 . S
C832 C831 1.363 . S
C832 C838 1.363 . S
C833 C834 1.363 . S
C833 C838 1.379 . S
C833 N840 1.356 . S
C834 C833 1.363 . S
C834 C837 1.363 . S
N835 C837 1.356 . S
N835 H847 0.984 . S
N835 H848 0.985 . S
N836 C838 1.356 . S
N836 H841 0.984 . S
N836 H842 0.985 . S
C837 C831 1.379 . S
C837 C834 1.363 . S
C837 N835 1.356 . S
C838 C832 1.363 . S
C838 C833 1.379 . S
C838 N836 1.356 . S
N839 C831 1.356 . S
N839 H845 0.984 . S
N839 H846 0.984 . S
N840 C833 1.356 . S
N840 H843 0.984 . S
N840 H844 0.985 . S
H841 N836 0.984 . S
H842 N836 0.985 . S
H843 N840 0.984 . S
H844 N840 0.985 . S
H845 N839 0.984 . S
H846 N839 0.984 . S
H847 N835 0.984 . S
H848 N835 0.985 . S
C849 C850 1.363 . S
C849 C855 1.379 . S
C849 N857 1.356 . S
C850 C849 1.363 . S
C850 C856 1.363 . S
C851 C852 1.363 . S
C851 C856 1.379 . S
C851 N858 1.356 . S
C852 C851 1.363 . S
C852 C855 1.363 . S
N853 C855 1.356 . S
N853 H865 0.984 . S
N853 H866 0.985 . S
N854 C856 1.356 . S
N854 H859 0.984 . S
N854 H860 0.985 . S
C855 C849 1.379 . S
C855 C852 1.363 . S
C855 N853 1.356 . S
C856 C850 1.363 . S
C856 C851 1.379 . S
C856 N854 1.356 . S
N857 C849 1.356 . S
N857 H863 0.984 . S
N857 H864 0.984 . S
N858 C851 1.356 . S
N858 H861 0.984 . S
N858 H862 0.985 . S
H859 N854 0.984 . S
H860 N854 0.985 . S
H861 N858 0.984 . S
H862 N858 0.985 . S
H863 N857 0.984 . S
H864 N857 0.984 . S
H865 N853 0.984 . S
H866 N853 0.985 . S
C867 C868 1.363 . S
C867 C873 1.379 . S
C867 N875 1.356 . S
C868 C867 1.363 . S
C868 C874 1.363 . S
C869 C870 1.363 . S
C869 C874 1.379 . S
C869 N876 1.356 . S
C870 C869 1.363 . S
C870 C873 1.363 . S
N871 C873 1.356 . S
N871 H883 0.984 . S
N871 H884 0.985 . S
N872 C874 1.356 . S
N872 H877 0.984 . S
N872 H878 0.985 . S
C873 C867 1.379 . S
C873 C870 1.363 . S
C873 N871 1.356 . S
C874 C868 1.363 . S
C874 C869 1.379 . S
C874 N872 1.356 . S
N875 C867 1.356 . S
N875 H881 0.984 . S
N875 H882 0.984 . S
N876 C869 1.356 . S
N876 H879 0.984 . S
N876 H880 0.985 . S
H877 N872 0.984 . S
H878 N872 0.985 . S
H879 N876 0.984 . S
H880 N876 0.985 . S
H881 N875 0.984 . S
H882 N875 0.984 . S
H883 N871 0.984 . S
H884 N871 0.985 . S
C885 C886 1.363 . S
C885 C891 1.379 . S
C885 N893 1.356 . S
C886 C885 1.363 . S
C886 C892 1.363 . S
C887 C888 1.363 . S
C887 C892 1.379 . S
C887 N894 1.356 . S
C888 C887 1.363 . S
C888 C891 1.363 . S
N889 C891 1.356 . S
N889 H901 0.984 . S
N889 H902 0.985 . S
N890 C892 1.356 . S
N890 H895 0.984 . S
N890 H896 0.985 . S
C891 C885 1.379 . S
C891 C888 1.363 . S
C891 N889 1.356 . S
C892 C886 1.363 . S
C892 C887 1.379 . S
C892 N890 1.356 . S
N893 C885 1.356 . S
N893 H899 0.984 . S
N893 H900 0.984 . S
N894 C887 1.356 . S
N894 H897 0.984 . S
N894 H898 0.985 . S
H895 N890 0.984 . S
H896 N890 0.985 . S
H897 N894 0.984 . S
H898 N894 0.985 . S
H899 N893 0.984 . S
H900 N893 0.984 . S
H901 N889 0.984 . S
H902 N889 0.985 . S
C903 C904 1.363 . S
C903 C909 1.379 . S
C903 N911 1.356 . S
C904 C903 1.363 . S
C904 C910 1.363 . S
C905 C906 1.363 . S
C905 C910 1.379 . S
C905 N912 1.356 . S
C906 C905 1.363 . S
C906 C909 1.363 . S
N907 C909 1.356 . S
N907 H919 0.984 . S
N907 H920 0.985 . S
N908 C910 1.356 . S
N908 H913 0.984 . S
N908 H914 0.985 . S
C909 C903 1.379 . S
C909 C906 1.363 . S
C909 N907 1.356 . S
C910 C904 1.363 . S
C910 C905 1.379 . S
C910 N908 1.356 . S
N911 C903 1.356 . S
N911 H917 0.984 . S
N911 H918 0.984 . S
N912 C905 1.356 . S
N912 H915 0.984 . S
N912 H916 0.985 . S
H913 N908 0.984 . S
H914 N908 0.985 . S
H915 N912 0.984 . S
H916 N912 0.985 . S
H917 N911 0.984 . S
H918 N911 0.984 . S
H919 N907 0.984 . S
H920 N907 0.985 . S
C921 C922 1.363 . S
C921 C927 1.379 . S
C921 N929 1.356 . S
C922 C921 1.363 . S
C922 C928 1.363 . S
C923 C924 1.363 . S
C923 C928 1.379 . S
C923 N930 1.356 . S
C924 C923 1.363 . S
C924 C927 1.363 . S
N925 C927 1.356 . S
N925 H937 0.984 . S
N925 H938 0.985 . S
N926 C928 1.356 . S
N926 H931 0.984 . S
N926 H932 0.985 . S
C927 C921 1.379 . S
C927 C924 1.363 . S
C927 N925 1.356 . S
C928 C922 1.363 . S
C928 C923 1.379 . S
C928 N926 1.356 . S
N929 C921 1.356 . S
N929 H935 0.984 . S
N929 H936 0.984 . S
N930 C923 1.356 . S
N930 H933 0.984 . S
N930 H934 0.985 . S
H931 N926 0.984 . S
H932 N926 0.985 . S
H933 N930 0.984 . S
H934 N930 0.985 . S
H935 N929 0.984 . S
H936 N929 0.984 . S
H937 N925 0.984 . S
H938 N925 0.985 . S
C939 C940 1.363 . S
C939 C945 1.379 . S
C939 N947 1.356 . S
C940 C939 1.363 . S
C940 C946 1.363 . S
C941 C942 1.363 . S
C941 C946 1.379 . S
C941 N948 1.356 . S
C942 C941 1.363 . S
C942 C945 1.363 . S
N943 C945 1.356 . S
N943 H955 0.984 . S
N943 H956 0.985 . S
N944 C946 1.356 . S
N944 H949 0.984 . S
N944 H950 0.985 . S
C945 C939 1.379 . S
C945 C942 1.363 . S
C945 N943 1.356 . S
C946 C940 1.363 . S
C946 C941 1.379 . S
C946 N944 1.356 . S
N947 C939 1.356 . S
N947 H953 0.984 . S
N947 H954 0.984 . S
N948 C941 1.356 . S
N948 H951 0.984 . S
N948 H952 0.985 . S
H949 N944 0.984 . S
H950 N944 0.985 . S
H951 N948 0.984 . S
H952 N948 0.985 . S
H953 N947 0.984 . S
H954 N947 0.984 . S
H955 N943 0.984 . S
H956 N943 0.985 . S
C957 C958 1.363 . S
C957 C963 1.379 . S
C957 N965 1.356 . S
C958 C957 1.363 . S
C958 C964 1.363 . S
C959 C960 1.363 . S
C959 C964 1.379 . S
C959 N966 1.356 . S
C960 C959 1.363 . S
C960 C963 1.363 . S
N961 C963 1.356 . S
N961 H973 0.984 . S
N961 H974 0.985 . S
N962 C964 1.356 . S
N962 H967 0.984 . S
N962 H968 0.985 . S
C963 C957 1.379 . S
C963 C960 1.363 . S
C963 N961 1.356 . S
C964 C958 1.363 . S
C964 C959 1.379 . S
C964 N962 1.356 . S
N965 C957 1.356 . S
N965 H971 0.984 . S
N965 H972 0.984 . S
N966 C959 1.356 . S
N966 H969 0.984 . S
N966 H970 0.985 . S
H967 N962 0.984 . S
H968 N962 0.985 . S
H969 N966 0.984 . S
H970 N966 0.985 . S
H971 N965 0.984 . S
H972 N965 0.984 . S
H973 N961 0.984 . S
H974 N961 0.985 . S
C975 C976 1.363 . S
C975 C981 1.379 . S
C975 N983 1.356 . S
C976 C975 1.363 . S
C976 C982 1.363 . S
C977 C978 1.363 . S
C977 C982 1.379 . S
C977 N984 1.356 . S
C978 C977 1.363 . S
C978 C981 1.363 . S
N979 C981 1.356 . S
N979 H991 0.984 . S
N979 H992 0.985 . S
N980 C982 1.356 . S
N980 H985 0.984 . S
N980 H986 0.985 . S
C981 C975 1.379 . S
C981 C978 1.363 . S
C981 N979 1.356 . S
C982 C976 1.363 . S
C982 C977 1.379 . S
C982 N980 1.356 . S
N983 C975 1.356 . S
N983 H989 0.984 . S
N983 H990 0.984 . S
N984 C977 1.356 . S
N984 H987 0.984 . S
N984 H988 0.985 . S
H985 N980 0.984 . S
H986 N980 0.985 . S
H987 N984 0.984 . S
H988 N984 0.985 . S
H989 N983 0.984 . S
H990 N983 0.984 . S
H991 N979 0.984 . S
H992 N979 0.985 . S
C993 C994 1.363 . S
C993 C999 1.379 . S
C993 N1001 1.356 . S
C994 C993 1.363 . S
C994 C1000 1.363 . S
C995 C996 1.363 . S
C995 C1000 1.379 . S
C995 N1002 1.356 . S
C996 C995 1.363 . S
C996 C999 1.363 . S
N997 C999 1.356 . S
N997 H1009 0.984 . S
N997 H1010 0.985 . S
N998 C1000 1.356 . S
N998 H1003 0.984 . S
N998 H1004 0.985 . S
C999 C993 1.379 . S
C999 C996 1.363 . S
C999 N997 1.356 . S
C1000 C994 1.363 . S
C1000 C995 1.379 . S
C1000 N998 1.356 . S
N1001 C993 1.356 . S
N1001 H1007 0.984 . S
N1001 H1008 0.984 . S
N1002 C995 1.356 . S
N1002 H1005 0.984 . S
N1002 H1006 0.985 . S
H1003 N998 0.984 . S
H1004 N998 0.985 . S
H1005 N1002 0.984 . S
H1006 N1002 0.985 . S
H1007 N1001 0.984 . S
H1008 N1001 0.984 . S
H1009 N997 0.984 . S
H1010 N997 0.985 . S
C582 C504 1.182 . S
C580 C31 1.216 . S
C600 C540 1.681 . S
C598 C61 1.781 . S
C618 C505 1.452 . S
C616 C121 1.428 . S
C636 C535 1.579 . S
C634 C181 1.608 . S
C654 C502 1.546 . S
C652 C260 1.511 . S
C670 C331 1.715 . S
C672 C538 1.733 . S
C688 C380 1.320 . S
C690 C507 1.193 . S
C708 C537 1.535 . S
C706 C440 1.529 . S
C726 C541 1.535 . S
C724 C1 1.408 . S
C744 C506 1.546 . S
C742 C91 1.576 . S
C762 C534 1.732 . S
C760 C151 1.715 . S
C780 C503 1.193 . S
C778 C200 1.320 . S
C798 C536 1.681 . S
C796 C271 1.719 . S
C814 C301 1.428 . S
C816 C501 1.453 . S
C832 C361 1.608 . S
C834 C539 1.579 . S
C852 C508 1.182 . S
C850 C451 1.184 . S
C870 C570 1.587 . S
C868 C20 1.655 . S
C886 C241 1.963 . S
C888 C573 1.912 . S
C906 C572 1.730 . S
C904 C320 1.773 . S
C922 C391 2.021 . S
C924 C571 2.014 . S
C942 C574 1.586 . S
C940 C421 1.652 . S
C958 C140 1.773 . S
C960 C568 1.730 . S
C978 C567 2.014 . S
C976 C211 2.021 . S
C994 C80 2.031 . S
C996 C569 1.912 . S
