# Generated by pormake.
# Topology hwx, (6,3)-cn, num edge types: 1
# Building blocks:
#     Node 0, Type 0, BuildingBlock: OJICUG_clean_sbu_0, # of connection points: 6
#     Node 1, Type 0, BuildingBlock: OJICUG_clean_sbu_0, # of connection points: 6
#     Node 2, Type 0, BuildingBlock: OJICUG_clean_sbu_0, # of connection points: 6
#     Node 3, Type 0, BuildingBlock: OJICUG_clean_sbu_0, # of connection points: 6
#     Node 4, Type 1, BuildingBlock: BELTOD_clean_linker_0, # of connection points: 3
#     Node 5, Type 1, BuildingBlock: BELTOD_clean_linker_0, # of connection points: 3
#     Node 6, Type 1, BuildingBlock: BELTOD_clean_linker_0, # of connection points: 3
#     Node 7, Type 1, BuildingBlock: BELTOD_clean_linker_0, # of connection points: 3
#     Node 8, Type 1, BuildingBlock: BELTOD_clean_linker_0, # of connection points: 3
#     Node 9, Type 1, BuildingBlock: BELTOD_clean_linker_0, # of connection points: 3
#     Node 10, Type 1, BuildingBlock: BELTOD_clean_linker_0, # of connection points: 3
#     Node 11, Type 1, BuildingBlock: BELTOD_clean_linker_0, # of connection points: 3
#     Edge 12, Type (0, 1), BuildingBlock: ZUJKAS_clean_linker_0, # of connection points: 2
#     Edge 13, Type (0, 1), BuildingBlock: ZUJKAS_clean_linker_0, # of connection points: 2
#     Edge 14, Type (0, 1), BuildingBlock: ZUJKAS_clean_linker_0, # of connection points: 2
#     Edge 15, Type (0, 1), BuildingBlock: ZUJKAS_clean_linker_0, # of connection points: 2
#     Edge 16, Type (0, 1), BuildingBlock: ZUJKAS_clean_linker_0, # of connection points: 2
#     Edge 17, Type (0, 1), BuildingBlock: ZUJKAS_clean_linker_0, # of connection points: 2
#     Edge 18, Type (0, 1), BuildingBlock: ZUJKAS_clean_linker_0, # of connection points: 2
#     Edge 19, Type (0, 1), BuildingBlock: ZUJKAS_clean_linker_0, # of connection points: 2
#     Edge 20, Type (0, 1), BuildingBlock: ZUJKAS_clean_linker_0, # of connection points: 2
#     Edge 21, Type (0, 1), BuildingBlock: ZUJKAS_clean_linker_0, # of connection points: 2
#     Edge 22, Type (0, 1), BuildingBlock: ZUJKAS_clean_linker_0, # of connection points: 2
#     Edge 23, Type (0, 1), BuildingBlock: ZUJKAS_clean_linker_0, # of connection points: 2
#     Edge 24, Type (0, 1), BuildingBlock: ZUJKAS_clean_linker_0, # of connection points: 2
#     Edge 25, Type (0, 1), BuildingBlock: ZUJKAS_clean_linker_0, # of connection points: 2
#     Edge 26, Type (0, 1), BuildingBlock: ZUJKAS_clean_linker_0, # of connection points: 2
#     Edge 27, Type (0, 1), BuildingBlock: ZUJKAS_clean_linker_0, # of connection points: 2
#     Edge 28, Type (0, 1), BuildingBlock: ZUJKAS_clean_linker_0, # of connection points: 2
#     Edge 29, Type (0, 1), BuildingBlock: ZUJKAS_clean_linker_0, # of connection points: 2
#     Edge 30, Type (0, 1), BuildingBlock: ZUJKAS_clean_linker_0, # of connection points: 2
#     Edge 31, Type (0, 1), BuildingBlock: ZUJKAS_clean_linker_0, # of connection points: 2
#     Edge 32, Type (0, 1), BuildingBlock: ZUJKAS_clean_linker_0, # of connection points: 2
#     Edge 33, Type (0, 1), BuildingBlock: ZUJKAS_clean_linker_0, # of connection points: 2
#     Edge 34, Type (0, 1), BuildingBlock: ZUJKAS_clean_linker_0, # of connection points: 2
#     Edge 35, Type (0, 1), BuildingBlock: ZUJKAS_clean_linker_0, # of connection points: 2
# Relax obj value: 0.069
# Max RMSD: 0.096
# Mean RMSD: 0.086
data_MOF--net-hwx--node1-OJICUG_clean_sbu_0--node2-BELTOD_clean_linker_0--edge1-ZUJKAS_clean_linker_0
_symmetry_space_group_name_H-M    P1
_symmetry_Int_Tables_number       1
_symmetry_cell_setting            triclinic
loop_
_symmetry_equiv_pos_as_xyz
'x, y, z'
_cell_length_a     71.371235
_cell_length_b     71.389786
_cell_length_c     31.846738
_cell_angle_alpha  89.45795
_cell_angle_beta   90.536184
_cell_angle_gamma 90.009451
loop_
_atom_site_label
_atom_site_type_symbol
_atom_site_fract_x
_atom_site_fract_y
_atom_site_fract_z
_atom_type_partial_charge
Sc0 Sc 0.20726 0.20668 0.05811 0.0
Sc1 Sc 0.17753 0.17598 0.00196 0.0
Sc2 Sc 0.20764 0.20713 0.94804 0.0
O3 O 0.19745 0.19656 0.0027 0.0
C4 C 0.2049 0.24411 0.00284 0.0
C5 C 0.1635 0.20254 0.07574 0.0
C6 C 0.16418 0.20263 0.92595 0.0
C7 C 0.20348 0.16299 0.07914 0.0
C8 C 0.24473 0.20436 0.0046 0.0
C9 C 0.2044 0.16349 0.92757 0.0
O10 O 0.20546 0.23541 0.03777 0.0
O11 O 0.16057 0.18995 0.04837 0.0
O12 O 0.18022 0.20996 0.9208 0.0
O13 O 0.20999 0.17928 0.08546 0.0
O14 O 0.23625 0.20528 0.96937 0.0
O15 O 0.19226 0.15976 0.95548 0.0
O16 O 0.23618 0.20468 0.03945 0.0
O17 O 0.19177 0.15943 0.04989 0.0
O18 O 0.21093 0.17985 0.92173 0.0
O19 O 0.17953 0.20975 0.08225 0.0
O20 O 0.20558 0.23582 0.96777 0.0
O21 O 0.161 0.19013 0.9538 0.0
Sc22 Sc 0.27676 0.71962 0.44919 0.0
Sc23 Sc 0.31025 0.69129 0.50185 0.0
Sc24 Sc 0.27874 0.71891 0.5595 0.0
O25 O 0.2886 0.70991 0.5035 0.0
C26 C 0.2782 0.75657 0.50452 0.0
C27 C 0.32029 0.71893 0.42606 0.0
C28 C 0.32286 0.71817 0.57672 0.0
C29 C 0.2833 0.67656 0.42825 0.0
C30 C 0.24082 0.71426 0.50711 0.0
C31 C 0.28604 0.67547 0.57819 0.0
O32 O 0.27777 0.74828 0.46937 0.0
O33 O 0.32504 0.7072 0.45454 0.0
O34 O 0.30638 0.72402 0.58368 0.0
O35 O 0.27473 0.69204 0.42315 0.0
O36 O 0.24994 0.7148 0.54152 0.0
O37 O 0.29777 0.67334 0.54879 0.0
O38 O 0.24859 0.7161 0.47156 0.0
O39 O 0.29654 0.67433 0.45487 0.0
O40 O 0.27833 0.6911 0.58588 0.0
O41 O 0.30347 0.72429 0.42043 0.0
O42 O 0.27821 0.7478 0.53945 0.0
O43 O 0.32647 0.70613 0.54872 0.0
Sc44 Sc 0.76486 0.7635 0.949 0.0
Sc45 Sc 0.79514 0.79418 0.00278 0.0
Sc46 Sc 0.76573 0.76378 0.05988 0.0
O47 O 0.77525 0.77381 0.00389 0.0
C48 C 0.72811 0.76624 0.00489 0.0
C49 C 0.7683 0.8071 0.92725 0.0
C50 C 0.7691 0.80758 0.07772 0.0
C51 C 0.80836 0.76764 0.9285 0.0
C52 C 0.76845 0.72651 0.00576 0.0
C53 C 0.80947 0.76841 0.07904 0.0
O54 O 0.73633 0.76571 0.96969 0.0
O55 O 0.78044 0.81033 0.95569 0.0
O56 O 0.76242 0.79142 0.08558 0.0
O57 O 0.79232 0.76034 0.92242 0.0
O58 O 0.76816 0.73506 0.04058 0.0
O59 O 0.81211 0.78045 0.05004 0.0
O60 O 0.76709 0.73493 0.97053 0.0
O61 O 0.81141 0.78005 0.95611 0.0
O62 O 0.79352 0.76119 0.08628 0.0
O63 O 0.76155 0.79089 0.92084 0.0
O64 O 0.73687 0.76536 0.0398 0.0
O65 O 0.781 0.81059 0.04898 0.0
Sc66 Sc 0.71864 0.27802 0.55661 0.0
Sc67 Sc 0.69087 0.31089 0.50045 0.0
Sc68 Sc 0.71874 0.27847 0.44619 0.0
O69 O 0.70939 0.28915 0.5011 0.0
C70 C 0.75602 0.27907 0.50239 0.0
C71 C 0.71755 0.32171 0.57754 0.0
C72 C 0.71802 0.32242 0.42556 0.0
C73 C 0.67527 0.28475 0.57457 0.0
C74 C 0.71409 0.24126 0.50123 0.0
C75 C 0.6756 0.28562 0.42497 0.0
O76 O 0.7475 0.2787 0.53729 0.0
O77 O 0.70602 0.32609 0.54836 0.0
O78 O 0.72339 0.30573 0.41923 0.0
O79 O 0.69078 0.27648 0.58162 0.0
O80 O 0.71511 0.24991 0.46632 0.0
O81 O 0.67354 0.29828 0.45241 0.0
O82 O 0.71525 0.24953 0.5363 0.0
O83 O 0.67324 0.29746 0.54659 0.0
O84 O 0.69102 0.27712 0.41956 0.0
O85 O 0.7231 0.30502 0.58398 0.0
O86 O 0.74749 0.27885 0.46716 0.0
O87 O 0.70644 0.32662 0.45411 0.0
P88 P 0.27008 0.49862 0.0063 0.0
H89 H 0.29161 0.5038 0.08378 0.0
H90 H 0.28638 0.52285 0.1456 0.0
H91 H 0.23163 0.53824 0.09719 0.0
H92 H 0.23735 0.51959 0.03449 0.0
H93 H 0.27859 0.46538 0.95861 0.0
H94 H 0.26519 0.43396 0.95721 0.0
H95 H 0.22469 0.45028 0.05015 0.0
H96 H 0.23775 0.48188 0.05012 0.0
H97 H 0.27325 0.5386 0.99089 0.0
H98 H 0.2527 0.4904 0.92391 0.0
O99 O 0.29323 0.49569 0.00335 0.0
H100 H 0.26746 0.55823 0.92909 0.0
H101 H 0.2469 0.51002 0.86183 0.0
C102 C 0.26501 0.5106 0.05431 0.0
C103 C 0.27843 0.51117 0.08659 0.0
C104 C 0.27532 0.52195 0.1222 0.0
C105 C 0.25861 0.5322 0.12633 0.0
C106 C 0.24478 0.5308 0.09469 0.0
C107 C 0.24798 0.52009 0.05896 0.0
C108 C 0.25937 0.47585 0.00492 0.0
C109 C 0.26678 0.46219 0.97858 0.0
C110 C 0.25916 0.44421 0.97798 0.0
C111 C 0.24402 0.43951 0.004 0.0
C112 C 0.23626 0.45345 0.02952 0.0
C113 C 0.24384 0.47152 0.02981 0.0
C114 C 0.26317 0.5131 0.9623 0.0
C115 C 0.2671 0.53231 0.96319 0.0
C116 C 0.26373 0.54354 0.92784 0.0
C117 C 0.25664 0.53567 0.89065 0.0
C118 C 0.25243 0.51644 0.89002 0.0
C119 C 0.25569 0.50523 0.9256 0.0
P120 P 0.98696 0.76931 0.51056 0.0
H121 H 0.99556 0.7641 0.59959 0.0
H122 H 0.97626 0.75546 0.65998 0.0
H123 H 0.92823 0.74962 0.57744 0.0
H124 H 0.94751 0.75792 0.51762 0.0
H125 H 0.02281 0.78067 0.47669 0.0
H126 H 0.05349 0.76561 0.4751 0.0
H127 H 0.0306 0.71696 0.5381 0.0
H128 H -0.00014 0.73223 0.53973 0.0
H129 H 0.96771 0.79436 0.4513 0.0
H130 H 0.97906 0.73522 0.4636 0.0
O131 O 0.99059 0.79224 0.51629 0.0
H132 H 0.94887 0.78857 0.38848 0.0
H133 H 0.96036 0.72929 0.40019 0.0
C134 C 0.97308 0.76135 0.55406 0.0
C135 C 0.98093 0.76066 0.59454 0.0
C136 C 0.96988 0.75582 0.62899 0.0
C137 C 0.95074 0.75174 0.62347 0.0
C138 C 0.94301 0.75228 0.5827 0.0
C139 C 0.95405 0.75713 0.54837 0.0
C140 C 0.00927 0.75777 0.50934 0.0
C141 C 0.02441 0.76678 0.49025 0.0
C142 C 0.04188 0.75807 0.48899 0.0
C143 C 0.04445 0.74011 0.50659 0.0
C144 C 0.02907 0.7309 0.52481 0.0
C145 C 0.01155 0.73962 0.52582 0.0
C146 C 0.97494 0.76524 0.46171 0.0
C147 C 0.96644 0.78016 0.44 0.0
C148 C 0.95573 0.77683 0.40397 0.0
C149 C 0.9532 0.75848 0.38925 0.0
C150 C 0.96198 0.74357 0.41088 0.0
C151 C 0.97277 0.74694 0.44687 0.0
P152 P 0.82772 0.46778 0.00091 0.0
H153 H 0.84034 0.4613 0.91538 0.0
H154 H 0.82512 0.44742 0.85384 0.0
H155 H 0.77577 0.4362 0.92764 0.0
H156 H 0.79088 0.4504 0.98845 0.0
H157 H 0.84669 0.49912 0.04078 0.0
H158 H 0.8406 0.5329 0.0405 0.0
H159 H 0.79388 0.52457 0.95542 0.0
H160 H 0.80014 0.49104 0.95549 0.0
H161 H 0.83454 0.43354 0.049 0.0
H162 H 0.79847 0.48181 0.05687 0.0
O163 O 0.85067 0.46337 0.00091 0.0
H164 H 0.81959 0.41988 0.1109 0.0
H165 H 0.78381 0.46853 0.11927 0.0
C166 C 0.81691 0.45647 0.95665 0.0
C167 C 0.82631 0.45568 0.9183 0.0
C168 C 0.81759 0.44775 0.8832 0.0
C169 C 0.79924 0.44067 0.88586 0.0
C170 C 0.78983 0.44169 0.92438 0.0
C171 C 0.79856 0.44961 0.95938 0.0
C172 C 0.82414 0.49266 0.99749 0.0
C173 C 0.83532 0.50465 0.02161 0.0
C174 C 0.83173 0.52389 0.02171 0.0
C175 C 0.81681 0.53139 0.99778 0.0
C176 C 0.80568 0.51927 0.97356 0.0
C177 C 0.80925 0.50006 0.97361 0.0
C178 C 0.81788 0.45881 0.04884 0.0
C179 C 0.82366 0.44135 0.06456 0.0
C180 C 0.81513 0.4336 0.10003 0.0
C181 C 0.80056 0.44317 0.12019 0.0
C182 C 0.79489 0.46075 0.10434 0.0
C183 C 0.80341 0.46845 0.06884 0.0
P184 P 0.01995 0.31126 0.49623 0.0
H185 H 0.03004 0.32542 0.41314 0.0
H186 H 0.04311 0.31032 0.35124 0.0
H187 H 0.04457 0.25746 0.41846 0.0
H188 H 0.03131 0.27259 0.4799 0.0
H189 H 0.99085 0.331 0.54122 0.0
H190 H 0.95669 0.32789 0.54238 0.0
H191 H 0.95989 0.2839 0.45041 0.0
H192 H 0.99385 0.28726 0.44898 0.0
H193 H 0.05447 0.31637 0.54415 0.0
H194 H 0.00528 0.28143 0.55095 0.0
O195 O 0.02596 0.33385 0.49636 0.0
H196 H 0.06755 0.30051 0.60615 0.0
H197 H 0.01803 0.2658 0.61348 0.0
C198 C 0.03013 0.30021 0.45134 0.0
C199 C 0.03331 0.31061 0.41459 0.0
C200 C 0.04078 0.30197 0.37928 0.0
C201 C 0.04495 0.28271 0.38003 0.0
C202 C 0.04138 0.27228 0.41677 0.0
C203 C 0.034 0.28096 0.45209 0.0
C204 C 0.99483 0.30962 0.49452 0.0
C205 C 0.98413 0.32086 0.52097 0.0
C206 C 0.96466 0.31895 0.52186 0.0
C207 C 0.9556 0.30569 0.49637 0.0
C208 C 0.96642 0.29446 0.46987 0.0
C209 C 0.98589 0.29635 0.46911 0.0
C210 C 0.02878 0.30034 0.54351 0.0
C211 C 0.04636 0.30549 0.55944 0.0
C212 C 0.05377 0.29646 0.59497 0.0
C213 C 0.04376 0.28198 0.61498 0.0
C214 C 0.02613 0.27682 0.59871 0.0
C215 C 0.01875 0.28588 0.56316 0.0
P216 P 0.75775 0.98351 0.49739 0.0
H217 H 0.77713 0.98054 0.41749 0.0
H218 H 0.77065 0.96254 0.35433 0.0
H219 H 0.71785 0.94452 0.40658 0.0
H220 H 0.72473 0.96227 0.47028 0.0
H221 H 0.77075 0.01771 0.53673 0.0
H222 H 0.75805 0.04938 0.53935 0.0
H223 H 0.70959 0.03151 0.46784 0.0
H224 H 0.72253 -0.0002 0.46498 0.0
H225 H 0.76004 0.94342 0.51202 0.0
H226 H 0.7406 0.99182 0.57907 0.0
O227 O 0.78104 0.98539 0.50014 0.0
H228 H 0.753 0.92354 0.57251 0.0
H229 H 0.73343 0.97193 0.63981 0.0
C230 C 0.75161 0.97235 0.44881 0.0
C231 C 0.7641 0.97284 0.4152 0.0
C232 C 0.76027 0.96267 0.37891 0.0
C233 C 0.74378 0.95195 0.37552 0.0
C234 C 0.73082 0.95236 0.40851 0.0
C235 C 0.7347 0.96253 0.44484 0.0
C236 C 0.7478 0.00656 0.49981 0.0
C237 C 0.75741 0.02061 0.52154 0.0
C238 C 0.75004 0.03866 0.52339 0.0
C239 C 0.73283 0.04295 0.5037 0.0
C240 C 0.72299 0.02867 0.48283 0.0
C241 C 0.73037 0.01056 0.48117 0.0
C242 C 0.75056 0.96902 0.54077 0.0
C243 C 0.7539 0.94971 0.53948 0.0
C244 C 0.74979 0.93835 0.57404 0.0
C245 C 0.74251 0.94616 0.61081 0.0
C246 C 0.73905 0.96554 0.61191 0.0
C247 C 0.74307 0.9769 0.57712 0.0
P248 P 0.49456 0.27028 0.99346 0.0
H249 H 0.4972 0.28984 0.91284 0.0
H250 H 0.51718 0.28552 0.85214 0.0
H251 H 0.5415 0.23631 0.91116 0.0
H252 H 0.52167 0.24108 0.97248 0.0
H253 H 0.46578 0.2669 0.05628 0.0
H254 H 0.43688 0.2488 0.05984 0.0
H255 H 0.45154 0.2208 0.94487 0.0
H256 H 0.48015 0.23947 0.9409 0.0
H257 H 0.51747 0.29793 0.03638 0.0
H258 H 0.5051 0.23905 0.04947 0.0
O259 O 0.48591 0.29198 0.99057 0.0
H260 H 0.53848 0.29609 0.09721 0.0
H261 H 0.52603 0.23711 0.11084 0.0
C262 C 0.50824 0.26599 0.94743 0.0
C263 C 0.50678 0.27809 0.91271 0.0
C264 C 0.51811 0.27548 0.87777 0.0
C265 C 0.53102 0.2606 0.87679 0.0
C266 C 0.53193 0.24808 0.91118 0.0
C267 C 0.52059 0.25076 0.9462 0.0
C268 C 0.47502 0.25459 0.99833 0.0
C269 C 0.46288 0.25666 0.03219 0.0
C270 C 0.44642 0.24616 0.03433 0.0
C271 C 0.44183 0.23334 0.00256 0.0
C272 C 0.45452 0.23073 0.96955 0.0
C273 C 0.47097 0.24133 0.96736 0.0
C274 C 0.50948 0.26872 0.03906 0.0
C275 C 0.51912 0.28465 0.05272 0.0
C276 C 0.53107 0.28358 0.08757 0.0
C277 C 0.53374 0.26649 0.1091 0.0
C278 C 0.52426 0.25046 0.09486 0.0
C279 C 0.51222 0.25157 0.06001 0.0
P280 P 0.3156 0.01973 0.5078 0.0
H281 H 0.32777 0.02601 0.59426 0.0
H282 H 0.312 0.03906 0.65539 0.0
H283 H 0.26242 0.04898 0.57943 0.0
H284 H 0.27809 0.03564 0.51903 0.0
H285 H 0.33519 0.98953 0.46602 0.0
H286 H 0.33075 0.95551 0.46568 0.0
H287 H 0.28451 0.96122 0.55129 0.0
H288 H 0.28913 0.99503 0.5518 0.0
H289 H 0.32411 0.05303 0.45794 0.0
H290 H 0.28484 0.00718 0.45316 0.0
O291 O 0.33843 0.02473 0.50969 0.0
H292 H 0.30935 0.06705 0.3956 0.0
H293 H 0.26973 0.02127 0.39146 0.0
C294 C 0.30427 0.03028 0.55192 0.0
C295 C 0.31356 0.03115 0.59079 0.0
C296 C 0.30453 0.0386 0.62566 0.0
C297 C 0.28597 0.0451 0.62225 0.0
C298 C 0.27665 0.04393 0.58326 0.0
C299 C 0.28569 0.03651 0.54848 0.0
C300 C 0.31276 0.99474 0.50956 0.0
C301 C 0.32423 0.98339 0.48502 0.0
C302 C 0.32158 0.964 0.4846 0.0
C303 C 0.30734 0.95569 0.50865 0.0
C304 C 0.29581 0.96717 0.53304 0.0
C305 C 0.29844 0.98654 0.5333 0.0
C306 C 0.30579 0.02893 0.45965 0.0
C307 C 0.31245 0.04588 0.44314 0.0
C308 C 0.30388 0.05394 0.40774 0.0
C309 C 0.28834 0.04528 0.38854 0.0
C310 C 0.28185 0.02815 0.40502 0.0
C311 C 0.29047 0.02009 0.44038 0.0
P312 P 0.46929 0.82656 0.00076 0.0
H313 H 0.46147 0.83961 0.08552 0.0
H314 H 0.44545 0.82513 0.14529 0.0
H315 H 0.43565 0.77539 0.07191 0.0
H316 H 0.45137 0.79002 0.01239 0.0
H317 H 0.50172 0.84388 0.96156 0.0
H318 H 0.5352 0.83633 0.96317 0.0
H319 H 0.52421 0.79004 0.04784 0.0
H320 H 0.49096 0.79774 0.04642 0.0
H321 H 0.43447 0.8342 0.95589 0.0
H322 H 0.48253 0.79831 0.94111 0.0
O323 O 0.46614 0.84972 0.00144 0.0
H324 H 0.41971 0.82014 0.89411 0.0
H325 H 0.46783 0.78413 0.8796 0.0
C326 C 0.45714 0.81609 0.04426 0.0
C327 C 0.45571 0.82566 0.08228 0.0
C328 C 0.44672 0.8173 0.1165 0.0
C329 C 0.43915 0.79916 0.11322 0.0
C330 C 0.44098 0.78951 0.07519 0.0
C331 C 0.44997 0.79788 0.0411 0.0
C332 C 0.49394 0.82163 0.00449 0.0
C333 C 0.5066 0.83226 0.98084 0.0
C334 C 0.52567 0.82783 0.98151 0.0
C335 C 0.53234 0.81264 0.00579 0.0
C336 C 0.51955 0.80202 0.02942 0.0
C337 C 0.5005 0.80642 0.02857 0.0
C338 C 0.45969 0.81756 0.95262 0.0
C339 C 0.44195 0.82349 0.93897 0.0
C340 C 0.43348 0.81534 0.90391 0.0
C341 C 0.44263 0.80102 0.88202 0.0
C342 C 0.46057 0.79531 0.89546 0.0
C343 C 0.46898 0.80342 0.93067 0.0
H344 H 0.16266 0.23401 0.12336 0.0
H345 H 0.13741 0.24505 0.16766 0.0
H346 H 0.10326 0.19806 0.13102 0.0
H347 H 0.1286 0.18674 0.08606 0.0
H348 H 0.09686 0.2523 0.14087 0.0
H349 H 0.10793 0.19798 0.26572 0.0
H350 H 0.12628 0.20422 0.22952 0.0
H351 H 0.10649 0.19097 0.21155 0.0
C352 C 0.14981 0.22595 0.12455 0.0
C353 C 0.14772 0.20938 0.10135 0.0
C354 C 0.13537 0.23236 0.14978 0.0
C355 C 0.11858 0.22231 0.15268 0.0
C356 C 0.11621 0.20592 0.12922 0.0
H357 H 0.03606 0.24866 0.34614 0.0
H358 H 0.05106 0.2332 0.28686 0.0
C359 C 0.13066 0.19953 0.10355 0.0
C360 C 0.10395 0.22901 0.18136 0.0
H361 H 0.08736 0.22262 0.28054 0.0
C362 C 0.0945 0.24568 0.17117 0.0
C363 C 0.1009 0.22024 0.22064 0.0
C364 C 0.11091 0.20238 0.23291 0.0
C365 C 0.08252 0.25421 0.19996 0.0
C366 C 0.08037 0.24608 0.24033 0.0
C367 C 0.0891 0.22888 0.24967 0.0
C368 C 0.07042 0.25586 0.27439 0.0
C369 C 0.07248 0.27197 0.18701 0.0
C370 C 0.07643 0.27365 0.28725 0.0
C371 C 0.06793 0.28249 0.32101 0.0
C372 C 0.05337 0.27361 0.34298 0.0
C373 C 0.04734 0.25579 0.33003 0.0
C374 C 0.05582 0.24698 0.29608 0.0
H375 H 0.07037 0.27271 0.15242 0.0
H376 H 0.05863 0.27308 0.20239 0.0
H377 H 0.0811 0.28422 0.19628 0.0
H378 H 0.08805 0.28052 0.27182 0.0
H379 H 0.07312 0.29605 0.33071 0.0
H380 H 0.26564 0.67533 0.65044 0.0
H381 H 0.25834 0.64865 0.69573 0.0
H382 H 0.28735 0.61183 0.6117 0.0
H383 H 0.29513 0.63854 0.56644 0.0
H384 H 0.23879 0.61594 0.6804 0.0
H385 H 0.31299 0.60097 0.72389 0.0
H386 H 0.30598 0.6223 0.69731 0.0
H387 H 0.308 0.60086 0.66853 0.0
C388 C 0.2705 0.66158 0.64146 0.0
C389 C 0.28117 0.65913 0.60497 0.0
C390 C 0.26625 0.64633 0.66738 0.0
C391 C 0.27253 0.62832 0.65738 0.0
C392 C 0.28271 0.62569 0.62043 0.0
H393 H 0.26783 0.52672 0.8116 0.0
H394 H 0.26925 0.54749 0.75012 0.0
C395 C 0.2871 0.64097 0.59456 0.0
C396 C 0.26869 0.61248 0.68638 0.0
H397 H 0.29008 0.58091 0.75208 0.0
C398 C 0.24999 0.60819 0.6959 0.0
C399 C 0.28334 0.60241 0.70653 0.0
C400 C 0.30371 0.60692 0.69893 0.0
C401 C 0.24556 0.59423 0.72551 0.0
C402 C 0.26022 0.58448 0.74627 0.0
C403 C 0.27888 0.58838 0.73587 0.0
C404 C 0.25672 0.57115 0.78115 0.0
C405 C 0.22525 0.59009 0.7345 0.0
C406 C 0.24894 0.57753 0.81869 0.0
C407 C 0.2481 0.56571 0.85381 0.0
C408 C 0.25507 0.54733 0.85201 0.0
C409 C 0.26214 0.54074 0.81381 0.0
C410 C 0.26305 0.5526 0.77874 0.0
H411 H 0.21597 0.59475 0.70822 0.0
H412 H 0.22303 0.57488 0.74022 0.0
H413 H 0.22104 0.59771 0.76311 0.0
H414 H 0.24428 0.5919 0.82141 0.0
H415 H 0.24247 0.57113 0.88276 0.0
H416 H 0.84484 0.78326 0.0794 0.0
H417 H 0.87042 0.77625 0.12827 0.0
H418 H 0.83634 0.73448 0.18959 0.0
H419 H 0.81045 0.74161 0.14128 0.0
H420 H 0.85171 0.75907 0.24436 0.0
H421 H 0.90673 0.73284 0.13861 0.0
H422 H 0.89746 0.75504 0.12169 0.0
H423 H 0.88246 0.73477 0.12257 0.0
C424 C 0.84281 0.77239 0.10288 0.0
C425 C 0.82552 0.76306 0.10647 0.0
C426 C 0.85754 0.76829 0.1306 0.0
C427 C 0.85539 0.75463 0.16213 0.0
C428 C 0.83832 0.74498 0.16526 0.0
H429 H 0.92685 0.7309 0.38137 0.0
H430 H 0.90373 0.72722 0.32477 0.0
C431 C 0.82353 0.74912 0.13766 0.0
C432 C 0.87029 0.75176 0.19421 0.0
H433 H 0.91703 0.74292 0.20691 0.0
C434 C 0.86592 0.75522 0.23629 0.0
C435 C 0.88882 0.74679 0.18352 0.0
C436 C 0.89412 0.74196 0.13918 0.0
C437 C 0.87976 0.75466 0.26778 0.0
C438 C 0.8984 0.75026 0.2569 0.0
C439 C 0.90271 0.74631 0.21503 0.0
C440 C 0.91372 0.75086 0.28836 0.0
C441 C 0.8745 0.75956 0.31216 0.0
C442 C 0.9274 0.76491 0.28566 0.0
C443 C 0.94068 0.76697 0.31773 0.0
C444 C 0.94055 0.75495 0.35297 0.0
C445 C 0.92738 0.74031 0.35453 0.0
C446 C 0.91408 0.73827 0.32243 0.0
H447 H 0.86035 0.76598 0.31377 0.0
H448 H 0.8745 0.74663 0.33179 0.0
H449 H 0.88485 0.76941 0.32594 0.0
H450 H 0.92737 0.7747 0.25945 0.0
H451 H 0.95083 0.77821 0.31537 0.0
H452 H 0.7394 0.3171 0.64772 0.0
H453 H 0.75088 0.3411 0.69528 0.0
H454 H 0.72378 0.38384 0.62 0.0
H455 H 0.7121 0.35983 0.57171 0.0
H456 H 0.76303 0.39105 0.64533 0.0
H457 H 0.71721 0.37095 0.77816 0.0
H458 H 0.72945 0.35167 0.75506 0.0
H459 H 0.71225 0.36434 0.72456 0.0
C460 C 0.73581 0.33158 0.64106 0.0
C461 C 0.72471 0.3365 0.60589 0.0
C462 C 0.74235 0.34526 0.66846 0.0
C463 C 0.73796 0.36416 0.66139 0.0
C464 C 0.7272 0.36927 0.62603 0.0
H465 H 0.76283 0.44473 0.85937 0.0
H466 H 0.7471 0.42866 0.80139 0.0
C467 C 0.72052 0.35554 0.59857 0.0
C468 C 0.74485 0.37841 0.69113 0.0
H469 H 0.74345 0.39039 0.79444 0.0
C470 C 0.75859 0.39114 0.67781 0.0
C471 C 0.73884 0.37859 0.73327 0.0
C472 C 0.7235 0.36578 0.74865 0.0
C473 C 0.76717 0.40347 0.70623 0.0
C474 C 0.76196 0.40283 0.74897 0.0
C475 C 0.74754 0.39074 0.76173 0.0
C476 C 0.77186 0.41382 0.78153 0.0
C477 C 0.78184 0.41692 0.69037 0.0
C478 C 0.79099 0.41078 0.78958 0.0
C479 C 0.79999 0.41983 0.82283 0.0
C480 C 0.78998 0.43199 0.84888 0.0
C481 C 0.77088 0.43526 0.84024 0.0
C482 C 0.7619 0.4262 0.80698 0.0
H483 H 0.78022 0.4196 0.6561 0.0
H484 H 0.78116 0.43048 0.70708 0.0
H485 H 0.79594 0.41076 0.69591 0.0
H486 H 0.79883 0.40093 0.77097 0.0
H487 H 0.81463 0.41679 0.82902 0.0
H488 H 0.64184 0.30375 0.41734 0.0
H489 H 0.61642 0.29705 0.36784 0.0
H490 H 0.6474 0.25001 0.32051 0.0
H491 H 0.67305 0.25675 0.36927 0.0
H492 H 0.63487 0.27318 0.2583 0.0
H493 H 0.57674 0.25636 0.36644 0.0
H494 H 0.58771 0.27842 0.37741 0.0
H495 H 0.60091 0.25709 0.38359 0.0
C496 C 0.64318 0.29184 0.39679 0.0
C497 C 0.65955 0.28085 0.39722 0.0
C498 C 0.62856 0.28795 0.36869 0.0
C499 C 0.62991 0.27287 0.34092 0.0
C500 C 0.64605 0.26166 0.34183 0.0
H501 H 0.55996 0.23953 0.1271 0.0
H502 H 0.58282 0.2392 0.18502 0.0
C503 C 0.6607 0.26558 0.36971 0.0
C504 C 0.6152 0.2697 0.30865 0.0
H505 H 0.56825 0.26255 0.29471 0.0
C506 C 0.62035 0.27062 0.26625 0.0
C507 C 0.59627 0.26638 0.31916 0.0
C508 C 0.59008 0.26431 0.36413 0.0
C509 C 0.60696 0.26893 0.23401 0.0
C510 C 0.58798 0.26602 0.24452 0.0
C511 C 0.58285 0.26478 0.28687 0.0
C512 C 0.57319 0.26517 0.21182 0.0
C513 C 0.61313 0.27092 0.18897 0.0
C514 C 0.55989 0.27957 0.20866 0.0
C515 C 0.54679 0.27976 0.17582 0.0
C516 C 0.54672 0.26548 0.1457 0.0
C517 C 0.55962 0.25068 0.14992 0.0
C518 C 0.57276 0.25054 0.18275 0.0
H519 H 0.62754 0.27668 0.18654 0.0
H520 H 0.61293 0.25695 0.17396 0.0
H521 H 0.6034 0.2802 0.17103 0.0
H522 H 0.55996 0.29094 0.23097 0.0
H523 H 0.53683 0.29118 0.17377 0.0
H524 H 0.19613 0.12575 0.93059 0.0
H525 H 0.20758 0.10132 0.88343 0.0
H526 H 0.23951 0.14268 0.81537 0.0
H527 H 0.2283 0.16702 0.86167 0.0
H528 H 0.21558 0.11802 0.76524 0.0
H529 H 0.26317 0.08062 0.87764 0.0
H530 H 0.23956 0.08553 0.89378 0.0
H531 H 0.25571 0.10446 0.88605 0.0
C532 C 0.20562 0.12962 0.90565 0.0
C533 C 0.21127 0.14838 0.9 0.0
C534 C 0.21219 0.11565 0.87888 0.0
C535 C 0.22444 0.12025 0.84616 0.0
C536 C 0.23007 0.13888 0.84051 0.0
H537 H 0.30065 0.06931 0.67992 0.0
H538 H 0.28426 0.08495 0.73684 0.0
C539 C 0.22362 0.15277 0.86714 0.0
C540 C 0.23128 0.10596 0.81674 0.0
H541 H 0.26318 0.07064 0.80741 0.0
C542 C 0.22576 0.10744 0.77446 0.0
C543 C 0.24468 0.09237 0.82904 0.0
C544 C 0.25129 0.09057 0.87402 0.0
C545 C 0.23374 0.09606 0.74378 0.0
C546 C 0.24743 0.0827 0.75589 0.0
C547 C 0.25259 0.08084 0.79838 0.0
C548 C 0.25758 0.07164 0.7243 0.0
C549 C 0.22812 0.09903 0.69838 0.0
C550 C 0.24808 0.05866 0.69911 0.0
C551 C 0.25741 0.04967 0.66659 0.0
C552 C 0.27642 0.05348 0.65882 0.0
C553 C 0.28606 0.06595 0.68525 0.0
C554 C 0.27671 0.07493 0.71773 0.0
H555 H 0.21996 0.11215 0.69359 0.0
H556 H 0.24068 0.09959 0.67809 0.0
H557 H 0.2193 0.08712 0.68795 0.0
H558 H 0.23338 0.05573 0.70414 0.0
H559 H 0.2497 0.03986 0.6473 0.0
H560 H 0.31559 0.7451 0.36372 0.0
H561 H 0.33915 0.75779 0.31657 0.0
H562 H 0.38158 0.72387 0.37734 0.0
H563 H 0.35799 0.7108 0.42477 0.0
H564 H 0.37245 0.77733 0.33651 0.0
H565 H 0.38604 0.71102 0.25133 0.0
H566 H 0.3658 0.71411 0.28414 0.0
H567 H 0.38843 0.7101 0.30758 0.0
C568 C 0.3299 0.74024 0.3672 0.0
C569 C 0.33484 0.7268 0.39797 0.0
C570 C 0.34336 0.74759 0.34023 0.0
C571 C 0.36204 0.74163 0.34323 0.0
C572 C 0.36716 0.72843 0.37417 0.0
H573 H 0.449 0.79946 0.19668 0.0
H574 H 0.43207 0.78519 0.25547 0.0
C575 C 0.35367 0.72104 0.40133 0.0
C576 C 0.37592 0.74932 0.31346 0.0
H577 H 0.40251 0.73781 0.229 0.0
C578 C 0.37922 0.7687 0.31325 0.0
C579 C 0.38453 0.73797 0.28303 0.0
C580 C 0.38099 0.71716 0.28109 0.0
C581 C 0.39056 0.77715 0.28272 0.0
C582 C 0.399 0.76583 0.25198 0.0
C583 C 0.39607 0.74639 0.2528 0.0
C584 C 0.40969 0.77407 0.21676 0.0
C585 C 0.39275 0.79817 0.28246 0.0
C586 C 0.40289 0.77222 0.17556 0.0
C587 C 0.41249 0.78033 0.14203 0.0
C588 C 0.42914 0.7904 0.14903 0.0
C589 C 0.43606 0.79204 0.19036 0.0
C590 C 0.42644 0.78388 0.22394 0.0
H591 H 0.38245 0.8051 0.30317 0.0
H592 H 0.40703 0.80183 0.29379 0.0
H593 H 0.39104 0.80392 0.25013 0.0
H594 H 0.38996 0.76474 0.16942 0.0
H595 H 0.40667 0.77899 0.11067 0.0
H596 H 0.74775 0.8054 0.85424 0.0
H597 H 0.73991 0.83126 0.80633 0.0
H598 H 0.76669 0.87022 0.89036 0.0
H599 H 0.77493 0.84449 0.93809 0.0
H600 H 0.71972 0.86472 0.81623 0.0
H601 H 0.7946 0.87828 0.78032 0.0
H602 H 0.78694 0.85743 0.80761 0.0
H603 H 0.78903 0.87922 0.83511 0.0
C604 C 0.7519 0.81948 0.8627 0.0
C605 C 0.76223 0.82283 0.89972 0.0
C606 C 0.74736 0.83423 0.83531 0.0
C607 C 0.75302 0.85256 0.8445 0.0
C608 C 0.76256 0.85609 0.8823 0.0
H609 H 0.75259 0.95403 0.69164 0.0
H610 H 0.75238 0.93266 0.75213 0.0
C611 C 0.76722 0.84136 0.90955 0.0
C612 C 0.74971 0.86784 0.81362 0.0
H613 H 0.77245 0.89898 0.75016 0.0
C614 C 0.73122 0.87227 0.80182 0.0
C615 C 0.76477 0.87759 0.79486 0.0
C616 C 0.78496 0.87282 0.80475 0.0
C617 C 0.7274 0.88629 0.77172 0.0
C618 C 0.74247 0.89591 0.75281 0.0
C619 C 0.76092 0.89165 0.76505 0.0
C620 C 0.73969 0.90969 0.71837 0.0
C621 C 0.7073 0.89075 0.76051 0.0
C622 C 0.73233 0.90392 0.67962 0.0
C623 C 0.73239 0.91609 0.64505 0.0
C624 C 0.73991 0.93422 0.64864 0.0
C625 C 0.74651 0.94023 0.688 0.0
C626 C 0.74648 0.92802 0.72252 0.0
H627 H 0.69755 0.88598 0.78542 0.0
H628 H 0.70535 0.90603 0.75525 0.0
H629 H 0.70345 0.88346 0.73105 0.0
H630 H 0.72732 0.88972 0.67557 0.0
H631 H 0.72708 0.91114 0.61518 0.0
H632 H 0.84353 0.78284 0.92464 0.0
H633 H 0.86855 0.77489 0.87625 0.0
H634 H 0.83416 0.73128 0.82317 0.0
H635 H 0.80885 0.73932 0.87092 0.0
H636 H 0.8882 0.74154 0.8616 0.0
H637 H 0.84658 0.76433 0.72164 0.0
H638 H 0.83966 0.7697 0.77451 0.0
H639 H 0.83573 0.74669 0.75378 0.0
C640 C 0.84127 0.77149 0.90286 0.0
C641 C 0.82405 0.76189 0.90132 0.0
C642 C 0.85563 0.76693 0.8753 0.0
C643 C 0.85307 0.75271 0.84573 0.0
C644 C 0.83625 0.74256 0.84523 0.0
H645 H 0.92274 0.72571 0.63097 0.0
H646 H 0.89992 0.72289 0.68758 0.0
C647 C 0.82182 0.74716 0.87263 0.0
C648 C 0.86775 0.74917 0.81429 0.0
H649 H 0.87669 0.75234 0.70942 0.0
C650 C 0.88569 0.74378 0.82828 0.0
C651 C 0.86439 0.75212 0.77088 0.0
C652 C 0.84561 0.75868 0.75418 0.0
C653 C 0.90044 0.74142 0.79994 0.0
C654 C 0.89715 0.74478 0.75669 0.0
C655 C 0.87911 0.74968 0.74263 0.0
C656 C 0.9124 0.74462 0.72556 0.0
C657 C 0.91939 0.73541 0.8165 0.0
C658 C 0.92707 0.75764 0.72845 0.0
C659 C 0.94005 0.75937 0.69608 0.0
C660 C 0.93848 0.74819 0.66009 0.0
C661 C 0.92417 0.73467 0.65806 0.0
C662 C 0.9112 0.73296 0.69044 0.0
H663 H 0.91827 0.72816 0.84741 0.0
H664 H 0.92646 0.72594 0.79417 0.0
H665 H 0.92833 0.74798 0.82078 0.0
H666 H 0.92799 0.76708 0.75481 0.0
H667 H 0.95071 0.77012 0.69833 0.0
H668 H 0.71017 0.36019 0.42655 0.0
H669 H 0.72178 0.38439 0.37816 0.0
H670 H 0.75425 0.34284 0.31377 0.0
H671 H 0.7428 0.31865 0.36136 0.0
H672 H 0.76009 0.39499 0.35953 0.0
H673 H 0.7218 0.36801 0.22044 0.0
H674 H 0.71579 0.36145 0.27355 0.0
H675 H 0.73518 0.3504 0.24798 0.0
C676 C 0.71979 0.3562 0.40212 0.0
C677 C 0.7254 0.33741 0.39769 0.0
C678 C 0.72641 0.37005 0.37457 0.0
C679 C 0.7386 0.3653 0.34207 0.0
C680 C 0.74456 0.3467 0.33821 0.0
H681 H 0.81607 0.42348 0.18608 0.0
H682 H 0.7997 0.40698 0.24244 0.0
C683 C 0.73802 0.33291 0.36563 0.0
C684 C 0.74525 0.37961 0.31183 0.0
H685 H 0.74682 0.38941 0.20693 0.0
C686 C 0.75702 0.39397 0.32621 0.0
C687 C 0.74096 0.37839 0.26853 0.0
C688 C 0.72759 0.36384 0.25166 0.0
C689 C 0.76537 0.40663 0.298 0.0
C690 C 0.76204 0.40462 0.2544 0.0
C691 C 0.74952 0.39082 0.24033 0.0
C692 C 0.77202 0.41599 0.22252 0.0
C693 C 0.77779 0.42192 0.3151 0.0
C694 C 0.76189 0.4263 0.19224 0.0
C695 C 0.77119 0.43549 0.1596 0.0
C696 C 0.79081 0.43447 0.15649 0.0
C697 C 0.80094 0.42441 0.18736 0.0
C698 C 0.79162 0.41519 0.21995 0.0
H699 H 0.77425 0.42522 0.34812 0.0
H700 H 0.79258 0.41717 0.3146 0.0
H701 H 0.77659 0.43492 0.29583 0.0
H702 H 0.74673 0.42692 0.1934 0.0
H703 H 0.76293 0.44288 0.13603 0.0
H704 H 0.12693 0.19237 0.92718 0.0
H705 H 0.1021 0.20238 0.87798 0.0
H706 H 0.1418 0.23683 0.81145 0.0
H707 H 0.16655 0.22705 0.85981 0.0
H708 H 0.08999 0.24084 0.85707 0.0
H709 H 0.11772 0.20246 0.72049 0.0
H710 H 0.1243 0.19676 0.77403 0.0
H711 H 0.13506 0.21624 0.74736 0.0
C712 C 0.13037 0.20207 0.90207 0.0
C713 C 0.1488 0.2088 0.89738 0.0
C714 C 0.11617 0.20777 0.87407 0.0
C715 C 0.12024 0.2201 0.84082 0.0
C716 C 0.13847 0.22706 0.83653 0.0
H717 H 0.06305 0.29694 0.68135 0.0
H718 H 0.0788 0.28016 0.7388 0.0
C719 C 0.15259 0.22148 0.86442 0.0
C720 C 0.10561 0.22603 0.81035 0.0
H721 H 0.09605 0.22726 0.70527 0.0
C722 C 0.09107 0.23764 0.82395 0.0
C723 C 0.10693 0.2216 0.76733 0.0
C724 C 0.12174 0.20843 0.75139 0.0
C725 C 0.07843 0.24584 0.79513 0.0
C726 C 0.08062 0.24248 0.75172 0.0
C727 C 0.09449 0.22998 0.73851 0.0
C728 C 0.06959 0.25268 0.71915 0.0
C729 C 0.06304 0.25823 0.81136 0.0
C730 C 0.05942 0.24279 0.68864 0.0
C731 C 0.05064 0.25233 0.65537 0.0
C732 C 0.05199 0.27195 0.65185 0.0
C733 C 0.0619 0.28182 0.68294 0.0
C734 C 0.07067 0.27227 0.71615 0.0
H735 H 0.05949 0.25457 0.84433 0.0
H736 H 0.06785 0.27301 0.81074 0.0
H737 H 0.05017 0.25715 0.79165 0.0
H738 H 0.05859 0.22764 0.69013 0.0
H739 H 0.04333 0.24428 0.63167 0.0
H740 H 0.29647 0.64043 0.43141 0.0
H741 H 0.28874 0.61485 0.38357 0.0
H742 H 0.25025 0.65091 0.31617 0.0
H743 H 0.25778 0.67658 0.36355 0.0
H744 H 0.25015 0.59924 0.35916 0.0
H745 H 0.29098 0.63198 0.22961 0.0
H746 H 0.29478 0.6379 0.28405 0.0
H747 H 0.27462 0.64679 0.25629 0.0
C748 C 0.28627 0.64292 0.40659 0.0
C749 C 0.27789 0.66065 0.40113 0.0
C750 C 0.28183 0.62827 0.37944 0.0
C751 C 0.26905 0.63112 0.34632 0.0
C752 C 0.26024 0.64854 0.34147 0.0
H753 H 0.24317 0.56727 0.12397 0.0
H754 H 0.24293 0.5904 0.1798 0.0
C755 C 0.2646 0.66318 0.36863 0.0
C756 C 0.26564 0.61621 0.31537 0.0
H757 H 0.27442 0.60439 0.21402 0.0
C758 C 0.25541 0.60029 0.32738 0.0
C759 C 0.27252 0.61776 0.27406 0.0
C760 C 0.28395 0.63444 0.26006 0.0
C761 C 0.25167 0.58589 0.29874 0.0
C762 C 0.25873 0.58735 0.25745 0.0
C763 C 0.26893 0.60334 0.2456 0.0
C764 C 0.25631 0.57234 0.22605 0.0
C765 C 0.23993 0.56944 0.3127 0.0
C766 C 0.26355 0.55435 0.23377 0.0
C767 C 0.26346 0.54096 0.20204 0.0
C768 C 0.25636 0.5454 0.16178 0.0
C769 C 0.24851 0.56324 0.15468 0.0
C770 C 0.24849 0.57655 0.1865 0.0
H771 H 0.23101 0.57307 0.33985 0.0
H772 H 0.23078 0.56439 0.28678 0.0
H773 H 0.24931 0.55779 0.32267 0.0
H774 H 0.26998 0.55088 0.26377 0.0
H775 H 0.26941 0.52729 0.20873 0.0
H776 H 0.35927 0.70566 0.58334 0.0
H777 H 0.38424 0.71813 0.62869 0.0
H778 H 0.34647 0.7604 0.67366 0.0
H779 H 0.32157 0.74822 0.62881 0.0
H780 H 0.38423 0.77316 0.64923 0.0
H781 H 0.38331 0.71259 0.76106 0.0
H782 H 0.38529 0.70787 0.70581 0.0
H783 H 0.36396 0.71747 0.72569 0.0
C784 C 0.35631 0.71766 0.60275 0.0
C785 C 0.33835 0.72583 0.60267 0.0
C786 C 0.37057 0.72471 0.62866 0.0
C787 C 0.3671 0.74008 0.65461 0.0
C788 C 0.34938 0.74851 0.65383 0.0
H789 H 0.40638 0.78912 0.87789 0.0
H790 H 0.39052 0.77352 0.81954 0.0
C791 C 0.33514 0.74145 0.62828 0.0
C792 C 0.38156 0.74727 0.68379 0.0
H793 H 0.40212 0.73833 0.77906 0.0
C794 C 0.38846 0.76546 0.67727 0.0
C795 C 0.38683 0.73717 0.72041 0.0
C796 C 0.37946 0.71771 0.72908 0.0
C797 C 0.40004 0.77409 0.70723 0.0
C798 C 0.40481 0.76421 0.74446 0.0
C799 C 0.39845 0.74578 0.75031 0.0
C800 C 0.41483 0.7734 0.77948 0.0
C801 C 0.40631 0.79403 0.69997 0.0
C802 C 0.43377 0.77839 0.77619 0.0
C803 C 0.44287 0.78737 0.8095 0.0
C804 C 0.43312 0.79155 0.84645 0.0
C805 C 0.41418 0.78638 0.84959 0.0
C806 C 0.40515 0.77733 0.81646 0.0
H807 H 0.39954 0.80046 0.67177 0.0
H808 H 0.40307 0.80271 0.72773 0.0
H809 H 0.42172 0.79433 0.69559 0.0
H810 H 0.44147 0.77533 0.74793 0.0
H811 H 0.45746 0.79125 0.80616 0.0
H812 H 0.77461 0.84487 0.0619 0.0
H813 H 0.76639 0.87121 0.10644 0.0
H814 H 0.74209 0.83312 0.19664 0.0
H815 H 0.74989 0.80663 0.15186 0.0
H816 H 0.72074 0.8655 0.18339 0.0
H817 H 0.79558 0.88263 0.21359 0.0
H818 H 0.78912 0.88237 0.159 0.0
H819 H 0.78831 0.86104 0.18942 0.0
C820 C 0.76747 0.84205 0.09115 0.0
C821 C 0.76314 0.8236 0.10359 0.0
C822 C 0.76282 0.85714 0.11659 0.0
C823 C 0.75398 0.85406 0.15518 0.0
C824 C 0.749 0.83576 0.16702 0.0
H825 H 0.73047 0.91608 0.37698 0.0
H826 H 0.73018 0.89366 0.31963 0.0
C827 C 0.75351 0.82065 0.14143 0.0
C828 C 0.75061 0.86983 0.18397 0.0
H829 H 0.77315 0.90324 0.24131 0.0
C830 C 0.73217 0.8738 0.19602 0.0
C831 C 0.76559 0.88058 0.20042 0.0
C832 C 0.78578 0.87637 0.19032 0.0
C833 C 0.72831 0.88832 0.22411 0.0
C834 C 0.7433 0.89895 0.24068 0.0
C835 C 0.76168 0.89515 0.22816 0.0
C836 C 0.74056 0.9133 0.27322 0.0
C837 C 0.70826 0.89222 0.23573 0.0
C838 C 0.74634 0.93182 0.266 0.0
C839 C 0.74647 0.94472 0.29872 0.0
C840 C 0.741 0.93924 0.33935 0.0
C841 C 0.73447 0.92086 0.34596 0.0
C842 C 0.7343 0.908 0.3132 0.0
H843 H 0.69826 0.88643 0.21226 0.0
H844 H 0.70529 0.88554 0.26656 0.0
H845 H 0.70575 0.90751 0.23857 0.0
H846 H 0.7513 0.93613 0.23534 0.0
H847 H 0.75134 0.95883 0.29248 0.0
H848 H 0.67518 0.26338 0.64633 0.0
H849 H 0.64867 0.25619 0.69138 0.0
H850 H 0.61187 0.28679 0.60727 0.0
H851 H 0.63844 0.2945 0.5624 0.0
H852 H 0.60706 0.29685 0.68703 0.0
H853 H 0.60632 0.21945 0.6792 0.0
H854 H 0.62882 0.22831 0.69472 0.0
H855 H 0.61962 0.23376 0.64319 0.0
C856 C 0.66143 0.26844 0.63707 0.0
C857 C 0.65897 0.27955 0.60071 0.0
C858 C 0.64624 0.26416 0.66275 0.0
C859 C 0.62821 0.27063 0.65229 0.0
C860 C 0.62564 0.28153 0.61577 0.0
H861 H 0.5236 0.26607 0.79288 0.0
H862 H 0.54622 0.26719 0.73556 0.0
C863 C 0.64086 0.28596 0.59022 0.0
C864 C 0.61238 0.26729 0.68122 0.0
H865 H 0.58923 0.23315 0.73599 0.0
C866 C 0.60297 0.2829 0.69722 0.0
C867 C 0.60707 0.24907 0.69453 0.0
C868 C 0.61587 0.2317 0.67668 0.0
C869 C 0.58888 0.28085 0.72727 0.0
C870 C 0.58401 0.2627 0.74149 0.0
C871 C 0.5931 0.24704 0.725 0.0
C872 C 0.57004 0.25996 0.77488 0.0
C873 C 0.57968 0.29811 0.7447 0.0
C874 C 0.57595 0.25501 0.81557 0.0
C875 C 0.56314 0.25454 0.84845 0.0
C876 C 0.54416 0.25891 0.84109 0.0
C877 C 0.53817 0.26297 0.79975 0.0
C878 C 0.55102 0.26352 0.76694 0.0
H879 H 0.58686 0.3112 0.7347 0.0
H880 H 0.56491 0.29878 0.73357 0.0
H881 H 0.57956 0.29746 0.77955 0.0
H882 H 0.59062 0.25227 0.82219 0.0
H883 H 0.56828 0.25156 0.87991 0.0
H884 H 0.19962 0.12484 0.06942 0.0
H885 H 0.21088 0.10006 0.11755 0.0
H886 H 0.23283 0.14197 0.20123 0.0
H887 H 0.22186 0.16663 0.15389 0.0
H888 H 0.2512 0.09619 0.14977 0.0
H889 H 0.19817 0.10622 0.27387 0.0
H890 H 0.19427 0.11329 0.21982 0.0
H891 H 0.20838 0.12751 0.25397 0.0
C892 C 0.20676 0.12875 0.09818 0.0
C893 C 0.20982 0.14773 0.10778 0.0
C894 C 0.2132 0.1146 0.12551 0.0
C895 C 0.22248 0.11927 0.163 0.0
C896 C 0.2255 0.13813 0.17261 0.0
H897 H 0.28003 0.08241 0.37917 0.0
H898 H 0.26324 0.09772 0.32129 0.0
C899 C 0.21928 0.1522 0.14534 0.0
C900 C 0.22962 0.1047 0.19225 0.0
H901 H 0.2263 0.09022 0.29423 0.0
C902 C 0.24557 0.09449 0.1811 0.0
C903 C 0.22219 0.10265 0.23297 0.0
C904 C 0.2047 0.11287 0.24591 0.0
C905 C 0.25506 0.08317 0.2107 0.0
C906 C 0.24816 0.08189 0.25215 0.0
C907 C 0.23161 0.09132 0.26249 0.0
C908 C 0.25872 0.07227 0.28627 0.0
C909 C 0.27297 0.07358 0.1982 0.0
C910 C 0.26174 0.05285 0.28573 0.0
C911 C 0.27153 0.04405 0.31869 0.0
C912 C 0.2784 0.05453 0.35277 0.0
C913 C 0.27526 0.07397 0.35309 0.0
C914 C 0.26551 0.08272 0.32021 0.0
H915 H 0.27808 0.0786 0.16722 0.0
H916 H 0.28413 0.07591 0.22213 0.0
H917 H 0.27049 0.05826 0.19619 0.0
H918 H 0.25638 0.0445 0.26008 0.0
H919 H 0.27379 0.02907 0.31741 0.0
H920 H 0.19441 0.26659 0.06751 0.0
H921 H 0.19526 0.30078 0.0698 0.0
H922 H 0.21514 0.30257 0.94229 0.0
H923 H 0.21374 0.26846 0.93927 0.0
H924 H 0.2251 0.32182 0.06456 0.0
H925 H 0.17656 0.34316 0.93685 0.0
H926 H 0.17743 0.31947 0.95712 0.0
H927 H 0.1939 0.32722 0.91806 0.0
C928 C 0.19871 0.27428 0.03973 0.0
C929 C 0.20406 0.26481 0.00322 0.0
C930 C 0.19914 0.29382 0.04107 0.0
C931 C 0.205 0.30428 0.00604 0.0
C932 C 0.21005 0.29486 0.96931 0.0
H933 H 0.26447 0.40722 0.0024 0.0
H934 H 0.25307 0.3751 0.00481 0.0
C935 C 0.20939 0.27533 0.96775 0.0
C936 C 0.20767 0.32481 0.00924 0.0
H937 H 0.1995 0.36628 0.95804 0.0
C938 C 0.21924 0.33156 0.04162 0.0
C939 C 0.19977 0.33761 0.97982 0.0
C940 C 0.18606 0.3315 0.94632 0.0
C941 C 0.22389 0.35058 0.04416 0.0
C942 C 0.21724 0.3631 0.01275 0.0
C943 C 0.20486 0.35658 0.98167 0.0
C944 C 0.22386 0.38273 0.01037 0.0
C945 C 0.23603 0.35702 0.08031 0.0
C946 C 0.21114 0.3977 0.01111 0.0
C947 C 0.2176 0.41619 0.00887 0.0
C948 C 0.2369 0.41996 0.00562 0.0
C949 C 0.24952 0.40486 0.00437 0.0
C950 C 0.24305 0.38646 0.00638 0.0
H951 H 0.23464 0.34755 0.10801 0.0
H952 H 0.25093 0.35683 0.07067 0.0
H953 H 0.23238 0.37147 0.08985 0.0
H954 H 0.19624 0.39509 0.01374 0.0
H955 H 0.2075 0.42749 0.00932 0.0
H956 H 0.21924 0.70656 0.57584 0.0
H957 H 0.18512 0.70451 0.57872 0.0
H958 H 0.18161 0.71491 0.44525 0.0
H959 H 0.21568 0.71664 0.44181 0.0
H960 H 0.16134 0.73272 0.55892 0.0
H961 H 0.14538 0.6717 0.45885 0.0
H962 H 0.16864 0.67639 0.47897 0.0
H963 H 0.16003 0.68853 0.43289 0.0
C964 C 0.21125 0.70819 0.54696 0.0
C965 C 0.22023 0.71184 0.50859 0.0
C966 C 0.19174 0.70695 0.54869 0.0
C967 C 0.18085 0.70926 0.51212 0.0
C968 C 0.18976 0.71259 0.47368 0.0
H969 H 0.06978 0.73907 0.44289 0.0
H970 H 0.10242 0.72869 0.44708 0.0
C971 C 0.20926 0.71374 0.47186 0.0
C972 C 0.16017 0.71009 0.51472 0.0
H973 H 0.11982 0.69293 0.47132 0.0
C974 C 0.15223 0.72379 0.54037 0.0
C975 C 0.14836 0.69843 0.49043 0.0
C976 C 0.15603 0.68281 0.46406 0.0
C977 C 0.13284 0.72677 0.54088 0.0
C978 C 0.12109 0.71557 0.51544 0.0
C979 C 0.12893 0.70147 0.49075 0.0
C980 C 0.1008 0.71938 0.51178 0.0
C981 C 0.12514 0.74245 0.56712 0.0
C982 C 0.08902 0.71702 0.54643 0.0
C983 C 0.07041 0.72303 0.54421 0.0
C984 C 0.06334 0.7315 0.50728 0.0
C985 C 0.07494 0.73289 0.47196 0.0
C986 C 0.09351 0.72684 0.47419 0.0
H987 H 0.13636 0.75179 0.57922 0.0
H988 H 0.115 0.75102 0.54853 0.0
H989 H 0.1176 0.73641 0.5944 0.0
H990 H 0.09441 0.71111 0.57558 0.0
H991 H 0.06182 0.72185 0.57198 0.0
H992 H 0.769 0.70295 0.93841 0.0
H993 H 0.77629 0.66955 0.93855 0.0
H994 H 0.78273 0.67017 0.07329 0.0
H995 H 0.77521 0.70354 0.07372 0.0
H996 H 0.80959 0.65345 0.96733 0.0
H997 H 0.74857 0.62497 0.05407 0.0
H998 H 0.74879 0.6483 0.03172 0.0
H999 H 0.76079 0.64349 0.08051 0.0
C1000 C 0.77173 0.69598 0.9682 0.0
C1001 C 0.77148 0.70597 0.00609 0.0
C1002 C 0.77592 0.67688 0.96816 0.0
C1003 C 0.77985 0.66738 0.00594 0.0
C1004 C 0.77938 0.67718 0.04387 0.0
H1005 H 0.81611 0.55415 0.06631 0.0
H1006 H 0.80797 0.58745 0.06823 0.0
C1007 C 0.77515 0.69629 0.04399 0.0
C1008 C 0.78547 0.64744 0.00533 0.0
H1009 H 0.77349 0.60386 0.04091 0.0
C1010 C 0.80166 0.64258 0.98324 0.0
C1011 C 0.77513 0.63336 0.02631 0.0
C1012 C 0.75726 0.63771 0.04921 0.0
C1013 C 0.80792 0.62398 0.98192 0.0
C1014 C 0.79754 0.6099 0.00277 0.0
C1015 C 0.78141 0.61475 0.02504 0.0
C1016 C 0.80304 0.58996 0.00129 0.0
C1017 C 0.82574 0.6196 0.95886 0.0
C1018 C 0.80289 0.58041 0.96302 0.0
C1019 C 0.80761 0.56144 0.96178 0.0
C1020 C 0.81249 0.55169 0.99886 0.0
C1021 C 0.81267 0.56135 0.03716 0.0
C1022 C 0.80791 0.58031 0.03836 0.0
H1023 H 0.83439 0.63234 0.95367 0.0
H1024 H 0.83426 0.60908 0.97643 0.0
H1025 H 0.82214 0.61369 0.92771 0.0
H1026 H 0.7989 0.58757 0.93416 0.0
H1027 H 0.80745 0.55441 0.93179 0.0
H1028 H 0.77957 0.28216 0.57055 0.0
H1029 H 0.81351 0.28677 0.57033 0.0
H1030 H 0.8134 0.28405 0.43515 0.0
H1031 H 0.77949 0.27966 0.43481 0.0
H1032 H 0.84204 0.2641 0.53747 0.0
H1033 H 0.83978 0.33394 0.45938 0.0
H1034 H 0.81931 0.32307 0.4819 0.0
H1035 H 0.82754 0.3159 0.43135 0.0
C1036 C 0.78674 0.28248 0.54073 0.0
C1037 C 0.77673 0.28066 0.50267 0.0
C1038 C 0.80614 0.28513 0.54071 0.0
C1039 C 0.81587 0.28609 0.5027 0.0
C1040 C 0.80606 0.28375 0.46477 0.0
H1041 H 0.93129 0.30097 0.43045 0.0
H1042 H 0.8974 0.29595 0.43328 0.0
C1043 C 0.78668 0.28113 0.4647 0.0
C1044 C 0.83631 0.28949 0.50269 0.0
H1045 H 0.86976 0.31988 0.46768 0.0
C1046 C 0.84812 0.27633 0.52246 0.0
C1047 C 0.84414 0.3055 0.48309 0.0
C1048 C 0.83205 0.32051 0.46305 0.0
C1049 C 0.86766 0.27854 0.52227 0.0
C1050 C 0.87549 0.29446 0.50234 0.0
C1051 C 0.86367 0.30767 0.48283 0.0
C1052 C 0.89595 0.29757 0.50097 0.0
C1053 C 0.87979 0.26361 0.54249 0.0
C1054 C 0.90626 0.3004 0.53808 0.0
C1055 C 0.92561 0.3032 0.53659 0.0
C1056 C 0.93497 0.30328 0.49791 0.0
C1057 C 0.92452 0.30072 0.46075 0.0
C1058 C 0.90517 0.29796 0.46228 0.0
H1059 H 0.87194 0.25036 0.54771 0.0
H1060 H 0.89219 0.26061 0.52284 0.0
H1061 H 0.88489 0.26861 0.57343 0.0
H1062 H 0.89932 0.30045 0.56819 0.0
H1063 H 0.93329 0.305 0.56577 0.0
H1064 H 0.70754 0.21881 0.43345 0.0
H1065 H 0.70554 0.18468 0.43255 0.0
H1066 H 0.71401 0.18279 0.56679 0.0
H1067 H 0.7157 0.21693 0.56823 0.0
H1068 H 0.73348 0.16089 0.4565 0.0
H1069 H 0.67028 0.14702 0.55162 0.0
H1070 H 0.67563 0.16992 0.53032 0.0
H1071 H 0.68704 0.16173 0.57766 0.0
C1072 C 0.70878 0.21118 0.4629 0.0
C1073 C 0.71184 0.22064 0.50093 0.0
C1074 C 0.70758 0.19167 0.4623 0.0
C1075 C 0.70935 0.18123 0.49965 0.0
C1076 C 0.71214 0.1906 0.53773 0.0
H1077 H 0.73229 0.06749 0.56907 0.0
H1078 H 0.72441 0.10085 0.56616 0.0
C1079 C 0.71326 0.21013 0.53843 0.0
C1080 C 0.70994 0.16053 0.4983 0.0
H1081 H 0.6905 0.12083 0.53973 0.0
C1082 C 0.72392 0.15211 0.47421 0.0
C1083 C 0.69748 0.14916 0.52158 0.0
C1084 C 0.68164 0.1574 0.54644 0.0
C1085 C 0.7262 0.13263 0.47388 0.0
C1086 C 0.714 0.12128 0.49783 0.0
C1087 C 0.6998 0.12963 0.52138 0.0
C1088 C 0.71653 0.10077 0.50042 0.0
C1089 C 0.74209 0.12437 0.44914 0.0
C1090 C 0.71414 0.08966 0.46469 0.0
C1091 C 0.71874 0.07064 0.46616 0.0
C1092 C 0.72576 0.06247 0.50345 0.0
C1093 C 0.7272 0.07348 0.53973 0.0
C1094 C 0.72258 0.09247 0.53822 0.0
H1095 H 0.75234 0.1352 0.43908 0.0
H1096 H 0.7496 0.11351 0.46797 0.0
H1097 H 0.73635 0.11759 0.42057 0.0
H1098 H 0.70929 0.09583 0.43535 0.0
H1099 H 0.71757 0.06255 0.43766 0.0
H1100 H 0.26865 0.20353 0.07269 0.0
H1101 H 0.30295 0.20413 0.07206 0.0
H1102 H 0.30208 0.20333 0.93674 0.0
H1103 H 0.26791 0.20283 0.93679 0.0
H1104 H 0.33038 0.17887 0.03098 0.0
H1105 H 0.33063 0.25225 0.97067 0.0
H1106 H 0.31027 0.24168 0.99434 0.0
H1107 H 0.31643 0.23609 0.94137 0.0
C1108 C 0.27573 0.20335 0.04277 0.0
C1109 C 0.26548 0.20338 0.00478 0.0
C1110 C 0.29532 0.20362 0.04252 0.0
C1111 C 0.30495 0.20398 0.00436 0.0
C1112 C 0.29483 0.20327 0.96649 0.0
H1113 H 0.41894 0.22761 0.93462 0.0
H1114 H 0.38642 0.21717 0.93468 0.0
C1115 C 0.27529 0.203 0.96665 0.0
C1116 C 0.32552 0.20619 0.00385 0.0
H1117 H 0.35982 0.23693 0.97574 0.0
C1118 C 0.33689 0.19154 0.01899 0.0
C1119 C 0.33385 0.22277 0.98822 0.0
C1120 C 0.32222 0.23919 0.97301 0.0
C1121 C 0.35653 0.19292 0.0181 0.0
C1122 C 0.36485 0.20951 0.00235 0.0
C1123 C 0.3534 0.22416 0.98745 0.0
C1124 C 0.38539 0.21245 0.00182 0.0
C1125 C 0.36817 0.17653 0.03326 0.0
C1126 C 0.39575 0.21276 0.03945 0.0
C1127 C 0.41448 0.2185 0.03948 0.0
C1128 C 0.42309 0.22425 0.00192 0.0
C1129 C 0.41288 0.22305 0.96405 0.0
C1130 C 0.39422 0.21722 0.96404 0.0
H1131 H 0.36001 0.16327 0.0329 0.0
H1132 H 0.38083 0.17478 0.01366 0.0
H1133 H 0.37282 0.17905 0.06607 0.0
H1134 H 0.38914 0.20945 0.06907 0.0
H1135 H 0.42201 0.21905 0.06912 0.0
H1136 H 0.28183 0.78039 0.43708 0.0
H1137 H 0.28643 0.81428 0.43816 0.0
H1138 H 0.28232 0.81367 0.57316 0.0
H1139 H 0.27799 0.77974 0.57263 0.0
H1140 H 0.26377 0.84272 0.46941 0.0
H1141 H 0.33241 0.83994 0.55279 0.0
H1142 H 0.32168 0.81953 0.52975 0.0
H1143 H 0.31383 0.82798 0.57959 0.0
C1144 C 0.28182 0.78743 0.46705 0.0
C1145 C 0.27967 0.77728 0.50481 0.0
C1146 C 0.28447 0.80681 0.46756 0.0
C1147 C 0.28506 0.81639 0.50577 0.0
C1148 C 0.28233 0.80645 0.5434 0.0
H1149 H 0.30042 0.93234 0.5752 0.0
H1150 H 0.29457 0.89856 0.57373 0.0
C1151 C 0.27974 0.78706 0.54298 0.0
C1152 C 0.28856 0.83681 0.50622 0.0
H1153 H 0.31889 0.87002 0.54264 0.0
C1154 C 0.27585 0.84871 0.48525 0.0
C1155 C 0.30437 0.84453 0.52687 0.0
C1156 C 0.31897 0.83235 0.54822 0.0
C1157 C 0.27834 0.8682 0.48504 0.0
C1158 C 0.29409 0.8759 0.50588 0.0
C1159 C 0.30681 0.86402 0.52679 0.0
C1160 C 0.2976 0.89629 0.50645 0.0
C1161 C 0.26394 0.88044 0.46325 0.0
C1162 C 0.30147 0.90608 0.46914 0.0
C1163 C 0.30478 0.92536 0.46985 0.0
C1164 C 0.30429 0.93515 0.50794 0.0
C1165 C 0.30063 0.92522 0.54532 0.0
C1166 C 0.29739 0.90594 0.54458 0.0
H1167 H 0.25066 0.87277 0.45713 0.0
H1168 H 0.26081 0.89299 0.48228 0.0
H1169 H 0.26955 0.88529 0.43264 0.0
H1170 H 0.30196 0.89879 0.43949 0.0
H1171 H 0.30742 0.93265 0.44052 0.0
H1172 H 0.70459 0.77225 0.9376 0.0
H1173 H 0.67113 0.77933 0.93891 0.0
H1174 H 0.67141 0.77344 0.07378 0.0
H1175 H 0.70494 0.76662 0.07305 0.0
H1176 H 0.64087 0.75872 0.96977 0.0
H1177 H 0.64955 0.82586 0.05459 0.0
H1178 H 0.66896 0.81371 0.03123 0.0
H1179 H 0.65983 0.80595 0.08084 0.0
C1180 C 0.69757 0.77235 0.96759 0.0
C1181 C 0.70754 0.76901 0.00527 0.0
C1182 C 0.67843 0.77642 0.96823 0.0
C1183 C 0.66892 0.77725 0.00648 0.0
C1184 C 0.67862 0.77327 0.04401 0.0
H1185 H 0.55431 0.80284 0.07322 0.0
H1186 H 0.58737 0.79366 0.07304 0.0
C1187 C 0.69777 0.76927 0.04346 0.0
C1188 C 0.64887 0.78247 0.00706 0.0
H1189 H 0.61843 0.81532 0.04334 0.0
C1190 C 0.63594 0.77112 0.98574 0.0
C1191 C 0.64256 0.79868 0.02787 0.0
C1192 C 0.65594 0.81187 0.04963 0.0
C1193 C 0.61676 0.7754 0.9852 0.0
C1194 C 0.61046 0.79158 0.00607 0.0
C1195 C 0.62337 0.8029 0.02747 0.0
C1196 C 0.5905 0.79706 0.00591 0.0
C1197 C 0.60334 0.76243 0.96293 0.0
C1198 C 0.58146 0.80225 0.96827 0.0
C1199 C 0.56261 0.80746 0.96825 0.0
C1200 C 0.55249 0.80761 0.00592 0.0
C1201 C 0.56168 0.80262 0.04365 0.0
C1202 C 0.58055 0.79747 0.04364 0.0
H1203 H 0.60974 0.74853 0.95701 0.0
H1204 H 0.59039 0.76037 0.9815 0.0
H1205 H 0.59928 0.76873 0.93218 0.0
H1206 H 0.58902 0.80229 0.93893 0.0
H1207 H 0.55587 0.8111 0.93866 0.0
loop_
_geom_bond_atom_site_label_1
_geom_bond_atom_site_label_2
_geom_bond_distance
_geom_bond_site_symmetry_2
_ccdc_geom_bond_type
Sc0 O3 2.025 . S
Sc0 O10 2.105 . S
Sc0 O13 2.105 . S
Sc0 O16 2.105 . S
Sc0 O19 2.105 . S
Sc1 O3 2.025 . S
Sc1 O11 2.105 . S
Sc1 O15 2.105 1_554 S
Sc1 O17 2.105 . S
Sc1 O21 2.105 1_554 S
Sc2 O3 2.025 1_556 S
Sc2 O12 2.105 . S
Sc2 O14 2.105 . S
Sc2 O18 2.105 . S
Sc2 O20 2.105 . S
O3 Sc0 2.025 . S
O3 Sc1 2.025 . S
O3 Sc2 2.025 1_554 S
C4 O10 1.268 . S
C4 O20 1.268 1_554 S
C5 O11 1.268 . S
C5 O19 1.268 . S
C6 O12 1.268 . S
C6 O21 1.268 . S
C7 O13 1.268 . S
C7 O17 1.268 . S
C8 O14 1.268 1_554 S
C8 O16 1.268 . S
C9 O15 1.268 . S
C9 O18 1.268 . S
O10 Sc0 2.105 . S
O10 C4 1.268 . S
O11 Sc1 2.105 . S
O11 C5 1.268 . S
O12 Sc2 2.105 . S
O12 C6 1.268 . S
O13 Sc0 2.105 . S
O13 C7 1.268 . S
O14 Sc2 2.105 . S
O14 C8 1.268 1_556 S
O15 Sc1 2.105 1_556 S
O15 C9 1.268 . S
O16 Sc0 2.105 . S
O16 C8 1.268 . S
O17 Sc1 2.105 . S
O17 C7 1.268 . S
O18 Sc2 2.105 . S
O18 C9 1.268 . S
O19 Sc0 2.105 . S
O19 C5 1.268 . S
O20 Sc2 2.105 . S
O20 C4 1.268 1_556 S
O21 Sc1 2.105 1_556 S
O21 C6 1.268 . S
Sc22 O25 2.025 . S
Sc22 O32 2.105 . S
Sc22 O35 2.105 . S
Sc22 O38 2.105 . S
Sc22 O41 2.105 . S
Sc23 O25 2.025 . S
Sc23 O33 2.105 . S
Sc23 O37 2.105 . S
Sc23 O39 2.105 . S
Sc23 O43 2.105 . S
Sc24 O25 2.025 . S
Sc24 O34 2.105 . S
Sc24 O36 2.105 . S
Sc24 O40 2.105 . S
Sc24 O42 2.105 . S
O25 Sc22 2.025 . S
O25 Sc23 2.025 . S
O25 Sc24 2.025 . S
C26 O32 1.268 . S
C26 O42 1.268 . S
C27 O33 1.268 . S
C27 O41 1.268 . S
C28 O34 1.268 . S
C28 O43 1.268 . S
C29 O35 1.268 . S
C29 O39 1.268 . S
C30 O36 1.268 . S
C30 O38 1.268 . S
C31 O37 1.268 . S
C31 O40 1.268 . S
O32 Sc22 2.105 . S
O32 C26 1.268 . S
O33 Sc23 2.105 . S
O33 C27 1.268 . S
O34 Sc24 2.105 . S
O34 C28 1.268 . S
O35 Sc22 2.105 . S
O35 C29 1.268 . S
O36 Sc24 2.105 . S
O36 C30 1.268 . S
O37 Sc23 2.105 . S
O37 C31 1.268 . S
O38 Sc22 2.105 . S
O38 C30 1.268 . S
O39 Sc23 2.105 . S
O39 C29 1.268 . S
O40 Sc24 2.105 . S
O40 C31 1.268 . S
O41 Sc22 2.105 . S
O41 C27 1.268 . S
O42 Sc24 2.105 . S
O42 C26 1.268 . S
O43 Sc23 2.105 . S
O43 C28 1.268 . S
Sc44 O47 2.025 1_556 S
Sc44 O54 2.105 . S
Sc44 O57 2.105 . S
Sc44 O60 2.105 . S
Sc44 O63 2.105 . S
Sc45 O47 2.025 . S
Sc45 O55 2.105 1_554 S
Sc45 O59 2.105 . S
Sc45 O61 2.105 1_554 S
Sc45 O65 2.105 . S
Sc46 O47 2.025 . S
Sc46 O56 2.105 . S
Sc46 O58 2.105 . S
Sc46 O62 2.105 . S
Sc46 O64 2.105 . S
O47 Sc44 2.025 1_554 S
O47 Sc45 2.025 . S
O47 Sc46 2.025 . S
C48 O54 1.268 1_554 S
C48 O64 1.268 . S
C49 O55 1.268 . S
C49 O63 1.268 . S
C50 O56 1.268 . S
C50 O65 1.268 . S
C51 O57 1.268 . S
C51 O61 1.268 . S
C52 O58 1.268 . S
C52 O60 1.268 1_554 S
C53 O59 1.268 . S
C53 O62 1.268 . S
O54 Sc44 2.105 . S
O54 C48 1.268 1_556 S
O55 Sc45 2.105 1_556 S
O55 C49 1.268 . S
O56 Sc46 2.105 . S
O56 C50 1.268 . S
O57 Sc44 2.105 . S
O57 C51 1.268 . S
O58 Sc46 2.105 . S
O58 C52 1.268 . S
O59 Sc45 2.105 . S
O59 C53 1.268 . S
O60 Sc44 2.105 . S
O60 C52 1.268 1_556 S
O61 Sc45 2.105 1_556 S
O61 C51 1.268 . S
O62 Sc46 2.105 . S
O62 C53 1.268 . S
O63 Sc44 2.105 . S
O63 C49 1.268 . S
O64 Sc46 2.105 . S
O64 C48 1.268 . S
O65 Sc45 2.105 . S
O65 C50 1.268 . S
Sc66 O69 2.025 . S
Sc66 O76 2.105 . S
Sc66 O79 2.105 . S
Sc66 O82 2.105 . S
Sc66 O85 2.105 . S
Sc67 O69 2.025 . S
Sc67 O77 2.105 . S
Sc67 O81 2.105 . S
Sc67 O83 2.105 . S
Sc67 O87 2.105 . S
Sc68 O69 2.025 . S
Sc68 O78 2.105 . S
Sc68 O80 2.105 . S
Sc68 O84 2.105 . S
Sc68 O86 2.105 . S
O69 Sc66 2.025 . S
O69 Sc67 2.025 . S
O69 Sc68 2.025 . S
C70 O76 1.268 . S
C70 O86 1.268 . S
C71 O77 1.268 . S
C71 O85 1.268 . S
C72 O78 1.268 . S
C72 O87 1.268 . S
C73 O79 1.268 . S
C73 O83 1.268 . S
C74 O80 1.268 . S
C74 O82 1.268 . S
C75 O81 1.268 . S
C75 O84 1.268 . S
O76 Sc66 2.105 . S
O76 C70 1.268 . S
O77 Sc67 2.105 . S
O77 C71 1.268 . S
O78 Sc68 2.105 . S
O78 C72 1.268 . S
O79 Sc66 2.105 . S
O79 C73 1.268 . S
O80 Sc68 2.105 . S
O80 C74 1.268 . S
O81 Sc67 2.105 . S
O81 C75 1.268 . S
O82 Sc66 2.105 . S
O82 C74 1.268 . S
O83 Sc67 2.105 . S
O83 C73 1.268 . S
O84 Sc68 2.105 . S
O84 C75 1.268 . S
O85 Sc66 2.105 . S
O85 C71 1.268 . S
O86 Sc68 2.105 . S
O86 C70 1.268 . S
O87 Sc67 2.105 . S
O87 C72 1.268 . S
P88 O99 1.490 . S
P88 C102 1.812 . S
P88 C108 1.803 . S
P88 C114 1.819 1_554 S
H89 C103 0.941 . S
H90 C104 0.939 . S
H91 C106 0.940 . S
H92 C107 0.940 . S
H93 C109 0.939 . S
H94 C110 0.942 . S
H95 C112 0.940 . S
H96 C113 0.939 . S
H97 C115 0.941 . S
H98 C119 0.939 . S
O99 P88 1.490 . S
H100 C116 0.939 . S
H101 C118 0.940 . S
C102 P88 1.812 . S
C102 C103 1.389 . S
C102 C107 1.391 . S
C103 H89 0.941 . S
C103 C102 1.389 . S
C103 C104 1.397 . S
C104 H90 0.939 . S
C104 C103 1.397 . S
C104 C105 1.378 . S
C105 C104 1.378 . S
C105 C106 1.378 . S
C106 H91 0.940 . S
C106 C105 1.378 . S
C106 C107 1.396 . S
C107 H92 0.940 . S
C107 C102 1.391 . S
C107 C106 1.396 . S
C108 P88 1.803 . S
C108 C109 1.378 1_554 S
C108 C113 1.400 . S
C109 H93 0.939 . S
C109 C108 1.378 1_556 S
C109 C110 1.361 . S
C110 H94 0.942 . S
C110 C109 1.361 . S
C110 C111 1.369 1_556 S
C111 C110 1.369 1_554 S
C111 C112 1.404 . S
C112 H95 0.940 . S
C112 C111 1.404 . S
C112 C113 1.389 . S
C113 H96 0.939 . S
C113 C108 1.400 . S
C113 C112 1.389 . S
C114 P88 1.819 1_556 S
C114 C115 1.391 . S
C114 C119 1.391 . S
C115 H97 0.941 . S
C115 C114 1.391 . S
C115 C116 1.396 . S
C116 H100 0.939 . S
C116 C115 1.396 . S
C116 C117 1.397 . S
C117 C116 1.397 . S
C117 C118 1.385 . S
C118 H101 0.940 . S
C118 C117 1.385 . S
C118 C119 1.388 . S
C119 H98 0.939 . S
C119 C114 1.391 . S
C119 C118 1.388 . S
P120 O131 1.490 . S
P120 C134 1.812 . S
P120 C140 1.803 1_655 S
P120 C146 1.819 . S
H121 C135 0.941 . S
H122 C136 0.939 . S
H123 C138 0.940 . S
H124 C139 0.940 . S
H125 C141 0.939 . S
H126 C142 0.942 . S
H127 C144 0.940 . S
H128 C145 0.901 1_655 S
H129 C147 0.941 . S
H130 C151 0.939 . S
O131 P120 1.490 . S
H132 C148 0.939 . S
H133 C150 0.940 . S
C134 P120 1.812 . S
C134 C135 1.389 . S
C134 C139 1.391 . S
C135 H121 0.941 . S
C135 C134 1.389 . S
C135 C136 1.397 . S
C136 H122 0.939 . S
C136 C135 1.397 . S
C136 C137 1.378 . S
C137 C136 1.378 . S
C137 C138 1.378 . S
C138 H123 0.940 . S
C138 C137 1.378 . S
C138 C139 1.396 . S
C139 H124 0.940 . S
C139 C134 1.391 . S
C139 C138 1.396 . S
C140 P120 1.803 1_455 S
C140 C141 1.378 . S
C140 C145 1.400 . S
C141 H125 0.939 . S
C141 C140 1.378 . S
C141 C142 1.361 . S
C142 H126 0.942 . S
C142 C141 1.361 . S
C142 C143 1.369 . S
C143 C142 1.369 . S
C143 C144 1.404 . S
C144 H127 0.940 . S
C144 C143 1.404 . S
C144 C145 1.389 . S
C145 H128 0.901 1_455 S
C145 C140 1.400 . S
C145 C144 1.389 . S
C146 P120 1.819 . S
C146 C147 1.391 . S
C146 C151 1.391 . S
C147 H129 0.941 . S
C147 C146 1.391 . S
C147 C148 1.396 . S
C148 H132 0.939 . S
C148 C147 1.396 . S
C148 C149 1.397 . S
C149 C148 1.397 . S
C149 C150 1.385 . S
C150 H133 0.940 . S
C150 C149 1.385 . S
C150 C151 1.388 . S
C151 H130 0.939 . S
C151 C146 1.391 . S
C151 C150 1.388 . S
P152 O163 1.490 . S
P152 C166 1.812 . S
P152 C172 1.803 . S
P152 C178 1.819 1_556 S
H153 C167 0.941 . S
H154 C168 0.939 . S
H155 C170 0.940 . S
H156 C171 0.940 . S
H157 C173 0.939 . S
H158 C174 0.942 . S
H159 C176 0.940 . S
H160 C177 0.939 . S
H161 C179 0.941 . S
H162 C183 0.939 . S
O163 P152 1.490 . S
H164 C180 0.939 . S
H165 C182 0.940 . S
C166 P152 1.812 . S
C166 C167 1.389 . S
C166 C171 1.391 . S
C167 H153 0.941 . S
C167 C166 1.389 . S
C167 C168 1.397 . S
C168 H154 0.939 . S
C168 C167 1.397 . S
C168 C169 1.378 . S
C169 C168 1.378 . S
C169 C170 1.378 . S
C170 H155 0.940 . S
C170 C169 1.378 . S
C170 C171 1.396 . S
C171 H156 0.940 . S
C171 C166 1.391 . S
C171 C170 1.396 . S
C172 P152 1.803 . S
C172 C173 1.378 1_556 S
C172 C177 1.400 . S
C173 H157 0.939 . S
C173 C172 1.378 1_554 S
C173 C174 1.361 . S
C174 H158 0.942 . S
C174 C173 1.361 . S
C174 C175 1.369 . S
C175 C174 1.369 . S
C175 C176 1.404 1_554 S
C176 H159 0.940 . S
C176 C175 1.404 1_556 S
C176 C177 1.389 . S
C177 H160 0.939 . S
C177 C172 1.400 . S
C177 C176 1.389 . S
C178 P152 1.819 1_554 S
C178 C179 1.391 . S
C178 C183 1.391 . S
C179 H161 0.941 . S
C179 C178 1.391 . S
C179 C180 1.396 . S
C180 H164 0.939 . S
C180 C179 1.396 . S
C180 C181 1.397 . S
C181 C180 1.397 . S
C181 C182 1.385 . S
C182 H165 0.940 . S
C182 C181 1.385 . S
C182 C183 1.388 . S
C183 H162 0.939 . S
C183 C178 1.391 . S
C183 C182 1.388 . S
P184 O195 1.490 . S
P184 C198 1.812 . S
P184 C204 1.803 1_455 S
P184 C210 1.819 . S
H185 C199 0.941 . S
H186 C200 0.939 . S
H187 C202 0.940 . S
H188 C203 0.940 . S
H189 C205 0.939 . S
H190 C206 0.942 . S
H191 C208 0.940 . S
H192 C209 0.939 . S
H193 C211 0.941 . S
H194 C215 0.939 . S
O195 P184 1.490 . S
H196 C212 0.939 . S
H197 C214 0.940 . S
C198 P184 1.812 . S
C198 C199 1.389 . S
C198 C203 1.391 . S
C199 H185 0.941 . S
C199 C198 1.389 . S
C199 C200 1.397 . S
C200 H186 0.939 . S
C200 C199 1.397 . S
C200 C201 1.378 . S
C201 C200 1.378 . S
C201 C202 1.378 . S
C202 H187 0.940 . S
C202 C201 1.378 . S
C202 C203 1.396 . S
C203 H188 0.940 . S
C203 C198 1.391 . S
C203 C202 1.396 . S
C204 P184 1.803 1_655 S
C204 C205 1.378 . S
C204 C209 1.400 . S
C205 H189 0.939 . S
C205 C204 1.378 . S
C205 C206 1.361 . S
C206 H190 0.942 . S
C206 C205 1.361 . S
C206 C207 1.369 . S
C207 C206 1.369 . S
C207 C208 1.404 . S
C208 H191 0.940 . S
C208 C207 1.404 . S
C208 C209 1.389 . S
C209 H192 0.939 . S
C209 C204 1.400 . S
C209 C208 1.389 . S
C210 P184 1.819 . S
C210 C211 1.391 . S
C210 C215 1.391 . S
C211 H193 0.941 . S
C211 C210 1.391 . S
C211 C212 1.396 . S
C212 H196 0.939 . S
C212 C211 1.396 . S
C212 C213 1.397 . S
C213 C212 1.397 . S
C213 C214 1.385 . S
C214 H197 0.940 . S
C214 C213 1.385 . S
C214 C215 1.388 . S
C215 H194 0.939 . S
C215 C210 1.391 . S
C215 C214 1.388 . S
P216 O227 1.490 . S
P216 C230 1.812 . S
P216 C236 1.803 1_565 S
P216 C242 1.819 . S
H217 C231 0.941 . S
H218 C232 0.939 . S
H219 C234 0.940 . S
H220 C235 0.940 . S
H221 C237 0.939 . S
H222 C238 0.942 . S
H223 C240 0.940 . S
H224 C241 0.901 1_565 S
H225 C243 0.941 . S
H226 C247 0.939 . S
O227 P216 1.490 . S
H228 C244 0.939 . S
H229 C246 0.940 . S
C230 P216 1.812 . S
C230 C231 1.389 . S
C230 C235 1.391 . S
C231 H217 0.941 . S
C231 C230 1.389 . S
C231 C232 1.397 . S
C232 H218 0.939 . S
C232 C231 1.397 . S
C232 C233 1.378 . S
C233 C232 1.378 . S
C233 C234 1.378 . S
C234 H219 0.940 . S
C234 C233 1.378 . S
C234 C235 1.396 . S
C235 H220 0.940 . S
C235 C230 1.391 . S
C235 C234 1.396 . S
C236 P216 1.803 1_545 S
C236 C237 1.378 . S
C236 C241 1.400 . S
C237 H221 0.939 . S
C237 C236 1.378 . S
C237 C238 1.361 . S
C238 H222 0.942 . S
C238 C237 1.361 . S
C238 C239 1.369 . S
C239 C238 1.369 . S
C239 C240 1.404 . S
C240 H223 0.940 . S
C240 C239 1.404 . S
C240 C241 1.389 . S
C241 H224 0.901 1_545 S
C241 C236 1.400 . S
C241 C240 1.389 . S
C242 P216 1.819 . S
C242 C243 1.391 . S
C242 C247 1.391 . S
C243 H225 0.941 . S
C243 C242 1.391 . S
C243 C244 1.396 . S
C244 H228 0.939 . S
C244 C243 1.396 . S
C244 C245 1.397 . S
C245 C244 1.397 . S
C245 C246 1.385 . S
C246 H229 0.940 . S
C246 C245 1.385 . S
C246 C247 1.388 . S
C247 H226 0.939 . S
C247 C242 1.391 . S
C247 C246 1.388 . S
P248 O259 1.490 . S
P248 C262 1.812 . S
P248 C268 1.803 . S
P248 C274 1.819 1_556 S
H249 C263 0.941 . S
H250 C264 0.939 . S
H251 C266 0.940 . S
H252 C267 0.940 . S
H253 C269 0.939 . S
H254 C270 0.942 . S
H255 C272 0.940 . S
H256 C273 0.939 . S
H257 C275 0.941 . S
H258 C279 0.939 . S
O259 P248 1.490 . S
H260 C276 0.939 . S
H261 C278 0.940 . S
C262 P248 1.812 . S
C262 C263 1.389 . S
C262 C267 1.391 . S
C263 H249 0.941 . S
C263 C262 1.389 . S
C263 C264 1.397 . S
C264 H250 0.939 . S
C264 C263 1.397 . S
C264 C265 1.378 . S
C265 C264 1.378 . S
C265 C266 1.378 . S
C266 H251 0.940 . S
C266 C265 1.378 . S
C266 C267 1.396 . S
C267 H252 0.940 . S
C267 C262 1.391 . S
C267 C266 1.396 . S
C268 P248 1.803 . S
C268 C269 1.378 1_556 S
C268 C273 1.400 . S
C269 H253 0.939 . S
C269 C268 1.378 1_554 S
C269 C270 1.361 . S
C270 H254 0.942 . S
C270 C269 1.361 . S
C270 C271 1.369 . S
C271 C270 1.369 . S
C271 C272 1.404 1_554 S
C272 H255 0.940 . S
C272 C271 1.404 1_556 S
C272 C273 1.389 . S
C273 H256 0.939 . S
C273 C268 1.400 . S
C273 C272 1.389 . S
C274 P248 1.819 1_554 S
C274 C275 1.391 . S
C274 C279 1.391 . S
C275 H257 0.941 . S
C275 C274 1.391 . S
C275 C276 1.396 . S
C276 H260 0.939 . S
C276 C275 1.396 . S
C276 C277 1.397 . S
C277 C276 1.397 . S
C277 C278 1.385 . S
C278 H261 0.940 . S
C278 C277 1.385 . S
C278 C279 1.388 . S
C279 H258 0.939 . S
C279 C274 1.391 . S
C279 C278 1.388 . S
P280 O291 1.490 . S
P280 C294 1.812 . S
P280 C300 1.803 1_545 S
P280 C306 1.819 . S
H281 C295 0.941 . S
H282 C296 0.939 . S
H283 C298 0.940 . S
H284 C299 0.940 . S
H285 C301 0.939 . S
H286 C302 0.942 . S
H287 C304 0.940 . S
H288 C305 0.939 . S
H289 C307 0.941 . S
H290 C311 0.939 . S
O291 P280 1.490 . S
H292 C308 0.939 . S
H293 C310 0.940 . S
C294 P280 1.812 . S
C294 C295 1.389 . S
C294 C299 1.391 . S
C295 H281 0.941 . S
C295 C294 1.389 . S
C295 C296 1.397 . S
C296 H282 0.939 . S
C296 C295 1.397 . S
C296 C297 1.378 . S
C297 C296 1.378 . S
C297 C298 1.378 . S
C298 H283 0.940 . S
C298 C297 1.378 . S
C298 C299 1.396 . S
C299 H284 0.940 . S
C299 C294 1.391 . S
C299 C298 1.396 . S
C300 P280 1.803 1_565 S
C300 C301 1.378 . S
C300 C305 1.400 . S
C301 H285 0.939 . S
C301 C300 1.378 . S
C301 C302 1.361 . S
C302 H286 0.942 . S
C302 C301 1.361 . S
C302 C303 1.369 . S
C303 C302 1.369 . S
C303 C304 1.404 . S
C304 H287 0.940 . S
C304 C303 1.404 . S
C304 C305 1.389 . S
C305 H288 0.939 . S
C305 C300 1.400 . S
C305 C304 1.389 . S
C306 P280 1.819 . S
C306 C307 1.391 . S
C306 C311 1.391 . S
C307 H289 0.941 . S
C307 C306 1.391 . S
C307 C308 1.396 . S
C308 H292 0.939 . S
C308 C307 1.396 . S
C308 C309 1.397 . S
C309 C308 1.397 . S
C309 C310 1.385 . S
C310 H293 0.940 . S
C310 C309 1.385 . S
C310 C311 1.388 . S
C311 H290 0.939 . S
C311 C306 1.391 . S
C311 C310 1.388 . S
P312 O323 1.490 . S
P312 C326 1.812 . S
P312 C332 1.803 . S
P312 C338 1.819 1_554 S
H313 C327 0.941 . S
H314 C328 0.939 . S
H315 C330 0.940 . S
H316 C331 0.940 . S
H317 C333 0.939 . S
H318 C334 0.942 . S
H319 C336 0.940 . S
H320 C337 0.939 . S
H321 C339 0.941 . S
H322 C343 0.939 . S
O323 P312 1.490 . S
H324 C340 0.939 . S
H325 C342 0.940 . S
C326 P312 1.812 . S
C326 C327 1.389 . S
C326 C331 1.391 . S
C327 H313 0.941 . S
C327 C326 1.389 . S
C327 C328 1.397 . S
C328 H314 0.939 . S
C328 C327 1.397 . S
C328 C329 1.378 . S
C329 C328 1.378 . S
C329 C330 1.378 . S
C330 H315 0.940 . S
C330 C329 1.378 . S
C330 C331 1.396 . S
C331 H316 0.940 . S
C331 C326 1.391 . S
C331 C330 1.396 . S
C332 P312 1.803 . S
C332 C333 1.378 1_554 S
C332 C337 1.400 . S
C333 H317 0.939 . S
C333 C332 1.378 1_556 S
C333 C334 1.361 . S
C334 H318 0.942 . S
C334 C333 1.361 . S
C334 C335 1.369 1_556 S
C335 C334 1.369 1_554 S
C335 C336 1.404 . S
C336 H319 0.940 . S
C336 C335 1.404 . S
C336 C337 1.389 . S
C337 H320 0.939 . S
C337 C332 1.400 . S
C337 C336 1.389 . S
C338 P312 1.819 1_556 S
C338 C339 1.391 . S
C338 C343 1.391 . S
C339 H321 0.941 . S
C339 C338 1.391 . S
C339 C340 1.396 . S
C340 H324 0.939 . S
C340 C339 1.396 . S
C340 C341 1.397 . S
C341 C340 1.397 . S
C341 C342 1.385 . S
C342 H325 0.940 . S
C342 C341 1.385 . S
C342 C343 1.388 . S
C343 H322 0.939 . S
C343 C338 1.391 . S
C343 C342 1.388 . S
H344 C352 0.929 . S
H345 C354 0.930 . S
H346 C356 0.930 . S
H347 C359 0.929 . S
H348 C362 0.930 . S
H349 C364 0.960 . S
H350 C364 0.960 . S
H351 C364 0.960 . S
C352 H344 0.929 . S
C352 C353 1.377 . S
C352 C354 1.384 . S
C353 C352 1.377 . S
C353 C359 1.390 . S
C354 H345 0.930 . S
C354 C352 1.384 . S
C354 C355 1.372 . S
C355 C354 1.372 . S
C355 C356 1.400 . S
C355 C360 1.490 . S
C356 H346 0.930 . S
C356 C355 1.400 . S
C356 C359 1.386 . S
H357 C373 0.930 . S
H358 C374 0.931 . S
C359 H347 0.929 . S
C359 C353 1.390 . S
C359 C356 1.386 . S
C360 C355 1.490 . S
C360 C362 1.395 . S
C360 C363 1.403 . S
H361 C367 0.930 . S
C362 H348 0.930 . S
C362 C360 1.395 . S
C362 C365 1.403 . S
C363 C360 1.403 . S
C363 C364 1.524 . S
C363 C367 1.400 . S
C364 H349 0.960 . S
C364 H350 0.960 . S
C364 H351 0.960 . S
C364 C363 1.524 . S
C365 C362 1.403 . S
C365 C366 1.392 . S
C365 C369 1.495 . S
C366 C365 1.392 . S
C366 C367 1.385 . S
C366 C368 1.478 . S
C367 H361 0.930 . S
C367 C363 1.400 . S
C367 C366 1.385 . S
C368 C366 1.478 . S
C368 C370 1.381 . S
C368 C374 1.383 . S
C369 C365 1.495 . S
C369 H375 0.959 . S
C369 H376 0.961 . S
C369 H377 0.960 . S
C370 C368 1.381 . S
C370 C371 1.394 . S
C370 H378 0.930 . S
C371 C370 1.394 . S
C371 C372 1.383 . S
C371 H379 0.929 . S
C372 C371 1.383 . S
C372 C373 1.377 . S
C373 H357 0.930 . S
C373 C372 1.377 . S
C373 C374 1.379 . S
C374 H358 0.931 . S
C374 C368 1.383 . S
C374 C373 1.379 . S
H375 C369 0.959 . S
H376 C369 0.961 . S
H377 C369 0.960 . S
H378 C370 0.930 . S
H379 C371 0.929 . S
H380 C388 0.929 . S
H381 C390 0.930 . S
H382 C392 0.930 . S
H383 C395 0.929 . S
H384 C398 0.930 . S
H385 C400 0.960 . S
H386 C400 0.960 . S
H387 C400 0.960 . S
C388 H380 0.929 . S
C388 C389 1.377 . S
C388 C390 1.384 . S
C389 C388 1.377 . S
C389 C395 1.390 . S
C390 H381 0.930 . S
C390 C388 1.384 . S
C390 C391 1.372 . S
C391 C390 1.372 . S
C391 C392 1.400 . S
C391 C396 1.490 . S
C392 H382 0.930 . S
C392 C391 1.400 . S
C392 C395 1.386 . S
H393 C409 0.930 . S
H394 C410 0.931 . S
C395 H383 0.929 . S
C395 C389 1.390 . S
C395 C392 1.386 . S
C396 C391 1.490 . S
C396 C398 1.395 . S
C396 C399 1.403 . S
H397 C403 0.930 . S
C398 H384 0.930 . S
C398 C396 1.395 . S
C398 C401 1.403 . S
C399 C396 1.403 . S
C399 C400 1.524 . S
C399 C403 1.400 . S
C400 H385 0.960 . S
C400 H386 0.960 . S
C400 H387 0.960 . S
C400 C399 1.524 . S
C401 C398 1.403 . S
C401 C402 1.392 . S
C401 C405 1.495 . S
C402 C401 1.392 . S
C402 C403 1.385 . S
C402 C404 1.478 . S
C403 H397 0.930 . S
C403 C399 1.400 . S
C403 C402 1.385 . S
C404 C402 1.478 . S
C404 C406 1.381 . S
C404 C410 1.383 . S
C405 C401 1.495 . S
C405 H411 0.959 . S
C405 H412 0.961 . S
C405 H413 0.960 . S
C406 C404 1.381 . S
C406 C407 1.394 . S
C406 H414 0.930 . S
C407 C406 1.394 . S
C407 C408 1.383 . S
C407 H415 0.929 . S
C408 C407 1.383 . S
C408 C409 1.377 . S
C409 H393 0.930 . S
C409 C408 1.377 . S
C409 C410 1.379 . S
C410 H394 0.931 . S
C410 C404 1.383 . S
C410 C409 1.379 . S
H411 C405 0.959 . S
H412 C405 0.961 . S
H413 C405 0.960 . S
H414 C406 0.930 . S
H415 C407 0.929 . S
H416 C424 0.929 . S
H417 C426 0.930 . S
H418 C428 0.930 . S
H419 C431 0.929 . S
H420 C434 0.930 . S
H421 C436 0.960 . S
H422 C436 0.960 . S
H423 C436 0.960 . S
C424 H416 0.929 . S
C424 C425 1.377 . S
C424 C426 1.384 . S
C425 C424 1.377 . S
C425 C431 1.390 . S
C426 H417 0.930 . S
C426 C424 1.384 . S
C426 C427 1.372 . S
C427 C426 1.372 . S
C427 C428 1.400 . S
C427 C432 1.490 . S
C428 H418 0.930 . S
C428 C427 1.400 . S
C428 C431 1.386 . S
H429 C445 0.930 . S
H430 C446 0.931 . S
C431 H419 0.929 . S
C431 C425 1.390 . S
C431 C428 1.386 . S
C432 C427 1.490 . S
C432 C434 1.395 . S
C432 C435 1.403 . S
H433 C439 0.930 . S
C434 H420 0.930 . S
C434 C432 1.395 . S
C434 C437 1.403 . S
C435 C432 1.403 . S
C435 C436 1.524 . S
C435 C439 1.400 . S
C436 H421 0.960 . S
C436 H422 0.960 . S
C436 H423 0.960 . S
C436 C435 1.524 . S
C437 C434 1.403 . S
C437 C438 1.392 . S
C437 C441 1.495 . S
C438 C437 1.392 . S
C438 C439 1.385 . S
C438 C440 1.478 . S
C439 H433 0.930 . S
C439 C435 1.400 . S
C439 C438 1.385 . S
C440 C438 1.478 . S
C440 C442 1.381 . S
C440 C446 1.383 . S
C441 C437 1.495 . S
C441 H447 0.959 . S
C441 H448 0.961 . S
C441 H449 0.960 . S
C442 C440 1.381 . S
C442 C443 1.394 . S
C442 H450 0.930 . S
C443 C442 1.394 . S
C443 C444 1.383 . S
C443 H451 0.929 . S
C444 C443 1.383 . S
C444 C445 1.377 . S
C445 H429 0.930 . S
C445 C444 1.377 . S
C445 C446 1.379 . S
C446 H430 0.931 . S
C446 C440 1.383 . S
C446 C445 1.379 . S
H447 C441 0.959 . S
H448 C441 0.961 . S
H449 C441 0.960 . S
H450 C442 0.930 . S
H451 C443 0.929 . S
H452 C460 0.929 . S
H453 C462 0.930 . S
H454 C464 0.930 . S
H455 C467 0.929 . S
H456 C470 0.930 . S
H457 C472 0.960 . S
H458 C472 0.960 . S
H459 C472 0.960 . S
C460 H452 0.929 . S
C460 C461 1.377 . S
C460 C462 1.384 . S
C461 C460 1.377 . S
C461 C467 1.390 . S
C462 H453 0.930 . S
C462 C460 1.384 . S
C462 C463 1.372 . S
C463 C462 1.372 . S
C463 C464 1.400 . S
C463 C468 1.490 . S
C464 H454 0.930 . S
C464 C463 1.400 . S
C464 C467 1.386 . S
H465 C481 0.930 . S
H466 C482 0.931 . S
C467 H455 0.929 . S
C467 C461 1.390 . S
C467 C464 1.386 . S
C468 C463 1.490 . S
C468 C470 1.395 . S
C468 C471 1.403 . S
H469 C475 0.930 . S
C470 H456 0.930 . S
C470 C468 1.395 . S
C470 C473 1.403 . S
C471 C468 1.403 . S
C471 C472 1.524 . S
C471 C475 1.400 . S
C472 H457 0.960 . S
C472 H458 0.960 . S
C472 H459 0.960 . S
C472 C471 1.524 . S
C473 C470 1.403 . S
C473 C474 1.392 . S
C473 C477 1.495 . S
C474 C473 1.392 . S
C474 C475 1.385 . S
C474 C476 1.478 . S
C475 H469 0.930 . S
C475 C471 1.400 . S
C475 C474 1.385 . S
C476 C474 1.478 . S
C476 C478 1.381 . S
C476 C482 1.383 . S
C477 C473 1.495 . S
C477 H483 0.959 . S
C477 H484 0.961 . S
C477 H485 0.960 . S
C478 C476 1.381 . S
C478 C479 1.394 . S
C478 H486 0.930 . S
C479 C478 1.394 . S
C479 C480 1.383 . S
C479 H487 0.929 . S
C480 C479 1.383 . S
C480 C481 1.377 . S
C481 H465 0.930 . S
C481 C480 1.377 . S
C481 C482 1.379 . S
C482 H466 0.931 . S
C482 C476 1.383 . S
C482 C481 1.379 . S
H483 C477 0.959 . S
H484 C477 0.961 . S
H485 C477 0.960 . S
H486 C478 0.930 . S
H487 C479 0.929 . S
H488 C496 0.929 . S
H489 C498 0.930 . S
H490 C500 0.930 . S
H491 C503 0.929 . S
H492 C506 0.930 . S
H493 C508 0.960 . S
H494 C508 0.960 . S
H495 C508 0.960 . S
C496 H488 0.929 . S
C496 C497 1.377 . S
C496 C498 1.384 . S
C497 C496 1.377 . S
C497 C503 1.390 . S
C498 H489 0.930 . S
C498 C496 1.384 . S
C498 C499 1.372 . S
C499 C498 1.372 . S
C499 C500 1.400 . S
C499 C504 1.490 . S
C500 H490 0.930 . S
C500 C499 1.400 . S
C500 C503 1.386 . S
H501 C517 0.930 . S
H502 C518 0.931 . S
C503 H491 0.929 . S
C503 C497 1.390 . S
C503 C500 1.386 . S
C504 C499 1.490 . S
C504 C506 1.395 . S
C504 C507 1.403 . S
H505 C511 0.930 . S
C506 H492 0.930 . S
C506 C504 1.395 . S
C506 C509 1.403 . S
C507 C504 1.403 . S
C507 C508 1.524 . S
C507 C511 1.400 . S
C508 H493 0.960 . S
C508 H494 0.960 . S
C508 H495 0.960 . S
C508 C507 1.524 . S
C509 C506 1.403 . S
C509 C510 1.392 . S
C509 C513 1.495 . S
C510 C509 1.392 . S
C510 C511 1.385 . S
C510 C512 1.478 . S
C511 H505 0.930 . S
C511 C507 1.400 . S
C511 C510 1.385 . S
C512 C510 1.478 . S
C512 C514 1.381 . S
C512 C518 1.383 . S
C513 C509 1.495 . S
C513 H519 0.959 . S
C513 H520 0.961 . S
C513 H521 0.960 . S
C514 C512 1.381 . S
C514 C515 1.394 . S
C514 H522 0.930 . S
C515 C514 1.394 . S
C515 C516 1.383 . S
C515 H523 0.929 . S
C516 C515 1.383 . S
C516 C517 1.377 . S
C517 H501 0.930 . S
C517 C516 1.377 . S
C517 C518 1.379 . S
C518 H502 0.931 . S
C518 C512 1.383 . S
C518 C517 1.379 . S
H519 C513 0.959 . S
H520 C513 0.961 . S
H521 C513 0.960 . S
H522 C514 0.930 . S
H523 C515 0.929 . S
H524 C532 0.929 . S
H525 C534 0.930 . S
H526 C536 0.930 . S
H527 C539 0.929 . S
H528 C542 0.930 . S
H529 C544 0.960 . S
H530 C544 0.960 . S
H531 C544 0.960 . S
C532 H524 0.929 . S
C532 C533 1.377 . S
C532 C534 1.384 . S
C533 C532 1.377 . S
C533 C539 1.390 . S
C534 H525 0.930 . S
C534 C532 1.384 . S
C534 C535 1.372 . S
C535 C534 1.372 . S
C535 C536 1.400 . S
C535 C540 1.490 . S
C536 H526 0.930 . S
C536 C535 1.400 . S
C536 C539 1.386 . S
H537 C553 0.930 . S
H538 C554 0.931 . S
C539 H527 0.929 . S
C539 C533 1.390 . S
C539 C536 1.386 . S
C540 C535 1.490 . S
C540 C542 1.395 . S
C540 C543 1.403 . S
H541 C547 0.930 . S
C542 H528 0.930 . S
C542 C540 1.395 . S
C542 C545 1.403 . S
C543 C540 1.403 . S
C543 C544 1.524 . S
C543 C547 1.400 . S
C544 H529 0.960 . S
C544 H530 0.960 . S
C544 H531 0.960 . S
C544 C543 1.524 . S
C545 C542 1.403 . S
C545 C546 1.392 . S
C545 C549 1.495 . S
C546 C545 1.392 . S
C546 C547 1.385 . S
C546 C548 1.478 . S
C547 H541 0.930 . S
C547 C543 1.400 . S
C547 C546 1.385 . S
C548 C546 1.478 . S
C548 C550 1.381 . S
C548 C554 1.383 . S
C549 C545 1.495 . S
C549 H555 0.959 . S
C549 H556 0.961 . S
C549 H557 0.960 . S
C550 C548 1.381 . S
C550 C551 1.394 . S
C550 H558 0.930 . S
C551 C550 1.394 . S
C551 C552 1.383 . S
C551 H559 0.929 . S
C552 C551 1.383 . S
C552 C553 1.377 . S
C553 H537 0.930 . S
C553 C552 1.377 . S
C553 C554 1.379 . S
C554 H538 0.931 . S
C554 C548 1.383 . S
C554 C553 1.379 . S
H555 C549 0.959 . S
H556 C549 0.961 . S
H557 C549 0.960 . S
H558 C550 0.930 . S
H559 C551 0.929 . S
H560 C568 0.929 . S
H561 C570 0.930 . S
H562 C572 0.930 . S
H563 C575 0.929 . S
H564 C578 0.930 . S
H565 C580 0.960 . S
H566 C580 0.960 . S
H567 C580 0.960 . S
C568 H560 0.929 . S
C568 C569 1.377 . S
C568 C570 1.384 . S
C569 C568 1.377 . S
C569 C575 1.390 . S
C570 H561 0.930 . S
C570 C568 1.384 . S
C570 C571 1.372 . S
C571 C570 1.372 . S
C571 C572 1.400 . S
C571 C576 1.490 . S
C572 H562 0.930 . S
C572 C571 1.400 . S
C572 C575 1.386 . S
H573 C589 0.930 . S
H574 C590 0.931 . S
C575 H563 0.929 . S
C575 C569 1.390 . S
C575 C572 1.386 . S
C576 C571 1.490 . S
C576 C578 1.395 . S
C576 C579 1.403 . S
H577 C583 0.930 . S
C578 H564 0.930 . S
C578 C576 1.395 . S
C578 C581 1.403 . S
C579 C576 1.403 . S
C579 C580 1.524 . S
C579 C583 1.400 . S
C580 H565 0.960 . S
C580 H566 0.960 . S
C580 H567 0.960 . S
C580 C579 1.524 . S
C581 C578 1.403 . S
C581 C582 1.392 . S
C581 C585 1.495 . S
C582 C581 1.392 . S
C582 C583 1.385 . S
C582 C584 1.478 . S
C583 H577 0.930 . S
C583 C579 1.400 . S
C583 C582 1.385 . S
C584 C582 1.478 . S
C584 C586 1.381 . S
C584 C590 1.383 . S
C585 C581 1.495 . S
C585 H591 0.959 . S
C585 H592 0.961 . S
C585 H593 0.960 . S
C586 C584 1.381 . S
C586 C587 1.394 . S
C586 H594 0.930 . S
C587 C586 1.394 . S
C587 C588 1.383 . S
C587 H595 0.929 . S
C588 C587 1.383 . S
C588 C589 1.377 . S
C589 H573 0.930 . S
C589 C588 1.377 . S
C589 C590 1.379 . S
C590 H574 0.931 . S
C590 C584 1.383 . S
C590 C589 1.379 . S
H591 C585 0.959 . S
H592 C585 0.961 . S
H593 C585 0.960 . S
H594 C586 0.930 . S
H595 C587 0.929 . S
H596 C604 0.929 . S
H597 C606 0.930 . S
H598 C608 0.930 . S
H599 C611 0.929 . S
H600 C614 0.930 . S
H601 C616 0.960 . S
H602 C616 0.960 . S
H603 C616 0.960 . S
C604 H596 0.929 . S
C604 C605 1.377 . S
C604 C606 1.384 . S
C605 C604 1.377 . S
C605 C611 1.390 . S
C606 H597 0.930 . S
C606 C604 1.384 . S
C606 C607 1.372 . S
C607 C606 1.372 . S
C607 C608 1.400 . S
C607 C612 1.490 . S
C608 H598 0.930 . S
C608 C607 1.400 . S
C608 C611 1.386 . S
H609 C625 0.930 . S
H610 C626 0.931 . S
C611 H599 0.929 . S
C611 C605 1.390 . S
C611 C608 1.386 . S
C612 C607 1.490 . S
C612 C614 1.395 . S
C612 C615 1.403 . S
H613 C619 0.930 . S
C614 H600 0.930 . S
C614 C612 1.395 . S
C614 C617 1.403 . S
C615 C612 1.403 . S
C615 C616 1.524 . S
C615 C619 1.400 . S
C616 H601 0.960 . S
C616 H602 0.960 . S
C616 H603 0.960 . S
C616 C615 1.524 . S
C617 C614 1.403 . S
C617 C618 1.392 . S
C617 C621 1.495 . S
C618 C617 1.392 . S
C618 C619 1.385 . S
C618 C620 1.478 . S
C619 H613 0.930 . S
C619 C615 1.400 . S
C619 C618 1.385 . S
C620 C618 1.478 . S
C620 C622 1.381 . S
C620 C626 1.383 . S
C621 C617 1.495 . S
C621 H627 0.959 . S
C621 H628 0.961 . S
C621 H629 0.960 . S
C622 C620 1.381 . S
C622 C623 1.394 . S
C622 H630 0.930 . S
C623 C622 1.394 . S
C623 C624 1.383 . S
C623 H631 0.929 . S
C624 C623 1.383 . S
C624 C625 1.377 . S
C625 H609 0.930 . S
C625 C624 1.377 . S
C625 C626 1.379 . S
C626 H610 0.931 . S
C626 C620 1.383 . S
C626 C625 1.379 . S
H627 C621 0.959 . S
H628 C621 0.961 . S
H629 C621 0.960 . S
H630 C622 0.930 . S
H631 C623 0.929 . S
H632 C640 0.929 . S
H633 C642 0.930 . S
H634 C644 0.930 . S
H635 C647 0.929 . S
H636 C650 0.930 . S
H637 C652 0.960 . S
H638 C652 0.960 . S
H639 C652 0.960 . S
C640 H632 0.929 . S
C640 C641 1.377 . S
C640 C642 1.384 . S
C641 C640 1.377 . S
C641 C647 1.390 . S
C642 H633 0.930 . S
C642 C640 1.384 . S
C642 C643 1.372 . S
C643 C642 1.372 . S
C643 C644 1.400 . S
C643 C648 1.490 . S
C644 H634 0.930 . S
C644 C643 1.400 . S
C644 C647 1.386 . S
H645 C661 0.930 . S
H646 C662 0.931 . S
C647 H635 0.929 . S
C647 C641 1.390 . S
C647 C644 1.386 . S
C648 C643 1.490 . S
C648 C650 1.395 . S
C648 C651 1.403 . S
H649 C655 0.930 . S
C650 H636 0.930 . S
C650 C648 1.395 . S
C650 C653 1.403 . S
C651 C648 1.403 . S
C651 C652 1.524 . S
C651 C655 1.400 . S
C652 H637 0.960 . S
C652 H638 0.960 . S
C652 H639 0.960 . S
C652 C651 1.524 . S
C653 C650 1.403 . S
C653 C654 1.392 . S
C653 C657 1.495 . S
C654 C653 1.392 . S
C654 C655 1.385 . S
C654 C656 1.478 . S
C655 H649 0.930 . S
C655 C651 1.400 . S
C655 C654 1.385 . S
C656 C654 1.478 . S
C656 C658 1.381 . S
C656 C662 1.383 . S
C657 C653 1.495 . S
C657 H663 0.959 . S
C657 H664 0.961 . S
C657 H665 0.960 . S
C658 C656 1.381 . S
C658 C659 1.394 . S
C658 H666 0.930 . S
C659 C658 1.394 . S
C659 C660 1.383 . S
C659 H667 0.929 . S
C660 C659 1.383 . S
C660 C661 1.377 . S
C661 H645 0.930 . S
C661 C660 1.377 . S
C661 C662 1.379 . S
C662 H646 0.931 . S
C662 C656 1.383 . S
C662 C661 1.379 . S
H663 C657 0.959 . S
H664 C657 0.961 . S
H665 C657 0.960 . S
H666 C658 0.930 . S
H667 C659 0.929 . S
H668 C676 0.929 . S
H669 C678 0.930 . S
H670 C680 0.930 . S
H671 C683 0.929 . S
H672 C686 0.930 . S
H673 C688 0.960 . S
H674 C688 0.960 . S
H675 C688 0.960 . S
C676 H668 0.929 . S
C676 C677 1.377 . S
C676 C678 1.384 . S
C677 C676 1.377 . S
C677 C683 1.390 . S
C678 H669 0.930 . S
C678 C676 1.384 . S
C678 C679 1.372 . S
C679 C678 1.372 . S
C679 C680 1.400 . S
C679 C684 1.490 . S
C680 H670 0.930 . S
C680 C679 1.400 . S
C680 C683 1.386 . S
H681 C697 0.930 . S
H682 C698 0.931 . S
C683 H671 0.929 . S
C683 C677 1.390 . S
C683 C680 1.386 . S
C684 C679 1.490 . S
C684 C686 1.395 . S
C684 C687 1.403 . S
H685 C691 0.930 . S
C686 H672 0.930 . S
C686 C684 1.395 . S
C686 C689 1.403 . S
C687 C684 1.403 . S
C687 C688 1.524 . S
C687 C691 1.400 . S
C688 H673 0.960 . S
C688 H674 0.960 . S
C688 H675 0.960 . S
C688 C687 1.524 . S
C689 C686 1.403 . S
C689 C690 1.392 . S
C689 C693 1.495 . S
C690 C689 1.392 . S
C690 C691 1.385 . S
C690 C692 1.478 . S
C691 H685 0.930 . S
C691 C687 1.400 . S
C691 C690 1.385 . S
C692 C690 1.478 . S
C692 C694 1.381 . S
C692 C698 1.383 . S
C693 C689 1.495 . S
C693 H699 0.959 . S
C693 H700 0.961 . S
C693 H701 0.960 . S
C694 C692 1.381 . S
C694 C695 1.394 . S
C694 H702 0.930 . S
C695 C694 1.394 . S
C695 C696 1.383 . S
C695 H703 0.929 . S
C696 C695 1.383 . S
C696 C697 1.377 . S
C697 H681 0.930 . S
C697 C696 1.377 . S
C697 C698 1.379 . S
C698 H682 0.931 . S
C698 C692 1.383 . S
C698 C697 1.379 . S
H699 C693 0.959 . S
H700 C693 0.961 . S
H701 C693 0.960 . S
H702 C694 0.930 . S
H703 C695 0.929 . S
H704 C712 0.929 . S
H705 C714 0.930 . S
H706 C716 0.930 . S
H707 C719 0.929 . S
H708 C722 0.930 . S
H709 C724 0.960 . S
H710 C724 0.960 . S
H711 C724 0.960 . S
C712 H704 0.929 . S
C712 C713 1.377 . S
C712 C714 1.384 . S
C713 C712 1.377 . S
C713 C719 1.390 . S
C714 H705 0.930 . S
C714 C712 1.384 . S
C714 C715 1.372 . S
C715 C714 1.372 . S
C715 C716 1.400 . S
C715 C720 1.490 . S
C716 H706 0.930 . S
C716 C715 1.400 . S
C716 C719 1.386 . S
H717 C733 0.930 . S
H718 C734 0.931 . S
C719 H707 0.929 . S
C719 C713 1.390 . S
C719 C716 1.386 . S
C720 C715 1.490 . S
C720 C722 1.395 . S
C720 C723 1.403 . S
H721 C727 0.930 . S
C722 H708 0.930 . S
C722 C720 1.395 . S
C722 C725 1.403 . S
C723 C720 1.403 . S
C723 C724 1.524 . S
C723 C727 1.400 . S
C724 H709 0.960 . S
C724 H710 0.960 . S
C724 H711 0.960 . S
C724 C723 1.524 . S
C725 C722 1.403 . S
C725 C726 1.392 . S
C725 C729 1.495 . S
C726 C725 1.392 . S
C726 C727 1.385 . S
C726 C728 1.478 . S
C727 H721 0.930 . S
C727 C723 1.400 . S
C727 C726 1.385 . S
C728 C726 1.478 . S
C728 C730 1.381 . S
C728 C734 1.383 . S
C729 C725 1.495 . S
C729 H735 0.959 . S
C729 H736 0.961 . S
C729 H737 0.960 . S
C730 C728 1.381 . S
C730 C731 1.394 . S
C730 H738 0.930 . S
C731 C730 1.394 . S
C731 C732 1.383 . S
C731 H739 0.929 . S
C732 C731 1.383 . S
C732 C733 1.377 . S
C733 H717 0.930 . S
C733 C732 1.377 . S
C733 C734 1.379 . S
C734 H718 0.931 . S
C734 C728 1.383 . S
C734 C733 1.379 . S
H735 C729 0.959 . S
H736 C729 0.961 . S
H737 C729 0.960 . S
H738 C730 0.930 . S
H739 C731 0.929 . S
H740 C748 0.929 . S
H741 C750 0.930 . S
H742 C752 0.930 . S
H743 C755 0.929 . S
H744 C758 0.930 . S
H745 C760 0.960 . S
H746 C760 0.960 . S
H747 C760 0.960 . S
C748 H740 0.929 . S
C748 C749 1.377 . S
C748 C750 1.384 . S
C749 C748 1.377 . S
C749 C755 1.390 . S
C750 H741 0.930 . S
C750 C748 1.384 . S
C750 C751 1.372 . S
C751 C750 1.372 . S
C751 C752 1.400 . S
C751 C756 1.490 . S
C752 H742 0.930 . S
C752 C751 1.400 . S
C752 C755 1.386 . S
H753 C769 0.930 . S
H754 C770 0.931 . S
C755 H743 0.929 . S
C755 C749 1.390 . S
C755 C752 1.386 . S
C756 C751 1.490 . S
C756 C758 1.395 . S
C756 C759 1.403 . S
H757 C763 0.930 . S
C758 H744 0.930 . S
C758 C756 1.395 . S
C758 C761 1.403 . S
C759 C756 1.403 . S
C759 C760 1.524 . S
C759 C763 1.400 . S
C760 H745 0.960 . S
C760 H746 0.960 . S
C760 H747 0.960 . S
C760 C759 1.524 . S
C761 C758 1.403 . S
C761 C762 1.392 . S
C761 C765 1.495 . S
C762 C761 1.392 . S
C762 C763 1.385 . S
C762 C764 1.478 . S
C763 H757 0.930 . S
C763 C759 1.400 . S
C763 C762 1.385 . S
C764 C762 1.478 . S
C764 C766 1.381 . S
C764 C770 1.383 . S
C765 C761 1.495 . S
C765 H771 0.959 . S
C765 H772 0.961 . S
C765 H773 0.960 . S
C766 C764 1.381 . S
C766 C767 1.394 . S
C766 H774 0.930 . S
C767 C766 1.394 . S
C767 C768 1.383 . S
C767 H775 0.929 . S
C768 C767 1.383 . S
C768 C769 1.377 . S
C769 H753 0.930 . S
C769 C768 1.377 . S
C769 C770 1.379 . S
C770 H754 0.931 . S
C770 C764 1.383 . S
C770 C769 1.379 . S
H771 C765 0.959 . S
H772 C765 0.961 . S
H773 C765 0.960 . S
H774 C766 0.930 . S
H775 C767 0.929 . S
H776 C784 0.929 . S
H777 C786 0.930 . S
H778 C788 0.930 . S
H779 C791 0.929 . S
H780 C794 0.930 . S
H781 C796 0.960 . S
H782 C796 0.960 . S
H783 C796 0.960 . S
C784 H776 0.929 . S
C784 C785 1.377 . S
C784 C786 1.384 . S
C785 C784 1.377 . S
C785 C791 1.390 . S
C786 H777 0.930 . S
C786 C784 1.384 . S
C786 C787 1.372 . S
C787 C786 1.372 . S
C787 C788 1.400 . S
C787 C792 1.490 . S
C788 H778 0.930 . S
C788 C787 1.400 . S
C788 C791 1.386 . S
H789 C805 0.930 . S
H790 C806 0.931 . S
C791 H779 0.929 . S
C791 C785 1.390 . S
C791 C788 1.386 . S
C792 C787 1.490 . S
C792 C794 1.395 . S
C792 C795 1.403 . S
H793 C799 0.930 . S
C794 H780 0.930 . S
C794 C792 1.395 . S
C794 C797 1.403 . S
C795 C792 1.403 . S
C795 C796 1.524 . S
C795 C799 1.400 . S
C796 H781 0.960 . S
C796 H782 0.960 . S
C796 H783 0.960 . S
C796 C795 1.524 . S
C797 C794 1.403 . S
C797 C798 1.392 . S
C797 C801 1.495 . S
C798 C797 1.392 . S
C798 C799 1.385 . S
C798 C800 1.478 . S
C799 H793 0.930 . S
C799 C795 1.400 . S
C799 C798 1.385 . S
C800 C798 1.478 . S
C800 C802 1.381 . S
C800 C806 1.383 . S
C801 C797 1.495 . S
C801 H807 0.959 . S
C801 H808 0.961 . S
C801 H809 0.960 . S
C802 C800 1.381 . S
C802 C803 1.394 . S
C802 H810 0.930 . S
C803 C802 1.394 . S
C803 C804 1.383 . S
C803 H811 0.929 . S
C804 C803 1.383 . S
C804 C805 1.377 . S
C805 H789 0.930 . S
C805 C804 1.377 . S
C805 C806 1.379 . S
C806 H790 0.931 . S
C806 C800 1.383 . S
C806 C805 1.379 . S
H807 C801 0.959 . S
H808 C801 0.961 . S
H809 C801 0.960 . S
H810 C802 0.930 . S
H811 C803 0.929 . S
H812 C820 0.929 . S
H813 C822 0.930 . S
H814 C824 0.930 . S
H815 C827 0.929 . S
H816 C830 0.930 . S
H817 C832 0.960 . S
H818 C832 0.960 . S
H819 C832 0.960 . S
C820 H812 0.929 . S
C820 C821 1.377 . S
C820 C822 1.384 . S
C821 C820 1.377 . S
C821 C827 1.390 . S
C822 H813 0.930 . S
C822 C820 1.384 . S
C822 C823 1.372 . S
C823 C822 1.372 . S
C823 C824 1.400 . S
C823 C828 1.490 . S
C824 H814 0.930 . S
C824 C823 1.400 . S
C824 C827 1.386 . S
H825 C841 0.930 . S
H826 C842 0.931 . S
C827 H815 0.929 . S
C827 C821 1.390 . S
C827 C824 1.386 . S
C828 C823 1.490 . S
C828 C830 1.395 . S
C828 C831 1.403 . S
H829 C835 0.930 . S
C830 H816 0.930 . S
C830 C828 1.395 . S
C830 C833 1.403 . S
C831 C828 1.403 . S
C831 C832 1.524 . S
C831 C835 1.400 . S
C832 H817 0.960 . S
C832 H818 0.960 . S
C832 H819 0.960 . S
C832 C831 1.524 . S
C833 C830 1.403 . S
C833 C834 1.392 . S
C833 C837 1.495 . S
C834 C833 1.392 . S
C834 C835 1.385 . S
C834 C836 1.478 . S
C835 H829 0.930 . S
C835 C831 1.400 . S
C835 C834 1.385 . S
C836 C834 1.478 . S
C836 C838 1.381 . S
C836 C842 1.383 . S
C837 C833 1.495 . S
C837 H843 0.959 . S
C837 H844 0.961 . S
C837 H845 0.960 . S
C838 C836 1.381 . S
C838 C839 1.394 . S
C838 H846 0.930 . S
C839 C838 1.394 . S
C839 C840 1.383 . S
C839 H847 0.929 . S
C840 C839 1.383 . S
C840 C841 1.377 . S
C841 H825 0.930 . S
C841 C840 1.377 . S
C841 C842 1.379 . S
C842 H826 0.931 . S
C842 C836 1.383 . S
C842 C841 1.379 . S
H843 C837 0.959 . S
H844 C837 0.961 . S
H845 C837 0.960 . S
H846 C838 0.930 . S
H847 C839 0.929 . S
H848 C856 0.929 . S
H849 C858 0.930 . S
H850 C860 0.930 . S
H851 C863 0.929 . S
H852 C866 0.930 . S
H853 C868 0.960 . S
H854 C868 0.960 . S
H855 C868 0.960 . S
C856 H848 0.929 . S
C856 C857 1.377 . S
C856 C858 1.384 . S
C857 C856 1.377 . S
C857 C863 1.390 . S
C858 H849 0.930 . S
C858 C856 1.384 . S
C858 C859 1.372 . S
C859 C858 1.372 . S
C859 C860 1.400 . S
C859 C864 1.490 . S
C860 H850 0.930 . S
C860 C859 1.400 . S
C860 C863 1.386 . S
H861 C877 0.930 . S
H862 C878 0.931 . S
C863 H851 0.929 . S
C863 C857 1.390 . S
C863 C860 1.386 . S
C864 C859 1.490 . S
C864 C866 1.395 . S
C864 C867 1.403 . S
H865 C871 0.930 . S
C866 H852 0.930 . S
C866 C864 1.395 . S
C866 C869 1.403 . S
C867 C864 1.403 . S
C867 C868 1.524 . S
C867 C871 1.400 . S
C868 H853 0.960 . S
C868 H854 0.960 . S
C868 H855 0.960 . S
C868 C867 1.524 . S
C869 C866 1.403 . S
C869 C870 1.392 . S
C869 C873 1.495 . S
C870 C869 1.392 . S
C870 C871 1.385 . S
C870 C872 1.478 . S
C871 H865 0.930 . S
C871 C867 1.400 . S
C871 C870 1.385 . S
C872 C870 1.478 . S
C872 C874 1.381 . S
C872 C878 1.383 . S
C873 C869 1.495 . S
C873 H879 0.959 . S
C873 H880 0.961 . S
C873 H881 0.960 . S
C874 C872 1.381 . S
C874 C875 1.394 . S
C874 H882 0.930 . S
C875 C874 1.394 . S
C875 C876 1.383 . S
C875 H883 0.929 . S
C876 C875 1.383 . S
C876 C877 1.377 . S
C877 H861 0.930 . S
C877 C876 1.377 . S
C877 C878 1.379 . S
C878 H862 0.931 . S
C878 C872 1.383 . S
C878 C877 1.379 . S
H879 C873 0.959 . S
H880 C873 0.961 . S
H881 C873 0.960 . S
H882 C874 0.930 . S
H883 C875 0.929 . S
H884 C892 0.929 . S
H885 C894 0.930 . S
H886 C896 0.930 . S
H887 C899 0.929 . S
H888 C902 0.930 . S
H889 C904 0.960 . S
H890 C904 0.960 . S
H891 C904 0.960 . S
C892 H884 0.929 . S
C892 C893 1.377 . S
C892 C894 1.384 . S
C893 C892 1.377 . S
C893 C899 1.390 . S
C894 H885 0.930 . S
C894 C892 1.384 . S
C894 C895 1.372 . S
C895 C894 1.372 . S
C895 C896 1.400 . S
C895 C900 1.490 . S
C896 H886 0.930 . S
C896 C895 1.400 . S
C896 C899 1.386 . S
H897 C913 0.930 . S
H898 C914 0.931 . S
C899 H887 0.929 . S
C899 C893 1.390 . S
C899 C896 1.386 . S
C900 C895 1.490 . S
C900 C902 1.395 . S
C900 C903 1.403 . S
H901 C907 0.930 . S
C902 H888 0.930 . S
C902 C900 1.395 . S
C902 C905 1.403 . S
C903 C900 1.403 . S
C903 C904 1.524 . S
C903 C907 1.400 . S
C904 H889 0.960 . S
C904 H890 0.960 . S
C904 H891 0.960 . S
C904 C903 1.524 . S
C905 C902 1.403 . S
C905 C906 1.392 . S
C905 C909 1.495 . S
C906 C905 1.392 . S
C906 C907 1.385 . S
C906 C908 1.478 . S
C907 H901 0.930 . S
C907 C903 1.400 . S
C907 C906 1.385 . S
C908 C906 1.478 . S
C908 C910 1.381 . S
C908 C914 1.383 . S
C909 C905 1.495 . S
C909 H915 0.959 . S
C909 H916 0.961 . S
C909 H917 0.960 . S
C910 C908 1.381 . S
C910 C911 1.394 . S
C910 H918 0.930 . S
C911 C910 1.394 . S
C911 C912 1.383 . S
C911 H919 0.929 . S
C912 C911 1.383 . S
C912 C913 1.377 . S
C913 H897 0.930 . S
C913 C912 1.377 . S
C913 C914 1.379 . S
C914 H898 0.931 . S
C914 C908 1.383 . S
C914 C913 1.379 . S
H915 C909 0.959 . S
H916 C909 0.961 . S
H917 C909 0.960 . S
H918 C910 0.930 . S
H919 C911 0.929 . S
H920 C928 0.929 . S
H921 C930 0.930 . S
H922 C932 0.930 . S
H923 C935 0.929 . S
H924 C938 0.930 . S
H925 C940 0.960 . S
H926 C940 0.960 . S
H927 C940 0.960 . S
C928 H920 0.929 . S
C928 C929 1.377 . S
C928 C930 1.384 . S
C929 C928 1.377 . S
C929 C935 1.390 1_554 S
C930 H921 0.930 . S
C930 C928 1.384 . S
C930 C931 1.372 . S
C931 C930 1.372 . S
C931 C932 1.400 1_554 S
C931 C936 1.490 . S
C932 H922 0.930 . S
C932 C931 1.400 1_556 S
C932 C935 1.386 . S
H933 C949 0.930 . S
H934 C950 0.930 1_556 S
C935 H923 0.929 . S
C935 C929 1.390 1_556 S
C935 C932 1.386 . S
C936 C931 1.490 . S
C936 C938 1.395 . S
C936 C939 1.403 1_554 S
H937 C943 0.930 . S
C938 H924 0.930 . S
C938 C936 1.395 . S
C938 C941 1.403 . S
C939 C936 1.403 1_556 S
C939 C940 1.524 . S
C939 C943 1.400 . S
C940 H925 0.960 . S
C940 H926 0.960 . S
C940 H927 0.960 . S
C940 C939 1.524 . S
C941 C938 1.403 . S
C941 C942 1.392 . S
C941 C945 1.495 . S
C942 C941 1.392 . S
C942 C943 1.385 1_554 S
C942 C944 1.478 . S
C943 H937 0.930 . S
C943 C939 1.400 . S
C943 C942 1.385 1_556 S
C944 C942 1.478 . S
C944 C946 1.381 . S
C944 C950 1.383 . S
C945 C941 1.495 . S
C945 H951 0.959 . S
C945 H952 0.961 . S
C945 H953 0.960 . S
C946 C944 1.381 . S
C946 C947 1.394 . S
C946 H954 0.930 . S
C947 C946 1.394 . S
C947 C948 1.383 . S
C947 H955 0.929 . S
C948 C947 1.383 . S
C948 C949 1.377 1_554 S
C949 H933 0.930 . S
C949 C948 1.377 1_556 S
C949 C950 1.379 1_556 S
C950 H934 0.930 1_554 S
C950 C944 1.383 . S
C950 C949 1.379 1_554 S
H951 C945 0.959 . S
H952 C945 0.961 . S
H953 C945 0.960 . S
H954 C946 0.930 . S
H955 C947 0.929 . S
H956 C964 0.929 . S
H957 C966 0.930 . S
H958 C968 0.930 . S
H959 C971 0.929 . S
H960 C974 0.930 . S
H961 C976 0.960 . S
H962 C976 0.960 . S
H963 C976 0.960 . S
C964 H956 0.929 . S
C964 C965 1.377 . S
C964 C966 1.384 . S
C965 C964 1.377 . S
C965 C971 1.390 . S
C966 H957 0.930 . S
C966 C964 1.384 . S
C966 C967 1.372 . S
C967 C966 1.372 . S
C967 C968 1.400 . S
C967 C972 1.490 . S
C968 H958 0.930 . S
C968 C967 1.400 . S
C968 C971 1.386 . S
H969 C985 0.930 . S
H970 C986 0.931 . S
C971 H959 0.929 . S
C971 C965 1.390 . S
C971 C968 1.386 . S
C972 C967 1.490 . S
C972 C974 1.395 . S
C972 C975 1.403 . S
H973 C979 0.930 . S
C974 H960 0.930 . S
C974 C972 1.395 . S
C974 C977 1.403 . S
C975 C972 1.403 . S
C975 C976 1.524 . S
C975 C979 1.400 . S
C976 H961 0.960 . S
C976 H962 0.960 . S
C976 H963 0.960 . S
C976 C975 1.524 . S
C977 C974 1.403 . S
C977 C978 1.392 . S
C977 C981 1.495 . S
C978 C977 1.392 . S
C978 C979 1.385 . S
C978 C980 1.478 . S
C979 H973 0.930 . S
C979 C975 1.400 . S
C979 C978 1.385 . S
C980 C978 1.478 . S
C980 C982 1.381 . S
C980 C986 1.383 . S
C981 C977 1.495 . S
C981 H987 0.959 . S
C981 H988 0.961 . S
C981 H989 0.960 . S
C982 C980 1.381 . S
C982 C983 1.394 . S
C982 H990 0.930 . S
C983 C982 1.394 . S
C983 C984 1.383 . S
C983 H991 0.929 . S
C984 C983 1.383 . S
C984 C985 1.377 . S
C985 H969 0.930 . S
C985 C984 1.377 . S
C985 C986 1.379 . S
C986 H970 0.931 . S
C986 C980 1.383 . S
C986 C985 1.379 . S
H987 C981 0.959 . S
H988 C981 0.961 . S
H989 C981 0.960 . S
H990 C982 0.930 . S
H991 C983 0.929 . S
H992 C1000 0.929 . S
H993 C1002 0.930 . S
H994 C1004 0.930 . S
H995 C1007 0.929 . S
H996 C1010 0.930 . S
H997 C1012 0.960 . S
H998 C1012 0.960 . S
H999 C1012 0.960 . S
C1000 H992 0.929 . S
C1000 C1001 1.377 1_556 S
C1000 C1002 1.384 . S
C1001 C1000 1.377 1_554 S
C1001 C1007 1.390 . S
C1002 H993 0.930 . S
C1002 C1000 1.384 . S
C1002 C1003 1.372 1_556 S
C1003 C1002 1.372 1_554 S
C1003 C1004 1.400 . S
C1003 C1008 1.491 . S
C1004 H994 0.930 . S
C1004 C1003 1.400 . S
C1004 C1007 1.386 . S
H1005 C1021 0.930 . S
H1006 C1022 0.931 . S
C1007 H995 0.929 . S
C1007 C1001 1.390 . S
C1007 C1004 1.386 . S
C1008 C1003 1.491 . S
C1008 C1010 1.378 1_554 S
C1008 C1011 1.418 . S
H1009 C1015 0.930 . S
C1010 H996 0.930 . S
C1010 C1008 1.378 1_556 S
C1010 C1013 1.403 . S
C1011 C1008 1.418 . S
C1011 C1012 1.524 . S
C1011 C1015 1.400 . S
C1012 H997 0.960 . S
C1012 H998 0.960 . S
C1012 H999 0.960 . S
C1012 C1011 1.524 . S
C1013 C1010 1.403 . S
C1013 C1014 1.392 . S
C1013 C1017 1.495 . S
C1014 C1013 1.392 . S
C1014 C1015 1.385 1_556 S
C1014 C1016 1.478 . S
C1015 H1009 0.930 . S
C1015 C1011 1.400 . S
C1015 C1014 1.385 1_554 S
C1016 C1014 1.478 . S
C1016 C1018 1.381 . S
C1016 C1022 1.383 1_556 S
C1017 C1013 1.495 . S
C1017 H1023 0.959 . S
C1017 H1024 0.961 . S
C1017 H1025 0.960 . S
C1018 C1016 1.381 . S
C1018 C1019 1.394 . S
C1018 H1026 0.930 . S
C1019 C1018 1.394 . S
C1019 C1020 1.384 1_556 S
C1019 H1027 0.929 . S
C1020 C1019 1.384 1_554 S
C1020 C1021 1.376 . S
C1021 H1005 0.930 . S
C1021 C1020 1.376 . S
C1021 C1022 1.379 . S
C1022 H1006 0.931 . S
C1022 C1016 1.383 1_554 S
C1022 C1021 1.379 . S
H1023 C1017 0.959 . S
H1024 C1017 0.961 . S
H1025 C1017 0.960 . S
H1026 C1018 0.930 . S
H1027 C1019 0.929 . S
H1028 C1036 0.929 . S
H1029 C1038 0.930 . S
H1030 C1040 0.930 . S
H1031 C1043 0.929 . S
H1032 C1046 0.930 . S
H1033 C1048 0.960 . S
H1034 C1048 0.960 . S
H1035 C1048 0.960 . S
C1036 H1028 0.929 . S
C1036 C1037 1.377 . S
C1036 C1038 1.384 . S
C1037 C1036 1.377 . S
C1037 C1043 1.390 . S
C1038 H1029 0.930 . S
C1038 C1036 1.384 . S
C1038 C1039 1.372 . S
C1039 C1038 1.372 . S
C1039 C1040 1.400 . S
C1039 C1044 1.490 . S
C1040 H1030 0.930 . S
C1040 C1039 1.400 . S
C1040 C1043 1.386 . S
H1041 C1057 0.930 . S
H1042 C1058 0.931 . S
C1043 H1031 0.929 . S
C1043 C1037 1.390 . S
C1043 C1040 1.386 . S
C1044 C1039 1.490 . S
C1044 C1046 1.395 . S
C1044 C1047 1.403 . S
H1045 C1051 0.930 . S
C1046 H1032 0.930 . S
C1046 C1044 1.395 . S
C1046 C1049 1.403 . S
C1047 C1044 1.403 . S
C1047 C1048 1.524 . S
C1047 C1051 1.400 . S
C1048 H1033 0.960 . S
C1048 H1034 0.960 . S
C1048 H1035 0.960 . S
C1048 C1047 1.524 . S
C1049 C1046 1.403 . S
C1049 C1050 1.392 . S
C1049 C1053 1.495 . S
C1050 C1049 1.392 . S
C1050 C1051 1.385 . S
C1050 C1052 1.478 . S
C1051 H1045 0.930 . S
C1051 C1047 1.400 . S
C1051 C1050 1.385 . S
C1052 C1050 1.478 . S
C1052 C1054 1.381 . S
C1052 C1058 1.383 . S
C1053 C1049 1.495 . S
C1053 H1059 0.959 . S
C1053 H1060 0.961 . S
C1053 H1061 0.960 . S
C1054 C1052 1.381 . S
C1054 C1055 1.394 . S
C1054 H1062 0.930 . S
C1055 C1054 1.394 . S
C1055 C1056 1.383 . S
C1055 H1063 0.929 . S
C1056 C1055 1.383 . S
C1056 C1057 1.377 . S
C1057 H1041 0.930 . S
C1057 C1056 1.377 . S
C1057 C1058 1.379 . S
C1058 H1042 0.931 . S
C1058 C1052 1.383 . S
C1058 C1057 1.379 . S
H1059 C1053 0.959 . S
H1060 C1053 0.961 . S
H1061 C1053 0.960 . S
H1062 C1054 0.930 . S
H1063 C1055 0.929 . S
H1064 C1072 0.929 . S
H1065 C1074 0.930 . S
H1066 C1076 0.930 . S
H1067 C1079 0.929 . S
H1068 C1082 0.930 . S
H1069 C1084 0.960 . S
H1070 C1084 0.960 . S
H1071 C1084 0.960 . S
C1072 H1064 0.929 . S
C1072 C1073 1.377 . S
C1072 C1074 1.384 . S
C1073 C1072 1.377 . S
C1073 C1079 1.390 . S
C1074 H1065 0.930 . S
C1074 C1072 1.384 . S
C1074 C1075 1.372 . S
C1075 C1074 1.372 . S
C1075 C1076 1.400 . S
C1075 C1080 1.490 . S
C1076 H1066 0.930 . S
C1076 C1075 1.400 . S
C1076 C1079 1.386 . S
H1077 C1093 0.930 . S
H1078 C1094 0.931 . S
C1079 H1067 0.929 . S
C1079 C1073 1.390 . S
C1079 C1076 1.386 . S
C1080 C1075 1.490 . S
C1080 C1082 1.395 . S
C1080 C1083 1.403 . S
H1081 C1087 0.930 . S
C1082 H1068 0.930 . S
C1082 C1080 1.395 . S
C1082 C1085 1.403 . S
C1083 C1080 1.403 . S
C1083 C1084 1.524 . S
C1083 C1087 1.400 . S
C1084 H1069 0.960 . S
C1084 H1070 0.960 . S
C1084 H1071 0.960 . S
C1084 C1083 1.524 . S
C1085 C1082 1.403 . S
C1085 C1086 1.392 . S
C1085 C1089 1.495 . S
C1086 C1085 1.392 . S
C1086 C1087 1.385 . S
C1086 C1088 1.478 . S
C1087 H1081 0.930 . S
C1087 C1083 1.400 . S
C1087 C1086 1.385 . S
C1088 C1086 1.478 . S
C1088 C1090 1.381 . S
C1088 C1094 1.383 . S
C1089 C1085 1.495 . S
C1089 H1095 0.959 . S
C1089 H1096 0.961 . S
C1089 H1097 0.960 . S
C1090 C1088 1.381 . S
C1090 C1091 1.394 . S
C1090 H1098 0.930 . S
C1091 C1090 1.394 . S
C1091 C1092 1.383 . S
C1091 H1099 0.929 . S
C1092 C1091 1.383 . S
C1092 C1093 1.377 . S
C1093 H1077 0.930 . S
C1093 C1092 1.377 . S
C1093 C1094 1.379 . S
C1094 H1078 0.931 . S
C1094 C1088 1.383 . S
C1094 C1093 1.379 . S
H1095 C1089 0.959 . S
H1096 C1089 0.961 . S
H1097 C1089 0.960 . S
H1098 C1090 0.930 . S
H1099 C1091 0.929 . S
H1100 C1108 0.929 . S
H1101 C1110 0.930 . S
H1102 C1112 0.930 . S
H1103 C1115 0.929 . S
H1104 C1118 0.930 . S
H1105 C1120 0.960 . S
H1106 C1120 0.960 . S
H1107 C1120 0.960 . S
C1108 H1100 0.929 . S
C1108 C1109 1.377 . S
C1108 C1110 1.384 . S
C1109 C1108 1.377 . S
C1109 C1115 1.390 1_554 S
C1110 H1101 0.930 . S
C1110 C1108 1.384 . S
C1110 C1111 1.372 . S
C1111 C1110 1.372 . S
C1111 C1112 1.400 1_554 S
C1111 C1116 1.490 . S
C1112 H1102 0.930 . S
C1112 C1111 1.400 1_556 S
C1112 C1115 1.386 . S
H1113 C1129 0.930 . S
H1114 C1130 0.931 . S
C1115 H1103 0.929 . S
C1115 C1109 1.390 1_556 S
C1115 C1112 1.386 . S
C1116 C1111 1.490 . S
C1116 C1118 1.395 . S
C1116 C1119 1.403 1_554 S
H1117 C1123 0.930 . S
C1118 H1104 0.930 . S
C1118 C1116 1.395 . S
C1118 C1121 1.403 . S
C1119 C1116 1.403 1_556 S
C1119 C1120 1.524 . S
C1119 C1123 1.400 . S
C1120 H1105 0.960 . S
C1120 H1106 0.960 . S
C1120 H1107 0.960 . S
C1120 C1119 1.524 . S
C1121 C1118 1.403 . S
C1121 C1122 1.392 . S
C1121 C1125 1.495 . S
C1122 C1121 1.392 . S
C1122 C1123 1.385 1_554 S
C1122 C1124 1.478 . S
C1123 H1117 0.930 . S
C1123 C1119 1.400 . S
C1123 C1122 1.385 1_556 S
C1124 C1122 1.478 . S
C1124 C1126 1.381 . S
C1124 C1130 1.383 1_554 S
C1125 C1121 1.495 . S
C1125 H1131 0.959 . S
C1125 H1132 0.961 . S
C1125 H1133 0.960 . S
C1126 C1124 1.381 . S
C1126 C1127 1.394 . S
C1126 H1134 0.930 . S
C1127 C1126 1.394 . S
C1127 C1128 1.383 . S
C1127 H1135 0.929 . S
C1128 C1127 1.383 . S
C1128 C1129 1.377 1_554 S
C1129 H1113 0.930 . S
C1129 C1128 1.377 1_556 S
C1129 C1130 1.379 . S
C1130 H1114 0.931 . S
C1130 C1124 1.383 1_556 S
C1130 C1129 1.379 . S
H1131 C1125 0.959 . S
H1132 C1125 0.961 . S
H1133 C1125 0.960 . S
H1134 C1126 0.930 . S
H1135 C1127 0.929 . S
H1136 C1144 0.929 . S
H1137 C1146 0.930 . S
H1138 C1148 0.930 . S
H1139 C1151 0.929 . S
H1140 C1154 0.930 . S
H1141 C1156 0.960 . S
H1142 C1156 0.960 . S
H1143 C1156 0.960 . S
C1144 H1136 0.929 . S
C1144 C1145 1.377 . S
C1144 C1146 1.384 . S
C1145 C1144 1.377 . S
C1145 C1151 1.390 . S
C1146 H1137 0.930 . S
C1146 C1144 1.384 . S
C1146 C1147 1.372 . S
C1147 C1146 1.372 . S
C1147 C1148 1.400 . S
C1147 C1152 1.490 . S
C1148 H1138 0.930 . S
C1148 C1147 1.400 . S
C1148 C1151 1.386 . S
H1149 C1165 0.930 . S
H1150 C1166 0.931 . S
C1151 H1139 0.929 . S
C1151 C1145 1.390 . S
C1151 C1148 1.386 . S
C1152 C1147 1.490 . S
C1152 C1154 1.395 . S
C1152 C1155 1.403 . S
H1153 C1159 0.930 . S
C1154 H1140 0.930 . S
C1154 C1152 1.395 . S
C1154 C1157 1.403 . S
C1155 C1152 1.403 . S
C1155 C1156 1.524 . S
C1155 C1159 1.400 . S
C1156 H1141 0.960 . S
C1156 H1142 0.960 . S
C1156 H1143 0.960 . S
C1156 C1155 1.524 . S
C1157 C1154 1.403 . S
C1157 C1158 1.392 . S
C1157 C1161 1.495 . S
C1158 C1157 1.392 . S
C1158 C1159 1.385 . S
C1158 C1160 1.478 . S
C1159 H1153 0.930 . S
C1159 C1155 1.400 . S
C1159 C1158 1.385 . S
C1160 C1158 1.478 . S
C1160 C1162 1.381 . S
C1160 C1166 1.383 . S
C1161 C1157 1.495 . S
C1161 H1167 0.959 . S
C1161 H1168 0.961 . S
C1161 H1169 0.960 . S
C1162 C1160 1.381 . S
C1162 C1163 1.394 . S
C1162 H1170 0.930 . S
C1163 C1162 1.394 . S
C1163 C1164 1.383 . S
C1163 H1171 0.929 . S
C1164 C1163 1.383 . S
C1164 C1165 1.377 . S
C1165 H1149 0.930 . S
C1165 C1164 1.377 . S
C1165 C1166 1.379 . S
C1166 H1150 0.931 . S
C1166 C1160 1.383 . S
C1166 C1165 1.379 . S
H1167 C1161 0.959 . S
H1168 C1161 0.961 . S
H1169 C1161 0.960 . S
H1170 C1162 0.930 . S
H1171 C1163 0.929 . S
H1172 C1180 0.929 . S
H1173 C1182 0.930 . S
H1174 C1184 0.930 . S
H1175 C1187 0.929 . S
H1176 C1190 0.930 . S
H1177 C1192 0.960 . S
H1178 C1192 0.960 . S
H1179 C1192 0.960 . S
C1180 H1172 0.929 . S
C1180 C1181 1.377 1_556 S
C1180 C1182 1.384 . S
C1181 C1180 1.377 1_554 S
C1181 C1187 1.390 . S
C1182 H1173 0.930 . S
C1182 C1180 1.384 . S
C1182 C1183 1.379 . S
C1183 C1182 1.379 . S
C1183 C1184 1.393 1_556 S
C1183 C1188 1.490 . S
C1184 H1174 0.930 . S
C1184 C1183 1.393 1_554 S
C1184 C1187 1.386 . S
H1185 C1201 0.930 . S
H1186 C1202 0.931 . S
C1187 H1175 0.929 . S
C1187 C1181 1.390 . S
C1187 C1184 1.386 . S
C1188 C1183 1.490 . S
C1188 C1190 1.395 . S
C1188 C1191 1.403 1_556 S
H1189 C1195 0.930 . S
C1190 H1176 0.930 . S
C1190 C1188 1.395 . S
C1190 C1193 1.403 . S
C1191 C1188 1.403 1_554 S
C1191 C1192 1.524 . S
C1191 C1195 1.400 . S
C1192 H1177 0.960 . S
C1192 H1178 0.960 . S
C1192 H1179 0.960 . S
C1192 C1191 1.524 . S
C1193 C1190 1.403 . S
C1193 C1194 1.392 . S
C1193 C1197 1.495 . S
C1194 C1193 1.392 . S
C1194 C1195 1.385 1_556 S
C1194 C1196 1.478 . S
C1195 H1189 0.930 . S
C1195 C1191 1.400 . S
C1195 C1194 1.385 1_554 S
C1196 C1194 1.478 . S
C1196 C1198 1.381 . S
C1196 C1202 1.383 1_556 S
C1197 C1193 1.495 . S
C1197 H1203 0.959 . S
C1197 H1204 0.961 . S
C1197 H1205 0.960 . S
C1198 C1196 1.381 . S
C1198 C1199 1.394 . S
C1198 H1206 0.930 . S
C1199 C1198 1.394 . S
C1199 C1200 1.379 1_556 S
C1199 H1207 0.929 . S
C1200 C1199 1.379 1_554 S
C1200 C1201 1.381 . S
C1201 H1185 0.930 . S
C1201 C1200 1.381 . S
C1201 C1202 1.379 . S
C1202 H1186 0.931 . S
C1202 C1196 1.383 1_554 S
C1202 C1201 1.379 . S
H1203 C1197 0.959 . S
H1204 C1197 0.961 . S
H1205 C1197 0.960 . S
H1206 C1198 0.930 . S
H1207 C1199 0.929 . S
C353 C5 1.407 . S
C372 C201 1.421 . S
C389 C31 1.418 . S
C408 C117 1.398 . S
C444 C149 1.366 . S
C425 C53 1.416 . S
C461 C71 1.400 . S
C480 C169 1.413 . S
C516 C277 1.363 . S
C497 C75 1.423 . S
C552 C297 1.415 . S
C533 C9 1.409 . S
C588 C329 1.405 . S
C569 C27 1.400 . S
C624 C245 1.405 . S
C605 C49 1.412 . S
C641 C51 1.406 . S
C660 C137 1.385 . S
C677 C72 1.417 . S
C696 C181 1.442 . S
C713 C6 1.414 . S
C732 C213 1.425 . S
C768 C105 1.396 . S
C749 C29 1.402 . S
C785 C28 1.424 . S
C804 C341 1.415 . S
C840 C233 1.402 . S
C821 C50 1.412 . S
C876 C265 1.348 . S
C857 C73 1.401 . S
C893 C7 1.416 . S
C912 C309 1.416 . S
C948 C111 1.431 . S
C929 C4 1.482 . S
C984 C143 1.407 . S
C965 C30 1.482 . S
C1001 C52 1.477 . S
C1020 C175 1.474 . S
C1037 C70 1.481 . S
C1056 C207 1.490 . S
C1092 C239 1.407 . S
C1073 C74 1.482 . S
C1109 C8 1.477 . S
C1128 C271 1.458 . S
C1145 C26 1.482 . S
C1164 C303 1.491 . S
C1181 C48 1.482 . S
C1200 C335 1.490 . S
