# Generated by pormake.
# Topology ptr, (4,4)-cn, num edge types: 1
# Building blocks:
#     Node 0, Type 0, BuildingBlock: UXUYUI_clean_sbu_0, # of connection points: 4
#     Node 1, Type 0, BuildingBlock: UXUYUI_clean_sbu_0, # of connection points: 4
#     Node 2, Type 0, BuildingBlock: UXUYUI_clean_sbu_0, # of connection points: 4
#     Node 3, Type 0, BuildingBlock: UXUYUI_clean_sbu_0, # of connection points: 4
#     Node 4, Type 0, BuildingBlock: UXUYUI_clean_sbu_0, # of connection points: 4
#     Node 5, Type 0, BuildingBlock: UXUYUI_clean_sbu_0, # of connection points: 4
#     Node 6, Type 0, BuildingBlock: UXUYUI_clean_sbu_0, # of connection points: 4
#     Node 7, Type 0, BuildingBlock: UXUYUI_clean_sbu_0, # of connection points: 4
#     Node 8, Type 0, BuildingBlock: UXUYUI_clean_sbu_0, # of connection points: 4
#     Node 9, Type 0, BuildingBlock: UXUYUI_clean_sbu_0, # of connection points: 4
#     Node 10, Type 0, BuildingBlock: UXUYUI_clean_sbu_0, # of connection points: 4
#     Node 11, Type 0, BuildingBlock: UXUYUI_clean_sbu_0, # of connection points: 4
#     Node 12, Type 0, BuildingBlock: UXUYUI_clean_sbu_0, # of connection points: 4
#     Node 13, Type 0, BuildingBlock: UXUYUI_clean_sbu_0, # of connection points: 4
#     Node 14, Type 0, BuildingBlock: UXUYUI_clean_sbu_0, # of connection points: 4
#     Node 15, Type 0, BuildingBlock: UXUYUI_clean_sbu_0, # of connection points: 4
#     Node 16, Type 0, BuildingBlock: UXUYUI_clean_sbu_0, # of connection points: 4
#     Node 17, Type 0, BuildingBlock: UXUYUI_clean_sbu_0, # of connection points: 4
#     Node 18, Type 1, BuildingBlock: NAWXER_clean_linker_0, # of connection points: 4
#     Node 19, Type 1, BuildingBlock: NAWXER_clean_linker_0, # of connection points: 4
#     Node 20, Type 1, BuildingBlock: NAWXER_clean_linker_0, # of connection points: 4
#     Node 21, Type 1, BuildingBlock: NAWXER_clean_linker_0, # of connection points: 4
#     Node 22, Type 1, BuildingBlock: NAWXER_clean_linker_0, # of connection points: 4
#     Node 23, Type 1, BuildingBlock: NAWXER_clean_linker_0, # of connection points: 4
#     Node 24, Type 1, BuildingBlock: NAWXER_clean_linker_0, # of connection points: 4
#     Node 25, Type 1, BuildingBlock: NAWXER_clean_linker_0, # of connection points: 4
#     Node 26, Type 1, BuildingBlock: NAWXER_clean_linker_0, # of connection points: 4
#     Node 27, Type 1, BuildingBlock: NAWXER_clean_linker_0, # of connection points: 4
#     Node 28, Type 1, BuildingBlock: NAWXER_clean_linker_0, # of connection points: 4
#     Node 29, Type 1, BuildingBlock: NAWXER_clean_linker_0, # of connection points: 4
#     Node 30, Type 1, BuildingBlock: NAWXER_clean_linker_0, # of connection points: 4
#     Node 31, Type 1, BuildingBlock: NAWXER_clean_linker_0, # of connection points: 4
#     Node 32, Type 1, BuildingBlock: NAWXER_clean_linker_0, # of connection points: 4
#     Node 33, Type 1, BuildingBlock: NAWXER_clean_linker_0, # of connection points: 4
#     Node 34, Type 1, BuildingBlock: NAWXER_clean_linker_0, # of connection points: 4
#     Node 35, Type 1, BuildingBlock: NAWXER_clean_linker_0, # of connection points: 4
#     Edge 36, Type (0, 1), BuildingBlock: AJUNOK_clean_linker_0, # of connection points: 2
#     Edge 37, Type (0, 1), BuildingBlock: AJUNOK_clean_linker_0, # of connection points: 2
#     Edge 38, Type (0, 1), BuildingBlock: AJUNOK_clean_linker_0, # of connection points: 2
#     Edge 39, Type (0, 1), BuildingBlock: AJUNOK_clean_linker_0, # of connection points: 2
#     Edge 40, Type (0, 1), BuildingBlock: AJUNOK_clean_linker_0, # of connection points: 2
#     Edge 41, Type (0, 1), BuildingBlock: AJUNOK_clean_linker_0, # of connection points: 2
#     Edge 42, Type (0, 1), BuildingBlock: AJUNOK_clean_linker_0, # of connection points: 2
#     Edge 43, Type (0, 1), BuildingBlock: AJUNOK_clean_linker_0, # of connection points: 2
#     Edge 44, Type (0, 1), BuildingBlock: AJUNOK_clean_linker_0, # of connection points: 2
#     Edge 45, Type (0, 1), BuildingBlock: AJUNOK_clean_linker_0, # of connection points: 2
#     Edge 46, Type (0, 1), BuildingBlock: AJUNOK_clean_linker_0, # of connection points: 2
#     Edge 47, Type (0, 1), BuildingBlock: AJUNOK_clean_linker_0, # of connection points: 2
#     Edge 48, Type (0, 1), BuildingBlock: AJUNOK_clean_linker_0, # of connection points: 2
#     Edge 49, Type (0, 1), BuildingBlock: AJUNOK_clean_linker_0, # of connection points: 2
#     Edge 50, Type (0, 1), BuildingBlock: AJUNOK_clean_linker_0, # of connection points: 2
#     Edge 51, Type (0, 1), BuildingBlock: AJUNOK_clean_linker_0, # of connection points: 2
#     Edge 52, Type (0, 1), BuildingBlock: AJUNOK_clean_linker_0, # of connection points: 2
#     Edge 53, Type (0, 1), BuildingBlock: AJUNOK_clean_linker_0, # of connection points: 2
#     Edge 54, Type (0, 1), BuildingBlock: AJUNOK_clean_linker_0, # of connection points: 2
#     Edge 55, Type (0, 1), BuildingBlock: AJUNOK_clean_linker_0, # of connection points: 2
#     Edge 56, Type (0, 1), BuildingBlock: AJUNOK_clean_linker_0, # of connection points: 2
#     Edge 57, Type (0, 1), BuildingBlock: AJUNOK_clean_linker_0, # of connection points: 2
#     Edge 58, Type (0, 1), BuildingBlock: AJUNOK_clean_linker_0, # of connection points: 2
#     Edge 59, Type (0, 1), BuildingBlock: AJUNOK_clean_linker_0, # of connection points: 2
#     Edge 60, Type (0, 1), BuildingBlock: AJUNOK_clean_linker_0, # of connection points: 2
#     Edge 61, Type (0, 1), BuildingBlock: AJUNOK_clean_linker_0, # of connection points: 2
#     Edge 62, Type (0, 1), BuildingBlock: AJUNOK_clean_linker_0, # of connection points: 2
#     Edge 63, Type (0, 1), BuildingBlock: AJUNOK_clean_linker_0, # of connection points: 2
#     Edge 64, Type (0, 1), BuildingBlock: AJUNOK_clean_linker_0, # of connection points: 2
#     Edge 65, Type (0, 1), BuildingBlock: AJUNOK_clean_linker_0, # of connection points: 2
#     Edge 66, Type (0, 1), BuildingBlock: AJUNOK_clean_linker_0, # of connection points: 2
#     Edge 67, Type (0, 1), BuildingBlock: AJUNOK_clean_linker_0, # of connection points: 2
#     Edge 68, Type (0, 1), BuildingBlock: AJUNOK_clean_linker_0, # of connection points: 2
#     Edge 69, Type (0, 1), BuildingBlock: AJUNOK_clean_linker_0, # of connection points: 2
#     Edge 70, Type (0, 1), BuildingBlock: AJUNOK_clean_linker_0, # of connection points: 2
#     Edge 71, Type (0, 1), BuildingBlock: AJUNOK_clean_linker_0, # of connection points: 2
#     Edge 72, Type (0, 1), BuildingBlock: AJUNOK_clean_linker_0, # of connection points: 2
#     Edge 73, Type (0, 1), BuildingBlock: AJUNOK_clean_linker_0, # of connection points: 2
#     Edge 74, Type (0, 1), BuildingBlock: AJUNOK_clean_linker_0, # of connection points: 2
#     Edge 75, Type (0, 1), BuildingBlock: AJUNOK_clean_linker_0, # of connection points: 2
#     Edge 76, Type (0, 1), BuildingBlock: AJUNOK_clean_linker_0, # of connection points: 2
#     Edge 77, Type (0, 1), BuildingBlock: AJUNOK_clean_linker_0, # of connection points: 2
#     Edge 78, Type (0, 1), BuildingBlock: AJUNOK_clean_linker_0, # of connection points: 2
#     Edge 79, Type (0, 1), BuildingBlock: AJUNOK_clean_linker_0, # of connection points: 2
#     Edge 80, Type (0, 1), BuildingBlock: AJUNOK_clean_linker_0, # of connection points: 2
#     Edge 81, Type (0, 1), BuildingBlock: AJUNOK_clean_linker_0, # of connection points: 2
#     Edge 82, Type (0, 1), BuildingBlock: AJUNOK_clean_linker_0, # of connection points: 2
#     Edge 83, Type (0, 1), BuildingBlock: AJUNOK_clean_linker_0, # of connection points: 2
#     Edge 84, Type (0, 1), BuildingBlock: AJUNOK_clean_linker_0, # of connection points: 2
#     Edge 85, Type (0, 1), BuildingBlock: AJUNOK_clean_linker_0, # of connection points: 2
#     Edge 86, Type (0, 1), BuildingBlock: AJUNOK_clean_linker_0, # of connection points: 2
#     Edge 87, Type (0, 1), BuildingBlock: AJUNOK_clean_linker_0, # of connection points: 2
#     Edge 88, Type (0, 1), BuildingBlock: AJUNOK_clean_linker_0, # of connection points: 2
#     Edge 89, Type (0, 1), BuildingBlock: AJUNOK_clean_linker_0, # of connection points: 2
#     Edge 90, Type (0, 1), BuildingBlock: AJUNOK_clean_linker_0, # of connection points: 2
#     Edge 91, Type (0, 1), BuildingBlock: AJUNOK_clean_linker_0, # of connection points: 2
#     Edge 92, Type (0, 1), BuildingBlock: AJUNOK_clean_linker_0, # of connection points: 2
#     Edge 93, Type (0, 1), BuildingBlock: AJUNOK_clean_linker_0, # of connection points: 2
#     Edge 94, Type (0, 1), BuildingBlock: AJUNOK_clean_linker_0, # of connection points: 2
#     Edge 95, Type (0, 1), BuildingBlock: AJUNOK_clean_linker_0, # of connection points: 2
#     Edge 96, Type (0, 1), BuildingBlock: AJUNOK_clean_linker_0, # of connection points: 2
#     Edge 97, Type (0, 1), BuildingBlock: AJUNOK_clean_linker_0, # of connection points: 2
#     Edge 98, Type (0, 1), BuildingBlock: AJUNOK_clean_linker_0, # of connection points: 2
#     Edge 99, Type (0, 1), BuildingBlock: AJUNOK_clean_linker_0, # of connection points: 2
#     Edge 100, Type (0, 1), BuildingBlock: AJUNOK_clean_linker_0, # of connection points: 2
#     Edge 101, Type (0, 1), BuildingBlock: AJUNOK_clean_linker_0, # of connection points: 2
#     Edge 102, Type (0, 1), BuildingBlock: AJUNOK_clean_linker_0, # of connection points: 2
#     Edge 103, Type (0, 1), BuildingBlock: AJUNOK_clean_linker_0, # of connection points: 2
#     Edge 104, Type (0, 1), BuildingBlock: AJUNOK_clean_linker_0, # of connection points: 2
#     Edge 105, Type (0, 1), BuildingBlock: AJUNOK_clean_linker_0, # of connection points: 2
#     Edge 106, Type (0, 1), BuildingBlock: AJUNOK_clean_linker_0, # of connection points: 2
#     Edge 107, Type (0, 1), BuildingBlock: AJUNOK_clean_linker_0, # of connection points: 2
# Relax obj value: 0.097
# Max RMSD: 0.293
# Mean RMSD: 0.120
data_MOF--net-ptr--node1-UXUYUI_clean_sbu_0--node2-NAWXER_clean_linker_0--edge1-AJUNOK_clean_linker_0
_symmetry_space_group_name_H-M    P1
_symmetry_Int_Tables_number       1
_symmetry_cell_setting            triclinic
loop_
_symmetry_equiv_pos_as_xyz
'x, y, z'
_cell_length_a     85.992467
_cell_length_b     85.98728
_cell_length_c     60.608901
_cell_angle_alpha  90.144178
_cell_angle_beta   89.856752
_cell_angle_gamma 120.19173
loop_
_atom_site_label
_atom_site_type_symbol
_atom_site_fract_x
_atom_site_fract_y
_atom_site_fract_z
_atom_type_partial_charge
Li0 Li 0.99242 0.33307 0.99586 0.0
Li1 Li 0.02124 0.34964 0.01295 0.0
Li2 Li 0.99889 0.35685 0.02352 0.0
Li3 Li 0.01259 0.36463 0.98718 0.0
C4 C 0.00169 0.32232 0.03929 0.0
N5 N 0.01138 0.30082 0.06241 0.0
C6 C 0.00374 0.30914 0.0283 0.0
C7 C 0.00443 0.32445 0.06208 0.0
C8 C 0.00866 0.29842 0.04028 0.0
C9 C 0.00937 0.31349 0.07346 0.0
C10 C 0.03174 0.34987 0.96931 0.0
C11 C 0.06312 0.37136 0.96322 0.0
N12 N 0.063 0.36189 0.94515 0.0
C13 C 0.03192 0.34036 0.95068 0.0
C14 C 0.04746 0.36551 0.97565 0.0
C15 C 0.04786 0.34664 0.93868 0.0
C16 C 0.9716 0.31215 0.96109 0.0
N17 N 0.97469 0.31125 0.98288 0.0
C18 C 0.95322 0.27979 0.98354 0.0
C19 C 0.96558 0.29561 0.99434 0.0
C20 C 0.95008 0.28019 0.96085 0.0
C21 C 0.95918 0.29675 0.94974 0.0
H22 H 0.97886 0.32488 0.95255 0.0
H23 H 0.968 0.29537 0.01179 0.0
C24 C 0.04743 0.35617 0.04457 0.0
N25 N 0.04042 0.34745 0.02522 0.0
C26 C 0.05944 0.35296 0.05639 0.0
C27 C 0.05725 0.33232 0.02774 0.0
C28 C 0.04536 0.33601 0.01639 0.0
C29 C 0.06409 0.34055 0.04824 0.0
H30 H 0.04305 0.365 0.05129 0.0
H31 H 0.03939 0.32908 0.0011 0.0
C32 C 0.96852 0.34583 0.99628 0.0
N33 N 0.93181 0.33166 1.00015 0.0
C34 C 0.9596 0.35167 0.98228 0.0
C35 C 0.95876 0.33276 0.01224 0.0
C36 C 0.94104 0.34435 0.9845 0.0
C37 C 0.94021 0.32577 0.01393 0.0
C38 C 0.02783 0.39105 0.01946 0.0
C39 C 0.01577 0.39623 0.01183 0.0
C40 C 0.0433 0.40346 0.03078 0.0
C41 C 0.01942 0.41378 0.01564 0.0
C42 C 0.04647 0.42089 0.03426 0.0
N43 N 0.03456 0.42564 0.02668 0.0
C44 C -9e-05 0.36872 0.06656 0.0
C45 C 0.979 0.3716 0.04408 0.0
C46 C 0.99726 0.37802 0.08369 0.0
N47 N 0.99089 0.36577 0.04721 0.0
C48 C 0.97599 0.38103 0.06075 0.0
C49 C 0.98537 0.38455 0.08077 0.0
H50 H 0.00988 0.36467 0.06825 0.0
H51 H 0.97261 0.36992 0.02825 0.0
C52 C 0.0066 0.37699 0.94763 0.0
N53 N 0.01916 0.38143 0.96366 0.0
C54 C 0.00924 0.3892 0.9309 0.0
C55 C 0.03801 0.41014 0.94707 0.0
C56 C 0.03485 0.39747 0.96346 0.0
C57 C 0.02499 0.40613 0.93069 0.0
H58 H 0.99425 0.36414 0.94826 0.0
H59 H 0.04465 0.40065 0.97638 0.0
O60 O 0.99739 0.33328 0.02772 0.0
O61 O 0.01615 0.34383 0.98108 0.0
O62 O 0.98667 0.35281 0.99411 0.0
O63 O 0.0245 0.37387 0.01632 0.0
H64 H 0.00196 0.30749 0.01061 0.0
H65 H 0.0028 0.33448 0.0709 0.0
H66 H 0.01047 0.2883 0.03194 0.0
H67 H 0.01162 0.31506 0.09108 0.0
H68 H 0.07538 0.38343 0.96794 0.0
H69 H 0.01984 0.32824 0.94556 0.0
H70 H 0.04764 0.37306 0.99001 0.0
H71 H 0.04819 0.33941 0.92423 0.0
H72 H 0.94641 0.26734 0.99277 0.0
H73 H 0.95668 0.29784 0.93247 0.0
H74 H 0.06441 0.35949 0.0722 0.0
H75 H 0.06071 0.32282 0.02085 0.0
H76 H 0.96696 0.36177 0.96984 0.0
H77 H 0.96538 0.32806 0.02325 0.0
H78 H 0.93396 0.34876 0.97379 0.0
H79 H 0.93249 0.31566 0.0262 0.0
H80 H 0.0037 0.38685 0.00308 0.0
H81 H 0.05273 0.39964 0.03686 0.0
H82 H 0.0102 0.41796 0.00983 0.0
H83 H 0.05839 0.43063 0.04301 0.0
H84 H 0.0049 0.38062 0.0988 0.0
H85 H 0.96718 0.38636 0.05752 0.0
H86 H 0.99872 0.38573 0.91883 0.0
H87 H 0.05031 0.42308 0.94744 0.0
Li88 Li 0.66891 0.65599 0.99729 0.0
Li89 Li 0.6528 0.66845 0.01491 0.0
Li90 Li 0.64559 0.6389 0.02557 0.0
Li91 Li 0.63719 0.64449 0.9896 0.0
C92 C 0.68024 0.67634 0.04091 0.0
N93 N 0.7018 0.70752 0.06438 0.0
C94 C 0.69334 0.69172 0.03004 0.0
C95 C 0.67824 0.67677 0.06376 0.0
C96 C 0.70408 0.70736 0.04219 0.0
C97 C 0.68923 0.69267 0.07532 0.0
C98 C 0.65183 0.67825 0.97123 0.0
C99 C 0.63068 0.68854 0.96595 0.0
N100 N 0.63963 0.6973 0.94733 0.0
C101 C 0.66081 0.68735 0.95206 0.0
C102 C 0.63664 0.67884 0.97827 0.0
C103 C 0.65443 0.69691 0.9402 0.0
C104 C 0.69009 0.65665 0.96215 0.0
N105 N 0.69067 0.66024 0.98406 0.0
C106 C 0.72214 0.67055 0.98523 0.0
C107 C 0.70617 0.66681 0.99578 0.0
C108 C 0.72201 0.66702 0.96254 0.0
C109 C 0.70566 0.65988 0.95102 0.0
H110 H 0.6775 0.65132 0.95333 0.0
H111 H 0.70621 0.66934 0.01325 0.0
C112 C 0.64665 0.68862 0.04628 0.0
N113 N 0.65531 0.69003 0.02696 0.0
C114 C 0.64982 0.70407 0.05764 0.0
C115 C 0.67039 0.7221 0.02868 0.0
C116 C 0.66672 0.7063 0.01778 0.0
C117 C 0.66214 0.72104 0.04906 0.0
H118 H 0.63782 0.67548 0.05326 0.0
H119 H 0.67357 0.70701 0.00251 0.0
C120 C 0.65596 0.61918 0.99796 0.0
N121 N 0.66999 0.59659 0.0015 0.0
C122 C 0.64954 0.60399 0.98444 0.0
C123 C 0.66954 0.62289 0.01328 0.0
C124 C 0.6568 0.59273 0.9865 0.0
C125 C 0.67645 0.61131 0.01481 0.0
C126 C 0.61143 0.63363 0.02252 0.0
C127 C 0.60609 0.61624 0.01509 0.0
C128 C 0.59918 0.63684 0.03393 0.0
C129 C 0.58855 0.60236 0.01918 0.0
C130 C 0.58175 0.6226 0.0377 0.0
N131 N 0.57684 0.6058 0.03031 0.0
C132 C 0.63421 0.62855 0.06878 0.0
C133 C 0.63164 0.60451 0.04686 0.0
C134 C 0.62541 0.61686 0.0863 0.0
N135 N 0.6371 0.62225 0.04954 0.0
C136 C 0.62272 0.59232 0.06394 0.0
C137 C 0.61931 0.59843 0.08388 0.0
H138 H 0.63792 0.64254 0.07011 0.0
H139 H 0.63325 0.59958 0.03114 0.0
C140 C 0.62287 0.625 0.95084 0.0
N141 N 0.61968 0.63413 0.96686 0.0
C142 C 0.60997 0.61559 0.93465 0.0
C143 C 0.59097 0.62566 0.95132 0.0
C144 C 0.60427 0.6349 0.96719 0.0
C145 C 0.59363 0.61556 0.93504 0.0
H146 H 0.63529 0.6247 0.95098 0.0
H147 H 0.60209 0.64233 0.98006 0.0
O148 O 0.66926 0.66105 0.02918 0.0
O149 O 0.65799 0.66882 0.9829 0.0
O150 O 0.64903 0.63036 0.99594 0.0
O151 O 0.62858 0.64751 0.01897 0.0
H152 H 0.69491 0.69172 0.01232 0.0
H153 H 0.66832 0.66498 0.0725 0.0
H154 H 0.71413 0.71941 0.03395 0.0
H155 H 0.68776 0.69322 0.09299 0.0
H156 H 0.61895 0.68911 0.97121 0.0
H157 H 0.67259 0.687 0.9464 0.0
H158 H 0.62952 0.67193 0.99307 0.0
H159 H 0.66126 0.70402 0.92532 0.0
H160 H 0.73448 0.67645 0.99468 0.0
H161 H 0.70491 0.65681 0.93358 0.0
H162 H 0.64328 0.70278 0.07338 0.0
H163 H 0.67983 0.735 0.0215 0.0
H164 H 0.63903 0.60092 0.97251 0.0
H165 H 0.67469 0.63454 0.02391 0.0
H166 H 0.65194 0.58092 0.97615 0.0
H167 H 0.68696 0.61402 0.02658 0.0
H168 H 0.61533 0.61343 0.00626 0.0
H169 H 0.60313 0.65022 0.03983 0.0
H170 H 0.58424 0.58885 0.01352 0.0
H171 H 0.57214 0.6249 0.04651 0.0
H172 H 0.62286 0.62207 0.10131 0.0
H173 H 0.61769 0.57814 0.0611 0.0
H174 H 0.6125 0.60793 0.9224 0.0
H175 H 0.57867 0.6262 0.95192 0.0
Li176 Li 0.35264 0.99059 0.99375 0.0
Li177 Li 0.36194 0.00501 0.02958 0.0
Li178 Li 0.33 0.98527 0.02254 0.0
Li179 Li 0.34645 0.01366 0.00445 0.0
C180 C 0.34194 0.96068 0.02166 0.0
N181 N 0.32675 0.92378 0.01875 0.0
C182 C 0.34784 0.95172 0.0355 0.0
C183 C 0.32829 0.95087 0.00635 0.0
C184 C 0.34 0.93306 0.03376 0.0
C185 C 0.32079 0.93222 0.00514 0.0
C186 C 0.38721 0.01918 0.99586 0.0
C187 C 0.41645 0.03703 0.97915 0.0
N188 N 0.42129 0.02518 0.98666 0.0
C189 C 0.39247 0.00715 0.00339 0.0
C190 C 0.39927 0.03423 0.98362 0.0
C191 C 0.40976 0.01043 0.99858 0.0
C192 C 0.36317 0.99083 0.95033 0.0
N193 N 0.36052 0.98193 0.96971 0.0
C194 C 0.3753 0.96672 0.95565 0.0
C195 C 0.3662 0.96989 0.97259 0.0
C196 C 0.37869 0.97613 0.93567 0.0
C197 C 0.37218 0.98805 0.93296 0.0
H198 H 0.3592 0.00088 0.94882 0.0
H199 H 0.36474 0.96358 0.98843 0.0
C200 C 0.37594 0.99964 0.06829 0.0
N201 N 0.37965 0.0119 0.05206 0.0
C202 C 0.38877 0.00274 0.08436 0.0
C203 C 0.40883 0.03134 0.06716 0.0
C204 C 0.39557 0.02769 0.05142 0.0
C205 C 0.4056 0.0186 0.08365 0.0
H206 H 0.36312 0.98724 0.06841 0.0
H207 H 0.39816 0.03727 0.0384 0.0
C208 C 0.31832 0.99414 0.97942 0.0
N209 N 0.29692 0.00425 0.95689 0.0
C210 C 0.30644 0.99784 0.99095 0.0
C211 C 0.31919 0.99542 0.95643 0.0
C212 C 0.29576 0.00296 0.97926 0.0
C213 C 0.3083 0.0006 0.94534 0.0
C214 C 0.34851 0.02516 0.04807 0.0
C215 C 0.33986 0.02594 0.06723 0.0
C216 C 0.36407 0.04056 0.04081 0.0
C217 C 0.34692 0.04215 0.07884 0.0
C218 C 0.37071 0.05651 0.05288 0.0
N219 N 0.36207 0.05697 0.07148 0.0
C220 C 0.30988 0.96426 0.05779 0.0
C221 C 0.29236 0.95959 0.02564 0.0
C222 C 0.29472 0.95172 0.06943 0.0
N223 N 0.30841 0.96797 0.03637 0.0
C224 C 0.27677 0.94716 0.03678 0.0
C225 C 0.27793 0.94312 0.05891 0.0
H226 H 0.32288 0.97109 0.06579 0.0
H227 H 0.29163 0.96253 0.00848 0.0
C228 C 0.35187 0.03832 0.97146 0.0
N229 N 0.34468 0.03303 0.99194 0.0
C230 C 0.34957 0.05102 0.95988 0.0
C231 C 0.33294 0.05299 0.99094 0.0
C232 C 0.33543 0.04011 0.00187 0.0
C233 C 0.33998 0.05852 0.9696 0.0
H234 H 0.35884 0.03217 0.96384 0.0
H235 H 0.32951 0.03539 0.01798 0.0
O236 O 0.34939 0.97893 0.02341 0.0
O237 O 0.37027 0.01619 0.99997 0.0
O238 O 0.32926 0.98962 0.99066 0.0
O239 O 0.34172 0.00931 0.03668 0.0
H240 H 0.35839 0.95912 0.04744 0.0
H241 H 0.32352 0.95751 0.99549 0.0
H242 H 0.34445 0.92595 0.04436 0.0
H243 H 0.31023 0.92446 0.99337 0.0
H244 H 0.42592 0.04862 0.96968 0.0
H245 H 0.38334 0.99539 0.01281 0.0
H246 H 0.39537 0.04361 0.97759 0.0
H247 H 0.414 0.00124 0.0043 0.0
H248 H 0.38061 0.95786 0.95868 0.0
H249 H 0.37469 0.9957 0.91788 0.0
H250 H 0.38579 0.99258 0.09678 0.0
H251 H 0.42154 0.04386 0.06631 0.0
H252 H 0.30575 0.99711 0.00878 0.0
H253 H 0.32821 0.9925 0.94723 0.0
H254 H 0.28663 0.00603 0.98798 0.0
H255 H 0.3089 0.00173 0.92755 0.0
H256 H 0.32782 0.01412 0.07307 0.0
H257 H 0.37095 0.04028 0.02602 0.0
H258 H 0.34036 0.04294 0.0937 0.0
H259 H 0.38273 0.06853 0.04745 0.0
H260 H 0.29603 0.94896 0.08654 0.0
H261 H 0.264 0.94064 0.02819 0.0
H262 H 0.35477 0.0545 0.94323 0.0
H263 H 0.32542 0.05841 0.99897 0.0
Li264 Li 0.01829 0.6704 0.01638 0.0
Li265 Li 0.99528 0.63925 0.0249 0.0
Li266 Li 0.01018 0.64747 0.98772 0.0
Li267 Li 0.98805 0.65586 0.9974 0.0
C268 C 0.03741 0.65298 0.02505 0.0
N269 N 0.07086 0.66213 0.04165 0.0
C270 C 0.03884 0.64566 0.04499 0.0
C271 C 0.053 0.66476 0.01342 0.0
C272 C 0.05587 0.6505 0.05315 0.0
C273 C 0.06978 0.66928 0.02212 0.0
C274 C 0.98482 0.66135 0.04783 0.0
C275 C 0.95704 0.6531 0.06688 0.0
N276 N 0.96651 0.66139 0.0854 0.0
C277 C 0.99427 0.67003 0.06697 0.0
C278 C 0.96605 0.65302 0.0477 0.0
C279 C 0.98478 0.6698 0.08583 0.0
C280 C 0.04097 0.70809 0.02135 0.0
N281 N 0.03631 0.69178 0.03015 0.0
C282 C 0.05499 0.70577 0.06152 0.0
C283 C 0.04304 0.69038 0.04983 0.0
C284 C 0.05993 0.7228 0.053 0.0
C285 C 0.05287 0.72389 0.03255 0.0
H286 H 0.03504 0.7088 0.00594 0.0
H287 H 0.03862 0.67729 0.05689 0.0
C288 C 0.97929 0.60416 0.04299 0.0
N289 N 0.98765 0.62198 0.04804 0.0
C290 C 0.9761 0.59151 0.0594 0.0
C291 C 0.99012 0.61577 0.08587 0.0
C292 C 0.99293 0.62792 0.069 0.0
C293 C 0.98184 0.59734 0.08107 0.0
H294 H 0.97582 0.59983 0.02606 0.0
H295 H 0.00031 0.64217 0.0724 0.0
C296 C 0.02217 0.67858 0.96582 0.0
N297 N 0.04157 0.69223 0.92728 0.0
C298 C 0.01327 0.67532 0.9456 0.0
C299 C 0.04092 0.6891 0.96647 0.0
C300 C 0.02331 0.68223 0.92629 0.0
C301 C 0.0505 0.6958 0.9468 0.0
C302 C 0.96634 0.61906 0.99207 0.0
C303 C 0.96001 0.61073 0.97159 0.0
C304 C 0.95425 0.61485 0.00954 0.0
C305 C 0.94164 0.59866 0.96883 0.0
C306 C 0.93598 0.6027 0.00616 0.0
N307 N 0.9301 0.59494 0.98602 0.0
C308 C 0.0313 0.63478 0.96613 0.0
C309 C 0.00774 0.63397 0.94506 0.0
C310 C 0.03482 0.62572 0.94945 0.0
N311 N 0.0178 0.63851 0.96375 0.0
C312 C 0.01066 0.62475 0.92808 0.0
C313 C 0.02418 0.62025 0.9303 0.0
H314 H 0.03883 0.63809 0.98132 0.0
H315 H 0.99688 0.63681 0.94376 0.0
C316 C 0.96531 0.67097 0.99541 0.0
N317 N 0.97032 0.66017 0.98498 0.0
C318 C 0.95317 0.67505 0.98541 0.0
C319 C 0.95192 0.65712 0.95396 0.0
C320 C 0.96387 0.65321 0.96468 0.0
C321 C 0.94654 0.66831 0.96423 0.0
H322 H 0.97094 0.67666 0.01135 0.0
H323 H 0.9684 0.64501 0.95653 0.0
O324 O 0.02083 0.64859 0.01699 0.0
O325 O 0.99394 0.66158 0.02915 0.0
O326 O 0.01256 0.6718 0.9849 0.0
O327 O 0.98429 0.63106 0.99502 0.0
H328 H 0.02695 0.63635 0.0541 0.0
H329 H 0.05214 0.67027 0.9978 0.0
H330 H 0.05716 0.645 0.06861 0.0
H331 H 0.08195 0.67843 0.01331 0.0
H332 H 0.94252 0.64665 0.06699 0.0
H333 H 0.00878 0.67677 0.06736 0.0
H334 H 0.95848 0.64676 0.03289 0.0
H335 H 0.99195 0.67633 0.1008 0.0
H336 H 0.06009 0.70437 0.07727 0.0
H337 H 0.05602 0.73676 0.02567 0.0
H338 H 0.97011 0.57744 0.05495 0.0
H339 H 0.99495 0.62077 0.10234 0.0
H340 H 0.99877 0.66744 0.94479 0.0
H341 H 0.04803 0.69221 0.98199 0.0
H342 H 0.01659 0.67966 0.91051 0.0
H343 H 0.06502 0.7039 0.94707 0.0
H344 H 0.96914 0.61359 0.95792 0.0
H345 H 0.95894 0.62072 0.02564 0.0
H346 H 0.93656 0.59224 0.95303 0.0
H347 H 0.9265 0.59937 0.01956 0.0
H348 H 0.04534 0.62247 0.95185 0.0
H349 H 0.00178 0.62036 0.91394 0.0
H350 H 0.94909 0.68343 0.99413 0.0
H351 H 0.94728 0.65178 0.93756 0.0
Li352 Li 0.33208 0.34948 0.01824 0.0
Li353 Li 0.36314 0.35803 0.02575 0.0
Li354 Li 0.35488 0.36512 0.98985 0.0
Li355 Li 0.34602 0.3341 0.99929 0.0
C356 C 0.3503 0.38787 0.02252 0.0
N357 N 0.34422 0.4162 0.02897 0.0
C358 C 0.3557 0.39777 0.04214 0.0
C359 C 0.34206 0.39255 0.00606 0.0
C360 C 0.35243 0.41199 0.04513 0.0
C361 C 0.33904 0.40687 0.00966 0.0
C362 C 0.33711 0.33205 0.05369 0.0
C363 C 0.32442 0.31295 0.08555 0.0
N364 N 0.32841 0.32766 0.09804 0.0
C365 C 0.34109 0.34696 0.06686 0.0
C366 C 0.32871 0.3149 0.0631 0.0
C367 C 0.33659 0.34447 0.08923 0.0
C368 C 0.29465 0.33104 0.02479 0.0
N369 N 0.3103 0.34564 0.03139 0.0
C370 C 0.29485 0.35236 0.05925 0.0
C371 C 0.31064 0.35636 0.04813 0.0
C372 C 0.27854 0.33716 0.05313 0.0
C373 C 0.27849 0.32659 0.03539 0.0
H374 H 0.2948 0.32265 0.01155 0.0
H375 H 0.32323 0.36766 0.05345 0.0
C376 C 0.39177 0.38646 0.04586 0.0
N377 N 0.3817 0.36827 0.04718 0.0
C378 C 0.40423 0.39624 0.06223 0.0
C379 C 0.39659 0.36828 0.08047 0.0
C380 C 0.38412 0.35899 0.0637 0.0
C381 C 0.40639 0.38717 0.08009 0.0
H382 H 0.38962 0.39343 0.03244 0.0
H383 H 0.37591 0.34448 0.06431 0.0
C384 C 0.32026 0.34311 0.97004 0.0
N385 N 0.29855 0.34275 0.93627 0.0
C386 C 0.31895 0.33401 0.95035 0.0
C387 C 0.31027 0.35173 0.97269 0.0
C388 C 0.30797 0.33408 0.93343 0.0
C389 C 0.29945 0.35148 0.95539 0.0
C390 C 0.3832 0.34959 0.99759 0.0
C391 C 0.39862 0.35752 0.98438 0.0
C392 C 0.38061 0.33619 0.01264 0.0
C393 C 0.41123 0.35191 0.98644 0.0
C394 C 0.39354 0.33096 0.01421 0.0
N395 N 0.40845 0.33886 0.00119 0.0
C396 C 0.3793 0.3986 0.97408 0.0
C397 C 0.35945 0.38008 0.94594 0.0
C398 C 0.38959 0.41195 0.95877 0.0
N399 N 0.36474 0.38295 0.96743 0.0
C400 C 0.36934 0.39317 0.93004 0.0
C401 C 0.38489 0.40909 0.93638 0.0
H402 H 0.38331 0.4004 0.99122 0.0
H403 H 0.34808 0.36742 0.94094 0.0
C404 C 0.33272 0.29647 0.99758 0.0
N405 N 0.34199 0.3123 0.98655 0.0
C406 C 0.32914 0.28039 0.98745 0.0
C407 C 0.34484 0.2973 0.95493 0.0
C408 C 0.34823 0.31304 0.96574 0.0
C409 C 0.33501 0.28066 0.96571 0.0
H410 H 0.32799 0.29634 0.01415 0.0
H411 H 0.35559 0.32587 0.95743 0.0
O412 O 0.35351 0.37397 0.01932 0.0
O413 O 0.34125 0.33409 0.03166 0.0
O414 O 0.33079 0.34298 0.98684 0.0
O415 O 0.37077 0.35497 0.99569 0.0
H416 H 0.36222 0.39442 0.05501 0.0
H417 H 0.33824 0.38538 0.99056 0.0
H418 H 0.35642 0.41969 0.06029 0.0
H419 H 0.33265 0.41062 0.99707 0.0
H420 H 0.3179 0.29975 0.09304 0.0
H421 H 0.34758 0.36033 0.05992 0.0
H422 H 0.32551 0.30319 0.05317 0.0
H423 H 0.3396 0.35591 0.09959 0.0
H424 H 0.29549 0.36076 0.07297 0.0
H425 H 0.26614 0.31494 0.02989 0.0
H426 H 0.4118 0.41079 0.06125 0.0
H427 H 0.39804 0.3609 0.094 0.0
H428 H 0.32641 0.32709 0.9481 0.0
H429 H 0.31071 0.3584 0.98801 0.0
H430 H 0.30694 0.32721 0.91805 0.0
H431 H 0.29169 0.35815 0.9572 0.0
H432 H 0.4008 0.36792 0.97265 0.0
H433 H 0.36877 0.32987 0.02299 0.0
H434 H 0.42323 0.35793 0.97632 0.0
H435 H 0.39171 0.32061 0.02578 0.0
H436 H 0.40143 0.42416 0.96425 0.0
H437 H 0.36542 0.39051 0.91286 0.0
H438 H 0.32191 0.2679 0.99654 0.0
H439 H 0.34958 0.29809 0.93817 0.0
Li440 Li 0.65264 0.98273 0.01874 0.0
Li441 Li 0.64281 0.00437 0.02697 0.0
Li442 Li 0.63634 0.99036 0.99197 0.0
Li443 Li 0.6672 0.01394 1.00023 0.0
C444 C 0.61046 0.96583 0.02063 0.0
N445 N 0.57438 0.94007 0.02001 0.0
C446 C 0.59744 0.971 0.0209 0.0
C447 C 0.60516 0.94757 0.02031 0.0
C448 C 0.57926 0.95777 0.0205 0.0
C449 C 0.58684 0.93475 0.01994 0.0
C450 C 0.67132 0.01719 0.05096 0.0
C451 C 0.68191 0.04537 0.07003 0.0
N452 N 0.67773 0.03649 0.08964 0.0
C453 C 0.66721 0.00833 0.07127 0.0
C454 C 0.67878 0.03584 0.05028 0.0
C455 C 0.67053 0.01834 0.09066 0.0
C456 C 0.66968 0.96193 0.02291 0.0
N457 N 0.65696 0.96523 0.03136 0.0
C458 C 0.65117 0.94485 0.06107 0.0
C459 C 0.64768 0.95695 0.04997 0.0
C460 C 0.66438 0.94129 0.05294 0.0
C461 C 0.67363 0.94991 0.03352 0.0
H462 H 0.67699 0.96892 0.00821 0.0
H463 H 0.63775 0.96 0.05637 0.0
C464 C 0.63416 0.02732 0.05382 0.0
N465 N 0.6327 0.01092 0.0511 0.0
C466 C 0.62465 0.03006 0.07067 0.0
C467 C 0.61338 0.99943 0.08255 0.0
C468 C 0.62296 0.99725 0.06542 0.0
C469 C 0.61383 0.01587 0.08507 0.0
H470 H 0.64239 0.0382 0.04276 0.0
H471 H 0.62235 0.98448 0.06328 0.0
C472 C 0.65394 0.97952 0.96819 0.0
N473 N 0.64235 0.95953 0.92983 0.0
C474 C 0.65816 0.98814 0.94772 0.0
C475 C 0.6439 0.96076 0.96919 0.0
C476 C 0.65215 0.97779 0.9285 0.0
C477 C 0.63816 0.95088 0.94959 0.0
C478 C 0.64066 0.02859 0.99856 0.0
C479 C 0.62246 0.02343 0.99738 0.0
C480 C 0.65367 0.04683 0.99996 0.0
C481 C 0.61755 0.03664 0.99803 0.0
C482 C 0.64821 0.05963 0.00053 0.0
N483 N 0.63042 0.05431 0.99959 0.0
C484 C 0.60557 0.96534 0.96539 0.0
C485 C 0.62229 0.99568 0.95361 0.0
C486 C 0.59289 0.96142 0.94873 0.0
N487 N 0.61959 0.98241 0.96794 0.0
C488 C 0.61011 0.99232 0.93662 0.0
C489 C 0.595 0.97511 0.93433 0.0
H490 H 0.60397 0.95484 0.97645 0.0
H491 H 0.63371 0.00906 0.95575 0.0
C492 C 0.70486 0.03723 0.99569 0.0
N493 N 0.68842 0.03243 0.98724 0.0
C494 C 0.72046 0.04957 0.98447 0.0
C495 C 0.70181 0.05201 0.95646 0.0
C496 C 0.68661 0.03965 0.96819 0.0
C497 C 0.71899 0.05682 0.96435 0.0
H498 H 0.70583 0.0311 0.0108 0.0
H499 H 0.67332 0.03547 0.96187 0.0
O500 O 0.62833 0.97854 0.02111 0.0
O501 O 0.66757 0.00759 0.03178 0.0
O502 O 0.65912 0.98941 0.9872 0.0
O503 O 0.64576 0.01591 0.99776 0.0
H504 H 0.60134 0.98507 0.0215 0.0
H505 H 0.6151 0.94337 0.02015 0.0
H506 H 0.56903 0.96157 0.02062 0.0
H507 H 0.58252 0.92056 0.01955 0.0
H508 H 0.68758 0.0598 0.06977 0.0
H509 H 0.66133 0.99388 0.07203 0.0
H510 H 0.68192 0.04285 0.03464 0.0
H511 H 0.66732 0.01167 0.10651 0.0
H512 H 0.64371 0.93842 0.07595 0.0
H513 H 0.68414 0.94778 0.02696 0.0
H514 H 0.62527 0.04292 0.0719 0.0
H515 H 0.60545 0.98824 0.09351 0.0
H516 H 0.66583 0.00267 0.94671 0.0
H517 H 0.6404 0.95392 0.98495 0.0
H518 H 0.65522 0.98427 0.91253 0.0
H519 H 0.63029 0.93635 0.9501 0.0
H520 H 0.61226 0.0094 0.99589 0.0
H521 H 0.66782 0.05104 0.00078 0.0
H522 H 0.60351 0.03284 0.99722 0.0
H523 H 0.65812 0.07379 0.00174 0.0
H524 H 0.58141 0.94795 0.94734 0.0
H525 H 0.61208 0.00328 0.92599 0.0
H526 H 0.73349 0.05296 0.99104 0.0
H527 H 0.70014 0.0576 0.94125 0.0
Li528 Li 0.65095 0.66608 0.33585 0.0
Li529 Li 0.67979 0.67977 0.35346 0.0
Li530 Li 0.65923 0.69025 0.36174 0.0
Li531 Li 0.67379 0.69642 0.32635 0.0
C532 C 0.64017 0.65611 0.3793 0.0
N533 N 0.60852 0.636 0.40251 0.0
C534 C 0.63993 0.64671 0.39819 0.0
C535 C 0.62431 0.65527 0.3722 0.0
C536 C 0.6238 0.63662 0.4097 0.0
C537 C 0.60845 0.64504 0.38416 0.0
C538 C 0.67572 0.65931 0.31557 0.0
C539 C 0.68198 0.64272 0.28828 0.0
N540 N 0.67768 0.62939 0.30324 0.0
C541 C 0.67135 0.64544 0.33067 0.0
C542 C 0.68106 0.65796 0.2942 0.0
C543 C 0.67244 0.63043 0.32412 0.0
C544 C 0.6255 0.64613 0.30377 0.0
N545 N 0.63229 0.64451 0.32327 0.0
C546 C 0.61468 0.61244 0.32129 0.0
C547 C 0.62704 0.62813 0.33229 0.0
C548 C 0.60761 0.61369 0.30092 0.0
C549 C 0.61304 0.63082 0.29228 0.0
H550 H 0.63012 0.65935 0.2969 0.0
H551 H 0.63287 0.62722 0.34768 0.0
C552 C 0.69679 0.67452 0.38906 0.0
N553 N 0.69741 0.6757 0.36669 0.0
C554 C 0.7088 0.67101 0.40038 0.0
C555 C 0.72195 0.6701 0.36542 0.0
C556 C 0.7098 0.67383 0.35476 0.0
C557 C 0.7214 0.66854 0.38849 0.0
H558 H 0.68684 0.67617 0.39806 0.0
H559 H 0.71018 0.67509 0.337 0.0
C560 C 0.64398 0.7005 0.32813 0.0
N561 N 0.63636 0.7274 0.31873 0.0
C562 C 0.65479 0.71781 0.33668 0.0
C563 C 0.62931 0.69689 0.31478 0.0
C564 C 0.65071 0.73122 0.33176 0.0
C565 C 0.62568 0.71067 0.31022 0.0
C566 C 0.70352 0.71629 0.35313 0.0
C567 C 0.71286 0.73071 0.36764 0.0
C568 C 0.71283 0.71337 0.33619 0.0
C569 C 0.7314 0.74198 0.36498 0.0
C570 C 0.73137 0.72493 0.33409 0.0
N571 N 0.74019 0.73888 0.34841 0.0
C572 C 0.66369 0.70895 0.40088 0.0
C573 C 0.6352 0.6989 0.38441 0.0
C574 C 0.65994 0.71798 0.4173 0.0
N575 N 0.65151 0.69994 0.38469 0.0
C576 C 0.63089 0.70777 0.40053 0.0
C577 C 0.64351 0.71776 0.41699 0.0
H578 H 0.67653 0.70948 0.40067 0.0
H579 H 0.62573 0.69159 0.37137 0.0
C580 C 0.67614 0.70605 0.28209 0.0
N581 N 0.68211 0.71301 0.30252 0.0
C582 C 0.67884 0.71744 0.26431 0.0
C583 C 0.69446 0.74295 0.28879 0.0
C584 C 0.69144 0.73108 0.30611 0.0
C585 C 0.68764 0.73611 0.26775 0.0
H586 H 0.66855 0.69161 0.27984 0.0
H587 H 0.69568 0.73626 0.3226 0.0
O588 O 0.65593 0.66602 0.36795 0.0
O589 O 0.67464 0.67412 0.32143 0.0
O590 O 0.64785 0.68718 0.33233 0.0
O591 O 0.68537 0.70514 0.3557 0.0
H592 H 0.6521 0.64721 0.40388 0.0
H593 H 0.62417 0.66238 0.3576 0.0
H594 H 0.62342 0.62928 0.42435 0.0
H595 H 0.59609 0.64428 0.37885 0.0
H596 H 0.68609 0.64149 0.2718 0.0
H597 H 0.66718 0.64622 0.34727 0.0
H598 H 0.68444 0.66857 0.28231 0.0
H599 H 0.66911 0.6196 0.33564 0.0
H600 H 0.61117 0.59951 0.32827 0.0
H601 H 0.60786 0.63236 0.27666 0.0
H602 H 0.70804 0.66991 0.4182 0.0
H603 H 0.7317 0.66854 0.35578 0.0
H604 H 0.66627 0.72093 0.34693 0.0
H605 H 0.62085 0.68357 0.30797 0.0
H606 H 0.65897 0.74467 0.33826 0.0
H607 H 0.61438 0.70806 0.29988 0.0
H608 H 0.70585 0.73318 0.38082 0.0
H609 H 0.70588 0.70235 0.32473 0.0
H610 H 0.7388 0.75319 0.3761 0.0
H611 H 0.73873 0.72282 0.32106 0.0
H612 H 0.67003 0.72558 0.42968 0.0
H613 H 0.61795 0.70704 0.39996 0.0
H614 H 0.67355 0.7117 0.24824 0.0
H615 H 0.70116 0.75727 0.29209 0.0
Li616 Li 0.30346 0.97855 0.32711 0.0
Li617 Li 0.31103 0.97166 0.36251 0.0
Li618 Li 0.32036 0.00238 0.35295 0.0
Li619 Li 0.33414 0.98737 0.33532 0.0
C620 C 0.27796 0.96949 0.3606 0.0
N621 N 0.24268 0.94387 0.36971 0.0
C622 C 0.27066 0.95204 0.35219 0.0
C623 C 0.26732 0.97389 0.37368 0.0
C624 C 0.2528 0.93929 0.35695 0.0
C625 C 0.24951 0.96075 0.3781 0.0
C626 C 0.31925 0.95054 0.33577 0.0
C627 C 0.33733 0.94058 0.35469 0.0
N628 N 0.33125 0.92636 0.34062 0.0
C629 C 0.31318 0.93584 0.3215 0.0
C630 C 0.33142 0.95295 0.35253 0.0
C631 C 0.3194 0.92376 0.32422 0.0
C632 C 0.28843 0.96009 0.2881 0.0
N633 N 0.28603 0.96968 0.30425 0.0
C634 C 0.25781 0.96308 0.28886 0.0
C635 C 0.27132 0.97167 0.30467 0.0
C636 C 0.25955 0.95239 0.27259 0.0
C637 C 0.2753 0.95132 0.27198 0.0
H638 H 0.30031 0.9588 0.28821 0.0
H639 H 0.26977 0.97942 0.31767 0.0
C640 C 0.3028 0.96243 0.40673 0.0
N641 N 0.30179 0.95519 0.38646 0.0
C642 C 0.29356 0.95134 0.42457 0.0
C643 C 0.28302 0.9255 0.40052 0.0
C644 C 0.29241 0.93709 0.38311 0.0
C645 C 0.28313 0.93267 0.42139 0.0
H646 H 0.31015 0.97689 0.40877 0.0
H647 H 0.29142 0.93168 0.36673 0.0
C648 C 0.32039 0.01272 0.30952 0.0
N649 N 0.31063 0.03409 0.28626 0.0
C650 C 0.32991 0.02178 0.29058 0.0
C651 C 0.3059 0.01454 0.31664 0.0
C652 C 0.32477 0.03252 0.27905 0.0
C653 C 0.30118 0.0254 0.30465 0.0
C654 C 0.3513 0.00745 0.37314 0.0
C655 C 0.36136 0.0212 0.35805 0.0
C656 C 0.35792 0.00842 0.39443 0.0
C657 C 0.37792 0.03568 0.36452 0.0
C658 C 0.37454 0.02314 0.40028 0.0
N659 N 0.38412 0.03635 0.38533 0.0
C660 C 0.31612 0.02284 0.38521 0.0
C661 C 0.3361 0.04058 0.35671 0.0
C662 C 0.31962 0.03824 0.39691 0.0
N663 N 0.32447 0.02428 0.36564 0.0
C664 C 0.34006 0.05637 0.36792 0.0
C665 C 0.33201 0.05526 0.38848 0.0
H666 H 0.30702 0.00966 0.39192 0.0
H667 H 0.34268 0.04133 0.34119 0.0
C668 C 0.3556 0.99086 0.29945 0.0
N669 N 0.35536 0.99018 0.32185 0.0
C670 C 0.37071 0.99343 0.28779 0.0
C671 C 0.38504 0.99445 0.32249 0.0
C672 C 0.36954 0.99164 0.3335 0.0
C673 C 0.38573 0.99549 0.29936 0.0
H674 H 0.34405 0.98954 0.29068 0.0
H675 H 0.36889 0.99076 0.3513 0.0
O676 O 0.29551 0.98219 0.35651 0.0
O677 O 0.31328 0.96247 0.33314 0.0
O678 O 0.32533 0.00215 0.32086 0.0
O679 O 0.33493 0.99319 0.36736 0.0
H680 H 0.27869 0.94832 0.34213 0.0
H681 H 0.27279 0.98732 0.38038 0.0
H682 H 0.24699 0.92575 0.35055 0.0
H683 H 0.24113 0.96397 0.38822 0.0
H684 H 0.34674 0.94228 0.36758 0.0
H685 H 0.30375 0.93377 0.30846 0.0
H686 H 0.33624 0.96418 0.3638 0.0
H687 H 0.31481 0.91231 0.31329 0.0
H688 H 0.24595 0.96443 0.28965 0.0
H689 H 0.27708 0.94314 0.25975 0.0
H690 H 0.2941 0.95732 0.4405 0.0
H691 H 0.27498 0.91118 0.39742 0.0
H692 H 0.34116 0.02051 0.28487 0.0
H693 H 0.29839 0.00771 0.33127 0.0
H694 H 0.33202 0.0396 0.26436 0.0
H695 H 0.29 0.02692 0.30998 0.0
H696 H 0.35647 0.02072 0.3415 0.0
H697 H 0.35025 0.99791 0.40632 0.0
H698 H 0.38585 0.0464 0.35301 0.0
H699 H 0.37983 0.02406 0.41671 0.0
H700 H 0.31283 0.03684 0.41248 0.0
H701 H 0.34969 0.06927 0.36091 0.0
H702 H 0.37081 0.99415 0.26994 0.0
H703 H 0.39632 0.99572 0.33189 0.0
Li704 Li 0.02201 0.32743 0.32571 0.0
Li705 Li 0.0294 0.34216 0.36147 0.0
Li706 Li 0.99795 0.32146 0.3528 0.0
Li707 Li 0.01434 0.34976 0.33459 0.0
C708 C 0.01137 0.29792 0.35413 0.0
N709 N 0.99811 0.26128 0.35139 0.0
C710 C 0.0182 0.28972 0.36783 0.0
C711 C 0.99778 0.28747 0.33903 0.0
C712 C 0.01133 0.27119 0.36619 0.0
C713 C 0.99125 0.26897 0.33791 0.0
C714 C 0.05598 0.35677 0.32949 0.0
C715 C 0.0861 0.37581 0.31573 0.0
N716 N 0.09093 0.36411 0.32385 0.0
C717 C 0.06124 0.34491 0.33767 0.0
C718 C 0.0685 0.37233 0.31842 0.0
C719 C 0.07897 0.34887 0.33467 0.0
C720 C 0.03471 0.32857 0.28345 0.0
N721 N 0.03114 0.31917 0.30258 0.0
C722 C 0.04543 0.30336 0.28888 0.0
C723 C 0.03623 0.30669 0.30557 0.0
C724 C 0.04946 0.31303 0.26901 0.0
C725 C 0.04374 0.32559 0.2663 0.0
H726 H 0.03127 0.339 0.28191 0.0
H727 H 0.03404 0.29996 0.32124 0.0
C728 C 0.04351 0.33774 0.40082 0.0
N729 N 0.04652 0.34994 0.38476 0.0
C730 C 0.05651 0.34153 0.41693 0.0
C731 C 0.07513 0.37072 0.40027 0.0
C732 C 0.06176 0.36636 0.38446 0.0
C733 C 0.07276 0.35801 0.41641 0.0
H734 H 0.03124 0.32481 0.40064 0.0
H735 H 0.06384 0.37585 0.37152 0.0
C736 C 0.98823 0.32941 0.3069 0.0
N737 N 0.96824 0.33811 0.27923 0.0
C738 C 0.97548 0.33327 0.31564 0.0
C739 C 0.9906 0.32971 0.28406 0.0
C740 C 0.96556 0.3377 0.30139 0.0
C741 C 0.98042 0.33422 0.27035 0.0
C742 C 0.01418 0.36146 0.37759 0.0
C743 C 0.00471 0.36196 0.39608 0.0
C744 C 0.02951 0.3772 0.37057 0.0
C745 C 0.01074 0.37822 0.40729 0.0
C746 C 0.03511 0.39318 0.38222 0.0
N747 N 0.02569 0.39336 0.40018 0.0
C748 C 0.97693 0.29898 0.38668 0.0
C749 C 0.96008 0.29655 0.35467 0.0
C750 C 0.96138 0.28644 0.39769 0.0
N751 N 0.97599 0.30383 0.36564 0.0
C752 C 0.94412 0.2842 0.36518 0.0
C753 C 0.94464 0.27896 0.38699 0.0
H754 H 0.98983 0.30493 0.39492 0.0
H755 H 0.95971 0.30042 0.33783 0.0
C756 C 0.02137 0.37483 0.30159 0.0
N757 N 0.01241 0.36861 0.32097 0.0
C758 C 0.01911 0.38713 0.28908 0.0
C759 C 0.99881 0.38677 0.31703 0.0
C760 C 0.00152 0.37451 0.32907 0.0
C761 C 0.00738 0.39292 0.29653 0.0
H762 H 0.02988 0.36981 0.29557 0.0
H763 H 0.99438 0.36915 0.34442 0.0
O764 O 0.01795 0.31604 0.35572 0.0
O765 O 0.03868 0.35325 0.33206 0.0
O766 O 0.99837 0.32545 0.32066 0.0
O767 O 0.00835 0.34558 0.36654 0.0
H768 H 0.02875 0.29762 0.37958 0.0
H769 H 0.9923 0.29352 0.32827 0.0
H770 H 0.01651 0.26467 0.37668 0.0
H771 H 0.98073 0.26073 0.32631 0.0
H772 H 0.09593 0.3878 0.30719 0.0
H773 H 0.05179 0.33279 0.34627 0.0
H774 H 0.06462 0.38162 0.31195 0.0
H775 H 0.08322 0.33983 0.34094 0.0
H776 H 0.05014 0.29402 0.29195 0.0
H777 H 0.04674 0.33346 0.25133 0.0
H778 H 0.05421 0.33137 0.42908 0.0
H779 H 0.08737 0.38369 0.39956 0.0
H780 H 0.97356 0.33324 0.33331 0.0
H781 H 0.00012 0.32643 0.27694 0.0
H782 H 0.95581 0.34093 0.30796 0.0
H783 H 0.9822 0.33459 0.25264 0.0
H784 H 0.99281 0.34989 0.40171 0.0
H785 H 0.037 0.37714 0.35627 0.0
H786 H 0.00353 0.3788 0.42163 0.0
H787 H 0.04694 0.40545 0.37697 0.0
H788 H 0.96243 0.28264 0.4144 0.0
H789 H 0.93151 0.27909 0.35645 0.0
H790 H 0.02629 0.39189 0.27361 0.0
H791 H 0.98963 0.39091 0.32329 0.0
Li792 Li 0.67961 0.99802 0.35381 0.0
Li793 Li 0.65816 0.96749 0.36337 0.0
Li794 Li 0.67193 0.97434 0.32725 0.0
Li795 Li 0.65028 0.98311 0.33671 0.0
C796 C 0.70166 0.9829 0.35258 0.0
N797 N 0.73747 0.99378 0.34558 0.0
C798 C 0.70971 0.97476 0.36414 0.0
C799 C 0.71182 0.99658 0.33746 0.0
C800 C 0.72784 0.98045 0.36038 0.0
C801 C 0.7299 0.00188 0.33415 0.0
C802 C 0.65842 0.99412 0.39018 0.0
C803 C 0.65274 0.0079 0.42151 0.0
N804 N 0.66394 0.00463 0.43392 0.0
C805 C 0.66987 0.99089 0.40324 0.0
C806 C 0.64977 0.00269 0.39936 0.0
C807 C 0.67249 0.99631 0.42532 0.0
C808 C 0.69858 0.03575 0.35872 0.0
N809 N 0.69788 0.02035 0.36549 0.0
C810 C 0.7216 0.0367 0.3913 0.0
C811 C 0.70916 0.02055 0.38131 0.0
C812 C 0.7224 0.05278 0.38501 0.0
C813 C 0.71087 0.05224 0.36826 0.0
H814 H 0.68936 0.03515 0.34618 0.0
H815 H 0.70822 0.00811 0.3866 0.0
C816 C 0.65717 0.93844 0.38349 0.0
N817 N 0.65014 0.94941 0.38547 0.0
C818 C 0.65292 0.92485 0.39883 0.0
C819 C 0.63409 0.93395 0.41802 0.0
C820 C 0.63865 0.94738 0.40217 0.0
C821 C 0.64124 0.92246 0.41637 0.0
H822 H 0.66626 0.94041 0.37002 0.0
H823 H 0.63318 0.95625 0.40329 0.0
C824 C 0.67162 0.00077 0.30044 0.0
N825 N 0.66646 0.00618 0.25677 0.0
C826 C 0.66066 0.98612 0.28689 0.0
C827 C 0.67997 0.01817 0.29177 0.0
C828 C 0.65821 0.98913 0.26487 0.0
C829 C 0.67719 0.02063 0.26965 0.0
C830 C 0.62847 0.94593 0.33802 0.0
C831 C 0.62042 0.92974 0.32628 0.0
C832 C 0.61831 0.94933 0.35327 0.0
C833 C 0.60231 0.91717 0.33002 0.0
C834 C 0.60024 0.93642 0.35654 0.0
N835 N 0.59268 0.92074 0.34495 0.0
C836 C 0.67136 0.94607 0.30572 0.0
C837 C 0.69153 0.9738 0.28848 0.0
C838 C 0.6743 0.93655 0.28924 0.0
N839 N 0.67967 0.96429 0.30485 0.0
C840 C 0.69495 0.96476 0.27161 0.0
C841 C 0.68601 0.94587 0.27176 0.0
H842 H 0.66213 0.93893 0.31905 0.0
H843 H 0.69794 0.98832 0.2882 0.0
C844 C 0.63033 0.00084 0.33137 0.0
N845 N 0.63187 0.9866 0.32458 0.0
C846 C 0.61806 0.00463 0.3211 0.0
C847 C 0.60918 0.97894 0.29724 0.0
C848 C 0.62145 0.97555 0.30807 0.0
C849 C 0.6075 0.99371 0.30362 0.0
H850 H 0.63895 0.00951 0.34437 0.0
H851 H 0.62299 0.96438 0.30287 0.0
O852 O 0.6839 0.97736 0.35614 0.0
O853 O 0.65574 0.98915 0.36843 0.0
O854 O 0.67413 0.99826 0.32213 0.0
O855 O 0.64623 0.9583 0.33449 0.0
H856 H 0.70203 0.96415 0.37591 0.0
H857 H 0.70588 0.00309 0.32838 0.0
H858 H 0.73424 0.97427 0.36922 0.0
H859 H 0.73792 0.01245 0.32251 0.0
H860 H 0.64614 0.01456 0.42883 0.0
H861 H 0.67669 0.98429 0.39646 0.0
H862 H 0.64089 0.00531 0.38944 0.0
H863 H 0.68132 0.9939 0.43561 0.0
H864 H 0.73017 0.03653 0.40426 0.0
H865 H 0.71128 0.0644 0.36269 0.0
H866 H 0.65901 0.91651 0.39725 0.0
H867 H 0.62506 0.9325 0.43137 0.0
H868 H 0.65405 0.97255 0.29329 0.0
H869 H 0.68849 0.02966 0.30205 0.0
H870 H 0.64974 0.97791 0.25423 0.0
H871 H 0.68356 0.03403 0.26273 0.0
H872 H 0.62808 0.92692 0.31437 0.0
H873 H 0.62423 0.96178 0.36248 0.0
H874 H 0.5959 0.90458 0.32104 0.0
H875 H 0.59222 0.93887 0.3683 0.0
H876 H 0.66732 0.92199 0.29001 0.0
H877 H 0.70399 0.97237 0.25828 0.0
H878 H 0.61725 0.01627 0.32627 0.0
H879 H 0.6012 0.97022 0.28385 0.0
Li880 Li 0.02972 0.68873 0.36182 0.0
Li881 Li 0.99871 0.67773 0.35484 0.0
Li882 Li 0.0147 0.66376 0.33563 0.0
Li883 Li 0.02039 0.6946 0.32686 0.0
C884 C 0.01497 0.65761 0.385 0.0
N885 N 0.02562 0.64457 0.41999 0.0
C886 C 0.01461 0.66331 0.40653 0.0
C887 C 0.0208 0.64529 0.3813 0.0
C888 C 0.02004 0.65657 0.42399 0.0
C889 C 0.02611 0.63884 0.3992 0.0
C890 C 0.00983 0.7101 0.36854 0.0
C891 C 0.98901 0.72103 0.37184 0.0
N892 N 0.99199 0.72298 0.39397 0.0
C893 C 0.01268 0.7122 0.39133 0.0
C894 C 0.99791 0.71457 0.35871 0.0
C895 C 0.00355 0.71875 0.40389 0.0
C896 C 0.05584 0.71867 0.384 0.0
N897 N 0.04919 0.70062 0.38263 0.0
C898 C 0.06994 0.70242 0.41021 0.0
C899 C 0.05641 0.6925 0.39479 0.0
C900 C 0.07641 0.72092 0.41254 0.0
C901 C 0.06947 0.7291 0.39891 0.0
H902 H 0.05041 0.72498 0.3736 0.0
H903 H 0.05175 0.67839 0.39261 0.0
C904 C 0.96154 0.66751 0.35492 0.0
N905 N 0.97614 0.67195 0.36777 0.0
C906 C 0.94518 0.66359 0.36459 0.0
C907 C 0.9592 0.66875 0.40044 0.0
C908 C 0.97518 0.67241 0.39012 0.0
C909 C 0.94396 0.66426 0.38764 0.0
H910 H 0.96259 0.66706 0.3372 0.0
H911 H 0.98688 0.67586 0.39996 0.0
C912 C 0.05545 0.69262 0.33515 0.0
N913 N 0.09151 0.70625 0.34392 0.0
C914 C 0.06764 0.71098 0.33253 0.0
C915 C 0.06158 0.68116 0.3421 0.0
C916 C 0.08582 0.71762 0.33709 0.0
C917 C 0.07987 0.68832 0.34647 0.0
C918 C 0.99344 0.67345 0.30226 0.0
C919 C 0.99689 0.66525 0.28445 0.0
C920 C 0.98624 0.68459 0.2984 0.0
C921 C 0.9932 0.66846 0.26305 0.0
C922 C 0.98276 0.68748 0.27675 0.0
N923 N 0.98629 0.67943 0.25967 0.0
C924 C 0.99746 0.6265 0.32756 0.0
C925 C 0.02428 0.64406 0.30712 0.0
C926 C 0.99426 0.61096 0.31634 0.0
N927 N 0.01219 0.6426 0.32263 0.0
C928 C 0.02152 0.6289 0.29536 0.0
C929 C 0.00617 0.61213 0.29964 0.0
H930 H 0.98804 0.62583 0.33992 0.0
H931 H 0.03571 0.65711 0.30333 0.0
C932 C 0.02788 0.72706 0.30501 0.0
N933 N 0.0283 0.71151 0.30339 0.0
C934 C 0.03625 0.74041 0.28896 0.0
C935 C 0.04489 0.72126 0.26968 0.0
C936 C 0.03627 0.70826 0.286 0.0
C937 C 0.04541 0.7378 0.2714 0.0
H938 H 0.0217 0.72942 0.31916 0.0
H939 H 0.0366 0.69586 0.28534 0.0
O940 O 0.00936 0.66376 0.3677 0.0
O941 O 0.01842 0.70341 0.35599 0.0
O942 O 0.03754 0.68598 0.33144 0.0
O943 O 0.9974 0.67086 0.3233 0.0
H944 H 0.01057 0.67313 0.40975 0.0
H945 H 0.02132 0.64078 0.36481 0.0
H946 H 0.01993 0.66097 0.4407 0.0
H947 H 0.03066 0.62932 0.39655 0.0
H948 H 0.97967 0.72444 0.36445 0.0
H949 H 0.02154 0.70847 0.39936 0.0
H950 H 0.99536 0.71286 0.34118 0.0
H951 H 0.00556 0.72034 0.42154 0.0
H952 H 0.07534 0.69577 0.4201 0.0
H953 H 0.07427 0.74338 0.40012 0.0
H954 H 0.93371 0.66033 0.35419 0.0
H955 H 0.95873 0.6693 0.41827 0.0
H956 H 0.06305 0.72003 0.32728 0.0
H957 H 0.05226 0.66693 0.34434 0.0
H958 H 0.09541 0.73182 0.33527 0.0
H959 H 0.08481 0.67963 0.35198 0.0
H960 H 0.00245 0.6566 0.28709 0.0
H961 H 0.98356 0.69111 0.31196 0.0
H962 H 0.99587 0.66226 0.24911 0.0
H963 H 0.9773 0.69617 0.27353 0.0
H964 H 0.98249 0.59823 0.3205 0.0
H965 H 0.03097 0.63038 0.28254 0.0
H966 H 0.0361 0.75287 0.29067 0.0
H967 H 0.0519 0.71877 0.2565 0.0
Li968 Li 0.31255 0.34228 0.36086 0.0
Li969 Li 0.32024 0.31901 0.35287 0.0
Li970 Li 0.33607 0.3499 0.33346 0.0
Li971 Li 0.30457 0.32755 0.32637 0.0
C972 C 0.34117 0.35321 0.38448 0.0
N973 N 0.34922 0.37215 0.42365 0.0
C974 C 0.33617 0.34403 0.40457 0.0
C975 C 0.35037 0.37201 0.38427 0.0
C976 C 0.34033 0.35385 0.42421 0.0
C977 C 0.3543 0.38134 0.40426 0.0
C978 C 0.27825 0.30573 0.35556 0.0
C979 C 0.25165 0.27631 0.35595 0.0
N980 N 0.24127 0.28409 0.35476 0.0
C981 C 0.26733 0.31345 0.35456 0.0
C982 C 0.27039 0.28703 0.35644 0.0
C983 C 0.24865 0.30227 0.35408 0.0
C984 C 0.30742 0.36756 0.38786 0.0
N985 N 0.304 0.3504 0.38518 0.0
C986 C 0.28498 0.34084 0.41705 0.0
C987 C 0.29343 0.33726 0.39974 0.0
C988 C 0.28747 0.35816 0.41946 0.0
C989 C 0.29906 0.37171 0.40483 0.0
H990 H 0.31638 0.37801 0.37674 0.0
H991 H 0.29123 0.32381 0.39762 0.0
C992 C 0.3361 0.29726 0.35729 0.0
N993 N 0.32347 0.30079 0.36545 0.0
C994 C 0.33926 0.2846 0.36763 0.0
C995 C 0.3162 0.2794 0.39436 0.0
C996 C 0.31352 0.29216 0.38354 0.0
C997 C 0.32925 0.27553 0.38644 0.0
H998 H 0.3439 0.30448 0.34295 0.0
H999 H 0.30376 0.29549 0.38981 0.0
C1000 C 0.31322 0.36806 0.33262 0.0
N1001 N 0.30874 0.39767 0.33454 0.0
C1002 C 0.296 0.36585 0.33139 0.0
C1003 C 0.32819 0.38534 0.33451 0.0
C1004 C 0.29401 0.38099 0.3325 0.0
C1005 C 0.32564 0.40014 0.33552 0.0
C1006 C 0.3205 0.31475 0.30236 0.0
C1007 C 0.3241 0.32308 0.28173 0.0
C1008 C 0.3105 0.296 0.30378 0.0
C1009 C 0.31751 0.31246 0.26278 0.0
C1010 C 0.30417 0.28585 0.28444 0.0
N1011 N 0.30776 0.29423 0.26452 0.0
C1012 C 0.37392 0.37126 0.32796 0.0
C1013 C 0.35608 0.37456 0.30065 0.0
C1014 C 0.38964 0.38297 0.31648 0.0
N1015 N 0.35761 0.36722 0.31976 0.0
C1016 C 0.3714 0.38635 0.28871 0.0
C1017 C 0.38844 0.39041 0.29639 0.0
H1018 H 0.37467 0.36508 0.34314 0.0
H1019 H 0.34288 0.37103 0.29456 0.0
C1020 C 0.27371 0.30217 0.30061 0.0
N1021 N 0.2872 0.31952 0.30305 0.0
C1022 C 0.26058 0.29769 0.2844 0.0
C1023 C 0.27624 0.32871 0.27249 0.0
C1024 C 0.28891 0.33262 0.28905 0.0
C1025 C 0.26163 0.31117 0.2704 0.0
H1026 H 0.27296 0.29185 0.31139 0.0
H1027 H 0.29997 0.34622 0.291 0.0
O1028 O 0.33666 0.34385 0.36507 0.0
O1029 O 0.29655 0.31641 0.35589 0.0
O1030 O 0.31546 0.35343 0.33128 0.0
O1031 O 0.32632 0.3249 0.32113 0.0
H1032 H 0.32896 0.32947 0.40496 0.0
H1033 H 0.35427 0.37928 0.36882 0.0
H1034 H 0.33644 0.34694 0.43989 0.0
H1035 H 0.36133 0.39589 0.40437 0.0
H1036 H 0.24537 0.26181 0.35646 0.0
H1037 H 0.27322 0.3279 0.35418 0.0
H1038 H 0.27868 0.28087 0.35724 0.0
H1039 H 0.24003 0.30805 0.35319 0.0
H1040 H 0.276 0.32998 0.42786 0.0
H1041 H 0.30138 0.38528 0.40633 0.0
H1042 H 0.34945 0.28197 0.36107 0.0
H1043 H 0.3085 0.27298 0.4091 0.0
H1044 H 0.2843 0.35261 0.32947 0.0
H1045 H 0.34162 0.38731 0.33541 0.0
H1046 H 0.28075 0.37948 0.33167 0.0
H1047 H 0.33709 0.41358 0.33713 0.0
H1048 H 0.33174 0.3376 0.2804 0.0
H1049 H 0.30748 0.28938 0.31967 0.0
H1050 H 0.3201 0.31872 0.2467 0.0
H1051 H 0.29633 0.27133 0.28528 0.0
H1052 H 0.40255 0.3858 0.32291 0.0
H1053 H 0.36993 0.39214 0.27356 0.0
H1054 H 0.24963 0.28394 0.28298 0.0
H1055 H 0.27749 0.33944 0.26195 0.0
Li1056 Li 0.32081 0.00052 0.66847 0.0
Li1057 Li 0.35067 0.01538 0.68388 0.0
Li1058 Li 0.32991 0.02603 0.69252 0.0
Li1059 Li 0.34417 0.03149 0.65537 0.0
C1060 C 0.31675 0.98581 0.70793 0.0
N1061 N 0.29448 0.95117 0.72294 0.0
C1062 C 0.32363 0.97437 0.71154 0.0
C1063 C 0.29859 0.9797 0.71213 0.0
C1064 C 0.31214 0.95689 0.71911 0.0
C1065 C 0.28753 0.96212 0.71964 0.0
C1066 C 0.35568 0.00569 0.64045 0.0
C1067 C 0.38319 0.01743 0.6195 0.0
N1068 N 0.37956 0.00034 0.61556 0.0
C1069 C 0.35215 0.98824 0.63607 0.0
C1070 C 0.37126 0.02041 0.632 0.0
C1071 C 0.36442 0.98582 0.62351 0.0
C1072 C 0.28813 0.97844 0.64642 0.0
N1073 N 0.30167 0.97827 0.65775 0.0
C1074 C 0.28947 0.94699 0.64993 0.0
C1075 C 0.30258 0.96299 0.65965 0.0
C1076 C 0.27557 0.94689 0.63777 0.0
C1077 C 0.27489 0.96281 0.63615 0.0
H1078 H 0.28793 0.99085 0.64476 0.0
H1079 H 0.31378 0.96334 0.66812 0.0
C1080 C 0.36921 0.01361 0.72 0.0
N1081 N 0.36876 0.01195 0.69766 0.0
C1082 C 0.38151 0.0113 0.73243 0.0
C1083 C 0.39241 0.005 0.69877 0.0
C1084 C 0.3801 0.00777 0.68692 0.0
C1085 C 0.39332 0.00687 0.72184 0.0
H1086 H 0.35989 0.01669 0.72818 0.0
H1087 H 0.37956 0.00634 0.66926 0.0
C1088 C 0.30732 0.02891 0.66579 0.0
N1089 N 0.28574 0.04377 0.67267 0.0
C1090 C 0.31246 0.04599 0.65751 0.0
C1091 C 0.29114 0.01931 0.67736 0.0
C1092 C 0.30137 0.05328 0.66121 0.0
C1093 C 0.28045 0.02708 0.68074 0.0
C1094 C 0.37148 0.04992 0.69519 0.0
C1095 C 0.37159 0.0537 0.71765 0.0
C1096 C 0.3877 0.05518 0.68425 0.0
C1097 C 0.38798 0.06251 0.72888 0.0
C1098 C 0.40381 0.06394 0.69608 0.0
N1099 N 0.40361 0.06738 0.71797 0.0
C1100 C 0.31494 0.02883 0.73341 0.0
C1101 C 0.32836 0.05494 0.71098 0.0
C1102 C 0.31167 0.03811 0.75007 0.0
N1103 N 0.32321 0.03739 0.7144 0.0
C1104 C 0.32524 0.06466 0.72707 0.0
C1105 C 0.31695 0.05631 0.74703 0.0
H1106 H 0.31137 0.01498 0.73589 0.0
H1107 H 0.33529 0.0615 0.6959 0.0
C1108 C 0.34428 0.04138 0.61125 0.0
N1109 N 0.35198 0.04759 0.6313 0.0
C1110 C 0.34754 0.05341 0.59404 0.0
C1111 C 0.36707 0.07789 0.6183 0.0
C1112 C 0.36344 0.06538 0.63503 0.0
C1113 C 0.35879 0.07196 0.59761 0.0
H1114 H 0.33503 0.02715 0.60894 0.0
H1115 H 0.36904 0.06992 0.65131 0.0
O1116 O 0.32774 0.00292 0.7004 0.0
O1117 O 0.34373 0.00828 0.65253 0.0
O1118 O 0.31815 0.02168 0.66272 0.0
O1119 O 0.35555 0.04098 0.68401 0.0
H1120 H 0.33763 0.97884 0.70831 0.0
H1121 H 0.29307 0.9884 0.7095 0.0
H1122 H 0.31726 0.94785 0.72186 0.0
H1123 H 0.27343 0.95718 0.72284 0.0
H1124 H 0.39533 0.0287 0.61293 0.0
H1125 H 0.34011 0.9767 0.64237 0.0
H1126 H 0.37415 0.03399 0.63508 0.0
H1127 H 0.36191 0.9724 0.62006 0.0
H1128 H 0.29058 0.93502 0.65114 0.0
H1129 H 0.26439 0.9632 0.62677 0.0
H1130 H 0.38176 0.01294 0.75017 0.0
H1131 H 0.40087 0.00108 0.68994 0.0
H1132 H 0.32493 0.0536 0.64851 0.0
H1133 H 0.28695 0.00605 0.68377 0.0
H1134 H 0.30522 0.06653 0.65501 0.0
H1135 H 0.26794 0.01985 0.68978 0.0
H1136 H 0.35916 0.04967 0.72639 0.0
H1137 H 0.38786 0.05243 0.66687 0.0
H1138 H 0.38827 0.06541 0.7463 0.0
H1139 H 0.41646 0.06799 0.68786 0.0
H1140 H 0.30565 0.03129 0.76542 0.0
H1141 H 0.32951 0.07866 0.72407 0.0
H1142 H 0.34087 0.04835 0.57834 0.0
H1143 H 0.37546 0.09209 0.62189 0.0
Li1144 Li 0.00182 0.31949 0.667 0.0
Li1145 Li 0.98751 0.33314 0.68515 0.0
Li1146 Li 0.97869 0.3028 0.6962 0.0
Li1147 Li 0.97014 0.3094 0.65816 0.0
C1148 C 0.01237 0.33793 0.71379 0.0
N1149 N 0.0305 0.36597 0.74323 0.0
C1150 C 0.02657 0.35441 0.70652 0.0
C1151 C 0.00761 0.33561 0.73611 0.0
C1152 C 0.03551 0.36845 0.72164 0.0
C1153 C 0.01689 0.34997 0.75071 0.0
C1154 C 0.99928 0.34727 0.63954 0.0
C1155 C 0.99681 0.36536 0.61094 0.0
N1156 N 0.01497 0.37643 0.61135 0.0
C1157 C 0.01794 0.35874 0.63954 0.0
C1158 C 0.98863 0.3505 0.625 0.0
C1159 C 0.0256 0.37345 0.62522 0.0
C1160 C 0.02195 0.31948 0.63084 0.0
N1161 N 0.02307 0.32303 0.65283 0.0
C1162 C 0.05434 0.33235 0.65291 0.0
C1163 C 0.03879 0.3293 0.66402 0.0
C1164 C 0.05346 0.32858 0.63027 0.0
C1165 C 0.03704 0.322 0.6192 0.0
H1166 H 0.00929 0.31474 0.62236 0.0
H1167 H 0.03927 0.33202 0.68151 0.0
C1168 C 0.98296 0.35313 0.71826 0.0
N1169 N 0.99053 0.35491 0.69802 0.0
C1170 C 0.98572 0.36826 0.73002 0.0
C1171 C 0.00386 0.38689 0.69982 0.0
C1172 C 0.00065 0.37136 0.68856 0.0
C1173 C 0.9966 0.38544 0.721 0.0
H1174 H 0.97515 0.33993 0.72555 0.0
H1175 H 0.0067 0.37255 0.67261 0.0
C1176 C 0.98872 0.2849 0.6586 0.0
N1177 N 0.00641 0.26781 0.64273 0.0
C1178 C 0.98465 0.27699 0.63767 0.0
C1179 C 0.00168 0.284 0.67154 0.0
C1180 C 0.99376 0.26843 0.62993 0.0
C1181 C 0.01051 0.27534 0.66319 0.0
C1182 C 0.95082 0.31853 0.69057 0.0
C1183 C 0.93888 0.31301 0.70839 0.0
C1184 C 0.95076 0.33053 0.67511 0.0
C1185 C 0.92709 0.31966 0.71048 0.0
C1186 C 0.93878 0.33688 0.67778 0.0
N1187 N 0.92729 0.33136 0.69526 0.0
C1188 C 0.96267 0.28944 0.73732 0.0
C1189 C 0.96798 0.26912 0.71667 0.0
C1190 C 0.95354 0.27642 0.7535 0.0
N1191 N 0.96944 0.28551 0.71924 0.0
C1192 C 0.95905 0.25572 0.73252 0.0
C1193 C 0.95129 0.25916 0.75095 0.0
H1194 H 0.96382 0.30252 0.73878 0.0
H1195 H 0.97322 0.26622 0.702 0.0
C1196 C 0.95811 0.29853 0.61498 0.0
N1197 N 0.95256 0.29981 0.63557 0.0
C1198 C 0.94553 0.2894 0.59835 0.0
C1199 C 0.92185 0.28411 0.62408 0.0
C1200 C 0.93486 0.293 0.64033 0.0
C1201 C 0.92707 0.28184 0.60287 0.0
H1202 H 0.97229 0.30393 0.61178 0.0
H1203 H 0.93075 0.29391 0.65692 0.0
O1204 O 0.00306 0.32422 0.6991 0.0
O1205 O 0.99147 0.33261 0.65315 0.0
O1206 O 0.9804 0.29388 0.6662 0.0
O1207 O 0.96269 0.31243 0.68843 0.0
H1208 H 0.03046 0.35644 0.68934 0.0
H1209 H 0.99677 0.32291 0.74205 0.0
H1210 H 0.04638 0.38134 0.71618 0.0
H1211 H 0.01323 0.34841 0.76799 0.0
H1212 H 0.98873 0.36806 0.59966 0.0
H1213 H 0.02642 0.35638 0.65052 0.0
H1214 H 0.9742 0.34159 0.62452 0.0
H1215 H 0.04001 0.38248 0.62513 0.0
H1216 H 0.06686 0.33747 0.66187 0.0
H1217 H 0.036 0.31914 0.60167 0.0
H1218 H 0.97954 0.36652 0.74609 0.0
H1219 H 0.01235 0.39992 0.69232 0.0
H1220 H 0.97463 0.27752 0.62747 0.0
H1221 H 0.00507 0.29018 0.68772 0.0
H1222 H 0.99081 0.26232 0.61372 0.0
H1223 H 0.02067 0.27466 0.67295 0.0
H1224 H 0.93871 0.30369 0.72048 0.0
H1225 H 0.95997 0.33498 0.66129 0.0
H1226 H 0.91779 0.31552 0.7242 0.0
H1227 H 0.93863 0.34621 0.66597 0.0
H1228 H 0.94765 0.27958 0.76738 0.0
H1229 H 0.95788 0.24269 0.73013 0.0
H1230 H 0.9502 0.28755 0.58249 0.0
H1231 H 0.90779 0.27856 0.62829 0.0
Li1232 Li 0.68362 0.68236 0.66603 0.0
Li1233 Li 0.66846 0.6533 0.6867 0.0
Li1234 Li 0.70036 0.67632 0.69396 0.0
Li1235 Li 0.69177 0.65991 0.65988 0.0
C1236 C 0.68317 0.69414 0.70935 0.0
N1237 N 0.69256 0.72582 0.73138 0.0
C1238 C 0.67325 0.69405 0.72769 0.0
C1239 C 0.69788 0.71033 0.70221 0.0
C1240 C 0.67821 0.71021 0.7386 0.0
C1241 C 0.7024 0.72621 0.71357 0.0
C1242 C 0.66384 0.64925 0.6347 0.0
C1243 C 0.65267 0.62233 0.61269 0.0
N1244 N 0.65723 0.63249 0.59406 0.0
C1245 C 0.66829 0.65941 0.61534 0.0
C1246 C 0.65585 0.63055 0.63339 0.0
C1247 C 0.66489 0.65069 0.59495 0.0
C1248 C 0.69008 0.70915 0.63502 0.0
N1249 N 0.67969 0.69989 0.65256 0.0
C1250 C 0.66216 0.7142 0.64886 0.0
C1251 C 0.66602 0.70224 0.65974 0.0
C1252 C 0.67232 0.72354 0.63028 0.0
C1253 C 0.68658 0.7211 0.62353 0.0
H1254 H 0.70081 0.70691 0.62967 0.0
H1255 H 0.65793 0.69457 0.67367 0.0
C1256 C 0.64809 0.63349 0.7227 0.0
N1257 N 0.64704 0.63629 0.70085 0.0
C1258 C 0.63275 0.62126 0.7343 0.0
C1259 C 0.61552 0.61508 0.70065 0.0
C1260 C 0.63123 0.62748 0.68969 0.0
C1261 C 0.61622 0.6118 0.72322 0.0
H1262 H 0.66089 0.64086 0.7311 0.0
H1263 H 0.63083 0.6301 0.67232 0.0
C1264 C 0.72595 0.69154 0.66095 0.0
N1265 N 0.76187 0.7023 0.65542 0.0
C1266 C 0.73239 0.68017 0.66718 0.0
C1267 C 0.73777 0.70838 0.65191 0.0
C1268 C 0.75059 0.68584 0.66425 0.0
C1269 C 0.75589 0.71358 0.64925 0.0
C1270 C 0.68904 0.63425 0.69281 0.0
C1271 C 0.70435 0.63413 0.70031 0.0
C1272 C 0.67323 0.61794 0.68884 0.0
C1273 C 0.70369 0.6177 0.70326 0.0
C1274 C 0.67311 0.60179 0.69202 0.0
N1275 N 0.68821 0.60201 0.69908 0.0
C1276 C 0.71464 0.67393 0.73386 0.0
C1277 C 0.73303 0.70176 0.7158 0.0
C1278 C 0.72759 0.67835 0.7502 0.0
N1279 N 0.71774 0.68541 0.71687 0.0
C1280 C 0.74639 0.70673 0.73182 0.0
C1281 C 0.74389 0.69474 0.749 0.0
H1282 H 0.70233 0.66104 0.73428 0.0
H1283 H 0.73509 0.71072 0.70222 0.0
C1284 C 0.70861 0.66229 0.61974 0.0
N1285 N 0.70031 0.6507 0.63674 0.0
C1286 C 0.71701 0.65803 0.60302 0.0
C1287 C 0.70745 0.62954 0.62089 0.0
C1288 C 0.69922 0.63437 0.63732 0.0
C1289 C 0.71685 0.64166 0.60377 0.0
H1290 H 0.70912 0.67511 0.61948 0.0
H1291 H 0.69228 0.62515 0.6506 0.0
O1292 O 0.67848 0.67839 0.69858 0.0
O1293 O 0.66753 0.6576 0.65481 0.0
O1294 O 0.7082 0.68637 0.66378 0.0
O1295 O 0.68938 0.65022 0.69016 0.0
H1296 H 0.66185 0.6816 0.73342 0.0
H1297 H 0.70573 0.71068 0.68806 0.0
H1298 H 0.67065 0.71035 0.75283 0.0
H1299 H 0.71375 0.73883 0.70823 0.0
H1300 H 0.64659 0.60787 0.61143 0.0
H1301 H 0.6745 0.67389 0.61605 0.0
H1302 H 0.65224 0.62247 0.64818 0.0
H1303 H 0.66838 0.6584 0.57984 0.0
H1304 H 0.65106 0.71576 0.65449 0.0
H1305 H 0.69484 0.72828 0.60944 0.0
H1306 H 0.63375 0.6194 0.7518 0.0
H1307 H 0.60301 0.60805 0.69157 0.0
H1308 H 0.72343 0.6671 0.6741 0.0
H1309 H 0.73299 0.71736 0.64706 0.0
H1310 H 0.75574 0.67716 0.66898 0.0
H1311 H 0.7652 0.72659 0.64229 0.0
H1312 H 0.71662 0.64659 0.70389 0.0
H1313 H 0.66121 0.6177 0.68323 0.0
H1314 H 0.71546 0.61743 0.70896 0.0
H1315 H 0.66099 0.58908 0.68888 0.0
H1316 H 0.72519 0.66872 0.76314 0.0
H1317 H 0.75866 0.71963 0.73057 0.0
H1318 H 0.72412 0.66774 0.59008 0.0
H1319 H 0.7067 0.6166 0.62176 0.0
Li1320 Li 0.34513 0.33229 0.68763 0.0
Li1321 Li 0.32289 0.30082 0.69579 0.0
Li1322 Li 0.33821 0.31002 0.659 0.0
Li1323 Li 0.31496 0.31714 0.66848 0.0
C1324 C 0.36427 0.3162 0.69963 0.0
N1325 N 0.39567 0.32657 0.72272 0.0
C1326 C 0.36355 0.31064 0.72145 0.0
C1327 C 0.38095 0.32684 0.68947 0.0
C1328 C 0.37958 0.31607 0.73286 0.0
C1329 C 0.39667 0.33201 0.70145 0.0
C1330 C 0.31027 0.32218 0.7178 0.0
C1331 C 0.28125 0.31345 0.73366 0.0
N1332 N 0.2894 0.32162 0.7529 0.0
C1333 C 0.31837 0.33065 0.73766 0.0
C1334 C 0.29157 0.31364 0.7157 0.0
C1335 C 0.30759 0.33016 0.75524 0.0
C1336 C 0.36952 0.36983 0.68935 0.0
N1337 N 0.36299 0.35416 0.70074 0.0
C1338 C 0.38092 0.3698 0.73207 0.0
C1339 C 0.36832 0.3539 0.72176 0.0
C1340 C 0.38794 0.3862 0.72075 0.0
C1341 C 0.38205 0.38611 0.69911 0.0
H1342 H 0.36475 0.36972 0.67284 0.0
H1343 H 0.36257 0.34136 0.73069 0.0
C1344 C 0.31784 0.26859 0.71154 0.0
N1345 N 0.31516 0.28232 0.71745 0.0
C1346 C 0.31502 0.25526 0.72674 0.0
C1347 C 0.30609 0.27006 0.75369 0.0
C1348 C 0.30915 0.28317 0.73796 0.0
C1349 C 0.30932 0.25605 0.74822 0.0
H1350 H 0.32279 0.26837 0.69518 0.0
H1351 H 0.30731 0.29426 0.74246 0.0
C1352 C 0.34808 0.34009 0.63662 0.0
N1353 N 0.3657 0.35258 0.59679 0.0
C1354 C 0.33844 0.33929 0.61771 0.0
C1355 C 0.36671 0.34748 0.63535 0.0
C1356 C 0.34758 0.34561 0.59771 0.0
C1357 C 0.37537 0.35366 0.61504 0.0
C1358 C 0.29528 0.27925 0.66287 0.0
C1359 C 0.29012 0.26986 0.64287 0.0
C1360 C 0.2828 0.27422 0.68003 0.0
C1361 C 0.27242 0.25583 0.64023 0.0
C1362 C 0.26523 0.26011 0.67676 0.0
N1363 N 0.26044 0.25129 0.65709 0.0
C1364 C 0.35925 0.29721 0.63805 0.0
C1365 C 0.33764 0.29889 0.61554 0.0
C1366 C 0.36326 0.28872 0.62111 0.0
N1367 N 0.34647 0.30187 0.63504 0.0
C1368 C 0.3413 0.29057 0.59815 0.0
C1369 C 0.35399 0.28503 0.60097 0.0
H1370 H 0.36571 0.29929 0.65393 0.0
H1371 H 0.32719 0.30229 0.61382 0.0
C1372 C 0.29326 0.33317 0.6643 0.0
N1373 N 0.29681 0.32065 0.65575 0.0
C1374 C 0.28123 0.33708 0.65366 0.0
C1375 C 0.27675 0.31512 0.62569 0.0
C1376 C 0.28884 0.31164 0.63685 0.0
C1377 C 0.27302 0.32816 0.63391 0.0
H1378 H 0.30007 0.3404 0.67912 0.0
H1379 H 0.2924 0.30225 0.62997 0.0
O1380 O 0.34871 0.31105 0.6882 0.0
O1381 O 0.32065 0.32264 0.70038 0.0
O1382 O 0.33934 0.33376 0.65629 0.0
O1383 O 0.31258 0.293 0.6657 0.0
H1384 H 0.35077 0.30238 0.72959 0.0
H1385 H 0.38176 0.33105 0.67252 0.0
H1386 H 0.37922 0.31197 0.7498 0.0
H1387 H 0.40968 0.34031 0.69382 0.0
H1388 H 0.26677 0.30684 0.73227 0.0
H1389 H 0.33281 0.33745 0.73956 0.0
H1390 H 0.28506 0.30734 0.70035 0.0
H1391 H 0.31368 0.33657 0.77074 0.0
H1392 H 0.38507 0.36928 0.74877 0.0
H1393 H 0.38674 0.39851 0.69002 0.0
H1394 H 0.31762 0.24464 0.72191 0.0
H1395 H 0.302 0.27131 0.77021 0.0
H1396 H 0.32403 0.33374 0.61843 0.0
H1397 H 0.3744 0.34845 0.64989 0.0
H1398 H 0.34027 0.34496 0.58291 0.0
H1399 H 0.38977 0.35933 0.6138 0.0
H1400 H 0.29967 0.27345 0.62948 0.0
H1401 H 0.28665 0.28102 0.69576 0.0
H1402 H 0.26822 0.24854 0.6248 0.0
H1403 H 0.25542 0.25612 0.6899 0.0
H1404 H 0.37278 0.28422 0.62418 0.0
H1405 H 0.33381 0.2879 0.58291 0.0
H1406 H 0.27853 0.34709 0.66064 0.0
H1407 H 0.27087 0.30813 0.61036 0.0
Li1408 Li 0.66528 0.01415 0.68898 0.0
Li1409 Li 0.69617 0.0213 0.69691 0.0
Li1410 Li 0.68854 0.02948 0.65993 0.0
Li1411 Li 0.67891 0.99844 0.66947 0.0
C1412 C 0.68755 0.05321 0.69674 0.0
N1413 N 0.68849 0.08434 0.7105 0.0
C1414 C 0.69193 0.05906 0.71857 0.0
C1415 C 0.68398 0.06339 0.68181 0.0
C1416 C 0.69223 0.07477 0.72524 0.0
C1417 C 0.68443 0.07903 0.68911 0.0
C1418 C 0.67514 0.99111 0.72078 0.0
C1419 C 0.68971 0.97894 0.74301 0.0
N1420 N 0.67913 0.9777 0.76041 0.0
C1421 C 0.66432 0.98961 0.73883 0.0
C1422 C 0.68786 0.98564 0.72282 0.0
C1423 C 0.66657 0.98283 0.75874 0.0
C1424 C 0.62777 0.99956 0.69463 0.0
N1425 N 0.64424 0.01146 0.70292 0.0
C1426 C 0.63083 0.0181 0.73336 0.0
C1427 C 0.64602 0.02061 0.72194 0.0
C1428 C 0.61365 0.006 0.72513 0.0
C1429 C 0.61219 0.99667 0.70548 0.0
H1430 H 0.62674 0.99209 0.6798 0.0
H1431 H 0.65923 0.02948 0.72859 0.0
C1432 C 0.73166 0.04071 0.71169 0.0
N1433 N 0.71441 0.03077 0.71893 0.0
C1434 C 0.74553 0.05078 0.72659 0.0
C1435 C 0.72374 0.03948 0.75625 0.0
C1436 C 0.71025 0.02985 0.74074 0.0
C1437 C 0.74152 0.05046 0.74909 0.0
H1438 H 0.73452 0.04151 0.69421 0.0
H1439 H 0.69639 0.02248 0.74602 0.0
C1440 C 0.65306 0.01138 0.64366 0.0
N1441 N 0.63097 0.01811 0.61723 0.0
C1442 C 0.64634 0.00191 0.62391 0.0
C1443 C 0.64846 0.02418 0.65002 0.0
C1444 C 0.63522 0.00555 0.61075 0.0
C1445 C 0.63729 0.02741 0.63643 0.0
C1446 C 0.71275 0.01232 0.65508 0.0
C1447 C 0.71384 0.01404 0.63212 0.0
C1448 C 0.7207 0.0037 0.66576 0.0
C1449 C 0.72261 0.00678 0.62017 0.0
C1450 C 0.72935 0.99661 0.65322 0.0
N1451 N 0.7301 0.99827 0.63088 0.0
C1452 C 0.71715 0.05783 0.63996 0.0
C1453 C 0.6906 0.04803 0.6189 0.0
C1454 C 0.72754 0.06976 0.62338 0.0
N1455 N 0.69912 0.04703 0.63729 0.0
C1456 C 0.70049 0.06 0.60196 0.0
C1457 C 0.71923 0.07065 0.60395 0.0
H1458 H 0.72355 0.05664 0.6547 0.0
H1459 H 0.67631 0.03923 0.61695 0.0
C1460 C 0.67121 0.96189 0.66767 0.0
N1461 N 0.67436 0.97664 0.65591 0.0
C1462 C 0.66809 0.94624 0.65672 0.0
C1463 C 0.67141 0.96131 0.62192 0.0
C1464 C 0.67429 0.97655 0.6335 0.0
C1465 C 0.66838 0.94596 0.63357 0.0
H1466 H 0.67108 0.96223 0.68548 0.0
H1467 H 0.67656 0.9884 0.62461 0.0
O1468 O 0.6875 0.03802 0.68982 0.0
O1469 O 0.6732 0.99782 0.70121 0.0
O1470 O 0.66398 0.00796 0.65667 0.0
O1471 O 0.70398 0.01909 0.66705 0.0
H1472 H 0.69492 0.05147 0.73029 0.0
H1473 H 0.68104 0.05937 0.66471 0.0
H1474 H 0.69547 0.07937 0.74213 0.0
H1475 H 0.68163 0.08699 0.67775 0.0
H1476 H 0.69957 0.97474 0.74485 0.0
H1477 H 0.65432 0.99367 0.73749 0.0
H1478 H 0.69627 0.98663 0.70898 0.0
H1479 H 0.65834 0.98165 0.77287 0.0
H1480 H 0.63248 0.02545 0.74854 0.0
H1481 H 0.59917 0.9869 0.69891 0.0
H1482 H 0.75913 0.0592 0.72056 0.0
H1483 H 0.72019 0.03919 0.77346 0.0
H1484 H 0.64968 0.99189 0.61879 0.0
H1485 H 0.65335 0.03147 0.66533 0.0
H1486 H 0.62997 0.99836 0.5954 0.0
H1487 H 0.63363 0.03728 0.64116 0.0
H1488 H 0.70776 0.02068 0.62358 0.0
H1489 H 0.72022 0.00251 0.68354 0.0
H1490 H 0.72343 0.00788 0.60237 0.0
H1491 H 0.73548 0.98982 0.66126 0.0
H1492 H 0.74197 0.07793 0.62549 0.0
H1493 H 0.69371 0.0604 0.58711 0.0
H1494 H 0.66568 0.93457 0.6662 0.0
H1495 H 0.67137 0.96145 0.60405 0.0
Li1496 Li 0.97561 0.67262 0.69036 0.0
Li1497 Li 0.98339 0.65002 0.6815 0.0
Li1498 Li 0.99879 0.67902 0.66349 0.0
Li1499 Li 0.96794 0.65805 0.65465 0.0
C1500 C 0.0017 0.67172 0.71717 0.0
N1501 N 0.00692 0.66682 0.761 0.0
C1502 C 0.98699 0.66084 0.73068 0.0
C1503 C 0.01906 0.68009 0.72595 0.0
C1504 C 0.9899 0.65854 0.75279 0.0
C1505 C 0.02143 0.67746 0.74815 0.0
C1506 C 0.94585 0.62937 0.68114 0.0
C1507 C 0.93475 0.60031 0.66406 0.0
N1508 N 0.91911 0.59395 0.67556 0.0
C1509 C 0.92967 0.62255 0.69276 0.0
C1510 C 0.94843 0.61818 0.66665 0.0
C1511 C 0.91632 0.6046 0.68973 0.0
C1512 C 0.94831 0.67572 0.70909 0.0
N1513 N 0.96601 0.6814 0.71217 0.0
C1514 C 0.96608 0.69561 0.74616 0.0
C1515 C 0.97513 0.69155 0.72996 0.0
C1516 C 0.9476 0.68941 0.74372 0.0
C1517 C 0.93883 0.67964 0.72465 0.0
H1518 H 0.94148 0.66778 0.69468 0.0
H1519 H 0.98926 0.69603 0.73193 0.0
C1520 C 0.00047 0.62951 0.68731 0.0
N1521 N 0.98633 0.6313 0.69392 0.0
C1522 C 0.00375 0.61682 0.69736 0.0
C1523 C 0.97781 0.60804 0.7207 0.0
C1524 C 0.97499 0.62081 0.71017 0.0
C1525 C 0.99235 0.60592 0.71435 0.0
H1526 H 0.00937 0.63818 0.67449 0.0
H1527 H 0.964 0.62265 0.71539 0.0
C1528 C 0.9848 0.70197 0.66397 0.0
N1529 N 0.99702 0.7382 0.66964 0.0
C1530 C 0.9775 0.71039 0.65149 0.0
C1531 C 0.99832 0.71197 0.67935 0.0
C1532 C 0.98387 0.72872 0.65459 0.0
C1533 C 0.00431 0.73028 0.68197 0.0
C1534 C 0.99383 0.65675 0.62781 0.0
C1535 C 0.99059 0.66788 0.61415 0.0
C1536 C 0.00221 0.64773 0.61916 0.0
C1537 C 0.99581 0.66982 0.59202 0.0
C1538 C 0.00722 0.65002 0.59694 0.0
N1539 N 0.00395 0.66093 0.58394 0.0
C1540 C 0.03666 0.6978 0.65816 0.0
C1541 C 0.02115 0.70726 0.6344 0.0
C1542 C 0.05306 0.70978 0.64813 0.0
N1543 N 0.02115 0.69672 0.65108 0.0
C1544 C 0.03717 0.7193 0.62384 0.0
C1545 C 0.05337 0.72058 0.6306 0.0
H1546 H 0.03622 0.68909 0.6713 0.0
H1547 H 0.00865 0.7061 0.62896 0.0
C1548 C 0.93901 0.65748 0.63469 0.0
N1549 N 0.94952 0.64991 0.63299 0.0
C1550 C 0.92515 0.65304 0.61969 0.0
C1551 C 0.93307 0.63295 0.6014 0.0
C1552 C 0.94679 0.63772 0.6169 0.0
C1553 C 0.92203 0.64062 0.6028 0.0
H1554 H 0.94153 0.66712 0.64769 0.0
H1555 H 0.9553 0.63182 0.61601 0.0
O1556 O 0.99929 0.67405 0.69538 0.0
O1557 O 0.95896 0.64695 0.68391 0.0
O1558 O 0.97862 0.68401 0.66105 0.0
O1559 O 0.98903 0.65472 0.64961 0.0
H1560 H 0.97345 0.65428 0.72421 0.0
H1561 H 0.0306 0.68852 0.71569 0.0
H1562 H 0.97863 0.65016 0.76342 0.0
H1563 H 0.0348 0.68385 0.75516 0.0
H1564 H 0.93656 0.59151 0.65291 0.0
H1565 H 0.92747 0.63106 0.70402 0.0
H1566 H 0.96084 0.6232 0.65749 0.0
H1567 H 0.90373 0.59914 0.69863 0.0
H1568 H 0.97331 0.70293 0.76076 0.0
H1569 H 0.92467 0.6748 0.72198 0.0
H1570 H 0.01512 0.61561 0.69201 0.0
H1571 H 0.969 0.60028 0.73413 0.0
H1572 H 0.96704 0.70281 0.63952 0.0
H1573 H 0.00416 0.70575 0.68916 0.0
H1574 H 0.97834 0.73541 0.64504 0.0
H1575 H 0.01476 0.73818 0.6938 0.0
H1576 H 0.98414 0.67499 0.62052 0.0
H1577 H 0.00483 0.63908 0.62954 0.0
H1578 H 0.99339 0.67842 0.58127 0.0
H1579 H 0.01373 0.64313 0.59003 0.0
H1580 H 0.06527 0.71024 0.65359 0.0
H1581 H 0.0369 0.72747 0.61044 0.0
H1582 H 0.91716 0.65952 0.62105 0.0
H1583 H 0.93106 0.62335 0.58853 0.0
C1584 C 0.21764 0.33086 0.12441 0.0
C1585 C 0.21531 0.32024 0.1057 0.0
C1586 C 0.20287 0.32763 0.1374 0.0
C1587 C 0.18555 0.31369 0.13191 0.0
C1588 C 0.19797 0.30636 0.10016 0.0
C1589 C 0.18317 0.3032 0.11308 0.0
C1590 C 0.16975 0.31092 0.14476 0.0
C1591 C 0.20224 0.2964 0.18985 0.0
C1592 C 0.20697 0.30562 0.21008 0.0
C1593 C 0.18972 0.29736 0.17601 0.0
C1594 C 0.18219 0.30802 0.18192 0.0
C1595 C 0.19928 0.31604 0.21609 0.0
C1596 C 0.18703 0.31723 0.20217 0.0
C1597 C 0.16858 0.30909 0.16797 0.0
C1598 C 0.09505 0.29878 0.18861 0.0
C1599 C 0.09974 0.30939 0.20782 0.0
C1600 C 0.10842 0.29881 0.17533 0.0
C1601 C 0.12667 0.30966 0.1809 0.0
C1602 C 0.11798 0.32002 0.21345 0.0
C1603 C 0.13128 0.32009 0.20019 0.0
C1604 C 0.14118 0.30985 0.16747 0.0
C1605 C 0.11519 0.3322 0.12319 0.0
C1606 C 0.10796 0.32248 0.10358 0.0
C1607 C 0.12616 0.32857 0.13661 0.0
C1608 C 0.12993 0.31496 0.13084 0.0
C1609 C 0.112 0.30908 0.09762 0.0
C1610 C 0.12292 0.30541 0.11111 0.0
C1611 C 0.14235 0.31166 0.14427 0.0
H1612 H 0.23088 0.34168 0.12896 0.0
H1613 H 0.20495 0.3362 0.15153 0.0
H1614 H 0.19582 0.29819 0.0856 0.0
H1615 H 0.16987 0.29259 0.10837 0.0
H1616 H 0.20797 0.28821 0.18497 0.0
H1617 H 0.18579 0.28958 0.1609 0.0
H1618 H 0.2029 0.32344 0.23151 0.0
H1619 H 0.18139 0.32546 0.20723 0.0
H1620 H 0.0811 0.29059 0.18378 0.0
H1621 H 0.10448 0.29031 0.16081 0.0
H1622 H 0.12197 0.32819 0.22826 0.0
H1623 H 0.14525 0.32844 0.20495 0.0
H1624 H 0.11238 0.34266 0.12813 0.0
H1625 H 0.13194 0.33661 0.15132 0.0
H1626 H 0.10699 0.30169 0.08233 0.0
H1627 H 0.12596 0.29512 0.10608 0.0
N1628 N 0.15652 0.31199 0.13384 0.0
N1629 N 0.15436 0.30869 0.17831 0.0
C1630 C 0.67001 0.88567 0.12278 0.0
C1631 C 0.68032 0.89364 0.10376 0.0
C1632 C 0.67305 0.87398 0.13556 0.0
C1633 C 0.68671 0.87029 0.12981 0.0
C1634 C 0.69387 0.88981 0.09787 0.0
C1635 C 0.69695 0.87814 0.11073 0.0
C1636 C 0.68947 0.85731 0.14275 0.0
C1637 C 0.70243 0.90378 0.18857 0.0
C1638 C 0.69112 0.89882 0.20716 0.0
C1639 C 0.70248 0.89057 0.17504 0.0
C1640 C 0.69109 0.87223 0.17982 0.0
C1641 C 0.67998 0.88048 0.21202 0.0
C1642 C 0.68003 0.86735 0.19856 0.0
C1643 C 0.69081 0.85786 0.16601 0.0
C1644 C 0.70173 0.79533 0.18739 0.0
C1645 C 0.68983 0.78827 0.20536 0.0
C1646 C 0.70202 0.80887 0.17429 0.0
C1647 C 0.69044 0.81555 0.17906 0.0
C1648 C 0.67855 0.79523 0.21031 0.0
C1649 C 0.67891 0.80878 0.19734 0.0
C1650 C 0.69047 0.82993 0.16566 0.0
C1651 C 0.66908 0.7815 0.1216 0.0
C1652 C 0.6792 0.78395 0.10237 0.0
C1653 C 0.6724 0.7962 0.13475 0.0
C1654 C 0.6861 0.81362 0.12912 0.0
C1655 C 0.69268 0.80142 0.0965 0.0
C1656 C 0.69606 0.81613 0.10974 0.0
C1657 C 0.68913 0.82936 0.14241 0.0
H1658 H 0.65934 0.88822 0.12753 0.0
H1659 H 0.66452 0.86761 0.14975 0.0
H1660 H 0.70214 0.89593 0.08342 0.0
H1661 H 0.7074 0.8753 0.10584 0.0
H1662 H 0.71107 0.91783 0.1844 0.0
H1663 H 0.71144 0.89469 0.16095 0.0
H1664 H 0.67129 0.87628 0.22638 0.0
H1665 H 0.67124 0.85331 0.2027 0.0
H1666 H 0.71067 0.79028 0.18341 0.0
H1667 H 0.71133 0.81418 0.16056 0.0
H1668 H 0.66955 0.7903 0.22437 0.0
H1669 H 0.67001 0.81386 0.20148 0.0
H1670 H 0.65856 0.7682 0.12647 0.0
H1671 H 0.66404 0.79396 0.14914 0.0
H1672 H 0.70038 0.80376 0.08147 0.0
H1673 H 0.70642 0.8295 0.10482 0.0
N1674 N 0.68883 0.84315 0.13185 0.0
N1675 N 0.69118 0.84411 0.17649 0.0
C1676 C 0.1119 0.78311 0.12677 0.0
C1677 C 0.10531 0.7857 0.10675 0.0
C1678 C 0.12298 0.79778 0.14019 0.0
C1679 C 0.12738 0.81527 0.13405 0.0
C1680 C 0.10982 0.80321 0.10054 0.0
C1681 C 0.12084 0.81787 0.11403 0.0
C1682 C 0.1399 0.83101 0.14748 0.0
C1683 C 0.09167 0.79818 0.19191 0.0
C1684 C 0.09601 0.79271 0.21166 0.0
C1685 C 0.10533 0.81082 0.17822 0.0
C1686 C 0.12351 0.8179 0.18395 0.0
C1687 C 0.11417 0.79966 0.21716 0.0
C1688 C 0.12775 0.8122 0.20354 0.0
C1689 C 0.13834 0.83196 0.17059 0.0
C1690 C 0.19893 0.90672 0.1933 0.0
C1691 C 0.20392 0.90241 0.21342 0.0
C1692 C 0.18654 0.89305 0.17945 0.0
C1693 C 0.17933 0.87487 0.18531 0.0
C1694 C 0.19658 0.88427 0.2193 0.0
C1695 C 0.18436 0.87067 0.20544 0.0
C1696 C 0.16601 0.86002 0.17128 0.0
C1697 C 0.21642 0.88819 0.13056 0.0
C1698 C 0.21453 0.8943 0.1098 0.0
C1699 C 0.20129 0.87675 0.1431 0.0
C1700 C 0.18394 0.8717 0.13553 0.0
C1701 C 0.19716 0.88906 0.10212 0.0
C1702 C 0.18202 0.87783 0.11483 0.0
C1703 C 0.16774 0.85894 0.1482 0.0
H1704 H 0.10878 0.76977 0.1318 0.0
H1705 H 0.12837 0.79545 0.15514 0.0
H1706 H 0.10474 0.80553 0.08531 0.0
H1707 H 0.12425 0.83127 0.10884 0.0
H1708 H 0.07775 0.79298 0.18733 0.0
H1709 H 0.10169 0.81528 0.16343 0.0
H1710 H 0.11789 0.79536 0.23203 0.0
H1711 H 0.14165 0.81743 0.20831 0.0
H1712 H 0.20442 0.92063 0.18847 0.0
H1713 H 0.18252 0.89667 0.16429 0.0
H1714 H 0.20047 0.8806 0.23454 0.0
H1715 H 0.17898 0.85678 0.21037 0.0
H1716 H 0.22961 0.89225 0.13717 0.0
H1717 H 0.2032 0.87171 0.1586 0.0
H1718 H 0.19525 0.89344 0.08612 0.0
H1719 H 0.16878 0.87388 0.10845 0.0
N1720 N 0.15449 0.84458 0.13722 0.0
N1721 N 0.15146 0.84642 0.18147 0.0
C1722 C 0.32431 0.10991 0.83059 0.0
C1723 C 0.31042 0.10061 0.81521 0.0
C1724 C 0.32394 0.12246 0.84495 0.0
C1725 C 0.30949 0.12572 0.8445 0.0
C1726 C 0.29599 0.10392 0.81476 0.0
C1727 C 0.29555 0.11636 0.82925 0.0
C1728 C 0.30972 0.14017 0.85812 0.0
C1729 C 0.30993 0.10007 0.90531 0.0
C1730 C 0.32493 0.10719 0.91941 0.0
C1731 C 0.30617 0.11149 0.89292 0.0
C1732 C 0.31753 0.13025 0.89413 0.0
C1733 C 0.33579 0.12596 0.92132 0.0
C1734 C 0.33214 0.13735 0.90878 0.0
C1735 C 0.31417 0.14271 0.88081 0.0
C1736 C 0.30598 0.20697 0.90379 0.0
C1737 C 0.3207 0.21575 0.91822 0.0
C1738 C 0.30331 0.19196 0.89167 0.0
C1739 C 0.31558 0.18575 0.89331 0.0
C1740 C 0.33269 0.20925 0.92021 0.0
C1741 C 0.33012 0.19437 0.90794 0.0
C1742 C 0.31324 0.17003 0.88042 0.0
C1743 C 0.32135 0.21125 0.82884 0.0
C1744 C 0.30673 0.20588 0.81443 0.0
C1745 C 0.32183 0.19891 0.84336 0.0
C1746 C 0.30765 0.18099 0.84385 0.0
C1747 C 0.29252 0.18796 0.81498 0.0
C1748 C 0.29303 0.17561 0.82949 0.0
C1749 C 0.30877 0.16747 0.85776 0.0
H1750 H 0.33566 0.10773 0.83122 0.0
H1751 H 0.33521 0.12996 0.85595 0.0
H1752 H 0.28535 0.09737 0.80268 0.0
H1753 H 0.28445 0.11892 0.82828 0.0
H1754 H 0.30122 0.08566 0.90367 0.0
H1755 H 0.29443 0.10564 0.88238 0.0
H1756 H 0.34708 0.13187 0.93258 0.0
H1757 H 0.34092 0.15177 0.91036 0.0
H1758 H 0.29665 0.21182 0.90164 0.0
H1759 H 0.29167 0.18526 0.88102 0.0
H1760 H 0.34407 0.21565 0.93133 0.0
H1761 H 0.33968 0.18974 0.9097 0.0
H1762 H 0.33252 0.22495 0.82864 0.0
H1763 H 0.33351 0.20327 0.85381 0.0
H1764 H 0.28129 0.18337 0.80372 0.0
H1765 H 0.2821 0.16177 0.82932 0.0
N1766 N 0.30707 0.15259 0.8476 0.0
N1767 N 0.31582 0.15758 0.89096 0.0
C1768 C 0.90308 0.2034 0.90429 0.0
C1769 C 0.89816 0.21494 0.91469 0.0
C1770 C 0.89037 0.18834 0.89259 0.0
C1771 C 0.87246 0.18441 0.89133 0.0
C1772 C 0.88008 0.21064 0.91392 0.0
C1773 C 0.86732 0.19542 0.90248 0.0
C1774 C 0.85907 0.16892 0.87829 0.0
C1775 C 0.89489 0.21055 0.82883 0.0
C1776 C 0.90374 0.20505 0.81397 0.0
C1777 C 0.88151 0.19808 0.84282 0.0
C1778 C 0.877 0.17993 0.84257 0.0
C1779 C 0.89939 0.18696 0.81386 0.0
C1780 C 0.88607 0.1745 0.82797 0.0
C1781 C 0.86172 0.16634 0.85587 0.0
C1782 C 0.78969 0.11038 0.82506 0.0
C1783 C 0.7938 0.09913 0.8126 0.0
C1784 C 0.80236 0.123 0.83959 0.0
C1785 C 0.81937 0.12461 0.84177 0.0
C1786 C 0.81063 0.10044 0.81513 0.0
C1787 C 0.82342 0.11326 0.82943 0.0
C1788 C 0.83337 0.13909 0.85548 0.0
C1789 C 0.7925 0.09863 0.9018 0.0
C1790 C 0.7834 0.10521 0.91461 0.0
C1791 C 0.80789 0.11044 0.88988 0.0
C1792 C 0.8144 0.12906 0.89045 0.0
C1793 C 0.79022 0.12386 0.91567 0.0
C1794 C 0.80561 0.13567 0.90373 0.0
C1795 C 0.83066 0.14176 0.87785 0.0
H1796 H 0.91675 0.20598 0.90523 0.0
H1797 H 0.89451 0.17975 0.88451 0.0
H1798 H 0.87586 0.21925 0.92177 0.0
H1799 H 0.85352 0.19253 0.9018 0.0
H1800 H 0.89781 0.22436 0.82901 0.0
H1801 H 0.87428 0.20256 0.85324 0.0
H1802 H 0.90613 0.18243 0.80265 0.0
H1803 H 0.8827 0.16055 0.8273 0.0
H1804 H 0.77677 0.10958 0.82327 0.0
H1805 H 0.79907 0.13185 0.84862 0.0
H1806 H 0.81406 0.09194 0.80553 0.0
H1807 H 0.83653 0.11444 0.83074 0.0
H1808 H 0.78782 0.08435 0.90119 0.0
H1809 H 0.81479 0.10503 0.88041 0.0
H1810 H 0.78349 0.12928 0.92547 0.0
H1811 H 0.8105 0.14999 0.90461 0.0
N1812 N 0.8436 0.15662 0.88839 0.0
N1813 N 0.84881 0.15144 0.84538 0.0
C1814 C 0.79737 0.69968 0.90331 0.0
C1815 C 0.78705 0.68301 0.91397 0.0
C1816 C 0.81251 0.70317 0.89087 0.0
C1817 C 0.8176 0.69006 0.88897 0.0
C1818 C 0.7921 0.66987 0.91172 0.0
C1819 C 0.80737 0.67347 0.89961 0.0
C1820 C 0.83373 0.69353 0.87634 0.0
C1821 C 0.79261 0.687 0.82577 0.0
C1822 C 0.798 0.7019 0.81186 0.0
C1823 C 0.80498 0.6861 0.83981 0.0
C1824 C 0.82292 0.70023 0.84051 0.0
C1825 C 0.8159 0.71613 0.81272 0.0
C1826 C 0.82828 0.71523 0.82682 0.0
C1827 C 0.83644 0.69873 0.85397 0.0
C1828 C 0.89456 0.68382 0.82691 0.0
C1829 C 0.90349 0.69737 0.81102 0.0
C1830 C 0.88197 0.68421 0.84114 0.0
C1831 C 0.87835 0.69842 0.8402 0.0
C1832 C 0.89977 0.71151 0.80998 0.0
C1833 C 0.88733 0.71203 0.82444 0.0
C1834 C 0.86396 0.6982 0.85399 0.0
C1835 C 0.90481 0.69942 0.90103 0.0
C1836 C 0.89815 0.6849 0.91587 0.0
C1837 C 0.89301 0.70251 0.88849 0.0
C1838 C 0.87433 0.6908 0.89002 0.0
C1839 C 0.87946 0.67354 0.91783 0.0
C1840 C 0.86769 0.67647 0.90507 0.0
C1841 C 0.86148 0.69352 0.87664 0.0
H1842 H 0.79384 0.71008 0.90479 0.0
H1843 H 0.82036 0.71614 0.88297 0.0
H1844 H 0.78414 0.6567 0.91908 0.0
H1845 H 0.81103 0.66315 0.89821 0.0
H1846 H 0.77896 0.67573 0.82521 0.0
H1847 H 0.80062 0.67408 0.8496 0.0
H1848 H 0.82036 0.72786 0.80234 0.0
H1849 H 0.84209 0.72621 0.82693 0.0
H1850 H 0.89705 0.67269 0.82805 0.0
H1851 H 0.87474 0.67312 0.85247 0.0
H1852 H 0.90598 0.72185 0.79749 0.0
H1853 H 0.88449 0.72291 0.82305 0.0
H1854 H 0.91915 0.70824 0.89883 0.0
H1855 H 0.89852 0.714 0.87754 0.0
H1856 H 0.87391 0.66236 0.92927 0.0
H1857 H 0.85334 0.66736 0.90679 0.0
N1858 N 0.84634 0.69119 0.88678 0.0
N1859 N 0.85146 0.70085 0.84368 0.0
C1860 C 0.76329 0.63593 0.44784 0.0
C1861 C 0.76981 0.65236 0.4367 0.0
C1862 C 0.775 0.63244 0.46 0.0
C1863 C 0.79339 0.64535 0.46117 0.0
C1864 C 0.7882 0.66523 0.43785 0.0
C1865 C 0.79992 0.66167 0.4498 0.0
C1866 C 0.80602 0.64183 0.47368 0.0
C1867 C 0.77209 0.64865 0.52506 0.0
C1868 C 0.76235 0.63377 0.53898 0.0
C1869 C 0.78505 0.64922 0.51065 0.0
C1870 C 0.78832 0.63479 0.50957 0.0
C1871 C 0.76545 0.61923 0.53771 0.0
C1872 C 0.77841 0.61979 0.52323 0.0
C1873 C 0.80316 0.636 0.49585 0.0
C1874 C 0.87444 0.64711 0.52359 0.0
C1875 C 0.86897 0.63229 0.53766 0.0
C1876 C 0.86215 0.64795 0.50933 0.0
C1877 C 0.84419 0.63383 0.50861 0.0
C1878 C 0.8511 0.618 0.5366 0.0
C1879 C 0.8388 0.61883 0.52232 0.0
C1880 C 0.83064 0.63546 0.49533 0.0
C1881 C 0.86922 0.63391 0.44651 0.0
C1882 C 0.87904 0.64991 0.43443 0.0
C1883 C 0.85436 0.63098 0.45912 0.0
C1884 C 0.84917 0.64408 0.45997 0.0
C1885 C 0.8737 0.66288 0.4351 0.0
C1886 C 0.8588 0.65991 0.44761 0.0
C1887 C 0.83344 0.64122 0.47312 0.0
H1888 H 0.74913 0.62586 0.4473 0.0
H1889 H 0.76972 0.61964 0.46835 0.0
H1890 H 0.7935 0.67796 0.42932 0.0
H1891 H 0.81408 0.67176 0.45039 0.0
H1892 H 0.77014 0.66014 0.52593 0.0
H1893 H 0.79293 0.66123 0.50088 0.0
H1894 H 0.75798 0.60752 0.54809 0.0
H1895 H 0.78082 0.60858 0.52284 0.0
H1896 H 0.88807 0.65841 0.52426 0.0
H1897 H 0.86654 0.65994 0.49948 0.0
H1898 H 0.84659 0.6063 0.54706 0.0
H1899 H 0.82499 0.60785 0.52217 0.0
H1900 H 0.8732 0.6238 0.44644 0.0
H1901 H 0.84691 0.61849 0.46814 0.0
H1902 H 0.88103 0.67529 0.42587 0.0
H1903 H 0.85495 0.67013 0.4479 0.0
N1904 N 0.82108 0.64428 0.46322 0.0
N1905 N 0.81554 0.63296 0.50576 0.0
C1906 C 0.33515 0.21989 0.4567 0.0
C1907 C 0.34478 0.22759 0.43717 0.0
C1908 C 0.33901 0.20879 0.46954 0.0
C1909 C 0.35281 0.20546 0.46331 0.0
C1910 C 0.35855 0.22421 0.43091 0.0
C1911 C 0.36243 0.21311 0.44378 0.0
C1912 C 0.3564 0.19303 0.47623 0.0
C1913 C 0.36961 0.24023 0.52073 0.0
C1914 C 0.35901 0.23546 0.53995 0.0
C1915 C 0.36968 0.22692 0.50744 0.0
C1916 C 0.35898 0.20864 0.51305 0.0
C1917 C 0.3486 0.21722 0.54567 0.0
C1918 C 0.34865 0.20397 0.53243 0.0
C1919 C 0.35866 0.19418 0.49939 0.0
C1920 C 0.37244 0.13314 0.51952 0.0
C1921 C 0.36155 0.1263 0.53839 0.0
C1922 C 0.37197 0.14646 0.50679 0.0
C1923 C 0.36047 0.153 0.51264 0.0
C1924 C 0.35033 0.13311 0.54439 0.0
C1925 C 0.34988 0.1464 0.53173 0.0
C1926 C 0.35934 0.16678 0.49924 0.0
C1927 C 0.33768 0.11722 0.45773 0.0
C1928 C 0.3476 0.11928 0.43844 0.0
C1929 C 0.34065 0.13225 0.46991 0.0
C1930 C 0.35381 0.1496 0.46323 0.0
C1931 C 0.36029 0.13666 0.43128 0.0
C1932 C 0.36336 0.15172 0.4436 0.0
C1933 C 0.35696 0.16556 0.47612 0.0
H1934 H 0.32463 0.22247 0.46208 0.0
H1935 H 0.33104 0.20265 0.4842 0.0
H1936 H 0.36613 0.22992 0.41587 0.0
H1937 H 0.37296 0.21051 0.43851 0.0
H1938 H 0.37764 0.25419 0.51585 0.0
H1939 H 0.37809 0.2309 0.49284 0.0
H1940 H 0.34045 0.21319 0.56051 0.0
H1941 H 0.34041 0.19 0.53721 0.0
H1942 H 0.38112 0.12801 0.51445 0.0
H1943 H 0.38054 0.1516 0.49237 0.0
H1944 H 0.34193 0.12819 0.55898 0.0
H1945 H 0.341 0.15132 0.53666 0.0
H1946 H 0.32748 0.10398 0.46324 0.0
H1947 H 0.33256 0.1303 0.48449 0.0
H1948 H 0.368 0.13855 0.41635 0.0
H1949 H 0.37333 0.16501 0.43794 0.0
N1950 N 0.35577 0.17882 0.46548 0.0
N1951 N 0.35997 0.18097 0.50994 0.0
C1952 C 0.78101 0.11461 0.45182 0.0
C1953 C 0.77175 0.11698 0.43429 0.0
C1954 C 0.79283 0.12922 0.46483 0.0
C1955 C 0.79555 0.14647 0.46062 0.0
C1956 C 0.7747 0.1343 0.42984 0.0
C1957 C 0.78661 0.14895 0.44282 0.0
C1958 C 0.80835 0.16202 0.47407 0.0
C1959 C 0.7623 0.12639 0.51965 0.0
C1960 C 0.76753 0.12012 0.53798 0.0
C1961 C 0.77529 0.13989 0.50614 0.0
C1962 C 0.7937 0.14726 0.51073 0.0
C1963 C 0.78593 0.12775 0.5427 0.0
C1964 C 0.79885 0.14115 0.52923 0.0
C1965 C 0.80782 0.16204 0.49738 0.0
C1966 C 0.86643 0.23613 0.52304 0.0
C1967 C 0.87458 0.23154 0.53996 0.0
C1968 C 0.85378 0.22283 0.50902 0.0
C1969 C 0.84898 0.20475 0.51186 0.0
C1970 C 0.86978 0.21342 0.54255 0.0
C1971 C 0.85699 0.20017 0.52879 0.0
C1972 C 0.83512 0.19033 0.49796 0.0
C1973 C 0.88364 0.22147 0.45551 0.0
C1974 C 0.88084 0.22875 0.43627 0.0
C1975 C 0.86904 0.20897 0.46797 0.0
C1976 C 0.85136 0.20394 0.46183 0.0
C1977 C 0.86321 0.22344 0.42974 0.0
C1978 C 0.84857 0.21111 0.44244 0.0
C1979 C 0.83578 0.19029 0.47467 0.0
H1980 H 0.779 0.10141 0.45555 0.0
H1981 H 0.79995 0.12707 0.4781 0.0
H1982 H 0.76795 0.13652 0.41618 0.0
H1983 H 0.78876 0.16221 0.43909 0.0
H1984 H 0.74819 0.12085 0.5158 0.0
H1985 H 0.77093 0.14475 0.49237 0.0
H1986 H 0.79035 0.12358 0.55708 0.0
H1987 H 0.81294 0.14678 0.53331 0.0
H1988 H 0.86949 0.24988 0.52096 0.0
H1989 H 0.84749 0.2266 0.49628 0.0
H1990 H 0.87592 0.20946 0.55528 0.0
H1991 H 0.85346 0.18629 0.53127 0.0
H1992 H 0.89714 0.22516 0.46061 0.0
H1993 H 0.87162 0.20301 0.48219 0.0
H1994 H 0.86078 0.22891 0.41492 0.0
H1995 H 0.83506 0.20721 0.43716 0.0
N1996 N 0.82226 0.1762 0.46361 0.0
N1997 N 0.82126 0.17617 0.50834 0.0
C1998 C 0.9707 0.5382 0.16044 0.0
C1999 C 0.98229 0.54576 0.14228 0.0
C2000 C 0.9717 0.52541 0.17365 0.0
C2001 C 0.98432 0.52004 0.16889 0.0
C2002 C 0.9949 0.54039 0.1376 0.0
C2003 C 0.99579 0.52753 0.15067 0.0
C2004 C 0.98519 0.50606 0.18208 0.0
C2005 C 0.00485 0.55387 0.22726 0.0
C2006 C 0.9935 0.5509 0.24539 0.0
C2007 C 0.00238 0.5395 0.21397 0.0
C2008 C 0.98852 0.52192 0.21863 0.0
C2009 C 0.97971 0.53331 0.25012 0.0
C2010 C 0.97734 0.51891 0.23694 0.0
C2011 C 0.9864 0.50656 0.20532 0.0
C2012 C 0.00508 0.44944 0.22436 0.0
C2013 C 0.99485 0.4418 0.24351 0.0
C2014 C 0.00255 0.46157 0.21182 0.0
C2015 C 0.98947 0.46599 0.21795 0.0
C2016 C 0.98218 0.44665 0.25006 0.0
C2017 C 0.97952 0.45866 0.23737 0.0
C2018 C 0.98683 0.47902 0.20493 0.0
C2019 C 0.97267 0.43196 0.16004 0.0
C2020 C 0.98353 0.43635 0.14109 0.0
C2021 C 0.97309 0.44554 0.17325 0.0
C2022 C 0.98463 0.46375 0.16795 0.0
C2023 C 0.9948 0.45456 0.13564 0.0
C2024 C 0.99528 0.4681 0.14887 0.0
C2025 C 0.98541 0.47842 0.18166 0.0
H2026 H 0.96095 0.54222 0.16443 0.0
H2027 H 0.96247 0.51955 0.18738 0.0
H2028 H 0.0039 0.54596 0.1236 0.0
H2029 H 0.00553 0.52349 0.14661 0.0
H2030 H 0.01561 0.56732 0.22334 0.0
H2031 H 0.01147 0.54209 0.20027 0.0
H2032 H 0.97097 0.53067 0.26422 0.0
H2033 H 0.96675 0.50541 0.241 0.0
H2034 H 0.01524 0.44623 0.2193 0.0
H2035 H 0.01095 0.46762 0.19744 0.0
H2036 H 0.97422 0.44099 0.26485 0.0
H2037 H 0.96958 0.46212 0.24262 0.0
H2038 H 0.964 0.41805 0.16478 0.0
H2039 H 0.96439 0.4418 0.18758 0.0
H2040 H 0.00318 0.45833 0.12101 0.0
H2041 H 0.00415 0.48202 0.1443 0.0
N2042 N 0.9848 0.49205 0.17118 0.0
N2043 N 0.98709 0.49299 0.21585 0.0
C2044 C 0.46499 0.42982 0.16242 0.0
C2045 C 0.45831 0.4348 0.14428 0.0
C2046 C 0.47849 0.44304 0.17573 0.0
C2047 C 0.48546 0.46139 0.17103 0.0
C2048 C 0.46571 0.45311 0.13928 0.0
C2049 C 0.47916 0.46626 0.15248 0.0
C2050 C 0.49948 0.47577 0.18491 0.0
C2051 C 0.45001 0.44719 0.2268 0.0
C2052 C 0.45209 0.43893 0.24563 0.0
C2053 C 0.465 0.45938 0.21461 0.0
C2054 C 0.48235 0.46334 0.22082 0.0
C2055 C 0.46947 0.44332 0.25228 0.0
C2056 C 0.48449 0.45547 0.23997 0.0
C2057 C 0.4983 0.47644 0.20811 0.0
C2058 C 0.55347 0.5526 0.22901 0.0
C2059 C 0.56068 0.55031 0.24868 0.0
C2060 C 0.54224 0.53776 0.21593 0.0
C2061 C 0.53835 0.52041 0.22199 0.0
C2062 C 0.55658 0.53293 0.25494 0.0
C2063 C 0.54544 0.51809 0.24174 0.0
C2064 C 0.52592 0.50453 0.20865 0.0
C2065 C 0.57346 0.53883 0.16456 0.0
C2066 C 0.56894 0.54489 0.14542 0.0
C2067 C 0.55998 0.52544 0.1777 0.0
C2068 C 0.54176 0.51809 0.17205 0.0
C2069 C 0.55073 0.53733 0.1397 0.0
C2070 C 0.53731 0.52403 0.15282 0.0
C2071 C 0.52712 0.50381 0.18544 0.0
H2072 H 0.4596 0.41576 0.16644 0.0
H2073 H 0.48345 0.43896 0.18966 0.0
H2074 H 0.46109 0.45728 0.12507 0.0
H2075 H 0.48447 0.4803 0.14836 0.0
H2076 H 0.43679 0.44441 0.22169 0.0
H2077 H 0.46304 0.46585 0.20044 0.0
H2078 H 0.47141 0.43721 0.26683 0.0
H2079 H 0.49778 0.45859 0.24528 0.0
H2080 H 0.55626 0.56584 0.22398 0.0
H2081 H 0.53639 0.53986 0.20123 0.0
H2082 H 0.56211 0.53085 0.26994 0.0
H2083 H 0.54241 0.5048 0.24689 0.0
H2084 H 0.58739 0.54455 0.16946 0.0
H2085 H 0.5638 0.52081 0.19219 0.0
H2086 H 0.54686 0.54161 0.12493 0.0
H2087 H 0.52338 0.51848 0.148 0.0
N2088 N 0.5138 0.4895 0.17455 0.0
N2089 N 0.51163 0.49073 0.21909 0.0
C2090 C 0.4589 0.02404 0.2375 0.0
C2091 C 0.44873 0.00805 0.24947 0.0
C2092 C 0.47376 0.02669 0.22508 0.0
C2093 C 0.47865 0.01337 0.22449 0.0
C2094 C 0.45363 0.99476 0.24883 0.0
C2095 C 0.46859 0.99749 0.23664 0.0
C2096 C 0.49456 0.01607 0.21191 0.0
C2097 C 0.45357 0.00898 0.16082 0.0
C2098 C 0.45903 0.02365 0.14648 0.0
C2099 C 0.46591 0.00825 0.17512 0.0
C2100 C 0.48389 0.02231 0.1756 0.0
C2101 C 0.47699 0.0378 0.14714 0.0
C2102 C 0.48933 0.03706 0.16146 0.0
C2103 C 0.49737 0.021 0.18941 0.0
C2104 C 0.55539 0.00626 0.16292 0.0
C2105 C 0.56579 0.02088 0.1489 0.0
C2106 C 0.54243 0.00636 0.17674 0.0
C2107 C 0.53966 0.02112 0.17684 0.0
C2108 C 0.56311 0.0357 0.14911 0.0
C2109 C 0.55004 0.03576 0.16286 0.0
C2110 C 0.52496 0.02066 0.19011 0.0
C2111 C 0.56562 0.02285 0.2382 0.0
C2112 C 0.55902 0.00838 0.25305 0.0
C2113 C 0.55377 0.02549 0.22515 0.0
C2114 C 0.53513 0.01342 0.2263 0.0
C2115 C 0.54039 0.99656 0.25456 0.0
C2116 C 0.52856 0.99908 0.24135 0.0
C2117 C 0.52226 0.01597 0.21272 0.0
H2118 H 0.45527 0.03442 0.23765 0.0
H2119 H 0.48151 0.03917 0.21611 0.0
H2120 H 0.446 0.98236 0.258 0.0
H2121 H 0.47222 0.98711 0.2365 0.0
H2122 H 0.43988 0.99779 0.16047 0.0
H2123 H 0.46148 0.99643 0.18531 0.0
H2124 H 0.4815 0.04939 0.13649 0.0
H2125 H 0.50316 0.04799 0.16142 0.0
H2126 H 0.55715 0.99463 0.16296 0.0
H2127 H 0.53426 0.9947 0.18694 0.0
H2128 H 0.57072 0.04699 0.13815 0.0
H2129 H 0.54793 0.04716 0.16245 0.0
H2130 H 0.57994 0.03222 0.2369 0.0
H2131 H 0.55919 0.03705 0.21432 0.0
H2132 H 0.53501 0.98519 0.26571 0.0
H2133 H 0.51425 0.98967 0.2427 0.0
N2134 N 0.50708 0.01374 0.22264 0.0
N2135 N 0.5125 0.02315 0.17942 0.0
C2136 C 0.55233 0.00106 0.79564 0.0
C2137 C 0.55025 0.99205 0.77554 0.0
C2138 C 0.5373 0.99764 0.8082 0.0
C2139 C 0.51993 0.98492 0.80105 0.0
C2140 C 0.53285 0.97945 0.76832 0.0
C2141 C 0.51782 0.97601 0.7809 0.0
C2142 C 0.50388 0.98154 0.81387 0.0
C2143 C 0.53488 0.96338 0.85571 0.0
C2144 C 0.54018 0.97203 0.87627 0.0
C2145 C 0.52229 0.96503 0.84285 0.0
C2146 C 0.51515 0.97571 0.85013 0.0
C2147 C 0.53258 0.98218 0.88386 0.0
C2148 C 0.5202 0.98401 0.87092 0.0
C2149 C 0.50199 0.97796 0.83677 0.0
C2150 C 0.4274 0.96498 0.85665 0.0
C2151 C 0.43127 0.97507 0.87621 0.0
C2152 C 0.44136 0.96585 0.84376 0.0
C2153 C 0.45938 0.977 0.85012 0.0
C2154 C 0.44929 0.98589 0.88273 0.0
C2155 C 0.46318 0.98676 0.86989 0.0
C2156 C 0.47447 0.97848 0.83671 0.0
C2157 C 0.44682 0.00078 0.79542 0.0
C2158 C 0.44142 0.99295 0.77448 0.0
C2159 C 0.45824 0.99735 0.80826 0.0
C2160 C 0.46389 0.9855 0.80067 0.0
C2161 C 0.44745 0.98157 0.76654 0.0
C2162 C 0.45858 0.97785 0.77956 0.0
C2163 C 0.47632 0.98198 0.81377 0.0
H2164 H 0.56559 0.01096 0.80148 0.0
H2165 H 0.53924 0.00507 0.82338 0.0
H2166 H 0.53088 0.97211 0.75305 0.0
H2167 H 0.50453 0.96626 0.775 0.0
H2168 H 0.54034 0.95522 0.84972 0.0
H2169 H 0.51812 0.9579 0.82728 0.0
H2170 H 0.53649 0.98898 0.89967 0.0
H2171 H 0.51477 0.99215 0.87704 0.0
H2172 H 0.41364 0.95664 0.85116 0.0
H2173 H 0.43808 0.9579 0.8288 0.0
H2174 H 0.45263 0.99366 0.89785 0.0
H2175 H 0.47696 0.99531 0.87524 0.0
H2176 H 0.44246 0.0098 0.80165 0.0
H2177 H 0.46279 0.00415 0.82398 0.0
H2178 H 0.44344 0.97547 0.75035 0.0
H2179 H 0.463 0.96894 0.77315 0.0
N2180 N 0.4909 0.98323 0.80328 0.0
N2181 N 0.48742 0.97671 0.84725 0.0
C2182 C 0.99713 0.55012 0.78499 0.0
C2183 C 0.00732 0.55793 0.76585 0.0
C2184 C 0.00065 0.53898 0.79824 0.0
C2185 C 0.01451 0.53555 0.79266 0.0
C2186 C 0.02123 0.55457 0.76031 0.0
C2187 C 0.02467 0.5433 0.7735 0.0
C2188 C 0.01771 0.52306 0.80602 0.0
C2189 C 0.03405 0.57153 0.84999 0.0
C2190 C 0.02335 0.5676 0.86905 0.0
C2191 C 0.03276 0.55763 0.83663 0.0
C2192 C 0.02077 0.53958 0.84214 0.0
C2193 C 0.01131 0.54952 0.87438 0.0
C2194 C 0.01013 0.53567 0.86115 0.0
C2195 C 0.01993 0.5246 0.82914 0.0
C2196 C 0.03573 0.46532 0.85131 0.0
C2197 C 0.02594 0.45939 0.8711 0.0
C2198 C 0.03423 0.47772 0.83791 0.0
C2199 C 0.02266 0.48416 0.8439 0.0
C2200 C 0.01477 0.4662 0.87734 0.0
C2201 C 0.01317 0.47848 0.86389 0.0
C2202 C 0.02072 0.49726 0.83001 0.0
C2203 C 0.00031 0.44699 0.79001 0.0
C2204 C 0.00976 0.44904 0.7703 0.0
C2205 C 0.0029 0.46206 0.80182 0.0
C2206 C 0.01529 0.47947 0.7944 0.0
C2207 C 0.02164 0.46643 0.76242 0.0
C2208 C 0.02438 0.48153 0.77439 0.0
C2209 C 0.01818 0.49554 0.80689 0.0
H2210 H 0.98644 0.55265 0.78972 0.0
H2211 H 0.99235 0.53282 0.81267 0.0
H2212 H 0.02923 0.56041 0.74559 0.0
H2213 H 0.03529 0.54067 0.76878 0.0
H2214 H 0.04375 0.58531 0.84574 0.0
H2215 H 0.04144 0.56095 0.82233 0.0
H2216 H 0.00281 0.54607 0.88887 0.0
H2217 H 0.00085 0.52185 0.86577 0.0
H2218 H 0.04472 0.46054 0.84637 0.0
H2219 H 0.04217 0.48235 0.82294 0.0
H2220 H 0.00706 0.46184 0.89251 0.0
H2221 H 0.0043 0.48336 0.86899 0.0
H2222 H 0.99073 0.43371 0.79611 0.0
H2223 H 0.99513 0.46008 0.81671 0.0
H2224 H 0.02898 0.46832 0.74718 0.0
H2225 H 0.03377 0.49483 0.76815 0.0
N2226 N 0.01697 0.50862 0.79577 0.0
N2227 N 0.02133 0.51164 0.84019 0.0
C2228 C 0.54177 0.56859 0.78312 0.0
C2229 C 0.55098 0.56199 0.77056 0.0
C2230 C 0.52614 0.55676 0.79466 0.0
C2231 C 0.51954 0.53813 0.79397 0.0
C2232 C 0.544 0.54332 0.7693 0.0
C2233 C 0.52842 0.53152 0.78086 0.0
C2234 C 0.50324 0.52534 0.80642 0.0
C2235 C 0.54432 0.55819 0.85812 0.0
C2236 C 0.53945 0.56815 0.87202 0.0
C2237 C 0.53174 0.54527 0.8438 0.0
C2238 C 0.51412 0.54226 0.84282 0.0
C2239 C 0.52185 0.56523 0.87093 0.0
C2240 C 0.50926 0.55229 0.85656 0.0
C2241 C 0.50038 0.52771 0.82886 0.0
C2242 C 0.4421 0.45553 0.85613 0.0
C2243 C 0.43215 0.46007 0.87047 0.0
C2244 C 0.45476 0.46835 0.8418 0.0
C2245 C 0.45756 0.48592 0.84139 0.0
C2246 C 0.43459 0.47748 0.86967 0.0
C2247 C 0.44734 0.49036 0.85538 0.0
C2248 C 0.47239 0.50004 0.82813 0.0
C2249 C 0.43206 0.46153 0.77952 0.0
C2250 C 0.43828 0.45184 0.76725 0.0
C2251 C 0.44402 0.4765 0.792 0.0
C2252 C 0.46239 0.48198 0.79251 0.0
C2253 C 0.45671 0.45743 0.76772 0.0
C2254 C 0.46866 0.47247 0.78005 0.0
C2255 C 0.47524 0.49771 0.8057 0.0
H2256 H 0.5468 0.58292 0.78421 0.0
H2257 H 0.51924 0.56218 0.80413 0.0
H2258 H 0.55056 0.53784 0.75928 0.0
H2259 H 0.52344 0.51719 0.77981 0.0
H2260 H 0.55773 0.56001 0.85883 0.0
H2261 H 0.53568 0.53732 0.83388 0.0
H2262 H 0.51781 0.57288 0.88126 0.0
H2263 H 0.4957 0.55007 0.85622 0.0
H2264 H 0.44038 0.44215 0.85639 0.0
H2265 H 0.46279 0.46469 0.83162 0.0
H2266 H 0.42712 0.48129 0.88069 0.0
H2267 H 0.44945 0.50389 0.85551 0.0
H2268 H 0.41795 0.45759 0.77936 0.0
H2269 H 0.43892 0.48385 0.80115 0.0
H2270 H 0.46185 0.44998 0.75891 0.0
H2271 H 0.48279 0.47646 0.78024 0.0
N2272 N 0.49058 0.5104 0.79576 0.0
N2273 N 0.48502 0.51501 0.83879 0.0
C2274 C 0.65151 0.77454 0.49448 0.0
C2275 C 0.63655 0.76452 0.48078 0.0
C2276 C 0.65198 0.78748 0.50885 0.0
C2277 C 0.63734 0.79043 0.5101 0.0
C2278 C 0.62185 0.76737 0.48216 0.0
C2279 C 0.62231 0.78031 0.49659 0.0
C2280 C 0.63829 0.80502 0.52409 0.0
C2281 C 0.63925 0.76455 0.56955 0.0
C2282 C 0.65488 0.77125 0.58244 0.0
C2283 C 0.63549 0.77633 0.55802 0.0
C2284 C 0.64747 0.79499 0.55885 0.0
C2285 C 0.6665 0.78992 0.58393 0.0
C2286 C 0.66283 0.80168 0.57224 0.0
C2287 C 0.64399 0.80772 0.54634 0.0
C2288 C 0.63776 0.87204 0.57349 0.0
C2289 C 0.65419 0.88195 0.58469 0.0
C2290 C 0.63419 0.85681 0.5612 0.0
C2291 C 0.64701 0.85127 0.55996 0.0
C2292 C 0.6668 0.87615 0.58384 0.0
C2293 C 0.66319 0.86088 0.57169 0.0
C2294 C 0.6436 0.83528 0.54697 0.0
C2295 C 0.64907 0.876 0.49607 0.0
C2296 C 0.63392 0.87046 0.48255 0.0
C2297 C 0.6501 0.86383 0.51038 0.0
C2298 C 0.63587 0.84596 0.51168 0.0
C2299 C 0.6195 0.85271 0.48428 0.0
C2300 C 0.62054 0.84053 0.49858 0.0
C2301 C 0.63768 0.83247 0.52483 0.0
H2302 H 0.66311 0.77277 0.49355 0.0
H2303 H 0.66397 0.79549 0.51859 0.0
H2304 H 0.61006 0.75968 0.47197 0.0
H2305 H 0.61095 0.78248 0.49714 0.0
H2306 H 0.62988 0.75022 0.56856 0.0
H2307 H 0.62319 0.77083 0.5485 0.0
H2308 H 0.6786 0.79539 0.59384 0.0
H2309 H 0.67217 0.81602 0.57337 0.0
H2310 H 0.6278 0.87621 0.57402 0.0
H2311 H 0.62143 0.84935 0.55273 0.0
H2312 H 0.67942 0.88339 0.59268 0.0
H2313 H 0.67318 0.85673 0.57117 0.0
H2314 H 0.66046 0.88954 0.49489 0.0
H2315 H 0.66231 0.86824 0.51979 0.0
H2316 H 0.60755 0.84816 0.4743 0.0
H2317 H 0.60947 0.82678 0.49921 0.0
N2318 N 0.6352 0.81742 0.51431 0.0
N2319 N 0.64654 0.82282 0.55682 0.0
C2320 C 0.13412 0.76475 0.49557 0.0
C2321 C 0.1272 0.76952 0.47744 0.0
C2322 C 0.14596 0.77793 0.51033 0.0
C2323 C 0.15107 0.79607 0.50718 0.0
C2324 C 0.13232 0.78768 0.47445 0.0
C2325 C 0.1442 0.80081 0.48907 0.0
C2326 C 0.1644 0.81045 0.52169 0.0
C2327 C 0.11544 0.77908 0.5638 0.0
C2328 C 0.11786 0.77033 0.5819 0.0
C2329 C 0.13019 0.79172 0.55163 0.0
C2330 C 0.14768 0.79576 0.55715 0.0
C2331 C 0.13539 0.77438 0.58742 0.0
C2332 C 0.15018 0.78712 0.57526 0.0
C2333 C 0.16338 0.80986 0.54498 0.0
C2334 C 0.21516 0.88535 0.57086 0.0
C2335 C 0.22567 0.88359 0.5873 0.0
C2336 C 0.20374 0.8707 0.55765 0.0
C2337 C 0.20255 0.85397 0.56064 0.0
C2338 C 0.2244 0.86675 0.59029 0.0
C2339 C 0.21275 0.852 0.57724 0.0
C2340 C 0.19031 0.83848 0.54675 0.0
C2341 C 0.23719 0.87479 0.5027 0.0
C2342 C 0.23241 0.88199 0.48492 0.0
C2343 C 0.22387 0.86109 0.51566 0.0
C2344 C 0.20558 0.85434 0.51095 0.0
C2345 C 0.21412 0.8752 0.48027 0.0
C2346 C 0.20085 0.86146 0.4931 0.0
C2347 C 0.19123 0.83909 0.5235 0.0
H2348 H 0.1307 0.75092 0.49804 0.0
H2349 H 0.15145 0.77401 0.52387 0.0
H2350 H 0.1271 0.79175 0.46076 0.0
H2351 H 0.14801 0.81472 0.48626 0.0
H2352 H 0.10213 0.77642 0.55933 0.0
H2353 H 0.12793 0.79861 0.53817 0.0
H2354 H 0.13765 0.76765 0.60106 0.0
H2355 H 0.16358 0.79015 0.57991 0.0
H2356 H 0.21568 0.89807 0.56829 0.0
H2357 H 0.19571 0.87241 0.54517 0.0
H2358 H 0.23262 0.86503 0.60244 0.0
H2359 H 0.21196 0.83916 0.5798 0.0
H2360 H 0.25122 0.87971 0.50647 0.0
H2361 H 0.22787 0.8555 0.529 0.0
H2362 H 0.21008 0.88024 0.46636 0.0
H2363 H 0.18684 0.85633 0.489 0.0
N2364 N 0.17823 0.82508 0.51191 0.0
N2365 N 0.17646 0.82387 0.55665 0.0
C2366 C 0.24069 0.37124 0.49957 0.0
C2367 C 0.23707 0.36246 0.47906 0.0
C2368 C 0.22661 0.37 0.51255 0.0
C2369 C 0.20867 0.3596 0.50542 0.0
C2370 C 0.21922 0.35248 0.47173 0.0
C2371 C 0.20518 0.35105 0.48477 0.0
C2372 C 0.19337 0.35804 0.51858 0.0
C2373 C 0.21942 0.33505 0.56169 0.0
C2374 C 0.22645 0.34455 0.58149 0.0
C2375 C 0.20814 0.33847 0.54857 0.0
C2376 C 0.2038 0.35156 0.55493 0.0
C2377 C 0.22182 0.35739 0.58804 0.0
C2378 C 0.21052 0.36079 0.57492 0.0
C2379 C 0.19141 0.35488 0.54156 0.0
C2380 C 0.11475 0.33536 0.55808 0.0
C2381 C 0.11664 0.34301 0.57914 0.0
C2382 C 0.12988 0.3391 0.54554 0.0
C2383 C 0.14726 0.35113 0.5534 0.0
C2384 C 0.13404 0.35483 0.58712 0.0
C2385 C 0.14917 0.35882 0.5744 0.0
C2386 C 0.16351 0.35469 0.54076 0.0
C2387 C 0.1327 0.37161 0.49581 0.0
C2388 C 0.12776 0.36234 0.47559 0.0
C2389 C 0.14503 0.37034 0.50967 0.0
C2390 C 0.15227 0.35945 0.50372 0.0
C2391 C 0.13512 0.35159 0.46964 0.0
C2392 C 0.1473 0.35024 0.48349 0.0
C2393 C 0.16551 0.35792 0.51776 0.0
H2394 H 0.25441 0.37925 0.50539 0.0
H2395 H 0.22979 0.3773 0.528 0.0
H2396 H 0.2161 0.34556 0.45599 0.0
H2397 H 0.19151 0.34308 0.47877 0.0
H2398 H 0.22272 0.32503 0.55632 0.0
H2399 H 0.20268 0.33077 0.53356 0.0
H2400 H 0.22673 0.36461 0.60347 0.0
H2401 H 0.20707 0.3707 0.58033 0.0
H2402 H 0.10155 0.3265 0.55121 0.0
H2403 H 0.12795 0.33239 0.5298 0.0
H2404 H 0.13597 0.36083 0.60335 0.0
H2405 H 0.16242 0.36789 0.58102 0.0
H2406 H 0.12722 0.38001 0.50071 0.0
H2407 H 0.14898 0.37795 0.52493 0.0
H2408 H 0.13128 0.34403 0.45434 0.0
H2409 H 0.15271 0.34179 0.47849 0.0
N2410 N 0.18031 0.35936 0.50768 0.0
N2411 N 0.17664 0.35347 0.55173 0.0
C2412 C 0.00023 0.41114 0.10595 0.0
C2413 C 0.98428 0.39662 0.09751 0.0
C2414 C -0.0002 0.42367 0.12036 0.0
C2415 C 0.9834 0.42216 0.12696 0.0
H2416 H 0.01322 0.41317 0.10087 0.0
H2417 H 0.01244 0.43474 0.12622 0.0
S2418 S 0.93781 0.38617 0.11033 0.0
N2419 N 0.95159 0.38099 0.09754 0.0
N2420 N 0.95078 0.40478 0.12432 0.0
C2421 C 0.96732 0.40747 0.11907 0.0
C2422 C 0.96777 0.39469 0.10437 0.0
C2423 C 0.59311 0.58655 0.10966 0.0
C2424 C 0.60773 0.58544 0.10107 0.0
C2425 C 0.58095 0.57364 0.12443 0.0
C2426 C 0.58295 0.55912 0.13126 0.0
H2427 H 0.59067 0.59717 0.10439 0.0
H2428 H 0.56973 0.5749 0.13032 0.0
S2429 S 0.61949 0.55054 0.11451 0.0
N2430 N 0.62406 0.56915 0.1013 0.0
N2431 N 0.60096 0.54463 0.1288 0.0
C2432 C 0.59779 0.5581 0.12331 0.0
C2433 C 0.6102 0.57128 0.10822 0.0
C2434 C 0.41595 0.01846 0.12224 0.0
C2435 C 0.41987 0.02133 0.09956 0.0
C2436 C 0.42881 0.01965 0.13736 0.0
C2437 C 0.44608 0.02373 0.13038 0.0
H2438 H 0.40277 0.01513 0.12831 0.0
H2439 H 0.42518 0.01722 0.15466 0.0
S2440 S 0.46278 0.03156 0.07266 0.0
N2441 N 0.44208 0.02797 0.07077 0.0
N2442 N 0.46625 0.03017 0.09918 0.0
C2443 C 0.45022 0.02678 0.10777 0.0
C2444 C 0.43713 0.02558 0.09237 0.0
C2445 C 0.4055 0.99129 0.91095 0.0
C2446 C 0.39082 0.97523 0.9189 0.0
C2447 C 0.41823 0.99105 0.89675 0.0
C2448 C 0.41676 0.97474 0.88986 0.0
H2449 H 0.40751 0.00421 0.91633 0.0
H2450 H 0.42946 0.00377 0.89135 0.0
S2451 S 0.3804 0.92893 0.90505 0.0
N2452 N 0.3751 0.94254 0.91806 0.0
N2453 N 0.39923 0.94208 0.89152 0.0
C2454 C 0.4019 0.95855 0.89715 0.0
C2455 C 0.38892 0.9588 0.9117 0.0
C2456 C 0.03076 0.43703 0.92244 0.0
C2457 C 0.02699 0.42005 0.91468 0.0
C2458 C 0.0308 0.44981 0.90812 0.0
C2459 C 0.02727 0.44618 0.88548 0.0
H2460 H 0.03304 0.44022 0.93986 0.0
H2461 H 0.03337 0.46257 0.91488 0.0
S2462 S 0.01768 0.40417 0.85667 0.0
N2463 N 0.02049 0.40059 0.88274 0.0
N2464 N 0.0205 0.42464 0.8558 0.0
C2465 C 0.02408 0.4295 0.87736 0.0
C2466 C 0.02392 0.41642 0.89198 0.0
C2467 C 0.58326 0.60505 0.89644 0.0
C2468 C 0.57923 0.60437 0.91905 0.0
C2469 C 0.5702 0.5936 0.88126 0.0
C2470 C 0.55263 0.58105 0.88813 0.0
H2471 H 0.59667 0.61439 0.89047 0.0
H2472 H 0.57392 0.59447 0.86402 0.0
S2473 S 0.53547 0.57338 0.94563 0.0
N2474 N 0.55655 0.58986 0.94764 0.0
N2475 N 0.53202 0.56834 0.91912 0.0
C2476 C 0.54837 0.58037 0.91065 0.0
C2477 C 0.56167 0.59202 0.92611 0.0
C2478 C 0.02661 0.59313 0.92159 0.0
C2479 C 0.02575 0.60814 0.91402 0.0
C2480 C 0.02626 0.5804 0.90688 0.0
C2481 C 0.025 0.58209 0.88396 0.0
H2482 H 0.02696 0.59085 0.93911 0.0
H2483 H 0.02675 0.56898 0.91355 0.0
S2484 S 0.02341 0.61942 0.85551 0.0
N2485 N 0.02464 0.62453 0.88198 0.0
N2486 N 0.02344 0.60025 0.8543 0.0
C2487 C 0.02464 0.59728 0.87607 0.0
C2488 C 0.02508 0.61034 0.8911 0.0
C2489 C 0.39047 0.42976 0.9044 0.0
C2490 C 0.39698 0.42206 0.9196 0.0
C2491 C 0.40194 0.4422 0.88859 0.0
C2492 C 0.42016 0.44702 0.88724 0.0
H2493 H 0.37649 0.4263 0.90493 0.0
H2494 H 0.3965 0.44795 0.87722 0.0
S2495 S 0.44361 0.43039 0.923 0.0
N2496 N 0.42268 0.41995 0.93213 0.0
N2497 N 0.44416 0.44324 0.90247 0.0
C2498 C 0.42675 0.4393 0.90225 0.0
C2499 C 0.41517 0.42684 0.91842 0.0
C2500 C 0.56309 0.96577 0.92599 0.0
C2501 C 0.58073 0.97207 0.91837 0.0
C2502 C 0.54988 0.96526 0.91204 0.0
C2503 C 0.55377 0.97079 0.88992 0.0
H2504 H 0.55971 0.96197 0.94312 0.0
H2505 H 0.53661 0.96088 0.91873 0.0
S2506 S 0.59751 0.98717 0.86154 0.0
N2507 N 0.60115 0.98304 0.88704 0.0
N2508 N 0.57623 0.98197 0.86074 0.0
C2509 C 0.57112 0.97637 0.88183 0.0
C2510 C 0.58463 0.97707 0.89609 0.0
C2511 C 0.584 0.00389 0.10368 0.0
C2512 C 0.6021 0.01763 0.10175 0.0
C2513 C 0.57246 0.00504 0.11906 0.0
C2514 C 0.57851 0.02004 0.13305 0.0
H2515 H 0.5786 0.99221 0.09298 0.0
H2516 H 0.55859 0.99422 0.11978 0.0
S2517 S 0.62483 0.05921 0.1356 0.0
N2518 N 0.62571 0.04639 0.11587 0.0
N2519 N 0.60385 0.04865 0.14463 0.0
C2520 C 0.59655 0.03386 0.13143 0.0
C2521 C 0.60838 0.03265 0.11581 0.0
C2522 C 0.99692 0.58818 0.10905 0.0
C2523 C 0.98108 0.58455 0.09796 0.0
C2524 C 0.99708 0.5757 0.1237 0.0
C2525 C 0.98136 0.55922 0.128 0.0
H2526 H 0.00943 0.60053 0.10585 0.0
H2527 H 0.00964 0.57888 0.13156 0.0
S2528 S 0.93626 0.54358 0.10396 0.0
N2529 N 0.94917 0.56359 0.09281 0.0
N2530 N 0.94945 0.54008 0.12046 0.0
C2531 C 0.96533 0.55561 0.11751 0.0
C2532 C 0.9652 0.56827 0.10241 0.0
C2533 C 0.43302 0.39577 0.10454 0.0
C2534 C 0.41828 0.39768 0.09856 0.0
C2535 C 0.44561 0.40734 0.12017 0.0
C2536 C 0.44377 0.4211 0.13024 0.0
H2537 H 0.43523 0.38581 0.09642 0.0
H2538 H 0.45724 0.40603 0.12366 0.0
S2539 S 0.40595 0.42968 0.12272 0.0
N2540 N 0.40146 0.41295 0.10563 0.0
N2541 N 0.425 0.43457 0.13501 0.0
C2542 C 0.42849 0.42237 0.12533 0.0
C2543 C 0.41577 0.41068 0.10948 0.0
C2544 C 0.64341 0.72785 0.45577 0.0
C2545 C 0.64008 0.72866 0.43321 0.0
C2546 C 0.64176 0.73916 0.47115 0.0
C2547 C 0.63674 0.75169 0.46451 0.0
H2548 H 0.6475 0.71854 0.46156 0.0
H2549 H 0.64463 0.73822 0.48833 0.0
S2550 S 0.62726 0.75962 0.40725 0.0
N2551 N 0.6319 0.74324 0.40493 0.0
N2552 N 0.62881 0.76448 0.43381 0.0
C2553 C 0.63316 0.75247 0.44205 0.0
C2554 C 0.63482 0.74096 0.4264 0.0
C2555 C 0.2715 0.90503 0.44484 0.0
C2556 C 0.27125 0.92076 0.43916 0.0
C2557 C 0.25935 0.89289 0.46035 0.0
C2558 C 0.24637 0.89593 0.47047 0.0
H2559 H 0.281 0.90199 0.437 0.0
H2560 H 0.25969 0.88072 0.46388 0.0
S2561 S 0.24043 0.9353 0.46173 0.0
N2562 N 0.25719 0.93889 0.44518 0.0
N2563 N 0.23445 0.91611 0.47441 0.0
C2564 C 0.24626 0.9118 0.4653 0.0
C2565 C 0.25868 0.92421 0.44965 0.0
C2566 C 0.08418 0.35782 0.45441 0.0
C2567 C 0.08756 0.36121 0.43168 0.0
C2568 C 0.09753 0.359 0.46875 0.0
C2569 C 0.11463 0.3634 0.46078 0.0
H2570 H 0.07101 0.3539 0.46108 0.0
H2571 H 0.09422 0.35577 0.48601 0.0
S2572 S 0.13057 0.37433 0.40293 0.0
N2573 N 0.10948 0.36972 0.40205 0.0
N2574 N 0.13457 0.37213 0.42903 0.0
C2575 C 0.11836 0.36739 0.43825 0.0
C2576 C 0.10483 0.36627 0.42369 0.0
C2577 C 0.07599 0.32721 0.24372 0.0
C2578 C 0.06118 0.31148 0.25216 0.0
C2579 C 0.08808 0.32634 0.229 0.0
C2580 C 0.08586 0.30972 0.22209 0.0
H2581 H 0.07858 0.34034 0.24902 0.0
H2582 H 0.09941 0.33882 0.22317 0.0
S2583 S 0.04889 0.26458 0.23857 0.0
N2584 N 0.04451 0.27877 0.25179 0.0
N2585 N 0.06753 0.27714 0.22441 0.0
C2586 C 0.07089 0.29387 0.22996 0.0
C2587 C 0.05853 0.29475 0.24499 0.0
C2588 C 0.70462 0.764 0.24485 0.0
C2589 C 0.6883 0.74837 0.25013 0.0
C2590 C 0.70516 0.77653 0.22961 0.0
C2591 C 0.68936 0.77397 0.21942 0.0
H2592 H 0.71699 0.76667 0.25281 0.0
H2593 H 0.71791 0.78861 0.22639 0.0
S2594 S 0.64336 0.73505 0.2271 0.0
N2595 N 0.65606 0.73087 0.24361 0.0
N2596 N 0.65713 0.75434 0.2149 0.0
C2597 C 0.67306 0.75819 0.22415 0.0
C2598 C 0.67252 0.74541 0.23951 0.0
C2599 C 0.24787 0.94118 0.23455 0.0
C2600 C 0.24457 0.94124 0.2573 0.0
C2601 C 0.23436 0.92917 0.22019 0.0
C2602 C 0.21717 0.91665 0.22817 0.0
H2603 H 0.26112 0.95022 0.22789 0.0
H2604 H 0.2376 0.92914 0.20291 0.0
S2605 S 0.20136 0.91194 0.28605 0.0
N2606 N 0.22261 0.92818 0.28694 0.0
N2607 N 0.19721 0.90573 0.25993 0.0
C2608 C 0.2135 0.91702 0.25071 0.0
C2609 C 0.22719 0.9293 0.26529 0.0
C2610 C 0.67262 0.9217 0.24333 0.0
C2611 C 0.68808 0.93558 0.25349 0.0
C2612 C 0.67385 0.91038 0.2277 0.0
C2613 C 0.69059 0.91246 0.22165 0.0
H2614 H 0.6594 0.91935 0.24783 0.0
H2615 H 0.66154 0.89965 0.22061 0.0
S2616 S 0.73515 0.94704 0.24307 0.0
N2617 N 0.72068 0.95117 0.25603 0.0
N2618 N 0.72303 0.92974 0.22664 0.0
C2619 C 0.70623 0.9267 0.23109 0.0
C2620 C 0.70497 0.93829 0.24703 0.0
C2621 C 0.0562 0.74953 0.23317 0.0
C2622 C 0.05687 0.75268 0.25605 0.0
C2623 C 0.06838 0.76284 0.21869 0.0
C2624 C 0.08177 0.77968 0.22665 0.0
H2625 H 0.04643 0.73655 0.22646 0.0
H2626 H 0.06779 0.75968 0.20129 0.0
S2627 S 0.08866 0.79508 0.28488 0.0
N2628 N 0.07167 0.77418 0.28582 0.0
N2629 N 0.09427 0.79923 0.25859 0.0
C2630 C 0.08214 0.78324 0.24935 0.0
C2631 C 0.06976 0.76974 0.26406 0.0
C2632 C 0.25112 0.3124 0.23228 0.0
C2633 C 0.24706 0.30744 0.25458 0.0
C2634 C 0.23784 0.31093 0.21763 0.0
C2635 C 0.22015 0.30477 0.22492 0.0
H2636 H 0.26476 0.31782 0.22627 0.0
H2637 H 0.24158 0.31536 0.20073 0.0
S2638 S 0.20247 0.28943 0.28138 0.0
N2639 N 0.22396 0.29549 0.28299 0.0
N2640 N 0.19905 0.29288 0.25549 0.0
C2641 C 0.21581 0.29927 0.24698 0.0
C2642 C 0.22925 0.30055 0.2618 0.0
C2643 C 0.26558 0.36816 0.42864 0.0
C2644 C 0.27665 0.3615 0.43582 0.0
C2645 C 0.25323 0.36902 0.44298 0.0
C2646 C 0.2517 0.36348 0.46509 0.0
H2647 H 0.26587 0.37197 0.41155 0.0
H2648 H 0.24449 0.37364 0.43661 0.0
S2649 S 0.27861 0.34633 0.49243 0.0
N2650 N 0.28607 0.35025 0.46674 0.0
N2651 N 0.26289 0.35198 0.49379 0.0
C2652 C 0.26327 0.35758 0.47275 0.0
C2653 C 0.27571 0.35653 0.45807 0.0
C2654 C 0.64025 0.91319 0.45571 0.0
C2655 C 0.63726 0.90848 0.43325 0.0
C2656 C 0.63866 0.90068 0.47168 0.0
C2657 C 0.63382 0.88297 0.46577 0.0
H2658 H 0.64453 0.92683 0.46088 0.0
H2659 H 0.64154 0.90498 0.48874 0.0
S2660 S 0.62346 0.86366 0.40927 0.0
N2661 N 0.62827 0.88468 0.40604 0.0
N2662 N 0.62551 0.86124 0.43594 0.0
C2663 C 0.63017 0.87793 0.44345 0.0
C2664 C 0.63185 0.89068 0.42722 0.0
C2665 C 0.10575 0.74772 0.42283 0.0
C2666 C 0.09015 0.73185 0.42926 0.0
C2667 C 0.11795 0.75946 0.43852 0.0
C2668 C 0.11494 0.75585 0.46126 0.0
H2669 H 0.10836 0.75126 0.40552 0.0
H2670 H 0.12971 0.77164 0.4328 0.0
S2671 S 0.076 0.716 0.48656 0.0
N2672 N 0.07239 0.7129 0.45973 0.0
N2673 N 0.0952 0.73513 0.48937 0.0
C2674 C 0.0996 0.73976 0.46788 0.0
C2675 C 0.08723 0.72772 0.45184 0.0
C2676 C 0.32945 0.08399 0.77042 0.0
C2677 C 0.31486 0.06697 0.76492 0.0
C2678 C 0.32793 0.09457 0.78691 0.0
C2679 C 0.31174 0.08859 0.79858 0.0
H2680 H 0.34221 0.08919 0.76194 0.0
H2681 H 0.33945 0.10772 0.79024 0.0
S2682 S 0.26963 0.04488 0.79088 0.0
N2683 N 0.28369 0.04456 0.77252 0.0
N2684 N 0.28096 0.0643 0.80397 0.0
C2685 C 0.29709 0.0715 0.79347 0.0
C2686 C 0.29864 0.06071 0.7766 0.0
C2687 C 0.94215 0.24795 0.78968 0.0
C2688 C 0.93999 0.24464 0.76681 0.0
C2689 C 0.93068 0.23491 0.80488 0.0
C2690 C 0.91668 0.21806 0.79778 0.0
H2691 H 0.95267 0.26079 0.79586 0.0
H2692 H 0.93266 0.23809 0.82233 0.0
S2693 S 0.90475 0.20297 0.73978 0.0
N2694 N 0.92239 0.22343 0.73785 0.0
N2695 N 0.901 0.19891 0.76644 0.0
C2696 C 0.91449 0.21449 0.77501 0.0
C2697 C 0.9261 0.22778 0.75953 0.0
C2698 C 0.75466 0.696 0.78768 0.0
C2699 C 0.75847 0.69863 0.76496 0.0
C2700 C 0.7677 0.69767 0.80283 0.0
C2701 C 0.78504 0.70203 0.79583 0.0
H2702 H 0.74138 0.69233 0.79374 0.0
H2703 H 0.76411 0.69526 0.82014 0.0
S2704 S 0.80166 0.70977 0.73809 0.0
N2705 N 0.78076 0.70561 0.73617 0.0
N2706 N 0.80527 0.70876 0.76465 0.0
C2707 C 0.78914 0.70504 0.77322 0.0
C2708 C 0.77586 0.70334 0.75778 0.0
C2709 C 0.72589 0.64058 0.56471 0.0
C2710 C 0.72731 0.63782 0.58732 0.0
C2711 C 0.7369 0.63871 0.54909 0.0
C2712 C 0.74971 0.63401 0.5555 0.0
H2713 H 0.71637 0.64446 0.5591 0.0
H2714 H 0.73554 0.6412 0.53188 0.0
S2715 S 0.75917 0.62595 0.61271 0.0
N2716 N 0.74273 0.63046 0.61536 0.0
N2717 N 0.76338 0.62692 0.586 0.0
C2718 C 0.75106 0.63093 0.578 0.0
C2719 C 0.73987 0.63284 0.59391 0.0
C2720 C 0.34443 0.08344 0.57159 0.0
C2721 C 0.36022 0.08513 0.58079 0.0
C2722 C 0.34508 0.0966 0.55746 0.0
C2723 C 0.36153 0.11192 0.55187 0.0
H2724 H 0.33139 0.07216 0.57596 0.0
H2725 H 0.33255 0.09491 0.55111 0.0
S2726 S 0.40679 0.12222 0.57047 0.0
N2727 N 0.39286 0.10286 0.58243 0.0
N2728 N 0.39406 0.12775 0.55597 0.0
C2729 C 0.37748 0.11351 0.56034 0.0
C2730 C 0.37682 0.10012 0.57483 0.0
C2731 C 0.89863 0.25354 0.59335 0.0
C2732 C 0.91327 0.27008 0.58644 0.0
C2733 C 0.88605 0.24147 0.57826 0.0
C2734 C 0.88761 0.2453 0.55554 0.0
H2735 H 0.8971 0.24961 0.61053 0.0
H2736 H 0.87508 0.22891 0.58447 0.0
S2737 S 0.92296 0.28706 0.52888 0.0
N2738 N 0.92802 0.29011 0.5554 0.0
N2739 N 0.90476 0.26699 0.52684 0.0
C2740 C 0.90195 0.26193 0.54837 0.0
C2741 C 0.91471 0.27436 0.56383 0.0
C2742 C 0.34039 0.25876 0.57528 0.0
C2743 C 0.35593 0.27364 0.58398 0.0
C2744 C 0.34159 0.24681 0.56065 0.0
C2745 C 0.35836 0.24925 0.55405 0.0
H2746 H 0.32715 0.25598 0.58036 0.0
H2747 H 0.32925 0.23539 0.55466 0.0
S2748 S 0.40311 0.28657 0.57112 0.0
N2749 N 0.38863 0.29066 0.58411 0.0
N2750 N 0.39088 0.26794 0.55679 0.0
C2751 C 0.37403 0.26433 0.5621 0.0
C2752 C 0.37281 0.27654 0.57708 0.0
C2753 C 0.72814 0.09615 0.57758 0.0
C2754 C 0.73036 0.08205 0.58551 0.0
C2755 C 0.73982 0.10808 0.56151 0.0
C2756 C 0.75399 0.10618 0.55284 0.0
H2757 H 0.71775 0.09836 0.58441 0.0
H2758 H 0.73818 0.11926 0.55649 0.0
S2759 S 0.7636 0.06972 0.56593 0.0
N2760 N 0.7465 0.06574 0.58209 0.0
N2761 N 0.76823 0.08789 0.55165 0.0
C2762 C 0.75564 0.0915 0.55982 0.0
C2763 C 0.74388 0.0795 0.57623 0.0
C2764 C 0.91194 0.63856 0.56365 0.0
C2765 C 0.90774 0.63638 0.58628 0.0
C2766 C 0.89917 0.63672 0.54793 0.0
C2767 C 0.88169 0.63242 0.55427 0.0
H2768 H 0.92539 0.6424 0.55814 0.0
H2769 H 0.90308 0.63897 0.53071 0.0
S2770 S 0.8637 0.62424 0.6114 0.0
N2771 N 0.88466 0.62874 0.61417 0.0
N2772 N 0.86072 0.62547 0.58469 0.0
C2773 C 0.87715 0.62956 0.57679 0.0
C2774 C 0.89016 0.63152 0.59277 0.0
C2775 C 0.92037 0.67734 0.76782 0.0
C2776 C 0.93706 0.69199 0.76137 0.0
C2777 C 0.9098 0.67923 0.78398 0.0
C2778 C 0.91548 0.69583 0.7945 0.0
H2779 H 0.9154 0.66423 0.76031 0.0
H2780 H 0.89689 0.66761 0.78798 0.0
S2781 S 0.95833 0.73831 0.78412 0.0
N2782 N 0.95885 0.7237 0.76684 0.0
N2783 N 0.9392 0.72711 0.79784 0.0
C2784 C 0.93227 0.71057 0.78848 0.0
C2785 C 0.94303 0.70866 0.77186 0.0
C2786 C 0.32264 0.24016 0.76818 0.0
C2787 C 0.30809 0.24307 0.76519 0.0
C2788 C 0.32212 0.22825 0.78428 0.0
C2789 C 0.30695 0.21868 0.7979 0.0
H2790 H 0.33465 0.24731 0.75815 0.0
H2791 H 0.33361 0.22637 0.78591 0.0
S2792 S 0.26529 0.22145 0.79671 0.0
N2793 N 0.27804 0.23537 0.7771 0.0
N2794 N 0.27708 0.213 0.80751 0.0
C2795 C 0.29228 0.22143 0.79508 0.0
C2796 C 0.29286 0.23365 0.77875 0.0
C2797 C 0.76016 0.05626 0.78313 0.0
C2798 C 0.75542 0.0629 0.76471 0.0
C2799 C 0.7729 0.06806 0.79845 0.0
C2800 C 0.78089 0.0868 0.79604 0.0
H2801 H 0.75401 0.04189 0.78564 0.0
H2802 H 0.77627 0.06253 0.81246 0.0
S2803 S 0.77279 0.11083 0.7509 0.0
N2804 N 0.75965 0.0893 0.74495 0.0
N2805 N 0.78329 0.11143 0.77396 0.0
C2806 C 0.77621 0.09355 0.77775 0.0
C2807 C 0.76353 0.0816 0.76201 0.0
C2808 C 0.09185 0.34907 0.07024 0.0
C2809 C 0.07532 0.3356 0.06167 0.0
C2810 C 0.10235 0.34469 0.08366 0.0
C2811 C 0.09665 0.3267 0.08911 0.0
H2812 H 0.09673 0.36309 0.06645 0.0
H2813 H 0.11509 0.35548 0.08971 0.0
S2814 S 0.0537 0.2866 0.07225 0.0
N2815 N 0.05332 0.30366 0.06035 0.0
N2816 N 0.07296 0.29542 0.08575 0.0
C2817 C 0.08005 0.31312 0.0808 0.0
C2818 C 0.06941 0.31758 0.06705 0.0
C2819 C 0.65324 0.74059 0.06964 0.0
C2820 C 0.66686 0.7375 0.06188 0.0
C2821 C 0.65739 0.75574 0.08253 0.0
C2822 C 0.67529 0.76827 0.08823 0.0
H2823 H 0.63929 0.73125 0.06567 0.0
H2824 H 0.64648 0.75769 0.08801 0.0
S2825 S 0.71569 0.76551 0.07327 0.0
N2826 N 0.69883 0.7477 0.06145 0.0
N2827 N 0.70664 0.7761 0.08589 0.0
C2828 C 0.68902 0.76525 0.08066 0.0
C2829 C 0.6848 0.74987 0.06744 0.0
C2830 C 0.24718 0.93325 0.07357 0.0
C2831 C 0.26165 0.93015 0.07117 0.0
C2832 C 0.23196 0.92154 0.08598 0.0
C2833 C 0.23061 0.90623 0.09624 0.0
H2834 H 0.24782 0.94503 0.06621 0.0
H2835 H 0.22133 0.92471 0.08789 0.0
S2836 S 0.26421 0.89124 0.09277 0.0
N2837 N 0.27339 0.91029 0.0788 0.0
N2838 N 0.24458 0.88792 0.10158 0.0
C2839 C 0.24483 0.90273 0.09333 0.0
C2840 C 0.26039 0.91478 0.08092 0.0
C2841 C 0.31916 0.0689 0.95625 0.0
C2842 C 0.33663 0.07141 0.95716 0.0
C2843 C 0.31549 0.08048 0.94399 0.0
C2844 C 0.32916 0.09507 0.93223 0.0
H2845 H 0.30816 0.05772 0.96481 0.0
H2846 H 0.30185 0.07807 0.94384 0.0
S2847 S 0.37719 0.10756 0.92931 0.0
N2848 N 0.36781 0.08978 0.9456 0.0
N2849 N 0.36081 0.11121 0.922 0.0
C2850 C 0.34669 0.09774 0.93302 0.0
C2851 C 0.35044 0.08599 0.94557 0.0
C2852 C 0.9204 0.25149 0.95832 0.0
C2853 C 0.93724 0.26346 0.94892 0.0
C2854 C 0.90792 0.23582 0.94723 0.0
C2855 C 0.91178 0.23148 0.92627 0.0
H2856 H 0.91671 0.25438 0.97428 0.0
H2857 H 0.89517 0.22699 0.95518 0.0
S2858 S 0.95403 0.25821 0.8945 0.0
N2859 N 0.95733 0.26957 0.91767 0.0
N2860 N 0.93357 0.24058 0.8964 0.0
C2861 C 0.92858 0.24331 0.91669 0.0
C2862 C 0.94135 0.25918 0.92807 0.0
C2863 C 0.74273 0.67971 0.93004 0.0
C2864 C 0.73883 0.67111 0.95072 0.0
C2865 C 0.75839 0.68365 0.91842 0.0
C2866 C 0.77084 0.6792 0.92702 0.0
H2867 H 0.73363 0.68353 0.92278 0.0
H2868 H 0.76063 0.69 0.90241 0.0
S2869 S 0.76719 0.65688 0.9807 0.0
N2870 N 0.74867 0.6581 0.97921 0.0
N2871 N 0.77853 0.6663 0.95788 0.0
C2872 C 0.76725 0.67082 0.94782 0.0
C2873 C 0.75119 0.66663 0.95956 0.0
C2874 C 0.91897 0.65942 0.94165 0.0
C2875 C 0.9342 0.67295 0.95264 0.0
C2876 C 0.90741 0.66343 0.92995 0.0
C2877 C 0.91056 0.68113 0.92879 0.0
H2878 H 0.91594 0.64558 0.94209 0.0
H2879 H 0.89604 0.65257 0.92147 0.0
S2880 S 0.94839 0.72146 0.95494 0.0
N2881 N 0.95191 0.70484 0.96145 0.0
N2882 N 0.92973 0.71224 0.9402 0.0
C2883 C 0.92561 0.69477 0.93991 0.0
C2884 C 0.93749 0.69071 0.95171 0.0
C2885 C 0.34469 0.2629 0.94249 0.0
C2886 C 0.33099 0.26378 0.95417 0.0
C2887 C 0.34123 0.24732 0.93105 0.0
C2888 C 0.32393 0.23198 0.93078 0.0
H2889 H 0.35824 0.27436 0.94224 0.0
H2890 H 0.35218 0.24737 0.92209 0.0
S2891 S 0.28337 0.22724 0.95885 0.0
N2892 N 0.29937 0.24799 0.96458 0.0
N2893 N 0.293 0.21848 0.94363 0.0
C2894 C 0.31011 0.23261 0.94251 0.0
C2895 C 0.31362 0.24852 0.95412 0.0
C2896 C 0.74984 0.08391 0.96155 0.0
C2897 C 0.73529 0.06898 0.95138 0.0
C2898 C 0.76532 0.09563 0.94952 0.0
C2899 C 0.76688 0.09269 0.92697 0.0
H2900 H 0.74918 0.08667 0.97887 0.0
H2901 H 0.77623 0.10697 0.95798 0.0
S2902 S 0.73267 0.05538 0.89274 0.0
N2903 N 0.72354 0.0517 0.91756 0.0
N2904 N 0.75251 0.07385 0.89492 0.0
C2905 C 0.75246 0.07777 0.91665 0.0
C2906 C 0.73669 0.0659 0.92885 0.0
C2907 C 0.67173 0.93138 0.08822 0.0
C2908 C 0.66887 0.92918 0.06529 0.0
C2909 C 0.67561 0.91995 0.10045 0.0
C2910 C 0.67683 0.90591 0.09022 0.0
H2911 H 0.67104 0.94209 0.09679 0.0
H2912 H 0.67775 0.92217 0.11806 0.0
S2913 S 0.66962 0.89384 0.03084 0.0
N2914 N 0.66698 0.91154 0.03294 0.0
N2915 N 0.67434 0.89006 0.05596 0.0
C2916 C 0.67405 0.90356 0.06731 0.0
C2917 C 0.67006 0.91519 0.05484 0.0
C2918 C 0.06787 0.73979 0.08862 0.0
C2919 C 0.07159 0.7392 0.0661 0.0
C2920 C 0.07877 0.75492 0.10157 0.0
C2921 C 0.09377 0.77008 0.09248 0.0
H2922 H 0.05635 0.72848 0.09629 0.0
H2923 H 0.07537 0.7548 0.11882 0.0
S2924 S 0.10989 0.77504 0.0347 0.0
N2925 N 0.09169 0.75488 0.03544 0.0
N2926 N 0.11216 0.78342 0.05981 0.0
C2927 C 0.09767 0.76971 0.07 0.0
C2928 C 0.08658 0.75426 0.0568 0.0
C2929 C 0.2575 0.34556 0.07095 0.0
C2930 C 0.26186 0.33225 0.06569 0.0
C2931 C 0.24236 0.34152 0.08378 0.0
C2932 C 0.23097 0.32401 0.09173 0.0
H2933 H 0.26588 0.35922 0.06512 0.0
H2934 H 0.2395 0.35217 0.08745 0.0
S2935 S 0.23687 0.28455 0.08364 0.0
N2936 N 0.25389 0.30099 0.07016 0.0
N2937 N 0.22526 0.29338 0.09402 0.0
C2938 C 0.23509 0.31056 0.08654 0.0
C2939 C 0.25057 0.31468 0.07358 0.0
C2940 C 0.74477 0.67562 0.4173 0.0
C2941 C 0.73386 0.6643 0.40025 0.0
C2942 C 0.7565 0.67174 0.42888 0.0
C2943 C 0.75746 0.65624 0.42405 0.0
H2944 H 0.74431 0.68762 0.4216 0.0
H2945 H 0.7647 0.68079 0.4419 0.0
S2946 S 0.7316 0.62224 0.38104 0.0
N2947 N 0.72471 0.63699 0.37911 0.0
N2948 N 0.74667 0.62961 0.40104 0.0
C2949 C 0.74659 0.64479 0.4071 0.0
C2950 C 0.73483 0.64886 0.39513 0.0
C2951 C 0.33657 0.08639 0.39108 0.0
C2952 C 0.3367 0.07177 0.40128 0.0
C2953 C 0.34042 0.10188 0.4031 0.0
C2954 C 0.34449 0.10324 0.42573 0.0
H2955 H 0.33311 0.0857 0.37379 0.0
H2956 H 0.33982 0.11269 0.39476 0.0
S2957 S 0.3486 0.06964 0.45957 0.0
N2958 N 0.3427 0.06029 0.4349 0.0
N2959 N 0.34974 0.08933 0.45749 0.0
C2960 C 0.34516 0.08895 0.43597 0.0
C2961 C 0.34131 0.07324 0.42375 0.0
C2962 C 0.92538 0.26958 0.42094 0.0
C2963 C 0.92788 0.26612 0.39887 0.0
C2964 C 0.91001 0.25753 0.43282 0.0
C2965 C 0.89645 0.24169 0.42299 0.0
H2966 H 0.93537 0.28173 0.42914 0.0
H2967 H 0.9087 0.26062 0.44983 0.0
S2968 S 0.89658 0.22583 0.36615 0.0
N2969 N 0.91564 0.24521 0.368 0.0
N2970 N 0.88648 0.22286 0.39025 0.0
C2971 C 0.8986 0.23808 0.40096 0.0
C2972 C 0.91437 0.25023 0.3889 0.0
C2973 C 0.00453 0.42036 0.29224 0.0
C2974 C 0.00383 0.40505 0.2828 0.0
C2975 C 0.00144 0.4321 0.27947 0.0
C2976 C 0.9976 0.42898 0.25682 0.0
H2977 H 0.00777 0.42343 0.30955 0.0
H2978 H 0.00235 0.44388 0.28728 0.0
S2979 S 0.99242 0.38993 0.22468 0.0
N2980 N 0.99768 0.38671 0.24978 0.0
N2981 N 0.99214 0.40897 0.22576 0.0
C2982 C 0.99651 0.41356 0.24727 0.0
C2983 C 0.99955 0.40156 0.26027 0.0
C2984 C 0.5986 0.59641 0.26547 0.0
C2985 C 0.59538 0.59729 0.2881 0.0
C2986 C 0.58735 0.58115 0.2529 0.0
C2987 C 0.57251 0.56614 0.2625 0.0
H2988 H 0.61003 0.60755 0.25744 0.0
H2989 H 0.59037 0.58101 0.23556 0.0
S2990 S 0.55754 0.562 0.3207 0.0
N2991 N 0.57579 0.5821 0.31935 0.0
N2992 N 0.55474 0.55329 0.29571 0.0
C2993 C 0.56907 0.56682 0.28506 0.0
C2994 C 0.58048 0.58242 0.29786 0.0
C2995 C 0.40078 0.98681 0.27052 0.0
C2996 C 0.40205 0.99879 0.28721 0.0
C2997 C 0.416 0.98983 0.25851 0.0
C2998 C 0.43291 0.0051 0.26252 0.0
H2999 H 0.38795 0.97498 0.26683 0.0
H3000 H 0.4145 0.98029 0.24579 0.0
S3001 S 0.4433 0.04055 0.3043 0.0
N3002 N 0.42149 0.02644 0.30713 0.0
N3003 N 0.4501 0.03221 0.28437 0.0
C3004 C 0.43434 0.01719 0.2791 0.0
C3005 C 0.41891 0.01399 0.29152 0.0
C3006 C 0.59691 -0.0 0.26824 0.0
C3007 C 0.59531 0.99803 0.29131 0.0
C3008 C 0.58533 0.00371 0.25605 0.0
C3009 C 0.57159 0.00532 0.26648 0.0
H3010 H 0.60723 0.99869 0.25956 0.0
H3011 H 0.58692 0.00497 0.23829 0.0
S3012 S 0.56191 0.00158 0.32649 0.0
N3013 N 0.57913 0.9982 0.32414 0.0
N3014 N 0.55724 0.00506 0.30119 0.0
C3015 C 0.56992 0.0035 0.28954 0.0
C3016 C 0.58184 -7e-05 0.30198 0.0
C3017 C 0.01631 0.59234 0.28193 0.0
C3018 C 0.00245 0.59611 0.28627 0.0
C3019 C 0.01329 0.57766 0.26875 0.0
C3020 C 0.99628 0.56616 0.25952 0.0
H3021 H 0.02959 0.60076 0.28885 0.0
H3022 H 0.02432 0.57521 0.26586 0.0
S3023 S 0.95582 0.57076 0.26453 0.0
N3024 N 0.97129 0.58759 0.27929 0.0
N3025 N 0.9656 0.55983 0.25485 0.0
C3026 C 0.98232 0.56976 0.26365 0.0
C3027 C 0.9854 0.58477 0.27694 0.0
C3028 C 0.41989 0.41662 0.29356 0.0
C3029 C 0.40483 0.40222 0.28333 0.0
C3030 C 0.43526 0.42828 0.28134 0.0
C3031 C 0.4361 0.42596 0.25847 0.0
H3032 H 0.41963 0.41911 0.31105 0.0
H3033 H 0.44642 0.43943 0.28974 0.0
S3034 S 0.40116 0.3892 0.22432 0.0
N3035 N 0.39234 0.38547 0.24932 0.0
N3036 N 0.42117 0.40748 0.22638 0.0
C3037 C 0.42136 0.41135 0.24817 0.0
C3038 C 0.40575 0.39946 0.26059 0.0
C3039 C 0.3507 0.26775 0.40424 0.0
C3040 C 0.33294 0.26269 0.39837 0.0
C3041 C 0.35444 0.25624 0.41655 0.0
C3042 C 0.34056 0.23925 0.42343 0.0
H3043 H 0.36174 0.28089 0.39975 0.0
H3044 H 0.36825 0.26083 0.42114 0.0
S3045 S 0.29206 0.21888 0.41027 0.0
N3046 N 0.30153 0.23907 0.39897 0.0
N3047 N 0.30855 0.21739 0.42205 0.0
C3048 C 0.32282 0.23383 0.41713 0.0
C3049 C 0.31901 0.24555 0.40462 0.0
C3050 C 0.75298 0.07447 0.39976 0.0
C3051 C 0.73498 0.06988 0.39636 0.0
C3052 C 0.76485 0.08989 0.41171 0.0
C3053 C 0.75918 0.10133 0.42066 0.0
H3054 H 0.75791 0.066 0.39323 0.0
H3055 H 0.77856 0.09285 0.41405 0.0
S3056 S 0.71332 0.09503 0.41721 0.0
N3057 N 0.71197 0.07782 0.40339 0.0
N3058 N 0.73437 0.10691 0.4257 0.0
C3059 C 0.74131 0.09705 0.41719 0.0
C3060 C 0.72919 0.0813 0.40508 0.0
C3061 C 0.92721 0.67291 0.41394 0.0
C3062 C 0.92701 0.66054 0.39856 0.0
C3063 C 0.91157 0.66946 0.42521 0.0
C3064 C 0.8952 0.65341 0.4217 0.0
H3065 H 0.93959 0.68537 0.41729 0.0
H3066 H 0.91235 0.67927 0.43708 0.0
S3067 S 0.88748 0.61678 0.38294 0.0
N3068 N 0.90909 0.63172 0.38022 0.0
N3069 N 0.87959 0.62523 0.40141 0.0
C3070 C 0.89477 0.64099 0.40624 0.0
C3071 C 0.91068 0.64458 0.39461 0.0
C3072 C 0.40005 0.99356 0.75467 0.0
C3073 C 0.406 0.00363 0.73501 0.0
C3074 C 0.41165 0.99027 0.76744 0.0
C3075 C 0.42951 0.99671 0.76086 0.0
H3076 H 0.38626 0.98798 0.76013 0.0
H3077 H 0.40656 0.98244 0.78243 0.0
S3078 S 0.4522 0.02461 0.7118 0.0
N3079 N 0.43141 0.02087 0.7104 0.0
N3080 N 0.45293 0.01401 0.73411 0.0
C3081 C 0.43572 0.00681 0.74141 0.0
C3082 C 0.42402 0.01042 0.72853 0.0
C3083 C 0.99879 0.41559 0.72364 0.0
C3084 C 0.00049 0.40179 0.73372 0.0
C3085 C 0.00203 0.43096 0.7355 0.0
C3086 C 0.00701 0.43301 0.75786 0.0
H3087 H 0.99462 0.41436 0.70657 0.0
H3088 H 0.0003 0.44114 0.72724 0.0
S3089 S 0.01511 0.40174 0.79128 0.0
N3090 N 0.00886 0.39188 0.76691 0.0
N3091 N 0.01463 0.42064 0.78925 0.0
C3092 C 0.00914 0.41954 0.76801 0.0
C3093 C 0.00596 0.40396 0.75592 0.0
C3094 C 0.58394 0.59986 0.73343 0.0
C3095 C 0.5997 0.59881 0.73525 0.0
C3096 C 0.56828 0.588 0.74503 0.0
C3097 C 0.56777 0.57454 0.75868 0.0
H3098 H 0.58379 0.61009 0.72319 0.0
H3099 H 0.55643 0.58924 0.74312 0.0
S3100 S 0.60537 0.56604 0.76894 0.0
N3101 N 0.61374 0.58309 0.75151 0.0
N3102 N 0.58441 0.56098 0.77358 0.0
C3103 C 0.58341 0.57332 0.7606 0.0
C3104 C 0.59935 0.58542 0.74885 0.0
C3105 C 0.66666 0.74934 0.62872 0.0
C3106 C 0.66783 0.73552 0.61778 0.0
C3107 C 0.66253 0.76091 0.61716 0.0
C3108 C 0.65913 0.75884 0.59434 0.0
H3109 H 0.66917 0.75135 0.6463 0.0
H3110 H 0.66184 0.77145 0.62615 0.0
S3111 S 0.66018 0.72455 0.55815 0.0
N3112 N 0.66504 0.72027 0.58294 0.0
N3113 N 0.65723 0.74198 0.56122 0.0
C3114 C 0.66011 0.74499 0.58325 0.0
C3115 C 0.66449 0.73335 0.59497 0.0
C3116 C 0.26084 0.93151 0.60259 0.0
C3117 C 0.26256 0.9306 0.62552 0.0
C3118 C 0.24898 0.91623 0.59043 0.0
C3119 C 0.23824 0.89948 0.60077 0.0
H3120 H 0.26895 0.94409 0.59393 0.0
H3121 H 0.24838 0.91753 0.57272 0.0
S3122 S 0.23694 0.89043 0.66082 0.0
N3123 N 0.25229 0.91192 0.65831 0.0
N3124 N 0.22953 0.88321 0.6356 0.0
C3125 C 0.23969 0.89848 0.6238 0.0
C3126 C 0.25195 0.91404 0.63614 0.0
C3127 C 0.0845 0.34931 0.61633 0.0
C3128 C 0.06967 0.33181 0.61801 0.0
C3129 C 0.09965 0.35279 0.60381 0.0
C3130 C 0.10056 0.33885 0.59272 0.0
H3131 H 0.0842 0.36044 0.62434 0.0
H3132 H 0.11057 0.36657 0.60248 0.0
S3133 S 0.06576 0.29035 0.594 0.0
N3134 N 0.05702 0.30028 0.60871 0.0
N3135 N 0.0857 0.30659 0.5858 0.0
C3136 C 0.08595 0.32117 0.59489 0.0
C3137 C 0.07046 0.31771 0.60739 0.0
C3138 C 0.24434 0.319 0.61363 0.0
C3139 C 0.26107 0.33277 0.6214 0.0
C3140 C 0.23319 0.32294 0.60088 0.0
C3141 C 0.23834 0.34079 0.59542 0.0
H3142 H 0.23984 0.30507 0.61746 0.0
H3143 H 0.22039 0.31193 0.59532 0.0
S3144 S 0.28128 0.38161 0.61048 0.0
N3145 N 0.28256 0.36489 0.62196 0.0
N3146 N 0.26155 0.37229 0.59802 0.0
C3147 C 0.25503 0.35468 0.60304 0.0
C3148 C 0.2664 0.35067 0.61602 0.0
C3149 C 0.64967 0.91305 0.62546 0.0
C3150 C 0.6653 0.92968 0.62148 0.0
C3151 C 0.6461 0.89766 0.6134 0.0
C3152 C 0.65819 0.89835 0.59722 0.0
H3153 H 0.63998 0.91201 0.63768 0.0
H3154 H 0.63386 0.8851 0.61685 0.0
S3155 S 0.70119 0.93859 0.58093 0.0
N3156 N 0.69307 0.9459 0.60053 0.0
N3157 N 0.68639 0.91697 0.57789 0.0
C3158 C 0.67396 0.91485 0.59329 0.0
C3159 C 0.6775 0.93053 0.6054 0.0
C3160 C 0.07098 0.73208 0.59567 0.0
C3161 C 0.07033 0.7328 0.61882 0.0
C3162 C 0.08653 0.744 0.58396 0.0
C3163 C 0.10201 0.75715 0.59493 0.0
H3164 H 0.05934 0.72224 0.58652 0.0
H3165 H 0.08639 0.74294 0.56613 0.0
S3166 S 0.10697 0.76501 0.6554 0.0
N3167 N 0.08636 0.74781 0.65232 0.0
N3168 N 0.11557 0.77041 0.63031 0.0
C3169 C 0.10159 0.75792 0.61811 0.0
C3170 C 0.08576 0.7457 0.63005 0.0
C3171 C 0.01357 0.59858 0.7338 0.0
C3172 C 0.99608 0.59303 0.72619 0.0
C3173 C 0.01718 0.58704 0.74628 0.0
C3174 C 0.00341 0.56958 0.7517 0.0
H3175 H 0.02447 0.61212 0.73059 0.0
H3176 H 0.03074 0.59198 0.75222 0.0
S3177 S 0.95581 0.54783 0.73375 0.0
N3178 N 0.96519 0.56835 0.72345 0.0
N3179 N 0.97196 0.54679 0.74717 0.0
C3180 C 0.986 0.56367 0.74367 0.0
C3181 C 0.98234 0.57536 0.73086 0.0
C3182 C 0.39741 0.40661 0.7536 0.0
C3183 C 0.40085 0.40329 0.7319 0.0
C3184 C 0.40946 0.42242 0.76475 0.0
C3185 C 0.42546 0.43554 0.75466 0.0
H3186 H 0.38525 0.39692 0.76206 0.0
H3187 H 0.40635 0.42424 0.78157 0.0
S3188 S 0.44064 0.43356 0.69788 0.0
N3189 N 0.42144 0.41446 0.7007 0.0
N3190 N 0.44384 0.44446 0.72142 0.0
C3191 C 0.42898 0.43252 0.73285 0.0
C3192 C 0.41672 0.41637 0.72152 0.0
C3193 C 0.5961 0.99888 0.76029 0.0
C3194 C 0.59736 0.00261 0.73755 0.0
C3195 C 0.58084 0.99551 0.77243 0.0
C3196 C 0.56626 0.99573 0.76228 0.0
H3197 H 0.60692 0.99834 0.76872 0.0
H3198 H 0.58034 0.99248 0.78984 0.0
S3199 S 0.56349 0.00616 0.70356 0.0
N3200 N 0.58314 0.00721 0.70559 0.0
N3201 N 0.55442 0.00089 0.72842 0.0
C3202 C 0.56743 0.99966 0.73961 0.0
C3203 C 0.58298 0.00309 0.72725 0.0
loop_
_geom_bond_atom_site_label_1
_geom_bond_atom_site_label_2
_geom_bond_distance
_geom_bond_site_symmetry_2
_ccdc_geom_bond_type
Li0 N17 1.990 1_554 S
Li0 O60 1.956 . S
Li0 O61 1.970 1_654 S
Li0 O62 1.964 . S
Li1 N25 1.990 . S
Li1 O60 1.970 1_455 S
Li1 O61 1.956 1_554 S
Li1 O63 1.961 . S
Li2 N47 1.990 . S
Li2 O60 1.961 . S
Li2 O62 1.985 . S
Li2 O63 1.970 1_655 S
Li3 N53 1.990 . S
Li3 O61 1.961 . S
Li3 O62 1.959 1_456 S
Li3 O63 1.956 1_556 S
C4 C6 1.388 . S
C4 C7 1.356 . S
C4 O60 1.325 . S
N5 C8 1.314 . S
N5 C9 1.279 . S
C6 C4 1.388 . S
C6 C8 1.355 . S
C6 H64 0.889 1_655 S
C7 C4 1.356 . S
C7 C9 1.358 . S
C7 H65 0.930 . S
C8 N5 1.314 . S
C8 C6 1.355 . S
C8 H66 0.929 . S
C9 N5 1.279 . S
C9 C7 1.358 . S
C9 H67 0.930 . S
C10 C13 1.348 . S
C10 C14 1.356 . S
C10 O61 1.325 . S
C11 N12 1.279 . S
C11 C14 1.358 . S
C11 H68 0.930 . S
N12 C11 1.279 . S
N12 C15 1.314 . S
C13 C10 1.348 . S
C13 C15 1.353 . S
C13 H69 0.929 1_455 S
C14 C10 1.356 . S
C14 C11 1.358 . S
C14 H70 0.930 . S
C15 N12 1.314 . S
C15 C13 1.353 . S
C15 H71 0.930 . S
C16 N17 1.314 . S
C16 C21 1.353 . S
C16 H22 0.930 . S
N17 Li0 1.990 1_556 S
N17 C16 1.314 . S
N17 C19 1.279 1_556 S
C18 C19 1.353 1_556 S
C18 C20 1.374 . S
C18 H72 0.917 1_556 S
C19 N17 1.279 1_554 S
C19 C18 1.353 1_554 S
C19 H23 0.930 . S
C20 C18 1.374 . S
C20 C21 1.348 . S
C21 C16 1.353 . S
C21 C20 1.348 . S
C21 H73 0.929 . S
H22 C16 0.930 . S
H23 C19 0.930 . S
C24 N25 1.314 . S
C24 C26 1.353 . S
C24 H30 0.930 . S
N25 Li1 1.990 . S
N25 C24 1.314 . S
N25 C28 1.279 . S
C26 C24 1.353 . S
C26 C29 1.348 . S
C26 H74 0.929 . S
C27 C28 1.358 . S
C27 C29 1.356 . S
C27 H75 0.930 . S
C28 N25 1.279 . S
C28 C27 1.358 . S
C28 H31 0.944 . S
C29 C26 1.348 . S
C29 C27 1.356 . S
H30 C24 0.930 . S
H31 C28 0.944 . S
C32 C34 1.348 . S
C32 C35 1.356 1_556 S
C32 O62 1.318 1_556 S
N33 C36 1.314 . S
N33 C37 1.279 . S
C34 C32 1.348 . S
C34 C36 1.353 . S
C34 H76 0.929 . S
C35 C32 1.356 1_554 S
C35 C37 1.358 1_554 S
C35 H77 0.930 . S
C36 N33 1.314 . S
C36 C34 1.353 . S
C36 H78 0.930 . S
C37 N33 1.279 . S
C37 C35 1.358 1_556 S
C37 H79 0.930 1_556 S
C38 C39 1.348 . S
C38 C40 1.356 . S
C38 O63 1.325 . S
C39 C38 1.348 . S
C39 C41 1.353 . S
C39 H80 0.929 . S
C40 C38 1.356 . S
C40 C42 1.358 . S
C40 H81 0.930 . S
C41 C39 1.353 . S
C41 N43 1.314 . S
C41 H82 0.930 . S
C42 C40 1.358 . S
C42 N43 1.279 . S
C42 H83 0.930 . S
N43 C41 1.314 . S
N43 C42 1.279 . S
C44 C46 1.353 . S
C44 N47 1.314 . S
C44 H50 0.930 . S
C45 N47 1.279 . S
C45 C48 1.358 . S
C45 H51 0.930 . S
C46 C44 1.353 . S
C46 C49 1.348 . S
C46 H84 0.929 . S
N47 Li2 1.990 . S
N47 C44 1.314 . S
N47 C45 1.279 . S
C48 C45 1.358 . S
C48 C49 1.356 . S
C48 H85 0.930 . S
C49 C46 1.348 . S
C49 C48 1.356 . S
H50 C44 0.930 . S
H51 C45 0.930 . S
C52 N53 1.314 . S
C52 C54 1.353 . S
C52 H58 0.930 . S
N53 Li3 1.990 . S
N53 C52 1.314 . S
N53 C56 1.279 . S
C54 C52 1.353 . S
C54 C57 1.348 . S
C54 H86 0.929 . S
C55 C56 1.358 . S
C55 C57 1.356 . S
C55 H87 0.930 . S
C56 N53 1.279 . S
C56 C55 1.358 . S
C56 H59 0.930 . S
C57 C54 1.348 . S
C57 C55 1.356 . S
H58 C52 0.930 . S
H59 C56 0.930 . S
O60 Li0 1.956 . S
O60 Li1 1.970 1_655 S
O60 Li2 1.961 . S
O60 C4 1.325 . S
O61 Li0 1.970 1_456 S
O61 Li1 1.956 1_556 S
O61 Li3 1.961 . S
O61 C10 1.325 . S
O62 Li0 1.964 . S
O62 Li2 1.985 . S
O62 Li3 1.959 1_654 S
O62 C32 1.318 1_554 S
O63 Li1 1.961 . S
O63 Li2 1.970 1_455 S
O63 Li3 1.956 1_554 S
O63 C38 1.325 . S
H64 C6 0.889 1_455 S
H65 C7 0.930 . S
H66 C8 0.929 . S
H67 C9 0.930 . S
H68 C11 0.930 . S
H69 C13 0.929 1_655 S
H70 C14 0.930 . S
H71 C15 0.930 . S
H72 C18 0.917 1_554 S
H73 C21 0.929 . S
H74 C26 0.929 . S
H75 C27 0.930 . S
H76 C34 0.929 . S
H77 C35 0.930 . S
H78 C36 0.930 . S
H79 C37 0.930 1_554 S
H80 C39 0.929 . S
H81 C40 0.930 . S
H82 C41 0.930 . S
H83 C42 0.930 . S
H84 C46 0.929 . S
H85 C48 0.930 . S
H86 C54 0.929 . S
H87 C55 0.930 . S
Li88 N105 1.981 1_554 S
Li88 O148 1.985 . S
Li88 O149 1.959 1_554 S
Li88 O150 1.959 1_554 S
Li89 N113 1.990 . S
Li89 O148 1.970 . S
Li89 O149 1.956 1_554 S
Li89 O151 1.961 . S
Li90 N135 1.990 . S
Li90 O148 1.961 . S
Li90 O150 1.956 1_554 S
Li90 O151 1.970 . S
Li91 N141 1.990 . S
Li91 O149 1.961 . S
Li91 O150 1.970 . S
Li91 O151 1.956 1_556 S
C92 C94 1.348 . S
C92 C95 1.356 . S
C92 O148 1.325 . S
N93 C96 1.314 . S
N93 C97 1.279 . S
C94 C92 1.348 . S
C94 C96 1.353 . S
C94 H152 0.929 . S
C95 C92 1.356 . S
C95 C97 1.358 . S
C95 H153 0.930 . S
C96 N93 1.314 . S
C96 C94 1.353 . S
C96 H154 0.930 . S
C97 N93 1.279 . S
C97 C95 1.358 . S
C97 H155 0.930 . S
C98 C101 1.348 . S
C98 C102 1.356 . S
C98 O149 1.325 . S
C99 N100 1.279 . S
C99 C102 1.358 . S
C99 H156 0.930 . S
N100 C99 1.279 . S
N100 C103 1.314 . S
C101 C98 1.348 . S
C101 C103 1.353 . S
C101 H157 0.929 . S
C102 C98 1.356 . S
C102 C99 1.358 . S
C102 H158 0.930 . S
C103 N100 1.314 . S
C103 C101 1.353 . S
C103 H159 0.930 . S
C104 N105 1.314 . S
C104 C109 1.353 . S
C104 H110 0.930 . S
N105 Li88 1.981 1_556 S
N105 C104 1.314 . S
N105 C107 1.297 . S
C106 C107 1.373 . S
C106 C108 1.356 . S
C106 H160 0.939 . S
C107 N105 1.297 . S
C107 C106 1.373 . S
C107 H111 0.896 1_556 S
C108 C106 1.356 . S
C108 C109 1.348 . S
C109 C104 1.353 . S
C109 C108 1.348 . S
C109 H161 0.929 . S
H110 C104 0.930 . S
H111 C107 0.896 1_554 S
C112 N113 1.314 . S
C112 C114 1.353 . S
C112 H118 0.930 . S
N113 Li89 1.990 . S
N113 C112 1.314 . S
N113 C116 1.279 . S
C114 C112 1.353 . S
C114 C117 1.348 . S
C114 H162 0.929 . S
C115 C116 1.358 . S
C115 C117 1.356 . S
C115 H163 0.930 . S
C116 N113 1.279 . S
C116 C115 1.358 . S
C116 H119 0.930 . S
C117 C114 1.348 . S
C117 C115 1.356 . S
H118 C112 0.930 . S
H119 C116 0.930 . S
C120 C122 1.348 . S
C120 C123 1.356 . S
C120 O150 1.325 . S
N121 C124 1.314 . S
N121 C125 1.279 . S
C122 C120 1.348 . S
C122 C124 1.353 . S
C122 H164 0.929 . S
C123 C120 1.356 . S
C123 C125 1.358 . S
C123 H165 0.930 1_556 S
C124 N121 1.314 . S
C124 C122 1.353 . S
C124 H166 0.930 . S
C125 N121 1.279 . S
C125 C123 1.358 . S
C125 H167 0.930 . S
C126 C127 1.348 . S
C126 C128 1.356 . S
C126 O151 1.325 . S
C127 C126 1.348 . S
C127 C129 1.353 . S
C127 H168 0.929 . S
C128 C126 1.356 . S
C128 C130 1.358 . S
C128 H169 0.930 . S
C129 C127 1.353 . S
C129 N131 1.314 . S
C129 H170 0.930 . S
C130 C128 1.358 . S
C130 N131 1.279 . S
C130 H171 0.930 . S
N131 C129 1.314 . S
N131 C130 1.279 . S
C132 C134 1.353 . S
C132 N135 1.314 . S
C132 H138 0.930 . S
C133 N135 1.279 . S
C133 C136 1.358 . S
C133 H139 0.930 . S
C134 C132 1.353 . S
C134 C137 1.348 . S
C134 H172 0.929 . S
N135 Li90 1.990 . S
N135 C132 1.314 . S
N135 C133 1.279 . S
C136 C133 1.358 . S
C136 C137 1.356 . S
C136 H173 0.930 . S
C137 C134 1.348 . S
C137 C136 1.356 . S
H138 C132 0.930 . S
H139 C133 0.930 . S
C140 N141 1.314 . S
C140 C142 1.353 . S
C140 H146 0.930 . S
N141 Li91 1.990 . S
N141 C140 1.314 . S
N141 C144 1.279 . S
C142 C140 1.353 . S
C142 C145 1.348 . S
C142 H174 0.929 . S
C143 C144 1.358 . S
C143 C145 1.356 . S
C143 H175 0.930 . S
C144 N141 1.279 . S
C144 C143 1.358 . S
C144 H147 0.930 . S
C145 C142 1.348 . S
C145 C143 1.356 . S
H146 C140 0.930 . S
H147 C144 0.930 . S
O148 Li88 1.985 . S
O148 Li89 1.970 . S
O148 Li90 1.961 . S
O148 C92 1.325 . S
O149 Li88 1.959 1_556 S
O149 Li89 1.956 1_556 S
O149 Li91 1.961 . S
O149 C98 1.325 . S
O150 Li88 1.959 1_556 S
O150 Li90 1.956 1_556 S
O150 Li91 1.970 . S
O150 C120 1.325 . S
O151 Li89 1.961 . S
O151 Li90 1.970 . S
O151 Li91 1.956 1_554 S
O151 C126 1.325 . S
H152 C94 0.929 . S
H153 C95 0.930 . S
H154 C96 0.930 . S
H155 C97 0.930 . S
H156 C99 0.930 . S
H157 C101 0.929 . S
H158 C102 0.930 . S
H159 C103 0.930 . S
H160 C106 0.939 . S
H161 C109 0.929 . S
H162 C114 0.929 . S
H163 C115 0.930 . S
H164 C122 0.929 . S
H165 C123 0.930 1_554 S
H166 C124 0.930 . S
H167 C125 0.930 . S
H168 C127 0.929 . S
H169 C128 0.930 . S
H170 C129 0.930 . S
H171 C130 0.930 . S
H172 C134 0.929 . S
H173 C136 0.930 . S
H174 C142 0.929 . S
H175 C143 0.930 . S
Li176 N193 1.990 . S
Li176 O236 1.956 1_556 S
Li176 O237 1.958 1_566 S
Li176 O238 1.961 . S
Li177 N201 1.990 . S
Li177 O236 1.970 1_545 S
Li177 O237 1.989 . S
Li177 O239 1.961 . S
Li178 N223 1.990 . S
Li178 O236 1.961 . S
Li178 O238 1.956 1_554 S
Li178 O239 1.970 1_565 S
Li179 N229 1.990 1_554 S
Li179 O237 1.964 . S
Li179 O238 1.970 1_544 S
Li179 O239 1.956 . S
C180 C182 1.348 . S
C180 C183 1.356 . S
C180 O236 1.325 . S
N181 C184 1.314 . S
N181 C185 1.279 . S
C182 C180 1.348 . S
C182 C184 1.353 . S
C182 H240 0.929 . S
C183 C180 1.356 . S
C183 C185 1.358 . S
C183 H241 0.930 . S
C184 N181 1.314 . S
C184 C182 1.353 . S
C184 H242 0.930 . S
C185 N181 1.279 . S
C185 C183 1.358 . S
C185 H243 0.930 . S
C186 C189 1.348 . S
C186 C190 1.356 1_556 S
C186 O237 1.317 1_556 S
C187 N188 1.279 . S
C187 C190 1.358 1_556 S
C187 H244 0.930 1_556 S
N188 C187 1.279 . S
N188 C191 1.314 . S
C189 C186 1.348 . S
C189 C191 1.353 . S
C189 H245 0.929 . S
C190 C186 1.356 1_554 S
C190 C187 1.358 1_554 S
C190 H246 0.930 . S
C191 N188 1.314 . S
C191 C189 1.353 . S
C191 H247 0.930 . S
C192 N193 1.314 . S
C192 C197 1.353 . S
C192 H198 0.930 . S
N193 Li176 1.990 . S
N193 C192 1.314 . S
N193 C195 1.279 . S
C194 C195 1.358 . S
C194 C196 1.356 . S
C194 H248 0.930 . S
C195 N193 1.279 . S
C195 C194 1.358 . S
C195 H199 0.930 . S
C196 C194 1.356 . S
C196 C197 1.348 . S
C197 C192 1.353 . S
C197 C196 1.348 . S
C197 H249 0.929 . S
H198 C192 0.930 . S
H199 C195 0.930 . S
C200 N201 1.314 . S
C200 C202 1.353 . S
C200 H206 0.930 . S
N201 Li177 1.990 . S
N201 C200 1.314 . S
N201 C204 1.279 . S
C202 C200 1.353 . S
C202 C205 1.348 . S
C202 H250 0.929 . S
C203 C204 1.358 . S
C203 C205 1.356 . S
C203 H251 0.930 . S
C204 N201 1.279 . S
C204 C203 1.358 . S
C204 H207 0.930 . S
C205 C202 1.348 . S
C205 C203 1.356 . S
H206 C200 0.930 . S
H207 C204 0.930 . S
C208 C210 1.388 . S
C208 C211 1.356 . S
C208 O238 1.325 . S
N209 C212 1.314 . S
N209 C213 1.279 . S
C210 C208 1.388 . S
C210 C212 1.355 . S
C210 H252 0.889 1_565 S
C211 C208 1.356 . S
C211 C213 1.358 . S
C211 H253 0.930 . S
C212 N209 1.314 . S
C212 C210 1.355 . S
C212 H254 0.929 . S
C213 N209 1.279 . S
C213 C211 1.358 . S
C213 H255 0.930 . S
C214 C215 1.348 . S
C214 C216 1.356 . S
C214 O239 1.325 . S
C215 C214 1.348 . S
C215 C217 1.353 . S
C215 H256 0.929 1_545 S
C216 C214 1.356 . S
C216 C218 1.358 . S
C216 H257 0.930 . S
C217 C215 1.353 . S
C217 N219 1.314 . S
C217 H258 0.930 . S
C218 C216 1.358 . S
C218 N219 1.279 . S
C218 H259 0.930 . S
N219 C217 1.314 . S
N219 C218 1.279 . S
C220 C222 1.353 . S
C220 N223 1.314 . S
C220 H226 0.930 . S
C221 N223 1.279 . S
C221 C224 1.358 . S
C221 H227 0.945 . S
C222 C220 1.353 . S
C222 C225 1.348 . S
C222 H260 0.929 . S
N223 Li178 1.990 . S
N223 C220 1.314 . S
N223 C221 1.279 . S
C224 C221 1.358 . S
C224 C225 1.356 . S
C224 H261 0.930 . S
C225 C222 1.348 . S
C225 C224 1.356 . S
H226 C220 0.930 . S
H227 C221 0.945 . S
C228 N229 1.314 . S
C228 C230 1.353 . S
C228 H234 0.930 . S
N229 Li179 1.990 1_556 S
N229 C228 1.314 . S
N229 C232 1.279 1_556 S
C230 C228 1.353 . S
C230 C233 1.348 . S
C230 H262 0.929 . S
C231 C232 1.353 1_556 S
C231 C233 1.374 . S
C231 H263 0.918 1_556 S
C232 N229 1.279 1_554 S
C232 C231 1.353 1_554 S
C232 H235 0.930 . S
C233 C230 1.348 . S
C233 C231 1.374 . S
H234 C228 0.930 . S
H235 C232 0.930 . S
O236 Li176 1.956 1_554 S
O236 Li177 1.970 1_565 S
O236 Li178 1.961 . S
O236 C180 1.325 . S
O237 Li176 1.958 1_544 S
O237 Li177 1.989 . S
O237 Li179 1.964 . S
O237 C186 1.317 1_554 S
O238 Li176 1.961 . S
O238 Li178 1.956 1_556 S
O238 Li179 1.970 1_566 S
O238 C208 1.325 . S
O239 Li177 1.961 . S
O239 Li178 1.970 1_545 S
O239 Li179 1.956 . S
O239 C214 1.325 . S
H240 C182 0.929 . S
H241 C183 0.930 . S
H242 C184 0.930 . S
H243 C185 0.930 . S
H244 C187 0.930 1_554 S
H245 C189 0.929 . S
H246 C190 0.930 . S
H247 C191 0.930 . S
H248 C194 0.930 . S
H249 C197 0.929 . S
H250 C202 0.929 . S
H251 C203 0.930 . S
H252 C210 0.889 1_545 S
H253 C211 0.930 . S
H254 C212 0.929 . S
H255 C213 0.930 . S
H256 C215 0.929 1_565 S
H257 C216 0.930 . S
H258 C217 0.930 . S
H259 C218 0.930 . S
H260 C222 0.929 . S
H261 C224 0.930 . S
H262 C230 0.929 . S
H263 C231 0.918 1_554 S
Li264 N281 1.990 . S
Li264 O324 1.956 . S
Li264 O325 1.970 1_455 S
Li264 O326 1.961 1_554 S
Li265 N289 1.990 . S
Li265 O324 1.970 1_655 S
Li265 O325 1.956 . S
Li265 O327 1.961 . S
Li266 N311 1.990 . S
Li266 O324 1.961 1_556 S
Li266 O326 1.956 . S
Li266 O327 1.970 1_456 S
Li267 N317 1.990 1_554 S
Li267 O325 1.961 . S
Li267 O326 1.970 1_654 S
Li267 O327 1.956 . S
C268 C270 1.348 . S
C268 C271 1.356 . S
C268 O324 1.325 . S
N269 C272 1.314 . S
N269 C273 1.279 . S
C270 C268 1.348 . S
C270 C272 1.353 . S
C270 H328 0.929 . S
C271 C268 1.356 . S
C271 C273 1.358 . S
C271 H329 0.930 1_554 S
C272 N269 1.314 . S
C272 C270 1.353 . S
C272 H330 0.930 . S
C273 N269 1.279 . S
C273 C271 1.358 . S
C273 H331 0.930 . S
C274 C277 1.341 1_655 S
C274 C278 1.356 . S
C274 O325 1.325 . S
C275 N276 1.279 . S
C275 C278 1.358 . S
C275 H332 0.930 . S
N276 C275 1.279 . S
N276 C279 1.314 . S
C277 C274 1.341 1_455 S
C277 C279 1.342 1_455 S
C277 H333 0.947 . S
C278 C274 1.356 . S
C278 C275 1.358 . S
C278 H334 0.930 . S
C279 N276 1.314 . S
C279 C277 1.342 1_655 S
C279 H335 0.930 1_655 S
C280 N281 1.314 . S
C280 C285 1.353 . S
C280 H286 0.930 . S
N281 Li264 1.990 . S
N281 C280 1.314 . S
N281 C283 1.279 . S
C282 C283 1.358 . S
C282 C284 1.356 . S
C282 H336 0.930 . S
C283 N281 1.279 . S
C283 C282 1.358 . S
C283 H287 0.930 . S
C284 C282 1.356 . S
C284 C285 1.348 . S
C285 C280 1.353 . S
C285 C284 1.348 . S
C285 H337 0.929 . S
H286 C280 0.930 . S
H287 C283 0.930 . S
C288 N289 1.314 . S
C288 C290 1.353 . S
C288 H294 0.930 . S
N289 Li265 1.990 . S
N289 C288 1.314 . S
N289 C292 1.279 . S
C290 C288 1.353 . S
C290 C293 1.348 . S
C290 H338 0.929 . S
C291 C292 1.358 . S
C291 C293 1.356 . S
C291 H339 0.930 . S
C292 N289 1.279 . S
C292 C291 1.358 . S
C292 H295 0.930 . S
C293 C290 1.348 . S
C293 C291 1.356 . S
H294 C288 0.930 . S
H295 C292 0.930 . S
C296 C298 1.328 1_455 S
C296 C299 1.356 . S
C296 O326 1.325 . S
N297 C300 1.314 . S
N297 C301 1.279 . S
C298 C296 1.328 1_655 S
C298 C300 1.353 1_655 S
C298 H340 0.950 . S
C299 C296 1.356 . S
C299 C301 1.358 . S
C299 H341 0.930 . S
C300 N297 1.314 . S
C300 C298 1.353 1_455 S
C300 H342 0.930 1_455 S
C301 N297 1.279 . S
C301 C299 1.358 . S
C301 H343 0.930 . S
C302 C303 1.348 . S
C302 C304 1.356 1_556 S
C302 O327 1.325 1_556 S
C303 C302 1.348 . S
C303 C305 1.353 . S
C303 H344 0.929 . S
C304 C302 1.356 1_554 S
C304 C306 1.358 . S
C304 H345 0.930 . S
C305 C303 1.353 . S
C305 N307 1.314 . S
C305 H346 0.930 . S
C306 C304 1.358 . S
C306 N307 1.279 1_554 S
C306 H347 0.930 . S
N307 C305 1.314 . S
N307 C306 1.279 1_556 S
C308 C310 1.353 . S
C308 N311 1.314 . S
C308 H314 0.930 . S
C309 N311 1.279 . S
C309 C312 1.358 . S
C309 H315 0.930 . S
C310 C308 1.353 . S
C310 C313 1.348 . S
C310 H348 0.929 . S
N311 Li266 1.990 . S
N311 C308 1.314 . S
N311 C309 1.279 . S
C312 C309 1.358 . S
C312 C313 1.356 . S
C312 H349 0.930 . S
C313 C310 1.348 . S
C313 C312 1.356 . S
H314 C308 0.930 . S
H315 C309 0.930 . S
C316 N317 1.314 . S
C316 C318 1.353 . S
C316 H322 0.930 1_556 S
N317 Li267 1.990 1_556 S
N317 C316 1.314 . S
N317 C320 1.279 . S
C318 C316 1.353 . S
C318 C321 1.348 . S
C318 H350 0.929 . S
C319 C320 1.358 . S
C319 C321 1.356 . S
C319 H351 0.930 . S
C320 N317 1.279 . S
C320 C319 1.358 . S
C320 H323 0.930 . S
C321 C318 1.348 . S
C321 C319 1.356 . S
H322 C316 0.930 1_554 S
H323 C320 0.930 . S
O324 Li264 1.956 . S
O324 Li265 1.970 1_455 S
O324 Li266 1.961 1_554 S
O324 C268 1.325 . S
O325 Li264 1.970 1_655 S
O325 Li265 1.956 . S
O325 Li267 1.961 . S
O325 C274 1.325 . S
O326 Li264 1.961 1_556 S
O326 Li266 1.956 . S
O326 Li267 1.970 1_456 S
O326 C296 1.325 . S
O327 Li265 1.961 . S
O327 Li266 1.970 1_654 S
O327 Li267 1.956 . S
O327 C302 1.325 1_554 S
H328 C270 0.929 . S
H329 C271 0.930 1_556 S
H330 C272 0.930 . S
H331 C273 0.930 . S
H332 C275 0.930 . S
H333 C277 0.947 . S
H334 C278 0.930 . S
H335 C279 0.930 1_455 S
H336 C282 0.930 . S
H337 C285 0.929 . S
H338 C290 0.929 . S
H339 C291 0.930 . S
H340 C298 0.950 . S
H341 C299 0.930 . S
H342 C300 0.930 1_655 S
H343 C301 0.930 . S
H344 C303 0.929 . S
H345 C304 0.930 . S
H346 C305 0.930 . S
H347 C306 0.930 . S
H348 C310 0.929 . S
H349 C312 0.930 . S
H350 C318 0.929 . S
H351 C319 0.930 . S
Li352 N369 1.990 . S
Li352 O412 1.956 . S
Li352 O413 1.970 . S
Li352 O414 1.961 1_554 S
Li353 N377 1.990 . S
Li353 O412 1.970 . S
Li353 O413 1.956 . S
Li353 O415 1.961 1_554 S
Li354 N399 1.990 . S
Li354 O412 1.961 1_556 S
Li354 O414 1.956 . S
Li354 O415 1.970 . S
Li355 N405 1.993 . S
Li355 O413 1.953 1_556 S
Li355 O414 1.973 . S
Li355 O415 1.956 . S
C356 C358 1.348 . S
C356 C359 1.356 . S
C356 O412 1.325 . S
N357 C360 1.314 . S
N357 C361 1.279 . S
C358 C356 1.348 . S
C358 C360 1.353 . S
C358 H416 0.929 . S
C359 C356 1.356 . S
C359 C361 1.358 . S
C359 H417 0.930 . S
C360 N357 1.314 . S
C360 C358 1.353 . S
C360 H418 0.930 . S
C361 N357 1.279 . S
C361 C359 1.358 . S
C361 H419 0.930 . S
C362 C365 1.348 . S
C362 C366 1.356 . S
C362 O413 1.325 . S
C363 N364 1.279 . S
C363 C366 1.358 . S
C363 H420 0.930 . S
N364 C363 1.279 . S
N364 C367 1.314 . S
C365 C362 1.348 . S
C365 C367 1.353 . S
C365 H421 0.929 . S
C366 C362 1.356 . S
C366 C363 1.358 . S
C366 H422 0.930 . S
C367 N364 1.314 . S
C367 C365 1.353 . S
C367 H423 0.930 . S
C368 N369 1.314 . S
C368 C373 1.353 . S
C368 H374 0.930 . S
N369 Li352 1.990 . S
N369 C368 1.314 . S
N369 C371 1.279 . S
C370 C371 1.358 . S
C370 C372 1.356 . S
C370 H424 0.930 . S
C371 N369 1.279 . S
C371 C370 1.358 . S
C371 H375 0.930 . S
C372 C370 1.356 . S
C372 C373 1.348 . S
C373 C368 1.353 . S
C373 C372 1.348 . S
C373 H425 0.929 . S
H374 C368 0.930 . S
H375 C371 0.930 . S
C376 N377 1.314 . S
C376 C378 1.353 . S
C376 H382 0.930 . S
N377 Li353 1.990 . S
N377 C376 1.314 . S
N377 C380 1.279 . S
C378 C376 1.353 . S
C378 C381 1.348 . S
C378 H426 0.929 . S
C379 C380 1.358 . S
C379 C381 1.356 . S
C379 H427 0.930 . S
C380 N377 1.279 . S
C380 C379 1.358 . S
C380 H383 0.930 . S
C381 C378 1.348 . S
C381 C379 1.356 . S
H382 C376 0.930 . S
H383 C380 0.930 . S
C384 C386 1.348 . S
C384 C387 1.356 . S
C384 O414 1.325 . S
N385 C388 1.314 . S
N385 C389 1.279 . S
C386 C384 1.348 . S
C386 C388 1.353 . S
C386 H428 0.929 . S
C387 C384 1.356 . S
C387 C389 1.358 . S
C387 H429 0.930 . S
C388 N385 1.314 . S
C388 C386 1.353 . S
C388 H430 0.930 . S
C389 N385 1.279 . S
C389 C387 1.358 . S
C389 H431 0.930 . S
C390 C391 1.348 . S
C390 C392 1.356 1_556 S
C390 O415 1.325 . S
C391 C390 1.348 . S
C391 C393 1.353 . S
C391 H432 0.929 . S
C392 C390 1.356 1_554 S
C392 C394 1.358 1_554 S
C392 H433 0.930 . S
C393 C391 1.353 . S
C393 N395 1.314 . S
C393 H434 0.930 . S
C394 C392 1.358 1_556 S
C394 N395 1.279 . S
C394 H435 0.930 1_556 S
N395 C393 1.314 . S
N395 C394 1.279 . S
C396 C398 1.353 . S
C396 N399 1.314 . S
C396 H402 0.930 . S
C397 N399 1.279 . S
C397 C400 1.358 . S
C397 H403 0.930 . S
C398 C396 1.353 . S
C398 C401 1.348 . S
C398 H436 0.929 . S
N399 Li354 1.990 . S
N399 C396 1.314 . S
N399 C397 1.279 . S
C400 C397 1.358 . S
C400 C401 1.356 . S
C400 H437 0.930 . S
C401 C398 1.348 . S
C401 C400 1.356 . S
H402 C396 0.930 . S
H403 C397 0.930 . S
C404 N405 1.314 . S
C404 C406 1.353 . S
C404 H410 0.930 1_556 S
N405 Li355 1.993 . S
N405 C404 1.314 . S
N405 C408 1.279 . S
C406 C404 1.353 . S
C406 C409 1.348 . S
C406 H438 0.929 . S
C407 C408 1.358 . S
C407 C409 1.356 . S
C407 H439 0.930 . S
C408 N405 1.279 . S
C408 C407 1.358 . S
C408 H411 0.930 . S
C409 C406 1.348 . S
C409 C407 1.356 . S
H410 C404 0.930 1_554 S
H411 C408 0.930 . S
O412 Li352 1.956 . S
O412 Li353 1.970 . S
O412 Li354 1.961 1_554 S
O412 C356 1.325 . S
O413 Li352 1.970 . S
O413 Li353 1.956 . S
O413 Li355 1.953 1_554 S
O413 C362 1.325 . S
O414 Li352 1.961 1_556 S
O414 Li354 1.956 . S
O414 Li355 1.973 . S
O414 C384 1.325 . S
O415 Li353 1.961 1_556 S
O415 Li354 1.970 . S
O415 Li355 1.956 . S
O415 C390 1.325 . S
H416 C358 0.929 . S
H417 C359 0.930 . S
H418 C360 0.930 . S
H419 C361 0.930 . S
H420 C363 0.930 . S
H421 C365 0.929 . S
H422 C366 0.930 . S
H423 C367 0.930 . S
H424 C370 0.930 . S
H425 C373 0.929 . S
H426 C378 0.929 . S
H427 C379 0.930 . S
H428 C386 0.929 . S
H429 C387 0.930 . S
H430 C388 0.930 . S
H431 C389 0.930 . S
H432 C391 0.929 . S
H433 C392 0.930 . S
H434 C393 0.930 . S
H435 C394 0.930 1_554 S
H436 C398 0.929 . S
H437 C400 0.930 . S
H438 C406 0.929 . S
H439 C407 0.930 . S
Li440 N457 1.990 . S
Li440 O500 1.956 . S
Li440 O501 1.970 1_565 S
Li440 O502 1.961 1_554 S
Li441 N465 1.990 . S
Li441 O500 1.970 1_545 S
Li441 O501 1.956 . S
Li441 O503 1.961 . S
Li442 N487 1.990 . S
Li442 O500 1.961 1_556 S
Li442 O502 1.956 . S
Li442 O503 1.970 1_566 S
Li443 N493 1.990 1_554 S
Li443 O501 1.961 . S
Li443 O502 1.970 1_544 S
Li443 O503 1.956 . S
C444 C446 1.348 . S
C444 C447 1.356 . S
C444 O500 1.325 . S
N445 C448 1.314 . S
N445 C449 1.279 . S
C446 C444 1.348 . S
C446 C448 1.353 . S
C446 H504 0.929 . S
C447 C444 1.356 . S
C447 C449 1.358 . S
C447 H505 0.930 1_554 S
C448 N445 1.314 . S
C448 C446 1.353 . S
C448 H506 0.930 . S
C449 N445 1.279 . S
C449 C447 1.358 . S
C449 H507 0.930 . S
C450 C453 1.328 1_545 S
C450 C454 1.356 . S
C450 O501 1.325 . S
C451 N452 1.279 . S
C451 C454 1.358 . S
C451 H508 0.930 . S
N452 C451 1.279 . S
N452 C455 1.314 . S
C453 C450 1.328 1_565 S
C453 C455 1.353 1_565 S
C453 H509 0.950 . S
C454 C450 1.356 . S
C454 C451 1.358 . S
C454 H510 0.930 . S
C455 N452 1.314 . S
C455 C453 1.353 1_545 S
C455 H511 0.930 1_545 S
C456 N457 1.314 . S
C456 C461 1.353 . S
C456 H462 0.930 . S
N457 Li440 1.990 . S
N457 C456 1.314 . S
N457 C459 1.279 . S
C458 C459 1.358 . S
C458 C460 1.356 . S
C458 H512 0.930 . S
C459 N457 1.279 . S
C459 C458 1.358 . S
C459 H463 0.930 . S
C460 C458 1.356 . S
C460 C461 1.348 . S
C461 C456 1.353 . S
C461 C460 1.348 . S
C461 H513 0.929 . S
H462 C456 0.930 . S
H463 C459 0.930 . S
C464 N465 1.314 . S
C464 C466 1.353 . S
C464 H470 0.930 . S
N465 Li441 1.990 . S
N465 C464 1.314 . S
N465 C468 1.279 . S
C466 C464 1.353 . S
C466 C469 1.348 . S
C466 H514 0.929 . S
C467 C468 1.358 . S
C467 C469 1.356 . S
C467 H515 0.930 . S
C468 N465 1.279 . S
C468 C467 1.358 . S
C468 H471 0.930 . S
C469 C466 1.348 . S
C469 C467 1.356 . S
H470 C464 0.930 . S
H471 C468 0.930 . S
C472 C474 1.341 1_565 S
C472 C475 1.356 . S
C472 O502 1.325 . S
N473 C476 1.314 . S
N473 C477 1.279 . S
C474 C472 1.341 1_545 S
C474 C476 1.342 1_545 S
C474 H516 0.947 . S
C475 C472 1.356 . S
C475 C477 1.358 . S
C475 H517 0.930 . S
C476 N473 1.314 . S
C476 C474 1.342 1_565 S
C476 H518 0.930 1_565 S
C477 N473 1.279 . S
C477 C475 1.358 . S
C477 H519 0.930 . S
C478 C479 1.348 . S
C478 C480 1.356 1_556 S
C478 O503 1.325 1_556 S
C479 C478 1.348 . S
C479 C481 1.353 . S
C479 H520 0.929 . S
C480 C478 1.356 1_554 S
C480 C482 1.358 . S
C480 H521 0.930 . S
C481 C479 1.353 . S
C481 N483 1.314 . S
C481 H522 0.930 . S
C482 C480 1.358 . S
C482 N483 1.279 1_554 S
C482 H523 0.930 . S
N483 C481 1.314 . S
N483 C482 1.279 1_556 S
C484 C486 1.353 . S
C484 N487 1.314 . S
C484 H490 0.930 . S
C485 N487 1.279 . S
C485 C488 1.358 . S
C485 H491 0.930 . S
C486 C484 1.353 . S
C486 C489 1.348 . S
C486 H524 0.929 . S
N487 Li442 1.990 . S
N487 C484 1.314 . S
N487 C485 1.279 . S
C488 C485 1.358 . S
C488 C489 1.356 . S
C488 H525 0.930 . S
C489 C486 1.348 . S
C489 C488 1.356 . S
H490 C484 0.930 . S
H491 C485 0.930 . S
C492 N493 1.321 . S
C492 C494 1.361 . S
C492 H498 0.914 1_556 S
N493 Li443 1.990 1_556 S
N493 C492 1.321 . S
N493 C496 1.279 . S
C494 C492 1.361 . S
C494 C497 1.348 . S
C494 H526 0.929 . S
C495 C496 1.358 . S
C495 C497 1.356 . S
C495 H527 0.930 . S
C496 N493 1.279 . S
C496 C495 1.358 . S
C496 H499 0.930 . S
C497 C494 1.348 . S
C497 C495 1.356 . S
H498 C492 0.914 1_554 S
H499 C496 0.930 . S
O500 Li440 1.956 . S
O500 Li441 1.970 1_565 S
O500 Li442 1.961 1_554 S
O500 C444 1.325 . S
O501 Li440 1.970 1_545 S
O501 Li441 1.956 . S
O501 Li443 1.961 . S
O501 C450 1.325 . S
O502 Li440 1.961 1_556 S
O502 Li442 1.956 . S
O502 Li443 1.970 1_566 S
O502 C472 1.325 . S
O503 Li441 1.961 . S
O503 Li442 1.970 1_544 S
O503 Li443 1.956 . S
O503 C478 1.325 1_554 S
H504 C446 0.929 . S
H505 C447 0.930 1_556 S
H506 C448 0.930 . S
H507 C449 0.930 . S
H508 C451 0.930 . S
H509 C453 0.950 . S
H510 C454 0.930 . S
H511 C455 0.930 1_565 S
H512 C458 0.930 . S
H513 C461 0.929 . S
H514 C466 0.929 . S
H515 C467 0.930 . S
H516 C474 0.947 . S
H517 C475 0.930 . S
H518 C476 0.930 1_545 S
H519 C477 0.930 . S
H520 C479 0.929 . S
H521 C480 0.930 . S
H522 C481 0.930 . S
H523 C482 0.930 . S
H524 C486 0.929 . S
H525 C488 0.930 . S
H526 C494 0.929 . S
H527 C495 0.930 . S
Li528 N545 1.990 . S
Li528 O588 1.956 . S
Li528 O589 1.970 . S
Li528 O590 1.961 . S
Li529 N553 1.990 . S
Li529 O588 1.970 . S
Li529 O589 1.956 . S
Li529 O591 1.961 . S
Li530 N575 1.990 . S
Li530 O588 1.961 . S
Li530 O590 1.956 . S
Li530 O591 1.970 . S
Li531 N581 1.990 . S
Li531 O589 1.961 . S
Li531 O590 1.970 . S
Li531 O591 1.956 . S
C532 C534 1.348 . S
C532 C535 1.356 . S
C532 O588 1.325 . S
N533 C536 1.314 . S
N533 C537 1.279 . S
C534 C532 1.348 . S
C534 C536 1.353 . S
C534 H592 0.929 . S
C535 C532 1.356 . S
C535 C537 1.358 . S
C535 H593 0.930 . S
C536 N533 1.314 . S
C536 C534 1.353 . S
C536 H594 0.930 . S
C537 N533 1.279 . S
C537 C535 1.358 . S
C537 H595 0.930 . S
C538 C541 1.348 . S
C538 C542 1.356 . S
C538 O589 1.325 . S
C539 N540 1.279 . S
C539 C542 1.358 . S
C539 H596 0.930 . S
N540 C539 1.279 . S
N540 C543 1.314 . S
C541 C538 1.348 . S
C541 C543 1.353 . S
C541 H597 0.929 . S
C542 C538 1.356 . S
C542 C539 1.358 . S
C542 H598 0.930 . S
C543 N540 1.314 . S
C543 C541 1.353 . S
C543 H599 0.930 . S
C544 N545 1.314 . S
C544 C549 1.353 . S
C544 H550 0.930 . S
N545 Li528 1.990 . S
N545 C544 1.314 . S
N545 C547 1.279 . S
C546 C547 1.358 . S
C546 C548 1.356 . S
C546 H600 0.930 . S
C547 N545 1.279 . S
C547 C546 1.358 . S
C547 H551 0.930 . S
C548 C546 1.356 . S
C548 C549 1.348 . S
C549 C544 1.353 . S
C549 C548 1.348 . S
C549 H601 0.929 . S
H550 C544 0.930 . S
H551 C547 0.930 . S
C552 N553 1.314 . S
C552 C554 1.353 . S
C552 H558 0.930 . S
N553 Li529 1.990 . S
N553 C552 1.314 . S
N553 C556 1.279 . S
C554 C552 1.353 . S
C554 C557 1.348 . S
C554 H602 0.929 . S
C555 C556 1.358 . S
C555 C557 1.356 . S
C555 H603 0.930 . S
C556 N553 1.279 . S
C556 C555 1.358 . S
C556 H559 0.930 . S
C557 C554 1.348 . S
C557 C555 1.356 . S
H558 C552 0.930 . S
H559 C556 0.930 . S
C560 C562 1.348 . S
C560 C563 1.356 . S
C560 O590 1.325 . S
N561 C564 1.314 . S
N561 C565 1.279 . S
C562 C560 1.348 . S
C562 C564 1.353 . S
C562 H604 0.929 . S
C563 C560 1.356 . S
C563 C565 1.358 . S
C563 H605 0.930 . S
C564 N561 1.314 . S
C564 C562 1.353 . S
C564 H606 0.930 . S
C565 N561 1.279 . S
C565 C563 1.358 . S
C565 H607 0.930 . S
C566 C567 1.348 . S
C566 C568 1.356 . S
C566 O591 1.325 . S
C567 C566 1.348 . S
C567 C569 1.353 . S
C567 H608 0.929 . S
C568 C566 1.356 . S
C568 C570 1.358 . S
C568 H609 0.930 . S
C569 C567 1.353 . S
C569 N571 1.314 . S
C569 H610 0.930 . S
C570 C568 1.358 . S
C570 N571 1.279 . S
C570 H611 0.930 . S
N571 C569 1.314 . S
N571 C570 1.279 . S
C572 C574 1.353 . S
C572 N575 1.314 . S
C572 H578 0.930 . S
C573 N575 1.279 . S
C573 C576 1.358 . S
C573 H579 0.930 . S
C574 C572 1.353 . S
C574 C577 1.348 . S
C574 H612 0.929 . S
N575 Li530 1.990 . S
N575 C572 1.314 . S
N575 C573 1.279 . S
C576 C573 1.358 . S
C576 C577 1.356 . S
C576 H613 0.930 . S
C577 C574 1.348 . S
C577 C576 1.356 . S
H578 C572 0.930 . S
H579 C573 0.930 . S
C580 N581 1.314 . S
C580 C582 1.353 . S
C580 H586 0.930 . S
N581 Li531 1.990 . S
N581 C580 1.314 . S
N581 C584 1.279 . S
C582 C580 1.353 . S
C582 C585 1.348 . S
C582 H614 0.929 . S
C583 C584 1.358 . S
C583 C585 1.356 . S
C583 H615 0.930 . S
C584 N581 1.279 . S
C584 C583 1.358 . S
C584 H587 0.930 . S
C585 C582 1.348 . S
C585 C583 1.356 . S
H586 C580 0.930 . S
H587 C584 0.930 . S
O588 Li528 1.956 . S
O588 Li529 1.970 . S
O588 Li530 1.961 . S
O588 C532 1.325 . S
O589 Li528 1.970 . S
O589 Li529 1.956 . S
O589 Li531 1.961 . S
O589 C538 1.325 . S
O590 Li528 1.961 . S
O590 Li530 1.956 . S
O590 Li531 1.970 . S
O590 C560 1.325 . S
O591 Li529 1.961 . S
O591 Li530 1.970 . S
O591 Li531 1.956 . S
O591 C566 1.325 . S
H592 C534 0.929 . S
H593 C535 0.930 . S
H594 C536 0.930 . S
H595 C537 0.930 . S
H596 C539 0.930 . S
H597 C541 0.929 . S
H598 C542 0.930 . S
H599 C543 0.930 . S
H600 C546 0.930 . S
H601 C549 0.929 . S
H602 C554 0.929 . S
H603 C555 0.930 . S
H604 C562 0.929 . S
H605 C563 0.930 . S
H606 C564 0.930 . S
H607 C565 0.930 . S
H608 C567 0.929 . S
H609 C568 0.930 . S
H610 C569 0.930 . S
H611 C570 0.930 . S
H612 C574 0.929 . S
H613 C576 0.930 . S
H614 C582 0.929 . S
H615 C583 0.930 . S
Li616 N633 1.990 . S
Li616 O676 1.956 . S
Li616 O677 1.970 . S
Li616 O678 1.961 . S
Li617 N641 1.990 . S
Li617 O676 1.970 . S
Li617 O677 1.956 . S
Li617 O679 1.961 . S
Li618 N663 1.990 . S
Li618 O676 1.961 1_545 S
Li618 O678 1.956 1_545 S
Li618 O679 1.970 1_545 S
Li619 N669 1.990 . S
Li619 O677 1.961 . S
Li619 O678 1.970 . S
Li619 O679 1.956 . S
C620 C622 1.348 . S
C620 C623 1.356 . S
C620 O676 1.325 . S
N621 C624 1.314 . S
N621 C625 1.279 . S
C622 C620 1.348 . S
C622 C624 1.353 . S
C622 H680 0.929 . S
C623 C620 1.356 . S
C623 C625 1.358 . S
C623 H681 0.930 1_565 S
C624 N621 1.314 . S
C624 C622 1.353 . S
C624 H682 0.930 . S
C625 N621 1.279 . S
C625 C623 1.358 . S
C625 H683 0.949 . S
C626 C629 1.348 . S
C626 C630 1.356 . S
C626 O677 1.325 . S
C627 N628 1.279 . S
C627 C630 1.358 . S
C627 H684 0.930 . S
N628 C627 1.279 . S
N628 C631 1.314 . S
C629 C626 1.348 . S
C629 C631 1.353 . S
C629 H685 0.929 . S
C630 C626 1.356 . S
C630 C627 1.358 . S
C630 H686 0.930 . S
C631 N628 1.314 . S
C631 C629 1.353 . S
C631 H687 0.930 . S
C632 N633 1.314 . S
C632 C637 1.353 . S
C632 H638 0.930 . S
N633 Li616 1.990 . S
N633 C632 1.314 . S
N633 C635 1.279 . S
C634 C635 1.358 . S
C634 C636 1.356 . S
C634 H688 0.930 . S
C635 N633 1.279 . S
C635 C634 1.358 . S
C635 H639 0.930 . S
C636 C634 1.356 . S
C636 C637 1.348 . S
C637 C632 1.353 . S
C637 C636 1.348 . S
C637 H689 0.929 . S
H638 C632 0.930 . S
H639 C635 0.930 . S
C640 N641 1.314 . S
C640 C642 1.353 . S
C640 H646 0.930 . S
N641 Li617 1.990 . S
N641 C640 1.314 . S
N641 C644 1.279 . S
C642 C640 1.353 . S
C642 C645 1.348 . S
C642 H690 0.929 . S
C643 C644 1.358 . S
C643 C645 1.356 . S
C643 H691 0.930 . S
C644 N641 1.279 . S
C644 C643 1.358 . S
C644 H647 0.930 . S
C645 C642 1.348 . S
C645 C643 1.356 . S
H646 C640 0.930 . S
H647 C644 0.930 . S
C648 C650 1.348 . S
C648 C651 1.356 . S
C648 O678 1.325 1_545 S
N649 C652 1.314 . S
N649 C653 1.279 . S
C650 C648 1.348 . S
C650 C652 1.353 . S
C650 H692 0.929 . S
C651 C648 1.356 . S
C651 C653 1.358 . S
C651 H693 0.930 . S
C652 N649 1.314 . S
C652 C650 1.353 . S
C652 H694 0.930 . S
C653 N649 1.279 . S
C653 C651 1.358 . S
C653 H695 0.930 . S
C654 C655 1.348 1_565 S
C654 C656 1.356 . S
C654 O679 1.325 . S
C655 C654 1.348 1_545 S
C655 C657 1.353 . S
C655 H696 0.929 . S
C656 C654 1.356 . S
C656 C658 1.358 . S
C656 H697 0.930 . S
C657 C655 1.353 . S
C657 N659 1.314 . S
C657 H698 0.930 . S
C658 C656 1.358 . S
C658 N659 1.279 1_565 S
C658 H699 0.930 . S
N659 C657 1.314 . S
N659 C658 1.279 1_545 S
C660 C662 1.353 . S
C660 N663 1.314 . S
C660 H666 0.930 . S
C661 N663 1.279 . S
C661 C664 1.358 . S
C661 H667 0.930 . S
C662 C660 1.353 . S
C662 C665 1.348 . S
C662 H700 0.929 . S
N663 Li618 1.990 . S
N663 C660 1.314 . S
N663 C661 1.279 . S
C664 C661 1.358 . S
C664 C665 1.356 . S
C664 H701 0.930 . S
C665 C662 1.348 . S
C665 C664 1.356 . S
H666 C660 0.930 . S
H667 C661 0.930 . S
C668 N669 1.314 . S
C668 C670 1.353 . S
C668 H674 0.930 . S
N669 Li619 1.990 . S
N669 C668 1.314 . S
N669 C672 1.279 . S
C670 C668 1.353 . S
C670 C673 1.348 . S
C670 H702 0.929 . S
C671 C672 1.358 . S
C671 C673 1.356 . S
C671 H703 0.930 1_565 S
C672 N669 1.279 . S
C672 C671 1.358 . S
C672 H675 0.946 . S
C673 C670 1.348 . S
C673 C671 1.356 . S
H674 C668 0.930 . S
H675 C672 0.946 . S
O676 Li616 1.956 . S
O676 Li617 1.970 . S
O676 Li618 1.961 1_565 S
O676 C620 1.325 . S
O677 Li616 1.970 . S
O677 Li617 1.956 . S
O677 Li619 1.961 . S
O677 C626 1.325 . S
O678 Li616 1.961 . S
O678 Li618 1.956 1_565 S
O678 Li619 1.970 . S
O678 C648 1.325 1_565 S
O679 Li617 1.961 . S
O679 Li618 1.970 1_565 S
O679 Li619 1.956 . S
O679 C654 1.325 . S
H680 C622 0.929 . S
H681 C623 0.930 1_545 S
H682 C624 0.930 . S
H683 C625 0.949 . S
H684 C627 0.930 . S
H685 C629 0.929 . S
H686 C630 0.930 . S
H687 C631 0.930 . S
H688 C634 0.930 . S
H689 C637 0.929 . S
H690 C642 0.929 . S
H691 C643 0.930 . S
H692 C650 0.929 . S
H693 C651 0.930 . S
H694 C652 0.930 . S
H695 C653 0.930 . S
H696 C655 0.929 . S
H697 C656 0.930 . S
H698 C657 0.930 . S
H699 C658 0.930 . S
H700 C662 0.929 . S
H701 C664 0.930 . S
H702 C670 0.929 . S
H703 C671 0.930 1_545 S
Li704 N721 1.990 . S
Li704 O764 1.956 . S
Li704 O765 1.970 . S
Li704 O766 1.961 . S
Li705 N729 1.990 . S
Li705 O764 1.970 . S
Li705 O765 1.956 . S
Li705 O767 1.961 . S
Li706 N751 2.010 . S
Li706 O764 1.930 1_655 S
Li706 O766 1.956 1_655 S
Li706 O767 1.970 1_655 S
Li707 N757 1.990 . S
Li707 O765 1.961 . S
Li707 O766 1.970 . S
Li707 O767 1.956 . S
C708 C710 1.348 . S
C708 C711 1.356 . S
C708 O764 1.325 . S
N709 C712 1.314 . S
N709 C713 1.279 . S
C710 C708 1.348 . S
C710 C712 1.353 . S
C710 H768 0.929 . S
C711 C708 1.356 . S
C711 C713 1.358 . S
C711 H769 0.967 . S
C712 N709 1.314 . S
C712 C710 1.353 . S
C712 H770 0.930 . S
C713 N709 1.279 . S
C713 C711 1.358 . S
C713 H771 0.930 . S
C714 C717 1.348 . S
C714 C718 1.356 . S
C714 O765 1.325 . S
C715 N716 1.279 . S
C715 C718 1.358 . S
C715 H772 0.930 . S
N716 C715 1.279 . S
N716 C719 1.314 . S
C717 C714 1.348 . S
C717 C719 1.353 . S
C717 H773 0.929 . S
C718 C714 1.356 . S
C718 C715 1.358 . S
C718 H774 0.930 . S
C719 N716 1.314 . S
C719 C717 1.353 . S
C719 H775 0.930 . S
C720 N721 1.314 . S
C720 C725 1.353 . S
C720 H726 0.930 . S
N721 Li704 1.990 . S
N721 C720 1.314 . S
N721 C723 1.279 . S
C722 C723 1.358 . S
C722 C724 1.356 . S
C722 H776 0.930 . S
C723 N721 1.279 . S
C723 C722 1.358 . S
C723 H727 0.930 . S
C724 C722 1.356 . S
C724 C725 1.348 . S
C725 C720 1.353 . S
C725 C724 1.348 . S
C725 H777 0.929 . S
H726 C720 0.930 . S
H727 C723 0.930 . S
C728 N729 1.314 . S
C728 C730 1.353 . S
C728 H734 0.930 . S
N729 Li705 1.990 . S
N729 C728 1.314 . S
N729 C732 1.279 . S
C730 C728 1.353 . S
C730 C733 1.348 . S
C730 H778 0.929 . S
C731 C732 1.358 . S
C731 C733 1.356 . S
C731 H779 0.930 . S
C732 N729 1.279 . S
C732 C731 1.358 . S
C732 H735 0.930 . S
C733 C730 1.348 . S
C733 C731 1.356 . S
H734 C728 0.930 . S
H735 C732 0.930 . S
C736 C738 1.348 . S
C736 C739 1.356 . S
C736 O766 1.325 1_655 S
N737 C740 1.314 . S
N737 C741 1.279 . S
C738 C736 1.348 . S
C738 C740 1.353 . S
C738 H780 0.929 . S
C739 C736 1.356 . S
C739 C741 1.358 . S
C739 H781 0.930 . S
C740 N737 1.314 . S
C740 C738 1.353 . S
C740 H782 0.930 . S
C741 N737 1.279 . S
C741 C739 1.358 . S
C741 H783 0.930 . S
C742 C743 1.348 1_455 S
C742 C744 1.356 . S
C742 O767 1.325 . S
C743 C742 1.348 1_655 S
C743 C745 1.353 . S
C743 H784 0.929 . S
C744 C742 1.356 . S
C744 C746 1.358 . S
C744 H785 0.930 . S
C745 C743 1.353 . S
C745 N747 1.314 . S
C745 H786 0.930 . S
C746 C744 1.358 . S
C746 N747 1.279 1_455 S
C746 H787 0.930 . S
N747 C745 1.314 . S
N747 C746 1.279 1_655 S
C748 C750 1.353 . S
C748 N751 1.314 . S
C748 H754 0.930 . S
C749 N751 1.279 . S
C749 C752 1.358 . S
C749 H755 0.930 . S
C750 C748 1.353 . S
C750 C753 1.348 . S
C750 H788 0.929 . S
N751 Li706 2.010 . S
N751 C748 1.314 . S
N751 C749 1.279 . S
C752 C749 1.358 . S
C752 C753 1.356 . S
C752 H789 0.930 . S
C753 C750 1.348 . S
C753 C752 1.356 . S
H754 C748 0.930 . S
H755 C749 0.930 . S
C756 N757 1.314 . S
C756 C758 1.353 . S
C756 H762 0.930 . S
N757 Li707 1.990 . S
N757 C756 1.314 . S
N757 C760 1.279 . S
C758 C756 1.353 . S
C758 C761 1.348 . S
C758 H790 0.929 . S
C759 C760 1.358 . S
C759 C761 1.356 . S
C759 H791 0.964 . S
C760 N757 1.279 . S
C760 C759 1.358 . S
C760 H763 0.930 . S
C761 C758 1.348 . S
C761 C759 1.356 . S
H762 C756 0.930 . S
H763 C760 0.930 . S
O764 Li704 1.956 . S
O764 Li705 1.970 . S
O764 Li706 1.930 1_455 S
O764 C708 1.325 . S
O765 Li704 1.970 . S
O765 Li705 1.956 . S
O765 Li707 1.961 . S
O765 C714 1.325 . S
O766 Li704 1.961 . S
O766 Li706 1.956 1_455 S
O766 Li707 1.970 . S
O766 C736 1.325 1_455 S
O767 Li705 1.961 . S
O767 Li706 1.970 1_455 S
O767 Li707 1.956 . S
O767 C742 1.325 . S
H768 C710 0.929 . S
H769 C711 0.967 . S
H770 C712 0.930 . S
H771 C713 0.930 . S
H772 C715 0.930 . S
H773 C717 0.929 . S
H774 C718 0.930 . S
H775 C719 0.930 . S
H776 C722 0.930 . S
H777 C725 0.929 . S
H778 C730 0.929 . S
H779 C731 0.930 . S
H780 C738 0.929 . S
H781 C739 0.930 . S
H782 C740 0.930 . S
H783 C741 0.930 . S
H784 C743 0.929 . S
H785 C744 0.930 . S
H786 C745 0.930 . S
H787 C746 0.930 . S
H788 C750 0.929 . S
H789 C752 0.930 . S
H790 C758 0.929 . S
H791 C759 0.964 . S
Li792 N809 2.037 . S
Li792 O852 1.880 1_545 S
Li792 O853 1.974 1_545 S
Li792 O854 1.966 1_545 S
Li793 N817 1.990 . S
Li793 O852 1.970 . S
Li793 O853 1.956 . S
Li793 O855 1.961 . S
Li794 N839 1.990 . S
Li794 O852 1.961 . S
Li794 O854 1.956 . S
Li794 O855 1.970 . S
Li795 N845 1.990 . S
Li795 O853 1.961 . S
Li795 O854 1.970 . S
Li795 O855 1.956 . S
C796 C798 1.348 . S
C796 C799 1.356 . S
C796 O852 1.325 . S
N797 C800 1.314 . S
N797 C801 1.279 . S
C798 C796 1.348 . S
C798 C800 1.353 . S
C798 H856 0.929 . S
C799 C796 1.356 . S
C799 C801 1.358 . S
C799 H857 0.930 . S
C800 N797 1.314 . S
C800 C798 1.353 . S
C800 H858 0.930 . S
C801 N797 1.279 . S
C801 C799 1.358 . S
C801 H859 0.930 . S
C802 C805 1.348 1_565 S
C802 C806 1.356 . S
C802 O853 1.325 . S
C803 N804 1.279 1_565 S
C803 C806 1.358 . S
C803 H860 0.930 . S
N804 C803 1.279 1_545 S
N804 C807 1.314 . S
C805 C802 1.348 1_545 S
C805 C807 1.353 . S
C805 H861 0.929 . S
C806 C802 1.356 . S
C806 C803 1.358 . S
C806 H862 0.930 . S
C807 N804 1.314 . S
C807 C805 1.353 . S
C807 H863 0.930 . S
C808 N809 1.314 . S
C808 C813 1.353 . S
C808 H814 0.930 . S
N809 Li792 2.037 . S
N809 C808 1.314 . S
N809 C811 1.279 . S
C810 C811 1.358 . S
C810 C812 1.356 . S
C810 H864 0.930 . S
C811 N809 1.279 . S
C811 C810 1.358 . S
C811 H815 0.930 . S
C812 C810 1.356 . S
C812 C813 1.348 . S
C813 C808 1.353 . S
C813 C812 1.348 . S
C813 H865 0.929 . S
H814 C808 0.930 . S
H815 C811 0.930 . S
C816 N817 1.314 . S
C816 C818 1.353 . S
C816 H822 0.930 . S
N817 Li793 1.990 . S
N817 C816 1.314 . S
N817 C820 1.279 . S
C818 C816 1.353 . S
C818 C821 1.348 . S
C818 H866 0.929 . S
C819 C820 1.358 . S
C819 C821 1.356 . S
C819 H867 0.930 . S
C820 N817 1.279 . S
C820 C819 1.358 . S
C820 H823 0.930 . S
C821 C818 1.348 . S
C821 C819 1.356 . S
H822 C816 0.930 . S
H823 C820 0.930 . S
C824 C826 1.348 . S
C824 C827 1.356 . S
C824 O854 1.325 1_545 S
N825 C828 1.314 . S
N825 C829 1.279 . S
C826 C824 1.348 . S
C826 C828 1.353 . S
C826 H868 0.929 . S
C827 C824 1.356 . S
C827 C829 1.358 . S
C827 H869 0.930 . S
C828 N825 1.314 . S
C828 C826 1.353 . S
C828 H870 0.930 . S
C829 N825 1.279 . S
C829 C827 1.358 . S
C829 H871 0.930 . S
C830 C831 1.348 . S
C830 C832 1.356 . S
C830 O855 1.325 . S
C831 C830 1.348 . S
C831 C833 1.353 . S
C831 H872 0.929 . S
C832 C830 1.356 . S
C832 C834 1.358 . S
C832 H873 0.930 . S
C833 C831 1.353 . S
C833 N835 1.314 . S
C833 H874 0.930 . S
C834 C832 1.358 . S
C834 N835 1.279 . S
C834 H875 0.930 . S
N835 C833 1.314 . S
N835 C834 1.279 . S
C836 C838 1.353 . S
C836 N839 1.314 . S
C836 H842 0.930 . S
C837 N839 1.279 . S
C837 C840 1.358 . S
C837 H843 0.930 . S
C838 C836 1.353 . S
C838 C841 1.348 . S
C838 H876 0.929 . S
N839 Li794 1.990 . S
N839 C836 1.314 . S
N839 C837 1.279 . S
C840 C837 1.358 . S
C840 C841 1.356 . S
C840 H877 0.930 . S
C841 C838 1.348 . S
C841 C840 1.356 . S
H842 C836 0.930 . S
H843 C837 0.930 . S
C844 N845 1.314 . S
C844 C846 1.394 . S
C844 H850 0.930 1_565 S
N845 Li795 1.990 . S
N845 C844 1.314 . S
N845 C848 1.279 . S
C846 C844 1.394 . S
C846 C849 1.374 . S
C846 H878 0.866 1_565 S
C847 C848 1.358 . S
C847 C849 1.356 . S
C847 H879 0.930 . S
C848 N845 1.279 . S
C848 C847 1.358 . S
C848 H851 0.930 . S
C849 C846 1.374 . S
C849 C847 1.356 . S
H850 C844 0.930 1_545 S
H851 C848 0.930 . S
O852 Li792 1.880 1_565 S
O852 Li793 1.970 . S
O852 Li794 1.961 . S
O852 C796 1.325 . S
O853 Li792 1.974 1_565 S
O853 Li793 1.956 . S
O853 Li795 1.961 . S
O853 C802 1.325 . S
O854 Li792 1.966 1_565 S
O854 Li794 1.956 . S
O854 Li795 1.970 . S
O854 C824 1.325 1_565 S
O855 Li793 1.961 . S
O855 Li794 1.970 . S
O855 Li795 1.956 . S
O855 C830 1.325 . S
H856 C798 0.929 . S
H857 C799 0.930 . S
H858 C800 0.930 . S
H859 C801 0.930 . S
H860 C803 0.930 . S
H861 C805 0.929 . S
H862 C806 0.930 . S
H863 C807 0.930 . S
H864 C810 0.930 . S
H865 C813 0.929 . S
H866 C818 0.929 . S
H867 C819 0.930 . S
H868 C826 0.929 . S
H869 C827 0.930 . S
H870 C828 0.930 . S
H871 C829 0.930 . S
H872 C831 0.929 . S
H873 C832 0.930 . S
H874 C833 0.930 . S
H875 C834 0.930 . S
H876 C838 0.929 . S
H877 C840 0.930 . S
H878 C846 0.866 1_545 S
H879 C847 0.930 . S
Li880 N897 1.990 . S
Li880 O940 1.956 . S
Li880 O941 1.970 . S
Li880 O942 1.961 . S
Li881 N905 1.990 . S
Li881 O940 1.970 1_655 S
Li881 O941 1.956 1_655 S
Li881 O943 1.961 1_655 S
Li882 N927 1.990 . S
Li882 O940 1.961 . S
Li882 O942 1.956 . S
Li882 O943 1.970 . S
Li883 N933 1.990 . S
Li883 O941 1.961 . S
Li883 O942 1.970 . S
Li883 O943 1.956 . S
C884 C886 1.348 1_455 S
C884 C887 1.356 . S
C884 O940 1.325 . S
N885 C888 1.314 . S
N885 C889 1.279 1_655 S
C886 C884 1.348 1_655 S
C886 C888 1.353 . S
C886 H944 0.929 . S
C887 C884 1.356 . S
C887 C889 1.358 . S
C887 H945 0.930 . S
C888 N885 1.314 . S
C888 C886 1.353 . S
C888 H946 0.930 . S
C889 N885 1.279 1_455 S
C889 C887 1.358 . S
C889 H947 0.930 . S
C890 C893 1.348 . S
C890 C894 1.356 . S
C890 O941 1.325 . S
C891 N892 1.279 . S
C891 C894 1.358 . S
C891 H948 0.930 . S
N892 C891 1.279 . S
N892 C895 1.314 . S
C893 C890 1.348 . S
C893 C895 1.353 . S
C893 H949 0.929 . S
C894 C890 1.356 . S
C894 C891 1.358 . S
C894 H950 0.930 . S
C895 N892 1.314 . S
C895 C893 1.353 . S
C895 H951 0.930 . S
C896 N897 1.314 . S
C896 C901 1.353 . S
C896 H902 0.930 . S
N897 Li880 1.990 . S
N897 C896 1.314 . S
N897 C899 1.279 . S
C898 C899 1.358 . S
C898 C900 1.356 . S
C898 H952 0.930 . S
C899 N897 1.279 . S
C899 C898 1.358 . S
C899 H903 0.930 . S
C900 C898 1.356 . S
C900 C901 1.348 . S
C901 C896 1.353 . S
C901 C900 1.348 . S
C901 H953 0.929 . S
H902 C896 0.930 . S
H903 C899 0.930 . S
C904 N905 1.314 . S
C904 C906 1.353 . S
C904 H910 0.930 . S
N905 Li881 1.990 . S
N905 C904 1.314 . S
N905 C908 1.279 . S
C906 C904 1.353 . S
C906 C909 1.348 . S
C906 H954 0.929 . S
C907 C908 1.358 . S
C907 C909 1.356 . S
C907 H955 0.930 . S
C908 N905 1.279 . S
C908 C907 1.358 . S
C908 H911 0.930 . S
C909 C906 1.348 . S
C909 C907 1.356 . S
H910 C904 0.930 . S
H911 C908 0.930 . S
C912 C914 1.348 . S
C912 C915 1.356 . S
C912 O942 1.325 . S
N913 C916 1.314 . S
N913 C917 1.279 . S
C914 C912 1.348 . S
C914 C916 1.353 . S
C914 H956 0.929 . S
C915 C912 1.356 . S
C915 C917 1.358 . S
C915 H957 0.930 . S
C916 N913 1.314 . S
C916 C914 1.353 . S
C916 H958 0.930 . S
C917 N913 1.279 . S
C917 C915 1.358 . S
C917 H959 0.930 . S
C918 C919 1.348 . S
C918 C920 1.356 . S
C918 O943 1.325 1_655 S
C919 C918 1.348 . S
C919 C921 1.353 . S
C919 H960 0.929 . S
C920 C918 1.356 . S
C920 C922 1.358 . S
C920 H961 0.930 . S
C921 C919 1.353 . S
C921 N923 1.314 . S
C921 H962 0.930 . S
C922 C920 1.358 . S
C922 N923 1.279 . S
C922 H963 0.930 . S
N923 C921 1.314 . S
N923 C922 1.279 . S
C924 C926 1.352 . S
C924 N927 1.314 . S
C924 H930 0.930 1_455 S
C925 N927 1.279 . S
C925 C928 1.358 . S
C925 H931 0.930 . S
C926 C924 1.352 . S
C926 C929 1.351 . S
C926 H964 0.928 1_455 S
N927 Li882 1.990 . S
N927 C924 1.314 . S
N927 C925 1.279 . S
C928 C925 1.358 . S
C928 C929 1.356 . S
C928 H965 0.930 . S
C929 C926 1.351 . S
C929 C928 1.356 . S
H930 C924 0.930 1_655 S
H931 C925 0.930 . S
C932 N933 1.314 . S
C932 C934 1.353 . S
C932 H938 0.930 . S
N933 Li883 1.990 . S
N933 C932 1.314 . S
N933 C936 1.279 . S
C934 C932 1.353 . S
C934 C937 1.348 . S
C934 H966 0.929 . S
C935 C936 1.358 . S
C935 C937 1.356 . S
C935 H967 0.930 . S
C936 N933 1.279 . S
C936 C935 1.358 . S
C936 H939 0.930 . S
C937 C934 1.348 . S
C937 C935 1.356 . S
H938 C932 0.930 . S
H939 C936 0.930 . S
O940 Li880 1.956 . S
O940 Li881 1.970 1_455 S
O940 Li882 1.961 . S
O940 C884 1.325 . S
O941 Li880 1.970 . S
O941 Li881 1.956 1_455 S
O941 Li883 1.961 . S
O941 C890 1.325 . S
O942 Li880 1.961 . S
O942 Li882 1.956 . S
O942 Li883 1.970 . S
O942 C912 1.325 . S
O943 Li881 1.961 1_455 S
O943 Li882 1.970 . S
O943 Li883 1.956 . S
O943 C918 1.325 1_455 S
H944 C886 0.929 . S
H945 C887 0.930 . S
H946 C888 0.930 . S
H947 C889 0.930 . S
H948 C891 0.930 . S
H949 C893 0.929 . S
H950 C894 0.930 . S
H951 C895 0.930 . S
H952 C898 0.930 . S
H953 C901 0.929 . S
H954 C906 0.929 . S
H955 C907 0.930 . S
H956 C914 0.929 . S
H957 C915 0.930 . S
H958 C916 0.930 . S
H959 C917 0.930 . S
H960 C919 0.929 . S
H961 C920 0.930 . S
H962 C921 0.930 . S
H963 C922 0.930 . S
H964 C926 0.928 1_655 S
H965 C928 0.930 . S
H966 C934 0.929 . S
H967 C935 0.930 . S
Li968 N985 1.990 . S
Li968 O1028 1.956 . S
Li968 O1029 1.970 . S
Li968 O1030 1.961 . S
Li969 N993 1.990 . S
Li969 O1028 1.970 . S
Li969 O1029 1.956 . S
Li969 O1031 1.961 . S
Li970 N1015 1.990 . S
Li970 O1028 1.961 . S
Li970 O1030 1.956 . S
Li970 O1031 1.970 . S
Li971 N1021 1.990 . S
Li971 O1029 1.961 . S
Li971 O1030 1.970 . S
Li971 O1031 1.956 . S
C972 C974 1.348 . S
C972 C975 1.356 . S
C972 O1028 1.325 . S
N973 C976 1.314 . S
N973 C977 1.279 . S
C974 C972 1.348 . S
C974 C976 1.353 . S
C974 H1032 0.929 . S
C975 C972 1.356 . S
C975 C977 1.358 . S
C975 H1033 0.930 . S
C976 N973 1.314 . S
C976 C974 1.353 . S
C976 H1034 0.930 . S
C977 N973 1.279 . S
C977 C975 1.358 . S
C977 H1035 0.930 . S
C978 C981 1.348 . S
C978 C982 1.356 . S
C978 O1029 1.325 . S
C979 N980 1.279 . S
C979 C982 1.358 . S
C979 H1036 0.930 . S
N980 C979 1.279 . S
N980 C983 1.314 . S
C981 C978 1.348 . S
C981 C983 1.353 . S
C981 H1037 0.929 . S
C982 C978 1.356 . S
C982 C979 1.358 . S
C982 H1038 0.930 . S
C983 N980 1.314 . S
C983 C981 1.353 . S
C983 H1039 0.930 . S
C984 N985 1.314 . S
C984 C989 1.353 . S
C984 H990 0.930 . S
N985 Li968 1.990 . S
N985 C984 1.314 . S
N985 C987 1.279 . S
C986 C987 1.358 . S
C986 C988 1.356 . S
C986 H1040 0.930 . S
C987 N985 1.279 . S
C987 C986 1.358 . S
C987 H991 0.930 . S
C988 C986 1.356 . S
C988 C989 1.348 . S
C989 C984 1.353 . S
C989 C988 1.348 . S
C989 H1041 0.929 . S
H990 C984 0.930 . S
H991 C987 0.930 . S
C992 N993 1.314 . S
C992 C994 1.353 . S
C992 H998 0.930 . S
N993 Li969 1.990 . S
N993 C992 1.314 . S
N993 C996 1.279 . S
C994 C992 1.353 . S
C994 C997 1.348 . S
C994 H1042 0.929 . S
C995 C996 1.358 . S
C995 C997 1.356 . S
C995 H1043 0.930 . S
C996 N993 1.279 . S
C996 C995 1.358 . S
C996 H999 0.930 . S
C997 C994 1.348 . S
C997 C995 1.356 . S
H998 C992 0.930 . S
H999 C996 0.930 . S
C1000 C1002 1.348 . S
C1000 C1003 1.356 . S
C1000 O1030 1.325 . S
N1001 C1004 1.314 . S
N1001 C1005 1.279 . S
C1002 C1000 1.348 . S
C1002 C1004 1.353 . S
C1002 H1044 0.929 . S
C1003 C1000 1.356 . S
C1003 C1005 1.358 . S
C1003 H1045 0.930 . S
C1004 N1001 1.314 . S
C1004 C1002 1.353 . S
C1004 H1046 0.930 . S
C1005 N1001 1.279 . S
C1005 C1003 1.358 . S
C1005 H1047 0.930 . S
C1006 C1007 1.348 . S
C1006 C1008 1.356 . S
C1006 O1031 1.325 . S
C1007 C1006 1.348 . S
C1007 C1009 1.353 . S
C1007 H1048 0.929 . S
C1008 C1006 1.356 . S
C1008 C1010 1.358 . S
C1008 H1049 0.930 . S
C1009 C1007 1.353 . S
C1009 N1011 1.314 . S
C1009 H1050 0.930 . S
C1010 C1008 1.358 . S
C1010 N1011 1.279 . S
C1010 H1051 0.930 . S
N1011 C1009 1.314 . S
N1011 C1010 1.279 . S
C1012 C1014 1.353 . S
C1012 N1015 1.314 . S
C1012 H1018 0.930 . S
C1013 N1015 1.279 . S
C1013 C1016 1.358 . S
C1013 H1019 0.930 . S
C1014 C1012 1.353 . S
C1014 C1017 1.348 . S
C1014 H1052 0.929 . S
N1015 Li970 1.990 . S
N1015 C1012 1.314 . S
N1015 C1013 1.279 . S
C1016 C1013 1.358 . S
C1016 C1017 1.356 . S
C1016 H1053 0.930 . S
C1017 C1014 1.348 . S
C1017 C1016 1.356 . S
H1018 C1012 0.930 . S
H1019 C1013 0.930 . S
C1020 N1021 1.314 . S
C1020 C1022 1.353 . S
C1020 H1026 0.930 . S
N1021 Li971 1.990 . S
N1021 C1020 1.314 . S
N1021 C1024 1.279 . S
C1022 C1020 1.353 . S
C1022 C1025 1.348 . S
C1022 H1054 0.929 . S
C1023 C1024 1.358 . S
C1023 C1025 1.356 . S
C1023 H1055 0.930 . S
C1024 N1021 1.279 . S
C1024 C1023 1.358 . S
C1024 H1027 0.930 . S
C1025 C1022 1.348 . S
C1025 C1023 1.356 . S
H1026 C1020 0.930 . S
H1027 C1024 0.930 . S
O1028 Li968 1.956 . S
O1028 Li969 1.970 . S
O1028 Li970 1.961 . S
O1028 C972 1.325 . S
O1029 Li968 1.970 . S
O1029 Li969 1.956 . S
O1029 Li971 1.961 . S
O1029 C978 1.325 . S
O1030 Li968 1.961 . S
O1030 Li970 1.956 . S
O1030 Li971 1.970 . S
O1030 C1000 1.325 . S
O1031 Li969 1.961 . S
O1031 Li970 1.970 . S
O1031 Li971 1.956 . S
O1031 C1006 1.325 . S
H1032 C974 0.929 . S
H1033 C975 0.930 . S
H1034 C976 0.930 . S
H1035 C977 0.930 . S
H1036 C979 0.930 . S
H1037 C981 0.929 . S
H1038 C982 0.930 . S
H1039 C983 0.930 . S
H1040 C986 0.930 . S
H1041 C989 0.929 . S
H1042 C994 0.929 . S
H1043 C995 0.930 . S
H1044 C1002 0.929 . S
H1045 C1003 0.930 . S
H1046 C1004 0.930 . S
H1047 C1005 0.930 . S
H1048 C1007 0.929 . S
H1049 C1008 0.930 . S
H1050 C1009 0.930 . S
H1051 C1010 0.930 . S
H1052 C1014 0.929 . S
H1053 C1016 0.930 . S
H1054 C1022 0.929 . S
H1055 C1023 0.930 . S
Li1056 N1073 2.009 . S
Li1056 O1116 1.956 1_565 S
Li1056 O1117 1.970 1_565 S
Li1056 O1118 1.931 1_565 S
Li1057 N1081 1.990 . S
Li1057 O1116 1.970 . S
Li1057 O1117 1.956 . S
Li1057 O1119 1.961 . S
Li1058 N1103 1.990 . S
Li1058 O1116 1.961 . S
Li1058 O1118 1.956 . S
Li1058 O1119 1.970 . S
Li1059 N1109 1.990 . S
Li1059 O1117 1.961 . S
Li1059 O1118 1.970 . S
Li1059 O1119 1.956 . S
C1060 C1062 1.348 . S
C1060 C1063 1.356 . S
C1060 O1116 1.325 1_565 S
N1061 C1064 1.314 . S
N1061 C1065 1.279 . S
C1062 C1060 1.348 . S
C1062 C1064 1.353 . S
C1062 H1120 0.929 . S
C1063 C1060 1.356 . S
C1063 C1065 1.358 . S
C1063 H1121 0.930 . S
C1064 N1061 1.314 . S
C1064 C1062 1.353 . S
C1064 H1122 0.930 . S
C1065 N1061 1.279 . S
C1065 C1063 1.358 . S
C1065 H1123 0.930 . S
C1066 C1069 1.348 1_545 S
C1066 C1070 1.356 . S
C1066 O1117 1.325 . S
C1067 N1068 1.279 1_545 S
C1067 C1070 1.358 . S
C1067 H1124 0.930 . S
N1068 C1067 1.279 1_565 S
N1068 C1071 1.314 . S
C1069 C1066 1.348 1_565 S
C1069 C1071 1.353 . S
C1069 H1125 0.929 . S
C1070 C1066 1.356 . S
C1070 C1067 1.358 . S
C1070 H1126 0.930 . S
C1071 N1068 1.314 . S
C1071 C1069 1.353 . S
C1071 H1127 0.930 . S
C1072 N1073 1.314 . S
C1072 C1077 1.353 . S
C1072 H1078 0.930 . S
N1073 Li1056 2.009 . S
N1073 C1072 1.314 . S
N1073 C1075 1.279 . S
C1074 C1075 1.358 . S
C1074 C1076 1.356 . S
C1074 H1128 0.930 . S
C1075 N1073 1.279 . S
C1075 C1074 1.358 . S
C1075 H1079 0.930 . S
C1076 C1074 1.356 . S
C1076 C1077 1.348 . S
C1077 C1072 1.353 . S
C1077 C1076 1.348 . S
C1077 H1129 0.929 . S
H1078 C1072 0.930 . S
H1079 C1075 0.930 . S
C1080 N1081 1.314 . S
C1080 C1082 1.353 . S
C1080 H1086 0.930 . S
N1081 Li1057 1.990 . S
N1081 C1080 1.314 . S
N1081 C1084 1.279 . S
C1082 C1080 1.353 . S
C1082 C1085 1.348 . S
C1082 H1130 0.929 . S
C1083 C1084 1.358 . S
C1083 C1085 1.356 . S
C1083 H1131 0.965 . S
C1084 N1081 1.279 . S
C1084 C1083 1.358 . S
C1084 H1087 0.930 . S
C1085 C1082 1.348 . S
C1085 C1083 1.356 . S
H1086 C1080 0.930 . S
H1087 C1084 0.930 . S
C1088 C1090 1.348 . S
C1088 C1091 1.356 . S
C1088 O1118 1.325 . S
N1089 C1092 1.314 . S
N1089 C1093 1.279 . S
C1090 C1088 1.348 . S
C1090 C1092 1.353 . S
C1090 H1132 0.929 . S
C1091 C1088 1.356 . S
C1091 C1093 1.358 . S
C1091 H1133 0.968 . S
C1092 N1089 1.314 . S
C1092 C1090 1.353 . S
C1092 H1134 0.930 . S
C1093 N1089 1.279 . S
C1093 C1091 1.358 . S
C1093 H1135 0.930 . S
C1094 C1095 1.348 . S
C1094 C1096 1.356 . S
C1094 O1119 1.325 . S
C1095 C1094 1.348 . S
C1095 C1097 1.353 . S
C1095 H1136 0.929 . S
C1096 C1094 1.356 . S
C1096 C1098 1.358 . S
C1096 H1137 0.930 . S
C1097 C1095 1.353 . S
C1097 N1099 1.314 . S
C1097 H1138 0.930 . S
C1098 C1096 1.358 . S
C1098 N1099 1.279 . S
C1098 H1139 0.930 . S
N1099 C1097 1.314 . S
N1099 C1098 1.279 . S
C1100 C1102 1.353 . S
C1100 N1103 1.314 . S
C1100 H1106 0.930 . S
C1101 N1103 1.279 . S
C1101 C1104 1.358 . S
C1101 H1107 0.930 . S
C1102 C1100 1.353 . S
C1102 C1105 1.348 . S
C1102 H1140 0.929 . S
N1103 Li1058 1.990 . S
N1103 C1100 1.314 . S
N1103 C1101 1.279 . S
C1104 C1101 1.358 . S
C1104 C1105 1.356 . S
C1104 H1141 0.930 . S
C1105 C1102 1.348 . S
C1105 C1104 1.356 . S
H1106 C1100 0.930 . S
H1107 C1101 0.930 . S
C1108 N1109 1.314 . S
C1108 C1110 1.353 . S
C1108 H1114 0.930 . S
N1109 Li1059 1.990 . S
N1109 C1108 1.314 . S
N1109 C1112 1.279 . S
C1110 C1108 1.353 . S
C1110 C1113 1.348 . S
C1110 H1142 0.929 . S
C1111 C1112 1.358 . S
C1111 C1113 1.356 . S
C1111 H1143 0.930 . S
C1112 N1109 1.279 . S
C1112 C1111 1.358 . S
C1112 H1115 0.930 . S
C1113 C1110 1.348 . S
C1113 C1111 1.356 . S
H1114 C1108 0.930 . S
H1115 C1112 0.930 . S
O1116 Li1056 1.956 1_545 S
O1116 Li1057 1.970 . S
O1116 Li1058 1.961 . S
O1116 C1060 1.325 1_545 S
O1117 Li1056 1.970 1_545 S
O1117 Li1057 1.956 . S
O1117 Li1059 1.961 . S
O1117 C1066 1.325 . S
O1118 Li1056 1.931 1_545 S
O1118 Li1058 1.956 . S
O1118 Li1059 1.970 . S
O1118 C1088 1.325 . S
O1119 Li1057 1.961 . S
O1119 Li1058 1.970 . S
O1119 Li1059 1.956 . S
O1119 C1094 1.325 . S
H1120 C1062 0.929 . S
H1121 C1063 0.930 . S
H1122 C1064 0.930 . S
H1123 C1065 0.930 . S
H1124 C1067 0.930 . S
H1125 C1069 0.929 . S
H1126 C1070 0.930 . S
H1127 C1071 0.930 . S
H1128 C1074 0.930 . S
H1129 C1077 0.929 . S
H1130 C1082 0.929 . S
H1131 C1083 0.965 . S
H1132 C1090 0.929 . S
H1133 C1091 0.968 . S
H1134 C1092 0.930 . S
H1135 C1093 0.930 . S
H1136 C1095 0.929 . S
H1137 C1096 0.930 . S
H1138 C1097 0.930 . S
H1139 C1098 0.930 . S
H1140 C1102 0.929 . S
H1141 C1104 0.930 . S
H1142 C1110 0.929 . S
H1143 C1111 0.930 . S
Li1144 N1161 1.990 . S
Li1144 O1204 1.956 1_455 S
Li1144 O1205 1.970 1_455 S
Li1144 O1206 1.961 1_455 S
Li1145 N1169 1.990 . S
Li1145 O1204 1.970 . S
Li1145 O1205 1.956 . S
Li1145 O1207 1.961 . S
Li1146 N1191 1.990 . S
Li1146 O1204 1.961 . S
Li1146 O1206 1.956 . S
Li1146 O1207 1.970 . S
Li1147 N1197 1.990 . S
Li1147 O1205 1.961 . S
Li1147 O1206 1.970 . S
Li1147 O1207 1.956 . S
C1148 C1150 1.348 . S
C1148 C1151 1.356 . S
C1148 O1204 1.325 1_455 S
N1149 C1152 1.314 . S
N1149 C1153 1.279 . S
C1150 C1148 1.348 . S
C1150 C1152 1.353 . S
C1150 H1208 0.929 . S
C1151 C1148 1.356 . S
C1151 C1153 1.358 . S
C1151 H1209 0.930 . S
C1152 N1149 1.314 . S
C1152 C1150 1.353 . S
C1152 H1210 0.930 . S
C1153 N1149 1.279 . S
C1153 C1151 1.358 . S
C1153 H1211 0.930 . S
C1154 C1157 1.348 1_655 S
C1154 C1158 1.356 . S
C1154 O1205 1.325 . S
C1155 N1156 1.279 1_655 S
C1155 C1158 1.358 . S
C1155 H1212 0.930 . S
N1156 C1155 1.279 1_455 S
N1156 C1159 1.314 . S
C1157 C1154 1.348 1_455 S
C1157 C1159 1.353 . S
C1157 H1213 0.929 . S
C1158 C1154 1.356 . S
C1158 C1155 1.358 . S
C1158 H1214 0.930 . S
C1159 N1156 1.314 . S
C1159 C1157 1.353 . S
C1159 H1215 0.930 . S
C1160 N1161 1.314 . S
C1160 C1165 1.353 . S
C1160 H1166 0.930 . S
N1161 Li1144 1.990 . S
N1161 C1160 1.314 . S
N1161 C1163 1.279 . S
C1162 C1163 1.358 . S
C1162 C1164 1.356 . S
C1162 H1216 0.930 . S
C1163 N1161 1.279 . S
C1163 C1162 1.358 . S
C1163 H1167 0.930 . S
C1164 C1162 1.356 . S
C1164 C1165 1.348 . S
C1165 C1160 1.353 . S
C1165 C1164 1.348 . S
C1165 H1217 0.929 . S
H1166 C1160 0.930 . S
H1167 C1163 0.930 . S
C1168 N1169 1.314 . S
C1168 C1170 1.353 . S
C1168 H1174 0.930 . S
N1169 Li1145 1.990 . S
N1169 C1168 1.314 . S
N1169 C1172 1.279 . S
C1170 C1168 1.353 . S
C1170 C1173 1.348 . S
C1170 H1218 0.929 . S
C1171 C1172 1.358 . S
C1171 C1173 1.356 . S
C1171 H1219 0.930 1_655 S
C1172 N1169 1.279 . S
C1172 C1171 1.358 . S
C1172 H1175 0.946 . S
C1173 C1170 1.348 . S
C1173 C1171 1.356 . S
H1174 C1168 0.930 . S
H1175 C1172 0.946 . S
C1176 C1178 1.348 . S
C1176 C1179 1.356 . S
C1176 O1206 1.325 . S
N1177 C1180 1.314 . S
N1177 C1181 1.279 . S
C1178 C1176 1.348 . S
C1178 C1180 1.353 . S
C1178 H1220 0.929 . S
C1179 C1176 1.356 . S
C1179 C1181 1.358 . S
C1179 H1221 0.930 1_655 S
C1180 N1177 1.314 . S
C1180 C1178 1.353 . S
C1180 H1222 0.930 . S
C1181 N1177 1.279 . S
C1181 C1179 1.358 . S
C1181 H1223 0.950 . S
C1182 C1183 1.348 . S
C1182 C1184 1.356 . S
C1182 O1207 1.325 . S
C1183 C1182 1.348 . S
C1183 C1185 1.353 . S
C1183 H1224 0.929 . S
C1184 C1182 1.356 . S
C1184 C1186 1.358 . S
C1184 H1225 0.930 . S
C1185 C1183 1.353 . S
C1185 N1187 1.314 . S
C1185 H1226 0.930 . S
C1186 C1184 1.358 . S
C1186 N1187 1.279 . S
C1186 H1227 0.930 . S
N1187 C1185 1.314 . S
N1187 C1186 1.279 . S
C1188 C1190 1.353 . S
C1188 N1191 1.314 . S
C1188 H1194 0.930 . S
C1189 N1191 1.279 . S
C1189 C1192 1.358 . S
C1189 H1195 0.930 . S
C1190 C1188 1.353 . S
C1190 C1193 1.348 . S
C1190 H1228 0.929 . S
N1191 Li1146 1.990 . S
N1191 C1188 1.314 . S
N1191 C1189 1.279 . S
C1192 C1189 1.358 . S
C1192 C1193 1.356 . S
C1192 H1229 0.930 . S
C1193 C1190 1.348 . S
C1193 C1192 1.356 . S
H1194 C1188 0.930 . S
H1195 C1189 0.930 . S
C1196 N1197 1.314 . S
C1196 C1198 1.353 . S
C1196 H1202 0.930 . S
N1197 Li1147 1.990 . S
N1197 C1196 1.314 . S
N1197 C1200 1.279 . S
C1198 C1196 1.353 . S
C1198 C1201 1.348 . S
C1198 H1230 0.929 . S
C1199 C1200 1.358 . S
C1199 C1201 1.356 . S
C1199 H1231 0.930 . S
C1200 N1197 1.279 . S
C1200 C1199 1.358 . S
C1200 H1203 0.930 . S
C1201 C1198 1.348 . S
C1201 C1199 1.356 . S
H1202 C1196 0.930 . S
H1203 C1200 0.930 . S
O1204 Li1144 1.956 1_655 S
O1204 Li1145 1.970 . S
O1204 Li1146 1.961 . S
O1204 C1148 1.325 1_655 S
O1205 Li1144 1.970 1_655 S
O1205 Li1145 1.956 . S
O1205 Li1147 1.961 . S
O1205 C1154 1.325 . S
O1206 Li1144 1.961 1_655 S
O1206 Li1146 1.956 . S
O1206 Li1147 1.970 . S
O1206 C1176 1.325 . S
O1207 Li1145 1.961 . S
O1207 Li1146 1.970 . S
O1207 Li1147 1.956 . S
O1207 C1182 1.325 . S
H1208 C1150 0.929 . S
H1209 C1151 0.930 . S
H1210 C1152 0.930 . S
H1211 C1153 0.930 . S
H1212 C1155 0.930 . S
H1213 C1157 0.929 . S
H1214 C1158 0.930 . S
H1215 C1159 0.930 . S
H1216 C1162 0.930 . S
H1217 C1165 0.929 . S
H1218 C1170 0.929 . S
H1219 C1171 0.930 1_455 S
H1220 C1178 0.929 . S
H1221 C1179 0.930 1_455 S
H1222 C1180 0.930 . S
H1223 C1181 0.950 . S
H1224 C1183 0.929 . S
H1225 C1184 0.930 . S
H1226 C1185 0.930 . S
H1227 C1186 0.930 . S
H1228 C1190 0.929 . S
H1229 C1192 0.930 . S
H1230 C1198 0.929 . S
H1231 C1199 0.930 . S
Li1232 N1249 1.990 . S
Li1232 O1292 1.956 . S
Li1232 O1293 1.970 . S
Li1232 O1294 1.961 . S
Li1233 N1257 1.990 . S
Li1233 O1292 1.970 . S
Li1233 O1293 1.956 . S
Li1233 O1295 1.961 . S
Li1234 N1279 1.990 . S
Li1234 O1292 1.961 . S
Li1234 O1294 1.956 . S
Li1234 O1295 1.970 . S
Li1235 N1285 1.990 . S
Li1235 O1293 1.961 . S
Li1235 O1294 1.970 . S
Li1235 O1295 1.956 . S
C1236 C1238 1.348 . S
C1236 C1239 1.356 . S
C1236 O1292 1.325 . S
N1237 C1240 1.314 . S
N1237 C1241 1.279 . S
C1238 C1236 1.348 . S
C1238 C1240 1.353 . S
C1238 H1296 0.929 . S
C1239 C1236 1.356 . S
C1239 C1241 1.358 . S
C1239 H1297 0.930 . S
C1240 N1237 1.314 . S
C1240 C1238 1.353 . S
C1240 H1298 0.930 . S
C1241 N1237 1.279 . S
C1241 C1239 1.358 . S
C1241 H1299 0.930 . S
C1242 C1245 1.348 . S
C1242 C1246 1.356 . S
C1242 O1293 1.325 . S
C1243 N1244 1.279 . S
C1243 C1246 1.358 . S
C1243 H1300 0.930 . S
N1244 C1243 1.279 . S
N1244 C1247 1.314 . S
C1245 C1242 1.348 . S
C1245 C1247 1.353 . S
C1245 H1301 0.929 . S
C1246 C1242 1.356 . S
C1246 C1243 1.358 . S
C1246 H1302 0.930 . S
C1247 N1244 1.314 . S
C1247 C1245 1.353 . S
C1247 H1303 0.930 . S
C1248 N1249 1.314 . S
C1248 C1253 1.353 . S
C1248 H1254 0.930 . S
N1249 Li1232 1.990 . S
N1249 C1248 1.314 . S
N1249 C1251 1.279 . S
C1250 C1251 1.358 . S
C1250 C1252 1.356 . S
C1250 H1304 0.930 . S
C1251 N1249 1.279 . S
C1251 C1250 1.358 . S
C1251 H1255 0.930 . S
C1252 C1250 1.356 . S
C1252 C1253 1.348 . S
C1253 C1248 1.353 . S
C1253 C1252 1.348 . S
C1253 H1305 0.929 . S
H1254 C1248 0.930 . S
H1255 C1251 0.930 . S
C1256 N1257 1.314 . S
C1256 C1258 1.353 . S
C1256 H1262 0.930 . S
N1257 Li1233 1.990 . S
N1257 C1256 1.314 . S
N1257 C1260 1.279 . S
C1258 C1256 1.353 . S
C1258 C1261 1.348 . S
C1258 H1306 0.929 . S
C1259 C1260 1.358 . S
C1259 C1261 1.356 . S
C1259 H1307 0.930 . S
C1260 N1257 1.279 . S
C1260 C1259 1.358 . S
C1260 H1263 0.930 . S
C1261 C1258 1.348 . S
C1261 C1259 1.356 . S
H1262 C1256 0.930 . S
H1263 C1260 0.930 . S
C1264 C1266 1.348 . S
C1264 C1267 1.356 . S
C1264 O1294 1.325 . S
N1265 C1268 1.314 . S
N1265 C1269 1.279 . S
C1266 C1264 1.348 . S
C1266 C1268 1.353 . S
C1266 H1308 0.929 . S
C1267 C1264 1.356 . S
C1267 C1269 1.358 . S
C1267 H1309 0.930 . S
C1268 N1265 1.314 . S
C1268 C1266 1.353 . S
C1268 H1310 0.930 . S
C1269 N1265 1.279 . S
C1269 C1267 1.358 . S
C1269 H1311 0.930 . S
C1270 C1271 1.348 . S
C1270 C1272 1.356 . S
C1270 O1295 1.325 . S
C1271 C1270 1.348 . S
C1271 C1273 1.353 . S
C1271 H1312 0.929 . S
C1272 C1270 1.356 . S
C1272 C1274 1.358 . S
C1272 H1313 0.930 . S
C1273 C1271 1.353 . S
C1273 N1275 1.314 . S
C1273 H1314 0.930 . S
C1274 C1272 1.358 . S
C1274 N1275 1.279 . S
C1274 H1315 0.930 . S
N1275 C1273 1.314 . S
N1275 C1274 1.279 . S
C1276 C1278 1.353 . S
C1276 N1279 1.314 . S
C1276 H1282 0.930 . S
C1277 N1279 1.279 . S
C1277 C1280 1.358 . S
C1277 H1283 0.930 . S
C1278 C1276 1.353 . S
C1278 C1281 1.348 . S
C1278 H1316 0.929 . S
N1279 Li1234 1.990 . S
N1279 C1276 1.314 . S
N1279 C1277 1.279 . S
C1280 C1277 1.358 . S
C1280 C1281 1.356 . S
C1280 H1317 0.930 . S
C1281 C1278 1.348 . S
C1281 C1280 1.356 . S
H1282 C1276 0.930 . S
H1283 C1277 0.930 . S
C1284 N1285 1.314 . S
C1284 C1286 1.353 . S
C1284 H1290 0.930 . S
N1285 Li1235 1.990 . S
N1285 C1284 1.314 . S
N1285 C1288 1.279 . S
C1286 C1284 1.353 . S
C1286 C1289 1.348 . S
C1286 H1318 0.929 . S
C1287 C1288 1.358 . S
C1287 C1289 1.356 . S
C1287 H1319 0.930 . S
C1288 N1285 1.279 . S
C1288 C1287 1.358 . S
C1288 H1291 0.930 . S
C1289 C1286 1.348 . S
C1289 C1287 1.356 . S
H1290 C1284 0.930 . S
H1291 C1288 0.930 . S
O1292 Li1232 1.956 . S
O1292 Li1233 1.970 . S
O1292 Li1234 1.961 . S
O1292 C1236 1.325 . S
O1293 Li1232 1.970 . S
O1293 Li1233 1.956 . S
O1293 Li1235 1.961 . S
O1293 C1242 1.325 . S
O1294 Li1232 1.961 . S
O1294 Li1234 1.956 . S
O1294 Li1235 1.970 . S
O1294 C1264 1.325 . S
O1295 Li1233 1.961 . S
O1295 Li1234 1.970 . S
O1295 Li1235 1.956 . S
O1295 C1270 1.325 . S
H1296 C1238 0.929 . S
H1297 C1239 0.930 . S
H1298 C1240 0.930 . S
H1299 C1241 0.930 . S
H1300 C1243 0.930 . S
H1301 C1245 0.929 . S
H1302 C1246 0.930 . S
H1303 C1247 0.930 . S
H1304 C1250 0.930 . S
H1305 C1253 0.929 . S
H1306 C1258 0.929 . S
H1307 C1259 0.930 . S
H1308 C1266 0.929 . S
H1309 C1267 0.930 . S
H1310 C1268 0.930 . S
H1311 C1269 0.930 . S
H1312 C1271 0.929 . S
H1313 C1272 0.930 . S
H1314 C1273 0.930 . S
H1315 C1274 0.930 . S
H1316 C1278 0.929 . S
H1317 C1280 0.930 . S
H1318 C1286 0.929 . S
H1319 C1287 0.930 . S
Li1320 N1337 1.990 . S
Li1320 O1380 1.956 . S
Li1320 O1381 1.970 . S
Li1320 O1382 1.961 . S
Li1321 N1345 1.990 . S
Li1321 O1380 1.970 . S
Li1321 O1381 1.956 . S
Li1321 O1383 1.961 . S
Li1322 N1367 1.990 . S
Li1322 O1380 1.961 . S
Li1322 O1382 1.956 . S
Li1322 O1383 1.970 . S
Li1323 N1373 1.990 . S
Li1323 O1381 1.961 . S
Li1323 O1382 1.970 . S
Li1323 O1383 1.956 . S
C1324 C1326 1.348 . S
C1324 C1327 1.356 . S
C1324 O1380 1.325 . S
N1325 C1328 1.314 . S
N1325 C1329 1.279 . S
C1326 C1324 1.348 . S
C1326 C1328 1.353 . S
C1326 H1384 0.929 . S
C1327 C1324 1.356 . S
C1327 C1329 1.358 . S
C1327 H1385 0.930 . S
C1328 N1325 1.314 . S
C1328 C1326 1.353 . S
C1328 H1386 0.930 . S
C1329 N1325 1.279 . S
C1329 C1327 1.358 . S
C1329 H1387 0.930 . S
C1330 C1333 1.348 . S
C1330 C1334 1.356 . S
C1330 O1381 1.325 . S
C1331 N1332 1.279 . S
C1331 C1334 1.358 . S
C1331 H1388 0.930 . S
N1332 C1331 1.279 . S
N1332 C1335 1.314 . S
C1333 C1330 1.348 . S
C1333 C1335 1.353 . S
C1333 H1389 0.929 . S
C1334 C1330 1.356 . S
C1334 C1331 1.358 . S
C1334 H1390 0.930 . S
C1335 N1332 1.314 . S
C1335 C1333 1.353 . S
C1335 H1391 0.930 . S
C1336 N1337 1.314 . S
C1336 C1341 1.353 . S
C1336 H1342 0.930 . S
N1337 Li1320 1.990 . S
N1337 C1336 1.314 . S
N1337 C1339 1.279 . S
C1338 C1339 1.358 . S
C1338 C1340 1.356 . S
C1338 H1392 0.930 . S
C1339 N1337 1.279 . S
C1339 C1338 1.358 . S
C1339 H1343 0.930 . S
C1340 C1338 1.356 . S
C1340 C1341 1.348 . S
C1341 C1336 1.353 . S
C1341 C1340 1.348 . S
C1341 H1393 0.929 . S
H1342 C1336 0.930 . S
H1343 C1339 0.930 . S
C1344 N1345 1.314 . S
C1344 C1346 1.353 . S
C1344 H1350 0.930 . S
N1345 Li1321 1.990 . S
N1345 C1344 1.314 . S
N1345 C1348 1.279 . S
C1346 C1344 1.353 . S
C1346 C1349 1.348 . S
C1346 H1394 0.929 . S
C1347 C1348 1.358 . S
C1347 C1349 1.356 . S
C1347 H1395 0.930 . S
C1348 N1345 1.279 . S
C1348 C1347 1.358 . S
C1348 H1351 0.930 . S
C1349 C1346 1.348 . S
C1349 C1347 1.356 . S
H1350 C1344 0.930 . S
H1351 C1348 0.930 . S
C1352 C1354 1.348 . S
C1352 C1355 1.356 . S
C1352 O1382 1.325 . S
N1353 C1356 1.314 . S
N1353 C1357 1.279 . S
C1354 C1352 1.348 . S
C1354 C1356 1.353 . S
C1354 H1396 0.929 . S
C1355 C1352 1.356 . S
C1355 C1357 1.358 . S
C1355 H1397 0.930 . S
C1356 N1353 1.314 . S
C1356 C1354 1.353 . S
C1356 H1398 0.930 . S
C1357 N1353 1.279 . S
C1357 C1355 1.358 . S
C1357 H1399 0.930 . S
C1358 C1359 1.348 . S
C1358 C1360 1.356 . S
C1358 O1383 1.325 . S
C1359 C1358 1.348 . S
C1359 C1361 1.353 . S
C1359 H1400 0.929 . S
C1360 C1358 1.356 . S
C1360 C1362 1.358 . S
C1360 H1401 0.930 . S
C1361 C1359 1.353 . S
C1361 N1363 1.314 . S
C1361 H1402 0.930 . S
C1362 C1360 1.358 . S
C1362 N1363 1.279 . S
C1362 H1403 0.930 . S
N1363 C1361 1.314 . S
N1363 C1362 1.279 . S
C1364 C1366 1.353 . S
C1364 N1367 1.314 . S
C1364 H1370 0.930 . S
C1365 N1367 1.279 . S
C1365 C1368 1.358 . S
C1365 H1371 0.930 . S
C1366 C1364 1.353 . S
C1366 C1369 1.348 . S
C1366 H1404 0.929 . S
N1367 Li1322 1.990 . S
N1367 C1364 1.314 . S
N1367 C1365 1.279 . S
C1368 C1365 1.358 . S
C1368 C1369 1.356 . S
C1368 H1405 0.930 . S
C1369 C1366 1.348 . S
C1369 C1368 1.356 . S
H1370 C1364 0.930 . S
H1371 C1365 0.930 . S
C1372 N1373 1.314 . S
C1372 C1374 1.353 . S
C1372 H1378 0.930 . S
N1373 Li1323 1.990 . S
N1373 C1372 1.314 . S
N1373 C1376 1.279 . S
C1374 C1372 1.353 . S
C1374 C1377 1.348 . S
C1374 H1406 0.929 . S
C1375 C1376 1.358 . S
C1375 C1377 1.356 . S
C1375 H1407 0.930 . S
C1376 N1373 1.279 . S
C1376 C1375 1.358 . S
C1376 H1379 0.930 . S
C1377 C1374 1.348 . S
C1377 C1375 1.356 . S
H1378 C1372 0.930 . S
H1379 C1376 0.930 . S
O1380 Li1320 1.956 . S
O1380 Li1321 1.970 . S
O1380 Li1322 1.961 . S
O1380 C1324 1.325 . S
O1381 Li1320 1.970 . S
O1381 Li1321 1.956 . S
O1381 Li1323 1.961 . S
O1381 C1330 1.325 . S
O1382 Li1320 1.961 . S
O1382 Li1322 1.956 . S
O1382 Li1323 1.970 . S
O1382 C1352 1.325 . S
O1383 Li1321 1.961 . S
O1383 Li1322 1.970 . S
O1383 Li1323 1.956 . S
O1383 C1358 1.325 . S
H1384 C1326 0.929 . S
H1385 C1327 0.930 . S
H1386 C1328 0.930 . S
H1387 C1329 0.930 . S
H1388 C1331 0.930 . S
H1389 C1333 0.929 . S
H1390 C1334 0.930 . S
H1391 C1335 0.930 . S
H1392 C1338 0.930 . S
H1393 C1341 0.929 . S
H1394 C1346 0.929 . S
H1395 C1347 0.930 . S
H1396 C1354 0.929 . S
H1397 C1355 0.930 . S
H1398 C1356 0.930 . S
H1399 C1357 0.930 . S
H1400 C1359 0.929 . S
H1401 C1360 0.930 . S
H1402 C1361 0.930 . S
H1403 C1362 0.930 . S
H1404 C1366 0.929 . S
H1405 C1368 0.930 . S
H1406 C1374 0.929 . S
H1407 C1375 0.930 . S
Li1408 N1425 1.990 . S
Li1408 O1468 1.956 . S
Li1408 O1469 1.970 . S
Li1408 O1470 1.961 . S
Li1409 N1433 1.990 . S
Li1409 O1468 1.970 . S
Li1409 O1469 1.956 . S
Li1409 O1471 1.961 . S
Li1410 N1455 1.990 . S
Li1410 O1468 1.961 . S
Li1410 O1470 1.956 . S
Li1410 O1471 1.970 . S
Li1411 N1461 1.990 . S
Li1411 O1469 1.961 1_565 S
Li1411 O1470 1.970 1_565 S
Li1411 O1471 1.956 1_565 S
C1412 C1414 1.348 . S
C1412 C1415 1.356 . S
C1412 O1468 1.325 . S
N1413 C1416 1.314 . S
N1413 C1417 1.279 . S
C1414 C1412 1.348 . S
C1414 C1416 1.353 . S
C1414 H1472 0.929 . S
C1415 C1412 1.356 . S
C1415 C1417 1.358 . S
C1415 H1473 0.930 . S
C1416 N1413 1.314 . S
C1416 C1414 1.353 . S
C1416 H1474 0.930 . S
C1417 N1413 1.279 . S
C1417 C1415 1.358 . S
C1417 H1475 0.930 . S
C1418 C1421 1.348 . S
C1418 C1422 1.356 . S
C1418 O1469 1.325 1_565 S
C1419 N1420 1.279 . S
C1419 C1422 1.358 . S
C1419 H1476 0.930 . S
N1420 C1419 1.279 . S
N1420 C1423 1.314 . S
C1421 C1418 1.348 . S
C1421 C1423 1.353 . S
C1421 H1477 0.929 . S
C1422 C1418 1.356 . S
C1422 C1419 1.358 . S
C1422 H1478 0.930 . S
C1423 N1420 1.314 . S
C1423 C1421 1.353 . S
C1423 H1479 0.930 . S
C1424 N1425 1.314 . S
C1424 C1429 1.352 . S
C1424 H1430 0.930 1_545 S
N1425 Li1408 1.990 . S
N1425 C1424 1.314 . S
N1425 C1427 1.279 . S
C1426 C1427 1.358 . S
C1426 C1428 1.356 . S
C1426 H1480 0.930 . S
C1427 N1425 1.279 . S
C1427 C1426 1.358 . S
C1427 H1431 0.930 . S
C1428 C1426 1.356 . S
C1428 C1429 1.351 . S
C1429 C1424 1.352 . S
C1429 C1428 1.351 . S
C1429 H1481 0.928 1_545 S
H1430 C1424 0.930 1_565 S
H1431 C1427 0.930 . S
C1432 N1433 1.314 . S
C1432 C1434 1.353 . S
C1432 H1438 0.930 . S
N1433 Li1409 1.990 . S
N1433 C1432 1.314 . S
N1433 C1436 1.279 . S
C1434 C1432 1.353 . S
C1434 C1437 1.348 . S
C1434 H1482 0.929 . S
C1435 C1436 1.358 . S
C1435 C1437 1.356 . S
C1435 H1483 0.930 . S
C1436 N1433 1.279 . S
C1436 C1435 1.358 . S
C1436 H1439 0.930 . S
C1437 C1434 1.348 . S
C1437 C1435 1.356 . S
H1438 C1432 0.930 . S
H1439 C1436 0.930 . S
C1440 C1442 1.348 1_545 S
C1440 C1443 1.356 . S
C1440 O1470 1.325 . S
N1441 C1444 1.314 . S
N1441 C1445 1.279 1_565 S
C1442 C1440 1.348 1_565 S
C1442 C1444 1.353 . S
C1442 H1484 0.929 . S
C1443 C1440 1.356 . S
C1443 C1445 1.358 . S
C1443 H1485 0.930 . S
C1444 N1441 1.314 . S
C1444 C1442 1.353 . S
C1444 H1486 0.930 . S
C1445 N1441 1.279 1_545 S
C1445 C1443 1.358 . S
C1445 H1487 0.930 . S
C1446 C1447 1.348 . S
C1446 C1448 1.356 . S
C1446 O1471 1.325 . S
C1447 C1446 1.348 . S
C1447 C1449 1.353 . S
C1447 H1488 0.929 . S
C1448 C1446 1.356 . S
C1448 C1450 1.358 . S
C1448 H1489 0.930 . S
C1449 C1447 1.353 . S
C1449 N1451 1.314 . S
C1449 H1490 0.930 . S
C1450 C1448 1.358 . S
C1450 N1451 1.279 . S
C1450 H1491 0.930 . S
N1451 C1449 1.314 . S
N1451 C1450 1.279 . S
C1452 C1454 1.353 . S
C1452 N1455 1.314 . S
C1452 H1458 0.930 . S
C1453 N1455 1.279 . S
C1453 C1456 1.358 . S
C1453 H1459 0.930 . S
C1454 C1452 1.353 . S
C1454 C1457 1.348 . S
C1454 H1492 0.929 . S
N1455 Li1410 1.990 . S
N1455 C1452 1.314 . S
N1455 C1453 1.279 . S
C1456 C1453 1.358 . S
C1456 C1457 1.356 . S
C1456 H1493 0.930 . S
C1457 C1454 1.348 . S
C1457 C1456 1.356 . S
H1458 C1452 0.930 . S
H1459 C1453 0.930 . S
C1460 N1461 1.314 . S
C1460 C1462 1.353 . S
C1460 H1466 0.930 . S
N1461 Li1411 1.990 . S
N1461 C1460 1.314 . S
N1461 C1464 1.279 . S
C1462 C1460 1.353 . S
C1462 C1465 1.348 . S
C1462 H1494 0.929 . S
C1463 C1464 1.358 . S
C1463 C1465 1.356 . S
C1463 H1495 0.930 . S
C1464 N1461 1.279 . S
C1464 C1463 1.358 . S
C1464 H1467 0.930 . S
C1465 C1462 1.348 . S
C1465 C1463 1.356 . S
H1466 C1460 0.930 . S
H1467 C1464 0.930 . S
O1468 Li1408 1.956 . S
O1468 Li1409 1.970 . S
O1468 Li1410 1.961 . S
O1468 C1412 1.325 . S
O1469 Li1408 1.970 . S
O1469 Li1409 1.956 . S
O1469 Li1411 1.961 1_545 S
O1469 C1418 1.325 1_545 S
O1470 Li1408 1.961 . S
O1470 Li1410 1.956 . S
O1470 Li1411 1.970 1_545 S
O1470 C1440 1.325 . S
O1471 Li1409 1.961 . S
O1471 Li1410 1.970 . S
O1471 Li1411 1.956 1_545 S
O1471 C1446 1.325 . S
H1472 C1414 0.929 . S
H1473 C1415 0.930 . S
H1474 C1416 0.930 . S
H1475 C1417 0.930 . S
H1476 C1419 0.930 . S
H1477 C1421 0.929 . S
H1478 C1422 0.930 . S
H1479 C1423 0.930 . S
H1480 C1426 0.930 . S
H1481 C1429 0.928 1_565 S
H1482 C1434 0.929 . S
H1483 C1435 0.930 . S
H1484 C1442 0.929 . S
H1485 C1443 0.930 . S
H1486 C1444 0.930 . S
H1487 C1445 0.930 . S
H1488 C1447 0.929 . S
H1489 C1448 0.930 . S
H1490 C1449 0.930 . S
H1491 C1450 0.930 . S
H1492 C1454 0.929 . S
H1493 C1456 0.930 . S
H1494 C1462 0.929 . S
H1495 C1463 0.930 . S
Li1496 N1513 1.990 . S
Li1496 O1556 1.956 . S
Li1496 O1557 1.970 . S
Li1496 O1558 1.961 . S
Li1497 N1521 1.990 . S
Li1497 O1556 1.970 . S
Li1497 O1557 1.956 . S
Li1497 O1559 1.961 . S
Li1498 N1543 1.990 . S
Li1498 O1556 1.961 1_455 S
Li1498 O1558 1.956 1_455 S
Li1498 O1559 1.970 1_455 S
Li1499 N1549 1.990 . S
Li1499 O1557 1.961 . S
Li1499 O1558 1.970 . S
Li1499 O1559 1.956 . S
C1500 C1502 1.348 . S
C1500 C1503 1.356 . S
C1500 O1556 1.325 1_455 S
N1501 C1504 1.314 . S
N1501 C1505 1.279 . S
C1502 C1500 1.348 . S
C1502 C1504 1.353 . S
C1502 H1560 0.929 . S
C1503 C1500 1.356 . S
C1503 C1505 1.358 . S
C1503 H1561 0.930 . S
C1504 N1501 1.314 . S
C1504 C1502 1.353 . S
C1504 H1562 0.930 . S
C1505 N1501 1.279 . S
C1505 C1503 1.358 . S
C1505 H1563 0.930 . S
C1506 C1509 1.348 . S
C1506 C1510 1.356 . S
C1506 O1557 1.325 . S
C1507 N1508 1.279 . S
C1507 C1510 1.358 . S
C1507 H1564 0.930 . S
N1508 C1507 1.279 . S
N1508 C1511 1.314 . S
C1509 C1506 1.348 . S
C1509 C1511 1.353 . S
C1509 H1565 0.929 . S
C1510 C1506 1.356 . S
C1510 C1507 1.358 . S
C1510 H1566 0.930 . S
C1511 N1508 1.314 . S
C1511 C1509 1.353 . S
C1511 H1567 0.930 . S
C1512 N1513 1.314 . S
C1512 C1517 1.353 . S
C1512 H1518 0.930 . S
N1513 Li1496 1.990 . S
N1513 C1512 1.314 . S
N1513 C1515 1.279 . S
C1514 C1515 1.358 . S
C1514 C1516 1.356 . S
C1514 H1568 0.930 . S
C1515 N1513 1.279 . S
C1515 C1514 1.358 . S
C1515 H1519 0.930 . S
C1516 C1514 1.356 . S
C1516 C1517 1.348 . S
C1517 C1512 1.353 . S
C1517 C1516 1.348 . S
C1517 H1569 0.929 . S
H1518 C1512 0.930 . S
H1519 C1515 0.930 . S
C1520 N1521 1.314 . S
C1520 C1522 1.393 . S
C1520 H1526 0.930 1_655 S
N1521 Li1497 1.990 . S
N1521 C1520 1.314 . S
N1521 C1524 1.279 . S
C1522 C1520 1.393 . S
C1522 C1525 1.373 . S
C1522 H1570 0.867 1_655 S
C1523 C1524 1.358 . S
C1523 C1525 1.356 . S
C1523 H1571 0.930 . S
C1524 N1521 1.279 . S
C1524 C1523 1.358 . S
C1524 H1527 0.930 . S
C1525 C1522 1.373 . S
C1525 C1523 1.356 . S
H1526 C1520 0.930 1_455 S
H1527 C1524 0.930 . S
C1528 C1530 1.348 . S
C1528 C1531 1.356 . S
C1528 O1558 1.325 . S
N1529 C1532 1.314 . S
N1529 C1533 1.279 . S
C1530 C1528 1.348 . S
C1530 C1532 1.353 . S
C1530 H1572 0.929 . S
C1531 C1528 1.356 . S
C1531 C1533 1.358 . S
C1531 H1573 0.930 . S
C1532 N1529 1.314 . S
C1532 C1530 1.353 . S
C1532 H1574 0.930 . S
C1533 N1529 1.279 . S
C1533 C1531 1.358 . S
C1533 H1575 0.930 . S
C1534 C1535 1.348 1_655 S
C1534 C1536 1.356 . S
C1534 O1559 1.325 . S
C1535 C1534 1.348 1_455 S
C1535 C1537 1.353 . S
C1535 H1576 0.929 . S
C1536 C1534 1.356 . S
C1536 C1538 1.358 . S
C1536 H1577 0.930 . S
C1537 C1535 1.353 . S
C1537 N1539 1.314 . S
C1537 H1578 0.930 . S
C1538 C1536 1.358 . S
C1538 N1539 1.279 1_655 S
C1538 H1579 0.930 . S
N1539 C1537 1.314 . S
N1539 C1538 1.279 1_455 S
C1540 C1542 1.353 . S
C1540 N1543 1.314 . S
C1540 H1546 0.930 . S
C1541 N1543 1.279 . S
C1541 C1544 1.358 . S
C1541 H1547 0.930 . S
C1542 C1540 1.353 . S
C1542 C1545 1.348 . S
C1542 H1580 0.929 . S
N1543 Li1498 1.990 . S
N1543 C1540 1.314 . S
N1543 C1541 1.279 . S
C1544 C1541 1.358 . S
C1544 C1545 1.356 . S
C1544 H1581 0.930 . S
C1545 C1542 1.348 . S
C1545 C1544 1.356 . S
H1546 C1540 0.930 . S
H1547 C1541 0.930 . S
C1548 N1549 1.314 . S
C1548 C1550 1.353 . S
C1548 H1554 0.930 . S
N1549 Li1499 1.990 . S
N1549 C1548 1.314 . S
N1549 C1552 1.279 . S
C1550 C1548 1.353 . S
C1550 C1553 1.348 . S
C1550 H1582 0.929 . S
C1551 C1552 1.358 . S
C1551 C1553 1.356 . S
C1551 H1583 0.930 . S
C1552 N1549 1.279 . S
C1552 C1551 1.358 . S
C1552 H1555 0.930 . S
C1553 C1550 1.348 . S
C1553 C1551 1.356 . S
H1554 C1548 0.930 . S
H1555 C1552 0.930 . S
O1556 Li1496 1.956 . S
O1556 Li1497 1.970 . S
O1556 Li1498 1.961 1_655 S
O1556 C1500 1.325 1_655 S
O1557 Li1496 1.970 . S
O1557 Li1497 1.956 . S
O1557 Li1499 1.961 . S
O1557 C1506 1.325 . S
O1558 Li1496 1.961 . S
O1558 Li1498 1.956 1_655 S
O1558 Li1499 1.970 . S
O1558 C1528 1.325 . S
O1559 Li1497 1.961 . S
O1559 Li1498 1.970 1_655 S
O1559 Li1499 1.956 . S
O1559 C1534 1.325 . S
H1560 C1502 0.929 . S
H1561 C1503 0.930 . S
H1562 C1504 0.930 . S
H1563 C1505 0.930 . S
H1564 C1507 0.930 . S
H1565 C1509 0.929 . S
H1566 C1510 0.930 . S
H1567 C1511 0.930 . S
H1568 C1514 0.930 . S
H1569 C1517 0.929 . S
H1570 C1522 0.867 1_455 S
H1571 C1523 0.930 . S
H1572 C1530 0.929 . S
H1573 C1531 0.930 . S
H1574 C1532 0.930 . S
H1575 C1533 0.930 . S
H1576 C1535 0.929 . S
H1577 C1536 0.930 . S
H1578 C1537 0.930 . S
H1579 C1538 0.930 . S
H1580 C1542 0.929 . S
H1581 C1544 0.930 . S
H1582 C1550 0.929 . S
H1583 C1551 0.930 . S
C1584 C1585 1.384 . S
C1584 C1586 1.384 . S
C1584 H1612 0.931 . S
C1585 C1584 1.384 . S
C1585 C1588 1.382 . S
C1586 C1584 1.384 . S
C1586 C1587 1.381 . S
C1586 H1613 0.930 . S
C1587 C1586 1.381 . S
C1587 C1589 1.381 . S
C1587 C1590 1.487 . S
C1588 C1585 1.382 . S
C1588 C1589 1.387 . S
C1588 H1614 0.930 . S
C1589 C1587 1.381 . S
C1589 C1588 1.387 . S
C1589 H1615 0.931 . S
C1590 C1587 1.487 . S
C1590 C1597 1.399 . S
C1590 N1628 1.343 . S
C1591 C1592 1.384 . S
C1591 C1593 1.384 . S
C1591 H1616 0.931 . S
C1592 C1591 1.384 . S
C1592 C1595 1.382 . S
C1593 C1591 1.384 . S
C1593 C1594 1.381 . S
C1593 H1617 0.930 . S
C1594 C1593 1.381 . S
C1594 C1596 1.381 . S
C1594 C1597 1.487 . S
C1595 C1592 1.382 . S
C1595 C1596 1.387 . S
C1595 H1618 0.930 . S
C1596 C1594 1.381 . S
C1596 C1595 1.387 . S
C1596 H1619 0.931 . S
C1597 C1590 1.399 . S
C1597 C1594 1.487 . S
C1597 N1629 1.343 . S
C1598 C1599 1.384 . S
C1598 C1600 1.384 . S
C1598 H1620 0.931 . S
C1599 C1598 1.384 . S
C1599 C1602 1.382 . S
C1600 C1598 1.384 . S
C1600 C1601 1.381 . S
C1600 H1621 0.930 . S
C1601 C1600 1.381 . S
C1601 C1603 1.381 . S
C1601 C1604 1.487 . S
C1602 C1599 1.382 . S
C1602 C1603 1.387 . S
C1602 H1622 0.930 . S
C1603 C1601 1.381 . S
C1603 C1602 1.387 . S
C1603 H1623 0.931 . S
C1604 C1601 1.487 . S
C1604 C1611 1.399 . S
C1604 N1629 1.343 . S
C1605 C1606 1.384 . S
C1605 C1607 1.384 . S
C1605 H1624 0.931 . S
C1606 C1605 1.384 . S
C1606 C1609 1.382 . S
C1607 C1605 1.384 . S
C1607 C1608 1.381 . S
C1607 H1625 0.930 . S
C1608 C1607 1.381 . S
C1608 C1610 1.381 . S
C1608 C1611 1.487 . S
C1609 C1606 1.382 . S
C1609 C1610 1.387 . S
C1609 H1626 0.930 . S
C1610 C1608 1.381 . S
C1610 C1609 1.387 . S
C1610 H1627 0.931 . S
C1611 C1604 1.399 . S
C1611 C1608 1.487 . S
C1611 N1628 1.343 . S
H1612 C1584 0.931 . S
H1613 C1586 0.930 . S
H1614 C1588 0.930 . S
H1615 C1589 0.931 . S
H1616 C1591 0.931 . S
H1617 C1593 0.930 . S
H1618 C1595 0.930 . S
H1619 C1596 0.931 . S
H1620 C1598 0.931 . S
H1621 C1600 0.930 . S
H1622 C1602 0.930 . S
H1623 C1603 0.931 . S
H1624 C1605 0.931 . S
H1625 C1607 0.930 . S
H1626 C1609 0.930 . S
H1627 C1610 0.931 . S
N1628 C1590 1.343 . S
N1628 C1611 1.343 . S
N1629 C1597 1.343 . S
N1629 C1604 1.343 . S
C1630 C1631 1.384 . S
C1630 C1632 1.384 . S
C1630 H1658 0.931 . S
C1631 C1630 1.384 . S
C1631 C1634 1.382 . S
C1632 C1630 1.384 . S
C1632 C1633 1.381 . S
C1632 H1659 0.930 . S
C1633 C1632 1.381 . S
C1633 C1635 1.381 . S
C1633 C1636 1.487 . S
C1634 C1631 1.382 . S
C1634 C1635 1.387 . S
C1634 H1660 0.930 . S
C1635 C1633 1.381 . S
C1635 C1634 1.387 . S
C1635 H1661 0.931 . S
C1636 C1633 1.487 . S
C1636 C1643 1.399 . S
C1636 N1674 1.343 . S
C1637 C1638 1.384 . S
C1637 C1639 1.384 . S
C1637 H1662 0.931 . S
C1638 C1637 1.384 . S
C1638 C1641 1.382 . S
C1639 C1637 1.384 . S
C1639 C1640 1.381 . S
C1639 H1663 0.930 . S
C1640 C1639 1.381 . S
C1640 C1642 1.381 . S
C1640 C1643 1.487 . S
C1641 C1638 1.382 . S
C1641 C1642 1.387 . S
C1641 H1664 0.930 . S
C1642 C1640 1.381 . S
C1642 C1641 1.387 . S
C1642 H1665 0.931 . S
C1643 C1636 1.399 . S
C1643 C1640 1.487 . S
C1643 N1675 1.343 . S
C1644 C1645 1.384 . S
C1644 C1646 1.384 . S
C1644 H1666 0.931 . S
C1645 C1644 1.384 . S
C1645 C1648 1.382 . S
C1646 C1644 1.384 . S
C1646 C1647 1.381 . S
C1646 H1667 0.930 . S
C1647 C1646 1.381 . S
C1647 C1649 1.381 . S
C1647 C1650 1.487 . S
C1648 C1645 1.382 . S
C1648 C1649 1.387 . S
C1648 H1668 0.930 . S
C1649 C1647 1.381 . S
C1649 C1648 1.387 . S
C1649 H1669 0.931 . S
C1650 C1647 1.487 . S
C1650 C1657 1.399 . S
C1650 N1675 1.343 . S
C1651 C1652 1.384 . S
C1651 C1653 1.384 . S
C1651 H1670 0.931 . S
C1652 C1651 1.384 . S
C1652 C1655 1.382 . S
C1653 C1651 1.384 . S
C1653 C1654 1.381 . S
C1653 H1671 0.930 . S
C1654 C1653 1.381 . S
C1654 C1656 1.381 . S
C1654 C1657 1.487 . S
C1655 C1652 1.382 . S
C1655 C1656 1.387 . S
C1655 H1672 0.930 . S
C1656 C1654 1.381 . S
C1656 C1655 1.387 . S
C1656 H1673 0.931 . S
C1657 C1650 1.399 . S
C1657 C1654 1.487 . S
C1657 N1674 1.343 . S
H1658 C1630 0.931 . S
H1659 C1632 0.930 . S
H1660 C1634 0.930 . S
H1661 C1635 0.931 . S
H1662 C1637 0.931 . S
H1663 C1639 0.930 . S
H1664 C1641 0.930 . S
H1665 C1642 0.931 . S
H1666 C1644 0.931 . S
H1667 C1646 0.930 . S
H1668 C1648 0.930 . S
H1669 C1649 0.931 . S
H1670 C1651 0.931 . S
H1671 C1653 0.930 . S
H1672 C1655 0.930 . S
H1673 C1656 0.931 . S
N1674 C1636 1.343 . S
N1674 C1657 1.343 . S
N1675 C1643 1.343 . S
N1675 C1650 1.343 . S
C1676 C1677 1.384 . S
C1676 C1678 1.384 . S
C1676 H1704 0.931 . S
C1677 C1676 1.384 . S
C1677 C1680 1.382 . S
C1678 C1676 1.384 . S
C1678 C1679 1.381 . S
C1678 H1705 0.930 . S
C1679 C1678 1.381 . S
C1679 C1681 1.381 . S
C1679 C1682 1.487 . S
C1680 C1677 1.382 . S
C1680 C1681 1.387 . S
C1680 H1706 0.930 . S
C1681 C1679 1.381 . S
C1681 C1680 1.387 . S
C1681 H1707 0.931 . S
C1682 C1679 1.487 . S
C1682 C1689 1.399 . S
C1682 N1720 1.343 . S
C1683 C1684 1.384 . S
C1683 C1685 1.384 . S
C1683 H1708 0.931 . S
C1684 C1683 1.384 . S
C1684 C1687 1.382 . S
C1685 C1683 1.384 . S
C1685 C1686 1.381 . S
C1685 H1709 0.930 . S
C1686 C1685 1.381 . S
C1686 C1688 1.381 . S
C1686 C1689 1.487 . S
C1687 C1684 1.382 . S
C1687 C1688 1.387 . S
C1687 H1710 0.930 . S
C1688 C1686 1.381 . S
C1688 C1687 1.387 . S
C1688 H1711 0.931 . S
C1689 C1682 1.399 . S
C1689 C1686 1.487 . S
C1689 N1721 1.343 . S
C1690 C1691 1.384 . S
C1690 C1692 1.384 . S
C1690 H1712 0.931 . S
C1691 C1690 1.384 . S
C1691 C1694 1.382 . S
C1692 C1690 1.384 . S
C1692 C1693 1.381 . S
C1692 H1713 0.930 . S
C1693 C1692 1.381 . S
C1693 C1695 1.381 . S
C1693 C1696 1.487 . S
C1694 C1691 1.382 . S
C1694 C1695 1.387 . S
C1694 H1714 0.930 . S
C1695 C1693 1.381 . S
C1695 C1694 1.387 . S
C1695 H1715 0.931 . S
C1696 C1693 1.487 . S
C1696 C1703 1.399 . S
C1696 N1721 1.343 . S
C1697 C1698 1.384 . S
C1697 C1699 1.384 . S
C1697 H1716 0.931 . S
C1698 C1697 1.384 . S
C1698 C1701 1.382 . S
C1699 C1697 1.384 . S
C1699 C1700 1.381 . S
C1699 H1717 0.930 . S
C1700 C1699 1.381 . S
C1700 C1702 1.381 . S
C1700 C1703 1.487 . S
C1701 C1698 1.382 . S
C1701 C1702 1.387 . S
C1701 H1718 0.930 . S
C1702 C1700 1.381 . S
C1702 C1701 1.387 . S
C1702 H1719 0.931 . S
C1703 C1696 1.399 . S
C1703 C1700 1.487 . S
C1703 N1720 1.343 . S
H1704 C1676 0.931 . S
H1705 C1678 0.930 . S
H1706 C1680 0.930 . S
H1707 C1681 0.931 . S
H1708 C1683 0.931 . S
H1709 C1685 0.930 . S
H1710 C1687 0.930 . S
H1711 C1688 0.931 . S
H1712 C1690 0.931 . S
H1713 C1692 0.930 . S
H1714 C1694 0.930 . S
H1715 C1695 0.931 . S
H1716 C1697 0.931 . S
H1717 C1699 0.930 . S
H1718 C1701 0.930 . S
H1719 C1702 0.931 . S
N1720 C1682 1.343 . S
N1720 C1703 1.343 . S
N1721 C1689 1.343 . S
N1721 C1696 1.343 . S
C1722 C1723 1.384 . S
C1722 C1724 1.384 . S
C1722 H1750 0.931 . S
C1723 C1722 1.384 . S
C1723 C1726 1.382 . S
C1724 C1722 1.384 . S
C1724 C1725 1.381 . S
C1724 H1751 0.930 . S
C1725 C1724 1.381 . S
C1725 C1727 1.381 . S
C1725 C1728 1.487 . S
C1726 C1723 1.382 . S
C1726 C1727 1.387 . S
C1726 H1752 0.930 . S
C1727 C1725 1.381 . S
C1727 C1726 1.387 . S
C1727 H1753 0.931 . S
C1728 C1725 1.487 . S
C1728 C1735 1.399 . S
C1728 N1766 1.343 . S
C1729 C1730 1.384 . S
C1729 C1731 1.384 . S
C1729 H1754 0.931 . S
C1730 C1729 1.384 . S
C1730 C1733 1.382 . S
C1731 C1729 1.384 . S
C1731 C1732 1.381 . S
C1731 H1755 0.930 . S
C1732 C1731 1.381 . S
C1732 C1734 1.381 . S
C1732 C1735 1.487 . S
C1733 C1730 1.382 . S
C1733 C1734 1.387 . S
C1733 H1756 0.930 . S
C1734 C1732 1.381 . S
C1734 C1733 1.387 . S
C1734 H1757 0.931 . S
C1735 C1728 1.399 . S
C1735 C1732 1.487 . S
C1735 N1767 1.343 . S
C1736 C1737 1.384 . S
C1736 C1738 1.384 . S
C1736 H1758 0.931 . S
C1737 C1736 1.384 . S
C1737 C1740 1.382 . S
C1738 C1736 1.384 . S
C1738 C1739 1.381 . S
C1738 H1759 0.930 . S
C1739 C1738 1.381 . S
C1739 C1741 1.381 . S
C1739 C1742 1.487 . S
C1740 C1737 1.382 . S
C1740 C1741 1.387 . S
C1740 H1760 0.930 . S
C1741 C1739 1.381 . S
C1741 C1740 1.387 . S
C1741 H1761 0.931 . S
C1742 C1739 1.487 . S
C1742 C1749 1.399 . S
C1742 N1767 1.343 . S
C1743 C1744 1.384 . S
C1743 C1745 1.384 . S
C1743 H1762 0.931 . S
C1744 C1743 1.384 . S
C1744 C1747 1.382 . S
C1745 C1743 1.384 . S
C1745 C1746 1.381 . S
C1745 H1763 0.930 . S
C1746 C1745 1.381 . S
C1746 C1748 1.381 . S
C1746 C1749 1.487 . S
C1747 C1744 1.382 . S
C1747 C1748 1.387 . S
C1747 H1764 0.930 . S
C1748 C1746 1.381 . S
C1748 C1747 1.387 . S
C1748 H1765 0.931 . S
C1749 C1742 1.399 . S
C1749 C1746 1.487 . S
C1749 N1766 1.343 . S
H1750 C1722 0.931 . S
H1751 C1724 0.930 . S
H1752 C1726 0.930 . S
H1753 C1727 0.931 . S
H1754 C1729 0.931 . S
H1755 C1731 0.930 . S
H1756 C1733 0.930 . S
H1757 C1734 0.931 . S
H1758 C1736 0.931 . S
H1759 C1738 0.930 . S
H1760 C1740 0.930 . S
H1761 C1741 0.931 . S
H1762 C1743 0.931 . S
H1763 C1745 0.930 . S
H1764 C1747 0.930 . S
H1765 C1748 0.931 . S
N1766 C1728 1.343 . S
N1766 C1749 1.343 . S
N1767 C1735 1.343 . S
N1767 C1742 1.343 . S
C1768 C1769 1.384 . S
C1768 C1770 1.384 . S
C1768 H1796 0.931 . S
C1769 C1768 1.384 . S
C1769 C1772 1.382 . S
C1770 C1768 1.384 . S
C1770 C1771 1.381 . S
C1770 H1797 0.930 . S
C1771 C1770 1.381 . S
C1771 C1773 1.381 . S
C1771 C1774 1.487 . S
C1772 C1769 1.382 . S
C1772 C1773 1.387 . S
C1772 H1798 0.930 . S
C1773 C1771 1.381 . S
C1773 C1772 1.387 . S
C1773 H1799 0.931 . S
C1774 C1771 1.487 . S
C1774 C1781 1.399 . S
C1774 N1812 1.343 . S
C1775 C1776 1.384 . S
C1775 C1777 1.384 . S
C1775 H1800 0.931 . S
C1776 C1775 1.384 . S
C1776 C1779 1.382 . S
C1777 C1775 1.384 . S
C1777 C1778 1.381 . S
C1777 H1801 0.930 . S
C1778 C1777 1.381 . S
C1778 C1780 1.381 . S
C1778 C1781 1.487 . S
C1779 C1776 1.382 . S
C1779 C1780 1.387 . S
C1779 H1802 0.930 . S
C1780 C1778 1.381 . S
C1780 C1779 1.387 . S
C1780 H1803 0.931 . S
C1781 C1774 1.399 . S
C1781 C1778 1.487 . S
C1781 N1813 1.343 . S
C1782 C1783 1.384 . S
C1782 C1784 1.384 . S
C1782 H1804 0.931 . S
C1783 C1782 1.384 . S
C1783 C1786 1.382 . S
C1784 C1782 1.384 . S
C1784 C1785 1.381 . S
C1784 H1805 0.930 . S
C1785 C1784 1.381 . S
C1785 C1787 1.381 . S
C1785 C1788 1.487 . S
C1786 C1783 1.382 . S
C1786 C1787 1.387 . S
C1786 H1806 0.930 . S
C1787 C1785 1.381 . S
C1787 C1786 1.387 . S
C1787 H1807 0.931 . S
C1788 C1785 1.487 . S
C1788 C1795 1.399 . S
C1788 N1813 1.343 . S
C1789 C1790 1.384 . S
C1789 C1791 1.384 . S
C1789 H1808 0.931 . S
C1790 C1789 1.384 . S
C1790 C1793 1.382 . S
C1791 C1789 1.384 . S
C1791 C1792 1.381 . S
C1791 H1809 0.930 . S
C1792 C1791 1.381 . S
C1792 C1794 1.381 . S
C1792 C1795 1.487 . S
C1793 C1790 1.382 . S
C1793 C1794 1.387 . S
C1793 H1810 0.930 . S
C1794 C1792 1.381 . S
C1794 C1793 1.387 . S
C1794 H1811 0.931 . S
C1795 C1788 1.399 . S
C1795 C1792 1.487 . S
C1795 N1812 1.343 . S
H1796 C1768 0.931 . S
H1797 C1770 0.930 . S
H1798 C1772 0.930 . S
H1799 C1773 0.931 . S
H1800 C1775 0.931 . S
H1801 C1777 0.930 . S
H1802 C1779 0.930 . S
H1803 C1780 0.931 . S
H1804 C1782 0.931 . S
H1805 C1784 0.930 . S
H1806 C1786 0.930 . S
H1807 C1787 0.931 . S
H1808 C1789 0.931 . S
H1809 C1791 0.930 . S
H1810 C1793 0.930 . S
H1811 C1794 0.931 . S
N1812 C1774 1.343 . S
N1812 C1795 1.343 . S
N1813 C1781 1.343 . S
N1813 C1788 1.343 . S
C1814 C1815 1.384 . S
C1814 C1816 1.384 . S
C1814 H1842 0.931 . S
C1815 C1814 1.384 . S
C1815 C1818 1.382 . S
C1816 C1814 1.384 . S
C1816 C1817 1.381 . S
C1816 H1843 0.930 . S
C1817 C1816 1.381 . S
C1817 C1819 1.381 . S
C1817 C1820 1.487 . S
C1818 C1815 1.382 . S
C1818 C1819 1.387 . S
C1818 H1844 0.930 . S
C1819 C1817 1.381 . S
C1819 C1818 1.387 . S
C1819 H1845 0.931 . S
C1820 C1817 1.487 . S
C1820 C1827 1.399 . S
C1820 N1858 1.343 . S
C1821 C1822 1.384 . S
C1821 C1823 1.384 . S
C1821 H1846 0.931 . S
C1822 C1821 1.384 . S
C1822 C1825 1.382 . S
C1823 C1821 1.384 . S
C1823 C1824 1.381 . S
C1823 H1847 0.930 . S
C1824 C1823 1.381 . S
C1824 C1826 1.381 . S
C1824 C1827 1.487 . S
C1825 C1822 1.382 . S
C1825 C1826 1.387 . S
C1825 H1848 0.930 . S
C1826 C1824 1.381 . S
C1826 C1825 1.387 . S
C1826 H1849 0.931 . S
C1827 C1820 1.399 . S
C1827 C1824 1.487 . S
C1827 N1859 1.343 . S
C1828 C1829 1.384 . S
C1828 C1830 1.384 . S
C1828 H1850 0.931 . S
C1829 C1828 1.384 . S
C1829 C1832 1.382 . S
C1830 C1828 1.384 . S
C1830 C1831 1.381 . S
C1830 H1851 0.930 . S
C1831 C1830 1.381 . S
C1831 C1833 1.381 . S
C1831 C1834 1.487 . S
C1832 C1829 1.382 . S
C1832 C1833 1.387 . S
C1832 H1852 0.930 . S
C1833 C1831 1.381 . S
C1833 C1832 1.387 . S
C1833 H1853 0.931 . S
C1834 C1831 1.487 . S
C1834 C1841 1.399 . S
C1834 N1859 1.343 . S
C1835 C1836 1.384 . S
C1835 C1837 1.384 . S
C1835 H1854 0.931 . S
C1836 C1835 1.384 . S
C1836 C1839 1.382 . S
C1837 C1835 1.384 . S
C1837 C1838 1.381 . S
C1837 H1855 0.930 . S
C1838 C1837 1.381 . S
C1838 C1840 1.381 . S
C1838 C1841 1.487 . S
C1839 C1836 1.382 . S
C1839 C1840 1.387 . S
C1839 H1856 0.930 . S
C1840 C1838 1.381 . S
C1840 C1839 1.387 . S
C1840 H1857 0.931 . S
C1841 C1834 1.399 . S
C1841 C1838 1.487 . S
C1841 N1858 1.343 . S
H1842 C1814 0.931 . S
H1843 C1816 0.930 . S
H1844 C1818 0.930 . S
H1845 C1819 0.931 . S
H1846 C1821 0.931 . S
H1847 C1823 0.930 . S
H1848 C1825 0.930 . S
H1849 C1826 0.931 . S
H1850 C1828 0.931 . S
H1851 C1830 0.930 . S
H1852 C1832 0.930 . S
H1853 C1833 0.931 . S
H1854 C1835 0.931 . S
H1855 C1837 0.930 . S
H1856 C1839 0.930 . S
H1857 C1840 0.931 . S
N1858 C1820 1.343 . S
N1858 C1841 1.343 . S
N1859 C1827 1.343 . S
N1859 C1834 1.343 . S
C1860 C1861 1.384 . S
C1860 C1862 1.384 . S
C1860 H1888 0.931 . S
C1861 C1860 1.384 . S
C1861 C1864 1.382 . S
C1862 C1860 1.384 . S
C1862 C1863 1.381 . S
C1862 H1889 0.930 . S
C1863 C1862 1.381 . S
C1863 C1865 1.381 . S
C1863 C1866 1.487 . S
C1864 C1861 1.382 . S
C1864 C1865 1.387 . S
C1864 H1890 0.930 . S
C1865 C1863 1.381 . S
C1865 C1864 1.387 . S
C1865 H1891 0.931 . S
C1866 C1863 1.487 . S
C1866 C1873 1.399 . S
C1866 N1904 1.343 . S
C1867 C1868 1.384 . S
C1867 C1869 1.384 . S
C1867 H1892 0.931 . S
C1868 C1867 1.384 . S
C1868 C1871 1.382 . S
C1869 C1867 1.384 . S
C1869 C1870 1.381 . S
C1869 H1893 0.930 . S
C1870 C1869 1.381 . S
C1870 C1872 1.381 . S
C1870 C1873 1.487 . S
C1871 C1868 1.382 . S
C1871 C1872 1.387 . S
C1871 H1894 0.930 . S
C1872 C1870 1.381 . S
C1872 C1871 1.387 . S
C1872 H1895 0.931 . S
C1873 C1866 1.399 . S
C1873 C1870 1.487 . S
C1873 N1905 1.343 . S
C1874 C1875 1.384 . S
C1874 C1876 1.384 . S
C1874 H1896 0.931 . S
C1875 C1874 1.384 . S
C1875 C1878 1.382 . S
C1876 C1874 1.384 . S
C1876 C1877 1.381 . S
C1876 H1897 0.930 . S
C1877 C1876 1.381 . S
C1877 C1879 1.381 . S
C1877 C1880 1.487 . S
C1878 C1875 1.382 . S
C1878 C1879 1.387 . S
C1878 H1898 0.930 . S
C1879 C1877 1.381 . S
C1879 C1878 1.387 . S
C1879 H1899 0.931 . S
C1880 C1877 1.487 . S
C1880 C1887 1.399 . S
C1880 N1905 1.343 . S
C1881 C1882 1.384 . S
C1881 C1883 1.384 . S
C1881 H1900 0.931 . S
C1882 C1881 1.384 . S
C1882 C1885 1.382 . S
C1883 C1881 1.384 . S
C1883 C1884 1.381 . S
C1883 H1901 0.930 . S
C1884 C1883 1.381 . S
C1884 C1886 1.381 . S
C1884 C1887 1.487 . S
C1885 C1882 1.382 . S
C1885 C1886 1.387 . S
C1885 H1902 0.930 . S
C1886 C1884 1.381 . S
C1886 C1885 1.387 . S
C1886 H1903 0.931 . S
C1887 C1880 1.399 . S
C1887 C1884 1.487 . S
C1887 N1904 1.343 . S
H1888 C1860 0.931 . S
H1889 C1862 0.930 . S
H1890 C1864 0.930 . S
H1891 C1865 0.931 . S
H1892 C1867 0.931 . S
H1893 C1869 0.930 . S
H1894 C1871 0.930 . S
H1895 C1872 0.931 . S
H1896 C1874 0.931 . S
H1897 C1876 0.930 . S
H1898 C1878 0.930 . S
H1899 C1879 0.931 . S
H1900 C1881 0.931 . S
H1901 C1883 0.930 . S
H1902 C1885 0.930 . S
H1903 C1886 0.931 . S
N1904 C1866 1.343 . S
N1904 C1887 1.343 . S
N1905 C1873 1.343 . S
N1905 C1880 1.343 . S
C1906 C1907 1.384 . S
C1906 C1908 1.384 . S
C1906 H1934 0.931 . S
C1907 C1906 1.384 . S
C1907 C1910 1.382 . S
C1908 C1906 1.384 . S
C1908 C1909 1.381 . S
C1908 H1935 0.930 . S
C1909 C1908 1.381 . S
C1909 C1911 1.381 . S
C1909 C1912 1.487 . S
C1910 C1907 1.382 . S
C1910 C1911 1.387 . S
C1910 H1936 0.930 . S
C1911 C1909 1.381 . S
C1911 C1910 1.387 . S
C1911 H1937 0.931 . S
C1912 C1909 1.487 . S
C1912 C1919 1.399 . S
C1912 N1950 1.343 . S
C1913 C1914 1.384 . S
C1913 C1915 1.384 . S
C1913 H1938 0.931 . S
C1914 C1913 1.384 . S
C1914 C1917 1.382 . S
C1915 C1913 1.384 . S
C1915 C1916 1.381 . S
C1915 H1939 0.930 . S
C1916 C1915 1.381 . S
C1916 C1918 1.381 . S
C1916 C1919 1.487 . S
C1917 C1914 1.382 . S
C1917 C1918 1.387 . S
C1917 H1940 0.930 . S
C1918 C1916 1.381 . S
C1918 C1917 1.387 . S
C1918 H1941 0.931 . S
C1919 C1912 1.399 . S
C1919 C1916 1.487 . S
C1919 N1951 1.343 . S
C1920 C1921 1.384 . S
C1920 C1922 1.384 . S
C1920 H1942 0.931 . S
C1921 C1920 1.384 . S
C1921 C1924 1.382 . S
C1922 C1920 1.384 . S
C1922 C1923 1.381 . S
C1922 H1943 0.930 . S
C1923 C1922 1.381 . S
C1923 C1925 1.381 . S
C1923 C1926 1.487 . S
C1924 C1921 1.382 . S
C1924 C1925 1.387 . S
C1924 H1944 0.930 . S
C1925 C1923 1.381 . S
C1925 C1924 1.387 . S
C1925 H1945 0.931 . S
C1926 C1923 1.487 . S
C1926 C1933 1.399 . S
C1926 N1951 1.343 . S
C1927 C1928 1.384 . S
C1927 C1929 1.384 . S
C1927 H1946 0.931 . S
C1928 C1927 1.384 . S
C1928 C1931 1.382 . S
C1929 C1927 1.384 . S
C1929 C1930 1.381 . S
C1929 H1947 0.930 . S
C1930 C1929 1.381 . S
C1930 C1932 1.381 . S
C1930 C1933 1.487 . S
C1931 C1928 1.382 . S
C1931 C1932 1.387 . S
C1931 H1948 0.930 . S
C1932 C1930 1.381 . S
C1932 C1931 1.387 . S
C1932 H1949 0.931 . S
C1933 C1926 1.399 . S
C1933 C1930 1.487 . S
C1933 N1950 1.343 . S
H1934 C1906 0.931 . S
H1935 C1908 0.930 . S
H1936 C1910 0.930 . S
H1937 C1911 0.931 . S
H1938 C1913 0.931 . S
H1939 C1915 0.930 . S
H1940 C1917 0.930 . S
H1941 C1918 0.931 . S
H1942 C1920 0.931 . S
H1943 C1922 0.930 . S
H1944 C1924 0.930 . S
H1945 C1925 0.931 . S
H1946 C1927 0.931 . S
H1947 C1929 0.930 . S
H1948 C1931 0.930 . S
H1949 C1932 0.931 . S
N1950 C1912 1.343 . S
N1950 C1933 1.343 . S
N1951 C1919 1.343 . S
N1951 C1926 1.343 . S
C1952 C1953 1.384 . S
C1952 C1954 1.384 . S
C1952 H1980 0.931 . S
C1953 C1952 1.384 . S
C1953 C1956 1.382 . S
C1954 C1952 1.384 . S
C1954 C1955 1.381 . S
C1954 H1981 0.930 . S
C1955 C1954 1.381 . S
C1955 C1957 1.381 . S
C1955 C1958 1.487 . S
C1956 C1953 1.382 . S
C1956 C1957 1.387 . S
C1956 H1982 0.930 . S
C1957 C1955 1.381 . S
C1957 C1956 1.387 . S
C1957 H1983 0.931 . S
C1958 C1955 1.487 . S
C1958 C1965 1.399 . S
C1958 N1996 1.343 . S
C1959 C1960 1.384 . S
C1959 C1961 1.384 . S
C1959 H1984 0.931 . S
C1960 C1959 1.384 . S
C1960 C1963 1.382 . S
C1961 C1959 1.384 . S
C1961 C1962 1.381 . S
C1961 H1985 0.930 . S
C1962 C1961 1.381 . S
C1962 C1964 1.381 . S
C1962 C1965 1.487 . S
C1963 C1960 1.382 . S
C1963 C1964 1.387 . S
C1963 H1986 0.930 . S
C1964 C1962 1.381 . S
C1964 C1963 1.387 . S
C1964 H1987 0.931 . S
C1965 C1958 1.399 . S
C1965 C1962 1.487 . S
C1965 N1997 1.343 . S
C1966 C1967 1.384 . S
C1966 C1968 1.384 . S
C1966 H1988 0.931 . S
C1967 C1966 1.384 . S
C1967 C1970 1.382 . S
C1968 C1966 1.384 . S
C1968 C1969 1.381 . S
C1968 H1989 0.930 . S
C1969 C1968 1.381 . S
C1969 C1971 1.381 . S
C1969 C1972 1.487 . S
C1970 C1967 1.382 . S
C1970 C1971 1.387 . S
C1970 H1990 0.930 . S
C1971 C1969 1.381 . S
C1971 C1970 1.387 . S
C1971 H1991 0.931 . S
C1972 C1969 1.487 . S
C1972 C1979 1.399 . S
C1972 N1997 1.343 . S
C1973 C1974 1.384 . S
C1973 C1975 1.384 . S
C1973 H1992 0.931 . S
C1974 C1973 1.384 . S
C1974 C1977 1.382 . S
C1975 C1973 1.384 . S
C1975 C1976 1.381 . S
C1975 H1993 0.930 . S
C1976 C1975 1.381 . S
C1976 C1978 1.381 . S
C1976 C1979 1.487 . S
C1977 C1974 1.382 . S
C1977 C1978 1.387 . S
C1977 H1994 0.930 . S
C1978 C1976 1.381 . S
C1978 C1977 1.387 . S
C1978 H1995 0.931 . S
C1979 C1972 1.399 . S
C1979 C1976 1.487 . S
C1979 N1996 1.343 . S
H1980 C1952 0.931 . S
H1981 C1954 0.930 . S
H1982 C1956 0.930 . S
H1983 C1957 0.931 . S
H1984 C1959 0.931 . S
H1985 C1961 0.930 . S
H1986 C1963 0.930 . S
H1987 C1964 0.931 . S
H1988 C1966 0.931 . S
H1989 C1968 0.930 . S
H1990 C1970 0.930 . S
H1991 C1971 0.931 . S
H1992 C1973 0.931 . S
H1993 C1975 0.930 . S
H1994 C1977 0.930 . S
H1995 C1978 0.931 . S
N1996 C1958 1.343 . S
N1996 C1979 1.343 . S
N1997 C1965 1.343 . S
N1997 C1972 1.343 . S
C1998 C1999 1.384 . S
C1998 C2000 1.384 . S
C1998 H2026 0.931 . S
C1999 C1998 1.384 . S
C1999 C2002 1.382 1_655 S
C2000 C1998 1.384 . S
C2000 C2001 1.402 . S
C2000 H2027 0.930 . S
C2001 C2000 1.402 . S
C2001 C2003 1.370 1_655 S
C2001 C2004 1.473 1_655 S
C2002 C1999 1.382 1_455 S
C2002 C2003 1.387 . S
C2002 H2028 0.930 . S
C2003 C2001 1.370 1_455 S
C2003 C2002 1.387 . S
C2003 H2029 0.931 . S
C2004 C2001 1.473 1_455 S
C2004 C2011 1.399 1_455 S
C2004 N2042 1.318 . S
C2005 C2006 1.384 . S
C2005 C2007 1.384 . S
C2005 H2030 0.931 . S
C2006 C2005 1.384 . S
C2006 C2009 1.382 1_455 S
C2007 C2005 1.384 . S
C2007 C2008 1.385 . S
C2007 H2031 0.930 . S
C2008 C2007 1.385 . S
C2008 C2010 1.372 1_455 S
C2008 C2011 1.495 1_455 S
C2009 C2006 1.382 1_655 S
C2009 C2010 1.387 . S
C2009 H2032 0.930 . S
C2010 C2008 1.372 1_655 S
C2010 C2009 1.387 . S
C2010 H2033 0.931 . S
C2011 C2004 1.399 1_655 S
C2011 C2008 1.495 1_655 S
C2011 N2043 1.362 . S
C2012 C2013 1.384 . S
C2012 C2014 1.384 . S
C2012 H2034 0.931 . S
C2013 C2012 1.384 . S
C2013 C2016 1.382 1_455 S
C2014 C2012 1.384 . S
C2014 C2015 1.419 . S
C2014 H2035 0.930 . S
C2015 C2014 1.419 . S
C2015 C2017 1.362 1_455 S
C2015 C2018 1.473 1_455 S
C2016 C2013 1.382 1_655 S
C2016 C2017 1.387 . S
C2016 H2036 0.930 . S
C2017 C2015 1.362 1_655 S
C2017 C2016 1.387 . S
C2017 H2037 0.931 . S
C2018 C2015 1.473 1_655 S
C2018 C2025 1.399 1_655 S
C2018 N2043 1.318 . S
C2019 C2020 1.384 . S
C2019 C2021 1.384 . S
C2019 H2038 0.931 . S
C2020 C2019 1.384 . S
C2020 C2023 1.382 1_655 S
C2021 C2019 1.384 . S
C2021 C2022 1.381 . S
C2021 H2039 0.930 . S
C2022 C2021 1.381 . S
C2022 C2024 1.382 1_655 S
C2022 C2025 1.495 1_655 S
C2023 C2020 1.382 1_455 S
C2023 C2024 1.387 . S
C2023 H2040 0.930 . S
C2024 C2022 1.382 1_455 S
C2024 C2023 1.387 . S
C2024 H2041 0.931 . S
C2025 C2018 1.399 1_455 S
C2025 C2022 1.495 1_455 S
C2025 N2042 1.362 . S
H2026 C1998 0.931 . S
H2027 C2000 0.930 . S
H2028 C2002 0.930 . S
H2029 C2003 0.931 . S
H2030 C2005 0.931 . S
H2031 C2007 0.930 . S
H2032 C2009 0.930 . S
H2033 C2010 0.931 . S
H2034 C2012 0.931 . S
H2035 C2014 0.930 . S
H2036 C2016 0.930 . S
H2037 C2017 0.931 . S
H2038 C2019 0.931 . S
H2039 C2021 0.930 . S
H2040 C2023 0.930 . S
H2041 C2024 0.931 . S
N2042 C2004 1.318 . S
N2042 C2025 1.362 . S
N2043 C2011 1.362 . S
N2043 C2018 1.318 . S
C2044 C2045 1.384 . S
C2044 C2046 1.384 . S
C2044 H2072 0.931 . S
C2045 C2044 1.384 . S
C2045 C2048 1.382 . S
C2046 C2044 1.384 . S
C2046 C2047 1.381 . S
C2046 H2073 0.930 . S
C2047 C2046 1.381 . S
C2047 C2049 1.381 . S
C2047 C2050 1.487 . S
C2048 C2045 1.382 . S
C2048 C2049 1.387 . S
C2048 H2074 0.930 . S
C2049 C2047 1.381 . S
C2049 C2048 1.387 . S
C2049 H2075 0.931 . S
C2050 C2047 1.487 . S
C2050 C2057 1.399 . S
C2050 N2088 1.343 . S
C2051 C2052 1.384 . S
C2051 C2053 1.384 . S
C2051 H2076 0.931 . S
C2052 C2051 1.384 . S
C2052 C2055 1.382 . S
C2053 C2051 1.384 . S
C2053 C2054 1.381 . S
C2053 H2077 0.930 . S
C2054 C2053 1.381 . S
C2054 C2056 1.381 . S
C2054 C2057 1.487 . S
C2055 C2052 1.382 . S
C2055 C2056 1.387 . S
C2055 H2078 0.930 . S
C2056 C2054 1.381 . S
C2056 C2055 1.387 . S
C2056 H2079 0.931 . S
C2057 C2050 1.399 . S
C2057 C2054 1.487 . S
C2057 N2089 1.343 . S
C2058 C2059 1.384 . S
C2058 C2060 1.384 . S
C2058 H2080 0.931 . S
C2059 C2058 1.384 . S
C2059 C2062 1.382 . S
C2060 C2058 1.384 . S
C2060 C2061 1.381 . S
C2060 H2081 0.930 . S
C2061 C2060 1.381 . S
C2061 C2063 1.381 . S
C2061 C2064 1.487 . S
C2062 C2059 1.382 . S
C2062 C2063 1.387 . S
C2062 H2082 0.930 . S
C2063 C2061 1.381 . S
C2063 C2062 1.387 . S
C2063 H2083 0.931 . S
C2064 C2061 1.487 . S
C2064 C2071 1.399 . S
C2064 N2089 1.343 . S
C2065 C2066 1.384 . S
C2065 C2067 1.384 . S
C2065 H2084 0.931 . S
C2066 C2065 1.384 . S
C2066 C2069 1.382 . S
C2067 C2065 1.384 . S
C2067 C2068 1.381 . S
C2067 H2085 0.930 . S
C2068 C2067 1.381 . S
C2068 C2070 1.381 . S
C2068 C2071 1.487 . S
C2069 C2066 1.382 . S
C2069 C2070 1.387 . S
C2069 H2086 0.930 . S
C2070 C2068 1.381 . S
C2070 C2069 1.387 . S
C2070 H2087 0.931 . S
C2071 C2064 1.399 . S
C2071 C2068 1.487 . S
C2071 N2088 1.343 . S
H2072 C2044 0.931 . S
H2073 C2046 0.930 . S
H2074 C2048 0.930 . S
H2075 C2049 0.931 . S
H2076 C2051 0.931 . S
H2077 C2053 0.930 . S
H2078 C2055 0.930 . S
H2079 C2056 0.931 . S
H2080 C2058 0.931 . S
H2081 C2060 0.930 . S
H2082 C2062 0.930 . S
H2083 C2063 0.931 . S
H2084 C2065 0.931 . S
H2085 C2067 0.930 . S
H2086 C2069 0.930 . S
H2087 C2070 0.931 . S
N2088 C2050 1.343 . S
N2088 C2071 1.343 . S
N2089 C2057 1.343 . S
N2089 C2064 1.343 . S
C2090 C2091 1.384 1_545 S
C2090 C2092 1.384 . S
C2090 H2118 0.931 . S
C2091 C2090 1.384 1_565 S
C2091 C2094 1.382 . S
C2092 C2090 1.384 . S
C2092 C2093 1.381 1_545 S
C2092 H2119 0.930 . S
C2093 C2092 1.381 1_565 S
C2093 C2095 1.381 . S
C2093 C2096 1.487 . S
C2094 C2091 1.382 . S
C2094 C2095 1.387 . S
C2094 H2120 0.930 . S
C2095 C2093 1.381 . S
C2095 C2094 1.387 . S
C2095 H2121 0.931 . S
C2096 C2093 1.487 . S
C2096 C2103 1.399 1_565 S
C2096 N2134 1.343 . S
C2097 C2098 1.384 1_565 S
C2097 C2099 1.384 . S
C2097 H2122 0.931 . S
C2098 C2097 1.384 1_545 S
C2098 C2101 1.382 . S
C2099 C2097 1.384 . S
C2099 C2100 1.381 1_565 S
C2099 H2123 0.930 . S
C2100 C2099 1.381 1_545 S
C2100 C2102 1.381 . S
C2100 C2103 1.487 . S
C2101 C2098 1.382 . S
C2101 C2102 1.387 . S
C2101 H2124 0.930 . S
C2102 C2100 1.381 . S
C2102 C2101 1.387 . S
C2102 H2125 0.931 . S
C2103 C2096 1.399 1_545 S
C2103 C2100 1.487 . S
C2103 N2135 1.343 . S
C2104 C2105 1.384 1_565 S
C2104 C2106 1.384 . S
C2104 H2126 0.931 . S
C2105 C2104 1.384 1_545 S
C2105 C2108 1.382 . S
C2106 C2104 1.384 . S
C2106 C2107 1.381 1_565 S
C2106 H2127 0.930 . S
C2107 C2106 1.381 1_545 S
C2107 C2109 1.381 . S
C2107 C2110 1.487 . S
C2108 C2105 1.382 . S
C2108 C2109 1.387 . S
C2108 H2128 0.930 . S
C2109 C2107 1.381 . S
C2109 C2108 1.387 . S
C2109 H2129 0.931 . S
C2110 C2107 1.487 . S
C2110 C2117 1.399 1_545 S
C2110 N2135 1.343 . S
C2111 C2112 1.384 1_545 S
C2111 C2113 1.384 . S
C2111 H2130 0.931 . S
C2112 C2111 1.384 1_565 S
C2112 C2115 1.382 . S
C2113 C2111 1.384 . S
C2113 C2114 1.381 1_545 S
C2113 H2131 0.930 . S
C2114 C2113 1.381 1_565 S
C2114 C2116 1.381 . S
C2114 C2117 1.487 . S
C2115 C2112 1.382 . S
C2115 C2116 1.387 . S
C2115 H2132 0.930 . S
C2116 C2114 1.381 . S
C2116 C2115 1.387 . S
C2116 H2133 0.931 . S
C2117 C2110 1.399 1_565 S
C2117 C2114 1.487 . S
C2117 N2134 1.343 . S
H2118 C2090 0.931 . S
H2119 C2092 0.930 . S
H2120 C2094 0.930 . S
H2121 C2095 0.931 . S
H2122 C2097 0.931 . S
H2123 C2099 0.930 . S
H2124 C2101 0.930 . S
H2125 C2102 0.931 . S
H2126 C2104 0.931 . S
H2127 C2106 0.930 . S
H2128 C2108 0.930 . S
H2129 C2109 0.931 . S
H2130 C2111 0.931 . S
H2131 C2113 0.930 . S
H2132 C2115 0.930 . S
H2133 C2116 0.931 . S
N2134 C2096 1.343 . S
N2134 C2117 1.343 . S
N2135 C2103 1.343 . S
N2135 C2110 1.343 . S
C2136 C2137 1.384 . S
C2136 C2138 1.384 . S
C2136 H2164 0.931 . S
C2137 C2136 1.384 . S
C2137 C2140 1.382 1_545 S
C2138 C2136 1.384 . S
C2138 C2139 1.385 . S
C2138 H2165 0.930 . S
C2139 C2138 1.385 . S
C2139 C2141 1.372 1_545 S
C2139 C2142 1.495 1_545 S
C2140 C2137 1.382 1_565 S
C2140 C2141 1.387 . S
C2140 H2166 0.930 . S
C2141 C2139 1.372 1_565 S
C2141 C2140 1.387 . S
C2141 H2167 0.931 . S
C2142 C2139 1.495 1_565 S
C2142 C2149 1.399 1_565 S
C2142 N2180 1.362 . S
C2143 C2144 1.384 . S
C2143 C2145 1.384 . S
C2143 H2168 0.931 . S
C2144 C2143 1.384 . S
C2144 C2147 1.382 1_565 S
C2145 C2143 1.384 . S
C2145 C2146 1.403 . S
C2145 H2169 0.930 . S
C2146 C2145 1.403 . S
C2146 C2148 1.370 1_565 S
C2146 C2149 1.473 1_565 S
C2147 C2144 1.382 1_545 S
C2147 C2148 1.387 . S
C2147 H2170 0.930 . S
C2148 C2146 1.370 1_545 S
C2148 C2147 1.387 . S
C2148 H2171 0.931 . S
C2149 C2142 1.399 1_545 S
C2149 C2146 1.473 1_545 S
C2149 N2181 1.318 . S
C2150 C2151 1.384 . S
C2150 C2152 1.384 . S
C2150 H2172 0.931 . S
C2151 C2150 1.384 . S
C2151 C2154 1.382 1_565 S
C2152 C2150 1.384 . S
C2152 C2153 1.381 . S
C2152 H2173 0.930 . S
C2153 C2152 1.381 . S
C2153 C2155 1.382 1_565 S
C2153 C2156 1.495 1_565 S
C2154 C2151 1.382 1_545 S
C2154 C2155 1.387 . S
C2154 H2174 0.930 . S
C2155 C2153 1.382 1_545 S
C2155 C2154 1.387 . S
C2155 H2175 0.931 . S
C2156 C2153 1.495 1_545 S
C2156 C2163 1.399 1_545 S
C2156 N2181 1.362 . S
C2157 C2158 1.384 . S
C2157 C2159 1.384 . S
C2157 H2176 0.931 . S
C2158 C2157 1.384 . S
C2158 C2161 1.382 1_545 S
C2159 C2157 1.384 . S
C2159 C2160 1.419 . S
C2159 H2177 0.930 . S
C2160 C2159 1.419 . S
C2160 C2162 1.362 1_545 S
C2160 C2163 1.473 1_545 S
C2161 C2158 1.382 1_565 S
C2161 C2162 1.387 . S
C2161 H2178 0.930 . S
C2162 C2160 1.362 1_565 S
C2162 C2161 1.387 . S
C2162 H2179 0.931 . S
C2163 C2156 1.399 1_565 S
C2163 C2160 1.473 1_565 S
C2163 N2180 1.318 . S
H2164 C2136 0.931 . S
H2165 C2138 0.930 . S
H2166 C2140 0.930 . S
H2167 C2141 0.931 . S
H2168 C2143 0.931 . S
H2169 C2145 0.930 . S
H2170 C2147 0.930 . S
H2171 C2148 0.931 . S
H2172 C2150 0.931 . S
H2173 C2152 0.930 . S
H2174 C2154 0.930 . S
H2175 C2155 0.931 . S
H2176 C2157 0.931 . S
H2177 C2159 0.930 . S
H2178 C2161 0.930 . S
H2179 C2162 0.931 . S
N2180 C2142 1.362 . S
N2180 C2163 1.318 . S
N2181 C2149 1.318 . S
N2181 C2156 1.362 . S
C2182 C2183 1.384 . S
C2182 C2184 1.384 . S
C2182 H2210 0.931 . S
C2183 C2182 1.384 . S
C2183 C2186 1.382 1_655 S
C2184 C2182 1.384 . S
C2184 C2185 1.424 . S
C2184 H2211 0.930 . S
C2185 C2184 1.424 . S
C2185 C2187 1.360 1_655 S
C2185 C2188 1.465 . S
C2186 C2183 1.382 1_455 S
C2186 C2187 1.387 . S
C2186 H2212 0.930 . S
C2187 C2185 1.360 1_455 S
C2187 C2186 1.387 . S
C2187 H2213 0.931 . S
C2188 C2185 1.465 . S
C2188 C2195 1.399 . S
C2188 N2226 1.327 1_655 S
C2189 C2190 1.384 . S
C2189 C2191 1.384 . S
C2189 H2214 0.931 . S
C2190 C2189 1.384 . S
C2190 C2193 1.382 1_455 S
C2191 C2189 1.384 . S
C2191 C2192 1.382 . S
C2191 H2215 0.930 . S
C2192 C2191 1.382 . S
C2192 C2194 1.379 1_455 S
C2192 C2195 1.496 1_455 S
C2193 C2190 1.382 1_655 S
C2193 C2194 1.387 . S
C2193 H2216 0.930 . S
C2194 C2192 1.379 1_655 S
C2194 C2193 1.387 . S
C2194 H2217 0.931 . S
C2195 C2188 1.399 . S
C2195 C2192 1.496 1_655 S
C2195 N2227 1.360 . S
C2196 C2197 1.384 . S
C2196 C2198 1.384 . S
C2196 H2218 0.931 . S
C2197 C2196 1.384 . S
C2197 C2200 1.382 1_455 S
C2198 C2196 1.384 . S
C2198 C2199 1.408 . S
C2198 H2219 0.930 . S
C2199 C2198 1.408 . S
C2199 C2201 1.368 1_455 S
C2199 C2202 1.472 1_455 S
C2200 C2197 1.382 1_655 S
C2200 C2201 1.387 . S
C2200 H2220 0.930 . S
C2201 C2199 1.368 1_655 S
C2201 C2200 1.387 . S
C2201 H2221 0.931 . S
C2202 C2199 1.472 1_655 S
C2202 C2209 1.399 1_655 S
C2202 N2227 1.320 . S
C2203 C2204 1.384 . S
C2203 C2205 1.384 . S
C2203 H2222 0.931 . S
C2204 C2203 1.384 . S
C2204 C2207 1.382 1_655 S
C2205 C2203 1.384 . S
C2205 C2206 1.386 . S
C2205 H2223 0.930 . S
C2206 C2205 1.386 . S
C2206 C2208 1.370 1_655 S
C2206 C2209 1.496 1_655 S
C2207 C2204 1.382 1_455 S
C2207 C2208 1.387 . S
C2207 H2224 0.930 . S
C2208 C2206 1.370 1_455 S
C2208 C2207 1.387 . S
C2208 H2225 0.931 . S
C2209 C2202 1.399 1_455 S
C2209 C2206 1.496 1_455 S
C2209 N2226 1.360 . S
H2210 C2182 0.931 . S
H2211 C2184 0.930 . S
H2212 C2186 0.930 . S
H2213 C2187 0.931 . S
H2214 C2189 0.931 . S
H2215 C2191 0.930 . S
H2216 C2193 0.930 . S
H2217 C2194 0.931 . S
H2218 C2196 0.931 . S
H2219 C2198 0.930 . S
H2220 C2200 0.930 . S
H2221 C2201 0.931 . S
H2222 C2203 0.931 . S
H2223 C2205 0.930 . S
H2224 C2207 0.930 . S
H2225 C2208 0.931 . S
N2226 C2188 1.327 1_455 S
N2226 C2209 1.360 . S
N2227 C2195 1.360 . S
N2227 C2202 1.320 . S
C2228 C2229 1.384 . S
C2228 C2230 1.384 . S
C2228 H2256 0.931 . S
C2229 C2228 1.384 . S
C2229 C2232 1.382 . S
C2230 C2228 1.384 . S
C2230 C2231 1.381 . S
C2230 H2257 0.930 . S
C2231 C2230 1.381 . S
C2231 C2233 1.381 . S
C2231 C2234 1.487 . S
C2232 C2229 1.382 . S
C2232 C2233 1.387 . S
C2232 H2258 0.930 . S
C2233 C2231 1.381 . S
C2233 C2232 1.387 . S
C2233 H2259 0.931 . S
C2234 C2231 1.487 . S
C2234 C2241 1.399 . S
C2234 N2272 1.343 . S
C2235 C2236 1.384 . S
C2235 C2237 1.384 . S
C2235 H2260 0.931 . S
C2236 C2235 1.384 . S
C2236 C2239 1.382 . S
C2237 C2235 1.384 . S
C2237 C2238 1.381 . S
C2237 H2261 0.930 . S
C2238 C2237 1.381 . S
C2238 C2240 1.381 . S
C2238 C2241 1.487 . S
C2239 C2236 1.382 . S
C2239 C2240 1.387 . S
C2239 H2262 0.930 . S
C2240 C2238 1.381 . S
C2240 C2239 1.387 . S
C2240 H2263 0.931 . S
C2241 C2234 1.399 . S
C2241 C2238 1.487 . S
C2241 N2273 1.343 . S
C2242 C2243 1.384 . S
C2242 C2244 1.384 . S
C2242 H2264 0.931 . S
C2243 C2242 1.384 . S
C2243 C2246 1.382 . S
C2244 C2242 1.384 . S
C2244 C2245 1.381 . S
C2244 H2265 0.930 . S
C2245 C2244 1.381 . S
C2245 C2247 1.381 . S
C2245 C2248 1.487 . S
C2246 C2243 1.382 . S
C2246 C2247 1.387 . S
C2246 H2266 0.930 . S
C2247 C2245 1.381 . S
C2247 C2246 1.387 . S
C2247 H2267 0.931 . S
C2248 C2245 1.487 . S
C2248 C2255 1.399 . S
C2248 N2273 1.343 . S
C2249 C2250 1.384 . S
C2249 C2251 1.384 . S
C2249 H2268 0.931 . S
C2250 C2249 1.384 . S
C2250 C2253 1.382 . S
C2251 C2249 1.384 . S
C2251 C2252 1.381 . S
C2251 H2269 0.930 . S
C2252 C2251 1.381 . S
C2252 C2254 1.381 . S
C2252 C2255 1.487 . S
C2253 C2250 1.382 . S
C2253 C2254 1.387 . S
C2253 H2270 0.930 . S
C2254 C2252 1.381 . S
C2254 C2253 1.387 . S
C2254 H2271 0.931 . S
C2255 C2248 1.399 . S
C2255 C2252 1.487 . S
C2255 N2272 1.343 . S
H2256 C2228 0.931 . S
H2257 C2230 0.930 . S
H2258 C2232 0.930 . S
H2259 C2233 0.931 . S
H2260 C2235 0.931 . S
H2261 C2237 0.930 . S
H2262 C2239 0.930 . S
H2263 C2240 0.931 . S
H2264 C2242 0.931 . S
H2265 C2244 0.930 . S
H2266 C2246 0.930 . S
H2267 C2247 0.931 . S
H2268 C2249 0.931 . S
H2269 C2251 0.930 . S
H2270 C2253 0.930 . S
H2271 C2254 0.931 . S
N2272 C2234 1.343 . S
N2272 C2255 1.343 . S
N2273 C2241 1.343 . S
N2273 C2248 1.343 . S
C2274 C2275 1.384 . S
C2274 C2276 1.384 . S
C2274 H2302 0.931 . S
C2275 C2274 1.384 . S
C2275 C2278 1.382 . S
C2276 C2274 1.384 . S
C2276 C2277 1.381 . S
C2276 H2303 0.930 . S
C2277 C2276 1.381 . S
C2277 C2279 1.381 . S
C2277 C2280 1.487 . S
C2278 C2275 1.382 . S
C2278 C2279 1.387 . S
C2278 H2304 0.930 . S
C2279 C2277 1.381 . S
C2279 C2278 1.387 . S
C2279 H2305 0.931 . S
C2280 C2277 1.487 . S
C2280 C2287 1.399 . S
C2280 N2318 1.343 . S
C2281 C2282 1.384 . S
C2281 C2283 1.384 . S
C2281 H2306 0.931 . S
C2282 C2281 1.384 . S
C2282 C2285 1.382 . S
C2283 C2281 1.384 . S
C2283 C2284 1.381 . S
C2283 H2307 0.930 . S
C2284 C2283 1.381 . S
C2284 C2286 1.381 . S
C2284 C2287 1.487 . S
C2285 C2282 1.382 . S
C2285 C2286 1.387 . S
C2285 H2308 0.930 . S
C2286 C2284 1.381 . S
C2286 C2285 1.387 . S
C2286 H2309 0.931 . S
C2287 C2280 1.399 . S
C2287 C2284 1.487 . S
C2287 N2319 1.343 . S
C2288 C2289 1.384 . S
C2288 C2290 1.384 . S
C2288 H2310 0.931 . S
C2289 C2288 1.384 . S
C2289 C2292 1.382 . S
C2290 C2288 1.384 . S
C2290 C2291 1.381 . S
C2290 H2311 0.930 . S
C2291 C2290 1.381 . S
C2291 C2293 1.381 . S
C2291 C2294 1.487 . S
C2292 C2289 1.382 . S
C2292 C2293 1.387 . S
C2292 H2312 0.930 . S
C2293 C2291 1.381 . S
C2293 C2292 1.387 . S
C2293 H2313 0.931 . S
C2294 C2291 1.487 . S
C2294 C2301 1.399 . S
C2294 N2319 1.343 . S
C2295 C2296 1.384 . S
C2295 C2297 1.384 . S
C2295 H2314 0.931 . S
C2296 C2295 1.384 . S
C2296 C2299 1.382 . S
C2297 C2295 1.384 . S
C2297 C2298 1.381 . S
C2297 H2315 0.930 . S
C2298 C2297 1.381 . S
C2298 C2300 1.381 . S
C2298 C2301 1.487 . S
C2299 C2296 1.382 . S
C2299 C2300 1.387 . S
C2299 H2316 0.930 . S
C2300 C2298 1.381 . S
C2300 C2299 1.387 . S
C2300 H2317 0.931 . S
C2301 C2294 1.399 . S
C2301 C2298 1.487 . S
C2301 N2318 1.343 . S
H2302 C2274 0.931 . S
H2303 C2276 0.930 . S
H2304 C2278 0.930 . S
H2305 C2279 0.931 . S
H2306 C2281 0.931 . S
H2307 C2283 0.930 . S
H2308 C2285 0.930 . S
H2309 C2286 0.931 . S
H2310 C2288 0.931 . S
H2311 C2290 0.930 . S
H2312 C2292 0.930 . S
H2313 C2293 0.931 . S
H2314 C2295 0.931 . S
H2315 C2297 0.930 . S
H2316 C2299 0.930 . S
H2317 C2300 0.931 . S
N2318 C2280 1.343 . S
N2318 C2301 1.343 . S
N2319 C2287 1.343 . S
N2319 C2294 1.343 . S
C2320 C2321 1.384 . S
C2320 C2322 1.384 . S
C2320 H2348 0.931 . S
C2321 C2320 1.384 . S
C2321 C2324 1.382 . S
C2322 C2320 1.384 . S
C2322 C2323 1.381 . S
C2322 H2349 0.930 . S
C2323 C2322 1.381 . S
C2323 C2325 1.381 . S
C2323 C2326 1.487 . S
C2324 C2321 1.382 . S
C2324 C2325 1.387 . S
C2324 H2350 0.930 . S
C2325 C2323 1.381 . S
C2325 C2324 1.387 . S
C2325 H2351 0.931 . S
C2326 C2323 1.487 . S
C2326 C2333 1.399 . S
C2326 N2364 1.343 . S
C2327 C2328 1.384 . S
C2327 C2329 1.384 . S
C2327 H2352 0.931 . S
C2328 C2327 1.384 . S
C2328 C2331 1.382 . S
C2329 C2327 1.384 . S
C2329 C2330 1.381 . S
C2329 H2353 0.930 . S
C2330 C2329 1.381 . S
C2330 C2332 1.381 . S
C2330 C2333 1.487 . S
C2331 C2328 1.382 . S
C2331 C2332 1.387 . S
C2331 H2354 0.930 . S
C2332 C2330 1.381 . S
C2332 C2331 1.387 . S
C2332 H2355 0.931 . S
C2333 C2326 1.399 . S
C2333 C2330 1.487 . S
C2333 N2365 1.343 . S
C2334 C2335 1.384 . S
C2334 C2336 1.384 . S
C2334 H2356 0.931 . S
C2335 C2334 1.384 . S
C2335 C2338 1.382 . S
C2336 C2334 1.384 . S
C2336 C2337 1.381 . S
C2336 H2357 0.930 . S
C2337 C2336 1.381 . S
C2337 C2339 1.381 . S
C2337 C2340 1.487 . S
C2338 C2335 1.382 . S
C2338 C2339 1.387 . S
C2338 H2358 0.930 . S
C2339 C2337 1.381 . S
C2339 C2338 1.387 . S
C2339 H2359 0.931 . S
C2340 C2337 1.487 . S
C2340 C2347 1.399 . S
C2340 N2365 1.343 . S
C2341 C2342 1.384 . S
C2341 C2343 1.384 . S
C2341 H2360 0.931 . S
C2342 C2341 1.384 . S
C2342 C2345 1.382 . S
C2343 C2341 1.384 . S
C2343 C2344 1.381 . S
C2343 H2361 0.930 . S
C2344 C2343 1.381 . S
C2344 C2346 1.381 . S
C2344 C2347 1.487 . S
C2345 C2342 1.382 . S
C2345 C2346 1.387 . S
C2345 H2362 0.930 . S
C2346 C2344 1.381 . S
C2346 C2345 1.387 . S
C2346 H2363 0.931 . S
C2347 C2340 1.399 . S
C2347 C2344 1.487 . S
C2347 N2364 1.343 . S
H2348 C2320 0.931 . S
H2349 C2322 0.930 . S
H2350 C2324 0.930 . S
H2351 C2325 0.931 . S
H2352 C2327 0.931 . S
H2353 C2329 0.930 . S
H2354 C2331 0.930 . S
H2355 C2332 0.931 . S
H2356 C2334 0.931 . S
H2357 C2336 0.930 . S
H2358 C2338 0.930 . S
H2359 C2339 0.931 . S
H2360 C2341 0.931 . S
H2361 C2343 0.930 . S
H2362 C2345 0.930 . S
H2363 C2346 0.931 . S
N2364 C2326 1.343 . S
N2364 C2347 1.343 . S
N2365 C2333 1.343 . S
N2365 C2340 1.343 . S
C2366 C2367 1.384 . S
C2366 C2368 1.384 . S
C2366 H2394 0.931 . S
C2367 C2366 1.384 . S
C2367 C2370 1.382 . S
C2368 C2366 1.384 . S
C2368 C2369 1.381 . S
C2368 H2395 0.930 . S
C2369 C2368 1.381 . S
C2369 C2371 1.381 . S
C2369 C2372 1.487 . S
C2370 C2367 1.382 . S
C2370 C2371 1.387 . S
C2370 H2396 0.930 . S
C2371 C2369 1.381 . S
C2371 C2370 1.387 . S
C2371 H2397 0.931 . S
C2372 C2369 1.487 . S
C2372 C2379 1.399 . S
C2372 N2410 1.343 . S
C2373 C2374 1.384 . S
C2373 C2375 1.384 . S
C2373 H2398 0.931 . S
C2374 C2373 1.384 . S
C2374 C2377 1.382 . S
C2375 C2373 1.384 . S
C2375 C2376 1.381 . S
C2375 H2399 0.930 . S
C2376 C2375 1.381 . S
C2376 C2378 1.381 . S
C2376 C2379 1.487 . S
C2377 C2374 1.382 . S
C2377 C2378 1.387 . S
C2377 H2400 0.930 . S
C2378 C2376 1.381 . S
C2378 C2377 1.387 . S
C2378 H2401 0.931 . S
C2379 C2372 1.399 . S
C2379 C2376 1.487 . S
C2379 N2411 1.343 . S
C2380 C2381 1.384 . S
C2380 C2382 1.384 . S
C2380 H2402 0.931 . S
C2381 C2380 1.384 . S
C2381 C2384 1.382 . S
C2382 C2380 1.384 . S
C2382 C2383 1.381 . S
C2382 H2403 0.930 . S
C2383 C2382 1.381 . S
C2383 C2385 1.381 . S
C2383 C2386 1.487 . S
C2384 C2381 1.382 . S
C2384 C2385 1.387 . S
C2384 H2404 0.930 . S
C2385 C2383 1.381 . S
C2385 C2384 1.387 . S
C2385 H2405 0.931 . S
C2386 C2383 1.487 . S
C2386 C2393 1.399 . S
C2386 N2411 1.343 . S
C2387 C2388 1.384 . S
C2387 C2389 1.384 . S
C2387 H2406 0.931 . S
C2388 C2387 1.384 . S
C2388 C2391 1.382 . S
C2389 C2387 1.384 . S
C2389 C2390 1.381 . S
C2389 H2407 0.930 . S
C2390 C2389 1.381 . S
C2390 C2392 1.381 . S
C2390 C2393 1.487 . S
C2391 C2388 1.382 . S
C2391 C2392 1.387 . S
C2391 H2408 0.930 . S
C2392 C2390 1.381 . S
C2392 C2391 1.387 . S
C2392 H2409 0.931 . S
C2393 C2386 1.399 . S
C2393 C2390 1.487 . S
C2393 N2410 1.343 . S
H2394 C2366 0.931 . S
H2395 C2368 0.930 . S
H2396 C2370 0.930 . S
H2397 C2371 0.931 . S
H2398 C2373 0.931 . S
H2399 C2375 0.930 . S
H2400 C2377 0.930 . S
H2401 C2378 0.931 . S
H2402 C2380 0.931 . S
H2403 C2382 0.930 . S
H2404 C2384 0.930 . S
H2405 C2385 0.931 . S
H2406 C2387 0.931 . S
H2407 C2389 0.930 . S
H2408 C2391 0.930 . S
H2409 C2392 0.931 . S
N2410 C2372 1.343 . S
N2410 C2393 1.343 . S
N2411 C2379 1.343 . S
N2411 C2386 1.343 . S
C2412 C2413 1.369 . S
C2412 C2414 1.419 1_655 S
C2412 H2416 0.930 1_655 S
C2413 C2412 1.369 . S
C2413 C2422 1.429 . S
C2414 C2412 1.419 1_455 S
C2414 C2415 1.363 1_455 S
C2414 H2417 0.929 . S
C2415 C2414 1.363 1_655 S
C2415 C2421 1.428 . S
H2416 C2412 0.930 1_455 S
H2417 C2414 0.929 . S
S2418 N2419 1.613 . S
S2418 N2420 1.610 . S
N2419 S2418 1.613 . S
N2419 C2422 1.350 . S
N2420 S2418 1.610 . S
N2420 C2421 1.351 . S
C2421 C2415 1.428 . S
C2421 N2420 1.351 . S
C2421 C2422 1.434 . S
C2422 C2413 1.429 . S
C2422 N2419 1.350 . S
C2422 C2421 1.434 . S
C2423 C2424 1.369 . S
C2423 C2425 1.419 . S
C2423 H2427 0.930 . S
C2424 C2423 1.369 . S
C2424 C2433 1.429 . S
C2425 C2423 1.419 . S
C2425 C2426 1.363 . S
C2425 H2428 0.929 . S
C2426 C2425 1.363 . S
C2426 C2432 1.428 . S
H2427 C2423 0.930 . S
H2428 C2425 0.929 . S
S2429 N2430 1.613 . S
S2429 N2431 1.610 . S
N2430 S2429 1.613 . S
N2430 C2433 1.350 . S
N2431 S2429 1.610 . S
N2431 C2432 1.351 . S
C2432 C2426 1.428 . S
C2432 N2431 1.351 . S
C2432 C2433 1.434 . S
C2433 C2424 1.429 . S
C2433 N2430 1.350 . S
C2433 C2432 1.434 . S
C2434 C2435 1.369 . S
C2434 C2436 1.419 . S
C2434 H2438 0.930 . S
C2435 C2434 1.369 . S
C2435 C2444 1.429 . S
C2436 C2434 1.419 . S
C2436 C2437 1.363 . S
C2436 H2439 0.929 1_545 S
C2437 C2436 1.363 . S
C2437 C2443 1.428 . S
H2438 C2434 0.930 . S
H2439 C2436 0.929 1_565 S
S2440 N2441 1.613 . S
S2440 N2442 1.610 . S
N2441 S2440 1.613 . S
N2441 C2444 1.350 . S
N2442 S2440 1.610 . S
N2442 C2443 1.351 . S
C2443 C2437 1.428 . S
C2443 N2442 1.351 . S
C2443 C2444 1.434 . S
C2444 C2435 1.429 . S
C2444 N2441 1.350 . S
C2444 C2443 1.434 . S
C2445 C2446 1.369 . S
C2445 C2447 1.419 1_565 S
C2445 H2449 0.930 1_565 S
C2446 C2445 1.369 . S
C2446 C2455 1.429 . S
C2447 C2445 1.419 1_545 S
C2447 C2448 1.363 1_545 S
C2447 H2450 0.929 . S
C2448 C2447 1.363 1_565 S
C2448 C2454 1.428 . S
H2449 C2445 0.930 1_545 S
H2450 C2447 0.929 . S
S2451 N2452 1.613 . S
S2451 N2453 1.610 . S
N2452 S2451 1.613 . S
N2452 C2455 1.350 . S
N2453 S2451 1.610 . S
N2453 C2454 1.351 . S
C2454 C2448 1.428 . S
C2454 N2453 1.351 . S
C2454 C2455 1.434 . S
C2455 C2446 1.429 . S
C2455 N2452 1.350 . S
C2455 C2454 1.434 . S
C2456 C2457 1.369 . S
C2456 C2458 1.419 . S
C2456 H2460 0.930 . S
C2457 C2456 1.369 . S
C2457 C2466 1.429 . S
C2458 C2456 1.419 . S
C2458 C2459 1.363 . S
C2458 H2461 0.929 . S
C2459 C2458 1.363 . S
C2459 C2465 1.428 . S
H2460 C2456 0.930 . S
H2461 C2458 0.929 . S
S2462 N2463 1.579 1_655 S
S2462 N2464 1.647 . S
N2463 S2462 1.579 1_455 S
N2463 C2466 1.350 . S
N2464 S2462 1.647 . S
N2464 C2465 1.351 1_655 S
C2465 C2459 1.428 . S
C2465 N2464 1.351 1_455 S
C2465 C2466 1.434 . S
C2466 C2457 1.429 . S
C2466 N2463 1.350 . S
C2466 C2465 1.434 . S
C2467 C2468 1.369 . S
C2467 C2469 1.419 . S
C2467 H2471 0.930 . S
C2468 C2467 1.369 . S
C2468 C2477 1.429 . S
C2469 C2467 1.419 . S
C2469 C2470 1.363 . S
C2469 H2472 0.929 . S
C2470 C2469 1.363 . S
C2470 C2476 1.428 . S
H2471 C2467 0.930 . S
H2472 C2469 0.929 . S
S2473 N2474 1.613 . S
S2473 N2475 1.610 . S
N2474 S2473 1.613 . S
N2474 C2477 1.350 . S
N2475 S2473 1.610 . S
N2475 C2476 1.351 . S
C2476 C2470 1.428 . S
C2476 N2475 1.351 . S
C2476 C2477 1.434 . S
C2477 C2468 1.429 . S
C2477 N2474 1.350 . S
C2477 C2476 1.434 . S
C2478 C2479 1.369 . S
C2478 C2480 1.419 . S
C2478 H2482 0.930 . S
C2479 C2478 1.369 . S
C2479 C2488 1.429 . S
C2480 C2478 1.419 . S
C2480 C2481 1.363 . S
C2480 H2483 0.929 . S
C2481 C2480 1.363 . S
C2481 C2487 1.428 . S
H2482 C2478 0.930 . S
H2483 C2480 0.929 . S
S2484 N2485 1.613 . S
S2484 N2486 1.610 . S
N2485 S2484 1.613 . S
N2485 C2488 1.350 . S
N2486 S2484 1.610 . S
N2486 C2487 1.351 . S
C2487 C2481 1.428 . S
C2487 N2486 1.351 . S
C2487 C2488 1.434 . S
C2488 C2479 1.429 . S
C2488 N2485 1.350 . S
C2488 C2487 1.434 . S
C2489 C2490 1.369 . S
C2489 C2491 1.419 . S
C2489 H2493 0.930 . S
C2490 C2489 1.369 . S
C2490 C2499 1.429 . S
C2491 C2489 1.419 . S
C2491 C2492 1.363 . S
C2491 H2494 0.929 . S
C2492 C2491 1.363 . S
C2492 C2498 1.428 . S
H2493 C2489 0.930 . S
H2494 C2491 0.929 . S
S2495 N2496 1.613 . S
S2495 N2497 1.610 . S
N2496 S2495 1.613 . S
N2496 C2499 1.350 . S
N2497 S2495 1.610 . S
N2497 C2498 1.351 . S
C2498 C2492 1.428 . S
C2498 N2497 1.351 . S
C2498 C2499 1.434 . S
C2499 C2490 1.429 . S
C2499 N2496 1.350 . S
C2499 C2498 1.434 . S
C2500 C2501 1.369 . S
C2500 C2502 1.419 . S
C2500 H2504 0.930 . S
C2501 C2500 1.369 . S
C2501 C2510 1.429 . S
C2502 C2500 1.419 . S
C2502 C2503 1.363 . S
C2502 H2505 0.929 . S
C2503 C2502 1.363 . S
C2503 C2509 1.428 . S
H2504 C2500 0.930 . S
H2505 C2502 0.929 . S
S2506 N2507 1.613 . S
S2506 N2508 1.610 . S
N2507 S2506 1.613 . S
N2507 C2510 1.350 . S
N2508 S2506 1.610 . S
N2508 C2509 1.351 . S
C2509 C2503 1.428 . S
C2509 N2508 1.351 . S
C2509 C2510 1.434 . S
C2510 C2501 1.429 . S
C2510 N2507 1.350 . S
C2510 C2509 1.434 . S
C2511 C2512 1.369 . S
C2511 C2513 1.419 1_545 S
C2511 H2515 0.930 1_545 S
C2512 C2511 1.369 . S
C2512 C2521 1.429 . S
C2513 C2511 1.419 1_565 S
C2513 C2514 1.363 1_565 S
C2513 H2516 0.929 . S
C2514 C2513 1.363 1_545 S
C2514 C2520 1.428 . S
H2515 C2511 0.930 1_565 S
H2516 C2513 0.929 . S
S2517 N2518 1.613 . S
S2517 N2519 1.610 . S
N2518 S2517 1.613 . S
N2518 C2521 1.350 . S
N2519 S2517 1.610 . S
N2519 C2520 1.351 . S
C2520 C2514 1.428 . S
C2520 N2519 1.351 . S
C2520 C2521 1.434 . S
C2521 C2512 1.429 . S
C2521 N2518 1.350 . S
C2521 C2520 1.434 . S
C2522 C2523 1.369 . S
C2522 C2524 1.425 . S
C2522 H2526 0.930 . S
C2523 C2522 1.369 . S
C2523 C2532 1.429 . S
C2524 C2522 1.425 . S
C2524 C2525 1.362 . S
C2524 H2527 0.923 1_655 S
C2525 C2524 1.362 . S
C2525 C2531 1.428 . S
H2526 C2522 0.930 . S
H2527 C2524 0.923 1_455 S
S2528 N2529 1.613 . S
S2528 N2530 1.610 . S
N2529 S2528 1.613 . S
N2529 C2532 1.350 . S
N2530 S2528 1.610 . S
N2530 C2531 1.351 . S
C2531 C2525 1.428 . S
C2531 N2530 1.351 . S
C2531 C2532 1.434 . S
C2532 C2523 1.429 . S
C2532 N2529 1.350 . S
C2532 C2531 1.434 . S
C2533 C2534 1.369 . S
C2533 C2535 1.419 . S
C2533 H2537 0.930 . S
C2534 C2533 1.369 . S
C2534 C2543 1.429 . S
C2535 C2533 1.419 . S
C2535 C2536 1.363 . S
C2535 H2538 0.929 . S
C2536 C2535 1.363 . S
C2536 C2542 1.428 . S
H2537 C2533 0.930 . S
H2538 C2535 0.929 . S
S2539 N2540 1.613 . S
S2539 N2541 1.610 . S
N2540 S2539 1.613 . S
N2540 C2543 1.350 . S
N2541 S2539 1.610 . S
N2541 C2542 1.351 . S
C2542 C2536 1.428 . S
C2542 N2541 1.351 . S
C2542 C2543 1.434 . S
C2543 C2534 1.429 . S
C2543 N2540 1.350 . S
C2543 C2542 1.434 . S
C2544 C2545 1.369 . S
C2544 C2546 1.419 . S
C2544 H2548 0.930 . S
C2545 C2544 1.369 . S
C2545 C2554 1.429 . S
C2546 C2544 1.419 . S
C2546 C2547 1.363 . S
C2546 H2549 0.929 . S
C2547 C2546 1.363 . S
C2547 C2553 1.428 . S
H2548 C2544 0.930 . S
H2549 C2546 0.929 . S
S2550 N2551 1.613 . S
S2550 N2552 1.610 . S
N2551 S2550 1.613 . S
N2551 C2554 1.350 . S
N2552 S2550 1.610 . S
N2552 C2553 1.351 . S
C2553 C2547 1.428 . S
C2553 N2552 1.351 . S
C2553 C2554 1.434 . S
C2554 C2545 1.429 . S
C2554 N2551 1.350 . S
C2554 C2553 1.434 . S
C2555 C2556 1.369 . S
C2555 C2557 1.419 . S
C2555 H2559 0.930 . S
C2556 C2555 1.369 . S
C2556 C2565 1.429 . S
C2557 C2555 1.419 . S
C2557 C2558 1.363 . S
C2557 H2560 0.929 . S
C2558 C2557 1.363 . S
C2558 C2564 1.428 . S
H2559 C2555 0.930 . S
H2560 C2557 0.929 . S
S2561 N2562 1.613 . S
S2561 N2563 1.610 . S
N2562 S2561 1.613 . S
N2562 C2565 1.350 . S
N2563 S2561 1.610 . S
N2563 C2564 1.351 . S
C2564 C2558 1.428 . S
C2564 N2563 1.351 . S
C2564 C2565 1.434 . S
C2565 C2556 1.429 . S
C2565 N2562 1.350 . S
C2565 C2564 1.434 . S
C2566 C2567 1.369 . S
C2566 C2568 1.419 . S
C2566 H2570 0.930 . S
C2567 C2566 1.369 . S
C2567 C2576 1.429 . S
C2568 C2566 1.419 . S
C2568 C2569 1.363 . S
C2568 H2571 0.929 . S
C2569 C2568 1.363 . S
C2569 C2575 1.428 . S
H2570 C2566 0.930 . S
H2571 C2568 0.929 . S
S2572 N2573 1.613 . S
S2572 N2574 1.610 . S
N2573 S2572 1.613 . S
N2573 C2576 1.350 . S
N2574 S2572 1.610 . S
N2574 C2575 1.351 . S
C2575 C2569 1.428 . S
C2575 N2574 1.351 . S
C2575 C2576 1.434 . S
C2576 C2567 1.429 . S
C2576 N2573 1.350 . S
C2576 C2575 1.434 . S
C2577 C2578 1.369 . S
C2577 C2579 1.419 . S
C2577 H2581 0.930 . S
C2578 C2577 1.369 . S
C2578 C2587 1.429 . S
C2579 C2577 1.419 . S
C2579 C2580 1.363 . S
C2579 H2582 0.929 . S
C2580 C2579 1.363 . S
C2580 C2586 1.428 . S
H2581 C2577 0.930 . S
H2582 C2579 0.929 . S
S2583 N2584 1.613 . S
S2583 N2585 1.610 . S
N2584 S2583 1.613 . S
N2584 C2587 1.350 . S
N2585 S2583 1.610 . S
N2585 C2586 1.351 . S
C2586 C2580 1.428 . S
C2586 N2585 1.351 . S
C2586 C2587 1.434 . S
C2587 C2578 1.429 . S
C2587 N2584 1.350 . S
C2587 C2586 1.434 . S
C2588 C2589 1.369 . S
C2588 C2590 1.419 . S
C2588 H2592 0.930 . S
C2589 C2588 1.369 . S
C2589 C2598 1.429 . S
C2590 C2588 1.419 . S
C2590 C2591 1.363 . S
C2590 H2593 0.929 . S
C2591 C2590 1.363 . S
C2591 C2597 1.428 . S
H2592 C2588 0.930 . S
H2593 C2590 0.929 . S
S2594 N2595 1.613 . S
S2594 N2596 1.610 . S
N2595 S2594 1.613 . S
N2595 C2598 1.350 . S
N2596 S2594 1.610 . S
N2596 C2597 1.351 . S
C2597 C2591 1.428 . S
C2597 N2596 1.351 . S
C2597 C2598 1.434 . S
C2598 C2589 1.429 . S
C2598 N2595 1.350 . S
C2598 C2597 1.434 . S
C2599 C2600 1.369 . S
C2599 C2601 1.419 . S
C2599 H2603 0.930 . S
C2600 C2599 1.369 . S
C2600 C2609 1.429 . S
C2601 C2599 1.419 . S
C2601 C2602 1.363 . S
C2601 H2604 0.929 . S
C2602 C2601 1.363 . S
C2602 C2608 1.428 . S
H2603 C2599 0.930 . S
H2604 C2601 0.929 . S
S2605 N2606 1.613 . S
S2605 N2607 1.610 . S
N2606 S2605 1.613 . S
N2606 C2609 1.350 . S
N2607 S2605 1.610 . S
N2607 C2608 1.351 . S
C2608 C2602 1.428 . S
C2608 N2607 1.351 . S
C2608 C2609 1.434 . S
C2609 C2600 1.429 . S
C2609 N2606 1.350 . S
C2609 C2608 1.434 . S
C2610 C2611 1.369 . S
C2610 C2612 1.419 . S
C2610 H2614 0.930 . S
C2611 C2610 1.369 . S
C2611 C2620 1.429 . S
C2612 C2610 1.419 . S
C2612 C2613 1.363 . S
C2612 H2615 0.929 . S
C2613 C2612 1.363 . S
C2613 C2619 1.428 . S
H2614 C2610 0.930 . S
H2615 C2612 0.929 . S
S2616 N2617 1.613 . S
S2616 N2618 1.610 . S
N2617 S2616 1.613 . S
N2617 C2620 1.350 . S
N2618 S2616 1.610 . S
N2618 C2619 1.351 . S
C2619 C2613 1.428 . S
C2619 N2618 1.351 . S
C2619 C2620 1.434 . S
C2620 C2611 1.429 . S
C2620 N2617 1.350 . S
C2620 C2619 1.434 . S
C2621 C2622 1.369 . S
C2621 C2623 1.419 . S
C2621 H2625 0.930 . S
C2622 C2621 1.369 . S
C2622 C2631 1.429 . S
C2623 C2621 1.419 . S
C2623 C2624 1.363 . S
C2623 H2626 0.929 . S
C2624 C2623 1.363 . S
C2624 C2630 1.428 . S
H2625 C2621 0.930 . S
H2626 C2623 0.929 . S
S2627 N2628 1.613 . S
S2627 N2629 1.610 . S
N2628 S2627 1.613 . S
N2628 C2631 1.350 . S
N2629 S2627 1.610 . S
N2629 C2630 1.351 . S
C2630 C2624 1.428 . S
C2630 N2629 1.351 . S
C2630 C2631 1.434 . S
C2631 C2622 1.429 . S
C2631 N2628 1.350 . S
C2631 C2630 1.434 . S
C2632 C2633 1.369 . S
C2632 C2634 1.419 . S
C2632 H2636 0.930 . S
C2633 C2632 1.369 . S
C2633 C2642 1.429 . S
C2634 C2632 1.419 . S
C2634 C2635 1.363 . S
C2634 H2637 0.929 . S
C2635 C2634 1.363 . S
C2635 C2641 1.428 . S
H2636 C2632 0.930 . S
H2637 C2634 0.929 . S
S2638 N2639 1.613 . S
S2638 N2640 1.610 . S
N2639 S2638 1.613 . S
N2639 C2642 1.350 . S
N2640 S2638 1.610 . S
N2640 C2641 1.351 . S
C2641 C2635 1.428 . S
C2641 N2640 1.351 . S
C2641 C2642 1.434 . S
C2642 C2633 1.429 . S
C2642 N2639 1.350 . S
C2642 C2641 1.434 . S
C2643 C2644 1.369 . S
C2643 C2645 1.419 . S
C2643 H2647 0.930 . S
C2644 C2643 1.369 . S
C2644 C2653 1.429 . S
C2645 C2643 1.419 . S
C2645 C2646 1.363 . S
C2645 H2648 0.929 . S
C2646 C2645 1.363 . S
C2646 C2652 1.428 . S
H2647 C2643 0.930 . S
H2648 C2645 0.929 . S
S2649 N2650 1.613 . S
S2649 N2651 1.610 . S
N2650 S2649 1.613 . S
N2650 C2653 1.350 . S
N2651 S2649 1.610 . S
N2651 C2652 1.351 . S
C2652 C2646 1.428 . S
C2652 N2651 1.351 . S
C2652 C2653 1.434 . S
C2653 C2644 1.429 . S
C2653 N2650 1.350 . S
C2653 C2652 1.434 . S
C2654 C2655 1.369 . S
C2654 C2656 1.419 . S
C2654 H2658 0.930 . S
C2655 C2654 1.369 . S
C2655 C2664 1.429 . S
C2656 C2654 1.419 . S
C2656 C2657 1.363 . S
C2656 H2659 0.929 . S
C2657 C2656 1.363 . S
C2657 C2663 1.428 . S
H2658 C2654 0.930 . S
H2659 C2656 0.929 . S
S2660 N2661 1.613 . S
S2660 N2662 1.610 . S
N2661 S2660 1.613 . S
N2661 C2664 1.350 . S
N2662 S2660 1.610 . S
N2662 C2663 1.351 . S
C2663 C2657 1.428 . S
C2663 N2662 1.351 . S
C2663 C2664 1.434 . S
C2664 C2655 1.429 . S
C2664 N2661 1.350 . S
C2664 C2663 1.434 . S
C2665 C2666 1.369 . S
C2665 C2667 1.419 . S
C2665 H2669 0.930 . S
C2666 C2665 1.369 . S
C2666 C2675 1.429 . S
C2667 C2665 1.419 . S
C2667 C2668 1.363 . S
C2667 H2670 0.929 . S
C2668 C2667 1.363 . S
C2668 C2674 1.428 . S
H2669 C2665 0.930 . S
H2670 C2667 0.929 . S
S2671 N2672 1.613 . S
S2671 N2673 1.610 . S
N2672 S2671 1.613 . S
N2672 C2675 1.350 . S
N2673 S2671 1.610 . S
N2673 C2674 1.351 . S
C2674 C2668 1.428 . S
C2674 N2673 1.351 . S
C2674 C2675 1.434 . S
C2675 C2666 1.429 . S
C2675 N2672 1.350 . S
C2675 C2674 1.434 . S
C2676 C2677 1.369 . S
C2676 C2678 1.419 . S
C2676 H2680 0.930 . S
C2677 C2676 1.369 . S
C2677 C2686 1.429 . S
C2678 C2676 1.419 . S
C2678 C2679 1.363 . S
C2678 H2681 0.929 . S
C2679 C2678 1.363 . S
C2679 C2685 1.428 . S
H2680 C2676 0.930 . S
H2681 C2678 0.929 . S
S2682 N2683 1.613 . S
S2682 N2684 1.610 . S
N2683 S2682 1.613 . S
N2683 C2686 1.350 . S
N2684 S2682 1.610 . S
N2684 C2685 1.351 . S
C2685 C2679 1.428 . S
C2685 N2684 1.351 . S
C2685 C2686 1.434 . S
C2686 C2677 1.429 . S
C2686 N2683 1.350 . S
C2686 C2685 1.434 . S
C2687 C2688 1.369 . S
C2687 C2689 1.419 . S
C2687 H2691 0.930 . S
C2688 C2687 1.369 . S
C2688 C2697 1.429 . S
C2689 C2687 1.419 . S
C2689 C2690 1.363 . S
C2689 H2692 0.929 . S
C2690 C2689 1.363 . S
C2690 C2696 1.428 . S
H2691 C2687 0.930 . S
H2692 C2689 0.929 . S
S2693 N2694 1.613 . S
S2693 N2695 1.610 . S
N2694 S2693 1.613 . S
N2694 C2697 1.350 . S
N2695 S2693 1.610 . S
N2695 C2696 1.351 . S
C2696 C2690 1.428 . S
C2696 N2695 1.351 . S
C2696 C2697 1.434 . S
C2697 C2688 1.429 . S
C2697 N2694 1.350 . S
C2697 C2696 1.434 . S
C2698 C2699 1.369 . S
C2698 C2700 1.419 . S
C2698 H2702 0.930 . S
C2699 C2698 1.369 . S
C2699 C2708 1.429 . S
C2700 C2698 1.419 . S
C2700 C2701 1.363 . S
C2700 H2703 0.929 . S
C2701 C2700 1.363 . S
C2701 C2707 1.428 . S
H2702 C2698 0.930 . S
H2703 C2700 0.929 . S
S2704 N2705 1.613 . S
S2704 N2706 1.610 . S
N2705 S2704 1.613 . S
N2705 C2708 1.350 . S
N2706 S2704 1.610 . S
N2706 C2707 1.351 . S
C2707 C2701 1.428 . S
C2707 N2706 1.351 . S
C2707 C2708 1.434 . S
C2708 C2699 1.429 . S
C2708 N2705 1.350 . S
C2708 C2707 1.434 . S
C2709 C2710 1.369 . S
C2709 C2711 1.419 . S
C2709 H2713 0.930 . S
C2710 C2709 1.369 . S
C2710 C2719 1.429 . S
C2711 C2709 1.419 . S
C2711 C2712 1.363 . S
C2711 H2714 0.929 . S
C2712 C2711 1.363 . S
C2712 C2718 1.428 . S
H2713 C2709 0.930 . S
H2714 C2711 0.929 . S
S2715 N2716 1.613 . S
S2715 N2717 1.610 . S
N2716 S2715 1.613 . S
N2716 C2719 1.350 . S
N2717 S2715 1.610 . S
N2717 C2718 1.351 . S
C2718 C2712 1.428 . S
C2718 N2717 1.351 . S
C2718 C2719 1.434 . S
C2719 C2710 1.429 . S
C2719 N2716 1.350 . S
C2719 C2718 1.434 . S
C2720 C2721 1.369 . S
C2720 C2722 1.419 . S
C2720 H2724 0.930 . S
C2721 C2720 1.369 . S
C2721 C2730 1.429 . S
C2722 C2720 1.419 . S
C2722 C2723 1.363 . S
C2722 H2725 0.929 . S
C2723 C2722 1.363 . S
C2723 C2729 1.428 . S
H2724 C2720 0.930 . S
H2725 C2722 0.929 . S
S2726 N2727 1.613 . S
S2726 N2728 1.610 . S
N2727 S2726 1.613 . S
N2727 C2730 1.350 . S
N2728 S2726 1.610 . S
N2728 C2729 1.351 . S
C2729 C2723 1.428 . S
C2729 N2728 1.351 . S
C2729 C2730 1.434 . S
C2730 C2721 1.429 . S
C2730 N2727 1.350 . S
C2730 C2729 1.434 . S
C2731 C2732 1.369 . S
C2731 C2733 1.419 . S
C2731 H2735 0.930 . S
C2732 C2731 1.369 . S
C2732 C2741 1.429 . S
C2733 C2731 1.419 . S
C2733 C2734 1.363 . S
C2733 H2736 0.929 . S
C2734 C2733 1.363 . S
C2734 C2740 1.428 . S
H2735 C2731 0.930 . S
H2736 C2733 0.929 . S
S2737 N2738 1.613 . S
S2737 N2739 1.610 . S
N2738 S2737 1.613 . S
N2738 C2741 1.350 . S
N2739 S2737 1.610 . S
N2739 C2740 1.351 . S
C2740 C2734 1.428 . S
C2740 N2739 1.351 . S
C2740 C2741 1.434 . S
C2741 C2732 1.429 . S
C2741 N2738 1.350 . S
C2741 C2740 1.434 . S
C2742 C2743 1.369 . S
C2742 C2744 1.419 . S
C2742 H2746 0.930 . S
C2743 C2742 1.369 . S
C2743 C2752 1.429 . S
C2744 C2742 1.419 . S
C2744 C2745 1.363 . S
C2744 H2747 0.929 . S
C2745 C2744 1.363 . S
C2745 C2751 1.428 . S
H2746 C2742 0.930 . S
H2747 C2744 0.929 . S
S2748 N2749 1.613 . S
S2748 N2750 1.610 . S
N2749 S2748 1.613 . S
N2749 C2752 1.350 . S
N2750 S2748 1.610 . S
N2750 C2751 1.351 . S
C2751 C2745 1.428 . S
C2751 N2750 1.351 . S
C2751 C2752 1.434 . S
C2752 C2743 1.429 . S
C2752 N2749 1.350 . S
C2752 C2751 1.434 . S
C2753 C2754 1.369 . S
C2753 C2755 1.419 . S
C2753 H2757 0.930 . S
C2754 C2753 1.369 . S
C2754 C2763 1.429 . S
C2755 C2753 1.419 . S
C2755 C2756 1.363 . S
C2755 H2758 0.929 . S
C2756 C2755 1.363 . S
C2756 C2762 1.428 . S
H2757 C2753 0.930 . S
H2758 C2755 0.929 . S
S2759 N2760 1.613 . S
S2759 N2761 1.610 . S
N2760 S2759 1.613 . S
N2760 C2763 1.350 . S
N2761 S2759 1.610 . S
N2761 C2762 1.351 . S
C2762 C2756 1.428 . S
C2762 N2761 1.351 . S
C2762 C2763 1.434 . S
C2763 C2754 1.429 . S
C2763 N2760 1.350 . S
C2763 C2762 1.434 . S
C2764 C2765 1.369 . S
C2764 C2766 1.419 . S
C2764 H2768 0.930 . S
C2765 C2764 1.369 . S
C2765 C2774 1.429 . S
C2766 C2764 1.419 . S
C2766 C2767 1.363 . S
C2766 H2769 0.929 . S
C2767 C2766 1.363 . S
C2767 C2773 1.428 . S
H2768 C2764 0.930 . S
H2769 C2766 0.929 . S
S2770 N2771 1.613 . S
S2770 N2772 1.610 . S
N2771 S2770 1.613 . S
N2771 C2774 1.350 . S
N2772 S2770 1.610 . S
N2772 C2773 1.351 . S
C2773 C2767 1.428 . S
C2773 N2772 1.351 . S
C2773 C2774 1.434 . S
C2774 C2765 1.429 . S
C2774 N2771 1.350 . S
C2774 C2773 1.434 . S
C2775 C2776 1.369 . S
C2775 C2777 1.419 . S
C2775 H2779 0.930 . S
C2776 C2775 1.369 . S
C2776 C2785 1.429 . S
C2777 C2775 1.419 . S
C2777 C2778 1.363 . S
C2777 H2780 0.929 . S
C2778 C2777 1.363 . S
C2778 C2784 1.428 . S
H2779 C2775 0.930 . S
H2780 C2777 0.929 . S
S2781 N2782 1.613 . S
S2781 N2783 1.610 . S
N2782 S2781 1.613 . S
N2782 C2785 1.350 . S
N2783 S2781 1.610 . S
N2783 C2784 1.351 . S
C2784 C2778 1.428 . S
C2784 N2783 1.351 . S
C2784 C2785 1.434 . S
C2785 C2776 1.429 . S
C2785 N2782 1.350 . S
C2785 C2784 1.434 . S
C2786 C2787 1.369 . S
C2786 C2788 1.419 . S
C2786 H2790 0.930 . S
C2787 C2786 1.369 . S
C2787 C2796 1.429 . S
C2788 C2786 1.419 . S
C2788 C2789 1.363 . S
C2788 H2791 0.929 . S
C2789 C2788 1.363 . S
C2789 C2795 1.428 . S
H2790 C2786 0.930 . S
H2791 C2788 0.929 . S
S2792 N2793 1.613 . S
S2792 N2794 1.610 . S
N2793 S2792 1.613 . S
N2793 C2796 1.350 . S
N2794 S2792 1.610 . S
N2794 C2795 1.351 . S
C2795 C2789 1.428 . S
C2795 N2794 1.351 . S
C2795 C2796 1.434 . S
C2796 C2787 1.429 . S
C2796 N2793 1.350 . S
C2796 C2795 1.434 . S
C2797 C2798 1.369 . S
C2797 C2799 1.419 . S
C2797 H2801 0.930 . S
C2798 C2797 1.369 . S
C2798 C2807 1.429 . S
C2799 C2797 1.419 . S
C2799 C2800 1.363 . S
C2799 H2802 0.929 . S
C2800 C2799 1.363 . S
C2800 C2806 1.428 . S
H2801 C2797 0.930 . S
H2802 C2799 0.929 . S
S2803 N2804 1.613 . S
S2803 N2805 1.610 . S
N2804 S2803 1.613 . S
N2804 C2807 1.350 . S
N2805 S2803 1.610 . S
N2805 C2806 1.351 . S
C2806 C2800 1.428 . S
C2806 N2805 1.351 . S
C2806 C2807 1.434 . S
C2807 C2798 1.429 . S
C2807 N2804 1.350 . S
C2807 C2806 1.434 . S
C2808 C2809 1.369 . S
C2808 C2810 1.419 . S
C2808 H2812 0.930 . S
C2809 C2808 1.369 . S
C2809 C2818 1.429 . S
C2810 C2808 1.419 . S
C2810 C2811 1.363 . S
C2810 H2813 0.929 . S
C2811 C2810 1.363 . S
C2811 C2817 1.428 . S
H2812 C2808 0.930 . S
H2813 C2810 0.929 . S
S2814 N2815 1.613 . S
S2814 N2816 1.610 . S
N2815 S2814 1.613 . S
N2815 C2818 1.350 . S
N2816 S2814 1.610 . S
N2816 C2817 1.351 . S
C2817 C2811 1.428 . S
C2817 N2816 1.351 . S
C2817 C2818 1.434 . S
C2818 C2809 1.429 . S
C2818 N2815 1.350 . S
C2818 C2817 1.434 . S
C2819 C2820 1.369 . S
C2819 C2821 1.419 . S
C2819 H2823 0.930 . S
C2820 C2819 1.369 . S
C2820 C2829 1.429 . S
C2821 C2819 1.419 . S
C2821 C2822 1.363 . S
C2821 H2824 0.929 . S
C2822 C2821 1.363 . S
C2822 C2828 1.428 . S
H2823 C2819 0.930 . S
H2824 C2821 0.929 . S
S2825 N2826 1.613 . S
S2825 N2827 1.610 . S
N2826 S2825 1.613 . S
N2826 C2829 1.350 . S
N2827 S2825 1.610 . S
N2827 C2828 1.351 . S
C2828 C2822 1.428 . S
C2828 N2827 1.351 . S
C2828 C2829 1.434 . S
C2829 C2820 1.429 . S
C2829 N2826 1.350 . S
C2829 C2828 1.434 . S
C2830 C2831 1.369 . S
C2830 C2832 1.419 . S
C2830 H2834 0.930 . S
C2831 C2830 1.369 . S
C2831 C2840 1.429 . S
C2832 C2830 1.419 . S
C2832 C2833 1.363 . S
C2832 H2835 0.929 . S
C2833 C2832 1.363 . S
C2833 C2839 1.428 . S
H2834 C2830 0.930 . S
H2835 C2832 0.929 . S
S2836 N2837 1.613 . S
S2836 N2838 1.610 . S
N2837 S2836 1.613 . S
N2837 C2840 1.350 . S
N2838 S2836 1.610 . S
N2838 C2839 1.351 . S
C2839 C2833 1.428 . S
C2839 N2838 1.351 . S
C2839 C2840 1.434 . S
C2840 C2831 1.429 . S
C2840 N2837 1.350 . S
C2840 C2839 1.434 . S
C2841 C2842 1.369 . S
C2841 C2843 1.419 . S
C2841 H2845 0.930 . S
C2842 C2841 1.369 . S
C2842 C2851 1.429 . S
C2843 C2841 1.419 . S
C2843 C2844 1.363 . S
C2843 H2846 0.929 . S
C2844 C2843 1.363 . S
C2844 C2850 1.428 . S
H2845 C2841 0.930 . S
H2846 C2843 0.929 . S
S2847 N2848 1.613 . S
S2847 N2849 1.610 . S
N2848 S2847 1.613 . S
N2848 C2851 1.350 . S
N2849 S2847 1.610 . S
N2849 C2850 1.351 . S
C2850 C2844 1.428 . S
C2850 N2849 1.351 . S
C2850 C2851 1.434 . S
C2851 C2842 1.429 . S
C2851 N2848 1.350 . S
C2851 C2850 1.434 . S
C2852 C2853 1.369 . S
C2852 C2854 1.419 . S
C2852 H2856 0.930 . S
C2853 C2852 1.369 . S
C2853 C2862 1.429 . S
C2854 C2852 1.419 . S
C2854 C2855 1.363 . S
C2854 H2857 0.929 . S
C2855 C2854 1.363 . S
C2855 C2861 1.428 . S
H2856 C2852 0.930 . S
H2857 C2854 0.929 . S
S2858 N2859 1.613 . S
S2858 N2860 1.610 . S
N2859 S2858 1.613 . S
N2859 C2862 1.350 . S
N2860 S2858 1.610 . S
N2860 C2861 1.351 . S
C2861 C2855 1.428 . S
C2861 N2860 1.351 . S
C2861 C2862 1.434 . S
C2862 C2853 1.429 . S
C2862 N2859 1.350 . S
C2862 C2861 1.434 . S
C2863 C2864 1.369 . S
C2863 C2865 1.419 . S
C2863 H2867 0.930 . S
C2864 C2863 1.369 . S
C2864 C2873 1.429 . S
C2865 C2863 1.419 . S
C2865 C2866 1.363 . S
C2865 H2868 0.929 . S
C2866 C2865 1.363 . S
C2866 C2872 1.428 . S
H2867 C2863 0.930 . S
H2868 C2865 0.929 . S
S2869 N2870 1.613 1_554 S
S2869 N2871 1.610 1_554 S
N2870 S2869 1.613 1_556 S
N2870 C2873 1.350 . S
N2871 S2869 1.610 1_556 S
N2871 C2872 1.351 . S
C2872 C2866 1.428 . S
C2872 N2871 1.351 . S
C2872 C2873 1.434 . S
C2873 C2864 1.429 . S
C2873 N2870 1.350 . S
C2873 C2872 1.434 . S
C2874 C2875 1.369 . S
C2874 C2876 1.419 . S
C2874 H2878 0.930 . S
C2875 C2874 1.369 . S
C2875 C2884 1.429 . S
C2876 C2874 1.419 . S
C2876 C2877 1.363 . S
C2876 H2879 0.929 . S
C2877 C2876 1.363 . S
C2877 C2883 1.428 . S
H2878 C2874 0.930 . S
H2879 C2876 0.929 . S
S2880 N2881 1.613 . S
S2880 N2882 1.610 . S
N2881 S2880 1.613 . S
N2881 C2884 1.350 . S
N2882 S2880 1.610 . S
N2882 C2883 1.351 . S
C2883 C2877 1.428 . S
C2883 N2882 1.351 . S
C2883 C2884 1.434 . S
C2884 C2875 1.429 . S
C2884 N2881 1.350 . S
C2884 C2883 1.434 . S
C2885 C2886 1.369 . S
C2885 C2887 1.419 . S
C2885 H2889 0.930 . S
C2886 C2885 1.369 . S
C2886 C2895 1.429 . S
C2887 C2885 1.419 . S
C2887 C2888 1.363 . S
C2887 H2890 0.929 . S
C2888 C2887 1.363 . S
C2888 C2894 1.428 . S
H2889 C2885 0.930 . S
H2890 C2887 0.929 . S
S2891 N2892 1.613 . S
S2891 N2893 1.610 . S
N2892 S2891 1.613 . S
N2892 C2895 1.350 . S
N2893 S2891 1.610 . S
N2893 C2894 1.351 . S
C2894 C2888 1.428 . S
C2894 N2893 1.351 . S
C2894 C2895 1.434 . S
C2895 C2886 1.429 . S
C2895 N2892 1.350 . S
C2895 C2894 1.434 . S
C2896 C2897 1.369 . S
C2896 C2898 1.419 . S
C2896 H2900 0.930 . S
C2897 C2896 1.369 . S
C2897 C2906 1.429 . S
C2898 C2896 1.419 . S
C2898 C2899 1.363 . S
C2898 H2901 0.929 . S
C2899 C2898 1.363 . S
C2899 C2905 1.428 . S
H2900 C2896 0.930 . S
H2901 C2898 0.929 . S
S2902 N2903 1.613 . S
S2902 N2904 1.610 . S
N2903 S2902 1.613 . S
N2903 C2906 1.350 . S
N2904 S2902 1.610 . S
N2904 C2905 1.351 . S
C2905 C2899 1.428 . S
C2905 N2904 1.351 . S
C2905 C2906 1.434 . S
C2906 C2897 1.429 . S
C2906 N2903 1.350 . S
C2906 C2905 1.434 . S
C2907 C2908 1.369 . S
C2907 C2909 1.419 . S
C2907 H2911 0.930 . S
C2908 C2907 1.369 . S
C2908 C2917 1.429 . S
C2909 C2907 1.419 . S
C2909 C2910 1.363 . S
C2909 H2912 0.929 . S
C2910 C2909 1.363 . S
C2910 C2916 1.428 . S
H2911 C2907 0.930 . S
H2912 C2909 0.929 . S
S2913 N2914 1.613 . S
S2913 N2915 1.610 . S
N2914 S2913 1.613 . S
N2914 C2917 1.350 . S
N2915 S2913 1.610 . S
N2915 C2916 1.351 . S
C2916 C2910 1.428 . S
C2916 N2915 1.351 . S
C2916 C2917 1.434 . S
C2917 C2908 1.429 . S
C2917 N2914 1.350 . S
C2917 C2916 1.434 . S
C2918 C2919 1.369 . S
C2918 C2920 1.419 . S
C2918 H2922 0.930 . S
C2919 C2918 1.369 . S
C2919 C2928 1.429 . S
C2920 C2918 1.419 . S
C2920 C2921 1.363 . S
C2920 H2923 0.929 . S
C2921 C2920 1.363 . S
C2921 C2927 1.428 . S
H2922 C2918 0.930 . S
H2923 C2920 0.929 . S
S2924 N2925 1.613 . S
S2924 N2926 1.610 . S
N2925 S2924 1.613 . S
N2925 C2928 1.350 . S
N2926 S2924 1.610 . S
N2926 C2927 1.351 . S
C2927 C2921 1.428 . S
C2927 N2926 1.351 . S
C2927 C2928 1.434 . S
C2928 C2919 1.429 . S
C2928 N2925 1.350 . S
C2928 C2927 1.434 . S
C2929 C2930 1.369 . S
C2929 C2931 1.419 . S
C2929 H2933 0.930 . S
C2930 C2929 1.369 . S
C2930 C2939 1.429 . S
C2931 C2929 1.419 . S
C2931 C2932 1.363 . S
C2931 H2934 0.929 . S
C2932 C2931 1.363 . S
C2932 C2938 1.428 . S
H2933 C2929 0.930 . S
H2934 C2931 0.929 . S
S2935 N2936 1.613 . S
S2935 N2937 1.610 . S
N2936 S2935 1.613 . S
N2936 C2939 1.350 . S
N2937 S2935 1.610 . S
N2937 C2938 1.351 . S
C2938 C2932 1.428 . S
C2938 N2937 1.351 . S
C2938 C2939 1.434 . S
C2939 C2930 1.429 . S
C2939 N2936 1.350 . S
C2939 C2938 1.434 . S
C2940 C2941 1.369 . S
C2940 C2942 1.419 . S
C2940 H2944 0.930 . S
C2941 C2940 1.369 . S
C2941 C2950 1.429 . S
C2942 C2940 1.419 . S
C2942 C2943 1.363 . S
C2942 H2945 0.929 . S
C2943 C2942 1.363 . S
C2943 C2949 1.428 . S
H2944 C2940 0.930 . S
H2945 C2942 0.929 . S
S2946 N2947 1.613 . S
S2946 N2948 1.610 . S
N2947 S2946 1.613 . S
N2947 C2950 1.350 . S
N2948 S2946 1.610 . S
N2948 C2949 1.351 . S
C2949 C2943 1.428 . S
C2949 N2948 1.351 . S
C2949 C2950 1.434 . S
C2950 C2941 1.429 . S
C2950 N2947 1.350 . S
C2950 C2949 1.434 . S
C2951 C2952 1.369 . S
C2951 C2953 1.419 . S
C2951 H2955 0.930 . S
C2952 C2951 1.369 . S
C2952 C2961 1.429 . S
C2953 C2951 1.419 . S
C2953 C2954 1.363 . S
C2953 H2956 0.929 . S
C2954 C2953 1.363 . S
C2954 C2960 1.428 . S
H2955 C2951 0.930 . S
H2956 C2953 0.929 . S
S2957 N2958 1.613 . S
S2957 N2959 1.610 . S
N2958 S2957 1.613 . S
N2958 C2961 1.350 . S
N2959 S2957 1.610 . S
N2959 C2960 1.351 . S
C2960 C2954 1.428 . S
C2960 N2959 1.351 . S
C2960 C2961 1.434 . S
C2961 C2952 1.429 . S
C2961 N2958 1.350 . S
C2961 C2960 1.434 . S
C2962 C2963 1.369 . S
C2962 C2964 1.419 . S
C2962 H2966 0.930 . S
C2963 C2962 1.369 . S
C2963 C2972 1.429 . S
C2964 C2962 1.419 . S
C2964 C2965 1.363 . S
C2964 H2967 0.929 . S
C2965 C2964 1.363 . S
C2965 C2971 1.428 . S
H2966 C2962 0.930 . S
H2967 C2964 0.929 . S
S2968 N2969 1.613 . S
S2968 N2970 1.610 . S
N2969 S2968 1.613 . S
N2969 C2972 1.350 . S
N2970 S2968 1.610 . S
N2970 C2971 1.351 . S
C2971 C2965 1.428 . S
C2971 N2970 1.351 . S
C2971 C2972 1.434 . S
C2972 C2963 1.429 . S
C2972 N2969 1.350 . S
C2972 C2971 1.434 . S
C2973 C2974 1.369 . S
C2973 C2975 1.419 . S
C2973 H2977 0.930 . S
C2974 C2973 1.369 . S
C2974 C2983 1.429 . S
C2975 C2973 1.419 . S
C2975 C2976 1.363 . S
C2975 H2978 0.929 . S
C2976 C2975 1.363 . S
C2976 C2982 1.428 . S
H2977 C2973 0.930 . S
H2978 C2975 0.929 . S
S2979 N2980 1.613 . S
S2979 N2981 1.610 . S
N2980 S2979 1.613 . S
N2980 C2983 1.350 . S
N2981 S2979 1.610 . S
N2981 C2982 1.351 . S
C2982 C2976 1.428 . S
C2982 N2981 1.351 . S
C2982 C2983 1.434 . S
C2983 C2974 1.429 . S
C2983 N2980 1.350 . S
C2983 C2982 1.434 . S
C2984 C2985 1.369 . S
C2984 C2986 1.419 . S
C2984 H2988 0.930 . S
C2985 C2984 1.369 . S
C2985 C2994 1.429 . S
C2986 C2984 1.419 . S
C2986 C2987 1.363 . S
C2986 H2989 0.929 . S
C2987 C2986 1.363 . S
C2987 C2993 1.428 . S
H2988 C2984 0.930 . S
H2989 C2986 0.929 . S
S2990 N2991 1.613 . S
S2990 N2992 1.610 . S
N2991 S2990 1.613 . S
N2991 C2994 1.350 . S
N2992 S2990 1.610 . S
N2992 C2993 1.351 . S
C2993 C2987 1.428 . S
C2993 N2992 1.351 . S
C2993 C2994 1.434 . S
C2994 C2985 1.429 . S
C2994 N2991 1.350 . S
C2994 C2993 1.434 . S
C2995 C2996 1.369 . S
C2995 C2997 1.419 . S
C2995 H2999 0.930 . S
C2996 C2995 1.369 . S
C2996 C3005 1.429 1_565 S
C2997 C2995 1.419 . S
C2997 C2998 1.363 . S
C2997 H3000 0.929 . S
C2998 C2997 1.363 . S
C2998 C3004 1.428 1_565 S
H2999 C2995 0.930 . S
H3000 C2997 0.929 . S
S3001 N3002 1.613 . S
S3001 N3003 1.610 . S
N3002 S3001 1.613 . S
N3002 C3005 1.350 . S
N3003 S3001 1.610 . S
N3003 C3004 1.351 . S
C3004 C2998 1.428 1_545 S
C3004 N3003 1.351 . S
C3004 C3005 1.434 . S
C3005 C2996 1.429 1_545 S
C3005 N3002 1.350 . S
C3005 C3004 1.434 . S
C3006 C3007 1.369 . S
C3006 C3008 1.419 . S
C3006 H3010 0.930 . S
C3007 C3006 1.369 . S
C3007 C3016 1.429 . S
C3008 C3006 1.419 . S
C3008 C3009 1.363 . S
C3008 H3011 0.938 . S
C3009 C3008 1.363 . S
C3009 C3015 1.428 . S
H3010 C3006 0.930 . S
H3011 C3008 0.938 . S
S3012 N3013 1.613 . S
S3012 N3014 1.610 . S
N3013 S3012 1.613 . S
N3013 C3016 1.350 . S
N3014 S3012 1.610 . S
N3014 C3015 1.351 . S
C3015 C3009 1.428 . S
C3015 N3014 1.351 . S
C3015 C3016 1.434 . S
C3016 C3007 1.429 . S
C3016 N3013 1.350 . S
C3016 C3015 1.434 . S
C3017 C3018 1.369 . S
C3017 C3019 1.419 . S
C3017 H3021 0.930 . S
C3018 C3017 1.369 . S
C3018 C3027 1.429 1_455 S
C3019 C3017 1.419 . S
C3019 C3020 1.363 . S
C3019 H3022 0.929 . S
C3020 C3019 1.363 . S
C3020 C3026 1.428 1_455 S
H3021 C3017 0.930 . S
H3022 C3019 0.929 . S
S3023 N3024 1.613 . S
S3023 N3025 1.610 . S
N3024 S3023 1.613 . S
N3024 C3027 1.350 . S
N3025 S3023 1.610 . S
N3025 C3026 1.351 . S
C3026 C3020 1.428 1_655 S
C3026 N3025 1.351 . S
C3026 C3027 1.434 . S
C3027 C3018 1.429 1_655 S
C3027 N3024 1.350 . S
C3027 C3026 1.434 . S
C3028 C3029 1.369 . S
C3028 C3030 1.419 . S
C3028 H3032 0.930 . S
C3029 C3028 1.369 . S
C3029 C3038 1.429 . S
C3030 C3028 1.419 . S
C3030 C3031 1.363 . S
C3030 H3033 0.929 . S
C3031 C3030 1.363 . S
C3031 C3037 1.428 . S
H3032 C3028 0.930 . S
H3033 C3030 0.929 . S
S3034 N3035 1.613 . S
S3034 N3036 1.610 . S
N3035 S3034 1.613 . S
N3035 C3038 1.350 . S
N3036 S3034 1.610 . S
N3036 C3037 1.351 . S
C3037 C3031 1.428 . S
C3037 N3036 1.351 . S
C3037 C3038 1.434 . S
C3038 C3029 1.429 . S
C3038 N3035 1.350 . S
C3038 C3037 1.434 . S
C3039 C3040 1.369 . S
C3039 C3041 1.419 . S
C3039 H3043 0.930 . S
C3040 C3039 1.369 . S
C3040 C3049 1.429 . S
C3041 C3039 1.419 . S
C3041 C3042 1.363 . S
C3041 H3044 0.929 . S
C3042 C3041 1.363 . S
C3042 C3048 1.428 . S
H3043 C3039 0.930 . S
H3044 C3041 0.929 . S
S3045 N3046 1.613 . S
S3045 N3047 1.610 . S
N3046 S3045 1.613 . S
N3046 C3049 1.350 . S
N3047 S3045 1.610 . S
N3047 C3048 1.351 . S
C3048 C3042 1.428 . S
C3048 N3047 1.351 . S
C3048 C3049 1.434 . S
C3049 C3040 1.429 . S
C3049 N3046 1.350 . S
C3049 C3048 1.434 . S
C3050 C3051 1.369 . S
C3050 C3052 1.419 . S
C3050 H3054 0.930 . S
C3051 C3050 1.369 . S
C3051 C3060 1.429 . S
C3052 C3050 1.419 . S
C3052 C3053 1.363 . S
C3052 H3055 0.929 . S
C3053 C3052 1.363 . S
C3053 C3059 1.428 . S
H3054 C3050 0.930 . S
H3055 C3052 0.929 . S
S3056 N3057 1.613 . S
S3056 N3058 1.610 . S
N3057 S3056 1.613 . S
N3057 C3060 1.350 . S
N3058 S3056 1.610 . S
N3058 C3059 1.351 . S
C3059 C3053 1.428 . S
C3059 N3058 1.351 . S
C3059 C3060 1.434 . S
C3060 C3051 1.429 . S
C3060 N3057 1.350 . S
C3060 C3059 1.434 . S
C3061 C3062 1.369 . S
C3061 C3063 1.419 . S
C3061 H3065 0.930 . S
C3062 C3061 1.369 . S
C3062 C3071 1.429 . S
C3063 C3061 1.419 . S
C3063 C3064 1.363 . S
C3063 H3066 0.929 . S
C3064 C3063 1.363 . S
C3064 C3070 1.428 . S
H3065 C3061 0.930 . S
H3066 C3063 0.929 . S
S3067 N3068 1.613 . S
S3067 N3069 1.610 . S
N3068 S3067 1.613 . S
N3068 C3071 1.350 . S
N3069 S3067 1.610 . S
N3069 C3070 1.351 . S
C3070 C3064 1.428 . S
C3070 N3069 1.351 . S
C3070 C3071 1.434 . S
C3071 C3062 1.429 . S
C3071 N3068 1.350 . S
C3071 C3070 1.434 . S
C3072 C3073 1.369 . S
C3072 C3074 1.419 . S
C3072 H3076 0.930 . S
C3073 C3072 1.369 . S
C3073 C3082 1.429 . S
C3074 C3072 1.419 . S
C3074 C3075 1.363 . S
C3074 H3077 0.929 1_545 S
C3075 C3074 1.363 . S
C3075 C3081 1.428 . S
H3076 C3072 0.930 . S
H3077 C3074 0.929 1_565 S
S3078 N3079 1.613 . S
S3078 N3080 1.610 . S
N3079 S3078 1.613 . S
N3079 C3082 1.350 . S
N3080 S3078 1.610 . S
N3080 C3081 1.351 . S
C3081 C3075 1.428 . S
C3081 N3080 1.351 . S
C3081 C3082 1.434 . S
C3082 C3073 1.429 . S
C3082 N3079 1.350 . S
C3082 C3081 1.434 . S
C3083 C3084 1.369 . S
C3083 C3085 1.419 . S
C3083 H3087 0.930 . S
C3084 C3083 1.369 . S
C3084 C3093 1.429 1_655 S
C3085 C3083 1.419 . S
C3085 C3086 1.363 . S
C3085 H3088 0.929 . S
C3086 C3085 1.363 . S
C3086 C3092 1.428 1_655 S
H3087 C3083 0.930 . S
H3088 C3085 0.929 . S
S3089 N3090 1.613 . S
S3089 N3091 1.610 . S
N3090 S3089 1.613 . S
N3090 C3093 1.350 . S
N3091 S3089 1.610 . S
N3091 C3092 1.351 . S
C3092 C3086 1.428 1_455 S
C3092 N3091 1.351 . S
C3092 C3093 1.434 . S
C3093 C3084 1.429 1_455 S
C3093 N3090 1.350 . S
C3093 C3092 1.434 . S
C3094 C3095 1.369 . S
C3094 C3096 1.419 . S
C3094 H3098 0.930 . S
C3095 C3094 1.369 . S
C3095 C3104 1.429 . S
C3096 C3094 1.419 . S
C3096 C3097 1.363 . S
C3096 H3099 0.929 . S
C3097 C3096 1.363 . S
C3097 C3103 1.428 . S
H3098 C3094 0.930 . S
H3099 C3096 0.929 . S
S3100 N3101 1.613 . S
S3100 N3102 1.610 . S
N3101 S3100 1.613 . S
N3101 C3104 1.350 . S
N3102 S3100 1.610 . S
N3102 C3103 1.351 . S
C3103 C3097 1.428 . S
C3103 N3102 1.351 . S
C3103 C3104 1.434 . S
C3104 C3095 1.429 . S
C3104 N3101 1.350 . S
C3104 C3103 1.434 . S
C3105 C3106 1.369 . S
C3105 C3107 1.419 . S
C3105 H3109 0.930 . S
C3106 C3105 1.369 . S
C3106 C3115 1.429 . S
C3107 C3105 1.419 . S
C3107 C3108 1.363 . S
C3107 H3110 0.929 . S
C3108 C3107 1.363 . S
C3108 C3114 1.428 . S
H3109 C3105 0.930 . S
H3110 C3107 0.929 . S
S3111 N3112 1.613 . S
S3111 N3113 1.610 . S
N3112 S3111 1.613 . S
N3112 C3115 1.350 . S
N3113 S3111 1.610 . S
N3113 C3114 1.351 . S
C3114 C3108 1.428 . S
C3114 N3113 1.351 . S
C3114 C3115 1.434 . S
C3115 C3106 1.429 . S
C3115 N3112 1.350 . S
C3115 C3114 1.434 . S
C3116 C3117 1.369 . S
C3116 C3118 1.419 . S
C3116 H3120 0.930 . S
C3117 C3116 1.369 . S
C3117 C3126 1.429 . S
C3118 C3116 1.419 . S
C3118 C3119 1.363 . S
C3118 H3121 0.929 . S
C3119 C3118 1.363 . S
C3119 C3125 1.428 . S
H3120 C3116 0.930 . S
H3121 C3118 0.929 . S
S3122 N3123 1.613 . S
S3122 N3124 1.610 . S
N3123 S3122 1.613 . S
N3123 C3126 1.350 . S
N3124 S3122 1.610 . S
N3124 C3125 1.351 . S
C3125 C3119 1.428 . S
C3125 N3124 1.351 . S
C3125 C3126 1.434 . S
C3126 C3117 1.429 . S
C3126 N3123 1.350 . S
C3126 C3125 1.434 . S
C3127 C3128 1.369 . S
C3127 C3129 1.419 . S
C3127 H3131 0.930 . S
C3128 C3127 1.369 . S
C3128 C3137 1.429 . S
C3129 C3127 1.419 . S
C3129 C3130 1.363 . S
C3129 H3132 0.929 . S
C3130 C3129 1.363 . S
C3130 C3136 1.428 . S
H3131 C3127 0.930 . S
H3132 C3129 0.929 . S
S3133 N3134 1.613 . S
S3133 N3135 1.610 . S
N3134 S3133 1.613 . S
N3134 C3137 1.350 . S
N3135 S3133 1.610 . S
N3135 C3136 1.351 . S
C3136 C3130 1.428 . S
C3136 N3135 1.351 . S
C3136 C3137 1.434 . S
C3137 C3128 1.429 . S
C3137 N3134 1.350 . S
C3137 C3136 1.434 . S
C3138 C3139 1.369 . S
C3138 C3140 1.419 . S
C3138 H3142 0.930 . S
C3139 C3138 1.369 . S
C3139 C3148 1.429 . S
C3140 C3138 1.419 . S
C3140 C3141 1.363 . S
C3140 H3143 0.929 . S
C3141 C3140 1.363 . S
C3141 C3147 1.428 . S
H3142 C3138 0.930 . S
H3143 C3140 0.929 . S
S3144 N3145 1.613 . S
S3144 N3146 1.610 . S
N3145 S3144 1.613 . S
N3145 C3148 1.350 . S
N3146 S3144 1.610 . S
N3146 C3147 1.351 . S
C3147 C3141 1.428 . S
C3147 N3146 1.351 . S
C3147 C3148 1.434 . S
C3148 C3139 1.429 . S
C3148 N3145 1.350 . S
C3148 C3147 1.434 . S
C3149 C3150 1.369 . S
C3149 C3151 1.419 . S
C3149 H3153 0.930 . S
C3150 C3149 1.369 . S
C3150 C3159 1.429 . S
C3151 C3149 1.419 . S
C3151 C3152 1.363 . S
C3151 H3154 0.929 . S
C3152 C3151 1.363 . S
C3152 C3158 1.428 . S
H3153 C3149 0.930 . S
H3154 C3151 0.929 . S
S3155 N3156 1.613 . S
S3155 N3157 1.610 . S
N3156 S3155 1.613 . S
N3156 C3159 1.350 . S
N3157 S3155 1.610 . S
N3157 C3158 1.351 . S
C3158 C3152 1.428 . S
C3158 N3157 1.351 . S
C3158 C3159 1.434 . S
C3159 C3150 1.429 . S
C3159 N3156 1.350 . S
C3159 C3158 1.434 . S
C3160 C3161 1.369 . S
C3160 C3162 1.419 . S
C3160 H3164 0.930 . S
C3161 C3160 1.369 . S
C3161 C3170 1.429 . S
C3162 C3160 1.419 . S
C3162 C3163 1.363 . S
C3162 H3165 0.929 . S
C3163 C3162 1.363 . S
C3163 C3169 1.428 . S
H3164 C3160 0.930 . S
H3165 C3162 0.929 . S
S3166 N3167 1.613 . S
S3166 N3168 1.610 . S
N3167 S3166 1.613 . S
N3167 C3170 1.350 . S
N3168 S3166 1.610 . S
N3168 C3169 1.351 . S
C3169 C3163 1.428 . S
C3169 N3168 1.351 . S
C3169 C3170 1.434 . S
C3170 C3161 1.429 . S
C3170 N3167 1.350 . S
C3170 C3169 1.434 . S
C3171 C3172 1.369 1_455 S
C3171 C3173 1.419 . S
C3171 H3175 0.930 . S
C3172 C3171 1.369 1_655 S
C3172 C3181 1.429 . S
C3173 C3171 1.419 . S
C3173 C3174 1.363 1_455 S
C3173 H3176 0.929 . S
C3174 C3173 1.363 1_655 S
C3174 C3180 1.428 . S
H3175 C3171 0.930 . S
H3176 C3173 0.929 . S
S3177 N3178 1.613 . S
S3177 N3179 1.610 . S
N3178 S3177 1.613 . S
N3178 C3181 1.350 . S
N3179 S3177 1.610 . S
N3179 C3180 1.351 . S
C3180 C3174 1.428 . S
C3180 N3179 1.351 . S
C3180 C3181 1.434 . S
C3181 C3172 1.429 . S
C3181 N3178 1.350 . S
C3181 C3180 1.434 . S
C3182 C3183 1.369 . S
C3182 C3184 1.419 . S
C3182 H3186 0.930 . S
C3183 C3182 1.369 . S
C3183 C3192 1.429 . S
C3184 C3182 1.419 . S
C3184 C3185 1.363 . S
C3184 H3187 0.929 . S
C3185 C3184 1.363 . S
C3185 C3191 1.428 . S
H3186 C3182 0.930 . S
H3187 C3184 0.929 . S
S3188 N3189 1.613 . S
S3188 N3190 1.610 . S
N3189 S3188 1.613 . S
N3189 C3192 1.350 . S
N3190 S3188 1.610 . S
N3190 C3191 1.351 . S
C3191 C3185 1.428 . S
C3191 N3190 1.351 . S
C3191 C3192 1.434 . S
C3192 C3183 1.429 . S
C3192 N3189 1.350 . S
C3192 C3191 1.434 . S
C3193 C3194 1.369 . S
C3193 C3195 1.419 . S
C3193 H3197 0.930 . S
C3194 C3193 1.369 . S
C3194 C3203 1.429 . S
C3195 C3193 1.419 . S
C3195 C3196 1.363 . S
C3195 H3198 0.929 . S
C3196 C3195 1.363 . S
C3196 C3202 1.427 1_545 S
H3197 C3193 0.930 . S
H3198 C3195 0.929 . S
S3199 N3200 1.613 . S
S3199 N3201 1.610 . S
N3200 S3199 1.613 . S
N3200 C3203 1.350 1_565 S
N3201 S3199 1.610 . S
N3201 C3202 1.350 . S
C3202 C3196 1.427 1_565 S
C3202 N3201 1.350 . S
C3202 C3203 1.436 1_565 S
C3203 C3194 1.429 . S
C3203 N3200 1.350 1_545 S
C3203 C3202 1.436 1_545 S
C2413 C49 1.639 . S
C2415 C2020 1.717 . S
C2424 C137 1.628 . S
C2426 C2066 1.642 . S
C2437 C2098 1.731 . S
C2435 C205 1.662 . S
C2446 C196 1.638 . S
C2448 C2151 1.718 . S
C2457 C57 1.662 . S
C2459 C2197 1.749 . S
C2468 C145 1.626 . S
C2470 C2236 1.648 . S
C2479 C313 1.650 . S
C2481 C2190 1.727 . S
C2492 C2243 1.646 . S
C2490 C401 1.627 . S
C2503 C2144 1.736 . S
C2501 C489 1.657 . S
C2512 C469 1.653 . S
C2514 C2105 1.713 . S
C2525 C1999 1.735 . S
C2523 C293 1.660 . S
C2534 C381 1.627 . S
C2536 C2045 1.639 . S
C2545 C577 1.690 . S
C2547 C2275 1.701 . S
C2556 C645 1.671 . S
C2558 C2342 1.652 . S
C2569 C2388 1.628 . S
C2567 C733 1.632 . S
C2578 C724 1.613 . S
C2580 C1599 1.619 . S
C2589 C585 1.672 . S
C2591 C1645 1.677 . S
C2600 C636 1.677 . S
C2602 C1691 1.674 . S
C2611 C841 1.614 . S
C2613 C1638 1.616 . S
C2622 C937 1.681 . S
C2624 C1684 1.677 . S
C2635 C1592 1.680 . S
C2633 C1025 1.675 . S
C2646 C2367 1.697 . S
C2644 C988 1.699 . S
C2657 C2296 1.634 . S
C2655 C821 1.632 . S
C2668 C2321 1.654 . S
C2666 C900 1.674 . S
C2677 C1105 1.614 . S
C2679 C1723 1.626 . S
C2688 C1193 1.677 . S
C2690 C1776 1.683 . S
C2699 C1281 1.671 . S
C2701 C1822 1.686 . S
C2710 C1289 1.690 . S
C2712 C1868 1.701 . S
C2723 C1921 1.629 . S
C2721 C1113 1.635 . S
C2734 C1967 1.655 . S
C2732 C1201 1.671 . S
C2745 C1914 1.698 . S
C2743 C1369 1.698 . S
C2756 C1960 1.654 . S
C2754 C1457 1.673 . S
C2765 C1553 1.631 . S
C2767 C1875 1.634 . S
C2778 C1829 1.623 . S
C2776 C1516 1.614 . S
C2787 C1349 1.678 . S
C2789 C1744 1.688 . S
C2800 C1783 1.686 . S
C2798 C1437 1.681 . S
C2811 C1606 1.748 . S
C2809 C29 1.722 . S
C2820 C117 1.610 . S
C2822 C1652 1.600 . S
C2833 C1698 1.772 . S
C2831 C225 1.769 . S
C2844 C1730 1.715 . S
C2842 C233 1.731 . S
C2855 C1769 1.745 . S
C2853 C20 1.764 . S
C2866 C1815 1.573 . S
C2864 C108 1.613 . S
C2875 C321 1.727 . S
C2877 C1836 1.727 . S
C2886 C409 1.613 . S
C2888 C1737 1.573 . S
C2897 C497 1.769 . S
C2899 C1790 1.753 . S
C2908 C460 1.734 . S
C2910 C1631 1.749 . S
C2921 C1677 1.783 . S
C2919 C284 1.775 . S
C2930 C372 1.613 . S
C2932 C1585 1.598 . S
C2943 C1861 1.565 . S
C2941 C557 1.599 . S
C2952 C665 1.669 . S
C2954 C1928 1.639 . S
C2963 C753 1.671 . S
C2965 C1974 1.642 . S
C2976 C2013 1.234 . S
C2974 C761 1.228 . S
C2985 C548 1.590 . S
C2987 C2059 1.575 . S
C2996 C673 1.232 . S
C2998 C2091 1.236 . S
C3007 C849 1.231 . S
C3009 C2112 1.225 . S
C3018 C929 1.242 . S
C3020 C2006 1.247 . S
C3031 C2052 1.579 . S
C3029 C1017 1.592 . S
C3040 C997 1.614 . S
C3042 C1907 1.589 . S
C3051 C812 1.666 . S
C3053 C1953 1.640 . S
C3064 C1882 1.624 . S
C3062 C909 1.670 . S
C3075 C2158 1.236 . S
C3073 C1085 1.230 . S
C3084 C1173 1.232 . S
C3086 C2204 1.237 . S
C3095 C1261 1.593 . S
C3097 C2229 1.547 . S
C3108 C2282 1.562 . S
C3106 C1252 1.600 . S
C3119 C2335 1.642 . S
C3117 C1076 1.670 . S
C3128 C1164 1.672 . S
C3130 C2381 1.639 . S
C3139 C1377 1.609 . S
C3141 C2374 1.596 . S
C3150 C1465 1.674 . S
C3152 C2289 1.616 . S
C3163 C2328 1.636 . S
C3161 C1545 1.673 . S
C3174 C2183 1.231 . S
C3172 C1525 1.224 . S
C3185 C2250 1.556 . S
C3183 C1340 1.596 . S
C3194 C1428 1.243 . S
C3196 C2137 1.247 . S
