# Generated by pormake.
# Topology cml, (3,6)-cn, num edge types: 1
# Building blocks:
#     Node 0, Type 0, BuildingBlock: MIDCAF_clean_linker_0, # of connection points: 3
#     Node 1, Type 0, BuildingBlock: MIDCAF_clean_linker_0, # of connection points: 3
#     Node 2, Type 0, BuildingBlock: MIDCAF_clean_linker_0, # of connection points: 3
#     Node 3, Type 0, BuildingBlock: MIDCAF_clean_linker_0, # of connection points: 3
#     Node 4, Type 0, BuildingBlock: MIDCAF_clean_linker_0, # of connection points: 3
#     Node 5, Type 0, BuildingBlock: MIDCAF_clean_linker_0, # of connection points: 3
#     Node 6, Type 0, BuildingBlock: MIDCAF_clean_linker_0, # of connection points: 3
#     Node 7, Type 0, BuildingBlock: MIDCAF_clean_linker_0, # of connection points: 3
#     Node 8, Type 1, BuildingBlock: IZENUY_clean_sbu_0, # of connection points: 6
#     Node 9, Type 1, BuildingBlock: IZENUY_clean_sbu_0, # of connection points: 6
#     Node 10, Type 1, BuildingBlock: IZENUY_clean_sbu_0, # of connection points: 6
#     Node 11, Type 1, BuildingBlock: IZENUY_clean_sbu_0, # of connection points: 6
#     Edge 12, Type (0, 1), BuildingBlock: UVAHIK_clean_linker_0, # of connection points: 2
#     Edge 13, Type (0, 1), BuildingBlock: UVAHIK_clean_linker_0, # of connection points: 2
#     Edge 14, Type (0, 1), BuildingBlock: UVAHIK_clean_linker_0, # of connection points: 2
#     Edge 15, Type (0, 1), BuildingBlock: UVAHIK_clean_linker_0, # of connection points: 2
#     Edge 16, Type (0, 1), BuildingBlock: UVAHIK_clean_linker_0, # of connection points: 2
#     Edge 17, Type (0, 1), BuildingBlock: UVAHIK_clean_linker_0, # of connection points: 2
#     Edge 18, Type (0, 1), BuildingBlock: UVAHIK_clean_linker_0, # of connection points: 2
#     Edge 19, Type (0, 1), BuildingBlock: UVAHIK_clean_linker_0, # of connection points: 2
#     Edge 20, Type (0, 1), BuildingBlock: UVAHIK_clean_linker_0, # of connection points: 2
#     Edge 21, Type (0, 1), BuildingBlock: UVAHIK_clean_linker_0, # of connection points: 2
#     Edge 22, Type (0, 1), BuildingBlock: UVAHIK_clean_linker_0, # of connection points: 2
#     Edge 23, Type (0, 1), BuildingBlock: UVAHIK_clean_linker_0, # of connection points: 2
#     Edge 24, Type (0, 1), BuildingBlock: UVAHIK_clean_linker_0, # of connection points: 2
#     Edge 25, Type (0, 1), BuildingBlock: UVAHIK_clean_linker_0, # of connection points: 2
#     Edge 26, Type (0, 1), BuildingBlock: UVAHIK_clean_linker_0, # of connection points: 2
#     Edge 27, Type (0, 1), BuildingBlock: UVAHIK_clean_linker_0, # of connection points: 2
#     Edge 28, Type (0, 1), BuildingBlock: UVAHIK_clean_linker_0, # of connection points: 2
#     Edge 29, Type (0, 1), BuildingBlock: UVAHIK_clean_linker_0, # of connection points: 2
#     Edge 30, Type (0, 1), BuildingBlock: UVAHIK_clean_linker_0, # of connection points: 2
#     Edge 31, Type (0, 1), BuildingBlock: UVAHIK_clean_linker_0, # of connection points: 2
#     Edge 32, Type (0, 1), BuildingBlock: UVAHIK_clean_linker_0, # of connection points: 2
#     Edge 33, Type (0, 1), BuildingBlock: UVAHIK_clean_linker_0, # of connection points: 2
#     Edge 34, Type (0, 1), BuildingBlock: UVAHIK_clean_linker_0, # of connection points: 2
#     Edge 35, Type (0, 1), BuildingBlock: UVAHIK_clean_linker_0, # of connection points: 2
# Relax obj value: 0.057
# Max RMSD: 0.072
# Mean RMSD: 0.069
data_MOF--net-cml--node1-IZENUY_clean_sbu_0--node2-MIDCAF_clean_linker_0--edge1-UVAHIK_clean_linker_0
_symmetry_space_group_name_H-M    P1
_symmetry_Int_Tables_number       1
_symmetry_cell_setting            triclinic
loop_
_symmetry_equiv_pos_as_xyz
'x, y, z'
_cell_length_a     53.375647
_cell_length_b     61.990852
_cell_length_c     57.70193
_cell_angle_alpha  89.99525
_cell_angle_beta   89.998874
_cell_angle_gamma 90.056498
loop_
_atom_site_label
_atom_site_type_symbol
_atom_site_fract_x
_atom_site_fract_y
_atom_site_fract_z
_atom_type_partial_charge
C0 C 0.30874 0.39785 0.08855 0.0
C1 C 0.30368 0.37778 0.09887 0.0
C2 C 0.28776 0.36324 0.08734 0.0
C3 C 0.27747 0.36851 0.06578 0.0
H4 H 0.23517 0.34384 0.01248 0.0
H5 H 0.209 0.31829 0.99157 0.0
H6 H 0.19921 0.36469 0.93643 0.0
H7 H 0.22591 0.39009 0.95701 0.0
H8 H 0.2604 0.43136 0.95573 0.0
H9 H 0.2778 0.46235 0.93529 0.0
H10 H 0.32418 0.47696 0.99463 0.0
H11 H 0.30649 0.44644 0.01526 0.0
H12 H 0.3032 0.4186 0.05949 0.0
H13 H 0.32119 0.40931 0.09681 0.0
H14 H 0.2833 0.34774 0.09497 0.0
H15 H 0.26551 0.35682 0.05728 0.0
N16 N 0.25761 0.37989 0.02058 0.0
N17 N 0.25701 0.40284 0.98826 0.0
N18 N 0.28078 0.412 0.02093 0.0
C19 C 0.24932 0.3844 0.99883 0.0
C20 C 0.27274 0.41674 0.99919 0.0
C21 C 0.27328 0.39367 0.03179 0.0
C22 C 0.23273 0.36906 0.98645 0.0
C23 C 0.22742 0.34866 0.99593 0.0
C24 C 0.21229 0.33401 0.98397 0.0
C25 C 0.202 0.33942 0.96231 0.0
C26 C 0.20715 0.35987 0.95291 0.0
C27 C 0.22236 0.3745 0.96481 0.0
C28 C 0.2821 0.43629 0.98715 0.0
C29 C 0.27416 0.44128 0.96452 0.0
C30 C 0.28421 0.45899 0.95273 0.0
C31 C 0.30242 0.47211 0.96329 0.0
C32 C 0.30992 0.4674 0.98609 0.0
C33 C 0.29986 0.44975 0.99788 0.0
C34 C 0.28298 0.38842 0.05522 0.0
C35 C 0.29853 0.4031 0.06701 0.0
C36 C 0.69369 0.59767 0.58619 0.0
C37 C 0.69462 0.61857 0.59553 0.0
C38 C 0.70886 0.63442 0.58407 0.0
C39 C 0.72101 0.62963 0.56316 0.0
H40 H 0.78292 0.64597 0.51601 0.0
H41 H 0.81025 0.67105 0.49546 0.0
H42 H 0.78669 0.64346 0.43015 0.0
H43 H 0.76044 0.61789 0.45069 0.0
H44 H 0.7426 0.56818 0.45309 0.0
H45 H 0.72587 0.53717 0.4322 0.0
H46 H 0.68127 0.52014 0.49197 0.0
H47 H 0.6983 0.55068 0.51302 0.0
H48 H 0.70409 0.57669 0.55854 0.0
H49 H 0.68339 0.58495 0.59487 0.0
H50 H 0.70989 0.6507 0.5908 0.0
H51 H 0.73118 0.64236 0.55438 0.0
N52 N 0.74505 0.61836 0.51917 0.0
N53 N 0.74593 0.59592 0.48638 0.0
N54 N 0.72252 0.58586 0.51888 0.0
C55 C 0.75333 0.61427 0.49729 0.0
C56 C 0.73061 0.58158 0.49708 0.0
C57 C 0.72959 0.60415 0.53008 0.0
C58 C 0.7696 0.62987 0.48501 0.0
C59 C 0.78364 0.64528 0.49727 0.0
C60 C 0.7992 0.65974 0.48544 0.0
C61 C 0.8008 0.6593 0.46108 0.0
C62 C 0.78646 0.64401 0.4489 0.0
C63 C 0.77123 0.62939 0.46071 0.0
C64 C 0.72172 0.56205 0.48474 0.0
C65 C 0.7294 0.55772 0.46187 0.0
C66 C 0.71973 0.54 0.44983 0.0
C67 C 0.70221 0.5262 0.46039 0.0
C68 C 0.69502 0.53024 0.48341 0.0
C69 C 0.70468 0.54791 0.49545 0.0
C70 C 0.7191 0.60892 0.55333 0.0
C71 C 0.70571 0.59291 0.56536 0.0
C72 C 0.69381 0.39988 0.08839 0.0
C73 C 0.7004 0.38075 0.09995 0.0
C74 C 0.71815 0.36699 0.08969 0.0
C75 C 0.72879 0.37214 0.0682 0.0
H76 H 0.77874 0.35067 0.01818 0.0
H77 H 0.8052 0.32488 0.99795 0.0
H78 H 0.79684 0.36142 0.93465 0.0
H79 H 0.77094 0.38754 0.95495 0.0
H80 H 0.7412 0.43118 0.95521 0.0
H81 H 0.72303 0.46168 0.93451 0.0
H82 H 0.68371 0.48082 0.99661 0.0
H83 H 0.7021 0.4507 0.01743 0.0
H84 H 0.69852 0.41979 0.05859 0.0
H85 H 0.67987 0.41067 0.09555 0.0
H86 H 0.72383 0.35223 0.09825 0.0
H87 H 0.74223 0.36108 0.06068 0.0
N88 N 0.74776 0.38244 0.02222 0.0
N89 N 0.74818 0.40493 0.98949 0.0
N90 N 0.72439 0.4144 0.02201 0.0
C91 C 0.75602 0.3867 0.00039 0.0
C92 C 0.73244 0.41893 0.00024 0.0
C93 C 0.73193 0.39624 0.03316 0.0
C94 C 0.77263 0.37122 0.98823 0.0
C95 C 0.78257 0.35327 -4e-05 0.0
C96 C 0.79765 0.33838 0.98832 0.0
C97 C 0.80308 0.34101 0.96464 0.0
C98 C 0.79332 0.35904 0.95296 0.0
C99 C 0.77833 0.37398 0.96461 0.0
C100 C 0.72298 0.43832 0.98798 0.0
C101 C 0.72889 0.442 0.96455 0.0
C102 C 0.71839 0.45944 0.95263 0.0
C103 C 0.70184 0.47362 0.96388 0.0
C104 C 0.69661 0.47035 0.98748 0.0
C105 C 0.70703 0.45293 0.99938 0.0
C106 C 0.72187 0.39115 0.05651 0.0
C107 C 0.70442 0.40503 0.06702 0.0
C108 C 0.30808 0.59943 0.58985 0.0
C109 C 0.3015 0.61866 0.60122 0.0
C110 C 0.28401 0.63248 0.59066 0.0
C111 C 0.27362 0.62729 0.56909 0.0
H112 H 0.22213 0.64731 0.51932 0.0
H113 H 0.19489 0.67253 0.49913 0.0
H114 H 0.20627 0.63744 0.43528 0.0
H115 H 0.2329 0.61186 0.45555 0.0
H116 H 0.26225 0.56789 0.45621 0.0
H117 H 0.28075 0.53747 0.43563 0.0
H118 H 0.32076 0.51916 0.49764 0.0
H119 H 0.30203 0.54919 0.51835 0.0
H120 H 0.3036 0.5794 0.56011 0.0
H121 H 0.32181 0.58858 0.59725 0.0
H122 H 0.27837 0.64732 0.59907 0.0
H123 H 0.26039 0.6384 0.56134 0.0
N124 N 0.25473 0.61663 0.52316 0.0
N125 N 0.25496 0.59421 0.49037 0.0
N126 N 0.27874 0.58502 0.52299 0.0
C127 C 0.24669 0.6123 0.50127 0.0
C128 C 0.27093 0.58043 0.50115 0.0
C129 C 0.27078 0.60303 0.53414 0.0
C130 C 0.22976 0.62751 0.4891 0.0
C131 C 0.2188 0.64491 0.50099 0.0
C132 C 0.20327 0.65948 0.48937 0.0
C133 C 0.19842 0.65708 0.46555 0.0
C134 C 0.20929 0.63962 0.4537 0.0
C135 C 0.22469 0.62498 0.46533 0.0
C136 C 0.28075 0.56115 0.48893 0.0
C137 C 0.2748 0.55728 0.46555 0.0
C138 C 0.28549 0.53989 0.45369 0.0
C139 C 0.3023 0.52595 0.46497 0.0
C140 C 0.30765 0.52944 0.48851 0.0
C141 C 0.29703 0.54681 0.50034 0.0
C142 C 0.28055 0.60818 0.55758 0.0
C143 C 0.29772 0.59424 0.56838 0.0
C144 C 0.80881 0.89909 0.08844 0.0
C145 C 0.80385 0.87909 0.09893 0.0
C146 C 0.78778 0.8645 0.08765 0.0
C147 C 0.77732 0.86963 0.06611 0.0
H148 H 0.71904 0.85391 0.01773 0.0
H149 H 0.69142 0.82898 0.99741 0.0
H150 H 0.71537 0.85578 0.93184 0.0
H151 H 0.74201 0.88125 0.95218 0.0
H152 H 0.75939 0.93204 0.95605 0.0
H153 H 0.77712 0.9622 0.93459 0.0
H154 H 0.82969 0.97361 0.99022 0.0
H155 H 0.81157 0.9439 0.01198 0.0
H156 H 0.80313 0.91963 0.05922 0.0
H157 H 0.82135 0.9106 0.09653 0.0
H158 H 0.78339 0.84904 0.09542 0.0
H159 H 0.76532 0.85788 0.05775 0.0
N160 N 0.75723 0.88073 0.02084 0.0
N161 N 0.75812 0.90264 0.9877 0.0
N162 N 0.78173 0.91215 0.02032 0.0
C163 C 0.74953 0.8848 0.99881 0.0
C164 C 0.77415 0.91645 0.99835 0.0
C165 C 0.77336 0.89437 0.03173 0.0
C166 C 0.73268 0.8696 0.9866 0.0
C167 C 0.71834 0.85449 0.99898 0.0
C168 C 0.70261 0.8401 0.98728 0.0
C169 C 0.70114 0.84028 0.96292 0.0
C170 C 0.7156 0.85539 0.9506 0.0
C171 C 0.73103 0.86996 0.96229 0.0
C172 C 0.7841 0.93544 0.98574 0.0
C173 C 0.77463 0.94104 0.9638 0.0
C174 C 0.78488 0.95829 0.95141 0.0
C175 C 0.8049 0.97029 0.96062 0.0
C176 C 0.81405 0.96493 0.98273 0.0
C177 C 0.80373 0.94776 0.99517 0.0
C178 C 0.78285 0.88943 0.05532 0.0
C179 C 0.79847 0.9042 0.06691 0.0
C180 C 0.19402 0.10251 0.58875 0.0
C181 C 0.19911 0.12266 0.59886 0.0
C182 C 0.21489 0.13715 0.5871 0.0
C183 C 0.22501 0.13174 0.56551 0.0
H184 H 0.26655 0.1562 0.51157 0.0
H185 H 0.29249 0.18165 0.49029 0.0
H186 H 0.3026 0.13465 0.4358 0.0
H187 H 0.2761 0.10934 0.45675 0.0
H188 H 0.2419 0.06783 0.45615 0.0
H189 H 0.22439 0.03671 0.43602 0.0
H190 H 0.17749 0.02306 0.49528 0.0
H191 H 0.19531 0.0537 0.5156 0.0
H192 H 0.19938 0.08156 0.55982 0.0
H193 H 0.18167 0.09108 0.5972 0.0
H194 H 0.21936 0.15272 0.59456 0.0
H195 H 0.23687 0.1434 0.55682 0.0
N196 N 0.24456 0.12007 0.52028 0.0
N197 N 0.24499 0.09687 0.48817 0.0
N198 N 0.22147 0.08792 0.52106 0.0
C199 C 0.25271 0.1154 0.49852 0.0
C200 C 0.22937 0.08303 0.49931 0.0
C201 C 0.22901 0.10635 0.53171 0.0
C202 C 0.26917 0.13069 0.4859 0.0
C203 C 0.27432 0.15123 0.49509 0.0
C204 C 0.28932 0.16582 0.48291 0.0
C205 C 0.29964 0.1602 0.46132 0.0
C206 C 0.29464 0.13962 0.45221 0.0
C207 C 0.27954 0.12505 0.46433 0.0
C208 C 0.21995 0.06339 0.48749 0.0
C209 C 0.228 0.05809 0.46498 0.0
C210 C 0.21789 0.0403 0.45337 0.0
C211 C 0.1995 0.02742 0.464 0.0
C212 C 0.19189 0.03244 0.48669 0.0
C213 C 0.20202 0.05015 0.49831 0.0
C214 C 0.21948 0.11174 0.55516 0.0
C215 C 0.20406 0.09712 0.56718 0.0
C216 C 0.19529 0.89999 0.09005 0.0
C217 C 0.20186 0.88073 0.10137 0.0
C218 C 0.21916 0.86683 0.09068 0.0
C219 C 0.22939 0.87198 0.06902 0.0
H220 H 0.28025 0.85169 0.01883 0.0
H221 H 0.30737 0.8265 0.99844 0.0
H222 H 0.29621 0.86208 0.93488 0.0
H223 H 0.2697 0.88761 0.95532 0.0
H224 H 0.2405 0.93158 0.9562 0.0
H225 H 0.22194 0.962 0.93569 0.0
H226 H 0.18161 0.97995 0.99764 0.0
H227 H 0.20041 0.94991 0.0183 0.0
H228 H 0.19961 0.92 0.06027 0.0
H229 H 0.18169 0.91091 0.09755 0.0
H230 H 0.22479 0.85197 0.09904 0.0
H231 H 0.24248 0.86082 0.06117 0.0
N232 N 0.24801 0.88262 0.02298 0.0
N233 N 0.24759 0.90505 0.99019 0.0
N234 N 0.22405 0.91427 0.02294 0.0
C235 C 0.25591 0.88694 0.00104 0.0
C236 C 0.23172 0.91885 0.00107 0.0
C237 C 0.23206 0.89624 0.03405 0.0
C238 C 0.27274 0.87173 0.98876 0.0
C239 C 0.2836 0.8542 0.00052 0.0
C240 C 0.29906 0.83965 0.98878 0.0
C241 C 0.30394 0.84221 0.96499 0.0
C242 C 0.29316 0.85978 0.95327 0.0
C243 C 0.27782 0.87439 0.96501 0.0
C244 C 0.22184 0.93814 0.98889 0.0
C245 C 0.22786 0.94211 0.96554 0.0
C246 C 0.21714 0.9595 0.95373 0.0
C247 C 0.20022 0.97335 0.965 0.0
C248 C 0.1948 0.96975 0.98851 0.0
C249 C 0.20546 0.95238 0.00031 0.0
C250 C 0.22247 0.89112 0.05757 0.0
C251 C 0.20547 0.90514 0.0685 0.0
C252 C 0.8091 0.09934 0.58817 0.0
C253 C 0.80239 0.11841 0.59979 0.0
C254 C 0.78448 0.13207 0.58962 0.0
C255 C 0.7738 0.12689 0.56816 0.0
H256 H 0.72366 0.14827 0.51822 0.0
H257 H 0.697 0.17396 0.49804 0.0
H258 H 0.7053 0.13738 0.43476 0.0
H259 H 0.73138 0.11137 0.45501 0.0
H260 H 0.76129 0.06791 0.45516 0.0
H261 H 0.77947 0.03748 0.43436 0.0
H262 H 0.81919 0.01841 0.49627 0.0
H263 H 0.8008 0.04847 0.5172 0.0
H264 H 0.80443 0.07945 0.55835 0.0
H265 H 0.82316 0.08862 0.59526 0.0
H266 H 0.77872 0.14678 0.59822 0.0
H267 H 0.76024 0.13787 0.56071 0.0
N268 N 0.75478 0.11657 0.5222 0.0
N269 N 0.75435 0.09409 0.48947 0.0
N270 N 0.77831 0.0847 0.52191 0.0
C271 C 0.74646 0.1123 0.50039 0.0
C272 C 0.77021 0.08016 0.50015 0.0
C273 C 0.77072 0.10282 0.53309 0.0
C274 C 0.72974 0.12772 0.48828 0.0
C275 C 0.71977 0.14564 0.50002 0.0
C276 C 0.70458 0.16046 0.4884 0.0
C277 C 0.69908 0.1578 0.46474 0.0
C278 C 0.70888 0.13979 0.45305 0.0
C279 C 0.72397 0.12491 0.46468 0.0
C280 C 0.7797 0.0608 0.48785 0.0
C281 C 0.7737 0.05712 0.46444 0.0
C282 C 0.7842 0.03973 0.45246 0.0
C283 C 0.80086 0.02559 0.46363 0.0
C284 C 0.80621 0.02886 0.48721 0.0
C285 C 0.79578 0.04624 0.49917 0.0
C286 C 0.78084 0.10794 0.55641 0.0
C287 C 0.79844 0.09415 0.56683 0.0
Fe288 Fe 0.00197 0.81908 0.31604 0.0
Fe289 Fe 0.00174 0.84164 0.36352 0.0
O290 O 0.0018 0.84309 0.33287 0.0
Fe291 Fe 0.0017 0.8686 0.31904 0.0
O292 O 0.97241 0.86263 0.3046 0.0
O293 O 0.98327 0.83045 0.29218 0.0
O294 O 0.97273 0.80994 0.32874 0.0
C295 C 0.96883 0.80802 0.35021 0.0
C296 C 0.03502 0.84405 0.29163 0.0
O297 O 0.98318 0.81682 0.36488 0.0
C298 C 0.03489 0.87621 0.35414 0.0
O299 O 0.02057 0.80341 0.33692 0.0
O300 O 0.03101 0.82692 0.36375 0.0
O301 O 0.02019 0.85979 0.29407 0.0
O302 O 0.03129 0.82649 0.30214 0.0
C303 C 0.96861 0.87463 0.3568 0.0
O304 O 0.02032 0.86622 0.36773 0.0
O305 O 0.03102 0.87627 0.33259 0.0
C306 C 0.0347 0.8093 0.35341 0.0
O307 O 0.97239 0.85624 0.36543 0.0
O308 O 0.98319 0.88215 0.34151 0.0
C309 C 0.96871 0.84659 0.2916 0.0
Fe310 Fe -0.0004 0.15701 0.86289 0.0
Fe311 Fe 0.00231 0.13113 0.81779 0.0
O312 O 0.00104 0.15627 0.83226 0.0
Fe313 Fe 0.00123 0.18064 0.81612 0.0
O314 O 0.02981 0.18965 0.83021 0.0
O315 O 0.01735 0.1822 0.86562 0.0
O316 O 0.0292 0.14288 0.86562 0.0
C317 C 0.03376 0.12475 0.85669 0.0
C318 C 0.96652 0.18904 0.85232 0.0
O319 O 0.02006 0.11736 0.84063 0.0
C320 C 0.96968 0.15587 0.78989 0.0
O321 O 0.9815 0.13198 0.86574 0.0
O322 O 0.97255 0.12278 0.82995 0.0
O323 O 0.98145 0.19559 0.83674 0.0
O324 O 0.96998 0.17116 0.86222 0.0
C325 C 0.03599 0.15419 0.79217 0.0
O326 O 0.98477 0.1403 0.79238 0.0
O327 O 0.97265 0.17324 0.80095 0.0
C328 C 0.96773 0.12217 0.85131 0.0
O329 O 0.03211 0.13783 0.80466 0.0
O330 O 0.02109 0.1701 0.79266 0.0
C331 C 0.03243 0.19142 0.85186 0.0
Fe332 Fe 0.50143 0.31882 0.31603 0.0
Fe333 Fe 0.50259 0.34189 0.36312 0.0
O334 O 0.50162 0.34302 0.33249 0.0
Fe335 Fe 0.50082 0.36836 0.31837 0.0
O336 O 0.47116 0.36203 0.30476 0.0
O337 O 0.48194 0.32977 0.29252 0.0
O338 O 0.4726 0.3098 0.32969 0.0
C339 C 0.46968 0.30781 0.35128 0.0
C340 C 0.53352 0.34369 0.29043 0.0
O341 O 0.48465 0.31678 0.36531 0.0
C342 C 0.53501 0.37654 0.35246 0.0
O343 O 0.52087 0.30353 0.33666 0.0
O344 O 0.53211 0.3276 0.36261 0.0
O345 O 0.51863 0.35938 0.29305 0.0
O346 O 0.53024 0.32622 0.30124 0.0
C347 C 0.4688 0.37445 0.35692 0.0
O348 O 0.52082 0.36674 0.36654 0.0
O349 O 0.53049 0.37638 0.33103 0.0
C350 C 0.53563 0.30985 0.35249 0.0
O351 O 0.47305 0.35616 0.36565 0.0
O352 O 0.48285 0.38195 0.34118 0.0
C353 C 0.46725 0.34582 0.29206 0.0
Fe354 Fe 0.50049 0.65762 0.86377 0.0
Fe355 Fe 0.50121 0.63074 0.81929 0.0
O356 O 0.50101 0.65623 0.83314 0.0
Fe357 Fe 0.50135 0.68027 0.81634 0.0
O358 O 0.53042 0.68927 0.82956 0.0
O359 O 0.51909 0.68235 0.86547 0.0
O360 O 0.52974 0.64292 0.86613 0.0
C361 C 0.5336 0.62454 0.85751 0.0
C362 C 0.46792 0.6901 0.85317 0.0
O363 O 0.5192 0.61708 0.84203 0.0
C364 C 0.46857 0.65549 0.7914 0.0
O365 O 0.48174 0.6331 0.86765 0.0
O366 O 0.47157 0.62317 0.83234 0.0
O367 O 0.48243 0.69599 0.83697 0.0
O368 O 0.47129 0.67243 0.86352 0.0
C369 C 0.53481 0.65258 0.79235 0.0
O370 O 0.48326 0.63968 0.79405 0.0
O371 O 0.47224 0.67303 0.80196 0.0
C372 C 0.46733 0.62321 0.85383 0.0
O373 O 0.5308 0.63661 0.80537 0.0
O374 O 0.52041 0.66884 0.79274 0.0
C375 C 0.53387 0.69107 0.85111 0.0
C376 C 0.16859 0.31091 0.96159 0.0
C377 C 0.18598 0.32378 0.94959 0.0
C378 C 0.15371 0.29604 0.94973 0.0
C379 C 0.12778 0.28353 0.89235 0.0
H380 H 0.11743 0.22682 0.91906 0.0
C381 C 0.06843 0.2173 0.84706 0.0
C382 C 0.05191 0.20586 0.86155 0.0
C383 C 0.08651 0.23109 0.85656 0.0
C384 C 0.11998 0.24264 0.91145 0.0
H385 H 0.20145 0.33096 0.91566 0.0
H386 H 0.17517 0.30511 0.89492 0.0
H387 H 0.14552 0.25224 0.9381 0.0
H388 H 0.04159 0.19987 0.8974 0.0
H389 H 0.07268 0.22397 0.91378 0.0
H390 H 0.10182 0.27405 0.86592 0.0
C391 C 0.173 0.30669 0.91351 0.0
C392 C 0.13607 0.25719 0.92236 0.0
C393 C 0.18799 0.32152 0.9254 0.0
C394 C 0.054 0.20839 0.88568 0.0
C395 C 0.07199 0.22211 0.89513 0.0
C396 C 0.11157 0.26898 0.88145 0.0
C397 C 0.15578 0.29373 0.92558 0.0
C398 C 0.13986 0.2779 0.91313 0.0
C399 C 0.08846 0.23363 0.88072 0.0
C400 C 0.1072 0.24849 0.8911 0.0
H401 H 0.16621 0.31252 0.98015 0.0
H402 H 0.14028 0.28655 0.95945 0.0
H403 H 0.1302 0.29945 0.88492 0.0
H404 H 0.06738 0.21566 0.8284 0.0
H405 H 0.09908 0.23962 0.84502 0.0
C406 C 0.82983 0.66827 0.42808 0.0
C407 C 0.81721 0.67472 0.44834 0.0
C408 C 0.84471 0.68283 0.41576 0.0
C409 C 0.8574 0.74164 0.40926 0.0
H410 H 0.91864 0.72155 0.38024 0.0
C411 C 0.93852 0.79714 0.38086 0.0
C412 C 0.94871 0.79373 0.35871 0.0
C413 C 0.92059 0.78303 0.3898 0.0
C414 C 0.90142 0.7273 0.38802 0.0
H415 H 0.81056 0.70173 0.47146 0.0
H416 H 0.83754 0.72672 0.45076 0.0
H417 H 0.89178 0.69596 0.40055 0.0
H418 H 0.9479 0.77312 0.32837 0.0
H419 H 0.91683 0.74799 0.34438 0.0
H420 H 0.86787 0.77321 0.39753 0.0
C421 C 0.83536 0.71055 0.44397 0.0
C422 C 0.88596 0.71266 0.39963 0.0
C423 C 0.82019 0.69606 0.45612 0.0
C424 C 0.9403 0.77613 0.34547 0.0
C425 C 0.92267 0.76174 0.35464 0.0
C426 C 0.87308 0.75632 0.39796 0.0
C427 C 0.84771 0.70417 0.42354 0.0
C428 C 0.86381 0.71965 0.41055 0.0
C429 C 0.9128 0.76503 0.37694 0.0
C430 C 0.89528 0.74929 0.38737 0.0
H431 H 0.82837 0.65188 0.42173 0.0
H432 H 0.85365 0.67735 0.39999 0.0
H433 H 0.84025 0.74758 0.41697 0.0
H434 H 0.94456 0.81066 0.39138 0.0
H435 H 0.91339 0.78583 0.4071 0.0
C436 C 0.8363 0.33155 0.93545 0.0
C437 C 0.81867 0.32491 0.95212 0.0
C438 C 0.85086 0.31639 0.92364 0.0
C439 C 0.87519 0.26118 0.92848 0.0
H440 H 0.88646 0.26652 0.86233 0.0
C441 C 0.92942 0.19637 0.87774 0.0
C442 C 0.94693 0.20372 0.86134 0.0
C443 C 0.91219 0.2106 0.88763 0.0
C444 C 0.88369 0.26491 0.88084 0.0
H445 H 0.80225 0.29702 0.96907 0.0
H446 H 0.82792 0.27063 0.94869 0.0
H447 H 0.85981 0.29264 0.88216 0.0
H448 H 0.95957 0.2317 0.84198 0.0
H449 H 0.92985 0.25658 0.85952 0.0
H450 H 0.89939 0.23375 0.92736 0.0
C451 C 0.83061 0.2876 0.94494 0.0
C452 C 0.86841 0.27986 0.89218 0.0
C453 C 0.81596 0.30274 0.95666 0.0
C454 C 0.94632 0.22549 0.85454 0.0
C455 C 0.92918 0.23975 0.86453 0.0
C456 C 0.89056 0.2463 0.91718 0.0
C457 C 0.84823 0.29425 0.92832 0.0
C458 C 0.86406 0.27818 0.91614 0.0
C459 C 0.91214 0.23255 0.88145 0.0
C460 C 0.89506 0.24801 0.89323 0.0
H461 H 0.83915 0.3485 0.93177 0.0
H462 H 0.86454 0.32203 0.91116 0.0
H463 H 0.87248 0.25964 0.94701 0.0
H464 H 0.9292 0.17965 0.8832 0.0
H465 H 0.899 0.20442 0.90026 0.0
C466 C 0.18363 0.69496 0.45812 0.0
C467 C 0.18225 0.67279 0.45306 0.0
C468 C 0.1685 0.70972 0.44635 0.0
C469 C 0.11046 0.71318 0.41139 0.0
H470 H 0.13688 0.76928 0.39431 0.0
C471 C 0.05469 0.77273 0.35464 0.0
C472 C 0.0537 0.79415 0.36262 0.0
C473 C 0.07137 0.758 0.36452 0.0
C474 C 0.12922 0.75372 0.3991 0.0
H475 H 0.16366 0.64882 0.43171 0.0
H476 H 0.13786 0.67461 0.41072 0.0
H477 H 0.16393 0.74329 0.41385 0.0
H478 H 0.07014 0.81706 0.38668 0.0
H479 H 0.09927 0.79133 0.40384 0.0
H480 H 0.0758 0.72361 0.39652 0.0
C481 C 0.15038 0.68056 0.42404 0.0
C482 C 0.14467 0.73885 0.41035 0.0
C483 C 0.16542 0.66579 0.43589 0.0
C484 C 0.07034 0.80067 0.38019 0.0
C485 C 0.08713 0.78596 0.38995 0.0
C486 C 0.09508 0.728 0.40001 0.0
C487 C 0.1517 0.70272 0.42915 0.0
C488 C 0.13544 0.71842 0.41675 0.0
C489 C 0.08757 0.7644 0.38245 0.0
C490 C 0.10425 0.74847 0.39384 0.0
H491 H 0.1966 0.70097 0.47103 0.0
H492 H 0.1698 0.72662 0.45094 0.0
H493 H 0.10259 0.69777 0.4164 0.0
H494 H 0.04222 0.76717 0.34109 0.0
H495 H 0.07152 0.74156 0.35818 0.0
C496 C 0.68177 0.80348 0.95858 0.0
C497 C 0.68476 0.82471 0.95038 0.0
C498 C 0.66631 0.78891 0.94689 0.0
C499 C 0.639 0.77644 0.89051 0.0
H500 H 0.589 0.74548 0.92614 0.0
C501 C 0.56205 0.72336 0.84782 0.0
C502 C 0.55386 0.70517 0.86017 0.0
C503 C 0.57911 0.73776 0.85788 0.0
C504 C 0.60313 0.75365 0.91593 0.0
H505 H 0.67355 0.84716 0.92339 0.0
H506 H 0.64718 0.82142 0.90267 0.0
H507 H 0.61679 0.77076 0.94558 0.0
H508 H 0.55821 0.68692 0.89195 0.0
H509 H 0.58864 0.71133 0.90903 0.0
H510 H 0.62578 0.75898 0.86092 0.0
C511 C 0.65691 0.81618 0.91816 0.0
C512 C 0.61895 0.76824 0.9271 0.0
C513 C 0.67209 0.83087 0.93002 0.0
C514 C 0.5639 0.70104 0.8822 0.0
C515 C 0.58121 0.71515 0.89206 0.0
C516 C 0.62338 0.76158 0.87934 0.0
C517 C 0.65377 0.79512 0.92658 0.0
C518 C 0.63704 0.77974 0.91453 0.0
C519 C 0.58856 0.73401 0.88033 0.0
C520 C 0.60528 0.74993 0.89194 0.0
H521 H 0.6916 0.79798 0.97388 0.0
H522 H 0.66438 0.77267 0.9536 0.0
H523 H 0.65294 0.78505 0.88047 0.0
H524 H 0.55451 0.72694 0.83082 0.0
H525 H 0.58419 0.75218 0.84838 0.0
C526 C 0.31361 0.17774 0.42417 0.0
C527 C 0.31557 0.17578 0.4484 0.0
C528 C 0.32849 0.19254 0.41211 0.0
C529 C 0.36472 0.24247 0.42044 0.0
H530 H 0.3999 0.22524 0.36463 0.0
C531 C 0.44735 0.29099 0.38474 0.0
C532 C 0.44995 0.29343 0.36063 0.0
C533 C 0.42914 0.27734 0.39392 0.0
C534 C 0.38988 0.23041 0.37997 0.0
H535 H 0.33516 0.18754 0.47884 0.0
H536 H 0.36086 0.21347 0.45785 0.0
H537 H 0.37148 0.19985 0.38361 0.0
H538 H 0.43516 0.28353 0.32725 0.0
H539 H 0.40306 0.25966 0.34343 0.0
H540 H 0.38316 0.27292 0.417 0.0
C541 C 0.34756 0.20376 0.44823 0.0
C542 C 0.37365 0.21587 0.39086 0.0
C543 C 0.33281 0.18891 0.46025 0.0
C544 C 0.43371 0.28196 0.3459 0.0
C545 C 0.4154 0.26823 0.35515 0.0
C546 C 0.38082 0.25701 0.40954 0.0
C547 C 0.34552 0.20578 0.42405 0.0
C548 C 0.36128 0.22163 0.41145 0.0
C549 C 0.41293 0.2658 0.37928 0.0
C550 C 0.39398 0.25101 0.38944 0.0
H551 H 0.30028 0.16809 0.41454 0.0
H552 H 0.32636 0.19389 0.3935 0.0
H553 H 0.35503 0.24752 0.43602 0.0
H554 H 0.45952 0.29952 0.39664 0.0
H555 H 0.42806 0.27556 0.41257 0.0
C556 C 0.31857 0.80434 0.95723 0.0
C557 C 0.32006 0.82654 0.95239 0.0
C558 C 0.33366 0.78962 0.94536 0.0
C559 C 0.39187 0.78626 0.91067 0.0
H560 H 0.36531 0.73038 0.89294 0.0
C561 C 0.44809 0.72675 0.85424 0.0
C562 C 0.44882 0.70529 0.86212 0.0
C563 C 0.43134 0.74151 0.86395 0.0
C564 C 0.37302 0.74588 0.89791 0.0
H565 H 0.33884 0.85063 0.93133 0.0
H566 H 0.36461 0.82493 0.91018 0.0
H567 H 0.33823 0.75634 0.9125 0.0
H568 H 0.43182 0.68235 0.88582 0.0
H569 H 0.40258 0.70813 0.9027 0.0
H570 H 0.42663 0.77579 0.89601 0.0
C571 C 0.35201 0.81891 0.92339 0.0
C572 C 0.35754 0.76074 0.90917 0.0
C573 C 0.33699 0.83364 0.93533 0.0
C574 C 0.43184 0.69877 0.87941 0.0
C575 C 0.41497 0.71351 0.889 0.0
C576 C 0.40728 0.77145 0.8993 0.0
C577 C 0.35057 0.79672 0.92829 0.0
C578 C 0.36683 0.78107 0.91582 0.0
C579 C 0.4148 0.73511 0.88162 0.0
C580 C 0.39807 0.75107 0.8929 0.0
H581 H 0.30553 0.79827 0.97005 0.0
H582 H 0.33228 0.77269 0.94979 0.0
H583 H 0.39978 0.8016 0.91588 0.0
H584 H 0.46084 0.73231 0.84091 0.0
H585 H 0.4314 0.75799 0.8577 0.0
C586 C 0.68604 0.19602 0.45674 0.0
C587 C 0.68338 0.17384 0.45224 0.0
C588 C 0.6713 0.21111 0.44502 0.0
C589 C 0.63336 0.21869 0.39233 0.0
H590 H 0.60242 0.26482 0.4275 0.0
C591 C 0.5556 0.2733 0.35466 0.0
C592 C 0.5551 0.29506 0.36149 0.0
C593 C 0.57267 0.25895 0.36465 0.0
C594 C 0.61123 0.25226 0.41733 0.0
H595 H 0.66293 0.15016 0.43198 0.0
H596 H 0.63739 0.17654 0.41139 0.0
H597 H 0.62934 0.23894 0.44715 0.0
H598 H 0.57296 0.31903 0.38338 0.0
H599 H 0.603 0.29414 0.40042 0.0
H600 H 0.61528 0.23202 0.36248 0.0
C601 C 0.65108 0.18223 0.42383 0.0
C602 C 0.62661 0.23739 0.42862 0.0
C603 C 0.66573 0.16713 0.43563 0.0
C604 C 0.57265 0.30232 0.37791 0.0
C605 C 0.58979 0.28801 0.38779 0.0
C606 C 0.61806 0.23364 0.38099 0.0
C607 C 0.65366 0.20438 0.42845 0.0
C608 C 0.63775 0.22039 0.41628 0.0
C609 C 0.58973 0.26607 0.38159 0.0
C610 C 0.60672 0.25056 0.39337 0.0
H611 H 0.69976 0.20179 0.4691 0.0
H612 H 0.67395 0.22809 0.44873 0.0
H613 H 0.64196 0.20592 0.38231 0.0
H614 H 0.54233 0.26716 0.34208 0.0
H615 H 0.57192 0.24214 0.35962 0.0
C616 C 0.32047 0.50949 0.96165 0.0
C617 C 0.3145 0.49006 0.95037 0.0
C618 C 0.33411 0.5255 0.95022 0.0
C619 C 0.35482 0.54495 0.8929 0.0
H620 H 0.41173 0.56693 0.92736 0.0
C621 C 0.43549 0.59352 0.85024 0.0
C622 C 0.44682 0.6099 0.86345 0.0
C623 C 0.41727 0.58013 0.86012 0.0
C624 C 0.3957 0.5613 0.91758 0.0
H625 H 0.31747 0.47256 0.91791 0.0
H626 H 0.34107 0.50066 0.89789 0.0
H627 H 0.38301 0.54185 0.94583 0.0
H628 H 0.44692 0.62586 0.8969 0.0
H629 H 0.41483 0.60297 0.91387 0.0
H630 H 0.36758 0.56445 0.8646 0.0
C631 C 0.33507 0.5035 0.91556 0.0
C632 C 0.37925 0.54687 0.92819 0.0
C633 C 0.32152 0.48742 0.92704 0.0
C634 C 0.43886 0.61315 0.88638 0.0
C635 C 0.42052 0.59995 0.89615 0.0
C636 C 0.37122 0.55956 0.88229 0.0
C637 C 0.34198 0.52249 0.92721 0.0
C638 C 0.35869 0.53849 0.91597 0.0
C639 C 0.40985 0.58299 0.88332 0.0
C640 C 0.39191 0.56786 0.89451 0.0
H641 H 0.3149 0.51223 0.97946 0.0
H642 H 0.33881 0.54015 0.9595 0.0
H643 H 0.33902 0.53883 0.88312 0.0
H644 H 0.44121 0.59064 0.8325 0.0
H645 H 0.40961 0.56712 0.84979 0.0
C646 C 0.68525 0.48849 0.45812 0.0
C647 C 0.69039 0.50829 0.44722 0.0
C648 C 0.67157 0.47255 0.44664 0.0
C649 C 0.64885 0.45415 0.38959 0.0
H650 H 0.59318 0.43156 0.42532 0.0
C651 C 0.56666 0.40631 0.34845 0.0
C652 C 0.55576 0.38977 0.36171 0.0
C653 C 0.58525 0.41954 0.35801 0.0
C654 C 0.60886 0.43735 0.41517 0.0
H655 H 0.68605 0.52648 0.41534 0.0
H656 H 0.66238 0.49848 0.39522 0.0
H657 H 0.62258 0.45625 0.44342 0.0
H658 H 0.55677 0.37329 0.39486 0.0
H659 H 0.58951 0.39585 0.41125 0.0
H660 H 0.63507 0.43517 0.36129 0.0
C661 C 0.66904 0.49532 0.41263 0.0
C662 C 0.6257 0.45156 0.42557 0.0
C663 C 0.68263 0.51134 0.42416 0.0
C664 C 0.56448 0.38617 0.38434 0.0
C665 C 0.5832 0.39917 0.39378 0.0
C666 C 0.63207 0.43974 0.37919 0.0
C667 C 0.66285 0.47599 0.42397 0.0
C668 C 0.64582 0.46016 0.4129 0.0
C669 C 0.59346 0.4163 0.38093 0.0
C670 C 0.61182 0.43122 0.39186 0.0
H671 H 0.69142 0.48545 0.4757 0.0
H672 H 0.66743 0.45763 0.45565 0.0
H673 H 0.66429 0.46047 0.37947 0.0
H674 H 0.56035 0.40945 0.33093 0.0
H675 H 0.59259 0.43268 0.34769 0.0
C676 C 0.67871 0.4867 0.92879 0.0
C677 C 0.68879 0.49094 0.95083 0.0
C678 C 0.66427 0.5022 0.91741 0.0
C679 C 0.64774 0.56014 0.91633 0.0
H680 H 0.58563 0.53909 0.88975 0.0
C681 C 0.56703 0.61655 0.88698 0.0
C682 C 0.55366 0.61061 0.86697 0.0
C683 C 0.58514 0.60274 0.89633 0.0
C684 C 0.60306 0.54524 0.89676 0.0
H685 H 0.69265 0.51519 0.97768 0.0
H686 H 0.66715 0.54221 0.9579 0.0
H687 H 0.6148 0.51375 0.90714 0.0
H688 H 0.54966 0.58594 0.84052 0.0
H689 H 0.58138 0.56216 0.85656 0.0
H690 H 0.63581 0.59171 0.90599 0.0
C691 C 0.67049 0.5269 0.94941 0.0
C692 C 0.61979 0.53068 0.90674 0.0
C693 C 0.68489 0.51135 0.96083 0.0
C694 C 0.55933 0.5909 0.85614 0.0
C695 C 0.57747 0.57719 0.8654 0.0
C696 C 0.63098 0.57474 0.90625 0.0
C697 C 0.65961 0.52232 0.92778 0.0
C698 C 0.64232 0.53794 0.91664 0.0
C699 C 0.59033 0.58278 0.88579 0.0
C700 C 0.60843 0.56744 0.89634 0.0
H701 H 0.68117 0.47109 0.92068 0.0
H702 H 0.65642 0.4983 0.90062 0.0
H703 H 0.66504 0.5662 0.92367 0.0
H704 H 0.56316 0.63165 0.89571 0.0
H705 H 0.59457 0.60747 0.91215 0.0
C706 C 0.32516 0.51266 0.4298 0.0
C707 C 0.3154 0.50859 0.452 0.0
C708 C 0.33948 0.49709 0.4184 0.0
C709 C 0.35603 0.43914 0.41769 0.0
H710 H 0.41742 0.45994 0.38953 0.0
C711 C 0.43604 0.38253 0.38703 0.0
C712 C 0.44881 0.38832 0.36664 0.0
C713 C 0.41814 0.39637 0.39667 0.0
C714 C 0.40019 0.45386 0.39699 0.0
H715 H 0.31205 0.48458 0.47916 0.0
H716 H 0.33739 0.45747 0.45936 0.0
H717 H 0.38871 0.48545 0.4073 0.0
H718 H 0.45195 0.41275 0.33983 0.0
H719 H 0.42062 0.4366 0.3564 0.0
H720 H 0.36769 0.40747 0.40742 0.0
C721 C 0.33386 0.47269 0.45075 0.0
C722 C 0.38371 0.46851 0.40719 0.0
C723 C 0.31956 0.48829 0.46218 0.0
C724 C 0.44273 0.4079 0.35573 0.0
C725 C 0.42483 0.42165 0.36529 0.0
C726 C 0.37253 0.42444 0.4074 0.0
C727 C 0.34437 0.47708 0.42892 0.0
C728 C 0.36144 0.46134 0.41765 0.0
C729 C 0.41259 0.41623 0.38606 0.0
C730 C 0.3948 0.43166 0.39691 0.0
H731 H 0.32249 0.52818 0.42153 0.0
H732 H 0.34704 0.50085 0.40145 0.0
H733 H 0.33891 0.43315 0.42546 0.0
H734 H 0.44024 0.36753 0.39584 0.0
H735 H 0.40919 0.39178 0.41277 0.0
C736 C 0.82527 0.00675 0.95779 0.0
C737 C 0.81689 0.98778 0.94691 0.0
C738 C 0.83817 0.02248 0.94522 0.0
C739 C 0.87642 0.02862 0.89246 0.0
H740 H 0.87033 0.08958 0.90647 0.0
C741 C 0.93507 0.09355 0.8452 0.0
C742 C 0.94717 0.10831 0.85994 0.0
C743 C 0.91643 0.07986 0.85382 0.0
C744 C 0.87223 0.0726 0.90241 0.0
H745 H 0.81501 0.97075 0.91409 0.0
H746 H 0.83683 0.99849 0.89204 0.0
H747 H 0.84214 0.0638 0.92501 0.0
H748 H 0.94856 0.12081 0.89507 0.0
H749 H 0.91611 0.09695 0.91 0.0
H750 H 0.90669 0.03744 0.87004 0.0
C751 C 0.83381 0.00103 0.91039 0.0
C752 C 0.85615 0.05783 0.91306 0.0
C753 C 0.82101 0.98524 0.92299 0.0
C754 C 0.93974 0.10952 0.88328 0.0
C755 C 0.92099 0.09598 0.89181 0.0
C756 C 0.89239 0.04341 0.8817 0.0
C757 C 0.84289 0.01968 0.92143 0.0
C758 C 0.85836 0.03562 0.90854 0.0
C759 C 0.90934 0.08085 0.87725 0.0
C760 C 0.89076 0.06549 0.88689 0.0
H761 H 0.8221 0.00936 0.97611 0.0
H762 H 0.84511 0.03653 0.95434 0.0
H763 H 0.87891 0.01162 0.88882 0.0
H764 H 0.94028 0.09229 0.82711 0.0
H765 H 0.9076 0.06845 0.84217 0.0
C766 C 0.18104 0.99016 0.46272 0.0
C767 C 0.18734 0.00942 0.45123 0.0
C768 C 0.16736 0.97412 0.45138 0.0
C769 C 0.14727 0.95414 0.3941 0.0
H770 H 0.08964 0.93292 0.42811 0.0
C771 C 0.06689 0.90578 0.35087 0.0
C772 C 0.05519 0.88958 0.36404 0.0
C773 C 0.08501 0.91916 0.36091 0.0
C774 C 0.10587 0.93834 0.41847 0.0
H775 H 0.18487 0.02656 0.41851 0.0
H776 H 0.16123 0.99839 0.39865 0.0
H777 H 0.11835 0.95799 0.44664 0.0
H778 H 0.05429 0.87393 0.39766 0.0
H779 H 0.08622 0.89681 0.41493 0.0
H780 H 0.13474 0.93443 0.36589 0.0
C781 C 0.167 0.99572 0.41642 0.0
C782 C 0.12231 0.95276 0.42911 0.0
C783 C 0.18058 0.01184 0.4278 0.0
C784 C 0.06264 0.88651 0.38715 0.0
C785 C 0.08089 0.8997 0.39709 0.0
C786 C 0.13088 0.93954 0.38347 0.0
C787 C 0.1598 0.97691 0.42826 0.0
C788 C 0.14312 0.96088 0.41703 0.0
C789 C 0.09198 0.91646 0.38425 0.0
C790 C 0.10993 0.93153 0.39552 0.0
H791 H 0.18639 0.98759 0.48061 0.0
H792 H 0.16242 0.95962 0.46081 0.0
H793 H 0.16327 0.96004 0.38445 0.0
H794 H 0.06157 0.90853 0.33299 0.0
H795 H 0.09298 0.93202 0.35056 0.0
C796 C 0.17749 0.98669 0.92979 0.0
C797 C 0.18709 0.9907 0.95205 0.0
C798 C 0.16316 0.00226 0.91839 0.0
C799 C 0.14632 0.06016 0.9179 0.0
H800 H 0.08528 0.03926 0.88917 0.0
C801 C 0.06623 0.11658 0.88704 0.0
C802 C 0.05372 0.11088 0.86648 0.0
C803 C 0.08411 0.10276 0.89672 0.0
C804 C 0.10242 0.04536 0.8968 0.0
H805 H 0.19015 0.01461 0.97935 0.0
H806 H 0.16479 0.04171 0.95955 0.0
H807 H 0.11398 0.01377 0.907 0.0
H808 H 0.05101 0.08662 0.83946 0.0
H809 H 0.08231 0.06279 0.85612 0.0
H810 H 0.13456 0.09183 0.90774 0.0
C811 C 0.16845 0.02654 0.95088 0.0
C812 C 0.11889 0.03073 0.90703 0.0
C813 C 0.18276 0.01094 0.96232 0.0
C814 C 0.06003 0.0914 0.85548 0.0
C815 C 0.07792 0.07767 0.86509 0.0
C816 C 0.12983 0.07484 0.90759 0.0
C817 C 0.1581 0.02221 0.92897 0.0
C818 C 0.14103 0.03793 0.91769 0.0
C819 C 0.0899 0.083 0.88601 0.0
C820 C 0.10769 0.06759 0.89689 0.0
H821 H 0.18028 0.97122 0.92146 0.0
H822 H 0.15573 0.99854 0.90138 0.0
H823 H 0.16335 0.06618 0.92582 0.0
H824 H 0.06185 0.1315 0.89592 0.0
H825 H 0.09287 0.10728 0.91294 0.0
C826 C 0.82383 0.01257 0.42843 0.0
C827 C 0.81387 0.0083 0.45051 0.0
C828 C 0.83818 0.99707 0.41695 0.0
C829 C 0.85455 0.93912 0.41564 0.0
H830 H 0.91659 0.96007 0.38884 0.0
C831 C 0.93503 0.88259 0.38612 0.0
C832 C 0.94845 0.88853 0.36614 0.0
C833 C 0.91692 0.89641 0.39544 0.0
C834 C 0.89917 0.95395 0.3959 0.0
H835 H 0.81016 0.98401 0.47735 0.0
H836 H 0.83551 0.95701 0.45739 0.0
H837 H 0.88758 0.98545 0.4064 0.0
H838 H 0.95254 0.91319 0.3397 0.0
H839 H 0.9208 0.937 0.35568 0.0
H840 H 0.86632 0.90754 0.40519 0.0
C841 C 0.83213 0.97234 0.44894 0.0
C842 C 0.88253 0.96853 0.40598 0.0
C843 C 0.81782 0.98787 0.46047 0.0
C844 C 0.94281 0.90824 0.3553 0.0
C845 C 0.92467 0.92195 0.36452 0.0
C846 C 0.8712 0.92449 0.40546 0.0
C847 C 0.84287 0.97693 0.42726 0.0
C848 C 0.86004 0.9613 0.41598 0.0
C849 C 0.91177 0.91638 0.3849 0.0
C850 C 0.89373 0.93176 0.39548 0.0
H851 H 0.82133 0.02819 0.42035 0.0
H852 H 0.84593 0.00099 0.40012 0.0
H853 H 0.83726 0.93309 0.42305 0.0
H854 H 0.93887 0.8675 0.39488 0.0
H855 H 0.90747 0.8917 0.41126 0.0
C856 C 0.31847 0.38706 0.13896 0.0
C857 C 0.31591 0.37182 0.12109 0.0
C858 C 0.33189 0.38205 0.15904 0.0
C859 C 0.38229 0.34642 0.17906 0.0
H860 H 0.36307 0.36695 0.24 0.0
C861 C 0.44274 0.32906 0.25962 0.0
C862 C 0.44691 0.3466 0.27459 0.0
C863 C 0.42453 0.33027 0.24227 0.0
C864 C 0.36875 0.36122 0.22307 0.0
H865 H 0.32487 0.33913 0.11057 0.0
H866 H 0.34795 0.33027 0.14579 0.0
H867 H 0.33484 0.37228 0.20719 0.0
H868 H 0.43459 0.37892 0.28351 0.0
H869 H 0.40312 0.38111 0.25307 0.0
H870 H 0.41639 0.33577 0.19473 0.0
C871 C 0.33981 0.34619 0.14415 0.0
C872 C 0.35258 0.36425 0.20429 0.0
C873 C 0.32635 0.35119 0.12408 0.0
C874 C 0.43194 0.36512 0.27224 0.0
C875 C 0.41375 0.36633 0.25488 0.0
C876 C 0.39846 0.3434 0.19781 0.0
C877 C 0.34308 0.36168 0.16168 0.0
C878 C 0.35929 0.3571 0.18202 0.0
C879 C 0.41005 0.34903 0.2395 0.0
C880 C 0.39202 0.35098 0.21998 0.0
H881 H 0.31039 0.40301 0.1373 0.0
H882 H 0.33422 0.39441 0.17213 0.0
H883 H 0.38823 0.34103 0.16208 0.0
H884 H 0.45377 0.31447 0.26107 0.0
H885 H 0.42187 0.31653 0.23094 0.0
C886 C 0.68989 0.6368 0.63436 0.0
C887 C 0.67988 0.62382 0.61664 0.0
C888 C 0.67598 0.641 0.65445 0.0
C889 C 0.62361 0.61879 0.68868 0.0
H890 H 0.62037 0.67575 0.71628 0.0
C891 C 0.55725 0.66702 0.75735 0.0
C892 C 0.55472 0.65106 0.77452 0.0
C893 C 0.5748 0.66466 0.73953 0.0
C894 C 0.62107 0.65976 0.70873 0.0
H895 H 0.64696 0.60599 0.60565 0.0
H896 H 0.62288 0.61322 0.64053 0.0
H897 H 0.64616 0.66987 0.68178 0.0
H898 H 0.5696 0.62062 0.78704 0.0
H899 H 0.60026 0.61665 0.75612 0.0
H900 H 0.59809 0.60873 0.71508 0.0
C901 C 0.64166 0.61974 0.63921 0.0
C902 C 0.63601 0.65636 0.68912 0.0
C903 C 0.65549 0.61559 0.61921 0.0
C904 C 0.57081 0.63311 0.77395 0.0
C905 C 0.58834 0.63078 0.75617 0.0
C906 C 0.60878 0.62216 0.70825 0.0
C907 C 0.65182 0.63228 0.65718 0.0
C908 C 0.63717 0.63587 0.67873 0.0
C909 C 0.59023 0.64631 0.7385 0.0
C910 C 0.60715 0.64272 0.71841 0.0
H911 H 0.70868 0.64329 0.63295 0.0
H912 H 0.68436 0.65063 0.66807 0.0
H913 H 0.62437 0.60275 0.68127 0.0
H914 H 0.54523 0.68108 0.7573 0.0
H915 H 0.57564 0.67684 0.72609 0.0
C916 C 0.67994 0.35375 0.12654 0.0
C917 C 0.68794 0.37501 0.12218 0.0
C918 C 0.66573 0.34897 0.14628 0.0
C919 C 0.62108 0.37496 0.18471 0.0
H920 H 0.63127 0.32635 0.22596 0.0
C921 C 0.56227 0.36634 0.26676 0.0
C922 C 0.55377 0.34573 0.27309 0.0
C923 C 0.5803 0.36884 0.24952 0.0
C924 C 0.62799 0.33984 0.21442 0.0
H925 H 0.68882 0.40755 0.13602 0.0
H926 H 0.66367 0.39926 0.17012 0.0
H927 H 0.66033 0.33244 0.19371 0.0
H928 H 0.55805 0.31146 0.26682 0.0
H929 H 0.58916 0.31583 0.23597 0.0
H930 H 0.58854 0.38217 0.20465 0.0
C931 C 0.66811 0.38638 0.15811 0.0
C932 C 0.64468 0.34335 0.19605 0.0
C933 C 0.68244 0.39113 0.13854 0.0
C934 C 0.56425 0.32756 0.26225 0.0
C935 C 0.58214 0.33008 0.24466 0.0
C936 C 0.60432 0.37134 0.20281 0.0
C937 C 0.65913 0.36538 0.1619 0.0
C938 C 0.64152 0.36112 0.18122 0.0
C939 C 0.59006 0.3508 0.23783 0.0
C940 C 0.6077 0.35392 0.21812 0.0
H941 H 0.68369 0.34099 0.11421 0.0
H942 H 0.65894 0.33266 0.14876 0.0
H943 H 0.61786 0.3885 0.17322 0.0
H944 H 0.55491 0.38065 0.27512 0.0
H945 H 0.58647 0.385 0.24525 0.0
C946 C 0.31879 0.60838 0.6401 0.0
C947 C 0.31373 0.62443 0.62353 0.0
C948 C 0.33299 0.61311 0.65974 0.0
C949 C 0.35707 0.6562 0.69734 0.0
H950 H 0.41234 0.6166 0.70666 0.0
C951 C 0.43793 0.67168 0.76317 0.0
C952 C 0.44811 0.65352 0.77427 0.0
C953 C 0.41989 0.66918 0.74572 0.0
C954 C 0.39679 0.62765 0.70463 0.0
H955 H 0.31861 0.65834 0.6153 0.0
H956 H 0.34317 0.66663 0.64996 0.0
H957 H 0.38297 0.61034 0.67526 0.0
H958 H 0.44625 0.61866 0.77693 0.0
H959 H 0.41441 0.61434 0.7473 0.0
H960 H 0.37079 0.67338 0.72701 0.0
C961 C 0.33611 0.65039 0.64759 0.0
C962 C 0.38 0.62407 0.68655 0.0
C963 C 0.32202 0.64563 0.62778 0.0
C964 C 0.43913 0.63295 0.76836 0.0
C965 C 0.42094 0.63048 0.75126 0.0
C966 C 0.37379 0.65969 0.7157 0.0
C967 C 0.3423 0.63402 0.66341 0.0
C968 C 0.35989 0.6382 0.68278 0.0
C969 C 0.41151 0.64848 0.73928 0.0
C970 C 0.39377 0.64533 0.71965 0.0
H971 H 0.31219 0.59202 0.63765 0.0
H972 H 0.33711 0.60027 0.6719 0.0
H973 H 0.34168 0.66733 0.6948 0.0
H974 H 0.44451 0.68774 0.76741 0.0
H975 H 0.41313 0.6834 0.7368 0.0
C976 C 0.81923 0.88848 0.13882 0.0
C977 C 0.81643 0.8732 0.12101 0.0
C978 C 0.833 0.88355 0.15872 0.0
C979 C 0.88385 0.84811 0.17822 0.0
H980 H 0.86508 0.86833 0.23939 0.0
C981 C 0.94472 0.83031 0.25853 0.0
C982 C 0.94872 0.84765 0.27381 0.0
C983 C 0.92661 0.83171 0.24109 0.0
C984 C 0.87066 0.8627 0.22239 0.0
H985 H 0.82538 0.84053 0.11042 0.0
H986 H 0.84911 0.83181 0.14532 0.0
H987 H 0.83655 0.87371 0.20683 0.0
H988 H 0.9363 0.87985 0.28307 0.0
H989 H 0.90505 0.88239 0.25248 0.0
H990 H 0.91814 0.8375 0.19358 0.0
C991 C 0.84086 0.8477 0.14377 0.0
C992 C 0.8543 0.86576 0.20375 0.0
C993 C 0.82703 0.85262 0.12389 0.0
C994 C 0.93377 0.8662 0.27158 0.0
C995 C 0.9157 0.8676 0.25413 0.0
C996 C 0.9002 0.84508 0.19683 0.0
C997 C 0.84433 0.86322 0.16124 0.0
C998 C 0.86083 0.8587 0.18141 0.0
C999 C 0.91208 0.85047 0.23852 0.0
C1000 C 0.89393 0.85254 0.21909 0.0
H1001 H 0.81105 0.9044 0.13723 0.0
H1002 H 0.83547 0.89593 0.17176 0.0
H1003 H 0.88963 0.84279 0.16116 0.0
H1004 H 0.95574 0.8157 0.25986 0.0
H1005 H 0.92404 0.81809 0.22958 0.0
C1006 C 0.1847 0.11362 0.63914 0.0
C1007 C 0.18706 0.12875 0.62112 0.0
C1008 C 0.17142 0.11873 0.65927 0.0
C1009 C 0.12098 0.1543 0.6793 0.0
H1010 H 0.14059 0.13407 0.74024 0.0
C1011 C 0.06045 0.17127 0.7599 0.0
C1012 C 0.05645 0.15367 0.77482 0.0
C1013 C 0.07873 0.17025 0.74258 0.0
C1014 C 0.13481 0.13973 0.72331 0.0
H1015 H 0.1779 0.16134 0.61041 0.0
H1016 H 0.15505 0.17037 0.64571 0.0
H1017 H 0.16873 0.12878 0.70736 0.0
H1018 H 0.06915 0.12146 0.78372 0.0
H1019 H 0.10071 0.11959 0.75335 0.0
H1020 H 0.08686 0.16481 0.69504 0.0
C1021 C 0.16325 0.15446 0.64414 0.0
C1022 C 0.15093 0.13671 0.70449 0.0
C1023 C 0.17657 0.14937 0.62403 0.0
C1024 C 0.07167 0.13529 0.77249 0.0
C1025 C 0.08991 0.13427 0.75517 0.0
C1026 C 0.10487 0.15729 0.69809 0.0
C1027 C 0.16017 0.13908 0.66182 0.0
C1028 C 0.14406 0.14373 0.68221 0.0
C1029 C 0.09342 0.15162 0.7398 0.0
C1030 C 0.11145 0.14981 0.72026 0.0
H1031 H 0.19283 0.09768 0.63755 0.0
H1032 H 0.16924 0.10645 0.67247 0.0
H1033 H 0.11493 0.15959 0.66231 0.0
H1034 H 0.04923 0.18576 0.76133 0.0
H1035 H 0.08123 0.18402 0.73126 0.0
C1036 C 0.1814 0.85386 0.12808 0.0
C1037 C 0.1898 0.87502 0.12378 0.0
C1038 C 0.16744 0.84916 0.148 0.0
C1039 C 0.12404 0.8757 0.18724 0.0
H1040 H 0.13304 0.8262 0.22747 0.0
C1041 C 0.06473 0.86664 0.26895 0.0
C1042 C 0.05565 0.84607 0.27469 0.0
C1043 C 0.08303 0.86916 0.25194 0.0
C1044 C 0.1301 0.83995 0.21624 0.0
H1045 H 0.19169 0.90742 0.13789 0.0
H1046 H 0.167 0.89928 0.17232 0.0
H1047 H 0.16206 0.8322 0.19519 0.0
H1048 H 0.05919 0.81187 0.26767 0.0
H1049 H 0.09073 0.81629 0.23722 0.0
H1050 H 0.09183 0.88327 0.20748 0.0
C1051 C 0.17093 0.88643 0.16014 0.0
C1052 C 0.14678 0.84341 0.19784 0.0
C1053 C 0.185 0.89108 0.14038 0.0
C1054 C 0.06585 0.82793 0.26355 0.0
C1055 C 0.08398 0.83048 0.2462 0.0
C1056 C 0.10729 0.87215 0.20537 0.0
C1057 C 0.1615 0.86556 0.16386 0.0
C1058 C 0.14402 0.86146 0.18334 0.0
C1059 C 0.09245 0.8512 0.2399 0.0
C1060 C 0.11023 0.85439 0.2203 0.0
H1061 H 0.18461 0.84114 0.11557 0.0
H1062 H 0.16029 0.83296 0.15041 0.0
H1063 H 0.12112 0.88948 0.17601 0.0
H1064 H 0.05759 0.8809 0.27756 0.0
H1065 H 0.08962 0.8853 0.2481 0.0
C1066 C 0.82064 0.10807 0.63829 0.0
C1067 C 0.8149 0.12418 0.62198 0.0
C1068 C 0.83504 0.11287 0.65779 0.0
C1069 C 0.85827 0.15591 0.69578 0.0
H1070 H 0.91495 0.11756 0.70379 0.0
C1071 C 0.93878 0.17195 0.76183 0.0
C1072 C 0.94951 0.15379 0.77248 0.0
C1073 C 0.92089 0.16941 0.74425 0.0
C1074 C 0.89902 0.12825 0.70212 0.0
H1075 H 0.81879 0.15826 0.61409 0.0
H1076 H 0.84365 0.16668 0.64854 0.0
H1077 H 0.88549 0.11115 0.67249 0.0
H1078 H 0.94882 0.11885 0.77419 0.0
H1079 H 0.91726 0.11444 0.74434 0.0
H1080 H 0.87166 0.17284 0.72573 0.0
C1081 C 0.837 0.15033 0.64605 0.0
C1082 C 0.88218 0.12459 0.68409 0.0
C1083 C 0.82272 0.14549 0.62637 0.0
C1084 C 0.94127 0.13315 0.76597 0.0
C1085 C 0.92324 0.13063 0.74873 0.0
C1086 C 0.87503 0.15946 0.71408 0.0
C1087 C 0.84384 0.13393 0.66159 0.0
C1088 C 0.86155 0.13826 0.68081 0.0
C1089 C 0.91322 0.14866 0.73724 0.0
C1090 C 0.89552 0.14554 0.71757 0.0
H1091 H 0.81441 0.09161 0.63575 0.0
H1092 H 0.83968 0.1 0.66974 0.0
H1093 H 0.84247 0.16668 0.6936 0.0
H1094 H 0.94477 0.18806 0.76655 0.0
H1095 H 0.91367 0.18365 0.7357 0.0
loop_
_geom_bond_atom_site_label_1
_geom_bond_atom_site_label_2
_geom_bond_distance
_geom_bond_site_symmetry_2
_ccdc_geom_bond_type
C0 C1 1.384 . S
C0 H13 0.947 . S
C0 C35 1.382 . S
C1 C0 1.384 . S
C1 C2 1.378 . S
C2 C1 1.378 . S
C2 C3 1.378 . S
C2 H14 0.952 . S
C3 C2 1.378 . S
C3 H15 0.950 . S
C3 C34 1.383 . S
H4 C23 0.947 . S
H5 C24 0.946 1_554 S
H6 C26 0.953 . S
H7 C27 0.945 . S
H8 C29 0.952 . S
H9 C30 0.949 . S
H10 C32 0.950 . S
H11 C33 0.948 1_554 S
H12 C35 0.951 . S
H13 C0 0.947 . S
H14 C2 0.952 . S
H15 C3 0.950 . S
N16 C19 1.382 1_554 S
N16 C21 1.363 . S
N17 C19 1.371 . S
N17 C20 1.372 . S
N18 C20 1.361 1_554 S
N18 C21 1.377 . S
C19 N16 1.382 1_556 S
C19 N17 1.371 . S
C19 C22 1.480 . S
C20 N17 1.372 . S
C20 N18 1.361 1_556 S
C20 C28 1.457 . S
C21 N16 1.363 . S
C21 N18 1.377 . S
C21 C34 1.479 . S
C22 C19 1.480 . S
C22 C23 1.383 1_556 S
C22 C27 1.385 . S
C23 H4 0.947 . S
C23 C22 1.383 1_554 S
C23 C24 1.388 1_554 S
C24 H5 0.946 1_556 S
C24 C23 1.388 1_556 S
C24 C25 1.384 . S
C25 C24 1.384 . S
C25 C26 1.377 . S
C26 H6 0.953 . S
C26 C25 1.377 . S
C26 C27 1.369 . S
C27 H7 0.945 . S
C27 C22 1.385 . S
C27 C26 1.369 . S
C28 C20 1.457 . S
C28 C29 1.372 . S
C28 C33 1.364 . S
C29 H8 0.952 . S
C29 C28 1.372 . S
C29 C30 1.389 . S
C30 H9 0.949 . S
C30 C29 1.389 . S
C30 C31 1.387 . S
C31 C30 1.387 . S
C31 C32 1.372 . S
C32 H10 0.950 . S
C32 C31 1.372 . S
C32 C33 1.379 . S
C33 H11 0.948 1_556 S
C33 C28 1.364 . S
C33 C32 1.379 . S
C34 C3 1.383 . S
C34 C21 1.479 . S
C34 C35 1.398 . S
C35 C0 1.382 . S
C35 H12 0.951 . S
C35 C34 1.398 . S
C36 C37 1.384 . S
C36 H49 0.947 . S
C36 C71 1.382 . S
C37 C36 1.384 . S
C37 C38 1.378 . S
C38 C37 1.378 . S
C38 C39 1.378 . S
C38 H50 0.952 . S
C39 C38 1.378 . S
C39 H51 0.950 . S
C39 C70 1.383 . S
H40 C59 0.947 . S
H41 C60 0.946 . S
H42 C62 0.953 . S
H43 C63 0.945 . S
H44 C65 0.952 . S
H45 C66 0.949 . S
H46 C68 0.950 . S
H47 C69 0.948 . S
H48 C71 0.951 . S
H49 C36 0.947 . S
H50 C38 0.952 . S
H51 C39 0.950 . S
N52 C55 1.382 . S
N52 C57 1.363 . S
N53 C55 1.371 . S
N53 C56 1.372 . S
N54 C56 1.361 . S
N54 C57 1.377 . S
C55 N52 1.382 . S
C55 N53 1.371 . S
C55 C58 1.480 . S
C56 N53 1.372 . S
C56 N54 1.361 . S
C56 C64 1.457 . S
C57 N52 1.363 . S
C57 N54 1.377 . S
C57 C70 1.479 . S
C58 C55 1.480 . S
C58 C59 1.383 . S
C58 C63 1.385 . S
C59 H40 0.947 . S
C59 C58 1.383 . S
C59 C60 1.388 . S
C60 H41 0.946 . S
C60 C59 1.388 . S
C60 C61 1.384 . S
C61 C60 1.384 . S
C61 C62 1.377 . S
C62 H42 0.953 . S
C62 C61 1.377 . S
C62 C63 1.369 . S
C63 H43 0.945 . S
C63 C58 1.385 . S
C63 C62 1.369 . S
C64 C56 1.457 . S
C64 C65 1.372 . S
C64 C69 1.364 . S
C65 H44 0.952 . S
C65 C64 1.372 . S
C65 C66 1.389 . S
C66 H45 0.949 . S
C66 C65 1.389 . S
C66 C67 1.387 . S
C67 C66 1.387 . S
C67 C68 1.372 . S
C68 H46 0.950 . S
C68 C67 1.372 . S
C68 C69 1.379 . S
C69 H47 0.948 . S
C69 C64 1.364 . S
C69 C68 1.379 . S
C70 C39 1.383 . S
C70 C57 1.479 . S
C70 C71 1.398 . S
C71 C36 1.382 . S
C71 H48 0.951 . S
C71 C70 1.398 . S
C72 C73 1.384 . S
C72 H85 0.947 . S
C72 C107 1.382 . S
C73 C72 1.384 . S
C73 C74 1.378 . S
C74 C73 1.378 . S
C74 C75 1.378 . S
C74 H86 0.952 . S
C75 C74 1.378 . S
C75 H87 0.950 . S
C75 C106 1.383 . S
H76 C95 0.947 . S
H77 C96 0.946 . S
H78 C98 0.953 . S
H79 C99 0.945 . S
H80 C101 0.952 . S
H81 C102 0.949 . S
H82 C104 0.950 . S
H83 C105 0.948 1_554 S
H84 C107 0.951 . S
H85 C72 0.947 . S
H86 C74 0.952 . S
H87 C75 0.950 . S
N88 C91 1.421 . S
N88 C93 1.363 . S
N89 C91 1.347 1_556 S
N89 C92 1.372 . S
N90 C92 1.361 1_554 S
N90 C93 1.377 . S
C91 N88 1.421 . S
C91 N89 1.347 1_554 S
C91 C94 1.463 1_554 S
C92 N89 1.372 . S
C92 N90 1.361 1_556 S
C92 C100 1.457 . S
C93 N88 1.363 . S
C93 N90 1.377 . S
C93 C106 1.479 . S
C94 C91 1.463 1_556 S
C94 C95 1.383 1_556 S
C94 C99 1.385 . S
C95 H76 0.947 . S
C95 C94 1.383 1_554 S
C95 C96 1.388 1_554 S
C96 H77 0.946 . S
C96 C95 1.388 1_556 S
C96 C97 1.384 . S
C97 C96 1.384 . S
C97 C98 1.377 . S
C98 H78 0.953 . S
C98 C97 1.377 . S
C98 C99 1.369 . S
C99 H79 0.945 . S
C99 C94 1.385 . S
C99 C98 1.369 . S
C100 C92 1.457 . S
C100 C101 1.372 . S
C100 C105 1.364 . S
C101 H80 0.952 . S
C101 C100 1.372 . S
C101 C102 1.389 . S
C102 H81 0.949 . S
C102 C101 1.389 . S
C102 C103 1.387 . S
C103 C102 1.387 . S
C103 C104 1.372 . S
C104 H82 0.950 . S
C104 C103 1.372 . S
C104 C105 1.379 . S
C105 H83 0.948 1_556 S
C105 C100 1.364 . S
C105 C104 1.379 . S
C106 C75 1.383 . S
C106 C93 1.479 . S
C106 C107 1.398 . S
C107 C72 1.382 . S
C107 H84 0.951 . S
C107 C106 1.398 . S
C108 C109 1.384 . S
C108 H121 0.947 . S
C108 C143 1.382 . S
C109 C108 1.384 . S
C109 C110 1.378 . S
C110 C109 1.378 . S
C110 C111 1.378 . S
C110 H122 0.952 . S
C111 C110 1.378 . S
C111 H123 0.950 . S
C111 C142 1.383 . S
H112 C131 0.947 . S
H113 C132 0.946 . S
H114 C134 0.953 . S
H115 C135 0.945 . S
H116 C137 0.952 . S
H117 C138 0.949 . S
H118 C140 0.950 . S
H119 C141 0.948 . S
H120 C143 0.951 . S
H121 C108 0.947 . S
H122 C110 0.952 . S
H123 C111 0.950 . S
N124 C127 1.382 . S
N124 C129 1.363 . S
N125 C127 1.371 . S
N125 C128 1.372 . S
N126 C128 1.361 . S
N126 C129 1.377 . S
C127 N124 1.382 . S
C127 N125 1.371 . S
C127 C130 1.480 . S
C128 N125 1.372 . S
C128 N126 1.361 . S
C128 C136 1.457 . S
C129 N124 1.363 . S
C129 N126 1.377 . S
C129 C142 1.479 . S
C130 C127 1.480 . S
C130 C131 1.383 . S
C130 C135 1.385 . S
C131 H112 0.947 . S
C131 C130 1.383 . S
C131 C132 1.388 . S
C132 H113 0.946 . S
C132 C131 1.388 . S
C132 C133 1.384 . S
C133 C132 1.384 . S
C133 C134 1.377 . S
C134 H114 0.953 . S
C134 C133 1.377 . S
C134 C135 1.369 . S
C135 H115 0.945 . S
C135 C130 1.385 . S
C135 C134 1.369 . S
C136 C128 1.457 . S
C136 C137 1.372 . S
C136 C141 1.364 . S
C137 H116 0.952 . S
C137 C136 1.372 . S
C137 C138 1.389 . S
C138 H117 0.949 . S
C138 C137 1.389 . S
C138 C139 1.387 . S
C139 C138 1.387 . S
C139 C140 1.372 . S
C140 H118 0.950 . S
C140 C139 1.372 . S
C140 C141 1.379 . S
C141 H119 0.948 . S
C141 C136 1.364 . S
C141 C140 1.379 . S
C142 C111 1.383 . S
C142 C129 1.479 . S
C142 C143 1.398 . S
C143 C108 1.382 . S
C143 H120 0.951 . S
C143 C142 1.398 . S
C144 C145 1.384 . S
C144 H157 0.947 . S
C144 C179 1.382 . S
C145 C144 1.384 . S
C145 C146 1.378 . S
C146 C145 1.378 . S
C146 C147 1.378 . S
C146 H158 0.952 . S
C147 C146 1.378 . S
C147 H159 0.950 . S
C147 C178 1.383 . S
H148 C167 0.947 . S
H149 C168 0.946 1_554 S
H150 C170 0.953 . S
H151 C171 0.945 . S
H152 C173 0.952 . S
H153 C174 0.949 . S
H154 C176 0.950 . S
H155 C177 0.948 1_554 S
H156 C179 0.951 . S
H157 C144 0.947 . S
H158 C146 0.952 . S
H159 C147 0.950 . S
N160 C163 1.382 1_554 S
N160 C165 1.363 . S
N161 C163 1.371 . S
N161 C164 1.372 . S
N162 C164 1.361 1_554 S
N162 C165 1.377 . S
C163 N160 1.382 1_556 S
C163 N161 1.371 . S
C163 C166 1.480 . S
C164 N161 1.372 . S
C164 N162 1.361 1_556 S
C164 C172 1.457 . S
C165 N160 1.363 . S
C165 N162 1.377 . S
C165 C178 1.479 . S
C166 C163 1.480 . S
C166 C167 1.383 1_556 S
C166 C171 1.385 . S
C167 H148 0.947 . S
C167 C166 1.383 1_554 S
C167 C168 1.388 1_554 S
C168 H149 0.946 1_556 S
C168 C167 1.388 1_556 S
C168 C169 1.384 . S
C169 C168 1.384 . S
C169 C170 1.377 . S
C170 H150 0.953 . S
C170 C169 1.377 . S
C170 C171 1.369 . S
C171 H151 0.945 . S
C171 C166 1.385 . S
C171 C170 1.369 . S
C172 C164 1.457 . S
C172 C173 1.372 . S
C172 C177 1.364 . S
C173 H152 0.952 . S
C173 C172 1.372 . S
C173 C174 1.389 . S
C174 H153 0.949 . S
C174 C173 1.389 . S
C174 C175 1.387 . S
C175 C174 1.387 . S
C175 C176 1.372 . S
C176 H154 0.950 . S
C176 C175 1.372 . S
C176 C177 1.379 . S
C177 H155 0.948 1_556 S
C177 C172 1.364 . S
C177 C176 1.379 . S
C178 C147 1.383 . S
C178 C165 1.479 . S
C178 C179 1.398 . S
C179 C144 1.382 . S
C179 H156 0.951 . S
C179 C178 1.398 . S
C180 C181 1.384 . S
C180 H193 0.947 . S
C180 C215 1.382 . S
C181 C180 1.384 . S
C181 C182 1.378 . S
C182 C181 1.378 . S
C182 C183 1.378 . S
C182 H194 0.952 . S
C183 C182 1.378 . S
C183 H195 0.950 . S
C183 C214 1.383 . S
H184 C203 0.947 . S
H185 C204 0.946 . S
H186 C206 0.953 . S
H187 C207 0.945 . S
H188 C209 0.952 . S
H189 C210 0.949 . S
H190 C212 0.950 . S
H191 C213 0.948 . S
H192 C215 0.951 . S
H193 C180 0.947 . S
H194 C182 0.952 . S
H195 C183 0.950 . S
N196 C199 1.382 . S
N196 C201 1.363 . S
N197 C199 1.371 . S
N197 C200 1.372 . S
N198 C200 1.361 . S
N198 C201 1.377 . S
C199 N196 1.382 . S
C199 N197 1.371 . S
C199 C202 1.480 . S
C200 N197 1.372 . S
C200 N198 1.361 . S
C200 C208 1.457 . S
C201 N196 1.363 . S
C201 N198 1.377 . S
C201 C214 1.479 . S
C202 C199 1.480 . S
C202 C203 1.383 . S
C202 C207 1.385 . S
C203 H184 0.947 . S
C203 C202 1.383 . S
C203 C204 1.388 . S
C204 H185 0.946 . S
C204 C203 1.388 . S
C204 C205 1.384 . S
C205 C204 1.384 . S
C205 C206 1.377 . S
C206 H186 0.953 . S
C206 C205 1.377 . S
C206 C207 1.369 . S
C207 H187 0.945 . S
C207 C202 1.385 . S
C207 C206 1.369 . S
C208 C200 1.457 . S
C208 C209 1.372 . S
C208 C213 1.364 . S
C209 H188 0.952 . S
C209 C208 1.372 . S
C209 C210 1.389 . S
C210 H189 0.949 . S
C210 C209 1.389 . S
C210 C211 1.387 . S
C211 C210 1.387 . S
C211 C212 1.372 . S
C212 H190 0.950 . S
C212 C211 1.372 . S
C212 C213 1.379 . S
C213 H191 0.948 . S
C213 C208 1.364 . S
C213 C212 1.379 . S
C214 C183 1.383 . S
C214 C201 1.479 . S
C214 C215 1.398 . S
C215 C180 1.382 . S
C215 H192 0.951 . S
C215 C214 1.398 . S
C216 C217 1.384 . S
C216 H229 0.947 . S
C216 C251 1.382 . S
C217 C216 1.384 . S
C217 C218 1.378 . S
C218 C217 1.378 . S
C218 C219 1.378 . S
C218 H230 0.952 . S
C219 C218 1.378 . S
C219 H231 0.950 . S
C219 C250 1.383 . S
H220 C239 0.947 . S
H221 C240 0.946 . S
H222 C242 0.953 . S
H223 C243 0.945 . S
H224 C245 0.952 . S
H225 C246 0.949 . S
H226 C248 0.950 . S
H227 C249 0.948 1_554 S
H228 C251 0.951 . S
H229 C216 0.947 . S
H230 C218 0.952 . S
H231 C219 0.950 . S
N232 C235 1.420 . S
N232 C237 1.363 . S
N233 C235 1.347 1_556 S
N233 C236 1.372 . S
N234 C236 1.361 1_554 S
N234 C237 1.377 . S
C235 N232 1.420 . S
C235 N233 1.347 1_554 S
C235 C238 1.463 1_554 S
C236 N233 1.372 . S
C236 N234 1.361 1_556 S
C236 C244 1.457 . S
C237 N232 1.363 . S
C237 N234 1.377 . S
C237 C250 1.479 . S
C238 C235 1.463 1_556 S
C238 C239 1.383 1_556 S
C238 C243 1.385 . S
C239 H220 0.947 . S
C239 C238 1.383 1_554 S
C239 C240 1.388 1_554 S
C240 H221 0.946 . S
C240 C239 1.388 1_556 S
C240 C241 1.384 . S
C241 C240 1.384 . S
C241 C242 1.377 . S
C242 H222 0.953 . S
C242 C241 1.377 . S
C242 C243 1.369 . S
C243 H223 0.945 . S
C243 C238 1.385 . S
C243 C242 1.369 . S
C244 C236 1.457 . S
C244 C245 1.372 . S
C244 C249 1.364 . S
C245 H224 0.952 . S
C245 C244 1.372 . S
C245 C246 1.389 . S
C246 H225 0.949 . S
C246 C245 1.389 . S
C246 C247 1.387 . S
C247 C246 1.387 . S
C247 C248 1.372 . S
C248 H226 0.950 . S
C248 C247 1.372 . S
C248 C249 1.379 . S
C249 H227 0.948 1_556 S
C249 C244 1.364 . S
C249 C248 1.379 . S
C250 C219 1.383 . S
C250 C237 1.479 . S
C250 C251 1.398 . S
C251 C216 1.382 . S
C251 H228 0.951 . S
C251 C250 1.398 . S
C252 C253 1.384 . S
C252 H265 0.947 . S
C252 C287 1.382 . S
C253 C252 1.384 . S
C253 C254 1.378 . S
C254 C253 1.378 . S
C254 C255 1.378 . S
C254 H266 0.952 . S
C255 C254 1.378 . S
C255 H267 0.950 . S
C255 C286 1.383 . S
H256 C275 0.947 . S
H257 C276 0.946 . S
H258 C278 0.953 . S
H259 C279 0.945 . S
H260 C281 0.952 . S
H261 C282 0.949 . S
H262 C284 0.950 . S
H263 C285 0.948 . S
H264 C287 0.951 . S
H265 C252 0.947 . S
H266 C254 0.952 . S
H267 C255 0.950 . S
N268 C271 1.382 . S
N268 C273 1.363 . S
N269 C271 1.371 . S
N269 C272 1.372 . S
N270 C272 1.361 . S
N270 C273 1.377 . S
C271 N268 1.382 . S
C271 N269 1.371 . S
C271 C274 1.480 . S
C272 N269 1.372 . S
C272 N270 1.361 . S
C272 C280 1.457 . S
C273 N268 1.363 . S
C273 N270 1.377 . S
C273 C286 1.479 . S
C274 C271 1.480 . S
C274 C275 1.383 . S
C274 C279 1.385 . S
C275 H256 0.947 . S
C275 C274 1.383 . S
C275 C276 1.388 . S
C276 H257 0.946 . S
C276 C275 1.388 . S
C276 C277 1.384 . S
C277 C276 1.384 . S
C277 C278 1.377 . S
C278 H258 0.953 . S
C278 C277 1.377 . S
C278 C279 1.369 . S
C279 H259 0.945 . S
C279 C274 1.385 . S
C279 C278 1.369 . S
C280 C272 1.457 . S
C280 C281 1.372 . S
C280 C285 1.364 . S
C281 H260 0.952 . S
C281 C280 1.372 . S
C281 C282 1.389 . S
C282 H261 0.949 . S
C282 C281 1.389 . S
C282 C283 1.387 . S
C283 C282 1.387 . S
C283 C284 1.372 . S
C284 H262 0.950 . S
C284 C283 1.372 . S
C284 C285 1.379 . S
C285 H263 0.948 . S
C285 C280 1.364 . S
C285 C284 1.379 . S
C286 C255 1.383 . S
C286 C273 1.479 . S
C286 C287 1.398 . S
C287 C252 1.382 . S
C287 H264 0.951 . S
C287 C286 1.398 . S
Fe288 O290 1.918 . S
Fe288 O293 1.997 1_455 S
Fe288 O294 2.002 1_455 S
Fe288 O299 1.976 . S
Fe288 O302 1.996 . S
Fe289 O290 1.918 . S
Fe289 O297 1.997 1_455 S
Fe289 O300 1.996 . S
Fe289 O304 1.976 . S
Fe289 O307 2.002 1_455 S
O290 Fe288 1.918 . S
O290 Fe289 1.918 . S
O290 Fe291 1.918 . S
Fe291 O290 1.918 . S
Fe291 O292 2.002 1_455 S
Fe291 O301 1.976 . S
Fe291 O305 1.996 . S
Fe291 O308 1.997 1_455 S
O292 Fe291 2.002 1_655 S
O292 C309 1.295 . S
O293 Fe288 1.997 1_655 S
O293 C309 1.235 . S
O294 Fe288 2.002 1_655 S
O294 C295 1.295 . S
C295 O294 1.295 . S
C295 O297 1.235 . S
C296 O301 1.287 . S
C296 O302 1.255 . S
O297 Fe289 1.997 1_655 S
O297 C295 1.235 . S
C298 O304 1.287 . S
C298 O305 1.255 . S
O299 Fe288 1.976 . S
O299 C306 1.287 . S
O300 Fe289 1.996 . S
O300 C306 1.255 . S
O301 Fe291 1.976 . S
O301 C296 1.287 . S
O302 Fe288 1.996 . S
O302 C296 1.255 . S
C303 O307 1.295 . S
C303 O308 1.235 . S
O304 Fe289 1.976 . S
O304 C298 1.287 . S
O305 Fe291 1.996 . S
O305 C298 1.255 . S
C306 O299 1.287 . S
C306 O300 1.255 . S
O307 Fe289 2.002 1_655 S
O307 C303 1.295 . S
O308 Fe291 1.997 1_655 S
O308 C303 1.235 . S
C309 O292 1.295 . S
C309 O293 1.235 . S
Fe310 O312 1.919 . S
Fe310 O315 1.981 1_655 S
Fe310 O316 1.986 1_655 S
Fe310 O321 1.992 . S
Fe310 O324 2.011 . S
Fe311 O312 1.919 . S
Fe311 O319 1.981 1_655 S
Fe311 O322 2.011 . S
Fe311 O326 1.992 . S
Fe311 O329 1.986 1_655 S
O312 Fe310 1.919 . S
O312 Fe311 1.919 . S
O312 Fe313 1.919 . S
Fe313 O312 1.919 . S
Fe313 O314 1.987 1_655 S
Fe313 O323 1.991 . S
Fe313 O327 2.011 . S
Fe313 O330 1.981 1_655 S
O314 Fe313 1.987 1_455 S
O314 C331 1.295 . S
O315 Fe310 1.981 1_455 S
O315 C331 1.235 . S
O316 Fe310 1.986 1_455 S
O316 C317 1.295 . S
C317 O316 1.295 . S
C317 O319 1.235 . S
C318 O323 1.287 . S
C318 O324 1.255 . S
O319 Fe311 1.981 1_455 S
O319 C317 1.235 . S
C320 O326 1.287 . S
C320 O327 1.255 . S
O321 Fe310 1.992 . S
O321 C328 1.287 . S
O322 Fe311 2.011 . S
O322 C328 1.255 . S
O323 Fe313 1.991 . S
O323 C318 1.287 . S
O324 Fe310 2.011 . S
O324 C318 1.255 . S
C325 O329 1.295 . S
C325 O330 1.235 . S
O326 Fe311 1.992 . S
O326 C320 1.287 . S
O327 Fe313 2.011 . S
O327 C320 1.255 . S
C328 O321 1.287 . S
C328 O322 1.255 . S
O329 Fe311 1.986 1_455 S
O329 C325 1.295 . S
O330 Fe313 1.981 1_455 S
O330 C325 1.235 . S
C331 O314 1.295 . S
C331 O315 1.235 . S
Fe332 O334 1.918 . S
Fe332 O337 1.997 . S
Fe332 O338 2.002 . S
Fe332 O343 1.976 . S
Fe332 O346 1.996 . S
Fe333 O334 1.918 . S
Fe333 O341 1.997 . S
Fe333 O344 1.996 . S
Fe333 O348 1.976 . S
Fe333 O351 2.002 . S
O334 Fe332 1.918 . S
O334 Fe333 1.918 . S
O334 Fe335 1.918 . S
Fe335 O334 1.918 . S
Fe335 O336 2.002 . S
Fe335 O345 1.976 . S
Fe335 O349 1.996 . S
Fe335 O352 1.997 . S
O336 Fe335 2.002 . S
O336 C353 1.295 . S
O337 Fe332 1.997 . S
O337 C353 1.235 . S
O338 Fe332 2.002 . S
O338 C339 1.295 . S
C339 O338 1.295 . S
C339 O341 1.235 . S
C340 O345 1.287 . S
C340 O346 1.255 . S
O341 Fe333 1.997 . S
O341 C339 1.235 . S
C342 O348 1.287 . S
C342 O349 1.255 . S
O343 Fe332 1.976 . S
O343 C350 1.287 . S
O344 Fe333 1.996 . S
O344 C350 1.255 . S
O345 Fe335 1.976 . S
O345 C340 1.287 . S
O346 Fe332 1.996 . S
O346 C340 1.255 . S
C347 O351 1.295 . S
C347 O352 1.235 . S
O348 Fe333 1.976 . S
O348 C342 1.287 . S
O349 Fe335 1.996 . S
O349 C342 1.255 . S
C350 O343 1.287 . S
C350 O344 1.255 . S
O351 Fe333 2.002 . S
O351 C347 1.295 . S
O352 Fe335 1.997 . S
O352 C347 1.235 . S
C353 O336 1.295 . S
C353 O337 1.235 . S
Fe354 O356 1.918 . S
Fe354 O359 1.997 . S
Fe354 O360 2.002 . S
Fe354 O365 1.976 . S
Fe354 O368 1.996 . S
Fe355 O356 1.918 . S
Fe355 O363 1.997 . S
Fe355 O366 1.996 . S
Fe355 O370 1.976 . S
Fe355 O373 2.002 . S
O356 Fe354 1.918 . S
O356 Fe355 1.918 . S
O356 Fe357 1.918 . S
Fe357 O356 1.918 . S
Fe357 O358 2.002 . S
Fe357 O367 1.976 . S
Fe357 O371 1.996 . S
Fe357 O374 1.997 . S
O358 Fe357 2.002 . S
O358 C375 1.295 . S
O359 Fe354 1.997 . S
O359 C375 1.235 . S
O360 Fe354 2.002 . S
O360 C361 1.295 . S
C361 O360 1.295 . S
C361 O363 1.235 . S
C362 O367 1.287 . S
C362 O368 1.255 . S
O363 Fe355 1.997 . S
O363 C361 1.235 . S
C364 O370 1.287 . S
C364 O371 1.255 . S
O365 Fe354 1.976 . S
O365 C372 1.287 . S
O366 Fe355 1.996 . S
O366 C372 1.255 . S
O367 Fe357 1.976 . S
O367 C362 1.287 . S
O368 Fe354 1.996 . S
O368 C362 1.255 . S
C369 O373 1.295 . S
C369 O374 1.235 . S
O370 Fe355 1.976 . S
O370 C364 1.287 . S
O371 Fe357 1.996 . S
O371 C364 1.255 . S
C372 O365 1.287 . S
C372 O366 1.255 . S
O373 Fe355 2.002 . S
O373 C369 1.295 . S
O374 Fe357 1.997 . S
O374 C369 1.235 . S
C375 O358 1.295 . S
C375 O359 1.235 . S
C376 C377 1.349 . S
C376 C378 1.327 . S
C376 H401 0.950 . S
C377 C376 1.349 . S
C377 C393 1.349 . S
C378 C376 1.327 . S
C378 C397 1.429 . S
C378 H402 0.950 . S
C379 C396 1.574 . S
C379 C398 1.368 . S
C379 H403 0.949 . S
H380 C384 0.949 . S
C381 C382 1.349 . S
C381 C383 1.327 . S
C381 H404 0.950 . S
C382 C381 1.349 . S
C382 C394 1.349 . S
C383 C381 1.327 . S
C383 C399 1.429 . S
C383 H405 0.950 . S
C384 H380 0.949 . S
C384 C392 1.574 . S
C384 C400 1.368 . S
H385 C393 0.950 . S
H386 C391 0.950 . S
H387 C392 0.949 . S
H388 C394 0.950 . S
H389 C395 0.950 . S
H390 C396 0.949 . S
C391 H386 0.950 . S
C391 C393 1.327 . S
C391 C397 1.429 . S
C392 C384 1.574 . S
C392 H387 0.949 . S
C392 C398 1.368 . S
C393 C377 1.349 . S
C393 H385 0.950 . S
C393 C391 1.327 . S
C394 C382 1.349 . S
C394 H388 0.950 . S
C394 C395 1.327 . S
C395 H389 0.950 . S
C395 C394 1.327 . S
C395 C399 1.429 . S
C396 C379 1.574 . S
C396 H390 0.949 . S
C396 C400 1.368 . S
C397 C378 1.429 . S
C397 C391 1.429 . S
C397 C398 1.523 . S
C398 C379 1.368 . S
C398 C392 1.368 . S
C398 C397 1.523 . S
C399 C383 1.429 . S
C399 C395 1.429 . S
C399 C400 1.523 . S
C400 C384 1.368 . S
C400 C396 1.368 . S
C400 C399 1.523 . S
H401 C376 0.950 . S
H402 C378 0.950 . S
H403 C379 0.949 . S
H404 C381 0.950 . S
H405 C383 0.950 . S
C406 C407 1.349 . S
C406 C408 1.327 . S
C406 H431 0.950 . S
C407 C406 1.349 . S
C407 C423 1.349 . S
C408 C406 1.327 . S
C408 C427 1.429 . S
C408 H432 0.950 . S
C409 C426 1.574 . S
C409 C428 1.368 . S
C409 H433 0.949 . S
H410 C414 0.949 . S
C411 C412 1.349 . S
C411 C413 1.327 . S
C411 H434 0.950 . S
C412 C411 1.349 . S
C412 C424 1.349 . S
C413 C411 1.327 . S
C413 C429 1.429 . S
C413 H435 0.950 . S
C414 H410 0.949 . S
C414 C422 1.574 . S
C414 C430 1.368 . S
H415 C423 0.950 . S
H416 C421 0.950 . S
H417 C422 0.949 . S
H418 C424 0.950 . S
H419 C425 0.950 . S
H420 C426 0.949 . S
C421 H416 0.950 . S
C421 C423 1.327 . S
C421 C427 1.429 . S
C422 C414 1.574 . S
C422 H417 0.949 . S
C422 C428 1.368 . S
C423 C407 1.349 . S
C423 H415 0.950 . S
C423 C421 1.327 . S
C424 C412 1.349 . S
C424 H418 0.950 . S
C424 C425 1.327 . S
C425 H419 0.950 . S
C425 C424 1.327 . S
C425 C429 1.429 . S
C426 C409 1.574 . S
C426 H420 0.949 . S
C426 C430 1.368 . S
C427 C408 1.429 . S
C427 C421 1.429 . S
C427 C428 1.523 . S
C428 C409 1.368 . S
C428 C422 1.368 . S
C428 C427 1.523 . S
C429 C413 1.429 . S
C429 C425 1.429 . S
C429 C430 1.523 . S
C430 C414 1.368 . S
C430 C426 1.368 . S
C430 C429 1.523 . S
H431 C406 0.950 . S
H432 C408 0.950 . S
H433 C409 0.949 . S
H434 C411 0.950 . S
H435 C413 0.950 . S
C436 C437 1.349 . S
C436 C438 1.327 . S
C436 H461 0.950 . S
C437 C436 1.349 . S
C437 C453 1.349 . S
C438 C436 1.327 . S
C438 C457 1.429 . S
C438 H462 0.950 . S
C439 C456 1.574 . S
C439 C458 1.368 . S
C439 H463 0.949 . S
H440 C444 0.949 . S
C441 C442 1.349 . S
C441 C443 1.327 . S
C441 H464 0.950 . S
C442 C441 1.349 . S
C442 C454 1.349 . S
C443 C441 1.327 . S
C443 C459 1.429 . S
C443 H465 0.950 . S
C444 H440 0.949 . S
C444 C452 1.574 . S
C444 C460 1.368 . S
H445 C453 0.950 . S
H446 C451 0.950 . S
H447 C452 0.949 . S
H448 C454 0.950 . S
H449 C455 0.950 . S
H450 C456 0.949 . S
C451 H446 0.950 . S
C451 C453 1.327 . S
C451 C457 1.429 . S
C452 C444 1.574 . S
C452 H447 0.949 . S
C452 C458 1.368 . S
C453 C437 1.349 . S
C453 H445 0.950 . S
C453 C451 1.327 . S
C454 C442 1.349 . S
C454 H448 0.950 . S
C454 C455 1.327 . S
C455 H449 0.950 . S
C455 C454 1.327 . S
C455 C459 1.429 . S
C456 C439 1.574 . S
C456 H450 0.949 . S
C456 C460 1.368 . S
C457 C438 1.429 . S
C457 C451 1.429 . S
C457 C458 1.523 . S
C458 C439 1.368 . S
C458 C452 1.368 . S
C458 C457 1.523 . S
C459 C443 1.429 . S
C459 C455 1.429 . S
C459 C460 1.523 . S
C460 C444 1.368 . S
C460 C456 1.368 . S
C460 C459 1.523 . S
H461 C436 0.950 . S
H462 C438 0.950 . S
H463 C439 0.949 . S
H464 C441 0.950 . S
H465 C443 0.950 . S
C466 C467 1.349 . S
C466 C468 1.327 . S
C466 H491 0.950 . S
C467 C466 1.349 . S
C467 C483 1.349 . S
C468 C466 1.327 . S
C468 C487 1.429 . S
C468 H492 0.950 . S
C469 C486 1.574 . S
C469 C488 1.368 . S
C469 H493 0.949 . S
H470 C474 0.949 . S
C471 C472 1.349 . S
C471 C473 1.327 . S
C471 H494 0.950 . S
C472 C471 1.349 . S
C472 C484 1.349 . S
C473 C471 1.327 . S
C473 C489 1.429 . S
C473 H495 0.950 . S
C474 H470 0.949 . S
C474 C482 1.574 . S
C474 C490 1.368 . S
H475 C483 0.950 . S
H476 C481 0.950 . S
H477 C482 0.949 . S
H478 C484 0.950 . S
H479 C485 0.950 . S
H480 C486 0.949 . S
C481 H476 0.950 . S
C481 C483 1.327 . S
C481 C487 1.429 . S
C482 C474 1.574 . S
C482 H477 0.949 . S
C482 C488 1.368 . S
C483 C467 1.349 . S
C483 H475 0.950 . S
C483 C481 1.327 . S
C484 C472 1.349 . S
C484 H478 0.950 . S
C484 C485 1.327 . S
C485 H479 0.950 . S
C485 C484 1.327 . S
C485 C489 1.429 . S
C486 C469 1.574 . S
C486 H480 0.949 . S
C486 C490 1.368 . S
C487 C468 1.429 . S
C487 C481 1.429 . S
C487 C488 1.523 . S
C488 C469 1.368 . S
C488 C482 1.368 . S
C488 C487 1.523 . S
C489 C473 1.429 . S
C489 C485 1.429 . S
C489 C490 1.523 . S
C490 C474 1.368 . S
C490 C486 1.368 . S
C490 C489 1.523 . S
H491 C466 0.950 . S
H492 C468 0.950 . S
H493 C469 0.949 . S
H494 C471 0.950 . S
H495 C473 0.950 . S
C496 C497 1.349 . S
C496 C498 1.327 . S
C496 H521 0.950 . S
C497 C496 1.349 . S
C497 C513 1.349 . S
C498 C496 1.327 . S
C498 C517 1.429 . S
C498 H522 0.950 . S
C499 C516 1.574 . S
C499 C518 1.368 . S
C499 H523 0.949 . S
H500 C504 0.949 . S
C501 C502 1.349 . S
C501 C503 1.327 . S
C501 H524 0.950 . S
C502 C501 1.349 . S
C502 C514 1.349 . S
C503 C501 1.327 . S
C503 C519 1.429 . S
C503 H525 0.950 . S
C504 H500 0.949 . S
C504 C512 1.574 . S
C504 C520 1.368 . S
H505 C513 0.950 . S
H506 C511 0.950 . S
H507 C512 0.949 . S
H508 C514 0.950 . S
H509 C515 0.950 . S
H510 C516 0.949 . S
C511 H506 0.950 . S
C511 C513 1.327 . S
C511 C517 1.429 . S
C512 C504 1.574 . S
C512 H507 0.949 . S
C512 C518 1.368 . S
C513 C497 1.349 . S
C513 H505 0.950 . S
C513 C511 1.327 . S
C514 C502 1.349 . S
C514 H508 0.950 . S
C514 C515 1.327 . S
C515 H509 0.950 . S
C515 C514 1.327 . S
C515 C519 1.429 . S
C516 C499 1.574 . S
C516 H510 0.949 . S
C516 C520 1.368 . S
C517 C498 1.429 . S
C517 C511 1.429 . S
C517 C518 1.523 . S
C518 C499 1.368 . S
C518 C512 1.368 . S
C518 C517 1.523 . S
C519 C503 1.429 . S
C519 C515 1.429 . S
C519 C520 1.523 . S
C520 C504 1.368 . S
C520 C516 1.368 . S
C520 C519 1.523 . S
H521 C496 0.950 . S
H522 C498 0.950 . S
H523 C499 0.949 . S
H524 C501 0.950 . S
H525 C503 0.950 . S
C526 C527 1.349 . S
C526 C528 1.327 . S
C526 H551 0.950 . S
C527 C526 1.349 . S
C527 C543 1.349 . S
C528 C526 1.327 . S
C528 C547 1.429 . S
C528 H552 0.950 . S
C529 C546 1.574 . S
C529 C548 1.368 . S
C529 H553 0.949 . S
H530 C534 0.949 . S
C531 C532 1.349 . S
C531 C533 1.327 . S
C531 H554 0.950 . S
C532 C531 1.349 . S
C532 C544 1.349 . S
C533 C531 1.327 . S
C533 C549 1.429 . S
C533 H555 0.950 . S
C534 H530 0.949 . S
C534 C542 1.574 . S
C534 C550 1.368 . S
H535 C543 0.950 . S
H536 C541 0.950 . S
H537 C542 0.949 . S
H538 C544 0.950 . S
H539 C545 0.950 . S
H540 C546 0.949 . S
C541 H536 0.950 . S
C541 C543 1.327 . S
C541 C547 1.429 . S
C542 C534 1.574 . S
C542 H537 0.949 . S
C542 C548 1.368 . S
C543 C527 1.349 . S
C543 H535 0.950 . S
C543 C541 1.327 . S
C544 C532 1.349 . S
C544 H538 0.950 . S
C544 C545 1.327 . S
C545 H539 0.950 . S
C545 C544 1.327 . S
C545 C549 1.429 . S
C546 C529 1.574 . S
C546 H540 0.949 . S
C546 C550 1.368 . S
C547 C528 1.429 . S
C547 C541 1.429 . S
C547 C548 1.523 . S
C548 C529 1.368 . S
C548 C542 1.368 . S
C548 C547 1.523 . S
C549 C533 1.429 . S
C549 C545 1.429 . S
C549 C550 1.523 . S
C550 C534 1.368 . S
C550 C546 1.368 . S
C550 C549 1.523 . S
H551 C526 0.950 . S
H552 C528 0.950 . S
H553 C529 0.949 . S
H554 C531 0.950 . S
H555 C533 0.950 . S
C556 C557 1.349 . S
C556 C558 1.327 . S
C556 H581 0.950 . S
C557 C556 1.349 . S
C557 C573 1.349 . S
C558 C556 1.327 . S
C558 C577 1.429 . S
C558 H582 0.950 . S
C559 C576 1.574 . S
C559 C578 1.368 . S
C559 H583 0.949 . S
H560 C564 0.949 . S
C561 C562 1.349 . S
C561 C563 1.327 . S
C561 H584 0.950 . S
C562 C561 1.349 . S
C562 C574 1.349 . S
C563 C561 1.327 . S
C563 C579 1.429 . S
C563 H585 0.950 . S
C564 H560 0.949 . S
C564 C572 1.574 . S
C564 C580 1.368 . S
H565 C573 0.950 . S
H566 C571 0.950 . S
H567 C572 0.949 . S
H568 C574 0.950 . S
H569 C575 0.950 . S
H570 C576 0.949 . S
C571 H566 0.950 . S
C571 C573 1.327 . S
C571 C577 1.429 . S
C572 C564 1.574 . S
C572 H567 0.949 . S
C572 C578 1.368 . S
C573 C557 1.349 . S
C573 H565 0.950 . S
C573 C571 1.327 . S
C574 C562 1.349 . S
C574 H568 0.950 . S
C574 C575 1.327 . S
C575 H569 0.950 . S
C575 C574 1.327 . S
C575 C579 1.429 . S
C576 C559 1.574 . S
C576 H570 0.949 . S
C576 C580 1.368 . S
C577 C558 1.429 . S
C577 C571 1.429 . S
C577 C578 1.523 . S
C578 C559 1.368 . S
C578 C572 1.368 . S
C578 C577 1.523 . S
C579 C563 1.429 . S
C579 C575 1.429 . S
C579 C580 1.523 . S
C580 C564 1.368 . S
C580 C576 1.368 . S
C580 C579 1.523 . S
H581 C556 0.950 . S
H582 C558 0.950 . S
H583 C559 0.949 . S
H584 C561 0.950 . S
H585 C563 0.950 . S
C586 C587 1.349 . S
C586 C588 1.327 . S
C586 H611 0.950 . S
C587 C586 1.349 . S
C587 C603 1.349 . S
C588 C586 1.327 . S
C588 C607 1.429 . S
C588 H612 0.950 . S
C589 C606 1.574 . S
C589 C608 1.368 . S
C589 H613 0.949 . S
H590 C594 0.949 . S
C591 C592 1.349 . S
C591 C593 1.327 . S
C591 H614 0.950 . S
C592 C591 1.349 . S
C592 C604 1.349 . S
C593 C591 1.327 . S
C593 C609 1.429 . S
C593 H615 0.950 . S
C594 H590 0.949 . S
C594 C602 1.574 . S
C594 C610 1.368 . S
H595 C603 0.950 . S
H596 C601 0.950 . S
H597 C602 0.949 . S
H598 C604 0.950 . S
H599 C605 0.950 . S
H600 C606 0.949 . S
C601 H596 0.950 . S
C601 C603 1.327 . S
C601 C607 1.429 . S
C602 C594 1.574 . S
C602 H597 0.949 . S
C602 C608 1.368 . S
C603 C587 1.349 . S
C603 H595 0.950 . S
C603 C601 1.327 . S
C604 C592 1.349 . S
C604 H598 0.950 . S
C604 C605 1.327 . S
C605 H599 0.950 . S
C605 C604 1.327 . S
C605 C609 1.429 . S
C606 C589 1.574 . S
C606 H600 0.949 . S
C606 C610 1.368 . S
C607 C588 1.429 . S
C607 C601 1.429 . S
C607 C608 1.523 . S
C608 C589 1.368 . S
C608 C602 1.368 . S
C608 C607 1.523 . S
C609 C593 1.429 . S
C609 C605 1.429 . S
C609 C610 1.523 . S
C610 C594 1.368 . S
C610 C606 1.368 . S
C610 C609 1.523 . S
H611 C586 0.950 . S
H612 C588 0.950 . S
H613 C589 0.949 . S
H614 C591 0.950 . S
H615 C593 0.950 . S
C616 C617 1.349 . S
C616 C618 1.327 . S
C616 H641 0.950 . S
C617 C616 1.349 . S
C617 C633 1.349 . S
C618 C616 1.327 . S
C618 C637 1.429 . S
C618 H642 0.950 . S
C619 C636 1.574 . S
C619 C638 1.368 . S
C619 H643 0.949 . S
H620 C624 0.949 . S
C621 C622 1.349 . S
C621 C623 1.327 . S
C621 H644 0.950 . S
C622 C621 1.349 . S
C622 C634 1.349 . S
C623 C621 1.327 . S
C623 C639 1.429 . S
C623 H645 0.950 . S
C624 H620 0.949 . S
C624 C632 1.574 . S
C624 C640 1.368 . S
H625 C633 0.950 . S
H626 C631 0.950 . S
H627 C632 0.949 . S
H628 C634 0.950 . S
H629 C635 0.950 . S
H630 C636 0.949 . S
C631 H626 0.950 . S
C631 C633 1.327 . S
C631 C637 1.429 . S
C632 C624 1.574 . S
C632 H627 0.949 . S
C632 C638 1.368 . S
C633 C617 1.349 . S
C633 H625 0.950 . S
C633 C631 1.327 . S
C634 C622 1.349 . S
C634 H628 0.950 . S
C634 C635 1.327 . S
C635 H629 0.950 . S
C635 C634 1.327 . S
C635 C639 1.429 . S
C636 C619 1.574 . S
C636 H630 0.949 . S
C636 C640 1.368 . S
C637 C618 1.429 . S
C637 C631 1.429 . S
C637 C638 1.523 . S
C638 C619 1.368 . S
C638 C632 1.368 . S
C638 C637 1.523 . S
C639 C623 1.429 . S
C639 C635 1.429 . S
C639 C640 1.523 . S
C640 C624 1.368 . S
C640 C636 1.368 . S
C640 C639 1.523 . S
H641 C616 0.950 . S
H642 C618 0.950 . S
H643 C619 0.949 . S
H644 C621 0.950 . S
H645 C623 0.950 . S
C646 C647 1.349 . S
C646 C648 1.327 . S
C646 H671 0.950 . S
C647 C646 1.349 . S
C647 C663 1.349 . S
C648 C646 1.327 . S
C648 C667 1.429 . S
C648 H672 0.950 . S
C649 C666 1.574 . S
C649 C668 1.368 . S
C649 H673 0.949 . S
H650 C654 0.949 . S
C651 C652 1.349 . S
C651 C653 1.327 . S
C651 H674 0.950 . S
C652 C651 1.349 . S
C652 C664 1.349 . S
C653 C651 1.327 . S
C653 C669 1.429 . S
C653 H675 0.950 . S
C654 H650 0.949 . S
C654 C662 1.574 . S
C654 C670 1.368 . S
H655 C663 0.950 . S
H656 C661 0.950 . S
H657 C662 0.949 . S
H658 C664 0.950 . S
H659 C665 0.950 . S
H660 C666 0.949 . S
C661 H656 0.950 . S
C661 C663 1.327 . S
C661 C667 1.429 . S
C662 C654 1.574 . S
C662 H657 0.949 . S
C662 C668 1.368 . S
C663 C647 1.349 . S
C663 H655 0.950 . S
C663 C661 1.327 . S
C664 C652 1.349 . S
C664 H658 0.950 . S
C664 C665 1.327 . S
C665 H659 0.950 . S
C665 C664 1.327 . S
C665 C669 1.429 . S
C666 C649 1.574 . S
C666 H660 0.949 . S
C666 C670 1.368 . S
C667 C648 1.429 . S
C667 C661 1.429 . S
C667 C668 1.523 . S
C668 C649 1.368 . S
C668 C662 1.368 . S
C668 C667 1.523 . S
C669 C653 1.429 . S
C669 C665 1.429 . S
C669 C670 1.523 . S
C670 C654 1.368 . S
C670 C666 1.368 . S
C670 C669 1.523 . S
H671 C646 0.950 . S
H672 C648 0.950 . S
H673 C649 0.949 . S
H674 C651 0.950 . S
H675 C653 0.950 . S
C676 C677 1.349 . S
C676 C678 1.327 . S
C676 H701 0.950 . S
C677 C676 1.349 . S
C677 C693 1.349 . S
C678 C676 1.327 . S
C678 C697 1.429 . S
C678 H702 0.950 . S
C679 C696 1.574 . S
C679 C698 1.368 . S
C679 H703 0.949 . S
H680 C684 0.949 . S
C681 C682 1.349 . S
C681 C683 1.327 . S
C681 H704 0.950 . S
C682 C681 1.349 . S
C682 C694 1.349 . S
C683 C681 1.327 . S
C683 C699 1.429 . S
C683 H705 0.950 . S
C684 H680 0.949 . S
C684 C692 1.574 . S
C684 C700 1.368 . S
H685 C693 0.950 . S
H686 C691 0.950 . S
H687 C692 0.949 . S
H688 C694 0.950 . S
H689 C695 0.950 . S
H690 C696 0.949 . S
C691 H686 0.950 . S
C691 C693 1.327 . S
C691 C697 1.429 . S
C692 C684 1.574 . S
C692 H687 0.949 . S
C692 C698 1.368 . S
C693 C677 1.349 . S
C693 H685 0.950 . S
C693 C691 1.327 . S
C694 C682 1.349 . S
C694 H688 0.950 . S
C694 C695 1.327 . S
C695 H689 0.950 . S
C695 C694 1.327 . S
C695 C699 1.429 . S
C696 C679 1.574 . S
C696 H690 0.949 . S
C696 C700 1.368 . S
C697 C678 1.429 . S
C697 C691 1.429 . S
C697 C698 1.523 . S
C698 C679 1.368 . S
C698 C692 1.368 . S
C698 C697 1.523 . S
C699 C683 1.429 . S
C699 C695 1.429 . S
C699 C700 1.523 . S
C700 C684 1.368 . S
C700 C696 1.368 . S
C700 C699 1.523 . S
H701 C676 0.950 . S
H702 C678 0.950 . S
H703 C679 0.949 . S
H704 C681 0.950 . S
H705 C683 0.950 . S
C706 C707 1.349 . S
C706 C708 1.327 . S
C706 H731 0.950 . S
C707 C706 1.349 . S
C707 C723 1.349 . S
C708 C706 1.327 . S
C708 C727 1.429 . S
C708 H732 0.950 . S
C709 C726 1.574 . S
C709 C728 1.368 . S
C709 H733 0.949 . S
H710 C714 0.949 . S
C711 C712 1.349 . S
C711 C713 1.327 . S
C711 H734 0.950 . S
C712 C711 1.349 . S
C712 C724 1.349 . S
C713 C711 1.327 . S
C713 C729 1.429 . S
C713 H735 0.950 . S
C714 H710 0.949 . S
C714 C722 1.574 . S
C714 C730 1.368 . S
H715 C723 0.950 . S
H716 C721 0.950 . S
H717 C722 0.949 . S
H718 C724 0.950 . S
H719 C725 0.950 . S
H720 C726 0.949 . S
C721 H716 0.950 . S
C721 C723 1.327 . S
C721 C727 1.429 . S
C722 C714 1.574 . S
C722 H717 0.949 . S
C722 C728 1.368 . S
C723 C707 1.349 . S
C723 H715 0.950 . S
C723 C721 1.327 . S
C724 C712 1.349 . S
C724 H718 0.950 . S
C724 C725 1.327 . S
C725 H719 0.950 . S
C725 C724 1.327 . S
C725 C729 1.429 . S
C726 C709 1.574 . S
C726 H720 0.949 . S
C726 C730 1.368 . S
C727 C708 1.429 . S
C727 C721 1.429 . S
C727 C728 1.523 . S
C728 C709 1.368 . S
C728 C722 1.368 . S
C728 C727 1.523 . S
C729 C713 1.429 . S
C729 C725 1.429 . S
C729 C730 1.523 . S
C730 C714 1.368 . S
C730 C726 1.368 . S
C730 C729 1.523 . S
H731 C706 0.950 . S
H732 C708 0.950 . S
H733 C709 0.949 . S
H734 C711 0.950 . S
H735 C713 0.950 . S
C736 C737 1.349 1_545 S
C736 C738 1.327 . S
C736 H761 0.950 . S
C737 C736 1.349 1_565 S
C737 C753 1.349 . S
C738 C736 1.327 . S
C738 C757 1.429 . S
C738 H762 0.950 . S
C739 C756 1.574 . S
C739 C758 1.368 . S
C739 H763 0.949 . S
H740 C744 0.949 . S
C741 C742 1.349 . S
C741 C743 1.327 . S
C741 H764 0.950 . S
C742 C741 1.349 . S
C742 C754 1.349 . S
C743 C741 1.327 . S
C743 C759 1.429 . S
C743 H765 0.950 . S
C744 H740 0.949 . S
C744 C752 1.574 . S
C744 C760 1.368 . S
H745 C753 0.950 . S
H746 C751 0.950 . S
H747 C752 0.949 . S
H748 C754 0.950 . S
H749 C755 0.950 . S
H750 C756 0.949 . S
C751 H746 0.950 . S
C751 C753 1.327 . S
C751 C757 1.429 1_565 S
C752 C744 1.574 . S
C752 H747 0.949 . S
C752 C758 1.368 . S
C753 C737 1.349 . S
C753 H745 0.950 . S
C753 C751 1.327 . S
C754 C742 1.349 . S
C754 H748 0.950 . S
C754 C755 1.327 . S
C755 H749 0.950 . S
C755 C754 1.327 . S
C755 C759 1.429 . S
C756 C739 1.574 . S
C756 H750 0.949 . S
C756 C760 1.368 . S
C757 C738 1.429 . S
C757 C751 1.429 1_545 S
C757 C758 1.523 . S
C758 C739 1.368 . S
C758 C752 1.368 . S
C758 C757 1.523 . S
C759 C743 1.429 . S
C759 C755 1.429 . S
C759 C760 1.523 . S
C760 C744 1.368 . S
C760 C756 1.368 . S
C760 C759 1.523 . S
H761 C736 0.950 . S
H762 C738 0.950 . S
H763 C739 0.949 . S
H764 C741 0.950 . S
H765 C743 0.950 . S
C766 C767 1.349 . S
C766 C768 1.327 1_545 S
C766 H791 0.950 . S
C767 C766 1.349 . S
C767 C783 1.349 . S
C768 C766 1.327 1_565 S
C768 C787 1.429 . S
C768 H792 0.950 . S
C769 C786 1.574 . S
C769 C788 1.368 . S
C769 H793 0.949 . S
H770 C774 0.949 . S
C771 C772 1.349 . S
C771 C773 1.327 . S
C771 H794 0.950 . S
C772 C771 1.349 . S
C772 C784 1.349 . S
C773 C771 1.327 . S
C773 C789 1.429 . S
C773 H795 0.950 . S
C774 H770 0.949 . S
C774 C782 1.574 . S
C774 C790 1.368 . S
H775 C783 0.950 . S
H776 C781 0.950 . S
H777 C782 0.949 . S
H778 C784 0.950 . S
H779 C785 0.950 . S
H780 C786 0.949 . S
C781 H776 0.950 . S
C781 C783 1.327 1_565 S
C781 C787 1.429 . S
C782 C774 1.574 . S
C782 H777 0.949 . S
C782 C788 1.368 . S
C783 C767 1.349 . S
C783 H775 0.950 . S
C783 C781 1.327 1_545 S
C784 C772 1.349 . S
C784 H778 0.950 . S
C784 C785 1.327 . S
C785 H779 0.950 . S
C785 C784 1.327 . S
C785 C789 1.429 . S
C786 C769 1.574 . S
C786 H780 0.949 . S
C786 C790 1.368 . S
C787 C768 1.429 . S
C787 C781 1.429 . S
C787 C788 1.523 . S
C788 C769 1.368 . S
C788 C782 1.368 . S
C788 C787 1.523 . S
C789 C773 1.429 . S
C789 C785 1.429 . S
C789 C790 1.523 . S
C790 C774 1.368 . S
C790 C786 1.368 . S
C790 C789 1.523 . S
H791 C766 0.950 . S
H792 C768 0.950 . S
H793 C769 0.949 . S
H794 C771 0.950 . S
H795 C773 0.950 . S
C796 C797 1.349 . S
C796 C798 1.327 . S
C796 H821 0.950 . S
C797 C796 1.349 . S
C797 C813 1.349 1_565 S
C798 C796 1.327 . S
C798 C817 1.429 1_565 S
C798 H822 0.950 . S
C799 C816 1.574 . S
C799 C818 1.368 . S
C799 H823 0.949 . S
H800 C804 0.949 . S
C801 C802 1.349 . S
C801 C803 1.327 . S
C801 H824 0.950 . S
C802 C801 1.349 . S
C802 C814 1.349 . S
C803 C801 1.327 . S
C803 C819 1.429 . S
C803 H825 0.950 . S
C804 H800 0.949 . S
C804 C812 1.574 . S
C804 C820 1.368 . S
H805 C813 0.950 . S
H806 C811 0.950 . S
H807 C812 0.949 . S
H808 C814 0.950 . S
H809 C815 0.950 . S
H810 C816 0.949 . S
C811 H806 0.950 . S
C811 C813 1.327 . S
C811 C817 1.429 . S
C812 C804 1.574 . S
C812 H807 0.949 . S
C812 C818 1.368 . S
C813 C797 1.349 1_545 S
C813 H805 0.950 . S
C813 C811 1.327 . S
C814 C802 1.349 . S
C814 H808 0.950 . S
C814 C815 1.327 . S
C815 H809 0.950 . S
C815 C814 1.327 . S
C815 C819 1.429 . S
C816 C799 1.574 . S
C816 H810 0.949 . S
C816 C820 1.368 . S
C817 C798 1.429 1_545 S
C817 C811 1.429 . S
C817 C818 1.523 . S
C818 C799 1.368 . S
C818 C812 1.368 . S
C818 C817 1.523 . S
C819 C803 1.429 . S
C819 C815 1.429 . S
C819 C820 1.523 . S
C820 C804 1.368 . S
C820 C816 1.368 . S
C820 C819 1.523 . S
H821 C796 0.950 . S
H822 C798 0.950 . S
H823 C799 0.949 . S
H824 C801 0.950 . S
H825 C803 0.950 . S
C826 C827 1.349 . S
C826 C828 1.327 . S
C826 H851 0.950 . S
C827 C826 1.349 . S
C827 C843 1.349 1_545 S
C828 C826 1.327 . S
C828 C847 1.429 1_545 S
C828 H852 0.950 . S
C829 C846 1.574 . S
C829 C848 1.368 . S
C829 H853 0.949 . S
H830 C834 0.949 . S
C831 C832 1.349 . S
C831 C833 1.327 . S
C831 H854 0.950 . S
C832 C831 1.349 . S
C832 C844 1.349 . S
C833 C831 1.327 . S
C833 C849 1.429 . S
C833 H855 0.950 . S
C834 H830 0.949 . S
C834 C842 1.574 . S
C834 C850 1.368 . S
H835 C843 0.950 . S
H836 C841 0.950 . S
H837 C842 0.949 . S
H838 C844 0.950 . S
H839 C845 0.950 . S
H840 C846 0.949 . S
C841 H836 0.950 . S
C841 C843 1.327 . S
C841 C847 1.429 . S
C842 C834 1.574 . S
C842 H837 0.949 . S
C842 C848 1.368 . S
C843 C827 1.349 1_565 S
C843 H835 0.950 . S
C843 C841 1.327 . S
C844 C832 1.349 . S
C844 H838 0.950 . S
C844 C845 1.327 . S
C845 H839 0.950 . S
C845 C844 1.327 . S
C845 C849 1.429 . S
C846 C829 1.574 . S
C846 H840 0.949 . S
C846 C850 1.368 . S
C847 C828 1.429 1_565 S
C847 C841 1.429 . S
C847 C848 1.523 . S
C848 C829 1.368 . S
C848 C842 1.368 . S
C848 C847 1.523 . S
C849 C833 1.429 . S
C849 C845 1.429 . S
C849 C850 1.523 . S
C850 C834 1.368 . S
C850 C846 1.368 . S
C850 C849 1.523 . S
H851 C826 0.950 . S
H852 C828 0.950 . S
H853 C829 0.949 . S
H854 C831 0.950 . S
H855 C833 0.950 . S
C856 C857 1.349 . S
C856 C858 1.327 . S
C856 H881 0.950 . S
C857 C856 1.349 . S
C857 C873 1.349 . S
C858 C856 1.327 . S
C858 C877 1.429 . S
C858 H882 0.950 . S
C859 C876 1.574 . S
C859 C878 1.368 . S
C859 H883 0.949 . S
H860 C864 0.949 . S
C861 C862 1.349 . S
C861 C863 1.327 . S
C861 H884 0.950 . S
C862 C861 1.349 . S
C862 C874 1.349 . S
C863 C861 1.327 . S
C863 C879 1.429 . S
C863 H885 0.950 . S
C864 H860 0.949 . S
C864 C872 1.574 . S
C864 C880 1.368 . S
H865 C873 0.950 . S
H866 C871 0.950 . S
H867 C872 0.949 . S
H868 C874 0.950 . S
H869 C875 0.950 . S
H870 C876 0.949 . S
C871 H866 0.950 . S
C871 C873 1.327 . S
C871 C877 1.429 . S
C872 C864 1.574 . S
C872 H867 0.949 . S
C872 C878 1.368 . S
C873 C857 1.349 . S
C873 H865 0.950 . S
C873 C871 1.327 . S
C874 C862 1.349 . S
C874 H868 0.950 . S
C874 C875 1.327 . S
C875 H869 0.950 . S
C875 C874 1.327 . S
C875 C879 1.429 . S
C876 C859 1.574 . S
C876 H870 0.949 . S
C876 C880 1.368 . S
C877 C858 1.429 . S
C877 C871 1.429 . S
C877 C878 1.523 . S
C878 C859 1.368 . S
C878 C872 1.368 . S
C878 C877 1.523 . S
C879 C863 1.429 . S
C879 C875 1.429 . S
C879 C880 1.523 . S
C880 C864 1.368 . S
C880 C876 1.368 . S
C880 C879 1.523 . S
H881 C856 0.950 . S
H882 C858 0.950 . S
H883 C859 0.949 . S
H884 C861 0.950 . S
H885 C863 0.950 . S
C886 C887 1.349 . S
C886 C888 1.327 . S
C886 H911 0.950 . S
C887 C886 1.349 . S
C887 C903 1.349 . S
C888 C886 1.327 . S
C888 C907 1.429 . S
C888 H912 0.950 . S
C889 C906 1.574 . S
C889 C908 1.368 . S
C889 H913 0.949 . S
H890 C894 0.949 . S
C891 C892 1.349 . S
C891 C893 1.327 . S
C891 H914 0.950 . S
C892 C891 1.349 . S
C892 C904 1.349 . S
C893 C891 1.327 . S
C893 C909 1.429 . S
C893 H915 0.950 . S
C894 H890 0.949 . S
C894 C902 1.574 . S
C894 C910 1.368 . S
H895 C903 0.950 . S
H896 C901 0.950 . S
H897 C902 0.949 . S
H898 C904 0.950 . S
H899 C905 0.950 . S
H900 C906 0.949 . S
C901 H896 0.950 . S
C901 C903 1.327 . S
C901 C907 1.429 . S
C902 C894 1.574 . S
C902 H897 0.949 . S
C902 C908 1.368 . S
C903 C887 1.349 . S
C903 H895 0.950 . S
C903 C901 1.327 . S
C904 C892 1.349 . S
C904 H898 0.950 . S
C904 C905 1.327 . S
C905 H899 0.950 . S
C905 C904 1.327 . S
C905 C909 1.429 . S
C906 C889 1.574 . S
C906 H900 0.949 . S
C906 C910 1.368 . S
C907 C888 1.429 . S
C907 C901 1.429 . S
C907 C908 1.523 . S
C908 C889 1.368 . S
C908 C902 1.368 . S
C908 C907 1.523 . S
C909 C893 1.429 . S
C909 C905 1.429 . S
C909 C910 1.523 . S
C910 C894 1.368 . S
C910 C906 1.368 . S
C910 C909 1.523 . S
H911 C886 0.950 . S
H912 C888 0.950 . S
H913 C889 0.949 . S
H914 C891 0.950 . S
H915 C893 0.950 . S
C916 C917 1.349 . S
C916 C918 1.327 . S
C916 H941 0.950 . S
C917 C916 1.349 . S
C917 C933 1.349 . S
C918 C916 1.327 . S
C918 C937 1.429 . S
C918 H942 0.950 . S
C919 C936 1.574 . S
C919 C938 1.368 . S
C919 H943 0.949 . S
H920 C924 0.949 . S
C921 C922 1.349 . S
C921 C923 1.327 . S
C921 H944 0.950 . S
C922 C921 1.349 . S
C922 C934 1.349 . S
C923 C921 1.327 . S
C923 C939 1.429 . S
C923 H945 0.950 . S
C924 H920 0.949 . S
C924 C932 1.574 . S
C924 C940 1.368 . S
H925 C933 0.950 . S
H926 C931 0.950 . S
H927 C932 0.949 . S
H928 C934 0.950 . S
H929 C935 0.950 . S
H930 C936 0.949 . S
C931 H926 0.950 . S
C931 C933 1.327 . S
C931 C937 1.429 . S
C932 C924 1.574 . S
C932 H927 0.949 . S
C932 C938 1.368 . S
C933 C917 1.349 . S
C933 H925 0.950 . S
C933 C931 1.327 . S
C934 C922 1.349 . S
C934 H928 0.950 . S
C934 C935 1.327 . S
C935 H929 0.950 . S
C935 C934 1.327 . S
C935 C939 1.429 . S
C936 C919 1.574 . S
C936 H930 0.949 . S
C936 C940 1.368 . S
C937 C918 1.429 . S
C937 C931 1.429 . S
C937 C938 1.523 . S
C938 C919 1.368 . S
C938 C932 1.368 . S
C938 C937 1.523 . S
C939 C923 1.429 . S
C939 C935 1.429 . S
C939 C940 1.523 . S
C940 C924 1.368 . S
C940 C936 1.368 . S
C940 C939 1.523 . S
H941 C916 0.950 . S
H942 C918 0.950 . S
H943 C919 0.949 . S
H944 C921 0.950 . S
H945 C923 0.950 . S
C946 C947 1.349 . S
C946 C948 1.327 . S
C946 H971 0.950 . S
C947 C946 1.349 . S
C947 C963 1.349 . S
C948 C946 1.327 . S
C948 C967 1.429 . S
C948 H972 0.950 . S
C949 C966 1.574 . S
C949 C968 1.368 . S
C949 H973 0.949 . S
H950 C954 0.949 . S
C951 C952 1.349 . S
C951 C953 1.327 . S
C951 H974 0.950 . S
C952 C951 1.349 . S
C952 C964 1.349 . S
C953 C951 1.327 . S
C953 C969 1.429 . S
C953 H975 0.950 . S
C954 H950 0.949 . S
C954 C962 1.574 . S
C954 C970 1.368 . S
H955 C963 0.950 . S
H956 C961 0.950 . S
H957 C962 0.949 . S
H958 C964 0.950 . S
H959 C965 0.950 . S
H960 C966 0.949 . S
C961 H956 0.950 . S
C961 C963 1.327 . S
C961 C967 1.429 . S
C962 C954 1.574 . S
C962 H957 0.949 . S
C962 C968 1.368 . S
C963 C947 1.349 . S
C963 H955 0.950 . S
C963 C961 1.327 . S
C964 C952 1.349 . S
C964 H958 0.950 . S
C964 C965 1.327 . S
C965 H959 0.950 . S
C965 C964 1.327 . S
C965 C969 1.429 . S
C966 C949 1.574 . S
C966 H960 0.949 . S
C966 C970 1.368 . S
C967 C948 1.429 . S
C967 C961 1.429 . S
C967 C968 1.523 . S
C968 C949 1.368 . S
C968 C962 1.368 . S
C968 C967 1.523 . S
C969 C953 1.429 . S
C969 C965 1.429 . S
C969 C970 1.523 . S
C970 C954 1.368 . S
C970 C966 1.368 . S
C970 C969 1.523 . S
H971 C946 0.950 . S
H972 C948 0.950 . S
H973 C949 0.949 . S
H974 C951 0.950 . S
H975 C953 0.950 . S
C976 C977 1.349 . S
C976 C978 1.327 . S
C976 H1001 0.950 . S
C977 C976 1.349 . S
C977 C993 1.349 . S
C978 C976 1.327 . S
C978 C997 1.429 . S
C978 H1002 0.950 . S
C979 C996 1.574 . S
C979 C998 1.368 . S
C979 H1003 0.949 . S
H980 C984 0.949 . S
C981 C982 1.349 . S
C981 C983 1.327 . S
C981 H1004 0.950 . S
C982 C981 1.349 . S
C982 C994 1.349 . S
C983 C981 1.327 . S
C983 C999 1.429 . S
C983 H1005 0.950 . S
C984 H980 0.949 . S
C984 C992 1.574 . S
C984 C1000 1.368 . S
H985 C993 0.950 . S
H986 C991 0.950 . S
H987 C992 0.949 . S
H988 C994 0.950 . S
H989 C995 0.950 . S
H990 C996 0.949 . S
C991 H986 0.950 . S
C991 C993 1.327 . S
C991 C997 1.429 . S
C992 C984 1.574 . S
C992 H987 0.949 . S
C992 C998 1.368 . S
C993 C977 1.349 . S
C993 H985 0.950 . S
C993 C991 1.327 . S
C994 C982 1.349 . S
C994 H988 0.950 . S
C994 C995 1.327 . S
C995 H989 0.950 . S
C995 C994 1.327 . S
C995 C999 1.429 . S
C996 C979 1.574 . S
C996 H990 0.949 . S
C996 C1000 1.368 . S
C997 C978 1.429 . S
C997 C991 1.429 . S
C997 C998 1.523 . S
C998 C979 1.368 . S
C998 C992 1.368 . S
C998 C997 1.523 . S
C999 C983 1.429 . S
C999 C995 1.429 . S
C999 C1000 1.523 . S
C1000 C984 1.368 . S
C1000 C996 1.368 . S
C1000 C999 1.523 . S
H1001 C976 0.950 . S
H1002 C978 0.950 . S
H1003 C979 0.949 . S
H1004 C981 0.950 . S
H1005 C983 0.950 . S
C1006 C1007 1.349 . S
C1006 C1008 1.327 . S
C1006 H1031 0.950 . S
C1007 C1006 1.349 . S
C1007 C1023 1.349 . S
C1008 C1006 1.327 . S
C1008 C1027 1.429 . S
C1008 H1032 0.950 . S
C1009 C1026 1.574 . S
C1009 C1028 1.368 . S
C1009 H1033 0.949 . S
H1010 C1014 0.949 . S
C1011 C1012 1.349 . S
C1011 C1013 1.327 . S
C1011 H1034 0.950 . S
C1012 C1011 1.349 . S
C1012 C1024 1.349 . S
C1013 C1011 1.327 . S
C1013 C1029 1.429 . S
C1013 H1035 0.950 . S
C1014 H1010 0.949 . S
C1014 C1022 1.574 . S
C1014 C1030 1.368 . S
H1015 C1023 0.950 . S
H1016 C1021 0.950 . S
H1017 C1022 0.949 . S
H1018 C1024 0.950 . S
H1019 C1025 0.950 . S
H1020 C1026 0.949 . S
C1021 H1016 0.950 . S
C1021 C1023 1.327 . S
C1021 C1027 1.429 . S
C1022 C1014 1.574 . S
C1022 H1017 0.949 . S
C1022 C1028 1.368 . S
C1023 C1007 1.349 . S
C1023 H1015 0.950 . S
C1023 C1021 1.327 . S
C1024 C1012 1.349 . S
C1024 H1018 0.950 . S
C1024 C1025 1.327 . S
C1025 H1019 0.950 . S
C1025 C1024 1.327 . S
C1025 C1029 1.429 . S
C1026 C1009 1.574 . S
C1026 H1020 0.949 . S
C1026 C1030 1.368 . S
C1027 C1008 1.429 . S
C1027 C1021 1.429 . S
C1027 C1028 1.523 . S
C1028 C1009 1.368 . S
C1028 C1022 1.368 . S
C1028 C1027 1.523 . S
C1029 C1013 1.429 . S
C1029 C1025 1.429 . S
C1029 C1030 1.523 . S
C1030 C1014 1.368 . S
C1030 C1026 1.368 . S
C1030 C1029 1.523 . S
H1031 C1006 0.950 . S
H1032 C1008 0.950 . S
H1033 C1009 0.949 . S
H1034 C1011 0.950 . S
H1035 C1013 0.950 . S
C1036 C1037 1.349 . S
C1036 C1038 1.327 . S
C1036 H1061 0.950 . S
C1037 C1036 1.349 . S
C1037 C1053 1.349 . S
C1038 C1036 1.327 . S
C1038 C1057 1.429 . S
C1038 H1062 0.950 . S
C1039 C1056 1.574 . S
C1039 C1058 1.368 . S
C1039 H1063 0.949 . S
H1040 C1044 0.949 . S
C1041 C1042 1.349 . S
C1041 C1043 1.327 . S
C1041 H1064 0.950 . S
C1042 C1041 1.349 . S
C1042 C1054 1.349 . S
C1043 C1041 1.327 . S
C1043 C1059 1.429 . S
C1043 H1065 0.950 . S
C1044 H1040 0.949 . S
C1044 C1052 1.574 . S
C1044 C1060 1.368 . S
H1045 C1053 0.950 . S
H1046 C1051 0.950 . S
H1047 C1052 0.949 . S
H1048 C1054 0.950 . S
H1049 C1055 0.950 . S
H1050 C1056 0.949 . S
C1051 H1046 0.950 . S
C1051 C1053 1.327 . S
C1051 C1057 1.429 . S
C1052 C1044 1.574 . S
C1052 H1047 0.949 . S
C1052 C1058 1.368 . S
C1053 C1037 1.349 . S
C1053 H1045 0.950 . S
C1053 C1051 1.327 . S
C1054 C1042 1.349 . S
C1054 H1048 0.950 . S
C1054 C1055 1.327 . S
C1055 H1049 0.950 . S
C1055 C1054 1.327 . S
C1055 C1059 1.429 . S
C1056 C1039 1.574 . S
C1056 H1050 0.949 . S
C1056 C1060 1.368 . S
C1057 C1038 1.429 . S
C1057 C1051 1.429 . S
C1057 C1058 1.523 . S
C1058 C1039 1.368 . S
C1058 C1052 1.368 . S
C1058 C1057 1.523 . S
C1059 C1043 1.429 . S
C1059 C1055 1.429 . S
C1059 C1060 1.523 . S
C1060 C1044 1.368 . S
C1060 C1056 1.368 . S
C1060 C1059 1.523 . S
H1061 C1036 0.950 . S
H1062 C1038 0.950 . S
H1063 C1039 0.949 . S
H1064 C1041 0.950 . S
H1065 C1043 0.950 . S
C1066 C1067 1.349 . S
C1066 C1068 1.327 . S
C1066 H1091 0.950 . S
C1067 C1066 1.349 . S
C1067 C1083 1.349 . S
C1068 C1066 1.327 . S
C1068 C1087 1.429 . S
C1068 H1092 0.950 . S
C1069 C1086 1.574 . S
C1069 C1088 1.368 . S
C1069 H1093 0.949 . S
H1070 C1074 0.949 . S
C1071 C1072 1.349 . S
C1071 C1073 1.327 . S
C1071 H1094 0.950 . S
C1072 C1071 1.349 . S
C1072 C1084 1.349 . S
C1073 C1071 1.327 . S
C1073 C1089 1.429 . S
C1073 H1095 0.950 . S
C1074 H1070 0.949 . S
C1074 C1082 1.574 . S
C1074 C1090 1.368 . S
H1075 C1083 0.950 . S
H1076 C1081 0.950 . S
H1077 C1082 0.949 . S
H1078 C1084 0.950 . S
H1079 C1085 0.950 . S
H1080 C1086 0.949 . S
C1081 H1076 0.950 . S
C1081 C1083 1.327 . S
C1081 C1087 1.429 . S
C1082 C1074 1.574 . S
C1082 H1077 0.949 . S
C1082 C1088 1.368 . S
C1083 C1067 1.349 . S
C1083 H1075 0.950 . S
C1083 C1081 1.327 . S
C1084 C1072 1.349 . S
C1084 H1078 0.950 . S
C1084 C1085 1.327 . S
C1085 H1079 0.950 . S
C1085 C1084 1.327 . S
C1085 C1089 1.429 . S
C1086 C1069 1.574 . S
C1086 H1080 0.949 . S
C1086 C1090 1.368 . S
C1087 C1068 1.429 . S
C1087 C1081 1.429 . S
C1087 C1088 1.523 . S
C1088 C1069 1.368 . S
C1088 C1082 1.368 . S
C1088 C1087 1.523 . S
C1089 C1073 1.429 . S
C1089 C1085 1.429 . S
C1089 C1090 1.523 . S
C1090 C1074 1.368 . S
C1090 C1086 1.368 . S
C1090 C1089 1.523 . S
H1091 C1066 0.950 . S
H1092 C1068 0.950 . S
H1093 C1069 0.949 . S
H1094 C1071 0.950 . S
H1095 C1073 0.950 . S
C377 C25 1.523 . S
C382 C331 1.529 . S
C412 C295 1.529 . S
C407 C61 1.523 . S
C442 C318 1.516 . S
C437 C97 1.524 . S
C472 C306 1.516 . S
C467 C133 1.524 . S
C502 C375 1.529 . S
C497 C169 1.523 . S
C532 C339 1.529 . S
C527 C205 1.523 . S
C557 C241 1.524 . S
C562 C362 1.516 . S
C592 C350 1.516 . S
C587 C277 1.524 . S
C617 C31 1.470 . S
C622 C372 1.502 . S
C652 C342 1.502 . S
C647 C67 1.470 . S
C677 C103 1.528 . S
C682 C361 1.533 . S
C707 C139 1.528 . S
C712 C347 1.533 . S
C742 C328 1.502 . S
C737 C175 1.470 . S
C767 C211 1.470 . S
C772 C298 1.502 . S
C802 C317 1.533 . S
C797 C247 1.528 . S
C832 C303 1.533 . S
C827 C283 1.528 . S
C862 C353 1.497 . S
C857 C1 1.487 . S
C892 C369 1.497 . S
C887 C37 1.487 . S
C917 C73 1.461 . S
C922 C340 1.464 . S
C952 C364 1.464 . S
C947 C109 1.461 . S
C982 C309 1.497 . S
C977 C145 1.487 . S
C1007 C181 1.487 . S
C1012 C325 1.497 . S
C1037 C217 1.461 . S
C1042 C296 1.464 . S
C1067 C253 1.461 . S
C1072 C320 1.464 . S
