# Generated by pormake.
# Topology bwt, (3,3)-cn, num edge types: 1
# Building blocks:
#     Node 0, Type 0, BuildingBlock: WUSLED_clean_sbu_0, # of connection points: 3
#     Node 1, Type 0, BuildingBlock: WUSLED_clean_sbu_0, # of connection points: 3
#     Node 2, Type 0, BuildingBlock: WUSLED_clean_sbu_0, # of connection points: 3
#     Node 3, Type 0, BuildingBlock: WUSLED_clean_sbu_0, # of connection points: 3
#     Node 4, Type 0, BuildingBlock: WUSLED_clean_sbu_0, # of connection points: 3
#     Node 5, Type 0, BuildingBlock: WUSLED_clean_sbu_0, # of connection points: 3
#     Node 6, Type 0, BuildingBlock: WUSLED_clean_sbu_0, # of connection points: 3
#     Node 7, Type 0, BuildingBlock: WUSLED_clean_sbu_0, # of connection points: 3
#     Node 8, Type 0, BuildingBlock: WUSLED_clean_sbu_0, # of connection points: 3
#     Node 9, Type 0, BuildingBlock: WUSLED_clean_sbu_0, # of connection points: 3
#     Node 10, Type 0, BuildingBlock: WUSLED_clean_sbu_0, # of connection points: 3
#     Node 11, Type 0, BuildingBlock: WUSLED_clean_sbu_0, # of connection points: 3
#     Node 12, Type 0, BuildingBlock: WUSLED_clean_sbu_0, # of connection points: 3
#     Node 13, Type 0, BuildingBlock: WUSLED_clean_sbu_0, # of connection points: 3
#     Node 14, Type 0, BuildingBlock: WUSLED_clean_sbu_0, # of connection points: 3
#     Node 15, Type 0, BuildingBlock: WUSLED_clean_sbu_0, # of connection points: 3
#     Node 16, Type 0, BuildingBlock: WUSLED_clean_sbu_0, # of connection points: 3
#     Node 17, Type 0, BuildingBlock: WUSLED_clean_sbu_0, # of connection points: 3
#     Node 18, Type 0, BuildingBlock: WUSLED_clean_sbu_0, # of connection points: 3
#     Node 19, Type 0, BuildingBlock: WUSLED_clean_sbu_0, # of connection points: 3
#     Node 20, Type 0, BuildingBlock: WUSLED_clean_sbu_0, # of connection points: 3
#     Node 21, Type 0, BuildingBlock: WUSLED_clean_sbu_0, # of connection points: 3
#     Node 22, Type 0, BuildingBlock: WUSLED_clean_sbu_0, # of connection points: 3
#     Node 23, Type 0, BuildingBlock: WUSLED_clean_sbu_0, # of connection points: 3
#     Node 24, Type 1, BuildingBlock: BETDIP_clean_linker_0, # of connection points: 3
#     Node 25, Type 1, BuildingBlock: BETDIP_clean_linker_0, # of connection points: 3
#     Node 26, Type 1, BuildingBlock: BETDIP_clean_linker_0, # of connection points: 3
#     Node 27, Type 1, BuildingBlock: BETDIP_clean_linker_0, # of connection points: 3
#     Node 28, Type 1, BuildingBlock: BETDIP_clean_linker_0, # of connection points: 3
#     Node 29, Type 1, BuildingBlock: BETDIP_clean_linker_0, # of connection points: 3
#     Node 30, Type 1, BuildingBlock: BETDIP_clean_linker_0, # of connection points: 3
#     Node 31, Type 1, BuildingBlock: BETDIP_clean_linker_0, # of connection points: 3
#     Node 32, Type 1, BuildingBlock: BETDIP_clean_linker_0, # of connection points: 3
#     Node 33, Type 1, BuildingBlock: BETDIP_clean_linker_0, # of connection points: 3
#     Node 34, Type 1, BuildingBlock: BETDIP_clean_linker_0, # of connection points: 3
#     Node 35, Type 1, BuildingBlock: BETDIP_clean_linker_0, # of connection points: 3
#     Node 36, Type 1, BuildingBlock: BETDIP_clean_linker_0, # of connection points: 3
#     Node 37, Type 1, BuildingBlock: BETDIP_clean_linker_0, # of connection points: 3
#     Node 38, Type 1, BuildingBlock: BETDIP_clean_linker_0, # of connection points: 3
#     Node 39, Type 1, BuildingBlock: BETDIP_clean_linker_0, # of connection points: 3
#     Node 40, Type 1, BuildingBlock: BETDIP_clean_linker_0, # of connection points: 3
#     Node 41, Type 1, BuildingBlock: BETDIP_clean_linker_0, # of connection points: 3
#     Node 42, Type 1, BuildingBlock: BETDIP_clean_linker_0, # of connection points: 3
#     Node 43, Type 1, BuildingBlock: BETDIP_clean_linker_0, # of connection points: 3
#     Node 44, Type 1, BuildingBlock: BETDIP_clean_linker_0, # of connection points: 3
#     Node 45, Type 1, BuildingBlock: BETDIP_clean_linker_0, # of connection points: 3
#     Node 46, Type 1, BuildingBlock: BETDIP_clean_linker_0, # of connection points: 3
#     Node 47, Type 1, BuildingBlock: BETDIP_clean_linker_0, # of connection points: 3
#     Edge 48, Type (0, 1), BuildingBlock: EZIPEK_clean_linker_0, # of connection points: 2
#     Edge 49, Type (0, 1), BuildingBlock: EZIPEK_clean_linker_0, # of connection points: 2
#     Edge 50, Type (0, 1), BuildingBlock: EZIPEK_clean_linker_0, # of connection points: 2
#     Edge 51, Type (0, 1), BuildingBlock: EZIPEK_clean_linker_0, # of connection points: 2
#     Edge 52, Type (0, 1), BuildingBlock: EZIPEK_clean_linker_0, # of connection points: 2
#     Edge 53, Type (0, 1), BuildingBlock: EZIPEK_clean_linker_0, # of connection points: 2
#     Edge 54, Type (0, 1), BuildingBlock: EZIPEK_clean_linker_0, # of connection points: 2
#     Edge 55, Type (0, 1), BuildingBlock: EZIPEK_clean_linker_0, # of connection points: 2
#     Edge 56, Type (0, 1), BuildingBlock: EZIPEK_clean_linker_0, # of connection points: 2
#     Edge 57, Type (0, 1), BuildingBlock: EZIPEK_clean_linker_0, # of connection points: 2
#     Edge 58, Type (0, 1), BuildingBlock: EZIPEK_clean_linker_0, # of connection points: 2
#     Edge 59, Type (0, 1), BuildingBlock: EZIPEK_clean_linker_0, # of connection points: 2
#     Edge 60, Type (0, 1), BuildingBlock: EZIPEK_clean_linker_0, # of connection points: 2
#     Edge 61, Type (0, 1), BuildingBlock: EZIPEK_clean_linker_0, # of connection points: 2
#     Edge 62, Type (0, 1), BuildingBlock: EZIPEK_clean_linker_0, # of connection points: 2
#     Edge 63, Type (0, 1), BuildingBlock: EZIPEK_clean_linker_0, # of connection points: 2
#     Edge 64, Type (0, 1), BuildingBlock: EZIPEK_clean_linker_0, # of connection points: 2
#     Edge 65, Type (0, 1), BuildingBlock: EZIPEK_clean_linker_0, # of connection points: 2
#     Edge 66, Type (0, 1), BuildingBlock: EZIPEK_clean_linker_0, # of connection points: 2
#     Edge 67, Type (0, 1), BuildingBlock: EZIPEK_clean_linker_0, # of connection points: 2
#     Edge 68, Type (0, 1), BuildingBlock: EZIPEK_clean_linker_0, # of connection points: 2
#     Edge 69, Type (0, 1), BuildingBlock: EZIPEK_clean_linker_0, # of connection points: 2
#     Edge 70, Type (0, 1), BuildingBlock: EZIPEK_clean_linker_0, # of connection points: 2
#     Edge 71, Type (0, 1), BuildingBlock: EZIPEK_clean_linker_0, # of connection points: 2
#     Edge 72, Type (0, 1), BuildingBlock: EZIPEK_clean_linker_0, # of connection points: 2
#     Edge 73, Type (0, 1), BuildingBlock: EZIPEK_clean_linker_0, # of connection points: 2
#     Edge 74, Type (0, 1), BuildingBlock: EZIPEK_clean_linker_0, # of connection points: 2
#     Edge 75, Type (0, 1), BuildingBlock: EZIPEK_clean_linker_0, # of connection points: 2
#     Edge 76, Type (0, 1), BuildingBlock: EZIPEK_clean_linker_0, # of connection points: 2
#     Edge 77, Type (0, 1), BuildingBlock: EZIPEK_clean_linker_0, # of connection points: 2
#     Edge 78, Type (0, 1), BuildingBlock: EZIPEK_clean_linker_0, # of connection points: 2
#     Edge 79, Type (0, 1), BuildingBlock: EZIPEK_clean_linker_0, # of connection points: 2
#     Edge 80, Type (0, 1), BuildingBlock: EZIPEK_clean_linker_0, # of connection points: 2
#     Edge 81, Type (0, 1), BuildingBlock: EZIPEK_clean_linker_0, # of connection points: 2
#     Edge 82, Type (0, 1), BuildingBlock: EZIPEK_clean_linker_0, # of connection points: 2
#     Edge 83, Type (0, 1), BuildingBlock: EZIPEK_clean_linker_0, # of connection points: 2
#     Edge 84, Type (0, 1), BuildingBlock: EZIPEK_clean_linker_0, # of connection points: 2
#     Edge 85, Type (0, 1), BuildingBlock: EZIPEK_clean_linker_0, # of connection points: 2
#     Edge 86, Type (0, 1), BuildingBlock: EZIPEK_clean_linker_0, # of connection points: 2
#     Edge 87, Type (0, 1), BuildingBlock: EZIPEK_clean_linker_0, # of connection points: 2
#     Edge 88, Type (0, 1), BuildingBlock: EZIPEK_clean_linker_0, # of connection points: 2
#     Edge 89, Type (0, 1), BuildingBlock: EZIPEK_clean_linker_0, # of connection points: 2
#     Edge 90, Type (0, 1), BuildingBlock: EZIPEK_clean_linker_0, # of connection points: 2
#     Edge 91, Type (0, 1), BuildingBlock: EZIPEK_clean_linker_0, # of connection points: 2
#     Edge 92, Type (0, 1), BuildingBlock: EZIPEK_clean_linker_0, # of connection points: 2
#     Edge 93, Type (0, 1), BuildingBlock: EZIPEK_clean_linker_0, # of connection points: 2
#     Edge 94, Type (0, 1), BuildingBlock: EZIPEK_clean_linker_0, # of connection points: 2
#     Edge 95, Type (0, 1), BuildingBlock: EZIPEK_clean_linker_0, # of connection points: 2
#     Edge 96, Type (0, 1), BuildingBlock: EZIPEK_clean_linker_0, # of connection points: 2
#     Edge 97, Type (0, 1), BuildingBlock: EZIPEK_clean_linker_0, # of connection points: 2
#     Edge 98, Type (0, 1), BuildingBlock: EZIPEK_clean_linker_0, # of connection points: 2
#     Edge 99, Type (0, 1), BuildingBlock: EZIPEK_clean_linker_0, # of connection points: 2
#     Edge 100, Type (0, 1), BuildingBlock: EZIPEK_clean_linker_0, # of connection points: 2
#     Edge 101, Type (0, 1), BuildingBlock: EZIPEK_clean_linker_0, # of connection points: 2
#     Edge 102, Type (0, 1), BuildingBlock: EZIPEK_clean_linker_0, # of connection points: 2
#     Edge 103, Type (0, 1), BuildingBlock: EZIPEK_clean_linker_0, # of connection points: 2
#     Edge 104, Type (0, 1), BuildingBlock: EZIPEK_clean_linker_0, # of connection points: 2
#     Edge 105, Type (0, 1), BuildingBlock: EZIPEK_clean_linker_0, # of connection points: 2
#     Edge 106, Type (0, 1), BuildingBlock: EZIPEK_clean_linker_0, # of connection points: 2
#     Edge 107, Type (0, 1), BuildingBlock: EZIPEK_clean_linker_0, # of connection points: 2
#     Edge 108, Type (0, 1), BuildingBlock: EZIPEK_clean_linker_0, # of connection points: 2
#     Edge 109, Type (0, 1), BuildingBlock: EZIPEK_clean_linker_0, # of connection points: 2
#     Edge 110, Type (0, 1), BuildingBlock: EZIPEK_clean_linker_0, # of connection points: 2
#     Edge 111, Type (0, 1), BuildingBlock: EZIPEK_clean_linker_0, # of connection points: 2
#     Edge 112, Type (0, 1), BuildingBlock: EZIPEK_clean_linker_0, # of connection points: 2
#     Edge 113, Type (0, 1), BuildingBlock: EZIPEK_clean_linker_0, # of connection points: 2
#     Edge 114, Type (0, 1), BuildingBlock: EZIPEK_clean_linker_0, # of connection points: 2
#     Edge 115, Type (0, 1), BuildingBlock: EZIPEK_clean_linker_0, # of connection points: 2
#     Edge 116, Type (0, 1), BuildingBlock: EZIPEK_clean_linker_0, # of connection points: 2
#     Edge 117, Type (0, 1), BuildingBlock: EZIPEK_clean_linker_0, # of connection points: 2
#     Edge 118, Type (0, 1), BuildingBlock: EZIPEK_clean_linker_0, # of connection points: 2
#     Edge 119, Type (0, 1), BuildingBlock: EZIPEK_clean_linker_0, # of connection points: 2
# Relax obj value: 0.116
# Max RMSD: 0.178
# Mean RMSD: 0.087
data_MOF--net-bwt--node1-WUSLED_clean_sbu_0--node2-BETDIP_clean_linker_0--edge1-EZIPEK_clean_linker_0
_symmetry_space_group_name_H-M    P1
_symmetry_Int_Tables_number       1
_symmetry_cell_setting            triclinic
loop_
_symmetry_equiv_pos_as_xyz
'x, y, z'
_cell_length_a     53.847073
_cell_length_b     53.923439
_cell_length_c     53.932484
_cell_angle_alpha  95.367797
_cell_angle_beta   95.38088
_cell_angle_gamma 95.24504
loop_
_atom_site_label
_atom_site_type_symbol
_atom_site_fract_x
_atom_site_fract_y
_atom_site_fract_z
_atom_type_partial_charge
C0 C 0.33243 0.65129 0.35806 0.0
C1 C 0.35291 0.66393 0.37399 0.0
C2 C 0.38254 0.64801 0.34611 0.0
C3 C 0.3777 0.66234 0.36802 0.0
C4 C 0.36212 0.63546 0.33032 0.0
C5 C 0.33746 0.63712 0.33619 0.0
U6 U 0.27553 0.64208 0.39685 0.0
O7 O 0.24455 0.66554 0.40337 0.0
O8 O 0.2363 0.62757 0.38415 0.0
C9 C 0.22714 0.64808 0.39273 0.0
C10 C 0.30572 0.65341 0.36283 0.0
C11 C 0.20438 0.65564 0.37857 0.0
C12 C 0.18005 0.66435 0.34026 0.0
C13 C 0.20298 0.65961 0.35308 0.0
C14 C 0.15982 0.66142 0.37819 0.0
C15 C 0.15803 0.66471 0.35257 0.0
C16 C 0.18266 0.65706 0.39098 0.0
C17 C 0.29285 0.61038 0.45924 0.0
C18 C 0.28307 0.61139 0.5026 0.0
C19 C 0.30424 0.57732 0.48474 0.0
C20 C 0.30354 0.58786 0.46201 0.0
C21 C 0.29419 0.58904 0.50525 0.0
C22 C 0.28249 0.62209 0.47975 0.0
C23 C 0.29577 0.62206 0.43569 0.0
O24 O 0.29111 0.63229 0.3612 0.0
O25 O 0.30129 0.66948 0.38137 0.0
O26 O 0.29417 0.64624 0.4355 0.0
O27 O 0.28642 0.60894 0.41459 0.0
H28 H 0.34983 0.67516 0.39094 0.0
H29 H 0.3931 0.67227 0.38048 0.0
H30 H 0.36528 0.62436 0.31332 0.0
H31 H 0.32218 0.62739 0.32341 0.0
H32 H 0.17927 0.6669 0.32053 0.0
H33 H 0.21938 0.65854 0.34299 0.0
H34 H 0.14332 0.66162 0.38823 0.0
H35 H 0.18316 0.65402 0.41059 0.0
H36 H 0.27519 0.62069 0.51829 0.0
H37 H 0.31288 0.5601 0.48642 0.0
H38 H 0.31202 0.57866 0.44667 0.0
H39 H 0.27439 0.63962 0.4783 0.0
C40 C 0.20733 0.29699 0.79415 0.0
C41 C 0.19064 0.28442 0.80856 0.0
C42 C 0.15545 0.28867 0.77777 0.0
C43 C 0.16489 0.28013 0.80032 0.0
C44 C 0.17221 0.30055 0.7632 0.0
C45 C 0.1978 0.30449 0.77118 0.0
U46 U 0.26551 0.33126 0.83541 0.0
O47 O 0.29907 0.35069 0.82346 0.0
O48 O 0.30288 0.31847 0.84516 0.0
C49 C 0.31421 0.3354 0.83287 0.0
C50 C 0.23472 0.30204 0.80189 0.0
C51 C 0.33387 0.32786 0.81716 0.0
C52 C 0.35173 0.32865 0.77736 0.0
C53 C 0.33081 0.32816 0.79099 0.0
C54 C 0.37858 0.32558 0.81535 0.0
C55 C 0.37589 0.32871 0.78971 0.0
C56 C 0.35771 0.32531 0.82899 0.0
C57 C 0.25601 0.38109 0.88885 0.0
C58 C 0.28954 0.40798 0.91419 0.0
C59 C 0.24656 0.41803 0.91424 0.0
C60 C 0.23861 0.39673 0.89762 0.0
C61 C 0.27207 0.42394 0.92247 0.0
C62 C 0.28157 0.38669 0.89736 0.0
C63 C 0.24702 0.36037 0.86942 0.0
O64 O 0.24487 0.32425 0.79799 0.0
O65 O 0.24368 0.29468 0.82326 0.0
O66 O 0.25353 0.338 0.87328 0.0
O67 O 0.24875 0.36571 0.84636 0.0
H68 H 0.19736 0.27819 0.82626 0.0
H69 H 0.15222 0.27108 0.81195 0.0
H70 H 0.16535 0.30737 0.74582 0.0
H71 H 0.21018 0.31383 0.75947 0.0
H72 H 0.34928 0.33102 0.75758 0.0
H73 H 0.3126 0.33002 0.78137 0.0
H74 H 0.39708 0.32568 0.82521 0.0
H75 H 0.36054 0.32517 0.84913 0.0
H76 H 0.30933 0.41234 0.92032 0.0
H77 H 0.23287 0.43016 0.92035 0.0
H78 H 0.21887 0.3928 0.89111 0.0
H79 H 0.29532 0.37497 0.8906 0.0
C80 C 0.72495 0.99152 0.64848 0.0
C81 C 0.74346 0.99531 0.63209 0.0
C82 C 0.77582 0.99084 0.66534 0.0
C83 C 0.7688 0.99501 0.64049 0.0
C84 C 0.75732 0.98704 0.68167 0.0
C85 C 0.73201 0.98735 0.67327 0.0
U86 U 0.67681 0.99658 0.59511 0.0
O87 O 0.6411 0.97422 0.58144 0.0
O88 O 0.64204 0.01481 0.59117 0.0
C89 C 0.62802 0.99357 0.58413 0.0
C90 C 0.69832 0.9914 0.63957 0.0
C91 C 0.60415 0.98978 0.59543 0.0
C92 C 0.56728 0.96258 0.6023 0.0
C93 C 0.59116 0.96574 0.59414 0.0
C94 C 0.56905 0.00734 0.61338 0.0
C95 C 0.55622 0.98337 0.61213 0.0
C96 C 0.59273 0.01056 0.60499 0.0
C97 C 0.70125 0.00649 0.53293 0.0
C98 C 0.67427 0.9986 0.49387 0.0
C99 C 0.71845 0.01265 0.49392 0.0
C100 C 0.72156 0.01367 0.51993 0.0
C101 C 0.695 1.00445 0.48083 0.0
C102 C 0.6774 0.99959 0.51994 0.0
C103 C 0.70568 1.00421 0.55967 0.0
O104 O 0.69155 0.01293 0.63313 0.0
O105 O 0.68938 0.97228 0.62328 0.0
O106 O 0.69895 0.98186 0.5661 0.0
O107 O 0.69892 0.02254 0.57455 0.0
H108 H 0.73828 0.99851 0.61283 0.0
H109 H 0.7829 0.99816 0.62775 0.0
H110 H 0.76253 0.98398 0.70095 0.0
H111 H 0.71797 0.98434 0.68609 0.0
H112 H 0.55747 0.94398 0.60105 0.0
H113 H 0.5992 0.94941 0.58637 0.0
H114 H 0.56061 0.02363 0.62067 0.0
H115 H 0.60187 0.02938 0.60562 0.0
H116 H 0.65608 0.99228 0.48383 0.0
H117 H 0.73452 0.0173 0.48394 0.0
H118 H 0.74 0.0191 0.52981 0.0
H119 H 0.66153 0.99406 0.52985 0.0
C120 C 0.77432 0.03359 0.29838 0.0
C121 C 0.74911 0.01861 0.27258 0.0
C122 C 0.70442 0.03289 0.30883 0.0
C123 C 0.71438 0.01815 0.27749 0.0
C124 C 0.72997 0.04856 0.33457 0.0
C125 C 0.76485 0.04834 0.32952 0.0
U126 U 0.81894 0.01949 0.25188 0.0
O127 O 0.855 0.03792 0.24389 0.0
O128 O 0.85218 0.99854 0.25213 0.0
C129 C 0.86661 0.01773 0.2464 0.0
C130 C 0.80064 0.03274 0.29392 0.0
C131 C 0.89264 0.02116 0.25789 0.0
C132 C 0.92635 0.04152 0.28817 0.0
C133 C 0.90078 0.03784 0.27932 0.0
C134 C 0.93543 0.01184 0.25438 0.0
C135 C 0.94376 0.02862 0.27556 0.0
C136 C 0.91008 0.00813 0.24567 0.0
C137 C 0.78777 0.99722 0.18553 0.0
C138 C 0.79818 0.96645 0.15317 0.0
C139 C 0.77037 0.99764 0.1425 0.0
C140 C 0.77304 0.00792 0.1674 0.0
C141 C 0.78235 0.97647 0.13539 0.0
C142 C 0.80098 0.97686 0.17816 0.0
C143 C 0.78714 0.00631 0.21204 0.0
O144 O 0.80675 0.01007 0.28793 0.0
O145 O 0.80889 0.04898 0.27914 0.0
O146 O 0.79633 0.02963 0.21883 0.0
O147 O 0.79324 0.99084 0.2285 0.0
H148 H 0.75452 0.00971 0.25539 0.0
H149 H 0.70054 0.00759 0.26373 0.0
H150 H 0.72474 0.05618 0.3524 0.0
H151 H 0.77914 0.05644 0.34421 0.0
H152 H 0.93259 0.05445 0.30463 0.0
H153 H 0.88753 0.04812 0.28893 0.0
H154 H 0.94862 1.00169 0.24452 0.0
H155 H 0.90411 0.99531 0.22903 0.0
H156 H 0.80741 0.95001 0.14792 0.0
H157 H 0.75798 0.00547 0.12895 0.0
H158 H 0.76274 0.02361 0.17269 0.0
H159 H 0.81264 0.96838 0.1918 0.0
C160 C 0.35974 0.32934 0.65217 0.0
C161 C 0.37906 0.34919 0.65667 0.0
C162 C 0.34885 0.37965 0.64892 0.0
C163 C 0.37362 0.37413 0.65516 0.0
C164 C 0.32966 0.35981 0.64485 0.0
C165 C 0.33504 0.33503 0.64647 0.0
U166 U 0.39791 0.27207 0.64118 0.0
O167 O 0.40263 0.24002 0.66348 0.0
O168 O 0.38465 0.2335 0.62486 0.0
C169 C 0.39235 0.22342 0.6451 0.0
C170 C 0.36432 0.30259 0.65322 0.0
C171 C 0.37775 0.20031 0.65109 0.0
C172 C 0.34251 0.17742 0.66743 0.0
C173 C 0.35553 0.20028 0.66291 0.0
C174 C 0.37379 0.15463 0.64855 0.0
C175 C 0.35145 0.15433 0.66005 0.0
C176 C 0.38671 0.17727 0.64415 0.0
C177 C 0.46162 0.28564 0.61185 0.0
C178 C 0.48345 0.26594 0.57876 0.0
C179 C 0.50532 0.29946 0.60789 0.0
C180 C 0.48373 0.30122 0.62025 0.0
C181 C 0.5053 0.28212 0.58677 0.0
C182 C 0.46181 0.26761 0.59123 0.0
C183 C 0.43812 0.29124 0.62262 0.0
O184 O 0.36289 0.2889 0.63156 0.0
O185 O 0.38275 0.29755 0.66917 0.0
O186 O 0.43709 0.28966 0.64669 0.0
O187 O 0.41683 0.28335 0.60904 0.0
H188 H 0.3983 0.34545 0.66115 0.0
H189 H 0.38875 0.38909 0.65844 0.0
H190 H 0.31044 0.36349 0.64007 0.0
H191 H 0.3198 0.32016 0.64305 0.0
H192 H 0.32537 0.17771 0.67642 0.0
H193 H 0.34821 0.21777 0.66849 0.0
H194 H 0.38116 0.13721 0.64276 0.0
H195 H 0.4038 0.17675 0.63508 0.0
H196 H 0.48299 0.25241 0.56252 0.0
H197 H 0.52185 0.31225 0.61422 0.0
H198 H 0.48401 0.31552 0.63583 0.0
H199 H 0.44505 0.2554 0.5842 0.0
C200 C 0.30697 0.77066 0.02654 0.0
C201 C 0.27842 0.74649 0.01754 0.0
C202 C 0.31389 0.69995 0.02714 0.0
C203 C 0.28176 0.71145 0.01783 0.0
C204 C 0.34251 0.72426 0.03715 0.0
C205 C 0.33914 0.75968 0.03633 0.0
U206 U 0.26137 0.81671 0.01435 0.0
O207 O 0.25443 0.85281 0.03364 0.0
O208 O 0.26144 0.85026 0.99391 0.0
C209 C 0.25627 0.86457 0.01349 0.0
C210 C 0.3033 0.79723 0.02593 0.0
C211 C 0.26718 0.89083 0.01676 0.0
C212 C 0.29752 0.92506 0.03603 0.0
C213 C 0.28921 0.89936 0.03248 0.0
C214 C 0.26194 0.93357 0.00825 0.0
C215 C 0.28378 0.94227 0.02399 0.0
C216 C 0.25376 0.9081 0.00465 0.0
C217 C 0.19443 0.78521 0.99404 0.0
C218 C 0.15967 0.80358 0.97309 0.0
C219 C 0.15332 0.76205 0.98671 0.0
C220 C 0.17842 0.76377 0.99623 0.0
C221 C 0.14386 0.78174 0.97477 0.0
C222 C 0.18492 0.80537 0.98282 0.0
C223 C 0.22115 0.78511 1.00221 0.0
O224 O 0.29674 0.80359 1.00349 0.0
O225 O 0.28933 0.80595 0.04279 0.0
O226 O 0.22861 0.79441 0.02537 0.0
O227 O 0.23671 0.79171 0.98608 0.0
H228 H 0.26028 0.75261 0.01236 0.0
H229 H 0.26521 0.69826 0.01341 0.0
H230 H 0.36061 0.71812 0.04269 0.0
H231 H 0.3553 0.77326 0.04134 0.0
H232 H 0.31446 0.93154 0.04822 0.0
H233 H 0.29973 0.8863 0.0421 0.0
H234 H 0.25113 0.94656 0.99881 0.0
H235 H 0.23662 0.90188 0.99264 0.0
H236 H 0.15262 0.81888 0.96381 0.0
H237 H 0.14138 0.74503 0.98804 0.0
H238 H 0.18551 0.74805 0.00476 0.0
H239 H 0.1971 0.8221 0.98103 0.0
C240 C 0.80764 0.20445 0.30095 0.0
C241 C 0.82648 0.18797 0.30234 0.0
C242 C 0.79468 0.15211 0.29523 0.0
C243 C 0.82001 0.16188 0.29946 0.0
C244 C 0.7761 0.16865 0.29329 0.0
C245 C 0.7825 0.19447 0.2961 0.0
U246 U 0.84108 0.26551 0.33716 0.0
O247 O 0.85007 0.30286 0.32423 0.0
O248 O 0.82393 0.29796 0.35277 0.0
C249 C 0.83474 0.31339 0.33865 0.0
C250 C 0.81295 0.23201 0.30551 0.0
C251 C 0.81916 0.33214 0.32867 0.0
C252 C 0.77783 0.34683 0.32124 0.0
C253 C 0.79305 0.32705 0.32263 0.0
C254 C 0.81483 0.37662 0.32923 0.0
C255 C 0.78861 0.37177 0.32616 0.0
C256 C 0.82996 0.35698 0.33048 0.0
C257 C 0.88974 0.25981 0.39398 0.0
C258 C 0.92368 0.2881 0.41727 0.0
C259 C 0.90206 0.25576 0.4379 0.0
C260 C 0.88695 0.2477 0.41564 0.0
C261 C 0.92042 0.27606 0.43896 0.0
C262 C 0.9084 0.28005 0.39487 0.0
C263 C 0.87303 0.2503 0.37103 0.0
O264 O 0.80551 0.24205 0.32632 0.0
O265 O 0.83492 0.24223 0.30075 0.0
O266 O 0.87935 0.25679 0.34936 0.0
O267 O 0.84894 0.25035 0.37313 0.0
H268 H 0.84603 0.19521 0.30619 0.0
H269 H 0.83459 0.14941 0.30126 0.0
H270 H 0.75646 0.16151 0.29033 0.0
H271 H 0.76767 0.20675 0.29507 0.0
H272 H 0.75763 0.34269 0.31905 0.0
H273 H 0.78428 0.30801 0.32115 0.0
H274 H 0.82352 0.3957 0.33326 0.0
H275 H 0.84998 0.36138 0.33524 0.0
H276 H 0.93776 0.30389 0.41781 0.0
H277 H 0.89924 0.24633 0.45444 0.0
H278 H 0.87284 0.23197 0.41537 0.0
H279 H 0.91104 0.28972 0.37845 0.0
C280 C 0.6419 0.72689 0.99607 0.0
C281 C 0.6259 0.74464 0.9885 0.0
C282 C 0.66119 0.77682 0.99317 0.0
C283 C 0.63551 0.76941 0.98695 0.0
C284 C 0.67707 0.75916 1.00102 0.0
C285 C 0.66748 0.73438 1.00246 0.0
U286 U 0.58657 0.67998 0.99988 0.0
O287 O 0.57392 0.64322 0.97921 0.0
O288 O 0.58073 0.64679 0.0203 0.0
C289 C 0.57381 0.63179 0.99968 0.0
C290 C 0.63205 0.70063 0.99725 0.0
C291 C 0.58275 0.60689 0.9985 0.0
C292 C 0.61498 0.57873 0.99348 0.0
C293 C 0.60755 0.60301 0.99458 0.0
C294 C 0.57285 0.56225 0.99984 0.0
C295 C 0.59766 0.55827 0.99625 0.0
C296 C 0.56552 0.58642 1.0011 0.0
C297 C 0.52342 0.70562 1.00225 0.0
C298 C 0.4834 0.68136 0.98904 0.0
C299 C 0.48491 0.72386 0.00891 0.0
C300 C 0.511 0.72564 0.01152 0.0
C301 C 0.47108 0.70201 0.99702 0.0
C302 C 0.50956 0.68312 0.99173 0.0
C303 C 0.55062 0.70931 1.00195 0.0
O304 O 0.6236 0.69566 0.01854 0.0
O305 O 0.6172 0.69037 0.97749 0.0
O306 O 0.55892 0.70102 0.98089 0.0
O307 O 0.56398 0.70393 0.02203 0.0
H308 H 0.60603 0.73928 0.98364 0.0
H309 H 0.623 0.78278 0.98084 0.0
H310 H 0.69693 0.76457 0.00589 0.0
H311 H 0.68007 0.72103 0.00844 0.0
H312 H 0.63422 0.57589 0.99066 0.0
H313 H 0.62104 0.61865 0.99244 0.0
H314 H 0.55931 0.54667 1.00201 0.0
H315 H 0.54629 0.58916 1.00411 0.0
H316 H 0.47282 0.66445 0.97972 0.0
H317 H 0.4755 0.73992 0.01505 0.0
H318 H 0.52148 0.74302 0.01979 0.0
H319 H 0.51895 0.6674 0.98464 0.0
C320 C 0.66249 0.36437 0.33435 0.0
C321 C 0.64773 0.37753 0.35021 0.0
C322 C 0.656 0.34973 0.38295 0.0
C323 C 0.64454 0.37027 0.37432 0.0
C324 C 0.67111 0.33706 0.36722 0.0
C325 C 0.67434 0.34432 0.34331 0.0
U326 U 0.65564 0.40246 0.27545 0.0
O327 O 0.68355 0.40806 0.24812 0.0
O328 O 0.64646 0.38728 0.23559 0.0
C329 C 0.66853 0.39571 0.22947 0.0
C330 C 0.6653 0.36999 0.30812 0.0
C331 C 0.67586 0.39185 0.20326 0.0
C332 C 0.70804 0.39129 0.17387 0.0
C333 C 0.70115 0.39543 0.19839 0.0
C334 C 0.66457 0.38002 0.15831 0.0
C335 C 0.68986 0.38341 0.15348 0.0
C336 C 0.65768 0.38409 0.18281 0.0
C337 C 0.6216 0.46485 0.28558 0.0
C338 C 0.58776 0.4864 0.26682 0.0
C339 C 0.61657 0.50797 0.30078 0.0
C340 C 0.62947 0.48665 0.30185 0.0
C341 C 0.59538 0.50796 0.28353 0.0
C342 C 0.60077 0.46505 0.26778 0.0
C343 C 0.63274 0.44141 0.29066 0.0
O344 O 0.64482 0.36789 0.29245 0.0
O345 O 0.68108 0.38921 0.3049 0.0
O346 O 0.65729 0.44158 0.29255 0.0
O347 O 0.62086 0.41995 0.2805 0.0
H348 H 0.63835 0.39306 0.34383 0.0
H349 H 0.63267 0.38029 0.38601 0.0
H350 H 0.68001 0.32112 0.37327 0.0
H351 H 0.68579 0.33385 0.33151 0.0
H352 H 0.72764 0.3942 0.17079 0.0
H353 H 0.7157 0.40127 0.21361 0.0
H354 H 0.65008 0.37414 0.14303 0.0
H355 H 0.63804 0.38122 0.18572 0.0
H356 H 0.57146 0.48598 0.25332 0.0
H357 H 0.62263 0.52428 0.31396 0.0
H358 H 0.64506 0.48685 0.31614 0.0
H359 H 0.594 0.44849 0.25519 0.0
C360 C 0.02448 0.29795 0.77864 0.0
C361 C 0.009 0.2741 0.75165 0.0
C362 C 0.03393 0.30863 0.71024 0.0
C363 C 0.01416 0.27921 0.71771 0.0
C364 C 0.04944 0.33268 0.7375 0.0
C365 C 0.0441 0.32741 0.77181 0.0
U366 U 0.01601 0.24816 0.82092 0.0
O367 O 0.03837 0.23987 0.85495 0.0
O368 O 0.99835 0.24528 0.85563 0.0
C369 C 0.01936 0.24127 0.86848 0.0
C370 C 0.0247 0.29173 0.80432 0.0
C371 C 0.02458 0.25358 0.89425 0.0
C372 C 0.00866 0.27439 0.93046 0.0
C373 C 0.00771 0.26905 0.90455 0.0
C374 C 0.045 0.25131 0.93602 0.0
C375 C 0.02648 0.26444 0.94632 0.0
C376 C 0.04391 0.24573 0.9101 0.0
C377 C 0.99471 0.18258 0.78953 0.0
C378 C 0.96714 0.14968 0.80362 0.0
C379 C 0.99394 0.13986 0.77106 0.0
C380 C 1.00361 0.16487 0.77282 0.0
C381 C 0.97515 0.13231 0.7859 0.0
C382 C 0.97703 0.17473 0.80558 0.0
C383 C 1.00252 0.20919 0.78837 0.0
O384 O 1.00278 0.28364 0.81093 0.0
O385 O 0.04266 0.27797 0.81088 0.0
O386 O 0.02615 0.21676 0.79595 0.0
O387 O 0.98682 0.22478 0.79608 0.0
H388 H 0.99789 0.25747 0.7556 0.0
H389 H 1.00367 0.26687 0.7026 0.0
H390 H 0.06071 0.34915 0.73338 0.0
H391 H 0.05235 0.34084 0.7872 0.0
H392 H 0.99438 0.28479 0.93818 0.0
H393 H 0.99268 0.27551 0.89283 0.0
H394 H 0.05895 0.24363 0.94807 0.0
H395 H 0.05704 0.23367 0.9026 0.0
H396 H 0.95252 0.14407 0.81506 0.0
H397 H 1.00016 0.12658 0.75719 0.0
H398 H 0.01726 0.17057 0.76039 0.0
H399 H 0.97008 0.18808 0.81885 0.0
C400 C 0.30479 0.80374 0.19717 0.0
C401 C 0.3008 0.82329 0.18205 0.0
C402 C 0.297 0.79383 0.14423 0.0
C403 C 0.29681 0.81834 0.15575 0.0
C404 C 0.30037 0.77441 0.15945 0.0
C405 C 0.30414 0.77928 0.18551 0.0
U406 U 0.34103 0.83606 0.25904 0.0
O407 O 0.35873 0.81879 0.29049 0.0
O408 O 0.329 0.84318 0.29713 0.0
C409 C 0.34474 0.8285 0.30681 0.0
C410 C 0.30996 0.80776 0.22495 0.0
C411 C 0.33697 0.81283 0.32665 0.0
C412 C 0.34324 0.7766 0.34967 0.0
C413 C 0.3442 0.78845 0.32766 0.0
C414 C 0.32574 0.81219 0.36948 0.0
C415 C 0.33503 0.78881 0.3711 0.0
C416 C 0.32687 0.82415 0.34753 0.0
C417 C 0.39393 0.88885 0.25307 0.0
C418 C 0.41997 0.91607 0.2859 0.0
C419 C 0.43317 0.91062 0.24416 0.0
C420 C 0.41145 0.89459 0.23626 0.0
C421 C 0.43773 0.92132 0.26904 0.0
C422 C 0.39818 0.89983 0.27798 0.0
C423 C 0.3721 0.87067 0.24387 0.0
O424 O 0.33156 0.80114 0.2341 0.0
O425 O 0.30409 0.82865 0.2366 0.0
O426 O 0.35021 0.87514 0.2513 0.0
O427 O 0.3762 0.84702 0.24345 0.0
H428 H 0.30116 0.84238 0.19047 0.0
H429 H 0.29435 0.83364 0.1444 0.0
H430 H 0.30072 0.7554 0.15106 0.0
H431 H 0.30702 0.76386 0.19662 0.0
H432 H 0.35039 0.75852 0.35046 0.0
H433 H 0.35214 0.77913 0.31205 0.0
H434 H 0.3193 0.82194 0.38579 0.0
H435 H 0.32143 0.843 0.34749 0.0
H436 H 0.42326 0.92412 0.30523 0.0
H437 H 0.44666 0.91436 0.23094 0.0
H438 H 0.40851 0.88629 0.21699 0.0
H439 H 0.38495 0.89558 0.2913 0.0
C440 C 0.99083 0.64484 0.72391 0.0
C441 C 0.99105 0.62829 0.74258 0.0
C442 C 0.99294 0.66341 0.77466 0.0
C443 C 0.99211 0.63754 0.76787 0.0
C444 C 0.99278 0.67985 0.75599 0.0
C445 C 0.99175 0.67063 0.7308 0.0
U446 U 0.99311 0.5918 0.67303 0.0
O447 O 0.96985 0.58085 0.63722 0.0
O448 O 0.01064 0.58978 0.63785 0.0
C449 C 0.98914 0.58322 0.62409 0.0
C450 C 0.98963 0.63558 0.69723 0.0
C451 C 0.98509 0.59406 0.60019 0.0
C452 C 0.99805 0.62242 0.57037 0.0
C453 C 1.00036 0.61489 0.59451 0.0
C454 C 0.96484 0.58892 0.55756 0.0
C455 C 0.98053 0.60923 0.55174 0.0
C456 C 0.96718 0.58134 0.58163 0.0
C457 C 1.00259 0.52679 0.68906 0.0
C458 C 0.02355 0.49462 0.66695 0.0
C459 C 0.989 0.48306 0.69077 0.0
C460 C 0.98639 0.50818 0.69725 0.0
C461 C 0.00805 0.47617 0.67624 0.0
C462 C 0.0207 0.51988 0.67315 0.0
C463 C 1.00024 0.55314 0.6974 0.0
O464 O 0.01074 0.62878 0.68964 0.0
O465 O 0.97001 0.61978 0.68858 0.0
O466 O 0.97789 0.56047 0.69222 0.0
O467 O 0.0187 0.56947 0.69332 0.0
H468 H 0.99043 0.60829 0.73759 0.0
H469 H 0.99233 0.62463 0.7821 0.0
H470 H 0.99356 0.69987 0.76097 0.0
H471 H 0.99169 0.68364 0.71666 0.0
H472 H 0.0102 0.63826 0.56607 0.0
H473 H 0.01442 0.62491 0.60845 0.0
H474 H 0.95121 0.57866 0.54334 0.0
H475 H 0.95545 0.56505 0.58557 0.0
H476 H 0.03847 0.48949 0.65594 0.0
H477 H 0.97704 0.46893 0.69826 0.0
H478 H 0.97215 0.51309 0.70925 0.0
H479 H 0.03315 0.5339 0.66615 0.0
C480 C 0.6803 0.35849 0.6529 0.0
C481 C 0.6643 0.37356 0.64038 0.0
C482 C 0.63129 0.36275 0.6668 0.0
C483 C 0.64 0.37571 0.64733 0.0
C484 C 0.64722 0.34754 0.67909 0.0
C485 C 0.6715 0.34549 0.67223 0.0
U486 U 0.73261 0.36759 0.60942 0.0
O487 O 0.77329 0.37755 0.61829 0.0
O488 O 0.75952 0.34152 0.59689 0.0
C489 C 0.77919 0.35635 0.60737 0.0
C490 C 0.70597 0.35563 0.64593 0.0
C491 C 0.80054 0.34472 0.61965 0.0
C492 C 0.8289 0.33918 0.65634 0.0
C493 C 0.80625 0.34675 0.6458 0.0
C494 C 0.84001 0.32646 0.61495 0.0
C495 C 0.84633 0.32957 0.64097 0.0
C496 C 0.81736 0.33389 0.60445 0.0
C497 C 0.7137 0.40231 0.55052 0.0
C498 C 0.73736 0.41158 0.51574 0.0
C499 C 0.69524 0.42293 0.51611 0.0
C500 C 0.69374 0.41355 0.5393 0.0
C501 C 0.71615 0.42003 0.50242 0.0
C502 C 0.73587 0.40216 0.53902 0.0
C503 C 0.71061 0.39137 0.57426 0.0
O504 O 0.70753 0.34034 0.6258 0.0
O505 O 0.72116 0.37633 0.64718 0.0
O506 O 0.72363 0.40285 0.59459 0.0
O507 O 0.70942 0.36686 0.57341 0.0
H508 H 0.67058 0.38361 0.62527 0.0
H509 H 0.62799 0.38752 0.6376 0.0
H510 H 0.6409 0.3374 0.69412 0.0
H511 H 0.68341 0.33361 0.68199 0.0
H512 H 0.83351 0.34214 0.67645 0.0
H513 H 0.79378 0.35518 0.65801 0.0
H514 H 0.85323 0.31957 0.60268 0.0
H515 H 0.81356 0.33234 0.58425 0.0
H516 H 0.7556 0.4124 0.50927 0.0
H517 H 0.67965 0.43241 0.50898 0.0
H518 H 0.67682 0.41506 0.5485 0.0
H519 H 0.75211 0.3949 0.54809 0.0
C520 C 0.81446 0.67385 0.2148 0.0
C521 C 0.82861 0.65826 0.2006 0.0
C522 C 0.8667 0.6738 0.22803 0.0
C523 C 0.85454 0.65832 0.20709 0.0
C524 C 0.85267 0.6901 0.24147 0.0
C525 C 0.82684 0.69013 0.23491 0.0
U526 U 0.75148 0.6461 0.17857 0.0
O527 O 0.71651 0.63183 0.19281 0.0
O528 O 0.71617 0.66284 0.16908 0.0
C529 C 0.70304 0.64748 0.18162 0.0
C530 C 0.78669 0.67207 0.21036 0.0
C531 C 0.68181 0.65661 0.19422 0.0
C532 C 0.66244 0.67195 0.23099 0.0
C533 C 0.68393 0.6663 0.21942 0.0
C534 C 0.63658 0.65768 0.19255 0.0
C535 C 0.6381 0.66885 0.21758 0.0
C536 C 0.65796 0.65236 0.18104 0.0
C537 C 0.7558 0.5964 0.1222 0.0
C538 C 0.72318 0.56478 0.10212 0.0
C539 C 0.76475 0.56668 0.08821 0.0
C540 C 0.77241 0.58731 0.10582 0.0
C541 C 0.74021 0.55497 0.08646 0.0
C542 C 0.73094 0.58533 0.11996 0.0
C543 C 0.76582 0.61559 0.14287 0.0
O544 O 0.77708 0.68058 0.18987 0.0
O545 O 0.77492 0.65072 0.21468 0.0
O546 O 0.76305 0.60954 0.16554 0.0
O547 O 0.76191 0.63892 0.14007 0.0
H548 H 0.81947 0.6455 0.18502 0.0
H549 H 0.86494 0.64556 0.19645 0.0
H550 H 0.86155 0.70217 0.25766 0.0
H551 H 0.81634 0.7023 0.24612 0.0
H552 H 0.66532 0.6775 0.25085 0.0
H553 H 0.70205 0.66868 0.23041 0.0
H554 H 0.61895 0.65155 0.18163 0.0
H555 H 0.65566 0.64371 0.16188 0.0
H556 H 0.70414 0.55599 0.10106 0.0
H557 H 0.77817 0.55944 0.07637 0.0
H558 H 0.79166 0.59561 0.1073 0.0
H559 H 0.71785 0.59202 0.13249 0.0
C560 C 0.28682 0.0077 0.35997 0.0
C561 C 0.26763 0.99586 0.37199 0.0
C562 C 0.23628 0.01163 0.34395 0.0
C563 C 0.24252 0.99769 0.36391 0.0
C564 C 0.25542 0.02384 0.33224 0.0
C565 C 0.28056 0.02181 0.34017 0.0
U566 U 0.33404 1.00207 0.41387 0.0
O567 O 0.36748 0.98177 0.41874 0.0
O568 O 0.37039 0.02274 0.42755 0.0
C569 C 0.38203 1.00237 0.42702 0.0
C570 C 0.31328 0.00664 0.36903 0.0
C571 C 0.40708 0.00469 0.41902 0.0
C572 C 0.43582 0.01094 0.38785 0.0
C573 C 0.41127 0.00772 0.39419 0.0
C574 C 0.45177 0.00838 0.4311 0.0
C575 C 0.45611 0.01127 0.40633 0.0
C576 C 0.42733 0.00492 0.43735 0.0
C577 C 0.31487 0.99767 0.47739 0.0
C578 C 0.34337 0.9845 0.51024 0.0
C579 C 0.31079 0.01077 0.52069 0.0
C580 C 0.30287 0.01095 0.49544 0.0
C581 C 0.33071 0.99717 0.52823 0.0
C582 C 0.33564 0.98498 0.48483 0.0
C583 C 0.30677 0.99889 0.4509 0.0
O584 O 0.32323 0.02597 0.3846 0.0
O585 O 0.31893 0.98499 0.37626 0.0
O586 O 0.31014 0.97923 0.43567 0.0
O587 O 0.31375 0.02035 0.4427 0.0
H588 H 0.27206 0.98527 0.38766 0.0
H589 H 0.22795 0.98821 0.37317 0.0
H590 H 0.25084 0.0347 0.31683 0.0
H591 H 0.29512 0.03135 0.33095 0.0
H592 H 0.43905 0.01318 0.36861 0.0
H593 H 0.39569 0.00773 0.37994 0.0
H594 H 0.4673 0.00858 0.44546 0.0
H595 H 0.42419 1.00266 0.45661 0.0
H596 H 0.35863 0.97379 0.51587 0.0
H597 H 0.30077 0.02054 0.53448 0.0
H598 H 0.28727 0.02131 0.48998 0.0
H599 H 0.34565 0.9752 0.47106 0.0
C600 C 0.26197 0.01041 0.75177 0.0
C601 C 0.27581 0.9922 0.76206 0.0
C602 C 0.31363 0.01038 0.74656 0.0
C603 C 0.30145 0.99217 0.75942 0.0
C604 C 0.30033 0.02953 0.7379 0.0
C605 C 0.2747 0.02942 0.74025 0.0
U606 U 0.18865 0.0068 0.76069 0.0
O607 O 0.16174 0.97694 0.74038 0.0
O608 O 0.16105 0.0156 0.73097 0.0
C609 C 0.15015 0.99256 0.72725 0.0
C610 C 0.23425 0.00655 0.74734 0.0
C611 C 0.12274 0.9901 0.7265 0.0
C612 C 0.08223 0.98088 0.70206 0.0
C613 C 0.10835 0.98228 0.70364 0.0
C614 C 0.08458 0.99472 0.74641 0.0
C615 C 0.07023 0.98736 0.72335 0.0
C616 C 0.11077 0.9961 0.74799 0.0
C617 C 0.19329 0.02955 0.83144 0.0
C618 C 0.19232 0.05168 0.87258 0.0
C619 C 0.2281 0.02943 0.86335 0.0
C620 C 0.21699 0.02232 0.83896 0.0
C621 C 0.2157 0.04396 0.88033 0.0
C622 C 0.18113 0.04439 0.84829 0.0
C623 C 0.18011 0.02085 0.80672 0.0
O624 O 0.22225 0.98733 0.75597 0.0
O625 O 0.22143 0.02612 0.74637 0.0
O626 O 0.18175 0.03643 0.78947 0.0
O627 O 0.18197 0.99745 0.79837 0.0
H628 H 0.26656 0.97706 0.77071 0.0
H629 H 0.31155 0.97734 0.76639 0.0
H630 H 0.30963 0.04397 0.72839 0.0
H631 H 0.26455 0.04341 0.7317 0.0
H632 H 0.07138 0.97532 0.68413 0.0
H633 H 0.11736 0.97764 0.68691 0.0
H634 H 0.07553 0.99992 0.76297 0.0
H635 H 0.12167 1.00221 0.76579 0.0
H636 H 0.18264 0.06304 0.88543 0.0
H637 H 0.24628 0.02352 0.86907 0.0
H638 H 0.22667 0.01092 0.82615 0.0
H639 H 0.16279 0.05004 0.84275 0.0
C640 C 0.65408 0.68031 0.36109 0.0
C641 C 0.64147 0.66398 0.37573 0.0
C642 C 0.6675 0.6309 0.36364 0.0
C643 C 0.64819 0.63948 0.37703 0.0
C644 C 0.67975 0.64713 0.34876 0.0
C645 C 0.67309 0.67155 0.34751 0.0
U646 U 0.61285 0.73488 0.37208 0.0
O647 O 0.6239 0.77528 0.38238 0.0
O648 O 0.60172 0.7625 0.34649 0.0
C649 C 0.61345 0.78168 0.36117 0.0
C650 C 0.64809 0.70652 0.35968 0.0
C651 C 0.6265 0.80233 0.34907 0.0
C652 C 0.65828 0.83821 0.35108 0.0
C653 C 0.64913 0.81582 0.36012 0.0
C654 C 0.62312 0.83354 0.3191 0.0
C655 C 0.64497 0.84767 0.33091 0.0
C656 C 0.61397 0.81127 0.32813 0.0
C657 C 0.55227 0.71769 0.40552 0.0
C658 C 0.51258 0.73584 0.40739 0.0
C659 C 0.52209 0.70262 0.43296 0.0
C660 C 0.54523 0.70175 0.42334 0.0
C661 C 0.50551 0.71951 0.42496 0.0
C662 C 0.53585 0.73492 0.39766 0.0
C663 C 0.57604 0.71427 0.3946 0.0
O664 O 0.62838 0.70961 0.34448 0.0
O665 O 0.64962 0.7209 0.38095 0.0
O666 O 0.59674 0.72597 0.40676 0.0
O667 O 0.5757 0.71361 0.37015 0.0
H668 H 0.62665 0.67024 0.38629 0.0
H669 H 0.63852 0.62728 0.38867 0.0
H670 H 0.69473 0.64098 0.33837 0.0
H671 H 0.683 0.68376 0.33605 0.0
H672 H 0.67518 0.84872 0.36052 0.0
H673 H 0.65922 0.8097 0.37639 0.0
H674 H 0.61247 0.84038 0.30356 0.0
H675 H 0.59632 0.80165 0.31941 0.0
H676 H 0.5 0.74905 0.40106 0.0
H677 H 0.51699 0.68993 0.4465 0.0
H678 H 0.55752 0.68822 0.42952 0.0
H679 H 0.54085 0.74732 0.38384 0.0
C680 C 0.67338 0.23299 0.96636 0.0
C681 C 0.68805 0.2515 0.9563 0.0
C682 C 0.66364 0.28343 0.97373 0.0
C683 C 0.68207 0.27619 0.95885 0.0
C684 C 0.64466 0.26445 0.97653 0.0
C685 C 0.64983 0.23901 0.9734 0.0
U686 U 0.72688 0.19615 0.99134 0.0
O687 O 0.73988 0.16094 0.97606 0.0
O688 O 0.72704 0.16388 0.01375 0.0
C689 C 0.73645 0.1499 0.99638 0.0
C690 C 0.68347 0.20888 0.97158 0.0
C691 C 0.7294 0.12265 0.99369 0.0
C692 C 0.71188 0.08355 0.96947 0.0
C693 C 0.71515 0.10985 0.97236 0.0
C694 C 0.73686 0.08277 0.00914 0.0
C695 C 0.723 0.06992 0.98775 0.0
C696 C 0.73998 0.10888 0.01208 0.0
C697 C 0.79078 0.23309 0.01734 0.0
C698 C 0.83118 0.21623 0.02419 0.0
C699 C 0.82775 0.26008 0.03626 0.0
C700 C 0.80215 0.25663 0.02792 0.0
C701 C 0.84264 0.24006 0.03407 0.0
C702 C 0.80541 0.21275 0.01593 0.0
C703 C 0.76425 0.23094 0.0064 0.0
O704 O 0.70142 0.20191 0.95831 0.0
O705 O 0.68825 0.20574 0.9954 0.0
O706 O 0.74705 0.22407 0.02082 0.0
O707 O 0.75956 0.22026 0.98333 0.0
H708 H 0.70494 0.24731 0.9481 0.0
H709 H 0.69323 0.29049 0.95177 0.0
H710 H 0.62748 0.26942 0.98338 0.0
H711 H 0.63663 0.22448 0.97843 0.0
H712 H 0.70109 0.07383 0.95287 0.0
H713 H 0.70707 0.12009 0.9578 0.0
H714 H 0.74557 0.07256 0.02341 0.0
H715 H 0.75135 0.11837 0.02847 0.0
H716 H 0.84232 0.20055 0.02224 0.0
H717 H 0.83618 0.27862 0.04367 0.0
H718 H 0.79131 0.2726 0.02908 0.0
H719 H 0.79707 0.19439 0.00783 0.0
C720 C 0.22251 0.81483 0.68875 0.0
C721 C 0.20796 0.8275 0.67198 0.0
C722 C 0.23532 0.86613 0.68431 0.0
C723 C 0.21427 0.85299 0.66984 0.0
C724 C 0.24912 0.85371 0.70183 0.0
C725 C 0.24276 0.82827 0.70402 0.0
U726 U 0.1866 0.7524 0.66271 0.0
O727 O 0.19994 0.71758 0.64748 0.0
O728 O 0.17733 0.71699 0.67939 0.0
C729 C 0.18986 0.70411 0.66373 0.0
C730 C 0.21841 0.78732 0.68866 0.0
C731 C 0.20427 0.68404 0.67281 0.0
C732 C 0.24186 0.66214 0.67203 0.0
C733 C 0.23017 0.68425 0.67087 0.0
C734 C 0.20264 0.63992 0.6797 0.0
C735 C 0.22787 0.63957 0.67518 0.0
C736 C 0.19092 0.66197 0.67839 0.0
C737 C 0.13323 0.75646 0.61065 0.0
C738 C 0.10559 0.72189 0.58803 0.0
C739 C 0.11118 0.76158 0.57043 0.0
C740 C 0.12741 0.77135 0.5914 0.0
C741 C 0.10042 0.73676 0.56846 0.0
C742 C 0.12213 0.73166 0.60902 0.0
C743 C 0.15232 0.76706 0.63101 0.0
O744 O 0.19757 0.77832 0.697 0.0
O745 O 0.22329 0.77466 0.66798 0.0
O746 O 0.17551 0.76498 0.62618 0.0
O747 O 0.14828 0.76273 0.65397 0.0
H748 H 0.1923 0.81746 0.65993 0.0
H749 H 0.20337 0.86223 0.65621 0.0
H750 H 0.26536 0.8635 0.71318 0.0
H751 H 0.25424 0.81885 0.71701 0.0
H752 H 0.26137 0.66227 0.66858 0.0
H753 H 0.24095 0.70098 0.66659 0.0
H754 H 0.19151 0.6227 0.68211 0.0
H755 H 0.17092 0.66125 0.67975 0.0
H756 H 0.0973 0.70268 0.58673 0.0
H757 H 0.10728 0.77326 0.55553 0.0
H758 H 0.13592 0.79047 0.59233 0.0
H759 H 0.12658 0.71981 0.62364 0.0
C760 C 0.38018 0.28249 0.00548 0.0
C761 C 0.38616 0.2618 0.99008 0.0
C762 C 0.35773 0.23393 0.00984 0.0
C763 C 0.37491 0.23774 0.99218 0.0
C764 C 0.35188 0.25452 0.02532 0.0
C765 C 0.36293 0.2786 0.02306 0.0
U766 U 0.43946 0.32635 0.00501 0.0
O767 O 0.44767 0.36064 0.98678 0.0
O768 O 0.4523 0.36197 0.0278 0.0
C769 C 0.45271 0.37476 0.00825 0.0
C770 C 0.39259 0.30798 0.00454 0.0
C771 C 0.44111 0.39845 0.01059 0.0
C772 C 0.40526 0.42254 0.00594 0.0
C773 C 0.41567 0.39972 1.00277 0.0
C774 C 0.4455 0.44292 0.02483 0.0
C775 C 0.42015 0.44423 0.01703 0.0
C776 C 0.4559 0.42018 0.02157 0.0
C777 C 0.50034 0.29203 0.00947 0.0
C778 C 0.54402 0.30704 0.00731 0.0
C779 C 0.53358 0.2696 0.02739 0.0
C780 C 0.50817 0.27196 0.02186 0.0
C781 C 0.5517 0.28718 0.02041 0.0
C782 C 0.51837 0.30954 1.00194 0.0
C783 C 0.47323 0.29418 0.00603 0.0
O784 O 0.40663 0.31734 0.02511 0.0
O785 O 0.40297 0.3124 0.98403 0.0
O786 O 0.46371 0.30207 0.98516 0.0
O787 O 0.46358 0.30326 0.026 0.0
H788 H 0.39964 0.26415 0.97657 0.0
H789 H 0.37968 0.22203 0.98012 0.0
H790 H 0.33872 0.25191 0.03909 0.0
H791 H 0.35821 0.29422 0.03527 0.0
H792 H 0.3856 0.42329 0.99992 0.0
H793 H 0.4039 0.38312 0.9944 0.0
H794 H 0.45716 0.45946 0.0335 0.0
H795 H 0.47553 0.4195 0.02781 0.0
H796 H 0.55782 0.32092 1.002 0.0
H797 H 0.53913 0.25434 0.03767 0.0
H798 H 0.49453 0.25833 0.02785 0.0
H799 H 0.51268 0.32526 0.99245 0.0
C800 C 0.3569 0.65186 0.6787 0.0
C801 C 0.37142 0.63852 0.66275 0.0
C802 C 0.361 0.66465 0.62928 0.0
C803 C 0.37347 0.6449 0.63824 0.0
C804 C 0.34605 0.67748 0.64506 0.0
C805 C 0.34402 0.67113 0.66948 0.0
U806 U 0.368 0.61291 0.73502 0.0
O807 O 0.38179 0.62567 0.7745 0.0
O808 O 0.34416 0.60589 0.76533 0.0
C809 C 0.36094 0.61715 0.78307 0.0
C810 C 0.35562 0.64695 0.70523 0.0
C811 C 0.352 0.63239 0.80437 0.0
C812 C 0.32554 0.66253 0.82235 0.0
C813 C 0.33407 0.6496 0.80127 0.0
C814 C 0.35273 0.64133 0.84973 0.0
C815 C 0.33485 0.65852 0.84684 0.0
C816 C 0.36117 0.62849 0.82881 0.0
C817 C 0.40076 0.5511 0.71796 0.0
C818 C 0.40219 0.50964 0.73238 0.0
C819 C 0.43118 0.5236 0.70364 0.0
C820 C 0.42075 0.54641 0.70379 0.0
C821 C 0.4219 0.50495 0.71773 0.0
C822 C 0.39159 0.53255 0.73243 0.0
C823 C 0.38894 0.57456 0.71499 0.0
O824 O 0.34005 0.62793 0.70935 0.0
O825 O 0.3771 0.64852 0.7193 0.0
O826 O 0.40174 0.59571 0.72466 0.0
O827 O 0.36465 0.5744 0.71628 0.0
H828 H 0.38149 0.62353 0.66938 0.0
H829 H 0.38512 0.63475 0.6264 0.0
H830 H 0.33635 0.69279 0.63863 0.0
H831 H 0.33272 0.68166 0.68139 0.0
H832 H 0.3117 0.67563 0.81958 0.0
H833 H 0.32656 0.6529 0.78266 0.0
H834 H 0.36016 0.63777 0.86829 0.0
H835 H 0.37482 0.61521 0.83177 0.0
H836 H 0.39485 0.49545 0.74346 0.0
H837 H 0.44638 0.52038 0.69229 0.0
H838 H 0.42797 0.56029 0.6923 0.0
H839 H 0.3761 0.5356 0.7434 0.0
C840 C 0.01128 0.75047 0.25731 0.0
C841 C 0.99366 0.76171 0.27121 0.0
C842 C 0.0125 0.74711 0.30925 0.0
C843 C 0.99414 0.75983 0.29698 0.0
C844 C 0.03137 0.73797 0.29583 0.0
C845 C 0.03065 0.73939 0.27009 0.0
U846 U 0.00954 0.75944 0.185 0.0
O847 O 0.97908 0.74201 0.15697 0.0
O848 O 0.01686 0.72979 0.15664 0.0
C849 C 0.99403 0.72821 0.14517 0.0
C850 C 0.00654 0.74491 0.2298 0.0
C851 C 0.99212 0.72861 0.11787 0.0
C852 C 0.97122 0.71234 0.07696 0.0
C853 C 0.97286 0.71324 0.10303 0.0
C854 C 0.00792 0.74258 0.08028 0.0
C855 C 0.98898 0.72671 0.06546 0.0
C856 C 0.00946 0.7436 0.10638 0.0
C857 C 0.0363 0.82911 0.19324 0.0
C858 C 0.05122 0.87275 0.19279 0.0
C859 C 0.03667 0.85824 0.23023 0.0
C860 C 0.03243 0.83381 0.21842 0.0
C861 C 0.04295 0.87878 0.21657 0.0
C862 C 0.04709 0.84839 0.18096 0.0
C863 C 0.02742 0.80509 0.17879 0.0
O864 O 0.9885 0.75532 0.21773 0.0
O865 O 0.02599 0.74217 0.21713 0.0
O866 O 0.04167 0.78671 0.18093 0.0
O867 O 1.00342 0.79808 0.17894 0.0
H868 H 0.97837 0.77021 0.26194 0.0
H869 H 0.97951 0.76719 0.30709 0.0
H870 H 0.04605 0.72875 0.30517 0.0
H871 H 0.0444 0.73039 0.25998 0.0
H872 H 0.95644 0.70013 0.06573 0.0
H873 H 0.95926 0.70169 0.11163 0.0
H874 H 0.02168 0.75388 0.07162 0.0
H875 H 0.02433 0.75578 0.11753 0.0
H876 H 0.06053 0.88667 0.18278 0.0
H877 H 0.03469 0.8605 0.24999 0.0
H878 H 0.02554 0.81875 0.22874 0.0
H879 H 0.05163 0.84477 0.16188 0.0
C880 C 0.70924 0.23487 0.8231 0.0
C881 C 0.70233 0.22204 0.84341 0.0
C882 C 0.7244 0.25594 0.87351 0.0
C883 C 0.70977 0.23254 0.86838 0.0
C884 C 0.7318 0.26812 0.85305 0.0
C885 C 0.72423 0.25783 0.82834 0.0
U886 U 0.67125 0.19451 0.76313 0.0
O887 O 0.65439 0.20991 0.72988 0.0
O888 O 0.68514 0.18613 0.72606 0.0
C889 C 0.66855 0.1988 0.71466 0.0
C890 C 0.70085 0.22602 0.79623 0.0
C891 C 0.6746 0.21124 0.6923 0.0
C892 C 0.69073 0.24707 0.67198 0.0
C893 C 0.68904 0.23448 0.69363 0.0
C894 C 0.66413 0.21308 0.64759 0.0
C895 C 0.67734 0.23692 0.64895 0.0
C896 C 0.6629 0.20037 0.66896 0.0
C897 C 0.62024 0.13964 0.76429 0.0
C898 C 0.59066 0.12273 0.72831 0.0
C899 C 0.58723 0.10669 0.76844 0.0
C900 C 0.60817 0.12295 0.77883 0.0
C901 C 0.57799 0.1067 0.74321 0.0
C902 C 0.61157 0.13917 0.73879 0.0
C903 C 0.64039 0.15858 0.77666 0.0
O904 O 0.70752 0.2046 0.78655 0.0
O905 O 0.67818 0.23021 0.78747 0.0
O906 O 0.6354 0.18196 0.77665 0.0
O907 O 0.66347 0.15545 0.77185 0.0
H908 H 0.69084 0.20426 0.83999 0.0
H909 H 0.70368 0.22267 0.88368 0.0
H910 H 0.74288 0.28614 0.85623 0.0
H911 H 0.72979 0.26818 0.81314 0.0
H912 H 0.70122 0.26536 0.67348 0.0
H913 H 0.69819 0.24326 0.71144 0.0
H914 H 0.65379 0.20471 0.63015 0.0
H915 H 0.65169 0.18245 0.66746 0.0
H916 H 0.58396 0.12294 0.70876 0.0
H917 H 0.57789 0.09442 0.78023 0.0
H918 H 0.61453 0.12296 0.79849 0.0
H919 H 0.62057 0.15189 0.72719 0.0
C920 C 1.0034 0.3628 0.28093 0.0
C921 C 0.00651 0.37941 0.26257 0.0
C922 C 1.00233 0.34434 0.23029 0.0
C923 C 0.00617 0.37021 0.23741 0.0
C924 C 0.99916 0.3278 0.24862 0.0
C925 C 0.99971 0.33698 0.27379 0.0
U926 U 0.9955 0.41498 0.33033 0.0
O927 O 0.98186 0.41632 0.36743 0.0
O928 O 0.02065 0.43122 0.36356 0.0
C929 C 1.0034 0.42703 0.37878 0.0
C930 C 1.00435 0.3722 0.30754 0.0
C931 C 0.01169 0.41883 0.40299 0.0
C932 C 0.01237 0.38761 0.43246 0.0
C933 C 0.00743 0.39383 0.40803 0.0
C934 C 0.02694 0.43103 0.44656 0.0
C935 C 0.02157 0.40632 0.45187 0.0
C936 C 0.02191 0.43724 0.42223 0.0
C937 C 0.97724 0.47627 0.31383 0.0
C938 C 0.99106 0.51181 0.3446 0.0
C939 C 0.97064 0.51804 0.3039 0.0
C940 C 0.96759 0.49225 0.29725 0.0
C941 C 0.98366 0.52792 0.32703 0.0
C942 C 0.98773 0.486 0.33805 0.0
C943 C 0.98007 0.45037 0.30484 0.0
O944 O 0.022 0.39051 0.31522 0.0
O945 O 0.98261 0.37586 0.31585 0.0
O946 O 0.96448 0.43328 0.31261 0.0
O947 O 1.00348 0.4451 0.30682 0.0
H948 H 0.00927 0.39946 0.26771 0.0
H949 H 0.00861 0.3832 0.22346 0.0
H950 H 0.99616 0.30778 0.24338 0.0
H951 H 0.99727 0.32394 0.28768 0.0
H952 H 0.00815 0.36843 0.43642 0.0
H953 H 0.99949 0.3794 0.39337 0.0
H954 H 0.03392 0.44561 0.46143 0.0
H955 H 0.02509 0.45665 0.4186 0.0
H956 H 1.00142 0.5192 0.36235 0.0
H957 H 0.96508 0.53038 0.29009 0.0
H958 H 0.95945 0.48498 0.27856 0.0
H959 H 0.99523 0.47379 0.3511 0.0
H960 H 0.28201 0.52846 0.66589 0.0
H961 H 0.31363 0.51341 0.59583 0.0
H962 H 0.28001 0.58138 0.61092 0.0
H963 H 0.30787 0.47366 0.60556 0.0
C964 C 0.31223 0.47415 0.62567 0.0
C965 C 0.28683 0.53418 0.64807 0.0
C966 C 0.27965 0.55703 0.64036 0.0
C967 C 0.29967 0.51832 0.63247 0.0
C968 C 0.30433 0.52529 0.6085 0.0
C969 C 0.29695 0.548 0.60079 0.0
C970 C 0.28572 0.56398 0.61714 0.0
N971 N 0.30763 0.49577 0.64138 0.0
H972 H 0.36303 0.55493 0.03394 0.0
H973 H 0.29165 0.53947 0.98868 0.0
H974 H 0.34287 0.48313 0.99196 0.0
H975 H 0.35755 0.59468 0.02202 0.0
C976 C 0.33767 0.59653 0.02231 0.0
C977 C 0.3497 0.54248 0.02119 0.0
C978 C 0.3554 0.51814 0.01393 0.0
C979 C 0.32652 0.55029 0.01208 0.0
C980 C 0.30934 0.53351 0.99595 0.0
C981 C 0.31542 0.50935 0.98858 0.0
C982 C 0.33825 0.50186 0.99774 0.0
N983 N 0.32006 0.57488 0.01843 0.0
H984 H 0.70437 0.96477 0.28314 0.0
H985 H 0.73181 0.0203 0.36973 0.0
H986 H 0.66007 0.94713 0.36458 0.0
H987 H 0.72197 0.06148 0.28501 0.0
C988 C 0.73838 0.05397 0.29462 0.0
C989 C 0.70177 0.96992 0.30251 0.0
C990 C 0.67595 0.95014 0.31909 0.0
C991 C 0.7245 0.9977 0.32258 0.0
C992 C 0.71901 0.00654 0.35791 0.0
C993 C 0.69342 0.98777 0.37369 0.0
C994 C 0.67226 0.95906 0.35485 0.0
N995 N 0.74014 0.01669 0.31091 0.0
H996 H 0.70438 0.94205 0.96956 0.0
H997 H 0.73676 0.90581 0.03116 0.0
H998 H 0.74763 0.98558 0.03258 0.0
H999 H 0.7348 0.87268 0.9987 0.0
C1000 C 0.71516 0.87409 0.99286 0.0
C1001 C 0.71593 0.94297 0.98725 0.0
C1002 C 0.72627 0.96636 0.99949 0.0
C1003 C 0.71988 0.92083 0.99834 0.0
C1004 C 0.7344 0.9224 0.02167 0.0
C1005 C 0.74412 0.94573 0.03407 0.0
C1006 C 0.74036 0.96751 0.02275 0.0
N1007 N 0.70721 0.89755 0.98716 0.0
H1008 H 0.67191 0.29087 0.53635 0.0
H1009 H 0.59489 0.29717 0.50818 0.0
H1010 H 0.61149 0.27173 0.58002 0.0
H1011 H 0.61024 0.31726 0.47922 0.0
C1012 C 0.62992 0.31531 0.47791 0.0
C1013 C 0.65202 0.28882 0.53838 0.0
C1014 C 0.64362 0.27983 0.56028 0.0
C1015 C 0.63476 0.29533 0.51912 0.0
C1016 C 0.60881 0.2928 0.52242 0.0
C1017 C 0.60051 0.28477 0.54468 0.0
C1018 C 0.61798 0.27808 0.563 0.0
N1019 N 0.64411 0.30417 0.49702 0.0
H1020 H 0.97495 0.71049 0.93774 0.0
H1021 H 0.03798 0.74376 0.90411 0.0
H1022 H 0.03971 0.74714 0.98382 0.0
H1023 H 0.01243 0.73803 0.86959 0.0
C1024 C 1.00078 0.72075 0.87069 0.0
C1025 C 0.99329 0.72096 0.9394 0.0
C1026 C 1.00574 0.72921 0.96319 0.0
C1027 C 1.00479 0.72575 0.91777 0.0
C1028 C 0.02852 0.73977 0.92031 0.0
C1029 C 0.04139 0.74708 0.94409 0.0
C1030 C 0.02986 0.74161 0.96536 0.0
N1031 N 0.99318 0.71447 0.89406 0.0
H1032 H 0.02255 0.37074 0.57238 0.0
H1033 H 0.97024 0.30401 0.56218 0.0
H1034 H 0.99575 0.3372 0.49851 0.0
H1035 H 0.97601 0.30607 0.60599 0.0
C1036 C 0.99202 0.31952 0.61252 0.0
C1037 C 0.0118 0.35556 0.56024 0.0
C1038 C 0.01098 0.35568 0.53432 0.0
C1039 C 0.99777 0.33668 0.57064 0.0
C1040 C 0.98236 0.31788 0.55462 0.0
C1041 C 0.98175 0.31823 0.52838 0.0
C1042 C 0.99691 0.33646 0.51866 0.0
N1043 N 0.99946 0.3383 0.5972 0.0
H1044 H 0.29483 0.71559 0.96017 0.0
H1045 H 0.36595 0.73762 1.00379 0.0
H1046 H 0.36316 0.68776 0.93822 0.0
H1047 H 0.30335 0.72113 0.06159 0.0
C1048 C 0.30588 0.73644 0.04955 0.0
C1049 C 0.31469 0.71406 0.96401 0.0
C1050 C 0.32802 0.70186 0.94535 0.0
C1051 C 0.32762 0.72411 0.98779 0.0
C1052 C 0.35412 0.72563 0.98938 0.0
C1053 C 0.36621 0.71054 0.97311 0.0
C1054 C 0.35313 0.6984 0.95141 0.0
N1055 N 0.3144 0.73462 0.00895 0.0
H1056 H 0.52968 0.66832 0.27808 0.0
H1057 H 0.5139 0.5934 0.29916 0.0
H1058 H 0.58263 0.61421 0.26884 0.0
H1059 H 0.48103 0.60631 0.31415 0.0
C1060 C 0.47806 0.62542 0.31106 0.0
C1061 C 0.53507 0.64971 0.28021 0.0
C1062 C 0.55775 0.64289 0.27175 0.0
C1063 C 0.51915 0.63239 0.29108 0.0
C1064 C 0.52601 0.60768 0.29224 0.0
C1065 C 0.54904 0.60111 0.28434 0.0
C1066 C 0.56494 0.61917 0.27502 0.0
N1067 N 0.4966 0.64047 0.30014 0.0
H1068 H 0.94295 0.97206 0.70152 0.0
H1069 H 0.90476 0.0273 0.74191 0.0
H1070 H 0.9846 0.03117 0.75186 0.0
H1071 H 0.87357 0.9929 0.73709 0.0
C1072 C 0.87407 0.98882 0.71704 0.0
C1073 C 0.94329 0.98801 0.71539 0.0
C1074 C 0.96635 0.99973 0.72725 0.0
C1075 C 0.92072 0.99736 0.72113 0.0
C1076 C 0.9216 0.01882 0.73831 0.0
C1077 C 0.94461 0.03141 0.74859 0.0
C1078 C 0.96676 0.02125 0.74391 0.0
N1079 N 0.89765 0.98695 0.70747 0.0
H1080 H 0.57254 0.02516 0.3615 0.0
H1081 H 0.55868 0.97738 0.29179 0.0
H1082 H 0.49766 0.99459 0.33403 0.0
H1083 H 0.59846 0.96786 0.30879 0.0
C1084 C 0.60856 0.98549 0.31668 0.0
C1085 C 0.55955 0.01478 0.34676 0.0
C1086 C 0.53411 0.01133 0.34982 0.0
C1087 C 0.56862 1.0028 0.32584 0.0
C1088 C 0.55183 0.98746 0.30764 0.0
C1089 C 0.52601 0.98488 0.31052 0.0
C1090 C 0.51739 0.99753 0.33117 0.0
N1091 N 0.59486 0.00542 0.32463 0.0
H1092 H 0.95739 0.29511 0.71546 0.0
H1093 H 0.03056 0.37075 0.72647 0.0
H1094 H 0.95894 0.36586 0.65392 0.0
H1095 H 0.04992 0.27283 0.75121 0.0
C1096 C 0.04864 0.29205 0.74592 0.0
C1097 C 0.96678 0.31144 0.70886 0.0
C1098 C 0.95093 0.32657 0.67983 0.0
C1099 C 0.99867 0.32787 0.72768 0.0
C1100 C 0.01521 0.35919 0.71564 0.0
C1101 C 1.00009 0.37242 0.6859 0.0
C1102 C 0.96861 0.35626 0.66807 0.0
N1103 N 0.01382 0.31281 0.74349 0.0
H1104 H 0.73218 0.4814 0.34238 0.0
H1105 H 0.70592 0.49986 0.41368 0.0
H1106 H 0.72976 0.42768 0.3967 0.0
H1107 H 0.68093 0.52287 0.39127 0.0
C1108 C 0.6923 0.53012 0.37748 0.0
C1109 C 0.72952 0.47604 0.36066 0.0
C1110 C 0.73718 0.45331 0.3689 0.0
C1111 C 0.71722 0.49259 0.37616 0.0
C1112 C 0.71296 0.4866 0.40044 0.0
C1113 C 0.71795 0.46319 0.40774 0.0
C1114 C 0.72769 0.4462 0.39102 0.0
N1115 N 0.71065 0.51566 0.36742 0.0
H1116 H 0.63116 0.43702 0.98429 0.0
H1117 H 0.70651 0.43711 0.02039 0.0
H1118 H 0.67069 0.50499 0.02119 0.0
H1119 H 0.6974 0.39548 0.01712 0.0
C1120 C 0.68192 0.38972 1.0028 0.0
C1121 C 0.648 0.44683 0.99462 0.0
C1122 C 0.64899 0.47257 1.00168 0.0
C1123 C 0.6685 0.43357 1.0013 0.0
C1124 C 0.69031 0.44665 0.01514 0.0
C1125 C 0.69093 0.47255 0.02249 0.0
C1126 C 0.67034 0.48509 0.01542 0.0
N1127 N 0.66602 0.4073 0.99389 0.0
H1128 H 0.28908 0.04275 0.68693 0.0
H1129 H 0.30821 0.97893 0.64121 0.0
H1130 H 0.33137 0.05305 0.62432 0.0
H1131 H 0.26767 0.98262 0.6773 0.0
C1132 C 0.266 0.96809 0.66245 0.0
C1133 C 0.29871 0.03489 0.6718 0.0
C1134 C 0.31293 0.05095 0.65786 0.0
C1135 C 0.29609 0.00868 0.6651 0.0
C1136 C 0.30906 0.99895 0.64575 0.0
C1137 C 0.32012 0.01474 0.6299 0.0
C1138 C 0.3224 0.04069 0.63631 0.0
N1139 N 0.27782 0.99167 0.67607 0.0
H1140 H 0.31473 0.07043 0.03983 0.0
H1141 H 0.2731 0.10445 0.98198 0.0
H1142 H 0.26608 0.02477 0.98194 0.0
H1143 H 0.31117 0.12663 0.98291 0.0
C1144 C 0.31557 0.1317 1.00292 0.0
C1145 C 0.30121 0.06888 0.02344 0.0
C1146 C 0.28985 0.04516 0.01293 0.0
C1147 C 0.29598 0.09042 0.01179 0.0
C1148 C 0.27811 0.08806 0.99071 0.0
C1149 C 0.26805 0.06443 0.97943 0.0
C1150 C 0.27378 0.04313 0.99074 0.0
N1151 N 0.30993 0.11395 0.02011 0.0
H1152 H 0.34287 0.73447 0.48268 0.0
H1153 H 0.41406 0.70454 0.49731 0.0
H1154 H 0.3981 0.73899 0.43013 0.0
H1155 H 0.39509 0.68241 0.52366 0.0
C1156 C 0.37972 0.69204 0.53011 0.0
C1157 C 0.3609 0.7302 0.47699 0.0
C1158 C 0.36849 0.73795 0.4543 0.0
C1159 C 0.3767 0.71713 0.49246 0.0
C1160 C 0.40079 0.71307 0.48534 0.0
C1161 C 0.40836 0.72099 0.46284 0.0
C1162 C 0.39197 0.73272 0.44732 0.0
N1163 N 0.36837 0.70952 0.51537 0.0
H1164 H 0.02231 0.28484 0.0704 0.0
H1165 H 0.94917 0.27782 0.09698 0.0
H1166 H 0.95768 0.25384 0.02048 0.0
H1167 H 0.97231 0.27529 0.13378 0.0
C1168 C 0.98829 0.28903 0.13348 0.0
C1169 C 1.00238 0.27896 0.06716 0.0
C1170 C 0.99162 0.26949 0.04307 0.0
C1171 C 0.9874 0.28154 0.08692 0.0
C1172 C 0.96129 0.27468 0.08234 0.0
C1173 C 0.95048 0.26433 0.05845 0.0
C1174 C 0.96592 0.26143 0.03907 0.0
N1175 N 0.99884 0.29244 0.11076 0.0
H1176 H 0.98312 0.65553 0.4349 0.0
H1177 H 0.0425 0.71607 0.45195 0.0
H1178 H 0.02391 0.66853 0.50813 0.0
H1179 H 0.01378 0.73385 0.42532 0.0
C1180 C 0.01 0.71884 0.41015 0.0
C1181 C 0.9979 0.66596 0.44778 0.0
C1182 C 1.00208 0.65964 0.47239 0.0
C1183 C 0.01217 0.6866 0.44027 0.0
C1184 C 0.03109 0.7003 0.45739 0.0
C1185 C 0.03523 0.6936 0.48179 0.0
C1186 C 0.02087 0.67332 0.48903 0.0
N1187 N 0.00701 0.69354 0.41568 0.0
H1188 H 0.73411 0.34674 0.02418 0.0
H1189 H 0.67667 0.26013 0.014 0.0
H1190 H 0.65204 0.33889 0.0691 0.0
H1191 H 0.74404 0.32429 0.98235 0.0
C1192 C 0.73905 0.3045 0.9768 0.0
C1193 C 0.71667 0.33613 0.02673 0.0
C1194 C 0.69439 0.35015 0.05079 0.0
C1195 C 0.70964 0.30086 0.01112 0.0
C1196 C 0.6789 0.27995 0.0195 0.0
C1197 C 0.65553 0.29579 0.04112 0.0
C1198 C 0.66379 0.33023 0.05641 0.0
N1199 N 0.72494 0.29044 0.99308 0.0
H1200 H 0.48351 0.34525 0.73425 0.0
H1201 H 0.49796 0.4148 0.70194 0.0
H1202 H 0.42835 0.39812 0.73226 0.0
H1203 H 0.52332 0.39255 0.6788 0.0
C1204 C 0.53102 0.37986 0.69126 0.0
C1205 C 0.47728 0.36257 0.72849 0.0
C1206 C 0.45377 0.36961 0.73436 0.0
C1207 C 0.49296 0.37805 0.71549 0.0
C1208 C 0.4855 0.40163 0.71003 0.0
C1209 C 0.46224 0.40886 0.71636 0.0
C1210 C 0.44618 0.39231 0.72728 0.0
N1211 N 0.5166 0.37012 0.7097 0.0
H1212 H 0.07168 0.04261 0.30764 0.0
H1213 H 0.10276 0.9777 0.27463 0.0
H1214 H 0.02471 0.98548 0.25937 0.0
H1215 H 0.12417 0.98349 0.31412 0.0
C1216 C 0.13055 1.00327 0.31486 0.0
C1217 C 0.06962 0.02537 0.29525 0.0
C1218 C 0.04588 0.01584 0.2833 0.0
C1219 C 0.09034 0.01163 0.29243 0.0
C1220 C 0.08719 0.98875 0.27698 0.0
C1221 C 0.06359 0.97946 0.26514 0.0
C1222 C 0.04317 0.99319 0.26799 0.0
N1223 N 0.11388 0.02026 0.30612 0.0
H1224 H 0.44111 0.99213 0.65951 0.0
H1225 H 0.45999 0.04946 0.72152 0.0
H1226 H 0.51509 0.03107 0.67195 0.0
H1227 H 0.43123 0.01137 0.73543 0.0
C1228 C 0.41615 0.01279 0.72092 0.0
C1229 C 0.45436 0.00663 0.66988 0.0
C1230 C 0.479 0.00991 0.66361 0.0
C1231 C 0.44726 0.02112 0.69055 0.0
C1232 C 0.46514 0.03878 0.7051 0.0
C1233 C 0.48967 0.04265 0.69812 0.0
C1234 C 0.49603 0.02862 0.677 0.0
N1235 N 0.42218 0.01737 0.69657 0.0
H1236 H 0.04377 0.68735 0.28887 0.0
H1237 H 0.98373 0.63405 0.30375 0.0
H1238 H 0.05786 0.63013 0.33761 0.0
H1239 H 0.98126 0.6782 0.27336 0.0
C1240 C 0.96537 0.66817 0.27952 0.0
C1241 C 0.03688 0.67228 0.29905 0.0
C1242 C 0.0539 0.66086 0.31514 0.0
C1243 C 0.01099 0.66336 0.29567 0.0
C1244 C 1.00295 0.64235 0.30736 0.0
C1245 C 0.01988 0.63014 0.3217 0.0
C1246 C 0.04488 0.64008 0.32663 0.0
N1247 N 0.99236 0.67457 0.27901 0.0
C1248 C 0.11893 0.68757 0.34595 0.0
C1249 C 0.13271 0.66716 0.33883 0.0
C1250 C 0.09709 0.65023 0.30807 0.0
C1251 C 0.08182 0.6676 0.31867 0.0
N1252 N 0.07795 0.70291 0.34821 0.0
N1253 N 0.133 0.62695 0.31493 0.0
C1254 C 0.09277 0.68657 0.33753 0.0
C1255 C 0.12142 0.64808 0.32007 0.0
N1256 N 0.13093 0.70802 0.36053 0.0
N1257 N 0.088 0.63546 0.28662 0.0
H1258 H 0.15034 0.62398 0.32382 0.0
H1259 H 0.12432 0.61129 0.30356 0.0
H1260 H 0.07051 0.63732 0.27724 0.0
H1261 H 0.09877 0.62366 0.27677 0.0
H1262 H 0.1226 0.7244 0.36457 0.0
H1263 H 0.15003 0.70944 0.36661 0.0
H1264 H 0.08398 0.71533 0.36404 0.0
H1265 H 0.05907 0.70311 0.34184 0.0
C1266 C 0.40665 0.32148 0.75759 0.0
C1267 C 0.39821 0.33709 0.77712 0.0
C1268 C 0.43244 0.3691 0.77336 0.0
C1269 C 0.43789 0.35577 0.75091 0.0
N1270 N 0.42908 0.31946 0.72054 0.0
N1271 N 0.40038 0.37806 0.80022 0.0
C1272 C 0.42493 0.33179 0.74282 0.0
C1273 C 0.41048 0.36148 0.78423 0.0
N1274 N 0.39731 0.29688 0.75333 0.0
N1275 N 0.44831 0.38921 0.78423 0.0
H1276 H 0.38374 0.37379 0.80806 0.0
H1277 H 0.40717 0.39692 0.80363 0.0
H1278 H 0.46506 0.3948 0.77709 0.0
H1279 H 0.44624 0.39843 0.80166 0.0
H1280 H 0.40445 0.28394 0.74104 0.0
H1281 H 0.38386 0.289 0.7638 0.0
H1282 H 0.41841 0.30311 0.7125 0.0
H1283 H 0.44216 0.32644 0.70922 0.0
C1284 C 0.52811 0.97221 0.64492 0.0
C1285 C 0.53108 0.98072 0.62119 0.0
C1286 C 0.49023 0.99748 0.62076 0.0
C1287 C 0.48936 0.99204 0.64582 0.0
N1288 N 0.5038 0.96792 0.67901 0.0
N1289 N 0.5118 0.99367 0.58308 0.0
C1290 C 0.50647 0.97659 0.65642 0.0
C1291 C 0.51086 0.99061 0.60784 0.0
N1292 N 0.54623 0.96123 0.65798 0.0
N1293 N 0.4723 0.01071 0.61023 0.0
H1294 H 0.52677 0.98851 0.57343 0.0
H1295 H 0.4971 0.99928 0.5717 0.0
H1296 H 0.45674 0.01499 0.61938 0.0
H1297 H 0.47299 0.01775 0.59297 0.0
H1298 H 0.56339 0.9578 0.65155 0.0
H1299 H 0.56339 0.9578 0.65155 0.0
H1300 H 0.4883 0.97059 0.68888 0.0
H1301 H 0.4883 0.97059 0.68888 0.0
C1302 C 0.98708 0.04772 0.27159 0.0
C1303 C 0.97094 0.03201 0.28412 0.0
C1304 C 0.0072 0.01522 0.30482 0.0
C1305 C 0.02259 0.02707 0.28858 0.0
N1306 N 0.02838 0.05557 0.25746 0.0
N1307 N 0.96498 1.00105 0.31302 0.0
C1308 C 0.01299 0.04411 0.27263 0.0
C1309 C 0.98086 0.01623 0.30132 0.0
N1310 N 0.97741 0.06569 0.25843 0.0
N1311 N 0.01791 1.00245 0.32306 0.0
H1312 H 0.94563 1.00194 0.31148 0.0
H1313 H 0.97072 0.9868 0.32327 0.0
H1314 H 0.03722 1.00139 0.32574 0.0
H1315 H 0.00816 0.99489 0.33682 0.0
H1316 H 0.98831 0.07908 0.25038 0.0
H1317 H 0.95843 0.06849 0.25734 0.0
H1318 H 0.02213 0.06591 0.24319 0.0
H1319 H 0.04761 0.05393 0.2587 0.0
C1320 C 0.3158 0.11972 0.64796 0.0
C1321 C 0.33779 0.12952 0.66385 0.0
C1322 C 0.33973 0.08857 0.68057 0.0
C1323 C 0.31805 0.07874 0.66437 0.0
N1324 N 0.28204 0.08607 0.63734 0.0
N1325 N 0.36706 0.12522 0.69938 0.0
C1326 C 0.30491 0.09483 0.64973 0.0
C1327 C 0.34852 0.11451 0.68154 0.0
N1328 N 0.30621 0.13361 0.6301 0.0
N1329 N 0.35265 0.07277 0.69408 0.0
H1330 H 0.37377 0.14412 0.70059 0.0
H1331 H 0.37421 0.11609 0.71424 0.0
H1332 H 0.34615 0.05402 0.69466 0.0
H1333 H 0.37031 0.07782 0.70375 0.0
H1334 H 0.2921 0.12657 0.61602 0.0
H1335 H 0.31348 0.15186 0.62826 0.0
H1336 H 0.27025 0.09728 0.6281 0.0
H1337 H 0.27385 0.06793 0.63835 0.0
C1338 C 0.27931 0.9854 0.04355 0.0
C1339 C 0.29175 0.96962 0.02734 0.0
C1340 C 0.31162 0.00643 0.01078 0.0
C1341 C 0.29548 0.02148 0.02327 0.0
N1342 N 0.2647 0.02633 0.05242 0.0
N1343 N 0.32012 0.96455 0.99566 0.0
C1344 C 0.27992 0.01136 0.04039 0.0
C1345 C 0.30848 0.98003 0.01136 0.0
N1346 N 0.2667 0.97536 0.06169 0.0
N1347 N 0.32954 0.01755 0.99794 0.0
H1348 H 0.3188 0.94519 0.99615 0.0
H1349 H 0.33006 0.97066 0.98136 0.0
H1350 H 0.33197 0.0369 0.99728 0.0
H1351 H 0.34331 0.00808 0.98996 0.0
H1352 H 0.25886 0.98598 0.07548 0.0
H1353 H 0.26594 0.95635 0.06421 0.0
H1354 H 0.25065 0.01969 0.06282 0.0
H1355 H 0.26559 0.04559 0.05118 0.0
C1356 C 0.76648 0.41064 0.31953 0.0
C1357 C 0.7737 0.39216 0.33515 0.0
C1358 C 0.7671 0.41979 0.37163 0.0
C1359 C 0.75466 0.43598 0.35646 0.0
N1360 N 0.75972 0.45423 0.31791 0.0
N1361 N 0.77657 0.37776 0.37637 0.0
C1362 C 0.75845 0.43351 0.33052 0.0
C1363 C 0.77241 0.39622 0.36122 0.0
N1364 N 0.76768 0.40644 0.29433 0.0
N1365 N 0.77652 0.42827 0.39559 0.0
H1366 H 0.7809 0.36005 0.36979 0.0
H1367 H 0.77332 0.37951 0.39519 0.0
H1368 H 0.77633 0.44697 0.40242 0.0
H1369 H 0.78734 0.41789 0.407 0.0
H1370 H 0.76059 0.41793 0.28148 0.0
H1371 H 0.77403 0.3902 0.28614 0.0
H1372 H 0.76256 0.45401 0.29908 0.0
H1373 H 0.76408 0.47193 0.32762 0.0
C1374 C 0.60788 0.52097 0.01845 0.0
C1375 C 0.60564 0.53265 0.99592 0.0
C1376 C 0.62471 0.49853 0.97406 0.0
C1377 C 0.62765 0.48746 0.9968 0.0
N1378 N 0.61515 0.48308 0.03783 0.0
N1379 N 0.60499 0.52928 0.95097 0.0
C1380 C 0.61646 0.49689 0.01793 0.0
C1381 C 0.61172 0.52027 0.97322 0.0
N1382 N 0.60359 0.53354 0.0406 0.0
N1383 N 0.63564 0.48914 0.95383 0.0
H1384 H 0.59539 0.54516 0.94983 0.0
H1385 H 0.6069 0.51984 0.93362 0.0
H1386 H 0.6444 0.47267 0.95369 0.0
H1387 H 0.63692 0.49816 0.93768 0.0
H1388 H 0.6077 0.52701 0.05794 0.0
H1389 H 0.59784 0.55152 0.04198 0.0
H1390 H 0.60555 0.48795 0.05316 0.0
H1391 H 0.62166 0.46541 0.03766 0.0
C1392 C 0.68821 0.39449 0.10869 0.0
C1393 C 0.69693 0.37922 0.12697 0.0
C1394 C 0.71676 0.35564 0.09401 0.0
C1395 C 0.70291 0.36677 0.07489 0.0
N1396 N 0.6724 0.39567 0.06564 0.0
N1397 N 0.71765 0.34284 0.13605 0.0
C1398 C 0.68821 0.38627 0.08273 0.0
C1399 C 0.71101 0.3593 0.11944 0.0
N1400 N 0.67954 0.41674 0.11606 0.0
N1401 N 0.73501 0.34096 0.08787 0.0
H1402 H 0.71345 0.34452 0.15458 0.0
H1403 H 0.72526 0.32629 0.13081 0.0
H1404 H 0.74045 0.3389 0.06987 0.0
H1405 H 0.74675 0.33356 0.10115 0.0
H1406 H 0.6749 0.42966 0.10363 0.0
H1407 H 0.67946 0.42334 0.13487 0.0
H1408 H 0.65924 0.40782 0.07044 0.0
H1409 H 0.67093 0.38947 0.04684 0.0
C1410 C 0.02696 0.28813 0.98853 0.0
C1411 C 0.02327 0.26498 0.97333 0.0
C1412 C 0.00805 0.24435 0.00827 0.0
C1413 C 0.00669 0.2681 0.02139 0.0
N1414 N 0.01339 0.31328 0.02327 0.0
N1415 N 0.0076 0.22106 0.96778 0.0
C1416 C 0.01618 0.29024 0.0116 0.0
C1417 C 0.01345 0.24294 0.98303 0.0
N1418 N 0.04061 0.30805 0.98078 0.0
N1419 N 1.00394 0.22317 0.01997 0.0
H1420 H 0.01066 0.21909 0.94894 0.0
H1421 H 0.99768 0.20535 0.9733 0.0
H1422 H 1.00018 0.22375 0.03865 0.0
H1423 H 0.00685 0.20543 0.01204 0.0
H1424 H 0.04597 0.32476 0.9921 0.0
H1425 H 0.04865 0.30688 0.96388 0.0
H1426 H 0.01749 0.32991 0.01542 0.0
H1427 H 1.00516 0.31583 0.03992 0.0
C1428 C 0.35945 0.7895 0.41351 0.0
C1429 C 0.33934 0.77845 0.39579 0.0
C1430 C 0.33325 0.74303 0.42107 0.0
C1431 C 0.35392 0.75379 0.43815 0.0
N1432 N 0.38079 0.79057 0.45533 0.0
N1433 N 0.3031 0.74839 0.38582 0.0
C1434 C 0.36484 0.77829 0.43595 0.0
C1435 C 0.32483 0.7564 0.4007 0.0
N1436 N 0.37458 0.80968 0.40819 0.0
N1437 N 0.32248 0.71963 0.42372 0.0
H1438 H 0.29667 0.75792 0.37089 0.0
H1439 H 0.29044 0.73372 0.3894 0.0
H1440 H 0.32802 0.70963 0.43857 0.0
H1441 H 0.30857 0.70981 0.41094 0.0
H1442 H 0.39125 0.81656 0.41902 0.0
H1443 H 0.37173 0.8184 0.39186 0.0
H1444 H 0.38773 0.80932 0.45594 0.0
H1445 H 0.38493 0.78265 0.47198 0.0
C1446 C 0.9935 0.6058 0.50823 0.0
C1447 C 0.97886 0.61685 0.52604 0.0
C1448 C 0.96827 0.64838 0.49813 0.0
C1449 C 0.98638 0.6401 0.48281 0.0
N1450 N 0.00997 0.60752 0.46772 0.0
N1451 N 0.94967 0.64619 0.53736 0.0
C1452 C 0.99659 0.6173 0.4859 0.0
C1453 C 0.96489 0.63707 0.52049 0.0
N1454 N 1.00563 0.58543 0.51355 0.0
N1455 N 0.95533 0.66779 0.49149 0.0
H1456 H 0.94639 0.63774 0.55354 0.0
H1457 H 0.9405 0.66219 0.53575 0.0
H1458 H 0.95786 0.67591 0.47496 0.0
H1459 H 0.94119 0.67476 0.5011 0.0
H1460 H 0.01828 0.57758 0.50249 0.0
H1461 H 1.0034 0.57645 0.52963 0.0
H1462 H 0.01739 0.59039 0.46777 0.0
H1463 H 0.01204 0.61617 0.45139 0.0
C1464 C 0.88201 0.30352 0.65406 0.0
C1465 C 0.87268 0.3272 0.65173 0.0
C1466 C 0.91128 0.34768 0.67491 0.0
C1467 C 0.92273 0.32485 0.67366 0.0
N1468 N 0.91793 0.2802 0.66358 0.0
N1469 N 0.88143 0.37217 0.65516 0.0
C1470 C 0.90774 0.30242 0.66372 0.0
C1471 C 0.88828 0.34932 0.66059 0.0
N1472 N 0.86611 0.28221 0.64764 0.0
N1473 N 0.92114 0.36751 0.69154 0.0
H1474 H 0.86478 0.37446 0.64447 0.0
H1475 H 0.89358 0.38857 0.65909 0.0
H1476 H 0.93512 0.36584 0.70558 0.0
H1477 H 0.91253 0.38395 0.69432 0.0
H1478 H 0.87078 0.2644 0.65084 0.0
H1479 H 0.84748 0.28256 0.64044 0.0
H1480 H 0.90936 0.26355 0.6539 0.0
H1481 H 0.93529 0.27862 0.6732 0.0
C1482 C 0.58989 0.66705 0.21778 0.0
C1483 C 0.61435 0.67347 0.23035 0.0
C1484 C 0.59625 0.6727 0.27033 0.0
C1485 C 0.57412 0.65918 0.25779 0.0
N1486 N 0.5489 0.64491 0.21881 0.0
N1487 N 0.63236 0.70151 0.26608 0.0
C1488 C 0.57041 0.65719 0.23125 0.0
C1489 C 0.61537 0.68202 0.25613 0.0
N1490 N 0.58443 0.67373 0.19429 0.0
N1491 N 0.59967 0.67556 0.29581 0.0
H1492 H 0.64382 0.71114 0.25481 0.0
H1493 H 0.63252 0.71001 0.28428 0.0
H1494 H 0.58557 0.67026 0.30686 0.0
H1495 H 0.61711 0.68166 0.30549 0.0
H1496 H 0.56637 0.67135 0.18501 0.0
H1497 H 0.59749 0.68477 0.18583 0.0
H1498 H 0.54668 0.64046 0.19944 0.0
H1499 H 0.5339 0.63814 0.22804 0.0
C1500 C 0.49143 0.03782 0.39232 0.0
C1501 C 0.48195 0.01441 0.39947 0.0
C1502 C 0.51923 0.99611 0.38736 0.0
C1503 C 0.52463 0.01699 0.37414 0.0
N1504 N 0.51912 0.05918 0.36624 0.0
N1505 N 0.48663 0.97077 0.40389 0.0
C1506 C 0.51214 0.03866 0.37792 0.0
C1507 C 0.49613 0.99352 0.39775 0.0
N1508 N 0.48031 0.05888 0.39897 0.0
N1509 N 0.53543 0.97809 0.38816 0.0
H1510 H 0.46946 0.96788 0.41116 0.0
H1511 H 0.49493 0.95431 0.40012 0.0
H1512 H 0.55225 0.97976 0.37998 0.0
H1513 H 0.53341 0.96303 0.39883 0.0
H1514 H 0.4874 0.0768 0.3958 0.0
H1515 H 0.46511 0.05857 0.40965 0.0
H1516 H 0.50909 0.07477 0.36577 0.0
H1517 H 0.53491 0.06005 0.35637 0.0
C1518 C 0.02704 0.96887 0.72982 0.0
C1519 C 0.04267 0.98813 0.72109 0.0
C1520 C 1.00585 0.00897 0.70813 0.0
C1521 C 0.99087 0.99217 0.72061 0.0
N1522 N 0.98681 0.95654 0.74427 0.0
N1523 N 0.04755 0.02801 0.7042 0.0
C1524 C 1.00125 0.97195 0.73141 0.0
C1525 C 0.03223 0.00848 0.71058 0.0
N1526 N 0.03684 0.94762 0.73635 0.0
N1527 N 0.99471 0.02556 0.69414 0.0
H1528 H 0.06705 0.02847 0.70576 0.0
H1529 H 0.04112 0.0447 0.69929 0.0
H1530 H 0.97531 0.02618 0.69196 0.0
H1531 H 1.00431 0.03688 0.68281 0.0
H1532 H 0.02597 0.93186 0.74049 0.0
H1533 H 0.05572 0.94496 0.73561 0.0
H1534 H 0.99398 0.94335 0.75513 0.0
H1535 H 0.9677 0.95786 0.74516 0.0
C1536 C 0.67519 0.87853 0.31251 0.0
C1537 C 0.65255 0.87328 0.32347 0.0
C1538 C 0.64217 0.91534 0.31628 0.0
C1539 C 0.66685 0.92285 0.31135 0.0
N1540 N 0.70803 0.90995 0.30538 0.0
N1541 N 0.61623 0.88944 0.33976 0.0
C1542 C 0.68369 0.90393 0.30928 0.0
C1543 C 0.6365 0.89249 0.32652 0.0
N1544 N 0.68836 0.8593 0.30472 0.0
N1545 N 0.62371 0.92959 0.30965 0.0
H1546 H 0.61185 0.87334 0.34845 0.0
H1547 H 0.60542 0.90402 0.34416 0.0
H1548 H 0.62738 0.94344 0.29789 0.0
H1549 H 0.60489 0.92465 0.31173 0.0
H1550 H 0.70348 0.86168 0.29415 0.0
H1551 H 0.6826 0.84065 0.30673 0.0
H1552 H 0.72166 0.89751 0.307 0.0
H1553 H 0.71492 0.92753 0.30142 0.0
C1554 C 0.73995 0.02934 0.97499 0.0
C1555 C 0.72056 0.04207 0.98491 0.0
C1556 C 0.70049 1.00238 0.9958 0.0
C1557 C 0.72176 0.99047 0.98939 0.0
N1558 N 0.76162 0.99169 0.97256 0.0
N1559 N 0.68241 0.04145 0.00493 0.0
C1560 C 0.74129 1.00362 0.97847 0.0
C1561 C 0.70058 0.0287 0.99497 0.0
N1562 N 0.75709 0.04199 0.96237 0.0
N1563 N 0.6804 0.98848 1.00302 0.0
H1564 H 0.68141 0.06055 1.00381 0.0
H1565 H 0.66905 0.03354 0.01538 0.0
H1566 H 0.68004 0.96929 0.00436 0.0
H1567 H 0.66333 0.99539 0.00575 0.0
H1568 H 0.77047 0.03351 0.95278 0.0
H1569 H 0.75672 0.06091 0.95985 0.0
H1570 H 0.77802 1.00073 0.96751 0.0
H1571 H 0.76243 0.97255 0.97365 0.0
C1572 C 0.25767 0.60749 0.6858 0.0
C1573 C 0.2384 0.61528 0.66934 0.0
C1574 C 0.24024 0.57774 0.64066 0.0
C1575 C 0.26299 0.57308 0.65405 0.0
N1576 N 0.29351 0.58329 0.69007 0.0
N1577 N 0.21354 0.6092 0.62906 0.0
C1578 C 0.27158 0.58761 0.67712 0.0
C1579 C 0.23 0.6006 0.64634 0.0
N1580 N 0.26259 0.61911 0.70959 0.0
N1581 N 0.22874 0.56037 0.62208 0.0
H1582 H 0.206 0.62623 0.63189 0.0
H1583 H 0.20922 0.6005 0.61088 0.0
H1584 H 0.23569 0.54318 0.6179 0.0
H1585 H 0.21112 0.56187 0.61289 0.0
H1586 H 0.27473 0.61291 0.72333 0.0
H1587 H 0.2527 0.6337 0.71621 0.0
H1588 H 0.30169 0.59437 0.70609 0.0
H1589 H 0.30421 0.56914 0.68419 0.0
C1590 C 0.41161 0.48637 1.0037 0.0
C1591 C 0.40887 0.46823 0.02098 0.0
C1592 C 0.37851 0.49199 0.04156 0.0
C1593 C 0.3791 0.50824 0.02247 0.0
N1594 N 0.40086 0.52654 0.9909 0.0
N1595 N 0.39492 0.45645 0.05979 0.0
C1596 C 0.39758 0.50743 0.00558 0.0
C1597 C 0.39414 0.47209 0.04125 0.0
N1598 N 0.42634 0.48262 0.98465 0.0
N1599 N 0.36182 0.49496 0.05893 0.0
H1600 H 0.4062 0.44171 0.05989 0.0
H1601 H 0.38569 0.45876 0.07581 0.0
H1602 H 0.35117 0.51019 0.05984 0.0
H1603 H 0.35827 0.48259 0.07215 0.0
H1604 H 0.42716 0.49371 0.96991 0.0
H1605 H 0.43707 0.46752 0.98288 0.0
H1606 H 0.41506 0.5283 0.97918 0.0
H1607 H 0.39044 0.54193 0.99227 0.0
C1608 C 0.31189 0.65805 0.88573 0.0
C1609 C 0.32611 0.67189 0.86978 0.0
C1610 C 0.32803 0.70905 0.90049 0.0
C1611 C 0.31857 0.69394 0.91836 0.0
N1612 N 0.30134 0.65384 0.92801 0.0
N1613 N 0.34905 0.7107 0.86269 0.0
C1614 C 0.30993 0.66847 0.91075 0.0
C1615 C 0.3341 0.69762 0.87711 0.0
N1616 N 0.30034 0.63488 0.87691 0.0
N1617 N 0.33224 0.73434 0.90656 0.0
H1618 H 0.35406 0.70304 0.84562 0.0
H1619 H 0.35799 0.72852 0.86843 0.0
H1620 H 0.32818 0.74284 0.92371 0.0
H1621 H 0.33737 0.74688 0.89394 0.0
H1622 H 0.28793 0.62467 0.88674 0.0
H1623 H 0.30139 0.62687 0.85871 0.0
H1624 H 0.29774 0.63444 0.92496 0.0
H1625 H 0.29891 0.66144 0.94593 0.0
C1626 C 0.97975 0.74467 0.02485 0.0
C1627 C 0.98823 0.72484 0.0378 0.0
C1628 C 0.99878 0.70363 0.99853 0.0
C1629 C 0.9943 0.72533 0.98662 0.0
N1630 N 0.98036 0.76654 0.98754 0.0
N1631 N 0.00655 0.68562 0.03771 0.0
C1632 C 0.98432 0.74572 0.99944 0.0
C1633 C 0.99753 0.7041 0.02477 0.0
N1634 N 0.9672 0.76234 0.03689 0.0
N1635 N 1.00459 0.68279 0.98471 0.0
H1636 H 1.00585 0.68518 0.05692 0.0
H1637 H 0.01623 0.67153 0.02982 0.0
H1638 H 0.006 0.68217 0.96551 0.0
H1639 H 1.00579 0.66552 0.99166 0.0
H1640 H 0.95852 0.77603 0.02797 0.0
H1641 H 0.96365 0.76204 0.05556 0.0
H1642 H 0.97627 0.78335 0.99661 0.0
H1643 H 0.98224 0.7673 0.96853 0.0
C1644 C 0.68233 0.24195 0.60335 0.0
C1645 C 0.67489 0.25168 0.62667 0.0
C1646 C 0.65826 0.28619 0.60586 0.0
C1647 C 0.66053 0.27345 0.58208 0.0
N1648 N 0.67413 0.23814 0.55805 0.0
N1649 N 0.65211 0.28171 0.64908 0.0
C1650 C 0.67286 0.25125 0.58073 0.0
C1651 C 0.66226 0.27374 0.62779 0.0
N1652 N 0.69841 0.22379 0.60288 0.0
N1653 N 0.65105 0.30985 0.60718 0.0
H1654 H 0.65343 0.27274 0.66535 0.0
H1655 H 0.64008 0.29577 0.64982 0.0
H1656 H 0.64854 0.31949 0.59136 0.0
H1657 H 0.64972 0.32055 0.62395 0.0
H1658 H 0.70627 0.21747 0.58682 0.0
H1659 H 0.7058 0.21689 0.61915 0.0
H1660 H 0.68017 0.22031 0.55609 0.0
H1661 H 0.66773 0.24444 0.54115 0.0
C1662 C 0.04405 0.38797 0.48745 0.0
C1663 C 0.02348 0.4002 0.47802 0.0
C1664 C 1.00283 0.39426 0.51558 0.0
C1665 C 0.02053 0.37762 0.5224 0.0
N1666 N 0.0598 0.36101 0.51789 0.0
N1667 N 0.98446 0.41779 0.48433 0.0
C1668 C 0.04216 0.37581 0.5096 0.0
C1669 C 1.00356 0.40466 0.49269 0.0
N1670 N 0.06499 0.38785 0.47499 0.0
N1671 N 0.98373 0.39883 0.52966 0.0
H1672 H 0.98363 0.42541 0.46725 0.0
H1673 H 0.9693 0.42085 0.49457 0.0
H1674 H 0.9818 0.39185 0.54686 0.0
H1675 H 0.9818 0.39185 0.54686 0.0
H1676 H 0.08133 0.38058 0.48148 0.0
H1677 H 0.06659 0.3967 0.45872 0.0
H1678 H 0.07496 0.35656 0.50833 0.0
H1679 H 0.0588 0.35285 0.53464 0.0
C1680 C 0.31699 0.58349 0.54711 0.0
C1681 C 0.29546 0.57758 0.52943 0.0
C1682 C 0.27657 0.54932 0.55726 0.0
C1683 C 0.29824 0.55489 0.57477 0.0
N1684 N 0.34017 0.5746 0.58579 0.0
N1685 N 0.25639 0.5525 0.51564 0.0
C1686 C 0.31886 0.57113 0.56942 0.0
C1687 C 0.27574 0.55976 0.53393 0.0
N1688 N 0.33533 0.60136 0.54273 0.0
N1689 N 0.25633 0.53482 0.56347 0.0
H1690 H 0.25461 0.56043 0.49872 0.0
H1691 H 0.2429 0.53757 0.51642 0.0
H1692 H 0.25677 0.52557 0.57962 0.0
H1693 H 0.23871 0.53284 0.55334 0.0
H1694 H 0.3505 0.60838 0.55561 0.0
H1695 H 0.33469 0.61044 0.52647 0.0
H1696 H 0.35673 0.5847 0.58256 0.0
H1697 H 0.34188 0.56581 0.60221 0.0
C1698 C 0.29341 0.46781 0.92866 0.0
C1699 C 0.28052 0.44756 0.9388 0.0
C1700 C 0.28302 0.47283 0.97941 0.0
C1701 C 0.29906 0.49135 0.97027 0.0
N1702 N 0.32063 0.50672 0.93677 0.0
N1703 N 0.26454 0.42971 0.97426 0.0
C1704 C 0.30432 0.48906 0.94493 0.0
C1705 C 0.27541 0.44988 0.96425 0.0
N1706 N 0.29478 0.46692 0.90341 0.0
N1707 N 0.27534 0.47721 1.00272 0.0
H1708 H 0.25897 0.4125 0.96383 0.0
H1709 H 0.26278 0.42934 0.99328 0.0
H1710 H 0.28086 0.49386 0.01418 0.0
H1711 H 0.2618 0.46554 0.00974 0.0
H1712 H 0.30176 0.48205 0.89458 0.0
H1713 H 0.28696 0.45169 0.89088 0.0
H1714 H 0.32798 0.50453 0.91962 0.0
H1715 H 0.32783 0.52321 0.9478 0.0
C1716 C 0.69562 0.97583 0.44193 0.0
C1717 C 0.69295 1.00007 0.45333 0.0
C1718 C 0.6916 0.01692 0.41278 0.0
C1719 C 0.69356 0.9924 0.40114 0.0
N1720 N 0.70504 0.95062 0.40519 0.0
N1721 N 0.68418 0.04265 0.45021 0.0
C1722 C 0.69731 0.97229 0.4158 0.0
C1723 C 0.6899 0.02038 0.43894 0.0
N1724 N 0.69627 0.9561 0.45612 0.0
N1725 N 0.69219 0.03708 0.39912 0.0
H1726 H 0.68299 0.04584 0.46943 0.0
H1727 H 0.67851 0.05727 0.44045 0.0
H1728 H 0.69182 0.03567 0.37973 0.0
H1729 H 0.69438 0.05559 0.40708 0.0
H1730 H 0.69479 0.93748 0.44858 0.0
H1731 H 0.69642 0.95807 0.47555 0.0
H1732 H 0.71075 0.93628 0.41531 0.0
H1733 H 0.7086 0.94792 0.38654 0.0
C1734 C 0.75123 0.94985 0.10502 0.0
C1735 C 0.77532 0.96323 0.11008 0.0
C1736 C 0.78151 0.95709 0.06565 0.0
C1737 C 0.75578 0.94812 0.06027 0.0
N1738 N 0.71519 0.9381 0.07472 0.0
N1739 N 0.81389 0.97988 0.0958 0.0
C1740 C 0.74043 0.94463 0.07991 0.0
C1741 C 0.79083 0.96663 0.09059 0.0
N1742 N 0.73867 0.94228 0.12431 0.0
N1743 N 0.79687 0.95642 0.04686 0.0
H1744 H 0.82144 0.9865 0.11399 0.0
H1745 H 0.82496 0.98545 0.08208 0.0
H1746 H 0.79041 0.9494 0.02846 0.0
H1747 H 0.81623 0.96067 0.04985 0.0
H1748 H 0.72211 0.93032 0.12165 0.0
H1749 H 0.74613 0.94589 0.14301 0.0
H1750 H 0.70276 0.93831 0.08839 0.0
H1751 H 0.70618 0.93442 0.05662 0.0
C1752 C 0.53681 0.30354 0.56185 0.0
C1753 C 0.52796 0.28179 0.57266 0.0
C1754 C 0.56229 0.26029 0.55665 0.0
C1755 C 0.57366 0.28331 0.55014 0.0
N1756 N 0.57305 0.32815 0.55052 0.0
N1757 N 0.53508 0.2405 0.58386 0.0
C1758 C 0.56118 0.3053 0.55356 0.0
C1759 C 0.54134 0.26032 0.57085 0.0
N1760 N 0.5218 0.3224 0.55911 0.0
N1761 N 0.57167 0.23838 0.54932 0.0
H1762 H 0.52041 0.24006 0.59519 0.0
H1763 H 0.54598 0.2256 0.58535 0.0
H1764 H 0.58668 0.23773 0.53843 0.0
H1765 H 0.56295 0.22085 0.5518 0.0
H1766 H 0.52642 0.33758 0.54921 0.0
H1767 H 0.5036 0.32151 0.56437 0.0
H1768 H 0.56577 0.34494 0.55557 0.0
H1769 H 0.5911 0.33061 0.54511 0.0
C1770 C 0.11204 0.75931 0.94207 0.0
C1771 C 0.1178 0.77798 0.96254 0.0
C1772 C 0.07313 0.78215 0.96356 0.0
C1773 C 0.0675 0.75955 0.94738 0.0
N1774 N 0.08283 0.72441 0.92401 0.0
N1775 N 0.10377 0.80666 0.99408 0.0
C1776 C 0.08721 0.74769 0.93693 0.0
C1777 C 0.09835 0.78959 0.97349 0.0
N1778 N 0.13047 0.75234 0.92794 0.0
N1779 N 0.05439 0.79645 0.96935 0.0
H1780 H 0.12207 0.81275 1.00171 0.0
H1781 H 0.09006 0.81345 0.00454 0.0
H1782 H 0.03582 0.79184 0.96171 0.0
H1783 H 0.0577 0.81404 0.97952 0.0
H1784 H 0.12683 0.74038 0.91139 0.0
H1785 H 0.1489 0.76069 0.93136 0.0
H1786 H 0.09717 0.71425 0.91816 0.0
H1787 H 0.06539 0.71395 0.92143 0.0
C1788 C 0.92786 0.30635 0.4777 0.0
C1789 C 0.93513 0.28535 0.46336 0.0
C1790 C 0.96883 0.28134 0.49654 0.0
C1791 C 0.9625 0.30336 0.50996 0.0
N1792 N 0.93471 0.33624 0.51365 0.0
N1793 N 0.96309 0.25333 0.4578 0.0
C1794 C 0.9416 0.31539 0.50085 0.0
C1795 C 0.95563 0.27274 0.47256 0.0
N1796 N 0.9079 0.31824 0.4691 0.0
N1797 N 0.98761 0.26892 0.50684 0.0
H1798 H 0.95393 0.24681 0.44017 0.0
H1799 H 0.97902 0.24442 0.46217 0.0
H1800 H 0.99724 0.27499 0.52438 0.0
H1801 H 0.99258 0.2519 0.49915 0.0
H1802 H 0.90227 0.33396 0.47902 0.0
H1803 H 0.89693 0.3124 0.45223 0.0
H1804 H 0.94349 0.34428 0.53099 0.0
H1805 H 0.94349 0.34428 0.53099 0.0
C1806 C 0.42641 0.69166 0.00496 0.0
C1807 C 0.44401 0.70226 0.99002 0.0
C1808 C 0.41079 0.71931 0.96487 0.0
C1809 C 0.393 0.70755 0.97883 0.0
N1810 N 0.38278 0.67859 0.00878 0.0
N1811 N 0.4529 0.72123 0.95259 0.0
C1812 C 0.40047 0.69256 0.99796 0.0
C1813 C 0.43617 0.71457 0.96897 0.0
N1814 N 0.43452 0.6813 0.02607 0.0
N1815 N 0.40358 0.73573 0.94837 0.0
H1816 H 0.47178 0.71813 0.955 0.0
H1817 H 0.44765 0.72771 0.93547 0.0
H1818 H 0.38508 0.73982 0.94493 0.0
H1819 H 0.41621 0.74694 0.93969 0.0
H1820 H 0.42276 0.6758 0.03925 0.0
H1821 H 0.45341 0.6797 0.03129 0.0
H1822 H 0.38705 0.66544 0.02107 0.0
H1823 H 0.3636 0.67854 1.00381 0.0
C1824 C 0.57 0.53933 0.30493 0.0
C1825 C 0.58109 0.53049 0.28329 0.0
C1826 C 0.56367 0.56354 0.26109 0.0
C1827 C 0.55677 0.57509 0.28389 0.0
N1828 N 0.55729 0.57543 0.32881 0.0
N1829 N 0.5927 0.53786 0.2422 0.0
C1830 C 0.5608 0.56331 0.30621 0.0
C1831 C 0.57901 0.54354 0.26168 0.0
N1832 N 0.56774 0.52463 0.32405 0.0
N1833 N 0.5554 0.5716 0.23878 0.0
H1834 H 0.605 0.52401 0.24224 0.0
H1835 H 0.59379 0.54869 0.22724 0.0
H1836 H 0.54323 0.58554 0.23753 0.0
H1837 H 0.55837 0.56257 0.22152 0.0
H1838 H 0.55767 0.5292 0.33913 0.0
H1839 H 0.57364 0.50671 0.3235 0.0
H1840 H 0.56249 0.56863 0.3458 0.0
H1841 H 0.5514 0.59331 0.33082 0.0
C1842 C 0.94631 0.10205 0.75698 0.0
C1843 C 0.9617 0.10705 0.77995 0.0
C1844 C 0.95707 0.06259 0.78594 0.0
C1845 C 0.94636 0.05733 0.76074 0.0
N1846 N 0.93366 0.07231 0.72089 0.0
N1847 N 0.98212 0.09262 0.81681 0.0
C1848 C 0.94126 0.07709 0.74595 0.0
C1849 C 0.96688 0.08752 0.79487 0.0
N1850 N 0.93692 0.12128 0.74555 0.0
N1851 N 0.95797 0.04369 0.80108 0.0
H1852 H 0.98915 0.11078 0.82404 0.0
H1853 H 0.98888 0.07882 0.82712 0.0
H1854 H 0.95075 0.0253 0.79484 0.0
H1855 H 0.96369 0.04659 0.8202 0.0
H1856 H 0.92367 0.11847 0.72992 0.0
H1857 H 0.94037 0.1399 0.75327 0.0
H1858 H 0.93265 0.08634 0.7089 0.0
H1859 H 0.93057 0.05441 0.71141 0.0
C1860 C 0.48067 0.92665 0.29277 0.0
C1861 C 0.46193 0.93679 0.27761 0.0
C1862 C 0.49028 0.97509 0.27708 0.0
C1863 C 0.50748 0.96632 0.29491 0.0
N1864 N 0.51849 0.93471 0.3216 0.0
N1865 N 0.44766 0.97146 0.25695 0.0
C1866 C 0.50267 0.9422 0.30303 0.0
C1867 C 0.46649 0.96116 0.26994 0.0
N1868 N 0.47768 0.90199 0.29697 0.0
N1869 N 0.49676 0.99694 0.26725 0.0
H1870 H 0.42994 0.96192 0.25167 0.0
H1871 H 0.44887 0.99005 0.25305 0.0
H1872 H 0.51411 0.00735 0.27233 0.0
H1873 H 0.48612 1.00352 0.25259 0.0
H1874 H 0.49177 0.89286 0.30568 0.0
H1875 H 0.4618 0.88997 0.28988 0.0
H1876 H 0.5142 0.91906 0.33092 0.0
H1877 H 0.53542 0.94498 0.32874 0.0
C1878 C 0.02297 0.44173 0.69803 0.0
C1879 C 0.01409 0.45003 0.67522 0.0
C1880 C 1.00529 0.40656 0.6573 0.0
C1881 C 0.00758 0.39885 0.68185 0.0
N1882 N 0.01021 0.41317 0.7264 0.0
N1883 N 0.99624 0.44047 0.6324 0.0
C1884 C 0.01485 0.41727 0.70262 0.0
C1885 C 1.00535 0.43249 0.65442 0.0
N1886 N 0.03684 0.45792 0.71617 0.0
N1887 N 1.00341 0.38935 0.63691 0.0
H1888 H 0.99674 0.45942 0.62971 0.0
H1889 H 0.98708 0.42833 0.61749 0.0
H1890 H 1.00462 0.37051 0.63873 0.0
H1891 H 1.00349 0.39414 0.61864 0.0
H1892 H 0.04477 0.45205 0.73276 0.0
H1893 H 0.04244 0.4764 0.7133 0.0
H1894 H 0.01429 0.4269 0.74156 0.0
H1895 H 0.99816 0.3983 0.73031 0.0
C1896 C 0.69283 0.43057 0.46094 0.0
C1897 C 0.71581 0.42802 0.47579 0.0
C1898 C 0.73859 0.45265 0.44792 0.0
C1899 C 0.71605 0.45622 0.4337 0.0
N1900 N 0.67109 0.45077 0.42786 0.0
N1901 N 0.75722 0.4195 0.46611 0.0
C1902 C 0.69292 0.44586 0.44062 0.0
C1903 C 0.7383 0.43459 0.46517 0.0
N1904 N 0.67174 0.41543 0.46374 0.0
N1905 N 0.76065 0.46541 0.44394 0.0
H1906 H 0.75417 0.40124 0.47091 0.0
H1907 H 0.77339 0.42292 0.45717 0.0
H1908 H 0.76148 0.47908 0.43146 0.0
H1909 H 0.77744 0.4637 0.45473 0.0
H1910 H 0.65508 0.41439 0.45208 0.0
H1911 H 0.67191 0.40136 0.47569 0.0
H1912 H 0.65346 0.44628 0.43363 0.0
H1913 H 0.67074 0.46139 0.41266 0.0
C1914 C 0.73115 0.53156 0.04312 0.0
C1915 C 0.73279 0.53139 0.06954 0.0
C1916 C 0.71433 0.48762 0.06452 0.0
C1917 C 0.71207 0.48807 0.03816 0.0
N1918 N 0.72551 0.50698 1.0025 0.0
N1919 N 0.73368 0.50711 0.10491 0.0
C1920 C 0.72337 0.50885 0.02762 0.0
C1921 C 0.72695 0.50865 0.08008 0.0
N1922 N 0.73527 0.55359 0.03282 0.0
N1923 N 0.70303 0.46789 0.07478 0.0
H1924 H 0.74325 0.52205 0.11675 0.0
H1925 H 0.73202 0.49041 0.11315 0.0
H1926 H 0.69446 0.45177 0.06407 0.0
H1927 H 0.70114 0.46805 0.09383 0.0
H1928 H 0.73168 0.5552 0.01375 0.0
H1929 H 0.74031 0.57074 0.04352 0.0
H1930 H 0.73517 0.52074 0.99375 0.0
H1931 H 0.71963 0.49042 0.99099 0.0
C1932 C 0.35315 0.00967 0.57109 0.0
C1933 C 0.33505 0.99369 0.55498 0.0
C1934 C 0.30894 0.98824 0.58849 0.0
C1935 C 0.32682 1.00442 0.60516 0.0
N1936 N 0.36974 0.02284 0.61414 0.0
N1937 N 0.30257 0.95957 0.5507 0.0
C1938 C 0.35035 0.01251 0.59709 0.0
C1939 C 0.31571 0.97967 0.56484 0.0
N1940 N 0.37211 0.02297 0.56147 0.0
N1941 N 0.28468 0.98337 0.59359 0.0
H1942 H 0.30718 0.95347 0.5329 0.0
H1943 H 0.28921 0.94769 0.55778 0.0
H1944 H 0.27727 0.99209 0.60886 0.0
H1945 H 0.27094 0.97313 0.58079 0.0
H1946 H 0.38422 0.03705 0.57207 0.0
H1947 H 0.37486 0.02052 0.54253 0.0
H1948 H 0.38774 0.02755 0.60934 0.0
H1949 H 0.36835 0.02424 0.63339 0.0
C1950 C 0.25001 0.0676 0.90997 0.0
C1951 C 0.22754 0.05133 0.90617 0.0
C1952 C 0.2288 0.04892 0.95133 0.0
C1953 C 0.25334 0.06159 0.95448 0.0
N1954 N 0.28938 0.07855 0.93546 0.0
N1955 N 0.19705 0.02346 0.92285 0.0
C1956 C 0.26452 0.06993 0.93348 0.0
C1957 C 0.2172 0.04122 0.92676 0.0
N1958 N 0.25737 0.08106 0.89121 0.0
N1959 N 0.21644 0.04466 0.97177 0.0
H1960 H 0.18821 0.017 0.90509 0.0
H1961 H 0.19052 0.01357 0.93703 0.0
H1962 H 0.2242 0.05063 0.99005 0.0
H1963 H 0.19767 0.03752 0.97047 0.0
H1964 H 0.27232 0.09507 0.89391 0.0
H1965 H 0.24697 0.08005 0.87375 0.0
H1966 H 0.29876 0.08254 0.92004 0.0
H1967 H 0.30136 0.07915 0.95188 0.0
C1968 C 0.47711 0.73839 0.45447 0.0
C1969 C 0.48069 0.71974 0.43511 0.0
C1970 C 0.43848 0.6992 0.43785 0.0
C1971 C 0.43416 0.71903 0.45562 0.0
N1972 N 0.44781 0.75924 0.47863 0.0
N1973 N 0.46396 0.68423 0.40587 0.0
C1974 C 0.4531 0.73907 0.4634 0.0
C1975 C 0.46116 0.70056 0.42616 0.0
N1976 N 0.49686 0.75507 0.46477 0.0
N1977 N 0.42089 0.679 0.43234 0.0
H1978 H 0.48029 0.68465 0.39686 0.0
H1979 H 0.44953 0.67157 0.39668 0.0
H1980 H 0.40399 0.67764 0.44038 0.0
H1981 H 0.42377 0.66275 0.42143 0.0
H1982 H 0.49626 0.7673 0.48078 0.0
H1983 H 0.5146 0.75546 0.45844 0.0
H1984 H 0.45959 0.77585 0.48235 0.0
H1985 H 0.43082 0.76004 0.48636 0.0
C1986 C 0.88299 0.23537 0.06099 0.0
C1987 C 0.87048 0.24494 0.04009 0.0
C1988 C 0.90951 0.26967 0.03392 0.0
C1989 C 0.92273 0.25803 0.05292 0.0
N1990 N 0.92266 0.22588 0.08127 0.0
N1991 N 0.87367 0.26608 1.00284 0.0
C1992 C 0.90965 0.23976 0.06561 0.0
C1993 C 0.88432 0.26053 0.02539 0.0
N1994 N 0.86942 0.22276 0.07687 0.0
N1995 N 0.92058 0.29022 0.0247 0.0
H1996 H 0.85543 0.25924 0.99558 0.0
H1997 H 0.88383 0.2752 0.99024 0.0
H1998 H 0.93852 0.2985 0.0314 0.0
H1999 H 0.91093 0.30071 0.01244 0.0
H2000 H 0.87727 0.21777 0.09387 0.0
H2001 H 0.84995 0.21917 0.07407 0.0
H2002 H 0.91429 0.21069 0.0891 0.0
H2003 H 0.94217 0.22796 0.08456 0.0
C2004 C 0.05953 0.73393 0.54148 0.0
C2005 C 0.08411 0.7265 0.54545 0.0
C2006 C 0.07786 0.70047 0.50519 0.0
C2007 C 0.05353 0.70813 0.50108 0.0
N2008 N 0.02246 0.73527 0.51243 0.0
N2009 N 0.11725 0.70348 0.52983 0.0
C2010 C 0.0448 0.72595 0.51835 0.0
C2011 C 0.09346 0.71023 0.52704 0.0
N2012 N 0.04987 0.74752 0.56033 0.0
N2013 N 0.08623 0.68358 0.48822 0.0
H2014 H 0.13035 0.70979 0.54513 0.0
H2015 H 0.13035 0.70979 0.54513 0.0
H2016 H 0.07559 0.67623 0.47154 0.0
H2017 H 0.10392 0.67717 0.49084 0.0
H2018 H 0.03122 0.75126 0.55972 0.0
H2019 H 0.06003 0.75345 0.57763 0.0
H2020 H 0.01601 0.75005 0.52298 0.0
H2021 H 0.01125 0.72961 0.49565 0.0
C2022 C 0.58992 0.30161 0.05038 0.0
C2023 C 0.5785 0.28567 0.02914 0.0
C2024 C 0.61706 0.26462 0.02836 0.0
C2025 C 0.62962 0.28461 0.04451 0.0
N2026 N 0.62401 0.30689 0.08362 0.0
N2027 N 0.58065 0.24991 0.99903 0.0
C2028 C 0.61491 0.29877 0.05953 0.0
C2029 C 0.59172 0.26616 0.01873 0.0
N2030 N 0.57724 0.31958 0.06168 0.0
N2031 N 0.62822 0.24316 0.02487 0.0
H2032 H 0.56233 0.25075 0.99117 0.0
H2033 H 0.59037 0.23682 0.9895 0.0
H2034 H 0.64588 0.2415 0.03398 0.0
H2035 H 0.61863 0.22653 0.01607 0.0
H2036 H 0.58598 0.33331 0.07543 0.0
H2037 H 0.55847 0.32163 0.05639 0.0
H2038 H 0.64169 0.30283 0.09091 0.0
H2039 H 0.61334 0.31537 0.09651 0.0
C2040 C 0.45214 0.47674 0.7358 0.0
C2041 C 0.43306 0.48057 0.71694 0.0
C2042 C 0.43786 0.43958 0.69472 0.0
C2043 C 0.45513 0.43478 0.71477 0.0
N2044 N 0.47704 0.44743 0.75572 0.0
N2045 N 0.40558 0.46484 0.67982 0.0
C2046 C 0.46195 0.45308 0.73561 0.0
C2047 C 0.4254 0.46179 0.69667 0.0
N2048 N 0.46125 0.49594 0.75364 0.0
N2049 N 0.43364 0.42291 0.6737 0.0
H2050 H 0.39616 0.48092 0.68055 0.0
H2051 H 0.39719 0.45078 0.66628 0.0
H2052 H 0.44239 0.40643 0.6719 0.0
H2053 H 0.42322 0.42629 0.65733 0.0
H2054 H 0.47705 0.49537 0.76619 0.0
H2055 H 0.45408 0.5133 0.75481 0.0
H2056 H 0.47996 0.45845 0.77284 0.0
H2057 H 0.48563 0.43086 0.75584 0.0
C2058 C 0.03716 0.91208 0.2523 0.0
C2059 C 0.04294 0.90589 0.2275 0.0
C2060 C 0.05931 0.9497 0.2262 0.0
C2061 C 0.05887 0.95378 0.25244 0.0
N2062 N 0.04845 0.93824 0.29116 0.0
N2063 N 0.03989 0.92495 0.18876 0.0
C2064 C 0.0483 0.93471 0.26573 0.0
C2065 C 0.04873 0.92636 0.21345 0.0
N2066 N 0.01734 0.89931 0.26108 0.0
N2067 N 0.06966 0.96806 0.21343 0.0
H2068 H 0.02754 0.90987 0.1802 0.0
H2069 H 0.04158 0.94003 0.17807 0.0
H2070 H 0.07717 0.98557 0.2222 0.0
H2071 H 0.07258 0.96506 0.19459 0.0
H2072 H 0.01097 0.90453 0.27829 0.0
H2073 H 1.00499 0.88625 0.24937 0.0
H2074 H 0.04271 0.92384 0.30164 0.0
H2075 H 0.05622 0.95474 0.30183 0.0
C2076 C 0.53227 0.10141 0.72569 0.0
C2077 C 0.55458 0.09044 0.7328 0.0
C2078 C 0.5313 0.04875 0.72388 0.0
C2079 C 0.51016 0.05955 0.71339 0.0
N2080 N 0.49158 0.0962 0.7013 0.0
N2081 N 0.57628 0.05331 0.73448 0.0
C2082 C 0.51084 0.08593 0.7136 0.0
C2083 C 0.55433 0.06397 0.73087 0.0
N2084 N 0.53127 0.12654 0.73111 0.0
N2085 N 0.52926 0.02387 0.72728 0.0
H2086 H 0.59363 0.06381 0.73903 0.0
H2087 H 0.57759 0.03421 0.73059 0.0
H2088 H 0.51248 0.01232 0.72284 0.0
H2089 H 0.54334 0.01532 0.73678 0.0
H2090 H 0.51479 0.13514 0.7287 0.0
H2091 H 0.54638 0.13847 0.74021 0.0
H2092 H 0.49241 0.11503 0.69824 0.0
H2093 H 0.47546 0.08558 0.69252 0.0
C2094 C 0.98546 0.57323 0.34434 0.0
C2095 C 0.99522 0.554 0.3296 0.0
C2096 C 0.02134 0.58459 0.31066 0.0
C2097 C 0.01263 0.60402 0.3261 0.0
N2098 N 0.98976 0.61727 0.36045 0.0
N2099 N 0.02805 0.54095 0.30523 0.0
C2100 C 0.99575 0.59847 0.34396 0.0
C2101 C 0.0151 0.55959 0.31499 0.0
N2102 N 0.966 0.56741 0.35797 0.0
N2103 N 0.03408 0.58982 0.29067 0.0
H2104 H 0.02415 0.5222 0.30811 0.0
H2105 H 0.04433 0.54449 0.29656 0.0
H2106 H 0.03791 0.60785 0.28568 0.0
H2107 H 0.0384 0.57602 0.27737 0.0
H2108 H 0.95634 0.58075 0.36716 0.0
H2109 H 0.95864 0.54899 0.35901 0.0
H2110 H 0.97926 0.61424 0.37533 0.0
H2111 H 0.99698 0.63589 0.36034 0.0
C2112 C 0.41679 0.65651 0.31791 0.0
C2113 C 0.40882 0.64583 0.33931 0.0
C2114 C 0.44958 0.62877 0.34548 0.0
C2115 C 0.45563 0.63554 0.32172 0.0
N2116 N 0.44304 0.65383 0.28383 0.0
N2117 N 0.41699 0.61954 0.37235 0.0
C2118 C 0.4389 0.64921 0.30765 0.0
C2119 C 0.42515 0.63153 0.35294 0.0
N2120 N 0.40331 0.6739 0.30752 0.0
N2121 N 0.46749 0.62028 0.36131 0.0
H2122 H 0.39935 0.62103 0.37849 0.0
H2123 H 0.42694 0.6065 0.38106 0.0
H2124 H 0.48576 0.61871 0.35686 0.0
H2125 H 0.46506 0.61746 0.37982 0.0
H2126 H 0.40948 0.68431 0.29355 0.0
H2127 H 0.38719 0.67971 0.31464 0.0
H2128 H 0.43005 0.66123 0.27179 0.0
H2129 H 0.45837 0.64822 0.27515 0.0
C2130 C 0.11647 0.27255 0.74855 0.0
C2131 C 0.12798 0.28805 0.77009 0.0
C2132 C 0.09402 0.3144 0.76664 0.0
C2133 C 0.07874 0.29644 0.74873 0.0
N2134 N 0.08014 0.26196 0.71734 0.0
N2135 N 0.12431 0.32097 0.80268 0.0
C2136 C 0.09175 0.27662 0.73794 0.0
C2137 C 0.11525 0.30741 0.7805 0.0
N2138 N 0.12896 0.25348 0.73898 0.0
N2139 N 0.0925 0.33932 0.76577 0.0
H2140 H 0.14058 0.3176 0.81334 0.0
H2141 H 0.11419 0.33442 0.81121 0.0
H2142 H 0.10521 0.35343 0.77564 0.0
H2143 H 0.10521 0.35343 0.77564 0.0
H2144 H 0.12221 0.24093 0.72351 0.0
H2145 H 0.14632 0.24969 0.74727 0.0
H2146 H 0.08757 0.24698 0.70817 0.0
H2147 H 0.06298 0.2657 0.70857 0.0
C2148 C 0.81572 0.97009 0.67093 0.0
C2149 C 0.80265 0.99155 0.67492 0.0
C2150 C 0.83763 0.01222 0.70398 0.0
C2151 C 0.85078 0.99063 0.70038 0.0
N2152 N 0.85454 0.95082 0.67722 0.0
N2153 N 0.80316 0.0351 0.68973 0.0
C2154 C 0.84064 0.97024 0.68259 0.0
C2155 C 0.81428 0.01327 0.68974 0.0
N2156 N 0.80379 0.94913 0.65701 0.0
N2157 N 0.84718 0.03159 0.72144 0.0
H2158 H 0.78597 0.03646 0.67954 0.0
H2159 H 0.81186 0.05235 0.69789 0.0
H2160 H 0.86502 0.0327 0.73093 0.0
H2161 H 0.83696 0.04606 0.7275 0.0
H2162 H 0.81098 0.93184 0.65565 0.0
H2163 H 0.78581 0.94858 0.64778 0.0
H2164 H 0.84951 0.93696 0.66238 0.0
H2165 H 0.87199 0.94918 0.68665 0.0
C2166 C 0.68233 0.99347 0.33157 0.0
C2167 C 0.68267 0.01646 0.31539 0.0
C2168 C 0.64151 1.00258 0.29349 0.0
C2169 C 0.6357 0.99074 0.31412 0.0
N2170 N 0.64588 1.00009 0.35781 0.0
N2171 N 0.66262 0.04155 0.28543 0.0
C2172 C 0.6543 0.99379 0.33512 0.0
C2173 C 0.66225 0.02025 0.29742 0.0
N2174 N 0.70779 0.96873 0.34227 0.0
N2175 N 0.62595 0.99963 0.27174 0.0
H2176 H 0.6475 0.04622 0.27382 0.0
H2177 H 0.6475 0.04622 0.27382 0.0
H2178 H 0.60978 0.98704 0.26911 0.0
H2179 H 0.63064 0.00803 0.25591 0.0
H2180 H 0.7259 0.9622 0.34265 0.0
H2181 H 0.7259 0.9622 0.34265 0.0
H2182 H 0.65678 0.01052 0.37253 0.0
H2183 H 0.62702 0.99799 0.36094 0.0
C2184 C 0.35008 0.41785 0.6247 0.0
C2185 C 0.34269 0.40591 0.6456 0.0
C2186 C 0.31638 0.43994 0.6555 0.0
C2187 C 0.32461 0.45239 0.63512 0.0
N2188 N 0.35495 0.45648 0.60523 0.0
N2189 N 0.32409 0.40893 0.68452 0.0
C2190 C 0.34326 0.44234 0.62131 0.0
C2191 C 0.32758 0.41811 0.6622 0.0
N2192 N 0.36248 0.40537 0.60724 0.0
N2193 N 0.29675 0.44773 0.66743 0.0
H2194 H 0.3321 0.39312 0.68997 0.0
H2195 H 0.31544 0.41834 0.69855 0.0
H2196 H 0.28732 0.46289 0.6627 0.0
H2197 H 0.28826 0.43771 0.68051 0.0
H2198 H 0.36566 0.412 0.59016 0.0
H2199 H 0.36768 0.38737 0.60873 0.0
H2200 H 0.3704 0.45118 0.59653 0.0
H2201 H 0.35102 0.47473 0.60274 0.0
C2202 C 0.3051 0.65453 0.00793 0.0
C2203 C 0.31724 0.67259 0.02727 0.0
C2204 C 0.3409 0.63996 0.04441 0.0
C2205 C 0.3293 0.62218 0.02473 0.0
N2206 N 0.30261 0.6131 0.98572 0.0
N2207 N 0.3395 0.6796 0.06875 0.0
C2208 C 0.31137 0.62937 0.0064 0.0
C2209 C 0.33327 0.66456 0.0468 0.0
N2210 N 0.28788 0.66131 0.99039 0.0
N2211 N 0.35963 0.63352 0.06077 0.0
H2212 H 0.33237 0.69666 0.07246 0.0
H2213 H 0.34905 0.67389 0.08458 0.0
H2214 H 0.36449 0.61527 0.06122 0.0
H2215 H 0.37148 0.64661 0.07289 0.0
H2216 H 0.27369 0.64884 0.98047 0.0
H2217 H 0.28825 0.67928 0.98511 0.0
H2218 H 0.29129 0.61774 0.97049 0.0
H2219 H 0.30836 0.59533 0.98224 0.0
C2220 C 0.7766 0.11767 0.31714 0.0
C2221 C 0.78649 0.12495 0.29539 0.0
C2222 C 0.76643 0.08537 0.27229 0.0
C2223 C 0.75548 0.07898 0.2943 0.0
N2224 N 0.73787 0.10017 0.32911 0.0
N2225 N 0.78892 0.11729 0.25115 0.0
C2226 C 0.75715 0.09806 0.31467 0.0
C2227 C 0.78119 0.10902 0.27262 0.0
N2228 N 0.78409 0.1308 0.33987 0.0
N2229 N 0.76121 0.06981 0.25065 0.0
H2230 H 0.80028 0.13406 0.25118 0.0
H2231 H 0.7835 0.10825 0.23331 0.0
H2232 H 0.74631 0.05582 0.24804 0.0
H2233 H 0.77106 0.07122 0.23506 0.0
H2234 H 0.77782 0.12509 0.35638 0.0
H2235 H 0.79821 0.14569 0.34225 0.0
H2236 H 0.73807 0.11457 0.34349 0.0
H2237 H 0.72023 0.09059 0.32356 0.0
C2238 C 0.66901 0.82243 0.00988 0.0
C2239 C 0.67181 0.80294 0.99105 0.0
C2240 C 0.70044 0.83135 0.9714 0.0
C2241 C 0.69761 0.85086 0.99015 0.0
N2242 N 0.67592 0.86677 0.02445 0.0
N2243 N 0.68525 0.79001 0.95091 0.0
C2244 C 0.68064 0.84701 0.00837 0.0
C2245 C 0.68601 0.8078 0.97085 0.0
N2246 N 0.65637 0.81712 0.0299 0.0
N2247 N 0.7174 0.83521 0.95446 0.0
H2248 H 0.67483 0.77259 0.94992 0.0
H2249 H 0.6931 0.79318 0.93443 0.0
H2250 H 0.72717 0.85264 0.95337 0.0
H2251 H 0.72274 0.82097 0.94231 0.0
H2252 H 0.65608 0.82965 0.04573 0.0
H2253 H 0.64741 0.79945 0.03152 0.0
H2254 H 0.66183 0.86585 0.03639 0.0
H2255 H 0.68486 0.88477 0.02462 0.0
C2256 C 0.63049 0.32136 0.40799 0.0
C2257 C 0.65075 0.34009 0.40752 0.0
C2258 C 0.66038 0.34026 0.45343 0.0
C2259 C 0.63979 0.32174 0.45374 0.0
N2260 N 0.60982 0.29006 0.43078 0.0
N2261 N 0.68673 0.36575 0.42886 0.0
C2262 C 0.62619 0.31102 0.43082 0.0
C2263 C 0.66638 0.34889 0.43002 0.0
N2264 N 0.6148 0.31391 0.38662 0.0
N2265 N 0.6737 0.34999 0.47559 0.0
H2266 H 0.69102 0.37284 0.41225 0.0
H2267 H 0.69994 0.37232 0.44387 0.0
H2268 H 0.66926 0.34476 0.49287 0.0
H2269 H 0.68904 0.36339 0.47731 0.0
H2270 H 0.59794 0.3027 0.38624 0.0
H2271 H 0.61765 0.32036 0.36937 0.0
H2272 H 0.6013 0.27951 0.41455 0.0
H2273 H 0.60665 0.28164 0.44701 0.0
C2274 C 0.99591 0.32877 0.68455 0.0
C2275 C 0.02303 0.32068 0.6879 0.0
C2276 C 0.03005 0.32719 0.64494 0.0
C2277 C 1.00396 0.32129 0.63891 0.0
N2278 N 0.97503 0.29304 0.65591 0.0
N2279 N 0.06523 0.32574 0.67465 0.0
C2280 C 0.98961 0.3153 0.65876 0.0
C2281 C 0.03988 0.32515 0.66958 0.0
N2282 N 0.97552 0.35066 0.70679 0.0
N2283 N 0.046 0.33089 0.62707 0.0
H2284 H 0.07438 0.32427 0.69231 0.0
H2285 H 0.07438 0.32427 0.69231 0.0
H2286 H 0.04058 0.32801 0.60792 0.0
H2287 H 0.06526 0.33549 0.63159 0.0
H2288 H 0.97394 0.36131 0.72415 0.0
H2289 H 0.97394 0.36131 0.72415 0.0
H2290 H 0.97224 0.28118 0.63923 0.0
H2291 H 0.97224 0.28118 0.63923 0.0
C2292 C 0.31903 0.78861 0.10607 0.0
C2293 C 0.29602 0.78778 0.1164 0.0
C2294 C 0.2776 0.75778 0.08041 0.0
C2295 C 0.30199 0.75611 0.0719 0.0
N2296 N 0.34598 0.76138 0.08982 0.0
N2297 N 0.25268 0.77233 0.11359 0.0
C2298 C 0.3228 0.76945 0.08773 0.0
C2299 C 0.27491 0.77298 0.10322 0.0
N2300 N 0.33876 0.80517 0.11643 0.0
N2301 N 0.2573 0.74332 0.06799 0.0
H2302 H 0.2503 0.78414 0.12948 0.0
H2303 H 0.23693 0.75999 0.10712 0.0
H2304 H 0.25884 0.72822 0.055 0.0
H2305 H 0.23883 0.74597 0.07072 0.0
H2306 H 0.35624 0.80558 0.10945 0.0
H2307 H 0.33698 0.81934 0.1305 0.0
H2308 H 0.34998 0.7439 0.08232 0.0
H2309 H 0.34998 0.7439 0.08232 0.0
C2310 C 0.97227 0.67898 0.81212 0.0
C2311 C 0.99452 0.67375 0.80135 0.0
C2312 C 0.01985 0.6932 0.83954 0.0
C2313 C 0.99794 0.70185 0.84853 0.0
N2314 N 0.95322 0.70357 0.8439 0.0
N2315 N 0.0396 0.6757 0.80418 0.0
C2316 C 0.97403 0.69454 0.83519 0.0
C2317 C 0.01836 0.68054 0.81503 0.0
N2318 N 0.94953 0.66899 0.80022 0.0
N2319 N 0.04194 0.69666 0.85474 0.0
H2320 H 0.03921 0.66556 0.78667 0.0
H2321 H 0.05759 0.68281 0.81184 0.0
H2322 H 0.04351 0.70559 0.87292 0.0
H2323 H 0.05811 0.68875 0.85037 0.0
H2324 H 0.93269 0.66997 0.80811 0.0
H2325 H 0.94769 0.65784 0.78314 0.0
H2326 H 0.93564 0.70142 0.8337 0.0
H2327 H 0.95379 0.71459 0.86093 0.0
C2328 C 0.60255 0.38512 0.69365 0.0
C2329 C 0.60574 0.36568 0.67487 0.0
C2330 C 0.56059 0.35181 0.67203 0.0
C2331 C 0.55698 0.37315 0.68824 0.0
N2332 N 0.574 0.41056 0.7144 0.0
N2333 N 0.58777 0.33124 0.64492 0.0
C2334 C 0.57787 0.38983 0.69918 0.0
C2335 C 0.58476 0.34908 0.66386 0.0
N2336 N 0.62319 0.39886 0.70644 0.0
N2337 N 0.54097 0.3339 0.66484 0.0
H2338 H 0.60521 0.3283 0.63888 0.0
H2339 H 0.57287 0.3205 0.63409 0.0
H2340 H 0.52299 0.33561 0.67009 0.0
H2341 H 0.54305 0.31641 0.65579 0.0
H2342 H 0.62249 0.41139 0.72218 0.0
H2343 H 0.64145 0.39643 0.70242 0.0
H2344 H 0.58786 0.42511 0.72065 0.0
H2345 H 0.55641 0.41383 0.71989 0.0
C2346 C 0.89949 0.64971 0.24892 0.0
C2347 C 0.89341 0.67138 0.23754 0.0
C2348 C 0.93628 0.69126 0.25093 0.0
C2349 C 0.94268 0.66901 0.26122 0.0
N2350 N 0.93205 0.62502 0.26389 0.0
N2351 N 0.90761 0.71044 0.22273 0.0
C2352 C 0.92478 0.64762 0.25817 0.0
C2353 C 0.91238 0.69138 0.2369 0.0
N2354 N 0.88091 0.63165 0.25228 0.0
N2355 N 0.95207 0.71277 0.25589 0.0
H2356 H 0.89035 0.71109 0.21238 0.0
H2357 H 0.92139 0.72423 0.21938 0.0
H2358 H 0.96948 0.71374 0.26622 0.0
H2359 H 0.94702 0.73013 0.25147 0.0
H2360 H 0.88385 0.61697 0.26311 0.0
H2361 H 0.86207 0.63246 0.24625 0.0
H2362 H 0.92053 0.60826 0.25974 0.0
H2363 H 0.95049 0.6226 0.27022 0.0
C2364 C 0.19938 0.99917 0.31185 0.0
C2365 C 0.20956 0.01275 0.33493 0.0
C2366 C 0.16773 0.02376 0.34339 0.0
C2367 C 0.1578 0.01044 0.32018 0.0
N2368 N 0.1645 0.99175 0.2794 0.0
N2369 N 0.20482 0.04225 0.3702 0.0
C2370 C 0.17379 1.00019 0.30346 0.0
C2371 C 0.19414 0.02647 0.34993 0.0
N2372 N 0.21374 0.98417 0.29863 0.0
N2373 N 0.15186 0.03282 0.35959 0.0
H2374 H 0.22411 0.04463 0.37544 0.0
H2375 H 0.19494 0.0545 0.38058 0.0
H2376 H 0.13253 0.03189 0.35494 0.0
H2377 H 0.15761 0.04002 0.37803 0.0
H2378 H 0.20647 0.97166 0.28322 0.0
H2379 H 0.23254 0.98258 0.30421 0.0
H2380 H 0.17572 0.98628 0.26557 0.0
H2381 H 0.14588 0.99279 0.27261 0.0
C2382 C 0.34528 0.99445 0.71911 0.0
C2383 C 0.34006 0.00908 0.74096 0.0
C2384 C 0.38436 0.02541 0.74961 0.0
C2385 C 0.38974 0.01123 0.72751 0.0
N2386 N 0.37573 0.98189 0.69112 0.0
N2387 N 0.35469 0.03375 0.77987 0.0
C2388 C 0.37027 0.99569 0.71215 0.0
C2389 C 0.35965 0.02317 0.75703 0.0
N2390 N 0.32651 0.97826 0.70598 0.0
N2391 N 0.40254 0.04229 0.76272 0.0
H2392 H 0.33674 0.03275 0.78575 0.0
H2393 H 0.36851 0.04159 0.79391 0.0
H2394 H 0.42076 0.04511 0.75778 0.0
H2395 H 0.39919 0.05518 0.77731 0.0
H2396 H 0.30838 0.97618 0.71129 0.0
H2397 H 0.32882 0.96568 0.69077 0.0
H2398 H 0.36236 0.97319 0.67709 0.0
H2399 H 0.39396 0.97916 0.68737 0.0
C2400 C 0.69191 0.60119 0.38732 0.0
C2401 C 0.67574 0.60533 0.36606 0.0
C2402 C 0.67648 0.56132 0.34922 0.0
C2403 C 0.68972 0.55649 0.37197 0.0
N2404 N 0.70973 0.57133 0.41315 0.0
N2405 N 0.65087 0.58903 0.3275 0.0
C2406 C 0.69744 0.57635 0.3911 0.0
C2407 C 0.66773 0.58534 0.34706 0.0
N2408 N 0.70248 0.62115 0.40359 0.0
N2409 N 0.6724 0.54299 0.32961 0.0
H2410 H 0.64425 0.60635 0.3252 0.0
H2411 H 0.64201 0.57462 0.31461 0.0
H2412 H 0.67803 0.5251 0.3308 0.0
H2413 H 0.66544 0.5461 0.31162 0.0
H2414 H 0.71653 0.61989 0.41791 0.0
H2415 H 0.69864 0.63952 0.40161 0.0
H2416 H 0.71314 0.58414 0.42906 0.0
H2417 H 0.71555 0.55378 0.41595 0.0
C2418 C 0.66415 0.3267 0.96644 0.0
C2419 C 0.66633 0.31067 0.98666 0.0
C2420 C 0.66476 0.34691 0.01231 0.0
C2421 C 0.67523 0.36253 0.99568 0.0
N2422 N 0.68017 0.36596 0.95239 0.0
N2423 N 0.69451 0.31052 0.0459 0.0
C2424 C 0.67351 0.3521 0.97105 0.0
C2425 C 0.67463 0.32214 0.01517 0.0
N2426 N 0.65264 0.31717 0.94343 0.0
N2427 N 0.64169 0.35107 0.01923 0.0
H2428 H 0.70475 0.29703 0.0545 0.0
H2429 H 0.70475 0.29703 0.0545 0.0
H2430 H 0.63299 0.36698 0.01518 0.0
H2431 H 0.63299 0.36698 0.01518 0.0
H2432 H 0.64902 0.32789 0.92861 0.0
H2433 H 0.64902 0.32789 0.92861 0.0
H2434 H 0.68032 0.35822 0.93397 0.0
H2435 H 0.68716 0.3848 0.95579 0.0
C2436 C 0.23937 0.9128 0.6964 0.0
C2437 C 0.24421 0.8923 0.67977 0.0
C2438 C 0.26476 0.92146 0.6536 0.0
C2439 C 0.26034 0.94224 0.67056 0.0
N2440 N 0.24749 0.95666 0.71101 0.0
N2441 N 0.26135 0.87619 0.64269 0.0
C2442 C 0.24897 0.93766 0.69284 0.0
C2443 C 0.25707 0.89641 0.65849 0.0
N2444 N 0.22413 0.90866 0.71485 0.0
N2445 N 0.27701 0.92579 0.63303 0.0
H2446 H 0.25715 0.85771 0.64638 0.0
H2447 H 0.26874 0.87711 0.62566 0.0
H2448 H 0.28235 0.94362 0.62826 0.0
H2449 H 0.28268 0.91204 0.62062 0.0
H2450 H 0.21673 0.92289 0.72534 0.0
H2451 H 0.21696 0.89081 0.71826 0.0
H2452 H 0.2434 0.95347 0.72898 0.0
H2453 H 0.25207 0.97544 0.70929 0.0
C2454 C 0.36051 0.19033 0.02218 0.0
C2455 C 0.34586 0.20828 0.012 0.0
C2456 C 0.30937 0.17686 0.00462 0.0
C2457 C 0.32502 0.15818 0.01089 0.0
N2458 N 0.36562 0.14635 0.02488 0.0
N2459 N 0.30671 0.21844 0.99171 0.0
C2460 C 0.35057 0.16472 0.01985 0.0
C2461 C 0.32025 0.2016 1.00303 0.0
N2462 N 0.38379 0.19787 0.03433 0.0
N2463 N 0.28401 0.17083 1.00036 0.0
H2464 H 0.314 0.2367 0.98995 0.0
H2465 H 0.28887 0.21378 0.9823 0.0
H2466 H 0.2756 0.15283 1.00165 0.0
H2467 H 0.27124 0.18402 0.99807 0.0
H2468 H 0.39447 0.18619 0.04422 0.0
H2469 H 0.39158 0.21648 0.03638 0.0
H2470 H 0.38505 0.14949 0.02843 0.0
H2471 H 0.35875 0.12754 0.02415 0.0
C2472 C 0.34693 0.6644 0.58298 0.0
C2473 C 0.36472 0.67294 0.60394 0.0
C2474 C 0.39062 0.69632 0.57684 0.0
C2475 C 0.3729 0.68787 0.55586 0.0
N2476 N 0.33304 0.66618 0.53882 0.0
N2477 N 0.40101 0.70037 0.62199 0.0
C2478 C 0.35056 0.67276 0.55897 0.0
C2479 C 0.38585 0.68989 0.60116 0.0
N2480 N 0.32694 0.6478 0.58606 0.0
N2481 N 0.41239 0.71013 0.57334 0.0
H2482 H 0.39849 0.69573 0.63999 0.0
H2483 H 0.41504 0.71495 0.62186 0.0
H2484 H 0.4158 0.71663 0.55622 0.0
H2485 H 0.4276 0.71425 0.58694 0.0
H2486 H 0.31384 0.63941 0.57165 0.0
H2487 H 0.32385 0.64141 0.60329 0.0
H2488 H 0.31554 0.6566 0.53965 0.0
H2489 H 0.3355 0.67144 0.52102 0.0
C2490 C 0.03067 0.75038 0.35445 0.0
C2491 C 0.01103 0.74129 0.33557 0.0
C2492 C 0.98983 0.71746 0.3657 0.0
C2493 C 0.01046 0.72542 0.38406 0.0
N2494 N 0.05121 0.74862 0.3956 0.0
N2495 N 0.97353 0.71526 0.32151 0.0
C2496 C 0.03097 0.74157 0.37829 0.0
C2497 C 0.99093 0.72452 0.34092 0.0
N2498 N 0.04943 0.76774 0.35035 0.0
N2499 N 0.96888 0.70443 0.37234 0.0
H2500 H 0.95859 0.70183 0.32254 0.0
H2501 H 0.95859 0.70183 0.32254 0.0
H2502 H 0.96721 0.69962 0.39041 0.0
H2503 H 0.95222 0.7 0.36075 0.0
H2504 H 0.05035 0.77606 0.3337 0.0
H2505 H 0.05035 0.77606 0.3337 0.0
H2506 H 0.06655 0.76052 0.39195 0.0
H2507 H 0.05313 0.74194 0.41314 0.0
C2508 C 0.74693 0.25961 0.91818 0.0
C2509 C 0.73044 0.26907 0.89985 0.0
C2510 C 0.72802 0.30609 0.92982 0.0
C2511 C 0.74014 0.29441 0.94952 0.0
N2512 N 0.76898 0.26515 0.96043 0.0
N2513 N 0.70166 0.29949 0.89045 0.0
C2514 C 0.75173 0.2724 0.94313 0.0
C2515 C 0.72035 0.29203 0.90616 0.0
N2516 N 0.7576 0.23818 0.91181 0.0
N2517 N 0.72269 0.33029 0.9339 0.0
H2518 H 0.6944 0.28925 0.87356 0.0
H2519 H 0.69144 0.31435 0.89546 0.0
H2520 H 0.71644 0.3404 0.91939 0.0
H2521 H 0.72696 0.34105 0.95109 0.0
H2522 H 0.76776 0.22862 0.92451 0.0
H2523 H 0.75573 0.22944 0.89355 0.0
H2524 H 0.78088 0.25147 0.95655 0.0
H2525 H 0.77305 0.27468 0.97831 0.0
C2526 C 0.97909 0.33574 0.18727 0.0
C2527 C 1.00105 0.33425 0.20359 0.0
C2528 C 0.01728 0.30644 0.17165 0.0
C2529 C 0.99495 0.3074 0.15577 0.0
N2530 N 0.95861 0.32843 0.14484 0.0
N2531 N 0.04362 0.32384 0.20948 0.0
C2532 C 0.97716 0.32389 0.16244 0.0
C2533 C 0.02105 0.32142 0.19512 0.0
N2534 N 0.95952 0.34726 0.19587 0.0
N2535 N 0.03426 0.29042 0.16476 0.0
H2536 H 0.04686 0.33479 0.2267 0.0
H2537 H 0.05968 0.31685 0.2035 0.0
H2538 H 0.03237 0.27987 0.14735 0.0
H2539 H 0.04951 0.28664 0.17665 0.0
H2540 H 0.94197 0.34638 0.18574 0.0
H2541 H 0.96015 0.35629 0.2139 0.0
H2542 H 0.94652 0.34219 0.14775 0.0
H2543 H 0.95694 0.32014 0.12641 0.0
loop_
_geom_bond_atom_site_label_1
_geom_bond_atom_site_label_2
_geom_bond_distance
_geom_bond_site_symmetry_2
_ccdc_geom_bond_type
C0 C1 1.264 . S
C0 C5 1.479 . S
C0 C10 1.465 . S
C1 C0 1.264 . S
C1 C3 1.339 . S
C1 H28 0.931 . S
C2 C3 1.395 . S
C2 C4 1.320 . S
C3 C1 1.339 . S
C3 C2 1.395 . S
C3 H29 0.929 . S
C4 C2 1.320 . S
C4 C5 1.405 . S
C4 H30 0.930 . S
C5 C0 1.479 . S
C5 C4 1.405 . S
C5 H31 0.931 . S
U6 O7 2.454 . S
U6 O8 2.458 . S
U6 C9 2.984 . S
U6 C10 2.847 . S
U6 C23 2.882 . S
U6 O24 2.441 . S
U6 O25 2.420 . S
U6 O26 2.455 . S
U6 O27 2.449 . S
O7 U6 2.454 . S
O7 C9 1.353 . S
O8 U6 2.458 . S
O8 C9 1.286 . S
C9 U6 2.984 . S
C9 O7 1.353 . S
C9 O8 1.286 . S
C9 C11 1.363 . S
C10 C0 1.465 . S
C10 U6 2.847 . S
C10 O24 1.249 . S
C10 O25 1.202 . S
C11 C9 1.363 . S
C11 C13 1.408 . S
C11 C16 1.342 . S
C12 C13 1.310 . S
C12 C15 1.461 . S
C12 H32 0.932 . S
C13 C11 1.408 . S
C13 C12 1.310 . S
C13 H33 0.930 . S
C14 C15 1.474 . S
C14 C16 1.285 . S
C14 H34 0.929 . S
C15 C12 1.461 . S
C15 C14 1.474 . S
C16 C11 1.342 . S
C16 C14 1.285 . S
C16 H35 0.930 . S
C17 C20 1.424 . S
C17 C22 1.245 . S
C17 C23 1.428 . S
C18 C21 1.260 . S
C18 C22 1.477 . S
C18 H36 0.932 . S
C19 C20 1.384 . S
C19 C21 1.479 . S
C19 H37 0.929 . S
C20 C17 1.424 . S
C20 C19 1.384 . S
C20 H38 0.928 . S
C21 C18 1.260 . S
C21 C19 1.479 . S
C22 C17 1.245 . S
C22 C18 1.477 . S
C22 H39 0.932 . S
C23 U6 2.882 . S
C23 C17 1.428 . S
C23 O26 1.301 . S
C23 O27 1.282 . S
O24 U6 2.441 . S
O24 C10 1.249 . S
O25 U6 2.420 . S
O25 C10 1.202 . S
O26 U6 2.455 . S
O26 C23 1.301 . S
O27 U6 2.449 . S
O27 C23 1.282 . S
H28 C1 0.931 . S
H29 C3 0.929 . S
H30 C4 0.930 . S
H31 C5 0.931 . S
H32 C12 0.932 . S
H33 C13 0.930 . S
H34 C14 0.929 . S
H35 C16 0.930 . S
H36 C18 0.932 . S
H37 C19 0.929 . S
H38 C20 0.928 . S
H39 C22 0.932 . S
C40 C41 1.264 . S
C40 C45 1.479 . S
C40 C50 1.465 . S
C41 C40 1.264 . S
C41 C43 1.339 . S
C41 H68 0.931 . S
C42 C43 1.395 . S
C42 C44 1.320 . S
C43 C41 1.339 . S
C43 C42 1.395 . S
C43 H69 0.929 . S
C44 C42 1.320 . S
C44 C45 1.405 . S
C44 H70 0.930 . S
C45 C40 1.479 . S
C45 C44 1.405 . S
C45 H71 0.931 . S
U46 O47 2.454 . S
U46 O48 2.458 . S
U46 C49 2.984 . S
U46 C50 2.847 . S
U46 C63 2.882 . S
U46 O64 2.441 . S
U46 O65 2.420 . S
U46 O66 2.455 . S
U46 O67 2.449 . S
O47 U46 2.454 . S
O47 C49 1.353 . S
O48 U46 2.458 . S
O48 C49 1.286 . S
C49 U46 2.984 . S
C49 O47 1.353 . S
C49 O48 1.286 . S
C49 C51 1.363 . S
C50 C40 1.465 . S
C50 U46 2.847 . S
C50 O64 1.249 . S
C50 O65 1.202 . S
C51 C49 1.363 . S
C51 C53 1.408 . S
C51 C56 1.342 . S
C52 C53 1.310 . S
C52 C55 1.461 . S
C52 H72 0.932 . S
C53 C51 1.408 . S
C53 C52 1.310 . S
C53 H73 0.930 . S
C54 C55 1.474 . S
C54 C56 1.285 . S
C54 H74 0.929 . S
C55 C52 1.461 . S
C55 C54 1.474 . S
C56 C51 1.342 . S
C56 C54 1.285 . S
C56 H75 0.930 . S
C57 C60 1.424 . S
C57 C62 1.245 . S
C57 C63 1.428 . S
C58 C61 1.260 . S
C58 C62 1.477 . S
C58 H76 0.932 . S
C59 C60 1.384 . S
C59 C61 1.479 . S
C59 H77 0.929 . S
C60 C57 1.424 . S
C60 C59 1.384 . S
C60 H78 0.928 . S
C61 C58 1.260 . S
C61 C59 1.479 . S
C62 C57 1.245 . S
C62 C58 1.477 . S
C62 H79 0.932 . S
C63 U46 2.882 . S
C63 C57 1.428 . S
C63 O66 1.301 . S
C63 O67 1.282 . S
O64 U46 2.441 . S
O64 C50 1.249 . S
O65 U46 2.420 . S
O65 C50 1.202 . S
O66 U46 2.455 . S
O66 C63 1.301 . S
O67 U46 2.449 . S
O67 C63 1.282 . S
H68 C41 0.931 . S
H69 C43 0.929 . S
H70 C44 0.930 . S
H71 C45 0.931 . S
H72 C52 0.932 . S
H73 C53 0.930 . S
H74 C54 0.929 . S
H75 C56 0.930 . S
H76 C58 0.932 . S
H77 C59 0.929 . S
H78 C60 0.928 . S
H79 C62 0.932 . S
C80 C81 1.264 . S
C80 C85 1.479 . S
C80 C90 1.465 . S
C81 C80 1.264 . S
C81 C83 1.339 . S
C81 H108 0.931 . S
C82 C83 1.395 . S
C82 C84 1.320 . S
C83 C81 1.339 . S
C83 C82 1.395 . S
C83 H109 0.929 . S
C84 C82 1.320 . S
C84 C85 1.405 . S
C84 H110 0.925 1_565 S
C85 C80 1.479 . S
C85 C84 1.405 . S
C85 H111 0.931 . S
U86 O87 2.454 . S
U86 O88 2.458 . S
U86 C89 2.984 . S
U86 C90 2.847 . S
U86 C103 2.882 . S
U86 O104 2.441 . S
U86 O105 2.420 . S
U86 O106 2.455 . S
U86 O107 2.449 . S
O87 U86 2.454 . S
O87 C89 1.353 . S
O88 U86 2.458 . S
O88 C89 1.286 . S
C89 U86 2.984 . S
C89 O87 1.353 . S
C89 O88 1.286 . S
C89 C91 1.363 . S
C90 C80 1.465 . S
C90 U86 2.847 . S
C90 O104 1.249 . S
C90 O105 1.202 . S
C91 C89 1.363 . S
C91 C93 1.408 . S
C91 C96 1.342 . S
C92 C93 1.310 . S
C92 C95 1.462 . S
C92 H112 0.932 . S
C93 C91 1.408 . S
C93 C92 1.310 . S
C93 H113 0.930 . S
C94 C95 1.473 1_545 S
C94 C96 1.284 1_545 S
C94 H114 0.932 . S
C95 C92 1.462 . S
C95 C94 1.473 1_565 S
C96 C91 1.342 . S
C96 C94 1.284 1_565 S
C96 H115 0.936 . S
C97 C100 1.424 . S
C97 C102 1.245 . S
C97 C103 1.428 . S
C98 C101 1.260 . S
C98 C102 1.477 . S
C98 H116 0.932 . S
C99 C100 1.384 . S
C99 C101 1.479 . S
C99 H117 0.929 . S
C100 C97 1.424 . S
C100 C99 1.384 . S
C100 H118 0.928 . S
C101 C98 1.260 . S
C101 C99 1.479 . S
C102 C97 1.245 . S
C102 C98 1.477 . S
C102 H119 0.932 . S
C103 U86 2.882 . S
C103 C97 1.428 . S
C103 O106 1.301 . S
C103 O107 1.282 . S
O104 U86 2.441 . S
O104 C90 1.249 . S
O105 U86 2.420 . S
O105 C90 1.202 . S
O106 U86 2.455 . S
O106 C103 1.301 . S
O107 U86 2.449 . S
O107 C103 1.282 . S
H108 C81 0.931 . S
H109 C83 0.929 . S
H110 C84 0.925 1_545 S
H111 C85 0.931 . S
H112 C92 0.932 . S
H113 C93 0.930 . S
H114 C94 0.932 . S
H115 C96 0.936 . S
H116 C98 0.932 . S
H117 C99 0.929 . S
H118 C100 0.928 . S
H119 C102 0.932 . S
C120 C121 1.264 . S
C120 C125 1.479 . S
C120 C130 1.465 . S
C121 C120 1.264 . S
C121 C123 1.339 . S
C121 H148 0.931 . S
C122 C123 1.395 . S
C122 C124 1.320 . S
C123 C121 1.339 . S
C123 C122 1.395 . S
C123 H149 0.929 . S
C124 C122 1.320 . S
C124 C125 1.405 . S
C124 H150 0.930 . S
C125 C120 1.479 . S
C125 C124 1.405 . S
C125 H151 0.931 . S
U126 O127 2.454 . S
U126 O128 2.458 . S
U126 C129 2.984 . S
U126 C130 2.847 . S
U126 C143 2.882 . S
U126 O144 2.441 . S
U126 O145 2.420 . S
U126 O146 2.455 . S
U126 O147 2.449 . S
O127 U126 2.454 . S
O127 C129 1.353 . S
O128 U126 2.458 . S
O128 C129 1.286 . S
C129 U126 2.984 . S
C129 O127 1.353 . S
C129 O128 1.286 . S
C129 C131 1.363 . S
C130 C120 1.465 . S
C130 U126 2.847 . S
C130 O144 1.249 . S
C130 O145 1.202 . S
C131 C129 1.363 . S
C131 C133 1.408 . S
C131 C136 1.342 . S
C132 C133 1.310 . S
C132 C135 1.461 . S
C132 H152 0.932 . S
C133 C131 1.408 . S
C133 C132 1.310 . S
C133 H153 0.930 . S
C134 C135 1.474 . S
C134 C136 1.285 . S
C134 H154 0.929 . S
C135 C132 1.461 . S
C135 C134 1.474 . S
C136 C131 1.342 . S
C136 C134 1.285 . S
C136 H155 0.930 . S
C137 C140 1.424 . S
C137 C142 1.245 . S
C137 C143 1.428 1_565 S
C138 C141 1.260 . S
C138 C142 1.477 . S
C138 H156 0.932 . S
C139 C140 1.384 . S
C139 C141 1.479 . S
C139 H157 0.929 . S
C140 C137 1.424 . S
C140 C139 1.384 . S
C140 H158 0.928 . S
C141 C138 1.260 . S
C141 C139 1.479 . S
C142 C137 1.245 . S
C142 C138 1.477 . S
C142 H159 0.932 . S
C143 U126 2.882 . S
C143 C137 1.428 1_545 S
C143 O146 1.301 . S
C143 O147 1.282 . S
O144 U126 2.441 . S
O144 C130 1.249 . S
O145 U126 2.420 . S
O145 C130 1.202 . S
O146 U126 2.455 . S
O146 C143 1.301 . S
O147 U126 2.449 . S
O147 C143 1.282 . S
H148 C121 0.931 . S
H149 C123 0.929 . S
H150 C124 0.930 . S
H151 C125 0.931 . S
H152 C132 0.932 . S
H153 C133 0.930 . S
H154 C134 0.929 . S
H155 C136 0.930 . S
H156 C138 0.932 . S
H157 C139 0.929 . S
H158 C140 0.928 . S
H159 C142 0.932 . S
C160 C161 1.264 . S
C160 C165 1.479 . S
C160 C170 1.465 . S
C161 C160 1.264 . S
C161 C163 1.339 . S
C161 H188 0.931 . S
C162 C163 1.395 . S
C162 C164 1.320 . S
C163 C161 1.339 . S
C163 C162 1.395 . S
C163 H189 0.929 . S
C164 C162 1.320 . S
C164 C165 1.405 . S
C164 H190 0.930 . S
C165 C160 1.479 . S
C165 C164 1.405 . S
C165 H191 0.931 . S
U166 O167 2.454 . S
U166 O168 2.458 . S
U166 C169 2.984 . S
U166 C170 2.847 . S
U166 C183 2.882 . S
U166 O184 2.441 . S
U166 O185 2.420 . S
U166 O186 2.455 . S
U166 O187 2.449 . S
O167 U166 2.454 . S
O167 C169 1.353 . S
O168 U166 2.458 . S
O168 C169 1.286 . S
C169 U166 2.984 . S
C169 O167 1.353 . S
C169 O168 1.286 . S
C169 C171 1.363 . S
C170 C160 1.465 . S
C170 U166 2.847 . S
C170 O184 1.249 . S
C170 O185 1.202 . S
C171 C169 1.363 . S
C171 C173 1.408 . S
C171 C176 1.342 . S
C172 C173 1.310 . S
C172 C175 1.461 . S
C172 H192 0.932 . S
C173 C171 1.408 . S
C173 C172 1.310 . S
C173 H193 0.930 . S
C174 C175 1.474 . S
C174 C176 1.285 . S
C174 H194 0.929 . S
C175 C172 1.461 . S
C175 C174 1.474 . S
C176 C171 1.342 . S
C176 C174 1.285 . S
C176 H195 0.930 . S
C177 C180 1.424 . S
C177 C182 1.245 . S
C177 C183 1.428 . S
C178 C181 1.260 . S
C178 C182 1.477 . S
C178 H196 0.932 . S
C179 C180 1.384 . S
C179 C181 1.479 . S
C179 H197 0.929 . S
C180 C177 1.424 . S
C180 C179 1.384 . S
C180 H198 0.928 . S
C181 C178 1.260 . S
C181 C179 1.479 . S
C182 C177 1.245 . S
C182 C178 1.477 . S
C182 H199 0.932 . S
C183 U166 2.882 . S
C183 C177 1.428 . S
C183 O186 1.301 . S
C183 O187 1.282 . S
O184 U166 2.441 . S
O184 C170 1.249 . S
O185 U166 2.420 . S
O185 C170 1.202 . S
O186 U166 2.455 . S
O186 C183 1.301 . S
O187 U166 2.449 . S
O187 C183 1.282 . S
H188 C161 0.931 . S
H189 C163 0.929 . S
H190 C164 0.930 . S
H191 C165 0.931 . S
H192 C172 0.932 . S
H193 C173 0.930 . S
H194 C174 0.929 . S
H195 C176 0.930 . S
H196 C178 0.932 . S
H197 C179 0.929 . S
H198 C180 0.928 . S
H199 C182 0.932 . S
C200 C201 1.264 . S
C200 C205 1.479 . S
C200 C210 1.465 . S
C201 C200 1.264 . S
C201 C203 1.339 . S
C201 H228 0.931 . S
C202 C203 1.395 . S
C202 C204 1.320 . S
C203 C201 1.339 . S
C203 C202 1.395 . S
C203 H229 0.929 . S
C204 C202 1.320 . S
C204 C205 1.405 . S
C204 H230 0.930 . S
C205 C200 1.479 . S
C205 C204 1.405 . S
C205 H231 0.931 . S
U206 O207 2.454 . S
U206 O208 2.458 . S
U206 C209 2.984 . S
U206 C210 2.847 . S
U206 C223 2.882 . S
U206 O224 2.441 . S
U206 O225 2.420 . S
U206 O226 2.455 . S
U206 O227 2.449 . S
O207 U206 2.454 . S
O207 C209 1.353 . S
O208 U206 2.458 . S
O208 C209 1.286 . S
C209 U206 2.984 . S
C209 O207 1.353 . S
C209 O208 1.286 . S
C209 C211 1.363 . S
C210 C200 1.465 . S
C210 U206 2.847 . S
C210 O224 1.249 . S
C210 O225 1.202 . S
C211 C209 1.363 . S
C211 C213 1.408 . S
C211 C216 1.342 . S
C212 C213 1.310 . S
C212 C215 1.461 . S
C212 H232 0.932 . S
C213 C211 1.408 . S
C213 C212 1.310 . S
C213 H233 0.930 . S
C214 C215 1.474 . S
C214 C216 1.285 . S
C214 H234 0.929 . S
C215 C212 1.461 . S
C215 C214 1.474 . S
C216 C211 1.342 . S
C216 C214 1.285 . S
C216 H235 0.930 . S
C217 C220 1.424 . S
C217 C222 1.245 . S
C217 C223 1.428 1_556 S
C218 C221 1.260 . S
C218 C222 1.477 . S
C218 H236 0.932 . S
C219 C220 1.384 . S
C219 C221 1.479 . S
C219 H237 0.929 . S
C220 C217 1.424 . S
C220 C219 1.384 . S
C220 H238 0.928 . S
C221 C218 1.260 . S
C221 C219 1.479 . S
C222 C217 1.245 . S
C222 C218 1.477 . S
C222 H239 0.932 . S
C223 U206 2.882 . S
C223 C217 1.428 1_554 S
C223 O226 1.301 . S
C223 O227 1.282 . S
O224 U206 2.441 . S
O224 C210 1.249 . S
O225 U206 2.420 . S
O225 C210 1.202 . S
O226 U206 2.455 . S
O226 C223 1.301 . S
O227 U206 2.449 . S
O227 C223 1.282 . S
H228 C201 0.931 . S
H229 C203 0.929 . S
H230 C204 0.930 . S
H231 C205 0.931 . S
H232 C212 0.932 . S
H233 C213 0.930 . S
H234 C214 0.929 . S
H235 C216 0.930 . S
H236 C218 0.932 . S
H237 C219 0.929 . S
H238 C220 0.928 . S
H239 C222 0.932 . S
C240 C241 1.264 . S
C240 C245 1.479 . S
C240 C250 1.465 . S
C241 C240 1.264 . S
C241 C243 1.339 . S
C241 H268 0.931 . S
C242 C243 1.395 . S
C242 C244 1.320 . S
C243 C241 1.339 . S
C243 C242 1.395 . S
C243 H269 0.929 . S
C244 C242 1.320 . S
C244 C245 1.405 . S
C244 H270 0.930 . S
C245 C240 1.479 . S
C245 C244 1.405 . S
C245 H271 0.931 . S
U246 O247 2.454 . S
U246 O248 2.458 . S
U246 C249 2.984 . S
U246 C250 2.847 . S
U246 C263 2.882 . S
U246 O264 2.441 . S
U246 O265 2.420 . S
U246 O266 2.455 . S
U246 O267 2.449 . S
O247 U246 2.454 . S
O247 C249 1.353 . S
O248 U246 2.458 . S
O248 C249 1.286 . S
C249 U246 2.984 . S
C249 O247 1.353 . S
C249 O248 1.286 . S
C249 C251 1.363 . S
C250 C240 1.465 . S
C250 U246 2.847 . S
C250 O264 1.249 . S
C250 O265 1.202 . S
C251 C249 1.363 . S
C251 C253 1.408 . S
C251 C256 1.342 . S
C252 C253 1.310 . S
C252 C255 1.461 . S
C252 H272 0.932 . S
C253 C251 1.408 . S
C253 C252 1.310 . S
C253 H273 0.930 . S
C254 C255 1.474 . S
C254 C256 1.285 . S
C254 H274 0.929 . S
C255 C252 1.461 . S
C255 C254 1.474 . S
C256 C251 1.342 . S
C256 C254 1.285 . S
C256 H275 0.930 . S
C257 C260 1.424 . S
C257 C262 1.245 . S
C257 C263 1.428 . S
C258 C261 1.260 . S
C258 C262 1.477 . S
C258 H276 0.932 . S
C259 C260 1.384 . S
C259 C261 1.479 . S
C259 H277 0.929 . S
C260 C257 1.424 . S
C260 C259 1.384 . S
C260 H278 0.928 . S
C261 C258 1.260 . S
C261 C259 1.479 . S
C262 C257 1.245 . S
C262 C258 1.477 . S
C262 H279 0.932 . S
C263 U246 2.882 . S
C263 C257 1.428 . S
C263 O266 1.301 . S
C263 O267 1.282 . S
O264 U246 2.441 . S
O264 C250 1.249 . S
O265 U246 2.420 . S
O265 C250 1.202 . S
O266 U246 2.455 . S
O266 C263 1.301 . S
O267 U246 2.449 . S
O267 C263 1.282 . S
H268 C241 0.931 . S
H269 C243 0.929 . S
H270 C244 0.930 . S
H271 C245 0.931 . S
H272 C252 0.932 . S
H273 C253 0.930 . S
H274 C254 0.929 . S
H275 C256 0.930 . S
H276 C258 0.932 . S
H277 C259 0.929 . S
H278 C260 0.928 . S
H279 C262 0.932 . S
C280 C281 1.264 . S
C280 C285 1.479 . S
C280 C290 1.465 . S
C281 C280 1.264 . S
C281 C283 1.339 . S
C281 H308 0.931 . S
C282 C283 1.395 . S
C282 C284 1.320 . S
C283 C281 1.339 . S
C283 C282 1.395 . S
C283 H309 0.929 . S
C284 C282 1.320 . S
C284 C285 1.405 . S
C284 H310 0.925 1_556 S
C285 C280 1.479 . S
C285 C284 1.405 . S
C285 H311 0.931 . S
U286 O287 2.454 . S
U286 O288 2.458 . S
U286 C289 2.984 . S
U286 C290 2.847 . S
U286 C303 2.882 . S
U286 O304 2.441 . S
U286 O305 2.420 . S
U286 O306 2.455 . S
U286 O307 2.449 . S
O287 U286 2.454 . S
O287 C289 1.353 . S
O288 U286 2.458 . S
O288 C289 1.286 . S
C289 U286 2.984 . S
C289 O287 1.353 . S
C289 O288 1.286 . S
C289 C291 1.363 . S
C290 C280 1.465 . S
C290 U286 2.847 . S
C290 O304 1.249 . S
C290 O305 1.202 . S
C291 C289 1.363 . S
C291 C293 1.408 . S
C291 C296 1.342 . S
C292 C293 1.310 . S
C292 C295 1.462 . S
C292 H312 0.932 . S
C293 C291 1.408 . S
C293 C292 1.310 . S
C293 H313 0.930 . S
C294 C295 1.473 1_554 S
C294 C296 1.284 1_554 S
C294 H314 0.932 . S
C295 C292 1.462 . S
C295 C294 1.473 1_556 S
C296 C291 1.342 . S
C296 C294 1.284 1_556 S
C296 H315 0.936 . S
C297 C300 1.424 . S
C297 C302 1.245 . S
C297 C303 1.428 . S
C298 C301 1.260 . S
C298 C302 1.477 . S
C298 H316 0.932 . S
C299 C300 1.384 . S
C299 C301 1.479 . S
C299 H317 0.929 . S
C300 C297 1.424 . S
C300 C299 1.384 . S
C300 H318 0.928 . S
C301 C298 1.260 . S
C301 C299 1.479 . S
C302 C297 1.245 . S
C302 C298 1.477 . S
C302 H319 0.932 . S
C303 U286 2.882 . S
C303 C297 1.428 . S
C303 O306 1.301 . S
C303 O307 1.282 . S
O304 U286 2.441 . S
O304 C290 1.249 . S
O305 U286 2.420 . S
O305 C290 1.202 . S
O306 U286 2.455 . S
O306 C303 1.301 . S
O307 U286 2.449 . S
O307 C303 1.282 . S
H308 C281 0.931 . S
H309 C283 0.929 . S
H310 C284 0.925 1_554 S
H311 C285 0.931 . S
H312 C292 0.932 . S
H313 C293 0.930 . S
H314 C294 0.932 . S
H315 C296 0.936 . S
H316 C298 0.932 . S
H317 C299 0.929 . S
H318 C300 0.928 . S
H319 C302 0.932 . S
C320 C321 1.264 . S
C320 C325 1.479 . S
C320 C330 1.465 . S
C321 C320 1.264 . S
C321 C323 1.339 . S
C321 H348 0.931 . S
C322 C323 1.395 . S
C322 C324 1.320 . S
C323 C321 1.339 . S
C323 C322 1.395 . S
C323 H349 0.929 . S
C324 C322 1.320 . S
C324 C325 1.405 . S
C324 H350 0.930 . S
C325 C320 1.479 . S
C325 C324 1.405 . S
C325 H351 0.931 . S
U326 O327 2.454 . S
U326 O328 2.458 . S
U326 C329 2.984 . S
U326 C330 2.847 . S
U326 C343 2.882 . S
U326 O344 2.441 . S
U326 O345 2.420 . S
U326 O346 2.455 . S
U326 O347 2.449 . S
O327 U326 2.454 . S
O327 C329 1.353 . S
O328 U326 2.458 . S
O328 C329 1.286 . S
C329 U326 2.984 . S
C329 O327 1.353 . S
C329 O328 1.286 . S
C329 C331 1.363 . S
C330 C320 1.465 . S
C330 U326 2.847 . S
C330 O344 1.249 . S
C330 O345 1.202 . S
C331 C329 1.363 . S
C331 C333 1.408 . S
C331 C336 1.342 . S
C332 C333 1.310 . S
C332 C335 1.461 . S
C332 H352 0.932 . S
C333 C331 1.408 . S
C333 C332 1.310 . S
C333 H353 0.930 . S
C334 C335 1.474 . S
C334 C336 1.285 . S
C334 H354 0.929 . S
C335 C332 1.461 . S
C335 C334 1.474 . S
C336 C331 1.342 . S
C336 C334 1.285 . S
C336 H355 0.930 . S
C337 C340 1.424 . S
C337 C342 1.245 . S
C337 C343 1.428 . S
C338 C341 1.260 . S
C338 C342 1.477 . S
C338 H356 0.932 . S
C339 C340 1.384 . S
C339 C341 1.479 . S
C339 H357 0.929 . S
C340 C337 1.424 . S
C340 C339 1.384 . S
C340 H358 0.928 . S
C341 C338 1.260 . S
C341 C339 1.479 . S
C342 C337 1.245 . S
C342 C338 1.477 . S
C342 H359 0.932 . S
C343 U326 2.882 . S
C343 C337 1.428 . S
C343 O346 1.301 . S
C343 O347 1.282 . S
O344 U326 2.441 . S
O344 C330 1.249 . S
O345 U326 2.420 . S
O345 C330 1.202 . S
O346 U326 2.455 . S
O346 C343 1.301 . S
O347 U326 2.449 . S
O347 C343 1.282 . S
H348 C321 0.931 . S
H349 C323 0.929 . S
H350 C324 0.930 . S
H351 C325 0.931 . S
H352 C332 0.932 . S
H353 C333 0.930 . S
H354 C334 0.929 . S
H355 C336 0.930 . S
H356 C338 0.932 . S
H357 C339 0.929 . S
H358 C340 0.928 . S
H359 C342 0.932 . S
C360 C361 1.264 . S
C360 C365 1.479 . S
C360 C370 1.465 . S
C361 C360 1.264 . S
C361 C363 1.339 . S
C361 H388 0.931 . S
C362 C363 1.395 . S
C362 C364 1.320 . S
C363 C361 1.339 . S
C363 C362 1.395 . S
C363 H389 0.929 . S
C364 C362 1.320 . S
C364 C365 1.405 . S
C364 H390 0.930 . S
C365 C360 1.479 . S
C365 C364 1.405 . S
C365 H391 0.931 . S
U366 O367 2.454 . S
U366 O368 2.458 . S
U366 C369 2.984 . S
U366 C370 2.847 . S
U366 C383 2.882 . S
U366 O384 2.441 . S
U366 O385 2.420 . S
U366 O386 2.455 . S
U366 O387 2.449 . S
O367 U366 2.454 . S
O367 C369 1.353 . S
O368 U366 2.458 . S
O368 C369 1.286 . S
C369 U366 2.984 . S
C369 O367 1.353 . S
C369 O368 1.286 . S
C369 C371 1.363 . S
C370 C360 1.465 . S
C370 U366 2.847 . S
C370 O384 1.249 . S
C370 O385 1.202 . S
C371 C369 1.363 . S
C371 C373 1.408 . S
C371 C376 1.342 . S
C372 C373 1.310 . S
C372 C375 1.461 . S
C372 H392 0.932 . S
C373 C371 1.408 . S
C373 C372 1.310 . S
C373 H393 0.930 . S
C374 C375 1.474 . S
C374 C376 1.285 . S
C374 H394 0.929 . S
C375 C372 1.461 . S
C375 C374 1.474 . S
C376 C371 1.342 . S
C376 C374 1.285 . S
C376 H395 0.930 . S
C377 C380 1.424 . S
C377 C382 1.245 . S
C377 C383 1.428 1_655 S
C378 C381 1.260 . S
C378 C382 1.477 . S
C378 H396 0.932 . S
C379 C380 1.384 . S
C379 C381 1.479 . S
C379 H397 0.929 . S
C380 C377 1.424 . S
C380 C379 1.384 . S
C380 H398 0.928 . S
C381 C378 1.260 . S
C381 C379 1.479 . S
C382 C377 1.245 . S
C382 C378 1.477 . S
C382 H399 0.932 . S
C383 U366 2.882 . S
C383 C377 1.428 1_455 S
C383 O386 1.301 . S
C383 O387 1.282 . S
O384 U366 2.441 . S
O384 C370 1.249 . S
O385 U366 2.420 . S
O385 C370 1.202 . S
O386 U366 2.455 . S
O386 C383 1.301 . S
O387 U366 2.449 . S
O387 C383 1.282 . S
H388 C361 0.931 . S
H389 C363 0.929 . S
H390 C364 0.930 . S
H391 C365 0.931 . S
H392 C372 0.932 . S
H393 C373 0.930 . S
H394 C374 0.929 . S
H395 C376 0.930 . S
H396 C378 0.932 . S
H397 C379 0.929 . S
H398 C380 0.928 . S
H399 C382 0.932 . S
C400 C401 1.264 . S
C400 C405 1.479 . S
C400 C410 1.465 . S
C401 C400 1.264 . S
C401 C403 1.339 . S
C401 H428 0.931 . S
C402 C403 1.395 . S
C402 C404 1.320 . S
C403 C401 1.339 . S
C403 C402 1.395 . S
C403 H429 0.929 . S
C404 C402 1.320 . S
C404 C405 1.405 . S
C404 H430 0.930 . S
C405 C400 1.479 . S
C405 C404 1.405 . S
C405 H431 0.931 . S
U406 O407 2.454 . S
U406 O408 2.458 . S
U406 C409 2.984 . S
U406 C410 2.847 . S
U406 C423 2.882 . S
U406 O424 2.441 . S
U406 O425 2.420 . S
U406 O426 2.455 . S
U406 O427 2.449 . S
O407 U406 2.454 . S
O407 C409 1.353 . S
O408 U406 2.458 . S
O408 C409 1.286 . S
C409 U406 2.984 . S
C409 O407 1.353 . S
C409 O408 1.286 . S
C409 C411 1.363 . S
C410 C400 1.465 . S
C410 U406 2.847 . S
C410 O424 1.249 . S
C410 O425 1.202 . S
C411 C409 1.363 . S
C411 C413 1.408 . S
C411 C416 1.342 . S
C412 C413 1.310 . S
C412 C415 1.461 . S
C412 H432 0.932 . S
C413 C411 1.408 . S
C413 C412 1.310 . S
C413 H433 0.930 . S
C414 C415 1.474 . S
C414 C416 1.285 . S
C414 H434 0.929 . S
C415 C412 1.461 . S
C415 C414 1.474 . S
C416 C411 1.342 . S
C416 C414 1.285 . S
C416 H435 0.930 . S
C417 C420 1.424 . S
C417 C422 1.245 . S
C417 C423 1.428 . S
C418 C421 1.260 . S
C418 C422 1.477 . S
C418 H436 0.932 . S
C419 C420 1.384 . S
C419 C421 1.479 . S
C419 H437 0.929 . S
C420 C417 1.424 . S
C420 C419 1.384 . S
C420 H438 0.928 . S
C421 C418 1.260 . S
C421 C419 1.479 . S
C422 C417 1.245 . S
C422 C418 1.477 . S
C422 H439 0.932 . S
C423 U406 2.882 . S
C423 C417 1.428 . S
C423 O426 1.301 . S
C423 O427 1.282 . S
O424 U406 2.441 . S
O424 C410 1.249 . S
O425 U406 2.420 . S
O425 C410 1.202 . S
O426 U406 2.455 . S
O426 C423 1.301 . S
O427 U406 2.449 . S
O427 C423 1.282 . S
H428 C401 0.931 . S
H429 C403 0.929 . S
H430 C404 0.930 . S
H431 C405 0.931 . S
H432 C412 0.932 . S
H433 C413 0.930 . S
H434 C414 0.929 . S
H435 C416 0.930 . S
H436 C418 0.932 . S
H437 C419 0.929 . S
H438 C420 0.928 . S
H439 C422 0.932 . S
C440 C441 1.264 . S
C440 C445 1.479 . S
C440 C450 1.465 . S
C441 C440 1.264 . S
C441 C443 1.339 . S
C441 H468 0.931 . S
C442 C443 1.395 . S
C442 C444 1.320 . S
C443 C441 1.339 . S
C443 C442 1.395 . S
C443 H469 0.929 . S
C444 C442 1.320 . S
C444 C445 1.405 . S
C444 H470 0.925 1_655 S
C445 C440 1.479 . S
C445 C444 1.405 . S
C445 H471 0.931 . S
U446 O447 2.454 . S
U446 O448 2.458 . S
U446 C449 2.984 . S
U446 C450 2.847 . S
U446 C463 2.882 . S
U446 O464 2.441 . S
U446 O465 2.420 . S
U446 O466 2.455 . S
U446 O467 2.449 . S
O447 U446 2.454 . S
O447 C449 1.353 . S
O448 U446 2.458 . S
O448 C449 1.286 . S
C449 U446 2.984 . S
C449 O447 1.353 . S
C449 O448 1.286 . S
C449 C451 1.363 . S
C450 C440 1.465 . S
C450 U446 2.847 . S
C450 O464 1.249 . S
C450 O465 1.202 . S
C451 C449 1.363 . S
C451 C453 1.408 . S
C451 C456 1.342 . S
C452 C453 1.310 . S
C452 C455 1.462 . S
C452 H472 0.932 . S
C453 C451 1.408 . S
C453 C452 1.310 . S
C453 H473 0.930 . S
C454 C455 1.473 1_455 S
C454 C456 1.284 1_455 S
C454 H474 0.932 . S
C455 C452 1.462 . S
C455 C454 1.473 1_655 S
C456 C451 1.342 . S
C456 C454 1.284 1_655 S
C456 H475 0.936 . S
C457 C460 1.424 . S
C457 C462 1.245 . S
C457 C463 1.428 . S
C458 C461 1.260 . S
C458 C462 1.477 . S
C458 H476 0.932 . S
C459 C460 1.384 . S
C459 C461 1.479 . S
C459 H477 0.929 . S
C460 C457 1.424 . S
C460 C459 1.384 . S
C460 H478 0.928 . S
C461 C458 1.260 . S
C461 C459 1.479 . S
C462 C457 1.245 . S
C462 C458 1.477 . S
C462 H479 0.932 . S
C463 U446 2.882 . S
C463 C457 1.428 . S
C463 O466 1.301 . S
C463 O467 1.282 . S
O464 U446 2.441 . S
O464 C450 1.249 . S
O465 U446 2.420 . S
O465 C450 1.202 . S
O466 U446 2.455 . S
O466 C463 1.301 . S
O467 U446 2.449 . S
O467 C463 1.282 . S
H468 C441 0.931 . S
H469 C443 0.929 . S
H470 C444 0.925 1_455 S
H471 C445 0.931 . S
H472 C452 0.932 . S
H473 C453 0.930 . S
H474 C454 0.932 . S
H475 C456 0.936 . S
H476 C458 0.932 . S
H477 C459 0.929 . S
H478 C460 0.928 . S
H479 C462 0.932 . S
C480 C481 1.264 . S
C480 C485 1.479 . S
C480 C490 1.465 . S
C481 C480 1.264 . S
C481 C483 1.339 . S
C481 H508 0.931 . S
C482 C483 1.395 . S
C482 C484 1.320 . S
C483 C481 1.339 . S
C483 C482 1.395 . S
C483 H509 0.929 . S
C484 C482 1.320 . S
C484 C485 1.405 . S
C484 H510 0.930 . S
C485 C480 1.479 . S
C485 C484 1.405 . S
C485 H511 0.931 . S
U486 O487 2.454 . S
U486 O488 2.458 . S
U486 C489 2.984 . S
U486 C490 2.847 . S
U486 C503 2.882 . S
U486 O504 2.441 . S
U486 O505 2.420 . S
U486 O506 2.455 . S
U486 O507 2.449 . S
O487 U486 2.454 . S
O487 C489 1.353 . S
O488 U486 2.458 . S
O488 C489 1.286 . S
C489 U486 2.984 . S
C489 O487 1.353 . S
C489 O488 1.286 . S
C489 C491 1.363 . S
C490 C480 1.465 . S
C490 U486 2.847 . S
C490 O504 1.249 . S
C490 O505 1.202 . S
C491 C489 1.363 . S
C491 C493 1.408 . S
C491 C496 1.342 . S
C492 C493 1.310 . S
C492 C495 1.461 . S
C492 H512 0.932 . S
C493 C491 1.408 . S
C493 C492 1.310 . S
C493 H513 0.930 . S
C494 C495 1.474 . S
C494 C496 1.285 . S
C494 H514 0.929 . S
C495 C492 1.461 . S
C495 C494 1.474 . S
C496 C491 1.342 . S
C496 C494 1.285 . S
C496 H515 0.930 . S
C497 C500 1.424 . S
C497 C502 1.245 . S
C497 C503 1.428 . S
C498 C501 1.260 . S
C498 C502 1.477 . S
C498 H516 0.932 . S
C499 C500 1.384 . S
C499 C501 1.479 . S
C499 H517 0.929 . S
C500 C497 1.424 . S
C500 C499 1.384 . S
C500 H518 0.928 . S
C501 C498 1.260 . S
C501 C499 1.479 . S
C502 C497 1.245 . S
C502 C498 1.477 . S
C502 H519 0.932 . S
C503 U486 2.882 . S
C503 C497 1.428 . S
C503 O506 1.301 . S
C503 O507 1.282 . S
O504 U486 2.441 . S
O504 C490 1.249 . S
O505 U486 2.420 . S
O505 C490 1.202 . S
O506 U486 2.455 . S
O506 C503 1.301 . S
O507 U486 2.449 . S
O507 C503 1.282 . S
H508 C481 0.931 . S
H509 C483 0.929 . S
H510 C484 0.930 . S
H511 C485 0.931 . S
H512 C492 0.932 . S
H513 C493 0.930 . S
H514 C494 0.929 . S
H515 C496 0.930 . S
H516 C498 0.932 . S
H517 C499 0.929 . S
H518 C500 0.928 . S
H519 C502 0.932 . S
C520 C521 1.264 . S
C520 C525 1.479 . S
C520 C530 1.465 . S
C521 C520 1.264 . S
C521 C523 1.339 . S
C521 H548 0.931 . S
C522 C523 1.395 . S
C522 C524 1.320 . S
C523 C521 1.339 . S
C523 C522 1.395 . S
C523 H549 0.929 . S
C524 C522 1.320 . S
C524 C525 1.405 . S
C524 H550 0.930 . S
C525 C520 1.479 . S
C525 C524 1.405 . S
C525 H551 0.931 . S
U526 O527 2.454 . S
U526 O528 2.458 . S
U526 C529 2.984 . S
U526 C530 2.847 . S
U526 C543 2.882 . S
U526 O544 2.441 . S
U526 O545 2.420 . S
U526 O546 2.455 . S
U526 O547 2.449 . S
O527 U526 2.454 . S
O527 C529 1.353 . S
O528 U526 2.458 . S
O528 C529 1.286 . S
C529 U526 2.984 . S
C529 O527 1.353 . S
C529 O528 1.286 . S
C529 C531 1.363 . S
C530 C520 1.465 . S
C530 U526 2.847 . S
C530 O544 1.249 . S
C530 O545 1.202 . S
C531 C529 1.363 . S
C531 C533 1.408 . S
C531 C536 1.342 . S
C532 C533 1.310 . S
C532 C535 1.461 . S
C532 H552 0.932 . S
C533 C531 1.408 . S
C533 C532 1.310 . S
C533 H553 0.930 . S
C534 C535 1.474 . S
C534 C536 1.285 . S
C534 H554 0.929 . S
C535 C532 1.461 . S
C535 C534 1.474 . S
C536 C531 1.342 . S
C536 C534 1.285 . S
C536 H555 0.930 . S
C537 C540 1.424 . S
C537 C542 1.245 . S
C537 C543 1.428 . S
C538 C541 1.260 . S
C538 C542 1.477 . S
C538 H556 0.932 . S
C539 C540 1.384 . S
C539 C541 1.479 . S
C539 H557 0.929 . S
C540 C537 1.424 . S
C540 C539 1.384 . S
C540 H558 0.928 . S
C541 C538 1.260 . S
C541 C539 1.479 . S
C542 C537 1.245 . S
C542 C538 1.477 . S
C542 H559 0.932 . S
C543 U526 2.882 . S
C543 C537 1.428 . S
C543 O546 1.301 . S
C543 O547 1.282 . S
O544 U526 2.441 . S
O544 C530 1.249 . S
O545 U526 2.420 . S
O545 C530 1.202 . S
O546 U526 2.455 . S
O546 C543 1.301 . S
O547 U526 2.449 . S
O547 C543 1.282 . S
H548 C521 0.931 . S
H549 C523 0.929 . S
H550 C524 0.930 . S
H551 C525 0.931 . S
H552 C532 0.932 . S
H553 C533 0.930 . S
H554 C534 0.929 . S
H555 C536 0.930 . S
H556 C538 0.932 . S
H557 C539 0.929 . S
H558 C540 0.928 . S
H559 C542 0.932 . S
C560 C561 1.264 . S
C560 C565 1.479 . S
C560 C570 1.465 . S
C561 C560 1.264 . S
C561 C563 1.339 . S
C561 H588 0.931 . S
C562 C563 1.395 . S
C562 C564 1.320 . S
C563 C561 1.339 . S
C563 C562 1.395 . S
C563 H589 0.929 . S
C564 C562 1.320 . S
C564 C565 1.405 . S
C564 H590 0.919 1_565 S
C565 C560 1.479 . S
C565 C564 1.405 . S
C565 H591 0.931 . S
U566 O567 2.454 . S
U566 O568 2.458 . S
U566 C569 2.984 . S
U566 C570 2.847 . S
U566 C583 2.882 . S
U566 O584 2.441 . S
U566 O585 2.420 . S
U566 O586 2.455 . S
U566 O587 2.449 . S
O567 U566 2.454 . S
O567 C569 1.353 . S
O568 U566 2.458 . S
O568 C569 1.286 . S
C569 U566 2.984 . S
C569 O567 1.353 . S
C569 O568 1.286 . S
C569 C571 1.363 . S
C570 C560 1.465 . S
C570 U566 2.847 . S
C570 O584 1.249 . S
C570 O585 1.202 . S
C571 C569 1.363 . S
C571 C573 1.408 . S
C571 C576 1.342 . S
C572 C573 1.310 . S
C572 C575 1.460 . S
C572 H592 0.932 . S
C573 C571 1.408 . S
C573 C572 1.310 . S
C573 H593 0.930 . S
C574 C575 1.475 1_545 S
C574 C576 1.285 1_545 S
C574 H594 0.930 . S
C575 C572 1.460 . S
C575 C574 1.475 1_565 S
C576 C571 1.342 . S
C576 C574 1.285 1_565 S
C576 H595 0.930 . S
C577 C580 1.424 . S
C577 C582 1.245 . S
C577 C583 1.428 . S
C578 C581 1.260 . S
C578 C582 1.477 . S
C578 H596 0.932 . S
C579 C580 1.384 . S
C579 C581 1.479 . S
C579 H597 0.929 . S
C580 C577 1.424 . S
C580 C579 1.384 . S
C580 H598 0.928 . S
C581 C578 1.260 . S
C581 C579 1.479 . S
C582 C577 1.245 . S
C582 C578 1.477 . S
C582 H599 0.932 . S
C583 U566 2.882 . S
C583 C577 1.428 . S
C583 O586 1.301 . S
C583 O587 1.282 . S
O584 U566 2.441 . S
O584 C570 1.249 . S
O585 U566 2.420 . S
O585 C570 1.202 . S
O586 U566 2.455 . S
O586 C583 1.301 . S
O587 U566 2.449 . S
O587 C583 1.282 . S
H588 C561 0.931 . S
H589 C563 0.929 . S
H590 C564 0.919 1_545 S
H591 C565 0.931 . S
H592 C572 0.932 . S
H593 C573 0.930 . S
H594 C574 0.930 . S
H595 C576 0.930 . S
H596 C578 0.932 . S
H597 C579 0.929 . S
H598 C580 0.928 . S
H599 C582 0.932 . S
C600 C601 1.264 . S
C600 C605 1.477 1_545 S
C600 C610 1.466 . S
C601 C600 1.264 . S
C601 C603 1.339 1_545 S
C601 H628 0.931 . S
C602 C603 1.395 . S
C602 C604 1.320 . S
C603 C601 1.339 1_565 S
C603 C602 1.395 . S
C603 H629 0.929 1_565 S
C604 C602 1.320 . S
C604 C605 1.405 . S
C604 H630 0.930 . S
C605 C600 1.477 1_565 S
C605 C604 1.405 . S
C605 H631 0.931 . S
U606 O607 2.454 1_545 S
U606 O608 2.458 . S
U606 C609 2.983 1_545 S
U606 C610 2.847 . S
U606 C623 2.882 . S
U606 O624 2.441 . S
U606 O625 2.420 . S
U606 O626 2.455 . S
U606 O627 2.449 . S
O607 U606 2.454 1_565 S
O607 C609 1.355 . S
O608 U606 2.458 . S
O608 C609 1.284 1_545 S
C609 U606 2.983 1_565 S
C609 O607 1.355 . S
C609 O608 1.284 1_565 S
C609 C611 1.364 . S
C610 C600 1.466 . S
C610 U606 2.847 . S
C610 O624 1.249 . S
C610 O625 1.202 . S
C611 C609 1.364 . S
C611 C613 1.408 . S
C611 C616 1.342 . S
C612 C613 1.310 . S
C612 C615 1.461 . S
C612 H632 0.932 . S
C613 C611 1.408 . S
C613 C612 1.310 . S
C613 H633 0.930 . S
C614 C615 1.474 . S
C614 C616 1.285 . S
C614 H634 0.929 . S
C615 C612 1.461 . S
C615 C614 1.474 . S
C616 C611 1.342 . S
C616 C614 1.285 . S
C616 H635 0.936 . S
C617 C620 1.424 . S
C617 C622 1.245 . S
C617 C623 1.428 . S
C618 C621 1.260 . S
C618 C622 1.477 . S
C618 H636 0.932 . S
C619 C620 1.384 . S
C619 C621 1.479 . S
C619 H637 0.929 . S
C620 C617 1.424 . S
C620 C619 1.384 . S
C620 H638 0.928 . S
C621 C618 1.260 . S
C621 C619 1.479 . S
C622 C617 1.245 . S
C622 C618 1.477 . S
C622 H639 0.932 . S
C623 U606 2.882 . S
C623 C617 1.428 . S
C623 O626 1.301 . S
C623 O627 1.282 . S
O624 U606 2.441 . S
O624 C610 1.249 . S
O625 U606 2.420 . S
O625 C610 1.202 . S
O626 U606 2.455 . S
O626 C623 1.301 . S
O627 U606 2.449 . S
O627 C623 1.282 . S
H628 C601 0.931 . S
H629 C603 0.929 1_545 S
H630 C604 0.930 . S
H631 C605 0.931 . S
H632 C612 0.932 . S
H633 C613 0.930 . S
H634 C614 0.929 . S
H635 C616 0.936 . S
H636 C618 0.932 . S
H637 C619 0.929 . S
H638 C620 0.928 . S
H639 C622 0.932 . S
C640 C641 1.264 . S
C640 C645 1.479 . S
C640 C650 1.465 . S
C641 C640 1.264 . S
C641 C643 1.339 . S
C641 H668 0.931 . S
C642 C643 1.395 . S
C642 C644 1.320 . S
C643 C641 1.339 . S
C643 C642 1.395 . S
C643 H669 0.929 . S
C644 C642 1.320 . S
C644 C645 1.405 . S
C644 H670 0.930 . S
C645 C640 1.479 . S
C645 C644 1.405 . S
C645 H671 0.931 . S
U646 O647 2.454 . S
U646 O648 2.458 . S
U646 C649 2.984 . S
U646 C650 2.847 . S
U646 C663 2.882 . S
U646 O664 2.441 . S
U646 O665 2.420 . S
U646 O666 2.455 . S
U646 O667 2.449 . S
O647 U646 2.454 . S
O647 C649 1.353 . S
O648 U646 2.458 . S
O648 C649 1.286 . S
C649 U646 2.984 . S
C649 O647 1.353 . S
C649 O648 1.286 . S
C649 C651 1.363 . S
C650 C640 1.465 . S
C650 U646 2.847 . S
C650 O664 1.249 . S
C650 O665 1.202 . S
C651 C649 1.363 . S
C651 C653 1.408 . S
C651 C656 1.342 . S
C652 C653 1.310 . S
C652 C655 1.461 . S
C652 H672 0.932 . S
C653 C651 1.408 . S
C653 C652 1.310 . S
C653 H673 0.930 . S
C654 C655 1.474 . S
C654 C656 1.285 . S
C654 H674 0.929 . S
C655 C652 1.461 . S
C655 C654 1.474 . S
C656 C651 1.342 . S
C656 C654 1.285 . S
C656 H675 0.930 . S
C657 C660 1.424 . S
C657 C662 1.245 . S
C657 C663 1.428 . S
C658 C661 1.260 . S
C658 C662 1.477 . S
C658 H676 0.932 . S
C659 C660 1.384 . S
C659 C661 1.479 . S
C659 H677 0.929 . S
C660 C657 1.424 . S
C660 C659 1.384 . S
C660 H678 0.928 . S
C661 C658 1.260 . S
C661 C659 1.479 . S
C662 C657 1.245 . S
C662 C658 1.477 . S
C662 H679 0.932 . S
C663 U646 2.882 . S
C663 C657 1.428 . S
C663 O666 1.301 . S
C663 O667 1.282 . S
O664 U646 2.441 . S
O664 C650 1.249 . S
O665 U646 2.420 . S
O665 C650 1.202 . S
O666 U646 2.455 . S
O666 C663 1.301 . S
O667 U646 2.449 . S
O667 C663 1.282 . S
H668 C641 0.931 . S
H669 C643 0.929 . S
H670 C644 0.930 . S
H671 C645 0.931 . S
H672 C652 0.932 . S
H673 C653 0.930 . S
H674 C654 0.929 . S
H675 C656 0.930 . S
H676 C658 0.932 . S
H677 C659 0.929 . S
H678 C660 0.928 . S
H679 C662 0.932 . S
C680 C681 1.264 . S
C680 C685 1.477 1_554 S
C680 C690 1.466 . S
C681 C680 1.264 . S
C681 C683 1.339 1_554 S
C681 H708 0.931 . S
C682 C683 1.395 . S
C682 C684 1.320 . S
C683 C681 1.339 1_556 S
C683 C682 1.395 . S
C683 H709 0.929 1_556 S
C684 C682 1.320 . S
C684 C685 1.405 . S
C684 H710 0.930 . S
C685 C680 1.477 1_556 S
C685 C684 1.405 . S
C685 H711 0.931 . S
U686 O687 2.454 1_554 S
U686 O688 2.458 . S
U686 C689 2.983 1_554 S
U686 C690 2.847 . S
U686 C703 2.882 . S
U686 O704 2.441 . S
U686 O705 2.420 . S
U686 O706 2.455 . S
U686 O707 2.449 . S
O687 U686 2.454 1_556 S
O687 C689 1.355 . S
O688 U686 2.458 . S
O688 C689 1.284 1_554 S
C689 U686 2.983 1_556 S
C689 O687 1.355 . S
C689 O688 1.284 1_556 S
C689 C691 1.364 . S
C690 C680 1.466 . S
C690 U686 2.847 . S
C690 O704 1.249 . S
C690 O705 1.202 . S
C691 C689 1.364 . S
C691 C693 1.408 . S
C691 C696 1.342 . S
C692 C693 1.310 . S
C692 C695 1.461 . S
C692 H712 0.932 . S
C693 C691 1.408 . S
C693 C692 1.310 . S
C693 H713 0.930 . S
C694 C695 1.474 . S
C694 C696 1.285 . S
C694 H714 0.929 . S
C695 C692 1.461 . S
C695 C694 1.474 . S
C696 C691 1.342 . S
C696 C694 1.285 . S
C696 H715 0.936 . S
C697 C700 1.424 . S
C697 C702 1.245 . S
C697 C703 1.428 . S
C698 C701 1.260 . S
C698 C702 1.477 . S
C698 H716 0.932 . S
C699 C700 1.384 . S
C699 C701 1.479 . S
C699 H717 0.929 . S
C700 C697 1.424 . S
C700 C699 1.384 . S
C700 H718 0.928 . S
C701 C698 1.260 . S
C701 C699 1.479 . S
C702 C697 1.245 . S
C702 C698 1.477 . S
C702 H719 0.932 . S
C703 U686 2.882 . S
C703 C697 1.428 . S
C703 O706 1.301 . S
C703 O707 1.282 . S
O704 U686 2.441 . S
O704 C690 1.249 . S
O705 U686 2.420 . S
O705 C690 1.202 . S
O706 U686 2.455 . S
O706 C703 1.301 . S
O707 U686 2.449 . S
O707 C703 1.282 . S
H708 C681 0.931 . S
H709 C683 0.929 1_554 S
H710 C684 0.930 . S
H711 C685 0.931 . S
H712 C692 0.932 . S
H713 C693 0.930 . S
H714 C694 0.929 . S
H715 C696 0.936 . S
H716 C698 0.932 . S
H717 C699 0.929 . S
H718 C700 0.928 . S
H719 C702 0.932 . S
C720 C721 1.264 . S
C720 C725 1.479 . S
C720 C730 1.465 . S
C721 C720 1.264 . S
C721 C723 1.339 . S
C721 H748 0.931 . S
C722 C723 1.395 . S
C722 C724 1.320 . S
C723 C721 1.339 . S
C723 C722 1.395 . S
C723 H749 0.929 . S
C724 C722 1.320 . S
C724 C725 1.405 . S
C724 H750 0.930 . S
C725 C720 1.479 . S
C725 C724 1.405 . S
C725 H751 0.931 . S
U726 O727 2.454 . S
U726 O728 2.458 . S
U726 C729 2.984 . S
U726 C730 2.847 . S
U726 C743 2.882 . S
U726 O744 2.441 . S
U726 O745 2.420 . S
U726 O746 2.455 . S
U726 O747 2.449 . S
O727 U726 2.454 . S
O727 C729 1.353 . S
O728 U726 2.458 . S
O728 C729 1.286 . S
C729 U726 2.984 . S
C729 O727 1.353 . S
C729 O728 1.286 . S
C729 C731 1.363 . S
C730 C720 1.465 . S
C730 U726 2.847 . S
C730 O744 1.249 . S
C730 O745 1.202 . S
C731 C729 1.363 . S
C731 C733 1.408 . S
C731 C736 1.342 . S
C732 C733 1.310 . S
C732 C735 1.461 . S
C732 H752 0.932 . S
C733 C731 1.408 . S
C733 C732 1.310 . S
C733 H753 0.930 . S
C734 C735 1.474 . S
C734 C736 1.285 . S
C734 H754 0.929 . S
C735 C732 1.461 . S
C735 C734 1.474 . S
C736 C731 1.342 . S
C736 C734 1.285 . S
C736 H755 0.930 . S
C737 C740 1.424 . S
C737 C742 1.245 . S
C737 C743 1.428 . S
C738 C741 1.260 . S
C738 C742 1.477 . S
C738 H756 0.932 . S
C739 C740 1.384 . S
C739 C741 1.479 . S
C739 H757 0.929 . S
C740 C737 1.424 . S
C740 C739 1.384 . S
C740 H758 0.928 . S
C741 C738 1.260 . S
C741 C739 1.479 . S
C742 C737 1.245 . S
C742 C738 1.477 . S
C742 H759 0.932 . S
C743 U726 2.882 . S
C743 C737 1.428 . S
C743 O746 1.301 . S
C743 O747 1.282 . S
O744 U726 2.441 . S
O744 C730 1.249 . S
O745 U726 2.420 . S
O745 C730 1.202 . S
O746 U726 2.455 . S
O746 C743 1.301 . S
O747 U726 2.449 . S
O747 C743 1.282 . S
H748 C721 0.931 . S
H749 C723 0.929 . S
H750 C724 0.930 . S
H751 C725 0.931 . S
H752 C732 0.932 . S
H753 C733 0.930 . S
H754 C734 0.929 . S
H755 C736 0.930 . S
H756 C738 0.932 . S
H757 C739 0.929 . S
H758 C740 0.928 . S
H759 C742 0.932 . S
C760 C761 1.264 . S
C760 C765 1.479 . S
C760 C770 1.465 . S
C761 C760 1.264 . S
C761 C763 1.339 . S
C761 H788 0.931 . S
C762 C763 1.395 . S
C762 C764 1.320 . S
C763 C761 1.339 . S
C763 C762 1.395 . S
C763 H789 0.929 . S
C764 C762 1.320 . S
C764 C765 1.405 . S
C764 H790 0.919 1_556 S
C765 C760 1.479 . S
C765 C764 1.405 . S
C765 H791 0.931 . S
U766 O767 2.454 . S
U766 O768 2.458 . S
U766 C769 2.984 . S
U766 C770 2.847 . S
U766 C783 2.882 . S
U766 O784 2.441 . S
U766 O785 2.420 . S
U766 O786 2.455 . S
U766 O787 2.449 . S
O767 U766 2.454 . S
O767 C769 1.353 . S
O768 U766 2.458 . S
O768 C769 1.286 . S
C769 U766 2.984 . S
C769 O767 1.353 . S
C769 O768 1.286 . S
C769 C771 1.363 . S
C770 C760 1.465 . S
C770 U766 2.847 . S
C770 O784 1.249 . S
C770 O785 1.202 . S
C771 C769 1.363 . S
C771 C773 1.408 . S
C771 C776 1.342 . S
C772 C773 1.310 . S
C772 C775 1.460 . S
C772 H792 0.932 . S
C773 C771 1.408 . S
C773 C772 1.310 . S
C773 H793 0.930 . S
C774 C775 1.475 1_554 S
C774 C776 1.285 1_554 S
C774 H794 0.930 . S
C775 C772 1.460 . S
C775 C774 1.475 1_556 S
C776 C771 1.342 . S
C776 C774 1.285 1_556 S
C776 H795 0.930 . S
C777 C780 1.424 . S
C777 C782 1.245 . S
C777 C783 1.428 . S
C778 C781 1.260 . S
C778 C782 1.477 . S
C778 H796 0.932 . S
C779 C780 1.384 . S
C779 C781 1.479 . S
C779 H797 0.929 . S
C780 C777 1.424 . S
C780 C779 1.384 . S
C780 H798 0.928 . S
C781 C778 1.260 . S
C781 C779 1.479 . S
C782 C777 1.245 . S
C782 C778 1.477 . S
C782 H799 0.932 . S
C783 U766 2.882 . S
C783 C777 1.428 . S
C783 O786 1.301 . S
C783 O787 1.282 . S
O784 U766 2.441 . S
O784 C770 1.249 . S
O785 U766 2.420 . S
O785 C770 1.202 . S
O786 U766 2.455 . S
O786 C783 1.301 . S
O787 U766 2.449 . S
O787 C783 1.282 . S
H788 C761 0.931 . S
H789 C763 0.929 . S
H790 C764 0.919 1_554 S
H791 C765 0.931 . S
H792 C772 0.932 . S
H793 C773 0.930 . S
H794 C774 0.930 . S
H795 C776 0.930 . S
H796 C778 0.932 . S
H797 C779 0.929 . S
H798 C780 0.928 . S
H799 C782 0.932 . S
C800 C801 1.264 . S
C800 C805 1.479 . S
C800 C810 1.465 . S
C801 C800 1.264 . S
C801 C803 1.339 . S
C801 H828 0.931 . S
C802 C803 1.395 . S
C802 C804 1.320 . S
C803 C801 1.339 . S
C803 C802 1.395 . S
C803 H829 0.929 . S
C804 C802 1.320 . S
C804 C805 1.405 . S
C804 H830 0.930 . S
C805 C800 1.479 . S
C805 C804 1.405 . S
C805 H831 0.931 . S
U806 O807 2.454 . S
U806 O808 2.458 . S
U806 C809 2.984 . S
U806 C810 2.847 . S
U806 C823 2.882 . S
U806 O824 2.441 . S
U806 O825 2.420 . S
U806 O826 2.455 . S
U806 O827 2.449 . S
O807 U806 2.454 . S
O807 C809 1.353 . S
O808 U806 2.458 . S
O808 C809 1.286 . S
C809 U806 2.984 . S
C809 O807 1.353 . S
C809 O808 1.286 . S
C809 C811 1.363 . S
C810 C800 1.465 . S
C810 U806 2.847 . S
C810 O824 1.249 . S
C810 O825 1.202 . S
C811 C809 1.363 . S
C811 C813 1.408 . S
C811 C816 1.342 . S
C812 C813 1.310 . S
C812 C815 1.461 . S
C812 H832 0.932 . S
C813 C811 1.408 . S
C813 C812 1.310 . S
C813 H833 0.930 . S
C814 C815 1.474 . S
C814 C816 1.285 . S
C814 H834 0.929 . S
C815 C812 1.461 . S
C815 C814 1.474 . S
C816 C811 1.342 . S
C816 C814 1.285 . S
C816 H835 0.930 . S
C817 C820 1.424 . S
C817 C822 1.245 . S
C817 C823 1.428 . S
C818 C821 1.260 . S
C818 C822 1.477 . S
C818 H836 0.932 . S
C819 C820 1.384 . S
C819 C821 1.479 . S
C819 H837 0.929 . S
C820 C817 1.424 . S
C820 C819 1.384 . S
C820 H838 0.928 . S
C821 C818 1.260 . S
C821 C819 1.479 . S
C822 C817 1.245 . S
C822 C818 1.477 . S
C822 H839 0.932 . S
C823 U806 2.882 . S
C823 C817 1.428 . S
C823 O826 1.301 . S
C823 O827 1.282 . S
O824 U806 2.441 . S
O824 C810 1.249 . S
O825 U806 2.420 . S
O825 C810 1.202 . S
O826 U806 2.455 . S
O826 C823 1.301 . S
O827 U806 2.449 . S
O827 C823 1.282 . S
H828 C801 0.931 . S
H829 C803 0.929 . S
H830 C804 0.930 . S
H831 C805 0.931 . S
H832 C812 0.932 . S
H833 C813 0.930 . S
H834 C814 0.929 . S
H835 C816 0.930 . S
H836 C818 0.932 . S
H837 C819 0.929 . S
H838 C820 0.928 . S
H839 C822 0.932 . S
C840 C841 1.264 . S
C840 C845 1.477 1_455 S
C840 C850 1.466 . S
C841 C840 1.264 . S
C841 C843 1.339 1_455 S
C841 H868 0.931 . S
C842 C843 1.395 . S
C842 C844 1.320 . S
C843 C841 1.339 1_655 S
C843 C842 1.395 . S
C843 H869 0.929 1_655 S
C844 C842 1.320 . S
C844 C845 1.405 . S
C844 H870 0.930 . S
C845 C840 1.477 1_655 S
C845 C844 1.405 . S
C845 H871 0.931 . S
U846 O847 2.454 1_455 S
U846 O848 2.458 . S
U846 C849 2.983 1_455 S
U846 C850 2.847 . S
U846 C863 2.882 . S
U846 O864 2.441 . S
U846 O865 2.420 . S
U846 O866 2.455 . S
U846 O867 2.449 . S
O847 U846 2.454 1_655 S
O847 C849 1.355 . S
O848 U846 2.458 . S
O848 C849 1.284 1_455 S
C849 U846 2.983 1_655 S
C849 O847 1.355 . S
C849 O848 1.284 1_655 S
C849 C851 1.364 . S
C850 C840 1.466 . S
C850 U846 2.847 . S
C850 O864 1.249 . S
C850 O865 1.202 . S
C851 C849 1.364 . S
C851 C853 1.408 . S
C851 C856 1.342 . S
C852 C853 1.310 . S
C852 C855 1.461 . S
C852 H872 0.932 . S
C853 C851 1.408 . S
C853 C852 1.310 . S
C853 H873 0.930 . S
C854 C855 1.474 . S
C854 C856 1.285 . S
C854 H874 0.929 . S
C855 C852 1.461 . S
C855 C854 1.474 . S
C856 C851 1.342 . S
C856 C854 1.285 . S
C856 H875 0.936 . S
C857 C860 1.424 . S
C857 C862 1.245 . S
C857 C863 1.428 . S
C858 C861 1.260 . S
C858 C862 1.477 . S
C858 H876 0.932 . S
C859 C860 1.384 . S
C859 C861 1.479 . S
C859 H877 0.929 . S
C860 C857 1.424 . S
C860 C859 1.384 . S
C860 H878 0.928 . S
C861 C858 1.260 . S
C861 C859 1.479 . S
C862 C857 1.245 . S
C862 C858 1.477 . S
C862 H879 0.932 . S
C863 U846 2.882 . S
C863 C857 1.428 . S
C863 O866 1.301 . S
C863 O867 1.282 . S
O864 U846 2.441 . S
O864 C850 1.249 . S
O865 U846 2.420 . S
O865 C850 1.202 . S
O866 U846 2.455 . S
O866 C863 1.301 . S
O867 U846 2.449 . S
O867 C863 1.282 . S
H868 C841 0.931 . S
H869 C843 0.929 1_455 S
H870 C844 0.930 . S
H871 C845 0.931 . S
H872 C852 0.932 . S
H873 C853 0.930 . S
H874 C854 0.929 . S
H875 C856 0.936 . S
H876 C858 0.932 . S
H877 C859 0.929 . S
H878 C860 0.928 . S
H879 C862 0.932 . S
C880 C881 1.264 . S
C880 C885 1.479 . S
C880 C890 1.465 . S
C881 C880 1.264 . S
C881 C883 1.339 . S
C881 H908 0.931 . S
C882 C883 1.395 . S
C882 C884 1.320 . S
C883 C881 1.339 . S
C883 C882 1.395 . S
C883 H909 0.929 . S
C884 C882 1.320 . S
C884 C885 1.405 . S
C884 H910 0.930 . S
C885 C880 1.479 . S
C885 C884 1.405 . S
C885 H911 0.931 . S
U886 O887 2.454 . S
U886 O888 2.458 . S
U886 C889 2.984 . S
U886 C890 2.847 . S
U886 C903 2.882 . S
U886 O904 2.441 . S
U886 O905 2.420 . S
U886 O906 2.455 . S
U886 O907 2.449 . S
O887 U886 2.454 . S
O887 C889 1.353 . S
O888 U886 2.458 . S
O888 C889 1.286 . S
C889 U886 2.984 . S
C889 O887 1.353 . S
C889 O888 1.286 . S
C889 C891 1.363 . S
C890 C880 1.465 . S
C890 U886 2.847 . S
C890 O904 1.249 . S
C890 O905 1.202 . S
C891 C889 1.363 . S
C891 C893 1.408 . S
C891 C896 1.342 . S
C892 C893 1.310 . S
C892 C895 1.461 . S
C892 H912 0.932 . S
C893 C891 1.408 . S
C893 C892 1.310 . S
C893 H913 0.930 . S
C894 C895 1.474 . S
C894 C896 1.285 . S
C894 H914 0.929 . S
C895 C892 1.461 . S
C895 C894 1.474 . S
C896 C891 1.342 . S
C896 C894 1.285 . S
C896 H915 0.930 . S
C897 C900 1.424 . S
C897 C902 1.245 . S
C897 C903 1.428 . S
C898 C901 1.260 . S
C898 C902 1.477 . S
C898 H916 0.932 . S
C899 C900 1.384 . S
C899 C901 1.479 . S
C899 H917 0.929 . S
C900 C897 1.424 . S
C900 C899 1.384 . S
C900 H918 0.928 . S
C901 C898 1.260 . S
C901 C899 1.479 . S
C902 C897 1.245 . S
C902 C898 1.477 . S
C902 H919 0.932 . S
C903 U886 2.882 . S
C903 C897 1.428 . S
C903 O906 1.301 . S
C903 O907 1.282 . S
O904 U886 2.441 . S
O904 C890 1.249 . S
O905 U886 2.420 . S
O905 C890 1.202 . S
O906 U886 2.455 . S
O906 C903 1.301 . S
O907 U886 2.449 . S
O907 C903 1.282 . S
H908 C881 0.931 . S
H909 C883 0.929 . S
H910 C884 0.930 . S
H911 C885 0.931 . S
H912 C892 0.932 . S
H913 C893 0.930 . S
H914 C894 0.929 . S
H915 C896 0.930 . S
H916 C898 0.932 . S
H917 C899 0.929 . S
H918 C900 0.928 . S
H919 C902 0.932 . S
C920 C921 1.264 . S
C920 C925 1.479 . S
C920 C930 1.465 . S
C921 C920 1.264 . S
C921 C923 1.339 . S
C921 H948 0.931 . S
C922 C923 1.395 . S
C922 C924 1.320 . S
C923 C921 1.339 . S
C923 C922 1.395 . S
C923 H949 0.929 . S
C924 C922 1.320 . S
C924 C925 1.405 . S
C924 H950 0.919 1_655 S
C925 C920 1.479 . S
C925 C924 1.405 . S
C925 H951 0.931 . S
U926 O927 2.454 . S
U926 O928 2.458 . S
U926 C929 2.984 . S
U926 C930 2.847 . S
U926 C943 2.882 . S
U926 O944 2.441 . S
U926 O945 2.420 . S
U926 O946 2.455 . S
U926 O947 2.449 . S
O927 U926 2.454 . S
O927 C929 1.353 . S
O928 U926 2.458 . S
O928 C929 1.286 . S
C929 U926 2.984 . S
C929 O927 1.353 . S
C929 O928 1.286 . S
C929 C931 1.363 . S
C930 C920 1.465 . S
C930 U926 2.847 . S
C930 O944 1.249 . S
C930 O945 1.202 . S
C931 C929 1.363 . S
C931 C933 1.408 . S
C931 C936 1.342 . S
C932 C933 1.310 . S
C932 C935 1.460 . S
C932 H952 0.932 . S
C933 C931 1.408 . S
C933 C932 1.310 . S
C933 H953 0.930 . S
C934 C935 1.475 1_455 S
C934 C936 1.285 1_455 S
C934 H954 0.930 . S
C935 C932 1.460 . S
C935 C934 1.475 1_655 S
C936 C931 1.342 . S
C936 C934 1.285 1_655 S
C936 H955 0.930 . S
C937 C940 1.424 . S
C937 C942 1.245 . S
C937 C943 1.428 . S
C938 C941 1.260 . S
C938 C942 1.477 . S
C938 H956 0.932 . S
C939 C940 1.384 . S
C939 C941 1.479 . S
C939 H957 0.929 . S
C940 C937 1.424 . S
C940 C939 1.384 . S
C940 H958 0.928 . S
C941 C938 1.260 . S
C941 C939 1.479 . S
C942 C937 1.245 . S
C942 C938 1.477 . S
C942 H959 0.932 . S
C943 U926 2.882 . S
C943 C937 1.428 . S
C943 O946 1.301 . S
C943 O947 1.282 . S
O944 U926 2.441 . S
O944 C930 1.249 . S
O945 U926 2.420 . S
O945 C930 1.202 . S
O946 U926 2.455 . S
O946 C943 1.301 . S
O947 U926 2.449 . S
O947 C943 1.282 . S
H948 C921 0.931 . S
H949 C923 0.929 . S
H950 C924 0.919 1_455 S
H951 C925 0.931 . S
H952 C932 0.932 . S
H953 C933 0.930 . S
H954 C934 0.930 . S
H955 C936 0.930 . S
H956 C938 0.932 . S
H957 C939 0.929 . S
H958 C940 0.928 . S
H959 C942 0.932 . S
H960 C965 0.930 . S
H961 C968 0.930 . S
H962 C970 0.930 . S
H963 C964 1.016 . S
C964 H963 1.016 . S
C964 N971 1.286 . S
C965 H960 0.930 . S
C965 C966 1.397 . S
C965 C967 1.361 . S
C966 C965 1.397 . S
C966 C970 1.390 . S
C967 C965 1.361 . S
C967 C968 1.393 . S
C967 N971 1.413 . S
C968 H961 0.930 . S
C968 C967 1.393 . S
C968 C969 1.399 . S
C969 C968 1.399 . S
C969 C970 1.381 . S
C970 H962 0.930 . S
C970 C966 1.390 . S
C970 C969 1.381 . S
N971 C964 1.286 . S
N971 C967 1.413 . S
H972 C977 0.930 . S
H973 C980 0.930 . S
H974 C982 0.930 . S
H975 C976 1.016 1_556 S
C976 H975 1.016 1_554 S
C976 N983 1.286 . S
C977 H972 0.930 . S
C977 C978 1.397 . S
C977 C979 1.361 . S
C978 C977 1.397 . S
C978 C982 1.390 1_554 S
C979 C977 1.361 . S
C979 C980 1.393 1_554 S
C979 N983 1.413 . S
C980 H973 0.930 . S
C980 C979 1.393 1_556 S
C980 C981 1.399 . S
C981 C980 1.399 . S
C981 C982 1.381 . S
C982 H974 0.930 . S
C982 C978 1.390 1_556 S
C982 C981 1.381 . S
N983 C976 1.286 . S
N983 C979 1.413 . S
H984 C989 0.930 . S
H985 C992 0.930 . S
H986 C994 0.930 . S
H987 C988 1.016 . S
C988 H987 1.016 . S
C988 N995 1.286 . S
C989 H984 0.930 . S
C989 C990 1.397 . S
C989 C991 1.361 1_565 S
C990 C989 1.397 . S
C990 C994 1.390 . S
C991 C989 1.361 1_545 S
C991 C992 1.393 . S
C991 N995 1.413 . S
C992 H985 0.930 . S
C992 C991 1.393 . S
C992 C993 1.399 1_545 S
C993 C992 1.399 1_565 S
C993 C994 1.381 . S
C994 H986 0.930 . S
C994 C990 1.390 . S
C994 C993 1.381 . S
N995 C988 1.286 . S
N995 C991 1.413 . S
H996 C1001 0.930 . S
H997 C1004 0.930 . S
H998 C1006 0.930 . S
H999 C1000 1.016 . S
C1000 H999 1.016 . S
C1000 N1007 1.286 . S
C1001 H996 0.930 . S
C1001 C1002 1.397 . S
C1001 C1003 1.361 . S
C1002 C1001 1.397 . S
C1002 C1006 1.390 1_556 S
C1003 C1001 1.361 . S
C1003 C1004 1.393 1_556 S
C1003 N1007 1.413 . S
C1004 H997 0.930 . S
C1004 C1003 1.393 1_554 S
C1004 C1005 1.399 . S
C1005 C1004 1.399 . S
C1005 C1006 1.381 . S
C1006 H998 0.930 . S
C1006 C1002 1.390 1_554 S
C1006 C1005 1.381 . S
N1007 C1000 1.286 . S
N1007 C1003 1.413 . S
H1008 C1013 0.930 . S
H1009 C1016 0.930 . S
H1010 C1018 0.930 . S
H1011 C1012 1.016 . S
C1012 H1011 1.016 . S
C1012 N1019 1.286 . S
C1013 H1008 0.930 . S
C1013 C1014 1.397 . S
C1013 C1015 1.361 . S
C1014 C1013 1.397 . S
C1014 C1018 1.390 . S
C1015 C1013 1.361 . S
C1015 C1016 1.393 . S
C1015 N1019 1.413 . S
C1016 H1009 0.930 . S
C1016 C1015 1.393 . S
C1016 C1017 1.399 . S
C1017 C1016 1.399 . S
C1017 C1018 1.381 . S
C1018 H1010 0.930 . S
C1018 C1014 1.390 . S
C1018 C1017 1.381 . S
N1019 C1012 1.286 . S
N1019 C1015 1.413 . S
H1020 C1025 0.930 . S
H1021 C1028 0.930 . S
H1022 C1030 0.930 . S
H1023 C1024 1.016 . S
C1024 H1023 1.016 . S
C1024 N1031 1.286 . S
C1025 H1020 0.930 . S
C1025 C1026 1.397 . S
C1025 C1027 1.361 . S
C1026 C1025 1.397 . S
C1026 C1030 1.390 1_655 S
C1027 C1025 1.361 . S
C1027 C1028 1.393 1_655 S
C1027 N1031 1.413 . S
C1028 H1021 0.930 . S
C1028 C1027 1.393 1_455 S
C1028 C1029 1.399 . S
C1029 C1028 1.399 . S
C1029 C1030 1.381 . S
C1030 H1022 0.930 . S
C1030 C1026 1.390 1_455 S
C1030 C1029 1.381 . S
N1031 C1024 1.286 . S
N1031 C1027 1.413 . S
H1032 C1037 0.930 . S
H1033 C1040 0.930 . S
H1034 C1042 0.930 . S
H1035 C1036 1.016 1_655 S
C1036 H1035 1.016 1_455 S
C1036 N1043 1.286 . S
C1037 H1032 0.930 . S
C1037 C1038 1.397 . S
C1037 C1039 1.361 . S
C1038 C1037 1.397 . S
C1038 C1042 1.390 1_455 S
C1039 C1037 1.361 . S
C1039 C1040 1.393 1_455 S
C1039 N1043 1.413 . S
C1040 H1033 0.930 . S
C1040 C1039 1.393 1_655 S
C1040 C1041 1.399 . S
C1041 C1040 1.399 . S
C1041 C1042 1.381 . S
C1042 H1034 0.930 . S
C1042 C1038 1.390 1_655 S
C1042 C1041 1.381 . S
N1043 C1036 1.286 . S
N1043 C1039 1.413 . S
H1044 C1049 0.930 . S
H1045 C1052 0.930 . S
H1046 C1054 0.930 . S
H1047 C1048 1.016 . S
C1048 H1047 1.016 . S
C1048 N1055 1.286 . S
C1049 H1044 0.930 . S
C1049 C1050 1.397 . S
C1049 C1051 1.361 1_556 S
C1050 C1049 1.397 . S
C1050 C1054 1.390 . S
C1051 C1049 1.361 1_554 S
C1051 C1052 1.393 . S
C1051 N1055 1.413 . S
C1052 H1045 0.930 . S
C1052 C1051 1.393 . S
C1052 C1053 1.399 1_554 S
C1053 C1052 1.399 1_556 S
C1053 C1054 1.381 . S
C1054 H1046 0.930 . S
C1054 C1050 1.390 . S
C1054 C1053 1.381 . S
N1055 C1048 1.286 . S
N1055 C1051 1.413 . S
H1056 C1061 0.930 . S
H1057 C1064 0.930 . S
H1058 C1066 0.930 . S
H1059 C1060 1.016 . S
C1060 H1059 1.016 . S
C1060 N1067 1.286 . S
C1061 H1056 0.930 . S
C1061 C1062 1.397 . S
C1061 C1063 1.361 . S
C1062 C1061 1.397 . S
C1062 C1066 1.390 . S
C1063 C1061 1.361 . S
C1063 C1064 1.393 . S
C1063 N1067 1.413 . S
C1064 H1057 0.930 . S
C1064 C1063 1.393 . S
C1064 C1065 1.399 . S
C1065 C1064 1.399 . S
C1065 C1066 1.381 . S
C1066 H1058 0.930 . S
C1066 C1062 1.390 . S
C1066 C1065 1.381 . S
N1067 C1060 1.286 . S
N1067 C1063 1.413 . S
H1068 C1073 0.930 . S
H1069 C1076 0.930 . S
H1070 C1078 0.930 . S
H1071 C1072 1.016 . S
C1072 H1071 1.016 . S
C1072 N1079 1.286 . S
C1073 H1068 0.930 . S
C1073 C1074 1.397 . S
C1073 C1075 1.361 . S
C1074 C1073 1.397 . S
C1074 C1078 1.390 1_565 S
C1075 C1073 1.361 . S
C1075 C1076 1.393 1_565 S
C1075 N1079 1.413 . S
C1076 H1069 0.930 . S
C1076 C1075 1.393 1_545 S
C1076 C1077 1.399 . S
C1077 C1076 1.399 . S
C1077 C1078 1.381 . S
C1078 H1070 0.930 . S
C1078 C1074 1.390 1_545 S
C1078 C1077 1.381 . S
N1079 C1072 1.286 . S
N1079 C1075 1.413 . S
H1080 C1085 0.930 . S
H1081 C1088 0.930 . S
H1082 C1090 0.930 . S
H1083 C1084 1.016 1_565 S
C1084 H1083 1.016 1_545 S
C1084 N1091 1.286 . S
C1085 H1080 0.930 . S
C1085 C1086 1.397 . S
C1085 C1087 1.361 . S
C1086 C1085 1.397 . S
C1086 C1090 1.390 1_545 S
C1087 C1085 1.361 . S
C1087 C1088 1.393 1_545 S
C1087 N1091 1.413 . S
C1088 H1081 0.930 . S
C1088 C1087 1.393 1_565 S
C1088 C1089 1.399 . S
C1089 C1088 1.399 . S
C1089 C1090 1.381 . S
C1090 H1082 0.930 . S
C1090 C1086 1.390 1_565 S
C1090 C1089 1.381 . S
N1091 C1084 1.286 . S
N1091 C1087 1.413 . S
H1092 C1097 0.930 . S
H1093 C1100 0.930 . S
H1094 C1102 0.930 . S
H1095 C1096 1.016 . S
C1096 H1095 1.016 . S
C1096 N1103 1.286 . S
C1097 H1092 0.930 . S
C1097 C1098 1.397 . S
C1097 C1099 1.361 1_655 S
C1098 C1097 1.397 . S
C1098 C1102 1.390 . S
C1099 C1097 1.361 1_455 S
C1099 C1100 1.393 . S
C1099 N1103 1.413 . S
C1100 H1093 0.930 . S
C1100 C1099 1.393 . S
C1100 C1101 1.399 1_455 S
C1101 C1100 1.399 1_655 S
C1101 C1102 1.381 . S
C1102 H1094 0.930 . S
C1102 C1098 1.390 . S
C1102 C1101 1.381 . S
N1103 C1096 1.286 . S
N1103 C1099 1.413 . S
H1104 C1109 0.930 . S
H1105 C1112 0.930 . S
H1106 C1114 0.930 . S
H1107 C1108 1.016 . S
C1108 H1107 1.016 . S
C1108 N1115 1.286 . S
C1109 H1104 0.930 . S
C1109 C1110 1.397 . S
C1109 C1111 1.361 . S
C1110 C1109 1.397 . S
C1110 C1114 1.390 . S
C1111 C1109 1.361 . S
C1111 C1112 1.393 . S
C1111 N1115 1.413 . S
C1112 H1105 0.930 . S
C1112 C1111 1.393 . S
C1112 C1113 1.399 . S
C1113 C1112 1.399 . S
C1113 C1114 1.381 . S
C1114 H1106 0.930 . S
C1114 C1110 1.390 . S
C1114 C1113 1.381 . S
N1115 C1108 1.286 . S
N1115 C1111 1.413 . S
H1116 C1121 0.930 . S
H1117 C1124 0.930 . S
H1118 C1126 0.930 . S
H1119 C1120 1.016 1_554 S
C1120 H1119 1.016 1_556 S
C1120 N1127 1.286 . S
C1121 H1116 0.930 . S
C1121 C1122 1.397 . S
C1121 C1123 1.361 . S
C1122 C1121 1.397 . S
C1122 C1126 1.390 1_556 S
C1123 C1121 1.361 . S
C1123 C1124 1.393 1_556 S
C1123 N1127 1.413 . S
C1124 H1117 0.930 . S
C1124 C1123 1.393 1_554 S
C1124 C1125 1.399 . S
C1125 C1124 1.399 . S
C1125 C1126 1.381 . S
C1126 H1118 0.930 . S
C1126 C1122 1.390 1_554 S
C1126 C1125 1.381 . S
N1127 C1120 1.286 . S
N1127 C1123 1.413 . S
H1128 C1133 0.930 . S
H1129 C1136 0.930 . S
H1130 C1138 0.930 . S
H1131 C1132 1.016 . S
C1132 H1131 1.016 . S
C1132 N1139 1.286 . S
C1133 H1128 0.930 . S
C1133 C1134 1.397 . S
C1133 C1135 1.361 1_545 S
C1134 C1133 1.397 . S
C1134 C1138 1.390 . S
C1135 C1133 1.361 1_565 S
C1135 C1136 1.393 . S
C1135 N1139 1.413 . S
C1136 H1129 0.930 . S
C1136 C1135 1.393 . S
C1136 C1137 1.399 1_565 S
C1137 C1136 1.399 1_545 S
C1137 C1138 1.381 . S
C1138 H1130 0.930 . S
C1138 C1134 1.390 . S
C1138 C1137 1.381 . S
N1139 C1132 1.286 . S
N1139 C1135 1.413 . S
H1140 C1145 0.930 . S
H1141 C1148 0.930 . S
H1142 C1150 0.930 . S
H1143 C1144 1.016 1_556 S
C1144 H1143 1.016 1_554 S
C1144 N1151 1.286 . S
C1145 H1140 0.930 . S
C1145 C1146 1.397 . S
C1145 C1147 1.361 . S
C1146 C1145 1.397 . S
C1146 C1150 1.390 1_554 S
C1147 C1145 1.361 . S
C1147 C1148 1.393 1_554 S
C1147 N1151 1.413 . S
C1148 H1141 0.930 . S
C1148 C1147 1.393 1_556 S
C1148 C1149 1.399 . S
C1149 C1148 1.399 . S
C1149 C1150 1.381 . S
C1150 H1142 0.930 . S
C1150 C1146 1.390 1_556 S
C1150 C1149 1.381 . S
N1151 C1144 1.286 . S
N1151 C1147 1.413 . S
H1152 C1157 0.930 . S
H1153 C1160 0.930 . S
H1154 C1162 0.930 . S
H1155 C1156 1.016 . S
C1156 H1155 1.016 . S
C1156 N1163 1.286 . S
C1157 H1152 0.930 . S
C1157 C1158 1.397 . S
C1157 C1159 1.361 . S
C1158 C1157 1.397 . S
C1158 C1162 1.390 . S
C1159 C1157 1.361 . S
C1159 C1160 1.393 . S
C1159 N1163 1.413 . S
C1160 H1153 0.930 . S
C1160 C1159 1.393 . S
C1160 C1161 1.399 . S
C1161 C1160 1.399 . S
C1161 C1162 1.381 . S
C1162 H1154 0.930 . S
C1162 C1158 1.390 . S
C1162 C1161 1.381 . S
N1163 C1156 1.286 . S
N1163 C1159 1.413 . S
H1164 C1169 0.930 . S
H1165 C1172 0.930 . S
H1166 C1174 0.930 . S
H1167 C1168 1.016 1_655 S
C1168 H1167 1.016 1_455 S
C1168 N1175 1.286 . S
C1169 H1164 0.930 . S
C1169 C1170 1.397 . S
C1169 C1171 1.361 . S
C1170 C1169 1.397 . S
C1170 C1174 1.390 1_455 S
C1171 C1169 1.361 . S
C1171 C1172 1.393 1_455 S
C1171 N1175 1.413 . S
C1172 H1165 0.930 . S
C1172 C1171 1.393 1_655 S
C1172 C1173 1.399 . S
C1173 C1172 1.399 . S
C1173 C1174 1.381 . S
C1174 H1166 0.930 . S
C1174 C1170 1.390 1_655 S
C1174 C1173 1.381 . S
N1175 C1168 1.286 . S
N1175 C1171 1.413 . S
H1176 C1181 0.930 . S
H1177 C1184 0.930 . S
H1178 C1186 0.930 . S
H1179 C1180 1.016 1_455 S
C1180 H1179 1.016 1_655 S
C1180 N1187 1.286 . S
C1181 H1176 0.930 . S
C1181 C1182 1.397 . S
C1181 C1183 1.361 . S
C1182 C1181 1.397 . S
C1182 C1186 1.390 1_655 S
C1183 C1181 1.361 . S
C1183 C1184 1.393 1_655 S
C1183 N1187 1.413 . S
C1184 H1177 0.930 . S
C1184 C1183 1.393 1_455 S
C1184 C1185 1.399 . S
C1185 C1184 1.399 . S
C1185 C1186 1.381 . S
C1186 H1178 0.930 . S
C1186 C1182 1.390 1_455 S
C1186 C1185 1.381 . S
N1187 C1180 1.286 . S
N1187 C1183 1.413 . S
H1188 C1193 0.930 . S
H1189 C1196 0.930 . S
H1190 C1198 0.930 . S
H1191 C1192 1.016 . S
C1192 H1191 1.016 . S
C1192 N1199 1.286 . S
C1193 H1188 0.930 . S
C1193 C1194 1.397 . S
C1193 C1195 1.361 1_554 S
C1194 C1193 1.397 . S
C1194 C1198 1.390 . S
C1195 C1193 1.361 1_556 S
C1195 C1196 1.393 . S
C1195 N1199 1.413 . S
C1196 H1189 0.930 . S
C1196 C1195 1.393 . S
C1196 C1197 1.399 1_556 S
C1197 C1196 1.399 1_554 S
C1197 C1198 1.381 . S
C1198 H1190 0.930 . S
C1198 C1194 1.390 . S
C1198 C1197 1.381 . S
N1199 C1192 1.286 . S
N1199 C1195 1.413 . S
H1200 C1205 0.930 . S
H1201 C1208 0.930 . S
H1202 C1210 0.930 . S
H1203 C1204 1.016 . S
C1204 H1203 1.016 . S
C1204 N1211 1.286 . S
C1205 H1200 0.930 . S
C1205 C1206 1.397 . S
C1205 C1207 1.361 . S
C1206 C1205 1.397 . S
C1206 C1210 1.390 . S
C1207 C1205 1.361 . S
C1207 C1208 1.393 . S
C1207 N1211 1.413 . S
C1208 H1201 0.930 . S
C1208 C1207 1.393 . S
C1208 C1209 1.399 . S
C1209 C1208 1.399 . S
C1209 C1210 1.381 . S
C1210 H1202 0.930 . S
C1210 C1206 1.390 . S
C1210 C1209 1.381 . S
N1211 C1204 1.286 . S
N1211 C1207 1.413 . S
H1212 C1217 0.930 . S
H1213 C1220 0.930 . S
H1214 C1222 0.930 . S
H1215 C1216 1.016 1_565 S
C1216 H1215 1.016 1_545 S
C1216 N1223 1.286 . S
C1217 H1212 0.930 . S
C1217 C1218 1.397 . S
C1217 C1219 1.361 . S
C1218 C1217 1.397 . S
C1218 C1222 1.390 1_545 S
C1219 C1217 1.361 . S
C1219 C1220 1.393 1_545 S
C1219 N1223 1.413 . S
C1220 H1213 0.930 . S
C1220 C1219 1.393 1_565 S
C1220 C1221 1.399 . S
C1221 C1220 1.399 . S
C1221 C1222 1.381 . S
C1222 H1214 0.930 . S
C1222 C1218 1.390 1_565 S
C1222 C1221 1.381 . S
N1223 C1216 1.286 . S
N1223 C1219 1.413 . S
H1224 C1229 0.930 . S
H1225 C1232 0.930 . S
H1226 C1234 0.930 . S
H1227 C1228 1.016 1_545 S
C1228 H1227 1.016 1_565 S
C1228 N1235 1.286 . S
C1229 H1224 0.930 . S
C1229 C1230 1.397 . S
C1229 C1231 1.361 . S
C1230 C1229 1.397 . S
C1230 C1234 1.390 1_565 S
C1231 C1229 1.361 . S
C1231 C1232 1.393 1_565 S
C1231 N1235 1.413 . S
C1232 H1225 0.930 . S
C1232 C1231 1.393 1_545 S
C1232 C1233 1.399 . S
C1233 C1232 1.399 . S
C1233 C1234 1.381 . S
C1234 H1226 0.930 . S
C1234 C1230 1.390 1_545 S
C1234 C1233 1.381 . S
N1235 C1228 1.286 . S
N1235 C1231 1.413 . S
H1236 C1241 0.930 . S
H1237 C1244 0.930 . S
H1238 C1246 0.930 . S
H1239 C1240 1.016 . S
C1240 H1239 1.016 . S
C1240 N1247 1.286 . S
C1241 H1236 0.930 . S
C1241 C1242 1.397 . S
C1241 C1243 1.361 1_455 S
C1242 C1241 1.397 . S
C1242 C1246 1.390 . S
C1243 C1241 1.361 1_655 S
C1243 C1244 1.393 . S
C1243 N1247 1.413 . S
C1244 H1237 0.930 . S
C1244 C1243 1.393 . S
C1244 C1245 1.399 1_655 S
C1245 C1244 1.399 1_455 S
C1245 C1246 1.381 . S
C1246 H1238 0.930 . S
C1246 C1242 1.390 . S
C1246 C1245 1.381 . S
N1247 C1240 1.286 . S
N1247 C1243 1.413 . S
C1248 C1249 1.363 . S
C1248 C1254 1.379 . S
C1248 N1256 1.356 . S
C1249 C1248 1.363 . S
C1249 C1255 1.363 . S
C1250 C1251 1.363 . S
C1250 C1255 1.379 . S
C1250 N1257 1.356 . S
C1251 C1250 1.363 . S
C1251 C1254 1.363 . S
N1252 C1254 1.356 . S
N1252 H1264 0.984 . S
N1252 H1265 0.985 . S
N1253 C1255 1.356 . S
N1253 H1258 0.984 . S
N1253 H1259 0.985 . S
C1254 C1248 1.379 . S
C1254 C1251 1.363 . S
C1254 N1252 1.356 . S
C1255 C1249 1.363 . S
C1255 C1250 1.379 . S
C1255 N1253 1.356 . S
N1256 C1248 1.356 . S
N1256 H1262 0.984 . S
N1256 H1263 0.984 . S
N1257 C1250 1.356 . S
N1257 H1260 0.984 . S
N1257 H1261 0.985 . S
H1258 N1253 0.984 . S
H1259 N1253 0.985 . S
H1260 N1257 0.984 . S
H1261 N1257 0.985 . S
H1262 N1256 0.984 . S
H1263 N1256 0.984 . S
H1264 N1252 0.984 . S
H1265 N1252 0.985 . S
C1266 C1267 1.363 . S
C1266 C1272 1.379 . S
C1266 N1274 1.356 . S
C1267 C1266 1.363 . S
C1267 C1273 1.363 . S
C1268 C1269 1.363 . S
C1268 C1273 1.379 . S
C1268 N1275 1.356 . S
C1269 C1268 1.363 . S
C1269 C1272 1.363 . S
N1270 C1272 1.356 . S
N1270 H1282 0.984 . S
N1270 H1283 0.985 . S
N1271 C1273 1.356 . S
N1271 H1276 0.984 . S
N1271 H1277 0.985 . S
C1272 C1266 1.379 . S
C1272 C1269 1.363 . S
C1272 N1270 1.356 . S
C1273 C1267 1.363 . S
C1273 C1268 1.379 . S
C1273 N1271 1.356 . S
N1274 C1266 1.356 . S
N1274 H1280 0.984 . S
N1274 H1281 0.984 . S
N1275 C1268 1.356 . S
N1275 H1278 0.984 . S
N1275 H1279 0.985 . S
H1276 N1271 0.984 . S
H1277 N1271 0.985 . S
H1278 N1275 0.984 . S
H1279 N1275 0.985 . S
H1280 N1274 0.984 . S
H1281 N1274 0.984 . S
H1282 N1270 0.984 . S
H1283 N1270 0.985 . S
C1284 C1285 1.363 . S
C1284 C1290 1.390 . S
C1284 N1292 1.345 1_565 S
C1285 C1284 1.363 . S
C1285 C1291 1.363 . S
C1286 C1287 1.363 . S
C1286 C1291 1.379 . S
C1286 N1293 1.356 . S
C1287 C1286 1.363 . S
C1287 C1290 1.363 . S
N1288 C1290 1.356 . S
N1288 H1300 0.984 . S
N1288 H1301 0.985 . S
N1289 C1291 1.356 . S
N1289 H1294 0.984 . S
N1289 H1295 0.985 . S
C1290 C1284 1.390 . S
C1290 C1287 1.363 . S
C1290 N1288 1.356 . S
C1291 C1285 1.363 . S
C1291 C1286 1.379 . S
C1291 N1289 1.356 . S
N1292 C1284 1.345 1_545 S
N1292 H1298 0.984 . S
N1292 H1299 0.984 . S
N1293 C1286 1.356 . S
N1293 H1296 0.984 . S
N1293 H1297 0.985 . S
H1294 N1289 0.984 . S
H1295 N1289 0.985 . S
H1296 N1293 0.984 . S
H1297 N1293 0.985 . S
H1298 N1292 0.984 . S
H1299 N1292 0.984 . S
H1300 N1288 0.984 . S
H1301 N1288 0.985 . S
C1302 C1303 1.363 . S
C1302 C1308 1.379 1_655 S
C1302 N1310 1.356 . S
C1303 C1302 1.363 . S
C1303 C1309 1.363 . S
C1304 C1305 1.363 . S
C1304 C1309 1.379 1_455 S
C1304 N1311 1.356 1_545 S
C1305 C1304 1.363 . S
C1305 C1308 1.363 . S
N1306 C1308 1.356 . S
N1306 H1318 0.984 . S
N1306 H1319 0.985 . S
N1307 C1309 1.356 1_565 S
N1307 H1312 0.984 . S
N1307 H1313 0.985 . S
C1308 C1302 1.379 1_455 S
C1308 C1305 1.363 . S
C1308 N1306 1.356 . S
C1309 C1303 1.363 . S
C1309 C1304 1.379 1_655 S
C1309 N1307 1.356 1_545 S
N1310 C1302 1.356 . S
N1310 H1316 0.984 . S
N1310 H1317 0.984 . S
N1311 C1304 1.356 1_565 S
N1311 H1314 0.984 . S
N1311 H1315 0.985 . S
H1312 N1307 0.984 . S
H1313 N1307 0.985 . S
H1314 N1311 0.984 . S
H1315 N1311 0.985 . S
H1316 N1310 0.984 . S
H1317 N1310 0.984 . S
H1318 N1306 0.984 . S
H1319 N1306 0.985 . S
C1320 C1321 1.363 . S
C1320 C1326 1.379 . S
C1320 N1328 1.356 . S
C1321 C1320 1.363 . S
C1321 C1327 1.363 . S
C1322 C1323 1.363 . S
C1322 C1327 1.379 . S
C1322 N1329 1.356 . S
C1323 C1322 1.363 . S
C1323 C1326 1.363 . S
N1324 C1326 1.356 . S
N1324 H1336 0.984 . S
N1324 H1337 0.985 . S
N1325 C1327 1.356 . S
N1325 H1330 0.984 . S
N1325 H1331 0.985 . S
C1326 C1320 1.379 . S
C1326 C1323 1.363 . S
C1326 N1324 1.356 . S
C1327 C1321 1.363 . S
C1327 C1322 1.379 . S
C1327 N1325 1.356 . S
N1328 C1320 1.356 . S
N1328 H1334 0.984 . S
N1328 H1335 0.984 . S
N1329 C1322 1.356 . S
N1329 H1332 0.984 . S
N1329 H1333 0.985 . S
H1330 N1325 0.984 . S
H1331 N1325 0.985 . S
H1332 N1329 0.984 . S
H1333 N1329 0.985 . S
H1334 N1328 0.984 . S
H1335 N1328 0.984 . S
H1336 N1324 0.984 . S
H1337 N1324 0.985 . S
C1338 C1339 1.363 . S
C1338 C1344 1.379 1_565 S
C1338 N1346 1.356 . S
C1339 C1338 1.363 . S
C1339 C1345 1.388 . S
C1340 C1341 1.379 . S
C1340 C1345 1.378 1_545 S
C1340 N1347 1.342 1_554 S
C1341 C1340 1.379 . S
C1341 C1344 1.363 . S
N1342 C1344 1.356 . S
N1342 H1354 0.984 . S
N1342 H1355 0.985 . S
N1343 C1345 1.339 1_556 S
N1343 H1348 0.984 . S
N1343 H1349 0.985 . S
C1344 C1338 1.379 1_545 S
C1344 C1341 1.363 . S
C1344 N1342 1.356 . S
C1345 C1339 1.388 . S
C1345 C1340 1.378 1_565 S
C1345 N1343 1.339 1_554 S
N1346 C1338 1.356 . S
N1346 H1352 0.984 . S
N1346 H1353 0.984 . S
N1347 C1340 1.342 1_556 S
N1347 H1350 0.984 . S
N1347 H1351 0.985 . S
H1348 N1343 0.984 . S
H1349 N1343 0.985 . S
H1350 N1347 0.984 . S
H1351 N1347 0.985 . S
H1352 N1346 0.984 . S
H1353 N1346 0.984 . S
H1354 N1342 0.984 . S
H1355 N1342 0.985 . S
C1356 C1357 1.363 . S
C1356 C1362 1.379 . S
C1356 N1364 1.356 . S
C1357 C1356 1.363 . S
C1357 C1363 1.363 . S
C1358 C1359 1.363 . S
C1358 C1363 1.379 . S
C1358 N1365 1.356 . S
C1359 C1358 1.363 . S
C1359 C1362 1.363 . S
N1360 C1362 1.356 . S
N1360 H1372 0.984 . S
N1360 H1373 0.985 . S
N1361 C1363 1.356 . S
N1361 H1366 0.984 . S
N1361 H1367 0.985 . S
C1362 C1356 1.379 . S
C1362 C1359 1.363 . S
C1362 N1360 1.356 . S
C1363 C1357 1.363 . S
C1363 C1358 1.379 . S
C1363 N1361 1.356 . S
N1364 C1356 1.356 . S
N1364 H1370 0.984 . S
N1364 H1371 0.984 . S
N1365 C1358 1.356 . S
N1365 H1368 0.984 . S
N1365 H1369 0.985 . S
H1366 N1361 0.984 . S
H1367 N1361 0.985 . S
H1368 N1365 0.984 . S
H1369 N1365 0.985 . S
H1370 N1364 0.984 . S
H1371 N1364 0.984 . S
H1372 N1360 0.984 . S
H1373 N1360 0.985 . S
C1374 C1375 1.363 1_554 S
C1374 C1380 1.379 . S
C1374 N1382 1.356 . S
C1375 C1374 1.363 1_556 S
C1375 C1381 1.363 . S
C1376 C1377 1.363 . S
C1376 C1381 1.379 . S
C1376 N1383 1.356 . S
C1377 C1376 1.363 . S
C1377 C1380 1.363 1_556 S
N1378 C1380 1.356 . S
N1378 H1390 0.984 . S
N1378 H1391 0.985 . S
N1379 C1381 1.356 . S
N1379 H1384 0.984 . S
N1379 H1385 0.985 . S
C1380 C1374 1.379 . S
C1380 C1377 1.363 1_554 S
C1380 N1378 1.356 . S
C1381 C1375 1.363 . S
C1381 C1376 1.379 . S
C1381 N1379 1.356 . S
N1382 C1374 1.356 . S
N1382 H1388 0.984 . S
N1382 H1389 0.984 . S
N1383 C1376 1.356 . S
N1383 H1386 0.984 . S
N1383 H1387 0.985 . S
H1384 N1379 0.984 . S
H1385 N1379 0.985 . S
H1386 N1383 0.984 . S
H1387 N1383 0.985 . S
H1388 N1382 0.984 . S
H1389 N1382 0.984 . S
H1390 N1378 0.984 . S
H1391 N1378 0.985 . S
C1392 C1393 1.363 . S
C1392 C1398 1.379 . S
C1392 N1400 1.356 . S
C1393 C1392 1.363 . S
C1393 C1399 1.363 . S
C1394 C1395 1.363 . S
C1394 C1399 1.379 . S
C1394 N1401 1.356 . S
C1395 C1394 1.363 . S
C1395 C1398 1.363 . S
N1396 C1398 1.356 . S
N1396 H1408 0.984 . S
N1396 H1409 0.985 . S
N1397 C1399 1.356 . S
N1397 H1402 0.984 . S
N1397 H1403 0.985 . S
C1398 C1392 1.379 . S
C1398 C1395 1.363 . S
C1398 N1396 1.356 . S
C1399 C1393 1.363 . S
C1399 C1394 1.379 . S
C1399 N1397 1.356 . S
N1400 C1392 1.356 . S
N1400 H1406 0.984 . S
N1400 H1407 0.984 . S
N1401 C1394 1.356 . S
N1401 H1404 0.984 . S
N1401 H1405 0.985 . S
H1402 N1397 0.984 . S
H1403 N1397 0.985 . S
H1404 N1401 0.984 . S
H1405 N1401 0.985 . S
H1406 N1400 0.984 . S
H1407 N1400 0.984 . S
H1408 N1396 0.984 . S
H1409 N1396 0.985 . S
C1410 C1411 1.363 . S
C1410 C1416 1.379 1_556 S
C1410 N1418 1.356 . S
C1411 C1410 1.363 . S
C1411 C1417 1.363 . S
C1412 C1413 1.363 1_556 S
C1412 C1417 1.379 . S
C1412 N1419 1.356 1_456 S
C1413 C1412 1.363 1_554 S
C1413 C1416 1.363 . S
N1414 C1416 1.356 . S
N1414 H1426 0.984 . S
N1414 H1427 0.985 . S
N1415 C1417 1.356 1_655 S
N1415 H1420 0.984 . S
N1415 H1421 0.985 . S
C1416 C1410 1.379 1_554 S
C1416 C1413 1.363 . S
C1416 N1414 1.356 . S
C1417 C1411 1.363 . S
C1417 C1412 1.379 . S
C1417 N1415 1.356 1_455 S
N1418 C1410 1.356 . S
N1418 H1424 0.984 . S
N1418 H1425 0.984 . S
N1419 C1412 1.356 1_654 S
N1419 H1422 0.984 . S
N1419 H1423 0.985 1_554 S
H1420 N1415 0.984 . S
H1421 N1415 0.985 . S
H1422 N1419 0.984 . S
H1423 N1419 0.985 1_556 S
H1424 N1418 0.984 . S
H1425 N1418 0.984 . S
H1426 N1414 0.984 . S
H1427 N1414 0.985 . S
C1428 C1429 1.363 . S
C1428 C1434 1.379 . S
C1428 N1436 1.356 . S
C1429 C1428 1.363 . S
C1429 C1435 1.363 . S
C1430 C1431 1.363 . S
C1430 C1435 1.379 . S
C1430 N1437 1.356 . S
C1431 C1430 1.363 . S
C1431 C1434 1.363 . S
N1432 C1434 1.356 . S
N1432 H1444 0.984 . S
N1432 H1445 0.985 . S
N1433 C1435 1.356 . S
N1433 H1438 0.984 . S
N1433 H1439 0.985 . S
C1434 C1428 1.379 . S
C1434 C1431 1.363 . S
C1434 N1432 1.356 . S
C1435 C1429 1.363 . S
C1435 C1430 1.379 . S
C1435 N1433 1.356 . S
N1436 C1428 1.356 . S
N1436 H1442 0.984 . S
N1436 H1443 0.984 . S
N1437 C1430 1.356 . S
N1437 H1440 0.984 . S
N1437 H1441 0.985 . S
H1438 N1433 0.984 . S
H1439 N1433 0.985 . S
H1440 N1437 0.984 . S
H1441 N1437 0.985 . S
H1442 N1436 0.984 . S
H1443 N1436 0.984 . S
H1444 N1432 0.984 . S
H1445 N1432 0.985 . S
C1446 C1447 1.363 . S
C1446 C1452 1.379 . S
C1446 N1454 1.356 1_655 S
C1447 C1446 1.363 . S
C1447 C1453 1.363 . S
C1448 C1449 1.363 . S
C1448 C1453 1.379 . S
C1448 N1455 1.356 . S
C1449 C1448 1.363 . S
C1449 C1452 1.363 . S
N1450 C1452 1.356 . S
N1450 H1462 0.984 . S
N1450 H1463 0.985 . S
N1451 C1453 1.356 . S
N1451 H1456 0.984 1_655 S
N1451 H1457 0.985 . S
C1452 C1446 1.379 . S
C1452 C1449 1.363 . S
C1452 N1450 1.356 . S
C1453 C1447 1.363 . S
C1453 C1448 1.379 . S
C1453 N1451 1.356 . S
N1454 C1446 1.356 1_455 S
N1454 H1460 0.984 . S
N1454 H1461 0.984 . S
N1455 C1448 1.356 . S
N1455 H1458 0.984 . S
N1455 H1459 0.985 . S
H1456 N1451 0.984 1_455 S
H1457 N1451 0.985 . S
H1458 N1455 0.984 . S
H1459 N1455 0.985 . S
H1460 N1454 0.984 . S
H1461 N1454 0.984 . S
H1462 N1450 0.984 . S
H1463 N1450 0.985 . S
C1464 C1465 1.363 . S
C1464 C1470 1.379 . S
C1464 N1472 1.356 . S
C1465 C1464 1.363 . S
C1465 C1471 1.363 . S
C1466 C1467 1.363 . S
C1466 C1471 1.379 . S
C1466 N1473 1.356 . S
C1467 C1466 1.363 . S
C1467 C1470 1.363 . S
N1468 C1470 1.356 . S
N1468 H1480 0.984 . S
N1468 H1481 0.985 . S
N1469 C1471 1.356 . S
N1469 H1474 0.984 . S
N1469 H1475 0.985 . S
C1470 C1464 1.379 . S
C1470 C1467 1.363 . S
C1470 N1468 1.356 . S
C1471 C1465 1.363 . S
C1471 C1466 1.379 . S
C1471 N1469 1.356 . S
N1472 C1464 1.356 . S
N1472 H1478 0.984 . S
N1472 H1479 0.984 . S
N1473 C1466 1.356 . S
N1473 H1476 0.984 . S
N1473 H1477 0.985 . S
H1474 N1469 0.984 . S
H1475 N1469 0.985 . S
H1476 N1473 0.984 . S
H1477 N1473 0.985 . S
H1478 N1472 0.984 . S
H1479 N1472 0.984 . S
H1480 N1468 0.984 . S
H1481 N1468 0.985 . S
C1482 C1483 1.363 . S
C1482 C1488 1.379 . S
C1482 N1490 1.356 . S
C1483 C1482 1.363 . S
C1483 C1489 1.363 . S
C1484 C1485 1.363 . S
C1484 C1489 1.379 . S
C1484 N1491 1.356 . S
C1485 C1484 1.363 . S
C1485 C1488 1.363 . S
N1486 C1488 1.356 . S
N1486 H1498 0.984 . S
N1486 H1499 0.985 . S
N1487 C1489 1.356 . S
N1487 H1492 0.984 . S
N1487 H1493 0.985 . S
C1488 C1482 1.379 . S
C1488 C1485 1.363 . S
C1488 N1486 1.356 . S
C1489 C1483 1.363 . S
C1489 C1484 1.379 . S
C1489 N1487 1.356 . S
N1490 C1482 1.356 . S
N1490 H1496 0.984 . S
N1490 H1497 0.984 . S
N1491 C1484 1.356 . S
N1491 H1494 0.984 . S
N1491 H1495 0.985 . S
H1492 N1487 0.984 . S
H1493 N1487 0.985 . S
H1494 N1491 0.984 . S
H1495 N1491 0.985 . S
H1496 N1490 0.984 . S
H1497 N1490 0.984 . S
H1498 N1486 0.984 . S
H1499 N1486 0.985 . S
C1500 C1501 1.363 . S
C1500 C1506 1.379 . S
C1500 N1508 1.356 . S
C1501 C1500 1.363 . S
C1501 C1507 1.363 1_545 S
C1502 C1503 1.363 1_565 S
C1502 C1507 1.379 . S
C1502 N1509 1.356 . S
C1503 C1502 1.363 1_545 S
C1503 C1506 1.363 . S
N1504 C1506 1.356 . S
N1504 H1516 0.984 . S
N1504 H1517 0.985 . S
N1505 C1507 1.356 . S
N1505 H1510 0.984 . S
N1505 H1511 0.985 . S
C1506 C1500 1.379 . S
C1506 C1503 1.363 . S
C1506 N1504 1.356 . S
C1507 C1501 1.363 1_565 S
C1507 C1502 1.379 . S
C1507 N1505 1.356 . S
N1508 C1500 1.356 . S
N1508 H1514 0.984 . S
N1508 H1515 0.984 . S
N1509 C1502 1.356 . S
N1509 H1512 0.996 . S
N1509 H1513 0.985 . S
H1510 N1505 0.984 . S
H1511 N1505 0.985 . S
H1512 N1509 0.996 . S
H1513 N1509 0.985 . S
H1514 N1508 0.984 . S
H1515 N1508 0.984 . S
H1516 N1504 0.984 . S
H1517 N1504 0.985 . S
C1518 C1519 1.363 . S
C1518 C1524 1.379 1_455 S
C1518 N1526 1.356 . S
C1519 C1518 1.363 . S
C1519 C1525 1.363 1_565 S
C1520 C1521 1.363 1_545 S
C1520 C1525 1.379 1_655 S
C1520 N1527 1.356 . S
C1521 C1520 1.363 1_565 S
C1521 C1524 1.363 . S
N1522 C1524 1.356 . S
N1522 H1534 0.984 . S
N1522 H1535 0.985 . S
N1523 C1525 1.356 . S
N1523 H1528 0.984 . S
N1523 H1529 0.985 . S
C1524 C1518 1.379 1_655 S
C1524 C1521 1.363 . S
C1524 N1522 1.356 . S
C1525 C1519 1.363 1_545 S
C1525 C1520 1.379 1_455 S
C1525 N1523 1.356 . S
N1526 C1518 1.356 . S
N1526 H1532 0.984 . S
N1526 H1533 0.984 . S
N1527 C1520 1.356 . S
N1527 H1530 0.984 . S
N1527 H1531 0.985 . S
H1528 N1523 0.984 . S
H1529 N1523 0.985 . S
H1530 N1527 0.984 . S
H1531 N1527 0.985 . S
H1532 N1526 0.984 . S
H1533 N1526 0.984 . S
H1534 N1522 0.984 . S
H1535 N1522 0.985 . S
C1536 C1537 1.363 . S
C1536 C1542 1.379 . S
C1536 N1544 1.356 . S
C1537 C1536 1.363 . S
C1537 C1543 1.363 . S
C1538 C1539 1.363 . S
C1538 C1543 1.379 . S
C1538 N1545 1.356 . S
C1539 C1538 1.363 . S
C1539 C1542 1.363 . S
N1540 C1542 1.356 . S
N1540 H1552 0.984 . S
N1540 H1553 0.985 . S
N1541 C1543 1.356 . S
N1541 H1546 0.984 . S
N1541 H1547 0.985 . S
C1542 C1536 1.379 . S
C1542 C1539 1.363 . S
C1542 N1540 1.356 . S
C1543 C1537 1.363 . S
C1543 C1538 1.379 . S
C1543 N1541 1.356 . S
N1544 C1536 1.356 . S
N1544 H1550 0.984 . S
N1544 H1551 0.984 . S
N1545 C1538 1.356 . S
N1545 H1548 0.984 . S
N1545 H1549 0.985 . S
H1546 N1541 0.984 . S
H1547 N1541 0.985 . S
H1548 N1545 0.984 . S
H1549 N1545 0.985 . S
H1550 N1544 0.984 . S
H1551 N1544 0.984 . S
H1552 N1540 0.984 . S
H1553 N1540 0.985 . S
C1554 C1555 1.363 . S
C1554 C1560 1.425 . S
C1554 N1562 1.356 . S
C1555 C1554 1.363 . S
C1555 C1561 1.363 . S
C1556 C1557 1.363 . S
C1556 C1561 1.379 1_565 S
C1556 N1563 1.356 . S
C1557 C1556 1.363 . S
C1557 C1560 1.328 1_565 S
N1558 C1560 1.331 1_565 S
N1558 H1570 1.001 . S
N1558 H1571 0.985 . S
N1559 C1561 1.356 . S
N1559 H1564 0.984 . S
N1559 H1565 0.985 . S
C1560 C1554 1.425 . S
C1560 C1557 1.328 1_545 S
C1560 N1558 1.331 1_545 S
C1561 C1555 1.363 . S
C1561 C1556 1.379 1_545 S
C1561 N1559 1.356 . S
N1562 C1554 1.356 . S
N1562 H1568 0.984 . S
N1562 H1569 0.984 . S
N1563 C1556 1.356 . S
N1563 H1566 0.984 . S
N1563 H1567 0.985 . S
H1564 N1559 0.984 . S
H1565 N1559 0.985 . S
H1566 N1563 0.984 . S
H1567 N1563 0.985 . S
H1568 N1562 0.984 . S
H1569 N1562 0.984 . S
H1570 N1558 1.001 . S
H1571 N1558 0.985 . S
C1572 C1573 1.363 . S
C1572 C1578 1.379 . S
C1572 N1580 1.356 . S
C1573 C1572 1.363 . S
C1573 C1579 1.363 . S
C1574 C1575 1.363 . S
C1574 C1579 1.379 . S
C1574 N1581 1.356 . S
C1575 C1574 1.363 . S
C1575 C1578 1.363 . S
N1576 C1578 1.356 . S
N1576 H1588 0.984 . S
N1576 H1589 0.985 . S
N1577 C1579 1.356 . S
N1577 H1582 0.984 . S
N1577 H1583 0.985 . S
C1578 C1572 1.379 . S
C1578 C1575 1.363 . S
C1578 N1576 1.356 . S
C1579 C1573 1.363 . S
C1579 C1574 1.379 . S
C1579 N1577 1.356 . S
N1580 C1572 1.356 . S
N1580 H1586 0.984 . S
N1580 H1587 0.984 . S
N1581 C1574 1.356 . S
N1581 H1584 0.984 . S
N1581 H1585 0.985 . S
H1582 N1577 0.984 . S
H1583 N1577 0.985 . S
H1584 N1581 0.984 . S
H1585 N1581 0.985 . S
H1586 N1580 0.984 . S
H1587 N1580 0.984 . S
H1588 N1576 0.984 . S
H1589 N1576 0.985 . S
C1590 C1591 1.363 1_556 S
C1590 C1596 1.379 . S
C1590 N1598 1.356 . S
C1591 C1590 1.363 1_554 S
C1591 C1597 1.363 . S
C1592 C1593 1.363 . S
C1592 C1597 1.379 . S
C1592 N1599 1.356 . S
C1593 C1592 1.363 . S
C1593 C1596 1.363 1_554 S
N1594 C1596 1.356 . S
N1594 H1606 0.984 . S
N1594 H1607 0.978 1_556 S
N1595 C1597 1.356 . S
N1595 H1600 0.984 . S
N1595 H1601 0.985 . S
C1596 C1590 1.379 . S
C1596 C1593 1.363 1_556 S
C1596 N1594 1.356 . S
C1597 C1591 1.363 . S
C1597 C1592 1.379 . S
C1597 N1595 1.356 . S
N1598 C1590 1.356 . S
N1598 H1604 0.984 . S
N1598 H1605 0.984 . S
N1599 C1592 1.356 . S
N1599 H1602 0.984 . S
N1599 H1603 0.985 . S
H1600 N1595 0.984 . S
H1601 N1595 0.985 . S
H1602 N1599 0.984 . S
H1603 N1599 0.985 . S
H1604 N1598 0.984 . S
H1605 N1598 0.984 . S
H1606 N1594 0.984 . S
H1607 N1594 0.978 1_554 S
C1608 C1609 1.363 . S
C1608 C1614 1.379 . S
C1608 N1616 1.356 . S
C1609 C1608 1.363 . S
C1609 C1615 1.363 . S
C1610 C1611 1.363 . S
C1610 C1615 1.379 . S
C1610 N1617 1.356 . S
C1611 C1610 1.363 . S
C1611 C1614 1.363 . S
N1612 C1614 1.356 . S
N1612 H1624 0.984 . S
N1612 H1625 0.985 . S
N1613 C1615 1.356 . S
N1613 H1618 0.984 . S
N1613 H1619 0.985 . S
C1614 C1608 1.379 . S
C1614 C1611 1.363 . S
C1614 N1612 1.356 . S
C1615 C1609 1.363 . S
C1615 C1610 1.379 . S
C1615 N1613 1.356 . S
N1616 C1608 1.356 . S
N1616 H1622 0.984 . S
N1616 H1623 0.984 . S
N1617 C1610 1.356 . S
N1617 H1620 0.984 . S
N1617 H1621 0.985 . S
H1618 N1613 0.984 . S
H1619 N1613 0.985 . S
H1620 N1617 0.984 . S
H1621 N1617 0.985 . S
H1622 N1616 0.984 . S
H1623 N1616 0.984 . S
H1624 N1612 0.984 . S
H1625 N1612 0.985 . S
C1626 C1627 1.363 . S
C1626 C1632 1.379 . S
C1626 N1634 1.356 . S
C1627 C1626 1.363 . S
C1627 C1633 1.363 . S
C1628 C1629 1.363 . S
C1628 C1633 1.379 1_556 S
C1628 N1635 1.356 . S
C1629 C1628 1.363 . S
C1629 C1632 1.363 1_556 S
N1630 C1632 1.356 1_556 S
N1630 H1642 0.975 1_556 S
N1630 H1643 0.985 . S
N1631 C1633 1.356 . S
N1631 H1636 0.984 . S
N1631 H1637 0.985 . S
C1632 C1626 1.379 . S
C1632 C1629 1.363 1_554 S
C1632 N1630 1.356 1_554 S
C1633 C1627 1.363 . S
C1633 C1628 1.379 1_554 S
C1633 N1631 1.356 . S
N1634 C1626 1.356 . S
N1634 H1640 0.984 . S
N1634 H1641 0.984 . S
N1635 C1628 1.356 . S
N1635 H1638 0.984 . S
N1635 H1639 0.985 . S
H1636 N1631 0.984 . S
H1637 N1631 0.985 . S
H1638 N1635 0.984 . S
H1639 N1635 0.985 . S
H1640 N1634 0.984 . S
H1641 N1634 0.984 . S
H1642 N1630 0.975 1_554 S
H1643 N1630 0.985 . S
C1644 C1645 1.363 . S
C1644 C1650 1.379 . S
C1644 N1652 1.356 . S
C1645 C1644 1.363 . S
C1645 C1651 1.363 . S
C1646 C1647 1.363 . S
C1646 C1651 1.379 . S
C1646 N1653 1.356 . S
C1647 C1646 1.363 . S
C1647 C1650 1.363 . S
N1648 C1650 1.356 . S
N1648 H1660 0.984 . S
N1648 H1661 0.985 . S
N1649 C1651 1.356 . S
N1649 H1654 0.984 . S
N1649 H1655 0.985 . S
C1650 C1644 1.379 . S
C1650 C1647 1.363 . S
C1650 N1648 1.356 . S
C1651 C1645 1.363 . S
C1651 C1646 1.379 . S
C1651 N1649 1.356 . S
N1652 C1644 1.356 . S
N1652 H1658 0.984 . S
N1652 H1659 0.984 . S
N1653 C1646 1.356 . S
N1653 H1656 0.984 . S
N1653 H1657 0.985 . S
H1654 N1649 0.984 . S
H1655 N1649 0.985 . S
H1656 N1653 0.984 . S
H1657 N1653 0.985 . S
H1658 N1652 0.984 . S
H1659 N1652 0.984 . S
H1660 N1648 0.984 . S
H1661 N1648 0.985 . S
C1662 C1663 1.363 . S
C1662 C1668 1.379 . S
C1662 N1670 1.356 . S
C1663 C1662 1.363 . S
C1663 C1669 1.363 1_455 S
C1664 C1665 1.363 1_655 S
C1664 C1669 1.379 . S
C1664 N1671 1.356 . S
C1665 C1664 1.363 1_455 S
C1665 C1668 1.363 . S
N1666 C1668 1.356 . S
N1666 H1678 0.984 . S
N1666 H1679 0.985 . S
N1667 C1669 1.356 . S
N1667 H1672 0.984 . S
N1667 H1673 0.985 . S
C1668 C1662 1.379 . S
C1668 C1665 1.363 . S
C1668 N1666 1.356 . S
C1669 C1663 1.363 1_655 S
C1669 C1664 1.379 . S
C1669 N1667 1.356 . S
N1670 C1662 1.356 . S
N1670 H1676 0.984 . S
N1670 H1677 0.984 . S
N1671 C1664 1.356 . S
N1671 H1674 0.984 . S
N1671 H1675 0.985 . S
H1672 N1667 0.984 . S
H1673 N1667 0.985 . S
H1674 N1671 0.984 . S
H1675 N1671 0.985 . S
H1676 N1670 0.984 . S
H1677 N1670 0.984 . S
H1678 N1666 0.984 . S
H1679 N1666 0.985 . S
C1680 C1681 1.363 . S
C1680 C1686 1.379 . S
C1680 N1688 1.356 . S
C1681 C1680 1.363 . S
C1681 C1687 1.363 . S
C1682 C1683 1.363 . S
C1682 C1687 1.379 . S
C1682 N1689 1.356 . S
C1683 C1682 1.363 . S
C1683 C1686 1.363 . S
N1684 C1686 1.356 . S
N1684 H1696 0.984 . S
N1684 H1697 0.985 . S
N1685 C1687 1.356 . S
N1685 H1690 0.984 . S
N1685 H1691 0.985 . S
C1686 C1680 1.379 . S
C1686 C1683 1.363 . S
C1686 N1684 1.356 . S
C1687 C1681 1.363 . S
C1687 C1682 1.379 . S
C1687 N1685 1.356 . S
N1688 C1680 1.356 . S
N1688 H1694 0.984 . S
N1688 H1695 0.984 . S
N1689 C1682 1.356 . S
N1689 H1692 0.984 . S
N1689 H1693 0.985 . S
H1690 N1685 0.984 . S
H1691 N1685 0.985 . S
H1692 N1689 0.984 . S
H1693 N1689 0.985 . S
H1694 N1688 0.984 . S
H1695 N1688 0.984 . S
H1696 N1684 0.984 . S
H1697 N1684 0.985 . S
C1698 C1699 1.363 . S
C1698 C1704 1.379 . S
C1698 N1706 1.356 . S
C1699 C1698 1.363 . S
C1699 C1705 1.363 . S
C1700 C1701 1.363 . S
C1700 C1705 1.379 . S
C1700 N1707 1.356 . S
C1701 C1700 1.363 . S
C1701 C1704 1.363 . S
N1702 C1704 1.356 . S
N1702 H1714 0.984 . S
N1702 H1715 0.985 . S
N1703 C1705 1.356 . S
N1703 H1708 0.984 . S
N1703 H1709 0.985 1_556 S
C1704 C1698 1.379 . S
C1704 C1701 1.363 . S
C1704 N1702 1.356 . S
C1705 C1699 1.363 . S
C1705 C1700 1.379 . S
C1705 N1703 1.356 . S
N1706 C1698 1.356 . S
N1706 H1712 0.984 . S
N1706 H1713 0.984 . S
N1707 C1700 1.356 . S
N1707 H1710 0.984 . S
N1707 H1711 0.985 1_556 S
H1708 N1703 0.984 . S
H1709 N1703 0.985 1_554 S
H1710 N1707 0.984 . S
H1711 N1707 0.985 1_554 S
H1712 N1706 0.984 . S
H1713 N1706 0.984 . S
H1714 N1702 0.984 . S
H1715 N1702 0.985 . S
C1716 C1717 1.365 . S
C1716 C1722 1.379 . S
C1716 N1724 1.356 . S
C1717 C1716 1.365 . S
C1717 C1723 1.361 1_565 S
C1718 C1719 1.363 1_545 S
C1718 C1723 1.379 . S
C1718 N1725 1.356 . S
C1719 C1718 1.363 1_565 S
C1719 C1722 1.363 . S
N1720 C1722 1.356 . S
N1720 H1732 0.984 . S
N1720 H1733 0.985 . S
N1721 C1723 1.356 . S
N1721 H1726 0.984 . S
N1721 H1727 0.985 . S
C1722 C1716 1.379 . S
C1722 C1719 1.363 . S
C1722 N1720 1.356 . S
C1723 C1717 1.361 1_545 S
C1723 C1718 1.379 . S
C1723 N1721 1.356 . S
N1724 C1716 1.356 . S
N1724 H1730 0.984 . S
N1724 H1731 0.984 . S
N1725 C1718 1.356 . S
N1725 H1728 0.984 . S
N1725 H1729 0.985 . S
H1726 N1721 0.984 . S
H1727 N1721 0.985 . S
H1728 N1725 0.984 . S
H1729 N1725 0.985 . S
H1730 N1724 0.984 . S
H1731 N1724 0.984 . S
H1732 N1720 0.984 . S
H1733 N1720 0.985 . S
C1734 C1735 1.363 . S
C1734 C1740 1.379 . S
C1734 N1742 1.356 . S
C1735 C1734 1.363 . S
C1735 C1741 1.363 . S
C1736 C1737 1.363 . S
C1736 C1741 1.379 . S
C1736 N1743 1.356 . S
C1737 C1736 1.363 . S
C1737 C1740 1.363 . S
N1738 C1740 1.356 . S
N1738 H1750 0.984 . S
N1738 H1751 0.985 . S
N1739 C1741 1.356 . S
N1739 H1744 0.984 . S
N1739 H1745 0.985 . S
C1740 C1734 1.379 . S
C1740 C1737 1.363 . S
C1740 N1738 1.356 . S
C1741 C1735 1.363 . S
C1741 C1736 1.379 . S
C1741 N1739 1.356 . S
N1742 C1734 1.356 . S
N1742 H1748 0.984 . S
N1742 H1749 0.984 . S
N1743 C1736 1.356 . S
N1743 H1746 0.984 . S
N1743 H1747 0.985 . S
H1744 N1739 0.984 . S
H1745 N1739 0.985 . S
H1746 N1743 0.984 . S
H1747 N1743 0.985 . S
H1748 N1742 0.984 . S
H1749 N1742 0.984 . S
H1750 N1738 0.984 . S
H1751 N1738 0.985 . S
C1752 C1753 1.363 . S
C1752 C1758 1.379 . S
C1752 N1760 1.356 . S
C1753 C1752 1.363 . S
C1753 C1759 1.363 . S
C1754 C1755 1.363 . S
C1754 C1759 1.379 . S
C1754 N1761 1.356 . S
C1755 C1754 1.363 . S
C1755 C1758 1.363 . S
N1756 C1758 1.356 . S
N1756 H1768 0.984 . S
N1756 H1769 0.985 . S
N1757 C1759 1.356 . S
N1757 H1762 0.984 . S
N1757 H1763 0.985 . S
C1758 C1752 1.379 . S
C1758 C1755 1.363 . S
C1758 N1756 1.356 . S
C1759 C1753 1.363 . S
C1759 C1754 1.379 . S
C1759 N1757 1.356 . S
N1760 C1752 1.356 . S
N1760 H1766 0.984 . S
N1760 H1767 0.984 . S
N1761 C1754 1.356 . S
N1761 H1764 0.984 . S
N1761 H1765 0.985 . S
H1762 N1757 0.984 . S
H1763 N1757 0.985 . S
H1764 N1761 0.984 . S
H1765 N1761 0.985 . S
H1766 N1760 0.984 . S
H1767 N1760 0.984 . S
H1768 N1756 0.984 . S
H1769 N1756 0.985 . S
C1770 C1771 1.363 . S
C1770 C1776 1.379 . S
C1770 N1778 1.356 . S
C1771 C1770 1.363 . S
C1771 C1777 1.363 . S
C1772 C1773 1.363 . S
C1772 C1777 1.379 . S
C1772 N1779 1.356 . S
C1773 C1772 1.363 . S
C1773 C1776 1.363 . S
N1774 C1776 1.356 . S
N1774 H1786 0.984 . S
N1774 H1787 0.985 . S
N1775 C1777 1.356 . S
N1775 H1780 0.984 . S
N1775 H1781 0.985 1_556 S
C1776 C1770 1.379 . S
C1776 C1773 1.363 . S
C1776 N1774 1.356 . S
C1777 C1771 1.363 . S
C1777 C1772 1.379 . S
C1777 N1775 1.356 . S
N1778 C1770 1.356 . S
N1778 H1784 0.984 . S
N1778 H1785 0.984 . S
N1779 C1772 1.356 . S
N1779 H1782 0.984 . S
N1779 H1783 0.985 . S
H1780 N1775 0.984 . S
H1781 N1775 0.985 1_554 S
H1782 N1779 0.984 . S
H1783 N1779 0.985 . S
H1784 N1778 0.984 . S
H1785 N1778 0.984 . S
H1786 N1774 0.984 . S
H1787 N1774 0.985 . S
C1788 C1789 1.363 . S
C1788 C1794 1.379 . S
C1788 N1796 1.356 . S
C1789 C1788 1.363 . S
C1789 C1795 1.363 . S
C1790 C1791 1.363 . S
C1790 C1795 1.379 . S
C1790 N1797 1.356 . S
C1791 C1790 1.363 . S
C1791 C1794 1.363 . S
N1792 C1794 1.356 . S
N1792 H1804 0.984 . S
N1792 H1805 0.985 . S
N1793 C1795 1.356 . S
N1793 H1798 0.984 . S
N1793 H1799 0.985 . S
C1794 C1788 1.379 . S
C1794 C1791 1.363 . S
C1794 N1792 1.356 . S
C1795 C1789 1.363 . S
C1795 C1790 1.379 . S
C1795 N1793 1.356 . S
N1796 C1788 1.356 . S
N1796 H1802 0.984 . S
N1796 H1803 0.984 . S
N1797 C1790 1.356 . S
N1797 H1800 0.984 . S
N1797 H1801 0.985 . S
H1798 N1793 0.984 . S
H1799 N1793 0.985 . S
H1800 N1797 0.984 . S
H1801 N1797 0.985 . S
H1802 N1796 0.984 . S
H1803 N1796 0.984 . S
H1804 N1792 0.984 . S
H1805 N1792 0.985 . S
C1806 C1807 1.361 1_554 S
C1806 C1812 1.379 . S
C1806 N1814 1.356 . S
C1807 C1806 1.361 1_556 S
C1807 C1813 1.365 . S
C1808 C1809 1.363 . S
C1808 C1813 1.379 . S
C1808 N1815 1.356 . S
C1809 C1808 1.363 . S
C1809 C1812 1.363 1_556 S
N1810 C1812 1.356 . S
N1810 H1822 0.984 . S
N1810 H1823 0.985 . S
N1811 C1813 1.356 . S
N1811 H1816 0.984 . S
N1811 H1817 0.985 . S
C1812 C1806 1.379 . S
C1812 C1809 1.363 1_554 S
C1812 N1810 1.356 . S
C1813 C1807 1.365 . S
C1813 C1808 1.379 . S
C1813 N1811 1.356 . S
N1814 C1806 1.356 . S
N1814 H1820 0.984 . S
N1814 H1821 0.984 . S
N1815 C1808 1.356 . S
N1815 H1818 0.984 . S
N1815 H1819 0.985 . S
H1816 N1811 0.984 . S
H1817 N1811 0.985 . S
H1818 N1815 0.984 . S
H1819 N1815 0.985 . S
H1820 N1814 0.984 . S
H1821 N1814 0.984 . S
H1822 N1810 0.984 . S
H1823 N1810 0.985 . S
C1824 C1825 1.363 . S
C1824 C1830 1.379 . S
C1824 N1832 1.356 . S
C1825 C1824 1.363 . S
C1825 C1831 1.363 . S
C1826 C1827 1.363 . S
C1826 C1831 1.379 . S
C1826 N1833 1.356 . S
C1827 C1826 1.363 . S
C1827 C1830 1.363 . S
N1828 C1830 1.356 . S
N1828 H1840 0.984 . S
N1828 H1841 0.985 . S
N1829 C1831 1.356 . S
N1829 H1834 0.984 . S
N1829 H1835 0.985 . S
C1830 C1824 1.379 . S
C1830 C1827 1.363 . S
C1830 N1828 1.356 . S
C1831 C1825 1.363 . S
C1831 C1826 1.379 . S
C1831 N1829 1.356 . S
N1832 C1824 1.356 . S
N1832 H1838 0.984 . S
N1832 H1839 0.984 . S
N1833 C1826 1.356 . S
N1833 H1836 0.984 . S
N1833 H1837 0.985 . S
H1834 N1829 0.984 . S
H1835 N1829 0.985 . S
H1836 N1833 0.984 . S
H1837 N1833 0.985 . S
H1838 N1832 0.984 . S
H1839 N1832 0.984 . S
H1840 N1828 0.984 . S
H1841 N1828 0.985 . S
C1842 C1843 1.363 . S
C1842 C1848 1.379 . S
C1842 N1850 1.356 . S
C1843 C1842 1.363 . S
C1843 C1849 1.363 . S
C1844 C1845 1.363 . S
C1844 C1849 1.379 . S
C1844 N1851 1.356 . S
C1845 C1844 1.363 . S
C1845 C1848 1.363 . S
N1846 C1848 1.356 . S
N1846 H1858 0.984 . S
N1846 H1859 0.985 . S
N1847 C1849 1.356 . S
N1847 H1852 0.984 . S
N1847 H1853 0.985 . S
C1848 C1842 1.379 . S
C1848 C1845 1.363 . S
C1848 N1846 1.356 . S
C1849 C1843 1.363 . S
C1849 C1844 1.379 . S
C1849 N1847 1.356 . S
N1850 C1842 1.356 . S
N1850 H1856 0.984 . S
N1850 H1857 0.984 . S
N1851 C1844 1.356 . S
N1851 H1854 0.984 . S
N1851 H1855 0.985 . S
H1852 N1847 0.984 . S
H1853 N1847 0.985 . S
H1854 N1851 0.984 . S
H1855 N1851 0.985 . S
H1856 N1850 0.984 . S
H1857 N1850 0.984 . S
H1858 N1846 0.984 . S
H1859 N1846 0.985 . S
C1860 C1861 1.363 . S
C1860 C1866 1.379 . S
C1860 N1868 1.356 . S
C1861 C1860 1.363 . S
C1861 C1867 1.363 . S
C1862 C1863 1.363 . S
C1862 C1867 1.379 . S
C1862 N1869 1.356 . S
C1863 C1862 1.363 . S
C1863 C1866 1.363 . S
N1864 C1866 1.356 . S
N1864 H1876 0.984 . S
N1864 H1877 0.985 . S
N1865 C1867 1.356 . S
N1865 H1870 0.984 . S
N1865 H1871 0.978 1_565 S
C1866 C1860 1.379 . S
C1866 C1863 1.363 . S
C1866 N1864 1.356 . S
C1867 C1861 1.363 . S
C1867 C1862 1.379 . S
C1867 N1865 1.356 . S
N1868 C1860 1.356 . S
N1868 H1874 0.984 . S
N1868 H1875 0.984 . S
N1869 C1862 1.356 . S
N1869 H1872 0.984 . S
N1869 H1873 0.985 1_565 S
H1870 N1865 0.984 . S
H1871 N1865 0.978 1_545 S
H1872 N1869 0.984 . S
H1873 N1869 0.985 1_545 S
H1874 N1868 0.984 . S
H1875 N1868 0.984 . S
H1876 N1864 0.984 . S
H1877 N1864 0.985 . S
C1878 C1879 1.363 1_455 S
C1878 C1884 1.379 . S
C1878 N1886 1.356 . S
C1879 C1878 1.363 1_655 S
C1879 C1885 1.363 . S
C1880 C1881 1.363 . S
C1880 C1885 1.379 . S
C1880 N1887 1.356 . S
C1881 C1880 1.363 . S
C1881 C1884 1.363 1_655 S
N1882 C1884 1.356 . S
N1882 H1894 0.984 . S
N1882 H1895 0.985 . S
N1883 C1885 1.356 . S
N1883 H1888 0.984 . S
N1883 H1889 0.985 . S
C1884 C1878 1.379 . S
C1884 C1881 1.363 1_455 S
C1884 N1882 1.356 . S
C1885 C1879 1.363 . S
C1885 C1880 1.379 . S
C1885 N1883 1.356 . S
N1886 C1878 1.356 . S
N1886 H1892 0.984 . S
N1886 H1893 0.984 . S
N1887 C1880 1.356 . S
N1887 H1890 0.984 . S
N1887 H1891 0.985 . S
H1888 N1883 0.984 . S
H1889 N1883 0.985 . S
H1890 N1887 0.984 . S
H1891 N1887 0.985 . S
H1892 N1886 0.984 . S
H1893 N1886 0.984 . S
H1894 N1882 0.984 . S
H1895 N1882 0.985 . S
C1896 C1897 1.363 . S
C1896 C1902 1.379 . S
C1896 N1904 1.356 . S
C1897 C1896 1.363 . S
C1897 C1903 1.363 . S
C1898 C1899 1.363 . S
C1898 C1903 1.379 . S
C1898 N1905 1.356 . S
C1899 C1898 1.363 . S
C1899 C1902 1.363 . S
N1900 C1902 1.356 . S
N1900 H1912 0.984 . S
N1900 H1913 0.985 . S
N1901 C1903 1.356 . S
N1901 H1906 0.984 . S
N1901 H1907 0.985 . S
C1902 C1896 1.379 . S
C1902 C1899 1.363 . S
C1902 N1900 1.356 . S
C1903 C1897 1.363 . S
C1903 C1898 1.379 . S
C1903 N1901 1.356 . S
N1904 C1896 1.356 . S
N1904 H1910 0.984 . S
N1904 H1911 0.984 . S
N1905 C1898 1.356 . S
N1905 H1908 0.984 . S
N1905 H1909 0.985 . S
H1906 N1901 0.984 . S
H1907 N1901 0.985 . S
H1908 N1905 0.984 . S
H1909 N1905 0.985 . S
H1910 N1904 0.984 . S
H1911 N1904 0.984 . S
H1912 N1900 0.984 . S
H1913 N1900 0.985 . S
C1914 C1915 1.363 . S
C1914 C1920 1.379 . S
C1914 N1922 1.356 . S
C1915 C1914 1.363 . S
C1915 C1921 1.363 . S
C1916 C1917 1.363 . S
C1916 C1921 1.379 . S
C1916 N1923 1.356 . S
C1917 C1916 1.363 . S
C1917 C1920 1.363 . S
N1918 C1920 1.356 1_556 S
N1918 H1930 0.984 . S
N1918 H1931 0.985 . S
N1919 C1921 1.356 . S
N1919 H1924 0.984 . S
N1919 H1925 0.985 . S
C1920 C1914 1.379 . S
C1920 C1917 1.363 . S
C1920 N1918 1.356 1_554 S
C1921 C1915 1.363 . S
C1921 C1916 1.379 . S
C1921 N1919 1.356 . S
N1922 C1914 1.356 . S
N1922 H1928 0.984 1_554 S
N1922 H1929 0.984 . S
N1923 C1916 1.356 . S
N1923 H1926 0.984 . S
N1923 H1927 0.985 . S
H1924 N1919 0.984 . S
H1925 N1919 0.985 . S
H1926 N1923 0.984 . S
H1927 N1923 0.985 . S
H1928 N1922 0.984 1_556 S
H1929 N1922 0.984 . S
H1930 N1918 0.984 . S
H1931 N1918 0.985 . S
C1932 C1933 1.365 . S
C1932 C1938 1.379 . S
C1932 N1940 1.356 . S
C1933 C1932 1.365 . S
C1933 C1939 1.361 1_545 S
C1934 C1935 1.363 1_565 S
C1934 C1939 1.379 . S
C1934 N1941 1.356 . S
C1935 C1934 1.363 1_545 S
C1935 C1938 1.363 . S
N1936 C1938 1.356 . S
N1936 H1948 0.984 . S
N1936 H1949 0.985 . S
N1937 C1939 1.356 . S
N1937 H1942 0.984 . S
N1937 H1943 0.985 . S
C1938 C1932 1.379 . S
C1938 C1935 1.363 . S
C1938 N1936 1.356 . S
C1939 C1933 1.361 1_565 S
C1939 C1934 1.379 . S
C1939 N1937 1.356 . S
N1940 C1932 1.356 . S
N1940 H1946 0.984 . S
N1940 H1947 0.984 . S
N1941 C1934 1.356 . S
N1941 H1944 0.984 . S
N1941 H1945 0.985 . S
H1942 N1937 0.984 . S
H1943 N1937 0.985 . S
H1944 N1941 0.984 . S
H1945 N1941 0.985 . S
H1946 N1940 0.984 . S
H1947 N1940 0.984 . S
H1948 N1936 0.984 . S
H1949 N1936 0.985 . S
C1950 C1951 1.363 . S
C1950 C1956 1.379 . S
C1950 N1958 1.356 . S
C1951 C1950 1.363 . S
C1951 C1957 1.363 . S
C1952 C1953 1.363 . S
C1952 C1957 1.379 . S
C1952 N1959 1.356 . S
C1953 C1952 1.363 . S
C1953 C1956 1.363 . S
N1954 C1956 1.356 . S
N1954 H1966 0.984 . S
N1954 H1967 0.985 . S
N1955 C1957 1.356 . S
N1955 H1960 0.984 . S
N1955 H1961 0.969 1_545 S
C1956 C1950 1.379 . S
C1956 C1953 1.363 . S
C1956 N1954 1.356 . S
C1957 C1951 1.363 . S
C1957 C1952 1.379 . S
C1957 N1955 1.356 . S
N1958 C1950 1.356 . S
N1958 H1964 0.984 . S
N1958 H1965 0.984 . S
N1959 C1952 1.356 . S
N1959 H1962 0.984 . S
N1959 H1963 0.985 . S
H1960 N1955 0.984 . S
H1961 N1955 0.969 1_565 S
H1962 N1959 0.984 . S
H1963 N1959 0.985 . S
H1964 N1958 0.984 . S
H1965 N1958 0.984 . S
H1966 N1954 0.984 . S
H1967 N1954 0.985 . S
C1968 C1969 1.363 . S
C1968 C1974 1.379 . S
C1968 N1976 1.356 . S
C1969 C1968 1.363 . S
C1969 C1975 1.363 . S
C1970 C1971 1.363 . S
C1970 C1975 1.379 . S
C1970 N1977 1.356 . S
C1971 C1970 1.363 . S
C1971 C1974 1.363 . S
N1972 C1974 1.356 . S
N1972 H1984 0.984 . S
N1972 H1985 0.985 . S
N1973 C1975 1.356 . S
N1973 H1978 0.984 . S
N1973 H1979 0.985 . S
C1974 C1968 1.379 . S
C1974 C1971 1.363 . S
C1974 N1972 1.356 . S
C1975 C1969 1.363 . S
C1975 C1970 1.379 . S
C1975 N1973 1.356 . S
N1976 C1968 1.356 . S
N1976 H1982 0.984 . S
N1976 H1983 0.984 . S
N1977 C1970 1.356 . S
N1977 H1980 0.984 . S
N1977 H1981 0.985 . S
H1978 N1973 0.984 . S
H1979 N1973 0.985 . S
H1980 N1977 0.984 . S
H1981 N1977 0.985 . S
H1982 N1976 0.984 . S
H1983 N1976 0.984 . S
H1984 N1972 0.984 . S
H1985 N1972 0.985 . S
C1986 C1987 1.363 . S
C1986 C1992 1.379 . S
C1986 N1994 1.356 . S
C1987 C1986 1.363 . S
C1987 C1993 1.363 . S
C1988 C1989 1.363 . S
C1988 C1993 1.379 . S
C1988 N1995 1.356 . S
C1989 C1988 1.363 . S
C1989 C1992 1.363 . S
N1990 C1992 1.356 . S
N1990 H2002 0.984 . S
N1990 H2003 0.985 . S
N1991 C1993 1.356 . S
N1991 H1996 0.985 1_554 S
N1991 H1997 0.985 1_554 S
C1992 C1986 1.379 . S
C1992 C1989 1.363 . S
C1992 N1990 1.356 . S
C1993 C1987 1.363 . S
C1993 C1988 1.379 . S
C1993 N1991 1.356 . S
N1994 C1986 1.356 . S
N1994 H2000 0.984 . S
N1994 H2001 0.984 . S
N1995 C1988 1.356 . S
N1995 H1998 0.984 . S
N1995 H1999 0.985 . S
H1996 N1991 0.985 1_556 S
H1997 N1991 0.985 1_556 S
H1998 N1995 0.984 . S
H1999 N1995 0.985 . S
H2000 N1994 0.984 . S
H2001 N1994 0.984 . S
H2002 N1990 0.984 . S
H2003 N1990 0.985 . S
C2004 C2005 1.363 . S
C2004 C2010 1.379 . S
C2004 N2012 1.356 . S
C2005 C2004 1.363 . S
C2005 C2011 1.363 . S
C2006 C2007 1.363 . S
C2006 C2011 1.379 . S
C2006 N2013 1.356 . S
C2007 C2006 1.363 . S
C2007 C2010 1.363 . S
N2008 C2010 1.356 . S
N2008 H2020 0.984 1_455 S
N2008 H2021 0.985 . S
N2009 C2011 1.356 . S
N2009 H2014 0.984 . S
N2009 H2015 0.985 . S
C2010 C2004 1.379 . S
C2010 C2007 1.363 . S
C2010 N2008 1.356 . S
C2011 C2005 1.363 . S
C2011 C2006 1.379 . S
C2011 N2009 1.356 . S
N2012 C2004 1.356 . S
N2012 H2018 0.984 1_455 S
N2012 H2019 0.984 . S
N2013 C2006 1.356 . S
N2013 H2016 0.984 . S
N2013 H2017 0.985 . S
H2014 N2009 0.984 . S
H2015 N2009 0.985 . S
H2016 N2013 0.984 . S
H2017 N2013 0.985 . S
H2018 N2012 0.984 1_655 S
H2019 N2012 0.984 . S
H2020 N2008 0.984 1_655 S
H2021 N2008 0.985 . S
C2022 C2023 1.364 . S
C2022 C2028 1.379 . S
C2022 N2030 1.356 . S
C2023 C2022 1.364 . S
C2023 C2029 1.362 1_554 S
C2024 C2025 1.363 1_556 S
C2024 C2029 1.379 . S
C2024 N2031 1.356 . S
C2025 C2024 1.363 1_554 S
C2025 C2028 1.363 . S
N2026 C2028 1.356 . S
N2026 H2038 0.984 . S
N2026 H2039 0.985 . S
N2027 C2029 1.356 . S
N2027 H2032 0.984 . S
N2027 H2033 0.985 . S
C2028 C2022 1.379 . S
C2028 C2025 1.363 . S
C2028 N2026 1.356 . S
C2029 C2023 1.362 1_556 S
C2029 C2024 1.379 . S
C2029 N2027 1.356 . S
N2030 C2022 1.356 . S
N2030 H2036 0.984 . S
N2030 H2037 0.984 . S
N2031 C2024 1.356 . S
N2031 H2034 0.984 . S
N2031 H2035 0.985 . S
H2032 N2027 0.984 . S
H2033 N2027 0.985 . S
H2034 N2031 0.984 . S
H2035 N2031 0.985 . S
H2036 N2030 0.984 . S
H2037 N2030 0.984 . S
H2038 N2026 0.984 . S
H2039 N2026 0.985 . S
C2040 C2041 1.363 . S
C2040 C2046 1.379 . S
C2040 N2048 1.356 . S
C2041 C2040 1.363 . S
C2041 C2047 1.363 . S
C2042 C2043 1.363 . S
C2042 C2047 1.379 . S
C2042 N2049 1.356 . S
C2043 C2042 1.363 . S
C2043 C2046 1.363 . S
N2044 C2046 1.356 . S
N2044 H2056 0.984 . S
N2044 H2057 0.985 . S
N2045 C2047 1.356 . S
N2045 H2050 0.984 . S
N2045 H2051 0.985 . S
C2046 C2040 1.379 . S
C2046 C2043 1.363 . S
C2046 N2044 1.356 . S
C2047 C2041 1.363 . S
C2047 C2042 1.379 . S
C2047 N2045 1.356 . S
N2048 C2040 1.356 . S
N2048 H2054 0.984 . S
N2048 H2055 0.984 . S
N2049 C2042 1.356 . S
N2049 H2052 0.984 . S
N2049 H2053 0.985 . S
H2050 N2045 0.984 . S
H2051 N2045 0.985 . S
H2052 N2049 0.984 . S
H2053 N2049 0.985 . S
H2054 N2048 0.984 . S
H2055 N2048 0.984 . S
H2056 N2044 0.984 . S
H2057 N2044 0.985 . S
C2058 C2059 1.363 . S
C2058 C2064 1.379 . S
C2058 N2066 1.356 . S
C2059 C2058 1.363 . S
C2059 C2065 1.363 . S
C2060 C2061 1.363 . S
C2060 C2065 1.379 . S
C2060 N2067 1.356 . S
C2061 C2060 1.363 . S
C2061 C2064 1.363 . S
N2062 C2064 1.356 . S
N2062 H2074 0.984 . S
N2062 H2075 0.985 . S
N2063 C2065 1.356 . S
N2063 H2068 0.984 . S
N2063 H2069 0.985 . S
C2064 C2058 1.379 . S
C2064 C2061 1.363 . S
C2064 N2062 1.356 . S
C2065 C2059 1.363 . S
C2065 C2060 1.379 . S
C2065 N2063 1.356 . S
N2066 C2058 1.356 . S
N2066 H2072 0.984 . S
N2066 H2073 0.984 . S
N2067 C2060 1.356 . S
N2067 H2070 0.984 . S
N2067 H2071 0.985 . S
H2068 N2063 0.984 . S
H2069 N2063 0.985 . S
H2070 N2067 0.984 . S
H2071 N2067 0.985 . S
H2072 N2066 0.984 . S
H2073 N2066 0.984 . S
H2074 N2062 0.984 . S
H2075 N2062 0.985 . S
C2076 C2077 1.363 . S
C2076 C2082 1.379 . S
C2076 N2084 1.356 . S
C2077 C2076 1.363 . S
C2077 C2083 1.363 . S
C2078 C2079 1.363 . S
C2078 C2083 1.379 . S
C2078 N2085 1.356 1_545 S
C2079 C2078 1.363 . S
C2079 C2082 1.363 . S
N2080 C2082 1.356 . S
N2080 H2092 0.984 . S
N2080 H2093 0.985 . S
N2081 C2083 1.356 . S
N2081 H2086 0.984 . S
N2081 H2087 0.985 1_545 S
C2082 C2076 1.379 . S
C2082 C2079 1.363 . S
C2082 N2080 1.356 . S
C2083 C2077 1.363 . S
C2083 C2078 1.379 . S
C2083 N2081 1.356 . S
N2084 C2076 1.356 . S
N2084 H2090 0.984 . S
N2084 H2091 0.984 . S
N2085 C2078 1.356 1_565 S
N2085 H2088 0.973 1_565 S
N2085 H2089 0.985 . S
H2086 N2081 0.984 . S
H2087 N2081 0.985 1_565 S
H2088 N2085 0.973 1_545 S
H2089 N2085 0.985 . S
H2090 N2084 0.984 . S
H2091 N2084 0.984 . S
H2092 N2080 0.984 . S
H2093 N2080 0.985 . S
C2094 C2095 1.362 1_655 S
C2094 C2100 1.379 . S
C2094 N2102 1.356 . S
C2095 C2094 1.362 1_455 S
C2095 C2101 1.364 . S
C2096 C2097 1.363 . S
C2096 C2101 1.379 . S
C2096 N2103 1.356 . S
C2097 C2096 1.363 . S
C2097 C2100 1.363 1_455 S
N2098 C2100 1.356 . S
N2098 H2110 0.984 . S
N2098 H2111 0.985 . S
N2099 C2101 1.356 . S
N2099 H2104 0.984 . S
N2099 H2105 0.985 . S
C2100 C2094 1.379 . S
C2100 C2097 1.363 1_655 S
C2100 N2098 1.356 . S
C2101 C2095 1.364 . S
C2101 C2096 1.379 . S
C2101 N2099 1.356 . S
N2102 C2094 1.356 . S
N2102 H2108 0.984 . S
N2102 H2109 0.984 . S
N2103 C2096 1.356 . S
N2103 H2106 0.984 . S
N2103 H2107 0.985 . S
H2104 N2099 0.984 . S
H2105 N2099 0.985 . S
H2106 N2103 0.984 . S
H2107 N2103 0.985 . S
H2108 N2102 0.984 . S
H2109 N2102 0.984 . S
H2110 N2098 0.984 . S
H2111 N2098 0.985 . S
C2112 C2113 1.363 . S
C2112 C2118 1.379 . S
C2112 N2120 1.356 . S
C2113 C2112 1.363 . S
C2113 C2119 1.363 . S
C2114 C2115 1.363 . S
C2114 C2119 1.379 . S
C2114 N2121 1.356 . S
C2115 C2114 1.363 . S
C2115 C2118 1.363 . S
N2116 C2118 1.356 . S
N2116 H2128 0.984 . S
N2116 H2129 0.985 . S
N2117 C2119 1.356 . S
N2117 H2122 0.984 . S
N2117 H2123 0.985 . S
C2118 C2112 1.379 . S
C2118 C2115 1.363 . S
C2118 N2116 1.356 . S
C2119 C2113 1.363 . S
C2119 C2114 1.379 . S
C2119 N2117 1.356 . S
N2120 C2112 1.356 . S
N2120 H2126 0.984 . S
N2120 H2127 0.984 . S
N2121 C2114 1.356 . S
N2121 H2124 0.984 . S
N2121 H2125 0.985 . S
H2122 N2117 0.984 . S
H2123 N2117 0.985 . S
H2124 N2121 0.984 . S
H2125 N2121 0.985 . S
H2126 N2120 0.984 . S
H2127 N2120 0.984 . S
H2128 N2116 0.984 . S
H2129 N2116 0.985 . S
C2130 C2131 1.363 . S
C2130 C2136 1.379 . S
C2130 N2138 1.356 . S
C2131 C2130 1.363 . S
C2131 C2137 1.363 . S
C2132 C2133 1.363 . S
C2132 C2137 1.379 . S
C2132 N2139 1.356 . S
C2133 C2132 1.363 . S
C2133 C2136 1.363 . S
N2134 C2136 1.356 . S
N2134 H2146 0.984 . S
N2134 H2147 0.985 . S
N2135 C2137 1.356 . S
N2135 H2140 0.984 . S
N2135 H2141 0.985 . S
C2136 C2130 1.379 . S
C2136 C2133 1.363 . S
C2136 N2134 1.356 . S
C2137 C2131 1.363 . S
C2137 C2132 1.379 . S
C2137 N2135 1.356 . S
N2138 C2130 1.356 . S
N2138 H2144 0.984 . S
N2138 H2145 0.984 . S
N2139 C2132 1.356 . S
N2139 H2142 0.984 . S
N2139 H2143 0.985 . S
H2140 N2135 0.984 . S
H2141 N2135 0.985 . S
H2142 N2139 0.984 . S
H2143 N2139 0.985 . S
H2144 N2138 0.984 . S
H2145 N2138 0.984 . S
H2146 N2134 0.984 . S
H2147 N2134 0.985 . S
C2148 C2149 1.363 . S
C2148 C2154 1.379 . S
C2148 N2156 1.356 . S
C2149 C2148 1.363 . S
C2149 C2155 1.363 1_565 S
C2150 C2151 1.363 1_545 S
C2150 C2155 1.379 . S
C2150 N2157 1.356 . S
C2151 C2150 1.363 1_565 S
C2151 C2154 1.363 . S
N2152 C2154 1.356 . S
N2152 H2164 0.984 . S
N2152 H2165 0.985 . S
N2153 C2155 1.356 . S
N2153 H2158 0.984 . S
N2153 H2159 0.985 . S
C2154 C2148 1.379 . S
C2154 C2151 1.363 . S
C2154 N2152 1.356 . S
C2155 C2149 1.363 1_545 S
C2155 C2150 1.379 . S
C2155 N2153 1.356 . S
N2156 C2148 1.356 . S
N2156 H2162 0.984 . S
N2156 H2163 0.984 . S
N2157 C2150 1.356 . S
N2157 H2160 0.984 . S
N2157 H2161 0.985 . S
H2158 N2153 0.984 . S
H2159 N2153 0.985 . S
H2160 N2157 0.984 . S
H2161 N2157 0.985 . S
H2162 N2156 0.984 . S
H2163 N2156 0.984 . S
H2164 N2152 0.984 . S
H2165 N2152 0.985 . S
C2166 C2167 1.363 . S
C2166 C2172 1.379 . S
C2166 N2174 1.356 . S
C2167 C2166 1.363 . S
C2167 C2173 1.363 . S
C2168 C2169 1.363 . S
C2168 C2173 1.379 . S
C2168 N2175 1.356 . S
C2169 C2168 1.363 . S
C2169 C2172 1.363 . S
N2170 C2172 1.349 1_565 S
N2170 H2182 0.996 . S
N2170 H2183 0.984 . S
N2171 C2173 1.356 . S
N2171 H2176 0.984 . S
N2171 H2177 0.985 . S
C2172 C2166 1.379 . S
C2172 C2169 1.363 . S
C2172 N2170 1.349 1_545 S
C2173 C2167 1.363 . S
C2173 C2168 1.379 . S
C2173 N2171 1.356 . S
N2174 C2166 1.356 . S
N2174 H2180 0.974 1_545 S
N2174 H2181 0.984 . S
N2175 C2168 1.356 . S
N2175 H2178 0.984 . S
N2175 H2179 0.985 . S
H2176 N2171 0.984 . S
H2177 N2171 0.985 . S
H2178 N2175 0.984 . S
H2179 N2175 0.985 . S
H2180 N2174 0.974 1_565 S
H2181 N2174 0.984 . S
H2182 N2170 0.996 . S
H2183 N2170 0.984 . S
C2184 C2185 1.363 . S
C2184 C2190 1.379 . S
C2184 N2192 1.356 . S
C2185 C2184 1.363 . S
C2185 C2191 1.363 . S
C2186 C2187 1.363 . S
C2186 C2191 1.379 . S
C2186 N2193 1.356 . S
C2187 C2186 1.363 . S
C2187 C2190 1.363 . S
N2188 C2190 1.356 . S
N2188 H2200 0.984 . S
N2188 H2201 0.985 . S
N2189 C2191 1.356 . S
N2189 H2194 0.984 . S
N2189 H2195 0.985 . S
C2190 C2184 1.379 . S
C2190 C2187 1.363 . S
C2190 N2188 1.356 . S
C2191 C2185 1.363 . S
C2191 C2186 1.379 . S
C2191 N2189 1.356 . S
N2192 C2184 1.356 . S
N2192 H2198 0.984 . S
N2192 H2199 0.984 . S
N2193 C2186 1.356 . S
N2193 H2196 0.984 . S
N2193 H2197 0.985 . S
H2194 N2189 0.984 . S
H2195 N2189 0.985 . S
H2196 N2193 0.984 . S
H2197 N2193 0.985 . S
H2198 N2192 0.984 . S
H2199 N2192 0.984 . S
H2200 N2188 0.984 . S
H2201 N2188 0.985 . S
C2202 C2203 1.363 1_556 S
C2202 C2208 1.379 . S
C2202 N2210 1.356 . S
C2203 C2202 1.363 1_554 S
C2203 C2209 1.363 . S
C2204 C2205 1.363 . S
C2204 C2209 1.379 . S
C2204 N2211 1.356 . S
C2205 C2204 1.363 . S
C2205 C2208 1.363 1_554 S
N2206 C2208 1.356 . S
N2206 H2218 0.984 . S
N2206 H2219 0.985 . S
N2207 C2209 1.356 . S
N2207 H2212 0.984 . S
N2207 H2213 0.985 . S
C2208 C2202 1.379 . S
C2208 C2205 1.363 1_556 S
C2208 N2206 1.356 . S
C2209 C2203 1.363 . S
C2209 C2204 1.379 . S
C2209 N2207 1.356 . S
N2210 C2202 1.356 . S
N2210 H2216 0.984 . S
N2210 H2217 0.984 . S
N2211 C2204 1.356 . S
N2211 H2214 0.984 . S
N2211 H2215 0.985 . S
H2212 N2207 0.984 . S
H2213 N2207 0.985 . S
H2214 N2211 0.984 . S
H2215 N2211 0.985 . S
H2216 N2210 0.984 . S
H2217 N2210 0.984 . S
H2218 N2206 0.984 . S
H2219 N2206 0.985 . S
C2220 C2221 1.363 . S
C2220 C2226 1.379 . S
C2220 N2228 1.356 . S
C2221 C2220 1.363 . S
C2221 C2227 1.363 . S
C2222 C2223 1.363 . S
C2222 C2227 1.379 . S
C2222 N2229 1.356 . S
C2223 C2222 1.363 . S
C2223 C2226 1.363 . S
N2224 C2226 1.356 . S
N2224 H2236 0.984 . S
N2224 H2237 0.985 . S
N2225 C2227 1.356 . S
N2225 H2230 0.984 . S
N2225 H2231 0.985 . S
C2226 C2220 1.379 . S
C2226 C2223 1.363 . S
C2226 N2224 1.356 . S
C2227 C2221 1.363 . S
C2227 C2222 1.379 . S
C2227 N2225 1.356 . S
N2228 C2220 1.356 . S
N2228 H2234 0.984 . S
N2228 H2235 0.984 . S
N2229 C2222 1.356 . S
N2229 H2232 0.984 . S
N2229 H2233 0.985 . S
H2230 N2225 0.984 . S
H2231 N2225 0.985 . S
H2232 N2229 0.984 . S
H2233 N2229 0.985 . S
H2234 N2228 0.984 . S
H2235 N2228 0.984 . S
H2236 N2224 0.984 . S
H2237 N2224 0.985 . S
C2238 C2239 1.363 1_554 S
C2238 C2244 1.379 . S
C2238 N2246 1.356 . S
C2239 C2238 1.363 1_556 S
C2239 C2245 1.363 . S
C2240 C2241 1.363 . S
C2240 C2245 1.379 . S
C2240 N2247 1.356 . S
C2241 C2240 1.363 . S
C2241 C2244 1.363 1_556 S
N2242 C2244 1.356 . S
N2242 H2254 0.984 . S
N2242 H2255 0.985 . S
N2243 C2245 1.356 . S
N2243 H2248 0.984 . S
N2243 H2249 0.985 . S
C2244 C2238 1.379 . S
C2244 C2241 1.363 1_554 S
C2244 N2242 1.356 . S
C2245 C2239 1.363 . S
C2245 C2240 1.379 . S
C2245 N2243 1.356 . S
N2246 C2238 1.356 . S
N2246 H2252 0.984 . S
N2246 H2253 0.984 . S
N2247 C2240 1.356 . S
N2247 H2250 0.984 . S
N2247 H2251 0.985 . S
H2248 N2243 0.984 . S
H2249 N2243 0.985 . S
H2250 N2247 0.984 . S
H2251 N2247 0.985 . S
H2252 N2246 0.984 . S
H2253 N2246 0.984 . S
H2254 N2242 0.984 . S
H2255 N2242 0.985 . S
C2256 C2257 1.363 . S
C2256 C2262 1.379 . S
C2256 N2264 1.356 . S
C2257 C2256 1.363 . S
C2257 C2263 1.363 . S
C2258 C2259 1.363 . S
C2258 C2263 1.379 . S
C2258 N2265 1.356 . S
C2259 C2258 1.363 . S
C2259 C2262 1.363 . S
N2260 C2262 1.356 . S
N2260 H2272 0.984 . S
N2260 H2273 0.985 . S
N2261 C2263 1.356 . S
N2261 H2266 0.984 . S
N2261 H2267 0.985 . S
C2262 C2256 1.379 . S
C2262 C2259 1.363 . S
C2262 N2260 1.356 . S
C2263 C2257 1.363 . S
C2263 C2258 1.379 . S
C2263 N2261 1.356 . S
N2264 C2256 1.356 . S
N2264 H2270 0.984 . S
N2264 H2271 0.984 . S
N2265 C2258 1.356 . S
N2265 H2268 0.984 . S
N2265 H2269 0.985 . S
H2266 N2261 0.984 . S
H2267 N2261 0.985 . S
H2268 N2265 0.984 . S
H2269 N2265 0.985 . S
H2270 N2264 0.984 . S
H2271 N2264 0.984 . S
H2272 N2260 0.984 . S
H2273 N2260 0.985 . S
C2274 C2275 1.363 . S
C2274 C2280 1.379 . S
C2274 N2282 1.356 1_455 S
C2275 C2274 1.363 . S
C2275 C2281 1.363 . S
C2276 C2277 1.363 . S
C2276 C2281 1.379 . S
C2276 N2283 1.356 . S
C2277 C2276 1.363 . S
C2277 C2280 1.363 . S
N2278 C2280 1.356 1_655 S
N2278 H2290 0.984 . S
N2278 H2291 0.985 . S
N2279 C2281 1.356 . S
N2279 H2284 0.984 . S
N2279 H2285 0.985 . S
C2280 C2274 1.379 . S
C2280 C2277 1.363 . S
C2280 N2278 1.356 1_455 S
C2281 C2275 1.363 . S
C2281 C2276 1.379 . S
C2281 N2279 1.356 . S
N2282 C2274 1.356 1_655 S
N2282 H2288 0.984 . S
N2282 H2289 0.976 1_655 S
N2283 C2276 1.356 . S
N2283 H2286 0.984 . S
N2283 H2287 0.985 . S
H2284 N2279 0.984 . S
H2285 N2279 0.985 . S
H2286 N2283 0.984 . S
H2287 N2283 0.985 . S
H2288 N2282 0.984 . S
H2289 N2282 0.976 1_455 S
H2290 N2278 0.984 . S
H2291 N2278 0.985 . S
C2292 C2293 1.363 . S
C2292 C2298 1.379 . S
C2292 N2300 1.356 . S
C2293 C2292 1.363 . S
C2293 C2299 1.363 . S
C2294 C2295 1.363 . S
C2294 C2299 1.379 . S
C2294 N2301 1.356 . S
C2295 C2294 1.363 . S
C2295 C2298 1.363 . S
N2296 C2298 1.356 . S
N2296 H2308 0.984 . S
N2296 H2309 0.985 . S
N2297 C2299 1.356 . S
N2297 H2302 0.984 . S
N2297 H2303 0.985 . S
C2298 C2292 1.379 . S
C2298 C2295 1.363 . S
C2298 N2296 1.356 . S
C2299 C2293 1.363 . S
C2299 C2294 1.379 . S
C2299 N2297 1.356 . S
N2300 C2292 1.356 . S
N2300 H2306 0.984 . S
N2300 H2307 0.984 . S
N2301 C2294 1.356 . S
N2301 H2304 0.984 . S
N2301 H2305 0.985 . S
H2302 N2297 0.984 . S
H2303 N2297 0.985 . S
H2304 N2301 0.984 . S
H2305 N2301 0.985 . S
H2306 N2300 0.984 . S
H2307 N2300 0.984 . S
H2308 N2296 0.984 . S
H2309 N2296 0.985 . S
C2310 C2311 1.363 . S
C2310 C2316 1.379 . S
C2310 N2318 1.356 . S
C2311 C2310 1.363 . S
C2311 C2317 1.363 1_655 S
C2312 C2313 1.363 1_455 S
C2312 C2317 1.379 . S
C2312 N2319 1.356 . S
C2313 C2312 1.363 1_655 S
C2313 C2316 1.363 . S
N2314 C2316 1.356 . S
N2314 H2326 0.984 . S
N2314 H2327 0.985 . S
N2315 C2317 1.356 . S
N2315 H2320 0.984 . S
N2315 H2321 0.985 . S
C2316 C2310 1.379 . S
C2316 C2313 1.363 . S
C2316 N2314 1.356 . S
C2317 C2311 1.363 1_455 S
C2317 C2312 1.379 . S
C2317 N2315 1.356 . S
N2318 C2310 1.356 . S
N2318 H2324 0.984 . S
N2318 H2325 0.984 . S
N2319 C2312 1.356 . S
N2319 H2322 0.984 . S
N2319 H2323 0.985 . S
H2320 N2315 0.984 . S
H2321 N2315 0.985 . S
H2322 N2319 0.984 . S
H2323 N2319 0.985 . S
H2324 N2318 0.984 . S
H2325 N2318 0.984 . S
H2326 N2314 0.984 . S
H2327 N2314 0.985 . S
C2328 C2329 1.363 . S
C2328 C2334 1.379 . S
C2328 N2336 1.356 . S
C2329 C2328 1.363 . S
C2329 C2335 1.363 . S
C2330 C2331 1.363 . S
C2330 C2335 1.379 . S
C2330 N2337 1.356 . S
C2331 C2330 1.363 . S
C2331 C2334 1.363 . S
N2332 C2334 1.356 . S
N2332 H2344 0.984 . S
N2332 H2345 0.985 . S
N2333 C2335 1.356 . S
N2333 H2338 0.984 . S
N2333 H2339 0.985 . S
C2334 C2328 1.379 . S
C2334 C2331 1.363 . S
C2334 N2332 1.356 . S
C2335 C2329 1.363 . S
C2335 C2330 1.379 . S
C2335 N2333 1.356 . S
N2336 C2328 1.356 . S
N2336 H2342 0.984 . S
N2336 H2343 0.984 . S
N2337 C2330 1.356 . S
N2337 H2340 0.984 . S
N2337 H2341 0.985 . S
H2338 N2333 0.984 . S
H2339 N2333 0.985 . S
H2340 N2337 0.984 . S
H2341 N2337 0.985 . S
H2342 N2336 0.984 . S
H2343 N2336 0.984 . S
H2344 N2332 0.984 . S
H2345 N2332 0.985 . S
C2346 C2347 1.363 . S
C2346 C2352 1.379 . S
C2346 N2354 1.356 . S
C2347 C2346 1.363 . S
C2347 C2353 1.363 . S
C2348 C2349 1.363 . S
C2348 C2353 1.379 . S
C2348 N2355 1.356 . S
C2349 C2348 1.363 . S
C2349 C2352 1.363 . S
N2350 C2352 1.356 . S
N2350 H2362 0.984 . S
N2350 H2363 0.985 . S
N2351 C2353 1.356 . S
N2351 H2356 0.984 . S
N2351 H2357 0.985 . S
C2352 C2346 1.379 . S
C2352 C2349 1.363 . S
C2352 N2350 1.356 . S
C2353 C2347 1.363 . S
C2353 C2348 1.379 . S
C2353 N2351 1.356 . S
N2354 C2346 1.356 . S
N2354 H2360 0.984 . S
N2354 H2361 0.984 . S
N2355 C2348 1.356 . S
N2355 H2358 0.984 . S
N2355 H2359 0.985 . S
H2356 N2351 0.984 . S
H2357 N2351 0.985 . S
H2358 N2355 0.984 . S
H2359 N2355 0.985 . S
H2360 N2354 0.984 . S
H2361 N2354 0.984 . S
H2362 N2350 0.984 . S
H2363 N2350 0.985 . S
C2364 C2365 1.363 1_565 S
C2364 C2370 1.379 1_565 S
C2364 N2372 1.356 . S
C2365 C2364 1.363 1_545 S
C2365 C2371 1.363 . S
C2366 C2367 1.363 . S
C2366 C2371 1.379 . S
C2366 N2373 1.356 . S
C2367 C2366 1.363 . S
C2367 C2370 1.363 . S
N2368 C2370 1.356 . S
N2368 H2380 0.984 1_545 S
N2368 H2381 0.985 . S
N2369 C2371 1.356 . S
N2369 H2374 0.984 . S
N2369 H2375 0.985 . S
C2370 C2364 1.379 1_545 S
C2370 C2367 1.363 . S
C2370 N2368 1.356 . S
C2371 C2365 1.363 . S
C2371 C2366 1.379 . S
C2371 N2369 1.356 . S
N2372 C2364 1.356 . S
N2372 H2378 0.984 . S
N2372 H2379 0.984 . S
N2373 C2366 1.356 . S
N2373 H2376 0.984 . S
N2373 H2377 0.985 . S
H2374 N2369 0.984 . S
H2375 N2369 0.985 . S
H2376 N2373 0.984 . S
H2377 N2373 0.985 . S
H2378 N2372 0.984 . S
H2379 N2372 0.984 . S
H2380 N2368 0.984 1_565 S
H2381 N2368 0.985 . S
C2382 C2383 1.363 . S
C2382 C2388 1.379 . S
C2382 N2390 1.356 . S
C2383 C2382 1.363 . S
C2383 C2389 1.363 . S
C2384 C2385 1.363 . S
C2384 C2389 1.379 . S
C2384 N2391 1.356 1_565 S
C2385 C2384 1.363 . S
C2385 C2388 1.363 . S
N2386 C2388 1.356 . S
N2386 H2398 0.984 . S
N2386 H2399 0.985 . S
N2387 C2389 1.346 1_545 S
N2387 H2392 0.981 1_545 S
N2387 H2393 1.001 . S
C2388 C2382 1.379 . S
C2388 C2385 1.363 . S
C2388 N2386 1.356 . S
C2389 C2383 1.363 . S
C2389 C2384 1.379 . S
C2389 N2387 1.346 1_565 S
N2390 C2382 1.356 . S
N2390 H2396 0.984 . S
N2390 H2397 0.984 . S
N2391 C2384 1.356 1_545 S
N2391 H2394 0.984 . S
N2391 H2395 0.985 . S
H2392 N2387 0.981 1_565 S
H2393 N2387 1.001 . S
H2394 N2391 0.984 . S
H2395 N2391 0.985 . S
H2396 N2390 0.984 . S
H2397 N2390 0.984 . S
H2398 N2386 0.984 . S
H2399 N2386 0.985 . S
C2400 C2401 1.363 . S
C2400 C2406 1.379 . S
C2400 N2408 1.356 . S
C2401 C2400 1.363 . S
C2401 C2407 1.363 . S
C2402 C2403 1.363 . S
C2402 C2407 1.379 . S
C2402 N2409 1.356 . S
C2403 C2402 1.363 . S
C2403 C2406 1.363 . S
N2404 C2406 1.356 . S
N2404 H2416 0.984 . S
N2404 H2417 0.985 . S
N2405 C2407 1.356 . S
N2405 H2410 0.984 . S
N2405 H2411 0.985 . S
C2406 C2400 1.379 . S
C2406 C2403 1.363 . S
C2406 N2404 1.356 . S
C2407 C2401 1.363 . S
C2407 C2402 1.379 . S
C2407 N2405 1.356 . S
N2408 C2400 1.356 . S
N2408 H2414 0.984 . S
N2408 H2415 0.984 . S
N2409 C2402 1.356 . S
N2409 H2412 0.984 . S
N2409 H2413 0.985 . S
H2410 N2405 0.984 . S
H2411 N2405 0.985 . S
H2412 N2409 0.984 . S
H2413 N2409 0.985 . S
H2414 N2408 0.984 . S
H2415 N2408 0.984 . S
H2416 N2404 0.984 . S
H2417 N2404 0.985 . S
C2418 C2419 1.363 . S
C2418 C2424 1.379 . S
C2418 N2426 1.356 . S
C2419 C2418 1.363 . S
C2419 C2425 1.351 1_556 S
C2420 C2421 1.363 1_554 S
C2420 C2425 1.379 . S
C2420 N2427 1.356 . S
C2421 C2420 1.363 1_556 S
C2421 C2424 1.363 . S
N2422 C2424 1.356 . S
N2422 H2434 0.984 . S
N2422 H2435 0.985 . S
N2423 C2425 1.366 . S
N2423 H2428 0.984 . S
N2423 H2429 0.985 . S
C2424 C2418 1.379 . S
C2424 C2421 1.363 . S
C2424 N2422 1.356 . S
C2425 C2419 1.351 1_554 S
C2425 C2420 1.379 . S
C2425 N2423 1.366 . S
N2426 C2418 1.356 . S
N2426 H2432 0.984 . S
N2426 H2433 0.984 . S
N2427 C2420 1.356 . S
N2427 H2430 0.984 . S
N2427 H2431 0.985 . S
H2428 N2423 0.984 . S
H2429 N2423 0.985 . S
H2430 N2427 0.984 . S
H2431 N2427 0.985 . S
H2432 N2426 0.984 . S
H2433 N2426 0.984 . S
H2434 N2422 0.984 . S
H2435 N2422 0.985 . S
C2436 C2437 1.363 . S
C2436 C2442 1.379 . S
C2436 N2444 1.356 . S
C2437 C2436 1.363 . S
C2437 C2443 1.363 . S
C2438 C2439 1.363 . S
C2438 C2443 1.379 . S
C2438 N2445 1.356 . S
C2439 C2438 1.363 . S
C2439 C2442 1.363 . S
N2440 C2442 1.356 . S
N2440 H2452 0.984 . S
N2440 H2453 0.985 . S
N2441 C2443 1.356 . S
N2441 H2446 0.984 . S
N2441 H2447 0.985 . S
C2442 C2436 1.379 . S
C2442 C2439 1.363 . S
C2442 N2440 1.356 . S
C2443 C2437 1.363 . S
C2443 C2438 1.379 . S
C2443 N2441 1.356 . S
N2444 C2436 1.356 . S
N2444 H2450 0.984 . S
N2444 H2451 0.984 . S
N2445 C2438 1.356 . S
N2445 H2448 0.984 . S
N2445 H2449 0.985 . S
H2446 N2441 0.984 . S
H2447 N2441 0.985 . S
H2448 N2445 0.984 . S
H2449 N2445 0.985 . S
H2450 N2444 0.984 . S
H2451 N2444 0.984 . S
H2452 N2440 0.984 . S
H2453 N2440 0.985 . S
C2454 C2455 1.363 . S
C2454 C2460 1.379 . S
C2454 N2462 1.356 . S
C2455 C2454 1.363 . S
C2455 C2461 1.363 . S
C2456 C2457 1.363 . S
C2456 C2461 1.379 . S
C2456 N2463 1.356 . S
C2457 C2456 1.363 . S
C2457 C2460 1.363 . S
N2458 C2460 1.356 . S
N2458 H2470 0.984 . S
N2458 H2471 0.985 . S
N2459 C2461 1.356 1_556 S
N2459 H2464 0.984 . S
N2459 H2465 0.985 . S
C2460 C2454 1.379 . S
C2460 C2457 1.363 . S
C2460 N2458 1.356 . S
C2461 C2455 1.363 . S
C2461 C2456 1.379 . S
C2461 N2459 1.356 1_554 S
N2462 C2454 1.356 . S
N2462 H2468 0.984 . S
N2462 H2469 0.984 . S
N2463 C2456 1.356 . S
N2463 H2466 0.984 . S
N2463 H2467 0.985 . S
H2464 N2459 0.984 . S
H2465 N2459 0.985 . S
H2466 N2463 0.984 . S
H2467 N2463 0.985 . S
H2468 N2462 0.984 . S
H2469 N2462 0.984 . S
H2470 N2458 0.984 . S
H2471 N2458 0.985 . S
C2472 C2473 1.363 . S
C2472 C2478 1.379 . S
C2472 N2480 1.356 . S
C2473 C2472 1.363 . S
C2473 C2479 1.363 . S
C2474 C2475 1.363 . S
C2474 C2479 1.379 . S
C2474 N2481 1.356 . S
C2475 C2474 1.363 . S
C2475 C2478 1.363 . S
N2476 C2478 1.356 . S
N2476 H2488 0.984 . S
N2476 H2489 0.985 . S
N2477 C2479 1.356 . S
N2477 H2482 0.984 . S
N2477 H2483 0.985 . S
C2478 C2472 1.379 . S
C2478 C2475 1.363 . S
C2478 N2476 1.356 . S
C2479 C2473 1.363 . S
C2479 C2474 1.379 . S
C2479 N2477 1.356 . S
N2480 C2472 1.356 . S
N2480 H2486 0.984 . S
N2480 H2487 0.984 . S
N2481 C2474 1.356 . S
N2481 H2484 0.984 . S
N2481 H2485 0.985 . S
H2482 N2477 0.984 . S
H2483 N2477 0.985 . S
H2484 N2481 0.984 . S
H2485 N2481 0.985 . S
H2486 N2480 0.984 . S
H2487 N2480 0.984 . S
H2488 N2476 0.984 . S
H2489 N2476 0.985 . S
C2490 C2491 1.363 . S
C2490 C2496 1.379 . S
C2490 N2498 1.356 1_655 S
C2491 C2490 1.363 . S
C2491 C2497 1.363 . S
C2492 C2493 1.363 . S
C2492 C2497 1.379 . S
C2492 N2499 1.356 . S
C2493 C2492 1.363 . S
C2493 C2496 1.363 . S
N2494 C2496 1.357 1_455 S
N2494 H2506 0.984 . S
N2494 H2507 0.985 . S
N2495 C2497 1.356 . S
N2495 H2500 0.984 . S
N2495 H2501 0.985 . S
C2496 C2490 1.379 . S
C2496 C2493 1.363 . S
C2496 N2494 1.357 1_655 S
C2497 C2491 1.363 . S
C2497 C2492 1.379 . S
C2497 N2495 1.356 . S
N2498 C2490 1.356 1_455 S
N2498 H2504 0.984 . S
N2498 H2505 0.984 . S
N2499 C2492 1.356 . S
N2499 H2502 0.984 . S
N2499 H2503 0.985 . S
H2500 N2495 0.984 . S
H2501 N2495 0.985 . S
H2502 N2499 0.984 . S
H2503 N2499 0.985 . S
H2504 N2498 0.984 . S
H2505 N2498 0.984 . S
H2506 N2494 0.984 . S
H2507 N2494 0.985 . S
C2508 C2509 1.363 . S
C2508 C2514 1.379 . S
C2508 N2516 1.356 . S
C2509 C2508 1.363 . S
C2509 C2515 1.363 . S
C2510 C2511 1.363 . S
C2510 C2515 1.379 . S
C2510 N2517 1.356 . S
C2511 C2510 1.363 . S
C2511 C2514 1.363 . S
N2512 C2514 1.356 . S
N2512 H2524 0.984 . S
N2512 H2525 0.985 . S
N2513 C2515 1.356 . S
N2513 H2518 0.984 . S
N2513 H2519 0.985 . S
C2514 C2508 1.379 . S
C2514 C2511 1.363 . S
C2514 N2512 1.356 . S
C2515 C2509 1.363 . S
C2515 C2510 1.379 . S
C2515 N2513 1.356 . S
N2516 C2508 1.356 . S
N2516 H2522 0.984 . S
N2516 H2523 0.984 . S
N2517 C2510 1.356 . S
N2517 H2520 0.984 . S
N2517 H2521 0.985 . S
H2518 N2513 0.984 . S
H2519 N2513 0.985 . S
H2520 N2517 0.984 . S
H2521 N2517 0.985 . S
H2522 N2516 0.984 . S
H2523 N2516 0.984 . S
H2524 N2512 0.984 . S
H2525 N2512 0.985 . S
C2526 C2527 1.363 1_655 S
C2526 C2532 1.379 . S
C2526 N2534 1.356 . S
C2527 C2526 1.363 1_455 S
C2527 C2533 1.363 . S
C2528 C2529 1.363 . S
C2528 C2533 1.379 . S
C2528 N2535 1.356 . S
C2529 C2528 1.363 . S
C2529 C2532 1.363 1_455 S
N2530 C2532 1.356 . S
N2530 H2542 0.984 . S
N2530 H2543 0.985 . S
N2531 C2533 1.356 . S
N2531 H2536 0.984 . S
N2531 H2537 0.985 . S
C2532 C2526 1.379 . S
C2532 C2529 1.363 1_655 S
C2532 N2530 1.356 . S
C2533 C2527 1.363 . S
C2533 C2528 1.379 . S
C2533 N2531 1.356 . S
N2534 C2526 1.356 . S
N2534 H2540 0.984 . S
N2534 H2541 0.984 . S
N2535 C2528 1.356 . S
N2535 H2538 0.984 . S
N2535 H2539 0.985 . S
H2536 N2531 0.984 . S
H2537 N2531 0.985 . S
H2538 N2535 0.984 . S
H2539 N2535 0.985 . S
H2540 N2534 0.984 . S
H2541 N2534 0.984 . S
H2542 N2530 0.984 . S
H2543 N2530 0.985 . S
C1251 C1242 1.708 . S
C1249 C15 1.760 . S
C1269 C1206 1.748 . S
C1267 C55 1.607 . S
C1287 C1230 0.965 . S
C1285 C95 1.083 . S
C1305 C1218 1.618 . S
C1303 C135 1.597 . S
C1323 C1134 1.708 . S
C1321 C175 1.760 . S
C1339 C215 1.597 . S
C1341 C1146 1.618 . S
C1359 C1110 1.748 . S
C1357 C255 1.607 . S
C1375 C295 1.083 . S
C1377 C1122 0.965 . S
C1395 C1194 1.708 . S
C1393 C335 1.760 . S
C1411 C375 1.597 . S
C1413 C1170 1.618 . S
C1429 C415 1.607 . S
C1431 C1158 1.748 . S
C1449 C1182 0.965 . S
C1447 C455 1.083 . S
C1467 C1098 1.695 . S
C1465 C495 1.758 . S
C1483 C535 1.594 . S
C1485 C1062 1.741 . S
C1503 C1086 0.966 . S
C1501 C575 1.085 1_545 S
C1519 C615 1.597 . S
C1521 C1074 1.579 . S
C1539 C990 1.695 . S
C1537 C655 1.758 . S
C1557 C1002 1.579 . S
C1555 C695 1.597 . S
C1573 C735 1.594 . S
C1575 C966 1.741 . S
C1591 C775 1.085 1_554 S
C1593 C978 0.966 . S
C1609 C815 1.753 . S
C1611 C1050 1.700 . S
C1627 C855 1.597 . S
C1629 C1026 1.579 . S
C1647 C1014 1.741 . S
C1645 C895 1.594 . S
C1663 C935 1.085 1_455 S
C1665 C1038 0.966 . S
C1683 C969 1.620 . S
C1681 C21 1.681 . S
C1701 C981 1.866 . S
C1699 C61 1.964 . S
C1717 C101 0.983 . S
C1719 C993 0.993 . S
C1735 C141 1.091 . S
C1737 C1005 1.061 . S
C1755 C1017 1.620 . S
C1753 C181 1.681 . S
C1771 C221 1.091 . S
C1773 C1029 1.061 . S
C1791 C1041 1.866 . S
C1789 C261 1.964 . S
C1809 C1053 0.993 . S
C1807 C301 0.983 . S
C1827 C1065 1.620 . S
C1825 C341 1.681 . S
C1843 C381 1.091 . S
C1845 C1077 1.061 . S
C1861 C421 1.965 . S
C1863 C1089 1.865 . S
C1879 C461 0.983 . S
C1881 C1101 0.993 . S
C1897 C501 1.619 . S
C1899 C1113 1.622 . S
C1915 C541 1.759 . S
C1917 C1125 1.885 . S
C1933 C581 0.987 1_545 S
C1935 C1137 0.993 . S
C1951 C621 1.067 . S
C1953 C1149 1.066 . S
C1969 C661 1.619 . S
C1971 C1161 1.622 . S
C1989 C1173 1.071 . S
C1987 C701 1.061 . S
C2007 C1185 1.886 . S
C2005 C741 1.757 . S
C2025 C1197 0.993 . S
C2023 C781 0.987 1_554 S
C2043 C1209 1.622 . S
C2041 C821 1.619 . S
C2059 C861 1.067 . S
C2061 C1221 1.066 . S
C2077 C901 1.759 . S
C2079 C1233 1.885 . S
C2095 C941 0.987 1_455 S
C2097 C1245 0.993 . S
C2113 C2 1.644 . S
C2115 C1060 1.625 . S
C2133 C1096 1.819 . S
C2131 C42 1.836 . S
C2149 C82 1.574 . S
C2151 C1072 1.502 . S
C2169 C1084 1.682 . S
C2167 C122 1.634 . S
C2185 C162 1.644 . S
C2187 C964 1.625 . S
C2203 C202 1.634 . S
C2205 C976 1.682 . S
C2221 C242 1.841 . S
C2223 C988 1.815 . S
C2239 C282 1.574 . S
C2241 C1000 1.502 . S
C2259 C1012 1.624 . S
C2257 C322 1.643 . S
C2277 C1036 1.682 . S
C2275 C362 1.634 . S
C2293 C402 1.841 . S
C2295 C1048 1.815 . S
C2311 C442 1.574 . S
C2313 C1024 1.502 . S
C2331 C1204 1.629 . S
C2329 C482 1.618 . S
C2349 C1240 1.810 . S
C2347 C522 1.730 . S
C2365 C562 1.621 1_545 S
C2367 C1216 1.491 . S
C2385 C1228 1.694 . S
C2383 C602 1.623 . S
C2401 C642 1.618 . S
C2403 C1108 1.629 . S
C2419 C682 1.623 . S
C2421 C1120 1.694 . S
C2437 C722 1.735 . S
C2439 C1132 1.806 . S
C2457 C1144 1.491 . S
C2455 C762 1.621 1_554 S
C2475 C1156 1.629 . S
C2473 C802 1.618 . S
C2493 C1180 1.694 . S
C2491 C842 1.623 . S
C2509 C882 1.735 . S
C2511 C1192 1.806 . S
C2529 C1168 1.491 . S
C2527 C922 1.621 1_455 S
