# Generated by pormake.
# Topology tsx, (6,3)-cn, num edge types: 1
# Building blocks:
#     Node 0, Type 0, BuildingBlock: VOLQOD_clean_sbu_1, # of connection points: 6
#     Node 1, Type 0, BuildingBlock: VOLQOD_clean_sbu_1, # of connection points: 6
#     Node 2, Type 1, BuildingBlock: MIDCAF_clean_linker_0, # of connection points: 3
#     Node 3, Type 1, BuildingBlock: MIDCAF_clean_linker_0, # of connection points: 3
#     Node 4, Type 1, BuildingBlock: MIDCAF_clean_linker_0, # of connection points: 3
#     Node 5, Type 1, BuildingBlock: MIDCAF_clean_linker_0, # of connection points: 3
#     Edge 6, Type (0, 1), BuildingBlock: CIFDUS_clean_linker_0, # of connection points: 2
#     Edge 7, Type (0, 1), BuildingBlock: CIFDUS_clean_linker_0, # of connection points: 2
#     Edge 8, Type (0, 1), BuildingBlock: CIFDUS_clean_linker_0, # of connection points: 2
#     Edge 9, Type (0, 1), BuildingBlock: CIFDUS_clean_linker_0, # of connection points: 2
#     Edge 10, Type (0, 1), BuildingBlock: CIFDUS_clean_linker_0, # of connection points: 2
#     Edge 11, Type (0, 1), BuildingBlock: CIFDUS_clean_linker_0, # of connection points: 2
#     Edge 12, Type (0, 1), BuildingBlock: CIFDUS_clean_linker_0, # of connection points: 2
#     Edge 13, Type (0, 1), BuildingBlock: CIFDUS_clean_linker_0, # of connection points: 2
#     Edge 14, Type (0, 1), BuildingBlock: CIFDUS_clean_linker_0, # of connection points: 2
#     Edge 15, Type (0, 1), BuildingBlock: CIFDUS_clean_linker_0, # of connection points: 2
#     Edge 16, Type (0, 1), BuildingBlock: CIFDUS_clean_linker_0, # of connection points: 2
#     Edge 17, Type (0, 1), BuildingBlock: CIFDUS_clean_linker_0, # of connection points: 2
# Relax obj value: 0.076
# Max RMSD: 0.108
# Mean RMSD: 0.083
data_MOF--net-tsx--node1-VOLQOD_clean_sbu_1--node2-MIDCAF_clean_linker_0--edge1-CIFDUS_clean_linker_0
_symmetry_space_group_name_H-M    P1
_symmetry_Int_Tables_number       1
_symmetry_cell_setting            triclinic
loop_
_symmetry_equiv_pos_as_xyz
'x, y, z'
_cell_length_a     22.293762
_cell_length_b     23.173713
_cell_length_c     44.215132
_cell_angle_alpha  90.380896
_cell_angle_beta   90.093069
_cell_angle_gamma 89.586415
loop_
_atom_site_label
_atom_site_type_symbol
_atom_site_fract_x
_atom_site_fract_y
_atom_site_fract_z
_atom_type_partial_charge
O0 O 0.03558 0.96442 0.07918 0.0
Zn1 Zn 0.06314 0.97427 0.03657 0.0
O2 O -0.00195 -0.0018 0.01018 0.0
Zn3 Zn 0.98033 0.93585 0.98162 0.0
Zn4 Zn 0.92777 0.01506 0.0351 0.0
Zn5 Zn 0.02209 0.06707 0.98802 0.0
O6 O 0.98256 0.96501 0.93865 0.0
O7 O 0.02646 0.05059 0.94309 0.0
O8 O 0.1023 0.90099 0.02208 0.0
O9 O 0.0432 0.87272 0.98444 0.0
O10 O 0.89921 0.90092 0.98991 0.0
O11 O 0.86219 0.95944 0.02532 0.0
O12 O 0.89578 0.09501 0.02725 0.0
O13 O 0.12574 0.03503 0.0387 0.0
O14 O 0.96013 0.13024 0.99393 0.0
O15 O 0.10155 0.09817 0.00307 0.0
C16 C 0.98911 0.98127 0.09347 0.0
C17 C 0.00549 0.00977 0.92683 0.0
C18 C 0.85692 0.91614 0.00768 0.0
C19 C 0.08903 0.86507 0.00127 0.0
C20 C 0.91308 0.13556 0.01009 0.0
C21 C 0.13625 0.08096 0.02414 0.0
O22 O 0.94504 0.00483 0.07978 0.0
O23 O 0.59102 0.5017 0.57294 0.0
Zn24 Zn 0.60186 0.49415 0.52772 0.0
O25 O 0.52489 0.50181 0.50676 0.0
Zn26 Zn 0.50671 0.43015 0.48498 0.0
Zn27 Zn 0.46177 0.51772 0.53611 0.0
Zn28 Zn 0.52886 0.56603 0.47846 0.0
O29 O 0.50138 0.44438 0.43988 0.0
O30 O 0.52794 0.53631 0.43541 0.0
O31 O 0.64139 0.41735 0.51903 0.0
O32 O 0.57272 0.37164 0.49159 0.0
O33 O 0.43011 0.39361 0.49986 0.0
O34 O 0.40295 0.4532 0.53692 0.0
O35 O 0.4141 0.58865 0.52554 0.0
O36 O 0.65794 0.55766 0.51592 0.0
O37 O 0.45774 0.61977 0.4837 0.0
O38 O 0.60365 0.61293 0.48526 0.0
C39 C 0.54651 0.51566 0.58955 0.0
C40 C 0.51383 0.48791 0.4236 0.0
C41 C 0.39469 0.40766 0.52131 0.0
C42 C 0.62336 0.37254 0.50499 0.0
C43 C 0.41679 0.624 0.50369 0.0
C44 C 0.65173 0.60289 0.49999 0.0
O45 O 0.49486 0.52512 0.5782 0.0
C46 C 0.77366 0.05165 0.439 0.0
C47 C 0.79011 0.07769 0.46653 0.0
C48 C 0.84625 0.06389 0.47929 0.0
C49 C 0.88621 0.02698 0.46399 0.0
H50 H 0.04066 0.91159 0.47081 0.0
H51 H 0.13314 0.86824 0.49056 0.0
H52 H 0.19235 0.83308 0.39926 0.0
H53 H 0.10173 0.87668 0.37961 0.0
H54 H 0.00644 0.8765 0.32634 0.0
H55 H -0.00134 0.88097 0.27155 0.0
H56 H 0.86522 0.01644 0.27964 0.0
H57 H 0.87136 0.01044 0.33451 0.0
H58 H 0.79985 -0.0022 0.40201 0.0
H59 H 0.73111 0.06173 0.42835 0.0
H60 H 0.85989 0.08289 0.50064 0.0
H61 H 0.92997 0.01875 0.47379 0.0
N62 N 0.96606 0.94926 0.42899 0.0
N63 N -0.00222 0.92009 0.38061 0.0
N64 N 0.90691 0.96964 0.38629 0.0
C65 C 0.00744 0.92266 0.41094 0.0
C66 C 0.9478 0.94348 0.3681 0.0
C67 C 0.91536 0.97249 0.41671 0.0
C68 C 0.06348 0.8976 0.42359 0.0
C69 C 0.07364 0.89493 0.45498 0.0
C70 C 0.1265 0.86997 0.46631 0.0
C71 C 0.1703 0.8476 0.44647 0.0
C72 C 0.16019 0.85089 0.41519 0.0
C73 C 0.10765 0.8755 0.40391 0.0
C74 C 0.93987 0.9434 0.33484 0.0
C75 C 0.9751 0.90696 0.31646 0.0
C76 C 0.97087 0.90978 0.285 0.0
C77 C 0.93187 0.94962 0.27111 0.0
C78 C 0.89532 0.98487 0.28952 0.0
C79 C 0.89906 0.9816 0.32103 0.0
C80 C 0.87088 0.00396 0.43552 0.0
C81 C 0.81349 0.01535 0.42371 0.0
C82 C 0.82448 0.89352 0.57394 0.0
C83 C 0.84351 0.87331 0.54555 0.0
C84 C 0.9002 0.88885 0.53472 0.0
C85 C 0.93754 0.92409 0.55223 0.0
H86 H 0.06701 0.054 0.54519 0.0
H87 H 0.1395 0.11895 0.52237 0.0
H88 H 0.18336 0.18695 0.61077 0.0
H89 H 0.11075 0.12298 0.63364 0.0
H90 H 0.01907 0.09267 0.69012 0.0
H91 H 0.01099 0.08847 0.74492 0.0
H92 H 0.94546 0.91358 0.73781 0.0
H93 H 0.95014 0.91949 0.68299 0.0
H94 H 0.84667 0.94176 0.61375 0.0
H95 H 0.78105 0.88147 0.58277 0.0
H96 H 0.91567 0.87335 0.51289 0.0
H97 H 0.9813 0.93526 0.54351 0.0
N98 N 0.00148 0.012 0.58771 0.0
N99 N 0.03149 0.04369 0.63586 0.0
N100 N 0.95412 0.97629 0.63103 0.0
C101 C 0.0376 0.04526 0.60529 0.0
C102 C 0.99016 0.00905 0.64889 0.0
C103 C 0.95941 0.97777 0.60042 0.0
C104 C 0.08269 0.0834 0.59129 0.0
C105 C 0.09208 0.08278 0.55981 0.0
C106 C 0.13382 0.11974 0.54669 0.0
C107 C 0.16673 0.15828 0.56476 0.0
C108 C 0.15792 0.15836 0.59621 0.0
C109 C 0.11648 0.12137 0.60933 0.0
C110 C 0.9851 0.00648 0.68223 0.0
C111 C 0.00273 0.05344 0.70033 0.0
C112 C -0.0015 0.05078 0.73184 0.0
C113 C 0.97777 0.00056 0.74612 0.0
C114 C 0.96045 0.95348 0.72784 0.0
C115 C 0.96347 0.95666 0.69631 0.0
C116 C 0.91925 0.94285 0.58114 0.0
C117 C 0.86221 0.92751 0.59171 0.0
C118 C 0.36338 0.6542 0.93088 0.0
C119 C 0.36377 0.65836 0.96257 0.0
C120 C 0.41125 0.63249 0.97868 0.0
C121 C 0.45729 0.60305 0.96328 0.0
H122 H 0.60671 0.48855 0.97316 0.0
H123 H 0.68456 0.42881 0.9967 0.0
H124 H 0.77013 0.40633 0.90979 0.0
H125 H 0.69384 0.46602 0.88647 0.0
H126 H 0.61416 0.47831 0.82727 0.0
H127 H 0.60468 0.47463 0.77239 0.0
H128 H 0.46358 0.60326 0.77652 0.0
H129 H 0.47176 0.60584 0.83129 0.0
H130 H 0.40681 0.62336 0.89113 0.0
H131 H 0.32838 0.67474 0.91767 0.0
H132 H 0.41275 0.6349 0.00314 0.0
H133 H 0.49335 0.58371 0.97627 0.0
N134 N 0.55075 0.54131 0.92887 0.0
N135 N 0.592 0.51468 0.88188 0.0
N136 N 0.50396 0.56974 0.88375 0.0
C137 C 0.59447 0.51393 0.91261 0.0
C138 C 0.54695 0.54255 0.86727 0.0
C139 C 0.50527 0.56945 0.91445 0.0
C140 C 0.64356 0.48171 0.92784 0.0
C141 C 0.64253 0.47136 0.95916 0.0
C142 C 0.68697 0.437 0.97265 0.0
C143 C 0.73353 0.41285 0.95512 0.0
C144 C 0.73547 0.42491 0.92405 0.0
C145 C 0.69117 0.45882 0.91061 0.0
C146 C 0.54351 0.54213 0.83378 0.0
C147 C 0.58125 0.50599 0.81649 0.0
C148 C 0.57603 0.50406 0.78497 0.0
C149 C 0.53318 0.53846 0.77003 0.0
C150 C 0.49629 0.57538 0.78731 0.0
C151 C 0.50125 0.57708 0.81878 0.0
C152 C 0.45675 0.59929 0.93149 0.0
C153 C 0.40901 0.62506 0.91559 0.0
C154 C 0.42784 0.2999 0.08369 0.0
C155 C 0.3916 0.31209 0.05833 0.0
C156 C 0.39318 0.36794 0.04605 0.0
C157 C 0.42864 0.41069 0.05923 0.0
H158 H 0.56213 0.53741 0.03632 0.0
H159 H 0.61421 0.61091 0.00723 0.0
H160 H 0.64552 0.70818 0.08937 0.0
H161 H 0.59329 0.63571 0.11834 0.0
H162 H 0.542 0.58731 0.18099 0.0
H163 H 0.54542 0.59293 0.23578 0.0
H164 H 0.52778 0.40747 0.24064 0.0
H165 H 0.52119 0.40242 0.18565 0.0
H166 H 0.48826 0.33287 0.11726 0.0
H167 H 0.42938 0.2571 0.09332 0.0
H168 H 0.36536 0.37957 0.02693 0.0
H169 H 0.42777 0.45359 0.04964 0.0
N170 N 0.51831 0.48943 0.08416 0.0
N171 N 0.55062 0.53517 0.12862 0.0
N172 N 0.50051 0.44674 0.1313 0.0
C173 C 0.54651 0.5341 0.09795 0.0
C174 C 0.52781 0.49171 0.14546 0.0
C175 C 0.49529 0.44569 0.10066 0.0
C176 C 0.57388 0.58041 0.07976 0.0
C177 C 0.57949 0.57483 0.04814 0.0
C178 C 0.60946 0.61678 0.03144 0.0
C179 C 0.63379 0.66533 0.046 0.0
C180 C 0.62645 0.6717 0.07741 0.0
C181 C 0.59694 0.62978 0.09409 0.0
C182 C 0.53136 0.49441 0.17892 0.0
C183 C 0.53895 0.54768 0.19373 0.0
C184 C 0.54129 0.55083 0.22527 0.0
C185 C 0.53722 0.50065 0.2429 0.0
C186 C 0.53004 0.44722 0.22799 0.0
C187 C 0.52665 0.44421 0.19639 0.0
C188 C 0.46217 0.39902 0.08541 0.0
C189 C 0.46199 0.34315 0.09735 0.0
H190 H 0.20094 0.15648 0.99036 0.0
H191 H 0.185 0.08638 0.08018 0.0
H192 H 0.26353 0.15035 0.09835 0.0
H193 H 0.33152 0.2299 0.08968 0.0
H194 H 0.35545 0.29526 0.99922 0.0
H195 H 0.27817 0.23007 0.98055 0.0
C196 C 0.21503 0.15512 0.01384 0.0
C197 C 0.18697 0.11712 0.03393 0.0
C198 C 0.2611 0.19145 0.02413 0.0
C199 C 0.20603 0.11516 0.06423 0.0
C200 C 0.25078 0.15187 0.0747 0.0
C201 C 0.32136 0.22915 0.0657 0.0
C202 C 0.34929 0.26818 0.04607 0.0
C203 C 0.27812 0.19057 0.05493 0.0
C204 C 0.33389 0.26688 0.01514 0.0
C205 C 0.28991 0.22925 0.00434 0.0
H206 H 0.19988 0.84575 0.02536 0.0
H207 H 0.07053 0.77351 0.96316 0.0
H208 H 0.14231 0.69842 0.94864 0.0
H209 H 0.24436 0.65886 0.95011 0.0
H210 H 0.37594 0.73485 0.00964 0.0
H211 H 0.30007 0.80169 0.02941 0.0
C212 C 0.18702 0.81319 0.0089 0.0
C213 C 0.13003 0.81576 0.99513 0.0
C214 C 0.22893 0.77074 0.00019 0.0
C215 C 0.11422 0.77301 0.97391 0.0
C216 C 0.15526 0.73 0.96559 0.0
C217 C 0.25643 0.68993 0.96749 0.0
C218 C 0.31597 0.69239 0.97805 0.0
C219 C 0.21318 0.7294 0.97799 0.0
C220 C 0.33045 0.73183 0.00117 0.0
C221 C 0.2872 0.77047 0.01227 0.0
H222 H 0.84066 0.80664 0.98637 0.0
H223 H 0.7516 0.94429 0.03544 0.0
H224 H 0.66957 0.87993 0.04797 0.0
H225 H 0.62989 0.78198 0.05066 0.0
H226 H 0.72125 0.64275 0.00424 0.0
H227 H 0.79454 0.71054 0.9843 0.0
C228 C 0.80276 0.82287 0.99929 0.0
C229 C 0.80283 0.87994 0.01037 0.0
C230 C 0.75622 0.78523 0.00705 0.0
C231 C 0.75318 0.90032 0.027 0.0
C232 C 0.7062 0.86354 0.03421 0.0
C233 C 0.66552 0.76664 0.03591 0.0
C234 C 0.67075 0.70743 0.02933 0.0
C235 C 0.70838 0.80547 0.0253 0.0
C236 C 0.71622 0.68819 0.00962 0.0
C237 C 0.75846 0.72686 0.99844 0.0
H238 H 0.9416 0.23583 0.98199 0.0
H239 H 0.79951 0.15369 0.03167 0.0
H240 H 0.73311 0.23552 0.0217 0.0
H241 H 0.71216 0.32545 0.99438 0.0
H242 H 0.85432 0.40759 0.94489 0.0
H243 H 0.92385 0.33073 0.95938 0.0
C244 C 0.8963 0.236 0.9909 0.0
C245 C 0.87544 0.18823 0.00719 0.0
C246 C 0.85815 0.28304 0.98495 0.0
C247 C 0.81679 0.18966 0.01891 0.0
C248 C 0.77863 0.23642 0.01316 0.0
C249 C 0.7587 0.3273 0.98738 0.0
C250 C 0.77778 0.3718 0.96825 0.0
C251 C 0.79838 0.2827 0.9956 0.0
C252 C 0.8382 0.37323 0.95917 0.0
C253 C 0.87802 0.32934 0.96747 0.0
H254 H 0.63725 0.7185 0.4944 0.0
H255 H 0.77118 0.58681 0.51025 0.0
H256 H 0.84578 0.66083 0.5213 0.0
H257 H 0.86913 0.76219 0.53287 0.0
H258 H 0.73239 0.89272 0.52229 0.0
H259 H 0.6627 0.8204 0.50239 0.0
C260 C 0.68312 0.7061 0.4996 0.0
C261 C 0.69874 0.64736 0.5016 0.0
C262 C 0.72504 0.7488 0.50713 0.0
C263 C 0.7581 0.63181 0.50875 0.0
C264 C 0.80069 0.67408 0.51513 0.0
C265 C 0.82449 0.77472 0.52546 0.0
C266 C 0.80559 0.83228 0.52876 0.0
C267 C 0.78416 0.73258 0.51533 0.0
C268 C 0.74753 0.84842 0.51975 0.0
C269 C 0.70779 0.80712 0.50854 0.0
H270 H 0.58964 0.26197 0.49458 0.0
H271 H 0.74496 0.36703 0.51233 0.0
H272 H 0.81042 0.2829 0.50542 0.0
H273 H 0.82379 0.18183 0.48934 0.0
H274 H 0.66812 0.07662 0.47262 0.0
H275 H 0.60249 0.15846 0.48441 0.0
C276 C 0.63781 0.26639 0.49711 0.0
C277 C 0.66248 0.3208 0.50347 0.0
C278 C 0.67509 0.21787 0.49325 0.0
C279 C 0.72486 0.32565 0.50727 0.0
C280 C 0.76233 0.27759 0.50327 0.0
C281 C 0.77552 0.17634 0.48908 0.0
C282 C 0.75091 0.12339 0.47973 0.0
C283 C 0.738 0.22373 0.49566 0.0
C284 C 0.6882 0.11722 0.47925 0.0
C285 C 0.65063 0.16399 0.48596 0.0
H286 H 0.37371 0.29761 0.50152 0.0
H287 H 0.30259 0.43186 0.55981 0.0
H288 H 0.22443 0.3673 0.5771 0.0
H289 H 0.17911 0.27174 0.57777 0.0
H290 H 0.25045 0.13599 0.52084 0.0
H291 H 0.32505 0.20238 0.50058 0.0
C292 C 0.34077 0.31291 0.51777 0.0
C293 C 0.34442 0.36942 0.52948 0.0
C294 C 0.29605 0.27528 0.52795 0.0
C295 C 0.30129 0.38848 0.55056 0.0
C296 C 0.25647 0.3516 0.56051 0.0
C297 C 0.21114 0.25663 0.561 0.0
C298 C 0.20973 0.19897 0.55106 0.0
C299 C 0.25407 0.29471 0.54976 0.0
C300 C 0.25056 0.1803 0.52879 0.0
C301 C 0.29337 0.21814 0.51732 0.0
H302 H 0.41518 0.71611 0.46578 0.0
H303 H 0.31009 0.63082 0.53393 0.0
H304 H 0.22621 0.69629 0.52425 0.0
H305 H 0.17927 0.77139 0.49294 0.0
H306 H 0.28478 0.85731 0.42526 0.0
H307 H 0.37179 0.79802 0.43832 0.0
C308 C 0.37415 0.71214 0.47873 0.0
C309 C 0.3688 0.66808 0.50025 0.0
C310 C 0.32589 0.74979 0.47299 0.0
C311 C 0.3155 0.66414 0.5171 0.0
C312 C 0.26733 0.70149 0.51154 0.0
C313 C 0.22165 0.77807 0.48153 0.0
C314 C 0.2252 0.81811 0.45785 0.0
C315 C 0.27155 0.74364 0.48906 0.0
C316 C 0.28046 0.82592 0.44315 0.0
C317 C 0.33031 0.79213 0.45064 0.0
H318 H 0.89154 0.98716 0.13073 0.0
H319 H 0.08325 0.95881 0.1309 0.0
H320 H 0.08211 0.94674 0.18552 0.0
H321 H 0.0276 0.94553 0.23324 0.0
H322 H 0.83536 0.96921 0.23367 0.0
H323 H 0.83608 0.98278 0.1789 0.0
C324 C 0.93304 0.97844 0.14274 0.0
C325 C 0.98736 0.97397 0.12669 0.0
C326 C 0.9321 0.97091 0.17427 0.0
C327 C 0.04071 0.96224 0.1426 0.0
C328 C 0.0402 0.95542 0.17389 0.0
C329 C 0.98561 0.95268 0.22139 0.0
C330 C 0.93152 0.95612 0.23765 0.0
C331 C 0.98621 0.95958 0.18993 0.0
C332 C 0.87781 0.96695 0.22184 0.0
C333 C 0.87811 0.97442 0.19047 0.0
H334 H 0.93204 0.95868 0.8857 0.0
H335 H 0.08454 0.07148 0.89316 0.0
H336 H 0.09017 0.07771 0.83807 0.0
H337 H 0.05302 0.04964 0.78794 0.0
H338 H 0.8947 0.94384 0.78068 0.0
H339 H 0.89113 0.9354 0.83547 0.0
C340 C 0.96657 0.98454 0.87525 0.0
C341 C 0.00803 0.01428 0.89348 0.0
C342 C 0.96882 0.98887 0.84358 0.0
C343 C 0.052 0.04826 0.87963 0.0
C344 C 0.05534 0.05173 0.84813 0.0
C345 C 0.01701 0.02549 0.7982 0.0
C346 C 0.97453 -0.00291 0.77983 0.0
C347 C 0.01398 0.02219 0.82988 0.0
C348 C 0.92902 0.96513 0.79392 0.0
C349 C 0.92652 0.96065 0.82538 0.0
H350 H 0.45951 0.52691 0.63219 0.0
H351 H 0.65168 0.51403 0.62164 0.0
H352 H 0.66454 0.52039 0.67643 0.0
H353 H 0.62119 0.52996 0.72733 0.0
H354 H 0.42877 0.53917 0.73758 0.0
H355 H 0.41628 0.53473 0.68285 0.0
C356 C 0.50429 0.52567 0.6418 0.0
C357 C 0.55452 0.52011 0.62276 0.0
C358 C 0.51138 0.52891 0.67329 0.0
C359 C 0.61216 0.51819 0.63572 0.0
C360 C 0.61959 0.52187 0.66707 0.0
C361 C 0.57649 0.53044 0.71762 0.0
C362 C 0.52606 0.53519 0.73662 0.0
C363 C 0.5695 0.5271 0.68608 0.0
C364 C 0.46848 0.53657 0.72355 0.0
C365 C 0.46122 0.53363 0.69223 0.0
H366 H 0.57323 0.55262 0.38253 0.0
H367 H 0.45115 0.40977 0.38975 0.0
H368 H 0.44725 0.40121 0.33462 0.0
H369 H 0.47685 0.43573 0.28444 0.0
H370 H 0.60527 0.57382 0.27765 0.0
H371 H 0.60735 0.58332 0.33247 0.0
C372 C 0.54565 0.51969 0.37204 0.0
C373 C 0.51221 0.48217 0.39022 0.0
C374 C 0.54443 0.51434 0.34038 0.0
C375 C 0.47738 0.43918 0.37628 0.0
C376 C 0.47504 0.43433 0.34475 0.0
C377 C 0.50607 0.46736 0.29485 0.0
C378 C 0.54031 0.50437 0.27662 0.0
C379 C 0.50834 0.47174 0.32657 0.0
C380 C 0.57717 0.54559 0.29083 0.0
C381 C 0.57885 0.55082 0.32229 0.0
loop_
_geom_bond_atom_site_label_1
_geom_bond_atom_site_label_2
_geom_bond_distance
_geom_bond_site_symmetry_2
_ccdc_geom_bond_type
O0 Zn1 1.953 . S
O0 C16 1.225 1_565 S
Zn1 O0 1.953 . S
Zn1 O2 1.949 1_565 S
Zn1 O8 1.919 . S
Zn1 O13 1.924 1_565 S
O2 Zn1 1.949 1_545 S
O2 Zn3 1.923 1_444 S
O2 Zn4 1.950 1_455 S
O2 Zn5 1.945 1_554 S
Zn3 O2 1.923 1_666 S
Zn3 O6 1.933 . S
Zn3 O9 1.941 1_655 S
Zn3 O10 1.965 . S
Zn4 O2 1.950 1_655 S
Zn4 O11 1.938 1_545 S
Zn4 O12 1.906 . S
Zn4 O22 1.953 . S
Zn5 O2 1.945 1_556 S
Zn5 O7 1.932 . S
Zn5 O14 1.977 1_455 S
Zn5 O15 1.910 . S
O6 Zn3 1.933 . S
O6 C17 1.226 1_665 S
O7 Zn5 1.932 . S
O7 C17 1.307 . S
O8 Zn1 1.919 . S
O8 C19 1.253 1_554 S
O9 Zn3 1.941 1_455 S
O9 C19 1.283 . S
O10 Zn3 1.965 . S
O10 C18 1.303 1_556 S
O11 Zn4 1.938 1_565 S
O11 C18 1.247 . S
O12 Zn4 1.906 . S
O12 C20 1.304 1_554 S
O13 Zn1 1.924 1_545 S
O13 C21 1.311 . S
O14 Zn5 1.977 1_655 S
O14 C20 1.272 . S
O15 Zn5 1.910 . S
O15 C21 1.231 1_556 S
C16 O0 1.225 1_545 S
C16 O22 1.298 1_455 S
C17 O6 1.226 1_445 S
C17 O7 1.307 . S
C18 O10 1.303 1_554 S
C18 O11 1.247 . S
C19 O8 1.253 1_556 S
C19 O9 1.283 . S
C20 O12 1.304 1_556 S
C20 O14 1.272 . S
C21 O13 1.311 . S
C21 O15 1.231 1_554 S
O22 Zn4 1.953 . S
O22 C16 1.298 1_655 S
O23 Zn24 1.953 . S
O23 C39 1.225 . S
Zn24 O23 1.953 . S
Zn24 O25 1.949 . S
Zn24 O31 1.919 . S
Zn24 O36 1.924 . S
O25 Zn24 1.949 . S
O25 Zn26 1.923 . S
O25 Zn27 1.950 . S
O25 Zn28 1.945 . S
Zn26 O25 1.923 . S
Zn26 O29 1.933 . S
Zn26 O32 1.941 . S
Zn26 O33 1.965 . S
Zn27 O25 1.950 . S
Zn27 O34 1.938 . S
Zn27 O35 1.906 . S
Zn27 O45 1.953 . S
Zn28 O25 1.945 . S
Zn28 O30 1.932 . S
Zn28 O37 1.977 . S
Zn28 O38 1.910 . S
O29 Zn26 1.933 . S
O29 C40 1.226 . S
O30 Zn28 1.932 . S
O30 C40 1.307 . S
O31 Zn24 1.919 . S
O31 C42 1.253 . S
O32 Zn26 1.941 . S
O32 C42 1.283 . S
O33 Zn26 1.965 . S
O33 C41 1.303 . S
O34 Zn27 1.938 . S
O34 C41 1.247 . S
O35 Zn27 1.906 . S
O35 C43 1.304 . S
O36 Zn24 1.924 . S
O36 C44 1.311 . S
O37 Zn28 1.977 . S
O37 C43 1.272 . S
O38 Zn28 1.910 . S
O38 C44 1.231 . S
C39 O23 1.225 . S
C39 O45 1.298 . S
C40 O29 1.226 . S
C40 O30 1.307 . S
C41 O33 1.303 . S
C41 O34 1.247 . S
C42 O31 1.253 . S
C42 O32 1.283 . S
C43 O35 1.304 . S
C43 O37 1.272 . S
C44 O36 1.311 . S
C44 O38 1.231 . S
O45 Zn27 1.953 . S
O45 C39 1.298 . S
C46 C47 1.384 . S
C46 H59 0.947 . S
C46 C81 1.382 . S
C47 C46 1.384 . S
C47 C48 1.378 . S
C48 C47 1.378 . S
C48 C49 1.378 . S
C48 H60 0.952 . S
C49 C48 1.378 . S
C49 H61 0.950 . S
C49 C80 1.383 . S
H50 C69 0.947 . S
H51 C70 0.946 . S
H52 C72 0.953 . S
H53 C73 0.945 . S
H54 C75 0.952 . S
H55 C76 0.949 . S
H56 C78 0.950 . S
H57 C79 0.948 . S
H58 C81 0.951 . S
H59 C46 0.947 . S
H60 C48 0.952 . S
H61 C49 0.950 . S
N62 C65 1.382 1_545 S
N62 C67 1.363 1_455 S
N63 C65 1.371 . S
N63 C66 1.372 1_565 S
N64 C66 1.361 1_655 S
N64 C67 1.377 . S
C65 N62 1.382 1_565 S
C65 N63 1.371 . S
C65 C68 1.480 . S
C66 N63 1.372 1_545 S
C66 N64 1.361 1_455 S
C66 C74 1.457 . S
C67 N62 1.363 1_655 S
C67 N64 1.377 . S
C67 C80 1.479 . S
C68 C65 1.480 . S
C68 C69 1.383 . S
C68 C73 1.385 . S
C69 H50 0.947 . S
C69 C68 1.383 . S
C69 C70 1.388 . S
C70 H51 0.946 . S
C70 C69 1.388 . S
C70 C71 1.384 . S
C71 C70 1.384 . S
C71 C72 1.377 . S
C72 H52 0.953 . S
C72 C71 1.377 . S
C72 C73 1.369 . S
C73 H53 0.945 . S
C73 C68 1.385 . S
C73 C72 1.369 . S
C74 C66 1.457 . S
C74 C75 1.372 1_545 S
C74 C79 1.364 1_455 S
C75 H54 0.952 . S
C75 C74 1.372 1_565 S
C75 C76 1.389 . S
C76 H55 0.949 . S
C76 C75 1.389 . S
C76 C77 1.387 1_565 S
C77 C76 1.387 1_545 S
C77 C78 1.372 1_455 S
C78 H56 0.950 . S
C78 C77 1.372 1_655 S
C78 C79 1.379 . S
C79 H57 0.948 . S
C79 C74 1.364 1_655 S
C79 C78 1.379 . S
C80 C49 1.383 . S
C80 C67 1.479 . S
C80 C81 1.398 . S
C81 C46 1.382 . S
C81 H58 0.951 . S
C81 C80 1.398 . S
C82 C83 1.384 . S
C82 H95 0.947 . S
C82 C117 1.382 . S
C83 C82 1.384 . S
C83 C84 1.378 . S
C84 C83 1.378 . S
C84 C85 1.378 . S
C84 H96 0.952 . S
C85 C84 1.378 . S
C85 H97 0.950 . S
C85 C116 1.383 . S
H86 C105 0.947 . S
H87 C106 0.946 . S
H88 C108 0.953 . S
H89 C109 0.945 . S
H90 C111 0.952 . S
H91 C112 0.949 . S
H92 C114 0.950 . S
H93 C115 0.948 . S
H94 C117 0.951 . S
H95 C82 0.947 . S
H96 C84 0.952 . S
H97 C85 0.950 . S
N98 C101 1.382 1_565 S
N98 C103 1.363 1_455 S
N99 C101 1.371 . S
N99 C102 1.372 1_545 S
N100 C102 1.361 1_655 S
N100 C103 1.377 . S
C101 N98 1.382 1_545 S
C101 N99 1.371 . S
C101 C104 1.480 . S
C102 N99 1.372 1_565 S
C102 N100 1.361 1_455 S
C102 C110 1.457 . S
C103 N98 1.363 1_655 S
C103 N100 1.377 . S
C103 C116 1.479 . S
C104 C101 1.480 . S
C104 C105 1.383 . S
C104 C109 1.385 . S
C105 H86 0.947 . S
C105 C104 1.383 . S
C105 C106 1.388 . S
C106 H87 0.946 . S
C106 C105 1.388 . S
C106 C107 1.384 . S
C107 C106 1.384 . S
C107 C108 1.377 . S
C108 H88 0.953 . S
C108 C107 1.377 . S
C108 C109 1.369 . S
C109 H89 0.945 . S
C109 C104 1.385 . S
C109 C108 1.369 . S
C110 C102 1.457 . S
C110 C111 1.372 1_565 S
C110 C115 1.364 1_455 S
C111 H90 0.952 . S
C111 C110 1.372 1_545 S
C111 C112 1.389 . S
C112 H91 0.949 . S
C112 C111 1.389 . S
C112 C113 1.373 1_545 S
C113 C112 1.373 1_565 S
C113 C114 1.386 1_455 S
C114 H92 0.950 . S
C114 C113 1.386 1_655 S
C114 C115 1.379 . S
C115 H93 0.948 . S
C115 C110 1.364 1_655 S
C115 C114 1.379 . S
C116 C85 1.383 . S
C116 C103 1.479 . S
C116 C117 1.398 . S
C117 C82 1.382 . S
C117 H94 0.951 . S
C117 C116 1.398 . S
C118 C119 1.384 . S
C118 H131 0.947 . S
C118 C153 1.382 . S
C119 C118 1.384 . S
C119 C120 1.378 . S
C120 C119 1.378 . S
C120 C121 1.378 . S
C120 H132 0.952 . S
C121 C120 1.378 . S
C121 H133 0.950 . S
C121 C152 1.383 . S
H122 C141 0.947 . S
H123 C142 0.946 . S
H124 C144 0.953 . S
H125 C145 0.945 . S
H126 C147 0.952 . S
H127 C148 0.949 . S
H128 C150 0.950 . S
H129 C151 0.948 . S
H130 C153 0.951 . S
H131 C118 0.947 . S
H132 C120 0.952 . S
H133 C121 0.950 . S
N134 C137 1.382 . S
N134 C139 1.363 . S
N135 C137 1.371 . S
N135 C138 1.372 . S
N136 C138 1.361 . S
N136 C139 1.377 . S
C137 N134 1.382 . S
C137 N135 1.371 . S
C137 C140 1.480 . S
C138 N135 1.372 . S
C138 N136 1.361 . S
C138 C146 1.457 . S
C139 N134 1.363 . S
C139 N136 1.377 . S
C139 C152 1.479 . S
C140 C137 1.480 . S
C140 C141 1.383 . S
C140 C145 1.385 . S
C141 H122 0.947 . S
C141 C140 1.383 . S
C141 C142 1.388 . S
C142 H123 0.946 . S
C142 C141 1.388 . S
C142 C143 1.384 . S
C143 C142 1.384 . S
C143 C144 1.377 . S
C144 H124 0.953 . S
C144 C143 1.377 . S
C144 C145 1.369 . S
C145 H125 0.945 . S
C145 C140 1.385 . S
C145 C144 1.369 . S
C146 C138 1.457 . S
C146 C147 1.372 . S
C146 C151 1.364 . S
C147 H126 0.952 . S
C147 C146 1.372 . S
C147 C148 1.389 . S
C148 H127 0.949 . S
C148 C147 1.389 . S
C148 C149 1.387 . S
C149 C148 1.387 . S
C149 C150 1.372 . S
C150 H128 0.950 . S
C150 C149 1.372 . S
C150 C151 1.379 . S
C151 H129 0.948 . S
C151 C146 1.364 . S
C151 C150 1.379 . S
C152 C121 1.383 . S
C152 C139 1.479 . S
C152 C153 1.398 . S
C153 C118 1.382 . S
C153 H130 0.951 . S
C153 C152 1.398 . S
C154 C155 1.384 . S
C154 H167 0.947 . S
C154 C189 1.382 . S
C155 C154 1.384 . S
C155 C156 1.378 . S
C156 C155 1.378 . S
C156 C157 1.378 . S
C156 H168 0.952 . S
C157 C156 1.378 . S
C157 H169 0.950 . S
C157 C188 1.383 . S
H158 C177 0.947 . S
H159 C178 0.946 . S
H160 C180 0.953 . S
H161 C181 0.945 . S
H162 C183 0.952 . S
H163 C184 0.949 . S
H164 C186 0.950 . S
H165 C187 0.948 . S
H166 C189 0.951 . S
H167 C154 0.947 . S
H168 C156 0.952 . S
H169 C157 0.950 . S
N170 C173 1.382 . S
N170 C175 1.363 . S
N171 C173 1.371 . S
N171 C174 1.372 . S
N172 C174 1.361 . S
N172 C175 1.377 . S
C173 N170 1.382 . S
C173 N171 1.371 . S
C173 C176 1.480 . S
C174 N171 1.372 . S
C174 N172 1.361 . S
C174 C182 1.457 . S
C175 N170 1.363 . S
C175 N172 1.377 . S
C175 C188 1.479 . S
C176 C173 1.480 . S
C176 C177 1.383 . S
C176 C181 1.385 . S
C177 H158 0.947 . S
C177 C176 1.383 . S
C177 C178 1.388 . S
C178 H159 0.946 . S
C178 C177 1.388 . S
C178 C179 1.384 . S
C179 C178 1.384 . S
C179 C180 1.377 . S
C180 H160 0.953 . S
C180 C179 1.377 . S
C180 C181 1.369 . S
C181 H161 0.945 . S
C181 C176 1.385 . S
C181 C180 1.369 . S
C182 C174 1.457 . S
C182 C183 1.372 . S
C182 C187 1.364 . S
C183 H162 0.952 . S
C183 C182 1.372 . S
C183 C184 1.389 . S
C184 H163 0.949 . S
C184 C183 1.389 . S
C184 C185 1.387 . S
C185 C184 1.387 . S
C185 C186 1.372 . S
C186 H164 0.950 . S
C186 C185 1.372 . S
C186 C187 1.379 . S
C187 H165 0.948 . S
C187 C182 1.364 . S
C187 C186 1.379 . S
C188 C157 1.383 . S
C188 C175 1.479 . S
C188 C189 1.398 . S
C189 C154 1.382 . S
C189 H166 0.951 . S
C189 C188 1.398 . S
H190 C196 0.930 1_556 S
H191 C199 0.930 . S
H192 C200 0.930 . S
H193 C201 0.930 . S
H194 C204 0.949 . S
H195 C205 0.930 1_556 S
C196 H190 0.930 1_554 S
C196 C197 1.355 . S
C196 C198 1.415 . S
C197 C196 1.355 . S
C197 C199 1.419 . S
C198 C196 1.415 . S
C198 C203 1.425 . S
C198 C205 1.409 . S
C199 H191 0.930 . S
C199 C197 1.419 . S
C199 C200 1.362 . S
C200 H192 0.930 . S
C200 C199 1.362 . S
C200 C203 1.409 . S
C201 H193 0.930 . S
C201 C202 1.355 . S
C201 C203 1.415 . S
C202 C201 1.355 . S
C202 C204 1.419 . S
C203 C198 1.425 . S
C203 C200 1.409 . S
C203 C201 1.415 . S
C204 H194 0.949 . S
C204 C202 1.419 . S
C204 C205 1.362 . S
C205 H195 0.930 1_554 S
C205 C198 1.409 . S
C205 C204 1.362 . S
H206 C212 0.930 . S
H207 C215 0.930 1_554 S
H208 C216 0.921 1_554 S
H209 C217 0.930 . S
H210 C220 0.930 . S
H211 C221 0.930 . S
C212 H206 0.930 . S
C212 C213 1.355 . S
C212 C214 1.415 . S
C213 C212 1.355 . S
C213 C215 1.419 . S
C214 C212 1.415 . S
C214 C219 1.425 . S
C214 C221 1.409 . S
C215 H207 0.930 1_556 S
C215 C213 1.419 . S
C215 C216 1.362 . S
C216 H208 0.921 1_556 S
C216 C215 1.362 . S
C216 C219 1.409 . S
C217 H209 0.930 . S
C217 C218 1.355 . S
C217 C219 1.415 . S
C218 C217 1.355 . S
C218 C220 1.419 . S
C219 C214 1.425 . S
C219 C216 1.409 . S
C219 C217 1.415 . S
C220 H210 0.930 . S
C220 C218 1.419 . S
C220 C221 1.362 . S
C221 H211 0.930 . S
C221 C214 1.409 . S
C221 C220 1.362 . S
H222 C228 0.951 . S
H223 C231 0.930 . S
H224 C232 0.930 . S
H225 C233 0.930 . S
H226 C236 0.930 . S
H227 C237 0.928 . S
C228 H222 0.951 . S
C228 C229 1.355 . S
C228 C230 1.415 . S
C229 C228 1.355 . S
C229 C231 1.419 . S
C230 C228 1.415 . S
C230 C235 1.425 . S
C230 C237 1.409 . S
C231 H223 0.930 . S
C231 C229 1.419 . S
C231 C232 1.362 . S
C232 H224 0.930 . S
C232 C231 1.362 . S
C232 C235 1.409 . S
C233 H225 0.930 . S
C233 C234 1.355 . S
C233 C235 1.415 . S
C234 C233 1.355 . S
C234 C236 1.419 . S
C235 C230 1.425 . S
C235 C232 1.409 . S
C235 C233 1.415 . S
C236 H226 0.930 . S
C236 C234 1.419 . S
C236 C237 1.362 . S
C237 H227 0.928 . S
C237 C230 1.409 . S
C237 C236 1.362 . S
H238 C244 0.930 . S
H239 C247 0.930 . S
H240 C248 0.930 . S
H241 C249 0.930 . S
H242 C252 0.930 . S
H243 C253 0.930 . S
C244 H238 0.930 . S
C244 C245 1.355 . S
C244 C246 1.415 . S
C245 C244 1.355 . S
C245 C247 1.419 1_556 S
C246 C244 1.415 . S
C246 C251 1.425 . S
C246 C253 1.409 . S
C247 H239 0.930 . S
C247 C245 1.419 1_554 S
C247 C248 1.362 . S
C248 H240 0.930 . S
C248 C247 1.362 . S
C248 C251 1.409 1_554 S
C249 H241 0.930 . S
C249 C250 1.355 . S
C249 C251 1.415 . S
C250 C249 1.355 . S
C250 C252 1.419 . S
C251 C246 1.425 . S
C251 C248 1.409 1_556 S
C251 C249 1.415 . S
C252 H242 0.930 . S
C252 C250 1.419 . S
C252 C253 1.362 . S
C253 H243 0.930 . S
C253 C246 1.409 . S
C253 C252 1.362 . S
H254 C260 0.930 . S
H255 C263 0.930 . S
H256 C264 0.930 . S
H257 C265 0.930 . S
H258 C268 0.930 . S
H259 C269 0.930 . S
C260 H254 0.930 . S
C260 C261 1.355 . S
C260 C262 1.415 . S
C261 C260 1.355 . S
C261 C263 1.419 . S
C262 C260 1.415 . S
C262 C267 1.425 . S
C262 C269 1.409 . S
C263 H255 0.930 . S
C263 C261 1.419 . S
C263 C264 1.362 . S
C264 H256 0.930 . S
C264 C263 1.362 . S
C264 C267 1.409 . S
C265 H257 0.930 . S
C265 C266 1.355 . S
C265 C267 1.415 . S
C266 C265 1.355 . S
C266 C268 1.419 . S
C267 C262 1.425 . S
C267 C264 1.409 . S
C267 C265 1.415 . S
C268 H258 0.930 . S
C268 C266 1.419 . S
C268 C269 1.362 . S
C269 H259 0.930 . S
C269 C262 1.409 . S
C269 C268 1.362 . S
H270 C276 0.930 . S
H271 C279 0.930 . S
H272 C280 0.930 . S
H273 C281 0.930 . S
H274 C284 0.930 . S
H275 C285 0.930 . S
C276 H270 0.930 . S
C276 C277 1.355 . S
C276 C278 1.415 . S
C277 C276 1.355 . S
C277 C279 1.419 . S
C278 C276 1.415 . S
C278 C283 1.425 . S
C278 C285 1.409 . S
C279 H271 0.930 . S
C279 C277 1.419 . S
C279 C280 1.362 . S
C280 H272 0.930 . S
C280 C279 1.362 . S
C280 C283 1.409 . S
C281 H273 0.930 . S
C281 C282 1.355 . S
C281 C283 1.415 . S
C282 C281 1.355 . S
C282 C284 1.419 . S
C283 C278 1.425 . S
C283 C280 1.409 . S
C283 C281 1.415 . S
C284 H274 0.930 . S
C284 C282 1.419 . S
C284 C285 1.362 . S
C285 H275 0.930 . S
C285 C278 1.409 . S
C285 C284 1.362 . S
H286 C292 0.930 . S
H287 C295 0.930 . S
H288 C296 0.930 . S
H289 C297 0.930 . S
H290 C300 0.930 . S
H291 C301 0.930 . S
C292 H286 0.930 . S
C292 C293 1.355 . S
C292 C294 1.415 . S
C293 C292 1.355 . S
C293 C295 1.419 . S
C294 C292 1.415 . S
C294 C299 1.425 . S
C294 C301 1.409 . S
C295 H287 0.930 . S
C295 C293 1.419 . S
C295 C296 1.362 . S
C296 H288 0.930 . S
C296 C295 1.362 . S
C296 C299 1.409 . S
C297 H289 0.930 . S
C297 C298 1.355 . S
C297 C299 1.415 . S
C298 C297 1.355 . S
C298 C300 1.419 . S
C299 C294 1.425 . S
C299 C296 1.409 . S
C299 C297 1.415 . S
C300 H290 0.930 . S
C300 C298 1.419 . S
C300 C301 1.362 . S
C301 H291 0.930 . S
C301 C294 1.409 . S
C301 C300 1.362 . S
H302 C308 0.930 . S
H303 C311 0.930 . S
H304 C312 0.930 . S
H305 C313 0.930 . S
H306 C316 0.930 . S
H307 C317 0.930 . S
C308 H302 0.930 . S
C308 C309 1.355 . S
C308 C310 1.415 . S
C309 C308 1.355 . S
C309 C311 1.419 . S
C310 C308 1.415 . S
C310 C315 1.425 . S
C310 C317 1.409 . S
C311 H303 0.930 . S
C311 C309 1.419 . S
C311 C312 1.362 . S
C312 H304 0.930 . S
C312 C311 1.362 . S
C312 C315 1.409 . S
C313 H305 0.930 . S
C313 C314 1.355 . S
C313 C315 1.415 . S
C314 C313 1.355 . S
C314 C316 1.419 . S
C315 C310 1.425 . S
C315 C312 1.409 . S
C315 C313 1.415 . S
C316 H306 0.930 . S
C316 C314 1.419 . S
C316 C317 1.362 . S
C317 H307 0.930 . S
C317 C310 1.409 . S
C317 C316 1.362 . S
H318 C324 0.930 . S
H319 C327 0.930 . S
H320 C328 0.930 . S
H321 C329 0.930 . S
H322 C332 0.930 . S
H323 C333 0.930 . S
C324 H318 0.930 . S
C324 C325 1.355 1_655 S
C324 C326 1.415 . S
C325 C324 1.355 1_455 S
C325 C327 1.419 1_545 S
C326 C324 1.415 . S
C326 C331 1.425 1_645 S
C326 C333 1.409 . S
C327 H319 0.930 . S
C327 C325 1.419 1_565 S
C327 C328 1.362 . S
C328 H320 0.930 . S
C328 C327 1.362 . S
C328 C331 1.409 . S
C329 H321 0.930 . S
C329 C330 1.355 1_465 S
C329 C331 1.415 . S
C330 C329 1.355 1_645 S
C330 C332 1.419 . S
C331 C326 1.425 1_465 S
C331 C328 1.409 . S
C331 C329 1.415 . S
C332 H322 0.930 . S
C332 C330 1.419 . S
C332 C333 1.362 . S
C333 H323 0.930 . S
C333 C326 1.409 . S
C333 C332 1.362 . S
H334 C340 0.930 . S
H335 C343 0.930 . S
H336 C344 0.930 . S
H337 C345 0.930 . S
H338 C348 0.930 . S
H339 C349 0.930 . S
C340 H334 0.930 . S
C340 C341 1.355 1_665 S
C340 C342 1.415 . S
C341 C340 1.355 1_445 S
C341 C343 1.419 . S
C342 C340 1.415 . S
C342 C347 1.425 1_665 S
C342 C349 1.409 . S
C343 H335 0.930 . S
C343 C341 1.419 . S
C343 C344 1.362 . S
C344 H336 0.930 . S
C344 C343 1.362 . S
C344 C347 1.409 . S
C345 H337 0.930 . S
C345 C346 1.359 . S
C345 C347 1.415 . S
C346 C345 1.359 . S
C346 C348 1.413 1_445 S
C347 C342 1.425 1_445 S
C347 C344 1.409 . S
C347 C345 1.415 . S
C348 H338 0.930 . S
C348 C346 1.413 1_665 S
C348 C349 1.362 . S
C349 H339 0.930 . S
C349 C342 1.409 . S
C349 C348 1.362 . S
H350 C356 0.930 . S
H351 C359 0.930 . S
H352 C360 0.930 . S
H353 C361 0.930 . S
H354 C364 0.930 . S
H355 C365 0.930 . S
C356 H350 0.930 . S
C356 C357 1.355 . S
C356 C358 1.415 . S
C357 C356 1.355 . S
C357 C359 1.419 . S
C358 C356 1.415 . S
C358 C363 1.425 . S
C358 C365 1.409 . S
C359 H351 0.930 . S
C359 C357 1.419 . S
C359 C360 1.362 . S
C360 H352 0.930 . S
C360 C359 1.362 . S
C360 C363 1.409 . S
C361 H353 0.930 . S
C361 C362 1.355 . S
C361 C363 1.415 . S
C362 C361 1.355 . S
C362 C364 1.419 . S
C363 C358 1.425 . S
C363 C360 1.409 . S
C363 C361 1.415 . S
C364 H354 0.930 . S
C364 C362 1.419 . S
C364 C365 1.362 . S
C365 H355 0.930 . S
C365 C358 1.409 . S
C365 C364 1.362 . S
H366 C372 0.930 . S
H367 C375 0.930 . S
H368 C376 0.930 . S
H369 C377 0.930 . S
H370 C380 0.930 . S
H371 C381 0.930 . S
C372 H366 0.930 . S
C372 C373 1.355 . S
C372 C374 1.415 . S
C373 C372 1.355 . S
C373 C375 1.419 . S
C374 C372 1.415 . S
C374 C379 1.425 . S
C374 C381 1.409 . S
C375 H367 0.930 . S
C375 C373 1.419 . S
C375 C376 1.362 . S
C376 H368 0.930 . S
C376 C375 1.362 . S
C376 C379 1.409 . S
C377 H369 0.930 . S
C377 C378 1.355 . S
C377 C379 1.415 . S
C378 C377 1.355 . S
C378 C380 1.419 . S
C379 C374 1.425 . S
C379 C376 1.409 . S
C379 C377 1.415 . S
C380 H370 0.930 . S
C380 C378 1.419 . S
C380 C381 1.362 . S
C381 H371 0.930 . S
C381 C374 1.409 . S
C381 C380 1.362 . S
C202 C155 1.481 . S
C197 C21 1.476 . S
C213 C19 1.438 . S
C218 C119 1.445 . S
C229 C18 1.415 . S
C234 C179 1.420 . S
C245 C20 1.443 . S
C250 C143 1.396 . S
C261 C44 1.441 . S
C266 C83 1.450 . S
C277 C42 1.457 . S
C282 C47 1.458 . S
C298 C107 1.441 . S
C293 C41 1.435 . S
C314 C71 1.398 . S
C309 C43 1.437 . S
C325 C16 1.486 . S
C330 C77 1.485 1_655 S
C341 C17 1.460 . S
C346 C113 1.451 1_545 S
C362 C149 1.486 . S
C357 C39 1.486 . S
C373 C40 1.449 . S
C378 C185 1.451 . S
