# Generated by pormake.
# Topology hwx, (6,3)-cn, num edge types: 1
# Building blocks:
#     Node 0, Type 0, BuildingBlock: OJICUG_clean_sbu_0, # of connection points: 6
#     Node 1, Type 0, BuildingBlock: OJICUG_clean_sbu_0, # of connection points: 6
#     Node 2, Type 0, BuildingBlock: OJICUG_clean_sbu_0, # of connection points: 6
#     Node 3, Type 0, BuildingBlock: OJICUG_clean_sbu_0, # of connection points: 6
#     Node 4, Type 1, BuildingBlock: VETTIZ_charged_linker_0, # of connection points: 3
#     Node 5, Type 1, BuildingBlock: VETTIZ_charged_linker_0, # of connection points: 3
#     Node 6, Type 1, BuildingBlock: VETTIZ_charged_linker_0, # of connection points: 3
#     Node 7, Type 1, BuildingBlock: VETTIZ_charged_linker_0, # of connection points: 3
#     Node 8, Type 1, BuildingBlock: VETTIZ_charged_linker_0, # of connection points: 3
#     Node 9, Type 1, BuildingBlock: VETTIZ_charged_linker_0, # of connection points: 3
#     Node 10, Type 1, BuildingBlock: VETTIZ_charged_linker_0, # of connection points: 3
#     Node 11, Type 1, BuildingBlock: VETTIZ_charged_linker_0, # of connection points: 3
#     Edge 12, Type (0, 1), BuildingBlock: CIFDUS_clean_linker_0, # of connection points: 2
#     Edge 13, Type (0, 1), BuildingBlock: CIFDUS_clean_linker_0, # of connection points: 2
#     Edge 14, Type (0, 1), BuildingBlock: CIFDUS_clean_linker_0, # of connection points: 2
#     Edge 15, Type (0, 1), BuildingBlock: CIFDUS_clean_linker_0, # of connection points: 2
#     Edge 16, Type (0, 1), BuildingBlock: CIFDUS_clean_linker_0, # of connection points: 2
#     Edge 17, Type (0, 1), BuildingBlock: CIFDUS_clean_linker_0, # of connection points: 2
#     Edge 18, Type (0, 1), BuildingBlock: CIFDUS_clean_linker_0, # of connection points: 2
#     Edge 19, Type (0, 1), BuildingBlock: CIFDUS_clean_linker_0, # of connection points: 2
#     Edge 20, Type (0, 1), BuildingBlock: CIFDUS_clean_linker_0, # of connection points: 2
#     Edge 21, Type (0, 1), BuildingBlock: CIFDUS_clean_linker_0, # of connection points: 2
#     Edge 22, Type (0, 1), BuildingBlock: CIFDUS_clean_linker_0, # of connection points: 2
#     Edge 23, Type (0, 1), BuildingBlock: CIFDUS_clean_linker_0, # of connection points: 2
#     Edge 24, Type (0, 1), BuildingBlock: CIFDUS_clean_linker_0, # of connection points: 2
#     Edge 25, Type (0, 1), BuildingBlock: CIFDUS_clean_linker_0, # of connection points: 2
#     Edge 26, Type (0, 1), BuildingBlock: CIFDUS_clean_linker_0, # of connection points: 2
#     Edge 27, Type (0, 1), BuildingBlock: CIFDUS_clean_linker_0, # of connection points: 2
#     Edge 28, Type (0, 1), BuildingBlock: CIFDUS_clean_linker_0, # of connection points: 2
#     Edge 29, Type (0, 1), BuildingBlock: CIFDUS_clean_linker_0, # of connection points: 2
#     Edge 30, Type (0, 1), BuildingBlock: CIFDUS_clean_linker_0, # of connection points: 2
#     Edge 31, Type (0, 1), BuildingBlock: CIFDUS_clean_linker_0, # of connection points: 2
#     Edge 32, Type (0, 1), BuildingBlock: CIFDUS_clean_linker_0, # of connection points: 2
#     Edge 33, Type (0, 1), BuildingBlock: CIFDUS_clean_linker_0, # of connection points: 2
#     Edge 34, Type (0, 1), BuildingBlock: CIFDUS_clean_linker_0, # of connection points: 2
#     Edge 35, Type (0, 1), BuildingBlock: CIFDUS_clean_linker_0, # of connection points: 2
# Relax obj value: 0.080
# Max RMSD: 0.104
# Mean RMSD: 0.097
data_MOF--net-hwx--node1-OJICUG_clean_sbu_0--node2-VETTIZ_charged_linker_0--edge1-CIFDUS_clean_linker_0
_symmetry_space_group_name_H-M    P1
_symmetry_Int_Tables_number       1
_symmetry_cell_setting            triclinic
loop_
_symmetry_equiv_pos_as_xyz
'x, y, z'
_cell_length_a     54.526862
_cell_length_b     54.598133
_cell_length_c     24.893287
_cell_angle_alpha  90.005769
_cell_angle_beta   90.030036
_cell_angle_gamma 89.972964
loop_
_atom_site_label
_atom_site_type_symbol
_atom_site_fract_x
_atom_site_fract_y
_atom_site_fract_z
_atom_type_partial_charge
Sc0 Sc 0.23908 0.2317 0.06547 0.0
Sc1 Sc 0.19279 0.19327 0.01355 0.0
Sc2 Sc 0.22925 0.2295 0.92643 0.0
O3 O 0.22026 0.21822 0.00181 0.0
C4 C 0.23245 0.27933 0.9928 0.0
C5 C 0.1846 0.22922 0.11267 0.0
C6 C 0.17063 0.22682 0.92084 0.0
C7 C 0.23395 0.17542 0.09631 0.0
C8 C 0.28211 0.22593 0.97973 0.0
C9 C 0.22041 0.17204 0.91044 0.0
O10 O 0.23592 0.26886 0.0378 0.0
O11 O 0.17646 0.21391 0.07855 0.0
O12 O 0.19145 0.23421 0.90475 0.0
O13 O 0.24453 0.19608 0.0984 0.0
O14 O 0.26837 0.22668 0.9386 0.0
O15 O 0.20604 0.16974 0.95033 0.0
O16 O 0.27397 0.22744 0.0273 0.0
O17 O 0.21461 0.17162 0.06885 0.0
O18 O 0.23011 0.19236 0.89717 0.0
O19 O 0.20658 0.2369 0.11277 0.0
O20 O 0.22952 0.26762 0.94907 0.0
O21 O 0.16799 0.21184 0.95952 0.0
Sc22 Sc 0.27088 0.72494 0.40597 0.0
Sc23 Sc 0.30541 0.68253 0.48193 0.0
Sc24 Sc 0.27028 0.72843 0.54619 0.0
O25 O 0.28222 0.71194 0.47807 0.0
C26 C 0.27738 0.77475 0.46899 0.0
C27 C 0.32722 0.71256 0.38339 0.0
C28 C 0.32679 0.71933 0.57063 0.0
C29 C 0.26815 0.66702 0.38926 0.0
C30 C 0.2219 0.72806 0.47578 0.0
C31 C 0.27049 0.67199 0.58099 0.0
O32 O 0.27799 0.76244 0.42579 0.0
O33 O 0.32955 0.69707 0.42113 0.0
O34 O 0.30706 0.73158 0.57538 0.0
O35 O 0.26175 0.68888 0.37888 0.0
O36 O 0.2324 0.72658 0.52134 0.0
O37 O 0.28407 0.66449 0.54301 0.0
O38 O 0.23353 0.72863 0.43159 0.0
O39 O 0.28449 0.66169 0.42385 0.0
O40 O 0.26506 0.69438 0.58783 0.0
O41 O 0.30713 0.72334 0.37299 0.0
O42 O 0.27402 0.76504 0.51475 0.0
O43 O 0.32863 0.70038 0.54096 0.0
Sc44 Sc 0.77392 0.76683 0.92143 0.0
Sc45 Sc 0.80562 0.80722 0.00827 0.0
Sc46 Sc 0.76166 0.76568 0.05916 0.0
O47 O 0.78045 0.77995 0.99632 0.0
C48 C 0.71989 0.76778 0.97053 0.0
C49 C 0.7774 0.82454 0.90256 0.0
C50 C 0.76317 0.82243 0.08971 0.0
C51 C 0.83202 0.77468 0.91969 0.0
C52 C 0.77301 0.71786 0.98922 0.0
C53 C 0.8158 0.77093 0.10665 0.0
O54 O 0.73466 0.76619 0.93124 0.0
O55 O 0.7912 0.82902 0.94266 0.0
O56 O 0.7544 0.80097 0.0933 0.0
O57 O 0.81218 0.76537 0.90256 0.0
O58 O 0.76653 0.72849 0.03237 0.0
O59 O 0.82245 0.78806 0.07511 0.0
O60 O 0.77712 0.72933 0.94582 0.0
O61 O 0.83275 0.79035 0.95734 0.0
O62 O 0.79455 0.7614 0.10518 0.0
O63 O 0.77001 0.80316 0.89055 0.0
O64 O 0.72695 0.76863 0.0191 0.0
O65 O 0.78166 0.82753 0.06078 0.0
Sc66 Sc 0.73349 0.26684 0.57481 0.0
Sc67 Sc 0.69668 0.30535 0.49385 0.0
Sc68 Sc 0.7292 0.25578 0.43674 0.0
O69 O 0.71981 0.27609 0.50175 0.0
C70 C 0.78008 0.25916 0.5004 0.0
C71 C 0.73417 0.32531 0.58152 0.0
C72 C 0.73146 0.31045 0.39136 0.0
C73 C 0.67711 0.27851 0.59929 0.0
C74 C 0.72314 0.21418 0.52435 0.0
C75 C 0.67284 0.26693 0.41266 0.0
O76 O 0.77063 0.26506 0.54532 0.0
O77 O 0.71841 0.32889 0.54478 0.0
O78 O 0.7374 0.28792 0.39048 0.0
O79 O 0.69728 0.26764 0.60928 0.0
O80 O 0.72171 0.2217 0.47622 0.0
O81 O 0.6716 0.28596 0.44189 0.0
O82 O 0.72842 0.22814 0.56342 0.0
O83 O 0.67435 0.29346 0.56051 0.0
O84 O 0.69236 0.25453 0.40721 0.0
O85 O 0.74072 0.30408 0.59641 0.0
O86 O 0.76733 0.25437 0.45895 0.0
O87 O 0.71684 0.31948 0.426 0.0
C88 C 0.2255 0.56916 0.82835 0.0
C89 C 0.2218 0.59474 0.83178 0.0
C90 C 0.21035 0.60428 0.8782 0.0
C91 C 0.21231 0.5647 0.92071 0.0
C92 C 0.22006 0.55445 0.87304 0.0
C93 C 0.22175 0.52691 0.87699 0.0
H94 H 0.21811 0.42608 0.03562 0.0
C95 C 0.21175 0.54548 0.96186 0.0
C96 C 0.21628 0.52305 0.93641 0.0
H97 H 0.22383 0.42887 0.86224 0.0
H98 H 0.22219 0.47309 0.86523 0.0
H99 H 0.25691 0.46578 0.0546 0.0
H100 H 0.17831 0.47 0.05389 0.0
H101 H 0.18996 0.48516 0.11142 0.0
H102 H 0.1964 0.45318 0.10173 0.0
H103 H 0.23953 0.46058 0.11452 0.0
H104 H 0.24984 0.49085 0.09592 0.0
C105 C 0.24814 0.5189 0.86254 0.0
C106 C 0.20171 0.51556 0.8404 0.0
C107 C 0.21885 0.57109 0.1562 0.0
C108 C 0.22456 0.55825 0.20346 0.0
C109 C 0.22497 0.53245 0.20226 0.0
C110 C 0.22043 0.51976 0.15413 0.0
C111 C 0.21598 0.53305 0.10664 0.0
C112 C 0.21497 0.5583 0.10848 0.0
C113 C 0.21147 0.56969 0.05408 0.0
C114 C 0.21146 0.54702 0.01871 0.0
C115 C 0.21396 0.52569 0.04967 0.0
C116 C 0.2338 0.58649 0.04289 0.0
C117 C 0.18644 0.58324 0.05313 0.0
C118 C 0.2192 0.43608 -0.00184 0.0
C119 C 0.22096 0.42379 0.9486 0.0
C120 C 0.222 0.43776 0.90092 0.0
C121 C 0.22113 0.46343 0.90266 0.0
C122 C 0.21939 0.47529 0.95257 0.0
C123 C 0.21864 0.46164 -0.00076 0.0
C124 C 0.21789 0.47736 0.0488 0.0
C125 C 0.21633 0.50264 0.02393 0.0
C126 C 0.2175 0.50134 0.96761 0.0
C127 C 0.24214 0.47346 0.08046 0.0
C128 C 0.19447 0.47111 0.08108 0.0
H129 H 0.19775 0.59782 0.95737 0.0
H130 H 0.2333 0.56083 0.79284 0.0
H131 H 0.18668 0.5288 0.83183 0.0
H132 H 0.19246 0.49977 0.85957 0.0
H133 H 0.20943 0.5097 0.80116 0.0
H134 H 0.26176 0.53031 0.88446 0.0
H135 H 0.25159 0.52103 0.81881 0.0
H136 H 0.252 0.49972 0.87363 0.0
H137 H 0.21879 0.59093 0.15555 0.0
H138 H 0.22918 0.52215 0.23829 0.0
H139 H 0.2211 0.50013 0.15541 0.0
H140 H 0.25124 0.57633 0.04943 0.0
H141 H 0.23372 0.60263 0.07005 0.0
H142 H 0.23442 0.59359 0.0016 0.0
H143 H 0.17457 0.57806 0.08766 0.0
H144 H 0.17555 0.57856 0.0169 0.0
H145 H 0.18893 0.60342 0.05483 0.0
H146 H 0.20555 0.62348 0.88098 0.0
C147 C 0.20568 0.58942 0.92259 0.0
C148 C 0.06151 0.72111 0.53966 0.0
C149 C 0.07607 0.72035 0.4931 0.0
C150 C 0.06447 0.72121 0.44239 0.0
C151 C 0.02475 0.72435 0.48517 0.0
C152 C 0.03604 0.72283 0.53476 0.0
C153 C 0.018 0.72317 0.58031 0.0
H154 H 0.90003 0.72583 0.66267 0.0
C155 C 0.99808 0.72613 0.49412 0.0
C156 C 0.99402 0.72505 0.54983 0.0
H157 H 0.96496 0.72527 0.76193 0.0
H158 H 0.99062 0.72454 0.68219 0.0
H159 H 0.91785 0.76565 0.58998 0.0
H160 H 0.91876 0.68772 0.56953 0.0
H161 H 0.90948 0.70047 0.50788 0.0
H162 H 0.89145 0.70606 0.56734 0.0
H163 H 0.89167 0.74949 0.56477 0.0
H164 H 0.91509 0.76132 0.52055 0.0
C165 C 0.02296 0.74623 0.61499 0.0
C166 C 0.02027 0.69861 0.61109 0.0
C167 C 0.93965 0.74063 0.33727 0.0
C168 C 0.91395 0.74289 0.33484 0.0
C169 C 0.90011 0.74013 0.38224 0.0
C170 C 0.91152 0.73535 0.43127 0.0
C171 C 0.93713 0.73342 0.43341 0.0
C172 C 0.95083 0.73576 0.38699 0.0
C173 C 0.97787 0.73248 0.39757 0.0
C174 C 0.978 0.72889 0.45823 0.0
C175 C 0.95407 0.72949 0.47865 0.0
C176 C 0.99119 0.7563 0.38085 0.0
C177 C 0.98672 0.70927 0.36733 0.0
C178 C 0.91979 0.72497 0.6671 0.0
C179 C 0.93065 0.725 0.71812 0.0
C180 C 0.95637 0.72493 0.72269 0.0
C181 C 0.97112 0.72456 0.67645 0.0
C182 C 0.95991 0.72471 0.62543 0.0
C183 C 0.93465 0.72514 0.62161 0.0
C184 C 0.92578 0.72743 0.5648 0.0
C185 C 0.9499 0.72765 0.53469 0.0
C186 C 0.96978 0.72577 0.5702 0.0
C187 C 0.91172 0.75209 0.55941 0.0
C188 C 0.91039 0.70437 0.55137 0.0
H189 H 0.03122 0.72403 0.3986 0.0
H190 H 0.0697 0.72074 0.57929 0.0
H191 H 0.0227 0.6831 0.58259 0.0
H192 H 0.00374 0.69401 0.63453 0.0
H193 H 0.03635 0.6988 0.63848 0.0
H194 H 0.02999 0.76159 0.58996 0.0
H195 H 0.03684 0.74244 0.64659 0.0
H196 H 0.00618 0.75356 0.63399 0.0
H197 H 0.95071 0.74242 0.30136 0.0
H198 H 0.88034 0.74212 0.38159 0.0
H199 H 0.89987 0.73357 0.4657 0.0
H200 H 0.98116 0.77261 0.39622 0.0
H201 H 0.99222 0.75785 0.33641 0.0
H202 H 0.00992 0.75768 0.39726 0.0
H203 H 0.97152 0.69595 0.36149 0.0
H204 H 0.0008 0.69898 0.39003 0.0
H205 H 0.99404 0.71396 0.32698 0.0
H206 H 0.07511 0.72011 0.40576 0.0
C207 C 0.03893 0.7233 0.43821 0.0
C208 C 0.76416 0.43212 0.16039 0.0
C209 C 0.76088 0.40658 0.15998 0.0
C210 C 0.7612 0.39404 0.11045 0.0
C211 C 0.7662 0.43237 0.06303 0.0
C212 C 0.76671 0.44459 0.11161 0.0
C213 C 0.76906 0.47184 0.10465 0.0
H214 H 0.76624 0.57007 0.94058 0.0
C215 C 0.76731 0.4508 0.0198 0.0
C216 C 0.76903 0.47394 0.04381 0.0
H217 H 0.77688 0.56845 0.11291 0.0
H218 H 0.77628 0.52441 0.11158 0.0
H219 H 0.80569 0.52553 0.91676 0.0
H220 H 0.72696 0.52751 0.93313 0.0
H221 H 0.73411 0.50791 0.87937 0.0
H222 H 0.74236 0.53984 0.87542 0.0
H223 H 0.78613 0.53955 0.86751 0.0
H224 H 0.79284 0.50722 0.86588 0.0
C225 C 0.79383 0.48006 0.12944 0.0
C226 C 0.74616 0.48403 0.1301 0.0
C227 C 0.75982 0.42336 0.82643 0.0
C228 C 0.75762 0.43588 0.77743 0.0
C229 C 0.75797 0.46167 0.77725 0.0
C230 C 0.76081 0.47477 0.82549 0.0
C231 C 0.76297 0.46187 0.87429 0.0
C232 C 0.76235 0.43658 0.87399 0.0
C233 C 0.76352 0.42575 0.92932 0.0
C234 C 0.76556 0.44869 0.96317 0.0
C235 C 0.76531 0.46979 0.93091 0.0
C236 C 0.78697 0.4098 0.93315 0.0
C237 C 0.73921 0.41171 0.93975 0.0
C238 C 0.76873 0.56026 0.97798 0.0
C239 C 0.77129 0.57283 0.02704 0.0
C240 C 0.7743 0.55926 0.07476 0.0
C241 C 0.7741 0.53366 0.07389 0.0
C242 C 0.77085 0.52141 0.02483 0.0
C243 C 0.76875 0.53465 0.97779 0.0
C244 C 0.76633 0.51839 0.92925 0.0
C245 C 0.76707 0.49325 0.95515 0.0
C246 C 0.76936 0.49522 0.01118 0.0
C247 C 0.78876 0.52288 0.89245 0.0
C248 C 0.74125 0.52366 0.90236 0.0
H249 H 0.7636 0.3962 0.02579 0.0
H250 H 0.76434 0.44223 0.19782 0.0
H251 H 0.7293 0.47353 0.11992 0.0
H252 H 0.74275 0.50276 0.11537 0.0
H253 H 0.74773 0.48461 0.17458 0.0
H254 H 0.80751 0.46493 0.12928 0.0
H255 H 0.79151 0.48609 0.17175 0.0
H256 H 0.80266 0.49491 0.10616 0.0
H257 H 0.7589 0.40354 0.82798 0.0
H258 H 0.75614 0.47164 0.73984 0.0
H259 H 0.76098 0.49439 0.82302 0.0
H260 H 0.80249 0.41866 0.91163 0.0
H261 H 0.784 0.39151 0.91474 0.0
H262 H 0.79349 0.40735 0.97481 0.0
H263 H 0.72378 0.41957 0.91605 0.0
H264 H 0.73298 0.41301 0.9819 0.0
H265 H 0.7409 0.3921 0.92845 0.0
H266 H 0.75844 0.37441 0.10888 0.0
C267 C 0.76394 0.40677 0.06209 0.0
C268 C 0.06195 0.27098 0.3361 0.0
C269 C 0.08742 0.27511 0.33105 0.0
C270 C 0.09991 0.28649 0.3741 0.0
C271 C 0.06359 0.28425 0.42907 0.0
C272 C 0.05035 0.27613 0.38528 0.0
C273 C 0.02338 0.27395 0.39821 0.0
H274 H 0.93421 0.27334 0.5882 0.0
C275 C 0.04725 0.28491 0.47599 0.0
C276 C 0.02344 0.2796 0.4582 0.0
H277 H 0.92521 0.2717 0.41546 0.0
H278 H 0.9692 0.27319 0.4041 0.0
H279 H 0.97934 0.23762 0.59337 0.0
H280 H 0.97492 0.31625 0.58962 0.0
H281 H 0.99619 0.30775 0.63964 0.0
H282 H 0.96479 0.29792 0.64527 0.0
H283 H 0.973 0.25509 0.65275 0.0
H284 H 0.00401 0.24823 0.63212 0.0
C285 C 0.015 0.24741 0.38683 0.0
C286 C 0.00922 0.29358 0.36546 0.0
C287 C 0.08523 0.28653 0.66176 0.0
C288 C 0.0757 0.28235 0.71335 0.0
C289 C 0.05014 0.27994 0.71982 0.0
C290 C 0.03441 0.28112 0.67524 0.0
C291 C 0.04438 0.28439 0.6236 0.0
C292 C 0.0694 0.2872 0.61766 0.0
C293 C 0.07704 0.28913 0.55982 0.0
C294 C 0.05242 0.28657 0.53176 0.0
C295 C 0.03342 0.28393 0.56928 0.0
C296 C 0.09439 0.26734 0.54754 0.0
C297 C 0.08873 0.31469 0.55052 0.0
C298 C 0.94159 0.2736 0.54783 0.0
C299 C 0.92606 0.27252 0.50277 0.0
C300 C 0.93666 0.27227 0.45099 0.0
C301 C 0.96218 0.27343 0.44434 0.0
C302 C 0.97731 0.27503 0.48983 0.0
C303 C 0.96695 0.27513 0.54047 0.0
C304 C 0.98579 0.27747 0.58422 0.0
C305 C 0.00904 0.28007 0.55135 0.0
C306 C 0.00404 0.27814 0.49612 0.0
C307 C 0.98556 0.25353 0.6178 0.0
C308 C 0.9802 0.30097 0.61687 0.0
H309 H 0.09889 0.29884 0.45457 0.0
H310 H 0.05143 0.26318 0.30345 0.0
H311 H 0.0215 0.30848 0.35115 0.0
H312 H 0.99512 0.30302 0.38993 0.0
H313 H 0.00033 0.28545 0.32947 0.0
H314 H 0.02778 0.2341 0.40588 0.0
H315 H 0.01468 0.24369 0.34296 0.0
H316 H 0.99659 0.24346 0.40306 0.0
H317 H 0.10482 0.28803 0.6554 0.0
H318 H 0.04239 0.27681 0.75928 0.0
H319 H 0.01515 0.27895 0.6826 0.0
H320 H 0.08626 0.24988 0.56216 0.0
H321 H 0.11238 0.26981 0.5678 0.0
H322 H 0.09799 0.26468 0.50448 0.0
H323 H 0.08363 0.32794 0.58261 0.0
H324 H 0.08223 0.32328 0.51274 0.0
H325 H 0.10907 0.31358 0.54975 0.0
H326 H 0.11905 0.29152 0.37064 0.0
C327 C 0.08819 0.29091 0.42294 0.0
C328 C 0.72072 0.93191 0.66934 0.0
C329 C 0.7234 0.90631 0.66989 0.0
C330 C 0.72339 0.89329 0.62112 0.0
C331 C 0.71912 0.93113 0.57185 0.0
C332 C 0.71827 0.94392 0.61977 0.0
C333 C 0.71433 0.97094 0.61089 0.0
H334 H 0.70695 0.06565 0.43611 0.0
C335 C 0.71721 0.94884 0.5275 0.0
C336 C 0.71409 0.9722 0.54982 0.0
H337 H 0.69823 0.06767 0.60884 0.0
H338 H 0.70368 0.02381 0.61299 0.0
H339 H 0.75056 0.02886 0.43336 0.0
H340 H 0.67279 0.01684 0.41806 0.0
H341 H 0.68772 -0.00057 0.36836 0.0
H342 H 0.69066 0.0323 0.36787 0.0
H343 H 0.73424 0.03607 0.37277 0.0
H344 H 0.7466 0.00589 0.38483 0.0
C345 C 0.73645 0.98486 0.63506 0.0
C346 C 0.68922 0.97814 0.63548 0.0
C347 C 0.72868 0.91908 0.33678 0.0
C348 C 0.73036 0.93101 0.28701 0.0
C349 C 0.72774 0.95665 0.2848 0.0
C350 C 0.72326 0.97016 0.33182 0.0
C351 C 0.72169 0.95786 0.38144 0.0
C352 C 0.7245 0.93274 0.38313 0.0
C353 C 0.72345 0.92268 0.43913 0.0
C354 C 0.71932 0.9459 0.47113 0.0
C355 C 0.71819 0.96639 0.43728 0.0
C356 C 0.74867 0.91078 0.45169 0.0
C357 C 0.70125 0.90499 0.44285 0.0
C358 C 0.70572 0.05667 0.47481 0.0
C359 C 0.70212 0.0702 0.52219 0.0
C360 C 0.70125 0.05772 0.57179 0.0
C361 C 0.70431 0.03225 0.57412 0.0
C362 C 0.70825 0.0191 0.52638 0.0
C363 C 0.70858 0.03131 0.47779 0.0
C364 C 0.7127 0.01442 0.43104 0.0
C365 C 0.71451 0.98999 0.45953 0.0
C366 C 0.71219 0.99285 0.51543 0.0
C367 C 0.73717 0.02163 0.40355 0.0
C368 C 0.68993 0.01579 0.39392 0.0
H369 H 0.72171 0.89456 0.53652 0.0
H370 H 0.72034 0.94222 0.70651 0.0
H371 H 0.67634 0.96234 0.63599 0.0
H372 H 0.67962 0.99233 0.6117 0.0
H373 H 0.6913 0.98463 0.67753 0.0
H374 H 0.75395 0.97574 0.62369 0.0
H375 H 0.73541 0.98521 0.67962 0.0
H376 H 0.73798 0.00385 0.62041 0.0
H377 H 0.73124 0.89944 0.3399 0.0
H378 H 0.72908 0.96618 0.24674 0.0
H379 H 0.72138 0.98964 0.32778 0.0
H380 H 0.76385 0.92143 0.43306 0.0
H381 H 0.74965 0.89182 0.43569 0.0
H382 H 0.75312 0.91045 0.49491 0.0
H383 H 0.68637 0.91048 0.41467 0.0
H384 H 0.69246 0.90516 0.48289 0.0
H385 H 0.70664 0.88593 0.43263 0.0
H386 H 0.72553 0.87355 0.62087 0.0
C387 C 0.72128 0.90554 0.57219 0.0
C388 C 0.56128 0.21912 0.18079 0.0
C389 C 0.58682 0.2164 0.18558 0.0
C390 C 0.60105 0.21252 0.13921 0.0
C391 C 0.56481 0.21572 0.08385 0.0
C392 C 0.55064 0.21834 0.12949 0.0
C393 C 0.52372 0.21994 0.11634 0.0
H394 H 0.4339 0.21681 0.92856 0.0
C395 C 0.54852 0.21706 0.03676 0.0
C396 C 0.52438 0.21907 0.05523 0.0
H397 H 0.42698 0.2187 0.10184 0.0
H398 H 0.47067 0.22119 0.11085 0.0
H399 H 0.47416 0.26005 0.92652 0.0
H400 H 0.48252 0.18153 0.91899 0.0
H401 H 0.49938 0.19585 0.86691 0.0
H402 H 0.46668 0.19936 0.86911 0.0
H403 H 0.46979 0.24355 0.86496 0.0
H404 H 0.49977 0.25392 0.88598 0.0
C405 C 0.51396 0.24485 0.13706 0.0
C406 C 0.51077 0.19725 0.14088 0.0
C407 C 0.58652 0.22201 0.85227 0.0
C408 C 0.57709 0.22686 0.80103 0.0
C409 C 0.55153 0.22912 0.79415 0.0
C410 C 0.53559 0.22644 0.83824 0.0
C411 C 0.54546 0.22196 0.88962 0.0
C412 C 0.57057 0.21999 0.89572 0.0
C413 C 0.57825 0.21719 0.95317 0.0
C414 C 0.55361 0.21793 0.98101 0.0
C415 C 0.53439 0.22033 0.94379 0.0
C416 C 0.59448 0.23954 0.9681 0.0
C417 C 0.59099 0.19193 0.95956 0.0
C418 C 0.44177 0.21788 0.96842 0.0
C419 C 0.42682 0.2168 0.01454 0.0
C420 C 0.43796 0.21855 0.06561 0.0
C421 C 0.46341 0.22017 0.07089 0.0
C422 C 0.47807 0.22033 0.02469 0.0
C423 C 0.46729 0.21974 0.97444 0.0
C424 C 0.48603 0.2213 0.93006 0.0
C425 C 0.50974 0.22106 0.96218 0.0
C426 C 0.50486 0.22059 0.0176 0.0
C427 C 0.48228 0.24584 0.89985 0.0
C428 C 0.48358 0.19838 0.89398 0.0
H429 H 0.60215 0.20963 0.05472 0.0
H430 H 0.54996 0.2218 0.21604 0.0
H431 H 0.52365 0.18158 0.14558 0.0
H432 H 0.49598 0.19004 0.1149 0.0
H433 H 0.50313 0.20141 0.18122 0.0
H434 H 0.52735 0.25972 0.12852 0.0
H435 H 0.51094 0.24435 0.18117 0.0
H436 H 0.49678 0.25058 0.11722 0.0
H437 H 0.60614 0.22081 0.85889 0.0
H438 H 0.54397 0.23299 0.75482 0.0
H439 H 0.51628 0.22822 0.83087 0.0
H440 H 0.58751 0.25651 0.94859 0.0
H441 H 0.6137 0.23679 0.95462 0.0
H442 H 0.59454 0.24377 0.0114 0.0
H443 H 0.58409 0.17849 0.92952 0.0
H444 H 0.58717 0.18329 -0.00111 0.0
H445 H 0.61114 0.19345 0.95399 0.0
H446 H 0.62079 0.21054 0.14213 0.0
C447 C 0.59021 0.21218 0.08845 0.0
C448 C 0.26363 0.05111 0.32353 0.0
C449 C 0.26034 0.07646 0.31754 0.0
C450 C 0.26159 0.09179 0.36288 0.0
C451 C 0.26832 0.05665 0.41981 0.0
C452 C 0.26789 0.04163 0.3751 0.0
C453 C 0.2727 0.01528 0.38944 0.0
H454 H 0.27886 0.92758 0.57985 0.0
C455 C 0.27166 0.04116 0.46764 0.0
C456 C 0.27432 0.01692 0.45046 0.0
H457 H 0.29203 0.92104 0.40867 0.0
H458 H 0.28698 0.96427 0.39839 0.0
H459 H 0.31558 0.97659 0.58976 0.0
H460 H 0.23682 0.9691 0.57737 0.0
H461 H 0.24389 0.99106 0.62687 0.0
H462 H 0.25336 0.95972 0.63633 0.0
H463 H 0.29748 0.96307 0.64223 0.0
H464 H 0.30129 0.99574 0.6373 0.0
C465 C 0.29744 0.00745 0.36367 0.0
C466 C 0.25044 -0.00013 0.37089 0.0
C467 C 0.26737 0.08076 0.65051 0.0
C468 C 0.26637 0.07171 0.70306 0.0
C469 C 0.2669 0.0462 0.71164 0.0
C470 C 0.26902 0.02995 0.66791 0.0
C471 C 0.27025 0.03942 0.61531 0.0
C472 C 0.26906 0.06447 0.60763 0.0
C473 C 0.26874 0.07157 0.54958 0.0
C474 C 0.27084 0.04673 0.52316 0.0
C475 C 0.27197 0.02788 0.56153 0.0
C476 C 0.2916 0.08767 0.53837 0.0
C477 C 0.24374 0.08416 0.53758 0.0
C478 C 0.2809 0.9354 0.54016 0.0
C479 C 0.28495 0.92042 0.49477 0.0
C480 C 0.28776 0.93171 0.44411 0.0
C481 C 0.28511 0.95698 0.43808 0.0
C482 C 0.28007 0.97143 0.48317 0.0
C483 C 0.27894 0.96084 0.53348 0.0
C484 C 0.27575 0.97974 0.57714 0.0
C485 C 0.27475 0.00321 0.5443 0.0
C486 C 0.27666 0.99798 0.48916 0.0
C487 C 0.29858 0.97879 0.614 0.0
C488 C 0.25127 0.9747 0.60646 0.0
H489 H 0.26603 0.09471 0.44679 0.0
H490 H 0.26315 0.0391 0.28892 0.0
H491 H 0.23303 0.00846 0.3846 0.0
H492 H 0.25051 0.98111 0.38723 0.0
H493 H 0.24985 -0.00142 0.32637 0.0
H494 H 0.30863 0.02348 0.35096 0.0
H495 H 0.29448 0.99592 0.32748 0.0
H496 H 0.3093 0.99739 0.39239 0.0
H497 H 0.26623 0.10026 0.64273 0.0
H498 H 0.26586 0.03892 0.75204 0.0
H499 H 0.26942 0.0107 0.6766 0.0
H500 H 0.30768 0.08109 0.56185 0.0
H501 H 0.28823 0.10704 0.54982 0.0
H502 H 0.29761 0.08698 0.49602 0.0
H503 H 0.22921 0.07799 0.56589 0.0
H504 H 0.23639 0.07951 0.49746 0.0
H505 H 0.24514 0.10439 0.54123 0.0
H506 H 0.25907 0.1114 0.35883 0.0
C507 C 0.26552 0.08205 0.41391 0.0
C508 C 0.55835 0.77203 0.00806 0.0
C509 C 0.57377 0.77572 0.9635 0.0
C510 C 0.56312 0.77824 0.91209 0.0
C511 C 0.52253 0.77408 0.95052 0.0
C512 C 0.53296 0.77161 0.0008 0.0
C513 C 0.51409 0.76925 0.04449 0.0
H514 H 0.39459 0.76986 0.11674 0.0
C515 C 0.49567 0.77392 0.95715 0.0
C516 C 0.49062 0.77153 0.01227 0.0
H517 H 0.45732 0.7569 0.21887 0.0
H518 H 0.48453 0.76196 0.14251 0.0
H519 H 0.41598 0.81293 0.04797 0.0
H520 H 0.41357 0.73513 0.0238 0.0
H521 H 0.40632 0.74862 0.96192 0.0
H522 H 0.38705 0.7545 0.01914 0.0
H523 H 0.3889 0.79782 0.02405 0.0
H524 H 0.4122 0.8089 0.97851 0.0
C525 C 0.51744 0.79089 0.08408 0.0
C526 C 0.51679 0.74359 0.07048 0.0
C527 C 0.43912 0.77459 0.79424 0.0
C528 C 0.41346 0.77606 0.78979 0.0
C529 C 0.3992 0.77979 0.83616 0.0
C530 C 0.41014 0.78088 0.88674 0.0
C531 C 0.43564 0.77823 0.89113 0.0
C532 C 0.44986 0.77614 0.8454 0.0
C533 C 0.47687 0.77576 0.85847 0.0
C534 C 0.47616 0.77596 0.91961 0.0
C535 C 0.45194 0.77704 0.93817 0.0
C536 C 0.48875 0.79931 0.83529 0.0
C537 C 0.48801 0.75172 0.83644 0.0
C538 C 0.41424 0.76856 0.12282 0.0
C539 C 0.42396 0.7634 0.17373 0.0
C540 C 0.44953 0.761 0.17986 0.0
C541 C 0.4652 0.76394 0.13555 0.0
C542 C 0.4551 0.76899 0.08466 0.0
C543 C 0.42999 0.77102 0.07909 0.0
C544 C 0.42217 0.77465 0.02188 0.0
C545 C 0.4468 0.77484 0.99377 0.0
C546 C 0.46601 0.77174 0.03062 0.0
C547 C 0.40895 0.79975 0.01753 0.0
C548 C 0.40631 0.75226 0.00546 0.0
H549 H 0.53057 0.7794 0.86541 0.0
H550 H 0.56582 0.76956 0.04801 0.0
H551 H 0.5234 0.72987 0.04076 0.0
H552 H 0.49915 0.73615 0.085 0.0
H553 H 0.53013 0.74394 0.10421 0.0
H554 H 0.52112 0.80818 0.06184 0.0
H555 H 0.53315 0.78757 0.11155 0.0
H556 H 0.50096 0.79461 0.1084 0.0
H557 H 0.45042 0.77215 0.75887 0.0
H558 H 0.3794 0.78093 0.83341 0.0
H559 H 0.39821 0.78318 0.92056 0.0
H560 H 0.47494 0.81399 0.82836 0.0
H561 H 0.4979 0.79565 0.79625 0.0
H562 H 0.50218 0.80757 0.86334 0.0
H563 H 0.47639 0.7358 0.84782 0.0
H564 H 0.50647 0.7479 0.85259 0.0
H565 H 0.48922 0.75223 0.79191 0.0
H566 H 0.57445 0.78141 0.87708 0.0
C567 C 0.5376 0.77734 0.90538 0.0
H568 H 0.13618 0.24264 0.1099 0.0
H569 H 0.19782 0.23251 0.21636 0.0
H570 H 0.17277 0.24447 0.29298 0.0
H571 H 0.13391 0.25747 0.3297 0.0
H572 H 0.07278 0.27268 0.2244 0.0
H573 H 0.09683 0.25832 0.14756 0.0
C574 C 0.14398 0.24308 0.14997 0.0
C575 C 0.16876 0.23675 0.15767 0.0
C576 C 0.1296 0.25072 0.19393 0.0
C577 C 0.17884 0.23752 0.20954 0.0
C578 C 0.16452 0.24426 0.25334 0.0
C579 C 0.12584 0.25833 0.28994 0.0
C580 C 0.10157 0.26659 0.28319 0.0
C581 C 0.13998 0.25102 0.24594 0.0
C582 C 0.09133 0.26634 0.23123 0.0
C583 C 0.10515 0.25828 0.1871 0.0
H584 H 0.26441 0.67939 0.68667 0.0
H585 H 0.25582 0.6247 0.56325 0.0
H586 H 0.23896 0.59595 0.62947 0.0
H587 H 0.22611 0.58696 0.7225 0.0
H588 H 0.23978 0.64098 0.84619 0.0
H589 H 0.25453 0.66952 0.77944 0.0
C590 C 0.25877 0.66118 0.67426 0.0
C591 C 0.26108 0.65417 0.62033 0.0
C592 C 0.24973 0.64473 0.71248 0.0
C593 C 0.25419 0.63042 0.60477 0.0
C594 C 0.2445 0.61406 0.64252 0.0
C595 C 0.23253 0.60483 0.73513 0.0
C596 C 0.23109 0.61179 0.78962 0.0
C597 C 0.24214 0.62105 0.6966 0.0
C598 C 0.23955 0.63522 0.8046 0.0
C599 C 0.24839 0.65158 0.76646 0.0
H600 H 0.8616 0.7883 0.13213 0.0
H601 H 0.80942 0.73156 0.17223 0.0
H602 H 0.8365 0.71651 0.24212 0.0
H603 H 0.87349 0.72077 0.29598 0.0
H604 H 0.9255 0.77789 0.26005 0.0
H605 H 0.90038 0.79097 0.18348 0.0
C606 C 0.85622 0.77257 0.15595 0.0
C607 C 0.83328 0.76137 0.14721 0.0
C608 C 0.8719 0.76395 0.1967 0.0
C609 C 0.82675 0.74085 0.1783 0.0
C610 C 0.84227 0.7321 0.21831 0.0
C611 C 0.87938 0.73603 0.27121 0.0
C612 C 0.90109 0.74855 0.28393 0.0
C613 C 0.86463 0.74375 0.22845 0.0
C614 C 0.90884 0.76792 0.25088 0.0
C615 C 0.89437 0.77553 0.20747 0.0
H616 H 0.71558 0.37167 0.59007 0.0
H617 H 0.77668 0.32633 0.6383 0.0
H618 H 0.79145 0.35861 0.69739 0.0
H619 H 0.7842 0.39724 0.74392 0.0
H620 H 0.72224 0.4421 0.70066 0.0
H621 H 0.71099 0.41289 0.63 0.0
C622 C 0.73236 0.36906 0.61278 0.0
C623 C 0.74474 0.34645 0.61053 0.0
C624 C 0.74055 0.38758 0.6477 0.0
C625 C 0.76652 0.34337 0.64006 0.0
C626 C 0.77504 0.36183 0.67381 0.0
C627 C 0.76846 0.40077 0.71837 0.0
C628 C 0.75386 0.42151 0.72774 0.0
C629 C 0.76175 0.38362 0.67931 0.0
C630 C 0.73375 0.42621 0.69402 0.0
C631 C 0.7272 0.4094 0.65403 0.0
H632 H 0.66465 0.2225 0.36816 0.0
H633 H 0.63225 0.29417 0.38654 0.0
H634 H 0.59976 0.2831 0.32327 0.0
H635 H 0.5842 0.25504 0.25327 0.0
H636 H 0.61826 0.18442 0.23251 0.0
H637 H 0.6463 0.19291 0.30684 0.0
C638 C 0.65035 0.23566 0.35878 0.0
C639 C 0.65116 0.2593 0.38112 0.0
C640 C 0.63206 0.22934 0.32186 0.0
C641 C 0.63218 0.27592 0.36951 0.0
C642 C 0.61364 0.26963 0.3332 0.0
C643 C 0.59731 0.24131 0.26624 0.0
C644 C 0.59938 0.21922 0.23765 0.0
C645 C 0.61388 0.24667 0.30782 0.0
C646 C 0.61654 0.20157 0.25408 0.0
C647 C 0.6326 0.20648 0.29625 0.0
H648 H 0.2604 0.16526 0.84777 0.0
H649 H 0.19479 0.12901 0.90303 0.0
H650 H 0.20477 0.09315 0.84831 0.0
H651 H 0.23071 0.0734 0.7792 0.0
H652 H 0.29597 0.11024 0.72439 0.0
H653 H 0.28782 0.14438 0.78521 0.0
C654 C 0.24825 0.14953 0.84786 0.0
C655 C 0.22669 0.14998 0.87874 0.0
C656 C 0.25416 0.12899 0.81668 0.0
C657 C 0.21143 0.12921 0.87929 0.0
C658 C 0.21713 0.10868 0.84806 0.0
C659 C 0.24339 0.08865 0.78175 0.0
C660 C 0.26386 0.08943 0.74755 0.0
C661 C 0.23829 0.10849 0.81603 0.0
C662 C 0.28008 0.10938 0.75046 0.0
C663 C 0.27535 0.12893 0.7849 0.0
H664 H 0.33413 0.75457 0.32868 0.0
H665 H 0.36917 0.68581 0.36646 0.0
H666 H 0.40393 0.69672 0.30887 0.0
H667 H 0.42262 0.72462 0.24209 0.0
H668 H 0.38681 0.79304 0.2052 0.0
H669 H 0.35413 0.78357 0.26882 0.0
C670 C 0.34935 0.74192 0.32434 0.0
C671 C 0.34889 0.71923 0.35095 0.0
C672 C 0.36915 0.74832 0.29155 0.0
C673 C 0.36902 0.70332 0.34599 0.0
C674 C 0.38888 0.70954 0.31311 0.0
C675 C 0.40792 0.73763 0.24903 0.0
C676 C 0.40694 0.7594 0.21897 0.0
C677 C 0.38895 0.73186 0.28504 0.0
C678 C 0.38775 0.77609 0.22773 0.0
C679 C 0.36906 0.77065 0.26388 0.0
H680 H 0.73552 0.82597 0.84579 0.0
H681 H 0.79973 0.86882 0.88327 0.0
H682 H 0.78671 0.90021 0.81869 0.0
H683 H 0.7592 0.91288 0.74426 0.0
H684 H 0.69597 0.8687 0.70663 0.0
H685 H 0.70625 0.84047 0.77933 0.0
C686 C 0.74666 0.84223 0.84003 0.0
C687 C 0.76881 0.84487 0.86828 0.0
C688 C 0.73916 0.85992 0.80294 0.0
C689 C 0.7827 0.86631 0.86154 0.0
C690 C 0.77528 0.8842 0.8246 0.0
C691 C 0.74742 0.89739 0.75311 0.0
C692 C 0.72696 0.89266 0.72035 0.0
C693 C 0.75384 0.88089 0.79412 0.0
C694 C 0.71186 0.8725 0.73145 0.0
C695 C 0.71779 0.85635 0.77271 0.0
H696 H 0.84024 0.73181 0.86931 0.0
H697 H 0.87552 0.79967 0.91298 0.0
H698 H 0.91171 0.78812 0.86048 0.0
H699 H 0.9307 0.76107 0.79252 0.0
H700 H 0.89412 0.69424 0.74704 0.0
H701 H 0.86114 0.70276 0.8108 0.0
C702 C 0.85592 0.74402 0.86766 0.0
C703 C 0.85504 0.76678 0.89388 0.0
C704 C 0.8764 0.73737 0.83723 0.0
C705 C 0.87571 0.78214 0.89263 0.0
C706 C 0.89635 0.77556 0.86257 0.0
C707 C 0.91586 0.74809 0.79801 0.0
C708 C 0.91463 0.72713 0.76543 0.0
C709 C 0.89659 0.75354 0.83345 0.0
C710 C 0.89526 0.71048 0.77196 0.0
C711 C 0.87639 0.71544 0.808 0.0
H712 H 0.71944 0.35801 0.37062 0.0
H713 H 0.76636 0.29913 0.31666 0.0
H714 H 0.78101 0.32446 0.24294 0.0
H715 H 0.77883 0.36234 0.19067 0.0
H716 H 0.73075 0.42061 0.24206 0.0
H717 H 0.71875 0.3967 0.3206 0.0
C718 C 0.73301 0.35075 0.34303 0.0
C719 C 0.74154 0.32658 0.349 0.0
C720 C 0.74123 0.36532 0.30027 0.0
C721 C 0.75923 0.31757 0.31286 0.0
C722 C 0.76768 0.33204 0.27063 0.0
C723 C 0.76572 0.3698 0.21908 0.0
C724 C 0.75559 0.39312 0.21033 0.0
C725 C 0.75849 0.35577 0.26343 0.0
C726 C 0.73902 0.40277 0.24808 0.0
C727 C 0.73197 0.38903 0.29278 0.0
H728 H 0.16657 0.26897 0.86469 0.0
H729 H 0.12542 0.20521 0.91314 0.0
H730 H 0.09083 0.21847 0.85751 0.0
H731 H 0.07428 0.24592 0.78769 0.0
H732 H 0.11584 0.3095 0.73977 0.0
H733 H 0.14829 0.29864 0.80305 0.0
C734 C 0.14998 0.25802 0.86334 0.0
C735 C 0.1487 0.23592 0.89217 0.0
C736 C 0.1303 0.2657 0.8313 0.0
C737 C 0.12689 0.22223 0.89101 0.0
C738 C 0.10715 0.22976 0.85912 0.0
C739 C 0.09015 0.25772 0.79214 0.0
C740 C 0.09282 0.27833 0.75874 0.0
C741 C 0.10889 0.25118 0.82813 0.0
C742 C 0.11357 0.29335 0.76456 0.0
C743 C 0.13212 0.28714 0.80064 0.0
H744 H 0.28315 0.61965 0.37362 0.0
H745 H 0.22363 0.66976 0.34105 0.0
H746 H 0.20279 0.6386 0.28844 0.0
H747 H 0.2032 0.59886 0.24427 0.0
H748 H 0.2639 0.54952 0.26928 0.0
H749 H 0.28194 0.57808 0.334 0.0
C750 C 0.26553 0.62363 0.35538 0.0
C751 C 0.25523 0.64715 0.36045 0.0
C752 C 0.25372 0.60568 0.32414 0.0
C753 C 0.23227 0.65199 0.33687 0.0
C754 C 0.22021 0.63413 0.30701 0.0
C755 C 0.22026 0.59424 0.26437 0.0
C756 C 0.23236 0.57232 0.25147 0.0
C757 C 0.23105 0.61118 0.29927 0.0
C758 C 0.25415 0.56627 0.27867 0.0
C759 C 0.26464 0.58274 0.31513 0.0
H760 H 0.33463 0.7646 0.61075 0.0
H761 H 0.36725 0.6927 0.60071 0.0
H762 H 0.39997 0.70555 0.66193 0.0
H763 H 0.41596 0.73567 0.72733 0.0
H764 H 0.38172 0.8066 0.73957 0.0
H765 H 0.35315 0.79588 0.6676 0.0
C766 C 0.34898 0.75174 0.62163 0.0
C767 C 0.34823 0.72758 0.60216 0.0
C768 C 0.36745 0.75915 0.65711 0.0
C769 C 0.36729 0.71135 0.61557 0.0
C770 C 0.38597 0.71867 0.65063 0.0
C771 C 0.4027 0.74896 0.7129 0.0
C772 C 0.40079 0.77185 0.73834 0.0
C773 C 0.38582 0.74232 0.67283 0.0
C774 C 0.3834 0.7889 0.72024 0.0
C775 C 0.36701 0.7827 0.6795 0.0
H776 H 0.77838 0.86984 0.10156 0.0
H777 H 0.72172 0.81919 0.15054 0.0
H778 H 0.70467 0.84986 0.21062 0.0
H779 H 0.7081 0.88934 0.25584 0.0
H780 H 0.76537 0.93969 0.21079 0.0
H781 H 0.77948 0.91114 0.14139 0.0
C782 C 0.76217 0.86557 0.12497 0.0
C783 C 0.75166 0.84204 0.12214 0.0
C784 C 0.7525 0.88325 0.16003 0.0
C785 C 0.73047 0.83697 0.1524 0.0
C786 C 0.72062 0.85452 0.18676 0.0
C787 C 0.7235 0.89415 0.23032 0.0
C788 C 0.7359 0.91634 0.23864 0.0
C789 C 0.73185 0.87744 0.19187 0.0
C790 C 0.75553 0.92267 0.20489 0.0
C791 C 0.76373 0.90626 0.16566 0.0
H792 H 0.66937 0.23628 0.65304 0.0
H793 H 0.63599 0.30612 0.61783 0.0
H794 H 0.60036 0.29513 0.67266 0.0
H795 H 0.58 0.26648 0.73541 0.0
H796 H 0.61385 0.1968 0.76936 0.0
H797 H 0.64783 0.2067 0.7093 0.0
C798 C 0.65436 0.24918 0.65754 0.0
C799 C 0.6555 0.27216 0.63228 0.0
C800 C 0.63391 0.24263 0.68839 0.0
C801 C 0.63562 0.28839 0.63733 0.0
C802 C 0.61524 0.2821 0.66853 0.0
C803 C 0.59454 0.25329 0.72846 0.0
C804 C 0.59455 0.23098 0.75659 0.0
C805 C 0.61429 0.25933 0.69466 0.0
C806 C 0.61359 0.2141 0.74804 0.0
C807 C 0.63306 0.21981 0.71406 0.0
H808 H 0.213 0.13149 0.12339 0.0
H809 H 0.27896 0.17447 0.14312 0.0
H810 H 0.29458 0.14515 0.20789 0.0
H811 H 0.28727 0.11059 0.26782 0.0
H812 H 0.22151 0.06764 0.25137 0.0
H813 H 0.20828 0.09324 0.1756 0.0
C814 C 0.23094 0.13421 0.14123 0.0
C815 C 0.24446 0.15549 0.12936 0.0
C816 C 0.23985 0.11732 0.17914 0.0
C817 C 0.26784 0.15858 0.15239 0.0
C818 C 0.2769 0.14178 0.18939 0.0
C819 C 0.27033 0.10656 0.24665 0.0
C820 C 0.25523 0.08758 0.26488 0.0
C821 C 0.26271 0.1216 0.20438 0.0
C822 C 0.23339 0.08223 0.2375 0.0
C823 C 0.22575 0.09699 0.19467 0.0
H824 H 0.21214 0.30911 0.91699 0.0
H825 H 0.2532 0.31027 0.06538 0.0
H826 H 0.25427 0.35487 0.06305 0.0
H827 H 0.24381 0.39334 0.01918 0.0
H828 H 0.20002 0.39284 0.87456 0.0
H829 H 0.20048 0.34812 0.87426 0.0
C830 C 0.22136 0.31914 0.94873 0.0
C831 C 0.23257 0.30638 0.99127 0.0
C832 C 0.22164 0.34486 0.9476 0.0
C833 C 0.24427 0.31964 0.03236 0.0
C834 C 0.24499 0.34514 0.03097 0.0
C835 C 0.23402 0.38355 0.98792 0.0
C836 C 0.2218 0.39656 0.94712 0.0
C837 C 0.23368 0.35791 0.98891 0.0
C838 C 0.20987 0.38339 0.90614 0.0
C839 C 0.20992 0.35779 0.90618 0.0
H840 H 0.18904 0.70679 0.54322 0.0
H841 H 0.19458 0.75231 0.40207 0.0
H842 H 0.14998 0.75424 0.39552 0.0
H843 H 0.10961 0.74317 0.42981 0.0
H844 H 0.10367 0.69486 0.56656 0.0
H845 H 0.14822 0.6942 0.57543 0.0
C846 C 0.18041 0.71722 0.51129 0.0
C847 C 0.19497 0.72946 0.47333 0.0
C848 C 0.15475 0.71779 0.507 0.0
C849 C 0.18368 0.74266 0.43165 0.0
C850 C 0.15821 0.7438 0.4279 0.0
C851 C 0.11799 0.73214 0.46106 0.0
C852 C 0.10321 0.71915 0.49746 0.0
C853 C 0.14359 0.73134 0.46517 0.0
C854 C 0.11452 0.70541 0.53844 0.0
C855 C 0.14003 0.70488 0.54339 0.0
H856 H 0.7556 0.686 0.0636 0.0
H857 H 0.79632 0.68926 0.91499 0.0
H858 H 0.80002 0.64471 0.91452 0.0
H859 H 0.7914 0.60491 0.95588 0.0
H860 H 0.74883 0.60171 0.10195 0.0
H861 H 0.74664 0.64627 0.10434 0.0
C862 C 0.76539 0.677 0.0312 0.0
C863 C 0.77563 0.69094 0.9894 0.0
C864 C 0.76723 0.65142 0.03082 0.0
C865 C 0.78812 0.67895 0.94754 0.0
C866 C 0.7903 0.65349 0.94726 0.0
C867 C 0.78145 0.61393 0.98797 0.0
C868 C 0.77035 0.59996 0.02869 0.0
C869 C 0.7798 0.63954 0.98854 0.0
C870 C 0.75789 0.612 0.07053 0.0
C871 C 0.75645 0.63749 0.07174 0.0
H872 H 0.81378 0.28266 0.56223 0.0
H873 H 0.80696 0.23384 0.42663 0.0
H874 H 0.85145 0.23326 0.41605 0.0
H875 H 0.89225 0.24678 0.44486 0.0
H876 H 0.89884 0.29772 0.57682 0.0
H877 H 0.85457 0.29693 0.58971 0.0
C878 C 0.82205 0.27175 0.53061 0.0
C879 C 0.80708 0.25827 0.49542 0.0
C880 C 0.84762 0.27182 0.52411 0.0
C881 C 0.81806 0.24447 0.4542 0.0
C882 C 0.8435 0.2441 0.44811 0.0
C883 C 0.88402 0.25793 0.47608 0.0
C884 C 0.89898 0.27216 0.50994 0.0
C885 C 0.85845 0.25783 0.48263 0.0
C886 C 0.88791 0.28619 0.55074 0.0
C887 C 0.86253 0.28591 0.55796 0.0
H888 H 0.69688 0.18225 0.4642 0.0
H889 H 0.74016 0.18738 0.60899 0.0
H890 H 0.736 0.14332 0.62322 0.0
H891 H 0.7228 0.10307 0.5906 0.0
H892 H 0.67818 0.09819 0.44763 0.0
H893 H 0.68028 0.14252 0.4365 0.0
C894 C 0.70534 0.17372 0.49895 0.0
C895 C 0.71909 0.18794 0.53506 0.0
C896 C 0.70276 0.14847 0.50705 0.0
C897 C 0.72955 0.17678 0.5805 0.0
C898 C 0.72723 0.15159 0.5886 0.0
C899 C 0.71307 0.11172 0.55767 0.0
C900 C 0.70064 0.09728 0.51962 0.0
C901 C 0.7142 0.13722 0.55166 0.0
C902 C 0.68834 0.10883 0.47686 0.0
C903 C 0.68944 0.13418 0.47055 0.0
H904 H 0.31318 0.20122 0.04368 0.0
H905 H 0.3108 0.24571 0.90073 0.0
H906 H 0.35576 0.24603 0.8971 0.0
H907 H 0.39555 0.23646 0.93961 0.0
H908 H 0.39711 0.18965 0.07958 0.0
H909 H 0.35259 0.18772 0.07961 0.0
C910 C 0.32254 0.21082 0.01148 0.0
C911 C 0.30886 0.22368 0.97294 0.0
C912 C 0.34819 0.21078 0.00954 0.0
C913 C 0.32106 0.23569 0.93084 0.0
C914 C 0.34671 0.23598 0.92897 0.0
C915 C 0.38622 0.22547 0.96955 0.0
C916 C 0.39977 0.21375 0.01037 0.0
C917 C 0.36048 0.22398 0.96879 0.0
C918 C 0.38722 0.19959 0.04878 0.0
C919 C 0.36173 0.19827 0.04862 0.0
H920 H 0.29353 0.80684 0.54514 0.0
H921 H 0.26395 0.80302 0.38442 0.0
H922 H 0.26303 0.84755 0.37933 0.0
H923 H 0.26889 0.88719 0.42133 0.0
H924 H 0.30231 0.89201 0.57843 0.0
H925 H 0.30259 0.84738 0.58481 0.0
C926 C 0.287 0.81582 0.50898 0.0
C927 C 0.27875 0.80168 0.46529 0.0
C928 C 0.28686 0.84152 0.50593 0.0
C929 C 0.27055 0.81348 0.41846 0.0
C930 C 0.26987 0.83895 0.41561 0.0
C931 C 0.27684 0.87867 0.4566 0.0
C932 C 0.28565 0.89319 0.49918 0.0
C933 C 0.27784 0.8531 0.45918 0.0
C934 C 0.29502 0.88148 0.54523 0.0
C935 C 0.29542 0.85589 0.54875 0.0
H936 H 0.68439 0.78689 0.03382 0.0
H937 H 0.69581 0.75022 0.88229 0.0
H938 H 0.65156 0.74964 0.86635 0.0
H939 H 0.60965 0.75807 0.89738 0.0
H940 H 0.59875 0.79713 0.04645 0.0
H941 H 0.64282 0.79782 0.06176 0.0
C942 C 0.6772 0.77876 0.9973 0.0
C943 C 0.6933 0.76841 0.95955 0.0
C944 C 0.65185 0.77872 0.98815 0.0
C945 C 0.68376 0.75831 0.91199 0.0
C946 C 0.65848 0.7579 0.90292 0.0
C947 C 0.61688 0.76707 0.93283 0.0
C948 C 0.60077 0.77722 0.971 0.0
C949 C 0.64234 0.7679 0.94094 0.0
C950 C 0.61059 0.78858 0.01699 0.0
C951 C 0.63584 0.78918 0.02565 0.0
loop_
_geom_bond_atom_site_label_1
_geom_bond_atom_site_label_2
_geom_bond_distance
_geom_bond_site_symmetry_2
_ccdc_geom_bond_type
Sc0 O3 2.025 . S
Sc0 O10 2.105 . S
Sc0 O13 2.105 . S
Sc0 O16 2.105 . S
Sc0 O19 2.105 . S
Sc1 O3 2.025 . S
Sc1 O11 2.105 . S
Sc1 O15 2.105 1_554 S
Sc1 O17 2.105 . S
Sc1 O21 2.105 1_554 S
Sc2 O3 2.025 1_556 S
Sc2 O12 2.105 . S
Sc2 O14 2.105 . S
Sc2 O18 2.105 . S
Sc2 O20 2.105 . S
O3 Sc0 2.025 . S
O3 Sc1 2.025 . S
O3 Sc2 2.025 1_554 S
C4 O10 1.268 . S
C4 O20 1.268 1_554 S
C5 O11 1.268 . S
C5 O19 1.268 . S
C6 O12 1.268 . S
C6 O21 1.268 . S
C7 O13 1.268 . S
C7 O17 1.268 . S
C8 O14 1.268 1_554 S
C8 O16 1.268 . S
C9 O15 1.268 . S
C9 O18 1.268 . S
O10 Sc0 2.105 . S
O10 C4 1.268 . S
O11 Sc1 2.105 . S
O11 C5 1.268 . S
O12 Sc2 2.105 . S
O12 C6 1.268 . S
O13 Sc0 2.105 . S
O13 C7 1.268 . S
O14 Sc2 2.105 . S
O14 C8 1.268 1_556 S
O15 Sc1 2.105 1_556 S
O15 C9 1.268 . S
O16 Sc0 2.105 . S
O16 C8 1.268 . S
O17 Sc1 2.105 . S
O17 C7 1.268 . S
O18 Sc2 2.105 . S
O18 C9 1.268 . S
O19 Sc0 2.105 . S
O19 C5 1.268 . S
O20 Sc2 2.105 . S
O20 C4 1.268 1_556 S
O21 Sc1 2.105 1_556 S
O21 C6 1.268 . S
Sc22 O25 2.025 . S
Sc22 O32 2.105 . S
Sc22 O35 2.105 . S
Sc22 O38 2.105 . S
Sc22 O41 2.105 . S
Sc23 O25 2.025 . S
Sc23 O33 2.105 . S
Sc23 O37 2.105 . S
Sc23 O39 2.105 . S
Sc23 O43 2.105 . S
Sc24 O25 2.025 . S
Sc24 O34 2.105 . S
Sc24 O36 2.105 . S
Sc24 O40 2.105 . S
Sc24 O42 2.105 . S
O25 Sc22 2.025 . S
O25 Sc23 2.025 . S
O25 Sc24 2.025 . S
C26 O32 1.268 . S
C26 O42 1.268 . S
C27 O33 1.268 . S
C27 O41 1.268 . S
C28 O34 1.268 . S
C28 O43 1.268 . S
C29 O35 1.268 . S
C29 O39 1.268 . S
C30 O36 1.268 . S
C30 O38 1.268 . S
C31 O37 1.268 . S
C31 O40 1.268 . S
O32 Sc22 2.105 . S
O32 C26 1.268 . S
O33 Sc23 2.105 . S
O33 C27 1.268 . S
O34 Sc24 2.105 . S
O34 C28 1.268 . S
O35 Sc22 2.105 . S
O35 C29 1.268 . S
O36 Sc24 2.105 . S
O36 C30 1.268 . S
O37 Sc23 2.105 . S
O37 C31 1.268 . S
O38 Sc22 2.105 . S
O38 C30 1.268 . S
O39 Sc23 2.105 . S
O39 C29 1.268 . S
O40 Sc24 2.105 . S
O40 C31 1.268 . S
O41 Sc22 2.105 . S
O41 C27 1.268 . S
O42 Sc24 2.105 . S
O42 C26 1.268 . S
O43 Sc23 2.105 . S
O43 C28 1.268 . S
Sc44 O47 2.025 1_556 S
Sc44 O54 2.105 . S
Sc44 O57 2.105 . S
Sc44 O60 2.105 . S
Sc44 O63 2.105 . S
Sc45 O47 2.025 . S
Sc45 O55 2.105 1_554 S
Sc45 O59 2.105 . S
Sc45 O61 2.105 1_554 S
Sc45 O65 2.105 . S
Sc46 O47 2.025 . S
Sc46 O56 2.105 . S
Sc46 O58 2.105 . S
Sc46 O62 2.105 . S
Sc46 O64 2.105 . S
O47 Sc44 2.025 1_554 S
O47 Sc45 2.025 . S
O47 Sc46 2.025 . S
C48 O54 1.268 1_554 S
C48 O64 1.268 . S
C49 O55 1.268 . S
C49 O63 1.268 . S
C50 O56 1.268 . S
C50 O65 1.268 . S
C51 O57 1.268 . S
C51 O61 1.268 . S
C52 O58 1.268 . S
C52 O60 1.268 1_554 S
C53 O59 1.268 . S
C53 O62 1.268 . S
O54 Sc44 2.105 . S
O54 C48 1.268 1_556 S
O55 Sc45 2.105 1_556 S
O55 C49 1.268 . S
O56 Sc46 2.105 . S
O56 C50 1.268 . S
O57 Sc44 2.105 . S
O57 C51 1.268 . S
O58 Sc46 2.105 . S
O58 C52 1.268 . S
O59 Sc45 2.105 . S
O59 C53 1.268 . S
O60 Sc44 2.105 . S
O60 C52 1.268 1_556 S
O61 Sc45 2.105 1_556 S
O61 C51 1.268 . S
O62 Sc46 2.105 . S
O62 C53 1.268 . S
O63 Sc44 2.105 . S
O63 C49 1.268 . S
O64 Sc46 2.105 . S
O64 C48 1.268 . S
O65 Sc45 2.105 . S
O65 C50 1.268 . S
Sc66 O69 2.025 . S
Sc66 O76 2.105 . S
Sc66 O79 2.105 . S
Sc66 O82 2.105 . S
Sc66 O85 2.105 . S
Sc67 O69 2.025 . S
Sc67 O77 2.105 . S
Sc67 O81 2.105 . S
Sc67 O83 2.105 . S
Sc67 O87 2.105 . S
Sc68 O69 2.025 . S
Sc68 O78 2.105 . S
Sc68 O80 2.105 . S
Sc68 O84 2.105 . S
Sc68 O86 2.105 . S
O69 Sc66 2.025 . S
O69 Sc67 2.025 . S
O69 Sc68 2.025 . S
C70 O76 1.268 . S
C70 O86 1.268 . S
C71 O77 1.268 . S
C71 O85 1.268 . S
C72 O78 1.268 . S
C72 O87 1.268 . S
C73 O79 1.268 . S
C73 O83 1.268 . S
C74 O80 1.268 . S
C74 O82 1.268 . S
C75 O81 1.268 . S
C75 O84 1.268 . S
O76 Sc66 2.105 . S
O76 C70 1.268 . S
O77 Sc67 2.105 . S
O77 C71 1.268 . S
O78 Sc68 2.105 . S
O78 C72 1.268 . S
O79 Sc66 2.105 . S
O79 C73 1.268 . S
O80 Sc68 2.105 . S
O80 C74 1.268 . S
O81 Sc67 2.105 . S
O81 C75 1.268 . S
O82 Sc66 2.105 . S
O82 C74 1.268 . S
O83 Sc67 2.105 . S
O83 C73 1.268 . S
O84 Sc68 2.105 . S
O84 C75 1.268 . S
O85 Sc66 2.105 . S
O85 C71 1.268 . S
O86 Sc68 2.105 . S
O86 C70 1.268 . S
O87 Sc67 2.105 . S
O87 C72 1.268 . S
C88 C89 1.391 . S
C88 C92 1.391 . S
C88 H130 0.948 . S
C89 C88 1.391 . S
C89 C90 1.391 . S
C90 C89 1.391 . S
C90 H146 0.947 . S
C90 C147 1.392 . S
C91 C92 1.391 . S
C91 C95 1.397 . S
C91 C147 1.419 . S
C92 C88 1.391 . S
C92 C91 1.391 . S
C92 C93 1.399 . S
C93 C92 1.399 . S
C93 C96 1.396 . S
C93 C105 1.453 . S
C93 C106 1.684 . S
H94 C118 0.948 . S
C95 C91 1.397 . S
C95 C96 1.394 . S
C95 C114 1.723 1_556 S
C96 C93 1.396 . S
C96 C95 1.394 . S
C96 C126 1.723 . S
H97 C120 0.947 . S
H98 C121 0.948 . S
H99 C127 0.982 . S
H100 C128 0.979 . S
H101 C128 0.980 . S
H102 C128 0.983 . S
H103 C127 0.979 . S
H104 C127 0.977 . S
C105 C93 1.453 . S
C105 H134 0.982 . S
C105 H135 0.979 . S
C105 H136 0.977 . S
C106 C93 1.684 . S
C106 H131 0.979 . S
C106 H132 0.980 . S
C106 H133 0.983 . S
C107 C108 1.391 . S
C107 C112 1.391 . S
C107 H137 0.948 . S
C108 C107 1.391 . S
C108 C109 1.391 . S
C109 C108 1.391 . S
C109 C110 1.392 . S
C109 H138 0.947 . S
C110 C109 1.392 . S
C110 C111 1.419 . S
C110 H139 0.948 . S
C111 C110 1.419 . S
C111 C112 1.391 . S
C111 C115 1.397 . S
C112 C107 1.391 . S
C112 C111 1.391 . S
C112 C113 1.399 . S
C113 C112 1.399 . S
C113 C114 1.396 . S
C113 C116 1.453 . S
C113 C117 1.684 . S
C114 C95 1.723 1_554 S
C114 C113 1.396 . S
C114 C115 1.394 . S
C115 C111 1.397 . S
C115 C114 1.394 . S
C115 C125 1.723 . S
C116 C113 1.453 . S
C116 H140 0.982 . S
C116 H141 0.979 . S
C116 H142 0.977 1_554 S
C117 C113 1.684 . S
C117 H143 0.979 . S
C117 H144 0.980 1_554 S
C117 H145 0.983 . S
C118 H94 0.948 . S
C118 C119 1.391 1_554 S
C118 C123 1.391 . S
C119 C118 1.391 1_556 S
C119 C120 1.391 . S
C120 H97 0.947 . S
C120 C119 1.391 . S
C120 C121 1.392 . S
C121 H98 0.948 . S
C121 C120 1.392 . S
C121 C122 1.419 . S
C122 C121 1.419 . S
C122 C123 1.391 1_556 S
C122 C126 1.397 . S
C123 C118 1.391 . S
C123 C122 1.391 1_554 S
C123 C124 1.399 . S
C124 C123 1.399 . S
C124 C125 1.396 . S
C124 C127 1.453 . S
C124 C128 1.684 . S
C125 C115 1.723 . S
C125 C124 1.396 . S
C125 C126 1.394 1_554 S
C126 C96 1.723 . S
C126 C122 1.397 . S
C126 C125 1.394 1_556 S
C127 H99 0.982 . S
C127 H103 0.979 . S
C127 H104 0.977 . S
C127 C124 1.453 . S
C128 H100 0.979 . S
C128 H101 0.980 . S
C128 H102 0.983 . S
C128 C124 1.684 . S
H129 C147 0.948 . S
H130 C88 0.948 . S
H131 C106 0.979 . S
H132 C106 0.980 . S
H133 C106 0.983 . S
H134 C105 0.982 . S
H135 C105 0.979 . S
H136 C105 0.977 . S
H137 C107 0.948 . S
H138 C109 0.947 . S
H139 C110 0.948 . S
H140 C116 0.982 . S
H141 C116 0.979 . S
H142 C116 0.977 1_556 S
H143 C117 0.979 . S
H144 C117 0.980 1_556 S
H145 C117 0.983 . S
H146 C90 0.947 . S
C147 C90 1.392 . S
C147 C91 1.419 . S
C147 H129 0.948 . S
C148 C149 1.391 . S
C148 C152 1.391 . S
C148 H190 0.948 . S
C149 C148 1.391 . S
C149 C150 1.391 . S
C150 C149 1.391 . S
C150 H206 0.947 . S
C150 C207 1.392 . S
C151 C152 1.391 . S
C151 C155 1.397 . S
C151 C207 1.419 . S
C152 C148 1.391 . S
C152 C151 1.391 . S
C152 C153 1.399 . S
C153 C152 1.399 . S
C153 C156 1.396 . S
C153 C165 1.453 . S
C153 C166 1.684 . S
H154 C178 0.948 . S
C155 C151 1.397 . S
C155 C156 1.394 . S
C155 C174 1.723 1_455 S
C156 C153 1.396 . S
C156 C155 1.394 . S
C156 C186 1.723 1_455 S
H157 C180 0.947 . S
H158 C181 0.948 . S
H159 C187 0.982 . S
H160 C188 0.979 . S
H161 C188 0.980 . S
H162 C188 0.983 . S
H163 C187 0.979 . S
H164 C187 0.977 . S
C165 C153 1.453 . S
C165 H194 0.982 . S
C165 H195 0.979 . S
C165 H196 0.977 . S
C166 C153 1.684 . S
C166 H191 0.979 . S
C166 H192 0.980 . S
C166 H193 0.983 . S
C167 C168 1.391 . S
C167 C172 1.391 . S
C167 H197 0.948 . S
C168 C167 1.391 . S
C168 C169 1.391 . S
C169 C168 1.391 . S
C169 C170 1.392 . S
C169 H198 0.947 . S
C170 C169 1.392 . S
C170 C171 1.419 . S
C170 H199 0.948 . S
C171 C170 1.419 . S
C171 C172 1.391 . S
C171 C175 1.397 . S
C172 C167 1.391 . S
C172 C171 1.391 . S
C172 C173 1.399 . S
C173 C172 1.399 . S
C173 C174 1.396 . S
C173 C176 1.453 1_655 S
C173 C177 1.684 1_655 S
C174 C155 1.723 1_655 S
C174 C173 1.396 . S
C174 C175 1.394 . S
C175 C171 1.397 . S
C175 C174 1.394 . S
C175 C185 1.723 . S
C176 C173 1.453 1_455 S
C176 H200 0.982 1_455 S
C176 H201 0.979 . S
C176 H202 0.977 . S
C177 C173 1.684 1_455 S
C177 H203 0.979 1_455 S
C177 H204 0.980 . S
C177 H205 0.983 . S
C178 H154 0.948 . S
C178 C179 1.391 . S
C178 C183 1.391 . S
C179 C178 1.391 . S
C179 C180 1.391 . S
C180 H157 0.947 . S
C180 C179 1.391 . S
C180 C181 1.392 . S
C181 H158 0.948 . S
C181 C180 1.392 . S
C181 C182 1.419 . S
C182 C181 1.419 . S
C182 C183 1.391 . S
C182 C186 1.397 . S
C183 C178 1.391 . S
C183 C182 1.391 . S
C183 C184 1.399 . S
C184 C183 1.399 . S
C184 C185 1.396 . S
C184 C187 1.453 . S
C184 C188 1.684 . S
C185 C175 1.723 . S
C185 C184 1.396 . S
C185 C186 1.394 . S
C186 C156 1.723 1_655 S
C186 C182 1.397 . S
C186 C185 1.394 . S
C187 H159 0.982 . S
C187 H163 0.979 . S
C187 H164 0.977 . S
C187 C184 1.453 . S
C188 H160 0.979 . S
C188 H161 0.980 . S
C188 H162 0.983 . S
C188 C184 1.684 . S
H189 C207 0.948 . S
H190 C148 0.948 . S
H191 C166 0.979 . S
H192 C166 0.980 . S
H193 C166 0.983 . S
H194 C165 0.982 . S
H195 C165 0.979 . S
H196 C165 0.977 . S
H197 C167 0.948 . S
H198 C169 0.947 . S
H199 C170 0.948 . S
H200 C176 0.982 1_655 S
H201 C176 0.979 . S
H202 C176 0.977 . S
H203 C177 0.979 1_655 S
H204 C177 0.980 . S
H205 C177 0.983 . S
H206 C150 0.947 . S
C207 C150 1.392 . S
C207 C151 1.419 . S
C207 H189 0.948 . S
C208 C209 1.391 . S
C208 C212 1.391 . S
C208 H250 0.948 . S
C209 C208 1.391 . S
C209 C210 1.391 . S
C210 C209 1.391 . S
C210 H266 0.947 . S
C210 C267 1.392 . S
C211 C212 1.391 . S
C211 C215 1.397 . S
C211 C267 1.419 . S
C212 C208 1.391 . S
C212 C211 1.391 . S
C212 C213 1.399 . S
C213 C212 1.399 . S
C213 C216 1.396 . S
C213 C225 1.453 . S
C213 C226 1.684 . S
H214 C238 0.948 . S
C215 C211 1.397 . S
C215 C216 1.394 . S
C215 C234 1.723 1_554 S
C216 C213 1.396 . S
C216 C215 1.394 . S
C216 C246 1.723 . S
H217 C240 0.947 . S
H218 C241 0.948 . S
H219 C247 0.982 . S
H220 C248 0.979 . S
H221 C248 0.980 . S
H222 C248 0.983 . S
H223 C247 0.979 . S
H224 C247 0.977 . S
C225 C213 1.453 . S
C225 H254 0.982 . S
C225 H255 0.979 . S
C225 H256 0.977 . S
C226 C213 1.684 . S
C226 H251 0.979 . S
C226 H252 0.980 . S
C226 H253 0.983 . S
C227 C228 1.391 . S
C227 C232 1.391 . S
C227 H257 0.948 . S
C228 C227 1.391 . S
C228 C229 1.391 . S
C229 C228 1.391 . S
C229 C230 1.392 . S
C229 H258 0.947 . S
C230 C229 1.392 . S
C230 C231 1.419 . S
C230 H259 0.948 . S
C231 C230 1.419 . S
C231 C232 1.391 . S
C231 C235 1.397 . S
C232 C227 1.391 . S
C232 C231 1.391 . S
C232 C233 1.399 . S
C233 C232 1.399 . S
C233 C234 1.396 . S
C233 C236 1.453 . S
C233 C237 1.684 . S
C234 C215 1.723 1_556 S
C234 C233 1.396 . S
C234 C235 1.394 . S
C235 C231 1.397 . S
C235 C234 1.394 . S
C235 C245 1.723 . S
C236 C233 1.453 . S
C236 H260 0.982 . S
C236 H261 0.979 . S
C236 H262 0.977 1_556 S
C237 C233 1.684 . S
C237 H263 0.979 . S
C237 H264 0.980 1_556 S
C237 H265 0.983 . S
C238 H214 0.948 . S
C238 C239 1.391 1_556 S
C238 C243 1.391 . S
C239 C238 1.391 1_554 S
C239 C240 1.391 . S
C240 H217 0.947 . S
C240 C239 1.391 . S
C240 C241 1.392 . S
C241 H218 0.948 . S
C241 C240 1.392 . S
C241 C242 1.419 . S
C242 C241 1.419 . S
C242 C243 1.391 1_554 S
C242 C246 1.397 . S
C243 C238 1.391 . S
C243 C242 1.391 1_556 S
C243 C244 1.399 . S
C244 C243 1.399 . S
C244 C245 1.396 . S
C244 C247 1.453 . S
C244 C248 1.684 . S
C245 C235 1.723 . S
C245 C244 1.396 . S
C245 C246 1.394 1_556 S
C246 C216 1.723 . S
C246 C242 1.397 . S
C246 C245 1.394 1_554 S
C247 H219 0.982 . S
C247 H223 0.979 . S
C247 H224 0.977 . S
C247 C244 1.453 . S
C248 H220 0.979 . S
C248 H221 0.980 . S
C248 H222 0.983 . S
C248 C244 1.684 . S
H249 C267 0.948 . S
H250 C208 0.948 . S
H251 C226 0.979 . S
H252 C226 0.980 . S
H253 C226 0.983 . S
H254 C225 0.982 . S
H255 C225 0.979 . S
H256 C225 0.977 . S
H257 C227 0.948 . S
H258 C229 0.947 . S
H259 C230 0.948 . S
H260 C236 0.982 . S
H261 C236 0.979 . S
H262 C236 0.977 1_554 S
H263 C237 0.979 . S
H264 C237 0.980 1_554 S
H265 C237 0.983 . S
H266 C210 0.947 . S
C267 C210 1.392 . S
C267 C211 1.419 . S
C267 H249 0.948 . S
C268 C269 1.391 . S
C268 C272 1.391 . S
C268 H310 0.948 . S
C269 C268 1.391 . S
C269 C270 1.391 . S
C270 C269 1.391 . S
C270 H326 0.947 . S
C270 C327 1.392 . S
C271 C272 1.391 . S
C271 C275 1.397 . S
C271 C327 1.419 . S
C272 C268 1.391 . S
C272 C271 1.391 . S
C272 C273 1.399 . S
C273 C272 1.399 . S
C273 C276 1.396 . S
C273 C285 1.453 1_455 S
C273 C286 1.684 1_455 S
H274 C298 0.948 . S
C275 C271 1.397 . S
C275 C276 1.394 . S
C275 C294 1.723 . S
C276 C273 1.396 . S
C276 C275 1.394 . S
C276 C306 1.723 1_455 S
H277 C300 0.947 . S
H278 C301 0.948 . S
H279 C307 0.982 . S
H280 C308 0.979 . S
H281 C308 0.980 . S
H282 C308 0.983 . S
H283 C307 0.979 . S
H284 C307 0.977 . S
C285 C273 1.453 1_655 S
C285 H314 0.982 1_655 S
C285 H315 0.979 . S
C285 H316 0.977 . S
C286 C273 1.684 1_655 S
C286 H311 0.979 1_655 S
C286 H312 0.980 . S
C286 H313 0.983 . S
C287 C288 1.391 . S
C287 C292 1.391 . S
C287 H317 0.948 . S
C288 C287 1.391 . S
C288 C289 1.391 . S
C289 C288 1.391 . S
C289 C290 1.392 . S
C289 H318 0.947 . S
C290 C289 1.392 . S
C290 C291 1.419 . S
C290 H319 0.948 . S
C291 C290 1.419 . S
C291 C292 1.391 . S
C291 C295 1.397 . S
C292 C287 1.391 . S
C292 C291 1.391 . S
C292 C293 1.399 . S
C293 C292 1.399 . S
C293 C294 1.396 . S
C293 C296 1.453 . S
C293 C297 1.684 . S
C294 C275 1.723 . S
C294 C293 1.396 . S
C294 C295 1.394 . S
C295 C291 1.397 . S
C295 C294 1.394 . S
C295 C305 1.723 1_455 S
C296 C293 1.453 . S
C296 H320 0.982 . S
C296 H321 0.979 . S
C296 H322 0.977 . S
C297 C293 1.684 . S
C297 H323 0.979 . S
C297 H324 0.980 . S
C297 H325 0.983 . S
C298 H274 0.948 . S
C298 C299 1.391 . S
C298 C303 1.391 . S
C299 C298 1.391 . S
C299 C300 1.391 . S
C300 H277 0.947 . S
C300 C299 1.391 . S
C300 C301 1.392 . S
C301 H278 0.948 . S
C301 C300 1.392 . S
C301 C302 1.419 . S
C302 C301 1.419 . S
C302 C303 1.391 . S
C302 C306 1.397 . S
C303 C298 1.391 . S
C303 C302 1.391 . S
C303 C304 1.399 . S
C304 C303 1.399 . S
C304 C305 1.396 . S
C304 C307 1.453 . S
C304 C308 1.684 . S
C305 C295 1.723 1_655 S
C305 C304 1.396 . S
C305 C306 1.394 . S
C306 C276 1.723 1_655 S
C306 C302 1.397 . S
C306 C305 1.394 . S
C307 H279 0.982 . S
C307 H283 0.979 . S
C307 H284 0.977 . S
C307 C304 1.453 . S
C308 H280 0.979 . S
C308 H281 0.980 . S
C308 H282 0.983 . S
C308 C304 1.684 . S
H309 C327 0.948 . S
H310 C268 0.948 . S
H311 C286 0.979 1_455 S
H312 C286 0.980 . S
H313 C286 0.983 . S
H314 C285 0.982 1_455 S
H315 C285 0.979 . S
H316 C285 0.977 . S
H317 C287 0.948 . S
H318 C289 0.947 . S
H319 C290 0.948 . S
H320 C296 0.982 . S
H321 C296 0.979 . S
H322 C296 0.977 . S
H323 C297 0.979 . S
H324 C297 0.980 . S
H325 C297 0.983 . S
H326 C270 0.947 . S
C327 C270 1.392 . S
C327 C271 1.419 . S
C327 H309 0.948 . S
C328 C329 1.391 . S
C328 C332 1.391 . S
C328 H370 0.948 . S
C329 C328 1.391 . S
C329 C330 1.391 . S
C330 C329 1.391 . S
C330 H386 0.947 . S
C330 C387 1.392 . S
C331 C332 1.391 . S
C331 C335 1.397 . S
C331 C387 1.419 . S
C332 C328 1.391 . S
C332 C331 1.391 . S
C332 C333 1.399 . S
C333 C332 1.399 . S
C333 C336 1.396 . S
C333 C345 1.453 1_565 S
C333 C346 1.684 1_565 S
H334 C358 0.948 . S
C335 C331 1.397 . S
C335 C336 1.394 . S
C335 C354 1.723 . S
C336 C333 1.396 . S
C336 C335 1.394 . S
C336 C366 1.723 1_565 S
H337 C360 0.947 . S
H338 C361 0.948 . S
H339 C367 0.982 . S
H340 C368 0.979 . S
H341 C368 0.980 . S
H342 C368 0.983 . S
H343 C367 0.979 . S
H344 C367 0.977 . S
C345 C333 1.453 1_545 S
C345 H374 0.982 1_545 S
C345 H375 0.979 . S
C345 H376 0.977 . S
C346 C333 1.684 1_545 S
C346 H371 0.979 1_545 S
C346 H372 0.980 . S
C346 H373 0.983 . S
C347 C348 1.391 . S
C347 C352 1.391 . S
C347 H377 0.948 . S
C348 C347 1.391 . S
C348 C349 1.391 . S
C349 C348 1.391 . S
C349 C350 1.392 . S
C349 H378 0.947 . S
C350 C349 1.392 . S
C350 C351 1.419 . S
C350 H379 0.948 . S
C351 C350 1.419 . S
C351 C352 1.391 . S
C351 C355 1.397 . S
C352 C347 1.391 . S
C352 C351 1.391 . S
C352 C353 1.399 . S
C353 C352 1.399 . S
C353 C354 1.396 . S
C353 C356 1.453 . S
C353 C357 1.684 . S
C354 C335 1.723 . S
C354 C353 1.396 . S
C354 C355 1.394 . S
C355 C351 1.397 . S
C355 C354 1.394 . S
C355 C365 1.723 1_565 S
C356 C353 1.453 . S
C356 H380 0.982 . S
C356 H381 0.979 . S
C356 H382 0.977 . S
C357 C353 1.684 . S
C357 H383 0.979 . S
C357 H384 0.980 . S
C357 H385 0.983 . S
C358 H334 0.948 . S
C358 C359 1.391 . S
C358 C363 1.391 . S
C359 C358 1.391 . S
C359 C360 1.391 . S
C360 H337 0.947 . S
C360 C359 1.391 . S
C360 C361 1.392 . S
C361 H338 0.948 . S
C361 C360 1.392 . S
C361 C362 1.419 . S
C362 C361 1.419 . S
C362 C363 1.391 . S
C362 C366 1.397 . S
C363 C358 1.391 . S
C363 C362 1.391 . S
C363 C364 1.399 . S
C364 C363 1.399 . S
C364 C365 1.396 . S
C364 C367 1.453 . S
C364 C368 1.684 . S
C365 C355 1.723 1_545 S
C365 C364 1.396 . S
C365 C366 1.394 . S
C366 C336 1.723 1_545 S
C366 C362 1.397 . S
C366 C365 1.394 . S
C367 H339 0.982 . S
C367 H343 0.979 . S
C367 H344 0.977 . S
C367 C364 1.453 . S
C368 H340 0.979 . S
C368 H341 0.980 . S
C368 H342 0.983 . S
C368 C364 1.684 . S
H369 C387 0.948 . S
H370 C328 0.948 . S
H371 C346 0.979 1_565 S
H372 C346 0.980 . S
H373 C346 0.983 . S
H374 C345 0.982 1_565 S
H375 C345 0.979 . S
H376 C345 0.977 . S
H377 C347 0.948 . S
H378 C349 0.947 . S
H379 C350 0.948 . S
H380 C356 0.982 . S
H381 C356 0.979 . S
H382 C356 0.977 . S
H383 C357 0.979 . S
H384 C357 0.980 . S
H385 C357 0.983 . S
H386 C330 0.947 . S
C387 C330 1.392 . S
C387 C331 1.419 . S
C387 H369 0.948 . S
C388 C389 1.391 . S
C388 C392 1.391 . S
C388 H430 0.948 . S
C389 C388 1.391 . S
C389 C390 1.391 . S
C390 C389 1.391 . S
C390 H446 0.947 . S
C390 C447 1.392 . S
C391 C392 1.391 . S
C391 C395 1.397 . S
C391 C447 1.419 . S
C392 C388 1.391 . S
C392 C391 1.391 . S
C392 C393 1.399 . S
C393 C392 1.399 . S
C393 C396 1.396 . S
C393 C405 1.453 . S
C393 C406 1.684 . S
H394 C418 0.948 . S
C395 C391 1.397 . S
C395 C396 1.394 . S
C395 C414 1.723 1_554 S
C396 C393 1.396 . S
C396 C395 1.394 . S
C396 C426 1.723 . S
H397 C420 0.947 . S
H398 C421 0.948 . S
H399 C427 0.982 . S
H400 C428 0.979 . S
H401 C428 0.980 . S
H402 C428 0.983 . S
H403 C427 0.979 . S
H404 C427 0.977 . S
C405 C393 1.453 . S
C405 H434 0.982 . S
C405 H435 0.979 . S
C405 H436 0.977 . S
C406 C393 1.684 . S
C406 H431 0.979 . S
C406 H432 0.980 . S
C406 H433 0.983 . S
C407 C408 1.391 . S
C407 C412 1.391 . S
C407 H437 0.948 . S
C408 C407 1.391 . S
C408 C409 1.391 . S
C409 C408 1.391 . S
C409 C410 1.392 . S
C409 H438 0.947 . S
C410 C409 1.392 . S
C410 C411 1.419 . S
C410 H439 0.948 . S
C411 C410 1.419 . S
C411 C412 1.391 . S
C411 C415 1.397 . S
C412 C407 1.391 . S
C412 C411 1.391 . S
C412 C413 1.399 . S
C413 C412 1.399 . S
C413 C414 1.396 . S
C413 C416 1.453 . S
C413 C417 1.684 . S
C414 C395 1.723 1_556 S
C414 C413 1.396 . S
C414 C415 1.394 . S
C415 C411 1.397 . S
C415 C414 1.394 . S
C415 C425 1.723 . S
C416 C413 1.453 . S
C416 H440 0.982 . S
C416 H441 0.979 . S
C416 H442 0.977 1_556 S
C417 C413 1.684 . S
C417 H443 0.979 . S
C417 H444 0.980 1_556 S
C417 H445 0.983 . S
C418 H394 0.948 . S
C418 C419 1.391 1_556 S
C418 C423 1.391 . S
C419 C418 1.391 1_554 S
C419 C420 1.391 . S
C420 H397 0.947 . S
C420 C419 1.391 . S
C420 C421 1.392 . S
C421 H398 0.948 . S
C421 C420 1.392 . S
C421 C422 1.419 . S
C422 C421 1.419 . S
C422 C423 1.391 1_554 S
C422 C426 1.397 . S
C423 C418 1.391 . S
C423 C422 1.391 1_556 S
C423 C424 1.399 . S
C424 C423 1.399 . S
C424 C425 1.396 . S
C424 C427 1.453 . S
C424 C428 1.684 . S
C425 C415 1.723 . S
C425 C424 1.396 . S
C425 C426 1.394 1_556 S
C426 C396 1.723 . S
C426 C422 1.397 . S
C426 C425 1.394 1_554 S
C427 H399 0.982 . S
C427 H403 0.979 . S
C427 H404 0.977 . S
C427 C424 1.453 . S
C428 H400 0.979 . S
C428 H401 0.980 . S
C428 H402 0.983 . S
C428 C424 1.684 . S
H429 C447 0.948 . S
H430 C388 0.948 . S
H431 C406 0.979 . S
H432 C406 0.980 . S
H433 C406 0.983 . S
H434 C405 0.982 . S
H435 C405 0.979 . S
H436 C405 0.977 . S
H437 C407 0.948 . S
H438 C409 0.947 . S
H439 C410 0.948 . S
H440 C416 0.982 . S
H441 C416 0.979 . S
H442 C416 0.977 1_554 S
H443 C417 0.979 . S
H444 C417 0.980 1_554 S
H445 C417 0.983 . S
H446 C390 0.947 . S
C447 C390 1.392 . S
C447 C391 1.419 . S
C447 H429 0.948 . S
C448 C449 1.391 . S
C448 C452 1.391 . S
C448 H490 0.948 . S
C449 C448 1.391 . S
C449 C450 1.391 . S
C450 C449 1.391 . S
C450 H506 0.947 . S
C450 C507 1.392 . S
C451 C452 1.391 . S
C451 C455 1.397 . S
C451 C507 1.419 . S
C452 C448 1.391 . S
C452 C451 1.391 . S
C452 C453 1.399 . S
C453 C452 1.399 . S
C453 C456 1.396 . S
C453 C465 1.453 . S
C453 C466 1.684 1_545 S
H454 C478 0.948 . S
C455 C451 1.397 . S
C455 C456 1.394 . S
C455 C474 1.723 . S
C456 C453 1.396 . S
C456 C455 1.394 . S
C456 C486 1.723 1_545 S
H457 C480 0.947 . S
H458 C481 0.948 . S
H459 C487 0.982 . S
H460 C488 0.979 . S
H461 C488 0.980 . S
H462 C488 0.983 . S
H463 C487 0.979 . S
H464 C487 0.977 . S
C465 C453 1.453 . S
C465 H494 0.982 . S
C465 H495 0.979 . S
C465 H496 0.977 1_545 S
C466 C453 1.684 1_565 S
C466 H491 0.979 . S
C466 H492 0.980 . S
C466 H493 0.983 . S
C467 C468 1.391 . S
C467 C472 1.391 . S
C467 H497 0.948 . S
C468 C467 1.391 . S
C468 C469 1.391 . S
C469 C468 1.391 . S
C469 C470 1.392 . S
C469 H498 0.947 . S
C470 C469 1.392 . S
C470 C471 1.419 . S
C470 H499 0.948 . S
C471 C470 1.419 . S
C471 C472 1.391 . S
C471 C475 1.397 . S
C472 C467 1.391 . S
C472 C471 1.391 . S
C472 C473 1.399 . S
C473 C472 1.399 . S
C473 C474 1.396 . S
C473 C476 1.453 . S
C473 C477 1.684 . S
C474 C455 1.723 . S
C474 C473 1.396 . S
C474 C475 1.394 . S
C475 C471 1.397 . S
C475 C474 1.394 . S
C475 C485 1.723 1_545 S
C476 C473 1.453 . S
C476 H500 0.982 . S
C476 H501 0.979 . S
C476 H502 0.977 . S
C477 C473 1.684 . S
C477 H503 0.979 . S
C477 H504 0.980 . S
C477 H505 0.983 . S
C478 H454 0.948 . S
C478 C479 1.391 . S
C478 C483 1.391 . S
C479 C478 1.391 . S
C479 C480 1.391 . S
C480 H457 0.947 . S
C480 C479 1.391 . S
C480 C481 1.392 . S
C481 H458 0.948 . S
C481 C480 1.392 . S
C481 C482 1.419 . S
C482 C481 1.419 . S
C482 C483 1.391 . S
C482 C486 1.397 . S
C483 C478 1.391 . S
C483 C482 1.391 . S
C483 C484 1.399 . S
C484 C483 1.399 . S
C484 C485 1.396 . S
C484 C487 1.453 . S
C484 C488 1.684 . S
C485 C475 1.723 1_565 S
C485 C484 1.396 . S
C485 C486 1.394 . S
C486 C456 1.723 1_565 S
C486 C482 1.397 . S
C486 C485 1.394 . S
C487 H459 0.982 . S
C487 H463 0.979 . S
C487 H464 0.977 . S
C487 C484 1.453 . S
C488 H460 0.979 . S
C488 H461 0.980 . S
C488 H462 0.983 . S
C488 C484 1.684 . S
H489 C507 0.948 . S
H490 C448 0.948 . S
H491 C466 0.979 . S
H492 C466 0.980 . S
H493 C466 0.983 . S
H494 C465 0.982 . S
H495 C465 0.979 . S
H496 C465 0.977 1_565 S
H497 C467 0.948 . S
H498 C469 0.947 . S
H499 C470 0.948 . S
H500 C476 0.982 . S
H501 C476 0.979 . S
H502 C476 0.977 . S
H503 C477 0.979 . S
H504 C477 0.980 . S
H505 C477 0.983 . S
H506 C450 0.947 . S
C507 C450 1.392 . S
C507 C451 1.419 . S
C507 H489 0.948 . S
C508 C509 1.391 1_554 S
C508 C512 1.391 . S
C508 H550 0.948 . S
C509 C508 1.391 1_556 S
C509 C510 1.391 . S
C510 C509 1.391 . S
C510 H566 0.947 . S
C510 C567 1.392 . S
C511 C512 1.391 1_556 S
C511 C515 1.397 . S
C511 C567 1.419 . S
C512 C508 1.391 . S
C512 C511 1.391 1_554 S
C512 C513 1.399 . S
C513 C512 1.399 . S
C513 C516 1.396 . S
C513 C525 1.453 . S
C513 C526 1.684 . S
H514 C538 0.948 . S
C515 C511 1.397 . S
C515 C516 1.394 1_556 S
C515 C534 1.723 . S
C516 C513 1.396 . S
C516 C515 1.394 1_554 S
C516 C546 1.723 . S
H517 C540 0.947 . S
H518 C541 0.948 . S
H519 C547 0.982 . S
H520 C548 0.979 . S
H521 C548 0.980 1_556 S
H522 C548 0.983 . S
H523 C547 0.979 . S
H524 C547 0.977 1_556 S
C525 C513 1.453 . S
C525 H554 0.982 . S
C525 H555 0.979 . S
C525 H556 0.977 . S
C526 C513 1.684 . S
C526 H551 0.979 . S
C526 H552 0.980 . S
C526 H553 0.983 . S
C527 C528 1.391 . S
C527 C532 1.391 . S
C527 H557 0.948 . S
C528 C527 1.391 . S
C528 C529 1.391 . S
C529 C528 1.391 . S
C529 C530 1.392 . S
C529 H558 0.947 . S
C530 C529 1.392 . S
C530 C531 1.419 . S
C530 H559 0.948 . S
C531 C530 1.419 . S
C531 C532 1.391 . S
C531 C535 1.397 . S
C532 C527 1.391 . S
C532 C531 1.391 . S
C532 C533 1.399 . S
C533 C532 1.399 . S
C533 C534 1.396 . S
C533 C536 1.453 . S
C533 C537 1.684 . S
C534 C515 1.723 . S
C534 C533 1.396 . S
C534 C535 1.394 . S
C535 C531 1.397 . S
C535 C534 1.394 . S
C535 C545 1.723 1_556 S
C536 C533 1.453 . S
C536 H560 0.982 . S
C536 H561 0.979 . S
C536 H562 0.977 . S
C537 C533 1.684 . S
C537 H563 0.979 . S
C537 H564 0.980 . S
C537 H565 0.983 . S
C538 H514 0.948 . S
C538 C539 1.391 . S
C538 C543 1.391 . S
C539 C538 1.391 . S
C539 C540 1.391 . S
C540 H517 0.947 . S
C540 C539 1.391 . S
C540 C541 1.392 . S
C541 H518 0.948 . S
C541 C540 1.392 . S
C541 C542 1.419 . S
C542 C541 1.419 . S
C542 C543 1.391 . S
C542 C546 1.397 . S
C543 C538 1.391 . S
C543 C542 1.391 . S
C543 C544 1.399 . S
C544 C543 1.399 . S
C544 C545 1.396 . S
C544 C547 1.453 . S
C544 C548 1.684 . S
C545 C535 1.723 1_554 S
C545 C544 1.396 . S
C545 C546 1.394 . S
C546 C516 1.723 . S
C546 C542 1.397 . S
C546 C545 1.394 . S
C547 H519 0.982 . S
C547 H523 0.979 . S
C547 H524 0.977 1_554 S
C547 C544 1.453 . S
C548 H520 0.979 . S
C548 H521 0.980 1_554 S
C548 H522 0.983 . S
C548 C544 1.684 . S
H549 C567 0.948 . S
H550 C508 0.948 . S
H551 C526 0.979 . S
H552 C526 0.980 . S
H553 C526 0.983 . S
H554 C525 0.982 . S
H555 C525 0.979 . S
H556 C525 0.977 . S
H557 C527 0.948 . S
H558 C529 0.947 . S
H559 C530 0.948 . S
H560 C536 0.982 . S
H561 C536 0.979 . S
H562 C536 0.977 . S
H563 C537 0.979 . S
H564 C537 0.980 . S
H565 C537 0.983 . S
H566 C510 0.947 . S
C567 C510 1.392 . S
C567 C511 1.419 . S
C567 H549 0.948 . S
H568 C574 0.930 . S
H569 C577 0.930 . S
H570 C578 0.930 . S
H571 C579 0.930 . S
H572 C582 0.930 . S
H573 C583 0.930 . S
C574 H568 0.930 . S
C574 C575 1.355 . S
C574 C576 1.415 . S
C575 C574 1.355 . S
C575 C577 1.419 . S
C576 C574 1.415 . S
C576 C581 1.425 . S
C576 C583 1.409 . S
C577 H569 0.930 . S
C577 C575 1.419 . S
C577 C578 1.362 . S
C578 H570 0.930 . S
C578 C577 1.362 . S
C578 C581 1.409 . S
C579 H571 0.930 . S
C579 C580 1.355 . S
C579 C581 1.415 . S
C580 C579 1.355 . S
C580 C582 1.419 . S
C581 C576 1.425 . S
C581 C578 1.409 . S
C581 C579 1.415 . S
C582 H572 0.930 . S
C582 C580 1.419 . S
C582 C583 1.362 . S
C583 H573 0.930 . S
C583 C576 1.409 . S
C583 C582 1.362 . S
H584 C590 0.930 . S
H585 C593 0.930 . S
H586 C594 0.930 . S
H587 C595 0.930 . S
H588 C598 0.930 . S
H589 C599 0.930 . S
C590 H584 0.930 . S
C590 C591 1.355 . S
C590 C592 1.415 . S
C591 C590 1.355 . S
C591 C593 1.419 . S
C592 C590 1.415 . S
C592 C597 1.425 . S
C592 C599 1.409 . S
C593 H585 0.930 . S
C593 C591 1.419 . S
C593 C594 1.362 . S
C594 H586 0.930 . S
C594 C593 1.362 . S
C594 C597 1.409 . S
C595 H587 0.930 . S
C595 C596 1.355 . S
C595 C597 1.415 . S
C596 C595 1.355 . S
C596 C598 1.419 . S
C597 C592 1.425 . S
C597 C594 1.409 . S
C597 C595 1.415 . S
C598 H588 0.930 . S
C598 C596 1.419 . S
C598 C599 1.362 . S
C599 H589 0.930 . S
C599 C592 1.409 . S
C599 C598 1.362 . S
H600 C606 0.930 . S
H601 C609 0.930 . S
H602 C610 0.930 . S
H603 C611 0.930 . S
H604 C614 0.930 . S
H605 C615 0.930 . S
C606 H600 0.930 . S
C606 C607 1.355 . S
C606 C608 1.415 . S
C607 C606 1.355 . S
C607 C609 1.419 . S
C608 C606 1.415 . S
C608 C613 1.425 . S
C608 C615 1.409 . S
C609 H601 0.930 . S
C609 C607 1.419 . S
C609 C610 1.362 . S
C610 H602 0.930 . S
C610 C609 1.362 . S
C610 C613 1.409 . S
C611 H603 0.930 . S
C611 C612 1.355 . S
C611 C613 1.415 . S
C612 C611 1.355 . S
C612 C614 1.419 . S
C613 C608 1.425 . S
C613 C610 1.409 . S
C613 C611 1.415 . S
C614 H604 0.930 . S
C614 C612 1.419 . S
C614 C615 1.362 . S
C615 H605 0.930 . S
C615 C608 1.409 . S
C615 C614 1.362 . S
H616 C622 0.930 . S
H617 C625 0.930 . S
H618 C626 0.930 . S
H619 C627 0.930 . S
H620 C630 0.930 . S
H621 C631 0.930 . S
C622 H616 0.930 . S
C622 C623 1.355 . S
C622 C624 1.415 . S
C623 C622 1.355 . S
C623 C625 1.419 . S
C624 C622 1.415 . S
C624 C629 1.425 . S
C624 C631 1.409 . S
C625 H617 0.930 . S
C625 C623 1.419 . S
C625 C626 1.362 . S
C626 H618 0.930 . S
C626 C625 1.362 . S
C626 C629 1.409 . S
C627 H619 0.930 . S
C627 C628 1.355 . S
C627 C629 1.415 . S
C628 C627 1.355 . S
C628 C630 1.419 . S
C629 C624 1.425 . S
C629 C626 1.409 . S
C629 C627 1.415 . S
C630 H620 0.930 . S
C630 C628 1.419 . S
C630 C631 1.362 . S
C631 H621 0.930 . S
C631 C624 1.409 . S
C631 C630 1.362 . S
H632 C638 0.930 . S
H633 C641 0.930 . S
H634 C642 0.930 . S
H635 C643 0.930 . S
H636 C646 0.930 . S
H637 C647 0.930 . S
C638 H632 0.930 . S
C638 C639 1.355 . S
C638 C640 1.415 . S
C639 C638 1.355 . S
C639 C641 1.419 . S
C640 C638 1.415 . S
C640 C645 1.425 . S
C640 C647 1.409 . S
C641 H633 0.930 . S
C641 C639 1.419 . S
C641 C642 1.362 . S
C642 H634 0.930 . S
C642 C641 1.362 . S
C642 C645 1.409 . S
C643 H635 0.930 . S
C643 C644 1.355 . S
C643 C645 1.415 . S
C644 C643 1.355 . S
C644 C646 1.419 . S
C645 C640 1.425 . S
C645 C642 1.409 . S
C645 C643 1.415 . S
C646 H636 0.930 . S
C646 C644 1.419 . S
C646 C647 1.362 . S
C647 H637 0.930 . S
C647 C640 1.409 . S
C647 C646 1.362 . S
H648 C654 0.930 . S
H649 C657 0.930 . S
H650 C658 0.930 . S
H651 C659 0.930 . S
H652 C662 0.930 . S
H653 C663 0.930 . S
C654 H648 0.930 . S
C654 C655 1.355 . S
C654 C656 1.415 . S
C655 C654 1.355 . S
C655 C657 1.419 . S
C656 C654 1.415 . S
C656 C661 1.425 . S
C656 C663 1.409 . S
C657 H649 0.930 . S
C657 C655 1.419 . S
C657 C658 1.362 . S
C658 H650 0.930 . S
C658 C657 1.362 . S
C658 C661 1.409 . S
C659 H651 0.930 . S
C659 C660 1.355 . S
C659 C661 1.415 . S
C660 C659 1.355 . S
C660 C662 1.419 . S
C661 C656 1.425 . S
C661 C658 1.409 . S
C661 C659 1.415 . S
C662 H652 0.930 . S
C662 C660 1.419 . S
C662 C663 1.362 . S
C663 H653 0.930 . S
C663 C656 1.409 . S
C663 C662 1.362 . S
H664 C670 0.930 . S
H665 C673 0.930 . S
H666 C674 0.930 . S
H667 C675 0.930 . S
H668 C678 0.930 . S
H669 C679 0.930 . S
C670 H664 0.930 . S
C670 C671 1.355 . S
C670 C672 1.415 . S
C671 C670 1.355 . S
C671 C673 1.419 . S
C672 C670 1.415 . S
C672 C677 1.425 . S
C672 C679 1.409 . S
C673 H665 0.930 . S
C673 C671 1.419 . S
C673 C674 1.362 . S
C674 H666 0.930 . S
C674 C673 1.362 . S
C674 C677 1.409 . S
C675 H667 0.930 . S
C675 C676 1.355 . S
C675 C677 1.415 . S
C676 C675 1.355 . S
C676 C678 1.419 . S
C677 C672 1.425 . S
C677 C674 1.409 . S
C677 C675 1.415 . S
C678 H668 0.930 . S
C678 C676 1.419 . S
C678 C679 1.362 . S
C679 H669 0.930 . S
C679 C672 1.409 . S
C679 C678 1.362 . S
H680 C686 0.930 . S
H681 C689 0.930 . S
H682 C690 0.930 . S
H683 C691 0.930 . S
H684 C694 0.930 . S
H685 C695 0.930 . S
C686 H680 0.930 . S
C686 C687 1.355 . S
C686 C688 1.415 . S
C687 C686 1.355 . S
C687 C689 1.419 . S
C688 C686 1.415 . S
C688 C693 1.425 . S
C688 C695 1.409 . S
C689 H681 0.930 . S
C689 C687 1.419 . S
C689 C690 1.362 . S
C690 H682 0.930 . S
C690 C689 1.362 . S
C690 C693 1.409 . S
C691 H683 0.930 . S
C691 C692 1.355 . S
C691 C693 1.415 . S
C692 C691 1.355 . S
C692 C694 1.419 . S
C693 C688 1.425 . S
C693 C690 1.409 . S
C693 C691 1.415 . S
C694 H684 0.930 . S
C694 C692 1.419 . S
C694 C695 1.362 . S
C695 H685 0.930 . S
C695 C688 1.409 . S
C695 C694 1.362 . S
H696 C702 0.930 . S
H697 C705 0.930 . S
H698 C706 0.930 . S
H699 C707 0.930 . S
H700 C710 0.930 . S
H701 C711 0.930 . S
C702 H696 0.930 . S
C702 C703 1.355 . S
C702 C704 1.415 . S
C703 C702 1.355 . S
C703 C705 1.419 . S
C704 C702 1.415 . S
C704 C709 1.425 . S
C704 C711 1.409 . S
C705 H697 0.930 . S
C705 C703 1.419 . S
C705 C706 1.362 . S
C706 H698 0.930 . S
C706 C705 1.362 . S
C706 C709 1.409 . S
C707 H699 0.930 . S
C707 C708 1.355 . S
C707 C709 1.415 . S
C708 C707 1.355 . S
C708 C710 1.419 . S
C709 C704 1.425 . S
C709 C706 1.409 . S
C709 C707 1.415 . S
C710 H700 0.930 . S
C710 C708 1.419 . S
C710 C711 1.362 . S
C711 H701 0.930 . S
C711 C704 1.409 . S
C711 C710 1.362 . S
H712 C718 0.930 . S
H713 C721 0.930 . S
H714 C722 0.930 . S
H715 C723 0.930 . S
H716 C726 0.930 . S
H717 C727 0.930 . S
C718 H712 0.930 . S
C718 C719 1.355 . S
C718 C720 1.415 . S
C719 C718 1.355 . S
C719 C721 1.419 . S
C720 C718 1.415 . S
C720 C725 1.425 . S
C720 C727 1.409 . S
C721 H713 0.930 . S
C721 C719 1.419 . S
C721 C722 1.362 . S
C722 H714 0.930 . S
C722 C721 1.362 . S
C722 C725 1.409 . S
C723 H715 0.930 . S
C723 C724 1.355 . S
C723 C725 1.415 . S
C724 C723 1.355 . S
C724 C726 1.419 . S
C725 C720 1.425 . S
C725 C722 1.409 . S
C725 C723 1.415 . S
C726 H716 0.930 . S
C726 C724 1.419 . S
C726 C727 1.362 . S
C727 H717 0.930 . S
C727 C720 1.409 . S
C727 C726 1.362 . S
H728 C734 0.930 . S
H729 C737 0.930 . S
H730 C738 0.930 . S
H731 C739 0.930 . S
H732 C742 0.930 . S
H733 C743 0.930 . S
C734 H728 0.930 . S
C734 C735 1.355 . S
C734 C736 1.415 . S
C735 C734 1.355 . S
C735 C737 1.419 . S
C736 C734 1.415 . S
C736 C741 1.425 . S
C736 C743 1.409 . S
C737 H729 0.930 . S
C737 C735 1.419 . S
C737 C738 1.362 . S
C738 H730 0.930 . S
C738 C737 1.362 . S
C738 C741 1.409 . S
C739 H731 0.930 . S
C739 C740 1.355 . S
C739 C741 1.415 . S
C740 C739 1.355 . S
C740 C742 1.419 . S
C741 C736 1.425 . S
C741 C738 1.409 . S
C741 C739 1.415 . S
C742 H732 0.930 . S
C742 C740 1.419 . S
C742 C743 1.362 . S
C743 H733 0.930 . S
C743 C736 1.409 . S
C743 C742 1.362 . S
H744 C750 0.930 . S
H745 C753 0.930 . S
H746 C754 0.930 . S
H747 C755 0.930 . S
H748 C758 0.930 . S
H749 C759 0.930 . S
C750 H744 0.930 . S
C750 C751 1.355 . S
C750 C752 1.415 . S
C751 C750 1.355 . S
C751 C753 1.419 . S
C752 C750 1.415 . S
C752 C757 1.425 . S
C752 C759 1.409 . S
C753 H745 0.930 . S
C753 C751 1.419 . S
C753 C754 1.362 . S
C754 H746 0.930 . S
C754 C753 1.362 . S
C754 C757 1.409 . S
C755 H747 0.930 . S
C755 C756 1.355 . S
C755 C757 1.415 . S
C756 C755 1.355 . S
C756 C758 1.419 . S
C757 C752 1.425 . S
C757 C754 1.409 . S
C757 C755 1.415 . S
C758 H748 0.930 . S
C758 C756 1.419 . S
C758 C759 1.362 . S
C759 H749 0.930 . S
C759 C752 1.409 . S
C759 C758 1.362 . S
H760 C766 0.930 . S
H761 C769 0.930 . S
H762 C770 0.930 . S
H763 C771 0.930 . S
H764 C774 0.930 . S
H765 C775 0.930 . S
C766 H760 0.930 . S
C766 C767 1.355 . S
C766 C768 1.415 . S
C767 C766 1.355 . S
C767 C769 1.419 . S
C768 C766 1.415 . S
C768 C773 1.425 . S
C768 C775 1.409 . S
C769 H761 0.930 . S
C769 C767 1.419 . S
C769 C770 1.362 . S
C770 H762 0.930 . S
C770 C769 1.362 . S
C770 C773 1.409 . S
C771 H763 0.930 . S
C771 C772 1.355 . S
C771 C773 1.415 . S
C772 C771 1.355 . S
C772 C774 1.419 . S
C773 C768 1.425 . S
C773 C770 1.409 . S
C773 C771 1.415 . S
C774 H764 0.930 . S
C774 C772 1.419 . S
C774 C775 1.362 . S
C775 H765 0.930 . S
C775 C768 1.409 . S
C775 C774 1.362 . S
H776 C782 0.930 . S
H777 C785 0.930 . S
H778 C786 0.930 . S
H779 C787 0.930 . S
H780 C790 0.930 . S
H781 C791 0.930 . S
C782 H776 0.930 . S
C782 C783 1.355 . S
C782 C784 1.415 . S
C783 C782 1.355 . S
C783 C785 1.419 . S
C784 C782 1.415 . S
C784 C789 1.425 . S
C784 C791 1.409 . S
C785 H777 0.930 . S
C785 C783 1.419 . S
C785 C786 1.362 . S
C786 H778 0.930 . S
C786 C785 1.362 . S
C786 C789 1.409 . S
C787 H779 0.930 . S
C787 C788 1.355 . S
C787 C789 1.415 . S
C788 C787 1.355 . S
C788 C790 1.419 . S
C789 C784 1.425 . S
C789 C786 1.409 . S
C789 C787 1.415 . S
C790 H780 0.930 . S
C790 C788 1.419 . S
C790 C791 1.362 . S
C791 H781 0.930 . S
C791 C784 1.409 . S
C791 C790 1.362 . S
H792 C798 0.930 . S
H793 C801 0.930 . S
H794 C802 0.930 . S
H795 C803 0.930 . S
H796 C806 0.930 . S
H797 C807 0.930 . S
C798 H792 0.930 . S
C798 C799 1.355 . S
C798 C800 1.415 . S
C799 C798 1.355 . S
C799 C801 1.419 . S
C800 C798 1.415 . S
C800 C805 1.425 . S
C800 C807 1.409 . S
C801 H793 0.930 . S
C801 C799 1.419 . S
C801 C802 1.362 . S
C802 H794 0.930 . S
C802 C801 1.362 . S
C802 C805 1.409 . S
C803 H795 0.930 . S
C803 C804 1.355 . S
C803 C805 1.415 . S
C804 C803 1.355 . S
C804 C806 1.419 . S
C805 C800 1.425 . S
C805 C802 1.409 . S
C805 C803 1.415 . S
C806 H796 0.930 . S
C806 C804 1.419 . S
C806 C807 1.362 . S
C807 H797 0.930 . S
C807 C800 1.409 . S
C807 C806 1.362 . S
H808 C814 0.930 . S
H809 C817 0.930 . S
H810 C818 0.930 . S
H811 C819 0.930 . S
H812 C822 0.930 . S
H813 C823 0.930 . S
C814 H808 0.930 . S
C814 C815 1.355 . S
C814 C816 1.415 . S
C815 C814 1.355 . S
C815 C817 1.419 . S
C816 C814 1.415 . S
C816 C821 1.425 . S
C816 C823 1.409 . S
C817 H809 0.930 . S
C817 C815 1.419 . S
C817 C818 1.362 . S
C818 H810 0.930 . S
C818 C817 1.362 . S
C818 C821 1.409 . S
C819 H811 0.930 . S
C819 C820 1.355 . S
C819 C821 1.415 . S
C820 C819 1.355 . S
C820 C822 1.419 . S
C821 C816 1.425 . S
C821 C818 1.409 . S
C821 C819 1.415 . S
C822 H812 0.930 . S
C822 C820 1.419 . S
C822 C823 1.362 . S
C823 H813 0.930 . S
C823 C816 1.409 . S
C823 C822 1.362 . S
H824 C830 0.930 . S
H825 C833 0.930 . S
H826 C834 0.930 . S
H827 C835 0.930 . S
H828 C838 0.930 . S
H829 C839 0.930 . S
C830 H824 0.930 . S
C830 C831 1.355 1_556 S
C830 C832 1.415 . S
C831 C830 1.355 1_554 S
C831 C833 1.419 . S
C832 C830 1.415 . S
C832 C837 1.425 1_556 S
C832 C839 1.409 . S
C833 H825 0.930 . S
C833 C831 1.419 . S
C833 C834 1.362 . S
C834 H826 0.930 . S
C834 C833 1.362 . S
C834 C837 1.409 . S
C835 H827 0.930 . S
C835 C836 1.355 1_554 S
C835 C837 1.415 . S
C836 C835 1.355 1_556 S
C836 C838 1.419 . S
C837 C832 1.425 1_554 S
C837 C834 1.409 . S
C837 C835 1.415 . S
C838 H828 0.930 . S
C838 C836 1.419 . S
C838 C839 1.362 . S
C839 H829 0.930 . S
C839 C832 1.409 . S
C839 C838 1.362 . S
H840 C846 0.930 . S
H841 C849 0.930 . S
H842 C850 0.930 . S
H843 C851 0.930 . S
H844 C854 0.930 . S
H845 C855 0.930 . S
C846 H840 0.930 . S
C846 C847 1.355 . S
C846 C848 1.415 . S
C847 C846 1.355 . S
C847 C849 1.419 . S
C848 C846 1.415 . S
C848 C853 1.425 . S
C848 C855 1.409 . S
C849 H841 0.930 . S
C849 C847 1.419 . S
C849 C850 1.362 . S
C850 H842 0.930 . S
C850 C849 1.362 . S
C850 C853 1.409 . S
C851 H843 0.930 . S
C851 C852 1.355 . S
C851 C853 1.415 . S
C852 C851 1.355 . S
C852 C854 1.419 . S
C853 C848 1.425 . S
C853 C850 1.409 . S
C853 C851 1.415 . S
C854 H844 0.930 . S
C854 C852 1.419 . S
C854 C855 1.362 . S
C855 H845 0.930 . S
C855 C848 1.409 . S
C855 C854 1.362 . S
H856 C862 0.930 . S
H857 C865 0.930 . S
H858 C866 0.930 . S
H859 C867 0.930 . S
H860 C870 0.930 . S
H861 C871 0.930 . S
C862 H856 0.930 . S
C862 C863 1.356 . S
C862 C864 1.415 . S
C863 C862 1.356 . S
C863 C865 1.417 1_554 S
C864 C862 1.415 . S
C864 C869 1.425 1_554 S
C864 C871 1.409 . S
C865 H857 0.930 . S
C865 C863 1.417 1_556 S
C865 C866 1.362 . S
C866 H858 0.930 . S
C866 C865 1.362 . S
C866 C869 1.409 . S
C867 H859 0.930 . S
C867 C868 1.355 . S
C867 C869 1.415 . S
C868 C867 1.355 . S
C868 C870 1.418 1_556 S
C869 C864 1.425 1_556 S
C869 C866 1.409 . S
C869 C867 1.415 . S
C870 H860 0.930 . S
C870 C868 1.418 1_554 S
C870 C871 1.362 . S
C871 H861 0.930 . S
C871 C864 1.409 . S
C871 C870 1.362 . S
H872 C878 0.930 . S
H873 C881 0.930 . S
H874 C882 0.930 . S
H875 C883 0.930 . S
H876 C886 0.930 . S
H877 C887 0.930 . S
C878 H872 0.930 . S
C878 C879 1.355 . S
C878 C880 1.415 . S
C879 C878 1.355 . S
C879 C881 1.419 . S
C880 C878 1.415 . S
C880 C885 1.425 . S
C880 C887 1.409 . S
C881 H873 0.930 . S
C881 C879 1.419 . S
C881 C882 1.362 . S
C882 H874 0.930 . S
C882 C881 1.362 . S
C882 C885 1.409 . S
C883 H875 0.930 . S
C883 C884 1.355 . S
C883 C885 1.415 . S
C884 C883 1.355 . S
C884 C886 1.419 . S
C885 C880 1.425 . S
C885 C882 1.409 . S
C885 C883 1.415 . S
C886 H876 0.930 . S
C886 C884 1.419 . S
C886 C887 1.362 . S
C887 H877 0.930 . S
C887 C880 1.409 . S
C887 C886 1.362 . S
H888 C894 0.930 . S
H889 C897 0.930 . S
H890 C898 0.930 . S
H891 C899 0.930 . S
H892 C902 0.930 . S
H893 C903 0.930 . S
C894 H888 0.930 . S
C894 C895 1.355 . S
C894 C896 1.415 . S
C895 C894 1.355 . S
C895 C897 1.419 . S
C896 C894 1.415 . S
C896 C901 1.425 . S
C896 C903 1.409 . S
C897 H889 0.930 . S
C897 C895 1.419 . S
C897 C898 1.362 . S
C898 H890 0.930 . S
C898 C897 1.362 . S
C898 C901 1.409 . S
C899 H891 0.930 . S
C899 C900 1.355 . S
C899 C901 1.415 . S
C900 C899 1.355 . S
C900 C902 1.419 . S
C901 C896 1.425 . S
C901 C898 1.409 . S
C901 C899 1.415 . S
C902 H892 0.930 . S
C902 C900 1.419 . S
C902 C903 1.362 . S
C903 H893 0.930 . S
C903 C896 1.409 . S
C903 C902 1.362 . S
H904 C910 0.930 . S
H905 C913 0.930 . S
H906 C914 0.930 . S
H907 C915 0.930 . S
H908 C918 0.930 . S
H909 C919 0.930 . S
C910 H904 0.930 . S
C910 C911 1.355 . S
C910 C912 1.415 . S
C911 C910 1.355 . S
C911 C913 1.419 1_554 S
C912 C910 1.415 . S
C912 C917 1.425 1_554 S
C912 C919 1.409 . S
C913 H905 0.930 . S
C913 C911 1.419 1_556 S
C913 C914 1.362 . S
C914 H906 0.930 . S
C914 C913 1.362 . S
C914 C917 1.409 . S
C915 H907 0.930 . S
C915 C916 1.355 . S
C915 C917 1.415 . S
C916 C915 1.355 . S
C916 C918 1.419 1_556 S
C917 C912 1.425 1_556 S
C917 C914 1.409 . S
C917 C915 1.415 . S
C918 H908 0.930 . S
C918 C916 1.419 1_554 S
C918 C919 1.362 . S
C919 H909 0.930 . S
C919 C912 1.409 . S
C919 C918 1.362 . S
H920 C926 0.930 . S
H921 C929 0.930 . S
H922 C930 0.930 . S
H923 C931 0.930 . S
H924 C934 0.930 . S
H925 C935 0.930 . S
C926 H920 0.930 . S
C926 C927 1.355 . S
C926 C928 1.415 . S
C927 C926 1.355 . S
C927 C929 1.419 . S
C928 C926 1.415 . S
C928 C933 1.425 . S
C928 C935 1.409 . S
C929 H921 0.930 . S
C929 C927 1.419 . S
C929 C930 1.362 . S
C930 H922 0.930 . S
C930 C929 1.362 . S
C930 C933 1.409 . S
C931 H923 0.930 . S
C931 C932 1.355 . S
C931 C933 1.415 . S
C932 C931 1.355 . S
C932 C934 1.419 . S
C933 C928 1.425 . S
C933 C930 1.409 . S
C933 C931 1.415 . S
C934 H924 0.930 . S
C934 C932 1.419 . S
C934 C935 1.362 . S
C935 H925 0.930 . S
C935 C928 1.409 . S
C935 C934 1.362 . S
H936 C942 0.930 . S
H937 C945 0.930 . S
H938 C946 0.930 . S
H939 C947 0.930 . S
H940 C950 0.930 . S
H941 C951 0.930 . S
C942 H936 0.930 . S
C942 C943 1.355 . S
C942 C944 1.415 . S
C943 C942 1.355 . S
C943 C945 1.419 1_554 S
C944 C942 1.415 . S
C944 C949 1.425 1_554 S
C944 C951 1.409 . S
C945 H937 0.930 . S
C945 C943 1.419 1_556 S
C945 C946 1.362 . S
C946 H938 0.930 . S
C946 C945 1.362 . S
C946 C949 1.409 . S
C947 H939 0.930 . S
C947 C948 1.355 1_556 S
C947 C949 1.415 . S
C948 C947 1.355 1_554 S
C948 C950 1.419 . S
C949 C944 1.425 1_556 S
C949 C946 1.409 . S
C949 C947 1.415 . S
C950 H940 0.930 . S
C950 C948 1.419 . S
C950 C951 1.362 . S
C951 H941 0.930 . S
C951 C944 1.409 . S
C951 C950 1.362 . S
C575 C5 1.485 . S
C580 C269 1.486 . S
C591 C31 1.520 . S
C596 C89 1.410 . S
C612 C168 1.410 . S
C607 C53 1.519 . S
C623 C71 1.493 . S
C628 C228 1.462 . S
C644 C389 1.488 . S
C639 C75 1.483 . S
C660 C468 1.506 . S
C655 C9 1.507 . S
C676 C539 1.500 . S
C671 C27 1.511 . S
C692 C329 1.486 . S
C687 C49 1.488 . S
C703 C51 1.502 . S
C708 C179 1.521 . S
C719 C72 1.484 . S
C724 C209 1.454 . S
C735 C6 1.516 . S
C740 C288 1.519 . S
C756 C108 1.511 . S
C751 C29 1.514 . S
C767 C28 1.506 . S
C772 C528 1.419 . S
C788 C348 1.511 . S
C783 C50 1.512 . S
C804 C408 1.519 . S
C799 C73 1.490 . S
C815 C7 1.511 . S
C820 C449 1.375 . S
C836 C119 1.492 . S
C831 C4 1.496 . S
C852 C149 1.513 . S
C847 C30 1.500 . S
C863 C52 1.518 . S
C868 C239 1.432 1_556 S
C879 C70 1.500 . S
C884 C299 1.513 . S
C900 C359 1.509 . S
C895 C74 1.498 . S
C911 C8 1.496 . S
C916 C419 1.503 1_556 S
C927 C26 1.496 . S
C932 C479 1.488 . S
C943 C48 1.496 . S
C948 C509 1.488 1_554 S
