# Generated by pormake.
# Topology csq, (4,8)-cn, num edge types: 1
# Building blocks:
#     Node 0, Type 0, BuildingBlock: MUDLON_clean_linker_0, # of connection points: 4
#     Node 1, Type 0, BuildingBlock: MUDLON_clean_linker_0, # of connection points: 4
#     Node 2, Type 0, BuildingBlock: MUDLON_clean_linker_0, # of connection points: 4
#     Node 3, Type 0, BuildingBlock: MUDLON_clean_linker_0, # of connection points: 4
#     Node 4, Type 0, BuildingBlock: MUDLON_clean_linker_0, # of connection points: 4
#     Node 5, Type 0, BuildingBlock: MUDLON_clean_linker_0, # of connection points: 4
#     Node 6, Type 1, BuildingBlock: TAGTUT_clean_sbu_1, # of connection points: 8
#     Node 7, Type 1, BuildingBlock: TAGTUT_clean_sbu_1, # of connection points: 8
#     Node 8, Type 1, BuildingBlock: TAGTUT_clean_sbu_1, # of connection points: 8
#     Edge 9, Type (0, 1), BuildingBlock: TEMPAE_clean_linker_10, # of connection points: 2
#     Edge 10, Type (0, 1), BuildingBlock: TEMPAE_clean_linker_10, # of connection points: 2
#     Edge 11, Type (0, 1), BuildingBlock: TEMPAE_clean_linker_10, # of connection points: 2
#     Edge 12, Type (0, 1), BuildingBlock: TEMPAE_clean_linker_10, # of connection points: 2
#     Edge 13, Type (0, 1), BuildingBlock: TEMPAE_clean_linker_10, # of connection points: 2
#     Edge 14, Type (0, 1), BuildingBlock: TEMPAE_clean_linker_10, # of connection points: 2
#     Edge 15, Type (0, 1), BuildingBlock: TEMPAE_clean_linker_10, # of connection points: 2
#     Edge 16, Type (0, 1), BuildingBlock: TEMPAE_clean_linker_10, # of connection points: 2
#     Edge 17, Type (0, 1), BuildingBlock: TEMPAE_clean_linker_10, # of connection points: 2
#     Edge 18, Type (0, 1), BuildingBlock: TEMPAE_clean_linker_10, # of connection points: 2
#     Edge 19, Type (0, 1), BuildingBlock: TEMPAE_clean_linker_10, # of connection points: 2
#     Edge 20, Type (0, 1), BuildingBlock: TEMPAE_clean_linker_10, # of connection points: 2
#     Edge 21, Type (0, 1), BuildingBlock: TEMPAE_clean_linker_10, # of connection points: 2
#     Edge 22, Type (0, 1), BuildingBlock: TEMPAE_clean_linker_10, # of connection points: 2
#     Edge 23, Type (0, 1), BuildingBlock: TEMPAE_clean_linker_10, # of connection points: 2
#     Edge 24, Type (0, 1), BuildingBlock: TEMPAE_clean_linker_10, # of connection points: 2
#     Edge 25, Type (0, 1), BuildingBlock: TEMPAE_clean_linker_10, # of connection points: 2
#     Edge 26, Type (0, 1), BuildingBlock: TEMPAE_clean_linker_10, # of connection points: 2
#     Edge 27, Type (0, 1), BuildingBlock: TEMPAE_clean_linker_10, # of connection points: 2
#     Edge 28, Type (0, 1), BuildingBlock: TEMPAE_clean_linker_10, # of connection points: 2
#     Edge 29, Type (0, 1), BuildingBlock: TEMPAE_clean_linker_10, # of connection points: 2
#     Edge 30, Type (0, 1), BuildingBlock: TEMPAE_clean_linker_10, # of connection points: 2
#     Edge 31, Type (0, 1), BuildingBlock: TEMPAE_clean_linker_10, # of connection points: 2
#     Edge 32, Type (0, 1), BuildingBlock: TEMPAE_clean_linker_10, # of connection points: 2
# Relax obj value: 0.046
# Max RMSD: 0.134
# Mean RMSD: 0.093
data_MOF--net-csq--node1-TAGTUT_clean_sbu_1--node2-MUDLON_clean_linker_0--edge1-TEMPAE_clean_linker_10
_symmetry_space_group_name_H-M    P1
_symmetry_Int_Tables_number       1
_symmetry_cell_setting            triclinic
loop_
_symmetry_equiv_pos_as_xyz
'x, y, z'
_cell_length_a     70.90965
_cell_length_b     70.072114
_cell_length_c     23.835529
_cell_angle_alpha  92.637415
_cell_angle_beta   92.423439
_cell_angle_gamma 119.91971
loop_
_atom_site_label
_atom_site_type_symbol
_atom_site_fract_x
_atom_site_fract_y
_atom_site_fract_z
_atom_type_partial_charge
H0 H 0.33103 0.49413 0.18246 0.0
N1 N 0.29782 0.45379 0.14 0.0
H2 H 0.35231 0.50235 0.27318 0.0
H3 H 0.29262 0.42589 0.21772 0.0
H4 H 0.31427 0.43385 0.30786 0.0
H5 H 0.32505 0.43969 0.11332 0.0
H6 H 0.34669 0.44745 0.0326 0.0
H7 H 0.29934 0.48021 0.05502 0.0
H8 H 0.31947 0.48644 0.9712 0.0
H9 H 0.29614 0.49116 0.16966 0.0
H10 H 0.25697 0.42255 0.11021 0.0
H11 H 0.26333 0.49336 0.18089 0.0
H12 H 0.22389 0.42488 0.11738 0.0
H13 H 0.18253 0.49982 0.23504 0.0
H14 H 0.17087 0.50951 0.32207 0.0
H15 H 0.11384 0.44419 0.31053 0.0
H16 H 0.12603 0.43465 0.225 0.0
H17 H 0.17048 0.50033 0.13458 0.0
H18 H 0.15743 0.5066 0.04407 0.0
H19 H 0.11906 0.4362 0.00369 0.0
H20 H 0.13284 0.43003 0.09335 0.0
H21 H 0.20033 0.49504 0.14892 0.0
H22 H 0.23372 0.49403 0.13709 0.0
H23 H 0.20192 0.42675 0.18504 0.0
N24 N 0.16084 0.46026 0.1716 0.0
H25 H 0.16809 0.42758 0.19294 0.0
C26 C 0.3102 0.45937 0.19372 0.0
C27 C 0.32699 0.48101 0.21017 0.0
C28 C 0.33905 0.48569 0.26196 0.0
C29 C 0.33476 0.46874 0.29752 0.0
C30 C 0.3178 0.44719 0.28124 0.0
C31 C 0.30552 0.44262 0.22994 0.0
C32 C 0.31053 0.4593 0.09109 0.0
C33 C 0.32392 0.45013 0.08281 0.0
C34 C 0.33606 0.45433 0.03578 0.0
C35 C 0.33466 0.46728 0.9941 0.0
C36 C 0.32123 0.47656 0.00231 0.0
C37 C 0.30948 0.47282 0.05047 0.0
C38 C 0.27894 0.45649 0.14002 0.0
C39 C 0.28046 0.4766 0.15843 0.0
C40 C 0.26158 0.47788 0.16429 0.0
C41 C 0.2408 0.45921 0.15084 0.0
C42 C 0.2395 0.43944 0.12979 0.0
C43 C 0.25838 0.4381 0.12486 0.0
C44 C 0.15507 0.46645 0.22374 0.0
C45 C 0.16766 0.48759 0.25172 0.0
C46 C 0.16092 0.4931 0.30141 0.0
C47 C 0.14146 0.4776 0.32379 0.0
C48 C 0.12916 0.45642 0.29563 0.0
C49 C 0.13595 0.45096 0.24635 0.0
C50 C 0.15274 0.46464 0.12028 0.0
C51 C 0.1595 0.48626 0.10601 0.0
C52 C 0.15208 0.48984 0.05436 0.0
C53 C 0.13743 0.47187 0.01696 0.0
C54 C 0.13042 0.4503 0.03182 0.0
C55 C 0.13817 0.44676 0.08285 0.0
C56 C 0.18157 0.46118 0.17101 0.0
C57 C 0.20048 0.48006 0.15674 0.0
C58 C 0.21972 0.47949 0.15043 0.0
C59 C 0.22057 0.46019 0.15933 0.0
C60 C 0.2018 0.4417 0.17615 0.0
C61 C 0.18251 0.44219 0.18151 0.0
H62 H 0.69582 0.11317 0.20497 0.0
N63 N 0.70728 0.14884 0.14982 0.0
H64 H 0.67728 0.10373 0.29219 0.0
H65 H 0.69635 0.17496 0.21338 0.0
H66 H 0.67715 0.16542 0.30008 0.0
H67 H 0.67473 0.15787 0.12276 0.0
H68 H 0.64963 0.14366 0.03843 0.0
H69 H 0.70751 0.124 0.06267 0.0
H70 H 0.68296 0.11032 0.97675 0.0
H71 H 0.74602 0.15487 0.18383 0.0
H72 H 0.71457 0.18847 0.11418 0.0
H73 H 0.7816 0.18781 0.17896 0.0
H74 H 0.7501 0.22107 0.10545 0.0
H75 H 0.87702 0.28578 0.22926 0.0
H76 H 0.895 0.31847 0.29656 0.0
H77 H 0.86736 0.35005 0.19835 0.0
H78 H 0.84916 0.3174 0.13227 0.0
H79 H 0.83954 0.29557 0.04589 0.0
H80 H 0.86143 0.31826 0.97315 0.0
H81 H 0.91325 0.30577 0.02498 0.0
H82 H 0.89177 0.28454 0.10021 0.0
H83 H 0.84271 0.23935 0.11136 0.0
H84 H 0.80622 0.20745 0.11341 0.0
H85 H 0.78116 0.25117 0.15242 0.0
N86 N 0.8551 0.28151 0.13196 0.0
H87 H 0.81734 0.28285 0.1464 0.0
C88 C 0.69725 0.14456 0.20256 0.0
C89 C 0.6919 0.12467 0.22584 0.0
C90 C 0.68123 0.11931 0.27546 0.0
C91 C 0.6755 0.13371 0.30279 0.0
C92 C 0.68144 0.15402 0.28025 0.0
C93 C 0.69225 0.15942 0.2305 0.0
C94 C 0.69278 0.14162 0.09941 0.0
C95 C 0.67662 0.14747 0.09127 0.0
C96 C 0.66242 0.13953 0.04255 0.0
C97 C 0.6642 0.12576 0.00079 0.0
C98 C 0.68088 0.12057 0.0084 0.0
C99 C 0.69496 0.1284 0.05728 0.0
C100 C 0.72775 0.16907 0.14872 0.0
C101 C 0.74688 0.16938 0.16718 0.0
C102 C 0.7672 0.18817 0.16365 0.0
C103 C 0.76886 0.20706 0.14066 0.0
C104 C 0.74952 0.20692 0.12357 0.0
C105 C 0.72914 0.18818 0.12809 0.0
C106 C 0.86192 0.29911 0.17557 0.0
C107 C 0.87438 0.29952 0.22322 0.0
C108 C 0.88463 0.31817 0.26141 0.0
C109 C 0.88269 0.3368 0.25209 0.0
C110 C 0.86928 0.33597 0.20599 0.0
C111 C 0.85884 0.31724 0.16826 0.0
C112 C 0.86436 0.28891 0.07925 0.0
C113 C 0.85546 0.29744 0.04084 0.0
C114 C 0.868 0.31032 0.99899 0.0
C115 C 0.88941 0.3144 0.99418 0.0
C116 C 0.89715 0.30363 0.02871 0.0
C117 C 0.8848 0.2912 0.07114 0.0
C118 C 0.83294 0.26345 0.12958 0.0
C119 C 0.82924 0.24198 0.11966 0.0
C120 C 0.80839 0.22378 0.12158 0.0
C121 C 0.79071 0.22663 0.1344 0.0
C122 C 0.7943 0.24826 0.14228 0.0
C123 C 0.81516 0.26651 0.13932 0.0
H124 H 0.60093 0.89748 0.97097 0.0
N125 N 0.5851 0.86828 0.04736 0.0
H126 H 0.58005 0.90639 0.90329 0.0
H127 H 0.54121 0.84224 0.01744 0.0
H128 H 0.52013 0.85199 0.95221 0.0
H129 H 0.54971 0.86137 0.10498 0.0
H130 H 0.54959 0.88431 0.18342 0.0
H131 H 0.61959 0.90224 0.104 0.0
H132 H 0.61961 0.92548 0.18452 0.0
H133 H 0.61053 0.85597 0.9985 0.0
H134 H 0.55753 0.83334 0.10708 0.0
H135 H 0.61161 0.82196 0.00809 0.0
H136 H 0.55942 0.80026 0.12001 0.0
H137 H 0.61915 0.71779 0.05691 0.0
H138 H 0.60916 0.68654 0.98815 0.0
H139 H 0.54581 0.68002 0.95479 0.0
H140 H 0.5558 0.71107 0.02279 0.0
H141 H 0.55093 0.7018 0.12031 0.0
H142 H 0.54113 0.67489 0.19 0.0
H143 H 0.60886 0.70505 0.25088 0.0
H144 H 0.61869 0.73226 0.18046 0.0
H145 H 0.62495 0.77159 0.08486 0.0
H146 H 0.62265 0.80481 0.07306 0.0
H147 H 0.55255 0.76639 0.07907 0.0
N148 N 0.59279 0.73112 0.09547 0.0
H149 H 0.55526 0.73392 0.09462 0.0
C150 C 0.57267 0.86956 -0.00014 0.0
C151 C 0.58337 0.88698 0.9655 0.0
C152 C 0.57144 0.89205 0.92713 0.0
C153 C 0.54856 0.87995 0.92327 0.0
C154 C 0.53779 0.86156 0.95488 0.0
C155 C 0.54982 0.85609 0.99221 0.0
C156 C 0.58479 0.87997 0.09843 0.0
C157 C 0.56517 0.87499 0.12219 0.0
C158 C 0.5651 0.88817 0.16756 0.0
C159 C 0.5846 0.90668 0.19032 0.0
C160 C 0.60431 0.91138 0.16758 0.0
C161 C 0.60436 0.89808 0.12204 0.0
C162 C 0.58428 0.84749 0.05252 0.0
C163 C 0.59922 0.84371 0.02464 0.0
C164 C 0.59994 0.82436 0.03072 0.0
C165 C 0.58582 0.80841 0.06557 0.0
C166 C 0.57044 0.81201 0.09244 0.0
C167 C 0.5695 0.83121 0.08551 0.0
C168 C 0.58833 0.71681 0.04536 0.0
C169 C 0.60339 0.71006 0.03331 0.0
C170 C 0.59763 0.69218 0.99438 0.0
C171 C 0.57658 0.68069 0.96711 0.0
C172 C 0.56201 0.6884 0.97615 0.0
C173 C 0.56783 0.70635 0.01478 0.0
C174 C 0.58569 0.71931 0.14527 0.0
C175 C 0.56366 0.70344 0.15005 0.0
C176 C 0.55802 0.68784 0.18985 0.0
C177 C 0.57428 0.68769 0.2252 0.0
C178 C 0.59604 0.70462 0.2235 0.0
C179 C 0.60165 0.72031 0.1839 0.0
C180 C 0.59041 0.75021 0.09019 0.0
C181 C 0.60914 0.77047 0.08401 0.0
C182 C 0.60772 0.78937 0.07663 0.0
C183 C 0.58736 0.78832 0.07443 0.0
C184 C 0.56855 0.76796 0.08114 0.0
C185 C 0.57007 0.74915 0.0895 0.0
H186 H 0.83608 0.50346 0.11397 0.0
N187 N 0.84224 0.54235 0.07584 0.0
H188 H 0.84964 0.49876 0.20535 0.0
H189 H 0.86706 0.5736 0.15621 0.0
H190 H 0.88138 0.56905 0.24729 0.0
H191 H 0.82726 0.50259 0.01555 0.0
H192 H 0.84411 0.49552 0.93555 0.0
H193 H 0.87515 0.57182 0.02264 0.0
H194 H 0.89166 0.56516 0.94148 0.0
H195 H 0.83055 0.57185 0.05372 0.0
H196 H 0.80438 0.50408 0.09156 0.0
H197 H 0.79437 0.5678 0.05725 0.0
H198 H 0.76857 0.5002 0.09917 0.0
H199 H 0.66758 0.54264 0.11579 0.0
H200 H 0.64701 0.53637 0.19833 0.0
H201 H 0.67693 0.50065 0.2657 0.0
H202 H 0.69597 0.5053 0.18 0.0
H203 H 0.66349 0.48799 0.05403 0.0
H204 H 0.64157 0.47735 0.9636 0.0
H205 H 0.67804 0.54497 0.91961 0.0
H206 H 0.70006 0.55512 0.00915 0.0
H207 H 0.73465 0.56336 0.12678 0.0
H208 H 0.77003 0.56553 0.12278 0.0
H209 H 0.73759 0.49759 0.05324 0.0
N210 N 0.69571 0.52946 0.09177 0.0
H211 H 0.70235 0.49531 0.06124 0.0
C212 C 0.85043 0.53895 0.12852 0.0
C213 C 0.84564 0.51784 0.14294 0.0
C214 C 0.85335 0.51514 0.19524 0.0
C215 C 0.86634 0.53352 0.23336 0.0
C216 C 0.87131 0.55462 0.21862 0.0
C217 C 0.86324 0.55725 0.16679 0.0
C218 C 0.85021 0.53775 0.02542 0.0
C219 C 0.84126 0.5163 0.99949 0.0
C220 C 0.8508 0.51233 0.95335 0.0
C221 C 0.86939 0.52975 0.93232 0.0
C222 C 0.87764 0.5513 0.95713 0.0
C223 C 0.86818 0.55519 0.00325 0.0
C224 C 0.82029 0.53847 0.073 0.0
C225 C 0.81695 0.5561 0.06279 0.0
C226 C 0.7963 0.55379 0.06568 0.0
C227 C 0.7785 0.53378 0.07976 0.0
C228 C 0.78177 0.51583 0.08802 0.0
C229 C 0.8024 0.51808 0.08413 0.0
C230 C 0.68343 0.52461 0.14128 0.0
C231 C 0.66952 0.53323 0.14805 0.0
C232 C 0.658 0.5299 0.19603 0.0
C233 C 0.6606 0.51845 0.24001 0.0
C234 C 0.67435 0.50948 0.23294 0.0
C235 C 0.68547 0.51231 0.18385 0.0
C236 C 0.68325 0.5224 0.03806 0.0
C237 C 0.66686 0.50036 0.02438 0.0
C238 C 0.65436 0.49436 0.97283 0.0
C239 C 0.65805 0.5103 0.93422 0.0
C240 C 0.67498 0.53217 0.94769 0.0
C241 C 0.68743 0.5381 0.99903 0.0
C242 C 0.71599 0.52936 0.09375 0.0
C243 C 0.73528 0.5489 0.11152 0.0
C244 C 0.75547 0.55015 0.10837 0.0
C245 C 0.75682 0.53188 0.08646 0.0
C246 C 0.7373 0.51199 0.07053 0.0
C247 C 0.71707 0.51067 0.07466 0.0
H248 H 0.16868 0.70586 0.19406 0.0
N249 N 0.15301 0.72047 0.10958 0.0
H250 H 0.14693 0.68279 0.26646 0.0
H251 H 0.11649 0.71738 0.1428 0.0
H252 H 0.09516 0.69575 0.21771 0.0
H253 H 0.13071 0.71668 0.01333 0.0
H254 H 0.11186 0.68399 0.94612 0.0
H255 H 0.15887 0.68452 0.1068 0.0
H256 H 0.13965 0.6518 0.0411 0.0
H257 H 0.19077 0.71935 0.09349 0.0
H258 H 0.16528 0.76249 0.13207 0.0
H259 H 0.22698 0.75124 0.08851 0.0
H260 H 0.20172 0.79453 0.13085 0.0
H261 H 0.33331 0.84557 0.12432 0.0
H262 H 0.35833 0.86044 0.20893 0.0
H263 H 0.32396 0.89301 0.26829 0.0
H264 H 0.2995 0.87866 0.18222 0.0
H265 H 0.31145 0.88987 0.04202 0.0
H266 H 0.3301 0.90009 0.95508 0.0
H267 H 0.33158 0.83912 0.94498 0.0
H268 H 0.31237 0.82883 0.03167 0.0
H269 H 0.29348 0.81428 0.12994 0.0
H270 H 0.25802 0.7813 0.13717 0.0
H271 H 0.22624 0.81455 0.0652 0.0
N272 N 0.30049 0.85399 0.09579 0.0
H273 H 0.26171 0.84778 0.06164 0.0
C274 C 0.14387 0.71281 0.16227 0.0
C275 C 0.15281 0.70401 0.19974 0.0
C276 C 0.14035 0.69091 0.24137 0.0
C277 C 0.11898 0.68685 0.24692 0.0
C278 C 0.11122 0.69786 0.21337 0.0
C279 C 0.12349 0.71052 0.17115 0.0
C280 C 0.14601 0.70307 0.06531 0.0
C281 C 0.13324 0.70283 0.01855 0.0
C282 C 0.12248 0.68419 0.98047 0.0
C283 C 0.12417 0.66538 0.98911 0.0
C284 C 0.13794 0.66605 0.03406 0.0
C285 C 0.14896 0.68481 0.07156 0.0
C286 C 0.17513 0.73858 0.11205 0.0
C287 C 0.19294 0.73565 0.10153 0.0
C288 C 0.2138 0.754 0.09915 0.0
C289 C 0.21732 0.77558 0.10827 0.0
C290 C 0.1996 0.77826 0.12174 0.0
C291 C 0.17878 0.75998 0.12316 0.0
C292 C 0.31476 0.86137 0.14663 0.0
C293 C 0.33117 0.85591 0.15546 0.0
C294 C 0.34533 0.86424 0.20429 0.0
C295 C 0.34325 0.87804 0.24539 0.0
C296 C 0.32628 0.88276 0.23714 0.0
C297 C 0.31224 0.87454 0.1882 0.0
C298 C 0.31072 0.85879 0.04338 0.0
C299 C 0.31571 0.8787 0.02077 0.0
C300 C 0.32643 0.8845 0.9713 0.0
C301 C 0.33253 0.87051 0.9434 0.0
C302 C 0.32699 0.85019 0.9653 0.0
C303 C 0.31618 0.84437 0.015 0.0
C304 C 0.28012 0.83362 0.09619 0.0
C305 C 0.27886 0.81446 0.11603 0.0
C306 C 0.25852 0.79552 0.11969 0.0
C307 C 0.23913 0.79529 0.10264 0.0
C308 C 0.24069 0.81426 0.08045 0.0
C309 C 0.26094 0.83321 0.0777 0.0
H310 H 0.55918 0.37203 0.10843 0.0
N311 N 0.53064 0.33402 0.1473 0.0
H312 H 0.55182 0.38881 0.029 0.0
H313 H 0.50081 0.3101 0.05602 0.0
H314 H 0.49358 0.32683 0.97765 0.0
H315 H 0.49614 0.34135 0.12977 0.0
H316 H 0.48685 0.36327 0.1905 0.0
H317 H 0.54705 0.35054 0.25251 0.0
H318 H 0.53612 0.37072 0.31729 0.0
H319 H 0.55311 0.31314 0.15696 0.0
H320 H 0.48769 0.30243 0.15361 0.0
H321 H 0.53903 0.27396 0.16971 0.0
H322 H 0.4734 0.26334 0.16359 0.0
H323 H 0.49769 0.16463 0.12976 0.0
H324 H 0.4897 0.13763 0.05234 0.0
H325 H 0.42175 0.11934 0.04551 0.0
H326 H 0.42998 0.14707 0.12397 0.0
H327 H 0.44205 0.14487 0.2555 0.0
H328 H 0.45145 0.12575 0.3253 0.0
H329 H 0.51889 0.16262 0.28738 0.0
H330 H 0.50961 0.18255 0.2197 0.0
H331 H 0.50439 0.19957 0.12839 0.0
H332 H 0.51929 0.23874 0.12114 0.0
H333 H 0.47072 0.23754 0.22702 0.0
N334 N 0.46802 0.17189 0.18352 0.0
H335 H 0.45502 0.19773 0.23141 0.0
C336 C 0.53033 0.34005 0.09002 0.0
C337 C 0.54539 0.36176 0.07855 0.0
C338 C 0.54112 0.37137 0.03328 0.0
C339 C 0.52177 0.35923 0.99845 0.0
C340 C 0.50835 0.33664 0.00491 0.0
C341 C 0.51261 0.32704 0.05007 0.0
C342 C 0.52288 0.34474 0.18581 0.0
C343 C 0.50524 0.34785 0.17022 0.0
C344 C 0.49962 0.36023 0.20581 0.0
C345 C 0.51075 0.36905 0.25916 0.0
C346 C 0.52756 0.36485 0.27596 0.0
C347 C 0.53369 0.35304 0.23936 0.0
C348 C 0.52159 0.31076 0.15417 0.0
C349 C 0.53572 0.30228 0.15861 0.0
C350 C 0.52759 0.27988 0.16554 0.0
C351 C 0.50503 0.2654 0.16761 0.0
C352 C 0.49088 0.27399 0.16328 0.0
C353 C 0.49905 0.29641 0.15714 0.0
C354 C 0.46443 0.15829 0.1324 0.0
C355 C 0.48117 0.15548 0.11099 0.0
C356 C 0.47657 0.13988 0.06648 0.0
C357 C 0.45513 0.12645 0.04275 0.0
C358 C 0.43843 0.12949 0.06317 0.0
C359 C 0.44312 0.14538 0.10749 0.0
C360 C 0.47498 0.16481 0.23193 0.0
C361 C 0.45896 0.14936 0.26373 0.0
C362 C 0.46433 0.13845 0.30329 0.0
C363 C 0.48582 0.14264 0.31093 0.0
C364 C 0.50218 0.15909 0.28168 0.0
C365 C 0.49687 0.1704 0.24305 0.0
C366 C 0.47814 0.19542 0.17974 0.0
C367 C 0.4967 0.20746 0.14979 0.0
C368 C 0.50548 0.23014 0.14618 0.0
C369 C 0.49618 0.2414 0.17319 0.0
C370 C 0.47804 0.2294 0.20455 0.0
C371 C 0.46912 0.20667 0.20749 0.0
C372 C 0.98619 0.43985 0.7647 0.0
C373 C 0.04991 0.4857 0.7128 0.0
C374 C 0.02235 0.54397 0.71207 0.0
Mg375 Mg 0.00508 0.45646 0.6501 0.0
O376 O 0.99567 0.47646 0.67086 0.0
Mg377 Mg 0.00835 0.49419 0.74473 0.0
Mg378 Mg 0.00285 0.50102 0.6218 0.0
O379 O 0.01021 0.5255 0.57238 0.0
Mg380 Mg 0.00163 0.54624 0.59194 0.0
Mg381 Mg 0.99762 0.50774 0.49837 0.0
C382 C 0.98314 0.45819 0.53128 0.0
C383 C 0.0387 0.50206 0.53795 0.0
O384 O 0.99239 0.45987 0.78286 0.0
O385 O 0.9892 0.43475 0.71481 0.0
O386 O 0.04045 0.49394 0.74117 0.0
O387 O 0.03988 0.47156 0.6709 0.0
O388 O 0.99079 0.44878 0.56282 0.0
O389 O 0.98366 0.47619 0.54764 0.0
C390 C 0.96604 0.49796 0.70524 0.0
O391 O 0.97239 0.50136 0.65502 0.0
O392 O 0.97678 0.49463 0.74425 0.0
O393 O 0.01465 0.54203 0.45985 0.0
O394 O 0.01839 0.56759 0.52737 0.0
O395 O 0.96619 0.50915 0.50051 0.0
C396 C 0.02136 0.5622 0.47773 0.0
O397 O 0.96712 0.53219 0.56934 0.0
O398 O 0.01524 0.55364 0.67981 0.0
C399 C 0.957 0.51799 0.52765 0.0
O400 O 0.0217 0.52588 0.6959 0.0
O401 O 0.03323 0.50038 0.58902 0.0
O402 O 0.02807 0.50543 0.4988 0.0
C403 C 0.4552 0.01439 0.77089 0.0
C404 C 0.4368 0.95317 0.67752 0.0
C405 C 0.52261 0.97917 0.70118 0.0
Mg406 Mg 0.45621 0.00109 0.64549 0.0
O407 O 0.48418 0.00783 0.67391 0.0
Mg408 Mg 0.48624 0.99167 0.73875 0.0
Mg409 Mg 0.50339 0.00338 0.62317 0.0
O410 O 0.52265 0.99901 0.57215 0.0
Mg411 Mg 0.55071 0.00639 0.60092 0.0
Mg412 Mg 0.52064 0.01545 0.50779 0.0
C413 C 0.48464 0.0284 0.54595 0.0
C414 C 0.47327 0.97132 0.51295 0.0
O415 O 0.46729 0.00623 0.78533 0.0
O416 O 0.44952 0.01469 0.71928 0.0
O417 O 0.45379 0.9604 0.7114 0.0
O418 O 0.43445 0.96574 0.64421 0.0
O419 O 0.4665 0.01973 0.56983 0.0
O420 O 0.50079 0.02616 0.56317 0.0
C421 C 0.53367 0.03552 0.7333 0.0
O422 O 0.53237 0.03199 0.67946 0.0
O423 O 0.51832 0.02269 0.76282 0.0
O424 O 0.54025 0.00176 0.46101 0.0
O425 O 0.55842 0.99377 0.52721 0.0
O426 O 0.55298 0.04691 0.53507 0.0
C427 C 0.55294 0.9943 0.47558 0.0
O428 O 0.5722 0.04169 0.60272 0.0
O429 O 0.54066 0.9881 0.67687 0.0
C430 C 0.56993 0.0542 0.5691 0.0
O431 O 0.506 0.98059 0.68362 0.0
O432 O 0.47448 0.97482 0.56678 0.0
O433 O 0.48864 0.9842 0.4835 0.0
C434 C 0.54031 0.55986 0.45968 0.0
C435 C 0.55878 0.51348 0.51534 0.0
C436 C 0.47774 0.45776 0.53901 0.0
Mg437 Mg 0.54776 0.54556 0.57652 0.0
O438 O 0.51742 0.52731 0.56062 0.0
Mg439 Mg 0.50847 0.50708 0.49043 0.0
Mg440 Mg 0.50296 0.50502 0.61615 0.0
O441 O 0.48963 0.48293 0.67216 0.0
Mg442 Mg 0.46104 0.459 0.6616 0.0
Mg443 Mg 0.49921 0.50285 0.74291 0.0
C444 C 0.53082 0.55007 0.69643 0.0
C445 C 0.54268 0.50668 0.69405 0.0
O446 O 0.52514 0.53989 0.44452 0.0
O447 O 0.55084 0.56537 0.50824 0.0
O448 O 0.54 0.50586 0.48961 0.0
O449 O 0.56522 0.52816 0.55656 0.0
O450 O 0.54601 0.55719 0.66204 0.0
O451 O 0.51229 0.53231 0.68565 0.0
C452 C 0.46544 0.50622 0.53563 0.0
O453 O 0.47081 0.50423 0.58633 0.0
O454 O 0.47728 0.5079 0.49499 0.0
O455 O 0.48793 0.47098 0.78978 0.0
O456 O 0.4651 0.44195 0.72955 0.0
O457 O 0.46505 0.49887 0.74707 0.0
C458 C 0.47641 0.45006 0.77677 0.0
O459 O 0.43998 0.47171 0.68691 0.0
O460 O 0.46381 0.44797 0.57566 0.0
C461 C 0.44541 0.48732 0.7253 0.0
O462 O 0.4932 0.47788 0.54787 0.0
O463 O 0.53515 0.50571 0.64354 0.0
O464 O 0.53215 0.50615 0.7366 0.0
C465 C 0.12139 0.46811 0.41217 0.0
C466 C 0.13285 0.48371 0.37347 0.0
C467 C 0.10919 0.47184 0.45164 0.0
C468 C 0.10855 0.49172 0.45282 0.0
C469 C 0.12208 0.50852 0.41842 0.0
C470 C 0.13393 0.50428 0.37887 0.0
C471 C 0.09528 0.45359 0.48804 0.0
C472 C 0.12231 0.53019 0.4193 0.0
C473 C 0.0541 0.48835 0.46608 0.0
C474 C 0.05627 0.498 0.52057 0.0
C475 C 0.07071 0.48558 0.44486 0.0
C476 C 0.0903 0.49283 0.4787 0.0
C477 C 0.09234 0.50174 0.53484 0.0
C478 C 0.07516 0.50412 0.55537 0.0
C479 C 0.06741 0.47542 0.38532 0.0
C480 C 0.1129 0.50963 0.57241 0.0
H481 H 0.12102 0.45244 0.40969 0.0
H482 H 0.14276 0.51653 0.34954 0.0
H483 H 0.09558 0.46035 0.53129 0.0
H484 H 0.07811 0.44495 0.46993 0.0
H485 H 0.10073 0.44127 0.49053 0.0
H486 H 0.1364 0.54287 0.39835 0.0
H487 H 0.10707 0.5276 0.39692 0.0
H488 H 0.12295 0.53657 0.46322 0.0
H489 H 0.03929 0.48305 0.43943 0.0
H490 H 0.07683 0.51146 0.59764 0.0
H491 H 0.07027 0.46122 0.38484 0.0
H492 H 0.07935 0.48775 0.35871 0.0
H493 H 0.05073 0.46955 0.36585 0.0
H494 H 0.11957 0.49837 0.56697 0.0
H495 H 0.11007 0.51107 0.61752 0.0
H496 H 0.12546 0.52615 0.56081 0.0
C497 C 0.64497 0.10514 0.35287 0.0
C498 C 0.66235 0.12685 0.35275 0.0
C499 C 0.63231 0.09798 0.39914 0.0
C500 C 0.63698 0.11293 0.44678 0.0
C501 C 0.65441 0.13496 0.44701 0.0
C502 C 0.66692 0.14168 0.3999 0.0
C503 C 0.61377 0.07434 0.3967 0.0
C504 C 0.65986 0.15133 0.49698 0.0
C505 C 0.58608 0.08985 0.52423 0.0
C506 C 0.58911 0.07554 0.55789 0.0
C507 C 0.6028 0.10462 0.49267 0.0
C508 C 0.623 0.10506 0.49507 0.0
C509 C 0.62721 0.09328 0.53578 0.0
C510 C 0.61017 0.07866 0.56704 0.0
C511 C 0.59768 0.11729 0.45102 0.0
C512 C 0.64867 0.09366 0.54084 0.0
H513 H 0.64102 0.09371 0.3162 0.0
H514 H 0.68043 0.15845 0.40025 0.0
H515 H 0.61604 0.06589 0.43241 0.0
H516 H 0.59807 0.07399 0.40059 0.0
H517 H 0.61252 0.06478 0.35684 0.0
H518 H 0.67321 0.16811 0.48946 0.0
H519 H 0.64524 0.15233 0.50711 0.0
H520 H 0.66492 0.14571 0.53451 0.0
H521 H 0.56995 0.08786 0.51786 0.0
H522 H 0.61281 0.06792 0.5936 0.0
H523 H 0.59266 0.10784 0.40921 0.0
H524 H 0.61216 0.13365 0.44623 0.0
H525 H 0.58411 0.11973 0.4639 0.0
H526 H 0.6487 0.08225 0.50698 0.0
H527 H 0.65128 0.08821 0.58205 0.0
H528 H 0.66253 0.1104 0.53581 0.0
C529 C 0.5506 0.65994 0.29069 0.0
C530 C 0.56886 0.6686 0.25883 0.0
C531 C 0.545 0.64132 0.32083 0.0
C532 C 0.5579 0.63109 0.31852 0.0
C533 C 0.57613 0.63956 0.28563 0.0
C534 C 0.58143 0.65827 0.25633 0.0
C535 C 0.52558 0.63285 0.35599 0.0
C536 C 0.59018 0.62902 0.2819 0.0
C537 C 0.55949 0.59978 0.4419 0.0
C538 C 0.54518 0.57772 0.42184 0.0
C539 C 0.5636 0.61721 0.40874 0.0
C540 C 0.55334 0.61256 0.35377 0.0
C541 C 0.5391 0.59038 0.33271 0.0
C542 C 0.5351 0.57317 0.36715 0.0
C543 C 0.57883 0.64066 0.43281 0.0
C544 C 0.52807 0.58487 0.27396 0.0
H545 H 0.54086 0.6679 0.29255 0.0
H546 H 0.59526 0.66462 0.23064 0.0
H547 H 0.51411 0.61508 0.34407 0.0
H548 H 0.53107 0.63438 0.4011 0.0
H549 H 0.51665 0.64203 0.35116 0.0
H550 H 0.60304 0.6369 0.25196 0.0
H551 H 0.59818 0.63032 0.32404 0.0
H552 H 0.57994 0.61119 0.26834 0.0
H553 H 0.56734 0.60359 0.48415 0.0
H554 H 0.52402 0.55621 0.3513 0.0
H555 H 0.57018 0.6502 0.43249 0.0
H556 H 0.59282 0.64893 0.40636 0.0
H557 H 0.58528 0.64146 0.47668 0.0
H558 H 0.51779 0.59262 0.26943 0.0
H559 H 0.51765 0.56678 0.26366 0.0
H560 H 0.54051 0.59173 0.24268 0.0
C561 C 0.86254 0.51584 0.32443 0.0
C562 C 0.87583 0.53083 0.28681 0.0
C563 C 0.87171 0.51228 0.3735 0.0
C564 C 0.89469 0.52344 0.38389 0.0
C565 C 0.90809 0.539 0.34653 0.0
C566 C 0.89846 0.54267 0.29882 0.0
C567 C 0.85684 0.49611 0.41311 0.0
C568 C 0.93269 0.55103 0.35544 0.0
C569 C 0.92879 0.5295 0.51696 0.0
C570 C 0.93603 0.51473 0.50233 0.0
C571 C 0.91325 0.53093 0.48147 0.0
C572 C 0.90515 0.51753 0.4301 0.0
C573 C 0.91048 0.50085 0.41873 0.0
C574 C 0.92563 0.49947 0.4554 0.0
C575 C 0.90715 0.5482 0.4964 0.0
C576 C 0.9022 0.48611 0.36463 0.0
H577 H 0.84499 0.50683 0.31525 0.0
H578 H 0.9087 0.55416 0.26949 0.0
H579 H 0.85683 0.48034 0.40662 0.0
H580 H 0.86265 0.50249 0.45763 0.0
H581 H 0.83978 0.49258 0.40586 0.0
H582 H 0.9407 0.56294 0.32316 0.0
H583 H 0.93806 0.56015 0.39761 0.0
H584 H 0.93847 0.53894 0.35386 0.0
H585 H 0.93645 0.54113 0.55359 0.0
H586 H 0.93073 0.48763 0.4444 0.0
H587 H 0.88965 0.54197 0.48433 0.0
H588 H 0.91688 0.56295 0.47296 0.0
H589 H 0.91047 0.55342 0.54217 0.0
H590 H 0.88437 0.47905 0.35651 0.0
H591 H 0.90572 0.47234 0.36529 0.0
H592 H 0.91017 0.49604 0.32888 0.0
C593 C 0.36806 0.87697 0.32246 0.0
C594 C 0.35957 0.88862 0.29469 0.0
C595 C 0.38509 0.88758 0.36512 0.0
C596 C 0.39385 0.91036 0.38025 0.0
C597 C 0.38457 0.9219 0.35448 0.0
C598 C 0.36763 0.91092 0.31197 0.0
C599 C 0.39442 0.87468 0.39196 0.0
C600 C 0.39341 0.94621 0.36943 0.0
C601 C 0.43356 0.94182 0.50771 0.0
C602 C 0.45332 0.95293 0.48221 0.0
C603 C 0.41405 0.92691 0.47577 0.0
C604 C 0.41443 0.92296 0.4171 0.0
C605 C 0.43458 0.93294 0.39204 0.0
C606 C 0.4537 0.94775 0.42481 0.0
C607 C 0.39294 0.91645 0.50426 0.0
C608 C 0.43582 0.92899 0.32977 0.0
H609 H 0.36166 0.85963 0.3101 0.0
H610 H 0.3614 0.92016 0.29045 0.0
H611 H 0.41085 0.88007 0.37721 0.0
H612 H 0.3964 0.87794 0.43844 0.0
H613 H 0.384 0.85662 0.38128 0.0
H614 H 0.38302 0.9522 0.34982 0.0
H615 H 0.39468 0.94961 0.41577 0.0
H616 H 0.41007 0.95585 0.35492 0.0
H617 H 0.43313 0.94543 0.55201 0.0
H618 H 0.46893 0.95588 0.40472 0.0
H619 H 0.38367 0.92485 0.49344 0.0
H620 H 0.3958 0.91781 0.55084 0.0
H621 H 0.3826 0.89876 0.48937 0.0
H622 H 0.42726 0.91104 0.31716 0.0
H623 H 0.45292 0.93648 0.31784 0.0
H624 H 0.42756 0.93621 0.30536 0.0
C625 C 0.48343 0.37878 0.29488 0.0
C626 C 0.50496 0.38278 0.29643 0.0
C627 C 0.47785 0.39186 0.32864 0.0
C628 C 0.4939 0.40867 0.36703 0.0
C629 C 0.51564 0.41289 0.36908 0.0
C630 C 0.52097 0.40017 0.33308 0.0
C631 C 0.45466 0.38738 0.32392 0.0
C632 C 0.53311 0.43025 0.41075 0.0
C633 C 0.48617 0.45337 0.44 0.0
C634 C 0.47859 0.44428 0.49106 0.0
C635 C 0.4903 0.44153 0.39786 0.0
C636 C 0.48759 0.4206 0.40829 0.0
C637 C 0.47953 0.41123 0.45943 0.0
C638 C 0.47473 0.42303 0.49972 0.0
C639 C 0.49815 0.45168 0.34299 0.0
C640 C 0.47712 0.38929 0.473 0.0
H641 H 0.47071 0.3652 0.26787 0.0
H642 H 0.53776 0.4039 0.33393 0.0
H643 H 0.44656 0.3802 0.36254 0.0
H644 H 0.45449 0.40303 0.32014 0.0
H645 H 0.44491 0.37575 0.28708 0.0
H646 H 0.54961 0.43297 0.40332 0.0
H647 H 0.53346 0.44619 0.40879 0.0
H648 H 0.52934 0.42506 0.45408 0.0
H649 H 0.48913 0.4698 0.43333 0.0
H650 H 0.46926 0.41615 0.53967 0.0
H651 H 0.48844 0.4396 0.30689 0.0
H652 H 0.5154 0.4561 0.33996 0.0
H653 H 0.497 0.46681 0.33904 0.0
H654 H 0.46598 0.37614 0.44054 0.0
H655 H 0.47067 0.38437 0.51482 0.0
H656 H 0.4932 0.39023 0.47267 0.0
C657 C 0.53909 0.89161 0.83456 0.0
C658 C 0.53643 0.88857 0.89182 0.0
C659 C 0.53196 0.90438 0.80709 0.0
C660 C 0.52252 0.9148 0.83824 0.0
C661 C 0.5184 0.91043 0.89517 0.0
C662 C 0.52531 0.89718 0.92128 0.0
C663 C 0.53616 0.90818 0.7459 0.0
C664 C 0.50858 0.92133 0.92996 0.0
C665 C 0.53898 0.96991 0.78183 0.0
C666 C 0.52056 0.96487 0.74661 0.0
C667 C 0.53908 0.95421 0.81589 0.0
C668 C 0.52045 0.93281 0.81351 0.0
C669 C 0.50118 0.92823 0.7815 0.0
C670 C 0.50139 0.94448 0.74869 0.0
C671 C 0.55976 0.96003 0.85092 0.0
C672 C 0.48099 0.90565 0.77787 0.0
H673 H 0.54774 0.88491 0.81204 0.0
H674 H 0.52351 0.89496 0.96586 0.0
H675 H 0.52154 0.90641 0.72198 0.0
H676 H 0.54975 0.92526 0.74255 0.0
H677 H 0.54063 0.89649 0.72587 0.0
H678 H 0.50242 0.91292 0.96906 0.0
H679 H 0.52123 0.93875 0.94209 0.0
H680 H 0.495 0.92149 0.90553 0.0
H681 H 0.55371 0.9858 0.78064 0.0
H682 H 0.48713 0.94056 0.72126 0.0
H683 H 0.56764 0.95133 0.83159 0.0
H684 H 0.55603 0.95459 0.89404 0.0
H685 H 0.57162 0.97806 0.85407 0.0
H686 H 0.48357 0.89413 0.75009 0.0
H687 H 0.4664 0.90596 0.76023 0.0
H688 H 0.4777 0.89897 0.81987 0.0
C689 C 0.65103 0.51471 0.8326 0.0
C690 C 0.64305 0.50494 0.88293 0.0
C691 C 0.63677 0.5135 0.78803 0.0
C692 C 0.61406 0.50234 0.79414 0.0
C693 C 0.60584 0.4906 0.84246 0.0
C694 C 0.62044 0.49209 0.88631 0.0
C695 C 0.64614 0.52572 0.73658 0.0
C696 C 0.58168 0.47816 0.85034 0.0
C697 C 0.57839 0.52514 0.74754 0.0
C698 C 0.56421 0.50897 0.70593 0.0
C699 C 0.59597 0.5242 0.77311 0.0
C700 C 0.59932 0.50648 0.75688 0.0
C701 C 0.58632 0.49131 0.71086 0.0
C702 C 0.56877 0.49274 0.6857 0.0
C703 C 0.6096 0.541 0.82128 0.0
C704 C 0.58962 0.47248 0.69145 0.0
H705 H 0.66849 0.52419 0.82904 0.0
H706 H 0.61407 0.48449 0.92491 0.0
H707 H 0.63592 0.51619 0.69775 0.0
H708 H 0.64641 0.54171 0.73995 0.0
H709 H 0.66308 0.5292 0.73237 0.0
H710 H 0.57781 0.46778 0.88671 0.0
H711 H 0.57589 0.49008 0.85765 0.0
H712 H 0.57244 0.46739 0.81191 0.0
H713 H 0.5748 0.53773 0.7628 0.0
H714 H 0.55767 0.48018 0.6536 0.0
H715 H 0.62723 0.54778 0.81608 0.0
H716 H 0.60596 0.5329 0.86149 0.0
H717 H 0.60631 0.55493 0.82465 0.0
H718 H 0.60717 0.4775 0.69435 0.0
H719 H 0.58273 0.4662 0.64739 0.0
H720 H 0.58117 0.45871 0.71888 0.0
C721 C 0.10944 0.6443 0.89543 0.0
C722 C 0.11012 0.64457 0.95419 0.0
C723 C 0.09476 0.62511 0.86196 0.0
C724 C 0.08012 0.60594 0.88806 0.0
C725 C 0.0812 0.60595 0.94744 0.0
C726 C 0.09634 0.62528 0.97988 0.0
C727 C 0.09449 0.62553 0.79865 0.0
C728 C 0.06583 0.58584 0.9766 0.0
C729 C 0.02919 0.57107 0.79234 0.0
C730 C 0.03394 0.55577 0.76644 0.0
C731 C 0.04328 0.5864 0.83569 0.0
C732 C 0.06275 0.5866 0.85278 0.0
C733 C 0.06661 0.56991 0.83033 0.0
C734 C 0.05203 0.55454 0.78747 0.0
C735 C 0.03818 0.60346 0.85997 0.0
C736 C 0.08704 0.56934 0.84743 0.0
H737 H 0.12025 0.65921 0.87575 0.0
H738 H 0.0968 0.62559 0.02546 0.0
H739 H 0.09579 0.6115 0.77975 0.0
H740 H 0.07878 0.62362 0.78164 0.0
H741 H 0.108 0.64116 0.78507 0.0
H742 H 0.06969 0.58809 0.02292 0.0
H743 H 0.04883 0.58226 0.96801 0.0
H744 H 0.06652 0.57118 0.95981 0.0
H745 H 0.015 0.57182 0.77668 0.0
H746 H 0.05579 0.54273 0.76753 0.0
H747 H 0.04928 0.6197 0.84398 0.0
H748 H 0.04089 0.60536 0.90656 0.0
H749 H 0.02108 0.5991 0.84831 0.0
H750 H 0.10005 0.57968 0.81999 0.0
H751 H 0.08415 0.55226 0.8421 0.0
H752 H 0.09305 0.57584 0.89175 0.0
C753 C 0.46403 0.11255 0.95545 0.0
C754 C 0.45035 0.10846 0.9995 0.0
C755 C 0.4618 0.09525 0.91876 0.0
C756 C 0.44545 0.07331 0.92631 0.0
C757 C 0.43092 0.06915 0.96907 0.0
C758 C 0.43354 0.08684 0.00528 0.0
C759 C 0.4775 0.10039 0.87326 0.0
C760 C 0.41325 0.04599 0.97813 0.0
C761 C 0.43518 0.0337 0.80024 0.0
C762 C 0.44949 0.02599 0.81454 0.0
C763 C 0.43253 0.04803 0.83783 0.0
C764 C 0.44452 0.05483 0.89088 0.0
C765 C 0.45774 0.04585 0.90718 0.0
C766 C 0.46003 0.03148 0.86883 0.0
C767 C 0.41806 0.05703 0.81922 0.0
C768 C 0.47069 0.05263 0.96363 0.0
H769 H 0.47687 0.12931 0.95058 0.0
H770 H 0.42308 0.08361 0.03967 0.0
H771 H 0.48753 0.09254 0.88098 0.0
H772 H 0.46838 0.09348 0.83154 0.0
H773 H 0.48862 0.11843 0.87147 0.0
H774 H 0.40187 0.04579 0.00906 0.0
H775 H 0.40374 0.03733 0.93779 0.0
H776 H 0.42078 0.03648 0.99386 0.0
H777 H 0.4267 0.02932 0.75867 0.0
H778 H 0.47102 0.02552 0.88044 0.0
H779 H 0.42835 0.07459 0.81048 0.0
H780 H 0.40753 0.05643 0.85302 0.0
H781 H 0.40751 0.04777 0.7805 0.0
H782 H 0.48391 0.07012 0.96452 0.0
H783 H 0.47817 0.04231 0.97242 0.0
H784 H 0.46014 0.05142 0.99793 0.0
C785 C 0.35187 0.45484 0.9215 0.0
C786 C 0.34743 0.47108 0.9431 0.0
C787 C 0.36625 0.45905 0.87901 0.0
C788 C 0.37576 0.47969 0.85521 0.0
C789 C 0.36982 0.49542 0.87291 0.0
C790 C 0.35609 0.49113 0.91733 0.0
C791 C 0.37227 0.44184 0.86209 0.0
C792 C 0.37872 0.5172 0.84669 0.0
C793 C 0.43247 0.49819 0.8099 0.0
C794 C 0.42818 0.4894 0.75363 0.0
C795 C 0.41565 0.49606 0.84255 0.0
C796 C 0.39399 0.48565 0.81792 0.0
C797 C 0.38982 0.47864 0.75969 0.0
C798 C 0.4069 0.48015 0.72849 0.0
C799 C 0.4209 0.50332 0.90469 0.0
C800 C 0.3672 0.46851 0.7309 0.0
H801 H 0.34459 0.43889 0.9389 0.0
H802 H 0.35287 0.5039 0.93305 0.0
H803 H 0.36896 0.43752 0.81604 0.0
H804 H 0.39 0.44858 0.87215 0.0
H805 H 0.36315 0.42647 0.88396 0.0
H806 H 0.36906 0.52534 0.85586 0.0
H807 H 0.39581 0.52846 0.86365 0.0
H808 H 0.3788 0.51484 0.80034 0.0
H809 H 0.44881 0.50534 0.82998 0.0
H810 H 0.40347 0.47349 0.685 0.0
H811 H 0.41267 0.48868 0.92957 0.0
H812 H 0.41469 0.51455 0.91661 0.0
H813 H 0.4387 0.51194 0.91681 0.0
H814 H 0.35774 0.45079 0.73883 0.0
H815 H 0.36772 0.46968 0.6846 0.0
H816 H 0.35837 0.47667 0.7475 0.0
C817 C 0.89676 0.33473 0.90601 0.0
C818 C 0.90441 0.33159 0.95806 0.0
C819 C 0.91046 0.35222 0.87439 0.0
C820 C 0.9324 0.36671 0.89492 0.0
C821 C 0.9404 0.3633 0.94656 0.0
C822 C 0.92628 0.34595 0.97771 0.0
C823 C 0.90133 0.35546 0.81957 0.0
C824 C 0.96377 0.37826 0.96956 0.0
C825 C 0.97235 0.40114 0.79029 0.0
C826 C 0.97377 0.4217 0.80093 0.0
C827 C 0.9592 0.38318 0.82116 0.0
C828 C 0.94692 0.38576 0.86302 0.0
C829 C 0.94848 0.40654 0.87448 0.0
C830 C 0.96206 0.42433 0.84361 0.0
C831 C 0.9583 0.36141 0.8086 0.0
C832 C 0.93544 0.40983 0.91845 0.0
H833 H 0.87999 0.32363 0.89015 0.0
H834 H 0.9323 0.34408 0.01843 0.0
H835 H 0.90261 0.37193 0.82195 0.0
H836 H 0.911 0.35506 0.7846 0.0
H837 H 0.88397 0.34264 0.80923 0.0
H838 H 0.96778 0.37255 0.00866 0.0
H839 H 0.97509 0.37917 0.93768 0.0
H840 H 0.96678 0.39525 0.97893 0.0
H841 H 0.98146 0.39904 0.75755 0.0
H842 H 0.96292 0.44011 0.85164 0.0
H843 H 0.94142 0.34849 0.79382 0.0
H844 H 0.9628 0.35604 0.84753 0.0
H845 H 0.96941 0.36235 0.77598 0.0
H846 H 0.91775 0.39843 0.90763 0.0
H847 H 0.9385 0.42703 0.92225 0.0
H848 H 0.9395 0.40582 0.96011 0.0
C849 C 0.904 0.53604 0.89258 0.0
C850 C 0.88113 0.52536 0.88759 0.0
C851 C 0.9155 0.53111 0.85353 0.0
C852 C 0.90389 0.51499 0.80818 0.0
C853 C 0.88086 0.50475 0.80147 0.0
C854 C 0.86973 0.50998 0.8414 0.0
C855 C 0.94006 0.54239 0.86255 0.0
C856 C 0.86793 0.48767 0.75339 0.0
C857 C 0.94141 0.51415 0.69983 0.0
C858 C 0.94659 0.49893 0.72145 0.0
C859 C 0.92612 0.51844 0.72485 0.0
C860 C 0.91591 0.50725 0.77248 0.0
C861 C 0.91978 0.49054 0.79118 0.0
C862 C 0.93505 0.48662 0.76549 0.0
C863 C 0.92221 0.53614 0.70304 0.0
C864 C 0.90919 0.47803 0.84143 0.0
H865 H 0.91298 0.54769 0.92846 0.0
H866 H 0.85208 0.50187 0.83676 0.0
H867 H 0.94491 0.53009 0.87299 0.0
H868 H 0.94769 0.54959 0.82344 0.0
H869 H 0.94673 0.55573 0.89718 0.0
H870 H 0.8506 0.48349 0.74961 0.0
H871 H 0.87522 0.49363 0.71301 0.0
H872 H 0.86843 0.47236 0.76008 0.0
H873 H 0.95036 0.5238 0.66614 0.0
H874 H 0.9388 0.47462 0.78191 0.0
H875 H 0.93134 0.55142 0.73152 0.0
H876 H 0.90466 0.53105 0.70232 0.0
H877 H 0.92776 0.54006 0.66001 0.0
H878 H 0.91601 0.48934 0.88028 0.0
H879 H 0.91194 0.46391 0.84652 0.0
H880 H 0.89136 0.47169 0.8375 0.0
C881 C 0.34102 0.86338 0.84543 0.0
C882 C 0.3456 0.87782 0.89344 0.0
C883 C 0.35336 0.8706 0.79814 0.0
C884 C 0.37063 0.89274 0.79909 0.0
C885 C 0.37537 0.90727 0.84771 0.0
C886 C 0.36287 0.89962 0.8941 0.0
C887 C 0.34775 0.85466 0.7471 0.0
C888 C 0.39379 0.93099 0.85102 0.0
C889 C 0.42114 0.91706 0.71998 0.0
C890 C 0.41779 0.93162 0.68817 0.0
C891 C 0.40463 0.90183 0.7513 0.0
C892 C 0.38435 0.90119 0.7505 0.0
C893 C 0.37982 0.91329 0.71143 0.0
C894 C 0.39665 0.92838 0.68042 0.0
C895 C 0.41004 0.8888 0.79106 0.0
C896 C 0.35822 0.91265 0.70799 0.0
H897 H 0.32758 0.84654 0.84452 0.0
H898 H 0.36681 0.91075 0.93143 0.0
H899 H 0.34102 0.85977 0.71175 0.0
H900 H 0.3626 0.85491 0.7332 0.0
H901 H 0.33553 0.83748 0.7553 0.0
H902 H 0.39519 0.94014 0.89174 0.0
H903 H 0.40951 0.93152 0.84574 0.0
H904 H 0.39123 0.93973 0.81647 0.0
H905 H 0.43734 0.91911 0.72512 0.0
H906 H 0.39379 0.93932 0.65526 0.0
H907 H 0.39577 0.87213 0.79423 0.0
H908 H 0.41468 0.89755 0.83374 0.0
H909 H 0.42393 0.88703 0.77754 0.0
H910 H 0.34453 0.89569 0.71177 0.0
H911 H 0.35544 0.91865 0.66786 0.0
H912 H 0.35808 0.92345 0.74334 0.0
C913 C 0.5273 0.38637 0.92689 0.0
C914 C 0.51373 0.37083 0.96293 0.0
C915 C 0.52013 0.3987 0.89712 0.0
C916 C 0.49907 0.39559 0.90452 0.0
C917 C 0.48533 0.3799 0.94084 0.0
C918 C 0.49279 0.36762 0.96934 0.0
C919 C 0.53508 0.4151 0.85803 0.0
C920 C 0.46297 0.37646 0.95065 0.0
C921 C 0.49009 0.44267 0.86711 0.0
C922 C 0.47919 0.43498 0.81333 0.0
C923 C 0.49611 0.42973 0.89807 0.0
C924 C 0.49139 0.40879 0.87427 0.0
C925 C 0.47968 0.40059 0.82101 0.0
C926 C 0.47354 0.4137 0.79143 0.0
C927 C 0.50819 0.43879 0.95536 0.0
C928 C 0.47449 0.37839 0.79414 0.0
H929 H 0.54352 0.3889 0.92219 0.0
H930 H 0.48248 0.35599 0.99832 0.0
H931 H 0.52718 0.4107 0.81457 0.0
H932 H 0.53811 0.43186 0.87097 0.0
H933 H 0.55103 0.41571 0.85743 0.0
H934 H 0.45429 0.3635 0.98012 0.0
H935 H 0.46446 0.39213 0.96822 0.0
H936 H 0.45285 0.37168 0.91017 0.0
H937 H 0.49448 0.45906 0.88441 0.0
H938 H 0.46525 0.40763 0.74977 0.0
H939 H 0.52507 0.44179 0.95396 0.0
H940 H 0.50013 0.42662 0.98697 0.0
H941 H 0.50905 0.45453 0.96974 0.0
H942 H 0.48989 0.37848 0.78685 0.0
H943 H 0.46463 0.3741 0.75326 0.0
H944 H 0.46543 0.36524 0.82271 0.0
C945 C 0.14255 0.48853 0.92397 0.0
C946 C 0.12861 0.47549 0.96368 0.0
C947 C 0.13409 0.49209 0.87357 0.0
C948 C 0.11126 0.48289 0.86374 0.0
C949 C 0.09718 0.46967 0.90393 0.0
C950 C 0.10603 0.46592 0.95302 0.0
C951 C 0.14954 0.50599 0.83144 0.0
C952 C 0.07275 0.45993 0.89586 0.0
C953 C 0.08284 0.50655 0.77952 0.0
C954 C 0.07116 0.48942 0.73724 0.0
C955 C 0.09802 0.50599 0.81798 0.0
C956 C 0.10173 0.48794 0.81361 0.0
C957 C 0.09245 0.47243 0.76607 0.0
C958 C 0.07718 0.47331 0.72829 0.0
C959 C 0.10773 0.52328 0.86707 0.0
C960 C 0.09675 0.45348 0.75846 0.0
H961 H 0.16003 0.49579 0.93223 0.0
H962 H 0.09531 0.45596 0.98401 0.0
H963 H 0.14439 0.49713 0.78891 0.0
H964 H 0.14908 0.52152 0.82878 0.0
H965 H 0.16662 0.51028 0.84292 0.0
H966 H 0.06413 0.45005 0.93113 0.0
H967 H 0.06887 0.47336 0.89245 0.0
H968 H 0.06627 0.44915 0.85612 0.0
H969 H 0.07867 0.51938 0.78585 0.0
H970 H 0.0685 0.46018 0.69518 0.0
H971 H 0.12353 0.52571 0.8849 0.0
H972 H 0.09621 0.51801 0.90081 0.0
H973 H 0.11029 0.53939 0.85434 0.0
H974 H 0.11409 0.45893 0.77046 0.0
H975 H 0.09264 0.44611 0.71428 0.0
H976 H 0.08657 0.44044 0.78621 0.0
C977 C 0.63943 0.09347 0.93299 0.0
C978 C 0.64789 0.11575 0.95136 0.0
C979 C 0.62243 0.08303 0.89045 0.0
C980 C 0.61351 0.09507 0.86584 0.0
C981 C 0.62269 0.11784 0.882 0.0
C982 C 0.63978 0.12792 0.9246 0.0
C983 C 0.61317 0.05873 0.87424 0.0
C984 C 0.61374 0.13127 0.85635 0.0
C985 C 0.57343 0.06487 0.73834 0.0
C986 C 0.55372 0.05376 0.76404 0.0
C987 C 0.59306 0.07941 0.77027 0.0
C988 C 0.59285 0.08303 0.82916 0.0
C989 C 0.57276 0.07318 0.85448 0.0
C990 C 0.55351 0.05871 0.8217 0.0
C991 C 0.6141 0.08976 0.74146 0.0
C992 C 0.57169 0.07683 0.91699 0.0
H993 H 0.64539 0.08384 0.95369 0.0
H994 H 0.64651 0.14524 0.93775 0.0
H995 H 0.59649 0.04922 0.88875 0.0
H996 H 0.61182 0.05565 0.82778 0.0
H997 H 0.62332 0.05231 0.89301 0.0
H998 H 0.62443 0.14924 0.86782 0.0
H999 H 0.61173 0.12835 0.80978 0.0
H1000 H 0.59737 0.12605 0.87128 0.0
H1001 H 0.57372 0.06152 0.69387 0.0
H1002 H 0.53832 0.05062 0.84199 0.0
H1003 H 0.62281 0.0806 0.74995 0.0
H1004 H 0.62499 0.10717 0.75798 0.0
H1005 H 0.61114 0.08922 0.69512 0.0
H1006 H 0.57968 0.06916 0.94058 0.0
H1007 H 0.55464 0.0696 0.92914 0.0
H1008 H 0.58061 0.09473 0.93034 0.0
C1009 C 0.5822 0.65859 0.89128 0.0
C1010 C 0.56927 0.65984 0.93241 0.0
C1011 C 0.57513 0.63897 0.85754 0.0
C1012 C 0.55479 0.62016 0.86579 0.0
C1013 C 0.54202 0.62114 0.9086 0.0
C1014 C 0.54937 0.64104 0.94123 0.0
C1015 C 0.58908 0.63859 0.8118 0.0
C1016 C 0.52041 0.60132 0.91907 0.0
C1017 C 0.52724 0.58081 0.73647 0.0
C1018 C 0.53363 0.56516 0.7444 0.0
C1019 C 0.53343 0.59843 0.77676 0.0
C1020 C 0.54609 0.60017 0.8263 0.0
C1021 C 0.55157 0.58363 0.83579 0.0
C1022 C 0.54548 0.56636 0.79406 0.0
C1023 C 0.52751 0.61586 0.76471 0.0
C1024 C 0.56467 0.58475 0.88866 0.0
H1025 H 0.59759 0.67314 0.88455 0.0
H1026 H 0.53958 0.6419 0.97391 0.0
H1027 H 0.59234 0.62479 0.81615 0.0
H1028 H 0.58023 0.63575 0.76997 0.0
H1029 H 0.60493 0.65427 0.81275 0.0
H1030 H 0.51341 0.60426 0.95713 0.0
H1031 H 0.50858 0.5972 0.88224 0.0
H1032 H 0.52235 0.58672 0.92417 0.0
H1033 H 0.51834 0.57986 0.69729 0.0
H1034 H 0.55055 0.55425 0.79936 0.0
H1035 H 0.54258 0.63182 0.76035 0.0
H1036 H 0.5192 0.61842 0.80023 0.0
H1037 H 0.51668 0.61143 0.7255 0.0
H1038 H 0.5816 0.59876 0.88837 0.0
H1039 H 0.56532 0.56934 0.89254 0.0
H1040 H 0.55761 0.58776 0.92642 0.0
C1041 C 0.49782 0.11498 0.31872 0.0
C1042 C 0.49041 0.12811 0.34467 0.0
C1043 C 0.49903 0.09855 0.34745 0.0
C1044 C 0.49306 0.09557 0.40363 0.0
C1045 C 0.4867 0.10965 0.4309 0.0
C1046 C 0.48516 0.12559 0.40074 0.0
C1047 C 0.50548 0.0836 0.31669 0.0
C1048 C 0.48082 0.1074 0.49135 0.0
C1049 C 0.46984 0.04054 0.46741 0.0
C1050 C 0.48775 0.04355 0.50182 0.0
C1051 C 0.47178 0.05682 0.43227 0.0
C1052 C 0.49194 0.07685 0.43306 0.0
C1053 C 0.51033 0.07957 0.46594 0.0
C1054 C 0.5081 0.06265 0.49919 0.0
C1055 C 0.45194 0.05307 0.39656 0.0
C1056 C 0.53202 0.10077 0.46836 0.0
H1057 H 0.50159 0.11682 0.27499 0.0
H1058 H 0.47943 0.13581 0.42056 0.0
H1059 H 0.5186 0.08285 0.3417 0.0
H1060 H 0.49127 0.06657 0.31107 0.0
H1061 H 0.51117 0.08912 0.27458 0.0
H1062 H 0.47816 0.1209 0.50779 0.0
H1063 H 0.46568 0.0914 0.49472 0.0
H1064 H 0.49395 0.10745 0.51854 0.0
H1065 H 0.45414 0.02568 0.46916 0.0
H1066 H 0.52197 0.06504 0.52601 0.0
H1067 H 0.45615 0.05725 0.35278 0.0
H1068 H 0.44611 0.06404 0.41368 0.0
H1069 H 0.43836 0.0357 0.3955 0.0
H1070 H 0.539 0.1027 0.42684 0.0
H1071 H 0.54395 0.10117 0.50078 0.0
H1072 H 0.52987 0.11519 0.47785 0.0
C1073 C 0.36001 0.46085 0.35395 0.0
C1074 C 0.34947 0.47312 0.34835 0.0
C1075 C 0.37662 0.4668 0.39655 0.0
C1076 C 0.38251 0.48521 0.43524 0.0
C1077 C 0.37057 0.49644 0.43274 0.0
C1078 C 0.35442 0.49052 0.38853 0.0
C1079 C 0.38907 0.45448 0.3971 0.0
C1080 C 0.37571 0.51554 0.47451 0.0
C1081 C 0.42554 0.49167 0.54699 0.0
C1082 C 0.44454 0.50527 0.52057 0.0
C1083 C 0.4049 0.48633 0.52226 0.0
C1084 C 0.40351 0.49484 0.47035 0.0
C1085 C 0.42283 0.51027 0.44687 0.0
C1086 C 0.44304 0.51539 0.47254 0.0
C1087 C 0.3846 0.47066 0.54972 0.0
C1088 C 0.42223 0.51973 0.3915 0.0
H1089 H 0.35622 0.44743 0.32274 0.0
H1090 H 0.34603 0.49983 0.38455 0.0
H1091 H 0.40596 0.46551 0.38549 0.0
H1092 H 0.39022 0.44941 0.43992 0.0
H1093 H 0.38134 0.43952 0.36713 0.0
H1094 H 0.36192 0.5188 0.47564 0.0
H1095 H 0.37957 0.51234 0.51745 0.0
H1096 H 0.39022 0.53067 0.46245 0.0
H1097 H 0.42666 0.48401 0.5845 0.0
H1098 H 0.45776 0.5263 0.45267 0.0
H1099 H 0.3736 0.4563 0.51991 0.0
H1100 H 0.37553 0.47921 0.56124 0.0
H1101 H 0.38837 0.46448 0.58819 0.0
H1102 H 0.41542 0.50632 0.35706 0.0
H1103 H 0.43869 0.53267 0.38114 0.0
H1104 H 0.41149 0.527 0.39249 0.0
C1105 C 0.90927 0.37729 0.26295 0.0
C1106 C 0.89605 0.35758 0.2878 0.0
C1107 C 0.92389 0.39665 0.29609 0.0
C1108 C 0.9251 0.39622 0.35536 0.0
C1109 C 0.911 0.3766 0.38068 0.0
C1110 C 0.89676 0.35745 0.3465 0.0
C1111 C 0.93884 0.41713 0.26757 0.0
C1112 C 0.91157 0.37559 0.44386 0.0
C1113 C 0.97628 0.4315 0.44999 0.0
C1114 C 0.97118 0.44627 0.4774 0.0
C1115 C 0.96214 0.41622 0.40664 0.0
C1116 C 0.94228 0.41549 0.39119 0.0
C1117 C 0.9379 0.43155 0.41558 0.0
C1118 C 0.95258 0.44697 0.45819 0.0
C1119 C 0.96769 0.39975 0.38054 0.0
C1120 C 0.91691 0.43129 0.4001 0.0
H1121 H 0.90887 0.37731 0.21742 0.0
H1122 H 0.88639 0.34223 0.36561 0.0
H1123 H 0.93917 0.43186 0.28793 0.0
H1124 H 0.95572 0.42002 0.27187 0.0
H1125 H 0.93387 0.41565 0.22203 0.0
H1126 H 0.89828 0.3597 0.4569 0.0
H1127 H 0.92744 0.37759 0.45978 0.0
H1128 H 0.91012 0.3893 0.46433 0.0
H1129 H 0.99083 0.43118 0.46434 0.0
H1130 H 0.94861 0.4584 0.47938 0.0
H1131 H 0.96482 0.3982 0.33403 0.0
H1132 H 0.95695 0.38325 0.39576 0.0
H1133 H 0.98493 0.40444 0.39144 0.0
H1134 H 0.91394 0.43018 0.35369 0.0
H1135 H 0.917 0.4462 0.41845 0.0
H1136 H 0.90304 0.41649 0.41577 0.0
C1137 C 0.59539 0.94448 0.23235 0.0
C1138 C 0.58386 0.92151 0.23545 0.0
C1139 C 0.59269 0.95847 0.27113 0.0
C1140 C 0.57803 0.94918 0.31357 0.0
C1141 C 0.56699 0.92609 0.31813 0.0
C1142 C 0.57014 0.91256 0.2792 0.0
C1143 C 0.60492 0.98306 0.2655 0.0
C1144 C 0.55127 0.91558 0.363 0.0
C1145 C 0.57878 0.98221 0.44457 0.0
C1146 C 0.56091 0.9851 0.43164 0.0
C1147 C 0.58529 0.97155 0.40534 0.0
C1148 C 0.57347 0.96335 0.35222 0.0
C1149 C 0.55601 0.96704 0.33798 0.0
C1150 C 0.55001 0.97802 0.37782 0.0
C1151 C 0.60421 0.96823 0.42165 0.0
C1152 C 0.54297 0.95841 0.28175 0.0
H1153 H 0.60586 0.95147 0.19828 0.0
H1154 H 0.56149 0.89484 0.28229 0.0
H1155 H 0.59323 0.98856 0.25317 0.0
H1156 H 0.61342 0.99207 0.30651 0.0
H1157 H 0.61712 0.9878 0.23347 0.0
H1158 H 0.54443 0.89743 0.36163 0.0
H1159 H 0.55956 0.92291 0.40536 0.0
H1160 H 0.53756 0.91889 0.3575 0.0
H1161 H 0.58748 0.98794 0.48585 0.0
H1162 H 0.53621 0.98021 0.36757 0.0
H1163 H 0.61584 0.97337 0.38822 0.0
H1164 H 0.59813 0.95044 0.42617 0.0
H1165 H 0.61313 0.97765 0.462 0.0
H1166 H 0.55399 0.96383 0.24696 0.0
H1167 H 0.53096 0.96406 0.27565 0.0
H1168 H 0.53403 0.94009 0.27857 0.0
C1169 C 0.64469 0.53279 0.3115 0.0
C1170 C 0.64892 0.51611 0.29246 0.0
C1171 C 0.63135 0.52993 0.35577 0.0
C1172 C 0.62278 0.5103 0.38417 0.0
C1173 C 0.62854 0.4942 0.36876 0.0
C1174 C 0.64116 0.49708 0.32243 0.0
C1175 C 0.62541 0.54744 0.36983 0.0
C1176 C 0.62069 0.47347 0.39931 0.0
C1177 C 0.59585 0.51683 0.51217 0.0
C1178 C 0.57426 0.50781 0.4895 0.0
C1179 C 0.61161 0.5156 0.48051 0.0
C1180 C 0.60575 0.50584 0.42444 0.0
C1181 C 0.58357 0.4949 0.40367 0.0
C1182 C 0.56811 0.49571 0.43676 0.0
C1183 C 0.63477 0.52596 0.50576 0.0
C1184 C 0.57642 0.48405 0.34444 0.0
H1185 H 0.65134 0.54803 0.29074 0.0
H1186 H 0.64426 0.48401 0.30875 0.0
H1187 H 0.60746 0.54022 0.36335 0.0
H1188 H 0.63022 0.55366 0.4147 0.0
H1189 H 0.63338 0.56169 0.34353 0.0
H1190 H 0.63253 0.46748 0.39801 0.0
H1191 H 0.61811 0.4761 0.44396 0.0
H1192 H 0.60499 0.46026 0.37828 0.0
H1193 H 0.60071 0.52575 0.5534 0.0
H1194 H 0.55139 0.48824 0.41907 0.0
H1195 H 0.64466 0.54265 0.4907 0.0
H1196 H 0.64225 0.51598 0.49263 0.0
H1197 H 0.63559 0.5277 0.55251 0.0
H1198 H 0.58448 0.49661 0.31366 0.0
H1199 H 0.55847 0.47589 0.33513 0.0
H1200 H 0.58139 0.47148 0.33788 0.0
C1201 C 0.08212 0.65532 0.2635 0.0
C1202 C 0.10406 0.66953 0.28285 0.0
C1203 C 0.068 0.638 0.29469 0.0
C1204 C 0.07605 0.63446 0.34607 0.0
C1205 C 0.09809 0.64873 0.36615 0.0
C1206 C 0.1118 0.66619 0.33449 0.0
C1207 C 0.04453 0.62327 0.27217 0.0
C1208 C 0.10727 0.64533 0.42067 0.0
C1209 C 0.03611 0.60098 0.45177 0.0
C1210 C 0.03414 0.58017 0.44133 0.0
C1211 C 0.04947 0.61872 0.42056 0.0
C1212 C 0.0614 0.61566 0.37849 0.0
C1213 C 0.0593 0.59463 0.36725 0.0
C1214 C 0.04552 0.57706 0.39851 0.0
C1215 C 0.05094 0.64078 0.43291 0.0
C1216 C 0.07195 0.59081 0.32304 0.0
H1217 H 0.07604 0.65733 0.22304 0.0
H1218 H 0.12863 0.67717 0.35009 0.0
H1219 H 0.04118 0.60614 0.26332 0.0
H1220 H 0.0334 0.62277 0.30416 0.0
H1221 H 0.04057 0.62892 0.23288 0.0
H1222 H 0.12477 0.65784 0.43036 0.0
H1223 H 0.09795 0.64615 0.45602 0.0
H1224 H 0.10553 0.62867 0.41837 0.0
H1225 H 0.02724 0.60345 0.48459 0.0
H1226 H 0.04422 0.56107 0.39059 0.0
H1227 H 0.04644 0.64617 0.39403 0.0
H1228 H 0.06798 0.65347 0.44706 0.0
H1229 H 0.04013 0.64025 0.46592 0.0
H1230 H 0.06792 0.59486 0.2814 0.0
H1231 H 0.06848 0.57347 0.31944 0.0
H1232 H 0.08971 0.60192 0.33346 0.0
loop_
_geom_bond_atom_site_label_1
_geom_bond_atom_site_label_2
_geom_bond_distance
_geom_bond_site_symmetry_2
_ccdc_geom_bond_type
H0 C27 0.929 . S
N1 C26 1.433 . S
N1 C32 1.435 . S
N1 C38 1.423 . S
H2 C28 0.930 . S
H3 C31 0.931 . S
H4 C30 0.929 . S
H5 C33 0.930 . S
H6 C34 0.932 . S
H7 C37 0.929 . S
H8 C36 0.931 . S
H9 C39 0.929 . S
H10 C43 0.932 . S
H11 C40 0.931 . S
H12 C42 0.929 . S
H13 C45 0.929 . S
H14 C46 0.930 . S
H15 C48 0.929 . S
H16 C49 0.931 . S
H17 C51 0.930 . S
H18 C52 0.932 . S
H19 C54 0.931 1_556 S
H20 C55 0.929 . S
H21 C57 0.929 . S
H22 C58 0.931 . S
H23 C60 0.929 . S
N24 C44 1.433 . S
N24 C50 1.435 . S
N24 C56 1.423 . S
H25 C61 0.932 . S
C26 N1 1.433 . S
C26 C27 1.363 . S
C26 C31 1.370 . S
C27 H0 0.929 . S
C27 C26 1.363 . S
C27 C28 1.385 . S
C28 H2 0.930 . S
C28 C27 1.385 . S
C28 C29 1.357 . S
C29 C28 1.357 . S
C29 C30 1.406 . S
C30 H4 0.929 . S
C30 C29 1.406 . S
C30 C31 1.391 . S
C31 H3 0.931 . S
C31 C26 1.370 . S
C31 C30 1.391 . S
C32 N1 1.435 . S
C32 C33 1.358 . S
C32 C37 1.371 . S
C33 H5 0.930 . S
C33 C32 1.358 . S
C33 C34 1.405 . S
C34 H6 0.932 . S
C34 C33 1.405 . S
C34 C35 1.383 . S
C35 C34 1.383 . S
C35 C36 1.393 . S
C36 H8 0.931 . S
C36 C35 1.393 . S
C36 C37 1.382 . S
C37 H7 0.929 . S
C37 C32 1.371 . S
C37 C36 1.382 . S
C38 N1 1.423 . S
C38 C39 1.362 . S
C38 C43 1.388 . S
C39 H9 0.929 . S
C39 C38 1.362 . S
C39 C40 1.376 . S
C40 H11 0.931 . S
C40 C39 1.376 . S
C40 C41 1.396 . S
C41 C40 1.396 . S
C41 C42 1.348 . S
C41 C59 1.472 . S
C42 H12 0.929 . S
C42 C41 1.348 . S
C42 C43 1.443 . S
C43 H10 0.932 . S
C43 C38 1.388 . S
C43 C42 1.443 . S
C44 N24 1.433 . S
C44 C45 1.363 . S
C44 C49 1.370 . S
C45 H13 0.929 . S
C45 C44 1.363 . S
C45 C46 1.385 . S
C46 H14 0.930 . S
C46 C45 1.385 . S
C46 C47 1.357 . S
C47 C46 1.357 . S
C47 C48 1.406 . S
C48 H15 0.929 . S
C48 C47 1.406 . S
C48 C49 1.391 . S
C49 H16 0.931 . S
C49 C44 1.370 . S
C49 C48 1.391 . S
C50 N24 1.435 . S
C50 C51 1.358 . S
C50 C55 1.371 . S
C51 H17 0.930 . S
C51 C50 1.358 . S
C51 C52 1.405 . S
C52 H18 0.932 . S
C52 C51 1.405 . S
C52 C53 1.383 . S
C53 C52 1.383 . S
C53 C54 1.393 . S
C54 H19 0.931 1_554 S
C54 C53 1.393 . S
C54 C55 1.382 . S
C55 H20 0.929 . S
C55 C50 1.371 . S
C55 C54 1.382 . S
C56 N24 1.423 . S
C56 C57 1.362 . S
C56 C61 1.388 . S
C57 H21 0.929 . S
C57 C56 1.362 . S
C57 C58 1.376 . S
C58 H22 0.931 . S
C58 C57 1.376 . S
C58 C59 1.396 . S
C59 C41 1.472 . S
C59 C58 1.396 . S
C59 C60 1.348 . S
C60 H23 0.929 . S
C60 C59 1.348 . S
C60 C61 1.443 . S
C61 H25 0.932 . S
C61 C56 1.388 . S
C61 C60 1.443 . S
H62 C89 0.929 . S
N63 C88 1.433 . S
N63 C94 1.435 . S
N63 C100 1.423 . S
H64 C90 0.930 . S
H65 C93 0.931 . S
H66 C92 0.929 . S
H67 C95 0.930 . S
H68 C96 0.932 . S
H69 C99 0.929 . S
H70 C98 0.931 . S
H71 C101 0.929 . S
H72 C105 0.932 . S
H73 C102 0.931 . S
H74 C104 0.929 . S
H75 C107 0.929 . S
H76 C108 0.930 . S
H77 C110 0.929 . S
H78 C111 0.931 . S
H79 C113 0.930 . S
H80 C114 0.932 . S
H81 C116 0.931 1_556 S
H82 C117 0.929 . S
H83 C119 0.929 . S
H84 C120 0.931 . S
H85 C122 0.929 . S
N86 C106 1.433 . S
N86 C112 1.435 . S
N86 C118 1.423 . S
H87 C123 0.932 . S
C88 N63 1.433 . S
C88 C89 1.363 . S
C88 C93 1.370 . S
C89 H62 0.929 . S
C89 C88 1.363 . S
C89 C90 1.385 . S
C90 H64 0.930 . S
C90 C89 1.385 . S
C90 C91 1.357 . S
C91 C90 1.357 . S
C91 C92 1.406 . S
C92 H66 0.929 . S
C92 C91 1.406 . S
C92 C93 1.391 . S
C93 H65 0.931 . S
C93 C88 1.370 . S
C93 C92 1.391 . S
C94 N63 1.435 . S
C94 C95 1.358 . S
C94 C99 1.371 . S
C95 H67 0.930 . S
C95 C94 1.358 . S
C95 C96 1.405 . S
C96 H68 0.932 . S
C96 C95 1.405 . S
C96 C97 1.383 1_554 S
C97 C96 1.383 1_556 S
C97 C98 1.393 . S
C98 H70 0.931 . S
C98 C97 1.393 . S
C98 C99 1.382 1_556 S
C99 H69 0.929 . S
C99 C94 1.371 . S
C99 C98 1.382 1_554 S
C100 N63 1.423 . S
C100 C101 1.362 . S
C100 C105 1.388 . S
C101 H71 0.929 . S
C101 C100 1.362 . S
C101 C102 1.376 . S
C102 H73 0.931 . S
C102 C101 1.376 . S
C102 C103 1.396 . S
C103 C102 1.396 . S
C103 C104 1.348 . S
C103 C121 1.472 . S
C104 H74 0.929 . S
C104 C103 1.348 . S
C104 C105 1.443 . S
C105 H72 0.932 . S
C105 C100 1.388 . S
C105 C104 1.443 . S
C106 N86 1.433 . S
C106 C107 1.363 . S
C106 C111 1.370 . S
C107 H75 0.929 . S
C107 C106 1.363 . S
C107 C108 1.385 . S
C108 H76 0.930 . S
C108 C107 1.385 . S
C108 C109 1.357 . S
C109 C108 1.357 . S
C109 C110 1.406 . S
C110 H77 0.929 . S
C110 C109 1.406 . S
C110 C111 1.391 . S
C111 H78 0.931 . S
C111 C106 1.370 . S
C111 C110 1.391 . S
C112 N86 1.435 . S
C112 C113 1.358 . S
C112 C117 1.371 . S
C113 H79 0.930 . S
C113 C112 1.358 . S
C113 C114 1.405 . S
C114 H80 0.932 . S
C114 C113 1.405 . S
C114 C115 1.383 . S
C115 C114 1.383 . S
C115 C116 1.393 . S
C116 H81 0.931 1_554 S
C116 C115 1.393 . S
C116 C117 1.382 . S
C117 H82 0.929 . S
C117 C112 1.371 . S
C117 C116 1.382 . S
C118 N86 1.423 . S
C118 C119 1.362 . S
C118 C123 1.388 . S
C119 H83 0.929 . S
C119 C118 1.362 . S
C119 C120 1.376 . S
C120 H84 0.931 . S
C120 C119 1.376 . S
C120 C121 1.396 . S
C121 C103 1.472 . S
C121 C120 1.396 . S
C121 C122 1.348 . S
C122 H85 0.929 . S
C122 C121 1.348 . S
C122 C123 1.443 . S
C123 H87 0.932 . S
C123 C118 1.388 . S
C123 C122 1.443 . S
H124 C151 0.929 . S
N125 C150 1.433 1_554 S
N125 C156 1.435 . S
N125 C162 1.423 . S
H126 C152 0.930 . S
H127 C155 0.931 . S
H128 C154 0.929 . S
H129 C157 0.930 . S
H130 C158 0.932 . S
H131 C161 0.929 . S
H132 C160 0.931 . S
H133 C163 0.929 1_556 S
H134 C167 0.932 . S
H135 C164 0.931 1_556 S
H136 C166 0.929 . S
H137 C169 0.929 . S
H138 C170 0.930 . S
H139 C172 0.929 . S
H140 C173 0.931 . S
H141 C175 0.930 . S
H142 C176 0.932 . S
H143 C178 0.931 . S
H144 C179 0.929 . S
H145 C181 0.929 1_556 S
H146 C182 0.931 1_556 S
H147 C184 0.929 . S
N148 C168 1.433 1_554 S
N148 C174 1.435 . S
N148 C180 1.423 . S
H149 C185 0.932 . S
C150 N125 1.433 1_556 S
C150 C151 1.363 . S
C150 C155 1.370 . S
C151 H124 0.929 . S
C151 C150 1.363 . S
C151 C152 1.385 . S
C152 H126 0.930 . S
C152 C151 1.385 . S
C152 C153 1.357 . S
C153 C152 1.357 . S
C153 C154 1.406 . S
C154 H128 0.929 . S
C154 C153 1.406 . S
C154 C155 1.391 . S
C155 H127 0.931 . S
C155 C150 1.370 . S
C155 C154 1.391 . S
C156 N125 1.435 . S
C156 C157 1.358 . S
C156 C161 1.371 . S
C157 H129 0.930 . S
C157 C156 1.358 . S
C157 C158 1.405 . S
C158 H130 0.932 . S
C158 C157 1.405 . S
C158 C159 1.383 . S
C159 C158 1.383 . S
C159 C160 1.393 . S
C160 H132 0.931 . S
C160 C159 1.393 . S
C160 C161 1.382 . S
C161 H131 0.929 . S
C161 C156 1.371 . S
C161 C160 1.382 . S
C162 N125 1.423 . S
C162 C163 1.362 . S
C162 C167 1.388 . S
C163 H133 0.929 1_554 S
C163 C162 1.362 . S
C163 C164 1.376 . S
C164 H135 0.931 1_554 S
C164 C163 1.376 . S
C164 C165 1.396 . S
C165 C164 1.396 . S
C165 C166 1.348 . S
C165 C183 1.472 . S
C166 H136 0.929 . S
C166 C165 1.348 . S
C166 C167 1.443 . S
C167 H134 0.932 . S
C167 C162 1.388 . S
C167 C166 1.443 . S
C168 N148 1.433 1_556 S
C168 C169 1.363 . S
C168 C173 1.370 . S
C169 H137 0.929 . S
C169 C168 1.363 . S
C169 C170 1.385 . S
C170 H138 0.930 . S
C170 C169 1.385 . S
C170 C171 1.357 . S
C171 C170 1.357 . S
C171 C172 1.406 . S
C172 H139 0.929 . S
C172 C171 1.406 . S
C172 C173 1.391 . S
C173 H140 0.931 . S
C173 C168 1.370 . S
C173 C172 1.391 . S
C174 N148 1.435 . S
C174 C175 1.358 . S
C174 C179 1.371 . S
C175 H141 0.930 . S
C175 C174 1.358 . S
C175 C176 1.405 . S
C176 H142 0.932 . S
C176 C175 1.405 . S
C176 C177 1.383 . S
C177 C176 1.383 . S
C177 C178 1.393 . S
C178 H143 0.931 . S
C178 C177 1.393 . S
C178 C179 1.382 . S
C179 H144 0.929 . S
C179 C174 1.371 . S
C179 C178 1.382 . S
C180 N148 1.423 . S
C180 C181 1.362 . S
C180 C185 1.388 . S
C181 H145 0.929 1_554 S
C181 C180 1.362 . S
C181 C182 1.376 . S
C182 H146 0.931 1_554 S
C182 C181 1.376 . S
C182 C183 1.396 . S
C183 C165 1.472 . S
C183 C182 1.396 . S
C183 C184 1.348 . S
C184 H147 0.929 . S
C184 C183 1.348 . S
C184 C185 1.443 . S
C185 H149 0.932 . S
C185 C180 1.388 . S
C185 C184 1.443 . S
H186 C213 0.929 . S
N187 C212 1.433 . S
N187 C218 1.435 . S
N187 C224 1.423 . S
H188 C214 0.930 . S
H189 C217 0.931 . S
H190 C216 0.929 . S
H191 C219 0.930 . S
H192 C220 0.932 . S
H193 C223 0.929 . S
H194 C222 0.931 . S
H195 C225 0.929 . S
H196 C229 0.932 1_556 S
H197 C226 0.931 . S
H198 C228 0.929 1_556 S
H199 C231 0.929 . S
H200 C232 0.930 . S
H201 C234 0.929 . S
H202 C235 0.931 . S
H203 C237 0.930 . S
H204 C238 0.932 . S
H205 C240 0.931 . S
H206 C241 0.929 . S
H207 C243 0.929 . S
H208 C244 0.931 . S
H209 C246 0.929 1_556 S
N210 C230 1.433 . S
N210 C236 1.435 . S
N210 C242 1.423 . S
H211 C247 0.932 1_556 S
C212 N187 1.433 . S
C212 C213 1.363 . S
C212 C217 1.370 . S
C213 H186 0.929 . S
C213 C212 1.363 . S
C213 C214 1.385 . S
C214 H188 0.930 . S
C214 C213 1.385 . S
C214 C215 1.357 . S
C215 C214 1.357 . S
C215 C216 1.406 . S
C216 H190 0.929 . S
C216 C215 1.406 . S
C216 C217 1.391 . S
C217 H189 0.931 . S
C217 C212 1.370 . S
C217 C216 1.391 . S
C218 N187 1.435 . S
C218 C219 1.358 . S
C218 C223 1.371 1_554 S
C219 H191 0.930 . S
C219 C218 1.358 . S
C219 C220 1.405 1_554 S
C220 H192 0.932 . S
C220 C219 1.405 1_556 S
C220 C221 1.383 . S
C221 C220 1.383 . S
C221 C222 1.393 . S
C222 H194 0.931 . S
C222 C221 1.393 . S
C222 C223 1.382 . S
C223 H193 0.929 . S
C223 C218 1.371 1_556 S
C223 C222 1.382 . S
C224 N187 1.423 . S
C224 C225 1.362 . S
C224 C229 1.388 . S
C225 H195 0.929 . S
C225 C224 1.362 . S
C225 C226 1.376 . S
C226 H197 0.931 . S
C226 C225 1.376 . S
C226 C227 1.396 . S
C227 C226 1.396 . S
C227 C228 1.348 . S
C227 C245 1.472 . S
C228 H198 0.929 1_554 S
C228 C227 1.348 . S
C228 C229 1.443 . S
C229 H196 0.932 1_554 S
C229 C224 1.388 . S
C229 C228 1.443 . S
C230 N210 1.433 . S
C230 C231 1.363 . S
C230 C235 1.370 . S
C231 H199 0.929 . S
C231 C230 1.363 . S
C231 C232 1.385 . S
C232 H200 0.930 . S
C232 C231 1.385 . S
C232 C233 1.357 . S
C233 C232 1.357 . S
C233 C234 1.406 . S
C234 H201 0.929 . S
C234 C233 1.406 . S
C234 C235 1.391 . S
C235 H202 0.931 . S
C235 C230 1.370 . S
C235 C234 1.391 . S
C236 N210 1.435 . S
C236 C237 1.358 . S
C236 C241 1.371 1_554 S
C237 H203 0.930 . S
C237 C236 1.358 . S
C237 C238 1.405 1_554 S
C238 H204 0.932 . S
C238 C237 1.405 1_556 S
C238 C239 1.383 . S
C239 C238 1.383 . S
C239 C240 1.393 . S
C240 H205 0.931 . S
C240 C239 1.393 . S
C240 C241 1.382 . S
C241 H206 0.929 . S
C241 C236 1.371 1_556 S
C241 C240 1.382 . S
C242 N210 1.423 . S
C242 C243 1.362 . S
C242 C247 1.388 . S
C243 H207 0.929 . S
C243 C242 1.362 . S
C243 C244 1.376 . S
C244 H208 0.931 . S
C244 C243 1.376 . S
C244 C245 1.396 . S
C245 C227 1.472 . S
C245 C244 1.396 . S
C245 C246 1.348 . S
C246 H209 0.929 1_554 S
C246 C245 1.348 . S
C246 C247 1.443 . S
C247 H211 0.932 1_554 S
C247 C242 1.388 . S
C247 C246 1.443 . S
H248 C275 0.929 . S
N249 C274 1.433 . S
N249 C280 1.435 . S
N249 C286 1.423 . S
H250 C276 0.930 . S
H251 C279 0.931 . S
H252 C278 0.929 . S
H253 C281 0.930 . S
H254 C282 0.932 . S
H255 C285 0.929 . S
H256 C284 0.931 . S
H257 C287 0.929 . S
H258 C291 0.932 . S
H259 C288 0.931 . S
H260 C290 0.929 . S
H261 C293 0.929 . S
H262 C294 0.930 . S
H263 C296 0.929 . S
H264 C297 0.931 . S
H265 C299 0.930 . S
H266 C300 0.932 . S
H267 C302 0.931 . S
H268 C303 0.929 . S
H269 C305 0.929 . S
H270 C306 0.931 . S
H271 C308 0.929 . S
N272 C292 1.433 . S
N272 C298 1.435 . S
N272 C304 1.423 . S
H273 C309 0.932 . S
C274 N249 1.433 . S
C274 C275 1.363 . S
C274 C279 1.370 . S
C275 H248 0.929 . S
C275 C274 1.363 . S
C275 C276 1.385 . S
C276 H250 0.930 . S
C276 C275 1.385 . S
C276 C277 1.357 . S
C277 C276 1.357 . S
C277 C278 1.406 . S
C278 H252 0.929 . S
C278 C277 1.406 . S
C278 C279 1.391 . S
C279 H251 0.931 . S
C279 C274 1.370 . S
C279 C278 1.391 . S
C280 N249 1.435 . S
C280 C281 1.358 . S
C280 C285 1.371 1_554 S
C281 H253 0.930 . S
C281 C280 1.358 . S
C281 C282 1.405 1_554 S
C282 H254 0.932 . S
C282 C281 1.405 1_556 S
C282 C283 1.383 . S
C283 C282 1.383 . S
C283 C284 1.393 . S
C284 H256 0.931 . S
C284 C283 1.393 . S
C284 C285 1.382 . S
C285 H255 0.929 . S
C285 C280 1.371 1_556 S
C285 C284 1.382 . S
C286 N249 1.423 . S
C286 C287 1.362 . S
C286 C291 1.388 . S
C287 H257 0.929 . S
C287 C286 1.362 . S
C287 C288 1.376 . S
C288 H259 0.931 . S
C288 C287 1.376 . S
C288 C289 1.396 . S
C289 C288 1.396 . S
C289 C290 1.348 . S
C289 C307 1.472 . S
C290 H260 0.929 . S
C290 C289 1.348 . S
C290 C291 1.443 . S
C291 H258 0.932 . S
C291 C286 1.388 . S
C291 C290 1.443 . S
C292 N272 1.433 . S
C292 C293 1.363 . S
C292 C297 1.370 . S
C293 H261 0.929 . S
C293 C292 1.363 . S
C293 C294 1.385 . S
C294 H262 0.930 . S
C294 C293 1.385 . S
C294 C295 1.357 . S
C295 C294 1.357 . S
C295 C296 1.406 . S
C296 H263 0.929 . S
C296 C295 1.406 . S
C296 C297 1.391 . S
C297 H264 0.931 . S
C297 C292 1.370 . S
C297 C296 1.391 . S
C298 N272 1.435 . S
C298 C299 1.358 . S
C298 C303 1.371 . S
C299 H265 0.930 . S
C299 C298 1.358 . S
C299 C300 1.405 . S
C300 H266 0.932 . S
C300 C299 1.405 . S
C300 C301 1.383 1_554 S
C301 C300 1.383 1_556 S
C301 C302 1.393 . S
C302 H267 0.931 . S
C302 C301 1.393 . S
C302 C303 1.382 1_556 S
C303 H268 0.929 . S
C303 C298 1.371 . S
C303 C302 1.382 1_554 S
C304 N272 1.423 . S
C304 C305 1.362 . S
C304 C309 1.388 . S
C305 H269 0.929 . S
C305 C304 1.362 . S
C305 C306 1.376 . S
C306 H270 0.931 . S
C306 C305 1.376 . S
C306 C307 1.396 . S
C307 C289 1.472 . S
C307 C306 1.396 . S
C307 C308 1.348 . S
C308 H271 0.929 . S
C308 C307 1.348 . S
C308 C309 1.443 . S
C309 H273 0.932 . S
C309 C304 1.388 . S
C309 C308 1.443 . S
H310 C337 0.929 . S
N311 C336 1.433 . S
N311 C342 1.435 . S
N311 C348 1.423 . S
H312 C338 0.930 . S
H313 C341 0.931 . S
H314 C340 0.929 . S
H315 C343 0.930 . S
H316 C344 0.932 . S
H317 C347 0.929 . S
H318 C346 0.931 . S
H319 C349 0.929 . S
H320 C353 0.932 . S
H321 C350 0.931 . S
H322 C352 0.929 . S
H323 C355 0.929 . S
H324 C356 0.930 . S
H325 C358 0.929 . S
H326 C359 0.931 . S
H327 C361 0.930 . S
H328 C362 0.932 . S
H329 C364 0.931 . S
H330 C365 0.929 . S
H331 C367 0.929 . S
H332 C368 0.931 . S
H333 C370 0.929 . S
N334 C354 1.433 . S
N334 C360 1.435 . S
N334 C366 1.423 . S
H335 C371 0.932 . S
C336 N311 1.433 . S
C336 C337 1.363 . S
C336 C341 1.370 . S
C337 H310 0.929 . S
C337 C336 1.363 . S
C337 C338 1.385 . S
C338 H312 0.930 . S
C338 C337 1.385 . S
C338 C339 1.357 . S
C339 C338 1.357 . S
C339 C340 1.406 . S
C340 H314 0.929 . S
C340 C339 1.406 . S
C340 C341 1.391 . S
C341 H313 0.931 . S
C341 C336 1.370 . S
C341 C340 1.391 . S
C342 N311 1.435 . S
C342 C343 1.358 . S
C342 C347 1.371 . S
C343 H315 0.930 . S
C343 C342 1.358 . S
C343 C344 1.405 . S
C344 H316 0.932 . S
C344 C343 1.405 . S
C344 C345 1.383 . S
C345 C344 1.383 . S
C345 C346 1.393 . S
C346 H318 0.931 . S
C346 C345 1.393 . S
C346 C347 1.382 . S
C347 H317 0.929 . S
C347 C342 1.371 . S
C347 C346 1.382 . S
C348 N311 1.423 . S
C348 C349 1.362 . S
C348 C353 1.388 . S
C349 H319 0.929 . S
C349 C348 1.362 . S
C349 C350 1.376 . S
C350 H321 0.931 . S
C350 C349 1.376 . S
C350 C351 1.396 . S
C351 C350 1.396 . S
C351 C352 1.348 . S
C351 C369 1.472 . S
C352 H322 0.929 . S
C352 C351 1.348 . S
C352 C353 1.443 . S
C353 H320 0.932 . S
C353 C348 1.388 . S
C353 C352 1.443 . S
C354 N334 1.433 . S
C354 C355 1.363 . S
C354 C359 1.370 . S
C355 H323 0.929 . S
C355 C354 1.363 . S
C355 C356 1.385 . S
C356 H324 0.930 . S
C356 C355 1.385 . S
C356 C357 1.357 . S
C357 C356 1.357 . S
C357 C358 1.406 . S
C358 H325 0.929 . S
C358 C357 1.406 . S
C358 C359 1.391 . S
C359 H326 0.931 . S
C359 C354 1.370 . S
C359 C358 1.391 . S
C360 N334 1.435 . S
C360 C361 1.358 . S
C360 C365 1.371 . S
C361 H327 0.930 . S
C361 C360 1.358 . S
C361 C362 1.405 . S
C362 H328 0.932 . S
C362 C361 1.405 . S
C362 C363 1.383 . S
C363 C362 1.383 . S
C363 C364 1.393 . S
C364 H329 0.931 . S
C364 C363 1.393 . S
C364 C365 1.382 . S
C365 H330 0.929 . S
C365 C360 1.371 . S
C365 C364 1.382 . S
C366 N334 1.423 . S
C366 C367 1.362 . S
C366 C371 1.388 . S
C367 H331 0.929 . S
C367 C366 1.362 . S
C367 C368 1.376 . S
C368 H332 0.931 . S
C368 C367 1.376 . S
C368 C369 1.396 . S
C369 C351 1.472 . S
C369 C368 1.396 . S
C369 C370 1.348 . S
C370 H333 0.929 . S
C370 C369 1.348 . S
C370 C371 1.443 . S
C371 H335 0.932 . S
C371 C366 1.388 . S
C371 C370 1.443 . S
C372 O384 1.241 . S
C372 O385 1.280 . S
C373 O386 1.277 . S
C373 O387 1.245 . S
C374 O398 1.247 . S
C374 O400 1.289 . S
Mg375 O376 1.924 1_655 S
Mg375 O385 1.984 . S
Mg375 O387 1.988 1_655 S
Mg375 O388 2.061 . S
O376 Mg375 1.924 1_455 S
O376 Mg377 1.987 . S
O376 Mg378 1.917 . S
Mg377 O376 1.987 . S
Mg377 O384 2.042 1_455 S
Mg377 O386 2.041 . S
Mg377 O392 2.038 1_455 S
Mg377 O400 2.238 . S
Mg378 O376 1.917 . S
Mg378 O379 1.917 . S
Mg378 O389 2.106 1_455 S
Mg378 O391 2.079 1_455 S
Mg378 O400 2.106 . S
Mg378 O401 2.079 . S
O379 Mg378 1.917 . S
O379 Mg380 1.926 . S
O379 Mg381 1.986 . S
Mg380 O379 1.926 . S
Mg380 O394 1.984 . S
Mg380 O397 1.988 1_455 S
Mg380 O398 2.061 . S
Mg381 O379 1.986 . S
Mg381 O389 2.238 1_455 S
Mg381 O393 2.042 . S
Mg381 O395 2.041 1_455 S
Mg381 O402 2.038 . S
C382 O388 1.247 . S
C382 O389 1.289 . S
C383 O401 1.245 . S
C383 O402 1.274 . S
O384 C372 1.241 . S
O384 Mg377 2.042 1_655 S
O385 C372 1.280 . S
O385 Mg375 1.984 . S
O386 C373 1.277 . S
O386 Mg377 2.041 . S
O387 C373 1.245 . S
O387 Mg375 1.988 1_455 S
O388 Mg375 2.061 . S
O388 C382 1.247 . S
O389 Mg378 2.106 1_655 S
O389 Mg381 2.238 1_655 S
O389 C382 1.289 . S
C390 O391 1.245 . S
C390 O392 1.274 . S
O391 Mg378 2.079 1_655 S
O391 C390 1.245 . S
O392 Mg377 2.038 1_655 S
O392 C390 1.274 . S
O393 Mg381 2.042 . S
O393 C396 1.241 . S
O394 Mg380 1.984 . S
O394 C396 1.280 . S
O395 Mg381 2.041 1_655 S
O395 C399 1.277 . S
C396 O393 1.241 . S
C396 O394 1.280 . S
O397 Mg380 1.988 1_655 S
O397 C399 1.245 . S
O398 C374 1.247 . S
O398 Mg380 2.061 . S
C399 O395 1.277 . S
C399 O397 1.245 . S
O400 C374 1.289 . S
O400 Mg377 2.238 . S
O400 Mg378 2.106 . S
O401 Mg378 2.079 . S
O401 C383 1.245 . S
O402 Mg381 2.038 . S
O402 C383 1.274 . S
C403 O415 1.241 . S
C403 O416 1.280 . S
C404 O417 1.277 . S
C404 O418 1.245 . S
C405 O429 1.247 . S
C405 O431 1.289 . S
Mg406 O407 1.926 . S
Mg406 O416 1.984 . S
Mg406 O418 1.988 1_545 S
Mg406 O419 2.061 . S
O407 Mg406 1.926 . S
O407 Mg408 1.986 . S
O407 Mg409 1.917 . S
Mg408 O407 1.986 . S
Mg408 O415 2.042 . S
Mg408 O417 2.041 1_545 S
Mg408 O423 2.038 . S
Mg408 O431 2.238 1_545 S
Mg409 O407 1.917 . S
Mg409 O410 1.917 1_545 S
Mg409 O420 2.106 . S
Mg409 O422 2.079 . S
Mg409 O431 2.106 1_545 S
Mg409 O432 2.079 1_545 S
O410 Mg409 1.917 1_565 S
O410 Mg411 1.926 . S
O410 Mg412 1.986 1_565 S
Mg411 O410 1.926 . S
Mg411 O425 1.984 . S
Mg411 O428 1.988 1_565 S
Mg411 O429 2.061 . S
Mg412 O410 1.986 1_545 S
Mg412 O420 2.238 . S
Mg412 O424 2.042 1_545 S
Mg412 O426 2.041 . S
Mg412 O433 2.038 1_545 S
C413 O419 1.247 . S
C413 O420 1.289 . S
C414 O432 1.245 . S
C414 O433 1.274 . S
O415 C403 1.241 . S
O415 Mg408 2.042 . S
O416 C403 1.280 . S
O416 Mg406 1.984 . S
O417 C404 1.277 . S
O417 Mg408 2.041 1_565 S
O418 C404 1.245 . S
O418 Mg406 1.988 1_565 S
O419 Mg406 2.061 . S
O419 C413 1.247 . S
O420 Mg409 2.106 . S
O420 Mg412 2.238 . S
O420 C413 1.289 . S
C421 O422 1.245 . S
C421 O423 1.274 . S
O422 Mg409 2.079 . S
O422 C421 1.245 . S
O423 Mg408 2.038 . S
O423 C421 1.274 . S
O424 Mg412 2.042 1_565 S
O424 C427 1.241 . S
O425 Mg411 1.984 . S
O425 C427 1.280 . S
O426 Mg412 2.041 . S
O426 C430 1.277 . S
C427 O424 1.241 . S
C427 O425 1.280 . S
O428 Mg411 1.988 1_545 S
O428 C430 1.245 . S
O429 C405 1.247 . S
O429 Mg411 2.061 . S
C430 O426 1.277 . S
C430 O428 1.245 . S
O431 C405 1.289 . S
O431 Mg408 2.238 1_565 S
O431 Mg409 2.106 1_565 S
O432 Mg409 2.079 1_565 S
O432 C414 1.245 . S
O433 Mg412 2.038 1_565 S
O433 C414 1.274 . S
C434 O446 1.241 . S
C434 O447 1.280 . S
C435 O448 1.277 . S
C435 O449 1.245 . S
C436 O460 1.247 . S
C436 O462 1.289 . S
Mg437 O438 1.926 . S
Mg437 O447 1.984 . S
Mg437 O449 1.988 . S
Mg437 O450 2.061 . S
O438 Mg437 1.926 . S
O438 Mg439 1.986 . S
O438 Mg440 1.917 . S
Mg439 O438 1.986 . S
Mg439 O446 2.042 . S
Mg439 O448 2.041 . S
Mg439 O454 2.038 . S
Mg439 O462 2.238 . S
Mg440 O438 1.917 . S
Mg440 O441 1.917 . S
Mg440 O451 2.106 . S
Mg440 O453 2.079 . S
Mg440 O462 2.106 . S
Mg440 O463 2.079 . S
O441 Mg440 1.917 . S
O441 Mg442 1.926 . S
O441 Mg443 1.986 . S
Mg442 O441 1.926 . S
Mg442 O456 1.984 . S
Mg442 O459 1.988 . S
Mg442 O460 2.061 . S
Mg443 O441 1.986 . S
Mg443 O451 2.238 . S
Mg443 O455 2.042 . S
Mg443 O457 2.041 . S
Mg443 O464 2.038 . S
C444 O450 1.247 . S
C444 O451 1.289 . S
C445 O463 1.245 . S
C445 O464 1.274 . S
O446 C434 1.241 . S
O446 Mg439 2.042 . S
O447 C434 1.280 . S
O447 Mg437 1.984 . S
O448 C435 1.277 . S
O448 Mg439 2.041 . S
O449 C435 1.245 . S
O449 Mg437 1.988 . S
O450 Mg437 2.061 . S
O450 C444 1.247 . S
O451 Mg440 2.106 . S
O451 Mg443 2.238 . S
O451 C444 1.289 . S
C452 O453 1.245 . S
C452 O454 1.274 . S
O453 Mg440 2.079 . S
O453 C452 1.245 . S
O454 Mg439 2.038 . S
O454 C452 1.274 . S
O455 Mg443 2.042 . S
O455 C458 1.241 . S
O456 Mg442 1.984 . S
O456 C458 1.280 . S
O457 Mg443 2.041 . S
O457 C461 1.277 . S
C458 O455 1.241 . S
C458 O456 1.280 . S
O459 Mg442 1.988 . S
O459 C461 1.245 . S
O460 C436 1.247 . S
O460 Mg442 2.061 . S
C461 O457 1.277 . S
C461 O459 1.245 . S
O462 C436 1.289 . S
O462 Mg439 2.238 . S
O462 Mg440 2.106 . S
O463 Mg440 2.079 . S
O463 C445 1.245 . S
O464 Mg443 2.038 . S
O464 C445 1.274 . S
C465 C466 1.391 . S
C465 C467 1.394 . S
C465 H481 0.931 . S
C466 C465 1.391 . S
C466 C470 1.376 . S
C467 C465 1.394 . S
C467 C468 1.369 . S
C467 C471 1.531 . S
C468 C467 1.369 . S
C468 C469 1.410 . S
C468 C476 1.503 . S
C469 C468 1.410 . S
C469 C470 1.392 . S
C469 C472 1.511 . S
C470 C466 1.376 . S
C470 C469 1.392 . S
C470 H482 0.929 . S
C471 C467 1.531 . S
C471 H483 0.960 . S
C471 H484 0.962 . S
C471 H485 0.960 . S
C472 C469 1.511 . S
C472 H486 0.961 . S
C472 H487 0.961 . S
C472 H488 0.961 . S
C473 C474 1.370 . S
C473 C475 1.363 . S
C473 H489 0.931 . S
C474 C473 1.370 . S
C474 C478 1.408 . S
C475 C473 1.363 . S
C475 C476 1.370 . S
C475 C479 1.524 . S
C476 C468 1.503 . S
C476 C475 1.370 . S
C476 C477 1.403 . S
C477 C476 1.403 . S
C477 C478 1.404 . S
C477 C480 1.539 . S
C478 C474 1.408 . S
C478 C477 1.404 . S
C478 H490 0.930 . S
C479 C475 1.524 . S
C479 H491 0.956 . S
C479 H492 0.961 . S
C479 H493 0.961 . S
C480 C477 1.539 . S
C480 H494 0.958 . S
C480 H495 0.961 . S
C480 H496 0.960 . S
H481 C465 0.931 . S
H482 C470 0.929 . S
H483 C471 0.960 . S
H484 C471 0.962 . S
H485 C471 0.960 . S
H486 C472 0.961 . S
H487 C472 0.961 . S
H488 C472 0.961 . S
H489 C473 0.931 . S
H490 C478 0.930 . S
H491 C479 0.956 . S
H492 C479 0.961 . S
H493 C479 0.961 . S
H494 C480 0.958 . S
H495 C480 0.961 . S
H496 C480 0.960 . S
C497 C498 1.391 . S
C497 C499 1.394 . S
C497 H513 0.931 . S
C498 C497 1.391 . S
C498 C502 1.376 . S
C499 C497 1.394 . S
C499 C500 1.369 . S
C499 C503 1.531 . S
C500 C499 1.369 . S
C500 C501 1.410 . S
C500 C508 1.503 . S
C501 C500 1.410 . S
C501 C502 1.392 . S
C501 C504 1.511 . S
C502 C498 1.376 . S
C502 C501 1.392 . S
C502 H514 0.929 . S
C503 C499 1.531 . S
C503 H515 0.960 . S
C503 H516 0.962 . S
C503 H517 0.960 . S
C504 C501 1.511 . S
C504 H518 0.961 . S
C504 H519 0.961 . S
C504 H520 0.961 . S
C505 C506 1.370 . S
C505 C507 1.363 . S
C505 H521 0.931 . S
C506 C505 1.370 . S
C506 C510 1.408 . S
C507 C505 1.363 . S
C507 C508 1.370 . S
C507 C511 1.524 . S
C508 C500 1.503 . S
C508 C507 1.370 . S
C508 C509 1.403 . S
C509 C508 1.403 . S
C509 C510 1.404 . S
C509 C512 1.539 . S
C510 C506 1.408 . S
C510 C509 1.404 . S
C510 H522 0.930 . S
C511 C507 1.524 . S
C511 H523 0.956 . S
C511 H524 0.961 . S
C511 H525 0.961 . S
C512 C509 1.539 . S
C512 H526 0.958 . S
C512 H527 0.961 . S
C512 H528 0.960 . S
H513 C497 0.931 . S
H514 C502 0.929 . S
H515 C503 0.960 . S
H516 C503 0.962 . S
H517 C503 0.960 . S
H518 C504 0.961 . S
H519 C504 0.961 . S
H520 C504 0.961 . S
H521 C505 0.931 . S
H522 C510 0.930 . S
H523 C511 0.956 . S
H524 C511 0.961 . S
H525 C511 0.961 . S
H526 C512 0.958 . S
H527 C512 0.961 . S
H528 C512 0.960 . S
C529 C530 1.391 . S
C529 C531 1.394 . S
C529 H545 0.931 . S
C530 C529 1.391 . S
C530 C534 1.376 . S
C531 C529 1.394 . S
C531 C532 1.369 . S
C531 C535 1.531 . S
C532 C531 1.369 . S
C532 C533 1.410 . S
C532 C540 1.503 . S
C533 C532 1.410 . S
C533 C534 1.392 . S
C533 C536 1.511 . S
C534 C530 1.376 . S
C534 C533 1.392 . S
C534 H546 0.929 . S
C535 C531 1.531 . S
C535 H547 0.960 . S
C535 H548 0.962 . S
C535 H549 0.960 . S
C536 C533 1.511 . S
C536 H550 0.961 . S
C536 H551 0.961 . S
C536 H552 0.961 . S
C537 C538 1.370 . S
C537 C539 1.363 . S
C537 H553 0.931 . S
C538 C537 1.370 . S
C538 C542 1.408 . S
C539 C537 1.363 . S
C539 C540 1.370 . S
C539 C543 1.524 . S
C540 C532 1.503 . S
C540 C539 1.370 . S
C540 C541 1.403 . S
C541 C540 1.403 . S
C541 C542 1.404 . S
C541 C544 1.539 . S
C542 C538 1.408 . S
C542 C541 1.404 . S
C542 H554 0.930 . S
C543 C539 1.524 . S
C543 H555 0.956 . S
C543 H556 0.961 . S
C543 H557 0.961 . S
C544 C541 1.539 . S
C544 H558 0.958 . S
C544 H559 0.961 . S
C544 H560 0.960 . S
H545 C529 0.931 . S
H546 C534 0.929 . S
H547 C535 0.960 . S
H548 C535 0.962 . S
H549 C535 0.960 . S
H550 C536 0.961 . S
H551 C536 0.961 . S
H552 C536 0.961 . S
H553 C537 0.931 . S
H554 C542 0.930 . S
H555 C543 0.956 . S
H556 C543 0.961 . S
H557 C543 0.961 . S
H558 C544 0.958 . S
H559 C544 0.961 . S
H560 C544 0.960 . S
C561 C562 1.391 . S
C561 C563 1.394 . S
C561 H577 0.931 . S
C562 C561 1.391 . S
C562 C566 1.376 . S
C563 C561 1.394 . S
C563 C564 1.369 . S
C563 C567 1.531 . S
C564 C563 1.369 . S
C564 C565 1.410 . S
C564 C572 1.503 . S
C565 C564 1.410 . S
C565 C566 1.392 . S
C565 C568 1.511 . S
C566 C562 1.376 . S
C566 C565 1.392 . S
C566 H578 0.929 . S
C567 C563 1.531 . S
C567 H579 0.960 . S
C567 H580 0.962 . S
C567 H581 0.960 . S
C568 C565 1.511 . S
C568 H582 0.961 . S
C568 H583 0.961 . S
C568 H584 0.961 . S
C569 C570 1.370 . S
C569 C571 1.363 . S
C569 H585 0.931 . S
C570 C569 1.370 . S
C570 C574 1.408 . S
C571 C569 1.363 . S
C571 C572 1.370 . S
C571 C575 1.524 . S
C572 C564 1.503 . S
C572 C571 1.370 . S
C572 C573 1.403 . S
C573 C572 1.403 . S
C573 C574 1.404 . S
C573 C576 1.539 . S
C574 C570 1.408 . S
C574 C573 1.404 . S
C574 H586 0.930 . S
C575 C571 1.524 . S
C575 H587 0.956 . S
C575 H588 0.961 . S
C575 H589 0.961 . S
C576 C573 1.539 . S
C576 H590 0.958 . S
C576 H591 0.961 . S
C576 H592 0.960 . S
H577 C561 0.931 . S
H578 C566 0.929 . S
H579 C567 0.960 . S
H580 C567 0.962 . S
H581 C567 0.960 . S
H582 C568 0.961 . S
H583 C568 0.961 . S
H584 C568 0.961 . S
H585 C569 0.931 . S
H586 C574 0.930 . S
H587 C575 0.956 . S
H588 C575 0.961 . S
H589 C575 0.961 . S
H590 C576 0.958 . S
H591 C576 0.961 . S
H592 C576 0.960 . S
C593 C594 1.391 . S
C593 C595 1.394 . S
C593 H609 0.931 . S
C594 C593 1.391 . S
C594 C598 1.376 . S
C595 C593 1.394 . S
C595 C596 1.369 . S
C595 C599 1.531 . S
C596 C595 1.369 . S
C596 C597 1.410 . S
C596 C604 1.503 . S
C597 C596 1.410 . S
C597 C598 1.392 . S
C597 C600 1.511 . S
C598 C594 1.376 . S
C598 C597 1.392 . S
C598 H610 0.929 . S
C599 C595 1.531 . S
C599 H611 0.960 . S
C599 H612 0.962 . S
C599 H613 0.960 . S
C600 C597 1.511 . S
C600 H614 0.961 . S
C600 H615 0.961 . S
C600 H616 0.961 . S
C601 C602 1.370 . S
C601 C603 1.363 . S
C601 H617 0.931 . S
C602 C601 1.370 . S
C602 C606 1.408 . S
C603 C601 1.363 . S
C603 C604 1.370 . S
C603 C607 1.524 . S
C604 C596 1.503 . S
C604 C603 1.370 . S
C604 C605 1.403 . S
C605 C604 1.403 . S
C605 C606 1.404 . S
C605 C608 1.539 . S
C606 C602 1.408 . S
C606 C605 1.404 . S
C606 H618 0.930 . S
C607 C603 1.524 . S
C607 H619 0.956 . S
C607 H620 0.961 . S
C607 H621 0.961 . S
C608 C605 1.539 . S
C608 H622 0.958 . S
C608 H623 0.961 . S
C608 H624 0.960 . S
H609 C593 0.931 . S
H610 C598 0.929 . S
H611 C599 0.960 . S
H612 C599 0.962 . S
H613 C599 0.960 . S
H614 C600 0.961 . S
H615 C600 0.961 . S
H616 C600 0.961 . S
H617 C601 0.931 . S
H618 C606 0.930 . S
H619 C607 0.956 . S
H620 C607 0.961 . S
H621 C607 0.961 . S
H622 C608 0.958 . S
H623 C608 0.961 . S
H624 C608 0.960 . S
C625 C626 1.391 . S
C625 C627 1.394 . S
C625 H641 0.931 . S
C626 C625 1.391 . S
C626 C630 1.376 . S
C627 C625 1.394 . S
C627 C628 1.369 . S
C627 C631 1.531 . S
C628 C627 1.369 . S
C628 C629 1.410 . S
C628 C636 1.503 . S
C629 C628 1.410 . S
C629 C630 1.392 . S
C629 C632 1.511 . S
C630 C626 1.376 . S
C630 C629 1.392 . S
C630 H642 0.929 . S
C631 C627 1.531 . S
C631 H643 0.960 . S
C631 H644 0.962 . S
C631 H645 0.960 . S
C632 C629 1.511 . S
C632 H646 0.961 . S
C632 H647 0.961 . S
C632 H648 0.961 . S
C633 C634 1.370 . S
C633 C635 1.363 . S
C633 H649 0.931 . S
C634 C633 1.370 . S
C634 C638 1.408 . S
C635 C633 1.363 . S
C635 C636 1.370 . S
C635 C639 1.524 . S
C636 C628 1.503 . S
C636 C635 1.370 . S
C636 C637 1.403 . S
C637 C636 1.403 . S
C637 C638 1.404 . S
C637 C640 1.539 . S
C638 C634 1.408 . S
C638 C637 1.404 . S
C638 H650 0.930 . S
C639 C635 1.524 . S
C639 H651 0.956 . S
C639 H652 0.961 . S
C639 H653 0.961 . S
C640 C637 1.539 . S
C640 H654 0.958 . S
C640 H655 0.961 . S
C640 H656 0.960 . S
H641 C625 0.931 . S
H642 C630 0.929 . S
H643 C631 0.960 . S
H644 C631 0.962 . S
H645 C631 0.960 . S
H646 C632 0.961 . S
H647 C632 0.961 . S
H648 C632 0.961 . S
H649 C633 0.931 . S
H650 C638 0.930 . S
H651 C639 0.956 . S
H652 C639 0.961 . S
H653 C639 0.961 . S
H654 C640 0.958 . S
H655 C640 0.961 . S
H656 C640 0.960 . S
C657 C658 1.391 . S
C657 C659 1.394 . S
C657 H673 0.931 . S
C658 C657 1.391 . S
C658 C662 1.376 . S
C659 C657 1.394 . S
C659 C660 1.369 . S
C659 C663 1.531 . S
C660 C659 1.369 . S
C660 C661 1.410 . S
C660 C668 1.503 . S
C661 C660 1.410 . S
C661 C662 1.392 . S
C661 C664 1.511 . S
C662 C658 1.376 . S
C662 C661 1.392 . S
C662 H674 0.929 . S
C663 C659 1.531 . S
C663 H675 0.960 . S
C663 H676 0.962 . S
C663 H677 0.960 . S
C664 C661 1.511 . S
C664 H678 0.961 . S
C664 H679 0.961 . S
C664 H680 0.961 . S
C665 C666 1.370 . S
C665 C667 1.363 . S
C665 H681 0.931 . S
C666 C665 1.370 . S
C666 C670 1.408 . S
C667 C665 1.363 . S
C667 C668 1.370 . S
C667 C671 1.524 . S
C668 C660 1.503 . S
C668 C667 1.370 . S
C668 C669 1.403 . S
C669 C668 1.403 . S
C669 C670 1.404 . S
C669 C672 1.539 . S
C670 C666 1.408 . S
C670 C669 1.404 . S
C670 H682 0.930 . S
C671 C667 1.524 . S
C671 H683 0.956 . S
C671 H684 0.961 . S
C671 H685 0.961 . S
C672 C669 1.539 . S
C672 H686 0.958 . S
C672 H687 0.961 . S
C672 H688 0.960 . S
H673 C657 0.931 . S
H674 C662 0.929 . S
H675 C663 0.960 . S
H676 C663 0.962 . S
H677 C663 0.960 . S
H678 C664 0.961 . S
H679 C664 0.961 . S
H680 C664 0.961 . S
H681 C665 0.931 . S
H682 C670 0.930 . S
H683 C671 0.956 . S
H684 C671 0.961 . S
H685 C671 0.961 . S
H686 C672 0.958 . S
H687 C672 0.961 . S
H688 C672 0.960 . S
C689 C690 1.391 . S
C689 C691 1.394 . S
C689 H705 0.931 . S
C690 C689 1.391 . S
C690 C694 1.376 . S
C691 C689 1.394 . S
C691 C692 1.369 . S
C691 C695 1.531 . S
C692 C691 1.369 . S
C692 C693 1.410 . S
C692 C700 1.503 . S
C693 C692 1.410 . S
C693 C694 1.392 . S
C693 C696 1.511 . S
C694 C690 1.376 . S
C694 C693 1.392 . S
C694 H706 0.929 . S
C695 C691 1.531 . S
C695 H707 0.960 . S
C695 H708 0.962 . S
C695 H709 0.960 . S
C696 C693 1.511 . S
C696 H710 0.961 . S
C696 H711 0.961 . S
C696 H712 0.961 . S
C697 C698 1.370 . S
C697 C699 1.363 . S
C697 H713 0.931 . S
C698 C697 1.370 . S
C698 C702 1.408 . S
C699 C697 1.363 . S
C699 C700 1.370 . S
C699 C703 1.524 . S
C700 C692 1.503 . S
C700 C699 1.370 . S
C700 C701 1.403 . S
C701 C700 1.403 . S
C701 C702 1.404 . S
C701 C704 1.539 . S
C702 C698 1.408 . S
C702 C701 1.404 . S
C702 H714 0.930 . S
C703 C699 1.524 . S
C703 H715 0.956 . S
C703 H716 0.961 . S
C703 H717 0.961 . S
C704 C701 1.539 . S
C704 H718 0.958 . S
C704 H719 0.961 . S
C704 H720 0.960 . S
H705 C689 0.931 . S
H706 C694 0.929 . S
H707 C695 0.960 . S
H708 C695 0.962 . S
H709 C695 0.960 . S
H710 C696 0.961 . S
H711 C696 0.961 . S
H712 C696 0.961 . S
H713 C697 0.931 . S
H714 C702 0.930 . S
H715 C703 0.956 . S
H716 C703 0.961 . S
H717 C703 0.961 . S
H718 C704 0.958 . S
H719 C704 0.961 . S
H720 C704 0.960 . S
C721 C722 1.391 . S
C721 C723 1.394 . S
C721 H737 0.931 . S
C722 C721 1.391 . S
C722 C726 1.376 . S
C723 C721 1.394 . S
C723 C724 1.369 . S
C723 C727 1.531 . S
C724 C723 1.369 . S
C724 C725 1.410 . S
C724 C732 1.503 . S
C725 C724 1.410 . S
C725 C726 1.392 . S
C725 C728 1.511 . S
C726 C722 1.376 . S
C726 C725 1.392 . S
C726 H738 0.929 . S
C727 C723 1.531 . S
C727 H739 0.960 . S
C727 H740 0.962 . S
C727 H741 0.960 . S
C728 C725 1.511 . S
C728 H742 0.961 . S
C728 H743 0.961 . S
C728 H744 0.961 . S
C729 C730 1.370 . S
C729 C731 1.363 . S
C729 H745 0.931 . S
C730 C729 1.370 . S
C730 C734 1.408 . S
C731 C729 1.363 . S
C731 C732 1.370 . S
C731 C735 1.524 . S
C732 C724 1.503 . S
C732 C731 1.370 . S
C732 C733 1.403 . S
C733 C732 1.403 . S
C733 C734 1.404 . S
C733 C736 1.539 . S
C734 C730 1.408 . S
C734 C733 1.404 . S
C734 H746 0.930 . S
C735 C731 1.524 . S
C735 H747 0.956 . S
C735 H748 0.961 . S
C735 H749 0.961 . S
C736 C733 1.539 . S
C736 H750 0.958 . S
C736 H751 0.961 . S
C736 H752 0.960 . S
H737 C721 0.931 . S
H738 C726 0.929 . S
H739 C727 0.960 . S
H740 C727 0.962 . S
H741 C727 0.960 . S
H742 C728 0.961 . S
H743 C728 0.961 . S
H744 C728 0.961 . S
H745 C729 0.931 . S
H746 C734 0.930 . S
H747 C735 0.956 . S
H748 C735 0.961 . S
H749 C735 0.961 . S
H750 C736 0.958 . S
H751 C736 0.961 . S
H752 C736 0.960 . S
C753 C754 1.391 1_554 S
C753 C755 1.394 1_554 S
C753 H769 0.931 . S
C754 C753 1.391 1_556 S
C754 C758 1.376 . S
C755 C753 1.394 1_556 S
C755 C756 1.369 . S
C755 C759 1.531 1_556 S
C756 C755 1.369 . S
C756 C757 1.410 . S
C756 C764 1.503 . S
C757 C756 1.410 . S
C757 C758 1.392 . S
C757 C760 1.511 . S
C758 C754 1.376 . S
C758 C757 1.392 . S
C758 H770 0.929 . S
C759 C755 1.531 1_554 S
C759 H771 0.960 1_554 S
C759 H772 0.962 1_554 S
C759 H773 0.960 . S
C760 C757 1.511 . S
C760 H774 0.961 . S
C760 H775 0.961 . S
C760 H776 0.961 . S
C761 C762 1.370 . S
C761 C763 1.363 . S
C761 H777 0.931 . S
C762 C761 1.370 . S
C762 C766 1.408 . S
C763 C761 1.363 . S
C763 C764 1.370 . S
C763 C767 1.524 . S
C764 C756 1.503 . S
C764 C763 1.370 . S
C764 C765 1.403 . S
C765 C764 1.403 . S
C765 C766 1.404 . S
C765 C768 1.539 . S
C766 C762 1.408 . S
C766 C765 1.404 . S
C766 H778 0.930 . S
C767 C763 1.524 . S
C767 H779 0.956 . S
C767 H780 0.961 . S
C767 H781 0.961 . S
C768 C765 1.539 . S
C768 H782 0.958 . S
C768 H783 0.961 . S
C768 H784 0.960 . S
H769 C753 0.931 . S
H770 C758 0.929 . S
H771 C759 0.960 1_556 S
H772 C759 0.962 1_556 S
H773 C759 0.960 . S
H774 C760 0.961 . S
H775 C760 0.961 . S
H776 C760 0.961 . S
H777 C761 0.931 . S
H778 C766 0.930 . S
H779 C767 0.956 . S
H780 C767 0.961 . S
H781 C767 0.961 . S
H782 C768 0.958 . S
H783 C768 0.961 . S
H784 C768 0.960 . S
C785 C786 1.391 . S
C785 C787 1.394 . S
C785 H801 0.931 . S
C786 C785 1.391 . S
C786 C790 1.376 . S
C787 C785 1.394 . S
C787 C788 1.369 . S
C787 C791 1.531 . S
C788 C787 1.369 . S
C788 C789 1.410 . S
C788 C796 1.503 . S
C789 C788 1.410 . S
C789 C790 1.392 . S
C789 C792 1.511 . S
C790 C786 1.376 . S
C790 C789 1.392 . S
C790 H802 0.929 1_556 S
C791 C787 1.531 . S
C791 H803 0.960 . S
C791 H804 0.962 . S
C791 H805 0.960 . S
C792 C789 1.511 . S
C792 H806 0.961 . S
C792 H807 0.961 . S
C792 H808 0.961 . S
C793 C794 1.370 . S
C793 C795 1.363 . S
C793 H809 0.931 . S
C794 C793 1.370 . S
C794 C798 1.408 . S
C795 C793 1.363 . S
C795 C796 1.370 . S
C795 C799 1.524 . S
C796 C788 1.503 . S
C796 C795 1.370 . S
C796 C797 1.403 . S
C797 C796 1.403 . S
C797 C798 1.404 . S
C797 C800 1.539 . S
C798 C794 1.408 . S
C798 C797 1.404 . S
C798 H810 0.930 . S
C799 C795 1.524 . S
C799 H811 0.956 . S
C799 H812 0.961 . S
C799 H813 0.961 . S
C800 C797 1.539 . S
C800 H814 0.958 . S
C800 H815 0.961 . S
C800 H816 0.960 . S
H801 C785 0.931 . S
H802 C790 0.929 1_554 S
H803 C791 0.960 . S
H804 C791 0.962 . S
H805 C791 0.960 . S
H806 C792 0.961 . S
H807 C792 0.961 . S
H808 C792 0.961 . S
H809 C793 0.931 . S
H810 C798 0.930 . S
H811 C799 0.956 . S
H812 C799 0.961 . S
H813 C799 0.961 . S
H814 C800 0.958 . S
H815 C800 0.961 . S
H816 C800 0.960 . S
C817 C818 1.391 . S
C817 C819 1.394 . S
C817 H833 0.931 1_556 S
C818 C817 1.391 . S
C818 C822 1.376 . S
C819 C817 1.394 . S
C819 C820 1.369 . S
C819 C823 1.531 . S
C820 C819 1.369 . S
C820 C821 1.410 . S
C820 C828 1.503 . S
C821 C820 1.410 . S
C821 C822 1.392 . S
C821 C824 1.511 . S
C822 C818 1.376 . S
C822 C821 1.392 . S
C822 H834 0.929 . S
C823 C819 1.531 . S
C823 H835 0.960 . S
C823 H836 0.962 . S
C823 H837 0.960 1_556 S
C824 C821 1.511 . S
C824 H838 0.961 . S
C824 H839 0.961 . S
C824 H840 0.961 . S
C825 C826 1.370 . S
C825 C827 1.363 . S
C825 H841 0.931 . S
C826 C825 1.370 . S
C826 C830 1.408 . S
C827 C825 1.363 . S
C827 C828 1.370 . S
C827 C831 1.524 . S
C828 C820 1.503 . S
C828 C827 1.370 . S
C828 C829 1.403 . S
C829 C828 1.403 . S
C829 C830 1.404 . S
C829 C832 1.539 . S
C830 C826 1.408 . S
C830 C829 1.404 . S
C830 H842 0.930 . S
C831 C827 1.524 . S
C831 H843 0.956 . S
C831 H844 0.961 . S
C831 H845 0.961 . S
C832 C829 1.539 . S
C832 H846 0.958 . S
C832 H847 0.961 . S
C832 H848 0.960 . S
H833 C817 0.931 1_554 S
H834 C822 0.929 . S
H835 C823 0.960 . S
H836 C823 0.962 . S
H837 C823 0.960 1_554 S
H838 C824 0.961 . S
H839 C824 0.961 . S
H840 C824 0.961 . S
H841 C825 0.931 . S
H842 C830 0.930 . S
H843 C831 0.956 . S
H844 C831 0.961 . S
H845 C831 0.961 . S
H846 C832 0.958 . S
H847 C832 0.961 . S
H848 C832 0.960 . S
C849 C850 1.391 . S
C849 C851 1.394 . S
C849 H865 0.931 . S
C850 C849 1.391 . S
C850 C854 1.376 . S
C851 C849 1.394 . S
C851 C852 1.369 . S
C851 C855 1.531 . S
C852 C851 1.369 . S
C852 C853 1.410 . S
C852 C860 1.503 . S
C853 C852 1.410 . S
C853 C854 1.392 . S
C853 C856 1.511 . S
C854 C850 1.376 . S
C854 C853 1.392 . S
C854 H866 0.929 . S
C855 C851 1.531 . S
C855 H867 0.960 . S
C855 H868 0.962 . S
C855 H869 0.960 . S
C856 C853 1.511 . S
C856 H870 0.961 . S
C856 H871 0.961 . S
C856 H872 0.961 . S
C857 C858 1.370 . S
C857 C859 1.363 . S
C857 H873 0.931 . S
C858 C857 1.370 . S
C858 C862 1.408 . S
C859 C857 1.363 . S
C859 C860 1.370 . S
C859 C863 1.524 . S
C860 C852 1.503 . S
C860 C859 1.370 . S
C860 C861 1.403 . S
C861 C860 1.403 . S
C861 C862 1.404 . S
C861 C864 1.539 . S
C862 C858 1.408 . S
C862 C861 1.404 . S
C862 H874 0.930 . S
C863 C859 1.524 . S
C863 H875 0.956 . S
C863 H876 0.961 . S
C863 H877 0.961 . S
C864 C861 1.539 . S
C864 H878 0.958 . S
C864 H879 0.961 . S
C864 H880 0.960 . S
H865 C849 0.931 . S
H866 C854 0.929 . S
H867 C855 0.960 . S
H868 C855 0.962 . S
H869 C855 0.960 . S
H870 C856 0.961 . S
H871 C856 0.961 . S
H872 C856 0.961 . S
H873 C857 0.931 . S
H874 C862 0.930 . S
H875 C863 0.956 . S
H876 C863 0.961 . S
H877 C863 0.961 . S
H878 C864 0.958 . S
H879 C864 0.961 . S
H880 C864 0.960 . S
C881 C882 1.391 . S
C881 C883 1.394 . S
C881 H897 0.931 . S
C882 C881 1.391 . S
C882 C886 1.376 . S
C883 C881 1.394 . S
C883 C884 1.369 . S
C883 C887 1.531 . S
C884 C883 1.369 . S
C884 C885 1.410 . S
C884 C892 1.503 . S
C885 C884 1.410 . S
C885 C886 1.392 . S
C885 C888 1.511 . S
C886 C882 1.376 . S
C886 C885 1.392 . S
C886 H898 0.929 . S
C887 C883 1.531 . S
C887 H899 0.960 . S
C887 H900 0.962 . S
C887 H901 0.960 . S
C888 C885 1.511 . S
C888 H902 0.961 . S
C888 H903 0.961 . S
C888 H904 0.961 . S
C889 C890 1.370 . S
C889 C891 1.363 . S
C889 H905 0.931 . S
C890 C889 1.370 . S
C890 C894 1.408 . S
C891 C889 1.363 . S
C891 C892 1.370 . S
C891 C895 1.524 . S
C892 C884 1.503 . S
C892 C891 1.370 . S
C892 C893 1.403 . S
C893 C892 1.403 . S
C893 C894 1.404 . S
C893 C896 1.539 . S
C894 C890 1.408 . S
C894 C893 1.404 . S
C894 H906 0.930 . S
C895 C891 1.524 . S
C895 H907 0.956 . S
C895 H908 0.961 . S
C895 H909 0.961 . S
C896 C893 1.539 . S
C896 H910 0.958 . S
C896 H911 0.961 . S
C896 H912 0.960 . S
H897 C881 0.931 . S
H898 C886 0.929 . S
H899 C887 0.960 . S
H900 C887 0.962 . S
H901 C887 0.960 . S
H902 C888 0.961 . S
H903 C888 0.961 . S
H904 C888 0.961 . S
H905 C889 0.931 . S
H906 C894 0.930 . S
H907 C895 0.956 . S
H908 C895 0.961 . S
H909 C895 0.961 . S
H910 C896 0.958 . S
H911 C896 0.961 . S
H912 C896 0.960 . S
C913 C914 1.391 . S
C913 C915 1.394 . S
C913 H929 0.931 . S
C914 C913 1.391 . S
C914 C918 1.376 . S
C915 C913 1.394 . S
C915 C916 1.369 . S
C915 C919 1.531 . S
C916 C915 1.369 . S
C916 C917 1.410 . S
C916 C924 1.503 . S
C917 C916 1.410 . S
C917 C918 1.392 . S
C917 C920 1.511 . S
C918 C914 1.376 . S
C918 C917 1.392 . S
C918 H930 0.929 . S
C919 C915 1.531 . S
C919 H931 0.960 . S
C919 H932 0.962 . S
C919 H933 0.960 . S
C920 C917 1.511 . S
C920 H934 0.961 . S
C920 H935 0.961 . S
C920 H936 0.961 . S
C921 C922 1.370 . S
C921 C923 1.363 . S
C921 H937 0.931 . S
C922 C921 1.370 . S
C922 C926 1.408 . S
C923 C921 1.363 . S
C923 C924 1.370 . S
C923 C927 1.524 . S
C924 C916 1.503 . S
C924 C923 1.370 . S
C924 C925 1.403 . S
C925 C924 1.403 . S
C925 C926 1.404 . S
C925 C928 1.539 . S
C926 C922 1.408 . S
C926 C925 1.404 . S
C926 H938 0.930 . S
C927 C923 1.524 . S
C927 H939 0.956 . S
C927 H940 0.961 . S
C927 H941 0.961 . S
C928 C925 1.539 . S
C928 H942 0.958 . S
C928 H943 0.961 . S
C928 H944 0.960 . S
H929 C913 0.931 . S
H930 C918 0.929 . S
H931 C919 0.960 . S
H932 C919 0.962 . S
H933 C919 0.960 . S
H934 C920 0.961 . S
H935 C920 0.961 . S
H936 C920 0.961 . S
H937 C921 0.931 . S
H938 C926 0.930 . S
H939 C927 0.956 . S
H940 C927 0.961 . S
H941 C927 0.961 . S
H942 C928 0.958 . S
H943 C928 0.961 . S
H944 C928 0.960 . S
C945 C946 1.391 . S
C945 C947 1.394 . S
C945 H961 0.931 1_556 S
C946 C945 1.391 . S
C946 C950 1.376 . S
C947 C945 1.394 . S
C947 C948 1.369 . S
C947 C951 1.531 . S
C948 C947 1.369 . S
C948 C949 1.410 . S
C948 C956 1.503 . S
C949 C948 1.410 . S
C949 C950 1.392 . S
C949 C952 1.511 . S
C950 C946 1.376 . S
C950 C949 1.392 . S
C950 H962 0.929 . S
C951 C947 1.531 . S
C951 H963 0.960 . S
C951 H964 0.962 . S
C951 H965 0.960 . S
C952 C949 1.511 . S
C952 H966 0.961 . S
C952 H967 0.961 . S
C952 H968 0.961 . S
C953 C954 1.370 . S
C953 C955 1.363 . S
C953 H969 0.931 . S
C954 C953 1.370 . S
C954 C958 1.408 . S
C955 C953 1.363 . S
C955 C956 1.370 . S
C955 C959 1.524 . S
C956 C948 1.503 . S
C956 C955 1.370 . S
C956 C957 1.403 . S
C957 C956 1.403 . S
C957 C958 1.404 . S
C957 C960 1.539 . S
C958 C954 1.408 . S
C958 C957 1.404 . S
C958 H970 0.930 . S
C959 C955 1.524 . S
C959 H971 0.956 . S
C959 H972 0.961 . S
C959 H973 0.961 . S
C960 C957 1.539 . S
C960 H974 0.958 . S
C960 H975 0.961 . S
C960 H976 0.960 . S
H961 C945 0.931 1_554 S
H962 C950 0.929 . S
H963 C951 0.960 . S
H964 C951 0.962 . S
H965 C951 0.960 . S
H966 C952 0.961 . S
H967 C952 0.961 . S
H968 C952 0.961 . S
H969 C953 0.931 . S
H970 C958 0.930 . S
H971 C959 0.956 . S
H972 C959 0.961 . S
H973 C959 0.961 . S
H974 C960 0.958 . S
H975 C960 0.961 . S
H976 C960 0.960 . S
C977 C978 1.391 . S
C977 C979 1.394 . S
C977 H993 0.931 . S
C978 C977 1.391 . S
C978 C982 1.376 . S
C979 C977 1.394 . S
C979 C980 1.369 . S
C979 C983 1.531 . S
C980 C979 1.369 . S
C980 C981 1.410 . S
C980 C988 1.503 . S
C981 C980 1.410 . S
C981 C982 1.392 . S
C981 C984 1.511 . S
C982 C978 1.376 . S
C982 C981 1.392 . S
C982 H994 0.929 . S
C983 C979 1.531 . S
C983 H995 0.960 . S
C983 H996 0.962 . S
C983 H997 0.960 . S
C984 C981 1.511 . S
C984 H998 0.961 . S
C984 H999 0.961 . S
C984 H1000 0.961 . S
C985 C986 1.370 . S
C985 C987 1.363 . S
C985 H1001 0.931 . S
C986 C985 1.370 . S
C986 C990 1.408 . S
C987 C985 1.363 . S
C987 C988 1.370 . S
C987 C991 1.524 . S
C988 C980 1.503 . S
C988 C987 1.370 . S
C988 C989 1.403 . S
C989 C988 1.403 . S
C989 C990 1.404 . S
C989 C992 1.539 . S
C990 C986 1.408 . S
C990 C989 1.404 . S
C990 H1002 0.930 . S
C991 C987 1.524 . S
C991 H1003 0.956 . S
C991 H1004 0.961 . S
C991 H1005 0.961 . S
C992 C989 1.539 . S
C992 H1006 0.958 . S
C992 H1007 0.961 . S
C992 H1008 0.960 . S
H993 C977 0.931 . S
H994 C982 0.929 . S
H995 C983 0.960 . S
H996 C983 0.962 . S
H997 C983 0.960 . S
H998 C984 0.961 . S
H999 C984 0.961 . S
H1000 C984 0.961 . S
H1001 C985 0.931 . S
H1002 C990 0.930 . S
H1003 C991 0.956 . S
H1004 C991 0.961 . S
H1005 C991 0.961 . S
H1006 C992 0.958 . S
H1007 C992 0.961 . S
H1008 C992 0.960 . S
C1009 C1010 1.391 . S
C1009 C1011 1.394 . S
C1009 H1025 0.931 . S
C1010 C1009 1.391 . S
C1010 C1014 1.376 . S
C1011 C1009 1.394 . S
C1011 C1012 1.369 . S
C1011 C1015 1.531 . S
C1012 C1011 1.369 . S
C1012 C1013 1.410 . S
C1012 C1020 1.503 . S
C1013 C1012 1.410 . S
C1013 C1014 1.392 . S
C1013 C1016 1.511 . S
C1014 C1010 1.376 . S
C1014 C1013 1.392 . S
C1014 H1026 0.929 . S
C1015 C1011 1.531 . S
C1015 H1027 0.960 . S
C1015 H1028 0.962 . S
C1015 H1029 0.960 . S
C1016 C1013 1.511 . S
C1016 H1030 0.961 . S
C1016 H1031 0.961 . S
C1016 H1032 0.961 . S
C1017 C1018 1.370 . S
C1017 C1019 1.363 . S
C1017 H1033 0.931 . S
C1018 C1017 1.370 . S
C1018 C1022 1.408 . S
C1019 C1017 1.363 . S
C1019 C1020 1.370 . S
C1019 C1023 1.524 . S
C1020 C1012 1.503 . S
C1020 C1019 1.370 . S
C1020 C1021 1.403 . S
C1021 C1020 1.403 . S
C1021 C1022 1.404 . S
C1021 C1024 1.539 . S
C1022 C1018 1.408 . S
C1022 C1021 1.404 . S
C1022 H1034 0.930 . S
C1023 C1019 1.524 . S
C1023 H1035 0.956 . S
C1023 H1036 0.961 . S
C1023 H1037 0.961 . S
C1024 C1021 1.539 . S
C1024 H1038 0.958 . S
C1024 H1039 0.961 . S
C1024 H1040 0.960 . S
H1025 C1009 0.931 . S
H1026 C1014 0.929 . S
H1027 C1015 0.960 . S
H1028 C1015 0.962 . S
H1029 C1015 0.960 . S
H1030 C1016 0.961 . S
H1031 C1016 0.961 . S
H1032 C1016 0.961 . S
H1033 C1017 0.931 . S
H1034 C1022 0.930 . S
H1035 C1023 0.956 . S
H1036 C1023 0.961 . S
H1037 C1023 0.961 . S
H1038 C1024 0.958 . S
H1039 C1024 0.961 . S
H1040 C1024 0.960 . S
C1041 C1042 1.391 . S
C1041 C1043 1.394 . S
C1041 H1057 0.931 . S
C1042 C1041 1.391 . S
C1042 C1046 1.376 . S
C1043 C1041 1.394 . S
C1043 C1044 1.369 . S
C1043 C1047 1.531 . S
C1044 C1043 1.369 . S
C1044 C1045 1.410 . S
C1044 C1052 1.503 . S
C1045 C1044 1.410 . S
C1045 C1046 1.392 . S
C1045 C1048 1.511 . S
C1046 C1042 1.376 . S
C1046 C1045 1.392 . S
C1046 H1058 0.929 . S
C1047 C1043 1.531 . S
C1047 H1059 0.960 . S
C1047 H1060 0.962 . S
C1047 H1061 0.960 . S
C1048 C1045 1.511 . S
C1048 H1062 0.961 . S
C1048 H1063 0.961 . S
C1048 H1064 0.961 . S
C1049 C1050 1.370 . S
C1049 C1051 1.363 . S
C1049 H1065 0.931 . S
C1050 C1049 1.370 . S
C1050 C1054 1.408 . S
C1051 C1049 1.363 . S
C1051 C1052 1.370 . S
C1051 C1055 1.524 . S
C1052 C1044 1.503 . S
C1052 C1051 1.370 . S
C1052 C1053 1.403 . S
C1053 C1052 1.403 . S
C1053 C1054 1.404 . S
C1053 C1056 1.539 . S
C1054 C1050 1.408 . S
C1054 C1053 1.404 . S
C1054 H1066 0.930 . S
C1055 C1051 1.524 . S
C1055 H1067 0.956 . S
C1055 H1068 0.961 . S
C1055 H1069 0.961 . S
C1056 C1053 1.539 . S
C1056 H1070 0.958 . S
C1056 H1071 0.961 . S
C1056 H1072 0.960 . S
H1057 C1041 0.931 . S
H1058 C1046 0.929 . S
H1059 C1047 0.960 . S
H1060 C1047 0.962 . S
H1061 C1047 0.960 . S
H1062 C1048 0.961 . S
H1063 C1048 0.961 . S
H1064 C1048 0.961 . S
H1065 C1049 0.931 . S
H1066 C1054 0.930 . S
H1067 C1055 0.956 . S
H1068 C1055 0.961 . S
H1069 C1055 0.961 . S
H1070 C1056 0.958 . S
H1071 C1056 0.961 . S
H1072 C1056 0.960 . S
C1073 C1074 1.391 . S
C1073 C1075 1.394 . S
C1073 H1089 0.931 . S
C1074 C1073 1.391 . S
C1074 C1078 1.376 . S
C1075 C1073 1.394 . S
C1075 C1076 1.369 . S
C1075 C1079 1.531 . S
C1076 C1075 1.369 . S
C1076 C1077 1.410 . S
C1076 C1084 1.503 . S
C1077 C1076 1.410 . S
C1077 C1078 1.392 . S
C1077 C1080 1.511 . S
C1078 C1074 1.376 . S
C1078 C1077 1.392 . S
C1078 H1090 0.929 . S
C1079 C1075 1.531 . S
C1079 H1091 0.960 . S
C1079 H1092 0.962 . S
C1079 H1093 0.960 . S
C1080 C1077 1.511 . S
C1080 H1094 0.961 . S
C1080 H1095 0.961 . S
C1080 H1096 0.961 . S
C1081 C1082 1.370 . S
C1081 C1083 1.363 . S
C1081 H1097 0.931 . S
C1082 C1081 1.370 . S
C1082 C1086 1.408 . S
C1083 C1081 1.363 . S
C1083 C1084 1.370 . S
C1083 C1087 1.524 . S
C1084 C1076 1.503 . S
C1084 C1083 1.370 . S
C1084 C1085 1.403 . S
C1085 C1084 1.403 . S
C1085 C1086 1.404 . S
C1085 C1088 1.539 . S
C1086 C1082 1.408 . S
C1086 C1085 1.404 . S
C1086 H1098 0.930 . S
C1087 C1083 1.524 . S
C1087 H1099 0.956 . S
C1087 H1100 0.961 . S
C1087 H1101 0.961 . S
C1088 C1085 1.539 . S
C1088 H1102 0.958 . S
C1088 H1103 0.961 . S
C1088 H1104 0.960 . S
H1089 C1073 0.931 . S
H1090 C1078 0.929 . S
H1091 C1079 0.960 . S
H1092 C1079 0.962 . S
H1093 C1079 0.960 . S
H1094 C1080 0.961 . S
H1095 C1080 0.961 . S
H1096 C1080 0.961 . S
H1097 C1081 0.931 . S
H1098 C1086 0.930 . S
H1099 C1087 0.956 . S
H1100 C1087 0.961 . S
H1101 C1087 0.961 . S
H1102 C1088 0.958 . S
H1103 C1088 0.961 . S
H1104 C1088 0.960 . S
C1105 C1106 1.391 . S
C1105 C1107 1.394 . S
C1105 H1121 0.931 . S
C1106 C1105 1.391 . S
C1106 C1110 1.376 . S
C1107 C1105 1.394 . S
C1107 C1108 1.369 . S
C1107 C1111 1.531 . S
C1108 C1107 1.369 . S
C1108 C1109 1.410 . S
C1108 C1116 1.503 . S
C1109 C1108 1.410 . S
C1109 C1110 1.392 . S
C1109 C1112 1.511 . S
C1110 C1106 1.376 . S
C1110 C1109 1.392 . S
C1110 H1122 0.929 . S
C1111 C1107 1.531 . S
C1111 H1123 0.960 . S
C1111 H1124 0.962 . S
C1111 H1125 0.960 . S
C1112 C1109 1.511 . S
C1112 H1126 0.961 . S
C1112 H1127 0.961 . S
C1112 H1128 0.961 . S
C1113 C1114 1.370 . S
C1113 C1115 1.363 . S
C1113 H1129 0.931 . S
C1114 C1113 1.370 . S
C1114 C1118 1.408 . S
C1115 C1113 1.363 . S
C1115 C1116 1.370 . S
C1115 C1119 1.524 . S
C1116 C1108 1.503 . S
C1116 C1115 1.370 . S
C1116 C1117 1.403 . S
C1117 C1116 1.403 . S
C1117 C1118 1.404 . S
C1117 C1120 1.539 . S
C1118 C1114 1.408 . S
C1118 C1117 1.404 . S
C1118 H1130 0.930 . S
C1119 C1115 1.524 . S
C1119 H1131 0.956 . S
C1119 H1132 0.961 . S
C1119 H1133 0.961 . S
C1120 C1117 1.539 . S
C1120 H1134 0.958 . S
C1120 H1135 0.961 . S
C1120 H1136 0.960 . S
H1121 C1105 0.931 . S
H1122 C1110 0.929 . S
H1123 C1111 0.960 . S
H1124 C1111 0.962 . S
H1125 C1111 0.960 . S
H1126 C1112 0.961 . S
H1127 C1112 0.961 . S
H1128 C1112 0.961 . S
H1129 C1113 0.931 . S
H1130 C1118 0.930 . S
H1131 C1119 0.956 . S
H1132 C1119 0.961 . S
H1133 C1119 0.961 . S
H1134 C1120 0.958 . S
H1135 C1120 0.961 . S
H1136 C1120 0.960 . S
C1137 C1138 1.391 . S
C1137 C1139 1.394 . S
C1137 H1153 0.931 . S
C1138 C1137 1.391 . S
C1138 C1142 1.376 . S
C1139 C1137 1.394 . S
C1139 C1140 1.369 . S
C1139 C1143 1.531 . S
C1140 C1139 1.369 . S
C1140 C1141 1.410 . S
C1140 C1148 1.503 . S
C1141 C1140 1.410 . S
C1141 C1142 1.392 . S
C1141 C1144 1.511 . S
C1142 C1138 1.376 . S
C1142 C1141 1.392 . S
C1142 H1154 0.929 . S
C1143 C1139 1.531 . S
C1143 H1155 0.960 . S
C1143 H1156 0.962 . S
C1143 H1157 0.960 . S
C1144 C1141 1.511 . S
C1144 H1158 0.961 . S
C1144 H1159 0.961 . S
C1144 H1160 0.961 . S
C1145 C1146 1.370 . S
C1145 C1147 1.363 . S
C1145 H1161 0.931 . S
C1146 C1145 1.370 . S
C1146 C1150 1.408 . S
C1147 C1145 1.363 . S
C1147 C1148 1.370 . S
C1147 C1151 1.524 . S
C1148 C1140 1.503 . S
C1148 C1147 1.370 . S
C1148 C1149 1.403 . S
C1149 C1148 1.403 . S
C1149 C1150 1.404 . S
C1149 C1152 1.539 . S
C1150 C1146 1.408 . S
C1150 C1149 1.404 . S
C1150 H1162 0.930 . S
C1151 C1147 1.524 . S
C1151 H1163 0.956 . S
C1151 H1164 0.961 . S
C1151 H1165 0.961 . S
C1152 C1149 1.539 . S
C1152 H1166 0.958 . S
C1152 H1167 0.961 . S
C1152 H1168 0.960 . S
H1153 C1137 0.931 . S
H1154 C1142 0.929 . S
H1155 C1143 0.960 . S
H1156 C1143 0.962 . S
H1157 C1143 0.960 . S
H1158 C1144 0.961 . S
H1159 C1144 0.961 . S
H1160 C1144 0.961 . S
H1161 C1145 0.931 . S
H1162 C1150 0.930 . S
H1163 C1151 0.956 . S
H1164 C1151 0.961 . S
H1165 C1151 0.961 . S
H1166 C1152 0.958 . S
H1167 C1152 0.961 . S
H1168 C1152 0.960 . S
C1169 C1170 1.391 . S
C1169 C1171 1.394 . S
C1169 H1185 0.931 . S
C1170 C1169 1.391 . S
C1170 C1174 1.376 . S
C1171 C1169 1.394 . S
C1171 C1172 1.369 . S
C1171 C1175 1.531 . S
C1172 C1171 1.369 . S
C1172 C1173 1.410 . S
C1172 C1180 1.503 . S
C1173 C1172 1.410 . S
C1173 C1174 1.392 . S
C1173 C1176 1.511 . S
C1174 C1170 1.376 . S
C1174 C1173 1.392 . S
C1174 H1186 0.929 . S
C1175 C1171 1.531 . S
C1175 H1187 0.960 . S
C1175 H1188 0.962 . S
C1175 H1189 0.960 . S
C1176 C1173 1.511 . S
C1176 H1190 0.961 . S
C1176 H1191 0.961 . S
C1176 H1192 0.961 . S
C1177 C1178 1.370 . S
C1177 C1179 1.363 . S
C1177 H1193 0.931 . S
C1178 C1177 1.370 . S
C1178 C1182 1.408 . S
C1179 C1177 1.363 . S
C1179 C1180 1.370 . S
C1179 C1183 1.524 . S
C1180 C1172 1.503 . S
C1180 C1179 1.370 . S
C1180 C1181 1.403 . S
C1181 C1180 1.403 . S
C1181 C1182 1.404 . S
C1181 C1184 1.539 . S
C1182 C1178 1.408 . S
C1182 C1181 1.404 . S
C1182 H1194 0.930 . S
C1183 C1179 1.524 . S
C1183 H1195 0.956 . S
C1183 H1196 0.961 . S
C1183 H1197 0.961 . S
C1184 C1181 1.539 . S
C1184 H1198 0.958 . S
C1184 H1199 0.961 . S
C1184 H1200 0.960 . S
H1185 C1169 0.931 . S
H1186 C1174 0.929 . S
H1187 C1175 0.960 . S
H1188 C1175 0.962 . S
H1189 C1175 0.960 . S
H1190 C1176 0.961 . S
H1191 C1176 0.961 . S
H1192 C1176 0.961 . S
H1193 C1177 0.931 . S
H1194 C1182 0.930 . S
H1195 C1183 0.956 . S
H1196 C1183 0.961 . S
H1197 C1183 0.961 . S
H1198 C1184 0.958 . S
H1199 C1184 0.961 . S
H1200 C1184 0.960 . S
C1201 C1202 1.391 . S
C1201 C1203 1.394 . S
C1201 H1217 0.931 . S
C1202 C1201 1.391 . S
C1202 C1206 1.376 . S
C1203 C1201 1.394 . S
C1203 C1204 1.369 . S
C1203 C1207 1.531 . S
C1204 C1203 1.369 . S
C1204 C1205 1.410 . S
C1204 C1212 1.503 . S
C1205 C1204 1.410 . S
C1205 C1206 1.392 . S
C1205 C1208 1.511 . S
C1206 C1202 1.376 . S
C1206 C1205 1.392 . S
C1206 H1218 0.929 . S
C1207 C1203 1.531 . S
C1207 H1219 0.960 . S
C1207 H1220 0.962 . S
C1207 H1221 0.960 . S
C1208 C1205 1.511 . S
C1208 H1222 0.961 . S
C1208 H1223 0.961 . S
C1208 H1224 0.961 . S
C1209 C1210 1.370 . S
C1209 C1211 1.363 . S
C1209 H1225 0.931 . S
C1210 C1209 1.370 . S
C1210 C1214 1.408 . S
C1211 C1209 1.363 . S
C1211 C1212 1.370 . S
C1211 C1215 1.524 . S
C1212 C1204 1.503 . S
C1212 C1211 1.370 . S
C1212 C1213 1.403 . S
C1213 C1212 1.403 . S
C1213 C1214 1.404 . S
C1213 C1216 1.539 . S
C1214 C1210 1.408 . S
C1214 C1213 1.404 . S
C1214 H1226 0.930 . S
C1215 C1211 1.524 . S
C1215 H1227 0.956 . S
C1215 H1228 0.961 . S
C1215 H1229 0.961 . S
C1216 C1213 1.539 . S
C1216 H1230 0.958 . S
C1216 H1231 0.961 . S
C1216 H1232 0.960 . S
H1217 C1201 0.931 . S
H1218 C1206 0.929 . S
H1219 C1207 0.960 . S
H1220 C1207 0.962 . S
H1221 C1207 0.960 . S
H1222 C1208 0.961 . S
H1223 C1208 0.961 . S
H1224 C1208 0.961 . S
H1225 C1209 0.931 . S
H1226 C1214 0.930 . S
H1227 C1215 0.956 . S
H1228 C1215 0.961 . S
H1229 C1215 0.961 . S
H1230 C1216 0.958 . S
H1231 C1216 0.961 . S
H1232 C1216 0.960 . S
C466 C47 1.982 . S
C474 C383 2.131 . S
C498 C91 1.803 . S
C506 C430 1.908 . S
C538 C434 1.825 . S
C530 C177 1.893 . S
C570 C399 1.774 . S
C562 C215 1.725 . S
C594 C295 1.903 . S
C602 C414 1.982 . S
C634 C436 0.880 . S
C626 C345 0.932 . S
C666 C405 1.698 . S
C658 C153 1.631 . S
C690 C239 1.319 . S
C698 C445 1.299 . S
C730 C374 1.249 . S
C722 C283 1.294 . S
C754 C357 1.643 1_556 S
C762 C403 1.689 . S
C786 C35 1.953 1_556 S
C794 C461 1.911 . S
C826 C372 1.461 . S
C818 C115 1.515 1_556 S
C858 C390 1.714 . S
C850 C221 1.763 . S
C890 C404 1.529 . S
C882 C301 1.544 . S
C922 C458 2.099 . S
C914 C339 2.082 1_556 S
C954 C373 1.523 . S
C946 C53 1.550 1_556 S
C986 C421 1.670 . S
C978 C97 1.778 . S
C1010 C171 1.156 . S
C1018 C444 1.275 . S
C1050 C413 1.296 . S
C1042 C363 1.334 . S
C1082 C452 1.693 . S
C1074 C29 1.522 . S
C1114 C382 1.538 . S
C1106 C109 1.563 . S
C1146 C427 1.434 . S
C1138 C159 1.486 . S
C1170 C233 2.147 . S
C1178 C435 2.193 . S
C1202 C277 1.687 . S
C1210 C396 1.825 . S
