# Generated by pormake.
# Topology ptr, (4,4)-cn, num edge types: 1
# Building blocks:
#     Node 0, Type 0, BuildingBlock: QUQFOY_clean_sbu_3, # of connection points: 4
#     Node 1, Type 0, BuildingBlock: QUQFOY_clean_sbu_3, # of connection points: 4
#     Node 2, Type 0, BuildingBlock: QUQFOY_clean_sbu_3, # of connection points: 4
#     Node 3, Type 0, BuildingBlock: QUQFOY_clean_sbu_3, # of connection points: 4
#     Node 4, Type 0, BuildingBlock: QUQFOY_clean_sbu_3, # of connection points: 4
#     Node 5, Type 0, BuildingBlock: QUQFOY_clean_sbu_3, # of connection points: 4
#     Node 6, Type 0, BuildingBlock: QUQFOY_clean_sbu_3, # of connection points: 4
#     Node 7, Type 0, BuildingBlock: QUQFOY_clean_sbu_3, # of connection points: 4
#     Node 8, Type 0, BuildingBlock: QUQFOY_clean_sbu_3, # of connection points: 4
#     Node 9, Type 0, BuildingBlock: QUQFOY_clean_sbu_3, # of connection points: 4
#     Node 10, Type 0, BuildingBlock: QUQFOY_clean_sbu_3, # of connection points: 4
#     Node 11, Type 0, BuildingBlock: QUQFOY_clean_sbu_3, # of connection points: 4
#     Node 12, Type 0, BuildingBlock: QUQFOY_clean_sbu_3, # of connection points: 4
#     Node 13, Type 0, BuildingBlock: QUQFOY_clean_sbu_3, # of connection points: 4
#     Node 14, Type 0, BuildingBlock: QUQFOY_clean_sbu_3, # of connection points: 4
#     Node 15, Type 0, BuildingBlock: QUQFOY_clean_sbu_3, # of connection points: 4
#     Node 16, Type 0, BuildingBlock: QUQFOY_clean_sbu_3, # of connection points: 4
#     Node 17, Type 0, BuildingBlock: QUQFOY_clean_sbu_3, # of connection points: 4
#     Node 18, Type 1, BuildingBlock: MUDLON_clean_linker_0, # of connection points: 4
#     Node 19, Type 1, BuildingBlock: MUDLON_clean_linker_0, # of connection points: 4
#     Node 20, Type 1, BuildingBlock: MUDLON_clean_linker_0, # of connection points: 4
#     Node 21, Type 1, BuildingBlock: MUDLON_clean_linker_0, # of connection points: 4
#     Node 22, Type 1, BuildingBlock: MUDLON_clean_linker_0, # of connection points: 4
#     Node 23, Type 1, BuildingBlock: MUDLON_clean_linker_0, # of connection points: 4
#     Node 24, Type 1, BuildingBlock: MUDLON_clean_linker_0, # of connection points: 4
#     Node 25, Type 1, BuildingBlock: MUDLON_clean_linker_0, # of connection points: 4
#     Node 26, Type 1, BuildingBlock: MUDLON_clean_linker_0, # of connection points: 4
#     Node 27, Type 1, BuildingBlock: MUDLON_clean_linker_0, # of connection points: 4
#     Node 28, Type 1, BuildingBlock: MUDLON_clean_linker_0, # of connection points: 4
#     Node 29, Type 1, BuildingBlock: MUDLON_clean_linker_0, # of connection points: 4
#     Node 30, Type 1, BuildingBlock: MUDLON_clean_linker_0, # of connection points: 4
#     Node 31, Type 1, BuildingBlock: MUDLON_clean_linker_0, # of connection points: 4
#     Node 32, Type 1, BuildingBlock: MUDLON_clean_linker_0, # of connection points: 4
#     Node 33, Type 1, BuildingBlock: MUDLON_clean_linker_0, # of connection points: 4
#     Node 34, Type 1, BuildingBlock: MUDLON_clean_linker_0, # of connection points: 4
#     Node 35, Type 1, BuildingBlock: MUDLON_clean_linker_0, # of connection points: 4
#     Edge 36, Type (0, 1), BuildingBlock: TEMPAE_clean_linker_10, # of connection points: 2
#     Edge 37, Type (0, 1), BuildingBlock: TEMPAE_clean_linker_10, # of connection points: 2
#     Edge 38, Type (0, 1), BuildingBlock: TEMPAE_clean_linker_10, # of connection points: 2
#     Edge 39, Type (0, 1), BuildingBlock: TEMPAE_clean_linker_10, # of connection points: 2
#     Edge 40, Type (0, 1), BuildingBlock: TEMPAE_clean_linker_10, # of connection points: 2
#     Edge 41, Type (0, 1), BuildingBlock: TEMPAE_clean_linker_10, # of connection points: 2
#     Edge 42, Type (0, 1), BuildingBlock: TEMPAE_clean_linker_10, # of connection points: 2
#     Edge 43, Type (0, 1), BuildingBlock: TEMPAE_clean_linker_10, # of connection points: 2
#     Edge 44, Type (0, 1), BuildingBlock: TEMPAE_clean_linker_10, # of connection points: 2
#     Edge 45, Type (0, 1), BuildingBlock: TEMPAE_clean_linker_10, # of connection points: 2
#     Edge 46, Type (0, 1), BuildingBlock: TEMPAE_clean_linker_10, # of connection points: 2
#     Edge 47, Type (0, 1), BuildingBlock: TEMPAE_clean_linker_10, # of connection points: 2
#     Edge 48, Type (0, 1), BuildingBlock: TEMPAE_clean_linker_10, # of connection points: 2
#     Edge 49, Type (0, 1), BuildingBlock: TEMPAE_clean_linker_10, # of connection points: 2
#     Edge 50, Type (0, 1), BuildingBlock: TEMPAE_clean_linker_10, # of connection points: 2
#     Edge 51, Type (0, 1), BuildingBlock: TEMPAE_clean_linker_10, # of connection points: 2
#     Edge 52, Type (0, 1), BuildingBlock: TEMPAE_clean_linker_10, # of connection points: 2
#     Edge 53, Type (0, 1), BuildingBlock: TEMPAE_clean_linker_10, # of connection points: 2
#     Edge 54, Type (0, 1), BuildingBlock: TEMPAE_clean_linker_10, # of connection points: 2
#     Edge 55, Type (0, 1), BuildingBlock: TEMPAE_clean_linker_10, # of connection points: 2
#     Edge 56, Type (0, 1), BuildingBlock: TEMPAE_clean_linker_10, # of connection points: 2
#     Edge 57, Type (0, 1), BuildingBlock: TEMPAE_clean_linker_10, # of connection points: 2
#     Edge 58, Type (0, 1), BuildingBlock: TEMPAE_clean_linker_10, # of connection points: 2
#     Edge 59, Type (0, 1), BuildingBlock: TEMPAE_clean_linker_10, # of connection points: 2
#     Edge 60, Type (0, 1), BuildingBlock: TEMPAE_clean_linker_10, # of connection points: 2
#     Edge 61, Type (0, 1), BuildingBlock: TEMPAE_clean_linker_10, # of connection points: 2
#     Edge 62, Type (0, 1), BuildingBlock: TEMPAE_clean_linker_10, # of connection points: 2
#     Edge 63, Type (0, 1), BuildingBlock: TEMPAE_clean_linker_10, # of connection points: 2
#     Edge 64, Type (0, 1), BuildingBlock: TEMPAE_clean_linker_10, # of connection points: 2
#     Edge 65, Type (0, 1), BuildingBlock: TEMPAE_clean_linker_10, # of connection points: 2
#     Edge 66, Type (0, 1), BuildingBlock: TEMPAE_clean_linker_10, # of connection points: 2
#     Edge 67, Type (0, 1), BuildingBlock: TEMPAE_clean_linker_10, # of connection points: 2
#     Edge 68, Type (0, 1), BuildingBlock: TEMPAE_clean_linker_10, # of connection points: 2
#     Edge 69, Type (0, 1), BuildingBlock: TEMPAE_clean_linker_10, # of connection points: 2
#     Edge 70, Type (0, 1), BuildingBlock: TEMPAE_clean_linker_10, # of connection points: 2
#     Edge 71, Type (0, 1), BuildingBlock: TEMPAE_clean_linker_10, # of connection points: 2
#     Edge 72, Type (0, 1), BuildingBlock: TEMPAE_clean_linker_10, # of connection points: 2
#     Edge 73, Type (0, 1), BuildingBlock: TEMPAE_clean_linker_10, # of connection points: 2
#     Edge 74, Type (0, 1), BuildingBlock: TEMPAE_clean_linker_10, # of connection points: 2
#     Edge 75, Type (0, 1), BuildingBlock: TEMPAE_clean_linker_10, # of connection points: 2
#     Edge 76, Type (0, 1), BuildingBlock: TEMPAE_clean_linker_10, # of connection points: 2
#     Edge 77, Type (0, 1), BuildingBlock: TEMPAE_clean_linker_10, # of connection points: 2
#     Edge 78, Type (0, 1), BuildingBlock: TEMPAE_clean_linker_10, # of connection points: 2
#     Edge 79, Type (0, 1), BuildingBlock: TEMPAE_clean_linker_10, # of connection points: 2
#     Edge 80, Type (0, 1), BuildingBlock: TEMPAE_clean_linker_10, # of connection points: 2
#     Edge 81, Type (0, 1), BuildingBlock: TEMPAE_clean_linker_10, # of connection points: 2
#     Edge 82, Type (0, 1), BuildingBlock: TEMPAE_clean_linker_10, # of connection points: 2
#     Edge 83, Type (0, 1), BuildingBlock: TEMPAE_clean_linker_10, # of connection points: 2
#     Edge 84, Type (0, 1), BuildingBlock: TEMPAE_clean_linker_10, # of connection points: 2
#     Edge 85, Type (0, 1), BuildingBlock: TEMPAE_clean_linker_10, # of connection points: 2
#     Edge 86, Type (0, 1), BuildingBlock: TEMPAE_clean_linker_10, # of connection points: 2
#     Edge 87, Type (0, 1), BuildingBlock: TEMPAE_clean_linker_10, # of connection points: 2
#     Edge 88, Type (0, 1), BuildingBlock: TEMPAE_clean_linker_10, # of connection points: 2
#     Edge 89, Type (0, 1), BuildingBlock: TEMPAE_clean_linker_10, # of connection points: 2
#     Edge 90, Type (0, 1), BuildingBlock: TEMPAE_clean_linker_10, # of connection points: 2
#     Edge 91, Type (0, 1), BuildingBlock: TEMPAE_clean_linker_10, # of connection points: 2
#     Edge 92, Type (0, 1), BuildingBlock: TEMPAE_clean_linker_10, # of connection points: 2
#     Edge 93, Type (0, 1), BuildingBlock: TEMPAE_clean_linker_10, # of connection points: 2
#     Edge 94, Type (0, 1), BuildingBlock: TEMPAE_clean_linker_10, # of connection points: 2
#     Edge 95, Type (0, 1), BuildingBlock: TEMPAE_clean_linker_10, # of connection points: 2
#     Edge 96, Type (0, 1), BuildingBlock: TEMPAE_clean_linker_10, # of connection points: 2
#     Edge 97, Type (0, 1), BuildingBlock: TEMPAE_clean_linker_10, # of connection points: 2
#     Edge 98, Type (0, 1), BuildingBlock: TEMPAE_clean_linker_10, # of connection points: 2
#     Edge 99, Type (0, 1), BuildingBlock: TEMPAE_clean_linker_10, # of connection points: 2
#     Edge 100, Type (0, 1), BuildingBlock: TEMPAE_clean_linker_10, # of connection points: 2
#     Edge 101, Type (0, 1), BuildingBlock: TEMPAE_clean_linker_10, # of connection points: 2
#     Edge 102, Type (0, 1), BuildingBlock: TEMPAE_clean_linker_10, # of connection points: 2
#     Edge 103, Type (0, 1), BuildingBlock: TEMPAE_clean_linker_10, # of connection points: 2
#     Edge 104, Type (0, 1), BuildingBlock: TEMPAE_clean_linker_10, # of connection points: 2
#     Edge 105, Type (0, 1), BuildingBlock: TEMPAE_clean_linker_10, # of connection points: 2
#     Edge 106, Type (0, 1), BuildingBlock: TEMPAE_clean_linker_10, # of connection points: 2
#     Edge 107, Type (0, 1), BuildingBlock: TEMPAE_clean_linker_10, # of connection points: 2
# Relax obj value: 0.030
# Max RMSD: 0.097
# Mean RMSD: 0.061
data_MOF--net-ptr--node1-QUQFOY_clean_sbu_3--node2-MUDLON_clean_linker_0--edge1-TEMPAE_clean_linker_10
_symmetry_space_group_name_H-M    P1
_symmetry_Int_Tables_number       1
_symmetry_cell_setting            triclinic
loop_
_symmetry_equiv_pos_as_xyz
'x, y, z'
_cell_length_a     106.50906
_cell_length_b     107.08436
_cell_length_c     65.025808
_cell_angle_alpha  90.194143
_cell_angle_beta   89.66871
_cell_angle_gamma 120.45429
loop_
_atom_site_label
_atom_site_type_symbol
_atom_site_fract_x
_atom_site_fract_y
_atom_site_fract_z
_atom_type_partial_charge
C0 C 0.97033 0.33542 0.01253 0.0
O1 O 0.96364 0.34156 0.0195 0.0
Cd2 Cd 0.97625 0.36638 0.03081 0.0
O3 O 0.9842 0.34204 0.0125 0.0
Cd4 Cd 0.00521 0.36532 0.02436 0.0
C5 C -0.00173 0.38414 0.98912 0.0
O6 O 0.99412 0.36885 0.05522 0.0
O7 O 0.01481 0.38702 0.0459 0.0
O8 O 0.01525 0.35143 0.0389 0.0
C9 C 0.0045 0.38156 0.05893 0.0
O10 O 0.98741 0.38163 0.00041 0.0
C11 C 0.02731 0.35795 0.02931 0.0
O12 O 0.00624 0.37884 0.99365 0.0
O13 O 0.02918 0.36803 0.01716 0.0
C14 C 0.63045 0.66912 0.02725 0.0
O15 O 0.61668 0.66235 0.02556 0.0
Cd16 Cd 0.60325 0.6382 0.01195 0.0
O17 O 0.63769 0.66318 0.0217 0.0
Cd18 Cd 0.63348 0.64005 0.00667 0.0
C19 C 0.61205 0.61973 0.04633 0.0
O20 O 0.61548 0.63745 0.98105 0.0
O21 O 0.61892 0.61935 0.98422 0.0
O22 O 0.65627 0.65476 0.98804 0.0
C23 C 0.61284 0.62515 0.97466 0.0
O24 O 0.60238 0.62216 0.03921 0.0
C25 C 0.66225 0.6477 0.99376 0.0
O26 O 0.62463 0.62548 0.03806 0.0
O27 O 0.65481 0.63694 0.00551 0.0
C28 C 0.33092 0.96028 0.00996 0.0
O29 O 0.33804 0.95485 0.00215 0.0
Cd30 Cd 0.36242 0.96867 0.98924 0.0
O31 O 0.33654 0.97399 0.01095 0.0
Cd32 Cd 0.35989 0.99591 0.00086 0.0
C33 C 0.37866 0.98711 0.03349 0.0
O34 O 0.36329 0.98717 0.96795 0.0
O35 O 0.3824 0.00577 0.98011 0.0
O36 O 0.34624 0.00731 0.98973 0.0
C37 C 0.37637 0.99713 0.9652 0.0
O38 O 0.37803 0.97842 0.01955 0.0
C39 C 0.35409 0.01921 -0.00093 0.0
O40 O 0.37189 0.994 0.03163 0.0
O41 O 0.36443 0.02014 0.00986 0.0
C42 C 0.9504 0.62342 0.01633 0.0
O43 O 0.94414 0.61177 0.02665 0.0
Cd44 Cd 0.95766 0.60021 0.036 0.0
O45 O 0.96411 0.63 0.0133 0.0
Cd46 Cd 0.98581 0.62883 0.02374 0.0
C47 C 0.97492 0.60147 0.99017 0.0
O48 O 0.97803 0.61621 0.05705 0.0
O49 O 0.99675 0.61716 0.04238 0.0
O50 O 0.9959 0.65363 0.03538 0.0
C51 C 0.98849 0.61374 0.058 0.0
O52 O 0.96519 0.59405 0.00358 0.0
C53 C 0.00801 0.65869 0.02603 0.0
O54 O 0.9838 0.61492 0.99301 0.0
O55 O 0.00983 0.64984 0.01514 0.0
C56 C 0.3439 0.37269 0.02359 0.0
O57 O 0.35255 0.38599 0.01959 0.0
Cd58 Cd 0.37675 0.39547 0.00581 0.0
O59 O 0.34787 0.36341 0.02081 0.0
Cd60 Cd 0.36949 0.36259 0.00894 0.0
C61 C 0.39215 0.38648 0.04482 0.0
O62 O 0.37498 0.37887 0.97977 0.0
O63 O 0.39045 0.37194 0.98565 0.0
O64 O 0.35251 0.33938 0.99356 0.0
C65 C 0.38647 0.37894 0.97439 0.0
O66 O 0.39208 0.39637 0.03407 0.0
C67 C 0.35774 0.33233 0.00196 0.0
O68 O 0.38405 0.37316 0.04013 0.0
O69 O 0.36845 0.33934 0.01399 0.0
C70 C 0.66631 0.03121 0.00912 0.0
O71 O 0.65853 0.03666 0.01395 0.0
Cd72 Cd 0.63384 0.02279 0.02556 0.0
O73 O 0.66109 0.01757 0.01008 0.0
Cd74 Cd 0.63736 0.99573 0.01926 0.0
C75 C 0.61783 0.00132 0.98331 0.0
O76 O 0.63176 0.0051 0.04992 0.0
O77 O 0.61371 0.98582 0.03676 0.0
O78 O 0.64795 0.98431 0.03923 0.0
C79 C 0.61872 0.99477 0.05155 0.0
O80 O 0.61914 0.01142 0.99512 0.0
C81 C 0.64473 0.97389 0.02699 0.0
O82 O 0.62419 0.99427 0.98755 0.0
O83 O 0.63805 0.97351 0.01066 0.0
C84 C 0.62747 0.66544 0.34022 0.0
O85 O 0.62105 0.67214 0.34593 0.0
Cd86 Cd 0.63374 0.69611 0.36035 0.0
O87 O 0.64118 0.6712 0.34256 0.0
Cd88 Cd 0.66214 0.69358 0.35684 0.0
C89 C 0.65837 0.71484 0.32176 0.0
O90 O 0.64951 0.69624 0.38662 0.0
O91 O 0.671 0.71426 0.38025 0.0
O92 O 0.67078 0.67831 0.37128 0.0
C93 C 0.65994 0.70853 0.39199 0.0
O94 O 0.64722 0.71261 0.33208 0.0
C95 C 0.68349 0.68527 0.36356 0.0
O96 O 0.66539 0.70857 0.32664 0.0
O97 O 0.68632 0.69613 0.35244 0.0
C98 C 0.29332 5e-05 0.35791 0.0
O99 O 0.27977 0.99315 0.35398 0.0
Cd100 Cd 0.26702 0.96879 0.34065 0.0
O101 O 0.30101 0.99421 0.35472 0.0
Cd102 Cd 0.29781 0.97108 0.34141 0.0
C103 C 0.27365 0.95086 0.37863 0.0
O104 O 0.28152 0.96823 0.31276 0.0
O105 O 0.28522 0.9505 0.31813 0.0
O106 O 0.32272 0.98617 0.32836 0.0
C107 C 0.27949 0.956 0.30714 0.0
O108 O 0.26423 0.95236 0.36867 0.0
C109 C 0.32682 0.97733 0.3333 0.0
O110 O 0.28695 0.95747 0.37302 0.0
O111 O 0.31755 0.96579 0.34237 0.0
C112 C 0.9974 0.2951 0.34596 0.0
O113 O 0.00283 0.28791 0.33843 0.0
Cd114 Cd 0.02754 0.29919 0.32691 0.0
O115 O 0.00487 0.30889 0.34677 0.0
Cd116 Cd 0.02901 0.32941 0.33613 0.0
C117 C 0.04565 0.3188 0.37026 0.0
O118 O 0.03014 0.31791 0.3044 0.0
O119 O 0.04976 0.33768 0.31217 0.0
O120 O 0.01389 0.33973 0.32799 0.0
C121 C 0.04302 0.32739 0.29951 0.0
O122 O 0.04245 0.30835 0.35792 0.0
C123 C 0.02308 0.3526 0.33325 0.0
O124 O 0.04154 0.32788 0.36667 0.0
O125 O 0.03516 0.35482 0.34022 0.0
C126 C 0.62966 0.96045 0.33704 0.0
O127 O 0.62357 0.94744 0.3433 0.0
Cd128 Cd 0.63721 0.93618 0.35336 0.0
O129 O 0.64349 0.96831 0.33664 0.0
Cd130 Cd 0.66475 0.96618 0.34662 0.0
C131 C 0.65805 0.94089 0.31059 0.0
O132 O 0.65483 0.95178 0.37818 0.0
O133 O 0.67479 0.95389 0.36643 0.0
O134 O 0.67562 0.99064 0.36054 0.0
C135 C 0.66542 0.9497 0.38078 0.0
O136 O 0.64813 0.93196 0.3227 0.0
C137 C 0.68778 0.99551 0.35139 0.0
O138 O 0.6651 0.95436 0.31474 0.0
O139 O 0.68914 0.98679 0.33958 0.0
C140 C 0.00254 0.70976 0.35575 0.0
O141 O 0.00876 0.72262 0.34884 0.0
Cd142 Cd 0.03269 0.73479 0.33375 0.0
O143 O 0.00853 0.70207 0.35419 0.0
Cd144 Cd 0.03092 0.70405 0.33877 0.0
C145 C 0.05262 0.73088 0.37193 0.0
O146 O 0.03133 0.71785 0.30864 0.0
O147 O 0.04979 0.71493 0.31189 0.0
O148 O 0.01553 0.67831 0.33007 0.0
C149 C 0.0432 0.71972 0.30131 0.0
O150 O 0.0503 0.73945 0.36122 0.0
C151 C 0.02499 0.67496 0.33485 0.0
O152 O 0.04622 0.71742 0.3678 0.0
O153 O 0.03698 0.68502 0.34191 0.0
C154 C 0.34172 0.37126 0.34813 0.0
O155 O 0.33664 0.37795 0.35808 0.0
Cd156 Cd 0.31134 0.36595 0.36784 0.0
O157 O 0.33402 0.35766 0.34514 0.0
Cd158 Cd 0.31009 0.33697 0.35574 0.0
C159 C 0.2944 0.34847 0.32254 0.0
O160 O 0.30581 0.34545 0.38845 0.0
O161 O 0.2867 0.3287 0.37309 0.0
O162 O 0.3227 0.32587 0.37074 0.0
C163 C 0.29222 0.3365 0.38894 0.0
O164 O 0.2966 0.35783 0.33637 0.0
C165 C 0.316 0.31394 0.36112 0.0
O166 O 0.29929 0.33986 0.32442 0.0
O167 O 0.30639 0.31258 0.34831 0.0
C168 C 0.30029 0.00285 0.67451 0.0
O169 O 0.29453 0.01025 0.67989 0.0
Cd170 Cd 0.30818 0.03494 0.69191 0.0
O171 O 0.31404 0.00828 0.67556 0.0
Cd172 Cd 0.33602 0.03108 0.68622 0.0
C173 C 0.33146 0.05203 0.65132 0.0
O174 O 0.32544 0.03618 0.71623 0.0
O175 O 0.34705 0.05301 0.70723 0.0
O176 O 0.34632 0.01871 0.70461 0.0
C177 C 0.33651 0.04849 0.71986 0.0
O178 O 0.32098 0.05051 0.66263 0.0
C179 C 0.35717 0.02256 0.69275 0.0
O180 O 0.33823 0.04536 0.65543 0.0
O181 O 0.3582 0.03028 0.67733 0.0
C182 C 0.95984 0.33586 0.68915 0.0
O183 O 0.94654 0.32896 0.68391 0.0
Cd184 Cd 0.9348 0.30493 0.66975 0.0
O185 O 0.96787 0.33031 0.68663 0.0
Cd186 Cd 0.9659 0.30792 0.67223 0.0
C187 C 0.94116 0.28689 0.70804 0.0
O188 O 0.95071 0.30596 0.64295 0.0
O189 O 0.95315 0.28748 0.64829 0.0
O190 O 0.99094 0.32412 0.66057 0.0
C191 C 0.94831 0.29368 0.63695 0.0
O192 O 0.9318 0.28804 0.69737 0.0
C193 C 0.99539 0.31543 0.66464 0.0
O194 O 0.95464 0.29402 0.70345 0.0
O195 O 0.98621 0.30336 0.6726 0.0
C196 C 0.66853 0.63194 0.68097 0.0
O197 O 0.67512 0.62568 0.67411 0.0
Cd198 Cd 0.69999 0.6389 0.66255 0.0
O199 O 0.67483 0.64571 0.68112 0.0
Cd200 Cd 0.69811 0.66706 0.67007 0.0
C201 C 0.71698 0.65996 0.70498 0.0
O202 O 0.70173 0.65675 0.63881 0.0
O203 O 0.72043 0.67661 0.64916 0.0
O204 O 0.68396 0.67683 0.65559 0.0
C205 C 0.71464 0.66691 0.63542 0.0
O206 O 0.71537 0.64987 0.69288 0.0
C207 C 0.69039 0.68884 0.66506 0.0
O208 O 0.71094 0.66736 0.70118 0.0
O209 O 0.70055 0.69082 0.67723 0.0
C210 C 0.29449 0.29773 0.66858 0.0
O211 O 0.28723 0.28408 0.67096 0.0
Cd212 Cd 0.29743 0.27011 0.6838 0.0
O213 O 0.30809 0.30483 0.67242 0.0
Cd214 Cd 0.32711 0.29952 0.68395 0.0
C215 C 0.32165 0.27556 0.64557 0.0
O216 O 0.31286 0.28331 0.71226 0.0
O217 O 0.3336 0.28512 0.70597 0.0
O218 O 0.33919 0.32339 0.70033 0.0
C219 C 0.32242 0.2802 0.71739 0.0
O220 O 0.31018 0.2665 0.65522 0.0
C221 C 0.35158 0.32764 0.69221 0.0
O222 O 0.32919 0.28858 0.65186 0.0
O223 O 0.35255 0.31885 0.68009 0.0
C224 C 0.66553 0.03771 0.68378 0.0
O225 O 0.67238 0.05108 0.67917 0.0
Cd226 Cd 0.69725 0.06373 0.66734 0.0
O227 O 0.67174 0.03023 0.68249 0.0
Cd228 Cd 0.69577 0.03353 0.67302 0.0
C229 C 0.7139 0.05937 0.70938 0.0
O230 O 0.70019 0.04873 0.64262 0.0
O231 O 0.71787 0.04574 0.65232 0.0
O232 O 0.68318 0.00967 0.65713 0.0
C233 C 0.71286 0.05082 0.63925 0.0
O234 O 0.71194 0.06781 0.69783 0.0
C235 C 0.68977 0.00454 0.66707 0.0
O236 O 0.70845 0.04604 0.70471 0.0
O237 O 0.69896 0.0128 0.68036 0.0
C238 C -0.00201 0.70145 0.66431 0.0
O239 O 0.99179 0.70872 0.66782 0.0
Cd240 Cd 0.96776 0.69838 0.68208 0.0
O241 O 0.99163 0.68802 0.66881 0.0
Cd242 Cd 0.96857 0.66913 0.6852 0.0
C243 C 0.94771 0.67114 0.64745 0.0
O244 O 0.96822 0.6853 0.7117 0.0
O245 O 0.94967 0.66365 0.7112 0.0
O246 O 0.98435 0.66045 0.69804 0.0
C247 C 0.95627 0.67595 0.71982 0.0
O248 O 0.9509 0.68339 0.65498 0.0
C249 C 0.97514 0.64712 0.69544 0.0
O250 O 0.95311 0.66394 0.65497 0.0
O251 O 0.96292 0.64401 0.68793 0.0
H252 H 0.25051 0.3723 0.15194 0.0
N253 N 0.22423 0.35374 0.13772 0.0
H254 H 0.26163 0.3709 0.18369 0.0
H255 H 0.21021 0.3341 0.16942 0.0
H256 H 0.2208 0.33335 0.20188 0.0
H257 H 0.22828 0.33058 0.13435 0.0
H258 H 0.24457 0.32835 0.10974 0.0
H259 H 0.23624 0.36981 0.10447 0.0
H260 H 0.25242 0.3676 0.07969 0.0
H261 H 0.21147 0.3694 0.13551 0.0
H262 H 0.20257 0.32546 0.13332 0.0
H263 H 0.1857 0.36089 0.13016 0.0
H264 H 0.17662 0.31665 0.12923 0.0
H265 H 0.11487 0.34005 0.13557 0.0
H266 H 0.10163 0.34031 0.16582 0.0
H267 H 0.09004 0.29628 0.17953 0.0
H268 H 0.10367 0.29614 0.14898 0.0
H269 H 0.09409 0.30094 0.099 0.0
H270 H 0.08289 0.30927 0.07401 0.0
H271 H 0.12003 0.35262 0.07825 0.0
H272 H 0.13101 0.34429 0.10346 0.0
H273 H 0.13792 0.3413 0.14308 0.0
H274 H 0.16341 0.34936 0.14697 0.0
H275 H 0.15849 0.31483 0.10692 0.0
N276 N 0.11757 0.31728 0.12144 0.0
H277 H 0.13242 0.30614 0.10421 0.0
C278 C 0.22954 0.3534 0.15804 0.0
C279 C 0.24394 0.36383 0.16287 0.0
C280 C 0.25025 0.36304 0.18119 0.0
C281 C 0.24218 0.35199 0.19557 0.0
C282 C 0.22753 0.34183 0.19107 0.0
C283 C 0.22134 0.34238 0.17243 0.0
C284 C 0.23126 0.35051 0.1213 0.0
C285 C 0.23323 0.33848 0.12214 0.0
C286 C 0.24255 0.33725 0.10815 0.0
C287 C 0.24983 0.34787 0.09295 0.0
C288 C 0.24687 0.35921 0.09115 0.0
C289 C 0.2377 0.36052 0.10528 0.0
C290 C 0.20887 0.34811 0.1351 0.0
C291 C 0.20386 0.35788 0.13415 0.0
C292 C 0.1891 0.35295 0.13122 0.0
C293 C 0.17896 0.33803 0.12948 0.0
C294 C 0.18407 0.32822 0.13025 0.0
C295 C 0.19891 0.33321 0.13281 0.0
C296 C 0.11023 0.31797 0.13985 0.0
C297 C 0.10951 0.3304 0.14493 0.0
C298 C 0.10185 0.33053 0.16227 0.0
C299 C 0.09465 0.31827 0.17495 0.0
C300 C 0.09554 0.30593 0.1701 0.0
C301 C 0.10327 0.30581 0.15268 0.0
C302 C 0.11328 0.32192 0.10327 0.0
C303 C 0.10001 0.31213 0.09401 0.0
C304 C 0.09366 0.31692 0.0797 0.0
C305 C 0.1005 0.33166 0.07436 0.0
C306 C 0.1144 0.34124 0.0823 0.0
C307 C 0.12075 0.33644 0.09663 0.0
C308 C 0.13302 0.32283 0.12355 0.0
C309 C 0.14212 0.33526 0.13527 0.0
C310 C 0.15691 0.34005 0.13727 0.0
C311 C 0.16313 0.3328 0.12725 0.0
C312 C 0.15408 0.32055 0.1152 0.0
C313 C 0.13919 0.31562 0.11348 0.0
H314 H 0.71566 0.80572 0.17031 0.0
N315 N 0.69784 0.80146 0.13914 0.0
H316 H 0.70959 0.79238 0.2029 0.0
H317 H 0.67039 0.78197 0.15307 0.0
H318 H 0.66422 0.76894 0.18558 0.0
H319 H 0.67328 0.79121 0.11529 0.0
H320 H 0.66378 0.77048 0.092 0.0
H321 H 0.71117 0.78757 0.12654 0.0
H322 H 0.70158 0.76665 0.10336 0.0
H323 H 0.71821 0.82592 0.12214 0.0
H324 H 0.67492 0.80573 0.14797 0.0
H325 H 0.71759 0.84817 0.11627 0.0
H326 H 0.67439 0.82794 0.14288 0.0
H327 H 0.71176 0.91816 0.14634 0.0
H328 H 0.70587 0.92571 0.17899 0.0
H329 H 0.66619 0.88426 0.18346 0.0
H330 H 0.67223 0.87667 0.15125 0.0
H331 H 0.66711 0.88592 0.12085 0.0
H332 H 0.65822 0.89625 0.09597 0.0
H333 H 0.70067 0.91834 0.06679 0.0
H334 H 0.70981 0.90874 0.09313 0.0
H335 H 0.71809 0.89002 0.1344 0.0
H336 H 0.71845 0.86743 0.13624 0.0
H337 H 0.67335 0.84369 0.1175 0.0
N338 N 0.69569 0.8934 0.12623 0.0
H339 H 0.67302 0.86631 0.11629 0.0
C340 C 0.69356 0.79492 0.15926 0.0
C341 C 0.70439 0.79788 0.17378 0.0
C342 C 0.7009 0.79026 0.19235 0.0
C343 C 0.68644 0.77949 0.19672 0.0
C344 C 0.6755 0.77698 0.18252 0.0
C345 C 0.679 0.78457 0.16398 0.0
C346 C 0.69305 0.79102 0.12264 0.0
C347 C 0.67977 0.78623 0.11238 0.0
C348 C 0.67432 0.77435 0.09906 0.0
C349 C 0.68192 0.76694 0.09602 0.0
C350 C 0.69547 0.77213 0.10556 0.0
C351 C 0.70099 0.78409 0.11865 0.0
C352 C 0.69677 0.81421 0.1357 0.0
C353 C 0.70861 0.82632 0.1266 0.0
C354 C 0.70824 0.83902 0.12336 0.0
C355 C 0.69597 0.83989 0.12923 0.0
C356 C 0.68396 0.82762 0.13797 0.0
C357 C 0.68432 0.8149 0.14112 0.0
C358 C 0.69246 0.89694 0.14627 0.0
C359 C 0.70191 0.91066 0.15455 0.0
C360 C 0.69855 0.91493 0.17313 0.0
C361 C 0.68554 0.90558 0.18359 0.0
C362 C 0.67622 0.8917 0.17556 0.0
C363 C 0.6797 0.88736 0.15717 0.0
C364 C 0.68932 0.89688 0.10925 0.0
C365 C 0.67455 0.89291 0.10911 0.0
C366 C 0.66938 0.89873 0.09454 0.0
C367 C 0.67874 0.90839 0.07939 0.0
C368 C 0.69321 0.91131 0.07853 0.0
C369 C 0.69844 0.90571 0.09342 0.0
C370 C 0.69563 0.87992 0.12514 0.0
C371 C 0.70836 0.87994 0.13046 0.0
C372 C 0.70854 0.86701 0.13141 0.0
C373 C 0.69593 0.85371 0.127 0.0
C374 C 0.68321 0.85372 0.12123 0.0
C375 C 0.68304 0.86669 0.12035 0.0
H376 H 0.11729 0.78963 0.14188 0.0
N377 N 0.10273 0.79509 0.11177 0.0
H378 H 0.10732 0.77802 0.17507 0.0
H379 H 0.07655 0.78704 0.12738 0.0
H380 H 0.0664 0.77502 0.16046 0.0
H381 H 0.08475 0.79025 0.08063 0.0
H382 H 0.07208 0.76824 0.05981 0.0
H383 H 0.1092 0.77339 0.11012 0.0
H384 H 0.09718 0.75174 0.08879 0.0
H385 H 0.12681 0.79595 0.09293 0.0
H386 H 0.11307 0.82115 0.12846 0.0
H387 H 0.15187 0.81503 0.09616 0.0
H388 H 0.13846 0.84022 0.13233 0.0
H389 H 0.21081 0.86262 0.17166 0.0
H390 H 0.2192 0.87805 0.20236 0.0
H391 H 0.21785 0.91207 0.16882 0.0
H392 H 0.20917 0.89651 0.1384 0.0
H393 H 0.20626 0.88704 0.10349 0.0
H394 H 0.226 0.90158 0.0794 0.0
H395 H 0.25081 0.88332 0.10405 0.0
H396 H 0.23113 0.86913 0.12855 0.0
H397 H 0.19482 0.84161 0.13055 0.0
H398 H 0.1695 0.82399 0.12255 0.0
H399 H 0.1603 0.85881 0.11704 0.0
N400 N 0.20695 0.86997 0.13433 0.0
H401 H 0.18556 0.87626 0.12599 0.0
C402 C 0.09768 0.78939 0.1322 0.0
C403 C 0.10628 0.78677 0.14594 0.0
C404 C 0.10058 0.78012 0.16488 0.0
C405 C 0.08612 0.77566 0.17022 0.0
C406 C 0.07758 0.77834 0.15661 0.0
C407 C 0.08336 0.78525 0.13784 0.0
C408 C 0.09795 0.78355 0.09683 0.0
C409 C 0.08775 0.78202 0.08205 0.0
C410 C 0.08055 0.76943 0.07015 0.0
C411 C 0.08349 0.75811 0.07276 0.0
C412 C 0.09442 0.76009 0.08666 0.0
C413 C 0.10144 0.77256 0.09874 0.0
C414 C 0.11778 0.80683 0.11092 0.0
C415 C 0.129 0.80548 0.10153 0.0
C416 C 0.14353 0.8165 0.10342 0.0
C417 C 0.14727 0.82908 0.11485 0.0
C418 C 0.13603 0.83074 0.12331 0.0
C419 C 0.12149 0.8198 0.12121 0.0
C420 C 0.20954 0.87843 0.15273 0.0
C421 C 0.21198 0.87327 0.17114 0.0
C422 C 0.21673 0.88207 0.18861 0.0
C423 C 0.21927 0.89628 0.18785 0.0
C424 C 0.21609 0.9012 0.16971 0.0
C425 C 0.21112 0.8923 0.15233 0.0
C426 C 0.2173 0.87704 0.11792 0.0
C427 C 0.21584 0.886 0.10356 0.0
C428 C 0.22714 0.89429 0.08971 0.0
C429 C 0.24005 0.89374 0.08998 0.0
C430 C 0.24113 0.88421 0.10372 0.0
C431 C 0.22987 0.876 0.11757 0.0
C432 C 0.19206 0.86016 0.1288 0.0
C433 C 0.18731 0.84539 0.12752 0.0
C434 C 0.17286 0.83537 0.12275 0.0
C435 C 0.16282 0.83996 0.11897 0.0
C436 C 0.16768 0.85487 0.12003 0.0
C437 C 0.18216 0.8649 0.12499 0.0
H438 H 0.33491 0.22511 0.8845 0.0
N439 N 0.31145 0.20042 0.90021 0.0
H440 H 0.33568 0.23731 0.85274 0.0
H441 H 0.29064 0.19175 0.8719 0.0
H442 H 0.2913 0.20418 0.83988 0.0
H443 H 0.29476 0.2083 0.92026 0.0
H444 H 0.30262 0.22825 0.94482 0.0
H445 H 0.33836 0.21528 0.91873 0.0
H446 H 0.34615 0.23493 0.94337 0.0
H447 H 0.33677 0.20372 0.8833 0.0
H448 H 0.29818 0.17438 0.91768 0.0
H449 H 0.34509 0.18648 0.88465 0.0
H450 H 0.30674 0.15703 0.91959 0.0
H451 H 0.36444 0.14123 0.86376 0.0
H452 H 0.36057 0.12753 0.83171 0.0
H453 H 0.32249 0.09106 0.85842 0.0
H454 H 0.32611 0.10482 0.88999 0.0
H455 H 0.32743 0.11361 0.92493 0.0
H456 H 0.32886 0.09692 0.94902 0.0
H457 H 0.37488 0.11657 0.93604 0.0
H458 H 0.37316 0.13276 0.91129 0.0
H459 H 0.36384 0.15987 0.90736 0.0
H460 H 0.35448 0.17652 0.90928 0.0
H461 H 0.31101 0.14083 0.89777 0.0
N462 N 0.34921 0.13192 0.89852 0.0
H463 H 0.32044 0.12425 0.89646 0.0
C464 C 0.31262 0.20744 0.88072 0.0
C465 C 0.32533 0.22034 0.87492 0.0
C466 C 0.32575 0.22741 0.85673 0.0
C467 C 0.3135 0.22181 0.8439 0.0
C468 C 0.30093 0.20873 0.8494 0.0
C469 C 0.30052 0.20164 0.86767 0.0
C470 C 0.31587 0.21025 0.91751 0.0
C471 C 0.30589 0.21384 0.92567 0.0
C472 C 0.3104 0.2252 0.93973 0.0
C473 C 0.32504 0.23324 0.94586 0.0
C474 C 0.33484 0.22905 0.93871 0.0
C475 C 0.33033 0.21769 0.92468 0.0
C476 C 0.31668 0.19033 0.90029 0.0
C477 C 0.33 0.19357 0.89111 0.0
C478 C 0.33488 0.1837 0.89211 0.0
C479 C 0.32664 0.1704 0.90237 0.0
C480 C 0.31329 0.16713 0.91143 0.0
C481 C 0.30841 0.17703 0.91041 0.0
C482 C 0.34577 0.12405 0.87937 0.0
C483 C 0.35515 0.13037 0.86253 0.0
C484 C 0.35291 0.12257 0.8443 0.0
C485 C 0.34131 0.10822 0.84277 0.0
C486 C 0.3316 0.10206 0.85936 0.0
C487 C 0.3337 0.10994 0.87743 0.0
C488 C 0.3502 0.12429 0.91606 0.0
C489 C 0.33787 0.11452 0.92755 0.0
C490 C 0.33873 0.10501 0.94143 0.0
C491 C 0.35193 0.10522 0.94415 0.0
C492 C 0.36447 0.11588 0.93393 0.0
C493 C 0.36356 0.12524 0.91995 0.0
C494 C 0.34292 0.14091 0.90164 0.0
C495 C 0.35227 0.15566 0.90556 0.0
C496 C 0.34691 0.16514 0.90646 0.0
C497 C 0.33202 0.16004 0.90336 0.0
C498 C 0.32252 0.1451 0.9003 0.0
C499 C 0.32791 0.1356 0.89947 0.0
H500 H 0.76413 0.12656 0.87633 0.0
N501 N 0.7871 0.12872 0.89533 0.0
H502 H 0.75252 0.11303 0.84496 0.0
H503 H 0.79673 0.11421 0.87134 0.0
H504 H 0.78499 0.1003 0.84013 0.0
H505 H 0.78589 0.10325 0.90497 0.0
H506 H 0.76942 0.08556 0.93032 0.0
H507 H 0.77299 0.13348 0.9253 0.0
H508 H 0.75689 0.11601 0.95123 0.0
H509 H 0.80097 0.15169 0.87105 0.0
H510 H 0.80843 0.12919 0.92011 0.0
H511 H 0.82665 0.17 0.87079 0.0
H512 H 0.8339 0.1481 0.92112 0.0
H513 H 0.89666 0.2331 0.88657 0.0
H514 H 0.90488 0.24543 0.85412 0.0
H515 H 0.90536 0.20831 0.82852 0.0
H516 H 0.89839 0.19648 0.86212 0.0
H517 H 0.91867 0.21571 0.91367 0.0
H518 H 0.93093 0.23542 0.93877 0.0
H519 H 0.89202 0.23815 0.94422 0.0
H520 H 0.87979 0.21855 0.91972 0.0
H521 H 0.86909 0.20888 0.88763 0.0
H522 H 0.84372 0.18977 0.88846 0.0
H523 H 0.85672 0.15895 0.90566 0.0
N524 N 0.89274 0.20628 0.89662 0.0
H525 H 0.88214 0.17859 0.90641 0.0
C526 C 0.78122 0.12139 0.87608 0.0
C527 C 0.76877 0.12094 0.86835 0.0
C528 C 0.7621 0.11309 0.85059 0.0
C529 C 0.76774 0.10544 0.84019 0.0
C530 C 0.78043 0.10612 0.84774 0.0
C531 C 0.78712 0.11402 0.86557 0.0
C532 C 0.78041 0.1196 0.91304 0.0
C533 C 0.7798 0.10622 0.91523 0.0
C534 C 0.77044 0.09615 0.92973 0.0
C535 C 0.76185 0.09943 0.94257 0.0
C536 C 0.76347 0.11327 0.94159 0.0
C537 C 0.77263 0.12324 0.92683 0.0
C538 C 0.8026 0.13898 0.89547 0.0
C539 C 0.80814 0.15073 0.88184 0.0
C540 C 0.82286 0.16134 0.88194 0.0
C541 C 0.83246 0.16077 0.89618 0.0
C542 C 0.82695 0.14889 0.90976 0.0
C543 C 0.81223 0.13804 0.9093 0.0
C544 C 0.8972 0.21385 0.87711 0.0
C545 C 0.89874 0.2276 0.87424 0.0
C546 C 0.90324 0.23463 0.85532 0.0
C547 C 0.90579 0.22794 0.83843 0.0
C548 C 0.90385 0.21402 0.84118 0.0
C549 C 0.89974 0.20715 0.86035 0.0
C550 C 0.89834 0.21558 0.91452 0.0
C551 C 0.91265 0.22025 0.92078 0.0
C552 C 0.91963 0.23149 0.93507 0.0
C553 C 0.91243 0.23836 0.94317 0.0
C554 C 0.89782 0.23308 0.93802 0.0
C555 C 0.89079 0.22174 0.92397 0.0
C556 C 0.87753 0.1952 0.89735 0.0
C557 C 0.86647 0.19807 0.89197 0.0
C558 C 0.85191 0.187 0.89212 0.0
C559 C 0.84802 0.17266 0.89694 0.0
C560 C 0.85916 0.16984 0.9022 0.0
C561 C 0.87373 0.18102 0.90253 0.0
H562 H 0.79094 0.70935 0.86987 0.0
N563 N 0.79666 0.69235 0.8927 0.0
H564 H 0.77926 0.70391 0.83602 0.0
H565 H 0.78985 0.66857 0.86909 0.0
H566 H 0.77783 0.66288 0.83549 0.0
H567 H 0.77647 0.66377 0.90011 0.0
H568 H 0.75529 0.65478 0.92252 0.0
H569 H 0.79106 0.70748 0.91986 0.0
H570 H 0.76953 0.69858 0.942 0.0
H571 H 0.82303 0.7129 0.88152 0.0
H572 H 0.80027 0.6709 0.91046 0.0
H573 H 0.84584 0.71292 0.88412 0.0
H574 H 0.82307 0.67119 0.9143 0.0
H575 H 0.91918 0.71003 0.89261 0.0
H576 H 0.93155 0.71014 0.8606 0.0
H577 H 0.89016 0.67883 0.83446 0.0
H578 H 0.87794 0.67863 0.8662 0.0
H579 H 0.88797 0.66668 0.89474 0.0
H580 H 0.89444 0.65329 0.91807 0.0
H581 H 0.90238 0.68454 0.96607 0.0
H582 H 0.8972 0.69865 0.94172 0.0
H583 H 0.88689 0.71561 0.90665 0.0
H584 H 0.86382 0.71532 0.90648 0.0
H585 H 0.84091 0.66897 0.8964 0.0
N586 N 0.89111 0.69342 0.90192 0.0
H587 H 0.864 0.66937 0.89799 0.0
C588 C 0.79113 0.68935 0.87202 0.0
C589 C 0.78831 0.6993 0.86225 0.0
C590 C 0.78168 0.69619 0.84298 0.0
C591 C 0.77759 0.68295 0.83326 0.0
C592 C 0.78076 0.67311 0.84279 0.0
C593 C 0.7876 0.67634 0.86195 0.0
C594 C 0.78547 0.68639 0.90835 0.0
C595 C 0.77532 0.67145 0.90957 0.0
C596 C 0.76308 0.66631 0.92228 0.0
C597 C 0.76061 0.67597 0.93387 0.0
C598 C 0.77116 0.69082 0.93344 0.0
C599 C 0.78346 0.69594 0.9208 0.0
C600 C 0.80991 0.69204 0.89588 0.0
C601 C 0.82301 0.70379 0.88876 0.0
C602 C 0.83607 0.70381 0.89042 0.0
C603 C 0.83641 0.6921 0.89959 0.0
C604 C 0.82325 0.68033 0.90689 0.0
C605 C 0.81012 0.68022 0.90488 0.0
C606 C 0.89764 0.69449 0.88194 0.0
C607 C 0.91277 0.7034 0.87982 0.0
C608 C 0.91981 0.70337 0.86163 0.0
C609 C 0.9118 0.69448 0.84507 0.0
C610 C 0.89659 0.68593 0.84688 0.0
C611 C 0.88957 0.68583 0.86514 0.0
C612 C 0.89257 0.68399 0.91631 0.0
C613 C 0.89114 0.67071 0.91024 0.0
C614 C 0.89467 0.66289 0.92383 0.0
C615 C 0.89921 0.66787 0.94405 0.0
C616 C 0.89945 0.68057 0.95049 0.0
C617 C 0.89632 0.68859 0.93668 0.0
C618 C 0.87719 0.69261 0.9021 0.0
C619 C 0.87684 0.70541 0.90455 0.0
C620 C 0.86363 0.7052 0.90425 0.0
C621 C 0.85041 0.69214 0.90115 0.0
C622 C 0.85078 0.67923 0.89905 0.0
C623 C 0.86401 0.67944 0.89974 0.0
H624 H 0.75215 0.62566 0.47797 0.0
N625 N 0.77518 0.64289 0.45504 0.0
H626 H 0.74519 0.63132 0.51123 0.0
H627 H 0.79142 0.6675 0.47763 0.0
H628 H 0.78424 0.67346 0.51051 0.0
H629 H 0.78532 0.67134 0.44482 0.0
H630 H 0.77328 0.68002 0.42223 0.0
H631 H 0.75389 0.62723 0.42883 0.0
H632 H 0.74144 0.63585 0.40654 0.0
H633 H 0.77854 0.62117 0.4665 0.0
H634 H 0.80201 0.66395 0.44012 0.0
H635 H 0.80092 0.62032 0.46768 0.0
H636 H 0.82429 0.6629 0.44001 0.0
H637 H 0.87827 0.62299 0.47514 0.0
H638 H 0.8894 0.62399 0.50848 0.0
H639 H 0.87567 0.65312 0.5312 0.0
H640 H 0.86482 0.65229 0.49816 0.0
H641 H 0.89105 0.66469 0.47305 0.0
H642 H 0.91289 0.67789 0.45249 0.0
H643 H 0.89142 0.64852 0.40168 0.0
H644 H 0.87008 0.63439 0.42346 0.0
H645 H 0.84038 0.61705 0.45411 0.0
H646 H 0.81819 0.61802 0.44916 0.0
H647 H 0.8423 0.66409 0.46156 0.0
N648 N 0.86681 0.63871 0.46299 0.0
H649 H 0.86456 0.66305 0.46503 0.0
C650 C 0.77213 0.64619 0.47527 0.0
C651 C 0.75928 0.63602 0.48518 0.0
C652 C 0.75536 0.63925 0.50411 0.0
C653 C 0.76417 0.65284 0.51328 0.0
C654 C 0.77724 0.66295 0.5036 0.0
C655 C 0.7813 0.65959 0.48483 0.0
C656 C 0.77054 0.64853 0.43848 0.0
C657 C 0.77609 0.66349 0.43602 0.0
C658 C 0.76906 0.66847 0.42323 0.0
C659 C 0.75626 0.65863 0.41281 0.0
C660 C 0.75133 0.64374 0.41419 0.0
C661 C 0.75843 0.63878 0.42691 0.0
C662 C 0.78846 0.64249 0.45311 0.0
C663 C 0.78849 0.63024 0.4605 0.0
C664 C 0.80133 0.62977 0.46104 0.0
C665 C 0.81453 0.64152 0.45385 0.0
C666 C 0.81443 0.65372 0.44598 0.0
C667 C 0.80156 0.65428 0.44581 0.0
C668 C 0.87064 0.63747 0.48392 0.0
C669 C 0.87735 0.6293 0.48749 0.0
C670 C 0.88378 0.62995 0.50645 0.0
C671 C 0.88344 0.63868 0.52236 0.0
C672 C 0.87597 0.6462 0.51926 0.0
C673 C 0.86973 0.64571 0.50021 0.0
C674 C 0.87903 0.64818 0.45002 0.0
C675 C 0.89103 0.661 0.45754 0.0
C676 C 0.90355 0.66874 0.44551 0.0
C677 C 0.90419 0.66423 0.42533 0.0
C678 C 0.89166 0.65208 0.41733 0.0
C679 C 0.87933 0.64406 0.42965 0.0
C680 C 0.85401 0.63986 0.46025 0.0
C681 C 0.84081 0.62733 0.45566 0.0
C682 C 0.82813 0.62794 0.45298 0.0
C683 C 0.82831 0.64112 0.45521 0.0
C684 C 0.84168 0.65377 0.45947 0.0
C685 C 0.85443 0.65318 0.46172 0.0
H686 H 0.37752 0.12802 0.48503 0.0
N687 N 0.35897 0.1342 0.46711 0.0
H688 H 0.37458 0.11612 0.51838 0.0
H689 H 0.3381 0.12903 0.49612 0.0
H690 H 0.33492 0.11682 0.52912 0.0
H691 H 0.32998 0.11312 0.46712 0.0
H692 H 0.31857 0.09176 0.44533 0.0
H693 H 0.37064 0.12863 0.43461 0.0
H694 H 0.35918 0.10698 0.41267 0.0
H695 H 0.38081 0.16116 0.47089 0.0
H696 H 0.3348 0.13639 0.45816 0.0
H697 H 0.38014 0.18355 0.46833 0.0
H698 H 0.33415 0.15861 0.45455 0.0
H699 H 0.37666 0.24298 0.48923 0.0
H700 H 0.37173 0.25174 0.52149 0.0
H701 H 0.32581 0.22873 0.50733 0.0
H702 H 0.33078 0.22023 0.47531 0.0
H703 H 0.33122 0.21197 0.44089 0.0
H704 H 0.32196 0.2219 0.41513 0.0
H705 H 0.36361 0.26164 0.41417 0.0
H706 H 0.3727 0.2517 0.44007 0.0
H707 H 0.37795 0.22201 0.44546 0.0
H708 H 0.37791 0.19916 0.44517 0.0
H709 H 0.33527 0.17784 0.47375 0.0
N710 N 0.35766 0.22698 0.46028 0.0
H711 H 0.33513 0.20047 0.47291 0.0
C712 C 0.35803 0.12931 0.48801 0.0
C713 C 0.3684 0.12591 0.49483 0.0
C714 C 0.3667 0.11912 0.51381 0.0
C715 C 0.35445 0.11545 0.52614 0.0
C716 C 0.34438 0.11942 0.51974 0.0
C717 C 0.34621 0.12642 0.50092 0.0
C718 C 0.35129 0.12257 0.45255 0.0
C719 C 0.33645 0.1121 0.4551 0.0
C720 C 0.32992 0.09979 0.44269 0.0
C721 C 0.33803 0.09761 0.42748 0.0
C722 C 0.35264 0.1084 0.42421 0.0
C723 C 0.35919 0.12075 0.4367 0.0
C724 C 0.35799 0.14707 0.46456 0.0
C725 C 0.37062 0.16057 0.46725 0.0
C726 C 0.3702 0.17336 0.46562 0.0
C727 C 0.3571 0.17295 0.46107 0.0
C728 C 0.34441 0.15937 0.45829 0.0
C729 C 0.34481 0.14657 0.46017 0.0
C730 C 0.35418 0.23102 0.47978 0.0
C731 C 0.36553 0.23976 0.49323 0.0
C732 C 0.36269 0.24472 0.51163 0.0
C733 C 0.34838 0.24102 0.51685 0.0
C734 C 0.33697 0.23197 0.50356 0.0
C735 C 0.33982 0.22702 0.48525 0.0
C736 C 0.35266 0.23122 0.44254 0.0
C737 C 0.33844 0.22271 0.43486 0.0
C738 C 0.33314 0.22839 0.42016 0.0
C739 C 0.34204 0.24257 0.4127 0.0
C740 C 0.35654 0.25063 0.41942 0.0
C741 C 0.36175 0.24501 0.43425 0.0
C742 C 0.3567 0.21306 0.45941 0.0
C743 C 0.36855 0.21234 0.45145 0.0
C744 C 0.36855 0.19929 0.4515 0.0
C745 C 0.35666 0.18663 0.45971 0.0
C746 C 0.34457 0.1873 0.46714 0.0
C747 C 0.34453 0.20034 0.46686 0.0
H748 H 0.80512 0.11131 0.49322 0.0
N749 N 0.79617 0.11568 0.45733 0.0
H750 H 0.79098 0.10239 0.52527 0.0
H751 H 0.7684 0.11042 0.46406 0.0
H752 H 0.75421 0.10117 0.49565 0.0
H753 H 0.77815 0.11811 0.42969 0.0
H754 H 0.76242 0.09955 0.40503 0.0
H755 H 0.79805 0.09304 0.44542 0.0
H756 H 0.78292 0.07474 0.42001 0.0
H757 H 0.82451 0.12974 0.45006 0.0
H758 H 0.78798 0.13619 0.45773 0.0
H759 H 0.84103 0.15596 0.44871 0.0
H760 H 0.80443 0.16244 0.45696 0.0
H761 H 0.88922 0.22351 0.47264 0.0
H762 H 0.90208 0.23551 0.5038 0.0
H763 H 0.87001 0.2478 0.51706 0.0
H764 H 0.85692 0.23551 0.48548 0.0
H765 H 0.87393 0.24713 0.43649 0.0
H766 H 0.89447 0.25848 0.41226 0.0
H767 H 0.89889 0.22063 0.41529 0.0
H768 H 0.87856 0.20939 0.43927 0.0
H769 H 0.86685 0.20068 0.47624 0.0
H770 H 0.84952 0.17501 0.47431 0.0
H771 H 0.82167 0.18338 0.43584 0.0
N772 N 0.86474 0.22259 0.4572 0.0
H773 H 0.83913 0.20948 0.43825 0.0
C774 C 0.78781 0.1113 0.47615 0.0
C775 C 0.79407 0.10925 0.49377 0.0
C776 C 0.78603 0.10423 0.51199 0.0
C777 C 0.77151 0.10102 0.51276 0.0
C778 C 0.76535 0.10343 0.49531 0.0
C779 C 0.77347 0.10869 0.47721 0.0
C780 C 0.78908 0.10677 0.43967 0.0
C781 C 0.77942 0.1088 0.42743 0.0
C782 C 0.77048 0.09819 0.41321 0.0
C783 C 0.7712 0.0855 0.41083 0.0
C784 C 0.78181 0.08419 0.42185 0.0
C785 C 0.79056 0.09468 0.43621 0.0
C786 C 0.80511 0.13104 0.45413 0.0
C787 C 0.82008 0.13685 0.45122 0.0
C788 C 0.82947 0.15181 0.45066 0.0
C789 C 0.82406 0.16128 0.4531 0.0
C790 C 0.80893 0.15543 0.455 0.0
C791 C 0.79951 0.14041 0.4555 0.0
C792 C 0.87204 0.22866 0.47651 0.0
C793 C 0.88482 0.2287 0.48212 0.0
C794 C 0.89226 0.23565 0.49999 0.0
C795 C 0.88717 0.24275 0.51273 0.0
C796 C 0.87417 0.24236 0.50754 0.0
C797 C 0.8667 0.23539 0.48954 0.0
C798 C 0.87467 0.22747 0.43987 0.0
C799 C 0.87907 0.24113 0.43143 0.0
C800 C 0.89077 0.24758 0.41763 0.0
C801 C 0.89833 0.24047 0.41217 0.0
C802 C 0.89332 0.22639 0.41947 0.0
C803 C 0.88159 0.21992 0.43312 0.0
C804 C 0.8543 0.2072 0.45746 0.0
C805 C 0.85702 0.1972 0.46757 0.0
C806 C 0.84712 0.18238 0.46624 0.0
C807 C 0.83429 0.17713 0.45472 0.0
C808 C 0.83142 0.18709 0.44492 0.0
C809 C 0.84137 0.20198 0.44625 0.0
H810 H 0.03714 0.5784 0.21379 0.0
N811 N 0.01902 0.55591 0.23681 0.0
H812 H 0.03147 0.58711 0.18243 0.0
H813 H 0.99322 0.54214 0.21592 0.0
H814 H 0.9873 0.55095 0.18489 0.0
H815 H 0.99377 0.55536 0.24747 0.0
H816 H 0.99208 0.57249 0.27063 0.0
H817 H 0.03877 0.57297 0.26427 0.0
H818 H 0.03688 0.5898 0.28818 0.0
H819 H 0.03221 0.54348 0.21877 0.0
H820 H 0.99651 0.53431 0.25961 0.0
H821 H 0.02577 0.51823 0.22019 0.0
H822 H 0.99064 0.50929 0.26243 0.0
H823 H 0.0172 0.45333 0.2259 0.0
H824 H 0.02103 0.44406 0.19359 0.0
H825 H 0.97719 0.43113 0.17503 0.0
H826 H 0.9736 0.44082 0.20728 0.0
H827 H 0.97321 0.42447 0.24935 0.0
H828 H 0.97793 0.40881 0.27145 0.0
H829 H 0.01955 0.44539 0.28801 0.0
H830 H 0.01506 0.46095 0.26571 0.0
H831 H 0.01949 0.4753 0.23709 0.0
H832 H 0.02606 0.50049 0.23932 0.0
H833 H 0.9805 0.48725 0.24564 0.0
N834 N 0.99184 0.45156 0.23879 0.0
H835 H 0.97422 0.46193 0.24514 0.0
C836 C 0.01566 0.55968 0.21715 0.0
C837 C 0.02632 0.57226 0.20731 0.0
C838 C 0.023 0.57727 0.18956 0.0
C839 C 0.00888 0.56982 0.18131 0.0
C840 C -0.0017 0.55689 0.19077 0.0
C841 C 0.00165 0.55186 0.20854 0.0
C842 C 0.01654 0.56305 0.2539 0.0
C843 C 0.00317 0.56259 0.25657 0.0
C844 C 0.00216 0.57232 0.26986 0.0
C845 C 0.01436 0.58238 0.28105 0.0
C846 C 0.02732 0.58201 0.27978 0.0
C847 C 0.0284 0.57244 0.2662 0.0
C848 C 0.01501 0.54093 0.23911 0.0
C849 C 0.02312 0.53604 0.22833 0.0
C850 C 0.01948 0.52157 0.22937 0.0
C851 C 0.00774 0.51159 0.24164 0.0
C852 C -0.00036 0.51654 0.25261 0.0
C853 C 0.0031 0.53099 0.25117 0.0
C854 C 0.99507 0.4478 0.21894 0.0
C855 C 0.00853 0.44883 0.2147 0.0
C856 C 0.01065 0.44336 0.1963 0.0
C857 C -0.00062 0.43674 0.1818 0.0
C858 C 0.98615 0.43628 0.18576 0.0
C859 C 0.98405 0.44176 0.20416 0.0
C860 C 0.9937 0.44389 0.25565 0.0
C861 C 0.98317 0.42921 0.25822 0.0
C862 C 0.98588 0.42029 0.27072 0.0
C863 C -0.00089 0.42596 0.28127 0.0
C864 C 0.00924 0.44084 0.28005 0.0
C865 C 0.00663 0.44975 0.26721 0.0
C866 C 0.99631 0.46664 0.2414 0.0
C867 C 0.01093 0.47775 0.23955 0.0
C868 C 0.01466 0.49227 0.24045 0.0
C869 C 0.00384 0.49608 0.24248 0.0
C870 C 0.98922 0.48488 0.24446 0.0
C871 C 0.98556 0.47035 0.24406 0.0
H872 H 0.59189 0.54612 0.21457 0.0
N873 N 0.56441 0.53364 0.22718 0.0
H874 H 0.60215 0.55886 0.182 0.0
H875 H 0.54878 0.53385 0.19349 0.0
H876 H 0.55891 0.54626 0.16116 0.0
H877 H 0.55494 0.55304 0.22409 0.0
H878 H 0.56203 0.574 0.24626 0.0
H879 H 0.57907 0.53976 0.2622 0.0
H880 H 0.58647 0.5609 0.28432 0.0
H881 H 0.56213 0.50822 0.23423 0.0
H882 H 0.53633 0.52832 0.22526 0.0
H883 H 0.53997 0.48462 0.23745 0.0
H884 H 0.5142 0.5048 0.22663 0.0
H885 H 0.46434 0.41054 0.21468 0.0
H886 H 0.45199 0.40137 0.18156 0.0
H887 H 0.45574 0.44275 0.16965 0.0
H888 H 0.46823 0.45192 0.20245 0.0
H889 H 0.4495 0.44063 0.23005 0.0
H890 H 0.42958 0.43178 0.25415 0.0
H891 H 0.4518 0.41703 0.29415 0.0
H892 H 0.47125 0.42476 0.2685 0.0
H893 H 0.49936 0.4428 0.21983 0.0
H894 H 0.52146 0.46649 0.21897 0.0
H895 H 0.49776 0.48551 0.24598 0.0
N896 N 0.47286 0.43629 0.23161 0.0
H897 H 0.47557 0.46205 0.24511 0.0
C898 C 0.56958 0.5389 0.20663 0.0
C899 C 0.58462 0.54586 0.20278 0.0
C900 C 0.59045 0.55318 0.18428 0.0
C901 C 0.58131 0.55353 0.16912 0.0
C902 C 0.56619 0.54601 0.17252 0.0
C903 C 0.56038 0.53888 0.19114 0.0
C904 C 0.5665 0.54481 0.24154 0.0
C905 C 0.56151 0.55445 0.23748 0.0
C906 C 0.56569 0.56652 0.25006 0.0
C907 C 0.57492 0.56919 0.26693 0.0
C908 C 0.57925 0.5591 0.27156 0.0
C909 C 0.57507 0.54704 0.25895 0.0
C910 C 0.55096 0.52 0.22917 0.0
C911 C 0.55165 0.50748 0.23271 0.0
C912 C 0.53893 0.49397 0.23433 0.0
C913 C 0.52514 0.49262 0.23202 0.0
C914 C 0.52451 0.50529 0.22878 0.0
C915 C 0.53725 0.51884 0.22769 0.0
C916 C 0.46715 0.43183 0.21109 0.0
C917 C 0.46271 0.41768 0.20472 0.0
C918 C 0.4557 0.41248 0.18587 0.0
C919 C 0.45284 0.42134 0.17321 0.0
C920 C 0.45771 0.43568 0.17925 0.0
C921 C 0.46491 0.44094 0.19793 0.0
C922 C 0.46177 0.43294 0.24709 0.0
C923 C 0.45013 0.43537 0.24383 0.0
C924 C 0.43874 0.4305 0.25801 0.0
C925 C 0.43887 0.42352 0.27625 0.0
C926 C 0.45102 0.42196 0.28008 0.0
C927 C 0.46226 0.42651 0.26555 0.0
C928 C 0.48581 0.45049 0.2327 0.0
C929 C 0.49899 0.45212 0.22559 0.0
C930 C 0.51167 0.46571 0.2253 0.0
C931 C 0.51157 0.47806 0.23256 0.0
C932 C 0.49833 0.47638 0.23994 0.0
C933 C 0.48555 0.46281 0.23973 0.0
H934 H 0.55017 0.98386 0.21845 0.0
N935 N 0.54553 0.00618 0.22904 0.0
H936 H 0.56036 0.9813 0.18667 0.0
H937 H 0.55118 0.02201 0.19507 0.0
H938 H 0.56001 0.01862 0.16198 0.0
H939 H 0.5713 0.0239 0.24579 0.0
H940 H 0.58458 0.01744 0.27022 0.0
H941 H 0.53369 0.98104 0.25228 0.0
H942 H 0.54693 0.97464 0.27609 0.0
H943 H 0.52238 0.97915 0.22108 0.0
H944 H 0.53425 0.02277 0.23738 0.0
H945 H 0.4968 0.9719 0.22198 0.0
H946 H 0.50871 0.01611 0.23618 0.0
H947 H 0.41419 0.9591 0.20701 0.0
H948 H 0.40478 0.96211 0.17452 0.0
H949 H 0.446 0.00122 0.16276 0.0
H950 H 0.45475 -0.00126 0.19615 0.0
H951 H 0.43962 0.00219 0.22822 0.0
H952 H 0.42427 0.00644 0.2521 0.0
H953 H 0.41046 0.96526 0.28108 0.0
H954 H 0.4254 0.96077 0.25658 0.0
H955 H 0.45325 0.96536 0.20384 0.0
H956 H 0.47882 0.97254 0.20476 0.0
H957 H 0.48624 0.00475 0.25098 0.0
N958 N 0.43979 0.97683 0.2241 0.0
H959 H 0.46108 -0.0015 0.2484 0.0
C960 C 0.55032 0.00349 0.20952 0.0
C961 C 0.55244 0.99166 0.20642 0.0
C962 C 0.55808 0.99003 0.18786 0.0
C963 C 0.56119 -0.00021 0.17152 0.0
C964 C 0.55823 0.01112 0.17429 0.0
C965 C 0.55303 0.01302 0.19315 0.0
C966 C 0.55154 0.00304 0.24688 0.0
C967 C 0.56575 0.0133 0.25291 0.0
C968 C 0.57332 0.0096 0.2668 0.0
C969 C 0.56678 0.99549 0.27476 0.0
C970 C 0.55221 0.98555 0.26998 0.0
C971 C 0.5446 0.98929 0.25632 0.0
C972 C 0.53022 0.00145 0.22976 0.0
C973 C 0.51944 0.98717 0.22497 0.0
C974 C 0.50475 0.98312 0.22507 0.0
C975 C 0.50047 0.99339 0.22906 0.0
C976 C 0.51138 0.00774 0.23354 0.0
C977 C 0.52604 0.01165 0.23408 0.0
C978 C 0.4352 0.97849 0.2039 0.0
C979 C 0.42118 0.96827 0.19731 0.0
C980 C 0.41588 0.96999 0.1786 0.0
C981 C 0.42464 0.98186 0.16572 0.0
C982 C 0.43881 0.99205 0.17228 0.0
C983 C 0.44396 0.99052 0.1913 0.0
C984 C 0.43337 0.98097 0.24041 0.0
C985 C 0.43347 0.99417 0.23988 0.0
C986 C 0.42478 0.99663 0.25355 0.0
C987 C 0.41621 0.98614 0.26827 0.0
C988 C 0.41707 0.97352 0.2699 0.0
C989 C 0.42553 0.97094 0.25596 0.0
C990 C 0.45506 0.9813 0.22589 0.0
C991 C 0.46045 0.97405 0.21406 0.0
C992 C 0.47511 0.97809 0.21484 0.0
C993 C 0.48479 0.98921 0.2281 0.0
C994 C 0.47932 0.99634 0.24025 0.0
C995 C 0.46472 0.9926 0.23896 0.0
H996 H 0.41654 0.9571 0.8071 0.0
N997 N 0.44151 0.97441 0.78787 0.0
H998 H 0.4077 0.96181 0.8395 0.0
H999 H 0.45702 0.9975 0.81371 0.0
H1000 H 0.44808 0.00243 0.84567 0.0
H1001 H 0.44843 0.0027 0.78303 0.0
H1002 H 0.43743 0.01129 0.7588 0.0
H1003 H 0.4267 0.96061 0.75437 0.0
H1004 H 0.41656 0.96951 0.72852 0.0
H1005 H 0.4449 0.95196 0.79441 0.0
H1006 H 0.46885 0.99751 0.78007 0.0
H1007 H 0.46765 0.95168 0.79625 0.0
H1008 H 0.4917 0.99731 0.78135 0.0
H1009 H 0.52928 0.95277 0.82829 0.0
H1010 H 0.54253 0.95709 0.86069 0.0
H1011 H 0.56645 0.00299 0.84766 0.0
H1012 H 0.55347 -0.00146 0.81524 0.0
H1013 H 0.54403 0.99726 0.77708 0.0
H1014 H 0.5646 0.00744 0.75303 0.0
H1015 H 0.56902 0.96988 0.76116 0.0
H1016 H 0.54816 0.9595 0.78486 0.0
H1017 H 0.50954 0.95262 0.78088 0.0
H1018 H 0.48729 0.95354 0.77574 0.0
H1019 H 0.50714 0.99505 0.80645 0.0
N1020 N 0.53388 0.97203 0.79916 0.0
H1021 H 0.52941 0.99425 0.81086 0.0
C1022 C 0.43733 0.97693 0.80789 0.0
C1023 C 0.42355 0.96689 0.81565 0.0
C1024 C 0.41855 0.96958 0.83409 0.0
C1025 C 0.42721 0.98252 0.84492 0.0
C1026 C 0.44118 0.99244 0.83747 0.0
C1027 C 0.44628 0.9896 0.81922 0.0
C1028 C 0.43802 0.98079 0.77095 0.0
C1029 C 0.44157 0.99536 0.77119 0.0
C1030 C 0.43536 0.00036 0.75697 0.0
C1031 C 0.42577 0.99105 0.74176 0.0
C1032 C 0.42344 0.97689 0.74038 0.0
C1033 C 0.42938 0.97181 0.75496 0.0
C1034 C 0.45514 0.97466 0.78701 0.0
C1035 C 0.45509 0.96184 0.79133 0.0
C1036 C 0.4681 0.96171 0.79229 0.0
C1037 C 0.48153 0.97447 0.7889 0.0
C1038 C 0.48157 0.98733 0.78426 0.0
C1039 C 0.46849 0.98744 0.78335 0.0
C1040 C 0.54031 0.97526 0.81938 0.0
C1041 C 0.5372 0.96377 0.83267 0.0
C1042 C 0.54477 0.96627 0.85115 0.0
C1043 C 0.55565 0.98038 0.85665 0.0
C1044 C 0.55831 0.99197 0.8437 0.0
C1045 C 0.55076 0.98945 0.82524 0.0
C1046 C 0.54445 0.97749 0.78268 0.0
C1047 C 0.5491 0.99099 0.77329 0.0
C1048 C 0.56087 0.99683 0.75956 0.0
C1049 C 0.56834 0.98943 0.75538 0.0
C1050 C 0.56341 0.97578 0.76422 0.0
C1051 C 0.55151 0.96983 0.77762 0.0
C1052 C 0.52107 0.97319 0.79646 0.0
C1053 C 0.50906 0.96191 0.78644 0.0
C1054 C 0.49635 0.96245 0.78361 0.0
C1055 C 0.49538 0.97433 0.79082 0.0
C1056 C 0.50755 0.9858 0.80053 0.0
C1057 C 0.52029 0.98527 0.80329 0.0
H1058 H 0.95873 0.53495 0.81749 0.0
N1059 N 0.98234 0.53703 0.80016 0.0
H1060 H 0.95688 0.54462 0.85085 0.0
H1061 H 0.00411 0.55027 0.82874 0.0
H1062 H 0.00249 0.56026 0.86164 0.0
H1063 H 0.00656 0.56422 0.79798 0.0
H1064 H 0.00961 0.5836 0.77505 0.0
H1065 H 0.9669 0.53417 0.76677 0.0
H1066 H 0.97015 0.55352 0.74335 0.0
H1067 H 0.96645 0.50846 0.80006 0.0
H1068 H 0.01082 0.54376 0.79686 0.0
H1069 H 0.97492 0.49112 0.80049 0.0
H1070 H 0.01951 0.52658 0.79829 0.0
H1071 H 0.99229 0.44243 0.82303 0.0
H1072 H 0.99142 0.42996 0.85443 0.0
H1073 H 0.03727 0.45987 0.86396 0.0
H1074 H 0.03806 0.47265 0.83219 0.0
H1075 H 0.03181 0.45693 0.78334 0.0
H1076 H 0.02233 0.43672 0.75879 0.0
H1077 H 0.97928 0.4307 0.76578 0.0
H1078 H 0.98876 0.45095 0.78988 0.0
H1079 H 0.99368 0.46539 0.82641 0.0
H1080 H 0.98633 0.48326 0.82398 0.0
H1081 H 0.02114 0.50773 0.78052 0.0
N1082 N 0.01651 0.46554 0.80553 0.0
H1083 H 0.02895 0.48988 0.78374 0.0
C1084 C 0.98148 0.54182 0.82059 0.0
C1085 C 0.96824 0.5403 0.82724 0.0
C1086 C 0.96726 0.54593 0.84618 0.0
C1087 C 0.97956 0.55329 0.85885 0.0
C1088 C 0.99276 0.55451 0.85237 0.0
C1089 C 0.99372 0.54883 0.83345 0.0
C1090 C 0.98631 0.54774 0.78427 0.0
C1091 C -0.00129 0.56166 0.78588 0.0
C1092 C 0.00046 0.57275 0.77277 0.0
C1093 C 0.99005 0.57004 0.7576 0.0
C1094 C 0.97837 0.55586 0.75486 0.0
C1095 C 0.97649 0.54482 0.7682 0.0
C1096 C 0.98794 0.52733 0.7986 0.0
C1097 C 0.97803 0.51243 0.7994 0.0
C1098 C 0.98293 0.50258 0.79988 0.0
C1099 C -0.00208 0.50745 0.7998 0.0
C1100 C 0.00788 0.52243 0.7983 0.0
C1101 C 0.00294 0.5323 0.79761 0.0
C1102 C 0.01534 0.45857 0.82507 0.0
C1103 C 0.00221 0.44645 0.83175 0.0
C1104 C 0.00171 0.43921 0.84975 0.0
C1105 C 0.01431 0.44379 0.86154 0.0
C1106 C 0.02736 0.45611 0.85523 0.0
C1107 C 0.02785 0.46341 0.83712 0.0
C1108 C 0.01106 0.45543 0.78857 0.0
C1109 C 0.02042 0.45149 0.77912 0.0
C1110 C 0.015 0.43999 0.76514 0.0
C1111 C 7e-05 0.43213 0.76062 0.0
C1112 C 0.99082 0.43655 0.76919 0.0
C1113 C 0.99627 0.44817 0.78291 0.0
C1114 C 0.01208 0.47628 0.80534 0.0
C1115 C -5e-05 0.47459 0.81653 0.0
C1116 C 0.99558 0.48483 0.81492 0.0
C1117 C 0.00303 0.4969 0.80189 0.0
C1118 C 0.01523 0.49865 0.79087 0.0
C1119 C 0.01968 0.48845 0.79263 0.0
H1120 H 0.47656 0.44208 0.82572 0.0
N1121 N 0.46665 0.44795 0.79187 0.0
H1122 H 0.46349 0.43245 0.85839 0.0
H1123 H 0.43985 0.44407 0.8021 0.0
H1124 H 0.42675 0.43424 0.83433 0.0
H1125 H 0.44741 0.45037 0.76658 0.0
H1126 H 0.43002 0.43144 0.7437 0.0
H1127 H 0.46751 0.42497 0.77889 0.0
H1128 H 0.45058 0.40623 0.75529 0.0
H1129 H 0.49488 0.46188 0.78376 0.0
H1130 H 0.45865 0.46862 0.79305 0.0
H1131 H 0.51151 0.4881 0.78231 0.0
H1132 H 0.47519 0.49484 0.79194 0.0
H1133 H 0.55938 0.55656 0.80925 0.0
H1134 H 0.57069 0.5688 0.84111 0.0
H1135 H 0.53722 0.57978 0.84993 0.0
H1136 H 0.52573 0.56733 0.81759 0.0
H1137 H 0.54395 0.57881 0.7691 0.0
H1138 H 0.5648 0.59035 0.7454 0.0
H1139 H 0.57154 0.55412 0.75259 0.0
H1140 H 0.55086 0.54267 0.77598 0.0
H1141 H 0.53758 0.53313 0.81005 0.0
H1142 H 0.52029 0.50736 0.80821 0.0
H1143 H 0.49229 0.51553 0.76976 0.0
N1144 N 0.53527 0.55488 0.79108 0.0
H1145 H 0.50975 0.54166 0.77192 0.0
C1146 C 0.45918 0.44361 0.81139 0.0
C1147 C 0.46577 0.44058 0.82766 0.0
C1148 C 0.45834 0.43513 0.84625 0.0
C1149 C 0.44409 0.43251 0.84871 0.0
C1150 C 0.43766 0.43602 0.83267 0.0
C1151 C 0.44518 0.44165 0.81423 0.0
C1152 C 0.45864 0.43894 0.77471 0.0
C1153 C 0.44837 0.44092 0.76391 0.0
C1154 C 0.43845 0.43008 0.75072 0.0
C1155 C 0.43872 0.41718 0.74799 0.0
C1156 C 0.44984 0.41587 0.75745 0.0
C1157 C 0.45962 0.42662 0.77074 0.0
C1158 C 0.4756 0.4633 0.78854 0.0
C1159 C 0.49052 0.46904 0.7852 0.0
C1160 C 0.49998 0.484 0.78457 0.0
C1161 C 0.49468 0.49354 0.7873 0.0
C1162 C 0.4796 0.48777 0.7897 0.0
C1163 C 0.47012 0.47276 0.79036 0.0
C1164 C 0.54166 0.5611 0.81079 0.0
C1165 C 0.55434 0.56151 0.81789 0.0
C1166 C 0.5609 0.5686 0.83616 0.0
C1167 C 0.55495 0.57541 0.84786 0.0
C1168 C 0.54202 0.5746 0.84121 0.0
C1169 C 0.53548 0.56753 0.82278 0.0
C1170 C 0.54579 0.55993 0.77446 0.0
C1171 C 0.5497 0.5732 0.7651 0.0
C1172 C 0.56158 0.57976 0.7516 0.0
C1173 C 0.56983 0.57316 0.74738 0.0
C1174 C 0.56543 0.55948 0.75578 0.0
C1175 C 0.5535 0.55288 0.76911 0.0
C1176 C 0.52496 0.53947 0.79115 0.0
C1177 C 0.52774 0.52954 0.80134 0.0
C1178 C 0.51786 0.5147 0.8001 0.0
C1179 C 0.50498 0.50939 0.78867 0.0
C1180 C 0.50209 0.5193 0.77876 0.0
C1181 C 0.51203 0.53419 0.77995 0.0
H1182 H 0.70651 0.91006 0.53963 0.0
N1183 N 0.68738 0.88853 0.56316 0.0
H1184 H 0.70175 0.9195 0.50822 0.0
H1185 H 0.66108 0.87738 0.54387 0.0
H1186 H 0.65614 0.88685 0.51255 0.0
H1187 H 0.66341 0.88893 0.57769 0.0
H1188 H 0.66356 0.9061 0.60267 0.0
H1189 H 0.70931 0.90625 0.58728 0.0
H1190 H 0.70953 0.92339 0.61259 0.0
H1191 H 0.69436 0.87288 0.53913 0.0
H1192 H 0.66771 0.86906 0.59176 0.0
H1193 H 0.68566 0.84708 0.54092 0.0
H1194 H 0.65977 0.84357 0.59444 0.0
H1195 H 0.67637 0.78087 0.55744 0.0
H1196 H 0.67705 0.76882 0.52605 0.0
H1197 H 0.63276 0.7573 0.51282 0.0
H1198 H 0.63221 0.76966 0.54439 0.0
H1199 H 0.63553 0.75789 0.59233 0.0
H1200 H 0.64258 0.74521 0.6167 0.0
H1201 H 0.68653 0.78172 0.61684 0.0
H1202 H 0.67955 0.79419 0.59247 0.0
H1203 H 0.67998 0.80448 0.56049 0.0
H1204 H 0.68798 0.83004 0.55947 0.0
H1205 H 0.64534 0.82053 0.58018 0.0
N1206 N 0.65301 0.78233 0.57256 0.0
H1207 H 0.63775 0.79485 0.58253 0.0
C1208 C 0.68421 0.89307 0.54399 0.0
C1209 C 0.69553 0.9049 0.53365 0.0
C1210 C 0.69276 0.91032 0.51586 0.0
C1211 C 0.67855 0.90397 0.50802 0.0
C1212 C 0.66721 0.8919 0.51816 0.0
C1213 C 0.67 0.88651 0.53607 0.0
C1214 C 0.68642 0.89638 0.5806 0.0
C1215 C 0.67345 0.89619 0.58556 0.0
C1216 C 0.67353 0.90597 0.59993 0.0
C1217 C 0.68659 0.91617 0.60945 0.0
C1218 C 0.69935 0.91575 0.60533 0.0
C1219 C 0.69923 0.90593 0.59103 0.0
C1220 C 0.68175 0.87311 0.56509 0.0
C1221 C 0.6867 0.86651 0.55114 0.0
C1222 C 0.68182 0.85174 0.55236 0.0
C1223 C 0.67208 0.84315 0.56796 0.0
C1224 C 0.66709 0.84974 0.58201 0.0
C1225 C 0.67177 0.8645 0.58054 0.0
C1226 C 0.65415 0.77615 0.55335 0.0
C1227 C 0.66682 0.77591 0.54779 0.0
C1228 C 0.66718 0.7689 0.52986 0.0
C1229 C 0.65492 0.762 0.51706 0.0
C1230 C 0.64241 0.7626 0.52231 0.0
C1231 C 0.64205 0.7696 0.54032 0.0
C1232 C 0.65691 0.77693 0.5903 0.0
C1233 C 0.64657 0.76333 0.59811 0.0
C1234 C 0.65062 0.75612 0.61206 0.0
C1235 C 0.66516 0.76241 0.61848 0.0
C1236 C 0.67528 0.77651 0.61191 0.0
C1237 C 0.67123 0.78371 0.59796 0.0
C1238 C 0.65824 0.79768 0.5719 0.0
C1239 C 0.67237 0.80783 0.56511 0.0
C1240 C 0.67689 0.82254 0.56425 0.0
C1241 C 0.66731 0.82747 0.5696 0.0
C1242 C 0.65314 0.81725 0.57627 0.0
C1243 C 0.64873 0.80254 0.5775 0.0
H1244 H 0.24974 0.87579 0.54549 0.0
N1245 N 0.22554 0.86986 0.56561 0.0
H1246 H 0.25823 0.88803 0.51208 0.0
H1247 H 0.20997 0.8768 0.53905 0.0
H1248 H 0.2185 0.8892 0.50627 0.0
H1249 H 0.21495 0.88838 0.57073 0.0
H1250 H 0.22479 0.9092 0.59357 0.0
H1251 H 0.24477 0.87627 0.59544 0.0
H1252 H 0.25479 0.89732 0.61845 0.0
H1253 H 0.2236 0.84433 0.56926 0.0
H1254 H 0.19735 0.86443 0.56778 0.0
H1255 H 0.20157 0.82047 0.57059 0.0
H1256 H 0.1754 0.84082 0.56742 0.0
H1257 H 0.12746 0.75041 0.53339 0.0
H1258 H 0.11645 0.74552 0.49907 0.0
H1259 H 0.11919 0.78714 0.49976 0.0
H1260 H 0.13052 0.79213 0.53375 0.0
H1261 H 0.1138 0.78131 0.56166 0.0
H1262 H 0.09168 0.76908 0.58227 0.0
H1263 H 0.10524 0.74026 0.60634 0.0
H1264 H 0.12752 0.75254 0.58529 0.0
H1265 H 0.1611 0.78094 0.54514 0.0
H1266 H 0.18324 0.80436 0.54906 0.0
H1267 H 0.15923 0.81969 0.58451 0.0
N1268 N 0.13436 0.77317 0.55731 0.0
H1269 H 0.13708 0.7967 0.57939 0.0
C1270 C 0.22931 0.87544 0.54495 0.0
C1271 C 0.24278 0.87846 0.53678 0.0
C1272 C 0.24759 0.88543 0.51778 0.0
C1273 C 0.23905 0.88966 0.5068 0.0
C1274 C 0.22535 0.88619 0.5146 0.0
C1275 C 0.22046 0.87905 0.53341 0.0
C1276 C 0.22917 0.8807 0.58129 0.0
C1277 C 0.22338 0.88994 0.58134 0.0
C1278 C 0.22909 0.90197 0.59436 0.0
C1279 C 0.24066 0.90498 0.60763 0.0
C1280 C 0.24582 0.89523 0.60848 0.0
C1281 C 0.24013 0.88323 0.59536 0.0
C1282 C 0.21222 0.85618 0.56807 0.0
C1283 C 0.21307 0.84358 0.56917 0.0
C1284 C 0.20043 0.82994 0.56969 0.0
C1285 C 0.18659 0.82859 0.56874 0.0
C1286 C 0.18579 0.84132 0.56835 0.0
C1287 C 0.19845 0.85496 0.56825 0.0
C1288 C 0.12967 0.77151 0.53619 0.0
C1289 C 0.12595 0.75857 0.52591 0.0
C1290 C 0.1197 0.75582 0.50638 0.0
C1291 C 0.11691 0.76593 0.49692 0.0
C1292 C 0.12114 0.77914 0.50685 0.0
C1293 C 0.1276 0.78198 0.52624 0.0
C1294 C 0.12236 0.76776 0.57177 0.0
C1295 C 0.11219 0.77247 0.57143 0.0
C1296 C 0.09948 0.76545 0.58321 0.0
C1297 C 0.09667 0.75362 0.59567 0.0
C1298 C 0.10716 0.74938 0.59688 0.0
C1299 C 0.11987 0.75637 0.58493 0.0
C1300 C 0.14733 0.78687 0.56183 0.0
C1301 C 0.16065 0.78936 0.55385 0.0
C1302 C 0.17336 0.80276 0.55628 0.0
C1303 C 0.17314 0.81404 0.56715 0.0
C1304 C 0.15984 0.81142 0.57569 0.0
C1305 C 0.14705 0.79807 0.5729 0.0
H1306 H 0.22443 0.3327 0.55312 0.0
N1307 N 0.22091 0.35585 0.5624 0.0
H1308 H 0.23431 0.32898 0.5218 0.0
H1309 H 0.22711 0.37112 0.52764 0.0
H1310 H 0.2358 0.36669 0.49505 0.0
H1311 H 0.24798 0.37289 0.57548 0.0
H1312 H 0.26152 0.36638 0.59926 0.0
H1313 H 0.2088 0.33228 0.5885 0.0
H1314 H 0.22221 0.32595 0.61246 0.0
H1315 H 0.19793 0.33019 0.54823 0.0
H1316 H 0.20893 0.36959 0.58071 0.0
H1317 H 0.17243 0.32296 0.54927 0.0
H1318 H 0.18308 0.36187 0.58336 0.0
H1319 H 0.09327 0.30087 0.54269 0.0
H1320 H 0.08256 0.30003 0.5091 0.0
H1321 H 0.11399 0.34542 0.50023 0.0
H1322 H 0.12475 0.34607 0.53336 0.0
H1323 H 0.11227 0.34799 0.56385 0.0
H1324 H 0.0956 0.35096 0.58663 0.0
H1325 H 0.08467 0.31105 0.61741 0.0
H1326 H 0.101 0.30783 0.59403 0.0
H1327 H 0.12609 0.30695 0.56571 0.0
H1328 H 0.15172 0.31426 0.56877 0.0
H1329 H 0.16335 0.35923 0.56495 0.0
N1330 N 0.11476 0.32377 0.56131 0.0
H1331 H 0.13759 0.3517 0.5638 0.0
C1332 C 0.22541 0.35253 0.54305 0.0
C1333 C 0.22702 0.34032 0.5407 0.0
C1334 C 0.23247 0.33803 0.52244 0.0
C1335 C 0.23598 0.34754 0.50569 0.0
C1336 C 0.23361 0.35931 0.50771 0.0
C1337 C 0.22851 0.36182 0.52626 0.0
C1338 C 0.2274 0.35317 0.58009 0.0
C1339 C 0.2422 0.36284 0.584 0.0
C1340 C 0.24992 0.35907 0.59744 0.0
C1341 C 0.2429 0.34563 0.60752 0.0
C1342 C 0.22784 0.33643 0.60497 0.0
C1343 C 0.22015 0.34009 0.59126 0.0
C1344 C 0.20548 0.35069 0.56401 0.0
C1345 C 0.19488 0.33729 0.55575 0.0
C1346 C 0.18015 0.33303 0.55666 0.0
C1347 C 0.17553 0.34181 0.56638 0.0
C1348 C 0.18615 0.35495 0.57531 0.0
C1349 C 0.20094 0.35934 0.574 0.0
C1350 C 0.10982 0.32344 0.54059 0.0
C1351 C 0.09796 0.31055 0.5333 0.0
C1352 C 0.09179 0.31014 0.51422 0.0
C1353 C 0.09736 0.3227 0.50205 0.0
C1354 C 0.10953 0.33553 0.50911 0.0
C1355 C 0.1157 0.33591 0.52818 0.0
C1356 C 0.10764 0.32748 0.57702 0.0
C1357 C 0.10651 0.33999 0.57567 0.0
C1358 C 0.09701 0.34171 0.58871 0.0
C1359 C 0.08884 0.33118 0.60363 0.0
C1360 C 0.09093 0.31935 0.6061 0.0
C1361 C 0.1002 0.31749 0.59279 0.0
C1362 C 0.12997 0.32872 0.56406 0.0
C1363 C 0.13422 0.31838 0.56575 0.0
C1364 C 0.14892 0.32261 0.56727 0.0
C1365 C 0.15978 0.33737 0.56667 0.0
C1366 C 0.1554 0.34777 0.56559 0.0
C1367 C 0.14063 0.34349 0.56458 0.0
C1368 C 0.99218 0.38395 0.09031 0.0
C1369 C 0.00415 0.38996 0.07684 0.0
C1370 C 0.99161 0.39186 0.10719 0.0
C1371 C 0.0033 0.40611 0.11069 0.0
C1372 C 0.01542 0.41223 0.09716 0.0
C1373 C 0.0157 0.40408 0.08039 0.0
C1374 C 0.97849 0.38496 0.12128 0.0
C1375 C 0.0281 0.42737 0.10043 0.0
C1376 C 0.9957 0.43073 0.14415 0.0
C1377 C 0.00107 0.42956 0.16325 0.0
C1378 C 0.99653 0.42331 0.12682 0.0
C1379 C 0.00288 0.41452 0.12866 0.0
C1380 C 0.00853 0.41349 0.14781 0.0
C1381 C 0.00754 0.421 0.16487 0.0
C1382 C 0.99043 0.42472 0.10662 0.0
C1383 C 0.01537 0.40421 0.15039 0.0
H1384 H 0.9832 0.37306 0.08765 0.0
H1385 H 0.02499 0.4088 0.07003 0.0
H1386 H 0.98193 0.38448 0.13719 0.0
H1387 H 0.97324 0.39164 0.12173 0.0
H1388 H 0.97028 0.37382 0.11636 0.0
H1389 H 0.03666 0.43059 0.08843 0.0
H1390 H 0.02425 0.43525 0.10035 0.0
H1391 H 0.03305 0.42815 0.11569 0.0
H1392 H 0.99082 0.43745 0.14274 0.0
H1393 H 0.0115 0.41985 0.17965 0.0
H1394 H 0.98146 0.41394 0.10166 0.0
H1395 H -0.00103 0.42865 0.09451 0.0
H1396 H 0.98618 0.43227 0.10763 0.0
H1397 H 0.00718 0.39271 0.14722 0.0
H1398 H 0.01972 0.40498 0.16612 0.0
H1399 H 0.02438 0.40749 0.13914 0.0
C1400 C 0.61689 0.60364 0.06876 0.0
C1401 C 0.60851 0.61002 0.06429 0.0
C1402 C 0.61331 0.59408 0.08543 0.0
C1403 C 0.60124 0.59106 0.0981 0.0
C1404 C 0.59288 0.59763 0.09383 0.0
C1405 C 0.59654 0.60692 0.07688 0.0
C1406 C 0.62234 0.58711 0.08935 0.0
C1407 C 0.58007 0.59486 0.10719 0.0
C1408 C 0.58182 0.5572 0.13105 0.0
C1409 C 0.5875 0.56268 0.15056 0.0
C1410 C 0.58669 0.56618 0.11364 0.0
C1411 C 0.59727 0.58104 0.11591 0.0
C1412 C 0.60331 0.58653 0.13551 0.0
C1413 C 0.59842 0.57725 0.15259 0.0
C1414 C 0.58018 0.55988 0.09294 0.0
C1415 C 0.61446 0.60235 0.13863 0.0
H1416 H 0.6261 0.60591 0.05901 0.0
H1417 H 0.59008 0.61188 0.07361 0.0
H1418 H 0.62711 0.58994 0.10498 0.0
H1419 H 0.61532 0.57514 0.08875 0.0
H1420 H 0.63132 0.59051 0.07797 0.0
H1421 H 0.57491 0.60109 0.10205 0.0
H1422 H 0.57174 0.58316 0.10699 0.0
H1423 H 0.58364 0.59784 0.12336 0.0
H1424 H 0.57345 0.5459 0.12947 0.0
H1425 H 0.60268 0.58154 0.16771 0.0
H1426 H 0.58893 0.56269 0.08141 0.0
H1427 H 0.57361 0.5646 0.08754 0.0
H1428 H 0.57307 0.54791 0.09347 0.0
H1429 H 0.62373 0.60577 0.12782 0.0
H1430 H 0.61873 0.6047 0.15458 0.0
H1431 H 0.60946 0.60903 0.13526 0.0
C1432 C 0.39944 0.98768 0.05183 0.0
C1433 C 0.38672 0.98849 0.05254 0.0
C1434 C 0.40664 0.98792 0.06995 0.0
C1435 C 0.40065 0.98842 0.08922 0.0
C1436 C 0.38792 0.98948 0.08998 0.0
C1437 C 0.38124 0.98974 0.07158 0.0
C1438 C 0.42047 0.98729 0.06849 0.0
C1439 C 0.38097 0.98962 0.11022 0.0
C1440 C 0.40897 0.97145 0.13433 0.0
C1441 C 0.41887 0.98365 0.14574 0.0
C1442 C 0.40285 0.97288 0.11609 0.0
C1443 C 0.40713 0.98686 0.10855 0.0
C1444 C 0.41744 -0.00075 0.11953 0.0
C1445 C 0.423 0.9975 0.13815 0.0
C1446 C 0.39167 0.95939 0.10502 0.0
C1447 C 0.42256 0.01434 0.11166 0.0
H1448 H 0.40374 0.98684 0.03707 0.0
H1449 H 0.37133 0.99024 0.07211 0.0
H1450 H 0.42912 0.99596 0.07803 0.0
H1451 H 0.4185 0.97678 0.07456 0.0
H1452 H 0.4245 0.98849 0.05241 0.0
H1453 H 0.37139 0.99099 0.10816 0.0
H1454 H 0.37739 0.97929 0.11849 0.0
H1455 H 0.38898 -0.00151 0.12016 0.0
H1456 H 0.40594 0.9607 0.13961 0.0
H1457 H 0.43043 0.00704 0.14687 0.0
H1458 H 0.39571 0.95893 0.08945 0.0
H1459 H 0.38146 0.95966 0.10304 0.0
H1460 H 0.38906 0.94932 0.1134 0.0
H1461 H 0.42665 0.01545 0.09565 0.0
H1462 H 0.43134 0.02281 0.12131 0.0
H1463 H 0.41331 0.01634 0.11136 0.0
C1464 C 0.37747 0.98952 0.92933 0.0
C1465 C 0.38477 0.99684 0.94725 0.0
C1466 C 0.38509 0.98818 0.91262 0.0
C1467 C 0.40032 0.99404 0.91407 0.0
C1468 C 0.40779 0.00167 0.932 0.0
C1469 C 0.39993 0.00312 0.94832 0.0
C1470 C 0.37678 0.98025 0.89358 0.0
C1471 C 0.42399 0.00786 0.93421 0.0
C1472 C 0.41532 0.976 0.87952 0.0
C1473 C 0.42134 0.98595 0.86335 0.0
C1474 C 0.40893 0.97877 0.89652 0.0
C1475 C 0.40826 0.99165 0.89708 0.0
C1476 C 0.41452 0.00183 0.88089 0.0
C1477 C 0.42111 -0.00108 0.86428 0.0
C1478 C 0.40263 0.96778 0.91368 0.0
C1479 C 0.41377 0.01554 0.88075 0.0
H1480 H 0.36576 0.98474 0.92843 0.0
H1481 H 0.40559 0.00871 0.96222 0.0
H1482 H 0.3818 0.98708 0.87976 0.0
H1483 H 0.37731 0.97024 0.8915 0.0
H1484 H 0.36514 0.9772 0.89439 0.0
H1485 H 0.42825 0.01396 0.94881 0.0
H1486 H 0.42645 -0.00105 0.93378 0.0
H1487 H 0.4299 0.01519 0.92117 0.0
H1488 H 0.41559 0.96602 0.8788 0.0
H1489 H 0.42565 0.00654 0.85164 0.0
H1490 H 0.39064 0.96301 0.91437 0.0
H1491 H 0.40708 0.97312 0.9287 0.0
H1492 H 0.40499 0.95887 0.91163 0.0
H1493 H 0.40223 0.01275 0.88004 0.0
H1494 H 0.41973 0.02264 0.86748 0.0
H1495 H 0.41839 0.02174 0.89516 0.0
C1496 C 0.01401 0.397 0.95853 0.0
C1497 C 0.00165 0.39339 0.9706 0.0
C1498 C 0.01724 0.40569 0.94093 0.0
C1499 C 0.00787 0.41085 0.93522 0.0
C1500 C 0.99547 0.40736 0.94742 0.0
C1501 C 0.99253 0.39871 0.96496 0.0
C1502 C 0.03058 0.40922 0.92831 0.0
C1503 C 0.98518 0.41261 0.94177 0.0
C1504 C 0.02034 0.44259 0.89851 0.0
C1505 C 0.0137 0.43548 0.88014 0.0
C1506 C 0.0189 0.43471 0.91649 0.0
C1507 C 0.01062 0.41938 0.91602 0.0
C1508 C 0.0043 0.41215 0.89735 0.0
C1509 C 0.00594 0.42028 0.87965 0.0
C1510 C 0.02584 0.44279 0.93612 0.0
C1511 C 0.99544 0.39582 0.89618 0.0
H1512 H 0.02117 0.39301 0.9628 0.0
H1513 H 0.98297 0.39601 0.97416 0.0
H1514 H 0.02729 0.40465 0.91261 0.0
H1515 H 0.03764 0.42113 0.92665 0.0
H1516 H 0.03707 0.40485 0.93527 0.0
H1517 H 0.97625 0.40929 0.95321 0.0
H1518 H 0.99122 0.42459 0.94053 0.0
H1519 H 0.98028 0.40821 0.92652 0.0
H1520 H 0.02628 0.45433 0.899 0.0
H1521 H 0.00104 0.41471 0.86538 0.0
H1522 H 0.03263 0.43874 0.94294 0.0
H1523 H 0.01724 0.44084 0.94751 0.0
H1524 H 0.03275 0.45465 0.9336 0.0
H1525 H 0.00191 0.39107 0.9019 0.0
H1526 H 0.99181 0.39186 0.88028 0.0
H1527 H 0.98568 0.39174 0.90621 0.0
C1528 C 0.59984 0.60395 0.95105 0.0
C1529 C 0.60316 0.6179 0.95693 0.0
C1530 C 0.59113 0.59711 0.93384 0.0
C1531 C 0.58567 0.60444 0.92215 0.0
C1532 C 0.58872 0.61841 0.92824 0.0
C1533 C 0.59742 0.62497 0.9456 0.0
C1534 C 0.58807 0.58218 0.92788 0.0
C1535 C 0.58313 0.62657 0.91611 0.0
C1536 C 0.57767 0.59295 0.86632 0.0
C1537 C 0.56253 0.58356 0.86668 0.0
C1538 C 0.58525 0.60011 0.88416 0.0
C1539 C 0.57752 0.59779 0.90287 0.0
C1540 C 0.56218 0.58864 0.90324 0.0
C1541 C 0.55485 0.58165 0.88509 0.0
C1542 C 0.60159 0.60989 0.88306 0.0
C1543 C 0.55359 0.58589 0.92293 0.0
H1544 H 0.60417 0.59838 0.9598 0.0
H1545 H 0.59992 0.63575 0.95008 0.0
H1546 H 0.57617 0.57467 0.92643 0.0
H1547 H 0.59305 0.58264 0.91265 0.0
H1548 H 0.59244 0.57764 0.93923 0.0
H1549 H 0.58576 0.63697 0.92353 0.0
H1550 H 0.58799 0.6289 0.90045 0.0
H1551 H 0.57115 0.61986 0.91429 0.0
H1552 H 0.58361 0.59464 0.85202 0.0
H1553 H 0.54316 0.57434 0.88543 0.0
H1554 H 0.60692 0.60545 0.89283 0.0
H1555 H 0.60477 0.6208 0.88913 0.0
H1556 H 0.60586 0.61108 0.86712 0.0
H1557 H 0.55685 0.58023 0.93408 0.0
H1558 H 0.54166 0.57918 0.92039 0.0
H1559 H 0.55603 0.5963 0.93006 0.0
C1560 C 0.98701 0.602 0.95672 0.0
C1561 C 0.97579 0.59434 0.97106 0.0
C1562 C 0.98787 0.59536 0.93854 0.0
C1563 C 0.97723 0.58075 0.93457 0.0
C1564 C 0.9659 0.57295 0.94898 0.0
C1565 C 0.96534 0.57982 0.96706 0.0
C1566 C 0.00015 0.604 0.92354 0.0
C1567 C 0.95432 0.55736 0.94522 0.0
C1568 C 0.97117 0.56761 0.87926 0.0
C1569 C 0.97878 0.5601 0.87839 0.0
C1570 C 0.97056 0.57436 0.89745 0.0
C1571 C 0.97781 0.57365 0.91519 0.0
C1572 C 0.98551 0.56609 0.91445 0.0
C1573 C 0.98588 0.55938 0.89607 0.0
C1574 C 0.96223 0.58232 0.89766 0.0
C1575 C 0.99337 0.5651 0.93308 0.0
H1576 H 0.99516 0.6132 0.95968 0.0
H1577 H 0.95661 0.57381 0.97801 0.0
H1578 H 0.00648 0.59851 0.92091 0.0
H1579 H 0.99566 0.60462 0.90848 0.0
H1580 H 0.00767 0.61519 0.92905 0.0
H1581 H 0.94632 0.55277 0.95806 0.0
H1582 H 0.94838 0.55652 0.93085 0.0
H1583 H 0.95943 0.55062 0.94314 0.0
H1584 H 0.96587 0.56843 0.86558 0.0
H1585 H 0.99165 0.55345 0.89558 0.0
H1586 H 0.96964 0.59388 0.9016 0.0
H1587 H 0.9536 0.57769 0.90965 0.0
H1588 H 0.95707 0.58174 0.88261 0.0
H1589 H 0.00155 0.57613 0.93839 0.0
H1590 H -0.00101 0.55894 0.92989 0.0
H1591 H 0.98552 0.55973 0.94589 0.0
C1592 C 0.4055 0.38443 0.94768 0.0
C1593 C 0.39512 0.38725 0.95636 0.0
C1594 C 0.41362 0.39208 0.93034 0.0
C1595 C 0.41148 0.40299 0.92175 0.0
C1596 C 0.40119 0.40606 0.93068 0.0
C1597 C 0.39302 0.39805 0.94778 0.0
C1598 C 0.42432 0.38834 0.92102 0.0
C1599 C 0.39878 0.41778 0.92213 0.0
C1600 C 0.44148 0.43055 0.88701 0.0
C1601 C 0.43563 0.42534 0.8675 0.0
C1602 C 0.43361 0.42354 0.90487 0.0
C1603 C 0.41972 0.41089 0.90306 0.0
C1604 C 0.41378 0.40561 0.88336 0.0
C1605 C 0.42177 0.41298 0.8658 0.0
C1606 C 0.44016 0.42963 0.92564 0.0
C1607 C 0.39912 0.39203 0.88081 0.0
H1608 H 0.40711 0.37605 0.95424 0.0
H1609 H 0.38508 0.40034 0.95456 0.0
H1610 H 0.4213 0.3848 0.90484 0.0
H1611 H 0.4354 0.39804 0.92078 0.0
H1612 H 0.42471 0.37958 0.92959 0.0
H1613 H 0.39081 0.41923 0.93139 0.0
H1614 H 0.40924 0.42823 0.92164 0.0
H1615 H 0.39474 0.41508 0.90611 0.0
H1616 H 0.45217 0.44016 0.88827 0.0
H1617 H 0.41733 0.40886 0.85068 0.0
H1618 H 0.44175 0.42162 0.93425 0.0
H1619 H 0.43262 0.43174 0.93482 0.0
H1620 H 0.45082 0.43986 0.92437 0.0
H1621 H 0.39924 0.38273 0.88808 0.0
H1622 H 0.39606 0.38938 0.8644 0.0
H1623 H 0.39057 0.39329 0.88871 0.0
C1624 C 0.60197 0.0058 0.95987 0.0
C1625 C 0.60869 0.99778 0.96462 0.0
C1626 C 0.5932 0.00263 0.94241 0.0
C1627 C 0.59104 0.99113 0.92932 0.0
C1628 C 0.59773 0.98295 0.934 0.0
C1629 C 0.60649 0.98637 0.95159 0.0
C1630 C 0.58629 0.01164 0.93792 0.0
C1631 C 0.59566 0.9706 0.92038 0.0
C1632 C 0.55828 0.97577 0.89381 0.0
C1633 C 0.56466 0.98294 0.8753 0.0
C1634 C 0.56677 0.97814 0.91144 0.0
C1635 C 0.58199 0.98792 0.91054 0.0
C1636 C 0.5885 0.99506 0.89185 0.0
C1637 C 0.57978 0.99248 0.87447 0.0
C1638 C 0.55942 0.97035 0.93112 0.0
C1639 C 0.6047 0.00555 0.89025 0.0
H1640 H 0.60357 0.01463 0.9698 0.0
H1641 H 0.61159 0.98009 0.95514 0.0
H1642 H 0.59009 0.01702 0.92276 0.0
H1643 H 0.57428 0.00459 0.93707 0.0
H1644 H 0.5889 0.02009 0.94979 0.0
H1645 H 0.60145 0.96517 0.92629 0.0
H1646 H 0.5839 0.96244 0.9191 0.0
H1647 H 0.59972 0.97466 0.90464 0.0
H1648 H 0.5466 0.96847 0.8946 0.0
H1649 H 0.58483 0.99784 0.86012 0.0
H1650 H 0.56087 0.97834 0.94315 0.0
H1651 H 0.56455 0.96424 0.93687 0.0
H1652 H 0.54758 0.96269 0.92908 0.0
H1653 H 0.60789 0.01473 0.90101 0.0
H1654 H 0.60812 0.00995 0.87446 0.0
H1655 H 0.61078 0.00011 0.89477 0.0
C1656 C 0.59524 0.9917 0.06439 0.0
C1657 C 0.60933 0.99447 0.06842 0.0
C1658 C 0.58657 0.99237 0.08021 0.0
C1659 C 0.59196 0.99531 0.10059 0.0
C1660 C 0.60603 0.99764 0.10476 0.0
C1661 C 0.61468 0.9975 0.08852 0.0
C1662 C 0.57188 0.99041 0.07503 0.0
C1663 C 0.61197 0.0003 0.12638 0.0
C1664 C 0.57796 0.0109 0.14104 0.0
C1665 C 0.56807 -0.00152 0.15214 0.0
C1666 C 0.58524 0.00992 0.12361 0.0
C1667 C 0.58308 0.99627 0.11755 0.0
C1668 C 0.573 0.98367 0.12839 0.0
C1669 C 0.56538 0.98489 0.14522 0.0
C1670 C 0.59556 0.02357 0.11202 0.0
C1671 C 0.57066 0.96895 0.12271 0.0
H1672 H 0.59122 0.98953 0.04874 0.0
H1673 H 0.62557 -0.00042 0.09154 0.0
H1674 H 0.5632 0.98135 0.08407 0.0
H1675 H 0.57164 0.00034 0.07927 0.0
H1676 H 0.56928 0.98818 0.05843 0.0
H1677 H 0.62266 0.00085 0.12718 0.0
H1678 H 0.61333 0.01063 0.13231 0.0
H1679 H 0.60417 0.99153 0.13673 0.0
H1680 H 0.5804 0.02152 0.14623 0.0
H1681 H 0.55748 0.97513 0.15314 0.0
H1682 H 0.59335 0.022 0.09527 0.0
H1683 H 0.60693 0.02616 0.11437 0.0
H1684 H 0.59468 0.03301 0.11715 0.0
H1685 H 0.56724 0.96641 0.10643 0.0
H1686 H 0.56231 0.96018 0.13256 0.0
H1687 H 0.58106 0.969 0.12425 0.0
C1688 C 0.00284 0.60487 0.07679 0.0
C1689 C 0.99078 0.60682 0.07614 0.0
C1690 C 0.00535 0.59848 0.09386 0.0
C1691 C 0.99552 0.59386 0.11069 0.0
C1692 C 0.98324 0.59566 0.11007 0.0
C1693 C 0.98103 0.60215 0.0928 0.0
C1694 C 0.01861 0.59681 0.09398 0.0
C1695 C 0.97251 0.59083 0.12771 0.0
C1696 C 0.99641 0.56677 0.14742 0.0
C1697 C 0.00512 0.57584 0.16335 0.0
C1698 C 0.99297 0.57244 0.13033 0.0
C1699 C -0.00161 0.58754 0.12915 0.0
C1700 C 0.00702 0.59671 0.1453 0.0
C1701 C 0.01025 0.59075 0.16221 0.0
C1702 C 0.98373 0.56233 0.11338 0.0
C1703 C 0.013 0.61286 0.14462 0.0
H1704 H 0.01044 0.60845 0.06398 0.0
H1705 H 0.97166 0.60358 0.09236 0.0
H1706 H 0.02577 0.60299 0.10703 0.0
H1707 H 0.01528 0.58527 0.09623 0.0
H1708 H 0.02502 0.6007 0.0795 0.0
H1709 H 0.96331 0.59264 0.12461 0.0
H1710 H 0.96805 0.57914 0.13081 0.0
H1711 H 0.97812 0.59681 0.14189 0.0
H1712 H 0.99249 0.55526 0.14813 0.0
H1713 H 0.01674 0.59778 0.17466 0.0
H1714 H 0.9901 0.56517 0.09886 0.0
H1715 H 0.97414 0.56355 0.1106 0.0
H1716 H 0.97984 0.55081 0.11704 0.0
H1717 H 0.02025 0.61759 0.13104 0.0
H1718 H 0.01927 0.61844 0.15865 0.0
H1719 H 0.00398 0.61511 0.14293 0.0
C1720 C 0.39851 0.38087 0.07927 0.0
C1721 C 0.40163 0.39067 0.06312 0.0
C1722 C 0.40696 0.38512 0.09723 0.0
C1723 C 0.41896 0.39942 0.09884 0.0
C1724 C 0.42246 0.40919 0.08227 0.0
C1725 C 0.41368 0.40474 0.0647 0.0
C1726 C 0.40276 0.37448 0.11473 0.0
C1727 C 0.43532 0.42445 0.08326 0.0
C1728 C 0.4319 0.41688 0.15119 0.0
C1729 C 0.44411 0.41545 0.15429 0.0
C1730 C 0.42341 0.41137 0.13344 0.0
C1731 C 0.42741 0.40449 0.11826 0.0
C1732 C 0.43972 0.40297 0.12135 0.0
C1733 C 0.44786 0.40836 0.13948 0.0
C1734 C 0.41022 0.41299 0.13087 0.0
C1735 C 0.44445 0.39593 0.10535 0.0
H1736 H 0.38918 0.37 0.07815 0.0
H1737 H 0.41625 0.41233 0.05217 0.0
H1738 H 0.41219 0.37339 0.11926 0.0
H1739 H 0.39962 0.37857 0.12836 0.0
H1740 H 0.39353 0.36359 0.11071 0.0
H1741 H 0.43719 0.43035 0.0685 0.0
H1742 H 0.43351 0.43059 0.09553 0.0
H1743 H 0.44535 0.42428 0.08723 0.0
H1744 H 0.42889 0.42219 0.16281 0.0
H1745 H 0.45735 0.40731 0.14189 0.0
H1746 H 0.40041 0.40226 0.12805 0.0
H1747 H 0.41173 0.41987 0.11729 0.0
H1748 H 0.40819 0.41796 0.14457 0.0
H1749 H 0.43542 0.38482 0.10199 0.0
H1750 H 0.45409 0.39532 0.1103 0.0
H1751 H 0.44717 0.40216 0.09078 0.0
C1752 C 0.67026 0.73021 0.41504 0.0
C1753 C 0.65889 0.71624 0.41027 0.0
C1754 C 0.6694 0.7377 0.43223 0.0
C1755 C 0.65687 0.73104 0.44499 0.0
C1756 C 0.64533 0.71694 0.44024 0.0
C1757 C 0.64647 0.70971 0.42292 0.0
C1758 C 0.68192 0.75273 0.43678 0.0
C1759 C 0.63183 0.70947 0.45354 0.0
C1760 C 0.66101 0.74479 0.49982 0.0
C1761 C 0.65512 0.75389 0.49861 0.0
C1762 C 0.6615 0.73719 0.48254 0.0
C1763 C 0.656 0.73872 0.46355 0.0
C1764 C 0.64992 0.74778 0.46225 0.0
C1765 C 0.64952 0.75524 0.47982 0.0
C1766 C 0.66799 0.72755 0.48458 0.0
C1767 C 0.64399 0.74973 0.44224 0.0
H1768 H 0.67988 0.73534 0.40532 0.0
H1769 H 0.63764 0.69892 0.41931 0.0
H1770 H 0.67799 0.76054 0.43732 0.0
H1771 H 0.68653 0.7529 0.45211 0.0
H1772 H 0.69076 0.75649 0.42512 0.0
H1773 H 0.62376 0.69857 0.4476 0.0
H1774 H 0.63482 0.70829 0.46943 0.0
H1775 H 0.62658 0.71615 0.45444 0.0
H1776 H 0.66513 0.74352 0.51439 0.0
H1777 H 0.64507 0.76234 0.47878 0.0
H1778 H 0.6775 0.73137 0.4741 0.0
H1779 H 0.65988 0.71632 0.47995 0.0
H1780 H 0.67158 0.72736 0.50052 0.0
H1781 H 0.65279 0.75442 0.43049 0.0
H1782 H 0.63935 0.75692 0.4439 0.0
H1783 H 0.63539 0.73906 0.43635 0.0
C1784 C 0.2792 0.94306 0.41193 0.0
C1785 C 0.26903 0.94136 0.39694 0.0
C1786 C 0.27484 0.93445 0.42973 0.0
C1787 C 0.26 0.92371 0.43237 0.0
C1788 C 0.24977 0.92168 0.41701 0.0
C1789 C 0.25438 0.93062 0.39959 0.0
C1790 C 0.28602 0.93711 0.44595 0.0
C1791 C 0.2339 0.91016 0.41912 0.0
C1792 C 0.24997 0.89374 0.4715 0.0
C1793 C 0.24468 0.89837 0.48781 0.0
C1794 C 0.25502 0.90187 0.4533 0.0
C1795 C 0.25502 0.91507 0.45164 0.0
C1796 C 0.24996 0.91991 0.46828 0.0
C1797 C 0.24473 0.91144 0.48609 0.0
C1798 C 0.2601 0.89625 0.43574 0.0
C1799 C 0.25004 0.93404 0.46726 0.0
H1800 H 0.29054 0.95138 0.41001 0.0
H1801 H 0.24649 0.92916 0.38795 0.0
H1802 H 0.28314 0.94051 0.46052 0.0
H1803 H 0.28606 0.92697 0.44918 0.0
H1804 H 0.29718 0.94561 0.4413 0.0
H1805 H 0.22751 0.90937 0.40522 0.0
H1806 H 0.23284 0.89946 0.42193 0.0
H1807 H 0.22903 0.91261 0.43255 0.0
H1808 H 0.24987 0.8836 0.47285 0.0
H1809 H 0.24081 0.9151 0.49884 0.0
H1810 H 0.2715 0.90433 0.43155 0.0
H1811 H 0.25332 0.89458 0.42197 0.0
H1812 H 0.25951 0.88586 0.43955 0.0
H1813 H 0.26119 0.94307 0.46375 0.0
H1814 H 0.24629 0.93653 0.48186 0.0
H1815 H 0.24285 0.93361 0.45466 0.0
C1816 C 0.05771 0.33149 0.40316 0.0
C1817 C 0.05397 0.32012 0.38919 0.0
C1818 C 0.0652 0.33251 0.42139 0.0
C1819 C 0.06901 0.32191 0.42577 0.0
C1820 C 0.06544 0.31053 0.41163 0.0
C1821 C 0.05799 0.30978 0.39353 0.0
C1822 C 0.06887 0.34483 0.43609 0.0
C1823 C 0.06929 0.29901 0.41577 0.0
C1824 C 0.09846 0.32982 0.46501 0.0
C1825 C 0.09016 0.32254 0.48244 0.0
C1826 C 0.09174 0.32986 0.44652 0.0
C1827 C 0.07635 0.32242 0.44542 0.0
C1828 C 0.06791 0.31512 0.46297 0.0
C1829 C 0.07491 0.31529 0.48126 0.0
C1830 C 0.10109 0.33775 0.42811 0.0
C1831 C 0.05147 0.30708 0.46241 0.0
H1832 H 0.05469 0.33955 0.39995 0.0
H1833 H 0.05518 0.30096 0.38287 0.0
H1834 H 0.06333 0.34048 0.45106 0.0
H1835 H 0.08076 0.35096 0.43908 0.0
H1836 H 0.06557 0.35245 0.43012 0.0
H1837 H 0.06609 0.29109 0.40295 0.0
H1838 H 0.08119 0.30408 0.41825 0.0
H1839 H 0.06377 0.29304 0.43003 0.0
H1840 H 0.11024 0.33533 0.46575 0.0
H1841 H 0.06842 0.30987 0.49476 0.0
H1842 H 0.09839 0.34587 0.42249 0.0
H1843 H 0.09884 0.32998 0.41537 0.0
H1844 H 0.11291 0.34336 0.43166 0.0
H1845 H 0.04762 0.31457 0.45799 0.0
H1846 H 0.0465 0.30209 0.47747 0.0
H1847 H 0.04746 0.2984 0.45061 0.0
C1848 C 0.043 0.31326 0.26884 0.0
C1849 C 0.05026 0.32572 0.2811 0.0
C1850 C 0.04982 0.31135 0.25158 0.0
C1851 C 0.06421 0.3222 0.24644 0.0
C1852 C 0.07158 0.33482 0.25872 0.0
C1853 C 0.06452 0.33641 0.27594 0.0
C1854 C 0.04163 0.29774 0.23886 0.0
C1855 C 0.08691 0.34665 0.25363 0.0
C1856 C 0.08734 0.31296 0.21207 0.0
C1857 C 0.08624 0.3185 0.19309 0.0
C1858 C 0.08003 0.31388 0.22954 0.0
C1859 C 0.07147 0.32051 0.22794 0.0
C1860 C 0.07009 0.32585 0.20873 0.0
C1861 C 0.07745 0.32474 0.19154 0.0
C1862 C 0.08171 0.30802 0.24978 0.0
C1863 C 0.061 0.33293 0.2064 0.0
H1864 H 0.03199 0.30492 0.27278 0.0
H1865 H 0.07018 0.34607 0.28536 0.0
H1866 H 0.04055 0.30058 0.22283 0.0
H1867 H 0.0478 0.29195 0.23821 0.0
H1868 H 0.03058 0.29026 0.24511 0.0
H1869 H 0.09117 0.35572 0.26485 0.0
H1870 H 0.0943 0.34218 0.25336 0.0
H1871 H 0.08722 0.35102 0.23807 0.0
H1872 H 0.0942 0.30823 0.2134 0.0
H1873 H 0.07636 0.32881 0.17682 0.0
H1874 H 0.07085 0.3001 0.25614 0.0
H1875 H 0.08707 0.31698 0.26109 0.0
H1876 H 0.08828 0.30266 0.24826 0.0
H1877 H 0.04965 0.3254 0.21146 0.0
H1878 H 0.06081 0.33625 0.19028 0.0
H1879 H 0.06538 0.34267 0.21637 0.0
C1880 C 0.65535 0.73166 0.29836 0.0
C1881 C 0.66313 0.72482 0.30388 0.0
C1882 C 0.65954 0.74097 0.28134 0.0
C1883 C 0.67181 0.74352 0.26951 0.0
C1884 C 0.67983 0.73681 0.27509 0.0
C1885 C 0.67539 0.72754 0.2922 0.0
C1886 C 0.6507 0.74791 0.27585 0.0
C1887 C 0.69298 0.73929 0.26283 0.0
C1888 C 0.67327 0.75536 0.21419 0.0
C1889 C 0.68284 0.77037 0.21547 0.0
C1890 C 0.6697 0.7465 0.23162 0.0
C1891 C 0.67589 0.75279 0.25083 0.0
C1892 C 0.68566 0.76791 0.25223 0.0
C1893 C 0.68903 0.77653 0.23452 0.0
C1894 C 0.65927 0.73041 0.22947 0.0
C1895 C 0.69245 0.775 0.27248 0.0
H1896 H 0.6459 0.72969 0.30727 0.0
H1897 H 0.68151 0.72234 0.29636 0.0
H1898 H 0.65782 0.75986 0.27529 0.0
H1899 H 0.64592 0.74429 0.26033 0.0
H1900 H 0.64173 0.74517 0.28701 0.0
H1901 H 0.69832 0.73365 0.26959 0.0
H1902 H 0.68971 0.73537 0.24685 0.0
H1903 H 0.70106 0.75105 0.26196 0.0
H1904 H 0.66866 0.75048 0.19944 0.0
H1905 H 0.69636 0.78813 0.23563 0.0
H1906 H 0.64958 0.72708 0.23941 0.0
H1907 H 0.66455 0.72433 0.2347 0.0
H1908 H 0.65556 0.72721 0.21338 0.0
H1909 H 0.6838 0.77328 0.28365 0.0
H1910 H 0.70012 0.78683 0.27088 0.0
H1911 H 0.6984 0.76994 0.27907 0.0
C1912 C 0.26028 0.95172 0.28146 0.0
C1913 C 0.27025 0.9481 0.28937 0.0
C1914 C 0.25111 0.94388 0.26503 0.0
C1915 C 0.25218 0.93237 0.25609 0.0
C1916 C 0.26239 0.92884 0.26385 0.0
C1917 C 0.2712 0.93666 0.28051 0.0
C1918 C 0.24018 0.94778 0.25739 0.0
C1919 C 0.26406 0.91682 0.2545 0.0
C1920 C 0.22166 0.90208 0.22546 0.0
C1921 C 0.22658 0.9063 0.20525 0.0
C1922 C 0.22951 0.91085 0.24218 0.0
C1923 C 0.24272 0.92399 0.23855 0.0
C1924 C 0.24747 0.92851 0.21812 0.0
C1925 C 0.23927 0.91965 0.2017 0.0
C1926 C 0.22394 0.90581 0.26374 0.0
C1927 C 0.26162 0.94231 0.21362 0.0
H1928 H 0.25944 0.9605 0.28838 0.0
H1929 H 0.27895 0.93388 0.28652 0.0
H1930 H 0.24218 0.9508 0.2409 0.0
H1931 H 0.22901 0.93825 0.25866 0.0
H1932 H 0.24062 0.95692 0.26614 0.0
H1933 H 0.27278 0.9157 0.26199 0.0
H1934 H 0.25366 0.90637 0.25586 0.0
H1935 H 0.26664 0.91891 0.23786 0.0
H1936 H 0.21179 0.89179 0.22819 0.0
H1937 H 0.24318 0.92284 0.18607 0.0
H1938 H 0.22385 0.91462 0.27263 0.0
H1939 H 0.23133 0.90299 0.27179 0.0
H1940 H 0.21279 0.89616 0.26386 0.0
H1941 H 0.26196 0.95159 0.22178 0.0
H1942 H 0.26324 0.9448 0.19691 0.0
H1943 H 0.27086 0.94131 0.21933 0.0
C1944 C 0.66929 0.94504 0.27554 0.0
C1945 C 0.66172 0.93554 0.29179 0.0
C1946 C 0.67307 0.94017 0.25779 0.0
C1947 C 0.66944 0.92552 0.25644 0.0
C1948 C 0.66186 0.91589 0.27283 0.0
C1949 C 0.65797 0.92098 0.29023 0.0
C1950 C 0.6809 0.95069 0.24046 0.0
C1951 C 0.65802 0.90024 0.27208 0.0
C1952 C 0.66768 0.90925 0.20381 0.0
C1953 C 0.6814 0.91048 0.2024 0.0
C1954 C 0.66368 0.91418 0.22127 0.0
C1955 C 0.67355 0.92025 0.23784 0.0
C1956 C 0.68736 0.92136 0.23658 0.0
C1957 C 0.69118 0.91659 0.21876 0.0
C1958 C 0.64896 0.91306 0.22187 0.0
C1959 C 0.69808 0.92754 0.25408 0.0
H1960 H 0.67215 0.95628 0.27661 0.0
H1961 H 0.65222 0.91361 0.3028 0.0
H1962 H 0.69166 0.95169 0.23771 0.0
H1963 H 0.67457 0.94658 0.22604 0.0
H1964 H 0.68261 0.96164 0.24371 0.0
H1965 H 0.65231 0.89422 0.28624 0.0
H1966 H 0.65094 0.89474 0.25867 0.0
H1967 H 0.66806 0.89965 0.27006 0.0
H1968 H 0.66018 0.90467 0.19104 0.0
H1969 H 0.70176 0.91746 0.21768 0.0
H1970 H 0.65036 0.92398 0.224 0.0
H1971 H 0.64254 0.90636 0.23516 0.0
H1972 H 0.64263 0.90821 0.20761 0.0
H1973 H 0.70103 0.93892 0.25703 0.0
H1974 H 0.70821 0.9273 0.25088 0.0
H1975 H 0.69302 0.92133 0.26837 0.0
C1976 C 0.04487 0.73722 0.27465 0.0
C1977 C 0.04951 0.72796 0.28214 0.0
C1978 C 0.05093 0.74531 0.25665 0.0
C1979 C 0.06164 0.74386 0.24568 0.0
C1980 C 0.06626 0.73442 0.25308 0.0
C1981 C 0.06024 0.7267 0.27137 0.0
C1982 C 0.04593 0.75548 0.24945 0.0
C1983 C 0.07745 0.73238 0.24157 0.0
C1984 C 0.06689 0.7542 0.18919 0.0
C1985 C 0.07978 0.76769 0.1896 0.0
C1986 C 0.06093 0.74626 0.20732 0.0
C1987 C 0.0679 0.75212 0.22633 0.0
C1988 C 0.08084 0.76584 0.22683 0.0
C1989 C 0.08672 0.7734 0.20839 0.0
C1990 C 0.04728 0.73155 0.20612 0.0
C1991 C 0.08841 0.77255 0.24685 0.0
H1992 H 0.03665 0.73831 0.28303 0.0
H1993 H 0.06379 0.7195 0.27709 0.0
H1994 H 0.05541 0.76664 0.24808 0.0
H1995 H 0.04099 0.75219 0.23397 0.0
H1996 H 0.03783 0.75567 0.26008 0.0
H1997 H 0.07969 0.72446 0.24922 0.0
H1998 H 0.07361 0.72856 0.2257 0.0
H1999 H 0.0878 0.74288 0.24027 0.0
H2000 H 0.06163 0.74974 0.17459 0.0
H2001 H 0.09666 0.78388 0.20865 0.0
H2002 H 0.03848 0.73146 0.21544 0.0
H2003 H 0.04936 0.72321 0.21264 0.0
H2004 H 0.04336 0.72844 0.19008 0.0
H2005 H 0.08078 0.77353 0.25751 0.0
H2006 H 0.09818 0.78346 0.24463 0.0
H2007 H 0.09183 0.76548 0.2544 0.0
C2008 C 0.27399 0.34961 0.30606 0.0
C2009 C 0.28602 0.34771 0.30414 0.0
C2010 C 0.26612 0.34939 0.28871 0.0
C2011 C 0.27075 0.34779 0.26893 0.0
C2012 C 0.28289 0.34581 0.26694 0.0
C2013 C 0.29024 0.34554 0.28465 0.0
C2014 C 0.25293 0.35101 0.29154 0.0
C2015 C 0.28842 0.3445 0.24608 0.0
C2016 C 0.24512 0.3373 0.22337 0.0
C2017 C 0.24917 0.35088 0.21481 0.0
C2018 C 0.25185 0.33613 0.24118 0.0
C2019 C 0.26326 0.3488 0.25031 0.0
C2020 C 0.26749 0.36251 0.24176 0.0
C2021 C 0.26022 0.3634 0.2244 0.0
C2022 C 0.24675 0.32133 0.25022 0.0
C2023 C 0.2798 0.37627 0.25082 0.0
H2024 H 0.27065 0.35114 0.32119 0.0
H2025 H 0.29962 0.34417 0.2832 0.0
H2026 H 0.25498 0.36131 0.28454 0.0
H2027 H 0.2434 0.34208 0.28357 0.0
H2028 H 0.25009 0.35098 0.30801 0.0
H2029 H 0.29791 0.34288 0.24719 0.0
H2030 H 0.27965 0.33529 0.23744 0.0
H2031 H 0.2917 0.35446 0.23699 0.0
H2032 H 0.23683 0.32749 0.21601 0.0
H2033 H 0.26325 0.37399 0.21839 0.0
H2034 H 0.24378 0.32114 0.26665 0.0
H2035 H 0.25569 0.31888 0.2496 0.0
H2036 H 0.2372 0.31263 0.24196 0.0
H2037 H 0.277 0.37776 0.26674 0.0
H2038 H 0.28227 0.38601 0.24169 0.0
H2039 H 0.2898 0.37551 0.25167 0.0
C2040 C 0.26941 0.33543 0.40083 0.0
C2041 C 0.28301 0.3371 0.40544 0.0
C2042 C 0.261 0.33703 0.41617 0.0
C2043 C 0.26612 0.33984 0.43668 0.0
C2044 C 0.27967 0.34108 0.44147 0.0
C2045 C 0.28809 0.33997 0.42569 0.0
C2046 C 0.24687 0.33615 0.41034 0.0
C2047 C 0.28529 0.3436 0.46326 0.0
C2048 C 0.25325 0.3575 0.47554 0.0
C2049 C 0.24269 0.34549 0.48669 0.0
C2050 C 0.26047 0.35575 0.45864 0.0
C2051 C 0.25747 0.34171 0.45314 0.0
C2052 C 0.24666 0.32952 0.46398 0.0
C2053 C 0.2392 0.33154 0.48031 0.0
C2054 C 0.27162 0.36899 0.44702 0.0
C2055 C 0.24335 0.31438 0.45884 0.0
H2056 H 0.26559 0.3334 0.38508 0.0
H2057 H 0.2986 0.3412 0.4292 0.0
H2058 H 0.23771 0.32752 0.4193 0.0
H2059 H 0.24741 0.34652 0.41417 0.0
H2060 H 0.24444 0.33391 0.3937 0.0
H2061 H 0.29557 0.34339 0.46457 0.0
H2062 H 0.28728 0.35425 0.46882 0.0
H2063 H 0.277 0.3352 0.47359 0.0
H2064 H 0.25626 0.36835 0.48034 0.0
H2065 H 0.23079 0.32212 0.4883 0.0
H2066 H 0.26958 0.3674 0.43024 0.0
H2067 H 0.28267 0.37074 0.44977 0.0
H2068 H 0.27153 0.37893 0.45176 0.0
H2069 H 0.24013 0.31186 0.44249 0.0
H2070 H 0.2345 0.30603 0.46861 0.0
H2071 H 0.25328 0.31364 0.46097 0.0
C2072 C 0.67793 0.93938 0.40099 0.0
C2073 C 0.66654 0.94229 0.39925 0.0
C2074 C 0.67933 0.93262 0.41855 0.0
C2075 C 0.66912 0.92872 0.43481 0.0
C2076 C 0.6575 0.93148 0.43306 0.0
C2077 C 0.65633 0.93821 0.41527 0.0
C2078 C 0.69185 0.92983 0.41983 0.0
C2079 C 0.64643 0.92751 0.45011 0.0
C2080 C 0.6668 0.90117 0.47366 0.0
C2081 C 0.67562 0.91018 0.48955 0.0
C2082 C 0.66442 0.90703 0.45583 0.0
C2083 C 0.67095 0.92225 0.45394 0.0
C2084 C 0.67963 0.93137 0.47011 0.0
C2085 C 0.68186 0.92523 0.4877 0.0
C2086 C 0.65516 0.89698 0.43885 0.0
C2087 C 0.68668 0.94765 0.46874 0.0
H2088 H 0.68584 0.94246 0.38864 0.0
H2089 H 0.64749 0.94041 0.41402 0.0
H2090 H 0.69899 0.93595 0.43293 0.0
H2091 H 0.68768 0.91816 0.42273 0.0
H2092 H 0.69855 0.93304 0.40556 0.0
H2093 H 0.63779 0.92998 0.4461 0.0
H2094 H 0.64123 0.9158 0.45369 0.0
H2095 H 0.65193 0.93354 0.46431 0.0
H2096 H 0.66204 0.88954 0.47497 0.0
H2097 H 0.68849 0.93222 0.50009 0.0
H2098 H 0.66181 0.89919 0.42468 0.0
H2099 H 0.64613 0.89892 0.43516 0.0
H2100 H 0.65045 0.88539 0.44301 0.0
H2101 H 0.69436 0.95175 0.45552 0.0
H2102 H 0.69275 0.95318 0.48292 0.0
H2103 H 0.67829 0.95067 0.46599 0.0
C2104 C 0.07344 0.75131 0.39058 0.0
C2105 C 0.06275 0.73659 0.38953 0.0
C2106 C 0.08308 0.7568 0.40726 0.0
C2107 C 0.08176 0.7474 0.42345 0.0
C2108 C 0.07096 0.73254 0.42249 0.0
C2109 C 0.06169 0.72728 0.40544 0.0
C2110 C 0.09466 0.77265 0.40757 0.0
C2111 C 0.06903 0.72222 0.43965 0.0
C2112 C 0.11278 0.75699 0.46058 0.0
C2113 C 0.1086 0.7622 0.4775 0.0
C2114 C 0.10441 0.75259 0.44257 0.0
C2115 C 0.0914 0.75312 0.44172 0.0
C2116 C 0.08724 0.75854 0.45871 0.0
C2117 C 0.09598 0.76314 0.47634 0.0
C2118 C 0.10933 0.74714 0.4246 0.0
C2119 C 0.07331 0.75902 0.45855 0.0
H2120 H 0.07439 0.75852 0.37824 0.0
H2121 H 0.05339 0.71591 0.40477 0.0
H2122 H 0.09293 0.77804 0.42099 0.0
H2123 H 0.10557 0.77384 0.40931 0.0
H2124 H 0.09464 0.77838 0.39337 0.0
H2125 H 0.06006 0.711 0.43657 0.0
H2126 H 0.07925 0.72204 0.44188 0.0
H2127 H 0.06665 0.72599 0.45429 0.0
H2128 H 0.12259 0.75633 0.46149 0.0
H2129 H 0.09266 0.76701 0.48954 0.0
H2130 H 0.1098 0.75309 0.41041 0.0
H2131 H 0.10136 0.73552 0.42189 0.0
H2132 H 0.12021 0.74838 0.42719 0.0
H2133 H 0.07322 0.76538 0.44519 0.0
H2134 H 0.07184 0.76388 0.47282 0.0
H2135 H 0.06385 0.74788 0.4569 0.0
C2136 C 0.32391 0.05476 0.74694 0.0
C2137 C 0.33688 0.05741 0.73746 0.0
C2138 C 0.32412 0.06321 0.76364 0.0
C2139 C 0.33764 0.07432 0.77128 0.0
C2140 C 0.35077 0.077 0.76178 0.0
C2141 C 0.35023 0.06861 0.74482 0.0
C2142 C 0.30988 0.06023 0.77311 0.0
C2143 C 0.36541 0.08856 0.76976 0.0
C2144 C 0.33958 0.10444 0.80467 0.0
C2145 C 0.33985 0.09941 0.82442 0.0
C2146 C 0.33853 0.09623 0.7872 0.0
C2147 C 0.3381 0.08287 0.78961 0.0
C2148 C 0.33839 0.07778 0.80956 0.0
C2149 C 0.33912 0.08606 0.82674 0.0
C2150 C 0.33793 0.10185 0.76618 0.0
C2151 C 0.33823 0.06373 0.81275 0.0
H2152 H 0.31357 0.04619 0.74116 0.0
H2153 H 0.36028 0.07063 0.73757 0.0
H2154 H 0.30924 0.05678 0.78934 0.0
H2155 H 0.30927 0.07027 0.77321 0.0
H2156 H 0.3003 0.05166 0.76474 0.0
H2157 H 0.3746 0.08926 0.76064 0.0
H2158 H 0.36616 0.09927 0.76944 0.0
H2159 H 0.36666 0.08626 0.78602 0.0
H2160 H 0.34007 0.11475 0.80294 0.0
H2161 H 0.3395 0.08227 0.84204 0.0
H2162 H 0.32809 0.09364 0.75788 0.0
H2163 H 0.34754 0.10377 0.75693 0.0
H2164 H 0.33773 0.11211 0.76701 0.0
H2165 H 0.3283 0.05462 0.80584 0.0
H2166 H 0.33855 0.06134 0.82928 0.0
H2167 H 0.34775 0.06423 0.80487 0.0
C2168 C 0.9231 0.2642 0.72596 0.0
C2169 C 0.93629 0.27741 0.72628 0.0
C2170 C 0.91817 0.25524 0.74338 0.0
C2171 C 0.92636 0.25991 0.76176 0.0
C2172 C 0.93972 0.27326 0.76213 0.0
C2173 C 0.94465 0.28174 0.74424 0.0
C2174 C 0.90415 0.24084 0.74218 0.0
C2175 C 0.94853 0.27884 0.78159 0.0
C2176 C 0.90586 0.24509 0.81199 0.0
C2177 C 0.91056 0.23557 0.8182 0.0
C2178 C 0.911 0.25313 0.79377 0.0
C2179 C 0.92063 0.25119 0.78089 0.0
C2180 C 0.92497 0.24119 0.78653 0.0
C2181 C 0.9201 0.23369 0.80526 0.0
C2182 C 0.90634 0.26391 0.78852 0.0
C2183 C 0.93489 0.23851 0.77287 0.0
H2184 H 0.91671 0.2608 0.71197 0.0
H2185 H 0.95481 0.29202 0.7445 0.0
H2186 H 0.90592 0.23204 0.74762 0.0
H2187 H 0.89582 0.24093 0.75239 0.0
H2188 H 0.89975 0.23826 0.7263 0.0
H2189 H 0.95871 0.28941 0.77926 0.0
H2190 H 0.94192 0.28018 0.79371 0.0
H2191 H 0.95143 0.27091 0.7874 0.0
H2192 H 0.89816 0.24637 0.82141 0.0
H2193 H 0.92402 0.22657 0.80987 0.0
H2194 H 0.90042 0.26097 0.7737 0.0
H2195 H 0.91607 0.27486 0.78663 0.0
H2196 H 0.89917 0.26447 0.80053 0.0
H2197 H 0.93049 0.23591 0.75701 0.0
H2198 H 0.93624 0.2295 0.77859 0.0
H2199 H 0.94578 0.24845 0.77196 0.0
C2200 C 0.73612 0.65841 0.72503 0.0
C2201 C 0.72608 0.66318 0.72357 0.0
C2202 C 0.74496 0.66153 0.74244 0.0
C2203 C 0.74354 0.66939 0.75893 0.0
C2204 C 0.73335 0.67414 0.75763 0.0
C2205 C 0.72483 0.67109 0.73988 0.0
C2206 C 0.75588 0.6565 0.74313 0.0
C2207 C 0.73136 0.68236 0.77505 0.0
C2208 C 0.75623 0.66595 0.81194 0.0
C2209 C 0.76936 0.67915 0.81375 0.0
C2210 C 0.74775 0.6626 0.79412 0.0
C2211 C 0.75265 0.6726 0.77762 0.0
C2212 C 0.76609 0.68579 0.77918 0.0
C2213 C 0.77423 0.68896 0.79732 0.0
C2214 C 0.73338 0.64852 0.79317 0.0
C2215 C 0.7718 0.6966 0.76176 0.0
H2216 H 0.73723 0.65238 0.71242 0.0
H2217 H 0.71704 0.67474 0.73891 0.0
H2218 H 0.767 0.66592 0.74542 0.0
H2219 H 0.75348 0.64911 0.75638 0.0
H2220 H 0.75584 0.65076 0.72885 0.0
H2221 H 0.72281 0.68508 0.77175 0.0
H2222 H 0.72836 0.67582 0.78935 0.0
H2223 H 0.74175 0.69255 0.77803 0.0
H2224 H 0.75238 0.65844 0.82476 0.0
H2225 H 0.78443 0.69913 0.7987 0.0
H2226 H 0.73318 0.64211 0.77962 0.0
H2227 H 0.72438 0.6508 0.79127 0.0
H2228 H 0.73124 0.64184 0.80721 0.0
H2229 H 0.77242 0.6913 0.74741 0.0
H2230 H 0.78276 0.70603 0.76505 0.0
H2231 H 0.7642 0.70062 0.75889 0.0
C2232 C 0.7156 0.65792 0.60042 0.0
C2233 C 0.72298 0.66644 0.61753 0.0
C2234 C 0.72326 0.65678 0.58362 0.0
C2235 C 0.73866 0.66409 0.58414 0.0
C2236 C 0.74619 0.67282 0.6013 0.0
C2237 C 0.73825 0.67401 0.61773 0.0
C2238 C 0.71484 0.6476 0.56542 0.0
C2239 C 0.7626 0.68056 0.60253 0.0
C2240 C 0.75497 0.64744 0.54942 0.0
C2241 C 0.75922 0.65663 0.53232 0.0
C2242 C 0.74891 0.65017 0.56685 0.0
C2243 C 0.74677 0.66218 0.56692 0.0
C2244 C 0.75142 0.67172 0.54988 0.0
C2245 C 0.75773 0.6689 0.53282 0.0
C2246 C 0.74436 0.63991 0.58489 0.0
C2247 C 0.74908 0.68449 0.54924 0.0
H2248 H 0.70379 0.65213 0.60017 0.0
H2249 H 0.74398 0.68054 0.631 0.0
H2250 H 0.71877 0.65405 0.55105 0.0
H2251 H 0.71668 0.63833 0.56378 0.0
H2252 H 0.70295 0.64329 0.56694 0.0
H2253 H 0.76682 0.68723 0.61668 0.0
H2254 H 0.76625 0.67252 0.6023 0.0
H2255 H 0.76754 0.68769 0.58896 0.0
H2256 H 0.75623 0.63801 0.54901 0.0
H2257 H 0.7609 0.67591 0.51947 0.0
H2258 H 0.73232 0.6339 0.58638 0.0
H2259 H 0.74885 0.64605 0.59938 0.0
H2260 H 0.74804 0.63193 0.58321 0.0
H2261 H 0.73723 0.68055 0.54901 0.0
H2262 H 0.75421 0.69141 0.53549 0.0
H2263 H 0.75359 0.69125 0.56323 0.0
C2264 C 0.33234 0.07279 0.63269 0.0
C2265 C 0.33582 0.0618 0.63331 0.0
C2266 C 0.3361 0.08203 0.61566 0.0
C2267 C 0.34324 0.08004 0.59864 0.0
C2268 C 0.34688 0.06903 0.59921 0.0
C2269 C 0.34326 0.06012 0.61666 0.0
C2270 C 0.33227 0.09383 0.61581 0.0
C2271 C 0.35426 0.06642 0.58118 0.0
C2272 C 0.33827 0.09373 0.54734 0.0
C2273 C 0.35165 0.1066 0.54489 0.0
C2274 C 0.33551 0.08487 0.56457 0.0
C2275 C 0.34631 0.08912 0.57992 0.0
C2276 C 0.35982 0.10216 0.57759 0.0
C2277 C 0.3624 0.11069 0.55995 0.0
C2278 C 0.32106 0.07092 0.56632 0.0
C2279 C 0.37148 0.10719 0.59382 0.0
H2280 H 0.32673 0.07425 0.64561 0.0
H2281 H 0.34593 0.05161 0.61704 0.0
H2282 H 0.34213 0.10448 0.61262 0.0
H2283 H 0.32431 0.09181 0.60347 0.0
H2284 H 0.32751 0.09449 0.63073 0.0
H2285 H 0.35665 0.05763 0.58423 0.0
H2286 H 0.3472 0.06347 0.56742 0.0
H2287 H 0.36462 0.07647 0.57741 0.0
H2288 H 0.33005 0.09047 0.53551 0.0
H2289 H 0.37273 0.12066 0.55803 0.0
H2290 H 0.31511 0.07122 0.58019 0.0
H2291 H 0.32287 0.06164 0.56814 0.0
H2292 H 0.31407 0.06892 0.55266 0.0
H2293 H 0.36719 0.10858 0.60871 0.0
H2294 H 0.38138 0.1176 0.58968 0.0
H2295 H 0.37463 0.09888 0.59618 0.0
C2296 C 0.93347 0.29338 0.6071 0.0
C2297 C 0.93907 0.28637 0.61888 0.0
C2298 C 0.9246 0.28655 0.59001 0.0
C2299 C 0.92124 0.27237 0.58461 0.0
C2300 C 0.92679 0.26521 0.5965 0.0
C2301 C 0.93566 0.27231 0.61349 0.0
C2302 C 0.91892 0.29454 0.57764 0.0
C2303 C 0.92345 0.2501 0.59119 0.0
C2304 C 0.88883 0.24938 0.55008 0.0
C2305 C 0.8957 0.2508 0.53106 0.0
C2306 C 0.89699 0.25646 0.56765 0.0
C2307 C 0.91234 0.2652 0.56608 0.0
C2308 C 0.91928 0.26691 0.54682 0.0
C2309 C 0.91087 0.25969 0.52956 0.0
C2310 C 0.88923 0.25438 0.58796 0.0
C2311 C 0.93561 0.27623 0.54448 0.0
H2312 H 0.93604 0.30424 0.6112 0.0
H2313 H 0.93993 0.26683 0.62255 0.0
H2314 H 0.923 0.29595 0.56158 0.0
H2315 H 0.90685 0.28812 0.577 0.0
H2316 H 0.92226 0.30538 0.58415 0.0
H2317 H 0.92828 0.24589 0.60233 0.0
H2318 H 0.91149 0.24259 0.59084 0.0
H2319 H 0.92772 0.25002 0.57562 0.0
H2320 H 0.87711 0.24244 0.55132 0.0
H2321 H 0.9162 0.26102 0.51481 0.0
H2322 H 0.89193 0.26503 0.5945 0.0
H2323 H 0.89298 0.24915 0.59912 0.0
H2324 H 0.87722 0.24758 0.58647 0.0
H2325 H 0.93929 0.28743 0.54977 0.0
H2326 H 0.93926 0.27669 0.52833 0.0
H2327 H 0.94106 0.27194 0.55427 0.0
C2328 C 0.31847 0.2563 0.62063 0.0
C2329 C 0.32622 0.27084 0.6269 0.0
C2330 C 0.32256 0.25164 0.60297 0.0
C2331 C 0.33468 0.26178 0.59121 0.0
C2332 C 0.34263 0.27646 0.59749 0.0
C2333 C 0.33832 0.28081 0.61528 0.0
C2334 C 0.31383 0.23589 0.59679 0.0
C2335 C 0.35559 0.28758 0.5853 0.0
C2336 C 0.35187 0.24689 0.55454 0.0
C2337 C 0.34532 0.24678 0.53584 0.0
C2338 C 0.34868 0.25194 0.57266 0.0
C2339 C 0.33875 0.25704 0.57202 0.0
C2340 C 0.33231 0.2572 0.55312 0.0
C2341 C 0.33567 0.25207 0.53528 0.0
C2342 C 0.35572 0.25157 0.59255 0.0
C2343 C 0.32174 0.26264 0.55178 0.0
H2344 H 0.30914 0.24849 0.62952 0.0
H2345 H 0.3444 0.29207 0.61999 0.0
H2346 H 0.30897 0.23491 0.58141 0.0
H2347 H 0.32106 0.23126 0.59561 0.0
H2348 H 0.30494 0.22931 0.6079 0.0
H2349 H 0.3608 0.29849 0.59248 0.0
H2350 H 0.36383 0.28421 0.58384 0.0
H2351 H 0.35215 0.28835 0.5695 0.0
H2352 H 0.35925 0.24272 0.55509 0.0
H2353 H 0.33076 0.25224 0.5208 0.0
H2354 H 0.34723 0.24424 0.60365 0.0
H2355 H 0.3615 0.26251 0.5996 0.0
H2356 H 0.3636 0.24777 0.59032 0.0
H2357 H 0.31206 0.25588 0.56156 0.0
H2358 H 0.31802 0.26244 0.53579 0.0
H2359 H 0.32689 0.2739 0.55768 0.0
C2360 C 0.71815 0.06812 0.61032 0.0
C2361 C 0.72143 0.05878 0.62098 0.0
C2362 C 0.72628 0.07574 0.59294 0.0
C2363 C 0.7377 0.07369 0.58587 0.0
C2364 C 0.741 0.06422 0.59655 0.0
C2365 C 0.73292 0.057 0.61413 0.0
C2366 C 0.72265 0.08599 0.58217 0.0
C2367 C 0.7529 0.06152 0.58922 0.0
C2368 C 0.74929 0.08143 0.52992 0.0
C2369 C 0.76258 0.09448 0.53141 0.0
C2370 C 0.74101 0.0746 0.54753 0.0
C2371 C 0.74603 0.08117 0.56701 0.0
C2372 C 0.75927 0.09456 0.56851 0.0
C2373 C 0.7675 0.10099 0.55067 0.0
C2374 C 0.7271 0.06018 0.54536 0.0
C2375 C 0.76481 0.10202 0.58897 0.0
H2376 H 0.70933 0.0696 0.6157 0.0
H2377 H 0.73542 0.04972 0.62228 0.0
H2378 H 0.73248 0.09695 0.58127 0.0
H2379 H 0.71917 0.08227 0.56617 0.0
H2380 H 0.71385 0.08682 0.59013 0.0
H2381 H 0.75401 0.05373 0.59919 0.0
H2382 H 0.75059 0.05719 0.5733 0.0
H2383 H 0.76349 0.07184 0.58885 0.0
H2384 H 0.7456 0.07634 0.51501 0.0
H2385 H 0.77775 0.11114 0.55173 0.0
H2386 H 0.71781 0.0608 0.55199 0.0
H2387 H 0.72798 0.05178 0.55408 0.0
H2388 H 0.72461 0.05666 0.52907 0.0
H2389 H 0.75631 0.10342 0.59678 0.0
H2390 H 0.77483 0.11281 0.58733 0.0
H2391 H 0.76725 0.09521 0.59911 0.0
C2392 C 0.93483 0.6745 0.61784 0.0
C2393 C 0.93772 0.66531 0.62964 0.0
C2394 C 0.92561 0.66926 0.60071 0.0
C2395 C 0.91892 0.65441 0.59543 0.0
C2396 C 0.92161 0.64502 0.60745 0.0
C2397 C 0.93108 0.6506 0.62432 0.0
C2398 C 0.92319 0.67967 0.5881 0.0
C2399 C 0.9145 0.62908 0.60247 0.0
C2400 C 0.88591 0.64063 0.56073 0.0
C2401 C 0.892 0.64111 0.54138 0.0
C2402 C 0.8944 0.64433 0.57862 0.0
C2403 C 0.90939 0.64887 0.57701 0.0
C2404 C 0.91549 0.649 0.55755 0.0
C2405 C 0.90669 0.64503 0.53999 0.0
C2406 C 0.88745 0.6438 0.59914 0.0
C2407 C 0.93146 0.65397 0.55515 0.0
H2408 H 0.93996 0.68589 0.62177 0.0
H2409 H 0.93318 0.64341 0.63345 0.0
H2410 H 0.92672 0.67978 0.57198 0.0
H2411 H 0.91143 0.67607 0.58776 0.0
H2412 H 0.92924 0.6909 0.59423 0.0
H2413 H 0.91732 0.62313 0.61375 0.0
H2414 H 0.90249 0.62412 0.60221 0.0
H2415 H 0.91793 0.62763 0.58693 0.0
H2416 H 0.87453 0.63751 0.56183 0.0
H2417 H 0.91148 0.64561 0.52501 0.0
H2418 H 0.89207 0.65494 0.60533 0.0
H2419 H 0.88987 0.63754 0.61037 0.0
H2420 H 0.87544 0.63882 0.59799 0.0
H2421 H 0.93811 0.66555 0.55953 0.0
H2422 H 0.93433 0.65269 0.53913 0.0
H2423 H 0.9345 0.64776 0.56557 0.0
C2424 C 0.93817 0.66823 0.74856 0.0
C2425 C 0.95015 0.67933 0.73805 0.0
C2426 C 0.93227 0.67125 0.76592 0.0
C2427 C 0.93838 0.68573 0.77279 0.0
C2428 C 0.95041 0.69701 0.76216 0.0
C2429 C 0.95621 0.69366 0.74498 0.0
C2430 C 0.91953 0.65891 0.77698 0.0
C2431 C 0.95712 0.7126 0.76891 0.0
C2432 C 0.91409 0.69363 0.80678 0.0
C2433 C 0.91929 0.69338 0.82644 0.0
C2434 C 0.92047 0.69157 0.78912 0.0
C2435 C 0.93221 0.68902 0.79122 0.0
C2436 C 0.93768 0.68902 0.81102 0.0
C2437 C 0.93119 0.69127 0.82839 0.0
C2438 C 0.91448 0.69185 0.76825 0.0
C2439 C 0.95007 0.68618 0.81391 0.0
H2440 H 0.93347 0.65713 0.74332 0.0
H2441 H 0.96543 0.70229 0.73686 0.0
H2442 H 0.92242 0.65857 0.79325 0.0
H2443 H 0.9101 0.66062 0.77704 0.0
H2444 H 0.91613 0.64824 0.76978 0.0
H2445 H 0.96628 0.72012 0.75878 0.0
H2446 H 0.94875 0.71585 0.76893 0.0
H2447 H 0.96121 0.71384 0.78487 0.0
H2448 H 0.90497 0.69538 0.80524 0.0
H2449 H 0.93512 0.69088 0.84358 0.0
H2450 H 0.90979 0.68104 0.76091 0.0
H2451 H 0.92336 0.69972 0.75808 0.0
H2452 H 0.90588 0.6948 0.76919 0.0
H2453 H 0.94679 0.67514 0.80834 0.0
H2454 H 0.95341 0.6871 0.83026 0.0
H2455 H 0.95965 0.69394 0.80466 0.0
C2456 C 0.33123 0.26774 0.74069 0.0
C2457 C 0.32044 0.27099 0.73546 0.0
C2458 C 0.32964 0.25924 0.75798 0.0
C2459 C 0.31696 0.25386 0.77035 0.0
C2460 C 0.30594 0.25694 0.76501 0.0
C2461 C 0.30782 0.26548 0.74762 0.0
C2462 C 0.34164 0.25621 0.7632 0.0
C2463 C 0.29227 0.2514 0.77782 0.0
C2464 C 0.3082 0.22257 0.80647 0.0
C2465 C 0.31385 0.22986 0.82512 0.0
C2466 C 0.30897 0.23022 0.78853 0.0
C2467 C 0.31551 0.24549 0.78931 0.0
C2468 C 0.32101 0.25286 0.80817 0.0
C2469 C 0.3201 0.24496 0.82582 0.0
C2470 C 0.303 0.222 0.76868 0.0
C2471 C 0.32799 0.26912 0.80967 0.0
H2472 H 0.341 0.27194 0.73135 0.0
H2473 H 0.29942 0.26791 0.74365 0.0
H2474 H 0.34627 0.2609 0.77845 0.0
H2475 H 0.33719 0.24435 0.76424 0.0
H2476 H 0.35058 0.26078 0.75163 0.0
H2477 H 0.28452 0.25434 0.7712 0.0
H2478 H 0.28671 0.23944 0.77921 0.0
H2479 H 0.29513 0.25592 0.7936 0.0
H2480 H 0.30346 0.21092 0.80579 0.0
H2481 H 0.32425 0.25062 0.84027 0.0
H2482 H 0.31191 0.22556 0.7572 0.0
H2483 H 0.29484 0.22439 0.76219 0.0
H2484 H 0.29781 0.2101 0.7708 0.0
H2485 H 0.33767 0.27442 0.79941 0.0
H2486 H 0.33146 0.27316 0.82558 0.0
H2487 H 0.32026 0.27249 0.80443 0.0
C2488 C 0.72737 0.0796 0.73435 0.0
C2489 C 0.72244 0.06522 0.72852 0.0
C2490 C 0.73518 0.08534 0.75257 0.0
C2491 C 0.73823 0.07653 0.76531 0.0
C2492 C 0.73351 0.06208 0.75943 0.0
C2493 C 0.72563 0.05657 0.74111 0.0
C2494 C 0.73996 0.1008 0.75835 0.0
C2495 C 0.73665 0.0524 0.7726 0.0
C2496 C 0.76833 0.09738 0.80408 0.0
C2497 C 0.7603 0.09684 0.82157 0.0
C2498 C 0.76129 0.09023 0.78586 0.0
C2499 C 0.74587 0.08242 0.78515 0.0
C2500 C 0.73773 0.08133 0.80301 0.0
C2501 C 0.74504 0.08852 0.82101 0.0
C2502 C 0.77033 0.09157 0.76714 0.0
C2503 C 0.72128 0.07309 0.8029 0.0
H2504 H 0.72499 0.0864 0.72476 0.0
H2505 H 0.72193 0.04547 0.7367 0.0
H2506 H 0.73482 0.101 0.77316 0.0
H2507 H 0.75192 0.10709 0.76057 0.0
H2508 H 0.73701 0.10632 0.74651 0.0
H2509 H 0.73279 0.04164 0.76543 0.0
H2510 H 0.74853 0.05763 0.7754 0.0
H2511 H 0.73127 0.05078 0.78781 0.0
H2512 H 0.78011 0.10383 0.80437 0.0
H2513 H 0.73878 0.0878 0.83462 0.0
H2514 H 0.76898 0.09824 0.75533 0.0
H2515 H 0.76658 0.08075 0.76027 0.0
H2516 H 0.7821 0.09668 0.7708 0.0
H2517 H 0.71733 0.07854 0.79247 0.0
H2518 H 0.71659 0.07238 0.81845 0.0
H2519 H 0.71708 0.06196 0.79694 0.0
C2520 C 0.05181 0.36099 0.0215 0.0
C2521 C 0.0387 0.35415 0.03268 0.0
C2522 C 0.06289 0.35784 0.02537 0.0
C2523 C 0.06081 0.3477 0.04088 0.0
C2524 C 0.04747 0.34054 0.05186 0.0
C2525 C 0.03658 0.34381 0.04757 0.0
C2526 C 0.07692 0.36557 0.01324 0.0
C2527 C 0.04483 0.3297 0.06858 0.0
C2528 C 0.08328 0.32952 0.04648 0.0
C2529 C 0.09225 0.33722 0.06309 0.0
C2530 C 0.07358 0.33338 0.03811 0.0
C2531 C 0.07279 0.34514 0.0467 0.0
C2532 C 0.08244 0.35346 0.06265 0.0
C2533 C 0.09205 0.34941 0.07063 0.0
C2534 C 0.06361 0.32436 0.02092 0.0
C2535 C 0.0819 0.36603 0.07231 0.0
H2536 H 0.0535 0.36894 0.00989 0.0
H2537 H 0.02647 0.33844 0.05624 0.0
H2538 H 0.086 0.37274 0.02361 0.0
H2539 H 0.07956 0.35763 0.00654 0.0
H2540 H 0.07638 0.37226 0.00063 0.0
H2541 H 0.03367 0.3247 0.07517 0.0
H2542 H 0.04649 0.32096 0.06245 0.0
H2543 H 0.05279 0.33511 0.08118 0.0
H2544 H 0.0835 0.32018 0.04046 0.0
H2545 H 0.09878 0.3553 0.08366 0.0
H2546 H 0.06339 0.33142 0.00864 0.0
H2547 H 0.05233 0.31773 0.02694 0.0
H2548 H 0.06695 0.31697 0.01405 0.0
H2549 H 0.08213 0.37347 0.06029 0.0
H2550 H 0.0911 0.3723 0.08302 0.0
H2551 H 0.07155 0.36191 0.08102 0.0
C2552 C 0.63056 0.68901 0.04769 0.0
C2553 C 0.63815 0.68395 0.03591 0.0
C2554 C 0.63783 0.70283 0.05668 0.0
C2555 C 0.653 0.71191 0.05349 0.0
C2556 C 0.66066 0.70702 0.04117 0.0
C2557 C 0.65316 0.69304 0.03268 0.0
C2558 C 0.62934 0.70757 0.07001 0.0
C2559 C 0.6768 0.71648 0.03716 0.0
C2560 C 0.66913 0.752 0.06501 0.0
C2561 C 0.67515 0.75311 0.0845 0.0
C2562 C 0.66216 0.73871 0.05448 0.0
C2563 C 0.66096 0.72624 0.06389 0.0
C2564 C 0.66709 0.72734 0.08354 0.0
C2565 C 0.6742 0.74079 0.09354 0.0
C2566 C 0.65599 0.73799 0.03338 0.0
C2567 C 0.66584 0.71426 0.09424 0.0
H2568 H 0.61896 0.68202 0.05031 0.0
H2569 H 0.65907 0.68925 0.02345 0.0
H2570 H 0.63367 0.70961 0.08591 0.0
H2571 H 0.63063 0.71788 0.06418 0.0
H2572 H 0.61754 0.69935 0.07059 0.0
H2573 H 0.68095 0.71142 0.0262 0.0
H2574 H 0.67921 0.7271 0.03087 0.0
H2575 H 0.68285 0.71865 0.05181 0.0
H2576 H 0.66992 0.76155 0.05801 0.0
H2577 H 0.67868 0.7416 0.10875 0.0
H2578 H 0.644 0.73065 0.03367 0.0
H2579 H 0.66049 0.73341 0.02219 0.0
H2580 H 0.65842 0.74879 0.02782 0.0
H2581 H 0.65418 0.70597 0.0965 0.0
H2582 H 0.67129 0.71699 0.10946 0.0
H2583 H 0.67075 0.70928 0.08456 0.0
C2584 C 0.30855 0.95627 0.02881 0.0
C2585 C 0.31633 0.95056 0.01901 0.0
C2586 C 0.29535 0.94719 0.03903 0.0
C2587 C 0.28982 0.93207 0.03949 0.0
C2588 C 0.2973 0.92619 0.02893 0.0
C2589 C 0.31044 0.93549 0.01881 0.0
C2590 C 0.28762 0.95384 0.05003 0.0
C2591 C 0.29175 0.91011 0.02907 0.0
C2592 C 0.26676 0.91065 0.08514 0.0
C2593 C 0.25268 0.90361 0.07687 0.0
C2594 C 0.27889 0.92003 0.07316 0.0
C2595 C 0.27691 0.92251 0.05239 0.0
C2596 C 0.26272 0.91559 0.04396 0.0
C2597 C 0.25075 0.90621 0.05632 0.0
C2598 C 0.29385 0.92722 0.08274 0.0
C2599 C 0.26021 0.918 0.02187 0.0
H2600 H 0.31296 0.96788 0.02897 0.0
H2601 H 0.3163 0.93095 0.0112 0.0
H2602 H 0.27598 0.94825 0.04558 0.0
H2603 H 0.28801 0.95247 0.06688 0.0
H2604 H 0.29261 0.96558 0.04666 0.0
H2605 H 0.29822 0.90715 0.01882 0.0
H2606 H 0.29221 0.90659 0.04494 0.0
H2607 H 0.2802 0.90399 0.02417 0.0
H2608 H 0.26831 0.90895 0.10113 0.0
H2609 H 0.23991 0.90074 0.04981 0.0
H2610 H 0.29906 0.93917 0.08162 0.0
H2611 H 0.30088 0.92406 0.07424 0.0
H2612 H 0.29349 0.92425 0.09917 0.0
H2613 H 0.26484 0.92974 0.01895 0.0
H2614 H 0.24846 0.9122 0.01786 0.0
H2615 H 0.2659 0.91424 0.01146 0.0
C2616 C 0.36208 0.04542 0.00397 0.0
C2617 C 0.35205 0.03177 0.99593 0.0
C2618 C 0.36153 0.05781 -0.00151 0.0
C2619 C 0.3507 0.05649 0.98467 0.0
C2620 C 0.33998 0.04261 0.97762 0.0
C2621 C 0.34079 0.03042 0.98333 0.0
C2622 C 0.3731 0.07241 0.00644 0.0
C2623 C 0.3282 0.04073 0.96294 0.0
C2624 C 0.34452 0.08794 0.97409 0.0
C2625 C 0.35235 0.09345 0.95568 0.0
C2626 C 0.34414 0.07612 0.98408 0.0
C2627 C 0.3517 0.06966 0.97538 0.0
C2628 C 0.35983 0.07536 0.95703 0.0
C2629 C 0.36002 0.08713 0.94742 0.0
C2630 C 0.33541 0.07035 0.00366 0.0
C2631 C 0.36801 0.06876 0.94718 0.0
H2632 H 0.37077 0.04654 0.01382 0.0
H2633 H 0.33292 0.0199 0.97719 0.0
H2634 H 0.38075 0.07861 0.99376 0.0
H2635 H 0.36816 0.07878 0.01189 0.0
H2636 H 0.37943 0.07142 0.0192 0.0
H2637 H 0.31973 0.02916 0.96085 0.0
H2638 H 0.32288 0.04672 0.96851 0.0
H2639 H 0.33312 0.04528 0.94771 0.0
H2640 H 0.33864 0.09283 0.98063 0.0
H2641 H 0.36582 0.09108 0.93297 0.0
H2642 H 0.34228 0.06978 0.01595 0.0
H2643 H 0.32623 0.05917 0.00109 0.0
H2644 H 0.33092 0.07715 0.00914 0.0
H2645 H 0.37567 0.06844 0.95837 0.0
H2646 H 0.37429 0.07486 0.93337 0.0
H2647 H 0.36024 0.05743 0.94254 0.0
C2648 C 0.94743 0.31128 0.00997 0.0
C2649 C 0.96197 0.32055 0.00409 0.0
C2650 C 0.9393 0.2973 0.00161 0.0
C2651 C 0.94575 0.29263 0.98667 0.0
C2652 C 0.96048 0.30189 0.98086 0.0
C2653 C 0.96846 0.31567 0.98983 0.0
C2654 C 0.92372 0.28762 0.00851 0.0
C2655 C 0.96766 0.29743 0.96465 0.0
C2656 C 0.92852 0.25275 0.97251 0.0
C2657 C 0.92054 0.25197 0.95502 0.0
C2658 C 0.93654 0.26586 0.98332 0.0
C2659 C 0.93684 0.27848 0.97607 0.0
C2660 C 0.92884 0.2777 0.95833 0.0
C2661 C 0.92067 0.26442 0.94815 0.0
C2662 C 0.94469 0.26622 0.00243 0.0
C2663 C 0.92912 0.29095 0.94983 0.0
H2664 H 0.94241 0.31494 0.02115 0.0
H2665 H 0.97968 0.32282 0.98517 0.0
H2666 H 0.91625 0.28571 0.99551 0.0
H2667 H 0.92195 0.27692 0.01333 0.0
H2668 H 0.92071 0.29239 0.02148 0.0
H2669 H 0.97933 0.30569 0.96236 0.0
H2670 H 0.96684 0.28703 0.96894 0.0
H2671 H 0.96193 0.29568 0.94978 0.0
H2672 H 0.92838 0.24309 0.9778 0.0
H2673 H 0.91466 0.26384 0.93443 0.0
H2674 H 0.9413 0.27049 0.01557 0.0
H2675 H 0.95654 0.27364 0.0001 0.0
H2676 H 0.9428 0.25533 0.00655 0.0
H2677 H 0.92506 0.29561 0.96156 0.0
H2678 H 0.92238 0.28851 0.93578 0.0
H2679 H 0.94049 0.29938 0.94603 0.0
C2680 C 0.68506 0.66392 0.97417 0.0
C2681 C 0.67712 0.65178 0.98682 0.0
C2682 C 0.69898 0.66773 0.96692 0.0
C2683 C 0.70512 0.65918 0.97241 0.0
C2684 C 0.69729 0.64706 0.98549 0.0
C2685 C 0.68337 0.6435 0.99255 0.0
C2686 C 0.707 0.68075 0.95302 0.0
C2687 C 0.70348 0.6377 0.99165 0.0
C2688 C 0.73342 0.66077 0.93519 0.0
C2689 C 0.7465 0.67078 0.94478 0.0
C2690 C 0.71991 0.65656 0.94435 0.0
C2691 C 0.71942 0.66256 0.96355 0.0
C2692 C 0.73256 0.67238 0.97361 0.0
C2693 C 0.74596 0.67638 0.96409 0.0
C2694 C 0.70614 0.64609 0.93311 0.0
C2695 C 0.73245 0.67895 0.99413 0.0
H2696 H 0.68035 0.67041 0.96975 0.0
H2697 H 0.67731 0.63412 0.00236 0.0
H2698 H 0.71789 0.68839 0.95945 0.0
H2699 H 0.70876 0.67727 0.93771 0.0
H2700 H 0.70097 0.6866 0.95089 0.0
H2701 H 0.69635 0.62912 0.00277 0.0
H2702 H 0.70493 0.63246 0.97782 0.0
H2703 H 0.71438 0.64445 -0.00135 0.0
H2704 H 0.73371 0.65657 0.92011 0.0
H2705 H 0.75602 0.684 0.97167 0.0
H2706 H 0.70011 0.65162 0.92878 0.0
H2707 H 0.6989 0.63689 0.94327 0.0
H2708 H 0.7084 0.64173 0.91893 0.0
H2709 H 0.7275 0.68584 0.99244 0.0
H2710 H 0.74358 0.68568 0.00052 0.0
H2711 H 0.72569 0.67031 0.00535 0.0
C2712 C 0.92941 0.62776 0.01715 0.0
C2713 C 0.94179 0.62926 0.00715 0.0
C2714 C 0.92144 0.63365 0.00859 0.0
C2715 C 0.92571 0.64073 0.98929 0.0
C2716 C 0.93802 0.64194 0.97895 0.0
C2717 C 0.94604 0.63641 0.98817 0.0
C2718 C 0.90867 0.63257 0.02037 0.0
C2719 C 0.9427 0.64907 0.9581 0.0
C2720 C 0.89919 0.64548 0.95613 0.0
C2721 C 0.9047 0.66047 0.95769 0.0
C2722 C 0.90565 0.6388 0.96678 0.0
C2723 C 0.91758 0.64718 0.97992 0.0
C2724 C 0.92257 0.66208 0.98269 0.0
C2725 C 0.91626 0.66859 0.97131 0.0
C2726 C 0.90018 0.62292 0.96312 0.0
C2727 C 0.93503 0.67133 0.99698 0.0
H2728 H 0.92618 0.62231 0.0319 0.0
H2729 H 0.95554 0.63744 0.98033 0.0
H2730 H 0.91064 0.6436 0.02365 0.0
H2731 H 0.89864 0.62693 0.01099 0.0
H2732 H 0.90674 0.62668 0.03516 0.0
H2733 H 0.95201 0.64838 0.95161 0.0
H2734 H 0.93347 0.64387 0.94717 0.0
H2735 H 0.94594 0.66065 0.95927 0.0
H2736 H 0.89003 0.63896 0.94616 0.0
H2737 H 0.92086 0.68019 0.97255 0.0
H2738 H 0.89769 0.61703 0.97794 0.0
H2739 H 0.9088 0.6217 0.95536 0.0
H2740 H 0.89026 0.61772 0.95341 0.0
H2741 H 0.93339 0.66587 0.01205 0.0
H2742 H 0.93626 0.68215 -0.00041 0.0
H2743 H 0.94535 0.67291 0.99032 0.0
C2744 C 0.34139 0.31007 0.98184 0.0
C2745 C 0.35204 0.31687 0.99706 0.0
C2746 C 0.33671 0.29583 0.97565 0.0
C2747 C 0.34272 0.28813 0.98504 0.0
C2748 C 0.353 0.2947 0.00103 0.0
C2749 C 0.35761 0.30904 0.0068 0.0
C2750 C 0.32577 0.28924 0.95844 0.0
C2751 C 0.35952 0.28676 0.01155 0.0
C2752 C 0.32243 0.24766 0.97439 0.0
C2753 C 0.33038 0.24688 0.95767 0.0
C2754 C 0.32668 0.26094 0.98415 0.0
C2755 C 0.33907 0.27371 0.97683 0.0
C2756 C 0.34741 0.27288 0.96042 0.0
C2757 C 0.34298 0.25948 0.95109 0.0
C2758 C 0.31764 0.26139 0.00177 0.0
C2759 C 0.36061 0.28626 0.95203 0.0
H2760 H 0.337 0.31603 0.97427 0.0
H2761 H 0.36577 0.3142 0.01867 0.0
H2762 H 0.33092 0.28722 0.94495 0.0
H2763 H 0.31644 0.27864 0.96329 0.0
H2764 H 0.32154 0.29635 0.95356 0.0
H2765 H 0.36623 0.29281 0.02504 0.0
H2766 H 0.35079 0.27591 0.0167 0.0
H2767 H 0.3665 0.28507 0.00051 0.0
H2768 H 0.31275 0.23792 0.97962 0.0
H2769 H 0.34904 0.25899 0.93797 0.0
H2770 H 0.31204 0.26725 0.99694 0.0
H2771 H 0.32471 0.2674 0.01498 0.0
H2772 H 0.30928 0.25038 0.007 0.0
H2773 H 0.35723 0.29356 0.94515 0.0
H2774 H 0.36643 0.28364 0.9401 0.0
H2775 H 0.36834 0.29233 0.96461 0.0
C2776 C 0.69189 0.03671 0.00306 0.0
C2777 C 0.68132 0.04078 0.00147 0.0
C2778 C 0.70607 0.04568 0.99539 0.0
C2779 C 0.70958 0.05879 0.98538 0.0
C2780 C 0.69893 0.06295 0.98381 0.0
C2781 C 0.68501 0.05399 0.99211 0.0
C2782 C 0.71725 0.0411 -0.00218 0.0
C2783 C 0.70212 0.07668 0.97284 0.0
C2784 C 0.74784 0.0901 0.97549 0.0
C2785 C 0.74976 0.08792 0.95473 0.0
C2786 C 0.7352 0.0801 0.98618 0.0
C2787 C 0.7241 0.06794 0.97561 0.0
C2788 C 0.72629 0.06543 0.95486 0.0
C2789 C 0.73918 0.07539 0.94474 0.0
C2790 C 0.73343 0.08293 0.00845 0.0
C2791 C 0.71462 0.0528 0.94289 0.0
H2792 H 0.6891 0.02656 0.01045 0.0
H2793 H 0.67685 0.05713 0.99072 0.0
H2794 H 0.72045 0.03903 0.9825 0.0
H2795 H 0.72723 0.04994 0.00509 0.0
H2796 H 0.71311 0.03116 0.0073 0.0
H2797 H 0.69262 0.07831 0.97292 0.0
H2798 H 0.71143 0.0862 0.9802 0.0
H2799 H 0.70525 0.07632 0.95664 0.0
H2800 H 0.75606 0.09979 0.98319 0.0
H2801 H 0.74059 0.07382 0.92859 0.0
H2802 H 0.7294 0.07289 0.01765 0.0
H2803 H 0.72524 0.08637 0.00978 0.0
H2804 H 0.74381 0.09154 0.0152 0.0
H2805 H 0.71081 0.04253 0.9514 0.0
H2806 H 0.71847 0.05175 0.92742 0.0
H2807 H 0.70508 0.05424 0.94095 0.0
C2808 C 0.65135 0.95543 0.01623 0.0
C2809 C 0.64864 0.96282 0.03185 0.0
C2810 C 0.65608 0.94567 0.021 0.0
C2811 C 0.65773 0.943 0.04186 0.0
C2812 C 0.65444 0.95006 0.05765 0.0
C2813 C 0.65014 0.96002 0.05244 0.0
C2814 C 0.65983 0.93862 0.00377 0.0
C2815 C 0.65571 0.94729 0.0801 0.0
C2816 C 0.65916 0.91016 0.06024 0.0
C2817 C 0.67381 0.91648 0.06618 0.0
C2818 C 0.65386 0.91849 0.05123 0.0
C2819 C 0.66351 0.9334 0.04751 0.0
C2820 C 0.67851 0.93956 0.05178 0.0
C2821 C 0.68344 0.9311 0.06129 0.0
C2822 C 0.63775 0.91153 0.0471 0.0
C2823 C 0.68924 0.95535 0.0476 0.0
H2824 H 0.65027 0.95766 0.00029 0.0
H2825 H 0.6479 0.96562 0.06455 0.0
H2826 H 0.67167 0.94252 0.00406 0.0
H2827 H 0.65401 0.9267 0.00585 0.0
H2828 H 0.65705 0.94107 0.98843 0.0
H2829 H 0.65174 0.95285 0.09044 0.0
H2830 H 0.64937 0.93549 0.08334 0.0
H2831 H 0.66725 0.95113 0.08387 0.0
H2832 H 0.65166 0.8988 0.06334 0.0
H2833 H 0.69474 0.93625 0.0659 0.0
H2834 H 0.63582 0.91442 0.03154 0.0
H2835 H 0.63285 0.91566 0.05836 0.0
H2836 H 0.63202 0.89954 0.0484 0.0
H2837 H 0.68749 0.95845 0.03207 0.0
H2838 H 0.7007 0.95789 0.0487 0.0
H2839 H 0.68757 0.96214 0.05895 0.0
C2840 C 0.01645 0.68372 0.03867 0.0
C2841 C 0.01961 0.67399 0.02873 0.0
C2842 C 0.02749 0.69787 0.04333 0.0
C2843 C 0.0421 0.70238 0.03807 0.0
C2844 C 0.04531 0.69282 0.02724 0.0
C2845 C 0.03399 0.67873 0.02262 0.0
C2846 C 0.02359 0.70777 0.05471 0.0
C2847 C 0.06075 0.69723 0.02144 0.0
C2848 C 0.06898 0.74282 0.04263 0.0
C2849 C 0.07417 0.74379 0.06272 0.0
C2850 C 0.05894 0.72934 0.03401 0.0
C2851 C 0.05403 0.71656 0.04573 0.0
C2852 C 0.05969 0.71743 0.06566 0.0
C2853 C 0.06959 0.731 0.07393 0.0
C2854 C 0.05315 0.72884 0.0127 0.0
C2855 C 0.05477 0.70405 0.07866 0.0
H2856 H 0.00534 0.68018 0.04327 0.0
H2857 H 0.03651 0.67127 0.01491 0.0
H2858 H 0.02825 0.70985 0.07042 0.0
H2859 H 0.02833 0.71837 0.04678 0.0
H2860 H 0.01162 0.70307 0.05606 0.0
H2861 H 0.06125 0.68919 0.01115 0.0
H2862 H 0.06619 0.70793 0.01367 0.0
H2863 H 0.06704 0.69834 0.03556 0.0
H2864 H 0.07259 0.75261 0.03375 0.0
H2865 H 0.07328 0.7316 0.08959 0.0
H2866 H 0.04144 0.72541 0.01369 0.0
H2867 H 0.05402 0.72073 0.00309 0.0
H2868 H 0.05904 0.73953 0.00488 0.0
H2869 H 0.04309 0.69929 0.08273 0.0
H2870 H 0.06111 0.70644 0.09311 0.0
H2871 H 0.05586 0.69574 0.0699 0.0
C2872 C 0.31833 0.35322 0.03152 0.0
C2873 C 0.32918 0.36792 0.03186 0.0
C2874 C 0.30446 0.3485 0.03987 0.0
C2875 C 0.30146 0.3587 0.04908 0.0
C2876 C 0.3123 0.37358 0.04924 0.0
C2877 C 0.32599 0.37802 0.04048 0.0
C2878 C 0.29308 0.33259 0.0391 0.0
C2879 C 0.30957 0.38477 0.05917 0.0
C2880 C 0.26324 0.35134 0.05972 0.0
C2881 C 0.26188 0.34834 0.08084 0.0
C2882 C 0.27578 0.35397 0.04885 0.0
C2883 C 0.28727 0.35385 0.0595 0.0
C2884 C 0.28567 0.35021 0.08064 0.0
C2885 C 0.27294 0.34742 0.09102 0.0
C2886 C 0.27698 0.35752 0.02622 0.0
C2887 C 0.29774 0.35012 0.09259 0.0
H2888 H 0.32068 0.34537 0.0247 0.0
H2889 H 0.33433 0.38939 0.04085 0.0
H2890 H 0.29032 0.32816 0.05494 0.0
H2891 H 0.28293 0.33108 0.0321 0.0
H2892 H 0.29682 0.32621 0.03016 0.0
H2893 H 0.31906 0.39593 0.05767 0.0
H2894 H 0.29996 0.38445 0.05211 0.0
H2895 H 0.3071 0.38227 0.07576 0.0
H2896 H 0.25464 0.35198 0.05183 0.0
H2897 H 0.27201 0.34531 0.10742 0.0
H2898 H 0.28064 0.351 0.0175 0.0
H2899 H 0.28527 0.36909 0.02383 0.0
H2900 H 0.26648 0.35549 0.01975 0.0
H2901 H 0.30133 0.34324 0.08474 0.0
H2902 H 0.29437 0.34608 0.10855 0.0
H2903 H 0.30729 0.36127 0.0933 0.0
C2904 C 0.70874 0.68926 0.36003 0.0
C2905 C 0.69455 0.68114 0.36796 0.0
C2906 C 0.7195 0.68591 0.36519 0.0
C2907 C 0.71597 0.67418 0.37862 0.0
C2908 C 0.70155 0.66571 0.38619 0.0
C2909 C 0.69103 0.66928 0.38076 0.0
C2910 C 0.73474 0.69516 0.35677 0.0
C2911 C 0.69734 0.65312 0.40056 0.0
C2912 C 0.73995 0.6575 0.38409 0.0
C2913 C 0.74719 0.66372 0.40259 0.0
C2914 C 0.73014 0.6612 0.37563 0.0
C2915 C 0.72748 0.6713 0.38596 0.0
C2916 C 0.73513 0.67798 0.40424 0.0
C2917 C 0.74486 0.6741 0.41232 0.0
C2918 C 0.72226 0.65393 0.35603 0.0
C2919 C 0.73258 0.68876 0.41579 0.0
H2920 H 0.71153 0.69842 0.35008 0.0
H2921 H 0.68008 0.66291 0.38689 0.0
H2922 H 0.74233 0.70111 0.36953 0.0
H2923 H 0.7385 0.68825 0.34946 0.0
H2924 H 0.73545 0.70316 0.34529 0.0
H2925 H 0.68551 0.64715 0.4042 0.0
H2926 H 0.70026 0.64543 0.39365 0.0
H2927 H 0.70347 0.65711 0.41515 0.0
H2928 H 0.74179 0.64957 0.37638 0.0
H2929 H 0.75018 0.67878 0.42681 0.0
H2930 H 0.72335 0.66215 0.3447 0.0
H2931 H 0.71047 0.64681 0.35931 0.0
H2932 H 0.72643 0.64727 0.34896 0.0
H2933 H 0.73396 0.69754 0.40534 0.0
H2934 H 0.74011 0.6937 0.42898 0.0
H2935 H 0.72123 0.6833 0.42171 0.0
C2936 C 0.29225 0.02206 0.36835 0.0
C2937 C 0.30019 0.01491 0.36653 0.0
C2938 C 0.2985 0.03594 0.37708 0.0
C2939 C 0.31301 0.0428 0.3843 0.0
C2940 C 0.32118 0.03577 0.38219 0.0
C2941 C 0.31469 0.02194 0.37327 0.0
C2942 C 0.28948 0.04313 0.37897 0.0
C2943 C 0.33665 0.04271 0.38984 0.0
C2944 C 0.33338 0.08335 0.39482 0.0
C2945 C 0.3315 0.08367 0.41613 0.0
C2946 C 0.32733 0.07012 0.38417 0.0
C2947 C 0.31936 0.05695 0.39516 0.0
C2948 C 0.3175 0.05724 0.41669 0.0
C2949 C 0.32357 0.07058 0.42689 0.0
C2950 C 0.32944 0.07022 0.36118 0.0
C2951 C 0.30921 0.04343 0.429 0.0
H2952 H 0.28107 0.01676 0.36307 0.0
H2953 H 0.32093 0.01653 0.37192 0.0
H2954 H 0.28775 0.04457 0.39545 0.0
H2955 H 0.29534 0.05407 0.37191 0.0
H2956 H 0.27868 0.03674 0.37149 0.0
H2957 H 0.34174 0.03611 0.3862 0.0
H2958 H 0.3434 0.0536 0.38291 0.0
H2959 H 0.33684 0.04419 0.40675 0.0
H2960 H 0.33944 0.09345 0.38645 0.0
H2961 H 0.32232 0.07078 0.44342 0.0
H2962 H 0.3187 0.0645 0.35344 0.0
H2963 H 0.3352 0.06431 0.35727 0.0
H2964 H 0.33579 0.08138 0.35489 0.0
H2965 H 0.29792 0.03692 0.42317 0.0
H2966 H 0.30874 0.04555 0.44565 0.0
H2967 H 0.31443 0.03677 0.42718 0.0
C2968 C 0.97272 0.2729 0.34848 0.0
C2969 C 0.98229 0.28738 0.35393 0.0
C2970 C 0.9585 0.26531 0.35642 0.0
C2971 C 0.95384 0.2723 0.37042 0.0
C2972 C 0.96334 0.28699 0.37569 0.0
C2973 C 0.97743 0.2944 0.36725 0.0
C2974 C 0.94859 0.24971 0.35021 0.0
C2975 C 0.95882 0.29474 0.39081 0.0
C2976 C 0.91355 0.2558 0.38267 0.0
C2977 C 0.9123 0.24824 0.40083 0.0
C2978 C 0.92698 0.26355 0.37237 0.0
C2979 C 0.93943 0.26393 0.38071 0.0
C2980 C 0.9382 0.25636 0.39911 0.0
C2981 C 0.92463 0.24854 0.40886 0.0
C2982 C 0.92788 0.27133 0.35262 0.0
C2983 C 0.95126 0.25668 0.40867 0.0
H2984 H 0.97635 0.26746 0.33801 0.0
H2985 H 0.98477 0.30558 0.37154 0.0
H2986 H 0.94626 0.24256 0.36374 0.0
H2987 H 0.93802 0.24809 0.34473 0.0
H2988 H 0.95345 0.24623 0.33791 0.0
H2989 H 0.96723 0.30637 0.39249 0.0
H2990 H 0.94849 0.29393 0.38588 0.0
H2991 H 0.95681 0.28948 0.40612 0.0
H2992 H 0.90399 0.25555 0.37648 0.0
H2993 H 0.92372 0.2429 0.42312 0.0
H2994 H 0.93218 0.26748 0.34007 0.0
H2995 H 0.93557 0.28312 0.35444 0.0
H2996 H 0.91712 0.26967 0.34792 0.0
H2997 H 0.95607 0.25229 0.39771 0.0
H2998 H 0.94845 0.2503 0.42313 0.0
H2999 H 0.95976 0.26803 0.41209 0.0
C3000 C 0.03143 0.37862 0.32627 0.0
C3001 C 0.02004 0.36448 0.33012 0.0
C3002 C 0.02852 0.38951 0.32035 0.0
C3003 C 0.01389 0.38623 0.31878 0.0
C3004 C 0.00241 0.3722 0.32402 0.0
C3005 C 0.00561 0.36144 0.32934 0.0
C3006 C 0.04106 0.40424 0.31449 0.0
C3007 C 0.98668 0.36836 0.32304 0.0
C3008 C 0.00584 0.41685 0.31235 0.0
C3009 C 0.00304 0.41604 0.29123 0.0
C3010 C 0.00938 0.4072 0.32166 0.0
C3011 C 0.0105 0.39683 0.30939 0.0
C3012 C 0.008 0.39628 0.28795 0.0
C3013 C 0.00414 0.40578 0.27919 0.0
C3014 C 0.01165 0.40789 0.34462 0.0
C3015 C 0.00937 0.38561 0.27422 0.0
H3016 H 0.0426 0.38097 0.32678 0.0
H3017 H 0.99679 0.35054 0.33253 0.0
H3018 H 0.04085 0.40583 0.29767 0.0
H3019 H 0.04003 0.41292 0.32223 0.0
H3020 H 0.05178 0.4055 0.31849 0.0
H3021 H 0.97922 0.35767 0.33018 0.0
H3022 H 0.98521 0.37674 0.33092 0.0
H3023 H 0.98347 0.36799 0.30675 0.0
H3024 H 0.00498 0.42484 0.32158 0.0
H3025 H 0.00213 0.40533 0.2628 0.0
H3026 H 0.02261 0.40963 0.3481 0.0
H3027 H 0.00356 0.39742 0.3517 0.0
H3028 H 0.01057 0.4167 0.35192 0.0
H3029 H 0.02026 0.38677 0.27611 0.0
H3030 H 0.00783 0.38712 0.25772 0.0
H3031 H 0.00113 0.37438 0.27869 0.0
C3032 C 0.60385 0.64424 0.32836 0.0
C3033 C 0.61902 0.65092 0.33059 0.0
C3034 C 0.5958 0.63065 0.31882 0.0
C3035 C 0.60308 0.62359 0.31127 0.0
C3036 C 0.61834 0.63017 0.31368 0.0
C3037 C 0.62612 0.64373 0.32333 0.0
C3038 C 0.57953 0.62395 0.31657 0.0
C3039 C 0.6265 0.62298 0.30578 0.0
C3040 C 0.58234 0.58316 0.30008 0.0
C3041 C 0.58102 0.58298 0.27862 0.0
C3042 C 0.58917 0.59629 0.31101 0.0
C3043 C 0.59486 0.60954 0.30019 0.0
C3044 C 0.59325 0.60941 0.27858 0.0
C3045 C 0.58635 0.59614 0.26807 0.0
C3046 C 0.59059 0.59601 0.33407 0.0
C3047 C 0.59923 0.6233 0.26647 0.0
H3048 H 0.59825 0.64967 0.33397 0.0
H3049 H 0.63782 0.64876 0.32498 0.0
H3050 H 0.57663 0.62269 0.30003 0.0
H3051 H 0.57382 0.61297 0.32349 0.0
H3052 H 0.57544 0.63057 0.32398 0.0
H3053 H 0.63831 0.62936 0.30934 0.0
H3054 H 0.62191 0.61204 0.31264 0.0
H3055 H 0.62521 0.62156 0.28886 0.0
H3056 H 0.57811 0.57302 0.30832 0.0
H3057 H 0.58558 0.5961 0.25145 0.0
H3058 H 0.58606 0.60219 0.34161 0.0
H3059 H 0.60226 0.60133 0.33828 0.0
H3060 H 0.58491 0.5848 0.34029 0.0
H3061 H 0.59491 0.63004 0.27272 0.0
H3062 H 0.59647 0.62131 0.24988 0.0
H3063 H 0.61126 0.62968 0.26796 0.0
C3064 C 0.35296 0.99391 0.32392 0.0
C3065 C 0.34132 0.97984 0.32741 0.0
C3066 C 0.36642 0.99626 0.31658 0.0
C3067 C 0.36805 0.98422 0.31198 0.0
C3068 C 0.35643 0.97001 0.31602 0.0
C3069 C 0.34328 0.96801 0.32399 0.0
C3070 C 0.37871 0.01158 0.31312 0.0
C3071 C 0.35759 0.95687 0.31084 0.0
C3072 C 0.39373 0.98759 0.26899 0.0
C3073 C 0.4049 0.98731 0.27984 0.0
C3074 C 0.38183 0.98691 0.27934 0.0
C3075 C 0.3813 0.98631 0.3011 0.0
C3076 C 0.39292 0.98672 0.31218 0.0
C3077 C 0.4045 0.98695 0.30136 0.0
C3078 C 0.36951 0.98613 0.26691 0.0
C3079 C 0.39294 0.98655 0.33538 0.0
H3080 H 0.3515 0.00308 0.32675 0.0
H3081 H 0.33426 0.95712 0.32658 0.0
H3082 H 0.38897 0.01309 0.31975 0.0
H3083 H 0.38056 0.01374 0.29638 0.0
H3084 H 0.37637 0.01969 0.32002 0.0
H3085 H 0.3478 0.9466 0.31575 0.0
H3086 H 0.359 0.9564 0.29398 0.0
H3087 H 0.36729 0.95762 0.31828 0.0
H3088 H 0.39401 0.98768 0.25232 0.0
H3089 H 0.41319 0.98673 0.30967 0.0
H3090 H 0.3675 0.99494 0.27152 0.0
H3091 H 0.35934 0.9757 0.27 0.0
H3092 H 0.37176 0.98698 0.25012 0.0
H3093 H 0.39057 0.99482 0.34157 0.0
H3094 H 0.40353 0.98865 0.34163 0.0
H3095 H 0.38425 0.97585 0.34104 0.0
C3096 C 0.60616 0.96042 0.3365 0.0
C3097 C 0.62064 0.96645 0.32984 0.0
C3098 C 0.59736 0.96573 0.32925 0.0
C3099 C 0.60307 0.97708 0.31462 0.0
C3100 C 0.61774 0.98334 0.30807 0.0
C3101 C 0.6264 0.97806 0.31595 0.0
C3102 C 0.58186 0.95898 0.33692 0.0
C3103 C 0.62413 0.99524 0.29214 0.0
C3104 C 0.57631 0.9787 0.27815 0.0
C3105 C 0.57561 0.99059 0.28577 0.0
C3106 C 0.58522 0.97423 0.28741 0.0
C3107 C 0.59341 0.98165 0.305 0.0
C3108 C 0.59253 0.99352 0.31302 0.0
C3109 C 0.58377 0.99798 0.30311 0.0
C3110 C 0.58608 0.96174 0.27809 0.0
C3111 C 0.60088 0.00148 0.332 0.0
H3112 H 0.60171 0.95155 0.34741 0.0
H3113 H 0.63757 0.98273 0.31071 0.0
H3114 H 0.57966 0.96752 0.34238 0.0
H3115 H 0.57421 0.95317 0.32416 0.0
H3116 H 0.5795 0.95119 0.34966 0.0
H3117 H 0.63589 -0.00065 0.28931 0.0
H3118 H 0.6182 0.99113 0.27742 0.0
H3119 H 0.6228 0.00443 0.29708 0.0
H3120 H 0.57016 0.97314 0.26452 0.0
H3121 H 0.5832 0.00717 0.30896 0.0
H3122 H 0.58265 0.95294 0.28955 0.0
H3123 H 0.59751 0.96536 0.27369 0.0
H3124 H 0.57912 0.95724 0.26425 0.0
H3125 H 0.59813 0.99375 0.3449 0.0
H3126 H 0.5985 0.01004 0.33681 0.0
H3127 H 0.61275 0.00659 0.3291 0.0
C3128 C 0.00851 0.64839 0.32884 0.0
C3129 C 0.02263 0.66032 0.3309 0.0
C3130 C 0.00625 0.63473 0.3232 0.0
C3131 C 0.0184 0.63311 0.31892 0.0
C3132 C 0.03268 0.64503 0.32159 0.0
C3133 C 0.03461 0.65844 0.32783 0.0
C3134 C 0.99087 0.62217 0.3211 0.0
C3135 C 0.04593 0.64386 0.3167 0.0
C3136 C 0.0154 0.59632 0.31265 0.0
C3137 C 0.01431 0.59467 0.29126 0.0
C3138 C 0.01615 0.60853 0.32205 0.0
C3139 C 0.01629 0.61946 0.30962 0.0
C3140 C 0.01511 0.61771 0.28799 0.0
C3141 C 0.01396 0.60524 0.27911 0.0
C3142 C 0.01699 0.60984 0.34517 0.0
C3143 C 0.01557 0.62923 0.27413 0.0
H3144 H -0.00078 0.64979 0.33138 0.0
H3145 H 0.04554 0.66766 0.32931 0.0
H3146 H 0.98835 0.61938 0.30462 0.0
H3147 H 0.9897 0.61244 0.32897 0.0
H3148 H 0.98274 0.62469 0.32761 0.0
H3149 H 0.05625 0.65389 0.32072 0.0
H3150 H 0.04545 0.63464 0.3251 0.0
H3151 H 0.04614 0.64173 0.30002 0.0
H3152 H 0.01567 0.58807 0.32195 0.0
H3153 H 0.01326 0.60394 0.26253 0.0
H3154 H 0.00856 0.61212 0.35108 0.0
H3155 H 0.02774 0.61906 0.34974 0.0
H3156 H 0.01548 0.59986 0.35267 0.0
H3157 H 0.00666 0.63129 0.27826 0.0
H3158 H 0.0145 0.62616 0.25763 0.0
H3159 H 0.026 0.63955 0.27626 0.0
C3160 C 0.35911 0.37632 0.31939 0.0
C3161 C 0.35653 0.37933 0.33942 0.0
C3162 C 0.37302 0.38414 0.31049 0.0
C3163 C 0.38473 0.39482 0.32225 0.0
C3164 C 0.38224 0.39763 0.34272 0.0
C3165 C 0.36807 0.39004 0.35093 0.0
C3166 C 0.3751 0.38116 0.28839 0.0
C3167 C 0.39456 0.4085 0.35599 0.0
C3168 C 0.42174 0.40418 0.30099 0.0
C3169 C 0.42596 0.41715 0.29038 0.0
C3170 C 0.40878 0.39728 0.31252 0.0
C3171 C 0.3995 0.40314 0.31284 0.0
C3172 C 0.40386 0.41643 0.3028 0.0
C3173 C 0.41717 0.42343 0.29212 0.0
C3174 C 0.40475 0.38337 0.32365 0.0
C3175 C 0.39413 0.4229 0.30238 0.0
H3176 H 0.35013 0.36809 0.31047 0.0
H3177 H 0.36604 0.39224 0.36651 0.0
H3178 H 0.37975 0.3913 0.27929 0.0
H3179 H 0.38294 0.37725 0.28753 0.0
H3180 H 0.36474 0.37293 0.28114 0.0
H3181 H 0.39091 0.40893 0.37188 0.0
H3182 H 0.40326 0.4057 0.35677 0.0
H3183 H 0.39947 0.41946 0.34911 0.0
H3184 H 0.42824 0.39905 0.29972 0.0
H3185 H 0.42046 0.43367 0.28466 0.0
H3186 H 0.39564 0.3741 0.31555 0.0
H3187 H 0.40097 0.3836 0.33952 0.0
H3188 H 0.41403 0.38142 0.32446 0.0
H3189 H 0.38384 0.41539 0.29432 0.0
H3190 H 0.39932 0.43354 0.29444 0.0
H3191 H 0.39118 0.42432 0.31824 0.0
C3192 C 0.31235 0.28916 0.3542 0.0
C3193 C 0.31909 0.30217 0.36538 0.0
C3194 C 0.31504 0.2779 0.35889 0.0
C3195 C 0.32456 0.27968 0.37523 0.0
C3196 C 0.33147 0.29286 0.38637 0.0
C3197 C 0.32871 0.30393 0.38125 0.0
C3198 C 0.30761 0.26406 0.34655 0.0
C3199 C 0.34164 0.29521 0.404 0.0
C3200 C 0.32297 0.24908 0.40621 0.0
C3201 C 0.3359 0.24969 0.40002 0.0
C3202 C 0.3185 0.25805 0.39713 0.0
C3203 C 0.32713 0.26779 0.38138 0.0
C3204 C 0.33953 0.26757 0.3739 0.0
C3205 C 0.34383 0.25858 0.38341 0.0
C3206 C 0.30525 0.25798 0.40565 0.0
C3207 C 0.34889 0.2776 0.35691 0.0
H3208 H 0.30493 0.28775 0.34188 0.0
H3209 H 0.33397 0.31393 0.38999 0.0
H3210 H 0.31582 0.2616 0.34022 0.0
H3211 H 0.30024 0.25489 0.35667 0.0
H3212 H 0.30115 0.26466 0.33364 0.0
H3213 H 0.3462 0.30613 0.41102 0.0
H3214 H 0.33576 0.28695 0.41611 0.0
H3215 H 0.35081 0.29391 0.39858 0.0
H3216 H 0.31686 0.24232 0.41915 0.0
H3217 H 0.35374 0.25895 0.37842 0.0
H3218 H 0.29827 0.25793 0.39303 0.0
H3219 H 0.30877 0.26798 0.4148 0.0
H3220 H 0.29863 0.24848 0.41573 0.0
H3221 H 0.34203 0.27775 0.34424 0.0
H3222 H 0.35658 0.27444 0.35056 0.0
H3223 H 0.35531 0.2888 0.363 0.0
C3224 C 0.69811 0.01965 0.36848 0.0
C3225 C 0.7001 0.01026 0.35559 0.0
C3226 C 0.70999 0.03288 0.37486 0.0
C3227 C 0.72421 0.03678 0.36826 0.0
C3228 C 0.72619 0.02776 0.35428 0.0
C3229 C 0.71409 0.01459 0.34807 0.0
C3230 C 0.70741 0.04226 0.38967 0.0
C3231 C 0.74118 0.03156 0.34687 0.0
C3232 C 0.75472 0.07512 0.38011 0.0
C3233 C 0.75999 0.07304 0.39876 0.0
C3234 C 0.74329 0.06338 0.36965 0.0
C3235 C 0.73702 0.04927 0.37805 0.0
C3236 C 0.74253 0.04708 0.39658 0.0
C3237 C 0.75387 0.05896 0.40672 0.0
C3238 C 0.73769 0.0661 0.3499 0.0
C3239 C 0.73615 0.03221 0.40609 0.0
H3240 H 0.68731 0.01643 0.3742 0.0
H3241 H 0.7157 0.00742 0.33802 0.0
H3242 H 0.7118 0.04201 0.40499 0.0
H3243 H 0.71321 0.05368 0.3844 0.0
H3244 H 0.69565 0.03855 0.39144 0.0
H3245 H 0.74072 0.02446 0.33405 0.0
H3246 H 0.74741 0.043 0.3417 0.0
H3247 H 0.74729 0.03039 0.35976 0.0
H3248 H 0.75946 0.08594 0.37378 0.0
H3249 H 0.75761 0.05726 0.42133 0.0
H3250 H 0.72628 0.06352 0.35211 0.0
H3251 H 0.73762 0.05891 0.33754 0.0
H3252 H 0.74433 0.07753 0.34472 0.0
H3253 H 0.72462 0.02809 0.41046 0.0
H3254 H 0.74217 0.03225 0.42001 0.0
H3255 H 0.73627 0.02449 0.39478 0.0
C3256 C 0.98491 0.69548 0.38354 0.0
C3257 C 0.98806 0.70356 0.36541 0.0
C3258 C 0.97121 0.68966 0.39302 0.0
C3259 C 0.96025 0.69147 0.38364 0.0
C3260 C 0.96334 0.69941 0.36509 0.0
C3261 C 0.97734 0.70563 0.35641 0.0
C3262 C 0.96849 0.68168 0.41316 0.0
C3263 C 0.95179 0.70107 0.35419 0.0
C3264 C 0.92164 0.66369 0.39948 0.0
C3265 C 0.91812 0.67161 0.41328 0.0
C3266 C 0.93505 0.6702 0.38906 0.0
C3267 C 0.94551 0.68484 0.39313 0.0
C3268 C 0.94207 0.69298 0.40682 0.0
C3269 C 0.92832 0.68637 0.41635 0.0
C3270 C 0.93814 0.66129 0.37403 0.0
C3271 C 0.95308 0.70853 0.41195 0.0
H3272 H 0.99328 0.694 0.39052 0.0
H3273 H 0.97979 0.71178 0.34226 0.0
H3274 H 0.96461 0.6865 0.42492 0.0
H3275 H 0.95983 0.6702 0.41123 0.0
H3276 H 0.97842 0.682 0.41903 0.0
H3277 H 0.95589 0.70733 0.33967 0.0
H3278 H 0.94236 0.69023 0.35056 0.0
H3279 H 0.94774 0.70662 0.36433 0.0
H3280 H 0.91413 0.65225 0.39715 0.0
H3281 H 0.9257 0.69279 0.42644 0.0
H3282 H 0.94672 0.65942 0.38027 0.0
H3283 H 0.94227 0.66719 0.35927 0.0
H3284 H 0.92831 0.6506 0.37087 0.0
H3285 H 0.96294 0.70916 0.41866 0.0
H3286 H 0.94873 0.71334 0.42304 0.0
H3287 H 0.95655 0.71521 0.39778 0.0
C3288 C 0.3761 0.01664 0.68137 0.0
C3289 C 0.3682 0.01848 0.69722 0.0
C3290 C 0.38618 0.01221 0.68572 0.0
C3291 C 0.3887 0.01004 0.70642 0.0
C3292 C 0.38103 0.01231 0.72247 0.0
C3293 C 0.37072 0.01628 0.71764 0.0
C3294 C 0.39382 0.00946 0.66819 0.0
C3295 C 0.38364 0.01048 0.74478 0.0
C3296 C 0.40258 0.98558 0.72404 0.0
C3297 C 0.41711 0.99563 0.7291 0.0
C3298 C 0.39354 0.99003 0.71505 0.0
C3299 C 0.39897 0.00495 0.71159 0.0
C3300 C 0.41379 0.01507 0.71554 0.0
C3301 C 0.42274 0.01026 0.72391 0.0
C3302 C 0.37789 0.97882 0.71052 0.0
C3303 C 0.41997 0.0311 0.71234 0.0
H3304 H 0.37408 0.01827 0.66556 0.0
H3305 H 0.36473 0.01785 0.72993 0.0
H3306 H 0.40579 0.01596 0.6702 0.0
H3307 H 0.39076 0.99789 0.66817 0.0
H3308 H 0.39101 0.01209 0.65301 0.0
H3309 H 0.37748 0.01359 0.75542 0.0
H3310 H 0.38034 -0.00097 0.7478 0.0
H3311 H 0.39542 0.01719 0.74835 0.0
H3312 H 0.39792 0.97428 0.72808 0.0
H3313 H 0.43403 0.01811 0.72711 0.0
H3314 H 0.37464 0.98079 0.69523 0.0
H3315 H 0.37066 0.97959 0.72217 0.0
H3316 H 0.37602 0.96763 0.71084 0.0
H3317 H 0.41709 0.03323 0.6969 0.0
H3318 H 0.432 0.03738 0.71399 0.0
H3319 H 0.41515 0.03516 0.72385 0.0
C3320 C 0.97859 0.3561 0.71054 0.0
C3321 C 0.96607 0.35046 0.69832 0.0
C3322 C 0.98433 0.36973 0.71992 0.0
C3323 C 0.97757 0.37802 0.71662 0.0
C3324 C 0.96517 0.37256 0.70383 0.0
C3325 C 0.95947 0.35876 0.69502 0.0
C3326 C 0.99739 0.37507 0.73379 0.0
C3327 C 0.95784 0.38121 0.69965 0.0
C3328 C 0.98259 0.40571 0.75712 0.0
C3329 C 0.99393 0.41853 0.74867 0.0
C3330 C 0.97716 0.39246 0.74681 0.0
C3331 C 0.98304 0.39209 0.72739 0.0
C3332 C 0.9943 0.40508 0.71857 0.0
C3333 C -0.00025 0.41815 0.72946 0.0
C3334 C 0.96535 0.37882 0.75691 0.0
C3335 C 0.00063 0.40513 0.69772 0.0
H3336 H 0.9837 0.34971 0.7132 0.0
H3337 H 0.94988 0.3545 0.68541 0.0
H3338 H 0.00632 0.38574 0.72839 0.0
H3339 H 0.99446 0.37663 0.74961 0.0
H3340 H 0.00154 0.36743 0.73444 0.0
H3341 H 0.9489 0.37583 0.68829 0.0
H3342 H 0.95328 0.38278 0.71415 0.0
H3343 H 0.96593 0.39212 0.69378 0.0
H3344 H 0.97826 0.40599 0.77214 0.0
H3345 H 0.00851 0.4281 0.72295 0.0
H3346 H 0.96925 0.37107 0.75916 0.0
H3347 H 0.95565 0.37345 0.74684 0.0
H3348 H 0.96197 0.38098 0.77207 0.0
H3349 H 0.00588 0.39845 0.69816 0.0
H3350 H 0.00883 0.41623 0.6926 0.0
H3351 H 0.99182 0.40021 0.68611 0.0
C3352 C 0.64765 0.62963 0.70177 0.0
C3353 C 0.6535 0.62321 0.68906 0.0
C3354 C 0.63365 0.62139 0.71026 0.0
C3355 C 0.6252 0.60643 0.70565 0.0
C3356 C 0.63087 0.59998 0.69235 0.0
C3357 C 0.64501 0.60842 0.68435 0.0
C3358 C 0.62806 0.62861 0.72465 0.0
C3359 C 0.62209 0.58411 0.68685 0.0
C3360 C 0.59644 0.58242 0.74452 0.0
C3361 C 0.58377 0.5811 0.73597 0.0
C3362 C 0.60996 0.59056 0.73472 0.0
C3363 C 0.61081 0.59739 0.71575 0.0
C3364 C 0.598 0.59588 0.70682 0.0
C3365 C 0.58462 0.58784 0.71717 0.0
C3366 C 0.62339 0.59212 0.74492 0.0
C3367 C 0.59847 0.60283 0.68646 0.0
H3368 H 0.65416 0.64104 0.70551 0.0
H3369 H 0.64942 0.60342 0.67439 0.0
H3370 H 0.61748 0.62692 0.71913 0.0
H3371 H 0.62616 0.62364 0.74014 0.0
H3372 H 0.63579 0.64044 0.72612 0.0
H3373 H 0.62766 0.58098 0.67517 0.0
H3374 H 0.62014 0.57743 0.70082 0.0
H3375 H 0.61129 0.58144 0.68082 0.0
H3376 H 0.59582 0.5774 0.75924 0.0
H3377 H 0.5748 0.58678 0.71055 0.0
H3378 H 0.63122 0.60372 0.7481 0.0
H3379 H 0.62892 0.58818 0.73448 0.0
H3380 H 0.62084 0.58602 0.7596 0.0
H3381 H 0.6053 0.61478 0.68777 0.0
H3382 H 0.58746 0.60005 0.68115 0.0
H3383 H 0.60356 0.59932 0.67456 0.0
C3384 C 0.67639 0.69798 0.64608 0.0
C3385 C 0.68646 0.70007 0.66145 0.0
C3386 C 0.67308 0.70875 0.64146 0.0
C3387 C 0.6799 0.72192 0.65261 0.0
C3388 C 0.68971 0.72394 0.66862 0.0
C3389 C 0.69295 0.713 0.67279 0.0
C3390 C 0.66262 0.7062 0.62417 0.0
C3391 C 0.69705 0.73779 0.68097 0.0
C3392 C 0.6825 0.75342 0.62273 0.0
C3393 C 0.67008 0.75359 0.62963 0.0
C3394 C 0.68624 0.74365 0.63089 0.0
C3395 C 0.6774 0.73384 0.6464 0.0
C3396 C 0.66531 0.7345 0.65427 0.0
C3397 C 0.66174 0.74432 0.64569 0.0
C3398 C 0.69915 0.74323 0.62194 0.0
C3399 C 0.65575 0.72434 0.67101 0.0
H3400 H 0.67131 0.688 0.63727 0.0
H3401 H 0.70067 0.71465 0.68477 0.0
H3402 H 0.65363 0.70773 0.62974 0.0
H3403 H 0.66837 0.71422 0.61174 0.0
H3404 H 0.65784 0.69515 0.61751 0.0
H3405 H 0.70341 0.73718 0.69401 0.0
H3406 H 0.70452 0.74694 0.6709 0.0
H3407 H 0.68882 0.74028 0.68711 0.0
H3408 H 0.68887 0.76039 0.61012 0.0
H3409 H 0.65221 0.74451 0.65119 0.0
H3410 H 0.69527 0.73296 0.61332 0.0
H3411 H 0.70636 0.74349 0.63437 0.0
H3412 H 0.70566 0.75242 0.61131 0.0
H3413 H 0.64939 0.71318 0.66477 0.0
H3414 H 0.648 0.72747 0.67726 0.0
H3415 H 0.66248 0.7241 0.68378 0.0
C3416 C 0.27579 0.98094 0.66794 0.0
C3417 C 0.29103 0.98791 0.66654 0.0
C3418 C 0.26693 0.967 0.65978 0.0
C3419 C 0.27346 0.95993 0.64979 0.0
C3420 C 0.28883 0.9668 0.64862 0.0
C3421 C 0.29742 0.98066 0.6571 0.0
C3422 C 0.25059 0.95995 0.66151 0.0
C3423 C 0.2962 0.95967 0.63791 0.0
C3424 C 0.25212 0.91934 0.6397 0.0
C3425 C 0.2482 0.91889 0.61905 0.0
C3426 C 0.26003 0.93261 0.65012 0.0
C3427 C 0.26426 0.94571 0.63952 0.0
C3428 C 0.26016 0.94528 0.61875 0.0
C3429 C 0.25214 0.93188 0.60881 0.0
C3430 C 0.26406 0.93265 0.67234 0.0
C3431 C 0.2646 0.959 0.60683 0.0
H3432 H 0.27076 0.98641 0.67533 0.0
H3433 H 0.30918 0.98595 0.65592 0.0
H3434 H 0.2458 0.95848 0.64595 0.0
H3435 H 0.2459 0.94904 0.6685 0.0
H3436 H 0.24724 0.96647 0.6709 0.0
H3437 H 0.30826 0.96623 0.63898 0.0
H3438 H 0.29249 0.94885 0.64469 0.0
H3439 H 0.29313 0.95799 0.62143 0.0
H3440 H 0.24902 0.9093 0.64768 0.0
H3441 H 0.24933 0.9316 0.59274 0.0
H3442 H 0.2603 0.93877 0.68183 0.0
H3443 H 0.27608 0.9382 0.67382 0.0
H3444 H 0.25928 0.92152 0.67868 0.0
H3445 H 0.26074 0.96559 0.61487 0.0
H3446 H 0.26019 0.95677 0.59095 0.0
H3447 H 0.27665 0.96563 0.60593 0.0
C3448 C 0.01305 0.3076 0.65507 0.0
C3449 C 0.01027 0.31883 0.65913 0.0
C3450 C 0.02667 0.31056 0.64759 0.0
C3451 C 0.0379 0.32512 0.64468 0.0
C3452 C 0.03538 0.33653 0.64985 0.0
C3453 C 0.02151 0.33324 0.65671 0.0
C3454 C 0.0288 0.29807 0.64182 0.0
C3455 C 0.04721 0.35219 0.64755 0.0
C3456 C 0.07561 0.33034 0.63607 0.0
C3457 C 0.07676 0.33141 0.6146 0.0
C3458 C 0.06332 0.32903 0.64624 0.0
C3459 C 0.05177 0.32829 0.63456 0.0
C3460 C 0.05306 0.32965 0.61288 0.0
C3461 C 0.06563 0.33137 0.6032 0.0
C3462 C 0.06252 0.32805 0.66941 0.0
C3463 C 0.04088 0.32859 0.59981 0.0
H3464 H 0.00436 0.29644 0.65683 0.0
H3465 H 0.01941 0.34195 0.66003 0.0
H3466 H 0.03085 0.29832 0.62503 0.0
H3467 H 0.03845 0.29907 0.64974 0.0
H3468 H 0.01917 0.2874 0.64576 0.0
H3469 H 0.04407 0.3597 0.65457 0.0
H3470 H 0.05742 0.35404 0.6548 0.0
H3471 H 0.04957 0.3549 0.631 0.0
H3472 H 0.08426 0.33038 0.64483 0.0
H3473 H 0.06646 0.33199 0.58656 0.0
H3474 H 0.05402 0.31698 0.67414 0.0
H3475 H 0.05937 0.3357 0.67581 0.0
H3476 H 0.07304 0.33047 0.6763 0.0
H3477 H 0.03099 0.31776 0.60185 0.0
H3478 H 0.04376 0.3302 0.5832 0.0
H3479 H 0.03804 0.33678 0.60474 0.0
C3480 C 0.27405 0.29786 0.65012 0.0
C3481 C 0.28712 0.3054 0.6611 0.0
C3482 C 0.26713 0.30503 0.64239 0.0
C3483 C 0.27323 0.32004 0.64612 0.0
C3484 C 0.28623 0.32765 0.65761 0.0
C3485 C 0.29312 0.32027 0.66477 0.0
C3486 C 0.25344 0.2966 0.62983 0.0
C3487 C 0.29291 0.3436 0.66224 0.0
C3488 C 0.26321 0.34048 0.60841 0.0
C3489 C 0.25151 0.34041 0.6185 0.0
C3490 C 0.27057 0.33416 0.61743 0.0
C3491 C 0.26629 0.32783 0.63719 0.0
C3492 C 0.25485 0.32824 0.64781 0.0
C3493 C 0.24745 0.33438 0.6382 0.0
C3494 C 0.28251 0.33369 0.60542 0.0
C3495 C 0.25019 0.32189 0.66908 0.0
H3496 H 0.2694 0.28639 0.64715 0.0
H3497 H 0.30315 0.32612 0.6734 0.0
H3498 H 0.24438 0.29739 0.63693 0.0
H3499 H 0.25521 0.3013 0.61416 0.0
H3500 H 0.25006 0.28496 0.62842 0.0
H3501 H 0.30256 0.34773 0.67239 0.0
H3502 H 0.29628 0.34988 0.64771 0.0
H3503 H 0.28473 0.34564 0.66976 0.0
H3504 H 0.2662 0.34495 0.59303 0.0
H3505 H 0.23842 0.33436 0.646 0.0
H3506 H 0.27929 0.32227 0.60223 0.0
H3507 H 0.29267 0.33852 0.61456 0.0
H3508 H 0.28487 0.33957 0.59055 0.0
H3509 H 0.24539 0.30997 0.66839 0.0
H3510 H 0.24203 0.32423 0.67595 0.0
H3511 H 0.25978 0.32625 0.67938 0.0
C3512 C 0.6792 0.98234 0.64519 0.0
C3513 C 0.68759 0.99005 0.66223 0.0
C3514 C 0.6784 0.96944 0.63879 0.0
C3515 C 0.68605 0.96403 0.64984 0.0
C3516 C 0.69389 0.97133 0.66773 0.0
C3517 C 0.69464 0.98433 0.67366 0.0
C3518 C 0.66999 0.96203 0.61955 0.0
C3519 C 0.70199 0.96577 0.68008 0.0
C3520 C 0.67634 0.92561 0.63617 0.0
C3521 C 0.68722 0.92819 0.62172 0.0
C3522 C 0.67615 0.93716 0.64621 0.0
C3523 C 0.68697 0.95158 0.64142 0.0
C3524 C 0.69821 0.9542 0.6273 0.0
C3525 C 0.69822 0.94248 0.61769 0.0
C3526 C 0.66411 0.93395 0.6614 0.0
C3527 C 0.70987 0.96942 0.62159 0.0
H3528 H 0.67368 0.98667 0.63631 0.0
H3529 H 0.70106 0.99018 0.68693 0.0
H3530 H 0.67764 0.96263 0.6074 0.0
H3531 H 0.66223 0.9504 0.6226 0.0
H3532 H 0.66382 0.96704 0.61356 0.0
H3533 H 0.70606 0.97166 0.69486 0.0
H3534 H 0.69486 0.95405 0.68336 0.0
H3535 H 0.71144 0.96704 0.67104 0.0
H3536 H 0.66787 0.91456 0.63941 0.0
H3537 H 0.70653 0.94455 0.6063 0.0
H3538 H 0.65685 0.93758 0.65502 0.0
H3539 H 0.66872 0.94003 0.67591 0.0
H3540 H 0.65745 0.92221 0.66501 0.0
H3541 H 0.70483 0.97501 0.61383 0.0
H3542 H 0.71826 0.96959 0.61116 0.0
H3543 H 0.71535 0.97573 0.63561 0.0
C3544 C 0.02107 0.72389 0.65407 0.0
C3545 C 0.0128 0.70872 0.65513 0.0
C3546 C 0.03505 0.73095 0.64528 0.0
C3547 C 0.04085 0.72266 0.63711 0.0
C3548 C 0.03264 0.70735 0.63827 0.0
C3549 C 0.01874 0.70056 0.64738 0.0
C3550 C 0.04354 0.74731 0.6445 0.0
C3551 C 0.0384 0.69814 0.6295 0.0
C3552 C 0.06954 0.74092 0.59548 0.0
C3553 C 0.08245 0.74529 0.60635 0.0
C3554 C 0.05593 0.73327 0.60523 0.0
C3555 C 0.05521 0.73003 0.62643 0.0
C3556 C 0.0682 0.73425 0.63746 0.0
C3557 C 0.0817 0.74176 0.62723 0.0
C3558 C 0.04233 0.72879 0.59286 0.0
C3559 C 0.06786 0.73111 0.66013 0.0
H3560 H 0.01663 0.73028 0.66017 0.0
H3561 H 0.01242 0.68884 0.64812 0.0
H3562 H 0.05438 0.7515 0.65166 0.0
H3563 H 0.04541 0.75099 0.62827 0.0
H3564 H 0.0378 0.75218 0.65251 0.0
H3565 H 0.03088 0.6864 0.63227 0.0
H3566 H 0.0401 0.69997 0.61267 0.0
H3567 H 0.04912 0.70131 0.63635 0.0
H3568 H 0.0701 0.74344 0.57924 0.0
H3569 H 0.09168 0.74518 0.63564 0.0
H3570 H 0.03654 0.73417 0.59904 0.0
H3571 H 0.0348 0.71693 0.59418 0.0
H3572 H 0.04475 0.73161 0.57632 0.0
H3573 H 0.06305 0.73665 0.66877 0.0
H3574 H 0.07888 0.73475 0.66634 0.0
H3575 H 0.06084 0.71932 0.663 0.0
C3576 C 0.96681 0.6218 0.70646 0.0
C3577 C 0.97827 0.63573 0.70174 0.0
C3578 C 0.96957 0.6112 0.71417 0.0
C3579 C 0.98414 0.61452 0.71668 0.0
C3580 C 0.99576 0.62836 0.711 0.0
C3581 C 0.99268 0.63889 0.70387 0.0
C3582 C 0.95687 0.59667 0.72046 0.0
C3583 C 0.01142 0.63217 0.71295 0.0
C3584 C 0.99043 0.59343 0.75801 0.0
C3585 C 0.99021 0.58219 0.74662 0.0
C3586 C 0.98877 0.60418 0.74837 0.0
C3587 C 0.98715 0.60385 0.72674 0.0
C3588 C 0.98756 0.59287 0.71505 0.0
C3589 C 0.98887 0.58202 0.72519 0.0
C3590 C 0.98809 0.61551 0.76145 0.0
C3591 C 0.98624 0.59239 0.69193 0.0
H3592 H 0.95566 0.61934 0.7049 0.0
H3593 H 0.00157 0.64962 0.70003 0.0
H3594 H 0.95751 0.58781 0.71256 0.0
H3595 H 0.95733 0.5951 0.73725 0.0
H3596 H 0.94621 0.59564 0.71687 0.0
H3597 H 0.01909 0.64281 0.70586 0.0
H3598 H 0.01424 0.63257 0.72943 0.0
H3599 H 0.01301 0.62371 0.70555 0.0
H3600 H 0.99125 0.59343 0.77462 0.0
H3601 H 0.9887 0.57331 0.71641 0.0
H3602 H 0.97726 0.61454 0.75976 0.0
H3603 H 0.99638 0.62652 0.75623 0.0
H3604 H 0.9899 0.61446 0.77801 0.0
H3605 H 0.97516 0.58991 0.68756 0.0
H3606 H 0.98826 0.58407 0.68497 0.0
H3607 H 0.99409 0.60311 0.68525 0.0
C3608 C 0.37822 0.34585 0.68944 0.0
C3609 C 0.36441 0.34188 0.69737 0.0
C3610 C 0.39065 0.35876 0.69558 0.0
C3611 C 0.38923 0.36793 0.70997 0.0
C3612 C 0.37524 0.36428 0.71735 0.0
C3613 C 0.363 0.3513 0.71097 0.0
C3614 C 0.40538 0.36228 0.68737 0.0
C3615 C 0.37327 0.3738 0.73266 0.0
C3616 C 0.42069 0.39066 0.74577 0.0
C3617 C 0.42664 0.40456 0.73722 0.0
C3618 C 0.40872 0.37866 0.73679 0.0
C3619 C 0.40243 0.38055 0.71883 0.0
C3620 C 0.40847 0.39449 0.7099 0.0
C3621 C 0.42051 0.40635 0.71923 0.0
C3622 C 0.40259 0.36399 0.74684 0.0
C3623 C 0.40205 0.3969 0.69074 0.0
H3624 H 0.37939 0.33866 0.67885 0.0
H3625 H 0.35236 0.34836 0.71706 0.0
H3626 H 0.41142 0.37354 0.68146 0.0
H3627 H 0.41192 0.36152 0.7 0.0
H3628 H 0.4045 0.3548 0.67485 0.0
H3629 H 0.3616 0.37009 0.73552 0.0
H3630 H 0.37836 0.37377 0.74749 0.0
H3631 H 0.3788 0.38515 0.72711 0.0
H3632 H 0.42512 0.38921 0.75992 0.0
H3633 H 0.42511 0.41703 0.71247 0.0
H3634 H 0.40224 0.35601 0.73558 0.0
H3635 H 0.39124 0.36004 0.75201 0.0
H3636 H 0.40908 0.36426 0.76031 0.0
H3637 H 0.40167 0.38963 0.67825 0.0
H3638 H 0.40836 0.40828 0.68525 0.0
H3639 H 0.39067 0.39415 0.69382 0.0
C3640 C 0.64547 0.03922 0.70152 0.0
C3641 C 0.65042 0.03086 0.69161 0.0
C3642 C 0.63162 0.03268 0.71073 0.0
C3643 C 0.6224 0.01746 0.70954 0.0
C3644 C 0.62708 0.00905 0.69868 0.0
C3645 C 0.64111 0.01583 0.69006 0.0
C3646 C 0.62715 0.04198 0.72254 0.0
C3647 C 0.61742 0.99283 0.69668 0.0
C3648 C 0.59481 -0.00166 0.75217 0.0
C3649 C 0.58201 0.99645 0.74332 0.0
C3650 C 0.60804 0.0053 0.74138 0.0
C3651 C 0.6084 0.01021 0.72108 0.0
C3652 C 0.59544 0.00819 0.71197 0.0
C3653 C 0.58239 0.00147 0.72334 0.0
C3654 C 0.62167 0.00751 0.7518 0.0
C3655 C 0.59536 0.01301 0.69021 0.0
H3656 H 0.65266 0.05084 0.70283 0.0
H3657 H 0.64484 0.00934 0.68222 0.0
H3658 H 0.61643 0.03998 0.71714 0.0
H3659 H 0.62594 0.03906 0.73909 0.0
H3660 H 0.63522 0.05372 0.72101 0.0
H3661 H 0.62207 0.98808 0.686 0.0
H3662 H 0.61592 0.98769 0.71198 0.0
H3663 H 0.60648 0.99006 0.69109 0.0
H3664 H 0.5945 0.99459 0.76774 0.0
H3665 H 0.57243 -5e-05 0.71656 0.0
H3666 H 0.63003 0.01921 0.752 0.0
H3667 H 0.6263 0.00186 0.74306 0.0
H3668 H 0.61958 0.00342 0.76786 0.0
H3669 H 0.60283 0.02487 0.68883 0.0
H3670 H 0.58431 0.01037 0.68526 0.0
H3671 H 0.5994 0.00772 0.67951 0.0
loop_
_geom_bond_atom_site_label_1
_geom_bond_atom_site_label_2
_geom_bond_distance
_geom_bond_site_symmetry_2
_ccdc_geom_bond_type
C0 O1 1.332 . S
C0 O3 1.154 1_554 S
O1 C0 1.332 . S
O1 Cd2 2.228 . S
Cd2 O1 2.228 . S
Cd2 O6 2.273 . S
Cd2 O10 2.277 1_554 S
O3 C0 1.154 1_556 S
O3 Cd4 2.179 1_656 S
Cd4 O3 2.179 1_454 S
Cd4 O6 2.411 1_455 S
Cd4 O7 2.333 . S
Cd4 O8 2.352 . S
Cd4 O12 2.277 1_554 S
Cd4 O13 2.356 . S
C5 O10 1.209 1_455 S
C5 O12 1.226 . S
O6 Cd2 2.273 . S
O6 Cd4 2.411 1_655 S
O6 C9 1.320 1_655 S
O7 Cd4 2.333 . S
O7 C9 1.214 . S
O8 Cd4 2.352 . S
O8 C11 1.258 . S
C9 O6 1.320 1_455 S
C9 O7 1.214 . S
O10 Cd2 2.277 1_556 S
O10 C5 1.209 1_655 S
C11 O8 1.258 . S
C11 O13 1.282 . S
O12 Cd4 2.277 1_556 S
O12 C5 1.226 . S
O13 Cd4 2.356 . S
O13 C11 1.282 . S
C14 O15 1.306 . S
C14 O17 1.160 . S
O15 C14 1.306 . S
O15 Cd16 2.228 . S
Cd16 O15 2.228 . S
Cd16 O20 2.273 1_554 S
Cd16 O24 2.277 . S
O17 C14 1.160 . S
O17 Cd18 2.203 . S
Cd18 O17 2.203 . S
Cd18 O20 2.411 1_554 S
Cd18 O21 2.333 1_554 S
Cd18 O22 2.352 1_554 S
Cd18 O26 2.277 . S
Cd18 O27 2.356 . S
C19 O24 1.209 . S
C19 O26 1.226 . S
O20 Cd16 2.273 1_556 S
O20 Cd18 2.411 1_556 S
O20 C23 1.320 . S
O21 Cd18 2.333 1_556 S
O21 C23 1.214 . S
O22 Cd18 2.352 1_556 S
O22 C25 1.258 . S
C23 O20 1.320 . S
C23 O21 1.214 . S
O24 Cd16 2.277 . S
O24 C19 1.209 . S
C25 O22 1.258 . S
C25 O27 1.282 1_556 S
O26 Cd18 2.277 . S
O26 C19 1.226 . S
O27 Cd18 2.356 . S
O27 C25 1.282 1_554 S
C28 O29 1.306 . S
C28 O31 1.160 . S
O29 C28 1.306 . S
O29 Cd30 2.228 . S
Cd30 O29 2.228 . S
Cd30 O34 2.273 1_554 S
Cd30 O38 2.277 . S
O31 C28 1.160 . S
O31 Cd32 2.203 1_565 S
Cd32 O31 2.203 1_545 S
Cd32 O34 2.411 1_544 S
Cd32 O35 2.333 1_554 S
Cd32 O36 2.352 1_554 S
Cd32 O40 2.277 . S
Cd32 O41 2.356 . S
C33 O38 1.209 1_545 S
C33 O40 1.226 . S
O34 Cd30 2.273 1_556 S
O34 Cd32 2.411 1_566 S
O34 C37 1.320 1_565 S
O35 Cd32 2.333 1_556 S
O35 C37 1.214 . S
O36 Cd32 2.352 1_556 S
O36 C39 1.257 . S
C37 O34 1.320 1_545 S
C37 O35 1.214 . S
O38 Cd30 2.277 . S
O38 C33 1.209 1_565 S
C39 O36 1.257 . S
C39 O41 1.286 1_556 S
O40 Cd32 2.277 . S
O40 C33 1.226 . S
O41 Cd32 2.356 . S
O41 C39 1.286 1_554 S
C42 O43 1.306 1_556 S
C42 O45 1.160 . S
O43 C42 1.306 1_554 S
O43 Cd44 2.228 . S
Cd44 O43 2.228 . S
Cd44 O48 2.273 . S
Cd44 O52 2.277 1_554 S
O45 C42 1.160 . S
O45 Cd46 2.203 1_656 S
Cd46 O45 2.203 1_454 S
Cd46 O48 2.411 1_455 S
Cd46 O49 2.333 . S
Cd46 O50 2.352 . S
Cd46 O54 2.277 1_554 S
Cd46 O55 2.356 . S
C47 O52 1.209 1_455 S
C47 O54 1.226 . S
O48 Cd44 2.273 . S
O48 Cd46 2.411 1_655 S
O48 C51 1.320 1_655 S
O49 Cd46 2.333 . S
O49 C51 1.214 . S
O50 Cd46 2.352 . S
O50 C53 1.258 . S
C51 O48 1.320 1_455 S
C51 O49 1.214 . S
O52 Cd44 2.277 1_556 S
O52 C47 1.209 1_655 S
C53 O50 1.258 . S
C53 O55 1.282 . S
O54 Cd46 2.277 1_556 S
O54 C47 1.226 . S
O55 Cd46 2.356 . S
O55 C53 1.282 . S
C56 O57 1.306 . S
C56 O59 1.160 . S
O57 C56 1.306 . S
O57 Cd58 2.228 . S
Cd58 O57 2.228 . S
Cd58 O62 2.273 1_554 S
Cd58 O66 2.277 . S
O59 C56 1.160 . S
O59 Cd60 2.203 . S
Cd60 O59 2.203 . S
Cd60 O62 2.411 1_554 S
Cd60 O63 2.333 1_554 S
Cd60 O64 2.352 1_554 S
Cd60 O68 2.277 . S
Cd60 O69 2.356 . S
C61 O66 1.209 . S
C61 O68 1.226 . S
O62 Cd58 2.273 1_556 S
O62 Cd60 2.411 1_556 S
O62 C65 1.320 . S
O63 Cd60 2.333 1_556 S
O63 C65 1.214 . S
O64 Cd60 2.352 1_556 S
O64 C67 1.258 . S
C65 O62 1.320 . S
C65 O63 1.214 . S
O66 Cd58 2.277 . S
O66 C61 1.209 . S
C67 O64 1.258 . S
C67 O69 1.282 1_556 S
O68 Cd60 2.277 . S
O68 C61 1.226 . S
O69 Cd60 2.356 . S
O69 C67 1.282 1_554 S
C70 O71 1.306 . S
C70 O73 1.160 1_554 S
O71 C70 1.306 . S
O71 Cd72 2.228 . S
Cd72 O71 2.228 . S
Cd72 O76 2.273 . S
Cd72 O80 2.277 1_554 S
O73 C70 1.160 1_556 S
O73 Cd74 2.203 1_546 S
Cd74 O73 2.203 1_564 S
Cd74 O76 2.411 1_565 S
Cd74 O77 2.333 . S
Cd74 O78 2.352 . S
Cd74 O82 2.277 1_554 S
Cd74 O83 2.356 . S
C75 O80 1.195 1_565 S
C75 O82 1.245 . S
O76 Cd72 2.273 . S
O76 Cd74 2.411 1_545 S
O76 C79 1.333 . S
O77 Cd74 2.333 . S
O77 C79 1.187 1_565 S
O78 Cd74 2.352 . S
O78 C81 1.258 . S
C79 O76 1.333 . S
C79 O77 1.187 1_545 S
O80 Cd72 2.277 1_556 S
O80 C75 1.195 1_545 S
C81 O78 1.258 . S
C81 O83 1.282 . S
O82 Cd74 2.277 1_556 S
O82 C75 1.245 . S
O83 Cd74 2.356 . S
O83 C81 1.282 . S
C84 O85 1.306 . S
C84 O87 1.160 . S
O85 C84 1.306 . S
O85 Cd86 2.228 . S
Cd86 O85 2.228 . S
Cd86 O90 2.273 . S
Cd86 O94 2.277 . S
O87 C84 1.160 . S
O87 Cd88 2.203 . S
Cd88 O87 2.203 . S
Cd88 O90 2.411 . S
Cd88 O91 2.333 . S
Cd88 O92 2.352 . S
Cd88 O96 2.277 . S
Cd88 O97 2.356 . S
C89 O94 1.209 . S
C89 O96 1.226 . S
O90 Cd86 2.273 . S
O90 Cd88 2.411 . S
O90 C93 1.320 . S
O91 Cd88 2.333 . S
O91 C93 1.214 . S
O92 Cd88 2.352 . S
O92 C95 1.258 . S
C93 O90 1.320 . S
C93 O91 1.214 . S
O94 Cd86 2.277 . S
O94 C89 1.209 . S
C95 O92 1.258 . S
C95 O97 1.282 . S
O96 Cd88 2.277 . S
O96 C89 1.226 . S
O97 Cd88 2.356 . S
O97 C95 1.282 . S
C98 O99 1.306 1_545 S
C98 O101 1.160 1_545 S
O99 C98 1.306 1_565 S
O99 Cd100 2.228 . S
Cd100 O99 2.228 . S
Cd100 O104 2.273 . S
Cd100 O108 2.277 . S
O101 C98 1.160 1_565 S
O101 Cd102 2.203 . S
Cd102 O101 2.203 . S
Cd102 O104 2.411 . S
Cd102 O105 2.333 . S
Cd102 O106 2.352 . S
Cd102 O110 2.277 . S
Cd102 O111 2.356 . S
C103 O108 1.209 . S
C103 O110 1.226 . S
O104 Cd100 2.273 . S
O104 Cd102 2.411 . S
O104 C107 1.320 . S
O105 Cd102 2.333 . S
O105 C107 1.214 . S
O106 Cd102 2.352 . S
O106 C109 1.258 . S
C107 O104 1.320 . S
C107 O105 1.214 . S
O108 Cd100 2.277 . S
O108 C103 1.209 . S
C109 O106 1.258 . S
C109 O111 1.282 . S
O110 Cd102 2.277 . S
O110 C103 1.226 . S
O111 Cd102 2.356 . S
O111 C109 1.282 . S
C112 O113 1.306 . S
C112 O115 1.160 . S
O113 C112 1.306 . S
O113 Cd114 2.228 . S
Cd114 O113 2.228 . S
Cd114 O118 2.273 . S
Cd114 O122 2.277 . S
O115 C112 1.160 . S
O115 Cd116 2.203 . S
Cd116 O115 2.203 . S
Cd116 O118 2.411 . S
Cd116 O119 2.333 . S
Cd116 O120 2.352 . S
Cd116 O124 2.277 . S
Cd116 O125 2.356 . S
C117 O122 1.209 . S
C117 O124 1.226 . S
O118 Cd114 2.273 . S
O118 Cd116 2.411 . S
O118 C121 1.320 . S
O119 Cd116 2.333 . S
O119 C121 1.214 . S
O120 Cd116 2.352 . S
O120 C123 1.258 . S
C121 O118 1.320 . S
C121 O119 1.214 . S
O122 Cd114 2.277 . S
O122 C117 1.209 . S
C123 O120 1.258 . S
C123 O125 1.282 . S
O124 Cd116 2.277 . S
O124 C117 1.226 . S
O125 Cd116 2.356 . S
O125 C123 1.282 . S
C126 O127 1.306 . S
C126 O129 1.160 . S
O127 C126 1.306 . S
O127 Cd128 2.228 . S
Cd128 O127 2.228 . S
Cd128 O132 2.273 . S
Cd128 O136 2.277 . S
O129 C126 1.160 . S
O129 Cd130 2.203 . S
Cd130 O129 2.203 . S
Cd130 O132 2.411 . S
Cd130 O133 2.333 . S
Cd130 O134 2.352 . S
Cd130 O138 2.277 . S
Cd130 O139 2.374 . S
C131 O136 1.209 . S
C131 O138 1.226 . S
O132 Cd128 2.273 . S
O132 Cd130 2.411 . S
O132 C135 1.320 . S
O133 Cd130 2.333 . S
O133 C135 1.214 . S
O134 Cd130 2.352 . S
O134 C137 1.258 1_565 S
C135 O132 1.320 . S
C135 O133 1.214 . S
O136 Cd128 2.277 . S
O136 C131 1.209 . S
C137 O134 1.258 1_545 S
C137 O139 1.256 1_545 S
O138 Cd130 2.277 . S
O138 C131 1.226 . S
O139 Cd130 2.374 . S
O139 C137 1.256 1_565 S
C140 O141 1.306 . S
C140 O143 1.160 . S
O141 C140 1.306 . S
O141 Cd142 2.228 . S
Cd142 O141 2.228 . S
Cd142 O146 2.273 . S
Cd142 O150 2.277 . S
O143 C140 1.160 . S
O143 Cd144 2.203 . S
Cd144 O143 2.203 . S
Cd144 O146 2.411 . S
Cd144 O147 2.333 . S
Cd144 O148 2.352 . S
Cd144 O152 2.277 . S
Cd144 O153 2.356 . S
C145 O150 1.209 . S
C145 O152 1.226 . S
O146 Cd142 2.273 . S
O146 Cd144 2.411 . S
O146 C149 1.320 . S
O147 Cd144 2.333 . S
O147 C149 1.214 . S
O148 Cd144 2.352 . S
O148 C151 1.258 . S
C149 O146 1.320 . S
C149 O147 1.214 . S
O150 Cd142 2.277 . S
O150 C145 1.209 . S
C151 O148 1.258 . S
C151 O153 1.282 . S
O152 Cd144 2.277 . S
O152 C145 1.226 . S
O153 Cd144 2.356 . S
O153 C151 1.282 . S
C154 O155 1.306 . S
C154 O157 1.160 . S
O155 C154 1.306 . S
O155 Cd156 2.228 . S
Cd156 O155 2.228 . S
Cd156 O160 2.273 . S
Cd156 O164 2.277 . S
O157 C154 1.160 . S
O157 Cd158 2.203 . S
Cd158 O157 2.203 . S
Cd158 O160 2.411 . S
Cd158 O161 2.333 . S
Cd158 O162 2.352 . S
Cd158 O166 2.277 . S
Cd158 O167 2.356 . S
C159 O164 1.209 . S
C159 O166 1.226 . S
O160 Cd156 2.273 . S
O160 Cd158 2.411 . S
O160 C163 1.320 . S
O161 Cd158 2.333 . S
O161 C163 1.214 . S
O162 Cd158 2.352 . S
O162 C165 1.258 . S
C163 O160 1.320 . S
C163 O161 1.214 . S
O164 Cd156 2.277 . S
O164 C159 1.209 . S
C165 O162 1.258 . S
C165 O167 1.282 . S
O166 Cd158 2.277 . S
O166 C159 1.226 . S
O167 Cd158 2.356 . S
O167 C165 1.282 . S
C168 O169 1.306 . S
C168 O171 1.160 . S
O169 C168 1.306 . S
O169 Cd170 2.228 . S
Cd170 O169 2.228 . S
Cd170 O174 2.273 . S
Cd170 O178 2.277 . S
O171 C168 1.160 . S
O171 Cd172 2.203 . S
Cd172 O171 2.203 . S
Cd172 O174 2.411 . S
Cd172 O175 2.333 . S
Cd172 O176 2.352 . S
Cd172 O180 2.277 . S
Cd172 O181 2.356 . S
C173 O178 1.209 . S
C173 O180 1.226 . S
O174 Cd170 2.273 . S
O174 Cd172 2.411 . S
O174 C177 1.320 . S
O175 Cd172 2.333 . S
O175 C177 1.214 . S
O176 Cd172 2.352 . S
O176 C179 1.258 . S
C177 O174 1.320 . S
C177 O175 1.214 . S
O178 Cd170 2.277 . S
O178 C173 1.209 . S
C179 O176 1.258 . S
C179 O181 1.282 . S
O180 Cd172 2.277 . S
O180 C173 1.226 . S
O181 Cd172 2.356 . S
O181 C179 1.282 . S
C182 O183 1.306 . S
C182 O185 1.160 . S
O183 C182 1.306 . S
O183 Cd184 2.228 . S
Cd184 O183 2.228 . S
Cd184 O188 2.273 . S
Cd184 O192 2.277 . S
O185 C182 1.160 . S
O185 Cd186 2.203 . S
Cd186 O185 2.203 . S
Cd186 O188 2.411 . S
Cd186 O189 2.333 . S
Cd186 O190 2.364 . S
Cd186 O194 2.277 . S
Cd186 O195 2.356 1_655 S
C187 O192 1.209 . S
C187 O194 1.226 . S
O188 Cd184 2.273 . S
O188 Cd186 2.411 . S
O188 C191 1.320 . S
O189 Cd186 2.333 . S
O189 C191 1.214 . S
O190 Cd186 2.364 . S
O190 C193 1.239 1_655 S
C191 O188 1.320 . S
C191 O189 1.214 . S
O192 Cd184 2.277 . S
O192 C187 1.209 . S
C193 O190 1.239 1_455 S
C193 O195 1.282 . S
O194 Cd186 2.277 . S
O194 C187 1.226 . S
O195 Cd186 2.356 1_455 S
O195 C193 1.282 . S
C196 O197 1.306 . S
C196 O199 1.160 . S
O197 C196 1.306 . S
O197 Cd198 2.228 . S
Cd198 O197 2.228 . S
Cd198 O202 2.273 . S
Cd198 O206 2.277 . S
O199 C196 1.160 . S
O199 Cd200 2.203 . S
Cd200 O199 2.203 . S
Cd200 O202 2.411 . S
Cd200 O203 2.333 . S
Cd200 O204 2.352 . S
Cd200 O208 2.277 . S
Cd200 O209 2.356 . S
C201 O206 1.209 . S
C201 O208 1.226 . S
O202 Cd198 2.273 . S
O202 Cd200 2.411 . S
O202 C205 1.320 . S
O203 Cd200 2.333 . S
O203 C205 1.214 . S
O204 Cd200 2.352 . S
O204 C207 1.258 . S
C205 O202 1.320 . S
C205 O203 1.214 . S
O206 Cd198 2.277 . S
O206 C201 1.209 . S
C207 O204 1.258 . S
C207 O209 1.282 . S
O208 Cd200 2.277 . S
O208 C201 1.226 . S
O209 Cd200 2.356 . S
O209 C207 1.282 . S
C210 O211 1.306 . S
C210 O213 1.160 . S
O211 C210 1.306 . S
O211 Cd212 2.228 . S
Cd212 O211 2.228 . S
Cd212 O216 2.273 . S
Cd212 O220 2.277 . S
O213 C210 1.160 . S
O213 Cd214 2.203 . S
Cd214 O213 2.203 . S
Cd214 O216 2.411 . S
Cd214 O217 2.333 . S
Cd214 O218 2.352 . S
Cd214 O222 2.277 . S
Cd214 O223 2.356 . S
C215 O220 1.209 . S
C215 O222 1.226 . S
O216 Cd212 2.273 . S
O216 Cd214 2.411 . S
O216 C219 1.320 . S
O217 Cd214 2.333 . S
O217 C219 1.214 . S
O218 Cd214 2.352 . S
O218 C221 1.258 . S
C219 O216 1.320 . S
C219 O217 1.214 . S
O220 Cd212 2.277 . S
O220 C215 1.209 . S
C221 O218 1.258 . S
C221 O223 1.282 . S
O222 Cd214 2.277 . S
O222 C215 1.226 . S
O223 Cd214 2.356 . S
O223 C221 1.282 . S
C224 O225 1.306 . S
C224 O227 1.160 . S
O225 C224 1.306 . S
O225 Cd226 2.228 . S
Cd226 O225 2.228 . S
Cd226 O230 2.273 . S
Cd226 O234 2.277 . S
O227 C224 1.160 . S
O227 Cd228 2.203 . S
Cd228 O227 2.203 . S
Cd228 O230 2.411 . S
Cd228 O231 2.333 . S
Cd228 O232 2.352 . S
Cd228 O236 2.277 . S
Cd228 O237 2.356 . S
C229 O234 1.209 . S
C229 O236 1.226 . S
O230 Cd226 2.273 . S
O230 Cd228 2.411 . S
O230 C233 1.320 . S
O231 Cd228 2.333 . S
O231 C233 1.214 . S
O232 Cd228 2.352 . S
O232 C235 1.258 1_545 S
C233 O230 1.320 . S
C233 O231 1.214 . S
O234 Cd226 2.277 . S
O234 C229 1.209 . S
C235 O232 1.258 1_565 S
C235 O237 1.282 1_565 S
O236 Cd228 2.277 . S
O236 C229 1.226 . S
O237 Cd228 2.356 . S
O237 C235 1.282 1_545 S
C238 O239 1.241 1_455 S
C238 O241 1.165 1_455 S
O239 C238 1.241 1_655 S
O239 Cd240 2.228 . S
Cd240 O239 2.228 . S
Cd240 O244 2.273 . S
Cd240 O248 2.277 . S
O241 C238 1.165 1_655 S
O241 Cd242 2.203 . S
Cd242 O241 2.203 . S
Cd242 O244 2.411 . S
Cd242 O245 2.333 . S
Cd242 O246 2.352 . S
Cd242 O250 2.277 . S
Cd242 O251 2.356 . S
C243 O248 1.209 . S
C243 O250 1.226 . S
O244 Cd240 2.273 . S
O244 Cd242 2.411 . S
O244 C247 1.320 . S
O245 Cd242 2.333 . S
O245 C247 1.214 . S
O246 Cd242 2.352 . S
O246 C249 1.258 . S
C247 O244 1.320 . S
C247 O245 1.214 . S
O248 Cd240 2.277 . S
O248 C243 1.209 . S
C249 O246 1.258 . S
C249 O251 1.282 . S
O250 Cd242 2.277 . S
O250 C243 1.226 . S
O251 Cd242 2.356 . S
O251 C249 1.282 . S
H252 C279 0.929 . S
N253 C278 1.433 . S
N253 C284 1.435 . S
N253 C290 1.423 . S
H254 C280 0.930 . S
H255 C283 0.931 . S
H256 C282 0.929 . S
H257 C285 0.930 . S
H258 C286 0.932 . S
H259 C289 0.929 . S
H260 C288 0.931 . S
H261 C291 0.929 . S
H262 C295 0.932 . S
H263 C292 0.931 . S
H264 C294 0.929 . S
H265 C297 0.929 . S
H266 C298 0.930 . S
H267 C300 0.929 . S
H268 C301 0.931 . S
H269 C303 0.930 . S
H270 C304 0.932 . S
H271 C306 0.931 . S
H272 C307 0.929 . S
H273 C309 0.929 . S
H274 C310 0.931 . S
H275 C312 0.929 . S
N276 C296 1.433 . S
N276 C302 1.435 . S
N276 C308 1.423 . S
H277 C313 0.932 . S
C278 N253 1.433 . S
C278 C279 1.363 . S
C278 C283 1.370 . S
C279 H252 0.929 . S
C279 C278 1.363 . S
C279 C280 1.385 . S
C280 H254 0.930 . S
C280 C279 1.385 . S
C280 C281 1.357 . S
C281 C280 1.357 . S
C281 C282 1.406 . S
C282 H256 0.929 . S
C282 C281 1.406 . S
C282 C283 1.391 . S
C283 H255 0.931 . S
C283 C278 1.370 . S
C283 C282 1.391 . S
C284 N253 1.435 . S
C284 C285 1.358 . S
C284 C289 1.371 . S
C285 H257 0.930 . S
C285 C284 1.358 . S
C285 C286 1.405 . S
C286 H258 0.932 . S
C286 C285 1.405 . S
C286 C287 1.383 . S
C287 C286 1.383 . S
C287 C288 1.393 . S
C288 H260 0.931 . S
C288 C287 1.393 . S
C288 C289 1.382 . S
C289 H259 0.929 . S
C289 C284 1.371 . S
C289 C288 1.382 . S
C290 N253 1.423 . S
C290 C291 1.362 . S
C290 C295 1.388 . S
C291 H261 0.929 . S
C291 C290 1.362 . S
C291 C292 1.376 . S
C292 H263 0.931 . S
C292 C291 1.376 . S
C292 C293 1.396 . S
C293 C292 1.396 . S
C293 C294 1.348 . S
C293 C311 1.472 . S
C294 H264 0.929 . S
C294 C293 1.348 . S
C294 C295 1.443 . S
C295 H262 0.932 . S
C295 C290 1.388 . S
C295 C294 1.443 . S
C296 N276 1.433 . S
C296 C297 1.363 . S
C296 C301 1.370 . S
C297 H265 0.929 . S
C297 C296 1.363 . S
C297 C298 1.385 . S
C298 H266 0.930 . S
C298 C297 1.385 . S
C298 C299 1.357 . S
C299 C298 1.357 . S
C299 C300 1.406 . S
C300 H267 0.929 . S
C300 C299 1.406 . S
C300 C301 1.391 . S
C301 H268 0.931 . S
C301 C296 1.370 . S
C301 C300 1.391 . S
C302 N276 1.435 . S
C302 C303 1.358 . S
C302 C307 1.371 . S
C303 H269 0.930 . S
C303 C302 1.358 . S
C303 C304 1.405 . S
C304 H270 0.932 . S
C304 C303 1.405 . S
C304 C305 1.383 . S
C305 C304 1.383 . S
C305 C306 1.393 . S
C306 H271 0.931 . S
C306 C305 1.393 . S
C306 C307 1.382 . S
C307 H272 0.929 . S
C307 C302 1.371 . S
C307 C306 1.382 . S
C308 N276 1.423 . S
C308 C309 1.362 . S
C308 C313 1.388 . S
C309 H273 0.929 . S
C309 C308 1.362 . S
C309 C310 1.376 . S
C310 H274 0.931 . S
C310 C309 1.376 . S
C310 C311 1.396 . S
C311 C293 1.472 . S
C311 C310 1.396 . S
C311 C312 1.348 . S
C312 H275 0.929 . S
C312 C311 1.348 . S
C312 C313 1.443 . S
C313 H277 0.932 . S
C313 C308 1.388 . S
C313 C312 1.443 . S
H314 C341 0.929 . S
N315 C340 1.433 . S
N315 C346 1.435 . S
N315 C352 1.423 . S
H316 C342 0.930 . S
H317 C345 0.931 . S
H318 C344 0.929 . S
H319 C347 0.930 . S
H320 C348 0.932 . S
H321 C351 0.929 . S
H322 C350 0.931 . S
H323 C353 0.929 . S
H324 C357 0.932 . S
H325 C354 0.931 . S
H326 C356 0.929 . S
H327 C359 0.929 . S
H328 C360 0.930 . S
H329 C362 0.929 . S
H330 C363 0.931 . S
H331 C365 0.930 . S
H332 C366 0.932 . S
H333 C368 0.931 . S
H334 C369 0.929 . S
H335 C371 0.929 . S
H336 C372 0.931 . S
H337 C374 0.929 . S
N338 C358 1.433 . S
N338 C364 1.435 . S
N338 C370 1.423 . S
H339 C375 0.932 . S
C340 N315 1.433 . S
C340 C341 1.363 . S
C340 C345 1.370 . S
C341 H314 0.929 . S
C341 C340 1.363 . S
C341 C342 1.385 . S
C342 H316 0.930 . S
C342 C341 1.385 . S
C342 C343 1.357 . S
C343 C342 1.357 . S
C343 C344 1.406 . S
C344 H318 0.929 . S
C344 C343 1.406 . S
C344 C345 1.391 . S
C345 H317 0.931 . S
C345 C340 1.370 . S
C345 C344 1.391 . S
C346 N315 1.435 . S
C346 C347 1.358 . S
C346 C351 1.371 . S
C347 H319 0.930 . S
C347 C346 1.358 . S
C347 C348 1.405 . S
C348 H320 0.932 . S
C348 C347 1.405 . S
C348 C349 1.383 . S
C349 C348 1.383 . S
C349 C350 1.393 . S
C350 H322 0.931 . S
C350 C349 1.393 . S
C350 C351 1.382 . S
C351 H321 0.929 . S
C351 C346 1.371 . S
C351 C350 1.382 . S
C352 N315 1.423 . S
C352 C353 1.362 . S
C352 C357 1.388 . S
C353 H323 0.929 . S
C353 C352 1.362 . S
C353 C354 1.376 . S
C354 H325 0.931 . S
C354 C353 1.376 . S
C354 C355 1.396 . S
C355 C354 1.396 . S
C355 C356 1.348 . S
C355 C373 1.472 . S
C356 H326 0.929 . S
C356 C355 1.348 . S
C356 C357 1.443 . S
C357 H324 0.932 . S
C357 C352 1.388 . S
C357 C356 1.443 . S
C358 N338 1.433 . S
C358 C359 1.363 . S
C358 C363 1.370 . S
C359 H327 0.929 . S
C359 C358 1.363 . S
C359 C360 1.385 . S
C360 H328 0.930 . S
C360 C359 1.385 . S
C360 C361 1.357 . S
C361 C360 1.357 . S
C361 C362 1.406 . S
C362 H329 0.929 . S
C362 C361 1.406 . S
C362 C363 1.391 . S
C363 H330 0.931 . S
C363 C358 1.370 . S
C363 C362 1.391 . S
C364 N338 1.435 . S
C364 C365 1.358 . S
C364 C369 1.371 . S
C365 H331 0.930 . S
C365 C364 1.358 . S
C365 C366 1.405 . S
C366 H332 0.932 . S
C366 C365 1.405 . S
C366 C367 1.383 . S
C367 C366 1.383 . S
C367 C368 1.393 . S
C368 H333 0.931 . S
C368 C367 1.393 . S
C368 C369 1.382 . S
C369 H334 0.929 . S
C369 C364 1.371 . S
C369 C368 1.382 . S
C370 N338 1.423 . S
C370 C371 1.362 . S
C370 C375 1.388 . S
C371 H335 0.929 . S
C371 C370 1.362 . S
C371 C372 1.376 . S
C372 H336 0.931 . S
C372 C371 1.376 . S
C372 C373 1.396 . S
C373 C355 1.472 . S
C373 C372 1.396 . S
C373 C374 1.348 . S
C374 H337 0.929 . S
C374 C373 1.348 . S
C374 C375 1.443 . S
C375 H339 0.932 . S
C375 C370 1.388 . S
C375 C374 1.443 . S
H376 C403 0.929 . S
N377 C402 1.433 . S
N377 C408 1.435 . S
N377 C414 1.423 . S
H378 C404 0.930 . S
H379 C407 0.931 . S
H380 C406 0.929 . S
H381 C409 0.930 . S
H382 C410 0.932 . S
H383 C413 0.929 . S
H384 C412 0.931 . S
H385 C415 0.929 . S
H386 C419 0.932 . S
H387 C416 0.931 . S
H388 C418 0.929 . S
H389 C421 0.929 . S
H390 C422 0.930 . S
H391 C424 0.929 . S
H392 C425 0.931 . S
H393 C427 0.930 . S
H394 C428 0.932 . S
H395 C430 0.931 . S
H396 C431 0.929 . S
H397 C433 0.929 . S
H398 C434 0.931 . S
H399 C436 0.929 . S
N400 C420 1.433 . S
N400 C426 1.435 . S
N400 C432 1.423 . S
H401 C437 0.932 . S
C402 N377 1.433 . S
C402 C403 1.363 . S
C402 C407 1.370 . S
C403 H376 0.929 . S
C403 C402 1.363 . S
C403 C404 1.385 . S
C404 H378 0.930 . S
C404 C403 1.385 . S
C404 C405 1.357 . S
C405 C404 1.357 . S
C405 C406 1.406 . S
C406 H380 0.929 . S
C406 C405 1.406 . S
C406 C407 1.391 . S
C407 H379 0.931 . S
C407 C402 1.370 . S
C407 C406 1.391 . S
C408 N377 1.435 . S
C408 C409 1.358 . S
C408 C413 1.371 . S
C409 H381 0.930 . S
C409 C408 1.358 . S
C409 C410 1.405 . S
C410 H382 0.932 . S
C410 C409 1.405 . S
C410 C411 1.383 . S
C411 C410 1.383 . S
C411 C412 1.393 . S
C412 H384 0.931 . S
C412 C411 1.393 . S
C412 C413 1.382 . S
C413 H383 0.929 . S
C413 C408 1.371 . S
C413 C412 1.382 . S
C414 N377 1.423 . S
C414 C415 1.362 . S
C414 C419 1.388 . S
C415 H385 0.929 . S
C415 C414 1.362 . S
C415 C416 1.376 . S
C416 H387 0.931 . S
C416 C415 1.376 . S
C416 C417 1.396 . S
C417 C416 1.396 . S
C417 C418 1.348 . S
C417 C435 1.472 . S
C418 H388 0.929 . S
C418 C417 1.348 . S
C418 C419 1.443 . S
C419 H386 0.932 . S
C419 C414 1.388 . S
C419 C418 1.443 . S
C420 N400 1.433 . S
C420 C421 1.363 . S
C420 C425 1.370 . S
C421 H389 0.929 . S
C421 C420 1.363 . S
C421 C422 1.385 . S
C422 H390 0.930 . S
C422 C421 1.385 . S
C422 C423 1.357 . S
C423 C422 1.357 . S
C423 C424 1.406 . S
C424 H391 0.929 . S
C424 C423 1.406 . S
C424 C425 1.391 . S
C425 H392 0.931 . S
C425 C420 1.370 . S
C425 C424 1.391 . S
C426 N400 1.435 . S
C426 C427 1.358 . S
C426 C431 1.371 . S
C427 H393 0.930 . S
C427 C426 1.358 . S
C427 C428 1.405 . S
C428 H394 0.932 . S
C428 C427 1.405 . S
C428 C429 1.383 . S
C429 C428 1.383 . S
C429 C430 1.393 . S
C430 H395 0.931 . S
C430 C429 1.393 . S
C430 C431 1.382 . S
C431 H396 0.929 . S
C431 C426 1.371 . S
C431 C430 1.382 . S
C432 N400 1.423 . S
C432 C433 1.362 . S
C432 C437 1.388 . S
C433 H397 0.929 . S
C433 C432 1.362 . S
C433 C434 1.376 . S
C434 H398 0.931 . S
C434 C433 1.376 . S
C434 C435 1.396 . S
C435 C417 1.472 . S
C435 C434 1.396 . S
C435 C436 1.348 . S
C436 H399 0.929 . S
C436 C435 1.348 . S
C436 C437 1.443 . S
C437 H401 0.932 . S
C437 C432 1.388 . S
C437 C436 1.443 . S
H438 C465 0.929 . S
N439 C464 1.433 . S
N439 C470 1.435 . S
N439 C476 1.423 . S
H440 C466 0.930 . S
H441 C469 0.931 . S
H442 C468 0.929 . S
H443 C471 0.930 . S
H444 C472 0.932 . S
H445 C475 0.929 . S
H446 C474 0.931 . S
H447 C477 0.929 . S
H448 C481 0.932 . S
H449 C478 0.931 . S
H450 C480 0.929 . S
H451 C483 0.929 . S
H452 C484 0.930 . S
H453 C486 0.929 . S
H454 C487 0.931 . S
H455 C489 0.930 . S
H456 C490 0.932 . S
H457 C492 0.931 . S
H458 C493 0.929 . S
H459 C495 0.929 . S
H460 C496 0.931 . S
H461 C498 0.929 . S
N462 C482 1.433 . S
N462 C488 1.435 . S
N462 C494 1.423 . S
H463 C499 0.932 . S
C464 N439 1.433 . S
C464 C465 1.363 . S
C464 C469 1.370 . S
C465 H438 0.929 . S
C465 C464 1.363 . S
C465 C466 1.385 . S
C466 H440 0.930 . S
C466 C465 1.385 . S
C466 C467 1.357 . S
C467 C466 1.357 . S
C467 C468 1.406 . S
C468 H442 0.929 . S
C468 C467 1.406 . S
C468 C469 1.391 . S
C469 H441 0.931 . S
C469 C464 1.370 . S
C469 C468 1.391 . S
C470 N439 1.435 . S
C470 C471 1.358 . S
C470 C475 1.371 . S
C471 H443 0.930 . S
C471 C470 1.358 . S
C471 C472 1.405 . S
C472 H444 0.932 . S
C472 C471 1.405 . S
C472 C473 1.383 . S
C473 C472 1.383 . S
C473 C474 1.393 . S
C474 H446 0.931 . S
C474 C473 1.393 . S
C474 C475 1.382 . S
C475 H445 0.929 . S
C475 C470 1.371 . S
C475 C474 1.382 . S
C476 N439 1.423 . S
C476 C477 1.362 . S
C476 C481 1.388 . S
C477 H447 0.929 . S
C477 C476 1.362 . S
C477 C478 1.376 . S
C478 H449 0.931 . S
C478 C477 1.376 . S
C478 C479 1.396 . S
C479 C478 1.396 . S
C479 C480 1.348 . S
C479 C497 1.472 . S
C480 H450 0.929 . S
C480 C479 1.348 . S
C480 C481 1.443 . S
C481 H448 0.932 . S
C481 C476 1.388 . S
C481 C480 1.443 . S
C482 N462 1.433 . S
C482 C483 1.363 . S
C482 C487 1.370 . S
C483 H451 0.929 . S
C483 C482 1.363 . S
C483 C484 1.385 . S
C484 H452 0.930 . S
C484 C483 1.385 . S
C484 C485 1.357 . S
C485 C484 1.357 . S
C485 C486 1.406 . S
C486 H453 0.929 . S
C486 C485 1.406 . S
C486 C487 1.391 . S
C487 H454 0.931 . S
C487 C482 1.370 . S
C487 C486 1.391 . S
C488 N462 1.435 . S
C488 C489 1.358 . S
C488 C493 1.371 . S
C489 H455 0.930 . S
C489 C488 1.358 . S
C489 C490 1.405 . S
C490 H456 0.932 . S
C490 C489 1.405 . S
C490 C491 1.383 . S
C491 C490 1.383 . S
C491 C492 1.393 . S
C492 H457 0.931 . S
C492 C491 1.393 . S
C492 C493 1.382 . S
C493 H458 0.929 . S
C493 C488 1.371 . S
C493 C492 1.382 . S
C494 N462 1.423 . S
C494 C495 1.362 . S
C494 C499 1.388 . S
C495 H459 0.929 . S
C495 C494 1.362 . S
C495 C496 1.376 . S
C496 H460 0.931 . S
C496 C495 1.376 . S
C496 C497 1.396 . S
C497 C479 1.472 . S
C497 C496 1.396 . S
C497 C498 1.348 . S
C498 H461 0.929 . S
C498 C497 1.348 . S
C498 C499 1.443 . S
C499 H463 0.932 . S
C499 C494 1.388 . S
C499 C498 1.443 . S
H500 C527 0.929 . S
N501 C526 1.433 . S
N501 C532 1.435 . S
N501 C538 1.423 . S
H502 C528 0.930 . S
H503 C531 0.931 . S
H504 C530 0.929 . S
H505 C533 0.930 . S
H506 C534 0.932 . S
H507 C537 0.929 . S
H508 C536 0.931 . S
H509 C539 0.929 . S
H510 C543 0.932 . S
H511 C540 0.931 . S
H512 C542 0.929 . S
H513 C545 0.929 . S
H514 C546 0.930 . S
H515 C548 0.929 . S
H516 C549 0.931 . S
H517 C551 0.930 . S
H518 C552 0.932 . S
H519 C554 0.931 . S
H520 C555 0.929 . S
H521 C557 0.929 . S
H522 C558 0.931 . S
H523 C560 0.929 . S
N524 C544 1.433 . S
N524 C550 1.435 . S
N524 C556 1.423 . S
H525 C561 0.932 . S
C526 N501 1.433 . S
C526 C527 1.363 . S
C526 C531 1.370 . S
C527 H500 0.929 . S
C527 C526 1.363 . S
C527 C528 1.385 . S
C528 H502 0.930 . S
C528 C527 1.385 . S
C528 C529 1.357 . S
C529 C528 1.357 . S
C529 C530 1.406 . S
C530 H504 0.929 . S
C530 C529 1.406 . S
C530 C531 1.391 . S
C531 H503 0.931 . S
C531 C526 1.370 . S
C531 C530 1.391 . S
C532 N501 1.435 . S
C532 C533 1.358 . S
C532 C537 1.371 . S
C533 H505 0.930 . S
C533 C532 1.358 . S
C533 C534 1.405 . S
C534 H506 0.932 . S
C534 C533 1.405 . S
C534 C535 1.383 . S
C535 C534 1.383 . S
C535 C536 1.393 . S
C536 H508 0.931 . S
C536 C535 1.393 . S
C536 C537 1.382 . S
C537 H507 0.929 . S
C537 C532 1.371 . S
C537 C536 1.382 . S
C538 N501 1.423 . S
C538 C539 1.362 . S
C538 C543 1.388 . S
C539 H509 0.929 . S
C539 C538 1.362 . S
C539 C540 1.376 . S
C540 H511 0.931 . S
C540 C539 1.376 . S
C540 C541 1.396 . S
C541 C540 1.396 . S
C541 C542 1.348 . S
C541 C559 1.472 . S
C542 H512 0.929 . S
C542 C541 1.348 . S
C542 C543 1.443 . S
C543 H510 0.932 . S
C543 C538 1.388 . S
C543 C542 1.443 . S
C544 N524 1.433 . S
C544 C545 1.363 . S
C544 C549 1.370 . S
C545 H513 0.929 . S
C545 C544 1.363 . S
C545 C546 1.385 . S
C546 H514 0.930 . S
C546 C545 1.385 . S
C546 C547 1.357 . S
C547 C546 1.357 . S
C547 C548 1.406 . S
C548 H515 0.929 . S
C548 C547 1.406 . S
C548 C549 1.391 . S
C549 H516 0.931 . S
C549 C544 1.370 . S
C549 C548 1.391 . S
C550 N524 1.435 . S
C550 C551 1.358 . S
C550 C555 1.371 . S
C551 H517 0.930 . S
C551 C550 1.358 . S
C551 C552 1.405 . S
C552 H518 0.932 . S
C552 C551 1.405 . S
C552 C553 1.383 . S
C553 C552 1.383 . S
C553 C554 1.393 . S
C554 H519 0.931 . S
C554 C553 1.393 . S
C554 C555 1.382 . S
C555 H520 0.929 . S
C555 C550 1.371 . S
C555 C554 1.382 . S
C556 N524 1.423 . S
C556 C557 1.362 . S
C556 C561 1.388 . S
C557 H521 0.929 . S
C557 C556 1.362 . S
C557 C558 1.376 . S
C558 H522 0.931 . S
C558 C557 1.376 . S
C558 C559 1.396 . S
C559 C541 1.472 . S
C559 C558 1.396 . S
C559 C560 1.348 . S
C560 H523 0.929 . S
C560 C559 1.348 . S
C560 C561 1.443 . S
C561 H525 0.932 . S
C561 C556 1.388 . S
C561 C560 1.443 . S
H562 C589 0.929 . S
N563 C588 1.433 . S
N563 C594 1.435 . S
N563 C600 1.423 . S
H564 C590 0.930 . S
H565 C593 0.931 . S
H566 C592 0.929 . S
H567 C595 0.930 . S
H568 C596 0.932 . S
H569 C599 0.929 . S
H570 C598 0.931 . S
H571 C601 0.929 . S
H572 C605 0.932 . S
H573 C602 0.931 . S
H574 C604 0.929 . S
H575 C607 0.929 . S
H576 C608 0.930 . S
H577 C610 0.929 . S
H578 C611 0.931 . S
H579 C613 0.930 . S
H580 C614 0.932 . S
H581 C616 0.931 . S
H582 C617 0.929 . S
H583 C619 0.929 . S
H584 C620 0.931 . S
H585 C622 0.929 . S
N586 C606 1.433 . S
N586 C612 1.435 . S
N586 C618 1.423 . S
H587 C623 0.932 . S
C588 N563 1.433 . S
C588 C589 1.363 . S
C588 C593 1.370 . S
C589 H562 0.929 . S
C589 C588 1.363 . S
C589 C590 1.385 . S
C590 H564 0.930 . S
C590 C589 1.385 . S
C590 C591 1.357 . S
C591 C590 1.357 . S
C591 C592 1.406 . S
C592 H566 0.929 . S
C592 C591 1.406 . S
C592 C593 1.391 . S
C593 H565 0.931 . S
C593 C588 1.370 . S
C593 C592 1.391 . S
C594 N563 1.435 . S
C594 C595 1.358 . S
C594 C599 1.371 . S
C595 H567 0.930 . S
C595 C594 1.358 . S
C595 C596 1.405 . S
C596 H568 0.932 . S
C596 C595 1.405 . S
C596 C597 1.383 . S
C597 C596 1.383 . S
C597 C598 1.393 . S
C598 H570 0.931 . S
C598 C597 1.393 . S
C598 C599 1.382 . S
C599 H569 0.929 . S
C599 C594 1.371 . S
C599 C598 1.382 . S
C600 N563 1.423 . S
C600 C601 1.362 . S
C600 C605 1.388 . S
C601 H571 0.929 . S
C601 C600 1.362 . S
C601 C602 1.376 . S
C602 H573 0.931 . S
C602 C601 1.376 . S
C602 C603 1.396 . S
C603 C602 1.396 . S
C603 C604 1.348 . S
C603 C621 1.472 . S
C604 H574 0.929 . S
C604 C603 1.348 . S
C604 C605 1.443 . S
C605 H572 0.932 . S
C605 C600 1.388 . S
C605 C604 1.443 . S
C606 N586 1.433 . S
C606 C607 1.363 . S
C606 C611 1.370 . S
C607 H575 0.929 . S
C607 C606 1.363 . S
C607 C608 1.385 . S
C608 H576 0.930 . S
C608 C607 1.385 . S
C608 C609 1.357 . S
C609 C608 1.357 . S
C609 C610 1.406 . S
C610 H577 0.929 . S
C610 C609 1.406 . S
C610 C611 1.391 . S
C611 H578 0.931 . S
C611 C606 1.370 . S
C611 C610 1.391 . S
C612 N586 1.435 . S
C612 C613 1.358 . S
C612 C617 1.371 . S
C613 H579 0.930 . S
C613 C612 1.358 . S
C613 C614 1.405 . S
C614 H580 0.932 . S
C614 C613 1.405 . S
C614 C615 1.383 . S
C615 C614 1.383 . S
C615 C616 1.393 . S
C616 H581 0.931 . S
C616 C615 1.393 . S
C616 C617 1.382 . S
C617 H582 0.929 . S
C617 C612 1.371 . S
C617 C616 1.382 . S
C618 N586 1.423 . S
C618 C619 1.362 . S
C618 C623 1.388 . S
C619 H583 0.929 . S
C619 C618 1.362 . S
C619 C620 1.376 . S
C620 H584 0.931 . S
C620 C619 1.376 . S
C620 C621 1.396 . S
C621 C603 1.472 . S
C621 C620 1.396 . S
C621 C622 1.348 . S
C622 H585 0.929 . S
C622 C621 1.348 . S
C622 C623 1.443 . S
C623 H587 0.932 . S
C623 C618 1.388 . S
C623 C622 1.443 . S
H624 C651 0.929 . S
N625 C650 1.433 . S
N625 C656 1.435 . S
N625 C662 1.423 . S
H626 C652 0.930 . S
H627 C655 0.931 . S
H628 C654 0.929 . S
H629 C657 0.930 . S
H630 C658 0.932 . S
H631 C661 0.929 . S
H632 C660 0.931 . S
H633 C663 0.929 . S
H634 C667 0.932 . S
H635 C664 0.931 . S
H636 C666 0.929 . S
H637 C669 0.929 . S
H638 C670 0.930 . S
H639 C672 0.929 . S
H640 C673 0.931 . S
H641 C675 0.930 . S
H642 C676 0.932 . S
H643 C678 0.931 . S
H644 C679 0.929 . S
H645 C681 0.929 . S
H646 C682 0.931 . S
H647 C684 0.929 . S
N648 C668 1.433 . S
N648 C674 1.435 . S
N648 C680 1.423 . S
H649 C685 0.932 . S
C650 N625 1.433 . S
C650 C651 1.363 . S
C650 C655 1.370 . S
C651 H624 0.929 . S
C651 C650 1.363 . S
C651 C652 1.385 . S
C652 H626 0.930 . S
C652 C651 1.385 . S
C652 C653 1.357 . S
C653 C652 1.357 . S
C653 C654 1.406 . S
C654 H628 0.929 . S
C654 C653 1.406 . S
C654 C655 1.391 . S
C655 H627 0.931 . S
C655 C650 1.370 . S
C655 C654 1.391 . S
C656 N625 1.435 . S
C656 C657 1.358 . S
C656 C661 1.371 . S
C657 H629 0.930 . S
C657 C656 1.358 . S
C657 C658 1.405 . S
C658 H630 0.932 . S
C658 C657 1.405 . S
C658 C659 1.383 . S
C659 C658 1.383 . S
C659 C660 1.393 . S
C660 H632 0.931 . S
C660 C659 1.393 . S
C660 C661 1.382 . S
C661 H631 0.929 . S
C661 C656 1.371 . S
C661 C660 1.382 . S
C662 N625 1.423 . S
C662 C663 1.362 . S
C662 C667 1.388 . S
C663 H633 0.929 . S
C663 C662 1.362 . S
C663 C664 1.376 . S
C664 H635 0.931 . S
C664 C663 1.376 . S
C664 C665 1.396 . S
C665 C664 1.396 . S
C665 C666 1.348 . S
C665 C683 1.472 . S
C666 H636 0.929 . S
C666 C665 1.348 . S
C666 C667 1.443 . S
C667 H634 0.932 . S
C667 C662 1.388 . S
C667 C666 1.443 . S
C668 N648 1.433 . S
C668 C669 1.363 . S
C668 C673 1.370 . S
C669 H637 0.929 . S
C669 C668 1.363 . S
C669 C670 1.385 . S
C670 H638 0.930 . S
C670 C669 1.385 . S
C670 C671 1.357 . S
C671 C670 1.357 . S
C671 C672 1.406 . S
C672 H639 0.929 . S
C672 C671 1.406 . S
C672 C673 1.391 . S
C673 H640 0.931 . S
C673 C668 1.370 . S
C673 C672 1.391 . S
C674 N648 1.435 . S
C674 C675 1.358 . S
C674 C679 1.371 . S
C675 H641 0.930 . S
C675 C674 1.358 . S
C675 C676 1.405 . S
C676 H642 0.932 . S
C676 C675 1.405 . S
C676 C677 1.383 . S
C677 C676 1.383 . S
C677 C678 1.393 . S
C678 H643 0.931 . S
C678 C677 1.393 . S
C678 C679 1.382 . S
C679 H644 0.929 . S
C679 C674 1.371 . S
C679 C678 1.382 . S
C680 N648 1.423 . S
C680 C681 1.362 . S
C680 C685 1.388 . S
C681 H645 0.929 . S
C681 C680 1.362 . S
C681 C682 1.376 . S
C682 H646 0.931 . S
C682 C681 1.376 . S
C682 C683 1.396 . S
C683 C665 1.472 . S
C683 C682 1.396 . S
C683 C684 1.348 . S
C684 H647 0.929 . S
C684 C683 1.348 . S
C684 C685 1.443 . S
C685 H649 0.932 . S
C685 C680 1.388 . S
C685 C684 1.443 . S
H686 C713 0.929 . S
N687 C712 1.433 . S
N687 C718 1.435 . S
N687 C724 1.423 . S
H688 C714 0.930 . S
H689 C717 0.931 . S
H690 C716 0.929 . S
H691 C719 0.930 . S
H692 C720 0.932 . S
H693 C723 0.929 . S
H694 C722 0.931 . S
H695 C725 0.929 . S
H696 C729 0.932 . S
H697 C726 0.931 . S
H698 C728 0.929 . S
H699 C731 0.929 . S
H700 C732 0.930 . S
H701 C734 0.929 . S
H702 C735 0.931 . S
H703 C737 0.930 . S
H704 C738 0.932 . S
H705 C740 0.931 . S
H706 C741 0.929 . S
H707 C743 0.929 . S
H708 C744 0.931 . S
H709 C746 0.929 . S
N710 C730 1.433 . S
N710 C736 1.435 . S
N710 C742 1.423 . S
H711 C747 0.932 . S
C712 N687 1.433 . S
C712 C713 1.363 . S
C712 C717 1.370 . S
C713 H686 0.929 . S
C713 C712 1.363 . S
C713 C714 1.385 . S
C714 H688 0.930 . S
C714 C713 1.385 . S
C714 C715 1.357 . S
C715 C714 1.357 . S
C715 C716 1.406 . S
C716 H690 0.929 . S
C716 C715 1.406 . S
C716 C717 1.391 . S
C717 H689 0.931 . S
C717 C712 1.370 . S
C717 C716 1.391 . S
C718 N687 1.435 . S
C718 C719 1.358 . S
C718 C723 1.371 . S
C719 H691 0.930 . S
C719 C718 1.358 . S
C719 C720 1.405 . S
C720 H692 0.932 . S
C720 C719 1.405 . S
C720 C721 1.383 . S
C721 C720 1.383 . S
C721 C722 1.393 . S
C722 H694 0.931 . S
C722 C721 1.393 . S
C722 C723 1.382 . S
C723 H693 0.929 . S
C723 C718 1.371 . S
C723 C722 1.382 . S
C724 N687 1.423 . S
C724 C725 1.362 . S
C724 C729 1.388 . S
C725 H695 0.929 . S
C725 C724 1.362 . S
C725 C726 1.376 . S
C726 H697 0.931 . S
C726 C725 1.376 . S
C726 C727 1.396 . S
C727 C726 1.396 . S
C727 C728 1.348 . S
C727 C745 1.472 . S
C728 H698 0.929 . S
C728 C727 1.348 . S
C728 C729 1.443 . S
C729 H696 0.932 . S
C729 C724 1.388 . S
C729 C728 1.443 . S
C730 N710 1.433 . S
C730 C731 1.363 . S
C730 C735 1.370 . S
C731 H699 0.929 . S
C731 C730 1.363 . S
C731 C732 1.385 . S
C732 H700 0.930 . S
C732 C731 1.385 . S
C732 C733 1.357 . S
C733 C732 1.357 . S
C733 C734 1.406 . S
C734 H701 0.929 . S
C734 C733 1.406 . S
C734 C735 1.391 . S
C735 H702 0.931 . S
C735 C730 1.370 . S
C735 C734 1.391 . S
C736 N710 1.435 . S
C736 C737 1.358 . S
C736 C741 1.371 . S
C737 H703 0.930 . S
C737 C736 1.358 . S
C737 C738 1.405 . S
C738 H704 0.932 . S
C738 C737 1.405 . S
C738 C739 1.383 . S
C739 C738 1.383 . S
C739 C740 1.393 . S
C740 H705 0.931 . S
C740 C739 1.393 . S
C740 C741 1.382 . S
C741 H706 0.929 . S
C741 C736 1.371 . S
C741 C740 1.382 . S
C742 N710 1.423 . S
C742 C743 1.362 . S
C742 C747 1.388 . S
C743 H707 0.929 . S
C743 C742 1.362 . S
C743 C744 1.376 . S
C744 H708 0.931 . S
C744 C743 1.376 . S
C744 C745 1.396 . S
C745 C727 1.472 . S
C745 C744 1.396 . S
C745 C746 1.348 . S
C746 H709 0.929 . S
C746 C745 1.348 . S
C746 C747 1.443 . S
C747 H711 0.932 . S
C747 C742 1.388 . S
C747 C746 1.443 . S
H748 C775 0.929 . S
N749 C774 1.433 . S
N749 C780 1.435 . S
N749 C786 1.423 . S
H750 C776 0.930 . S
H751 C779 0.931 . S
H752 C778 0.929 . S
H753 C781 0.930 . S
H754 C782 0.932 . S
H755 C785 0.929 . S
H756 C784 0.931 . S
H757 C787 0.929 . S
H758 C791 0.932 . S
H759 C788 0.931 . S
H760 C790 0.929 . S
H761 C793 0.929 . S
H762 C794 0.930 . S
H763 C796 0.929 . S
H764 C797 0.931 . S
H765 C799 0.930 . S
H766 C800 0.932 . S
H767 C802 0.931 . S
H768 C803 0.929 . S
H769 C805 0.929 . S
H770 C806 0.931 . S
H771 C808 0.929 . S
N772 C792 1.433 . S
N772 C798 1.435 . S
N772 C804 1.423 . S
H773 C809 0.932 . S
C774 N749 1.433 . S
C774 C775 1.363 . S
C774 C779 1.370 . S
C775 H748 0.929 . S
C775 C774 1.363 . S
C775 C776 1.385 . S
C776 H750 0.930 . S
C776 C775 1.385 . S
C776 C777 1.357 . S
C777 C776 1.357 . S
C777 C778 1.406 . S
C778 H752 0.929 . S
C778 C777 1.406 . S
C778 C779 1.391 . S
C779 H751 0.931 . S
C779 C774 1.370 . S
C779 C778 1.391 . S
C780 N749 1.435 . S
C780 C781 1.358 . S
C780 C785 1.371 . S
C781 H753 0.930 . S
C781 C780 1.358 . S
C781 C782 1.405 . S
C782 H754 0.932 . S
C782 C781 1.405 . S
C782 C783 1.383 . S
C783 C782 1.383 . S
C783 C784 1.393 . S
C784 H756 0.931 . S
C784 C783 1.393 . S
C784 C785 1.382 . S
C785 H755 0.929 . S
C785 C780 1.371 . S
C785 C784 1.382 . S
C786 N749 1.423 . S
C786 C787 1.362 . S
C786 C791 1.388 . S
C787 H757 0.929 . S
C787 C786 1.362 . S
C787 C788 1.376 . S
C788 H759 0.931 . S
C788 C787 1.376 . S
C788 C789 1.396 . S
C789 C788 1.396 . S
C789 C790 1.348 . S
C789 C807 1.472 . S
C790 H760 0.929 . S
C790 C789 1.348 . S
C790 C791 1.443 . S
C791 H758 0.932 . S
C791 C786 1.388 . S
C791 C790 1.443 . S
C792 N772 1.433 . S
C792 C793 1.363 . S
C792 C797 1.370 . S
C793 H761 0.929 . S
C793 C792 1.363 . S
C793 C794 1.385 . S
C794 H762 0.930 . S
C794 C793 1.385 . S
C794 C795 1.357 . S
C795 C794 1.357 . S
C795 C796 1.406 . S
C796 H763 0.929 . S
C796 C795 1.406 . S
C796 C797 1.391 . S
C797 H764 0.931 . S
C797 C792 1.370 . S
C797 C796 1.391 . S
C798 N772 1.435 . S
C798 C799 1.358 . S
C798 C803 1.371 . S
C799 H765 0.930 . S
C799 C798 1.358 . S
C799 C800 1.405 . S
C800 H766 0.932 . S
C800 C799 1.405 . S
C800 C801 1.383 . S
C801 C800 1.383 . S
C801 C802 1.393 . S
C802 H767 0.931 . S
C802 C801 1.393 . S
C802 C803 1.382 . S
C803 H768 0.929 . S
C803 C798 1.371 . S
C803 C802 1.382 . S
C804 N772 1.423 . S
C804 C805 1.362 . S
C804 C809 1.388 . S
C805 H769 0.929 . S
C805 C804 1.362 . S
C805 C806 1.376 . S
C806 H770 0.931 . S
C806 C805 1.376 . S
C806 C807 1.396 . S
C807 C789 1.472 . S
C807 C806 1.396 . S
C807 C808 1.348 . S
C808 H771 0.929 . S
C808 C807 1.348 . S
C808 C809 1.443 . S
C809 H773 0.932 . S
C809 C804 1.388 . S
C809 C808 1.443 . S
H810 C837 0.929 . S
N811 C836 1.433 . S
N811 C842 1.435 . S
N811 C848 1.423 . S
H812 C838 0.930 . S
H813 C841 0.931 . S
H814 C840 0.929 . S
H815 C843 0.930 . S
H816 C844 0.932 . S
H817 C847 0.929 . S
H818 C846 0.931 . S
H819 C849 0.929 . S
H820 C853 0.932 1_655 S
H821 C850 0.931 . S
H822 C852 0.938 . S
H823 C855 0.929 . S
H824 C856 0.930 . S
H825 C858 0.929 . S
H826 C859 0.931 . S
H827 C861 0.930 . S
H828 C862 0.932 . S
H829 C864 0.931 . S
H830 C865 0.929 . S
H831 C867 0.929 . S
H832 C868 0.931 . S
H833 C870 0.979 . S
N834 C854 1.433 . S
N834 C860 1.435 . S
N834 C866 1.423 . S
H835 C871 0.932 1_655 S
C836 N811 1.433 . S
C836 C837 1.363 . S
C836 C841 1.370 1_455 S
C837 H810 0.929 . S
C837 C836 1.363 . S
C837 C838 1.385 . S
C838 H812 0.930 . S
C838 C837 1.385 . S
C838 C839 1.357 1_455 S
C839 C838 1.357 1_655 S
C839 C840 1.406 . S
C840 H814 0.929 . S
C840 C839 1.406 . S
C840 C841 1.391 . S
C841 H813 0.931 . S
C841 C836 1.370 1_655 S
C841 C840 1.391 . S
C842 N811 1.435 . S
C842 C843 1.358 1_455 S
C842 C847 1.371 . S
C843 H815 0.930 . S
C843 C842 1.358 1_655 S
C843 C844 1.405 . S
C844 H816 0.932 . S
C844 C843 1.405 . S
C844 C845 1.383 1_655 S
C845 C844 1.383 1_455 S
C845 C846 1.393 . S
C846 H818 0.931 . S
C846 C845 1.393 . S
C846 C847 1.382 . S
C847 H817 0.929 . S
C847 C842 1.371 . S
C847 C846 1.382 . S
C848 N811 1.423 . S
C848 C849 1.362 . S
C848 C853 1.388 . S
C849 H819 0.929 . S
C849 C848 1.362 . S
C849 C850 1.376 . S
C850 H821 0.931 . S
C850 C849 1.376 . S
C850 C851 1.396 . S
C851 C850 1.396 . S
C851 C852 1.348 . S
C851 C869 1.472 . S
C852 H822 0.938 . S
C852 C851 1.348 . S
C852 C853 1.443 . S
C853 H820 0.932 1_455 S
C853 C848 1.388 . S
C853 C852 1.443 . S
C854 N834 1.433 . S
C854 C855 1.363 . S
C854 C859 1.370 1_455 S
C855 H823 0.929 . S
C855 C854 1.363 . S
C855 C856 1.385 . S
C856 H824 0.930 . S
C856 C855 1.385 . S
C856 C857 1.357 1_455 S
C857 C856 1.357 1_655 S
C857 C858 1.406 . S
C858 H825 0.929 . S
C858 C857 1.406 . S
C858 C859 1.391 . S
C859 H826 0.931 . S
C859 C854 1.370 1_655 S
C859 C858 1.391 . S
C860 N834 1.435 . S
C860 C861 1.358 1_455 S
C860 C865 1.371 . S
C861 H827 0.930 . S
C861 C860 1.358 1_655 S
C861 C862 1.405 . S
C862 H828 0.932 . S
C862 C861 1.405 . S
C862 C863 1.383 1_655 S
C863 C862 1.383 1_455 S
C863 C864 1.393 . S
C864 H829 0.931 . S
C864 C863 1.393 . S
C864 C865 1.382 . S
C865 H830 0.929 . S
C865 C860 1.371 . S
C865 C864 1.382 . S
C866 N834 1.423 . S
C866 C867 1.362 . S
C866 C871 1.388 . S
C867 H831 0.929 . S
C867 C866 1.362 . S
C867 C868 1.376 . S
C868 H832 0.931 . S
C868 C867 1.376 . S
C868 C869 1.396 . S
C869 C851 1.472 . S
C869 C868 1.396 . S
C869 C870 1.348 . S
C870 H833 0.979 . S
C870 C869 1.348 . S
C870 C871 1.443 . S
C871 H835 0.932 1_455 S
C871 C866 1.388 . S
C871 C870 1.443 . S
H872 C899 0.929 . S
N873 C898 1.433 . S
N873 C904 1.435 . S
N873 C910 1.423 . S
H874 C900 0.930 . S
H875 C903 0.931 . S
H876 C902 0.929 . S
H877 C905 0.930 . S
H878 C906 0.932 . S
H879 C909 0.929 . S
H880 C908 0.931 . S
H881 C911 0.929 . S
H882 C915 0.932 . S
H883 C912 0.931 . S
H884 C914 0.929 . S
H885 C917 0.929 . S
H886 C918 0.930 . S
H887 C920 0.929 . S
H888 C921 0.931 . S
H889 C923 0.930 . S
H890 C924 0.932 . S
H891 C926 0.931 . S
H892 C927 0.929 . S
H893 C929 0.929 . S
H894 C930 0.931 . S
H895 C932 0.929 . S
N896 C916 1.433 . S
N896 C922 1.435 . S
N896 C928 1.423 . S
H897 C933 0.932 . S
C898 N873 1.433 . S
C898 C899 1.363 . S
C898 C903 1.370 . S
C899 H872 0.929 . S
C899 C898 1.363 . S
C899 C900 1.385 . S
C900 H874 0.930 . S
C900 C899 1.385 . S
C900 C901 1.357 . S
C901 C900 1.357 . S
C901 C902 1.406 . S
C902 H876 0.929 . S
C902 C901 1.406 . S
C902 C903 1.391 . S
C903 H875 0.931 . S
C903 C898 1.370 . S
C903 C902 1.391 . S
C904 N873 1.435 . S
C904 C905 1.358 . S
C904 C909 1.371 . S
C905 H877 0.930 . S
C905 C904 1.358 . S
C905 C906 1.405 . S
C906 H878 0.932 . S
C906 C905 1.405 . S
C906 C907 1.383 . S
C907 C906 1.383 . S
C907 C908 1.393 . S
C908 H880 0.931 . S
C908 C907 1.393 . S
C908 C909 1.382 . S
C909 H879 0.929 . S
C909 C904 1.371 . S
C909 C908 1.382 . S
C910 N873 1.423 . S
C910 C911 1.362 . S
C910 C915 1.388 . S
C911 H881 0.929 . S
C911 C910 1.362 . S
C911 C912 1.376 . S
C912 H883 0.931 . S
C912 C911 1.376 . S
C912 C913 1.396 . S
C913 C912 1.396 . S
C913 C914 1.348 . S
C913 C931 1.472 . S
C914 H884 0.929 . S
C914 C913 1.348 . S
C914 C915 1.443 . S
C915 H882 0.932 . S
C915 C910 1.388 . S
C915 C914 1.443 . S
C916 N896 1.433 . S
C916 C917 1.363 . S
C916 C921 1.370 . S
C917 H885 0.929 . S
C917 C916 1.363 . S
C917 C918 1.385 . S
C918 H886 0.930 . S
C918 C917 1.385 . S
C918 C919 1.357 . S
C919 C918 1.357 . S
C919 C920 1.406 . S
C920 H887 0.929 . S
C920 C919 1.406 . S
C920 C921 1.391 . S
C921 H888 0.931 . S
C921 C916 1.370 . S
C921 C920 1.391 . S
C922 N896 1.435 . S
C922 C923 1.358 . S
C922 C927 1.371 . S
C923 H889 0.930 . S
C923 C922 1.358 . S
C923 C924 1.405 . S
C924 H890 0.932 . S
C924 C923 1.405 . S
C924 C925 1.383 . S
C925 C924 1.383 . S
C925 C926 1.393 . S
C926 H891 0.931 . S
C926 C925 1.393 . S
C926 C927 1.382 . S
C927 H892 0.929 . S
C927 C922 1.371 . S
C927 C926 1.382 . S
C928 N896 1.423 . S
C928 C929 1.362 . S
C928 C933 1.388 . S
C929 H893 0.929 . S
C929 C928 1.362 . S
C929 C930 1.376 . S
C930 H894 0.931 . S
C930 C929 1.376 . S
C930 C931 1.396 . S
C931 C913 1.472 . S
C931 C930 1.396 . S
C931 C932 1.348 . S
C932 H895 0.929 . S
C932 C931 1.348 . S
C932 C933 1.443 . S
C933 H897 0.932 . S
C933 C928 1.388 . S
C933 C932 1.443 . S
H934 C961 0.929 . S
N935 C960 1.433 . S
N935 C966 1.435 . S
N935 C972 1.423 . S
H936 C962 0.930 . S
H937 C965 0.931 . S
H938 C964 0.929 . S
H939 C967 0.930 . S
H940 C968 0.932 . S
H941 C971 0.929 . S
H942 C970 0.931 . S
H943 C973 0.929 . S
H944 C977 0.932 1_545 S
H945 C974 0.931 . S
H946 C976 0.982 . S
H947 C979 0.929 . S
H948 C980 0.930 . S
H949 C982 0.929 . S
H950 C983 0.931 . S
H951 C985 0.930 . S
H952 C986 0.932 . S
H953 C988 0.931 . S
H954 C989 0.929 . S
H955 C991 0.929 . S
H956 C992 0.931 . S
H957 C994 0.938 . S
N958 C978 1.433 . S
N958 C984 1.435 . S
N958 C990 1.423 . S
H959 C995 0.932 1_545 S
C960 N935 1.433 . S
C960 C961 1.363 . S
C960 C965 1.370 1_565 S
C961 H934 0.929 . S
C961 C960 1.363 . S
C961 C962 1.385 . S
C962 H936 0.930 . S
C962 C961 1.385 . S
C962 C963 1.357 1_565 S
C963 C962 1.357 1_545 S
C963 C964 1.406 . S
C964 H938 0.929 . S
C964 C963 1.406 . S
C964 C965 1.391 . S
C965 H937 0.931 . S
C965 C960 1.370 1_545 S
C965 C964 1.391 . S
C966 N935 1.435 . S
C966 C967 1.358 1_565 S
C966 C971 1.371 . S
C967 H939 0.930 . S
C967 C966 1.358 1_545 S
C967 C968 1.405 . S
C968 H940 0.932 . S
C968 C967 1.405 . S
C968 C969 1.383 1_545 S
C969 C968 1.383 1_565 S
C969 C970 1.393 . S
C970 H942 0.931 . S
C970 C969 1.393 . S
C970 C971 1.382 . S
C971 H941 0.929 . S
C971 C966 1.371 . S
C971 C970 1.382 . S
C972 N935 1.423 . S
C972 C973 1.362 . S
C972 C977 1.388 . S
C973 H943 0.929 . S
C973 C972 1.362 . S
C973 C974 1.376 . S
C974 H945 0.931 . S
C974 C973 1.376 . S
C974 C975 1.396 . S
C975 C974 1.396 . S
C975 C976 1.348 . S
C975 C993 1.472 . S
C976 H946 0.982 . S
C976 C975 1.348 . S
C976 C977 1.443 . S
C977 H944 0.932 1_565 S
C977 C972 1.388 . S
C977 C976 1.443 . S
C978 N958 1.433 . S
C978 C979 1.363 . S
C978 C983 1.370 1_565 S
C979 H947 0.929 . S
C979 C978 1.363 . S
C979 C980 1.385 . S
C980 H948 0.930 . S
C980 C979 1.385 . S
C980 C981 1.357 1_565 S
C981 C980 1.357 1_545 S
C981 C982 1.406 . S
C982 H949 0.929 . S
C982 C981 1.406 . S
C982 C983 1.391 . S
C983 H950 0.931 . S
C983 C978 1.370 1_545 S
C983 C982 1.391 . S
C984 N958 1.435 . S
C984 C985 1.358 1_565 S
C984 C989 1.371 . S
C985 H951 0.930 . S
C985 C984 1.358 1_545 S
C985 C986 1.405 . S
C986 H952 0.932 . S
C986 C985 1.405 . S
C986 C987 1.383 1_545 S
C987 C986 1.383 1_565 S
C987 C988 1.393 . S
C988 H953 0.931 . S
C988 C987 1.393 . S
C988 C989 1.382 . S
C989 H954 0.929 . S
C989 C984 1.371 . S
C989 C988 1.382 . S
C990 N958 1.423 . S
C990 C991 1.362 . S
C990 C995 1.388 . S
C991 H955 0.929 . S
C991 C990 1.362 . S
C991 C992 1.376 . S
C992 H956 0.931 . S
C992 C991 1.376 . S
C992 C993 1.396 . S
C993 C975 1.472 . S
C993 C992 1.396 . S
C993 C994 1.348 . S
C994 H957 0.938 . S
C994 C993 1.348 . S
C994 C995 1.443 . S
C995 H959 0.932 1_565 S
C995 C990 1.388 . S
C995 C994 1.443 . S
H996 C1023 0.929 . S
N997 C1022 1.433 . S
N997 C1028 1.435 . S
N997 C1034 1.423 . S
H998 C1024 0.930 . S
H999 C1027 0.931 . S
H1000 C1026 0.929 . S
H1001 C1029 0.930 . S
H1002 C1030 0.932 . S
H1003 C1033 0.929 . S
H1004 C1032 0.931 . S
H1005 C1035 0.929 . S
H1006 C1039 1.013 . S
H1007 C1036 0.931 . S
H1008 C1038 0.918 1_545 S
H1009 C1041 0.929 . S
H1010 C1042 0.930 . S
H1011 C1044 0.929 . S
H1012 C1045 0.993 . S
H1013 C1047 0.930 . S
H1014 C1048 0.932 . S
H1015 C1050 0.931 . S
H1016 C1051 0.929 . S
H1017 C1053 0.929 . S
H1018 C1054 0.931 . S
H1019 C1056 0.878 1_545 S
N1020 C1040 1.433 . S
N1020 C1046 1.435 . S
N1020 C1052 1.423 . S
H1021 C1057 0.957 . S
C1022 N997 1.433 . S
C1022 C1023 1.363 . S
C1022 C1027 1.370 1_565 S
C1023 H996 0.929 . S
C1023 C1022 1.363 . S
C1023 C1024 1.385 . S
C1024 H998 0.930 . S
C1024 C1023 1.385 . S
C1024 C1025 1.357 . S
C1025 C1024 1.357 . S
C1025 C1026 1.406 1_565 S
C1026 H1000 0.929 . S
C1026 C1025 1.406 1_545 S
C1026 C1027 1.391 . S
C1027 H999 0.931 . S
C1027 C1022 1.370 1_545 S
C1027 C1026 1.391 . S
C1028 N997 1.435 . S
C1028 C1029 1.358 1_565 S
C1028 C1033 1.371 . S
C1029 H1001 0.930 . S
C1029 C1028 1.358 1_545 S
C1029 C1030 1.405 . S
C1030 H1002 0.932 . S
C1030 C1029 1.405 . S
C1030 C1031 1.383 . S
C1031 C1030 1.383 . S
C1031 C1032 1.393 1_545 S
C1032 H1004 0.931 . S
C1032 C1031 1.393 1_565 S
C1032 C1033 1.382 . S
C1033 H1003 0.929 . S
C1033 C1028 1.371 . S
C1033 C1032 1.382 . S
C1034 N997 1.423 . S
C1034 C1035 1.362 . S
C1034 C1039 1.366 1_565 S
C1035 H1005 0.929 . S
C1035 C1034 1.362 . S
C1035 C1036 1.376 . S
C1036 H1007 0.931 . S
C1036 C1035 1.376 . S
C1036 C1037 1.396 . S
C1037 C1036 1.396 . S
C1037 C1038 1.398 . S
C1037 C1055 1.472 . S
C1038 H1008 0.918 1_565 S
C1038 C1037 1.398 . S
C1038 C1039 1.355 1_565 S
C1039 H1006 1.013 . S
C1039 C1034 1.366 1_545 S
C1039 C1038 1.355 1_545 S
C1040 N1020 1.433 . S
C1040 C1041 1.363 . S
C1040 C1045 1.322 1_565 S
C1041 H1009 0.929 . S
C1041 C1040 1.363 . S
C1041 C1042 1.385 . S
C1042 H1010 0.930 . S
C1042 C1041 1.385 . S
C1042 C1043 1.357 . S
C1043 C1042 1.357 . S
C1043 C1044 1.406 1_565 S
C1044 H1011 0.929 . S
C1044 C1043 1.406 1_545 S
C1044 C1045 1.382 . S
C1045 H1012 0.993 . S
C1045 C1040 1.322 1_545 S
C1045 C1044 1.382 . S
C1046 N1020 1.435 . S
C1046 C1047 1.358 1_565 S
C1046 C1051 1.371 . S
C1047 H1013 0.930 . S
C1047 C1046 1.358 1_545 S
C1047 C1048 1.405 . S
C1048 H1014 0.932 . S
C1048 C1047 1.405 . S
C1048 C1049 1.383 . S
C1049 C1048 1.383 . S
C1049 C1050 1.393 1_545 S
C1050 H1015 0.931 . S
C1050 C1049 1.393 1_565 S
C1050 C1051 1.382 . S
C1051 H1016 0.929 . S
C1051 C1046 1.371 . S
C1051 C1050 1.382 . S
C1052 N1020 1.423 . S
C1052 C1053 1.362 . S
C1052 C1057 1.336 1_565 S
C1053 H1017 0.929 . S
C1053 C1052 1.362 . S
C1053 C1054 1.376 . S
C1054 H1018 0.931 . S
C1054 C1053 1.376 . S
C1054 C1055 1.396 . S
C1055 C1037 1.472 . S
C1055 C1054 1.396 . S
C1055 C1056 1.369 . S
C1056 H1019 0.878 1_565 S
C1056 C1055 1.369 . S
C1056 C1057 1.509 1_565 S
C1057 H1021 0.957 . S
C1057 C1052 1.336 1_545 S
C1057 C1056 1.509 1_545 S
H1058 C1085 0.929 . S
N1059 C1084 1.433 . S
N1059 C1090 1.435 . S
N1059 C1096 1.423 . S
H1060 C1086 0.930 . S
H1061 C1089 0.931 . S
H1062 C1088 0.929 . S
H1063 C1091 0.930 . S
H1064 C1092 0.932 . S
H1065 C1095 0.929 . S
H1066 C1094 0.931 . S
H1067 C1097 0.929 . S
H1068 C1101 0.932 1_455 S
H1069 C1098 0.931 . S
H1070 C1100 0.976 . S
H1071 C1103 0.929 . S
H1072 C1104 0.930 . S
H1073 C1106 0.929 . S
H1074 C1107 0.931 . S
H1075 C1109 0.930 . S
H1076 C1110 0.932 . S
H1077 C1112 0.931 . S
H1078 C1113 0.929 . S
H1079 C1115 0.929 . S
H1080 C1116 0.931 . S
H1081 C1118 0.938 . S
N1082 C1102 1.433 . S
N1082 C1108 1.435 . S
N1082 C1114 1.423 . S
H1083 C1119 0.932 1_455 S
C1084 N1059 1.433 . S
C1084 C1085 1.363 . S
C1084 C1089 1.370 1_655 S
C1085 H1058 0.929 . S
C1085 C1084 1.363 . S
C1085 C1086 1.385 . S
C1086 H1060 0.930 . S
C1086 C1085 1.385 . S
C1086 C1087 1.357 1_655 S
C1087 C1086 1.357 1_455 S
C1087 C1088 1.406 . S
C1088 H1062 0.929 . S
C1088 C1087 1.406 . S
C1088 C1089 1.391 . S
C1089 H1061 0.931 . S
C1089 C1084 1.370 1_455 S
C1089 C1088 1.391 . S
C1090 N1059 1.435 . S
C1090 C1091 1.358 1_655 S
C1090 C1095 1.371 . S
C1091 H1063 0.930 . S
C1091 C1090 1.358 1_455 S
C1091 C1092 1.405 . S
C1092 H1064 0.932 . S
C1092 C1091 1.405 . S
C1092 C1093 1.383 1_455 S
C1093 C1092 1.383 1_655 S
C1093 C1094 1.393 . S
C1094 H1066 0.931 . S
C1094 C1093 1.393 . S
C1094 C1095 1.382 . S
C1095 H1065 0.929 . S
C1095 C1090 1.371 . S
C1095 C1094 1.382 . S
C1096 N1059 1.423 . S
C1096 C1097 1.362 . S
C1096 C1101 1.388 . S
C1097 H1067 0.929 . S
C1097 C1096 1.362 . S
C1097 C1098 1.376 . S
C1098 H1069 0.931 . S
C1098 C1097 1.376 . S
C1098 C1099 1.396 . S
C1099 C1098 1.396 . S
C1099 C1100 1.348 . S
C1099 C1117 1.472 . S
C1100 H1070 0.976 . S
C1100 C1099 1.348 . S
C1100 C1101 1.443 . S
C1101 H1068 0.932 1_655 S
C1101 C1096 1.388 . S
C1101 C1100 1.443 . S
C1102 N1082 1.433 . S
C1102 C1103 1.363 . S
C1102 C1107 1.370 1_655 S
C1103 H1071 0.929 . S
C1103 C1102 1.363 . S
C1103 C1104 1.385 . S
C1104 H1072 0.930 . S
C1104 C1103 1.385 . S
C1104 C1105 1.357 1_655 S
C1105 C1104 1.357 1_455 S
C1105 C1106 1.406 . S
C1106 H1073 0.929 . S
C1106 C1105 1.406 . S
C1106 C1107 1.391 . S
C1107 H1074 0.931 . S
C1107 C1102 1.370 1_455 S
C1107 C1106 1.391 . S
C1108 N1082 1.435 . S
C1108 C1109 1.358 1_655 S
C1108 C1113 1.371 . S
C1109 H1075 0.930 . S
C1109 C1108 1.358 1_455 S
C1109 C1110 1.405 . S
C1110 H1076 0.932 . S
C1110 C1109 1.405 . S
C1110 C1111 1.383 1_455 S
C1111 C1110 1.383 1_655 S
C1111 C1112 1.393 . S
C1112 H1077 0.931 . S
C1112 C1111 1.393 . S
C1112 C1113 1.382 . S
C1113 H1078 0.929 . S
C1113 C1108 1.371 . S
C1113 C1112 1.382 . S
C1114 N1082 1.423 . S
C1114 C1115 1.362 . S
C1114 C1119 1.388 . S
C1115 H1079 0.929 . S
C1115 C1114 1.362 . S
C1115 C1116 1.376 . S
C1116 H1080 0.931 . S
C1116 C1115 1.376 . S
C1116 C1117 1.396 . S
C1117 C1099 1.472 . S
C1117 C1116 1.396 . S
C1117 C1118 1.348 . S
C1118 H1081 0.938 . S
C1118 C1117 1.348 . S
C1118 C1119 1.443 . S
C1119 H1083 0.932 1_655 S
C1119 C1114 1.388 . S
C1119 C1118 1.443 . S
H1120 C1147 0.929 . S
N1121 C1146 1.433 . S
N1121 C1152 1.435 . S
N1121 C1158 1.423 . S
H1122 C1148 0.930 . S
H1123 C1151 0.931 . S
H1124 C1150 0.929 . S
H1125 C1153 0.930 . S
H1126 C1154 0.932 . S
H1127 C1157 0.929 . S
H1128 C1156 0.931 . S
H1129 C1159 0.929 . S
H1130 C1163 0.932 . S
H1131 C1160 0.931 . S
H1132 C1162 0.929 . S
H1133 C1165 0.929 . S
H1134 C1166 0.930 . S
H1135 C1168 0.929 . S
H1136 C1169 0.931 . S
H1137 C1171 0.930 . S
H1138 C1172 0.932 . S
H1139 C1174 0.931 . S
H1140 C1175 0.929 . S
H1141 C1177 0.929 . S
H1142 C1178 0.931 . S
H1143 C1180 0.929 . S
N1144 C1164 1.433 . S
N1144 C1170 1.435 . S
N1144 C1176 1.423 . S
H1145 C1181 0.932 . S
C1146 N1121 1.433 . S
C1146 C1147 1.363 . S
C1146 C1151 1.370 . S
C1147 H1120 0.929 . S
C1147 C1146 1.363 . S
C1147 C1148 1.385 . S
C1148 H1122 0.930 . S
C1148 C1147 1.385 . S
C1148 C1149 1.357 . S
C1149 C1148 1.357 . S
C1149 C1150 1.406 . S
C1150 H1124 0.929 . S
C1150 C1149 1.406 . S
C1150 C1151 1.391 . S
C1151 H1123 0.931 . S
C1151 C1146 1.370 . S
C1151 C1150 1.391 . S
C1152 N1121 1.435 . S
C1152 C1153 1.358 . S
C1152 C1157 1.371 . S
C1153 H1125 0.930 . S
C1153 C1152 1.358 . S
C1153 C1154 1.405 . S
C1154 H1126 0.932 . S
C1154 C1153 1.405 . S
C1154 C1155 1.383 . S
C1155 C1154 1.383 . S
C1155 C1156 1.393 . S
C1156 H1128 0.931 . S
C1156 C1155 1.393 . S
C1156 C1157 1.382 . S
C1157 H1127 0.929 . S
C1157 C1152 1.371 . S
C1157 C1156 1.382 . S
C1158 N1121 1.423 . S
C1158 C1159 1.362 . S
C1158 C1163 1.388 . S
C1159 H1129 0.929 . S
C1159 C1158 1.362 . S
C1159 C1160 1.376 . S
C1160 H1131 0.931 . S
C1160 C1159 1.376 . S
C1160 C1161 1.396 . S
C1161 C1160 1.396 . S
C1161 C1162 1.348 . S
C1161 C1179 1.472 . S
C1162 H1132 0.929 . S
C1162 C1161 1.348 . S
C1162 C1163 1.443 . S
C1163 H1130 0.932 . S
C1163 C1158 1.388 . S
C1163 C1162 1.443 . S
C1164 N1144 1.433 . S
C1164 C1165 1.363 . S
C1164 C1169 1.370 . S
C1165 H1133 0.929 . S
C1165 C1164 1.363 . S
C1165 C1166 1.385 . S
C1166 H1134 0.930 . S
C1166 C1165 1.385 . S
C1166 C1167 1.357 . S
C1167 C1166 1.357 . S
C1167 C1168 1.406 . S
C1168 H1135 0.929 . S
C1168 C1167 1.406 . S
C1168 C1169 1.391 . S
C1169 H1136 0.931 . S
C1169 C1164 1.370 . S
C1169 C1168 1.391 . S
C1170 N1144 1.435 . S
C1170 C1171 1.358 . S
C1170 C1175 1.371 . S
C1171 H1137 0.930 . S
C1171 C1170 1.358 . S
C1171 C1172 1.405 . S
C1172 H1138 0.932 . S
C1172 C1171 1.405 . S
C1172 C1173 1.383 . S
C1173 C1172 1.383 . S
C1173 C1174 1.393 . S
C1174 H1139 0.931 . S
C1174 C1173 1.393 . S
C1174 C1175 1.382 . S
C1175 H1140 0.929 . S
C1175 C1170 1.371 . S
C1175 C1174 1.382 . S
C1176 N1144 1.423 . S
C1176 C1177 1.362 . S
C1176 C1181 1.388 . S
C1177 H1141 0.929 . S
C1177 C1176 1.362 . S
C1177 C1178 1.376 . S
C1178 H1142 0.931 . S
C1178 C1177 1.376 . S
C1178 C1179 1.396 . S
C1179 C1161 1.472 . S
C1179 C1178 1.396 . S
C1179 C1180 1.348 . S
C1180 H1143 0.929 . S
C1180 C1179 1.348 . S
C1180 C1181 1.443 . S
C1181 H1145 0.932 . S
C1181 C1176 1.388 . S
C1181 C1180 1.443 . S
H1182 C1209 0.929 . S
N1183 C1208 1.433 . S
N1183 C1214 1.435 . S
N1183 C1220 1.423 . S
H1184 C1210 0.930 . S
H1185 C1213 0.931 . S
H1186 C1212 0.929 . S
H1187 C1215 0.930 . S
H1188 C1216 0.932 . S
H1189 C1219 0.929 . S
H1190 C1218 0.931 . S
H1191 C1221 0.929 . S
H1192 C1225 0.932 . S
H1193 C1222 0.931 . S
H1194 C1224 0.929 . S
H1195 C1227 0.929 . S
H1196 C1228 0.930 . S
H1197 C1230 0.929 . S
H1198 C1231 0.931 . S
H1199 C1233 0.930 . S
H1200 C1234 0.932 . S
H1201 C1236 0.931 . S
H1202 C1237 0.929 . S
H1203 C1239 0.929 . S
H1204 C1240 0.931 . S
H1205 C1242 0.929 . S
N1206 C1226 1.433 . S
N1206 C1232 1.435 . S
N1206 C1238 1.423 . S
H1207 C1243 0.932 . S
C1208 N1183 1.433 . S
C1208 C1209 1.363 . S
C1208 C1213 1.370 . S
C1209 H1182 0.929 . S
C1209 C1208 1.363 . S
C1209 C1210 1.385 . S
C1210 H1184 0.930 . S
C1210 C1209 1.385 . S
C1210 C1211 1.357 . S
C1211 C1210 1.357 . S
C1211 C1212 1.406 . S
C1212 H1186 0.929 . S
C1212 C1211 1.406 . S
C1212 C1213 1.391 . S
C1213 H1185 0.931 . S
C1213 C1208 1.370 . S
C1213 C1212 1.391 . S
C1214 N1183 1.435 . S
C1214 C1215 1.358 . S
C1214 C1219 1.371 . S
C1215 H1187 0.930 . S
C1215 C1214 1.358 . S
C1215 C1216 1.405 . S
C1216 H1188 0.932 . S
C1216 C1215 1.405 . S
C1216 C1217 1.383 . S
C1217 C1216 1.383 . S
C1217 C1218 1.393 . S
C1218 H1190 0.931 . S
C1218 C1217 1.393 . S
C1218 C1219 1.382 . S
C1219 H1189 0.929 . S
C1219 C1214 1.371 . S
C1219 C1218 1.382 . S
C1220 N1183 1.423 . S
C1220 C1221 1.362 . S
C1220 C1225 1.388 . S
C1221 H1191 0.929 . S
C1221 C1220 1.362 . S
C1221 C1222 1.376 . S
C1222 H1193 0.931 . S
C1222 C1221 1.376 . S
C1222 C1223 1.396 . S
C1223 C1222 1.396 . S
C1223 C1224 1.348 . S
C1223 C1241 1.472 . S
C1224 H1194 0.929 . S
C1224 C1223 1.348 . S
C1224 C1225 1.443 . S
C1225 H1192 0.932 . S
C1225 C1220 1.388 . S
C1225 C1224 1.443 . S
C1226 N1206 1.433 . S
C1226 C1227 1.363 . S
C1226 C1231 1.370 . S
C1227 H1195 0.929 . S
C1227 C1226 1.363 . S
C1227 C1228 1.385 . S
C1228 H1196 0.930 . S
C1228 C1227 1.385 . S
C1228 C1229 1.357 . S
C1229 C1228 1.357 . S
C1229 C1230 1.406 . S
C1230 H1197 0.929 . S
C1230 C1229 1.406 . S
C1230 C1231 1.391 . S
C1231 H1198 0.931 . S
C1231 C1226 1.370 . S
C1231 C1230 1.391 . S
C1232 N1206 1.435 . S
C1232 C1233 1.358 . S
C1232 C1237 1.371 . S
C1233 H1199 0.930 . S
C1233 C1232 1.358 . S
C1233 C1234 1.405 . S
C1234 H1200 0.932 . S
C1234 C1233 1.405 . S
C1234 C1235 1.383 . S
C1235 C1234 1.383 . S
C1235 C1236 1.393 . S
C1236 H1201 0.931 . S
C1236 C1235 1.393 . S
C1236 C1237 1.382 . S
C1237 H1202 0.929 . S
C1237 C1232 1.371 . S
C1237 C1236 1.382 . S
C1238 N1206 1.423 . S
C1238 C1239 1.362 . S
C1238 C1243 1.388 . S
C1239 H1203 0.929 . S
C1239 C1238 1.362 . S
C1239 C1240 1.376 . S
C1240 H1204 0.931 . S
C1240 C1239 1.376 . S
C1240 C1241 1.396 . S
C1241 C1223 1.472 . S
C1241 C1240 1.396 . S
C1241 C1242 1.348 . S
C1242 H1205 0.929 . S
C1242 C1241 1.348 . S
C1242 C1243 1.443 . S
C1243 H1207 0.932 . S
C1243 C1238 1.388 . S
C1243 C1242 1.443 . S
H1244 C1271 0.929 . S
N1245 C1270 1.433 . S
N1245 C1276 1.435 . S
N1245 C1282 1.423 . S
H1246 C1272 0.930 . S
H1247 C1275 0.931 . S
H1248 C1274 0.929 . S
H1249 C1277 0.930 . S
H1250 C1278 0.932 . S
H1251 C1281 0.929 . S
H1252 C1280 0.931 . S
H1253 C1283 0.929 . S
H1254 C1287 0.932 . S
H1255 C1284 0.931 . S
H1256 C1286 0.929 . S
H1257 C1289 0.929 . S
H1258 C1290 0.930 . S
H1259 C1292 0.929 . S
H1260 C1293 0.931 . S
H1261 C1295 0.930 . S
H1262 C1296 0.932 . S
H1263 C1298 0.931 . S
H1264 C1299 0.929 . S
H1265 C1301 0.929 . S
H1266 C1302 0.931 . S
H1267 C1304 0.929 . S
N1268 C1288 1.433 . S
N1268 C1294 1.435 . S
N1268 C1300 1.423 . S
H1269 C1305 0.932 . S
C1270 N1245 1.433 . S
C1270 C1271 1.363 . S
C1270 C1275 1.370 . S
C1271 H1244 0.929 . S
C1271 C1270 1.363 . S
C1271 C1272 1.385 . S
C1272 H1246 0.930 . S
C1272 C1271 1.385 . S
C1272 C1273 1.357 . S
C1273 C1272 1.357 . S
C1273 C1274 1.406 . S
C1274 H1248 0.929 . S
C1274 C1273 1.406 . S
C1274 C1275 1.391 . S
C1275 H1247 0.931 . S
C1275 C1270 1.370 . S
C1275 C1274 1.391 . S
C1276 N1245 1.435 . S
C1276 C1277 1.358 . S
C1276 C1281 1.371 . S
C1277 H1249 0.930 . S
C1277 C1276 1.358 . S
C1277 C1278 1.405 . S
C1278 H1250 0.932 . S
C1278 C1277 1.405 . S
C1278 C1279 1.383 . S
C1279 C1278 1.383 . S
C1279 C1280 1.393 . S
C1280 H1252 0.931 . S
C1280 C1279 1.393 . S
C1280 C1281 1.382 . S
C1281 H1251 0.929 . S
C1281 C1276 1.371 . S
C1281 C1280 1.382 . S
C1282 N1245 1.423 . S
C1282 C1283 1.362 . S
C1282 C1287 1.388 . S
C1283 H1253 0.929 . S
C1283 C1282 1.362 . S
C1283 C1284 1.376 . S
C1284 H1255 0.931 . S
C1284 C1283 1.376 . S
C1284 C1285 1.396 . S
C1285 C1284 1.396 . S
C1285 C1286 1.348 . S
C1285 C1303 1.472 . S
C1286 H1256 0.929 . S
C1286 C1285 1.348 . S
C1286 C1287 1.443 . S
C1287 H1254 0.932 . S
C1287 C1282 1.388 . S
C1287 C1286 1.443 . S
C1288 N1268 1.433 . S
C1288 C1289 1.363 . S
C1288 C1293 1.370 . S
C1289 H1257 0.929 . S
C1289 C1288 1.363 . S
C1289 C1290 1.385 . S
C1290 H1258 0.930 . S
C1290 C1289 1.385 . S
C1290 C1291 1.357 . S
C1291 C1290 1.357 . S
C1291 C1292 1.406 . S
C1292 H1259 0.929 . S
C1292 C1291 1.406 . S
C1292 C1293 1.391 . S
C1293 H1260 0.931 . S
C1293 C1288 1.370 . S
C1293 C1292 1.391 . S
C1294 N1268 1.435 . S
C1294 C1295 1.358 . S
C1294 C1299 1.371 . S
C1295 H1261 0.930 . S
C1295 C1294 1.358 . S
C1295 C1296 1.405 . S
C1296 H1262 0.932 . S
C1296 C1295 1.405 . S
C1296 C1297 1.383 . S
C1297 C1296 1.383 . S
C1297 C1298 1.393 . S
C1298 H1263 0.931 . S
C1298 C1297 1.393 . S
C1298 C1299 1.382 . S
C1299 H1264 0.929 . S
C1299 C1294 1.371 . S
C1299 C1298 1.382 . S
C1300 N1268 1.423 . S
C1300 C1301 1.362 . S
C1300 C1305 1.388 . S
C1301 H1265 0.929 . S
C1301 C1300 1.362 . S
C1301 C1302 1.376 . S
C1302 H1266 0.931 . S
C1302 C1301 1.376 . S
C1302 C1303 1.396 . S
C1303 C1285 1.472 . S
C1303 C1302 1.396 . S
C1303 C1304 1.348 . S
C1304 H1267 0.929 . S
C1304 C1303 1.348 . S
C1304 C1305 1.443 . S
C1305 H1269 0.932 . S
C1305 C1300 1.388 . S
C1305 C1304 1.443 . S
H1306 C1333 0.929 . S
N1307 C1332 1.433 . S
N1307 C1338 1.435 . S
N1307 C1344 1.423 . S
H1308 C1334 0.930 . S
H1309 C1337 0.931 . S
H1310 C1336 0.929 . S
H1311 C1339 0.930 . S
H1312 C1340 0.932 . S
H1313 C1343 0.929 . S
H1314 C1342 0.931 . S
H1315 C1345 0.929 . S
H1316 C1349 0.932 . S
H1317 C1346 0.931 . S
H1318 C1348 0.929 . S
H1319 C1351 0.929 . S
H1320 C1352 0.930 . S
H1321 C1354 0.929 . S
H1322 C1355 0.931 . S
H1323 C1357 0.930 . S
H1324 C1358 0.932 . S
H1325 C1360 0.931 . S
H1326 C1361 0.929 . S
H1327 C1363 0.929 . S
H1328 C1364 0.931 . S
H1329 C1366 0.929 . S
N1330 C1350 1.433 . S
N1330 C1356 1.435 . S
N1330 C1362 1.423 . S
H1331 C1367 0.932 . S
C1332 N1307 1.433 . S
C1332 C1333 1.363 . S
C1332 C1337 1.370 . S
C1333 H1306 0.929 . S
C1333 C1332 1.363 . S
C1333 C1334 1.385 . S
C1334 H1308 0.930 . S
C1334 C1333 1.385 . S
C1334 C1335 1.357 . S
C1335 C1334 1.357 . S
C1335 C1336 1.406 . S
C1336 H1310 0.929 . S
C1336 C1335 1.406 . S
C1336 C1337 1.391 . S
C1337 H1309 0.931 . S
C1337 C1332 1.370 . S
C1337 C1336 1.391 . S
C1338 N1307 1.435 . S
C1338 C1339 1.358 . S
C1338 C1343 1.371 . S
C1339 H1311 0.930 . S
C1339 C1338 1.358 . S
C1339 C1340 1.405 . S
C1340 H1312 0.932 . S
C1340 C1339 1.405 . S
C1340 C1341 1.383 . S
C1341 C1340 1.383 . S
C1341 C1342 1.393 . S
C1342 H1314 0.931 . S
C1342 C1341 1.393 . S
C1342 C1343 1.382 . S
C1343 H1313 0.929 . S
C1343 C1338 1.371 . S
C1343 C1342 1.382 . S
C1344 N1307 1.423 . S
C1344 C1345 1.362 . S
C1344 C1349 1.388 . S
C1345 H1315 0.929 . S
C1345 C1344 1.362 . S
C1345 C1346 1.376 . S
C1346 H1317 0.931 . S
C1346 C1345 1.376 . S
C1346 C1347 1.396 . S
C1347 C1346 1.396 . S
C1347 C1348 1.348 . S
C1347 C1365 1.472 . S
C1348 H1318 0.929 . S
C1348 C1347 1.348 . S
C1348 C1349 1.443 . S
C1349 H1316 0.932 . S
C1349 C1344 1.388 . S
C1349 C1348 1.443 . S
C1350 N1330 1.433 . S
C1350 C1351 1.363 . S
C1350 C1355 1.370 . S
C1351 H1319 0.929 . S
C1351 C1350 1.363 . S
C1351 C1352 1.385 . S
C1352 H1320 0.930 . S
C1352 C1351 1.385 . S
C1352 C1353 1.357 . S
C1353 C1352 1.357 . S
C1353 C1354 1.406 . S
C1354 H1321 0.929 . S
C1354 C1353 1.406 . S
C1354 C1355 1.391 . S
C1355 H1322 0.931 . S
C1355 C1350 1.370 . S
C1355 C1354 1.391 . S
C1356 N1330 1.435 . S
C1356 C1357 1.358 . S
C1356 C1361 1.371 . S
C1357 H1323 0.930 . S
C1357 C1356 1.358 . S
C1357 C1358 1.405 . S
C1358 H1324 0.932 . S
C1358 C1357 1.405 . S
C1358 C1359 1.383 . S
C1359 C1358 1.383 . S
C1359 C1360 1.393 . S
C1360 H1325 0.931 . S
C1360 C1359 1.393 . S
C1360 C1361 1.382 . S
C1361 H1326 0.929 . S
C1361 C1356 1.371 . S
C1361 C1360 1.382 . S
C1362 N1330 1.423 . S
C1362 C1363 1.362 . S
C1362 C1367 1.388 . S
C1363 H1327 0.929 . S
C1363 C1362 1.362 . S
C1363 C1364 1.376 . S
C1364 H1328 0.931 . S
C1364 C1363 1.376 . S
C1364 C1365 1.396 . S
C1365 C1347 1.472 . S
C1365 C1364 1.396 . S
C1365 C1366 1.348 . S
C1366 H1329 0.929 . S
C1366 C1365 1.348 . S
C1366 C1367 1.443 . S
C1367 H1331 0.932 . S
C1367 C1362 1.388 . S
C1367 C1366 1.443 . S
C1368 C1369 1.391 . S
C1368 C1370 1.394 . S
C1368 H1384 0.931 . S
C1369 C1368 1.391 . S
C1369 C1373 1.376 1_655 S
C1370 C1368 1.394 . S
C1370 C1371 1.369 . S
C1370 C1374 1.531 . S
C1371 C1370 1.369 . S
C1371 C1372 1.410 1_655 S
C1371 C1379 1.503 . S
C1372 C1371 1.410 1_455 S
C1372 C1373 1.392 . S
C1372 C1375 1.511 . S
C1373 C1369 1.376 1_455 S
C1373 C1372 1.392 . S
C1373 H1385 0.929 . S
C1374 C1370 1.531 . S
C1374 H1386 0.960 . S
C1374 H1387 0.962 . S
C1374 H1388 0.960 . S
C1375 C1372 1.511 . S
C1375 H1389 0.961 . S
C1375 H1390 0.961 . S
C1375 H1391 0.961 . S
C1376 C1377 1.367 1_455 S
C1376 C1378 1.339 . S
C1376 H1392 0.928 . S
C1377 C1376 1.367 1_655 S
C1377 C1381 1.408 . S
C1378 C1376 1.339 . S
C1378 C1379 1.386 1_455 S
C1378 C1382 1.543 . S
C1379 C1371 1.503 . S
C1379 C1378 1.386 1_655 S
C1379 C1380 1.403 . S
C1380 C1379 1.403 . S
C1380 C1381 1.404 . S
C1380 C1383 1.539 . S
C1381 C1377 1.408 . S
C1381 C1380 1.404 . S
C1381 H1393 0.930 . S
C1382 C1378 1.543 . S
C1382 H1394 0.910 1_455 S
C1382 H1395 0.961 . S
C1382 H1396 0.961 . S
C1383 C1380 1.539 . S
C1383 H1397 0.958 . S
C1383 H1398 0.961 . S
C1383 H1399 0.960 . S
H1384 C1368 0.931 . S
H1385 C1373 0.929 . S
H1386 C1374 0.960 . S
H1387 C1374 0.962 . S
H1388 C1374 0.960 . S
H1389 C1375 0.961 . S
H1390 C1375 0.961 . S
H1391 C1375 0.961 . S
H1392 C1376 0.928 . S
H1393 C1381 0.930 . S
H1394 C1382 0.910 1_655 S
H1395 C1382 0.961 . S
H1396 C1382 0.961 . S
H1397 C1383 0.958 . S
H1398 C1383 0.961 . S
H1399 C1383 0.960 . S
C1400 C1401 1.391 . S
C1400 C1402 1.394 . S
C1400 H1416 0.931 . S
C1401 C1400 1.391 . S
C1401 C1405 1.376 . S
C1402 C1400 1.394 . S
C1402 C1403 1.369 . S
C1402 C1406 1.531 . S
C1403 C1402 1.369 . S
C1403 C1404 1.410 . S
C1403 C1411 1.503 . S
C1404 C1403 1.410 . S
C1404 C1405 1.392 . S
C1404 C1407 1.511 . S
C1405 C1401 1.376 . S
C1405 C1404 1.392 . S
C1405 H1417 0.929 . S
C1406 C1402 1.531 . S
C1406 H1418 0.960 . S
C1406 H1419 0.962 . S
C1406 H1420 0.960 . S
C1407 C1404 1.511 . S
C1407 H1421 0.961 . S
C1407 H1422 0.961 . S
C1407 H1423 0.961 . S
C1408 C1409 1.370 . S
C1408 C1410 1.363 . S
C1408 H1424 0.931 . S
C1409 C1408 1.370 . S
C1409 C1413 1.408 . S
C1410 C1408 1.363 . S
C1410 C1411 1.370 . S
C1410 C1414 1.524 . S
C1411 C1403 1.503 . S
C1411 C1410 1.370 . S
C1411 C1412 1.403 . S
C1412 C1411 1.403 . S
C1412 C1413 1.404 . S
C1412 C1415 1.539 . S
C1413 C1409 1.408 . S
C1413 C1412 1.404 . S
C1413 H1425 0.930 . S
C1414 C1410 1.524 . S
C1414 H1426 0.956 . S
C1414 H1427 0.961 . S
C1414 H1428 0.961 . S
C1415 C1412 1.539 . S
C1415 H1429 0.958 . S
C1415 H1430 0.961 . S
C1415 H1431 0.960 . S
H1416 C1400 0.931 . S
H1417 C1405 0.929 . S
H1418 C1406 0.960 . S
H1419 C1406 0.962 . S
H1420 C1406 0.960 . S
H1421 C1407 0.961 . S
H1422 C1407 0.961 . S
H1423 C1407 0.961 . S
H1424 C1408 0.931 . S
H1425 C1413 0.930 . S
H1426 C1414 0.956 . S
H1427 C1414 0.961 . S
H1428 C1414 0.961 . S
H1429 C1415 0.958 . S
H1430 C1415 0.961 . S
H1431 C1415 0.960 . S
C1432 C1433 1.391 . S
C1432 C1434 1.394 . S
C1432 H1448 0.931 . S
C1433 C1432 1.391 . S
C1433 C1437 1.376 . S
C1434 C1432 1.394 . S
C1434 C1435 1.369 . S
C1434 C1438 1.531 . S
C1435 C1434 1.369 . S
C1435 C1436 1.410 . S
C1435 C1443 1.503 . S
C1436 C1435 1.410 . S
C1436 C1437 1.392 . S
C1436 C1439 1.511 . S
C1437 C1433 1.376 . S
C1437 C1436 1.392 . S
C1437 H1449 0.908 . S
C1438 C1434 1.531 . S
C1438 H1450 0.960 . S
C1438 H1451 0.962 . S
C1438 H1452 0.960 . S
C1439 C1436 1.511 . S
C1439 H1453 0.961 1_545 S
C1439 H1454 0.961 1_545 S
C1439 H1455 0.961 . S
C1440 C1441 1.370 1_565 S
C1440 C1442 1.363 . S
C1440 H1456 0.931 . S
C1441 C1440 1.370 1_545 S
C1441 C1445 1.408 . S
C1442 C1440 1.363 . S
C1442 C1443 1.370 1_565 S
C1442 C1446 1.524 . S
C1443 C1435 1.503 . S
C1443 C1442 1.370 1_545 S
C1443 C1444 1.403 . S
C1444 C1443 1.403 . S
C1444 C1445 1.404 . S
C1444 C1447 1.539 . S
C1445 C1441 1.408 . S
C1445 C1444 1.404 . S
C1445 H1457 0.930 . S
C1446 C1442 1.524 . S
C1446 H1458 0.956 . S
C1446 H1459 0.961 . S
C1446 H1460 0.961 . S
C1447 C1444 1.539 . S
C1447 H1461 0.958 . S
C1447 H1462 0.961 . S
C1447 H1463 0.960 . S
H1448 C1432 0.931 . S
H1449 C1437 0.908 . S
H1450 C1438 0.960 . S
H1451 C1438 0.962 . S
H1452 C1438 0.960 . S
H1453 C1439 0.961 1_565 S
H1454 C1439 0.961 1_565 S
H1455 C1439 0.961 . S
H1456 C1440 0.931 . S
H1457 C1445 0.930 . S
H1458 C1446 0.956 . S
H1459 C1446 0.961 . S
H1460 C1446 0.961 . S
H1461 C1447 0.958 . S
H1462 C1447 0.961 . S
H1463 C1447 0.960 . S
C1464 C1465 1.391 1_565 S
C1464 C1466 1.394 . S
C1464 H1480 0.931 . S
C1465 C1464 1.391 1_545 S
C1465 C1469 1.376 . S
C1466 C1464 1.394 . S
C1466 C1467 1.369 1_565 S
C1466 C1470 1.531 . S
C1467 C1466 1.369 1_545 S
C1467 C1468 1.410 . S
C1467 C1475 1.507 1_545 S
C1468 C1467 1.410 . S
C1468 C1469 1.392 . S
C1468 C1471 1.511 . S
C1469 C1465 1.376 . S
C1469 C1468 1.392 . S
C1469 H1481 0.929 . S
C1470 C1466 1.531 . S
C1470 H1482 0.960 . S
C1470 H1483 0.962 . S
C1470 H1484 0.960 . S
C1471 C1468 1.511 . S
C1471 H1485 0.961 . S
C1471 H1486 0.961 . S
C1471 H1487 0.961 . S
C1472 C1473 1.370 . S
C1472 C1474 1.363 . S
C1472 H1488 0.931 . S
C1473 C1472 1.370 . S
C1473 C1477 1.408 1_565 S
C1474 C1472 1.363 . S
C1474 C1475 1.363 . S
C1474 C1478 1.524 . S
C1475 C1467 1.507 1_565 S
C1475 C1474 1.363 . S
C1475 C1476 1.407 1_565 S
C1476 C1475 1.407 1_545 S
C1476 C1477 1.404 . S
C1476 C1479 1.539 . S
C1477 C1473 1.408 1_545 S
C1477 C1476 1.404 . S
C1477 H1489 0.930 . S
C1478 C1474 1.524 . S
C1478 H1490 0.956 . S
C1478 H1491 0.961 . S
C1478 H1492 0.961 . S
C1479 C1476 1.539 . S
C1479 H1493 0.958 . S
C1479 H1494 0.961 . S
C1479 H1495 0.960 . S
H1480 C1464 0.931 . S
H1481 C1469 0.929 . S
H1482 C1470 0.960 . S
H1483 C1470 0.962 . S
H1484 C1470 0.960 . S
H1485 C1471 0.961 . S
H1486 C1471 0.961 . S
H1487 C1471 0.961 . S
H1488 C1472 0.931 . S
H1489 C1477 0.930 . S
H1490 C1478 0.956 . S
H1491 C1478 0.961 . S
H1492 C1478 0.961 . S
H1493 C1479 0.958 . S
H1494 C1479 0.961 . S
H1495 C1479 0.960 . S
C1496 C1497 1.391 . S
C1496 C1498 1.394 . S
C1496 H1512 0.931 . S
C1497 C1496 1.391 . S
C1497 C1501 1.376 1_455 S
C1498 C1496 1.394 . S
C1498 C1499 1.369 . S
C1498 C1502 1.531 . S
C1499 C1498 1.369 . S
C1499 C1500 1.410 1_455 S
C1499 C1507 1.503 . S
C1500 C1499 1.410 1_655 S
C1500 C1501 1.392 . S
C1500 C1503 1.511 . S
C1501 C1497 1.376 1_655 S
C1501 C1500 1.392 . S
C1501 H1513 0.929 . S
C1502 C1498 1.531 . S
C1502 H1514 0.960 . S
C1502 H1515 0.962 . S
C1502 H1516 0.960 . S
C1503 C1500 1.511 . S
C1503 H1517 0.961 . S
C1503 H1518 0.961 . S
C1503 H1519 0.961 . S
C1504 C1505 1.370 . S
C1504 C1506 1.363 . S
C1504 H1520 0.931 . S
C1505 C1504 1.370 . S
C1505 C1509 1.408 1_455 S
C1506 C1504 1.363 . S
C1506 C1507 1.370 . S
C1506 C1510 1.524 . S
C1507 C1499 1.503 . S
C1507 C1506 1.370 . S
C1507 C1508 1.403 1_455 S
C1508 C1507 1.403 1_655 S
C1508 C1509 1.404 . S
C1508 C1511 1.539 . S
C1509 C1505 1.408 1_655 S
C1509 C1508 1.404 . S
C1509 H1521 0.930 . S
C1510 C1506 1.524 . S
C1510 H1522 0.956 . S
C1510 H1523 0.961 . S
C1510 H1524 0.961 . S
C1511 C1508 1.539 . S
C1511 H1525 0.958 . S
C1511 H1526 0.961 . S
C1511 H1527 0.960 . S
H1512 C1496 0.931 . S
H1513 C1501 0.929 . S
H1514 C1502 0.960 . S
H1515 C1502 0.962 . S
H1516 C1502 0.960 . S
H1517 C1503 0.961 . S
H1518 C1503 0.961 . S
H1519 C1503 0.961 . S
H1520 C1504 0.931 . S
H1521 C1509 0.930 . S
H1522 C1510 0.956 . S
H1523 C1510 0.961 . S
H1524 C1510 0.961 . S
H1525 C1511 0.958 . S
H1526 C1511 0.961 . S
H1527 C1511 0.960 . S
C1528 C1529 1.391 . S
C1528 C1530 1.394 . S
C1528 H1544 0.931 . S
C1529 C1528 1.391 . S
C1529 C1533 1.376 . S
C1530 C1528 1.394 . S
C1530 C1531 1.369 . S
C1530 C1534 1.531 . S
C1531 C1530 1.369 . S
C1531 C1532 1.410 . S
C1531 C1539 1.503 . S
C1532 C1531 1.410 . S
C1532 C1533 1.392 . S
C1532 C1535 1.511 . S
C1533 C1529 1.376 . S
C1533 C1532 1.392 . S
C1533 H1545 0.929 . S
C1534 C1530 1.531 . S
C1534 H1546 0.960 . S
C1534 H1547 0.962 . S
C1534 H1548 0.960 . S
C1535 C1532 1.511 . S
C1535 H1549 0.961 . S
C1535 H1550 0.961 . S
C1535 H1551 0.961 . S
C1536 C1537 1.370 . S
C1536 C1538 1.363 . S
C1536 H1552 0.931 . S
C1537 C1536 1.370 . S
C1537 C1541 1.408 . S
C1538 C1536 1.363 . S
C1538 C1539 1.370 . S
C1538 C1542 1.524 . S
C1539 C1531 1.503 . S
C1539 C1538 1.370 . S
C1539 C1540 1.403 . S
C1540 C1539 1.403 . S
C1540 C1541 1.404 . S
C1540 C1543 1.539 . S
C1541 C1537 1.408 . S
C1541 C1540 1.404 . S
C1541 H1553 0.930 . S
C1542 C1538 1.524 . S
C1542 H1554 0.956 . S
C1542 H1555 0.961 . S
C1542 H1556 0.961 . S
C1543 C1540 1.539 . S
C1543 H1557 0.958 . S
C1543 H1558 0.961 . S
C1543 H1559 0.960 . S
H1544 C1528 0.931 . S
H1545 C1533 0.929 . S
H1546 C1534 0.960 . S
H1547 C1534 0.962 . S
H1548 C1534 0.960 . S
H1549 C1535 0.961 . S
H1550 C1535 0.961 . S
H1551 C1535 0.961 . S
H1552 C1536 0.931 . S
H1553 C1541 0.930 . S
H1554 C1542 0.956 . S
H1555 C1542 0.961 . S
H1556 C1542 0.961 . S
H1557 C1543 0.958 . S
H1558 C1543 0.961 . S
H1559 C1543 0.960 . S
C1560 C1561 1.391 . S
C1560 C1562 1.394 . S
C1560 H1576 0.931 . S
C1561 C1560 1.391 . S
C1561 C1565 1.376 1_455 S
C1562 C1560 1.394 . S
C1562 C1563 1.369 . S
C1562 C1566 1.531 . S
C1563 C1562 1.369 . S
C1563 C1564 1.410 1_455 S
C1563 C1571 1.503 . S
C1564 C1563 1.410 1_655 S
C1564 C1565 1.392 . S
C1564 C1567 1.511 . S
C1565 C1561 1.376 1_655 S
C1565 C1564 1.392 . S
C1565 H1577 0.929 . S
C1566 C1562 1.531 . S
C1566 H1578 0.960 . S
C1566 H1579 0.962 . S
C1566 H1580 0.960 . S
C1567 C1564 1.511 . S
C1567 H1581 0.961 . S
C1567 H1582 0.961 . S
C1567 H1583 0.961 . S
C1568 C1569 1.370 . S
C1568 C1570 1.363 . S
C1568 H1584 0.931 . S
C1569 C1568 1.370 . S
C1569 C1573 1.412 . S
C1570 C1568 1.363 . S
C1570 C1571 1.370 . S
C1570 C1574 1.524 . S
C1571 C1563 1.503 . S
C1571 C1570 1.370 . S
C1571 C1572 1.402 . S
C1572 C1571 1.402 . S
C1572 C1573 1.391 . S
C1572 C1575 1.539 1_455 S
C1573 C1569 1.412 . S
C1573 C1572 1.391 . S
C1573 H1585 0.941 1_455 S
C1574 C1570 1.524 . S
C1574 H1586 0.956 . S
C1574 H1587 0.961 . S
C1574 H1588 0.961 . S
C1575 C1572 1.539 1_655 S
C1575 H1589 0.958 1_655 S
C1575 H1590 0.961 . S
C1575 H1591 0.960 . S
H1576 C1560 0.931 . S
H1577 C1565 0.929 . S
H1578 C1566 0.960 . S
H1579 C1566 0.962 . S
H1580 C1566 0.960 . S
H1581 C1567 0.961 . S
H1582 C1567 0.961 . S
H1583 C1567 0.961 . S
H1584 C1568 0.931 . S
H1585 C1573 0.941 1_655 S
H1586 C1574 0.956 . S
H1587 C1574 0.961 . S
H1588 C1574 0.961 . S
H1589 C1575 0.958 1_455 S
H1590 C1575 0.961 . S
H1591 C1575 0.960 . S
C1592 C1593 1.391 . S
C1592 C1594 1.394 . S
C1592 H1608 0.931 . S
C1593 C1592 1.391 . S
C1593 C1597 1.376 . S
C1594 C1592 1.394 . S
C1594 C1595 1.369 . S
C1594 C1598 1.531 . S
C1595 C1594 1.369 . S
C1595 C1596 1.410 . S
C1595 C1603 1.503 . S
C1596 C1595 1.410 . S
C1596 C1597 1.392 . S
C1596 C1599 1.511 . S
C1597 C1593 1.376 . S
C1597 C1596 1.392 . S
C1597 H1609 0.929 . S
C1598 C1594 1.531 . S
C1598 H1610 0.960 . S
C1598 H1611 0.962 . S
C1598 H1612 0.960 . S
C1599 C1596 1.511 . S
C1599 H1613 0.961 . S
C1599 H1614 0.961 . S
C1599 H1615 0.961 . S
C1600 C1601 1.370 . S
C1600 C1602 1.363 . S
C1600 H1616 0.931 . S
C1601 C1600 1.370 . S
C1601 C1605 1.408 . S
C1602 C1600 1.363 . S
C1602 C1603 1.370 . S
C1602 C1606 1.524 . S
C1603 C1595 1.503 . S
C1603 C1602 1.370 . S
C1603 C1604 1.403 . S
C1604 C1603 1.403 . S
C1604 C1605 1.404 . S
C1604 C1607 1.539 . S
C1605 C1601 1.408 . S
C1605 C1604 1.404 . S
C1605 H1617 0.930 . S
C1606 C1602 1.524 . S
C1606 H1618 0.956 . S
C1606 H1619 0.961 . S
C1606 H1620 0.961 . S
C1607 C1604 1.539 . S
C1607 H1621 0.958 . S
C1607 H1622 0.961 . S
C1607 H1623 0.960 . S
H1608 C1592 0.931 . S
H1609 C1597 0.929 . S
H1610 C1598 0.960 . S
H1611 C1598 0.962 . S
H1612 C1598 0.960 . S
H1613 C1599 0.961 . S
H1614 C1599 0.961 . S
H1615 C1599 0.961 . S
H1616 C1600 0.931 . S
H1617 C1605 0.930 . S
H1618 C1606 0.956 . S
H1619 C1606 0.961 . S
H1620 C1606 0.961 . S
H1621 C1607 0.958 . S
H1622 C1607 0.961 . S
H1623 C1607 0.960 . S
C1624 C1625 1.395 1_545 S
C1624 C1626 1.394 . S
C1624 H1640 0.931 . S
C1625 C1624 1.395 1_565 S
C1625 C1629 1.374 . S
C1626 C1624 1.394 . S
C1626 C1627 1.392 . S
C1626 C1630 1.531 . S
C1627 C1626 1.392 . S
C1627 C1628 1.368 1_545 S
C1627 C1635 1.520 1_545 S
C1628 C1627 1.368 1_565 S
C1628 C1629 1.392 . S
C1628 C1631 1.511 . S
C1629 C1625 1.374 . S
C1629 C1628 1.392 . S
C1629 H1641 0.929 . S
C1630 C1626 1.531 . S
C1630 H1642 0.960 . S
C1630 H1643 0.962 . S
C1630 H1644 0.960 . S
C1631 C1628 1.511 . S
C1631 H1645 0.961 . S
C1631 H1646 0.961 . S
C1631 H1647 0.961 . S
C1632 C1633 1.370 . S
C1632 C1634 1.363 . S
C1632 H1648 0.931 . S
C1633 C1632 1.370 . S
C1633 C1637 1.408 1_565 S
C1634 C1632 1.363 . S
C1634 C1635 1.370 . S
C1634 C1638 1.524 . S
C1635 C1627 1.520 1_565 S
C1635 C1634 1.370 . S
C1635 C1636 1.403 1_565 S
C1636 C1635 1.403 1_545 S
C1636 C1637 1.404 . S
C1636 C1639 1.539 . S
C1637 C1633 1.408 1_545 S
C1637 C1636 1.404 . S
C1637 H1649 0.930 . S
C1638 C1634 1.524 . S
C1638 H1650 0.956 . S
C1638 H1651 0.961 . S
C1638 H1652 0.961 . S
C1639 C1636 1.539 . S
C1639 H1653 0.958 . S
C1639 H1654 0.961 . S
C1639 H1655 0.960 . S
H1640 C1624 0.931 . S
H1641 C1629 0.929 . S
H1642 C1630 0.960 . S
H1643 C1630 0.962 . S
H1644 C1630 0.960 . S
H1645 C1631 0.961 . S
H1646 C1631 0.961 . S
H1647 C1631 0.961 . S
H1648 C1632 0.931 . S
H1649 C1637 0.930 . S
H1650 C1638 0.956 . S
H1651 C1638 0.961 . S
H1652 C1638 0.961 . S
H1653 C1639 0.958 . S
H1654 C1639 0.961 . S
H1655 C1639 0.960 . S
C1656 C1657 1.391 . S
C1656 C1658 1.394 . S
C1656 H1672 0.931 . S
C1657 C1656 1.391 . S
C1657 C1661 1.358 1_545 S
C1658 C1656 1.394 . S
C1658 C1659 1.367 1_545 S
C1658 C1662 1.531 . S
C1659 C1658 1.367 1_565 S
C1659 C1660 1.415 . S
C1659 C1667 1.499 1_565 S
C1660 C1659 1.415 . S
C1660 C1661 1.367 . S
C1660 C1663 1.511 . S
C1661 C1657 1.358 1_565 S
C1661 C1660 1.367 . S
C1661 H1673 0.981 . S
C1662 C1658 1.531 . S
C1662 H1674 0.960 1_545 S
C1662 H1675 0.962 . S
C1662 H1676 0.960 1_545 S
C1663 C1660 1.511 . S
C1663 H1677 0.960 1_565 S
C1663 H1678 0.961 1_565 S
C1663 H1679 0.961 . S
C1664 C1665 1.370 . S
C1664 C1666 1.363 . S
C1664 H1680 0.931 . S
C1665 C1664 1.370 . S
C1665 C1669 1.408 1_545 S
C1666 C1664 1.363 . S
C1666 C1667 1.370 . S
C1666 C1670 1.524 . S
C1667 C1659 1.499 1_545 S
C1667 C1666 1.370 . S
C1667 C1668 1.403 1_545 S
C1668 C1667 1.403 1_565 S
C1668 C1669 1.404 . S
C1668 C1671 1.539 . S
C1669 C1665 1.408 1_565 S
C1669 C1668 1.404 . S
C1669 H1681 0.930 . S
C1670 C1666 1.524 . S
C1670 H1682 0.956 . S
C1670 H1683 0.961 . S
C1670 H1684 0.961 . S
C1671 C1668 1.539 . S
C1671 H1685 0.958 . S
C1671 H1686 0.961 . S
C1671 H1687 0.960 . S
H1672 C1656 0.931 . S
H1673 C1661 0.981 . S
H1674 C1662 0.960 1_565 S
H1675 C1662 0.962 . S
H1676 C1662 0.960 1_565 S
H1677 C1663 0.960 1_545 S
H1678 C1663 0.961 1_545 S
H1679 C1663 0.961 . S
H1680 C1664 0.931 . S
H1681 C1669 0.930 . S
H1682 C1670 0.956 . S
H1683 C1670 0.961 . S
H1684 C1670 0.961 . S
H1685 C1671 0.958 . S
H1686 C1671 0.961 . S
H1687 C1671 0.960 . S
C1688 C1689 1.391 1_455 S
C1688 C1690 1.394 . S
C1688 H1704 0.931 . S
C1689 C1688 1.391 1_655 S
C1689 C1693 1.376 . S
C1690 C1688 1.394 . S
C1690 C1691 1.369 1_455 S
C1690 C1694 1.531 . S
C1691 C1690 1.369 1_655 S
C1691 C1692 1.410 . S
C1691 C1699 1.503 . S
C1692 C1691 1.410 . S
C1692 C1693 1.392 . S
C1692 C1695 1.511 . S
C1693 C1689 1.376 . S
C1693 C1692 1.392 . S
C1693 H1705 0.929 . S
C1694 C1690 1.531 . S
C1694 H1706 0.960 . S
C1694 H1707 0.962 . S
C1694 H1708 0.960 . S
C1695 C1692 1.511 . S
C1695 H1709 0.961 . S
C1695 H1710 0.961 . S
C1695 H1711 0.961 . S
C1696 C1697 1.370 1_455 S
C1696 C1698 1.363 . S
C1696 H1712 0.931 . S
C1697 C1696 1.370 1_655 S
C1697 C1701 1.408 . S
C1698 C1696 1.363 . S
C1698 C1699 1.370 1_455 S
C1698 C1702 1.524 . S
C1699 C1691 1.503 . S
C1699 C1698 1.370 1_655 S
C1699 C1700 1.403 . S
C1700 C1699 1.403 . S
C1700 C1701 1.404 . S
C1700 C1703 1.539 . S
C1701 C1697 1.408 . S
C1701 C1700 1.404 . S
C1701 H1713 0.930 . S
C1702 C1698 1.524 . S
C1702 H1714 0.956 . S
C1702 H1715 0.961 . S
C1702 H1716 0.961 . S
C1703 C1700 1.539 . S
C1703 H1717 0.958 . S
C1703 H1718 0.961 . S
C1703 H1719 0.960 . S
H1704 C1688 0.931 . S
H1705 C1693 0.929 . S
H1706 C1694 0.960 . S
H1707 C1694 0.962 . S
H1708 C1694 0.960 . S
H1709 C1695 0.961 . S
H1710 C1695 0.961 . S
H1711 C1695 0.961 . S
H1712 C1696 0.931 . S
H1713 C1701 0.930 . S
H1714 C1702 0.956 . S
H1715 C1702 0.961 . S
H1716 C1702 0.961 . S
H1717 C1703 0.958 . S
H1718 C1703 0.961 . S
H1719 C1703 0.960 . S
C1720 C1721 1.391 . S
C1720 C1722 1.394 . S
C1720 H1736 0.931 . S
C1721 C1720 1.391 . S
C1721 C1725 1.376 . S
C1722 C1720 1.394 . S
C1722 C1723 1.369 . S
C1722 C1726 1.531 . S
C1723 C1722 1.369 . S
C1723 C1724 1.410 . S
C1723 C1731 1.503 . S
C1724 C1723 1.410 . S
C1724 C1725 1.392 . S
C1724 C1727 1.511 . S
C1725 C1721 1.376 . S
C1725 C1724 1.392 . S
C1725 H1737 0.929 . S
C1726 C1722 1.531 . S
C1726 H1738 0.960 . S
C1726 H1739 0.962 . S
C1726 H1740 0.960 . S
C1727 C1724 1.511 . S
C1727 H1741 0.961 . S
C1727 H1742 0.961 . S
C1727 H1743 0.961 . S
C1728 C1729 1.370 . S
C1728 C1730 1.363 . S
C1728 H1744 0.931 . S
C1729 C1728 1.370 . S
C1729 C1733 1.408 . S
C1730 C1728 1.363 . S
C1730 C1731 1.370 . S
C1730 C1734 1.524 . S
C1731 C1723 1.503 . S
C1731 C1730 1.370 . S
C1731 C1732 1.403 . S
C1732 C1731 1.403 . S
C1732 C1733 1.404 . S
C1732 C1735 1.539 . S
C1733 C1729 1.408 . S
C1733 C1732 1.404 . S
C1733 H1745 0.930 . S
C1734 C1730 1.524 . S
C1734 H1746 0.956 . S
C1734 H1747 0.961 . S
C1734 H1748 0.961 . S
C1735 C1732 1.539 . S
C1735 H1749 0.958 . S
C1735 H1750 0.961 . S
C1735 H1751 0.960 . S
H1736 C1720 0.931 . S
H1737 C1725 0.929 . S
H1738 C1726 0.960 . S
H1739 C1726 0.962 . S
H1740 C1726 0.960 . S
H1741 C1727 0.961 . S
H1742 C1727 0.961 . S
H1743 C1727 0.961 . S
H1744 C1728 0.931 . S
H1745 C1733 0.930 . S
H1746 C1734 0.956 . S
H1747 C1734 0.961 . S
H1748 C1734 0.961 . S
H1749 C1735 0.958 . S
H1750 C1735 0.961 . S
H1751 C1735 0.960 . S
C1752 C1753 1.391 . S
C1752 C1754 1.394 . S
C1752 H1768 0.931 . S
C1753 C1752 1.391 . S
C1753 C1757 1.376 . S
C1754 C1752 1.394 . S
C1754 C1755 1.369 . S
C1754 C1758 1.531 . S
C1755 C1754 1.369 . S
C1755 C1756 1.410 . S
C1755 C1763 1.503 . S
C1756 C1755 1.410 . S
C1756 C1757 1.392 . S
C1756 C1759 1.511 . S
C1757 C1753 1.376 . S
C1757 C1756 1.392 . S
C1757 H1769 0.929 . S
C1758 C1754 1.531 . S
C1758 H1770 0.960 . S
C1758 H1771 0.962 . S
C1758 H1772 0.960 . S
C1759 C1756 1.511 . S
C1759 H1773 0.961 . S
C1759 H1774 0.961 . S
C1759 H1775 0.961 . S
C1760 C1761 1.370 . S
C1760 C1762 1.363 . S
C1760 H1776 0.931 . S
C1761 C1760 1.370 . S
C1761 C1765 1.408 . S
C1762 C1760 1.363 . S
C1762 C1763 1.370 . S
C1762 C1766 1.524 . S
C1763 C1755 1.503 . S
C1763 C1762 1.370 . S
C1763 C1764 1.403 . S
C1764 C1763 1.403 . S
C1764 C1765 1.404 . S
C1764 C1767 1.539 . S
C1765 C1761 1.408 . S
C1765 C1764 1.404 . S
C1765 H1777 0.930 . S
C1766 C1762 1.524 . S
C1766 H1778 0.956 . S
C1766 H1779 0.961 . S
C1766 H1780 0.961 . S
C1767 C1764 1.539 . S
C1767 H1781 0.958 . S
C1767 H1782 0.961 . S
C1767 H1783 0.960 . S
H1768 C1752 0.931 . S
H1769 C1757 0.929 . S
H1770 C1758 0.960 . S
H1771 C1758 0.962 . S
H1772 C1758 0.960 . S
H1773 C1759 0.961 . S
H1774 C1759 0.961 . S
H1775 C1759 0.961 . S
H1776 C1760 0.931 . S
H1777 C1765 0.930 . S
H1778 C1766 0.956 . S
H1779 C1766 0.961 . S
H1780 C1766 0.961 . S
H1781 C1767 0.958 . S
H1782 C1767 0.961 . S
H1783 C1767 0.960 . S
C1784 C1785 1.391 . S
C1784 C1786 1.394 . S
C1784 H1800 0.931 . S
C1785 C1784 1.391 . S
C1785 C1789 1.376 . S
C1786 C1784 1.394 . S
C1786 C1787 1.369 . S
C1786 C1790 1.531 . S
C1787 C1786 1.369 . S
C1787 C1788 1.410 . S
C1787 C1795 1.503 . S
C1788 C1787 1.410 . S
C1788 C1789 1.392 . S
C1788 C1791 1.511 . S
C1789 C1785 1.376 . S
C1789 C1788 1.392 . S
C1789 H1801 0.929 . S
C1790 C1786 1.531 . S
C1790 H1802 0.960 . S
C1790 H1803 0.962 . S
C1790 H1804 0.960 . S
C1791 C1788 1.511 . S
C1791 H1805 0.961 . S
C1791 H1806 0.961 . S
C1791 H1807 0.961 . S
C1792 C1793 1.370 . S
C1792 C1794 1.363 . S
C1792 H1808 0.931 . S
C1793 C1792 1.370 . S
C1793 C1797 1.408 . S
C1794 C1792 1.363 . S
C1794 C1795 1.370 . S
C1794 C1798 1.524 . S
C1795 C1787 1.503 . S
C1795 C1794 1.370 . S
C1795 C1796 1.403 . S
C1796 C1795 1.403 . S
C1796 C1797 1.404 . S
C1796 C1799 1.539 . S
C1797 C1793 1.408 . S
C1797 C1796 1.404 . S
C1797 H1809 0.930 . S
C1798 C1794 1.524 . S
C1798 H1810 0.956 . S
C1798 H1811 0.961 . S
C1798 H1812 0.961 . S
C1799 C1796 1.539 . S
C1799 H1813 0.958 . S
C1799 H1814 0.961 . S
C1799 H1815 0.960 . S
H1800 C1784 0.931 . S
H1801 C1789 0.929 . S
H1802 C1790 0.960 . S
H1803 C1790 0.962 . S
H1804 C1790 0.960 . S
H1805 C1791 0.961 . S
H1806 C1791 0.961 . S
H1807 C1791 0.961 . S
H1808 C1792 0.931 . S
H1809 C1797 0.930 . S
H1810 C1798 0.956 . S
H1811 C1798 0.961 . S
H1812 C1798 0.961 . S
H1813 C1799 0.958 . S
H1814 C1799 0.961 . S
H1815 C1799 0.960 . S
C1816 C1817 1.391 . S
C1816 C1818 1.394 . S
C1816 H1832 0.931 . S
C1817 C1816 1.391 . S
C1817 C1821 1.376 . S
C1818 C1816 1.394 . S
C1818 C1819 1.369 . S
C1818 C1822 1.531 . S
C1819 C1818 1.369 . S
C1819 C1820 1.410 . S
C1819 C1827 1.503 . S
C1820 C1819 1.410 . S
C1820 C1821 1.392 . S
C1820 C1823 1.511 . S
C1821 C1817 1.376 . S
C1821 C1820 1.392 . S
C1821 H1833 0.929 . S
C1822 C1818 1.531 . S
C1822 H1834 0.960 . S
C1822 H1835 0.962 . S
C1822 H1836 0.960 . S
C1823 C1820 1.511 . S
C1823 H1837 0.961 . S
C1823 H1838 0.961 . S
C1823 H1839 0.961 . S
C1824 C1825 1.370 . S
C1824 C1826 1.363 . S
C1824 H1840 0.931 . S
C1825 C1824 1.370 . S
C1825 C1829 1.408 . S
C1826 C1824 1.363 . S
C1826 C1827 1.370 . S
C1826 C1830 1.524 . S
C1827 C1819 1.503 . S
C1827 C1826 1.370 . S
C1827 C1828 1.403 . S
C1828 C1827 1.403 . S
C1828 C1829 1.404 . S
C1828 C1831 1.539 . S
C1829 C1825 1.408 . S
C1829 C1828 1.404 . S
C1829 H1841 0.930 . S
C1830 C1826 1.524 . S
C1830 H1842 0.956 . S
C1830 H1843 0.961 . S
C1830 H1844 0.961 . S
C1831 C1828 1.539 . S
C1831 H1845 0.958 . S
C1831 H1846 0.961 . S
C1831 H1847 0.960 . S
H1832 C1816 0.931 . S
H1833 C1821 0.929 . S
H1834 C1822 0.960 . S
H1835 C1822 0.962 . S
H1836 C1822 0.960 . S
H1837 C1823 0.961 . S
H1838 C1823 0.961 . S
H1839 C1823 0.961 . S
H1840 C1824 0.931 . S
H1841 C1829 0.930 . S
H1842 C1830 0.956 . S
H1843 C1830 0.961 . S
H1844 C1830 0.961 . S
H1845 C1831 0.958 . S
H1846 C1831 0.961 . S
H1847 C1831 0.960 . S
C1848 C1849 1.391 . S
C1848 C1850 1.394 . S
C1848 H1864 0.931 . S
C1849 C1848 1.391 . S
C1849 C1853 1.376 . S
C1850 C1848 1.394 . S
C1850 C1851 1.369 . S
C1850 C1854 1.531 . S
C1851 C1850 1.369 . S
C1851 C1852 1.410 . S
C1851 C1859 1.503 . S
C1852 C1851 1.410 . S
C1852 C1853 1.392 . S
C1852 C1855 1.511 . S
C1853 C1849 1.376 . S
C1853 C1852 1.392 . S
C1853 H1865 0.929 . S
C1854 C1850 1.531 . S
C1854 H1866 0.960 . S
C1854 H1867 0.962 . S
C1854 H1868 0.960 . S
C1855 C1852 1.511 . S
C1855 H1869 0.961 . S
C1855 H1870 0.961 . S
C1855 H1871 0.961 . S
C1856 C1857 1.370 . S
C1856 C1858 1.363 . S
C1856 H1872 0.931 . S
C1857 C1856 1.370 . S
C1857 C1861 1.408 . S
C1858 C1856 1.363 . S
C1858 C1859 1.370 . S
C1858 C1862 1.524 . S
C1859 C1851 1.503 . S
C1859 C1858 1.370 . S
C1859 C1860 1.403 . S
C1860 C1859 1.403 . S
C1860 C1861 1.404 . S
C1860 C1863 1.539 . S
C1861 C1857 1.408 . S
C1861 C1860 1.404 . S
C1861 H1873 0.930 . S
C1862 C1858 1.524 . S
C1862 H1874 0.956 . S
C1862 H1875 0.961 . S
C1862 H1876 0.961 . S
C1863 C1860 1.539 . S
C1863 H1877 0.958 . S
C1863 H1878 0.961 . S
C1863 H1879 0.960 . S
H1864 C1848 0.931 . S
H1865 C1853 0.929 . S
H1866 C1854 0.960 . S
H1867 C1854 0.962 . S
H1868 C1854 0.960 . S
H1869 C1855 0.961 . S
H1870 C1855 0.961 . S
H1871 C1855 0.961 . S
H1872 C1856 0.931 . S
H1873 C1861 0.930 . S
H1874 C1862 0.956 . S
H1875 C1862 0.961 . S
H1876 C1862 0.961 . S
H1877 C1863 0.958 . S
H1878 C1863 0.961 . S
H1879 C1863 0.960 . S
C1880 C1881 1.391 . S
C1880 C1882 1.394 . S
C1880 H1896 0.931 . S
C1881 C1880 1.391 . S
C1881 C1885 1.376 . S
C1882 C1880 1.394 . S
C1882 C1883 1.369 . S
C1882 C1886 1.531 . S
C1883 C1882 1.369 . S
C1883 C1884 1.410 . S
C1883 C1891 1.503 . S
C1884 C1883 1.410 . S
C1884 C1885 1.392 . S
C1884 C1887 1.511 . S
C1885 C1881 1.376 . S
C1885 C1884 1.392 . S
C1885 H1897 0.929 . S
C1886 C1882 1.531 . S
C1886 H1898 0.960 . S
C1886 H1899 0.962 . S
C1886 H1900 0.960 . S
C1887 C1884 1.511 . S
C1887 H1901 0.961 . S
C1887 H1902 0.961 . S
C1887 H1903 0.961 . S
C1888 C1889 1.370 . S
C1888 C1890 1.363 . S
C1888 H1904 0.931 . S
C1889 C1888 1.370 . S
C1889 C1893 1.408 . S
C1890 C1888 1.363 . S
C1890 C1891 1.370 . S
C1890 C1894 1.524 . S
C1891 C1883 1.503 . S
C1891 C1890 1.370 . S
C1891 C1892 1.403 . S
C1892 C1891 1.403 . S
C1892 C1893 1.404 . S
C1892 C1895 1.539 . S
C1893 C1889 1.408 . S
C1893 C1892 1.404 . S
C1893 H1905 0.930 . S
C1894 C1890 1.524 . S
C1894 H1906 0.956 . S
C1894 H1907 0.961 . S
C1894 H1908 0.961 . S
C1895 C1892 1.539 . S
C1895 H1909 0.958 . S
C1895 H1910 0.961 . S
C1895 H1911 0.960 . S
H1896 C1880 0.931 . S
H1897 C1885 0.929 . S
H1898 C1886 0.960 . S
H1899 C1886 0.962 . S
H1900 C1886 0.960 . S
H1901 C1887 0.961 . S
H1902 C1887 0.961 . S
H1903 C1887 0.961 . S
H1904 C1888 0.931 . S
H1905 C1893 0.930 . S
H1906 C1894 0.956 . S
H1907 C1894 0.961 . S
H1908 C1894 0.961 . S
H1909 C1895 0.958 . S
H1910 C1895 0.961 . S
H1911 C1895 0.960 . S
C1912 C1913 1.391 . S
C1912 C1914 1.394 . S
C1912 H1928 0.931 . S
C1913 C1912 1.391 . S
C1913 C1917 1.376 . S
C1914 C1912 1.394 . S
C1914 C1915 1.369 . S
C1914 C1918 1.531 . S
C1915 C1914 1.369 . S
C1915 C1916 1.410 . S
C1915 C1923 1.503 . S
C1916 C1915 1.410 . S
C1916 C1917 1.392 . S
C1916 C1919 1.511 . S
C1917 C1913 1.376 . S
C1917 C1916 1.392 . S
C1917 H1929 0.929 . S
C1918 C1914 1.531 . S
C1918 H1930 0.960 . S
C1918 H1931 0.962 . S
C1918 H1932 0.960 . S
C1919 C1916 1.511 . S
C1919 H1933 0.961 . S
C1919 H1934 0.961 . S
C1919 H1935 0.961 . S
C1920 C1921 1.370 . S
C1920 C1922 1.363 . S
C1920 H1936 0.931 . S
C1921 C1920 1.370 . S
C1921 C1925 1.408 . S
C1922 C1920 1.363 . S
C1922 C1923 1.370 . S
C1922 C1926 1.524 . S
C1923 C1915 1.503 . S
C1923 C1922 1.370 . S
C1923 C1924 1.403 . S
C1924 C1923 1.403 . S
C1924 C1925 1.404 . S
C1924 C1927 1.539 . S
C1925 C1921 1.408 . S
C1925 C1924 1.404 . S
C1925 H1937 0.930 . S
C1926 C1922 1.524 . S
C1926 H1938 0.956 . S
C1926 H1939 0.961 . S
C1926 H1940 0.961 . S
C1927 C1924 1.539 . S
C1927 H1941 0.958 . S
C1927 H1942 0.961 . S
C1927 H1943 0.960 . S
H1928 C1912 0.931 . S
H1929 C1917 0.929 . S
H1930 C1918 0.960 . S
H1931 C1918 0.962 . S
H1932 C1918 0.960 . S
H1933 C1919 0.961 . S
H1934 C1919 0.961 . S
H1935 C1919 0.961 . S
H1936 C1920 0.931 . S
H1937 C1925 0.930 . S
H1938 C1926 0.956 . S
H1939 C1926 0.961 . S
H1940 C1926 0.961 . S
H1941 C1927 0.958 . S
H1942 C1927 0.961 . S
H1943 C1927 0.960 . S
C1944 C1945 1.391 . S
C1944 C1946 1.394 . S
C1944 H1960 0.931 . S
C1945 C1944 1.391 . S
C1945 C1949 1.376 . S
C1946 C1944 1.394 . S
C1946 C1947 1.369 . S
C1946 C1950 1.531 . S
C1947 C1946 1.369 . S
C1947 C1948 1.410 . S
C1947 C1955 1.503 . S
C1948 C1947 1.410 . S
C1948 C1949 1.392 . S
C1948 C1951 1.511 . S
C1949 C1945 1.376 . S
C1949 C1948 1.392 . S
C1949 H1961 0.929 . S
C1950 C1946 1.531 . S
C1950 H1962 0.960 . S
C1950 H1963 0.962 . S
C1950 H1964 0.960 . S
C1951 C1948 1.511 . S
C1951 H1965 0.961 . S
C1951 H1966 0.961 . S
C1951 H1967 0.961 . S
C1952 C1953 1.370 . S
C1952 C1954 1.363 . S
C1952 H1968 0.931 . S
C1953 C1952 1.370 . S
C1953 C1957 1.408 . S
C1954 C1952 1.363 . S
C1954 C1955 1.370 . S
C1954 C1958 1.524 . S
C1955 C1947 1.503 . S
C1955 C1954 1.370 . S
C1955 C1956 1.403 . S
C1956 C1955 1.403 . S
C1956 C1957 1.404 . S
C1956 C1959 1.539 . S
C1957 C1953 1.408 . S
C1957 C1956 1.404 . S
C1957 H1969 0.930 . S
C1958 C1954 1.524 . S
C1958 H1970 0.956 . S
C1958 H1971 0.961 . S
C1958 H1972 0.961 . S
C1959 C1956 1.539 . S
C1959 H1973 0.958 . S
C1959 H1974 0.961 . S
C1959 H1975 0.960 . S
H1960 C1944 0.931 . S
H1961 C1949 0.929 . S
H1962 C1950 0.960 . S
H1963 C1950 0.962 . S
H1964 C1950 0.960 . S
H1965 C1951 0.961 . S
H1966 C1951 0.961 . S
H1967 C1951 0.961 . S
H1968 C1952 0.931 . S
H1969 C1957 0.930 . S
H1970 C1958 0.956 . S
H1971 C1958 0.961 . S
H1972 C1958 0.961 . S
H1973 C1959 0.958 . S
H1974 C1959 0.961 . S
H1975 C1959 0.960 . S
C1976 C1977 1.391 . S
C1976 C1978 1.394 . S
C1976 H1992 0.931 . S
C1977 C1976 1.391 . S
C1977 C1981 1.376 . S
C1978 C1976 1.394 . S
C1978 C1979 1.369 . S
C1978 C1982 1.531 . S
C1979 C1978 1.369 . S
C1979 C1980 1.410 . S
C1979 C1987 1.503 . S
C1980 C1979 1.410 . S
C1980 C1981 1.392 . S
C1980 C1983 1.511 . S
C1981 C1977 1.376 . S
C1981 C1980 1.392 . S
C1981 H1993 0.929 . S
C1982 C1978 1.531 . S
C1982 H1994 0.960 . S
C1982 H1995 0.962 . S
C1982 H1996 0.960 . S
C1983 C1980 1.511 . S
C1983 H1997 0.961 . S
C1983 H1998 0.961 . S
C1983 H1999 0.961 . S
C1984 C1985 1.370 . S
C1984 C1986 1.363 . S
C1984 H2000 0.931 . S
C1985 C1984 1.370 . S
C1985 C1989 1.408 . S
C1986 C1984 1.363 . S
C1986 C1987 1.370 . S
C1986 C1990 1.524 . S
C1987 C1979 1.503 . S
C1987 C1986 1.370 . S
C1987 C1988 1.403 . S
C1988 C1987 1.403 . S
C1988 C1989 1.404 . S
C1988 C1991 1.539 . S
C1989 C1985 1.408 . S
C1989 C1988 1.404 . S
C1989 H2001 0.930 . S
C1990 C1986 1.524 . S
C1990 H2002 0.956 . S
C1990 H2003 0.961 . S
C1990 H2004 0.961 . S
C1991 C1988 1.539 . S
C1991 H2005 0.958 . S
C1991 H2006 0.961 . S
C1991 H2007 0.960 . S
H1992 C1976 0.931 . S
H1993 C1981 0.929 . S
H1994 C1982 0.960 . S
H1995 C1982 0.962 . S
H1996 C1982 0.960 . S
H1997 C1983 0.961 . S
H1998 C1983 0.961 . S
H1999 C1983 0.961 . S
H2000 C1984 0.931 . S
H2001 C1989 0.930 . S
H2002 C1990 0.956 . S
H2003 C1990 0.961 . S
H2004 C1990 0.961 . S
H2005 C1991 0.958 . S
H2006 C1991 0.961 . S
H2007 C1991 0.960 . S
C2008 C2009 1.391 . S
C2008 C2010 1.394 . S
C2008 H2024 0.931 . S
C2009 C2008 1.391 . S
C2009 C2013 1.376 . S
C2010 C2008 1.394 . S
C2010 C2011 1.369 . S
C2010 C2014 1.531 . S
C2011 C2010 1.369 . S
C2011 C2012 1.410 . S
C2011 C2019 1.503 . S
C2012 C2011 1.410 . S
C2012 C2013 1.392 . S
C2012 C2015 1.511 . S
C2013 C2009 1.376 . S
C2013 C2012 1.392 . S
C2013 H2025 0.929 . S
C2014 C2010 1.531 . S
C2014 H2026 0.960 . S
C2014 H2027 0.962 . S
C2014 H2028 0.960 . S
C2015 C2012 1.511 . S
C2015 H2029 0.961 . S
C2015 H2030 0.961 . S
C2015 H2031 0.961 . S
C2016 C2017 1.370 . S
C2016 C2018 1.363 . S
C2016 H2032 0.931 . S
C2017 C2016 1.370 . S
C2017 C2021 1.408 . S
C2018 C2016 1.363 . S
C2018 C2019 1.370 . S
C2018 C2022 1.524 . S
C2019 C2011 1.503 . S
C2019 C2018 1.370 . S
C2019 C2020 1.403 . S
C2020 C2019 1.403 . S
C2020 C2021 1.404 . S
C2020 C2023 1.539 . S
C2021 C2017 1.408 . S
C2021 C2020 1.404 . S
C2021 H2033 0.930 . S
C2022 C2018 1.524 . S
C2022 H2034 0.956 . S
C2022 H2035 0.961 . S
C2022 H2036 0.961 . S
C2023 C2020 1.539 . S
C2023 H2037 0.958 . S
C2023 H2038 0.961 . S
C2023 H2039 0.960 . S
H2024 C2008 0.931 . S
H2025 C2013 0.929 . S
H2026 C2014 0.960 . S
H2027 C2014 0.962 . S
H2028 C2014 0.960 . S
H2029 C2015 0.961 . S
H2030 C2015 0.961 . S
H2031 C2015 0.961 . S
H2032 C2016 0.931 . S
H2033 C2021 0.930 . S
H2034 C2022 0.956 . S
H2035 C2022 0.961 . S
H2036 C2022 0.961 . S
H2037 C2023 0.958 . S
H2038 C2023 0.961 . S
H2039 C2023 0.960 . S
C2040 C2041 1.391 . S
C2040 C2042 1.394 . S
C2040 H2056 0.931 . S
C2041 C2040 1.391 . S
C2041 C2045 1.376 . S
C2042 C2040 1.394 . S
C2042 C2043 1.369 . S
C2042 C2046 1.531 . S
C2043 C2042 1.369 . S
C2043 C2044 1.410 . S
C2043 C2051 1.503 . S
C2044 C2043 1.410 . S
C2044 C2045 1.392 . S
C2044 C2047 1.511 . S
C2045 C2041 1.376 . S
C2045 C2044 1.392 . S
C2045 H2057 0.929 . S
C2046 C2042 1.531 . S
C2046 H2058 0.960 . S
C2046 H2059 0.962 . S
C2046 H2060 0.960 . S
C2047 C2044 1.511 . S
C2047 H2061 0.961 . S
C2047 H2062 0.961 . S
C2047 H2063 0.961 . S
C2048 C2049 1.370 . S
C2048 C2050 1.363 . S
C2048 H2064 0.931 . S
C2049 C2048 1.370 . S
C2049 C2053 1.408 . S
C2050 C2048 1.363 . S
C2050 C2051 1.370 . S
C2050 C2054 1.524 . S
C2051 C2043 1.503 . S
C2051 C2050 1.370 . S
C2051 C2052 1.403 . S
C2052 C2051 1.403 . S
C2052 C2053 1.404 . S
C2052 C2055 1.539 . S
C2053 C2049 1.408 . S
C2053 C2052 1.404 . S
C2053 H2065 0.930 . S
C2054 C2050 1.524 . S
C2054 H2066 0.956 . S
C2054 H2067 0.961 . S
C2054 H2068 0.961 . S
C2055 C2052 1.539 . S
C2055 H2069 0.958 . S
C2055 H2070 0.961 . S
C2055 H2071 0.960 . S
H2056 C2040 0.931 . S
H2057 C2045 0.929 . S
H2058 C2046 0.960 . S
H2059 C2046 0.962 . S
H2060 C2046 0.960 . S
H2061 C2047 0.961 . S
H2062 C2047 0.961 . S
H2063 C2047 0.961 . S
H2064 C2048 0.931 . S
H2065 C2053 0.930 . S
H2066 C2054 0.956 . S
H2067 C2054 0.961 . S
H2068 C2054 0.961 . S
H2069 C2055 0.958 . S
H2070 C2055 0.961 . S
H2071 C2055 0.960 . S
C2072 C2073 1.391 . S
C2072 C2074 1.394 . S
C2072 H2088 0.931 . S
C2073 C2072 1.391 . S
C2073 C2077 1.376 . S
C2074 C2072 1.394 . S
C2074 C2075 1.369 . S
C2074 C2078 1.531 . S
C2075 C2074 1.369 . S
C2075 C2076 1.410 . S
C2075 C2083 1.503 . S
C2076 C2075 1.410 . S
C2076 C2077 1.392 . S
C2076 C2079 1.511 . S
C2077 C2073 1.376 . S
C2077 C2076 1.392 . S
C2077 H2089 0.929 . S
C2078 C2074 1.531 . S
C2078 H2090 0.960 . S
C2078 H2091 0.962 . S
C2078 H2092 0.960 . S
C2079 C2076 1.511 . S
C2079 H2093 0.961 . S
C2079 H2094 0.961 . S
C2079 H2095 0.961 . S
C2080 C2081 1.370 . S
C2080 C2082 1.363 . S
C2080 H2096 0.931 . S
C2081 C2080 1.370 . S
C2081 C2085 1.408 . S
C2082 C2080 1.363 . S
C2082 C2083 1.370 . S
C2082 C2086 1.524 . S
C2083 C2075 1.503 . S
C2083 C2082 1.370 . S
C2083 C2084 1.403 . S
C2084 C2083 1.403 . S
C2084 C2085 1.404 . S
C2084 C2087 1.539 . S
C2085 C2081 1.408 . S
C2085 C2084 1.404 . S
C2085 H2097 0.930 . S
C2086 C2082 1.524 . S
C2086 H2098 0.956 . S
C2086 H2099 0.961 . S
C2086 H2100 0.961 . S
C2087 C2084 1.539 . S
C2087 H2101 0.958 . S
C2087 H2102 0.961 . S
C2087 H2103 0.960 . S
H2088 C2072 0.931 . S
H2089 C2077 0.929 . S
H2090 C2078 0.960 . S
H2091 C2078 0.962 . S
H2092 C2078 0.960 . S
H2093 C2079 0.961 . S
H2094 C2079 0.961 . S
H2095 C2079 0.961 . S
H2096 C2080 0.931 . S
H2097 C2085 0.930 . S
H2098 C2086 0.956 . S
H2099 C2086 0.961 . S
H2100 C2086 0.961 . S
H2101 C2087 0.958 . S
H2102 C2087 0.961 . S
H2103 C2087 0.960 . S
C2104 C2105 1.391 . S
C2104 C2106 1.394 . S
C2104 H2120 0.931 . S
C2105 C2104 1.391 . S
C2105 C2109 1.376 . S
C2106 C2104 1.394 . S
C2106 C2107 1.369 . S
C2106 C2110 1.531 . S
C2107 C2106 1.369 . S
C2107 C2108 1.410 . S
C2107 C2115 1.503 . S
C2108 C2107 1.410 . S
C2108 C2109 1.392 . S
C2108 C2111 1.511 . S
C2109 C2105 1.376 . S
C2109 C2108 1.392 . S
C2109 H2121 0.929 . S
C2110 C2106 1.531 . S
C2110 H2122 0.960 . S
C2110 H2123 0.962 . S
C2110 H2124 0.960 . S
C2111 C2108 1.511 . S
C2111 H2125 0.961 . S
C2111 H2126 0.961 . S
C2111 H2127 0.961 . S
C2112 C2113 1.370 . S
C2112 C2114 1.363 . S
C2112 H2128 0.931 . S
C2113 C2112 1.370 . S
C2113 C2117 1.408 . S
C2114 C2112 1.363 . S
C2114 C2115 1.370 . S
C2114 C2118 1.524 . S
C2115 C2107 1.503 . S
C2115 C2114 1.370 . S
C2115 C2116 1.403 . S
C2116 C2115 1.403 . S
C2116 C2117 1.404 . S
C2116 C2119 1.539 . S
C2117 C2113 1.408 . S
C2117 C2116 1.404 . S
C2117 H2129 0.930 . S
C2118 C2114 1.524 . S
C2118 H2130 0.956 . S
C2118 H2131 0.961 . S
C2118 H2132 0.961 . S
C2119 C2116 1.539 . S
C2119 H2133 0.958 . S
C2119 H2134 0.961 . S
C2119 H2135 0.960 . S
H2120 C2104 0.931 . S
H2121 C2109 0.929 . S
H2122 C2110 0.960 . S
H2123 C2110 0.962 . S
H2124 C2110 0.960 . S
H2125 C2111 0.961 . S
H2126 C2111 0.961 . S
H2127 C2111 0.961 . S
H2128 C2112 0.931 . S
H2129 C2117 0.930 . S
H2130 C2118 0.956 . S
H2131 C2118 0.961 . S
H2132 C2118 0.961 . S
H2133 C2119 0.958 . S
H2134 C2119 0.961 . S
H2135 C2119 0.960 . S
C2136 C2137 1.391 . S
C2136 C2138 1.394 . S
C2136 H2152 0.931 . S
C2137 C2136 1.391 . S
C2137 C2141 1.376 . S
C2138 C2136 1.394 . S
C2138 C2139 1.369 . S
C2138 C2142 1.531 . S
C2139 C2138 1.369 . S
C2139 C2140 1.410 . S
C2139 C2147 1.503 . S
C2140 C2139 1.410 . S
C2140 C2141 1.392 . S
C2140 C2143 1.511 . S
C2141 C2137 1.376 . S
C2141 C2140 1.392 . S
C2141 H2153 0.929 . S
C2142 C2138 1.531 . S
C2142 H2154 0.960 . S
C2142 H2155 0.962 . S
C2142 H2156 0.960 . S
C2143 C2140 1.511 . S
C2143 H2157 0.961 . S
C2143 H2158 0.961 . S
C2143 H2159 0.961 . S
C2144 C2145 1.370 . S
C2144 C2146 1.363 . S
C2144 H2160 0.931 . S
C2145 C2144 1.370 . S
C2145 C2149 1.408 . S
C2146 C2144 1.363 . S
C2146 C2147 1.370 . S
C2146 C2150 1.524 . S
C2147 C2139 1.503 . S
C2147 C2146 1.370 . S
C2147 C2148 1.403 . S
C2148 C2147 1.403 . S
C2148 C2149 1.404 . S
C2148 C2151 1.539 . S
C2149 C2145 1.408 . S
C2149 C2148 1.404 . S
C2149 H2161 0.930 . S
C2150 C2146 1.524 . S
C2150 H2162 0.956 . S
C2150 H2163 0.961 . S
C2150 H2164 0.961 . S
C2151 C2148 1.539 . S
C2151 H2165 0.958 . S
C2151 H2166 0.961 . S
C2151 H2167 0.960 . S
H2152 C2136 0.931 . S
H2153 C2141 0.929 . S
H2154 C2142 0.960 . S
H2155 C2142 0.962 . S
H2156 C2142 0.960 . S
H2157 C2143 0.961 . S
H2158 C2143 0.961 . S
H2159 C2143 0.961 . S
H2160 C2144 0.931 . S
H2161 C2149 0.930 . S
H2162 C2150 0.956 . S
H2163 C2150 0.961 . S
H2164 C2150 0.961 . S
H2165 C2151 0.958 . S
H2166 C2151 0.961 . S
H2167 C2151 0.960 . S
C2168 C2169 1.391 . S
C2168 C2170 1.394 . S
C2168 H2184 0.931 . S
C2169 C2168 1.391 . S
C2169 C2173 1.376 . S
C2170 C2168 1.394 . S
C2170 C2171 1.369 . S
C2170 C2174 1.531 . S
C2171 C2170 1.369 . S
C2171 C2172 1.410 . S
C2171 C2179 1.503 . S
C2172 C2171 1.410 . S
C2172 C2173 1.392 . S
C2172 C2175 1.511 . S
C2173 C2169 1.376 . S
C2173 C2172 1.392 . S
C2173 H2185 0.929 . S
C2174 C2170 1.531 . S
C2174 H2186 0.960 . S
C2174 H2187 0.962 . S
C2174 H2188 0.960 . S
C2175 C2172 1.511 . S
C2175 H2189 0.961 . S
C2175 H2190 0.961 . S
C2175 H2191 0.961 . S
C2176 C2177 1.370 . S
C2176 C2178 1.363 . S
C2176 H2192 0.931 . S
C2177 C2176 1.370 . S
C2177 C2181 1.408 . S
C2178 C2176 1.363 . S
C2178 C2179 1.370 . S
C2178 C2182 1.524 . S
C2179 C2171 1.503 . S
C2179 C2178 1.370 . S
C2179 C2180 1.403 . S
C2180 C2179 1.403 . S
C2180 C2181 1.404 . S
C2180 C2183 1.539 . S
C2181 C2177 1.408 . S
C2181 C2180 1.404 . S
C2181 H2193 0.930 . S
C2182 C2178 1.524 . S
C2182 H2194 0.956 . S
C2182 H2195 0.961 . S
C2182 H2196 0.961 . S
C2183 C2180 1.539 . S
C2183 H2197 0.958 . S
C2183 H2198 0.961 . S
C2183 H2199 0.960 . S
H2184 C2168 0.931 . S
H2185 C2173 0.929 . S
H2186 C2174 0.960 . S
H2187 C2174 0.962 . S
H2188 C2174 0.960 . S
H2189 C2175 0.961 . S
H2190 C2175 0.961 . S
H2191 C2175 0.961 . S
H2192 C2176 0.931 . S
H2193 C2181 0.930 . S
H2194 C2182 0.956 . S
H2195 C2182 0.961 . S
H2196 C2182 0.961 . S
H2197 C2183 0.958 . S
H2198 C2183 0.961 . S
H2199 C2183 0.960 . S
C2200 C2201 1.391 . S
C2200 C2202 1.394 . S
C2200 H2216 0.931 . S
C2201 C2200 1.391 . S
C2201 C2205 1.376 . S
C2202 C2200 1.394 . S
C2202 C2203 1.369 . S
C2202 C2206 1.531 . S
C2203 C2202 1.369 . S
C2203 C2204 1.410 . S
C2203 C2211 1.503 . S
C2204 C2203 1.410 . S
C2204 C2205 1.392 . S
C2204 C2207 1.511 . S
C2205 C2201 1.376 . S
C2205 C2204 1.392 . S
C2205 H2217 0.929 . S
C2206 C2202 1.531 . S
C2206 H2218 0.960 . S
C2206 H2219 0.962 . S
C2206 H2220 0.960 . S
C2207 C2204 1.511 . S
C2207 H2221 0.961 . S
C2207 H2222 0.961 . S
C2207 H2223 0.961 . S
C2208 C2209 1.370 . S
C2208 C2210 1.363 . S
C2208 H2224 0.931 . S
C2209 C2208 1.370 . S
C2209 C2213 1.408 . S
C2210 C2208 1.363 . S
C2210 C2211 1.370 . S
C2210 C2214 1.524 . S
C2211 C2203 1.503 . S
C2211 C2210 1.370 . S
C2211 C2212 1.403 . S
C2212 C2211 1.403 . S
C2212 C2213 1.404 . S
C2212 C2215 1.539 . S
C2213 C2209 1.408 . S
C2213 C2212 1.404 . S
C2213 H2225 0.930 . S
C2214 C2210 1.524 . S
C2214 H2226 0.956 . S
C2214 H2227 0.961 . S
C2214 H2228 0.961 . S
C2215 C2212 1.539 . S
C2215 H2229 0.958 . S
C2215 H2230 0.961 . S
C2215 H2231 0.960 . S
H2216 C2200 0.931 . S
H2217 C2205 0.929 . S
H2218 C2206 0.960 . S
H2219 C2206 0.962 . S
H2220 C2206 0.960 . S
H2221 C2207 0.961 . S
H2222 C2207 0.961 . S
H2223 C2207 0.961 . S
H2224 C2208 0.931 . S
H2225 C2213 0.930 . S
H2226 C2214 0.956 . S
H2227 C2214 0.961 . S
H2228 C2214 0.961 . S
H2229 C2215 0.958 . S
H2230 C2215 0.961 . S
H2231 C2215 0.960 . S
C2232 C2233 1.391 . S
C2232 C2234 1.394 . S
C2232 H2248 0.931 . S
C2233 C2232 1.391 . S
C2233 C2237 1.376 . S
C2234 C2232 1.394 . S
C2234 C2235 1.369 . S
C2234 C2238 1.531 . S
C2235 C2234 1.369 . S
C2235 C2236 1.410 . S
C2235 C2243 1.503 . S
C2236 C2235 1.410 . S
C2236 C2237 1.392 . S
C2236 C2239 1.511 . S
C2237 C2233 1.376 . S
C2237 C2236 1.392 . S
C2237 H2249 0.929 . S
C2238 C2234 1.531 . S
C2238 H2250 0.960 . S
C2238 H2251 0.962 . S
C2238 H2252 0.960 . S
C2239 C2236 1.511 . S
C2239 H2253 0.961 . S
C2239 H2254 0.961 . S
C2239 H2255 0.961 . S
C2240 C2241 1.370 . S
C2240 C2242 1.363 . S
C2240 H2256 0.931 . S
C2241 C2240 1.370 . S
C2241 C2245 1.408 . S
C2242 C2240 1.363 . S
C2242 C2243 1.370 . S
C2242 C2246 1.524 . S
C2243 C2235 1.503 . S
C2243 C2242 1.370 . S
C2243 C2244 1.403 . S
C2244 C2243 1.403 . S
C2244 C2245 1.404 . S
C2244 C2247 1.539 . S
C2245 C2241 1.408 . S
C2245 C2244 1.404 . S
C2245 H2257 0.930 . S
C2246 C2242 1.524 . S
C2246 H2258 0.956 . S
C2246 H2259 0.961 . S
C2246 H2260 0.961 . S
C2247 C2244 1.539 . S
C2247 H2261 0.958 . S
C2247 H2262 0.961 . S
C2247 H2263 0.960 . S
H2248 C2232 0.931 . S
H2249 C2237 0.929 . S
H2250 C2238 0.960 . S
H2251 C2238 0.962 . S
H2252 C2238 0.960 . S
H2253 C2239 0.961 . S
H2254 C2239 0.961 . S
H2255 C2239 0.961 . S
H2256 C2240 0.931 . S
H2257 C2245 0.930 . S
H2258 C2246 0.956 . S
H2259 C2246 0.961 . S
H2260 C2246 0.961 . S
H2261 C2247 0.958 . S
H2262 C2247 0.961 . S
H2263 C2247 0.960 . S
C2264 C2265 1.391 . S
C2264 C2266 1.394 . S
C2264 H2280 0.931 . S
C2265 C2264 1.391 . S
C2265 C2269 1.376 . S
C2266 C2264 1.394 . S
C2266 C2267 1.369 . S
C2266 C2270 1.531 . S
C2267 C2266 1.369 . S
C2267 C2268 1.410 . S
C2267 C2275 1.503 . S
C2268 C2267 1.410 . S
C2268 C2269 1.392 . S
C2268 C2271 1.511 . S
C2269 C2265 1.376 . S
C2269 C2268 1.392 . S
C2269 H2281 0.929 . S
C2270 C2266 1.531 . S
C2270 H2282 0.960 . S
C2270 H2283 0.962 . S
C2270 H2284 0.960 . S
C2271 C2268 1.511 . S
C2271 H2285 0.961 . S
C2271 H2286 0.961 . S
C2271 H2287 0.961 . S
C2272 C2273 1.370 . S
C2272 C2274 1.363 . S
C2272 H2288 0.931 . S
C2273 C2272 1.370 . S
C2273 C2277 1.408 . S
C2274 C2272 1.363 . S
C2274 C2275 1.370 . S
C2274 C2278 1.524 . S
C2275 C2267 1.503 . S
C2275 C2274 1.370 . S
C2275 C2276 1.403 . S
C2276 C2275 1.403 . S
C2276 C2277 1.404 . S
C2276 C2279 1.539 . S
C2277 C2273 1.408 . S
C2277 C2276 1.404 . S
C2277 H2289 0.930 . S
C2278 C2274 1.524 . S
C2278 H2290 0.956 . S
C2278 H2291 0.961 . S
C2278 H2292 0.961 . S
C2279 C2276 1.539 . S
C2279 H2293 0.958 . S
C2279 H2294 0.961 . S
C2279 H2295 0.960 . S
H2280 C2264 0.931 . S
H2281 C2269 0.929 . S
H2282 C2270 0.960 . S
H2283 C2270 0.962 . S
H2284 C2270 0.960 . S
H2285 C2271 0.961 . S
H2286 C2271 0.961 . S
H2287 C2271 0.961 . S
H2288 C2272 0.931 . S
H2289 C2277 0.930 . S
H2290 C2278 0.956 . S
H2291 C2278 0.961 . S
H2292 C2278 0.961 . S
H2293 C2279 0.958 . S
H2294 C2279 0.961 . S
H2295 C2279 0.960 . S
C2296 C2297 1.391 . S
C2296 C2298 1.394 . S
C2296 H2312 0.931 . S
C2297 C2296 1.391 . S
C2297 C2301 1.376 . S
C2298 C2296 1.394 . S
C2298 C2299 1.369 . S
C2298 C2302 1.531 . S
C2299 C2298 1.369 . S
C2299 C2300 1.410 . S
C2299 C2307 1.503 . S
C2300 C2299 1.410 . S
C2300 C2301 1.392 . S
C2300 C2303 1.511 . S
C2301 C2297 1.376 . S
C2301 C2300 1.392 . S
C2301 H2313 0.929 . S
C2302 C2298 1.531 . S
C2302 H2314 0.960 . S
C2302 H2315 0.962 . S
C2302 H2316 0.960 . S
C2303 C2300 1.511 . S
C2303 H2317 0.961 . S
C2303 H2318 0.961 . S
C2303 H2319 0.961 . S
C2304 C2305 1.370 . S
C2304 C2306 1.363 . S
C2304 H2320 0.931 . S
C2305 C2304 1.370 . S
C2305 C2309 1.408 . S
C2306 C2304 1.363 . S
C2306 C2307 1.370 . S
C2306 C2310 1.524 . S
C2307 C2299 1.503 . S
C2307 C2306 1.370 . S
C2307 C2308 1.403 . S
C2308 C2307 1.403 . S
C2308 C2309 1.404 . S
C2308 C2311 1.539 . S
C2309 C2305 1.408 . S
C2309 C2308 1.404 . S
C2309 H2321 0.930 . S
C2310 C2306 1.524 . S
C2310 H2322 0.956 . S
C2310 H2323 0.961 . S
C2310 H2324 0.961 . S
C2311 C2308 1.539 . S
C2311 H2325 0.958 . S
C2311 H2326 0.961 . S
C2311 H2327 0.960 . S
H2312 C2296 0.931 . S
H2313 C2301 0.929 . S
H2314 C2302 0.960 . S
H2315 C2302 0.962 . S
H2316 C2302 0.960 . S
H2317 C2303 0.961 . S
H2318 C2303 0.961 . S
H2319 C2303 0.961 . S
H2320 C2304 0.931 . S
H2321 C2309 0.930 . S
H2322 C2310 0.956 . S
H2323 C2310 0.961 . S
H2324 C2310 0.961 . S
H2325 C2311 0.958 . S
H2326 C2311 0.961 . S
H2327 C2311 0.960 . S
C2328 C2329 1.391 . S
C2328 C2330 1.394 . S
C2328 H2344 0.931 . S
C2329 C2328 1.391 . S
C2329 C2333 1.376 . S
C2330 C2328 1.394 . S
C2330 C2331 1.369 . S
C2330 C2334 1.531 . S
C2331 C2330 1.369 . S
C2331 C2332 1.410 . S
C2331 C2339 1.503 . S
C2332 C2331 1.410 . S
C2332 C2333 1.392 . S
C2332 C2335 1.511 . S
C2333 C2329 1.376 . S
C2333 C2332 1.392 . S
C2333 H2345 0.929 . S
C2334 C2330 1.531 . S
C2334 H2346 0.960 . S
C2334 H2347 0.962 . S
C2334 H2348 0.960 . S
C2335 C2332 1.511 . S
C2335 H2349 0.961 . S
C2335 H2350 0.961 . S
C2335 H2351 0.961 . S
C2336 C2337 1.370 . S
C2336 C2338 1.363 . S
C2336 H2352 0.931 . S
C2337 C2336 1.370 . S
C2337 C2341 1.408 . S
C2338 C2336 1.363 . S
C2338 C2339 1.370 . S
C2338 C2342 1.524 . S
C2339 C2331 1.503 . S
C2339 C2338 1.370 . S
C2339 C2340 1.403 . S
C2340 C2339 1.403 . S
C2340 C2341 1.404 . S
C2340 C2343 1.539 . S
C2341 C2337 1.408 . S
C2341 C2340 1.404 . S
C2341 H2353 0.930 . S
C2342 C2338 1.524 . S
C2342 H2354 0.956 . S
C2342 H2355 0.961 . S
C2342 H2356 0.961 . S
C2343 C2340 1.539 . S
C2343 H2357 0.958 . S
C2343 H2358 0.961 . S
C2343 H2359 0.960 . S
H2344 C2328 0.931 . S
H2345 C2333 0.929 . S
H2346 C2334 0.960 . S
H2347 C2334 0.962 . S
H2348 C2334 0.960 . S
H2349 C2335 0.961 . S
H2350 C2335 0.961 . S
H2351 C2335 0.961 . S
H2352 C2336 0.931 . S
H2353 C2341 0.930 . S
H2354 C2342 0.956 . S
H2355 C2342 0.961 . S
H2356 C2342 0.961 . S
H2357 C2343 0.958 . S
H2358 C2343 0.961 . S
H2359 C2343 0.960 . S
C2360 C2361 1.391 . S
C2360 C2362 1.394 . S
C2360 H2376 0.931 . S
C2361 C2360 1.391 . S
C2361 C2365 1.376 . S
C2362 C2360 1.394 . S
C2362 C2363 1.369 . S
C2362 C2366 1.531 . S
C2363 C2362 1.369 . S
C2363 C2364 1.410 . S
C2363 C2371 1.503 . S
C2364 C2363 1.410 . S
C2364 C2365 1.392 . S
C2364 C2367 1.511 . S
C2365 C2361 1.376 . S
C2365 C2364 1.392 . S
C2365 H2377 0.929 . S
C2366 C2362 1.531 . S
C2366 H2378 0.960 . S
C2366 H2379 0.962 . S
C2366 H2380 0.960 . S
C2367 C2364 1.511 . S
C2367 H2381 0.961 . S
C2367 H2382 0.961 . S
C2367 H2383 0.961 . S
C2368 C2369 1.370 . S
C2368 C2370 1.363 . S
C2368 H2384 0.931 . S
C2369 C2368 1.370 . S
C2369 C2373 1.408 . S
C2370 C2368 1.363 . S
C2370 C2371 1.370 . S
C2370 C2374 1.524 . S
C2371 C2363 1.503 . S
C2371 C2370 1.370 . S
C2371 C2372 1.403 . S
C2372 C2371 1.403 . S
C2372 C2373 1.404 . S
C2372 C2375 1.539 . S
C2373 C2369 1.408 . S
C2373 C2372 1.404 . S
C2373 H2385 0.930 . S
C2374 C2370 1.524 . S
C2374 H2386 0.956 . S
C2374 H2387 0.961 . S
C2374 H2388 0.961 . S
C2375 C2372 1.539 . S
C2375 H2389 0.958 . S
C2375 H2390 0.961 . S
C2375 H2391 0.960 . S
H2376 C2360 0.931 . S
H2377 C2365 0.929 . S
H2378 C2366 0.960 . S
H2379 C2366 0.962 . S
H2380 C2366 0.960 . S
H2381 C2367 0.961 . S
H2382 C2367 0.961 . S
H2383 C2367 0.961 . S
H2384 C2368 0.931 . S
H2385 C2373 0.930 . S
H2386 C2374 0.956 . S
H2387 C2374 0.961 . S
H2388 C2374 0.961 . S
H2389 C2375 0.958 . S
H2390 C2375 0.961 . S
H2391 C2375 0.960 . S
C2392 C2393 1.391 . S
C2392 C2394 1.394 . S
C2392 H2408 0.931 . S
C2393 C2392 1.391 . S
C2393 C2397 1.376 . S
C2394 C2392 1.394 . S
C2394 C2395 1.369 . S
C2394 C2398 1.531 . S
C2395 C2394 1.369 . S
C2395 C2396 1.410 . S
C2395 C2403 1.503 . S
C2396 C2395 1.410 . S
C2396 C2397 1.392 . S
C2396 C2399 1.511 . S
C2397 C2393 1.376 . S
C2397 C2396 1.392 . S
C2397 H2409 0.929 . S
C2398 C2394 1.531 . S
C2398 H2410 0.960 . S
C2398 H2411 0.962 . S
C2398 H2412 0.960 . S
C2399 C2396 1.511 . S
C2399 H2413 0.961 . S
C2399 H2414 0.961 . S
C2399 H2415 0.961 . S
C2400 C2401 1.370 . S
C2400 C2402 1.363 . S
C2400 H2416 0.931 . S
C2401 C2400 1.370 . S
C2401 C2405 1.408 . S
C2402 C2400 1.363 . S
C2402 C2403 1.370 . S
C2402 C2406 1.524 . S
C2403 C2395 1.503 . S
C2403 C2402 1.370 . S
C2403 C2404 1.403 . S
C2404 C2403 1.403 . S
C2404 C2405 1.404 . S
C2404 C2407 1.539 . S
C2405 C2401 1.408 . S
C2405 C2404 1.404 . S
C2405 H2417 0.930 . S
C2406 C2402 1.524 . S
C2406 H2418 0.956 . S
C2406 H2419 0.961 . S
C2406 H2420 0.961 . S
C2407 C2404 1.539 . S
C2407 H2421 0.958 . S
C2407 H2422 0.961 . S
C2407 H2423 0.960 . S
H2408 C2392 0.931 . S
H2409 C2397 0.929 . S
H2410 C2398 0.960 . S
H2411 C2398 0.962 . S
H2412 C2398 0.960 . S
H2413 C2399 0.961 . S
H2414 C2399 0.961 . S
H2415 C2399 0.961 . S
H2416 C2400 0.931 . S
H2417 C2405 0.930 . S
H2418 C2406 0.956 . S
H2419 C2406 0.961 . S
H2420 C2406 0.961 . S
H2421 C2407 0.958 . S
H2422 C2407 0.961 . S
H2423 C2407 0.960 . S
C2424 C2425 1.391 . S
C2424 C2426 1.394 . S
C2424 H2440 0.931 . S
C2425 C2424 1.391 . S
C2425 C2429 1.376 . S
C2426 C2424 1.394 . S
C2426 C2427 1.369 . S
C2426 C2430 1.531 . S
C2427 C2426 1.369 . S
C2427 C2428 1.410 . S
C2427 C2435 1.503 . S
C2428 C2427 1.410 . S
C2428 C2429 1.392 . S
C2428 C2431 1.511 . S
C2429 C2425 1.376 . S
C2429 C2428 1.392 . S
C2429 H2441 0.929 . S
C2430 C2426 1.531 . S
C2430 H2442 0.960 . S
C2430 H2443 0.962 . S
C2430 H2444 0.960 . S
C2431 C2428 1.511 . S
C2431 H2445 0.961 . S
C2431 H2446 0.961 . S
C2431 H2447 0.961 . S
C2432 C2433 1.370 . S
C2432 C2434 1.363 . S
C2432 H2448 0.931 . S
C2433 C2432 1.370 . S
C2433 C2437 1.408 . S
C2434 C2432 1.363 . S
C2434 C2435 1.370 . S
C2434 C2438 1.524 . S
C2435 C2427 1.503 . S
C2435 C2434 1.370 . S
C2435 C2436 1.403 . S
C2436 C2435 1.403 . S
C2436 C2437 1.404 . S
C2436 C2439 1.539 . S
C2437 C2433 1.408 . S
C2437 C2436 1.404 . S
C2437 H2449 0.930 . S
C2438 C2434 1.524 . S
C2438 H2450 0.956 . S
C2438 H2451 0.961 . S
C2438 H2452 0.961 . S
C2439 C2436 1.539 . S
C2439 H2453 0.958 . S
C2439 H2454 0.961 . S
C2439 H2455 0.960 . S
H2440 C2424 0.931 . S
H2441 C2429 0.929 . S
H2442 C2430 0.960 . S
H2443 C2430 0.962 . S
H2444 C2430 0.960 . S
H2445 C2431 0.961 . S
H2446 C2431 0.961 . S
H2447 C2431 0.961 . S
H2448 C2432 0.931 . S
H2449 C2437 0.930 . S
H2450 C2438 0.956 . S
H2451 C2438 0.961 . S
H2452 C2438 0.961 . S
H2453 C2439 0.958 . S
H2454 C2439 0.961 . S
H2455 C2439 0.960 . S
C2456 C2457 1.391 . S
C2456 C2458 1.394 . S
C2456 H2472 0.931 . S
C2457 C2456 1.391 . S
C2457 C2461 1.376 . S
C2458 C2456 1.394 . S
C2458 C2459 1.369 . S
C2458 C2462 1.531 . S
C2459 C2458 1.369 . S
C2459 C2460 1.410 . S
C2459 C2467 1.503 . S
C2460 C2459 1.410 . S
C2460 C2461 1.392 . S
C2460 C2463 1.511 . S
C2461 C2457 1.376 . S
C2461 C2460 1.392 . S
C2461 H2473 0.929 . S
C2462 C2458 1.531 . S
C2462 H2474 0.960 . S
C2462 H2475 0.962 . S
C2462 H2476 0.960 . S
C2463 C2460 1.511 . S
C2463 H2477 0.961 . S
C2463 H2478 0.961 . S
C2463 H2479 0.961 . S
C2464 C2465 1.370 . S
C2464 C2466 1.363 . S
C2464 H2480 0.931 . S
C2465 C2464 1.370 . S
C2465 C2469 1.408 . S
C2466 C2464 1.363 . S
C2466 C2467 1.370 . S
C2466 C2470 1.524 . S
C2467 C2459 1.503 . S
C2467 C2466 1.370 . S
C2467 C2468 1.403 . S
C2468 C2467 1.403 . S
C2468 C2469 1.404 . S
C2468 C2471 1.539 . S
C2469 C2465 1.408 . S
C2469 C2468 1.404 . S
C2469 H2481 0.930 . S
C2470 C2466 1.524 . S
C2470 H2482 0.956 . S
C2470 H2483 0.961 . S
C2470 H2484 0.961 . S
C2471 C2468 1.539 . S
C2471 H2485 0.958 . S
C2471 H2486 0.961 . S
C2471 H2487 0.960 . S
H2472 C2456 0.931 . S
H2473 C2461 0.929 . S
H2474 C2462 0.960 . S
H2475 C2462 0.962 . S
H2476 C2462 0.960 . S
H2477 C2463 0.961 . S
H2478 C2463 0.961 . S
H2479 C2463 0.961 . S
H2480 C2464 0.931 . S
H2481 C2469 0.930 . S
H2482 C2470 0.956 . S
H2483 C2470 0.961 . S
H2484 C2470 0.961 . S
H2485 C2471 0.958 . S
H2486 C2471 0.961 . S
H2487 C2471 0.960 . S
C2488 C2489 1.391 . S
C2488 C2490 1.394 . S
C2488 H2504 0.931 . S
C2489 C2488 1.391 . S
C2489 C2493 1.376 . S
C2490 C2488 1.394 . S
C2490 C2491 1.369 . S
C2490 C2494 1.531 . S
C2491 C2490 1.369 . S
C2491 C2492 1.410 . S
C2491 C2499 1.503 . S
C2492 C2491 1.410 . S
C2492 C2493 1.392 . S
C2492 C2495 1.511 . S
C2493 C2489 1.376 . S
C2493 C2492 1.392 . S
C2493 H2505 0.929 . S
C2494 C2490 1.531 . S
C2494 H2506 0.960 . S
C2494 H2507 0.962 . S
C2494 H2508 0.960 . S
C2495 C2492 1.511 . S
C2495 H2509 0.961 . S
C2495 H2510 0.961 . S
C2495 H2511 0.961 . S
C2496 C2497 1.370 . S
C2496 C2498 1.363 . S
C2496 H2512 0.931 . S
C2497 C2496 1.370 . S
C2497 C2501 1.408 . S
C2498 C2496 1.363 . S
C2498 C2499 1.370 . S
C2498 C2502 1.524 . S
C2499 C2491 1.503 . S
C2499 C2498 1.370 . S
C2499 C2500 1.403 . S
C2500 C2499 1.403 . S
C2500 C2501 1.404 . S
C2500 C2503 1.539 . S
C2501 C2497 1.408 . S
C2501 C2500 1.404 . S
C2501 H2513 0.930 . S
C2502 C2498 1.524 . S
C2502 H2514 0.956 . S
C2502 H2515 0.961 . S
C2502 H2516 0.961 . S
C2503 C2500 1.539 . S
C2503 H2517 0.958 . S
C2503 H2518 0.961 . S
C2503 H2519 0.960 . S
H2504 C2488 0.931 . S
H2505 C2493 0.929 . S
H2506 C2494 0.960 . S
H2507 C2494 0.962 . S
H2508 C2494 0.960 . S
H2509 C2495 0.961 . S
H2510 C2495 0.961 . S
H2511 C2495 0.961 . S
H2512 C2496 0.931 . S
H2513 C2501 0.930 . S
H2514 C2502 0.956 . S
H2515 C2502 0.961 . S
H2516 C2502 0.961 . S
H2517 C2503 0.958 . S
H2518 C2503 0.961 . S
H2519 C2503 0.960 . S
C2520 C2521 1.391 . S
C2520 C2522 1.394 . S
C2520 H2536 0.931 . S
C2521 C2520 1.391 . S
C2521 C2525 1.376 . S
C2522 C2520 1.394 . S
C2522 C2523 1.369 . S
C2522 C2526 1.531 . S
C2523 C2522 1.369 . S
C2523 C2524 1.410 . S
C2523 C2531 1.503 . S
C2524 C2523 1.410 . S
C2524 C2525 1.392 . S
C2524 C2527 1.511 . S
C2525 C2521 1.376 . S
C2525 C2524 1.392 . S
C2525 H2537 0.929 . S
C2526 C2522 1.531 . S
C2526 H2538 0.960 . S
C2526 H2539 0.962 . S
C2526 H2540 0.960 . S
C2527 C2524 1.511 . S
C2527 H2541 0.961 . S
C2527 H2542 0.961 . S
C2527 H2543 0.961 . S
C2528 C2529 1.370 . S
C2528 C2530 1.363 . S
C2528 H2544 0.931 . S
C2529 C2528 1.370 . S
C2529 C2533 1.408 . S
C2530 C2528 1.363 . S
C2530 C2531 1.370 . S
C2530 C2534 1.524 . S
C2531 C2523 1.503 . S
C2531 C2530 1.370 . S
C2531 C2532 1.403 . S
C2532 C2531 1.403 . S
C2532 C2533 1.404 . S
C2532 C2535 1.539 . S
C2533 C2529 1.408 . S
C2533 C2532 1.404 . S
C2533 H2545 0.930 . S
C2534 C2530 1.524 . S
C2534 H2546 0.956 . S
C2534 H2547 0.961 . S
C2534 H2548 0.961 . S
C2535 C2532 1.539 . S
C2535 H2549 0.958 . S
C2535 H2550 0.961 . S
C2535 H2551 0.960 . S
H2536 C2520 0.931 . S
H2537 C2525 0.929 . S
H2538 C2526 0.960 . S
H2539 C2526 0.962 . S
H2540 C2526 0.960 . S
H2541 C2527 0.961 . S
H2542 C2527 0.961 . S
H2543 C2527 0.961 . S
H2544 C2528 0.931 . S
H2545 C2533 0.930 . S
H2546 C2534 0.956 . S
H2547 C2534 0.961 . S
H2548 C2534 0.961 . S
H2549 C2535 0.958 . S
H2550 C2535 0.961 . S
H2551 C2535 0.960 . S
C2552 C2553 1.391 . S
C2552 C2554 1.394 . S
C2552 H2568 0.931 . S
C2553 C2552 1.391 . S
C2553 C2557 1.376 . S
C2554 C2552 1.394 . S
C2554 C2555 1.369 . S
C2554 C2558 1.531 . S
C2555 C2554 1.369 . S
C2555 C2556 1.410 . S
C2555 C2563 1.503 . S
C2556 C2555 1.410 . S
C2556 C2557 1.392 . S
C2556 C2559 1.511 . S
C2557 C2553 1.376 . S
C2557 C2556 1.392 . S
C2557 H2569 0.929 . S
C2558 C2554 1.531 . S
C2558 H2570 0.960 . S
C2558 H2571 0.962 . S
C2558 H2572 0.960 . S
C2559 C2556 1.511 . S
C2559 H2573 0.961 . S
C2559 H2574 0.961 . S
C2559 H2575 0.961 . S
C2560 C2561 1.370 . S
C2560 C2562 1.363 . S
C2560 H2576 0.931 . S
C2561 C2560 1.370 . S
C2561 C2565 1.408 . S
C2562 C2560 1.363 . S
C2562 C2563 1.370 . S
C2562 C2566 1.524 . S
C2563 C2555 1.503 . S
C2563 C2562 1.370 . S
C2563 C2564 1.403 . S
C2564 C2563 1.403 . S
C2564 C2565 1.404 . S
C2564 C2567 1.539 . S
C2565 C2561 1.408 . S
C2565 C2564 1.404 . S
C2565 H2577 0.930 . S
C2566 C2562 1.524 . S
C2566 H2578 0.956 . S
C2566 H2579 0.961 . S
C2566 H2580 0.961 . S
C2567 C2564 1.539 . S
C2567 H2581 0.958 . S
C2567 H2582 0.961 . S
C2567 H2583 0.960 . S
H2568 C2552 0.931 . S
H2569 C2557 0.929 . S
H2570 C2558 0.960 . S
H2571 C2558 0.962 . S
H2572 C2558 0.960 . S
H2573 C2559 0.961 . S
H2574 C2559 0.961 . S
H2575 C2559 0.961 . S
H2576 C2560 0.931 . S
H2577 C2565 0.930 . S
H2578 C2566 0.956 . S
H2579 C2566 0.961 . S
H2580 C2566 0.961 . S
H2581 C2567 0.958 . S
H2582 C2567 0.961 . S
H2583 C2567 0.960 . S
C2584 C2585 1.391 . S
C2584 C2586 1.394 . S
C2584 H2600 0.931 . S
C2585 C2584 1.391 . S
C2585 C2589 1.376 . S
C2586 C2584 1.394 . S
C2586 C2587 1.369 . S
C2586 C2590 1.531 . S
C2587 C2586 1.369 . S
C2587 C2588 1.410 . S
C2587 C2595 1.503 . S
C2588 C2587 1.410 . S
C2588 C2589 1.392 . S
C2588 C2591 1.511 . S
C2589 C2585 1.376 . S
C2589 C2588 1.392 . S
C2589 H2601 0.929 . S
C2590 C2586 1.531 . S
C2590 H2602 0.960 . S
C2590 H2603 0.962 . S
C2590 H2604 0.960 . S
C2591 C2588 1.511 . S
C2591 H2605 0.961 . S
C2591 H2606 0.961 . S
C2591 H2607 0.961 . S
C2592 C2593 1.370 . S
C2592 C2594 1.363 . S
C2592 H2608 0.931 . S
C2593 C2592 1.370 . S
C2593 C2597 1.408 . S
C2594 C2592 1.363 . S
C2594 C2595 1.370 . S
C2594 C2598 1.524 . S
C2595 C2587 1.503 . S
C2595 C2594 1.370 . S
C2595 C2596 1.403 . S
C2596 C2595 1.403 . S
C2596 C2597 1.404 . S
C2596 C2599 1.539 . S
C2597 C2593 1.408 . S
C2597 C2596 1.404 . S
C2597 H2609 0.930 . S
C2598 C2594 1.524 . S
C2598 H2610 0.956 . S
C2598 H2611 0.961 . S
C2598 H2612 0.961 . S
C2599 C2596 1.539 . S
C2599 H2613 0.958 . S
C2599 H2614 0.961 . S
C2599 H2615 0.960 . S
H2600 C2584 0.931 . S
H2601 C2589 0.929 . S
H2602 C2590 0.960 . S
H2603 C2590 0.962 . S
H2604 C2590 0.960 . S
H2605 C2591 0.961 . S
H2606 C2591 0.961 . S
H2607 C2591 0.961 . S
H2608 C2592 0.931 . S
H2609 C2597 0.930 . S
H2610 C2598 0.956 . S
H2611 C2598 0.961 . S
H2612 C2598 0.961 . S
H2613 C2599 0.958 . S
H2614 C2599 0.961 . S
H2615 C2599 0.960 . S
C2616 C2617 1.391 . S
C2616 C2618 1.394 . S
C2616 H2632 0.931 . S
C2617 C2616 1.391 . S
C2617 C2621 1.376 . S
C2618 C2616 1.394 . S
C2618 C2619 1.369 . S
C2618 C2622 1.531 . S
C2619 C2618 1.369 . S
C2619 C2620 1.410 . S
C2619 C2627 1.503 . S
C2620 C2619 1.410 . S
C2620 C2621 1.392 . S
C2620 C2623 1.511 . S
C2621 C2617 1.376 . S
C2621 C2620 1.392 . S
C2621 H2633 0.929 . S
C2622 C2618 1.531 . S
C2622 H2634 0.960 . S
C2622 H2635 0.962 . S
C2622 H2636 0.960 . S
C2623 C2620 1.511 . S
C2623 H2637 0.961 . S
C2623 H2638 0.961 . S
C2623 H2639 0.961 . S
C2624 C2625 1.370 . S
C2624 C2626 1.363 . S
C2624 H2640 0.931 . S
C2625 C2624 1.370 . S
C2625 C2629 1.408 . S
C2626 C2624 1.363 . S
C2626 C2627 1.370 . S
C2626 C2630 1.524 1_556 S
C2627 C2619 1.503 . S
C2627 C2626 1.370 . S
C2627 C2628 1.403 . S
C2628 C2627 1.403 . S
C2628 C2629 1.404 . S
C2628 C2631 1.539 . S
C2629 C2625 1.408 . S
C2629 C2628 1.404 . S
C2629 H2641 0.930 . S
C2630 C2626 1.524 1_554 S
C2630 H2642 0.956 . S
C2630 H2643 0.961 . S
C2630 H2644 0.961 . S
C2631 C2628 1.539 . S
C2631 H2645 0.958 . S
C2631 H2646 0.961 . S
C2631 H2647 0.960 . S
H2632 C2616 0.931 . S
H2633 C2621 0.929 . S
H2634 C2622 0.960 . S
H2635 C2622 0.962 . S
H2636 C2622 0.960 . S
H2637 C2623 0.961 . S
H2638 C2623 0.961 . S
H2639 C2623 0.961 . S
H2640 C2624 0.931 . S
H2641 C2629 0.930 . S
H2642 C2630 0.956 . S
H2643 C2630 0.961 . S
H2644 C2630 0.961 . S
H2645 C2631 0.958 . S
H2646 C2631 0.961 . S
H2647 C2631 0.960 . S
C2648 C2649 1.391 1_554 S
C2648 C2650 1.394 1_554 S
C2648 H2664 0.931 . S
C2649 C2648 1.391 1_556 S
C2649 C2653 1.376 . S
C2650 C2648 1.394 1_556 S
C2650 C2651 1.369 . S
C2650 C2654 1.531 1_556 S
C2651 C2650 1.369 . S
C2651 C2652 1.410 . S
C2651 C2659 1.503 . S
C2652 C2651 1.410 . S
C2652 C2653 1.392 . S
C2652 C2655 1.511 . S
C2653 C2649 1.376 . S
C2653 C2652 1.392 . S
C2653 H2665 0.929 . S
C2654 C2650 1.531 1_554 S
C2654 H2666 0.960 . S
C2654 H2667 0.962 . S
C2654 H2668 0.960 . S
C2655 C2652 1.511 . S
C2655 H2669 0.961 . S
C2655 H2670 0.961 . S
C2655 H2671 0.961 . S
C2656 C2657 1.370 . S
C2656 C2658 1.363 . S
C2656 H2672 0.931 . S
C2657 C2656 1.370 . S
C2657 C2661 1.408 . S
C2658 C2656 1.363 . S
C2658 C2659 1.370 . S
C2658 C2662 1.524 . S
C2659 C2651 1.503 . S
C2659 C2658 1.370 . S
C2659 C2660 1.403 . S
C2660 C2659 1.403 . S
C2660 C2661 1.404 . S
C2660 C2663 1.539 . S
C2661 C2657 1.408 . S
C2661 C2660 1.404 . S
C2661 H2673 0.930 . S
C2662 C2658 1.524 . S
C2662 H2674 0.956 . S
C2662 H2675 0.961 . S
C2662 H2676 0.961 . S
C2663 C2660 1.539 . S
C2663 H2677 0.958 . S
C2663 H2678 0.961 . S
C2663 H2679 0.960 . S
H2664 C2648 0.931 . S
H2665 C2653 0.929 . S
H2666 C2654 0.960 . S
H2667 C2654 0.962 . S
H2668 C2654 0.960 . S
H2669 C2655 0.961 . S
H2670 C2655 0.961 . S
H2671 C2655 0.961 . S
H2672 C2656 0.931 . S
H2673 C2661 0.930 . S
H2674 C2662 0.956 . S
H2675 C2662 0.961 . S
H2676 C2662 0.961 . S
H2677 C2663 0.958 . S
H2678 C2663 0.961 . S
H2679 C2663 0.960 . S
C2680 C2681 1.391 . S
C2680 C2682 1.394 . S
C2680 H2696 0.931 . S
C2681 C2680 1.391 . S
C2681 C2685 1.376 . S
C2682 C2680 1.394 . S
C2682 C2683 1.369 . S
C2682 C2686 1.531 . S
C2683 C2682 1.369 . S
C2683 C2684 1.410 . S
C2683 C2691 1.503 . S
C2684 C2683 1.410 . S
C2684 C2685 1.392 . S
C2684 C2687 1.511 . S
C2685 C2681 1.376 . S
C2685 C2684 1.392 . S
C2685 H2697 0.929 . S
C2686 C2682 1.531 . S
C2686 H2698 0.960 . S
C2686 H2699 0.962 . S
C2686 H2700 0.960 . S
C2687 C2684 1.511 . S
C2687 H2701 0.961 . S
C2687 H2702 0.961 . S
C2687 H2703 0.912 1_556 S
C2688 C2689 1.370 . S
C2688 C2690 1.363 . S
C2688 H2704 0.931 . S
C2689 C2688 1.370 . S
C2689 C2693 1.408 . S
C2690 C2688 1.363 . S
C2690 C2691 1.370 . S
C2690 C2694 1.524 . S
C2691 C2683 1.503 . S
C2691 C2690 1.370 . S
C2691 C2692 1.403 . S
C2692 C2691 1.403 . S
C2692 C2693 1.404 . S
C2692 C2695 1.539 1_556 S
C2693 C2689 1.408 . S
C2693 C2692 1.404 . S
C2693 H2705 0.930 . S
C2694 C2690 1.524 . S
C2694 H2706 0.956 . S
C2694 H2707 0.961 . S
C2694 H2708 0.961 . S
C2695 C2692 1.539 1_554 S
C2695 H2709 0.958 . S
C2695 H2710 0.961 . S
C2695 H2711 0.960 . S
H2696 C2680 0.931 . S
H2697 C2685 0.929 . S
H2698 C2686 0.960 . S
H2699 C2686 0.962 . S
H2700 C2686 0.960 . S
H2701 C2687 0.961 . S
H2702 C2687 0.961 . S
H2703 C2687 0.912 1_554 S
H2704 C2688 0.931 . S
H2705 C2693 0.930 . S
H2706 C2694 0.956 . S
H2707 C2694 0.961 . S
H2708 C2694 0.961 . S
H2709 C2695 0.958 . S
H2710 C2695 0.961 . S
H2711 C2695 0.960 . S
C2712 C2713 1.391 . S
C2712 C2714 1.394 . S
C2712 H2728 0.931 1_556 S
C2713 C2712 1.391 . S
C2713 C2717 1.376 . S
C2714 C2712 1.394 . S
C2714 C2715 1.369 . S
C2714 C2718 1.533 . S
C2715 C2714 1.369 . S
C2715 C2716 1.410 . S
C2715 C2723 1.503 . S
C2716 C2715 1.410 . S
C2716 C2717 1.392 . S
C2716 C2719 1.511 . S
C2717 C2713 1.376 . S
C2717 C2716 1.392 . S
C2717 H2729 0.929 . S
C2718 C2714 1.533 . S
C2718 H2730 0.959 1_556 S
C2718 H2731 0.967 . S
C2718 H2732 0.953 1_556 S
C2719 C2716 1.511 . S
C2719 H2733 0.961 . S
C2719 H2734 0.961 . S
C2719 H2735 0.961 . S
C2720 C2721 1.370 . S
C2720 C2722 1.363 . S
C2720 H2736 0.931 . S
C2721 C2720 1.370 . S
C2721 C2725 1.408 . S
C2722 C2720 1.363 . S
C2722 C2723 1.370 . S
C2722 C2726 1.524 . S
C2723 C2715 1.503 . S
C2723 C2722 1.370 . S
C2723 C2724 1.403 . S
C2724 C2723 1.403 . S
C2724 C2725 1.404 . S
C2724 C2727 1.539 . S
C2725 C2721 1.408 . S
C2725 C2724 1.404 . S
C2725 H2737 0.930 . S
C2726 C2722 1.524 . S
C2726 H2738 0.956 . S
C2726 H2739 0.961 . S
C2726 H2740 0.961 . S
C2727 C2724 1.539 . S
C2727 H2741 0.959 1_556 S
C2727 H2742 0.961 . S
C2727 H2743 0.959 1_556 S
H2728 C2712 0.931 1_554 S
H2729 C2717 0.929 . S
H2730 C2718 0.959 1_554 S
H2731 C2718 0.967 . S
H2732 C2718 0.953 1_554 S
H2733 C2719 0.961 . S
H2734 C2719 0.961 . S
H2735 C2719 0.961 . S
H2736 C2720 0.931 . S
H2737 C2725 0.930 . S
H2738 C2726 0.956 . S
H2739 C2726 0.961 . S
H2740 C2726 0.961 . S
H2741 C2727 0.959 1_554 S
H2742 C2727 0.961 . S
H2743 C2727 0.959 1_554 S
C2744 C2745 1.391 . S
C2744 C2746 1.394 . S
C2744 H2760 0.931 . S
C2745 C2744 1.391 . S
C2745 C2749 1.376 . S
C2746 C2744 1.394 . S
C2746 C2747 1.369 . S
C2746 C2750 1.531 . S
C2747 C2746 1.369 . S
C2747 C2748 1.410 . S
C2747 C2755 1.503 . S
C2748 C2747 1.410 . S
C2748 C2749 1.392 . S
C2748 C2751 1.511 1_556 S
C2749 C2745 1.376 . S
C2749 C2748 1.392 . S
C2749 H2761 0.929 1_556 S
C2750 C2746 1.531 . S
C2750 H2762 0.960 . S
C2750 H2763 0.962 . S
C2750 H2764 0.960 . S
C2751 C2748 1.511 1_554 S
C2751 H2765 0.961 . S
C2751 H2766 0.970 . S
C2751 H2767 0.959 . S
C2752 C2753 1.370 . S
C2752 C2754 1.363 . S
C2752 H2768 0.931 . S
C2753 C2752 1.370 . S
C2753 C2757 1.408 . S
C2754 C2752 1.363 . S
C2754 C2755 1.370 . S
C2754 C2758 1.524 . S
C2755 C2747 1.503 . S
C2755 C2754 1.370 . S
C2755 C2756 1.403 . S
C2756 C2755 1.403 . S
C2756 C2757 1.404 . S
C2756 C2759 1.539 . S
C2757 C2753 1.408 . S
C2757 C2756 1.404 . S
C2757 H2769 0.930 . S
C2758 C2754 1.524 . S
C2758 H2770 0.956 . S
C2758 H2771 0.961 . S
C2758 H2772 0.961 . S
C2759 C2756 1.539 . S
C2759 H2773 0.958 . S
C2759 H2774 0.961 . S
C2759 H2775 0.960 . S
H2760 C2744 0.931 . S
H2761 C2749 0.929 1_554 S
H2762 C2750 0.960 . S
H2763 C2750 0.962 . S
H2764 C2750 0.960 . S
H2765 C2751 0.961 . S
H2766 C2751 0.970 . S
H2767 C2751 0.959 . S
H2768 C2752 0.931 . S
H2769 C2757 0.930 . S
H2770 C2758 0.956 . S
H2771 C2758 0.961 . S
H2772 C2758 0.961 . S
H2773 C2759 0.958 . S
H2774 C2759 0.961 . S
H2775 C2759 0.960 . S
C2776 C2777 1.391 . S
C2776 C2778 1.394 . S
C2776 H2792 0.931 . S
C2777 C2776 1.391 . S
C2777 C2781 1.376 . S
C2778 C2776 1.394 . S
C2778 C2779 1.369 . S
C2778 C2782 1.531 . S
C2779 C2778 1.369 . S
C2779 C2780 1.410 . S
C2779 C2787 1.503 . S
C2780 C2779 1.410 . S
C2780 C2781 1.392 . S
C2780 C2783 1.511 . S
C2781 C2777 1.376 . S
C2781 C2780 1.392 . S
C2781 H2793 0.929 . S
C2782 C2778 1.531 . S
C2782 H2794 0.960 . S
C2782 H2795 0.962 . S
C2782 H2796 0.960 . S
C2783 C2780 1.511 . S
C2783 H2797 0.961 . S
C2783 H2798 0.961 . S
C2783 H2799 0.961 . S
C2784 C2785 1.370 . S
C2784 C2786 1.363 . S
C2784 H2800 0.931 . S
C2785 C2784 1.370 . S
C2785 C2789 1.408 . S
C2786 C2784 1.363 . S
C2786 C2787 1.370 . S
C2786 C2790 1.524 1_556 S
C2787 C2779 1.503 . S
C2787 C2786 1.370 . S
C2787 C2788 1.403 . S
C2788 C2787 1.403 . S
C2788 C2789 1.404 . S
C2788 C2791 1.539 . S
C2789 C2785 1.408 . S
C2789 C2788 1.404 . S
C2789 H2801 0.930 . S
C2790 C2786 1.524 1_554 S
C2790 H2802 0.956 . S
C2790 H2803 0.961 . S
C2790 H2804 0.961 . S
C2791 C2788 1.539 . S
C2791 H2805 0.958 . S
C2791 H2806 0.961 . S
C2791 H2807 0.960 . S
H2792 C2776 0.931 . S
H2793 C2781 0.929 . S
H2794 C2782 0.960 . S
H2795 C2782 0.962 . S
H2796 C2782 0.960 . S
H2797 C2783 0.961 . S
H2798 C2783 0.961 . S
H2799 C2783 0.961 . S
H2800 C2784 0.931 . S
H2801 C2789 0.930 . S
H2802 C2790 0.956 . S
H2803 C2790 0.961 . S
H2804 C2790 0.961 . S
H2805 C2791 0.958 . S
H2806 C2791 0.961 . S
H2807 C2791 0.960 . S
C2808 C2809 1.391 . S
C2808 C2810 1.394 . S
C2808 H2824 0.931 . S
C2809 C2808 1.391 . S
C2809 C2813 1.376 . S
C2810 C2808 1.394 . S
C2810 C2811 1.369 . S
C2810 C2814 1.531 . S
C2811 C2810 1.369 . S
C2811 C2812 1.410 . S
C2811 C2819 1.503 . S
C2812 C2811 1.410 . S
C2812 C2813 1.392 . S
C2812 C2815 1.511 . S
C2813 C2809 1.376 . S
C2813 C2812 1.392 . S
C2813 H2825 0.929 . S
C2814 C2810 1.531 . S
C2814 H2826 0.960 . S
C2814 H2827 0.962 . S
C2814 H2828 0.960 . S
C2815 C2812 1.511 . S
C2815 H2829 0.961 . S
C2815 H2830 0.961 . S
C2815 H2831 0.961 . S
C2816 C2817 1.370 . S
C2816 C2818 1.363 . S
C2816 H2832 0.931 . S
C2817 C2816 1.370 . S
C2817 C2821 1.408 . S
C2818 C2816 1.363 . S
C2818 C2819 1.370 . S
C2818 C2822 1.524 . S
C2819 C2811 1.503 . S
C2819 C2818 1.370 . S
C2819 C2820 1.403 . S
C2820 C2819 1.403 . S
C2820 C2821 1.404 . S
C2820 C2823 1.539 . S
C2821 C2817 1.408 . S
C2821 C2820 1.404 . S
C2821 H2833 0.930 . S
C2822 C2818 1.524 . S
C2822 H2834 0.956 . S
C2822 H2835 0.961 . S
C2822 H2836 0.961 . S
C2823 C2820 1.539 . S
C2823 H2837 0.958 . S
C2823 H2838 0.961 . S
C2823 H2839 0.960 . S
H2824 C2808 0.931 . S
H2825 C2813 0.929 . S
H2826 C2814 0.960 . S
H2827 C2814 0.962 . S
H2828 C2814 0.960 . S
H2829 C2815 0.961 . S
H2830 C2815 0.961 . S
H2831 C2815 0.961 . S
H2832 C2816 0.931 . S
H2833 C2821 0.930 . S
H2834 C2822 0.956 . S
H2835 C2822 0.961 . S
H2836 C2822 0.961 . S
H2837 C2823 0.958 . S
H2838 C2823 0.961 . S
H2839 C2823 0.960 . S
C2840 C2841 1.391 . S
C2840 C2842 1.394 . S
C2840 H2856 0.931 . S
C2841 C2840 1.391 . S
C2841 C2845 1.376 . S
C2842 C2840 1.394 . S
C2842 C2843 1.369 . S
C2842 C2846 1.531 . S
C2843 C2842 1.369 . S
C2843 C2844 1.410 . S
C2843 C2851 1.503 . S
C2844 C2843 1.410 . S
C2844 C2845 1.392 . S
C2844 C2847 1.511 . S
C2845 C2841 1.376 . S
C2845 C2844 1.392 . S
C2845 H2857 0.929 . S
C2846 C2842 1.531 . S
C2846 H2858 0.960 . S
C2846 H2859 0.962 . S
C2846 H2860 0.960 . S
C2847 C2844 1.511 . S
C2847 H2861 0.961 . S
C2847 H2862 0.961 . S
C2847 H2863 0.961 . S
C2848 C2849 1.370 . S
C2848 C2850 1.363 . S
C2848 H2864 0.931 . S
C2849 C2848 1.370 . S
C2849 C2853 1.408 . S
C2850 C2848 1.363 . S
C2850 C2851 1.370 . S
C2850 C2854 1.524 . S
C2851 C2843 1.503 . S
C2851 C2850 1.370 . S
C2851 C2852 1.403 . S
C2852 C2851 1.403 . S
C2852 C2853 1.404 . S
C2852 C2855 1.539 . S
C2853 C2849 1.408 . S
C2853 C2852 1.404 . S
C2853 H2865 0.930 . S
C2854 C2850 1.524 . S
C2854 H2866 0.956 . S
C2854 H2867 0.961 . S
C2854 H2868 0.961 . S
C2855 C2852 1.539 . S
C2855 H2869 0.958 . S
C2855 H2870 0.961 . S
C2855 H2871 0.960 . S
H2856 C2840 0.931 . S
H2857 C2845 0.929 . S
H2858 C2846 0.960 . S
H2859 C2846 0.962 . S
H2860 C2846 0.960 . S
H2861 C2847 0.961 . S
H2862 C2847 0.961 . S
H2863 C2847 0.961 . S
H2864 C2848 0.931 . S
H2865 C2853 0.930 . S
H2866 C2854 0.956 . S
H2867 C2854 0.961 . S
H2868 C2854 0.961 . S
H2869 C2855 0.958 . S
H2870 C2855 0.961 . S
H2871 C2855 0.960 . S
C2872 C2873 1.391 . S
C2872 C2874 1.394 . S
C2872 H2888 0.931 . S
C2873 C2872 1.391 . S
C2873 C2877 1.376 . S
C2874 C2872 1.394 . S
C2874 C2875 1.369 . S
C2874 C2878 1.531 . S
C2875 C2874 1.369 . S
C2875 C2876 1.410 . S
C2875 C2883 1.503 . S
C2876 C2875 1.410 . S
C2876 C2877 1.392 . S
C2876 C2879 1.511 . S
C2877 C2873 1.376 . S
C2877 C2876 1.392 . S
C2877 H2889 0.929 . S
C2878 C2874 1.531 . S
C2878 H2890 0.960 . S
C2878 H2891 0.962 . S
C2878 H2892 0.960 . S
C2879 C2876 1.511 . S
C2879 H2893 0.961 . S
C2879 H2894 0.961 . S
C2879 H2895 0.961 . S
C2880 C2881 1.370 . S
C2880 C2882 1.363 . S
C2880 H2896 0.931 . S
C2881 C2880 1.370 . S
C2881 C2885 1.408 . S
C2882 C2880 1.363 . S
C2882 C2883 1.370 . S
C2882 C2886 1.524 . S
C2883 C2875 1.503 . S
C2883 C2882 1.370 . S
C2883 C2884 1.403 . S
C2884 C2883 1.403 . S
C2884 C2885 1.404 . S
C2884 C2887 1.539 . S
C2885 C2881 1.408 . S
C2885 C2884 1.404 . S
C2885 H2897 0.930 . S
C2886 C2882 1.524 . S
C2886 H2898 0.956 . S
C2886 H2899 0.961 . S
C2886 H2900 0.961 . S
C2887 C2884 1.539 . S
C2887 H2901 0.958 . S
C2887 H2902 0.961 . S
C2887 H2903 0.960 . S
H2888 C2872 0.931 . S
H2889 C2877 0.929 . S
H2890 C2878 0.960 . S
H2891 C2878 0.962 . S
H2892 C2878 0.960 . S
H2893 C2879 0.961 . S
H2894 C2879 0.961 . S
H2895 C2879 0.961 . S
H2896 C2880 0.931 . S
H2897 C2885 0.930 . S
H2898 C2886 0.956 . S
H2899 C2886 0.961 . S
H2900 C2886 0.961 . S
H2901 C2887 0.958 . S
H2902 C2887 0.961 . S
H2903 C2887 0.960 . S
C2904 C2905 1.391 . S
C2904 C2906 1.394 . S
C2904 H2920 0.931 . S
C2905 C2904 1.391 . S
C2905 C2909 1.376 . S
C2906 C2904 1.394 . S
C2906 C2907 1.369 . S
C2906 C2910 1.531 . S
C2907 C2906 1.369 . S
C2907 C2908 1.410 . S
C2907 C2915 1.503 . S
C2908 C2907 1.410 . S
C2908 C2909 1.392 . S
C2908 C2911 1.511 . S
C2909 C2905 1.376 . S
C2909 C2908 1.392 . S
C2909 H2921 0.929 . S
C2910 C2906 1.531 . S
C2910 H2922 0.960 . S
C2910 H2923 0.962 . S
C2910 H2924 0.960 . S
C2911 C2908 1.511 . S
C2911 H2925 0.961 . S
C2911 H2926 0.961 . S
C2911 H2927 0.961 . S
C2912 C2913 1.370 . S
C2912 C2914 1.363 . S
C2912 H2928 0.931 . S
C2913 C2912 1.370 . S
C2913 C2917 1.408 . S
C2914 C2912 1.363 . S
C2914 C2915 1.370 . S
C2914 C2918 1.524 . S
C2915 C2907 1.503 . S
C2915 C2914 1.370 . S
C2915 C2916 1.403 . S
C2916 C2915 1.403 . S
C2916 C2917 1.404 . S
C2916 C2919 1.539 . S
C2917 C2913 1.408 . S
C2917 C2916 1.404 . S
C2917 H2929 0.930 . S
C2918 C2914 1.524 . S
C2918 H2930 0.956 . S
C2918 H2931 0.961 . S
C2918 H2932 0.961 . S
C2919 C2916 1.539 . S
C2919 H2933 0.958 . S
C2919 H2934 0.961 . S
C2919 H2935 0.960 . S
H2920 C2904 0.931 . S
H2921 C2909 0.929 . S
H2922 C2910 0.960 . S
H2923 C2910 0.962 . S
H2924 C2910 0.960 . S
H2925 C2911 0.961 . S
H2926 C2911 0.961 . S
H2927 C2911 0.961 . S
H2928 C2912 0.931 . S
H2929 C2917 0.930 . S
H2930 C2918 0.956 . S
H2931 C2918 0.961 . S
H2932 C2918 0.961 . S
H2933 C2919 0.958 . S
H2934 C2919 0.961 . S
H2935 C2919 0.960 . S
C2936 C2937 1.391 . S
C2936 C2938 1.394 . S
C2936 H2952 0.931 . S
C2937 C2936 1.391 . S
C2937 C2941 1.376 . S
C2938 C2936 1.394 . S
C2938 C2939 1.369 . S
C2938 C2942 1.531 . S
C2939 C2938 1.369 . S
C2939 C2940 1.410 . S
C2939 C2947 1.503 . S
C2940 C2939 1.410 . S
C2940 C2941 1.392 . S
C2940 C2943 1.511 . S
C2941 C2937 1.376 . S
C2941 C2940 1.392 . S
C2941 H2953 0.929 . S
C2942 C2938 1.531 . S
C2942 H2954 0.960 . S
C2942 H2955 0.962 . S
C2942 H2956 0.960 . S
C2943 C2940 1.511 . S
C2943 H2957 0.961 . S
C2943 H2958 0.961 . S
C2943 H2959 0.961 . S
C2944 C2945 1.370 . S
C2944 C2946 1.363 . S
C2944 H2960 0.931 . S
C2945 C2944 1.370 . S
C2945 C2949 1.408 . S
C2946 C2944 1.363 . S
C2946 C2947 1.370 . S
C2946 C2950 1.524 . S
C2947 C2939 1.503 . S
C2947 C2946 1.370 . S
C2947 C2948 1.403 . S
C2948 C2947 1.403 . S
C2948 C2949 1.404 . S
C2948 C2951 1.539 . S
C2949 C2945 1.408 . S
C2949 C2948 1.404 . S
C2949 H2961 0.930 . S
C2950 C2946 1.524 . S
C2950 H2962 0.956 . S
C2950 H2963 0.961 . S
C2950 H2964 0.961 . S
C2951 C2948 1.539 . S
C2951 H2965 0.958 . S
C2951 H2966 0.961 . S
C2951 H2967 0.960 . S
H2952 C2936 0.931 . S
H2953 C2941 0.929 . S
H2954 C2942 0.960 . S
H2955 C2942 0.962 . S
H2956 C2942 0.960 . S
H2957 C2943 0.961 . S
H2958 C2943 0.961 . S
H2959 C2943 0.961 . S
H2960 C2944 0.931 . S
H2961 C2949 0.930 . S
H2962 C2950 0.956 . S
H2963 C2950 0.961 . S
H2964 C2950 0.961 . S
H2965 C2951 0.958 . S
H2966 C2951 0.961 . S
H2967 C2951 0.960 . S
C2968 C2969 1.391 . S
C2968 C2970 1.394 . S
C2968 H2984 0.931 . S
C2969 C2968 1.391 . S
C2969 C2973 1.376 . S
C2970 C2968 1.394 . S
C2970 C2971 1.369 . S
C2970 C2974 1.531 . S
C2971 C2970 1.369 . S
C2971 C2972 1.410 . S
C2971 C2979 1.503 . S
C2972 C2971 1.410 . S
C2972 C2973 1.392 . S
C2972 C2975 1.511 . S
C2973 C2969 1.376 . S
C2973 C2972 1.392 . S
C2973 H2985 0.929 . S
C2974 C2970 1.531 . S
C2974 H2986 0.960 . S
C2974 H2987 0.962 . S
C2974 H2988 0.960 . S
C2975 C2972 1.511 . S
C2975 H2989 0.961 . S
C2975 H2990 0.961 . S
C2975 H2991 0.961 . S
C2976 C2977 1.370 . S
C2976 C2978 1.363 . S
C2976 H2992 0.931 . S
C2977 C2976 1.370 . S
C2977 C2981 1.408 . S
C2978 C2976 1.363 . S
C2978 C2979 1.370 . S
C2978 C2982 1.524 . S
C2979 C2971 1.503 . S
C2979 C2978 1.370 . S
C2979 C2980 1.403 . S
C2980 C2979 1.403 . S
C2980 C2981 1.404 . S
C2980 C2983 1.539 . S
C2981 C2977 1.408 . S
C2981 C2980 1.404 . S
C2981 H2993 0.930 . S
C2982 C2978 1.524 . S
C2982 H2994 0.956 . S
C2982 H2995 0.961 . S
C2982 H2996 0.961 . S
C2983 C2980 1.539 . S
C2983 H2997 0.958 . S
C2983 H2998 0.961 . S
C2983 H2999 0.960 . S
H2984 C2968 0.931 . S
H2985 C2973 0.929 . S
H2986 C2974 0.960 . S
H2987 C2974 0.962 . S
H2988 C2974 0.960 . S
H2989 C2975 0.961 . S
H2990 C2975 0.961 . S
H2991 C2975 0.961 . S
H2992 C2976 0.931 . S
H2993 C2981 0.930 . S
H2994 C2982 0.956 . S
H2995 C2982 0.961 . S
H2996 C2982 0.961 . S
H2997 C2983 0.958 . S
H2998 C2983 0.961 . S
H2999 C2983 0.960 . S
C3000 C3001 1.391 . S
C3000 C3002 1.394 . S
C3000 H3016 0.931 . S
C3001 C3000 1.391 . S
C3001 C3005 1.376 . S
C3002 C3000 1.394 . S
C3002 C3003 1.369 . S
C3002 C3006 1.531 . S
C3003 C3002 1.369 . S
C3003 C3004 1.410 . S
C3003 C3011 1.503 . S
C3004 C3003 1.410 . S
C3004 C3005 1.392 . S
C3004 C3007 1.511 1_455 S
C3005 C3001 1.376 . S
C3005 C3004 1.392 . S
C3005 H3017 0.929 . S
C3006 C3002 1.531 . S
C3006 H3018 0.960 . S
C3006 H3019 0.962 . S
C3006 H3020 0.960 . S
C3007 C3004 1.511 1_655 S
C3007 H3021 0.961 . S
C3007 H3022 0.961 . S
C3007 H3023 0.961 . S
C3008 C3009 1.370 . S
C3008 C3010 1.363 . S
C3008 H3024 0.931 . S
C3009 C3008 1.370 . S
C3009 C3013 1.408 1_455 S
C3010 C3008 1.363 . S
C3010 C3011 1.370 . S
C3010 C3014 1.524 . S
C3011 C3003 1.503 . S
C3011 C3010 1.370 . S
C3011 C3012 1.459 . S
C3012 C3011 1.459 . S
C3012 C3013 1.353 1_455 S
C3012 C3015 1.532 1_455 S
C3013 C3009 1.408 1_655 S
C3013 C3012 1.353 1_655 S
C3013 H3025 0.930 . S
C3014 C3010 1.524 . S
C3014 H3026 0.956 . S
C3014 H3027 0.961 . S
C3014 H3028 0.961 . S
C3015 C3012 1.532 1_655 S
C3015 H3029 0.958 . S
C3015 H3030 0.961 . S
C3015 H3031 0.960 . S
H3016 C3000 0.931 . S
H3017 C3005 0.929 . S
H3018 C3006 0.960 . S
H3019 C3006 0.962 . S
H3020 C3006 0.960 . S
H3021 C3007 0.961 . S
H3022 C3007 0.961 . S
H3023 C3007 0.961 . S
H3024 C3008 0.931 . S
H3025 C3013 0.930 . S
H3026 C3014 0.956 . S
H3027 C3014 0.961 . S
H3028 C3014 0.961 . S
H3029 C3015 0.958 . S
H3030 C3015 0.961 . S
H3031 C3015 0.960 . S
C3032 C3033 1.391 . S
C3032 C3034 1.394 . S
C3032 H3048 0.931 . S
C3033 C3032 1.391 . S
C3033 C3037 1.376 . S
C3034 C3032 1.394 . S
C3034 C3035 1.369 . S
C3034 C3038 1.531 . S
C3035 C3034 1.369 . S
C3035 C3036 1.410 . S
C3035 C3043 1.503 . S
C3036 C3035 1.410 . S
C3036 C3037 1.392 . S
C3036 C3039 1.511 . S
C3037 C3033 1.376 . S
C3037 C3036 1.392 . S
C3037 H3049 0.929 . S
C3038 C3034 1.531 . S
C3038 H3050 0.960 . S
C3038 H3051 0.962 . S
C3038 H3052 0.960 . S
C3039 C3036 1.511 . S
C3039 H3053 0.961 . S
C3039 H3054 0.961 . S
C3039 H3055 0.961 . S
C3040 C3041 1.370 . S
C3040 C3042 1.363 . S
C3040 H3056 0.931 . S
C3041 C3040 1.370 . S
C3041 C3045 1.408 . S
C3042 C3040 1.363 . S
C3042 C3043 1.370 . S
C3042 C3046 1.524 . S
C3043 C3035 1.503 . S
C3043 C3042 1.370 . S
C3043 C3044 1.403 . S
C3044 C3043 1.403 . S
C3044 C3045 1.404 . S
C3044 C3047 1.539 . S
C3045 C3041 1.408 . S
C3045 C3044 1.404 . S
C3045 H3057 0.930 . S
C3046 C3042 1.524 . S
C3046 H3058 0.956 . S
C3046 H3059 0.961 . S
C3046 H3060 0.961 . S
C3047 C3044 1.539 . S
C3047 H3061 0.958 . S
C3047 H3062 0.961 . S
C3047 H3063 0.960 . S
H3048 C3032 0.931 . S
H3049 C3037 0.929 . S
H3050 C3038 0.960 . S
H3051 C3038 0.962 . S
H3052 C3038 0.960 . S
H3053 C3039 0.961 . S
H3054 C3039 0.961 . S
H3055 C3039 0.961 . S
H3056 C3040 0.931 . S
H3057 C3045 0.930 . S
H3058 C3046 0.956 . S
H3059 C3046 0.961 . S
H3060 C3046 0.961 . S
H3061 C3047 0.958 . S
H3062 C3047 0.961 . S
H3063 C3047 0.960 . S
C3064 C3065 1.391 . S
C3064 C3066 1.410 1_565 S
C3064 H3080 0.931 1_565 S
C3065 C3064 1.391 . S
C3065 C3069 1.376 . S
C3066 C3064 1.410 1_545 S
C3066 C3067 1.328 1_545 S
C3066 C3070 1.557 . S
C3067 C3066 1.328 1_565 S
C3067 C3068 1.410 . S
C3067 C3075 1.503 . S
C3068 C3067 1.410 . S
C3068 C3069 1.392 . S
C3068 C3071 1.511 . S
C3069 C3065 1.376 . S
C3069 C3068 1.392 . S
C3069 H3081 0.929 . S
C3070 C3066 1.557 . S
C3070 H3082 0.960 . S
C3070 H3083 0.962 . S
C3070 H3084 0.960 . S
C3071 C3068 1.511 . S
C3071 H3085 0.961 . S
C3071 H3086 0.961 . S
C3071 H3087 0.961 . S
C3072 C3073 1.370 . S
C3072 C3074 1.363 . S
C3072 H3088 0.931 . S
C3073 C3072 1.370 . S
C3073 C3077 1.408 . S
C3074 C3072 1.363 . S
C3074 C3075 1.370 . S
C3074 C3078 1.524 . S
C3075 C3067 1.503 . S
C3075 C3074 1.370 . S
C3075 C3076 1.403 . S
C3076 C3075 1.403 . S
C3076 C3077 1.404 . S
C3076 C3079 1.539 . S
C3077 C3073 1.408 . S
C3077 C3076 1.404 . S
C3077 H3089 0.930 . S
C3078 C3074 1.524 . S
C3078 H3090 0.956 . S
C3078 H3091 0.961 . S
C3078 H3092 0.961 . S
C3079 C3076 1.539 . S
C3079 H3093 0.958 1_565 S
C3079 H3094 0.961 . S
C3079 H3095 0.960 . S
H3080 C3064 0.931 1_545 S
H3081 C3069 0.929 . S
H3082 C3070 0.960 . S
H3083 C3070 0.962 . S
H3084 C3070 0.960 . S
H3085 C3071 0.961 . S
H3086 C3071 0.961 . S
H3087 C3071 0.961 . S
H3088 C3072 0.931 . S
H3089 C3077 0.930 . S
H3090 C3078 0.956 . S
H3091 C3078 0.961 . S
H3092 C3078 0.961 . S
H3093 C3079 0.958 1_545 S
H3094 C3079 0.961 . S
H3095 C3079 0.960 . S
C3096 C3097 1.391 . S
C3096 C3098 1.394 . S
C3096 H3112 0.931 . S
C3097 C3096 1.391 . S
C3097 C3101 1.376 . S
C3098 C3096 1.394 . S
C3098 C3099 1.369 . S
C3098 C3102 1.531 . S
C3099 C3098 1.369 . S
C3099 C3100 1.410 . S
C3099 C3107 1.503 . S
C3100 C3099 1.410 . S
C3100 C3101 1.392 . S
C3100 C3103 1.511 . S
C3101 C3097 1.376 . S
C3101 C3100 1.392 . S
C3101 H3113 0.929 . S
C3102 C3098 1.531 . S
C3102 H3114 0.966 1_565 S
C3102 H3115 0.962 . S
C3102 H3116 0.960 . S
C3103 C3100 1.511 . S
C3103 H3117 0.961 . S
C3103 H3118 0.961 . S
C3103 H3119 0.961 . S
C3104 C3105 1.370 . S
C3104 C3106 1.363 . S
C3104 H3120 0.931 . S
C3105 C3104 1.370 . S
C3105 C3109 1.408 1_565 S
C3106 C3104 1.363 . S
C3106 C3107 1.370 . S
C3106 C3110 1.524 . S
C3107 C3099 1.503 . S
C3107 C3106 1.370 . S
C3107 C3108 1.403 1_565 S
C3108 C3107 1.403 1_545 S
C3108 C3109 1.404 . S
C3108 C3111 1.539 . S
C3109 C3105 1.408 1_545 S
C3109 C3108 1.404 . S
C3109 H3121 0.930 . S
C3110 C3106 1.524 . S
C3110 H3122 0.956 . S
C3110 H3123 0.961 . S
C3110 H3124 0.961 . S
C3111 C3108 1.539 . S
C3111 H3125 0.958 . S
C3111 H3126 0.961 . S
C3111 H3127 0.960 . S
H3112 C3096 0.931 . S
H3113 C3101 0.929 . S
H3114 C3102 0.966 1_545 S
H3115 C3102 0.962 . S
H3116 C3102 0.960 . S
H3117 C3103 0.961 . S
H3118 C3103 0.961 . S
H3119 C3103 0.961 . S
H3120 C3104 0.931 . S
H3121 C3109 0.930 . S
H3122 C3110 0.956 . S
H3123 C3110 0.961 . S
H3124 C3110 0.961 . S
H3125 C3111 0.958 . S
H3126 C3111 0.961 . S
H3127 C3111 0.960 . S
C3128 C3129 1.391 . S
C3128 C3130 1.394 . S
C3128 H3144 0.923 1_455 S
C3129 C3128 1.391 . S
C3129 C3133 1.376 . S
C3130 C3128 1.394 . S
C3130 C3131 1.369 . S
C3130 C3134 1.531 1_455 S
C3131 C3130 1.369 . S
C3131 C3132 1.410 . S
C3131 C3139 1.503 . S
C3132 C3131 1.410 . S
C3132 C3133 1.392 . S
C3132 C3135 1.511 . S
C3133 C3129 1.376 . S
C3133 C3132 1.392 . S
C3133 H3145 0.929 . S
C3134 C3130 1.531 1_655 S
C3134 H3146 0.960 . S
C3134 H3147 0.962 . S
C3134 H3148 0.960 . S
C3135 C3132 1.511 . S
C3135 H3149 0.961 . S
C3135 H3150 0.961 . S
C3135 H3151 0.961 . S
C3136 C3137 1.370 . S
C3136 C3138 1.363 . S
C3136 H3152 0.931 . S
C3137 C3136 1.370 . S
C3137 C3141 1.408 1_455 S
C3138 C3136 1.363 . S
C3138 C3139 1.370 . S
C3138 C3142 1.524 . S
C3139 C3131 1.503 . S
C3139 C3138 1.370 . S
C3139 C3140 1.385 1_455 S
C3140 C3139 1.385 1_655 S
C3140 C3141 1.389 . S
C3140 C3143 1.570 . S
C3141 C3137 1.408 1_655 S
C3141 C3140 1.389 . S
C3141 H3153 0.930 . S
C3142 C3138 1.524 . S
C3142 H3154 0.956 . S
C3142 H3155 0.961 . S
C3142 H3156 0.961 . S
C3143 C3140 1.570 . S
C3143 H3157 0.958 . S
C3143 H3158 0.961 . S
C3143 H3159 0.960 . S
H3144 C3128 0.923 1_655 S
H3145 C3133 0.929 . S
H3146 C3134 0.960 . S
H3147 C3134 0.962 . S
H3148 C3134 0.960 . S
H3149 C3135 0.961 . S
H3150 C3135 0.961 . S
H3151 C3135 0.961 . S
H3152 C3136 0.931 . S
H3153 C3141 0.930 . S
H3154 C3142 0.956 . S
H3155 C3142 0.961 . S
H3156 C3142 0.961 . S
H3157 C3143 0.958 . S
H3158 C3143 0.961 . S
H3159 C3143 0.960 . S
C3160 C3161 1.391 . S
C3160 C3162 1.394 . S
C3160 H3176 0.931 . S
C3161 C3160 1.391 . S
C3161 C3165 1.376 . S
C3162 C3160 1.394 . S
C3162 C3163 1.369 . S
C3162 C3166 1.531 . S
C3163 C3162 1.369 . S
C3163 C3164 1.410 . S
C3163 C3171 1.503 . S
C3164 C3163 1.410 . S
C3164 C3165 1.392 . S
C3164 C3167 1.511 . S
C3165 C3161 1.376 . S
C3165 C3164 1.392 . S
C3165 H3177 0.929 . S
C3166 C3162 1.531 . S
C3166 H3178 0.960 . S
C3166 H3179 0.962 . S
C3166 H3180 0.960 . S
C3167 C3164 1.511 . S
C3167 H3181 0.961 . S
C3167 H3182 0.961 . S
C3167 H3183 0.961 . S
C3168 C3169 1.370 . S
C3168 C3170 1.363 . S
C3168 H3184 0.931 . S
C3169 C3168 1.370 . S
C3169 C3173 1.408 . S
C3170 C3168 1.363 . S
C3170 C3171 1.370 . S
C3170 C3174 1.524 . S
C3171 C3163 1.503 . S
C3171 C3170 1.370 . S
C3171 C3172 1.403 . S
C3172 C3171 1.403 . S
C3172 C3173 1.404 . S
C3172 C3175 1.539 . S
C3173 C3169 1.408 . S
C3173 C3172 1.404 . S
C3173 H3185 0.930 . S
C3174 C3170 1.524 . S
C3174 H3186 0.956 . S
C3174 H3187 0.961 . S
C3174 H3188 0.961 . S
C3175 C3172 1.539 . S
C3175 H3189 0.958 . S
C3175 H3190 0.961 . S
C3175 H3191 0.960 . S
H3176 C3160 0.931 . S
H3177 C3165 0.929 . S
H3178 C3166 0.960 . S
H3179 C3166 0.962 . S
H3180 C3166 0.960 . S
H3181 C3167 0.961 . S
H3182 C3167 0.961 . S
H3183 C3167 0.961 . S
H3184 C3168 0.931 . S
H3185 C3173 0.930 . S
H3186 C3174 0.956 . S
H3187 C3174 0.961 . S
H3188 C3174 0.961 . S
H3189 C3175 0.958 . S
H3190 C3175 0.961 . S
H3191 C3175 0.960 . S
C3192 C3193 1.391 . S
C3192 C3194 1.394 . S
C3192 H3208 0.931 . S
C3193 C3192 1.391 . S
C3193 C3197 1.376 . S
C3194 C3192 1.394 . S
C3194 C3195 1.369 . S
C3194 C3198 1.531 . S
C3195 C3194 1.369 . S
C3195 C3196 1.410 . S
C3195 C3203 1.503 . S
C3196 C3195 1.410 . S
C3196 C3197 1.392 . S
C3196 C3199 1.511 . S
C3197 C3193 1.376 . S
C3197 C3196 1.392 . S
C3197 H3209 0.929 . S
C3198 C3194 1.531 . S
C3198 H3210 0.960 . S
C3198 H3211 0.962 . S
C3198 H3212 0.960 . S
C3199 C3196 1.511 . S
C3199 H3213 0.961 . S
C3199 H3214 0.961 . S
C3199 H3215 0.961 . S
C3200 C3201 1.370 . S
C3200 C3202 1.363 . S
C3200 H3216 0.931 . S
C3201 C3200 1.370 . S
C3201 C3205 1.408 . S
C3202 C3200 1.363 . S
C3202 C3203 1.370 . S
C3202 C3206 1.524 . S
C3203 C3195 1.503 . S
C3203 C3202 1.370 . S
C3203 C3204 1.403 . S
C3204 C3203 1.403 . S
C3204 C3205 1.404 . S
C3204 C3207 1.539 . S
C3205 C3201 1.408 . S
C3205 C3204 1.404 . S
C3205 H3217 0.930 . S
C3206 C3202 1.524 . S
C3206 H3218 0.956 . S
C3206 H3219 0.961 . S
C3206 H3220 0.961 . S
C3207 C3204 1.539 . S
C3207 H3221 0.958 . S
C3207 H3222 0.961 . S
C3207 H3223 0.960 . S
H3208 C3192 0.931 . S
H3209 C3197 0.929 . S
H3210 C3198 0.960 . S
H3211 C3198 0.962 . S
H3212 C3198 0.960 . S
H3213 C3199 0.961 . S
H3214 C3199 0.961 . S
H3215 C3199 0.961 . S
H3216 C3200 0.931 . S
H3217 C3205 0.930 . S
H3218 C3206 0.956 . S
H3219 C3206 0.961 . S
H3220 C3206 0.961 . S
H3221 C3207 0.958 . S
H3222 C3207 0.961 . S
H3223 C3207 0.960 . S
C3224 C3225 1.391 . S
C3224 C3226 1.394 . S
C3224 H3240 0.931 . S
C3225 C3224 1.391 . S
C3225 C3229 1.376 . S
C3226 C3224 1.394 . S
C3226 C3227 1.369 . S
C3226 C3230 1.531 . S
C3227 C3226 1.369 . S
C3227 C3228 1.410 . S
C3227 C3235 1.503 . S
C3228 C3227 1.410 . S
C3228 C3229 1.392 . S
C3228 C3231 1.511 . S
C3229 C3225 1.376 . S
C3229 C3228 1.392 . S
C3229 H3241 0.929 . S
C3230 C3226 1.531 . S
C3230 H3242 0.960 . S
C3230 H3243 0.962 . S
C3230 H3244 0.960 . S
C3231 C3228 1.511 . S
C3231 H3245 0.961 . S
C3231 H3246 0.961 . S
C3231 H3247 0.961 . S
C3232 C3233 1.370 . S
C3232 C3234 1.363 . S
C3232 H3248 0.931 . S
C3233 C3232 1.370 . S
C3233 C3237 1.408 . S
C3234 C3232 1.363 . S
C3234 C3235 1.370 . S
C3234 C3238 1.524 . S
C3235 C3227 1.503 . S
C3235 C3234 1.370 . S
C3235 C3236 1.403 . S
C3236 C3235 1.403 . S
C3236 C3237 1.404 . S
C3236 C3239 1.539 . S
C3237 C3233 1.408 . S
C3237 C3236 1.404 . S
C3237 H3249 0.930 . S
C3238 C3234 1.524 . S
C3238 H3250 0.956 . S
C3238 H3251 0.961 . S
C3238 H3252 0.961 . S
C3239 C3236 1.539 . S
C3239 H3253 0.958 . S
C3239 H3254 0.961 . S
C3239 H3255 0.960 . S
H3240 C3224 0.931 . S
H3241 C3229 0.929 . S
H3242 C3230 0.960 . S
H3243 C3230 0.962 . S
H3244 C3230 0.960 . S
H3245 C3231 0.961 . S
H3246 C3231 0.961 . S
H3247 C3231 0.961 . S
H3248 C3232 0.931 . S
H3249 C3237 0.930 . S
H3250 C3238 0.956 . S
H3251 C3238 0.961 . S
H3252 C3238 0.961 . S
H3253 C3239 0.958 . S
H3254 C3239 0.961 . S
H3255 C3239 0.960 . S
C3256 C3257 1.391 . S
C3256 C3258 1.394 . S
C3256 H3272 0.931 . S
C3257 C3256 1.391 . S
C3257 C3261 1.376 . S
C3258 C3256 1.394 . S
C3258 C3259 1.369 . S
C3258 C3262 1.531 . S
C3259 C3258 1.369 . S
C3259 C3260 1.410 . S
C3259 C3267 1.503 . S
C3260 C3259 1.410 . S
C3260 C3261 1.392 . S
C3260 C3263 1.511 . S
C3261 C3257 1.376 . S
C3261 C3260 1.392 . S
C3261 H3273 0.929 . S
C3262 C3258 1.531 . S
C3262 H3274 0.960 . S
C3262 H3275 0.962 . S
C3262 H3276 0.960 . S
C3263 C3260 1.511 . S
C3263 H3277 0.961 . S
C3263 H3278 0.961 . S
C3263 H3279 0.961 . S
C3264 C3265 1.370 . S
C3264 C3266 1.363 . S
C3264 H3280 0.931 . S
C3265 C3264 1.370 . S
C3265 C3269 1.408 . S
C3266 C3264 1.363 . S
C3266 C3267 1.370 . S
C3266 C3270 1.524 . S
C3267 C3259 1.503 . S
C3267 C3266 1.370 . S
C3267 C3268 1.403 . S
C3268 C3267 1.403 . S
C3268 C3269 1.404 . S
C3268 C3271 1.539 . S
C3269 C3265 1.408 . S
C3269 C3268 1.404 . S
C3269 H3281 0.930 . S
C3270 C3266 1.524 . S
C3270 H3282 0.956 . S
C3270 H3283 0.961 . S
C3270 H3284 0.961 . S
C3271 C3268 1.539 . S
C3271 H3285 0.958 . S
C3271 H3286 0.961 . S
C3271 H3287 0.960 . S
H3272 C3256 0.931 . S
H3273 C3261 0.929 . S
H3274 C3262 0.960 . S
H3275 C3262 0.962 . S
H3276 C3262 0.960 . S
H3277 C3263 0.961 . S
H3278 C3263 0.961 . S
H3279 C3263 0.961 . S
H3280 C3264 0.931 . S
H3281 C3269 0.930 . S
H3282 C3270 0.956 . S
H3283 C3270 0.961 . S
H3284 C3270 0.961 . S
H3285 C3271 0.958 . S
H3286 C3271 0.961 . S
H3287 C3271 0.960 . S
C3288 C3289 1.391 . S
C3288 C3290 1.394 . S
C3288 H3304 0.931 . S
C3289 C3288 1.391 . S
C3289 C3293 1.376 . S
C3290 C3288 1.394 . S
C3290 C3291 1.369 . S
C3290 C3294 1.531 . S
C3291 C3290 1.369 . S
C3291 C3292 1.410 . S
C3291 C3299 1.503 . S
C3292 C3291 1.410 . S
C3292 C3293 1.392 . S
C3292 C3295 1.511 . S
C3293 C3289 1.376 . S
C3293 C3292 1.392 . S
C3293 H3305 0.929 . S
C3294 C3290 1.531 . S
C3294 H3306 0.960 . S
C3294 H3307 0.962 . S
C3294 H3308 0.960 . S
C3295 C3292 1.511 . S
C3295 H3309 0.961 . S
C3295 H3310 0.961 . S
C3295 H3311 0.961 . S
C3296 C3297 1.370 1_565 S
C3296 C3298 1.364 . S
C3296 H3312 0.931 . S
C3297 C3296 1.370 1_545 S
C3297 C3301 1.408 . S
C3298 C3296 1.364 . S
C3298 C3299 1.369 1_565 S
C3298 C3302 1.525 . S
C3299 C3291 1.503 . S
C3299 C3298 1.369 1_545 S
C3299 C3300 1.403 . S
C3300 C3299 1.403 . S
C3300 C3301 1.404 . S
C3300 C3303 1.539 . S
C3301 C3297 1.408 . S
C3301 C3300 1.404 . S
C3301 H3313 0.930 . S
C3302 C3298 1.525 . S
C3302 H3314 0.956 . S
C3302 H3315 0.961 . S
C3302 H3316 0.961 . S
C3303 C3300 1.539 . S
C3303 H3317 0.958 . S
C3303 H3318 0.961 . S
C3303 H3319 0.960 . S
H3304 C3288 0.931 . S
H3305 C3293 0.929 . S
H3306 C3294 0.960 . S
H3307 C3294 0.962 . S
H3308 C3294 0.960 . S
H3309 C3295 0.961 . S
H3310 C3295 0.961 . S
H3311 C3295 0.961 . S
H3312 C3296 0.931 . S
H3313 C3301 0.930 . S
H3314 C3302 0.956 . S
H3315 C3302 0.961 . S
H3316 C3302 0.961 . S
H3317 C3303 0.958 . S
H3318 C3303 0.961 . S
H3319 C3303 0.960 . S
C3320 C3321 1.391 . S
C3320 C3322 1.394 . S
C3320 H3336 0.931 . S
C3321 C3320 1.391 . S
C3321 C3325 1.376 . S
C3322 C3320 1.394 . S
C3322 C3323 1.369 . S
C3322 C3326 1.531 1_655 S
C3323 C3322 1.369 . S
C3323 C3324 1.410 . S
C3323 C3331 1.503 . S
C3324 C3323 1.410 . S
C3324 C3325 1.392 . S
C3324 C3327 1.511 . S
C3325 C3321 1.376 . S
C3325 C3324 1.392 . S
C3325 H3337 0.929 . S
C3326 C3322 1.531 1_455 S
C3326 H3338 0.960 . S
C3326 H3339 0.962 1_455 S
C3326 H3340 0.960 . S
C3327 C3324 1.511 . S
C3327 H3341 0.961 . S
C3327 H3342 0.961 . S
C3327 H3343 0.961 . S
C3328 C3329 1.370 . S
C3328 C3330 1.363 . S
C3328 H3344 0.931 . S
C3329 C3328 1.370 . S
C3329 C3333 1.408 1_655 S
C3330 C3328 1.363 . S
C3330 C3331 1.370 . S
C3330 C3334 1.524 . S
C3331 C3323 1.503 . S
C3331 C3330 1.370 . S
C3331 C3332 1.403 1_655 S
C3332 C3331 1.403 1_455 S
C3332 C3333 1.404 . S
C3332 C3335 1.539 . S
C3333 C3329 1.408 1_455 S
C3333 C3332 1.404 . S
C3333 H3345 0.930 . S
C3334 C3330 1.524 . S
C3334 H3346 0.956 . S
C3334 H3347 0.961 . S
C3334 H3348 0.961 . S
C3335 C3332 1.539 . S
C3335 H3349 0.958 . S
C3335 H3350 0.961 . S
C3335 H3351 0.960 . S
H3336 C3320 0.931 . S
H3337 C3325 0.929 . S
H3338 C3326 0.960 . S
H3339 C3326 0.962 1_655 S
H3340 C3326 0.960 . S
H3341 C3327 0.961 . S
H3342 C3327 0.961 . S
H3343 C3327 0.961 . S
H3344 C3328 0.931 . S
H3345 C3333 0.930 . S
H3346 C3334 0.956 . S
H3347 C3334 0.961 . S
H3348 C3334 0.961 . S
H3349 C3335 0.958 . S
H3350 C3335 0.961 . S
H3351 C3335 0.960 . S
C3352 C3353 1.391 . S
C3352 C3354 1.394 . S
C3352 H3368 0.931 . S
C3353 C3352 1.391 . S
C3353 C3357 1.376 . S
C3354 C3352 1.394 . S
C3354 C3355 1.369 . S
C3354 C3358 1.531 . S
C3355 C3354 1.369 . S
C3355 C3356 1.410 . S
C3355 C3363 1.503 . S
C3356 C3355 1.410 . S
C3356 C3357 1.392 . S
C3356 C3359 1.511 . S
C3357 C3353 1.376 . S
C3357 C3356 1.392 . S
C3357 H3369 0.929 . S
C3358 C3354 1.531 . S
C3358 H3370 0.960 . S
C3358 H3371 0.962 . S
C3358 H3372 0.960 . S
C3359 C3356 1.511 . S
C3359 H3373 0.961 . S
C3359 H3374 0.961 . S
C3359 H3375 0.961 . S
C3360 C3361 1.370 . S
C3360 C3362 1.363 . S
C3360 H3376 0.931 . S
C3361 C3360 1.370 . S
C3361 C3365 1.408 . S
C3362 C3360 1.363 . S
C3362 C3363 1.370 . S
C3362 C3366 1.524 . S
C3363 C3355 1.503 . S
C3363 C3362 1.370 . S
C3363 C3364 1.403 . S
C3364 C3363 1.403 . S
C3364 C3365 1.404 . S
C3364 C3367 1.539 . S
C3365 C3361 1.408 . S
C3365 C3364 1.404 . S
C3365 H3377 0.930 . S
C3366 C3362 1.524 . S
C3366 H3378 0.956 . S
C3366 H3379 0.961 . S
C3366 H3380 0.961 . S
C3367 C3364 1.539 . S
C3367 H3381 0.958 . S
C3367 H3382 0.961 . S
C3367 H3383 0.960 . S
H3368 C3352 0.931 . S
H3369 C3357 0.929 . S
H3370 C3358 0.960 . S
H3371 C3358 0.962 . S
H3372 C3358 0.960 . S
H3373 C3359 0.961 . S
H3374 C3359 0.961 . S
H3375 C3359 0.961 . S
H3376 C3360 0.931 . S
H3377 C3365 0.930 . S
H3378 C3366 0.956 . S
H3379 C3366 0.961 . S
H3380 C3366 0.961 . S
H3381 C3367 0.958 . S
H3382 C3367 0.961 . S
H3383 C3367 0.960 . S
C3384 C3385 1.391 . S
C3384 C3386 1.394 . S
C3384 H3400 0.931 . S
C3385 C3384 1.391 . S
C3385 C3389 1.376 . S
C3386 C3384 1.394 . S
C3386 C3387 1.369 . S
C3386 C3390 1.531 . S
C3387 C3386 1.369 . S
C3387 C3388 1.410 . S
C3387 C3395 1.503 . S
C3388 C3387 1.410 . S
C3388 C3389 1.392 . S
C3388 C3391 1.511 . S
C3389 C3385 1.376 . S
C3389 C3388 1.392 . S
C3389 H3401 0.929 . S
C3390 C3386 1.531 . S
C3390 H3402 0.960 . S
C3390 H3403 0.962 . S
C3390 H3404 0.960 . S
C3391 C3388 1.511 . S
C3391 H3405 0.961 . S
C3391 H3406 0.961 . S
C3391 H3407 0.961 . S
C3392 C3393 1.370 . S
C3392 C3394 1.363 . S
C3392 H3408 0.931 . S
C3393 C3392 1.370 . S
C3393 C3397 1.408 . S
C3394 C3392 1.363 . S
C3394 C3395 1.370 . S
C3394 C3398 1.524 . S
C3395 C3387 1.503 . S
C3395 C3394 1.370 . S
C3395 C3396 1.403 . S
C3396 C3395 1.403 . S
C3396 C3397 1.404 . S
C3396 C3399 1.539 . S
C3397 C3393 1.408 . S
C3397 C3396 1.404 . S
C3397 H3409 0.930 . S
C3398 C3394 1.524 . S
C3398 H3410 0.956 . S
C3398 H3411 0.961 . S
C3398 H3412 0.961 . S
C3399 C3396 1.539 . S
C3399 H3413 0.958 . S
C3399 H3414 0.961 . S
C3399 H3415 0.960 . S
H3400 C3384 0.931 . S
H3401 C3389 0.929 . S
H3402 C3390 0.960 . S
H3403 C3390 0.962 . S
H3404 C3390 0.960 . S
H3405 C3391 0.961 . S
H3406 C3391 0.961 . S
H3407 C3391 0.961 . S
H3408 C3392 0.931 . S
H3409 C3397 0.930 . S
H3410 C3398 0.956 . S
H3411 C3398 0.961 . S
H3412 C3398 0.961 . S
H3413 C3399 0.958 . S
H3414 C3399 0.961 . S
H3415 C3399 0.960 . S
C3416 C3417 1.391 . S
C3416 C3418 1.394 . S
C3416 H3432 0.931 . S
C3417 C3416 1.391 . S
C3417 C3421 1.376 . S
C3418 C3416 1.394 . S
C3418 C3419 1.369 . S
C3418 C3422 1.531 . S
C3419 C3418 1.369 . S
C3419 C3420 1.410 . S
C3419 C3427 1.503 . S
C3420 C3419 1.410 . S
C3420 C3421 1.392 . S
C3420 C3423 1.511 . S
C3421 C3417 1.376 . S
C3421 C3420 1.392 . S
C3421 H3433 0.929 . S
C3422 C3418 1.531 . S
C3422 H3434 0.960 . S
C3422 H3435 0.962 . S
C3422 H3436 0.960 . S
C3423 C3420 1.511 . S
C3423 H3437 0.961 . S
C3423 H3438 0.961 . S
C3423 H3439 0.961 . S
C3424 C3425 1.370 . S
C3424 C3426 1.363 . S
C3424 H3440 0.931 . S
C3425 C3424 1.370 . S
C3425 C3429 1.408 . S
C3426 C3424 1.363 . S
C3426 C3427 1.370 . S
C3426 C3430 1.524 . S
C3427 C3419 1.503 . S
C3427 C3426 1.370 . S
C3427 C3428 1.403 . S
C3428 C3427 1.403 . S
C3428 C3429 1.404 . S
C3428 C3431 1.539 . S
C3429 C3425 1.408 . S
C3429 C3428 1.404 . S
C3429 H3441 0.930 . S
C3430 C3426 1.524 . S
C3430 H3442 0.956 . S
C3430 H3443 0.961 . S
C3430 H3444 0.961 . S
C3431 C3428 1.539 . S
C3431 H3445 0.958 . S
C3431 H3446 0.961 . S
C3431 H3447 0.960 . S
H3432 C3416 0.931 . S
H3433 C3421 0.929 . S
H3434 C3422 0.960 . S
H3435 C3422 0.962 . S
H3436 C3422 0.960 . S
H3437 C3423 0.961 . S
H3438 C3423 0.961 . S
H3439 C3423 0.961 . S
H3440 C3424 0.931 . S
H3441 C3429 0.930 . S
H3442 C3430 0.956 . S
H3443 C3430 0.961 . S
H3444 C3430 0.961 . S
H3445 C3431 0.958 . S
H3446 C3431 0.961 . S
H3447 C3431 0.960 . S
C3448 C3449 1.391 . S
C3448 C3450 1.394 . S
C3448 H3464 0.931 . S
C3449 C3448 1.391 . S
C3449 C3453 1.376 . S
C3450 C3448 1.394 . S
C3450 C3451 1.369 . S
C3450 C3454 1.531 . S
C3451 C3450 1.369 . S
C3451 C3452 1.410 . S
C3451 C3459 1.503 . S
C3452 C3451 1.410 . S
C3452 C3453 1.392 . S
C3452 C3455 1.511 . S
C3453 C3449 1.376 . S
C3453 C3452 1.392 . S
C3453 H3465 0.929 . S
C3454 C3450 1.531 . S
C3454 H3466 0.960 . S
C3454 H3467 0.962 . S
C3454 H3468 0.960 . S
C3455 C3452 1.511 . S
C3455 H3469 0.961 . S
C3455 H3470 0.961 . S
C3455 H3471 0.961 . S
C3456 C3457 1.370 . S
C3456 C3458 1.363 . S
C3456 H3472 0.931 . S
C3457 C3456 1.370 . S
C3457 C3461 1.408 . S
C3458 C3456 1.363 . S
C3458 C3459 1.370 . S
C3458 C3462 1.524 . S
C3459 C3451 1.503 . S
C3459 C3458 1.370 . S
C3459 C3460 1.403 . S
C3460 C3459 1.403 . S
C3460 C3461 1.404 . S
C3460 C3463 1.539 . S
C3461 C3457 1.408 . S
C3461 C3460 1.404 . S
C3461 H3473 0.930 . S
C3462 C3458 1.524 . S
C3462 H3474 0.956 . S
C3462 H3475 0.961 . S
C3462 H3476 0.961 . S
C3463 C3460 1.539 . S
C3463 H3477 0.958 . S
C3463 H3478 0.961 . S
C3463 H3479 0.960 . S
H3464 C3448 0.931 . S
H3465 C3453 0.929 . S
H3466 C3454 0.960 . S
H3467 C3454 0.962 . S
H3468 C3454 0.960 . S
H3469 C3455 0.961 . S
H3470 C3455 0.961 . S
H3471 C3455 0.961 . S
H3472 C3456 0.931 . S
H3473 C3461 0.930 . S
H3474 C3462 0.956 . S
H3475 C3462 0.961 . S
H3476 C3462 0.961 . S
H3477 C3463 0.958 . S
H3478 C3463 0.961 . S
H3479 C3463 0.960 . S
C3480 C3481 1.391 . S
C3480 C3482 1.394 . S
C3480 H3496 0.931 . S
C3481 C3480 1.391 . S
C3481 C3485 1.376 . S
C3482 C3480 1.394 . S
C3482 C3483 1.369 . S
C3482 C3486 1.531 . S
C3483 C3482 1.369 . S
C3483 C3484 1.410 . S
C3483 C3491 1.503 . S
C3484 C3483 1.410 . S
C3484 C3485 1.392 . S
C3484 C3487 1.511 . S
C3485 C3481 1.376 . S
C3485 C3484 1.392 . S
C3485 H3497 0.929 . S
C3486 C3482 1.531 . S
C3486 H3498 0.960 . S
C3486 H3499 0.962 . S
C3486 H3500 0.960 . S
C3487 C3484 1.511 . S
C3487 H3501 0.961 . S
C3487 H3502 0.961 . S
C3487 H3503 0.961 . S
C3488 C3489 1.370 . S
C3488 C3490 1.363 . S
C3488 H3504 0.931 . S
C3489 C3488 1.370 . S
C3489 C3493 1.408 . S
C3490 C3488 1.363 . S
C3490 C3491 1.370 . S
C3490 C3494 1.524 . S
C3491 C3483 1.503 . S
C3491 C3490 1.370 . S
C3491 C3492 1.403 . S
C3492 C3491 1.403 . S
C3492 C3493 1.404 . S
C3492 C3495 1.539 . S
C3493 C3489 1.408 . S
C3493 C3492 1.404 . S
C3493 H3505 0.930 . S
C3494 C3490 1.524 . S
C3494 H3506 0.956 . S
C3494 H3507 0.961 . S
C3494 H3508 0.961 . S
C3495 C3492 1.539 . S
C3495 H3509 0.958 . S
C3495 H3510 0.961 . S
C3495 H3511 0.960 . S
H3496 C3480 0.931 . S
H3497 C3485 0.929 . S
H3498 C3486 0.960 . S
H3499 C3486 0.962 . S
H3500 C3486 0.960 . S
H3501 C3487 0.961 . S
H3502 C3487 0.961 . S
H3503 C3487 0.961 . S
H3504 C3488 0.931 . S
H3505 C3493 0.930 . S
H3506 C3494 0.956 . S
H3507 C3494 0.961 . S
H3508 C3494 0.961 . S
H3509 C3495 0.958 . S
H3510 C3495 0.961 . S
H3511 C3495 0.960 . S
C3512 C3513 1.391 . S
C3512 C3514 1.394 . S
C3512 H3528 0.931 . S
C3513 C3512 1.391 . S
C3513 C3517 1.376 . S
C3514 C3512 1.394 . S
C3514 C3515 1.369 . S
C3514 C3518 1.531 . S
C3515 C3514 1.369 . S
C3515 C3516 1.410 . S
C3515 C3523 1.503 . S
C3516 C3515 1.410 . S
C3516 C3517 1.392 . S
C3516 C3519 1.511 . S
C3517 C3513 1.376 . S
C3517 C3516 1.392 . S
C3517 H3529 0.929 . S
C3518 C3514 1.531 . S
C3518 H3530 0.960 . S
C3518 H3531 0.962 . S
C3518 H3532 0.960 . S
C3519 C3516 1.511 . S
C3519 H3533 0.961 . S
C3519 H3534 0.961 . S
C3519 H3535 0.961 . S
C3520 C3521 1.370 . S
C3520 C3522 1.363 . S
C3520 H3536 0.931 . S
C3521 C3520 1.370 . S
C3521 C3525 1.408 . S
C3522 C3520 1.363 . S
C3522 C3523 1.370 . S
C3522 C3526 1.524 . S
C3523 C3515 1.503 . S
C3523 C3522 1.370 . S
C3523 C3524 1.403 . S
C3524 C3523 1.403 . S
C3524 C3525 1.404 . S
C3524 C3527 1.539 . S
C3525 C3521 1.408 . S
C3525 C3524 1.404 . S
C3525 H3537 0.930 . S
C3526 C3522 1.524 . S
C3526 H3538 0.956 . S
C3526 H3539 0.961 . S
C3526 H3540 0.961 . S
C3527 C3524 1.539 . S
C3527 H3541 0.958 . S
C3527 H3542 0.961 . S
C3527 H3543 0.960 . S
H3528 C3512 0.931 . S
H3529 C3517 0.929 . S
H3530 C3518 0.960 . S
H3531 C3518 0.962 . S
H3532 C3518 0.960 . S
H3533 C3519 0.961 . S
H3534 C3519 0.961 . S
H3535 C3519 0.961 . S
H3536 C3520 0.931 . S
H3537 C3525 0.930 . S
H3538 C3526 0.956 . S
H3539 C3526 0.961 . S
H3540 C3526 0.961 . S
H3541 C3527 0.958 . S
H3542 C3527 0.961 . S
H3543 C3527 0.960 . S
C3544 C3545 1.391 . S
C3544 C3546 1.394 . S
C3544 H3560 0.931 . S
C3545 C3544 1.391 . S
C3545 C3549 1.376 . S
C3546 C3544 1.394 . S
C3546 C3547 1.369 . S
C3546 C3550 1.531 . S
C3547 C3546 1.369 . S
C3547 C3548 1.410 . S
C3547 C3555 1.503 . S
C3548 C3547 1.410 . S
C3548 C3549 1.392 . S
C3548 C3551 1.511 . S
C3549 C3545 1.376 . S
C3549 C3548 1.392 . S
C3549 H3561 0.929 . S
C3550 C3546 1.531 . S
C3550 H3562 0.960 . S
C3550 H3563 0.962 . S
C3550 H3564 0.960 . S
C3551 C3548 1.511 . S
C3551 H3565 0.961 . S
C3551 H3566 0.961 . S
C3551 H3567 0.961 . S
C3552 C3553 1.370 . S
C3552 C3554 1.363 . S
C3552 H3568 0.931 . S
C3553 C3552 1.370 . S
C3553 C3557 1.408 . S
C3554 C3552 1.363 . S
C3554 C3555 1.370 . S
C3554 C3558 1.524 . S
C3555 C3547 1.503 . S
C3555 C3554 1.370 . S
C3555 C3556 1.403 . S
C3556 C3555 1.403 . S
C3556 C3557 1.404 . S
C3556 C3559 1.539 . S
C3557 C3553 1.408 . S
C3557 C3556 1.404 . S
C3557 H3569 0.930 . S
C3558 C3554 1.524 . S
C3558 H3570 0.956 . S
C3558 H3571 0.961 . S
C3558 H3572 0.961 . S
C3559 C3556 1.539 . S
C3559 H3573 0.958 . S
C3559 H3574 0.961 . S
C3559 H3575 0.960 . S
H3560 C3544 0.931 . S
H3561 C3549 0.929 . S
H3562 C3550 0.960 . S
H3563 C3550 0.962 . S
H3564 C3550 0.960 . S
H3565 C3551 0.961 . S
H3566 C3551 0.961 . S
H3567 C3551 0.961 . S
H3568 C3552 0.931 . S
H3569 C3557 0.930 . S
H3570 C3558 0.956 . S
H3571 C3558 0.961 . S
H3572 C3558 0.961 . S
H3573 C3559 0.958 . S
H3574 C3559 0.961 . S
H3575 C3559 0.960 . S
C3576 C3577 1.391 . S
C3576 C3578 1.394 . S
C3576 H3592 0.931 . S
C3577 C3576 1.391 . S
C3577 C3581 1.376 . S
C3578 C3576 1.394 . S
C3578 C3579 1.369 . S
C3578 C3582 1.531 . S
C3579 C3578 1.369 . S
C3579 C3580 1.410 . S
C3579 C3587 1.503 . S
C3580 C3579 1.410 . S
C3580 C3581 1.392 . S
C3580 C3583 1.511 1_655 S
C3581 C3577 1.376 . S
C3581 C3580 1.392 . S
C3581 H3593 0.949 . S
C3582 C3578 1.531 . S
C3582 H3594 0.960 . S
C3582 H3595 0.962 . S
C3582 H3596 0.960 . S
C3583 C3580 1.511 1_455 S
C3583 H3597 0.961 . S
C3583 H3598 0.961 . S
C3583 H3599 0.961 . S
C3584 C3585 1.371 1_455 S
C3584 C3586 1.351 1_455 S
C3584 H3600 0.943 . S
C3585 C3584 1.371 1_655 S
C3585 C3589 1.408 . S
C3586 C3584 1.351 1_655 S
C3586 C3587 1.370 . S
C3586 C3590 1.524 1_655 S
C3587 C3579 1.503 . S
C3587 C3586 1.370 . S
C3587 C3588 1.403 . S
C3588 C3587 1.403 . S
C3588 C3589 1.404 . S
C3588 C3591 1.539 . S
C3589 C3585 1.408 . S
C3589 C3588 1.404 . S
C3589 H3601 0.930 . S
C3590 C3586 1.524 1_455 S
C3590 H3602 0.924 1_455 S
C3590 H3603 0.961 . S
C3590 H3604 0.961 . S
C3591 C3588 1.539 . S
C3591 H3605 0.958 . S
C3591 H3606 0.961 . S
C3591 H3607 0.960 . S
H3592 C3576 0.931 . S
H3593 C3581 0.949 . S
H3594 C3582 0.960 . S
H3595 C3582 0.962 . S
H3596 C3582 0.960 . S
H3597 C3583 0.961 . S
H3598 C3583 0.961 . S
H3599 C3583 0.961 . S
H3600 C3584 0.943 . S
H3601 C3589 0.930 . S
H3602 C3590 0.924 1_655 S
H3603 C3590 0.961 . S
H3604 C3590 0.961 . S
H3605 C3591 0.958 . S
H3606 C3591 0.961 . S
H3607 C3591 0.960 . S
C3608 C3609 1.391 . S
C3608 C3610 1.394 . S
C3608 H3624 0.931 . S
C3609 C3608 1.391 . S
C3609 C3613 1.376 . S
C3610 C3608 1.394 . S
C3610 C3611 1.369 . S
C3610 C3614 1.531 . S
C3611 C3610 1.369 . S
C3611 C3612 1.410 . S
C3611 C3619 1.503 . S
C3612 C3611 1.410 . S
C3612 C3613 1.392 . S
C3612 C3615 1.511 . S
C3613 C3609 1.376 . S
C3613 C3612 1.392 . S
C3613 H3625 0.929 . S
C3614 C3610 1.531 . S
C3614 H3626 0.960 . S
C3614 H3627 0.962 . S
C3614 H3628 0.960 . S
C3615 C3612 1.511 . S
C3615 H3629 0.961 . S
C3615 H3630 0.961 . S
C3615 H3631 0.961 . S
C3616 C3617 1.370 . S
C3616 C3618 1.363 . S
C3616 H3632 0.931 . S
C3617 C3616 1.370 . S
C3617 C3621 1.408 . S
C3618 C3616 1.363 . S
C3618 C3619 1.370 . S
C3618 C3622 1.524 . S
C3619 C3611 1.503 . S
C3619 C3618 1.370 . S
C3619 C3620 1.403 . S
C3620 C3619 1.403 . S
C3620 C3621 1.404 . S
C3620 C3623 1.539 . S
C3621 C3617 1.408 . S
C3621 C3620 1.404 . S
C3621 H3633 0.930 . S
C3622 C3618 1.524 . S
C3622 H3634 0.956 . S
C3622 H3635 0.961 . S
C3622 H3636 0.961 . S
C3623 C3620 1.539 . S
C3623 H3637 0.958 . S
C3623 H3638 0.961 . S
C3623 H3639 0.960 . S
H3624 C3608 0.931 . S
H3625 C3613 0.929 . S
H3626 C3614 0.960 . S
H3627 C3614 0.962 . S
H3628 C3614 0.960 . S
H3629 C3615 0.961 . S
H3630 C3615 0.961 . S
H3631 C3615 0.961 . S
H3632 C3616 0.931 . S
H3633 C3621 0.930 . S
H3634 C3622 0.956 . S
H3635 C3622 0.961 . S
H3636 C3622 0.961 . S
H3637 C3623 0.958 . S
H3638 C3623 0.961 . S
H3639 C3623 0.960 . S
C3640 C3641 1.391 . S
C3640 C3642 1.394 . S
C3640 H3656 0.931 . S
C3641 C3640 1.391 . S
C3641 C3645 1.376 . S
C3642 C3640 1.394 . S
C3642 C3643 1.369 . S
C3642 C3646 1.531 . S
C3643 C3642 1.369 . S
C3643 C3644 1.410 . S
C3643 C3651 1.503 . S
C3644 C3643 1.410 . S
C3644 C3645 1.392 . S
C3644 C3647 1.511 . S
C3645 C3641 1.376 . S
C3645 C3644 1.392 . S
C3645 H3657 0.929 . S
C3646 C3642 1.531 . S
C3646 H3658 0.960 . S
C3646 H3659 0.962 . S
C3646 H3660 0.960 . S
C3647 C3644 1.511 . S
C3647 H3661 0.961 . S
C3647 H3662 0.961 . S
C3647 H3663 0.961 . S
C3648 C3649 1.370 1_565 S
C3648 C3650 1.360 . S
C3648 H3664 0.931 . S
C3649 C3648 1.370 1_545 S
C3649 C3653 1.408 . S
C3650 C3648 1.360 . S
C3650 C3651 1.363 1_565 S
C3650 C3654 1.535 . S
C3651 C3643 1.503 . S
C3651 C3650 1.363 1_545 S
C3651 C3652 1.403 . S
C3652 C3651 1.403 . S
C3652 C3653 1.404 . S
C3652 C3655 1.539 . S
C3653 C3649 1.408 . S
C3653 C3652 1.404 . S
C3653 H3665 0.930 . S
C3654 C3650 1.535 . S
C3654 H3666 0.956 . S
C3654 H3667 0.961 . S
C3654 H3668 0.961 . S
C3655 C3652 1.539 . S
C3655 H3669 0.958 . S
C3655 H3670 0.961 . S
C3655 H3671 0.960 . S
H3656 C3640 0.931 . S
H3657 C3645 0.929 . S
H3658 C3646 0.960 . S
H3659 C3646 0.962 . S
H3660 C3646 0.960 . S
H3661 C3647 0.961 . S
H3662 C3647 0.961 . S
H3663 C3647 0.961 . S
H3664 C3648 0.931 . S
H3665 C3653 0.930 . S
H3666 C3654 0.956 . S
H3667 C3654 0.961 . S
H3668 C3654 0.961 . S
H3669 C3655 0.958 . S
H3670 C3655 0.961 . S
H3671 C3655 0.960 . S
C1369 C9 1.584 1_655 S
C1377 C857 1.506 . S
C1401 C19 1.608 . S
C1409 C901 1.553 . S
C1441 C981 1.550 . S
C1433 C33 1.615 . S
C1465 C37 1.586 . S
C1473 C1025 1.548 . S
C1497 C5 1.573 . S
C1505 C1105 1.504 . S
C1529 C23 1.635 . S
C1537 C1167 1.572 . S
C1561 C47 1.579 . S
C1569 C1087 1.534 . S
C1601 C1149 1.565 . S
C1593 C65 1.651 . S
C1633 C1043 1.534 . S
C1625 C75 1.577 . S
C1657 C79 1.535 . S
C1665 C963 1.469 . S
C1697 C839 1.543 . S
C1689 C51 1.615 1_655 S
C1721 C61 1.624 . S
C1729 C919 1.584 . S
C1753 C93 1.692 . S
C1761 C1229 1.618 . S
C1785 C103 1.642 . S
C1793 C1273 1.613 . S
C1825 C1353 1.596 . S
C1817 C117 1.685 . S
C1849 C121 1.663 . S
C1857 C299 1.572 . S
C1881 C89 1.655 . S
C1889 C343 1.629 . S
C1913 C107 1.669 . S
C1921 C423 1.582 . S
C1945 C131 1.644 . S
C1953 C361 1.615 . S
C1977 C149 1.672 . S
C1985 C405 1.601 . S
C2017 C281 1.565 . S
C2009 C159 1.646 . S
C2049 C1335 1.573 . S
C2041 C163 1.660 . S
C2081 C1211 1.611 . S
C2073 C135 1.705 . S
C2113 C1291 1.632 . S
C2105 C145 1.665 . S
C2137 C177 1.662 . S
C2145 C485 1.576 . S
C2169 C187 1.625 . S
C2177 C547 1.555 . S
C2201 C201 1.678 . S
C2209 C591 1.641 . S
C2233 C205 1.697 . S
C2241 C653 1.661 . S
C2273 C715 1.615 . S
C2265 C173 1.659 . S
C2305 C795 1.592 . S
C2297 C191 1.684 . S
C2337 C733 1.653 . S
C2329 C215 1.692 . S
C2369 C777 1.621 . S
C2361 C233 1.695 . S
C2393 C243 1.648 . S
C2401 C671 1.590 . S
C2433 C609 1.568 . S
C2425 C247 1.616 . S
C2457 C219 1.706 . S
C2465 C467 1.611 . S
C2497 C529 1.585 . S
C2489 C229 1.663 . S
C2529 C305 1.458 . S
C2521 C11 1.538 . S
C2553 C14 1.532 . S
C2561 C349 1.461 . S
C2593 C429 1.540 . S
C2585 C28 1.611 . S
C2625 C491 1.514 . S
C2617 C39 1.600 . S
C2657 C553 1.471 . S
C2649 C0 1.530 1_556 S
C2689 C597 1.446 . S
C2681 C25 1.484 . S
C2713 C42 1.606 . S
C2721 C615 1.556 . S
C2745 C67 1.537 . S
C2753 C473 1.456 . S
C2777 C70 1.505 1_556 S
C2785 C535 1.417 . S
C2809 C81 1.540 . S
C2817 C367 1.486 . S
C2849 C411 1.490 . S
C2841 C53 1.579 . S
C2873 C56 1.558 . S
C2881 C287 1.467 . S
C2913 C659 1.464 . S
C2905 C95 1.538 . S
C2937 C98 1.587 . S
C2945 C721 1.514 . S
C2969 C112 1.646 1_655 S
C2977 C801 1.561 . S
C3009 C863 1.427 . S
C3001 C123 1.489 . S
C3033 C84 1.550 . S
C3041 C907 1.478 . S
C3065 C109 1.418 . S
C3073 C987 1.388 . S
C3097 C126 1.519 . S
C3105 C969 1.448 . S
C3129 C151 1.470 . S
C3137 C845 1.402 . S
C3169 C925 1.465 . S
C3161 C154 1.510 . S
C3193 C165 1.515 . S
C3201 C739 1.475 . S
C3225 C137 1.610 . S
C3233 C783 1.517 . S
C3265 C677 1.553 . S
C3257 C140 1.613 1_655 S
C3297 C1031 1.408 . S
C3289 C179 1.449 . S
C3321 C182 1.467 . S
C3329 C1111 1.420 . S
C3353 C196 1.601 . S
C3361 C1173 1.537 . S
C3393 C1235 1.523 . S
C3385 C207 1.594 . S
C3425 C1279 1.516 . S
C3417 C168 1.592 1_565 S
C3449 C193 1.559 . S
C3457 C1359 1.475 . S
C3481 C210 1.601 . S
C3489 C1341 1.542 . S
C3513 C235 1.599 . S
C3521 C1217 1.508 . S
C3553 C1297 1.515 . S
C3545 C238 1.624 . S
C3585 C1093 1.380 . S
C3577 C249 1.406 . S
C3617 C1155 1.504 . S
C3609 C221 1.560 . S
C3641 C224 1.484 . S
C3649 C1049 1.455 . S
