# Generated by pormake.
# Topology anh, (6,3)-cn, num edge types: 1
# Building blocks:
#     Node 0, Type 0, BuildingBlock: BETFEN_clean_sbu_0, # of connection points: 6
#     Node 1, Type 0, BuildingBlock: BETFEN_clean_sbu_0, # of connection points: 6
#     Node 2, Type 0, BuildingBlock: BETFEN_clean_sbu_0, # of connection points: 6
#     Node 3, Type 1, BuildingBlock: BETDIP_clean_linker_0, # of connection points: 3
#     Node 4, Type 1, BuildingBlock: BETDIP_clean_linker_0, # of connection points: 3
#     Node 5, Type 1, BuildingBlock: BETDIP_clean_linker_0, # of connection points: 3
#     Node 6, Type 1, BuildingBlock: BETDIP_clean_linker_0, # of connection points: 3
#     Node 7, Type 1, BuildingBlock: BETDIP_clean_linker_0, # of connection points: 3
#     Node 8, Type 1, BuildingBlock: BETDIP_clean_linker_0, # of connection points: 3
#     Edge 9, Type (0, 1), BuildingBlock: MIFKUJ_clean_linker_0, # of connection points: 2
#     Edge 10, Type (0, 1), BuildingBlock: MIFKUJ_clean_linker_0, # of connection points: 2
#     Edge 11, Type (0, 1), BuildingBlock: MIFKUJ_clean_linker_0, # of connection points: 2
#     Edge 12, Type (0, 1), BuildingBlock: MIFKUJ_clean_linker_0, # of connection points: 2
#     Edge 13, Type (0, 1), BuildingBlock: MIFKUJ_clean_linker_0, # of connection points: 2
#     Edge 14, Type (0, 1), BuildingBlock: MIFKUJ_clean_linker_0, # of connection points: 2
#     Edge 15, Type (0, 1), BuildingBlock: MIFKUJ_clean_linker_0, # of connection points: 2
#     Edge 16, Type (0, 1), BuildingBlock: MIFKUJ_clean_linker_0, # of connection points: 2
#     Edge 17, Type (0, 1), BuildingBlock: MIFKUJ_clean_linker_0, # of connection points: 2
#     Edge 18, Type (0, 1), BuildingBlock: MIFKUJ_clean_linker_0, # of connection points: 2
#     Edge 19, Type (0, 1), BuildingBlock: MIFKUJ_clean_linker_0, # of connection points: 2
#     Edge 20, Type (0, 1), BuildingBlock: MIFKUJ_clean_linker_0, # of connection points: 2
#     Edge 21, Type (0, 1), BuildingBlock: MIFKUJ_clean_linker_0, # of connection points: 2
#     Edge 22, Type (0, 1), BuildingBlock: MIFKUJ_clean_linker_0, # of connection points: 2
#     Edge 23, Type (0, 1), BuildingBlock: MIFKUJ_clean_linker_0, # of connection points: 2
#     Edge 24, Type (0, 1), BuildingBlock: MIFKUJ_clean_linker_0, # of connection points: 2
#     Edge 25, Type (0, 1), BuildingBlock: MIFKUJ_clean_linker_0, # of connection points: 2
#     Edge 26, Type (0, 1), BuildingBlock: MIFKUJ_clean_linker_0, # of connection points: 2
# Relax obj value: 0.131
# Max RMSD: 0.178
# Mean RMSD: 0.126
data_MOF--net-anh--node1-BETFEN_clean_sbu_0--node2-BETDIP_clean_linker_0--edge1-MIFKUJ_clean_linker_0
_symmetry_space_group_name_H-M    P1
_symmetry_Int_Tables_number       1
_symmetry_cell_setting            triclinic
loop_
_symmetry_equiv_pos_as_xyz
'x, y, z'
_cell_length_a     38.893078
_cell_length_b     40.610471
_cell_length_c     64.671807
_cell_angle_alpha  92.746249
_cell_angle_beta   93.431356
_cell_angle_gamma 107.4017
loop_
_atom_site_label
_atom_site_type_symbol
_atom_site_fract_x
_atom_site_fract_y
_atom_site_fract_z
_atom_type_partial_charge
Pr0 Pr 0.05789 0.57195 0.15735 0.0
Pr1 Pr 0.0788 0.64724 0.14539 0.0
C2 C 0.02953 0.51145 0.17452 0.0
C3 C 0.99457 0.48416 0.17504 0.0
C4 C 0.97391 0.46794 0.15674 0.0
C5 C 0.94144 0.44142 0.1577 0.0
C6 C 0.92875 0.43071 0.17698 0.0
C7 C 0.94927 0.44756 0.19525 0.0
C8 C 0.98186 0.47382 0.19426 0.0
C9 C 0.06112 0.57977 0.11491 0.0
C10 C 0.99298 0.60971 0.14835 0.0
C11 C 0.10806 0.70826 0.12901 0.0
C12 C 0.14159 0.73723 0.13346 0.0
C13 C 0.15721 0.74603 0.15387 0.0
C14 C 0.18911 0.7733 0.15808 0.0
C15 C 0.20645 0.79217 0.14195 0.0
C16 C 0.19075 0.78316 0.12146 0.0
C17 C 0.1586 0.7559 0.11727 0.0
C18 C 0.0777 0.63993 0.18801 0.0
C19 C 0.14339 0.60854 0.15344 0.0
O20 O 0.03239 0.5415 0.18394 0.0
O21 O 0.0455 0.51388 0.15715 0.0
O22 O 0.04737 0.59651 0.12711 0.0
O23 O 0.07212 0.55673 0.12425 0.0
O24 O 1.01625 0.63406 0.13909 0.0
O25 O 1.00326 0.58593 0.1581 0.0
O26 O 0.11179 0.67915 0.12146 0.0
O27 O 0.08452 0.7039 0.14305 0.0
O28 O 0.09002 0.62263 0.17541 0.0
O29 O 0.06786 0.6639 0.17902 0.0
O30 O 0.12043 0.58437 0.163 0.0
O31 O 0.13286 0.63233 0.14384 0.0
H32 H 0.98298 0.47545 0.14166 0.0
H33 H 0.9267 0.42885 0.1433 0.0
H34 H 0.94013 0.44059 0.21039 0.0
H35 H 0.9973 0.48602 0.20857 0.0
H36 H 0.1447 0.73184 0.16662 0.0
H37 H 0.19997 0.7798 0.17407 0.0
H38 H 0.20356 0.79682 0.10863 0.0
H39 H 0.1471 0.74929 0.10139 0.0
Pr40 Pr 0.55903 0.08496 0.51022 0.0
Pr41 Pr 0.48144 0.0639 0.51927 0.0
C42 C 0.62303 0.11298 0.49431 0.0
C43 C 0.64859 0.14756 0.49168 0.0
C44 C 0.673 0.16622 0.50814 0.0
C45 C 0.69741 0.19854 0.50526 0.0
C46 C 0.69795 0.21292 0.48589 0.0
C47 C 0.67356 0.19423 0.46946 0.0
C48 C 0.64929 0.16189 0.4723 0.0
C49 C 0.54923 0.08039 0.55224 0.0
C50 C 0.51871 0.14859 0.51736 0.0
C51 C 0.41558 1.03482 0.53267 0.0
C52 C 0.38722 1.00089 0.52939 0.0
C53 C 0.35489 0.99817 0.51757 0.0
C54 C 0.32855 0.96612 0.51337 0.0
C55 C 0.33371 0.93598 0.52108 0.0
C56 C 0.36579 0.93888 0.53332 0.0
C57 C 0.39228 0.97093 0.53739 0.0
C58 C 0.49224 0.06643 0.47703 0.0
C59 C 0.5227 1.00052 0.51442 0.0
O60 O 0.592 0.1045 0.48323 0.0
O61 O 0.62022 0.10234 0.51309 0.0
O62 O 0.53183 0.09399 0.53994 0.0
O63 O 0.57353 0.07017 0.54318 0.0
O64 O 0.49187 0.1247 0.52481 0.0
O65 O 0.54543 0.13923 0.50938 0.0
O66 O 0.44568 1.03605 0.54335 0.0
O67 O 0.42085 0.05382 0.51671 0.0
O68 O 0.50887 0.05351 0.49007 0.0
O69 O 0.46797 0.07745 0.48546 0.0
O70 O 0.5499 1.02404 0.50696 0.0
O71 O 0.49532 1.01003 0.52138 0.0
H72 H 0.67336 0.15588 0.52325 0.0
H73 H 0.7157 0.21241 0.51826 0.0
H74 H 0.67369 0.2043 0.45424 0.0
H75 H 0.63117 0.14797 0.45924 0.0
H76 H 0.35021 1.02083 0.51125 0.0
H77 H 0.3045 0.96492 0.50364 0.0
H78 H 0.37047 0.91637 0.53982 0.0
H79 H 0.41681 0.97209 0.54665 0.0
Pr80 Pr 0.50187 0.52485 0.82168 0.0
Pr81 Pr 0.52865 0.59874 0.83549 0.0
C82 C 0.49038 0.45949 0.80626 0.0
C83 C 0.50464 0.4313 0.81256 0.0
C84 C 0.48164 0.40219 0.82084 0.0
C85 C 0.4953 0.37688 0.82883 0.0
C86 C 0.53225 0.37998 0.8285 0.0
C87 C 0.55509 0.40875 0.8197 0.0
C88 C 0.54149 0.43421 0.81191 0.0
C89 C 0.50484 0.5373 0.8648 0.0
C90 C 0.59048 0.56161 0.83252 0.0
C91 C 0.53775 0.66236 0.85313 0.0
C92 C 0.52268 0.69019 0.84775 0.0
C93 C 0.51114 0.69263 0.82708 0.0
C94 C 0.49931 0.72044 0.8216 0.0
C95 C 0.49838 0.7462 0.83673 0.0
C96 C 0.50778 0.74236 0.85767 0.0
C97 C 0.51998 0.7146 0.86311 0.0
C98 C 0.52732 0.5872 0.79246 0.0
C99 C 0.43999 0.56189 0.82483 0.0
O100 O 0.51279 0.48613 0.79861 0.0
O101 O 0.46945 0.46827 0.8191 0.0
O102 O 0.52914 0.55185 0.8534 0.0
O103 O 0.47809 0.51486 0.85416 0.0
O104 O 0.58177 0.58533 0.84383 0.0
O105 O 0.56542 0.53842 0.8203 0.0
O106 O 0.51483 0.63462 0.85929 0.0
O107 O 0.55974 0.6555 0.84022 0.0
O108 O 0.50234 0.5719 0.80338 0.0
O109 O 0.55306 0.61027 0.80349 0.0
O110 O 0.44793 0.53739 0.81384 0.0
O111 O 0.46554 0.58536 0.83648 0.0
H112 H 0.45316 0.39941 0.8216 0.0
H113 H 0.47699 0.35525 0.83562 0.0
H114 H 0.58351 0.41158 0.81873 0.0
H115 H 0.56001 0.45637 0.80566 0.0
H116 H 0.51248 0.67366 0.81503 0.0
H117 H 0.4929 0.72265 0.8053 0.0
H118 H 0.50691 0.76143 0.86975 0.0
H119 H 0.52816 0.71268 0.8792 0.0
H120 H 0.54937 0.08919 0.19925 0.0
H121 H 0.59205 0.13009 0.26135 0.0
H122 H 0.49399 0.04535 0.25177 0.0
H123 H 0.58384 0.1428 0.19079 0.0
C124 C 0.60692 0.15073 0.2022 0.0
C125 C 0.54728 0.08931 0.21586 0.0
C126 C 0.51869 0.06426 0.2239 0.0
C127 C 0.57385 0.1132 0.22947 0.0
C128 C 0.57152 0.11176 0.25096 0.0
C129 C 0.54252 0.08775 0.25911 0.0
C130 C 0.51628 0.06418 0.24549 0.0
N131 N 0.60403 0.13837 0.22241 0.0
H132 H 0.52019 0.54143 0.509 0.0
H133 H 0.52248 0.60305 0.56585 0.0
H134 H 0.5174 0.49662 0.56845 0.0
H135 H 0.48162 0.6215 0.54296 0.0
C136 C 0.50236 0.63135 0.53234 0.0
C137 C 0.52027 0.54389 0.52574 0.0
C138 C 0.5186 0.51414 0.5375 0.0
C139 C 0.52054 0.57651 0.5359 0.0
C140 C 0.52114 0.57871 0.55769 0.0
C141 C 0.51988 0.55016 0.56929 0.0
C142 C 0.51825 0.51838 0.55917 0.0
N143 N 0.52056 0.60708 0.52489 0.0
H144 H 0.98362 0.56695 0.83435 0.0
H145 H 0.06242 0.58575 0.88647 0.0
H146 H 0.95212 0.57776 0.89647 0.0
H147 H 0.09225 0.62597 0.85843 0.0
C148 C 0.08925 0.60211 0.84911 0.0
C149 C 0.99035 0.5714 0.85096 0.0
C150 C 0.96314 0.57108 0.86452 0.0
C151 C 1.02641 0.57769 0.85885 0.0
C152 C 0.03498 0.58265 0.88042 0.0
C153 C 1.00831 0.58217 0.89418 0.0
C154 C 0.97263 0.57688 0.88602 0.0
N155 N 0.054 0.57808 0.84524 0.0
H156 H 0.0385 0.59524 0.46552 0.0
H157 H 0.99967 0.55319 0.40309 0.0
H158 H 0.09047 0.64529 0.41366 0.0
H159 H 0.94484 0.54114 0.42002 0.0
C160 C 0.95364 0.52891 0.43306 0.0
C161 C 0.04045 0.59631 0.4489 0.0
C162 C 0.06724 0.62312 0.44106 0.0
C163 C 1.01558 0.57128 0.43529 0.0
C164 C 1.01837 0.57273 0.41371 0.0
C165 C 0.04522 0.59946 0.40577 0.0
C166 C 0.06952 0.62457 0.41959 0.0
N167 N 0.98828 0.54467 0.44359 0.0
H168 H 0.69442 0.0995 0.81325 0.0
H169 H 0.65924 0.05804 0.75067 0.0
H170 H 0.597 0.11148 0.78353 0.0
H171 H 0.72688 1.0244 0.76442 0.0
C172 C 0.705 1.02916 0.77251 0.0
C173 C 0.6748 0.095 0.79999 0.0
C174 C 0.64472 0.10733 0.8008 0.0
C175 C 0.67931 0.07625 0.78217 0.0
C176 C 0.65444 0.07093 0.76477 0.0
C177 C 0.62471 0.08365 0.76511 0.0
C178 C 0.61968 0.10119 0.78333 0.0
N179 N 0.70905 0.06279 0.78167 0.0
H180 H 0.534 0.60613 0.14747 0.0
H181 H 0.583 0.58389 0.09271 0.0
H182 H 0.47704 0.59647 0.08722 0.0
H183 H 0.59566 0.54434 0.12304 0.0
C184 C 0.61135 0.56954 0.13023 0.0
C185 C 0.53276 0.60148 0.13077 0.0
C186 C 0.50181 0.60183 0.11841 0.0
C187 C 0.56204 0.59481 0.12151 0.0
C188 C 0.56036 0.58885 0.09984 0.0
C189 C 0.52984 0.58949 0.08735 0.0
C190 C 0.50075 0.59598 0.09677 0.0
N191 N 0.59358 0.59498 0.13388 0.0
H192 H 0.19853 0.65654 0.13718 0.0
H193 H 0.26088 0.65645 0.13512 0.0
H194 H 0.23823 0.5623 0.16696 0.0
H195 H 0.17554 0.56235 0.16934 0.0
H196 H 0.30538 0.60851 0.18031 0.0
H197 H 0.23982 0.55792 0.11554 0.0
H198 H 0.19923 0.55555 0.08434 0.0
H199 H 0.27307 0.64859 0.06521 0.0
H200 H 0.31387 0.65181 0.09647 0.0
H201 H 0.46103 0.56446 0.14722 0.0
H202 H 0.4017 0.56685 0.1569 0.0
H203 H 0.41094 0.65387 0.11949 0.0
H204 H 0.46946 0.65066 0.10933 0.0
H205 H 0.34925 0.60825 0.10986 0.0
H206 H 0.41485 0.65963 0.17472 0.0
H207 H 0.4549 0.663 0.20629 0.0
H208 H 0.38174 0.56957 0.22544 0.0
H209 H 0.34146 0.5654 0.19382 0.0
C210 C 0.2067 0.63584 0.14386 0.0
C211 C 0.18181 0.60924 0.15325 0.0
C212 C 0.24245 0.63584 0.14265 0.0
C213 C 0.25415 0.60912 0.15063 0.0
C214 C 0.22978 0.58315 0.16066 0.0
C215 C 0.19391 0.58315 0.16192 0.0
C216 C 0.29129 0.60763 0.14754 0.0
C217 C 0.31493 0.60802 0.16491 0.0
C218 C 0.3039 0.6075 0.12747 0.0
C219 C 0.27976 0.60525 0.10843 0.0
C220 C 0.24731 0.57798 0.10474 0.0
C221 C 0.22427 0.57648 0.08704 0.0
C222 C 0.23353 0.60194 0.07282 0.0
C223 C 0.26592 0.6289 0.07624 0.0
C224 C 0.28903 0.63056 0.09394 0.0
C225 C 0.45068 0.58459 0.14153 0.0
C226 C 0.46974 0.6074 0.12756 0.0
C227 C 0.41676 0.58596 0.14704 0.0
C228 C 0.40167 0.61059 0.13896 0.0
C229 C 0.42175 0.63448 0.12584 0.0
C230 C 0.45529 0.6328 0.12013 0.0
C231 C 0.36397 0.60995 0.14266 0.0
C232 C 0.33997 0.60885 0.12532 0.0
C233 C 0.35119 0.6095 0.16276 0.0
C234 C 0.37532 0.61202 0.1818 0.0
C235 C 0.40744 0.63966 0.18558 0.0
C236 C 0.43016 0.64174 0.2035 0.0
C237 C 0.42093 0.61646 0.21783 0.0
C238 C 0.38889 0.58911 0.21431 0.0
C239 C 0.36609 0.58689 0.1964 0.0
H240 H 0.43855 0.61812 0.2317 0.0
H241 H 0.21563 0.60076 0.05914 0.0
H242 H 0.68567 0.26584 0.46504 0.0
H243 H 0.72975 0.3203 0.45781 0.0
H244 H 0.81376 0.29154 0.49204 0.0
H245 H 0.76976 0.23694 0.49934 0.0
H246 H 0.8194 0.3595 0.50037 0.0
H247 H 0.80513 0.28209 0.43958 0.0
H248 H 0.7704 0.24136 0.41085 0.0
H249 H 0.72969 0.32055 0.38708 0.0
H250 H 0.7638 0.36163 0.41586 0.0
H251 H 0.96738 0.48425 0.46078 0.0
H252 H 0.9246 0.43117 0.47117 0.0
H253 H 0.83933 0.4504 0.43237 0.0
H254 H 0.88241 0.50267 0.42135 0.0
H255 H 0.83537 0.38624 0.42685 0.0
H256 H 0.84823 0.46361 0.48752 0.0
H257 H 0.88149 0.50449 0.51656 0.0
H258 H 0.9235 0.4264 0.54073 0.0
H259 H 0.89083 0.38516 0.51168 0.0
C260 C 0.71355 0.27107 0.47099 0.0
C261 C 0.72428 0.24692 0.4826 0.0
C262 C 0.73869 0.30223 0.46688 0.0
C263 C 0.77516 0.30975 0.47412 0.0
C264 C 0.78577 0.28624 0.48629 0.0
C265 C 0.76058 0.25509 0.49047 0.0
C266 C 0.80235 0.34165 0.46844 0.0
C267 C 0.82325 0.36521 0.4843 0.0
C268 C 0.80687 0.34937 0.44747 0.0
C269 C 0.78678 0.32484 0.42998 0.0
C270 C 0.7886 0.29075 0.4283 0.0
C271 C 0.76904 0.26761 0.412 0.0
C272 C 0.74778 0.27833 0.39718 0.0
C273 C 0.74614 0.31227 0.39859 0.0
C274 C 0.76561 0.3355 0.41488 0.0
C275 C 0.93946 0.47722 0.45459 0.0
C276 C 0.92806 0.49759 0.44033 0.0
C277 C 0.91496 0.44695 0.4606 0.0
C278 C 0.87852 0.43693 0.45279 0.0
C279 C 0.86724 0.4575 0.43863 0.0
C280 C 0.8918 0.48741 0.43239 0.0
C281 C 0.85226 0.40454 0.45879 0.0
C282 C 0.83158 0.38071 0.44295 0.0
C283 C 0.84786 0.39672 0.47978 0.0
C284 C 0.86736 0.42142 0.49732 0.0
C285 C 0.86476 0.45524 0.49895 0.0
C286 C 0.88347 0.47846 0.51543 0.0
C287 C 0.90467 0.46808 0.53045 0.0
C288 C 0.90711 0.43442 0.52906 0.0
C289 C 0.88847 0.4111 0.51261 0.0
H290 H 0.91914 0.4861 0.54319 0.0
H291 H 0.73263 0.26037 0.38458 0.0
H292 H 0.45195 0.75569 0.80523 0.0
H293 H 0.46062 0.80881 0.78715 0.0
H294 H 0.54192 0.86427 0.83501 0.0
H295 H 0.53446 0.81172 0.85278 0.0
H296 H 0.49711 0.90493 0.80797 0.0
H297 H 0.59235 0.83213 0.80186 0.0
H298 H 0.59373 0.77172 0.79763 0.0
H299 H 0.50383 0.74792 0.75169 0.0
H300 H 0.50252 0.80831 0.7554 0.0
H301 H 0.66649 1.01515 0.80621 0.0
H302 H 0.6096 0.97035 0.80894 0.0
H303 H 0.60969 0.93498 0.74488 0.0
H304 H 0.66802 0.97962 0.74244 0.0
H305 H 0.59207 0.88252 0.76638 0.0
H306 H 0.54403 0.97435 0.76049 0.0
H307 H 0.53951 1.03341 0.76551 0.0
H308 H 0.52881 1.02089 0.83055 0.0
H309 H 0.5332 0.96169 0.826 0.0
C310 C 0.47083 0.77947 0.81227 0.0
C311 C 0.49341 0.77914 0.83009 0.0
C312 C 0.47534 0.80988 0.80205 0.0
C313 C 0.5023 0.84019 0.80962 0.0
C314 C 0.52085 0.84109 0.82899 0.0
C315 C 0.51659 0.81078 0.83913 0.0
C316 C 0.51941 0.86652 0.79539 0.0
C317 C 0.51727 0.90022 0.79835 0.0
C318 C 0.54477 0.85992 0.78232 0.0
C319 C 0.54755 0.82459 0.77877 0.0
C320 C 0.57334 0.81407 0.79062 0.0
C321 C 0.57405 0.77986 0.78834 0.0
C322 C 0.54907 0.75604 0.77428 0.0
C323 C 0.52344 0.76644 0.7624 0.0
C324 C 0.52279 0.80066 0.76452 0.0
C325 C 0.65423 0.99795 0.79268 0.0
C326 C 0.67126 1.00082 0.77407 0.0
C327 C 0.62144 0.97262 0.79413 0.0
C328 C 0.60458 0.94998 0.77689 0.0
C329 C 0.6219 0.95249 0.75829 0.0
C330 C 0.65522 0.97769 0.75694 0.0
C331 C 0.57087 0.92175 0.77938 0.0
C332 C 0.5705 0.88758 0.77463 0.0
C333 C 0.54223 0.928 0.78994 0.0
C334 C 0.53889 0.96344 0.79287 0.0
C335 C 0.54078 0.98417 0.77589 0.0
C336 C 0.53827 1.0177 0.77865 0.0
C337 C 0.53401 1.03092 0.79833 0.0
C338 C 0.53205 1.01057 0.8153 0.0
C339 C 0.53434 0.97692 0.81262 0.0
H340 H 0.53213 0.05691 0.80042 0.0
H341 H 0.54945 0.7295 0.77266 0.0
H342 H 0.93546 0.55517 0.15639 0.0
H343 H 0.8715 0.55174 0.15413 0.0
H344 H 0.89847 0.65673 0.13613 0.0
H345 H 0.96273 0.6603 0.13804 0.0
H346 H 0.84639 0.63907 0.16811 0.0
H347 H 0.86672 0.5992 0.09976 0.0
H348 H 0.88836 0.56315 0.07505 0.0
H349 H 0.81702 0.47126 0.09707 0.0
H350 H 0.79533 0.50679 0.12214 0.0
H351 H 0.66461 0.63233 0.13609 0.0
H352 H 0.73003 0.64208 0.14004 0.0
H353 H 0.71191 0.53179 0.13943 0.0
H354 H 0.6468 0.52213 0.13433 0.0
H355 H 0.7615 0.55536 0.11618 0.0
H356 H 0.74194 0.59169 0.18501 0.0
H357 H 0.72115 0.62513 0.21173 0.0
H358 H 0.79055 0.7198 0.19168 0.0
H359 H 0.81143 0.68693 0.16466 0.0
C360 C 0.92789 0.57762 0.15199 0.0
C361 C 0.95425 0.608 0.14731 0.0
C362 C 0.89129 0.57557 0.1507 0.0
C363 C 0.88025 0.60394 0.14492 0.0
C364 C 0.90646 0.63456 0.14064 0.0
C365 C 0.94312 0.63648 0.14163 0.0
C366 C 0.84119 0.60109 0.14283 0.0
C367 C 0.82777 0.62115 0.15658 0.0
C368 C 0.81691 0.57704 0.12816 0.0
C369 C 0.82964 0.55565 0.11295 0.0
C370 C 0.85585 0.5713 0.09944 0.0
C371 C 0.86809 0.55096 0.08535 0.0
C372 C 0.85413 0.51493 0.08452 0.0
C373 C 0.82783 0.49917 0.09774 0.0
C374 C 0.81553 0.5194 0.11188 0.0
C375 C 0.67467 0.61026 0.13708 0.0
C376 C 0.6507 0.57645 0.13502 0.0
C377 C 0.71212 0.61583 0.13941 0.0
C378 C 0.72623 0.58771 0.14027 0.0
C379 C 0.70199 0.55399 0.13873 0.0
C380 C 0.66473 0.54845 0.13595 0.0
C381 C 0.76606 0.59297 0.14174 0.0
C382 C 0.77982 0.57338 0.12777 0.0
C383 C 0.7905 0.61705 0.15647 0.0
C384 C 0.77794 0.63687 0.17267 0.0
C385 C 0.75255 0.61965 0.18619 0.0
C386 C 0.74079 0.6385 0.20141 0.0
C387 C 0.75444 0.67457 0.20336 0.0
C388 C 0.77995 0.69186 0.19013 0.0
C389 C 0.79178 0.67314 0.17487 0.0
H390 H 0.74531 0.68911 0.21516 0.0
H391 H 0.86364 0.49923 0.0736 0.0
H392 H 0.25976 0.92072 0.51786 0.0
H393 H 0.2149 0.8652 0.50743 0.0
H394 H 0.29975 0.81745 0.50316 0.0
H395 H 0.34497 0.87333 0.51238 0.0
H396 H 0.25367 0.79693 0.47077 0.0
H397 H 0.24256 0.80515 0.54416 0.0
H398 H 0.23412 0.83262 0.57752 0.0
H399 H 0.12968 0.83539 0.55364 0.0
H400 H 0.13769 0.80835 0.52002 0.0
H401 H 0.13565 0.6271 0.45491 0.0
H402 H 0.18121 0.67745 0.47289 0.0
H403 H 0.10175 0.7322 0.47471 0.0
H404 H 0.05607 0.68144 0.45723 0.0
H405 H 0.14628 0.74719 0.50986 0.0
H406 H 0.15898 0.74179 0.43607 0.0
H407 H 0.1668 0.71339 0.40287 0.0
H408 H 0.26863 0.7054 0.42777 0.0
H409 H 0.26109 0.73318 0.46125 0.0
C410 C 0.26899 0.89851 0.51457 0.0
C411 C 0.30611 0.90165 0.51596 0.0
C412 C 0.2432 0.8666 0.50887 0.0
C413 C 0.25385 0.83694 0.5048 0.0
C414 C 0.29083 0.8399 0.50633 0.0
C415 C 0.31667 0.87187 0.51183 0.0
C416 C 0.22654 0.80316 0.49812 0.0
C417 C 0.23055 0.7858 0.47954 0.0
C418 C 0.19586 0.78892 0.50926 0.0
C419 C 0.19087 0.80497 0.52952 0.0
C420 C 0.2179 0.81183 0.54597 0.0
C421 C 0.21317 0.82729 0.56494 0.0
C422 C 0.18142 0.83581 0.56768 0.0
C423 C 0.15428 0.8288 0.55148 0.0
C424 C 0.15888 0.81337 0.53248 0.0
C425 C 0.12789 0.64964 0.45969 0.0
C426 C 0.09259 0.65063 0.45493 0.0
C427 C 0.15385 0.67841 0.46979 0.0
C428 C 0.14502 0.7088 0.47482 0.0
C429 C 0.10916 0.70906 0.47097 0.0
C430 C 0.08313 0.68016 0.46104 0.0
C431 C 0.17355 0.74111 0.4826 0.0
C432 C 0.16965 0.75824 0.50126 0.0
C433 C 0.20436 0.7552 0.47154 0.0
C434 C 0.2093 0.73926 0.45123 0.0
C435 C 0.18295 0.73381 0.43449 0.0
C436 C 0.18733 0.71782 0.41562 0.0
C437 C 0.21816 0.70752 0.41323 0.0
C438 C 0.24474 0.71333 0.42966 0.0
C439 C 0.24043 0.7292 0.44859 0.0
H440 H 0.2215 0.69508 0.39864 0.0
H441 H 0.17782 0.84779 0.58238 0.0
H442 H 0.59735 0.38899 0.85038 0.0
H443 H 0.62472 0.34422 0.85966 0.0
H444 H 0.52704 0.26535 0.83605 0.0
H445 H 0.50021 0.30975 0.82568 0.0
H446 H 0.56373 0.24977 0.87408 0.0
H447 H 0.584 0.28666 0.80391 0.0
H448 H 0.60518 0.32915 0.7779 0.0
H449 H 0.71191 0.3603 0.80876 0.0
H450 H 0.69112 0.31831 0.83519 0.0
H451 H 0.58311 0.10659 0.81926 0.0
H452 H 0.57374 0.15456 0.83957 0.0
H453 H 0.68853 0.20691 0.84405 0.0
H454 H 0.69769 0.15982 0.82244 0.0
H455 H 0.65632 0.24396 0.82572 0.0
H456 H 0.63719 0.19012 0.88862 0.0
H457 H 0.61443 0.14399 0.91225 0.0
H458 H 0.50535 0.14154 0.89491 0.0
H459 H 0.52734 0.18725 0.87092 0.0
C460 C 0.58171 0.36213 0.84714 0.0
C461 C 0.54691 0.353 0.83684 0.0
C462 C 0.59716 0.33663 0.85278 0.0
C463 C 0.57781 0.30159 0.84855 0.0
C464 C 0.54219 0.29232 0.83965 0.0
C465 C 0.52694 0.31778 0.83369 0.0
C466 C 0.59621 0.27477 0.85023 0.0
C467 C 0.58417 0.24832 0.86368 0.0
C468 C 0.62362 0.27376 0.83709 0.0
C469 C 0.63591 0.29977 0.82166 0.0
C470 C 0.61185 0.30292 0.80531 0.0
C471 C 0.62381 0.3268 0.79046 0.0
C472 C 0.65987 0.34738 0.79167 0.0
C473 C 0.68399 0.34431 0.80784 0.0
C474 C 0.67213 0.32053 0.82278 0.0
C475 C 0.60648 0.12793 0.82501 0.0
C476 C 0.64095 0.12997 0.81867 0.0
C477 C 0.60118 0.15521 0.83698 0.0
C478 C 0.63041 0.18467 0.84326 0.0
C479 C 0.66551 0.18458 0.83927 0.0
C480 C 0.67075 0.15751 0.82697 0.0
C481 C 0.62324 0.21766 0.84919 0.0
C482 C 0.63717 0.24557 0.83697 0.0
C483 C 0.59754 0.21972 0.86344 0.0
C484 C 0.58399 0.19218 0.8779 0.0
C485 C 0.60833 0.17962 0.88973 0.0
C486 C 0.59555 0.15354 0.90321 0.0
C487 C 0.55847 0.13984 0.90508 0.0
C488 C 0.53408 0.15222 0.89348 0.0
C489 C 0.5467 0.17829 0.87996 0.0
H490 H 0.54864 0.11965 0.91552 0.0
H491 H 0.66912 0.36562 0.78004 0.0
H492 H 0.57182 0.96869 0.49967 0.0
H493 H 0.5716 0.90833 0.50117 0.0
H494 H 0.47304 0.88497 0.53216 0.0
H495 H 0.47331 0.94527 0.53081 0.0
H496 H 0.51368 0.85235 0.55029 0.0
H497 H 0.47979 0.85837 0.47829 0.0
H498 H 0.48664 0.88111 0.44359 0.0
H499 H 0.58668 0.85735 0.44032 0.0
H500 H 0.58066 0.83487 0.47514 0.0
H501 H 0.45934 0.67018 0.54186 0.0
H502 H 0.46563 0.73073 0.53745 0.0
H503 H 0.56403 0.74129 0.50759 0.0
H504 H 0.55719 0.67925 0.5117 0.0
H505 H 0.52855 0.78142 0.48888 0.0
H506 H 0.56204 0.77382 0.56007 0.0
H507 H 0.55623 0.75168 0.59495 0.0
H508 H 0.45882 0.77959 0.60013 0.0
H509 H 0.46376 0.80148 0.56515 0.0
C510 C 0.54993 0.95082 0.50677 0.0
C511 C 0.52255 0.96271 0.51505 0.0
C512 C 0.54969 0.91579 0.50753 0.0
C513 C 0.52204 0.89084 0.51659 0.0
C514 C 0.49488 0.90285 0.52502 0.0
C515 C 0.495 0.93779 0.52417 0.0
C516 C 0.52154 0.8528 0.51767 0.0
C517 C 0.51648 0.83696 0.53668 0.0
C518 C 0.52634 0.83191 0.50034 0.0
C519 C 0.52997 0.84529 0.47941 0.0
C520 C 0.50339 0.85823 0.47023 0.0
C521 C 0.5071 0.87103 0.45054 0.0
C522 C 0.53713 0.87076 0.43978 0.0
C523 C 0.56347 0.85759 0.44868 0.0
C524 C 0.55991 0.8448 0.46839 0.0
C525 C 0.48241 0.68506 0.53419 0.0
C526 C 0.50766 0.669 0.52722 0.0
C527 C 0.48618 0.72032 0.53182 0.0
C528 C 0.51584 0.742 0.5226 0.0
C529 C 0.54084 0.72592 0.51494 0.0
C530 C 0.53692 0.6901 0.51726 0.0
C531 C 0.52018 0.78092 0.52145 0.0
C532 C 0.5259 0.79688 0.50248 0.0
C533 C 0.51619 0.80211 0.53886 0.0
C534 C 0.51312 0.78903 0.55991 0.0
C535 C 0.53924 0.77502 0.56859 0.0
C536 C 0.53612 0.76254 0.58838 0.0
C537 C 0.50713 0.76415 0.59972 0.0
C538 C 0.48124 0.77833 0.59131 0.0
C539 C 0.4842 0.79081 0.57151 0.0
H540 H 0.50477 0.75448 0.61505 0.0
H541 H 0.53996 0.88069 0.42453 0.0
H542 H 0.62233 0.52729 0.80574 0.0
H543 H 0.68538 0.52738 0.80747 0.0
H544 H 0.70739 0.59314 0.86416 0.0
H545 H 0.64492 0.59437 0.86197 0.0
H546 H 0.76064 0.61504 0.84206 0.0
H547 H 0.69521 0.50039 0.86164 0.0
H548 H 0.64934 0.44304 0.85651 0.0
H549 H 0.69557 0.42165 0.80065 0.0
H550 H 0.74152 0.47875 0.80546 0.0
H551 H 0.90261 0.52932 0.87983 0.0
H552 H 0.83976 0.52589 0.87081 0.0
H553 H 0.87323 0.59551 0.82244 0.0
H554 H 0.93661 0.59979 0.83185 0.0
H555 H 0.79284 0.50573 0.83798 0.0
H556 H 0.81869 0.64825 0.82039 0.0
H557 H 0.86481 0.7049 0.82864 0.0
H558 H 0.89706 0.66992 0.88616 0.0
H559 H 0.85084 0.61327 0.87837 0.0
C560 C 0.64061 0.54174 0.81859 0.0
C561 C 0.62851 0.56079 0.83374 0.0
C562 C 0.67671 0.54164 0.81963 0.0
C563 C 0.70133 0.55988 0.83612 0.0
C564 C 0.68916 0.57891 0.85123 0.0
C565 C 0.6533 0.5795 0.85001 0.0
C566 C 0.73974 0.55945 0.83776 0.0
C567 C 0.76754 0.59106 0.84107 0.0
C568 C 0.7492 0.52832 0.83658 0.0
C569 C 0.7216 0.4939 0.83382 0.0
C570 C 0.69544 0.48344 0.84823 0.0
C571 C 0.66945 0.45092 0.8454 0.0
C572 C 0.66948 0.42859 0.82826 0.0
C573 C 0.69553 0.43878 0.81395 0.0
C574 C 0.7216 0.4712 0.81674 0.0
C575 C 0.89663 0.5438 0.86719 0.0
C576 C 0.92472 0.56522 0.85675 0.0
C577 C 0.86059 0.54161 0.86194 0.0
C578 C 0.85164 0.56083 0.84615 0.0
C579 C 0.87944 0.58082 0.8349 0.0
C580 C 0.91565 0.58302 0.84016 0.0
C581 C 0.8135 0.56122 0.84244 0.0
C582 C 0.78583 0.52966 0.83873 0.0
C583 C 0.80409 0.59233 0.84368 0.0
C584 C 0.83161 0.62644 0.84867 0.0
C585 C 0.83557 0.65272 0.83482 0.0
C586 C 0.86172 0.68481 0.83941 0.0
C587 C 0.88394 0.69096 0.85787 0.0
C588 C 0.87993 0.66508 0.87183 0.0
C589 C 0.85379 0.63297 0.86732 0.0
H590 H 0.9042 0.7158 0.86139 0.0
H591 H 0.6494 0.40341 0.82606 0.0
H592 H 0.22788 0.85501 0.12453 0.0
H593 H 0.28272 0.90338 0.13405 0.0
H594 H 0.3168 0.84344 0.17981 0.0
H595 H 0.26284 0.79484 0.17008 0.0
H596 H 0.3187 0.90795 0.19571 0.0
H597 H 0.35778 0.85747 0.13589 0.0
H598 H 0.35396 0.83676 0.09911 0.0
H599 H 0.36042 0.93836 0.08045 0.0
H600 H 0.36374 0.95957 0.11714 0.0
H601 H 0.49646 0.99508 0.22809 0.0
H602 H 0.4449 0.95171 0.2096 0.0
H603 H 0.42682 1.02891 0.17046 0.0
H604 H 0.47887 0.0728 0.18908 0.0
H605 H 0.41397 0.96157 0.14923 0.0
H606 H 0.37858 1.01296 0.20908 0.0
H607 H 0.38358 1.03389 0.24588 0.0
H608 H 0.36932 0.93078 0.26436 0.0
H609 H 0.36492 0.90932 0.22766 0.0
C610 C 0.24734 0.85188 0.13637 0.0
C611 C 0.24069 0.82105 0.14667 0.0
C612 C 0.27862 0.87963 0.14183 0.0
C613 C 0.30379 0.87704 0.15768 0.0
C614 C 0.29759 0.8461 0.16765 0.0
C615 C 0.26657 0.81838 0.16213 0.0
C616 C 0.33586 0.90689 0.16471 0.0
C617 C 0.33962 0.91947 0.18556 0.0
C618 C 0.36256 0.92273 0.15129 0.0
C619 C 0.36054 0.91 0.12925 0.0
C620 C 0.35802 0.87532 0.12394 0.0
C621 C 0.35602 0.8635 0.10311 0.0
C622 C 0.35683 0.8862 0.08745 0.0
C623 C 0.35973 0.92079 0.09259 0.0
C624 C 0.36168 0.93273 0.1134 0.0
C625 C 0.4818 1.00277 0.21538 0.0
C626 C 0.49127 1.03742 0.21024 0.0
C627 C 0.4524 0.97796 0.2048 0.0
C628 C 0.43165 0.98724 0.18892 0.0
C629 C 0.44244 1.02129 0.18273 0.0
C630 C 0.47212 0.04628 0.19334 0.0
C631 C 0.39712 0.96183 0.18033 0.0
C632 C 0.3928 0.95024 0.15926 0.0
C633 C 0.36967 0.94689 0.1935 0.0
C634 C 0.3717 0.95958 0.2156 0.0
C635 C 0.37677 0.99478 0.22099 0.0
C636 C 0.37947 1.00674 0.24184 0.0
C637 C 0.37684 0.98369 0.25745 0.0
C638 C 0.37138 0.94861 0.25224 0.0
C639 C 0.36876 0.93653 0.23142 0.0
H640 H 0.37895 0.993 0.27358 0.0
H641 H 0.3553 0.877 0.07133 0.0
H642 H 0.57077 0.20638 0.50501 0.0
H643 H 0.5711 0.2669 0.50581 0.0
H644 H 0.46795 0.23892 0.53207 0.0
H645 H 0.46736 0.17825 0.53105 0.0
H646 H 0.46624 0.28471 0.50535 0.0
H647 H 0.55455 0.28508 0.56065 0.0
H648 H 0.60934 0.27453 0.57636 0.0
H649 H 0.67405 0.3412 0.53449 0.0
H650 H 0.61955 0.35183 0.51837 0.0
H651 H 0.46403 0.45397 0.54044 0.0
H652 H 0.46473 0.39425 0.53526 0.0
H653 H 0.56981 0.42981 0.51164 0.0
H654 H 0.56935 0.49022 0.51743 0.0
H655 H 0.57196 0.38056 0.5353 0.0
H656 H 0.48494 0.38185 0.48052 0.0
H657 H 0.43054 0.39195 0.46396 0.0
H658 H 0.36391 0.32189 0.50352 0.0
H659 H 0.41797 0.31169 0.52051 0.0
C660 C 0.54807 0.21289 0.51104 0.0
C661 C 0.51909 0.18657 0.51803 0.0
C662 C 0.54837 0.24804 0.51162 0.0
C663 C 0.51978 0.25873 0.5193 0.0
C664 C 0.49063 0.23233 0.52606 0.0
C665 C 0.49036 0.1972 0.52554 0.0
C666 C 0.51996 0.29686 0.52014 0.0
C667 C 0.48933 0.30544 0.51219 0.0
C668 C 0.55013 0.32507 0.5284 0.0
C669 C 0.58294 0.31898 0.53818 0.0
C670 C 0.58044 0.29733 0.55472 0.0
C671 C 0.61144 0.29136 0.56371 0.0
C672 C 0.64514 0.30712 0.55639 0.0
C673 C 0.64792 0.32898 0.54012 0.0
C674 C 0.61699 0.33501 0.53107 0.0
C675 C 0.48689 0.44922 0.53347 0.0
C676 C 0.5161 0.47763 0.52879 0.0
C677 C 0.48737 0.41457 0.53054 0.0
C678 C 0.5171 0.40622 0.52268 0.0
C679 C 0.54619 0.43457 0.51762 0.0
C680 C 0.5457 0.46949 0.52059 0.0
C681 C 0.51808 0.36843 0.52063 0.0
C682 C 0.54889 0.35988 0.52838 0.0
C683 C 0.48813 0.34022 0.51207 0.0
C684 C 0.45555 0.34626 0.50191 0.0
C685 C 0.45871 0.36878 0.48579 0.0
C686 C 0.42793 0.37449 0.47631 0.0
C687 C 0.3938 0.35764 0.48272 0.0
C688 C 0.39037 0.33496 0.49859 0.0
C689 C 0.42107 0.32918 0.50813 0.0
H690 H 0.37 0.36209 0.47536 0.0
H691 H 0.6691 0.30245 0.56336 0.0
H692 H 0.37751 0.51322 0.80807 0.0
H693 H 0.31523 0.51486 0.81004 0.0
H694 H 0.35492 0.61537 0.84308 0.0
H695 H 0.41675 0.6136 0.84158 0.0
H696 H 0.30155 0.57604 0.86185 0.0
H697 H 0.32133 0.6026 0.79063 0.0
H698 H 0.33656 0.59168 0.75499 0.0
H699 H 0.24818 0.49748 0.74786 0.0
H700 H 0.2327 0.50763 0.78358 0.0
H701 H 0.15729 0.64459 0.85587 0.0
H702 H 0.2137 0.63249 0.8495 0.0
H703 H 0.15361 0.5303 0.82334 0.0
H704 H 0.09661 0.54252 0.82958 0.0
H705 H 0.21315 0.56196 0.80102 0.0
H706 H 0.19046 0.53863 0.87143 0.0
H707 H 0.17527 0.55044 0.90694 0.0
H708 H 0.26978 0.63911 0.9156 0.0
H709 H 0.28525 0.62816 0.88002 0.0
C710 C 0.37294 0.53576 0.81563 0.0
C711 C 0.40218 0.56322 0.82471 0.0
C712 C 0.33729 0.53672 0.81669 0.0
C713 C 0.33023 0.56533 0.82664 0.0
C714 C 0.35951 0.59292 0.83541 0.0
C715 C 0.39497 0.59189 0.83448 0.0
C716 C 0.29256 0.56653 0.82862 0.0
C717 C 0.28241 0.57326 0.84849 0.0
C718 C 0.26693 0.5617 0.81133 0.0
C719 C 0.27612 0.55568 0.78984 0.0
C720 C 0.30532 0.57942 0.78151 0.0
C721 C 0.31396 0.5734 0.76129 0.0
C722 C 0.29342 0.54385 0.74919 0.0
C723 C 0.26411 0.52032 0.75727 0.0
C724 C 0.25537 0.52621 0.77749 0.0
C725 C 0.15604 0.61963 0.84858 0.0
C726 C 0.12258 0.59448 0.84331 0.0
C727 C 0.18832 0.61269 0.84502 0.0
C728 C 0.18798 0.58029 0.83624 0.0
C729 C 0.15453 0.55543 0.83021 0.0
C730 C 0.12201 0.56242 0.8338 0.0
C731 C 0.22277 0.57253 0.83414 0.0
C732 C 0.23227 0.56442 0.81435 0.0
C733 C 0.24795 0.57615 0.8515 0.0
C734 C 0.23886 0.5827 0.87298 0.0
C735 C 0.20787 0.56079 0.88085 0.0
C736 C 0.19922 0.56732 0.901 0.0
C737 C 0.22151 0.59555 0.9135 0.0
C738 C 0.25253 0.61727 0.90589 0.0
C739 C 0.26127 0.61089 0.88574 0.0
H740 H 0.21476 0.60056 0.9291 0.0
H741 H 0.30015 0.53923 0.73354 0.0
H742 H 0.86571 0.41502 0.15163 0.0
H743 H 0.81084 0.36657 0.15311 0.0
H744 H 0.85902 0.33296 0.20674 0.0
H745 H 0.91464 0.38004 0.20465 0.0
H746 H 0.82564 0.27936 0.18162 0.0
H747 H 0.79421 0.37775 0.20975 0.0
H748 H 0.78668 0.43592 0.20949 0.0
H749 H 0.71203 0.40339 0.15545 0.0
H750 H 0.71947 0.34511 0.15524 0.0
H751 H 0.67197 0.17397 0.22539 0.0
H752 H 0.72543 0.22039 0.21809 0.0
H753 H 0.67027 0.23623 0.16133 0.0
H754 H 0.61634 0.18948 0.16858 0.0
H755 H 0.70547 0.2977 0.18462 0.0
H756 H 0.73396 0.19778 0.15834 0.0
H757 H 0.7412 0.13959 0.1593 0.0
H758 H 0.82128 0.17513 0.21067 0.0
H759 H 0.81415 0.23345 0.21022 0.0
C760 C 0.86485 0.39713 0.16361 0.0
C761 C 0.89474 0.40167 0.17807 0.0
C762 C 0.8332 0.36962 0.16459 0.0
C763 C 0.83049 0.34629 0.18022 0.0
C764 C 0.86032 0.35063 0.19457 0.0
C765 C 0.89205 0.3779 0.19349 0.0
C766 C 0.79681 0.31716 0.18165 0.0
C767 C 0.79945 0.28349 0.1825 0.0
C768 C 0.76235 0.32224 0.18217 0.0
C769 C 0.7577 0.3572 0.18235 0.0
C770 C 0.77639 0.38308 0.19773 0.0
C771 C 0.7721 0.41605 0.19768 0.0
C772 C 0.74897 0.42337 0.18242 0.0
C773 C 0.72998 0.39769 0.16723 0.0
C774 C 0.7342 0.36469 0.1672 0.0
C775 C 0.67115 0.18721 0.21131 0.0
C776 C 0.6399 0.17813 0.19753 0.0
C777 C 0.70184 0.21368 0.20712 0.0
C778 C 0.70196 0.23165 0.1891 0.0
C779 C 0.67077 0.22268 0.17532 0.0
C780 C 0.64009 0.19595 0.17943 0.0
C781 C 0.73454 0.26016 0.18498 0.0
C782 C 0.73166 0.29363 0.18359 0.0
C783 C 0.76882 0.25495 0.18407 0.0
C784 C 0.77329 0.21993 0.18435 0.0
C785 C 0.75291 0.19313 0.16995 0.0
C786 C 0.75703 0.16013 0.17038 0.0
C787 C 0.78163 0.15364 0.18507 0.0
C788 C 0.80222 0.18018 0.19932 0.0
C789 C 0.79818 0.21323 0.19896 0.0
H790 H 0.78478 0.12808 0.18538 0.0
H791 H 0.7457 0.44892 0.1824 0.0
H792 H 0.09743 0.55261 0.08748 0.0
H793 H 0.09743 0.55821 0.04996 0.0
H794 H 1.02553 0.62086 0.05418 0.0
H795 H 1.02667 0.61641 0.09176 0.0
H796 H 0.04652 0.53601 0.02151 0.0
H797 H 0.03531 0.67588 0.01619 0.0
H798 H 0.0576 0.73216 0.03644 0.0
H799 H 0.14668 0.70302 0.06369 0.0
H800 H 0.12536 0.64683 0.04332 0.0
H801 H 0.96759 0.54828 0.92425 0.0
H802 H 0.98316 0.55282 0.9615 0.0
H803 H 0.0861 0.62727 0.95338 0.0
H804 H 0.06977 0.62455 0.91608 0.0
H805 H 0.06083 0.64557 0.98727 0.0
H806 H 0.07951 0.54229 0.96027 0.0
H807 H 0.06511 0.48622 0.94001 0.0
H808 H 0.97672 0.44351 0.97721 0.0
H809 H 0.99026 0.49949 -0.00249 0.0
C810 C 0.0819 0.56781 0.08037 0.0
C811 C 0.06194 0.58398 0.09243 0.0
C812 C 0.08189 0.57098 0.05896 0.0
C813 C 0.06173 0.59019 0.04922 0.0
C814 C 0.04193 0.60652 0.06134 0.0
C815 C 0.04235 0.60375 0.0828 0.0
C816 C 0.05955 0.5914 0.02626 0.0
C817 C 0.04987 0.56002 0.01406 0.0
C818 C 0.06493 0.62279 0.01642 0.0
C819 C 0.07851 0.65697 0.02833 0.0
C820 C 0.0598 0.68155 0.02638 0.0
C821 C 0.07225 0.71344 0.03791 0.0
C822 C 0.10348 0.72112 0.05139 0.0
C823 C 0.12244 0.697 0.05329 0.0
C824 C 0.11017 0.66512 0.04176 0.0
C825 C 0.99327 0.56618 0.93035 0.0
C826 C 1.01746 0.58594 0.91705 0.0
C827 C 1.00235 0.5684 0.95168 0.0
C828 C 0.03613 0.58984 0.96021 0.0
C829 C 0.05999 0.61035 0.94713 0.0
C830 C 0.05074 0.60846 0.92577 0.0
C831 C 0.04656 0.59008 0.98271 0.0
C832 C 0.05783 0.62166 -0.00522 0.0
C833 C 0.04396 0.55899 0.99242 0.0
C834 C 0.03576 0.52518 0.98032 0.0
C835 C 0.05685 0.52101 0.96405 0.0
C836 C 0.04886 0.48923 0.95256 0.0
C837 C 1.01997 0.46134 0.9573 0.0
C838 C 0.99907 0.46515 0.97356 0.0
C839 C 1.00692 0.49689 0.98507 0.0
H840 H 1.01383 0.43675 0.94839 0.0
H841 H 0.11301 0.74577 0.06034 0.0
H842 H 0.4523 0.08475 0.4462 0.0
H843 H 0.46322 0.08744 0.40931 0.0
H844 H 0.55802 0.05484 0.42087 0.0
H845 H 0.54661 0.05102 0.45773 0.0
H846 H 0.56589 0.11613 0.39578 0.0
H847 H 0.49318 0.99779 0.39952 0.0
H848 H 0.44042 0.95168 0.40922 0.0
H849 H 0.36956 0.99296 0.37238 0.0
H850 H 0.42191 1.03966 0.36272 0.0
H851 H 0.5944 0.08702 0.28938 0.0
H852 H 0.58809 0.08323 0.32673 0.0
H853 H 0.47746 0.0839 0.31732 0.0
H854 H 0.48342 0.08653 0.27998 0.0
H855 H 0.47977 1.03732 0.34218 0.0
H856 H 0.54948 0.15592 0.33874 0.0
H857 H 0.60032 0.20484 0.32987 0.0
H858 H 0.67456 0.16725 0.36648 0.0
H859 H 0.62421 0.11777 0.37531 0.0
C860 C 0.47541 0.07805 0.44086 0.0
C861 C 0.49868 0.06774 0.4548 0.0
C862 C 0.48158 0.07963 0.41982 0.0
C863 C 0.5114 0.07137 0.41245 0.0
C864 C 0.53491 0.06142 0.42634 0.0
C865 C 0.52837 0.0592 0.44734 0.0
C866 C 0.51763 0.0729 0.39012 0.0
C867 C 0.54747 0.09863 0.384 0.0
C868 C 0.49294 0.05061 0.37489 0.0
C869 C 0.46144 1.02243 0.38057 0.0
C870 C 0.46632 0.99723 0.39365 0.0
C871 C 0.4365 0.97095 0.39911 0.0
C872 C 0.40165 0.96945 0.39147 0.0
C873 C 0.39657 0.99418 0.37831 0.0
C874 C 0.42631 1.02055 0.37282 0.0
C875 C 0.56887 0.08664 0.29537 0.0
C876 C 0.5394 0.08708 0.28184 0.0
C877 C 0.56529 0.08457 0.31671 0.0
C878 C 0.53239 0.08368 0.32494 0.0
C879 C 0.50307 0.08444 0.31139 0.0
C880 C 0.50649 0.08598 0.29006 0.0
C881 C 0.52801 0.08095 0.34756 0.0
C882 C 0.49844 0.05489 0.35383 0.0
C883 C 0.55274 0.10332 0.36291 0.0
C884 C 0.58311 0.13291 0.35749 0.0
C885 C 0.57669 0.1579 0.34474 0.0
C886 C 0.60541 0.18576 0.33975 0.0
C887 C 0.64066 0.18909 0.34755 0.0
C888 C 0.64725 0.16459 0.3604 0.0
C889 C 0.61863 0.13663 0.36541 0.0
H890 H 0.66285 0.21071 0.3437 0.0
H891 H 0.37859 0.94907 0.39571 0.0
H892 H 0.57701 0.62174 0.767 0.0
H893 H 0.57466 0.61478 0.72914 0.0
H894 H 0.47174 0.53567 0.72828 0.0
H895 H 0.47418 0.54228 0.76632 0.0
H896 H 0.51751 0.51743 0.70252 0.0
H897 H 0.4774 0.61793 0.71583 0.0
H898 H 0.4829 0.67616 0.73136 0.0
H899 H 0.58039 0.71843 0.70123 0.0
H900 H 0.57584 0.66043 0.68581 0.0
H901 H 0.47305 0.5091 0.59405 0.0
H902 H 0.47317 0.51491 0.6319 0.0
H903 H 0.56812 0.60401 0.63415 0.0
H904 H 0.56714 0.59893 0.59623 0.0
H905 H 0.52521 0.61691 0.6595 0.0
H906 H 0.57021 0.52094 0.6477 0.0
H907 H 0.57052 0.4642 0.63247 0.0
H908 H 0.472 0.41489 0.66003 0.0
H909 H 0.47083 0.47143 0.67519 0.0
C910 C 0.55384 0.6029 0.75875 0.0
C911 C 0.52564 0.58271 0.76958 0.0
C912 C 0.55247 0.59903 0.73711 0.0
C913 C 0.52278 0.57505 0.72584 0.0
C914 C 0.49483 0.55444 0.73666 0.0
C915 C 0.49618 0.5583 0.75835 0.0
C916 C 0.5211 0.57138 0.7028 0.0
C917 C 0.51862 0.53903 0.69306 0.0
C918 C 0.52386 0.59987 0.69053 0.0
C919 C 0.52641 0.63476 0.69978 0.0
C920 C 0.50016 0.6396 0.71265 0.0
C921 C 0.50309 0.67258 0.72142 0.0
C922 C 0.532 0.70095 0.7173 0.0
C923 C 0.55803 0.69643 0.70441 0.0
C924 C 0.55527 0.66352 0.69565 0.0
C925 C 0.49398 0.52982 0.60268 0.0
C926 C 0.52014 0.55351 0.59226 0.0
C927 C 0.49415 0.53307 0.62432 0.0
C928 C 0.52103 0.55958 0.63601 0.0
C929 C 0.54708 0.58335 0.62554 0.0
C930 C 0.54655 0.58044 0.60389 0.0
C931 C 0.52173 0.56291 0.6591 0.0
C932 C 0.52398 0.5952 0.66888 0.0
C933 C 0.51958 0.53454 0.67144 0.0
C934 C 0.52023 0.50048 0.6624 0.0
C935 C 0.54846 0.49803 0.65038 0.0
C936 C 0.54881 0.4659 0.64178 0.0
C937 C 0.52124 0.43597 0.64523 0.0
C938 C 0.49331 0.4381 0.65734 0.0
C939 C 0.4928 0.47018 0.66596 0.0
H940 H 0.52157 0.41111 0.63857 0.0
H941 H 0.53424 0.72647 0.724 0.0
H942 H 0.49774 0.09638 0.57443 0.0
H943 H 0.49501 0.0979 0.61242 0.0
H944 H 0.59105 0.06582 0.61854 0.0
H945 H 0.59365 0.06368 0.58092 0.0
H946 H 0.49863 0.04085 0.64296 0.0
H947 H 0.64574 0.12964 0.65368 0.0
H948 H 0.68719 0.17561 0.63559 0.0
H949 H 0.59707 0.20357 0.60869 0.0
H950 H 0.55517 0.15816 0.62689 0.0
H951 H 0.5981 1.02895 0.73608 0.0
H952 H 0.56898 1.02981 0.70163 0.0
H953 H 0.56865 0.13451 0.7162 0.0
H954 H 0.59909 0.13437 0.75023 0.0
H955 H 0.60005 0.13089 0.68211 0.0
H956 H 0.48922 0.06812 0.70721 0.0
H957 H 0.44756 1.02245 0.72532 0.0
H958 H 0.4614 0.94501 0.68184 0.0
H959 H 0.50366 0.99014 0.66366 0.0
C960 C 0.51804 0.08941 0.58394 0.0
C961 C 0.54609 0.0802 0.57482 0.0
C962 C 0.51629 0.09007 0.60553 0.0
C963 C 0.54288 0.08203 0.61814 0.0
C964 C 0.57033 0.0721 0.60899 0.0
C965 C 0.57183 0.07102 0.58752 0.0
C966 C 0.54414 0.08608 0.64099 0.0
C967 C 0.52041 0.06071 0.65168 0.0
C968 C 0.5722 0.11243 0.65217 0.0
C969 C 0.59731 0.14032 0.64153 0.0
C970 C 0.6348 0.14574 0.644 0.0
C971 C 0.65837 0.17167 0.63371 0.0
C972 C 0.64477 0.19244 0.62096 0.0
C973 C 0.60757 0.18739 0.61852 0.0
C974 C 0.58389 0.16153 0.6288 0.0
C975 C 0.59146 0.05202 0.732 0.0
C976 C 0.60133 0.08173 0.74579 0.0
C977 C 0.57435 0.05232 0.71242 0.0
C978 C 0.56654 0.08223 0.70635 0.0
C979 C 0.57437 0.11115 0.72057 0.0
C980 C 0.59158 0.11092 0.7401 0.0
C981 C 0.55518 0.08497 0.68436 0.0
C982 C 0.57743 0.11151 0.6737 0.0
C983 C 0.52547 0.0599 0.67335 0.0
C984 C 0.4998 1.03258 0.68411 0.0
C985 C 0.4836 0.04134 0.70158 0.0
C986 C 0.45984 1.01554 0.71185 0.0
C987 C 0.45187 0.98085 0.70475 0.0
C988 C 0.46759 0.9719 0.68732 0.0
C989 C 0.49141 0.9976 0.677 0.0
H990 H 0.43347 0.96091 0.71273 0.0
H991 H 0.66305 0.21247 0.61299 0.0
H992 H 0.45546 0.50694 0.89166 0.0
H993 H 0.46081 0.51635 0.92955 0.0
H994 H 0.56661 0.58972 0.9272 0.0
H995 H 0.56151 0.5802 0.88929 0.0
H996 H 0.56531 0.54497 0.95758 0.0
H997 H 0.49576 0.61799 0.93497 0.0
H998 H 0.44563 0.63144 0.91561 0.0
H999 H 0.36888 0.55874 0.94911 0.0
H1000 H 0.41856 0.54444 0.96846 0.0
H1001 H 0.5823 0.61753 0.06142 0.0
H1002 H 0.57892 0.60888 0.02356 0.0
H1003 H 0.4705 0.53952 0.02375 0.0
H1004 H 0.47364 0.54834 0.06158 0.0
H1005 H 0.47402 0.58335 0.99425 0.0
H1006 H 0.54333 0.50951 0.01644 0.0
H1007 H 0.59334 0.49544 0.03555 0.0
H1008 H 0.67035 0.56914 0.00275 0.0
H1009 H 0.6208 0.58401 0.98364 0.0
C1010 C 0.47984 0.52505 0.89924 0.0
C1011 C 0.50805 0.54288 0.8876 0.0
C1012 C 0.48283 0.53048 0.92085 0.0
C1013 C 0.51398 0.55396 0.93115 0.0
C1014 C 0.54235 0.5715 0.91954 0.0
C1015 C 0.53936 0.56612 0.89792 0.0
C1016 C 0.51692 0.56021 0.95404 0.0
C1017 C 0.54565 0.55381 0.96561 0.0
C1018 C 0.49081 0.57107 0.96448 0.0
C1019 C 0.46089 0.57991 0.95303 0.0
C1020 C 0.46819 0.60468 0.93811 0.0
C1021 C 0.43985 0.61249 0.92715 0.0
C1022 C 0.40409 0.5959 0.93109 0.0
C1023 C 0.39659 0.57154 0.94605 0.0
C1024 C 0.42483 0.5636 0.95704 0.0
C1025 C 0.5579 0.60018 0.05339 0.0
C1026 C 0.52826 0.58356 0.06445 0.0
C1027 C 0.55598 0.59527 0.03176 0.0
C1028 C 0.52457 0.57328 0.02083 0.0
C1029 C 0.49496 0.55667 0.03185 0.0
C1030 C 0.49677 0.56174 0.05345 0.0
C1031 C 0.52232 0.56789 -0.00214 0.0
C1032 C 0.49372 0.57451 0.98625 0.0
C1033 C 0.54853 0.55719 0.9874 0.0
C1034 C 0.57836 0.54811 -0.00124 0.0
C1035 C 0.57094 0.5229 0.01341 0.0
C1036 C 0.5992 0.51475 0.02422 0.0
C1037 C 0.635 0.53145 0.0204 0.0
C1038 C 0.64261 0.55626 0.00571 0.0
C1039 C 0.61444 0.56454 -0.00513 0.0
H1040 H 0.65685 0.52511 0.02879 0.0
H1041 H 0.38218 0.60196 0.92258 0.0
H1042 H 0.08921 0.58649 0.20837 0.0
H1043 H 0.08536 0.57759 0.24552 0.0
H1044 H 0.06282 0.67463 0.25539 0.0
H1045 H 0.06544 0.68315 0.21819 0.0
H1046 H 0.11796 0.66114 0.28489 0.0
H1047 H 0.99582 0.61065 0.25353 0.0
H1048 H 0.95044 0.5719 0.22789 0.0
H1049 H 0.97635 0.48401 0.25083 0.0
H1050 H 1.02243 0.52237 0.27639 0.0
H1051 H 0.05224 0.65607 0.38356 0.0
H1052 H 0.05944 0.66058 0.34645 0.0
H1053 H 0.05218 0.55241 0.33965 0.0
H1054 H 0.04418 0.54765 0.37684 0.0
H1055 H 1.01545 0.56828 0.30814 0.0
H1056 H 0.13393 0.61642 0.34117 0.0
H1057 H 0.18176 0.65395 0.36602 0.0
H1058 H 0.16654 0.74407 0.33962 0.0
H1059 H 0.11815 0.7071 0.31484 0.0
C1060 C 0.08339 0.60587 0.21848 0.0
C1061 C 0.07726 0.63534 0.21045 0.0
C1062 C 0.08131 0.6008 0.23964 0.0
C1063 C 0.07374 0.62544 0.25308 0.0
C1064 C 0.06873 0.65539 0.2452 0.0
C1065 C 0.0701 0.66014 0.22399 0.0
C1066 C 0.06975 0.61951 0.27528 0.0
C1067 C 0.09543 0.64109 0.29007 0.0
C1068 C 0.04096 0.59257 0.28181 0.0
C1069 C 1.01284 0.56941 0.26672 0.0
C1070 C 0.99207 0.58309 0.25299 0.0
C1071 C 0.96619 0.5612 0.2385 0.0
C1072 C 0.96055 0.52552 0.23772 0.0
C1073 C 0.98076 0.51166 0.25146 0.0
C1074 C 1.00676 0.53347 0.26596 0.0
C1075 C 0.05224 0.63327 0.37414 0.0
C1076 C 0.04796 0.60158 0.38308 0.0
C1077 C 0.05644 0.63588 0.35296 0.0
C1078 C 0.05712 0.607 0.34033 0.0
C1079 C 0.0519 0.57506 0.34911 0.0
C1080 C 0.04729 0.57235 0.37032 0.0
C1081 C 0.0634 0.61039 0.318 0.0
C1082 C 0.0382 0.58824 0.30311 0.0
C1083 C 0.09298 0.63658 0.31136 0.0
C1084 C 0.12217 0.65895 0.32623 0.0
C1085 C 0.14057 0.64424 0.34076 0.0
C1086 C 0.16781 0.66542 0.35483 0.0
C1087 C 0.17716 0.70137 0.35441 0.0
C1088 C 0.15927 0.71622 0.33992 0.0
C1089 C 0.13194 0.69516 0.32585 0.0
H1090 H 0.19831 0.71776 0.36526 0.0
H1091 H 0.94049 0.50861 0.22649 0.0
loop_
_geom_bond_atom_site_label_1
_geom_bond_atom_site_label_2
_geom_bond_distance
_geom_bond_site_symmetry_2
_ccdc_geom_bond_type
Pr0 C2 2.880 1_455 S
Pr0 O20 2.562 1_455 S
Pr0 O21 2.490 1_455 S
Pr0 O22 2.695 . S
Pr0 O23 2.512 . S
Pr0 O25 2.437 1_455 S
Pr0 O28 2.436 . S
Pr0 O30 2.438 . S
Pr1 C11 2.880 . S
Pr1 O22 2.436 . S
Pr1 O24 2.438 1_455 S
Pr1 O26 2.562 . S
Pr1 O27 2.490 . S
Pr1 O28 2.695 . S
Pr1 O29 2.512 . S
Pr1 O31 2.437 . S
C2 Pr0 2.880 1_655 S
C2 C3 1.491 . S
C2 O20 1.254 . S
C2 O21 1.225 . S
C3 C2 1.491 . S
C3 C4 1.392 . S
C3 C8 1.356 . S
C4 C3 1.392 . S
C4 C5 1.368 . S
C4 H32 0.929 . S
C5 C4 1.368 . S
C5 C6 1.386 . S
C5 H33 0.929 . S
C6 C5 1.386 . S
C6 C7 1.373 . S
C7 C6 1.373 . S
C7 C8 1.409 . S
C7 H34 0.931 . S
C8 C3 1.356 . S
C8 C7 1.409 . S
C8 H35 0.930 . S
C9 O22 1.270 . S
C9 O23 1.248 . S
C10 O24 1.267 . S
C10 O25 1.278 . S
C11 Pr1 2.880 . S
C11 C12 1.491 . S
C11 O26 1.254 . S
C11 O27 1.225 . S
C12 C11 1.491 . S
C12 C13 1.392 . S
C12 C17 1.356 . S
C13 C12 1.392 . S
C13 C14 1.368 . S
C13 H36 0.929 . S
C14 C13 1.368 . S
C14 C15 1.386 . S
C14 H37 0.929 . S
C15 C14 1.386 . S
C15 C16 1.373 . S
C16 C15 1.373 . S
C16 C17 1.409 . S
C16 H38 0.931 . S
C17 C12 1.356 . S
C17 C16 1.409 . S
C17 H39 0.930 . S
C18 O28 1.270 . S
C18 O29 1.248 . S
C19 O30 1.267 . S
C19 O31 1.278 . S
O20 Pr0 2.562 1_655 S
O20 C2 1.254 . S
O21 Pr0 2.490 1_655 S
O21 C2 1.225 . S
O22 Pr0 2.695 . S
O22 Pr1 2.436 . S
O22 C9 1.270 . S
O23 Pr0 2.512 . S
O23 C9 1.248 . S
O24 Pr1 2.438 1_655 S
O24 C10 1.267 . S
O25 Pr0 2.437 1_655 S
O25 C10 1.278 . S
O26 Pr1 2.562 . S
O26 C11 1.254 . S
O27 Pr1 2.490 . S
O27 C11 1.225 . S
O28 Pr0 2.436 . S
O28 Pr1 2.695 . S
O28 C18 1.270 . S
O29 Pr1 2.512 . S
O29 C18 1.248 . S
O30 Pr0 2.438 . S
O30 C19 1.267 . S
O31 Pr1 2.437 . S
O31 C19 1.278 . S
H32 C4 0.929 . S
H33 C5 0.929 . S
H34 C7 0.931 . S
H35 C8 0.930 . S
H36 C13 0.929 . S
H37 C14 0.929 . S
H38 C16 0.931 . S
H39 C17 0.930 . S
Pr40 C42 2.880 . S
Pr40 O60 2.562 . S
Pr40 O61 2.490 . S
Pr40 O62 2.695 . S
Pr40 O63 2.512 . S
Pr40 O65 2.437 . S
Pr40 O68 2.436 . S
Pr40 O70 2.438 . S
Pr41 C51 2.880 1_545 S
Pr41 O62 2.436 . S
Pr41 O64 2.438 . S
Pr41 O66 2.562 1_545 S
Pr41 O67 2.490 1_545 S
Pr41 O68 2.695 . S
Pr41 O69 2.512 . S
Pr41 O71 2.437 1_545 S
C42 Pr40 2.880 . S
C42 C43 1.491 . S
C42 O60 1.254 . S
C42 O61 1.225 . S
C43 C42 1.491 . S
C43 C44 1.392 . S
C43 C48 1.356 . S
C44 C43 1.392 . S
C44 C45 1.368 . S
C44 H72 0.929 . S
C45 C44 1.368 . S
C45 C46 1.386 . S
C45 H73 0.929 . S
C46 C45 1.386 . S
C46 C47 1.373 . S
C47 C46 1.373 . S
C47 C48 1.409 . S
C47 H74 0.931 . S
C48 C43 1.356 . S
C48 C47 1.409 . S
C48 H75 0.930 . S
C49 O62 1.270 . S
C49 O63 1.248 . S
C50 O64 1.267 . S
C50 O65 1.278 . S
C51 Pr41 2.880 1_565 S
C51 C52 1.491 . S
C51 O66 1.254 . S
C51 O67 1.225 . S
C52 C51 1.491 . S
C52 C53 1.392 . S
C52 C57 1.356 . S
C53 C52 1.392 . S
C53 C54 1.368 . S
C53 H76 0.929 . S
C54 C53 1.368 . S
C54 C55 1.386 . S
C54 H77 0.929 . S
C55 C54 1.386 . S
C55 C56 1.373 . S
C56 C55 1.373 . S
C56 C57 1.409 . S
C56 H78 0.931 . S
C57 C52 1.356 . S
C57 C56 1.409 . S
C57 H79 0.930 . S
C58 O68 1.270 . S
C58 O69 1.248 . S
C59 O70 1.267 1_565 S
C59 O71 1.278 . S
O60 Pr40 2.562 . S
O60 C42 1.254 . S
O61 Pr40 2.490 . S
O61 C42 1.225 . S
O62 Pr40 2.695 . S
O62 Pr41 2.436 . S
O62 C49 1.270 . S
O63 Pr40 2.512 . S
O63 C49 1.248 . S
O64 Pr41 2.438 . S
O64 C50 1.267 . S
O65 Pr40 2.437 . S
O65 C50 1.278 . S
O66 Pr41 2.562 1_565 S
O66 C51 1.254 . S
O67 Pr41 2.490 1_565 S
O67 C51 1.225 . S
O68 Pr40 2.436 . S
O68 Pr41 2.695 . S
O68 C58 1.270 . S
O69 Pr41 2.512 . S
O69 C58 1.248 . S
O70 Pr40 2.438 . S
O70 C59 1.267 1_545 S
O71 Pr41 2.437 1_565 S
O71 C59 1.278 . S
H72 C44 0.929 . S
H73 C45 0.929 . S
H74 C47 0.931 . S
H75 C48 0.930 . S
H76 C53 0.929 . S
H77 C54 0.929 . S
H78 C56 0.931 . S
H79 C57 0.930 . S
Pr80 C82 2.880 . S
Pr80 O100 2.562 . S
Pr80 O101 2.490 . S
Pr80 O102 2.695 . S
Pr80 O103 2.512 . S
Pr80 O105 2.437 . S
Pr80 O108 2.436 . S
Pr80 O110 2.438 . S
Pr81 C91 2.880 . S
Pr81 O102 2.436 . S
Pr81 O104 2.438 . S
Pr81 O106 2.562 . S
Pr81 O107 2.490 . S
Pr81 O108 2.695 . S
Pr81 O109 2.512 . S
Pr81 O111 2.437 . S
C82 Pr80 2.880 . S
C82 C83 1.491 . S
C82 O100 1.254 . S
C82 O101 1.225 . S
C83 C82 1.491 . S
C83 C84 1.392 . S
C83 C88 1.356 . S
C84 C83 1.392 . S
C84 C85 1.368 . S
C84 H112 0.929 . S
C85 C84 1.368 . S
C85 C86 1.386 . S
C85 H113 0.929 . S
C86 C85 1.386 . S
C86 C87 1.373 . S
C87 C86 1.373 . S
C87 C88 1.409 . S
C87 H114 0.931 . S
C88 C83 1.356 . S
C88 C87 1.409 . S
C88 H115 0.930 . S
C89 O102 1.270 . S
C89 O103 1.248 . S
C90 O104 1.267 . S
C90 O105 1.278 . S
C91 Pr81 2.880 . S
C91 C92 1.491 . S
C91 O106 1.254 . S
C91 O107 1.225 . S
C92 C91 1.491 . S
C92 C93 1.392 . S
C92 C97 1.356 . S
C93 C92 1.392 . S
C93 C94 1.368 . S
C93 H116 0.929 . S
C94 C93 1.368 . S
C94 C95 1.386 . S
C94 H117 0.929 . S
C95 C94 1.386 . S
C95 C96 1.373 . S
C96 C95 1.373 . S
C96 C97 1.409 . S
C96 H118 0.931 . S
C97 C92 1.356 . S
C97 C96 1.409 . S
C97 H119 0.930 . S
C98 O108 1.270 . S
C98 O109 1.248 . S
C99 O110 1.267 . S
C99 O111 1.278 . S
O100 Pr80 2.562 . S
O100 C82 1.254 . S
O101 Pr80 2.490 . S
O101 C82 1.225 . S
O102 Pr80 2.695 . S
O102 Pr81 2.436 . S
O102 C89 1.270 . S
O103 Pr80 2.512 . S
O103 C89 1.248 . S
O104 Pr81 2.438 . S
O104 C90 1.267 . S
O105 Pr80 2.437 . S
O105 C90 1.278 . S
O106 Pr81 2.562 . S
O106 C91 1.254 . S
O107 Pr81 2.490 . S
O107 C91 1.225 . S
O108 Pr80 2.436 . S
O108 Pr81 2.695 . S
O108 C98 1.270 . S
O109 Pr81 2.512 . S
O109 C98 1.248 . S
O110 Pr80 2.438 . S
O110 C99 1.267 . S
O111 Pr81 2.437 . S
O111 C99 1.278 . S
H112 C84 0.929 . S
H113 C85 0.929 . S
H114 C87 0.931 . S
H115 C88 0.930 . S
H116 C93 0.929 . S
H117 C94 0.929 . S
H118 C96 0.931 . S
H119 C97 0.930 . S
H120 C125 0.930 . S
H121 C128 0.930 . S
H122 C130 0.930 . S
H123 C124 1.016 . S
C124 H123 1.016 . S
C124 N131 1.286 . S
C125 H120 0.930 . S
C125 C126 1.397 . S
C125 C127 1.361 . S
C126 C125 1.397 . S
C126 C130 1.390 . S
C127 C125 1.361 . S
C127 C128 1.393 . S
C127 N131 1.413 . S
C128 H121 0.930 . S
C128 C127 1.393 . S
C128 C129 1.399 . S
C129 C128 1.399 . S
C129 C130 1.381 . S
C130 H122 0.930 . S
C130 C126 1.390 . S
C130 C129 1.381 . S
N131 C124 1.286 . S
N131 C127 1.413 . S
H132 C137 0.930 . S
H133 C140 0.930 . S
H134 C142 0.930 . S
H135 C136 1.016 . S
C136 H135 1.016 . S
C136 N143 1.286 . S
C137 H132 0.930 . S
C137 C138 1.397 . S
C137 C139 1.361 . S
C138 C137 1.397 . S
C138 C142 1.390 . S
C139 C137 1.361 . S
C139 C140 1.393 . S
C139 N143 1.413 . S
C140 H133 0.930 . S
C140 C139 1.393 . S
C140 C141 1.399 . S
C141 C140 1.399 . S
C141 C142 1.381 . S
C142 H134 0.930 . S
C142 C138 1.390 . S
C142 C141 1.381 . S
N143 C136 1.286 . S
N143 C139 1.413 . S
H144 C149 0.930 1_655 S
H145 C152 0.930 . S
H146 C154 0.930 . S
H147 C148 1.016 . S
C148 H147 1.016 . S
C148 N155 1.286 . S
C149 H144 0.930 1_455 S
C149 C150 1.397 1_455 S
C149 C151 1.361 . S
C150 C149 1.397 1_655 S
C150 C154 1.390 . S
C151 C149 1.361 . S
C151 C152 1.393 . S
C151 N155 1.413 . S
C152 H145 0.930 . S
C152 C151 1.393 . S
C152 C153 1.399 . S
C153 C152 1.399 . S
C153 C154 1.381 1_455 S
C154 H146 0.930 . S
C154 C150 1.390 . S
C154 C153 1.381 1_655 S
N155 C148 1.286 . S
N155 C151 1.413 . S
H156 C161 0.930 . S
H157 C164 0.930 . S
H158 C166 0.930 . S
H159 C160 1.016 . S
C160 H159 1.016 . S
C160 N167 1.286 . S
C161 H156 0.930 . S
C161 C162 1.397 . S
C161 C163 1.361 1_455 S
C162 C161 1.397 . S
C162 C166 1.390 . S
C163 C161 1.361 1_655 S
C163 C164 1.393 . S
C163 N167 1.413 . S
C164 H157 0.930 . S
C164 C163 1.393 . S
C164 C165 1.399 1_655 S
C165 C164 1.399 1_455 S
C165 C166 1.381 . S
C166 H158 0.930 . S
C166 C162 1.390 . S
C166 C165 1.381 . S
N167 C160 1.286 . S
N167 C163 1.413 . S
H168 C173 0.930 . S
H169 C176 0.930 1_565 S
H170 C178 0.930 . S
H171 C172 1.016 . S
C172 H171 1.016 . S
C172 N179 1.286 . S
C173 H168 0.930 . S
C173 C174 1.397 . S
C173 C175 1.361 . S
C174 C173 1.397 . S
C174 C178 1.390 . S
C175 C173 1.361 . S
C175 C176 1.393 . S
C175 N179 1.413 1_545 S
C176 H169 0.930 1_545 S
C176 C175 1.393 . S
C176 C177 1.399 . S
C177 C176 1.399 . S
C177 C178 1.381 . S
C178 H170 0.930 . S
C178 C174 1.390 . S
C178 C177 1.381 . S
N179 C172 1.286 . S
N179 C175 1.413 1_565 S
H180 C185 0.930 . S
H181 C188 0.930 . S
H182 C190 0.930 . S
H183 C184 1.016 . S
C184 H183 1.016 . S
C184 N191 1.286 . S
C185 H180 0.930 . S
C185 C186 1.397 . S
C185 C187 1.361 . S
C186 C185 1.397 . S
C186 C190 1.390 . S
C187 C185 1.361 . S
C187 C188 1.393 . S
C187 N191 1.413 . S
C188 H181 0.930 . S
C188 C187 1.393 . S
C188 C189 1.399 . S
C189 C188 1.399 . S
C189 C190 1.381 . S
C190 H182 0.930 . S
C190 C186 1.390 . S
C190 C189 1.381 . S
N191 C184 1.286 . S
N191 C187 1.413 . S
H192 C210 0.951 . S
H193 C212 0.951 . S
H194 C214 0.950 . S
H195 C215 0.950 . S
H196 C217 0.950 . S
H197 C220 0.950 . S
H198 C221 0.950 . S
H199 C223 0.950 . S
H200 C224 0.950 . S
H201 C225 0.951 . S
H202 C227 0.951 . S
H203 C229 0.950 . S
H204 C230 0.950 . S
H205 C232 0.950 . S
H206 C235 0.950 . S
H207 C236 0.950 . S
H208 C238 0.950 . S
H209 C239 0.950 . S
C210 H192 0.951 . S
C210 C211 1.366 . S
C210 C212 1.388 . S
C211 C210 1.366 . S
C211 C215 1.385 . S
C212 H193 0.951 . S
C212 C210 1.388 . S
C212 C213 1.366 . S
C213 C212 1.366 . S
C213 C214 1.414 . S
C213 C216 1.499 . S
C214 H194 0.950 . S
C214 C213 1.414 . S
C214 C215 1.374 . S
C215 H195 0.950 . S
C215 C211 1.385 . S
C215 C214 1.374 . S
C216 C213 1.499 . S
C216 C217 1.373 . S
C216 C218 1.389 . S
C217 H196 0.950 . S
C217 C216 1.373 . S
C217 C233 1.377 . S
C218 C216 1.389 . S
C218 C219 1.524 . S
C218 C232 1.377 . S
C219 C218 1.524 . S
C219 C220 1.397 . S
C219 C224 1.363 . S
C220 H197 0.950 . S
C220 C219 1.397 . S
C220 C221 1.334 . S
C221 H198 0.950 . S
C221 C220 1.334 . S
C221 C222 1.287 . S
C222 C221 1.287 . S
C222 C223 1.524 . S
C222 H241 0.913 . S
C223 H199 0.950 . S
C223 C222 1.524 . S
C223 C224 1.415 . S
C224 H200 0.950 . S
C224 C219 1.363 . S
C224 C223 1.415 . S
C225 H201 0.951 . S
C225 C226 1.366 . S
C225 C227 1.388 . S
C226 C225 1.366 . S
C226 C230 1.385 . S
C227 H202 0.951 . S
C227 C225 1.388 . S
C227 C228 1.366 . S
C228 C227 1.366 . S
C228 C229 1.414 . S
C228 C231 1.499 . S
C229 H203 0.950 . S
C229 C228 1.414 . S
C229 C230 1.374 . S
C230 H204 0.950 . S
C230 C226 1.385 . S
C230 C229 1.374 . S
C231 C228 1.499 . S
C231 C232 1.373 . S
C231 C233 1.389 . S
C232 H205 0.950 . S
C232 C218 1.377 . S
C232 C231 1.373 . S
C233 C217 1.377 . S
C233 C231 1.389 . S
C233 C234 1.524 . S
C234 C233 1.524 . S
C234 C235 1.397 . S
C234 C239 1.363 . S
C235 H206 0.950 . S
C235 C234 1.397 . S
C235 C236 1.334 . S
C236 H207 0.950 . S
C236 C235 1.334 . S
C236 C237 1.287 . S
C237 C236 1.287 . S
C237 C238 1.524 . S
C237 H240 0.999 . S
C238 H208 0.950 . S
C238 C237 1.524 . S
C238 C239 1.415 . S
C239 H209 0.950 . S
C239 C234 1.363 . S
C239 C238 1.415 . S
H240 C237 0.999 . S
H241 C222 0.913 . S
H242 C260 0.951 . S
H243 C262 0.951 . S
H244 C264 0.950 . S
H245 C265 0.950 . S
H246 C267 0.950 . S
H247 C270 0.950 . S
H248 C271 0.950 . S
H249 C273 0.950 . S
H250 C274 0.950 . S
H251 C275 0.951 . S
H252 C277 0.951 . S
H253 C279 0.950 . S
H254 C280 0.950 . S
H255 C282 0.950 . S
H256 C285 0.950 . S
H257 C286 0.950 . S
H258 C288 0.950 . S
H259 C289 0.950 . S
C260 H242 0.951 . S
C260 C261 1.366 . S
C260 C262 1.388 . S
C261 C260 1.366 . S
C261 C265 1.385 . S
C262 H243 0.951 . S
C262 C260 1.388 . S
C262 C263 1.366 . S
C263 C262 1.366 . S
C263 C264 1.414 . S
C263 C266 1.499 . S
C264 H244 0.950 . S
C264 C263 1.414 . S
C264 C265 1.374 . S
C265 H245 0.950 . S
C265 C261 1.385 . S
C265 C264 1.374 . S
C266 C263 1.499 . S
C266 C267 1.373 . S
C266 C268 1.389 . S
C267 H246 0.950 . S
C267 C266 1.373 . S
C267 C283 1.377 . S
C268 C266 1.389 . S
C268 C269 1.524 . S
C268 C282 1.377 . S
C269 C268 1.524 . S
C269 C270 1.397 . S
C269 C274 1.363 . S
C270 H247 0.950 . S
C270 C269 1.397 . S
C270 C271 1.334 . S
C271 H248 0.950 . S
C271 C270 1.334 . S
C271 C272 1.287 . S
C272 C271 1.287 . S
C272 C273 1.524 . S
C272 H291 0.913 . S
C273 H249 0.950 . S
C273 C272 1.524 . S
C273 C274 1.415 . S
C274 H250 0.950 . S
C274 C269 1.363 . S
C274 C273 1.415 . S
C275 H251 0.951 . S
C275 C276 1.366 . S
C275 C277 1.388 . S
C276 C275 1.366 . S
C276 C280 1.385 . S
C277 H252 0.951 . S
C277 C275 1.388 . S
C277 C278 1.366 . S
C278 C277 1.366 . S
C278 C279 1.414 . S
C278 C281 1.499 . S
C279 H253 0.950 . S
C279 C278 1.414 . S
C279 C280 1.374 . S
C280 H254 0.950 . S
C280 C276 1.385 . S
C280 C279 1.374 . S
C281 C278 1.499 . S
C281 C282 1.373 . S
C281 C283 1.389 . S
C282 H255 0.950 . S
C282 C268 1.377 . S
C282 C281 1.373 . S
C283 C267 1.377 . S
C283 C281 1.389 . S
C283 C284 1.524 . S
C284 C283 1.524 . S
C284 C285 1.397 . S
C284 C289 1.363 . S
C285 H256 0.950 . S
C285 C284 1.397 . S
C285 C286 1.334 . S
C286 H257 0.950 . S
C286 C285 1.334 . S
C286 C287 1.287 . S
C287 C286 1.287 . S
C287 C288 1.524 . S
C287 H290 0.999 . S
C288 H258 0.950 . S
C288 C287 1.524 . S
C288 C289 1.415 . S
C289 H259 0.950 . S
C289 C284 1.363 . S
C289 C288 1.415 . S
H290 C287 0.999 . S
H291 C272 0.913 . S
H292 C310 0.951 . S
H293 C312 0.951 . S
H294 C314 0.950 . S
H295 C315 0.950 . S
H296 C317 0.950 . S
H297 C320 0.950 . S
H298 C321 0.950 . S
H299 C323 0.950 . S
H300 C324 0.950 . S
H301 C325 0.951 . S
H302 C327 0.951 . S
H303 C329 0.950 . S
H304 C330 0.950 . S
H305 C332 0.950 . S
H306 C335 0.950 . S
H307 C336 0.950 . S
H308 C338 0.950 . S
H309 C339 0.950 . S
C310 H292 0.951 . S
C310 C311 1.366 . S
C310 C312 1.388 . S
C311 C310 1.366 . S
C311 C315 1.385 . S
C312 H293 0.951 . S
C312 C310 1.388 . S
C312 C313 1.366 . S
C313 C312 1.366 . S
C313 C314 1.414 . S
C313 C316 1.499 . S
C314 H294 0.950 . S
C314 C313 1.414 . S
C314 C315 1.374 . S
C315 H295 0.950 . S
C315 C311 1.385 . S
C315 C314 1.374 . S
C316 C313 1.499 . S
C316 C317 1.373 . S
C316 C318 1.389 . S
C317 H296 0.950 . S
C317 C316 1.373 . S
C317 C333 1.377 . S
C318 C316 1.389 . S
C318 C319 1.524 . S
C318 C332 1.377 . S
C319 C318 1.524 . S
C319 C320 1.397 . S
C319 C324 1.363 . S
C320 H297 0.950 . S
C320 C319 1.397 . S
C320 C321 1.334 . S
C321 H298 0.950 . S
C321 C320 1.334 . S
C321 C322 1.287 . S
C322 C321 1.287 . S
C322 C323 1.524 . S
C322 H341 0.913 . S
C323 H299 0.950 . S
C323 C322 1.524 . S
C323 C324 1.415 . S
C324 H300 0.950 . S
C324 C319 1.363 . S
C324 C323 1.415 . S
C325 H301 0.951 . S
C325 C326 1.366 . S
C325 C327 1.388 . S
C326 C325 1.366 . S
C326 C330 1.385 . S
C327 H302 0.951 . S
C327 C325 1.388 . S
C327 C328 1.366 . S
C328 C327 1.366 . S
C328 C329 1.414 . S
C328 C331 1.499 . S
C329 H303 0.950 . S
C329 C328 1.414 . S
C329 C330 1.374 . S
C330 H304 0.950 . S
C330 C326 1.385 . S
C330 C329 1.374 . S
C331 C328 1.499 . S
C331 C332 1.373 . S
C331 C333 1.389 . S
C332 H305 0.950 . S
C332 C318 1.377 . S
C332 C331 1.373 . S
C333 C317 1.377 . S
C333 C331 1.389 . S
C333 C334 1.524 . S
C334 C333 1.524 . S
C334 C335 1.397 . S
C334 C339 1.363 . S
C335 H306 0.950 . S
C335 C334 1.397 . S
C335 C336 1.334 . S
C336 H307 0.950 . S
C336 C335 1.334 . S
C336 C337 1.287 . S
C337 C336 1.287 . S
C337 C338 1.524 . S
C337 H340 0.999 . S
C338 H308 0.950 . S
C338 C337 1.524 . S
C338 C339 1.415 . S
C339 H309 0.950 . S
C339 C334 1.363 . S
C339 C338 1.415 . S
H340 C337 0.999 . S
H341 C322 0.913 . S
H342 C360 0.951 . S
H343 C362 0.951 . S
H344 C364 0.950 . S
H345 C365 0.950 . S
H346 C367 0.950 . S
H347 C370 0.950 . S
H348 C371 0.950 . S
H349 C373 0.950 . S
H350 C374 0.950 . S
H351 C375 0.951 . S
H352 C377 0.951 . S
H353 C379 0.950 . S
H354 C380 0.950 . S
H355 C382 0.950 . S
H356 C385 0.950 . S
H357 C386 0.950 . S
H358 C388 0.950 . S
H359 C389 0.950 . S
C360 H342 0.951 . S
C360 C361 1.366 . S
C360 C362 1.388 . S
C361 C360 1.366 . S
C361 C365 1.385 . S
C362 H343 0.951 . S
C362 C360 1.388 . S
C362 C363 1.366 . S
C363 C362 1.366 . S
C363 C364 1.414 . S
C363 C366 1.499 . S
C364 H344 0.950 . S
C364 C363 1.414 . S
C364 C365 1.374 . S
C365 H345 0.950 . S
C365 C361 1.385 . S
C365 C364 1.374 . S
C366 C363 1.499 . S
C366 C367 1.373 . S
C366 C368 1.389 . S
C367 H346 0.950 . S
C367 C366 1.373 . S
C367 C383 1.377 . S
C368 C366 1.389 . S
C368 C369 1.524 . S
C368 C382 1.377 . S
C369 C368 1.524 . S
C369 C370 1.397 . S
C369 C374 1.363 . S
C370 H347 0.950 . S
C370 C369 1.397 . S
C370 C371 1.334 . S
C371 H348 0.950 . S
C371 C370 1.334 . S
C371 C372 1.287 . S
C372 C371 1.287 . S
C372 C373 1.524 . S
C372 H391 0.913 . S
C373 H349 0.950 . S
C373 C372 1.524 . S
C373 C374 1.415 . S
C374 H350 0.950 . S
C374 C369 1.363 . S
C374 C373 1.415 . S
C375 H351 0.951 . S
C375 C376 1.366 . S
C375 C377 1.388 . S
C376 C375 1.366 . S
C376 C380 1.385 . S
C377 H352 0.951 . S
C377 C375 1.388 . S
C377 C378 1.366 . S
C378 C377 1.366 . S
C378 C379 1.414 . S
C378 C381 1.499 . S
C379 H353 0.950 . S
C379 C378 1.414 . S
C379 C380 1.374 . S
C380 H354 0.950 . S
C380 C376 1.385 . S
C380 C379 1.374 . S
C381 C378 1.499 . S
C381 C382 1.373 . S
C381 C383 1.389 . S
C382 H355 0.950 . S
C382 C368 1.377 . S
C382 C381 1.373 . S
C383 C367 1.377 . S
C383 C381 1.389 . S
C383 C384 1.524 . S
C384 C383 1.524 . S
C384 C385 1.397 . S
C384 C389 1.363 . S
C385 H356 0.950 . S
C385 C384 1.397 . S
C385 C386 1.334 . S
C386 H357 0.950 . S
C386 C385 1.334 . S
C386 C387 1.287 . S
C387 C386 1.287 . S
C387 C388 1.524 . S
C387 H390 0.999 . S
C388 H358 0.950 . S
C388 C387 1.524 . S
C388 C389 1.415 . S
C389 H359 0.950 . S
C389 C384 1.363 . S
C389 C388 1.415 . S
H390 C387 0.999 . S
H391 C372 0.913 . S
H392 C410 0.951 . S
H393 C412 0.951 . S
H394 C414 0.950 . S
H395 C415 0.950 . S
H396 C417 0.950 . S
H397 C420 0.950 . S
H398 C421 0.950 . S
H399 C423 0.950 . S
H400 C424 0.950 . S
H401 C425 0.951 . S
H402 C427 0.951 . S
H403 C429 0.950 . S
H404 C430 0.950 . S
H405 C432 0.950 . S
H406 C435 0.950 . S
H407 C436 0.950 . S
H408 C438 0.950 . S
H409 C439 0.950 . S
C410 H392 0.951 . S
C410 C411 1.366 . S
C410 C412 1.388 . S
C411 C410 1.366 . S
C411 C415 1.385 . S
C412 H393 0.951 . S
C412 C410 1.388 . S
C412 C413 1.366 . S
C413 C412 1.366 . S
C413 C414 1.414 . S
C413 C416 1.499 . S
C414 H394 0.950 . S
C414 C413 1.414 . S
C414 C415 1.374 . S
C415 H395 0.950 . S
C415 C411 1.385 . S
C415 C414 1.374 . S
C416 C413 1.499 . S
C416 C417 1.373 . S
C416 C418 1.389 . S
C417 H396 0.950 . S
C417 C416 1.373 . S
C417 C433 1.377 . S
C418 C416 1.389 . S
C418 C419 1.524 . S
C418 C432 1.377 . S
C419 C418 1.524 . S
C419 C420 1.397 . S
C419 C424 1.363 . S
C420 H397 0.950 . S
C420 C419 1.397 . S
C420 C421 1.334 . S
C421 H398 0.950 . S
C421 C420 1.334 . S
C421 C422 1.287 . S
C422 C421 1.287 . S
C422 C423 1.524 . S
C422 H441 0.913 . S
C423 H399 0.950 . S
C423 C422 1.524 . S
C423 C424 1.415 . S
C424 H400 0.950 . S
C424 C419 1.363 . S
C424 C423 1.415 . S
C425 H401 0.951 . S
C425 C426 1.366 . S
C425 C427 1.388 . S
C426 C425 1.366 . S
C426 C430 1.385 . S
C427 H402 0.951 . S
C427 C425 1.388 . S
C427 C428 1.366 . S
C428 C427 1.366 . S
C428 C429 1.414 . S
C428 C431 1.499 . S
C429 H403 0.950 . S
C429 C428 1.414 . S
C429 C430 1.374 . S
C430 H404 0.950 . S
C430 C426 1.385 . S
C430 C429 1.374 . S
C431 C428 1.499 . S
C431 C432 1.373 . S
C431 C433 1.389 . S
C432 H405 0.950 . S
C432 C418 1.377 . S
C432 C431 1.373 . S
C433 C417 1.377 . S
C433 C431 1.389 . S
C433 C434 1.524 . S
C434 C433 1.524 . S
C434 C435 1.397 . S
C434 C439 1.363 . S
C435 H406 0.950 . S
C435 C434 1.397 . S
C435 C436 1.334 . S
C436 H407 0.950 . S
C436 C435 1.334 . S
C436 C437 1.287 . S
C437 C436 1.287 . S
C437 C438 1.524 . S
C437 H440 0.999 . S
C438 H408 0.950 . S
C438 C437 1.524 . S
C438 C439 1.415 . S
C439 H409 0.950 . S
C439 C434 1.363 . S
C439 C438 1.415 . S
H440 C437 0.999 . S
H441 C422 0.913 . S
H442 C460 0.951 . S
H443 C462 0.951 . S
H444 C464 0.950 . S
H445 C465 0.950 . S
H446 C467 0.950 . S
H447 C470 0.950 . S
H448 C471 0.950 . S
H449 C473 0.950 . S
H450 C474 0.950 . S
H451 C475 0.951 . S
H452 C477 0.951 . S
H453 C479 0.950 . S
H454 C480 0.950 . S
H455 C482 0.950 . S
H456 C485 0.950 . S
H457 C486 0.950 . S
H458 C488 0.950 . S
H459 C489 0.950 . S
C460 H442 0.951 . S
C460 C461 1.366 . S
C460 C462 1.388 . S
C461 C460 1.366 . S
C461 C465 1.385 . S
C462 H443 0.951 . S
C462 C460 1.388 . S
C462 C463 1.366 . S
C463 C462 1.366 . S
C463 C464 1.414 . S
C463 C466 1.499 . S
C464 H444 0.950 . S
C464 C463 1.414 . S
C464 C465 1.374 . S
C465 H445 0.950 . S
C465 C461 1.385 . S
C465 C464 1.374 . S
C466 C463 1.499 . S
C466 C467 1.373 . S
C466 C468 1.389 . S
C467 H446 0.950 . S
C467 C466 1.373 . S
C467 C483 1.377 . S
C468 C466 1.389 . S
C468 C469 1.524 . S
C468 C482 1.377 . S
C469 C468 1.524 . S
C469 C470 1.397 . S
C469 C474 1.363 . S
C470 H447 0.950 . S
C470 C469 1.397 . S
C470 C471 1.334 . S
C471 H448 0.950 . S
C471 C470 1.334 . S
C471 C472 1.287 . S
C472 C471 1.287 . S
C472 C473 1.524 . S
C472 H491 0.913 . S
C473 H449 0.950 . S
C473 C472 1.524 . S
C473 C474 1.415 . S
C474 H450 0.950 . S
C474 C469 1.363 . S
C474 C473 1.415 . S
C475 H451 0.951 . S
C475 C476 1.366 . S
C475 C477 1.388 . S
C476 C475 1.366 . S
C476 C480 1.385 . S
C477 H452 0.951 . S
C477 C475 1.388 . S
C477 C478 1.366 . S
C478 C477 1.366 . S
C478 C479 1.414 . S
C478 C481 1.499 . S
C479 H453 0.950 . S
C479 C478 1.414 . S
C479 C480 1.374 . S
C480 H454 0.950 . S
C480 C476 1.385 . S
C480 C479 1.374 . S
C481 C478 1.499 . S
C481 C482 1.373 . S
C481 C483 1.389 . S
C482 H455 0.950 . S
C482 C468 1.377 . S
C482 C481 1.373 . S
C483 C467 1.377 . S
C483 C481 1.389 . S
C483 C484 1.524 . S
C484 C483 1.524 . S
C484 C485 1.397 . S
C484 C489 1.363 . S
C485 H456 0.950 . S
C485 C484 1.397 . S
C485 C486 1.334 . S
C486 H457 0.950 . S
C486 C485 1.334 . S
C486 C487 1.287 . S
C487 C486 1.287 . S
C487 C488 1.524 . S
C487 H490 0.999 . S
C488 H458 0.950 . S
C488 C487 1.524 . S
C488 C489 1.415 . S
C489 H459 0.950 . S
C489 C484 1.363 . S
C489 C488 1.415 . S
H490 C487 0.999 . S
H491 C472 0.913 . S
H492 C510 0.951 . S
H493 C512 0.951 . S
H494 C514 0.950 . S
H495 C515 0.950 . S
H496 C517 0.950 . S
H497 C520 0.950 . S
H498 C521 0.950 . S
H499 C523 0.950 . S
H500 C524 0.950 . S
H501 C525 0.951 . S
H502 C527 0.951 . S
H503 C529 0.950 . S
H504 C530 0.950 . S
H505 C532 0.950 . S
H506 C535 0.950 . S
H507 C536 0.950 . S
H508 C538 0.950 . S
H509 C539 0.950 . S
C510 H492 0.951 . S
C510 C511 1.366 . S
C510 C512 1.388 . S
C511 C510 1.366 . S
C511 C515 1.385 . S
C512 H493 0.951 . S
C512 C510 1.388 . S
C512 C513 1.366 . S
C513 C512 1.366 . S
C513 C514 1.414 . S
C513 C516 1.499 . S
C514 H494 0.950 . S
C514 C513 1.414 . S
C514 C515 1.374 . S
C515 H495 0.950 . S
C515 C511 1.385 . S
C515 C514 1.374 . S
C516 C513 1.499 . S
C516 C517 1.373 . S
C516 C518 1.389 . S
C517 H496 0.950 . S
C517 C516 1.373 . S
C517 C533 1.377 . S
C518 C516 1.389 . S
C518 C519 1.524 . S
C518 C532 1.377 . S
C519 C518 1.524 . S
C519 C520 1.397 . S
C519 C524 1.363 . S
C520 H497 0.950 . S
C520 C519 1.397 . S
C520 C521 1.334 . S
C521 H498 0.950 . S
C521 C520 1.334 . S
C521 C522 1.287 . S
C522 C521 1.287 . S
C522 C523 1.524 . S
C522 H541 0.913 . S
C523 H499 0.950 . S
C523 C522 1.524 . S
C523 C524 1.415 . S
C524 H500 0.950 . S
C524 C519 1.363 . S
C524 C523 1.415 . S
C525 H501 0.951 . S
C525 C526 1.366 . S
C525 C527 1.388 . S
C526 C525 1.366 . S
C526 C530 1.385 . S
C527 H502 0.951 . S
C527 C525 1.388 . S
C527 C528 1.366 . S
C528 C527 1.366 . S
C528 C529 1.414 . S
C528 C531 1.499 . S
C529 H503 0.950 . S
C529 C528 1.414 . S
C529 C530 1.374 . S
C530 H504 0.950 . S
C530 C526 1.385 . S
C530 C529 1.374 . S
C531 C528 1.499 . S
C531 C532 1.373 . S
C531 C533 1.389 . S
C532 H505 0.950 . S
C532 C518 1.377 . S
C532 C531 1.373 . S
C533 C517 1.377 . S
C533 C531 1.389 . S
C533 C534 1.524 . S
C534 C533 1.524 . S
C534 C535 1.397 . S
C534 C539 1.363 . S
C535 H506 0.950 . S
C535 C534 1.397 . S
C535 C536 1.334 . S
C536 H507 0.950 . S
C536 C535 1.334 . S
C536 C537 1.287 . S
C537 C536 1.287 . S
C537 C538 1.524 . S
C537 H540 0.999 . S
C538 H508 0.950 . S
C538 C537 1.524 . S
C538 C539 1.415 . S
C539 H509 0.950 . S
C539 C534 1.363 . S
C539 C538 1.415 . S
H540 C537 0.999 . S
H541 C522 0.913 . S
H542 C560 0.951 . S
H543 C562 0.951 . S
H544 C564 0.950 . S
H545 C565 0.950 . S
H546 C567 0.950 . S
H547 C570 0.950 . S
H548 C571 0.950 . S
H549 C573 0.950 . S
H550 C574 0.950 . S
H551 C575 0.951 . S
H552 C577 0.951 . S
H553 C579 0.950 . S
H554 C580 0.950 . S
H555 C582 0.950 . S
H556 C585 0.950 . S
H557 C586 0.950 . S
H558 C588 0.950 . S
H559 C589 0.950 . S
C560 H542 0.951 . S
C560 C561 1.366 . S
C560 C562 1.388 . S
C561 C560 1.366 . S
C561 C565 1.385 . S
C562 H543 0.951 . S
C562 C560 1.388 . S
C562 C563 1.366 . S
C563 C562 1.366 . S
C563 C564 1.414 . S
C563 C566 1.499 . S
C564 H544 0.950 . S
C564 C563 1.414 . S
C564 C565 1.374 . S
C565 H545 0.950 . S
C565 C561 1.385 . S
C565 C564 1.374 . S
C566 C563 1.499 . S
C566 C567 1.373 . S
C566 C568 1.389 . S
C567 H546 0.950 . S
C567 C566 1.373 . S
C567 C583 1.377 . S
C568 C566 1.389 . S
C568 C569 1.524 . S
C568 C582 1.377 . S
C569 C568 1.524 . S
C569 C570 1.397 . S
C569 C574 1.363 . S
C570 H547 0.950 . S
C570 C569 1.397 . S
C570 C571 1.334 . S
C571 H548 0.950 . S
C571 C570 1.334 . S
C571 C572 1.287 . S
C572 C571 1.287 . S
C572 C573 1.524 . S
C572 H591 0.913 . S
C573 H549 0.950 . S
C573 C572 1.524 . S
C573 C574 1.415 . S
C574 H550 0.950 . S
C574 C569 1.363 . S
C574 C573 1.415 . S
C575 H551 0.951 . S
C575 C576 1.366 . S
C575 C577 1.388 . S
C576 C575 1.366 . S
C576 C580 1.385 . S
C577 H552 0.951 . S
C577 C575 1.388 . S
C577 C578 1.366 . S
C578 C577 1.366 . S
C578 C579 1.414 . S
C578 C581 1.499 . S
C579 H553 0.950 . S
C579 C578 1.414 . S
C579 C580 1.374 . S
C580 H554 0.950 . S
C580 C576 1.385 . S
C580 C579 1.374 . S
C581 C578 1.499 . S
C581 C582 1.373 . S
C581 C583 1.389 . S
C582 H555 0.950 . S
C582 C568 1.377 . S
C582 C581 1.373 . S
C583 C567 1.377 . S
C583 C581 1.389 . S
C583 C584 1.524 . S
C584 C583 1.524 . S
C584 C585 1.397 . S
C584 C589 1.363 . S
C585 H556 0.950 . S
C585 C584 1.397 . S
C585 C586 1.334 . S
C586 H557 0.950 . S
C586 C585 1.334 . S
C586 C587 1.287 . S
C587 C586 1.287 . S
C587 C588 1.524 . S
C587 H590 0.999 . S
C588 H558 0.950 . S
C588 C587 1.524 . S
C588 C589 1.415 . S
C589 H559 0.950 . S
C589 C584 1.363 . S
C589 C588 1.415 . S
H590 C587 0.999 . S
H591 C572 0.913 . S
H592 C610 0.951 . S
H593 C612 0.951 . S
H594 C614 0.950 . S
H595 C615 0.950 . S
H596 C617 0.950 . S
H597 C620 0.950 . S
H598 C621 0.950 . S
H599 C623 0.950 . S
H600 C624 0.950 . S
H601 C625 0.951 . S
H602 C627 0.951 . S
H603 C629 0.950 . S
H604 C630 0.950 1_545 S
H605 C632 0.950 . S
H606 C635 0.950 . S
H607 C636 0.950 1_545 S
H608 C638 0.950 . S
H609 C639 0.950 . S
C610 H592 0.951 . S
C610 C611 1.366 . S
C610 C612 1.388 . S
C611 C610 1.366 . S
C611 C615 1.385 . S
C612 H593 0.951 . S
C612 C610 1.388 . S
C612 C613 1.366 . S
C613 C612 1.366 . S
C613 C614 1.414 . S
C613 C616 1.499 . S
C614 H594 0.950 . S
C614 C613 1.414 . S
C614 C615 1.374 . S
C615 H595 0.950 . S
C615 C611 1.385 . S
C615 C614 1.374 . S
C616 C613 1.499 . S
C616 C617 1.373 . S
C616 C618 1.389 . S
C617 H596 0.950 . S
C617 C616 1.373 . S
C617 C633 1.377 . S
C618 C616 1.389 . S
C618 C619 1.524 . S
C618 C632 1.377 . S
C619 C618 1.524 . S
C619 C620 1.397 . S
C619 C624 1.363 . S
C620 H597 0.950 . S
C620 C619 1.397 . S
C620 C621 1.334 . S
C621 H598 0.950 . S
C621 C620 1.334 . S
C621 C622 1.287 . S
C622 C621 1.287 . S
C622 C623 1.524 . S
C622 H641 0.913 . S
C623 H599 0.950 . S
C623 C622 1.524 . S
C623 C624 1.415 . S
C624 H600 0.950 . S
C624 C619 1.363 . S
C624 C623 1.415 . S
C625 H601 0.951 . S
C625 C626 1.366 1_565 S
C625 C627 1.388 . S
C626 C625 1.366 1_545 S
C626 C630 1.385 1_545 S
C627 H602 0.951 . S
C627 C625 1.388 . S
C627 C628 1.366 . S
C628 C627 1.366 . S
C628 C629 1.414 . S
C628 C631 1.499 . S
C629 H603 0.950 . S
C629 C628 1.414 . S
C629 C630 1.374 . S
C630 H604 0.950 1_565 S
C630 C626 1.385 1_565 S
C630 C629 1.374 . S
C631 C628 1.499 . S
C631 C632 1.373 . S
C631 C633 1.389 . S
C632 H605 0.950 . S
C632 C618 1.377 . S
C632 C631 1.373 . S
C633 C617 1.377 . S
C633 C631 1.389 . S
C633 C634 1.524 . S
C634 C633 1.524 . S
C634 C635 1.397 . S
C634 C639 1.363 . S
C635 H606 0.950 . S
C635 C634 1.397 . S
C635 C636 1.334 . S
C636 H607 0.950 1_565 S
C636 C635 1.334 . S
C636 C637 1.287 . S
C637 C636 1.287 . S
C637 C638 1.524 . S
C637 H640 0.999 . S
C638 H608 0.950 . S
C638 C637 1.524 . S
C638 C639 1.415 . S
C639 H609 0.950 . S
C639 C634 1.363 . S
C639 C638 1.415 . S
H640 C637 0.999 . S
H641 C622 0.913 . S
H642 C660 0.951 . S
H643 C662 0.951 . S
H644 C664 0.950 . S
H645 C665 0.950 . S
H646 C667 0.950 . S
H647 C670 0.950 . S
H648 C671 0.950 . S
H649 C673 0.950 . S
H650 C674 0.950 . S
H651 C675 0.951 . S
H652 C677 0.951 . S
H653 C679 0.950 . S
H654 C680 0.950 . S
H655 C682 0.950 . S
H656 C685 0.950 . S
H657 C686 0.950 . S
H658 C688 0.950 . S
H659 C689 0.950 . S
C660 H642 0.951 . S
C660 C661 1.366 . S
C660 C662 1.388 . S
C661 C660 1.366 . S
C661 C665 1.385 . S
C662 H643 0.951 . S
C662 C660 1.388 . S
C662 C663 1.366 . S
C663 C662 1.366 . S
C663 C664 1.414 . S
C663 C666 1.499 . S
C664 H644 0.950 . S
C664 C663 1.414 . S
C664 C665 1.374 . S
C665 H645 0.950 . S
C665 C661 1.385 . S
C665 C664 1.374 . S
C666 C663 1.499 . S
C666 C667 1.373 . S
C666 C668 1.389 . S
C667 H646 0.950 . S
C667 C666 1.373 . S
C667 C683 1.377 . S
C668 C666 1.389 . S
C668 C669 1.524 . S
C668 C682 1.377 . S
C669 C668 1.524 . S
C669 C670 1.397 . S
C669 C674 1.363 . S
C670 H647 0.950 . S
C670 C669 1.397 . S
C670 C671 1.334 . S
C671 H648 0.950 . S
C671 C670 1.334 . S
C671 C672 1.287 . S
C672 C671 1.287 . S
C672 C673 1.524 . S
C672 H691 0.913 . S
C673 H649 0.950 . S
C673 C672 1.524 . S
C673 C674 1.415 . S
C674 H650 0.950 . S
C674 C669 1.363 . S
C674 C673 1.415 . S
C675 H651 0.951 . S
C675 C676 1.366 . S
C675 C677 1.388 . S
C676 C675 1.366 . S
C676 C680 1.385 . S
C677 H652 0.951 . S
C677 C675 1.388 . S
C677 C678 1.366 . S
C678 C677 1.366 . S
C678 C679 1.414 . S
C678 C681 1.499 . S
C679 H653 0.950 . S
C679 C678 1.414 . S
C679 C680 1.374 . S
C680 H654 0.950 . S
C680 C676 1.385 . S
C680 C679 1.374 . S
C681 C678 1.499 . S
C681 C682 1.373 . S
C681 C683 1.389 . S
C682 H655 0.950 . S
C682 C668 1.377 . S
C682 C681 1.373 . S
C683 C667 1.377 . S
C683 C681 1.389 . S
C683 C684 1.524 . S
C684 C683 1.524 . S
C684 C685 1.397 . S
C684 C689 1.363 . S
C685 H656 0.950 . S
C685 C684 1.397 . S
C685 C686 1.334 . S
C686 H657 0.950 . S
C686 C685 1.334 . S
C686 C687 1.287 . S
C687 C686 1.287 . S
C687 C688 1.524 . S
C687 H690 0.999 . S
C688 H658 0.950 . S
C688 C687 1.524 . S
C688 C689 1.415 . S
C689 H659 0.950 . S
C689 C684 1.363 . S
C689 C688 1.415 . S
H690 C687 0.999 . S
H691 C672 0.913 . S
H692 C710 0.951 . S
H693 C712 0.951 . S
H694 C714 0.950 . S
H695 C715 0.950 . S
H696 C717 0.950 . S
H697 C720 0.950 . S
H698 C721 0.950 . S
H699 C723 0.950 . S
H700 C724 0.950 . S
H701 C725 0.951 . S
H702 C727 0.951 . S
H703 C729 0.950 . S
H704 C730 0.950 . S
H705 C732 0.950 . S
H706 C735 0.950 . S
H707 C736 0.950 . S
H708 C738 0.950 . S
H709 C739 0.950 . S
C710 H692 0.951 . S
C710 C711 1.366 . S
C710 C712 1.388 . S
C711 C710 1.366 . S
C711 C715 1.385 . S
C712 H693 0.951 . S
C712 C710 1.388 . S
C712 C713 1.366 . S
C713 C712 1.366 . S
C713 C714 1.414 . S
C713 C716 1.499 . S
C714 H694 0.950 . S
C714 C713 1.414 . S
C714 C715 1.374 . S
C715 H695 0.950 . S
C715 C711 1.385 . S
C715 C714 1.374 . S
C716 C713 1.499 . S
C716 C717 1.373 . S
C716 C718 1.389 . S
C717 H696 0.950 . S
C717 C716 1.373 . S
C717 C733 1.377 . S
C718 C716 1.389 . S
C718 C719 1.524 . S
C718 C732 1.377 . S
C719 C718 1.524 . S
C719 C720 1.397 . S
C719 C724 1.363 . S
C720 H697 0.950 . S
C720 C719 1.397 . S
C720 C721 1.334 . S
C721 H698 0.950 . S
C721 C720 1.334 . S
C721 C722 1.287 . S
C722 C721 1.287 . S
C722 C723 1.524 . S
C722 H741 0.913 . S
C723 H699 0.950 . S
C723 C722 1.524 . S
C723 C724 1.415 . S
C724 H700 0.950 . S
C724 C719 1.363 . S
C724 C723 1.415 . S
C725 H701 0.951 . S
C725 C726 1.366 . S
C725 C727 1.388 . S
C726 C725 1.366 . S
C726 C730 1.385 . S
C727 H702 0.951 . S
C727 C725 1.388 . S
C727 C728 1.366 . S
C728 C727 1.366 . S
C728 C729 1.414 . S
C728 C731 1.499 . S
C729 H703 0.950 . S
C729 C728 1.414 . S
C729 C730 1.374 . S
C730 H704 0.950 . S
C730 C726 1.385 . S
C730 C729 1.374 . S
C731 C728 1.499 . S
C731 C732 1.373 . S
C731 C733 1.389 . S
C732 H705 0.950 . S
C732 C718 1.377 . S
C732 C731 1.373 . S
C733 C717 1.377 . S
C733 C731 1.389 . S
C733 C734 1.524 . S
C734 C733 1.524 . S
C734 C735 1.397 . S
C734 C739 1.363 . S
C735 H706 0.950 . S
C735 C734 1.397 . S
C735 C736 1.334 . S
C736 H707 0.950 . S
C736 C735 1.334 . S
C736 C737 1.287 . S
C737 C736 1.287 . S
C737 C738 1.524 . S
C737 H740 0.999 . S
C738 H708 0.950 . S
C738 C737 1.524 . S
C738 C739 1.415 . S
C739 H709 0.950 . S
C739 C734 1.363 . S
C739 C738 1.415 . S
H740 C737 0.999 . S
H741 C722 0.913 . S
H742 C760 0.951 . S
H743 C762 0.951 . S
H744 C764 0.950 . S
H745 C765 0.950 . S
H746 C767 0.950 . S
H747 C770 0.950 . S
H748 C771 0.950 . S
H749 C773 0.950 . S
H750 C774 0.950 . S
H751 C775 0.951 . S
H752 C777 0.951 . S
H753 C779 0.950 . S
H754 C780 0.950 . S
H755 C782 0.950 . S
H756 C785 0.950 . S
H757 C786 0.950 . S
H758 C788 0.950 . S
H759 C789 0.950 . S
C760 H742 0.951 . S
C760 C761 1.366 . S
C760 C762 1.388 . S
C761 C760 1.366 . S
C761 C765 1.385 . S
C762 H743 0.951 . S
C762 C760 1.388 . S
C762 C763 1.366 . S
C763 C762 1.366 . S
C763 C764 1.414 . S
C763 C766 1.499 . S
C764 H744 0.950 . S
C764 C763 1.414 . S
C764 C765 1.374 . S
C765 H745 0.950 . S
C765 C761 1.385 . S
C765 C764 1.374 . S
C766 C763 1.499 . S
C766 C767 1.373 . S
C766 C768 1.389 . S
C767 H746 0.950 . S
C767 C766 1.373 . S
C767 C783 1.377 . S
C768 C766 1.389 . S
C768 C769 1.524 . S
C768 C782 1.377 . S
C769 C768 1.524 . S
C769 C770 1.397 . S
C769 C774 1.363 . S
C770 H747 0.950 . S
C770 C769 1.397 . S
C770 C771 1.334 . S
C771 H748 0.950 . S
C771 C770 1.334 . S
C771 C772 1.287 . S
C772 C771 1.287 . S
C772 C773 1.524 . S
C772 H791 0.913 . S
C773 H749 0.950 . S
C773 C772 1.524 . S
C773 C774 1.415 . S
C774 H750 0.950 . S
C774 C769 1.363 . S
C774 C773 1.415 . S
C775 H751 0.951 . S
C775 C776 1.366 . S
C775 C777 1.388 . S
C776 C775 1.366 . S
C776 C780 1.385 . S
C777 H752 0.951 . S
C777 C775 1.388 . S
C777 C778 1.366 . S
C778 C777 1.366 . S
C778 C779 1.414 . S
C778 C781 1.499 . S
C779 H753 0.950 . S
C779 C778 1.414 . S
C779 C780 1.374 . S
C780 H754 0.950 . S
C780 C776 1.385 . S
C780 C779 1.374 . S
C781 C778 1.499 . S
C781 C782 1.373 . S
C781 C783 1.389 . S
C782 H755 0.950 . S
C782 C768 1.377 . S
C782 C781 1.373 . S
C783 C767 1.377 . S
C783 C781 1.389 . S
C783 C784 1.524 . S
C784 C783 1.524 . S
C784 C785 1.397 . S
C784 C789 1.363 . S
C785 H756 0.950 . S
C785 C784 1.397 . S
C785 C786 1.334 . S
C786 H757 0.950 . S
C786 C785 1.334 . S
C786 C787 1.287 . S
C787 C786 1.287 . S
C787 C788 1.524 . S
C787 H790 0.999 . S
C788 H758 0.950 . S
C788 C787 1.524 . S
C788 C789 1.415 . S
C789 H759 0.950 . S
C789 C784 1.363 . S
C789 C788 1.415 . S
H790 C787 0.999 . S
H791 C772 0.913 . S
H792 C810 0.951 . S
H793 C812 0.951 . S
H794 C814 0.950 1_655 S
H795 C815 0.950 1_655 S
H796 C817 0.950 . S
H797 C820 0.947 1_655 S
H798 C821 0.950 . S
H799 C823 0.950 . S
H800 C824 0.950 . S
H801 C825 0.951 . S
H802 C827 0.951 . S
H803 C829 0.950 . S
H804 C830 0.950 . S
H805 C832 0.924 1_556 S
H806 C835 0.950 . S
H807 C836 0.950 . S
H808 C838 0.950 . S
H809 C839 0.950 1_554 S
C810 H792 0.951 . S
C810 C811 1.366 . S
C810 C812 1.388 . S
C811 C810 1.366 . S
C811 C815 1.385 . S
C812 H793 0.951 . S
C812 C810 1.388 . S
C812 C813 1.366 . S
C813 C812 1.366 . S
C813 C814 1.414 . S
C813 C816 1.499 . S
C814 H794 0.950 1_455 S
C814 C813 1.414 . S
C814 C815 1.374 . S
C815 H795 0.950 1_455 S
C815 C811 1.385 . S
C815 C814 1.374 . S
C816 C813 1.499 . S
C816 C817 1.373 . S
C816 C818 1.389 . S
C817 H796 0.950 . S
C817 C816 1.373 . S
C817 C833 1.377 . S
C818 C816 1.389 . S
C818 C819 1.524 . S
C818 C832 1.421 . S
C819 C818 1.524 . S
C819 C820 1.397 . S
C819 C824 1.363 . S
C820 H797 0.947 1_455 S
C820 C819 1.397 . S
C820 C821 1.334 . S
C821 H798 0.950 . S
C821 C820 1.334 . S
C821 C822 1.287 . S
C822 C821 1.287 . S
C822 C823 1.524 . S
C822 H841 0.913 . S
C823 H799 0.950 . S
C823 C822 1.524 . S
C823 C824 1.415 . S
C824 H800 0.950 . S
C824 C819 1.363 . S
C824 C823 1.415 . S
C825 H801 0.951 . S
C825 C826 1.366 1_655 S
C825 C827 1.388 . S
C826 C825 1.366 1_455 S
C826 C830 1.385 . S
C827 H802 0.951 . S
C827 C825 1.388 . S
C827 C828 1.366 1_655 S
C828 C827 1.366 1_455 S
C828 C829 1.414 . S
C828 C831 1.499 . S
C829 H803 0.950 . S
C829 C828 1.414 . S
C829 C830 1.374 . S
C830 H804 0.950 . S
C830 C826 1.385 . S
C830 C829 1.374 . S
C831 C828 1.499 . S
C831 C832 1.356 1_556 S
C831 C833 1.389 1_556 S
C832 H805 0.924 1_554 S
C832 C818 1.421 . S
C832 C831 1.356 1_554 S
C833 C817 1.377 . S
C833 C831 1.389 1_554 S
C833 C834 1.524 1_554 S
C834 C833 1.524 1_556 S
C834 C835 1.397 . S
C834 C839 1.363 1_455 S
C835 H806 0.950 . S
C835 C834 1.397 . S
C835 C836 1.334 . S
C836 H807 0.950 . S
C836 C835 1.334 . S
C836 C837 1.287 . S
C837 C836 1.287 . S
C837 C838 1.524 1_455 S
C837 H840 0.999 . S
C838 H808 0.950 . S
C838 C837 1.524 1_655 S
C838 C839 1.415 . S
C839 H809 0.950 1_556 S
C839 C834 1.363 1_655 S
C839 C838 1.415 . S
H840 C837 0.999 . S
H841 C822 0.913 . S
H842 C860 0.951 . S
H843 C862 0.951 . S
H844 C864 0.950 . S
H845 C865 0.950 . S
H846 C867 0.950 . S
H847 C870 0.950 . S
H848 C871 0.950 . S
H849 C873 0.950 . S
H850 C874 0.950 1_545 S
H851 C875 0.951 . S
H852 C877 0.951 . S
H853 C879 0.950 . S
H854 C880 0.950 . S
H855 C882 0.950 . S
H856 C885 0.950 . S
H857 C886 0.950 . S
H858 C888 0.950 . S
H859 C889 0.950 . S
C860 H842 0.951 . S
C860 C861 1.366 . S
C860 C862 1.388 . S
C861 C860 1.366 . S
C861 C865 1.385 . S
C862 H843 0.951 . S
C862 C860 1.388 . S
C862 C863 1.366 . S
C863 C862 1.366 . S
C863 C864 1.414 . S
C863 C866 1.499 . S
C864 H844 0.950 . S
C864 C863 1.414 . S
C864 C865 1.374 . S
C865 H845 0.950 . S
C865 C861 1.385 . S
C865 C864 1.374 . S
C866 C863 1.499 . S
C866 C867 1.373 . S
C866 C868 1.389 . S
C867 H846 0.950 . S
C867 C866 1.373 . S
C867 C883 1.377 . S
C868 C866 1.389 . S
C868 C869 1.533 . S
C868 C882 1.377 . S
C869 C868 1.533 . S
C869 C870 1.384 1_545 S
C869 C874 1.366 1_545 S
C870 H847 0.950 . S
C870 C869 1.384 1_565 S
C870 C871 1.334 . S
C871 H848 0.950 . S
C871 C870 1.334 . S
C871 C872 1.287 . S
C872 C871 1.287 . S
C872 C873 1.524 . S
C872 H891 0.913 . S
C873 H849 0.950 . S
C873 C872 1.524 . S
C873 C874 1.415 . S
C874 H850 0.950 1_565 S
C874 C869 1.366 1_565 S
C874 C873 1.415 . S
C875 H851 0.951 . S
C875 C876 1.366 . S
C875 C877 1.388 . S
C876 C875 1.366 . S
C876 C880 1.385 . S
C877 H852 0.951 . S
C877 C875 1.388 . S
C877 C878 1.366 . S
C878 C877 1.366 . S
C878 C879 1.414 . S
C878 C881 1.499 . S
C879 H853 0.950 . S
C879 C878 1.414 . S
C879 C880 1.374 . S
C880 H854 0.950 . S
C880 C876 1.385 . S
C880 C879 1.374 . S
C881 C878 1.499 . S
C881 C882 1.373 . S
C881 C883 1.389 . S
C882 H855 0.950 . S
C882 C868 1.377 . S
C882 C881 1.373 . S
C883 C867 1.377 . S
C883 C881 1.389 . S
C883 C884 1.524 . S
C884 C883 1.524 . S
C884 C885 1.397 . S
C884 C889 1.363 . S
C885 H856 0.950 . S
C885 C884 1.397 . S
C885 C886 1.334 . S
C886 H857 0.950 . S
C886 C885 1.334 . S
C886 C887 1.287 . S
C887 C886 1.287 . S
C887 C888 1.524 . S
C887 H890 0.999 . S
C888 H858 0.950 . S
C888 C887 1.524 . S
C888 C889 1.415 . S
C889 H859 0.950 . S
C889 C884 1.363 . S
C889 C888 1.415 . S
H890 C887 0.999 . S
H891 C872 0.913 . S
H892 C910 0.951 . S
H893 C912 0.951 . S
H894 C914 0.950 . S
H895 C915 0.950 . S
H896 C917 0.950 . S
H897 C920 0.950 . S
H898 C921 0.950 . S
H899 C923 0.950 . S
H900 C924 0.950 . S
H901 C925 0.951 . S
H902 C927 0.951 . S
H903 C929 0.950 . S
H904 C930 0.950 . S
H905 C932 0.950 . S
H906 C935 0.950 . S
H907 C936 0.950 . S
H908 C938 0.950 . S
H909 C939 0.950 . S
C910 H892 0.951 . S
C910 C911 1.366 . S
C910 C912 1.388 . S
C911 C910 1.366 . S
C911 C915 1.385 . S
C912 H893 0.951 . S
C912 C910 1.388 . S
C912 C913 1.366 . S
C913 C912 1.366 . S
C913 C914 1.414 . S
C913 C916 1.499 . S
C914 H894 0.950 . S
C914 C913 1.414 . S
C914 C915 1.374 . S
C915 H895 0.950 . S
C915 C911 1.385 . S
C915 C914 1.374 . S
C916 C913 1.499 . S
C916 C917 1.373 . S
C916 C918 1.389 . S
C917 H896 0.950 . S
C917 C916 1.373 . S
C917 C933 1.377 . S
C918 C916 1.389 . S
C918 C919 1.524 . S
C918 C932 1.377 . S
C919 C918 1.524 . S
C919 C920 1.397 . S
C919 C924 1.363 . S
C920 H897 0.950 . S
C920 C919 1.397 . S
C920 C921 1.334 . S
C921 H898 0.950 . S
C921 C920 1.334 . S
C921 C922 1.287 . S
C922 C921 1.287 . S
C922 C923 1.524 . S
C922 H941 0.913 . S
C923 H899 0.950 . S
C923 C922 1.524 . S
C923 C924 1.415 . S
C924 H900 0.950 . S
C924 C919 1.363 . S
C924 C923 1.415 . S
C925 H901 0.951 . S
C925 C926 1.366 . S
C925 C927 1.388 . S
C926 C925 1.366 . S
C926 C930 1.385 . S
C927 H902 0.951 . S
C927 C925 1.388 . S
C927 C928 1.366 . S
C928 C927 1.366 . S
C928 C929 1.414 . S
C928 C931 1.499 . S
C929 H903 0.950 . S
C929 C928 1.414 . S
C929 C930 1.374 . S
C930 H904 0.950 . S
C930 C926 1.385 . S
C930 C929 1.374 . S
C931 C928 1.499 . S
C931 C932 1.373 . S
C931 C933 1.389 . S
C932 H905 0.950 . S
C932 C918 1.377 . S
C932 C931 1.373 . S
C933 C917 1.377 . S
C933 C931 1.389 . S
C933 C934 1.524 . S
C934 C933 1.524 . S
C934 C935 1.397 . S
C934 C939 1.363 . S
C935 H906 0.950 . S
C935 C934 1.397 . S
C935 C936 1.334 . S
C936 H907 0.950 . S
C936 C935 1.334 . S
C936 C937 1.287 . S
C937 C936 1.287 . S
C937 C938 1.524 . S
C937 H940 0.999 . S
C938 H908 0.950 . S
C938 C937 1.524 . S
C938 C939 1.415 . S
C939 H909 0.950 . S
C939 C934 1.363 . S
C939 C938 1.415 . S
H940 C937 0.999 . S
H941 C922 0.913 . S
H942 C960 0.951 . S
H943 C962 0.951 . S
H944 C964 0.950 1_565 S
H945 C965 0.950 1_565 S
H946 C967 0.950 . S
H947 C970 0.950 . S
H948 C971 0.950 . S
H949 C973 0.950 . S
H950 C974 0.950 . S
H951 C975 0.951 . S
H952 C977 0.952 1_565 S
H953 C979 0.950 . S
H954 C980 0.950 . S
H955 C982 0.950 . S
H956 C985 0.950 . S
H957 C986 0.950 . S
H958 C988 0.950 . S
H959 C989 0.950 . S
C960 H942 0.951 . S
C960 C961 1.366 . S
C960 C962 1.388 . S
C961 C960 1.366 . S
C961 C965 1.385 . S
C962 H943 0.951 . S
C962 C960 1.388 . S
C962 C963 1.366 . S
C963 C962 1.366 . S
C963 C964 1.414 . S
C963 C966 1.499 . S
C964 H944 0.950 1_545 S
C964 C963 1.414 . S
C964 C965 1.374 . S
C965 H945 0.950 1_545 S
C965 C961 1.385 . S
C965 C964 1.374 . S
C966 C963 1.499 . S
C966 C967 1.373 . S
C966 C968 1.389 . S
C967 H946 0.950 . S
C967 C966 1.373 . S
C967 C983 1.377 . S
C968 C966 1.389 . S
C968 C969 1.524 . S
C968 C982 1.377 . S
C969 C968 1.524 . S
C969 C970 1.397 . S
C969 C974 1.363 . S
C970 H947 0.950 . S
C970 C969 1.397 . S
C970 C971 1.334 . S
C971 H948 0.950 . S
C971 C970 1.334 . S
C971 C972 1.287 . S
C972 C971 1.287 . S
C972 C973 1.524 . S
C972 H991 0.913 . S
C973 H949 0.950 . S
C973 C972 1.524 . S
C973 C974 1.415 . S
C974 H950 0.950 . S
C974 C969 1.363 . S
C974 C973 1.415 . S
C975 H951 0.951 . S
C975 C976 1.366 1_565 S
C975 C977 1.388 1_565 S
C976 C975 1.366 1_545 S
C976 C980 1.385 . S
C977 H952 0.952 1_545 S
C977 C975 1.388 1_545 S
C977 C978 1.364 . S
C978 C977 1.364 . S
C978 C979 1.414 . S
C978 C981 1.499 . S
C979 H953 0.950 . S
C979 C978 1.414 . S
C979 C980 1.374 . S
C980 H954 0.950 . S
C980 C976 1.385 . S
C980 C979 1.374 . S
C981 C978 1.499 . S
C981 C982 1.373 . S
C981 C983 1.389 . S
C982 H955 0.950 . S
C982 C968 1.377 . S
C982 C981 1.373 . S
C983 C967 1.377 . S
C983 C981 1.389 . S
C983 C984 1.524 . S
C984 C983 1.524 . S
C984 C985 1.397 . S
C984 C989 1.363 1_545 S
C985 H956 0.950 . S
C985 C984 1.397 . S
C985 C986 1.334 . S
C986 H957 0.950 . S
C986 C985 1.334 . S
C986 C987 1.287 1_545 S
C987 C986 1.287 1_565 S
C987 C988 1.524 . S
C987 H990 0.999 . S
C988 H958 0.950 . S
C988 C987 1.524 . S
C988 C989 1.415 . S
C989 H959 0.950 . S
C989 C984 1.363 1_565 S
C989 C988 1.415 . S
H990 C987 0.999 . S
H991 C972 0.913 . S
H992 C1010 0.951 . S
H993 C1012 0.951 . S
H994 C1014 0.950 . S
H995 C1015 0.950 . S
H996 C1017 0.950 . S
H997 C1020 0.950 . S
H998 C1021 0.950 . S
H999 C1023 0.950 . S
H1000 C1024 0.950 . S
H1001 C1025 0.951 . S
H1002 C1027 0.951 . S
H1003 C1029 0.950 . S
H1004 C1030 0.950 . S
H1005 C1032 0.950 . S
H1006 C1035 0.950 . S
H1007 C1036 0.950 . S
H1008 C1038 0.950 . S
H1009 C1039 0.950 1_556 S
C1010 H992 0.951 . S
C1010 C1011 1.366 . S
C1010 C1012 1.388 . S
C1011 C1010 1.366 . S
C1011 C1015 1.385 . S
C1012 H993 0.951 . S
C1012 C1010 1.388 . S
C1012 C1013 1.366 . S
C1013 C1012 1.366 . S
C1013 C1014 1.414 . S
C1013 C1016 1.499 . S
C1014 H994 0.950 . S
C1014 C1013 1.414 . S
C1014 C1015 1.374 . S
C1015 H995 0.950 . S
C1015 C1011 1.385 . S
C1015 C1014 1.374 . S
C1016 C1013 1.499 . S
C1016 C1017 1.373 . S
C1016 C1018 1.389 . S
C1017 H996 0.950 . S
C1017 C1016 1.373 . S
C1017 C1033 1.377 1_556 S
C1018 C1016 1.389 . S
C1018 C1019 1.524 . S
C1018 C1032 1.377 1_556 S
C1019 C1018 1.524 . S
C1019 C1020 1.397 . S
C1019 C1024 1.363 . S
C1020 H997 0.950 . S
C1020 C1019 1.397 . S
C1020 C1021 1.334 . S
C1021 H998 0.950 . S
C1021 C1020 1.334 . S
C1021 C1022 1.287 . S
C1022 C1021 1.287 . S
C1022 C1023 1.524 . S
C1022 H1041 0.913 . S
C1023 H999 0.950 . S
C1023 C1022 1.524 . S
C1023 C1024 1.415 . S
C1024 H1000 0.950 . S
C1024 C1019 1.363 . S
C1024 C1023 1.415 . S
C1025 H1001 0.951 . S
C1025 C1026 1.366 . S
C1025 C1027 1.388 . S
C1026 C1025 1.366 . S
C1026 C1030 1.385 . S
C1027 H1002 0.951 . S
C1027 C1025 1.388 . S
C1027 C1028 1.366 . S
C1028 C1027 1.366 . S
C1028 C1029 1.414 . S
C1028 C1031 1.499 . S
C1029 H1003 0.950 . S
C1029 C1028 1.414 . S
C1029 C1030 1.374 . S
C1030 H1004 0.950 . S
C1030 C1026 1.385 . S
C1030 C1029 1.374 . S
C1031 C1028 1.499 . S
C1031 C1032 1.373 . S
C1031 C1033 1.389 . S
C1032 H1005 0.950 . S
C1032 C1018 1.377 1_554 S
C1032 C1031 1.373 . S
C1033 C1017 1.377 1_554 S
C1033 C1031 1.389 . S
C1033 C1034 1.524 . S
C1034 C1033 1.524 . S
C1034 C1035 1.397 . S
C1034 C1039 1.363 . S
C1035 H1006 0.950 . S
C1035 C1034 1.397 . S
C1035 C1036 1.334 . S
C1036 H1007 0.950 . S
C1036 C1035 1.334 . S
C1036 C1037 1.287 . S
C1037 C1036 1.287 . S
C1037 C1038 1.524 . S
C1037 H1040 0.999 . S
C1038 H1008 0.950 . S
C1038 C1037 1.524 . S
C1038 C1039 1.415 . S
C1039 H1009 0.950 1_554 S
C1039 C1034 1.363 . S
C1039 C1038 1.415 . S
H1040 C1037 0.999 . S
H1041 C1022 0.913 . S
H1042 C1060 0.951 1_655 S
H1043 C1062 0.951 1_655 S
H1044 C1064 0.950 . S
H1045 C1065 0.950 . S
H1046 C1067 0.950 . S
H1047 C1070 0.950 . S
H1048 C1071 0.950 . S
H1049 C1073 0.950 . S
H1050 C1074 0.950 . S
H1051 C1075 0.951 . S
H1052 C1077 0.951 . S
H1053 C1079 0.950 . S
H1054 C1080 0.950 . S
H1055 C1082 0.950 . S
H1056 C1085 0.950 . S
H1057 C1086 0.950 . S
H1058 C1088 0.950 . S
H1059 C1089 0.950 . S
C1060 H1042 0.951 1_455 S
C1060 C1061 1.366 . S
C1060 C1062 1.388 . S
C1061 C1060 1.366 . S
C1061 C1065 1.385 . S
C1062 H1043 0.951 1_455 S
C1062 C1060 1.388 . S
C1062 C1063 1.366 . S
C1063 C1062 1.366 . S
C1063 C1064 1.414 . S
C1063 C1066 1.499 . S
C1064 H1044 0.950 . S
C1064 C1063 1.414 . S
C1064 C1065 1.374 . S
C1065 H1045 0.950 . S
C1065 C1061 1.385 . S
C1065 C1064 1.374 . S
C1066 C1063 1.499 . S
C1066 C1067 1.373 . S
C1066 C1068 1.389 1_455 S
C1067 H1046 0.950 . S
C1067 C1066 1.373 . S
C1067 C1083 1.377 . S
C1068 C1066 1.389 1_655 S
C1068 C1069 1.524 . S
C1068 C1082 1.377 . S
C1069 C1068 1.524 . S
C1069 C1070 1.397 . S
C1069 C1074 1.363 . S
C1070 H1047 0.950 . S
C1070 C1069 1.397 . S
C1070 C1071 1.334 . S
C1071 H1048 0.950 . S
C1071 C1070 1.334 . S
C1071 C1072 1.287 . S
C1072 C1071 1.287 . S
C1072 C1073 1.524 . S
C1072 H1091 0.913 . S
C1073 H1049 0.950 . S
C1073 C1072 1.524 . S
C1073 C1074 1.415 . S
C1074 H1050 0.950 . S
C1074 C1069 1.363 . S
C1074 C1073 1.415 . S
C1075 H1051 0.951 . S
C1075 C1076 1.366 . S
C1075 C1077 1.388 . S
C1076 C1075 1.366 . S
C1076 C1080 1.385 1_455 S
C1077 H1052 0.951 . S
C1077 C1075 1.388 . S
C1077 C1078 1.366 . S
C1078 C1077 1.366 . S
C1078 C1079 1.414 1_455 S
C1078 C1081 1.499 . S
C1079 H1053 0.950 . S
C1079 C1078 1.414 1_655 S
C1079 C1080 1.374 . S
C1080 H1054 0.950 . S
C1080 C1076 1.385 1_655 S
C1080 C1079 1.374 . S
C1081 C1078 1.499 . S
C1081 C1082 1.373 1_455 S
C1081 C1083 1.389 . S
C1082 H1055 0.950 . S
C1082 C1068 1.377 . S
C1082 C1081 1.373 1_655 S
C1083 C1067 1.377 . S
C1083 C1081 1.389 . S
C1083 C1084 1.524 . S
C1084 C1083 1.524 . S
C1084 C1085 1.397 . S
C1084 C1089 1.363 . S
C1085 H1056 0.950 . S
C1085 C1084 1.397 . S
C1085 C1086 1.334 . S
C1086 H1057 0.950 . S
C1086 C1085 1.334 . S
C1086 C1087 1.287 . S
C1087 C1086 1.287 . S
C1087 C1088 1.524 . S
C1087 H1090 0.999 . S
C1088 H1058 0.950 . S
C1088 C1087 1.524 . S
C1088 C1089 1.415 . S
C1089 H1059 0.950 . S
C1089 C1084 1.363 . S
C1089 C1088 1.415 . S
H1090 C1087 0.999 . S
H1091 C1072 0.913 . S
C211 C19 2.152 . S
C226 C186 2.137 . S
C261 C46 1.250 . S
C276 C160 1.233 . S
C311 C95 0.402 . S
C326 C172 0.380 . S
C361 C10 1.655 . S
C376 C184 1.580 . S
C426 C162 1.098 . S
C411 C55 1.101 . S
C476 C174 0.303 . S
C461 C86 0.293 . S
C511 C59 3.159 . S
C526 C136 3.074 . S
C561 C90 2.219 . S
C576 C150 2.238 . S
C611 C15 1.099 . S
C626 C126 1.096 . S
C676 C138 2.850 . S
C661 C50 2.870 . S
C726 C148 1.535 . S
C711 C99 1.599 . S
C761 C6 1.239 . S
C776 C124 1.218 . S
C826 C153 1.489 . S
C811 C9 1.425 . S
C861 C58 1.525 . S
C876 C129 1.546 . S
C911 C98 1.647 . S
C926 C141 1.738 . S
C976 C177 1.282 . S
C961 C49 1.234 . S
C1026 C189 1.502 . S
C1011 C89 1.462 . S
C1061 C18 1.502 . S
C1076 C165 1.524 . S
