# Generated by pormake.
# Topology apo, (3,6)-cn, num edge types: 1
# Building blocks:
#     Node 0, Type 0, BuildingBlock: BELTOD_clean_linker_0, # of connection points: 3
#     Node 1, Type 0, BuildingBlock: BELTOD_clean_linker_0, # of connection points: 3
#     Node 2, Type 0, BuildingBlock: BELTOD_clean_linker_0, # of connection points: 3
#     Node 3, Type 0, BuildingBlock: BELTOD_clean_linker_0, # of connection points: 3
#     Node 4, Type 0, BuildingBlock: BELTOD_clean_linker_0, # of connection points: 3
#     Node 5, Type 0, BuildingBlock: BELTOD_clean_linker_0, # of connection points: 3
#     Node 6, Type 0, BuildingBlock: BELTOD_clean_linker_0, # of connection points: 3
#     Node 7, Type 0, BuildingBlock: BELTOD_clean_linker_0, # of connection points: 3
#     Node 8, Type 1, BuildingBlock: MIDCAF_clean_sbu_0, # of connection points: 6
#     Node 9, Type 1, BuildingBlock: MIDCAF_clean_sbu_0, # of connection points: 6
#     Node 10, Type 1, BuildingBlock: MIDCAF_clean_sbu_0, # of connection points: 6
#     Node 11, Type 1, BuildingBlock: MIDCAF_clean_sbu_0, # of connection points: 6
#     Edge 12, Type (0, 1), BuildingBlock: EYOCIG_clean_linker_4, # of connection points: 2
#     Edge 13, Type (0, 1), BuildingBlock: EYOCIG_clean_linker_4, # of connection points: 2
#     Edge 14, Type (0, 1), BuildingBlock: EYOCIG_clean_linker_4, # of connection points: 2
#     Edge 15, Type (0, 1), BuildingBlock: EYOCIG_clean_linker_4, # of connection points: 2
#     Edge 16, Type (0, 1), BuildingBlock: EYOCIG_clean_linker_4, # of connection points: 2
#     Edge 17, Type (0, 1), BuildingBlock: EYOCIG_clean_linker_4, # of connection points: 2
#     Edge 18, Type (0, 1), BuildingBlock: EYOCIG_clean_linker_4, # of connection points: 2
#     Edge 19, Type (0, 1), BuildingBlock: EYOCIG_clean_linker_4, # of connection points: 2
#     Edge 20, Type (0, 1), BuildingBlock: EYOCIG_clean_linker_4, # of connection points: 2
#     Edge 21, Type (0, 1), BuildingBlock: EYOCIG_clean_linker_4, # of connection points: 2
#     Edge 22, Type (0, 1), BuildingBlock: EYOCIG_clean_linker_4, # of connection points: 2
#     Edge 23, Type (0, 1), BuildingBlock: EYOCIG_clean_linker_4, # of connection points: 2
#     Edge 24, Type (0, 1), BuildingBlock: EYOCIG_clean_linker_4, # of connection points: 2
#     Edge 25, Type (0, 1), BuildingBlock: EYOCIG_clean_linker_4, # of connection points: 2
#     Edge 26, Type (0, 1), BuildingBlock: EYOCIG_clean_linker_4, # of connection points: 2
#     Edge 27, Type (0, 1), BuildingBlock: EYOCIG_clean_linker_4, # of connection points: 2
#     Edge 28, Type (0, 1), BuildingBlock: EYOCIG_clean_linker_4, # of connection points: 2
#     Edge 29, Type (0, 1), BuildingBlock: EYOCIG_clean_linker_4, # of connection points: 2
#     Edge 30, Type (0, 1), BuildingBlock: EYOCIG_clean_linker_4, # of connection points: 2
#     Edge 31, Type (0, 1), BuildingBlock: EYOCIG_clean_linker_4, # of connection points: 2
#     Edge 32, Type (0, 1), BuildingBlock: EYOCIG_clean_linker_4, # of connection points: 2
#     Edge 33, Type (0, 1), BuildingBlock: EYOCIG_clean_linker_4, # of connection points: 2
#     Edge 34, Type (0, 1), BuildingBlock: EYOCIG_clean_linker_4, # of connection points: 2
#     Edge 35, Type (0, 1), BuildingBlock: EYOCIG_clean_linker_4, # of connection points: 2
# Relax obj value: 0.077
# Max RMSD: 0.096
# Mean RMSD: 0.084
data_MOF--net-apo--node1-MIDCAF_clean_sbu_0--node2-BELTOD_clean_linker_0--edge1-EYOCIG_clean_linker_4
_symmetry_space_group_name_H-M    P1
_symmetry_Int_Tables_number       1
_symmetry_cell_setting            triclinic
loop_
_symmetry_equiv_pos_as_xyz
'x, y, z'
_cell_length_a     32.473412
_cell_length_b     38.599481
_cell_length_c     34.242299
_cell_angle_alpha  89.567033
_cell_angle_beta   90.013276
_cell_angle_gamma 90.219775
loop_
_atom_site_label
_atom_site_type_symbol
_atom_site_fract_x
_atom_site_fract_y
_atom_site_fract_z
_atom_type_partial_charge
P0 P 0.37059 0.29899 0.37138 0.0
H1 H 0.39647 0.24977 0.43137 0.0
H2 H 0.40071 0.25328 0.50271 0.0
H3 H 0.34718 0.35533 0.49852 0.0
H4 H 0.34315 0.35195 0.42685 0.0
H5 H 0.35182 0.26009 0.30144 0.0
H6 H 0.28699 0.24118 0.27166 0.0
H7 H 0.21925 0.28648 0.3667 0.0
H8 H 0.28433 0.30535 0.39675 0.0
H9 H 0.44691 0.33789 0.36599 0.0
H10 H 0.31973 0.35278 0.33321 0.0
O11 O 0.408 0.27207 0.35786 0.0
H12 H 0.46398 0.39532 0.33927 0.0
H13 H 0.337 0.41011 0.3064 0.0
C14 C 0.37003 0.30078 0.42387 0.0
C15 C 0.38529 0.27279 0.44573 0.0
C16 C 0.38752 0.2747 0.4864 0.0
C17 C 0.37405 0.30444 0.50566 0.0
C18 C 0.35746 0.33205 0.48402 0.0
C19 C 0.35536 0.33019 0.44323 0.0
C20 C 0.32285 0.28329 0.35175 0.0
C21 C 0.3231 0.26566 0.31613 0.0
C22 C 0.28619 0.25517 0.29897 0.0
C23 C 0.24864 0.26263 0.31698 0.0
C24 C 0.24814 0.28062 0.35241 0.0
C25 C 0.28518 0.29106 0.36969 0.0
C26 C 0.38227 0.34091 0.35113 0.0
C27 C 0.42279 0.35335 0.35278 0.0
C28 C 0.43253 0.38596 0.33751 0.0
C29 C 0.40177 0.40647 0.32063 0.0
C30 C 0.36114 0.39427 0.31902 0.0
C31 C 0.35136 0.36161 0.33438 0.0
P32 P 0.22214 0.11903 0.90816 0.0
H33 H 0.23265 0.05801 0.8598 0.0
H34 H 0.18424 0.02299 0.82166 0.0
H35 H 0.08554 0.09204 0.85259 0.0
H36 H 0.13402 0.127 0.89122 0.0
H37 H 0.30405 0.14991 0.90836 0.0
H38 H 0.33864 0.19066 0.86382 0.0
H39 H 0.22647 0.20159 0.79745 0.0
H40 H 0.19165 0.16093 0.84215 0.0
H41 H 0.18716 0.08511 0.97609 0.0
H42 H 0.20235 0.19008 0.93415 0.0
O43 O 0.25906 0.09225 0.92361 0.0
H44 H 0.1563 0.10677 0.03648 0.0
H45 H 0.17138 0.21179 0.99483 0.0
C46 C 0.18656 0.09441 0.87922 0.0
C47 C 0.20062 0.06564 0.85843 0.0
C48 C 0.17315 0.04589 0.83641 0.0
C49 C 0.13151 0.05506 0.83451 0.0
C50 C 0.11769 0.0847 0.85381 0.0
C51 C 0.14518 0.10437 0.87608 0.0
C52 C 0.24563 0.15184 0.878 0.0
C53 C 0.28681 0.16114 0.88436 0.0
C54 C 0.30651 0.18428 0.85897 0.0
C55 C 0.28514 0.19845 0.82713 0.0
C56 C 0.24348 0.19041 0.82165 0.0
C57 C 0.22369 0.16727 0.84715 0.0
C58 C 0.19736 0.13597 0.9509 0.0
C59 C 0.18379 0.1128 0.97988 0.0
C60 C 0.16633 0.12513 0.0143 0.0
C61 C 0.16217 0.16082 0.02015 0.0
C62 C 0.17486 0.18413 0.99089 0.0
C63 C 0.19239 0.17174 0.9563 0.0
P64 P 0.86742 0.18615 0.62906 0.0
H65 H 0.89312 0.23524 0.56878 0.0
H66 H 0.89753 0.23135 0.49751 0.0
H67 H 0.84362 0.12911 0.50228 0.0
H68 H 0.83942 0.13288 0.57392 0.0
H69 H 0.84981 0.22473 0.6993 0.0
H70 H 0.78556 0.2437 0.7297 0.0
H71 H 0.71625 0.19876 0.63515 0.0
H72 H 0.78082 0.17981 0.60444 0.0
H73 H 0.94357 0.1476 0.634 0.0
H74 H 0.81669 0.13239 0.66808 0.0
O75 O 0.90509 0.21321 0.64218 0.0
H76 H 0.96079 0.09053 0.66126 0.0
H77 H 0.83413 0.07541 0.69547 0.0
C78 C 0.86648 0.18418 0.57659 0.0
C79 C 0.88186 0.21211 0.55457 0.0
C80 C 0.88419 0.20998 0.51393 0.0
C81 C 0.87071 0.18005 0.49484 0.0
C82 C 0.85391 0.15252 0.51663 0.0
C83 C 0.85171 0.15461 0.55741 0.0
C84 C 0.82004 0.20175 0.64915 0.0
C85 C 0.82088 0.21925 0.68484 0.0
C86 C 0.7843 0.22975 0.70238 0.0
C87 C 0.74648 0.22245 0.68465 0.0
C88 C 0.74537 0.2045 0.6492 0.0
C89 C 0.7821 0.19404 0.63154 0.0
C90 C 0.87909 0.14439 0.64948 0.0
C91 C 0.91956 0.13215 0.6476 0.0
C92 C 0.92937 0.09975 0.66319 0.0
C93 C 0.89876 0.07928 0.68063 0.0
C94 C 0.85816 0.09125 0.68244 0.0
C95 C 0.84829 0.12371 0.66673 0.0
P96 P 0.72623 0.37148 0.09331 0.0
H97 H 0.7356 0.43244 0.14223 0.0
H98 H 0.68637 0.46653 0.18017 0.0
H99 H 0.58884 0.39621 0.14778 0.0
H100 H 0.6381 0.3622 0.10939 0.0
H101 H 0.80812 0.34096 0.09359 0.0
H102 H 0.84203 0.29972 0.13782 0.0
H103 H 0.72919 0.28787 0.20305 0.0
H104 H 0.69507 0.32896 0.15869 0.0
H105 H 0.69193 0.40584 0.02544 0.0
H106 H 0.70632 0.3006 0.06638 0.0
O107 O 0.76325 0.39871 0.0786 0.0
H108 H 0.66053 0.38462 0.96499 0.0
H109 H 0.67482 0.27932 0.00564 0.0
C110 C 0.69014 0.39548 0.12213 0.0
C111 C 0.70366 0.42433 0.14325 0.0
C112 C 0.67572 0.44355 0.16517 0.0
C113 C 0.63417 0.43375 0.1666 0.0
C114 C 0.62091 0.40402 0.14695 0.0
C115 C 0.64885 0.3849 0.1248 0.0
C116 C 0.74939 0.33855 0.12338 0.0
C117 C 0.7906 0.32944 0.11729 0.0
C118 C 0.80993 0.30603 0.14252 0.0
C119 C 0.78815 0.2914 0.17392 0.0
C120 C 0.74651 0.29938 0.1792 0.0
C121 C 0.72712 0.32277 0.15387 0.0
C122 C 0.70179 0.35481 0.05014 0.0
C123 C 0.68836 0.37819 0.02138 0.0
C124 C 0.67056 0.3661 0.98692 0.0
C125 C 0.66592 0.33046 0.9808 0.0
C126 C 0.67864 0.30695 0.00978 0.0
C127 C 0.69649 0.31909 0.04441 0.0
P128 P 0.71402 0.6258 0.58906 0.0
H129 H 0.74426 0.64246 0.51122 0.0
H130 H 0.71 0.66275 0.45151 0.0
H131 H 0.59546 0.67116 0.51442 0.0
H132 H 0.62979 0.65072 0.57436 0.0
H133 H 0.79231 0.6266 0.6302 0.0
H134 H 0.82412 0.66833 0.6745 0.0
H135 H 0.72108 0.73719 0.65845 0.0
H136 H 0.68926 0.69543 0.6134 0.0
H137 H 0.67199 0.56058 0.57588 0.0
H138 H 0.67715 0.6371 0.66715 0.0
O139 O 0.74975 0.59826 0.57328 0.0
H140 H 0.62638 0.5247 0.61664 0.0
H141 H 0.63149 0.60121 0.70766 0.0
C142 C 0.68933 0.64445 0.54691 0.0
C143 C 0.71188 0.649 0.51233 0.0
C144 C 0.69245 0.66074 0.47835 0.0
C145 C 0.65036 0.66838 0.47873 0.0
C146 C 0.62809 0.66543 0.51372 0.0
C147 C 0.64757 0.65362 0.54778 0.0
C148 C 0.73885 0.65828 0.61803 0.0
C149 C 0.77672 0.65081 0.63574 0.0
C150 C 0.79465 0.67441 0.6613 0.0
C151 C 0.77457 0.70543 0.66993 0.0
C152 C 0.73673 0.71312 0.65225 0.0
C153 C 0.71889 0.68956 0.62631 0.0
C154 C 0.67822 0.60135 0.61847 0.0
C155 C 0.66312 0.56977 0.60447 0.0
C156 C 0.63715 0.54938 0.62766 0.0
C157 C 0.62577 0.56048 0.66497 0.0
C158 C 0.64 0.59238 0.67881 0.0
C159 C 0.66611 0.6128 0.65561 0.0
P160 P 0.85679 0.80602 0.12886 0.0
H161 H 0.89477 0.82681 0.20216 0.0
H162 H 0.91717 0.88333 0.22721 0.0
H163 H 0.86859 0.93331 0.12405 0.0
H164 H 0.84605 0.87691 0.09904 0.0
H165 H 0.82642 0.73826 0.15365 0.0
H166 H 0.762 0.71919 0.18441 0.0
H167 H 0.7153 0.82351 0.17754 0.0
H168 H 0.77998 0.84273 0.14662 0.0
H169 H 0.92334 0.81779 0.07425 0.0
H170 H 0.79259 0.79821 0.06798 0.0
O171 O 0.89295 0.77809 0.14326 0.0
H172 H 0.92709 0.81875 0.00274 0.0
H173 H 0.79642 0.79916 0.99616 0.0
C174 C 0.86993 0.84769 0.14828 0.0
C175 C 0.88884 0.84994 0.185 0.0
C176 C 0.90144 0.88207 0.19934 0.0
C177 C 0.89487 0.91214 0.17714 0.0
C178 C 0.87414 0.91016 0.14133 0.0
C179 C 0.86151 0.87804 0.12702 0.0
C180 C 0.8082 0.79199 0.14861 0.0
C181 C 0.80241 0.75708 0.15874 0.0
C182 C 0.76576 0.74622 0.17635 0.0
C183 C 0.73444 0.77012 0.18379 0.0
C184 C 0.73954 0.80486 0.17252 0.0
C185 C 0.7763 0.81576 0.15485 0.0
C186 C 0.85784 0.80751 0.07634 0.0
C187 C 0.89548 0.81366 0.05747 0.0
C188 C 0.8976 0.81424 0.01676 0.0
C189 C 0.86208 0.80874 0.99441 0.0
C190 C 0.82418 0.80323 0.0131 0.0
C191 C 0.82204 0.80267 0.054 0.0
P192 P 0.21817 0.86407 0.40707 0.0
H193 H 0.24773 0.84782 0.48529 0.0
H194 H 0.21281 0.828 0.54496 0.0
H195 H 0.0986 0.81944 0.48137 0.0
H196 H 0.13359 0.83937 0.42149 0.0
H197 H 0.2962 0.86335 0.36547 0.0
H198 H 0.32747 0.82157 0.32109 0.0
H199 H 0.22425 0.75243 0.33818 0.0
H200 H 0.193 0.79424 0.38326 0.0
H201 H 0.17649 0.92921 0.42006 0.0
H202 H 0.18139 0.8526 0.3289 0.0
O203 O 0.25415 0.89165 0.4228 0.0
H204 H 0.13028 0.96451 0.37957 0.0
H205 H 0.13514 0.88792 0.28866 0.0
C206 C 0.19304 0.84567 0.44924 0.0
C207 C 0.21528 0.84134 0.48403 0.0
C208 C 0.19546 0.8299 0.51799 0.0
C209 C 0.15327 0.82234 0.51742 0.0
C210 C 0.13129 0.82512 0.48225 0.0
C211 C 0.15117 0.83662 0.44821 0.0
C212 C 0.24272 0.83152 0.37818 0.0
C213 C 0.28048 0.83906 0.36015 0.0
C214 C 0.29809 0.81544 0.33454 0.0
C215 C 0.2778 0.78431 0.32617 0.0
C216 C 0.24008 0.77657 0.34418 0.0
C217 C 0.22256 0.80016 0.37014 0.0
C218 C 0.18261 0.88843 0.37752 0.0
C219 C 0.16751 0.91991 0.39152 0.0
C220 C 0.14119 0.93996 0.36849 0.0
C221 C 0.12948 0.92863 0.33133 0.0
C222 C 0.1439 0.89692 0.31739 0.0
C223 C 0.17034 0.87683 0.34044 0.0
P224 P 0.35283 0.67858 0.86759 0.0
H225 H 0.38939 0.65818 0.79367 0.0
H226 H 0.41155 0.60186 0.76831 0.0
H227 H 0.36416 0.55139 0.87185 0.0
H228 H 0.34184 0.60759 0.89717 0.0
H229 H 0.32311 0.74635 0.84297 0.0
H230 H 0.25913 0.76534 0.81166 0.0
H231 H 0.21131 0.66107 0.81868 0.0
H232 H 0.27556 0.64193 0.85018 0.0
H233 H 0.41987 0.66661 0.92146 0.0
H234 H 0.28936 0.68602 0.92911 0.0
O235 O 0.38918 0.70651 0.85304 0.0
H236 H 0.42448 0.66552 0.99292 0.0
H237 H 0.29404 0.68493 0.0009 0.0
C238 C 0.36526 0.63703 0.84779 0.0
C239 C 0.38362 0.63498 0.81082 0.0
C240 C 0.39604 0.60296 0.7963 0.0
C241 C 0.38985 0.57285 0.81857 0.0
C242 C 0.36941 0.5746 0.85452 0.0
C243 C 0.35695 0.6066 0.86902 0.0
C244 C 0.30429 0.69266 0.84816 0.0
C245 C 0.29892 0.72754 0.83786 0.0
C246 C 0.26254 0.73834 0.81993 0.0
C247 C 0.23109 0.71441 0.8123 0.0
C248 C 0.23569 0.67973 0.82384 0.0
C249 C 0.27219 0.66889 0.84186 0.0
C250 C 0.35444 0.67684 0.92008 0.0
C251 C 0.39224 0.67066 0.93854 0.0
C252 C 0.39485 0.67 0.97921 0.0
C253 C 0.35965 0.67544 0.00195 0.0
C254 C 0.32156 0.68091 0.98366 0.0
C255 C 0.31893 0.68156 0.94278 0.0
Zn256 Zn 0.0362 0.13201 0.31621 0.0
Zn257 Zn 0.96506 0.13949 0.1799 0.0
Zn258 Zn 0.00067 0.13887 0.24865 0.0
C259 C 0.04555 0.1637 0.17004 0.0
C260 C 0.96085 0.07234 0.20535 0.0
O261 O 0.95789 0.16048 0.29259 0.0
O262 O 0.98646 0.14152 0.34747 0.0
C263 C 0.08168 0.18025 0.27369 0.0
O264 O 0.0445 0.1642 0.20765 0.0
O265 O 0.01582 0.15154 0.15074 0.0
O266 O 0.94449 0.09107 0.17942 0.0
O267 O 0.98517 0.08549 0.23103 0.0
O268 O 0.07658 0.16972 0.30828 0.0
O269 O 0.05829 0.16946 0.24592 0.0
O270 O 0.01454 0.08348 0.2598 0.0
O271 O 0.05559 0.08373 0.31143 0.0
C272 C 0.03859 0.06766 0.28387 0.0
O273 O 0.94368 0.16915 0.25518 0.0
O274 O 0.92579 0.17649 0.19319 0.0
C275 C 0.95707 0.15613 0.32992 0.0
C276 C 0.92053 0.18294 0.22887 0.0
Zn277 Zn 0.53758 0.35473 0.68488 0.0
Zn278 Zn 0.46617 0.3477 0.82086 0.0
Zn279 Zn 0.50167 0.34828 0.7522 0.0
C280 C 0.46071 0.41444 0.79372 0.0
C281 C 0.42165 0.30374 0.77238 0.0
O282 O 0.55907 0.31799 0.75583 0.0
O283 O 0.57772 0.31723 0.69358 0.0
C284 C 0.53928 0.41951 0.7158 0.0
O285 O 0.48559 0.40155 0.7685 0.0
O286 O 0.44469 0.39571 0.81994 0.0
O287 O 0.42727 0.31002 0.80807 0.0
O288 O 0.44467 0.3177 0.74599 0.0
O289 O 0.55681 0.40324 0.68878 0.0
O290 O 0.51518 0.40371 0.73997 0.0
O291 O 0.45933 0.32554 0.70847 0.0
O292 O 0.48801 0.34443 0.65355 0.0
C293 C 0.45868 0.32956 0.6711 0.0
O294 O 0.54579 0.32427 0.79396 0.0
O295 O 0.51692 0.33715 0.85064 0.0
C296 C 0.58247 0.30694 0.72829 0.0
C297 C 0.54689 0.32536 0.83156 0.0
Zn298 Zn 0.02977 0.8507 0.81587 0.0
Zn299 Zn 0.95491 0.85191 0.68094 0.0
Zn300 Zn 0.99202 0.84833 0.74869 0.0
C301 C 0.95505 0.91781 0.70961 0.0
C302 C 0.90815 0.80904 0.72924 0.0
O303 O 0.04747 0.81575 0.74296 0.0
O304 O 0.06791 0.81233 0.80463 0.0
C305 C 0.03493 0.91654 0.78638 0.0
O306 O 0.9794 0.90284 0.73406 0.0
O307 O 0.93733 0.90085 0.68315 0.0
O308 O 0.9133 0.81634 0.69363 0.0
O309 O 0.93296 0.82059 0.75542 0.0
O310 O 0.05135 0.89868 0.81304 0.0
O311 O 0.00978 0.90261 0.76195 0.0
O312 O 0.94909 0.82628 0.7927 0.0
O313 O 0.98023 0.84091 0.84779 0.0
C314 C 0.94948 0.8285 0.83021 0.0
O315 O 0.03272 0.82305 0.70527 0.0
O316 O 0.00349 0.83907 0.64952 0.0
C317 C 0.0712 0.80309 0.76955 0.0
C318 C 0.03276 0.82487 0.66767 0.0
Zn319 Zn 0.52864 0.63527 0.18066 0.0
Zn320 Zn 0.45383 0.63581 0.31558 0.0
Zn321 Zn 0.49115 0.63864 0.24786 0.0
C322 C 0.53167 0.66403 0.32804 0.0
C323 C 0.45429 0.5694 0.28904 0.0
O324 O 0.4482 0.65968 0.2034 0.0
O325 O 0.47918 0.64444 0.14852 0.0
C326 C 0.57112 0.68329 0.22577 0.0
O327 O 0.53177 0.66511 0.29042 0.0
O328 O 0.50247 0.64982 0.34645 0.0
O329 O 0.4364 0.58666 0.31503 0.0
O330 O 0.4784 0.58423 0.26412 0.0
O331 O 0.56745 0.67366 0.19085 0.0
O332 O 0.54721 0.67117 0.25263 0.0
O333 O 0.50868 0.58417 0.23613 0.0
O334 O 0.5499 0.5874 0.18473 0.0
C335 C 0.53374 0.56996 0.21196 0.0
O336 O 0.4324 0.66649 0.24051 0.0
O337 O 0.41236 0.67099 0.30214 0.0
C338 C 0.44849 0.65693 0.16593 0.0
C339 C 0.40759 0.67825 0.26649 0.0
C340 C 0.08227 0.97234 0.2929 0.0
C341 C 0.10359 0.95043 0.30767 0.0
C342 C 0.06104 0.0027 0.28219 0.0
C343 C 0.04789 0.0317 0.27927 0.0
C344 C 0.42065 0.51268 0.79784 0.0
C345 C 0.40711 0.5406 0.80617 0.0
C346 C 0.43699 0.47939 0.79247 0.0
C347 C 0.44924 0.45008 0.79125 0.0
C348 C 0.58017 0.51584 0.70426 0.0
C349 C 0.60076 0.53813 0.68902 0.0
C350 C 0.55998 0.48507 0.71574 0.0
C351 C 0.54764 0.45579 0.71939 0.0
C352 C 0.92442 0.97287 0.19842 0.0
C353 C 0.91144 0.94473 0.18978 0.0
C354 C 0.93959 0.00658 0.20462 0.0
C355 C 0.9507 0.03626 0.20674 0.0
C356 C 0.92089 0.01729 0.70503 0.0
C357 C 0.90907 0.04528 0.69446 0.0
C358 C 0.93553 0.98359 0.7118 0.0
C359 C 0.94625 0.95386 0.71302 0.0
C360 C 0.58264 0.47684 0.20053 0.0
C361 C 0.60478 0.45627 0.18475 0.0
C362 C 0.55985 0.50594 0.21229 0.0
C363 C 0.545 0.53426 0.21591 0.0
C364 C 0.423 0.46897 0.29644 0.0
C365 C 0.41192 0.44069 0.30705 0.0
C366 C 0.43648 0.50304 0.28904 0.0
C367 C 0.44632 0.53303 0.28694 0.0
C368 C 0.08133 0.01083 0.80012 0.0
C369 C 0.10267 0.032 0.81611 0.0
C370 C 0.05966 0.98115 0.78786 0.0
C371 C 0.04557 0.95253 0.7836 0.0
C372 C 0.12858 0.17851 0.08735 0.0
C373 C 0.14418 0.17287 0.05607 0.0
C374 C 0.10587 0.17919 0.12254 0.0
C375 C 0.08159 0.17395 0.14858 0.0
C376 C 0.38728 0.30866 0.58174 0.0
C377 C 0.38078 0.30759 0.54709 0.0
C378 C 0.40331 0.31192 0.61987 0.0
C379 C 0.42483 0.31782 0.64773 0.0
C380 C 0.63111 0.31291 0.91395 0.0
C381 C 0.64724 0.31865 0.94502 0.0
C382 C 0.60783 0.31171 0.87908 0.0
C383 C 0.5832 0.31618 0.85316 0.0
C384 C 0.88463 0.17564 0.41891 0.0
C385 C 0.87774 0.17667 0.4535 0.0
C386 C 0.90114 0.17268 0.38094 0.0
C387 C 0.92298 0.16722 0.35322 0.0
C388 C 0.87419 0.80934 0.9182 0.0
C389 C 0.86537 0.80856 0.95242 0.0
C390 C 0.89231 0.81245 0.88084 0.0
C391 C 0.91483 0.81812 0.85354 0.0
C392 C 0.61229 0.68189 0.412 0.0
C393 C 0.6295 0.67574 0.44248 0.0
C394 C 0.58939 0.68225 0.37695 0.0
C395 C 0.56611 0.67597 0.35048 0.0
C396 C 0.3727 0.67503 0.07801 0.0
C397 C 0.36348 0.67571 0.04389 0.0
C398 C 0.39116 0.67219 0.11524 0.0
C399 C 0.41384 0.66688 0.14249 0.0
C400 C 0.11438 0.80894 0.58385 0.0
C401 C 0.13205 0.81504 0.55356 0.0
C402 C 0.09098 0.80818 0.61864 0.0
C403 C 0.0674 0.81379 0.64503 0.0
C404 C 0.18017 0.23944 0.28452 0.0
C405 C 0.21101 0.25025 0.29981 0.0
C406 C 0.14467 0.22219 0.271 0.0
C407 C 0.11506 0.20377 0.26665 0.0
C408 C 0.32898 0.23921 0.78107 0.0
C409 C 0.30654 0.221 0.80032 0.0
C410 C 0.35986 0.26125 0.76601 0.0
C411 C 0.38866 0.28074 0.76268 0.0
C412 C 0.67895 0.2463 0.7177 0.0
C413 C 0.70928 0.23514 0.70206 0.0
C414 C 0.64416 0.26416 0.73143 0.0
C415 C 0.61513 0.28302 0.73566 0.0
C416 C 0.83056 0.24947 0.21968 0.0
C417 C 0.80895 0.26824 0.20039 0.0
C418 C 0.86031 0.22663 0.23499 0.0
C419 C 0.88836 0.20658 0.23853 0.0
C420 C 0.81438 0.74759 0.71699 0.0
C421 C 0.79429 0.72974 0.69546 0.0
C422 C 0.84454 0.76866 0.73444 0.0
C423 C 0.87418 0.78697 0.7389 0.0
C424 C 0.6672 0.74573 0.2178 0.0
C425 C 0.69702 0.75845 0.20229 0.0
C426 C 0.6325 0.72677 0.23073 0.0
C427 C 0.60346 0.70746 0.23415 0.0
C428 C 0.31647 0.74171 0.27895 0.0
C429 C 0.29713 0.75992 0.30059 0.0
C430 C 0.34557 0.71991 0.26128 0.0
C431 C 0.37446 0.70097 0.25667 0.0
C432 C 0.16486 0.73905 0.77726 0.0
C433 C 0.1941 0.72604 0.79323 0.0
C434 C 0.13098 0.75863 0.76404 0.0
C435 C 0.10264 0.77846 0.76073 0.0
loop_
_geom_bond_atom_site_label_1
_geom_bond_atom_site_label_2
_geom_bond_distance
_geom_bond_site_symmetry_2
_ccdc_geom_bond_type
P0 O11 1.490 . S
P0 C14 1.812 . S
P0 C20 1.803 . S
P0 C26 1.819 . S
H1 C15 0.941 . S
H2 C16 0.939 . S
H3 C18 0.940 . S
H4 C19 0.940 . S
H5 C21 0.939 . S
H6 C22 0.942 . S
H7 C24 0.940 . S
H8 C25 0.939 . S
H9 C27 0.941 . S
H10 C31 0.939 . S
O11 P0 1.490 . S
H12 C28 0.939 . S
H13 C30 0.940 . S
C14 P0 1.812 . S
C14 C15 1.389 . S
C14 C19 1.391 . S
C15 H1 0.941 . S
C15 C14 1.389 . S
C15 C16 1.397 . S
C16 H2 0.939 . S
C16 C15 1.397 . S
C16 C17 1.378 . S
C17 C16 1.378 . S
C17 C18 1.378 . S
C18 H3 0.940 . S
C18 C17 1.378 . S
C18 C19 1.396 . S
C19 H4 0.940 . S
C19 C14 1.391 . S
C19 C18 1.396 . S
C20 P0 1.803 . S
C20 C21 1.378 . S
C20 C25 1.400 . S
C21 H5 0.939 . S
C21 C20 1.378 . S
C21 C22 1.361 . S
C22 H6 0.942 . S
C22 C21 1.361 . S
C22 C23 1.369 . S
C23 C22 1.369 . S
C23 C24 1.404 . S
C24 H7 0.940 . S
C24 C23 1.404 . S
C24 C25 1.389 . S
C25 H8 0.939 . S
C25 C20 1.400 . S
C25 C24 1.389 . S
C26 P0 1.819 . S
C26 C27 1.391 . S
C26 C31 1.391 . S
C27 H9 0.941 . S
C27 C26 1.391 . S
C27 C28 1.396 . S
C28 H12 0.939 . S
C28 C27 1.396 . S
C28 C29 1.397 . S
C29 C28 1.397 . S
C29 C30 1.385 . S
C30 H13 0.940 . S
C30 C29 1.385 . S
C30 C31 1.388 . S
C31 H10 0.939 . S
C31 C26 1.391 . S
C31 C30 1.388 . S
P32 O43 1.490 . S
P32 C46 1.812 . S
P32 C52 1.803 . S
P32 C58 1.819 . S
H33 C47 0.941 . S
H34 C48 0.939 . S
H35 C50 0.940 . S
H36 C51 0.940 . S
H37 C53 0.939 . S
H38 C54 0.942 . S
H39 C56 0.940 . S
H40 C57 0.939 . S
H41 C59 0.941 . S
H42 C63 0.939 . S
O43 P32 1.490 . S
H44 C60 0.939 . S
H45 C62 0.940 . S
C46 P32 1.812 . S
C46 C47 1.389 . S
C46 C51 1.391 . S
C47 H33 0.941 . S
C47 C46 1.389 . S
C47 C48 1.397 . S
C48 H34 0.939 . S
C48 C47 1.397 . S
C48 C49 1.378 . S
C49 C48 1.378 . S
C49 C50 1.378 . S
C50 H35 0.940 . S
C50 C49 1.378 . S
C50 C51 1.396 . S
C51 H36 0.940 . S
C51 C46 1.391 . S
C51 C50 1.396 . S
C52 P32 1.803 . S
C52 C53 1.378 . S
C52 C57 1.400 . S
C53 H37 0.939 . S
C53 C52 1.378 . S
C53 C54 1.361 . S
C54 H38 0.942 . S
C54 C53 1.361 . S
C54 C55 1.369 . S
C55 C54 1.369 . S
C55 C56 1.404 . S
C56 H39 0.940 . S
C56 C55 1.404 . S
C56 C57 1.389 . S
C57 H40 0.939 . S
C57 C52 1.400 . S
C57 C56 1.389 . S
C58 P32 1.819 . S
C58 C59 1.391 . S
C58 C63 1.391 . S
C59 H41 0.941 . S
C59 C58 1.391 . S
C59 C60 1.396 1_556 S
C60 H44 0.939 . S
C60 C59 1.396 1_554 S
C60 C61 1.397 . S
C61 C60 1.397 . S
C61 C62 1.385 1_554 S
C62 H45 0.940 . S
C62 C61 1.385 1_556 S
C62 C63 1.388 . S
C63 H42 0.939 . S
C63 C58 1.391 . S
C63 C62 1.388 . S
P64 O75 1.490 . S
P64 C78 1.812 . S
P64 C84 1.803 . S
P64 C90 1.819 . S
H65 C79 0.941 . S
H66 C80 0.939 . S
H67 C82 0.940 . S
H68 C83 0.940 . S
H69 C85 0.939 . S
H70 C86 0.942 . S
H71 C88 0.940 . S
H72 C89 0.939 . S
H73 C91 0.941 . S
H74 C95 0.939 . S
O75 P64 1.490 . S
H76 C92 0.939 . S
H77 C94 0.940 . S
C78 P64 1.812 . S
C78 C79 1.389 . S
C78 C83 1.391 . S
C79 H65 0.941 . S
C79 C78 1.389 . S
C79 C80 1.397 . S
C80 H66 0.939 . S
C80 C79 1.397 . S
C80 C81 1.378 . S
C81 C80 1.378 . S
C81 C82 1.378 . S
C82 H67 0.940 . S
C82 C81 1.378 . S
C82 C83 1.396 . S
C83 H68 0.940 . S
C83 C78 1.391 . S
C83 C82 1.396 . S
C84 P64 1.803 . S
C84 C85 1.378 . S
C84 C89 1.400 . S
C85 H69 0.939 . S
C85 C84 1.378 . S
C85 C86 1.361 . S
C86 H70 0.942 . S
C86 C85 1.361 . S
C86 C87 1.369 . S
C87 C86 1.369 . S
C87 C88 1.404 . S
C88 H71 0.940 . S
C88 C87 1.404 . S
C88 C89 1.389 . S
C89 H72 0.939 . S
C89 C84 1.400 . S
C89 C88 1.389 . S
C90 P64 1.819 . S
C90 C91 1.391 . S
C90 C95 1.391 . S
C91 H73 0.941 . S
C91 C90 1.391 . S
C91 C92 1.396 . S
C92 H76 0.939 . S
C92 C91 1.396 . S
C92 C93 1.397 . S
C93 C92 1.397 . S
C93 C94 1.385 . S
C94 H77 0.940 . S
C94 C93 1.385 . S
C94 C95 1.388 . S
C95 H74 0.939 . S
C95 C90 1.391 . S
C95 C94 1.388 . S
P96 O107 1.490 . S
P96 C110 1.812 . S
P96 C116 1.803 . S
P96 C122 1.819 . S
H97 C111 0.941 . S
H98 C112 0.939 . S
H99 C114 0.940 . S
H100 C115 0.940 . S
H101 C117 0.939 . S
H102 C118 0.942 . S
H103 C120 0.940 . S
H104 C121 0.939 . S
H105 C123 0.941 . S
H106 C127 0.939 . S
O107 P96 1.490 . S
H108 C124 0.939 . S
H109 C126 0.940 . S
C110 P96 1.812 . S
C110 C111 1.389 . S
C110 C115 1.391 . S
C111 H97 0.941 . S
C111 C110 1.389 . S
C111 C112 1.397 . S
C112 H98 0.939 . S
C112 C111 1.397 . S
C112 C113 1.378 . S
C113 C112 1.378 . S
C113 C114 1.378 . S
C114 H99 0.940 . S
C114 C113 1.378 . S
C114 C115 1.396 . S
C115 H100 0.940 . S
C115 C110 1.391 . S
C115 C114 1.396 . S
C116 P96 1.803 . S
C116 C117 1.378 . S
C116 C121 1.400 . S
C117 H101 0.939 . S
C117 C116 1.378 . S
C117 C118 1.361 . S
C118 H102 0.942 . S
C118 C117 1.361 . S
C118 C119 1.369 . S
C119 C118 1.369 . S
C119 C120 1.404 . S
C120 H103 0.940 . S
C120 C119 1.404 . S
C120 C121 1.389 . S
C121 H104 0.939 . S
C121 C116 1.400 . S
C121 C120 1.389 . S
C122 P96 1.819 . S
C122 C123 1.391 . S
C122 C127 1.391 . S
C123 H105 0.941 . S
C123 C122 1.391 . S
C123 C124 1.396 1_554 S
C124 H108 0.939 . S
C124 C123 1.396 1_556 S
C124 C125 1.397 . S
C125 C124 1.397 . S
C125 C126 1.385 1_556 S
C126 H109 0.940 . S
C126 C125 1.385 1_554 S
C126 C127 1.388 . S
C127 H106 0.939 . S
C127 C122 1.391 . S
C127 C126 1.388 . S
P128 O139 1.490 . S
P128 C142 1.812 . S
P128 C148 1.803 . S
P128 C154 1.819 . S
H129 C143 0.941 . S
H130 C144 0.939 . S
H131 C146 0.940 . S
H132 C147 0.940 . S
H133 C149 0.939 . S
H134 C150 0.942 . S
H135 C152 0.940 . S
H136 C153 0.939 . S
H137 C155 0.941 . S
H138 C159 0.939 . S
O139 P128 1.490 . S
H140 C156 0.939 . S
H141 C158 0.940 . S
C142 P128 1.812 . S
C142 C143 1.389 . S
C142 C147 1.391 . S
C143 H129 0.941 . S
C143 C142 1.389 . S
C143 C144 1.397 . S
C144 H130 0.939 . S
C144 C143 1.397 . S
C144 C145 1.378 . S
C145 C144 1.378 . S
C145 C146 1.378 . S
C146 H131 0.940 . S
C146 C145 1.378 . S
C146 C147 1.396 . S
C147 H132 0.940 . S
C147 C142 1.391 . S
C147 C146 1.396 . S
C148 P128 1.803 . S
C148 C149 1.378 . S
C148 C153 1.400 . S
C149 H133 0.939 . S
C149 C148 1.378 . S
C149 C150 1.361 . S
C150 H134 0.942 . S
C150 C149 1.361 . S
C150 C151 1.369 . S
C151 C150 1.369 . S
C151 C152 1.404 . S
C152 H135 0.940 . S
C152 C151 1.404 . S
C152 C153 1.389 . S
C153 H136 0.939 . S
C153 C148 1.400 . S
C153 C152 1.389 . S
C154 P128 1.819 . S
C154 C155 1.391 . S
C154 C159 1.391 . S
C155 H137 0.941 . S
C155 C154 1.391 . S
C155 C156 1.396 . S
C156 H140 0.939 . S
C156 C155 1.396 . S
C156 C157 1.397 . S
C157 C156 1.397 . S
C157 C158 1.385 . S
C158 H141 0.940 . S
C158 C157 1.385 . S
C158 C159 1.388 . S
C159 H138 0.939 . S
C159 C154 1.391 . S
C159 C158 1.388 . S
P160 O171 1.490 . S
P160 C174 1.812 . S
P160 C180 1.803 . S
P160 C186 1.819 . S
H161 C175 0.941 . S
H162 C176 0.939 . S
H163 C178 0.940 . S
H164 C179 0.940 . S
H165 C181 0.939 . S
H166 C182 0.942 . S
H167 C184 0.940 . S
H168 C185 0.939 . S
H169 C187 0.941 . S
H170 C191 0.939 . S
O171 P160 1.490 . S
H172 C188 0.939 . S
H173 C190 0.940 1_556 S
C174 P160 1.812 . S
C174 C175 1.389 . S
C174 C179 1.391 . S
C175 H161 0.941 . S
C175 C174 1.389 . S
C175 C176 1.397 . S
C176 H162 0.939 . S
C176 C175 1.397 . S
C176 C177 1.378 . S
C177 C176 1.378 . S
C177 C178 1.378 . S
C178 H163 0.940 . S
C178 C177 1.378 . S
C178 C179 1.396 . S
C179 H164 0.940 . S
C179 C174 1.391 . S
C179 C178 1.396 . S
C180 P160 1.803 . S
C180 C181 1.378 . S
C180 C185 1.400 . S
C181 H165 0.939 . S
C181 C180 1.378 . S
C181 C182 1.361 . S
C182 H166 0.942 . S
C182 C181 1.361 . S
C182 C183 1.369 . S
C183 C182 1.369 . S
C183 C184 1.404 . S
C184 H167 0.940 . S
C184 C183 1.404 . S
C184 C185 1.389 . S
C185 H168 0.939 . S
C185 C180 1.400 . S
C185 C184 1.389 . S
C186 P160 1.819 . S
C186 C187 1.391 . S
C186 C191 1.391 . S
C187 H169 0.941 . S
C187 C186 1.391 . S
C187 C188 1.396 . S
C188 H172 0.939 . S
C188 C187 1.396 . S
C188 C189 1.397 1_554 S
C189 C188 1.397 1_556 S
C189 C190 1.385 1_556 S
C190 H173 0.940 1_554 S
C190 C189 1.385 1_554 S
C190 C191 1.388 . S
C191 H170 0.939 . S
C191 C186 1.391 . S
C191 C190 1.388 . S
P192 O203 1.490 . S
P192 C206 1.812 . S
P192 C212 1.803 . S
P192 C218 1.819 . S
H193 C207 0.941 . S
H194 C208 0.939 . S
H195 C210 0.940 . S
H196 C211 0.940 . S
H197 C213 0.939 . S
H198 C214 0.942 . S
H199 C216 0.940 . S
H200 C217 0.939 . S
H201 C219 0.941 . S
H202 C223 0.939 . S
O203 P192 1.490 . S
H204 C220 0.939 . S
H205 C222 0.940 . S
C206 P192 1.812 . S
C206 C207 1.389 . S
C206 C211 1.391 . S
C207 H193 0.941 . S
C207 C206 1.389 . S
C207 C208 1.397 . S
C208 H194 0.939 . S
C208 C207 1.397 . S
C208 C209 1.378 . S
C209 C208 1.378 . S
C209 C210 1.378 . S
C210 H195 0.940 . S
C210 C209 1.378 . S
C210 C211 1.396 . S
C211 H196 0.940 . S
C211 C206 1.391 . S
C211 C210 1.396 . S
C212 P192 1.803 . S
C212 C213 1.378 . S
C212 C217 1.400 . S
C213 H197 0.939 . S
C213 C212 1.378 . S
C213 C214 1.361 . S
C214 H198 0.942 . S
C214 C213 1.361 . S
C214 C215 1.369 . S
C215 C214 1.369 . S
C215 C216 1.404 . S
C216 H199 0.940 . S
C216 C215 1.404 . S
C216 C217 1.389 . S
C217 H200 0.939 . S
C217 C212 1.400 . S
C217 C216 1.389 . S
C218 P192 1.819 . S
C218 C219 1.391 . S
C218 C223 1.391 . S
C219 H201 0.941 . S
C219 C218 1.391 . S
C219 C220 1.396 . S
C220 H204 0.939 . S
C220 C219 1.396 . S
C220 C221 1.397 . S
C221 C220 1.397 . S
C221 C222 1.385 . S
C222 H205 0.940 . S
C222 C221 1.385 . S
C222 C223 1.388 . S
C223 H202 0.939 . S
C223 C218 1.391 . S
C223 C222 1.388 . S
P224 O235 1.490 . S
P224 C238 1.812 . S
P224 C244 1.803 . S
P224 C250 1.819 . S
H225 C239 0.941 . S
H226 C240 0.939 . S
H227 C242 0.940 . S
H228 C243 0.940 . S
H229 C245 0.939 . S
H230 C246 0.942 . S
H231 C248 0.940 . S
H232 C249 0.939 . S
H233 C251 0.941 . S
H234 C255 0.939 . S
O235 P224 1.490 . S
H236 C252 0.939 . S
H237 C254 0.940 . S
C238 P224 1.812 . S
C238 C239 1.389 . S
C238 C243 1.391 . S
C239 H225 0.941 . S
C239 C238 1.389 . S
C239 C240 1.397 . S
C240 H226 0.939 . S
C240 C239 1.397 . S
C240 C241 1.378 . S
C241 C240 1.378 . S
C241 C242 1.378 . S
C242 H227 0.940 . S
C242 C241 1.378 . S
C242 C243 1.396 . S
C243 H228 0.940 . S
C243 C238 1.391 . S
C243 C242 1.396 . S
C244 P224 1.803 . S
C244 C245 1.378 . S
C244 C249 1.400 . S
C245 H229 0.939 . S
C245 C244 1.378 . S
C245 C246 1.361 . S
C246 H230 0.942 . S
C246 C245 1.361 . S
C246 C247 1.369 . S
C247 C246 1.369 . S
C247 C248 1.404 . S
C248 H231 0.940 . S
C248 C247 1.404 . S
C248 C249 1.389 . S
C249 H232 0.939 . S
C249 C244 1.400 . S
C249 C248 1.389 . S
C250 P224 1.819 . S
C250 C251 1.391 . S
C250 C255 1.391 . S
C251 H233 0.941 . S
C251 C250 1.391 . S
C251 C252 1.396 . S
C252 H236 0.939 . S
C252 C251 1.396 . S
C252 C253 1.397 . S
C253 C252 1.397 . S
C253 C254 1.385 . S
C254 H237 0.940 . S
C254 C253 1.385 . S
C254 C255 1.388 . S
C255 H234 0.939 . S
C255 C250 1.391 . S
C255 C254 1.388 . S
Zn256 O262 1.920 . S
Zn256 O268 1.898 . S
Zn256 O271 1.905 . S
Zn257 O265 1.905 1_655 S
Zn257 O266 1.898 . S
Zn257 O274 1.920 . S
Zn258 O261 2.080 1_455 S
Zn258 O264 2.114 . S
Zn258 O267 2.120 1_455 S
Zn258 O269 2.120 . S
Zn258 O270 2.114 . S
Zn258 O273 2.080 1_455 S
C259 O264 1.166 . S
C259 O265 1.182 . S
C260 O266 1.167 . S
C260 O267 1.299 . S
O261 Zn258 2.080 1_655 S
O261 C275 1.305 . S
O262 Zn256 1.920 . S
O262 C275 1.234 1_455 S
C263 O268 1.167 . S
C263 O269 1.299 . S
O264 Zn258 2.114 . S
O264 C259 1.166 . S
O265 Zn257 1.905 1_455 S
O265 C259 1.182 . S
O266 Zn257 1.898 . S
O266 C260 1.167 . S
O267 Zn258 2.120 1_655 S
O267 C260 1.299 . S
O268 Zn256 1.898 . S
O268 C263 1.167 . S
O269 Zn258 2.120 . S
O269 C263 1.299 . S
O270 Zn258 2.114 . S
O270 C272 1.166 . S
O271 Zn256 1.905 . S
O271 C272 1.182 . S
C272 O270 1.166 . S
C272 O271 1.182 . S
O273 Zn258 2.080 1_655 S
O273 C276 1.305 . S
O274 Zn257 1.920 . S
O274 C276 1.234 . S
C275 O261 1.305 . S
C275 O262 1.234 1_655 S
C276 O273 1.305 . S
C276 O274 1.234 . S
Zn277 O283 1.920 . S
Zn277 O289 1.898 . S
Zn277 O292 1.905 . S
Zn278 O286 1.905 . S
Zn278 O287 1.898 . S
Zn278 O295 1.920 . S
Zn279 O282 2.080 . S
Zn279 O285 2.114 . S
Zn279 O288 2.120 . S
Zn279 O290 2.120 . S
Zn279 O291 2.114 . S
Zn279 O294 2.080 . S
C280 O285 1.166 . S
C280 O286 1.182 . S
C281 O287 1.167 . S
C281 O288 1.299 . S
O282 Zn279 2.080 . S
O282 C296 1.305 . S
O283 Zn277 1.920 . S
O283 C296 1.234 . S
C284 O289 1.167 . S
C284 O290 1.299 . S
O285 Zn279 2.114 . S
O285 C280 1.166 . S
O286 Zn278 1.905 . S
O286 C280 1.182 . S
O287 Zn278 1.898 . S
O287 C281 1.167 . S
O288 Zn279 2.120 . S
O288 C281 1.299 . S
O289 Zn277 1.898 . S
O289 C284 1.167 . S
O290 Zn279 2.120 . S
O290 C284 1.299 . S
O291 Zn279 2.114 . S
O291 C293 1.166 . S
O292 Zn277 1.905 . S
O292 C293 1.182 . S
C293 O291 1.166 . S
C293 O292 1.182 . S
O294 Zn279 2.080 . S
O294 C297 1.305 . S
O295 Zn278 1.920 . S
O295 C297 1.234 . S
C296 O282 1.305 . S
C296 O283 1.234 . S
C297 O294 1.305 . S
C297 O295 1.234 . S
Zn298 O304 1.920 . S
Zn298 O310 1.898 . S
Zn298 O313 1.905 1_455 S
Zn299 O307 1.905 . S
Zn299 O308 1.898 . S
Zn299 O316 1.920 1_655 S
Zn300 O303 2.095 . S
Zn300 O306 2.098 1_455 S
Zn300 O309 2.105 1_455 S
Zn300 O311 2.137 . S
Zn300 O312 2.102 1_455 S
Zn300 O315 2.093 . S
C301 O306 1.166 . S
C301 O307 1.182 . S
C302 O308 1.167 . S
C302 O309 1.299 . S
O303 Zn300 2.095 . S
O303 C317 1.305 . S
O304 Zn298 1.920 . S
O304 C317 1.234 . S
C305 O310 1.167 . S
C305 O311 1.299 . S
O306 Zn300 2.098 1_655 S
O306 C301 1.166 . S
O307 Zn299 1.905 . S
O307 C301 1.182 . S
O308 Zn299 1.898 . S
O308 C302 1.167 . S
O309 Zn300 2.105 1_655 S
O309 C302 1.299 . S
O310 Zn298 1.898 . S
O310 C305 1.167 . S
O311 Zn300 2.137 . S
O311 C305 1.299 . S
O312 Zn300 2.102 1_655 S
O312 C314 1.166 . S
O313 Zn298 1.905 1_655 S
O313 C314 1.182 . S
C314 O312 1.166 . S
C314 O313 1.182 . S
O315 Zn300 2.093 . S
O315 C318 1.305 . S
O316 Zn299 1.920 1_455 S
O316 C318 1.234 . S
C317 O303 1.305 . S
C317 O304 1.234 . S
C318 O315 1.305 . S
C318 O316 1.234 . S
Zn319 O325 1.920 . S
Zn319 O331 1.898 . S
Zn319 O334 1.905 . S
Zn320 O328 1.905 . S
Zn320 O329 1.898 . S
Zn320 O337 1.920 . S
Zn321 O324 2.080 . S
Zn321 O327 2.114 . S
Zn321 O330 2.120 . S
Zn321 O332 2.120 . S
Zn321 O333 2.114 . S
Zn321 O336 2.080 . S
C322 O327 1.166 . S
C322 O328 1.182 . S
C323 O329 1.167 . S
C323 O330 1.299 . S
O324 Zn321 2.080 . S
O324 C338 1.305 . S
O325 Zn319 1.920 . S
O325 C338 1.234 . S
C326 O331 1.167 . S
C326 O332 1.299 . S
O327 Zn321 2.114 . S
O327 C322 1.166 . S
O328 Zn320 1.905 . S
O328 C322 1.182 . S
O329 Zn320 1.898 . S
O329 C323 1.167 . S
O330 Zn321 2.120 . S
O330 C323 1.299 . S
O331 Zn319 1.898 . S
O331 C326 1.167 . S
O332 Zn321 2.120 . S
O332 C326 1.299 . S
O333 Zn321 2.114 . S
O333 C335 1.166 . S
O334 Zn319 1.905 . S
O334 C335 1.182 . S
C335 O333 1.166 . S
C335 O334 1.182 . S
O336 Zn321 2.080 . S
O336 C339 1.305 . S
O337 Zn320 1.920 . S
O337 C339 1.234 . S
C338 O324 1.305 . S
C338 O325 1.234 . S
C339 O336 1.305 . S
C339 O337 1.234 . S
C340 C341 1.170 . S
C340 C342 1.380 1_565 S
C341 C340 1.170 . S
C342 C340 1.380 1_545 S
C342 C343 1.170 . S
C343 C342 1.170 . S
C344 C345 1.170 . S
C344 C346 1.380 . S
C345 C344 1.170 . S
C346 C344 1.380 . S
C346 C347 1.170 . S
C347 C346 1.170 . S
C348 C349 1.170 . S
C348 C350 1.380 . S
C349 C348 1.170 . S
C350 C348 1.380 . S
C350 C351 1.170 . S
C351 C350 1.170 . S
C352 C353 1.170 . S
C352 C354 1.380 1_565 S
C353 C352 1.170 . S
C354 C352 1.380 1_545 S
C354 C355 1.170 . S
C355 C354 1.170 . S
C356 C357 1.170 . S
C356 C358 1.380 1_545 S
C357 C356 1.170 . S
C358 C356 1.380 1_565 S
C358 C359 1.170 . S
C359 C358 1.170 . S
C360 C361 1.170 . S
C360 C362 1.380 . S
C361 C360 1.170 . S
C362 C360 1.380 . S
C362 C363 1.170 . S
C363 C362 1.170 . S
C364 C365 1.170 . S
C364 C366 1.380 . S
C365 C364 1.170 . S
C366 C364 1.380 . S
C366 C367 1.170 . S
C367 C366 1.170 . S
C368 C369 1.170 . S
C368 C370 1.380 1_545 S
C369 C368 1.170 . S
C370 C368 1.380 1_565 S
C370 C371 1.170 . S
C371 C370 1.170 . S
C372 C373 1.170 . S
C372 C374 1.380 . S
C373 C372 1.170 . S
C374 C372 1.380 . S
C374 C375 1.170 . S
C375 C374 1.170 . S
C376 C377 1.170 . S
C376 C378 1.380 . S
C377 C376 1.170 . S
C378 C376 1.380 . S
C378 C379 1.170 . S
C379 C378 1.170 . S
C380 C381 1.170 . S
C380 C382 1.380 . S
C381 C380 1.170 . S
C382 C380 1.380 . S
C382 C383 1.170 . S
C383 C382 1.170 . S
C384 C385 1.170 . S
C384 C386 1.380 . S
C385 C384 1.170 . S
C386 C384 1.380 . S
C386 C387 1.170 . S
C387 C386 1.170 . S
C388 C389 1.170 . S
C388 C390 1.380 . S
C389 C388 1.170 . S
C390 C388 1.380 . S
C390 C391 1.170 . S
C391 C390 1.170 . S
C392 C393 1.170 . S
C392 C394 1.380 . S
C393 C392 1.170 . S
C394 C392 1.380 . S
C394 C395 1.170 . S
C395 C394 1.170 . S
C396 C397 1.170 . S
C396 C398 1.380 . S
C397 C396 1.170 . S
C398 C396 1.380 . S
C398 C399 1.170 . S
C399 C398 1.170 . S
C400 C401 1.170 . S
C400 C402 1.380 . S
C401 C400 1.170 . S
C402 C400 1.380 . S
C402 C403 1.170 . S
C403 C402 1.170 . S
C404 C405 1.170 . S
C404 C406 1.380 . S
C405 C404 1.170 . S
C406 C404 1.380 . S
C406 C407 1.170 . S
C407 C406 1.170 . S
C408 C409 1.170 . S
C408 C410 1.380 . S
C409 C408 1.170 . S
C410 C408 1.380 . S
C410 C411 1.170 . S
C411 C410 1.170 . S
C412 C413 1.170 . S
C412 C414 1.380 . S
C413 C412 1.170 . S
C414 C412 1.380 . S
C414 C415 1.170 . S
C415 C414 1.170 . S
C416 C417 1.170 . S
C416 C418 1.380 . S
C417 C416 1.170 . S
C418 C416 1.380 . S
C418 C419 1.170 . S
C419 C418 1.170 . S
C420 C421 1.170 . S
C420 C422 1.380 . S
C421 C420 1.170 . S
C422 C420 1.380 . S
C422 C423 1.170 . S
C423 C422 1.170 . S
C424 C425 1.170 . S
C424 C426 1.380 . S
C425 C424 1.170 . S
C426 C424 1.380 . S
C426 C427 1.170 . S
C427 C426 1.170 . S
C428 C429 1.170 . S
C428 C430 1.380 . S
C429 C428 1.170 . S
C430 C428 1.380 . S
C430 C431 1.170 . S
C431 C430 1.170 . S
C432 C433 1.170 . S
C432 C434 1.380 . S
C433 C432 1.170 . S
C434 C432 1.380 . S
C434 C435 1.170 . S
C435 C434 1.170 . S
C341 C221 1.436 . S
C343 C272 1.449 . S
C347 C280 1.383 . S
C345 C241 1.442 . S
C351 C284 1.402 . S
C349 C157 1.380 . S
C353 C177 1.412 . S
C355 C260 1.390 . S
C359 C301 1.449 . S
C357 C93 1.476 . S
C363 C335 1.406 . S
C361 C113 1.418 . S
C365 C29 1.475 . S
C367 C323 1.421 . S
C369 C49 1.366 . S
C371 C305 1.350 . S
C375 C259 1.282 . S
C373 C61 1.428 . S
C379 C293 1.294 . S
C377 C17 1.456 . S
C383 C297 1.348 . S
C381 C125 1.429 . S
C387 C275 1.340 . S
C385 C81 1.465 . S
C391 C314 1.299 . S
C389 C189 1.444 . S
C393 C145 1.447 . S
C395 C322 1.280 . S
C399 C338 1.287 . S
C397 C253 1.438 1_554 S
C401 C209 1.447 . S
C403 C318 1.292 . S
C407 C263 1.351 . S
C405 C23 1.498 . S
C411 C281 1.330 . S
C409 C55 1.484 . S
C413 C87 1.481 . S
C415 C296 1.348 . S
C419 C276 1.292 . S
C417 C119 1.468 . S
C423 C302 1.288 . S
C421 C151 1.462 . S
C425 C183 1.486 . S
C427 C326 1.337 . S
C429 C215 1.454 . S
C431 C339 1.286 . S
C433 C247 1.482 . S
C435 C317 1.348 . S
