# Generated by pormake.
# Topology anh, (6,3)-cn, num edge types: 1
# Building blocks:
#     Node 0, Type 0, BuildingBlock: CUKXOW_clean_sbu_0, # of connection points: 6
#     Node 1, Type 0, BuildingBlock: CUKXOW_clean_sbu_0, # of connection points: 6
#     Node 2, Type 0, BuildingBlock: CUKXOW_clean_sbu_0, # of connection points: 6
#     Node 3, Type 1, BuildingBlock: PAMTOO_clean_linker_0, # of connection points: 3
#     Node 4, Type 1, BuildingBlock: PAMTOO_clean_linker_0, # of connection points: 3
#     Node 5, Type 1, BuildingBlock: PAMTOO_clean_linker_0, # of connection points: 3
#     Node 6, Type 1, BuildingBlock: PAMTOO_clean_linker_0, # of connection points: 3
#     Node 7, Type 1, BuildingBlock: PAMTOO_clean_linker_0, # of connection points: 3
#     Node 8, Type 1, BuildingBlock: PAMTOO_clean_linker_0, # of connection points: 3
#     Edge 9, Type (0, 1), BuildingBlock: UVAHIK_clean_linker_0, # of connection points: 2
#     Edge 10, Type (0, 1), BuildingBlock: UVAHIK_clean_linker_0, # of connection points: 2
#     Edge 11, Type (0, 1), BuildingBlock: UVAHIK_clean_linker_0, # of connection points: 2
#     Edge 12, Type (0, 1), BuildingBlock: UVAHIK_clean_linker_0, # of connection points: 2
#     Edge 13, Type (0, 1), BuildingBlock: UVAHIK_clean_linker_0, # of connection points: 2
#     Edge 14, Type (0, 1), BuildingBlock: UVAHIK_clean_linker_0, # of connection points: 2
#     Edge 15, Type (0, 1), BuildingBlock: UVAHIK_clean_linker_0, # of connection points: 2
#     Edge 16, Type (0, 1), BuildingBlock: UVAHIK_clean_linker_0, # of connection points: 2
#     Edge 17, Type (0, 1), BuildingBlock: UVAHIK_clean_linker_0, # of connection points: 2
#     Edge 18, Type (0, 1), BuildingBlock: UVAHIK_clean_linker_0, # of connection points: 2
#     Edge 19, Type (0, 1), BuildingBlock: UVAHIK_clean_linker_0, # of connection points: 2
#     Edge 20, Type (0, 1), BuildingBlock: UVAHIK_clean_linker_0, # of connection points: 2
#     Edge 21, Type (0, 1), BuildingBlock: UVAHIK_clean_linker_0, # of connection points: 2
#     Edge 22, Type (0, 1), BuildingBlock: UVAHIK_clean_linker_0, # of connection points: 2
#     Edge 23, Type (0, 1), BuildingBlock: UVAHIK_clean_linker_0, # of connection points: 2
#     Edge 24, Type (0, 1), BuildingBlock: UVAHIK_clean_linker_0, # of connection points: 2
#     Edge 25, Type (0, 1), BuildingBlock: UVAHIK_clean_linker_0, # of connection points: 2
#     Edge 26, Type (0, 1), BuildingBlock: UVAHIK_clean_linker_0, # of connection points: 2
# Relax obj value: 0.105
# Max RMSD: 0.154
# Mean RMSD: 0.126
data_MOF--net-anh--node1-CUKXOW_clean_sbu_0--node2-PAMTOO_clean_linker_0--edge1-UVAHIK_clean_linker_0
_symmetry_space_group_name_H-M    P1
_symmetry_Int_Tables_number       1
_symmetry_cell_setting            triclinic
loop_
_symmetry_equiv_pos_as_xyz
'x, y, z'
_cell_length_a     37.959677
_cell_length_b     36.97519
_cell_length_c     62.513852
_cell_angle_alpha  91.50183
_cell_angle_beta   92.18846
_cell_angle_gamma 114.69095
loop_
_atom_site_label
_atom_site_type_symbol
_atom_site_fract_x
_atom_site_fract_y
_atom_site_fract_z
_atom_type_partial_charge
Tb0 Tb 0.07293 0.52627 0.15754 0.0
C1 C 0.04444 0.48725 0.20161 0.0
Tb2 Tb 1.01659 0.43326 0.15838 0.0
O3 O 0.02656 0.54813 0.15718 0.0
O4 O 1.01318 0.48873 0.15718 0.0
O5 O 0.07103 0.51703 0.19174 0.0
C6 C 0.95246 0.36594 0.15875 0.0
O7 O 0.01799 0.45451 0.19145 0.0
C8 C 0.09172 0.44679 0.15764 0.0
C9 C 0.04752 0.47116 0.1147 0.0
O10 O 0.98184 0.37679 0.1726 0.0
O11 O 0.9594 0.39282 0.14459 0.0
O12 O 0.06298 0.41152 0.15707 0.0
O13 O 0.07611 0.47087 0.15882 0.0
O14 O 0.01926 0.44245 0.12426 0.0
O15 O 0.07415 0.50355 0.12509 0.0
C16 C 0.13626 0.59446 0.15818 0.0
O17 O 0.10928 0.58172 0.14284 0.0
O18 O 0.12754 0.56884 0.17311 0.0
C19 C 0.99773 0.51304 0.15706 0.0
Tb20 Tb 0.53621 0.99006 0.5086 0.0
C21 C 0.57225 0.01446 0.46423 0.0
Tb22 Tb 0.62104 0.05131 0.50727 0.0
O23 O 0.51612 0.03227 0.49419 0.0
O24 O 0.56726 0.0526 0.5132 0.0
O25 O 0.54696 0.9853 0.47494 0.0
C26 C 0.68408 0.11982 0.50814 0.0
O27 O 0.60031 0.04638 0.47391 0.0
C28 C 0.60937 0.97644 0.5009 0.0
C29 C 0.58534 0.02604 0.55247 0.0
O30 O 0.65073 0.1131 0.49873 0.0
O31 O 0.6822 0.08768 0.51706 0.0
O32 O 0.63822 0.00621 0.4934 0.0
O33 O 0.59165 0.98999 0.51307 0.0
O34 O 0.61475 0.05093 0.54178 0.0
O35 O 0.55289 0.99861 0.54286 0.0
C36 C 0.47081 0.92512 0.51246 0.0
O37 O 0.47743 0.96069 0.51987 0.0
O38 O 0.50108 0.92617 0.50303 0.0
C39 C 0.54657 0.06355 0.50122 0.0
Tb40 Tb 0.56342 0.53648 0.82354 0.0
C41 C 0.59423 0.53837 0.87064 0.0
Tb42 Tb 0.64726 0.55232 0.83169 0.0
O43 O 0.54422 0.47723 0.83635 0.0
O44 O 0.59625 0.50231 0.82085 0.0
O45 O 0.56976 0.54712 0.85835 0.0
C46 C 0.71484 0.5473 0.83323 0.0
O47 O 0.62374 0.53304 0.86271 0.0
C48 C 0.63159 0.6141 0.83906 0.0
C49 C 0.61623 0.5483 0.78381 0.0
O50 O 0.70923 0.5774 0.82637 0.0
O51 O 0.68262 0.52046 0.8396 0.0
O52 O 0.65915 0.60847 0.84931 0.0
O53 O 0.61677 0.58754 0.82428 0.0
O54 O 0.64584 0.55135 0.79679 0.0
O55 O 0.58234 0.54412 0.79086 0.0
C56 C 0.49791 0.53809 0.80846 0.0
O57 O 0.51033 0.51153 0.80324 0.0
O58 O 0.52159 0.56319 0.823 0.0
C59 C 0.57521 0.47305 0.83129 0.0
H60 H 0.60806 0.06932 0.23638 0.0
H61 H 0.50118 0.96364 0.2257 0.0
H62 H 0.55794 0.03048 0.17245 0.0
H63 H 0.46992 0.99277 0.16396 0.0
C64 C 0.46475 0.9756 0.17875 0.0
O65 O 0.49732 0.96946 0.18425 0.0
H66 H 0.45856 0.99321 0.19163 0.0
C67 C 0.58521 0.04821 0.22565 0.0
C68 C 0.58698 0.05363 0.20351 0.0
C69 C 0.55463 0.01572 0.23401 0.0
C70 C 0.52501 0.98908 0.2198 0.0
C71 C 0.52617 0.99482 0.19772 0.0
C72 C 0.55728 0.02663 0.18958 0.0
H73 H 0.61082 0.60935 0.55859 0.0
H74 H 0.6066 0.49269 0.54627 0.0
H75 H 0.58847 0.55755 0.49413 0.0
H76 H 0.54407 0.46387 0.48546 0.0
C77 C 0.5573 0.45875 0.50059 0.0
O78 O 0.59277 0.49088 0.50493 0.0
H79 H 0.53709 0.45601 0.51354 0.0
C80 C 0.6071 0.58502 0.54734 0.0
C81 C 0.59905 0.5878 0.52547 0.0
C82 C 0.60979 0.55089 0.55496 0.0
C83 C 0.60473 0.51926 0.54052 0.0
C84 C 0.5973 0.52171 0.51862 0.0
C85 C 0.59466 0.55605 0.51106 0.0
H86 H 1.0156 0.45204 0.88668 0.0
H87 H 0.12809 0.45047 0.88303 0.0
H88 H 0.07506 0.47824 0.82796 0.0
H89 H 0.11075 0.42649 0.81957 0.0
C90 C 0.13851 0.44216 0.82934 0.0
O91 O 0.13587 0.47054 0.84309 0.0
H92 H 0.1445 0.42006 0.83874 0.0
C93 C 0.03997 0.45422 0.87746 0.0
C94 C 0.0411 0.46478 0.85601 0.0
C95 C 0.07132 0.44928 0.88749 0.0
C96 C 0.10345 0.45387 0.87561 0.0
C97 C 0.10432 0.46396 0.85417 0.0
C98 C 0.07353 0.46978 0.84448 0.0
H99 H 0.98697 0.45464 0.43186 0.0
H100 H 0.0946 0.56056 0.43844 0.0
H101 H 0.03735 0.50547 0.49436 0.0
H102 H 0.07676 0.59267 0.50246 0.0
C103 C 0.0925 0.59898 0.48739 0.0
O104 O 0.09639 0.56533 0.48018 0.0
H105 H 0.07517 0.60767 0.47547 0.0
C106 C 1.00999 0.47744 0.44177 0.0
C107 C 1.00851 0.47622 0.46417 0.0
C108 C 0.04107 0.50742 0.43212 0.0
C109 C 0.07019 0.53715 0.44533 0.0
C110 C 0.06851 0.53646 0.46766 0.0
C111 C 0.03814 0.50576 0.47705 0.0
H112 H 0.62186 0.97452 0.78017 0.0
H113 H 0.61923 0.08878 0.79125 0.0
H114 H 0.62 0.01806 0.84446 0.0
H115 H 0.57604 0.07337 0.85382 0.0
C116 C 0.58431 0.08734 0.83818 0.0
O117 O 0.61846 0.08534 0.83279 0.0
H118 H 0.56028 0.07057 0.82606 0.0
C119 C 0.62187 0.99781 0.79109 0.0
C120 C 0.62187 0.99234 0.81324 0.0
C121 C 0.62062 0.03227 0.78286 0.0
C122 C 0.61959 0.06167 0.79718 0.0
C123 C 0.61913 0.05645 0.81929 0.0
C124 C 0.62001 0.02171 0.82732 0.0
H125 H 0.62151 0.48305 0.09794 0.0
H126 H 0.51167 0.48979 0.10384 0.0
H127 H 0.57845 0.48646 0.16032 0.0
H128 H 0.48426 0.45386 0.16827 0.0
C129 C 0.48026 0.45905 0.15112 0.0
O130 O 0.51328 0.49138 0.1453 0.0
H131 H 0.47703 0.43156 0.14186 0.0
C132 C 0.5988 0.48355 0.10778 0.0
C133 C 0.60388 0.48336 0.13015 0.0
C134 C 0.56599 0.4862 0.09802 0.0
C135 C 0.53735 0.48813 0.11102 0.0
C136 C 0.54129 0.48795 0.13339 0.0
C137 C 0.57497 0.48604 0.14303 0.0
C138 C 0.14245 0.42245 0.1495 0.0
C139 C 0.13346 0.45455 0.15529 0.0
C140 C 0.18099 0.42766 0.14768 0.0
C141 C 0.2832 0.49171 0.16561 0.0
H142 H 0.30626 0.43594 0.11867 0.0
C143 C 0.44 0.49972 0.15634 0.0
C144 C 0.44287 0.46525 0.14815 0.0
C145 C 0.4039 0.50242 0.15602 0.0
C146 C 0.30055 0.45137 0.13212 0.0
H147 H 0.15874 0.51767 0.16385 0.0
H148 H 0.22659 0.52688 0.16102 0.0
H149 H 0.24142 0.43336 0.12061 0.0
H150 H 0.4093 0.40618 0.13381 0.0
H151 H 0.34717 0.41041 0.13345 0.0
H152 H 0.34209 0.50876 0.17749 0.0
C153 C 0.20342 0.49748 0.15777 0.0
C154 C 0.26308 0.45002 0.13316 0.0
C155 C 0.16448 0.49231 0.15928 0.0
C156 C 0.40859 0.43365 0.13973 0.0
C157 C 0.37266 0.4362 0.1395 0.0
C158 C 0.32075 0.49274 0.16471 0.0
C159 C 0.21227 0.46516 0.15184 0.0
C160 C 0.2535 0.46967 0.15006 0.0
C161 C 0.36939 0.47051 0.14773 0.0
C162 C 0.33003 0.47205 0.14809 0.0
H163 H 0.11947 0.39287 0.14638 0.0
H164 H 0.1863 0.40188 0.14338 0.0
H165 H 0.27707 0.50704 0.17896 0.0
H166 H 0.46557 0.52431 0.1634 0.0
H167 H 0.40314 0.52957 0.16239 0.0
C168 C 0.71609 0.18994 0.49751 0.0
C169 C 0.71845 0.15815 0.50827 0.0
C170 C 0.74854 0.2262 0.49695 0.0
C171 C 0.85523 0.26977 0.5018 0.0
H172 H 0.84336 0.36901 0.50182 0.0
C173 C 0.98373 0.42164 0.49006 0.0
C174 C 0.9762 0.44361 0.47392 0.0
C175 C 0.95336 0.38879 0.49799 0.0
C176 C 0.8471 0.34153 0.50182 0.0
H177 H 0.75612 0.13928 0.52727 0.0
H178 H 0.81313 0.20314 0.52653 0.0
H179 H 0.78818 0.30733 0.50932 0.0
H180 H 0.93111 0.44973 0.45409 0.0
H181 H 0.87805 0.39252 0.46799 0.0
H182 H 0.9141 0.30408 0.494 0.0
C183 C 0.78628 0.19983 0.51828 0.0
C184 C 0.81551 0.30619 0.50604 0.0
C185 C 0.75369 0.16337 0.51878 0.0
C186 C 0.9377 0.43307 0.46641 0.0
C187 C 0.90735 0.40057 0.4745 0.0
C188 C 0.88693 0.30521 0.49772 0.0
C189 C 0.78409 0.2316 0.50724 0.0
C190 C 0.81891 0.26972 0.50551 0.0
C191 C 0.91492 0.37774 0.49013 0.0
C192 C 0.88288 0.34125 0.49717 0.0
H193 H 0.68923 0.18667 0.48926 0.0
H194 H 0.74594 0.24969 0.48796 0.0
H195 H 0.85878 0.24219 0.50105 0.0
H196 H 1.01322 0.42907 0.49603 0.0
H197 H 0.95995 0.37181 0.51012 0.0
C198 C 0.64757 0.68103 0.85649 0.0
C199 C 0.626 0.65127 0.84082 0.0
C200 C 0.64498 0.71766 0.85713 0.0
C201 C 0.58614 0.77018 0.83763 0.0
H202 H 0.68454 0.86347 0.84298 0.0
C203 C 0.59695 0.93157 0.83534 0.0
C204 C 0.62392 0.95574 0.82119 0.0
C205 C 0.59668 0.89493 0.84084 0.0
C206 C 0.65681 0.83773 0.84153 0.0
H207 H 0.58375 0.63584 0.81398 0.0
H208 H 0.57919 0.69989 0.81502 0.0
H209 H 0.68329 0.79748 0.84651 0.0
H210 H 0.67275 0.96152 0.80251 0.0
H211 H 0.67251 0.89802 0.81219 0.0
H212 H 0.55987 0.81061 0.83197 0.0
C213 C 0.59795 0.69488 0.82693 0.0
C214 C 0.65603 0.7999 0.84374 0.0
C215 C 0.60066 0.65825 0.82627 0.0
C216 C 0.6515 0.94337 0.81336 0.0
C217 C 0.65151 0.90711 0.81902 0.0
C218 C 0.5869 0.80813 0.83555 0.0
C219 C 0.62065 0.72531 0.84213 0.0
C220 C 0.62077 0.7656 0.84148 0.0
C221 C 0.62375 0.88215 0.83256 0.0
C222 C 0.62234 0.84227 0.83708 0.0
H223 H 0.66713 0.67633 0.86802 0.0
H224 H 0.6624 0.74022 0.86923 0.0
H225 H 0.55847 0.74439 0.836 0.0
H226 H 0.57525 0.94033 0.84151 0.0
H227 H 0.57511 0.87644 0.85143 0.0
C228 C 0.92495 0.46883 0.15131 0.0
C229 C 0.95574 0.50576 0.15734 0.0
C230 C 0.88605 0.46443 0.1503 0.0
C231 C 0.82749 0.52633 0.14874 0.0
H232 H 0.74097 0.42574 0.1579 0.0
C233 C 0.6691 0.51367 0.15098 0.0
C234 C 0.64038 0.48134 0.13903 0.0
C235 C 0.70654 0.5152 0.15519 0.0
C236 C 0.76475 0.4541 0.15521 0.0
H237 H 0.96923 0.56662 0.16775 0.0
H238 H 0.90253 0.55888 0.16694 0.0
H239 H 0.80724 0.4308 0.1611 0.0
H240 H 0.6284 0.42473 0.12274 0.0
H241 H 0.69283 0.42675 0.13054 0.0
H242 H 0.78497 0.54965 0.14309 0.0
C243 C 0.9078 0.53333 0.16215 0.0
C244 C 0.80304 0.45701 0.15694 0.0
C245 C 0.94642 0.53774 0.16285 0.0
C246 C 0.64961 0.44982 0.13226 0.0
C247 C 0.68673 0.45105 0.13671 0.0
C248 C 0.78933 0.52352 0.14728 0.0
C249 C 0.87671 0.49681 0.1555 0.0
C250 C 0.83529 0.49322 0.15371 0.0
C251 C 0.71622 0.48423 0.14777 0.0
C252 C 0.75721 0.48737 0.15041 0.0
H253 H 0.93091 0.44368 0.14673 0.0
H254 H 0.86346 0.43581 0.14488 0.0
H255 H 0.85084 0.5546 0.1455 0.0
H256 H 0.66327 0.53875 0.15612 0.0
H257 H 0.72818 0.54111 0.16394 0.0
C258 C 0.42993 0.85295 0.50411 0.0
C259 C 0.43362 0.88976 0.51289 0.0
C260 C 0.39393 0.82006 0.50291 0.0
C261 C 0.29534 0.78081 0.5238 0.0
H262 H 0.26667 0.71669 0.47055 0.0
C263 C 0.15238 0.63807 0.51118 0.0
C264 C 0.13207 0.6325 0.49126 0.0
C265 C 0.18971 0.66856 0.51455 0.0
C266 C 0.27412 0.73444 0.48547 0.0
H267 H 0.40315 0.92103 0.52784 0.0
H268 H 0.34006 0.86373 0.52552 0.0
H269 H 0.33077 0.77158 0.47562 0.0
H270 H 0.13492 0.65304 0.45901 0.0
H271 H 0.19992 0.7069 0.46492 0.0
H272 H 0.23817 0.74433 0.53336 0.0
C273 C 0.36497 0.86003 0.51978 0.0
C274 C 0.31108 0.76559 0.4885 0.0
C275 C 0.40103 0.8929 0.52103 0.0
C276 C 0.14992 0.65727 0.47461 0.0
C277 C 0.1872 0.68778 0.47796 0.0
C278 C 0.25832 0.74963 0.52076 0.0
C279 C 0.36089 0.82338 0.51042 0.0
C280 C 0.32207 0.78928 0.50765 0.0
C281 C 0.20754 0.6938 0.49798 0.0
C282 C 0.24721 0.72626 0.5015 0.0
H283 H 0.45472 0.84973 0.49783 0.0
H284 H 0.39193 0.79209 0.49595 0.0
H285 H 0.30302 0.79826 0.53882 0.0
H286 H 0.13938 0.61872 0.5241 0.0
H287 H 0.20484 0.67196 0.53003 0.0
C288 C 0.60914 0.42928 0.82295 0.0
C289 C 0.58105 0.43636 0.83411 0.0
C290 C 0.61232 0.393 0.82455 0.0
C291 C 0.55453 0.28858 0.83936 0.0
H292 H 0.65294 0.28038 0.83765 0.0
C293 C 0.56714 0.14104 0.85386 0.0
C294 C 0.58897 0.13001 0.83956 0.0
C295 C 0.56831 0.17935 0.85407 0.0
C296 C 0.62523 0.28222 0.83801 0.0
H297 H 0.53565 0.41215 0.85647 0.0
H298 H 0.54181 0.34954 0.85979 0.0
H299 H 0.6516 0.34587 0.83688 0.0
H300 H 0.62828 0.15024 0.81376 0.0
H301 H 0.63074 0.21742 0.81431 0.0
H302 H 0.52823 0.22505 0.84067 0.0
C303 C 0.56062 0.37122 0.84924 0.0
C304 C 0.62441 0.31974 0.83752 0.0
C305 C 0.55723 0.40724 0.84748 0.0
C306 C 0.61187 0.15812 0.82534 0.0
C307 C 0.61329 0.19661 0.82566 0.0
C308 C 0.5554 0.25122 0.84004 0.0
C309 C 0.58766 0.3632 0.83748 0.0
C310 C 0.58901 0.32344 0.8382 0.0
C311 C 0.5912 0.20752 0.83988 0.0
C312 C 0.59072 0.24755 0.83938 0.0
H313 H 0.62788 0.45128 0.81251 0.0
H314 H 0.63328 0.38789 0.81512 0.0
H315 H 0.52661 0.28998 0.83938 0.0
H316 H 0.54869 0.11975 0.86471 0.0
H317 H 0.55111 0.18688 0.8653 0.0
C318 C 0.62598 0.92252 0.48571 0.0
C319 C 0.60413 0.93445 0.49955 0.0
C320 C 0.62267 0.88332 0.48529 0.0
C321 C 0.5601 0.78102 0.50208 0.0
H322 H 0.65474 0.76542 0.49941 0.0
C323 C 0.57213 0.63882 0.52963 0.0
C324 C 0.59472 0.62382 0.5182 0.0
C325 C 0.57068 0.67467 0.52435 0.0
C326 C 0.62793 0.76912 0.49982 0.0
H327 H 0.56144 0.91471 0.52368 0.0
H328 H 0.55585 0.84656 0.52317 0.0
H329 H 0.65722 0.83196 0.49604 0.0
H330 H 0.63261 0.63412 0.49183 0.0
H331 H 0.63015 0.69713 0.48253 0.0
H332 H 0.53106 0.71828 0.50647 0.0
C333 C 0.57511 0.86711 0.51232 0.0
C334 C 0.62932 0.80735 0.49788 0.0
C335 C 0.57838 0.90627 0.51269 0.0
C336 C 0.61487 0.64489 0.50087 0.0
C337 C 0.61371 0.6811 0.49569 0.0
C338 C 0.55876 0.74285 0.50411 0.0
C339 C 0.59748 0.85515 0.49876 0.0
C340 C 0.59551 0.81395 0.49929 0.0
C341 C 0.59195 0.69665 0.50756 0.0
C342 C 0.59274 0.7365 0.50332 0.0
H343 H 0.64594 0.9436 0.47533 0.0
H344 H 0.63991 0.87512 0.4744 0.0
H345 H 0.53334 0.78472 0.50281 0.0
H346 H 0.55601 0.62307 0.54295 0.0
H347 H 0.55391 0.68586 0.53396 0.0
C348 C 0.78359 0.57192 0.82327 0.0
C349 C 0.75076 0.54203 0.83152 0.0
C350 C 0.8169 0.56558 0.8204 0.0
C351 C 0.84977 0.48523 0.81518 0.0
H352 H 0.94848 0.56415 0.8393 0.0
C353 C 0.97067 0.44671 0.84862 0.0
C354 C 1.00946 0.47294 0.84614 0.0
C355 C 0.94075 0.45607 0.8409 0.0
C356 C 0.92135 0.5422 0.83201 0.0
H357 H 0.72657 0.48241 0.84336 0.0
H358 H 0.78483 0.4715 0.83866 0.0
H359 H 0.89227 0.58 0.83732 0.0
H360 H 0.04764 0.52884 0.83317 0.0
H361 H 0.99506 0.54529 0.81967 0.0
H362 H 0.87845 0.44679 0.81078 0.0
C363 C 0.78476 0.49952 0.83407 0.0
C364 C 0.88919 0.55126 0.83092 0.0
C365 C 0.75163 0.50592 0.83701 0.0
C366 C 0.01788 0.50802 0.83515 0.0
C367 C 0.98792 0.51753 0.82754 0.0
C368 C 0.88188 0.47617 0.81628 0.0
C369 C 0.81759 0.52917 0.82562 0.0
C370 C 0.85284 0.52229 0.82325 0.0
C371 C 0.94914 0.49193 0.83069 0.0
C372 C 0.91756 0.50406 0.82544 0.0
H373 H 0.78338 0.59995 0.81882 0.0
H374 H 0.84188 0.58888 0.81387 0.0
H375 H 0.82217 0.4627 0.80876 0.0
H376 H 0.96353 0.41935 0.85689 0.0
H377 H 0.91111 0.43605 0.8438 0.0
C378 C 0.19612 0.64467 0.17729 0.0
C379 C 0.17093 0.63256 0.15892 0.0
C380 C 0.22849 0.68129 0.17835 0.0
C381 C 0.26769 0.77946 0.154 0.0
H382 H 0.36404 0.78984 0.18275 0.0
C383 C 0.41019 0.92376 0.15546 0.0
C384 C 0.43044 0.93601 0.1755 0.0
C385 C 0.37869 0.88651 0.1526 0.0
C386 C 0.33723 0.7874 0.1748 0.0
H387 H 0.15984 0.64853 0.12708 0.0
H388 H 0.21696 0.71231 0.12868 0.0
H389 H 0.3092 0.72466 0.17884 0.0
H390 H 0.4338 0.91964 0.20824 0.0
H391 H 0.37886 0.8543 0.20325 0.0
H392 H 0.29604 0.84232 0.14986 0.0
C393 C 0.21136 0.69394 0.14246 0.0
C394 C 0.30579 0.75011 0.17258 0.0
C395 C 0.17882 0.65736 0.14148 0.0
C396 C 0.41866 0.91061 0.19263 0.0
C397 C 0.38743 0.87328 0.18974 0.0
C398 C 0.29927 0.81673 0.15608 0.0
C399 C 0.23648 0.70642 0.16097 0.0
C400 C 0.2705 0.74576 0.16237 0.0
C401 C 0.3672 0.86082 0.16969 0.0
C402 C 0.33419 0.82111 0.16669 0.0
H403 H 0.19054 0.62608 0.19099 0.0
H404 H 0.24683 0.69021 0.19297 0.0
H405 H 0.24078 0.77729 0.14631 0.0
H406 H 0.41882 0.94289 0.14201 0.0
H407 H 0.36373 0.87751 0.13695 0.0
C408 C 0.52731 0.11463 0.48539 0.0
C409 C 0.55181 0.10531 0.49939 0.0
C410 C 0.53108 0.1539 0.48444 0.0
C411 C 0.56739 0.24867 0.51672 0.0
H412 H 0.55721 0.29384 0.46282 0.0
C413 C 0.58723 0.41228 0.51289 0.0
C414 C 0.56192 0.42008 0.49867 0.0
C415 C 0.58874 0.37505 0.51218 0.0
C416 C 0.55973 0.28159 0.47805 0.0
H417 H 0.59969 0.12975 0.52325 0.0
H418 H 0.60652 0.19828 0.5215 0.0
H419 H 0.55466 0.2268 0.4629 0.0
H420 H 0.51736 0.39447 0.47313 0.0
H421 H 0.51952 0.32942 0.472 0.0
H422 H 0.57171 0.30296 0.53194 0.0
C423 C 0.58418 0.17528 0.51135 0.0
C424 C 0.55832 0.24312 0.47808 0.0
C425 C 0.5805 0.13607 0.51222 0.0
C426 C 0.53784 0.38965 0.48392 0.0
C427 C 0.5392 0.35238 0.48326 0.0
C428 C 0.56861 0.28703 0.5167 0.0
C429 C 0.55929 0.18467 0.49759 0.0
C430 C 0.56197 0.22609 0.49742 0.0
C431 C 0.56451 0.34442 0.49747 0.0
C432 C 0.56462 0.30401 0.49738 0.0
H433 H 0.50492 0.09148 0.47533 0.0
H434 H 0.51119 0.15996 0.47381 0.0
H435 H 0.56971 0.23628 0.53194 0.0
H436 H 0.60563 0.43484 0.52471 0.0
H437 H 0.60887 0.37026 0.52324 0.0
C438 C 0.44578 0.51668 0.77961 0.0
C439 C 0.46334 0.54005 0.79835 0.0
C440 C 0.41114 0.51568 0.77073 0.0
C441 C 0.33831 0.55837 0.77715 0.0
H442 H 0.26602 0.44688 0.77288 0.0
C443 C 0.20469 0.49513 0.82269 0.0
C444 C 0.17122 0.46205 0.81491 0.0
C445 C 0.23629 0.51187 0.81 0.0
C446 C 0.28555 0.47824 0.77323 0.0
H447 H 0.46058 0.58286 0.82171 0.0
H448 H 0.39895 0.57971 0.80695 0.0
H449 H 0.33443 0.46496 0.76962 0.0
H450 H 0.14454 0.42031 0.78788 0.0
H451 H 0.20096 0.44898 0.76574 0.0
H452 H 0.28924 0.57092 0.78296 0.0
C453 C 0.41221 0.56289 0.79868 0.0
C454 C 0.32502 0.48873 0.77139 0.0
C455 C 0.4472 0.56431 0.80737 0.0
C456 C 0.16989 0.44616 0.79409 0.0
C457 C 0.20192 0.46263 0.78143 0.0
C458 C 0.29878 0.54781 0.77911 0.0
C459 C 0.39314 0.53752 0.78066 0.0
C460 C 0.35203 0.52864 0.77492 0.0
C461 C 0.23562 0.49528 0.78945 0.0
C462 C 0.27257 0.50744 0.77876 0.0
H463 H 0.45829 0.49837 0.77209 0.0
H464 H 0.39755 0.49639 0.75666 0.0
H465 H 0.35838 0.58948 0.77928 0.0
H466 H 0.20697 0.50748 0.83886 0.0
H467 H 0.26227 0.53621 0.8169 0.0
C468 C 0.88355 0.32519 0.14623 0.0
C469 C 0.91543 0.33084 0.16021 0.0
C470 C 0.84736 0.29393 0.14892 0.0
C471 C 0.79165 0.23029 0.19088 0.0
H472 H 0.7212 0.16861 0.14358 0.0
C473 C 0.63456 0.12515 0.20506 0.0
C474 C 0.62065 0.08688 0.19514 0.0
C475 C 0.66891 0.15546 0.19892 0.0
C476 C 0.74065 0.1855 0.15694 0.0
H477 H 0.93524 0.3077 0.18734 0.0
H478 H 0.87222 0.2527 0.19187 0.0
H479 H 0.78593 0.21849 0.13638 0.0
H480 H 0.63078 0.05063 0.17044 0.0
H481 H 0.69116 0.10362 0.15977 0.0
H482 H 0.747 0.19699 0.21149 0.0
C483 C 0.87489 0.27276 0.17909 0.0
C484 C 0.77756 0.21424 0.15281 0.0
C485 C 0.911 0.30404 0.17643 0.0
C486 C 0.64077 0.07996 0.17826 0.0
C487 C 0.6753 0.1103 0.17215 0.0
C488 C 0.75489 0.20168 0.19499 0.0
C489 C 0.8425 0.26782 0.16563 0.0
C490 C 0.80347 0.23686 0.16977 0.0
C491 C 0.6902 0.14809 0.18279 0.0
C492 C 0.72892 0.179 0.17809 0.0
H493 H 0.88628 0.34561 0.13363 0.0
H494 H 0.82291 0.29113 0.13841 0.0
H495 H 0.81069 0.24761 0.20428 0.0
H496 H 0.61921 0.13144 0.21787 0.0
H497 H 0.67918 0.18453 0.20707 0.0
C498 C 0.08343 0.49112 0.08108 0.0
C499 C 0.05035 0.46593 0.0914 0.0
C500 C 0.08642 0.48543 0.05917 0.0
C501 C 0.0272 0.44276 0.00962 0.0
H502 H 0.12329 0.44812 0.98753 0.0
C503 C 0.03826 0.41572 0.91995 0.0
C504 C 0.0716 0.44305 0.91076 0.0
C505 C 0.03662 0.41381 0.94217 0.0
C506 C 0.09635 0.4468 0.99344 0.0
H507 H 0.9944 0.41508 0.08674 0.0
H508 H 0.99966 0.40541 0.04851 0.0
H509 H 0.11841 0.45529 0.02612 0.0
H510 H 0.12983 0.48887 0.91749 0.0
H511 H 0.12689 0.48597 0.9563 0.0
H512 H 1.00534 0.43535 0.97706 0.0
C513 C 0.02319 0.42958 0.05739 0.0
C514 C 0.09358 0.45091 0.01551 0.0
C515 C 0.02028 0.43507 0.07931 0.0
C516 C 0.10393 0.46718 0.92416 0.0
C517 C 0.10221 0.46549 0.9464 0.0
C518 C 0.03002 0.43888 0.98757 0.0
C519 C 0.0563 0.45465 0.04711 0.0
C520 C 0.05904 0.44916 0.02379 0.0
C521 C 0.06818 0.43945 0.95566 0.0
C522 C 0.06469 0.44107 0.9792 0.0
H523 H 0.10718 0.5151 0.08992 0.0
H524 H 0.11209 0.50549 0.05159 0.0
H525 H 1.00039 0.44182 0.01553 0.0
H526 H 1.0131 0.39646 0.90993 0.0
H527 H 1.01029 0.39282 0.9488 0.0
C528 C 0.60149 0.03302 0.42884 0.0
C529 C 0.56904 0.01157 0.44058 0.0
C530 C 0.59854 0.03094 0.40648 0.0
C531 C 0.53488 0.97233 0.35943 0.0
H532 H 0.59705 0.06734 0.32999 0.0
C533 C 0.51902 0.99659 0.2681 0.0
C534 C 0.55403 0.01006 0.25752 0.0
C535 C 0.51916 0.99391 0.2904 0.0
C536 C 0.57965 0.04057 0.33803 0.0
H537 H 0.50797 0.97114 0.43817 0.0
H538 H 0.50229 0.96873 0.39913 0.0
H539 H 0.60004 0.06911 0.36896 0.0
H540 H 0.61634 0.02887 0.26212 0.0
H541 H 0.61652 0.02574 0.30097 0.0
H542 H 0.51363 0.94451 0.32814 0.0
C543 C 0.53039 0.98629 0.40711 0.0
C544 C 0.58152 0.04141 0.36038 0.0
C545 C 0.53355 0.98782 0.42952 0.0
C546 C 0.58894 0.01955 0.26972 0.0
C547 C 0.58911 0.01751 0.29196 0.0
C548 C 0.5325 0.97176 0.33701 0.0
C549 C 0.56284 0.00797 0.39528 0.0
C550 C 0.55959 0.00716 0.37142 0.0
C551 C 0.55432 0.00516 0.30251 0.0
C552 C 0.55526 0.00576 0.32617 0.0
H553 H 0.62936 0.05117 0.43693 0.0
H554 H 0.62444 0.04722 0.39801 0.0
H555 H 0.51793 0.94523 0.36729 0.0
H556 H 0.49164 0.98933 0.25927 0.0
H557 H 0.49198 0.98442 0.29825 0.0
C558 C 0.58732 0.52843 0.74654 0.0
C559 C 0.62034 0.54808 0.76042 0.0
C560 C 0.59076 0.52739 0.72441 0.0
C561 C 0.64501 0.58243 0.68171 0.0
H562 H 0.60476 0.48157 0.64894 0.0
C563 C 0.64839 0.57778 0.5896 0.0
C564 C 0.61649 0.54801 0.57817 0.0
C565 C 0.65327 0.57644 0.61179 0.0
C566 C 0.61569 0.51005 0.65775 0.0
H567 H 0.68278 0.58236 0.76208 0.0
H568 H 0.68853 0.5818 0.72307 0.0
H569 H 0.60432 0.48223 0.68796 0.0
H570 H 0.56477 0.49349 0.58071 0.0
H571 H 0.57202 0.49189 0.61951 0.0
H572 H 0.65424 0.61053 0.65177 0.0
C573 C 0.66019 0.56671 0.7295 0.0
C574 C 0.61572 0.51032 0.68011 0.0
C575 C 0.65689 0.56695 0.75173 0.0
C576 C 0.58983 0.51656 0.58921 0.0
C577 C 0.59422 0.51561 0.61145 0.0
C578 C 0.64424 0.58221 0.65934 0.0
C579 C 0.62714 0.54669 0.71572 0.0
C580 C 0.63007 0.54649 0.69223 0.0
C581 C 0.62585 0.54574 0.62312 0.0
C582 C 0.62916 0.54599 0.647 0.0
H583 H 0.5588 0.51339 0.75277 0.0
H584 H 0.56487 0.51202 0.71405 0.0
H585 H 0.65586 0.61067 0.69079 0.0
H586 H 0.66948 0.60217 0.58134 0.0
H587 H 0.67847 0.59967 0.62004 0.0
C588 C 0.62054 0.06074 0.58695 0.0
C589 C 0.58907 0.02911 0.57619 0.0
C590 C 0.62432 0.0636 0.60931 0.0
C591 C 0.56889 0.02765 0.65776 0.0
H592 H 0.6713 0.06034 0.68554 0.0
C593 C 0.64242 0.02473 0.74626 0.0
C594 C 0.61962 0.03686 0.75933 0.0
C595 C 0.63965 0.02652 0.72401 0.0
C596 C 0.64246 0.05095 0.67805 0.0
H597 H 0.53688 0.9756 0.58059 0.0
H598 H 0.54389 0.9802 0.61958 0.0
H599 H 0.66385 0.05658 0.64659 0.0
H600 H 0.57657 0.06117 0.75923 0.0
H601 H 0.57253 0.06534 0.72041 0.0
H602 H 0.54735 0.02066 0.68922 0.0
C603 C 0.56529 1.00322 0.61072 0.0
C604 C 0.63824 0.04926 0.6557 0.0
C605 C 0.56139 1.00046 0.58834 0.0
C606 C 0.59475 0.05185 0.74965 0.0
C607 C 0.59206 0.05376 0.72737 0.0
C608 C 0.5731 0.02922 0.68012 0.0
C609 C 0.59685 0.03479 0.62148 0.0
C610 C 0.60138 0.0374 0.64528 0.0
C611 C 0.61416 0.04068 0.71427 0.0
C612 C 0.60992 0.04068 0.69053 0.0
H613 H 0.64227 0.08353 0.57812 0.0
H614 H 0.64865 0.08864 0.61706 0.0
H615 H 0.54015 0.01888 0.65027 0.0
H616 H 0.66227 0.01354 0.75322 0.0
H617 H 0.65684 0.01585 0.71443 0.0
C618 C 0.56521 0.54805 0.90472 0.0
C619 C 0.58804 0.5327 0.89379 0.0
C620 C 0.56055 0.54308 0.92676 0.0
C621 C 0.60578 0.51827 0.97491 0.0
H622 H 0.50854 0.50019 0.00032 0.0
C623 C 0.57581 0.46618 0.06071 0.0
C624 C 0.56275 0.48846 0.07427 0.0
C625 C 0.57637 0.47105 0.03862 0.0
C626 C 0.53591 0.50544 0.99342 0.0
H627 H 0.62254 0.49873 0.89724 0.0
H628 H 0.6135 0.48903 0.93515 0.0
H629 H 0.51459 0.51006 0.96184 0.0
H630 H 0.53865 0.53237 0.07492 0.0
H631 H 0.53871 0.53999 0.03619 0.0
H632 H 0.62674 0.51272 0.00636 0.0
C633 C 0.60028 0.50617 0.92707 0.0
C634 C 0.53949 0.51129 0.9714 0.0
C635 C 0.60531 0.51156 0.90522 0.0
C636 C 0.54855 0.5144 0.06499 0.0
C637 C 0.5487 0.51892 0.04281 0.0
C638 C 0.60202 0.51194 0.99678 0.0
C639 C 0.57828 0.52227 0.93826 0.0
C640 C 0.57442 0.51746 0.96181 0.0
C641 C 0.5634 0.49792 0.02948 0.0
C642 C 0.56701 0.50519 0.00625 0.0
H643 H 0.55157 0.56453 0.89634 0.0
H644 H 0.54368 0.55621 0.93483 0.0
H645 H 0.63348 0.52403 0.96831 0.0
H646 H 0.58605 0.4452 0.06717 0.0
H647 H 0.58723 0.45395 0.02867 0.0
C648 C 0.06408 0.52779 0.23634 0.0
C649 C 0.04432 0.49065 0.22525 0.0
C650 C 0.06438 0.53085 0.25869 0.0
C651 C 0.05584 0.47321 0.30624 0.0
H652 H 0.03043 0.5529 0.33483 0.0
C653 C 0.03143 0.47062 0.39649 0.0
C654 C 0.04325 0.50696 0.40838 0.0
C655 C 0.03263 0.46979 0.37421 0.0
C656 C 0.03825 0.5309 0.32716 0.0
H657 H 1.00946 0.42763 0.22895 0.0
H658 H 1.01054 0.43302 0.268 0.0
H659 H 0.0306 0.54952 0.29578 0.0
H660 H 0.06593 0.57108 0.40597 0.0
H661 H 0.06962 0.56976 0.36716 0.0
H662 H 0.06438 0.45498 0.33742 0.0
C663 C 0.02566 0.4597 0.25934 0.0
C664 C 0.03815 0.52888 0.30478 0.0
C665 C 0.02487 0.45669 0.23699 0.0
C666 C 0.05691 0.54256 0.39738 0.0
C667 C 0.0585 0.54175 0.37506 0.0
C668 C 0.05644 0.47552 0.32859 0.0
C669 C 0.04544 0.49679 0.2704 0.0
C670 C 0.04657 0.49976 0.29412 0.0
C671 C 0.04623 0.50532 0.36317 0.0
C672 C 0.04724 0.50411 0.33936 0.0
H673 H 0.07923 0.55456 0.22777 0.0
H674 H 0.08001 0.55977 0.26685 0.0
H675 H 0.06303 0.45086 0.29842 0.0
H676 H 0.02139 0.44261 0.40439 0.0
H677 H 0.02238 0.44111 0.36565 0.0
loop_
_geom_bond_atom_site_label_1
_geom_bond_atom_site_label_2
_geom_bond_distance
_geom_bond_site_symmetry_2
_ccdc_geom_bond_type
Tb0 O3 2.453 1_455 S
Tb0 O4 2.596 1_455 S
Tb0 O5 2.374 . S
Tb0 O13 2.343 . S
Tb0 O15 2.353 . S
Tb0 O17 2.427 . S
Tb0 O18 2.513 . S
C1 O5 1.251 1_655 S
C1 O7 1.263 . S
Tb2 O4 2.343 . S
Tb2 O7 2.353 . S
Tb2 O10 2.427 . S
Tb2 O11 2.513 . S
Tb2 O12 2.453 1_655 S
Tb2 O13 2.596 1_655 S
Tb2 O14 2.374 . S
O3 Tb0 2.453 1_655 S
O3 C19 1.245 . S
O4 Tb0 2.596 1_655 S
O4 Tb2 2.343 . S
O4 C19 1.259 . S
O5 Tb0 2.374 . S
O5 C1 1.251 1_455 S
C6 O10 1.275 . S
C6 O11 1.246 . S
O7 C1 1.263 . S
O7 Tb2 2.353 . S
C8 O12 1.245 . S
C8 O13 1.259 . S
C9 O14 1.250 1_455 S
C9 O15 1.263 . S
O10 Tb2 2.427 . S
O10 C6 1.275 . S
O11 Tb2 2.513 . S
O11 C6 1.246 . S
O12 Tb2 2.453 1_455 S
O12 C8 1.245 . S
O13 Tb0 2.343 . S
O13 Tb2 2.596 1_455 S
O13 C8 1.259 . S
O14 Tb2 2.374 . S
O14 C9 1.250 1_655 S
O15 Tb0 2.353 . S
O15 C9 1.263 . S
C16 O17 1.275 . S
C16 O18 1.246 . S
O17 Tb0 2.427 . S
O17 C16 1.275 . S
O18 Tb0 2.513 . S
O18 C16 1.246 . S
C19 O3 1.245 . S
C19 O4 1.259 . S
Tb20 O23 2.453 1_565 S
Tb20 O24 2.596 1_565 S
Tb20 O25 2.374 1_565 S
Tb20 O33 2.343 . S
Tb20 O35 2.353 1_565 S
Tb20 O37 2.427 . S
Tb20 O38 2.513 . S
C21 O25 1.251 . S
C21 O27 1.263 . S
Tb22 O24 2.343 . S
Tb22 O27 2.353 . S
Tb22 O30 2.427 . S
Tb22 O31 2.513 . S
Tb22 O32 2.453 1_545 S
Tb22 O33 2.596 1_545 S
Tb22 O34 2.374 . S
O23 Tb20 2.453 1_545 S
O23 C39 1.245 . S
O24 Tb20 2.596 1_545 S
O24 Tb22 2.343 . S
O24 C39 1.259 . S
O25 Tb20 2.374 1_545 S
O25 C21 1.251 . S
C26 O30 1.275 . S
C26 O31 1.246 . S
O27 C21 1.263 . S
O27 Tb22 2.353 . S
C28 O32 1.245 . S
C28 O33 1.259 . S
C29 O34 1.250 . S
C29 O35 1.263 . S
O30 Tb22 2.427 . S
O30 C26 1.275 . S
O31 Tb22 2.513 . S
O31 C26 1.246 . S
O32 Tb22 2.453 1_565 S
O32 C28 1.245 . S
O33 Tb20 2.343 . S
O33 Tb22 2.596 1_565 S
O33 C28 1.259 . S
O34 Tb22 2.374 . S
O34 C29 1.250 . S
O35 Tb20 2.353 1_545 S
O35 C29 1.263 . S
C36 O37 1.275 . S
C36 O38 1.246 . S
O37 Tb20 2.427 . S
O37 C36 1.275 . S
O38 Tb20 2.513 . S
O38 C36 1.246 . S
C39 O23 1.245 . S
C39 O24 1.259 . S
Tb40 O43 2.453 . S
Tb40 O44 2.596 . S
Tb40 O45 2.374 . S
Tb40 O53 2.343 . S
Tb40 O55 2.353 . S
Tb40 O57 2.427 . S
Tb40 O58 2.513 . S
C41 O45 1.251 . S
C41 O47 1.263 . S
Tb42 O44 2.343 . S
Tb42 O47 2.353 . S
Tb42 O50 2.427 . S
Tb42 O51 2.513 . S
Tb42 O52 2.453 . S
Tb42 O53 2.596 . S
Tb42 O54 2.374 . S
O43 Tb40 2.453 . S
O43 C59 1.245 . S
O44 Tb40 2.596 . S
O44 Tb42 2.343 . S
O44 C59 1.259 . S
O45 Tb40 2.374 . S
O45 C41 1.251 . S
C46 O50 1.275 . S
C46 O51 1.246 . S
O47 C41 1.263 . S
O47 Tb42 2.353 . S
C48 O52 1.245 . S
C48 O53 1.259 . S
C49 O54 1.250 . S
C49 O55 1.263 . S
O50 Tb42 2.427 . S
O50 C46 1.275 . S
O51 Tb42 2.513 . S
O51 C46 1.246 . S
O52 Tb42 2.453 . S
O52 C48 1.245 . S
O53 Tb40 2.343 . S
O53 Tb42 2.596 . S
O53 C48 1.259 . S
O54 Tb42 2.374 . S
O54 C49 1.250 . S
O55 Tb40 2.353 . S
O55 C49 1.263 . S
C56 O57 1.275 . S
C56 O58 1.246 . S
O57 Tb40 2.427 . S
O57 C56 1.275 . S
O58 Tb40 2.513 . S
O58 C56 1.246 . S
C59 O43 1.245 . S
C59 O44 1.259 . S
H60 C67 0.929 . S
H61 C70 0.930 . S
H62 C72 0.929 . S
H63 C64 0.969 . S
C64 H63 0.969 . S
C64 O65 1.550 . S
C64 H66 0.973 . S
O65 C64 1.550 . S
O65 C71 1.412 . S
H66 C64 0.973 . S
C67 H60 0.929 . S
C67 C68 1.400 . S
C67 C69 1.364 . S
C68 C67 1.400 . S
C68 C72 1.377 . S
C69 C67 1.364 . S
C69 C70 1.374 1_545 S
C70 H61 0.930 . S
C70 C69 1.374 1_565 S
C70 C71 1.383 . S
C71 O65 1.412 . S
C71 C70 1.383 . S
C71 C72 1.394 1_565 S
C72 H62 0.929 . S
C72 C68 1.377 . S
C72 C71 1.394 1_545 S
H73 C80 0.929 . S
H74 C83 0.930 . S
H75 C85 0.929 . S
H76 C77 0.969 . S
C77 H76 0.969 . S
C77 O78 1.550 . S
C77 H79 0.973 . S
O78 C77 1.550 . S
O78 C84 1.412 . S
H79 C77 0.973 . S
C80 H73 0.929 . S
C80 C81 1.400 . S
C80 C82 1.364 . S
C81 C80 1.400 . S
C81 C85 1.377 . S
C82 C80 1.364 . S
C82 C83 1.374 . S
C83 H74 0.930 . S
C83 C82 1.374 . S
C83 C84 1.383 . S
C84 O78 1.412 . S
C84 C83 1.383 . S
C84 C85 1.394 . S
C85 H75 0.929 . S
C85 C81 1.377 . S
C85 C84 1.394 . S
H86 C93 0.929 . S
H87 C96 0.930 . S
H88 C98 0.929 . S
H89 C90 0.969 . S
C90 H89 0.969 . S
C90 O91 1.550 . S
C90 H92 0.973 . S
O91 C90 1.550 . S
O91 C97 1.412 . S
H92 C90 0.973 . S
C93 H86 0.929 . S
C93 C94 1.400 . S
C93 C95 1.364 . S
C94 C93 1.400 . S
C94 C98 1.377 . S
C95 C93 1.364 . S
C95 C96 1.374 . S
C96 H87 0.930 . S
C96 C95 1.374 . S
C96 C97 1.383 . S
C97 O91 1.412 . S
C97 C96 1.383 . S
C97 C98 1.394 . S
C98 H88 0.929 . S
C98 C94 1.377 . S
C98 C97 1.394 . S
H99 C106 0.929 . S
H100 C109 0.930 . S
H101 C111 0.929 . S
H102 C103 0.969 . S
C103 H102 0.969 . S
C103 O104 1.550 . S
C103 H105 0.973 . S
O104 C103 1.550 . S
O104 C110 1.412 . S
H105 C103 0.973 . S
C106 H99 0.929 . S
C106 C107 1.400 . S
C106 C108 1.364 1_655 S
C107 C106 1.400 . S
C107 C111 1.377 1_655 S
C108 C106 1.364 1_455 S
C108 C109 1.374 . S
C109 H100 0.930 . S
C109 C108 1.374 . S
C109 C110 1.383 . S
C110 O104 1.412 . S
C110 C109 1.383 . S
C110 C111 1.394 . S
C111 H101 0.929 . S
C111 C107 1.377 1_455 S
C111 C110 1.394 . S
H112 C119 0.929 . S
H113 C122 0.930 . S
H114 C124 0.929 . S
H115 C116 0.969 . S
C116 H115 0.969 . S
C116 O117 1.550 . S
C116 H118 0.973 . S
O117 C116 1.550 . S
O117 C123 1.412 . S
H118 C116 0.973 . S
C119 H112 0.929 . S
C119 C120 1.400 . S
C119 C121 1.364 1_565 S
C120 C119 1.400 . S
C120 C124 1.377 1_565 S
C121 C119 1.364 1_545 S
C121 C122 1.374 . S
C122 H113 0.930 . S
C122 C121 1.374 . S
C122 C123 1.383 . S
C123 O117 1.412 . S
C123 C122 1.383 . S
C123 C124 1.394 . S
C124 H114 0.929 . S
C124 C120 1.377 1_545 S
C124 C123 1.394 . S
H125 C132 0.929 . S
H126 C135 0.930 . S
H127 C137 0.929 . S
H128 C129 0.969 . S
C129 H128 0.969 . S
C129 O130 1.550 . S
C129 H131 0.973 . S
O130 C129 1.550 . S
O130 C136 1.412 . S
H131 C129 0.973 . S
C132 H125 0.929 . S
C132 C133 1.400 . S
C132 C134 1.364 . S
C133 C132 1.400 . S
C133 C137 1.377 . S
C134 C132 1.364 . S
C134 C135 1.374 . S
C135 H126 0.930 . S
C135 C134 1.374 . S
C135 C136 1.383 . S
C136 O130 1.412 . S
C136 C135 1.383 . S
C136 C137 1.394 . S
C137 H127 0.929 . S
C137 C133 1.377 . S
C137 C136 1.394 . S
C138 C139 1.349 . S
C138 C140 1.327 . S
C138 H163 0.950 . S
C139 C138 1.349 . S
C139 C155 1.349 . S
C140 C138 1.327 . S
C140 C159 1.429 . S
C140 H164 0.950 . S
C141 C158 1.574 . S
C141 C160 1.368 . S
C141 H165 0.949 . S
H142 C146 0.949 . S
C143 C144 1.349 . S
C143 C145 1.327 . S
C143 H166 0.950 . S
C144 C143 1.349 . S
C144 C156 1.349 . S
C145 C143 1.327 . S
C145 C161 1.429 . S
C145 H167 0.950 . S
C146 H142 0.949 . S
C146 C154 1.574 . S
C146 C162 1.368 . S
H147 C155 0.950 . S
H148 C153 0.950 . S
H149 C154 0.949 . S
H150 C156 0.950 . S
H151 C157 0.950 . S
H152 C158 0.949 . S
C153 H148 0.950 . S
C153 C155 1.327 . S
C153 C159 1.429 . S
C154 C146 1.574 . S
C154 H149 0.949 . S
C154 C160 1.368 . S
C155 C139 1.349 . S
C155 H147 0.950 . S
C155 C153 1.327 . S
C156 C144 1.349 . S
C156 H150 0.950 . S
C156 C157 1.327 . S
C157 H151 0.950 . S
C157 C156 1.327 . S
C157 C161 1.429 . S
C158 C141 1.574 . S
C158 H152 0.949 . S
C158 C162 1.368 . S
C159 C140 1.429 . S
C159 C153 1.429 . S
C159 C160 1.523 . S
C160 C141 1.368 . S
C160 C154 1.368 . S
C160 C159 1.523 . S
C161 C145 1.429 . S
C161 C157 1.429 . S
C161 C162 1.523 . S
C162 C146 1.368 . S
C162 C158 1.368 . S
C162 C161 1.523 . S
H163 C138 0.950 . S
H164 C140 0.950 . S
H165 C141 0.949 . S
H166 C143 0.950 . S
H167 C145 0.950 . S
C168 C169 1.349 . S
C168 C170 1.327 . S
C168 H193 0.950 . S
C169 C168 1.349 . S
C169 C185 1.349 . S
C170 C168 1.327 . S
C170 C189 1.429 . S
C170 H194 0.950 . S
C171 C188 1.574 . S
C171 C190 1.368 . S
C171 H195 0.949 . S
H172 C176 0.949 . S
C173 C174 1.349 . S
C173 C175 1.327 . S
C173 H196 0.950 . S
C174 C173 1.349 . S
C174 C186 1.349 . S
C175 C173 1.327 . S
C175 C191 1.429 . S
C175 H197 0.950 . S
C176 H172 0.949 . S
C176 C184 1.574 . S
C176 C192 1.368 . S
H177 C185 0.950 . S
H178 C183 0.950 . S
H179 C184 0.949 . S
H180 C186 0.950 . S
H181 C187 0.950 . S
H182 C188 0.949 . S
C183 H178 0.950 . S
C183 C185 1.327 . S
C183 C189 1.429 . S
C184 C176 1.574 . S
C184 H179 0.949 . S
C184 C190 1.368 . S
C185 C169 1.349 . S
C185 H177 0.950 . S
C185 C183 1.327 . S
C186 C174 1.349 . S
C186 H180 0.950 . S
C186 C187 1.327 . S
C187 H181 0.950 . S
C187 C186 1.327 . S
C187 C191 1.429 . S
C188 C171 1.574 . S
C188 H182 0.949 . S
C188 C192 1.368 . S
C189 C170 1.429 . S
C189 C183 1.429 . S
C189 C190 1.523 . S
C190 C171 1.368 . S
C190 C184 1.368 . S
C190 C189 1.523 . S
C191 C175 1.429 . S
C191 C187 1.429 . S
C191 C192 1.523 . S
C192 C176 1.368 . S
C192 C188 1.368 . S
C192 C191 1.523 . S
H193 C168 0.950 . S
H194 C170 0.950 . S
H195 C171 0.949 . S
H196 C173 0.950 . S
H197 C175 0.950 . S
C198 C199 1.349 . S
C198 C200 1.327 . S
C198 H223 0.950 . S
C199 C198 1.349 . S
C199 C215 1.349 . S
C200 C198 1.327 . S
C200 C219 1.429 . S
C200 H224 0.950 . S
C201 C218 1.574 . S
C201 C220 1.368 . S
C201 H225 0.949 . S
H202 C206 0.949 . S
C203 C204 1.349 . S
C203 C205 1.327 . S
C203 H226 0.950 . S
C204 C203 1.349 . S
C204 C216 1.349 . S
C205 C203 1.327 . S
C205 C221 1.429 . S
C205 H227 0.950 . S
C206 H202 0.949 . S
C206 C214 1.574 . S
C206 C222 1.368 . S
H207 C215 0.950 . S
H208 C213 0.950 . S
H209 C214 0.949 . S
H210 C216 0.950 . S
H211 C217 0.950 . S
H212 C218 0.949 . S
C213 H208 0.950 . S
C213 C215 1.327 . S
C213 C219 1.429 . S
C214 C206 1.574 . S
C214 H209 0.949 . S
C214 C220 1.368 . S
C215 C199 1.349 . S
C215 H207 0.950 . S
C215 C213 1.327 . S
C216 C204 1.349 . S
C216 H210 0.950 . S
C216 C217 1.327 . S
C217 H211 0.950 . S
C217 C216 1.327 . S
C217 C221 1.429 . S
C218 C201 1.574 . S
C218 H212 0.949 . S
C218 C222 1.368 . S
C219 C200 1.429 . S
C219 C213 1.429 . S
C219 C220 1.523 . S
C220 C201 1.368 . S
C220 C214 1.368 . S
C220 C219 1.523 . S
C221 C205 1.429 . S
C221 C217 1.429 . S
C221 C222 1.523 . S
C222 C206 1.368 . S
C222 C218 1.368 . S
C222 C221 1.523 . S
H223 C198 0.950 . S
H224 C200 0.950 . S
H225 C201 0.949 . S
H226 C203 0.950 . S
H227 C205 0.950 . S
C228 C229 1.349 . S
C228 C230 1.327 . S
C228 H253 0.950 . S
C229 C228 1.349 . S
C229 C245 1.349 . S
C230 C228 1.327 . S
C230 C249 1.429 . S
C230 H254 0.950 . S
C231 C248 1.574 . S
C231 C250 1.368 . S
C231 H255 0.949 . S
H232 C236 0.949 . S
C233 C234 1.349 . S
C233 C235 1.327 . S
C233 H256 0.950 . S
C234 C233 1.349 . S
C234 C246 1.349 . S
C235 C233 1.327 . S
C235 C251 1.429 . S
C235 H257 0.950 . S
C236 H232 0.949 . S
C236 C244 1.574 . S
C236 C252 1.368 . S
H237 C245 0.950 . S
H238 C243 0.950 . S
H239 C244 0.949 . S
H240 C246 0.950 . S
H241 C247 0.950 . S
H242 C248 0.949 . S
C243 H238 0.950 . S
C243 C245 1.327 . S
C243 C249 1.429 . S
C244 C236 1.574 . S
C244 H239 0.949 . S
C244 C250 1.368 . S
C245 C229 1.349 . S
C245 H237 0.950 . S
C245 C243 1.327 . S
C246 C234 1.349 . S
C246 H240 0.950 . S
C246 C247 1.327 . S
C247 H241 0.950 . S
C247 C246 1.327 . S
C247 C251 1.429 . S
C248 C231 1.574 . S
C248 H242 0.949 . S
C248 C252 1.368 . S
C249 C230 1.429 . S
C249 C243 1.429 . S
C249 C250 1.523 . S
C250 C231 1.368 . S
C250 C244 1.368 . S
C250 C249 1.523 . S
C251 C235 1.429 . S
C251 C247 1.429 . S
C251 C252 1.523 . S
C252 C236 1.368 . S
C252 C248 1.368 . S
C252 C251 1.523 . S
H253 C228 0.950 . S
H254 C230 0.950 . S
H255 C231 0.949 . S
H256 C233 0.950 . S
H257 C235 0.950 . S
C258 C259 1.349 . S
C258 C260 1.327 . S
C258 H283 0.950 . S
C259 C258 1.349 . S
C259 C275 1.349 . S
C260 C258 1.327 . S
C260 C279 1.429 . S
C260 H284 0.950 . S
C261 C278 1.574 . S
C261 C280 1.368 . S
C261 H285 0.949 . S
H262 C266 0.949 . S
C263 C264 1.349 . S
C263 C265 1.327 . S
C263 H286 0.950 . S
C264 C263 1.349 . S
C264 C276 1.349 . S
C265 C263 1.327 . S
C265 C281 1.429 . S
C265 H287 0.950 . S
C266 H262 0.949 . S
C266 C274 1.574 . S
C266 C282 1.368 . S
H267 C275 0.950 . S
H268 C273 0.950 . S
H269 C274 0.949 . S
H270 C276 0.950 . S
H271 C277 0.950 . S
H272 C278 0.949 . S
C273 H268 0.950 . S
C273 C275 1.327 . S
C273 C279 1.429 . S
C274 C266 1.574 . S
C274 H269 0.949 . S
C274 C280 1.368 . S
C275 C259 1.349 . S
C275 H267 0.950 . S
C275 C273 1.327 . S
C276 C264 1.349 . S
C276 H270 0.950 . S
C276 C277 1.327 . S
C277 H271 0.950 . S
C277 C276 1.327 . S
C277 C281 1.429 . S
C278 C261 1.574 . S
C278 H272 0.949 . S
C278 C282 1.368 . S
C279 C260 1.429 . S
C279 C273 1.429 . S
C279 C280 1.523 . S
C280 C261 1.368 . S
C280 C274 1.368 . S
C280 C279 1.523 . S
C281 C265 1.429 . S
C281 C277 1.429 . S
C281 C282 1.523 . S
C282 C266 1.368 . S
C282 C278 1.368 . S
C282 C281 1.523 . S
H283 C258 0.950 . S
H284 C260 0.950 . S
H285 C261 0.949 . S
H286 C263 0.950 . S
H287 C265 0.950 . S
C288 C289 1.349 . S
C288 C290 1.327 . S
C288 H313 0.950 . S
C289 C288 1.349 . S
C289 C305 1.349 . S
C290 C288 1.327 . S
C290 C309 1.429 . S
C290 H314 0.950 . S
C291 C308 1.574 . S
C291 C310 1.368 . S
C291 H315 0.949 . S
H292 C296 0.949 . S
C293 C294 1.349 . S
C293 C295 1.327 . S
C293 H316 0.950 . S
C294 C293 1.349 . S
C294 C306 1.349 . S
C295 C293 1.327 . S
C295 C311 1.429 . S
C295 H317 0.950 . S
C296 H292 0.949 . S
C296 C304 1.574 . S
C296 C312 1.368 . S
H297 C305 0.950 . S
H298 C303 0.950 . S
H299 C304 0.949 . S
H300 C306 0.950 . S
H301 C307 0.950 . S
H302 C308 0.949 . S
C303 H298 0.950 . S
C303 C305 1.327 . S
C303 C309 1.429 . S
C304 C296 1.574 . S
C304 H299 0.949 . S
C304 C310 1.368 . S
C305 C289 1.349 . S
C305 H297 0.950 . S
C305 C303 1.327 . S
C306 C294 1.349 . S
C306 H300 0.950 . S
C306 C307 1.327 . S
C307 H301 0.950 . S
C307 C306 1.327 . S
C307 C311 1.429 . S
C308 C291 1.574 . S
C308 H302 0.949 . S
C308 C312 1.368 . S
C309 C290 1.429 . S
C309 C303 1.429 . S
C309 C310 1.523 . S
C310 C291 1.368 . S
C310 C304 1.368 . S
C310 C309 1.523 . S
C311 C295 1.429 . S
C311 C307 1.429 . S
C311 C312 1.523 . S
C312 C296 1.368 . S
C312 C308 1.368 . S
C312 C311 1.523 . S
H313 C288 0.950 . S
H314 C290 0.950 . S
H315 C291 0.949 . S
H316 C293 0.950 . S
H317 C295 0.950 . S
C318 C319 1.349 . S
C318 C320 1.327 . S
C318 H343 0.950 . S
C319 C318 1.349 . S
C319 C335 1.349 . S
C320 C318 1.327 . S
C320 C339 1.429 . S
C320 H344 0.950 . S
C321 C338 1.574 . S
C321 C340 1.368 . S
C321 H345 0.949 . S
H322 C326 0.949 . S
C323 C324 1.349 . S
C323 C325 1.327 . S
C323 H346 0.950 . S
C324 C323 1.349 . S
C324 C336 1.349 . S
C325 C323 1.327 . S
C325 C341 1.429 . S
C325 H347 0.950 . S
C326 H322 0.949 . S
C326 C334 1.574 . S
C326 C342 1.368 . S
H327 C335 0.950 . S
H328 C333 0.950 . S
H329 C334 0.949 . S
H330 C336 0.950 . S
H331 C337 0.950 . S
H332 C338 0.949 . S
C333 H328 0.950 . S
C333 C335 1.327 . S
C333 C339 1.429 . S
C334 C326 1.574 . S
C334 H329 0.949 . S
C334 C340 1.368 . S
C335 C319 1.349 . S
C335 H327 0.950 . S
C335 C333 1.327 . S
C336 C324 1.349 . S
C336 H330 0.950 . S
C336 C337 1.327 . S
C337 H331 0.950 . S
C337 C336 1.327 . S
C337 C341 1.429 . S
C338 C321 1.574 . S
C338 H332 0.949 . S
C338 C342 1.368 . S
C339 C320 1.429 . S
C339 C333 1.429 . S
C339 C340 1.523 . S
C340 C321 1.368 . S
C340 C334 1.368 . S
C340 C339 1.523 . S
C341 C325 1.429 . S
C341 C337 1.429 . S
C341 C342 1.523 . S
C342 C326 1.368 . S
C342 C338 1.368 . S
C342 C341 1.523 . S
H343 C318 0.950 . S
H344 C320 0.950 . S
H345 C321 0.949 . S
H346 C323 0.950 . S
H347 C325 0.950 . S
C348 C349 1.349 . S
C348 C350 1.327 . S
C348 H373 0.950 . S
C349 C348 1.349 . S
C349 C365 1.349 . S
C350 C348 1.327 . S
C350 C369 1.429 . S
C350 H374 0.950 . S
C351 C368 1.574 . S
C351 C370 1.368 . S
C351 H375 0.949 . S
H352 C356 0.949 . S
C353 C354 1.349 1_655 S
C353 C355 1.327 . S
C353 H376 0.950 . S
C354 C353 1.349 1_455 S
C354 C366 1.349 . S
C355 C353 1.327 . S
C355 C371 1.429 . S
C355 H377 0.950 . S
C356 H352 0.949 . S
C356 C364 1.574 . S
C356 C372 1.368 . S
H357 C365 0.950 . S
H358 C363 0.950 . S
H359 C364 0.949 . S
H360 C366 0.950 . S
H361 C367 0.950 . S
H362 C368 0.949 . S
C363 H358 0.950 . S
C363 C365 1.327 . S
C363 C369 1.429 . S
C364 C356 1.574 . S
C364 H359 0.949 . S
C364 C370 1.368 . S
C365 C349 1.349 . S
C365 H357 0.950 . S
C365 C363 1.327 . S
C366 C354 1.349 . S
C366 H360 0.950 . S
C366 C367 1.327 1_455 S
C367 H361 0.950 . S
C367 C366 1.327 1_655 S
C367 C371 1.429 . S
C368 C351 1.574 . S
C368 H362 0.949 . S
C368 C372 1.368 . S
C369 C350 1.429 . S
C369 C363 1.429 . S
C369 C370 1.523 . S
C370 C351 1.368 . S
C370 C364 1.368 . S
C370 C369 1.523 . S
C371 C355 1.429 . S
C371 C367 1.429 . S
C371 C372 1.523 . S
C372 C356 1.368 . S
C372 C368 1.368 . S
C372 C371 1.523 . S
H373 C348 0.950 . S
H374 C350 0.950 . S
H375 C351 0.949 . S
H376 C353 0.950 . S
H377 C355 0.950 . S
C378 C379 1.349 . S
C378 C380 1.327 . S
C378 H403 0.950 . S
C379 C378 1.349 . S
C379 C395 1.349 . S
C380 C378 1.327 . S
C380 C399 1.429 . S
C380 H404 0.950 . S
C381 C398 1.574 . S
C381 C400 1.368 . S
C381 H405 0.949 . S
H382 C386 0.949 . S
C383 C384 1.349 . S
C383 C385 1.327 . S
C383 H406 0.950 . S
C384 C383 1.349 . S
C384 C396 1.349 . S
C385 C383 1.327 . S
C385 C401 1.429 . S
C385 H407 0.950 . S
C386 H382 0.949 . S
C386 C394 1.574 . S
C386 C402 1.368 . S
H387 C395 0.950 . S
H388 C393 0.950 . S
H389 C394 0.949 . S
H390 C396 0.950 . S
H391 C397 0.950 . S
H392 C398 0.949 . S
C393 H388 0.950 . S
C393 C395 1.327 . S
C393 C399 1.429 . S
C394 C386 1.574 . S
C394 H389 0.949 . S
C394 C400 1.368 . S
C395 C379 1.349 . S
C395 H387 0.950 . S
C395 C393 1.327 . S
C396 C384 1.349 . S
C396 H390 0.950 . S
C396 C397 1.327 . S
C397 H391 0.950 . S
C397 C396 1.327 . S
C397 C401 1.429 . S
C398 C381 1.574 . S
C398 H392 0.949 . S
C398 C402 1.368 . S
C399 C380 1.429 . S
C399 C393 1.429 . S
C399 C400 1.523 . S
C400 C381 1.368 . S
C400 C394 1.368 . S
C400 C399 1.523 . S
C401 C385 1.429 . S
C401 C397 1.429 . S
C401 C402 1.523 . S
C402 C386 1.368 . S
C402 C398 1.368 . S
C402 C401 1.523 . S
H403 C378 0.950 . S
H404 C380 0.950 . S
H405 C381 0.949 . S
H406 C383 0.950 . S
H407 C385 0.950 . S
C408 C409 1.349 . S
C408 C410 1.327 . S
C408 H433 0.950 . S
C409 C408 1.349 . S
C409 C425 1.349 . S
C410 C408 1.327 . S
C410 C429 1.429 . S
C410 H434 0.950 . S
C411 C428 1.574 . S
C411 C430 1.368 . S
C411 H435 0.949 . S
H412 C416 0.949 . S
C413 C414 1.349 . S
C413 C415 1.327 . S
C413 H436 0.950 . S
C414 C413 1.349 . S
C414 C426 1.349 . S
C415 C413 1.327 . S
C415 C431 1.429 . S
C415 H437 0.950 . S
C416 H412 0.949 . S
C416 C424 1.574 . S
C416 C432 1.368 . S
H417 C425 0.950 . S
H418 C423 0.950 . S
H419 C424 0.949 . S
H420 C426 0.950 . S
H421 C427 0.950 . S
H422 C428 0.949 . S
C423 H418 0.950 . S
C423 C425 1.327 . S
C423 C429 1.429 . S
C424 C416 1.574 . S
C424 H419 0.949 . S
C424 C430 1.368 . S
C425 C409 1.349 . S
C425 H417 0.950 . S
C425 C423 1.327 . S
C426 C414 1.349 . S
C426 H420 0.950 . S
C426 C427 1.327 . S
C427 H421 0.950 . S
C427 C426 1.327 . S
C427 C431 1.429 . S
C428 C411 1.574 . S
C428 H422 0.949 . S
C428 C432 1.368 . S
C429 C410 1.429 . S
C429 C423 1.429 . S
C429 C430 1.523 . S
C430 C411 1.368 . S
C430 C424 1.368 . S
C430 C429 1.523 . S
C431 C415 1.429 . S
C431 C427 1.429 . S
C431 C432 1.523 . S
C432 C416 1.368 . S
C432 C428 1.368 . S
C432 C431 1.523 . S
H433 C408 0.950 . S
H434 C410 0.950 . S
H435 C411 0.949 . S
H436 C413 0.950 . S
H437 C415 0.950 . S
C438 C439 1.349 . S
C438 C440 1.327 . S
C438 H463 0.950 . S
C439 C438 1.349 . S
C439 C455 1.349 . S
C440 C438 1.327 . S
C440 C459 1.429 . S
C440 H464 0.950 . S
C441 C458 1.574 . S
C441 C460 1.368 . S
C441 H465 0.949 . S
H442 C446 0.949 . S
C443 C444 1.349 . S
C443 C445 1.327 . S
C443 H466 0.950 . S
C444 C443 1.349 . S
C444 C456 1.349 . S
C445 C443 1.327 . S
C445 C461 1.429 . S
C445 H467 0.950 . S
C446 H442 0.949 . S
C446 C454 1.574 . S
C446 C462 1.368 . S
H447 C455 0.950 . S
H448 C453 0.950 . S
H449 C454 0.949 . S
H450 C456 0.950 . S
H451 C457 0.950 . S
H452 C458 0.949 . S
C453 H448 0.950 . S
C453 C455 1.327 . S
C453 C459 1.429 . S
C454 C446 1.574 . S
C454 H449 0.949 . S
C454 C460 1.368 . S
C455 C439 1.349 . S
C455 H447 0.950 . S
C455 C453 1.327 . S
C456 C444 1.349 . S
C456 H450 0.950 . S
C456 C457 1.327 . S
C457 H451 0.950 . S
C457 C456 1.327 . S
C457 C461 1.429 . S
C458 C441 1.574 . S
C458 H452 0.949 . S
C458 C462 1.368 . S
C459 C440 1.429 . S
C459 C453 1.429 . S
C459 C460 1.523 . S
C460 C441 1.368 . S
C460 C454 1.368 . S
C460 C459 1.523 . S
C461 C445 1.429 . S
C461 C457 1.429 . S
C461 C462 1.523 . S
C462 C446 1.368 . S
C462 C458 1.368 . S
C462 C461 1.523 . S
H463 C438 0.950 . S
H464 C440 0.950 . S
H465 C441 0.949 . S
H466 C443 0.950 . S
H467 C445 0.950 . S
C468 C469 1.349 . S
C468 C470 1.327 . S
C468 H493 0.950 . S
C469 C468 1.349 . S
C469 C485 1.349 . S
C470 C468 1.327 . S
C470 C489 1.429 . S
C470 H494 0.950 . S
C471 C488 1.574 . S
C471 C490 1.368 . S
C471 H495 0.949 . S
H472 C476 0.949 . S
C473 C474 1.349 . S
C473 C475 1.327 . S
C473 H496 0.950 . S
C474 C473 1.349 . S
C474 C486 1.349 . S
C475 C473 1.327 . S
C475 C491 1.429 . S
C475 H497 0.950 . S
C476 H472 0.949 . S
C476 C484 1.574 . S
C476 C492 1.368 . S
H477 C485 0.950 . S
H478 C483 0.950 . S
H479 C484 0.949 . S
H480 C486 0.950 . S
H481 C487 0.950 . S
H482 C488 0.949 . S
C483 H478 0.950 . S
C483 C485 1.327 . S
C483 C489 1.429 . S
C484 C476 1.574 . S
C484 H479 0.949 . S
C484 C490 1.368 . S
C485 C469 1.349 . S
C485 H477 0.950 . S
C485 C483 1.327 . S
C486 C474 1.349 . S
C486 H480 0.950 . S
C486 C487 1.327 . S
C487 H481 0.950 . S
C487 C486 1.327 . S
C487 C491 1.429 . S
C488 C471 1.574 . S
C488 H482 0.949 . S
C488 C492 1.368 . S
C489 C470 1.429 . S
C489 C483 1.429 . S
C489 C490 1.523 . S
C490 C471 1.368 . S
C490 C484 1.368 . S
C490 C489 1.523 . S
C491 C475 1.429 . S
C491 C487 1.429 . S
C491 C492 1.523 . S
C492 C476 1.368 . S
C492 C488 1.368 . S
C492 C491 1.523 . S
H493 C468 0.950 . S
H494 C470 0.950 . S
H495 C471 0.949 . S
H496 C473 0.950 . S
H497 C475 0.950 . S
C498 C499 1.349 . S
C498 C500 1.327 . S
C498 H523 0.950 . S
C499 C498 1.349 . S
C499 C515 1.349 1_455 S
C500 C498 1.327 . S
C500 C519 1.429 . S
C500 H524 0.950 . S
C501 C518 1.574 1_554 S
C501 C520 1.368 . S
C501 H525 0.949 1_455 S
H502 C506 0.952 . S
C503 C504 1.349 . S
C503 C505 1.327 . S
C503 H526 0.950 . S
C504 C503 1.349 . S
C504 C516 1.349 . S
C505 C503 1.327 . S
C505 C521 1.429 . S
C505 H527 0.950 . S
C506 H502 0.952 . S
C506 C514 1.567 1_556 S
C506 C522 1.372 . S
H507 C515 0.950 . S
H508 C513 0.950 . S
H509 C514 0.949 . S
H510 C516 0.950 . S
H511 C517 0.950 . S
H512 C518 0.949 1_655 S
C513 H508 0.950 . S
C513 C515 1.327 . S
C513 C519 1.429 1_655 S
C514 C506 1.567 1_554 S
C514 H509 0.949 . S
C514 C520 1.368 . S
C515 C499 1.349 1_655 S
C515 H507 0.950 . S
C515 C513 1.327 . S
C516 C504 1.349 . S
C516 H510 0.950 . S
C516 C517 1.327 . S
C517 H511 0.950 . S
C517 C516 1.327 . S
C517 C521 1.429 . S
C518 C501 1.574 1_556 S
C518 H512 0.949 1_455 S
C518 C522 1.368 . S
C519 C500 1.429 . S
C519 C513 1.429 1_455 S
C519 C520 1.523 . S
C520 C501 1.368 . S
C520 C514 1.368 . S
C520 C519 1.523 . S
C521 C505 1.429 . S
C521 C517 1.429 . S
C521 C522 1.523 . S
C522 C506 1.372 . S
C522 C518 1.368 . S
C522 C521 1.523 . S
H523 C498 0.950 . S
H524 C500 0.950 . S
H525 C501 0.949 1_655 S
H526 C503 0.950 . S
H527 C505 0.950 . S
C528 C529 1.349 . S
C528 C530 1.327 . S
C528 H553 0.950 . S
C529 C528 1.349 . S
C529 C545 1.349 1_545 S
C530 C528 1.327 . S
C530 C549 1.429 . S
C530 H554 0.950 . S
C531 C548 1.574 . S
C531 C550 1.368 1_565 S
C531 H555 0.949 . S
H532 C536 0.949 . S
C533 C534 1.349 1_565 S
C533 C535 1.327 . S
C533 H556 0.950 . S
C534 C533 1.349 1_545 S
C534 C546 1.349 . S
C535 C533 1.327 . S
C535 C551 1.429 1_565 S
C535 H557 0.950 . S
C536 H532 0.949 . S
C536 C544 1.574 . S
C536 C552 1.368 . S
H537 C545 0.950 . S
H538 C543 0.950 . S
H539 C544 0.949 . S
H540 C546 0.950 . S
H541 C547 0.950 . S
H542 C548 0.949 . S
C543 H538 0.950 . S
C543 C545 1.327 . S
C543 C549 1.429 1_565 S
C544 C536 1.574 . S
C544 H539 0.949 . S
C544 C550 1.368 . S
C545 C529 1.349 1_565 S
C545 H537 0.950 . S
C545 C543 1.327 . S
C546 C534 1.349 . S
C546 H540 0.950 . S
C546 C547 1.327 . S
C547 H541 0.950 . S
C547 C546 1.327 . S
C547 C551 1.429 . S
C548 C531 1.574 . S
C548 H542 0.949 . S
C548 C552 1.368 1_565 S
C549 C530 1.429 . S
C549 C543 1.429 1_545 S
C549 C550 1.523 . S
C550 C531 1.368 1_545 S
C550 C544 1.368 . S
C550 C549 1.523 . S
C551 C535 1.429 1_545 S
C551 C547 1.429 . S
C551 C552 1.523 . S
C552 C536 1.368 . S
C552 C548 1.368 1_545 S
C552 C551 1.523 . S
H553 C528 0.950 . S
H554 C530 0.950 . S
H555 C531 0.949 . S
H556 C533 0.950 . S
H557 C535 0.950 . S
C558 C559 1.349 . S
C558 C560 1.327 . S
C558 H583 0.950 . S
C559 C558 1.349 . S
C559 C575 1.349 . S
C560 C558 1.327 . S
C560 C579 1.429 . S
C560 H584 0.950 . S
C561 C578 1.574 . S
C561 C580 1.368 . S
C561 H585 0.949 . S
H562 C566 0.949 . S
C563 C564 1.349 . S
C563 C565 1.327 . S
C563 H586 0.950 . S
C564 C563 1.349 . S
C564 C576 1.349 . S
C565 C563 1.327 . S
C565 C581 1.429 . S
C565 H587 0.950 . S
C566 H562 0.949 . S
C566 C574 1.574 . S
C566 C582 1.368 . S
H567 C575 0.950 . S
H568 C573 0.950 . S
H569 C574 0.949 . S
H570 C576 0.950 . S
H571 C577 0.950 . S
H572 C578 0.949 . S
C573 H568 0.950 . S
C573 C575 1.327 . S
C573 C579 1.429 . S
C574 C566 1.574 . S
C574 H569 0.949 . S
C574 C580 1.368 . S
C575 C559 1.349 . S
C575 H567 0.950 . S
C575 C573 1.327 . S
C576 C564 1.349 . S
C576 H570 0.950 . S
C576 C577 1.327 . S
C577 H571 0.950 . S
C577 C576 1.327 . S
C577 C581 1.429 . S
C578 C561 1.574 . S
C578 H572 0.949 . S
C578 C582 1.368 . S
C579 C560 1.429 . S
C579 C573 1.429 . S
C579 C580 1.523 . S
C580 C561 1.368 . S
C580 C574 1.368 . S
C580 C579 1.523 . S
C581 C565 1.429 . S
C581 C577 1.429 . S
C581 C582 1.523 . S
C582 C566 1.368 . S
C582 C578 1.368 . S
C582 C581 1.523 . S
H583 C558 0.950 . S
H584 C560 0.950 . S
H585 C561 0.949 . S
H586 C563 0.950 . S
H587 C565 0.950 . S
C588 C589 1.349 . S
C588 C590 1.327 . S
C588 H613 0.950 . S
C589 C588 1.349 . S
C589 C605 1.349 1_545 S
C590 C588 1.327 . S
C590 C609 1.429 . S
C590 H614 0.950 . S
C591 C608 1.574 . S
C591 C610 1.368 1_565 S
C591 H615 0.949 . S
H592 C596 0.949 . S
C593 C594 1.349 1_565 S
C593 C595 1.327 . S
C593 H616 0.950 . S
C594 C593 1.349 1_545 S
C594 C606 1.349 . S
C595 C593 1.327 . S
C595 C611 1.429 1_565 S
C595 H617 0.950 . S
C596 H592 0.949 . S
C596 C604 1.574 . S
C596 C612 1.368 . S
H597 C605 0.950 . S
H598 C603 0.950 . S
H599 C604 0.949 . S
H600 C606 0.950 . S
H601 C607 0.950 . S
H602 C608 0.949 . S
C603 H598 0.950 . S
C603 C605 1.327 . S
C603 C609 1.429 1_565 S
C604 C596 1.574 . S
C604 H599 0.949 . S
C604 C610 1.368 . S
C605 C589 1.349 1_565 S
C605 H597 0.950 . S
C605 C603 1.327 . S
C606 C594 1.349 . S
C606 H600 0.950 . S
C606 C607 1.327 . S
C607 H601 0.950 . S
C607 C606 1.327 . S
C607 C611 1.429 . S
C608 C591 1.574 . S
C608 H602 0.949 . S
C608 C612 1.368 1_565 S
C609 C590 1.429 . S
C609 C603 1.429 1_545 S
C609 C610 1.523 . S
C610 C591 1.368 1_545 S
C610 C604 1.368 . S
C610 C609 1.523 . S
C611 C595 1.429 1_545 S
C611 C607 1.429 . S
C611 C612 1.523 . S
C612 C596 1.368 . S
C612 C608 1.368 1_545 S
C612 C611 1.523 . S
H613 C588 0.950 . S
H614 C590 0.950 . S
H615 C591 0.949 . S
H616 C593 0.950 . S
H617 C595 0.950 . S
C618 C619 1.349 . S
C618 C620 1.327 . S
C618 H643 0.950 . S
C619 C618 1.349 . S
C619 C635 1.349 . S
C620 C618 1.327 . S
C620 C639 1.429 . S
C620 H644 0.950 . S
C621 C638 1.537 1_556 S
C621 C640 1.368 . S
C621 H645 0.949 . S
H622 C626 0.946 1_554 S
C623 C624 1.349 . S
C623 C625 1.327 . S
C623 H646 0.950 . S
C624 C623 1.349 . S
C624 C636 1.349 . S
C625 C623 1.327 . S
C625 C641 1.429 . S
C625 H647 0.950 . S
C626 H622 0.946 1_556 S
C626 C634 1.579 . S
C626 C642 1.366 1_556 S
H627 C635 0.950 . S
H628 C633 0.950 . S
H629 C634 0.949 . S
H630 C636 0.950 . S
H631 C637 0.950 . S
H632 C638 0.970 . S
C633 H628 0.950 . S
C633 C635 1.327 . S
C633 C639 1.429 . S
C634 C626 1.579 . S
C634 H629 0.949 . S
C634 C640 1.368 . S
C635 C619 1.349 . S
C635 H627 0.950 . S
C635 C633 1.327 . S
C636 C624 1.349 . S
C636 H630 0.950 . S
C636 C637 1.327 . S
C637 H631 0.950 . S
C637 C636 1.327 . S
C637 C641 1.429 . S
C638 C621 1.537 1_554 S
C638 H632 0.970 . S
C638 C642 1.383 . S
C639 C620 1.429 . S
C639 C633 1.429 . S
C639 C640 1.523 . S
C640 C621 1.368 . S
C640 C634 1.368 . S
C640 C639 1.523 . S
C641 C625 1.429 . S
C641 C637 1.429 . S
C641 C642 1.523 . S
C642 C626 1.366 1_554 S
C642 C638 1.383 . S
C642 C641 1.523 . S
H643 C618 0.950 . S
H644 C620 0.950 . S
H645 C621 0.949 . S
H646 C623 0.950 . S
H647 C625 0.950 . S
C648 C649 1.349 . S
C648 C650 1.327 . S
C648 H673 0.950 . S
C649 C648 1.349 . S
C649 C665 1.349 . S
C650 C648 1.327 . S
C650 C669 1.429 . S
C650 H674 0.950 . S
C651 C668 1.574 . S
C651 C670 1.367 . S
C651 H675 0.949 . S
H652 C656 0.958 . S
C653 C654 1.349 . S
C653 C655 1.327 . S
C653 H676 0.950 . S
C654 C653 1.349 . S
C654 C666 1.349 . S
C655 C653 1.327 . S
C655 C671 1.429 . S
C655 H677 0.950 . S
C656 H652 0.958 . S
C656 C664 1.574 1_455 S
C656 C672 1.368 . S
H657 C665 0.950 . S
H658 C663 0.937 1_455 S
H659 C664 0.949 . S
H660 C666 0.950 . S
H661 C667 0.950 . S
H662 C668 0.949 . S
C663 H658 0.937 1_655 S
C663 C665 1.327 . S
C663 C669 1.429 . S
C664 C656 1.574 1_655 S
C664 H659 0.949 . S
C664 C670 1.370 1_655 S
C665 C649 1.349 . S
C665 H657 0.950 . S
C665 C663 1.327 . S
C666 C654 1.349 . S
C666 H660 0.950 . S
C666 C667 1.327 . S
C667 H661 0.950 . S
C667 C666 1.327 . S
C667 C671 1.429 . S
C668 C651 1.574 . S
C668 H662 0.949 . S
C668 C672 1.368 . S
C669 C650 1.429 . S
C669 C663 1.429 . S
C669 C670 1.523 1_655 S
C670 C651 1.367 . S
C670 C664 1.370 1_455 S
C670 C669 1.523 1_455 S
C671 C655 1.429 . S
C671 C667 1.429 . S
C671 C672 1.523 . S
C672 C656 1.368 . S
C672 C668 1.368 . S
C672 C671 1.523 . S
H673 C648 0.950 . S
H674 C650 0.950 . S
H675 C651 0.949 . S
H676 C653 0.950 . S
H677 C655 0.950 . S
C139 C8 2.043 . S
C144 C129 1.967 . S
C169 C26 1.251 . S
C174 C107 1.244 . S
C199 C48 1.438 . S
C204 C120 1.472 . S
C229 C19 1.635 . S
C234 C133 1.687 . S
C264 C103 1.485 . S
C259 C36 1.552 . S
C294 C116 1.599 . S
C289 C59 1.641 . S
C319 C28 1.435 . S
C324 C81 1.469 . S
C349 C46 1.100 . S
C354 C94 1.098 . S
C379 C16 1.530 . S
C384 C64 1.445 . S
C414 C77 1.590 . S
C409 C39 1.638 . S
C444 C90 1.012 . S
C439 C56 1.042 . S
C469 C6 1.269 . S
C474 C68 1.264 . S
C504 C95 1.495 . S
C499 C9 1.484 . S
C529 C21 1.531 . S
C534 C69 1.554 . S
C559 C49 1.565 . S
C564 C82 1.604 . S
C594 C121 1.552 . S
C589 C29 1.521 . S
C624 C134 1.639 . S
C619 C41 1.617 . S
C649 C1 1.550 . S
C654 C108 1.582 . S
