# Generated by pormake.
# Topology zzz, (3,6)-cn, num edge types: 1
# Building blocks:
#     Node 0, Type 0, BuildingBlock: BETDAH_clean_linker_0, # of connection points: 3
#     Node 1, Type 0, BuildingBlock: BETDAH_clean_linker_0, # of connection points: 3
#     Node 2, Type 0, BuildingBlock: BETDAH_clean_linker_0, # of connection points: 3
#     Node 3, Type 0, BuildingBlock: BETDAH_clean_linker_0, # of connection points: 3
#     Node 4, Type 0, BuildingBlock: BETDAH_clean_linker_0, # of connection points: 3
#     Node 5, Type 0, BuildingBlock: BETDAH_clean_linker_0, # of connection points: 3
#     Node 6, Type 0, BuildingBlock: BETDAH_clean_linker_0, # of connection points: 3
#     Node 7, Type 0, BuildingBlock: BETDAH_clean_linker_0, # of connection points: 3
#     Node 8, Type 1, BuildingBlock: PAMTUU_clean_sbu_0, # of connection points: 6
#     Node 9, Type 1, BuildingBlock: PAMTUU_clean_sbu_0, # of connection points: 6
#     Node 10, Type 1, BuildingBlock: PAMTUU_clean_sbu_0, # of connection points: 6
#     Node 11, Type 1, BuildingBlock: PAMTUU_clean_sbu_0, # of connection points: 6
#     Edge 12, Type (0, 1), BuildingBlock: EYOCIG_clean_linker_4, # of connection points: 2
#     Edge 13, Type (0, 1), BuildingBlock: EYOCIG_clean_linker_4, # of connection points: 2
#     Edge 14, Type (0, 1), BuildingBlock: EYOCIG_clean_linker_4, # of connection points: 2
#     Edge 15, Type (0, 1), BuildingBlock: EYOCIG_clean_linker_4, # of connection points: 2
#     Edge 16, Type (0, 1), BuildingBlock: EYOCIG_clean_linker_4, # of connection points: 2
#     Edge 17, Type (0, 1), BuildingBlock: EYOCIG_clean_linker_4, # of connection points: 2
#     Edge 18, Type (0, 1), BuildingBlock: EYOCIG_clean_linker_4, # of connection points: 2
#     Edge 19, Type (0, 1), BuildingBlock: EYOCIG_clean_linker_4, # of connection points: 2
#     Edge 20, Type (0, 1), BuildingBlock: EYOCIG_clean_linker_4, # of connection points: 2
#     Edge 21, Type (0, 1), BuildingBlock: EYOCIG_clean_linker_4, # of connection points: 2
#     Edge 22, Type (0, 1), BuildingBlock: EYOCIG_clean_linker_4, # of connection points: 2
#     Edge 23, Type (0, 1), BuildingBlock: EYOCIG_clean_linker_4, # of connection points: 2
#     Edge 24, Type (0, 1), BuildingBlock: EYOCIG_clean_linker_4, # of connection points: 2
#     Edge 25, Type (0, 1), BuildingBlock: EYOCIG_clean_linker_4, # of connection points: 2
#     Edge 26, Type (0, 1), BuildingBlock: EYOCIG_clean_linker_4, # of connection points: 2
#     Edge 27, Type (0, 1), BuildingBlock: EYOCIG_clean_linker_4, # of connection points: 2
#     Edge 28, Type (0, 1), BuildingBlock: EYOCIG_clean_linker_4, # of connection points: 2
#     Edge 29, Type (0, 1), BuildingBlock: EYOCIG_clean_linker_4, # of connection points: 2
#     Edge 30, Type (0, 1), BuildingBlock: EYOCIG_clean_linker_4, # of connection points: 2
#     Edge 31, Type (0, 1), BuildingBlock: EYOCIG_clean_linker_4, # of connection points: 2
#     Edge 32, Type (0, 1), BuildingBlock: EYOCIG_clean_linker_4, # of connection points: 2
#     Edge 33, Type (0, 1), BuildingBlock: EYOCIG_clean_linker_4, # of connection points: 2
#     Edge 34, Type (0, 1), BuildingBlock: EYOCIG_clean_linker_4, # of connection points: 2
#     Edge 35, Type (0, 1), BuildingBlock: EYOCIG_clean_linker_4, # of connection points: 2
# Relax obj value: 0.261
# Max RMSD: 0.245
# Mean RMSD: 0.117
data_MOF--net-zzz--node1-PAMTUU_clean_sbu_0--node2-BETDAH_clean_linker_0--edge1-EYOCIG_clean_linker_4
_symmetry_space_group_name_H-M    P1
_symmetry_Int_Tables_number       1
_symmetry_cell_setting            triclinic
loop_
_symmetry_equiv_pos_as_xyz
'x, y, z'
_cell_length_a     39.746399
_cell_length_b     43.440234
_cell_length_c     12.624208
_cell_angle_alpha  103.01695
_cell_angle_beta   90.087516
_cell_angle_gamma 89.980629
loop_
_atom_site_label
_atom_site_type_symbol
_atom_site_fract_x
_atom_site_fract_y
_atom_site_fract_z
_atom_type_partial_charge
H0 H 0.83813 0.56377 0.5544 0.0
H1 H 0.73746 0.56049 0.43677 0.0
H2 H 0.76842 0.4974 0.63866 0.0
C3 C 0.81249 0.55541 0.55813 0.0
C4 C 0.80612 0.53202 0.61561 0.0
C5 C 0.78878 0.56251 0.48501 0.0
C6 C 0.75553 0.55328 0.4909 0.0
C7 C 0.74799 0.52769 0.53657 0.0
C8 C 0.77345 0.51731 0.60263 0.0
N9 N 0.71691 0.51062 0.50595 0.0
C10 C 0.69501 0.51411 0.41947 0.0
H11 H 0.03074 0.82353 0.48329 0.0
H12 H 0.04448 0.72535 0.34684 0.0
H13 H 1.01494 0.75678 0.68445 0.0
C14 C 1.02999 0.79933 0.49346 0.0
C15 C 1.02138 0.79334 0.59363 0.0
C16 C 0.03868 0.77485 0.40679 0.0
C17 C 0.03755 0.74374 0.41656 0.0
C18 C 1.02881 0.73661 0.51632 0.0
C19 C 1.02121 0.76178 0.60655 0.0
N20 N 1.02776 0.70449 0.52576 0.0
C21 C 0.03116 0.67926 0.43512 0.0
H22 H 0.72236 0.98042 0.46332 0.0
H23 H 0.82484 0.97762 0.36489 0.0
H24 H 0.79731 0.02666 0.69066 0.0
C25 C 0.7486 0.98472 0.48606 0.0
C26 C 0.75659 1.00055 0.59222 0.0
C27 C 0.77309 0.97862 0.40449 0.0
C28 C 0.80672 0.98347 0.43047 0.0
C29 C 0.81593 1.00374 0.5282 0.0
C30 C 0.79076 0.01155 0.61283 0.0
N31 N 0.84877 0.01842 0.53474 0.0
C32 C 0.87092 0.01661 0.44435 0.0
H33 H 0.57282 0.66374 0.04724 0.0
H34 H 0.5458 0.7418 0.90543 0.0
H35 H 0.585 0.75841 0.23276 0.0
C36 C 0.57221 0.68904 0.0516 0.0
C37 C 0.58091 0.70956 0.14848 0.0
C38 C 0.55798 0.70032 0.96655 0.0
C39 C 0.5571 0.73309 0.97115 0.0
C40 C 0.56812 0.75442 0.06696 0.0
C41 C 0.57899 0.74228 0.15634 0.0
N42 N 0.56626 0.78801 0.08254 0.0
C43 C 0.55876 0.80647 1.00772 0.0
H44 H 0.21942 0.4534 0.22884 0.0
H45 H 0.3219 0.44769 0.32161 0.0
H46 H 0.29482 0.50395 0.09247 0.0
C47 C 0.24574 0.45783 0.21453 0.0
C48 C 0.25393 0.47605 0.13997 0.0
C49 C 0.26999 0.45025 0.28517 0.0
C50 C 0.30379 0.45498 0.26776 0.0
C51 C 0.31313 0.47738 0.20983 0.0
C52 C 0.28815 0.48713 0.1405 0.0
N53 N 0.34571 0.49237 0.23203 0.0
C54 C 0.36711 0.49049 0.32164 0.0
H55 H 1.02474 0.18671 0.25727 0.0
H56 H 1.02046 0.28495 0.40651 0.0
H57 H 0.05773 0.25433 0.07694 0.0
C58 C 1.0288 0.21105 0.25159 0.0
C59 C 0.0424 0.21741 0.15735 0.0
C60 C 1.02094 0.2354 0.33968 0.0
C61 C 1.0265 0.26664 0.33556 0.0
C62 C 0.03951 0.27401 0.24052 0.0
C63 C 0.04735 0.24909 0.15021 0.0
N64 N 0.04512 0.30611 0.236 0.0
C65 C 0.04 0.33105 0.32615 0.0
H66 H 0.34034 0.01956 0.29142 0.0
H67 H 0.23878 0.03459 0.39526 0.0
H68 H 0.261 1.00145 0.05288 0.0
C69 C 0.31406 0.02127 0.26965 0.0
C70 C 0.30473 0.01469 0.16008 0.0
C71 C 0.28976 0.0264 0.35163 0.0
C72 C 0.25632 0.02934 0.32793 0.0
C73 C 0.24478 0.01637 0.22342 0.0
C74 C 0.26924 0.01028 0.13598 0.0
N75 N 0.20997 0.00647 0.21156 0.0
C76 C 0.18822 0.00573 0.30122 0.0
H77 H 0.49444 0.34731 0.68837 0.0
H78 H 0.50852 0.27031 0.84772 0.0
H79 H 0.46104 0.25462 0.53132 0.0
C80 C 0.49081 0.3226 0.69014 0.0
C81 C 0.47627 0.3025 0.60102 0.0
C82 C 0.50319 0.31118 0.77739 0.0
C83 C 0.49887 0.27913 0.77992 0.0
C84 C 0.48299 0.25852 0.69094 0.0
C85 C 0.47209 0.27048 0.6014 0.0
N86 N 0.47771 0.22572 0.68556 0.0
C87 C 0.49138 0.20701 0.75162 0.0
Tb88 Tb 1.0033 0.01679 0.79941 0.0
Tb89 Tb 0.05604 0.99512 0.96163 0.0
C90 C 0.97728 0.00914 0.03098 0.0
C91 C 0.9757 0.07282 0.64313 0.0
C92 C 0.98145 0.13249 0.59609 0.0
C93 C 0.9497 0.11952 0.60455 0.0
C94 C 0.94688 0.08985 0.62834 0.0
C95 C 1.00776 0.08627 0.63692 0.0
C96 C 1.01055 0.11597 0.61235 0.0
C97 C 0.97147 0.04171 0.66882 0.0
O98 O 1.022 0.06019 0.9024 0.0
O99 O 0.06737 0.04536 0.99291 0.0
O100 O 0.09047 1.00091 0.82965 0.0
O101 O 0.05081 0.00938 0.70707 0.0
O102 O 0.06318 0.98986 0.12118 0.0
O103 O 0.09859 0.97019 0.99489 0.0
O104 O 0.03829 0.9516 0.85757 0.0
O105 O 0.99299 0.9661 0.76616 0.0
O106 O 0.96895 0.0123 0.93275 0.0
O107 O 1.00875 1.00438 0.05567 0.0
C108 C 0.04853 0.06696 0.96437 0.0
O109 O 0.99576 0.02152 0.63948 0.0
O110 O 0.961 0.04214 0.76666 0.0
C111 C 0.08225 1.00491 0.7322 0.0
C112 C 0.08384 0.93868 0.11555 0.0
C113 C 0.07835 0.8783 0.1566 0.0
C114 C 0.11007 0.89141 0.14869 0.0
C115 C 0.11277 0.92146 0.12786 0.0
C116 C 0.05185 0.92511 0.12144 0.0
C117 C 0.04919 0.89507 0.14307 0.0
C118 C 0.08782 0.97007 0.09197 0.0
C119 C 1.01218 0.94457 0.79405 0.0
H120 H 0.9271 0.13216 0.59174 0.0
H121 H 0.92211 0.08005 0.63485 0.0
H122 H 0.03048 0.07388 0.65035 0.0
H123 H 0.03526 0.12594 0.60546 0.0
H124 H 0.13272 0.87855 0.15947 0.0
H125 H 0.13749 0.93136 0.12146 0.0
H126 H 1.02905 0.93764 0.10978 0.0
H127 H 1.02452 0.88498 0.14961 0.0
Tb128 Tb 0.52044 0.99414 0.75602 0.0
Tb129 Tb 0.54166 0.01634 1.00015 0.0
C130 C 0.53872 0.94305 0.88954 0.0
C131 C 0.4613 0.97513 0.53902 0.0
C132 C 0.39209 0.96813 0.52371 0.0
C133 C 0.41251 0.94181 0.48816 0.0
C134 C 0.44722 0.94535 0.49565 0.0
C135 C 0.44042 1.0017 0.57132 0.0
C136 C 0.40589 0.9982 0.56164 0.0
C137 C 0.49663 0.97684 0.56922 0.0
O138 O 0.47162 0.99794 0.84522 0.0
O139 O 0.48702 0.01567 0.02375 0.0
O140 O 0.52543 0.06063 0.96278 0.0
O141 O 0.52369 0.04536 0.77758 0.0
O142 O 0.55379 1.0052 0.1485 0.0
O143 O 0.5569 0.05307 0.12799 0.0
O144 O 0.59035 0.01348 0.9104 0.0
O145 O 0.57485 0.99654 0.73171 0.0
O146 O 0.53719 0.94993 0.794 0.0
O147 O 0.53698 0.96512 0.97906 0.0
C148 C 0.46362 0.00712 0.94925 0.0
O149 O 0.50887 1.00498 0.60671 0.0
O150 O 0.50499 0.95732 0.62911 0.0
C151 C 0.52278 0.06736 0.86733 0.0
C152 C 0.60127 0.03531 0.2158 0.0
C153 C 0.67055 0.04155 0.23723 0.0
C154 C 0.65033 0.06821 0.27009 0.0
C155 C 0.61555 0.06504 0.25934 0.0
C156 C 0.62197 0.00863 0.18429 0.0
C157 C 0.65641 0.01176 0.19664 0.0
C158 C 0.56582 0.03341 0.1866 0.0
C159 C 0.59821 1.00531 0.80603 0.0
H160 H 0.40172 0.91866 0.4566 0.0
H161 H 0.46306 0.92461 0.47292 0.0
H162 H 0.4505 0.02484 0.60795 0.0
H163 H 0.38991 0.01879 0.58743 0.0
H164 H 0.66128 0.09122 0.30289 0.0
H165 H 0.59985 0.0859 0.28109 0.0
H166 H 0.61184 0.98556 0.14719 0.0
H167 H 0.67212 0.99094 0.17207 0.0
Tb168 Tb 0.5037 0.49903 0.96782 0.0
Tb169 Tb 0.55694 0.51144 0.78169 0.0
C170 C 0.47578 0.49833 0.73085 0.0
C171 C 0.47412 0.45433 0.17446 0.0
C172 C 0.47002 0.40435 0.28423 0.0
C173 C 0.44076 0.41825 0.25437 0.0
C174 C 0.44283 0.44285 0.19956 0.0
C175 C 0.50364 0.44003 0.20349 0.0
C176 C 0.50152 0.41525 0.25825 0.0
C177 C 0.47477 0.48254 0.12561 0.0
O178 O 0.5162 0.45433 0.86332 0.0
O179 O 0.56729 0.46266 0.78988 0.0
O180 O 0.59285 0.50973 0.91427 0.0
O181 O 0.55358 0.50888 0.04772 0.0
O182 O 0.55826 0.51205 0.61583 0.0
O183 O 0.59931 0.53131 0.72044 0.0
O184 O 0.54511 0.55584 0.88906 0.0
O185 O 0.49352 0.54782 0.9589 0.0
O186 O 0.46795 0.49892 0.83319 0.0
O187 O 0.50726 0.50091 0.70089 0.0
C188 C 0.54558 0.44443 0.82505 0.0
O189 O 0.50258 0.49863 0.13388 0.0
O190 O 0.46107 0.47996 0.03036 0.0
C191 C 0.58511 0.51049 0.01679 0.0
C192 C 0.58608 0.55677 0.57585 0.0
C193 C 0.58909 0.60665 0.46494 0.0
C194 C 0.61863 0.59247 0.49159 0.0
C195 C 0.6171 0.56789 0.54679 0.0
C196 C 0.55631 0.57138 0.55023 0.0
C197 C 0.55789 0.59608 0.49491 0.0
C198 C 0.58581 0.52854 0.62481 0.0
C199 C 0.51567 0.566 0.92554 0.0
H200 H 0.41621 0.41025 0.27397 0.0
H201 H 0.41984 0.45337 0.17817 0.0
H202 H 0.52827 0.4482 0.18541 0.0
H203 H 0.52442 0.40476 0.28093 0.0
H204 H 0.64297 0.6002 0.46902 0.0
H205 H 0.64029 0.55707 0.56518 0.0
H206 H 0.53188 0.56347 0.57129 0.0
H207 H 0.53477 0.60675 0.47481 0.0
Tb208 Tb 0.04308 0.51982 0.78197 0.0
Tb209 Tb 1.01744 0.49083 0.97342 0.0
C210 C 0.03343 0.56414 1.0104 0.0
C211 C 0.10636 0.53216 0.5967 0.0
C212 C 0.17555 0.52629 0.56924 0.0
C213 C 0.16097 0.55626 0.58891 0.0
C214 C 0.12626 0.55915 0.60267 0.0
C215 C 0.1214 0.5021 0.57618 0.0
C216 C 0.15579 0.49926 0.56108 0.0
C217 C 0.07094 0.53595 0.6262 0.0
O218 O 0.09008 0.50928 0.86386 0.0
O219 O 0.07154 0.48362 0.99314 0.0
O220 O 1.02737 0.44788 0.85118 0.0
O221 O 0.03047 0.47123 0.70653 0.0
O222 O 1.00608 0.5013 0.13901 0.0
O223 O 0.99527 0.45531 0.03799 0.0
O224 O 0.97053 0.50107 0.89083 0.0
O225 O 0.98898 0.52591 0.7595 0.0
O226 O 0.033 0.56257 0.90575 0.0
O227 O 0.0322 0.53884 0.04947 0.0
C228 C 0.09625 0.49475 0.94333 0.0
O229 O 0.05389 0.5099 0.6159 0.0
O230 O 0.06502 0.55559 0.71841 0.0
C231 C 1.02839 0.44614 0.74655 0.0
C232 C 0.95342 0.47928 0.15733 0.0
C233 C 0.88455 0.48607 0.19238 0.0
C234 C 0.89869 0.45587 0.1707 0.0
C235 C 0.93326 0.45252 0.15294 0.0
C236 C 0.93869 0.50947 0.17774 0.0
C237 C 0.90452 0.51276 0.19646 0.0
C238 C 0.98896 0.4753 0.12915 0.0
C239 C 0.96435 0.51489 0.80969 0.0
H240 H 0.17624 0.57719 0.59411 0.0
H241 H 0.11499 0.58245 0.62094 0.0
H242 H 0.10692 0.48082 0.57404 0.0
H243 H 0.16708 0.47591 0.54489 0.0
H244 H 0.88328 0.43516 0.16809 0.0
H245 H 0.94425 0.4291 0.13432 0.0
H246 H 0.9533 0.53057 0.17835 0.0
H247 H 0.89359 0.53626 0.21367 0.0
C248 C 0.14888 1.00493 0.47542 0.0
C249 C 0.17009 1.00529 0.38072 0.0
C250 C 0.13068 1.00465 0.55482 0.0
C251 C 0.10823 1.00447 0.64678 0.0
C252 C 0.50837 0.15745 0.82751 0.0
C253 C 0.50058 0.18603 0.79446 0.0
C254 C 0.51344 0.13155 0.84614 0.0
C255 C 0.51811 0.10006 0.86025 0.0
C256 C 0.40934 0.49089 0.49077 0.0
C257 C 0.38625 0.49005 0.3991 0.0
C258 C 0.42904 0.49261 0.56831 0.0
C259 C 0.44919 0.49513 0.64506 0.0
C260 C 0.03098 0.37373 0.5082 0.0
C261 C 0.03547 0.35112 0.40865 0.0
C262 C 1.02878 0.39398 0.59132 0.0
C263 C 1.02829 0.41602 0.66958 0.0
C264 C 0.91234 0.01357 0.27234 0.0
C265 C 0.8899 0.01515 0.36555 0.0
C266 C 0.93155 0.01233 0.19426 0.0
C267 C 0.95135 0.01106 0.11759 0.0
C268 C 0.54904 0.85691 0.92734 0.0
C269 C 0.55366 0.82778 0.96126 0.0
C270 C 0.54566 0.88318 0.9093 0.0
C271 C 0.54251 0.91014 0.89718 0.0
C272 C 0.65565 0.51572 0.26818 0.0
C273 C 0.67543 0.5155 0.3441 0.0
C274 C 0.63215 0.51467 0.17753 0.0
C275 C 0.61183 0.51281 0.10166 0.0
C276 C 0.03535 0.63964 0.26605 0.0
C277 C 0.03364 0.65907 0.35161 0.0
C278 C 0.0359 0.61621 0.16684 0.0
C279 C 0.03491 0.59417 0.08835 0.0
C280 C 0.997 0.21206 0.49504 0.0
C281 C 1.00731 0.22719 0.4338 0.0
C282 C 0.9884 0.18696 0.5419 0.0
C283 C 0.98419 0.16221 0.56653 0.0
C284 C 0.30657 0.99761 0.50068 0.0
C285 C 0.29517 0.0129 0.44227 0.0
C286 C 0.32893 0.97584 0.52482 0.0
C287 C 0.3567 0.9656 0.51998 0.0
C288 C 0.53884 0.35802 0.87157 0.0
C289 C 0.52439 0.33297 0.85082 0.0
C290 C 0.55031 0.38737 0.85481 0.0
C291 C 0.55352 0.41291 0.83335 0.0
C292 C 0.25132 0.47801 0.47382 0.0
C293 C 0.26184 0.45908 0.39743 0.0
C294 C 0.23442 0.50477 0.53002 0.0
C295 C 0.21059 0.52152 0.55371 0.0
C296 C 0.06111 0.79791 0.24911 0.0
C297 C 0.05151 0.78288 0.31147 0.0
C298 C 0.07052 0.82311 0.20411 0.0
C299 C 0.07555 0.84813 0.18248 0.0
C300 C 0.7524 1.00469 0.25666 0.0
C301 C 0.76482 0.98708 0.30544 0.0
C302 C 0.73232 0.02963 0.24251 0.0
C303 C 0.706 0.04288 0.24642 0.0
C304 C 0.52356 0.65215 0.87593 0.0
C305 C 0.53727 0.6776 0.89473 0.0
C306 C 0.512 0.62302 0.89459 0.0
C307 C 0.50823 0.59758 0.91651 0.0
C308 C 0.81081 0.53655 0.30032 0.0
C309 C 0.80006 0.55588 0.37545 0.0
C310 C 0.82697 0.50924 0.24411 0.0
C311 C 0.84992 0.49164 0.2156 0.0
C312 C 0.05645 0.1621 0.03662 0.0
C313 C 0.05224 0.18996 0.07552 0.0
C314 C 0.05837 0.1286 0.01475 0.0
C315 C 0.05674 0.10007 0.99782 0.0
C316 C 0.36216 0.00894 0.04289 0.0
C317 C 0.33344 0.01039 0.08194 0.0
C318 C 0.39754 0.00832 1.00942 0.0
C319 C 0.42757 0.00783 0.98266 0.0
C320 C 0.46574 0.33348 0.44758 0.0
C321 C 0.46869 0.31577 0.50852 0.0
C322 C 0.46593 0.35757 0.38807 0.0
C323 C 0.4676 0.37887 0.3408 0.0
C324 C 0.19639 0.48813 0.04165 0.0
C325 C 0.22485 0.48513 0.07838 0.0
C326 C 0.16139 0.49004 1.0068 0.0
C327 C 0.13168 0.49196 0.97907 0.0
C328 C 1.00829 0.84897 0.7157 0.0
C329 C 1.013 0.82109 0.67703 0.0
C330 C 1.00497 0.8825 0.73867 0.0
C331 C 1.0052 0.91117 0.75733 0.0
C332 C 0.69885 0.00785 0.70818 0.0
C333 C 0.72743 0.0069 0.66842 0.0
C334 C 0.66379 0.00708 0.74348 0.0
C335 C 0.63402 0.00626 0.77172 0.0
C336 C 0.59061 0.67756 0.30043 0.0
C337 C 0.58714 0.69558 0.2406 0.0
C338 C 0.59153 0.65333 0.35968 0.0
C339 C 0.59081 0.63207 0.40755 0.0
C340 C 0.86439 0.51929 0.708 0.0
C341 C 0.83586 0.522 0.67164 0.0
C342 C 0.89935 0.51812 0.74361 0.0
C343 C 0.92901 0.51688 0.77242 0.0
loop_
_geom_bond_atom_site_label_1
_geom_bond_atom_site_label_2
_geom_bond_distance
_geom_bond_site_symmetry_2
_ccdc_geom_bond_type
H0 C3 0.929 . S
H1 C6 0.929 . S
H2 C8 0.930 . S
C3 H0 0.929 . S
C3 C4 1.398 . S
C3 C5 1.396 . S
C4 C3 1.398 . S
C4 C8 1.407 . S
C5 C3 1.396 . S
C5 C6 1.394 . S
C6 H1 0.929 . S
C6 C5 1.394 . S
C6 C7 1.382 . S
C7 C6 1.382 . S
C7 C8 1.392 . S
C7 N9 1.420 . S
C8 H2 0.930 . S
C8 C4 1.407 . S
C8 C7 1.392 . S
N9 C7 1.420 . S
N9 C10 1.244 . S
C10 N9 1.244 . S
H11 C14 0.929 . S
H12 C17 0.929 . S
H13 C19 0.930 . S
C14 H11 0.929 . S
C14 C15 1.395 1_655 S
C14 C16 1.394 1_655 S
C15 C14 1.395 1_455 S
C15 C19 1.414 . S
C16 C14 1.394 1_455 S
C16 C17 1.397 . S
C17 H12 0.929 . S
C17 C16 1.397 . S
C17 C18 1.382 . S
C18 C17 1.382 . S
C18 C19 1.392 . S
C18 N20 1.420 . S
C19 H13 0.930 . S
C19 C15 1.414 . S
C19 C18 1.392 . S
N20 C18 1.420 . S
N20 C21 1.232 1_455 S
C21 N20 1.232 1_655 S
H22 C25 0.929 . S
H23 C28 0.929 . S
H24 C30 0.930 . S
C25 H22 0.929 . S
C25 C26 1.402 1_565 S
C25 C27 1.390 1_565 S
C26 C25 1.402 1_545 S
C26 C30 1.415 . S
C27 C25 1.390 1_545 S
C27 C28 1.397 . S
C28 H23 0.929 . S
C28 C27 1.397 . S
C28 C29 1.382 . S
C29 C28 1.382 . S
C29 C30 1.392 . S
C29 N31 1.420 . S
C30 H24 0.930 . S
C30 C26 1.415 . S
C30 C29 1.392 . S
N31 C29 1.420 . S
N31 C32 1.237 1_545 S
C32 N31 1.237 1_565 S
H33 C36 0.929 . S
H34 C39 0.929 . S
H35 C41 0.930 . S
C36 H33 0.929 . S
C36 C37 1.398 . S
C36 C38 1.396 1_554 S
C37 C36 1.398 . S
C37 C41 1.407 . S
C38 C36 1.396 1_556 S
C38 C39 1.394 . S
C39 H34 0.929 . S
C39 C38 1.394 . S
C39 C40 1.382 1_556 S
C40 C39 1.382 1_554 S
C40 C41 1.392 . S
C40 N42 1.420 . S
C41 H35 0.930 . S
C41 C37 1.407 . S
C41 C40 1.392 . S
N42 C40 1.420 . S
N42 C43 1.244 1_554 S
C43 N42 1.244 1_556 S
H44 C47 0.929 . S
H45 C50 0.929 . S
H46 C52 0.930 . S
C47 H44 0.929 . S
C47 C48 1.398 . S
C47 C49 1.396 . S
C48 C47 1.398 . S
C48 C52 1.407 . S
C49 C47 1.396 . S
C49 C50 1.394 . S
C50 H45 0.929 . S
C50 C49 1.394 . S
C50 C51 1.382 . S
C51 C50 1.382 . S
C51 C52 1.392 . S
C51 N53 1.420 . S
C52 H46 0.930 . S
C52 C48 1.407 . S
C52 C51 1.392 . S
N53 C51 1.420 . S
N53 C54 1.244 . S
C54 N53 1.244 . S
H55 C58 0.929 . S
H56 C61 0.929 . S
H57 C63 0.930 . S
C58 H55 0.929 . S
C58 C59 1.398 1_655 S
C58 C60 1.394 1_655 S
C59 C58 1.398 1_455 S
C59 C63 1.407 . S
C60 C58 1.394 1_455 S
C60 C61 1.398 . S
C61 H56 0.929 . S
C61 C60 1.398 . S
C61 C62 1.382 . S
C62 C61 1.382 . S
C62 C63 1.392 . S
C62 N64 1.420 . S
C63 H57 0.930 . S
C63 C59 1.407 . S
C63 C62 1.392 . S
N64 C62 1.420 . S
N64 C65 1.235 1_455 S
C65 N64 1.235 1_655 S
H66 C69 0.929 . S
H67 C72 0.929 . S
H68 C74 0.930 . S
C69 H66 0.929 . S
C69 C70 1.398 1_565 S
C69 C71 1.400 1_565 S
C70 C69 1.398 1_545 S
C70 C74 1.407 . S
C71 C69 1.400 1_545 S
C71 C72 1.398 . S
C72 H67 0.929 . S
C72 C71 1.398 . S
C72 C73 1.382 . S
C73 C72 1.382 . S
C73 C74 1.392 . S
C73 N75 1.420 . S
C74 H68 0.930 . S
C74 C70 1.407 . S
C74 C73 1.392 . S
N75 C73 1.420 . S
N75 C76 1.232 1_545 S
C76 N75 1.232 1_565 S
H77 C80 0.929 . S
H78 C83 0.929 . S
H79 C85 0.930 . S
C80 H77 0.929 . S
C80 C81 1.398 . S
C80 C82 1.396 . S
C81 C80 1.398 . S
C81 C85 1.407 . S
C82 C80 1.396 . S
C82 C83 1.394 . S
C83 H78 0.929 . S
C83 C82 1.394 . S
C83 C84 1.382 . S
C84 C83 1.382 . S
C84 C85 1.392 . S
C84 N86 1.420 . S
C85 H79 0.930 . S
C85 C81 1.407 . S
C85 C84 1.392 . S
N86 C84 1.420 . S
N86 C87 1.244 . S
C87 N86 1.244 . S
Tb88 C97 2.764 . S
Tb88 O98 2.325 . S
Tb88 O101 2.303 1_655 S
Tb88 O105 2.322 1_545 S
Tb88 O106 2.349 . S
Tb88 O109 2.415 . S
Tb88 O110 2.399 . S
Tb89 O99 2.322 1_565 S
Tb89 O100 2.349 . S
Tb89 O102 2.415 1_556 S
Tb89 O103 2.399 1_556 S
Tb89 O104 2.325 . S
Tb89 O107 2.303 1_455 S
Tb89 C118 2.764 1_556 S
C90 O106 1.261 . S
C90 O107 1.257 1_545 S
C91 C94 1.358 . S
C91 C95 1.332 . S
C91 C97 1.504 . S
C92 C93 1.373 . S
C92 C96 1.308 . S
C93 C92 1.373 . S
C93 C94 1.429 . S
C93 H120 0.932 . S
C94 C91 1.358 . S
C94 C93 1.429 . S
C94 H121 0.930 . S
C95 C91 1.332 . S
C95 C96 1.394 . S
C95 H122 0.932 1_655 S
C96 C92 1.308 . S
C96 C95 1.394 . S
C96 H123 0.929 . S
C97 Tb88 2.764 . S
C97 C91 1.504 . S
C97 O109 1.239 . S
C97 O110 1.263 . S
O98 Tb88 2.325 . S
O98 C108 1.236 1_655 S
O99 Tb89 2.322 1_545 S
O99 C108 1.257 . S
O100 Tb89 2.349 . S
O100 C111 1.261 . S
O101 Tb88 2.303 1_455 S
O101 C111 1.257 1_545 S
O102 Tb89 2.415 1_554 S
O102 C118 1.239 . S
O103 Tb89 2.399 1_554 S
O103 C118 1.263 . S
O104 Tb89 2.325 . S
O104 C119 1.236 1_455 S
O105 Tb88 2.322 1_565 S
O105 C119 1.257 . S
O106 Tb88 2.349 . S
O106 C90 1.261 . S
O107 Tb89 2.303 1_655 S
O107 C90 1.257 1_565 S
C108 O98 1.236 1_455 S
C108 O99 1.257 . S
O109 Tb88 2.415 . S
O109 C97 1.239 . S
O110 Tb88 2.399 . S
O110 C97 1.263 . S
C111 O100 1.261 . S
C111 O101 1.257 1_565 S
C112 C115 1.358 . S
C112 C116 1.332 . S
C112 C118 1.504 . S
C113 C114 1.373 . S
C113 C117 1.308 . S
C114 C113 1.373 . S
C114 C115 1.429 . S
C114 H124 0.932 . S
C115 C112 1.358 . S
C115 C114 1.429 . S
C115 H125 0.930 . S
C116 C112 1.332 . S
C116 C117 1.394 . S
C116 H126 0.932 1_455 S
C117 C113 1.308 . S
C117 C116 1.394 . S
C117 H127 0.929 . S
C118 Tb89 2.764 1_554 S
C118 O102 1.239 . S
C118 O103 1.263 . S
C118 C112 1.504 . S
C119 O104 1.236 1_655 S
C119 O105 1.257 . S
H120 C93 0.932 . S
H121 C94 0.930 . S
H122 C95 0.932 1_455 S
H123 C96 0.929 . S
H124 C114 0.932 . S
H125 C115 0.930 . S
H126 C116 0.932 1_655 S
H127 C117 0.929 . S
Tb128 C137 2.764 . S
Tb128 O138 2.325 . S
Tb128 O141 2.303 1_565 S
Tb128 O145 2.322 . S
Tb128 O146 2.349 . S
Tb128 O149 2.415 1_565 S
Tb128 O150 2.399 . S
Tb129 O139 2.322 . S
Tb129 O140 2.349 1_554 S
Tb129 O142 2.415 1_545 S
Tb129 O143 2.399 . S
Tb129 O144 2.325 1_554 S
Tb129 O147 2.303 1_544 S
Tb129 C158 2.764 . S
C130 O146 1.261 . S
C130 O147 1.257 . S
C131 C134 1.358 . S
C131 C135 1.332 1_565 S
C131 C137 1.504 . S
C132 C133 1.373 . S
C132 C136 1.308 1_565 S
C133 C132 1.373 . S
C133 C134 1.429 . S
C133 H160 0.932 . S
C134 C131 1.358 . S
C134 C133 1.429 . S
C134 H161 0.930 . S
C135 C131 1.332 1_545 S
C135 C136 1.394 . S
C135 H162 0.932 . S
C136 C132 1.308 1_545 S
C136 C135 1.394 . S
C136 H163 0.929 . S
C137 Tb128 2.764 . S
C137 C131 1.504 . S
C137 O149 1.239 1_565 S
C137 O150 1.263 . S
O138 Tb128 2.325 . S
O138 C148 1.236 1_565 S
O139 Tb129 2.322 . S
O139 C148 1.257 1_554 S
O140 Tb129 2.349 1_556 S
O140 C151 1.261 . S
O141 Tb128 2.303 1_545 S
O141 C151 1.257 . S
O142 Tb129 2.415 1_565 S
O142 C158 1.239 1_565 S
O143 Tb129 2.399 . S
O143 C158 1.263 . S
O144 Tb129 2.325 1_556 S
O144 C159 1.236 1_545 S
O145 Tb128 2.322 . S
O145 C159 1.257 . S
O146 Tb128 2.349 . S
O146 C130 1.261 . S
O147 Tb129 2.303 1_566 S
O147 C130 1.257 . S
C148 O138 1.236 1_545 S
C148 O139 1.257 1_556 S
O149 Tb128 2.415 1_545 S
O149 C137 1.239 1_545 S
O150 Tb128 2.399 . S
O150 C137 1.263 . S
C151 O140 1.261 . S
C151 O141 1.257 . S
C152 C155 1.358 . S
C152 C156 1.332 1_545 S
C152 C158 1.504 . S
C153 C154 1.373 . S
C153 C157 1.308 1_545 S
C154 C153 1.373 . S
C154 C155 1.429 . S
C154 H164 0.932 . S
C155 C152 1.358 . S
C155 C154 1.429 . S
C155 H165 0.930 . S
C156 C152 1.332 1_565 S
C156 C157 1.394 . S
C156 H166 0.932 . S
C157 C153 1.308 1_565 S
C157 C156 1.394 . S
C157 H167 0.929 . S
C158 Tb129 2.764 . S
C158 O142 1.239 1_545 S
C158 O143 1.263 . S
C158 C152 1.504 . S
C159 O144 1.236 1_565 S
C159 O145 1.257 . S
H160 C133 0.932 . S
H161 C134 0.930 . S
H162 C135 0.932 . S
H163 C136 0.929 . S
H164 C154 0.932 . S
H165 C155 0.930 . S
H166 C156 0.932 . S
H167 C157 0.929 . S
Tb168 C177 2.764 1_556 S
Tb168 O178 2.325 . S
Tb168 O181 2.303 . S
Tb168 O185 2.322 . S
Tb168 O186 2.349 . S
Tb168 O189 2.415 1_556 S
Tb168 O190 2.399 1_556 S
Tb169 O179 2.322 . S
Tb169 O180 2.349 . S
Tb169 O182 2.415 . S
Tb169 O183 2.399 . S
Tb169 O184 2.325 . S
Tb169 O187 2.303 . S
Tb169 C198 2.764 . S
C170 O186 1.261 . S
C170 O187 1.257 . S
C171 C174 1.358 . S
C171 C175 1.332 . S
C171 C177 1.504 . S
C172 C173 1.373 . S
C172 C176 1.308 . S
C173 C172 1.373 . S
C173 C174 1.429 . S
C173 H200 0.932 . S
C174 C171 1.358 . S
C174 C173 1.429 . S
C174 H201 0.930 . S
C175 C171 1.332 . S
C175 C176 1.394 . S
C175 H202 0.932 . S
C176 C172 1.308 . S
C176 C175 1.394 . S
C176 H203 0.929 . S
C177 Tb168 2.764 1_554 S
C177 C171 1.504 . S
C177 O189 1.239 . S
C177 O190 1.263 . S
O178 Tb168 2.325 . S
O178 C188 1.236 . S
O179 Tb169 2.322 . S
O179 C188 1.257 . S
O180 Tb169 2.349 . S
O180 C191 1.261 . S
O181 Tb168 2.303 . S
O181 C191 1.257 . S
O182 Tb169 2.415 . S
O182 C198 1.239 . S
O183 Tb169 2.399 . S
O183 C198 1.263 . S
O184 Tb169 2.325 . S
O184 C199 1.236 . S
O185 Tb168 2.322 . S
O185 C199 1.257 . S
O186 Tb168 2.349 . S
O186 C170 1.261 . S
O187 Tb169 2.303 . S
O187 C170 1.257 . S
C188 O178 1.236 . S
C188 O179 1.257 . S
O189 Tb168 2.415 1_554 S
O189 C177 1.239 . S
O190 Tb168 2.399 1_554 S
O190 C177 1.263 . S
C191 O180 1.261 . S
C191 O181 1.257 . S
C192 C195 1.358 . S
C192 C196 1.332 . S
C192 C198 1.504 . S
C193 C194 1.373 . S
C193 C197 1.308 . S
C194 C193 1.373 . S
C194 C195 1.429 . S
C194 H204 0.932 . S
C195 C192 1.358 . S
C195 C194 1.429 . S
C195 H205 0.930 . S
C196 C192 1.332 . S
C196 C197 1.394 . S
C196 H206 0.932 . S
C197 C193 1.308 . S
C197 C196 1.394 . S
C197 H207 0.929 . S
C198 Tb169 2.764 . S
C198 O182 1.239 . S
C198 O183 1.263 . S
C198 C192 1.504 . S
C199 O184 1.236 . S
C199 O185 1.257 . S
H200 C173 0.932 . S
H201 C174 0.930 . S
H202 C175 0.932 . S
H203 C176 0.929 . S
H204 C194 0.932 . S
H205 C195 0.930 . S
H206 C196 0.932 . S
H207 C197 0.929 . S
Tb208 C217 2.764 . S
Tb208 O218 2.325 . S
Tb208 O221 2.303 . S
Tb208 O225 2.322 1_455 S
Tb208 O226 2.349 . S
Tb208 O229 2.415 . S
Tb208 O230 2.399 . S
Tb209 O219 2.322 1_655 S
Tb209 O220 2.349 . S
Tb209 O222 2.415 1_556 S
Tb209 O223 2.399 1_556 S
Tb209 O224 2.325 . S
Tb209 O227 2.303 . S
Tb209 C238 2.764 1_556 S
C210 O226 1.261 . S
C210 O227 1.257 1_455 S
C211 C214 1.358 . S
C211 C215 1.332 . S
C211 C217 1.504 . S
C212 C213 1.373 . S
C212 C216 1.308 . S
C213 C212 1.373 . S
C213 C214 1.429 . S
C213 H240 0.932 . S
C214 C211 1.358 . S
C214 C213 1.429 . S
C214 H241 0.930 . S
C215 C211 1.332 . S
C215 C216 1.394 . S
C215 H242 0.932 . S
C216 C212 1.308 . S
C216 C215 1.394 . S
C216 H243 0.929 . S
C217 Tb208 2.764 . S
C217 C211 1.504 . S
C217 O229 1.239 . S
C217 O230 1.263 . S
O218 Tb208 2.325 . S
O218 C228 1.236 . S
O219 Tb209 2.322 1_455 S
O219 C228 1.257 . S
O220 Tb209 2.349 . S
O220 C231 1.261 . S
O221 Tb208 2.303 . S
O221 C231 1.257 1_455 S
O222 Tb209 2.415 1_554 S
O222 C238 1.239 . S
O223 Tb209 2.399 1_554 S
O223 C238 1.263 . S
O224 Tb209 2.325 . S
O224 C239 1.236 . S
O225 Tb208 2.322 1_655 S
O225 C239 1.257 . S
O226 Tb208 2.349 . S
O226 C210 1.261 . S
O227 Tb209 2.303 . S
O227 C210 1.257 1_655 S
C228 O218 1.236 . S
C228 O219 1.257 . S
O229 Tb208 2.415 . S
O229 C217 1.239 . S
O230 Tb208 2.399 . S
O230 C217 1.263 . S
C231 O220 1.261 . S
C231 O221 1.257 1_655 S
C232 C235 1.358 . S
C232 C236 1.332 . S
C232 C238 1.504 . S
C233 C234 1.373 . S
C233 C237 1.308 . S
C234 C233 1.373 . S
C234 C235 1.429 . S
C234 H244 0.932 . S
C235 C232 1.358 . S
C235 C234 1.429 . S
C235 H245 0.930 . S
C236 C232 1.332 . S
C236 C237 1.394 . S
C236 H246 0.932 . S
C237 C233 1.308 . S
C237 C236 1.394 . S
C237 H247 0.929 . S
C238 Tb209 2.764 1_554 S
C238 O222 1.239 . S
C238 O223 1.263 . S
C238 C232 1.504 . S
C239 O224 1.236 . S
C239 O225 1.257 . S
H240 C213 0.932 . S
H241 C214 0.930 . S
H242 C215 0.932 . S
H243 C216 0.929 . S
H244 C234 0.932 . S
H245 C235 0.930 . S
H246 C236 0.932 . S
H247 C237 0.929 . S
C248 C249 1.170 . S
C248 C250 1.380 . S
C249 C248 1.170 . S
C250 C248 1.380 . S
C250 C251 1.170 . S
C251 C250 1.170 . S
C252 C253 1.170 . S
C252 C254 1.380 . S
C253 C252 1.170 . S
C254 C252 1.380 . S
C254 C255 1.170 . S
C255 C254 1.170 . S
C256 C257 1.170 . S
C256 C258 1.380 . S
C257 C256 1.170 . S
C258 C256 1.380 . S
C258 C259 1.170 . S
C259 C258 1.170 . S
C260 C261 1.172 . S
C260 C262 1.380 . S
C261 C260 1.172 . S
C262 C260 1.380 . S
C262 C263 1.171 . S
C263 C262 1.171 . S
C264 C265 1.178 . S
C264 C266 1.373 . S
C265 C264 1.178 . S
C266 C264 1.373 . S
C266 C267 1.181 1_545 S
C267 C266 1.181 1_565 S
C268 C269 1.170 . S
C268 C270 1.380 . S
C269 C268 1.170 . S
C270 C268 1.380 . S
C270 C271 1.170 . S
C271 C270 1.170 . S
C272 C273 1.170 . S
C272 C274 1.380 . S
C273 C272 1.170 . S
C274 C272 1.380 . S
C274 C275 1.170 . S
C275 C274 1.170 . S
C276 C277 1.170 . S
C276 C278 1.380 . S
C277 C276 1.170 . S
C278 C276 1.380 . S
C278 C279 1.172 . S
C279 C278 1.172 . S
C280 C281 1.170 . S
C280 C282 1.380 . S
C281 C280 1.170 . S
C282 C280 1.380 . S
C282 C283 1.170 . S
C283 C282 1.170 . S
C284 C285 1.170 1_565 S
C284 C286 1.380 . S
C285 C284 1.170 1_545 S
C286 C284 1.380 . S
C286 C287 1.170 . S
C287 C286 1.170 . S
C288 C289 1.170 . S
C288 C290 1.380 . S
C289 C288 1.170 . S
C290 C288 1.380 . S
C290 C291 1.170 . S
C291 C290 1.170 . S
C292 C293 1.170 . S
C292 C294 1.380 . S
C293 C292 1.170 . S
C294 C292 1.380 . S
C294 C295 1.170 . S
C295 C294 1.170 . S
C296 C297 1.170 . S
C296 C298 1.380 . S
C297 C296 1.170 . S
C298 C296 1.380 . S
C298 C299 1.170 . S
C299 C298 1.170 . S
C300 C301 1.170 1_545 S
C300 C302 1.380 . S
C301 C300 1.170 1_565 S
C302 C300 1.380 . S
C302 C303 1.170 . S
C303 C302 1.170 . S
C304 C305 1.170 . S
C304 C306 1.380 . S
C305 C304 1.170 . S
C306 C304 1.380 . S
C306 C307 1.170 . S
C307 C306 1.170 . S
C308 C309 1.170 . S
C308 C310 1.380 . S
C309 C308 1.170 . S
C310 C308 1.380 . S
C310 C311 1.170 . S
C311 C310 1.170 . S
C312 C313 1.170 . S
C312 C314 1.380 . S
C313 C312 1.170 . S
C314 C312 1.380 . S
C314 C315 1.170 1_554 S
C315 C314 1.170 1_556 S
C316 C317 1.170 . S
C316 C318 1.380 1_554 S
C317 C316 1.170 . S
C318 C316 1.380 1_556 S
C318 C319 1.170 . S
C319 C318 1.170 . S
C320 C321 1.170 . S
C320 C322 1.380 . S
C321 C320 1.170 . S
C322 C320 1.380 . S
C322 C323 1.170 . S
C323 C322 1.170 . S
C324 C325 1.170 . S
C324 C326 1.380 . S
C325 C324 1.170 . S
C326 C324 1.380 . S
C326 C327 1.170 . S
C327 C326 1.170 . S
C328 C329 1.170 . S
C328 C330 1.380 . S
C329 C328 1.170 . S
C330 C328 1.380 . S
C330 C331 1.170 . S
C331 C330 1.170 . S
C332 C333 1.170 . S
C332 C334 1.380 . S
C333 C332 1.170 . S
C334 C332 1.380 . S
C334 C335 1.170 . S
C335 C334 1.170 . S
C336 C337 1.170 . S
C336 C338 1.380 . S
C337 C336 1.170 . S
C338 C336 1.380 . S
C338 C339 1.170 . S
C339 C338 1.170 . S
C340 C341 1.170 . S
C340 C342 1.380 . S
C341 C340 1.170 . S
C342 C340 1.380 . S
C342 C343 1.170 . S
C343 C342 1.170 . S
C249 C76 1.961 1_545 S
C251 C111 2.200 1_545 S
C255 C151 1.789 . S
C253 C87 1.776 . S
C259 C170 2.212 . S
C257 C54 1.990 . S
C263 C231 1.517 . S
C261 C65 1.361 . S
C267 C90 2.185 1_564 S
C265 C32 1.985 1_545 S
C269 C43 1.796 . S
C271 C130 1.799 . S
C273 C10 1.983 . S
C275 C191 2.213 1_554 S
C277 C21 1.406 1_455 S
C279 C210 1.516 1_554 S
C283 C92 1.052 . S
C281 C60 1.117 1_655 S
C287 C132 0.464 . S
C285 C71 0.566 . S
C291 C188 1.280 . S
C289 C82 1.065 . S
C293 C49 0.681 . S
C295 C212 0.576 . S
C297 C16 1.131 . S
C299 C113 1.078 . S
C303 C153 0.570 . S
C301 C27 0.532 1_565 S
C307 C199 1.266 . S
C305 C38 1.140 . S
C309 C5 0.580 . S
C311 C233 0.646 . S
C313 C59 1.604 . S
C315 C108 1.792 . S
C317 C70 2.272 . S
C319 C148 2.531 . S
C323 C172 1.606 . S
C321 C81 1.602 . S
C327 C228 2.518 . S
C325 C48 2.268 1_556 S
C329 C15 1.612 1_655 S
C331 C119 1.813 . S
C335 C159 2.534 . S
C333 C26 2.252 1_565 S
C339 C193 1.617 . S
C337 C37 1.604 . S
C341 C4 2.271 . S
C343 C239 2.532 . S
