# Generated by pormake.
# Topology cml, (3,6)-cn, num edge types: 1
# Building blocks:
#     Node 0, Type 0, BuildingBlock: QEWDON_clean_linker_0, # of connection points: 3
#     Node 1, Type 0, BuildingBlock: QEWDON_clean_linker_0, # of connection points: 3
#     Node 2, Type 0, BuildingBlock: QEWDON_clean_linker_0, # of connection points: 3
#     Node 3, Type 0, BuildingBlock: QEWDON_clean_linker_0, # of connection points: 3
#     Node 4, Type 0, BuildingBlock: QEWDON_clean_linker_0, # of connection points: 3
#     Node 5, Type 0, BuildingBlock: QEWDON_clean_linker_0, # of connection points: 3
#     Node 6, Type 0, BuildingBlock: QEWDON_clean_linker_0, # of connection points: 3
#     Node 7, Type 0, BuildingBlock: QEWDON_clean_linker_0, # of connection points: 3
#     Node 8, Type 1, BuildingBlock: OJICUG_clean_sbu_0, # of connection points: 6
#     Node 9, Type 1, BuildingBlock: OJICUG_clean_sbu_0, # of connection points: 6
#     Node 10, Type 1, BuildingBlock: OJICUG_clean_sbu_0, # of connection points: 6
#     Node 11, Type 1, BuildingBlock: OJICUG_clean_sbu_0, # of connection points: 6
#     Edge 12, Type (0, 1), BuildingBlock: KIFKEQ_clean_linker_1, # of connection points: 2
#     Edge 13, Type (0, 1), BuildingBlock: KIFKEQ_clean_linker_1, # of connection points: 2
#     Edge 14, Type (0, 1), BuildingBlock: KIFKEQ_clean_linker_1, # of connection points: 2
#     Edge 15, Type (0, 1), BuildingBlock: KIFKEQ_clean_linker_1, # of connection points: 2
#     Edge 16, Type (0, 1), BuildingBlock: KIFKEQ_clean_linker_1, # of connection points: 2
#     Edge 17, Type (0, 1), BuildingBlock: KIFKEQ_clean_linker_1, # of connection points: 2
#     Edge 18, Type (0, 1), BuildingBlock: KIFKEQ_clean_linker_1, # of connection points: 2
#     Edge 19, Type (0, 1), BuildingBlock: KIFKEQ_clean_linker_1, # of connection points: 2
#     Edge 20, Type (0, 1), BuildingBlock: KIFKEQ_clean_linker_1, # of connection points: 2
#     Edge 21, Type (0, 1), BuildingBlock: KIFKEQ_clean_linker_1, # of connection points: 2
#     Edge 22, Type (0, 1), BuildingBlock: KIFKEQ_clean_linker_1, # of connection points: 2
#     Edge 23, Type (0, 1), BuildingBlock: KIFKEQ_clean_linker_1, # of connection points: 2
#     Edge 24, Type (0, 1), BuildingBlock: KIFKEQ_clean_linker_1, # of connection points: 2
#     Edge 25, Type (0, 1), BuildingBlock: KIFKEQ_clean_linker_1, # of connection points: 2
#     Edge 26, Type (0, 1), BuildingBlock: KIFKEQ_clean_linker_1, # of connection points: 2
#     Edge 27, Type (0, 1), BuildingBlock: KIFKEQ_clean_linker_1, # of connection points: 2
#     Edge 28, Type (0, 1), BuildingBlock: KIFKEQ_clean_linker_1, # of connection points: 2
#     Edge 29, Type (0, 1), BuildingBlock: KIFKEQ_clean_linker_1, # of connection points: 2
#     Edge 30, Type (0, 1), BuildingBlock: KIFKEQ_clean_linker_1, # of connection points: 2
#     Edge 31, Type (0, 1), BuildingBlock: KIFKEQ_clean_linker_1, # of connection points: 2
#     Edge 32, Type (0, 1), BuildingBlock: KIFKEQ_clean_linker_1, # of connection points: 2
#     Edge 33, Type (0, 1), BuildingBlock: KIFKEQ_clean_linker_1, # of connection points: 2
#     Edge 34, Type (0, 1), BuildingBlock: KIFKEQ_clean_linker_1, # of connection points: 2
#     Edge 35, Type (0, 1), BuildingBlock: KIFKEQ_clean_linker_1, # of connection points: 2
# Relax obj value: 0.005
# Max RMSD: 0.109
# Mean RMSD: 0.080
data_MOF--net-cml--node1-OJICUG_clean_sbu_0--node2-QEWDON_clean_linker_0--edge1-KIFKEQ_clean_linker_1
_symmetry_space_group_name_H-M    P1
_symmetry_Int_Tables_number       1
_symmetry_cell_setting            triclinic
loop_
_symmetry_equiv_pos_as_xyz
'x, y, z'
_cell_length_a     43.428386
_cell_length_b     41.267325
_cell_length_c     36.337539
_cell_angle_alpha  90.013087
_cell_angle_beta   89.980557
_cell_angle_gamma 89.941477
loop_
_atom_site_label
_atom_site_type_symbol
_atom_site_fract_x
_atom_site_fract_y
_atom_site_fract_z
_atom_type_partial_charge
H0 H 0.27627 0.43828 0.97348 0.0
C1 C 0.28763 0.42464 0.99509 0.0
C2 C 0.31968 0.42684 -0.00053 0.0
C3 C 0.26999 0.40541 0.01893 0.0
H4 H 0.3584 0.41238 0.03267 0.0
C5 C 0.33389 0.40951 0.02807 0.0
C6 C 0.31641 0.39083 0.05275 0.0
C7 C 0.28439 0.38858 0.04773 0.0
C8 C 0.23615 0.40582 0.01601 0.0
H9 H 0.27055 0.37469 0.06691 0.0
C10 C 0.22011 0.37959 0.0005 0.0
C11 C 0.18785 0.38102 0.99636 0.0
C12 C 0.21992 0.43325 0.02795 0.0
H13 H 0.23202 0.45366 0.03989 0.0
C14 C 0.18796 0.43453 0.02463 0.0
H15 H 0.23281 0.35868 0.9907 0.0
C16 C 0.172 0.40868 0.00891 0.0
H17 H 0.14717 0.41028 0.00672 0.0
H18 H 0.17553 0.45569 0.03411 0.0
H19 H 0.7263 0.56601 0.47644 0.0
C20 C 0.71568 0.5812 0.49724 0.0
C21 C 0.684 0.57852 0.50432 0.0
C22 C 0.73412 0.60225 0.51812 0.0
H23 H 0.64655 0.59529 0.5383 0.0
C24 C 0.67089 0.59761 0.53223 0.0
C25 C 0.68912 0.61822 0.5539 0.0
C26 C 0.72078 0.62072 0.54643 0.0
C27 C 0.76783 0.60219 0.51286 0.0
H28 H 0.7352 0.63599 0.56351 0.0
C29 C 0.7835 0.63033 0.50167 0.0
C30 C 0.81567 0.62978 0.49673 0.0
C31 C 0.78447 0.57354 0.51912 0.0
H32 H 0.77276 0.55165 0.52777 0.0
C33 C 0.81635 0.57301 0.5147 0.0
H34 H 0.77067 0.65245 0.49667 0.0
C35 C 0.83191 0.6009 0.50361 0.0
H36 H 0.85662 0.59972 0.4997 0.0
H37 H 0.82904 0.55085 0.51968 0.0
H38 H 0.69832 0.38778 0.94037 0.0
C39 C 0.69331 0.38476 0.9694 0.0
C40 C 0.67988 0.41029 0.98943 0.0
C41 C 0.69879 0.35469 0.98618 0.0
H42 H 0.66091 0.42446 0.04185 0.0
C43 C 0.67272 0.40549 0.02675 0.0
C44 C 0.67767 0.37534 0.04371 0.0
C45 C 0.69094 0.35006 0.02323 0.0
C46 C 0.70811 0.32672 0.96358 0.0
H47 H 0.69411 0.3264 0.03565 0.0
C48 C 0.73932 0.31941 0.95751 0.0
C49 C 0.74763 0.2927 0.93542 0.0
C50 C 0.68523 0.30721 0.94783 0.0
H51 H 0.66109 0.31257 0.95236 0.0
C52 C 0.69331 0.2807 0.92611 0.0
H53 H 0.75695 0.33467 0.96954 0.0
C54 C 0.72425 0.27345 0.91988 0.0
H55 H 0.7299 0.25248 0.90325 0.0
H56 H 0.67553 0.26567 0.9141 0.0
H57 H 0.3093 0.61541 0.44242 0.0
C58 C 0.31406 0.61851 0.4715 0.0
C59 C 0.32803 0.59332 0.49152 0.0
C60 C 0.30757 0.64834 0.48836 0.0
H61 H 0.34713 0.57959 0.54397 0.0
C62 C 0.3349 0.59825 0.52888 0.0
C63 C 0.32907 0.62821 0.54593 0.0
C64 C 0.31512 0.65312 0.52549 0.0
C65 C 0.29779 0.67609 0.46566 0.0
H66 H 0.3113 0.67666 0.53797 0.0
C67 C 0.26651 0.68425 0.46162 0.0
C68 C 0.25782 0.71035 0.4388 0.0
C69 C 0.32032 0.6943 0.44738 0.0
H70 H 0.3445 0.68828 0.4503 0.0
C71 C 0.31187 0.72036 0.42519 0.0
H72 H 0.2491 0.66996 0.47549 0.0
C73 C 0.28087 0.72833 0.42082 0.0
H74 H 0.27492 0.74879 0.40354 0.0
H75 H 0.32939 0.73438 0.41124 0.0
H76 H 0.77691 0.93742 0.97549 0.0
C77 C 0.78817 0.92341 0.99686 0.0
C78 C 0.8202 0.92551 0.00145 0.0
C79 C 0.77042 0.90381 0.02021 0.0
H80 H 0.85879 0.91052 0.03457 0.0
C81 C 0.8343 0.90772 0.02977 0.0
C82 C 0.81672 0.88868 0.05399 0.0
C83 C 0.78471 0.88653 0.04875 0.0
C84 C 0.73659 0.90441 0.01722 0.0
H85 H 0.77079 0.87239 0.0676 0.0
C86 C 0.7204 0.87835 0.00152 0.0
C87 C 0.68815 0.88 0.99737 0.0
C88 C 0.72048 0.93186 0.02936 0.0
H89 H 0.73268 0.95213 0.04146 0.0
C90 C 0.68853 0.93333 0.02607 0.0
H91 H 0.733 0.85743 0.99156 0.0
C92 C 0.67244 0.90766 0.01015 0.0
H93 H 0.64762 0.90942 0.00798 0.0
H94 H 0.6762 0.9545 0.03571 0.0
H95 H 0.23227 0.06672 0.47441 0.0
C96 C 0.22097 0.07987 0.49646 0.0
C97 C 0.18896 0.07743 0.50107 0.0
C98 C 0.23864 0.09866 0.52069 0.0
H99 H 0.15033 0.0911 0.5349 0.0
C100 C 0.17481 0.09414 0.53022 0.0
C101 C 0.19235 0.11242 0.55523 0.0
C102 C 0.22435 0.11483 0.55004 0.0
C103 C 0.27244 0.09852 0.51746 0.0
H104 H 0.23824 0.12845 0.56939 0.0
C105 C 0.28803 0.12416 0.50018 0.0
C106 C 0.32028 0.1231 0.49602 0.0
C107 C 0.28909 0.07198 0.53101 0.0
H108 H 0.27732 0.05203 0.54433 0.0
C109 C 0.32105 0.07102 0.5275 0.0
H110 H 0.27498 0.14438 0.48922 0.0
C111 C 0.33659 0.09633 0.5101 0.0
H112 H 0.36143 0.09506 0.5079 0.0
H113 H 0.33382 0.05055 0.53819 0.0
H114 H 0.19112 0.88955 0.94821 0.0
C115 C 0.18969 0.88502 0.97755 0.0
C116 C 0.17735 0.90873 0.00113 0.0
C117 C 0.1983 0.85449 0.99123 0.0
H118 H 0.16472 0.91955 0.05718 0.0
C119 C 0.17455 0.90163 0.03879 0.0
C120 C 0.18185 0.87078 0.05258 0.0
C121 C 0.19412 0.84735 0.02866 0.0
C122 C 0.20728 0.82861 0.96538 0.0
H123 H 0.19909 0.82319 0.03876 0.0
C124 C 0.23815 0.81871 0.96193 0.0
C125 C 0.24636 0.79466 0.93613 0.0
C126 C 0.18457 0.81409 0.94349 0.0
H127 H 0.1607 0.82148 0.94589 0.0
C128 C 0.19246 0.78984 0.91851 0.0
H129 H 0.2557 0.83036 0.97847 0.0
C130 C 0.22308 0.78018 0.91476 0.0
H131 H 0.22853 0.7612 0.89521 0.0
H132 H 0.17479 0.77857 0.90187 0.0
H133 H 0.80373 0.11947 0.44231 0.0
C134 C 0.81133 0.12047 0.4707 0.0
C135 C 0.82479 0.093 0.48705 0.0
C136 C 0.8095 0.14982 0.49021 0.0
H137 H 0.84626 0.07403 0.53584 0.0
C138 C 0.8355 0.09505 0.5234 0.0
C139 C 0.83496 0.12451 0.54274 0.0
C140 C 0.82149 0.15175 0.52606 0.0
C141 C 0.79938 0.1797 0.47141 0.0
H142 H 0.8217 0.17493 0.5401 0.0
C143 C 0.76839 0.18453 0.46151 0.0
C144 C 0.75934 0.21334 0.44365 0.0
C145 C 0.82122 0.20373 0.46344 0.0
H146 H 0.84517 0.20039 0.47092 0.0
C147 C 0.81241 0.23211 0.4455 0.0
H148 H 0.75147 0.16603 0.46775 0.0
C149 C 0.78173 0.23693 0.43562 0.0
H150 H 0.77538 0.25943 0.42227 0.0
H151 H 0.8294 0.25051 0.4394 0.0
Sc152 Sc 0.99958 0.81379 0.32068 0.0
Sc153 Sc 0.99856 0.89919 0.31725 0.0
Sc154 Sc 1.00013 0.85942 0.403 0.0
O155 O 0.99936 0.85746 0.34699 0.0
C156 C 0.95489 0.79948 0.3886 0.0
C157 C 0.95317 0.85416 0.27038 0.0
C158 C 0.95189 0.91548 0.38269 0.0
C159 C 0.04561 0.85559 0.27101 0.0
C160 C 0.04757 0.80199 0.3864 0.0
C161 C 0.04411 0.91883 0.38251 0.0
O162 O 0.96421 0.79405 0.35596 0.0
O163 O 0.96344 0.88151 0.28069 0.0
O164 O 0.96312 0.89474 0.40498 0.0
O165 O 0.03513 0.8287 0.28271 0.0
O166 O 0.03747 0.82481 0.4067 0.0
O167 O 0.0334 0.92251 0.35023 0.0
O168 O 0.03566 0.79505 0.35541 0.0
O169 O 0.03471 0.88282 0.28109 0.0
O170 O 0.03443 0.89707 0.40436 0.0
O171 O 0.96383 0.82744 0.28229 0.0
O172 O 0.96605 0.82181 0.40867 0.0
O173 O 0.96236 0.91964 0.35034 0.0
Sc174 Sc 0.00813 0.18881 0.81922 0.0
Sc175 Sc 0.01287 0.10358 0.82191 0.0
Sc176 Sc 0.00736 0.14778 0.90461 0.0
O177 O 0.00952 0.14674 0.84859 0.0
C178 C 0.05111 0.20828 0.88724 0.0
C179 C 0.05777 0.14794 0.77375 0.0
C180 C 0.05704 0.09169 0.89079 0.0
C181 C 0.966 0.14241 0.77023 0.0
C182 C 0.95862 0.20261 0.88262 0.0
C183 C 0.96538 0.08624 0.88615 0.0
O184 O 0.04159 0.21191 0.85437 0.0
O185 O 0.0487 0.1207 0.78593 0.0
O186 O 0.04461 0.11335 0.91088 0.0
O187 O 0.97446 0.17038 0.7809 0.0
O188 O 0.96948 0.18176 0.90489 0.0
O189 O 0.97747 0.08118 0.8548 0.0
O190 O 0.97038 0.20785 0.85113 0.0
O191 O 0.97785 0.11641 0.78261 0.0
O192 O 0.97363 0.10943 0.907 0.0
O193 O 0.0454 0.17464 0.78316 0.0
O194 O 0.04082 0.18633 0.90854 0.0
O195 O 0.04819 0.08583 0.85813 0.0
Sc196 Sc 0.50079 0.31277 0.31621 0.0
Sc197 Sc 0.49797 0.39813 0.31807 0.0
Sc198 Sc 0.50029 0.3543 0.40127 0.0
O199 O 0.49961 0.35506 0.3452 0.0
C200 C 0.45626 0.29431 0.38324 0.0
C201 C 0.45285 0.35439 0.26928 0.0
C202 C 0.45208 0.41132 0.3852 0.0
C203 C 0.54492 0.35796 0.26801 0.0
C204 C 0.54891 0.29866 0.38092 0.0
C205 C 0.54396 0.41476 0.38402 0.0
O206 O 0.46654 0.29016 0.35077 0.0
O207 O 0.46266 0.38151 0.28102 0.0
O208 O 0.46348 0.38959 0.40606 0.0
O209 O 0.53529 0.33035 0.27844 0.0
O210 O 0.53763 0.31954 0.40294 0.0
O211 O 0.533 0.42 0.35212 0.0
O212 O 0.53787 0.29358 0.34903 0.0
O213 O 0.53374 0.3844 0.28006 0.0
O214 O 0.5345 0.39191 0.40457 0.0
O215 O 0.46419 0.32741 0.2795 0.0
O216 O 0.46617 0.31649 0.40446 0.0
O217 O 0.46205 0.41674 0.35289 0.0
Sc218 Sc 0.50586 0.69167 0.81902 0.0
Sc219 Sc 0.51058 0.60643 0.8182 0.0
Sc220 Sc 0.50669 0.6481 0.90278 0.0
O221 O 0.50776 0.64874 0.84669 0.0
C222 C 0.54997 0.70927 0.88666 0.0
C223 C 0.55487 0.6523 0.77101 0.0
C224 C 0.55622 0.59268 0.88535 0.0
C225 C 0.46279 0.64674 0.76926 0.0
C226 C 0.45737 0.70333 0.8841 0.0
C227 C 0.46438 0.58712 0.88304 0.0
O228 O 0.5399 0.71377 0.85417 0.0
O229 O 0.54589 0.62468 0.78217 0.0
O230 O 0.54425 0.61366 0.90675 0.0
O231 O 0.47149 0.67434 0.78087 0.0
O232 O 0.46858 0.6818 0.90529 0.0
O233 O 0.47572 0.583 0.85111 0.0
O234 O 0.46868 0.70963 0.85263 0.0
O235 O 0.47484 0.62035 0.78024 0.0
O236 O 0.47319 0.6096 0.90454 0.0
O237 O 0.54258 0.67868 0.78164 0.0
O238 O 0.54006 0.68671 0.90741 0.0
O239 O 0.54656 0.58777 0.85282 0.0
H240 H 0.14193 0.3862 0.94555 0.0
H241 H 0.19472 0.31545 0.00635 0.0
H242 H 0.11132 0.34304 0.91844 0.0
H243 H 0.16453 0.27192 0.97822 0.0
H244 H 0.07619 0.21063 0.95657 0.0
H245 H 0.11158 0.25094 0.98126 0.0
H246 H 0.11475 0.29823 0.87531 0.0
H247 H 0.079 0.25838 0.85069 0.0
C248 C 0.14705 0.36137 0.95305 0.0
C249 C 0.17058 0.35427 0.97836 0.0
C250 C 0.12973 0.33658 0.93715 0.0
C251 C 0.13548 0.304 0.94612 0.0
C252 C 0.15935 0.29679 0.97099 0.0
C253 C 0.17682 0.32168 0.98683 0.0
C254 C 0.08455 0.22948 0.93841 0.0
C255 C 0.07442 0.23136 0.90168 0.0
C256 C 0.10503 0.25249 0.95256 0.0
C257 C 0.11584 0.27794 0.93034 0.0
C258 C 0.10646 0.27924 0.89334 0.0
C259 C 0.08603 0.25626 0.87919 0.0
H260 H 0.86852 0.6557 0.52438 0.0
H261 H 0.8011 0.66868 0.43836 0.0
H262 H 0.89935 0.69955 0.49853 0.0
H263 H 0.8319 0.7129 0.41253 0.0
H264 H 0.92007 0.75347 0.35338 0.0
H265 H 0.88343 0.71573 0.38081 0.0
H266 H 0.89856 0.7592 0.48734 0.0
H267 H 0.93527 0.79686 0.46017 0.0
C268 C 0.86017 0.6682 0.50014 0.0
C269 C 0.8325 0.65872 0.48328 0.0
C270 C 0.87769 0.69345 0.48548 0.0
C271 C 0.86808 0.7096 0.45342 0.0
C272 C 0.83998 0.7007 0.43709 0.0
C273 C 0.82225 0.67563 0.45203 0.0
C274 C 0.91545 0.75518 0.3826 0.0
C275 C 0.93087 0.77808 0.40457 0.0
C276 C 0.89427 0.73369 0.39826 0.0
C277 C 0.88822 0.73443 0.43625 0.0
C278 C 0.90299 0.75784 0.45804 0.0
C279 C 0.92395 0.7795 0.44238 0.0
H280 H 0.77411 0.27583 0.87013 0.0
H281 H 0.79519 0.29063 0.98503 0.0
H282 H 0.82656 0.25738 0.85925 0.0
H283 H 0.84822 0.27291 0.97394 0.0
H284 H 0.9237 0.19598 0.94521 0.0
H285 H 0.87442 0.2216 0.95898 0.0
H286 H 0.87975 0.27552 0.85733 0.0
H287 H 0.92868 0.24961 0.84315 0.0
C288 C 0.79006 0.27536 0.89303 0.0
C289 C 0.78044 0.28444 0.92849 0.0
C290 C 0.82024 0.26511 0.88673 0.0
C291 C 0.84161 0.26363 0.91574 0.0
C292 C 0.83223 0.27349 0.95108 0.0
C293 C 0.80197 0.28393 0.95737 0.0
C294 C 0.91456 0.21354 0.92593 0.0
C295 C 0.93012 0.22044 0.89287 0.0
C296 C 0.88635 0.22837 0.93396 0.0
C297 C 0.87303 0.25043 0.90912 0.0
C298 C 0.88913 0.25823 0.87676 0.0
C299 C 0.9173 0.24345 0.86873 0.0
H300 H 0.21225 0.71703 0.49067 0.0
H301 H 0.22927 0.72342 0.37384 0.0
H302 H 0.15915 0.73542 0.4808 0.0
H303 H 0.17682 0.74226 0.36406 0.0
H304 H 0.07477 0.75042 0.35189 0.0
H305 H 0.12337 0.72433 0.36696 0.0
H306 H 0.13313 0.78656 0.46177 0.0
H307 H 0.08412 0.81255 0.44707 0.0
C308 C 0.20454 0.72202 0.46289 0.0
C309 C 0.22494 0.71897 0.43305 0.0
C310 C 0.17427 0.73281 0.45728 0.0
C311 C 0.16375 0.74034 0.42165 0.0
C312 C 0.184 0.73634 0.3918 0.0
C313 C 0.21418 0.72584 0.39743 0.0
C314 C 0.08702 0.7584 0.37621 0.0
C315 C 0.07556 0.78389 0.39803 0.0
C316 C 0.115 0.74348 0.38475 0.0
C317 C 0.13231 0.7536 0.41532 0.0
C318 C 0.12026 0.77805 0.43815 0.0
C319 C 0.09221 0.79306 0.42959 0.0
H320 H 0.69463 0.81427 0.00665 0.0
H321 H 0.64224 0.88587 0.94667 0.0
H322 H 0.66411 0.77118 0.97814 0.0
H323 H 0.61128 0.84318 0.91922 0.0
H324 H 0.57806 0.75955 0.85071 0.0
H325 H 0.61419 0.79883 0.87567 0.0
H326 H 0.61115 0.75039 0.98095 0.0
H327 H 0.57538 0.71061 0.95588 0.0
C328 C 0.67675 0.82078 0.98723 0.0
C329 C 0.67072 0.85349 0.9791 0.0
C330 C 0.65909 0.79615 0.97117 0.0
C331 C 0.63521 0.80372 0.94643 0.0
C332 C 0.62968 0.83642 0.93782 0.0
C333 C 0.6472 0.86095 0.95391 0.0
C334 C 0.58519 0.75706 0.87913 0.0
C335 C 0.5735 0.73199 0.90132 0.0
C336 C 0.60584 0.77972 0.89348 0.0
C337 C 0.61537 0.77794 0.9304 0.0
C338 C 0.60449 0.75231 0.95231 0.0
C339 C 0.5838 0.7296 0.93795 0.0
H340 H 0.312 0.18877 0.50269 0.0
H341 H 0.36662 0.11702 0.44576 0.0
H342 H 0.34161 0.23186 0.47299 0.0
H343 H 0.39672 0.15983 0.4171 0.0
H344 H 0.42958 0.24304 0.34737 0.0
H345 H 0.3937 0.20339 0.37229 0.0
H346 H 0.39397 0.25365 0.47656 0.0
H347 H 0.4294 0.29369 0.45158 0.0
C348 C 0.33016 0.18222 0.48365 0.0
C349 C 0.3371 0.14949 0.47677 0.0
C350 C 0.3473 0.20687 0.4669 0.0
C351 C 0.37159 0.1993 0.44274 0.0
C352 C 0.37798 0.16656 0.43524 0.0
C353 C 0.36096 0.14199 0.45204 0.0
C354 C 0.42183 0.24586 0.37553 0.0
C355 C 0.43267 0.27149 0.39751 0.0
C356 C 0.40134 0.223 0.38986 0.0
C357 C 0.39115 0.2252 0.42651 0.0
C358 C 0.40114 0.2514 0.44812 0.0
C359 C 0.42165 0.27427 0.43382 0.0
H360 H 0.29068 0.78313 0.98856 0.0
H361 H 0.27593 0.78414 0.87103 0.0
H362 H 0.34363 0.76457 0.97869 0.0
H363 H 0.32808 0.76463 0.86125 0.0
H364 H 0.43011 0.75531 0.85054 0.0
H365 H 0.38115 0.78067 0.86561 0.0
H366 H 0.37046 0.71567 0.95788 0.0
H367 H 0.4199 0.69065 0.94334 0.0
C368 C 0.29879 0.7796 0.96066 0.0
C369 C 0.27903 0.7849 0.9306 0.0
C370 C 0.32901 0.76867 0.95501 0.0
C371 C 0.34013 0.76307 0.91917 0.0
C372 C 0.32048 0.76905 0.8892 0.0
C373 C 0.2904 0.77986 0.89483 0.0
C374 C 0.41752 0.74656 0.87428 0.0
C375 C 0.42891 0.72069 0.8955 0.0
C376 C 0.38933 0.76104 0.88281 0.0
C377 C 0.37165 0.74997 0.9127 0.0
C378 C 0.38357 0.72497 0.93484 0.0
C379 C 0.41189 0.71052 0.92637 0.0
H380 H 0.70843 0.20628 0.48739 0.0
H381 H 0.73665 0.23531 0.37839 0.0
H382 H 0.65541 0.22255 0.4733 0.0
H383 H 0.68404 0.25186 0.36444 0.0
H384 H 0.57962 0.30087 0.44703 0.0
H385 H 0.62874 0.27551 0.46242 0.0
H386 H 0.63154 0.23058 0.35517 0.0
H387 H 0.58268 0.25601 0.33952 0.0
C388 C 0.70318 0.21565 0.46027 0.0
C389 C 0.72665 0.21965 0.43402 0.0
C390 C 0.67294 0.22524 0.45232 0.0
C391 C 0.66555 0.2386 0.41781 0.0
C392 C 0.68887 0.2414 0.39116 0.0
C393 C 0.71906 0.23214 0.39922 0.0
C394 C 0.5905 0.28531 0.42683 0.0
C395 C 0.57721 0.28077 0.39189 0.0
C396 C 0.61859 0.27061 0.43577 0.0
C397 C 0.63413 0.2512 0.40992 0.0
C398 C 0.62033 0.24574 0.37551 0.0
C399 C 0.59221 0.26025 0.36663 0.0
H400 H 0.37506 0.41537 0.96613 0.0
H401 H 0.30625 0.48965 0.98215 0.0
H402 H 0.40805 0.4545 0.93455 0.0
H403 H 0.33905 0.52866 0.95022 0.0
H404 H 0.42633 0.59393 0.94259 0.0
H405 H 0.38928 0.55494 0.9665 0.0
H406 H 0.41124 0.4893 0.87774 0.0
H407 H 0.44847 0.52826 0.85368 0.0
C408 C 0.36687 0.43997 0.96249 0.0
C409 C 0.33813 0.44948 0.97665 0.0
C410 C 0.38563 0.46229 0.94422 0.0
C411 C 0.37617 0.49468 0.94009 0.0
C412 C 0.34705 0.50394 0.9533 0.0
C413 C 0.32816 0.48154 0.97124 0.0
C414 C 0.42319 0.57128 0.92799 0.0
C415 C 0.44052 0.56419 0.89629 0.0
C416 C 0.40177 0.54904 0.94157 0.0
C417 C 0.39738 0.51907 0.924 0.0
C418 C 0.41432 0.51212 0.892 0.0
C419 C 0.43552 0.53453 0.87815 0.0
H420 H 0.64149 0.53774 0.53428 0.0
H421 H 0.6839 0.56319 0.4307 0.0
H422 H 0.60973 0.49784 0.50325 0.0
H423 H 0.65278 0.522 0.39962 0.0
H424 H 0.5637 0.47253 0.3549 0.0
H425 H 0.59924 0.51131 0.38247 0.0
H426 H 0.61411 0.44593 0.47359 0.0
H427 H 0.57818 0.40757 0.44664 0.0
C428 C 0.64396 0.53489 0.50479 0.0
C429 C 0.66501 0.55391 0.4849 0.0
C430 C 0.62606 0.51162 0.48706 0.0
C431 C 0.62882 0.50655 0.44896 0.0
C432 C 0.64995 0.52547 0.42896 0.0
C433 C 0.66794 0.54886 0.44679 0.0
C434 C 0.57475 0.46629 0.38066 0.0
C435 C 0.56775 0.43706 0.39875 0.0
C436 C 0.59525 0.48849 0.39638 0.0
C437 C 0.60925 0.4819 0.43045 0.0
C438 C 0.6032 0.45209 0.44772 0.0
C439 C 0.58268 0.43 0.43213 0.0
H440 H 0.65022 0.41513 0.92354 0.0
H441 H 0.6845 0.4731 0.01355 0.0
H442 H 0.62564 0.46265 0.89726 0.0
H443 H 0.66011 0.52109 0.98694 0.0
H444 H 0.57295 0.58188 0.95709 0.0
H445 H 0.60824 0.54068 0.98009 0.0
H446 H 0.63141 0.51415 0.8684 0.0
H447 H 0.59548 0.55463 0.84543 0.0
C448 C 0.65328 0.43825 0.93716 0.0
C449 C 0.66928 0.44031 0.97067 0.0
C450 C 0.63913 0.4656 0.92209 0.0
C451 C 0.64071 0.49577 0.94006 0.0
C452 C 0.65797 0.49814 0.9727 0.0
C453 C 0.67206 0.47071 0.98786 0.0
C454 C 0.58593 0.56762 0.93743 0.0
C455 C 0.58102 0.57126 0.89943 0.0
C456 C 0.60632 0.54404 0.95063 0.0
C457 C 0.62244 0.52376 0.9261 0.0
C458 C 0.61887 0.52881 0.88808 0.0
C459 C 0.59834 0.55216 0.87491 0.0
H460 H 0.32441 0.53036 0.51536 0.0
H461 H 0.35822 0.58922 0.42586 0.0
H462 H 0.34925 0.48279 0.48836 0.0
H463 H 0.38332 0.54213 0.39923 0.0
H464 H 0.41336 0.4505 0.34602 0.0
H465 H 0.37784 0.49108 0.3697 0.0
H466 H 0.40077 0.46291 0.48092 0.0
H467 H 0.4356 0.42156 0.45716 0.0
C468 C 0.3369 0.53305 0.48973 0.0
C469 C 0.33932 0.56356 0.47274 0.0
C470 C 0.35125 0.50584 0.47434 0.0
C471 C 0.36848 0.50856 0.44169 0.0
C472 C 0.36985 0.53888 0.42404 0.0
C473 C 0.35541 0.56599 0.43931 0.0
C474 C 0.41054 0.45265 0.37555 0.0
C475 C 0.42762 0.43298 0.3997 0.0
C476 C 0.39025 0.47608 0.38914 0.0
C477 C 0.38671 0.48068 0.42725 0.0
C478 C 0.40266 0.45992 0.4514 0.0
C479 C 0.42278 0.43625 0.43777 0.0
H480 H 0.87567 0.91437 0.96823 0.0
H481 H 0.807 0.98863 0.98519 0.0
H482 H 0.90879 0.95375 0.93734 0.0
H483 H 0.83995 0.02793 0.95389 0.0
H484 H 0.92726 0.09326 0.94574 0.0
H485 H 0.89013 0.05433 0.96971 0.0
H486 H 0.91202 0.9886 0.88102 0.0
H487 H 0.94929 0.0274 0.85697 0.0
C488 C 0.86755 0.93903 0.96496 0.0
C489 C 0.83879 0.94843 0.97915 0.0
C490 C 0.88639 0.96151 0.94708 0.0
C491 C 0.87701 0.99396 0.94334 0.0
C492 C 0.8479 0.00316 0.95666 0.0
C493 C 0.82892 0.98059 0.97423 0.0
C494 C 0.92407 0.07061 0.93118 0.0
C495 C 0.94142 0.06345 0.89951 0.0
C496 C 0.90262 0.04839 0.9448 0.0
C497 C 0.89821 0.01839 0.92727 0.0
C498 C 0.91513 0.01141 0.89528 0.0
C499 C 0.93637 0.03375 0.88143 0.0
H500 H 0.20249 0.01497 0.48245 0.0
H501 H 0.13352 0.08933 0.46807 0.0
H502 H 0.16974 0.97638 0.44979 0.0
H503 H 0.10062 0.05063 0.43566 0.0
H504 H 0.0605 0.97761 0.35335 0.0
H505 H 0.09783 0.01631 0.37784 0.0
H506 H 0.11921 0.95015 0.46624 0.0
H507 H 0.08202 0.91148 0.44197 0.0
C508 C 0.18056 0.0232 0.47173 0.0
C509 C 0.17052 0.05514 0.47782 0.0
C510 C 0.16172 1.00105 0.45335 0.0
C511 C 0.13258 0.01046 0.44036 0.0
C512 C 0.12305 0.04275 0.44515 0.0
C513 C 0.14176 0.06482 0.46389 0.0
C514 C 0.07337 0.97117 0.37782 0.0
C515 C 0.06815 0.94148 0.3958 0.0
C516 C 0.09461 0.99342 0.39191 0.0
C517 C 0.11139 0.98625 0.42394 0.0
C518 C 0.10682 0.95622 0.4413 0.0
C519 C 0.08534 0.93416 0.42752 0.0
H520 H 0.12402 0.93871 0.0221 0.0
H521 H 0.19966 0.94752 0.94536 0.0
H522 H 0.1006 0.98703 0.99665 0.0
H523 H 0.17538 0.99587 0.91901 0.0
H524 H 0.09357 0.0475 0.85521 0.0
H525 H 0.12695 0.00676 0.88288 0.0
H526 H 0.10841 0.04658 0.99051 0.0
H527 H 0.07475 0.08724 0.96303 0.0
C528 C 0.13609 0.95131 0.00032 0.0
C529 C 0.16403 0.93931 0.98614 0.0
C530 C 0.12253 0.97907 0.98564 0.0
C531 C 0.13626 0.99543 0.95605 0.0
C532 C 0.16424 0.98367 0.9418 0.0
C533 C 0.17806 0.95595 0.9568 0.0
C534 C 0.09694 0.04794 0.88474 0.0
C535 C 0.08106 0.0704 0.90694 0.0
C536 C 0.11627 0.02469 0.90054 0.0
C537 C 0.12003 0.02326 0.93888 0.0
C538 C 0.1056 0.04684 0.96089 0.0
C539 C 0.08642 0.07024 0.9451 0.0
H540 H 0.81625 0.0293 0.50539 0.0
H541 H 0.85302 0.09103 0.42024 0.0
H542 H 0.84112 0.98243 0.47697 0.0
H543 H 0.87839 0.0446 0.39226 0.0
H544 H 0.93106 0.92514 0.4531 0.0
H545 H 0.89356 0.96494 0.47402 0.0
H546 H 0.87697 0.99374 0.36141 0.0
H547 H 0.91515 0.95461 0.34057 0.0
C548 C 0.82909 0.03268 0.48011 0.0
C549 C 0.83282 0.06383 0.46512 0.0
C550 C 0.84358 0.00591 0.46401 0.0
C551 C 0.86227 0.00975 0.43269 0.0
C552 C 0.86402 0.04057 0.41617 0.0
C553 C 0.84937 0.06728 0.43216 0.0
C554 C 0.91915 0.93966 0.43275 0.0
C555 C 0.92648 0.93693 0.3952 0.0
C556 C 0.89742 0.96239 0.44472 0.0
C557 C 0.88229 0.98278 0.41943 0.0
C558 C 0.88855 0.9789 0.38173 0.0
C559 C 0.91042 0.95635 0.36978 0.0
H560 H 0.29746 0.39601 0.12406 0.0
H561 H 0.36985 0.35591 0.05645 0.0
H562 H 0.32664 0.38207 0.17935 0.0
H563 H 0.39917 0.34222 0.11173 0.0
H564 H 0.43733 0.30603 0.22094 0.0
H565 H 0.40027 0.30896 0.17033 0.0
H566 H 0.37588 0.40622 0.20315 0.0
H567 H 0.41275 0.40342 0.25351 0.0
C568 C 0.31924 0.38346 0.12106 0.0
C569 C 0.33147 0.37716 0.08596 0.0
C570 C 0.33605 0.37576 0.15268 0.0
C571 C 0.36528 0.36132 0.14984 0.0
C572 C 0.37663 0.35316 0.11481 0.0
C573 C 0.35996 0.36116 0.08317 0.0
C574 C 0.42372 0.32784 0.21768 0.0
C575 C 0.42817 0.35459 0.2411 0.0
C576 C 0.40262 0.32955 0.18861 0.0
C577 C 0.38522 0.35781 0.18278 0.0
C578 C 0.38872 0.38398 0.20717 0.0
C579 C 0.41004 0.38245 0.23586 0.0
H580 H 0.63599 0.65348 0.55826 0.0
H581 H 0.71046 0.61591 0.62434 0.0
H582 H 0.60763 0.6676 0.61411 0.0
H583 H 0.68221 0.63021 0.68027 0.0
H584 H 0.5688 0.70172 0.72336 0.0
H585 H 0.60603 0.70068 0.67279 0.0
H586 H 0.63397 0.60427 0.70475 0.0
H587 H 0.59693 0.60519 0.75503 0.0
C588 C 0.6466 0.64906 0.58477 0.0
C589 C 0.67531 0.63345 0.58701 0.0
C590 C 0.63046 0.65726 0.61673 0.0
C591 C 0.64258 0.6497 0.65155 0.0
C592 C 0.6722 0.63604 0.65378 0.0
C593 C 0.68849 0.62814 0.6218 0.0
C594 C 0.58324 0.68052 0.71994 0.0
C595 C 0.5797 0.65341 0.74303 0.0
C596 C 0.60446 0.67991 0.69092 0.0
C597 C 0.62289 0.65241 0.68482 0.0
C598 C 0.62035 0.62597 0.70898 0.0
C599 C 0.59891 0.62639 0.73762 0.0
H600 H 0.68307 0.41372 0.10476 0.0
H601 H 0.643 0.32412 0.06658 0.0
H602 H 0.6557 0.40803 0.16313 0.0
H603 H 0.61521 0.31867 0.12438 0.0
H604 H 0.57885 0.30778 0.23936 0.0
H605 H 0.61639 0.31003 0.18954 0.0
H606 H 0.60313 0.4136 0.18162 0.0
H607 H 0.56642 0.41154 0.23193 0.0
C608 C 0.66868 0.39263 0.10906 0.0
C609 C 0.6651 0.36943 0.08109 0.0
C610 C 0.65288 0.38943 0.14238 0.0
C611 C 0.63295 0.36309 0.14834 0.0
C612 C 0.63063 0.33907 0.121 0.0
C613 C 0.64658 0.34217 0.0878 0.0
C614 C 0.58416 0.33109 0.22723 0.0
C615 C 0.56937 0.35944 0.23952 0.0
C616 C 0.60562 0.33235 0.19855 0.0
C617 C 0.61272 0.36196 0.18139 0.0
C618 C 0.59863 0.39042 0.19449 0.0
C619 C 0.57732 0.3892 0.22324 0.0
H620 H 0.32458 0.58967 0.60692 0.0
H621 H 0.36262 0.68026 0.56884 0.0
H622 H 0.35225 0.5957 0.66501 0.0
H623 H 0.39075 0.68606 0.62637 0.0
H624 H 0.42809 0.69668 0.74127 0.0
H625 H 0.3903 0.69423 0.69173 0.0
H626 H 0.40509 0.59097 0.68249 0.0
H627 H 0.44204 0.59321 0.73245 0.0
C628 C 0.33857 0.61107 0.6112 0.0
C629 C 0.34153 0.63442 0.58331 0.0
C630 C 0.35456 0.61446 0.64436 0.0
C631 C 0.37408 0.64116 0.65023 0.0
C632 C 0.37569 0.66537 0.62305 0.0
C633 C 0.35954 0.66207 0.59 0.0
C634 C 0.42307 0.6734 0.7289 0.0
C635 C 0.43834 0.64518 0.74076 0.0
C636 C 0.40146 0.67202 0.70038 0.0
C637 C 0.39466 0.64243 0.68298 0.0
C638 C 0.40932 0.61412 0.69557 0.0
C639 C 0.43078 0.61546 0.72413 0.0
H640 H 0.87017 0.85374 0.05764 0.0
H641 H 0.79745 0.89323 0.12521 0.0
H642 H 0.89949 0.84011 0.11296 0.0
H643 H 0.82664 0.87938 0.1805 0.0
H644 H 0.91288 0.90266 0.25376 0.0
H645 H 0.87589 0.90454 0.20349 0.0
H646 H 0.90085 0.80705 0.17219 0.0
H647 H 0.93802 0.80502 0.22285 0.0
C648 C 0.86018 0.85883 0.08435 0.0
C649 C 0.83163 0.8747 0.08713 0.0
C650 C 0.87686 0.85086 0.116 0.0
C651 C 0.86544 0.85894 0.15102 0.0
C652 C 0.83609 0.87312 0.15384 0.0
C653 C 0.81928 0.88078 0.12221 0.0
C654 C 0.91027 0.88145 0.23646 0.0
C655 C 0.92856 0.85377 0.24215 0.0
C656 C 0.88888 0.88244 0.20783 0.0
C657 C 0.88548 0.85593 0.18392 0.0
C658 C 0.9031 0.82787 0.19015 0.0
C659 C 0.92425 0.82668 0.21922 0.0
H660 H 0.13852 0.1466 0.56001 0.0
H661 H 0.21207 0.10719 0.62628 0.0
H662 H 0.10983 0.16013 0.61581 0.0
H663 H 0.18358 0.12109 0.68209 0.0
H664 H 0.0989 0.09971 0.75844 0.0
H665 H 0.13527 0.09703 0.70756 0.0
H666 H 0.10896 0.1935 0.67389 0.0
H667 H 0.07234 0.19627 0.72496 0.0
C668 C 0.14878 0.14142 0.58654 0.0
C669 C 0.17743 0.12568 0.58879 0.0
C670 C 0.13248 0.14936 0.61848 0.0
C671 C 0.14438 0.14145 0.65331 0.0
C672 C 0.17373 0.12721 0.65559 0.0
C673 C 0.19016 0.11953 0.62366 0.0
C674 C 0.10111 0.12055 0.74053 0.0
C675 C 0.08251 0.1481 0.74563 0.0
C676 C 0.12214 0.1191 0.71151 0.0
C677 C 0.12491 0.14503 0.68667 0.0
C678 C 0.10715 0.17307 0.69247 0.0
C679 C 0.08632 0.17469 0.72183 0.0
H680 H 0.19199 0.90417 0.1164 0.0
H681 H 0.1473 0.81892 0.07323 0.0
H682 H 0.16433 0.89753 0.17444 0.0
H683 H 0.11913 0.81258 0.13071 0.0
H684 H 0.07694 0.80301 0.24337 0.0
H685 H 0.11682 0.80276 0.19604 0.0
H686 H 0.11133 0.90715 0.1892 0.0
H687 H 0.07227 0.90753 0.23686 0.0
C688 C 0.17676 0.88359 0.11969 0.0
C689 C 0.17161 0.8622 0.09027 0.0
C690 C 0.16073 0.87991 0.15277 0.0
C691 C 0.13899 0.85492 0.15699 0.0
C692 C 0.13578 0.832 0.12858 0.0
C693 C 0.15199 0.83557 0.09558 0.0
C694 C 0.08445 0.82594 0.23201 0.0
C695 C 0.07113 0.85528 0.24379 0.0
C696 C 0.10729 0.82577 0.20481 0.0
C697 C 0.11734 0.85491 0.18877 0.0
C698 C 0.10462 0.88425 0.20134 0.0
C699 C 0.0819 0.88445 0.22851 0.0
H700 H 0.89031 0.09771 0.56091 0.0
H701 H 0.81813 0.15875 0.60479 0.0
H702 H 0.91812 0.10173 0.61853 0.0
H703 H 0.84684 0.16349 0.66271 0.0
H704 H 0.94539 0.08745 0.73627 0.0
H705 H 0.9108 0.08342 0.6839 0.0
H706 H 0.8986 0.18723 0.68443 0.0
H707 H 0.93326 0.19151 0.73721 0.0
C708 C 0.88006 0.11158 0.58306 0.0
C709 C 0.85161 0.12739 0.57839 0.0
C710 C 0.89614 0.11398 0.61607 0.0
C711 C 0.88446 0.13258 0.64524 0.0
C712 C 0.85634 0.14898 0.6406 0.0
C713 C 0.83998 0.1463 0.60748 0.0
C714 C 0.93517 0.10947 0.7256 0.0
C715 C 0.9425 0.13987 0.74074 0.0
C716 C 0.91539 0.10712 0.69549 0.0
C717 C 0.9023 0.13504 0.67989 0.0
C718 C 0.90831 0.16531 0.69602 0.0
C719 C 0.92831 0.16773 0.7261 0.0
loop_
_geom_bond_atom_site_label_1
_geom_bond_atom_site_label_2
_geom_bond_distance
_geom_bond_site_symmetry_2
_ccdc_geom_bond_type
H0 C1 0.949 . S
C1 H0 0.949 . S
C1 C2 1.395 . S
C1 C3 1.391 1_556 S
C2 C1 1.395 . S
C2 C5 1.390 1_556 S
C3 C1 1.391 1_554 S
C3 C7 1.387 . S
C3 C8 1.491 . S
H4 C5 0.950 . S
C5 C2 1.390 1_554 S
C5 H4 0.950 . S
C5 C6 1.378 . S
C6 C5 1.378 . S
C6 C7 1.409 . S
C7 C3 1.387 . S
C7 C6 1.409 . S
C7 H9 0.951 . S
C8 C3 1.491 . S
C8 C10 1.382 1_554 S
C8 C12 1.404 . S
H9 C7 0.951 . S
C10 C8 1.382 1_556 S
C10 C11 1.390 . S
C10 H15 0.949 . S
C11 C10 1.390 . S
C11 C16 1.399 1_556 S
C12 C8 1.404 . S
C12 H13 0.950 . S
C12 C14 1.375 . S
H13 C12 0.950 . S
C14 C12 1.375 . S
C14 C16 1.382 . S
C14 H18 0.950 . S
H15 C10 0.949 . S
C16 C11 1.399 1_554 S
C16 C14 1.382 . S
C16 H17 0.952 . S
H17 C16 0.952 . S
H18 C14 0.950 . S
H19 C20 0.949 . S
C20 H19 0.949 . S
C20 C21 1.395 . S
C20 C22 1.391 . S
C21 C20 1.395 . S
C21 C24 1.390 . S
C22 C20 1.391 . S
C22 C26 1.387 . S
C22 C27 1.491 . S
H23 C24 0.950 . S
C24 C21 1.390 . S
C24 H23 0.950 . S
C24 C25 1.378 . S
C25 C24 1.378 . S
C25 C26 1.409 . S
C26 C22 1.387 . S
C26 C25 1.409 . S
C26 H28 0.951 . S
C27 C22 1.491 . S
C27 C29 1.382 . S
C27 C31 1.404 . S
H28 C26 0.951 . S
C29 C27 1.382 . S
C29 C30 1.390 . S
C29 H34 0.949 . S
C30 C29 1.390 . S
C30 C35 1.399 . S
C31 C27 1.404 . S
C31 H32 0.950 . S
C31 C33 1.375 . S
H32 C31 0.950 . S
C33 C31 1.375 . S
C33 C35 1.382 . S
C33 H37 0.950 . S
H34 C29 0.949 . S
C35 C30 1.399 . S
C35 C33 1.382 . S
C35 H36 0.952 . S
H36 C35 0.952 . S
H37 C33 0.950 . S
H38 C39 0.949 . S
C39 H38 0.949 . S
C39 C40 1.395 . S
C39 C41 1.391 1_556 S
C40 C39 1.395 . S
C40 C43 1.390 1_556 S
C41 C39 1.391 1_554 S
C41 C45 1.387 . S
C41 C46 1.491 . S
H42 C43 0.950 . S
C43 C40 1.390 1_554 S
C43 H42 0.950 . S
C43 C44 1.378 . S
C44 C43 1.378 . S
C44 C45 1.409 . S
C45 C41 1.387 . S
C45 C44 1.409 . S
C45 H47 0.951 . S
C46 C41 1.491 . S
C46 C48 1.382 1_554 S
C46 C50 1.404 . S
H47 C45 0.951 . S
C48 C46 1.382 1_556 S
C48 C49 1.390 . S
C48 H53 0.949 . S
C49 C48 1.390 . S
C49 C54 1.399 . S
C50 C46 1.404 . S
C50 H51 0.950 . S
C50 C52 1.375 . S
H51 C50 0.950 . S
C52 C50 1.375 . S
C52 C54 1.382 1_554 S
C52 H56 0.950 . S
H53 C48 0.949 . S
C54 C49 1.399 . S
C54 C52 1.382 1_556 S
C54 H55 0.952 . S
H55 C54 0.952 . S
H56 C52 0.950 . S
H57 C58 0.949 . S
C58 H57 0.949 . S
C58 C59 1.395 . S
C58 C60 1.391 . S
C59 C58 1.395 . S
C59 C62 1.390 . S
C60 C58 1.391 . S
C60 C64 1.387 . S
C60 C65 1.491 . S
H61 C62 0.950 . S
C62 C59 1.390 . S
C62 H61 0.950 . S
C62 C63 1.378 . S
C63 C62 1.378 . S
C63 C64 1.409 . S
C64 C60 1.387 . S
C64 C63 1.409 . S
C64 H66 0.951 . S
C65 C60 1.491 . S
C65 C67 1.382 . S
C65 C69 1.404 . S
H66 C64 0.951 . S
C67 C65 1.382 . S
C67 C68 1.390 . S
C67 H72 0.949 . S
C68 C67 1.390 . S
C68 C73 1.399 . S
C69 C65 1.404 . S
C69 H70 0.950 . S
C69 C71 1.375 . S
H70 C69 0.950 . S
C71 C69 1.375 . S
C71 C73 1.382 . S
C71 H75 0.950 . S
H72 C67 0.949 . S
C73 C68 1.399 . S
C73 C71 1.382 . S
C73 H74 0.952 . S
H74 C73 0.952 . S
H75 C71 0.950 . S
H76 C77 0.949 . S
C77 H76 0.949 . S
C77 C78 1.395 . S
C77 C79 1.391 1_556 S
C78 C77 1.395 . S
C78 C81 1.390 1_556 S
C79 C77 1.391 1_554 S
C79 C83 1.387 . S
C79 C84 1.491 . S
H80 C81 0.950 . S
C81 C78 1.390 1_554 S
C81 H80 0.950 . S
C81 C82 1.378 . S
C82 C81 1.378 . S
C82 C83 1.409 . S
C83 C79 1.387 . S
C83 C82 1.409 . S
C83 H85 0.951 . S
C84 C79 1.491 . S
C84 C86 1.382 1_554 S
C84 C88 1.404 . S
H85 C83 0.951 . S
C86 C84 1.382 1_556 S
C86 C87 1.390 . S
C86 H91 0.949 . S
C87 C86 1.390 . S
C87 C92 1.399 1_556 S
C88 C84 1.404 . S
C88 H89 0.950 . S
C88 C90 1.375 . S
H89 C88 0.950 . S
C90 C88 1.375 . S
C90 C92 1.382 . S
C90 H94 0.950 . S
H91 C86 0.949 . S
C92 C87 1.399 1_554 S
C92 C90 1.382 . S
C92 H93 0.952 . S
H93 C92 0.952 . S
H94 C90 0.950 . S
H95 C96 0.949 . S
C96 H95 0.949 . S
C96 C97 1.395 . S
C96 C98 1.391 . S
C97 C96 1.395 . S
C97 C100 1.390 . S
C98 C96 1.391 . S
C98 C102 1.387 . S
C98 C103 1.491 . S
H99 C100 0.950 . S
C100 C97 1.390 . S
C100 H99 0.950 . S
C100 C101 1.378 . S
C101 C100 1.378 . S
C101 C102 1.409 . S
C102 C98 1.387 . S
C102 C101 1.409 . S
C102 H104 0.951 . S
C103 C98 1.491 . S
C103 C105 1.382 . S
C103 C107 1.404 . S
H104 C102 0.951 . S
C105 C103 1.382 . S
C105 C106 1.390 . S
C105 H110 0.949 . S
C106 C105 1.390 . S
C106 C111 1.399 . S
C107 C103 1.404 . S
C107 H108 0.950 . S
C107 C109 1.375 . S
H108 C107 0.950 . S
C109 C107 1.375 . S
C109 C111 1.382 . S
C109 H113 0.950 . S
H110 C105 0.949 . S
C111 C106 1.399 . S
C111 C109 1.382 . S
C111 H112 0.952 . S
H112 C111 0.952 . S
H113 C109 0.950 . S
H114 C115 0.949 . S
C115 H114 0.949 . S
C115 C116 1.395 . S
C115 C117 1.391 1_556 S
C116 C115 1.395 . S
C116 C119 1.390 1_556 S
C117 C115 1.391 1_554 S
C117 C121 1.387 . S
C117 C122 1.491 . S
H118 C119 0.950 . S
C119 C116 1.390 1_554 S
C119 H118 0.950 . S
C119 C120 1.378 . S
C120 C119 1.378 . S
C120 C121 1.409 . S
C121 C117 1.387 . S
C121 C120 1.409 . S
C121 H123 0.951 . S
C122 C117 1.491 . S
C122 C124 1.382 1_554 S
C122 C126 1.404 . S
H123 C121 0.951 . S
C124 C122 1.382 1_556 S
C124 C125 1.390 . S
C124 H129 0.949 . S
C125 C124 1.390 . S
C125 C130 1.399 . S
C126 C122 1.404 . S
C126 H127 0.950 . S
C126 C128 1.375 . S
H127 C126 0.950 . S
C128 C126 1.375 . S
C128 C130 1.382 1_554 S
C128 H132 0.950 . S
H129 C124 0.949 . S
C130 C125 1.399 . S
C130 C128 1.382 1_556 S
C130 H131 0.952 . S
H131 C130 0.952 . S
H132 C128 0.950 . S
H133 C134 0.949 . S
C134 H133 0.949 . S
C134 C135 1.395 . S
C134 C136 1.391 . S
C135 C134 1.395 . S
C135 C138 1.390 . S
C136 C134 1.391 . S
C136 C140 1.387 . S
C136 C141 1.491 . S
H137 C138 0.950 . S
C138 C135 1.390 . S
C138 H137 0.950 . S
C138 C139 1.378 . S
C139 C138 1.378 . S
C139 C140 1.409 . S
C140 C136 1.387 . S
C140 C139 1.409 . S
C140 H142 0.951 . S
C141 C136 1.491 . S
C141 C143 1.382 . S
C141 C145 1.404 . S
H142 C140 0.951 . S
C143 C141 1.382 . S
C143 C144 1.390 . S
C143 H148 0.949 . S
C144 C143 1.390 . S
C144 C149 1.399 . S
C145 C141 1.404 . S
C145 H146 0.950 . S
C145 C147 1.375 . S
H146 C145 0.950 . S
C147 C145 1.375 . S
C147 C149 1.382 . S
C147 H151 0.950 . S
H148 C143 0.949 . S
C149 C144 1.399 . S
C149 C147 1.382 . S
C149 H150 0.952 . S
H150 C149 0.952 . S
H151 C147 0.950 . S
Sc152 O155 2.025 . S
Sc152 O162 2.105 1_455 S
Sc152 O165 2.105 . S
Sc152 O168 2.105 . S
Sc152 O171 2.105 1_455 S
Sc153 O155 2.025 . S
Sc153 O163 2.105 1_455 S
Sc153 O167 2.105 . S
Sc153 O169 2.105 . S
Sc153 O173 2.105 1_455 S
Sc154 O155 2.025 . S
Sc154 O164 2.105 1_455 S
Sc154 O166 2.105 . S
Sc154 O170 2.105 . S
Sc154 O172 2.105 1_455 S
O155 Sc152 2.025 . S
O155 Sc153 2.025 . S
O155 Sc154 2.025 . S
C156 O162 1.268 . S
C156 O172 1.268 . S
C157 O163 1.268 . S
C157 O171 1.268 . S
C158 O164 1.268 . S
C158 O173 1.268 . S
C159 O165 1.268 . S
C159 O169 1.268 . S
C160 O166 1.268 . S
C160 O168 1.268 . S
C161 O167 1.268 . S
C161 O170 1.268 . S
O162 Sc152 2.105 1_655 S
O162 C156 1.268 . S
O163 Sc153 2.105 1_655 S
O163 C157 1.268 . S
O164 Sc154 2.105 1_655 S
O164 C158 1.268 . S
O165 Sc152 2.105 . S
O165 C159 1.268 . S
O166 Sc154 2.105 . S
O166 C160 1.268 . S
O167 Sc153 2.105 . S
O167 C161 1.268 . S
O168 Sc152 2.105 . S
O168 C160 1.268 . S
O169 Sc153 2.105 . S
O169 C159 1.268 . S
O170 Sc154 2.105 . S
O170 C161 1.268 . S
O171 Sc152 2.105 1_655 S
O171 C157 1.268 . S
O172 Sc154 2.105 1_655 S
O172 C156 1.268 . S
O173 Sc153 2.105 1_655 S
O173 C158 1.268 . S
Sc174 O177 2.025 . S
Sc174 O184 2.105 . S
Sc174 O187 2.105 1_455 S
Sc174 O190 2.105 1_455 S
Sc174 O193 2.105 . S
Sc175 O177 2.025 . S
Sc175 O185 2.105 . S
Sc175 O189 2.105 1_455 S
Sc175 O191 2.105 1_455 S
Sc175 O195 2.105 . S
Sc176 O177 2.025 . S
Sc176 O186 2.105 . S
Sc176 O188 2.105 1_455 S
Sc176 O192 2.105 1_455 S
Sc176 O194 2.105 . S
O177 Sc174 2.025 . S
O177 Sc175 2.025 . S
O177 Sc176 2.025 . S
C178 O184 1.268 . S
C178 O194 1.268 . S
C179 O185 1.268 . S
C179 O193 1.268 . S
C180 O186 1.268 . S
C180 O195 1.268 . S
C181 O187 1.268 . S
C181 O191 1.268 . S
C182 O188 1.268 . S
C182 O190 1.268 . S
C183 O189 1.268 . S
C183 O192 1.268 . S
O184 Sc174 2.105 . S
O184 C178 1.268 . S
O185 Sc175 2.105 . S
O185 C179 1.268 . S
O186 Sc176 2.105 . S
O186 C180 1.268 . S
O187 Sc174 2.105 1_655 S
O187 C181 1.268 . S
O188 Sc176 2.105 1_655 S
O188 C182 1.268 . S
O189 Sc175 2.105 1_655 S
O189 C183 1.268 . S
O190 Sc174 2.105 1_655 S
O190 C182 1.268 . S
O191 Sc175 2.105 1_655 S
O191 C181 1.268 . S
O192 Sc176 2.105 1_655 S
O192 C183 1.268 . S
O193 Sc174 2.105 . S
O193 C179 1.268 . S
O194 Sc176 2.105 . S
O194 C178 1.268 . S
O195 Sc175 2.105 . S
O195 C180 1.268 . S
Sc196 O199 2.025 . S
Sc196 O206 2.105 . S
Sc196 O209 2.105 . S
Sc196 O212 2.105 . S
Sc196 O215 2.105 . S
Sc197 O199 2.025 . S
Sc197 O207 2.105 . S
Sc197 O211 2.105 . S
Sc197 O213 2.105 . S
Sc197 O217 2.105 . S
Sc198 O199 2.025 . S
Sc198 O208 2.105 . S
Sc198 O210 2.105 . S
Sc198 O214 2.105 . S
Sc198 O216 2.105 . S
O199 Sc196 2.025 . S
O199 Sc197 2.025 . S
O199 Sc198 2.025 . S
C200 O206 1.268 . S
C200 O216 1.268 . S
C201 O207 1.268 . S
C201 O215 1.268 . S
C202 O208 1.268 . S
C202 O217 1.268 . S
C203 O209 1.268 . S
C203 O213 1.268 . S
C204 O210 1.268 . S
C204 O212 1.268 . S
C205 O211 1.268 . S
C205 O214 1.268 . S
O206 Sc196 2.105 . S
O206 C200 1.268 . S
O207 Sc197 2.105 . S
O207 C201 1.268 . S
O208 Sc198 2.105 . S
O208 C202 1.268 . S
O209 Sc196 2.105 . S
O209 C203 1.268 . S
O210 Sc198 2.105 . S
O210 C204 1.268 . S
O211 Sc197 2.105 . S
O211 C205 1.268 . S
O212 Sc196 2.105 . S
O212 C204 1.268 . S
O213 Sc197 2.105 . S
O213 C203 1.268 . S
O214 Sc198 2.105 . S
O214 C205 1.268 . S
O215 Sc196 2.105 . S
O215 C201 1.268 . S
O216 Sc198 2.105 . S
O216 C200 1.268 . S
O217 Sc197 2.105 . S
O217 C202 1.268 . S
Sc218 O221 2.025 . S
Sc218 O228 2.105 . S
Sc218 O231 2.105 . S
Sc218 O234 2.105 . S
Sc218 O237 2.105 . S
Sc219 O221 2.025 . S
Sc219 O229 2.105 . S
Sc219 O233 2.105 . S
Sc219 O235 2.105 . S
Sc219 O239 2.105 . S
Sc220 O221 2.025 . S
Sc220 O230 2.105 . S
Sc220 O232 2.105 . S
Sc220 O236 2.105 . S
Sc220 O238 2.105 . S
O221 Sc218 2.025 . S
O221 Sc219 2.025 . S
O221 Sc220 2.025 . S
C222 O228 1.268 . S
C222 O238 1.268 . S
C223 O229 1.268 . S
C223 O237 1.268 . S
C224 O230 1.268 . S
C224 O239 1.268 . S
C225 O231 1.268 . S
C225 O235 1.268 . S
C226 O232 1.268 . S
C226 O234 1.268 . S
C227 O233 1.268 . S
C227 O236 1.268 . S
O228 Sc218 2.105 . S
O228 C222 1.268 . S
O229 Sc219 2.105 . S
O229 C223 1.268 . S
O230 Sc220 2.105 . S
O230 C224 1.268 . S
O231 Sc218 2.105 . S
O231 C225 1.268 . S
O232 Sc220 2.105 . S
O232 C226 1.268 . S
O233 Sc219 2.105 . S
O233 C227 1.268 . S
O234 Sc218 2.105 . S
O234 C226 1.268 . S
O235 Sc219 2.105 . S
O235 C225 1.268 . S
O236 Sc220 2.105 . S
O236 C227 1.268 . S
O237 Sc218 2.105 . S
O237 C223 1.268 . S
O238 Sc220 2.105 . S
O238 C222 1.268 . S
O239 Sc219 2.105 . S
O239 C224 1.268 . S
H240 C248 0.950 . S
H241 C253 0.950 . S
H242 C250 0.950 . S
H243 C252 0.950 . S
H244 C254 0.950 . S
H245 C256 0.950 . S
H246 C258 0.950 . S
H247 C259 0.950 . S
C248 H240 0.950 . S
C248 C249 1.386 . S
C248 C250 1.391 . S
C249 C248 1.386 . S
C249 C253 1.393 . S
C250 H242 0.950 . S
C250 C248 1.391 . S
C250 C251 1.400 . S
C251 C250 1.400 . S
C251 C252 1.398 . S
C251 C257 1.491 . S
C252 H243 0.950 . S
C252 C251 1.398 . S
C252 C253 1.391 . S
C253 H241 0.950 . S
C253 C249 1.393 . S
C253 C252 1.391 . S
C254 H244 0.950 . S
C254 C255 1.386 . S
C254 C256 1.391 . S
C255 C254 1.386 . S
C255 C259 1.393 . S
C256 H245 0.950 . S
C256 C254 1.391 . S
C256 C257 1.400 . S
C257 C251 1.491 . S
C257 C256 1.400 . S
C257 C258 1.398 . S
C258 H246 0.950 . S
C258 C257 1.398 . S
C258 C259 1.391 . S
C259 H247 0.950 . S
C259 C255 1.393 . S
C259 C258 1.391 . S
H260 C268 0.950 . S
H261 C273 0.950 . S
H262 C270 0.950 . S
H263 C272 0.950 . S
H264 C274 0.950 . S
H265 C276 0.950 . S
H266 C278 0.950 . S
H267 C279 0.950 . S
C268 H260 0.950 . S
C268 C269 1.386 . S
C268 C270 1.391 . S
C269 C268 1.386 . S
C269 C273 1.393 . S
C270 H262 0.950 . S
C270 C268 1.391 . S
C270 C271 1.400 . S
C271 C270 1.400 . S
C271 C272 1.398 . S
C271 C277 1.491 . S
C272 H263 0.950 . S
C272 C271 1.398 . S
C272 C273 1.391 . S
C273 H261 0.950 . S
C273 C269 1.393 . S
C273 C272 1.391 . S
C274 H264 0.950 . S
C274 C275 1.386 . S
C274 C276 1.391 . S
C275 C274 1.386 . S
C275 C279 1.393 . S
C276 H265 0.950 . S
C276 C274 1.391 . S
C276 C277 1.400 . S
C277 C271 1.491 . S
C277 C276 1.400 . S
C277 C278 1.398 . S
C278 H266 0.950 . S
C278 C277 1.398 . S
C278 C279 1.391 . S
C279 H267 0.950 . S
C279 C275 1.393 . S
C279 C278 1.391 . S
H280 C288 0.950 . S
H281 C293 0.950 1_554 S
H282 C290 0.950 . S
H283 C292 0.950 . S
H284 C294 0.950 . S
H285 C296 0.950 . S
H286 C298 0.950 . S
H287 C299 0.950 . S
C288 H280 0.950 . S
C288 C289 1.386 . S
C288 C290 1.391 . S
C289 C288 1.386 . S
C289 C293 1.393 . S
C290 H282 0.950 . S
C290 C288 1.391 . S
C290 C291 1.400 . S
C291 C290 1.400 . S
C291 C292 1.398 . S
C291 C297 1.491 . S
C292 H283 0.950 . S
C292 C291 1.398 . S
C292 C293 1.391 . S
C293 H281 0.950 1_556 S
C293 C289 1.393 . S
C293 C292 1.391 . S
C294 H284 0.950 . S
C294 C295 1.386 . S
C294 C296 1.391 . S
C295 C294 1.386 . S
C295 C299 1.393 . S
C296 H285 0.950 . S
C296 C294 1.391 . S
C296 C297 1.400 . S
C297 C291 1.491 . S
C297 C296 1.400 . S
C297 C298 1.398 . S
C298 H286 0.950 . S
C298 C297 1.398 . S
C298 C299 1.391 . S
C299 H287 0.950 . S
C299 C295 1.393 . S
C299 C298 1.391 . S
H300 C308 0.950 . S
H301 C313 0.950 . S
H302 C310 0.950 . S
H303 C312 0.950 . S
H304 C314 0.950 . S
H305 C316 0.950 . S
H306 C318 0.950 . S
H307 C319 0.950 . S
C308 H300 0.950 . S
C308 C309 1.386 . S
C308 C310 1.391 . S
C309 C308 1.386 . S
C309 C313 1.393 . S
C310 H302 0.950 . S
C310 C308 1.391 . S
C310 C311 1.400 . S
C311 C310 1.400 . S
C311 C312 1.398 . S
C311 C317 1.491 . S
C312 H303 0.950 . S
C312 C311 1.398 . S
C312 C313 1.391 . S
C313 H301 0.950 . S
C313 C309 1.393 . S
C313 C312 1.391 . S
C314 H304 0.950 . S
C314 C315 1.386 . S
C314 C316 1.391 . S
C315 C314 1.386 . S
C315 C319 1.393 . S
C316 H305 0.950 . S
C316 C314 1.391 . S
C316 C317 1.400 . S
C317 C311 1.491 . S
C317 C316 1.400 . S
C317 C318 1.398 . S
C318 H306 0.950 . S
C318 C317 1.398 . S
C318 C319 1.391 . S
C319 H307 0.950 . S
C319 C315 1.393 . S
C319 C318 1.391 . S
H320 C328 0.950 . S
H321 C333 0.950 . S
H322 C330 0.950 . S
H323 C332 0.950 . S
H324 C334 0.950 . S
H325 C336 0.950 . S
H326 C338 0.950 . S
H327 C339 0.950 . S
C328 H320 0.950 . S
C328 C329 1.386 . S
C328 C330 1.391 . S
C329 C328 1.386 . S
C329 C333 1.393 . S
C330 H322 0.950 . S
C330 C328 1.391 . S
C330 C331 1.400 . S
C331 C330 1.400 . S
C331 C332 1.398 . S
C331 C337 1.491 . S
C332 H323 0.950 . S
C332 C331 1.398 . S
C332 C333 1.391 . S
C333 H321 0.950 . S
C333 C329 1.393 . S
C333 C332 1.391 . S
C334 H324 0.950 . S
C334 C335 1.386 . S
C334 C336 1.391 . S
C335 C334 1.386 . S
C335 C339 1.393 . S
C336 H325 0.950 . S
C336 C334 1.391 . S
C336 C337 1.400 . S
C337 C331 1.491 . S
C337 C336 1.400 . S
C337 C338 1.398 . S
C338 H326 0.950 . S
C338 C337 1.398 . S
C338 C339 1.391 . S
C339 H327 0.950 . S
C339 C335 1.393 . S
C339 C338 1.391 . S
H340 C348 0.950 . S
H341 C353 0.950 . S
H342 C350 0.950 . S
H343 C352 0.950 . S
H344 C354 0.950 . S
H345 C356 0.950 . S
H346 C358 0.950 . S
H347 C359 0.950 . S
C348 H340 0.950 . S
C348 C349 1.386 . S
C348 C350 1.391 . S
C349 C348 1.386 . S
C349 C353 1.393 . S
C350 H342 0.950 . S
C350 C348 1.391 . S
C350 C351 1.400 . S
C351 C350 1.400 . S
C351 C352 1.398 . S
C351 C357 1.491 . S
C352 H343 0.950 . S
C352 C351 1.398 . S
C352 C353 1.391 . S
C353 H341 0.950 . S
C353 C349 1.393 . S
C353 C352 1.391 . S
C354 H344 0.950 . S
C354 C355 1.386 . S
C354 C356 1.391 . S
C355 C354 1.386 . S
C355 C359 1.393 . S
C356 H345 0.950 . S
C356 C354 1.391 . S
C356 C357 1.400 . S
C357 C351 1.491 . S
C357 C356 1.400 . S
C357 C358 1.398 . S
C358 H346 0.950 . S
C358 C357 1.398 . S
C358 C359 1.391 . S
C359 H347 0.950 . S
C359 C355 1.393 . S
C359 C358 1.391 . S
H360 C368 0.950 . S
H361 C373 0.950 . S
H362 C370 0.950 . S
H363 C372 0.950 . S
H364 C374 0.950 . S
H365 C376 0.950 . S
H366 C378 0.950 . S
H367 C379 0.950 . S
C368 H360 0.950 . S
C368 C369 1.386 . S
C368 C370 1.391 . S
C369 C368 1.386 . S
C369 C373 1.393 . S
C370 H362 0.950 . S
C370 C368 1.391 . S
C370 C371 1.400 . S
C371 C370 1.400 . S
C371 C372 1.398 . S
C371 C377 1.491 . S
C372 H363 0.950 . S
C372 C371 1.398 . S
C372 C373 1.391 . S
C373 H361 0.950 . S
C373 C369 1.393 . S
C373 C372 1.391 . S
C374 H364 0.950 . S
C374 C375 1.386 . S
C374 C376 1.391 . S
C375 C374 1.386 . S
C375 C379 1.393 . S
C376 H365 0.950 . S
C376 C374 1.391 . S
C376 C377 1.400 . S
C377 C371 1.491 . S
C377 C376 1.400 . S
C377 C378 1.398 . S
C378 H366 0.950 . S
C378 C377 1.398 . S
C378 C379 1.391 . S
C379 H367 0.950 . S
C379 C375 1.393 . S
C379 C378 1.391 . S
H380 C388 0.950 . S
H381 C393 0.950 . S
H382 C390 0.950 . S
H383 C392 0.950 . S
H384 C394 0.950 . S
H385 C396 0.950 . S
H386 C398 0.950 . S
H387 C399 0.950 . S
C388 H380 0.950 . S
C388 C389 1.386 . S
C388 C390 1.391 . S
C389 C388 1.386 . S
C389 C393 1.393 . S
C390 H382 0.950 . S
C390 C388 1.391 . S
C390 C391 1.400 . S
C391 C390 1.400 . S
C391 C392 1.398 . S
C391 C397 1.491 . S
C392 H383 0.950 . S
C392 C391 1.398 . S
C392 C393 1.391 . S
C393 H381 0.950 . S
C393 C389 1.393 . S
C393 C392 1.391 . S
C394 H384 0.950 . S
C394 C395 1.386 . S
C394 C396 1.391 . S
C395 C394 1.386 . S
C395 C399 1.393 . S
C396 H385 0.950 . S
C396 C394 1.391 . S
C396 C397 1.400 . S
C397 C391 1.491 . S
C397 C396 1.400 . S
C397 C398 1.398 . S
C398 H386 0.950 . S
C398 C397 1.398 . S
C398 C399 1.391 . S
C399 H387 0.950 . S
C399 C395 1.393 . S
C399 C398 1.391 . S
H400 C408 0.950 . S
H401 C413 0.950 1_554 S
H402 C410 0.950 . S
H403 C412 0.950 . S
H404 C414 0.950 . S
H405 C416 0.950 . S
H406 C418 0.950 . S
H407 C419 0.950 . S
C408 H400 0.950 . S
C408 C409 1.386 . S
C408 C410 1.391 . S
C409 C408 1.386 . S
C409 C413 1.393 . S
C410 H402 0.950 . S
C410 C408 1.391 . S
C410 C411 1.400 . S
C411 C410 1.400 . S
C411 C412 1.398 . S
C411 C417 1.491 . S
C412 H403 0.950 . S
C412 C411 1.398 . S
C412 C413 1.391 . S
C413 H401 0.950 1_556 S
C413 C409 1.393 . S
C413 C412 1.391 . S
C414 H404 0.950 . S
C414 C415 1.386 . S
C414 C416 1.391 . S
C415 C414 1.386 . S
C415 C419 1.393 . S
C416 H405 0.950 . S
C416 C414 1.391 . S
C416 C417 1.400 . S
C417 C411 1.491 . S
C417 C416 1.400 . S
C417 C418 1.398 . S
C418 H406 0.950 . S
C418 C417 1.398 . S
C418 C419 1.391 . S
C419 H407 0.950 . S
C419 C415 1.393 . S
C419 C418 1.391 . S
H420 C428 0.950 . S
H421 C433 0.950 . S
H422 C430 0.950 . S
H423 C432 0.950 . S
H424 C434 0.950 . S
H425 C436 0.950 . S
H426 C438 0.950 . S
H427 C439 0.950 . S
C428 H420 0.950 . S
C428 C429 1.386 . S
C428 C430 1.391 . S
C429 C428 1.386 . S
C429 C433 1.393 . S
C430 H422 0.950 . S
C430 C428 1.391 . S
C430 C431 1.400 . S
C431 C430 1.400 . S
C431 C432 1.398 . S
C431 C437 1.491 . S
C432 H423 0.950 . S
C432 C431 1.398 . S
C432 C433 1.391 . S
C433 H421 0.950 . S
C433 C429 1.393 . S
C433 C432 1.391 . S
C434 H424 0.950 . S
C434 C435 1.386 . S
C434 C436 1.391 . S
C435 C434 1.386 . S
C435 C439 1.393 . S
C436 H425 0.950 . S
C436 C434 1.391 . S
C436 C437 1.400 . S
C437 C431 1.491 . S
C437 C436 1.400 . S
C437 C438 1.398 . S
C438 H426 0.950 . S
C438 C437 1.398 . S
C438 C439 1.391 . S
C439 H427 0.950 . S
C439 C435 1.393 . S
C439 C438 1.391 . S
H440 C448 0.950 . S
H441 C453 0.950 . S
H442 C450 0.950 . S
H443 C452 0.950 . S
H444 C454 0.950 . S
H445 C456 0.950 . S
H446 C458 0.950 . S
H447 C459 0.950 . S
C448 H440 0.950 . S
C448 C449 1.386 . S
C448 C450 1.391 . S
C449 C448 1.386 . S
C449 C453 1.393 . S
C450 H442 0.950 . S
C450 C448 1.391 . S
C450 C451 1.400 . S
C451 C450 1.400 . S
C451 C452 1.398 . S
C451 C457 1.491 . S
C452 H443 0.950 . S
C452 C451 1.398 . S
C452 C453 1.391 . S
C453 H441 0.950 . S
C453 C449 1.393 . S
C453 C452 1.391 . S
C454 H444 0.950 . S
C454 C455 1.386 . S
C454 C456 1.391 . S
C455 C454 1.386 . S
C455 C459 1.393 . S
C456 H445 0.950 . S
C456 C454 1.391 . S
C456 C457 1.400 . S
C457 C451 1.491 . S
C457 C456 1.400 . S
C457 C458 1.398 . S
C458 H446 0.950 . S
C458 C457 1.398 . S
C458 C459 1.391 . S
C459 H447 0.950 . S
C459 C455 1.393 . S
C459 C458 1.391 . S
H460 C468 0.950 . S
H461 C473 0.950 . S
H462 C470 0.950 . S
H463 C472 0.950 . S
H464 C474 0.950 . S
H465 C476 0.950 . S
H466 C478 0.950 . S
H467 C479 0.950 . S
C468 H460 0.950 . S
C468 C469 1.386 . S
C468 C470 1.391 . S
C469 C468 1.386 . S
C469 C473 1.393 . S
C470 H462 0.950 . S
C470 C468 1.391 . S
C470 C471 1.400 . S
C471 C470 1.400 . S
C471 C472 1.398 . S
C471 C477 1.491 . S
C472 H463 0.950 . S
C472 C471 1.398 . S
C472 C473 1.391 . S
C473 H461 0.950 . S
C473 C469 1.393 . S
C473 C472 1.391 . S
C474 H464 0.950 . S
C474 C475 1.386 . S
C474 C476 1.391 . S
C475 C474 1.386 . S
C475 C479 1.393 . S
C476 H465 0.950 . S
C476 C474 1.391 . S
C476 C477 1.400 . S
C477 C471 1.491 . S
C477 C476 1.400 . S
C477 C478 1.398 . S
C478 H466 0.950 . S
C478 C477 1.398 . S
C478 C479 1.391 . S
C479 H467 0.950 . S
C479 C475 1.393 . S
C479 C478 1.391 . S
H480 C488 0.950 . S
H481 C493 0.950 1_554 S
H482 C490 0.950 . S
H483 C492 0.950 . S
H484 C494 0.950 . S
H485 C496 0.950 . S
H486 C498 0.950 . S
H487 C499 0.950 . S
C488 H480 0.950 . S
C488 C489 1.386 . S
C488 C490 1.391 . S
C489 C488 1.386 . S
C489 C493 1.393 . S
C490 H482 0.950 . S
C490 C488 1.391 . S
C490 C491 1.400 . S
C491 C490 1.400 . S
C491 C492 1.398 . S
C491 C497 1.491 . S
C492 H483 0.950 . S
C492 C491 1.398 . S
C492 C493 1.391 . S
C493 H481 0.950 1_556 S
C493 C489 1.393 . S
C493 C492 1.391 . S
C494 H484 0.950 . S
C494 C495 1.386 . S
C494 C496 1.391 . S
C495 C494 1.386 . S
C495 C499 1.393 . S
C496 H485 0.950 . S
C496 C494 1.391 . S
C496 C497 1.400 1_545 S
C497 C491 1.491 . S
C497 C496 1.400 1_565 S
C497 C498 1.398 . S
C498 H486 0.950 . S
C498 C497 1.398 . S
C498 C499 1.391 1_565 S
C499 H487 0.950 . S
C499 C495 1.393 . S
C499 C498 1.391 1_545 S
H500 C508 0.950 . S
H501 C513 0.950 . S
H502 C510 0.950 1_565 S
H503 C512 0.950 . S
H504 C514 0.950 . S
H505 C516 0.950 . S
H506 C518 0.950 . S
H507 C519 0.950 . S
C508 H500 0.950 . S
C508 C509 1.386 . S
C508 C510 1.391 . S
C509 C508 1.386 . S
C509 C513 1.393 . S
C510 H502 0.950 1_545 S
C510 C508 1.391 . S
C510 C511 1.400 . S
C511 C510 1.400 . S
C511 C512 1.398 . S
C511 C517 1.491 . S
C512 H503 0.950 . S
C512 C511 1.398 . S
C512 C513 1.391 . S
C513 H501 0.950 . S
C513 C509 1.393 . S
C513 C512 1.391 . S
C514 H504 0.950 . S
C514 C515 1.386 . S
C514 C516 1.391 1_565 S
C515 C514 1.386 . S
C515 C519 1.393 . S
C516 H505 0.950 . S
C516 C514 1.391 1_545 S
C516 C517 1.400 . S
C517 C511 1.491 . S
C517 C516 1.400 . S
C517 C518 1.398 1_545 S
C518 H506 0.950 . S
C518 C517 1.398 1_565 S
C518 C519 1.391 . S
C519 H507 0.950 . S
C519 C515 1.393 . S
C519 C518 1.391 . S
H520 C528 0.950 1_554 S
H521 C533 0.950 . S
H522 C530 0.950 . S
H523 C532 0.950 . S
H524 C534 0.950 . S
H525 C536 0.950 . S
H526 C538 0.950 1_565 S
H527 C539 0.950 . S
C528 H520 0.950 1_556 S
C528 C529 1.386 . S
C528 C530 1.391 . S
C529 C528 1.386 . S
C529 C533 1.393 . S
C530 H522 0.950 . S
C530 C528 1.391 . S
C530 C531 1.400 . S
C531 C530 1.400 . S
C531 C532 1.398 . S
C531 C537 1.491 . S
C532 H523 0.950 . S
C532 C531 1.398 . S
C532 C533 1.391 . S
C533 H521 0.950 . S
C533 C529 1.393 . S
C533 C532 1.391 . S
C534 H524 0.950 . S
C534 C535 1.386 . S
C534 C536 1.391 . S
C535 C534 1.386 . S
C535 C539 1.393 . S
C536 H525 0.950 . S
C536 C534 1.391 . S
C536 C537 1.400 1_545 S
C537 C531 1.491 . S
C537 C536 1.400 1_565 S
C537 C538 1.398 1_565 S
C538 H526 0.950 1_545 S
C538 C537 1.398 1_545 S
C538 C539 1.391 . S
C539 H527 0.950 . S
C539 C535 1.393 . S
C539 C538 1.391 . S
H540 C548 0.950 . S
H541 C553 0.950 . S
H542 C550 0.950 1_565 S
H543 C552 0.950 . S
H544 C554 0.940 1_545 S
H545 C556 0.950 . S
H546 C558 0.950 . S
H547 C559 0.950 . S
C548 H540 0.950 . S
C548 C549 1.386 . S
C548 C550 1.391 . S
C549 C548 1.386 . S
C549 C553 1.393 . S
C550 H542 0.950 1_545 S
C550 C548 1.391 . S
C550 C551 1.400 . S
C551 C550 1.400 . S
C551 C552 1.398 . S
C551 C557 1.491 . S
C552 H543 0.950 . S
C552 C551 1.398 . S
C552 C553 1.391 . S
C553 H541 0.950 . S
C553 C549 1.393 . S
C553 C552 1.391 . S
C554 H544 0.940 1_565 S
C554 C555 1.386 . S
C554 C556 1.391 1_565 S
C555 C554 1.386 . S
C555 C559 1.393 . S
C556 H545 0.950 . S
C556 C554 1.391 1_545 S
C556 C557 1.400 . S
C557 C551 1.491 . S
C557 C556 1.400 . S
C557 C558 1.398 1_545 S
C558 H546 0.950 . S
C558 C557 1.398 1_565 S
C558 C559 1.391 . S
C559 H547 0.950 . S
C559 C555 1.393 . S
C559 C558 1.391 . S
H560 C568 0.950 . S
H561 C573 0.950 . S
H562 C570 0.950 . S
H563 C572 0.950 . S
H564 C574 0.950 . S
H565 C576 0.950 . S
H566 C578 0.950 . S
H567 C579 0.950 . S
C568 H560 0.950 . S
C568 C569 1.386 . S
C568 C570 1.391 . S
C569 C568 1.386 . S
C569 C573 1.393 . S
C570 H562 0.950 . S
C570 C568 1.391 . S
C570 C571 1.400 . S
C571 C570 1.400 . S
C571 C572 1.398 . S
C571 C577 1.491 . S
C572 H563 0.950 . S
C572 C571 1.398 . S
C572 C573 1.391 . S
C573 H561 0.950 . S
C573 C569 1.393 . S
C573 C572 1.391 . S
C574 H564 0.950 . S
C574 C575 1.386 . S
C574 C576 1.391 . S
C575 C574 1.386 . S
C575 C579 1.393 . S
C576 H565 0.950 . S
C576 C574 1.391 . S
C576 C577 1.400 . S
C577 C571 1.491 . S
C577 C576 1.400 . S
C577 C578 1.398 . S
C578 H566 0.950 . S
C578 C577 1.398 . S
C578 C579 1.391 . S
C579 H567 0.950 . S
C579 C575 1.393 . S
C579 C578 1.391 . S
H580 C588 0.950 . S
H581 C593 0.950 . S
H582 C590 0.950 . S
H583 C592 0.950 . S
H584 C594 0.950 . S
H585 C596 0.950 . S
H586 C598 0.950 . S
H587 C599 0.950 . S
C588 H580 0.950 . S
C588 C589 1.386 . S
C588 C590 1.391 . S
C589 C588 1.386 . S
C589 C593 1.393 . S
C590 H582 0.950 . S
C590 C588 1.391 . S
C590 C591 1.400 . S
C591 C590 1.400 . S
C591 C592 1.398 . S
C591 C597 1.491 . S
C592 H583 0.950 . S
C592 C591 1.398 . S
C592 C593 1.391 . S
C593 H581 0.950 . S
C593 C589 1.393 . S
C593 C592 1.391 . S
C594 H584 0.950 . S
C594 C595 1.386 . S
C594 C596 1.391 . S
C595 C594 1.386 . S
C595 C599 1.393 . S
C596 H585 0.950 . S
C596 C594 1.391 . S
C596 C597 1.400 . S
C597 C591 1.491 . S
C597 C596 1.400 . S
C597 C598 1.398 . S
C598 H586 0.950 . S
C598 C597 1.398 . S
C598 C599 1.391 . S
C599 H587 0.950 . S
C599 C595 1.393 . S
C599 C598 1.391 . S
H600 C608 0.950 . S
H601 C613 0.950 . S
H602 C610 0.950 . S
H603 C612 0.950 . S
H604 C614 0.950 . S
H605 C616 0.950 . S
H606 C618 0.950 . S
H607 C619 0.950 . S
C608 H600 0.950 . S
C608 C609 1.386 . S
C608 C610 1.391 . S
C609 C608 1.386 . S
C609 C613 1.393 . S
C610 H602 0.950 . S
C610 C608 1.391 . S
C610 C611 1.400 . S
C611 C610 1.400 . S
C611 C612 1.398 . S
C611 C617 1.491 . S
C612 H603 0.950 . S
C612 C611 1.398 . S
C612 C613 1.391 . S
C613 H601 0.950 . S
C613 C609 1.393 . S
C613 C612 1.391 . S
C614 H604 0.950 . S
C614 C615 1.386 . S
C614 C616 1.391 . S
C615 C614 1.386 . S
C615 C619 1.393 . S
C616 H605 0.950 . S
C616 C614 1.391 . S
C616 C617 1.400 . S
C617 C611 1.491 . S
C617 C616 1.400 . S
C617 C618 1.398 . S
C618 H606 0.950 . S
C618 C617 1.398 . S
C618 C619 1.391 . S
C619 H607 0.950 . S
C619 C615 1.393 . S
C619 C618 1.391 . S
H620 C628 0.950 . S
H621 C633 0.950 . S
H622 C630 0.950 . S
H623 C632 0.950 . S
H624 C634 0.950 . S
H625 C636 0.950 . S
H626 C638 0.950 . S
H627 C639 0.950 . S
C628 H620 0.950 . S
C628 C629 1.386 . S
C628 C630 1.391 . S
C629 C628 1.386 . S
C629 C633 1.393 . S
C630 H622 0.950 . S
C630 C628 1.391 . S
C630 C631 1.400 . S
C631 C630 1.400 . S
C631 C632 1.398 . S
C631 C637 1.491 . S
C632 H623 0.950 . S
C632 C631 1.398 . S
C632 C633 1.391 . S
C633 H621 0.950 . S
C633 C629 1.393 . S
C633 C632 1.391 . S
C634 H624 0.950 . S
C634 C635 1.386 . S
C634 C636 1.391 . S
C635 C634 1.386 . S
C635 C639 1.393 . S
C636 H625 0.950 . S
C636 C634 1.391 . S
C636 C637 1.400 . S
C637 C631 1.491 . S
C637 C636 1.400 . S
C637 C638 1.398 . S
C638 H626 0.950 . S
C638 C637 1.398 . S
C638 C639 1.391 . S
C639 H627 0.950 . S
C639 C635 1.393 . S
C639 C638 1.391 . S
H640 C648 0.950 . S
H641 C653 0.950 . S
H642 C650 0.950 . S
H643 C652 0.950 . S
H644 C654 0.950 . S
H645 C656 0.950 . S
H646 C658 0.950 . S
H647 C659 0.950 . S
C648 H640 0.950 . S
C648 C649 1.386 . S
C648 C650 1.391 . S
C649 C648 1.386 . S
C649 C653 1.393 . S
C650 H642 0.950 . S
C650 C648 1.391 . S
C650 C651 1.400 . S
C651 C650 1.400 . S
C651 C652 1.398 . S
C651 C657 1.491 . S
C652 H643 0.950 . S
C652 C651 1.398 . S
C652 C653 1.391 . S
C653 H641 0.950 . S
C653 C649 1.393 . S
C653 C652 1.391 . S
C654 H644 0.950 . S
C654 C655 1.386 . S
C654 C656 1.391 . S
C655 C654 1.386 . S
C655 C659 1.393 . S
C656 H645 0.950 . S
C656 C654 1.391 . S
C656 C657 1.400 . S
C657 C651 1.491 . S
C657 C656 1.400 . S
C657 C658 1.398 . S
C658 H646 0.950 . S
C658 C657 1.398 . S
C658 C659 1.391 . S
C659 H647 0.950 . S
C659 C655 1.393 . S
C659 C658 1.391 . S
H660 C668 0.950 . S
H661 C673 0.950 . S
H662 C670 0.950 . S
H663 C672 0.950 . S
H664 C674 0.950 . S
H665 C676 0.950 . S
H666 C678 0.950 . S
H667 C679 0.950 . S
C668 H660 0.950 . S
C668 C669 1.386 . S
C668 C670 1.391 . S
C669 C668 1.386 . S
C669 C673 1.393 . S
C670 H662 0.950 . S
C670 C668 1.391 . S
C670 C671 1.400 . S
C671 C670 1.400 . S
C671 C672 1.398 . S
C671 C677 1.491 . S
C672 H663 0.950 . S
C672 C671 1.398 . S
C672 C673 1.391 . S
C673 H661 0.950 . S
C673 C669 1.393 . S
C673 C672 1.391 . S
C674 H664 0.950 . S
C674 C675 1.386 . S
C674 C676 1.391 . S
C675 C674 1.386 . S
C675 C679 1.393 . S
C676 H665 0.950 . S
C676 C674 1.391 . S
C676 C677 1.400 . S
C677 C671 1.491 . S
C677 C676 1.400 . S
C677 C678 1.398 . S
C678 H666 0.950 . S
C678 C677 1.398 . S
C678 C679 1.391 . S
C679 H667 0.950 . S
C679 C675 1.393 . S
C679 C678 1.391 . S
H680 C688 0.950 . S
H681 C693 0.950 . S
H682 C690 0.950 . S
H683 C692 0.950 . S
H684 C694 0.950 . S
H685 C696 0.950 . S
H686 C698 0.950 . S
H687 C699 0.950 . S
C688 H680 0.950 . S
C688 C689 1.386 . S
C688 C690 1.391 . S
C689 C688 1.386 . S
C689 C693 1.393 . S
C690 H682 0.950 . S
C690 C688 1.391 . S
C690 C691 1.400 . S
C691 C690 1.400 . S
C691 C692 1.398 . S
C691 C697 1.491 . S
C692 H683 0.950 . S
C692 C691 1.398 . S
C692 C693 1.391 . S
C693 H681 0.950 . S
C693 C689 1.393 . S
C693 C692 1.391 . S
C694 H684 0.950 . S
C694 C695 1.386 . S
C694 C696 1.391 . S
C695 C694 1.386 . S
C695 C699 1.393 . S
C696 H685 0.950 . S
C696 C694 1.391 . S
C696 C697 1.400 . S
C697 C691 1.491 . S
C697 C696 1.400 . S
C697 C698 1.398 . S
C698 H686 0.950 . S
C698 C697 1.398 . S
C698 C699 1.391 . S
C699 H687 0.950 . S
C699 C695 1.393 . S
C699 C698 1.391 . S
H700 C708 0.950 . S
H701 C713 0.950 . S
H702 C710 0.950 . S
H703 C712 0.950 . S
H704 C714 0.950 . S
H705 C716 0.950 . S
H706 C718 0.950 . S
H707 C719 0.950 . S
C708 H700 0.950 . S
C708 C709 1.386 . S
C708 C710 1.391 . S
C709 C708 1.386 . S
C709 C713 1.393 . S
C710 H702 0.950 . S
C710 C708 1.391 . S
C710 C711 1.400 . S
C711 C710 1.400 . S
C711 C712 1.398 . S
C711 C717 1.491 . S
C712 H703 0.950 . S
C712 C711 1.398 . S
C712 C713 1.391 . S
C713 H701 0.950 . S
C713 C709 1.393 . S
C713 C712 1.391 . S
C714 H704 0.950 . S
C714 C715 1.386 . S
C714 C716 1.391 . S
C715 C714 1.386 . S
C715 C719 1.393 . S
C716 H705 0.950 . S
C716 C714 1.391 . S
C716 C717 1.400 . S
C717 C711 1.491 . S
C717 C716 1.400 . S
C717 C718 1.398 . S
C718 H706 0.950 . S
C718 C717 1.398 . S
C718 C719 1.391 . S
C719 H707 0.950 . S
C719 C715 1.393 . S
C719 C718 1.391 . S
C249 C11 1.485 . S
C255 C178 1.531 . S
C275 C156 1.543 . S
C269 C30 1.455 . S
C295 C182 1.548 . S
C289 C49 1.407 . S
C315 C160 1.532 . S
C309 C68 1.368 . S
C335 C222 1.548 . S
C329 C87 1.461 . S
C355 C200 1.547 . S
C349 C106 1.457 . S
C369 C125 1.384 . S
C375 C226 1.532 . S
C395 C204 1.542 . S
C389 C144 1.381 . S
C409 C2 1.544 . S
C415 C227 1.571 . S
C435 C205 1.579 . S
C429 C21 1.528 . S
C449 C40 1.526 . S
C455 C224 1.579 . S
C469 C59 1.547 . S
C475 C202 1.570 . S
C495 C183 1.571 . S
C489 C78 1.543 . S
C509 C97 1.526 . S
C515 C161 1.581 . S
C535 C180 1.572 . S
C529 C116 1.539 . S
C555 C158 1.574 . S
C549 C135 1.542 . S
C575 C201 1.508 . S
C569 C6 1.526 . S
C595 C223 1.510 . S
C589 C25 1.524 . S
C609 C44 1.513 . S
C615 C203 1.520 . S
C635 C225 1.516 . S
C629 C63 1.517 . S
C655 C157 1.520 . S
C649 C82 1.519 . S
C669 C101 1.520 . S
C675 C179 1.516 . S
C689 C120 1.513 . S
C695 C159 1.520 . S
C709 C139 1.522 . S
C715 C181 1.510 . S
