# Generated by pormake.
# Topology ssc, (4,4)-cn, num edge types: 1
# Building blocks:
#     Node 0, Type 0, BuildingBlock: ESEHIV_clean_sbu_0, # of connection points: 4
#     Node 1, Type 0, BuildingBlock: ESEHIV_clean_sbu_0, # of connection points: 4
#     Node 2, Type 0, BuildingBlock: ESEHIV_clean_sbu_0, # of connection points: 4
#     Node 3, Type 0, BuildingBlock: ESEHIV_clean_sbu_0, # of connection points: 4
#     Node 4, Type 0, BuildingBlock: ESEHIV_clean_sbu_0, # of connection points: 4
#     Node 5, Type 0, BuildingBlock: ESEHIV_clean_sbu_0, # of connection points: 4
#     Node 6, Type 0, BuildingBlock: ESEHIV_clean_sbu_0, # of connection points: 4
#     Node 7, Type 0, BuildingBlock: ESEHIV_clean_sbu_0, # of connection points: 4
#     Node 8, Type 0, BuildingBlock: ESEHIV_clean_sbu_0, # of connection points: 4
#     Node 9, Type 0, BuildingBlock: ESEHIV_clean_sbu_0, # of connection points: 4
#     Node 10, Type 0, BuildingBlock: ESEHIV_clean_sbu_0, # of connection points: 4
#     Node 11, Type 0, BuildingBlock: ESEHIV_clean_sbu_0, # of connection points: 4
#     Node 12, Type 1, BuildingBlock: KUFVIS_clean_linker_0, # of connection points: 4
#     Node 13, Type 1, BuildingBlock: KUFVIS_clean_linker_0, # of connection points: 4
#     Node 14, Type 1, BuildingBlock: KUFVIS_clean_linker_0, # of connection points: 4
#     Node 15, Type 1, BuildingBlock: KUFVIS_clean_linker_0, # of connection points: 4
#     Node 16, Type 1, BuildingBlock: KUFVIS_clean_linker_0, # of connection points: 4
#     Node 17, Type 1, BuildingBlock: KUFVIS_clean_linker_0, # of connection points: 4
#     Node 18, Type 1, BuildingBlock: KUFVIS_clean_linker_0, # of connection points: 4
#     Node 19, Type 1, BuildingBlock: KUFVIS_clean_linker_0, # of connection points: 4
#     Node 20, Type 1, BuildingBlock: KUFVIS_clean_linker_0, # of connection points: 4
#     Node 21, Type 1, BuildingBlock: KUFVIS_clean_linker_0, # of connection points: 4
#     Node 22, Type 1, BuildingBlock: KUFVIS_clean_linker_0, # of connection points: 4
#     Node 23, Type 1, BuildingBlock: KUFVIS_clean_linker_0, # of connection points: 4
#     Edge 24, Type (0, 1), BuildingBlock: XUDNAN_clean_linker_2, # of connection points: 2
#     Edge 25, Type (0, 1), BuildingBlock: XUDNAN_clean_linker_2, # of connection points: 2
#     Edge 26, Type (0, 1), BuildingBlock: XUDNAN_clean_linker_2, # of connection points: 2
#     Edge 27, Type (0, 1), BuildingBlock: XUDNAN_clean_linker_2, # of connection points: 2
#     Edge 28, Type (0, 1), BuildingBlock: XUDNAN_clean_linker_2, # of connection points: 2
#     Edge 29, Type (0, 1), BuildingBlock: XUDNAN_clean_linker_2, # of connection points: 2
#     Edge 30, Type (0, 1), BuildingBlock: XUDNAN_clean_linker_2, # of connection points: 2
#     Edge 31, Type (0, 1), BuildingBlock: XUDNAN_clean_linker_2, # of connection points: 2
#     Edge 32, Type (0, 1), BuildingBlock: XUDNAN_clean_linker_2, # of connection points: 2
#     Edge 33, Type (0, 1), BuildingBlock: XUDNAN_clean_linker_2, # of connection points: 2
#     Edge 34, Type (0, 1), BuildingBlock: XUDNAN_clean_linker_2, # of connection points: 2
#     Edge 35, Type (0, 1), BuildingBlock: XUDNAN_clean_linker_2, # of connection points: 2
#     Edge 36, Type (0, 1), BuildingBlock: XUDNAN_clean_linker_2, # of connection points: 2
#     Edge 37, Type (0, 1), BuildingBlock: XUDNAN_clean_linker_2, # of connection points: 2
#     Edge 38, Type (0, 1), BuildingBlock: XUDNAN_clean_linker_2, # of connection points: 2
#     Edge 39, Type (0, 1), BuildingBlock: XUDNAN_clean_linker_2, # of connection points: 2
#     Edge 40, Type (0, 1), BuildingBlock: XUDNAN_clean_linker_2, # of connection points: 2
#     Edge 41, Type (0, 1), BuildingBlock: XUDNAN_clean_linker_2, # of connection points: 2
#     Edge 42, Type (0, 1), BuildingBlock: XUDNAN_clean_linker_2, # of connection points: 2
#     Edge 43, Type (0, 1), BuildingBlock: XUDNAN_clean_linker_2, # of connection points: 2
#     Edge 44, Type (0, 1), BuildingBlock: XUDNAN_clean_linker_2, # of connection points: 2
#     Edge 45, Type (0, 1), BuildingBlock: XUDNAN_clean_linker_2, # of connection points: 2
#     Edge 46, Type (0, 1), BuildingBlock: XUDNAN_clean_linker_2, # of connection points: 2
#     Edge 47, Type (0, 1), BuildingBlock: XUDNAN_clean_linker_2, # of connection points: 2
#     Edge 48, Type (0, 1), BuildingBlock: XUDNAN_clean_linker_2, # of connection points: 2
#     Edge 49, Type (0, 1), BuildingBlock: XUDNAN_clean_linker_2, # of connection points: 2
#     Edge 50, Type (0, 1), BuildingBlock: XUDNAN_clean_linker_2, # of connection points: 2
#     Edge 51, Type (0, 1), BuildingBlock: XUDNAN_clean_linker_2, # of connection points: 2
#     Edge 52, Type (0, 1), BuildingBlock: XUDNAN_clean_linker_2, # of connection points: 2
#     Edge 53, Type (0, 1), BuildingBlock: XUDNAN_clean_linker_2, # of connection points: 2
#     Edge 54, Type (0, 1), BuildingBlock: XUDNAN_clean_linker_2, # of connection points: 2
#     Edge 55, Type (0, 1), BuildingBlock: XUDNAN_clean_linker_2, # of connection points: 2
#     Edge 56, Type (0, 1), BuildingBlock: XUDNAN_clean_linker_2, # of connection points: 2
#     Edge 57, Type (0, 1), BuildingBlock: XUDNAN_clean_linker_2, # of connection points: 2
#     Edge 58, Type (0, 1), BuildingBlock: XUDNAN_clean_linker_2, # of connection points: 2
#     Edge 59, Type (0, 1), BuildingBlock: XUDNAN_clean_linker_2, # of connection points: 2
#     Edge 60, Type (0, 1), BuildingBlock: XUDNAN_clean_linker_2, # of connection points: 2
#     Edge 61, Type (0, 1), BuildingBlock: XUDNAN_clean_linker_2, # of connection points: 2
#     Edge 62, Type (0, 1), BuildingBlock: XUDNAN_clean_linker_2, # of connection points: 2
#     Edge 63, Type (0, 1), BuildingBlock: XUDNAN_clean_linker_2, # of connection points: 2
#     Edge 64, Type (0, 1), BuildingBlock: XUDNAN_clean_linker_2, # of connection points: 2
#     Edge 65, Type (0, 1), BuildingBlock: XUDNAN_clean_linker_2, # of connection points: 2
#     Edge 66, Type (0, 1), BuildingBlock: XUDNAN_clean_linker_2, # of connection points: 2
#     Edge 67, Type (0, 1), BuildingBlock: XUDNAN_clean_linker_2, # of connection points: 2
#     Edge 68, Type (0, 1), BuildingBlock: XUDNAN_clean_linker_2, # of connection points: 2
#     Edge 69, Type (0, 1), BuildingBlock: XUDNAN_clean_linker_2, # of connection points: 2
#     Edge 70, Type (0, 1), BuildingBlock: XUDNAN_clean_linker_2, # of connection points: 2
#     Edge 71, Type (0, 1), BuildingBlock: XUDNAN_clean_linker_2, # of connection points: 2
# Relax obj value: 0.051
# Max RMSD: 0.294
# Mean RMSD: 0.193
data_MOF--net-ssc--node1-ESEHIV_clean_sbu_0--node2-KUFVIS_clean_linker_0--edge1-XUDNAN_clean_linker_2
_symmetry_space_group_name_H-M    P1
_symmetry_Int_Tables_number       1
_symmetry_cell_setting            triclinic
loop_
_symmetry_equiv_pos_as_xyz
'x, y, z'
_cell_length_a     33.13478
_cell_length_b     33.243198
_cell_length_c     32.960432
_cell_angle_alpha  89.961613
_cell_angle_beta   93.231198
_cell_angle_gamma 96.589725
loop_
_atom_site_label
_atom_site_type_symbol
_atom_site_fract_x
_atom_site_fract_y
_atom_site_fract_z
_atom_type_partial_charge
Cu0 Cu 0.01831 0.28765 0.14704 0.0
N1 N 0.97246 0.27143 0.17641 0.0
N2 N 0.92774 0.26386 0.22517 0.0
C3 C 0.96507 0.28047 0.21506 0.0
C4 C 0.91113 0.24411 0.19136 0.0
C5 C 0.93859 0.24896 0.16147 0.0
O6 O 0.06788 0.29374 0.18272 0.0
C7 C 0.02097 0.21008 0.11119 0.0
O8 O 0.01652 0.19707 0.14847 0.0
H9 H 0.98688 0.29827 0.23542 0.0
H10 H 0.93419 0.23704 0.13081 0.0
N11 N 0.01018 0.33736 0.12289 0.0
N12 N 1.00616 0.38731 0.0776 0.0
C13 C 0.01852 0.35041 0.08516 0.0
C14 C 0.99183 0.3668 0.13967 0.0
C15 C 0.98932 0.39756 0.11193 0.0
C16 C 0.07382 0.27025 0.21254 0.0
O17 O 0.04562 0.24055 0.2201 0.0
H18 H 0.03356 0.33325 0.06387 0.0
H19 H 0.98053 0.36568 0.16985 0.0
O20 O 0.0228 0.24795 0.10428 0.0
H21 H 0.88111 0.22746 0.18827 0.0
H22 H 0.97553 0.42504 0.11658 0.0
Cu23 Cu 0.02462 0.78563 0.38536 0.0
N24 N 0.02382 0.83727 0.40719 0.0
N25 N 0.01496 0.8876 0.44938 0.0
C26 C 0.01355 0.84712 0.44463 0.0
C27 C 0.02685 0.90372 0.4138 0.0
C28 C 0.03249 0.87261 0.3879 0.0
O29 O 0.01589 0.74682 0.42931 0.0
C30 C 0.95266 0.79502 0.336 0.0
O31 O 0.94447 0.81893 0.36541 0.0
H32 H 1.00397 0.8251 0.46739 0.0
H33 H 0.04168 0.87542 0.35696 0.0
N34 N 0.07566 0.78359 0.36474 0.0
N35 N 0.12452 0.77344 0.32311 0.0
C36 C 0.08404 0.77024 0.32786 0.0
C37 C 0.11189 0.79599 0.38378 0.0
C38 C 0.14209 0.78968 0.35826 0.0
C39 C 0.03456 0.71552 0.43345 0.0
O40 O 0.0585 0.70659 0.40514 0.0
H41 H 0.06095 0.75776 0.30535 0.0
H42 H 0.11597 0.80877 0.41411 0.0
O43 O 0.98418 0.77644 0.33999 0.0
H44 H 0.03103 0.93571 0.40703 0.0
H45 H 0.17446 0.79691 0.36492 0.0
Cu46 Cu 0.50141 0.76973 0.64026 0.0
N47 N 0.53585 0.7759 0.59713 0.0
N48 N 0.55992 0.80724 0.54193 0.0
C49 C 0.54315 0.81149 0.57775 0.0
C50 C 0.56437 0.76745 0.53912 0.0
C51 C 0.5498 0.74817 0.57351 0.0
O52 O 0.45357 0.79564 0.62328 0.0
C53 C 0.56852 0.79689 0.69576 0.0
O54 O 0.59111 0.79108 0.66531 0.0
H55 H 0.53178 0.83902 0.58737 0.0
H56 H 0.54588 0.71588 0.57882 0.0
N57 N 0.48101 0.71742 0.65474 0.0
N58 N 0.43991 0.67931 0.6949 0.0
C59 C 0.44341 0.7105 0.66884 0.0
C60 C 0.50212 0.68929 0.67258 0.0
C61 C 0.47683 0.66585 0.69757 0.0
C62 C 0.42852 0.78327 0.5937 0.0
O63 O 0.39681 0.80272 0.58547 0.0
H64 H 0.42107 0.73176 0.66522 0.0
H65 H 0.53477 0.68957 0.67219 0.0
O66 O 0.52981 0.79247 0.69016 0.0
H67 H 0.57414 0.75285 0.51262 0.0
H68 H 0.48605 0.64376 0.71931 0.0
Cu69 Cu 0.53154 0.30537 0.92429 0.0
N70 N 0.53136 0.35433 0.95281 0.0
N71 N 0.52255 0.40004 1.00041 0.0
C72 C 0.5174 0.36045 0.98981 0.0
C73 C 0.54091 0.41945 0.96931 0.0
C74 C 0.54646 0.39124 0.94013 0.0
O75 O 0.52724 0.26085 0.96257 0.0
C76 C 0.46487 0.32338 0.86962 0.0
O77 O 0.46612 0.35724 0.89039 0.0
H78 H 0.50304 0.33667 0.0083 0.0
H79 H 0.5603 0.39721 0.91146 0.0
N80 N 0.58174 0.30547 0.90098 0.0
N81 N 0.63019 0.2902 0.86091 0.0
C82 C 0.58984 0.28656 0.86665 0.0
C83 C 0.61805 0.32184 0.91725 0.0
C84 C 0.64797 0.31245 0.89268 0.0
C85 C 0.49651 0.25084 0.98339 0.0
O86 O 0.464 0.26981 0.97777 0.0
H87 H 0.56681 0.26917 0.84718 0.0
H88 H 0.62249 0.33863 0.94556 0.0
O89 O 0.48898 0.29757 0.88041 0.0
H90 H 0.54965 0.45177 0.96789 0.0
H91 H 0.68035 0.32099 0.89799 0.0
Cu92 Cu 0.14461 0.00812 0.28897 0.0
N93 N 0.11772 0.01259 0.33708 0.0
N94 N 0.06975 0.0205 0.38059 0.0
C95 C 0.0779 0.01564 0.34128 0.0
C96 C 0.10566 0.02 0.4019 0.0
C97 C 0.13509 0.01486 0.37504 0.0
O98 O 0.10651 0.01203 0.24233 0.0
C99 C 0.19313 0.08385 0.30565 0.0
O100 O 0.16345 0.09162 0.32814 0.0
H101 H 0.05557 0.01541 0.31599 0.0
H102 H 0.16714 0.01362 0.38252 0.0
N103 N 0.16411 0.95738 0.28818 0.0
N104 N 0.20325 0.90777 0.27935 0.0
C105 C 0.20051 0.94804 0.27696 0.0
C106 C 0.14336 0.92197 0.2983 0.0
C107 C 0.16731 0.89136 0.2928 0.0
C108 C 0.08783 0.04307 0.23603 0.0
O109 O 0.09495 0.07391 0.26133 0.0
H110 H 0.22404 0.97018 0.26629 0.0
H111 H 0.11276 0.91866 0.30868 0.0
O112 O 0.19044 0.05037 0.28634 0.0
H113 H 0.11027 0.02311 0.43457 0.0
H114 H 0.15889 0.85948 0.2983 0.0
Cu115 Cu 0.27756 0.90743 0.52243 0.0
N116 N 0.2675 0.88864 0.4691 0.0
N117 N 0.26263 0.84648 0.41583 0.0
C118 C 0.26776 0.85015 0.45664 0.0
C119 C 0.25891 0.8842 0.40204 0.0
C120 C 0.2618 0.91016 0.43507 0.0
O121 O 0.28757 0.86067 0.55544 0.0
C122 C 0.33327 0.97703 0.54739 0.0
O123 O 0.30662 0.98414 0.57375 0.0
H124 H 0.27338 0.82562 0.47705 0.0
H125 H 0.26083 0.94257 0.4343 0.0
N126 N 0.23165 0.92987 0.53866 0.0
N127 N 0.18462 0.972 0.54693 0.0
C128 C 0.22006 0.96674 0.53024 0.0
C129 C 0.20231 0.91103 0.56078 0.0
C130 C 0.17344 0.93692 0.56611 0.0
C131 C 0.28805 0.85848 0.59403 0.0
O132 O 0.28192 0.89034 0.61541 0.0
H133 H 0.23767 0.98944 0.51293 0.0
H134 H 0.2019 0.88047 0.57214 0.0
O135 O 0.32613 0.94636 0.52393 0.0
H136 H 0.25491 0.89246 0.3704 0.0
H137 H 0.14614 0.93023 0.58258 0.0
Cu138 Cu 0.39054 0.04295 0.75823 0.0
N139 N 0.41776 0.04132 0.80946 0.0
N140 N 0.46546 0.04299 0.8605 0.0
C141 C 0.45784 0.04878 0.82025 0.0
C142 C 0.42878 0.03188 0.87547 0.0
C143 C 0.39953 0.03105 0.84402 0.0
O144 O 0.42651 0.03761 0.71427 0.0
C145 C 0.31176 1.00019 0.7357 0.0
O146 O 0.30459 0.03283 0.71533 0.0
H147 H 0.48099 0.05695 0.79888 0.0
H148 H 0.36714 0.02299 0.84602 0.0
N149 N 0.37224 0.09383 0.75186 0.0
N150 N 0.3372 0.14756 0.7527 0.0
C151 C 0.33917 0.10892 0.76518 0.0
C152 C 0.39176 0.12378 0.73059 0.0
C153 C 0.37035 0.15671 0.7309 0.0
C154 C 0.45444 0.01445 0.71288 0.0
O155 O 0.46088 0.99011 0.74338 0.0
H156 H 0.31696 0.09178 0.78318 0.0
H157 H 0.4194 0.12146 0.71522 0.0
O158 O 0.34601 0.99906 0.75501 0.0
H159 H 0.42349 0.02456 0.90689 0.0
H160 H 0.378 0.18468 0.71484 0.0
Cu161 Cu 0.27648 0.16934 0.02823 0.0
N162 N 0.2805 0.19239 0.97667 0.0
N163 N 0.27721 0.23517 0.92436 0.0
C164 C 0.26911 0.22812 0.96372 0.0
C165 C 0.29437 0.2025 0.91236 0.0
C166 C 0.29636 0.17631 0.94462 0.0
O167 O 0.26538 0.2107 0.06677 0.0
C168 C 0.19599 0.12669 0.02602 0.0
O169 O 0.18324 0.16255 0.02856 0.0
H170 H 0.25475 0.2482 0.98272 0.0
H171 H 0.30872 0.14757 0.94483 0.0
N172 N 0.32562 0.1489 0.04294 0.0
N173 N 0.37358 0.1066 0.05003 0.0
C174 C 0.33692 0.11275 0.03239 0.0
C175 C 0.35622 0.16636 0.06777 0.0
C176 C 0.38554 0.14025 0.07248 0.0
C177 C 0.26931 0.20663 0.10517 0.0
O178 O 0.28017 0.17261 0.12018 0.0
H179 H 0.31795 0.09093 0.01322 0.0
H180 H 0.35674 0.19565 0.08218 0.0
O181 O 0.23398 0.12398 0.02589 0.0
H182 H 0.30527 0.19795 0.88256 0.0
H183 H 0.41317 0.14537 0.0916 0.0
Cu184 Cu 0.77234 0.41389 0.01047 0.0
N185 N 0.76671 0.38845 0.9597 0.0
N186 N 0.77465 0.34564 0.90931 0.0
C187 C 0.77993 0.35312 0.94965 0.0
C188 C 0.75729 0.37737 0.89346 0.0
C189 C 0.7523 0.40366 0.92466 0.0
O190 O 0.78 0.37304 0.05158 0.0
C191 C 0.82618 0.48695 0.03085 0.0
O192 O 0.79921 0.49562 0.05622 0.0
H193 H 0.7948 0.33422 0.97119 0.0
H194 H 0.74012 0.43243 0.92189 0.0
N195 N 0.72403 0.43581 0.02006 0.0
N196 N 0.67629 0.47716 0.02802 0.0
C197 C 0.71355 0.47362 0.01448 0.0
C198 C 0.69206 0.41483 0.03681 0.0
C199 C 0.66271 0.44017 0.04189 0.0
C200 C 0.78168 0.38137 0.08937 0.0
O201 O 0.7805 0.41903 0.10082 0.0
H202 H 0.73331 0.4983 1.0022 0.0
H203 H 0.69064 0.38334 0.04551 0.0
O204 O 0.81987 0.45434 0.01007 0.0
H205 H 0.74927 0.3815 0.86158 0.0
H206 H 0.63375 0.43215 0.0552 0.0
Cu207 Cu 0.89838 0.537 0.28328 0.0
N208 N 0.92618 0.53665 0.33426 0.0
N209 N 0.97052 0.52686 0.38602 0.0
C210 C 0.96158 0.52229 0.3456 0.0
C211 C 0.93984 0.54502 0.40042 0.0
C212 C 0.91267 0.55103 0.3685 0.0
O213 O 0.93514 0.53097 0.24006 0.0
C214 C 0.82838 0.48422 0.25262 0.0
O215 O 0.83121 0.50527 0.21894 0.0
H216 H 0.97984 0.50791 0.32497 0.0
H217 H 0.8847 0.5647 0.37009 0.0
N218 N 0.88013 0.58818 0.27804 0.0
N219 N 0.84429 0.64096 0.26875 0.0
C220 C 0.84285 0.60003 0.26952 0.0
C221 C 0.90548 0.62258 0.28317 0.0
C222 C 0.88365 0.655 0.27748 0.0
C223 C 0.95283 0.49969 0.23365 0.0
O224 O 0.94594 0.4678 0.2569 0.0
H225 H 0.81558 0.57927 0.26326 0.0
H226 H 0.93783 0.62386 0.29059 0.0
O227 O 0.85376 0.49348 0.28249 0.0
H228 H 0.9373 0.55345 0.4318 0.0
H229 H 0.89581 0.68658 0.2798 0.0
Cu230 Cu 0.78748 0.67447 0.51115 0.0
N231 N 0.78779 0.70077 0.46097 0.0
N232 N 0.78724 0.74863 0.41339 0.0
C233 C 0.79344 0.74085 0.45337 0.0
C234 C 0.77744 0.71224 0.39521 0.0
C235 C 0.77806 0.68277 0.4246 0.0
O236 O 0.78276 0.71357 0.55429 0.0
C237 C 0.73601 0.60404 0.53376 0.0
O238 O 0.76412 0.60016 0.56276 0.0
H239 H 0.79976 0.76387 0.4768 0.0
H240 H 0.77047 0.65051 0.42005 0.0
N241 N 0.83547 0.64985 0.51894 0.0
N242 N 0.87871 0.60286 0.52455 0.0
C243 C 0.84069 0.61071 0.51267 0.0
C244 C 0.87164 0.66747 0.53443 0.0
C245 C 0.89821 0.63854 0.53824 0.0
C246 C 0.79569 0.70874 0.59089 0.0
O247 O 0.81279 0.6761 0.60077 0.0
H248 H 0.81665 0.58813 0.50113 0.0
H249 H 0.87783 0.69896 0.54344 0.0
O250 O 0.74036 0.63379 0.50946 0.0
H251 H 0.76941 0.70746 0.36313 0.0
H252 H 0.92928 0.64322 0.55068 0.0
Cu253 Cu 0.64125 0.50327 0.79664 0.0
N254 N 0.61231 0.50299 0.84358 0.0
N255 N 0.56273 0.5022 0.88668 0.0
C256 C 0.57172 0.49825 0.84754 0.0
C257 C 0.59869 0.50938 0.908 0.0
C258 C 0.62925 0.50963 0.88139 0.0
O259 O 0.60443 0.50843 0.74945 0.0
C260 C 0.70553 0.562 0.77262 0.0
O261 O 0.70582 0.54015 0.73949 0.0
H262 H 0.54935 0.49357 0.82227 0.0
H263 H 0.66162 0.5151 0.88888 0.0
N264 N 0.66501 0.45487 0.79562 0.0
N265 N 0.70569 0.4072 0.78472 0.0
C266 C 0.70031 0.44676 0.78064 0.0
C267 C 0.64795 0.41948 0.8101 0.0
C268 C 0.67283 0.39008 0.80338 0.0
C269 C 0.6078 0.49174 0.71527 0.0
O270 O 0.63716 0.46896 0.71092 0.0
H271 H 0.72099 0.46897 0.766 0.0
H272 H 0.61909 0.41533 0.82424 0.0
O273 O 0.68131 0.55058 0.80003 0.0
H274 H 0.6023 0.51451 0.94043 0.0
H275 H 0.66712 0.35853 0.81155 0.0
H276 H 0.92204 0.37232 0.63249 0.0
H277 H 0.97152 0.27232 0.69175 0.0
H278 H 0.02736 0.32773 0.58669 0.0
H279 H 0.01378 0.23343 0.58892 0.0
H280 H 0.1169 0.19429 0.65605 0.0
H281 H 0.06316 0.2966 0.69882 0.0
C282 C 0.94472 0.35113 0.63459 0.0
C283 C 0.97465 0.3534 0.60633 0.0
C284 C 0.94336 0.32245 0.66547 0.0
C285 C 0.97239 0.29471 0.6678 0.0
C286 C 1.00288 0.29631 0.63932 0.0
C287 C 1.00372 0.32571 0.60827 0.0
C288 C 0.03475 0.26839 0.64331 0.0
C289 C 0.03595 0.23706 0.61449 0.0
C290 C 0.06512 0.20965 0.61987 0.0
C291 C 0.09346 0.2146 0.65292 0.0
C292 C 0.09291 0.24526 0.68166 0.0
C293 C 0.06357 0.27246 0.67681 0.0
H294 H 0.91957 0.68376 0.8953 0.0
H295 H 0.03057 0.75236 0.94112 0.0
H296 H 0.96376 0.79331 0.83525 0.0
H297 H 0.05339 0.79393 0.82736 0.0
H298 H 0.11113 0.90743 0.87588 0.0
H299 H 0.01767 0.83949 0.94117 0.0
C300 C 0.9425 0.70969 0.89307 0.0
C301 C 0.93806 0.73768 0.86212 0.0
C302 C 0.97539 0.7147 0.92164 0.0
C303 C 1.00492 0.74837 0.91903 0.0
C304 C 1.0011 0.77682 0.88751 0.0
C305 C 0.9674 0.77132 0.8591 0.0
C306 C 0.03179 0.81267 0.8845 0.0
C307 C 0.05634 0.81714 0.85077 0.0
C308 C 0.08482 0.85156 0.84749 0.0
C309 C 0.08877 0.88108 0.87812 0.0
C310 C 0.06511 0.87691 0.91204 0.0
C311 C 0.03631 0.84274 0.91512 0.0
H312 H 0.4283 0.87824 0.14828 0.0
H313 H 0.47371 0.77105 0.19664 0.0
H314 H 0.5322 0.83543 0.09764 0.0
H315 H 0.50941 0.73574 0.09561 0.0
H316 H 0.61711 0.6934 0.15092 0.0
H317 H 0.57351 0.79918 0.19908 0.0
C318 C 0.45038 0.85647 0.14833 0.0
C319 C 0.48049 0.86071 0.12017 0.0
C320 C 0.44759 0.82465 0.17603 0.0
C321 C 0.47567 0.79594 0.17532 0.0
C322 C 0.50656 0.79972 0.14714 0.0
C323 C 0.50855 0.83209 0.11921 0.0
C324 C 0.53734 0.77051 0.14773 0.0
C325 C 0.53412 0.73872 0.11878 0.0
C326 C 0.56262 0.71038 0.12056 0.0
C327 C 0.59438 0.71454 0.15044 0.0
C328 C 0.59868 0.74609 0.17868 0.0
C329 C 0.57015 0.77436 0.1774 0.0
H330 H 0.42536 0.18188 0.42174 0.0
H331 H 0.54483 0.23671 0.46034 0.0
H332 H 0.4806 0.28344 0.35587 0.0
H333 H 0.57357 0.27334 0.35029 0.0
H334 H 0.64062 0.38215 0.40064 0.0
H335 H 0.53384 0.32925 0.45716 0.0
C336 C 0.45056 0.20532 0.41816 0.0
C337 C 0.44849 0.2328 0.38621 0.0
C338 C 0.48497 0.20623 0.44468 0.0
C339 C 0.51812 0.2357 0.43963 0.0
C340 C 0.5166 0.264 0.40777 0.0
C341 C 0.48193 0.26194 0.38051 0.0
C342 C 0.55038 0.2969 0.40464 0.0
C343 C 0.57775 0.29698 0.37327 0.0
C344 C 0.61102 0.32734 0.37235 0.0
C345 C 0.61587 0.35784 0.40207 0.0
C346 C 0.58807 0.35904 0.4322 0.0
C347 C 0.55543 0.3284 0.43373 0.0
H348 H 0.66496 0.96252 0.36984 0.0
H349 H 0.71114 0.02999 0.26819 0.0
H350 H 0.59602 0.05198 0.31497 0.0
H351 H 0.59009 0.05602 0.23467 0.0
H352 H 0.64445 0.16268 0.17621 0.0
H353 H 0.7106 0.11116 0.27493 0.0
C354 C 0.66236 0.98666 0.34791 0.0
C355 C 0.62774 0.0069 0.34647 0.0
C356 C 0.69158 0.99353 0.31914 0.0
C357 C 0.68837 0.02451 0.29051 0.0
C358 C 0.65432 0.04679 0.28933 0.0
C359 C 0.62325 0.03671 0.31669 0.0
C360 C 0.65084 0.07937 0.25854 0.0
C361 C 0.61544 0.07942 0.23228 0.0
C362 C 0.61367 0.1091 0.20192 0.0
C363 C 0.64638 0.13909 0.19886 0.0
C364 C 0.68111 0.14016 0.22477 0.0
C365 C 0.68355 0.11029 0.25472 0.0
H366 H 0.18285 0.37627 0.42625 0.0
H367 H 0.23854 0.42364 0.53981 0.0
H368 H 0.29346 0.33361 0.47385 0.0
H369 H 0.27555 0.33681 0.58333 0.0
H370 H 0.39332 0.3954 0.62371 0.0
H371 H 0.33927 0.42762 0.50862 0.0
C372 C 0.20686 0.37664 0.45014 0.0
C373 C 0.23741 0.35143 0.44659 0.0
C374 C 0.20718 0.40308 0.48311 0.0
C375 C 0.23793 0.40304 0.51424 0.0
C376 C 0.26908 0.37777 0.51128 0.0
C377 C 0.269 0.35222 0.47701 0.0
C378 C 0.30364 0.38127 0.54206 0.0
C379 C 0.30197 0.35819 0.57818 0.0
C380 C 0.33442 0.36369 0.60788 0.0
C381 C 0.36822 0.3913 0.60085 0.0
C382 C 0.37039 0.41408 0.56531 0.0
C383 C 0.33794 0.40944 0.53594 0.0
H384 H 0.9132 0.13064 0.87751 0.0
H385 H 0.86162 0.0732 0.76683 0.0
H386 H 0.96069 0.02463 0.8343 0.0
H387 H 0.95532 0.04379 0.72986 0.0
H388 H 0.90713 0.92479 0.68796 0.0
H389 H 0.86182 0.97347 0.79483 0.0
C390 C 0.91263 0.10669 0.85501 0.0
C391 C 0.94072 0.07849 0.85948 0.0
C392 C 0.88399 0.10505 0.82218 0.0
C393 C 0.88346 0.07444 0.79267 0.0
C394 C 0.91096 0.04504 0.79704 0.0
C395 C 0.93947 0.04706 0.83074 0.0
C396 C 0.90968 0.01199 0.76666 0.0
C397 C 0.93536 0.01603 0.7337 0.0
C398 C 0.9348 0.98409 0.70562 0.0
C399 C 0.90855 0.94879 0.71055 0.0
C400 C 0.88211 0.94462 0.74219 0.0
C401 C 0.8824 0.97641 0.77031 0.0
H402 H 0.34195 0.59912 0.92029 0.0
H403 H 0.28417 0.56551 0.03054 0.0
H404 H 0.23662 0.65459 0.95068 0.0
H405 H 0.25608 0.67317 0.04659 0.0
H406 H 0.1467 0.62993 0.10411 0.0
H407 H 0.18879 0.55844 0.01008 0.0
C408 C 0.31816 0.60262 0.94098 0.0
C409 C 0.28988 0.62958 0.93129 0.0
C410 C 0.31661 0.57978 0.97644 0.0
C411 C 0.28535 0.58313 1.00287 0.0
C412 C 0.25634 0.61039 0.99395 0.0
C413 C 0.25864 0.63356 0.95782 0.0
C414 C 0.22508 0.61604 0.02346 0.0
C415 C 0.22977 0.65084 0.04869 0.0
C416 C 0.20099 0.65606 0.07745 0.0
C417 C 0.16776 0.62664 0.08056 0.0
C418 C 0.16272 0.59152 0.05664 0.0
C419 C 0.19188 0.58589 0.02826 0.0
H420 H 0.67096 0.92295 0.92162 0.0
H421 H 0.74742 0.97547 0.02182 0.0
H422 H 0.76666 0.85867 0.97296 0.0
H423 H 0.77215 0.857 0.05588 0.0
H424 H 0.88514 0.91044 0.11291 0.0
H425 H 0.82805 0.97336 0.01569 0.0
C426 C 0.69658 0.9215 0.94345 0.0
C427 C 0.71792 0.88773 0.94352 0.0
C428 C 0.70651 0.95279 0.9717 0.0
C429 C 0.73972 0.95117 0.99985 0.0
C430 C 0.76188 0.91719 1.00061 0.0
C431 C 0.75039 0.88516 0.97247 0.0
C432 C 0.79636 0.91497 0.0313 0.0
C433 C 0.79695 0.88132 0.05764 0.0
C434 C 0.82888 0.88019 0.08743 0.0
C435 C 0.86071 0.91152 0.08964 0.0
C436 C 0.86103 0.94492 0.06392 0.0
C437 C 0.82832 0.94714 0.03522 0.0
H438 H 0.34792 0.62121 0.40509 0.0
H439 H 0.31963 0.55322 0.29454 0.0
H440 H 0.42027 0.5272 0.37592 0.0
H441 H 0.43168 0.53068 0.28258 0.0
H442 H 0.38817 0.4151 0.22834 0.0
H443 H 0.31798 0.4661 0.31631 0.0
C444 C 0.35295 0.59604 0.3857 0.0
C445 C 0.38575 0.57442 0.39564 0.0
C446 C 0.32966 0.58944 0.34919 0.0
C447 C 0.33753 0.55834 0.323 0.0
C448 C 0.3693 0.53458 0.33307 0.0
C449 C 0.39445 0.54374 0.36892 0.0
C450 C 0.37596 0.50075 0.3055 0.0
C451 C 0.41001 0.50363 0.28119 0.0
C452 C 0.41459 0.47247 0.25331 0.0
C453 C 0.38572 0.43832 0.25097 0.0
C454 C 0.35071 0.43601 0.27286 0.0
C455 C 0.34565 0.46732 0.30008 0.0
H456 H 0.87275 0.15876 0.45769 0.0
H457 H 0.80583 0.08795 0.54588 0.0
H458 H 0.76837 0.20274 0.50606 0.0
H459 H 0.77634 0.19184 0.59791 0.0
H460 H 0.6631 0.12959 0.63356 0.0
H461 H 0.71729 0.08951 0.52767 0.0
C462 C 0.84866 0.15561 0.47894 0.0
C463 C 0.82148 0.18466 0.47915 0.0
C464 C 0.8431 0.1206 0.50221 0.0
C465 C 0.8106 0.11534 0.52811 0.0
C466 C 0.78446 0.14588 0.53111 0.0
C467 C 0.78974 0.18039 0.50595 0.0
C468 C 0.75089 0.14118 0.55946 0.0
C469 C 0.75135 0.16803 0.5928 0.0
C470 C 0.71941 0.16401 0.61946 0.0
C471 C 0.68761 0.133 0.61283 0.0
C472 C 0.68661 0.10607 0.58023 0.0
C473 C 0.71823 0.11008 0.5533 0.0
H474 H 0.13958 0.44937 0.86152 0.0
H475 H 0.2001 0.50381 0.76018 0.0
H476 H 0.08914 0.54634 0.79756 0.0
H477 H 0.08716 0.54466 0.71533 0.0
H478 H 0.16078 0.63878 0.65505 0.0
H479 H 0.21095 0.58285 0.76054 0.0
C480 C 0.14109 0.47161 0.83737 0.0
C481 C 0.11027 0.4969 0.83229 0.0
C482 C 0.17347 0.47375 0.81187 0.0
C483 C 0.17528 0.50232 0.78038 0.0
C484 C 0.14506 0.52902 0.77496 0.0
C485 C 0.11244 0.52606 0.80119 0.0
C486 C 0.14841 0.56023 0.74236 0.0
C487 C 0.11557 0.5641 0.71361 0.0
C488 C 0.12046 0.59199 0.68151 0.0
C489 C 0.1572 0.6168 0.67938 0.0
C490 C 0.18962 0.61382 0.70755 0.0
C491 C 0.18549 0.58542 0.73896 0.0
H492 H 0.01377 0.3604 1.00052 0.0
H493 H 0.009 0.46909 0.0716 0.0
H494 H 0.02416 0.51098 0.01138 0.0
H495 H 0.09498 0.39589 0.94408 0.0
H496 H 0.07525 0.37076 0.89749 0.0
H497 H 0.06013 0.35013 0.94541 0.0
H498 H 0.98438 0.35221 0.92158 0.0
H499 H 0.99949 0.37358 0.87371 0.0
H500 H 0.96738 0.39939 0.90476 0.0
H501 H 0.05103 0.54075 0.94607 0.0
H502 H 0.08605 0.55466 0.88221 0.0
H503 H 0.06496 0.42714 0.85138 0.0
C504 C 0.01541 0.39297 1.00338 0.0
C505 C 0.01102 0.41142 0.04125 0.0
C506 C 0.01278 0.45421 0.04326 0.0
C507 C 0.02103 0.47829 0.00903 0.0
C508 C 0.02591 0.45913 0.97236 0.0
C509 C 0.02254 0.41736 0.96922 0.0
C510 C 0.03141 0.40417 0.92704 0.0
C511 C 0.06758 0.37878 0.92863 0.0
C512 C 0.99339 0.38097 0.90551 0.0
C513 C 0.04213 0.44498 0.90749 0.0
C514 C 0.03858 0.47646 0.93392 0.0
C515 C 0.05248 0.51652 0.9245 0.0
C516 C 0.07207 0.52428 0.888 0.0
C517 C 0.07762 0.49208 0.86162 0.0
C518 C 0.06028 0.45242 0.8706 0.0
H519 H 0.8924 0.84163 0.31284 0.0
H520 H 0.95955 0.74725 0.26923 0.0
H521 H 0.92375 0.75034 0.20166 0.0
H522 H 0.79626 0.81522 0.25436 0.0
H523 H 0.78958 0.86739 0.24379 0.0
H524 H 0.81692 0.85429 0.28981 0.0
H525 H 0.87912 0.90375 0.27249 0.0
H526 H 0.852 0.91772 0.22687 0.0
H527 H 0.90092 0.89945 0.22399 0.0
H528 H 0.88497 0.76823 0.13694 0.0
H529 H 0.85473 0.80571 0.08007 0.0
H530 H 0.8129 0.88764 0.16607 0.0
C531 C 0.89883 0.82076 0.28947 0.0
C532 C 0.92835 0.79371 0.29665 0.0
C533 C 0.93674 0.76794 0.26469 0.0
C534 C 0.91651 0.76945 0.22616 0.0
C535 C 0.88763 0.79661 0.22007 0.0
C536 C 0.87917 0.82207 0.25083 0.0
C537 C 0.85098 0.85211 0.23535 0.0
C538 C 0.811 0.8469 0.25706 0.0
C539 C 0.87203 0.89581 0.23993 0.0
C540 C 0.84446 0.83943 0.19112 0.0
C541 C 0.86559 0.80712 0.18285 0.0
C542 C 0.86768 0.79301 0.14319 0.0
C543 C 0.84988 0.81401 0.11105 0.0
C544 C 0.83029 0.84858 0.11888 0.0
C545 C 0.82603 0.86015 0.1595 0.0
H546 H 0.39082 0.70496 0.592 0.0
H547 H 0.47532 0.78789 0.52907 0.0
H548 H 0.487 0.73307 0.48185 0.0
H549 H 0.4353 0.6081 0.57443 0.0
H550 H 0.38604 0.58012 0.56322 0.0
H551 H 0.39133 0.6224 0.59816 0.0
H552 H 0.33687 0.65628 0.55511 0.0
H553 H 0.33096 0.61396 0.52056 0.0
H554 H 0.34338 0.66451 0.50169 0.0
H555 H 0.48721 0.67161 0.43924 0.0
H556 H 0.46019 0.61643 0.39177 0.0
H557 H 0.36894 0.57495 0.47592 0.0
C558 C 0.41316 0.71088 0.56934 0.0
C559 C 0.43565 0.74953 0.56662 0.0
C560 C 0.46115 0.75749 0.53402 0.0
C561 C 0.46761 0.72663 0.50689 0.0
C562 C 0.44689 0.68818 0.51158 0.0
C563 C 0.41896 0.68055 0.54109 0.0
C564 C 0.39438 0.63942 0.53411 0.0
C565 C 0.40224 0.61082 0.5696 0.0
C566 C 0.34871 0.64382 0.52745 0.0
C567 C 0.41217 0.6257 0.49551 0.0
C568 C 0.4436 0.65361 0.4841 0.0
C569 C 0.46294 0.64927 0.44806 0.0
C570 C 0.44788 0.61735 0.42148 0.0
C571 C 0.41309 0.59086 0.43048 0.0
C572 C 0.39652 0.59383 0.46901 0.0
H573 H 0.60264 0.27675 0.782 0.0
H574 H 0.70355 0.26184 0.86808 0.0
H575 H 0.73896 0.23126 0.81391 0.0
H576 H 0.60648 0.18305 0.72703 0.0
H577 H 0.59344 0.20411 0.67828 0.0
H578 H 0.57566 0.22438 0.72378 0.0
H579 H 0.60918 0.29633 0.70534 0.0
H580 H 0.6262 0.27559 0.65966 0.0
H581 H 0.66239 0.30332 0.69505 0.0
H582 H 0.7657 0.20531 0.75048 0.0
H583 H 0.77618 0.17624 0.6831 0.0
H584 H 0.65848 0.208 0.63845 0.0
C585 C 0.63224 0.26707 0.78942 0.0
C586 C 0.65054 0.27208 0.8292 0.0
C587 C 0.6894 0.25919 0.83768 0.0
C588 C 0.70982 0.24187 0.80722 0.0
C589 C 0.69148 0.23813 0.76825 0.0
C590 C 0.65343 0.25012 0.75922 0.0
C591 C 0.64032 0.24209 0.71488 0.0
C592 C 0.6017 0.21159 0.71077 0.0
C593 C 0.63417 0.2817 0.69245 0.0
C594 C 0.67705 0.22396 0.70054 0.0
C595 C 0.7063 0.22202 0.73174 0.0
C596 C 0.74289 0.20632 0.72582 0.0
C597 C 0.74891 0.19049 0.68737 0.0
C598 C 0.71834 0.19025 0.65564 0.0
C599 C 0.68252 0.20825 0.66215 0.0
H600 H 0.07975 0.65446 0.4564 0.0
H601 H 0.98793 0.7252 0.49849 0.0
H602 H 0.99184 0.69152 0.56525 0.0
H603 H 0.04881 0.56246 0.5091 0.0
H604 H 0.09944 0.5507 0.52391 0.0
H605 H 0.09015 0.57764 0.47742 0.0
H606 H 0.14189 0.63831 0.4976 0.0
H607 H 0.15581 0.6116 0.54272 0.0
H608 H 0.14065 0.66175 0.54675 0.0
H609 H 0.01135 0.65527 0.62999 0.0
H610 H 0.04859 0.62415 0.68703 0.0
H611 H 0.12556 0.57596 0.6018 0.0
C612 C 0.05961 0.66218 0.47921 0.0
C613 C 0.03323 0.69224 0.47194 0.0
C614 C 0.00814 0.702 0.50312 0.0
C615 C 0.01002 0.68289 0.54114 0.0
C616 C 0.03671 0.65366 0.54744 0.0
C617 C 0.06117 0.64353 0.51727 0.0
C618 C 0.09013 0.61419 0.53265 0.0
C619 C 0.08167 0.5738 0.50945 0.0
C620 C 0.13473 0.63258 0.52977 0.0
C621 C 0.07869 0.60979 0.57644 0.0
C622 C 0.04766 0.63261 0.58446 0.0
C623 C 0.03507 0.63665 0.6239 0.0
C624 C 0.05593 0.61841 0.6561 0.0
C625 C 0.08903 0.59669 0.64859 0.0
C626 C 0.09928 0.59107 0.60808 0.0
H627 H 0.6457 0.83224 0.71789 0.0
H628 H 0.53532 0.77417 0.76744 0.0
H629 H 0.56891 0.77932 0.83639 0.0
H630 H 0.71952 0.78978 0.79037 0.0
H631 H 0.75303 0.83653 0.79272 0.0
H632 H 0.72191 0.82288 0.74707 0.0
H633 H 0.69165 0.89157 0.75043 0.0
H634 H 0.72284 0.90469 0.79591 0.0
H635 H 0.66843 0.90482 0.79603 0.0
H636 H 0.61291 0.7931 0.90001 0.0
H637 H 0.65825 0.8272 0.95469 0.0
H638 H 0.73882 0.88014 0.86524 0.0
C639 C 0.62876 0.82036 0.74329 0.0
C640 C 0.58793 0.80265 0.73732 0.0
C641 C 0.56652 0.78805 0.77132 0.0
C642 C 0.58556 0.79033 0.81053 0.0
C643 C 0.62597 0.80755 0.81537 0.0
C644 C 0.6471 0.82308 0.78279 0.0
C645 C 0.68861 0.84419 0.79688 0.0
C646 C 0.72279 0.82202 0.78081 0.0
C647 C 0.69311 0.88897 0.78408 0.0
C648 C 0.68679 0.8396 0.84263 0.0
C649 C 0.65102 0.81696 0.85246 0.0
C650 C 0.64125 0.81038 0.89271 0.0
C651 C 0.66744 0.82938 0.92365 0.0
C652 C 0.70256 0.85519 0.91418 0.0
C653 C 0.71306 0.85918 0.87327 0.0
H654 H 0.52505 0.37291 0.07867 0.0
H655 H 0.48664 0.4684 1.00152 0.0
H656 H 0.46068 0.50072 0.0608 0.0
H657 H 0.4407 0.36826 0.14365 0.0
H658 H 0.47075 0.35832 0.18907 0.0
H659 H 0.48556 0.3427 0.14035 0.0
H660 H 0.55672 0.38305 0.15484 0.0
H661 H 0.54161 0.39964 0.2032 0.0
H662 H 0.56045 0.43636 0.16652 0.0
H663 H 0.44479 0.5265 0.12843 0.0
H664 H 0.42009 0.53235 0.19728 0.0
H665 H 0.46885 0.42093 0.23166 0.0
C666 C 0.51173 0.40098 0.07451 0.0
C667 C 0.50825 0.41861 0.03557 0.0
C668 C 0.49012 0.45496 0.03111 0.0
C669 C 0.4757 0.47366 0.06458 0.0
C670 C 0.4815 0.45687 0.10283 0.0
C671 C 0.49834 0.42092 0.108 0.0
C672 C 0.49822 0.40796 0.15217 0.0
C673 C 0.47226 0.36689 0.15656 0.0
C674 C 0.54185 0.40668 0.17024 0.0
C675 C 0.47861 0.44221 0.17079 0.0
C676 C 0.47013 0.47058 0.14189 0.0
C677 C 0.45113 0.50444 0.15139 0.0
C678 C 0.43786 0.50796 0.1908 0.0
C679 C 0.44304 0.47746 0.21995 0.0
C680 C 0.46532 0.44516 0.21022 0.0
H681 H 0.87011 0.20833 0.2542 0.0
H682 H 0.94511 0.3208 0.28544 0.0
H683 H 0.91597 0.31986 0.35309 0.0
H684 H 0.78016 0.22728 0.30876 0.0
H685 H 0.77108 0.17475 0.3228 0.0
H686 H 0.7951 0.18841 0.2762 0.0
H687 H 0.85582 0.14949 0.30047 0.0
H688 H 0.83177 0.13682 0.34702 0.0
H689 H 0.88254 0.16308 0.34857 0.0
H690 H 0.88438 0.30068 0.42116 0.0
H691 H 0.85658 0.26384 0.48098 0.0
H692 H 0.79836 0.16829 0.40171 0.0
C693 C 0.87976 0.23345 0.27465 0.0
C694 C 0.90976 0.26481 0.26413 0.0
C695 C 0.92235 0.29628 0.29272 0.0
C696 C 0.90566 0.29619 0.33114 0.0
C697 C 0.87623 0.26453 0.34048 0.0
C698 C 0.86356 0.23377 0.31285 0.0
C699 C 0.83455 0.20119 0.331 0.0
C700 C 0.7927 0.19768 0.30828 0.0
C701 C 0.85224 0.16026 0.33183 0.0
C702 C 0.83268 0.21813 0.37323 0.0
C703 C 0.85696 0.25466 0.37852 0.0
C704 C 0.86424 0.2728 0.41693 0.0
C705 C 0.84787 0.25208 0.45072 0.0
C706 C 0.824 0.21414 0.44557 0.0
C707 C 0.81482 0.19822 0.4061 0.0
H708 H 0.05775 0.06915 0.44364 0.0
H709 H 0.99463 0.98702 0.35292 0.0
H710 H 0.9288 0.99674 0.38158 0.0
H711 H 0.99357 0.04492 0.52929 0.0
H712 H 0.99968 0.0974 0.54398 0.0
H713 H 0.03812 0.0764 0.51646 0.0
H714 H 0.03078 0.13594 0.46466 0.0
H715 H 0.98942 0.15187 0.49132 0.0
H716 H 0.982 0.13853 0.43821 0.0
H717 H 0.86988 0.01477 0.42176 0.0
H718 H 0.82213 0.05103 0.4592 0.0
H719 H 0.92403 0.12311 0.52153 0.0
C720 C 0.03011 0.05272 0.43024 0.0
C721 C 0.03129 0.0267 0.39658 0.0
C722 C 0.99434 0.007 0.37879 0.0
C723 C 0.95691 0.01215 0.39504 0.0
C724 C 0.95695 0.03732 0.42892 0.0
C725 C 0.99255 0.05805 0.44561 0.0
C726 C 0.98413 0.08656 0.47911 0.0
C727 C 1.00503 0.07578 0.5197 0.0
C728 C 0.99734 0.13083 0.46761 0.0
C729 C 0.93832 0.07781 0.47964 0.0
C730 C 0.92316 0.04896 0.45079 0.0
C731 C 0.88146 0.03726 0.44452 0.0
C732 C 0.85454 0.0574 0.46646 0.0
C733 C 0.8695 0.08897 0.494 0.0
C734 C 0.91192 0.09807 0.50174 0.0
H735 H 0.2693 0.83573 0.67164 0.0
H736 H 0.31289 0.79109 0.56047 0.0
H737 H 0.31056 0.72283 0.58956 0.0
H738 H 0.31659 0.75813 0.74402 0.0
H739 H 0.27234 0.75497 0.7737 0.0
H740 H 0.29022 0.80205 0.74988 0.0
H741 H 0.21823 0.80369 0.71418 0.0
H742 H 0.20106 0.75679 0.7379 0.0
H743 H 0.19639 0.76101 0.68333 0.0
H744 H 0.28965 0.65845 0.62256 0.0
H745 H 0.24567 0.60332 0.65353 0.0
H746 H 0.21311 0.68691 0.74323 0.0
C747 C 0.27985 0.81185 0.65412 0.0
C748 C 0.2918 0.81893 0.61397 0.0
C749 C 0.304 0.7866 0.59142 0.0
C750 C 0.30315 0.74768 0.60788 0.0
C751 C 0.28988 0.74128 0.64699 0.0
C752 C 0.27853 0.77251 0.66999 0.0
C753 C 0.25862 0.7563 0.70801 0.0
C754 C 0.28608 0.76861 0.74616 0.0
C755 C 0.21606 0.77024 0.71096 0.0
C756 C 0.25653 0.71106 0.70044 0.0
C757 C 0.27672 0.70312 0.66619 0.0
C758 C 0.27486 0.66412 0.65009 0.0
C759 C 0.25009 0.63285 0.66804 0.0
C760 C 0.22728 0.6408 0.70151 0.0
C761 C 0.23188 0.67994 0.71891 0.0
H762 H 0.48554 0.99525 0.92329 0.0
H763 H 0.53443 0.0923 0.84613 0.0
H764 H 0.60272 0.09012 0.88017 0.0
H765 H 0.55502 0.02016 0.01755 0.0
H766 H 0.55584 0.96682 0.02619 0.0
H767 H 0.51166 0.98527 1.00144 0.0
H768 H 0.5179 0.93452 0.9423 0.0
H769 H 0.56344 0.91915 0.96655 0.0
H770 H 0.56424 0.93879 0.91559 0.0
H771 H 0.667 0.06978 0.9147 0.0
H772 H 0.72075 0.02887 0.94064 0.0
H773 H 0.62992 0.94594 0.99588 0.0
C774 C 0.5103 0.01704 0.91454 0.0
C775 C 0.50458 0.04429 0.88238 0.0
C776 C 0.53815 0.07119 0.8707 0.0
C777 C 0.57693 0.07044 0.89021 0.0
C778 C 0.58168 0.04263 0.9214 0.0
C779 C 0.54915 0.01631 0.93335 0.0
C780 C 0.56296 0.98509 0.96289 0.0
C781 C 0.54537 0.9896 1.00454 0.0
C782 C 0.55149 0.94188 0.94578 0.0
C783 C 0.60853 0.99704 0.9648 0.0
C784 C 0.6188 0.03084 0.94135 0.0
C785 C 0.65933 0.04408 0.9341 0.0
C786 C 0.68979 0.02099 0.94929 0.0
C787 C 0.67943 0.98514 0.97128 0.0
C788 C 0.63861 0.97427 0.98068 0.0
H789 H 0.30324 0.21954 0.18227 0.0
H790 H 0.22911 0.27309 0.08902 0.0
H791 H 0.2295 0.33411 0.13205 0.0
H792 H 0.26123 0.26936 0.27312 0.0
H793 H 0.31131 0.2731 0.29832 0.0
H794 H 0.29444 0.23201 0.26321 0.0
H795 H 0.36059 0.25309 0.22452 0.0
H796 H 0.3744 0.29504 0.25864 0.0
H797 H 0.36868 0.30381 0.20473 0.0
H798 H 0.24529 0.39252 0.18137 0.0
H799 H 0.28233 0.44527 0.22667 0.0
H800 H 0.34912 0.35504 0.28564 0.0
C801 C 0.28609 0.24362 0.17139 0.0
C802 C 0.26579 0.24139 0.13246 0.0
C803 C 0.24468 0.27404 0.11885 0.0
C804 C 0.2445 0.30871 0.14323 0.0
C805 C 0.2657 0.31038 0.18112 0.0
C806 C 0.28624 0.27869 0.195 0.0
C807 C 0.31097 0.28987 0.23423 0.0
C808 C 0.29348 0.26462 0.26942 0.0
C809 C 0.35633 0.28521 0.23024 0.0
C810 C 0.3037 0.33372 0.23873 0.0
C811 C 0.27612 0.34454 0.20877 0.0
C812 C 0.26643 0.3842 0.20529 0.0
C813 C 0.28713 0.4139 0.23155 0.0
C814 C 0.31777 0.40393 0.2602 0.0
C815 C 0.32484 0.36307 0.2649 0.0
H816 H 0.07349 0.99083 0.17111 0.0
H817 H 0.02869 0.0941 0.22653 0.0
H818 H 0.9706 0.0889 0.17579 0.0
H819 H 0.03819 0.01262 0.06268 0.0
H820 H 0.02563 0.95925 0.05251 0.0
H821 H 0.06725 0.97647 0.08818 0.0
H822 H 0.03345 0.92936 0.14306 0.0
H823 H 0.99231 0.91273 0.10706 0.0
H824 H 0.98176 0.93427 0.15496 0.0
H825 H 0.91201 0.06577 0.12617 0.0
H826 H 0.85682 0.02308 0.08746 0.0
H827 H 0.94128 0.93782 0.06126 0.0
C828 C 0.05208 0.01307 0.17187 0.0
C829 C 0.05575 0.04294 0.20272 0.0
C830 C 0.02675 0.07112 0.20301 0.0
C831 C 0.99368 0.0685 0.17417 0.0
C832 C 0.99062 0.03833 0.1444 0.0
C833 C 0.0193 0.0113 0.14289 0.0
C834 C 0.00674 0.97883 0.11104 0.0
C835 C 0.03624 0.98202 0.07657 0.0
C836 C 1.00334 0.93633 0.13019 0.0
C837 C 0.96551 0.99044 0.09639 0.0
C838 C 0.95702 0.02537 0.1153 0.0
C839 C 0.91866 0.03895 0.11044 0.0
C840 C 0.88753 0.01483 0.08796 0.0
C841 C 0.89508 0.9776 0.07093 0.0
C842 C 0.93515 0.96677 0.07309 0.0
H843 H 0.23802 0.76948 0.43776 0.0
H844 H 0.29291 0.84145 0.34136 0.0
H845 H 0.30318 0.77867 0.30484 0.0
H846 H 0.30505 0.69656 0.44057 0.0
H847 H 0.26735 0.655 0.45134 0.0
H848 H 0.26031 0.70551 0.46634 0.0
H849 H 0.19009 0.69833 0.42582 0.0
H850 H 0.19767 0.64785 0.41034 0.0
H851 H 0.18728 0.68511 0.37263 0.0
H852 H 0.3154 0.70876 0.28352 0.0
H853 H 0.33499 0.63926 0.28378 0.0
H854 H 0.26836 0.61247 0.39157 0.0
C855 C 0.25165 0.77202 0.40866 0.0
C856 C 0.26463 0.8103 0.39234 0.0
C857 C 0.28221 0.81245 0.3541 0.0
C858 C 0.28822 0.77699 0.33321 0.0
C859 C 0.27563 0.73968 0.35051 0.0
C860 C 0.25742 0.73703 0.38727 0.0
C861 C 0.24927 0.69353 0.40087 0.0
C862 C 0.27184 0.6873 0.44219 0.0
C863 C 0.20335 0.68046 0.40249 0.0
C864 C 0.26709 0.67213 0.36673 0.0
C865 C 0.28145 0.69916 0.33751 0.0
C866 C 0.30363 0.68716 0.30575 0.0
C867 C 0.31408 0.64739 0.30568 0.0
C868 C 0.30269 0.62051 0.33741 0.0
C869 C 0.27639 0.6322 0.36639 0.0
H870 H 0.52988 0.98827 0.70926 0.0
H871 H 0.44153 0.05099 0.63966 0.0
H872 H 0.4906 0.06587 0.58681 0.0
H873 H 0.61017 0.05746 0.69451 0.0
H874 H 0.64767 0.02251 0.69133 0.0
H875 H 0.60289 0.00862 0.71857 0.0
H876 H 0.58689 0.94416 0.67372 0.0
H877 H 0.63119 0.95857 0.64531 0.0
H878 H 0.58173 0.94878 0.61926 0.0
H879 H 0.55059 0.08328 0.54692 0.0
H880 H 0.61985 0.1112 0.53028 0.0
H881 H 0.6704 0.0383 0.62458 0.0
C882 C 0.5202 1.00354 0.682 0.0
C883 C 0.48164 0.01795 0.67845 0.0
C884 C 0.4707 0.03922 0.64299 0.0
C885 C 0.49811 0.04728 0.61235 0.0
C886 C 0.53616 0.03332 0.61697 0.0
C887 C 0.54733 0.01198 0.65105 0.0
C888 C 0.59226 0.00674 0.65215 0.0
C889 C 0.61452 0.02495 0.69143 0.0
C890 C 0.59836 0.9619 0.64731 0.0
C891 C 0.60509 0.03076 0.6149 0.0
C892 C 0.57194 0.04454 0.59418 0.0
C893 C 0.57663 0.0717 0.56201 0.0
C894 C 0.61614 0.08708 0.55236 0.0
C895 C 0.65032 0.07589 0.57536 0.0
C896 C 0.64471 0.04574 0.6054 0.0
H897 H 0.26701 0.31115 0.95085 0.0
H898 H 0.26742 0.23789 0.84194 0.0
H899 H 0.25168 0.29636 0.80025 0.0
H900 H 0.18251 0.3606 0.91911 0.0
H901 H 0.20193 0.4086 0.94214 0.0
H902 H 0.21759 0.36253 0.96312 0.0
H903 H 0.29312 0.39108 0.9558 0.0
H904 H 0.27729 0.43686 0.93399 0.0
H905 H 0.30966 0.40771 0.90671 0.0
H906 H 0.22902 0.35963 0.7699 0.0
H907 H 0.19717 0.42226 0.75535 0.0
H908 H 0.213 0.45484 0.88301 0.0
C909 C 0.26402 0.30726 0.91821 0.0
C910 C 0.26883 0.26972 0.89987 0.0
C911 C 0.26468 0.2663 0.8569 0.0
C912 C 0.2556 0.29923 0.83282 0.0
C913 C 0.25103 0.33561 0.85178 0.0
C914 C 0.25507 0.33986 0.89353 0.0
C915 C 0.24585 0.38139 0.90647 0.0
C916 C 0.20983 0.37806 0.93434 0.0
C917 C 0.28378 0.40567 0.92697 0.0
C918 C 0.23473 0.39923 0.86555 0.0
C919 C 0.23842 0.37257 0.83426 0.0
C920 C 0.22657 0.38103 0.79409 0.0
C921 C 0.20895 0.4169 0.78595 0.0
C922 C 0.20295 0.44351 0.81794 0.0
C923 C 0.21772 0.43525 0.85788 0.0
H924 H 0.42768 0.08076 0.10664 0.0
H925 H 0.36656 0.05029 0.989 0.0
H926 H 0.39912 0.98695 0.98791 0.0
H927 H 0.52327 0.03729 0.08986 0.0
H928 H 0.52707 0.01919 0.14136 0.0
H929 H 0.50278 0.06392 0.13015 0.0
H930 H 0.43791 0.03311 0.16349 0.0
H931 H 0.46176 0.98836 0.17525 0.0
H932 H 0.41366 0.98427 0.14633 0.0
H933 H 0.4318 0.92229 1.00459 0.0
H934 H 0.45717 0.86301 0.03924 0.0
H935 H 0.49908 0.93819 0.14361 0.0
C936 C 0.42186 0.06148 0.08006 0.0
C937 C 0.39448 0.07078 0.04786 0.0
C938 C 0.38706 0.04379 0.01425 0.0
C939 C 0.40577 0.00787 0.01319 0.0
C940 C 0.43204 0.99937 0.04587 0.0
C941 C 0.44009 0.0256 0.07861 0.0
C942 C 0.466 0.00796 0.11181 0.0
C943 C 0.50732 0.0336 0.11864 0.0
C944 C 0.44348 1.00312 0.15152 0.0
C945 C 0.47081 0.96744 0.09318 0.0
C946 C 0.45125 0.96285 0.05501 0.0
C947 C 0.44791 0.92595 0.03407 0.0
C948 C 0.46298 0.89256 0.05362 0.0
C949 C 0.48113 0.89652 0.09351 0.0
C950 C 0.4868 0.9349 0.11246 0.0
H951 H 0.83618 0.56832 0.04744 0.0
H952 H 0.89626 0.47267 0.99584 0.0
H953 H 0.95205 0.52324 0.97594 0.0
H954 H 0.85354 0.63448 0.96929 0.0
H955 H 0.8605 0.67982 1.00006 0.0
H956 H 0.83031 0.63555 0.0174 0.0
H957 H 0.87628 0.63718 0.08429 0.0
H958 H 0.90616 0.68176 0.06639 0.0
H959 H 0.93054 0.63798 0.08144 0.0
H960 H 0.99591 0.58423 0.95325 0.0
H961 H 0.0183 0.64995 0.92179 0.0
H962 H 0.92997 0.70627 0.98716 0.0
C963 C 0.8618 0.55787 0.03325 0.0
C964 C 0.86204 0.51651 0.02355 0.0
C965 C 0.89547 0.50419 1.00372 0.0
C966 C 0.92749 0.53268 0.99258 0.0
C967 C 0.92587 0.5734 1.0017 0.0
C968 C 0.89382 0.586 0.0216 0.0
C969 C 0.89616 0.63179 0.02248 0.0
C970 C 0.85789 0.64623 1.00101 0.0
C971 C 0.90268 0.6481 0.06626 0.0
C972 C 0.93365 0.64298 0.99872 0.0
C973 C 0.95104 0.60891 0.98799 0.0
C974 C 0.98325 0.61121 0.96224 0.0
C975 C 0.99621 0.64876 0.94491 0.0
C976 C 0.97668 0.68325 0.95315 0.0
C977 C 0.94653 0.68066 0.98194 0.0
H978 H 0.76357 0.62519 0.28406 0.0
H979 H 0.85126 0.71149 0.22837 0.0
H980 H 0.79785 0.75559 0.21191 0.0
H981 H 0.68472 0.63387 0.20934 0.0
H982 H 0.64429 0.62801 0.24395 0.0
H983 H 0.69056 0.60597 0.25583 0.0
H984 H 0.69958 0.64526 0.32486 0.0
H985 H 0.65309 0.6671 0.31237 0.0
H986 H 0.69951 0.6995 0.32482 0.0
H987 H 0.73515 0.78842 0.19709 0.0
H988 H 0.66527 0.80116 0.17481 0.0
H989 H 0.61702 0.69403 0.23858 0.0
C990 C 0.77154 0.65369 0.26898 0.0
C991 C 0.812 0.6656 0.25862 0.0
C992 C 0.821 0.70272 0.23814 0.0
C993 C 0.79085 0.72801 0.22873 0.0
C994 C 0.75158 0.7161 0.24027 0.0
C995 C 0.74162 0.67955 0.25943 0.0
C996 C 0.69611 0.6719 0.26415 0.0
C997 C 0.67786 0.63264 0.24199 0.0
C998 C 0.68653 0.67087 0.30924 0.0
C999 C 0.6821 0.70915 0.24349 0.0
C1000 C 0.71473 0.7347 0.23071 0.0
C1001 C 0.70933 0.76909 0.2076 0.0
C1002 C 0.66953 0.77657 0.19562 0.0
C1003 C 0.63584 0.74931 0.20606 0.0
C1004 C 0.64224 0.71625 0.23178 0.0
H1005 H 0.73431 0.52381 0.55235 0.0
H1006 H 0.6615 0.61135 0.49643 0.0
H1007 H 0.60753 0.55618 0.47657 0.0
H1008 H 0.7163 0.45414 0.47578 0.0
H1009 H 0.71504 0.40984 0.50746 0.0
H1010 H 0.74335 0.4565 0.52491 0.0
H1011 H 0.7027 0.4531 0.58979 0.0
H1012 H 0.67308 0.40683 0.57229 0.0
H1013 H 0.64799 0.44996 0.58547 0.0
H1014 H 0.56635 0.49159 0.45429 0.0
H1015 H 0.54439 0.42294 0.4265 0.0
H1016 H 0.64522 0.37724 0.49378 0.0
C1017 C 0.70637 0.53144 0.53718 0.0
C1018 C 0.70175 0.57183 0.52638 0.0
C1019 C 0.66545 0.58059 0.50522 0.0
C1020 C 0.63454 0.54948 0.49407 0.0
C1021 C 0.64047 0.50976 0.50417 0.0
C1022 C 0.67555 0.50064 0.52521 0.0
C1023 C 0.67711 0.4553 0.52723 0.0
C1024 C 0.71518 0.44327 0.50766 0.0
C1025 C 0.67508 0.44042 0.57131 0.0
C1026 C 0.63849 0.44042 0.50229 0.0
C1027 C 0.61718 0.47223 0.49024 0.0
C1028 C 0.58233 0.46637 0.46415 0.0
C1029 C 0.56979 0.42729 0.44884 0.0
C1030 C 0.59257 0.39493 0.459 0.0
C1031 C 0.62657 0.40135 0.48691 0.0
H1032 H 0.28427 0.93524 0.28344 0.0
H1033 H 0.19752 0.83192 0.24785 0.0
H1034 H 0.25395 0.79546 0.22666 0.0
H1035 H 0.34701 0.92849 0.20081 0.0
H1036 H 0.39397 0.94401 0.22977 0.0
H1037 H 0.34724 0.96066 0.24486 0.0
H1038 H 0.35975 0.93062 0.31664 0.0
H1039 H 0.40624 0.91331 0.3013 0.0
H1040 H 0.36717 0.87792 0.3215 0.0
H1041 H 0.31845 0.7697 0.2083 0.0
H1042 H 0.38573 0.76332 0.18125 0.0
H1043 H 0.43051 0.88257 0.22871 0.0
C1044 C 0.27715 0.90469 0.27175 0.0
C1045 C 0.23644 0.88621 0.26802 0.0
C1046 C 0.22844 0.84629 0.25216 0.0
C1047 C 0.26018 0.8252 0.24023 0.0
C1048 C 0.29991 0.8438 0.24518 0.0
C1049 C 0.30853 0.88286 0.26012 0.0
C1050 C 0.35358 0.89711 0.25902 0.0
C1051 C 0.36086 0.93477 0.232 0.0
C1052 C 0.37282 0.90522 0.30219 0.0
C1053 C 0.36862 0.86033 0.24017 0.0
C1054 C 0.33734 0.82951 0.23326 0.0
C1055 C 0.34333 0.79348 0.21386 0.0
C1056 C 0.38174 0.78982 0.19904 0.0
C1057 C 0.41335 0.82216 0.20342 0.0
C1058 C 0.40705 0.85705 0.22577 0.0
H1059 H 0.13737 0.99599 0.60482 0.0
H1060 H 0.18513 0.02999 0.4883 0.0
H1061 H 0.15086 0.09244 0.48906 0.0
H1062 H 0.04088 0.03046 0.58811 0.0
H1063 H 0.03726 0.05227 0.63767 0.0
H1064 H 0.06525 0.00959 0.63232 0.0
H1065 H 0.13203 0.04468 0.66336 0.0
H1066 H 0.10509 0.08679 0.67502 0.0
H1067 H 0.15044 0.0948 0.64687 0.0
H1068 H 0.11476 0.15451 0.50615 0.0
H1069 H 0.08459 0.20997 0.53982 0.0
H1070 H 0.05716 0.13146 0.64178 0.0
C1071 C 0.14 0.01603 0.57899 0.0
C1072 C 0.1638 0.00789 0.54638 0.0
C1073 C 0.16736 0.03572 0.51379 0.0
C1074 C 0.14776 0.07114 0.51385 0.0
C1075 C 0.12473 0.07829 0.54672 0.0
C1076 C 0.12081 0.05133 0.57862 0.0
C1077 C 0.09644 0.06673 0.61152 0.0
C1078 C 0.05762 0.03805 0.61772 0.0
C1079 C 0.12258 0.07368 0.65154 0.0
C1080 C 0.08668 0.1063 0.59305 0.0
C1081 C 0.10362 0.113 0.55594 0.0
C1082 C 0.10118 0.14938 0.53508 0.0
C1083 C 0.08328 0.18046 0.55394 0.0
C1084 C 0.06783 0.17457 0.59291 0.0
C1085 C 0.06768 0.13626 0.61142 0.0
H1086 H 0.82074 0.42763 0.31289 0.0
H1087 H 0.75915 0.46704 0.20287 0.0
H1088 H 0.70013 0.4166 0.21429 0.0
H1089 H 0.77738 0.31771 0.30544 0.0
H1090 H 0.77293 0.31415 0.35959 0.0
H1091 H 0.81352 0.34758 0.33926 0.0
H1092 H 0.79146 0.4087 0.37756 0.0
H1093 H 0.75184 0.37559 0.39917 0.0
H1094 H 0.73941 0.41963 0.37133 0.0
H1095 H 0.64363 0.37095 0.24397 0.0
H1096 H 0.59434 0.33931 0.29154 0.0
H1097 H 0.69286 0.32817 0.38112 0.0
C1098 C 0.79525 0.42499 0.29064 0.0
C1099 C 0.79465 0.45125 0.25692 0.0
C1100 C 0.76046 0.44714 0.22882 0.0
C1101 C 0.72684 0.41837 0.23495 0.0
C1102 C 0.72808 0.39344 0.26899 0.0
C1103 C 0.76162 0.39634 0.29623 0.0
C1104 C 0.7537 0.36975 0.33292 0.0
C1105 C 0.78097 0.33525 0.33437 0.0
C1106 C 0.7594 0.39493 0.37254 0.0
C1107 C 0.70949 0.35363 0.3235 0.0
C1108 C 0.69555 0.36654 0.28587 0.0
C1109 C 0.65443 0.35972 0.27295 0.0
C1110 C 0.62659 0.34141 0.29999 0.0
C1111 C 0.64003 0.3307 0.33958 0.0
C1112 C 0.68214 0.33501 0.35052 0.0
H1113 H 0.78341 0.5773 0.74864 0.0
H1114 H 0.6912 0.63036 0.81206 0.0
H1115 H 0.73985 0.69099 0.82809 0.0
H1116 H 0.86033 0.60309 0.82003 0.0
H1117 H 0.90034 0.61319 0.78528 0.0
H1118 H 0.85602 0.57891 0.77076 0.0
H1119 H 0.84425 0.62176 0.7065 0.0
H1120 H 0.88793 0.65727 0.72126 0.0
H1121 H 0.8388 0.67478 0.71159 0.0
H1122 H 0.80002 0.74087 0.84548 0.0
H1123 H 0.86855 0.77142 0.87016 0.0
H1124 H 0.92295 0.6846 0.79935 0.0
C1125 C 0.77323 0.60233 0.76474 0.0
C1126 C 0.73355 0.59956 0.7787 0.0
C1127 C 0.7215 0.63213 0.80095 0.0
C1128 C 0.74879 0.66681 0.80985 0.0
C1129 C 0.78812 0.66832 0.79654 0.0
C1130 C 0.80044 0.63681 0.77466 0.0
C1131 C 0.84587 0.64305 0.7695 0.0
C1132 C 0.86685 0.60747 0.78749 0.0
C1133 C 0.85474 0.64961 0.72454 0.0
C1134 C 0.8575 0.68163 0.79395 0.0
C1135 C 0.82354 0.69654 0.80799 0.0
C1136 C 0.82678 0.73 0.83401 0.0
C1137 C 0.86575 0.74752 0.8475 0.0
C1138 C 0.90072 0.73105 0.83551 0.0
C1139 C 0.89657 0.69863 0.80744 0.0
H1140 H 0.59472 0.88523 0.54433 0.0
H1141 H 0.52569 0.79468 0.46604 0.0
H1142 H 0.52124 0.84529 0.41154 0.0
H1143 H 0.54752 0.97514 0.50688 0.0
H1144 H 0.59532 0.00711 0.50797 0.0
H1145 H 0.5878 0.96626 0.54373 0.0
H1146 H 0.65152 0.93627 0.52038 0.0
H1147 H 0.66 0.97808 0.48618 0.0
H1148 H 0.6559 0.9269 0.467 0.0
H1149 H 0.52765 0.90403 0.36422 0.0
H1150 H 0.55898 0.95942 0.32243 0.0
H1151 H 0.62791 0.01134 0.42888 0.0
C1152 C 0.57839 0.87642 0.51576 0.0
C1153 C 0.56016 0.83621 0.50939 0.0
C1154 C 0.53974 0.8253 0.47146 0.0
C1155 C 0.53662 0.85403 0.44058 0.0
C1156 C 0.55454 0.89359 0.44784 0.0
C1157 C 0.57596 0.90456 0.48414 0.0
C1158 C 0.59769 0.94717 0.48188 0.0
C1159 C 0.58104 0.97557 0.51193 0.0
C1160 C 0.644 0.94707 0.48925 0.0
C1161 C 0.58618 0.95792 0.43827 0.0
C1162 C 0.55996 0.92717 0.41969 0.0
C1163 C 0.5477 0.92858 0.37856 0.0
C1164 C 0.56508 0.96059 0.35508 0.0
C1165 C 0.59512 0.9901 0.37261 0.0
C1166 C 0.60384 0.99003 0.41514 0.0
H1167 H 0.41336 0.37473 0.8354 0.0
H1168 H 0.45711 0.2583 0.81721 0.0
H1169 H 0.41772 0.25078 0.7513 0.0
H1170 H 0.3104 0.34996 0.78527 0.0
H1171 H 0.31124 0.39986 0.76381 0.0
H1172 H 0.33851 0.39267 0.81169 0.0
H1173 H 0.40486 0.42706 0.78138 0.0
H1174 H 0.37719 0.43358 0.73381 0.0
H1175 H 0.4216 0.40688 0.73524 0.0
H1176 H 0.37824 0.25897 0.684 0.0
H1177 H 0.34845 0.28534 0.62016 0.0
H1178 H 0.32983 0.39543 0.68275 0.0
C1179 C 0.41388 0.34713 0.8181 0.0
C1180 C 0.43811 0.31692 0.83184 0.0
C1181 C 0.43854 0.28173 0.80766 0.0
C1182 C 0.41605 0.2771 0.77017 0.0
C1183 C 0.39265 0.30757 0.7574 0.0
C1184 C 0.39152 0.34196 0.78069 0.0
C1185 C 0.36745 0.37213 0.75849 0.0
C1186 C 0.32967 0.37911 0.78122 0.0
C1187 C 0.39439 0.41226 0.75183 0.0
C1188 C 0.35563 0.3497 0.7188 0.0
C1189 C 0.37003 0.31228 0.71882 0.0
C1190 C 0.366 0.28778 0.68404 0.0
C1191 C 0.34848 0.30266 0.648 0.0
C1192 C 0.33561 0.34176 0.64696 0.0
C1193 C 0.33783 0.36473 0.68325 0.0
H1194 H 0.03263 0.22592 0.03047 0.0
H1195 H 0.00685 0.12752 0.11485 0.0
H1196 H 0.99756 0.07876 0.05769 0.0
H1197 H 0.95973 0.19409 0.95733 0.0
H1198 H 0.98917 0.20909 0.91437 0.0
H1199 H 1.00089 0.2346 0.96227 0.0
H1200 H 0.07538 0.21753 0.9613 0.0
H1201 H 0.06354 0.19156 0.91334 0.0
H1202 H 0.08503 0.16558 0.95591 0.0
H1203 H 0.97725 0.04313 0.99121 0.0
H1204 H 0.9493 0.02473 0.92152 0.0
H1205 H 0.99286 0.14473 0.8804 0.0
C1206 C 0.02599 0.194 0.03705 0.0
C1207 C 0.02031 0.18058 0.07722 0.0
C1208 C 0.01135 0.13855 0.08442 0.0
C1209 C 1.00613 0.11057 0.05213 0.0
C1210 C 0.01064 0.12493 0.01276 0.0
C1211 C 0.02106 0.16563 1.00517 0.0
C1212 C 0.02062 0.1738 0.95998 0.0
C1213 C 0.99082 0.20468 0.94781 0.0
C1214 C 0.06371 0.18795 0.94687 0.0
C1215 C 1.00575 0.13188 0.9434 0.0
C1216 C 1.00074 0.10386 0.97422 0.0
C1217 C 0.98218 0.06444 0.96664 0.0
C1218 C 0.96673 0.05402 0.92692 0.0
C1219 C 0.96964 0.08311 0.89561 0.0
C1220 C 0.99134 0.12166 0.90367 0.0
H1221 H 0.09709 0.77057 0.24318 0.0
H1222 H 0.19755 0.74573 0.32516 0.0
H1223 H 0.23426 0.72412 0.26715 0.0
H1224 H 0.09992 0.68423 0.17993 0.0
H1225 H 0.08591 0.70952 0.13375 0.0
H1226 H 0.06978 0.72598 0.18157 0.0
H1227 H 0.10341 0.79866 0.16726 0.0
H1228 H 0.12074 0.78199 0.11988 0.0
H1229 H 0.15674 0.80666 0.15761 0.0
H1230 H 0.25914 0.7029 0.20123 0.0
H1231 H 0.26395 0.67115 0.13408 0.0
H1232 H 0.1475 0.70924 0.09442 0.0
C1233 C 0.12695 0.76087 0.24886 0.0
C1234 C 0.14511 0.76068 0.28874 0.0
C1235 C 0.18394 0.74727 0.29485 0.0
C1236 C 0.20479 0.73474 0.26217 0.0
C1237 C 0.18667 0.7363 0.22319 0.0
C1238 C 0.14836 0.74844 0.21639 0.0
C1239 C 0.13434 0.74391 0.17191 0.0
C1240 C 0.0952 0.71414 0.16648 0.0
C1241 C 0.12847 0.78528 0.15306 0.0
C1242 C 0.17046 0.72666 0.15502 0.0
C1243 C 0.20078 0.72341 0.18495 0.0
C1244 C 0.23583 0.70564 0.17736 0.0
C1245 C 0.23867 0.68822 0.13894 0.0
C1246 C 0.20644 0.68835 0.10895 0.0
C1247 C 0.17304 0.70974 0.11651 0.0
H1248 H 0.54952 0.1938 0.99252 0.0
H1249 H 0.45234 0.24359 0.05138 0.0
H1250 H 0.46439 0.20148 0.11169 0.0
H1251 H 0.53235 0.08974 0.03393 0.0
H1252 H 0.58627 0.08593 0.04024 0.0
H1253 H 0.56679 0.11607 0.99981 0.0
H1254 H 0.6154 0.17857 0.02576 0.0
H1255 H 0.63542 0.14833 0.06555 0.0
H1256 H 0.61485 0.19435 0.07804 0.0
H1257 H 0.49216 0.15954 0.16845 0.0
H1258 H 0.53794 0.12778 0.21779 0.0
H1259 H 0.61371 0.10231 0.12047 0.0
C1260 C 0.52986 0.19487 0.01757 0.0
C1261 C 0.49968 0.22162 0.01705 0.0
C1262 C 0.47519 0.2228 0.05079 0.0
C1263 C 0.48172 0.19885 0.08515 0.0
C1264 C 0.51174 0.17269 0.08472 0.0
C1265 C 0.53537 0.17056 0.05167 0.0
C1266 C 0.56866 0.14368 0.06032 0.0
C1267 C 0.56314 0.10664 0.03188 0.0
C1268 C 0.61105 0.16767 0.05726 0.0
C1269 C 0.56074 0.13167 0.10374 0.0
C1270 C 0.52756 0.14838 0.11729 0.0
C1271 C 0.51757 0.14548 0.15793 0.0
C1272 C 0.54332 0.12685 0.18571 0.0
C1273 C 0.57854 0.11158 0.17263 0.0
C1274 C 0.58603 0.11232 0.13084 0.0
H1275 H 0.08685 0.23846 0.28811 0.0
H1276 H 0.14418 0.31993 0.19998 0.0
H1277 H 0.20299 0.33664 0.24883 0.0
H1278 H 0.11022 0.30053 0.36976 0.0
H1279 H 0.11857 0.26129 0.40604 0.0
H1280 H 0.08577 0.24965 0.36143 0.0
H1281 H 0.12934 0.193 0.34316 0.0
H1282 H 0.16327 0.2053 0.38724 0.0
H1283 H 0.18308 0.20526 0.33739 0.0
H1284 H 0.25094 0.35152 0.3093 0.0
H1285 H 0.27746 0.37142 0.37878 0.0
H1286 H 0.18851 0.28217 0.42831 0.0
C1287 C 0.1124 0.2588 0.27852 0.0
C1288 C 0.11102 0.27757 0.24003 0.0
C1289 C 0.14459 0.30493 0.22916 0.0
C1290 C 0.17846 0.3142 0.25651 0.0
C1291 C 0.17865 0.29559 0.29446 0.0
C1292 C 0.1463 0.26859 0.30554 0.0
C1293 C 0.15089 0.25755 0.35005 0.0
C1294 C 0.11422 0.26791 0.37315 0.0
C1295 C 0.15702 0.21261 0.35474 0.0
C1296 C 0.18947 0.2846 0.36298 0.0
C1297 C 0.20595 0.30506 0.33011 0.0
C1298 C 0.23914 0.33485 0.33507 0.0
C1299 C 0.25434 0.34571 0.37466 0.0
C1300 C 0.23575 0.32744 0.4087 0.0
C1301 C 0.20425 0.29527 0.40267 0.0
H1302 H 0.0309 0.87269 0.52968 0.0
H1303 H 0.97 0.94971 0.44657 0.0
H1304 H 0.94951 0.98837 0.50452 0.0
H1305 H 0.95483 0.87052 0.60526 0.0
H1306 H 0.99161 0.86891 0.64747 0.0
H1307 H 1.00101 0.84789 0.59905 0.0
H1308 H 0.06933 0.89253 0.6013 0.0
H1309 H 0.06004 0.91805 0.64752 0.0
H1310 H 0.0709 0.94669 0.60211 0.0
H1311 H 0.93759 0.02039 0.57106 0.0
H1312 H 0.92307 0.03412 0.64213 0.0
H1313 H 0.99128 0.93652 0.68257 0.0
C1314 C 0.01374 0.8981 0.52386 0.0
C1315 C 1.00297 0.90927 0.48366 0.0
C1316 C 0.97983 0.94205 0.47709 0.0
C1317 C 0.96823 0.96415 0.50976 0.0
C1318 C 0.98082 0.95371 0.54897 0.0
C1319 C 1.00235 0.92094 0.55627 0.0
C1320 C 0.00938 0.91429 0.60151 0.0
C1321 C 0.98793 0.87297 0.61405 0.0
C1322 C 0.05511 0.91817 0.61389 0.0
C1323 C 0.98908 0.94891 0.61838 0.0
C1324 C 0.97281 0.9713 0.58752 0.0
C1325 C 0.95059 1.00338 0.59551 0.0
C1326 C 0.943 0.01146 0.636 0.0
C1327 C 0.95692 0.98709 0.66778 0.0
C1328 C 0.98155 0.95648 0.65889 0.0
H1329 H 0.44771 0.70204 0.77376 0.0
H1330 H 0.36286 0.64423 0.68131 0.0
H1331 H 0.30915 0.63589 0.73148 0.0
H1332 H 0.41522 0.64056 0.85464 0.0
H1333 H 0.42234 0.68045 0.8923 0.0
H1334 H 0.45235 0.68386 0.84844 0.0
H1335 H 0.42769 0.75344 0.83114 0.0
H1336 H 0.39689 0.74992 0.87467 0.0
H1337 H 0.37391 0.7575 0.82477 0.0
H1338 H 0.26576 0.63115 0.79235 0.0
H1339 H 0.24138 0.61898 0.86146 0.0
H1340 H 0.35304 0.68408 0.91289 0.0
C1341 C 0.41756 0.68803 0.76416 0.0
C1342 C 0.40916 0.67335 0.72406 0.0
C1343 C 0.36958 0.65541 0.71208 0.0
C1344 C 0.33883 0.65132 0.74003 0.0
C1345 C 0.34769 0.66686 0.77924 0.0
C1346 C 0.38626 0.68469 0.79132 0.0
C1347 C 0.38905 0.6958 0.83601 0.0
C1348 C 0.42165 0.67386 0.85922 0.0
C1349 C 0.39738 0.74191 0.84198 0.0
C1350 C 0.34649 0.68009 0.84765 0.0
C1351 C 0.32273 0.66421 0.81435 0.0
C1352 C 0.28373 0.6442 0.81849 0.0
C1353 C 0.26977 0.63794 0.85783 0.0
C1354 C 0.29485 0.65157 0.89239 0.0
C1355 C 0.33266 0.67478 0.88687 0.0
H1356 H 0.54004 0.56176 0.93215 0.0
H1357 H 0.49715 0.44583 0.87641 0.0
H1358 H 0.4306 0.44682 0.90757 0.0
H1359 H 0.49179 0.55303 0.02442 0.0
H1360 H 0.47578 0.60302 0.02477 0.0
H1361 H 0.52075 0.59374 0.99961 0.0
H1362 H 0.49458 0.62034 0.93148 0.0
H1363 H 0.45057 0.63344 0.95571 0.0
H1364 H 0.44437 0.60157 0.91105 0.0
H1365 H 0.36767 0.46326 0.94172 0.0
H1366 H 0.31081 0.49861 0.96404 0.0
H1367 H 0.39536 0.60366 0.99715 0.0
C1368 C 0.51661 0.5365 0.92692 0.0
C1369 C 0.52346 0.50344 0.90255 0.0
C1370 C 0.49208 0.47132 0.89514 0.0
C1371 C 0.45452 0.47156 0.91298 0.0
C1372 C 0.44882 0.50458 0.9374 0.0
C1373 C 0.47878 0.53688 0.94346 0.0
C1374 C 0.46373 0.57095 0.96654 0.0
C1375 C 0.48947 0.58075 1.00626 0.0
C1376 C 0.46327 0.60881 0.93961 0.0
C1377 C 0.42097 0.55227 0.97416 0.0
C1378 C 0.41288 0.51388 0.95722 0.0
C1379 C 0.37381 0.49291 0.95574 0.0
C1380 C 0.34173 0.51283 0.9691 0.0
C1381 C 0.34903 0.55321 0.98341 0.0
C1382 C 0.38941 0.57209 0.98817 0.0
H1383 H 0.77812 0.29943 0.07577 0.0
H1384 H 0.77957 0.38869 0.17188 0.0
H1385 H 0.76586 0.33388 0.22155 0.0
H1386 H 0.69698 0.23569 0.10669 0.0
H1387 H 0.71627 0.18923 0.09337 0.0
H1388 H 0.73231 0.23512 0.06709 0.0
H1389 H 0.80758 0.22589 0.08633 0.0
H1390 H 0.79174 0.18005 0.11326 0.0
H1391 H 0.82388 0.2207 0.13893 0.0
H1392 H 0.73616 0.27119 0.2564 0.0
H1393 H 0.70114 0.20463 0.27542 0.0
H1394 H 0.72575 0.15529 0.15926 0.0
C1395 C 0.77666 0.30748 0.10744 0.0
C1396 C 0.77965 0.34845 0.11989 0.0
C1397 C 0.77712 0.35759 0.16158 0.0
C1398 C 0.76948 0.32664 0.19006 0.0
C1399 C 0.76521 0.28658 0.17654 0.0
C1400 C 0.76944 0.27691 0.13631 0.0
C1401 C 0.76018 0.23175 0.1289 0.0
C1402 C 0.72432 0.22244 0.09717 0.0
C1403 C 0.79811 0.21352 0.1161 0.0
C1404 C 0.74867 0.21769 0.17088 0.0
C1405 C 0.75162 0.24978 0.19797 0.0
C1406 C 0.73577 0.24543 0.23629 0.0
C1407 C 0.71615 0.20749 0.24703 0.0
C1408 C 0.71293 0.17442 0.21972 0.0
C1409 C 0.73028 0.17949 0.18163 0.0
H1410 H 0.04742 0.52271 0.36254 0.0
H1411 H 0.96937 0.49853 0.46256 0.0
H1412 H 0.02548 0.47241 0.50327 0.0
H1413 H 0.09668 0.43511 0.37241 0.0
H1414 H 0.14579 0.45918 0.35948 0.0
H1415 H 0.10034 0.47918 0.34031 0.0
H1416 H 0.12769 0.54931 0.37182 0.0
H1417 H 0.17306 0.52917 0.3915 0.0
H1418 H 0.14211 0.55312 0.42535 0.0
H1419 H 0.08884 0.44438 0.5311 0.0
H1420 H 0.152 0.41108 0.54073 0.0
H1421 H 0.18914 0.45517 0.42329 0.0
C1422 C 0.04235 0.51229 0.39315 0.0
C1423 C 1.00406 0.51291 0.40969 0.0
C1424 C 0.99858 0.4989 0.44978 0.0
C1425 C 0.03027 0.48397 0.47302 0.0
C1426 C 0.06777 0.48405 0.45601 0.0
C1427 C 0.07396 0.49786 0.41697 0.0
C1428 C 0.11633 0.49229 0.40484 0.0
C1429 C 0.11466 0.4648 0.36705 0.0
C1430 C 0.14126 0.53342 0.39798 0.0
C1431 C 0.13238 0.47183 0.44251 0.0
C1432 C 0.10429 0.46806 0.47209 0.0
C1433 C 0.11135 0.44763 0.50841 0.0
C1434 C 0.14735 0.42908 0.51383 0.0
C1435 C 0.17534 0.4309 0.48289 0.0
C1436 C 0.16834 0.45382 0.44759 0.0
H1437 H 0.85332 0.73125 0.65092 0.0
H1438 H 0.73793 0.76088 0.59784 0.0
H1439 H 0.74005 0.81823 0.64633 0.0
H1440 H 0.84355 0.7632 0.75611 0.0
H1441 H 0.89573 0.78573 0.76211 0.0
H1442 H 0.88227 0.74286 0.72859 0.0
H1443 H 0.91275 0.7827 0.66798 0.0
H1444 H 0.92811 0.82496 0.70139 0.0
H1445 H 0.89685 0.8316 0.6559 0.0
H1446 H 0.76001 0.87802 0.69379 0.0
H1447 H 0.79971 0.93776 0.72722 0.0
H1448 H 0.90132 0.86852 0.7499 0.0
C1449 C 0.82791 0.74909 0.65036 0.0
C1450 C 0.79508 0.74129 0.62129 0.0
C1451 C 0.76318 0.76625 0.62025 0.0
C1452 C 0.76401 0.79864 0.64786 0.0
C1453 C 0.79722 0.80593 0.67594 0.0
C1454 C 0.82885 0.78208 0.67685 0.0
C1455 C 0.86409 0.79979 0.70485 0.0
C1456 C 0.87191 0.77113 0.74005 0.0
C1457 C 0.90268 0.8104 0.68112 0.0
C1458 C 0.84761 0.83738 0.71967 0.0
C1459 C 0.80879 0.84037 0.70307 0.0
C1460 C 0.78996 0.87549 0.70776 0.0
C1461 C 0.81242 0.90915 0.72741 0.0
C1462 C 0.85317 0.90729 0.74183 0.0
C1463 C 0.86968 0.87008 0.74044 0.0
H1464 H 0.58736 0.43973 0.65156 0.0
H1465 H 0.55738 0.55107 0.70452 0.0
H1466 H 0.50038 0.55258 0.65314 0.0
H1467 H 0.55161 0.45925 0.54302 0.0
H1468 H 0.53064 0.40713 0.53544 0.0
H1469 H 0.57532 0.41948 0.56886 0.0
H1470 H 0.53999 0.38231 0.62867 0.0
H1471 H 0.49607 0.36826 0.59533 0.0
H1472 H 0.49093 0.39512 0.64193 0.0
H1473 H 0.43938 0.53479 0.6068 0.0
H1474 H 0.37709 0.49546 0.57689 0.0
H1475 H 0.4456 0.39589 0.55305 0.0
C1476 C 0.56969 0.4652 0.65136 0.0
C1477 C 0.57697 0.49549 0.68168 0.0
C1478 C 0.5524 0.52764 0.68137 0.0
C1479 C 0.52019 0.52894 0.65204 0.0
C1480 C 0.51291 0.49786 0.6232 0.0
C1481 C 0.53696 0.46646 0.6228 0.0
C1482 C 0.51864 0.43304 0.59393 0.0
C1483 C 0.5457 0.42948 0.55817 0.0
C1484 C 0.51092 0.39234 0.61632 0.0
C1485 C 0.47931 0.44929 0.58003 0.0
C1486 C 0.47714 0.48739 0.59612 0.0
C1487 C 0.44119 0.50567 0.59281 0.0
C1488 C 0.40596 0.48335 0.57532 0.0
C1489 C 0.40706 0.44317 0.56189 0.0
C1490 C 0.44466 0.42721 0.56163 0.0
H1491 H 0.77492 0.26779 0.93437 0.0
H1492 H 0.80551 0.34892 0.83503 0.0
H1493 H 0.83049 0.29265 0.7981 0.0
H1494 H 0.86046 0.21164 0.92982 0.0
H1495 H 0.8322 0.16401 0.94206 0.0
H1496 H 0.81661 0.21062 0.95999 0.0
H1497 H 0.74451 0.1907 0.92568 0.0
H1498 H 0.76046 0.14431 0.90727 0.0
H1499 H 0.73929 0.17889 0.87215 0.0
H1500 H 0.85243 0.22828 0.77152 0.0
H1501 H 0.87905 0.16226 0.76318 0.0
H1502 H 0.83168 0.12278 0.87822 0.0
C1503 C 0.78664 0.27361 0.90468 0.0
C1504 C 0.78798 0.31259 0.88733 0.0
C1505 C 0.80345 0.3191 0.84842 0.0
C1506 C 0.8176 0.28746 0.82718 0.0
C1507 C 0.81519 0.24927 0.84469 0.0
C1508 C 0.80015 0.24219 0.88263 0.0
C1509 C 0.8019 0.19857 0.89511 0.0
C1510 C 0.82944 0.19608 0.93403 0.0
C1511 C 0.75899 0.17685 0.90035 0.0
C1512 C 0.82066 0.18242 0.85843 0.0
C1513 C 0.82761 0.21197 0.82937 0.0
C1514 C 0.84685 0.20476 0.79388 0.0
C1515 C 0.86136 0.16703 0.78904 0.0
C1516 C 0.85677 0.13738 0.81971 0.0
C1517 C 0.83468 0.14469 0.85391 0.0
H1518 H 0.96569 0.55574 0.1735 0.0
H1519 H 0.0083 0.44573 0.22174 0.0
H1520 H 0.0616 0.45056 0.17169 0.0
H1521 H 0.98373 0.5377 0.06687 0.0
H1522 H 1.0003 0.5904 0.05802 0.0
H1523 H 0.96352 0.57617 0.0953 0.0
H1524 H 0.00953 0.61744 0.15038 0.0
H1525 H 0.04569 0.63227 0.113 0.0
H1526 H 0.06174 0.60763 0.15887 0.0
H1527 H 0.1159 0.47296 0.1213 0.0
H1528 H 0.16612 0.51241 0.0794 0.0
H1529 H 0.08346 0.60326 0.05995 0.0
C1530 C 0.98581 0.53227 0.17324 0.0
C1531 C 0.98277 0.50039 0.20165 0.0
C1532 C 0.00991 0.47044 0.20026 0.0
C1533 C 0.04033 0.47294 0.17191 0.0
C1534 C 0.04277 0.50514 0.14463 0.0
C1535 C 0.01592 0.53405 0.14497 0.0
C1536 C 0.02608 0.56692 0.11428 0.0
C1537 C 0.99132 0.56783 0.08166 0.0
C1538 C 0.03638 0.60849 0.1354 0.0
C1539 C 0.06321 0.55249 0.09684 0.0
C1540 C 0.07259 0.51681 0.11463 0.0
C1541 C 0.10844 0.50053 0.10668 0.0
C1542 C 0.13658 0.52276 0.08228 0.0
C1543 C 0.12846 0.56062 0.06608 0.0
C1544 C 0.09006 0.57397 0.07127 0.0
H1545 H 0.72609 0.77026 0.36388 0.0
H1546 H 0.84254 0.81505 0.42271 0.0
H1547 H 0.83677 0.88311 0.3931 0.0
H1548 H 0.72793 0.8295 0.27123 0.0
H1549 H 0.67568 0.83854 0.27348 0.0
H1550 H 0.69244 0.79307 0.29509 0.0
H1551 H 0.66468 0.8108 0.36396 0.0
H1552 H 0.64809 0.85611 0.34214 0.0
H1553 H 0.68156 0.8593 0.38732 0.0
H1554 H 0.81374 0.94816 0.36311 0.0
H1555 H 0.77348 1.00368 0.341 0.0
H1556 H 0.67366 0.91505 0.30012 0.0
C1557 C 0.75077 0.79423 0.36959 0.0
C1558 C 0.78507 0.78757 0.39488 0.0
C1559 C 0.81617 0.81983 0.40316 0.0
C1560 C 0.81316 0.85837 0.38634 0.0
C1561 C 0.77857 0.86415 0.36178 0.0
C1562 C 0.74776 0.8329 0.35383 0.0
C1563 C 0.71141 0.8478 0.33125 0.0
C1564 C 0.70132 0.82592 0.29034 0.0
C1565 C 0.67428 0.84325 0.35775 0.0
C1566 C 0.72723 0.8919 0.32582 0.0
C1567 C 0.76582 0.9011 0.34401 0.0
C1568 C 0.78398 0.94115 0.34785 0.0
C1569 C 0.76124 0.97255 0.33472 0.0
C1570 C 0.72112 0.96347 0.31767 0.0
C1571 C 0.70497 0.92262 0.31142 0.0
H1572 H 0.9338 0.57755 0.58012 0.0
H1573 H 0.85804 0.5397 0.4723 0.0
H1574 H 0.8838 0.47264 0.47532 0.0
H1575 H 0.02112 0.52439 0.56246 0.0
H1576 H 0.02784 0.51093 0.6151 0.0
H1577 H 1.00538 0.5562 0.6015 0.0
H1578 H 0.94265 0.53134 0.64198 0.0
H1579 H 0.9651 0.486 0.65511 0.0
H1580 H 0.91509 0.48244 0.62998 0.0
H1581 H 0.91647 0.40838 0.4922 0.0
H1582 H 0.9439 0.35063 0.52765 0.0
H1583 H 0.99881 0.43166 0.62305 0.0
C1584 C 0.92327 0.5555 0.55661 0.0
C1585 C 0.89431 0.56406 0.52561 0.0
C1586 C 0.88013 0.53375 0.49636 0.0
C1587 C 0.89477 0.49569 0.49772 0.0
C1588 C 0.92357 0.48836 0.52859 0.0
C1589 C 0.93721 0.51733 0.55779 0.0
C1590 C 0.96489 0.50069 0.59015 0.0
C1591 C 0.0074 0.52448 0.59238 0.0
C1592 C 0.94578 0.50006 0.63173 0.0
C1593 C 0.966 0.45838 0.5739 0.0
C1594 C 0.9421 0.45167 0.53828 0.0
C1595 C 0.93572 0.41352 0.51976 0.0
C1596 C 0.95205 0.38101 0.5396 0.0
C1597 C 0.97459 0.38712 0.57725 0.0
C1598 C 0.98323 0.42664 0.59338 0.0
H1599 H 0.34332 0.0578 0.56625 0.0
H1600 H 0.40433 0.96298 0.5145 0.0
H1601 H 0.46112 0.01368 0.49711 0.0
H1602 H 0.36187 0.12558 0.49035 0.0
H1603 H 0.36877 0.17022 0.52212 0.0
H1604 H 0.33828 0.12566 0.53834 0.0
H1605 H 0.38366 0.12601 0.60538 0.0
H1606 H 0.4146 0.17049 0.58874 0.0
H1607 H 0.43784 0.12574 0.60301 0.0
H1608 H 0.50482 0.07501 0.4749 0.0
H1609 H 0.52736 0.14113 0.4443 0.0
H1610 H 0.43799 0.19642 0.50919 0.0
C1611 C 0.36928 0.04758 0.55249 0.0
C1612 C 0.3696 0.00646 0.54199 0.0
C1613 C 0.40353 0.99436 0.52288 0.0
C1614 C 0.43603 0.02293 0.51309 0.0
C1615 C 0.43413 0.06353 0.52251 0.0
C1616 C 0.40164 0.07584 0.54192 0.0
C1617 C 0.4041 0.12158 0.54366 0.0
C1618 C 0.36603 0.13661 0.52233 0.0
C1619 C 0.41043 0.13685 0.58783 0.0
C1620 C 0.44183 0.13309 0.52035 0.0
C1621 C 0.45952 0.09922 0.50956 0.0
C1622 C 0.49188 0.10185 0.48396 0.0
C1623 C 0.50491 0.13959 0.46707 0.0
C1624 C 0.48505 0.17384 0.47533 0.0
C1625 C 0.45462 0.1709 0.50384 0.0
H1626 H 0.25801 0.12403 0.76969 0.0
H1627 H 0.34306 0.22911 0.74618 0.0
H1628 H 0.28714 0.27151 0.74098 0.0
H1629 H 0.18272 0.14273 0.70292 0.0
H1630 H 0.14084 0.1263 0.73392 0.0
H1631 H 0.18855 0.10641 0.7429 0.0
H1632 H 0.1906 0.13041 0.81802 0.0
H1633 H 0.14301 0.15118 0.80861 0.0
H1634 H 0.18716 0.18294 0.82924 0.0
H1635 H 0.22185 0.29885 0.72402 0.0
H1636 H 0.15304 0.30749 0.69515 0.0
H1637 H 0.10923 0.18762 0.73616 0.0
C1638 C 0.26514 0.15621 0.76509 0.0
C1639 C 0.30517 0.17305 0.75758 0.0
C1640 C 0.31276 0.21528 0.75097 0.0
C1641 C 0.28111 0.23978 0.74852 0.0
C1642 C 0.24181 0.22204 0.75444 0.0
C1643 C 0.23377 0.18135 0.76343 0.0
C1644 C 0.18838 0.16901 0.7643 0.0
C1645 C 0.17435 0.13408 0.7342 0.0
C1646 C 0.1766 0.15772 0.80763 0.0
C1647 C 0.17223 0.2082 0.75104 0.0
C1648 C 0.20358 0.23881 0.74666 0.0
C1649 C 0.1968 0.27576 0.72879 0.0
C1650 C 0.1575 0.28067 0.71276 0.0
C1651 C 0.12583 0.24852 0.71418 0.0
C1652 C 0.13276 0.21308 0.73604 0.0
H1653 H 0.21334 0.04868 0.01905 0.0
H1654 H 0.11219 0.1209 0.01863 0.0
H1655 H 0.06467 0.05961 1.00131 0.0
H1656 H 0.18122 0.99267 0.93457 0.0
H1657 H 0.19849 0.94603 0.95261 0.0
H1658 H 0.2231 0.99358 0.97209 0.0
H1659 H 0.20887 0.97007 0.04554 0.0
H1660 H 0.1839 0.92235 0.0261 0.0
H1661 H 0.15746 0.9532 0.05818 0.0
H1662 H 0.02951 0.99303 0.97273 0.0
H1663 H 0.01146 0.92813 0.93535 0.0
H1664 H 0.13531 0.90017 0.9558 0.0
C1665 C 0.18108 0.0516 0.01623 0.0
C1666 C 0.16659 0.08968 0.02016 0.0
C1667 C 0.12413 0.0921 0.01581 0.0
C1668 C 0.09683 0.05745 1.00606 0.0
C1669 C 0.11229 0.02057 1.00121 0.0
C1670 C 0.15349 0.01745 1.00658 0.0
C1671 C 0.16312 0.9755 0.99587 0.0
C1672 C 0.19323 0.97707 0.96176 0.0
C1673 C 0.17929 0.95401 0.03368 0.0
C1674 C 0.12126 0.95606 0.98146 0.0
C1675 C 0.09206 0.98213 0.98551 0.0
C1676 C 0.05193 0.97206 0.97031 0.0
C1677 C 0.04181 0.93506 0.94941 0.0
C1678 C 0.0719 0.90908 0.94348 0.0
C1679 C 0.11161 0.91918 0.96093 0.0
H1680 H 0.78471 0.43824 0.77628 0.0
H1681 H 0.69985 0.32956 0.75893 0.0
H1682 H 0.75432 0.29399 0.73237 0.0
H1683 H 0.83867 0.42719 0.68637 0.0
H1684 H 0.88766 0.44598 0.70979 0.0
H1685 H 0.84218 0.46271 0.72809 0.0
H1686 H 0.86257 0.43891 0.80075 0.0
H1687 H 0.90794 0.42192 0.78227 0.0
H1688 H 0.87263 0.38721 0.80844 0.0
H1689 H 0.81696 0.26947 0.70727 0.0
H1690 H 0.88285 0.26148 0.67789 0.0
H1691 H 0.92727 0.38503 0.71266 0.0
C1692 C 0.7776 0.40691 0.76694 0.0
C1693 C 0.73797 0.38659 0.76986 0.0
C1694 C 0.73002 0.34549 0.75759 0.0
C1695 C 0.76065 0.325 0.74245 0.0
C1696 C 0.79935 0.34563 0.74031 0.0
C1697 C 0.80802 0.38569 0.75217 0.0
C1698 C 0.85211 0.40092 0.74604 0.0
C1699 C 0.85533 0.43628 0.71577 0.0
C1700 C 0.87516 0.41295 0.78681 0.0
C1701 C 0.86652 0.36328 0.72841 0.0
C1702 C 0.83571 0.33158 0.72565 0.0
C1703 C 0.84141 0.29406 0.70921 0.0
C1704 C 0.87905 0.28951 0.69321 0.0
C1705 C 0.91011 0.32242 0.69358 0.0
C1706 C 0.90416 0.35919 0.71274 0.0
H1707 H 0.63157 0.49728 0.08934 0.0
H1708 H 0.67714 0.53953 0.97445 0.0
H1709 H 0.64125 0.6008 0.97968 0.0
H1710 H 0.53345 0.53547 0.0826 0.0
H1711 H 0.53688 0.54984 0.13539 0.0
H1712 H 0.56234 0.50807 0.11899 0.0
H1713 H 0.6307 0.54412 0.1512 0.0
H1714 H 0.60477 0.58564 0.16687 0.0
H1715 H 0.64782 0.59498 0.13576 0.0
H1716 H 0.60298 0.65982 1.00058 0.0
H1717 H 0.57553 0.71372 0.03918 0.0
H1718 H 0.55507 0.63122 0.13942 0.0
C1719 C 0.63334 0.51903 0.06488 0.0
C1720 C 0.65629 0.51327 0.03099 0.0
C1721 C 0.65945 0.54333 1.00052 0.0
C1722 C 0.63889 0.57798 1.00312 0.0
C1723 C 0.61602 0.58245 0.03683 0.0
C1724 C 0.61395 0.55403 0.06753 0.0
C1725 C 0.59177 0.56781 0.10291 0.0
C1726 C 0.55385 0.53846 0.11048 0.0
C1727 C 0.62047 0.57348 0.14143 0.0
C1728 C 0.58042 0.60787 0.08699 0.0
C1729 C 0.59469 0.6161 0.04889 0.0
C1730 C 0.59115 0.65336 0.03012 0.0
C1731 C 0.57483 0.6836 0.05187 0.0
C1732 C 0.56225 0.67617 0.09176 0.0
C1733 C 0.56313 0.63713 0.10839 0.0
H1734 H 0.22959 1.00353 0.72934 0.0
H1735 H 0.32022 0.92097 0.75292 0.0
H1736 H 0.26597 0.86671 0.76835 0.0
H1737 H 0.17581 0.97749 0.81035 0.0
H1738 H 0.12599 0.982 0.78708 0.0
H1739 H 0.16985 0.0105 0.7675 0.0
H1740 H 0.15063 0.97897 0.69596 0.0
H1741 H 0.10639 0.95053 0.71566 0.0
H1742 H 0.14273 0.92472 0.69008 0.0
H1743 H 0.20448 0.82533 0.79245 0.0
H1744 H 0.14332 0.80395 0.83029 0.0
H1745 H 0.09281 0.91368 0.79386 0.0
C1746 C 0.2378 0.97356 0.73621 0.0
C1747 C 0.27903 0.9663 0.73948 0.0
C1748 C 0.28878 0.92711 0.74999 0.0
C1749 C 0.25812 0.89597 0.75841 0.0
C1750 C 0.21777 0.90439 0.75619 0.0
C1751 C 0.20756 0.94234 0.74535 0.0
C1752 C 0.16313 0.94573 0.7518 0.0
C1753 C 0.15847 0.98097 0.78092 0.0
C1754 C 0.13931 0.95024 0.71095 0.0
C1755 C 0.15075 0.90489 0.77072 0.0
C1756 C 0.18218 0.88081 0.77144 0.0
C1757 C 0.17932 0.84346 0.79118 0.0
C1758 C 0.14438 0.83136 0.81239 0.0
C1759 C 0.11326 0.8569 0.81431 0.0
C1760 C 0.11582 0.89321 0.79181 0.0
H1761 H 0.22208 0.14028 0.36348 0.0
H1762 H 0.24974 0.09119 0.24772 0.0
H1763 H 0.31482 0.13611 0.24978 0.0
H1764 H 0.2684 0.24357 0.35159 0.0
H1765 H 0.29081 0.24879 0.40266 0.0
H1766 H 0.24404 0.21629 0.39239 0.0
H1767 H 0.27317 0.15414 0.42299 0.0
H1768 H 0.31937 0.18596 0.43709 0.0
H1769 H 0.32117 0.14094 0.40714 0.0
H1770 H 0.38017 0.1809 0.26822 0.0
H1771 H 0.44208 0.21486 0.30499 0.0
H1772 H 0.37132 0.23501 0.40797 0.0
C1773 C 0.24136 0.13968 0.33808 0.0
C1774 C 0.2307 0.11259 0.30521 0.0
C1775 C 0.25731 0.11184 0.27313 0.0
C1776 C 0.29422 0.13737 0.27397 0.0
C1777 C 0.30419 0.16324 0.30723 0.0
C1778 C 0.27853 0.16443 0.33878 0.0
C1779 C 0.29819 0.19129 0.37317 0.0
C1780 C 0.27395 0.22713 0.38031 0.0
C1781 C 0.30329 0.16661 0.41237 0.0
C1782 C 0.33891 0.20512 0.35607 0.0
C1783 C 0.3418 0.18894 0.31786 0.0
C1784 C 0.37813 0.19413 0.29792 0.0
C1785 C 0.41305 0.21396 0.31871 0.0
C1786 C 0.41118 0.22799 0.35896 0.0
C1787 C 0.37318 0.22547 0.37677 0.0
loop_
_geom_bond_atom_site_label_1
_geom_bond_atom_site_label_2
_geom_bond_distance
_geom_bond_site_symmetry_2
_ccdc_geom_bond_type
Cu0 N1 1.999 1_455 S
Cu0 O6 1.974 . S
Cu0 N11 1.985 . S
Cu0 O20 1.959 1_455 S
N1 Cu0 1.999 1_655 S
N1 C3 1.263 . S
N1 C5 1.389 . S
N2 C3 1.358 . S
N2 C4 1.400 . S
C3 N1 1.263 . S
C3 N2 1.358 . S
C3 H9 0.930 1_655 S
C4 N2 1.400 . S
C4 C5 1.351 . S
C4 H21 0.930 . S
C5 N1 1.389 . S
C5 C4 1.351 . S
C5 H10 0.930 . S
O6 Cu0 1.974 . S
O6 C16 1.282 . S
C7 O8 1.261 1_655 S
C7 O20 1.251 . S
O8 C7 1.261 1_455 S
H9 C3 0.930 1_455 S
H10 C5 0.930 . S
N11 Cu0 1.985 . S
N11 C13 1.335 . S
N11 C14 1.390 . S
N12 C13 1.345 . S
N12 C15 1.336 . S
C13 N11 1.335 . S
C13 N12 1.345 . S
C13 H18 0.930 . S
C14 N11 1.390 . S
C14 C15 1.346 . S
C14 H19 0.930 . S
C15 N12 1.336 . S
C15 C14 1.346 . S
C15 H22 0.929 . S
C16 O6 1.282 . S
C16 O17 1.216 . S
O17 C16 1.216 . S
H18 C13 0.930 . S
H19 C14 0.930 . S
O20 Cu0 1.959 1_655 S
O20 C7 1.251 . S
H21 C4 0.930 . S
H22 C15 0.929 . S
Cu23 N24 1.999 . S
Cu23 O29 1.974 . S
Cu23 N34 1.985 . S
Cu23 O43 1.959 . S
N24 Cu23 1.999 . S
N24 C26 1.263 1_455 S
N24 C28 1.389 1_455 S
N25 C26 1.358 . S
N25 C27 1.400 . S
C26 N24 1.263 1_655 S
C26 N25 1.358 . S
C26 H32 0.930 . S
C27 N25 1.400 . S
C27 C28 1.351 . S
C27 H44 0.930 . S
C28 N24 1.389 1_655 S
C28 C27 1.351 . S
C28 H33 0.932 . S
O29 Cu23 1.974 . S
O29 C39 1.282 . S
C30 O31 1.261 . S
C30 O43 1.251 1_655 S
O31 C30 1.261 . S
H32 C26 0.930 . S
H33 C28 0.932 . S
N34 Cu23 1.985 . S
N34 C36 1.335 . S
N34 C37 1.390 . S
N35 C36 1.345 . S
N35 C38 1.336 . S
C36 N34 1.335 . S
C36 N35 1.345 . S
C36 H41 0.930 . S
C37 N34 1.390 . S
C37 C38 1.346 . S
C37 H42 0.930 . S
C38 N35 1.336 . S
C38 C37 1.346 . S
C38 H45 0.929 . S
C39 O29 1.282 . S
C39 O40 1.216 . S
O40 C39 1.216 . S
H41 C36 0.930 . S
H42 C37 0.930 . S
O43 Cu23 1.959 . S
O43 C30 1.251 1_455 S
H44 C27 0.930 . S
H45 C38 0.929 . S
Cu46 N47 1.999 . S
Cu46 O52 1.974 . S
Cu46 N57 1.985 . S
Cu46 O66 1.959 . S
N47 Cu46 1.999 . S
N47 C49 1.263 . S
N47 C51 1.389 . S
N48 C49 1.358 . S
N48 C50 1.400 . S
C49 N47 1.263 . S
C49 N48 1.358 . S
C49 H55 0.930 . S
C50 N48 1.400 . S
C50 C51 1.351 . S
C50 H67 0.930 . S
C51 N47 1.389 . S
C51 C50 1.351 . S
C51 H56 0.930 . S
O52 Cu46 1.974 . S
O52 C62 1.282 . S
C53 O54 1.261 . S
C53 O66 1.251 . S
O54 C53 1.261 . S
H55 C49 0.930 . S
H56 C51 0.930 . S
N57 Cu46 1.985 . S
N57 C59 1.335 . S
N57 C60 1.390 . S
N58 C59 1.345 . S
N58 C61 1.336 . S
C59 N57 1.335 . S
C59 N58 1.345 . S
C59 H64 0.930 . S
C60 N57 1.390 . S
C60 C61 1.346 . S
C60 H65 0.930 . S
C61 N58 1.336 . S
C61 C60 1.346 . S
C61 H68 0.929 . S
C62 O52 1.282 . S
C62 O63 1.216 . S
O63 C62 1.216 . S
H64 C59 0.930 . S
H65 C60 0.930 . S
O66 Cu46 1.959 . S
O66 C53 1.251 . S
H67 C50 0.930 . S
H68 C61 0.929 . S
Cu69 N70 1.999 . S
Cu69 O75 1.974 . S
Cu69 N80 1.985 . S
Cu69 O89 1.959 . S
N70 Cu69 1.999 . S
N70 C72 1.263 . S
N70 C74 1.389 . S
N71 C72 1.358 . S
N71 C73 1.400 . S
C72 N70 1.263 . S
C72 N71 1.358 . S
C72 H78 0.930 . S
C73 N71 1.400 . S
C73 C74 1.351 . S
C73 H90 0.930 . S
C74 N70 1.389 . S
C74 C73 1.351 . S
C74 H79 0.930 . S
O75 Cu69 1.974 . S
O75 C85 1.282 . S
C76 O77 1.261 . S
C76 O89 1.251 . S
O77 C76 1.261 . S
H78 C72 0.930 . S
H79 C74 0.930 . S
N80 Cu69 1.985 . S
N80 C82 1.335 . S
N80 C83 1.390 . S
N81 C82 1.345 . S
N81 C84 1.336 . S
C82 N80 1.335 . S
C82 N81 1.345 . S
C82 H87 0.930 . S
C83 N80 1.390 . S
C83 C84 1.346 . S
C83 H88 0.930 . S
C84 N81 1.336 . S
C84 C83 1.346 . S
C84 H91 0.929 . S
C85 O75 1.282 . S
C85 O86 1.216 . S
O86 C85 1.216 . S
H87 C82 0.930 . S
H88 C83 0.930 . S
O89 Cu69 1.959 . S
O89 C76 1.251 . S
H90 C73 0.930 . S
H91 C84 0.929 . S
Cu92 N93 1.999 1_565 S
Cu92 O98 1.974 . S
Cu92 N103 1.985 . S
Cu92 O112 1.959 1_565 S
N93 Cu92 1.999 1_545 S
N93 C95 1.263 . S
N93 C97 1.389 . S
N94 C95 1.358 . S
N94 C96 1.400 . S
C95 N93 1.263 . S
C95 N94 1.358 . S
C95 H101 0.930 . S
C96 N94 1.400 . S
C96 C97 1.351 . S
C96 H113 0.930 . S
C97 N93 1.389 . S
C97 C96 1.351 . S
C97 H102 0.930 . S
O98 Cu92 1.974 . S
O98 C108 1.282 . S
C99 O100 1.261 . S
C99 O112 1.251 . S
O100 C99 1.261 . S
H101 C95 0.930 . S
H102 C97 0.930 . S
N103 Cu92 1.985 . S
N103 C105 1.335 . S
N103 C106 1.390 . S
N104 C105 1.345 . S
N104 C107 1.336 . S
C105 N103 1.335 . S
C105 N104 1.345 . S
C105 H110 0.930 . S
C106 N103 1.390 . S
C106 C107 1.346 . S
C106 H111 0.930 . S
C107 N104 1.336 . S
C107 C106 1.346 . S
C107 H114 0.929 . S
C108 O98 1.282 . S
C108 O109 1.216 . S
O109 C108 1.216 . S
H110 C105 0.930 . S
H111 C106 0.930 . S
O112 Cu92 1.959 1_545 S
O112 C99 1.251 . S
H113 C96 0.930 . S
H114 C107 0.929 . S
Cu115 N116 1.999 . S
Cu115 O121 1.974 . S
Cu115 N126 1.985 . S
Cu115 O135 1.959 . S
N116 Cu115 1.999 . S
N116 C118 1.263 . S
N116 C120 1.389 . S
N117 C118 1.358 . S
N117 C119 1.400 . S
C118 N116 1.263 . S
C118 N117 1.358 . S
C118 H124 0.930 . S
C119 N117 1.400 . S
C119 C120 1.351 . S
C119 H136 0.930 . S
C120 N116 1.389 . S
C120 C119 1.351 . S
C120 H125 0.930 . S
O121 Cu115 1.974 . S
O121 C131 1.282 . S
C122 O123 1.261 . S
C122 O135 1.251 . S
O123 C122 1.261 . S
H124 C118 0.930 . S
H125 C120 0.930 . S
N126 Cu115 1.985 . S
N126 C128 1.335 . S
N126 C129 1.390 . S
N127 C128 1.345 1_545 S
N127 C130 1.336 1_545 S
C128 N126 1.335 . S
C128 N127 1.345 1_565 S
C128 H133 0.930 1_565 S
C129 N126 1.390 . S
C129 C130 1.346 . S
C129 H134 0.930 . S
C130 N127 1.336 1_565 S
C130 C129 1.346 . S
C130 H137 0.929 . S
C131 O121 1.282 . S
C131 O132 1.216 . S
O132 C131 1.216 . S
H133 C128 0.930 1_545 S
H134 C129 0.930 . S
O135 Cu115 1.959 . S
O135 C122 1.251 . S
H136 C119 0.930 . S
H137 C130 0.929 . S
Cu138 N139 1.999 . S
Cu138 O144 1.974 . S
Cu138 N149 1.985 . S
Cu138 O158 1.959 . S
N139 Cu138 1.999 . S
N139 C141 1.263 1_545 S
N139 C143 1.389 1_545 S
N140 C141 1.358 . S
N140 C142 1.400 . S
C141 N139 1.263 1_565 S
C141 N140 1.358 . S
C141 H147 0.930 . S
C142 N140 1.400 . S
C142 C143 1.351 . S
C142 H159 0.930 . S
C143 N139 1.389 1_565 S
C143 C142 1.351 . S
C143 H148 0.922 1_565 S
O144 Cu138 1.974 . S
O144 C154 1.282 . S
C145 O146 1.261 . S
C145 O158 1.251 1_565 S
O146 C145 1.261 . S
H147 C141 0.930 . S
H148 C143 0.922 1_545 S
N149 Cu138 1.985 . S
N149 C151 1.335 . S
N149 C152 1.390 . S
N150 C151 1.345 . S
N150 C153 1.336 . S
C151 N149 1.335 . S
C151 N150 1.345 . S
C151 H156 0.930 . S
C152 N149 1.390 . S
C152 C153 1.346 . S
C152 H157 0.930 . S
C153 N150 1.336 . S
C153 C152 1.346 . S
C153 H160 0.929 . S
C154 O144 1.282 . S
C154 O155 1.216 . S
O155 C154 1.216 . S
H156 C151 0.930 . S
H157 C152 0.930 . S
O158 Cu138 1.959 . S
O158 C145 1.251 1_545 S
H159 C142 0.930 . S
H160 C153 0.929 . S
Cu161 N162 1.999 . S
Cu161 O167 1.974 1_556 S
Cu161 N172 1.985 1_556 S
Cu161 O181 1.959 . S
N162 Cu161 1.999 . S
N162 C164 1.263 . S
N162 C166 1.389 . S
N163 C164 1.358 . S
N163 C165 1.400 . S
C164 N162 1.263 . S
C164 N163 1.358 . S
C164 H170 0.930 . S
C165 N163 1.400 . S
C165 C166 1.351 . S
C165 H182 0.930 . S
C166 N162 1.389 . S
C166 C165 1.351 . S
C166 H171 0.930 . S
O167 Cu161 1.974 1_554 S
O167 C177 1.282 . S
C168 O169 1.261 1_556 S
C168 O181 1.251 . S
O169 C168 1.261 1_554 S
H170 C164 0.930 . S
H171 C166 0.930 . S
N172 Cu161 1.985 1_554 S
N172 C174 1.335 . S
N172 C175 1.390 . S
N173 C174 1.345 . S
N173 C176 1.336 . S
C174 N172 1.335 . S
C174 N173 1.345 . S
C174 H179 0.937 . S
C175 N172 1.390 . S
C175 C176 1.346 . S
C175 H180 0.930 . S
C176 N173 1.336 . S
C176 C175 1.346 . S
C176 H183 0.929 . S
C177 O167 1.282 . S
C177 O178 1.216 . S
O178 C177 1.216 . S
H179 C174 0.937 . S
H180 C175 0.930 . S
O181 Cu161 1.959 . S
O181 C168 1.251 . S
H182 C165 0.930 . S
H183 C176 0.929 . S
Cu184 N185 1.999 . S
Cu184 O190 1.974 1_556 S
Cu184 N195 1.985 1_556 S
Cu184 O204 1.959 . S
N185 Cu184 1.999 . S
N185 C187 1.263 . S
N185 C189 1.389 . S
N186 C187 1.358 . S
N186 C188 1.400 . S
C187 N185 1.263 . S
C187 N186 1.358 . S
C187 H193 0.930 . S
C188 N186 1.400 . S
C188 C189 1.351 . S
C188 H205 0.930 . S
C189 N185 1.389 . S
C189 C188 1.351 . S
C189 H194 0.930 . S
O190 Cu184 1.974 1_554 S
O190 C200 1.282 . S
C191 O192 1.261 1_556 S
C191 O204 1.251 . S
O192 C191 1.261 1_554 S
H193 C187 0.930 . S
H194 C189 0.930 . S
N195 Cu184 1.985 1_554 S
N195 C197 1.335 . S
N195 C198 1.390 . S
N196 C197 1.345 . S
N196 C199 1.336 . S
C197 N195 1.335 . S
C197 N196 1.345 . S
C197 H202 0.912 1_554 S
C198 N195 1.390 . S
C198 C199 1.346 . S
C198 H203 0.930 . S
C199 N196 1.336 . S
C199 C198 1.346 . S
C199 H206 0.929 . S
C200 O190 1.282 . S
C200 O201 1.216 . S
O201 C200 1.216 . S
H202 C197 0.912 1_556 S
H203 C198 0.930 . S
O204 Cu184 1.959 . S
O204 C191 1.251 . S
H205 C188 0.930 . S
H206 C199 0.929 . S
Cu207 N208 1.999 . S
Cu207 O213 1.974 . S
Cu207 N218 1.985 . S
Cu207 O227 1.959 . S
N208 Cu207 1.999 . S
N208 C210 1.263 . S
N208 C212 1.389 . S
N209 C210 1.358 . S
N209 C211 1.400 . S
C210 N208 1.263 . S
C210 N209 1.358 . S
C210 H216 0.930 . S
C211 N209 1.400 . S
C211 C212 1.351 . S
C211 H228 0.930 . S
C212 N208 1.389 . S
C212 C211 1.351 . S
C212 H217 0.930 . S
O213 Cu207 1.974 . S
O213 C223 1.282 . S
C214 O215 1.261 . S
C214 O227 1.251 . S
O215 C214 1.261 . S
H216 C210 0.930 . S
H217 C212 0.930 . S
N218 Cu207 1.985 . S
N218 C220 1.335 . S
N218 C221 1.390 . S
N219 C220 1.345 . S
N219 C222 1.336 . S
C220 N218 1.335 . S
C220 N219 1.345 . S
C220 H225 0.930 . S
C221 N218 1.390 . S
C221 C222 1.346 . S
C221 H226 0.930 . S
C222 N219 1.336 . S
C222 C221 1.346 . S
C222 H229 0.929 . S
C223 O213 1.282 . S
C223 O224 1.216 . S
O224 C223 1.216 . S
H225 C220 0.930 . S
H226 C221 0.930 . S
O227 Cu207 1.959 . S
O227 C214 1.251 . S
H228 C211 0.930 . S
H229 C222 0.929 . S
Cu230 N231 1.999 . S
Cu230 O236 1.974 . S
Cu230 N241 1.985 . S
Cu230 O250 1.959 . S
N231 Cu230 1.999 . S
N231 C233 1.263 . S
N231 C235 1.389 . S
N232 C233 1.358 . S
N232 C234 1.400 . S
C233 N231 1.263 . S
C233 N232 1.358 . S
C233 H239 0.930 . S
C234 N232 1.400 . S
C234 C235 1.351 . S
C234 H251 0.930 . S
C235 N231 1.389 . S
C235 C234 1.351 . S
C235 H240 0.930 . S
O236 Cu230 1.974 . S
O236 C246 1.282 . S
C237 O238 1.261 . S
C237 O250 1.251 . S
O238 C237 1.261 . S
H239 C233 0.930 . S
H240 C235 0.930 . S
N241 Cu230 1.985 . S
N241 C243 1.335 . S
N241 C244 1.390 . S
N242 C243 1.345 . S
N242 C245 1.336 . S
C243 N241 1.335 . S
C243 N242 1.345 . S
C243 H248 0.930 . S
C244 N241 1.390 . S
C244 C245 1.346 . S
C244 H249 0.930 . S
C245 N242 1.336 . S
C245 C244 1.346 . S
C245 H252 0.929 . S
C246 O236 1.282 . S
C246 O247 1.216 . S
O247 C246 1.216 . S
H248 C243 0.930 . S
H249 C244 0.930 . S
O250 Cu230 1.959 . S
O250 C237 1.251 . S
H251 C234 0.930 . S
H252 C245 0.929 . S
Cu253 N254 1.999 . S
Cu253 O259 1.974 . S
Cu253 N264 1.985 . S
Cu253 O273 1.959 . S
N254 Cu253 1.999 . S
N254 C256 1.263 . S
N254 C258 1.389 . S
N255 C256 1.358 . S
N255 C257 1.400 . S
C256 N254 1.263 . S
C256 N255 1.358 . S
C256 H262 0.930 . S
C257 N255 1.400 . S
C257 C258 1.351 . S
C257 H274 0.930 . S
C258 N254 1.389 . S
C258 C257 1.351 . S
C258 H263 0.930 . S
O259 Cu253 1.974 . S
O259 C269 1.282 . S
C260 O261 1.261 . S
C260 O273 1.251 . S
O261 C260 1.261 . S
H262 C256 0.930 . S
H263 C258 0.930 . S
N264 Cu253 1.985 . S
N264 C266 1.335 . S
N264 C267 1.390 . S
N265 C266 1.345 . S
N265 C268 1.336 . S
C266 N264 1.335 . S
C266 N265 1.345 . S
C266 H271 0.930 . S
C267 N264 1.390 . S
C267 C268 1.346 . S
C267 H272 0.930 . S
C268 N265 1.336 . S
C268 C267 1.346 . S
C268 H275 0.929 . S
C269 O259 1.282 . S
C269 O270 1.216 . S
O270 C269 1.216 . S
H271 C266 0.930 . S
H272 C267 0.930 . S
O273 Cu253 1.959 . S
O273 C260 1.251 . S
H274 C257 0.930 . S
H275 C268 0.929 . S
H276 C282 0.930 . S
H277 C285 0.927 1_455 S
H278 C287 0.931 . S
H279 C289 0.930 . S
H280 C291 0.930 . S
H281 C293 0.931 . S
C282 H276 0.930 . S
C282 C283 1.380 . S
C282 C284 1.394 . S
C283 C282 1.380 . S
C283 C287 1.382 1_655 S
C284 C282 1.394 . S
C284 C285 1.400 . S
C285 H277 0.927 1_655 S
C285 C284 1.400 . S
C285 C286 1.375 1_655 S
C286 C285 1.375 1_455 S
C286 C287 1.415 . S
C286 C288 1.501 . S
C287 H278 0.931 . S
C287 C283 1.382 1_455 S
C287 C286 1.415 . S
C288 C286 1.501 . S
C288 C289 1.384 . S
C288 C293 1.408 . S
C289 H279 0.930 . S
C289 C288 1.384 . S
C289 C290 1.389 . S
C290 C289 1.389 . S
C290 C291 1.405 . S
C291 H280 0.930 . S
C291 C290 1.405 . S
C291 C292 1.364 . S
C292 C291 1.364 . S
C292 C293 1.400 . S
C293 H281 0.931 . S
C293 C288 1.408 . S
C293 C292 1.400 . S
H294 C300 0.930 . S
H295 C303 0.931 . S
H296 C305 0.931 . S
H297 C307 0.930 . S
H298 C309 0.930 . S
H299 C311 0.931 . S
C300 H294 0.930 . S
C300 C301 1.380 . S
C300 C302 1.394 . S
C301 C300 1.380 . S
C301 C305 1.382 . S
C302 C300 1.394 . S
C302 C303 1.400 . S
C303 H295 0.931 . S
C303 C302 1.400 . S
C303 C304 1.375 . S
C304 C303 1.375 . S
C304 C305 1.415 . S
C304 C306 1.501 1_655 S
C305 H296 0.931 . S
C305 C301 1.382 . S
C305 C304 1.415 . S
C306 C304 1.501 1_455 S
C306 C307 1.384 . S
C306 C311 1.408 . S
C307 H297 0.930 . S
C307 C306 1.384 . S
C307 C308 1.389 . S
C308 C307 1.389 . S
C308 C309 1.405 . S
C309 H298 0.930 . S
C309 C308 1.405 . S
C309 C310 1.364 . S
C310 C309 1.364 . S
C310 C311 1.400 . S
C311 H299 0.931 . S
C311 C306 1.408 . S
C311 C310 1.400 . S
H312 C318 0.930 . S
H313 C321 0.931 . S
H314 C323 0.931 . S
H315 C325 0.930 . S
H316 C327 0.930 . S
H317 C329 0.931 . S
C318 H312 0.930 . S
C318 C319 1.380 . S
C318 C320 1.394 . S
C319 C318 1.380 . S
C319 C323 1.382 . S
C320 C318 1.394 . S
C320 C321 1.400 . S
C321 H313 0.931 . S
C321 C320 1.400 . S
C321 C322 1.375 . S
C322 C321 1.375 . S
C322 C323 1.415 . S
C322 C324 1.501 . S
C323 H314 0.931 . S
C323 C319 1.382 . S
C323 C322 1.415 . S
C324 C322 1.501 . S
C324 C325 1.384 . S
C324 C329 1.408 . S
C325 H315 0.930 . S
C325 C324 1.384 . S
C325 C326 1.389 . S
C326 C325 1.389 . S
C326 C327 1.405 . S
C327 H316 0.930 . S
C327 C326 1.405 . S
C327 C328 1.364 . S
C328 C327 1.364 . S
C328 C329 1.400 . S
C329 H317 0.931 . S
C329 C324 1.408 . S
C329 C328 1.400 . S
H330 C336 0.930 . S
H331 C339 0.931 . S
H332 C341 0.931 . S
H333 C343 0.930 . S
H334 C345 0.930 . S
H335 C347 0.931 . S
C336 H330 0.930 . S
C336 C337 1.380 . S
C336 C338 1.394 . S
C337 C336 1.380 . S
C337 C341 1.382 . S
C338 C336 1.394 . S
C338 C339 1.400 . S
C339 H331 0.931 . S
C339 C338 1.400 . S
C339 C340 1.375 . S
C340 C339 1.375 . S
C340 C341 1.415 . S
C340 C342 1.501 . S
C341 H332 0.931 . S
C341 C337 1.382 . S
C341 C340 1.415 . S
C342 C340 1.501 . S
C342 C343 1.384 . S
C342 C347 1.408 . S
C343 H333 0.930 . S
C343 C342 1.384 . S
C343 C344 1.389 . S
C344 C343 1.389 . S
C344 C345 1.405 . S
C345 H334 0.930 . S
C345 C344 1.405 . S
C345 C346 1.364 . S
C346 C345 1.364 . S
C346 C347 1.400 . S
C347 H335 0.931 . S
C347 C342 1.408 . S
C347 C346 1.400 . S
H348 C354 0.930 . S
H349 C357 0.931 . S
H350 C359 0.931 . S
H351 C361 0.930 . S
H352 C363 0.930 . S
H353 C365 0.931 . S
C354 H348 0.930 . S
C354 C355 1.380 1_565 S
C354 C356 1.394 1_565 S
C355 C354 1.380 1_545 S
C355 C359 1.382 . S
C356 C354 1.394 1_545 S
C356 C357 1.400 . S
C357 H349 0.931 . S
C357 C356 1.400 . S
C357 C358 1.375 . S
C358 C357 1.375 . S
C358 C359 1.415 . S
C358 C360 1.501 . S
C359 H350 0.931 . S
C359 C355 1.382 . S
C359 C358 1.415 . S
C360 C358 1.501 . S
C360 C361 1.384 . S
C360 C365 1.408 . S
C361 H351 0.930 . S
C361 C360 1.384 . S
C361 C362 1.389 . S
C362 C361 1.389 . S
C362 C363 1.405 . S
C363 H352 0.930 . S
C363 C362 1.405 . S
C363 C364 1.364 . S
C364 C363 1.364 . S
C364 C365 1.400 . S
C365 H353 0.931 . S
C365 C360 1.408 . S
C365 C364 1.400 . S
H366 C372 0.930 . S
H367 C375 0.931 . S
H368 C377 0.931 . S
H369 C379 0.930 . S
H370 C381 0.930 . S
H371 C383 0.931 . S
C372 H366 0.930 . S
C372 C373 1.380 . S
C372 C374 1.394 . S
C373 C372 1.380 . S
C373 C377 1.382 . S
C374 C372 1.394 . S
C374 C375 1.400 . S
C375 H367 0.931 . S
C375 C374 1.400 . S
C375 C376 1.375 . S
C376 C375 1.375 . S
C376 C377 1.415 . S
C376 C378 1.501 . S
C377 H368 0.931 . S
C377 C373 1.382 . S
C377 C376 1.415 . S
C378 C376 1.501 . S
C378 C379 1.384 . S
C378 C383 1.408 . S
C379 H369 0.930 . S
C379 C378 1.384 . S
C379 C380 1.389 . S
C380 C379 1.389 . S
C380 C381 1.405 . S
C381 H370 0.930 . S
C381 C380 1.405 . S
C381 C382 1.364 . S
C382 C381 1.364 . S
C382 C383 1.400 . S
C383 H371 0.931 . S
C383 C378 1.408 . S
C383 C382 1.400 . S
H384 C390 0.930 . S
H385 C393 0.931 . S
H386 C395 0.931 . S
H387 C397 0.930 . S
H388 C399 0.930 . S
H389 C401 0.931 1_545 S
C390 H384 0.930 . S
C390 C391 1.380 . S
C390 C392 1.394 . S
C391 C390 1.380 . S
C391 C395 1.382 . S
C392 C390 1.394 . S
C392 C393 1.400 . S
C393 H385 0.931 . S
C393 C392 1.400 . S
C393 C394 1.375 . S
C394 C393 1.375 . S
C394 C395 1.415 . S
C394 C396 1.501 . S
C395 H386 0.931 . S
C395 C391 1.382 . S
C395 C394 1.415 . S
C396 C394 1.501 . S
C396 C397 1.384 . S
C396 C401 1.408 1_545 S
C397 H387 0.930 . S
C397 C396 1.384 . S
C397 C398 1.389 1_545 S
C398 C397 1.389 1_565 S
C398 C399 1.405 . S
C399 H388 0.930 . S
C399 C398 1.405 . S
C399 C400 1.364 . S
C400 C399 1.364 . S
C400 C401 1.400 . S
C401 H389 0.931 1_565 S
C401 C396 1.408 1_565 S
C401 C400 1.400 . S
H402 C408 0.930 . S
H403 C411 0.931 1_554 S
H404 C413 0.931 . S
H405 C415 0.930 . S
H406 C417 0.930 . S
H407 C419 0.931 . S
C408 H402 0.930 . S
C408 C409 1.380 . S
C408 C410 1.394 . S
C409 C408 1.380 . S
C409 C413 1.382 . S
C410 C408 1.394 . S
C410 C411 1.400 . S
C411 H403 0.931 1_556 S
C411 C410 1.400 . S
C411 C412 1.375 1_556 S
C412 C411 1.375 1_554 S
C412 C413 1.415 1_554 S
C412 C414 1.501 . S
C413 H404 0.931 . S
C413 C409 1.382 . S
C413 C412 1.415 1_556 S
C414 C412 1.501 . S
C414 C415 1.384 . S
C414 C419 1.408 . S
C415 H405 0.930 . S
C415 C414 1.384 . S
C415 C416 1.389 . S
C416 C415 1.389 . S
C416 C417 1.405 . S
C417 H406 0.930 . S
C417 C416 1.405 . S
C417 C418 1.364 . S
C418 C417 1.364 . S
C418 C419 1.400 . S
C419 H407 0.931 . S
C419 C414 1.408 . S
C419 C418 1.400 . S
H420 C426 0.930 . S
H421 C429 0.931 1_554 S
H422 C431 0.931 . S
H423 C433 0.930 . S
H424 C435 0.930 . S
H425 C437 0.931 . S
C426 H420 0.930 . S
C426 C427 1.380 . S
C426 C428 1.394 . S
C427 C426 1.380 . S
C427 C431 1.382 . S
C428 C426 1.394 . S
C428 C429 1.400 . S
C429 H421 0.931 1_556 S
C429 C428 1.400 . S
C429 C430 1.375 1_556 S
C430 C429 1.375 1_554 S
C430 C431 1.415 1_554 S
C430 C432 1.501 . S
C431 H422 0.931 . S
C431 C427 1.382 . S
C431 C430 1.415 1_556 S
C432 C430 1.501 . S
C432 C433 1.384 . S
C432 C437 1.408 . S
C433 H423 0.930 . S
C433 C432 1.384 . S
C433 C434 1.389 . S
C434 C433 1.389 . S
C434 C435 1.405 . S
C435 H424 0.930 . S
C435 C434 1.405 . S
C435 C436 1.364 . S
C436 C435 1.364 . S
C436 C437 1.400 . S
C437 H425 0.931 . S
C437 C432 1.408 . S
C437 C436 1.400 . S
H438 C444 0.930 . S
H439 C447 0.931 . S
H440 C449 0.931 . S
H441 C451 0.930 . S
H442 C453 0.930 . S
H443 C455 0.931 . S
C444 H438 0.930 . S
C444 C445 1.380 . S
C444 C446 1.394 . S
C445 C444 1.380 . S
C445 C449 1.382 . S
C446 C444 1.394 . S
C446 C447 1.400 . S
C447 H439 0.931 . S
C447 C446 1.400 . S
C447 C448 1.375 . S
C448 C447 1.375 . S
C448 C449 1.415 . S
C448 C450 1.501 . S
C449 H440 0.931 . S
C449 C445 1.382 . S
C449 C448 1.415 . S
C450 C448 1.501 . S
C450 C451 1.384 . S
C450 C455 1.408 . S
C451 H441 0.930 . S
C451 C450 1.384 . S
C451 C452 1.389 . S
C452 C451 1.389 . S
C452 C453 1.405 . S
C453 H442 0.930 . S
C453 C452 1.405 . S
C453 C454 1.364 . S
C454 C453 1.364 . S
C454 C455 1.400 . S
C455 H443 0.931 . S
C455 C450 1.408 . S
C455 C454 1.400 . S
H456 C462 0.930 . S
H457 C465 0.931 . S
H458 C467 0.931 . S
H459 C469 0.930 . S
H460 C471 0.930 . S
H461 C473 0.931 . S
C462 H456 0.930 . S
C462 C463 1.380 . S
C462 C464 1.394 . S
C463 C462 1.380 . S
C463 C467 1.382 . S
C464 C462 1.394 . S
C464 C465 1.400 . S
C465 H457 0.931 . S
C465 C464 1.400 . S
C465 C466 1.375 . S
C466 C465 1.375 . S
C466 C467 1.415 . S
C466 C468 1.501 . S
C467 H458 0.931 . S
C467 C463 1.382 . S
C467 C466 1.415 . S
C468 C466 1.501 . S
C468 C469 1.384 . S
C468 C473 1.408 . S
C469 H459 0.930 . S
C469 C468 1.384 . S
C469 C470 1.389 . S
C470 C469 1.389 . S
C470 C471 1.405 . S
C471 H460 0.930 . S
C471 C470 1.405 . S
C471 C472 1.364 . S
C472 C471 1.364 . S
C472 C473 1.400 . S
C473 H461 0.931 . S
C473 C468 1.408 . S
C473 C472 1.400 . S
H474 C480 0.930 . S
H475 C483 0.931 . S
H476 C485 0.931 . S
H477 C487 0.930 . S
H478 C489 0.930 . S
H479 C491 0.931 . S
C480 H474 0.930 . S
C480 C481 1.380 . S
C480 C482 1.394 . S
C481 C480 1.380 . S
C481 C485 1.382 . S
C482 C480 1.394 . S
C482 C483 1.400 . S
C483 H475 0.931 . S
C483 C482 1.400 . S
C483 C484 1.375 . S
C484 C483 1.375 . S
C484 C485 1.415 . S
C484 C486 1.501 . S
C485 H476 0.931 . S
C485 C481 1.382 . S
C485 C484 1.415 . S
C486 C484 1.501 . S
C486 C487 1.384 . S
C486 C491 1.408 . S
C487 H477 0.930 . S
C487 C486 1.384 . S
C487 C488 1.389 . S
C488 C487 1.389 . S
C488 C489 1.405 . S
C489 H478 0.930 . S
C489 C488 1.405 . S
C489 C490 1.364 . S
C490 C489 1.364 . S
C490 C491 1.400 . S
C491 H479 0.931 . S
C491 C486 1.408 . S
C491 C490 1.400 . S
H492 C504 0.930 . S
H493 C506 0.930 . S
H494 C507 0.930 . S
H495 C511 0.959 . S
H496 C511 0.959 . S
H497 C511 0.961 . S
H498 C512 0.960 . S
H499 C512 0.961 . S
H500 C512 0.959 . S
H501 C515 0.929 . S
H502 C516 0.931 . S
H503 C518 0.930 . S
C504 H492 0.930 . S
C504 C505 1.399 1_556 S
C504 C509 1.399 . S
C505 C504 1.399 1_554 S
C505 C506 1.376 . S
C506 H493 0.930 . S
C506 C505 1.376 . S
C506 C507 1.388 1_554 S
C507 H494 0.930 . S
C507 C506 1.388 1_556 S
C507 C508 1.390 . S
C508 C507 1.390 . S
C508 C509 1.394 . S
C508 C514 1.465 . S
C509 C504 1.399 . S
C509 C508 1.394 . S
C509 C510 1.516 . S
C510 C509 1.516 . S
C510 C511 1.502 . S
C510 C512 1.561 . S
C510 C513 1.526 . S
C511 H495 0.959 . S
C511 H496 0.959 . S
C511 H497 0.961 . S
C511 C510 1.502 . S
C512 H498 0.960 . S
C512 H499 0.961 . S
C512 H500 0.959 . S
C512 C510 1.561 . S
C513 C510 1.526 . S
C513 C514 1.396 . S
C513 C518 1.390 . S
C514 C508 1.465 . S
C514 C513 1.396 . S
C514 C515 1.399 . S
C515 H501 0.929 . S
C515 C514 1.399 . S
C515 C516 1.385 . S
C516 H502 0.931 . S
C516 C515 1.385 . S
C516 C517 1.389 . S
C517 C516 1.389 . S
C517 C518 1.387 . S
C518 H503 0.930 . S
C518 C513 1.390 . S
C518 C517 1.387 . S
H519 C531 0.930 . S
H520 C533 0.930 . S
H521 C534 0.930 . S
H522 C538 0.959 . S
H523 C538 0.959 . S
H524 C538 0.961 . S
H525 C539 0.960 . S
H526 C539 0.961 . S
H527 C539 0.959 . S
H528 C542 0.929 . S
H529 C543 0.931 . S
H530 C545 0.930 . S
C531 H519 0.930 . S
C531 C532 1.399 . S
C531 C536 1.399 . S
C532 C531 1.399 . S
C532 C533 1.376 . S
C533 H520 0.930 . S
C533 C532 1.376 . S
C533 C534 1.388 . S
C534 H521 0.930 . S
C534 C533 1.388 . S
C534 C535 1.390 . S
C535 C534 1.390 . S
C535 C536 1.394 . S
C535 C541 1.465 . S
C536 C531 1.399 . S
C536 C535 1.394 . S
C536 C537 1.516 . S
C537 C536 1.516 . S
C537 C538 1.502 . S
C537 C539 1.561 . S
C537 C540 1.526 . S
C538 H522 0.959 . S
C538 H523 0.959 . S
C538 H524 0.961 . S
C538 C537 1.502 . S
C539 H525 0.960 . S
C539 H526 0.961 . S
C539 H527 0.959 . S
C539 C537 1.561 . S
C540 C537 1.526 . S
C540 C541 1.396 . S
C540 C545 1.390 . S
C541 C535 1.465 . S
C541 C540 1.396 . S
C541 C542 1.399 . S
C542 H528 0.929 . S
C542 C541 1.399 . S
C542 C543 1.385 . S
C543 H529 0.931 . S
C543 C542 1.385 . S
C543 C544 1.389 . S
C544 C543 1.389 . S
C544 C545 1.387 . S
C545 H530 0.930 . S
C545 C540 1.390 . S
C545 C544 1.387 . S
H546 C558 0.930 . S
H547 C560 0.930 . S
H548 C561 0.930 . S
H549 C565 0.959 . S
H550 C565 0.959 . S
H551 C565 0.961 . S
H552 C566 0.960 . S
H553 C566 0.961 . S
H554 C566 0.959 . S
H555 C569 0.929 . S
H556 C570 0.931 . S
H557 C572 0.930 . S
C558 H546 0.930 . S
C558 C559 1.399 . S
C558 C563 1.399 . S
C559 C558 1.399 . S
C559 C560 1.376 . S
C560 H547 0.930 . S
C560 C559 1.376 . S
C560 C561 1.388 . S
C561 H548 0.930 . S
C561 C560 1.388 . S
C561 C562 1.390 . S
C562 C561 1.390 . S
C562 C563 1.394 . S
C562 C568 1.465 . S
C563 C558 1.399 . S
C563 C562 1.394 . S
C563 C564 1.516 . S
C564 C563 1.516 . S
C564 C565 1.502 . S
C564 C566 1.561 . S
C564 C567 1.526 . S
C565 H549 0.959 . S
C565 H550 0.959 . S
C565 H551 0.961 . S
C565 C564 1.502 . S
C566 H552 0.960 . S
C566 H553 0.961 . S
C566 H554 0.959 . S
C566 C564 1.561 . S
C567 C564 1.526 . S
C567 C568 1.396 . S
C567 C572 1.390 . S
C568 C562 1.465 . S
C568 C567 1.396 . S
C568 C569 1.399 . S
C569 H555 0.929 . S
C569 C568 1.399 . S
C569 C570 1.385 . S
C570 H556 0.931 . S
C570 C569 1.385 . S
C570 C571 1.389 . S
C571 C570 1.389 . S
C571 C572 1.387 . S
C572 H557 0.930 . S
C572 C567 1.390 . S
C572 C571 1.387 . S
H573 C585 0.930 . S
H574 C587 0.930 . S
H575 C588 0.930 . S
H576 C592 0.959 . S
H577 C592 0.959 . S
H578 C592 0.961 . S
H579 C593 0.960 . S
H580 C593 0.961 . S
H581 C593 0.959 . S
H582 C596 0.929 . S
H583 C597 0.931 . S
H584 C599 0.930 . S
C585 H573 0.930 . S
C585 C586 1.399 . S
C585 C590 1.399 . S
C586 C585 1.399 . S
C586 C587 1.376 . S
C587 H574 0.930 . S
C587 C586 1.376 . S
C587 C588 1.388 . S
C588 H575 0.930 . S
C588 C587 1.388 . S
C588 C589 1.390 . S
C589 C588 1.390 . S
C589 C590 1.394 . S
C589 C595 1.465 . S
C590 C585 1.399 . S
C590 C589 1.394 . S
C590 C591 1.516 . S
C591 C590 1.516 . S
C591 C592 1.502 . S
C591 C593 1.561 . S
C591 C594 1.526 . S
C592 H576 0.959 . S
C592 H577 0.959 . S
C592 H578 0.961 . S
C592 C591 1.502 . S
C593 H579 0.960 . S
C593 H580 0.961 . S
C593 H581 0.959 . S
C593 C591 1.561 . S
C594 C591 1.526 . S
C594 C595 1.396 . S
C594 C599 1.390 . S
C595 C589 1.465 . S
C595 C594 1.396 . S
C595 C596 1.399 . S
C596 H582 0.929 . S
C596 C595 1.399 . S
C596 C597 1.385 . S
C597 H583 0.931 . S
C597 C596 1.385 . S
C597 C598 1.389 . S
C598 C597 1.389 . S
C598 C599 1.387 . S
C599 H584 0.930 . S
C599 C594 1.390 . S
C599 C598 1.387 . S
H600 C612 0.930 . S
H601 C614 0.930 . S
H602 C615 0.930 . S
H603 C619 0.959 . S
H604 C619 0.959 . S
H605 C619 0.961 . S
H606 C620 0.960 . S
H607 C620 0.961 . S
H608 C620 0.959 . S
H609 C623 0.929 . S
H610 C624 0.931 . S
H611 C626 0.930 . S
C612 H600 0.930 . S
C612 C613 1.399 . S
C612 C617 1.399 . S
C613 C612 1.399 . S
C613 C614 1.376 . S
C614 H601 0.930 . S
C614 C613 1.376 . S
C614 C615 1.388 . S
C615 H602 0.930 . S
C615 C614 1.388 . S
C615 C616 1.390 . S
C616 C615 1.390 . S
C616 C617 1.394 . S
C616 C622 1.465 . S
C617 C612 1.399 . S
C617 C616 1.394 . S
C617 C618 1.516 . S
C618 C617 1.516 . S
C618 C619 1.502 1_455 S
C618 C620 1.561 . S
C618 C621 1.526 . S
C619 H603 0.959 . S
C619 H604 0.959 . S
C619 H605 0.961 . S
C619 C618 1.502 1_655 S
C620 H606 0.960 . S
C620 H607 0.961 . S
C620 H608 0.959 . S
C620 C618 1.561 . S
C621 C618 1.526 . S
C621 C622 1.396 . S
C621 C626 1.390 . S
C622 C616 1.465 . S
C622 C621 1.396 . S
C622 C623 1.399 . S
C623 H609 0.929 . S
C623 C622 1.399 . S
C623 C624 1.385 . S
C624 H610 0.931 . S
C624 C623 1.385 . S
C624 C625 1.389 . S
C625 C624 1.389 . S
C625 C626 1.387 . S
C626 H611 0.930 . S
C626 C621 1.390 . S
C626 C625 1.387 . S
H627 C639 0.930 . S
H628 C641 0.930 . S
H629 C642 0.930 . S
H630 C646 0.959 . S
H631 C646 0.959 . S
H632 C646 0.961 . S
H633 C647 0.960 . S
H634 C647 0.961 . S
H635 C647 0.959 . S
H636 C650 0.929 . S
H637 C651 0.931 . S
H638 C653 0.930 . S
C639 H627 0.930 . S
C639 C640 1.399 . S
C639 C644 1.399 . S
C640 C639 1.399 . S
C640 C641 1.376 . S
C641 H628 0.930 . S
C641 C640 1.376 . S
C641 C642 1.388 . S
C642 H629 0.930 . S
C642 C641 1.388 . S
C642 C643 1.390 . S
C643 C642 1.390 . S
C643 C644 1.394 . S
C643 C649 1.465 . S
C644 C639 1.399 . S
C644 C643 1.394 . S
C644 C645 1.516 . S
C645 C644 1.516 . S
C645 C646 1.502 . S
C645 C647 1.561 . S
C645 C648 1.526 . S
C646 H630 0.959 . S
C646 H631 0.959 . S
C646 H632 0.961 . S
C646 C645 1.502 . S
C647 H633 0.960 . S
C647 H634 0.961 . S
C647 H635 0.959 . S
C647 C645 1.561 . S
C648 C645 1.526 . S
C648 C649 1.396 . S
C648 C653 1.390 . S
C649 C643 1.465 . S
C649 C648 1.396 . S
C649 C650 1.399 . S
C650 H636 0.929 . S
C650 C649 1.399 . S
C650 C651 1.385 . S
C651 H637 0.931 . S
C651 C650 1.385 . S
C651 C652 1.389 . S
C652 C651 1.389 . S
C652 C653 1.387 . S
C653 H638 0.930 . S
C653 C648 1.390 . S
C653 C652 1.387 . S
H654 C666 0.930 . S
H655 C668 0.930 1_556 S
H656 C669 0.930 . S
H657 C673 0.959 . S
H658 C673 0.959 . S
H659 C673 0.961 . S
H660 C674 0.960 . S
H661 C674 0.961 . S
H662 C674 0.959 . S
H663 C677 0.929 . S
H664 C678 0.931 . S
H665 C680 0.930 . S
C666 H654 0.930 . S
C666 C667 1.399 . S
C666 C671 1.399 . S
C667 C666 1.399 . S
C667 C668 1.376 . S
C668 H655 0.930 1_554 S
C668 C667 1.376 . S
C668 C669 1.388 . S
C669 H656 0.930 . S
C669 C668 1.388 . S
C669 C670 1.390 . S
C670 C669 1.390 . S
C670 C671 1.394 . S
C670 C676 1.465 . S
C671 C666 1.399 . S
C671 C670 1.394 . S
C671 C672 1.516 . S
C672 C671 1.516 . S
C672 C673 1.502 . S
C672 C674 1.561 . S
C672 C675 1.526 . S
C673 H657 0.959 . S
C673 H658 0.959 . S
C673 H659 0.961 . S
C673 C672 1.502 . S
C674 H660 0.960 . S
C674 H661 0.961 . S
C674 H662 0.959 . S
C674 C672 1.561 . S
C675 C672 1.526 . S
C675 C676 1.396 . S
C675 C680 1.390 . S
C676 C670 1.465 . S
C676 C675 1.396 . S
C676 C677 1.399 . S
C677 H663 0.929 . S
C677 C676 1.399 . S
C677 C678 1.385 . S
C678 H664 0.931 . S
C678 C677 1.385 . S
C678 C679 1.389 . S
C679 C678 1.389 . S
C679 C680 1.387 . S
C680 H665 0.930 . S
C680 C675 1.390 . S
C680 C679 1.387 . S
H681 C693 0.930 . S
H682 C695 0.930 . S
H683 C696 0.930 . S
H684 C700 0.959 . S
H685 C700 0.959 . S
H686 C700 0.961 . S
H687 C701 0.960 . S
H688 C701 0.961 . S
H689 C701 0.959 . S
H690 C704 0.929 . S
H691 C705 0.931 . S
H692 C707 0.930 . S
C693 H681 0.930 . S
C693 C694 1.399 . S
C693 C698 1.399 . S
C694 C693 1.399 . S
C694 C695 1.376 . S
C695 H682 0.930 . S
C695 C694 1.376 . S
C695 C696 1.388 . S
C696 H683 0.930 . S
C696 C695 1.388 . S
C696 C697 1.390 . S
C697 C696 1.390 . S
C697 C698 1.394 . S
C697 C703 1.465 . S
C698 C693 1.399 . S
C698 C697 1.394 . S
C698 C699 1.516 . S
C699 C698 1.516 . S
C699 C700 1.502 . S
C699 C701 1.561 . S
C699 C702 1.526 . S
C700 H684 0.959 . S
C700 H685 0.959 . S
C700 H686 0.961 . S
C700 C699 1.502 . S
C701 H687 0.960 . S
C701 H688 0.961 . S
C701 H689 0.959 . S
C701 C699 1.561 . S
C702 C699 1.526 . S
C702 C703 1.396 . S
C702 C707 1.390 . S
C703 C697 1.465 . S
C703 C702 1.396 . S
C703 C704 1.399 . S
C704 H690 0.929 . S
C704 C703 1.399 . S
C704 C705 1.385 . S
C705 H691 0.931 . S
C705 C704 1.385 . S
C705 C706 1.389 . S
C706 C705 1.389 . S
C706 C707 1.387 . S
C707 H692 0.930 . S
C707 C702 1.390 . S
C707 C706 1.387 . S
H708 C720 0.930 1_455 S
H709 C722 0.930 1_465 S
H710 C723 0.930 . S
H711 C727 0.959 . S
H712 C727 0.959 . S
H713 C727 0.961 . S
H714 C728 0.960 . S
H715 C728 0.961 . S
H716 C728 0.959 . S
H717 C731 0.913 1_565 S
H718 C732 0.931 1_565 S
H719 C734 0.930 . S
C720 H708 0.930 1_655 S
C720 C721 1.399 1_655 S
C720 C725 1.399 . S
C721 C720 1.399 1_455 S
C721 C722 1.376 1_455 S
C722 H709 0.930 1_645 S
C722 C721 1.376 1_655 S
C722 C723 1.388 1_545 S
C723 H710 0.930 . S
C723 C722 1.388 1_565 S
C723 C724 1.390 1_565 S
C724 C723 1.390 1_545 S
C724 C725 1.394 . S
C724 C730 1.465 . S
C725 C720 1.399 . S
C725 C724 1.394 . S
C725 C726 1.516 . S
C726 C725 1.516 . S
C726 C727 1.502 . S
C726 C728 1.561 . S
C726 C729 1.526 . S
C727 H711 0.959 . S
C727 H712 0.959 . S
C727 H713 0.961 . S
C727 C726 1.502 . S
C728 H714 0.960 . S
C728 H715 0.961 . S
C728 H716 0.959 . S
C728 C726 1.561 . S
C729 C726 1.526 . S
C729 C730 1.396 . S
C729 C734 1.390 . S
C730 C724 1.465 . S
C730 C729 1.396 . S
C730 C731 1.409 . S
C731 H717 0.913 1_545 S
C731 C730 1.409 . S
C731 C732 1.391 . S
C732 H718 0.931 1_545 S
C732 C731 1.391 . S
C732 C733 1.389 . S
C733 C732 1.389 . S
C733 C734 1.387 . S
C734 H719 0.930 . S
C734 C729 1.390 . S
C734 C733 1.387 . S
H735 C747 0.930 . S
H736 C749 0.930 . S
H737 C750 0.930 . S
H738 C754 0.959 . S
H739 C754 0.959 . S
H740 C754 0.961 . S
H741 C755 0.960 . S
H742 C755 0.961 . S
H743 C755 0.959 . S
H744 C758 0.929 . S
H745 C759 0.931 . S
H746 C761 0.930 . S
C747 H735 0.930 . S
C747 C748 1.399 . S
C747 C752 1.399 . S
C748 C747 1.399 . S
C748 C749 1.376 . S
C749 H736 0.930 . S
C749 C748 1.376 . S
C749 C750 1.388 . S
C750 H737 0.930 . S
C750 C749 1.388 . S
C750 C751 1.390 . S
C751 C750 1.390 . S
C751 C752 1.394 . S
C751 C757 1.465 . S
C752 C747 1.399 . S
C752 C751 1.394 . S
C752 C753 1.516 . S
C753 C752 1.516 . S
C753 C754 1.502 . S
C753 C755 1.561 . S
C753 C756 1.526 . S
C754 H738 0.959 . S
C754 H739 0.959 . S
C754 H740 0.961 . S
C754 C753 1.502 . S
C755 H741 0.960 . S
C755 H742 0.961 . S
C755 H743 0.959 . S
C755 C753 1.561 . S
C756 C753 1.526 . S
C756 C757 1.396 . S
C756 C761 1.390 . S
C757 C751 1.465 . S
C757 C756 1.396 . S
C757 C758 1.399 . S
C758 H744 0.929 . S
C758 C757 1.399 . S
C758 C759 1.385 . S
C759 H745 0.931 . S
C759 C758 1.385 . S
C759 C760 1.389 . S
C760 C759 1.389 . S
C760 C761 1.387 . S
C761 H746 0.930 . S
C761 C756 1.390 . S
C761 C760 1.387 . S
H762 C774 0.930 . S
H763 C776 0.930 1_545 S
H764 C777 0.930 1_545 S
H765 C781 0.959 . S
H766 C781 0.959 . S
H767 C781 0.961 . S
H768 C782 0.960 . S
H769 C782 0.961 . S
H770 C782 0.959 . S
H771 C785 0.929 1_545 S
H772 C786 0.931 . S
H773 C788 0.930 . S
C774 H762 0.930 . S
C774 C775 1.399 . S
C774 C779 1.399 . S
C775 C774 1.399 . S
C775 C776 1.376 . S
C776 H763 0.930 1_565 S
C776 C775 1.376 . S
C776 C777 1.388 . S
C777 H764 0.930 1_565 S
C777 C776 1.388 . S
C777 C778 1.390 . S
C778 C777 1.390 . S
C778 C779 1.394 . S
C778 C784 1.465 . S
C779 C774 1.399 . S
C779 C778 1.394 . S
C779 C780 1.516 . S
C780 C779 1.516 . S
C780 C781 1.502 . S
C780 C782 1.561 . S
C780 C783 1.526 . S
C781 H765 0.959 . S
C781 H766 0.959 . S
C781 H767 0.961 . S
C781 C780 1.502 . S
C782 H768 0.960 . S
C782 H769 0.961 . S
C782 H770 0.959 . S
C782 C780 1.561 . S
C783 C780 1.526 . S
C783 C784 1.396 . S
C783 C788 1.390 . S
C784 C778 1.465 . S
C784 C783 1.396 . S
C784 C785 1.399 . S
C785 H771 0.929 1_565 S
C785 C784 1.399 . S
C785 C786 1.385 . S
C786 H772 0.931 . S
C786 C785 1.385 . S
C786 C787 1.389 . S
C787 C786 1.389 . S
C787 C788 1.387 . S
C788 H773 0.930 . S
C788 C783 1.390 . S
C788 C787 1.387 . S
H789 C801 0.930 . S
H790 C803 0.930 . S
H791 C804 0.930 . S
H792 C808 0.959 . S
H793 C808 0.959 . S
H794 C808 0.961 . S
H795 C809 0.960 . S
H796 C809 0.961 . S
H797 C809 0.959 . S
H798 C812 0.929 . S
H799 C813 0.931 . S
H800 C815 0.930 . S
C801 H789 0.930 . S
C801 C802 1.399 . S
C801 C806 1.399 . S
C802 C801 1.399 . S
C802 C803 1.376 . S
C803 H790 0.930 . S
C803 C802 1.376 . S
C803 C804 1.388 . S
C804 H791 0.930 . S
C804 C803 1.388 . S
C804 C805 1.390 . S
C805 C804 1.390 . S
C805 C806 1.394 . S
C805 C811 1.465 . S
C806 C801 1.399 . S
C806 C805 1.394 . S
C806 C807 1.516 . S
C807 C806 1.516 . S
C807 C808 1.502 . S
C807 C809 1.561 . S
C807 C810 1.526 . S
C808 H792 0.959 . S
C808 H793 0.959 . S
C808 H794 0.961 . S
C808 C807 1.502 . S
C809 H795 0.960 . S
C809 H796 0.961 . S
C809 H797 0.959 . S
C809 C807 1.561 . S
C810 C807 1.526 . S
C810 C811 1.396 . S
C810 C815 1.390 . S
C811 C805 1.465 . S
C811 C810 1.396 . S
C811 C812 1.399 . S
C812 H798 0.929 . S
C812 C811 1.399 . S
C812 C813 1.385 . S
C813 H799 0.931 . S
C813 C812 1.385 . S
C813 C814 1.389 . S
C814 C813 1.389 . S
C814 C815 1.387 . S
C815 H800 0.930 . S
C815 C810 1.390 . S
C815 C814 1.387 . S
H816 C828 0.930 . S
H817 C830 0.930 1_545 S
H818 C831 0.930 1_545 S
H819 C835 0.959 . S
H820 C835 0.959 . S
H821 C835 0.961 1_455 S
H822 C836 0.960 . S
H823 C836 0.961 . S
H824 C836 0.959 . S
H825 C839 0.929 . S
H826 C840 0.931 . S
H827 C842 0.930 . S
C828 H816 0.930 . S
C828 C829 1.399 . S
C828 C833 1.399 1_455 S
C829 C828 1.399 . S
C829 C830 1.376 . S
C830 H817 0.930 1_565 S
C830 C829 1.376 . S
C830 C831 1.388 1_455 S
C831 H818 0.930 1_565 S
C831 C830 1.388 1_655 S
C831 C832 1.390 . S
C832 C831 1.390 . S
C832 C833 1.394 . S
C832 C838 1.465 . S
C833 C828 1.399 1_655 S
C833 C832 1.394 . S
C833 C834 1.516 . S
C834 C833 1.516 . S
C834 C835 1.502 . S
C834 C836 1.561 . S
C834 C837 1.526 . S
C835 H819 0.959 . S
C835 H820 0.959 . S
C835 H821 0.961 1_655 S
C835 C834 1.502 . S
C836 H822 0.960 . S
C836 H823 0.961 . S
C836 H824 0.959 . S
C836 C834 1.561 . S
C837 C834 1.526 . S
C837 C838 1.396 . S
C837 C842 1.390 . S
C838 C832 1.465 . S
C838 C837 1.396 . S
C838 C839 1.399 . S
C839 H825 0.929 . S
C839 C838 1.399 . S
C839 C840 1.385 . S
C840 H826 0.931 . S
C840 C839 1.385 . S
C840 C841 1.389 . S
C841 C840 1.389 . S
C841 C842 1.387 . S
C842 H827 0.930 . S
C842 C837 1.390 . S
C842 C841 1.387 . S
H843 C855 0.930 . S
H844 C857 0.930 . S
H845 C858 0.930 . S
H846 C862 0.959 . S
H847 C862 0.959 . S
H848 C862 0.961 . S
H849 C863 0.960 . S
H850 C863 0.961 . S
H851 C863 0.959 . S
H852 C866 0.929 . S
H853 C867 0.931 . S
H854 C869 0.930 . S
C855 H843 0.930 . S
C855 C856 1.399 . S
C855 C860 1.399 . S
C856 C855 1.399 . S
C856 C857 1.376 . S
C857 H844 0.930 . S
C857 C856 1.376 . S
C857 C858 1.388 . S
C858 H845 0.930 . S
C858 C857 1.388 . S
C858 C859 1.390 . S
C859 C858 1.390 . S
C859 C860 1.394 . S
C859 C865 1.465 . S
C860 C855 1.399 . S
C860 C859 1.394 . S
C860 C861 1.516 . S
C861 C860 1.516 . S
C861 C862 1.502 . S
C861 C863 1.561 . S
C861 C864 1.526 . S
C862 H846 0.959 . S
C862 H847 0.959 . S
C862 H848 0.961 . S
C862 C861 1.502 . S
C863 H849 0.960 . S
C863 H850 0.961 . S
C863 H851 0.959 . S
C863 C861 1.561 . S
C864 C861 1.526 . S
C864 C865 1.396 . S
C864 C869 1.390 . S
C865 C859 1.465 . S
C865 C864 1.396 . S
C865 C866 1.399 . S
C866 H852 0.929 . S
C866 C865 1.399 . S
C866 C867 1.385 . S
C867 H853 0.931 . S
C867 C866 1.385 . S
C867 C868 1.389 . S
C868 C867 1.389 . S
C868 C869 1.387 . S
C869 H854 0.930 . S
C869 C864 1.390 . S
C869 C868 1.387 . S
H870 C882 0.930 . S
H871 C884 0.930 . S
H872 C885 0.930 . S
H873 C889 0.959 1_545 S
H874 C889 0.959 . S
H875 C889 0.961 . S
H876 C890 0.960 . S
H877 C890 0.961 . S
H878 C890 0.959 . S
H879 C893 0.929 . S
H880 C894 0.931 . S
H881 C896 0.930 . S
C882 H870 0.930 . S
C882 C883 1.399 . S
C882 C887 1.399 . S
C883 C882 1.399 . S
C883 C884 1.376 . S
C884 H871 0.930 . S
C884 C883 1.376 . S
C884 C885 1.388 . S
C885 H872 0.930 . S
C885 C884 1.388 . S
C885 C886 1.390 . S
C886 C885 1.390 . S
C886 C887 1.394 . S
C886 C892 1.465 . S
C887 C882 1.399 . S
C887 C886 1.394 . S
C887 C888 1.516 . S
C888 C887 1.516 . S
C888 C889 1.502 1_545 S
C888 C890 1.561 1_545 S
C888 C891 1.526 . S
C889 H873 0.959 1_565 S
C889 H874 0.959 . S
C889 H875 0.961 . S
C889 C888 1.502 1_565 S
C890 H876 0.960 . S
C890 H877 0.961 . S
C890 H878 0.959 . S
C890 C888 1.561 1_565 S
C891 C888 1.526 . S
C891 C892 1.396 . S
C891 C896 1.390 . S
C892 C886 1.465 . S
C892 C891 1.396 . S
C892 C893 1.399 . S
C893 H879 0.929 . S
C893 C892 1.399 . S
C893 C894 1.385 . S
C894 H880 0.931 . S
C894 C893 1.385 . S
C894 C895 1.389 . S
C895 C894 1.389 . S
C895 C896 1.387 . S
C896 H881 0.930 . S
C896 C891 1.390 . S
C896 C895 1.387 . S
H897 C909 0.930 . S
H898 C911 0.930 . S
H899 C912 0.930 . S
H900 C916 0.959 . S
H901 C916 0.959 . S
H902 C916 0.961 . S
H903 C917 0.960 . S
H904 C917 0.961 . S
H905 C917 0.959 . S
H906 C920 0.929 . S
H907 C921 0.931 . S
H908 C923 0.930 . S
C909 H897 0.930 . S
C909 C910 1.399 . S
C909 C914 1.399 . S
C910 C909 1.399 . S
C910 C911 1.376 . S
C911 H898 0.930 . S
C911 C910 1.376 . S
C911 C912 1.388 . S
C912 H899 0.930 . S
C912 C911 1.388 . S
C912 C913 1.390 . S
C913 C912 1.390 . S
C913 C914 1.394 . S
C913 C919 1.465 . S
C914 C909 1.399 . S
C914 C913 1.394 . S
C914 C915 1.516 . S
C915 C914 1.516 . S
C915 C916 1.502 . S
C915 C917 1.561 . S
C915 C918 1.526 . S
C916 H900 0.959 . S
C916 H901 0.959 . S
C916 H902 0.961 . S
C916 C915 1.502 . S
C917 H903 0.960 . S
C917 H904 0.961 . S
C917 H905 0.959 . S
C917 C915 1.561 . S
C918 C915 1.526 . S
C918 C919 1.396 . S
C918 C923 1.390 . S
C919 C913 1.465 . S
C919 C918 1.396 . S
C919 C920 1.399 . S
C920 H906 0.929 . S
C920 C919 1.399 . S
C920 C921 1.385 . S
C921 H907 0.931 . S
C921 C920 1.385 . S
C921 C922 1.389 . S
C922 C921 1.389 . S
C922 C923 1.387 . S
C923 H908 0.930 . S
C923 C918 1.390 . S
C923 C922 1.387 . S
H924 C936 0.930 . S
H925 C938 0.930 . S
H926 C939 0.930 . S
H927 C943 0.959 . S
H928 C943 0.959 . S
H929 C943 0.961 . S
H930 C944 0.960 . S
H931 C944 0.961 . S
H932 C944 0.959 . S
H933 C947 0.929 . S
H934 C948 0.931 . S
H935 C950 0.930 . S
C936 H924 0.930 . S
C936 C937 1.399 . S
C936 C941 1.399 . S
C937 C936 1.399 . S
C937 C938 1.376 . S
C938 H925 0.930 . S
C938 C937 1.376 . S
C938 C939 1.388 1_545 S
C939 H926 0.930 . S
C939 C938 1.388 1_565 S
C939 C940 1.390 . S
C940 C939 1.390 . S
C940 C941 1.394 1_565 S
C940 C946 1.465 . S
C941 C936 1.399 . S
C941 C940 1.394 1_545 S
C941 C942 1.516 1_545 S
C942 C941 1.516 1_565 S
C942 C943 1.502 1_565 S
C942 C944 1.561 . S
C942 C945 1.526 . S
C943 H927 0.959 . S
C943 H928 0.959 . S
C943 H929 0.961 . S
C943 C942 1.502 1_545 S
C944 H930 0.960 . S
C944 H931 0.961 . S
C944 H932 0.959 . S
C944 C942 1.561 . S
C945 C942 1.526 . S
C945 C946 1.396 . S
C945 C950 1.390 . S
C946 C940 1.465 . S
C946 C945 1.396 . S
C946 C947 1.399 . S
C947 H933 0.929 . S
C947 C946 1.399 . S
C947 C948 1.385 . S
C948 H934 0.931 . S
C948 C947 1.385 . S
C948 C949 1.389 . S
C949 C948 1.389 . S
C949 C950 1.387 . S
C950 H935 0.930 . S
C950 C945 1.390 . S
C950 C949 1.387 . S
H951 C963 0.930 1_554 S
H952 C965 0.930 . S
H953 C966 0.930 . S
H954 C970 0.959 . S
H955 C970 0.959 . S
H956 C970 0.961 . S
H957 C971 0.960 . S
H958 C971 0.961 . S
H959 C971 0.959 . S
H960 C974 0.929 . S
H961 C975 0.931 . S
H962 C977 0.930 1_554 S
C963 H951 0.930 1_556 S
C963 C964 1.399 . S
C963 C968 1.399 . S
C964 C963 1.399 . S
C964 C965 1.376 . S
C965 H952 0.930 . S
C965 C964 1.376 . S
C965 C966 1.388 . S
C966 H953 0.930 . S
C966 C965 1.388 . S
C966 C967 1.390 . S
C967 C966 1.390 . S
C967 C968 1.394 . S
C967 C973 1.465 . S
C968 C963 1.399 . S
C968 C967 1.394 . S
C968 C969 1.516 1_556 S
C969 C968 1.516 1_554 S
C969 C970 1.502 . S
C969 C971 1.561 . S
C969 C972 1.526 1_554 S
C970 H954 0.959 . S
C970 H955 0.959 . S
C970 H956 0.961 . S
C970 C969 1.502 . S
C971 H957 0.960 . S
C971 H958 0.961 . S
C971 H959 0.959 . S
C971 C969 1.561 . S
C972 C969 1.526 1_556 S
C972 C973 1.396 . S
C972 C977 1.390 . S
C973 C967 1.465 . S
C973 C972 1.396 . S
C973 C974 1.399 . S
C974 H960 0.929 . S
C974 C973 1.399 . S
C974 C975 1.385 . S
C975 H961 0.931 . S
C975 C974 1.385 . S
C975 C976 1.389 . S
C976 C975 1.389 . S
C976 C977 1.387 . S
C977 H962 0.930 1_556 S
C977 C972 1.390 . S
C977 C976 1.387 . S
H978 C990 0.930 . S
H979 C992 0.930 . S
H980 C993 0.930 . S
H981 C997 0.959 . S
H982 C997 0.959 . S
H983 C997 0.961 . S
H984 C998 0.960 . S
H985 C998 0.961 . S
H986 C998 0.959 . S
H987 C1001 0.929 . S
H988 C1002 0.931 . S
H989 C1004 0.930 . S
C990 H978 0.930 . S
C990 C991 1.399 . S
C990 C995 1.399 . S
C991 C990 1.399 . S
C991 C992 1.376 . S
C992 H979 0.930 . S
C992 C991 1.376 . S
C992 C993 1.388 . S
C993 H980 0.930 . S
C993 C992 1.388 . S
C993 C994 1.390 . S
C994 C993 1.390 . S
C994 C995 1.394 . S
C994 C1000 1.465 . S
C995 C990 1.399 . S
C995 C994 1.394 . S
C995 C996 1.516 . S
C996 C995 1.516 . S
C996 C997 1.502 . S
C996 C998 1.561 . S
C996 C999 1.526 . S
C997 H981 0.959 . S
C997 H982 0.959 . S
C997 H983 0.961 . S
C997 C996 1.502 . S
C998 H984 0.960 . S
C998 H985 0.961 . S
C998 H986 0.959 . S
C998 C996 1.561 . S
C999 C996 1.526 . S
C999 C1000 1.396 . S
C999 C1004 1.390 . S
C1000 C994 1.465 . S
C1000 C999 1.396 . S
C1000 C1001 1.399 . S
C1001 H987 0.929 . S
C1001 C1000 1.399 . S
C1001 C1002 1.385 . S
C1002 H988 0.931 . S
C1002 C1001 1.385 . S
C1002 C1003 1.389 . S
C1003 C1002 1.389 . S
C1003 C1004 1.387 . S
C1004 H989 0.930 . S
C1004 C999 1.390 . S
C1004 C1003 1.387 . S
H1005 C1017 0.930 . S
H1006 C1019 0.930 . S
H1007 C1020 0.930 . S
H1008 C1024 0.959 . S
H1009 C1024 0.959 . S
H1010 C1024 0.961 . S
H1011 C1025 0.960 . S
H1012 C1025 0.961 . S
H1013 C1025 0.959 . S
H1014 C1028 0.929 . S
H1015 C1029 0.931 . S
H1016 C1031 0.930 . S
C1017 H1005 0.930 . S
C1017 C1018 1.399 . S
C1017 C1022 1.399 . S
C1018 C1017 1.399 . S
C1018 C1019 1.376 . S
C1019 H1006 0.930 . S
C1019 C1018 1.376 . S
C1019 C1020 1.388 . S
C1020 H1007 0.930 . S
C1020 C1019 1.388 . S
C1020 C1021 1.390 . S
C1021 C1020 1.390 . S
C1021 C1022 1.394 . S
C1021 C1027 1.465 . S
C1022 C1017 1.399 . S
C1022 C1021 1.394 . S
C1022 C1023 1.516 . S
C1023 C1022 1.516 . S
C1023 C1024 1.502 . S
C1023 C1025 1.561 . S
C1023 C1026 1.526 . S
C1024 H1008 0.959 . S
C1024 H1009 0.959 . S
C1024 H1010 0.961 . S
C1024 C1023 1.502 . S
C1025 H1011 0.960 . S
C1025 H1012 0.961 . S
C1025 H1013 0.959 . S
C1025 C1023 1.561 . S
C1026 C1023 1.526 . S
C1026 C1027 1.396 . S
C1026 C1031 1.390 . S
C1027 C1021 1.465 . S
C1027 C1026 1.396 . S
C1027 C1028 1.399 . S
C1028 H1014 0.929 . S
C1028 C1027 1.399 . S
C1028 C1029 1.385 . S
C1029 H1015 0.931 . S
C1029 C1028 1.385 . S
C1029 C1030 1.389 . S
C1030 C1029 1.389 . S
C1030 C1031 1.387 . S
C1031 H1016 0.930 . S
C1031 C1026 1.390 . S
C1031 C1030 1.387 . S
H1032 C1044 0.930 . S
H1033 C1046 0.930 . S
H1034 C1047 0.930 . S
H1035 C1051 0.959 . S
H1036 C1051 0.959 . S
H1037 C1051 0.961 . S
H1038 C1052 0.960 . S
H1039 C1052 0.961 . S
H1040 C1052 0.959 . S
H1041 C1055 0.929 . S
H1042 C1056 0.931 . S
H1043 C1058 0.930 . S
C1044 H1032 0.930 . S
C1044 C1045 1.399 . S
C1044 C1049 1.399 . S
C1045 C1044 1.399 . S
C1045 C1046 1.376 . S
C1046 H1033 0.930 . S
C1046 C1045 1.376 . S
C1046 C1047 1.388 . S
C1047 H1034 0.930 . S
C1047 C1046 1.388 . S
C1047 C1048 1.390 . S
C1048 C1047 1.390 . S
C1048 C1049 1.394 . S
C1048 C1054 1.465 . S
C1049 C1044 1.399 . S
C1049 C1048 1.394 . S
C1049 C1050 1.516 . S
C1050 C1049 1.516 . S
C1050 C1051 1.502 . S
C1050 C1052 1.561 . S
C1050 C1053 1.526 . S
C1051 H1035 0.959 . S
C1051 H1036 0.959 . S
C1051 H1037 0.961 . S
C1051 C1050 1.502 . S
C1052 H1038 0.960 . S
C1052 H1039 0.961 . S
C1052 H1040 0.959 . S
C1052 C1050 1.561 . S
C1053 C1050 1.526 . S
C1053 C1054 1.396 . S
C1053 C1058 1.390 . S
C1054 C1048 1.465 . S
C1054 C1053 1.396 . S
C1054 C1055 1.399 . S
C1055 H1041 0.929 . S
C1055 C1054 1.399 . S
C1055 C1056 1.385 . S
C1056 H1042 0.931 . S
C1056 C1055 1.385 . S
C1056 C1057 1.389 . S
C1057 C1056 1.389 . S
C1057 C1058 1.387 . S
C1058 H1043 0.930 . S
C1058 C1053 1.390 . S
C1058 C1057 1.387 . S
H1059 C1071 0.930 . S
H1060 C1073 0.930 . S
H1061 C1074 0.930 . S
H1062 C1078 0.959 . S
H1063 C1078 0.959 . S
H1064 C1078 0.961 . S
H1065 C1079 0.960 . S
H1066 C1079 0.961 . S
H1067 C1079 0.959 . S
H1068 C1082 0.929 . S
H1069 C1083 0.931 . S
H1070 C1085 0.930 . S
C1071 H1059 0.930 . S
C1071 C1072 1.399 . S
C1071 C1076 1.399 . S
C1072 C1071 1.399 . S
C1072 C1073 1.376 . S
C1073 H1060 0.930 . S
C1073 C1072 1.376 . S
C1073 C1074 1.388 . S
C1074 H1061 0.930 . S
C1074 C1073 1.388 . S
C1074 C1075 1.390 . S
C1075 C1074 1.390 . S
C1075 C1076 1.394 . S
C1075 C1081 1.465 . S
C1076 C1071 1.399 . S
C1076 C1075 1.394 . S
C1076 C1077 1.516 . S
C1077 C1076 1.516 . S
C1077 C1078 1.502 . S
C1077 C1079 1.561 . S
C1077 C1080 1.526 . S
C1078 H1062 0.959 . S
C1078 H1063 0.959 . S
C1078 H1064 0.961 . S
C1078 C1077 1.502 . S
C1079 H1065 0.960 . S
C1079 H1066 0.961 . S
C1079 H1067 0.959 . S
C1079 C1077 1.561 . S
C1080 C1077 1.526 . S
C1080 C1081 1.396 . S
C1080 C1085 1.390 . S
C1081 C1075 1.465 . S
C1081 C1080 1.396 . S
C1081 C1082 1.399 . S
C1082 H1068 0.929 . S
C1082 C1081 1.399 . S
C1082 C1083 1.385 . S
C1083 H1069 0.931 . S
C1083 C1082 1.385 . S
C1083 C1084 1.389 . S
C1084 C1083 1.389 . S
C1084 C1085 1.387 . S
C1085 H1070 0.930 . S
C1085 C1080 1.390 . S
C1085 C1084 1.387 . S
H1086 C1098 0.930 . S
H1087 C1100 0.930 . S
H1088 C1101 0.930 . S
H1089 C1105 0.959 . S
H1090 C1105 0.959 . S
H1091 C1105 0.961 . S
H1092 C1106 0.960 . S
H1093 C1106 0.961 . S
H1094 C1106 0.959 . S
H1095 C1109 0.929 . S
H1096 C1110 0.931 . S
H1097 C1112 0.930 . S
C1098 H1086 0.930 . S
C1098 C1099 1.399 . S
C1098 C1103 1.399 . S
C1099 C1098 1.399 . S
C1099 C1100 1.376 . S
C1100 H1087 0.930 . S
C1100 C1099 1.376 . S
C1100 C1101 1.388 . S
C1101 H1088 0.930 . S
C1101 C1100 1.388 . S
C1101 C1102 1.390 . S
C1102 C1101 1.390 . S
C1102 C1103 1.394 . S
C1102 C1108 1.465 . S
C1103 C1098 1.399 . S
C1103 C1102 1.394 . S
C1103 C1104 1.516 . S
C1104 C1103 1.516 . S
C1104 C1105 1.502 . S
C1104 C1106 1.561 . S
C1104 C1107 1.526 . S
C1105 H1089 0.959 . S
C1105 H1090 0.959 . S
C1105 H1091 0.961 . S
C1105 C1104 1.502 . S
C1106 H1092 0.960 . S
C1106 H1093 0.961 . S
C1106 H1094 0.959 . S
C1106 C1104 1.561 . S
C1107 C1104 1.526 . S
C1107 C1108 1.396 . S
C1107 C1112 1.390 . S
C1108 C1102 1.465 . S
C1108 C1107 1.396 . S
C1108 C1109 1.399 . S
C1109 H1095 0.929 . S
C1109 C1108 1.399 . S
C1109 C1110 1.385 . S
C1110 H1096 0.931 . S
C1110 C1109 1.385 . S
C1110 C1111 1.389 . S
C1111 C1110 1.389 . S
C1111 C1112 1.387 . S
C1112 H1097 0.930 . S
C1112 C1107 1.390 . S
C1112 C1111 1.387 . S
H1113 C1125 0.930 . S
H1114 C1127 0.930 . S
H1115 C1128 0.930 . S
H1116 C1132 0.959 . S
H1117 C1132 0.959 . S
H1118 C1132 0.961 . S
H1119 C1133 0.960 . S
H1120 C1133 0.961 . S
H1121 C1133 0.959 . S
H1122 C1136 0.929 . S
H1123 C1137 0.931 . S
H1124 C1139 0.930 . S
C1125 H1113 0.930 . S
C1125 C1126 1.399 . S
C1125 C1130 1.399 . S
C1126 C1125 1.399 . S
C1126 C1127 1.376 . S
C1127 H1114 0.930 . S
C1127 C1126 1.376 . S
C1127 C1128 1.388 . S
C1128 H1115 0.930 . S
C1128 C1127 1.388 . S
C1128 C1129 1.390 . S
C1129 C1128 1.390 . S
C1129 C1130 1.394 . S
C1129 C1135 1.465 . S
C1130 C1125 1.399 . S
C1130 C1129 1.394 . S
C1130 C1131 1.516 . S
C1131 C1130 1.516 . S
C1131 C1132 1.502 . S
C1131 C1133 1.561 . S
C1131 C1134 1.526 . S
C1132 H1116 0.959 . S
C1132 H1117 0.959 . S
C1132 H1118 0.961 . S
C1132 C1131 1.502 . S
C1133 H1119 0.960 . S
C1133 H1120 0.961 . S
C1133 H1121 0.959 . S
C1133 C1131 1.561 . S
C1134 C1131 1.526 . S
C1134 C1135 1.396 . S
C1134 C1139 1.390 . S
C1135 C1129 1.465 . S
C1135 C1134 1.396 . S
C1135 C1136 1.399 . S
C1136 H1122 0.929 . S
C1136 C1135 1.399 . S
C1136 C1137 1.385 . S
C1137 H1123 0.931 . S
C1137 C1136 1.385 . S
C1137 C1138 1.389 . S
C1138 C1137 1.389 . S
C1138 C1139 1.387 . S
C1139 H1124 0.930 . S
C1139 C1134 1.390 . S
C1139 C1138 1.387 . S
H1140 C1152 0.930 . S
H1141 C1154 0.930 . S
H1142 C1155 0.930 . S
H1143 C1159 0.959 . S
H1144 C1159 0.959 . S
H1145 C1159 0.961 . S
H1146 C1160 0.960 . S
H1147 C1160 0.961 1_545 S
H1148 C1160 0.959 . S
H1149 C1163 0.929 . S
H1150 C1164 0.931 . S
H1151 C1166 0.930 1_545 S
C1152 H1140 0.930 . S
C1152 C1153 1.399 . S
C1152 C1157 1.399 . S
C1153 C1152 1.399 . S
C1153 C1154 1.376 . S
C1154 H1141 0.930 . S
C1154 C1153 1.376 . S
C1154 C1155 1.388 . S
C1155 H1142 0.930 . S
C1155 C1154 1.388 . S
C1155 C1156 1.390 . S
C1156 C1155 1.390 . S
C1156 C1157 1.394 . S
C1156 C1162 1.465 . S
C1157 C1152 1.399 . S
C1157 C1156 1.394 . S
C1157 C1158 1.516 . S
C1158 C1157 1.516 . S
C1158 C1159 1.502 . S
C1158 C1160 1.561 . S
C1158 C1161 1.526 . S
C1159 H1143 0.959 . S
C1159 H1144 0.959 . S
C1159 H1145 0.961 . S
C1159 C1158 1.502 . S
C1160 H1146 0.960 . S
C1160 H1147 0.961 1_565 S
C1160 H1148 0.959 . S
C1160 C1158 1.561 . S
C1161 C1158 1.526 . S
C1161 C1162 1.396 . S
C1161 C1166 1.390 . S
C1162 C1156 1.465 . S
C1162 C1161 1.396 . S
C1162 C1163 1.399 . S
C1163 H1149 0.929 . S
C1163 C1162 1.399 . S
C1163 C1164 1.385 . S
C1164 H1150 0.931 . S
C1164 C1163 1.385 . S
C1164 C1165 1.389 . S
C1165 C1164 1.389 . S
C1165 C1166 1.387 . S
C1166 H1151 0.930 1_565 S
C1166 C1161 1.390 . S
C1166 C1165 1.387 . S
H1167 C1179 0.930 . S
H1168 C1181 0.930 . S
H1169 C1182 0.930 . S
H1170 C1186 0.959 . S
H1171 C1186 0.959 . S
H1172 C1186 0.961 . S
H1173 C1187 0.960 . S
H1174 C1187 0.961 . S
H1175 C1187 0.959 . S
H1176 C1190 0.929 . S
H1177 C1191 0.931 . S
H1178 C1193 0.930 . S
C1179 H1167 0.930 . S
C1179 C1180 1.399 . S
C1179 C1184 1.399 . S
C1180 C1179 1.399 . S
C1180 C1181 1.376 . S
C1181 H1168 0.930 . S
C1181 C1180 1.376 . S
C1181 C1182 1.388 . S
C1182 H1169 0.930 . S
C1182 C1181 1.388 . S
C1182 C1183 1.390 . S
C1183 C1182 1.390 . S
C1183 C1184 1.394 . S
C1183 C1189 1.465 . S
C1184 C1179 1.399 . S
C1184 C1183 1.394 . S
C1184 C1185 1.516 . S
C1185 C1184 1.516 . S
C1185 C1186 1.502 . S
C1185 C1187 1.561 . S
C1185 C1188 1.526 . S
C1186 H1170 0.959 . S
C1186 H1171 0.959 . S
C1186 H1172 0.961 . S
C1186 C1185 1.502 . S
C1187 H1173 0.960 . S
C1187 H1174 0.961 . S
C1187 H1175 0.959 . S
C1187 C1185 1.561 . S
C1188 C1185 1.526 . S
C1188 C1189 1.396 . S
C1188 C1193 1.390 . S
C1189 C1183 1.465 . S
C1189 C1188 1.396 . S
C1189 C1190 1.399 . S
C1190 H1176 0.929 . S
C1190 C1189 1.399 . S
C1190 C1191 1.385 . S
C1191 H1177 0.931 . S
C1191 C1190 1.385 . S
C1191 C1192 1.389 . S
C1192 C1191 1.389 . S
C1192 C1193 1.387 . S
C1193 H1178 0.930 . S
C1193 C1188 1.390 . S
C1193 C1192 1.387 . S
H1194 C1206 0.930 . S
H1195 C1208 0.930 . S
H1196 C1209 0.930 . S
H1197 C1213 0.959 . S
H1198 C1213 0.959 . S
H1199 C1213 0.961 . S
H1200 C1214 0.960 . S
H1201 C1214 0.961 . S
H1202 C1214 0.959 1_455 S
H1203 C1217 0.929 . S
H1204 C1218 0.931 . S
H1205 C1220 0.930 . S
C1206 H1194 0.930 . S
C1206 C1207 1.399 . S
C1206 C1211 1.399 1_554 S
C1207 C1206 1.399 . S
C1207 C1208 1.376 . S
C1208 H1195 0.930 . S
C1208 C1207 1.376 . S
C1208 C1209 1.388 . S
C1209 H1196 0.930 . S
C1209 C1208 1.388 . S
C1209 C1210 1.390 1_554 S
C1210 C1209 1.390 1_556 S
C1210 C1211 1.394 . S
C1210 C1216 1.465 . S
C1211 C1206 1.399 1_556 S
C1211 C1210 1.394 . S
C1211 C1212 1.516 . S
C1212 C1211 1.516 . S
C1212 C1213 1.502 . S
C1212 C1214 1.561 . S
C1212 C1215 1.526 . S
C1213 H1197 0.959 . S
C1213 H1198 0.959 . S
C1213 H1199 0.961 . S
C1213 C1212 1.502 . S
C1214 H1200 0.960 . S
C1214 H1201 0.961 . S
C1214 H1202 0.959 1_655 S
C1214 C1212 1.561 . S
C1215 C1212 1.526 . S
C1215 C1216 1.396 . S
C1215 C1220 1.390 . S
C1216 C1210 1.465 . S
C1216 C1215 1.396 . S
C1216 C1217 1.399 . S
C1217 H1203 0.929 . S
C1217 C1216 1.399 . S
C1217 C1218 1.385 . S
C1218 H1204 0.931 . S
C1218 C1217 1.385 . S
C1218 C1219 1.389 . S
C1219 C1218 1.389 . S
C1219 C1220 1.387 . S
C1220 H1205 0.930 . S
C1220 C1215 1.390 . S
C1220 C1219 1.387 . S
H1221 C1233 0.930 . S
H1222 C1235 0.930 . S
H1223 C1236 0.930 . S
H1224 C1240 0.959 . S
H1225 C1240 0.959 . S
H1226 C1240 0.961 . S
H1227 C1241 0.960 . S
H1228 C1241 0.961 . S
H1229 C1241 0.959 . S
H1230 C1244 0.929 . S
H1231 C1245 0.931 . S
H1232 C1247 0.930 . S
C1233 H1221 0.930 . S
C1233 C1234 1.399 . S
C1233 C1238 1.399 . S
C1234 C1233 1.399 . S
C1234 C1235 1.376 . S
C1235 H1222 0.930 . S
C1235 C1234 1.376 . S
C1235 C1236 1.388 . S
C1236 H1223 0.930 . S
C1236 C1235 1.388 . S
C1236 C1237 1.390 . S
C1237 C1236 1.390 . S
C1237 C1238 1.394 . S
C1237 C1243 1.465 . S
C1238 C1233 1.399 . S
C1238 C1237 1.394 . S
C1238 C1239 1.516 . S
C1239 C1238 1.516 . S
C1239 C1240 1.502 . S
C1239 C1241 1.561 . S
C1239 C1242 1.526 . S
C1240 H1224 0.959 . S
C1240 H1225 0.959 . S
C1240 H1226 0.961 . S
C1240 C1239 1.502 . S
C1241 H1227 0.960 . S
C1241 H1228 0.961 . S
C1241 H1229 0.959 . S
C1241 C1239 1.561 . S
C1242 C1239 1.526 . S
C1242 C1243 1.396 . S
C1242 C1247 1.390 . S
C1243 C1237 1.465 . S
C1243 C1242 1.396 . S
C1243 C1244 1.399 . S
C1244 H1230 0.929 . S
C1244 C1243 1.399 . S
C1244 C1245 1.385 . S
C1245 H1231 0.931 . S
C1245 C1244 1.385 . S
C1245 C1246 1.389 . S
C1246 C1245 1.389 . S
C1246 C1247 1.387 . S
C1247 H1232 0.930 . S
C1247 C1242 1.390 . S
C1247 C1246 1.387 . S
H1248 C1260 0.930 . S
H1249 C1262 0.930 . S
H1250 C1263 0.930 . S
H1251 C1267 0.959 . S
H1252 C1267 0.959 . S
H1253 C1267 0.961 . S
H1254 C1268 0.960 . S
H1255 C1268 0.961 . S
H1256 C1268 0.959 . S
H1257 C1271 0.929 . S
H1258 C1272 0.931 . S
H1259 C1274 0.930 . S
C1260 H1248 0.930 . S
C1260 C1261 1.399 1_554 S
C1260 C1265 1.399 . S
C1261 C1260 1.399 1_556 S
C1261 C1262 1.376 1_556 S
C1262 H1249 0.930 . S
C1262 C1261 1.376 1_554 S
C1262 C1263 1.388 . S
C1263 H1250 0.930 . S
C1263 C1262 1.388 . S
C1263 C1264 1.390 . S
C1264 C1263 1.390 . S
C1264 C1265 1.394 . S
C1264 C1270 1.465 . S
C1265 C1260 1.399 . S
C1265 C1264 1.394 . S
C1265 C1266 1.516 . S
C1266 C1265 1.516 . S
C1266 C1267 1.502 . S
C1266 C1268 1.561 . S
C1266 C1269 1.526 . S
C1267 H1251 0.959 . S
C1267 H1252 0.959 . S
C1267 H1253 0.961 . S
C1267 C1266 1.502 . S
C1268 H1254 0.960 . S
C1268 H1255 0.961 . S
C1268 H1256 0.959 . S
C1268 C1266 1.561 . S
C1269 C1266 1.526 . S
C1269 C1270 1.396 . S
C1269 C1274 1.390 . S
C1270 C1264 1.465 . S
C1270 C1269 1.396 . S
C1270 C1271 1.399 . S
C1271 H1257 0.929 . S
C1271 C1270 1.399 . S
C1271 C1272 1.385 . S
C1272 H1258 0.931 . S
C1272 C1271 1.385 . S
C1272 C1273 1.389 . S
C1273 C1272 1.389 . S
C1273 C1274 1.387 . S
C1274 H1259 0.930 . S
C1274 C1269 1.390 . S
C1274 C1273 1.387 . S
H1275 C1287 0.930 . S
H1276 C1289 0.930 . S
H1277 C1290 0.930 . S
H1278 C1294 0.959 . S
H1279 C1294 0.959 . S
H1280 C1294 0.961 . S
H1281 C1295 0.960 . S
H1282 C1295 0.961 . S
H1283 C1295 0.959 . S
H1284 C1298 0.929 . S
H1285 C1299 0.931 . S
H1286 C1301 0.930 . S
C1287 H1275 0.930 . S
C1287 C1288 1.399 . S
C1287 C1292 1.399 . S
C1288 C1287 1.399 . S
C1288 C1289 1.376 . S
C1289 H1276 0.930 . S
C1289 C1288 1.376 . S
C1289 C1290 1.388 . S
C1290 H1277 0.930 . S
C1290 C1289 1.388 . S
C1290 C1291 1.390 . S
C1291 C1290 1.390 . S
C1291 C1292 1.394 . S
C1291 C1297 1.465 . S
C1292 C1287 1.399 . S
C1292 C1291 1.394 . S
C1292 C1293 1.516 . S
C1293 C1292 1.516 . S
C1293 C1294 1.502 . S
C1293 C1295 1.561 . S
C1293 C1296 1.526 . S
C1294 H1278 0.959 . S
C1294 H1279 0.959 . S
C1294 H1280 0.961 . S
C1294 C1293 1.502 . S
C1295 H1281 0.960 . S
C1295 H1282 0.961 . S
C1295 H1283 0.959 . S
C1295 C1293 1.561 . S
C1296 C1293 1.526 . S
C1296 C1297 1.396 . S
C1296 C1301 1.390 . S
C1297 C1291 1.465 . S
C1297 C1296 1.396 . S
C1297 C1298 1.399 . S
C1298 H1284 0.929 . S
C1298 C1297 1.399 . S
C1298 C1299 1.385 . S
C1299 H1285 0.931 . S
C1299 C1298 1.385 . S
C1299 C1300 1.389 . S
C1300 C1299 1.389 . S
C1300 C1301 1.387 . S
C1301 H1286 0.930 . S
C1301 C1296 1.390 . S
C1301 C1300 1.387 . S
H1302 C1314 0.930 . S
H1303 C1316 0.930 . S
H1304 C1317 0.930 . S
H1305 C1321 0.959 . S
H1306 C1321 0.959 . S
H1307 C1321 0.961 . S
H1308 C1322 0.960 . S
H1309 C1322 0.961 . S
H1310 C1322 0.959 1_455 S
H1311 C1325 0.929 . S
H1312 C1326 0.931 1_545 S
H1313 C1328 0.930 . S
C1314 H1302 0.930 . S
C1314 C1315 1.399 . S
C1314 C1319 1.399 . S
C1315 C1314 1.399 . S
C1315 C1316 1.376 . S
C1316 H1303 0.930 . S
C1316 C1315 1.376 . S
C1316 C1317 1.388 . S
C1317 H1304 0.930 . S
C1317 C1316 1.388 . S
C1317 C1318 1.390 . S
C1318 C1317 1.390 . S
C1318 C1319 1.394 . S
C1318 C1324 1.465 . S
C1319 C1314 1.399 . S
C1319 C1318 1.394 . S
C1319 C1320 1.516 . S
C1320 C1319 1.516 . S
C1320 C1321 1.502 . S
C1320 C1322 1.561 . S
C1320 C1323 1.526 . S
C1321 H1305 0.959 . S
C1321 H1306 0.959 . S
C1321 H1307 0.961 . S
C1321 C1320 1.502 . S
C1322 H1308 0.960 . S
C1322 H1309 0.961 . S
C1322 H1310 0.959 1_655 S
C1322 C1320 1.561 . S
C1323 C1320 1.526 . S
C1323 C1324 1.396 . S
C1323 C1328 1.390 . S
C1324 C1318 1.465 . S
C1324 C1323 1.396 . S
C1324 C1325 1.399 . S
C1325 H1311 0.929 . S
C1325 C1324 1.399 . S
C1325 C1326 1.385 . S
C1326 H1312 0.931 1_565 S
C1326 C1325 1.385 . S
C1326 C1327 1.389 . S
C1327 C1326 1.389 . S
C1327 C1328 1.387 . S
C1328 H1313 0.930 . S
C1328 C1323 1.390 . S
C1328 C1327 1.387 . S
H1329 C1341 0.930 . S
H1330 C1343 0.930 . S
H1331 C1344 0.930 . S
H1332 C1348 0.959 . S
H1333 C1348 0.959 . S
H1334 C1348 0.961 . S
H1335 C1349 0.960 . S
H1336 C1349 0.961 . S
H1337 C1349 0.959 . S
H1338 C1352 0.929 . S
H1339 C1353 0.931 . S
H1340 C1355 0.930 . S
C1341 H1329 0.930 . S
C1341 C1342 1.399 . S
C1341 C1346 1.399 . S
C1342 C1341 1.399 . S
C1342 C1343 1.376 . S
C1343 H1330 0.930 . S
C1343 C1342 1.376 . S
C1343 C1344 1.388 . S
C1344 H1331 0.930 . S
C1344 C1343 1.388 . S
C1344 C1345 1.390 . S
C1345 C1344 1.390 . S
C1345 C1346 1.394 . S
C1345 C1351 1.465 . S
C1346 C1341 1.399 . S
C1346 C1345 1.394 . S
C1346 C1347 1.516 . S
C1347 C1346 1.516 . S
C1347 C1348 1.502 . S
C1347 C1349 1.561 . S
C1347 C1350 1.526 . S
C1348 H1332 0.959 . S
C1348 H1333 0.959 . S
C1348 H1334 0.961 . S
C1348 C1347 1.502 . S
C1349 H1335 0.960 . S
C1349 H1336 0.961 . S
C1349 H1337 0.959 . S
C1349 C1347 1.561 . S
C1350 C1347 1.526 . S
C1350 C1351 1.396 . S
C1350 C1355 1.390 . S
C1351 C1345 1.465 . S
C1351 C1350 1.396 . S
C1351 C1352 1.399 . S
C1352 H1338 0.929 . S
C1352 C1351 1.399 . S
C1352 C1353 1.385 . S
C1353 H1339 0.931 . S
C1353 C1352 1.385 . S
C1353 C1354 1.389 . S
C1354 C1353 1.389 . S
C1354 C1355 1.387 . S
C1355 H1340 0.930 . S
C1355 C1350 1.390 . S
C1355 C1354 1.387 . S
H1356 C1368 0.930 . S
H1357 C1370 0.930 . S
H1358 C1371 0.930 . S
H1359 C1375 0.959 . S
H1360 C1375 0.959 . S
H1361 C1375 0.961 . S
H1362 C1376 0.960 . S
H1363 C1376 0.961 . S
H1364 C1376 0.959 . S
H1365 C1379 0.929 . S
H1366 C1380 0.931 . S
H1367 C1382 0.930 . S
C1368 H1356 0.930 . S
C1368 C1369 1.399 . S
C1368 C1373 1.399 . S
C1369 C1368 1.399 . S
C1369 C1370 1.376 . S
C1370 H1357 0.930 . S
C1370 C1369 1.376 . S
C1370 C1371 1.388 . S
C1371 H1358 0.930 . S
C1371 C1370 1.388 . S
C1371 C1372 1.390 . S
C1372 C1371 1.390 . S
C1372 C1373 1.394 . S
C1372 C1378 1.465 . S
C1373 C1368 1.399 . S
C1373 C1372 1.394 . S
C1373 C1374 1.516 . S
C1374 C1373 1.516 . S
C1374 C1375 1.502 . S
C1374 C1376 1.561 . S
C1374 C1377 1.526 . S
C1375 H1359 0.959 . S
C1375 H1360 0.959 . S
C1375 H1361 0.961 . S
C1375 C1374 1.502 . S
C1376 H1362 0.960 . S
C1376 H1363 0.961 . S
C1376 H1364 0.959 . S
C1376 C1374 1.561 . S
C1377 C1374 1.526 . S
C1377 C1378 1.396 . S
C1377 C1382 1.390 . S
C1378 C1372 1.465 . S
C1378 C1377 1.396 . S
C1378 C1379 1.399 . S
C1379 H1365 0.929 . S
C1379 C1378 1.399 . S
C1379 C1380 1.385 . S
C1380 H1366 0.931 . S
C1380 C1379 1.385 . S
C1380 C1381 1.389 . S
C1381 C1380 1.389 . S
C1381 C1382 1.387 . S
C1382 H1367 0.930 . S
C1382 C1377 1.390 . S
C1382 C1381 1.387 . S
H1383 C1395 0.930 . S
H1384 C1397 0.930 . S
H1385 C1398 0.930 . S
H1386 C1402 0.959 . S
H1387 C1402 0.959 . S
H1388 C1402 0.961 . S
H1389 C1403 0.960 . S
H1390 C1403 0.961 . S
H1391 C1403 0.959 . S
H1392 C1406 0.929 . S
H1393 C1407 0.931 . S
H1394 C1409 0.930 . S
C1395 H1383 0.930 . S
C1395 C1396 1.399 . S
C1395 C1400 1.399 . S
C1396 C1395 1.399 . S
C1396 C1397 1.376 . S
C1397 H1384 0.930 . S
C1397 C1396 1.376 . S
C1397 C1398 1.388 . S
C1398 H1385 0.930 . S
C1398 C1397 1.388 . S
C1398 C1399 1.390 . S
C1399 C1398 1.390 . S
C1399 C1400 1.394 . S
C1399 C1405 1.465 . S
C1400 C1395 1.399 . S
C1400 C1399 1.394 . S
C1400 C1401 1.516 . S
C1401 C1400 1.516 . S
C1401 C1402 1.502 . S
C1401 C1403 1.561 . S
C1401 C1404 1.526 . S
C1402 H1386 0.959 . S
C1402 H1387 0.959 . S
C1402 H1388 0.961 . S
C1402 C1401 1.502 . S
C1403 H1389 0.960 . S
C1403 H1390 0.961 . S
C1403 H1391 0.959 . S
C1403 C1401 1.561 . S
C1404 C1401 1.526 . S
C1404 C1405 1.396 . S
C1404 C1409 1.390 . S
C1405 C1399 1.465 . S
C1405 C1404 1.396 . S
C1405 C1406 1.399 . S
C1406 H1392 0.929 . S
C1406 C1405 1.399 . S
C1406 C1407 1.385 . S
C1407 H1393 0.931 . S
C1407 C1406 1.385 . S
C1407 C1408 1.389 . S
C1408 C1407 1.389 . S
C1408 C1409 1.387 . S
C1409 H1394 0.930 . S
C1409 C1404 1.390 . S
C1409 C1408 1.387 . S
H1410 C1422 0.930 . S
H1411 C1424 0.930 . S
H1412 C1425 0.930 . S
H1413 C1429 0.959 . S
H1414 C1429 0.959 . S
H1415 C1429 0.961 . S
H1416 C1430 0.960 . S
H1417 C1430 0.961 . S
H1418 C1430 0.959 . S
H1419 C1433 0.929 . S
H1420 C1434 0.931 . S
H1421 C1436 0.930 . S
C1422 H1410 0.930 . S
C1422 C1423 1.399 . S
C1422 C1427 1.399 . S
C1423 C1422 1.399 . S
C1423 C1424 1.376 . S
C1424 H1411 0.930 . S
C1424 C1423 1.376 . S
C1424 C1425 1.388 . S
C1425 H1412 0.930 . S
C1425 C1424 1.388 . S
C1425 C1426 1.390 . S
C1426 C1425 1.390 . S
C1426 C1427 1.394 . S
C1426 C1432 1.465 . S
C1427 C1422 1.399 . S
C1427 C1426 1.394 . S
C1427 C1428 1.516 . S
C1428 C1427 1.516 . S
C1428 C1429 1.502 . S
C1428 C1430 1.561 . S
C1428 C1431 1.526 . S
C1429 H1413 0.959 . S
C1429 H1414 0.959 . S
C1429 H1415 0.961 . S
C1429 C1428 1.502 . S
C1430 H1416 0.960 . S
C1430 H1417 0.961 . S
C1430 H1418 0.959 . S
C1430 C1428 1.561 . S
C1431 C1428 1.526 . S
C1431 C1432 1.396 . S
C1431 C1436 1.390 . S
C1432 C1426 1.465 . S
C1432 C1431 1.396 . S
C1432 C1433 1.399 . S
C1433 H1419 0.929 . S
C1433 C1432 1.399 . S
C1433 C1434 1.385 . S
C1434 H1420 0.931 . S
C1434 C1433 1.385 . S
C1434 C1435 1.389 . S
C1435 C1434 1.389 . S
C1435 C1436 1.387 . S
C1436 H1421 0.930 . S
C1436 C1431 1.390 . S
C1436 C1435 1.387 . S
H1437 C1449 0.930 . S
H1438 C1451 0.930 . S
H1439 C1452 0.930 . S
H1440 C1456 0.959 . S
H1441 C1456 0.959 . S
H1442 C1456 0.961 . S
H1443 C1457 0.960 . S
H1444 C1457 0.961 . S
H1445 C1457 0.959 . S
H1446 C1460 0.929 . S
H1447 C1461 0.931 . S
H1448 C1463 0.930 . S
C1449 H1437 0.930 . S
C1449 C1450 1.399 . S
C1449 C1454 1.399 . S
C1450 C1449 1.399 . S
C1450 C1451 1.376 . S
C1451 H1438 0.930 . S
C1451 C1450 1.376 . S
C1451 C1452 1.388 . S
C1452 H1439 0.930 . S
C1452 C1451 1.388 . S
C1452 C1453 1.390 . S
C1453 C1452 1.390 . S
C1453 C1454 1.394 . S
C1453 C1459 1.465 . S
C1454 C1449 1.399 . S
C1454 C1453 1.394 . S
C1454 C1455 1.516 . S
C1455 C1454 1.516 . S
C1455 C1456 1.502 . S
C1455 C1457 1.561 . S
C1455 C1458 1.526 . S
C1456 H1440 0.959 . S
C1456 H1441 0.959 . S
C1456 H1442 0.961 . S
C1456 C1455 1.502 . S
C1457 H1443 0.960 . S
C1457 H1444 0.961 . S
C1457 H1445 0.959 . S
C1457 C1455 1.561 . S
C1458 C1455 1.526 . S
C1458 C1459 1.396 . S
C1458 C1463 1.390 . S
C1459 C1453 1.465 . S
C1459 C1458 1.396 . S
C1459 C1460 1.399 . S
C1460 H1446 0.929 . S
C1460 C1459 1.399 . S
C1460 C1461 1.385 . S
C1461 H1447 0.931 . S
C1461 C1460 1.385 . S
C1461 C1462 1.389 . S
C1462 C1461 1.389 . S
C1462 C1463 1.387 . S
C1463 H1448 0.930 . S
C1463 C1458 1.390 . S
C1463 C1462 1.387 . S
H1464 C1476 0.930 . S
H1465 C1478 0.930 . S
H1466 C1479 0.930 . S
H1467 C1483 0.959 . S
H1468 C1483 0.959 . S
H1469 C1483 0.961 . S
H1470 C1484 0.960 . S
H1471 C1484 0.961 . S
H1472 C1484 0.959 . S
H1473 C1487 0.929 . S
H1474 C1488 0.931 . S
H1475 C1490 0.930 . S
C1476 H1464 0.930 . S
C1476 C1477 1.399 . S
C1476 C1481 1.399 . S
C1477 C1476 1.399 . S
C1477 C1478 1.376 . S
C1478 H1465 0.930 . S
C1478 C1477 1.376 . S
C1478 C1479 1.388 . S
C1479 H1466 0.930 . S
C1479 C1478 1.388 . S
C1479 C1480 1.390 . S
C1480 C1479 1.390 . S
C1480 C1481 1.394 . S
C1480 C1486 1.465 . S
C1481 C1476 1.399 . S
C1481 C1480 1.394 . S
C1481 C1482 1.516 . S
C1482 C1481 1.516 . S
C1482 C1483 1.502 . S
C1482 C1484 1.561 . S
C1482 C1485 1.526 . S
C1483 H1467 0.959 . S
C1483 H1468 0.959 . S
C1483 H1469 0.961 . S
C1483 C1482 1.502 . S
C1484 H1470 0.960 . S
C1484 H1471 0.961 . S
C1484 H1472 0.959 . S
C1484 C1482 1.561 . S
C1485 C1482 1.526 . S
C1485 C1486 1.396 . S
C1485 C1490 1.390 . S
C1486 C1480 1.465 . S
C1486 C1485 1.396 . S
C1486 C1487 1.399 . S
C1487 H1473 0.929 . S
C1487 C1486 1.399 . S
C1487 C1488 1.385 . S
C1488 H1474 0.931 . S
C1488 C1487 1.385 . S
C1488 C1489 1.389 . S
C1489 C1488 1.389 . S
C1489 C1490 1.387 . S
C1490 H1475 0.930 . S
C1490 C1485 1.390 . S
C1490 C1489 1.387 . S
H1491 C1503 0.930 . S
H1492 C1505 0.930 . S
H1493 C1506 0.930 . S
H1494 C1510 0.959 . S
H1495 C1510 0.959 . S
H1496 C1510 0.961 . S
H1497 C1511 0.960 . S
H1498 C1511 0.961 . S
H1499 C1511 0.959 . S
H1500 C1514 0.929 . S
H1501 C1515 0.931 . S
H1502 C1517 0.930 . S
C1503 H1491 0.930 . S
C1503 C1504 1.399 . S
C1503 C1508 1.399 . S
C1504 C1503 1.399 . S
C1504 C1505 1.376 . S
C1505 H1492 0.930 . S
C1505 C1504 1.376 . S
C1505 C1506 1.388 . S
C1506 H1493 0.930 . S
C1506 C1505 1.388 . S
C1506 C1507 1.390 . S
C1507 C1506 1.390 . S
C1507 C1508 1.394 . S
C1507 C1513 1.465 . S
C1508 C1503 1.399 . S
C1508 C1507 1.394 . S
C1508 C1509 1.516 . S
C1509 C1508 1.516 . S
C1509 C1510 1.502 . S
C1509 C1511 1.561 . S
C1509 C1512 1.526 . S
C1510 H1494 0.959 . S
C1510 H1495 0.959 . S
C1510 H1496 0.961 . S
C1510 C1509 1.502 . S
C1511 H1497 0.960 . S
C1511 H1498 0.961 . S
C1511 H1499 0.959 . S
C1511 C1509 1.561 . S
C1512 C1509 1.526 . S
C1512 C1513 1.396 . S
C1512 C1517 1.390 . S
C1513 C1507 1.465 . S
C1513 C1512 1.396 . S
C1513 C1514 1.399 . S
C1514 H1500 0.929 . S
C1514 C1513 1.399 . S
C1514 C1515 1.385 . S
C1515 H1501 0.931 . S
C1515 C1514 1.385 . S
C1515 C1516 1.389 . S
C1516 C1515 1.389 . S
C1516 C1517 1.387 . S
C1517 H1502 0.930 . S
C1517 C1512 1.390 . S
C1517 C1516 1.387 . S
H1518 C1530 0.930 1_655 S
H1519 C1532 0.930 1_655 S
H1520 C1533 0.930 . S
H1521 C1537 0.959 . S
H1522 C1537 0.959 . S
H1523 C1537 0.961 . S
H1524 C1538 0.960 . S
H1525 C1538 0.961 . S
H1526 C1538 0.959 . S
H1527 C1541 0.929 . S
H1528 C1542 0.931 . S
H1529 C1544 0.930 . S
C1530 H1518 0.930 1_455 S
C1530 C1531 1.399 1_455 S
C1530 C1535 1.399 . S
C1531 C1530 1.399 1_655 S
C1531 C1532 1.376 1_655 S
C1532 H1519 0.930 1_455 S
C1532 C1531 1.376 1_455 S
C1532 C1533 1.388 . S
C1533 H1520 0.930 . S
C1533 C1532 1.388 . S
C1533 C1534 1.390 . S
C1534 C1533 1.390 . S
C1534 C1535 1.394 . S
C1534 C1540 1.465 . S
C1535 C1530 1.399 . S
C1535 C1534 1.394 . S
C1535 C1536 1.516 . S
C1536 C1535 1.516 . S
C1536 C1537 1.502 . S
C1536 C1538 1.561 . S
C1536 C1539 1.526 . S
C1537 H1521 0.959 . S
C1537 H1522 0.959 . S
C1537 H1523 0.961 . S
C1537 C1536 1.502 . S
C1538 H1524 0.960 . S
C1538 H1525 0.961 . S
C1538 H1526 0.959 . S
C1538 C1536 1.561 . S
C1539 C1536 1.526 . S
C1539 C1540 1.396 . S
C1539 C1544 1.390 . S
C1540 C1534 1.465 . S
C1540 C1539 1.396 . S
C1540 C1541 1.399 . S
C1541 H1527 0.929 . S
C1541 C1540 1.399 . S
C1541 C1542 1.385 . S
C1542 H1528 0.931 . S
C1542 C1541 1.385 . S
C1542 C1543 1.389 . S
C1543 C1542 1.389 . S
C1543 C1544 1.387 . S
C1544 H1529 0.930 . S
C1544 C1539 1.390 . S
C1544 C1543 1.387 . S
H1545 C1557 0.930 . S
H1546 C1559 0.930 . S
H1547 C1560 0.930 . S
H1548 C1564 0.959 . S
H1549 C1564 0.959 . S
H1550 C1564 0.961 . S
H1551 C1565 0.960 . S
H1552 C1565 0.961 . S
H1553 C1565 0.959 . S
H1554 C1568 0.929 . S
H1555 C1569 0.931 1_545 S
H1556 C1571 0.930 . S
C1557 H1545 0.930 . S
C1557 C1558 1.399 . S
C1557 C1562 1.399 . S
C1558 C1557 1.399 . S
C1558 C1559 1.376 . S
C1559 H1546 0.930 . S
C1559 C1558 1.376 . S
C1559 C1560 1.388 . S
C1560 H1547 0.930 . S
C1560 C1559 1.388 . S
C1560 C1561 1.390 . S
C1561 C1560 1.390 . S
C1561 C1562 1.394 . S
C1561 C1567 1.465 . S
C1562 C1557 1.399 . S
C1562 C1561 1.394 . S
C1562 C1563 1.516 . S
C1563 C1562 1.516 . S
C1563 C1564 1.502 . S
C1563 C1565 1.561 . S
C1563 C1566 1.526 . S
C1564 H1548 0.959 . S
C1564 H1549 0.959 . S
C1564 H1550 0.961 . S
C1564 C1563 1.502 . S
C1565 H1551 0.960 . S
C1565 H1552 0.961 . S
C1565 H1553 0.959 . S
C1565 C1563 1.561 . S
C1566 C1563 1.526 . S
C1566 C1567 1.396 . S
C1566 C1571 1.390 . S
C1567 C1561 1.465 . S
C1567 C1566 1.396 . S
C1567 C1568 1.399 . S
C1568 H1554 0.929 . S
C1568 C1567 1.399 . S
C1568 C1569 1.385 . S
C1569 H1555 0.931 1_565 S
C1569 C1568 1.385 . S
C1569 C1570 1.389 . S
C1570 C1569 1.389 . S
C1570 C1571 1.387 . S
C1571 H1556 0.930 . S
C1571 C1566 1.390 . S
C1571 C1570 1.387 . S
H1572 C1584 0.930 . S
H1573 C1586 0.930 . S
H1574 C1587 0.930 . S
H1575 C1591 0.959 . S
H1576 C1591 0.959 . S
H1577 C1591 0.961 . S
H1578 C1592 0.960 . S
H1579 C1592 0.961 . S
H1580 C1592 0.959 . S
H1581 C1595 0.929 . S
H1582 C1596 0.931 . S
H1583 C1598 0.930 . S
C1584 H1572 0.930 . S
C1584 C1585 1.399 . S
C1584 C1589 1.399 . S
C1585 C1584 1.399 . S
C1585 C1586 1.376 . S
C1586 H1573 0.930 . S
C1586 C1585 1.376 . S
C1586 C1587 1.388 . S
C1587 H1574 0.930 . S
C1587 C1586 1.388 . S
C1587 C1588 1.390 . S
C1588 C1587 1.390 . S
C1588 C1589 1.394 . S
C1588 C1594 1.465 . S
C1589 C1584 1.399 . S
C1589 C1588 1.394 . S
C1589 C1590 1.516 . S
C1590 C1589 1.516 . S
C1590 C1591 1.502 . S
C1590 C1592 1.561 . S
C1590 C1593 1.526 . S
C1591 H1575 0.959 . S
C1591 H1576 0.959 . S
C1591 H1577 0.961 . S
C1591 C1590 1.502 . S
C1592 H1578 0.960 . S
C1592 H1579 0.961 . S
C1592 H1580 0.959 . S
C1592 C1590 1.561 . S
C1593 C1590 1.526 . S
C1593 C1594 1.396 . S
C1593 C1598 1.390 . S
C1594 C1588 1.465 . S
C1594 C1593 1.396 . S
C1594 C1595 1.399 . S
C1595 H1581 0.929 . S
C1595 C1594 1.399 . S
C1595 C1596 1.385 . S
C1596 H1582 0.931 . S
C1596 C1595 1.385 . S
C1596 C1597 1.389 . S
C1597 C1596 1.389 . S
C1597 C1598 1.387 . S
C1598 H1583 0.930 . S
C1598 C1593 1.390 . S
C1598 C1597 1.387 . S
H1599 C1611 0.930 . S
H1600 C1613 0.930 . S
H1601 C1614 0.930 . S
H1602 C1618 0.959 . S
H1603 C1618 0.959 . S
H1604 C1618 0.961 . S
H1605 C1619 0.960 . S
H1606 C1619 0.961 . S
H1607 C1619 0.959 . S
H1608 C1622 0.929 . S
H1609 C1623 0.931 . S
H1610 C1625 0.930 . S
C1611 H1599 0.930 . S
C1611 C1612 1.399 . S
C1611 C1616 1.399 . S
C1612 C1611 1.399 . S
C1612 C1613 1.376 . S
C1613 H1600 0.930 . S
C1613 C1612 1.376 . S
C1613 C1614 1.388 . S
C1614 H1601 0.930 . S
C1614 C1613 1.388 . S
C1614 C1615 1.390 . S
C1615 C1614 1.390 . S
C1615 C1616 1.394 . S
C1615 C1621 1.465 . S
C1616 C1611 1.399 . S
C1616 C1615 1.394 . S
C1616 C1617 1.516 . S
C1617 C1616 1.516 . S
C1617 C1618 1.502 . S
C1617 C1619 1.561 . S
C1617 C1620 1.526 . S
C1618 H1602 0.959 . S
C1618 H1603 0.959 . S
C1618 H1604 0.961 . S
C1618 C1617 1.502 . S
C1619 H1605 0.960 . S
C1619 H1606 0.961 . S
C1619 H1607 0.959 . S
C1619 C1617 1.561 . S
C1620 C1617 1.526 . S
C1620 C1621 1.396 . S
C1620 C1625 1.390 . S
C1621 C1615 1.465 . S
C1621 C1620 1.396 . S
C1621 C1622 1.399 . S
C1622 H1608 0.929 . S
C1622 C1621 1.399 . S
C1622 C1623 1.385 . S
C1623 H1609 0.931 . S
C1623 C1622 1.385 . S
C1623 C1624 1.389 . S
C1624 C1623 1.389 . S
C1624 C1625 1.387 . S
C1625 H1610 0.930 . S
C1625 C1620 1.390 . S
C1625 C1624 1.387 . S
H1626 C1638 0.930 . S
H1627 C1640 0.930 . S
H1628 C1641 0.930 . S
H1629 C1645 0.959 . S
H1630 C1645 0.959 . S
H1631 C1645 0.961 . S
H1632 C1646 0.960 . S
H1633 C1646 0.961 . S
H1634 C1646 0.959 . S
H1635 C1649 0.929 . S
H1636 C1650 0.931 . S
H1637 C1652 0.930 . S
C1638 H1626 0.930 . S
C1638 C1639 1.399 . S
C1638 C1643 1.399 . S
C1639 C1638 1.399 . S
C1639 C1640 1.376 . S
C1640 H1627 0.930 . S
C1640 C1639 1.376 . S
C1640 C1641 1.388 . S
C1641 H1628 0.930 . S
C1641 C1640 1.388 . S
C1641 C1642 1.390 . S
C1642 C1641 1.390 . S
C1642 C1643 1.394 . S
C1642 C1648 1.465 . S
C1643 C1638 1.399 . S
C1643 C1642 1.394 . S
C1643 C1644 1.516 . S
C1644 C1643 1.516 . S
C1644 C1645 1.502 . S
C1644 C1646 1.561 . S
C1644 C1647 1.526 . S
C1645 H1629 0.959 . S
C1645 H1630 0.959 . S
C1645 H1631 0.961 . S
C1645 C1644 1.502 . S
C1646 H1632 0.960 . S
C1646 H1633 0.961 . S
C1646 H1634 0.959 . S
C1646 C1644 1.561 . S
C1647 C1644 1.526 . S
C1647 C1648 1.396 . S
C1647 C1652 1.390 . S
C1648 C1642 1.465 . S
C1648 C1647 1.396 . S
C1648 C1649 1.399 . S
C1649 H1635 0.929 . S
C1649 C1648 1.399 . S
C1649 C1650 1.385 . S
C1650 H1636 0.931 . S
C1650 C1649 1.385 . S
C1650 C1651 1.389 . S
C1651 C1650 1.389 . S
C1651 C1652 1.387 . S
C1652 H1637 0.930 . S
C1652 C1647 1.390 . S
C1652 C1651 1.387 . S
H1653 C1665 0.930 . S
H1654 C1667 0.930 1_554 S
H1655 C1668 0.930 1_554 S
H1656 C1672 0.959 . S
H1657 C1672 0.959 . S
H1658 C1672 0.961 . S
H1659 C1673 0.960 . S
H1660 C1673 0.961 . S
H1661 C1673 0.959 . S
H1662 C1676 0.929 1_554 S
H1663 C1677 0.931 . S
H1664 C1679 0.930 . S
C1665 H1653 0.930 . S
C1665 C1666 1.399 . S
C1665 C1670 1.399 . S
C1666 C1665 1.399 . S
C1666 C1667 1.376 . S
C1667 H1654 0.930 1_556 S
C1667 C1666 1.376 . S
C1667 C1668 1.388 . S
C1668 H1655 0.930 1_556 S
C1668 C1667 1.388 . S
C1668 C1669 1.390 . S
C1669 C1668 1.390 . S
C1669 C1670 1.394 . S
C1669 C1675 1.465 1_545 S
C1670 C1665 1.399 . S
C1670 C1669 1.394 . S
C1670 C1671 1.516 1_545 S
C1671 C1670 1.516 1_565 S
C1671 C1672 1.502 . S
C1671 C1673 1.561 . S
C1671 C1674 1.526 . S
C1672 H1656 0.959 . S
C1672 H1657 0.959 . S
C1672 H1658 0.961 . S
C1672 C1671 1.502 . S
C1673 H1659 0.960 . S
C1673 H1660 0.961 . S
C1673 H1661 0.959 . S
C1673 C1671 1.561 . S
C1674 C1671 1.526 . S
C1674 C1675 1.396 . S
C1674 C1679 1.390 . S
C1675 C1669 1.465 1_565 S
C1675 C1674 1.396 . S
C1675 C1676 1.399 . S
C1676 H1662 0.929 1_556 S
C1676 C1675 1.399 . S
C1676 C1677 1.385 . S
C1677 H1663 0.931 . S
C1677 C1676 1.385 . S
C1677 C1678 1.389 . S
C1678 C1677 1.389 . S
C1678 C1679 1.387 . S
C1679 H1664 0.930 . S
C1679 C1674 1.390 . S
C1679 C1678 1.387 . S
H1680 C1692 0.930 . S
H1681 C1694 0.930 . S
H1682 C1695 0.930 . S
H1683 C1699 0.959 . S
H1684 C1699 0.959 . S
H1685 C1699 0.961 . S
H1686 C1700 0.960 . S
H1687 C1700 0.961 . S
H1688 C1700 0.959 . S
H1689 C1703 0.929 . S
H1690 C1704 0.931 . S
H1691 C1706 0.930 . S
C1692 H1680 0.930 . S
C1692 C1693 1.399 . S
C1692 C1697 1.399 . S
C1693 C1692 1.399 . S
C1693 C1694 1.376 . S
C1694 H1681 0.930 . S
C1694 C1693 1.376 . S
C1694 C1695 1.388 . S
C1695 H1682 0.930 . S
C1695 C1694 1.388 . S
C1695 C1696 1.390 . S
C1696 C1695 1.390 . S
C1696 C1697 1.394 . S
C1696 C1702 1.465 . S
C1697 C1692 1.399 . S
C1697 C1696 1.394 . S
C1697 C1698 1.516 . S
C1698 C1697 1.516 . S
C1698 C1699 1.502 . S
C1698 C1700 1.561 . S
C1698 C1701 1.526 . S
C1699 H1683 0.959 . S
C1699 H1684 0.959 . S
C1699 H1685 0.961 . S
C1699 C1698 1.502 . S
C1700 H1686 0.960 . S
C1700 H1687 0.961 . S
C1700 H1688 0.959 . S
C1700 C1698 1.561 . S
C1701 C1698 1.526 . S
C1701 C1702 1.396 . S
C1701 C1706 1.390 . S
C1702 C1696 1.465 . S
C1702 C1701 1.396 . S
C1702 C1703 1.399 . S
C1703 H1689 0.929 . S
C1703 C1702 1.399 . S
C1703 C1704 1.385 . S
C1704 H1690 0.931 . S
C1704 C1703 1.385 . S
C1704 C1705 1.389 . S
C1705 C1704 1.389 . S
C1705 C1706 1.387 . S
C1706 H1691 0.930 . S
C1706 C1701 1.390 . S
C1706 C1705 1.387 . S
H1707 C1719 0.930 . S
H1708 C1721 0.930 . S
H1709 C1722 0.930 . S
H1710 C1726 0.968 . S
H1711 C1726 0.965 . S
H1712 C1726 0.975 . S
H1713 C1727 0.960 . S
H1714 C1727 0.961 . S
H1715 C1727 0.959 . S
H1716 C1730 0.929 . S
H1717 C1731 0.931 . S
H1718 C1733 0.930 . S
C1719 H1707 0.930 . S
C1719 C1720 1.399 . S
C1719 C1724 1.399 . S
C1720 C1719 1.399 . S
C1720 C1721 1.376 . S
C1721 H1708 0.930 . S
C1721 C1720 1.376 . S
C1721 C1722 1.388 . S
C1722 H1709 0.930 . S
C1722 C1721 1.388 . S
C1722 C1723 1.390 . S
C1723 C1722 1.390 . S
C1723 C1724 1.394 . S
C1723 C1729 1.465 . S
C1724 C1719 1.399 . S
C1724 C1723 1.394 . S
C1724 C1725 1.516 . S
C1725 C1724 1.516 . S
C1725 C1726 1.473 1_554 S
C1725 C1727 1.561 . S
C1725 C1728 1.526 . S
C1726 H1710 0.968 . S
C1726 H1711 0.965 . S
C1726 H1712 0.975 . S
C1726 C1725 1.473 1_556 S
C1727 H1713 0.960 . S
C1727 H1714 0.961 . S
C1727 H1715 0.959 . S
C1727 C1725 1.561 . S
C1728 C1725 1.526 . S
C1728 C1729 1.396 . S
C1728 C1733 1.390 . S
C1729 C1723 1.465 . S
C1729 C1728 1.396 . S
C1729 C1730 1.399 . S
C1730 H1716 0.929 . S
C1730 C1729 1.399 . S
C1730 C1731 1.385 . S
C1731 H1717 0.931 . S
C1731 C1730 1.385 . S
C1731 C1732 1.389 . S
C1732 C1731 1.389 . S
C1732 C1733 1.387 . S
C1733 H1718 0.930 . S
C1733 C1728 1.390 . S
C1733 C1732 1.387 . S
H1734 C1746 0.930 . S
H1735 C1748 0.930 . S
H1736 C1749 0.930 . S
H1737 C1753 0.959 . S
H1738 C1753 0.959 . S
H1739 C1753 0.961 . S
H1740 C1754 0.960 . S
H1741 C1754 0.961 . S
H1742 C1754 0.959 . S
H1743 C1757 0.929 . S
H1744 C1758 0.931 . S
H1745 C1760 0.930 . S
C1746 H1734 0.930 . S
C1746 C1747 1.399 . S
C1746 C1751 1.399 . S
C1747 C1746 1.399 . S
C1747 C1748 1.376 . S
C1748 H1735 0.930 . S
C1748 C1747 1.376 . S
C1748 C1749 1.388 . S
C1749 H1736 0.930 . S
C1749 C1748 1.388 . S
C1749 C1750 1.390 . S
C1750 C1749 1.390 . S
C1750 C1751 1.394 . S
C1750 C1756 1.465 . S
C1751 C1746 1.399 . S
C1751 C1750 1.394 . S
C1751 C1752 1.516 . S
C1752 C1751 1.516 . S
C1752 C1753 1.502 . S
C1752 C1754 1.561 . S
C1752 C1755 1.526 . S
C1753 H1737 0.959 . S
C1753 H1738 0.959 . S
C1753 H1739 0.961 . S
C1753 C1752 1.502 . S
C1754 H1740 0.960 . S
C1754 H1741 0.961 . S
C1754 H1742 0.959 . S
C1754 C1752 1.561 . S
C1755 C1752 1.526 . S
C1755 C1756 1.396 . S
C1755 C1760 1.390 . S
C1756 C1750 1.465 . S
C1756 C1755 1.396 . S
C1756 C1757 1.399 . S
C1757 H1743 0.929 . S
C1757 C1756 1.399 . S
C1757 C1758 1.385 . S
C1758 H1744 0.931 . S
C1758 C1757 1.385 . S
C1758 C1759 1.389 . S
C1759 C1758 1.389 . S
C1759 C1760 1.387 . S
C1760 H1745 0.930 . S
C1760 C1755 1.390 . S
C1760 C1759 1.387 . S
H1761 C1773 0.930 . S
H1762 C1775 0.930 . S
H1763 C1776 0.930 . S
H1764 C1780 0.959 . S
H1765 C1780 0.959 . S
H1766 C1780 0.961 . S
H1767 C1781 0.960 . S
H1768 C1781 0.961 . S
H1769 C1781 0.959 . S
H1770 C1784 0.929 . S
H1771 C1785 0.931 . S
H1772 C1787 0.930 . S
C1773 H1761 0.930 . S
C1773 C1774 1.399 . S
C1773 C1778 1.399 . S
C1774 C1773 1.399 . S
C1774 C1775 1.376 . S
C1775 H1762 0.930 . S
C1775 C1774 1.376 . S
C1775 C1776 1.388 . S
C1776 H1763 0.930 . S
C1776 C1775 1.388 . S
C1776 C1777 1.390 . S
C1777 C1776 1.390 . S
C1777 C1778 1.394 . S
C1777 C1783 1.465 . S
C1778 C1773 1.399 . S
C1778 C1777 1.394 . S
C1778 C1779 1.516 . S
C1779 C1778 1.516 . S
C1779 C1780 1.502 . S
C1779 C1781 1.561 . S
C1779 C1782 1.526 . S
C1780 H1764 0.959 . S
C1780 H1765 0.959 . S
C1780 H1766 0.961 . S
C1780 C1779 1.502 . S
C1781 H1767 0.960 . S
C1781 H1768 0.961 . S
C1781 H1769 0.959 . S
C1781 C1779 1.561 . S
C1782 C1779 1.526 . S
C1782 C1783 1.396 . S
C1782 C1787 1.390 . S
C1783 C1777 1.465 . S
C1783 C1782 1.396 . S
C1783 C1784 1.399 . S
C1784 H1770 0.929 . S
C1784 C1783 1.399 . S
C1784 C1785 1.385 . S
C1785 H1771 0.931 . S
C1785 C1784 1.385 . S
C1785 C1786 1.389 . S
C1786 C1785 1.389 . S
C1786 C1787 1.387 . S
C1787 H1772 0.930 . S
C1787 C1782 1.390 . S
C1787 C1786 1.387 . S
C517 C481 1.321 . S
C505 N12 1.393 . S
C532 C30 1.455 . S
C544 C434 1.198 . S
C559 C62 1.363 . S
C571 C445 1.196 . S
C598 C470 1.183 . S
C586 N81 1.328 . S
C613 C39 1.361 . S
C625 C488 1.152 . S
C652 C427 1.337 . S
C640 C53 1.402 . S
C679 C452 1.149 . S
C667 N71 1.306 1_554 S
C706 C463 1.200 . S
C694 N2 1.342 . S
C721 N94 1.375 . S
C733 C464 1.325 . S
C760 C490 1.255 . S
C748 C131 1.391 . S
C787 C428 1.311 . S
C775 N140 1.311 . S
C814 C454 1.175 . S
C802 C177 1.368 . S
C829 C108 1.315 . S
C841 C436 1.298 . S
C856 N117 1.292 . S
C868 C446 1.270 . S
C883 C154 1.369 . S
C895 C472 1.153 . S
C922 C482 1.273 . S
C910 N163 1.281 . S
C949 C319 1.295 . S
C937 N173 1.382 . S
C976 C302 1.139 . S
C964 C191 1.392 . S
C1003 C328 1.152 . S
C991 N219 1.342 . S
C1030 C346 1.260 . S
C1018 C237 1.421 . S
C1045 N104 1.329 . S
C1057 C320 1.181 . S
C1072 N127 1.334 . S
C1084 C290 1.156 . S
C1099 C214 1.377 . S
C1111 C344 1.322 . S
C1126 C260 1.448 . S
C1138 C301 1.195 . S
C1165 C355 1.207 1_565 S
C1153 N48 1.384 . S
C1192 C380 1.293 . S
C1180 C76 1.399 . S
C1207 C7 1.336 . S
C1219 C391 1.279 . S
C1234 N35 1.307 . S
C1246 C416 1.127 . S
C1273 C362 1.298 . S
C1261 C85 1.336 . S
C1300 C373 1.208 . S
C1288 C16 1.379 . S
C1315 N25 1.309 . S
C1327 C398 1.237 . S
C1354 C409 1.185 . S
C1342 N58 1.316 . S
C1369 N255 1.394 . S
C1381 C410 1.189 . S
C1396 C200 1.311 . S
C1408 C364 1.284 . S
C1435 C374 1.311 . S
C1423 N209 1.277 1_455 S
C1450 C246 1.354 . S
C1462 C400 1.178 . S
C1489 C382 1.192 . S
C1477 C269 1.375 . S
C1504 N186 1.296 . S
C1516 C392 1.274 . S
C1543 C418 1.296 . S
C1531 C223 1.359 . S
C1570 C356 1.210 1_565 S
C1558 N232 1.375 . S
C1597 C283 1.310 . S
C1585 N242 1.378 . S
C1624 C338 1.143 . S
C1612 C122 1.401 1_545 S
C1639 N150 1.348 . S
C1651 C292 1.146 . S
C1678 C310 1.361 . S
C1666 C168 1.394 . S
C1705 C284 1.172 . S
C1693 N265 1.326 . S
C1720 N196 1.332 . S
C1732 C326 1.139 . S
C1747 C145 1.398 . S
C1759 C308 1.187 . S
C1774 C99 1.407 . S
C1786 C337 1.331 . S
