# Generated by pormake.
# Topology pyr, (3,6)-cn, num edge types: 1
# Building blocks:
#     Node 0, Type 0, BuildingBlock: BETDIP_clean_linker_0, # of connection points: 3
#     Node 1, Type 0, BuildingBlock: BETDIP_clean_linker_0, # of connection points: 3
#     Node 2, Type 0, BuildingBlock: BETDIP_clean_linker_0, # of connection points: 3
#     Node 3, Type 0, BuildingBlock: BETDIP_clean_linker_0, # of connection points: 3
#     Node 4, Type 0, BuildingBlock: BETDIP_clean_linker_0, # of connection points: 3
#     Node 5, Type 0, BuildingBlock: BETDIP_clean_linker_0, # of connection points: 3
#     Node 6, Type 0, BuildingBlock: BETDIP_clean_linker_0, # of connection points: 3
#     Node 7, Type 0, BuildingBlock: BETDIP_clean_linker_0, # of connection points: 3
#     Node 8, Type 1, BuildingBlock: JUFBIX_clean_sbu_0, # of connection points: 6
#     Node 9, Type 1, BuildingBlock: JUFBIX_clean_sbu_0, # of connection points: 6
#     Node 10, Type 1, BuildingBlock: JUFBIX_clean_sbu_0, # of connection points: 6
#     Node 11, Type 1, BuildingBlock: JUFBIX_clean_sbu_0, # of connection points: 6
#     Edge 12, Type (0, 1), BuildingBlock: CIFDUS_clean_linker_0, # of connection points: 2
#     Edge 13, Type (0, 1), BuildingBlock: CIFDUS_clean_linker_0, # of connection points: 2
#     Edge 14, Type (0, 1), BuildingBlock: CIFDUS_clean_linker_0, # of connection points: 2
#     Edge 15, Type (0, 1), BuildingBlock: CIFDUS_clean_linker_0, # of connection points: 2
#     Edge 16, Type (0, 1), BuildingBlock: CIFDUS_clean_linker_0, # of connection points: 2
#     Edge 17, Type (0, 1), BuildingBlock: CIFDUS_clean_linker_0, # of connection points: 2
#     Edge 18, Type (0, 1), BuildingBlock: CIFDUS_clean_linker_0, # of connection points: 2
#     Edge 19, Type (0, 1), BuildingBlock: CIFDUS_clean_linker_0, # of connection points: 2
#     Edge 20, Type (0, 1), BuildingBlock: CIFDUS_clean_linker_0, # of connection points: 2
#     Edge 21, Type (0, 1), BuildingBlock: CIFDUS_clean_linker_0, # of connection points: 2
#     Edge 22, Type (0, 1), BuildingBlock: CIFDUS_clean_linker_0, # of connection points: 2
#     Edge 23, Type (0, 1), BuildingBlock: CIFDUS_clean_linker_0, # of connection points: 2
#     Edge 24, Type (0, 1), BuildingBlock: CIFDUS_clean_linker_0, # of connection points: 2
#     Edge 25, Type (0, 1), BuildingBlock: CIFDUS_clean_linker_0, # of connection points: 2
#     Edge 26, Type (0, 1), BuildingBlock: CIFDUS_clean_linker_0, # of connection points: 2
#     Edge 27, Type (0, 1), BuildingBlock: CIFDUS_clean_linker_0, # of connection points: 2
#     Edge 28, Type (0, 1), BuildingBlock: CIFDUS_clean_linker_0, # of connection points: 2
#     Edge 29, Type (0, 1), BuildingBlock: CIFDUS_clean_linker_0, # of connection points: 2
#     Edge 30, Type (0, 1), BuildingBlock: CIFDUS_clean_linker_0, # of connection points: 2
#     Edge 31, Type (0, 1), BuildingBlock: CIFDUS_clean_linker_0, # of connection points: 2
#     Edge 32, Type (0, 1), BuildingBlock: CIFDUS_clean_linker_0, # of connection points: 2
#     Edge 33, Type (0, 1), BuildingBlock: CIFDUS_clean_linker_0, # of connection points: 2
#     Edge 34, Type (0, 1), BuildingBlock: CIFDUS_clean_linker_0, # of connection points: 2
#     Edge 35, Type (0, 1), BuildingBlock: CIFDUS_clean_linker_0, # of connection points: 2
# Relax obj value: 0.182
# Max RMSD: 0.203
# Mean RMSD: 0.129
data_MOF--net-pry--node1-JUFBIX_clean_sbu_0--node2-BETDIP_clean_linker_0--edge1-CIFDUS_clean_linker_0
_symmetry_space_group_name_H-M    P1
_symmetry_Int_Tables_number       1
_symmetry_cell_setting            triclinic
loop_
_symmetry_equiv_pos_as_xyz
'x, y, z'
_cell_length_a     32.314726
_cell_length_b     29.656568
_cell_length_c     33.400268
_cell_angle_alpha  86.466144
_cell_angle_beta   85.151642
_cell_angle_gamma 97.975361
loop_
_atom_site_label
_atom_site_type_symbol
_atom_site_fract_x
_atom_site_fract_y
_atom_site_fract_z
_atom_type_partial_charge
H0 H 0.15282 0.17357 0.25022 0.0
H1 H 0.25765 0.18221 0.16078 0.0
H2 H 0.24654 0.0858 0.26522 0.0
H3 H 0.13192 0.22786 0.21507 0.0
C4 C 0.1513 0.2381 0.18708 0.0
C5 C 0.18167 0.16225 0.23912 0.0
C6 C 0.19657 0.12738 0.26237 0.0
C7 C 0.20335 0.18217 0.20236 0.0
C8 C 0.24098 0.16646 0.18875 0.0
C9 C 0.25766 0.13171 0.21066 0.0
C10 C 0.23511 0.11289 0.24806 0.0
N11 N 0.18841 0.21746 0.17801 0.0
H12 H 0.44254 0.96632 0.68023 0.0
H13 H 0.44196 0.86033 0.59796 0.0
H14 H 0.50878 0.85278 0.70348 0.0
H15 H 0.38958 0.88849 0.57333 0.0
C16 C 0.3827 0.91835 0.58832 0.0
C17 C 0.45335 0.93523 0.67085 0.0
C18 C 0.47806 0.91233 0.69536 0.0
C19 C 0.43917 0.91639 0.63629 0.0
C20 C 0.45183 0.87514 0.62497 0.0
C21 C 0.47767 0.85247 0.64866 0.0
C22 C 0.49044 0.87106 0.68408 0.0
N23 N 0.4095 0.93816 0.61612 0.0
H24 H 0.76679 0.44291 0.85447 0.0
H25 H 0.65601 0.34515 0.85143 0.0
H26 H 0.74098 0.32641 0.94138 0.0
H27 H 0.63053 0.40794 0.82726 0.0
C28 C 0.65632 0.42393 0.80581 0.0
C29 C 0.74702 0.41182 0.86686 0.0
C30 C 0.75863 0.38665 0.9004 0.0
C31 C 0.7095 0.39794 0.84968 0.0
C32 C 0.68422 0.3571 0.86522 0.0
C33 C 0.69512 0.33102 0.8983 0.0
C34 C 0.73203 0.34655 0.9162 0.0
N35 N 0.69839 0.42473 0.81618 0.0
H36 H 0.92344 0.55879 0.48657 0.0
H37 H 0.03583 0.65576 0.47891 0.0
H38 H 0.93156 0.67039 0.56334 0.0
H39 H 0.02613 0.64254 0.41026 0.0
C40 C 1.01495 0.60624 0.41035 0.0
C41 C 0.94162 0.58738 0.49878 0.0
C42 C 0.92244 0.61229 0.52759 0.0
C43 C 0.98223 0.60293 0.48099 0.0
C44 C 1.005 0.64251 0.49366 0.0
C45 C 0.98715 0.66619 0.52424 0.0
C46 C 0.94625 0.65038 0.54162 0.0
N47 N 0.99667 0.58153 0.4468 0.0
H48 H 0.80394 0.86365 0.94857 0.0
H49 H 0.89801 0.86252 0.84991 0.0
H50 H 0.81118 0.96023 0.84501 0.0
H51 H 0.92038 0.80815 0.88466 0.0
C52 C 0.90191 0.79828 0.91322 0.0
C53 C 0.81821 0.87728 0.91897 0.0
C54 C 0.80241 0.91396 0.89919 0.0
C55 C 0.85237 0.85799 0.90183 0.0
C56 C 0.87148 0.87632 0.86359 0.0
C57 C 0.85728 0.91322 0.84238 0.0
C58 C 0.82194 0.93134 0.86026 0.0
N59 N 0.86684 0.8212 0.92457 0.0
H60 H 0.65437 0.12579 0.40336 0.0
H61 H 0.64179 0.22986 0.48517 0.0
H62 H 0.61975 0.25414 0.36069 0.0
H63 H 0.69032 0.19456 0.51706 0.0
C64 C 0.69068 0.16082 0.50625 0.0
C65 C 0.64718 0.15964 0.40894 0.0
C66 C 0.6372 0.18823 0.3773 0.0
C67 C 0.64972 0.17464 0.44746 0.0
C68 C 0.64049 0.21825 0.45513 0.0
C69 C 0.62922 0.247 0.42404 0.0
C70 C 0.62791 0.23199 0.38493 0.0
N71 N 0.66369 0.14549 0.47701 0.0
H72 H 0.28827 0.6091 0.23183 0.0
H73 H 0.40089 0.7067 0.21474 0.0
H74 H 0.30534 0.71218 0.13315 0.0
H75 H 0.42687 0.65703 0.2535 0.0
C76 C 0.40136 0.63979 0.27457 0.0
C77 C 0.30701 0.63834 0.2149 0.0
C78 C 0.29235 0.65793 0.18022 0.0
C79 C 0.34625 0.65526 0.22753 0.0
C80 C 0.37082 0.69313 0.20529 0.0
C81 C 0.3567 0.71397 0.17084 0.0
C82 C 0.31734 0.69589 0.15876 0.0
N83 N 0.35946 0.6341 0.26309 0.0
H84 H 1.02456 0.37369 0.62427 0.0
H85 H 0.12306 0.48809 0.6033 0.0
H86 H 0.13083 0.36611 0.54116 0.0
H87 H 1.01127 0.40426 0.68129 0.0
C88 C 0.02873 0.43823 0.68133 0.0
C89 C 0.05333 0.39053 0.60776 0.0
C90 C 0.07586 0.3655 0.58177 0.0
C91 C 0.06991 0.43562 0.61454 0.0
C92 C 0.10898 0.45511 0.59492 0.0
C93 C 0.13223 0.42975 0.56955 0.0
C94 C 0.11361 0.38629 0.56077 0.0
N95 N 0.05216 0.4596 0.64561 0.0
Co96 Co 0.99687 0.01531 0.5332 0.0
C97 C 0.02683 0.93222 0.5379 0.0
Co98 Co 0.05172 0.01519 0.56766 0.0
C99 C 0.91493 0.03176 0.5177 0.0
C100 C 0.94209 0.99638 0.47053 0.0
N101 N 0.94971 0.01398 0.50587 0.0
N102 N 0.88579 0.02629 0.49116 0.0
C103 C 0.9027 1.00387 0.46139 0.0
H104 H 0.91113 0.04833 0.54548 0.0
H105 H 0.96393 0.97966 0.45244 0.0
C106 C 1.02189 0.09874 0.56171 0.0
N107 N 0.09872 0.01713 0.59551 0.0
C108 C 0.13559 1.00319 0.58399 0.0
C109 C 0.104 0.03454 0.63136 0.0
N110 N 0.16387 0.01136 0.61116 0.0
C111 C 0.14399 0.03103 0.64108 0.0
C112 C 0.07267 0.03974 0.48319 0.0
O113 O 0.9946 0.07721 0.54216 0.0
O114 O 0.05002 0.07788 0.57555 0.0
O115 O 0.08747 0.03293 0.51698 0.0
O116 O 0.0328 0.03424 0.4829 0.0
O117 O 0.0532 0.95218 0.55951 0.0
H118 H 0.08039 0.0492 0.64911 0.0
H119 H 0.14178 0.98826 0.55572 0.0
O120 O 0.99942 0.95379 0.5237 0.0
O121 O 0.96105 0.99629 0.58397 0.0
O122 O 1.01588 0.9978 0.61801 0.0
C123 C 0.97606 0.99121 0.61789 0.0
H124 H 0.88815 0.99457 0.43448 0.0
H125 H 0.15721 0.04184 0.66823 0.0
Co126 Co 0.51028 0.02174 1.01967 0.0
C127 C 0.49878 0.94876 0.08071 0.0
Co128 Co 0.54553 0.03332 0.07258 0.0
C129 C 0.48997 1.00016 0.93931 0.0
C130 C 0.43581 0.99398 0.98195 0.0
N131 N 0.47765 1.0078 0.9777 0.0
N132 N 0.45764 0.9812 0.91999 0.0
C133 C 0.42348 0.97757 0.94662 0.0
H134 H 0.52239 1.00503 0.92671 0.0
H135 H 0.41589 0.99283 1.0098 0.0
C136 C 0.55741 0.10692 1.01333 0.0
N137 N 0.57842 0.04788 0.11444 0.0
C138 C 0.56671 0.06099 0.15127 0.0
C139 C 0.62074 0.05638 0.11099 0.0
N140 N 0.59998 0.07783 0.17057 0.0
C141 C 0.63399 0.07454 0.14526 0.0
C142 C 0.5908 0.99545 1.00744 0.0
O143 O 0.53307 0.08118 0.99341 0.0
O144 O 0.56509 0.09225 0.04801 0.0
O145 O 0.59358 1.00946 0.04272 0.0
O146 O 0.55601 0.99638 0.99246 0.0
O147 O 0.52573 0.97457 0.09765 0.0
H148 H 0.64095 0.05281 0.08426 0.0
H149 H 0.53437 0.05992 0.16307 0.0
O150 O 0.48821 0.96246 0.0466 0.0
O151 O 0.46435 0.04749 0.0469 0.0
O152 O 0.49668 0.05638 0.10115 0.0
C153 C 0.46377 0.05923 0.08298 0.0
H154 H 0.39219 0.96207 0.94153 0.0
H155 H 0.66618 0.08714 0.14982 0.0
Co156 Co 0.56061 0.5553 0.5332 0.0
C157 C 0.50257 0.56146 0.47477 0.0
Co158 Co 0.49665 0.52024 0.55185 0.0
C159 C 0.6504 0.58284 0.52755 0.0
C160 C 0.61879 0.62994 0.49486 0.0
N161 N 0.6122 0.58954 0.51691 0.0
N162 N 0.68049 0.61777 0.51341 0.0
C163 C 0.66065 0.64728 0.49255 0.0
H164 H 0.65571 0.55384 0.54672 0.0
H165 H 0.59451 0.64651 0.48233 0.0
C166 C 0.55477 0.51408 0.61022 0.0
N167 N 0.44549 0.48542 0.56886 0.0
C168 C 0.40666 0.48868 0.55786 0.0
C169 C 0.44086 0.44666 0.59319 0.0
N170 N 0.37827 0.45314 0.57415 0.0
C171 C 0.39974 0.427 0.59667 0.0
C172 C 0.55121 0.46684 0.51375 0.0
O173 O 0.58079 0.53683 0.5833 0.0
O174 O 0.51677 0.50461 0.60268 0.0
O175 O 0.51489 0.46798 0.531 0.0
O176 O 0.57801 0.5029 0.50996 0.0
O177 O 0.47702 0.53651 0.50086 0.0
H178 H 0.46606 0.43251 0.60649 0.0
H179 H 0.39973 0.51539 0.53698 0.0
O180 O 0.54007 0.57326 0.48317 0.0
O181 O 0.54273 0.60742 0.5567 0.0
O182 O 0.47849 0.57244 0.57273 0.0
C183 C 0.50541 0.6081 0.57198 0.0
H184 H 0.67519 0.6794 0.47704 0.0
H185 H 0.3868 0.39541 0.61401 0.0
Co186 Co 0.04111 0.50807 1.01903 0.0
C187 C 0.95531 0.47146 1.02394 0.0
Co188 Co 1.00514 0.51992 0.07564 0.0
C189 C 0.05584 0.47445 0.94037 0.0
C190 C 0.10274 0.52975 0.95055 0.0
N191 N 0.06919 0.50168 0.96907 0.0
N192 N 0.07887 0.48518 0.90461 0.0
C193 C 0.10875 0.51968 0.91103 0.0
H194 H 0.02774 0.44955 0.94454 0.0
H195 H 0.12003 0.55795 0.96388 0.0
C196 C 0.09082 0.55691 0.07022 0.0
N197 N 0.97723 0.52644 0.1255 0.0
C198 C 0.98922 0.55591 0.15305 0.0
C199 C 0.94569 0.49658 0.14524 0.0
N200 N 0.96729 0.54491 0.18934 0.0
C201 C 0.93954 0.50782 0.18442 0.0
C202 C 0.04483 0.43932 0.07841 0.0
O203 O 0.09112 0.5406 0.03595 0.0
O204 O 0.05629 0.55231 0.09233 0.0
O205 O 1.02108 0.46346 0.09739 0.0
O206 O 0.05737 0.4516 0.04158 0.0
O207 O 0.95453 0.48747 0.05842 0.0
H208 H 0.93014 0.46659 0.13291 0.0
H209 H 1.01579 0.58277 0.14767 0.0
O210 O 0.9902 0.47574 1.0025 0.0
O211 O 0.02512 0.56441 0.99726 0.0
O212 O 0.98928 0.57657 0.05323 0.0
C213 C 1.00185 0.58888 1.01642 0.0
H214 H 0.13195 0.53796 0.88833 0.0
H215 H 0.91784 0.48876 0.20796 0.0
H216 H 0.21881 0.10762 0.34035 0.0
H217 H 0.11217 0.09812 0.27036 0.0
H218 H 0.06531 0.07101 0.33059 0.0
H219 H 0.05295 0.05205 0.4043 0.0
H220 H 0.15887 0.06039 0.47514 0.0
H221 H 0.2065 0.08529 0.41452 0.0
C222 C 0.18541 0.09908 0.33813 0.0
C223 C 0.16952 0.10562 0.30017 0.0
C224 C 0.15791 0.08341 0.3736 0.0
C225 C 0.12577 0.09432 0.2987 0.0
C226 C 0.09867 0.07864 0.3334 0.0
C227 C 0.08645 0.0592 0.40664 0.0
C228 C 0.10175 0.05428 0.44498 0.0
C229 C 0.11411 0.07356 0.37123 0.0
C230 C 0.1456 0.06374 0.44658 0.0
C231 C 0.17313 0.07808 0.41164 0.0
H232 H 0.44324 0.87154 0.76626 0.0
H233 H 0.52616 0.99023 0.71316 0.0
H234 H 0.52944 0.02142 0.77948 0.0
H235 H 0.50437 0.01677 0.85202 0.0
H236 H 0.41672 0.90044 0.90289 0.0
H237 H 0.41923 0.86636 0.8382 0.0
C238 C 0.46264 0.90379 0.76955 0.0
C239 C 0.48501 0.92837 0.73545 0.0
C240 C 0.46289 0.92212 0.80722 0.0
C241 C 0.50921 0.97067 0.73942 0.0
C242 C 0.51081 0.98852 0.77716 0.0
C243 C 0.48614 0.98387 0.84876 0.0
C244 C 0.46013 0.96127 0.88187 0.0
C245 C 0.48714 0.9649 0.81118 0.0
C246 C 0.43638 0.91874 0.87753 0.0
C247 C 0.43802 0.89913 0.84068 0.0
H248 H 0.57911 0.42524 0.78225 0.0
H249 H 0.70948 0.47035 0.74259 0.0
H250 H 0.6897 0.50347 0.67902 0.0
H251 H 0.63477 0.51831 0.634 0.0
H252 H 0.50464 0.47133 0.67491 0.0
H253 H 0.5249 0.44056 0.73839 0.0
C254 C 0.60323 0.44247 0.75972 0.0
C255 C 0.64566 0.44532 0.76719 0.0
C256 C 0.5916 0.46115 0.72331 0.0
C257 C 0.67656 0.46766 0.73768 0.0
C258 C 0.66522 0.48659 0.70128 0.0
C259 C 0.61085 0.50157 0.6569 0.0
C260 C 0.56813 0.49731 0.64945 0.0
C261 C 0.62277 0.48342 0.69365 0.0
C262 C 0.53768 0.47523 0.67955 0.0
C263 C 0.54923 0.45751 0.716 0.0
H264 H 1.02427 0.65156 0.33675 0.0
H265 H 0.98801 0.51726 0.39711 0.0
H266 H 0.96911 0.48682 0.33387 0.0
H267 H 0.96154 0.49852 0.2618 0.0
H268 H 0.99727 0.63238 0.20081 0.0
H269 H 1.01777 0.66295 0.26385 0.0
C270 C 1.01261 0.61556 0.33585 0.0
C271 C 1.00743 0.58677 0.37147 0.0
C272 C 1.00135 0.59834 0.2994 0.0
C273 C 0.99215 0.54021 0.37011 0.0
C274 C 0.98121 0.52277 0.33398 0.0
C275 C 0.97323 0.5345 0.26241 0.0
C276 C 0.97743 0.56328 0.22681 0.0
C277 C 0.98519 0.55162 0.29858 0.0
C278 C 0.99376 0.6096 0.22787 0.0
C279 C 1.00548 0.62704 0.26386 0.0
H280 H 0.28567 0.12213 0.13114 0.0
H281 H 0.32286 0.10466 0.25143 0.0
H282 H 0.38923 0.08232 0.22398 0.0
H283 H 0.4384 0.06811 0.16479 0.0
H284 H 0.39861 0.0855 0.04535 0.0
H285 H 0.33326 0.10799 0.07334 0.0
C286 C 0.30824 0.11394 0.15167 0.0
C287 C 0.29837 0.11572 0.19377 0.0
C288 C 0.34679 0.10113 0.13556 0.0
C289 C 0.32852 0.10353 0.21912 0.0
C290 C 0.36699 0.09096 0.20327 0.0
C291 C 0.4156 0.0771 0.14481 0.0
C292 C 0.42442 0.07506 0.10251 0.0
C293 C 0.37679 0.08974 0.16139 0.0
C294 C 0.39358 0.08652 0.07774 0.0
C295 C 0.35576 0.09946 0.09383 0.0
H296 H 0.35261 0.98967 0.62281 0.0
H297 H 0.31982 0.88025 0.54681 0.0
H298 H 0.24878 0.90014 0.54604 0.0
H299 H 0.19525 0.94598 0.57024 0.0
H300 H 0.22886 0.05527 0.64623 0.0
H301 H 0.30033 0.0375 0.64425 0.0
C302 C 0.33008 0.9703 0.60582 0.0
C303 C 0.3413 0.93338 0.58499 0.0
C304 C 0.28936 0.98157 0.60593 0.0
C305 C 0.31178 0.90884 0.56303 0.0
C306 C 0.27119 0.92008 0.56273 0.0
C307 C 0.2183 0.96631 0.58593 0.0
C308 C 0.20648 1.00171 0.60861 0.0
C309 C 0.25949 0.95602 0.58453 0.0
C310 C 0.23676 0.0273 0.62918 0.0
C311 C 0.27778 0.01738 0.62783 0.0
H312 H 0.77257 0.39299 0.98008 0.0
H313 H 0.83604 0.41407 0.86013 0.0
H314 H 0.90232 0.4396 0.88761 0.0
H315 H 0.94236 0.45782 0.94553 0.0
H316 H 0.8787 0.44058 0.06547 0.0
H317 H 0.81292 0.41144 0.03837 0.0
C318 C 0.80097 0.4029 0.96 0.0
C319 C 0.79909 0.40164 0.91797 0.0
C320 C 0.83913 0.41826 0.97606 0.0
C321 C 0.83628 0.41513 0.89247 0.0
C322 C 0.87433 0.42957 0.90821 0.0
C323 C 0.91421 0.4473 0.96586 0.0
C324 C 0.91575 0.4512 1.00764 0.0
C325 C 0.87616 0.43153 0.94993 0.0
C326 C 0.87863 0.43794 0.03327 0.0
C327 C 0.8409 0.4213 1.01774 0.0
H328 H 0.87143 0.67702 0.52735 0.0
H329 H 0.86909 0.53114 0.5428 0.0
H330 H 0.79262 0.51982 0.54178 0.0
H331 H 0.72772 0.55161 0.52978 0.0
H332 H 0.73174 0.69782 0.51441 0.0
H333 H 0.80651 0.70871 0.52219 0.0
C334 C 0.85421 0.64272 0.53184 0.0
C335 C 0.87597 0.60497 0.53534 0.0
C336 C 0.81065 0.63652 0.53042 0.0
C337 C 0.85306 0.56076 0.53996 0.0
C338 C 0.8094 0.5543 0.53921 0.0
C339 C 0.74481 0.58584 0.52875 0.0
C340 C 0.72415 0.62379 0.52078 0.0
C341 C 0.78802 0.59194 0.53334 0.0
C342 C 0.74692 0.66794 0.51937 0.0
C343 C 0.78968 0.67426 0.52418 0.0
H344 H 0.08343 0.28089 0.20086 0.0
H345 H 0.18743 0.27756 0.11205 0.0
H346 H 0.16302 0.33743 0.06962 0.0
H347 H 0.11218 0.39276 0.05841 0.0
H348 H 1.00953 0.39521 0.14943 0.0
H349 H 0.03305 0.33411 0.18964 0.0
C350 C 0.10082 0.29315 0.17216 0.0
C351 C 0.13736 0.2745 0.15991 0.0
C352 C 0.08662 0.32771 0.14802 0.0
C353 C 0.15932 0.29105 0.12251 0.0
C354 C 0.14525 0.32541 0.09815 0.0
C355 C 0.0947 0.37959 0.08683 0.0
C356 C 0.05878 0.39898 0.10051 0.0
C357 C 0.1089 0.34424 0.11059 0.0
C358 C 0.03711 0.38144 0.1378 0.0
C359 C 0.05063 0.34632 0.16104 0.0
H360 H 0.66851 0.30019 0.97623 0.0
H361 H 0.6602 0.26344 0.85397 0.0
H362 H 0.61409 0.19281 0.87789 0.0
H363 H 0.57746 0.13969 0.93412 0.0
H364 H 0.58754 0.17671 0.05621 0.0
H365 H 0.63095 0.24848 0.03189 0.0
C366 C 0.65685 0.27658 0.95484 0.0
C367 C 0.66792 0.28728 0.91337 0.0
C368 C 0.63023 0.23592 0.9688 0.0
C369 C 0.65194 0.25642 0.88607 0.0
C370 C 0.62557 0.21588 0.89973 0.0
C371 C 0.58862 0.16383 0.95528 0.0
C372 C 0.57909 0.1527 0.99694 0.0
C373 C 0.61445 0.20514 0.94108 0.0
C374 C 0.59437 0.18422 1.02397 0.0
C375 C 0.6194 0.22534 1.01012 0.0
H376 H 1.00358 0.7387 0.4708 0.0
H377 H 1.0108 0.69714 0.59549 0.0
H378 H 0.02978 0.77715 0.6101 0.0
H379 H 0.03581 0.85944 0.58843 0.0
H380 H 1.01929 0.89937 0.46517 0.0
H381 H 1.01287 0.81979 0.4486 0.0
C382 C 1.01052 0.74725 0.50089 0.0
C383 C 1.00654 0.71248 0.53196 0.0
C384 C 1.01916 0.79311 0.50928 0.0
C385 C 1.01427 0.72364 0.57114 0.0
C386 C 1.02478 0.76928 0.57947 0.0
C387 C 0.03157 0.85051 0.55788 0.0
C388 C 0.028 0.88481 0.52799 0.0
C389 C 0.02608 0.80441 0.54899 0.0
C390 C 1.02189 0.87322 0.48859 0.0
C391 C 1.01824 0.82783 0.47913 0.0
H392 H 0.42604 0.77787 0.63118 0.0
H393 H 0.5562 0.82859 0.64055 0.0
H394 H 0.57649 0.75704 0.61789 0.0
H395 H 0.55712 0.6811 0.59338 0.0
H396 H 0.42646 0.62949 0.58658 0.0
H397 H 0.40637 0.70039 0.61026 0.0
C398 C 0.45882 0.77313 0.6282 0.0
C399 C 0.48969 0.80838 0.63706 0.0
C400 C 0.4701 0.7319 0.61557 0.0
C401 C 0.53199 0.80176 0.63386 0.0
C402 C 0.54355 0.76101 0.62079 0.0
C403 C 0.52426 0.68539 0.59713 0.0
C404 C 0.49335 0.65027 0.58795 0.0
C405 C 0.51289 0.72601 0.61122 0.0
C406 C 0.45085 0.65602 0.59344 0.0
C407 C 0.43934 0.69658 0.60689 0.0
H408 H 0.83266 0.92916 0.76464 0.0
H409 H 0.94108 0.94307 0.83214 0.0
H410 H 0.98662 0.96787 0.77049 0.0
H411 H 0.99724 0.98313 0.69642 0.0
H412 H 0.88975 0.9696 0.62766 0.0
H413 H 0.84332 0.94752 0.68965 0.0
C414 C 0.86615 0.93829 0.76594 0.0
C415 C 0.88302 0.93404 0.80367 0.0
C416 C 0.89286 0.95229 0.72962 0.0
C417 C 0.92683 0.94569 0.80402 0.0
C418 C 0.95313 0.95986 0.76852 0.0
C419 C 0.96366 0.97543 0.6948 0.0
C420 C 0.94754 0.97802 0.65667 0.0
C421 C 0.93676 0.96275 0.73096 0.0
C422 C 0.90361 0.96795 0.65603 0.0
C423 C 0.87679 0.95527 0.69176 0.0
H424 H 0.57429 0.18177 0.32769 0.0
H425 H 0.70149 0.15632 0.3365 0.0
H426 H 0.70089 0.11909 0.27335 0.0
H427 H 0.66322 0.09018 0.21805 0.0
H428 H 0.53629 0.11618 0.20744 0.0
H429 H 0.53733 0.15557 0.26943 0.0
C430 C 0.60199 0.1687 0.31526 0.0
C431 C 0.63786 0.17163 0.33649 0.0
C432 C 0.60118 0.14661 0.27919 0.0
C433 C 0.67351 0.1542 0.32056 0.0
C434 C 0.67312 0.13279 0.28462 0.0
C435 C 0.63588 0.10488 0.22886 0.0
C436 C 0.59978 0.09998 0.20789 0.0
C437 C 0.63693 0.12816 0.26406 0.0
C438 C 0.56437 0.11861 0.2231 0.0
C439 C 0.56506 0.14163 0.25842 0.0
H440 H 0.47803 0.64731 0.30143 0.0
H441 H 0.34925 0.58971 0.33657 0.0
H442 H 0.36905 0.55965 0.40121 0.0
H443 H 0.42346 0.55033 0.44828 0.0
H444 H 0.55195 0.60951 0.41198 0.0
H445 H 0.53179 0.63806 0.34766 0.0
C446 C 0.45428 0.6281 0.32323 0.0
C447 C 0.41227 0.62078 0.31409 0.0
C448 C 0.46589 0.61111 0.36031 0.0
C449 C 0.38184 0.5959 0.34272 0.0
C450 C 0.39319 0.57867 0.37974 0.0
C451 C 0.44706 0.56933 0.42624 0.0
C452 C 0.48929 0.57757 0.43523 0.0
C453 C 0.43518 0.5861 0.38896 0.0
C454 C 0.51929 0.6025 0.40618 0.0
C455 C 0.50779 0.61895 0.36924 0.0
H456 H 1.01326 0.39145 0.75404 0.0
H457 H 0.06602 0.52337 0.69618 0.0
H458 H 0.08722 0.5491 0.76045 0.0
H459 H 0.09164 0.53373 0.83272 0.0
H460 H 0.04055 0.40141 0.89069 0.0
H461 H 1.01779 0.37609 0.82673 0.0
C462 C 0.02904 0.42596 0.75571 0.0
C463 C 0.03807 0.45547 0.72059 0.0
C464 C 0.04176 0.44025 0.79262 0.0
C465 C 0.05879 0.49999 0.72286 0.0
C466 C 0.07104 0.51467 0.75955 0.0
C467 C 0.07615 0.49913 0.83128 0.0
C468 C 0.06807 0.46938 0.86639 0.0
C469 C 0.06311 0.48492 0.7945 0.0
C470 C 0.04698 0.42499 0.86412 0.0
C471 C 0.03397 0.41051 0.82759 0.0
H472 H 0.7225 0.92588 0.87804 0.0
H473 H 0.80339 0.948 0.97316 0.0
H474 H 0.74706 0.97462 1.01485 0.0
H475 H 0.67312 0.99003 0.02606 0.0
H476 H 0.59166 0.96564 0.93141 0.0
H477 H 0.64869 0.94194 0.88903 0.0
C478 C 0.72803 0.93715 0.90764 0.0
C479 C 0.76785 0.93506 0.92193 0.0
C480 C 0.69471 0.95178 0.93226 0.0
C481 C 0.77353 0.9492 0.96094 0.0
C482 C 0.74105 0.96437 0.98506 0.0
C483 C 0.66768 0.97946 0.99623 0.0
C484 C 0.62728 0.9798 0.9826 0.0
C485 C 0.70117 0.96543 0.9714 0.0
C486 C 0.62178 0.96591 0.94343 0.0
C487 C 0.65471 0.95229 0.91879 0.0
H488 H 0.70672 0.08019 0.47795 0.0
H489 H 0.75671 0.1888 0.54824 0.0
H490 H 0.82165 0.15535 0.55137 0.0
H491 H 0.86579 0.09892 0.52936 0.0
H492 H 0.81591 0.99132 0.45796 0.0
H493 H 0.7493 0.02148 0.45927 0.0
C494 C 0.73161 0.09641 0.49431 0.0
C495 C 0.72715 0.13712 0.51267 0.0
C496 C 0.76898 0.07759 0.4952 0.0
C497 C 0.75956 0.15743 0.53392 0.0
C498 C 0.7967 0.13848 0.53549 0.0
C499 C 0.84018 0.08155 0.51465 0.0
C500 C 0.84593 0.04296 0.49344 0.0
C501 C 0.80202 0.09909 0.51554 0.0
C502 C 0.81255 0.02144 0.47395 0.0
C503 C 0.77437 0.03849 0.47492 0.0
H504 H 0.27434 0.64321 0.10321 0.0
H505 H 0.21719 0.62976 0.22559 0.0
H506 H 0.1497 0.59915 0.20256 0.0
H507 H 0.10674 0.57538 0.14743 0.0
H508 H 0.16508 0.5873 1.02542 0.0
H509 H 0.23172 0.61984 0.04842 0.0
C510 C 0.24707 0.63396 0.12486 0.0
C511 C 0.25105 0.63895 0.16615 0.0
C512 C 0.20833 0.61617 0.1114 0.0
C513 C 0.21534 0.62594 0.19373 0.0
C514 C 0.17659 0.60865 0.18052 0.0
C515 C 0.13395 0.58542 0.12583 0.0
C516 C 0.13065 0.57895 0.08463 0.0
C517 C 0.17267 0.60351 0.1394 0.0
C518 C 0.16651 0.59178 0.05724 0.0
C519 C 0.20476 0.6104 0.07039 0.0
H520 H 0.19118 0.37336 0.57036 0.0
H521 H 0.17808 0.51592 0.55159 0.0
H522 H 0.25452 0.53624 0.54908 0.0
H523 H 0.32446 0.51291 0.55811 0.0
H524 H 0.33426 0.36931 0.57385 0.0
H525 H 0.2593 0.35 0.57038 0.0
C526 C 0.20461 0.40891 0.56402 0.0
C527 C 0.1785 0.44296 0.56081 0.0
C528 C 0.24809 0.42019 0.56251 0.0
C529 C 0.19724 0.48891 0.55442 0.0
C530 C 0.24096 0.50054 0.55295 0.0
C531 C 0.31016 0.47747 0.5601 0.0
C532 C 0.33475 0.44264 0.5673 0.0
C533 C 0.26664 0.46642 0.55792 0.0
C534 C 0.3159 0.39681 0.56966 0.0
C535 C 0.27305 0.38568 0.56737 0.0
H536 H 0.96616 0.75089 0.89618 0.0
H537 H 0.86743 0.76025 0.98902 0.0
H538 H 0.89021 0.6981 0.02991 0.0
H539 H 0.9381 0.63931 0.0388 0.0
H540 H 0.03562 0.6309 0.94403 0.0
H541 H 1.01367 0.69394 0.90505 0.0
C542 C 0.94958 0.73942 0.92542 0.0
C543 C 0.91501 0.76045 0.93929 0.0
C544 C 0.96282 0.70353 0.9487 0.0
C545 C 0.89404 0.74492 0.97734 0.0
C546 C 0.90716 0.70925 1.00082 0.0
C547 C 0.95478 0.65153 1.00979 0.0
C548 C 0.98877 0.62992 0.99471 0.0
C549 C 0.94154 0.68808 0.98682 0.0
C550 C 1.00949 0.64635 0.95672 0.0
C551 C 0.99688 0.68259 0.9342 0.0
H552 H 0.40856 0.78376 0.19974 0.0
H553 H 0.36411 0.73674 0.08899 0.0
H554 H 0.40351 0.80451 0.0516 0.0
H555 H 0.45017 0.87817 0.05008 0.0
H556 H 0.49863 0.92158 0.16017 0.0
H557 H 0.45925 0.85363 0.19748 0.0
C558 C 0.40795 0.78758 0.16734 0.0
C559 C 0.38269 0.75479 0.14764 0.0
C560 C 0.43175 0.82615 0.14561 0.0
C561 C 0.38215 0.76155 0.10552 0.0
C562 C 0.4051 0.80026 0.08387 0.0
C563 C 0.45237 0.87259 0.08218 0.0
C564 C 0.47736 0.90517 0.10218 0.0
C565 C 0.42984 0.83299 0.1036 0.0
C566 C 0.47988 0.89714 0.14382 0.0
C567 C 0.45716 0.8583 0.16531 0.0
H568 H 1.0108 0.31035 0.55426 0.0
H569 H 0.12227 0.30902 0.6164 0.0
H570 H 0.11382 0.22588 0.61836 0.0
H571 H 0.07773 0.15432 0.59874 0.0
H572 H 0.96717 0.15392 0.53466 0.0
H573 H 0.97198 0.23669 0.53734 0.0
C574 C 0.03279 0.29154 0.56848 0.0
C575 C 0.06721 0.31528 0.58488 0.0
C576 C 0.02807 0.24359 0.56898 0.0
C577 C 0.09573 0.29103 0.60334 0.0
C578 C 0.09094 0.24364 0.60446 0.0
C579 C 0.05445 0.1722 0.58562 0.0
C580 C 1.0224 0.14804 0.56628 0.0
C581 C 0.05769 0.21965 0.58678 0.0
C582 C 0.99237 0.17179 0.54958 0.0
C583 C 0.9951 0.21914 0.55104 0.0
H584 H 0.57113 0.26399 0.48119 0.0
H585 H 0.66305 0.33083 0.38768 0.0
H586 H 0.6481 0.4058 0.40753 0.0
H587 H 0.60958 0.4521 0.45329 0.0
H588 H 0.51565 0.38288 0.5445 0.0
H589 H 0.53089 0.30919 0.52405 0.0
C590 C 0.58775 0.29506 0.46514 0.0
C591 C 0.61822 0.29221 0.43331 0.0
C592 C 0.57882 0.33756 0.47652 0.0
C593 C 0.6393 0.33245 0.41225 0.0
C594 C 0.63093 0.37518 0.42375 0.0
C595 C 0.59264 0.42081 0.46863 0.0
C596 C 0.5617 0.42292 0.50045 0.0
C597 C 0.60097 0.37817 0.45615 0.0
C598 C 0.53954 0.38218 0.51983 0.0
C599 C 0.54821 0.33997 0.50822 0.0
loop_
_geom_bond_atom_site_label_1
_geom_bond_atom_site_label_2
_geom_bond_distance
_geom_bond_site_symmetry_2
_ccdc_geom_bond_type
H0 C5 0.930 . S
H1 C8 0.930 . S
H2 C10 0.930 . S
H3 C4 1.016 . S
C4 H3 1.016 . S
C4 N11 1.286 . S
C5 H0 0.930 . S
C5 C6 1.397 . S
C5 C7 1.361 . S
C6 C5 1.397 . S
C6 C10 1.390 . S
C7 C5 1.361 . S
C7 C8 1.393 . S
C7 N11 1.413 . S
C8 H1 0.930 . S
C8 C7 1.393 . S
C8 C9 1.399 . S
C9 C8 1.399 . S
C9 C10 1.381 . S
C10 H2 0.930 . S
C10 C6 1.390 . S
C10 C9 1.381 . S
N11 C4 1.286 . S
N11 C7 1.413 . S
H12 C17 0.930 . S
H13 C20 0.930 . S
H14 C22 0.930 . S
H15 C16 1.016 . S
C16 H15 1.016 . S
C16 N23 1.286 . S
C17 H12 0.930 . S
C17 C18 1.397 . S
C17 C19 1.361 . S
C18 C17 1.397 . S
C18 C22 1.390 . S
C19 C17 1.361 . S
C19 C20 1.393 . S
C19 N23 1.413 . S
C20 H13 0.930 . S
C20 C19 1.393 . S
C20 C21 1.399 . S
C21 C20 1.399 . S
C21 C22 1.381 . S
C22 H14 0.930 . S
C22 C18 1.390 . S
C22 C21 1.381 . S
N23 C16 1.286 . S
N23 C19 1.413 . S
H24 C29 0.930 . S
H25 C32 0.930 . S
H26 C34 0.930 . S
H27 C28 1.016 . S
C28 H27 1.016 . S
C28 N35 1.286 . S
C29 H24 0.930 . S
C29 C30 1.397 . S
C29 C31 1.361 . S
C30 C29 1.397 . S
C30 C34 1.390 . S
C31 C29 1.361 . S
C31 C32 1.393 . S
C31 N35 1.413 . S
C32 H25 0.930 . S
C32 C31 1.393 . S
C32 C33 1.399 . S
C33 C32 1.399 . S
C33 C34 1.381 . S
C34 H26 0.930 . S
C34 C30 1.390 . S
C34 C33 1.381 . S
N35 C28 1.286 . S
N35 C31 1.413 . S
H36 C41 0.930 . S
H37 C44 0.930 . S
H38 C46 0.930 . S
H39 C40 1.016 . S
C40 H39 1.016 . S
C40 N47 1.286 . S
C41 H36 0.930 . S
C41 C42 1.397 . S
C41 C43 1.361 . S
C42 C41 1.397 . S
C42 C46 1.390 . S
C43 C41 1.361 . S
C43 C44 1.393 . S
C43 N47 1.413 . S
C44 H37 0.930 . S
C44 C43 1.393 . S
C44 C45 1.399 . S
C45 C44 1.399 . S
C45 C46 1.381 . S
C46 H38 0.930 . S
C46 C42 1.390 . S
C46 C45 1.381 . S
N47 C40 1.286 . S
N47 C43 1.413 . S
H48 C53 0.930 . S
H49 C56 0.930 . S
H50 C58 0.930 . S
H51 C52 1.016 . S
C52 H51 1.016 . S
C52 N59 1.286 . S
C53 H48 0.930 . S
C53 C54 1.397 . S
C53 C55 1.361 . S
C54 C53 1.397 . S
C54 C58 1.390 . S
C55 C53 1.361 . S
C55 C56 1.393 . S
C55 N59 1.413 . S
C56 H49 0.930 . S
C56 C55 1.393 . S
C56 C57 1.399 . S
C57 C56 1.399 . S
C57 C58 1.381 . S
C58 H50 0.930 . S
C58 C54 1.390 . S
C58 C57 1.381 . S
N59 C52 1.286 . S
N59 C55 1.413 . S
H60 C65 0.930 . S
H61 C68 0.930 . S
H62 C70 0.930 . S
H63 C64 1.016 . S
C64 H63 1.016 . S
C64 N71 1.286 . S
C65 H60 0.930 . S
C65 C66 1.397 . S
C65 C67 1.361 . S
C66 C65 1.397 . S
C66 C70 1.390 . S
C67 C65 1.361 . S
C67 C68 1.393 . S
C67 N71 1.413 . S
C68 H61 0.930 . S
C68 C67 1.393 . S
C68 C69 1.399 . S
C69 C68 1.399 . S
C69 C70 1.381 . S
C70 H62 0.930 . S
C70 C66 1.390 . S
C70 C69 1.381 . S
N71 C64 1.286 . S
N71 C67 1.413 . S
H72 C77 0.930 . S
H73 C80 0.930 . S
H74 C82 0.930 . S
H75 C76 1.016 . S
C76 H75 1.016 . S
C76 N83 1.286 . S
C77 H72 0.930 . S
C77 C78 1.397 . S
C77 C79 1.361 . S
C78 C77 1.397 . S
C78 C82 1.390 . S
C79 C77 1.361 . S
C79 C80 1.393 . S
C79 N83 1.413 . S
C80 H73 0.930 . S
C80 C79 1.393 . S
C80 C81 1.399 . S
C81 C80 1.399 . S
C81 C82 1.381 . S
C82 H74 0.930 . S
C82 C78 1.390 . S
C82 C81 1.381 . S
N83 C76 1.286 . S
N83 C79 1.413 . S
H84 C89 0.930 . S
H85 C92 0.930 . S
H86 C94 0.930 . S
H87 C88 1.016 . S
C88 H87 1.016 . S
C88 N95 1.286 . S
C89 H84 0.930 . S
C89 C90 1.397 . S
C89 C91 1.361 . S
C90 C89 1.397 . S
C90 C94 1.390 . S
C91 C89 1.361 . S
C91 C92 1.393 . S
C91 N95 1.413 . S
C92 H85 0.930 . S
C92 C91 1.393 . S
C92 C93 1.399 . S
C93 C92 1.399 . S
C93 C94 1.381 . S
C94 H86 0.930 . S
C94 C90 1.390 . S
C94 C93 1.381 . S
N95 C88 1.286 . S
N95 C91 1.413 . S
Co96 N101 2.057 . S
Co96 O113 2.021 . S
Co96 O116 2.062 . S
Co96 O120 2.117 1_545 S
Co96 O121 2.012 1_545 S
C97 O117 1.259 1_655 S
C97 O120 1.258 . S
Co98 N107 2.057 . S
Co98 O114 2.117 1_565 S
Co98 O115 2.020 1_565 S
Co98 O117 2.021 . S
Co98 O122 2.062 . S
C99 N101 1.316 . S
C99 N102 1.347 . S
C99 H104 0.931 . S
C100 N101 1.375 1_565 S
C100 C103 1.350 1_565 S
C100 H105 0.930 . S
N101 Co96 2.057 . S
N101 C99 1.316 . S
N101 C100 1.375 1_545 S
N102 C99 1.347 . S
N102 C103 1.373 . S
C103 C100 1.350 1_545 S
C103 N102 1.373 . S
C103 H124 0.931 1_545 S
H104 C99 0.931 . S
H105 C100 0.930 . S
C106 O113 1.259 1_455 S
C106 O114 1.258 . S
N107 Co98 2.057 . S
N107 C108 1.316 . S
N107 C109 1.375 1_565 S
C108 N107 1.316 . S
C108 N110 1.347 . S
C108 H119 0.931 . S
C109 N107 1.375 1_545 S
C109 C111 1.350 . S
C109 H118 0.930 . S
N110 C108 1.347 . S
N110 C111 1.373 1_565 S
C111 C109 1.350 . S
C111 N110 1.373 1_545 S
C111 H125 0.931 . S
C112 O115 1.256 . S
C112 O116 1.255 1_455 S
O113 Co96 2.021 . S
O113 C106 1.259 1_655 S
O114 Co98 2.117 1_545 S
O114 C106 1.258 . S
O115 Co98 2.020 1_545 S
O115 C112 1.256 . S
O116 Co96 2.062 . S
O116 C112 1.255 1_655 S
O117 C97 1.259 1_455 S
O117 Co98 2.021 . S
H118 C109 0.930 . S
H119 C108 0.931 . S
O120 Co96 2.117 1_565 S
O120 C97 1.258 . S
O121 Co96 2.012 1_565 S
O121 C123 1.269 . S
O122 Co98 2.062 . S
O122 C123 1.255 1_455 S
C123 O121 1.269 . S
C123 O122 1.255 1_655 S
H124 C103 0.931 1_565 S
H125 C111 0.931 . S
Co126 N131 2.057 1_545 S
Co126 O143 2.021 . S
Co126 O146 2.062 1_545 S
Co126 O150 2.117 1_546 S
Co126 O151 2.020 1_556 S
C127 O147 1.259 . S
C127 O150 1.258 . S
Co128 N137 2.057 . S
Co128 O144 2.117 . S
Co128 O145 2.020 . S
Co128 O147 2.021 1_545 S
Co128 O152 2.062 . S
C129 N131 1.316 . S
C129 N132 1.347 . S
C129 H134 0.931 1_565 S
C130 N131 1.375 . S
C130 C133 1.350 . S
C130 H135 0.930 . S
N131 Co126 2.057 1_565 S
N131 C129 1.316 . S
N131 C130 1.375 . S
N132 C129 1.347 . S
N132 C133 1.373 . S
C133 C130 1.350 . S
C133 N132 1.373 . S
C133 H154 0.931 . S
H134 C129 0.931 1_545 S
H135 C130 0.930 . S
C136 O143 1.259 . S
C136 O144 1.258 1_556 S
N137 Co128 2.057 . S
N137 C138 1.316 . S
N137 C139 1.375 . S
C138 N137 1.316 . S
C138 N140 1.347 . S
C138 H149 0.931 . S
C139 N137 1.375 . S
C139 C141 1.350 . S
C139 H148 0.930 . S
N140 C138 1.347 . S
N140 C141 1.373 . S
C141 C139 1.350 . S
C141 N140 1.373 . S
C141 H155 0.931 . S
C142 O145 1.254 1_566 S
C142 O146 1.254 . S
O143 Co126 2.021 . S
O143 C136 1.259 . S
O144 Co128 2.117 . S
O144 C136 1.258 1_554 S
O145 Co128 2.020 . S
O145 C142 1.254 1_544 S
O146 Co126 2.062 1_565 S
O146 C142 1.254 . S
O147 C127 1.259 . S
O147 Co128 2.021 1_565 S
H148 C139 0.930 . S
H149 C138 0.931 . S
O150 Co126 2.117 1_564 S
O150 C127 1.258 . S
O151 Co126 2.020 1_554 S
O151 C153 1.256 . S
O152 Co128 2.062 . S
O152 C153 1.255 . S
C153 O151 1.256 . S
C153 O152 1.255 . S
H154 C133 0.931 . S
H155 C141 0.931 . S
Co156 N161 2.057 . S
Co156 O173 2.021 . S
Co156 O176 2.062 . S
Co156 O180 2.117 . S
Co156 O181 2.020 . S
C157 O177 1.259 . S
C157 O180 1.258 . S
Co158 N167 2.057 . S
Co158 O174 2.117 . S
Co158 O175 2.020 . S
Co158 O177 2.021 . S
Co158 O182 2.062 . S
C159 N161 1.316 . S
C159 N162 1.347 . S
C159 H164 0.931 . S
C160 N161 1.375 . S
C160 C163 1.350 . S
C160 H165 0.930 . S
N161 Co156 2.057 . S
N161 C159 1.316 . S
N161 C160 1.375 . S
N162 C159 1.347 . S
N162 C163 1.373 . S
C163 C160 1.350 . S
C163 N162 1.373 . S
C163 H184 0.931 . S
H164 C159 0.931 . S
H165 C160 0.930 . S
C166 O173 1.259 . S
C166 O174 1.258 . S
N167 Co158 2.057 . S
N167 C168 1.316 . S
N167 C169 1.375 . S
C168 N167 1.316 . S
C168 N170 1.347 . S
C168 H179 0.931 . S
C169 N167 1.375 . S
C169 C171 1.350 . S
C169 H178 0.930 . S
N170 C168 1.347 . S
N170 C171 1.373 . S
C171 C169 1.350 . S
C171 N170 1.373 . S
C171 H185 0.931 . S
C172 O175 1.256 . S
C172 O176 1.255 . S
O173 Co156 2.021 . S
O173 C166 1.259 . S
O174 Co158 2.117 . S
O174 C166 1.258 . S
O175 Co158 2.020 . S
O175 C172 1.256 . S
O176 Co156 2.062 . S
O176 C172 1.255 . S
O177 C157 1.259 . S
O177 Co158 2.021 . S
H178 C169 0.930 . S
H179 C168 0.931 . S
O180 Co156 2.117 . S
O180 C157 1.258 . S
O181 Co156 2.020 . S
O181 C183 1.256 . S
O182 Co158 2.062 . S
O182 C183 1.255 . S
C183 O181 1.256 . S
C183 O182 1.255 . S
H184 C163 0.931 . S
H185 C171 0.931 . S
Co186 N191 2.057 . S
Co186 O203 2.021 . S
Co186 O206 2.062 1_556 S
Co186 O210 2.117 1_455 S
Co186 O211 2.020 . S
C187 O207 1.259 . S
C187 O210 1.258 1_554 S
Co188 N197 2.057 . S
Co188 O204 2.117 1_655 S
Co188 O205 2.020 1_655 S
Co188 O207 2.021 . S
Co188 O212 2.062 . S
C189 N191 1.316 . S
C189 N192 1.347 . S
C189 H194 0.931 . S
C190 N191 1.375 . S
C190 C193 1.350 . S
C190 H195 0.930 1_455 S
N191 Co186 2.057 . S
N191 C189 1.316 . S
N191 C190 1.375 . S
N192 C189 1.347 . S
N192 C193 1.373 . S
C193 C190 1.350 . S
C193 N192 1.373 . S
C193 H214 0.931 . S
H194 C189 0.931 . S
H195 C190 0.930 1_655 S
C196 O203 1.259 1_554 S
C196 O204 1.258 . S
N197 Co188 2.057 . S
N197 C198 1.316 . S
N197 C199 1.375 1_655 S
C198 N197 1.316 . S
C198 N200 1.347 . S
C198 H209 0.931 . S
C199 N197 1.375 1_455 S
C199 C201 1.350 . S
C199 H208 0.930 . S
N200 C198 1.347 . S
N200 C201 1.373 1_655 S
C201 C199 1.350 . S
C201 N200 1.373 1_455 S
C201 H215 0.931 . S
C202 O205 1.256 . S
C202 O206 1.255 . S
O203 Co186 2.021 . S
O203 C196 1.259 1_556 S
O204 Co188 2.117 1_455 S
O204 C196 1.258 . S
O205 Co188 2.020 1_455 S
O205 C202 1.256 . S
O206 Co186 2.062 1_554 S
O206 C202 1.255 . S
O207 C187 1.259 . S
O207 Co188 2.021 . S
H208 C199 0.930 . S
H209 C198 0.931 . S
O210 Co186 2.117 1_655 S
O210 C187 1.258 1_556 S
O211 Co186 2.020 . S
O211 C213 1.256 1_455 S
O212 Co188 2.062 . S
O212 C213 1.255 1_554 S
C213 O211 1.256 1_655 S
C213 O212 1.255 1_556 S
H214 C193 0.931 . S
H215 C201 0.931 . S
H216 C222 0.930 . S
H217 C225 0.930 . S
H218 C226 0.930 1_565 S
H219 C227 0.930 . S
H220 C230 0.930 . S
H221 C231 0.930 . S
C222 H216 0.930 . S
C222 C223 1.355 . S
C222 C224 1.415 . S
C223 C222 1.355 . S
C223 C225 1.419 . S
C224 C222 1.415 . S
C224 C229 1.425 . S
C224 C231 1.409 . S
C225 H217 0.930 . S
C225 C223 1.419 . S
C225 C226 1.362 . S
C226 H218 0.930 1_545 S
C226 C225 1.362 . S
C226 C229 1.409 . S
C227 H219 0.930 . S
C227 C228 1.355 . S
C227 C229 1.415 . S
C228 C227 1.355 . S
C228 C230 1.419 . S
C229 C224 1.425 . S
C229 C226 1.409 . S
C229 C227 1.415 . S
C230 H220 0.930 . S
C230 C228 1.419 . S
C230 C231 1.362 . S
C231 H221 0.930 . S
C231 C224 1.409 . S
C231 C230 1.362 . S
H232 C238 0.930 . S
H233 C241 0.930 . S
H234 C242 0.930 1_545 S
H235 C243 0.930 1_545 S
H236 C246 0.930 . S
H237 C247 0.930 . S
C238 H232 0.930 . S
C238 C239 1.355 . S
C238 C240 1.415 . S
C239 C238 1.355 . S
C239 C241 1.419 . S
C240 C238 1.415 . S
C240 C245 1.425 . S
C240 C247 1.409 . S
C241 H233 0.930 . S
C241 C239 1.419 . S
C241 C242 1.362 . S
C242 H234 0.930 1_565 S
C242 C241 1.362 . S
C242 C245 1.409 . S
C243 H235 0.930 1_565 S
C243 C244 1.355 . S
C243 C245 1.415 . S
C244 C243 1.355 . S
C244 C246 1.419 . S
C245 C240 1.425 . S
C245 C242 1.409 . S
C245 C243 1.415 . S
C246 H236 0.930 . S
C246 C244 1.419 . S
C246 C247 1.362 . S
C247 H237 0.930 . S
C247 C240 1.409 . S
C247 C246 1.362 . S
H248 C254 0.930 . S
H249 C257 0.930 . S
H250 C258 0.930 . S
H251 C259 0.930 . S
H252 C262 0.930 . S
H253 C263 0.930 . S
C254 H248 0.930 . S
C254 C255 1.355 . S
C254 C256 1.415 . S
C255 C254 1.355 . S
C255 C257 1.419 . S
C256 C254 1.415 . S
C256 C261 1.425 . S
C256 C263 1.409 . S
C257 H249 0.930 . S
C257 C255 1.419 . S
C257 C258 1.362 . S
C258 H250 0.930 . S
C258 C257 1.362 . S
C258 C261 1.409 . S
C259 H251 0.930 . S
C259 C260 1.355 . S
C259 C261 1.415 . S
C260 C259 1.355 . S
C260 C262 1.419 . S
C261 C256 1.425 . S
C261 C258 1.409 . S
C261 C259 1.415 . S
C262 H252 0.930 . S
C262 C260 1.419 . S
C262 C263 1.362 . S
C263 H253 0.930 . S
C263 C256 1.409 . S
C263 C262 1.362 . S
H264 C270 0.930 . S
H265 C273 0.930 . S
H266 C274 0.930 . S
H267 C275 0.930 . S
H268 C278 0.930 . S
H269 C279 0.930 . S
C270 H264 0.930 . S
C270 C271 1.355 . S
C270 C272 1.415 . S
C271 C270 1.355 . S
C271 C273 1.419 . S
C272 C270 1.415 . S
C272 C277 1.425 . S
C272 C279 1.409 . S
C273 H265 0.930 . S
C273 C271 1.419 . S
C273 C274 1.362 . S
C274 H266 0.930 . S
C274 C273 1.362 . S
C274 C277 1.409 . S
C275 H267 0.930 . S
C275 C276 1.355 . S
C275 C277 1.415 . S
C276 C275 1.355 . S
C276 C278 1.419 . S
C277 C272 1.425 . S
C277 C274 1.409 . S
C277 C275 1.415 . S
C278 H268 0.930 . S
C278 C276 1.419 . S
C278 C279 1.362 . S
C279 H269 0.930 . S
C279 C272 1.409 . S
C279 C278 1.362 . S
H280 C286 0.930 . S
H281 C289 0.930 . S
H282 C290 0.930 . S
H283 C291 0.930 . S
H284 C294 0.930 . S
H285 C295 0.930 . S
C286 H280 0.930 . S
C286 C287 1.355 . S
C286 C288 1.415 . S
C287 C286 1.355 . S
C287 C289 1.419 . S
C288 C286 1.415 . S
C288 C293 1.425 . S
C288 C295 1.409 . S
C289 H281 0.930 . S
C289 C287 1.419 . S
C289 C290 1.362 . S
C290 H282 0.930 . S
C290 C289 1.362 . S
C290 C293 1.409 . S
C291 H283 0.930 . S
C291 C292 1.355 . S
C291 C293 1.415 . S
C292 C291 1.355 . S
C292 C294 1.419 . S
C293 C288 1.425 . S
C293 C290 1.409 . S
C293 C291 1.415 . S
C294 H284 0.930 . S
C294 C292 1.419 . S
C294 C295 1.362 . S
C295 H285 0.930 . S
C295 C288 1.409 . S
C295 C294 1.362 . S
H296 C302 0.930 . S
H297 C305 0.930 . S
H298 C306 0.930 . S
H299 C307 0.930 . S
H300 C310 0.930 1_545 S
H301 C311 0.930 1_545 S
C302 H296 0.930 . S
C302 C303 1.355 . S
C302 C304 1.415 . S
C303 C302 1.355 . S
C303 C305 1.419 . S
C304 C302 1.415 . S
C304 C309 1.425 . S
C304 C311 1.409 . S
C305 H297 0.930 . S
C305 C303 1.419 . S
C305 C306 1.362 . S
C306 H298 0.930 . S
C306 C305 1.362 . S
C306 C309 1.409 . S
C307 H299 0.930 . S
C307 C308 1.355 . S
C307 C309 1.415 . S
C308 C307 1.355 . S
C308 C310 1.419 . S
C309 C304 1.425 . S
C309 C306 1.409 . S
C309 C307 1.415 . S
C310 H300 0.930 1_565 S
C310 C308 1.419 . S
C310 C311 1.362 . S
C311 H301 0.930 1_565 S
C311 C304 1.409 . S
C311 C310 1.362 . S
H312 C318 0.930 . S
H313 C321 0.930 . S
H314 C322 0.930 . S
H315 C323 0.930 . S
H316 C326 0.930 . S
H317 C327 0.930 . S
C318 H312 0.930 . S
C318 C319 1.355 . S
C318 C320 1.415 . S
C319 C318 1.355 . S
C319 C321 1.419 . S
C320 C318 1.415 . S
C320 C325 1.425 . S
C320 C327 1.409 . S
C321 H313 0.930 . S
C321 C319 1.419 . S
C321 C322 1.362 . S
C322 H314 0.930 . S
C322 C321 1.362 . S
C322 C325 1.409 . S
C323 H315 0.930 . S
C323 C324 1.355 . S
C323 C325 1.415 . S
C324 C323 1.355 . S
C324 C326 1.419 . S
C325 C320 1.425 . S
C325 C322 1.409 . S
C325 C323 1.415 . S
C326 H316 0.930 . S
C326 C324 1.419 . S
C326 C327 1.362 . S
C327 H317 0.930 . S
C327 C320 1.409 . S
C327 C326 1.362 . S
H328 C334 0.930 . S
H329 C337 0.930 . S
H330 C338 0.930 . S
H331 C339 0.930 . S
H332 C342 0.930 . S
H333 C343 0.930 . S
C334 H328 0.930 . S
C334 C335 1.355 . S
C334 C336 1.415 . S
C335 C334 1.355 . S
C335 C337 1.419 . S
C336 C334 1.415 . S
C336 C341 1.425 . S
C336 C343 1.409 . S
C337 H329 0.930 . S
C337 C335 1.419 . S
C337 C338 1.362 . S
C338 H330 0.930 . S
C338 C337 1.362 . S
C338 C341 1.409 . S
C339 H331 0.930 . S
C339 C340 1.355 . S
C339 C341 1.415 . S
C340 C339 1.355 . S
C340 C342 1.419 . S
C341 C336 1.425 . S
C341 C338 1.409 . S
C341 C339 1.415 . S
C342 H332 0.930 . S
C342 C340 1.419 . S
C342 C343 1.362 . S
C343 H333 0.930 . S
C343 C336 1.409 . S
C343 C342 1.362 . S
H344 C350 0.930 . S
H345 C353 0.930 . S
H346 C354 0.930 . S
H347 C355 0.930 . S
H348 C358 0.930 1_655 S
H349 C359 0.930 1_655 S
C350 H344 0.930 . S
C350 C351 1.355 . S
C350 C352 1.415 . S
C351 C350 1.355 . S
C351 C353 1.419 . S
C352 C350 1.415 . S
C352 C357 1.425 . S
C352 C359 1.409 . S
C353 H345 0.930 . S
C353 C351 1.419 . S
C353 C354 1.362 . S
C354 H346 0.930 . S
C354 C353 1.362 . S
C354 C357 1.409 . S
C355 H347 0.930 . S
C355 C356 1.355 . S
C355 C357 1.415 . S
C356 C355 1.355 . S
C356 C358 1.419 . S
C357 C352 1.425 . S
C357 C354 1.409 . S
C357 C355 1.415 . S
C358 H348 0.930 1_455 S
C358 C356 1.419 . S
C358 C359 1.362 . S
C359 H349 0.930 1_455 S
C359 C352 1.409 . S
C359 C358 1.362 . S
H360 C366 0.930 . S
H361 C369 0.930 . S
H362 C370 0.930 . S
H363 C371 0.930 . S
H364 C374 0.930 . S
H365 C375 0.918 1_554 S
C366 H360 0.930 . S
C366 C367 1.355 . S
C366 C368 1.415 . S
C367 C366 1.355 . S
C367 C369 1.419 . S
C368 C366 1.415 . S
C368 C373 1.425 . S
C368 C375 1.423 . S
C369 H361 0.930 . S
C369 C367 1.419 . S
C369 C370 1.362 . S
C370 H362 0.930 . S
C370 C369 1.362 . S
C370 C373 1.409 . S
C371 H363 0.930 . S
C371 C372 1.355 . S
C371 C373 1.415 . S
C372 C371 1.355 . S
C372 C374 1.419 1_556 S
C373 C368 1.425 . S
C373 C370 1.409 . S
C373 C371 1.415 . S
C374 H364 0.930 . S
C374 C372 1.419 1_554 S
C374 C375 1.360 1_554 S
C375 H365 0.918 1_556 S
C375 C368 1.423 . S
C375 C374 1.360 1_556 S
H376 C382 0.930 . S
H377 C385 0.930 . S
H378 C386 0.930 1_455 S
H379 C387 0.930 1_455 S
H380 C390 0.930 . S
H381 C391 0.930 . S
C382 H376 0.930 . S
C382 C383 1.355 . S
C382 C384 1.415 . S
C383 C382 1.355 . S
C383 C385 1.419 . S
C384 C382 1.415 . S
C384 C389 1.425 . S
C384 C391 1.409 . S
C385 H377 0.930 . S
C385 C383 1.419 . S
C385 C386 1.362 . S
C386 H378 0.930 1_655 S
C386 C385 1.362 . S
C386 C389 1.409 . S
C387 H379 0.930 1_655 S
C387 C388 1.355 . S
C387 C389 1.415 . S
C388 C387 1.355 . S
C388 C390 1.419 . S
C389 C384 1.425 . S
C389 C386 1.409 . S
C389 C387 1.415 . S
C390 H380 0.930 . S
C390 C388 1.419 . S
C390 C391 1.362 . S
C391 H381 0.930 . S
C391 C384 1.409 . S
C391 C390 1.362 . S
H392 C398 0.930 . S
H393 C401 0.930 . S
H394 C402 0.930 . S
H395 C403 0.930 . S
H396 C406 0.930 . S
H397 C407 0.930 . S
C398 H392 0.930 . S
C398 C399 1.355 . S
C398 C400 1.415 . S
C399 C398 1.355 . S
C399 C401 1.419 . S
C400 C398 1.415 . S
C400 C405 1.425 . S
C400 C407 1.409 . S
C401 H393 0.930 . S
C401 C399 1.419 . S
C401 C402 1.362 . S
C402 H394 0.930 . S
C402 C401 1.362 . S
C402 C405 1.409 . S
C403 H395 0.930 . S
C403 C404 1.355 . S
C403 C405 1.415 . S
C404 C403 1.355 . S
C404 C406 1.419 . S
C405 C400 1.425 . S
C405 C402 1.409 . S
C405 C403 1.415 . S
C406 H396 0.930 . S
C406 C404 1.419 . S
C406 C407 1.362 . S
C407 H397 0.930 . S
C407 C400 1.409 . S
C407 C406 1.362 . S
H408 C414 0.930 . S
H409 C417 0.930 . S
H410 C418 0.930 1_445 S
H411 C419 0.935 1_545 S
H412 C422 0.930 . S
H413 C423 0.930 . S
C414 H408 0.930 . S
C414 C415 1.355 . S
C414 C416 1.415 . S
C415 C414 1.355 . S
C415 C417 1.419 . S
C416 C414 1.415 . S
C416 C421 1.425 . S
C416 C423 1.409 . S
C417 H409 0.930 . S
C417 C415 1.419 . S
C417 C418 1.362 . S
C418 H410 0.930 1_665 S
C418 C417 1.362 . S
C418 C421 1.409 . S
C419 H411 0.935 1_565 S
C419 C420 1.355 . S
C419 C421 1.415 . S
C420 C419 1.355 . S
C420 C422 1.419 . S
C421 C416 1.425 . S
C421 C418 1.409 . S
C421 C419 1.415 . S
C422 H412 0.930 . S
C422 C420 1.419 . S
C422 C423 1.362 . S
C423 H413 0.930 . S
C423 C416 1.409 . S
C423 C422 1.362 . S
H424 C430 0.930 . S
H425 C433 0.930 . S
H426 C434 0.930 . S
H427 C435 0.930 . S
H428 C438 0.930 . S
H429 C439 0.930 . S
C430 H424 0.930 . S
C430 C431 1.355 . S
C430 C432 1.415 . S
C431 C430 1.355 . S
C431 C433 1.419 . S
C432 C430 1.415 . S
C432 C437 1.425 . S
C432 C439 1.409 . S
C433 H425 0.930 . S
C433 C431 1.419 . S
C433 C434 1.362 . S
C434 H426 0.930 . S
C434 C433 1.362 . S
C434 C437 1.409 . S
C435 H427 0.930 . S
C435 C436 1.355 . S
C435 C437 1.415 . S
C436 C435 1.355 . S
C436 C438 1.419 . S
C437 C432 1.425 . S
C437 C434 1.409 . S
C437 C435 1.415 . S
C438 H428 0.930 . S
C438 C436 1.419 . S
C438 C439 1.362 . S
C439 H429 0.930 . S
C439 C432 1.409 . S
C439 C438 1.362 . S
H440 C446 0.930 . S
H441 C449 0.930 . S
H442 C450 0.930 . S
H443 C451 0.930 . S
H444 C454 0.930 . S
H445 C455 0.930 . S
C446 H440 0.930 . S
C446 C447 1.355 . S
C446 C448 1.415 . S
C447 C446 1.355 . S
C447 C449 1.419 . S
C448 C446 1.415 . S
C448 C453 1.425 . S
C448 C455 1.409 . S
C449 H441 0.930 . S
C449 C447 1.419 . S
C449 C450 1.362 . S
C450 H442 0.930 . S
C450 C449 1.362 . S
C450 C453 1.409 . S
C451 H443 0.930 . S
C451 C452 1.355 . S
C451 C453 1.415 . S
C452 C451 1.355 . S
C452 C454 1.419 . S
C453 C448 1.425 . S
C453 C450 1.409 . S
C453 C451 1.415 . S
C454 H444 0.930 . S
C454 C452 1.419 . S
C454 C455 1.362 . S
C455 H445 0.930 . S
C455 C448 1.409 . S
C455 C454 1.362 . S
H456 C462 0.930 . S
H457 C465 0.930 . S
H458 C466 0.930 . S
H459 C467 0.930 . S
H460 C470 0.930 . S
H461 C471 0.930 . S
C462 H456 0.930 . S
C462 C463 1.355 . S
C462 C464 1.415 . S
C463 C462 1.355 . S
C463 C465 1.419 . S
C464 C462 1.415 . S
C464 C469 1.425 . S
C464 C471 1.409 . S
C465 H457 0.930 . S
C465 C463 1.419 . S
C465 C466 1.362 . S
C466 H458 0.930 . S
C466 C465 1.362 . S
C466 C469 1.409 . S
C467 H459 0.930 . S
C467 C468 1.355 . S
C467 C469 1.415 . S
C468 C467 1.355 . S
C468 C470 1.419 . S
C469 C464 1.425 . S
C469 C466 1.409 . S
C469 C467 1.415 . S
C470 H460 0.930 . S
C470 C468 1.419 . S
C470 C471 1.362 . S
C471 H461 0.930 . S
C471 C464 1.409 . S
C471 C470 1.362 . S
H472 C478 0.930 . S
H473 C481 0.930 . S
H474 C482 0.930 1_554 S
H475 C483 0.930 1_554 S
H476 C486 0.930 . S
H477 C487 0.930 . S
C478 H472 0.930 . S
C478 C479 1.355 . S
C478 C480 1.415 . S
C479 C478 1.355 . S
C479 C481 1.419 . S
C480 C478 1.415 . S
C480 C485 1.425 . S
C480 C487 1.409 . S
C481 H473 0.930 . S
C481 C479 1.419 . S
C481 C482 1.362 . S
C482 H474 0.930 1_556 S
C482 C481 1.362 . S
C482 C485 1.409 . S
C483 H475 0.930 1_556 S
C483 C484 1.355 . S
C483 C485 1.415 . S
C484 C483 1.355 . S
C484 C486 1.419 . S
C485 C480 1.425 . S
C485 C482 1.409 . S
C485 C483 1.415 . S
C486 H476 0.930 . S
C486 C484 1.419 . S
C486 C487 1.362 . S
C487 H477 0.930 . S
C487 C480 1.409 . S
C487 C486 1.362 . S
H488 C494 0.930 . S
H489 C497 0.930 . S
H490 C498 0.930 . S
H491 C499 0.930 . S
H492 C502 0.913 1_565 S
H493 C503 0.930 . S
C494 H488 0.930 . S
C494 C495 1.355 . S
C494 C496 1.415 . S
C495 C494 1.355 . S
C495 C497 1.419 . S
C496 C494 1.415 . S
C496 C501 1.425 . S
C496 C503 1.409 . S
C497 H489 0.930 . S
C497 C495 1.419 . S
C497 C498 1.362 . S
C498 H490 0.930 . S
C498 C497 1.362 . S
C498 C501 1.409 . S
C499 H491 0.930 . S
C499 C500 1.355 . S
C499 C501 1.415 . S
C500 C499 1.355 . S
C500 C502 1.419 . S
C501 C496 1.425 . S
C501 C498 1.409 . S
C501 C499 1.415 . S
C502 H492 0.913 1_545 S
C502 C500 1.419 . S
C502 C503 1.362 . S
C503 H493 0.930 . S
C503 C496 1.409 . S
C503 C502 1.362 . S
H504 C510 0.930 . S
H505 C513 0.930 . S
H506 C514 0.930 . S
H507 C515 0.930 . S
H508 C518 0.930 1_556 S
H509 C519 0.930 . S
C510 H504 0.930 . S
C510 C511 1.355 . S
C510 C512 1.415 . S
C511 C510 1.355 . S
C511 C513 1.419 . S
C512 C510 1.415 . S
C512 C517 1.425 . S
C512 C519 1.409 . S
C513 H505 0.930 . S
C513 C511 1.419 . S
C513 C514 1.362 . S
C514 H506 0.930 . S
C514 C513 1.362 . S
C514 C517 1.409 . S
C515 H507 0.930 . S
C515 C516 1.355 . S
C515 C517 1.415 . S
C516 C515 1.355 . S
C516 C518 1.419 . S
C517 C512 1.425 . S
C517 C514 1.409 . S
C517 C515 1.415 . S
C518 H508 0.930 1_554 S
C518 C516 1.419 . S
C518 C519 1.362 . S
C519 H509 0.930 . S
C519 C512 1.409 . S
C519 C518 1.362 . S
H520 C526 0.930 . S
H521 C529 0.930 . S
H522 C530 0.930 . S
H523 C531 0.930 . S
H524 C534 0.930 . S
H525 C535 0.930 . S
C526 H520 0.930 . S
C526 C527 1.355 . S
C526 C528 1.415 . S
C527 C526 1.355 . S
C527 C529 1.419 . S
C528 C526 1.415 . S
C528 C533 1.425 . S
C528 C535 1.409 . S
C529 H521 0.930 . S
C529 C527 1.419 . S
C529 C530 1.362 . S
C530 H522 0.930 . S
C530 C529 1.362 . S
C530 C533 1.409 . S
C531 H523 0.930 . S
C531 C532 1.355 . S
C531 C533 1.415 . S
C532 C531 1.355 . S
C532 C534 1.419 . S
C533 C528 1.425 . S
C533 C530 1.409 . S
C533 C531 1.415 . S
C534 H524 0.930 . S
C534 C532 1.419 . S
C534 C535 1.362 . S
C535 H525 0.930 . S
C535 C528 1.409 . S
C535 C534 1.362 . S
H536 C542 0.930 . S
H537 C545 0.930 . S
H538 C546 0.930 . S
H539 C547 0.930 . S
H540 C550 0.930 . S
H541 C551 0.930 . S
C542 H536 0.930 . S
C542 C543 1.355 . S
C542 C544 1.415 . S
C543 C542 1.355 . S
C543 C545 1.419 . S
C544 C542 1.415 . S
C544 C549 1.425 . S
C544 C551 1.409 1_655 S
C545 H537 0.930 . S
C545 C543 1.419 . S
C545 C546 1.362 . S
C546 H538 0.930 . S
C546 C545 1.362 . S
C546 C549 1.409 . S
C547 H539 0.930 . S
C547 C548 1.355 . S
C547 C549 1.415 . S
C548 C547 1.355 . S
C548 C550 1.419 1_655 S
C549 C544 1.425 . S
C549 C546 1.409 . S
C549 C547 1.415 . S
C550 H540 0.930 . S
C550 C548 1.419 1_455 S
C550 C551 1.362 . S
C551 H541 0.930 . S
C551 C544 1.409 1_455 S
C551 C550 1.362 . S
H552 C558 0.930 . S
H553 C561 0.930 . S
H554 C562 0.930 . S
H555 C563 0.930 . S
H556 C566 0.930 . S
H557 C567 0.930 . S
C558 H552 0.930 . S
C558 C559 1.355 . S
C558 C560 1.415 . S
C559 C558 1.355 . S
C559 C561 1.419 . S
C560 C558 1.415 . S
C560 C565 1.425 . S
C560 C567 1.409 . S
C561 H553 0.930 . S
C561 C559 1.419 . S
C561 C562 1.362 . S
C562 H554 0.930 . S
C562 C561 1.362 . S
C562 C565 1.409 . S
C563 H555 0.930 . S
C563 C564 1.355 . S
C563 C565 1.415 . S
C564 C563 1.355 . S
C564 C566 1.419 . S
C565 C560 1.425 . S
C565 C562 1.409 . S
C565 C563 1.415 . S
C566 H556 0.930 . S
C566 C564 1.419 . S
C566 C567 1.362 . S
C567 H557 0.930 . S
C567 C560 1.409 . S
C567 C566 1.362 . S
H568 C574 0.930 . S
H569 C577 0.930 . S
H570 C578 0.930 . S
H571 C579 0.930 . S
H572 C582 0.930 1_655 S
H573 C583 0.930 1_655 S
C574 H568 0.930 . S
C574 C575 1.355 . S
C574 C576 1.415 . S
C575 C574 1.355 . S
C575 C577 1.419 . S
C576 C574 1.415 . S
C576 C581 1.425 . S
C576 C583 1.409 . S
C577 H569 0.930 . S
C577 C575 1.419 . S
C577 C578 1.362 . S
C578 H570 0.930 . S
C578 C577 1.362 . S
C578 C581 1.409 . S
C579 H571 0.930 . S
C579 C580 1.355 . S
C579 C581 1.415 . S
C580 C579 1.355 . S
C580 C582 1.419 . S
C581 C576 1.425 . S
C581 C578 1.409 . S
C581 C579 1.415 . S
C582 H572 0.930 1_455 S
C582 C580 1.419 . S
C582 C583 1.362 . S
C583 H573 0.930 1_455 S
C583 C576 1.409 . S
C583 C582 1.362 . S
H584 C590 0.930 . S
H585 C593 0.930 . S
H586 C594 0.930 . S
H587 C595 0.930 . S
H588 C598 0.930 . S
H589 C599 0.930 . S
C590 H584 0.930 . S
C590 C591 1.355 . S
C590 C592 1.415 . S
C591 C590 1.355 . S
C591 C593 1.419 . S
C592 C590 1.415 . S
C592 C597 1.425 . S
C592 C599 1.409 . S
C593 H585 0.930 . S
C593 C591 1.419 . S
C593 C594 1.362 . S
C594 H586 0.930 . S
C594 C593 1.362 . S
C594 C597 1.409 . S
C595 H587 0.930 . S
C595 C596 1.355 . S
C595 C597 1.415 . S
C596 C595 1.355 . S
C596 C598 1.419 . S
C597 C592 1.425 . S
C597 C594 1.409 . S
C597 C595 1.415 . S
C598 H588 0.930 . S
C598 C596 1.419 . S
C598 C599 1.362 . S
C599 H589 0.930 . S
C599 C592 1.409 . S
C599 C598 1.362 . S
C223 C6 2.312 . S
C228 C112 2.318 . S
C239 C18 1.344 . S
C244 N132 1.325 . S
C260 C166 2.014 . S
C255 C28 1.992 . S
C271 C40 0.992 . S
C276 N200 0.949 . S
C292 C153 2.526 . S
C287 C9 2.510 . S
C308 N110 1.047 . S
C303 C16 1.105 . S
C324 C187 2.031 1_556 S
C319 C30 2.027 . S
C340 N162 0.832 . S
C335 C42 0.894 . S
C351 C4 1.752 . S
C356 C202 1.787 . S
C372 C136 1.715 . S
C367 C33 1.695 . S
C383 C45 1.156 . S
C388 C97 1.156 . S
C399 C21 1.654 . S
C404 C183 1.670 . S
C420 C123 2.358 . S
C415 C57 2.361 . S
C431 C66 1.321 . S
C436 N140 1.328 . S
C447 C76 2.037 . S
C452 C157 2.050 . S
C463 C88 0.885 . S
C468 N192 0.865 . S
C479 C54 2.488 . S
C484 C142 2.495 . S
C500 N102 1.109 . S
C495 C64 1.144 . S
C516 C196 1.936 . S
C511 C78 1.904 . S
C532 N170 0.852 . S
C527 C93 0.905 . S
C543 C52 1.697 . S
C548 C213 1.741 . S
C564 C127 1.727 . S
C559 C81 1.720 . S
C580 C106 1.128 . S
C575 C90 1.108 . S
C591 C69 1.678 . S
C596 C172 1.702 . S
