# Generated by pormake.
# Topology pyr, (3,6)-cn, num edge types: 1
# Building blocks:
#     Node 0, Type 0, BuildingBlock: PAMTOO_clean_linker_0, # of connection points: 3
#     Node 1, Type 0, BuildingBlock: PAMTOO_clean_linker_0, # of connection points: 3
#     Node 2, Type 0, BuildingBlock: PAMTOO_clean_linker_0, # of connection points: 3
#     Node 3, Type 0, BuildingBlock: PAMTOO_clean_linker_0, # of connection points: 3
#     Node 4, Type 0, BuildingBlock: PAMTOO_clean_linker_0, # of connection points: 3
#     Node 5, Type 0, BuildingBlock: PAMTOO_clean_linker_0, # of connection points: 3
#     Node 6, Type 0, BuildingBlock: PAMTOO_clean_linker_0, # of connection points: 3
#     Node 7, Type 0, BuildingBlock: PAMTOO_clean_linker_0, # of connection points: 3
#     Node 8, Type 1, BuildingBlock: JUFBIX_clean_sbu_0, # of connection points: 6
#     Node 9, Type 1, BuildingBlock: JUFBIX_clean_sbu_0, # of connection points: 6
#     Node 10, Type 1, BuildingBlock: JUFBIX_clean_sbu_0, # of connection points: 6
#     Node 11, Type 1, BuildingBlock: JUFBIX_clean_sbu_0, # of connection points: 6
#     Edge 12, Type (0, 1), BuildingBlock: AJUNOK_clean_linker_0, # of connection points: 2
#     Edge 13, Type (0, 1), BuildingBlock: AJUNOK_clean_linker_0, # of connection points: 2
#     Edge 14, Type (0, 1), BuildingBlock: AJUNOK_clean_linker_0, # of connection points: 2
#     Edge 15, Type (0, 1), BuildingBlock: AJUNOK_clean_linker_0, # of connection points: 2
#     Edge 16, Type (0, 1), BuildingBlock: AJUNOK_clean_linker_0, # of connection points: 2
#     Edge 17, Type (0, 1), BuildingBlock: AJUNOK_clean_linker_0, # of connection points: 2
#     Edge 18, Type (0, 1), BuildingBlock: AJUNOK_clean_linker_0, # of connection points: 2
#     Edge 19, Type (0, 1), BuildingBlock: AJUNOK_clean_linker_0, # of connection points: 2
#     Edge 20, Type (0, 1), BuildingBlock: AJUNOK_clean_linker_0, # of connection points: 2
#     Edge 21, Type (0, 1), BuildingBlock: AJUNOK_clean_linker_0, # of connection points: 2
#     Edge 22, Type (0, 1), BuildingBlock: AJUNOK_clean_linker_0, # of connection points: 2
#     Edge 23, Type (0, 1), BuildingBlock: AJUNOK_clean_linker_0, # of connection points: 2
#     Edge 24, Type (0, 1), BuildingBlock: AJUNOK_clean_linker_0, # of connection points: 2
#     Edge 25, Type (0, 1), BuildingBlock: AJUNOK_clean_linker_0, # of connection points: 2
#     Edge 26, Type (0, 1), BuildingBlock: AJUNOK_clean_linker_0, # of connection points: 2
#     Edge 27, Type (0, 1), BuildingBlock: AJUNOK_clean_linker_0, # of connection points: 2
#     Edge 28, Type (0, 1), BuildingBlock: AJUNOK_clean_linker_0, # of connection points: 2
#     Edge 29, Type (0, 1), BuildingBlock: AJUNOK_clean_linker_0, # of connection points: 2
#     Edge 30, Type (0, 1), BuildingBlock: AJUNOK_clean_linker_0, # of connection points: 2
#     Edge 31, Type (0, 1), BuildingBlock: AJUNOK_clean_linker_0, # of connection points: 2
#     Edge 32, Type (0, 1), BuildingBlock: AJUNOK_clean_linker_0, # of connection points: 2
#     Edge 33, Type (0, 1), BuildingBlock: AJUNOK_clean_linker_0, # of connection points: 2
#     Edge 34, Type (0, 1), BuildingBlock: AJUNOK_clean_linker_0, # of connection points: 2
#     Edge 35, Type (0, 1), BuildingBlock: AJUNOK_clean_linker_0, # of connection points: 2
# Relax obj value: 0.160
# Max RMSD: 0.207
# Mean RMSD: 0.140
data_MOF--net-pry--node1-JUFBIX_clean_sbu_0--node2-PAMTOO_clean_linker_0--edge1-AJUNOK_clean_linker_0
_symmetry_space_group_name_H-M    P1
_symmetry_Int_Tables_number       1
_symmetry_cell_setting            triclinic
loop_
_symmetry_equiv_pos_as_xyz
'x, y, z'
_cell_length_a     26.611422
_cell_length_b     25.80124
_cell_length_c     27.116421
_cell_angle_alpha  79.946466
_cell_angle_beta   88.188171
_cell_angle_gamma 95.248436
loop_
_atom_site_label
_atom_site_type_symbol
_atom_site_fract_x
_atom_site_fract_y
_atom_site_fract_z
_atom_type_partial_charge
H0 H 0.14361 0.21946 0.27152 0.0
H1 H 0.25906 0.11178 0.28577 0.0
H2 H 0.25978 0.2322 0.15441 0.0
H3 H 0.2778 0.11617 0.14357 0.0
C4 C 0.3059 0.11087 0.17309 0.0
O5 O 0.30685 0.15275 0.19913 0.0
H6 H 0.29258 0.07362 0.19927 0.0
C7 C 0.17737 0.20594 0.25676 0.0
C8 C 0.19913 0.23216 0.20974 0.0
C9 C 0.19863 0.16291 0.28536 0.0
C10 C 0.24227 0.14517 0.26517 0.0
C11 C 0.26397 0.16954 0.21764 0.0
C12 C 0.24221 0.21285 0.19028 0.0
H13 H 0.42148 0.99132 0.68121 0.0
H14 H 0.42129 0.87263 0.58775 0.0
H15 H 0.54328 0.89271 0.68459 0.0
H16 H 0.57182 0.85844 0.58116 0.0
C17 C 0.53386 0.83756 0.57818 0.0
O18 O 0.50484 0.83694 0.62119 0.0
H19 H 0.51589 0.8585 0.54491 0.0
C20 C 0.44053 0.96185 0.6658 0.0
C21 C 0.4861 0.94683 0.68538 0.0
C22 C 0.41652 0.93526 0.63081 0.0
C23 C 0.43967 0.89443 0.61401 0.0
C24 C 0.48582 0.88002 0.63278 0.0
C25 C 0.50901 0.9061 0.66835 0.0
H26 H 0.78333 0.30788 1.00279 0.0
H27 H 0.68217 0.32577 0.88113 0.0
H28 H 0.80126 0.44686 0.8868 0.0
H29 H 0.71067 0.49181 0.8407 0.0
C30 C 0.69109 0.45409 0.83355 0.0
O31 O 0.72533 0.41657 0.83588 0.0
H32 H 0.66053 0.44106 0.86336 0.0
C33 C 0.77106 0.33081 0.96874 0.0
C34 C 0.7993 0.37883 0.94708 0.0
C35 C 0.72765 0.31163 0.9463 0.0
C36 C 0.71338 0.34087 0.90094 0.0
C37 C 0.73965 0.3895 0.87989 0.0
C38 C 0.78193 0.40873 0.90329 0.0
H39 H 0.9211 0.72267 0.50778 0.0
H40 H 0.97896 0.60278 0.43539 0.0
H41 H 0.07706 0.73804 0.45445 0.0
H42 H 0.12342 0.667 0.36154 0.0
C43 C 0.08196 0.66681 0.3679 0.0
O44 O 0.07003 0.65012 0.41849 0.0
H45 H 0.07364 0.70852 0.35585 0.0
C46 C 0.95228 0.70717 0.4903 0.0
C47 C 1.00035 0.73594 0.48459 0.0
C48 C 0.94396 0.65919 0.47237 0.0
C49 C 0.9844 0.63981 0.44911 0.0
C50 C 1.032 0.66833 0.44265 0.0
C51 C 0.0401 0.71595 0.46066 0.0
H52 H 0.82574 0.95892 0.84285 0.0
H53 H 0.8312 0.83786 0.97432 0.0
H54 H 0.94179 0.85139 0.85406 0.0
H55 H 0.89555 0.74503 0.89546 0.0
C56 C 0.89848 0.74705 0.93596 0.0
O57 O 0.91118 0.79882 0.9418 0.0
H58 H 0.86049 0.73313 0.95427 0.0
C59 C 0.84308 0.92586 0.86338 0.0
C60 C 0.8853 0.90711 0.84101 0.0
C61 C 0.82341 0.90205 0.91236 0.0
C62 C 0.84624 0.85822 0.93777 0.0
C63 C 0.88852 0.83999 0.91645 0.0
C64 C 0.90818 0.86508 0.869 0.0
H65 H 0.68389 0.0656 0.41998 0.0
H66 H 0.55113 0.14834 0.39221 0.0
H67 H 0.6581 0.194 0.49571 0.0
H68 H 0.55407 0.18777 0.52591 0.0
C69 C 0.5432 0.21553 0.4926 0.0
O70 O 0.57495 0.2157 0.45143 0.0
H71 H 0.50428 0.20206 0.48356 0.0
C72 C 0.65916 0.09431 0.42863 0.0
C73 C 0.67415 0.12652 0.46313 0.0
C74 C 0.61561 0.10247 0.40162 0.0
C75 C 0.58526 0.14149 0.41208 0.0
C76 C 0.60078 0.17439 0.44588 0.0
C77 C 0.64549 0.16735 0.47084 0.0
H78 H 0.34035 0.72879 0.09986 0.0
H79 H 0.31276 0.6 0.22536 0.0
H80 H 0.44422 0.70942 0.21968 0.0
H81 H 0.44466 0.5824 0.24866 0.0
C82 C 0.41535 0.58092 0.27926 0.0
O83 O 0.3918 0.62695 0.27275 0.0
H84 H 0.38698 0.54699 0.27728 0.0
C85 C 0.35193 0.70708 0.13487 0.0
C86 C 0.39581 0.72599 0.157 0.0
C87 C 0.3215 0.66156 0.15947 0.0
C88 C 0.33575 0.63482 0.2058 0.0
C89 C 0.37983 0.65204 0.22716 0.0
C90 C 0.41009 0.69678 0.20249 0.0
H91 H 0.10414 0.30881 0.72744 0.0
H92 H 0.14416 0.47513 0.67111 0.0
H93 H 0.09835 0.37219 0.5699 0.0
H94 H 0.16801 0.51502 0.51772 0.0
C95 C 0.17023 0.47702 0.54371 0.0
O96 O 0.12958 0.46919 0.5781 0.0
H97 H 0.16695 0.4458 0.52009 0.0
C98 C 0.10879 0.34216 0.69671 0.0
C99 C 0.09861 0.3342 0.64765 0.0
C100 C 0.12465 0.39318 0.70597 0.0
C101 C 0.13215 0.43549 0.6652 0.0
C102 C 0.12256 0.42777 0.6166 0.0
C103 C 0.10509 0.37757 0.60797 0.0
Co104 Co 1.00864 0.04696 0.54763 0.0
C105 C 1.03199 0.94462 0.54146 0.0
Co106 Co 0.07827 0.02575 0.58328 0.0
C107 C 0.90962 0.08217 0.53193 0.0
C108 C 0.94349 0.06095 0.46639 0.0
N109 N 0.9516 0.06419 0.51471 0.0
N110 N 0.8763 0.0908 0.49587 0.0
C111 C 0.89713 0.07747 0.45468 0.0
H112 H 0.90334 0.08827 0.57005 0.0
H113 H 0.96929 0.04663 0.44144 0.0
C114 C 0.05494 0.12736 0.59087 0.0
N115 N 0.13592 1.00883 0.61492 0.0
C116 C 0.17589 0.98879 0.59612 0.0
C117 C 0.14911 0.01795 0.66051 0.0
N118 N 0.2134 0.98545 0.62814 0.0
C119 C 0.19715 1.00385 0.6686 0.0
C120 C 0.09594 0.07275 0.48236 0.0
O121 O 1.01731 0.11561 0.56575 0.0
O122 O 0.08627 0.09342 0.60214 0.0
O123 O 0.11819 0.05368 0.52131 0.0
O124 O 0.04834 0.07345 0.48619 0.0
O125 O 0.07025 0.958 0.56483 0.0
H126 H 0.12594 0.0354 0.68544 0.0
H127 H 0.17823 0.97874 0.55903 0.0
O128 O 0.99999 0.97794 0.52992 0.0
O129 O 0.96893 0.02062 0.60916 0.0
O130 O 0.03827 0.9978 0.64486 0.0
C131 C 0.99071 1.00031 0.6479 0.0
H132 H 0.87925 0.07811 0.41928 0.0
H133 H 0.21905 1.00806 0.7009 0.0
Co134 Co 0.55199 0.01782 1.01125 0.0
C135 C 0.52083 0.92286 0.07349 0.0
Co136 Co 0.58825 1.01033 0.08341 0.0
C137 C 0.53133 1.00053 0.91175 0.0
C138 C 0.49908 0.06851 0.92924 0.0
N139 N 0.5246 0.02767 0.94922 0.0
N140 N 0.51175 0.02326 0.86899 0.0
C141 C 0.49071 0.06563 0.88005 0.0
H142 H 0.55185 0.96585 0.91517 0.0
H143 H 0.48873 0.09948 0.94863 0.0
C144 C 0.61756 0.10579 1.02277 0.0
N145 N 0.61613 1.00244 0.14581 0.0
C146 C 0.59195 1.00395 0.18998 0.0
C147 C 0.66543 1.00292 0.15612 0.0
N148 N 0.62405 1.00661 0.22696 0.0
C149 C 0.67038 1.00572 0.20601 0.0
C150 C 0.64627 0.97466 1.00979 0.0
O151 O 0.58627 0.08729 0.99434 0.0
O152 O 0.6256 0.07795 0.06466 0.0
O153 O 0.6439 0.97822 0.05612 0.0
O154 O 0.6097 0.98949 0.98345 0.0
O155 O 0.55075 0.94308 0.10223 0.0
H156 H 0.69615 1.00577 0.12845 0.0
H157 H 0.55198 1.00759 0.19449 0.0
O158 O 0.51682 0.9478 1.02907 0.0
O159 O 0.49495 0.04632 0.03884 0.0
O160 O 0.53212 0.04299 0.10957 0.0
C161 C 0.49443 0.05476 0.08363 0.0
H162 H 0.47062 0.0926 0.85457 0.0
H163 H 0.7055 0.01217 0.22416 0.0
Co164 Co 0.59197 0.53274 0.53579 0.0
C165 C 0.51025 0.54277 0.47264 0.0
Co166 Co 0.51681 0.51157 0.57527 0.0
C167 C 0.70217 0.54757 0.5106 0.0
C168 C 0.65809 0.59586 0.46027 0.0
N169 N 0.6538 0.55671 0.50077 0.0
N170 N 0.7356 0.5786 0.47679 0.0
C171 C 0.70777 0.60888 0.44528 0.0
H172 H 0.7128 0.52053 0.54288 0.0
H173 H 0.62746 0.61692 0.4448 0.0
C174 C 0.59866 0.50134 0.63841 0.0
N175 N 0.45446 0.48996 0.60872 0.0
C176 C 0.40965 0.50749 0.59558 0.0
C177 C 0.44261 0.44722 0.64497 0.0
N178 N 0.37028 0.47684 0.62132 0.0
C179 C 0.39083 0.4388 0.65247 0.0
C180 C 0.55826 0.42823 0.54107 0.0
O181 O 0.62482 0.51699 0.5975 0.0
O182 O 0.5506 0.49674 0.63715 0.0
O183 O 0.52179 0.44248 0.565 0.0
O184 O 0.59595 0.46179 0.52482 0.0
O185 O 0.48397 0.52623 0.51313 0.0
H186 H 0.46959 0.42161 0.66217 0.0
H187 H 0.40566 0.53936 0.56464 0.0
O188 O 0.55798 0.54798 0.47442 0.0
O189 O 0.58664 0.60284 0.54668 0.0
O190 O 0.51168 0.58129 0.58456 0.0
C191 C 0.54772 0.61617 0.56772 0.0
H192 H 0.72261 0.64109 0.41582 0.0
H193 H 0.36983 0.40553 0.67666 0.0
Co194 Co 0.08629 0.49898 1.02706 0.0
C195 C 0.98693 0.44864 0.03601 0.0
Co196 Co 0.04475 0.50029 0.09851 0.0
C197 C 0.11421 0.45792 0.93798 0.0
C198 C 0.14284 0.53885 0.93426 0.0
N199 N 0.11702 0.49762 0.96478 0.0
N200 N 0.13662 0.473 0.89147 0.0
C201 C 0.1549 0.52393 0.88944 0.0
H202 H 0.09534 0.41907 0.95236 0.0
H203 H 0.1506 0.57793 0.94329 0.0
C204 C 0.14296 0.55459 0.08732 0.0
N205 N 1.01482 0.50213 0.16098 0.0
C206 C 1.01886 0.544 0.18482 0.0
C207 C 0.99628 0.46088 0.19652 0.0
N208 N 1.00505 0.53042 0.23399 0.0
C209 C 0.99088 0.47808 0.24163 0.0
C210 C 0.1045 0.41477 0.10207 0.0
O211 O 0.14458 0.53968 0.04506 0.0
O212 O 0.10326 0.54111 0.11563 0.0
O213 O 0.07372 0.43701 0.12636 0.0
O214 O 0.11496 0.43418 0.05591 0.0
O215 O 0.98583 0.46013 0.07989 0.0
H216 H 0.99131 0.42023 0.19103 0.0
H217 H 0.03649 0.5827 0.16762 0.0
O218 O 1.02784 0.45969 1.0092 0.0
O219 O 0.05702 0.56361 0.99925 0.0
O220 O 1.0164 0.5633 0.07076 0.0
C221 C 1.02644 0.58464 1.02521 0.0
H222 H 0.17356 0.54961 0.85691 0.0
H223 H 0.98076 0.4535 0.27781 0.0
C224 C 0.12121 0.12752 0.34214 0.0
C225 C 0.17429 0.13708 0.33592 0.0
C226 C 0.09679 0.1066 0.38917 0.0
C227 C 0.12402 0.09372 0.43273 0.0
H228 H 0.09801 0.13633 0.31021 0.0
H229 H 0.05591 0.10057 0.39123 0.0
S230 S 0.2638 0.111 0.43783 0.0
N231 N 0.25337 0.13219 0.37831 0.0
N232 N 0.20765 0.0919 0.4662 0.0
C233 C 0.1772 0.1022 0.42712 0.0
C234 C 0.20218 0.12392 0.37904 0.0
C235 C 0.50385 0.93194 0.77567 0.0
C236 C 0.50348 0.96721 0.72998 0.0
C237 C 0.50837 0.95065 0.82086 0.0
C238 C 0.51268 1.00519 0.82178 0.0
H239 H 0.4974 0.88965 0.77682 0.0
H240 H 0.50583 0.92219 0.85549 0.0
S241 S 0.52229 0.1134 0.71101 0.0
N242 N 0.51332 0.05865 0.68735 0.0
N243 N 0.52327 0.09416 0.77233 0.0
C244 C 0.51596 0.04081 0.77589 0.0
C245 C 0.51104 0.0217 0.72994 0.0
C246 C 0.61651 0.45233 0.77742 0.0
C247 C 0.66867 0.46376 0.78232 0.0
C248 C 0.59444 0.46439 0.73089 0.0
C249 C 0.62359 0.48824 0.6871 0.0
H250 H 0.59233 0.43455 0.81 0.0
H251 H 0.55406 0.45505 0.72941 0.0
S252 S 0.76236 0.52518 0.67993 0.0
N253 N 0.74907 0.49953 0.7396 0.0
N254 N 0.70813 0.52199 0.6521 0.0
C255 C 0.67607 0.49908 0.69147 0.0
C256 C 0.69842 0.4869 0.73898 0.0
C257 C 0.06726 0.57716 0.34274 0.0
C258 C 0.05563 0.62992 0.3371 0.0
C259 C 0.04826 0.54371 0.31059 0.0
C260 C 1.01739 0.5621 0.27143 0.0
H261 H 0.09269 0.5623 0.3711 0.0
H262 H 0.05985 0.50409 0.31471 0.0
S263 S 0.97151 0.69476 0.2439 0.0
N264 N 1.00766 0.6974 0.29201 0.0
N265 N 0.97299 0.63463 0.23104 0.0
C266 C 1.00377 0.61388 0.26674 0.0
C267 C 1.02255 0.64777 0.29976 0.0
C268 C 0.39474 0.08057 0.17992 0.0
C269 C 0.35785 0.10449 0.14998 0.0
C270 C 0.43956 0.06651 0.15848 0.0
C271 C 0.44934 0.07526 0.10601 0.0
H272 H 0.38797 0.0708 0.22022 0.0
H273 H 0.46576 0.04671 0.18323 0.0
S274 S 0.36777 0.14245 1.01122 0.0
N275 N 0.33666 0.14066 0.06525 0.0
N276 N 0.41982 0.11393 1.02515 0.0
C277 C 0.41383 0.10148 0.07591 0.0
C278 C 0.36855 0.11623 0.09777 0.0
C279 C 0.35307 0.99913 0.60643 0.0
C280 C 0.3644 0.94626 0.61828 0.0
C281 C 0.30307 0.01166 0.60708 0.0
C282 C 0.26305 0.97173 0.61888 0.0
H283 H 0.38319 0.03112 0.59952 0.0
H284 H 0.29555 0.05279 0.60061 0.0
S285 S 0.27136 0.8276 0.64817 0.0
N286 N 0.33073 0.85362 0.63917 0.0
N287 N 0.23655 0.87795 0.63886 0.0
C288 C 0.27329 0.91884 0.62728 0.0
C289 C 0.32416 0.90585 0.62715 0.0
C290 C 0.8513 0.39115 1.02184 0.0
C291 C 0.8476 0.39651 0.96936 0.0
C292 C 0.89643 0.40711 0.04334 0.0
C293 C 0.94004 0.42875 1.01334 0.0
H294 H 0.81876 0.37525 0.04666 0.0
H295 H 0.89702 0.4027 0.08377 0.0
S296 S 0.9503 0.45302 0.87385 0.0
N297 N 0.89226 0.42504 0.88812 0.0
N298 N 0.97578 0.45654 0.92796 0.0
C299 C 0.9368 0.43448 0.96081 0.0
C300 C 0.89104 0.41811 0.93903 0.0
C301 C 0.86248 0.62109 0.52006 0.0
C302 C 0.89235 0.63122 0.47493 0.0
C303 C 0.81191 0.59934 0.52171 0.0
C304 C 0.78959 0.5876 0.47817 0.0
H305 H 0.8779 0.63139 0.55397 0.0
H306 H 0.78928 0.59478 0.55638 0.0
S307 S 0.85197 0.60354 0.35157 0.0
N308 N 0.8962 0.62542 0.3863 0.0
N309 N 0.80161 0.58428 0.38979 0.0
C310 C 0.81971 0.59511 0.43357 0.0
C311 C 0.87097 0.61702 0.43182 0.0
C312 C 0.17016 0.28657 0.12971 0.0
C313 C 0.17697 0.2801 0.18185 0.0
C314 C 0.14736 0.33022 0.10379 0.0
C315 C 0.12984 0.36901 0.12898 0.0
H316 H 0.18166 0.25713 0.10884 0.0
H317 H 0.14252 0.33299 0.06394 0.0
S318 S 0.14453 0.37491 0.2638 0.0
N319 N 0.16892 0.32012 0.2562 0.0
N320 N 0.12493 0.40015 0.20842 0.0
C321 C 0.13774 0.36378 0.18073 0.0
C322 C 0.1615 0.31999 0.20684 0.0
C323 C 0.72385 0.21622 0.98949 0.0
C324 C 0.69844 0.26009 0.96888 0.0
C325 C 0.69733 0.16674 1.00849 0.0
C326 C 0.64456 0.15894 1.00654 0.0
H327 H 0.76469 0.21961 0.9898 0.0
H328 H 0.71842 0.13391 1.02315 0.0
S329 S 0.55913 0.26098 0.96215 0.0
N330 N 0.6163 0.29283 0.95312 0.0
N331 N 0.56729 0.19907 0.98581 0.0
C332 C 0.61848 0.20227 0.98725 0.0
C333 C 0.64519 0.25297 0.96917 0.0
C334 C 0.97496 0.82686 0.48738 0.0
C335 C 1.00842 0.78816 0.50105 0.0
C336 C 0.98285 0.87713 0.5006 0.0
C337 C 1.0245 0.89083 0.52819 0.0
H338 H 0.94285 0.81858 0.46541 0.0
H339 H 0.95616 0.90555 0.48873 0.0
S340 S 0.12167 0.80234 0.57582 0.0
N341 N 0.0835 0.76601 0.54566 0.0
N342 N 0.09875 0.8603 0.57026 0.0
C343 C 0.05787 0.85209 0.54277 0.0
C344 C 0.04977 0.80092 0.52924 0.0
C345 C 0.58439 0.76063 0.57156 0.0
C346 C 0.53734 0.78123 0.57229 0.0
C347 C 0.58746 0.70704 0.56995 0.0
C348 C 0.54355 0.67223 0.56996 0.0
H349 H 0.61895 0.78594 0.57281 0.0
H350 H 0.62442 0.69262 0.56953 0.0
S351 S 0.41147 0.70766 0.5689 0.0
N352 N 0.44622 0.76372 0.5704 0.0
N353 N 0.45175 0.66267 0.56865 0.0
C354 C 0.49632 0.69258 0.57 0.0
C355 C 0.49331 0.74722 0.57072 0.0
C356 C 0.9172 0.98645 0.7741 0.0
C357 C 0.90724 0.93113 0.78915 0.0
C358 C 0.94334 1.00888 0.72794 0.0
C359 C 0.9608 0.97688 0.6952 0.0
H360 H 0.90629 0.01258 0.79889 0.0
H361 H 0.95107 0.05148 0.71839 0.0
S362 S 0.93973 0.83083 0.71311 0.0
N363 N 0.91297 0.84558 0.76401 0.0
N364 N 0.96324 0.88779 0.67901 0.0
C365 C 0.94965 0.92197 0.70875 0.0
C366 C 0.9226 0.89913 0.75515 0.0
C367 C 0.61596 0.02182 0.3616 0.0
C368 C 0.60738 0.07553 0.35794 0.0
C369 C 0.61972 0.9986 0.31872 0.0
C370 C 0.61387 0.028 0.27109 0.0
H371 H 0.62211 0.99826 0.39767 0.0
H372 H 0.62863 0.95802 0.32251 0.0
S373 S 0.5893 0.16856 0.2403 0.0
N374 N 0.59244 0.1568 0.3019 0.0
N375 N 0.59743 0.11202 0.22201 0.0
C376 C 0.60271 0.08057 0.2669 0.0
C377 C 0.59974 0.10459 0.31021 0.0
C378 C 0.41395 0.54085 0.3717 0.0
C379 C 0.43944 0.57298 0.32935 0.0
C380 C 0.43669 0.532 0.41815 0.0
C381 C 0.48581 0.5549 0.42388 0.0
H382 H 0.37642 0.52187 0.36871 0.0
H383 H 0.41601 0.50618 0.44947 0.0
S384 S 0.56568 0.64737 0.32549 0.0
N385 N 0.51416 0.63136 0.29696 0.0
N386 N 0.55718 0.61473 0.38363 0.0
C387 C 0.51075 0.58868 0.38206 0.0
C388 C 0.48743 0.59788 0.33504 0.0
C389 C 0.17312 0.43833 0.76698 0.0
C390 C 0.13149 0.40423 0.75771 0.0
C391 C 0.17579 0.45795 0.81196 0.0
C392 C 0.13698 0.44451 0.84983 0.0
H393 H 0.20313 0.45159 0.73837 0.0
H394 H 0.20793 0.48536 0.8164 0.0
S395 S 1.02292 0.35058 0.84683 0.0
N396 N 0.05287 0.35363 0.79203 0.0
N397 N 0.05793 0.39002 0.87677 0.0
C398 C 0.09692 0.40719 0.84262 0.0
C399 C 0.0942 0.38721 0.79655 0.0
C400 C 0.73532 0.93382 0.91125 0.0
C401 C 0.7791 0.92208 0.93735 0.0
C402 C 0.69278 0.95013 0.93491 0.0
C403 C 0.69176 0.95571 0.98592 0.0
H404 H 0.73348 0.92948 0.87232 0.0
H405 H 0.66029 0.95833 0.91283 0.0
S406 S 0.79808 0.93385 0.07041 0.0
N407 N 0.81949 0.92045 1.01671 0.0
N408 N 0.74009 0.94988 0.06093 0.0
C409 C 0.73563 0.94482 1.01219 0.0
C410 C 0.77894 0.9284 0.98809 0.0
C411 C 0.76296 0.16243 0.46845 0.0
C412 C 0.72396 0.12188 0.48447 0.0
C413 C 0.81342 0.15344 0.47604 0.0
C414 C 0.82586 0.1042 0.50067 0.0
H415 H 0.75475 0.19963 0.44634 0.0
H416 H 0.84309 0.18373 0.45979 0.0
S417 S 0.7375 0.98772 0.55465 0.0
N418 N 0.7007 0.03253 0.5296 0.0
N419 N 0.79598 0.01627 0.54468 0.0
C420 C 0.78715 0.065 0.5204 0.0
C421 C 0.73589 0.07373 0.5121 0.0
C422 C 0.2754 0.62489 0.09145 0.0
C423 C 0.27419 0.6412 0.13829 0.0
C424 C 0.23261 0.59792 0.0747 0.0
C425 C 0.18692 0.58633 0.10413 0.0
H426 H 0.31025 0.63108 0.06853 0.0
H427 H 0.23584 0.58491 0.03896 0.0
S428 S 0.16304 0.62612 0.22758 0.0
N429 N 0.2227 0.64784 0.21203 0.0
N430 N 0.14265 0.59743 0.18114 0.0
C431 C 0.18484 0.60472 0.15015 0.0
C432 C 0.2283 0.63205 0.16704 0.0
C433 C 0.24269 0.42997 0.58186 0.0
C434 C 0.22038 0.47749 0.56855 0.0
C435 C 0.2908 0.42966 0.60145 0.0
C436 C 0.31832 0.4769 0.60817 0.0
H437 H 0.22335 0.39298 0.57576 0.0
H438 H 0.30751 0.39255 0.60922 0.0
S439 S 0.27413 0.61068 0.58511 0.0
N440 N 0.22719 0.57212 0.56813 0.0
N441 N 0.31816 0.57158 0.60421 0.0
C442 C 0.29545 0.52424 0.59729 0.0
C443 C 0.24624 0.5245 0.57784 0.0
C444 C 0.9322 0.68895 1.01045 0.0
C445 C 0.93667 0.71056 0.95901 0.0
C446 C 0.9627 0.64992 1.03164 0.0
C447 C 0.99923 0.63072 1.00237 0.0
H448 H 0.90358 0.70098 1.0342 0.0
H449 H 0.95636 0.63356 0.07118 0.0
S450 S 1.02976 0.67904 0.86652 0.0
N451 N 0.98341 0.71345 0.88001 0.0
N452 N 0.04052 0.64011 0.91947 0.0
C453 C 1.00586 0.65416 0.95127 0.0
C454 C 0.97479 0.69408 0.92976 0.0
C455 C 0.44061 0.78984 0.08345 0.0
C456 C 0.4256 0.77742 0.13487 0.0
C457 C 0.471 0.83708 0.06331 0.0
C458 C 0.48791 0.87333 0.09398 0.0
H459 H 0.42966 0.76239 0.05881 0.0
H460 H 0.48216 0.84473 1.02375 0.0
S461 S 0.45307 0.86335 0.22929 0.0
N462 N 0.42543 0.80864 0.21447 0.0
N463 N 0.48322 0.89574 0.17735 0.0
C464 C 0.47168 0.86212 0.14499 0.0
C465 C 0.44041 0.8147 0.16521 0.0
C466 C 0.11359 0.23911 0.65207 0.0
C467 C 0.08362 0.28052 0.63675 0.0
C468 C 0.10358 0.18977 0.63746 0.0
C469 C 0.06297 0.17965 0.60712 0.0
H470 H 0.14608 0.24541 0.67416 0.0
H471 H 0.12848 0.15956 0.6496 0.0
S472 S 0.97049 0.27403 0.56065 0.0
N473 N 1.00983 0.30753 0.59226 0.0
N474 N 0.99084 0.21494 0.56474 0.0
C475 C 1.03165 0.22034 0.59297 0.0
C476 C 0.04204 0.27068 0.60774 0.0
C477 C 0.5936 0.30037 0.50406 0.0
C478 C 0.54642 0.27029 0.50537 0.0
C479 C 0.59737 0.3515 0.51552 0.0
C480 C 0.55426 0.37384 0.52995 0.0
H481 H 0.62785 0.28449 0.4936 0.0
H482 H 0.63431 0.37347 0.51338 0.0
S483 S 0.42213 0.31006 0.54168 0.0
N484 N 0.45614 0.26565 0.52378 0.0
N485 N 0.46275 0.36122 0.54582 0.0
C486 C 0.50696 0.34351 0.5326 0.0
C487 C 0.5032 0.29179 0.52043 0.0
loop_
_geom_bond_atom_site_label_1
_geom_bond_atom_site_label_2
_geom_bond_distance
_geom_bond_site_symmetry_2
_ccdc_geom_bond_type
H0 C7 0.929 . S
H1 C10 0.930 . S
H2 C12 0.929 . S
H3 C4 0.969 . S
C4 H3 0.969 . S
C4 O5 1.550 . S
C4 H6 0.973 . S
O5 C4 1.550 . S
O5 C11 1.412 . S
H6 C4 0.973 . S
C7 H0 0.929 . S
C7 C8 1.400 . S
C7 C9 1.364 . S
C8 C7 1.400 . S
C8 C12 1.377 . S
C9 C7 1.364 . S
C9 C10 1.374 . S
C10 H1 0.930 . S
C10 C9 1.374 . S
C10 C11 1.383 . S
C11 O5 1.412 . S
C11 C10 1.383 . S
C11 C12 1.394 . S
C12 H2 0.929 . S
C12 C8 1.377 . S
C12 C11 1.394 . S
H13 C20 0.929 . S
H14 C23 0.930 . S
H15 C25 0.929 . S
H16 C17 0.969 . S
C17 H16 0.969 . S
C17 O18 1.550 . S
C17 H19 0.973 . S
O18 C17 1.550 . S
O18 C24 1.412 . S
H19 C17 0.973 . S
C20 H13 0.929 . S
C20 C21 1.400 . S
C20 C22 1.364 . S
C21 C20 1.400 . S
C21 C25 1.377 . S
C22 C20 1.364 . S
C22 C23 1.374 . S
C23 H14 0.930 . S
C23 C22 1.374 . S
C23 C24 1.383 . S
C24 O18 1.412 . S
C24 C23 1.383 . S
C24 C25 1.394 . S
C25 H15 0.929 . S
C25 C21 1.377 . S
C25 C24 1.394 . S
H26 C33 0.929 . S
H27 C36 0.930 . S
H28 C38 0.929 . S
H29 C30 0.969 . S
C30 H29 0.969 . S
C30 O31 1.550 . S
C30 H32 0.973 . S
O31 C30 1.550 . S
O31 C37 1.412 . S
H32 C30 0.973 . S
C33 H26 0.929 . S
C33 C34 1.400 . S
C33 C35 1.364 . S
C34 C33 1.400 . S
C34 C38 1.377 . S
C35 C33 1.364 . S
C35 C36 1.374 . S
C36 H27 0.930 . S
C36 C35 1.374 . S
C36 C37 1.383 . S
C37 O31 1.412 . S
C37 C36 1.383 . S
C37 C38 1.394 . S
C38 H28 0.929 . S
C38 C34 1.377 . S
C38 C37 1.394 . S
H39 C46 0.929 . S
H40 C49 0.930 . S
H41 C51 0.929 1_455 S
H42 C43 0.969 . S
C43 H42 0.969 . S
C43 O44 1.550 . S
C43 H45 0.973 . S
O44 C43 1.550 . S
O44 C50 1.412 . S
H45 C43 0.973 . S
C46 H39 0.929 . S
C46 C47 1.400 . S
C46 C48 1.364 . S
C47 C46 1.400 . S
C47 C51 1.377 . S
C48 C46 1.364 . S
C48 C49 1.374 . S
C49 H40 0.930 . S
C49 C48 1.374 . S
C49 C50 1.383 . S
C50 O44 1.412 . S
C50 C49 1.383 . S
C50 C51 1.394 . S
C51 H41 0.929 1_655 S
C51 C47 1.377 . S
C51 C50 1.394 . S
H52 C59 0.929 . S
H53 C62 0.930 . S
H54 C64 0.929 . S
H55 C56 0.969 . S
C56 H55 0.969 . S
C56 O57 1.550 . S
C56 H58 0.973 . S
O57 C56 1.550 . S
O57 C63 1.412 . S
H58 C56 0.973 . S
C59 H52 0.929 . S
C59 C60 1.400 . S
C59 C61 1.364 . S
C60 C59 1.400 . S
C60 C64 1.377 . S
C61 C59 1.364 . S
C61 C62 1.374 . S
C62 H53 0.930 . S
C62 C61 1.374 . S
C62 C63 1.383 . S
C63 O57 1.412 . S
C63 C62 1.383 . S
C63 C64 1.394 . S
C64 H54 0.929 . S
C64 C60 1.377 . S
C64 C63 1.394 . S
H65 C72 0.929 . S
H66 C75 0.930 . S
H67 C77 0.929 . S
H68 C69 0.969 . S
C69 H68 0.969 . S
C69 O70 1.550 . S
C69 H71 0.973 . S
O70 C69 1.550 . S
O70 C76 1.412 . S
H71 C69 0.973 . S
C72 H65 0.929 . S
C72 C73 1.400 . S
C72 C74 1.364 . S
C73 C72 1.400 . S
C73 C77 1.377 . S
C74 C72 1.364 . S
C74 C75 1.374 . S
C75 H66 0.930 . S
C75 C74 1.374 . S
C75 C76 1.383 . S
C76 O70 1.412 . S
C76 C75 1.383 . S
C76 C77 1.394 . S
C77 H67 0.929 . S
C77 C73 1.377 . S
C77 C76 1.394 . S
H78 C85 0.929 . S
H79 C88 0.930 . S
H80 C90 0.929 . S
H81 C82 0.969 . S
C82 H81 0.969 . S
C82 O83 1.550 . S
C82 H84 0.973 . S
O83 C82 1.550 . S
O83 C89 1.412 . S
H84 C82 0.973 . S
C85 H78 0.929 . S
C85 C86 1.400 . S
C85 C87 1.364 . S
C86 C85 1.400 . S
C86 C90 1.377 . S
C87 C85 1.364 . S
C87 C88 1.374 . S
C88 H79 0.930 . S
C88 C87 1.374 . S
C88 C89 1.383 . S
C89 O83 1.412 . S
C89 C88 1.383 . S
C89 C90 1.394 . S
C90 H80 0.929 . S
C90 C86 1.377 . S
C90 C89 1.394 . S
H91 C98 0.929 . S
H92 C101 0.930 . S
H93 C103 0.929 . S
H94 C95 0.969 . S
C95 H94 0.969 . S
C95 O96 1.550 . S
C95 H97 0.973 . S
O96 C95 1.550 . S
O96 C102 1.412 . S
H97 C95 0.973 . S
C98 H91 0.929 . S
C98 C99 1.400 . S
C98 C100 1.364 . S
C99 C98 1.400 . S
C99 C103 1.377 . S
C100 C98 1.364 . S
C100 C101 1.374 . S
C101 H92 0.930 . S
C101 C100 1.374 . S
C101 C102 1.383 . S
C102 O96 1.412 . S
C102 C101 1.383 . S
C102 C103 1.394 . S
C103 H93 0.929 . S
C103 C99 1.377 . S
C103 C102 1.394 . S
Co104 N109 2.057 . S
Co104 O121 2.021 . S
Co104 O124 2.062 . S
Co104 O128 2.117 1_545 S
Co104 O129 2.020 . S
C105 O125 1.259 1_655 S
C105 O128 1.258 . S
Co106 N115 2.060 . S
Co106 O122 2.096 1_565 S
Co106 O123 2.013 1_565 S
Co106 O125 2.040 . S
Co106 O130 2.065 . S
C107 N109 1.316 . S
C107 N110 1.347 . S
C107 H112 0.931 . S
C108 N109 1.375 1_565 S
C108 C111 1.350 1_565 S
C108 H113 0.930 . S
N109 Co104 2.057 . S
N109 C107 1.316 . S
N109 C108 1.375 1_545 S
N110 C107 1.347 . S
N110 C111 1.373 . S
C111 C108 1.350 1_545 S
C111 N110 1.373 . S
C111 H132 0.931 1_545 S
H112 C107 0.931 . S
H113 C108 0.930 . S
C114 O121 1.259 1_455 S
C114 O122 1.258 . S
N115 Co106 2.060 . S
N115 C116 1.316 . S
N115 C117 1.375 1_565 S
C116 N115 1.316 . S
C116 N118 1.347 . S
C116 H127 0.931 . S
C117 N115 1.375 1_545 S
C117 C119 1.350 . S
C117 H126 0.930 . S
N118 C116 1.347 . S
N118 C119 1.373 1_565 S
C119 C117 1.350 . S
C119 N118 1.373 1_545 S
C119 H133 0.931 . S
C120 O123 1.256 . S
C120 O124 1.255 1_455 S
O121 Co104 2.021 . S
O121 C114 1.259 1_655 S
O122 Co106 2.096 1_545 S
O122 C114 1.258 . S
O123 Co106 2.013 1_545 S
O123 C120 1.256 . S
O124 Co104 2.062 . S
O124 C120 1.255 1_655 S
O125 C105 1.259 1_455 S
O125 Co106 2.040 . S
H126 C117 0.930 . S
H127 C116 0.931 . S
O128 Co104 2.117 1_565 S
O128 C105 1.258 . S
O129 Co104 2.020 . S
O129 C131 1.256 1_545 S
O130 Co106 2.065 . S
O130 C131 1.255 1_455 S
C131 O129 1.256 1_565 S
C131 O130 1.255 1_655 S
H132 C111 0.931 1_565 S
H133 C119 0.931 . S
Co134 N139 2.057 1_545 S
Co134 O151 2.021 . S
Co134 O154 2.062 1_545 S
Co134 O158 2.117 1_546 S
Co134 O159 2.020 . S
C135 O155 1.259 . S
C135 O158 1.258 . S
Co136 N145 2.057 . S
Co136 O152 2.117 . S
Co136 O153 2.023 . S
Co136 O155 2.021 1_545 S
Co136 O160 2.062 . S
C137 N139 1.316 . S
C137 N140 1.347 . S
C137 H142 0.931 1_565 S
C138 N139 1.375 . S
C138 C141 1.350 . S
C138 H143 0.930 . S
N139 Co134 2.057 1_565 S
N139 C137 1.316 . S
N139 C138 1.375 . S
N140 C137 1.347 . S
N140 C141 1.373 . S
C141 C138 1.350 . S
C141 N140 1.373 . S
C141 H162 0.931 . S
H142 C137 0.931 1_545 S
H143 C138 0.930 . S
C144 O151 1.259 . S
C144 O152 1.258 1_556 S
N145 Co136 2.057 . S
N145 C146 1.316 . S
N145 C147 1.375 . S
C146 N145 1.316 . S
C146 N148 1.347 . S
C146 H157 0.931 . S
C147 N145 1.375 . S
C147 C149 1.350 . S
C147 H156 0.930 . S
N148 C146 1.347 . S
N148 C149 1.373 . S
C149 C147 1.350 . S
C149 N148 1.373 . S
C149 H163 0.931 . S
C150 O153 1.253 1_566 S
C150 O154 1.255 . S
O151 Co134 2.021 . S
O151 C144 1.259 . S
O152 Co136 2.117 . S
O152 C144 1.258 1_554 S
O153 Co136 2.023 . S
O153 C150 1.253 1_544 S
O154 Co134 2.062 1_565 S
O154 C150 1.255 . S
O155 C135 1.259 . S
O155 Co136 2.021 1_565 S
H156 C147 0.930 . S
H157 C146 0.931 . S
O158 Co134 2.117 1_564 S
O158 C135 1.258 . S
O159 Co134 2.020 . S
O159 C161 1.256 1_556 S
O160 Co136 2.062 . S
O160 C161 1.255 . S
C161 O159 1.256 1_554 S
C161 O160 1.255 . S
H162 C141 0.931 . S
H163 C149 0.931 . S
Co164 N169 2.057 . S
Co164 O181 2.021 . S
Co164 O184 2.062 . S
Co164 O188 2.117 . S
Co164 O189 2.020 . S
C165 O185 1.259 . S
C165 O188 1.258 . S
Co166 N175 2.057 . S
Co166 O182 2.117 . S
Co166 O183 2.020 . S
Co166 O185 2.021 . S
Co166 O190 2.062 . S
C167 N169 1.316 . S
C167 N170 1.347 . S
C167 H172 0.931 . S
C168 N169 1.375 . S
C168 C171 1.350 . S
C168 H173 0.930 . S
N169 Co164 2.057 . S
N169 C167 1.316 . S
N169 C168 1.375 . S
N170 C167 1.347 . S
N170 C171 1.373 . S
C171 C168 1.350 . S
C171 N170 1.373 . S
C171 H192 0.931 . S
H172 C167 0.931 . S
H173 C168 0.930 . S
C174 O181 1.259 . S
C174 O182 1.258 . S
N175 Co166 2.057 . S
N175 C176 1.316 . S
N175 C177 1.375 . S
C176 N175 1.316 . S
C176 N178 1.347 . S
C176 H187 0.931 . S
C177 N175 1.375 . S
C177 C179 1.350 . S
C177 H186 0.930 . S
N178 C176 1.347 . S
N178 C179 1.373 . S
C179 C177 1.350 . S
C179 N178 1.373 . S
C179 H193 0.931 . S
C180 O183 1.256 . S
C180 O184 1.255 . S
O181 Co164 2.021 . S
O181 C174 1.259 . S
O182 Co166 2.117 . S
O182 C174 1.258 . S
O183 Co166 2.020 . S
O183 C180 1.256 . S
O184 Co164 2.062 . S
O184 C180 1.255 . S
O185 C165 1.259 . S
O185 Co166 2.021 . S
H186 C177 0.930 . S
H187 C176 0.931 . S
O188 Co164 2.117 . S
O188 C165 1.258 . S
O189 Co164 2.020 . S
O189 C191 1.256 . S
O190 Co166 2.062 . S
O190 C191 1.255 . S
C191 O189 1.256 . S
C191 O190 1.255 . S
H192 C171 0.931 . S
H193 C179 0.931 . S
Co194 N199 2.057 . S
Co194 O211 2.021 . S
Co194 O214 2.062 1_556 S
Co194 O218 2.117 1_455 S
Co194 O219 2.020 . S
C195 O215 1.259 . S
C195 O218 1.258 1_554 S
Co196 N205 2.057 . S
Co196 O212 2.117 . S
Co196 O213 2.020 . S
Co196 O215 2.021 1_455 S
Co196 O220 2.062 1_455 S
C197 N199 1.316 . S
C197 N200 1.347 . S
C197 H202 0.931 . S
C198 N199 1.375 . S
C198 C201 1.350 . S
C198 H203 0.930 1_455 S
N199 Co194 2.057 . S
N199 C197 1.316 . S
N199 C198 1.375 . S
N200 C197 1.347 . S
N200 C201 1.373 . S
C201 C198 1.350 . S
C201 N200 1.373 . S
C201 H222 0.931 . S
H202 C197 0.931 . S
H203 C198 0.930 1_655 S
C204 O211 1.259 1_554 S
C204 O212 1.258 . S
N205 Co196 2.057 . S
N205 C206 1.316 1_455 S
N205 C207 1.375 . S
C206 N205 1.316 1_655 S
C206 N208 1.347 . S
C206 H217 0.931 . S
C207 N205 1.375 . S
C207 C209 1.350 . S
C207 H216 0.930 . S
N208 C206 1.347 . S
N208 C209 1.373 1_655 S
C209 C207 1.350 . S
C209 N208 1.373 1_455 S
C209 H223 0.931 . S
C210 O213 1.256 . S
C210 O214 1.255 . S
O211 Co194 2.021 . S
O211 C204 1.259 1_556 S
O212 Co196 2.117 . S
O212 C204 1.258 . S
O213 Co196 2.020 . S
O213 C210 1.256 . S
O214 Co194 2.062 1_554 S
O214 C210 1.255 . S
O215 C195 1.259 . S
O215 Co196 2.021 1_655 S
H216 C207 0.930 . S
H217 C206 0.931 . S
O218 Co194 2.117 1_655 S
O218 C195 1.258 1_556 S
O219 Co194 2.020 . S
O219 C221 1.256 . S
O220 Co196 2.062 1_655 S
O220 C221 1.255 1_654 S
C221 O219 1.256 . S
C221 O220 1.255 1_456 S
H222 C201 0.931 . S
H223 C209 0.931 . S
C224 C225 1.369 . S
C224 C226 1.419 . S
C224 H228 0.930 . S
C225 C224 1.369 . S
C225 C234 1.429 . S
C226 C224 1.419 . S
C226 C227 1.363 . S
C226 H229 0.929 1_455 S
C227 C226 1.363 . S
C227 C233 1.428 . S
H228 C224 0.930 . S
H229 C226 0.929 1_655 S
S230 N231 1.613 . S
S230 N232 1.610 . S
N231 S230 1.613 . S
N231 C234 1.350 . S
N232 S230 1.610 . S
N232 C233 1.351 . S
C233 C227 1.428 . S
C233 N232 1.351 . S
C233 C234 1.434 . S
C234 C225 1.429 . S
C234 N231 1.350 . S
C234 C233 1.434 . S
C235 C236 1.369 . S
C235 C237 1.419 . S
C235 H239 0.930 . S
C236 C235 1.369 . S
C236 C245 1.429 . S
C237 C235 1.419 . S
C237 C238 1.363 . S
C237 H240 0.929 . S
C238 C237 1.363 . S
C238 C244 1.428 . S
H239 C235 0.930 . S
H240 C237 0.929 . S
S241 N242 1.613 . S
S241 N243 1.610 . S
N242 S241 1.613 . S
N242 C245 1.350 1_545 S
N243 S241 1.610 . S
N243 C244 1.351 1_545 S
C244 C238 1.428 . S
C244 N243 1.351 1_565 S
C244 C245 1.434 . S
C245 C236 1.429 . S
C245 N242 1.350 1_565 S
C245 C244 1.434 . S
C246 C247 1.369 . S
C246 C248 1.419 . S
C246 H250 0.930 . S
C247 C246 1.369 . S
C247 C256 1.429 . S
C248 C246 1.419 . S
C248 C249 1.363 . S
C248 H251 0.929 . S
C249 C248 1.363 . S
C249 C255 1.428 . S
H250 C246 0.930 . S
H251 C248 0.929 . S
S252 N253 1.613 . S
S252 N254 1.610 . S
N253 S252 1.613 . S
N253 C256 1.350 . S
N254 S252 1.610 . S
N254 C255 1.351 . S
C255 C249 1.428 . S
C255 N254 1.351 . S
C255 C256 1.434 . S
C256 C247 1.429 . S
C256 N253 1.350 . S
C256 C255 1.434 . S
C257 C258 1.369 . S
C257 C259 1.419 . S
C257 H261 0.930 . S
C258 C257 1.369 . S
C258 C267 1.429 . S
C259 C257 1.419 . S
C259 C260 1.363 . S
C259 H262 0.929 . S
C260 C259 1.363 . S
C260 C266 1.428 . S
H261 C257 0.930 . S
H262 C259 0.929 . S
S263 N264 1.613 . S
S263 N265 1.610 . S
N264 S263 1.613 . S
N264 C267 1.350 . S
N265 S263 1.610 . S
N265 C266 1.351 . S
C266 C260 1.428 . S
C266 N265 1.351 . S
C266 C267 1.434 . S
C267 C258 1.429 . S
C267 N264 1.350 . S
C267 C266 1.434 . S
C268 C269 1.369 . S
C268 C270 1.419 . S
C268 H272 0.930 . S
C269 C268 1.369 . S
C269 C278 1.429 . S
C270 C268 1.419 . S
C270 C271 1.363 . S
C270 H273 0.929 . S
C271 C270 1.363 . S
C271 C277 1.428 . S
H272 C268 0.930 . S
H273 C270 0.929 . S
S274 N275 1.613 1_566 S
S274 N276 1.610 . S
N275 S274 1.613 1_544 S
N275 C278 1.350 . S
N276 S274 1.610 . S
N276 C277 1.351 1_566 S
C277 C271 1.428 . S
C277 N276 1.351 1_544 S
C277 C278 1.434 . S
C278 C269 1.429 . S
C278 N275 1.350 . S
C278 C277 1.434 . S
C279 C280 1.369 . S
C279 C281 1.419 . S
C279 H283 0.930 . S
C280 C279 1.369 . S
C280 C289 1.429 . S
C281 C279 1.419 . S
C281 C282 1.363 . S
C281 H284 0.929 . S
C282 C281 1.363 . S
C282 C288 1.428 . S
H283 C279 0.930 . S
H284 C281 0.929 . S
S285 N286 1.613 . S
S285 N287 1.610 . S
N286 S285 1.613 . S
N286 C289 1.350 . S
N287 S285 1.610 . S
N287 C288 1.351 . S
C288 C282 1.428 . S
C288 N287 1.351 . S
C288 C289 1.434 . S
C289 C280 1.429 . S
C289 N286 1.350 . S
C289 C288 1.434 . S
C290 C291 1.369 . S
C290 C292 1.419 1_556 S
C290 H294 0.930 1_556 S
C291 C290 1.369 . S
C291 C300 1.429 . S
C292 C290 1.419 1_554 S
C292 C293 1.363 1_554 S
C292 H295 0.929 . S
C293 C292 1.363 1_556 S
C293 C299 1.428 . S
H294 C290 0.930 1_554 S
H295 C292 0.929 . S
S296 N297 1.613 . S
S296 N298 1.610 . S
N297 S296 1.613 . S
N297 C300 1.350 . S
N298 S296 1.610 . S
N298 C299 1.351 . S
C299 C293 1.428 . S
C299 N298 1.351 . S
C299 C300 1.434 . S
C300 C291 1.429 . S
C300 N297 1.350 . S
C300 C299 1.434 . S
C301 C302 1.369 . S
C301 C303 1.419 . S
C301 H305 0.930 . S
C302 C301 1.369 . S
C302 C311 1.429 . S
C303 C301 1.419 . S
C303 C304 1.363 . S
C303 H306 0.929 . S
C304 C303 1.363 . S
C304 C310 1.428 . S
H305 C301 0.930 . S
H306 C303 0.929 . S
S307 N308 1.613 . S
S307 N309 1.610 . S
N308 S307 1.613 . S
N308 C311 1.350 . S
N309 S307 1.610 . S
N309 C310 1.351 . S
C310 C304 1.428 . S
C310 N309 1.351 . S
C310 C311 1.434 . S
C311 C302 1.429 . S
C311 N308 1.350 . S
C311 C310 1.434 . S
C312 C313 1.369 . S
C312 C314 1.419 . S
C312 H316 0.930 . S
C313 C312 1.369 . S
C313 C322 1.429 . S
C314 C312 1.419 . S
C314 C315 1.363 . S
C314 H317 0.929 . S
C315 C314 1.363 . S
C315 C321 1.428 . S
H316 C312 0.930 . S
H317 C314 0.929 . S
S318 N319 1.613 . S
S318 N320 1.610 . S
N319 S318 1.613 . S
N319 C322 1.350 . S
N320 S318 1.610 . S
N320 C321 1.351 . S
C321 C315 1.428 . S
C321 N320 1.351 . S
C321 C322 1.434 . S
C322 C313 1.429 . S
C322 N319 1.350 . S
C322 C321 1.434 . S
C323 C324 1.369 . S
C323 C325 1.419 . S
C323 H327 0.930 . S
C324 C323 1.369 . S
C324 C333 1.429 . S
C325 C323 1.419 . S
C325 C326 1.363 . S
C325 H328 0.929 1_556 S
C326 C325 1.363 . S
C326 C332 1.428 . S
H327 C323 0.930 . S
H328 C325 0.929 1_554 S
S329 N330 1.613 . S
S329 N331 1.610 . S
N330 S329 1.613 . S
N330 C333 1.350 . S
N331 S329 1.610 . S
N331 C332 1.351 . S
C332 C326 1.428 . S
C332 N331 1.351 . S
C332 C333 1.434 . S
C333 C324 1.429 . S
C333 N330 1.350 . S
C333 C332 1.434 . S
C334 C335 1.369 . S
C334 C336 1.419 . S
C334 H338 0.930 . S
C335 C334 1.369 . S
C335 C344 1.429 1_655 S
C336 C334 1.419 . S
C336 C337 1.363 . S
C336 H339 0.929 . S
C337 C336 1.363 . S
C337 C343 1.428 1_655 S
H338 C334 0.930 . S
H339 C336 0.929 . S
S340 N341 1.613 . S
S340 N342 1.610 . S
N341 S340 1.613 . S
N341 C344 1.350 . S
N342 S340 1.610 . S
N342 C343 1.351 . S
C343 C337 1.428 1_455 S
C343 N342 1.351 . S
C343 C344 1.434 . S
C344 C335 1.429 1_455 S
C344 N341 1.350 . S
C344 C343 1.434 . S
C345 C346 1.369 . S
C345 C347 1.419 . S
C345 H349 0.930 . S
C346 C345 1.369 . S
C346 C355 1.429 . S
C347 C345 1.419 . S
C347 C348 1.363 . S
C347 H350 0.929 . S
C348 C347 1.363 . S
C348 C354 1.428 . S
H349 C345 0.930 . S
H350 C347 0.929 . S
S351 N352 1.613 . S
S351 N353 1.610 . S
N352 S351 1.613 . S
N352 C355 1.350 . S
N353 S351 1.610 . S
N353 C354 1.351 . S
C354 C348 1.428 . S
C354 N353 1.351 . S
C354 C355 1.434 . S
C355 C346 1.429 . S
C355 N352 1.350 . S
C355 C354 1.434 . S
C356 C357 1.369 . S
C356 C358 1.419 1_565 S
C356 H360 0.930 1_565 S
C357 C356 1.369 . S
C357 C366 1.429 . S
C358 C356 1.419 1_545 S
C358 C359 1.363 1_545 S
C358 H361 0.929 . S
C359 C358 1.363 1_565 S
C359 C365 1.428 . S
H360 C356 0.930 1_545 S
H361 C358 0.929 . S
S362 N363 1.613 . S
S362 N364 1.610 . S
N363 S362 1.613 . S
N363 C366 1.350 . S
N364 S362 1.610 . S
N364 C365 1.351 . S
C365 C359 1.428 . S
C365 N364 1.351 . S
C365 C366 1.434 . S
C366 C357 1.429 . S
C366 N363 1.350 . S
C366 C365 1.434 . S
C367 C368 1.369 . S
C367 C369 1.419 . S
C367 H371 0.930 . S
C368 C367 1.369 . S
C368 C377 1.429 . S
C369 C367 1.419 . S
C369 C370 1.363 . S
C369 H372 0.929 . S
C370 C369 1.363 . S
C370 C376 1.428 . S
H371 C367 0.930 . S
H372 C369 0.929 . S
S373 N374 1.613 . S
S373 N375 1.610 . S
N374 S373 1.613 . S
N374 C377 1.350 . S
N375 S373 1.610 . S
N375 C376 1.351 . S
C376 C370 1.428 . S
C376 N375 1.351 . S
C376 C377 1.434 . S
C377 C368 1.429 . S
C377 N374 1.350 . S
C377 C376 1.434 . S
C378 C379 1.369 . S
C378 C380 1.419 . S
C378 H382 0.930 . S
C379 C378 1.369 . S
C379 C388 1.429 . S
C380 C378 1.419 . S
C380 C381 1.363 . S
C380 H383 0.929 . S
C381 C380 1.363 . S
C381 C387 1.428 . S
H382 C378 0.930 . S
H383 C380 0.929 . S
S384 N385 1.613 . S
S384 N386 1.610 . S
N385 S384 1.613 . S
N385 C388 1.350 . S
N386 S384 1.610 . S
N386 C387 1.351 . S
C387 C381 1.428 . S
C387 N386 1.351 . S
C387 C388 1.434 . S
C388 C379 1.429 . S
C388 N385 1.350 . S
C388 C387 1.434 . S
C389 C390 1.369 . S
C389 C391 1.419 . S
C389 H393 0.930 . S
C390 C389 1.369 . S
C390 C399 1.429 . S
C391 C389 1.419 . S
C391 C392 1.363 . S
C391 H394 0.929 . S
C392 C391 1.363 . S
C392 C398 1.428 . S
H393 C389 0.930 . S
H394 C391 0.929 . S
S395 N396 1.613 . S
S395 N397 1.620 . S
N396 S395 1.613 . S
N396 C399 1.350 1_655 S
N397 S395 1.620 . S
N397 C398 1.339 1_655 S
C398 C392 1.428 . S
C398 N397 1.339 1_455 S
C398 C399 1.434 . S
C399 C390 1.429 . S
C399 N396 1.350 1_455 S
C399 C398 1.434 . S
C400 C401 1.369 . S
C400 C402 1.419 . S
C400 H404 0.930 . S
C401 C400 1.369 . S
C401 C410 1.429 . S
C402 C400 1.419 . S
C402 C403 1.363 . S
C402 H405 0.929 . S
C403 C402 1.363 . S
C403 C409 1.428 . S
H404 C400 0.930 . S
H405 C402 0.929 . S
S406 N407 1.613 1_545 S
S406 N408 1.610 . S
N407 S406 1.613 1_565 S
N407 C410 1.350 1_554 S
N408 S406 1.610 . S
N408 C409 1.351 1_544 S
C409 C403 1.428 . S
C409 N408 1.351 1_566 S
C409 C410 1.434 . S
C410 C401 1.429 . S
C410 N407 1.350 1_556 S
C410 C409 1.434 . S
C411 C412 1.369 . S
C411 C413 1.419 . S
C411 H415 0.930 . S
C412 C411 1.369 . S
C412 C421 1.429 . S
C413 C411 1.419 . S
C413 C414 1.363 . S
C413 H416 0.929 . S
C414 C413 1.363 . S
C414 C420 1.428 . S
H415 C411 0.930 . S
H416 C413 0.929 . S
S417 N418 1.613 . S
S417 N419 1.610 . S
N418 S417 1.613 . S
N418 C421 1.350 . S
N419 S417 1.610 . S
N419 C420 1.351 . S
C420 C414 1.428 . S
C420 N419 1.351 . S
C420 C421 1.434 . S
C421 C412 1.429 . S
C421 N418 1.350 . S
C421 C420 1.434 . S
C422 C423 1.369 . S
C422 C424 1.419 . S
C422 H426 0.930 . S
C423 C422 1.369 . S
C423 C432 1.429 . S
C424 C422 1.419 . S
C424 C425 1.363 . S
C424 H427 0.929 . S
C425 C424 1.363 . S
C425 C431 1.428 . S
H426 C422 0.930 . S
H427 C424 0.929 . S
S428 N429 1.613 1_556 S
S428 N430 1.610 1_556 S
N429 S428 1.613 1_554 S
N429 C432 1.350 . S
N430 S428 1.610 1_554 S
N430 C431 1.351 . S
C431 C425 1.428 . S
C431 N430 1.351 . S
C431 C432 1.434 . S
C432 C423 1.429 . S
C432 N429 1.350 . S
C432 C431 1.434 . S
C433 C434 1.369 . S
C433 C435 1.419 . S
C433 H437 0.930 . S
C434 C433 1.369 . S
C434 C443 1.429 . S
C435 C433 1.419 . S
C435 C436 1.363 . S
C435 H438 0.929 . S
C436 C435 1.363 . S
C436 C442 1.428 . S
H437 C433 0.930 . S
H438 C435 0.929 . S
S439 N440 1.613 . S
S439 N441 1.610 . S
N440 S439 1.613 . S
N440 C443 1.350 . S
N441 S439 1.610 . S
N441 C442 1.351 . S
C442 C436 1.428 . S
C442 N441 1.351 . S
C442 C443 1.434 . S
C443 C434 1.429 . S
C443 N440 1.350 . S
C443 C442 1.434 . S
C444 C445 1.369 1_554 S
C444 C446 1.419 . S
C444 H448 0.930 . S
C445 C444 1.369 1_556 S
C445 C454 1.429 . S
C446 C444 1.419 . S
C446 C447 1.363 1_554 S
C446 H449 0.929 . S
C447 C446 1.363 1_556 S
C447 C453 1.428 . S
H448 C444 0.930 . S
H449 C446 0.929 . S
S450 N451 1.613 . S
S450 N452 1.610 . S
N451 S450 1.613 . S
N451 C454 1.350 . S
N452 S450 1.610 . S
N452 C453 1.351 . S
C453 C447 1.428 . S
C453 N452 1.351 . S
C453 C454 1.434 . S
C454 C445 1.429 . S
C454 N451 1.350 . S
C454 C453 1.434 . S
C455 C456 1.369 . S
C455 C457 1.419 . S
C455 H459 0.930 . S
C456 C455 1.369 . S
C456 C465 1.429 . S
C457 C455 1.419 . S
C457 C458 1.363 . S
C457 H460 0.929 . S
C458 C457 1.363 . S
C458 C464 1.428 . S
H459 C455 0.930 . S
H460 C457 0.929 . S
S461 N462 1.613 . S
S461 N463 1.610 . S
N462 S461 1.613 . S
N462 C465 1.350 . S
N463 S461 1.610 . S
N463 C464 1.351 . S
C464 C458 1.428 . S
C464 N463 1.351 . S
C464 C465 1.434 . S
C465 C456 1.429 . S
C465 N462 1.350 . S
C465 C464 1.434 . S
C466 C467 1.369 . S
C466 C468 1.419 . S
C466 H470 0.930 . S
C467 C466 1.369 . S
C467 C476 1.429 . S
C468 C466 1.419 . S
C468 C469 1.363 . S
C468 H471 0.929 . S
C469 C468 1.363 . S
C469 C475 1.428 . S
H470 C466 0.930 . S
H471 C468 0.929 . S
S472 N473 1.613 . S
S472 N474 1.610 . S
N473 S472 1.613 . S
N473 C476 1.350 . S
N474 S472 1.610 . S
N474 C475 1.351 . S
C475 C469 1.428 . S
C475 N474 1.351 . S
C475 C476 1.434 . S
C476 C467 1.429 . S
C476 N473 1.350 . S
C476 C475 1.434 . S
C477 C478 1.369 . S
C477 C479 1.419 . S
C477 H481 0.930 . S
C478 C477 1.369 . S
C478 C487 1.429 . S
C479 C477 1.419 . S
C479 C480 1.363 . S
C479 H482 0.929 . S
C480 C479 1.363 . S
C480 C486 1.428 . S
H481 C477 0.930 . S
H482 C479 0.929 . S
S483 N484 1.613 . S
S483 N485 1.610 . S
N484 S483 1.613 . S
N484 C487 1.350 . S
N485 S483 1.610 . S
N485 C486 1.351 . S
C486 C480 1.428 . S
C486 N485 1.351 . S
C486 C487 1.434 . S
C487 C478 1.429 . S
C487 N484 1.350 . S
C487 C486 1.434 . S
C225 C9 2.431 . S
C227 C120 2.449 . S
C236 C21 1.115 . S
C238 N140 1.102 . S
C249 C174 1.756 . S
C247 C30 1.732 . S
C258 C43 1.067 . S
C260 N208 1.125 . S
C271 C161 2.193 . S
C269 C4 2.186 . S
C282 N118 1.481 . S
C280 C22 1.512 . S
C293 C195 1.759 1_556 S
C291 C34 1.750 . S
C304 N170 1.011 . S
C302 C48 0.986 . S
C313 C8 1.835 . S
C315 C210 1.846 . S
C326 C144 1.790 . S
C324 C35 1.777 . S
C335 C47 1.448 . S
C337 C105 1.462 . S
C346 C17 1.263 . S
C348 C191 1.263 . S
C359 C131 2.163 . S
C357 C60 2.132 . S
C368 C74 1.323 . S
C370 N148 1.319 . S
C379 C82 1.606 . S
C381 C165 1.596 . S
C390 C100 1.538 . S
C392 N200 1.433 . S
C401 C61 2.514 . S
C403 C150 2.530 . S
C414 N110 1.149 . S
C412 C73 1.180 . S
C425 C204 2.080 . S
C423 C87 2.075 . S
C436 N178 0.815 . S
C434 C95 0.794 . S
C445 C56 1.794 . S
C447 C221 1.865 1_655 S
C458 C135 1.821 . S
C456 C86 1.780 . S
C469 C114 1.459 . S
C467 C99 1.424 . S
C478 C69 1.348 . S
C480 C180 1.358 . S
