# Generated by pormake.
# Topology eea, (3,6)-cn, num edge types: 1
# Building blocks:
#     Node 0, Type 0, BuildingBlock: CUQRIR_clean_linker_1, # of connection points: 3
#     Node 1, Type 0, BuildingBlock: CUQRIR_clean_linker_1, # of connection points: 3
#     Node 2, Type 0, BuildingBlock: CUQRIR_clean_linker_1, # of connection points: 3
#     Node 3, Type 0, BuildingBlock: CUQRIR_clean_linker_1, # of connection points: 3
#     Node 4, Type 0, BuildingBlock: CUQRIR_clean_linker_1, # of connection points: 3
#     Node 5, Type 0, BuildingBlock: CUQRIR_clean_linker_1, # of connection points: 3
#     Node 6, Type 0, BuildingBlock: CUQRIR_clean_linker_1, # of connection points: 3
#     Node 7, Type 0, BuildingBlock: CUQRIR_clean_linker_1, # of connection points: 3
#     Node 8, Type 0, BuildingBlock: CUQRIR_clean_linker_1, # of connection points: 3
#     Node 9, Type 0, BuildingBlock: CUQRIR_clean_linker_1, # of connection points: 3
#     Node 10, Type 0, BuildingBlock: CUQRIR_clean_linker_1, # of connection points: 3
#     Node 11, Type 0, BuildingBlock: CUQRIR_clean_linker_1, # of connection points: 3
#     Node 12, Type 0, BuildingBlock: CUQRIR_clean_linker_1, # of connection points: 3
#     Node 13, Type 0, BuildingBlock: CUQRIR_clean_linker_1, # of connection points: 3
#     Node 14, Type 0, BuildingBlock: CUQRIR_clean_linker_1, # of connection points: 3
#     Node 15, Type 0, BuildingBlock: CUQRIR_clean_linker_1, # of connection points: 3
#     Node 16, Type 0, BuildingBlock: CUQRIR_clean_linker_1, # of connection points: 3
#     Node 17, Type 0, BuildingBlock: CUQRIR_clean_linker_1, # of connection points: 3
#     Node 18, Type 1, BuildingBlock: CUWYAW_clean_sbu_0, # of connection points: 6
#     Node 19, Type 1, BuildingBlock: CUWYAW_clean_sbu_0, # of connection points: 6
#     Node 20, Type 1, BuildingBlock: CUWYAW_clean_sbu_0, # of connection points: 6
#     Node 21, Type 1, BuildingBlock: CUWYAW_clean_sbu_0, # of connection points: 6
#     Node 22, Type 1, BuildingBlock: CUWYAW_clean_sbu_0, # of connection points: 6
#     Node 23, Type 1, BuildingBlock: CUWYAW_clean_sbu_0, # of connection points: 6
#     Node 24, Type 1, BuildingBlock: CUWYAW_clean_sbu_0, # of connection points: 6
#     Node 25, Type 1, BuildingBlock: CUWYAW_clean_sbu_0, # of connection points: 6
#     Node 26, Type 1, BuildingBlock: CUWYAW_clean_sbu_0, # of connection points: 6
#     Edge 27, Type (0, 1), BuildingBlock: XUDNAN_clean_linker_2, # of connection points: 2
#     Edge 28, Type (0, 1), BuildingBlock: XUDNAN_clean_linker_2, # of connection points: 2
#     Edge 29, Type (0, 1), BuildingBlock: XUDNAN_clean_linker_2, # of connection points: 2
#     Edge 30, Type (0, 1), BuildingBlock: XUDNAN_clean_linker_2, # of connection points: 2
#     Edge 31, Type (0, 1), BuildingBlock: XUDNAN_clean_linker_2, # of connection points: 2
#     Edge 32, Type (0, 1), BuildingBlock: XUDNAN_clean_linker_2, # of connection points: 2
#     Edge 33, Type (0, 1), BuildingBlock: XUDNAN_clean_linker_2, # of connection points: 2
#     Edge 34, Type (0, 1), BuildingBlock: XUDNAN_clean_linker_2, # of connection points: 2
#     Edge 35, Type (0, 1), BuildingBlock: XUDNAN_clean_linker_2, # of connection points: 2
#     Edge 36, Type (0, 1), BuildingBlock: XUDNAN_clean_linker_2, # of connection points: 2
#     Edge 37, Type (0, 1), BuildingBlock: XUDNAN_clean_linker_2, # of connection points: 2
#     Edge 38, Type (0, 1), BuildingBlock: XUDNAN_clean_linker_2, # of connection points: 2
#     Edge 39, Type (0, 1), BuildingBlock: XUDNAN_clean_linker_2, # of connection points: 2
#     Edge 40, Type (0, 1), BuildingBlock: XUDNAN_clean_linker_2, # of connection points: 2
#     Edge 41, Type (0, 1), BuildingBlock: XUDNAN_clean_linker_2, # of connection points: 2
#     Edge 42, Type (0, 1), BuildingBlock: XUDNAN_clean_linker_2, # of connection points: 2
#     Edge 43, Type (0, 1), BuildingBlock: XUDNAN_clean_linker_2, # of connection points: 2
#     Edge 44, Type (0, 1), BuildingBlock: XUDNAN_clean_linker_2, # of connection points: 2
#     Edge 45, Type (0, 1), BuildingBlock: XUDNAN_clean_linker_2, # of connection points: 2
#     Edge 46, Type (0, 1), BuildingBlock: XUDNAN_clean_linker_2, # of connection points: 2
#     Edge 47, Type (0, 1), BuildingBlock: XUDNAN_clean_linker_2, # of connection points: 2
#     Edge 48, Type (0, 1), BuildingBlock: XUDNAN_clean_linker_2, # of connection points: 2
#     Edge 49, Type (0, 1), BuildingBlock: XUDNAN_clean_linker_2, # of connection points: 2
#     Edge 50, Type (0, 1), BuildingBlock: XUDNAN_clean_linker_2, # of connection points: 2
#     Edge 51, Type (0, 1), BuildingBlock: XUDNAN_clean_linker_2, # of connection points: 2
#     Edge 52, Type (0, 1), BuildingBlock: XUDNAN_clean_linker_2, # of connection points: 2
#     Edge 53, Type (0, 1), BuildingBlock: XUDNAN_clean_linker_2, # of connection points: 2
#     Edge 54, Type (0, 1), BuildingBlock: XUDNAN_clean_linker_2, # of connection points: 2
#     Edge 55, Type (0, 1), BuildingBlock: XUDNAN_clean_linker_2, # of connection points: 2
#     Edge 56, Type (0, 1), BuildingBlock: XUDNAN_clean_linker_2, # of connection points: 2
#     Edge 57, Type (0, 1), BuildingBlock: XUDNAN_clean_linker_2, # of connection points: 2
#     Edge 58, Type (0, 1), BuildingBlock: XUDNAN_clean_linker_2, # of connection points: 2
#     Edge 59, Type (0, 1), BuildingBlock: XUDNAN_clean_linker_2, # of connection points: 2
#     Edge 60, Type (0, 1), BuildingBlock: XUDNAN_clean_linker_2, # of connection points: 2
#     Edge 61, Type (0, 1), BuildingBlock: XUDNAN_clean_linker_2, # of connection points: 2
#     Edge 62, Type (0, 1), BuildingBlock: XUDNAN_clean_linker_2, # of connection points: 2
#     Edge 63, Type (0, 1), BuildingBlock: XUDNAN_clean_linker_2, # of connection points: 2
#     Edge 64, Type (0, 1), BuildingBlock: XUDNAN_clean_linker_2, # of connection points: 2
#     Edge 65, Type (0, 1), BuildingBlock: XUDNAN_clean_linker_2, # of connection points: 2
#     Edge 66, Type (0, 1), BuildingBlock: XUDNAN_clean_linker_2, # of connection points: 2
#     Edge 67, Type (0, 1), BuildingBlock: XUDNAN_clean_linker_2, # of connection points: 2
#     Edge 68, Type (0, 1), BuildingBlock: XUDNAN_clean_linker_2, # of connection points: 2
#     Edge 69, Type (0, 1), BuildingBlock: XUDNAN_clean_linker_2, # of connection points: 2
#     Edge 70, Type (0, 1), BuildingBlock: XUDNAN_clean_linker_2, # of connection points: 2
#     Edge 71, Type (0, 1), BuildingBlock: XUDNAN_clean_linker_2, # of connection points: 2
#     Edge 72, Type (0, 1), BuildingBlock: XUDNAN_clean_linker_2, # of connection points: 2
#     Edge 73, Type (0, 1), BuildingBlock: XUDNAN_clean_linker_2, # of connection points: 2
#     Edge 74, Type (0, 1), BuildingBlock: XUDNAN_clean_linker_2, # of connection points: 2
#     Edge 75, Type (0, 1), BuildingBlock: XUDNAN_clean_linker_2, # of connection points: 2
#     Edge 76, Type (0, 1), BuildingBlock: XUDNAN_clean_linker_2, # of connection points: 2
#     Edge 77, Type (0, 1), BuildingBlock: XUDNAN_clean_linker_2, # of connection points: 2
#     Edge 78, Type (0, 1), BuildingBlock: XUDNAN_clean_linker_2, # of connection points: 2
#     Edge 79, Type (0, 1), BuildingBlock: XUDNAN_clean_linker_2, # of connection points: 2
#     Edge 80, Type (0, 1), BuildingBlock: XUDNAN_clean_linker_2, # of connection points: 2
# Relax obj value: 0.105
# Max RMSD: 0.248
# Mean RMSD: 0.180
data_MOF--net-eea--node1-CUWYAW_clean_sbu_0--node2-CUQRIR_clean_linker_1--edge1-XUDNAN_clean_linker_2
_symmetry_space_group_name_H-M    P1
_symmetry_Int_Tables_number       1
_symmetry_cell_setting            triclinic
loop_
_symmetry_equiv_pos_as_xyz
'x, y, z'
_cell_length_a     48.938084
_cell_length_b     49.408494
_cell_length_c     65.846472
_cell_angle_alpha  87.145143
_cell_angle_beta   93.321971
_cell_angle_gamma 119.28809
loop_
_atom_site_label
_atom_site_type_symbol
_atom_site_fract_x
_atom_site_fract_y
_atom_site_fract_z
_atom_type_partial_charge
C0 C 0.21035 0.11924 0.40222 0.0
N1 N 0.2206 0.14257 0.41564 0.0
N2 N 0.21786 0.09729 0.4091 0.0
C3 C 0.19017 0.11612 0.38336 0.0
C4 C 0.23261 0.10778 0.42738 0.0
N5 N 0.23393 0.13504 0.4315 0.0
C6 C 0.24847 0.093 0.44024 0.0
H7 H 0.17605 0.12781 0.38511 0.0
H8 H 0.17416 0.0913 0.38007 0.0
H9 H 0.20529 0.12697 0.37016 0.0
H10 H 0.2567 0.08077 0.43066 0.0
H11 H 0.23142 0.07578 0.45095 0.0
H12 H 0.26879 0.11056 0.44923 0.0
C13 C 0.91743 0.11744 0.41197 0.0
N14 N 0.93216 0.14072 0.42542 0.0
N15 N 0.89326 0.09229 0.42058 0.0
C16 C 0.92447 0.12035 0.3898 0.0
C17 C 0.89385 0.10117 0.43984 0.0
N18 N 0.91754 0.13055 0.44288 0.0
C19 C 0.86898 0.08241 0.45495 0.0
H20 H 0.91006 0.12907 0.38117 0.0
H21 H 0.91844 0.09744 0.38377 0.0
H22 H 0.94959 0.13695 0.38739 0.0
H23 H 0.87981 0.07681 0.46859 0.0
H24 H 0.85034 0.06022 0.44865 0.0
H25 H 0.85834 0.09622 0.45989 0.0
C26 C 0.87879 0.76267 0.40948 0.0
N27 N 0.90084 0.76175 0.42239 0.0
N28 N 0.85126 0.75138 0.41876 0.0
C29 C 0.8851 0.77789 0.38866 0.0
C30 C 0.85731 0.74369 0.43781 0.0
N31 N 0.88746 0.74979 0.44002 0.0
C32 C 0.83452 0.73253 0.45473 0.0
H33 H 0.89472 0.80324 0.39021 0.0
H34 H 0.86329 0.76881 0.37896 0.0
H35 H 0.90272 0.77421 0.38117 0.0
H36 H 0.81305 0.734 0.45038 0.0
H37 H 0.84595 0.74631 0.46853 0.0
H38 H 0.82755 0.70797 0.45864 0.0
C39 C 0.13344 0.28525 0.64842 0.0
N40 N 0.15854 0.29729 0.63649 0.0
N41 N 0.11281 0.29482 0.64169 0.0
C42 C 0.12641 0.25971 0.66413 0.0
C43 C 0.12655 0.31334 0.62537 0.0
N44 N 0.15406 0.31447 0.62194 0.0
C45 C 0.11149 0.32816 0.61179 0.0
H46 H 0.12409 0.23901 0.65664 0.0
H47 H 0.10458 0.25323 0.67206 0.0
H48 H 0.14613 0.26723 0.67557 0.0
H49 H 0.09735 0.33473 0.62091 0.0
H50 H 0.09546 0.31128 0.60037 0.0
H51 H 0.12948 0.34899 0.60369 0.0
C52 C 0.81039 0.91374 0.63735 0.0
N53 N 0.80709 0.89318 0.6232 0.0
N54 N 0.80542 0.93653 0.62874 0.0
C55 C 0.81784 0.91123 0.65961 0.0
C56 C 0.79918 0.92922 0.60883 0.0
N57 N 0.80066 0.90313 0.60537 0.0
C58 C 0.79042 0.94686 0.59285 0.0
H59 H 0.82726 0.9338 0.66715 0.0
H60 H 0.83504 0.90271 0.66172 0.0
H61 H 0.79605 0.89424 0.66713 0.0
H62 H 0.78652 0.96487 0.59937 0.0
H63 H 0.76898 0.93054 0.58408 0.0
H64 H 0.80965 0.95864 0.58206 0.0
C65 C 0.11722 0.92908 0.63825 0.0
N66 N 0.09841 0.90544 0.62571 0.0
N67 N 0.13845 0.95396 0.6275 0.0
C68 C 0.1163 0.92728 0.66108 0.0
C69 C 0.13179 0.9446 0.608 0.0
N70 N 0.10743 0.91534 0.60686 0.0
C71 C 0.15033 0.9634 0.59012 0.0
H72 H 0.1231 0.95027 0.66728 0.0
H73 H 0.13332 0.92001 0.66734 0.0
H74 H 0.09257 0.91017 0.66616 0.0
H75 H 0.16868 0.9571 0.58745 0.0
H76 H 0.16187 0.98861 0.59305 0.0
H77 H 0.13493 0.95822 0.57617 0.0
C78 C 0.86596 0.44025 0.73651 0.0
N79 N 0.87668 0.4645 0.74935 0.0
N80 N 0.87022 0.41697 0.7451 0.0
C81 C 0.84797 0.4375 0.71669 0.0
C82 C 0.88377 0.42775 0.76356 0.0
N83 N 0.88764 0.45639 0.76621 0.0
C84 C 0.89258 0.40997 0.77935 0.0
H85 H 0.83053 0.41292 0.71375 0.0
H86 H 0.86455 0.44618 0.70411 0.0
H87 H 0.83565 0.4513 0.71669 0.0
H88 H 0.89684 0.39258 0.77219 0.0
H89 H 0.87313 0.39773 0.78995 0.0
H90 H 0.91388 0.42597 0.78835 0.0
C91 C 0.57988 0.46237 0.75127 0.0
N92 N 0.59478 0.48744 0.76347 0.0
N93 N 0.55135 0.44166 0.7584 0.0
C94 C 0.59456 0.45633 0.73381 0.0
C95 C 0.54948 0.45499 0.77537 0.0
N96 N 0.5759 0.48232 0.77871 0.0
C97 C 0.52096 0.44231 0.78812 0.0
H98 H 0.58539 0.43108 0.73214 0.0
H99 H 0.62044 0.46785 0.73601 0.0
H100 H 0.58875 0.46564 0.71952 0.0
H101 H 0.52343 0.42829 0.80105 0.0
H102 H 0.49928 0.42743 0.77904 0.0
H103 H 0.51869 0.46147 0.79448 0.0
C104 C 0.55563 0.10839 0.74429 0.0
N105 N 0.56984 0.09452 0.75515 0.0
N106 N 0.53233 0.10748 0.75487 0.0
C107 C 0.56552 0.12437 0.72385 0.0
C108 C 0.53284 0.0925 0.77256 0.0
N109 N 0.55564 0.08448 0.77268 0.0
C110 C 0.51184 0.08651 0.79002 0.0
H111 H 0.56382 0.14599 0.72295 0.0
H112 H 0.54941 0.10876 0.71189 0.0
H113 H 0.58979 0.13001 0.7207 0.0
H114 H 0.49571 0.09612 0.78705 0.0
H115 H 0.52638 0.09653 0.80407 0.0
H116 H 0.49736 0.06116 0.79277 0.0
C117 C 0.78708 0.58674 0.97611 0.0
N118 N 0.80905 0.59071 0.96295 0.0
N119 N 0.76815 0.59731 0.9676 0.0
C120 C 0.78255 0.57048 0.99657 0.0
C121 C 0.77921 0.60781 0.94887 0.0
N122 N 0.80401 0.6036 0.94596 0.0
C123 C 0.76704 0.62404 0.93411 0.0
H124 H 0.78956 0.55225 0.99654 0.0
H125 H 0.75779 0.5598 1.00097 0.0
H126 H 0.7975 0.5877 1.00814 0.0
H127 H 0.75611 0.63524 0.94225 0.0
H128 H 0.74889 0.6067 0.92376 0.0
H129 H 0.78614 0.64188 0.92483 0.0
C130 C 0.47909 0.25767 0.97231 0.0
N131 N 0.47497 0.2377 0.95753 0.0
N132 N 0.46954 0.27814 0.96546 0.0
C133 C 0.4922 0.25709 0.99344 0.0
C134 C 0.45946 0.26985 0.946 0.0
N135 N 0.46267 0.24525 0.94117 0.0
C136 C 0.44844 0.28714 0.93126 0.0
H137 H 0.48249 0.26604 1.00452 0.0
H138 H 0.51802 0.27223 0.99359 0.0
H139 H 0.48713 0.23328 0.99819 0.0
H140 H 0.45504 0.28637 0.91554 0.0
H141 H 0.45852 0.31173 0.93556 0.0
H142 H 0.42251 0.27599 0.93142 0.0
C143 C 0.79377 0.25863 0.96577 0.0
N144 N 0.77459 0.23582 0.95268 0.0
N145 N 0.81816 0.28199 0.95591 0.0
C146 C 0.79094 0.25666 0.98849 0.0
C147 C 0.81322 0.27265 0.93645 0.0
N148 N 0.78713 0.2447 0.93447 0.0
C149 C 0.83366 0.29118 0.91914 0.0
H150 H 0.77669 0.26735 0.9925 0.0
H151 H 0.81433 0.26956 0.99629 0.0
H152 H 0.77939 0.23217 0.99411 0.0
H153 H 0.85161 0.28402 0.91735 0.0
H154 H 0.84575 0.3164 0.92213 0.0
H155 H 0.81954 0.28677 0.90465 0.0
C156 C 0.545 0.78936 0.06845 0.0
N157 N 0.55945 0.81431 0.08063 0.0
N158 N 0.54893 0.76552 0.07631 0.0
C159 C 0.52917 0.789 0.0481 0.0
C160 C 0.56633 0.77685 0.09369 0.0
N161 N 0.57291 0.80649 0.09622 0.0
C162 C 0.57597 0.75859 0.10853 0.0
H163 H 0.50409 0.78138 0.05027 0.0
H164 H 0.53049 0.77259 0.03782 0.0
H165 H 0.54011 0.81251 0.04082 0.0
H166 H 0.59808 0.76034 0.10358 0.0
H167 H 0.55781 0.73373 0.10886 0.0
H168 H 0.58018 0.76768 0.12411 0.0
C169 C 0.25315 0.79876 0.08128 0.0
N170 N 0.26891 0.82162 0.09493 0.0
N171 N 0.22947 0.77336 0.09011 0.0
C172 C 0.25887 0.80238 0.05886 0.0
C173 C 0.23153 0.78162 0.10973 0.0
N174 N 0.25548 0.81091 0.11276 0.0
C175 C 0.20846 0.76194 0.12562 0.0
H176 H 0.24391 0.81118 0.05111 0.0
H177 H 0.25268 0.77982 0.05223 0.0
H178 H 0.28375 0.81922 0.05595 0.0
H179 H 0.18996 0.73942 0.11969 0.0
H180 H 0.19749 0.77485 0.13156 0.0
H181 H 0.22093 0.75686 0.13854 0.0
C182 C 0.20826 0.40661 0.06817 0.0
N183 N 0.22486 0.40016 0.08295 0.0
N184 N 0.17945 0.3988 0.07457 0.0
C185 C 0.22181 0.42477 0.04878 0.0
C186 C 0.17919 0.3877 0.09375 0.0
N187 N 0.2068 0.38872 0.09893 0.0
C188 C 0.15221 0.37668 0.10765 0.0
H189 H 0.24684 0.44231 0.05126 0.0
H190 H 0.20896 0.43689 0.04272 0.0
H191 H 0.2203 0.40854 0.03716 0.0
H192 H 0.15108 0.35784 0.11808 0.0
H193 H 0.12969 0.36827 0.09874 0.0
H194 H 0.15567 0.39625 0.11701 0.0
C195 C 0.46353 0.93732 0.31011 0.0
N196 N 0.48219 0.9408 0.29464 0.0
N197 N 0.4405 0.94369 0.30351 0.0
C198 C 0.465 0.92344 0.33078 0.0
C199 C 0.44569 0.95097 0.28353 0.0
N200 N 0.47081 0.94903 0.27811 0.0
C201 C 0.42589 0.95941 0.26911 0.0
H202 H 0.47495 0.90761 0.33005 0.0
H203 H 0.44142 0.91028 0.33723 0.0
H204 H 0.48023 0.94245 0.34123 0.0
H205 H 0.44066 0.97674 0.25751 0.0
H206 H 0.41344 0.96889 0.2774 0.0
H207 H 0.40831 0.93835 0.26104 0.0
C208 C 0.14325 0.58876 0.30468 0.0
N209 N 0.13983 0.56799 0.29059 0.0
N210 N 0.13704 0.61084 0.29616 0.0
C211 C 0.14931 0.58568 0.32713 0.0
C212 C 0.12959 0.60269 0.27645 0.0
N213 N 0.13088 0.57653 0.2731 0.0
C214 C 0.12263 0.62124 0.26019 0.0
H215 H 0.13899 0.59652 0.33619 0.0
H216 H 0.175 0.59763 0.33042 0.0
H217 H 0.13946 0.56093 0.33197 0.0
H218 H 0.13116 0.61949 0.24532 0.0
H219 H 0.13373 0.64603 0.26423 0.0
H220 H 0.0969 0.61187 0.25852 0.0
C221 C 0.44576 0.5894 0.30554 0.0
N222 N 0.43343 0.56506 0.29292 0.0
N223 N 0.47116 0.61392 0.29741 0.0
C224 C 0.43344 0.58889 0.32604 0.0
C225 C 0.47386 0.60352 0.27939 0.0
N226 N 0.45113 0.57368 0.27676 0.0
C227 C 0.49701 0.62338 0.26365 0.0
H228 H 0.41431 0.59483 0.32399 0.0
H229 H 0.45215 0.60602 0.33621 0.0
H230 H 0.42358 0.56543 0.33332 0.0
H231 H 0.51814 0.62055 0.2657 0.0
H232 H 0.50429 0.64827 0.26526 0.0
H233 H 0.48691 0.61627 0.24804 0.0
C234 C 0.55356 0.05478 0.08043 0.0
Eu235 Eu 0.53314 0.04391 0.04275 0.0
C236 C 0.54419 0.03835 0.10012 0.0
C237 C 0.56724 0.04276 0.11523 0.0
C238 C 0.55884 0.02679 0.13392 0.0
C239 C 0.52718 1.00614 0.13777 0.0
C240 C 0.50416 1.00171 0.12248 0.0
C241 C 0.5126 1.01758 0.10378 0.0
C242 C 0.5192 0.08086 0.01771 0.0
C243 C 0.45835 0.9935 0.03995 0.0
C244 C 0.48508 1.00292 0.96529 0.0
Eu245 Eu 0.5031 1.01533 1.00323 0.0
C246 C 0.50157 1.00932 0.94611 0.0
C247 C 0.49496 0.98476 0.93339 0.0
C248 C 0.51063 0.9903 0.91527 0.0
C249 C 0.53307 0.02063 0.90944 0.0
C250 C 0.53993 0.04515 0.92242 0.0
C251 C 0.52449 0.03954 0.9406 0.0
C252 C 0.52009 0.98028 0.02828 0.0
C253 C 0.57811 0.06705 1.00532 0.0
O254 O 0.56364 0.04245 0.06769 0.0
O255 O 0.53488 0.06424 0.07167 0.0
O256 O 0.54412 0.09083 0.02951 0.0
O257 O 0.50152 0.05197 0.02035 0.0
O258 O 0.48466 1.00418 0.05125 0.0
O259 O 0.4591 0.99963 0.02021 0.0
O260 O 0.48674 0.02672 0.97432 0.0
O261 O 0.48831 0.98349 0.97804 0.0
O262 O 0.49393 0.96905 0.01761 0.0
O263 O 0.53626 1.00907 0.02493 0.0
O264 O 0.55266 0.05024 0.9939 0.0
O265 O 0.57746 0.06694 0.02531 0.0
H266 H 0.59177 0.05847 0.11254 0.0
H267 H 0.57716 0.0304 0.14527 0.0
H268 H 0.47953 0.98635 0.12503 0.0
H269 H 0.49444 1.01371 0.09226 0.0
H270 H 0.47763 0.96122 0.93747 0.0
H271 H 0.50504 0.97082 0.9058 0.0
H272 H 0.55662 0.06888 0.9183 0.0
H273 H 0.53035 0.05895 0.95023 0.0
C274 C 0.01311 0.53293 0.07462 0.0
Eu275 Eu 0.01639 0.52892 0.0355 0.0
C276 C 0.02905 0.53281 0.09431 0.0
C277 C 0.02722 0.54946 0.11029 0.0
C278 C 0.04117 0.54932 0.12937 0.0
C279 C 0.05726 0.53237 0.13301 0.0
C280 C 0.05955 0.51605 0.11681 0.0
C281 C 0.04555 0.51625 0.09761 0.0
C282 C 0.9789 0.48098 1.01107 0.0
C283 C 0.06595 0.5058 0.02396 0.0
C284 C 0.04736 0.54338 0.95365 0.0
Eu285 Eu 0.03948 0.53855 0.99283 0.0
C286 C 0.02792 0.53837 0.93476 0.0
C287 C 0.03514 0.52799 0.91748 0.0
C288 C 0.01649 0.52223 0.89958 0.0
C289 C 0.99016 0.52671 0.89862 0.0
C290 C 0.98324 0.53751 0.91595 0.0
C291 C 1.00191 0.54324 0.93385 0.0
C292 C 0.07548 0.58518 0.01897 0.0
C293 C 0.97901 0.54596 1.00131 0.0
O294 O 0.02793 0.55705 0.06249 0.0
O295 O 0.99843 0.50684 0.06489 0.0
O296 O 0.96865 0.4903 0.0255 0.0
O297 O 0.00855 0.49616 1.01099 0.0
O298 O 0.05508 0.51524 0.03849 0.0
O299 O 0.06066 0.50995 1.00456 0.0
O300 O 0.04188 0.51853 0.96458 0.0
O301 O 0.05191 0.56654 0.96478 0.0
O302 O 0.08697 0.57506 1.0059 0.0
O303 O 0.04601 0.57081 0.01723 0.0
O304 O 0.99323 0.5378 0.9885 0.0
O305 O 0.98708 0.549 0.02091 0.0
H306 H 0.01481 0.56256 0.10801 0.0
H307 H 0.03953 0.56278 0.14126 0.0
H308 H 0.07168 0.50269 0.11905 0.0
H309 H 0.04738 0.50333 0.08544 0.0
H310 H 0.05505 0.52398 0.91791 0.0
H311 H 0.02225 0.51348 0.88667 0.0
H312 H 0.96338 0.54155 0.91571 0.0
H313 H 0.99591 0.55135 0.94697 0.0
C314 C 0.47658 0.49907 0.9662 0.0
Eu315 Eu 0.48789 0.51257 1.00473 0.0
C316 C 0.49427 0.50614 0.94728 0.0
C317 C 0.48331 0.51529 0.92954 0.0
C318 C 0.49882 0.52113 0.91127 0.0
C319 C 0.52569 0.51782 0.91023 0.0
C320 C 0.53688 0.50893 0.92809 0.0
C321 C 0.52144 0.50328 0.94644 0.0
C322 C 0.49435 0.56332 0.02247 0.0
C323 C 0.56429 0.54682 0.01499 0.0
C324 C 0.52733 0.52945 0.08723 0.0
Eu325 Eu 0.51409 0.51981 0.04839 0.0
C326 C 0.5119 0.52841 0.10603 0.0
C327 C 0.52949 0.54918 0.12142 0.0
C328 C 0.51592 0.54823 0.13971 0.0
C329 C 0.4844 0.52632 0.14308 0.0
C330 C 0.4666 0.50583 0.1274 0.0
C331 C 0.48022 0.5069 0.10902 0.0
C332 C 0.50242 0.46715 0.02951 0.0
C333 C 0.43951 0.4926 0.03995 0.0
O334 O 0.48074 0.48146 0.98016 0.0
O335 O 0.47463 0.52192 0.97395 0.0
O336 O 0.47194 0.54723 1.00935 0.0
O337 O 0.51385 0.55339 0.02464 0.0
O338 O 0.54075 0.53174 1.00168 0.0
O339 O 0.55967 0.54846 0.03422 0.0
O340 O 0.53118 0.5514 0.07388 0.0
O341 O 0.51895 0.50294 0.07883 0.0
O342 O 0.52739 0.4829 0.04095 0.0
O343 O 0.48543 0.47963 0.02894 0.0
O344 O 0.46448 0.5094 0.05165 0.0
O345 O 0.44203 0.48597 0.02109 0.0
H346 H 0.46241 0.51759 0.92974 0.0
H347 H 0.48925 0.5275 0.89781 0.0
H348 H 0.55767 0.50646 0.92792 0.0
H349 H 0.53064 0.49647 0.9599 0.0
H350 H 0.55388 0.56612 0.11932 0.0
H351 H 0.53016 0.56491 0.15116 0.0
H352 H 0.44232 0.4886 0.12946 0.0
H353 H 0.46612 0.49075 0.09725 0.0
C354 C 0.21641 0.38754 0.41792 0.0
Eu355 Eu 0.19422 0.37261 0.38097 0.0
C356 C 0.21506 0.37835 0.43945 0.0
C357 C 0.2312 0.40171 0.45362 0.0
C358 C 0.23108 0.39424 0.4743 0.0
C359 C 0.21477 0.36318 0.4812 0.0
C360 C 0.19856 0.33968 0.46689 0.0
C361 C 0.19875 0.34723 0.44609 0.0
C362 C 0.17833 0.40732 0.35466 0.0
C363 C 0.12144 0.31799 0.37533 0.0
C364 C 0.14395 0.33954 0.29961 0.0
Eu365 Eu 0.16624 0.34509 0.33682 0.0
C366 C 0.15505 0.33924 0.27945 0.0
C367 C 0.18016 0.33354 0.27724 0.0
C368 C 0.19253 0.3366 0.25808 0.0
C369 C 0.18022 0.34585 0.241 0.0
C370 C 0.15463 0.35082 0.2433 0.0
C371 C 0.14218 0.34755 0.26236 0.0
C372 C 0.19079 0.31201 0.35791 0.0
C373 C 0.24044 0.3943 0.34351 0.0
O374 O 0.22677 0.37488 0.40555 0.0
O375 O 0.19344 0.39159 0.40995 0.0
O376 O 0.20197 0.419 0.36761 0.0
O377 O 0.16339 0.37821 0.35691 0.0
O378 O 0.14647 0.33109 0.38793 0.0
O379 O 0.12282 0.32355 0.35538 0.0
O380 O 0.15926 0.36618 0.30873 0.0
O381 O 0.13781 0.31562 0.31186 0.0
O382 O 0.17891 0.3056 0.33947 0.0
O383 O 0.18968 0.33547 0.36288 0.0
O384 O 0.21576 0.38306 0.33068 0.0
O385 O 0.23819 0.38912 0.36342 0.0
H386 H 0.24388 0.42586 0.44868 0.0
H387 H 0.24321 0.41293 0.48491 0.0
H388 H 0.18588 0.31552 0.47176 0.0
H389 H 0.18626 0.32892 0.43525 0.0
H390 H 0.19064 0.32749 0.29038 0.0
H391 H 0.21232 0.33275 0.25672 0.0
H392 H 0.14438 0.35753 0.23034 0.0
H393 H 0.12295 0.35223 0.26385 0.0
C394 C 0.67428 0.87771 0.41169 0.0
Eu395 Eu 0.67087 0.86309 0.37376 0.0
C396 C 0.68753 0.87248 0.43132 0.0
C397 C 0.66883 0.8624 0.44839 0.0
C398 C 0.68073 0.85757 0.46722 0.0
C399 C 0.71173 0.8629 0.46945 0.0
C400 C 0.73046 0.87288 0.4523 0.0
C401 C 0.71843 0.87747 0.43338 0.0
C402 C 0.62494 0.81366 0.35452 0.0
C403 C 0.70854 0.82419 0.36849 0.0
C404 C 0.6906 0.84409 0.29387 0.0
Eu405 Eu 0.68827 0.85443 0.33206 0.0
C406 C 0.67906 0.84899 0.27344 0.0
C407 C 0.69472 0.87767 0.2629 0.0
C408 C 0.68538 0.88111 0.24289 0.0
C409 C 0.66026 0.85596 0.23294 0.0
C410 C 0.64405 0.82756 0.2437 0.0
C411 C 0.65342 0.82409 0.26368 0.0
C412 C 0.73074 0.90624 0.35215 0.0
C413 C 0.64216 0.88404 0.3358 0.0
O414 O 0.69411 0.89598 0.39813 0.0
O415 O 0.65039 0.85335 0.40364 0.0
O416 O 0.62008 0.83069 0.36666 0.0
O417 O 0.65387 0.82185 0.35423 0.0
O418 O 0.70289 0.84162 0.38039 0.0
O419 O 0.70136 0.82231 0.34891 0.0
O420 O 0.66975 0.82386 0.30614 0.0
O421 O 0.71218 0.86848 0.30335 0.0
O422 O 0.73877 0.88924 0.3423 0.0
O423 O 0.70159 0.89524 0.35071 0.0
O424 O 0.65166 0.86875 0.32487 0.0
O425 O 0.6504 0.88935 0.35533 0.0
H426 H 0.64498 0.85844 0.44719 0.0
H427 H 0.66581 0.85031 0.48016 0.0
H428 H 0.75434 0.87695 0.45349 0.0
H429 H 0.73333 0.885 0.42042 0.0
H430 H 0.71464 0.89732 0.26991 0.0
H431 H 0.69817 0.90338 0.23509 0.0
H432 H 0.6249 0.80758 0.23641 0.0
H433 H 0.64109 0.80159 0.2713 0.0
C434 C 0.15205 0.82945 0.29964 0.0
Eu435 Eu 0.15858 0.8439 0.33799 0.0
C436 C 0.17084 0.83552 0.28131 0.0
C437 C 0.19009 0.86576 0.2736 0.0
C438 C 0.20563 0.87054 0.25539 0.0
C439 C 0.20239 0.84525 0.24446 0.0
C440 C 0.18383 0.81509 0.25257 0.0
C441 C 0.16823 0.81033 0.27071 0.0
C442 C 0.17185 0.89818 0.35447 0.0
C443 C 0.23192 0.86866 0.35463 0.0
C444 C 0.1819 0.85321 0.42289 0.0
Eu445 Eu 0.1755 0.84682 0.38351 0.0
C446 C 0.16612 0.85659 0.44023 0.0
C447 C 0.1333 0.84086 0.44132 0.0
C448 C 0.11921 0.84275 0.45875 0.0
C449 C 0.1377 0.86043 0.47536 0.0
C450 C 0.1705 0.87689 0.47381 0.0
C451 C 0.18451 0.8749 0.45647 0.0
C452 C 0.16087 0.79318 0.36496 0.0
C453 C 0.10611 0.83276 0.36823 0.0
O454 O 0.15587 0.81282 0.31448 0.0
O455 O 0.14852 0.85209 0.30624 0.0
O456 O 0.15271 0.88626 0.33886 0.0
O457 O 0.1859 0.88288 0.35914 0.0
O458 O 0.21063 0.85757 0.33943 0.0
O459 O 0.22438 0.86968 0.37331 0.0
O460 O 0.19426 0.87664 0.40992 0.0
O461 O 0.16825 0.82634 0.41408 0.0
O462 O 0.184 0.80621 0.37819 0.0
O463 O 0.14682 0.80869 0.36245 0.0
O464 O 0.12949 0.84679 0.38163 0.0
O465 O 0.11005 0.82367 0.35057 0.0
H466 H 0.1928 0.88572 0.28146 0.0
H467 H 0.22004 0.8941 0.2498 0.0
H468 H 0.18041 0.79501 0.24453 0.0
H469 H 0.15348 0.78677 0.27624 0.0
H470 H 0.1186 0.82669 0.42889 0.0
H471 H 0.09391 0.82975 0.45941 0.0
H472 H 0.18547 0.89135 0.48605 0.0
H473 H 0.20985 0.88738 0.45587 0.0
C474 C 0.89399 0.71895 0.752 0.0
Eu475 Eu 0.87078 0.70594 0.71506 0.0
C476 C 0.89004 0.70457 0.77235 0.0
C477 C 0.90701 0.72309 0.78882 0.0
C478 C 0.90378 0.71002 0.8084 0.0
C479 C 0.88362 0.67809 0.81179 0.0
C480 C 0.86676 0.65954 0.7951 0.0
C481 C 0.86986 0.67274 0.77552 0.0
C482 C 0.85413 0.74119 0.69011 0.0
C483 C 0.79729 0.64932 0.71263 0.0
C484 C 0.81584 0.67598 0.63512 0.0
Eu485 Eu 0.83739 0.67749 0.6722 0.0
C486 C 0.83148 0.68517 0.61539 0.0
C487 C 0.84138 0.6665 0.60618 0.0
C488 C 0.85816 0.67667 0.58831 0.0
C489 C 0.8655 0.70574 0.57934 0.0
C490 C 0.85522 0.72417 0.58842 0.0
C491 C 0.83831 0.71395 0.60616 0.0
C492 C 0.86204 0.64323 0.69145 0.0
C493 C 0.91334 0.72492 0.67624 0.0
O494 O 0.90492 0.70843 0.73851 0.0
O495 O 0.87127 0.7239 0.74467 0.0
O496 O 0.87954 0.75247 0.70154 0.0
O497 O 0.83832 0.71216 0.6928 0.0
O498 O 0.82383 0.66511 0.72354 0.0
O499 O 0.79552 0.65254 0.69247 0.0
O500 O 0.82289 0.69881 0.64734 0.0
O501 O 0.81441 0.65145 0.64475 0.0
O502 O 0.84737 0.63629 0.67377 0.0
O503 O 0.8632 0.66778 0.69673 0.0
O504 O 0.88742 0.71387 0.66443 0.0
O505 O 0.91276 0.72037 0.69621 0.0
H506 H 0.9226 0.74775 0.78657 0.0
H507 H 0.91657 0.72512 0.82092 0.0
H508 H 0.8512 0.63486 0.79716 0.0
H509 H 0.85649 0.65819 0.76292 0.0
H510 H 0.83658 0.64421 0.61288 0.0
H511 H 0.86577 0.66196 0.58168 0.0
H512 H 0.85986 0.74637 0.58164 0.0
H513 H 0.8309 0.72882 0.61282 0.0
C514 C 0.32987 0.20557 0.74594 0.0
Eu515 Eu 0.33627 0.20144 0.70732 0.0
C516 C 0.34771 0.20708 0.76511 0.0
C517 C 0.36775 0.19417 0.76688 0.0
C518 C 0.3838 0.195 0.78535 0.0
C519 C 0.38009 0.20872 0.80247 0.0
C520 C 0.36026 0.22197 0.8005 0.0
C521 C 0.34427 0.22114 0.78201 0.0
C522 C 0.3002 0.15097 0.68445 0.0
C523 C 0.39216 0.18442 0.7025 0.0
C524 C 0.36781 0.1964 0.62714 0.0
Eu525 Eu 0.36119 0.20309 0.66532 0.0
C526 C 0.35384 0.19693 0.60676 0.0
C527 C 0.37341 0.20843 0.59015 0.0
C528 C 0.36096 0.20858 0.57053 0.0
C529 C 0.32857 0.19716 0.56706 0.0
C530 C 0.30896 0.18588 0.58381 0.0
C531 C 0.3215 0.18587 0.60351 0.0
C532 C 0.3979 0.25344 0.6881 0.0
C533 C 0.3077 0.22365 0.67028 0.0
O534 O 0.34249 0.22972 0.73354 0.0
O535 O 0.31734 0.17931 0.73643 0.0
O536 O 0.28895 0.16319 0.69619 0.0
O537 O 0.32981 0.16506 0.68594 0.0
O538 O 0.379 0.19577 0.71385 0.0
O539 O 0.38538 0.18018 0.68284 0.0
O540 O 0.35106 0.1732 0.63951 0.0
O541 O 0.38298 0.22291 0.63634 0.0
O542 O 0.40888 0.24222 0.67542 0.0
O543 O 0.3683 0.2392 0.68705 0.0
O544 O 0.32034 0.21216 0.65848 0.0
O545 O 0.31347 0.22579 0.69014 0.0
H546 H 0.37071 0.18308 0.75406 0.0
H547 H 0.39864 0.18436 0.78632 0.0
H548 H 0.35728 0.23326 0.8132 0.0
H549 H 0.32905 0.23137 0.78094 0.0
H550 H 0.3984 0.21701 0.59234 0.0
H551 H 0.37668 0.21698 0.55799 0.0
H552 H 0.28396 0.17717 0.58169 0.0
H553 H 0.30595 0.17707 0.61615 0.0
C554 C 0.80719 0.16203 0.62373 0.0
Eu555 Eu 0.81718 0.17251 0.66267 0.0
C556 C 0.82582 0.16618 0.60562 0.0
C557 C 0.8466 0.19584 0.59769 0.0
C558 C 0.86262 0.19915 0.57996 0.0
C559 C 0.8584 0.17292 0.56975 0.0
C560 C 0.83814 0.1433 0.57797 0.0
C561 C 0.82198 0.13999 0.59562 0.0
C562 C 0.82669 0.22395 0.68161 0.0
C563 C 0.89212 0.19847 0.67357 0.0
C564 C 0.85437 0.18979 0.74575 0.0
Eu565 Eu 0.84199 0.17789 0.7071 0.0
C566 C 0.83893 0.19043 0.76415 0.0
C567 C 0.85742 0.20946 0.78009 0.0
C568 C 0.84384 0.21007 0.79802 0.0
C569 C 0.81136 0.19153 0.80047 0.0
C570 C 0.79271 0.17281 0.78429 0.0
C571 C 0.80638 0.17229 0.76624 0.0
C572 C 0.83091 0.12578 0.68805 0.0
C573 C 0.7668 0.14862 0.69633 0.0
O574 O 0.80538 0.14112 0.63741 0.0
O575 O 0.81009 0.18699 0.63188 0.0
O576 O 0.80345 0.209 0.66873 0.0
O577 O 0.84434 0.21195 0.68331 0.0
O578 O 0.86803 0.18499 0.66049 0.0
O579 O 0.88863 0.20235 0.69272 0.0
O580 O 0.85884 0.21103 0.73166 0.0
O581 O 0.84561 0.16258 0.73825 0.0
O582 O 0.85431 0.1401 0.70098 0.0
O583 O 0.81419 0.13868 0.68671 0.0
O584 O 0.79065 0.16441 0.70925 0.0
O585 O 0.77094 0.14452 0.67732 0.0
H586 H 0.85025 0.21656 0.60502 0.0
H587 H 0.87829 0.2223 0.57421 0.0
H588 H 0.83397 0.12258 0.57039 0.0
H589 H 0.80603 0.11685 0.60128 0.0
H590 H 0.88252 0.22381 0.7787 0.0
H591 H 0.85885 0.22527 0.80995 0.0
H592 H 0.76771 0.15809 0.78574 0.0
H593 H 0.79162 0.15751 0.75406 0.0
H594 H 0.33149 0.8477 0.10417 0.0
H595 H 0.26081 0.86455 0.07304 0.0
H596 H 0.30225 0.91338 0.05795 0.0
H597 H 0.39046 0.93205 0.11357 0.0
H598 H 0.42323 0.92629 0.10911 0.0
H599 H 0.38822 0.89508 0.11977 0.0
H600 H 0.38412 0.85963 0.09076 0.0
H601 H 0.41886 0.89077 0.07992 0.0
H602 H 0.38295 0.8721 0.06467 0.0
H603 H 0.35044 0.95539 0.04219 0.0
H604 H 0.40272 0.9909 0.02895 0.0
H605 H 0.44401 0.94953 0.07115 0.0
C606 C 0.32499 0.86247 0.09484 0.0
C607 C 0.29301 0.85288 0.09005 0.0
C608 C 0.28516 0.87198 0.07715 0.0
C609 C 0.30855 0.89961 0.06846 0.0
C610 C 0.33989 0.90804 0.07291 0.0
C611 C 0.34827 0.89037 0.08607 0.0
C612 C 0.38375 0.90382 0.08715 0.0
C613 C 0.39721 0.91497 0.10868 0.0
C614 C 0.39294 0.88017 0.08021 0.0
C615 C 0.3938 0.9311 0.07207 0.0
C616 C 0.36804 0.93303 0.06409 0.0
C617 C 0.37085 0.95454 0.04866 0.0
C618 C 0.40065 0.97455 0.04117 0.0
C619 C 0.42751 0.97335 0.0492 0.0
C620 C 0.42401 0.95152 0.06506 0.0
H621 H 0.16156 0.43714 0.08984 0.0
H622 H 0.15016 0.38166 0.03792 0.0
H623 H 0.11757 0.40174 0.01987 0.0
H624 H 0.08162 0.42875 0.08592 0.0
H625 H 0.09558 0.46803 0.09362 0.0
H626 H 0.11549 0.44712 0.103 0.0
H627 H 0.16759 0.49145 0.08937 0.0
H628 H 0.1478 0.51227 0.07971 0.0
H629 H 0.16956 0.50294 0.06284 0.0
H630 H 0.09144 0.43116 1.00662 0.0
H631 H 0.06904 0.46551 0.99901 0.0
H632 H 0.09534 0.50135 0.06018 0.0
C633 C 0.15131 0.42861 0.07492 0.0
C634 C 0.15778 0.40768 0.06517 0.0
C635 C 0.14502 0.39755 0.04546 0.0
C636 C 0.12663 0.40881 0.03521 0.0
C637 C 0.12115 0.42993 0.04507 0.0
C638 C 0.13271 0.43948 0.06457 0.0
C639 C 0.12443 0.46343 0.07128 0.0
C640 C 0.103 0.45108 0.08954 0.0
C641 C 0.15412 0.49435 0.07607 0.0
C642 C 0.10701 0.46638 0.05229 0.0
C643 C 0.10549 0.4468 0.03742 0.0
C644 C 0.09213 0.44632 0.01818 0.0
C645 C 0.07972 0.4662 0.01399 0.0
C646 C 0.08057 0.48625 0.02901 0.0
C647 C 0.09426 0.48619 0.04847 0.0
H648 H 0.5792 0.73313 0.06967 0.0
H649 H 0.48802 0.72772 0.06646 0.0
H650 H 0.46405 0.67436 0.05365 0.0
H651 H 0.56942 0.691 0.02491 0.0
H652 H 0.58963 0.67092 0.03536 0.0
H653 H 0.59957 0.70845 0.04462 0.0
H654 H 0.5888 0.68555 0.0814 0.0
H655 H 0.57877 0.6479 0.07223 0.0
H656 H 0.5513 0.65245 0.08682 0.0
H657 H 0.4504 0.62305 0.04018 0.0
H658 H 0.44735 0.57606 0.02658 0.0
H659 H 0.54696 0.6127 0.03978 0.0
C660 C 0.55417 0.72048 0.06643 0.0
C661 C 0.53534 0.73443 0.06889 0.0
C662 C 0.50275 0.71747 0.06434 0.0
C663 C 0.48898 0.68715 0.05724 0.0
C664 C 0.50813 0.67402 0.05497 0.0
C665 C 0.53999 0.69 0.05948 0.0
C666 C 0.55517 0.67045 0.05538 0.0
C667 C 0.57991 0.68614 0.0391 0.0
C668 C 0.56935 0.66369 0.07514 0.0
C669 C 0.52692 0.6412 0.04753 0.0
C670 C 0.50006 0.64386 0.04752 0.0
C671 C 0.4712 0.62058 0.04025 0.0
C672 C 0.46973 0.59402 0.03252 0.0
C673 C 0.49689 0.59079 0.03218 0.0
C674 C 0.5258 0.61449 0.04008 0.0
H675 H 0.81999 0.32813 0.97795 0.0
H676 H 0.87822 0.29588 0.95248 0.0
H677 H 0.92583 0.34388 0.96318 0.0
H678 H 0.8665 0.4083 0.9642 0.0
H679 H 0.86103 0.42278 0.98734 0.0
H680 H 0.83141 0.38558 0.97818 0.0
H681 H 0.83472 0.35937 1.01261 0.0
H682 H 0.86407 0.39656 0.02196 0.0
H683 H 0.87216 0.36464 0.02235 0.0
H684 H 0.96696 0.3966 0.9749 0.0
H685 H 0.99916 0.4483 0.98992 0.0
H686 H 0.91475 0.44601 1.00918 0.0
C687 C 0.84284 0.33114 0.97495 0.0
C688 C 0.84559 0.30856 0.96422 0.0
C689 C 0.87578 0.31318 0.96043 0.0
C690 C 0.90287 0.34032 0.96646 0.0
C691 C 0.89945 0.36257 0.97652 0.0
C692 C 0.87025 0.35814 0.98101 0.0
C693 C 0.87328 0.38577 0.99209 0.0
C694 C 0.85709 0.40153 0.97971 0.0
C695 C 0.86029 0.376 0.01352 0.0
C696 C 0.90866 0.40639 0.993 0.0
C697 C 0.92328 0.39265 0.98379 0.0
C698 C 0.95579 0.40748 0.98231 0.0
C699 C 0.97389 0.4369 0.9908 0.0
C700 C 0.95948 0.45107 1.0008 0.0
C701 C 0.92641 0.43564 1.00173 0.0
H702 H 0.70836 0.56636 0.9532 0.0
H703 H 0.76852 0.62593 1.00126 0.0
H704 H 0.72239 0.6237 0.01669 0.0
H705 H 0.65185 0.5959 0.94908 0.0
H706 H 0.61862 0.55793 0.94502 0.0
H707 H 0.65662 0.56689 0.93661 0.0
H708 H 0.6534 0.51967 0.95758 0.0
H709 H 0.61544 0.51062 0.96597 0.0
H710 H 0.64642 0.51643 0.98441 0.0
H711 H 0.67058 0.61261 0.02772 0.0
H712 H 0.61519 0.5909 0.03554 0.0
H713 H 0.58741 0.53702 0.98056 0.0
C714 C 0.71157 0.57925 0.96679 0.0
C715 C 0.74157 0.59653 0.97615 0.0
C716 C 0.74545 0.61271 0.99407 0.0
C717 C 0.71954 0.6117 1.00276 0.0
C718 C 0.69011 0.59432 0.99325 0.0
C719 C 0.68588 0.57823 0.97572 0.0
C720 C 0.65143 0.55929 0.96954 0.0
C721 C 0.64421 0.5707 0.94883 0.0
C722 C 0.64108 0.52444 0.96938 0.0
C723 C 0.63694 0.56672 0.98663 0.0
C724 C 0.65979 0.58733 0.99991 0.0
C725 C 0.65244 0.59664 0.01739 0.0
C726 C 0.62087 0.58403 0.02171 0.0
C727 C 0.597 0.56217 1.00868 0.0
C728 C 0.60515 0.55391 0.99067 0.0
H729 H 0.44003 0.17985 0.97332 0.0
H730 H 0.5294 0.24229 0.94756 0.0
H731 H 0.54761 0.20409 0.95582 0.0
H732 H 0.46978 0.15683 0.01509 0.0
H733 H 0.43916 0.11689 0.01622 0.0
H734 H 0.43093 0.14612 1.00487 0.0
H735 H 0.41113 0.1154 0.97154 0.0
H736 H 0.41913 0.08586 0.98284 0.0
H737 H 0.43618 0.10466 0.95911 0.0
H738 H 0.55893 0.16383 0.97157 0.0
H739 H 0.56271 0.12361 0.99332 0.0
H740 H 0.46569 0.08537 1.00894 0.0
C741 C 0.4629 0.18465 0.96874 0.0
C742 C 0.48311 0.21335 0.95919 0.0
C743 C 0.51343 0.2199 0.95422 0.0
C744 C 0.5239 0.19842 0.95895 0.0
C745 C 0.50369 0.17047 0.96873 0.0
C746 C 0.4737 0.16337 0.97346 0.0
C747 C 0.45802 0.13325 0.98592 0.0
C748 C 0.44896 0.13861 1.00676 0.0
C749 C 0.42942 0.10831 0.97415 0.0
C750 C 0.48428 0.12515 0.98812 0.0
C751 C 0.51027 0.14684 0.97786 0.0
C752 C 0.53851 0.14631 0.97923 0.0
C753 C 0.54047 0.12343 0.99165 0.0
C754 C 0.51435 0.10117 1.00244 0.0
C755 C 0.48566 0.10158 1.00031 0.0
H756 H 0.72711 0.22887 0.97579 0.0
H757 H 0.75832 0.17721 0.94133 0.0
H758 H 0.71011 0.12864 0.94951 0.0
H759 H 0.69909 0.17229 0.01691 0.0
H760 H 0.66685 0.17865 0.02187 0.0
H761 H 0.70202 0.2097 1.01134 0.0
H762 H 0.66909 0.21588 0.98105 0.0
H763 H 0.63382 0.18475 0.99143 0.0
H764 H 0.6438 0.18275 0.96584 0.0
H765 H 0.6569 0.08545 0.96089 0.0
H766 H 0.60707 0.05093 0.9779 0.0
H767 H 0.61534 0.12954 1.00953 0.0
C768 C 0.72391 0.20733 0.97005 0.0
C769 C 0.74634 0.20712 0.95749 0.0
C770 C 0.74107 0.17835 0.95026 0.0
C771 C 0.71385 0.1505 0.95505 0.0
C772 C 0.69236 0.15159 0.96756 0.0
C773 C 0.69742 0.17924 0.97527 0.0
C774 C 0.67196 0.17388 0.98961 0.0
C775 C 0.68581 0.18424 1.01121 0.0
C776 C 0.65359 0.19029 0.98149 0.0
C777 C 0.65177 0.13889 0.9888 0.0
C778 C 0.66352 0.1265 0.97563 0.0
C779 C 0.64782 0.09487 0.97149 0.0
C780 C 0.61958 0.07545 0.98117 0.0
C781 C 0.60787 0.08755 0.99527 0.0
C782 C 0.62424 0.11965 0.99913 0.0
H783 H 0.85243 0.60477 0.99386 0.0
H784 H 0.81637 0.55297 0.93843 0.0
H785 H 0.85598 0.53551 0.94262 0.0
H786 H 0.9336 0.62997 0.98736 0.0
H787 H 0.94238 0.62569 0.01391 0.0
H788 H 0.91117 0.63402 1.0066 0.0
H789 H 0.87217 0.58532 0.02697 0.0
H790 H 0.90327 0.57685 0.03439 0.0
H791 H 0.86802 0.54799 0.02172 0.0
H792 H 0.89945 0.52486 0.95226 0.0
H793 H 0.94423 0.5202 0.96698 0.0
H794 H 0.95184 0.57747 0.01731 0.0
C795 C 0.85286 0.58952 0.98279 0.0
C796 C 0.83168 0.58018 0.96578 0.0
C797 C 0.8328 0.56051 0.95139 0.0
C798 C 0.85502 0.55044 0.95372 0.0
C799 C 0.87568 0.56009 0.97064 0.0
C800 C 0.87477 0.57906 0.98499 0.0
C801 C 0.89978 0.58601 1.00173 0.0
C802 C 0.92312 0.621 1.00243 0.0
C803 C 0.88491 0.57327 0.02243 0.0
C804 C 0.915 0.56811 0.99444 0.0
C805 C 0.90068 0.55344 0.97645 0.0
C806 C 0.91082 0.53613 0.96637 0.0
C807 C 0.93642 0.53379 0.97485 0.0
C808 C 0.95163 0.54861 0.99327 0.0
C809 C 0.94056 0.56577 1.00329 0.0
H810 H 0.51811 0.32689 0.98481 0.0
H811 H 0.41843 0.28363 0.97028 0.0
H812 H 0.4162 0.32689 0.98601 0.0
H813 H 0.51546 0.35757 0.03423 0.0
H814 H 0.55192 0.39303 0.03094 0.0
H815 H 0.54548 0.35795 0.0194 0.0
H816 H 0.55736 0.38625 0.98418 0.0
H817 H 0.56361 0.42132 0.99557 0.0
H818 H 0.53518 0.40488 0.97481 0.0
H819 H 0.42515 0.37578 1.00072 0.0
H820 H 0.44383 0.42665 0.01589 0.0
H821 H 0.53795 0.43888 0.02268 0.0
C822 C 0.49583 0.32643 0.98534 0.0
C823 C 0.46835 0.30209 0.97636 0.0
C824 C 0.43962 0.30225 0.97701 0.0
C825 C 0.43818 0.32664 0.98592 0.0
C826 C 0.46571 0.35063 0.99429 0.0
C827 C 0.49398 0.35069 0.99431 0.0
C828 C 0.5201 0.37984 1.00403 0.0
C829 C 0.53406 0.3716 0.0233 0.0
C830 C 0.54556 0.39921 0.98873 0.0
C831 C 0.5021 0.39624 1.00921 0.0
C832 C 0.47079 0.37887 1.00335 0.0
C833 C 0.44952 0.38943 1.00561 0.0
C834 C 0.46042 0.41844 0.01419 0.0
C835 C 0.49228 0.4366 0.0206 0.0
C836 C 0.5134 0.42529 0.01813 0.0
H837 H 0.2299 0.72685 0.06967 0.0
H838 H 0.16979 0.76215 0.08767 0.0
H839 H 0.12366 0.71711 0.07215 0.0
H840 H 0.18963 0.69878 0.02048 0.0
H841 H 0.19492 0.66509 0.02144 0.0
H842 H 0.22302 0.69978 0.03427 0.0
H843 H 0.2148 0.66801 0.06804 0.0
H844 H 0.1865 0.63328 0.05534 0.0
H845 H 0.17583 0.64555 0.07746 0.0
H846 H 0.08388 0.66724 0.05606 0.0
H847 H 0.05348 0.61844 0.03746 0.0
H848 H 0.13932 0.61639 0.02757 0.0
C849 C 0.207 0.72506 0.07014 0.0
C850 C 0.20318 0.74771 0.08001 0.0
C851 C 0.17296 0.74478 0.08035 0.0
C852 C 0.14673 0.71933 0.07159 0.0
C853 C 0.1511 0.69711 0.06222 0.0
C854 C 0.18051 0.69989 0.06116 0.0
C855 C 0.17868 0.67306 0.04968 0.0
C856 C 0.19769 0.68489 0.03032 0.0
C857 C 0.1896 0.65384 0.06346 0.0
C858 C 0.14369 0.65476 0.04456 0.0
C859 C 0.12823 0.66893 0.05216 0.0
C860 C 0.09577 0.65609 0.04989 0.0
C861 C 0.07868 0.62829 0.03935 0.0
C862 C 0.09401 0.61371 0.03094 0.0
C863 C 0.12697 0.62714 0.03369 0.0
H864 H 0.25484 0.38693 0.05522 0.0
H865 H 0.26927 0.43966 0.10917 0.0
H866 H 0.32638 0.46639 0.10488 0.0
H867 H 0.32909 0.38205 0.06029 0.0
H868 H 0.33463 0.38742 0.03326 0.0
H869 H 0.29558 0.36826 0.04277 0.0
H870 H 0.2838 0.4079 0.02248 0.0
H871 H 0.32297 0.42763 0.01326 0.0
H872 H 0.3086 0.44879 0.02667 0.0
H873 H 0.37995 0.49196 0.09254 0.0
H874 H 0.42878 0.51296 0.0745 0.0
H875 H 0.38091 0.44568 0.02694 0.0
C876 C 0.27031 0.40333 0.06647 0.0
C877 C 0.25793 0.41071 0.08286 0.0
C878 C 0.27844 0.43288 0.09702 0.0
C879 C 0.31084 0.44844 0.09451 0.0
C880 C 0.32221 0.44163 0.07769 0.0
C881 C 0.30271 0.41939 0.06398 0.0
C882 C 0.32077 0.41867 0.04621 0.0
C883 C 0.31997 0.38723 0.04561 0.0
C884 C 0.30828 0.4262 0.02596 0.0
C885 C 0.35337 0.44447 0.05187 0.0
C886 C 0.3535 0.45714 0.07016 0.0
C887 C 0.38029 0.48194 0.07837 0.0
C888 C 0.40794 0.49375 0.06788 0.0
C889 C 0.40882 0.48083 0.0493 0.0
C890 C 0.381 0.45604 0.04107 0.0
H891 H 0.50897 0.82249 0.07311 0.0
H892 H 0.61022 0.87191 0.07958 0.0
H893 H 0.61064 0.92133 0.07092 0.0
H894 H 0.50572 0.86255 0.02871 0.0
H895 H 0.47013 0.86266 0.03424 0.0
H896 H 0.47736 0.8323 0.04468 0.0
H897 H 0.47043 0.84523 0.08107 0.0
H898 H 0.46305 0.87559 0.07068 0.0
H899 H 0.4938 0.88433 0.08988 0.0
H900 H 0.60012 0.96482 0.05877 0.0
H901 H 0.5801 0.99803 0.0421 0.0
H902 H 0.48602 0.91929 0.04026 0.0
C903 C 0.53114 0.84385 0.07304 0.0
C904 C 0.55956 0.84353 0.07754 0.0
C905 C 0.58817 0.87179 0.07703 0.0
C906 C 0.58859 0.89993 0.07191 0.0
C907 C 0.56018 0.89936 0.0671 0.0
C908 C 0.53195 0.87198 0.06753 0.0
C909 C 0.50505 0.87703 0.05956 0.0
C910 C 0.48861 0.85748 0.04068 0.0
C911 C 0.48171 0.87014 0.0763 0.0
C912 C 0.52261 0.91138 0.05412 0.0
C913 C 0.55429 0.92399 0.05899 0.0
C914 C 0.57534 0.95521 0.05499 0.0
C915 C 0.56378 0.97389 0.04551 0.0
C916 C 0.53159 0.96114 0.03981 0.0
C917 C 0.51077 0.92959 0.04442 0.0
H918 H 0.99401 0.16944 0.43691 0.0
H919 H 0.92339 0.18139 0.40137 0.0
H920 H 0.96447 0.23123 0.38717 0.0
H921 H 0.0483 0.25442 0.44681 0.0
H922 H 0.08286 0.2508 0.44435 0.0
H923 H 0.04768 0.21842 0.45393 0.0
H924 H 0.04866 0.18394 0.42596 0.0
H925 H 0.08359 0.2162 0.41617 0.0
H926 H 0.04935 0.19607 0.39962 0.0
H927 H 0.01277 0.27496 0.3732 0.0
H928 H 0.06559 0.31247 0.36178 0.0
H929 H 0.10664 0.27456 0.40691 0.0
C930 C 0.98736 0.1833 0.42672 0.0
C931 C 0.95562 0.17211 0.42042 0.0
C932 C 0.94759 0.19004 0.40652 0.0
C933 C 0.97075 0.21825 0.39839 0.0
C934 C 1.00197 0.22833 0.40438 0.0
C935 C 0.0104 0.21169 0.41843 0.0
C936 C 0.04593 0.22679 0.42104 0.0
C937 C 0.05683 0.2383 0.44283 0.0
C938 C 0.05755 0.20441 0.41536 0.0
C939 C 0.05605 0.25385 0.40582 0.0
C940 C 0.0302 0.25425 0.39647 0.0
C941 C 0.0332 0.2753 0.3807 0.0
C942 C 0.06331 0.29643 0.37425 0.0
C943 C 0.09022 0.2967 0.3836 0.0
C944 C 0.08651 0.27535 0.39981 0.0
H945 H 0.83762 0.7953 0.42897 0.0
H946 H 0.80617 0.71449 0.39221 0.0
H947 H 0.76155 0.72112 0.37817 0.0
H948 H 0.75854 0.7837 0.43954 0.0
H949 H 0.77141 0.82469 0.4377 0.0
H950 H 0.79848 0.81141 0.44658 0.0
H951 H 0.83662 0.84511 0.41854 0.0
H952 H 0.80973 0.85848 0.40962 0.0
H953 H 0.82272 0.84035 0.3923 0.0
H954 H 0.72463 0.73947 0.36586 0.0
H955 H 0.69725 0.76868 0.35512 0.0
H956 H 0.75181 0.83787 0.40032 0.0
C957 C 0.82079 0.7788 0.41827 0.0
C958 C 0.8246 0.75421 0.41164 0.0
C959 C 0.803 0.73319 0.39739 0.0
C960 C 0.77773 0.73677 0.3895 0.0
C961 C 0.7746 0.76143 0.3962 0.0
C962 C 0.79545 0.78207 0.4103 0.0
C963 C 0.78813 0.80795 0.41371 0.0
C964 C 0.77856 0.80686 0.43569 0.0
C965 C 0.81595 0.83985 0.4082 0.0
C966 C 0.76053 0.79919 0.3988 0.0
C967 C 0.75297 0.77206 0.38907 0.0
C968 C 0.72997 0.76044 0.37356 0.0
C969 C 0.71469 0.77728 0.36752 0.0
C970 C 0.72244 0.8054 0.37698 0.0
C971 C 0.74511 0.81612 0.39314 0.0
H972 H 0.19414 0.03737 0.42299 0.0
H973 H 0.23492 0.09833 0.37076 0.0
H974 H 0.22892 0.05399 0.35148 0.0
H975 H 0.23173 0.99014 0.41657 0.0
H976 H 0.19834 0.9545 0.4247 0.0
H977 H 0.20565 0.99099 0.43446 0.0
H978 H 0.14982 0.97941 0.42214 0.0
H979 H 0.14239 0.94293 0.41236 0.0
H980 H 0.13773 0.97067 0.39579 0.0
H981 H 0.2161 1.00311 0.33732 0.0
H982 H 0.19909 0.94854 0.32946 0.0
H983 H 0.17022 0.92036 0.39145 0.0
C984 C 0.20198 0.04127 0.40755 0.0
C985 C 0.21461 0.07115 0.3982 0.0
C986 C 0.22454 0.07549 0.37797 0.0
C987 C 0.22148 0.05051 0.367 0.0
C988 C 0.20883 0.02135 0.37658 0.0
C989 C 0.19945 1.01656 0.39645 0.0
C990 C 0.18664 0.98274 0.40306 0.0
C991 C 0.2068 0.97941 0.42075 0.0
C992 C 0.15209 0.96808 0.40866 0.0
C993 C 0.18995 0.96928 0.38372 0.0
C994 C 0.20271 0.99202 0.36863 0.0
C995 C 0.20651 0.98517 0.34907 0.0
C996 C 0.19682 0.95422 0.34474 0.0
C997 C 0.18396 0.93066 0.35996 0.0
C998 C 0.18071 0.93824 0.37974 0.0
H999 H 0.53443 0.64607 0.30368 0.0
H1000 H 0.44922 0.65115 0.30861 0.0
H1001 H 0.48015 0.70402 0.32223 0.0
H1002 H 0.57309 0.68572 0.34936 0.0
H1003 H 0.61162 0.70629 0.33909 0.0
H1004 H 0.58302 0.66934 0.32903 0.0
H1005 H 0.58956 0.69426 0.29282 0.0
H1006 H 0.61817 0.73133 0.30279 0.0
H1007 H 0.58411 0.72765 0.28839 0.0
H1008 H 0.51942 0.75493 0.33598 0.0
H1009 H 0.56483 0.80124 0.35021 0.0
H1010 H 0.62603 0.76469 0.33632 0.0
C1011 C 0.52251 0.65857 0.30754 0.0
C1012 C 0.4895 0.6447 0.30527 0.0
C1013 C 0.47444 0.6614 0.31053 0.0
C1014 C 0.49183 0.69142 0.3181 0.0
C1015 C 0.52432 0.70445 0.32023 0.0
C1016 C 0.53961 0.68867 0.31512 0.0
C1017 C 0.57474 0.70793 0.31944 0.0
C1018 C 0.58629 0.69133 0.33517 0.0
C1019 C 0.5927 0.71575 0.29968 0.0
C1020 C 0.57668 0.73675 0.32811 0.0
C1021 C 0.54725 0.7342 0.32823 0.0
C1022 C 0.54258 0.75725 0.33592 0.0
C1023 C 0.56855 0.78345 0.34402 0.0
C1024 C 0.5989 0.78649 0.34443 0.0
C1025 C 0.6031 0.76301 0.33609 0.0
H1026 H 0.38058 0.90586 0.29116 0.0
H1027 H 0.43871 0.96615 0.33959 0.0
H1028 H 0.39107 0.95297 0.35842 0.0
H1029 H 0.31814 0.92548 0.29249 0.0
H1030 H 0.2877 0.88664 0.28686 0.0
H1031 H 0.32639 0.90095 0.27751 0.0
H1032 H 0.32902 0.85398 0.29489 0.0
H1033 H 0.29047 0.83969 0.30444 0.0
H1034 H 0.32298 0.84666 0.3218 0.0
H1035 H 0.33762 0.93188 0.37204 0.0
H1036 H 0.28152 0.90686 0.37918 0.0
H1037 H 0.25807 0.86219 0.32068 0.0
C1038 C 0.38312 0.91669 0.30555 0.0
C1039 C 0.413 0.93721 0.31399 0.0
C1040 C 0.41579 0.95041 0.33305 0.0
C1041 C 0.38899 0.94308 0.34374 0.0
C1042 C 0.35978 0.92272 0.33496 0.0
C1043 C 0.35666 0.90993 0.31622 0.0
C1044 C 0.32262 0.88886 0.31009 0.0
C1045 C 0.31316 0.90123 0.29059 0.0
C1046 C 0.31589 0.85531 0.30767 0.0
C1047 C 0.30701 0.89161 0.32842 0.0
C1048 C 0.32889 0.91109 0.34262 0.0
C1049 C 0.32024 0.91672 0.36101 0.0
C1050 C 0.28831 0.90227 0.36493 0.0
C1051 C 0.26544 0.8826 0.35045 0.0
C1052 C 0.275 0.87723 0.33198 0.0
H1053 H 0.18889 0.56422 0.30869 0.0
H1054 H 0.09569 0.50905 0.28197 0.0
H1055 H 0.09722 0.46094 0.29261 0.0
H1056 H 0.22018 0.51141 0.29798 0.0
H1057 H 0.24189 0.51904 0.32201 0.0
H1058 H 0.23506 0.54861 0.30952 0.0
H1059 H 0.20989 0.55268 0.34201 0.0
H1060 H 0.2164 0.52299 0.35449 0.0
H1061 H 0.17743 0.51832 0.35245 0.0
H1062 H 0.10702 0.41893 0.30957 0.0
H1063 H 0.12423 0.38694 0.33098 0.0
H1064 H 0.21054 0.46996 0.34744 0.0
C1065 C 0.16914 0.54195 0.30476 0.0
C1066 C 0.1423 0.5402 0.29435 0.0
C1067 C 0.11668 0.51078 0.28956 0.0
C1068 C 0.11732 0.4834 0.29566 0.0
C1069 C 0.14383 0.4859 0.30648 0.0
C1070 C 0.16938 0.51449 0.31085 0.0
C1071 C 0.19397 0.51102 0.32403 0.0
C1072 C 0.22458 0.52324 0.3127 0.0
C1073 C 0.19974 0.52721 0.34445 0.0
C1074 C 0.17795 0.47606 0.32691 0.0
C1075 C 0.14922 0.46189 0.31647 0.0
C1076 C 0.12964 0.42979 0.31759 0.0
C1077 C 0.13958 0.4118 0.32978 0.0
C1078 C 0.16874 0.42596 0.34078 0.0
C1079 C 0.18819 0.45846 0.33911 0.0
H1080 H 0.37135 0.54423 0.2865 0.0
H1081 H 0.43941 0.51839 0.31105 0.0
H1082 H 0.39661 0.4692 0.32506 0.0
H1083 H 0.32126 0.51701 0.3267 0.0
H1084 H 0.2851 0.50219 0.31166 0.0
H1085 H 0.32056 0.53357 0.30177 0.0
H1086 H 0.31388 0.50192 0.26987 0.0
H1087 H 0.2781 0.47055 0.27955 0.0
H1088 H 0.30924 0.46345 0.27296 0.0
H1089 H 0.34734 0.4274 0.34073 0.0
H1090 H 0.29427 0.39226 0.35334 0.0
H1091 H 0.25724 0.44256 0.31605 0.0
C1092 C 0.37689 0.52755 0.29422 0.0
C1093 C 0.40835 0.53443 0.29748 0.0
C1094 C 0.41525 0.51287 0.30815 0.0
C1095 C 0.39115 0.4851 0.3162 0.0
C1096 C 0.36027 0.47915 0.31313 0.0
C1097 C 0.35299 0.49943 0.30199 0.0
C1098 C 0.31799 0.48799 0.3015 0.0
C1099 C 0.31083 0.51159 0.31097 0.0
C1100 C 0.30398 0.48053 0.27967 0.0
C1101 C 0.30686 0.4587 0.31466 0.0
C1102 C 0.33165 0.45412 0.32131 0.0
C1103 C 0.32764 0.43028 0.33519 0.0
C1104 C 0.29753 0.41055 0.34235 0.0
C1105 C 0.27177 0.41443 0.33534 0.0
C1106 C 0.27649 0.43864 0.32119 0.0
H1107 H 0.53159 0.96166 0.32163 0.0
H1108 H 0.4876 0.90073 0.27074 0.0
H1109 H 0.52814 0.88495 0.27367 0.0
H1110 H 0.61405 0.98244 0.31394 0.0
H1111 H 0.62246 0.97977 0.34076 0.0
H1112 H 0.59365 0.99103 0.33235 0.0
H1113 H 0.55235 0.94634 0.35434 0.0
H1114 H 0.58092 0.93483 0.36274 0.0
H1115 H 0.54426 0.90712 0.35081 0.0
H1116 H 0.5701 0.87278 0.28334 0.0
H1117 H 0.60927 0.86152 0.30039 0.0
H1118 H 0.62376 0.92552 0.34811 0.0
C1119 C 0.53106 0.94552 0.31089 0.0
C1120 C 0.50726 0.93339 0.29539 0.0
C1121 C 0.50654 0.91162 0.28193 0.0
C1122 C 0.52927 0.90221 0.28369 0.0
C1123 C 0.55213 0.91425 0.2993 0.0
C1124 C 0.55308 0.93515 0.31284 0.0
C1125 C 0.57782 0.94148 0.3297 0.0
C1126 C 0.60352 0.97572 0.32915 0.0
C1127 C 0.56294 0.93186 0.35063 0.0
C1128 C 0.59022 0.92041 0.32366 0.0
C1129 C 0.57537 0.90548 0.30584 0.0
C1130 C 0.58207 0.88444 0.29722 0.0
C1131 C 0.60447 0.87826 0.3071 0.0
C1132 C 0.61975 0.89273 0.32562 0.0
C1133 C 0.61254 0.91417 0.33399 0.0
H1134 H 0.18145 0.65612 0.32018 0.0
H1135 H 0.08685 0.61965 0.29461 0.0
H1136 H 0.08277 0.66232 0.30966 0.0
H1137 H 0.16663 0.68025 0.36809 0.0
H1138 H 0.20444 0.71476 0.36961 0.0
H1139 H 0.19989 0.68123 0.35692 0.0
H1140 H 0.22257 0.71494 0.32436 0.0
H1141 H 0.22704 0.74852 0.33692 0.0
H1142 H 0.20465 0.73682 0.31319 0.0
H1143 H 0.0897 0.70989 0.32587 0.0
H1144 H 0.10588 0.75807 0.34423 0.0
H1145 H 0.19528 0.7632 0.36118 0.0
C1146 C 0.15986 0.65711 0.31799 0.0
C1147 C 0.13453 0.63491 0.30606 0.0
C1148 C 0.10662 0.6368 0.3034 0.0
C1149 C 0.10408 0.66084 0.31196 0.0
C1150 C 0.12958 0.68266 0.32337 0.0
C1151 C 0.15685 0.68093 0.3266 0.0
C1152 C 0.18067 0.7075 0.33955 0.0
C1153 C 0.18835 0.69519 0.35974 0.0
C1154 C 0.2105 0.72816 0.3278 0.0
C1155 C 0.16256 0.72446 0.34296 0.0
C1156 C 0.13321 0.70975 0.33336 0.0
C1157 C 0.11249 0.72145 0.33363 0.0
C1158 C 0.12192 0.74886 0.34406 0.0
C1159 C 0.15169 0.76418 0.35424 0.0
C1160 C 0.17223 0.75174 0.35372 0.0
H1161 H 0.88979 0.04108 0.40409 0.0
H1162 H 0.83725 0.08869 0.41309 0.0
H1163 H 0.79031 0.04624 0.39625 0.0
H1164 H 0.85445 1.01122 0.35394 0.0
H1165 H 0.85385 0.97463 0.35834 0.0
H1166 H 0.8835 1.00884 0.37091 0.0
H1167 H 0.86702 0.98033 0.40586 0.0
H1168 H 0.83727 0.94609 0.39339 0.0
H1169 H 0.82673 0.96337 0.41283 0.0
H1170 H 0.74898 0.99842 0.38017 0.0
H1171 H 0.71531 0.94862 0.36364 0.0
H1172 H 0.79402 0.93116 0.36325 0.0
C1173 C 0.86835 0.04242 0.40232 0.0
C1174 C 0.86677 0.06787 0.40992 0.0
C1175 C 0.83856 0.06918 0.40741 0.0
C1176 C 0.81193 0.04524 0.3979 0.0
C1177 C 0.81398 0.02023 0.39079 0.0
C1178 C 0.84144 0.01864 0.39268 0.0
C1179 C 0.83696 0.98895 0.38357 0.0
C1180 C 0.85847 0.99636 0.36562 0.0
C1181 C 0.84231 0.96848 0.39989 0.0
C1182 C 0.80269 0.97413 0.37639 0.0
C1183 C 0.79001 0.99264 0.38087 0.0
C1184 C 0.75867 0.98384 0.37642 0.0
C1185 C 0.73972 0.95543 0.36705 0.0
C1186 C 0.75206 0.93609 0.36203 0.0
C1187 C 0.78404 0.94563 0.36673 0.0
H1188 H 0.93048 0.73542 0.40521 0.0
H1189 H 0.94311 0.82122 0.42849 0.0
H1190 H 0.99693 0.84922 0.41575 0.0
H1191 H 0.01186 0.75066 0.41473 0.0
H1192 H 0.01202 0.73308 0.39143 0.0
H1193 H 0.97588 0.71968 0.4042 0.0
H1194 H 0.95086 0.72987 0.37101 0.0
H1195 H 0.98717 0.74409 0.35828 0.0
H1196 H 0.96904 0.76814 0.35929 0.0
H1197 H 0.04783 0.86791 0.39963 0.0
H1198 H 0.09525 0.87618 0.38295 0.0
H1199 H 0.04938 0.77882 0.368 0.0
C1200 C 0.94521 0.75988 0.40816 0.0
C1201 C 0.93359 0.77618 0.41854 0.0
C1202 C 0.95248 0.80839 0.42137 0.0
C1203 C 0.98274 0.82442 0.41392 0.0
C1204 C 0.99341 0.80786 0.40336 0.0
C1205 C 0.97541 0.77628 0.40059 0.0
C1206 C 0.99218 0.7644 0.38799 0.0
C1207 C 0.99836 0.74055 0.40032 0.0
C1208 C 0.9737 0.75083 0.36795 0.0
C1209 C 0.02241 0.79427 0.38414 0.0
C1210 C 0.02246 0.819 0.39316 0.0
C1211 C 0.04803 0.84881 0.3924 0.0
C1212 C 0.07472 0.85332 0.38279 0.0
C1213 C 0.07555 0.82826 0.37389 0.0
C1214 C 0.04886 0.79847 0.37417 0.0
H1215 H 0.23572 0.17907 0.38161 0.0
H1216 H 0.20213 0.17058 0.44225 0.0
H1217 H 0.19691 0.21775 0.43545 0.0
H1218 H 0.27551 0.26326 0.37501 0.0
H1219 H 0.26177 0.26161 0.34886 0.0
H1220 H 0.2679 0.23075 0.35982 0.0
H1221 H 0.21053 0.19054 0.34981 0.0
H1222 H 0.20428 0.22121 0.33876 0.0
H1223 H 0.17893 0.19566 0.35812 0.0
H1224 H 0.19341 0.26527 0.42087 0.0
H1225 H 0.18579 0.30372 0.39916 0.0
H1226 H 0.2141 0.27517 0.34677 0.0
C1227 C 0.22726 0.18712 0.39347 0.0
C1228 C 0.21943 0.17121 0.41249 0.0
C1229 C 0.20884 0.18274 0.42772 0.0
C1230 C 0.20568 0.20943 0.42393 0.0
C1231 C 0.21277 0.224 0.40472 0.0
C1232 C 0.22296 0.21289 0.38968 0.0
C1233 C 0.22561 0.2302 0.36962 0.0
C1234 C 0.25973 0.24748 0.36294 0.0
C1235 C 0.20352 0.20809 0.35311 0.0
C1236 C 0.21494 0.25265 0.37554 0.0
C1237 C 0.20845 0.24938 0.39598 0.0
C1238 C 0.19838 0.26789 0.40487 0.0
C1239 C 0.19424 0.28975 0.39247 0.0
C1240 C 0.19931 0.29224 0.37135 0.0
C1241 C 0.21005 0.27365 0.36289 0.0
H1242 H 0.61647 0.5222 0.72884 0.0
H1243 H 0.64326 0.5121 0.79142 0.0
H1244 H 0.69731 0.55429 0.78555 0.0
H1245 H 0.68635 0.53267 0.7078 0.0
H1246 H 0.68795 0.56022 0.68825 0.0
H1247 H 0.65075 0.53168 0.69794 0.0
H1248 H 0.63907 0.57531 0.70705 0.0
H1249 H 0.6762 0.60401 0.6973 0.0
H1250 H 0.6668 0.60628 0.72301 0.0
H1251 H 0.74915 0.59547 0.77222 0.0
H1252 H 0.79476 0.63259 0.75301 0.0
H1253 H 0.7354 0.61456 0.6981 0.0
C1254 C 0.63372 0.52911 0.74133 0.0
C1255 C 0.62557 0.51405 0.76068 0.0
C1256 C 0.64873 0.52373 0.77665 0.0
C1257 C 0.67957 0.54749 0.77337 0.0
C1258 C 0.68697 0.56131 0.75397 0.0
C1259 C 0.66468 0.5525 0.73822 0.0
C1260 C 0.67907 0.56989 0.71855 0.0
C1261 C 0.67584 0.54726 0.70217 0.0
C1262 C 0.66441 0.59007 0.71104 0.0
C1263 C 0.71308 0.58977 0.72564 0.0
C1264 C 0.71701 0.58454 0.74616 0.0
C1265 C 0.74626 0.59981 0.75618 0.0
C1266 C 0.77213 0.62097 0.74503 0.0
C1267 C 0.76894 0.6268 0.72392 0.0
C1268 C 0.73882 0.61081 0.71417 0.0
H1269 H 0.49304 0.09773 0.7222 0.0
H1270 H 0.53321 0.15318 0.77582 0.0
H1271 H 0.50247 0.18019 0.76754 0.0
H1272 H 0.49258 0.15958 0.68961 0.0
H1273 H 0.45605 0.13394 0.6766 0.0
H1274 H 0.48159 0.11941 0.68662 0.0
H1275 H 0.43615 0.07678 0.7073 0.0
H1276 H 0.4105 0.09119 0.69738 0.0
H1277 H 0.41615 0.08785 0.72449 0.0
H1278 H 0.46583 0.19873 0.7546 0.0
H1279 H 0.42679 0.2101 0.73694 0.0
H1280 H 0.41156 0.1442 0.69047 0.0
C1281 C 0.4953 0.11569 0.73203 0.0
C1282 C 0.51483 0.12327 0.74978 0.0
C1283 C 0.51774 0.14692 0.76238 0.0
C1284 C 0.50058 0.16237 0.75773 0.0
C1285 C 0.48111 0.1541 0.74025 0.0
C1286 C 0.47853 0.13153 0.72748 0.0
C1287 C 0.45576 0.12705 0.70971 0.0
C1288 C 0.4725 0.13551 0.68943 0.0
C1289 C 0.428 0.09374 0.70974 0.0
C1290 C 0.44558 0.15031 0.71469 0.0
C1291 C 0.46052 0.16557 0.73239 0.0
C1292 C 0.45416 0.18717 0.74063 0.0
C1293 C 0.43183 0.19332 0.73053 0.0
C1294 C 0.41622 0.17801 0.71234 0.0
C1295 C 0.42342 0.15645 0.70422 0.0
H1296 H 0.88577 0.40036 0.71066 0.0
H1297 H 0.82881 0.36381 0.76354 0.0
H1298 H 0.81156 0.31019 0.75307 0.0
H1299 H 0.83145 0.34 0.67584 0.0
H1300 H 0.86229 0.33903 0.66273 0.0
H1301 H 0.86921 0.3744 0.67407 0.0
H1302 H 0.91695 0.37678 0.69479 0.0
H1303 H 0.91002 0.34129 0.68365 0.0
H1304 H 0.91175 0.34415 0.71092 0.0
H1305 H 0.80138 0.26075 0.73732 0.0
H1306 H 0.79794 0.21855 0.71681 0.0
H1307 H 0.86194 0.28644 0.67412 0.0
C1308 C 0.8694 0.38093 0.71981 0.0
C1309 C 0.85862 0.38596 0.73793 0.0
C1310 C 0.8374 0.3602 0.7497 0.0
C1311 C 0.82749 0.32978 0.74385 0.0
C1312 C 0.83896 0.32548 0.72611 0.0
C1313 C 0.85931 0.3503 0.71417 0.0
C1314 C 0.86835 0.33912 0.69595 0.0
C1315 C 0.85715 0.34871 0.67597 0.0
C1316 C 0.90388 0.35105 0.69636 0.0
C1317 C 0.8502 0.30422 0.69965 0.0
C1318 C 0.8333 0.2969 0.7171 0.0
C1319 C 0.81452 0.26622 0.72364 0.0
C1320 C 0.81277 0.24239 0.71195 0.0
C1321 C 0.82989 0.24936 0.69409 0.0
C1322 C 0.84887 0.28064 0.68787 0.0
H1323 H 0.1409 1.00149 0.64807 0.0
H1324 H 0.19821 0.96734 0.62367 0.0
H1325 H 0.24629 1.01471 0.63494 0.0
H1326 H 0.19016 0.08206 0.63471 0.0
H1327 H 0.18382 0.09637 0.65763 0.0
H1328 H 0.15403 0.05979 0.64774 0.0
H1329 H 0.1544 0.03237 0.68226 0.0
H1330 H 0.18402 0.06891 0.6923 0.0
H1331 H 0.19084 0.03617 0.69294 0.0
H1332 H 0.28805 0.06623 0.64849 0.0
H1333 H 0.3205 0.11706 0.66463 0.0
H1334 H 0.23608 0.11757 0.6808 0.0
C1335 C 0.16365 1.00401 0.64536 0.0
C1336 C 0.1661 0.98092 0.6351 0.0
C1337 C 0.1961 0.98496 0.63149 0.0
C1338 C 0.22342 1.01172 0.63783 0.0
C1339 C 0.22031 0.03425 0.64781 0.0
C1340 C 0.1912 0.03062 0.65167 0.0
C1341 C 0.19444 0.05829 0.66275 0.0
C1342 C 0.17974 0.07512 0.64994 0.0
C1343 C 0.18008 0.04834 0.68381 0.0
C1344 C 0.22986 0.07799 0.66455 0.0
C1345 C 0.24435 0.06377 0.65574 0.0
C1346 C 0.27695 0.07755 0.65546 0.0
C1347 C 0.29519 0.10646 0.66461 0.0
C1348 C 0.28083 0.12124 0.67396 0.0
C1349 C 0.24773 0.1068 0.67378 0.0
H1350 H 0.07947 0.29686 0.67248 0.0
H1351 H 0.07207 0.25309 0.61559 0.0
H1352 H 0.01447 0.22262 0.61807 0.0
H1353 H 0.01762 0.22827 0.69741 0.0
H1354 H 1.0032 0.24981 0.71033 0.0
H1355 H 0.04395 0.26789 0.70428 0.0
H1356 H 0.03924 0.31248 0.68491 0.0
H1357 H 0.99849 0.29454 0.6909 0.0
H1358 H 0.00969 0.30332 0.66477 0.0
H1359 H 0.95869 0.1989 0.62581 0.0
H1360 H 0.90642 0.18129 0.63884 0.0
H1361 H 0.94903 0.2391 0.6916 0.0
C1362 C 0.06546 0.28075 0.66069 0.0
C1363 C 0.0796 0.27722 0.64375 0.0
C1364 C 0.06112 0.256 0.62851 0.0
C1365 C 0.02861 0.23866 0.62985 0.0
C1366 C 0.01515 0.24274 0.64664 0.0
C1367 C 0.03284 0.26307 0.66187 0.0
C1368 C 0.01217 0.26299 0.67816 0.0
C1369 C 0.01969 0.25155 0.69877 0.0
C1370 C 0.01507 0.29525 0.67977 0.0
C1371 C 0.98017 0.23971 0.66954 0.0
C1372 C 0.98258 0.2284 0.65135 0.0
C1373 C 0.95641 0.20738 0.6401 0.0
C1374 C 0.92683 0.19763 0.64762 0.0
C1375 C 0.92368 0.20881 0.66625 0.0
C1376 C 0.95075 0.22998 0.6774 0.0
H1377 H 0.77749 0.8437 0.64895 0.0
H1378 H 0.85067 0.88531 0.60536 0.0
H1379 H 0.86733 0.84624 0.61511 0.0
H1380 H 0.82022 0.82978 0.68737 0.0
H1381 H 0.78895 0.79302 0.6961 0.0
H1382 H 0.77999 0.82111 0.68361 0.0
H1383 H 0.74413 0.78063 0.65699 0.0
H1384 H 0.7528 0.75225 0.6695 0.0
H1385 H 0.75963 0.76125 0.64278 0.0
H1386 H 0.88179 0.80926 0.63409 0.0
H1387 H 0.88959 0.77352 0.65835 0.0
H1388 H 0.80465 0.75259 0.68803 0.0
C1389 C 0.79648 0.84393 0.64116 0.0
C1390 C 0.81292 0.86732 0.62641 0.0
C1391 C 0.83775 0.86728 0.61653 0.0
C1392 C 0.84735 0.84528 0.62204 0.0
C1393 C 0.83141 0.82312 0.6372 0.0
C1394 C 0.80606 0.82187 0.64634 0.0
C1395 C 0.79417 0.79696 0.66306 0.0
C1396 C 0.79595 0.81107 0.68375 0.0
C1397 C 0.76069 0.77124 0.65776 0.0
C1398 C 0.81751 0.78519 0.66248 0.0
C1399 C 0.8388 0.8006 0.64742 0.0
C1400 C 0.86467 0.79634 0.64545 0.0
C1401 C 0.86896 0.77603 0.65925 0.0
C1402 C 0.8472 0.75969 0.6745 0.0
C1403 C 0.82095 0.76401 0.67597 0.0
H1404 H 0.03649 0.87403 0.61452 0.0
H1405 H 0.1093 0.86666 0.65075 0.0
H1406 H 0.06983 0.81584 0.66479 0.0
H1407 H 0.97929 0.8436 0.6505 0.0
H1408 H 0.94636 0.82194 0.63328 0.0
H1409 H 0.98055 0.85577 0.62413 0.0
H1410 H 0.98584 0.82317 0.59656 0.0
H1411 H 0.95146 0.78923 0.60558 0.0
H1412 H 0.98774 0.78851 0.604 0.0
H1413 H 0.02227 0.77047 0.67857 0.0
H1414 H 0.96983 0.73166 0.68993 0.0
H1415 H 0.92697 0.76503 0.64295 0.0
C1416 C 0.04405 0.86114 0.62494 0.0
C1417 C 0.07582 0.87414 0.63169 0.0
C1418 C 0.08499 0.85708 0.64562 0.0
C1419 C 0.06277 0.82819 0.65355 0.0
C1420 C 0.03145 0.81633 0.6471 0.0
C1421 C 0.02205 0.83198 0.63287 0.0
C1422 C 0.9866 0.8148 0.6295 0.0
C1423 C 0.97238 0.83525 0.63467 0.0
C1424 C 0.97737 0.80324 0.60761 0.0
C1425 C 0.97753 0.78786 0.64469 0.0
C1426 C 1.00384 0.78917 0.65457 0.0
C1427 C 1.00153 0.76876 0.67063 0.0
C1428 C 0.97162 0.74683 0.67701 0.0
C1429 C 0.94428 0.74514 0.66728 0.0
C1430 C 0.94737 0.76543 0.65052 0.0
H1431 H 0.20135 0.30504 0.66639 0.0
H1432 H 0.16575 0.26505 0.60725 0.0
H1433 H 0.20309 0.24471 0.60835 0.0
H1434 H 0.28334 0.32501 0.66129 0.0
H1435 H 0.28756 0.31394 0.68729 0.0
H1436 H 0.26062 0.32828 0.68066 0.0
H1437 H 0.21548 0.27837 0.69645 0.0
H1438 H 0.24221 0.26383 0.70304 0.0
H1439 H 0.20718 0.241 0.68772 0.0
H1440 H 0.24244 0.22681 0.61675 0.0
H1441 H 0.27958 0.21075 0.63222 0.0
H1442 H 0.28704 0.25972 0.68704 0.0
C1443 C 0.20191 0.29235 0.65362 0.0
C1444 C 0.18147 0.28714 0.63653 0.0
C1445 C 0.18207 0.27001 0.62015 0.0
C1446 C 0.20299 0.25825 0.62074 0.0
C1447 C 0.22275 0.26356 0.63794 0.0
C1448 C 0.22229 0.28009 0.65413 0.0
C1449 C 0.24426 0.28061 0.67143 0.0
C1450 C 0.2705 0.31394 0.67539 0.0
C1451 C 0.2262 0.26502 0.6908 0.0
C1452 C 0.25686 0.26145 0.66255 0.0
C1453 C 0.24447 0.25217 0.64313 0.0
C1454 C 0.2524 0.23402 0.63192 0.0
C1455 C 0.27351 0.22503 0.64084 0.0
C1456 C 0.28612 0.23392 0.66086 0.0
C1457 C 0.27769 0.25244 0.67176 0.0
H1458 H 0.85261 0.98752 0.64672 0.0
H1459 H 0.75274 0.93957 0.63275 0.0
H1460 H 0.74837 0.98288 0.64677 0.0
H1461 H 0.84817 0.01954 0.69499 0.0
H1462 H 0.88388 0.0556 0.69124 0.0
H1463 H 0.87886 0.02047 0.68059 0.0
H1464 H 0.89001 0.04719 0.64486 0.0
H1465 H 0.89477 0.08229 0.65536 0.0
H1466 H 0.86661 0.06413 0.6347 0.0
H1467 H 0.75563 0.03283 0.65955 0.0
H1468 H 0.77273 0.08416 0.67384 0.0
H1469 H 0.86769 0.0991 0.68196 0.0
C1470 C 0.82986 0.98615 0.64698 0.0
C1471 C 0.80292 0.96048 0.63869 0.0
C1472 C 0.77348 0.95921 0.63906 0.0
C1473 C 0.77087 0.98366 0.64693 0.0
C1474 C 0.79793 1.009 0.65465 0.0
C1475 C 0.82681 1.01026 0.65507 0.0
C1476 C 0.85213 0.04024 0.66432 0.0
C1477 C 0.86661 0.03355 0.68396 0.0
C1478 C 0.87736 0.0596 0.64888 0.0
C1479 C 0.83302 0.05576 0.66879 0.0
C1480 C 0.80187 0.03739 0.66289 0.0
C1481 C 0.77985 0.04723 0.6645 0.0
C1482 C 0.78982 0.07647 0.67256 0.0
C1483 C 0.82143 0.0954 0.67918 0.0
C1484 C 0.8433 0.08487 0.67727 0.0
H1485 H 0.52843 0.42527 0.71946 0.0
H1486 H 0.5248 0.38844 0.78095 0.0
H1487 H 0.48326 0.33692 0.76989 0.0
H1488 H 0.44723 0.38119 0.70522 0.0
H1489 H 0.45329 0.37397 0.67975 0.0
H1490 H 0.48226 0.40838 0.69245 0.0
H1491 H 0.52503 0.39335 0.6868 0.0
H1492 H 0.49627 0.3591 0.67385 0.0
H1493 H 0.51898 0.35564 0.69536 0.0
H1494 H 0.43981 0.29029 0.75267 0.0
H1495 H 0.40298 0.24947 0.72942 0.0
H1496 H 0.43833 0.31409 0.67817 0.0
C1497 C 0.5191 0.40623 0.73049 0.0
C1498 C 0.52925 0.41103 0.7512 0.0
C1499 C 0.51662 0.3855 0.76518 0.0
C1500 C 0.49315 0.35612 0.759 0.0
C1501 C 0.48305 0.35232 0.73862 0.0
C1502 C 0.4961 0.37643 0.72445 0.0
C1503 C 0.48192 0.36557 0.7033 0.0
C1504 C 0.46518 0.38334 0.69468 0.0
C1505 C 0.50705 0.36859 0.68898 0.0
C1506 C 0.45862 0.33176 0.70789 0.0
C1507 C 0.45936 0.32479 0.72843 0.0
C1508 C 0.43923 0.29541 0.73653 0.0
C1509 C 0.41819 0.2724 0.72323 0.0
C1510 C 0.41775 0.27873 0.70208 0.0
C1511 C 0.43824 0.30877 0.69433 0.0
H1512 H 0.6303 0.13591 0.76234 0.0
H1513 H 0.56786 0.05025 0.73229 0.0
H1514 H 0.61283 0.05278 0.71496 0.0
H1515 H 0.67574 0.17356 0.72214 0.0
H1516 H 0.7128 0.19323 0.7361 0.0
H1517 H 0.67698 0.18237 0.74853 0.0
H1518 H 0.69015 0.15097 0.77639 0.0
H1519 H 0.72664 0.16311 0.76436 0.0
H1520 H 0.70016 0.12239 0.7689 0.0
H1521 H 0.66281 0.06944 0.69715 0.0
H1522 H 0.71583 0.09533 0.68318 0.0
H1523 H 0.74613 0.16874 0.72665 0.0
C1524 C 0.6266 0.11693 0.75298 0.0
C1525 C 0.5962 0.09228 0.74905 0.0
C1526 C 0.5914 0.06868 0.73577 0.0
C1527 C 0.61667 0.07011 0.72586 0.0
C1528 C 0.64645 0.0952 0.72965 0.0
C1529 C 0.65164 0.11785 0.74325 0.0
C1530 C 0.68541 0.14352 0.74357 0.0
C1531 C 0.68785 0.17501 0.7372 0.0
C1532 C 0.70153 0.14505 0.76456 0.0
C1533 C 0.69823 0.13221 0.72764 0.0
C1534 C 0.67539 0.10441 0.7197 0.0
C1535 C 0.68108 0.09084 0.70357 0.0
C1536 C 0.71109 0.10583 0.69561 0.0
C1537 C 0.73494 0.13384 0.70396 0.0
C1538 C 0.72838 0.14708 0.72019 0.0
H1539 H 0.89353 0.50046 0.71475 0.0
H1540 H 0.85725 0.49402 0.77433 0.0
H1541 H 0.85719 0.54331 0.76752 0.0
H1542 H 0.93853 0.58444 0.70825 0.0
H1543 H 0.92563 0.58423 0.68203 0.0
H1544 H 0.92844 0.55142 0.69287 0.0
H1545 H 0.87022 0.51484 0.68244 0.0
H1546 H 0.86732 0.54746 0.67143 0.0
H1547 H 0.84053 0.52306 0.69054 0.0
H1548 H 0.86019 0.59355 0.75379 0.0
H1549 H 0.85687 0.63462 0.73246 0.0
H1550 H 0.88131 0.60304 0.67979 0.0
C1551 C 0.88567 0.50944 0.72641 0.0
C1552 C 0.87661 0.49368 0.74546 0.0
C1553 C 0.86617 0.50624 0.76015 0.0
C1554 C 0.8656 0.53418 0.75627 0.0
C1555 C 0.87456 0.54896 0.73732 0.0
C1556 C 0.88363 0.53657 0.72244 0.0
C1557 C 0.88802 0.55463 0.70245 0.0
C1558 C 0.92219 0.56957 0.69603 0.0
C1559 C 0.86516 0.53376 0.68573 0.0
C1560 C 0.87986 0.57902 0.70839 0.0
C1561 C 0.87307 0.57591 0.72874 0.0
C1562 C 0.86532 0.59607 0.73782 0.0
C1563 C 0.86367 0.61945 0.72566 0.0
C1564 C 0.86883 0.62193 0.70458 0.0
C1565 C 0.8773 0.60162 0.69591 0.0
H1566 H 0.51977 0.99509 0.25872 0.0
H1567 H 0.43856 0.90444 0.25127 0.0
H1568 H 0.44818 0.90658 0.21456 0.0
H1569 H 0.50506 0.02738 0.21428 0.0
H1570 H 0.54543 0.05164 0.20783 0.0
H1571 H 0.53564 0.04074 0.23398 0.0
H1572 H 0.5733 1.01771 0.23711 0.0
H1573 H 0.58334 0.02868 0.21093 0.0
H1574 H 0.56872 0.98891 0.21945 0.0
H1575 H 0.46351 0.92045 0.17869 0.0
H1576 H 0.48192 0.94601 0.14531 0.0
H1577 H 0.55139 0.02952 0.17559 0.0
C1578 C 0.50483 0.97545 0.24932 0.0
C1579 C 0.47901 0.94923 0.25755 0.0
C1580 C 0.4588 0.92432 0.24497 0.0
C1581 C 0.46415 0.92535 0.22425 0.0
C1582 C 0.48961 0.95173 0.21639 0.0
C1583 C 0.5096 0.97642 0.22848 0.0
C1584 C 0.53289 1.00343 0.21577 0.0
C1585 C 0.52953 0.0325 0.2181 0.0
C1586 C 0.56656 1.01006 0.22114 0.0
C1587 C 0.52229 0.99037 0.19467 0.0
C1588 C 0.49769 0.96032 0.19542 0.0
C1589 C 0.48293 0.9439 0.17787 0.0
C1590 C 0.49336 0.95872 0.15899 0.0
C1591 C 0.51804 0.98981 0.15781 0.0
C1592 C 0.53289 1.00558 0.17595 0.0
H1593 H 0.07539 0.55346 0.25263 0.0
H1594 H 0.16894 0.56601 0.25036 0.0
H1595 H 0.15826 0.54948 0.21436 0.0
H1596 H 0.03519 0.48658 0.21709 0.0
H1597 H 0.01026 0.50131 0.2062 0.0
H1598 H 0.02363 0.50816 0.23249 0.0
H1599 H 0.04642 0.56728 0.22576 0.0
H1600 H 0.03366 0.56078 0.19944 0.0
H1601 H 0.07437 0.58633 0.20614 0.0
H1602 H 0.13942 0.53944 0.17705 0.0
H1603 H 0.11427 0.53534 0.14279 0.0
H1604 H 0.03285 0.52941 0.17008 0.0
C1605 C 0.09314 0.55163 0.24466 0.0
C1606 C 0.12284 0.56065 0.25409 0.0
C1607 C 0.14591 0.55865 0.24333 0.0
C1608 C 0.14003 0.54945 0.22291 0.0
C1609 C 0.11083 0.54207 0.21368 0.0
C1610 C 0.08762 0.54265 0.22438 0.0
C1611 C 0.05943 0.53678 0.21069 0.0
C1612 C 0.03041 0.50639 0.21699 0.0
C1613 C 0.05313 0.56444 0.2105 0.0
C1614 C 0.0707 0.53391 0.19042 0.0
C1615 C 0.10021 0.53661 0.1924 0.0
C1616 C 0.11608 0.53671 0.17542 0.0
C1617 C 0.10156 0.53429 0.156 0.0
C1618 C 0.07154 0.53208 0.15365 0.0
C1619 C 0.05588 0.53132 0.17124 0.0
H1620 H 0.49214 0.56034 0.26046 0.0
H1621 H 0.39893 0.5491 0.25226 0.0
H1622 H 0.39417 0.52872 0.21781 0.0
H1623 H 0.51624 0.59068 0.21325 0.0
H1624 H 0.53973 0.57251 0.20957 0.0
H1625 H 0.5332 0.57957 0.23488 0.0
H1626 H 0.51057 0.52128 0.24467 0.0
H1627 H 0.51752 0.51401 0.21944 0.0
H1628 H 0.47883 0.49246 0.22939 0.0
H1629 H 0.40354 0.51818 0.18233 0.0
H1630 H 0.42499 0.51627 0.14969 0.0
H1631 H 0.51239 0.53439 0.18134 0.0
C1632 C 0.47036 0.55242 0.25161 0.0
C1633 C 0.44568 0.55571 0.25895 0.0
C1634 C 0.4177 0.54594 0.24697 0.0
C1635 C 0.41495 0.53459 0.22738 0.0
C1636 C 0.44037 0.53298 0.22015 0.0
C1637 C 0.4674 0.54123 0.23206 0.0
C1638 C 0.49259 0.54057 0.22014 0.0
C1639 C 0.52216 0.57274 0.21942 0.0
C1640 C 0.50032 0.51559 0.22893 0.0
C1641 C 0.47604 0.53184 0.19944 0.0
C1642 C 0.44583 0.52717 0.19975 0.0
C1643 C 0.42693 0.52112 0.18202 0.0
C1644 C 0.43932 0.52002 0.16354 0.0
C1645 C 0.47041 0.52514 0.16286 0.0
C1646 C 0.48864 0.53059 0.18121 0.0
H1647 H 0.94608 0.49776 0.77973 0.0
H1648 H 0.84935 0.44564 0.79649 0.0
H1649 H 0.8648 0.46326 0.83193 0.0
H1650 H 0.97571 0.47695 0.82294 0.0
H1651 H 0.01148 0.51334 0.82583 0.0
H1652 H 0.99265 0.50199 0.80106 0.0
H1653 H 0.99017 0.55314 0.79673 0.0
H1654 H 0.00941 0.56491 0.82143 0.0
H1655 H 0.97224 0.5635 0.81586 0.0
H1656 H 0.89094 0.4814 0.86586 0.0
H1657 H 0.92598 0.4976 0.8965 0.0
H1658 H 0.00683 0.53699 0.85841 0.0
C1659 C 0.92825 0.49139 0.79077 0.0
C1660 C 0.89639 0.4717 0.7854 0.0
C1661 C 0.87365 0.46183 0.80036 0.0
C1662 C 0.88225 0.47161 0.82045 0.0
C1663 C 0.91391 0.49076 0.82543 0.0
C1664 C 0.93663 0.50058 0.81106 0.0
C1665 C 0.96923 0.51793 0.82097 0.0
C1666 C 0.98838 0.50157 0.81749 0.0
C1667 C 0.98627 0.55189 0.81329 0.0
C1668 C 0.96126 0.51562 0.84314 0.0
C1669 C 0.9292 0.50027 0.84531 0.0
C1670 C 0.91609 0.49391 0.86436 0.0
C1671 C 0.93624 0.50334 0.88169 0.0
C1672 C 0.96923 0.51879 0.87995 0.0
C1673 C 0.98176 0.52519 0.86032 0.0
H1674 H 0.58177 0.46387 0.81681 0.0
H1675 H 0.58052 0.53896 0.7811 0.0
H1676 H 0.57442 0.56103 0.81255 0.0
H1677 H 0.52193 0.45001 0.84611 0.0
H1678 H 0.53652 0.44011 0.86945 0.0
H1679 H 0.5486 0.43473 0.84542 0.0
H1680 H 0.60695 0.46933 0.85635 0.0
H1681 H 0.59519 0.47438 0.8807 0.0
H1682 H 0.62004 0.50783 0.86529 0.0
H1683 H 0.55867 0.56891 0.84702 0.0
H1684 H 0.53778 0.56385 0.88113 0.0
H1685 H 0.54763 0.48205 0.89405 0.0
C1686 C 0.58187 0.48586 0.81589 0.0
C1687 C 0.58236 0.50025 0.79673 0.0
C1688 C 0.58108 0.52822 0.79575 0.0
C1689 C 0.57733 0.54065 0.81352 0.0
C1690 C 0.57509 0.52484 0.83213 0.0
C1691 C 0.57784 0.49825 0.83342 0.0
C1692 C 0.57078 0.48333 0.85455 0.0
C1693 C 0.5428 0.4501 0.85382 0.0
C1694 C 0.59998 0.48376 0.86483 0.0
C1695 C 0.56255 0.505 0.86485 0.0
C1696 C 0.56551 0.52901 0.85178 0.0
C1697 C 0.55684 0.5505 0.85745 0.0
C1698 C 0.54473 0.54728 0.87683 0.0
C1699 C 0.54114 0.52263 0.8904 0.0
C1700 C 0.55069 0.50156 0.8843 0.0
H1701 H 0.52115 0.02879 0.79048 0.0
H1702 H 0.61011 0.11314 0.79457 0.0
H1703 H 0.61986 0.09782 0.82927 0.0
H1704 H 0.49863 0.03652 0.83466 0.0
H1705 H 0.47714 0.99616 0.84242 0.0
H1706 H 0.4822 1.00666 0.81591 0.0
H1707 H 0.50759 0.97207 0.81174 0.0
H1708 H 0.50215 0.96088 0.83832 0.0
H1709 H 0.54058 0.97731 0.82809 0.0
H1710 H 0.61418 0.08035 0.86551 0.0
H1711 H 0.59357 0.06342 0.89984 0.0
H1712 H 0.50514 0.99345 0.87324 0.0
C1713 C 0.54332 0.04304 0.79845 0.0
C1714 C 0.5653 0.07162 0.78982 0.0
C1715 C 0.59366 0.09056 0.80066 0.0
C1716 C 0.5992 0.08208 0.82047 0.0
C1717 C 0.57596 0.05469 0.8292 0.0
C1718 C 0.54858 0.03528 0.81844 0.0
C1719 C 0.52454 1.01099 0.8323 0.0
C1720 C 0.49386 1.01273 0.83126 0.0
C1721 C 0.51836 0.97838 0.82731 0.0
C1722 C 0.54177 0.02106 0.8527 0.0
C1723 C 0.57179 0.04556 0.85055 0.0
C1724 C 0.59095 0.06078 0.86736 0.0
C1725 C 0.57887 0.05124 0.88681 0.0
C1726 C 0.54763 0.02714 0.88929 0.0
C1727 C 0.52933 1.01138 0.87197 0.0
H1728 H 0.12833 0.29462 0.58475 0.0
H1729 H 0.21574 0.35412 0.61697 0.0
H1730 H 0.24285 0.36994 0.58412 0.0
H1731 H 0.16048 0.27001 0.54584 0.0
H1732 H 0.13343 0.27043 0.52621 0.0
H1733 H 0.12201 0.26239 0.5523 0.0
H1734 H 0.10899 0.30744 0.55071 0.0
H1735 H 0.12001 0.31537 0.52459 0.0
H1736 H 0.13848 0.34577 0.54288 0.0
H1737 H 0.25891 0.38113 0.54739 0.0
H1738 H 0.2628 0.38837 0.51006 0.0
H1739 H 0.16368 0.32223 0.50246 0.0
C1740 C 0.1531 0.31128 0.58479 0.0
C1741 C 0.17003 0.32389 0.60311 0.0
C1742 C 0.20258 0.34468 0.60289 0.0
C1743 C 0.21802 0.35357 0.58439 0.0
C1744 C 0.20042 0.34108 0.56646 0.0
C1745 C 0.16865 0.32036 0.56658 0.0
C1746 C 0.1546 0.31131 0.54532 0.0
C1747 C 0.14189 0.27646 0.54224 0.0
C1748 C 0.12903 0.32054 0.5406 0.0
C1749 C 0.18327 0.33077 0.53305 0.0
C1750 C 0.20957 0.34748 0.54549 0.0
C1751 C 0.23851 0.36804 0.53753 0.0
C1752 C 0.24044 0.3721 0.51633 0.0
C1753 C 0.21352 0.35586 0.50336 0.0
C1754 C 0.18478 0.33453 0.51192 0.0
H1755 H 0.82371 0.92404 0.56806 0.0
H1756 H 0.75299 0.84488 0.6007 0.0
H1757 H 0.7262 0.8213 0.56801 0.0
H1758 H 0.77307 0.93256 0.53484 0.0
H1759 H 0.79711 0.94465 0.51291 0.0
H1760 H 0.81518 0.95137 0.53803 0.0
H1761 H 0.84415 0.92141 0.52995 0.0
H1762 H 0.82655 0.91494 0.50458 0.0
H1763 H 0.82208 0.88249 0.52062 0.0
H1764 H 0.70186 0.81167 0.53259 0.0
H1765 H 0.6832 0.81531 0.49741 0.0
H1766 H 0.76867 0.90223 0.48779 0.0
C1767 C 0.80319 0.90125 0.56817 0.0
C1768 C 0.79037 0.88609 0.58677 0.0
C1769 C 0.76338 0.85646 0.58654 0.0
C1770 C 0.74797 0.84307 0.56805 0.0
C1771 C 0.76007 0.85959 0.54994 0.0
C1772 C 0.78738 0.88788 0.54985 0.0
C1773 C 0.79331 0.90288 0.52873 0.0
C1774 C 0.79473 0.93473 0.52864 0.0
C1775 C 0.82331 0.90558 0.52048 0.0
C1776 C 0.7644 0.87932 0.51711 0.0
C1777 C 0.74577 0.85427 0.52952 0.0
C1778 C 0.71657 0.83087 0.52264 0.0
C1779 C 0.70605 0.83326 0.50269 0.0
C1780 C 0.72453 0.85897 0.4898 0.0
C1781 C 0.75433 0.88195 0.49709 0.0
H1782 H 0.13941 0.8896 0.59294 0.0
H1783 H 0.05894 0.90245 0.58026 0.0
H1784 H 0.05312 0.8825 0.54549 0.0
H1785 H 0.17291 0.9187 0.54798 0.0
H1786 H 0.18854 0.89289 0.5449 0.0
H1787 H 0.18186 0.90074 0.56995 0.0
H1788 H 0.14626 0.842 0.5774 0.0
H1789 H 0.15334 0.83375 0.55247 0.0
H1790 H 0.11373 0.81946 0.56012 0.0
H1791 H 0.06215 0.86986 0.51051 0.0
H1792 H 0.08382 0.86419 0.47899 0.0
H1793 H 0.15901 0.85999 0.51479 0.0
C1794 C 0.11968 0.88657 0.58308 0.0
C1795 C 0.09897 0.89646 0.58924 0.0
C1796 C 0.07428 0.89392 0.57585 0.0
C1797 C 0.07102 0.88285 0.5561 0.0
C1798 C 0.09273 0.87447 0.55011 0.0
C1799 C 0.11637 0.87583 0.56335 0.0
C1800 C 0.139 0.86933 0.55263 0.0
C1801 C 0.17254 0.89706 0.55394 0.0
C1802 C 0.13801 0.83935 0.56116 0.0
C1803 C 0.12521 0.86528 0.53111 0.0
C1804 C 0.09829 0.86787 0.52995 0.0
C1805 C 0.08283 0.86715 0.51133 0.0
C1806 C 0.09531 0.86387 0.49349 0.0
C1807 C 0.12316 0.86165 0.49434 0.0
C1808 C 0.13784 0.86186 0.51352 0.0
H1809 H 0.55002 0.80569 0.1325 0.0
H1810 H 0.6348 0.84559 0.09885 0.0
H1811 H 0.66634 0.86991 0.13015 0.0
H1812 H 0.57578 0.86853 0.17123 0.0
H1813 H 0.55698 0.84036 0.19138 0.0
H1814 H 0.54078 0.83245 0.16568 0.0
H1815 H 0.54324 0.78119 0.16729 0.0
H1816 H 0.55978 0.78905 0.19282 0.0
H1817 H 0.58016 0.78232 0.17343 0.0
H1818 H 0.6888 0.88367 0.16546 0.0
H1819 H 0.70118 0.88404 0.20229 0.0
H1820 H 0.60178 0.83259 0.21383 0.0
C1821 C 0.57508 0.82085 0.13173 0.0
C1822 C 0.59012 0.82526 0.11328 0.0
C1823 C 0.62305 0.84337 0.11277 0.0
C1824 C 0.64102 0.85702 0.13046 0.0
C1825 C 0.62562 0.85176 0.14861 0.0
C1826 C 0.59336 0.83405 0.1494 0.0
C1827 C 0.58303 0.82811 0.1712 0.0
C1828 C 0.56296 0.84328 0.1751 0.0
C1829 C 0.56554 0.7931 0.17648 0.0
C1830 C 0.61455 0.84436 0.18255 0.0
C1831 C 0.63874 0.85841 0.16922 0.0
C1832 C 0.67004 0.87326 0.17606 0.0
C1833 C 0.67684 0.87343 0.19704 0.0
C1834 C 0.65247 0.85853 0.211 0.0
C1835 C 0.62093 0.84422 0.20356 0.0
H1836 H 0.26759 0.79827 0.15162 0.0
H1837 H 0.24893 0.86204 0.11397 0.0
H1838 H 0.24045 0.88331 0.14477 0.0
H1839 H 0.20608 0.77688 0.18218 0.0
H1840 H 0.22459 0.7722 0.20555 0.0
H1841 H 0.23738 0.76764 0.18153 0.0
H1842 H 0.29427 0.80971 0.19062 0.0
H1843 H 0.28188 0.81409 0.21493 0.0
H1844 H 0.30186 0.84741 0.1982 0.0
H1845 H 0.22541 0.89143 0.17919 0.0
H1846 H 0.20586 0.88631 0.21367 0.0
H1847 H 0.23066 0.81439 0.22891 0.0
C1848 C 0.26284 0.81749 0.15001 0.0
C1849 C 0.25944 0.82891 0.13045 0.0
C1850 C 0.25263 0.85366 0.12881 0.0
C1851 C 0.24741 0.8656 0.14625 0.0
C1852 C 0.249 0.85246 0.16527 0.0
C1853 C 0.25683 0.82908 0.16725 0.0
C1854 C 0.2529 0.816 0.18891 0.0
C1855 C 0.2288 0.78112 0.18957 0.0
C1856 C 0.28462 0.82218 0.19875 0.0
C1857 C 0.24067 0.83493 0.19869 0.0
C1858 C 0.23915 0.85625 0.18492 0.0
C1859 C 0.22704 0.8752 0.19016 0.0
C1860 C 0.21606 0.87217 0.20987 0.0
C1861 C 0.21679 0.85007 0.22418 0.0
C1862 C 0.22966 0.8315 0.21842 0.0
H1863 H 0.21359 0.42215 0.13126 0.0
H1864 H 0.21866 0.34261 0.11187 0.0
H1865 H 0.22159 0.32673 0.14803 0.0
H1866 H 0.2627 0.43583 0.18062 0.0
H1867 H 0.23736 0.44606 0.19316 0.0
H1868 H 0.24403 0.45487 0.16641 0.0
H1869 H 0.18404 0.42492 0.15877 0.0
H1870 H 0.1771 0.41546 0.18531 0.0
H1871 H 0.1618 0.3849 0.16709 0.0
H1872 H 0.21351 0.31475 0.18583 0.0
H1873 H 0.19607 0.30808 0.22122 0.0
H1874 H 0.19526 0.39543 0.21521 0.0
C1875 C 0.21672 0.40218 0.13482 0.0
C1876 C 0.21631 0.38367 0.11914 0.0
C1877 C 0.21955 0.3572 0.12391 0.0
C1878 C 0.22114 0.3481 0.14433 0.0
C1879 C 0.21979 0.36605 0.1596 0.0
C1880 C 0.21813 0.39287 0.155 0.0
C1881 C 0.21252 0.40582 0.17365 0.0
C1882 C 0.24085 0.43752 0.17876 0.0
C1883 C 0.18207 0.40786 0.17104 0.0
C1884 C 0.20954 0.38127 0.18933 0.0
C1885 C 0.21448 0.35885 0.18115 0.0
C1886 C 0.21029 0.33253 0.19248 0.0
C1887 C 0.20036 0.3289 0.21254 0.0
C1888 C 0.19426 0.35121 0.22085 0.0
C1889 C 0.19968 0.37798 0.2092 0.0
H1890 H 0.78229 0.58952 0.90721 0.0
H1891 H 0.86704 0.63827 0.94469 0.0
H1892 H 0.89834 0.65703 0.91374 0.0
H1893 H 0.8162 0.5699 0.86518 0.0
H1894 H 0.79263 0.57738 0.8461 0.0
H1895 H 0.77794 0.56344 0.87114 0.0
H1896 H 0.7691 0.61059 0.87481 0.0
H1897 H 0.78363 0.62458 0.84983 0.0
H1898 H 0.80142 0.6493 0.87136 0.0
H1899 H 0.91923 0.67459 0.87879 0.0
H1900 H 0.92816 0.69184 0.84279 0.0
H1901 H 0.82864 0.63475 0.8285 0.0
C1902 C 0.80748 0.60386 0.9088 0.0
C1903 C 0.82245 0.61249 0.92815 0.0
C1904 C 0.8554 0.63118 0.92989 0.0
C1905 C 0.87324 0.64188 0.91244 0.0
C1906 C 0.85763 0.63365 0.89347 0.0
C1907 C 0.82545 0.6151 0.89157 0.0
C1908 C 0.81388 0.61243 0.86958 0.0
C1909 C 0.79931 0.57878 0.86259 0.0
C1910 C 0.79066 0.62499 0.86621 0.0
C1911 C 0.84445 0.63316 0.85941 0.0
C1912 C 0.86949 0.64466 0.87338 0.0
C1913 C 0.89985 0.66556 0.86769 0.0
C1914 C 0.90462 0.67541 0.84724 0.0
C1915 C 0.87909 0.66474 0.83281 0.0
C1916 C 0.84876 0.64288 0.83902 0.0
H1917 H 0.40534 0.21773 0.92298 0.0
H1918 H 0.50204 0.24325 0.91489 0.0
H1919 H 0.48992 0.23023 0.87845 0.0
H1920 H 0.36827 0.15494 0.88394 0.0
H1921 H 0.3397 0.1668 0.87615 0.0
H1922 H 0.3547 0.17134 0.90215 0.0
H1923 H 0.37118 0.22979 0.89936 0.0
H1924 H 0.35692 0.2257 0.8733 0.0
H1925 H 0.39705 0.25367 0.87968 0.0
H1926 H 0.46878 0.22256 0.84192 0.0
H1927 H 0.44055 0.21925 0.80899 0.0
H1928 H 0.35758 0.2 0.84097 0.0
C1929 C 0.4235 0.21916 0.91363 0.0
C1930 C 0.45439 0.23057 0.92173 0.0
C1931 C 0.47805 0.23344 0.90907 0.0
C1932 C 0.47138 0.22641 0.88833 0.0
C1933 C 0.44088 0.21656 0.88055 0.0
C1934 C 0.41723 0.21258 0.89292 0.0
C1935 C 0.38742 0.20533 0.8806 0.0
C1936 C 0.36096 0.17265 0.88603 0.0
C1937 C 0.37759 0.2301 0.8834 0.0
C1938 C 0.39821 0.20684 0.85928 0.0
C1939 C 0.42896 0.21293 0.85955 0.0
C1940 C 0.44451 0.21719 0.84158 0.0
C1941 C 0.42823 0.21521 0.82292 0.0
C1942 C 0.39676 0.20928 0.8223 0.0
C1943 C 0.38164 0.20475 0.84083 0.0
H1944 H 0.81958 0.22123 0.91834 0.0
H1945 H 0.73642 0.23045 0.9092 0.0
H1946 H 0.729 0.21083 0.87407 0.0
H1947 H 0.84949 0.25102 0.87232 0.0
H1948 H 0.8661 0.22624 0.86853 0.0
H1949 H 0.86077 0.23423 0.89389 0.0
H1950 H 0.82741 0.17537 0.90207 0.0
H1951 H 0.83308 0.16703 0.8768 0.0
H1952 H 0.79398 0.15168 0.88575 0.0
H1953 H 0.73618 0.19789 0.83818 0.0
H1954 H 0.75621 0.19226 0.80585 0.0
H1955 H 0.83533 0.19234 0.8392 0.0
C1956 C 0.79912 0.21779 0.90913 0.0
C1957 C 0.77818 0.22665 0.91636 0.0
C1958 C 0.75218 0.22302 0.90391 0.0
C1959 C 0.74799 0.21208 0.88398 0.0
C1960 C 0.76998 0.20478 0.87693 0.0
C1961 C 0.79484 0.20715 0.88933 0.0
C1962 C 0.81725 0.2014 0.87776 0.0
C1963 C 0.85034 0.22992 0.87815 0.0
C1964 C 0.81796 0.17212 0.88609 0.0
C1965 C 0.80188 0.19648 0.85669 0.0
C1966 C 0.77441 0.19804 0.85646 0.0
C1967 C 0.75737 0.19611 0.83831 0.0
C1968 C 0.7689 0.19286 0.82 0.0
C1969 C 0.79742 0.19195 0.81994 0.0
C1970 C 0.81361 0.1932 0.83866 0.0
H1971 H 0.21912 0.11427 0.46999 0.0
H1972 H 0.28085 0.19461 0.43387 0.0
H1973 H 0.30895 0.22206 0.46542 0.0
H1974 H 0.21646 0.15601 0.51452 0.0
H1975 H 0.21682 0.12719 0.53227 0.0
H1976 H 0.19909 0.11612 0.50714 0.0
H1977 H 0.2349 0.09251 0.50113 0.0
H1978 H 0.25281 0.10358 0.52615 0.0
H1979 H 0.27682 0.11639 0.50419 0.0
H1980 H 0.33351 0.2381 0.50079 0.0
H1981 H 0.35248 0.24185 0.53669 0.0
H1982 H 0.27541 0.14978 0.54945 0.0
C1983 C 0.23815 0.1379 0.46887 0.0
C1984 C 0.24777 0.1526 0.44967 0.0
C1985 C 0.27295 0.18332 0.44854 0.0
C1986 C 0.28901 0.19893 0.46635 0.0
C1987 C 0.27946 0.18341 0.4851 0.0
C1988 C 0.25447 0.1536 0.48644 0.0
C1989 C 0.25043 0.14098 0.50815 0.0
C1990 C 0.21882 0.13471 0.51598 0.0
C1991 C 0.25397 0.11164 0.51 0.0
C1992 C 0.27754 0.16802 0.51883 0.0
C1993 C 0.29381 0.19241 0.50533 0.0
C1994 C 0.32073 0.21926 0.5115 0.0
C1995 C 0.33145 0.22108 0.53191 0.0
C1996 C 0.31543 0.19613 0.54594 0.0
C1997 C 0.28786 0.16949 0.53925 0.0
H1998 H 0.92618 0.11869 0.4825 0.0
H1999 H 0.91164 0.18225 0.44177 0.0
H2000 H 0.90239 0.20563 0.47113 0.0
H2001 H 0.86321 0.1004 0.51094 0.0
H2002 H 0.87998 0.09609 0.53517 0.0
H2003 H 0.89376 0.08992 0.51205 0.0
H2004 H 0.95064 0.13119 0.52198 0.0
H2005 H 0.93722 0.13718 0.5454 0.0
H2006 H 0.95891 0.1696 0.52835 0.0
H2007 H 0.88627 0.21615 0.50423 0.0
H2008 H 0.86484 0.21315 0.5378 0.0
H2009 H 0.88585 0.13977 0.5569 0.0
C2010 C 0.92217 0.1383 0.47994 0.0
C2011 C 0.9203 0.14916 0.45993 0.0
C2012 C 0.91431 0.17436 0.45699 0.0
C2013 C 0.90867 0.18751 0.47361 0.0
C2014 C 0.90891 0.17505 0.49308 0.0
C2015 C 0.91572 0.15108 0.49633 0.0
C2016 C 0.91021 0.1389 0.51817 0.0
C2017 C 0.88531 0.10429 0.51912 0.0
C2018 C 0.94109 0.14457 0.52912 0.0
C2019 C 0.89825 0.15901 0.52656 0.0
C2020 C 0.89827 0.18014 0.51197 0.0
C2021 C 0.88668 0.20007 0.51585 0.0
C2022 C 0.8746 0.19824 0.53503 0.0
C2023 C 0.87375 0.17634 0.5501 0.0
C2024 C 0.88611 0.15675 0.54575 0.0
H2025 H 0.87388 0.69788 0.46153 0.0
H2026 H 0.9311 0.79754 0.46198 0.0
H2027 H 0.94211 0.79509 0.49883 0.0
H2028 H 0.83439 0.69353 0.50084 0.0
H2029 H 0.82926 0.65746 0.5122 0.0
H2030 H 0.83556 0.66493 0.48548 0.0
H2031 H 0.88372 0.65629 0.48904 0.0
H2032 H 0.87722 0.648 0.51586 0.0
H2033 H 0.91485 0.67781 0.50746 0.0
H2034 H 0.93532 0.78354 0.53589 0.0
H2035 H 0.91267 0.76408 0.56954 0.0
H2036 H 0.85609 0.67188 0.54548 0.0
C2037 C 0.89033 0.71882 0.46933 0.0
C2038 C 0.90256 0.74776 0.45895 0.0
C2039 C 0.92271 0.7751 0.46952 0.0
C2040 C 0.92875 0.77385 0.49054 0.0
C2041 C 0.91433 0.74505 0.5007 0.0
C2042 C 0.8958 0.71787 0.49037 0.0
C2043 C 0.87789 0.69086 0.50495 0.0
C2044 C 0.84219 0.67586 0.50061 0.0
C2045 C 0.8891 0.66682 0.50429 0.0
C2046 C 0.88752 0.70742 0.52498 0.0
C2047 C 0.90925 0.73846 0.5223 0.0
C2048 C 0.91891 0.75913 0.53824 0.0
C2049 C 0.90566 0.74794 0.55725 0.0
C2050 C 0.88263 0.71644 0.56012 0.0
C2051 C 0.87418 0.69588 0.54388 0.0
loop_
_geom_bond_atom_site_label_1
_geom_bond_atom_site_label_2
_geom_bond_distance
_geom_bond_site_symmetry_2
_ccdc_geom_bond_type
C0 N1 1.317 . S
C0 N2 1.348 . S
C0 C3 1.485 . S
N1 C0 1.317 . S
N1 N5 1.370 . S
N2 C0 1.348 . S
N2 C4 1.346 . S
C3 C0 1.485 . S
C3 H7 0.960 . S
C3 H8 0.961 . S
C3 H9 0.960 . S
C4 N2 1.346 . S
C4 N5 1.307 . S
C4 C6 1.486 . S
N5 N1 1.370 . S
N5 C4 1.307 . S
C6 C4 1.486 . S
C6 H10 0.960 . S
C6 H11 0.960 . S
C6 H12 0.959 . S
H7 C3 0.960 . S
H8 C3 0.961 . S
H9 C3 0.960 . S
H10 C6 0.960 . S
H11 C6 0.960 . S
H12 C6 0.959 . S
C13 N14 1.317 . S
C13 N15 1.348 . S
C13 C16 1.485 . S
N14 C13 1.317 . S
N14 N18 1.370 . S
N15 C13 1.348 . S
N15 C17 1.346 . S
C16 C13 1.485 . S
C16 H20 0.960 . S
C16 H21 0.961 . S
C16 H22 0.960 . S
C17 N15 1.346 . S
C17 N18 1.307 . S
C17 C19 1.486 . S
N18 N14 1.370 . S
N18 C17 1.307 . S
C19 C17 1.486 . S
C19 H23 0.960 . S
C19 H24 0.960 . S
C19 H25 0.959 . S
H20 C16 0.960 . S
H21 C16 0.961 . S
H22 C16 0.960 . S
H23 C19 0.960 . S
H24 C19 0.960 . S
H25 C19 0.959 . S
C26 N27 1.317 . S
C26 N28 1.348 . S
C26 C29 1.485 . S
N27 C26 1.317 . S
N27 N31 1.370 . S
N28 C26 1.348 . S
N28 C30 1.346 . S
C29 C26 1.485 . S
C29 H33 0.960 . S
C29 H34 0.961 . S
C29 H35 0.960 . S
C30 N28 1.346 . S
C30 N31 1.307 . S
C30 C32 1.486 . S
N31 N27 1.370 . S
N31 C30 1.307 . S
C32 C30 1.486 . S
C32 H36 0.960 . S
C32 H37 0.960 . S
C32 H38 0.959 . S
H33 C29 0.960 . S
H34 C29 0.961 . S
H35 C29 0.960 . S
H36 C32 0.960 . S
H37 C32 0.960 . S
H38 C32 0.959 . S
C39 N40 1.317 . S
C39 N41 1.348 . S
C39 C42 1.485 . S
N40 C39 1.317 . S
N40 N44 1.370 . S
N41 C39 1.348 . S
N41 C43 1.346 . S
C42 C39 1.485 . S
C42 H46 0.960 . S
C42 H47 0.961 . S
C42 H48 0.960 . S
C43 N41 1.346 . S
C43 N44 1.307 . S
C43 C45 1.486 . S
N44 N40 1.370 . S
N44 C43 1.307 . S
C45 C43 1.486 . S
C45 H49 0.960 . S
C45 H50 0.960 . S
C45 H51 0.959 . S
H46 C42 0.960 . S
H47 C42 0.961 . S
H48 C42 0.960 . S
H49 C45 0.960 . S
H50 C45 0.960 . S
H51 C45 0.959 . S
C52 N53 1.317 . S
C52 N54 1.348 . S
C52 C55 1.485 . S
N53 C52 1.317 . S
N53 N57 1.370 . S
N54 C52 1.348 . S
N54 C56 1.346 . S
C55 C52 1.485 . S
C55 H59 0.960 . S
C55 H60 0.961 . S
C55 H61 0.960 . S
C56 N54 1.346 . S
C56 N57 1.307 . S
C56 C58 1.486 . S
N57 N53 1.370 . S
N57 C56 1.307 . S
C58 C56 1.486 . S
C58 H62 0.960 . S
C58 H63 0.960 . S
C58 H64 0.959 . S
H59 C55 0.960 . S
H60 C55 0.961 . S
H61 C55 0.960 . S
H62 C58 0.960 . S
H63 C58 0.960 . S
H64 C58 0.959 . S
C65 N66 1.317 . S
C65 N67 1.348 . S
C65 C68 1.485 . S
N66 C65 1.317 . S
N66 N70 1.370 . S
N67 C65 1.348 . S
N67 C69 1.346 . S
C68 C65 1.485 . S
C68 H72 0.960 . S
C68 H73 0.961 . S
C68 H74 0.960 . S
C69 N67 1.346 . S
C69 N70 1.307 . S
C69 C71 1.486 . S
N70 N66 1.370 . S
N70 C69 1.307 . S
C71 C69 1.486 . S
C71 H75 0.960 . S
C71 H76 0.960 . S
C71 H77 0.959 . S
H72 C68 0.960 . S
H73 C68 0.961 . S
H74 C68 0.960 . S
H75 C71 0.960 . S
H76 C71 0.960 . S
H77 C71 0.959 . S
C78 N79 1.317 . S
C78 N80 1.348 . S
C78 C81 1.485 . S
N79 C78 1.317 . S
N79 N83 1.370 . S
N80 C78 1.348 . S
N80 C82 1.346 . S
C81 C78 1.485 . S
C81 H85 0.960 . S
C81 H86 0.961 . S
C81 H87 0.960 . S
C82 N80 1.346 . S
C82 N83 1.307 . S
C82 C84 1.486 . S
N83 N79 1.370 . S
N83 C82 1.307 . S
C84 C82 1.486 . S
C84 H88 0.960 . S
C84 H89 0.960 . S
C84 H90 0.959 . S
H85 C81 0.960 . S
H86 C81 0.961 . S
H87 C81 0.960 . S
H88 C84 0.960 . S
H89 C84 0.960 . S
H90 C84 0.959 . S
C91 N92 1.317 . S
C91 N93 1.348 . S
C91 C94 1.485 . S
N92 C91 1.317 . S
N92 N96 1.370 . S
N93 C91 1.348 . S
N93 C95 1.346 . S
C94 C91 1.485 . S
C94 H98 0.960 . S
C94 H99 0.961 . S
C94 H100 0.960 . S
C95 N93 1.346 . S
C95 N96 1.307 . S
C95 C97 1.486 . S
N96 N92 1.370 . S
N96 C95 1.307 . S
C97 C95 1.486 . S
C97 H101 0.960 . S
C97 H102 0.960 . S
C97 H103 0.959 . S
H98 C94 0.960 . S
H99 C94 0.961 . S
H100 C94 0.960 . S
H101 C97 0.960 . S
H102 C97 0.960 . S
H103 C97 0.959 . S
C104 N105 1.317 . S
C104 N106 1.348 . S
C104 C107 1.485 . S
N105 C104 1.317 . S
N105 N109 1.370 . S
N106 C104 1.348 . S
N106 C108 1.346 . S
C107 C104 1.485 . S
C107 H111 0.960 . S
C107 H112 0.961 . S
C107 H113 0.960 . S
C108 N106 1.346 . S
C108 N109 1.307 . S
C108 C110 1.486 . S
N109 N105 1.370 . S
N109 C108 1.307 . S
C110 C108 1.486 . S
C110 H114 0.960 . S
C110 H115 0.960 . S
C110 H116 0.959 . S
H111 C107 0.960 . S
H112 C107 0.961 . S
H113 C107 0.960 . S
H114 C110 0.960 . S
H115 C110 0.960 . S
H116 C110 0.959 . S
C117 N118 1.317 . S
C117 N119 1.348 . S
C117 C120 1.485 . S
N118 C117 1.317 . S
N118 N122 1.370 . S
N119 C117 1.348 . S
N119 C121 1.346 . S
C120 C117 1.485 . S
C120 H124 0.960 . S
C120 H125 0.961 . S
C120 H126 0.960 . S
C121 N119 1.346 . S
C121 N122 1.307 . S
C121 C123 1.486 . S
N122 N118 1.370 . S
N122 C121 1.307 . S
C123 C121 1.486 . S
C123 H127 0.960 . S
C123 H128 0.960 . S
C123 H129 0.959 . S
H124 C120 0.960 . S
H125 C120 0.961 . S
H126 C120 0.960 . S
H127 C123 0.960 . S
H128 C123 0.960 . S
H129 C123 0.959 . S
C130 N131 1.317 . S
C130 N132 1.348 . S
C130 C133 1.485 1_556 S
N131 C130 1.317 . S
N131 N135 1.370 . S
N132 C130 1.348 . S
N132 C134 1.346 . S
C133 C130 1.485 1_554 S
C133 H137 0.960 . S
C133 H138 0.961 . S
C133 H139 0.960 . S
C134 N132 1.346 . S
C134 N135 1.307 . S
C134 C136 1.486 . S
N135 N131 1.370 . S
N135 C134 1.307 . S
C136 C134 1.486 . S
C136 H140 0.960 . S
C136 H141 0.960 . S
C136 H142 0.959 . S
H137 C133 0.960 . S
H138 C133 0.961 . S
H139 C133 0.960 . S
H140 C136 0.960 . S
H141 C136 0.960 . S
H142 C136 0.959 . S
C143 N144 1.317 . S
C143 N145 1.348 . S
C143 C146 1.485 1_556 S
N144 C143 1.317 . S
N144 N148 1.370 . S
N145 C143 1.348 . S
N145 C147 1.346 . S
C146 C143 1.485 1_554 S
C146 H150 0.960 . S
C146 H151 0.961 . S
C146 H152 0.960 . S
C147 N145 1.346 . S
C147 N148 1.307 . S
C147 C149 1.486 . S
N148 N144 1.370 . S
N148 C147 1.307 . S
C149 C147 1.486 . S
C149 H153 0.960 . S
C149 H154 0.960 . S
C149 H155 0.959 . S
H150 C146 0.960 . S
H151 C146 0.961 . S
H152 C146 0.960 . S
H153 C149 0.960 . S
H154 C149 0.960 . S
H155 C149 0.959 . S
C156 N157 1.317 . S
C156 N158 1.348 . S
C156 C159 1.485 . S
N157 C156 1.317 . S
N157 N161 1.370 . S
N158 C156 1.348 . S
N158 C160 1.346 . S
C159 C156 1.485 . S
C159 H163 0.960 . S
C159 H164 0.944 1_554 S
C159 H165 0.960 . S
C160 N158 1.346 . S
C160 N161 1.307 . S
C160 C162 1.486 . S
N161 N157 1.370 . S
N161 C160 1.307 . S
C162 C160 1.486 . S
C162 H166 0.960 . S
C162 H167 0.960 . S
C162 H168 0.959 . S
H163 C159 0.960 . S
H164 C159 0.944 1_556 S
H165 C159 0.960 . S
H166 C162 0.960 . S
H167 C162 0.960 . S
H168 C162 0.959 . S
C169 N170 1.317 . S
C169 N171 1.348 . S
C169 C172 1.485 . S
N170 C169 1.317 . S
N170 N174 1.370 . S
N171 C169 1.348 . S
N171 C173 1.346 . S
C172 C169 1.485 . S
C172 H176 0.960 . S
C172 H177 0.961 . S
C172 H178 0.960 . S
C173 N171 1.346 . S
C173 N174 1.307 . S
C173 C175 1.486 . S
N174 N170 1.370 . S
N174 C173 1.307 . S
C175 C173 1.486 . S
C175 H179 0.960 . S
C175 H180 0.960 . S
C175 H181 0.959 . S
H176 C172 0.960 . S
H177 C172 0.961 . S
H178 C172 0.960 . S
H179 C175 0.960 . S
H180 C175 0.960 . S
H181 C175 0.959 . S
C182 N183 1.317 . S
C182 N184 1.348 . S
C182 C185 1.485 . S
N183 C182 1.317 . S
N183 N187 1.370 . S
N184 C182 1.348 . S
N184 C186 1.346 . S
C185 C182 1.485 . S
C185 H189 0.960 . S
C185 H190 0.961 . S
C185 H191 0.960 . S
C186 N184 1.346 . S
C186 N187 1.307 . S
C186 C188 1.486 . S
N187 N183 1.370 . S
N187 C186 1.307 . S
C188 C186 1.486 . S
C188 H192 0.960 . S
C188 H193 0.960 . S
C188 H194 0.959 . S
H189 C185 0.960 . S
H190 C185 0.961 . S
H191 C185 0.960 . S
H192 C188 0.960 . S
H193 C188 0.960 . S
H194 C188 0.959 . S
C195 N196 1.317 . S
C195 N197 1.348 . S
C195 C198 1.485 . S
N196 C195 1.317 . S
N196 N200 1.370 . S
N197 C195 1.348 . S
N197 C199 1.346 . S
C198 C195 1.485 . S
C198 H202 0.960 . S
C198 H203 0.961 . S
C198 H204 0.960 . S
C199 N197 1.346 . S
C199 N200 1.307 . S
C199 C201 1.486 . S
N200 N196 1.370 . S
N200 C199 1.307 . S
C201 C199 1.486 . S
C201 H205 0.960 . S
C201 H206 0.960 . S
C201 H207 0.959 . S
H202 C198 0.960 . S
H203 C198 0.961 . S
H204 C198 0.960 . S
H205 C201 0.960 . S
H206 C201 0.960 . S
H207 C201 0.959 . S
C208 N209 1.317 . S
C208 N210 1.348 . S
C208 C211 1.485 . S
N209 C208 1.317 . S
N209 N213 1.370 . S
N210 C208 1.348 . S
N210 C212 1.346 . S
C211 C208 1.485 . S
C211 H215 0.960 . S
C211 H216 0.961 . S
C211 H217 0.960 . S
C212 N210 1.346 . S
C212 N213 1.307 . S
C212 C214 1.486 . S
N213 N209 1.370 . S
N213 C212 1.307 . S
C214 C212 1.486 . S
C214 H218 0.960 . S
C214 H219 0.960 . S
C214 H220 0.959 . S
H215 C211 0.960 . S
H216 C211 0.961 . S
H217 C211 0.960 . S
H218 C214 0.960 . S
H219 C214 0.960 . S
H220 C214 0.959 . S
C221 N222 1.317 . S
C221 N223 1.348 . S
C221 C224 1.485 . S
N222 C221 1.317 . S
N222 N226 1.370 . S
N223 C221 1.348 . S
N223 C225 1.346 . S
C224 C221 1.485 . S
C224 H228 0.960 . S
C224 H229 0.961 . S
C224 H230 0.960 . S
C225 N223 1.346 . S
C225 N226 1.307 . S
C225 C227 1.486 . S
N226 N222 1.370 . S
N226 C225 1.307 . S
C227 C225 1.486 . S
C227 H231 0.960 . S
C227 H232 0.960 . S
C227 H233 0.959 . S
H228 C224 0.960 . S
H229 C224 0.961 . S
H230 C224 0.960 . S
H231 C227 0.960 . S
H232 C227 0.960 . S
H233 C227 0.959 . S
C234 Eu235 2.835 1_565 S
C234 C236 1.500 . S
C234 O254 1.257 . S
C234 O255 1.260 1_565 S
Eu235 C234 2.835 1_545 S
Eu235 O254 2.473 1_545 S
Eu235 O255 2.480 . S
Eu235 O256 2.430 . S
Eu235 O257 2.670 . S
Eu235 O258 2.394 1_545 S
Eu235 O263 2.355 1_545 S
Eu235 O265 2.374 . S
C236 C234 1.500 . S
C236 C237 1.377 . S
C236 C241 1.377 . S
C237 C236 1.377 . S
C237 C238 1.395 . S
C237 H266 0.931 1_565 S
C238 C237 1.395 . S
C238 C239 1.383 . S
C238 H267 0.931 . S
C239 C238 1.383 . S
C239 C240 1.394 . S
C240 C239 1.394 . S
C240 C241 1.378 . S
C240 H268 0.931 . S
C241 C236 1.377 . S
C241 C240 1.378 . S
C241 H269 0.931 . S
C242 O256 1.259 . S
C242 O257 1.270 . S
C243 O258 1.251 . S
C243 O259 1.251 . S
C244 Eu245 2.835 1_545 S
C244 C246 1.500 . S
C244 O260 1.257 . S
C244 O261 1.260 1_545 S
Eu245 C244 2.835 1_565 S
Eu245 O257 2.355 1_566 S
Eu245 O259 2.374 1_556 S
Eu245 O260 2.473 1_565 S
Eu245 O261 2.480 . S
Eu245 O262 2.430 . S
Eu245 O263 2.670 1_556 S
Eu245 O264 2.394 1_565 S
C246 C244 1.500 . S
C246 C247 1.377 . S
C246 C251 1.377 . S
C247 C246 1.377 . S
C247 C248 1.395 . S
C247 H270 0.931 1_545 S
C248 C247 1.395 . S
C248 C249 1.383 . S
C248 H271 0.931 . S
C249 C248 1.383 . S
C249 C250 1.394 . S
C250 C249 1.394 . S
C250 C251 1.378 . S
C250 H272 0.931 . S
C251 C246 1.377 . S
C251 C250 1.378 . S
C251 H273 0.931 . S
C252 O262 1.259 1_554 S
C252 O263 1.270 . S
C253 O264 1.251 1_554 S
C253 O265 1.251 . S
O254 C234 1.257 . S
O254 Eu235 2.473 1_565 S
O255 C234 1.260 1_545 S
O255 Eu235 2.480 . S
O256 Eu235 2.430 . S
O256 C242 1.259 . S
O257 Eu235 2.670 . S
O257 C242 1.270 . S
O257 Eu245 2.355 1_544 S
O258 Eu235 2.394 1_565 S
O258 C243 1.251 . S
O259 C243 1.251 . S
O259 Eu245 2.374 1_554 S
O260 C244 1.257 . S
O260 Eu245 2.473 1_545 S
O261 C244 1.260 1_565 S
O261 Eu245 2.480 . S
O262 Eu245 2.430 . S
O262 C252 1.259 1_556 S
O263 Eu235 2.355 1_565 S
O263 Eu245 2.670 1_554 S
O263 C252 1.270 . S
O264 Eu245 2.394 1_545 S
O264 C253 1.251 1_556 S
O265 Eu235 2.374 . S
O265 C253 1.251 . S
H266 C237 0.931 1_545 S
H267 C238 0.931 . S
H268 C240 0.931 . S
H269 C241 0.931 . S
H270 C247 0.931 1_565 S
H271 C248 0.931 . S
H272 C250 0.931 . S
H273 C251 0.931 . S
C274 Eu275 2.835 1_455 S
C274 C276 1.500 . S
C274 O294 1.257 . S
C274 O295 1.260 1_455 S
Eu275 C274 2.835 1_655 S
Eu275 O294 2.473 1_655 S
Eu275 O295 2.480 . S
Eu275 O296 2.430 . S
Eu275 O297 2.670 1_554 S
Eu275 O298 2.394 1_655 S
Eu275 O303 2.355 1_655 S
Eu275 O305 2.374 . S
C276 C274 1.500 . S
C276 C277 1.377 . S
C276 C281 1.377 . S
C277 C276 1.377 . S
C277 C278 1.395 . S
C277 H306 0.931 1_455 S
C278 C277 1.395 . S
C278 C279 1.383 . S
C278 H307 0.931 . S
C279 C278 1.383 . S
C279 C280 1.394 . S
C280 C279 1.394 . S
C280 C281 1.378 . S
C280 H308 0.931 . S
C281 C276 1.377 . S
C281 C280 1.378 . S
C281 H309 0.931 . S
C282 O296 1.259 . S
C282 O297 1.270 1_554 S
C283 O298 1.251 . S
C283 O299 1.251 . S
C284 Eu285 2.835 . S
C284 C286 1.500 1_455 S
C284 O300 1.257 1_455 S
C284 O301 1.260 . S
Eu285 C284 2.835 . S
Eu285 O297 2.355 1_455 S
Eu285 O299 2.374 1_556 S
Eu285 O300 2.473 1_455 S
Eu285 O301 2.480 . S
Eu285 O302 2.430 . S
Eu285 O303 2.670 1_556 S
Eu285 O304 2.394 1_455 S
C286 C284 1.500 1_655 S
C286 C287 1.377 1_655 S
C286 C291 1.377 . S
C287 C286 1.377 1_455 S
C287 C288 1.395 . S
C287 H310 0.931 . S
C288 C287 1.395 . S
C288 C289 1.383 1_455 S
C288 H311 0.931 . S
C289 C288 1.383 1_655 S
C289 C290 1.394 . S
C290 C289 1.394 . S
C290 C291 1.378 . S
C290 H312 0.931 . S
C291 C286 1.377 . S
C291 C290 1.378 . S
C291 H313 0.931 . S
C292 O302 1.259 1_554 S
C292 O303 1.270 . S
C293 O304 1.251 . S
C293 O305 1.251 1_556 S
O294 C274 1.257 . S
O294 Eu275 2.473 1_455 S
O295 C274 1.260 1_655 S
O295 Eu275 2.480 . S
O296 Eu275 2.430 . S
O296 C282 1.259 . S
O297 Eu275 2.670 1_556 S
O297 C282 1.270 1_556 S
O297 Eu285 2.355 1_655 S
O298 Eu275 2.394 1_455 S
O298 C283 1.251 . S
O299 C283 1.251 . S
O299 Eu285 2.374 1_554 S
O300 C284 1.257 1_655 S
O300 Eu285 2.473 1_655 S
O301 C284 1.260 . S
O301 Eu285 2.480 . S
O302 Eu285 2.430 . S
O302 C292 1.259 1_556 S
O303 Eu275 2.355 1_455 S
O303 Eu285 2.670 1_554 S
O303 C292 1.270 . S
O304 Eu285 2.394 1_655 S
O304 C293 1.251 . S
O305 Eu275 2.374 . S
O305 C293 1.251 1_554 S
H306 C277 0.931 1_655 S
H307 C278 0.931 . S
H308 C280 0.931 . S
H309 C281 0.931 . S
H310 C287 0.931 . S
H311 C288 0.931 . S
H312 C290 0.931 . S
H313 C291 0.931 . S
C314 Eu315 2.835 . S
C314 C316 1.500 . S
C314 O334 1.257 . S
C314 O335 1.260 . S
Eu315 C314 2.835 . S
Eu315 O334 2.473 . S
Eu315 O335 2.480 . S
Eu315 O336 2.430 . S
Eu315 O337 2.670 1_556 S
Eu315 O338 2.394 . S
Eu315 O343 2.355 1_556 S
Eu315 O345 2.374 1_556 S
C316 C314 1.500 . S
C316 C317 1.377 . S
C316 C321 1.377 . S
C317 C316 1.377 . S
C317 C318 1.395 . S
C317 H346 0.931 . S
C318 C317 1.395 . S
C318 C319 1.383 . S
C318 H347 0.931 . S
C319 C318 1.383 . S
C319 C320 1.394 . S
C320 C319 1.394 . S
C320 C321 1.378 . S
C320 H348 0.931 . S
C321 C316 1.377 . S
C321 C320 1.378 . S
C321 H349 0.931 . S
C322 O336 1.259 1_554 S
C322 O337 1.270 . S
C323 O338 1.251 1_554 S
C323 O339 1.251 . S
C324 Eu325 2.835 . S
C324 C326 1.500 . S
C324 O340 1.257 . S
C324 O341 1.260 . S
Eu325 C324 2.835 . S
Eu325 O337 2.355 . S
Eu325 O339 2.374 . S
Eu325 O340 2.473 . S
Eu325 O341 2.480 . S
Eu325 O342 2.430 . S
Eu325 O343 2.670 . S
Eu325 O344 2.394 . S
C326 C324 1.500 . S
C326 C327 1.377 . S
C326 C331 1.377 . S
C327 C326 1.377 . S
C327 C328 1.395 . S
C327 H350 0.931 . S
C328 C327 1.395 . S
C328 C329 1.383 . S
C328 H351 0.931 . S
C329 C328 1.383 . S
C329 C330 1.394 . S
C330 C329 1.394 . S
C330 C331 1.378 . S
C330 H352 0.931 . S
C331 C326 1.377 . S
C331 C330 1.378 . S
C331 H353 0.931 . S
C332 O342 1.259 . S
C332 O343 1.270 . S
C333 O344 1.251 . S
C333 O345 1.251 . S
O334 C314 1.257 . S
O334 Eu315 2.473 . S
O335 C314 1.260 . S
O335 Eu315 2.480 . S
O336 Eu315 2.430 . S
O336 C322 1.259 1_556 S
O337 Eu315 2.670 1_554 S
O337 C322 1.270 . S
O337 Eu325 2.355 . S
O338 Eu315 2.394 . S
O338 C323 1.251 1_556 S
O339 C323 1.251 . S
O339 Eu325 2.374 . S
O340 C324 1.257 . S
O340 Eu325 2.473 . S
O341 C324 1.260 . S
O341 Eu325 2.480 . S
O342 Eu325 2.430 . S
O342 C332 1.259 . S
O343 Eu315 2.355 1_554 S
O343 Eu325 2.670 . S
O343 C332 1.270 . S
O344 Eu325 2.394 . S
O344 C333 1.251 . S
O345 Eu315 2.374 1_554 S
O345 C333 1.251 . S
H346 C317 0.931 . S
H347 C318 0.931 . S
H348 C320 0.931 . S
H349 C321 0.931 . S
H350 C327 0.931 . S
H351 C328 0.931 . S
H352 C330 0.931 . S
H353 C331 0.931 . S
C354 Eu355 2.835 . S
C354 C356 1.500 . S
C354 O374 1.257 . S
C354 O375 1.260 . S
Eu355 C354 2.835 . S
Eu355 O374 2.473 . S
Eu355 O375 2.480 . S
Eu355 O376 2.430 . S
Eu355 O377 2.670 . S
Eu355 O378 2.394 . S
Eu355 O383 2.355 . S
Eu355 O385 2.374 . S
C356 C354 1.500 . S
C356 C357 1.377 . S
C356 C361 1.377 . S
C357 C356 1.377 . S
C357 C358 1.395 . S
C357 H386 0.931 . S
C358 C357 1.395 . S
C358 C359 1.383 . S
C358 H387 0.931 . S
C359 C358 1.383 . S
C359 C360 1.394 . S
C360 C359 1.394 . S
C360 C361 1.378 . S
C360 H388 0.931 . S
C361 C356 1.377 . S
C361 C360 1.378 . S
C361 H389 0.931 . S
C362 O376 1.259 . S
C362 O377 1.270 . S
C363 O378 1.251 . S
C363 O379 1.251 . S
C364 Eu365 2.835 . S
C364 C366 1.500 . S
C364 O380 1.257 . S
C364 O381 1.260 . S
Eu365 C364 2.835 . S
Eu365 O377 2.355 . S
Eu365 O379 2.374 . S
Eu365 O380 2.473 . S
Eu365 O381 2.480 . S
Eu365 O382 2.430 . S
Eu365 O383 2.670 . S
Eu365 O384 2.394 . S
C366 C364 1.500 . S
C366 C367 1.377 . S
C366 C371 1.377 . S
C367 C366 1.377 . S
C367 C368 1.395 . S
C367 H390 0.931 . S
C368 C367 1.395 . S
C368 C369 1.383 . S
C368 H391 0.931 . S
C369 C368 1.383 . S
C369 C370 1.394 . S
C370 C369 1.394 . S
C370 C371 1.378 . S
C370 H392 0.931 . S
C371 C366 1.377 . S
C371 C370 1.378 . S
C371 H393 0.931 . S
C372 O382 1.259 . S
C372 O383 1.270 . S
C373 O384 1.251 . S
C373 O385 1.251 . S
O374 C354 1.257 . S
O374 Eu355 2.473 . S
O375 C354 1.260 . S
O375 Eu355 2.480 . S
O376 Eu355 2.430 . S
O376 C362 1.259 . S
O377 Eu355 2.670 . S
O377 C362 1.270 . S
O377 Eu365 2.355 . S
O378 Eu355 2.394 . S
O378 C363 1.251 . S
O379 C363 1.251 . S
O379 Eu365 2.374 . S
O380 C364 1.257 . S
O380 Eu365 2.473 . S
O381 C364 1.260 . S
O381 Eu365 2.480 . S
O382 Eu365 2.430 . S
O382 C372 1.259 . S
O383 Eu355 2.355 . S
O383 Eu365 2.670 . S
O383 C372 1.270 . S
O384 Eu365 2.394 . S
O384 C373 1.251 . S
O385 Eu355 2.374 . S
O385 C373 1.251 . S
H386 C357 0.931 . S
H387 C358 0.931 . S
H388 C360 0.931 . S
H389 C361 0.931 . S
H390 C367 0.931 . S
H391 C368 0.931 . S
H392 C370 0.931 . S
H393 C371 0.931 . S
C394 Eu395 2.835 . S
C394 C396 1.500 . S
C394 O414 1.257 . S
C394 O415 1.260 . S
Eu395 C394 2.835 . S
Eu395 O414 2.473 . S
Eu395 O415 2.480 . S
Eu395 O416 2.430 . S
Eu395 O417 2.670 . S
Eu395 O418 2.394 . S
Eu395 O423 2.355 . S
Eu395 O425 2.374 . S
C396 C394 1.500 . S
C396 C397 1.377 . S
C396 C401 1.377 . S
C397 C396 1.377 . S
C397 C398 1.395 . S
C397 H426 0.931 . S
C398 C397 1.395 . S
C398 C399 1.383 . S
C398 H427 0.931 . S
C399 C398 1.383 . S
C399 C400 1.394 . S
C400 C399 1.394 . S
C400 C401 1.378 . S
C400 H428 0.931 . S
C401 C396 1.377 . S
C401 C400 1.378 . S
C401 H429 0.931 . S
C402 O416 1.259 . S
C402 O417 1.270 . S
C403 O418 1.251 . S
C403 O419 1.251 . S
C404 Eu405 2.835 . S
C404 C406 1.500 . S
C404 O420 1.257 . S
C404 O421 1.260 . S
Eu405 C404 2.835 . S
Eu405 O417 2.355 . S
Eu405 O419 2.374 . S
Eu405 O420 2.473 . S
Eu405 O421 2.480 . S
Eu405 O422 2.430 . S
Eu405 O423 2.670 . S
Eu405 O424 2.394 . S
C406 C404 1.500 . S
C406 C407 1.377 . S
C406 C411 1.377 . S
C407 C406 1.377 . S
C407 C408 1.395 . S
C407 H430 0.931 . S
C408 C407 1.395 . S
C408 C409 1.383 . S
C408 H431 0.931 . S
C409 C408 1.383 . S
C409 C410 1.394 . S
C410 C409 1.394 . S
C410 C411 1.378 . S
C410 H432 0.931 . S
C411 C406 1.377 . S
C411 C410 1.378 . S
C411 H433 0.931 . S
C412 O422 1.259 . S
C412 O423 1.270 . S
C413 O424 1.251 . S
C413 O425 1.251 . S
O414 C394 1.257 . S
O414 Eu395 2.473 . S
O415 C394 1.260 . S
O415 Eu395 2.480 . S
O416 Eu395 2.430 . S
O416 C402 1.259 . S
O417 Eu395 2.670 . S
O417 C402 1.270 . S
O417 Eu405 2.355 . S
O418 Eu395 2.394 . S
O418 C403 1.251 . S
O419 C403 1.251 . S
O419 Eu405 2.374 . S
O420 C404 1.257 . S
O420 Eu405 2.473 . S
O421 C404 1.260 . S
O421 Eu405 2.480 . S
O422 Eu405 2.430 . S
O422 C412 1.259 . S
O423 Eu395 2.355 . S
O423 Eu405 2.670 . S
O423 C412 1.270 . S
O424 Eu405 2.394 . S
O424 C413 1.251 . S
O425 Eu395 2.374 . S
O425 C413 1.251 . S
H426 C397 0.931 . S
H427 C398 0.931 . S
H428 C400 0.931 . S
H429 C401 0.931 . S
H430 C407 0.931 . S
H431 C408 0.931 . S
H432 C410 0.931 . S
H433 C411 0.931 . S
C434 Eu435 2.835 . S
C434 C436 1.500 . S
C434 O454 1.257 . S
C434 O455 1.260 . S
Eu435 C434 2.835 . S
Eu435 O454 2.473 . S
Eu435 O455 2.480 . S
Eu435 O456 2.430 . S
Eu435 O457 2.670 . S
Eu435 O458 2.394 . S
Eu435 O463 2.355 . S
Eu435 O465 2.374 . S
C436 C434 1.500 . S
C436 C437 1.377 . S
C436 C441 1.377 . S
C437 C436 1.377 . S
C437 C438 1.395 . S
C437 H466 0.931 . S
C438 C437 1.395 . S
C438 C439 1.383 . S
C438 H467 0.931 . S
C439 C438 1.383 . S
C439 C440 1.394 . S
C440 C439 1.394 . S
C440 C441 1.378 . S
C440 H468 0.931 . S
C441 C436 1.377 . S
C441 C440 1.378 . S
C441 H469 0.931 . S
C442 O456 1.259 . S
C442 O457 1.270 . S
C443 O458 1.251 . S
C443 O459 1.251 . S
C444 Eu445 2.835 . S
C444 C446 1.500 . S
C444 O460 1.257 . S
C444 O461 1.260 . S
Eu445 C444 2.835 . S
Eu445 O457 2.355 . S
Eu445 O459 2.374 . S
Eu445 O460 2.473 . S
Eu445 O461 2.480 . S
Eu445 O462 2.430 . S
Eu445 O463 2.670 . S
Eu445 O464 2.394 . S
C446 C444 1.500 . S
C446 C447 1.377 . S
C446 C451 1.377 . S
C447 C446 1.377 . S
C447 C448 1.395 . S
C447 H470 0.931 . S
C448 C447 1.395 . S
C448 C449 1.383 . S
C448 H471 0.931 . S
C449 C448 1.383 . S
C449 C450 1.394 . S
C450 C449 1.394 . S
C450 C451 1.378 . S
C450 H472 0.931 . S
C451 C446 1.377 . S
C451 C450 1.378 . S
C451 H473 0.931 . S
C452 O462 1.259 . S
C452 O463 1.270 . S
C453 O464 1.251 . S
C453 O465 1.251 . S
O454 C434 1.257 . S
O454 Eu435 2.473 . S
O455 C434 1.260 . S
O455 Eu435 2.480 . S
O456 Eu435 2.430 . S
O456 C442 1.259 . S
O457 Eu435 2.670 . S
O457 C442 1.270 . S
O457 Eu445 2.355 . S
O458 Eu435 2.394 . S
O458 C443 1.251 . S
O459 C443 1.251 . S
O459 Eu445 2.374 . S
O460 C444 1.257 . S
O460 Eu445 2.473 . S
O461 C444 1.260 . S
O461 Eu445 2.480 . S
O462 Eu445 2.430 . S
O462 C452 1.259 . S
O463 Eu435 2.355 . S
O463 Eu445 2.670 . S
O463 C452 1.270 . S
O464 Eu445 2.394 . S
O464 C453 1.251 . S
O465 Eu435 2.374 . S
O465 C453 1.251 . S
H466 C437 0.931 . S
H467 C438 0.931 . S
H468 C440 0.931 . S
H469 C441 0.931 . S
H470 C447 0.931 . S
H471 C448 0.931 . S
H472 C450 0.931 . S
H473 C451 0.931 . S
C474 Eu475 2.835 . S
C474 C476 1.500 . S
C474 O494 1.257 . S
C474 O495 1.260 . S
Eu475 C474 2.835 . S
Eu475 O494 2.473 . S
Eu475 O495 2.480 . S
Eu475 O496 2.430 . S
Eu475 O497 2.670 . S
Eu475 O498 2.394 . S
Eu475 O503 2.355 . S
Eu475 O505 2.374 . S
C476 C474 1.500 . S
C476 C477 1.377 . S
C476 C481 1.377 . S
C477 C476 1.377 . S
C477 C478 1.395 . S
C477 H506 0.931 . S
C478 C477 1.395 . S
C478 C479 1.383 . S
C478 H507 0.931 . S
C479 C478 1.383 . S
C479 C480 1.394 . S
C480 C479 1.394 . S
C480 C481 1.378 . S
C480 H508 0.931 . S
C481 C476 1.377 . S
C481 C480 1.378 . S
C481 H509 0.931 . S
C482 O496 1.259 . S
C482 O497 1.270 . S
C483 O498 1.251 . S
C483 O499 1.251 . S
C484 Eu485 2.835 . S
C484 C486 1.500 . S
C484 O500 1.257 . S
C484 O501 1.260 . S
Eu485 C484 2.835 . S
Eu485 O497 2.355 . S
Eu485 O499 2.374 . S
Eu485 O500 2.473 . S
Eu485 O501 2.480 . S
Eu485 O502 2.430 . S
Eu485 O503 2.670 . S
Eu485 O504 2.394 . S
C486 C484 1.500 . S
C486 C487 1.377 . S
C486 C491 1.377 . S
C487 C486 1.377 . S
C487 C488 1.395 . S
C487 H510 0.931 . S
C488 C487 1.395 . S
C488 C489 1.383 . S
C488 H511 0.931 . S
C489 C488 1.383 . S
C489 C490 1.394 . S
C490 C489 1.394 . S
C490 C491 1.378 . S
C490 H512 0.931 . S
C491 C486 1.377 . S
C491 C490 1.378 . S
C491 H513 0.931 . S
C492 O502 1.259 . S
C492 O503 1.270 . S
C493 O504 1.251 . S
C493 O505 1.251 . S
O494 C474 1.257 . S
O494 Eu475 2.473 . S
O495 C474 1.260 . S
O495 Eu475 2.480 . S
O496 Eu475 2.430 . S
O496 C482 1.259 . S
O497 Eu475 2.670 . S
O497 C482 1.270 . S
O497 Eu485 2.355 . S
O498 Eu475 2.394 . S
O498 C483 1.251 . S
O499 C483 1.251 . S
O499 Eu485 2.374 . S
O500 C484 1.257 . S
O500 Eu485 2.473 . S
O501 C484 1.260 . S
O501 Eu485 2.480 . S
O502 Eu485 2.430 . S
O502 C492 1.259 . S
O503 Eu475 2.355 . S
O503 Eu485 2.670 . S
O503 C492 1.270 . S
O504 Eu485 2.394 . S
O504 C493 1.251 . S
O505 Eu475 2.374 . S
O505 C493 1.251 . S
H506 C477 0.931 . S
H507 C478 0.931 . S
H508 C480 0.931 . S
H509 C481 0.931 . S
H510 C487 0.931 . S
H511 C488 0.931 . S
H512 C490 0.931 . S
H513 C491 0.931 . S
C514 Eu515 2.835 . S
C514 C516 1.500 . S
C514 O534 1.257 . S
C514 O535 1.260 . S
Eu515 C514 2.835 . S
Eu515 O534 2.473 . S
Eu515 O535 2.480 . S
Eu515 O536 2.430 . S
Eu515 O537 2.670 . S
Eu515 O538 2.394 . S
Eu515 O543 2.355 . S
Eu515 O545 2.374 . S
C516 C514 1.500 . S
C516 C517 1.377 . S
C516 C521 1.377 . S
C517 C516 1.377 . S
C517 C518 1.395 . S
C517 H546 0.931 . S
C518 C517 1.395 . S
C518 C519 1.383 . S
C518 H547 0.931 . S
C519 C518 1.383 . S
C519 C520 1.394 . S
C520 C519 1.394 . S
C520 C521 1.378 . S
C520 H548 0.931 . S
C521 C516 1.377 . S
C521 C520 1.378 . S
C521 H549 0.931 . S
C522 O536 1.259 . S
C522 O537 1.270 . S
C523 O538 1.251 . S
C523 O539 1.251 . S
C524 Eu525 2.835 . S
C524 C526 1.500 . S
C524 O540 1.257 . S
C524 O541 1.260 . S
Eu525 C524 2.835 . S
Eu525 O537 2.355 . S
Eu525 O539 2.374 . S
Eu525 O540 2.473 . S
Eu525 O541 2.480 . S
Eu525 O542 2.430 . S
Eu525 O543 2.670 . S
Eu525 O544 2.394 . S
C526 C524 1.500 . S
C526 C527 1.377 . S
C526 C531 1.377 . S
C527 C526 1.377 . S
C527 C528 1.395 . S
C527 H550 0.931 . S
C528 C527 1.395 . S
C528 C529 1.383 . S
C528 H551 0.931 . S
C529 C528 1.383 . S
C529 C530 1.394 . S
C530 C529 1.394 . S
C530 C531 1.378 . S
C530 H552 0.931 . S
C531 C526 1.377 . S
C531 C530 1.378 . S
C531 H553 0.931 . S
C532 O542 1.259 . S
C532 O543 1.270 . S
C533 O544 1.251 . S
C533 O545 1.251 . S
O534 C514 1.257 . S
O534 Eu515 2.473 . S
O535 C514 1.260 . S
O535 Eu515 2.480 . S
O536 Eu515 2.430 . S
O536 C522 1.259 . S
O537 Eu515 2.670 . S
O537 C522 1.270 . S
O537 Eu525 2.355 . S
O538 Eu515 2.394 . S
O538 C523 1.251 . S
O539 C523 1.251 . S
O539 Eu525 2.374 . S
O540 C524 1.257 . S
O540 Eu525 2.473 . S
O541 C524 1.260 . S
O541 Eu525 2.480 . S
O542 Eu525 2.430 . S
O542 C532 1.259 . S
O543 Eu515 2.355 . S
O543 Eu525 2.670 . S
O543 C532 1.270 . S
O544 Eu525 2.394 . S
O544 C533 1.251 . S
O545 Eu515 2.374 . S
O545 C533 1.251 . S
H546 C517 0.931 . S
H547 C518 0.931 . S
H548 C520 0.931 . S
H549 C521 0.931 . S
H550 C527 0.931 . S
H551 C528 0.931 . S
H552 C530 0.931 . S
H553 C531 0.931 . S
C554 Eu555 2.835 . S
C554 C556 1.500 . S
C554 O574 1.257 . S
C554 O575 1.260 . S
Eu555 C554 2.835 . S
Eu555 O574 2.473 . S
Eu555 O575 2.480 . S
Eu555 O576 2.430 . S
Eu555 O577 2.670 . S
Eu555 O578 2.394 . S
Eu555 O583 2.355 . S
Eu555 O585 2.374 . S
C556 C554 1.500 . S
C556 C557 1.377 . S
C556 C561 1.377 . S
C557 C556 1.377 . S
C557 C558 1.395 . S
C557 H586 0.931 . S
C558 C557 1.395 . S
C558 C559 1.383 . S
C558 H587 0.931 . S
C559 C558 1.383 . S
C559 C560 1.394 . S
C560 C559 1.394 . S
C560 C561 1.378 . S
C560 H588 0.931 . S
C561 C556 1.377 . S
C561 C560 1.378 . S
C561 H589 0.931 . S
C562 O576 1.259 . S
C562 O577 1.270 . S
C563 O578 1.251 . S
C563 O579 1.251 . S
C564 Eu565 2.835 . S
C564 C566 1.500 . S
C564 O580 1.257 . S
C564 O581 1.260 . S
Eu565 C564 2.835 . S
Eu565 O577 2.355 . S
Eu565 O579 2.374 . S
Eu565 O580 2.473 . S
Eu565 O581 2.480 . S
Eu565 O582 2.430 . S
Eu565 O583 2.670 . S
Eu565 O584 2.394 . S
C566 C564 1.500 . S
C566 C567 1.377 . S
C566 C571 1.377 . S
C567 C566 1.377 . S
C567 C568 1.395 . S
C567 H590 0.931 . S
C568 C567 1.395 . S
C568 C569 1.383 . S
C568 H591 0.931 . S
C569 C568 1.383 . S
C569 C570 1.394 . S
C570 C569 1.394 . S
C570 C571 1.378 . S
C570 H592 0.931 . S
C571 C566 1.377 . S
C571 C570 1.378 . S
C571 H593 0.931 . S
C572 O582 1.259 . S
C572 O583 1.270 . S
C573 O584 1.251 . S
C573 O585 1.251 . S
O574 C554 1.257 . S
O574 Eu555 2.473 . S
O575 C554 1.260 . S
O575 Eu555 2.480 . S
O576 Eu555 2.430 . S
O576 C562 1.259 . S
O577 Eu555 2.670 . S
O577 C562 1.270 . S
O577 Eu565 2.355 . S
O578 Eu555 2.394 . S
O578 C563 1.251 . S
O579 C563 1.251 . S
O579 Eu565 2.374 . S
O580 C564 1.257 . S
O580 Eu565 2.473 . S
O581 C564 1.260 . S
O581 Eu565 2.480 . S
O582 Eu565 2.430 . S
O582 C572 1.259 . S
O583 Eu555 2.355 . S
O583 Eu565 2.670 . S
O583 C572 1.270 . S
O584 Eu565 2.394 . S
O584 C573 1.251 . S
O585 Eu555 2.374 . S
O585 C573 1.251 . S
H586 C557 0.931 . S
H587 C558 0.931 . S
H588 C560 0.931 . S
H589 C561 0.931 . S
H590 C567 0.931 . S
H591 C568 0.931 . S
H592 C570 0.931 . S
H593 C571 0.931 . S
H594 C606 0.930 . S
H595 C608 0.930 . S
H596 C609 0.930 . S
H597 C613 0.959 . S
H598 C613 0.959 . S
H599 C613 0.961 . S
H600 C614 0.960 . S
H601 C614 0.961 . S
H602 C614 0.959 . S
H603 C617 0.929 1_556 S
H604 C618 0.931 1_556 S
H605 C620 0.930 . S
C606 H594 0.930 . S
C606 C607 1.399 . S
C606 C611 1.399 . S
C607 C606 1.399 . S
C607 C608 1.376 . S
C608 H595 0.930 . S
C608 C607 1.376 . S
C608 C609 1.388 . S
C609 H596 0.930 . S
C609 C608 1.388 . S
C609 C610 1.390 . S
C610 C609 1.390 . S
C610 C611 1.394 . S
C610 C616 1.465 . S
C611 C606 1.399 . S
C611 C610 1.394 . S
C611 C612 1.516 . S
C612 C611 1.516 . S
C612 C613 1.502 . S
C612 C614 1.561 . S
C612 C615 1.526 . S
C613 H597 0.959 . S
C613 H598 0.959 . S
C613 H599 0.961 . S
C613 C612 1.502 . S
C614 H600 0.960 . S
C614 H601 0.961 . S
C614 H602 0.959 . S
C614 C612 1.561 . S
C615 C612 1.526 . S
C615 C616 1.396 . S
C615 C620 1.390 . S
C616 C610 1.465 . S
C616 C615 1.396 . S
C616 C617 1.399 . S
C617 H603 0.929 1_554 S
C617 C616 1.399 . S
C617 C618 1.385 . S
C618 H604 0.931 1_554 S
C618 C617 1.385 . S
C618 C619 1.389 . S
C619 C618 1.389 . S
C619 C620 1.387 . S
C620 H605 0.930 . S
C620 C615 1.390 . S
C620 C619 1.387 . S
H621 C633 0.930 . S
H622 C635 0.930 . S
H623 C636 0.930 . S
H624 C640 0.959 . S
H625 C640 0.959 . S
H626 C640 0.961 . S
H627 C641 0.960 . S
H628 C641 0.961 . S
H629 C641 0.959 . S
H630 C644 0.929 . S
H631 C645 0.931 1_556 S
H632 C647 0.930 . S
C633 H621 0.930 . S
C633 C634 1.399 . S
C633 C638 1.399 . S
C634 C633 1.399 . S
C634 C635 1.376 . S
C635 H622 0.930 . S
C635 C634 1.376 . S
C635 C636 1.388 . S
C636 H623 0.930 . S
C636 C635 1.388 . S
C636 C637 1.390 . S
C637 C636 1.390 . S
C637 C638 1.394 . S
C637 C643 1.465 . S
C638 C633 1.399 . S
C638 C637 1.394 . S
C638 C639 1.516 . S
C639 C638 1.516 . S
C639 C640 1.502 . S
C639 C641 1.561 . S
C639 C642 1.526 . S
C640 H624 0.959 . S
C640 H625 0.959 . S
C640 H626 0.961 . S
C640 C639 1.502 . S
C641 H627 0.960 . S
C641 H628 0.961 . S
C641 H629 0.959 . S
C641 C639 1.561 . S
C642 C639 1.526 . S
C642 C643 1.396 . S
C642 C647 1.390 . S
C643 C637 1.465 . S
C643 C642 1.396 . S
C643 C644 1.399 . S
C644 H630 0.929 . S
C644 C643 1.399 . S
C644 C645 1.385 . S
C645 H631 0.931 1_554 S
C645 C644 1.385 . S
C645 C646 1.389 . S
C646 C645 1.389 . S
C646 C647 1.387 . S
C647 H632 0.930 . S
C647 C642 1.390 . S
C647 C646 1.387 . S
H648 C660 0.930 . S
H649 C662 0.930 . S
H650 C663 0.930 1_556 S
H651 C667 0.959 . S
H652 C667 0.959 . S
H653 C667 0.961 . S
H654 C668 0.960 . S
H655 C668 0.961 . S
H656 C668 0.959 . S
H657 C671 0.929 1_556 S
H658 C672 0.931 1_556 S
H659 C674 0.930 . S
C660 H648 0.930 . S
C660 C661 1.399 . S
C660 C665 1.399 . S
C661 C660 1.399 . S
C661 C662 1.376 . S
C662 H649 0.930 . S
C662 C661 1.376 . S
C662 C663 1.388 . S
C663 H650 0.930 1_554 S
C663 C662 1.388 . S
C663 C664 1.390 . S
C664 C663 1.390 . S
C664 C665 1.394 . S
C664 C670 1.465 . S
C665 C660 1.399 . S
C665 C664 1.394 . S
C665 C666 1.516 . S
C666 C665 1.516 . S
C666 C667 1.502 . S
C666 C668 1.561 . S
C666 C669 1.526 . S
C667 H651 0.959 . S
C667 H652 0.959 . S
C667 H653 0.961 . S
C667 C666 1.502 . S
C668 H654 0.960 . S
C668 H655 0.961 . S
C668 H656 0.959 . S
C668 C666 1.561 . S
C669 C666 1.526 . S
C669 C670 1.396 . S
C669 C674 1.390 . S
C670 C664 1.465 . S
C670 C669 1.396 . S
C670 C671 1.399 . S
C671 H657 0.929 1_554 S
C671 C670 1.399 . S
C671 C672 1.385 . S
C672 H658 0.931 1_554 S
C672 C671 1.385 . S
C672 C673 1.389 . S
C673 C672 1.389 . S
C673 C674 1.387 . S
C674 H659 0.930 . S
C674 C669 1.390 . S
C674 C673 1.387 . S
H675 C687 0.930 . S
H676 C689 0.930 . S
H677 C690 0.930 . S
H678 C694 0.959 . S
H679 C694 0.959 . S
H680 C694 0.961 . S
H681 C695 0.960 . S
H682 C695 0.961 . S
H683 C695 0.959 . S
H684 C698 0.929 . S
H685 C699 0.931 . S
H686 C701 0.930 . S
C687 H675 0.930 . S
C687 C688 1.399 . S
C687 C692 1.399 . S
C688 C687 1.399 . S
C688 C689 1.376 1_556 S
C689 H676 0.930 . S
C689 C688 1.376 1_554 S
C689 C690 1.388 . S
C690 H677 0.930 . S
C690 C689 1.388 . S
C690 C691 1.390 1_554 S
C691 C690 1.390 1_556 S
C691 C692 1.394 . S
C691 C697 1.469 . S
C692 C687 1.399 . S
C692 C691 1.394 . S
C692 C693 1.516 . S
C693 C692 1.516 . S
C693 C694 1.502 . S
C693 C695 1.561 . S
C693 C696 1.526 . S
C694 H678 0.959 . S
C694 H679 0.959 . S
C694 H680 0.961 . S
C694 C693 1.502 . S
C695 H681 0.960 . S
C695 H682 0.961 . S
C695 H683 0.959 . S
C695 C693 1.561 . S
C696 C693 1.526 . S
C696 C697 1.417 . S
C696 C701 1.390 . S
C697 C691 1.469 . S
C697 C696 1.417 . S
C697 C698 1.378 1_556 S
C698 H684 0.929 . S
C698 C697 1.378 1_554 S
C698 C699 1.385 . S
C699 H685 0.931 . S
C699 C698 1.385 . S
C699 C700 1.389 1_554 S
C700 C699 1.389 1_556 S
C700 C701 1.387 . S
C701 H686 0.930 . S
C701 C696 1.390 . S
C701 C700 1.387 . S
H702 C714 0.930 . S
H703 C716 0.930 . S
H704 C717 0.930 . S
H705 C721 0.959 . S
H706 C721 0.959 . S
H707 C721 0.961 . S
H708 C722 0.960 . S
H709 C722 0.961 . S
H710 C722 0.959 . S
H711 C725 0.929 . S
H712 C726 0.931 . S
H713 C728 0.930 . S
C714 H702 0.930 . S
C714 C715 1.399 . S
C714 C719 1.399 . S
C715 C714 1.399 . S
C715 C716 1.376 . S
C716 H703 0.930 . S
C716 C715 1.376 . S
C716 C717 1.388 . S
C717 H704 0.930 . S
C717 C716 1.388 . S
C717 C718 1.390 . S
C718 C717 1.390 . S
C718 C719 1.394 . S
C718 C724 1.465 . S
C719 C714 1.399 . S
C719 C718 1.394 . S
C719 C720 1.516 . S
C720 C719 1.516 . S
C720 C721 1.502 . S
C720 C722 1.561 . S
C720 C723 1.526 . S
C721 H705 0.959 . S
C721 H706 0.959 . S
C721 H707 0.961 . S
C721 C720 1.502 . S
C722 H708 0.960 . S
C722 H709 0.961 . S
C722 H710 0.959 . S
C722 C720 1.561 . S
C723 C720 1.526 . S
C723 C724 1.396 . S
C723 C728 1.390 . S
C724 C718 1.465 . S
C724 C723 1.396 . S
C724 C725 1.399 1_556 S
C725 H711 0.929 . S
C725 C724 1.399 1_554 S
C725 C726 1.385 . S
C726 H712 0.931 . S
C726 C725 1.385 . S
C726 C727 1.389 1_554 S
C727 C726 1.389 1_556 S
C727 C728 1.387 . S
C728 H713 0.930 . S
C728 C723 1.390 . S
C728 C727 1.387 . S
H729 C741 0.930 . S
H730 C743 0.930 . S
H731 C744 0.930 1_554 S
H732 C748 0.959 . S
H733 C748 0.959 . S
H734 C748 0.961 . S
H735 C749 0.960 . S
H736 C749 0.961 . S
H737 C749 0.959 . S
H738 C752 0.929 . S
H739 C753 0.931 . S
H740 C755 0.930 . S
C741 H729 0.930 . S
C741 C742 1.399 . S
C741 C746 1.399 . S
C742 C741 1.399 . S
C742 C743 1.376 . S
C743 H730 0.930 . S
C743 C742 1.376 . S
C743 C744 1.388 . S
C744 H731 0.930 1_556 S
C744 C743 1.388 . S
C744 C745 1.390 . S
C745 C744 1.390 . S
C745 C746 1.394 . S
C745 C751 1.465 . S
C746 C741 1.399 . S
C746 C745 1.394 . S
C746 C747 1.516 . S
C747 C746 1.516 . S
C747 C748 1.502 . S
C747 C749 1.561 . S
C747 C750 1.526 . S
C748 H732 0.959 . S
C748 H733 0.959 . S
C748 H734 0.961 . S
C748 C747 1.502 . S
C749 H735 0.960 . S
C749 H736 0.961 . S
C749 H737 0.959 . S
C749 C747 1.561 . S
C750 C747 1.526 . S
C750 C751 1.396 . S
C750 C755 1.390 . S
C751 C745 1.465 . S
C751 C750 1.396 . S
C751 C752 1.399 1_556 S
C752 H738 0.929 . S
C752 C751 1.399 1_554 S
C752 C753 1.385 . S
C753 H739 0.931 . S
C753 C752 1.385 . S
C753 C754 1.389 . S
C754 C753 1.389 . S
C754 C755 1.387 1_554 S
C755 H740 0.930 . S
C755 C750 1.390 . S
C755 C754 1.387 1_556 S
H756 C768 0.930 . S
H757 C770 0.930 . S
H758 C771 0.930 . S
H759 C775 0.959 1_554 S
H760 C775 0.966 . S
H761 C775 0.961 . S
H762 C776 0.960 . S
H763 C776 0.961 . S
H764 C776 0.959 . S
H765 C779 0.929 . S
H766 C780 0.931 . S
H767 C782 0.930 . S
C768 H756 0.930 . S
C768 C769 1.399 . S
C768 C773 1.399 . S
C769 C768 1.399 . S
C769 C770 1.376 . S
C770 H757 0.930 . S
C770 C769 1.376 . S
C770 C771 1.388 . S
C771 H758 0.930 . S
C771 C770 1.388 . S
C771 C772 1.390 . S
C772 C771 1.390 . S
C772 C773 1.394 . S
C772 C778 1.465 . S
C773 C768 1.399 . S
C773 C772 1.394 . S
C773 C774 1.516 . S
C774 C773 1.516 . S
C774 C775 1.502 . S
C774 C776 1.561 . S
C774 C777 1.526 . S
C775 H759 0.959 1_556 S
C775 H760 0.966 . S
C775 H761 0.961 . S
C775 C774 1.502 . S
C776 H762 0.960 . S
C776 H763 0.961 . S
C776 H764 0.959 . S
C776 C774 1.561 . S
C777 C774 1.526 . S
C777 C778 1.396 . S
C777 C782 1.390 . S
C778 C772 1.465 . S
C778 C777 1.396 . S
C778 C779 1.399 . S
C779 H765 0.929 . S
C779 C778 1.399 . S
C779 C780 1.385 . S
C780 H766 0.931 . S
C780 C779 1.385 . S
C780 C781 1.389 . S
C781 C780 1.389 . S
C781 C782 1.387 . S
C782 H767 0.930 . S
C782 C777 1.390 . S
C782 C781 1.387 . S
H783 C795 0.930 . S
H784 C797 0.930 . S
H785 C798 0.930 . S
H786 C802 0.959 . S
H787 C802 0.959 . S
H788 C802 0.961 . S
H789 C803 0.960 . S
H790 C803 0.961 . S
H791 C803 0.959 . S
H792 C806 0.929 . S
H793 C807 0.931 . S
H794 C809 0.930 . S
C795 H783 0.930 . S
C795 C796 1.399 . S
C795 C800 1.399 . S
C796 C795 1.399 . S
C796 C797 1.376 . S
C797 H784 0.930 . S
C797 C796 1.376 . S
C797 C798 1.388 . S
C798 H785 0.930 . S
C798 C797 1.388 . S
C798 C799 1.390 . S
C799 C798 1.390 . S
C799 C800 1.394 . S
C799 C805 1.465 . S
C800 C795 1.399 . S
C800 C799 1.394 . S
C800 C801 1.516 . S
C801 C800 1.516 . S
C801 C802 1.502 . S
C801 C803 1.561 . S
C801 C804 1.526 . S
C802 H786 0.959 . S
C802 H787 0.959 . S
C802 H788 0.961 . S
C802 C801 1.502 . S
C803 H789 0.960 . S
C803 H790 0.961 . S
C803 H791 0.959 . S
C803 C801 1.561 . S
C804 C801 1.526 . S
C804 C805 1.396 . S
C804 C809 1.390 . S
C805 C799 1.465 . S
C805 C804 1.396 . S
C805 C806 1.399 . S
C806 H792 0.929 . S
C806 C805 1.399 . S
C806 C807 1.385 . S
C807 H793 0.931 . S
C807 C806 1.385 . S
C807 C808 1.389 . S
C808 C807 1.389 . S
C808 C809 1.387 . S
C809 H794 0.930 . S
C809 C804 1.390 . S
C809 C808 1.387 . S
H810 C822 0.930 . S
H811 C824 0.930 . S
H812 C825 0.930 . S
H813 C829 0.959 . S
H814 C829 0.959 . S
H815 C829 0.961 . S
H816 C830 0.960 . S
H817 C830 0.961 . S
H818 C830 0.959 . S
H819 C833 0.929 . S
H820 C834 0.931 . S
H821 C836 0.930 . S
C822 H810 0.930 . S
C822 C823 1.399 . S
C822 C827 1.399 . S
C823 C822 1.399 . S
C823 C824 1.376 1_556 S
C824 H811 0.930 . S
C824 C823 1.376 1_554 S
C824 C825 1.388 . S
C825 H812 0.930 . S
C825 C824 1.388 . S
C825 C826 1.390 . S
C826 C825 1.390 . S
C826 C827 1.394 1_554 S
C826 C832 1.465 . S
C827 C822 1.399 . S
C827 C826 1.394 1_556 S
C827 C828 1.516 . S
C828 C827 1.516 . S
C828 C829 1.502 . S
C828 C830 1.561 . S
C828 C831 1.526 . S
C829 H813 0.959 . S
C829 H814 0.959 . S
C829 H815 0.961 . S
C829 C828 1.502 . S
C830 H816 0.960 . S
C830 H817 0.961 . S
C830 H818 0.959 . S
C830 C828 1.561 . S
C831 C828 1.526 . S
C831 C832 1.396 1_556 S
C831 C836 1.390 . S
C832 C826 1.465 . S
C832 C831 1.396 1_554 S
C832 C833 1.399 . S
C833 H819 0.929 . S
C833 C832 1.399 . S
C833 C834 1.385 . S
C834 H820 0.931 . S
C834 C833 1.385 . S
C834 C835 1.389 . S
C835 C834 1.389 . S
C835 C836 1.387 1_554 S
C836 H821 0.930 . S
C836 C831 1.390 . S
C836 C835 1.387 1_556 S
H837 C849 0.930 . S
H838 C851 0.930 . S
H839 C852 0.930 . S
H840 C856 0.959 . S
H841 C856 0.959 . S
H842 C856 0.961 . S
H843 C857 0.960 . S
H844 C857 0.961 1_556 S
H845 C857 0.959 . S
H846 C860 0.929 . S
H847 C861 0.931 . S
H848 C863 0.930 1_556 S
C849 H837 0.930 . S
C849 C850 1.399 . S
C849 C854 1.399 . S
C850 C849 1.399 . S
C850 C851 1.376 . S
C851 H838 0.930 . S
C851 C850 1.376 . S
C851 C852 1.388 . S
C852 H839 0.930 . S
C852 C851 1.388 . S
C852 C853 1.390 . S
C853 C852 1.390 . S
C853 C854 1.394 . S
C853 C859 1.465 . S
C854 C849 1.399 . S
C854 C853 1.394 . S
C854 C855 1.516 . S
C855 C854 1.516 . S
C855 C856 1.502 1_554 S
C855 C857 1.561 . S
C855 C858 1.526 . S
C856 H840 0.959 . S
C856 H841 0.959 . S
C856 H842 0.961 . S
C856 C855 1.502 1_556 S
C857 H843 0.960 . S
C857 H844 0.961 1_554 S
C857 H845 0.959 . S
C857 C855 1.561 . S
C858 C855 1.526 . S
C858 C859 1.396 . S
C858 C863 1.390 . S
C859 C853 1.465 . S
C859 C858 1.396 . S
C859 C860 1.399 . S
C860 H846 0.929 . S
C860 C859 1.399 . S
C860 C861 1.385 . S
C861 H847 0.931 . S
C861 C860 1.385 . S
C861 C862 1.389 . S
C862 C861 1.389 . S
C862 C863 1.387 . S
C863 H848 0.930 1_554 S
C863 C858 1.390 . S
C863 C862 1.387 . S
H864 C876 0.930 . S
H865 C878 0.930 . S
H866 C879 0.930 . S
H867 C883 0.959 . S
H868 C883 0.959 . S
H869 C883 0.961 . S
H870 C884 0.960 . S
H871 C884 0.961 . S
H872 C884 0.959 . S
H873 C887 0.929 . S
H874 C888 0.931 . S
H875 C890 0.930 . S
C876 H864 0.930 . S
C876 C877 1.399 . S
C876 C881 1.399 . S
C877 C876 1.399 . S
C877 C878 1.376 . S
C878 H865 0.930 . S
C878 C877 1.376 . S
C878 C879 1.388 . S
C879 H866 0.930 . S
C879 C878 1.388 . S
C879 C880 1.390 . S
C880 C879 1.390 . S
C880 C881 1.394 . S
C880 C886 1.465 . S
C881 C876 1.399 . S
C881 C880 1.394 . S
C881 C882 1.516 . S
C882 C881 1.516 . S
C882 C883 1.502 . S
C882 C884 1.561 . S
C882 C885 1.526 . S
C883 H867 0.959 . S
C883 H868 0.959 . S
C883 H869 0.961 . S
C883 C882 1.502 . S
C884 H870 0.960 . S
C884 H871 0.961 . S
C884 H872 0.959 . S
C884 C882 1.561 . S
C885 C882 1.526 . S
C885 C886 1.396 . S
C885 C890 1.390 . S
C886 C880 1.465 . S
C886 C885 1.396 . S
C886 C887 1.399 . S
C887 H873 0.929 . S
C887 C886 1.399 . S
C887 C888 1.385 . S
C888 H874 0.931 . S
C888 C887 1.385 . S
C888 C889 1.389 . S
C889 C888 1.389 . S
C889 C890 1.387 . S
C890 H875 0.930 . S
C890 C885 1.390 . S
C890 C889 1.387 . S
H891 C903 0.930 . S
H892 C905 0.930 . S
H893 C906 0.930 1_556 S
H894 C910 0.959 . S
H895 C910 0.959 . S
H896 C910 0.961 . S
H897 C911 0.960 . S
H898 C911 0.961 . S
H899 C911 0.959 . S
H900 C914 0.981 . S
H901 C915 0.946 . S
H902 C917 0.930 . S
C903 H891 0.930 . S
C903 C904 1.399 . S
C903 C908 1.399 . S
C904 C903 1.399 . S
C904 C905 1.376 . S
C905 H892 0.930 . S
C905 C904 1.376 . S
C905 C906 1.388 . S
C906 H893 0.930 1_554 S
C906 C905 1.388 . S
C906 C907 1.390 . S
C907 C906 1.390 . S
C907 C908 1.394 . S
C907 C913 1.465 . S
C908 C903 1.399 . S
C908 C907 1.394 . S
C908 C909 1.516 . S
C909 C908 1.516 . S
C909 C910 1.502 . S
C909 C911 1.561 . S
C909 C912 1.526 . S
C910 H894 0.959 . S
C910 H895 0.959 . S
C910 H896 0.961 . S
C910 C909 1.502 . S
C911 H897 0.960 . S
C911 H898 0.961 . S
C911 H899 0.959 . S
C911 C909 1.561 . S
C912 C909 1.526 . S
C912 C913 1.396 . S
C912 C917 1.390 . S
C913 C907 1.465 . S
C913 C912 1.396 . S
C913 C914 1.352 1_554 S
C914 H900 0.981 . S
C914 C913 1.352 1_556 S
C914 C915 1.382 . S
C915 H901 0.946 . S
C915 C914 1.382 . S
C915 C916 1.373 1_556 S
C916 C915 1.373 1_554 S
C916 C917 1.387 . S
C917 H902 0.930 . S
C917 C912 1.390 . S
C917 C916 1.387 . S
H918 C930 0.930 . S
H919 C932 0.930 . S
H920 C933 0.930 . S
H921 C937 0.959 . S
H922 C937 0.959 . S
H923 C937 0.992 . S
H924 C938 0.960 . S
H925 C938 0.961 . S
H926 C938 0.959 . S
H927 C941 0.929 . S
H928 C942 0.931 . S
H929 C944 0.930 . S
C930 H918 0.930 . S
C930 C931 1.399 . S
C930 C935 1.399 . S
C931 C930 1.399 . S
C931 C932 1.376 . S
C932 H919 0.930 . S
C932 C931 1.376 . S
C932 C933 1.388 . S
C933 H920 0.930 . S
C933 C932 1.388 . S
C933 C934 1.390 . S
C934 C933 1.390 . S
C934 C935 1.394 . S
C934 C940 1.465 1_655 S
C935 C930 1.399 . S
C935 C934 1.394 . S
C935 C936 1.516 1_655 S
C936 C935 1.516 1_455 S
C936 C937 1.502 . S
C936 C938 1.561 . S
C936 C939 1.526 . S
C937 H921 0.959 . S
C937 H922 0.959 . S
C937 H923 0.992 . S
C937 C936 1.502 . S
C938 H924 0.960 . S
C938 H925 0.961 . S
C938 H926 0.959 . S
C938 C936 1.561 . S
C939 C936 1.526 . S
C939 C940 1.396 . S
C939 C944 1.390 . S
C940 C934 1.465 1_455 S
C940 C939 1.396 . S
C940 C941 1.399 . S
C941 H927 0.929 . S
C941 C940 1.399 . S
C941 C942 1.385 . S
C942 H928 0.931 . S
C942 C941 1.385 . S
C942 C943 1.389 . S
C943 C942 1.389 . S
C943 C944 1.387 . S
C944 H929 0.930 . S
C944 C939 1.390 . S
C944 C943 1.387 . S
H945 C957 0.930 . S
H946 C959 0.930 . S
H947 C960 0.930 . S
H948 C964 0.959 . S
H949 C964 0.959 . S
H950 C964 0.961 . S
H951 C965 0.960 . S
H952 C965 0.961 . S
H953 C965 0.959 . S
H954 C968 0.929 . S
H955 C969 0.931 . S
H956 C971 0.930 . S
C957 H945 0.930 . S
C957 C958 1.399 . S
C957 C962 1.399 . S
C958 C957 1.399 . S
C958 C959 1.376 . S
C959 H946 0.930 . S
C959 C958 1.376 . S
C959 C960 1.388 . S
C960 H947 0.930 . S
C960 C959 1.388 . S
C960 C961 1.390 . S
C961 C960 1.390 . S
C961 C962 1.394 . S
C961 C967 1.465 . S
C962 C957 1.399 . S
C962 C961 1.394 . S
C962 C963 1.516 . S
C963 C962 1.516 . S
C963 C964 1.502 . S
C963 C965 1.561 . S
C963 C966 1.526 . S
C964 H948 0.959 . S
C964 H949 0.959 . S
C964 H950 0.961 . S
C964 C963 1.502 . S
C965 H951 0.960 . S
C965 H952 0.961 . S
C965 H953 0.959 . S
C965 C963 1.561 . S
C966 C963 1.526 . S
C966 C967 1.396 . S
C966 C971 1.390 . S
C967 C961 1.465 . S
C967 C966 1.396 . S
C967 C968 1.399 . S
C968 H954 0.929 . S
C968 C967 1.399 . S
C968 C969 1.385 . S
C969 H955 0.931 . S
C969 C968 1.385 . S
C969 C970 1.389 . S
C970 C969 1.389 . S
C970 C971 1.387 . S
C971 H956 0.930 . S
C971 C966 1.390 . S
C971 C970 1.387 . S
H972 C984 0.930 . S
H973 C986 0.930 . S
H974 C987 0.930 . S
H975 C991 0.959 . S
H976 C991 0.959 . S
H977 C991 0.925 1_545 S
H978 C992 0.960 1_545 S
H979 C992 0.961 . S
H980 C992 0.959 . S
H981 C995 0.929 . S
H982 C996 0.931 . S
H983 C998 0.930 . S
C984 H972 0.930 . S
C984 C985 1.399 . S
C984 C989 1.399 . S
C985 C984 1.399 . S
C985 C986 1.376 . S
C986 H973 0.930 . S
C986 C985 1.376 . S
C986 C987 1.388 . S
C987 H974 0.930 . S
C987 C986 1.388 . S
C987 C988 1.390 . S
C988 C987 1.390 . S
C988 C989 1.394 . S
C988 C994 1.465 1_545 S
C989 C984 1.399 . S
C989 C988 1.394 . S
C989 C990 1.516 1_545 S
C990 C989 1.516 1_565 S
C990 C991 1.502 . S
C990 C992 1.561 . S
C990 C993 1.526 . S
C991 H975 0.959 . S
C991 H976 0.959 . S
C991 H977 0.925 1_565 S
C991 C990 1.502 . S
C992 H978 0.960 1_565 S
C992 H979 0.961 . S
C992 H980 0.959 . S
C992 C990 1.561 . S
C993 C990 1.526 . S
C993 C994 1.396 . S
C993 C998 1.390 . S
C994 C988 1.465 1_565 S
C994 C993 1.396 . S
C994 C995 1.399 . S
C995 H981 0.929 . S
C995 C994 1.399 . S
C995 C996 1.385 . S
C996 H982 0.931 . S
C996 C995 1.385 . S
C996 C997 1.389 . S
C997 C996 1.389 . S
C997 C998 1.387 . S
C998 H983 0.930 . S
C998 C993 1.390 . S
C998 C997 1.387 . S
H999 C1011 0.930 . S
H1000 C1013 0.930 . S
H1001 C1014 0.930 . S
H1002 C1018 0.959 . S
H1003 C1018 0.959 . S
H1004 C1018 0.961 . S
H1005 C1019 0.960 . S
H1006 C1019 0.961 . S
H1007 C1019 0.959 . S
H1008 C1022 0.929 . S
H1009 C1023 0.931 . S
H1010 C1025 0.930 . S
C1011 H999 0.930 . S
C1011 C1012 1.399 . S
C1011 C1016 1.399 . S
C1012 C1011 1.399 . S
C1012 C1013 1.376 . S
C1013 H1000 0.930 . S
C1013 C1012 1.376 . S
C1013 C1014 1.388 . S
C1014 H1001 0.930 . S
C1014 C1013 1.388 . S
C1014 C1015 1.390 . S
C1015 C1014 1.390 . S
C1015 C1016 1.394 . S
C1015 C1021 1.465 . S
C1016 C1011 1.399 . S
C1016 C1015 1.394 . S
C1016 C1017 1.516 . S
C1017 C1016 1.516 . S
C1017 C1018 1.502 . S
C1017 C1019 1.561 . S
C1017 C1020 1.526 . S
C1018 H1002 0.959 . S
C1018 H1003 0.959 . S
C1018 H1004 0.961 . S
C1018 C1017 1.502 . S
C1019 H1005 0.960 . S
C1019 H1006 0.961 . S
C1019 H1007 0.959 . S
C1019 C1017 1.561 . S
C1020 C1017 1.526 . S
C1020 C1021 1.396 . S
C1020 C1025 1.390 . S
C1021 C1015 1.465 . S
C1021 C1020 1.396 . S
C1021 C1022 1.399 . S
C1022 H1008 0.929 . S
C1022 C1021 1.399 . S
C1022 C1023 1.385 . S
C1023 H1009 0.931 . S
C1023 C1022 1.385 . S
C1023 C1024 1.389 . S
C1024 C1023 1.389 . S
C1024 C1025 1.387 . S
C1025 H1010 0.930 . S
C1025 C1020 1.390 . S
C1025 C1024 1.387 . S
H1026 C1038 0.930 . S
H1027 C1040 0.930 . S
H1028 C1041 0.930 . S
H1029 C1045 0.959 . S
H1030 C1045 0.959 . S
H1031 C1045 0.961 . S
H1032 C1046 0.960 . S
H1033 C1046 0.961 . S
H1034 C1046 0.959 . S
H1035 C1049 0.929 . S
H1036 C1050 0.931 . S
H1037 C1052 0.930 . S
C1038 H1026 0.930 . S
C1038 C1039 1.399 . S
C1038 C1043 1.399 . S
C1039 C1038 1.399 . S
C1039 C1040 1.376 . S
C1040 H1027 0.930 . S
C1040 C1039 1.376 . S
C1040 C1041 1.388 . S
C1041 H1028 0.930 . S
C1041 C1040 1.388 . S
C1041 C1042 1.390 . S
C1042 C1041 1.390 . S
C1042 C1043 1.394 . S
C1042 C1048 1.465 . S
C1043 C1038 1.399 . S
C1043 C1042 1.394 . S
C1043 C1044 1.516 . S
C1044 C1043 1.516 . S
C1044 C1045 1.502 . S
C1044 C1046 1.561 . S
C1044 C1047 1.526 . S
C1045 H1029 0.959 . S
C1045 H1030 0.959 . S
C1045 H1031 0.961 . S
C1045 C1044 1.502 . S
C1046 H1032 0.960 . S
C1046 H1033 0.961 . S
C1046 H1034 0.959 . S
C1046 C1044 1.561 . S
C1047 C1044 1.526 . S
C1047 C1048 1.396 . S
C1047 C1052 1.390 . S
C1048 C1042 1.465 . S
C1048 C1047 1.396 . S
C1048 C1049 1.399 . S
C1049 H1035 0.929 . S
C1049 C1048 1.399 . S
C1049 C1050 1.385 . S
C1050 H1036 0.931 . S
C1050 C1049 1.385 . S
C1050 C1051 1.389 . S
C1051 C1050 1.389 . S
C1051 C1052 1.387 . S
C1052 H1037 0.930 . S
C1052 C1047 1.390 . S
C1052 C1051 1.387 . S
H1053 C1065 0.930 . S
H1054 C1067 0.930 . S
H1055 C1068 0.930 . S
H1056 C1072 0.959 . S
H1057 C1072 0.959 . S
H1058 C1072 0.961 . S
H1059 C1073 0.960 . S
H1060 C1073 0.961 . S
H1061 C1073 0.959 . S
H1062 C1076 0.929 . S
H1063 C1077 0.931 . S
H1064 C1079 0.930 . S
C1065 H1053 0.930 . S
C1065 C1066 1.399 . S
C1065 C1070 1.399 . S
C1066 C1065 1.399 . S
C1066 C1067 1.376 . S
C1067 H1054 0.930 . S
C1067 C1066 1.376 . S
C1067 C1068 1.388 . S
C1068 H1055 0.930 . S
C1068 C1067 1.388 . S
C1068 C1069 1.390 . S
C1069 C1068 1.390 . S
C1069 C1070 1.394 . S
C1069 C1075 1.465 . S
C1070 C1065 1.399 . S
C1070 C1069 1.394 . S
C1070 C1071 1.516 . S
C1071 C1070 1.516 . S
C1071 C1072 1.502 . S
C1071 C1073 1.561 . S
C1071 C1074 1.526 . S
C1072 H1056 0.959 . S
C1072 H1057 0.959 . S
C1072 H1058 0.961 . S
C1072 C1071 1.502 . S
C1073 H1059 0.960 . S
C1073 H1060 0.961 . S
C1073 H1061 0.959 . S
C1073 C1071 1.561 . S
C1074 C1071 1.526 . S
C1074 C1075 1.396 . S
C1074 C1079 1.390 . S
C1075 C1069 1.465 . S
C1075 C1074 1.396 . S
C1075 C1076 1.399 . S
C1076 H1062 0.929 . S
C1076 C1075 1.399 . S
C1076 C1077 1.385 . S
C1077 H1063 0.931 . S
C1077 C1076 1.385 . S
C1077 C1078 1.389 . S
C1078 C1077 1.389 . S
C1078 C1079 1.387 . S
C1079 H1064 0.930 . S
C1079 C1074 1.390 . S
C1079 C1078 1.387 . S
H1080 C1092 0.930 . S
H1081 C1094 0.930 . S
H1082 C1095 0.930 . S
H1083 C1099 0.959 . S
H1084 C1099 0.959 . S
H1085 C1099 0.961 . S
H1086 C1100 0.960 . S
H1087 C1100 0.961 . S
H1088 C1100 0.959 . S
H1089 C1103 0.929 . S
H1090 C1104 0.931 . S
H1091 C1106 0.930 . S
C1092 H1080 0.930 . S
C1092 C1093 1.399 . S
C1092 C1097 1.399 . S
C1093 C1092 1.399 . S
C1093 C1094 1.376 . S
C1094 H1081 0.930 . S
C1094 C1093 1.376 . S
C1094 C1095 1.388 . S
C1095 H1082 0.930 . S
C1095 C1094 1.388 . S
C1095 C1096 1.390 . S
C1096 C1095 1.390 . S
C1096 C1097 1.394 . S
C1096 C1102 1.465 . S
C1097 C1092 1.399 . S
C1097 C1096 1.394 . S
C1097 C1098 1.516 . S
C1098 C1097 1.516 . S
C1098 C1099 1.502 . S
C1098 C1100 1.561 . S
C1098 C1101 1.526 . S
C1099 H1083 0.959 . S
C1099 H1084 0.959 . S
C1099 H1085 0.961 . S
C1099 C1098 1.502 . S
C1100 H1086 0.960 . S
C1100 H1087 0.961 . S
C1100 H1088 0.959 . S
C1100 C1098 1.561 . S
C1101 C1098 1.526 . S
C1101 C1102 1.396 . S
C1101 C1106 1.390 . S
C1102 C1096 1.465 . S
C1102 C1101 1.396 . S
C1102 C1103 1.399 . S
C1103 H1089 0.929 . S
C1103 C1102 1.399 . S
C1103 C1104 1.385 . S
C1104 H1090 0.931 . S
C1104 C1103 1.385 . S
C1104 C1105 1.389 . S
C1105 C1104 1.389 . S
C1105 C1106 1.387 . S
C1106 H1091 0.930 . S
C1106 C1101 1.390 . S
C1106 C1105 1.387 . S
H1107 C1119 0.930 . S
H1108 C1121 0.930 . S
H1109 C1122 0.930 . S
H1110 C1126 0.959 . S
H1111 C1126 0.959 . S
H1112 C1126 0.961 . S
H1113 C1127 0.960 . S
H1114 C1127 0.961 . S
H1115 C1127 0.959 . S
H1116 C1130 0.929 . S
H1117 C1131 0.931 . S
H1118 C1133 0.930 . S
C1119 H1107 0.930 . S
C1119 C1120 1.399 . S
C1119 C1124 1.399 . S
C1120 C1119 1.399 . S
C1120 C1121 1.376 . S
C1121 H1108 0.930 . S
C1121 C1120 1.376 . S
C1121 C1122 1.388 . S
C1122 H1109 0.930 . S
C1122 C1121 1.388 . S
C1122 C1123 1.390 . S
C1123 C1122 1.390 . S
C1123 C1124 1.394 . S
C1123 C1129 1.465 . S
C1124 C1119 1.399 . S
C1124 C1123 1.394 . S
C1124 C1125 1.516 . S
C1125 C1124 1.516 . S
C1125 C1126 1.502 . S
C1125 C1127 1.561 . S
C1125 C1128 1.526 . S
C1126 H1110 0.959 . S
C1126 H1111 0.959 . S
C1126 H1112 0.961 . S
C1126 C1125 1.502 . S
C1127 H1113 0.960 . S
C1127 H1114 0.961 . S
C1127 H1115 0.959 . S
C1127 C1125 1.561 . S
C1128 C1125 1.526 . S
C1128 C1129 1.396 . S
C1128 C1133 1.390 . S
C1129 C1123 1.465 . S
C1129 C1128 1.396 . S
C1129 C1130 1.399 . S
C1130 H1116 0.929 . S
C1130 C1129 1.399 . S
C1130 C1131 1.385 . S
C1131 H1117 0.931 . S
C1131 C1130 1.385 . S
C1131 C1132 1.389 . S
C1132 C1131 1.389 . S
C1132 C1133 1.387 . S
C1133 H1118 0.930 . S
C1133 C1128 1.390 . S
C1133 C1132 1.387 . S
H1134 C1146 0.930 . S
H1135 C1148 0.930 . S
H1136 C1149 0.930 . S
H1137 C1153 0.959 . S
H1138 C1153 0.959 . S
H1139 C1153 0.961 . S
H1140 C1154 0.960 . S
H1141 C1154 0.961 . S
H1142 C1154 0.959 . S
H1143 C1157 0.929 . S
H1144 C1158 0.931 . S
H1145 C1160 0.930 . S
C1146 H1134 0.930 . S
C1146 C1147 1.399 . S
C1146 C1151 1.399 . S
C1147 C1146 1.399 . S
C1147 C1148 1.376 . S
C1148 H1135 0.930 . S
C1148 C1147 1.376 . S
C1148 C1149 1.388 . S
C1149 H1136 0.930 . S
C1149 C1148 1.388 . S
C1149 C1150 1.390 . S
C1150 C1149 1.390 . S
C1150 C1151 1.394 . S
C1150 C1156 1.465 . S
C1151 C1146 1.399 . S
C1151 C1150 1.394 . S
C1151 C1152 1.516 . S
C1152 C1151 1.516 . S
C1152 C1153 1.502 . S
C1152 C1154 1.561 . S
C1152 C1155 1.526 . S
C1153 H1137 0.959 . S
C1153 H1138 0.959 . S
C1153 H1139 0.961 . S
C1153 C1152 1.502 . S
C1154 H1140 0.960 . S
C1154 H1141 0.961 . S
C1154 H1142 0.959 . S
C1154 C1152 1.561 . S
C1155 C1152 1.526 . S
C1155 C1156 1.396 . S
C1155 C1160 1.390 . S
C1156 C1150 1.465 . S
C1156 C1155 1.396 . S
C1156 C1157 1.399 . S
C1157 H1143 0.929 . S
C1157 C1156 1.399 . S
C1157 C1158 1.385 . S
C1158 H1144 0.931 . S
C1158 C1157 1.385 . S
C1158 C1159 1.389 . S
C1159 C1158 1.389 . S
C1159 C1160 1.387 . S
C1160 H1145 0.930 . S
C1160 C1155 1.390 . S
C1160 C1159 1.387 . S
H1161 C1173 0.930 . S
H1162 C1175 0.930 . S
H1163 C1176 0.930 . S
H1164 C1180 0.959 . S
H1165 C1180 0.959 . S
H1166 C1180 0.961 1_545 S
H1167 C1181 0.953 1_545 S
H1168 C1181 0.961 . S
H1169 C1181 0.959 . S
H1170 C1184 0.929 . S
H1171 C1185 0.931 . S
H1172 C1187 0.930 . S
C1173 H1161 0.930 . S
C1173 C1174 1.399 . S
C1173 C1178 1.399 . S
C1174 C1173 1.399 . S
C1174 C1175 1.376 . S
C1175 H1162 0.930 . S
C1175 C1174 1.376 . S
C1175 C1176 1.388 . S
C1176 H1163 0.930 . S
C1176 C1175 1.388 . S
C1176 C1177 1.390 . S
C1177 C1176 1.390 . S
C1177 C1178 1.394 . S
C1177 C1183 1.465 1_545 S
C1178 C1173 1.399 . S
C1178 C1177 1.394 . S
C1178 C1179 1.516 1_545 S
C1179 C1178 1.516 1_565 S
C1179 C1180 1.502 . S
C1179 C1181 1.561 . S
C1179 C1182 1.526 . S
C1180 H1164 0.959 . S
C1180 H1165 0.959 . S
C1180 H1166 0.961 1_565 S
C1180 C1179 1.502 . S
C1181 H1167 0.953 1_565 S
C1181 H1168 0.961 . S
C1181 H1169 0.959 . S
C1181 C1179 1.561 . S
C1182 C1179 1.526 . S
C1182 C1183 1.396 . S
C1182 C1187 1.390 . S
C1183 C1177 1.465 1_565 S
C1183 C1182 1.396 . S
C1183 C1184 1.399 . S
C1184 H1170 0.929 . S
C1184 C1183 1.399 . S
C1184 C1185 1.385 . S
C1185 H1171 0.931 . S
C1185 C1184 1.385 . S
C1185 C1186 1.389 . S
C1186 C1185 1.389 . S
C1186 C1187 1.387 . S
C1187 H1172 0.930 . S
C1187 C1182 1.390 . S
C1187 C1186 1.387 . S
H1188 C1200 0.930 . S
H1189 C1202 0.930 . S
H1190 C1203 0.930 1_455 S
H1191 C1207 0.959 . S
H1192 C1207 0.959 . S
H1193 C1207 0.961 1_655 S
H1194 C1208 0.960 . S
H1195 C1208 0.961 . S
H1196 C1208 0.959 . S
H1197 C1211 0.929 . S
H1198 C1212 0.931 . S
H1199 C1214 0.930 . S
C1200 H1188 0.930 . S
C1200 C1201 1.399 . S
C1200 C1205 1.399 . S
C1201 C1200 1.399 . S
C1201 C1202 1.376 . S
C1202 H1189 0.930 . S
C1202 C1201 1.376 . S
C1202 C1203 1.388 . S
C1203 H1190 0.930 1_655 S
C1203 C1202 1.388 . S
C1203 C1204 1.390 1_655 S
C1204 C1203 1.390 1_455 S
C1204 C1205 1.394 1_455 S
C1204 C1210 1.465 . S
C1205 C1200 1.399 . S
C1205 C1204 1.394 1_655 S
C1205 C1206 1.516 1_655 S
C1206 C1205 1.516 1_455 S
C1206 C1207 1.502 . S
C1206 C1208 1.561 1_455 S
C1206 C1209 1.526 . S
C1207 H1191 0.959 . S
C1207 H1192 0.959 . S
C1207 H1193 0.961 1_455 S
C1207 C1206 1.502 . S
C1208 H1194 0.960 . S
C1208 H1195 0.961 . S
C1208 H1196 0.959 . S
C1208 C1206 1.561 1_655 S
C1209 C1206 1.526 . S
C1209 C1210 1.396 . S
C1209 C1214 1.390 . S
C1210 C1204 1.465 . S
C1210 C1209 1.396 . S
C1210 C1211 1.399 . S
C1211 H1197 0.929 . S
C1211 C1210 1.399 . S
C1211 C1212 1.385 . S
C1212 H1198 0.931 . S
C1212 C1211 1.385 . S
C1212 C1213 1.389 . S
C1213 C1212 1.389 . S
C1213 C1214 1.387 . S
C1214 H1199 0.930 . S
C1214 C1209 1.390 . S
C1214 C1213 1.387 . S
H1215 C1227 0.930 . S
H1216 C1229 0.930 . S
H1217 C1230 0.930 . S
H1218 C1234 0.959 . S
H1219 C1234 0.959 . S
H1220 C1234 0.961 . S
H1221 C1235 0.960 . S
H1222 C1235 0.961 . S
H1223 C1235 0.959 . S
H1224 C1238 0.929 . S
H1225 C1239 0.931 . S
H1226 C1241 0.930 . S
C1227 H1215 0.930 . S
C1227 C1228 1.399 . S
C1227 C1232 1.399 . S
C1228 C1227 1.399 . S
C1228 C1229 1.376 . S
C1229 H1216 0.930 . S
C1229 C1228 1.376 . S
C1229 C1230 1.388 . S
C1230 H1217 0.930 . S
C1230 C1229 1.388 . S
C1230 C1231 1.390 . S
C1231 C1230 1.390 . S
C1231 C1232 1.394 . S
C1231 C1237 1.465 . S
C1232 C1227 1.399 . S
C1232 C1231 1.394 . S
C1232 C1233 1.516 . S
C1233 C1232 1.516 . S
C1233 C1234 1.502 . S
C1233 C1235 1.561 . S
C1233 C1236 1.526 . S
C1234 H1218 0.959 . S
C1234 H1219 0.959 . S
C1234 H1220 0.961 . S
C1234 C1233 1.502 . S
C1235 H1221 0.960 . S
C1235 H1222 0.961 . S
C1235 H1223 0.959 . S
C1235 C1233 1.561 . S
C1236 C1233 1.526 . S
C1236 C1237 1.396 . S
C1236 C1241 1.390 . S
C1237 C1231 1.465 . S
C1237 C1236 1.396 . S
C1237 C1238 1.399 . S
C1238 H1224 0.929 . S
C1238 C1237 1.399 . S
C1238 C1239 1.385 . S
C1239 H1225 0.931 . S
C1239 C1238 1.385 . S
C1239 C1240 1.389 . S
C1240 C1239 1.389 . S
C1240 C1241 1.387 . S
C1241 H1226 0.930 . S
C1241 C1236 1.390 . S
C1241 C1240 1.387 . S
H1242 C1254 0.930 . S
H1243 C1256 0.930 . S
H1244 C1257 0.930 . S
H1245 C1261 0.959 . S
H1246 C1261 0.959 . S
H1247 C1261 0.961 . S
H1248 C1262 0.960 . S
H1249 C1262 0.961 . S
H1250 C1262 0.959 . S
H1251 C1265 0.929 . S
H1252 C1266 0.931 . S
H1253 C1268 0.930 . S
C1254 H1242 0.930 . S
C1254 C1255 1.399 . S
C1254 C1259 1.399 . S
C1255 C1254 1.399 . S
C1255 C1256 1.376 . S
C1256 H1243 0.930 . S
C1256 C1255 1.376 . S
C1256 C1257 1.388 . S
C1257 H1244 0.930 . S
C1257 C1256 1.388 . S
C1257 C1258 1.390 . S
C1258 C1257 1.390 . S
C1258 C1259 1.394 . S
C1258 C1264 1.465 . S
C1259 C1254 1.399 . S
C1259 C1258 1.394 . S
C1259 C1260 1.516 . S
C1260 C1259 1.516 . S
C1260 C1261 1.502 . S
C1260 C1262 1.561 . S
C1260 C1263 1.526 . S
C1261 H1245 0.959 . S
C1261 H1246 0.959 . S
C1261 H1247 0.961 . S
C1261 C1260 1.502 . S
C1262 H1248 0.960 . S
C1262 H1249 0.961 . S
C1262 H1250 0.959 . S
C1262 C1260 1.561 . S
C1263 C1260 1.526 . S
C1263 C1264 1.396 . S
C1263 C1268 1.390 . S
C1264 C1258 1.465 . S
C1264 C1263 1.396 . S
C1264 C1265 1.399 . S
C1265 H1251 0.929 . S
C1265 C1264 1.399 . S
C1265 C1266 1.385 . S
C1266 H1252 0.931 . S
C1266 C1265 1.385 . S
C1266 C1267 1.389 . S
C1267 C1266 1.389 . S
C1267 C1268 1.387 . S
C1268 H1253 0.930 . S
C1268 C1263 1.390 . S
C1268 C1267 1.387 . S
H1269 C1281 0.930 . S
H1270 C1283 0.930 . S
H1271 C1284 0.930 . S
H1272 C1288 0.959 . S
H1273 C1288 0.959 . S
H1274 C1288 0.961 . S
H1275 C1289 0.960 . S
H1276 C1289 0.961 . S
H1277 C1289 0.959 . S
H1278 C1292 0.929 . S
H1279 C1293 0.931 . S
H1280 C1295 0.930 . S
C1281 H1269 0.930 . S
C1281 C1282 1.399 . S
C1281 C1286 1.399 . S
C1282 C1281 1.399 . S
C1282 C1283 1.376 . S
C1283 H1270 0.930 . S
C1283 C1282 1.376 . S
C1283 C1284 1.388 . S
C1284 H1271 0.930 . S
C1284 C1283 1.388 . S
C1284 C1285 1.390 . S
C1285 C1284 1.390 . S
C1285 C1286 1.394 . S
C1285 C1291 1.465 . S
C1286 C1281 1.399 . S
C1286 C1285 1.394 . S
C1286 C1287 1.516 . S
C1287 C1286 1.516 . S
C1287 C1288 1.502 . S
C1287 C1289 1.561 . S
C1287 C1290 1.526 . S
C1288 H1272 0.959 . S
C1288 H1273 0.959 . S
C1288 H1274 0.961 . S
C1288 C1287 1.502 . S
C1289 H1275 0.960 . S
C1289 H1276 0.961 . S
C1289 H1277 0.959 . S
C1289 C1287 1.561 . S
C1290 C1287 1.526 . S
C1290 C1291 1.396 . S
C1290 C1295 1.390 . S
C1291 C1285 1.465 . S
C1291 C1290 1.396 . S
C1291 C1292 1.399 . S
C1292 H1278 0.929 . S
C1292 C1291 1.399 . S
C1292 C1293 1.385 . S
C1293 H1279 0.931 . S
C1293 C1292 1.385 . S
C1293 C1294 1.389 . S
C1294 C1293 1.389 . S
C1294 C1295 1.387 . S
C1295 H1280 0.930 . S
C1295 C1290 1.390 . S
C1295 C1294 1.387 . S
H1296 C1308 0.930 . S
H1297 C1310 0.930 . S
H1298 C1311 0.930 . S
H1299 C1315 0.959 . S
H1300 C1315 0.959 . S
H1301 C1315 0.961 . S
H1302 C1316 0.960 . S
H1303 C1316 0.961 . S
H1304 C1316 0.959 . S
H1305 C1319 0.929 . S
H1306 C1320 0.931 . S
H1307 C1322 0.930 . S
C1308 H1296 0.930 . S
C1308 C1309 1.399 . S
C1308 C1313 1.399 . S
C1309 C1308 1.399 . S
C1309 C1310 1.376 . S
C1310 H1297 0.930 . S
C1310 C1309 1.376 . S
C1310 C1311 1.388 . S
C1311 H1298 0.930 . S
C1311 C1310 1.388 . S
C1311 C1312 1.390 . S
C1312 C1311 1.390 . S
C1312 C1313 1.394 . S
C1312 C1318 1.465 . S
C1313 C1308 1.399 . S
C1313 C1312 1.394 . S
C1313 C1314 1.516 . S
C1314 C1313 1.516 . S
C1314 C1315 1.502 . S
C1314 C1316 1.561 . S
C1314 C1317 1.526 . S
C1315 H1299 0.959 . S
C1315 H1300 0.959 . S
C1315 H1301 0.961 . S
C1315 C1314 1.502 . S
C1316 H1302 0.960 . S
C1316 H1303 0.961 . S
C1316 H1304 0.959 . S
C1316 C1314 1.561 . S
C1317 C1314 1.526 . S
C1317 C1318 1.396 . S
C1317 C1322 1.390 . S
C1318 C1312 1.465 . S
C1318 C1317 1.396 . S
C1318 C1319 1.399 . S
C1319 H1305 0.929 . S
C1319 C1318 1.399 . S
C1319 C1320 1.385 . S
C1320 H1306 0.931 . S
C1320 C1319 1.385 . S
C1320 C1321 1.389 . S
C1321 C1320 1.389 . S
C1321 C1322 1.387 . S
C1322 H1307 0.930 . S
C1322 C1317 1.390 . S
C1322 C1321 1.387 . S
H1323 C1335 0.930 . S
H1324 C1337 0.930 . S
H1325 C1338 0.930 . S
H1326 C1342 0.959 . S
H1327 C1342 0.959 . S
H1328 C1342 0.961 . S
H1329 C1343 0.960 . S
H1330 C1343 0.961 . S
H1331 C1343 0.959 . S
H1332 C1346 0.929 . S
H1333 C1347 0.931 . S
H1334 C1349 0.930 . S
C1335 H1323 0.930 . S
C1335 C1336 1.399 . S
C1335 C1340 1.399 . S
C1336 C1335 1.399 . S
C1336 C1337 1.376 . S
C1337 H1324 0.930 . S
C1337 C1336 1.376 . S
C1337 C1338 1.388 . S
C1338 H1325 0.930 . S
C1338 C1337 1.388 . S
C1338 C1339 1.402 . S
C1339 C1338 1.402 . S
C1339 C1340 1.400 . S
C1339 C1345 1.447 1_565 S
C1340 C1335 1.399 . S
C1340 C1339 1.400 . S
C1340 C1341 1.516 1_565 S
C1341 C1340 1.516 1_545 S
C1341 C1342 1.502 . S
C1341 C1343 1.561 . S
C1341 C1344 1.526 . S
C1342 H1326 0.959 . S
C1342 H1327 0.959 . S
C1342 H1328 0.961 . S
C1342 C1341 1.502 . S
C1343 H1329 0.960 . S
C1343 H1330 0.961 . S
C1343 H1331 0.959 . S
C1343 C1341 1.561 . S
C1344 C1341 1.526 . S
C1344 C1345 1.396 . S
C1344 C1349 1.390 . S
C1345 C1339 1.447 1_545 S
C1345 C1344 1.396 . S
C1345 C1346 1.399 . S
C1346 H1332 0.929 . S
C1346 C1345 1.399 . S
C1346 C1347 1.385 . S
C1347 H1333 0.931 . S
C1347 C1346 1.385 . S
C1347 C1348 1.389 . S
C1348 C1347 1.389 . S
C1348 C1349 1.387 . S
C1349 H1334 0.930 . S
C1349 C1344 1.390 . S
C1349 C1348 1.387 . S
H1350 C1362 0.930 . S
H1351 C1364 0.930 . S
H1352 C1365 0.930 . S
H1353 C1369 0.978 . S
H1354 C1369 0.923 1_655 S
H1355 C1369 0.990 . S
H1356 C1370 0.960 . S
H1357 C1370 0.961 . S
H1358 C1370 0.959 . S
H1359 C1373 0.929 . S
H1360 C1374 0.931 . S
H1361 C1376 0.930 . S
C1362 H1350 0.930 . S
C1362 C1363 1.399 . S
C1362 C1367 1.427 . S
C1363 C1362 1.399 . S
C1363 C1364 1.376 . S
C1364 H1351 0.930 . S
C1364 C1363 1.376 . S
C1364 C1365 1.388 1_455 S
C1365 H1352 0.930 . S
C1365 C1364 1.388 1_655 S
C1365 C1366 1.390 . S
C1366 C1365 1.390 . S
C1366 C1367 1.389 1_655 S
C1366 C1372 1.465 . S
C1367 C1362 1.427 . S
C1367 C1366 1.389 1_455 S
C1367 C1368 1.490 1_455 S
C1368 C1367 1.490 1_655 S
C1368 C1369 1.493 1_655 S
C1368 C1370 1.561 . S
C1368 C1371 1.526 . S
C1369 H1353 0.978 . S
C1369 H1354 0.923 1_455 S
C1369 H1355 0.990 . S
C1369 C1368 1.493 1_455 S
C1370 H1356 0.960 . S
C1370 H1357 0.961 . S
C1370 H1358 0.959 . S
C1370 C1368 1.561 . S
C1371 C1368 1.526 . S
C1371 C1372 1.396 . S
C1371 C1376 1.390 . S
C1372 C1366 1.465 . S
C1372 C1371 1.396 . S
C1372 C1373 1.399 . S
C1373 H1359 0.929 . S
C1373 C1372 1.399 . S
C1373 C1374 1.385 . S
C1374 H1360 0.931 . S
C1374 C1373 1.385 . S
C1374 C1375 1.389 . S
C1375 C1374 1.389 . S
C1375 C1376 1.387 . S
C1376 H1361 0.930 . S
C1376 C1371 1.390 . S
C1376 C1375 1.387 . S
H1377 C1389 0.930 . S
H1378 C1391 0.930 . S
H1379 C1392 0.930 . S
H1380 C1396 0.959 . S
H1381 C1396 0.959 . S
H1382 C1396 0.961 . S
H1383 C1397 0.960 . S
H1384 C1397 0.961 . S
H1385 C1397 0.959 . S
H1386 C1400 0.929 . S
H1387 C1401 0.931 . S
H1388 C1403 0.930 . S
C1389 H1377 0.930 . S
C1389 C1390 1.399 . S
C1389 C1394 1.399 . S
C1390 C1389 1.399 . S
C1390 C1391 1.376 . S
C1391 H1378 0.930 . S
C1391 C1390 1.376 . S
C1391 C1392 1.388 . S
C1392 H1379 0.930 . S
C1392 C1391 1.388 . S
C1392 C1393 1.390 . S
C1393 C1392 1.390 . S
C1393 C1394 1.394 . S
C1393 C1399 1.465 . S
C1394 C1389 1.399 . S
C1394 C1393 1.394 . S
C1394 C1395 1.516 . S
C1395 C1394 1.516 . S
C1395 C1396 1.502 . S
C1395 C1397 1.561 . S
C1395 C1398 1.526 . S
C1396 H1380 0.959 . S
C1396 H1381 0.959 . S
C1396 H1382 0.961 . S
C1396 C1395 1.502 . S
C1397 H1383 0.960 . S
C1397 H1384 0.961 . S
C1397 H1385 0.959 . S
C1397 C1395 1.561 . S
C1398 C1395 1.526 . S
C1398 C1399 1.396 . S
C1398 C1403 1.390 . S
C1399 C1393 1.465 . S
C1399 C1398 1.396 . S
C1399 C1400 1.399 . S
C1400 H1386 0.929 . S
C1400 C1399 1.399 . S
C1400 C1401 1.385 . S
C1401 H1387 0.931 . S
C1401 C1400 1.385 . S
C1401 C1402 1.389 . S
C1402 C1401 1.389 . S
C1402 C1403 1.387 . S
C1403 H1388 0.930 . S
C1403 C1398 1.390 . S
C1403 C1402 1.387 . S
H1404 C1416 0.930 . S
H1405 C1418 0.930 . S
H1406 C1419 0.930 . S
H1407 C1423 0.959 . S
H1408 C1423 0.959 1_655 S
H1409 C1423 0.961 . S
H1410 C1424 0.960 . S
H1411 C1424 0.961 . S
H1412 C1424 0.959 . S
H1413 C1427 0.929 . S
H1414 C1428 0.931 . S
H1415 C1430 0.930 . S
C1416 H1404 0.930 . S
C1416 C1417 1.399 . S
C1416 C1421 1.399 . S
C1417 C1416 1.399 . S
C1417 C1418 1.376 . S
C1418 H1405 0.930 . S
C1418 C1417 1.376 . S
C1418 C1419 1.388 . S
C1419 H1406 0.930 . S
C1419 C1418 1.388 . S
C1419 C1420 1.390 . S
C1420 C1419 1.390 . S
C1420 C1421 1.394 . S
C1420 C1426 1.465 . S
C1421 C1416 1.399 . S
C1421 C1420 1.394 . S
C1421 C1422 1.516 . S
C1422 C1421 1.516 . S
C1422 C1423 1.502 . S
C1422 C1424 1.561 . S
C1422 C1425 1.516 1_455 S
C1423 H1407 0.959 . S
C1423 H1408 0.959 1_455 S
C1423 H1409 0.961 . S
C1423 C1422 1.502 . S
C1424 H1410 0.960 . S
C1424 H1411 0.961 . S
C1424 H1412 0.959 . S
C1424 C1422 1.561 . S
C1425 C1422 1.516 1_655 S
C1425 C1426 1.386 1_655 S
C1425 C1430 1.408 . S
C1426 C1420 1.465 . S
C1426 C1425 1.386 1_455 S
C1426 C1427 1.399 . S
C1427 H1413 0.929 . S
C1427 C1426 1.399 . S
C1427 C1428 1.385 1_455 S
C1428 H1414 0.931 . S
C1428 C1427 1.385 1_655 S
C1428 C1429 1.389 . S
C1429 C1428 1.389 . S
C1429 C1430 1.387 . S
C1430 H1415 0.930 . S
C1430 C1425 1.408 . S
C1430 C1429 1.387 . S
H1431 C1443 0.930 . S
H1432 C1445 0.930 . S
H1433 C1446 0.930 . S
H1434 C1450 0.959 . S
H1435 C1450 0.959 . S
H1436 C1450 0.961 . S
H1437 C1451 0.960 . S
H1438 C1451 0.961 . S
H1439 C1451 0.959 . S
H1440 C1454 0.929 . S
H1441 C1455 0.931 . S
H1442 C1457 0.930 . S
C1443 H1431 0.930 . S
C1443 C1444 1.399 . S
C1443 C1448 1.399 . S
C1444 C1443 1.399 . S
C1444 C1445 1.376 . S
C1445 H1432 0.930 . S
C1445 C1444 1.376 . S
C1445 C1446 1.388 . S
C1446 H1433 0.930 . S
C1446 C1445 1.388 . S
C1446 C1447 1.390 . S
C1447 C1446 1.390 . S
C1447 C1448 1.394 . S
C1447 C1453 1.465 . S
C1448 C1443 1.399 . S
C1448 C1447 1.394 . S
C1448 C1449 1.516 . S
C1449 C1448 1.516 . S
C1449 C1450 1.502 . S
C1449 C1451 1.561 . S
C1449 C1452 1.526 . S
C1450 H1434 0.959 . S
C1450 H1435 0.959 . S
C1450 H1436 0.961 . S
C1450 C1449 1.502 . S
C1451 H1437 0.960 . S
C1451 H1438 0.961 . S
C1451 H1439 0.959 . S
C1451 C1449 1.561 . S
C1452 C1449 1.526 . S
C1452 C1453 1.396 . S
C1452 C1457 1.390 . S
C1453 C1447 1.465 . S
C1453 C1452 1.396 . S
C1453 C1454 1.399 . S
C1454 H1440 0.929 . S
C1454 C1453 1.399 . S
C1454 C1455 1.385 . S
C1455 H1441 0.931 . S
C1455 C1454 1.385 . S
C1455 C1456 1.389 . S
C1456 C1455 1.389 . S
C1456 C1457 1.387 . S
C1457 H1442 0.930 . S
C1457 C1452 1.390 . S
C1457 C1456 1.387 . S
H1458 C1470 0.930 . S
H1459 C1472 0.930 . S
H1460 C1473 0.930 . S
H1461 C1477 0.959 . S
H1462 C1477 0.960 1_545 S
H1463 C1477 0.961 . S
H1464 C1478 0.960 . S
H1465 C1478 0.961 1_545 S
H1466 C1478 0.959 1_545 S
H1467 C1481 0.929 . S
H1468 C1482 0.931 . S
H1469 C1484 0.930 . S
C1470 H1458 0.930 . S
C1470 C1471 1.399 . S
C1470 C1475 1.399 . S
C1471 C1470 1.399 . S
C1471 C1472 1.376 . S
C1472 H1459 0.930 . S
C1472 C1471 1.376 . S
C1472 C1473 1.388 . S
C1473 H1460 0.930 . S
C1473 C1472 1.388 . S
C1473 C1474 1.390 . S
C1474 C1473 1.390 . S
C1474 C1475 1.394 . S
C1474 C1480 1.465 1_565 S
C1475 C1470 1.399 . S
C1475 C1474 1.394 . S
C1475 C1476 1.516 . S
C1476 C1475 1.516 . S
C1476 C1477 1.502 . S
C1476 C1478 1.561 . S
C1476 C1479 1.526 1_565 S
C1477 H1461 0.959 . S
C1477 H1462 0.960 1_565 S
C1477 H1463 0.961 . S
C1477 C1476 1.502 . S
C1478 H1464 0.960 . S
C1478 H1465 0.961 1_565 S
C1478 H1466 0.959 1_565 S
C1478 C1476 1.561 . S
C1479 C1476 1.526 1_545 S
C1479 C1480 1.396 . S
C1479 C1484 1.390 . S
C1480 C1474 1.465 1_545 S
C1480 C1479 1.396 . S
C1480 C1481 1.399 . S
C1481 H1467 0.929 . S
C1481 C1480 1.399 . S
C1481 C1482 1.385 . S
C1482 H1468 0.931 . S
C1482 C1481 1.385 . S
C1482 C1483 1.389 . S
C1483 C1482 1.389 . S
C1483 C1484 1.387 . S
C1484 H1469 0.930 . S
C1484 C1479 1.390 . S
C1484 C1483 1.387 . S
H1485 C1497 0.930 . S
H1486 C1499 0.930 . S
H1487 C1500 0.930 . S
H1488 C1504 0.959 . S
H1489 C1504 0.959 . S
H1490 C1504 0.961 . S
H1491 C1505 0.960 . S
H1492 C1505 0.961 . S
H1493 C1505 0.959 . S
H1494 C1508 0.929 . S
H1495 C1509 0.931 . S
H1496 C1511 0.930 . S
C1497 H1485 0.930 . S
C1497 C1498 1.399 . S
C1497 C1502 1.399 . S
C1498 C1497 1.399 . S
C1498 C1499 1.376 . S
C1499 H1486 0.930 . S
C1499 C1498 1.376 . S
C1499 C1500 1.388 . S
C1500 H1487 0.930 . S
C1500 C1499 1.388 . S
C1500 C1501 1.390 . S
C1501 C1500 1.390 . S
C1501 C1502 1.394 . S
C1501 C1507 1.465 . S
C1502 C1497 1.399 . S
C1502 C1501 1.394 . S
C1502 C1503 1.516 . S
C1503 C1502 1.516 . S
C1503 C1504 1.502 . S
C1503 C1505 1.561 . S
C1503 C1506 1.526 . S
C1504 H1488 0.959 . S
C1504 H1489 0.959 . S
C1504 H1490 0.961 . S
C1504 C1503 1.502 . S
C1505 H1491 0.960 . S
C1505 H1492 0.961 . S
C1505 H1493 0.959 . S
C1505 C1503 1.561 . S
C1506 C1503 1.526 . S
C1506 C1507 1.396 . S
C1506 C1511 1.390 . S
C1507 C1501 1.465 . S
C1507 C1506 1.396 . S
C1507 C1508 1.399 . S
C1508 H1494 0.929 . S
C1508 C1507 1.399 . S
C1508 C1509 1.385 . S
C1509 H1495 0.931 . S
C1509 C1508 1.385 . S
C1509 C1510 1.389 . S
C1510 C1509 1.389 . S
C1510 C1511 1.387 . S
C1511 H1496 0.930 . S
C1511 C1506 1.390 . S
C1511 C1510 1.387 . S
H1512 C1524 0.930 . S
H1513 C1526 0.930 . S
H1514 C1527 0.930 . S
H1515 C1531 0.959 . S
H1516 C1531 0.959 . S
H1517 C1531 0.961 . S
H1518 C1532 0.960 . S
H1519 C1532 0.961 . S
H1520 C1532 0.959 . S
H1521 C1535 0.929 . S
H1522 C1536 0.931 . S
H1523 C1538 0.930 . S
C1524 H1512 0.930 . S
C1524 C1525 1.399 . S
C1524 C1529 1.399 . S
C1525 C1524 1.399 . S
C1525 C1526 1.376 . S
C1526 H1513 0.930 . S
C1526 C1525 1.376 . S
C1526 C1527 1.388 . S
C1527 H1514 0.930 . S
C1527 C1526 1.388 . S
C1527 C1528 1.390 . S
C1528 C1527 1.390 . S
C1528 C1529 1.394 . S
C1528 C1534 1.465 . S
C1529 C1524 1.399 . S
C1529 C1528 1.394 . S
C1529 C1530 1.516 . S
C1530 C1529 1.516 . S
C1530 C1531 1.502 . S
C1530 C1532 1.561 . S
C1530 C1533 1.526 . S
C1531 H1515 0.959 . S
C1531 H1516 0.959 . S
C1531 H1517 0.961 . S
C1531 C1530 1.502 . S
C1532 H1518 0.960 . S
C1532 H1519 0.961 . S
C1532 H1520 0.959 . S
C1532 C1530 1.561 . S
C1533 C1530 1.526 . S
C1533 C1534 1.396 . S
C1533 C1538 1.390 . S
C1534 C1528 1.465 . S
C1534 C1533 1.396 . S
C1534 C1535 1.399 . S
C1535 H1521 0.929 . S
C1535 C1534 1.399 . S
C1535 C1536 1.385 . S
C1536 H1522 0.931 . S
C1536 C1535 1.385 . S
C1536 C1537 1.389 . S
C1537 C1536 1.389 . S
C1537 C1538 1.387 . S
C1538 H1523 0.930 . S
C1538 C1533 1.390 . S
C1538 C1537 1.387 . S
H1539 C1551 0.930 . S
H1540 C1553 0.930 . S
H1541 C1554 0.930 . S
H1542 C1558 0.959 . S
H1543 C1558 0.959 . S
H1544 C1558 0.961 . S
H1545 C1559 0.960 . S
H1546 C1559 0.961 . S
H1547 C1559 0.959 . S
H1548 C1562 0.929 . S
H1549 C1563 0.931 . S
H1550 C1565 0.930 . S
C1551 H1539 0.930 . S
C1551 C1552 1.399 . S
C1551 C1556 1.399 . S
C1552 C1551 1.399 . S
C1552 C1553 1.376 . S
C1553 H1540 0.930 . S
C1553 C1552 1.376 . S
C1553 C1554 1.388 . S
C1554 H1541 0.930 . S
C1554 C1553 1.388 . S
C1554 C1555 1.390 . S
C1555 C1554 1.390 . S
C1555 C1556 1.394 . S
C1555 C1561 1.465 . S
C1556 C1551 1.399 . S
C1556 C1555 1.394 . S
C1556 C1557 1.516 . S
C1557 C1556 1.516 . S
C1557 C1558 1.502 . S
C1557 C1559 1.561 . S
C1557 C1560 1.526 . S
C1558 H1542 0.959 . S
C1558 H1543 0.959 . S
C1558 H1544 0.961 . S
C1558 C1557 1.502 . S
C1559 H1545 0.960 . S
C1559 H1546 0.961 . S
C1559 H1547 0.959 . S
C1559 C1557 1.561 . S
C1560 C1557 1.526 . S
C1560 C1561 1.396 . S
C1560 C1565 1.390 . S
C1561 C1555 1.465 . S
C1561 C1560 1.396 . S
C1561 C1562 1.399 . S
C1562 H1548 0.929 . S
C1562 C1561 1.399 . S
C1562 C1563 1.385 . S
C1563 H1549 0.931 . S
C1563 C1562 1.385 . S
C1563 C1564 1.389 . S
C1564 C1563 1.389 . S
C1564 C1565 1.387 . S
C1565 H1550 0.930 . S
C1565 C1560 1.390 . S
C1565 C1564 1.387 . S
H1566 C1578 0.930 . S
H1567 C1580 0.930 . S
H1568 C1581 0.930 . S
H1569 C1585 0.959 . S
H1570 C1585 0.959 . S
H1571 C1585 0.961 . S
H1572 C1586 0.960 . S
H1573 C1586 0.961 . S
H1574 C1586 0.959 . S
H1575 C1589 0.929 . S
H1576 C1590 0.931 . S
H1577 C1592 0.930 . S
C1578 H1566 0.930 . S
C1578 C1579 1.399 . S
C1578 C1583 1.399 . S
C1579 C1578 1.399 . S
C1579 C1580 1.376 . S
C1580 H1567 0.930 . S
C1580 C1579 1.376 . S
C1580 C1581 1.388 . S
C1581 H1568 0.930 . S
C1581 C1580 1.388 . S
C1581 C1582 1.390 . S
C1582 C1581 1.390 . S
C1582 C1583 1.394 . S
C1582 C1588 1.465 . S
C1583 C1578 1.399 . S
C1583 C1582 1.394 . S
C1583 C1584 1.516 . S
C1584 C1583 1.516 . S
C1584 C1585 1.502 . S
C1584 C1586 1.561 . S
C1584 C1587 1.526 . S
C1585 H1569 0.959 . S
C1585 H1570 0.959 . S
C1585 H1571 0.961 . S
C1585 C1584 1.502 . S
C1586 H1572 0.960 . S
C1586 H1573 0.961 . S
C1586 H1574 0.959 . S
C1586 C1584 1.561 . S
C1587 C1584 1.526 . S
C1587 C1588 1.396 . S
C1587 C1592 1.390 . S
C1588 C1582 1.465 . S
C1588 C1587 1.396 . S
C1588 C1589 1.399 . S
C1589 H1575 0.929 . S
C1589 C1588 1.399 . S
C1589 C1590 1.385 . S
C1590 H1576 0.931 . S
C1590 C1589 1.385 . S
C1590 C1591 1.389 . S
C1591 C1590 1.389 . S
C1591 C1592 1.387 . S
C1592 H1577 0.930 . S
C1592 C1587 1.390 . S
C1592 C1591 1.387 . S
H1593 C1605 0.930 . S
H1594 C1607 0.930 . S
H1595 C1608 0.930 . S
H1596 C1612 0.959 . S
H1597 C1612 0.959 . S
H1598 C1612 0.961 . S
H1599 C1613 0.960 . S
H1600 C1613 0.961 . S
H1601 C1613 0.959 1_655 S
H1602 C1616 0.929 . S
H1603 C1617 0.931 . S
H1604 C1619 0.930 . S
C1605 H1593 0.930 . S
C1605 C1606 1.399 . S
C1605 C1610 1.399 . S
C1606 C1605 1.399 . S
C1606 C1607 1.376 . S
C1607 H1594 0.930 . S
C1607 C1606 1.376 . S
C1607 C1608 1.388 . S
C1608 H1595 0.930 . S
C1608 C1607 1.388 . S
C1608 C1609 1.390 . S
C1609 C1608 1.390 . S
C1609 C1610 1.394 . S
C1609 C1615 1.465 . S
C1610 C1605 1.399 . S
C1610 C1609 1.394 . S
C1610 C1611 1.516 . S
C1611 C1610 1.516 . S
C1611 C1612 1.502 . S
C1611 C1613 1.561 . S
C1611 C1614 1.526 . S
C1612 H1596 0.959 . S
C1612 H1597 0.959 . S
C1612 H1598 0.961 . S
C1612 C1611 1.502 . S
C1613 H1599 0.960 . S
C1613 H1600 0.961 . S
C1613 H1601 0.959 1_455 S
C1613 C1611 1.561 . S
C1614 C1611 1.526 . S
C1614 C1615 1.396 . S
C1614 C1619 1.390 . S
C1615 C1609 1.465 . S
C1615 C1614 1.396 . S
C1615 C1616 1.399 . S
C1616 H1602 0.929 . S
C1616 C1615 1.399 . S
C1616 C1617 1.385 . S
C1617 H1603 0.931 . S
C1617 C1616 1.385 . S
C1617 C1618 1.389 . S
C1618 C1617 1.389 . S
C1618 C1619 1.387 . S
C1619 H1604 0.930 . S
C1619 C1614 1.390 . S
C1619 C1618 1.387 . S
H1620 C1632 0.930 . S
H1621 C1634 0.930 . S
H1622 C1635 0.930 . S
H1623 C1639 0.959 . S
H1624 C1639 0.959 . S
H1625 C1639 0.961 . S
H1626 C1640 0.960 . S
H1627 C1640 0.961 . S
H1628 C1640 0.959 . S
H1629 C1643 0.929 . S
H1630 C1644 0.931 . S
H1631 C1646 0.930 . S
C1632 H1620 0.930 . S
C1632 C1633 1.399 . S
C1632 C1637 1.399 . S
C1633 C1632 1.399 . S
C1633 C1634 1.376 . S
C1634 H1621 0.930 . S
C1634 C1633 1.376 . S
C1634 C1635 1.388 . S
C1635 H1622 0.930 . S
C1635 C1634 1.388 . S
C1635 C1636 1.390 . S
C1636 C1635 1.390 . S
C1636 C1637 1.394 . S
C1636 C1642 1.465 . S
C1637 C1632 1.399 . S
C1637 C1636 1.394 . S
C1637 C1638 1.516 . S
C1638 C1637 1.516 . S
C1638 C1639 1.502 . S
C1638 C1640 1.561 . S
C1638 C1641 1.526 . S
C1639 H1623 0.959 . S
C1639 H1624 0.959 . S
C1639 H1625 0.961 . S
C1639 C1638 1.502 . S
C1640 H1626 0.960 . S
C1640 H1627 0.961 . S
C1640 H1628 0.959 . S
C1640 C1638 1.561 . S
C1641 C1638 1.526 . S
C1641 C1642 1.396 . S
C1641 C1646 1.390 . S
C1642 C1636 1.465 . S
C1642 C1641 1.396 . S
C1642 C1643 1.399 . S
C1643 H1629 0.929 . S
C1643 C1642 1.399 . S
C1643 C1644 1.385 . S
C1644 H1630 0.931 . S
C1644 C1643 1.385 . S
C1644 C1645 1.389 . S
C1645 C1644 1.389 . S
C1645 C1646 1.387 . S
C1646 H1631 0.930 . S
C1646 C1641 1.390 . S
C1646 C1645 1.387 . S
H1647 C1659 0.930 . S
H1648 C1661 0.930 . S
H1649 C1662 0.930 . S
H1650 C1666 0.959 . S
H1651 C1666 0.959 . S
H1652 C1666 0.961 . S
H1653 C1667 0.960 . S
H1654 C1667 0.961 . S
H1655 C1667 0.959 . S
H1656 C1670 0.929 . S
H1657 C1671 0.931 . S
H1658 C1673 0.930 1_455 S
C1659 H1647 0.930 . S
C1659 C1660 1.399 . S
C1659 C1664 1.399 . S
C1660 C1659 1.399 . S
C1660 C1661 1.376 . S
C1661 H1648 0.930 . S
C1661 C1660 1.376 . S
C1661 C1662 1.388 . S
C1662 H1649 0.930 . S
C1662 C1661 1.388 . S
C1662 C1663 1.390 . S
C1663 C1662 1.390 . S
C1663 C1664 1.394 . S
C1663 C1669 1.465 . S
C1664 C1659 1.399 . S
C1664 C1663 1.394 . S
C1664 C1665 1.516 . S
C1665 C1664 1.516 . S
C1665 C1666 1.502 1_655 S
C1665 C1667 1.561 . S
C1665 C1668 1.526 . S
C1666 H1650 0.959 . S
C1666 H1651 0.959 . S
C1666 H1652 0.961 . S
C1666 C1665 1.502 1_455 S
C1667 H1653 0.960 . S
C1667 H1654 0.961 . S
C1667 H1655 0.959 . S
C1667 C1665 1.561 . S
C1668 C1665 1.526 . S
C1668 C1669 1.396 . S
C1668 C1673 1.390 . S
C1669 C1663 1.465 . S
C1669 C1668 1.396 . S
C1669 C1670 1.399 . S
C1670 H1656 0.929 . S
C1670 C1669 1.399 . S
C1670 C1671 1.385 . S
C1671 H1657 0.931 . S
C1671 C1670 1.385 . S
C1671 C1672 1.389 . S
C1672 C1671 1.389 . S
C1672 C1673 1.387 . S
C1673 H1658 0.930 1_655 S
C1673 C1668 1.390 . S
C1673 C1672 1.387 . S
H1674 C1686 0.930 . S
H1675 C1688 0.930 . S
H1676 C1689 0.930 . S
H1677 C1693 0.959 . S
H1678 C1693 0.959 . S
H1679 C1693 0.961 . S
H1680 C1694 0.960 . S
H1681 C1694 0.961 . S
H1682 C1694 0.959 . S
H1683 C1697 0.929 . S
H1684 C1698 0.931 . S
H1685 C1700 0.930 . S
C1686 H1674 0.930 . S
C1686 C1687 1.399 . S
C1686 C1691 1.399 . S
C1687 C1686 1.399 . S
C1687 C1688 1.376 . S
C1688 H1675 0.930 . S
C1688 C1687 1.376 . S
C1688 C1689 1.388 . S
C1689 H1676 0.930 . S
C1689 C1688 1.388 . S
C1689 C1690 1.390 . S
C1690 C1689 1.390 . S
C1690 C1691 1.394 . S
C1690 C1696 1.465 . S
C1691 C1686 1.399 . S
C1691 C1690 1.394 . S
C1691 C1692 1.516 . S
C1692 C1691 1.516 . S
C1692 C1693 1.502 . S
C1692 C1694 1.561 . S
C1692 C1695 1.526 . S
C1693 H1677 0.959 . S
C1693 H1678 0.959 . S
C1693 H1679 0.961 . S
C1693 C1692 1.502 . S
C1694 H1680 0.960 . S
C1694 H1681 0.961 . S
C1694 H1682 0.959 . S
C1694 C1692 1.561 . S
C1695 C1692 1.526 . S
C1695 C1696 1.396 . S
C1695 C1700 1.390 . S
C1696 C1690 1.465 . S
C1696 C1695 1.396 . S
C1696 C1697 1.399 . S
C1697 H1683 0.929 . S
C1697 C1696 1.399 . S
C1697 C1698 1.385 . S
C1698 H1684 0.931 . S
C1698 C1697 1.385 . S
C1698 C1699 1.389 . S
C1699 C1698 1.389 . S
C1699 C1700 1.387 . S
C1700 H1685 0.930 . S
C1700 C1695 1.390 . S
C1700 C1699 1.387 . S
H1701 C1713 0.930 . S
H1702 C1715 0.930 . S
H1703 C1716 0.930 . S
H1704 C1720 0.959 . S
H1705 C1720 0.959 . S
H1706 C1720 0.961 . S
H1707 C1721 0.960 . S
H1708 C1721 0.961 . S
H1709 C1721 0.959 . S
H1710 C1724 0.929 . S
H1711 C1725 0.931 . S
H1712 C1727 0.930 . S
C1713 H1701 0.930 . S
C1713 C1714 1.399 . S
C1713 C1718 1.399 . S
C1714 C1713 1.399 . S
C1714 C1715 1.376 . S
C1715 H1702 0.930 . S
C1715 C1714 1.376 . S
C1715 C1716 1.388 . S
C1716 H1703 0.930 . S
C1716 C1715 1.388 . S
C1716 C1717 1.390 . S
C1717 C1716 1.390 . S
C1717 C1718 1.394 . S
C1717 C1723 1.465 . S
C1718 C1713 1.399 . S
C1718 C1717 1.394 . S
C1718 C1719 1.516 . S
C1719 C1718 1.516 . S
C1719 C1720 1.502 . S
C1719 C1721 1.561 . S
C1719 C1722 1.526 . S
C1720 H1704 0.959 . S
C1720 H1705 0.959 . S
C1720 H1706 0.961 . S
C1720 C1719 1.502 . S
C1721 H1707 0.960 . S
C1721 H1708 0.961 . S
C1721 H1709 0.959 . S
C1721 C1719 1.561 . S
C1722 C1719 1.526 . S
C1722 C1723 1.396 . S
C1722 C1727 1.390 . S
C1723 C1717 1.465 . S
C1723 C1722 1.396 . S
C1723 C1724 1.399 . S
C1724 H1710 0.929 . S
C1724 C1723 1.399 . S
C1724 C1725 1.385 . S
C1725 H1711 0.931 . S
C1725 C1724 1.385 . S
C1725 C1726 1.389 . S
C1726 C1725 1.389 . S
C1726 C1727 1.387 . S
C1727 H1712 0.930 . S
C1727 C1722 1.390 . S
C1727 C1726 1.387 . S
H1728 C1740 0.930 . S
H1729 C1742 0.930 . S
H1730 C1743 0.930 . S
H1731 C1747 0.959 . S
H1732 C1747 0.959 . S
H1733 C1747 0.961 . S
H1734 C1748 0.960 . S
H1735 C1748 0.961 . S
H1736 C1748 0.959 . S
H1737 C1751 0.929 . S
H1738 C1752 0.931 . S
H1739 C1754 0.930 . S
C1740 H1728 0.930 . S
C1740 C1741 1.399 . S
C1740 C1745 1.399 . S
C1741 C1740 1.399 . S
C1741 C1742 1.376 . S
C1742 H1729 0.930 . S
C1742 C1741 1.376 . S
C1742 C1743 1.388 . S
C1743 H1730 0.930 . S
C1743 C1742 1.388 . S
C1743 C1744 1.390 . S
C1744 C1743 1.390 . S
C1744 C1745 1.394 . S
C1744 C1750 1.465 . S
C1745 C1740 1.399 . S
C1745 C1744 1.394 . S
C1745 C1746 1.516 . S
C1746 C1745 1.516 . S
C1746 C1747 1.502 . S
C1746 C1748 1.561 . S
C1746 C1749 1.526 . S
C1747 H1731 0.959 . S
C1747 H1732 0.959 . S
C1747 H1733 0.961 . S
C1747 C1746 1.502 . S
C1748 H1734 0.960 . S
C1748 H1735 0.961 . S
C1748 H1736 0.959 . S
C1748 C1746 1.561 . S
C1749 C1746 1.526 . S
C1749 C1750 1.396 . S
C1749 C1754 1.390 . S
C1750 C1744 1.465 . S
C1750 C1749 1.396 . S
C1750 C1751 1.399 . S
C1751 H1737 0.929 . S
C1751 C1750 1.399 . S
C1751 C1752 1.385 . S
C1752 H1738 0.931 . S
C1752 C1751 1.385 . S
C1752 C1753 1.389 . S
C1753 C1752 1.389 . S
C1753 C1754 1.387 . S
C1754 H1739 0.930 . S
C1754 C1749 1.390 . S
C1754 C1753 1.387 . S
H1755 C1767 0.930 . S
H1756 C1769 0.930 . S
H1757 C1770 0.930 . S
H1758 C1774 0.959 . S
H1759 C1774 0.959 . S
H1760 C1774 0.961 . S
H1761 C1775 0.960 . S
H1762 C1775 0.961 . S
H1763 C1775 0.959 . S
H1764 C1778 0.929 . S
H1765 C1779 0.931 . S
H1766 C1781 0.930 . S
C1767 H1755 0.930 . S
C1767 C1768 1.399 . S
C1767 C1772 1.399 . S
C1768 C1767 1.399 . S
C1768 C1769 1.376 . S
C1769 H1756 0.930 . S
C1769 C1768 1.376 . S
C1769 C1770 1.388 . S
C1770 H1757 0.930 . S
C1770 C1769 1.388 . S
C1770 C1771 1.390 . S
C1771 C1770 1.390 . S
C1771 C1772 1.394 . S
C1771 C1777 1.465 . S
C1772 C1767 1.399 . S
C1772 C1771 1.394 . S
C1772 C1773 1.516 . S
C1773 C1772 1.516 . S
C1773 C1774 1.502 . S
C1773 C1775 1.561 . S
C1773 C1776 1.526 . S
C1774 H1758 0.959 . S
C1774 H1759 0.959 . S
C1774 H1760 0.961 . S
C1774 C1773 1.502 . S
C1775 H1761 0.960 . S
C1775 H1762 0.961 . S
C1775 H1763 0.959 . S
C1775 C1773 1.561 . S
C1776 C1773 1.526 . S
C1776 C1777 1.396 . S
C1776 C1781 1.390 . S
C1777 C1771 1.465 . S
C1777 C1776 1.396 . S
C1777 C1778 1.399 . S
C1778 H1764 0.929 . S
C1778 C1777 1.399 . S
C1778 C1779 1.385 . S
C1779 H1765 0.931 . S
C1779 C1778 1.385 . S
C1779 C1780 1.389 . S
C1780 C1779 1.389 . S
C1780 C1781 1.387 . S
C1781 H1766 0.930 . S
C1781 C1776 1.390 . S
C1781 C1780 1.387 . S
H1782 C1794 0.930 . S
H1783 C1796 0.930 . S
H1784 C1797 0.930 . S
H1785 C1801 0.959 . S
H1786 C1801 0.959 . S
H1787 C1801 0.961 . S
H1788 C1802 0.960 . S
H1789 C1802 0.961 . S
H1790 C1802 0.959 . S
H1791 C1805 0.929 . S
H1792 C1806 0.931 . S
H1793 C1808 0.930 . S
C1794 H1782 0.930 . S
C1794 C1795 1.399 . S
C1794 C1799 1.399 . S
C1795 C1794 1.399 . S
C1795 C1796 1.376 . S
C1796 H1783 0.930 . S
C1796 C1795 1.376 . S
C1796 C1797 1.388 . S
C1797 H1784 0.930 . S
C1797 C1796 1.388 . S
C1797 C1798 1.390 . S
C1798 C1797 1.390 . S
C1798 C1799 1.394 . S
C1798 C1804 1.465 . S
C1799 C1794 1.399 . S
C1799 C1798 1.394 . S
C1799 C1800 1.516 . S
C1800 C1799 1.516 . S
C1800 C1801 1.502 . S
C1800 C1802 1.561 . S
C1800 C1803 1.526 . S
C1801 H1785 0.959 . S
C1801 H1786 0.959 . S
C1801 H1787 0.961 . S
C1801 C1800 1.502 . S
C1802 H1788 0.960 . S
C1802 H1789 0.961 . S
C1802 H1790 0.959 . S
C1802 C1800 1.561 . S
C1803 C1800 1.526 . S
C1803 C1804 1.396 . S
C1803 C1808 1.390 . S
C1804 C1798 1.465 . S
C1804 C1803 1.396 . S
C1804 C1805 1.399 . S
C1805 H1791 0.929 . S
C1805 C1804 1.399 . S
C1805 C1806 1.385 . S
C1806 H1792 0.931 . S
C1806 C1805 1.385 . S
C1806 C1807 1.389 . S
C1807 C1806 1.389 . S
C1807 C1808 1.387 . S
C1808 H1793 0.930 . S
C1808 C1803 1.390 . S
C1808 C1807 1.387 . S
H1809 C1821 0.930 . S
H1810 C1823 0.930 . S
H1811 C1824 0.930 . S
H1812 C1828 0.959 . S
H1813 C1828 0.959 . S
H1814 C1828 0.961 . S
H1815 C1829 0.960 . S
H1816 C1829 0.961 . S
H1817 C1829 0.959 . S
H1818 C1832 0.929 . S
H1819 C1833 0.931 . S
H1820 C1835 0.930 . S
C1821 H1809 0.930 . S
C1821 C1822 1.399 . S
C1821 C1826 1.399 . S
C1822 C1821 1.399 . S
C1822 C1823 1.376 . S
C1823 H1810 0.930 . S
C1823 C1822 1.376 . S
C1823 C1824 1.388 . S
C1824 H1811 0.930 . S
C1824 C1823 1.388 . S
C1824 C1825 1.390 . S
C1825 C1824 1.390 . S
C1825 C1826 1.394 . S
C1825 C1831 1.465 . S
C1826 C1821 1.399 . S
C1826 C1825 1.394 . S
C1826 C1827 1.516 . S
C1827 C1826 1.516 . S
C1827 C1828 1.502 . S
C1827 C1829 1.561 . S
C1827 C1830 1.526 . S
C1828 H1812 0.959 . S
C1828 H1813 0.959 . S
C1828 H1814 0.961 . S
C1828 C1827 1.502 . S
C1829 H1815 0.960 . S
C1829 H1816 0.961 . S
C1829 H1817 0.959 . S
C1829 C1827 1.561 . S
C1830 C1827 1.526 . S
C1830 C1831 1.396 . S
C1830 C1835 1.390 . S
C1831 C1825 1.465 . S
C1831 C1830 1.396 . S
C1831 C1832 1.399 . S
C1832 H1818 0.929 . S
C1832 C1831 1.399 . S
C1832 C1833 1.385 . S
C1833 H1819 0.931 . S
C1833 C1832 1.385 . S
C1833 C1834 1.389 . S
C1834 C1833 1.389 . S
C1834 C1835 1.387 . S
C1835 H1820 0.930 . S
C1835 C1830 1.390 . S
C1835 C1834 1.387 . S
H1836 C1848 0.930 . S
H1837 C1850 0.930 . S
H1838 C1851 0.930 . S
H1839 C1855 0.959 . S
H1840 C1855 0.959 . S
H1841 C1855 0.961 . S
H1842 C1856 0.960 . S
H1843 C1856 0.961 . S
H1844 C1856 0.959 . S
H1845 C1859 0.929 . S
H1846 C1860 0.931 . S
H1847 C1862 0.930 . S
C1848 H1836 0.930 . S
C1848 C1849 1.399 . S
C1848 C1853 1.399 . S
C1849 C1848 1.399 . S
C1849 C1850 1.376 . S
C1850 H1837 0.930 . S
C1850 C1849 1.376 . S
C1850 C1851 1.388 . S
C1851 H1838 0.930 . S
C1851 C1850 1.388 . S
C1851 C1852 1.390 . S
C1852 C1851 1.390 . S
C1852 C1853 1.394 . S
C1852 C1858 1.465 . S
C1853 C1848 1.399 . S
C1853 C1852 1.394 . S
C1853 C1854 1.516 . S
C1854 C1853 1.516 . S
C1854 C1855 1.502 . S
C1854 C1856 1.561 . S
C1854 C1857 1.526 . S
C1855 H1839 0.959 . S
C1855 H1840 0.959 . S
C1855 H1841 0.961 . S
C1855 C1854 1.502 . S
C1856 H1842 0.960 . S
C1856 H1843 0.961 . S
C1856 H1844 0.959 . S
C1856 C1854 1.561 . S
C1857 C1854 1.526 . S
C1857 C1858 1.396 . S
C1857 C1862 1.390 . S
C1858 C1852 1.465 . S
C1858 C1857 1.396 . S
C1858 C1859 1.399 . S
C1859 H1845 0.929 . S
C1859 C1858 1.399 . S
C1859 C1860 1.385 . S
C1860 H1846 0.931 . S
C1860 C1859 1.385 . S
C1860 C1861 1.389 . S
C1861 C1860 1.389 . S
C1861 C1862 1.387 . S
C1862 H1847 0.930 . S
C1862 C1857 1.390 . S
C1862 C1861 1.387 . S
H1863 C1875 0.930 . S
H1864 C1877 0.930 . S
H1865 C1878 0.930 . S
H1866 C1882 0.959 . S
H1867 C1882 0.959 . S
H1868 C1882 0.961 . S
H1869 C1883 0.960 . S
H1870 C1883 0.961 . S
H1871 C1883 0.959 . S
H1872 C1886 0.929 . S
H1873 C1887 0.931 . S
H1874 C1889 0.930 . S
C1875 H1863 0.930 . S
C1875 C1876 1.399 . S
C1875 C1880 1.399 . S
C1876 C1875 1.399 . S
C1876 C1877 1.376 . S
C1877 H1864 0.930 . S
C1877 C1876 1.376 . S
C1877 C1878 1.388 . S
C1878 H1865 0.930 . S
C1878 C1877 1.388 . S
C1878 C1879 1.390 . S
C1879 C1878 1.390 . S
C1879 C1880 1.394 . S
C1879 C1885 1.465 . S
C1880 C1875 1.399 . S
C1880 C1879 1.394 . S
C1880 C1881 1.516 . S
C1881 C1880 1.516 . S
C1881 C1882 1.502 . S
C1881 C1883 1.561 . S
C1881 C1884 1.526 . S
C1882 H1866 0.959 . S
C1882 H1867 0.959 . S
C1882 H1868 0.961 . S
C1882 C1881 1.502 . S
C1883 H1869 0.960 . S
C1883 H1870 0.961 . S
C1883 H1871 0.959 . S
C1883 C1881 1.561 . S
C1884 C1881 1.526 . S
C1884 C1885 1.396 . S
C1884 C1889 1.390 . S
C1885 C1879 1.465 . S
C1885 C1884 1.396 . S
C1885 C1886 1.399 . S
C1886 H1872 0.929 . S
C1886 C1885 1.399 . S
C1886 C1887 1.385 . S
C1887 H1873 0.931 . S
C1887 C1886 1.385 . S
C1887 C1888 1.389 . S
C1888 C1887 1.389 . S
C1888 C1889 1.387 . S
C1889 H1874 0.930 . S
C1889 C1884 1.390 . S
C1889 C1888 1.387 . S
H1890 C1902 0.930 . S
H1891 C1904 0.930 . S
H1892 C1905 0.930 . S
H1893 C1909 0.959 . S
H1894 C1909 0.959 . S
H1895 C1909 0.961 . S
H1896 C1910 0.960 . S
H1897 C1910 0.961 . S
H1898 C1910 0.959 . S
H1899 C1913 0.929 . S
H1900 C1914 0.931 . S
H1901 C1916 0.930 . S
C1902 H1890 0.930 . S
C1902 C1903 1.399 . S
C1902 C1907 1.399 . S
C1903 C1902 1.399 . S
C1903 C1904 1.376 . S
C1904 H1891 0.930 . S
C1904 C1903 1.376 . S
C1904 C1905 1.388 . S
C1905 H1892 0.930 . S
C1905 C1904 1.388 . S
C1905 C1906 1.390 . S
C1906 C1905 1.390 . S
C1906 C1907 1.394 . S
C1906 C1912 1.465 . S
C1907 C1902 1.399 . S
C1907 C1906 1.394 . S
C1907 C1908 1.516 . S
C1908 C1907 1.516 . S
C1908 C1909 1.502 . S
C1908 C1910 1.561 . S
C1908 C1911 1.526 . S
C1909 H1893 0.959 . S
C1909 H1894 0.959 . S
C1909 H1895 0.961 . S
C1909 C1908 1.502 . S
C1910 H1896 0.960 . S
C1910 H1897 0.961 . S
C1910 H1898 0.959 . S
C1910 C1908 1.561 . S
C1911 C1908 1.526 . S
C1911 C1912 1.396 . S
C1911 C1916 1.390 . S
C1912 C1906 1.465 . S
C1912 C1911 1.396 . S
C1912 C1913 1.399 . S
C1913 H1899 0.929 . S
C1913 C1912 1.399 . S
C1913 C1914 1.385 . S
C1914 H1900 0.931 . S
C1914 C1913 1.385 . S
C1914 C1915 1.389 . S
C1915 C1914 1.389 . S
C1915 C1916 1.387 . S
C1916 H1901 0.930 . S
C1916 C1911 1.390 . S
C1916 C1915 1.387 . S
H1917 C1929 0.930 . S
H1918 C1931 0.930 . S
H1919 C1932 0.930 . S
H1920 C1936 0.959 . S
H1921 C1936 0.959 . S
H1922 C1936 0.961 . S
H1923 C1937 0.960 . S
H1924 C1937 0.961 . S
H1925 C1937 0.959 . S
H1926 C1940 0.929 . S
H1927 C1941 0.931 . S
H1928 C1943 0.930 . S
C1929 H1917 0.930 . S
C1929 C1930 1.399 . S
C1929 C1934 1.399 . S
C1930 C1929 1.399 . S
C1930 C1931 1.376 . S
C1931 H1918 0.930 . S
C1931 C1930 1.376 . S
C1931 C1932 1.388 . S
C1932 H1919 0.930 . S
C1932 C1931 1.388 . S
C1932 C1933 1.390 . S
C1933 C1932 1.390 . S
C1933 C1934 1.394 . S
C1933 C1939 1.465 . S
C1934 C1929 1.399 . S
C1934 C1933 1.394 . S
C1934 C1935 1.516 . S
C1935 C1934 1.516 . S
C1935 C1936 1.502 . S
C1935 C1937 1.561 . S
C1935 C1938 1.526 . S
C1936 H1920 0.959 . S
C1936 H1921 0.959 . S
C1936 H1922 0.961 . S
C1936 C1935 1.502 . S
C1937 H1923 0.960 . S
C1937 H1924 0.961 . S
C1937 H1925 0.959 . S
C1937 C1935 1.561 . S
C1938 C1935 1.526 . S
C1938 C1939 1.396 . S
C1938 C1943 1.390 . S
C1939 C1933 1.465 . S
C1939 C1938 1.396 . S
C1939 C1940 1.399 . S
C1940 H1926 0.929 . S
C1940 C1939 1.399 . S
C1940 C1941 1.385 . S
C1941 H1927 0.931 . S
C1941 C1940 1.385 . S
C1941 C1942 1.389 . S
C1942 C1941 1.389 . S
C1942 C1943 1.387 . S
C1943 H1928 0.930 . S
C1943 C1938 1.390 . S
C1943 C1942 1.387 . S
H1944 C1956 0.930 . S
H1945 C1958 0.930 . S
H1946 C1959 0.930 . S
H1947 C1963 0.959 . S
H1948 C1963 0.959 . S
H1949 C1963 0.961 . S
H1950 C1964 0.960 . S
H1951 C1964 0.961 . S
H1952 C1964 0.959 . S
H1953 C1967 0.929 . S
H1954 C1968 0.931 . S
H1955 C1970 0.930 . S
C1956 H1944 0.930 . S
C1956 C1957 1.399 . S
C1956 C1961 1.399 . S
C1957 C1956 1.399 . S
C1957 C1958 1.376 . S
C1958 H1945 0.930 . S
C1958 C1957 1.376 . S
C1958 C1959 1.388 . S
C1959 H1946 0.930 . S
C1959 C1958 1.388 . S
C1959 C1960 1.390 . S
C1960 C1959 1.390 . S
C1960 C1961 1.394 . S
C1960 C1966 1.465 . S
C1961 C1956 1.399 . S
C1961 C1960 1.394 . S
C1961 C1962 1.516 . S
C1962 C1961 1.516 . S
C1962 C1963 1.502 . S
C1962 C1964 1.561 . S
C1962 C1965 1.526 . S
C1963 H1947 0.959 . S
C1963 H1948 0.959 . S
C1963 H1949 0.961 . S
C1963 C1962 1.502 . S
C1964 H1950 0.960 . S
C1964 H1951 0.961 . S
C1964 H1952 0.959 . S
C1964 C1962 1.561 . S
C1965 C1962 1.526 . S
C1965 C1966 1.396 . S
C1965 C1970 1.390 . S
C1966 C1960 1.465 . S
C1966 C1965 1.396 . S
C1966 C1967 1.399 . S
C1967 H1953 0.929 . S
C1967 C1966 1.399 . S
C1967 C1968 1.385 . S
C1968 H1954 0.931 . S
C1968 C1967 1.385 . S
C1968 C1969 1.389 . S
C1969 C1968 1.389 . S
C1969 C1970 1.387 . S
C1970 H1955 0.930 . S
C1970 C1965 1.390 . S
C1970 C1969 1.387 . S
H1971 C1983 0.930 . S
H1972 C1985 0.930 . S
H1973 C1986 0.930 . S
H1974 C1990 0.959 . S
H1975 C1990 0.959 . S
H1976 C1990 0.961 . S
H1977 C1991 0.960 . S
H1978 C1991 0.961 . S
H1979 C1991 0.959 . S
H1980 C1994 0.929 . S
H1981 C1995 0.931 . S
H1982 C1997 0.930 . S
C1983 H1971 0.930 . S
C1983 C1984 1.399 . S
C1983 C1988 1.399 . S
C1984 C1983 1.399 . S
C1984 C1985 1.376 . S
C1985 H1972 0.930 . S
C1985 C1984 1.376 . S
C1985 C1986 1.388 . S
C1986 H1973 0.930 . S
C1986 C1985 1.388 . S
C1986 C1987 1.390 . S
C1987 C1986 1.390 . S
C1987 C1988 1.394 . S
C1987 C1993 1.465 . S
C1988 C1983 1.399 . S
C1988 C1987 1.394 . S
C1988 C1989 1.516 . S
C1989 C1988 1.516 . S
C1989 C1990 1.502 . S
C1989 C1991 1.561 . S
C1989 C1992 1.526 . S
C1990 H1974 0.959 . S
C1990 H1975 0.959 . S
C1990 H1976 0.961 . S
C1990 C1989 1.502 . S
C1991 H1977 0.960 . S
C1991 H1978 0.961 . S
C1991 H1979 0.959 . S
C1991 C1989 1.561 . S
C1992 C1989 1.526 . S
C1992 C1993 1.396 . S
C1992 C1997 1.390 . S
C1993 C1987 1.465 . S
C1993 C1992 1.396 . S
C1993 C1994 1.399 . S
C1994 H1980 0.929 . S
C1994 C1993 1.399 . S
C1994 C1995 1.385 . S
C1995 H1981 0.931 . S
C1995 C1994 1.385 . S
C1995 C1996 1.389 . S
C1996 C1995 1.389 . S
C1996 C1997 1.387 . S
C1997 H1982 0.930 . S
C1997 C1992 1.390 . S
C1997 C1996 1.387 . S
H1998 C2010 0.930 . S
H1999 C2012 0.930 . S
H2000 C2013 0.930 . S
H2001 C2017 0.959 . S
H2002 C2017 0.959 . S
H2003 C2017 0.961 . S
H2004 C2018 0.960 . S
H2005 C2018 0.961 . S
H2006 C2018 0.959 . S
H2007 C2021 0.929 . S
H2008 C2022 0.931 . S
H2009 C2024 0.930 . S
C2010 H1998 0.930 . S
C2010 C2011 1.399 . S
C2010 C2015 1.399 . S
C2011 C2010 1.399 . S
C2011 C2012 1.376 . S
C2012 H1999 0.930 . S
C2012 C2011 1.376 . S
C2012 C2013 1.388 . S
C2013 H2000 0.930 . S
C2013 C2012 1.388 . S
C2013 C2014 1.390 . S
C2014 C2013 1.390 . S
C2014 C2015 1.394 . S
C2014 C2020 1.465 . S
C2015 C2010 1.399 . S
C2015 C2014 1.394 . S
C2015 C2016 1.516 . S
C2016 C2015 1.516 . S
C2016 C2017 1.502 . S
C2016 C2018 1.561 . S
C2016 C2019 1.526 . S
C2017 H2001 0.959 . S
C2017 H2002 0.959 . S
C2017 H2003 0.961 . S
C2017 C2016 1.502 . S
C2018 H2004 0.960 . S
C2018 H2005 0.961 . S
C2018 H2006 0.959 . S
C2018 C2016 1.561 . S
C2019 C2016 1.526 . S
C2019 C2020 1.396 . S
C2019 C2024 1.390 . S
C2020 C2014 1.465 . S
C2020 C2019 1.396 . S
C2020 C2021 1.399 . S
C2021 H2007 0.929 . S
C2021 C2020 1.399 . S
C2021 C2022 1.385 . S
C2022 H2008 0.931 . S
C2022 C2021 1.385 . S
C2022 C2023 1.389 . S
C2023 C2022 1.389 . S
C2023 C2024 1.387 . S
C2024 H2009 0.930 . S
C2024 C2019 1.390 . S
C2024 C2023 1.387 . S
H2025 C2037 0.930 . S
H2026 C2039 0.930 . S
H2027 C2040 0.930 . S
H2028 C2044 0.959 . S
H2029 C2044 0.959 . S
H2030 C2044 0.961 . S
H2031 C2045 0.960 . S
H2032 C2045 0.961 . S
H2033 C2045 0.959 . S
H2034 C2048 0.929 . S
H2035 C2049 0.931 . S
H2036 C2051 0.930 . S
C2037 H2025 0.930 . S
C2037 C2038 1.399 . S
C2037 C2042 1.399 . S
C2038 C2037 1.399 . S
C2038 C2039 1.376 . S
C2039 H2026 0.930 . S
C2039 C2038 1.376 . S
C2039 C2040 1.388 . S
C2040 H2027 0.930 . S
C2040 C2039 1.388 . S
C2040 C2041 1.390 . S
C2041 C2040 1.390 . S
C2041 C2042 1.394 . S
C2041 C2047 1.465 . S
C2042 C2037 1.399 . S
C2042 C2041 1.394 . S
C2042 C2043 1.516 . S
C2043 C2042 1.516 . S
C2043 C2044 1.502 . S
C2043 C2045 1.561 . S
C2043 C2046 1.526 . S
C2044 H2028 0.959 . S
C2044 H2029 0.959 . S
C2044 H2030 0.961 . S
C2044 C2043 1.502 . S
C2045 H2031 0.960 . S
C2045 H2032 0.961 . S
C2045 H2033 0.959 . S
C2045 C2043 1.561 . S
C2046 C2043 1.526 . S
C2046 C2047 1.396 . S
C2046 C2051 1.390 . S
C2047 C2041 1.465 . S
C2047 C2046 1.396 . S
C2047 C2048 1.399 . S
C2048 H2034 0.929 . S
C2048 C2047 1.399 . S
C2048 C2049 1.385 . S
C2049 H2035 0.931 . S
C2049 C2048 1.385 . S
C2049 C2050 1.389 . S
C2050 C2049 1.389 . S
C2050 C2051 1.387 . S
C2051 H2036 0.930 . S
C2051 C2046 1.390 . S
C2051 C2050 1.387 . S
C607 N170 2.048 . S
C619 C243 2.072 . S
C634 N184 1.158 . S
C646 C283 1.108 . S
C661 N158 1.669 . S
C673 C322 1.609 . S
C688 N145 1.559 . S
C700 C282 1.488 1_556 S
C727 C323 0.814 1_556 S
C715 N119 0.844 . S
C742 N131 1.800 . S
C754 C242 1.839 . S
C781 C253 1.725 1_556 S
C769 N144 1.765 . S
C808 C293 1.635 . S
C796 N118 1.643 . S
C823 N132 1.580 . S
C835 C332 1.538 . S
C850 N171 1.449 . S
C862 C292 1.481 . S
C877 N183 1.306 . S
C889 C333 1.330 . S
C916 C252 1.417 . S
C904 N157 1.475 . S
C943 C363 2.078 . S
C931 N14 2.044 . S
C958 N28 1.159 . S
C970 C403 1.107 . S
C985 N2 1.687 . S
C997 C442 1.622 . S
C1012 N223 1.550 . S
C1024 C402 1.486 . S
C1039 N197 0.848 . S
C1051 C443 0.805 . S
C1066 N209 1.854 . S
C1078 C362 1.872 . S
C1093 N222 1.750 . S
C1105 C373 1.728 . S
C1120 N196 1.648 . S
C1132 C413 1.645 . S
C1159 C452 1.538 . S
C1147 N210 1.580 . S
C1174 N15 1.489 . S
C1186 C412 1.465 . S
C1213 C453 1.330 . S
C1201 N27 1.306 . S
C1228 N1 1.452 . S
C1240 C372 1.450 . S
C1267 C483 2.099 . S
C1255 N92 2.045 . S
C1282 N106 1.132 . S
C1294 C523 1.163 . S
C1321 C562 1.670 . S
C1309 N80 1.653 . S
C1348 C522 1.488 . S
C1336 N67 1.558 . S
C1375 C563 0.880 . S
C1363 N41 0.844 . S
C1390 N53 1.800 . S
C1402 C482 1.839 . S
C1417 N66 1.753 . S
C1429 C493 1.724 . S
C1444 N40 1.652 . S
C1456 C533 1.652 . S
C1483 C572 1.577 . S
C1471 N54 1.537 . S
C1498 N93 1.443 . S
C1510 C532 1.457 . S
C1525 N105 1.335 . S
C1537 C573 1.314 . S
C1552 N79 1.456 . S
C1564 C492 1.460 . S
C1579 N200 1.069 . S
C1591 C239 1.042 . S
C1618 C279 2.000 . S
C1606 N213 1.960 . S
C1633 N226 1.559 . S
C1645 C329 1.580 . S
C1660 N83 1.772 . S
C1672 C289 1.788 . S
C1687 N96 1.818 . S
C1699 C319 1.844 . S
C1726 C249 1.189 . S
C1714 N109 1.198 . S
C1741 N44 1.062 . S
C1753 C359 1.042 . S
C1768 N57 1.986 . S
C1780 C399 2.013 . S
C1795 N70 1.595 . S
C1807 C449 1.600 . S
C1822 N161 1.798 . S
C1834 C409 1.784 . S
C1861 C439 1.839 . S
C1849 N174 1.795 . S
C1876 N187 1.166 . S
C1888 C369 1.165 . S
C1903 N122 1.014 . S
C1915 C479 1.049 . S
C1930 N135 1.975 . S
C1942 C519 2.016 . S
C1969 C569 1.579 . S
C1957 N148 1.558 . S
C1984 N5 1.806 . S
C1996 C529 1.796 . S
C2011 N18 1.823 . S
C2023 C559 1.841 . S
C2038 N31 1.199 . S
C2050 C489 1.191 . S
