# Generated by pormake.
# Topology pyr, (3,6)-cn, num edge types: 1
# Building blocks:
#     Node 0, Type 0, BuildingBlock: VETTIZ_charged_linker_0, # of connection points: 3
#     Node 1, Type 0, BuildingBlock: VETTIZ_charged_linker_0, # of connection points: 3
#     Node 2, Type 0, BuildingBlock: VETTIZ_charged_linker_0, # of connection points: 3
#     Node 3, Type 0, BuildingBlock: VETTIZ_charged_linker_0, # of connection points: 3
#     Node 4, Type 0, BuildingBlock: VETTIZ_charged_linker_0, # of connection points: 3
#     Node 5, Type 0, BuildingBlock: VETTIZ_charged_linker_0, # of connection points: 3
#     Node 6, Type 0, BuildingBlock: VETTIZ_charged_linker_0, # of connection points: 3
#     Node 7, Type 0, BuildingBlock: VETTIZ_charged_linker_0, # of connection points: 3
#     Node 8, Type 1, BuildingBlock: PAMTUU_clean_sbu_0, # of connection points: 6
#     Node 9, Type 1, BuildingBlock: PAMTUU_clean_sbu_0, # of connection points: 6
#     Node 10, Type 1, BuildingBlock: PAMTUU_clean_sbu_0, # of connection points: 6
#     Node 11, Type 1, BuildingBlock: PAMTUU_clean_sbu_0, # of connection points: 6
#     Edge 12, Type (0, 1), BuildingBlock: TEMPAE_clean_linker_10, # of connection points: 2
#     Edge 13, Type (0, 1), BuildingBlock: TEMPAE_clean_linker_10, # of connection points: 2
#     Edge 14, Type (0, 1), BuildingBlock: TEMPAE_clean_linker_10, # of connection points: 2
#     Edge 15, Type (0, 1), BuildingBlock: TEMPAE_clean_linker_10, # of connection points: 2
#     Edge 16, Type (0, 1), BuildingBlock: TEMPAE_clean_linker_10, # of connection points: 2
#     Edge 17, Type (0, 1), BuildingBlock: TEMPAE_clean_linker_10, # of connection points: 2
#     Edge 18, Type (0, 1), BuildingBlock: TEMPAE_clean_linker_10, # of connection points: 2
#     Edge 19, Type (0, 1), BuildingBlock: TEMPAE_clean_linker_10, # of connection points: 2
#     Edge 20, Type (0, 1), BuildingBlock: TEMPAE_clean_linker_10, # of connection points: 2
#     Edge 21, Type (0, 1), BuildingBlock: TEMPAE_clean_linker_10, # of connection points: 2
#     Edge 22, Type (0, 1), BuildingBlock: TEMPAE_clean_linker_10, # of connection points: 2
#     Edge 23, Type (0, 1), BuildingBlock: TEMPAE_clean_linker_10, # of connection points: 2
#     Edge 24, Type (0, 1), BuildingBlock: TEMPAE_clean_linker_10, # of connection points: 2
#     Edge 25, Type (0, 1), BuildingBlock: TEMPAE_clean_linker_10, # of connection points: 2
#     Edge 26, Type (0, 1), BuildingBlock: TEMPAE_clean_linker_10, # of connection points: 2
#     Edge 27, Type (0, 1), BuildingBlock: TEMPAE_clean_linker_10, # of connection points: 2
#     Edge 28, Type (0, 1), BuildingBlock: TEMPAE_clean_linker_10, # of connection points: 2
#     Edge 29, Type (0, 1), BuildingBlock: TEMPAE_clean_linker_10, # of connection points: 2
#     Edge 30, Type (0, 1), BuildingBlock: TEMPAE_clean_linker_10, # of connection points: 2
#     Edge 31, Type (0, 1), BuildingBlock: TEMPAE_clean_linker_10, # of connection points: 2
#     Edge 32, Type (0, 1), BuildingBlock: TEMPAE_clean_linker_10, # of connection points: 2
#     Edge 33, Type (0, 1), BuildingBlock: TEMPAE_clean_linker_10, # of connection points: 2
#     Edge 34, Type (0, 1), BuildingBlock: TEMPAE_clean_linker_10, # of connection points: 2
#     Edge 35, Type (0, 1), BuildingBlock: TEMPAE_clean_linker_10, # of connection points: 2
# Relax obj value: 0.086
# Max RMSD: 0.124
# Mean RMSD: 0.052
data_MOF--net-pyr--node1-PAMTUU_clean_sbu_0--node2-VETTIZ_charged_linker_0--edge1-TEMPAE_clean_linker_10
_symmetry_space_group_name_H-M    P1
_symmetry_Int_Tables_number       1
_symmetry_cell_setting            triclinic
loop_
_symmetry_equiv_pos_as_xyz
'x, y, z'
_cell_length_a     46.711088
_cell_length_b     47.665593
_cell_length_c     46.717767
_cell_angle_alpha  89.927699
_cell_angle_beta   89.223763
_cell_angle_gamma 98.902022
loop_
_atom_site_label
_atom_site_type_symbol
_atom_site_fract_x
_atom_site_fract_y
_atom_site_fract_z
_atom_type_partial_charge
C0 C 0.3016 0.23231 0.3163 0.0
C1 C 0.27882 0.24302 0.33046 0.0
C2 C 0.2703 0.2683 0.32032 0.0
C3 C 0.30244 0.26812 0.2793 0.0
C4 C 0.31312 0.24521 0.29081 0.0
C5 C 0.33562 0.23517 0.27163 0.0
H6 H 0.38718 0.22445 0.13816 0.0
C7 C 0.31508 0.27344 0.25033 0.0
C8 C 0.33514 0.25474 0.24591 0.0
H9 H 0.41201 0.18439 0.21497 0.0
H10 H 0.38485 0.21354 0.24391 0.0
H11 H 0.39756 0.28764 0.16439 0.0
H12 H 0.32027 0.22617 0.15562 0.0
H13 H 0.31377 0.25936 0.14274 0.0
H14 H 0.34133 0.24258 0.1259 0.0
H15 H 0.37853 0.28322 0.13121 0.0
H16 H 0.36899 0.30695 0.15869 0.0
C17 C 0.36518 0.2403 0.28702 0.0
C18 C 0.325 0.20367 0.26404 0.0
C19 C 0.26531 0.33131 0.18119 0.0
C20 C 0.2681 0.33593 0.15158 0.0
C21 C 0.29155 0.32727 0.1366 0.0
C22 C 0.31086 0.31235 0.1508 0.0
C23 C 0.30639 0.30592 0.1801 0.0
C24 C 0.28457 0.31634 0.19498 0.0
C25 C 0.28284 0.30758 0.22591 0.0
C26 C 0.3071 0.28979 0.22718 0.0
C27 C 0.32036 0.28838 0.20015 0.0
C28 C 0.28912 0.33462 0.24463 0.0
C29 C 0.25257 0.28963 0.23122 0.0
C30 C 0.38678 0.22217 0.16125 0.0
C31 C 0.40109 0.20189 0.17445 0.0
C32 C 0.40089 0.19982 0.20449 0.0
C33 C 0.385 0.21654 0.22117 0.0
C34 C 0.36908 0.2353 0.20758 0.0
C35 C 0.37125 0.23891 0.17825 0.0
C36 C 0.3543 0.26121 0.16783 0.0
C37 C 0.34084 0.26964 0.19571 0.0
C38 C 0.34889 0.25368 0.21873 0.0
C39 C 0.37576 0.28605 0.15463 0.0
C40 C 0.33121 0.24683 0.14679 0.0
H41 H 0.27402 0.29958 0.28769 0.0
H42 H 0.3089 0.21312 0.32372 0.0
H43 H 0.30213 0.20082 0.25687 0.0
H44 H 0.33755 0.1957 0.24657 0.0
H45 H 0.3261 0.18971 0.28292 0.0
H46 H 0.36549 0.25621 0.30446 0.0
H47 H 0.37027 0.22041 0.29677 0.0
H48 H 0.38318 0.2492 0.27236 0.0
H49 H 0.24767 0.33826 0.19319 0.0
H50 H 0.2941 0.33088 0.11375 0.0
H51 H 0.32781 0.30542 0.13822 0.0
H52 H 0.3022 0.35251 0.23272 0.0
H53 H 0.26873 0.34188 0.25184 0.0
H54 H 0.30227 0.33137 0.26357 0.0
H55 H 0.24716 0.27412 0.21359 0.0
H56 H 0.25096 0.27684 0.25093 0.0
H57 H 0.23544 0.30339 0.23218 0.0
H58 H 0.25344 0.27751 0.33134 0.0
C59 C 0.28218 0.28103 0.29495 0.0
C60 C 0.13 0.81639 0.65855 0.0
C61 C 0.11743 0.83874 0.67076 0.0
C62 C 0.12353 0.84616 0.69953 0.0
C63 C 0.15533 0.81079 0.70273 0.0
C64 C 0.14891 0.80285 0.67484 0.0
C65 C 0.1657 0.78007 0.6647 0.0
H66 H 0.27182 0.70153 0.69038 0.0
C67 C 0.17698 0.79392 0.71327 0.0
C68 C 0.18301 0.77559 0.69122 0.0
H69 H 0.22434 0.7055 0.61209 0.0
H70 H 0.1942 0.73617 0.63515 0.0
H71 H 0.27953 0.76503 0.7027 0.0
H72 H 0.21612 0.69648 0.73397 0.0
H73 H 0.22445 0.71958 0.76299 0.0
H74 H 0.2526 0.70258 0.74674 0.0
H75 H 0.28779 0.73974 0.72859 0.0
H76 H 0.27432 0.77164 0.7391 0.0
C77 C 0.18547 0.79223 0.63928 0.0
C78 C 0.14389 0.7533 0.65735 0.0
C79 C 0.22503 0.81858 0.80866 0.0
C80 C 0.24803 0.80865 0.82261 0.0
C81 C 0.25797 0.78408 0.81224 0.0
C82 C 0.24664 0.77087 0.78719 0.0
C83 C 0.22537 0.7825 0.77217 0.0
C84 C 0.21411 0.80527 0.78354 0.0
C85 C 0.19162 0.81478 0.76462 0.0
C86 C 0.19208 0.79464 0.7395 0.0
C87 C 0.21214 0.77609 0.74391 0.0
C88 C 0.20228 0.84611 0.75587 0.0
C89 C 0.16215 0.80979 0.78096 0.0
C90 C 0.25447 0.70834 0.67832 0.0
C91 C 0.25042 0.70098 0.6494 0.0
C92 C 0.22805 0.71106 0.63435 0.0
C93 C 0.21063 0.72888 0.64776 0.0
C94 C 0.21592 0.73703 0.67639 0.0
C95 C 0.23722 0.7263 0.69124 0.0
C96 C 0.2409 0.73794 0.721 0.0
C97 C 0.21838 0.75762 0.72169 0.0
C98 C 0.20382 0.75718 0.69551 0.0
C99 C 0.27223 0.75432 0.72329 0.0
C100 C 0.23338 0.71297 0.74247 0.0
H101 H 0.1461 0.83921 0.73713 0.0
H102 H 0.12564 0.80985 0.63665 0.0
H103 H 0.12581 0.74998 0.67334 0.0
H104 H 0.15364 0.73364 0.65792 0.0
H105 H 0.13435 0.75539 0.63594 0.0
H106 H 0.19393 0.81511 0.64264 0.0
H107 H 0.17338 0.79039 0.61889 0.0
H108 H 0.20497 0.78201 0.63674 0.0
H109 H 0.21663 0.83716 0.81641 0.0
H110 H 0.2757 0.77603 0.82255 0.0
H111 H 0.25588 0.7529 0.77979 0.0
H112 H 0.22611 0.84976 0.7519 0.0
H113 H 0.19754 0.86091 0.77302 0.0
H114 H 0.19292 0.85232 0.73572 0.0
H115 H 0.16083 0.79152 0.79602 0.0
H116 H 0.14356 0.80408 0.76656 0.0
H117 H 0.15888 0.82873 0.7937 0.0
H118 H 0.1148 0.86357 0.7095 0.0
C119 C 0.14209 0.83217 0.71556 0.0
C120 C 0.63768 0.27409 0.89851 0.0
C121 C 0.61184 0.25693 0.89 0.0
C122 C 0.5969 0.26668 0.86669 0.0
C123 C 0.63357 0.30917 0.86088 0.0
C124 C 0.64786 0.29986 0.88402 0.0
C125 C 0.67427 0.32064 0.89167 0.0
H126 H 0.76979 0.44097 0.86689 0.0
C127 C 0.65042 0.33702 0.85058 0.0
C128 C 0.67426 0.34359 0.86895 0.0
H129 H 0.76749 0.38129 0.93684 0.0
H130 H 0.72461 0.35349 0.91783 0.0
H131 H 0.69936 0.44249 0.86919 0.0
H132 H 0.74924 0.39358 0.81564 0.0
H133 H 0.72414 0.40807 0.79452 0.0
H134 H 0.7522 0.43149 0.81248 0.0
H135 H 0.72379 0.45872 0.84177 0.0
H136 H 0.68713 0.44311 0.83377 0.0
C137 C 0.66945 0.33201 0.92221 0.0
C138 C 0.70104 0.30528 0.8885 0.0
C139 C 0.61895 0.38982 0.76211 0.0
C140 C 0.63115 0.41499 0.74718 0.0
C141 C 0.65725 0.43012 0.758 0.0
C142 C 0.67079 0.42077 0.78232 0.0
C143 C 0.6585 0.39573 0.79676 0.0
C144 C 0.63299 0.38057 0.78654 0.0
C145 C 0.62342 0.35409 0.80454 0.0
C146 C 0.64707 0.35598 0.8272 0.0
C147 C 0.66771 0.3807 0.82258 0.0
C148 C 0.59351 0.35626 0.81808 0.0
C149 C 0.62337 0.32786 0.78517 0.0
C150 C 0.76001 0.42182 0.87795 0.0
C151 C 0.77237 0.41333 0.90353 0.0
C152 C 0.75859 0.38846 0.91732 0.0
C153 C 0.73352 0.37226 0.90616 0.0
C154 C 0.72128 0.38092 0.88086 0.0
C155 C 0.73427 0.40552 0.86727 0.0
C156 C 0.71701 0.41191 0.84136 0.0
C157 C 0.69185 0.38706 0.84157 0.0
C158 C 0.69481 0.3688 0.8647 0.0
C159 C 0.70631 0.44064 0.84648 0.0
C160 C 0.73657 0.41148 0.81446 0.0
H161 H 0.59519 0.29832 0.83454 0.0
H162 H 0.64958 0.26789 0.9166 0.0
H163 H 0.69936 0.29184 0.86895 0.0
H164 H 0.72159 0.32001 0.88586 0.0
H165 H 0.70283 0.29125 0.90718 0.0
H166 H 0.64599 0.33108 0.92736 0.0
H167 H 0.6787 0.31939 0.93875 0.0
H168 H 0.67864 0.3547 0.92461 0.0
H169 H 0.59915 0.37727 0.75468 0.0
H170 H 0.66723 0.44969 0.74782 0.0
H171 H 0.69049 0.43354 0.78904 0.0
H172 H 0.5931 0.37801 0.82651 0.0
H173 H 0.57609 0.3517 0.80203 0.0
H174 H 0.5882 0.34182 0.83651 0.0
H175 H 0.64343 0.33018 0.7717 0.0
H176 H 0.62302 0.30804 0.79744 0.0
H177 H 0.60451 0.32527 0.77064 0.0
H178 H 0.57701 0.25416 0.85939 0.0
C179 C 0.6076 0.2924 0.85211 0.0
C180 C 0.91417 0.77453 0.37454 0.0
C181 C 0.90577 0.78629 0.40087 0.0
C182 C 0.88361 0.7695 0.4171 0.0
C183 C 0.87673 0.73291 0.38051 0.0
C184 C 0.89963 0.74772 0.36505 0.0
C185 C 0.90651 0.73085 0.33883 0.0
H186 H 0.86834 0.61544 0.25143 0.0
C187 C 0.86517 0.70646 0.36479 0.0
C188 C 0.88266 0.70478 0.34024 0.0
H189 H 0.94581 0.67843 0.24537 0.0
H190 H 0.92988 0.70245 0.28638 0.0
H191 H 0.87277 0.60732 0.32078 0.0
H192 H 0.82349 0.65834 0.2702 0.0
H193 H 0.80112 0.64164 0.29785 0.0
H194 H 0.8154 0.62026 0.27097 0.0
H195 H 0.84372 0.59187 0.29821 0.0
H196 H 0.83689 0.60322 0.33406 0.0
C197 C 0.93694 0.72255 0.3427 0.0
C198 C 0.90402 0.74892 0.31181 0.0
C199 C 0.77276 0.64555 0.40297 0.0
C200 C 0.75467 0.62117 0.39293 0.0
C201 C 0.76261 0.60922 0.36683 0.0
C202 C 0.78783 0.62105 0.35135 0.0
C203 C 0.80563 0.64539 0.36177 0.0
C204 C 0.79773 0.65725 0.38713 0.0
C205 C 0.8185 0.68348 0.39479 0.0
C206 C 0.84031 0.68551 0.37001 0.0
C207 C 0.83295 0.66301 0.35067 0.0
C208 C 0.83261 0.67797 0.42374 0.0
C209 C 0.80133 0.70883 0.39504 0.0
C210 C 0.88243 0.63408 0.25882 0.0
C211 C 0.90861 0.64459 0.24387 0.0
C212 C 0.92525 0.66958 0.25507 0.0
C213 C 0.9162 0.68354 0.27953 0.0
C214 C 0.89035 0.67247 0.29409 0.0
C215 C 0.87408 0.64792 0.28374 0.0
C216 C 0.84775 0.63837 0.30253 0.0
C217 C 0.85103 0.66083 0.32599 0.0
C218 C 0.87593 0.68128 0.32085 0.0
C219 C 0.8501 0.60854 0.3145 0.0
C220 C 0.82036 0.63945 0.28457 0.0
H221 H 0.8523 0.73258 0.42064 0.0
H222 H 0.93144 0.78585 0.36142 0.0
H223 H 0.88325 0.75761 0.31227 0.0
H224 H 0.90417 0.73652 0.29191 0.0
H225 H 0.92204 0.76708 0.31055 0.0
H226 H 0.94056 0.71751 0.3655 0.0
H227 H 0.95419 0.74018 0.33605 0.0
H228 H 0.93985 0.70318 0.33082 0.0
H229 H 0.76737 0.65574 0.42259 0.0
H230 H 0.74948 0.59037 0.35848 0.0
H231 H 0.79252 0.61075 0.3318 0.0
H232 H 0.83324 0.65495 0.42708 0.0
H233 H 0.82039 0.68537 0.44207 0.0
H234 H 0.85557 0.68806 0.42475 0.0
H235 H 0.786 0.70729 0.37687 0.0
H236 H 0.81517 0.72961 0.39229 0.0
H237 H 0.78844 0.70914 0.41516 0.0
H238 H 0.87737 0.77608 0.43811 0.0
C239 C 0.86907 0.74352 0.40706 0.0
C240 C 0.74415 0.71264 0.88334 0.0
C241 C 0.76216 0.69644 0.86838 0.0
C242 C 0.76113 0.69541 0.83826 0.0
C243 C 0.72881 0.73036 0.83826 0.0
C244 C 0.72759 0.7294 0.86781 0.0
C245 C 0.70886 0.74963 0.87998 0.0
H246 H 0.63559 0.85943 0.85817 0.0
C247 C 0.71257 0.75268 0.82859 0.0
C248 C 0.70015 0.76363 0.85284 0.0
H249 H 0.64977 0.81868 0.93845 0.0
H250 H 0.67328 0.7842 0.91325 0.0
H251 H 0.6206 0.80078 0.8193 0.0
H252 H 0.69564 0.86216 0.83604 0.0
H253 H 0.70167 0.84993 0.80154 0.0
H254 H 0.67087 0.86769 0.80842 0.0
H255 H 0.62574 0.83691 0.8069 0.0
H256 H 0.63889 0.80936 0.78642 0.0
C257 C 0.68247 0.73201 0.8954 0.0
C258 C 0.72787 0.77102 0.89949 0.0
C259 C 0.73088 0.79249 0.72836 0.0
C260 C 0.72391 0.81712 0.71535 0.0
C261 C 0.70229 0.83085 0.72801 0.0
C262 C 0.68988 0.82177 0.75457 0.0
C263 C 0.69947 0.79899 0.76875 0.0
C264 C 0.71869 0.78399 0.75511 0.0
C265 C 0.72719 0.76099 0.77379 0.0
C266 C 0.71098 0.76564 0.80139 0.0
C267 C 0.69506 0.7881 0.79837 0.0
C268 C 0.71588 0.73183 0.76007 0.0
C269 C 0.76055 0.76706 0.77743 0.0
C270 C 0.64381 0.84316 0.87043 0.0
C271 C 0.64094 0.84201 0.90042 0.0
C272 C 0.65147 0.82003 0.91534 0.0
C273 C 0.66532 0.80011 0.90067 0.0
C274 C 0.66904 0.80235 0.8708 0.0
C275 C 0.65803 0.82342 0.85619 0.0
C276 C 0.66498 0.82346 0.82469 0.0
C277 C 0.6816 0.79859 0.82269 0.0
C278 C 0.68404 0.78637 0.84976 0.0
C279 C 0.63613 0.81751 0.80825 0.0
C280 C 0.6841 0.85223 0.81702 0.0
H281 H 0.74519 0.71115 0.80025 0.0
H282 H 0.74434 0.71365 0.9065 0.0
H283 H 0.74983 0.77731 0.88982 0.0
H284 H 0.71927 0.7911 0.90251 0.0
H285 H 0.73058 0.76156 0.92084 0.0
H286 H 0.67578 0.71138 0.88442 0.0
H287 H 0.68761 0.72729 0.91787 0.0
H288 H 0.663 0.74256 0.89518 0.0
H289 H 0.74708 0.78128 0.71883 0.0
H290 H 0.6965 0.84987 0.71845 0.0
H291 H 0.67455 0.83386 0.76378 0.0
H292 H 0.6976 0.73313 0.74535 0.0
H293 H 0.7332 0.72373 0.74748 0.0
H294 H 0.70693 0.71571 0.77627 0.0
H295 H 0.76775 0.78995 0.78204 0.0
H296 H 0.76842 0.75545 0.79531 0.0
H297 H 0.77194 0.7617 0.75763 0.0
H298 H 0.77427 0.68249 0.82635 0.0
C299 C 0.74435 0.7121 0.82316 0.0
C300 C 0.89663 0.21715 0.37781 0.0
C301 C 0.91042 0.19646 0.36411 0.0
C302 C 0.90716 0.19248 0.33439 0.0
C303 C 0.87479 0.22749 0.33291 0.0
C304 C 0.87894 0.23239 0.36181 0.0
C305 C 0.86138 0.25411 0.37306 0.0
H306 H 0.75603 0.33408 0.34956 0.0
C307 C 0.85381 0.24534 0.32282 0.0
C308 C 0.84614 0.26141 0.3461 0.0
H309 H 0.80003 0.32418 0.42893 0.0
H310 H 0.83146 0.29569 0.40467 0.0
H311 H 0.75197 0.26952 0.32967 0.0
H312 H 0.81184 0.34524 0.31002 0.0
H313 H 0.8102 0.32438 0.27895 0.0
H314 H 0.77794 0.33711 0.29198 0.0
H315 H 0.74258 0.29934 0.31037 0.0
H316 H 0.75732 0.27154 0.29234 0.0
C317 C 0.83978 0.23948 0.39596 0.0
C318 C 0.8825 0.27985 0.38426 0.0
C319 C 0.81026 0.22815 0.2243 0.0
C320 C 0.78861 0.23989 0.20986 0.0
C321 C 0.77946 0.26457 0.22108 0.0
C322 C 0.78958 0.27565 0.24746 0.0
C323 C 0.80901 0.26192 0.26289 0.0
C324 C 0.82021 0.23957 0.25059 0.0
C325 C 0.84177 0.22855 0.26958 0.0
C326 C 0.84031 0.24695 0.29595 0.0
C327 C 0.8206 0.26598 0.29211 0.0
C328 C 0.8306 0.19678 0.27597 0.0
C329 C 0.87195 0.23428 0.25457 0.0
C330 C 0.77279 0.32633 0.36172 0.0
C331 C 0.7754 0.33141 0.39127 0.0
C332 C 0.79724 0.32031 0.40622 0.0
C333 C 0.81549 0.30379 0.39209 0.0
C334 C 0.81174 0.29804 0.36272 0.0
C335 C 0.791 0.30976 0.348 0.0
C336 C 0.78952 0.30123 0.31707 0.0
C337 C 0.81267 0.28218 0.31557 0.0
C338 C 0.82547 0.2801 0.34242 0.0
C339 C 0.75879 0.28464 0.3118 0.0
C340 C 0.79757 0.32828 0.29837 0.0
H341 H 0.8876 0.20356 0.29631 0.0
H342 H 0.89861 0.22059 0.40066 0.0
H343 H 0.90222 0.28414 0.37034 0.0
H344 H 0.87315 0.29975 0.384 0.0
H345 H 0.8896 0.2759 0.4063 0.0
H346 H 0.8309 0.21746 0.38937 0.0
H347 H 0.85056 0.23819 0.41687 0.0
H348 H 0.82065 0.25011 0.39913 0.0
H349 H 0.81798 0.20931 0.21634 0.0
H350 H 0.76355 0.27467 0.21 0.0
H351 H 0.78095 0.29377 0.25538 0.0
H352 H 0.80693 0.19347 0.28084 0.0
H353 H 0.83426 0.18333 0.25728 0.0
H354 H 0.84068 0.18859 0.29478 0.0
H355 H 0.8734 0.25198 0.2388 0.0
H356 H 0.88961 0.24116 0.26981 0.0
H357 H 0.87672 0.21525 0.24284 0.0
H358 H 0.91794 0.17702 0.32329 0.0
C359 C 0.88958 0.20796 0.31874 0.0
C360 C 0.40757 0.65111 0.28828 0.0
C361 C 0.39604 0.62519 0.30234 0.0
C362 C 0.37078 0.60942 0.29042 0.0
C363 C 0.36874 0.64486 0.25285 0.0
C364 C 0.39367 0.66044 0.2638 0.0
C365 C 0.40309 0.68722 0.24619 0.0
H366 H 0.37526 0.77609 0.13708 0.0
C367 C 0.35933 0.66027 0.22739 0.0
C368 C 0.37954 0.68541 0.22343 0.0
H369 H 0.44984 0.78729 0.19164 0.0
H370 H 0.43163 0.74288 0.21625 0.0
H371 H 0.32664 0.75081 0.18514 0.0
H372 H 0.37849 0.713 0.1241 0.0
H373 H 0.34563 0.68972 0.12655 0.0
H374 H 0.34585 0.72561 0.11396 0.0
H375 H 0.32166 0.7519 0.14714 0.0
H376 H 0.30392 0.72273 0.16866 0.0
C377 C 0.40287 0.71318 0.26585 0.0
C378 C 0.43312 0.68541 0.23269 0.0
C379 C 0.26746 0.61929 0.17125 0.0
C380 C 0.2543 0.62877 0.14653 0.0
C381 C 0.26695 0.65495 0.13433 0.0
C382 C 0.29181 0.67112 0.14587 0.0
C383 C 0.30495 0.66133 0.17009 0.0
C384 C 0.29286 0.63577 0.18245 0.0
C385 C 0.31055 0.62874 0.20782 0.0
C386 C 0.33511 0.65415 0.20847 0.0
C387 C 0.33146 0.67325 0.18628 0.0
C388 C 0.29103 0.62747 0.23492 0.0
C389 C 0.32209 0.6007 0.20125 0.0
C390 C 0.38759 0.76915 0.15448 0.0
C391 C 0.41393 0.78566 0.16251 0.0
C392 C 0.42949 0.7752 0.18492 0.0
C393 C 0.41883 0.74934 0.19924 0.0
C394 C 0.39241 0.73306 0.1909 0.0
C395 C 0.3776 0.74307 0.16848 0.0
C396 C 0.35104 0.72249 0.16083 0.0
C397 C 0.35166 0.69879 0.18262 0.0
C398 C 0.37578 0.70494 0.2007 0.0
C399 C 0.32428 0.73763 0.16542 0.0
C400 C 0.35515 0.71221 0.12973 0.0
H401 H 0.33819 0.60571 0.25871 0.0
H402 H 0.42679 0.66415 0.29631 0.0
H403 H 0.43406 0.66356 0.22478 0.0
H404 H 0.438 0.69938 0.21385 0.0
H405 H 0.45057 0.69075 0.2486 0.0
H406 H 0.3824 0.7109 0.27868 0.0
H407 H 0.42124 0.71529 0.28095 0.0
H408 H 0.40399 0.73323 0.25379 0.0
H409 H 0.25857 0.59928 0.18127 0.0
H410 H 0.25735 0.66322 0.11576 0.0
H411 H 0.29986 0.6908 0.13532 0.0
H412 H 0.27786 0.64503 0.23476 0.0
H413 H 0.27585 0.6071 0.23607 0.0
H414 H 0.30349 0.63023 0.25488 0.0
H415 H 0.32894 0.6 0.1784 0.0
H416 H 0.34154 0.59828 0.21359 0.0
H417 H 0.30512 0.58204 0.20539 0.0
H418 H 0.36143 0.58913 0.29954 0.0
C419 C 0.35723 0.61901 0.26623 0.0
C420 C 0.10782 0.27115 0.67668 0.0
C421 C 0.1157 0.2581 0.6511 0.0
C422 C 0.13961 0.27184 0.63513 0.0
C423 C 0.14786 0.3103 0.66984 0.0
C424 C 0.12399 0.29742 0.68543 0.0
C425 C 0.11813 0.31543 0.71105 0.0
H426 H 0.15745 0.43495 0.79247 0.0
C427 C 0.16042 0.33707 0.6846 0.0
C428 C 0.14301 0.34045 0.70884 0.0
H429 H 0.08228 0.37041 0.80404 0.0
H430 H 0.09703 0.34488 0.76316 0.0
H431 H 0.15473 0.43814 0.72184 0.0
H432 H 0.20257 0.3903 0.77755 0.0
H433 H 0.22525 0.4042 0.74893 0.0
H434 H 0.21163 0.42814 0.77372 0.0
H435 H 0.18253 0.45488 0.74517 0.0
H436 H 0.19134 0.44195 0.71052 0.0
C437 C 0.08832 0.32506 0.70694 0.0
C438 C 0.12 0.2978 0.73853 0.0
C439 C 0.25335 0.39475 0.64358 0.0
C440 C 0.27215 0.41901 0.65276 0.0
C441 C 0.26489 0.43217 0.67841 0.0
C442 C 0.23949 0.42165 0.69428 0.0
C443 C 0.22097 0.39734 0.68481 0.0
C444 C 0.22835 0.38421 0.65994 0.0
C445 C 0.20714 0.35787 0.65364 0.0
C446 C 0.18563 0.35734 0.67851 0.0
C447 C 0.19349 0.3807 0.69674 0.0
C448 C 0.19284 0.36227 0.62455 0.0
C449 C 0.22381 0.33216 0.65454 0.0
C450 C 0.14415 0.41528 0.78636 0.0
C451 C 0.11831 0.40514 0.80189 0.0
C452 C 0.10188 0.37935 0.79257 0.0
C453 C 0.11056 0.36435 0.76871 0.0
C454 C 0.13607 0.37498 0.75329 0.0
C455 C 0.15243 0.4001 0.76228 0.0
C456 C 0.17893 0.40829 0.74329 0.0
C457 C 0.17551 0.38449 0.72115 0.0
C458 C 0.15034 0.36467 0.72716 0.0
C459 C 0.17707 0.43744 0.72949 0.0
C460 C 0.20617 0.40798 0.76169 0.0
H461 H 0.17369 0.3065 0.63104 0.0
H462 H 0.08928 0.2614 0.68925 0.0
H463 H 0.13941 0.28691 0.73759 0.0
H464 H 0.12231 0.31095 0.75801 0.0
H465 H 0.10056 0.28128 0.7411 0.0
H466 H 0.08513 0.33021 0.68408 0.0
H467 H 0.07039 0.30807 0.71353 0.0
H468 H 0.08615 0.34467 0.71873 0.0
H469 H 0.25833 0.38374 0.62431 0.0
H470 H 0.27874 0.45091 0.68606 0.0
H471 H 0.23525 0.43286 0.7134 0.0
H472 H 0.1904 0.38493 0.62141 0.0
H473 H 0.2061 0.35611 0.60638 0.0
H474 H 0.17057 0.35053 0.62309 0.0
H475 H 0.2407 0.3351 0.6713 0.0
H476 H 0.20988 0.31204 0.66034 0.0
H477 H 0.23484 0.32946 0.63373 0.0
H478 H 0.1461 0.26242 0.61545 0.0
C479 C 0.15568 0.29753 0.64432 0.0
Tb480 Tb 0.04374 0.024 0.5092 0.0
Tb481 Tb 0.98138 1.01953 0.54247 0.0
C482 C 0.99229 0.9751 0.49483 0.0
C483 C 0.11252 0.05046 0.47082 0.0
C484 C 0.15203 0.09474 0.44623 0.0
C485 C 0.15838 0.06684 0.44681 0.0
C486 C 0.13875 0.04488 0.45904 0.0
C487 C 0.10605 0.07823 0.47044 0.0
C488 C 0.12568 0.10023 0.45824 0.0
C489 C 0.09232 0.02734 0.48397 0.0
O490 O 0.01695 0.04643 0.48206 0.0
O491 O 0.98366 0.05658 0.51552 0.0
O492 O 1.01095 0.05249 0.56528 0.0
O493 O 0.04633 0.06491 0.53091 0.0
O494 O 0.9364 1.01903 0.54154 0.0
O495 O 0.95849 1.01595 0.58158 0.0
O496 O 1.00067 0.98336 0.55651 0.0
O497 O 0.04763 1.00428 0.55065 0.0
O498 O 0.0203 0.98159 0.49926 0.0
O499 O 0.97399 0.9911 0.50522 0.0
C500 C 0.99624 0.06056 0.49032 0.0
O501 O 0.08903 0.02908 0.51159 0.0
O502 O 0.06757 1.02054 0.47125 0.0
C503 C 0.03344 0.07016 0.55513 0.0
C504 C 0.91035 0.99204 0.57914 0.0
C505 C 0.86462 0.95109 0.59996 0.0
C506 C 0.88257 0.96839 0.61895 0.0
C507 C 0.90502 0.98873 0.60864 0.0
C508 C 0.89281 0.97448 0.56002 0.0
C509 C 0.87014 0.95417 0.57036 0.0
C510 C 0.93351 1.01465 0.56908 0.0
C511 C 0.02822 0.98446 0.56193 0.0
H512 H 0.17863 0.06203 0.43801 0.0
H513 H 0.14408 0.02355 0.45938 0.0
H514 H 0.08583 0.08283 0.47952 0.0
H515 H 0.12003 0.12142 0.45778 0.0
H516 H 0.87935 0.96618 0.6419 0.0
H517 H 0.9182 1.00203 0.6238 0.0
H518 H 0.89634 0.97659 0.53711 0.0
H519 H 0.85661 0.94129 0.55518 0.0
Tb520 Tb 0.53858 0.02869 0.05161 0.0
Tb521 Tb 0.48613 1.01757 1.00574 0.0
C522 C 0.54139 0.98948 0.99849 0.0
C523 C 0.60719 0.05998 0.08756 0.0
C524 C 0.65833 0.09834 0.09769 0.0
C525 C 0.65735 0.06903 0.10244 0.0
C526 C 0.63195 0.05008 0.09758 0.0
C527 C 0.60865 0.08893 0.08091 0.0
C528 C 0.63393 0.10794 0.08606 0.0
C529 C 0.57963 0.0403 0.0863 0.0
O530 O 0.54327 0.0677 0.02532 0.0
O531 O 0.51823 0.05054 0.9854 0.0
O532 O 0.48163 0.05436 0.03164 0.0
O533 O 0.49889 0.03734 0.07194 0.0
O534 O 0.47029 1.01087 0.96413 0.0
O535 O 0.44147 1.01596 0.99985 0.0
O536 O 0.47448 0.9836 0.03804 0.0
O537 O 0.51625 0.98661 0.06457 0.0
O538 O 0.5555 1.01017 1.01368 0.0
O539 O 0.51311 0.98567 0.99675 0.0
C540 C 0.5362 0.07056 0.99828 0.0
O541 O 0.55605 0.05175 0.087 0.0
O542 O 0.57813 1.01973 0.06777 0.0
C543 C 0.4834 0.05423 0.05948 0.0
C544 C 0.42293 0.98506 0.96325 0.0
C545 C 0.3829 0.93878 0.9444 0.0
C546 C 0.37527 0.96615 0.94568 0.0
C547 C 0.39516 0.98909 0.95498 0.0
C548 C 0.43051 0.95769 0.96265 0.0
C549 C 0.41067 0.93471 0.95311 0.0
C550 C 0.44342 1.0096 0.97282 0.0
C551 C 0.4902 0.97354 0.05787 0.0
H552 H 0.67593 0.06084 0.11083 0.0
H553 H 0.63134 0.02779 0.10259 0.0
H554 H 0.58991 0.0971 0.07284 0.0
H555 H 0.63375 0.13035 0.08236 0.0
H556 H 0.35417 0.96996 0.93873 0.0
H557 H 0.38895 1.01007 0.95549 0.0
H558 H 0.45179 0.95414 0.96935 0.0
H559 H 0.41702 0.9138 0.95248 0.0
Tb560 Tb 0.51568 0.48951 0.5064 0.0
Tb561 Tb 0.51339 0.54865 0.54084 0.0
C562 C 0.48594 0.54009 0.47863 0.0
C563 C 0.54789 0.43119 0.47396 0.0
C564 C 0.59914 0.40831 0.46259 0.0
C565 C 0.57768 0.40779 0.44162 0.0
C566 C 0.5523 0.41906 0.4473 0.0
C567 C 0.56905 0.43159 0.49509 0.0
C568 C 0.59435 0.4201 0.48952 0.0
C569 C 0.52257 0.44568 0.47843 0.0
O570 O 0.56004 0.51258 0.50462 0.0
O571 O 0.5511 0.55783 0.51206 0.0
O572 O 0.54102 0.52577 0.56772 0.0
O573 O 0.53038 0.48067 0.54954 0.0
O574 O 0.51787 0.5932 0.54122 0.0
O575 O 0.50714 0.56898 0.57985 0.0
O576 O 0.47315 0.52158 0.55364 0.0
O577 O 0.47128 0.48281 0.52386 0.0
O578 O 0.4984 0.51726 0.4751 0.0
O579 O 0.48566 0.55246 0.50382 0.0
C580 C 0.56799 0.54019 0.50241 0.0
O581 O 0.51154 0.44499 0.50422 0.0
O582 O 0.52508 0.47098 0.46731 0.0
C583 C 0.54159 0.49817 0.56971 0.0
C584 C 0.48242 0.6074 0.57217 0.0
C585 C 0.42989 0.62793 0.58351 0.0
C586 C 0.45116 0.62884 0.60472 0.0
C587 C 0.47719 0.61867 0.59907 0.0
C588 C 0.46146 0.60689 0.55079 0.0
C589 C 0.43556 0.61719 0.55635 0.0
C590 C 0.5082 0.5936 0.56748 0.0
C591 C 0.45977 0.49721 0.54392 0.0
H592 H 0.58081 0.39943 0.42046 0.0
H593 H 0.53644 0.41899 0.43057 0.0
H594 H 0.56628 0.44122 0.51574 0.0
H595 H 0.6102 0.42058 0.50629 0.0
H596 H 0.44735 0.63658 0.626 0.0
H597 H 0.49288 0.61886 0.61597 0.0
H598 H 0.46481 0.598 0.52992 0.0
H599 H 0.41987 0.61654 0.53941 0.0
Tb600 Tb 0.01369 0.55206 1.00716 0.0
Tb601 Tb 0.01324 0.49356 0.04172 0.0
C602 C 0.04177 0.50152 0.97901 0.0
C603 C 0.98451 0.61016 0.97313 0.0
C604 C 0.9314 0.62624 0.95721 0.0
C605 C 0.95116 0.61974 0.93624 0.0
C606 C 0.97755 0.61194 0.94413 0.0
C607 C 0.96506 0.61747 0.99412 0.0
C608 C 0.93881 0.62563 0.98619 0.0
C609 C 1.01028 0.59762 0.98106 0.0
O610 O 0.97549 0.52448 0.99101 0.0
O611 O 0.96879 0.48944 0.02535 0.0
O612 O 1.00059 0.52411 0.07296 0.0
O613 O 0.98212 0.55361 0.04229 0.0
O614 O 1.00652 0.44896 0.04382 0.0
O615 O 0.01995 0.47408 0.08088 0.0
O616 O 0.05838 0.51477 0.04335 0.0
O617 O 0.0503 0.56032 0.03667 0.0
O618 O 0.0424 0.52924 0.98109 0.0
O619 O 0.02886 0.48423 0.99885 0.0
C620 C 0.95981 0.50191 1.00262 0.0
O621 O 0.0158 0.59641 1.00827 0.0
O622 O 1.01294 0.57393 0.96821 0.0
C623 C 0.98527 0.54461 0.06851 0.0
C624 C 0.04214 0.43423 0.07299 0.0
C625 C 0.09418 0.41333 0.08315 0.0
C626 C 0.07201 0.41055 0.1041 0.0
C627 C 0.04615 0.42092 0.09903 0.0
C628 C 0.06397 0.43643 0.05174 0.0
C629 C 0.08971 0.42586 0.0567 0.0
C630 C 0.01706 0.44895 0.06948 0.0
C631 C 0.06676 0.54228 0.04603 0.0
H632 H 0.94608 0.6205 0.91372 0.0
H633 H 0.99213 0.60638 0.92757 0.0
H634 H 0.96965 0.6161 1.0167 0.0
H635 H 0.92389 0.63056 1.00271 0.0
H636 H 0.07485 0.40071 0.12457 0.0
H637 H 0.02969 0.41936 0.11577 0.0
H638 H 0.06154 0.44716 0.03166 0.0
H639 H 0.10656 0.42847 0.04031 0.0
C640 C 0.23104 0.22196 0.35174 0.0
C641 C 0.2614 0.22579 0.35291 0.0
C642 C 0.21392 0.20235 0.36964 0.0
C643 C 0.22748 0.18609 0.38918 0.0
C644 C 0.25803 0.19088 0.39158 0.0
C645 C 0.27466 0.21068 0.37336 0.0
C646 C 0.1814 0.19783 0.36637 0.0
C647 C 0.2732 0.17406 0.41235 0.0
C648 C 0.17856 0.1447 0.44532 0.0
C649 C 0.1725 0.11789 0.43246 0.0
C650 C 0.19711 0.16699 0.4319 0.0
C651 C 0.20974 0.16231 0.40497 0.0
C652 C 0.20411 0.13515 0.39214 0.0
C653 C 0.18556 0.11329 0.40605 0.0
C654 C 0.20272 0.19565 0.44622 0.0
C655 C 0.21703 0.12938 0.36332 0.0
H656 H 0.22058 0.23315 0.33569 0.0
H657 H 0.2981 0.21376 0.37456 0.0
H658 H 0.17412 0.17651 0.35717 0.0
H659 H 0.1705 0.19854 0.38754 0.0
H660 H 0.17413 0.21399 0.35217 0.0
H661 H 0.29667 0.18249 0.41387 0.0
H662 H 0.26313 0.17421 0.43398 0.0
H663 H 0.27084 0.15161 0.4053 0.0
H664 H 0.16879 0.14825 0.46592 0.0
H665 H 0.18066 0.09272 0.39584 0.0
H666 H 0.19394 0.21158 0.43296 0.0
H667 H 0.22638 0.20282 0.44804 0.0
H668 H 0.19264 0.19533 0.46791 0.0
H669 H 0.20899 0.14278 0.34672 0.0
H670 H 0.21153 0.10677 0.35691 0.0
H671 H 0.24097 0.13509 0.3637 0.0
C672 C 0.27378 0.81295 0.86965 0.0
C673 C 0.26411 0.82583 0.84535 0.0
C674 C 0.29184 0.82894 0.88946 0.0
C675 C 0.30064 0.85835 0.88457 0.0
C676 C 0.29018 0.87157 0.86055 0.0
C677 C 0.27201 0.85516 0.8413 0.0
C678 C 0.30226 0.81426 0.91507 0.0
C679 C 0.29921 0.90285 0.85444 0.0
C680 C 0.33302 0.91113 0.94027 0.0
C681 C 0.36242 0.91508 0.93227 0.0
C682 C 0.31277 0.89126 0.92615 0.0
C683 C 0.32217 0.87528 0.90333 0.0
C684 C 0.35205 0.8781 0.89624 0.0
C685 C 0.37185 0.89792 0.9109 0.0
C686 C 0.28115 0.88852 0.93461 0.0
C687 C 0.36292 0.86156 0.87191 0.0
H688 H 0.26756 0.79029 0.87291 0.0
H689 H 0.26503 0.86515 0.8223 0.0
H690 H 0.32592 0.8141 0.91295 0.0
H691 H 0.29863 0.82597 0.93497 0.0
H692 H 0.29118 0.79198 0.91734 0.0
H693 H 0.28815 0.91007 0.83551 0.0
H694 H 0.29432 0.9156 0.87322 0.0
H695 H 0.32297 0.90736 0.8505 0.0
H696 H 0.32576 0.92412 0.95709 0.0
H697 H 0.39454 0.90107 0.90454 0.0
H698 H 0.27143 0.86583 0.93661 0.0
H699 H 0.26921 0.89805 0.9177 0.0
H700 H 0.27792 0.89938 0.95516 0.0
H701 H 0.35422 0.83864 0.87405 0.0
H702 H 0.38696 0.86412 0.87095 0.0
H703 H 0.35514 0.86897 0.85131 0.0
C704 C 0.63468 0.43907 0.69788 0.0
C705 C 0.61736 0.42586 0.7206 0.0
C706 C 0.62261 0.45056 0.67357 0.0
C707 C 0.59212 0.44923 0.67127 0.0
C708 C 0.57443 0.43565 0.69391 0.0
C709 C 0.5871 0.42414 0.71796 0.0
C710 C 0.64269 0.46425 0.65022 0.0
C711 C 0.54192 0.43361 0.69291 0.0
C712 C 0.56308 0.50245 0.62009 0.0
C713 C 0.55503 0.48598 0.59561 0.0
C714 C 0.57474 0.49084 0.64466 0.0
C715 C 0.57896 0.46189 0.64524 0.0
C716 C 0.57107 0.44524 0.62051 0.0
C717 C 0.55922 0.4573 0.59637 0.0
C718 C 0.58249 0.50968 0.6702 0.0
C719 C 0.57524 0.4145 0.61945 0.0
H720 H 0.65799 0.44029 0.6989 0.0
H721 H 0.57318 0.41435 0.73512 0.0
H722 H 0.63722 0.45345 0.62954 0.0
H723 H 0.63986 0.48678 0.64754 0.0
H724 H 0.66582 0.46345 0.65481 0.0
H725 H 0.53097 0.42239 0.71188 0.0
H726 H 0.53593 0.45522 0.69183 0.0
H727 H 0.5336 0.42219 0.67331 0.0
H728 H 0.55999 0.52451 0.62025 0.0
H729 H 0.5533 0.44406 0.57788 0.0
H730 H 0.60593 0.51107 0.67467 0.0
H731 H 0.57043 0.50035 0.68945 0.0
H732 H 0.5775 0.53149 0.6669 0.0
H733 H 0.59841 0.41281 0.62264 0.0
H734 H 0.56827 0.4043 0.5988 0.0
H735 H 0.56272 0.40249 0.63709 0.0
C736 C 0.90895 0.60067 0.21169 0.0
C737 C 0.91871 0.6297 0.21725 0.0
C738 C 0.91826 0.58672 0.1872 0.0
C739 C 0.93885 0.60148 0.16767 0.0
C740 C 0.94902 0.6306 0.17308 0.0
C741 C 0.93855 0.6443 0.19714 0.0
C742 C 0.90603 0.55593 0.1823 0.0
C743 C 0.97141 0.64736 0.15356 0.0
C744 C 0.98473 0.55762 0.12119 0.0
C745 C 0.97269 0.55864 0.09381 0.0
C746 C 0.97421 0.57154 0.14504 0.0
C747 C 0.95028 0.58642 0.14211 0.0
C748 C 0.93766 0.58707 0.1146 0.0
C749 C 0.94922 0.57368 0.09087 0.0
C750 C 0.98919 0.57077 0.17338 0.0
C751 C 0.91169 0.60178 0.11022 0.0
H752 H 0.89419 0.58836 0.22665 0.0
H753 H 0.94608 0.66673 0.19987 0.0
H754 H 0.89737 0.55305 0.16032 0.0
H755 H 0.92346 0.54269 0.18418 0.0
H756 H 0.88844 0.54797 0.19786 0.0
H757 H 0.97815 0.66945 0.16113 0.0
H758 H 0.99089 0.63671 0.15201 0.0
H759 H 0.9627 0.64818 0.13166 0.0
H760 H 1.00302 0.54644 0.12392 0.0
H761 H 0.93957 0.57469 0.07 0.0
H762 H 0.97371 0.5605 0.18985 0.0
H763 H 0.99693 0.59274 0.18071 0.0
H764 H 1.00797 0.55906 0.17214 0.0
H765 H 0.89403 0.59311 0.1254 0.0
H766 H 0.90339 0.59928 0.08805 0.0
H767 H 0.91745 0.62477 0.11481 0.0
C768 C 0.3965 0.16336 0.13838 0.0
C769 C 0.41404 0.18129 0.15695 0.0
C770 C 0.40775 0.14239 0.12274 0.0
C771 C 0.4374 0.13986 0.12528 0.0
C772 C 0.45535 0.15836 0.14364 0.0
C773 C 0.4433 0.17865 0.15963 0.0
C774 C 0.3878 0.12267 0.10388 0.0
C775 C 0.48723 0.15675 0.14628 0.0
C776 C 0.46184 0.07018 0.10461 0.0
C777 C 0.47133 0.0758 0.07635 0.0
C778 C 0.4505 0.0908 0.12078 0.0
C779 C 0.44958 0.11788 0.1086 0.0
C780 C 0.45972 0.12378 0.08022 0.0
C781 C 0.47008 0.10249 0.06427 0.0
C782 C 0.43914 0.08351 0.15072 0.0
C783 C 0.45983 0.15264 0.06677 0.0
H784 H 0.37376 0.1653 0.13668 0.0
H785 H 0.45674 0.19264 0.17406 0.0
H786 H 0.39555 0.12478 0.08133 0.0
H787 H 0.38795 0.10031 0.11045 0.0
H788 H 0.36512 0.12704 0.10488 0.0
H789 H 0.49837 0.17335 0.1607 0.0
H790 H 0.49017 0.13563 0.15467 0.0
H791 H 0.49792 0.15922 0.12487 0.0
H792 H 0.4628 0.04948 0.11387 0.0
H793 H 0.47785 0.10697 0.04251 0.0
H794 H 0.41604 0.08634 0.15241 0.0
H795 H 0.45126 0.09813 0.16636 0.0
H796 H 0.44097 0.06134 0.15684 0.0
H797 H 0.43734 0.15723 0.06529 0.0
H798 H 0.46977 0.15416 0.04497 0.0
H799 H 0.47198 0.16934 0.08038 0.0
C800 C 0.07672 0.86729 0.66605 0.0
C801 C 0.09974 0.85577 0.65337 0.0
C802 C 0.06268 0.88677 0.65126 0.0
C803 C 0.07129 0.89437 0.6228 0.0
C804 C 0.09311 0.8814 0.60918 0.0
C805 C 0.10729 0.86252 0.6247 0.0
C806 C 0.03971 0.90034 0.66664 0.0
C807 C 0.10244 0.88846 0.5786 0.0
C808 C 0.02304 0.93393 0.57789 0.0
C809 C 0.03801 0.96176 0.57896 0.0
C810 C 0.03362 0.91165 0.59196 0.0
C811 C 0.05928 0.9176 0.60811 0.0
C812 C 0.07394 0.94586 0.60992 0.0
C813 C 0.06335 0.96754 0.59495 0.0
C814 C 0.01786 0.88171 0.58885 0.0
C815 C 0.10099 0.95319 0.62745 0.0
H816 H 0.07013 0.86168 0.6879 0.0
H817 H 0.12517 0.85406 0.61467 0.0
H818 H 0.04751 0.92338 0.66933 0.0
H819 H 0.0197 0.89827 0.65382 0.0
H820 H 0.03419 0.89081 0.6881 0.0
H821 H 0.11698 0.87401 0.57004 0.0
H822 H 0.08325 0.8872 0.56464 0.0
H823 H 0.1141 0.91056 0.57738 0.0
H824 H 1.00362 0.9294 0.56519 0.0
H825 H 0.07488 0.98908 0.59583 0.0
H826 H 1.01142 0.87247 0.61021 0.0
H827 H 0.03251 0.8682 0.5788 0.0
H828 H 0.99816 0.88069 0.57558 0.0
H829 H 0.09674 0.94556 0.64978 0.0
H830 H 0.10889 0.97639 0.62786 0.0
H831 H 0.11849 0.94235 0.61852 0.0
C832 C 0.82599 0.4339 0.90184 0.0
C833 C 0.79925 0.4298 0.91659 0.0
C834 C 0.85197 0.44608 0.91544 0.0
C835 C 0.85139 0.45514 0.94443 0.0
C836 C 0.82418 0.45197 0.959 0.0
C837 C 0.79875 0.43905 0.94515 0.0
C838 C 0.88026 0.44834 0.89901 0.0
C839 C 0.82194 0.4619 0.98949 0.0
C840 C 0.91994 0.46105 0.99082 0.0
C841 C 0.93143 0.49006 0.98886 0.0
C842 C 0.89438 0.44946 0.97624 0.0
C843 C 0.87911 0.46727 0.95974 0.0
C844 C 0.8903 0.49671 0.95826 0.0
C845 C 0.91633 0.50757 0.97236 0.0
C846 C 0.88397 0.41792 0.97812 0.0
C847 C 0.87466 0.5169 0.94184 0.0
H848 H 0.82679 0.4265 0.87996 0.0
H849 H 0.77827 0.43598 0.95682 0.0
H850 H 0.89125 0.4707 0.89857 0.0
H851 H 0.89492 0.43565 0.90995 0.0
H852 H 0.87723 0.44071 0.87664 0.0
H853 H 0.79911 0.45987 0.9972 0.0
H854 H 0.83383 0.44928 1.00379 0.0
H855 H 0.83215 0.48444 0.99133 0.0
H856 H 0.93141 0.44716 1.00314 0.0
H857 H 0.92477 0.53002 0.97064 0.0
H858 H 0.88235 0.40867 0.95631 0.0
H859 H 0.86198 0.41388 0.98798 0.0
H860 H 0.89862 0.40673 0.99093 0.0
H861 H 0.87364 0.51097 0.91889 0.0
H862 H 0.8854 0.53931 0.9436 0.0
H863 H 0.85202 0.51537 0.9499 0.0
C864 C 0.72755 0.60674 0.43952 0.0
C865 C 0.72767 0.60849 0.40943 0.0
C866 C 0.70236 0.5952 0.45526 0.0
C867 C 0.67622 0.58524 0.44082 0.0
C868 C 0.67619 0.58687 0.41046 0.0
C869 C 0.70176 0.59828 0.39524 0.0
C870 C 0.70376 0.59369 0.48746 0.0
C871 C 0.64895 0.57689 0.394 0.0
C872 C 0.6157 0.53366 0.47854 0.0
C873 C 0.59635 0.55177 0.48781 0.0
C874 C 0.64174 0.54419 0.46362 0.0
C875 C 0.64883 0.57365 0.45741 0.0
C876 C 0.62949 0.59204 0.46687 0.0
C877 C 0.60373 0.58098 0.48192 0.0
C878 C 0.6616 0.52367 0.4543 0.0
C879 C 0.6358 0.6235 0.46072 0.0
H880 H 0.74736 0.61412 0.45086 0.0
H881 H 0.70126 0.59974 0.37211 0.0
H882 H 0.68822 0.6064 0.49724 0.0
H883 H 0.69731 0.57143 0.49478 0.0
H884 H 0.72577 0.60168 0.49554 0.0
H885 H 0.65242 0.57924 0.37049 0.0
H886 H 0.64095 0.55424 0.39894 0.0
H887 H 0.63168 0.58919 0.40064 0.0
H888 H 0.61045 0.51108 0.48279 0.0
H889 H 0.58909 0.59532 0.48872 0.0
H890 H 0.68353 0.53028 0.46313 0.0
H891 H 0.66389 0.52397 0.43064 0.0
H892 H 0.65351 0.50156 0.46135 0.0
H893 H 0.65695 0.63268 0.46994 0.0
H894 H 0.6188 0.63507 0.4696 0.0
H895 H 0.63748 0.62718 0.43726 0.0
C896 C 0.21618 0.33382 0.1403 0.0
C897 C 0.24482 0.34722 0.1364 0.0
C898 C 0.19315 0.34511 0.12834 0.0
C899 C 0.19892 0.37061 0.11232 0.0
C900 C 0.22794 0.38369 0.10734 0.0
C901 C 0.25069 0.37167 0.11937 0.0
C902 C 0.16255 0.3303 0.13384 0.0
C903 C 0.23483 0.41095 0.09045 0.0
C904 C 0.13508 0.3874 0.06979 0.0
C905 C 0.12229 0.40415 0.08936 0.0
C906 C 0.16093 0.37734 0.07634 0.0
C907 C 0.17427 0.38445 0.10294 0.0
C908 C 0.16211 0.40247 0.12214 0.0
C909 C 0.13619 0.41201 0.11516 0.0
C910 C 0.1732 0.35806 0.05542 0.0
C911 C 0.17584 0.41076 0.15061 0.0
H912 H 0.21178 0.31465 0.15317 0.0
H913 H 0.27292 0.38193 0.11641 0.0
H914 H 0.15068 0.34394 0.14734 0.0
H915 H 0.15078 0.32666 0.11339 0.0
H916 H 0.16197 0.30955 0.14487 0.0
H917 H 0.25844 0.41686 0.08611 0.0
H918 H 0.2233 0.40907 0.06978 0.0
H919 H 0.22717 0.42844 0.10257 0.0
H920 H 0.12433 0.38135 0.04981 0.0
H921 H 0.12661 0.42547 0.13002 0.0
H922 H 0.17064 0.33624 0.06441 0.0
H923 H 0.19672 0.36524 0.05188 0.0
H924 H 0.16218 0.3572 0.03444 0.0
H925 H 0.17431 0.39173 0.16458 0.0
H926 H 0.1652 0.427 0.16184 0.0
H927 H 0.19918 0.41921 0.14758 0.0
C928 C 0.61957 0.2103 0.91332 0.0
C929 C 0.60065 0.22923 0.90546 0.0
C930 C 0.60956 0.18445 0.92791 0.0
C931 C 0.5798 0.17711 0.93566 0.0
C932 C 0.56062 0.19623 0.92797 0.0
C933 C 0.57112 0.22167 0.91282 0.0
C934 C 0.63093 0.16481 0.93488 0.0
C935 C 0.5289 0.18998 0.93609 0.0
C936 C 0.54725 0.09898 0.95211 0.0
C937 C 0.54792 0.09764 0.98221 0.0
C938 C 0.55778 0.12433 0.93684 0.0
C939 C 0.56883 0.14959 0.95177 0.0
C940 C 0.56936 0.1484 0.98217 0.0
C941 C 0.55929 0.12261 0.99687 0.0
C942 C 0.55722 0.124 0.90456 0.0
C943 C 0.58026 0.17459 0.99932 0.0
H944 H 0.64234 0.21551 0.90762 0.0
H945 H 0.5562 0.23605 0.90729 0.0
H946 H 0.63176 0.16182 0.95838 0.0
H947 H 0.62378 0.1436 0.92536 0.0
H948 H 0.65313 0.173 0.9268 0.0
H949 H 0.5168 0.20706 0.92915 0.0
H950 H 0.51888 0.1697 0.9263 0.0
H951 H 0.52645 0.1874 0.95965 0.0
H952 H 0.5387 0.08002 0.94033 0.0
H953 H 0.55983 0.12219 1.02005 0.0
H954 H 0.57938 0.13094 0.89577 0.0
H955 H 0.54336 0.13922 0.89674 0.0
H956 H 0.54889 0.10261 0.89597 0.0
H957 H 0.60317 0.18253 0.99346 0.0
H958 H 0.57881 0.17052 1.02275 0.0
H959 H 0.56751 0.19171 0.99422 0.0
C960 C 0.90413 0.83036 0.4317 0.0
C961 C 0.91947 0.81534 0.41218 0.0
C962 C 0.91682 0.85601 0.44459 0.0
C963 C 0.94533 0.86865 0.43682 0.0
C964 C 0.96058 0.85466 0.41605 0.0
C965 C 0.94781 0.82815 0.40445 0.0
C966 C 0.89967 0.86934 0.46704 0.0
C967 C 0.99054 0.86768 0.40606 0.0
C968 C 0.96356 0.94828 0.45517 0.0
C969 C 0.98098 0.94813 0.47941 0.0
C970 C 0.95308 0.9229 0.44036 0.0
C971 C 0.9589 0.89629 0.45069 0.0
C972 C 0.97626 0.89613 0.47544 0.0
C973 C 0.98756 0.92196 0.48901 0.0
C974 C 0.93577 0.92462 0.41356 0.0
C975 C 0.98216 0.86855 0.48824 0.0
H976 H 0.88184 0.82222 0.43723 0.0
H977 H 0.96036 0.81742 0.38959 0.0
H978 H 0.91243 0.87315 0.48691 0.0
H979 H 0.89517 0.89023 0.4594 0.0
H980 H 0.87869 0.85586 0.47242 0.0
H981 H 0.9984 0.85595 0.38777 0.0
H982 H 0.99067 0.8901 0.39953 0.0
H983 H 1.00599 0.86776 0.42387 0.0
H984 H 0.95856 0.9684 0.44745 0.0
H985 H 1.00087 0.92162 0.5078 0.0
H986 H 0.91296 0.91472 0.41742 0.0
H987 H 0.94455 0.91265 0.39598 0.0
H988 H 0.93596 0.94689 0.40642 0.0
H989 H 0.96136 0.85488 0.49377 0.0
H990 H 0.99546 0.87187 0.50784 0.0
H991 H 0.99361 0.85684 0.47239 0.0
C992 C 0.28377 0.69446 0.60829 0.0
C993 C 0.27144 0.68514 0.63484 0.0
C994 C 0.30764 0.68331 0.59696 0.0
C995 C 0.31951 0.66256 0.61269 0.0
C996 C 0.30591 0.65171 0.63851 0.0
C997 C 0.28193 0.66301 0.64917 0.0
C998 C 0.32125 0.69506 0.56909 0.0
C999 C 0.31785 0.62954 0.65592 0.0
C1000 C 0.37568 0.62202 0.57974 0.0
C1001 C 0.40161 0.63742 0.58993 0.0
C1002 C 0.34878 0.6303 0.58634 0.0
C1003 C 0.34777 0.65433 0.60384 0.0
C1004 C 0.37385 0.67012 0.61395 0.0
C1005 C 0.40043 0.66156 0.60676 0.0
C1006 C 0.32145 0.61306 0.57502 0.0
C1007 C 0.37367 0.69583 0.63279 0.0
H1008 H 0.27592 0.71166 0.59715 0.0
H1009 H 0.27213 0.65534 0.66944 0.0
H1010 H 0.34226 0.70861 0.57341 0.0
H1011 H 0.32576 0.67759 0.55486 0.0
H1012 H 0.30721 0.70804 0.55761 0.0
H1013 H 0.3032 0.6214 0.67401 0.0
H1014 H 0.32147 0.61139 0.64223 0.0
H1015 H 0.33914 0.63887 0.66474 0.0
H1016 H 0.37632 0.6031 0.56706 0.0
H1017 H 0.42035 0.67383 0.61433 0.0
H1018 H 0.30847 0.62705 0.56359 0.0
H1019 H 0.30791 0.6031 0.59309 0.0
H1020 H 0.32608 0.59606 0.5602 0.0
H1021 H 0.36277 0.71179 0.62174 0.0
H1022 H 0.39586 0.70598 0.63858 0.0
H1023 H 0.36119 0.68962 0.65278 0.0
C1024 C 0.73061 0.8443 0.66896 0.0
C1025 C 0.74251 0.83125 0.69191 0.0
C1026 C 0.74853 0.86163 0.64947 0.0
C1027 C 0.7789 0.86633 0.65344 0.0
C1028 C 0.79105 0.85197 0.67565 0.0
C1029 C 0.77272 0.83455 0.69452 0.0
C1030 C 0.73487 0.87613 0.62565 0.0
C1031 C 0.8233 0.85662 0.68086 0.0
C1032 C 0.83443 0.90258 0.59984 0.0
C1033 C 0.84032 0.93003 0.61133 0.0
C1034 C 0.8132 0.88189 0.61229 0.0
C1035 C 0.79783 0.88879 0.63696 0.0
C1036 C 0.80275 0.9168 0.64782 0.0
C1037 C 0.82374 0.9371 0.63473 0.0
C1038 C 0.8082 0.85235 0.59987 0.0
C1039 C 0.78691 0.92503 0.67417 0.0
H1040 H 0.70728 0.84162 0.66676 0.0
H1041 H 0.78206 0.82492 0.71248 0.0
H1042 H 0.73596 0.899 0.63069 0.0
H1043 H 0.74687 0.87462 0.60519 0.0
H1044 H 0.71179 0.86684 0.62267 0.0
H1045 H 0.82946 0.84198 0.69741 0.0
H1046 H 0.83539 0.85363 0.66079 0.0
H1047 H 0.8303 0.87878 0.68805 0.0
H1048 H 0.84718 0.89691 0.5818 0.0
H1049 H 0.8276 0.95847 0.64326 0.0
H1050 H 0.78465 0.84454 0.59803 0.0
H1051 H 0.81726 0.8376 0.61435 0.0
H1052 H 0.81862 0.85153 0.57843 0.0
H1053 H 0.76316 0.91945 0.6715 0.0
H1054 H 0.79207 0.94808 0.67889 0.0
H1055 H 0.79288 0.913 0.69296 0.0
C1056 C 0.74264 0.22176 0.18464 0.0
C1057 C 0.77294 0.22424 0.18576 0.0
C1058 C 0.72667 0.20306 0.16557 0.0
C1059 C 0.74128 0.18611 0.14731 0.0
C1060 C 0.77193 0.18987 0.14685 0.0
C1061 C 0.78744 0.20898 0.16605 0.0
C1062 C 0.69398 0.19988 0.16659 0.0
C1063 C 0.78828 0.17235 0.12751 0.0
C1064 C 0.69564 0.11482 0.13434 0.0
C1065 C 0.68321 0.1191 0.10782 0.0
C1066 C 0.71608 0.13586 0.14649 0.0
C1067 C 0.72415 0.16201 0.13194 0.0
C1068 C 0.71304 0.16592 0.10444 0.0
C1069 C 0.6927 0.14436 0.09266 0.0
C1070 C 0.72755 0.13076 0.17583 0.0
C1071 C 0.72129 0.19344 0.08821 0.0
H1072 H 0.73108 0.23307 0.19994 0.0
H1073 H 0.81087 0.21115 0.16636 0.0
H1074 H 0.68523 0.20031 0.14466 0.0
H1075 H 0.68499 0.17905 0.1763 0.0
H1076 H 0.68616 0.21687 0.17939 0.0
H1077 H 0.81174 0.18105 0.12614 0.0
H1078 H 0.78595 0.15033 0.13596 0.0
H1079 H 0.77924 0.17119 0.10564 0.0
H1080 H 0.68823 0.09562 0.14647 0.0
H1081 H 0.68359 0.14766 0.07194 0.0
H1082 H 0.71873 0.14464 0.19166 0.0
H1083 H 0.7515 0.13626 0.17596 0.0
H1084 H 0.72148 0.10835 0.18292 0.0
H1085 H 0.71067 0.2102 0.09846 0.0
H1086 H 0.71451 0.19151 0.0655 0.0
H1087 H 0.74503 0.20056 0.08886 0.0
C1088 C 0.39261 0.5975 0.34981 0.0
C1089 C 0.40975 0.61417 0.32898 0.0
C1090 C 0.40478 0.58577 0.37391 0.0
C1091 C 0.43517 0.59083 0.3783 0.0
C1092 C 0.45264 0.60812 0.35783 0.0
C1093 C 0.4399 0.61938 0.33366 0.0
C1094 C 0.3849 0.56765 0.39471 0.0
C1095 C 0.48504 0.61458 0.36131 0.0
C1096 C 0.46318 0.57958 0.45475 0.0
C1097 C 0.47244 0.55281 0.45308 0.0
C1098 C 0.45151 0.59219 0.43083 0.0
C1099 C 0.44847 0.57788 0.40407 0.0
C1100 C 0.4576 0.55079 0.40228 0.0
C1101 C 0.46949 0.5388 0.42646 0.0
C1102 C 0.44253 0.62108 0.43422 0.0
C1103 C 0.45467 0.53427 0.37469 0.0
H1104 H 0.3693 0.59361 0.3475 0.0
H1105 H 0.45383 0.63186 0.31809 0.0
H1106 H 0.39123 0.5462 0.39615 0.0
H1107 H 0.387 0.57709 0.41642 0.0
H1108 H 0.36182 0.56534 0.38839 0.0
H1109 H 0.49569 0.6291 0.34438 0.0
H1110 H 0.49021 0.62441 0.38251 0.0
H1111 H 0.4944 0.59457 0.36062 0.0
H1112 H 0.46536 0.591 0.47483 0.0
H1113 H 0.47643 0.51822 0.42446 0.0
H1114 H 0.41911 0.61982 0.42968 0.0
H1115 H 0.45453 0.63614 0.41851 0.0
H1116 H 0.44661 0.6298 0.45609 0.0
H1117 H 0.43161 0.5303 0.36827 0.0
H1118 H 0.46262 0.51355 0.3765 0.0
H1119 H 0.46702 0.54684 0.3573 0.0
C1120 C 0.07862 0.42219 0.83241 0.0
C1121 C 0.10827 0.42103 0.82751 0.0
C1122 C 0.06867 0.43613 0.85654 0.0
C1123 C 0.08861 0.44941 0.87694 0.0
C1124 C 0.11859 0.44859 0.87204 0.0
C1125 C 0.12799 0.43467 0.84755 0.0
C1126 C 0.03659 0.43649 0.86028 0.0
C1127 C 0.14084 0.46205 0.89302 0.0
C1128 C 0.06379 0.50495 0.92844 0.0
C1129 C 0.05534 0.48889 0.95332 0.0
C1130 C 0.07482 0.49261 0.90375 0.0
C1131 C 0.07796 0.46338 0.9036 0.0
C1132 C 0.07004 0.44727 0.92888 0.0
C1133 C 0.0588 0.46003 0.95309 0.0
C1134 C 0.08262 0.51081 0.87753 0.0
C1135 C 0.07311 0.41624 0.93028 0.0
H1136 H 0.06298 0.41233 0.81713 0.0
H1137 H 0.15089 0.4339 0.8445 0.0
H1138 H 0.02869 0.42544 0.88045 0.0
H1139 H 0.03238 0.45871 0.86203 0.0
H1140 H 0.02386 0.42606 0.84225 0.0
H1141 H 0.16332 0.46032 0.88603 0.0
H1142 H 0.13905 0.48482 0.89582 0.0
H1143 H 0.13668 0.45168 0.91427 0.0
H1144 H 0.06121 0.52715 0.92798 0.0
H1145 H 0.05258 0.44718 0.97197 0.0
H1146 H 0.06889 0.50222 0.85939 0.0
H1147 H 0.10548 0.51028 0.8711 0.0
H1148 H 0.07973 0.53325 0.88106 0.0
H1149 H 0.05887 0.40417 0.91425 0.0
H1150 H 0.06737 0.40686 0.95177 0.0
H1151 H 0.09571 0.4135 0.92488 0.0
C1152 C 0.60941 0.85711 0.93974 0.0
C1153 C 0.6278 0.86418 0.91597 0.0
C1154 C 0.59643 0.87789 0.95404 0.0
C1155 C 0.60167 0.90631 0.94407 0.0
C1156 C 0.62049 0.91367 0.92037 0.0
C1157 C 0.63352 0.89259 0.90679 0.0
C1158 C 0.57672 0.86934 0.97949 0.0
C1159 C 0.62646 0.94373 0.90902 0.0
C1160 C 0.54463 0.95256 0.96132 0.0
C1161 C 0.55751 0.96928 0.98375 0.0
C1162 C 0.55895 0.93223 0.94802 0.0
C1163 C 0.58659 0.92818 0.95773 0.0
C1164 C 0.59976 0.94504 0.98031 0.0
C1165 C 0.58515 0.96561 0.9929 0.0
C1166 C 0.54444 0.91502 0.92363 0.0
C1167 C 0.62903 0.94099 0.9915 0.0
H1168 H 0.60467 0.83522 0.94686 0.0
H1169 H 0.64826 0.89842 0.8889 0.0
H1170 H 0.5838 0.88292 0.99815 0.0
H1171 H 0.55431 0.87258 0.9745 0.0
H1172 H 0.57634 0.84676 0.98564 0.0
H1173 H 0.64197 0.94602 0.89062 0.0
H1174 H 0.60592 0.95043 0.90205 0.0
H1175 H 0.63539 0.95848 0.92616 0.0
H1176 H 0.52331 0.95541 0.95409 0.0
H1177 H 0.59506 0.97828 1.01044 0.0
H1178 H 0.54093 0.89213 0.92929 0.0
H1179 H 0.55867 0.91768 0.90428 0.0
H1180 H 0.52322 0.92128 0.91821 0.0
H1181 H 0.62815 0.91891 0.99941 0.0
H1182 H 0.63629 0.95585 1.00919 0.0
H1183 H 0.6455 0.94422 0.974 0.0
C1184 C 0.92156 0.14829 0.37621 0.0
C1185 C 0.92657 0.17769 0.38086 0.0
C1186 C 0.93522 0.12985 0.3928 0.0
C1187 C 0.95451 0.14109 0.41449 0.0
C1188 C 0.96037 0.17085 0.41872 0.0
C1189 C 0.94615 0.18881 0.40196 0.0
C1190 C 0.92804 0.09824 0.38788 0.0
C1191 C 0.98101 0.18362 0.44147 0.0
C1192 C 0.96075 0.09242 0.47749 0.0
C1193 C 0.9864 0.08169 0.47096 0.0
C1194 C 0.95047 0.11205 0.4595 0.0
C1195 C 0.96632 0.12147 0.43437 0.0
C1196 C 0.99251 0.11117 0.42781 0.0
C1197 C 1.00219 0.09123 0.44613 0.0
C1198 C 0.92228 0.12226 0.46714 0.0
C1199 C 1.01011 0.12098 0.40133 0.0
H1200 H 0.90614 0.13955 0.36019 0.0
H1201 H 0.95027 0.21156 0.40541 0.0
H1202 H 0.94819 0.08892 0.38479 0.0
H1203 H 0.91658 0.0879 0.407 0.0
H1204 H 0.91409 0.09306 0.36895 0.0
H1205 H 0.98526 0.20718 0.44029 0.0
H1206 H 0.97183 0.17729 0.46297 0.0
H1207 H 1.00193 0.17545 0.43939 0.0
H1208 H 0.9483 0.08515 0.49656 0.0
H1209 H 0.02213 0.08321 0.44103 0.0
H1210 H 0.90624 0.11619 0.45006 0.0
H1211 H 0.92569 0.14576 0.46864 0.0
H1212 H 0.91289 0.11329 0.48778 0.0
H1213 H 0.99735 0.11438 0.38195 0.0
H1214 H 0.03076 0.11217 0.40009 0.0
H1215 H 0.01512 0.14451 0.40093 0.0
C1216 C 0.22617 0.60947 0.10286 0.0
C1217 C 0.2277 0.61213 0.13285 0.0
C1218 C 0.20068 0.5966 0.08912 0.0
C1219 C 0.17546 0.58612 0.10548 0.0
C1220 C 0.17705 0.58801 0.13584 0.0
C1221 C 0.20304 0.60073 0.14909 0.0
C1222 C 0.20061 0.59481 0.05686 0.0
C1223 C 0.1509 0.57744 0.15435 0.0
C1224 C 0.10216 0.58235 0.06749 0.0
C1225 C 0.09485 0.55333 0.06088 0.0
C1226 C 0.12782 0.59303 0.08225 0.0
C1227 C 0.14729 0.57451 0.09068 0.0
C1228 C 0.1401 0.54518 0.08403 0.0
C1229 C 0.1141 0.535 0.06945 0.0
C1230 C 0.1341 0.62435 0.08887 0.0
C1231 C 0.16002 0.52449 0.09215 0.0
H1232 H 0.24504 0.61778 0.08994 0.0
H1233 H 0.20369 0.60274 0.17219 0.0
H1234 H 0.1933 0.57259 0.05004 0.0
H1235 H 0.18508 0.60794 0.04818 0.0
H1236 H 0.22233 0.60225 0.04723 0.0
H1237 H 0.15583 0.579 0.17754 0.0
H1238 H 0.13337 0.59004 0.14988 0.0
H1239 H 0.14246 0.55499 0.1492 0.0
H1240 H 0.08761 0.59687 0.06134 0.0
H1241 H 0.10892 0.51255 0.0647 0.0
H1242 H 0.1546 0.63396 0.07811 0.0
H1243 H 0.13705 0.62752 0.11223 0.0
H1244 H 0.11649 0.63589 0.08182 0.0
H1245 H 0.18146 0.53062 0.08151 0.0
H1246 H 0.15127 0.50233 0.08605 0.0
H1247 H 0.16363 0.52519 0.11558 0.0
C1248 C 0.2986 0.43374 0.60598 0.0
C1249 C 0.29928 0.43035 0.63587 0.0
C1250 C 0.32382 0.44459 0.58993 0.0
C1251 C 0.35084 0.45172 0.60379 0.0
C1252 C 0.35169 0.44798 0.63393 0.0
C1253 C 0.32601 0.43773 0.64953 0.0
C1254 C 0.32145 0.4488 0.55808 0.0
C1255 C 0.37987 0.45462 0.64975 0.0
C1256 C 0.42156 0.45599 0.55934 0.0
C1257 C 0.43089 0.48541 0.55723 0.0
C1258 C 0.39571 0.44479 0.57429 0.0
C1259 C 0.37809 0.46332 0.58695 0.0
C1260 C 0.38697 0.49306 0.58402 0.0
C1261 C 0.41328 0.50365 0.56966 0.0
C1262 C 0.38769 0.41301 0.57727 0.0
C1263 C 0.36879 0.51383 0.5963 0.0
H1264 H 0.27812 0.4284 0.59515 0.0
H1265 H 0.32697 0.43496 0.67251 0.0
H1266 H 0.32898 0.47139 0.55245 0.0
H1267 H 0.33567 0.43597 0.5464 0.0
H1268 H 0.29891 0.44274 0.55048 0.0
H1269 H 0.37723 0.44966 0.67296 0.0
H1270 H 0.39603 0.44229 0.64049 0.0
H1271 H 0.38884 0.47744 0.64723 0.0
H1272 H 0.43503 0.44163 0.55017 0.0
H1273 H 0.42008 0.52642 0.56814 0.0
H1274 H 0.36584 0.40596 0.56846 0.0
H1275 H 0.38676 0.40702 0.60027 0.0
H1276 H 0.40341 0.40139 0.56612 0.0
H1277 H 0.34626 0.50886 0.58845 0.0
H1278 H 0.37755 0.53617 0.59057 0.0
H1279 H 0.36777 0.5119 0.61996 0.0
C1280 C 0.77769 0.66733 0.90858 0.0
C1281 C 0.78443 0.68342 0.88357 0.0
C1282 C 0.79932 0.65587 0.92324 0.0
C1283 C 0.82827 0.66109 0.91279 0.0
C1284 C 0.83511 0.67743 0.88762 0.0
C1285 C 0.81311 0.6883 0.87331 0.0
C1286 C 0.79128 0.63825 0.94984 0.0
C1287 C 0.86577 0.68376 0.87594 0.0
C1288 C 0.89376 0.65815 0.95886 0.0
C1289 C 0.90305 0.63341 0.94867 0.0
C1290 C 0.86834 0.66665 0.94859 0.0
C1291 C 0.85181 0.64977 0.92791 0.0
C1292 C 0.86018 0.62382 0.91896 0.0
C1293 C 0.88586 0.61605 0.92932 0.0
C1294 C 0.86023 0.69455 0.95849 0.0
C1295 C 0.8429 0.60504 0.89729 0.0
H1296 H 0.7555 0.66356 0.9165 0.0
H1297 H 0.81848 0.70125 0.85432 0.0
H1298 H 0.79754 0.61688 0.94712 0.0
H1299 H 0.80336 0.64828 0.9684 0.0
H1300 H 0.7677 0.63575 0.95485 0.0
H1301 H 0.86742 0.69702 0.85624 0.0
H1302 H 0.88023 0.69504 0.89229 0.0
H1303 H 0.87393 0.66365 0.87093 0.0
H1304 H 0.90709 0.67154 0.97386 0.0
H1305 H 0.89283 0.59662 0.92187 0.0
H1306 H 0.83695 0.69193 0.96466 0.0
H1307 H 0.86369 0.71015 0.94065 0.0
H1308 H 0.87332 0.70345 0.97697 0.0
H1309 H 0.81947 0.60204 0.9029 0.0
H1310 H 0.84994 0.58386 0.89572 0.0
H1311 H 0.84562 0.61534 0.87591 0.0
C1312 C 0.40789 0.83506 0.14543 0.0
C1313 C 0.4251 0.8134 0.14738 0.0
C1314 C 0.41803 0.86119 0.13138 0.0
C1315 C 0.44581 0.86581 0.11783 0.0
C1316 C 0.46306 0.84374 0.11934 0.0
C1317 C 0.45277 0.8182 0.1344 0.0
C1318 C 0.39905 0.88409 0.13141 0.0
C1319 C 0.49233 0.84691 0.10463 0.0
C1320 C 0.4602 0.92418 0.05938 0.0
C1321 C 0.47826 0.94622 0.07328 0.0
C1322 C 0.44996 0.89798 0.07331 0.0
C1323 C 0.4569 0.89369 0.1024 0.0
C1324 C 0.47458 0.9162 0.11669 0.0
C1325 C 0.4854 0.94175 0.10192 0.0
C1326 C 0.43211 0.8746 0.05663 0.0
C1327 C 0.4819 0.91344 0.14782 0.0
H1328 H 0.38656 0.83175 0.15543 0.0
H1329 H 0.46619 0.80162 0.13546 0.0
H1330 H 0.41093 0.90387 0.14072 0.0
H1331 H 0.39355 0.88906 0.10914 0.0
H1332 H 0.37859 0.87782 0.1438 0.0
H1333 H 0.50255 0.82745 0.10649 0.0
H1334 H 0.49016 0.8518 0.0816 0.0
H1335 H 0.50705 0.86493 0.11403 0.0
H1336 H 0.45469 0.92711 0.03723 0.0
H1337 H 0.49914 0.95855 0.11306 0.0
H1338 H 0.41037 0.86897 0.06675 0.0
H1339 H 0.44261 0.85525 0.05699 0.0
H1340 H 0.42937 0.88072 0.034 0.0
H1341 H 0.4617 0.908 0.16078 0.0
H1342 H 0.49448 0.93326 0.15639 0.0
H1343 H 0.49473 0.89593 0.1506 0.0
C1344 C 0.10134 0.20465 0.65412 0.0
C1345 C 0.09957 0.23045 0.64022 0.0
C1346 C 0.08996 0.1782 0.64168 0.0
C1347 C 0.07588 0.1773 0.61481 0.0
C1348 C 0.07315 0.20345 0.60127 0.0
C1349 C 0.08533 0.22949 0.61386 0.0
C1350 C 0.09408 0.15115 0.65677 0.0
C1351 C 0.05789 0.20395 0.57305 0.0
C1352 C 0.07244 0.11194 0.56575 0.0
C1353 C 0.04442 0.0971 0.57114 0.0
C1354 C 0.08304 0.13746 0.58018 0.0
C1355 C 0.06513 0.14923 0.60024 0.0
C1356 C 0.03677 0.1344 0.6057 0.0
C1357 C 0.02694 0.10853 0.59143 0.0
C1358 C 0.11356 0.1519 0.57385 0.0
C1359 C 0.01651 0.14619 0.62627 0.0
H1360 H 0.11276 0.20512 0.67421 0.0
H1361 H 0.08408 0.24927 0.60281 0.0
H1362 H 0.0729 0.13731 0.65997 0.0
H1363 H 0.1078 0.13925 0.6433 0.0
H1364 H 0.10448 0.15526 0.67792 0.0
H1365 H 0.05541 0.22582 0.56643 0.0
H1366 H 0.07032 0.19459 0.55612 0.0
H1367 H 0.0361 0.19085 0.57447 0.0
H1368 H 0.08634 0.10345 0.5503 0.0
H1369 H 1.00521 0.09755 0.59575 0.0
H1370 H 0.12591 0.15516 0.59402 0.0
H1371 H 0.11313 0.17315 0.56433 0.0
H1372 H 0.12531 0.13946 0.55886 0.0
H1373 H 0.02638 0.14895 0.64774 0.0
H1374 H 0.9952 0.13225 0.62836 0.0
H1375 H 1.01287 0.16747 0.61886 0.0
C1376 C 0.74357 0.36924 0.393 0.0
C1377 C 0.75396 0.34648 0.40635 0.0
C1378 C 0.71998 0.3806 0.40452 0.0
C1379 C 0.70673 0.36932 0.43035 0.0
C1380 C 0.71837 0.34773 0.44501 0.0
C1381 C 0.74173 0.33642 0.43274 0.0
C1382 C 0.70822 0.40359 0.38816 0.0
C1383 C 0.70519 0.33552 0.47288 0.0
C1384 C 0.65332 0.41156 0.46583 0.0
C1385 C 0.62669 0.39734 0.45596 0.0
C1386 C 0.67953 0.40219 0.45847 0.0
C1387 C 0.67917 0.3783 0.44045 0.0
C1388 C 0.65238 0.36356 0.43084 0.0
C1389 C 0.62651 0.37311 0.43891 0.0
C1390 C 0.70763 0.41823 0.46944 0.0
C1391 C 0.65105 0.33808 0.41144 0.0
H1392 H 0.75331 0.3776 0.37295 0.0
H1393 H 0.74943 0.31874 0.44317 0.0
H1394 H 0.68627 0.39517 0.38025 0.0
H1395 H 0.70602 0.42176 0.40238 0.0
H1396 H 0.72223 0.41148 0.36955 0.0
H1397 H 0.71898 0.32165 0.48342 0.0
H1398 H 0.70175 0.35279 0.48784 0.0
H1399 H 0.68368 0.32278 0.46882 0.0
H1400 H 0.6538 0.43052 0.47871 0.0
H1401 H 0.60606 0.36161 0.43165 0.0
H1402 H 0.72079 0.42857 0.45129 0.0
H1403 H 0.72052 0.40337 0.47968 0.0
H1404 H 0.70405 0.43483 0.48519 0.0
H1405 H 0.66303 0.3443 0.39117 0.0
H1406 H 0.62845 0.32874 0.4062 0.0
H1407 H 0.66169 0.32147 0.4217 0.0
loop_
_geom_bond_atom_site_label_1
_geom_bond_atom_site_label_2
_geom_bond_distance
_geom_bond_site_symmetry_2
_ccdc_geom_bond_type
C0 C1 1.391 . S
C0 C4 1.391 . S
C0 H42 0.948 . S
C1 C0 1.391 . S
C1 C2 1.391 . S
C2 C1 1.391 . S
C2 H58 0.947 . S
C2 C59 1.392 . S
C3 C4 1.391 . S
C3 C7 1.397 . S
C3 C59 1.419 . S
C4 C0 1.391 . S
C4 C3 1.391 . S
C4 C5 1.399 . S
C5 C4 1.399 . S
C5 C8 1.396 . S
C5 C17 1.453 . S
C5 C18 1.684 . S
H6 C30 0.948 . S
C7 C3 1.397 . S
C7 C8 1.394 . S
C7 C26 1.723 . S
C8 C5 1.396 . S
C8 C7 1.394 . S
C8 C38 1.723 . S
H9 C32 0.947 . S
H10 C33 0.948 . S
H11 C39 0.982 . S
H12 C40 0.979 . S
H13 C40 0.980 . S
H14 C40 0.983 . S
H15 C39 0.979 . S
H16 C39 0.977 . S
C17 C5 1.453 . S
C17 H46 0.982 . S
C17 H47 0.979 . S
C17 H48 0.977 . S
C18 C5 1.684 . S
C18 H43 0.979 . S
C18 H44 0.980 . S
C18 H45 0.983 . S
C19 C20 1.391 . S
C19 C24 1.391 . S
C19 H49 0.948 . S
C20 C19 1.391 . S
C20 C21 1.391 . S
C21 C20 1.391 . S
C21 C22 1.392 . S
C21 H50 0.947 . S
C22 C21 1.392 . S
C22 C23 1.419 . S
C22 H51 0.948 . S
C23 C22 1.419 . S
C23 C24 1.391 . S
C23 C27 1.397 . S
C24 C19 1.391 . S
C24 C23 1.391 . S
C24 C25 1.399 . S
C25 C24 1.399 . S
C25 C26 1.396 . S
C25 C28 1.453 . S
C25 C29 1.684 . S
C26 C7 1.723 . S
C26 C25 1.396 . S
C26 C27 1.394 . S
C27 C23 1.397 . S
C27 C26 1.394 . S
C27 C37 1.723 . S
C28 C25 1.453 . S
C28 H52 0.982 . S
C28 H53 0.979 . S
C28 H54 0.977 . S
C29 C25 1.684 . S
C29 H55 0.979 . S
C29 H56 0.980 . S
C29 H57 0.983 . S
C30 H6 0.948 . S
C30 C31 1.391 . S
C30 C35 1.391 . S
C31 C30 1.391 . S
C31 C32 1.391 . S
C32 H9 0.947 . S
C32 C31 1.391 . S
C32 C33 1.392 . S
C33 H10 0.948 . S
C33 C32 1.392 . S
C33 C34 1.419 . S
C34 C33 1.419 . S
C34 C35 1.391 . S
C34 C38 1.397 . S
C35 C30 1.391 . S
C35 C34 1.391 . S
C35 C36 1.399 . S
C36 C35 1.399 . S
C36 C37 1.396 . S
C36 C39 1.453 . S
C36 C40 1.684 . S
C37 C27 1.723 . S
C37 C36 1.396 . S
C37 C38 1.394 . S
C38 C8 1.723 . S
C38 C34 1.397 . S
C38 C37 1.394 . S
C39 H11 0.982 . S
C39 H15 0.979 . S
C39 H16 0.977 . S
C39 C36 1.453 . S
C40 H12 0.979 . S
C40 H13 0.980 . S
C40 H14 0.983 . S
C40 C36 1.684 . S
H41 C59 0.948 . S
H42 C0 0.948 . S
H43 C18 0.979 . S
H44 C18 0.980 . S
H45 C18 0.983 . S
H46 C17 0.982 . S
H47 C17 0.979 . S
H48 C17 0.977 . S
H49 C19 0.948 . S
H50 C21 0.947 . S
H51 C22 0.948 . S
H52 C28 0.982 . S
H53 C28 0.979 . S
H54 C28 0.977 . S
H55 C29 0.979 . S
H56 C29 0.980 . S
H57 C29 0.983 . S
H58 C2 0.947 . S
C59 C2 1.392 . S
C59 C3 1.419 . S
C59 H41 0.948 . S
C60 C61 1.391 . S
C60 C64 1.391 . S
C60 H102 0.948 . S
C61 C60 1.391 . S
C61 C62 1.391 . S
C62 C61 1.391 . S
C62 H118 0.947 . S
C62 C119 1.392 . S
C63 C64 1.391 . S
C63 C67 1.397 . S
C63 C119 1.419 . S
C64 C60 1.391 . S
C64 C63 1.391 . S
C64 C65 1.399 . S
C65 C64 1.399 . S
C65 C68 1.396 . S
C65 C77 1.453 . S
C65 C78 1.684 . S
H66 C90 0.948 . S
C67 C63 1.397 . S
C67 C68 1.394 . S
C67 C86 1.723 . S
C68 C65 1.396 . S
C68 C67 1.394 . S
C68 C98 1.723 . S
H69 C92 0.947 . S
H70 C93 0.948 . S
H71 C99 0.982 . S
H72 C100 0.979 . S
H73 C100 0.980 . S
H74 C100 0.983 . S
H75 C99 0.979 . S
H76 C99 0.977 . S
C77 C65 1.453 . S
C77 H106 0.982 . S
C77 H107 0.979 . S
C77 H108 0.977 . S
C78 C65 1.684 . S
C78 H103 0.979 . S
C78 H104 0.980 . S
C78 H105 0.983 . S
C79 C80 1.391 . S
C79 C84 1.391 . S
C79 H109 0.948 . S
C80 C79 1.391 . S
C80 C81 1.391 . S
C81 C80 1.391 . S
C81 C82 1.392 . S
C81 H110 0.947 . S
C82 C81 1.392 . S
C82 C83 1.419 . S
C82 H111 0.948 . S
C83 C82 1.419 . S
C83 C84 1.391 . S
C83 C87 1.397 . S
C84 C79 1.391 . S
C84 C83 1.391 . S
C84 C85 1.399 . S
C85 C84 1.399 . S
C85 C86 1.396 . S
C85 C88 1.453 . S
C85 C89 1.684 . S
C86 C67 1.723 . S
C86 C85 1.396 . S
C86 C87 1.394 . S
C87 C83 1.397 . S
C87 C86 1.394 . S
C87 C97 1.723 . S
C88 C85 1.453 . S
C88 H112 0.982 . S
C88 H113 0.979 . S
C88 H114 0.977 . S
C89 C85 1.684 . S
C89 H115 0.979 . S
C89 H116 0.980 . S
C89 H117 0.983 . S
C90 H66 0.948 . S
C90 C91 1.391 . S
C90 C95 1.391 . S
C91 C90 1.391 . S
C91 C92 1.391 . S
C92 H69 0.947 . S
C92 C91 1.391 . S
C92 C93 1.392 . S
C93 H70 0.948 . S
C93 C92 1.392 . S
C93 C94 1.419 . S
C94 C93 1.419 . S
C94 C95 1.391 . S
C94 C98 1.397 . S
C95 C90 1.391 . S
C95 C94 1.391 . S
C95 C96 1.399 . S
C96 C95 1.399 . S
C96 C97 1.396 . S
C96 C99 1.453 . S
C96 C100 1.684 . S
C97 C87 1.723 . S
C97 C96 1.396 . S
C97 C98 1.394 . S
C98 C68 1.723 . S
C98 C94 1.397 . S
C98 C97 1.394 . S
C99 H71 0.982 . S
C99 H75 0.979 . S
C99 H76 0.977 . S
C99 C96 1.453 . S
C100 H72 0.979 . S
C100 H73 0.980 . S
C100 H74 0.983 . S
C100 C96 1.684 . S
H101 C119 0.948 . S
H102 C60 0.948 . S
H103 C78 0.979 . S
H104 C78 0.980 . S
H105 C78 0.983 . S
H106 C77 0.982 . S
H107 C77 0.979 . S
H108 C77 0.977 . S
H109 C79 0.948 . S
H110 C81 0.947 . S
H111 C82 0.948 . S
H112 C88 0.982 . S
H113 C88 0.979 . S
H114 C88 0.977 . S
H115 C89 0.979 . S
H116 C89 0.980 . S
H117 C89 0.983 . S
H118 C62 0.947 . S
C119 C62 1.392 . S
C119 C63 1.419 . S
C119 H101 0.948 . S
C120 C121 1.391 . S
C120 C124 1.391 . S
C120 H162 0.948 . S
C121 C120 1.391 . S
C121 C122 1.391 . S
C122 C121 1.391 . S
C122 H178 0.947 . S
C122 C179 1.392 . S
C123 C124 1.391 . S
C123 C127 1.397 . S
C123 C179 1.419 . S
C124 C120 1.391 . S
C124 C123 1.391 . S
C124 C125 1.399 . S
C125 C124 1.399 . S
C125 C128 1.396 . S
C125 C137 1.453 . S
C125 C138 1.684 . S
H126 C150 0.948 . S
C127 C123 1.397 . S
C127 C128 1.394 . S
C127 C146 1.723 . S
C128 C125 1.396 . S
C128 C127 1.394 . S
C128 C158 1.723 . S
H129 C152 0.947 . S
H130 C153 0.948 . S
H131 C159 0.982 . S
H132 C160 0.979 . S
H133 C160 0.980 . S
H134 C160 0.983 . S
H135 C159 0.979 . S
H136 C159 0.977 . S
C137 C125 1.453 . S
C137 H166 0.982 . S
C137 H167 0.979 . S
C137 H168 0.977 . S
C138 C125 1.684 . S
C138 H163 0.979 . S
C138 H164 0.980 . S
C138 H165 0.983 . S
C139 C140 1.391 . S
C139 C144 1.391 . S
C139 H169 0.948 . S
C140 C139 1.391 . S
C140 C141 1.391 . S
C141 C140 1.391 . S
C141 C142 1.392 . S
C141 H170 0.947 . S
C142 C141 1.392 . S
C142 C143 1.419 . S
C142 H171 0.948 . S
C143 C142 1.419 . S
C143 C144 1.391 . S
C143 C147 1.397 . S
C144 C139 1.391 . S
C144 C143 1.391 . S
C144 C145 1.399 . S
C145 C144 1.399 . S
C145 C146 1.396 . S
C145 C148 1.453 . S
C145 C149 1.684 . S
C146 C127 1.723 . S
C146 C145 1.396 . S
C146 C147 1.394 . S
C147 C143 1.397 . S
C147 C146 1.394 . S
C147 C157 1.723 . S
C148 C145 1.453 . S
C148 H172 0.982 . S
C148 H173 0.979 . S
C148 H174 0.977 . S
C149 C145 1.684 . S
C149 H175 0.979 . S
C149 H176 0.980 . S
C149 H177 0.983 . S
C150 H126 0.948 . S
C150 C151 1.391 . S
C150 C155 1.391 . S
C151 C150 1.391 . S
C151 C152 1.391 . S
C152 H129 0.947 . S
C152 C151 1.391 . S
C152 C153 1.392 . S
C153 H130 0.948 . S
C153 C152 1.392 . S
C153 C154 1.419 . S
C154 C153 1.419 . S
C154 C155 1.391 . S
C154 C158 1.397 . S
C155 C150 1.391 . S
C155 C154 1.391 . S
C155 C156 1.399 . S
C156 C155 1.399 . S
C156 C157 1.396 . S
C156 C159 1.453 . S
C156 C160 1.684 . S
C157 C147 1.723 . S
C157 C156 1.396 . S
C157 C158 1.394 . S
C158 C128 1.723 . S
C158 C154 1.397 . S
C158 C157 1.394 . S
C159 H131 0.982 . S
C159 H135 0.979 . S
C159 H136 0.977 . S
C159 C156 1.453 . S
C160 H132 0.979 . S
C160 H133 0.980 . S
C160 H134 0.983 . S
C160 C156 1.684 . S
H161 C179 0.948 . S
H162 C120 0.948 . S
H163 C138 0.979 . S
H164 C138 0.980 . S
H165 C138 0.983 . S
H166 C137 0.982 . S
H167 C137 0.979 . S
H168 C137 0.977 . S
H169 C139 0.948 . S
H170 C141 0.947 . S
H171 C142 0.948 . S
H172 C148 0.982 . S
H173 C148 0.979 . S
H174 C148 0.977 . S
H175 C149 0.979 . S
H176 C149 0.980 . S
H177 C149 0.983 . S
H178 C122 0.947 . S
C179 C122 1.392 . S
C179 C123 1.419 . S
C179 H161 0.948 . S
C180 C181 1.391 . S
C180 C184 1.391 . S
C180 H222 0.948 . S
C181 C180 1.391 . S
C181 C182 1.391 . S
C182 C181 1.391 . S
C182 H238 0.947 . S
C182 C239 1.392 . S
C183 C184 1.391 . S
C183 C187 1.397 . S
C183 C239 1.419 . S
C184 C180 1.391 . S
C184 C183 1.391 . S
C184 C185 1.399 . S
C185 C184 1.399 . S
C185 C188 1.396 . S
C185 C197 1.453 . S
C185 C198 1.684 . S
H186 C210 0.948 . S
C187 C183 1.397 . S
C187 C188 1.394 . S
C187 C206 1.723 . S
C188 C185 1.396 . S
C188 C187 1.394 . S
C188 C218 1.723 . S
H189 C212 0.947 . S
H190 C213 0.948 . S
H191 C219 0.982 . S
H192 C220 0.979 . S
H193 C220 0.980 . S
H194 C220 0.983 . S
H195 C219 0.979 . S
H196 C219 0.977 . S
C197 C185 1.453 . S
C197 H226 0.982 . S
C197 H227 0.979 . S
C197 H228 0.977 . S
C198 C185 1.684 . S
C198 H223 0.979 . S
C198 H224 0.980 . S
C198 H225 0.983 . S
C199 C200 1.391 . S
C199 C204 1.391 . S
C199 H229 0.948 . S
C200 C199 1.391 . S
C200 C201 1.391 . S
C201 C200 1.391 . S
C201 C202 1.392 . S
C201 H230 0.947 . S
C202 C201 1.392 . S
C202 C203 1.419 . S
C202 H231 0.948 . S
C203 C202 1.419 . S
C203 C204 1.391 . S
C203 C207 1.397 . S
C204 C199 1.391 . S
C204 C203 1.391 . S
C204 C205 1.399 . S
C205 C204 1.399 . S
C205 C206 1.396 . S
C205 C208 1.453 . S
C205 C209 1.684 . S
C206 C187 1.723 . S
C206 C205 1.396 . S
C206 C207 1.394 . S
C207 C203 1.397 . S
C207 C206 1.394 . S
C207 C217 1.723 . S
C208 C205 1.453 . S
C208 H232 0.982 . S
C208 H233 0.979 . S
C208 H234 0.977 . S
C209 C205 1.684 . S
C209 H235 0.979 . S
C209 H236 0.980 . S
C209 H237 0.983 . S
C210 H186 0.948 . S
C210 C211 1.391 . S
C210 C215 1.391 . S
C211 C210 1.391 . S
C211 C212 1.391 . S
C212 H189 0.947 . S
C212 C211 1.391 . S
C212 C213 1.392 . S
C213 H190 0.948 . S
C213 C212 1.392 . S
C213 C214 1.419 . S
C214 C213 1.419 . S
C214 C215 1.391 . S
C214 C218 1.397 . S
C215 C210 1.391 . S
C215 C214 1.391 . S
C215 C216 1.399 . S
C216 C215 1.399 . S
C216 C217 1.396 . S
C216 C219 1.453 . S
C216 C220 1.684 . S
C217 C207 1.723 . S
C217 C216 1.396 . S
C217 C218 1.394 . S
C218 C188 1.723 . S
C218 C214 1.397 . S
C218 C217 1.394 . S
C219 H191 0.982 . S
C219 H195 0.979 . S
C219 H196 0.977 . S
C219 C216 1.453 . S
C220 H192 0.979 . S
C220 H193 0.980 . S
C220 H194 0.983 . S
C220 C216 1.684 . S
H221 C239 0.948 . S
H222 C180 0.948 . S
H223 C198 0.979 . S
H224 C198 0.980 . S
H225 C198 0.983 . S
H226 C197 0.982 . S
H227 C197 0.979 . S
H228 C197 0.977 . S
H229 C199 0.948 . S
H230 C201 0.947 . S
H231 C202 0.948 . S
H232 C208 0.982 . S
H233 C208 0.979 . S
H234 C208 0.977 . S
H235 C209 0.979 . S
H236 C209 0.980 . S
H237 C209 0.983 . S
H238 C182 0.947 . S
C239 C182 1.392 . S
C239 C183 1.419 . S
C239 H221 0.948 . S
C240 C241 1.391 . S
C240 C244 1.391 . S
C240 H282 0.948 . S
C241 C240 1.391 . S
C241 C242 1.391 . S
C242 C241 1.391 . S
C242 H298 0.947 . S
C242 C299 1.392 . S
C243 C244 1.391 . S
C243 C247 1.397 . S
C243 C299 1.419 . S
C244 C240 1.391 . S
C244 C243 1.391 . S
C244 C245 1.399 . S
C245 C244 1.399 . S
C245 C248 1.396 . S
C245 C257 1.453 . S
C245 C258 1.684 . S
H246 C270 0.948 . S
C247 C243 1.397 . S
C247 C248 1.394 . S
C247 C266 1.723 . S
C248 C245 1.396 . S
C248 C247 1.394 . S
C248 C278 1.723 . S
H249 C272 0.947 . S
H250 C273 0.948 . S
H251 C279 0.982 . S
H252 C280 0.979 . S
H253 C280 0.980 . S
H254 C280 0.983 . S
H255 C279 0.979 . S
H256 C279 0.977 . S
C257 C245 1.453 . S
C257 H286 0.982 . S
C257 H287 0.979 . S
C257 H288 0.977 . S
C258 C245 1.684 . S
C258 H283 0.979 . S
C258 H284 0.980 . S
C258 H285 0.983 . S
C259 C260 1.391 . S
C259 C264 1.391 . S
C259 H289 0.948 . S
C260 C259 1.391 . S
C260 C261 1.391 . S
C261 C260 1.391 . S
C261 C262 1.392 . S
C261 H290 0.947 . S
C262 C261 1.392 . S
C262 C263 1.419 . S
C262 H291 0.948 . S
C263 C262 1.419 . S
C263 C264 1.391 . S
C263 C267 1.397 . S
C264 C259 1.391 . S
C264 C263 1.391 . S
C264 C265 1.399 . S
C265 C264 1.399 . S
C265 C266 1.396 . S
C265 C268 1.453 . S
C265 C269 1.684 . S
C266 C247 1.723 . S
C266 C265 1.396 . S
C266 C267 1.394 . S
C267 C263 1.397 . S
C267 C266 1.394 . S
C267 C277 1.723 . S
C268 C265 1.453 . S
C268 H292 0.982 . S
C268 H293 0.979 . S
C268 H294 0.977 . S
C269 C265 1.684 . S
C269 H295 0.979 . S
C269 H296 0.980 . S
C269 H297 0.983 . S
C270 H246 0.948 . S
C270 C271 1.391 . S
C270 C275 1.391 . S
C271 C270 1.391 . S
C271 C272 1.391 . S
C272 H249 0.947 . S
C272 C271 1.391 . S
C272 C273 1.392 . S
C273 H250 0.948 . S
C273 C272 1.392 . S
C273 C274 1.419 . S
C274 C273 1.419 . S
C274 C275 1.391 . S
C274 C278 1.397 . S
C275 C270 1.391 . S
C275 C274 1.391 . S
C275 C276 1.399 . S
C276 C275 1.399 . S
C276 C277 1.396 . S
C276 C279 1.453 . S
C276 C280 1.684 . S
C277 C267 1.723 . S
C277 C276 1.396 . S
C277 C278 1.394 . S
C278 C248 1.723 . S
C278 C274 1.397 . S
C278 C277 1.394 . S
C279 H251 0.982 . S
C279 H255 0.979 . S
C279 H256 0.977 . S
C279 C276 1.453 . S
C280 H252 0.979 . S
C280 H253 0.980 . S
C280 H254 0.983 . S
C280 C276 1.684 . S
H281 C299 0.948 . S
H282 C240 0.948 . S
H283 C258 0.979 . S
H284 C258 0.980 . S
H285 C258 0.983 . S
H286 C257 0.982 . S
H287 C257 0.979 . S
H288 C257 0.977 . S
H289 C259 0.948 . S
H290 C261 0.947 . S
H291 C262 0.948 . S
H292 C268 0.982 . S
H293 C268 0.979 . S
H294 C268 0.977 . S
H295 C269 0.979 . S
H296 C269 0.980 . S
H297 C269 0.983 . S
H298 C242 0.947 . S
C299 C242 1.392 . S
C299 C243 1.419 . S
C299 H281 0.948 . S
C300 C301 1.391 . S
C300 C304 1.391 . S
C300 H342 0.948 . S
C301 C300 1.391 . S
C301 C302 1.391 . S
C302 C301 1.391 . S
C302 H358 0.947 . S
C302 C359 1.392 . S
C303 C304 1.391 . S
C303 C307 1.397 . S
C303 C359 1.419 . S
C304 C300 1.391 . S
C304 C303 1.391 . S
C304 C305 1.399 . S
C305 C304 1.399 . S
C305 C308 1.396 . S
C305 C317 1.453 . S
C305 C318 1.684 . S
H306 C330 0.948 . S
C307 C303 1.397 . S
C307 C308 1.394 . S
C307 C326 1.723 . S
C308 C305 1.396 . S
C308 C307 1.394 . S
C308 C338 1.723 . S
H309 C332 0.947 . S
H310 C333 0.948 . S
H311 C339 0.982 . S
H312 C340 0.979 . S
H313 C340 0.980 . S
H314 C340 0.983 . S
H315 C339 0.979 . S
H316 C339 0.977 . S
C317 C305 1.453 . S
C317 H346 0.982 . S
C317 H347 0.979 . S
C317 H348 0.977 . S
C318 C305 1.684 . S
C318 H343 0.979 . S
C318 H344 0.980 . S
C318 H345 0.983 . S
C319 C320 1.391 . S
C319 C324 1.391 . S
C319 H349 0.948 . S
C320 C319 1.391 . S
C320 C321 1.391 . S
C321 C320 1.391 . S
C321 C322 1.392 . S
C321 H350 0.947 . S
C322 C321 1.392 . S
C322 C323 1.419 . S
C322 H351 0.948 . S
C323 C322 1.419 . S
C323 C324 1.391 . S
C323 C327 1.397 . S
C324 C319 1.391 . S
C324 C323 1.391 . S
C324 C325 1.399 . S
C325 C324 1.399 . S
C325 C326 1.396 . S
C325 C328 1.453 . S
C325 C329 1.684 . S
C326 C307 1.723 . S
C326 C325 1.396 . S
C326 C327 1.394 . S
C327 C323 1.397 . S
C327 C326 1.394 . S
C327 C337 1.723 . S
C328 C325 1.453 . S
C328 H352 0.982 . S
C328 H353 0.979 . S
C328 H354 0.977 . S
C329 C325 1.684 . S
C329 H355 0.979 . S
C329 H356 0.980 . S
C329 H357 0.983 . S
C330 H306 0.948 . S
C330 C331 1.391 . S
C330 C335 1.391 . S
C331 C330 1.391 . S
C331 C332 1.391 . S
C332 H309 0.947 . S
C332 C331 1.391 . S
C332 C333 1.392 . S
C333 H310 0.948 . S
C333 C332 1.392 . S
C333 C334 1.419 . S
C334 C333 1.419 . S
C334 C335 1.391 . S
C334 C338 1.397 . S
C335 C330 1.391 . S
C335 C334 1.391 . S
C335 C336 1.399 . S
C336 C335 1.399 . S
C336 C337 1.396 . S
C336 C339 1.453 . S
C336 C340 1.684 . S
C337 C327 1.723 . S
C337 C336 1.396 . S
C337 C338 1.394 . S
C338 C308 1.723 . S
C338 C334 1.397 . S
C338 C337 1.394 . S
C339 H311 0.982 . S
C339 H315 0.979 . S
C339 H316 0.977 . S
C339 C336 1.453 . S
C340 H312 0.979 . S
C340 H313 0.980 . S
C340 H314 0.983 . S
C340 C336 1.684 . S
H341 C359 0.948 . S
H342 C300 0.948 . S
H343 C318 0.979 . S
H344 C318 0.980 . S
H345 C318 0.983 . S
H346 C317 0.982 . S
H347 C317 0.979 . S
H348 C317 0.977 . S
H349 C319 0.948 . S
H350 C321 0.947 . S
H351 C322 0.948 . S
H352 C328 0.982 . S
H353 C328 0.979 . S
H354 C328 0.977 . S
H355 C329 0.979 . S
H356 C329 0.980 . S
H357 C329 0.983 . S
H358 C302 0.947 . S
C359 C302 1.392 . S
C359 C303 1.419 . S
C359 H341 0.948 . S
C360 C361 1.391 . S
C360 C364 1.391 . S
C360 H402 0.948 . S
C361 C360 1.391 . S
C361 C362 1.391 . S
C362 C361 1.391 . S
C362 H418 0.947 . S
C362 C419 1.392 . S
C363 C364 1.391 . S
C363 C367 1.397 . S
C363 C419 1.419 . S
C364 C360 1.391 . S
C364 C363 1.391 . S
C364 C365 1.399 . S
C365 C364 1.399 . S
C365 C368 1.396 . S
C365 C377 1.453 . S
C365 C378 1.684 . S
H366 C390 0.948 . S
C367 C363 1.397 . S
C367 C368 1.394 . S
C367 C386 1.723 . S
C368 C365 1.396 . S
C368 C367 1.394 . S
C368 C398 1.723 . S
H369 C392 0.947 . S
H370 C393 0.948 . S
H371 C399 0.982 . S
H372 C400 0.979 . S
H373 C400 0.980 . S
H374 C400 0.983 . S
H375 C399 0.979 . S
H376 C399 0.977 . S
C377 C365 1.453 . S
C377 H406 0.982 . S
C377 H407 0.979 . S
C377 H408 0.977 . S
C378 C365 1.684 . S
C378 H403 0.979 . S
C378 H404 0.980 . S
C378 H405 0.983 . S
C379 C380 1.391 . S
C379 C384 1.391 . S
C379 H409 0.948 . S
C380 C379 1.391 . S
C380 C381 1.391 . S
C381 C380 1.391 . S
C381 C382 1.392 . S
C381 H410 0.947 . S
C382 C381 1.392 . S
C382 C383 1.419 . S
C382 H411 0.948 . S
C383 C382 1.419 . S
C383 C384 1.391 . S
C383 C387 1.397 . S
C384 C379 1.391 . S
C384 C383 1.391 . S
C384 C385 1.399 . S
C385 C384 1.399 . S
C385 C386 1.396 . S
C385 C388 1.453 . S
C385 C389 1.684 . S
C386 C367 1.723 . S
C386 C385 1.396 . S
C386 C387 1.394 . S
C387 C383 1.397 . S
C387 C386 1.394 . S
C387 C397 1.723 . S
C388 C385 1.453 . S
C388 H412 0.982 . S
C388 H413 0.979 . S
C388 H414 0.977 . S
C389 C385 1.684 . S
C389 H415 0.979 . S
C389 H416 0.980 . S
C389 H417 0.983 . S
C390 H366 0.948 . S
C390 C391 1.391 . S
C390 C395 1.391 . S
C391 C390 1.391 . S
C391 C392 1.391 . S
C392 H369 0.947 . S
C392 C391 1.391 . S
C392 C393 1.392 . S
C393 H370 0.948 . S
C393 C392 1.392 . S
C393 C394 1.419 . S
C394 C393 1.419 . S
C394 C395 1.391 . S
C394 C398 1.397 . S
C395 C390 1.391 . S
C395 C394 1.391 . S
C395 C396 1.399 . S
C396 C395 1.399 . S
C396 C397 1.396 . S
C396 C399 1.453 . S
C396 C400 1.684 . S
C397 C387 1.723 . S
C397 C396 1.396 . S
C397 C398 1.394 . S
C398 C368 1.723 . S
C398 C394 1.397 . S
C398 C397 1.394 . S
C399 H371 0.982 . S
C399 H375 0.979 . S
C399 H376 0.977 . S
C399 C396 1.453 . S
C400 H372 0.979 . S
C400 H373 0.980 . S
C400 H374 0.983 . S
C400 C396 1.684 . S
H401 C419 0.948 . S
H402 C360 0.948 . S
H403 C378 0.979 . S
H404 C378 0.980 . S
H405 C378 0.983 . S
H406 C377 0.982 . S
H407 C377 0.979 . S
H408 C377 0.977 . S
H409 C379 0.948 . S
H410 C381 0.947 . S
H411 C382 0.948 . S
H412 C388 0.982 . S
H413 C388 0.979 . S
H414 C388 0.977 . S
H415 C389 0.979 . S
H416 C389 0.980 . S
H417 C389 0.983 . S
H418 C362 0.947 . S
C419 C362 1.392 . S
C419 C363 1.419 . S
C419 H401 0.948 . S
C420 C421 1.391 . S
C420 C424 1.391 . S
C420 H462 0.948 . S
C421 C420 1.391 . S
C421 C422 1.391 . S
C422 C421 1.391 . S
C422 H478 0.947 . S
C422 C479 1.392 . S
C423 C424 1.391 . S
C423 C427 1.397 . S
C423 C479 1.419 . S
C424 C420 1.391 . S
C424 C423 1.391 . S
C424 C425 1.399 . S
C425 C424 1.399 . S
C425 C428 1.396 . S
C425 C437 1.453 . S
C425 C438 1.684 . S
H426 C450 0.948 . S
C427 C423 1.397 . S
C427 C428 1.394 . S
C427 C446 1.723 . S
C428 C425 1.396 . S
C428 C427 1.394 . S
C428 C458 1.723 . S
H429 C452 0.947 . S
H430 C453 0.948 . S
H431 C459 0.982 . S
H432 C460 0.979 . S
H433 C460 0.980 . S
H434 C460 0.983 . S
H435 C459 0.979 . S
H436 C459 0.977 . S
C437 C425 1.453 . S
C437 H466 0.982 . S
C437 H467 0.979 . S
C437 H468 0.977 . S
C438 C425 1.684 . S
C438 H463 0.979 . S
C438 H464 0.980 . S
C438 H465 0.983 . S
C439 C440 1.391 . S
C439 C444 1.391 . S
C439 H469 0.948 . S
C440 C439 1.391 . S
C440 C441 1.391 . S
C441 C440 1.391 . S
C441 C442 1.392 . S
C441 H470 0.947 . S
C442 C441 1.392 . S
C442 C443 1.419 . S
C442 H471 0.948 . S
C443 C442 1.419 . S
C443 C444 1.391 . S
C443 C447 1.397 . S
C444 C439 1.391 . S
C444 C443 1.391 . S
C444 C445 1.399 . S
C445 C444 1.399 . S
C445 C446 1.396 . S
C445 C448 1.453 . S
C445 C449 1.684 . S
C446 C427 1.723 . S
C446 C445 1.396 . S
C446 C447 1.394 . S
C447 C443 1.397 . S
C447 C446 1.394 . S
C447 C457 1.723 . S
C448 C445 1.453 . S
C448 H472 0.982 . S
C448 H473 0.979 . S
C448 H474 0.977 . S
C449 C445 1.684 . S
C449 H475 0.979 . S
C449 H476 0.980 . S
C449 H477 0.983 . S
C450 H426 0.948 . S
C450 C451 1.391 . S
C450 C455 1.391 . S
C451 C450 1.391 . S
C451 C452 1.391 . S
C452 H429 0.947 . S
C452 C451 1.391 . S
C452 C453 1.392 . S
C453 H430 0.948 . S
C453 C452 1.392 . S
C453 C454 1.419 . S
C454 C453 1.419 . S
C454 C455 1.391 . S
C454 C458 1.397 . S
C455 C450 1.391 . S
C455 C454 1.391 . S
C455 C456 1.399 . S
C456 C455 1.399 . S
C456 C457 1.396 . S
C456 C459 1.453 . S
C456 C460 1.684 . S
C457 C447 1.723 . S
C457 C456 1.396 . S
C457 C458 1.394 . S
C458 C428 1.723 . S
C458 C454 1.397 . S
C458 C457 1.394 . S
C459 H431 0.982 . S
C459 H435 0.979 . S
C459 H436 0.977 . S
C459 C456 1.453 . S
C460 H432 0.979 . S
C460 H433 0.980 . S
C460 H434 0.983 . S
C460 C456 1.684 . S
H461 C479 0.948 . S
H462 C420 0.948 . S
H463 C438 0.979 . S
H464 C438 0.980 . S
H465 C438 0.983 . S
H466 C437 0.982 . S
H467 C437 0.979 . S
H468 C437 0.977 . S
H469 C439 0.948 . S
H470 C441 0.947 . S
H471 C442 0.948 . S
H472 C448 0.982 . S
H473 C448 0.979 . S
H474 C448 0.977 . S
H475 C449 0.979 . S
H476 C449 0.980 . S
H477 C449 0.983 . S
H478 C422 0.947 . S
C479 C422 1.392 . S
C479 C423 1.419 . S
C479 H461 0.948 . S
Tb480 C489 2.764 . S
Tb480 O490 2.325 1_455 S
Tb480 O493 2.303 . S
Tb480 O497 2.322 1_545 S
Tb480 O498 2.349 1_545 S
Tb480 O501 2.415 . S
Tb480 O502 2.399 . S
Tb481 O491 2.322 1_565 S
Tb481 O492 2.349 1_565 S
Tb481 O494 2.415 . S
Tb481 O495 2.399 . S
Tb481 O496 2.325 1_655 S
Tb481 O499 2.303 . S
Tb481 C510 2.764 . S
C482 O498 1.261 1_655 S
C482 O499 1.257 . S
C483 C486 1.358 . S
C483 C487 1.332 . S
C483 C489 1.504 . S
C484 C485 1.373 . S
C484 C488 1.308 . S
C485 C484 1.373 . S
C485 C486 1.429 . S
C485 H512 0.932 . S
C486 C483 1.358 . S
C486 C485 1.429 . S
C486 H513 0.930 . S
C487 C483 1.332 . S
C487 C488 1.394 . S
C487 H514 0.932 . S
C488 C484 1.308 . S
C488 C487 1.394 . S
C488 H515 0.929 . S
C489 Tb480 2.764 . S
C489 C483 1.504 . S
C489 O501 1.239 . S
C489 O502 1.263 . S
O490 Tb480 2.325 1_655 S
O490 C500 1.236 . S
O491 Tb481 2.322 1_545 S
O491 C500 1.257 . S
O492 Tb481 2.349 1_545 S
O492 C503 1.261 1_655 S
O493 Tb480 2.303 . S
O493 C503 1.257 . S
O494 Tb481 2.415 . S
O494 C510 1.239 . S
O495 Tb481 2.399 . S
O495 C510 1.263 . S
O496 Tb481 2.325 1_455 S
O496 C511 1.236 . S
O497 Tb480 2.322 1_565 S
O497 C511 1.257 . S
O498 Tb480 2.349 1_565 S
O498 C482 1.261 1_455 S
O499 Tb481 2.303 . S
O499 C482 1.257 . S
C500 O490 1.236 . S
C500 O491 1.257 . S
O501 Tb480 2.415 . S
O501 C489 1.239 . S
O502 Tb480 2.399 . S
O502 C489 1.263 . S
C503 O492 1.261 1_455 S
C503 O493 1.257 . S
C504 C507 1.358 . S
C504 C508 1.332 . S
C504 C510 1.504 . S
C505 C506 1.373 . S
C505 C509 1.308 . S
C506 C505 1.373 . S
C506 C507 1.429 . S
C506 H516 0.932 . S
C507 C504 1.358 . S
C507 C506 1.429 . S
C507 H517 0.930 . S
C508 C504 1.332 . S
C508 C509 1.394 . S
C508 H518 0.932 . S
C509 C505 1.308 . S
C509 C508 1.394 . S
C509 H519 0.929 . S
C510 Tb481 2.764 . S
C510 O494 1.239 . S
C510 O495 1.263 . S
C510 C504 1.504 . S
C511 O496 1.236 . S
C511 O497 1.257 . S
H512 C485 0.932 . S
H513 C486 0.930 . S
H514 C487 0.932 . S
H515 C488 0.929 . S
H516 C506 0.932 . S
H517 C507 0.930 . S
H518 C508 0.932 . S
H519 C509 0.929 . S
Tb520 C529 2.764 . S
Tb520 O530 2.325 1_554 S
Tb520 O533 2.303 . S
Tb520 O537 2.322 1_545 S
Tb520 O538 2.323 1_544 S
Tb520 O541 2.415 . S
Tb520 O542 2.399 . S
Tb521 O531 2.322 1_565 S
Tb521 O532 2.349 1_566 S
Tb521 O534 2.415 . S
Tb521 O535 2.399 . S
Tb521 O536 2.325 1_556 S
Tb521 O539 2.303 . S
Tb521 C550 2.764 . S
C522 O538 1.295 . S
C522 O539 1.257 . S
C523 C526 1.358 . S
C523 C527 1.332 . S
C523 C529 1.504 . S
C524 C525 1.373 . S
C524 C528 1.308 . S
C525 C524 1.373 . S
C525 C526 1.429 . S
C525 H552 0.932 . S
C526 C523 1.358 . S
C526 C525 1.429 . S
C526 H553 0.930 . S
C527 C523 1.332 . S
C527 C528 1.394 . S
C527 H554 0.932 . S
C528 C524 1.308 . S
C528 C527 1.394 . S
C528 H555 0.929 . S
C529 Tb520 2.764 . S
C529 C523 1.504 . S
C529 O541 1.239 . S
C529 O542 1.263 . S
O530 Tb520 2.325 1_556 S
O530 C540 1.236 . S
O531 Tb521 2.322 1_545 S
O531 C540 1.257 . S
O532 Tb521 2.349 1_544 S
O532 C543 1.261 . S
O533 Tb520 2.303 . S
O533 C543 1.257 . S
O534 Tb521 2.415 . S
O534 C550 1.239 . S
O535 Tb521 2.399 . S
O535 C550 1.263 . S
O536 Tb521 2.325 1_554 S
O536 C551 1.236 . S
O537 Tb520 2.322 1_565 S
O537 C551 1.257 . S
O538 Tb520 2.323 1_566 S
O538 C522 1.295 . S
O539 Tb521 2.303 . S
O539 C522 1.257 . S
C540 O530 1.236 . S
C540 O531 1.257 . S
O541 Tb520 2.415 . S
O541 C529 1.239 . S
O542 Tb520 2.399 . S
O542 C529 1.263 . S
C543 O532 1.261 . S
C543 O533 1.257 . S
C544 C547 1.358 . S
C544 C548 1.332 . S
C544 C550 1.504 . S
C545 C546 1.373 . S
C545 C549 1.308 . S
C546 C545 1.373 . S
C546 C547 1.429 . S
C546 H556 0.932 . S
C547 C544 1.358 . S
C547 C546 1.429 . S
C547 H557 0.930 . S
C548 C544 1.332 . S
C548 C549 1.394 . S
C548 H558 0.932 . S
C549 C545 1.308 . S
C549 C548 1.394 . S
C549 H559 0.929 . S
C550 Tb521 2.764 . S
C550 O534 1.239 . S
C550 O535 1.263 . S
C550 C544 1.504 . S
C551 O536 1.236 . S
C551 O537 1.257 . S
H552 C525 0.932 . S
H553 C526 0.930 . S
H554 C527 0.932 . S
H555 C528 0.929 . S
H556 C546 0.932 . S
H557 C547 0.930 . S
H558 C548 0.932 . S
H559 C549 0.929 . S
Tb560 C569 2.764 . S
Tb560 O570 2.325 . S
Tb560 O573 2.303 . S
Tb560 O577 2.322 . S
Tb560 O578 2.349 . S
Tb560 O581 2.415 . S
Tb560 O582 2.399 . S
Tb561 O571 2.322 . S
Tb561 O572 2.349 . S
Tb561 O574 2.415 . S
Tb561 O575 2.399 . S
Tb561 O576 2.325 . S
Tb561 O579 2.303 . S
Tb561 C590 2.764 . S
C562 O578 1.261 . S
C562 O579 1.257 . S
C563 C566 1.358 . S
C563 C567 1.332 . S
C563 C569 1.504 . S
C564 C565 1.373 . S
C564 C568 1.308 . S
C565 C564 1.373 . S
C565 C566 1.429 . S
C565 H592 0.932 . S
C566 C563 1.358 . S
C566 C565 1.429 . S
C566 H593 0.930 . S
C567 C563 1.332 . S
C567 C568 1.394 . S
C567 H594 0.932 . S
C568 C564 1.308 . S
C568 C567 1.394 . S
C568 H595 0.929 . S
C569 Tb560 2.764 . S
C569 C563 1.504 . S
C569 O581 1.239 . S
C569 O582 1.263 . S
O570 Tb560 2.325 . S
O570 C580 1.236 . S
O571 Tb561 2.322 . S
O571 C580 1.257 . S
O572 Tb561 2.349 . S
O572 C583 1.261 . S
O573 Tb560 2.303 . S
O573 C583 1.257 . S
O574 Tb561 2.415 . S
O574 C590 1.239 . S
O575 Tb561 2.399 . S
O575 C590 1.263 . S
O576 Tb561 2.325 . S
O576 C591 1.236 . S
O577 Tb560 2.322 . S
O577 C591 1.257 . S
O578 Tb560 2.349 . S
O578 C562 1.261 . S
O579 Tb561 2.303 . S
O579 C562 1.257 . S
C580 O570 1.236 . S
C580 O571 1.257 . S
O581 Tb560 2.415 . S
O581 C569 1.239 . S
O582 Tb560 2.399 . S
O582 C569 1.263 . S
C583 O572 1.261 . S
C583 O573 1.257 . S
C584 C587 1.358 . S
C584 C588 1.332 . S
C584 C590 1.504 . S
C585 C586 1.373 . S
C585 C589 1.308 . S
C586 C585 1.373 . S
C586 C587 1.429 . S
C586 H596 0.932 . S
C587 C584 1.358 . S
C587 C586 1.429 . S
C587 H597 0.930 . S
C588 C584 1.332 . S
C588 C589 1.394 . S
C588 H598 0.932 . S
C589 C585 1.308 . S
C589 C588 1.394 . S
C589 H599 0.929 . S
C590 Tb561 2.764 . S
C590 O574 1.239 . S
C590 O575 1.263 . S
C590 C584 1.504 . S
C591 O576 1.236 . S
C591 O577 1.257 . S
H592 C565 0.932 . S
H593 C566 0.930 . S
H594 C567 0.932 . S
H595 C568 0.929 . S
H596 C586 0.932 . S
H597 C587 0.930 . S
H598 C588 0.932 . S
H599 C589 0.929 . S
Tb600 C609 2.764 . S
Tb600 O610 2.325 . S
Tb600 O613 2.303 1_556 S
Tb600 O617 2.334 1_655 S
Tb600 O618 2.349 1_655 S
Tb600 O621 2.415 . S
Tb600 O622 2.399 . S
Tb601 O611 2.338 1_455 S
Tb601 O612 2.349 1_455 S
Tb601 O614 2.415 . S
Tb601 O615 2.399 . S
Tb601 O616 2.325 . S
Tb601 O619 2.303 1_554 S
Tb601 C630 2.764 . S
C602 O618 1.261 . S
C602 O619 1.257 . S
C603 C606 1.358 . S
C603 C607 1.332 . S
C603 C609 1.504 . S
C604 C605 1.373 . S
C604 C608 1.308 . S
C605 C604 1.373 . S
C605 C606 1.429 . S
C605 H632 0.932 . S
C606 C603 1.358 . S
C606 C605 1.429 . S
C606 H633 0.930 . S
C607 C603 1.332 . S
C607 C608 1.394 . S
C607 H634 0.932 . S
C608 C604 1.308 . S
C608 C607 1.394 . S
C608 H635 0.929 . S
C609 Tb600 2.764 . S
C609 C603 1.504 . S
C609 O621 1.239 . S
C609 O622 1.263 . S
O610 Tb600 2.325 . S
O610 C620 1.236 . S
O611 Tb601 2.338 1_655 S
O611 C620 1.233 1_554 S
O612 Tb601 2.349 1_655 S
O612 C623 1.261 . S
O613 Tb600 2.303 1_554 S
O613 C623 1.257 . S
O614 Tb601 2.415 . S
O614 C630 1.239 . S
O615 Tb601 2.399 . S
O615 C630 1.263 . S
O616 Tb601 2.325 . S
O616 C631 1.236 . S
O617 Tb600 2.334 1_455 S
O617 C631 1.239 1_556 S
O618 Tb600 2.349 1_455 S
O618 C602 1.261 . S
O619 Tb601 2.303 1_556 S
O619 C602 1.257 . S
C620 O610 1.236 . S
C620 O611 1.233 1_556 S
O621 Tb600 2.415 . S
O621 C609 1.239 . S
O622 Tb600 2.399 . S
O622 C609 1.263 . S
C623 O612 1.261 . S
C623 O613 1.257 . S
C624 C627 1.358 . S
C624 C628 1.332 . S
C624 C630 1.504 . S
C625 C626 1.373 . S
C625 C629 1.308 . S
C626 C625 1.373 . S
C626 C627 1.429 . S
C626 H636 0.932 . S
C627 C624 1.358 . S
C627 C626 1.429 . S
C627 H637 0.930 . S
C628 C624 1.332 . S
C628 C629 1.394 . S
C628 H638 0.932 . S
C629 C625 1.308 . S
C629 C628 1.394 . S
C629 H639 0.929 . S
C630 Tb601 2.764 . S
C630 O614 1.239 . S
C630 O615 1.263 . S
C630 C624 1.504 . S
C631 O616 1.236 . S
C631 O617 1.239 1_554 S
H632 C605 0.932 . S
H633 C606 0.930 . S
H634 C607 0.932 . S
H635 C608 0.929 . S
H636 C626 0.932 . S
H637 C627 0.930 . S
H638 C628 0.932 . S
H639 C629 0.929 . S
C640 C641 1.391 . S
C640 C642 1.394 . S
C640 H656 0.931 . S
C641 C640 1.391 . S
C641 C645 1.376 . S
C642 C640 1.394 . S
C642 C643 1.369 . S
C642 C646 1.531 . S
C643 C642 1.369 . S
C643 C644 1.410 . S
C643 C651 1.503 . S
C644 C643 1.410 . S
C644 C645 1.392 . S
C644 C647 1.511 . S
C645 C641 1.376 . S
C645 C644 1.392 . S
C645 H657 0.929 . S
C646 C642 1.531 . S
C646 H658 0.960 . S
C646 H659 0.962 . S
C646 H660 0.960 . S
C647 C644 1.511 . S
C647 H661 0.961 . S
C647 H662 0.961 . S
C647 H663 0.961 . S
C648 C649 1.370 . S
C648 C650 1.363 . S
C648 H664 0.931 . S
C649 C648 1.370 . S
C649 C653 1.408 . S
C650 C648 1.363 . S
C650 C651 1.370 . S
C650 C654 1.524 . S
C651 C643 1.503 . S
C651 C650 1.370 . S
C651 C652 1.403 . S
C652 C651 1.403 . S
C652 C653 1.404 . S
C652 C655 1.539 . S
C653 C649 1.408 . S
C653 C652 1.404 . S
C653 H665 0.930 . S
C654 C650 1.524 . S
C654 H666 0.956 . S
C654 H667 0.961 . S
C654 H668 0.961 . S
C655 C652 1.539 . S
C655 H669 0.958 . S
C655 H670 0.961 . S
C655 H671 0.960 . S
H656 C640 0.931 . S
H657 C645 0.929 . S
H658 C646 0.960 . S
H659 C646 0.962 . S
H660 C646 0.960 . S
H661 C647 0.961 . S
H662 C647 0.961 . S
H663 C647 0.961 . S
H664 C648 0.931 . S
H665 C653 0.930 . S
H666 C654 0.956 . S
H667 C654 0.961 . S
H668 C654 0.961 . S
H669 C655 0.958 . S
H670 C655 0.961 . S
H671 C655 0.960 . S
C672 C673 1.391 . S
C672 C674 1.394 . S
C672 H688 0.931 . S
C673 C672 1.391 . S
C673 C677 1.376 . S
C674 C672 1.394 . S
C674 C675 1.369 . S
C674 C678 1.531 . S
C675 C674 1.369 . S
C675 C676 1.410 . S
C675 C683 1.503 . S
C676 C675 1.410 . S
C676 C677 1.392 . S
C676 C679 1.511 . S
C677 C673 1.376 . S
C677 C676 1.392 . S
C677 H689 0.929 . S
C678 C674 1.531 . S
C678 H690 0.960 . S
C678 H691 0.962 . S
C678 H692 0.960 . S
C679 C676 1.511 . S
C679 H693 0.961 . S
C679 H694 0.961 . S
C679 H695 0.961 . S
C680 C681 1.370 . S
C680 C682 1.363 . S
C680 H696 0.931 . S
C681 C680 1.370 . S
C681 C685 1.408 . S
C682 C680 1.363 . S
C682 C683 1.370 . S
C682 C686 1.524 . S
C683 C675 1.503 . S
C683 C682 1.370 . S
C683 C684 1.403 . S
C684 C683 1.403 . S
C684 C685 1.404 . S
C684 C687 1.539 . S
C685 C681 1.408 . S
C685 C684 1.404 . S
C685 H697 0.930 . S
C686 C682 1.524 . S
C686 H698 0.956 . S
C686 H699 0.961 . S
C686 H700 0.961 . S
C687 C684 1.539 . S
C687 H701 0.958 . S
C687 H702 0.961 . S
C687 H703 0.960 . S
H688 C672 0.931 . S
H689 C677 0.929 . S
H690 C678 0.960 . S
H691 C678 0.962 . S
H692 C678 0.960 . S
H693 C679 0.961 . S
H694 C679 0.961 . S
H695 C679 0.961 . S
H696 C680 0.931 . S
H697 C685 0.930 . S
H698 C686 0.956 . S
H699 C686 0.961 . S
H700 C686 0.961 . S
H701 C687 0.958 . S
H702 C687 0.961 . S
H703 C687 0.960 . S
C704 C705 1.391 . S
C704 C706 1.394 . S
C704 H720 0.931 . S
C705 C704 1.391 . S
C705 C709 1.376 . S
C706 C704 1.394 . S
C706 C707 1.369 . S
C706 C710 1.531 . S
C707 C706 1.369 . S
C707 C708 1.410 . S
C707 C715 1.503 . S
C708 C707 1.410 . S
C708 C709 1.392 . S
C708 C711 1.511 . S
C709 C705 1.376 . S
C709 C708 1.392 . S
C709 H721 0.929 . S
C710 C706 1.531 . S
C710 H722 0.960 . S
C710 H723 0.962 . S
C710 H724 0.960 . S
C711 C708 1.511 . S
C711 H725 0.961 . S
C711 H726 0.961 . S
C711 H727 0.961 . S
C712 C713 1.370 . S
C712 C714 1.363 . S
C712 H728 0.931 . S
C713 C712 1.370 . S
C713 C717 1.408 . S
C714 C712 1.363 . S
C714 C715 1.370 . S
C714 C718 1.524 . S
C715 C707 1.503 . S
C715 C714 1.370 . S
C715 C716 1.403 . S
C716 C715 1.403 . S
C716 C717 1.404 . S
C716 C719 1.539 . S
C717 C713 1.408 . S
C717 C716 1.404 . S
C717 H729 0.930 . S
C718 C714 1.524 . S
C718 H730 0.956 . S
C718 H731 0.961 . S
C718 H732 0.961 . S
C719 C716 1.539 . S
C719 H733 0.958 . S
C719 H734 0.961 . S
C719 H735 0.960 . S
H720 C704 0.931 . S
H721 C709 0.929 . S
H722 C710 0.960 . S
H723 C710 0.962 . S
H724 C710 0.960 . S
H725 C711 0.961 . S
H726 C711 0.961 . S
H727 C711 0.961 . S
H728 C712 0.931 . S
H729 C717 0.930 . S
H730 C718 0.956 . S
H731 C718 0.961 . S
H732 C718 0.961 . S
H733 C719 0.958 . S
H734 C719 0.961 . S
H735 C719 0.960 . S
C736 C737 1.391 . S
C736 C738 1.394 . S
C736 H752 0.931 . S
C737 C736 1.391 . S
C737 C741 1.376 . S
C738 C736 1.394 . S
C738 C739 1.369 . S
C738 C742 1.531 . S
C739 C738 1.369 . S
C739 C740 1.410 . S
C739 C747 1.503 . S
C740 C739 1.410 . S
C740 C741 1.392 . S
C740 C743 1.511 . S
C741 C737 1.376 . S
C741 C740 1.392 . S
C741 H753 0.929 . S
C742 C738 1.531 . S
C742 H754 0.960 . S
C742 H755 0.962 . S
C742 H756 0.960 . S
C743 C740 1.511 . S
C743 H757 0.961 . S
C743 H758 0.961 . S
C743 H759 0.961 . S
C744 C745 1.370 . S
C744 C746 1.363 . S
C744 H760 0.931 . S
C745 C744 1.370 . S
C745 C749 1.408 . S
C746 C744 1.363 . S
C746 C747 1.370 . S
C746 C750 1.524 . S
C747 C739 1.503 . S
C747 C746 1.370 . S
C747 C748 1.403 . S
C748 C747 1.403 . S
C748 C749 1.404 . S
C748 C751 1.539 . S
C749 C745 1.408 . S
C749 C748 1.404 . S
C749 H761 0.930 . S
C750 C746 1.524 . S
C750 H762 0.956 . S
C750 H763 0.961 . S
C750 H764 0.961 . S
C751 C748 1.539 . S
C751 H765 0.958 . S
C751 H766 0.961 . S
C751 H767 0.960 . S
H752 C736 0.931 . S
H753 C741 0.929 . S
H754 C742 0.960 . S
H755 C742 0.962 . S
H756 C742 0.960 . S
H757 C743 0.961 . S
H758 C743 0.961 . S
H759 C743 0.961 . S
H760 C744 0.931 . S
H761 C749 0.930 . S
H762 C750 0.956 . S
H763 C750 0.961 . S
H764 C750 0.961 . S
H765 C751 0.958 . S
H766 C751 0.961 . S
H767 C751 0.960 . S
C768 C769 1.391 . S
C768 C770 1.394 . S
C768 H784 0.931 . S
C769 C768 1.391 . S
C769 C773 1.376 . S
C770 C768 1.394 . S
C770 C771 1.369 . S
C770 C774 1.531 . S
C771 C770 1.369 . S
C771 C772 1.410 . S
C771 C779 1.503 . S
C772 C771 1.410 . S
C772 C773 1.392 . S
C772 C775 1.511 . S
C773 C769 1.376 . S
C773 C772 1.392 . S
C773 H785 0.929 . S
C774 C770 1.531 . S
C774 H786 0.960 . S
C774 H787 0.962 . S
C774 H788 0.960 . S
C775 C772 1.511 . S
C775 H789 0.961 . S
C775 H790 0.961 . S
C775 H791 0.961 . S
C776 C777 1.370 . S
C776 C778 1.363 . S
C776 H792 0.931 . S
C777 C776 1.370 . S
C777 C781 1.408 . S
C778 C776 1.363 . S
C778 C779 1.370 . S
C778 C782 1.524 . S
C779 C771 1.503 . S
C779 C778 1.370 . S
C779 C780 1.403 . S
C780 C779 1.403 . S
C780 C781 1.404 . S
C780 C783 1.539 . S
C781 C777 1.408 . S
C781 C780 1.404 . S
C781 H793 0.930 . S
C782 C778 1.524 . S
C782 H794 0.956 . S
C782 H795 0.961 . S
C782 H796 0.961 . S
C783 C780 1.539 . S
C783 H797 0.958 . S
C783 H798 0.961 . S
C783 H799 0.960 . S
H784 C768 0.931 . S
H785 C773 0.929 . S
H786 C774 0.960 . S
H787 C774 0.962 . S
H788 C774 0.960 . S
H789 C775 0.961 . S
H790 C775 0.961 . S
H791 C775 0.961 . S
H792 C776 0.931 . S
H793 C781 0.930 . S
H794 C782 0.956 . S
H795 C782 0.961 . S
H796 C782 0.961 . S
H797 C783 0.958 . S
H798 C783 0.961 . S
H799 C783 0.960 . S
C800 C801 1.391 . S
C800 C802 1.394 . S
C800 H816 0.931 . S
C801 C800 1.391 . S
C801 C805 1.376 . S
C802 C800 1.394 . S
C802 C803 1.369 . S
C802 C806 1.531 . S
C803 C802 1.369 . S
C803 C804 1.410 . S
C803 C811 1.503 . S
C804 C803 1.410 . S
C804 C805 1.392 . S
C804 C807 1.511 . S
C805 C801 1.376 . S
C805 C804 1.392 . S
C805 H817 0.929 . S
C806 C802 1.531 . S
C806 H818 0.960 . S
C806 H819 0.976 . S
C806 H820 0.960 . S
C807 C804 1.511 . S
C807 H821 0.961 . S
C807 H822 0.961 . S
C807 H823 0.961 . S
C808 C809 1.370 . S
C808 C810 1.363 . S
C808 H824 0.931 . S
C809 C808 1.370 . S
C809 C813 1.408 . S
C810 C808 1.363 . S
C810 C811 1.370 . S
C810 C814 1.524 . S
C811 C803 1.503 . S
C811 C810 1.370 . S
C811 C812 1.403 . S
C812 C811 1.403 . S
C812 C813 1.404 . S
C812 C815 1.539 . S
C813 C809 1.408 . S
C813 C812 1.404 . S
C813 H825 0.930 . S
C814 C810 1.524 . S
C814 H826 0.956 . S
C814 H827 0.961 . S
C814 H828 0.961 . S
C815 C812 1.539 . S
C815 H829 0.958 . S
C815 H830 0.961 . S
C815 H831 0.960 . S
H816 C800 0.931 . S
H817 C805 0.929 . S
H818 C806 0.960 . S
H819 C806 0.976 . S
H820 C806 0.960 . S
H821 C807 0.961 . S
H822 C807 0.961 . S
H823 C807 0.961 . S
H824 C808 0.931 . S
H825 C813 0.930 . S
H826 C814 0.956 . S
H827 C814 0.961 . S
H828 C814 0.961 . S
H829 C815 0.958 . S
H830 C815 0.961 . S
H831 C815 0.960 . S
C832 C833 1.391 . S
C832 C834 1.394 . S
C832 H848 0.931 . S
C833 C832 1.391 . S
C833 C837 1.376 . S
C834 C832 1.394 . S
C834 C835 1.369 . S
C834 C838 1.531 . S
C835 C834 1.369 . S
C835 C836 1.410 . S
C835 C843 1.503 . S
C836 C835 1.410 . S
C836 C837 1.392 . S
C836 C839 1.511 . S
C837 C833 1.376 . S
C837 C836 1.392 . S
C837 H849 0.929 . S
C838 C834 1.531 . S
C838 H850 0.960 . S
C838 H851 0.962 . S
C838 H852 0.960 . S
C839 C836 1.511 . S
C839 H853 0.961 . S
C839 H854 0.961 . S
C839 H855 0.961 . S
C840 C841 1.370 . S
C840 C842 1.363 . S
C840 H856 0.931 . S
C841 C840 1.370 . S
C841 C845 1.408 . S
C842 C840 1.363 . S
C842 C843 1.370 . S
C842 C846 1.524 . S
C843 C835 1.503 . S
C843 C842 1.370 . S
C843 C844 1.403 . S
C844 C843 1.403 . S
C844 C845 1.404 . S
C844 C847 1.539 . S
C845 C841 1.408 . S
C845 C844 1.404 . S
C845 H857 0.930 . S
C846 C842 1.524 . S
C846 H858 0.956 . S
C846 H859 0.961 . S
C846 H860 0.961 . S
C847 C844 1.539 . S
C847 H861 0.958 . S
C847 H862 0.961 . S
C847 H863 0.960 . S
H848 C832 0.931 . S
H849 C837 0.929 . S
H850 C838 0.960 . S
H851 C838 0.962 . S
H852 C838 0.960 . S
H853 C839 0.961 . S
H854 C839 0.961 . S
H855 C839 0.961 . S
H856 C840 0.931 . S
H857 C845 0.930 . S
H858 C846 0.956 . S
H859 C846 0.961 . S
H860 C846 0.961 . S
H861 C847 0.958 . S
H862 C847 0.961 . S
H863 C847 0.960 . S
C864 C865 1.391 . S
C864 C866 1.394 . S
C864 H880 0.931 . S
C865 C864 1.391 . S
C865 C869 1.376 . S
C866 C864 1.394 . S
C866 C867 1.369 . S
C866 C870 1.531 . S
C867 C866 1.369 . S
C867 C868 1.410 . S
C867 C875 1.503 . S
C868 C867 1.410 . S
C868 C869 1.392 . S
C868 C871 1.511 . S
C869 C865 1.376 . S
C869 C868 1.392 . S
C869 H881 0.929 . S
C870 C866 1.531 . S
C870 H882 0.960 . S
C870 H883 0.962 . S
C870 H884 0.960 . S
C871 C868 1.511 . S
C871 H885 0.961 . S
C871 H886 0.961 . S
C871 H887 0.961 . S
C872 C873 1.370 . S
C872 C874 1.363 . S
C872 H888 0.931 . S
C873 C872 1.370 . S
C873 C877 1.408 . S
C874 C872 1.363 . S
C874 C875 1.370 . S
C874 C878 1.524 . S
C875 C867 1.503 . S
C875 C874 1.370 . S
C875 C876 1.403 . S
C876 C875 1.403 . S
C876 C877 1.404 . S
C876 C879 1.539 . S
C877 C873 1.408 . S
C877 C876 1.404 . S
C877 H889 0.930 . S
C878 C874 1.524 . S
C878 H890 0.956 . S
C878 H891 0.961 . S
C878 H892 0.961 . S
C879 C876 1.539 . S
C879 H893 0.958 . S
C879 H894 0.961 . S
C879 H895 0.960 . S
H880 C864 0.931 . S
H881 C869 0.929 . S
H882 C870 0.960 . S
H883 C870 0.962 . S
H884 C870 0.960 . S
H885 C871 0.961 . S
H886 C871 0.961 . S
H887 C871 0.961 . S
H888 C872 0.931 . S
H889 C877 0.930 . S
H890 C878 0.956 . S
H891 C878 0.961 . S
H892 C878 0.961 . S
H893 C879 0.958 . S
H894 C879 0.961 . S
H895 C879 0.960 . S
C896 C897 1.391 . S
C896 C898 1.394 . S
C896 H912 0.931 . S
C897 C896 1.391 . S
C897 C901 1.376 . S
C898 C896 1.394 . S
C898 C899 1.369 . S
C898 C902 1.531 . S
C899 C898 1.369 . S
C899 C900 1.410 . S
C899 C907 1.503 . S
C900 C899 1.410 . S
C900 C901 1.392 . S
C900 C903 1.511 . S
C901 C897 1.376 . S
C901 C900 1.392 . S
C901 H913 0.929 . S
C902 C898 1.531 . S
C902 H914 0.960 . S
C902 H915 0.962 . S
C902 H916 0.960 . S
C903 C900 1.511 . S
C903 H917 0.961 . S
C903 H918 0.961 . S
C903 H919 0.961 . S
C904 C905 1.370 . S
C904 C906 1.363 . S
C904 H920 0.931 . S
C905 C904 1.370 . S
C905 C909 1.408 . S
C906 C904 1.363 . S
C906 C907 1.370 . S
C906 C910 1.524 . S
C907 C899 1.503 . S
C907 C906 1.370 . S
C907 C908 1.403 . S
C908 C907 1.403 . S
C908 C909 1.404 . S
C908 C911 1.539 . S
C909 C905 1.408 . S
C909 C908 1.404 . S
C909 H921 0.930 . S
C910 C906 1.524 . S
C910 H922 0.956 . S
C910 H923 0.961 . S
C910 H924 0.961 . S
C911 C908 1.539 . S
C911 H925 0.958 . S
C911 H926 0.961 . S
C911 H927 0.960 . S
H912 C896 0.931 . S
H913 C901 0.929 . S
H914 C902 0.960 . S
H915 C902 0.962 . S
H916 C902 0.960 . S
H917 C903 0.961 . S
H918 C903 0.961 . S
H919 C903 0.961 . S
H920 C904 0.931 . S
H921 C909 0.930 . S
H922 C910 0.956 . S
H923 C910 0.961 . S
H924 C910 0.961 . S
H925 C911 0.958 . S
H926 C911 0.961 . S
H927 C911 0.960 . S
C928 C929 1.391 . S
C928 C930 1.394 . S
C928 H944 0.931 . S
C929 C928 1.391 . S
C929 C933 1.376 . S
C930 C928 1.394 . S
C930 C931 1.369 . S
C930 C934 1.531 . S
C931 C930 1.369 . S
C931 C932 1.410 . S
C931 C939 1.503 . S
C932 C931 1.410 . S
C932 C933 1.392 . S
C932 C935 1.511 . S
C933 C929 1.376 . S
C933 C932 1.392 . S
C933 H945 0.929 . S
C934 C930 1.531 . S
C934 H946 0.960 . S
C934 H947 0.962 . S
C934 H948 0.960 . S
C935 C932 1.511 . S
C935 H949 0.961 . S
C935 H950 0.961 . S
C935 H951 0.961 . S
C936 C937 1.370 . S
C936 C938 1.363 . S
C936 H952 0.931 . S
C937 C936 1.370 . S
C937 C941 1.408 . S
C938 C936 1.363 . S
C938 C939 1.370 . S
C938 C942 1.524 . S
C939 C931 1.503 . S
C939 C938 1.370 . S
C939 C940 1.403 . S
C940 C939 1.403 . S
C940 C941 1.404 . S
C940 C943 1.539 . S
C941 C937 1.408 . S
C941 C940 1.404 . S
C941 H953 0.930 . S
C942 C938 1.524 . S
C942 H954 0.956 . S
C942 H955 0.961 . S
C942 H956 0.961 . S
C943 C940 1.539 . S
C943 H957 0.958 . S
C943 H958 0.961 . S
C943 H959 0.960 . S
H944 C928 0.931 . S
H945 C933 0.929 . S
H946 C934 0.960 . S
H947 C934 0.962 . S
H948 C934 0.960 . S
H949 C935 0.961 . S
H950 C935 0.961 . S
H951 C935 0.961 . S
H952 C936 0.931 . S
H953 C941 0.930 . S
H954 C942 0.956 . S
H955 C942 0.961 . S
H956 C942 0.961 . S
H957 C943 0.958 . S
H958 C943 0.961 . S
H959 C943 0.960 . S
C960 C961 1.391 . S
C960 C962 1.394 . S
C960 H976 0.931 . S
C961 C960 1.391 . S
C961 C965 1.376 . S
C962 C960 1.394 . S
C962 C963 1.369 . S
C962 C966 1.531 . S
C963 C962 1.369 . S
C963 C964 1.410 . S
C963 C971 1.503 . S
C964 C963 1.410 . S
C964 C965 1.392 . S
C964 C967 1.511 . S
C965 C961 1.376 . S
C965 C964 1.392 . S
C965 H977 0.929 . S
C966 C962 1.531 . S
C966 H978 0.960 . S
C966 H979 0.962 . S
C966 H980 0.960 . S
C967 C964 1.511 . S
C967 H981 0.961 . S
C967 H982 0.961 . S
C967 H983 0.990 . S
C968 C969 1.370 . S
C968 C970 1.363 . S
C968 H984 0.931 . S
C969 C968 1.370 . S
C969 C973 1.408 . S
C970 C968 1.363 . S
C970 C971 1.370 . S
C970 C974 1.524 . S
C971 C963 1.503 . S
C971 C970 1.370 . S
C971 C972 1.403 . S
C972 C971 1.403 . S
C972 C973 1.404 . S
C972 C975 1.539 . S
C973 C969 1.408 . S
C973 C972 1.404 . S
C973 H985 0.930 . S
C974 C970 1.524 . S
C974 H986 0.956 . S
C974 H987 0.961 . S
C974 H988 0.961 . S
C975 C972 1.539 . S
C975 H989 0.958 . S
C975 H990 0.961 . S
C975 H991 0.960 . S
H976 C960 0.931 . S
H977 C965 0.929 . S
H978 C966 0.960 . S
H979 C966 0.962 . S
H980 C966 0.960 . S
H981 C967 0.961 . S
H982 C967 0.961 . S
H983 C967 0.990 . S
H984 C968 0.931 . S
H985 C973 0.930 . S
H986 C974 0.956 . S
H987 C974 0.961 . S
H988 C974 0.961 . S
H989 C975 0.958 . S
H990 C975 0.961 . S
H991 C975 0.960 . S
C992 C993 1.391 . S
C992 C994 1.394 . S
C992 H1008 0.931 . S
C993 C992 1.391 . S
C993 C997 1.376 . S
C994 C992 1.394 . S
C994 C995 1.369 . S
C994 C998 1.531 . S
C995 C994 1.369 . S
C995 C996 1.410 . S
C995 C1003 1.503 . S
C996 C995 1.410 . S
C996 C997 1.392 . S
C996 C999 1.511 . S
C997 C993 1.376 . S
C997 C996 1.392 . S
C997 H1009 0.929 . S
C998 C994 1.531 . S
C998 H1010 0.960 . S
C998 H1011 0.962 . S
C998 H1012 0.960 . S
C999 C996 1.511 . S
C999 H1013 0.961 . S
C999 H1014 0.961 . S
C999 H1015 0.961 . S
C1000 C1001 1.370 . S
C1000 C1002 1.363 . S
C1000 H1016 0.931 . S
C1001 C1000 1.370 . S
C1001 C1005 1.408 . S
C1002 C1000 1.363 . S
C1002 C1003 1.370 . S
C1002 C1006 1.524 . S
C1003 C995 1.503 . S
C1003 C1002 1.370 . S
C1003 C1004 1.403 . S
C1004 C1003 1.403 . S
C1004 C1005 1.404 . S
C1004 C1007 1.539 . S
C1005 C1001 1.408 . S
C1005 C1004 1.404 . S
C1005 H1017 0.930 . S
C1006 C1002 1.524 . S
C1006 H1018 0.956 . S
C1006 H1019 0.961 . S
C1006 H1020 0.961 . S
C1007 C1004 1.539 . S
C1007 H1021 0.958 . S
C1007 H1022 0.961 . S
C1007 H1023 0.960 . S
H1008 C992 0.931 . S
H1009 C997 0.929 . S
H1010 C998 0.960 . S
H1011 C998 0.962 . S
H1012 C998 0.960 . S
H1013 C999 0.961 . S
H1014 C999 0.961 . S
H1015 C999 0.961 . S
H1016 C1000 0.931 . S
H1017 C1005 0.930 . S
H1018 C1006 0.956 . S
H1019 C1006 0.961 . S
H1020 C1006 0.961 . S
H1021 C1007 0.958 . S
H1022 C1007 0.961 . S
H1023 C1007 0.960 . S
C1024 C1025 1.391 . S
C1024 C1026 1.394 . S
C1024 H1040 0.931 . S
C1025 C1024 1.391 . S
C1025 C1029 1.376 . S
C1026 C1024 1.394 . S
C1026 C1027 1.369 . S
C1026 C1030 1.531 . S
C1027 C1026 1.369 . S
C1027 C1028 1.410 . S
C1027 C1035 1.503 . S
C1028 C1027 1.410 . S
C1028 C1029 1.392 . S
C1028 C1031 1.511 . S
C1029 C1025 1.376 . S
C1029 C1028 1.392 . S
C1029 H1041 0.929 . S
C1030 C1026 1.531 . S
C1030 H1042 0.960 . S
C1030 H1043 0.962 . S
C1030 H1044 0.960 . S
C1031 C1028 1.511 . S
C1031 H1045 0.961 . S
C1031 H1046 0.961 . S
C1031 H1047 0.961 . S
C1032 C1033 1.370 . S
C1032 C1034 1.363 . S
C1032 H1048 0.931 . S
C1033 C1032 1.370 . S
C1033 C1037 1.408 . S
C1034 C1032 1.363 . S
C1034 C1035 1.370 . S
C1034 C1038 1.524 . S
C1035 C1027 1.503 . S
C1035 C1034 1.370 . S
C1035 C1036 1.403 . S
C1036 C1035 1.403 . S
C1036 C1037 1.404 . S
C1036 C1039 1.539 . S
C1037 C1033 1.408 . S
C1037 C1036 1.404 . S
C1037 H1049 0.930 . S
C1038 C1034 1.524 . S
C1038 H1050 0.956 . S
C1038 H1051 0.961 . S
C1038 H1052 0.961 . S
C1039 C1036 1.539 . S
C1039 H1053 0.958 . S
C1039 H1054 0.961 . S
C1039 H1055 0.960 . S
H1040 C1024 0.931 . S
H1041 C1029 0.929 . S
H1042 C1030 0.960 . S
H1043 C1030 0.962 . S
H1044 C1030 0.960 . S
H1045 C1031 0.961 . S
H1046 C1031 0.961 . S
H1047 C1031 0.961 . S
H1048 C1032 0.931 . S
H1049 C1037 0.930 . S
H1050 C1038 0.956 . S
H1051 C1038 0.961 . S
H1052 C1038 0.961 . S
H1053 C1039 0.958 . S
H1054 C1039 0.961 . S
H1055 C1039 0.960 . S
C1056 C1057 1.391 . S
C1056 C1058 1.394 . S
C1056 H1072 0.931 . S
C1057 C1056 1.391 . S
C1057 C1061 1.376 . S
C1058 C1056 1.394 . S
C1058 C1059 1.369 . S
C1058 C1062 1.531 . S
C1059 C1058 1.369 . S
C1059 C1060 1.410 . S
C1059 C1067 1.503 . S
C1060 C1059 1.410 . S
C1060 C1061 1.392 . S
C1060 C1063 1.511 . S
C1061 C1057 1.376 . S
C1061 C1060 1.392 . S
C1061 H1073 0.929 . S
C1062 C1058 1.531 . S
C1062 H1074 0.960 . S
C1062 H1075 0.962 . S
C1062 H1076 0.960 . S
C1063 C1060 1.511 . S
C1063 H1077 0.961 . S
C1063 H1078 0.961 . S
C1063 H1079 0.961 . S
C1064 C1065 1.370 . S
C1064 C1066 1.363 . S
C1064 H1080 0.931 . S
C1065 C1064 1.370 . S
C1065 C1069 1.408 . S
C1066 C1064 1.363 . S
C1066 C1067 1.370 . S
C1066 C1070 1.524 . S
C1067 C1059 1.503 . S
C1067 C1066 1.370 . S
C1067 C1068 1.403 . S
C1068 C1067 1.403 . S
C1068 C1069 1.404 . S
C1068 C1071 1.539 . S
C1069 C1065 1.408 . S
C1069 C1068 1.404 . S
C1069 H1081 0.930 . S
C1070 C1066 1.524 . S
C1070 H1082 0.956 . S
C1070 H1083 0.961 . S
C1070 H1084 0.961 . S
C1071 C1068 1.539 . S
C1071 H1085 0.958 . S
C1071 H1086 0.961 . S
C1071 H1087 0.960 . S
H1072 C1056 0.931 . S
H1073 C1061 0.929 . S
H1074 C1062 0.960 . S
H1075 C1062 0.962 . S
H1076 C1062 0.960 . S
H1077 C1063 0.961 . S
H1078 C1063 0.961 . S
H1079 C1063 0.961 . S
H1080 C1064 0.931 . S
H1081 C1069 0.930 . S
H1082 C1070 0.956 . S
H1083 C1070 0.961 . S
H1084 C1070 0.961 . S
H1085 C1071 0.958 . S
H1086 C1071 0.961 . S
H1087 C1071 0.960 . S
C1088 C1089 1.391 . S
C1088 C1090 1.394 . S
C1088 H1104 0.931 . S
C1089 C1088 1.391 . S
C1089 C1093 1.376 . S
C1090 C1088 1.394 . S
C1090 C1091 1.369 . S
C1090 C1094 1.531 . S
C1091 C1090 1.369 . S
C1091 C1092 1.410 . S
C1091 C1099 1.503 . S
C1092 C1091 1.410 . S
C1092 C1093 1.392 . S
C1092 C1095 1.511 . S
C1093 C1089 1.376 . S
C1093 C1092 1.392 . S
C1093 H1105 0.929 . S
C1094 C1090 1.531 . S
C1094 H1106 0.960 . S
C1094 H1107 0.962 . S
C1094 H1108 0.960 . S
C1095 C1092 1.511 . S
C1095 H1109 0.961 . S
C1095 H1110 0.961 . S
C1095 H1111 0.961 . S
C1096 C1097 1.370 . S
C1096 C1098 1.363 . S
C1096 H1112 0.931 . S
C1097 C1096 1.370 . S
C1097 C1101 1.408 . S
C1098 C1096 1.363 . S
C1098 C1099 1.370 . S
C1098 C1102 1.524 . S
C1099 C1091 1.503 . S
C1099 C1098 1.370 . S
C1099 C1100 1.403 . S
C1100 C1099 1.403 . S
C1100 C1101 1.404 . S
C1100 C1103 1.539 . S
C1101 C1097 1.408 . S
C1101 C1100 1.404 . S
C1101 H1113 0.930 . S
C1102 C1098 1.524 . S
C1102 H1114 0.956 . S
C1102 H1115 0.961 . S
C1102 H1116 0.961 . S
C1103 C1100 1.539 . S
C1103 H1117 0.958 . S
C1103 H1118 0.961 . S
C1103 H1119 0.960 . S
H1104 C1088 0.931 . S
H1105 C1093 0.929 . S
H1106 C1094 0.960 . S
H1107 C1094 0.962 . S
H1108 C1094 0.960 . S
H1109 C1095 0.961 . S
H1110 C1095 0.961 . S
H1111 C1095 0.961 . S
H1112 C1096 0.931 . S
H1113 C1101 0.930 . S
H1114 C1102 0.956 . S
H1115 C1102 0.961 . S
H1116 C1102 0.961 . S
H1117 C1103 0.958 . S
H1118 C1103 0.961 . S
H1119 C1103 0.960 . S
C1120 C1121 1.391 . S
C1120 C1122 1.394 . S
C1120 H1136 0.931 . S
C1121 C1120 1.391 . S
C1121 C1125 1.376 . S
C1122 C1120 1.394 . S
C1122 C1123 1.369 . S
C1122 C1126 1.531 . S
C1123 C1122 1.369 . S
C1123 C1124 1.410 . S
C1123 C1131 1.503 . S
C1124 C1123 1.410 . S
C1124 C1125 1.392 . S
C1124 C1127 1.511 . S
C1125 C1121 1.376 . S
C1125 C1124 1.392 . S
C1125 H1137 0.929 . S
C1126 C1122 1.531 . S
C1126 H1138 0.960 . S
C1126 H1139 0.962 . S
C1126 H1140 0.960 . S
C1127 C1124 1.511 . S
C1127 H1141 0.961 . S
C1127 H1142 0.961 . S
C1127 H1143 0.961 . S
C1128 C1129 1.370 . S
C1128 C1130 1.363 . S
C1128 H1144 0.931 . S
C1129 C1128 1.370 . S
C1129 C1133 1.408 . S
C1130 C1128 1.363 . S
C1130 C1131 1.370 . S
C1130 C1134 1.524 . S
C1131 C1123 1.503 . S
C1131 C1130 1.370 . S
C1131 C1132 1.403 . S
C1132 C1131 1.403 . S
C1132 C1133 1.404 . S
C1132 C1135 1.539 . S
C1133 C1129 1.408 . S
C1133 C1132 1.404 . S
C1133 H1145 0.930 . S
C1134 C1130 1.524 . S
C1134 H1146 0.956 . S
C1134 H1147 0.961 . S
C1134 H1148 0.961 . S
C1135 C1132 1.539 . S
C1135 H1149 0.958 . S
C1135 H1150 0.961 . S
C1135 H1151 0.960 . S
H1136 C1120 0.931 . S
H1137 C1125 0.929 . S
H1138 C1126 0.960 . S
H1139 C1126 0.962 . S
H1140 C1126 0.960 . S
H1141 C1127 0.961 . S
H1142 C1127 0.961 . S
H1143 C1127 0.961 . S
H1144 C1128 0.931 . S
H1145 C1133 0.930 . S
H1146 C1134 0.956 . S
H1147 C1134 0.961 . S
H1148 C1134 0.961 . S
H1149 C1135 0.958 . S
H1150 C1135 0.961 . S
H1151 C1135 0.960 . S
C1152 C1153 1.391 . S
C1152 C1154 1.394 . S
C1152 H1168 0.931 . S
C1153 C1152 1.391 . S
C1153 C1157 1.376 . S
C1154 C1152 1.394 . S
C1154 C1155 1.369 . S
C1154 C1158 1.531 . S
C1155 C1154 1.369 . S
C1155 C1156 1.410 . S
C1155 C1163 1.503 . S
C1156 C1155 1.410 . S
C1156 C1157 1.392 . S
C1156 C1159 1.511 . S
C1157 C1153 1.376 . S
C1157 C1156 1.392 . S
C1157 H1169 0.929 . S
C1158 C1154 1.531 . S
C1158 H1170 0.960 . S
C1158 H1171 0.962 . S
C1158 H1172 0.960 . S
C1159 C1156 1.511 . S
C1159 H1173 0.961 . S
C1159 H1174 0.961 . S
C1159 H1175 0.961 . S
C1160 C1161 1.370 . S
C1160 C1162 1.363 . S
C1160 H1176 0.931 . S
C1161 C1160 1.370 . S
C1161 C1165 1.408 . S
C1162 C1160 1.363 . S
C1162 C1163 1.370 . S
C1162 C1166 1.524 . S
C1163 C1155 1.503 . S
C1163 C1162 1.370 . S
C1163 C1164 1.403 . S
C1164 C1163 1.403 . S
C1164 C1165 1.404 . S
C1164 C1167 1.539 . S
C1165 C1161 1.408 . S
C1165 C1164 1.404 . S
C1165 H1177 0.930 . S
C1166 C1162 1.524 . S
C1166 H1178 0.956 . S
C1166 H1179 0.961 . S
C1166 H1180 0.961 . S
C1167 C1164 1.539 . S
C1167 H1181 0.958 . S
C1167 H1182 0.961 . S
C1167 H1183 0.960 . S
H1168 C1152 0.931 . S
H1169 C1157 0.929 . S
H1170 C1158 0.960 . S
H1171 C1158 0.962 . S
H1172 C1158 0.960 . S
H1173 C1159 0.961 . S
H1174 C1159 0.961 . S
H1175 C1159 0.961 . S
H1176 C1160 0.931 . S
H1177 C1165 0.930 . S
H1178 C1166 0.956 . S
H1179 C1166 0.961 . S
H1180 C1166 0.961 . S
H1181 C1167 0.958 . S
H1182 C1167 0.961 . S
H1183 C1167 0.960 . S
C1184 C1185 1.391 . S
C1184 C1186 1.394 . S
C1184 H1200 0.931 . S
C1185 C1184 1.391 . S
C1185 C1189 1.376 . S
C1186 C1184 1.394 . S
C1186 C1187 1.369 . S
C1186 C1190 1.531 . S
C1187 C1186 1.369 . S
C1187 C1188 1.410 . S
C1187 C1195 1.503 . S
C1188 C1187 1.410 . S
C1188 C1189 1.392 . S
C1188 C1191 1.511 . S
C1189 C1185 1.376 . S
C1189 C1188 1.392 . S
C1189 H1201 0.929 . S
C1190 C1186 1.531 . S
C1190 H1202 0.960 . S
C1190 H1203 0.962 . S
C1190 H1204 0.960 . S
C1191 C1188 1.511 . S
C1191 H1205 0.961 . S
C1191 H1206 0.961 . S
C1191 H1207 0.961 1_655 S
C1192 C1193 1.370 . S
C1192 C1194 1.363 . S
C1192 H1208 0.931 . S
C1193 C1192 1.370 . S
C1193 C1197 1.408 . S
C1194 C1192 1.363 . S
C1194 C1195 1.370 . S
C1194 C1198 1.524 . S
C1195 C1187 1.503 . S
C1195 C1194 1.370 . S
C1195 C1196 1.403 . S
C1196 C1195 1.403 . S
C1196 C1197 1.404 . S
C1196 C1199 1.525 1_655 S
C1197 C1193 1.408 . S
C1197 C1196 1.404 . S
C1197 H1209 0.941 . S
C1198 C1194 1.524 . S
C1198 H1210 0.956 . S
C1198 H1211 0.961 . S
C1198 H1212 0.961 . S
C1199 C1196 1.525 1_455 S
C1199 H1213 0.953 1_455 S
C1199 H1214 0.984 . S
C1199 H1215 0.957 . S
H1200 C1184 0.931 . S
H1201 C1189 0.929 . S
H1202 C1190 0.960 . S
H1203 C1190 0.962 . S
H1204 C1190 0.960 . S
H1205 C1191 0.961 . S
H1206 C1191 0.961 . S
H1207 C1191 0.961 1_455 S
H1208 C1192 0.931 . S
H1209 C1197 0.941 . S
H1210 C1198 0.956 . S
H1211 C1198 0.961 . S
H1212 C1198 0.961 . S
H1213 C1199 0.953 1_655 S
H1214 C1199 0.984 . S
H1215 C1199 0.957 . S
C1216 C1217 1.391 . S
C1216 C1218 1.394 . S
C1216 H1232 0.931 . S
C1217 C1216 1.391 . S
C1217 C1221 1.376 . S
C1218 C1216 1.394 . S
C1218 C1219 1.369 . S
C1218 C1222 1.531 . S
C1219 C1218 1.369 . S
C1219 C1220 1.410 . S
C1219 C1227 1.503 . S
C1220 C1219 1.410 . S
C1220 C1221 1.392 . S
C1220 C1223 1.511 . S
C1221 C1217 1.376 . S
C1221 C1220 1.392 . S
C1221 H1233 0.929 . S
C1222 C1218 1.531 . S
C1222 H1234 0.960 . S
C1222 H1235 0.962 . S
C1222 H1236 0.960 . S
C1223 C1220 1.511 . S
C1223 H1237 0.961 . S
C1223 H1238 0.961 . S
C1223 H1239 0.961 . S
C1224 C1225 1.370 . S
C1224 C1226 1.363 . S
C1224 H1240 0.931 . S
C1225 C1224 1.370 . S
C1225 C1229 1.408 . S
C1226 C1224 1.363 . S
C1226 C1227 1.370 . S
C1226 C1230 1.524 . S
C1227 C1219 1.503 . S
C1227 C1226 1.370 . S
C1227 C1228 1.403 . S
C1228 C1227 1.403 . S
C1228 C1229 1.404 . S
C1228 C1231 1.539 . S
C1229 C1225 1.408 . S
C1229 C1228 1.404 . S
C1229 H1241 0.930 . S
C1230 C1226 1.524 . S
C1230 H1242 0.956 . S
C1230 H1243 0.961 . S
C1230 H1244 0.961 . S
C1231 C1228 1.539 . S
C1231 H1245 0.958 . S
C1231 H1246 0.961 . S
C1231 H1247 0.960 . S
H1232 C1216 0.931 . S
H1233 C1221 0.929 . S
H1234 C1222 0.960 . S
H1235 C1222 0.962 . S
H1236 C1222 0.960 . S
H1237 C1223 0.961 . S
H1238 C1223 0.961 . S
H1239 C1223 0.961 . S
H1240 C1224 0.931 . S
H1241 C1229 0.930 . S
H1242 C1230 0.956 . S
H1243 C1230 0.961 . S
H1244 C1230 0.961 . S
H1245 C1231 0.958 . S
H1246 C1231 0.961 . S
H1247 C1231 0.960 . S
C1248 C1249 1.391 . S
C1248 C1250 1.394 . S
C1248 H1264 0.931 . S
C1249 C1248 1.391 . S
C1249 C1253 1.376 . S
C1250 C1248 1.394 . S
C1250 C1251 1.369 . S
C1250 C1254 1.531 . S
C1251 C1250 1.369 . S
C1251 C1252 1.410 . S
C1251 C1259 1.503 . S
C1252 C1251 1.410 . S
C1252 C1253 1.392 . S
C1252 C1255 1.511 . S
C1253 C1249 1.376 . S
C1253 C1252 1.392 . S
C1253 H1265 0.929 . S
C1254 C1250 1.531 . S
C1254 H1266 0.960 . S
C1254 H1267 0.962 . S
C1254 H1268 0.960 . S
C1255 C1252 1.511 . S
C1255 H1269 0.961 . S
C1255 H1270 0.961 . S
C1255 H1271 0.961 . S
C1256 C1257 1.370 . S
C1256 C1258 1.363 . S
C1256 H1272 0.931 . S
C1257 C1256 1.370 . S
C1257 C1261 1.408 . S
C1258 C1256 1.363 . S
C1258 C1259 1.370 . S
C1258 C1262 1.524 . S
C1259 C1251 1.503 . S
C1259 C1258 1.370 . S
C1259 C1260 1.403 . S
C1260 C1259 1.403 . S
C1260 C1261 1.404 . S
C1260 C1263 1.539 . S
C1261 C1257 1.408 . S
C1261 C1260 1.404 . S
C1261 H1273 0.930 . S
C1262 C1258 1.524 . S
C1262 H1274 0.956 . S
C1262 H1275 0.961 . S
C1262 H1276 0.961 . S
C1263 C1260 1.539 . S
C1263 H1277 0.958 . S
C1263 H1278 0.961 . S
C1263 H1279 0.960 . S
H1264 C1248 0.931 . S
H1265 C1253 0.929 . S
H1266 C1254 0.960 . S
H1267 C1254 0.962 . S
H1268 C1254 0.960 . S
H1269 C1255 0.961 . S
H1270 C1255 0.961 . S
H1271 C1255 0.961 . S
H1272 C1256 0.931 . S
H1273 C1261 0.930 . S
H1274 C1262 0.956 . S
H1275 C1262 0.961 . S
H1276 C1262 0.961 . S
H1277 C1263 0.958 . S
H1278 C1263 0.961 . S
H1279 C1263 0.960 . S
C1280 C1281 1.391 . S
C1280 C1282 1.394 . S
C1280 H1296 0.931 . S
C1281 C1280 1.391 . S
C1281 C1285 1.376 . S
C1282 C1280 1.394 . S
C1282 C1283 1.369 . S
C1282 C1286 1.531 . S
C1283 C1282 1.369 . S
C1283 C1284 1.410 . S
C1283 C1291 1.503 . S
C1284 C1283 1.410 . S
C1284 C1285 1.392 . S
C1284 C1287 1.511 . S
C1285 C1281 1.376 . S
C1285 C1284 1.392 . S
C1285 H1297 0.929 . S
C1286 C1282 1.531 . S
C1286 H1298 0.960 . S
C1286 H1299 0.962 . S
C1286 H1300 0.960 . S
C1287 C1284 1.511 . S
C1287 H1301 0.961 . S
C1287 H1302 0.961 . S
C1287 H1303 0.961 . S
C1288 C1289 1.370 . S
C1288 C1290 1.363 . S
C1288 H1304 0.931 . S
C1289 C1288 1.370 . S
C1289 C1293 1.408 . S
C1290 C1288 1.363 . S
C1290 C1291 1.370 . S
C1290 C1294 1.524 . S
C1291 C1283 1.503 . S
C1291 C1290 1.370 . S
C1291 C1292 1.403 . S
C1292 C1291 1.403 . S
C1292 C1293 1.404 . S
C1292 C1295 1.539 . S
C1293 C1289 1.408 . S
C1293 C1292 1.404 . S
C1293 H1305 0.930 . S
C1294 C1290 1.524 . S
C1294 H1306 0.956 . S
C1294 H1307 0.961 . S
C1294 H1308 0.961 . S
C1295 C1292 1.539 . S
C1295 H1309 0.958 . S
C1295 H1310 0.961 . S
C1295 H1311 0.960 . S
H1296 C1280 0.931 . S
H1297 C1285 0.929 . S
H1298 C1286 0.960 . S
H1299 C1286 0.962 . S
H1300 C1286 0.960 . S
H1301 C1287 0.961 . S
H1302 C1287 0.961 . S
H1303 C1287 0.961 . S
H1304 C1288 0.931 . S
H1305 C1293 0.930 . S
H1306 C1294 0.956 . S
H1307 C1294 0.961 . S
H1308 C1294 0.961 . S
H1309 C1295 0.958 . S
H1310 C1295 0.961 . S
H1311 C1295 0.960 . S
C1312 C1313 1.391 . S
C1312 C1314 1.394 . S
C1312 H1328 0.931 . S
C1313 C1312 1.391 . S
C1313 C1317 1.376 . S
C1314 C1312 1.394 . S
C1314 C1315 1.369 . S
C1314 C1318 1.531 . S
C1315 C1314 1.369 . S
C1315 C1316 1.410 . S
C1315 C1323 1.503 . S
C1316 C1315 1.410 . S
C1316 C1317 1.392 . S
C1316 C1319 1.511 . S
C1317 C1313 1.376 . S
C1317 C1316 1.392 . S
C1317 H1329 0.929 . S
C1318 C1314 1.531 . S
C1318 H1330 0.960 . S
C1318 H1331 0.962 . S
C1318 H1332 0.960 . S
C1319 C1316 1.511 . S
C1319 H1333 0.961 . S
C1319 H1334 0.961 . S
C1319 H1335 0.961 . S
C1320 C1321 1.370 . S
C1320 C1322 1.363 . S
C1320 H1336 0.931 . S
C1321 C1320 1.370 . S
C1321 C1325 1.408 . S
C1322 C1320 1.363 . S
C1322 C1323 1.370 . S
C1322 C1326 1.524 . S
C1323 C1315 1.503 . S
C1323 C1322 1.370 . S
C1323 C1324 1.403 . S
C1324 C1323 1.403 . S
C1324 C1325 1.404 . S
C1324 C1327 1.539 . S
C1325 C1321 1.408 . S
C1325 C1324 1.404 . S
C1325 H1337 0.930 . S
C1326 C1322 1.524 . S
C1326 H1338 0.956 . S
C1326 H1339 0.961 . S
C1326 H1340 0.961 1_554 S
C1327 C1324 1.539 . S
C1327 H1341 0.958 . S
C1327 H1342 0.961 . S
C1327 H1343 0.960 . S
H1328 C1312 0.931 . S
H1329 C1317 0.929 . S
H1330 C1318 0.960 . S
H1331 C1318 0.962 . S
H1332 C1318 0.960 . S
H1333 C1319 0.961 . S
H1334 C1319 0.961 . S
H1335 C1319 0.961 . S
H1336 C1320 0.931 . S
H1337 C1325 0.930 . S
H1338 C1326 0.956 . S
H1339 C1326 0.961 . S
H1340 C1326 0.961 1_556 S
H1341 C1327 0.958 . S
H1342 C1327 0.961 . S
H1343 C1327 0.960 . S
C1344 C1345 1.391 . S
C1344 C1346 1.394 . S
C1344 H1360 0.931 . S
C1345 C1344 1.391 . S
C1345 C1349 1.376 . S
C1346 C1344 1.394 . S
C1346 C1347 1.369 . S
C1346 C1350 1.531 . S
C1347 C1346 1.369 . S
C1347 C1348 1.410 . S
C1347 C1355 1.503 . S
C1348 C1347 1.410 . S
C1348 C1349 1.392 . S
C1348 C1351 1.511 . S
C1349 C1345 1.376 . S
C1349 C1348 1.392 . S
C1349 H1361 0.929 . S
C1350 C1346 1.531 . S
C1350 H1362 0.960 . S
C1350 H1363 0.962 . S
C1350 H1364 0.960 . S
C1351 C1348 1.511 . S
C1351 H1365 0.961 . S
C1351 H1366 0.961 . S
C1351 H1367 0.961 . S
C1352 C1353 1.370 . S
C1352 C1354 1.363 . S
C1352 H1368 0.931 . S
C1353 C1352 1.370 . S
C1353 C1357 1.408 . S
C1354 C1352 1.363 . S
C1354 C1355 1.370 . S
C1354 C1358 1.524 . S
C1355 C1347 1.503 . S
C1355 C1354 1.370 . S
C1355 C1356 1.403 . S
C1356 C1355 1.403 . S
C1356 C1357 1.404 . S
C1356 C1359 1.522 1_455 S
C1357 C1353 1.408 . S
C1357 C1356 1.404 . S
C1357 H1369 0.930 1_455 S
C1358 C1354 1.524 . S
C1358 H1370 0.956 . S
C1358 H1371 0.961 . S
C1358 H1372 0.961 . S
C1359 C1356 1.522 1_655 S
C1359 H1373 0.957 . S
C1359 H1374 0.983 . S
C1359 H1375 0.958 1_655 S
H1360 C1344 0.931 . S
H1361 C1349 0.929 . S
H1362 C1350 0.960 . S
H1363 C1350 0.962 . S
H1364 C1350 0.960 . S
H1365 C1351 0.961 . S
H1366 C1351 0.961 . S
H1367 C1351 0.961 . S
H1368 C1352 0.931 . S
H1369 C1357 0.930 1_655 S
H1370 C1358 0.956 . S
H1371 C1358 0.961 . S
H1372 C1358 0.961 . S
H1373 C1359 0.957 . S
H1374 C1359 0.983 . S
H1375 C1359 0.958 1_455 S
C1376 C1377 1.391 . S
C1376 C1378 1.394 . S
C1376 H1392 0.931 . S
C1377 C1376 1.391 . S
C1377 C1381 1.376 . S
C1378 C1376 1.394 . S
C1378 C1379 1.369 . S
C1378 C1382 1.531 . S
C1379 C1378 1.369 . S
C1379 C1380 1.410 . S
C1379 C1387 1.503 . S
C1380 C1379 1.410 . S
C1380 C1381 1.392 . S
C1380 C1383 1.511 . S
C1381 C1377 1.376 . S
C1381 C1380 1.392 . S
C1381 H1393 0.929 . S
C1382 C1378 1.531 . S
C1382 H1394 0.960 . S
C1382 H1395 0.962 . S
C1382 H1396 0.960 . S
C1383 C1380 1.511 . S
C1383 H1397 0.961 . S
C1383 H1398 0.961 . S
C1383 H1399 0.961 . S
C1384 C1385 1.370 . S
C1384 C1386 1.363 . S
C1384 H1400 0.931 . S
C1385 C1384 1.370 . S
C1385 C1389 1.408 . S
C1386 C1384 1.363 . S
C1386 C1387 1.370 . S
C1386 C1390 1.524 . S
C1387 C1379 1.503 . S
C1387 C1386 1.370 . S
C1387 C1388 1.403 . S
C1388 C1387 1.403 . S
C1388 C1389 1.404 . S
C1388 C1391 1.539 . S
C1389 C1385 1.408 . S
C1389 C1388 1.404 . S
C1389 H1401 0.930 . S
C1390 C1386 1.524 . S
C1390 H1402 0.956 . S
C1390 H1403 0.961 . S
C1390 H1404 0.961 . S
C1391 C1388 1.539 . S
C1391 H1405 0.958 . S
C1391 H1406 0.961 . S
C1391 H1407 0.960 . S
H1392 C1376 0.931 . S
H1393 C1381 0.929 . S
H1394 C1382 0.960 . S
H1395 C1382 0.962 . S
H1396 C1382 0.960 . S
H1397 C1383 0.961 . S
H1398 C1383 0.961 . S
H1399 C1383 0.961 . S
H1400 C1384 0.931 . S
H1401 C1389 0.930 . S
H1402 C1390 0.956 . S
H1403 C1390 0.961 . S
H1404 C1390 0.961 . S
H1405 C1391 0.958 . S
H1406 C1391 0.961 . S
H1407 C1391 0.960 . S
C641 C1 0.841 . S
C649 C484 0.942 . S
C673 C80 1.156 . S
C681 C545 1.242 . S
C713 C583 2.504 . S
C705 C140 2.534 . S
C737 C211 2.307 . S
C745 C623 2.303 . S
C777 C543 1.278 . S
C769 C31 1.224 . S
C809 C511 2.140 . S
C801 C61 2.021 . S
C841 C620 1.732 . S
C833 C151 1.712 . S
C873 C580 1.851 . S
C865 C200 1.849 . S
C897 C20 1.129 . S
C905 C625 1.109 . S
C937 C540 2.392 . S
C929 C121 2.369 . S
C961 C181 2.137 . S
C969 C482 2.150 . S
C993 C91 1.568 . S
C1001 C585 1.586 . S
C1033 C505 0.935 . S
C1025 C260 0.883 . S
C1057 C320 1.191 . S
C1065 C524 1.231 . S
C1089 C361 2.542 . S
C1097 C562 2.500 . S
C1121 C451 2.301 . S
C1129 C602 2.306 . S
C1153 C271 1.194 . S
C1161 C522 1.277 . S
C1193 C500 2.136 . S
C1185 C301 2.053 . S
C1225 C631 1.738 . S
C1217 C380 1.694 . S
C1257 C591 1.847 . S
C1249 C440 1.838 . S
C1281 C241 1.034 . S
C1289 C604 1.120 . S
C1321 C551 2.390 . S
C1313 C391 2.374 . S
C1353 C503 2.143 . S
C1345 C421 2.146 . S
C1377 C331 1.562 . S
C1385 C564 1.588 . S
