# Generated by pormake.
# Topology zzz, (3,6)-cn, num edge types: 1
# Building blocks:
#     Node 0, Type 0, BuildingBlock: ESEHIV_clean_linker_0, # of connection points: 3
#     Node 1, Type 0, BuildingBlock: ESEHIV_clean_linker_0, # of connection points: 3
#     Node 2, Type 0, BuildingBlock: ESEHIV_clean_linker_0, # of connection points: 3
#     Node 3, Type 0, BuildingBlock: ESEHIV_clean_linker_0, # of connection points: 3
#     Node 4, Type 0, BuildingBlock: ESEHIV_clean_linker_0, # of connection points: 3
#     Node 5, Type 0, BuildingBlock: ESEHIV_clean_linker_0, # of connection points: 3
#     Node 6, Type 0, BuildingBlock: ESEHIV_clean_linker_0, # of connection points: 3
#     Node 7, Type 0, BuildingBlock: ESEHIV_clean_linker_0, # of connection points: 3
#     Node 8, Type 1, BuildingBlock: PAMTUU_clean_sbu_0, # of connection points: 6
#     Node 9, Type 1, BuildingBlock: PAMTUU_clean_sbu_0, # of connection points: 6
#     Node 10, Type 1, BuildingBlock: PAMTUU_clean_sbu_0, # of connection points: 6
#     Node 11, Type 1, BuildingBlock: PAMTUU_clean_sbu_0, # of connection points: 6
#     Edge 12, Type (0, 1), BuildingBlock: XUDNAN_clean_linker_2, # of connection points: 2
#     Edge 13, Type (0, 1), BuildingBlock: XUDNAN_clean_linker_2, # of connection points: 2
#     Edge 14, Type (0, 1), BuildingBlock: XUDNAN_clean_linker_2, # of connection points: 2
#     Edge 15, Type (0, 1), BuildingBlock: XUDNAN_clean_linker_2, # of connection points: 2
#     Edge 16, Type (0, 1), BuildingBlock: XUDNAN_clean_linker_2, # of connection points: 2
#     Edge 17, Type (0, 1), BuildingBlock: XUDNAN_clean_linker_2, # of connection points: 2
#     Edge 18, Type (0, 1), BuildingBlock: XUDNAN_clean_linker_2, # of connection points: 2
#     Edge 19, Type (0, 1), BuildingBlock: XUDNAN_clean_linker_2, # of connection points: 2
#     Edge 20, Type (0, 1), BuildingBlock: XUDNAN_clean_linker_2, # of connection points: 2
#     Edge 21, Type (0, 1), BuildingBlock: XUDNAN_clean_linker_2, # of connection points: 2
#     Edge 22, Type (0, 1), BuildingBlock: XUDNAN_clean_linker_2, # of connection points: 2
#     Edge 23, Type (0, 1), BuildingBlock: XUDNAN_clean_linker_2, # of connection points: 2
#     Edge 24, Type (0, 1), BuildingBlock: XUDNAN_clean_linker_2, # of connection points: 2
#     Edge 25, Type (0, 1), BuildingBlock: XUDNAN_clean_linker_2, # of connection points: 2
#     Edge 26, Type (0, 1), BuildingBlock: XUDNAN_clean_linker_2, # of connection points: 2
#     Edge 27, Type (0, 1), BuildingBlock: XUDNAN_clean_linker_2, # of connection points: 2
#     Edge 28, Type (0, 1), BuildingBlock: XUDNAN_clean_linker_2, # of connection points: 2
#     Edge 29, Type (0, 1), BuildingBlock: XUDNAN_clean_linker_2, # of connection points: 2
#     Edge 30, Type (0, 1), BuildingBlock: XUDNAN_clean_linker_2, # of connection points: 2
#     Edge 31, Type (0, 1), BuildingBlock: XUDNAN_clean_linker_2, # of connection points: 2
#     Edge 32, Type (0, 1), BuildingBlock: XUDNAN_clean_linker_2, # of connection points: 2
#     Edge 33, Type (0, 1), BuildingBlock: XUDNAN_clean_linker_2, # of connection points: 2
#     Edge 34, Type (0, 1), BuildingBlock: XUDNAN_clean_linker_2, # of connection points: 2
#     Edge 35, Type (0, 1), BuildingBlock: XUDNAN_clean_linker_2, # of connection points: 2
# Relax obj value: 0.423
# Max RMSD: 0.290
# Mean RMSD: 0.219
data_MOF--net-zzz--node1-PAMTUU_clean_sbu_0--node2-ESEHIV_clean_linker_0--edge1-XUDNAN_clean_linker_2
_symmetry_space_group_name_H-M    P1
_symmetry_Int_Tables_number       1
_symmetry_cell_setting            triclinic
loop_
_symmetry_equiv_pos_as_xyz
'x, y, z'
_cell_length_a     43.910075
_cell_length_b     47.843038
_cell_length_c     16.300973
_cell_angle_alpha  100.99595
_cell_angle_beta   89.987469
_cell_angle_gamma 88.982999
loop_
_atom_site_label
_atom_site_type_symbol
_atom_site_fract_x
_atom_site_fract_y
_atom_site_fract_z
_atom_type_partial_charge
H0 H 0.80196 0.45818 0.39029 0.0
H1 H 0.71761 0.45568 0.25595 0.0
H2 H 0.7411 0.53057 0.43548 0.0
C3 C 0.7803 0.46771 0.37846 0.0
C4 C 0.77343 0.49509 0.42355 0.0
C5 C 0.76057 0.45315 0.31748 0.0
C6 C 0.73301 0.46662 0.30251 0.0
C7 C 0.72592 0.49482 0.3417 0.0
C8 C 0.74618 0.50896 0.40394 0.0
H9 H 0.06885 0.80078 0.50914 0.0
H10 H 0.06418 0.74744 0.26592 0.0
H11 H 1.00012 0.73709 0.45741 0.0
C12 C 0.05918 0.7828 0.46705 0.0
C13 C 0.03364 0.76974 0.49312 0.0
C14 C 0.06936 0.77612 0.38424 0.0
C15 C 0.05671 0.75282 0.3305 0.0
C16 C 0.03269 0.73769 0.35772 0.0
C17 C 0.02044 0.7468 0.43865 0.0
H18 H 0.7296 0.96791 0.32396 0.0
H19 H 0.81739 0.95565 0.20646 0.0
H20 H 0.80725 0.00879 0.45006 0.0
C21 C 0.75403 0.97027 0.32649 0.0
C22 C 0.76661 0.98574 0.40052 0.0
C23 C 0.77166 0.96073 0.25415 0.0
C24 C 0.80309 0.96463 0.25948 0.0
C25 C 0.81581 0.98411 0.32512 0.0
C26 C 0.79765 0.99423 0.39782 0.0
H27 H 0.5163 0.74493 0.25519 0.0
H28 H 0.56818 0.82155 0.29484 0.0
H29 H 0.50716 0.8014 0.08316 0.0
C30 C 0.52179 0.76507 0.2378 0.0
C31 C 0.50968 0.7714 0.16435 0.0
C32 C 0.54266 0.78297 0.28559 0.0
C33 C 0.55133 0.80814 0.25916 0.0
C34 C 0.53844 0.81555 0.18605 0.0
C35 C 0.5176 0.79666 0.13919 0.0
H36 H 0.24312 0.45072 0.1784 0.0
H37 H 0.32126 0.45054 0.33547 0.0
H38 H 0.2887 0.52907 0.27015 0.0
C39 C 0.26199 0.4618 0.21194 0.0
C40 C 0.26357 0.49128 0.21646 0.0
C41 C 0.28114 0.44736 0.25954 0.0
C42 C 0.30636 0.46169 0.29894 0.0
C43 C 0.30961 0.4912 0.30401 0.0
C44 C 0.28766 0.50614 0.26319 0.0
H45 H 0.9644 0.21533 0.22236 0.0
H46 H 0.95467 0.28818 0.41799 0.0
H47 H 0.02805 0.28314 0.23806 0.0
C48 C 0.97125 0.23669 0.25042 0.0
C49 C 0.99655 0.24844 0.21795 0.0
C50 C 0.95678 0.25054 0.32365 0.0
C51 C 0.96678 0.27738 0.36279 0.0
C52 C 0.99271 0.28957 0.33361 0.0
C53 C 1.00757 0.27477 0.26053 0.0
H54 H 0.3139 0.95058 0.21046 0.0
H55 H 0.22958 0.94245 0.33716 0.0
H56 H 0.24527 0.01667 0.23106 0.0
C57 C 0.29134 0.95836 0.23072 0.0
C58 C 0.28121 0.98408 0.20957 0.0
C59 C 0.27333 0.94314 0.27793 0.0
C60 C 0.24448 0.95438 0.30429 0.0
C61 C 0.2348 0.98163 0.29386 0.0
C62 C 0.25272 0.99607 0.24248 0.0
H63 H 0.50793 0.30905 0.46362 0.0
H64 H 0.47874 0.22345 0.37958 0.0
H65 H 0.533 0.24486 0.60372 0.0
C66 C 0.50784 0.28706 0.47159 0.0
C67 C 0.52298 0.27932 0.53958 0.0
C68 C 0.49202 0.26726 0.41382 0.0
C69 C 0.4912 0.23875 0.42408 0.0
C70 C 0.50543 0.23045 0.49389 0.0
C71 C 0.52143 0.25098 0.55099 0.0
Tb72 Tb 1.00001 0.01534 0.78514 0.0
Tb73 Tb 0.05919 0.00522 0.89914 0.0
C74 C 0.99156 0.00756 0.97319 0.0
C75 C 0.94523 0.04868 0.6593 0.0
C76 C 0.92643 0.09619 0.59223 0.0
C77 C 0.9059 0.07439 0.59795 0.0
C78 C 0.91527 0.0508 0.63136 0.0
C79 C 0.96583 0.07024 0.65348 0.0
C80 C 0.95657 0.09371 0.61987 0.0
C81 C 0.95451 0.02481 0.69866 0.0
O82 O 1.01056 0.05694 0.85844 0.0
O83 O 0.0609 0.0495 0.88588 0.0
O84 O 0.07552 0.99861 0.76972 0.0
O85 O 0.03968 0.02451 0.71282 0.0
O86 O 0.08548 0.01738 1.0074 0.0
O87 O 0.10012 0.98293 0.90919 0.0
O88 O 0.03604 0.96467 0.87574 0.0
O89 O 1.0099 0.96976 0.75737 0.0
O90 O 0.98063 0.00308 0.89664 0.0
O91 O 0.02074 0.01247 0.98785 0.0
C92 C 0.03745 0.06668 0.88324 0.0
O93 O 0.97874 0.01045 0.66784 0.0
O94 O 0.95513 0.03063 0.77988 0.0
C95 C 0.06664 0.01177 0.70969 0.0
C96 C 0.11136 0.97828 0.04561 0.0
C97 C 0.12291 0.93701 0.14394 0.0
C98 C 0.14717 0.94932 0.10821 0.0
C99 C 0.1414 0.9699 0.05939 0.0
C100 C 0.08719 0.96675 0.08346 0.0
C101 C 0.09292 0.94638 0.13248 0.0
C102 C 0.10516 0.99658 0.98485 0.0
C103 C 0.02084 0.95379 0.80813 0.0
H104 H 0.88252 0.07574 0.57774 0.0
H105 H 0.89904 0.0344 0.63625 0.0
H106 H 0.98904 0.06897 0.6753 0.0
H107 H 0.9732 0.10974 0.61471 0.0
H108 H 0.17046 0.94255 0.1164 0.0
H109 H 0.16028 0.97853 0.03003 0.0
H110 H 0.06383 0.9727 0.07246 0.0
H111 H 0.07371 0.93692 0.15795 0.0
Tb112 Tb 0.51127 0.98817 0.72909 0.0
Tb113 Tb 0.52647 0.04074 0.87962 0.0
C114 C 0.53652 0.97783 0.89975 0.0
C115 C 0.47678 0.92443 0.59656 0.0
C116 C 0.42954 0.88621 0.54466 0.0
C117 C 0.45843 0.88181 0.50642 0.0
C118 C 0.48181 0.90095 0.53188 0.0
C119 C 0.44916 0.92727 0.64052 0.0
C120 C 0.4257 0.9084 0.61468 0.0
C121 C 0.49918 0.94713 0.61234 0.0
O122 O 0.46688 1.00002 0.7917 0.0
O123 O 0.48269 0.02601 0.91777 0.0
O124 O 0.4978 0.05721 0.79079 0.0
O125 O 0.51555 0.02663 0.67654 0.0
O126 O 0.53101 0.05826 1.0072 0.0
O127 O 0.53816 0.08385 0.91392 0.0
O128 O 0.56697 0.03641 0.7977 0.0
O129 O 0.56084 0.9916 0.71977 0.0
O130 O 0.51602 0.97043 0.84153 0.0
O131 O 0.54865 0.00316 0.91188 0.0
C132 C 0.46141 0.01213 0.87052 0.0
O133 O 0.48831 0.97298 0.61745 0.0
O134 O 0.5191 0.94554 0.67053 0.0
C135 C 0.50397 0.05159 0.71073 0.0
C136 C 0.57606 0.0837 0.01622 0.0
C137 C 0.63185 0.05578 0.02923 0.0
C138 C 0.61214 0.06213 0.09869 0.0
C139 C 0.58435 0.07611 0.09226 0.0
C140 C 0.59851 0.08278 0.95402 0.0
C141 C 0.62605 0.06845 0.95985 0.0
C142 C 0.54394 0.08087 0.99034 0.0
C143 C 0.57766 0.01414 0.74424 0.0
H144 H 0.46235 0.86468 0.45338 0.0
H145 H 0.50326 0.89827 0.49813 0.0
H146 H 0.44505 0.94515 0.69134 0.0
H147 H 0.40382 0.91283 0.64543 0.0
H148 H 0.61683 0.05398 0.15508 0.0
H149 H 0.56775 0.07723 0.14206 0.0
H150 H 0.59328 0.08935 0.89551 0.0
H151 H 0.64109 0.06471 0.90612 0.0
Tb152 Tb 0.48919 0.51451 0.92065 0.0
Tb153 Tb 0.53643 0.53544 0.78683 0.0
C154 C 0.46744 0.52316 0.74264 0.0
C155 C 0.4559 0.46847 0.05276 0.0
C156 C 0.45777 0.41518 0.10316 0.0
C157 C 0.4307 0.4317 0.11072 0.0
C158 C 0.42973 0.45805 0.08505 0.0
C159 C 0.48317 0.45252 0.04794 0.0
C160 C 0.48407 0.42604 0.07228 0.0
C161 C 0.45433 0.49481 0.01845 0.0
O162 O 0.50597 0.47649 0.83829 0.0
O163 O 0.55031 0.49131 0.78511 0.0
O164 O 0.5579 0.54372 0.91078 0.0
O165 O 0.53494 0.51006 0.97083 0.0
O166 O 0.54863 0.5392 0.6644 0.0
O167 O 0.5763 0.55737 0.76895 0.0
O168 O 0.5069 0.57189 0.83272 0.0
O169 O 0.4898 0.5606 0.95595 0.0
O170 O 0.46114 0.52781 0.82316 0.0
O171 O 0.49577 0.51901 0.71592 0.0
C172 C 0.53285 0.47119 0.80298 0.0
O173 O 0.47529 0.5135 0.04354 0.0
O174 O 0.45056 0.49097 0.93782 0.0
C175 C 0.55746 0.52757 0.96784 0.0
C176 C 0.57262 0.58334 0.65956 0.0
C177 C 0.57699 0.63566 0.60246 0.0
C178 C 0.60115 0.62553 0.64619 0.0
C179 C 0.59902 0.59968 0.67403 0.0
C180 C 0.54823 0.59352 0.61693 0.0
C181 C 0.55043 0.6193 0.58854 0.0
C182 C 0.57114 0.55601 0.6898 0.0
C183 C 0.49407 0.579 0.9067 0.0
H184 H 0.41009 0.42388 0.13433 0.0
H185 H 0.40844 0.47004 0.08904 0.0
H186 H 0.50368 0.46047 0.02433 0.0
H187 H 0.50541 0.41411 0.06721 0.0
H188 H 0.62176 0.63763 0.65944 0.0
H189 H 0.61809 0.59243 0.70712 0.0
H190 H 0.5275 0.58151 0.60492 0.0
H191 H 0.53149 0.62606 0.55409 0.0
Tb192 Tb 0.0283 0.5301 0.77252 0.0
Tb193 Tb 1.00272 0.49708 0.91369 0.0
C194 C 1.00454 0.56414 0.9429 0.0
C195 C 0.07947 0.531 0.60891 0.0
C196 C 0.12065 0.48853 0.52853 0.0
C197 C 0.11922 0.49562 0.61612 0.0
C198 C 0.09915 0.51671 0.65564 0.0
C199 C 0.08127 0.52466 0.52142 0.0
C200 C 0.10191 0.50375 0.48145 0.0
C201 C 0.05266 0.54606 0.65115 0.0
O202 O 0.06543 0.53336 0.86333 0.0
O203 O 0.05223 0.49824 0.93401 0.0
O204 O 1.00257 0.46789 0.79383 0.0
O205 O 0.04446 0.48629 0.7465 0.0
O206 O 0.97467 0.49309 0.01482 0.0
O207 O 1.00782 0.46022 0.96481 0.0
O208 O 0.96073 0.50939 0.85461 0.0
O209 O 0.98097 0.52099 0.73538 0.0
O210 O 1.00481 0.56303 0.86155 0.0
O211 O 1.00914 0.54123 0.97533 0.0
C212 C 0.07206 0.51659 0.91636 0.0
O213 O 0.02857 0.53035 0.64391 0.0
O214 O 0.05653 0.55925 0.72828 0.0
C215 C 0.02559 0.46536 0.74206 0.0
C216 C 0.96177 0.44519 0.01268 0.0
C217 C 0.91642 0.4046 0.01781 0.0
C218 C 0.94505 0.40185 0.05459 0.0
C219 C 0.96747 0.4221 0.05237 0.0
C220 C 0.93416 0.44692 0.9708 0.0
C221 C 0.91164 0.42697 0.9738 0.0
C222 C 0.98475 0.46725 0.01525 0.0
C223 C 0.9574 0.51554 0.77941 0.0
H224 H 0.1328 0.48413 0.65468 0.0
H225 H 0.09772 0.5205 0.72314 0.0
H226 H 0.06576 0.53487 0.48413 0.0
H227 H 0.10284 0.49926 0.41382 0.0
H228 H 0.94971 0.38472 0.08791 0.0
H229 H 0.98899 0.42013 0.08351 0.0
H230 H 0.92951 0.46428 0.93828 0.0
H231 H 0.88985 0.43027 0.94581 0.0
H232 H 0.22481 0.98281 0.45948 0.0
H233 H 0.18193 0.00731 0.24392 0.0
H234 H 0.1343 0.01978 0.32716 0.0
H235 H 0.16113 0.94801 0.52118 0.0
H236 H 0.16864 0.95819 0.63145 0.0
H237 H 0.19958 0.95462 0.55755 0.0
H238 H 0.21569 0.00636 0.61727 0.0
H239 H 0.1849 0.01003 0.6918 0.0
H240 H 0.18817 0.03507 0.62263 0.0
H241 H 0.08953 0.02719 0.43844 0.0
H242 H 0.05446 0.02821 0.55847 0.0
H243 H 0.12737 0.99558 0.69504 0.0
C244 C 0.2056 0.99129 0.42976 0.0
C245 C 0.20742 0.99428 0.34481 0.0
C246 C 0.18151 0.00529 0.30895 0.0
C247 C 0.15422 0.01217 0.35588 0.0
C248 C 0.15308 0.00794 0.43879 0.0
C249 C 0.17835 0.99777 0.47498 0.0
C250 C 0.17138 0.99323 0.56271 0.0
C251 C 0.17542 0.96164 0.56852 0.0
C252 C 0.19121 0.01231 0.62742 0.0
C253 C 0.13816 0.00251 0.57145 0.0
C254 C 0.12784 0.01112 0.49982 0.0
C255 C 0.09765 0.02049 0.49443 0.0
C256 C 0.0778 0.02102 0.56326 0.0
C257 C 0.08787 0.01195 0.63697 0.0
C258 C 0.11862 0.00262 0.64015 0.0
H259 H 0.49623 0.21267 0.6429 0.0
H260 H 0.51024 0.18052 0.37793 0.0
H261 H 0.50851 0.13118 0.40303 0.0
H262 H 0.54319 0.16099 0.71516 0.0
H263 H 0.51892 0.15847 0.80256 0.0
H264 H 0.51975 0.19105 0.76271 0.0
H265 H 0.46126 0.18916 0.74191 0.0
H266 H 0.46028 0.1565 0.78149 0.0
H267 H 0.44472 0.15787 0.67998 0.0
H268 H 0.50813 0.08509 0.45906 0.0
H269 H 0.50849 0.04647 0.54052 0.0
H270 H 0.49432 0.10895 0.76857 0.0
C271 C 0.49901 0.19529 0.59002 0.0
C272 C 0.50342 0.20059 0.50829 0.0
C273 C 0.5065 0.17711 0.44091 0.0
C274 C 0.50568 0.14897 0.45465 0.0
C275 C 0.50155 0.14458 0.5361 0.0
C276 C 0.49815 0.16713 0.60258 0.0
C277 C 0.49465 0.15674 0.6843 0.0
C278 C 0.52068 0.16745 0.74472 0.0
C279 C 0.46336 0.1656 0.72425 0.0
C280 C 0.49699 0.1248 0.65372 0.0
C281 C 0.50092 0.11818 0.56802 0.0
C282 C 0.5048 0.09007 0.52608 0.0
C283 C 0.50497 0.06824 0.57295 0.0
C284 C 0.50118 0.07455 0.66096 0.0
C285 C 0.49683 0.10328 0.70133 0.0
H286 H 0.37033 0.4766 0.31986 0.0
H287 H 0.30036 0.53697 0.43182 0.0
H288 H 0.33407 0.55318 0.55254 0.0
H289 H 0.3944 0.4554 0.50219 0.0
H290 H 0.43445 0.45244 0.47699 0.0
H291 H 0.40668 0.44788 0.39454 0.0
H292 H 0.43138 0.48756 0.33108 0.0
H293 H 0.45963 0.49203 0.41251 0.0
H294 H 0.43688 0.52214 0.39559 0.0
H295 H 0.37253 0.55778 0.67079 0.0
H296 H 0.415 0.55512 0.76857 0.0
H297 H 0.46193 0.49354 0.57878 0.0
C298 C 0.36247 0.49389 0.36856 0.0
C299 C 0.33264 0.50578 0.36534 0.0
C300 C 0.32318 0.52797 0.43136 0.0
C301 C 0.34213 0.53708 0.50085 0.0
C302 C 0.37083 0.52413 0.50346 0.0
C303 C 0.38127 0.50343 0.43808 0.0
C304 C 0.41265 0.49223 0.45762 0.0
C305 C 0.41198 0.46009 0.45785 0.0
C306 C 0.43655 0.4989 0.39551 0.0
C307 C 0.41798 0.50936 0.54512 0.0
C308 C 0.39344 0.5275 0.57045 0.0
C309 C 0.39205 0.54404 0.65081 0.0
C310 C 0.41628 0.54225 0.70628 0.0
C311 C 0.44206 0.52435 0.68161 0.0
C312 C 0.44285 0.50781 0.59936 0.0
H313 H 0.99045 0.3086 0.5045 0.0
H314 H 0.02232 0.33285 0.27587 0.0
H315 H 0.03927 0.37871 0.35833 0.0
H316 H 0.95679 0.37554 0.58623 0.0
H317 H 0.9654 0.37386 0.69333 0.0
H318 H 0.96018 0.34155 0.6181 0.0
H319 H 1.0134 0.32313 0.65464 0.0
H320 H 1.01886 0.3555 0.72982 0.0
H321 H 0.04639 0.34445 0.64747 0.0
H322 H 0.05097 0.4232 0.46742 0.0
H323 H 0.05134 0.46336 0.58818 0.0
H324 H 1.0055 0.41143 0.73937 0.0
C325 C 1.00066 0.32345 0.4707 0.0
C326 C 1.00472 0.31683 0.3828 0.0
C327 C 1.01922 0.33697 0.34299 0.0
C328 C 0.02883 0.36321 0.38938 0.0
C329 C 0.02357 0.36919 0.47547 0.0
C330 C 1.0095 0.3499 0.51537 0.0
C331 C 1.0038 0.36217 0.60686 0.0
C332 C 0.96951 0.36335 0.62728 0.0
C333 C 0.02169 0.34531 0.66299 0.0
C334 C 1.01641 0.39166 0.61233 0.0
C335 C 0.02843 0.39513 0.53652 0.0
C336 C 0.04153 0.42066 0.52684 0.0
C337 C 0.04173 0.44331 0.59586 0.0
C338 C 0.0283 0.44047 0.67289 0.0
C339 C 1.01579 0.4142 0.68112 0.0
H340 H 0.8284 0.00964 0.1947 0.0
H341 H 0.87198 0.98189 0.40415 0.0
H342 H 0.92269 0.98858 0.34276 0.0
H343 H 0.87514 0.97046 0.04511 0.0
H344 H 0.87539 0.99582 0.97631 0.0
H345 H 0.84348 0.99495 0.04487 0.0
H346 H 0.85004 0.04823 0.10927 0.0
H347 H 0.88165 0.04959 0.03968 0.0
H348 H 0.88649 0.06053 0.15092 0.0
H349 H 0.9694 0.99407 0.24627 0.0
H350 H 1.00511 0.997 0.13033 0.0
H351 H 0.9292 0.01613 0.97913 0.0
C352 C 0.84863 0.00601 0.22951 0.0
C353 C 0.84605 0.99579 0.30552 0.0
C354 C 0.87318 0.99046 0.34739 0.0
C355 C 0.90212 0.99391 0.31211 0.0
C356 C 0.90365 0.00246 0.23443 0.0
C357 C 0.87738 0.00856 0.19417 0.0
C358 C 0.88432 0.01431 0.10761 0.0
C359 C 0.86866 0.99259 0.0395 0.0
C360 C 0.87509 0.04499 0.10154 0.0
C361 C 0.91867 0.01017 0.10406 0.0
C362 C 0.92963 0.00384 0.17816 0.0
C363 C 0.96081 0.99909 0.18846 0.0
C364 C 0.98103 0.0008 0.122 0.0
C365 C 0.97016 0.00665 0.04485 0.0
C366 C 0.93843 0.01141 0.03666 0.0
H367 H 0.54115 0.82548 0.02435 0.0
H368 H 0.55291 0.86787 0.28259 0.0
H369 H 0.56046 0.91334 0.23533 0.0
H370 H 0.59173 0.86899 0.92449 0.0
H371 H 0.56612 0.86894 0.83805 0.0
H372 H 0.56737 0.83907 0.89074 0.0
H373 H 0.50924 0.84476 0.91868 0.0
H374 H 0.50784 0.87456 0.86612 0.0
H375 H 0.49392 0.8786 0.97185 0.0
H376 H 0.56313 0.9555 0.15843 0.0
H377 H 0.55561 0.98976 0.06323 0.0
H378 H 0.53558 0.91983 0.86035 0.0
C379 C 0.54521 0.84416 0.07173 0.0
C380 C 0.54623 0.8427 0.15777 0.0
C381 C 0.55249 0.86796 0.21627 0.0
C382 C 0.55667 0.89405 0.18998 0.0
C383 C 0.55434 0.89473 0.10494 0.0
C384 C 0.54855 0.87036 0.04694 0.0
C385 C 0.54376 0.87694 0.96054 0.0
C386 C 0.56874 0.86263 0.89989 0.0
C387 C 0.51179 0.86821 0.92741 0.0
C388 C 0.54689 0.90896 0.97907 0.0
C389 C 0.55387 0.91886 0.06212 0.0
C390 C 0.55762 0.94788 0.09339 0.0
C391 C 0.55338 0.9672 0.03887 0.0
C392 C 0.54473 0.95746 0.95467 0.0
C393 C 0.54196 0.92792 0.92456 0.0
H394 H 0.66819 0.47392 0.30233 0.0
H395 H 0.72388 0.54743 0.29655 0.0
H396 H 0.68531 0.56545 0.20766 0.0
H397 H 0.64707 0.4621 0.09364 0.0
H398 H 0.60875 0.45118 0.1091 0.0
H399 H 0.6381 0.44624 0.18233 0.0
H400 H 0.60606 0.47506 0.30397 0.0
H401 H 0.57635 0.47976 0.23123 0.0
H402 H 0.59244 0.51036 0.29772 0.0
H403 H 0.64364 0.57192 0.10217 0.0
H404 H 0.60107 0.56867 1.00193 0.0
H405 H 0.57218 0.49075 0.07556 0.0
C406 C 0.67195 0.49424 0.28435 0.0
C407 C 0.69927 0.50931 0.30745 0.0
C408 C 0.7031 0.53569 0.28161 0.0
C409 C 0.68136 0.54594 0.2301 0.0
C410 C 0.65555 0.52978 0.20515 0.0
C411 C 0.65051 0.5047 0.23281 0.0
C412 C 0.62188 0.49044 0.1934 0.0
C413 C 0.62941 0.46074 0.14156 0.0
C414 C 0.59775 0.48882 0.26059 0.0
C415 C 0.61187 0.511 0.13761 0.0
C416 C 0.63157 0.5336 0.14541 0.0
C417 C 0.62791 0.5545 0.09681 0.0
C418 C 0.60362 0.55239 0.03949 0.0
C419 C 0.58289 0.52957 0.03057 0.0
C420 C 0.58722 0.5087 0.08112 0.0
H421 H 0.03679 0.68026 0.35366 0.0
H422 H 0.99936 0.74342 0.22189 0.0
H423 H 0.98344 0.70518 0.10614 0.0
H424 H 0.06876 0.63652 0.17978 0.0
H425 H 0.06096 0.60314 0.21077 0.0
H426 H 0.0652 0.63488 0.28895 0.0
H427 H 1.01204 0.62762 0.3497 0.0
H428 H 1.00775 0.59564 0.27207 0.0
H429 H 0.97933 0.62374 0.2819 0.0
H430 H 0.97771 0.66094 0.99762 0.0
H431 H 0.98058 0.61348 0.90587 0.0
H432 H 0.02139 0.57848 0.10771 0.0
C433 C 0.02427 0.68582 0.30163 0.0
C434 C 1.01869 0.71461 0.29687 0.0
C435 C 1.00331 0.72138 0.22678 0.0
C436 C 0.99426 0.69983 0.16089 0.0
C437 C 1.0008 0.6716 0.16608 0.0
C438 C 1.0152 0.66448 0.23497 0.0
C439 C 0.02178 0.63269 0.22166 0.0
C440 C 0.05622 0.62646 0.2255 0.0
C441 C 1.00417 0.61912 0.2851 0.0
C442 C 1.00957 0.6232 0.13388 0.0
C443 C 0.99741 0.64596 0.10318 0.0
C444 C 0.98669 0.64286 0.02147 0.0
C445 C 0.98855 0.61584 0.96965 0.0
C446 C 1.00095 0.5922 0.99967 0.0
C447 C 1.01125 0.596 0.0833 0.0
H448 H 0.95933 0.24474 0.48556 0.0
H449 H 0.90907 0.2175 0.25654 0.0
H450 H 0.88632 0.17899 0.31638 0.0
H451 H 0.98269 0.18214 0.50864 0.0
H452 H 0.98002 0.1865 0.62073 0.0
H453 H 0.98449 0.2171 0.57361 0.0
H454 H 0.93546 0.2404 0.64652 0.0
H455 H 0.93114 0.21005 0.69607 0.0
H456 H 0.90041 0.22099 0.63526 0.0
H457 H 0.88065 0.13697 0.38349 0.0
H458 H 0.88997 0.0968 0.45562 0.0
H459 H 0.94261 0.15176 0.644 0.0
C460 C 0.94208 0.23178 0.45007 0.0
C461 C 0.93572 0.23419 0.36683 0.0
C462 C 0.91405 0.21606 0.3207 0.0
C463 C 0.90098 0.19419 0.35433 0.0
C464 C 0.90948 0.19104 0.43455 0.0
C465 C 0.92903 0.2098 0.48271 0.0
C466 C 0.93855 0.19923 0.5609 0.0
C467 C 0.97348 0.19604 0.56613 0.0
C468 C 0.9256 0.21883 0.63934 0.0
C469 C 0.92333 0.17062 0.54588 0.0
C470 C 0.90604 0.16653 0.47386 0.0
C471 C 0.89321 0.14028 0.44154 0.0
C472 C 0.89865 0.11753 0.48298 0.0
C473 C 0.91699 0.12113 0.5556 0.0
C474 C 0.92855 0.14831 0.58856 0.0
H475 H 0.31949 0.90549 0.20839 0.0
H476 H 0.25755 0.92301 0.42109 0.0
H477 H 0.28584 0.88953 0.487 0.0
H478 H 0.35125 0.83151 0.24143 0.0
H479 H 0.38909 0.84196 0.21862 0.0
H480 H 0.35672 0.85382 0.16536 0.0
H481 H 0.37274 0.90631 0.21374 0.0
H482 H 0.40501 0.89447 0.26515 0.0
H483 H 0.37837 0.91981 0.32367 0.0
H484 H 0.32706 0.86797 0.55228 0.0
H485 H 0.37775 0.86949 0.61637 0.0
H486 H 0.41871 0.8736 0.37723 0.0
C487 C 0.31141 0.90212 0.26825 0.0
C488 C 0.28607 0.91762 0.30851 0.0
C489 C 0.27616 0.91138 0.38598 0.0
C490 C 0.29234 0.89211 0.42486 0.0
C491 C 0.31898 0.87954 0.38739 0.0
C492 C 0.32857 0.88443 0.31053 0.0
C493 C 0.36179 0.87591 0.29495 0.0
C494 C 0.36488 0.8492 0.22601 0.0
C495 C 0.38053 0.9006 0.27333 0.0
C496 C 0.37025 0.86914 0.3793 0.0
C497 C 0.34474 0.86911 0.42912 0.0
C498 C 0.34712 0.86749 0.51344 0.0
C499 C 0.37608 0.8686 0.54963 0.0
C500 C 0.40215 0.87242 0.50224 0.0
C501 C 0.39931 0.8703 0.41488 0.0
H502 H 0.55642 0.32359 0.50569 0.0
H503 H 0.52165 0.28747 0.71097 0.0
H504 H 0.53333 0.33196 0.80856 0.0
H505 H 0.61324 0.37542 0.62792 0.0
H506 H 0.60256 0.40215 0.56838 0.0
H507 H 0.60206 0.36494 0.52018 0.0
H508 H 0.5457 0.37077 0.47864 0.0
H509 H 0.54579 0.40769 0.52747 0.0
H510 H 0.51803 0.3844 0.55867 0.0
H511 H 0.53579 0.38244 0.87605 0.0
H512 H 0.52899 0.4345 0.90862 0.0
H513 H 0.55817 0.44012 0.65879 0.0
C514 C 0.55223 0.32469 0.57169 0.0
C515 C 0.53798 0.30204 0.6006 0.0
C516 C 0.53295 0.30427 0.68733 0.0
C517 C 0.53943 0.32959 0.74324 0.0
C518 C 0.55102 0.35238 0.71145 0.0
C519 C 0.55766 0.35008 0.62758 0.0
C520 C 0.56415 0.37894 0.60622 0.0
C521 C 0.59749 0.38044 0.57909 0.0
C522 C 0.5421 0.38584 0.53886 0.0
C523 C 0.55823 0.39813 0.69009 0.0
C524 C 0.5516 0.38223 0.75039 0.0
C525 C 0.54174 0.39503 0.83003 0.0
C526 C 0.53771 0.42461 0.84781 0.0
C527 C 0.54327 0.44119 0.78637 0.0
C528 C 0.55463 0.42792 0.7074 0.0
H529 H 0.28292 0.43864 0.41952 0.0
H530 H 0.24764 0.40135 0.17703 0.0
H531 H 0.1984 0.39464 0.24076 0.0
H532 H 0.22149 0.40378 0.55544 0.0
H533 H 0.22172 0.43701 0.62933 0.0
H534 H 0.25664 0.4225 0.57881 0.0
H535 H 0.26464 0.47027 0.53112 0.0
H536 H 0.22948 0.48453 0.57659 0.0
H537 H 0.23618 0.48313 0.4667 0.0
H538 H 0.15096 0.41533 0.30854 0.0
H539 H 0.11255 0.44914 0.38278 0.0
H540 H 0.1777 0.4769 0.57985 0.0
C541 C 0.26559 0.42715 0.38053 0.0
C542 C 0.26787 0.42314 0.29266 0.0
C543 C 0.24563 0.40629 0.2445 0.0
C544 C 0.21732 0.4026 0.28043 0.0
C545 C 0.21291 0.41393 0.36519 0.0
C546 C 0.23707 0.42448 0.41613 0.0
C547 C 0.22581 0.44165 0.49886 0.0
C548 C 0.23175 0.42524 0.56979 0.0
C549 C 0.23981 0.47163 0.51919 0.0
C550 C 0.19215 0.44311 0.48081 0.0
C551 C 0.18483 0.42597 0.40536 0.0
C552 C 0.15616 0.4278 0.36937 0.0
C553 C 0.13465 0.44755 0.41116 0.0
C554 C 0.14208 0.46569 0.48747 0.0
C555 C 0.17096 0.46275 0.52312 0.0
H556 H 0.06337 0.83373 0.42154 0.0
H557 H 0.1164 0.76588 0.26843 0.0
H558 H 0.14304 0.80182 0.20472 0.0
H559 H 0.05012 0.87251 0.27242 0.0
H560 H 0.05225 0.90687 0.34041 0.0
H561 H 0.04157 0.87635 0.38216 0.0
H562 H 0.08552 0.88592 0.48984 0.0
H563 H 0.09644 0.91649 0.44766 0.0
H564 H 0.12398 0.88859 0.4537 0.0
H565 H 0.15842 0.8448 0.14551 0.0
H566 H 0.15893 0.88968 0.09138 0.0
H567 H 0.09701 0.92873 0.28904 0.0
C568 C 0.08155 0.82632 0.3774 0.0
C569 C 0.08831 0.79697 0.35141 0.0
C570 C 0.11104 0.78827 0.28979 0.0
C571 C 0.12643 0.80855 0.2539 0.0
C572 C 0.11894 0.83734 0.28092 0.0
C573 C 0.09707 0.84613 0.34174 0.0
C574 C 0.09037 0.87773 0.35361 0.0
C575 C 0.0566 0.88369 0.33605 0.0
C576 C 0.09965 0.89308 0.44142 0.0
C577 C 0.11096 0.88534 0.28745 0.0
C578 C 0.12771 0.86196 0.24702 0.0
C579 C 0.14596 0.86336 0.17796 0.0
C580 C 0.14622 0.88897 0.14788 0.0
C581 C 0.12807 0.91263 0.18638 0.0
C582 C 0.11121 0.91099 0.25879 0.0
H583 H 0.71431 0.93903 0.21123 0.0
H584 H 0.79466 0.96957 0.10259 0.0
H585 H 0.76393 0.98364 0.995 0.0
H586 H 0.66264 0.93125 1.00223 0.0
H587 H 0.63068 0.9451 0.06784 0.0
H588 H 0.6581 0.92147 0.10291 0.0
H589 H 0.66574 0.95897 0.2377 0.0
H590 H 0.63941 0.98299 0.20254 0.0
H591 H 0.67768 0.99427 0.2298 0.0
H592 H 0.7279 0.01591 0.95219 0.0
H593 H 0.68862 0.05332 0.9562 0.0
H594 H 0.6284 0.00659 0.09027 0.0
C595 C 0.72555 0.9478 0.16309 0.0
C596 C 0.75677 0.95465 0.16993 0.0
C597 C 0.77083 0.96438 0.10222 0.0
C598 C 0.7533 0.9727 0.0395 0.0
C599 C 0.72181 0.97109 0.04454 0.0
C600 C 0.70789 0.95764 0.10247 0.0
C601 C 0.67405 0.96487 0.10886 0.0
C602 C 0.65527 0.93914 0.06798 0.0
C603 C 0.66369 0.97596 0.20006 0.0
C604 C 0.67259 0.98804 0.05736 0.0
C605 C 0.69994 0.99033 0.01749 0.0
C606 C 0.70588 0.01349 0.97954 0.0
C607 C 0.68352 0.03488 0.98293 0.0
C608 C 0.65553 0.03307 0.02431 0.0
C609 C 0.64978 0.00883 0.05932 0.0
H610 H 0.52545 0.74266 0.01039 0.0
H611 H 0.45664 0.74843 0.2031 0.0
H612 H 0.43796 0.7011 0.13755 0.0
H613 H 0.47973 0.69498 0.83277 0.0
H614 H 0.51426 0.67574 0.79569 0.0
H615 H 0.5155 0.7132 0.84047 0.0
H616 H 0.5562 0.7023 0.94538 0.0
H617 H 0.55455 0.66493 0.90277 0.0
H618 H 0.5477 0.67759 0.01275 0.0
H619 H 0.43679 0.64979 0.07864 0.0
H620 H 0.44933 0.59944 0.01994 0.0
H621 H 0.51835 0.62608 0.8622 0.0
C622 C 0.50518 0.73464 0.03513 0.0
C623 C 0.49197 0.74922 0.11042 0.0
C624 C 0.4665 0.73769 0.14431 0.0
C625 C 0.45585 0.7108 0.10758 0.0
C626 C 0.47077 0.6959 0.03661 0.0
C627 C 0.49445 0.70767 0.99926 0.0
C628 C 0.50978 0.68562 0.93198 0.0
C629 C 0.50448 0.69281 0.84507 0.0
C630 C 0.54406 0.68243 0.94937 0.0
C631 C 0.49262 0.65928 0.94192 0.0
C632 C 0.46985 0.66576 1.00148 0.0
C633 C 0.45379 0.64453 0.02981 0.0
C634 C 0.46127 0.616 0.99681 0.0
C635 C 0.48456 0.60897 0.93604 0.0
C636 C 0.4999 0.63092 0.90707 0.0
H637 H 0.80129 0.41226 0.35279 0.0
H638 H 0.74473 0.43217 0.15231 0.0
H639 H 0.77364 0.39802 0.0522 0.0
H640 H 0.86092 0.42839 0.27064 0.0
H641 H 0.88757 0.40284 0.29969 0.0
H642 H 0.85384 0.41225 0.36004 0.0
H643 H 0.83931 0.35907 0.33644 0.0
H644 H 0.87334 0.34961 0.27458 0.0
H645 H 0.83666 0.33864 0.23177 0.0
H646 H 0.81674 0.3786 0.96846 0.0
H647 H 0.868 0.38521 0.9165 0.0
H648 H 0.90424 0.38764 0.16473 0.0
C649 C 0.79461 0.40919 0.28796 0.0
C650 C 0.77106 0.42598 0.26167 0.0
C651 C 0.76228 0.41987 0.17643 0.0
C652 C 0.77886 0.40019 0.11797 0.0
C653 C 0.80485 0.38728 0.14433 0.0
C654 C 0.81272 0.39156 0.22809 0.0
C655 C 0.846 0.38395 0.23856 0.0
C656 C 0.86303 0.40832 0.29532 0.0
C657 C 0.84899 0.35615 0.2723 0.0
C658 C 0.85654 0.37938 0.14833 0.0
C659 C 0.83201 0.37859 0.09461 0.0
C660 C 0.83604 0.37881 1.00983 0.0
C661 C 0.8653 0.38291 0.98091 0.0
C662 C 0.88995 0.38795 0.03736 0.0
C663 C 0.88591 0.38364 0.12004 0.0
H664 H 0.97195 0.21927 0.07415 0.0
H665 H 0.05755 0.23491 0.20526 0.0
H666 H 0.08084 0.1935 0.11075 0.0
H667 H 0.97204 0.15015 0.06966 0.0
H668 H 0.955 0.13881 0.96844 0.0
H669 H 0.94771 0.17421 0.02567 0.0
H670 H 0.96741 0.1956 0.90157 0.0
H671 H 0.97426 0.16011 0.84277 0.0
H672 H 1.00465 0.18539 0.85833 0.0
H673 H 0.09102 0.1447 0.0257 0.0
H674 H 0.08781 0.09436 0.95584 0.0
H675 H 0.99452 0.1092 0.88482 0.0
C676 C 0.99601 0.21475 0.08023 0.0
C677 C 1.01302 0.23042 0.14657 0.0
C678 C 0.04426 0.2236 0.1539 0.0
C679 C 0.0576 0.19995 0.10068 0.0
C680 C 0.03948 0.18357 0.03998 0.0
C681 C 1.00941 0.19102 0.02855 0.0
C682 C 0.99334 0.1677 0.969 0.0
C683 C 0.96541 0.1571 0.01074 0.0
C684 C 0.9844 0.1778 0.88811 0.0
C685 C 1.01841 0.14519 0.95288 0.0
C686 C 0.0451 0.15499 0.99244 0.0
C687 C 0.07047 0.13707 0.99289 0.0
C688 C 0.06837 0.1084 0.95321 0.0
C689 C 0.04091 0.09772 0.91461 0.0
C690 C 1.01594 0.11668 0.91297 0.0
H691 H 0.34091 0.0004 0.23564 0.0
H692 H 0.26906 0.9935 0.05155 0.0
H693 H 0.30669 0.00131 0.9448 0.0
H694 H 0.38554 0.05566 0.1564 0.0
H695 H 0.42137 0.04009 0.18016 0.0
H696 H 0.38814 0.03707 0.24256 0.0
H697 H 0.39548 0.98227 0.21285 0.0
H698 H 0.42837 0.98503 0.14916 0.0
H699 H 0.39701 0.96322 0.10623 0.0
H700 H 0.35465 0.00306 0.85271 0.0
H701 H 0.40585 0.00543 0.79044 0.0
H702 H 0.44616 0.01382 0.0364 0.0
C703 C 0.33287 0.00166 0.17362 0.0
C704 C 0.30167 0.99692 0.15276 0.0
C705 C 0.29246 0.99783 0.07 0.0
C706 C 0.31388 0.0019 1.00858 0.0
C707 C 0.34462 0.00538 0.03058 0.0
C708 C 0.35392 0.00598 0.1119 0.0
C709 C 0.38834 0.00916 0.1193 0.0
C710 C 0.39631 0.03716 0.17809 0.0
C711 C 0.40316 0.98339 0.14862 0.0
C712 C 0.39717 0.00986 0.02938 0.0
C713 C 0.37169 0.00736 0.9788 0.0
C714 C 0.37455 0.00559 0.89242 0.0
C715 C 0.40386 0.00681 0.85732 0.0
C716 C 0.43027 0.01023 0.90812 0.0
C717 C 0.42655 0.01176 0.99555 0.0
H718 H 0.45068 0.31049 0.42395 0.0
H719 H 0.50367 0.24986 0.2469 0.0
H720 H 0.49392 0.27868 0.13818 0.0
H721 H 0.39526 0.33453 0.26958 0.0
H722 H 0.39645 0.37072 0.32647 0.0
H723 H 0.40034 0.3415 0.38133 0.0
H724 H 0.45111 0.36234 0.44441 0.0
H725 H 0.44788 0.39112 0.38833 0.0
H726 H 0.48139 0.36837 0.37552 0.0
H727 H 0.48827 0.31924 0.06045 0.0
H728 H 0.48336 0.36571 0.01595 0.0
H729 H 0.43531 0.40066 0.24605 0.0
C730 C 0.45877 0.30254 0.36088 0.0
C731 C 0.47747 0.27774 0.34308 0.0
C732 C 0.48866 0.26838 0.26098 0.0
C733 C 0.48345 0.28481 0.19922 0.0
C734 C 0.46679 0.31034 0.22067 0.0
C735 C 0.45408 0.31886 0.29929 0.0
C736 C 0.44089 0.34888 0.31088 0.0
C737 C 0.40617 0.3489 0.32273 0.0
C738 C 0.45625 0.36883 0.38406 0.0
C739 C 0.4492 0.35644 0.22783 0.0
C740 C 0.46383 0.33387 0.17622 0.0
C741 C 0.47621 0.33677 0.09957 0.0
C742 C 0.47356 0.36332 0.07516 0.0
C743 C 0.45875 0.38672 0.12729 0.0
C744 C 0.4461 0.38299 0.20405 0.0
H745 H 0.20228 0.48312 0.23347 0.0
H746 H 0.26562 0.52954 0.10825 0.0
H747 H 0.22299 0.54346 0.02306 0.0
H748 H 0.16204 0.45309 0.05539 0.0
H749 H 0.12535 0.45471 0.10589 0.0
H750 H 0.1595 0.45233 0.16536 0.0
H751 H 0.14373 0.49804 0.26932 0.0
H752 H 0.10924 0.50053 0.21108 0.0
H753 H 0.13475 0.53014 0.23089 0.0
H754 H 0.17316 0.54827 0.94162 0.0
H755 H 0.12228 0.54498 0.87616 0.0
H756 H 0.09232 0.49275 0.05002 0.0
C757 C 0.2072 0.49674 0.18927 0.0
C758 C 0.23757 0.50527 0.17789 0.0
C759 C 0.24272 0.52304 0.11924 0.0
C760 C 0.21857 0.53081 0.07001 0.0
C761 C 0.18926 0.52075 0.08011 0.0
C762 C 0.18354 0.50428 0.13914 0.0
C763 C 0.1507 0.49441 0.13453 0.0
C764 C 0.14934 0.4617 0.11406 0.0
C765 C 0.1336 0.50651 0.21631 0.0
C766 C 0.1387 0.50746 0.06254 0.0
C767 C 0.16117 0.52284 0.03252 0.0
C768 C 0.1555 0.53642 0.96531 0.0
C769 C 0.12637 0.53438 0.92828 0.0
C770 C 0.10293 0.51857 0.95733 0.0
C771 C 0.1095 0.50497 0.0257 0.0
H772 H 0.99141 0.81046 0.49357 0.0
H773 H 0.04571 0.76858 0.65676 0.0
H774 H 0.03941 0.81066 0.77025 0.0
H775 H 0.02803 0.86985 0.53677 0.0
H776 H 0.99705 0.89459 0.53083 0.0
H777 H 0.99496 0.85864 0.47439 0.0
H778 H 0.94422 0.85144 0.54816 0.0
H779 H 0.94547 0.88786 0.60327 0.0
H780 H 0.94198 0.85938 0.66067 0.0
H781 H 0.03892 0.86085 0.85083 0.0
H782 H 0.04192 0.91307 0.89376 0.0
H783 H 0.9911 0.92339 0.67282 0.0
C784 C 0.99979 0.80939 0.55544 0.0
C785 C 1.01795 0.78593 0.56781 0.0
C786 C 0.03064 0.78587 0.64744 0.0
C787 C 0.02748 0.80991 0.71182 0.0
C788 C 1.01173 0.83383 0.69516 0.0
C789 C 0.99764 0.83356 0.61902 0.0
C790 C 0.98762 0.86331 0.60985 0.0
C791 C 1.00283 0.87209 0.53351 0.0
C792 C 0.95275 0.86563 0.60525 0.0
C793 C 0.99945 0.88054 0.69076 0.0
C794 C 1.01272 0.86318 0.73999 0.0
C795 C 0.02789 0.87456 0.8137 0.0
C796 C 0.02964 0.90432 0.83735 0.0
C797 C 1.01667 0.92246 0.78688 0.0
C798 C 1.00096 0.91022 0.71344 0.0
H799 H 0.72203 0.95382 0.45539 0.0
H800 H 0.76035 0.0382 0.50963 0.0
H801 H 0.71811 0.05413 0.61015 0.0
H802 H 0.64597 0.97678 0.44953 0.0
H803 H 0.6305 0.94838 0.49425 0.0
H804 H 0.66575 0.94289 0.43659 0.0
H805 H 0.69283 0.92836 0.56364 0.0
H806 H 0.65756 0.93354 0.62157 0.0
H807 H 0.69114 0.95208 0.66383 0.0
H808 H 0.66757 0.06156 0.69734 0.0
H809 H 0.61665 0.05958 0.76063 0.0
H810 H 0.61063 0.97062 0.64279 0.0
C811 C 0.72197 0.97563 0.48921 0.0
C812 C 0.74495 0.99468 0.47388 0.0
C813 C 0.74362 0.02294 0.5204 0.0
C814 C 0.71939 0.03224 0.57728 0.0
C815 C 0.69647 0.01311 0.5876 0.0
C816 C 0.69783 0.98528 0.54489 0.0
C817 C 0.66965 0.96917 0.56197 0.0
C818 C 0.65193 0.9587 0.48077 0.0
C819 C 0.67832 0.94432 0.60534 0.0
C820 C 0.65181 0.99223 0.62058 0.0
C821 C 0.6677 0.01741 0.63535 0.0
C822 C 0.65528 0.04179 0.6863 0.0
C823 C 0.62618 0.04043 0.72243 0.0
C824 C 0.60928 0.01491 0.70791 0.0
C825 C 0.62267 0.99052 0.65607 0.0
H826 H 0.51332 0.76644 0.41472 0.0
H827 H 0.60313 0.77295 0.31136 0.0
H828 H 0.62373 0.74016 0.39911 0.0
H829 H 0.53846 0.75503 0.63103 0.0
H830 H 0.50841 0.72996 0.63269 0.0
H831 H 0.5028 0.75951 0.57987 0.0
H832 H 0.48872 0.72417 0.44489 0.0
H833 H 0.49502 0.69449 0.49603 0.0
H834 H 0.51544 0.69623 0.40125 0.0
H835 H 0.63181 0.69885 0.47339 0.0
H836 H 0.62783 0.65602 0.53582 0.0
H837 H 0.53236 0.67626 0.5913 0.0
C838 C 0.53763 0.76213 0.41412 0.0
C839 C 0.55677 0.77258 0.35737 0.0
C840 C 0.58827 0.76578 0.3559 0.0
C841 C 0.60006 0.74692 0.40501 0.0
C842 C 0.58009 0.73536 0.45591 0.0
C843 C 0.5496 0.74323 0.46216 0.0
C844 C 0.53208 0.7252 0.51249 0.0
C845 C 0.51971 0.74352 0.59387 0.0
C846 C 0.50632 0.70908 0.46053 0.0
C847 C 0.55708 0.70497 0.53013 0.0
C848 C 0.5847 0.71141 0.49816 0.0
C849 C 0.61048 0.69415 0.50066 0.0
C850 C 0.60797 0.6698 0.53656 0.0
C851 C 0.57981 0.66265 0.56939 0.0
C852 C 0.55422 0.68089 0.56678 0.0
H853 H 0.83512 0.50172 0.40627 0.0
H854 H 0.76316 0.51416 0.59194 0.0
H855 H 0.802 0.52246 0.70435 0.0
H856 H 0.88453 0.46279 0.51038 0.0
H857 H 0.91915 0.47774 0.47965 0.0
H858 H 0.88587 0.47635 0.41463 0.0
H859 H 0.88784 0.53078 0.42129 0.0
H860 H 0.92147 0.53232 0.48525 0.0
H861 H 0.8887 0.55447 0.52153 0.0
H862 H 0.85019 0.52305 0.79722 0.0
H863 H 0.90154 0.52164 0.85966 0.0
H864 H 0.94192 0.51009 0.61249 0.0
C865 C 0.82746 0.50716 0.4706 0.0
C866 C 0.79584 0.50772 0.48993 0.0
C867 C 0.78701 0.51427 0.57515 0.0
C868 C 0.80905 0.51866 0.6395 0.0
C869 C 0.84004 0.51673 0.6181 0.0
C870 C 0.84914 0.51169 0.53534 0.0
C871 C 0.8837 0.50944 0.52816 0.0
C872 C 0.8939 0.47983 0.48039 0.0
C873 C 0.89616 0.53317 0.48661 0.0
C874 C 0.89282 0.5137 0.61968 0.0
C875 C 0.86734 0.51767 0.67079 0.0
C876 C 0.87018 0.52043 0.75745 0.0
C877 C 0.89955 0.51947 0.79254 0.0
C878 C 0.92609 0.51609 0.74164 0.0
C879 C 0.92234 0.51318 0.65382 0.0
loop_
_geom_bond_atom_site_label_1
_geom_bond_atom_site_label_2
_geom_bond_distance
_geom_bond_site_symmetry_2
_ccdc_geom_bond_type
H0 C3 0.931 . S
H1 C6 0.928 . S
H2 C8 0.930 . S
C3 H0 0.931 . S
C3 C4 1.413 . S
C3 C5 1.360 . S
C4 C3 1.413 . S
C4 C8 1.429 . S
C5 C3 1.360 . S
C5 C6 1.372 . S
C6 H1 0.928 . S
C6 C5 1.372 . S
C6 C7 1.404 . S
C7 C6 1.404 . S
C7 C8 1.391 . S
C8 H2 0.930 . S
C8 C4 1.429 . S
C8 C7 1.391 . S
H9 C12 0.931 . S
H10 C15 0.928 . S
H11 C17 0.930 . S
C12 H9 0.931 . S
C12 C13 1.413 . S
C12 C14 1.360 . S
C13 C12 1.413 . S
C13 C17 1.429 1_655 S
C14 C12 1.360 . S
C14 C15 1.373 . S
C15 H10 0.928 . S
C15 C14 1.373 . S
C15 C16 1.404 . S
C16 C15 1.404 . S
C16 C17 1.390 1_655 S
C17 H11 0.930 . S
C17 C13 1.429 1_455 S
C17 C16 1.390 1_455 S
H18 C21 0.930 . S
H19 C24 0.928 . S
H20 C26 0.933 . S
C21 H18 0.930 . S
C21 C22 1.414 . S
C21 C23 1.360 . S
C22 C21 1.414 . S
C22 C26 1.429 1_565 S
C23 C21 1.360 . S
C23 C24 1.371 . S
C24 H19 0.928 . S
C24 C23 1.371 . S
C24 C25 1.402 . S
C25 C24 1.402 . S
C25 C26 1.393 1_565 S
C26 H20 0.933 . S
C26 C22 1.429 1_545 S
C26 C25 1.393 1_545 S
H27 C30 0.931 . S
H28 C33 0.928 . S
H29 C35 0.930 . S
C30 H27 0.931 . S
C30 C31 1.413 1_554 S
C30 C32 1.360 . S
C31 C30 1.413 1_556 S
C31 C35 1.429 . S
C32 C30 1.360 . S
C32 C33 1.372 . S
C33 H28 0.928 . S
C33 C32 1.372 . S
C33 C34 1.404 1_554 S
C34 C33 1.404 1_556 S
C34 C35 1.391 . S
C35 H29 0.930 . S
C35 C31 1.429 . S
C35 C34 1.391 . S
H36 C39 0.931 . S
H37 C42 0.928 . S
H38 C44 0.930 . S
C39 H36 0.931 . S
C39 C40 1.413 . S
C39 C41 1.360 . S
C40 C39 1.413 . S
C40 C44 1.429 . S
C41 C39 1.360 . S
C41 C42 1.372 . S
C42 H37 0.928 . S
C42 C41 1.372 . S
C42 C43 1.404 . S
C43 C42 1.404 . S
C43 C44 1.391 . S
C44 H38 0.930 . S
C44 C40 1.429 . S
C44 C43 1.391 . S
H45 C48 0.930 . S
H46 C51 0.928 . S
H47 C53 0.929 . S
C48 H45 0.930 . S
C48 C49 1.413 . S
C48 C50 1.360 . S
C49 C48 1.413 . S
C49 C53 1.429 1_655 S
C50 C48 1.360 . S
C50 C51 1.372 . S
C51 H46 0.928 . S
C51 C50 1.372 . S
C51 C52 1.404 . S
C52 C51 1.404 . S
C52 C53 1.391 1_655 S
C53 H47 0.929 . S
C53 C49 1.429 1_455 S
C53 C52 1.391 1_455 S
H54 C57 0.931 . S
H55 C60 0.928 . S
H56 C62 0.926 . S
C57 H54 0.931 . S
C57 C58 1.412 . S
C57 C59 1.360 . S
C58 C57 1.412 . S
C58 C62 1.430 1_565 S
C59 C57 1.360 . S
C59 C60 1.373 . S
C60 H55 0.928 . S
C60 C59 1.373 . S
C60 C61 1.405 . S
C61 C60 1.405 . S
C61 C62 1.388 1_565 S
C62 H56 0.926 . S
C62 C58 1.430 1_545 S
C62 C61 1.388 1_545 S
H63 C66 0.931 . S
H64 C69 0.928 . S
H65 C71 0.930 . S
C66 H63 0.931 . S
C66 C67 1.413 . S
C66 C68 1.360 . S
C67 C66 1.413 . S
C67 C71 1.429 . S
C68 C66 1.360 . S
C68 C69 1.372 . S
C69 H64 0.928 . S
C69 C68 1.372 . S
C69 C70 1.404 . S
C70 C69 1.404 . S
C70 C71 1.391 . S
C71 H65 0.930 . S
C71 C67 1.429 . S
C71 C70 1.391 . S
Tb72 C81 2.764 . S
Tb72 O82 2.325 . S
Tb72 O85 2.303 1_655 S
Tb72 O89 2.322 1_545 S
Tb72 O90 2.349 . S
Tb72 O93 2.415 . S
Tb72 O94 2.399 . S
Tb73 O83 2.322 1_565 S
Tb73 O84 2.349 . S
Tb73 O86 2.415 . S
Tb73 O87 2.399 . S
Tb73 O88 2.325 . S
Tb73 O91 2.303 1_455 S
Tb73 C102 2.764 . S
C74 O90 1.261 . S
C74 O91 1.257 1_545 S
C75 C78 1.358 . S
C75 C79 1.332 . S
C75 C81 1.504 . S
C76 C77 1.373 . S
C76 C80 1.308 . S
C77 C76 1.373 . S
C77 C78 1.429 . S
C77 H104 0.932 . S
C78 C75 1.358 . S
C78 C77 1.429 . S
C78 H105 0.930 . S
C79 C75 1.332 . S
C79 C80 1.394 . S
C79 H106 0.909 1_655 S
C80 C76 1.308 . S
C80 C79 1.394 . S
C80 H107 0.929 . S
C81 Tb72 2.764 . S
C81 C75 1.504 . S
C81 O93 1.239 . S
C81 O94 1.263 . S
O82 Tb72 2.325 . S
O82 C92 1.236 1_655 S
O83 Tb73 2.322 1_545 S
O83 C92 1.257 . S
O84 Tb73 2.349 . S
O84 C95 1.261 . S
O85 Tb72 2.303 1_455 S
O85 C95 1.257 1_545 S
O86 Tb73 2.415 . S
O86 C102 1.239 . S
O87 Tb73 2.399 . S
O87 C102 1.263 . S
O88 Tb73 2.325 . S
O88 C103 1.236 1_455 S
O89 Tb72 2.322 1_565 S
O89 C103 1.257 . S
O90 Tb72 2.349 . S
O90 C74 1.261 . S
O91 Tb73 2.303 1_655 S
O91 C74 1.257 1_565 S
C92 O82 1.236 1_455 S
C92 O83 1.257 . S
O93 Tb72 2.415 . S
O93 C81 1.239 . S
O94 Tb72 2.399 . S
O94 C81 1.263 . S
C95 O84 1.261 . S
C95 O85 1.257 1_565 S
C96 C99 1.358 1_556 S
C96 C100 1.332 1_556 S
C96 C102 1.504 . S
C97 C98 1.373 . S
C97 C101 1.308 . S
C98 C97 1.373 . S
C98 C99 1.429 . S
C98 H108 0.932 . S
C99 C96 1.358 1_554 S
C99 C98 1.429 . S
C99 H109 0.930 1_554 S
C100 C96 1.332 1_554 S
C100 C101 1.394 . S
C100 H110 0.918 1_455 S
C101 C97 1.308 . S
C101 C100 1.394 . S
C101 H111 0.929 . S
C102 Tb73 2.764 . S
C102 O86 1.239 . S
C102 O87 1.263 . S
C102 C96 1.504 . S
C103 O88 1.236 1_655 S
C103 O89 1.257 . S
H104 C77 0.932 . S
H105 C78 0.930 . S
H106 C79 0.909 1_455 S
H107 C80 0.929 . S
H108 C98 0.932 . S
H109 C99 0.930 1_556 S
H110 C100 0.918 1_655 S
H111 C101 0.929 . S
Tb112 C121 2.764 . S
Tb112 O122 2.325 . S
Tb112 O125 2.303 1_565 S
Tb112 O129 2.322 . S
Tb112 O130 2.349 . S
Tb112 O133 2.415 1_565 S
Tb112 O134 2.399 . S
Tb113 O123 2.322 . S
Tb113 O124 2.349 . S
Tb113 O126 2.415 1_545 S
Tb113 O127 2.399 . S
Tb113 O128 2.325 . S
Tb113 O131 2.303 1_545 S
Tb113 C142 2.764 1_556 S
C114 O130 1.261 . S
C114 O131 1.257 . S
C115 C118 1.358 . S
C115 C119 1.313 1_565 S
C115 C121 1.504 . S
C116 C117 1.373 . S
C116 C120 1.308 . S
C117 C116 1.373 . S
C117 C118 1.429 . S
C117 H144 0.932 . S
C118 C115 1.358 . S
C118 C117 1.429 . S
C118 H145 0.930 . S
C119 C115 1.313 1_545 S
C119 C120 1.395 1_545 S
C119 H146 0.951 . S
C120 C116 1.308 . S
C120 C119 1.395 1_565 S
C120 H147 0.929 1_565 S
C121 Tb112 2.764 . S
C121 C115 1.504 . S
C121 O133 1.239 1_565 S
C121 O134 1.263 . S
O122 Tb112 2.325 . S
O122 C132 1.236 1_565 S
O123 Tb113 2.322 . S
O123 C132 1.257 . S
O124 Tb113 2.349 . S
O124 C135 1.261 . S
O125 Tb112 2.303 1_545 S
O125 C135 1.257 . S
O126 Tb113 2.415 1_565 S
O126 C142 1.239 1_566 S
O127 Tb113 2.399 . S
O127 C142 1.263 1_556 S
O128 Tb113 2.325 . S
O128 C143 1.236 1_545 S
O129 Tb112 2.322 . S
O129 C143 1.257 . S
O130 Tb112 2.349 . S
O130 C114 1.261 . S
O131 Tb113 2.303 1_565 S
O131 C114 1.257 . S
C132 O122 1.236 1_545 S
C132 O123 1.257 . S
O133 Tb112 2.415 1_545 S
O133 C121 1.239 1_545 S
O134 Tb112 2.399 . S
O134 C121 1.263 . S
C135 O124 1.261 . S
C135 O125 1.257 . S
C136 C139 1.358 . S
C136 C140 1.320 1_545 S
C136 C142 1.504 . S
C137 C138 1.373 . S
C137 C141 1.308 . S
C138 C137 1.373 . S
C138 C139 1.429 . S
C138 H148 0.932 . S
C139 C136 1.358 . S
C139 C138 1.429 . S
C139 H149 0.930 . S
C140 C136 1.320 1_565 S
C140 C141 1.395 1_565 S
C140 H150 0.944 . S
C141 C137 1.308 . S
C141 C140 1.395 1_545 S
C141 H151 0.929 1_545 S
C142 Tb113 2.764 1_554 S
C142 O126 1.239 1_544 S
C142 O127 1.263 1_554 S
C142 C136 1.504 . S
C143 O128 1.236 1_565 S
C143 O129 1.257 . S
H144 C117 0.932 . S
H145 C118 0.930 . S
H146 C119 0.951 . S
H147 C120 0.929 1_545 S
H148 C138 0.932 . S
H149 C139 0.930 . S
H150 C140 0.944 . S
H151 C141 0.929 1_565 S
Tb152 C161 2.764 1_556 S
Tb152 O162 2.325 . S
Tb152 O165 2.303 . S
Tb152 O169 2.322 . S
Tb152 O170 2.349 . S
Tb152 O173 2.415 1_556 S
Tb152 O174 2.399 . S
Tb153 O163 2.322 . S
Tb153 O164 2.349 . S
Tb153 O166 2.415 . S
Tb153 O167 2.399 . S
Tb153 O168 2.325 . S
Tb153 O171 2.303 . S
Tb153 C182 2.764 . S
C154 O170 1.261 . S
C154 O171 1.257 . S
C155 C158 1.358 . S
C155 C159 1.332 . S
C155 C161 1.504 . S
C156 C157 1.373 . S
C156 C160 1.308 . S
C157 C156 1.373 . S
C157 C158 1.429 . S
C157 H184 0.932 . S
C158 C155 1.358 . S
C158 C157 1.429 . S
C158 H185 0.930 . S
C159 C155 1.332 . S
C159 C160 1.394 . S
C159 H186 0.932 . S
C160 C156 1.308 . S
C160 C159 1.394 . S
C160 H187 0.929 . S
C161 Tb152 2.764 1_554 S
C161 C155 1.504 . S
C161 O173 1.239 . S
C161 O174 1.263 1_554 S
O162 Tb152 2.325 . S
O162 C172 1.236 . S
O163 Tb153 2.322 . S
O163 C172 1.257 . S
O164 Tb153 2.349 . S
O164 C175 1.261 . S
O165 Tb152 2.303 . S
O165 C175 1.257 . S
O166 Tb153 2.415 . S
O166 C182 1.239 . S
O167 Tb153 2.399 . S
O167 C182 1.263 . S
O168 Tb153 2.325 . S
O168 C183 1.236 . S
O169 Tb152 2.322 . S
O169 C183 1.257 . S
O170 Tb152 2.349 . S
O170 C154 1.261 . S
O171 Tb153 2.303 . S
O171 C154 1.257 . S
C172 O162 1.236 . S
C172 O163 1.257 . S
O173 Tb152 2.415 1_554 S
O173 C161 1.239 . S
O174 Tb152 2.399 . S
O174 C161 1.263 1_556 S
C175 O164 1.261 . S
C175 O165 1.257 . S
C176 C179 1.358 . S
C176 C180 1.332 . S
C176 C182 1.504 . S
C177 C178 1.373 . S
C177 C181 1.308 . S
C178 C177 1.373 . S
C178 C179 1.429 . S
C178 H188 0.932 . S
C179 C176 1.358 . S
C179 C178 1.429 . S
C179 H189 0.930 . S
C180 C176 1.332 . S
C180 C181 1.394 . S
C180 H190 0.932 . S
C181 C177 1.308 . S
C181 C180 1.394 . S
C181 H191 0.929 . S
C182 Tb153 2.764 . S
C182 O166 1.239 . S
C182 O167 1.263 . S
C182 C176 1.504 . S
C183 O168 1.236 . S
C183 O169 1.257 . S
H184 C157 0.932 . S
H185 C158 0.930 . S
H186 C159 0.932 . S
H187 C160 0.929 . S
H188 C178 0.932 . S
H189 C179 0.930 . S
H190 C180 0.932 . S
H191 C181 0.929 . S
Tb192 C201 2.764 . S
Tb192 O202 2.325 . S
Tb192 O205 2.303 . S
Tb192 O209 2.322 1_455 S
Tb192 O210 2.349 . S
Tb192 O213 2.415 . S
Tb192 O214 2.399 . S
Tb193 O203 2.322 1_655 S
Tb193 O204 2.349 . S
Tb193 O206 2.415 . S
Tb193 O207 2.399 . S
Tb193 O208 2.325 . S
Tb193 O211 2.303 . S
Tb193 C222 2.764 . S
C194 O210 1.261 . S
C194 O211 1.257 1_455 S
C195 C198 1.358 . S
C195 C199 1.332 . S
C195 C201 1.504 . S
C196 C197 1.373 . S
C196 C200 1.308 . S
C197 C196 1.373 . S
C197 C198 1.429 . S
C197 H224 0.932 . S
C198 C195 1.358 . S
C198 C197 1.429 . S
C198 H225 0.930 . S
C199 C195 1.332 . S
C199 C200 1.394 . S
C199 H226 0.932 . S
C200 C196 1.308 . S
C200 C199 1.394 . S
C200 H227 0.929 . S
C201 Tb192 2.764 . S
C201 C195 1.504 . S
C201 O213 1.239 . S
C201 O214 1.263 . S
O202 Tb192 2.325 . S
O202 C212 1.236 . S
O203 Tb193 2.322 1_455 S
O203 C212 1.257 . S
O204 Tb193 2.349 . S
O204 C215 1.261 . S
O205 Tb192 2.303 . S
O205 C215 1.257 1_455 S
O206 Tb193 2.415 . S
O206 C222 1.239 . S
O207 Tb193 2.399 . S
O207 C222 1.263 . S
O208 Tb193 2.325 . S
O208 C223 1.236 . S
O209 Tb192 2.322 1_655 S
O209 C223 1.257 . S
O210 Tb192 2.349 . S
O210 C194 1.261 . S
O211 Tb193 2.303 . S
O211 C194 1.257 1_655 S
C212 O202 1.236 . S
C212 O203 1.257 . S
O213 Tb192 2.415 . S
O213 C201 1.239 . S
O214 Tb192 2.399 . S
O214 C201 1.263 . S
C215 O204 1.261 . S
C215 O205 1.257 1_655 S
C216 C219 1.358 . S
C216 C220 1.332 . S
C216 C222 1.504 1_554 S
C217 C218 1.373 . S
C217 C221 1.308 . S
C218 C217 1.373 . S
C218 C219 1.429 . S
C218 H228 0.932 . S
C219 C216 1.358 . S
C219 C218 1.429 . S
C219 H229 0.930 . S
C220 C216 1.332 . S
C220 C221 1.394 . S
C220 H230 0.932 . S
C221 C217 1.308 . S
C221 C220 1.394 . S
C221 H231 0.929 . S
C222 Tb193 2.764 . S
C222 O206 1.239 . S
C222 O207 1.263 . S
C222 C216 1.504 1_556 S
C223 O208 1.236 . S
C223 O209 1.257 . S
H224 C197 0.932 . S
H225 C198 0.930 . S
H226 C199 0.932 . S
H227 C200 0.929 . S
H228 C218 0.932 . S
H229 C219 0.930 . S
H230 C220 0.932 . S
H231 C221 0.929 . S
H232 C244 0.930 . S
H233 C246 0.930 . S
H234 C247 0.930 . S
H235 C251 0.959 . S
H236 C251 0.959 . S
H237 C251 0.961 . S
H238 C252 0.960 . S
H239 C252 0.961 . S
H240 C252 0.959 . S
H241 C255 0.929 . S
H242 C256 0.931 . S
H243 C258 0.930 . S
C244 H232 0.930 . S
C244 C245 1.399 1_545 S
C244 C249 1.399 . S
C245 C244 1.399 1_565 S
C245 C246 1.376 . S
C246 H233 0.930 . S
C246 C245 1.376 . S
C246 C247 1.388 . S
C247 H234 0.930 . S
C247 C246 1.388 . S
C247 C248 1.390 . S
C248 C247 1.390 . S
C248 C249 1.394 1_565 S
C248 C254 1.465 . S
C249 C244 1.399 . S
C249 C248 1.394 1_545 S
C249 C250 1.516 . S
C250 C249 1.516 . S
C250 C251 1.502 . S
C250 C252 1.561 . S
C250 C253 1.526 . S
C251 H235 0.959 . S
C251 H236 0.959 . S
C251 H237 0.961 . S
C251 C250 1.502 . S
C252 H238 0.960 . S
C252 H239 0.961 . S
C252 H240 0.959 . S
C252 C250 1.561 . S
C253 C250 1.526 . S
C253 C254 1.396 1_545 S
C253 C258 1.390 . S
C254 C248 1.465 . S
C254 C253 1.396 1_565 S
C254 C255 1.399 . S
C255 H241 0.929 . S
C255 C254 1.399 . S
C255 C256 1.385 . S
C256 H242 0.931 . S
C256 C255 1.385 . S
C256 C257 1.397 . S
C257 C256 1.397 . S
C257 C258 1.379 1_565 S
C258 H243 0.930 . S
C258 C253 1.390 . S
C258 C257 1.379 1_545 S
H259 C271 0.930 . S
H260 C273 0.930 . S
H261 C274 0.930 . S
H262 C278 0.959 . S
H263 C278 0.959 . S
H264 C278 0.961 . S
H265 C279 0.960 . S
H266 C279 0.961 . S
H267 C279 0.959 . S
H268 C282 0.929 . S
H269 C283 0.931 . S
H270 C285 0.930 . S
C271 H259 0.930 . S
C271 C272 1.399 . S
C271 C276 1.399 . S
C272 C271 1.399 . S
C272 C273 1.376 . S
C273 H260 0.930 . S
C273 C272 1.376 . S
C273 C274 1.388 . S
C274 H261 0.930 . S
C274 C273 1.388 . S
C274 C275 1.390 . S
C275 C274 1.390 . S
C275 C276 1.394 . S
C275 C281 1.465 . S
C276 C271 1.399 . S
C276 C275 1.394 . S
C276 C277 1.516 . S
C277 C276 1.516 . S
C277 C278 1.502 . S
C277 C279 1.561 . S
C277 C280 1.526 . S
C278 H262 0.959 . S
C278 H263 0.959 . S
C278 H264 0.961 . S
C278 C277 1.502 . S
C279 H265 0.960 . S
C279 H266 0.961 . S
C279 H267 0.959 . S
C279 C277 1.561 . S
C280 C277 1.526 . S
C280 C281 1.396 . S
C280 C285 1.390 . S
C281 C275 1.465 . S
C281 C280 1.396 . S
C281 C282 1.399 . S
C282 H268 0.929 . S
C282 C281 1.399 . S
C282 C283 1.385 . S
C283 H269 0.931 . S
C283 C282 1.385 . S
C283 C284 1.389 . S
C284 C283 1.389 . S
C284 C285 1.387 . S
C285 H270 0.930 . S
C285 C280 1.390 . S
C285 C284 1.387 . S
H286 C298 0.930 . S
H287 C300 0.930 . S
H288 C301 0.930 . S
H289 C305 0.959 . S
H290 C305 0.959 . S
H291 C305 0.961 . S
H292 C306 0.960 . S
H293 C306 0.961 . S
H294 C306 0.959 . S
H295 C309 0.929 . S
H296 C310 0.931 . S
H297 C312 0.930 . S
C298 H286 0.930 . S
C298 C299 1.399 . S
C298 C303 1.399 . S
C299 C298 1.399 . S
C299 C300 1.376 . S
C300 H287 0.930 . S
C300 C299 1.376 . S
C300 C301 1.388 . S
C301 H288 0.930 . S
C301 C300 1.388 . S
C301 C302 1.390 . S
C302 C301 1.390 . S
C302 C303 1.394 . S
C302 C308 1.465 . S
C303 C298 1.399 . S
C303 C302 1.394 . S
C303 C304 1.516 . S
C304 C303 1.516 . S
C304 C305 1.502 . S
C304 C306 1.561 . S
C304 C307 1.526 . S
C305 H289 0.959 . S
C305 H290 0.959 . S
C305 H291 0.961 . S
C305 C304 1.502 . S
C306 H292 0.960 . S
C306 H293 0.961 . S
C306 H294 0.959 . S
C306 C304 1.561 . S
C307 C304 1.526 . S
C307 C308 1.396 . S
C307 C312 1.390 . S
C308 C302 1.465 . S
C308 C307 1.396 . S
C308 C309 1.399 . S
C309 H295 0.929 . S
C309 C308 1.399 . S
C309 C310 1.385 . S
C310 H296 0.931 . S
C310 C309 1.385 . S
C310 C311 1.389 . S
C311 C310 1.389 . S
C311 C312 1.387 . S
C312 H297 0.930 . S
C312 C307 1.390 . S
C312 C311 1.387 . S
H313 C325 0.930 . S
H314 C327 0.930 . S
H315 C328 0.930 . S
H316 C332 0.959 . S
H317 C332 0.959 . S
H318 C332 0.961 . S
H319 C333 0.960 . S
H320 C333 0.961 . S
H321 C333 0.959 1_655 S
H322 C336 0.929 . S
H323 C337 0.931 . S
H324 C339 0.930 . S
C325 H313 0.930 . S
C325 C326 1.399 1_455 S
C325 C330 1.399 . S
C326 C325 1.399 1_655 S
C326 C327 1.376 . S
C327 H314 0.930 . S
C327 C326 1.376 . S
C327 C328 1.388 . S
C328 H315 0.930 . S
C328 C327 1.388 . S
C328 C329 1.390 . S
C329 C328 1.390 . S
C329 C330 1.394 1_655 S
C329 C335 1.465 . S
C330 C325 1.399 . S
C330 C329 1.394 1_455 S
C330 C331 1.516 . S
C331 C330 1.516 . S
C331 C332 1.502 . S
C331 C333 1.561 . S
C331 C334 1.526 . S
C332 H316 0.959 . S
C332 H317 0.959 . S
C332 H318 0.961 . S
C332 C331 1.502 . S
C333 H319 0.960 . S
C333 H320 0.961 . S
C333 H321 0.959 1_455 S
C333 C331 1.561 . S
C334 C331 1.526 . S
C334 C335 1.396 1_455 S
C334 C339 1.390 . S
C335 C329 1.465 . S
C335 C334 1.396 1_655 S
C335 C336 1.399 . S
C336 H322 0.929 . S
C336 C335 1.399 . S
C336 C337 1.385 . S
C337 H323 0.931 . S
C337 C336 1.385 . S
C337 C338 1.395 . S
C338 C337 1.395 . S
C338 C339 1.383 1_655 S
C339 H324 0.930 . S
C339 C334 1.390 . S
C339 C338 1.383 1_455 S
H340 C352 0.930 . S
H341 C354 0.930 . S
H342 C355 0.930 . S
H343 C359 0.959 . S
H344 C359 0.959 . S
H345 C359 0.961 . S
H346 C360 0.960 . S
H347 C360 0.961 . S
H348 C360 0.959 . S
H349 C363 0.929 . S
H350 C364 0.931 1_556 S
H351 C366 0.930 . S
C352 H340 0.930 . S
C352 C353 1.399 1_545 S
C352 C357 1.399 . S
C353 C352 1.399 1_565 S
C353 C354 1.376 . S
C354 H341 0.930 . S
C354 C353 1.376 . S
C354 C355 1.388 . S
C355 H342 0.930 . S
C355 C354 1.388 . S
C355 C356 1.390 . S
C356 C355 1.390 . S
C356 C357 1.394 1_565 S
C356 C362 1.465 . S
C357 C352 1.399 . S
C357 C356 1.394 1_545 S
C357 C358 1.516 . S
C358 C357 1.516 . S
C358 C359 1.502 . S
C358 C360 1.561 . S
C358 C361 1.526 . S
C359 H343 0.959 . S
C359 H344 0.959 . S
C359 H345 0.961 . S
C359 C358 1.502 . S
C360 H346 0.960 . S
C360 H347 0.961 . S
C360 H348 0.959 . S
C360 C358 1.561 . S
C361 C358 1.526 . S
C361 C362 1.396 1_545 S
C361 C366 1.390 . S
C362 C356 1.465 . S
C362 C361 1.396 1_565 S
C362 C363 1.399 . S
C363 H349 0.929 . S
C363 C362 1.399 . S
C363 C364 1.385 . S
C364 H350 0.931 1_554 S
C364 C363 1.385 . S
C364 C365 1.389 1_554 S
C365 C364 1.389 1_556 S
C365 C366 1.387 1_566 S
C366 H351 0.930 . S
C366 C361 1.390 . S
C366 C365 1.387 1_544 S
H367 C379 0.930 . S
H368 C381 0.930 . S
H369 C382 0.930 . S
H370 C386 0.959 . S
H371 C386 0.959 . S
H372 C386 0.961 . S
H373 C387 0.960 . S
H374 C387 0.961 . S
H375 C387 0.959 . S
H376 C390 0.929 1_554 S
H377 C391 0.931 . S
H378 C393 0.930 . S
C379 H367 0.930 . S
C379 C380 1.399 . S
C379 C384 1.399 . S
C380 C379 1.399 . S
C380 C381 1.376 1_556 S
C381 H368 0.930 . S
C381 C380 1.376 1_554 S
C381 C382 1.388 . S
C382 H369 0.930 . S
C382 C381 1.388 . S
C382 C383 1.390 1_554 S
C383 C382 1.390 1_556 S
C383 C384 1.394 . S
C383 C389 1.465 . S
C384 C379 1.399 . S
C384 C383 1.394 . S
C384 C385 1.516 . S
C385 C384 1.516 . S
C385 C386 1.502 . S
C385 C387 1.561 . S
C385 C388 1.526 . S
C386 H370 0.959 . S
C386 H371 0.959 . S
C386 H372 0.961 . S
C386 C385 1.502 . S
C387 H373 0.960 . S
C387 H374 0.961 . S
C387 H375 0.959 . S
C387 C385 1.561 . S
C388 C385 1.526 . S
C388 C389 1.396 . S
C388 C393 1.390 . S
C389 C383 1.465 . S
C389 C388 1.396 . S
C389 C390 1.399 . S
C390 H376 0.929 1_556 S
C390 C389 1.399 . S
C390 C391 1.385 . S
C391 H377 0.931 . S
C391 C390 1.385 . S
C391 C392 1.389 . S
C392 C391 1.389 . S
C392 C393 1.387 . S
C393 H378 0.930 . S
C393 C388 1.390 . S
C393 C392 1.387 . S
H394 C406 0.930 . S
H395 C408 0.930 . S
H396 C409 0.930 . S
H397 C413 0.959 . S
H398 C413 0.959 . S
H399 C413 0.961 . S
H400 C414 0.960 . S
H401 C414 0.961 . S
H402 C414 0.959 . S
H403 C417 0.929 . S
H404 C418 0.931 1_556 S
H405 C420 0.930 . S
C406 H394 0.930 . S
C406 C407 1.399 . S
C406 C411 1.399 . S
C407 C406 1.399 . S
C407 C408 1.376 . S
C408 H395 0.930 . S
C408 C407 1.376 . S
C408 C409 1.388 . S
C409 H396 0.930 . S
C409 C408 1.388 . S
C409 C410 1.390 . S
C410 C409 1.390 . S
C410 C411 1.394 . S
C410 C416 1.465 . S
C411 C406 1.399 . S
C411 C410 1.394 . S
C411 C412 1.516 . S
C412 C411 1.516 . S
C412 C413 1.502 . S
C412 C414 1.561 . S
C412 C415 1.526 . S
C413 H397 0.959 . S
C413 H398 0.959 . S
C413 H399 0.961 . S
C413 C412 1.502 . S
C414 H400 0.960 . S
C414 H401 0.961 . S
C414 H402 0.959 . S
C414 C412 1.561 . S
C415 C412 1.526 . S
C415 C416 1.396 . S
C415 C420 1.390 . S
C416 C410 1.465 . S
C416 C415 1.396 . S
C416 C417 1.399 . S
C417 H403 0.929 . S
C417 C416 1.399 . S
C417 C418 1.385 . S
C418 H404 0.931 1_554 S
C418 C417 1.385 . S
C418 C419 1.390 1_554 S
C419 C418 1.390 1_556 S
C419 C420 1.379 1_556 S
C420 H405 0.930 . S
C420 C415 1.390 . S
C420 C419 1.379 1_554 S
H421 C433 0.930 . S
H422 C435 0.930 . S
H423 C436 0.930 . S
H424 C440 0.959 . S
H425 C440 0.959 . S
H426 C440 0.961 . S
H427 C441 0.960 . S
H428 C441 0.961 . S
H429 C441 0.959 . S
H430 C444 0.929 . S
H431 C445 0.931 . S
H432 C447 0.930 . S
C433 H421 0.930 . S
C433 C434 1.399 1_455 S
C433 C438 1.399 . S
C434 C433 1.399 1_655 S
C434 C435 1.376 . S
C435 H422 0.930 . S
C435 C434 1.376 . S
C435 C436 1.388 . S
C436 H423 0.930 . S
C436 C435 1.388 . S
C436 C437 1.390 . S
C437 C436 1.390 . S
C437 C438 1.394 1_655 S
C437 C443 1.465 . S
C438 C433 1.399 . S
C438 C437 1.394 1_455 S
C438 C439 1.516 . S
C439 C438 1.516 . S
C439 C440 1.502 . S
C439 C441 1.561 . S
C439 C442 1.526 . S
C440 H424 0.959 . S
C440 H425 0.959 . S
C440 H426 0.961 . S
C440 C439 1.502 . S
C441 H427 0.960 . S
C441 H428 0.961 . S
C441 H429 0.959 . S
C441 C439 1.561 . S
C442 C439 1.526 . S
C442 C443 1.396 1_455 S
C442 C447 1.390 . S
C443 C437 1.465 . S
C443 C442 1.396 1_655 S
C443 C444 1.399 . S
C444 H430 0.929 . S
C444 C443 1.399 . S
C444 C445 1.385 1_554 S
C445 H431 0.931 . S
C445 C444 1.385 1_556 S
C445 C446 1.389 . S
C446 C445 1.389 . S
C446 C447 1.387 1_656 S
C447 H432 0.930 . S
C447 C442 1.390 . S
C447 C446 1.387 1_454 S
H448 C460 0.930 1_455 S
H449 C462 0.930 . S
H450 C463 0.930 . S
H451 C467 0.959 . S
H452 C467 0.959 . S
H453 C467 0.961 . S
H454 C468 0.960 . S
H455 C468 0.961 . S
H456 C468 0.959 . S
H457 C471 0.929 . S
H458 C472 0.931 . S
H459 C474 0.930 . S
C460 H448 0.930 1_655 S
C460 C461 1.399 . S
C460 C465 1.399 . S
C461 C460 1.399 . S
C461 C462 1.376 . S
C462 H449 0.930 . S
C462 C461 1.376 . S
C462 C463 1.388 . S
C463 H450 0.930 . S
C463 C462 1.388 . S
C463 C464 1.390 . S
C464 C463 1.390 . S
C464 C465 1.394 . S
C464 C470 1.465 . S
C465 C460 1.399 . S
C465 C464 1.394 . S
C465 C466 1.516 . S
C466 C465 1.516 . S
C466 C467 1.502 1_655 S
C466 C468 1.561 . S
C466 C469 1.526 . S
C467 H451 0.959 . S
C467 H452 0.959 . S
C467 H453 0.961 . S
C467 C466 1.502 1_455 S
C468 H454 0.960 . S
C468 H455 0.961 . S
C468 H456 0.959 . S
C468 C466 1.561 . S
C469 C466 1.526 . S
C469 C470 1.396 . S
C469 C474 1.390 . S
C470 C464 1.465 . S
C470 C469 1.396 . S
C470 C471 1.399 . S
C471 H457 0.929 . S
C471 C470 1.399 . S
C471 C472 1.385 . S
C472 H458 0.931 . S
C472 C471 1.385 . S
C472 C473 1.389 . S
C473 C472 1.389 . S
C473 C474 1.387 . S
C474 H459 0.930 . S
C474 C469 1.390 . S
C474 C473 1.387 . S
H475 C487 0.930 . S
H476 C489 0.930 . S
H477 C490 0.930 . S
H478 C494 0.959 . S
H479 C494 0.959 . S
H480 C494 0.961 . S
H481 C495 0.960 . S
H482 C495 0.961 . S
H483 C495 0.959 1_545 S
H484 C498 0.929 1_545 S
H485 C499 0.931 . S
H486 C501 0.930 . S
C487 H475 0.930 . S
C487 C488 1.399 1_565 S
C487 C492 1.399 . S
C488 C487 1.399 1_545 S
C488 C489 1.376 . S
C489 H476 0.930 . S
C489 C488 1.376 . S
C489 C490 1.388 . S
C490 H477 0.930 . S
C490 C489 1.388 . S
C490 C491 1.379 1_545 S
C491 C490 1.379 1_565 S
C491 C492 1.399 . S
C491 C497 1.474 . S
C492 C487 1.399 . S
C492 C491 1.399 . S
C492 C493 1.516 . S
C493 C492 1.516 . S
C493 C494 1.502 . S
C493 C495 1.561 . S
C493 C496 1.526 . S
C494 H478 0.959 . S
C494 H479 0.959 . S
C494 H480 0.961 . S
C494 C493 1.502 . S
C495 H481 0.960 . S
C495 H482 0.961 . S
C495 H483 0.959 1_565 S
C495 C493 1.561 . S
C496 C493 1.526 . S
C496 C497 1.396 . S
C496 C501 1.390 . S
C497 C491 1.474 . S
C497 C496 1.396 . S
C497 C498 1.399 . S
C498 H484 0.929 1_565 S
C498 C497 1.399 . S
C498 C499 1.385 . S
C499 H485 0.931 . S
C499 C498 1.385 . S
C499 C500 1.389 . S
C500 C499 1.389 . S
C500 C501 1.387 . S
C501 H486 0.930 . S
C501 C496 1.390 . S
C501 C500 1.387 . S
H502 C514 0.930 . S
H503 C516 0.930 . S
H504 C517 0.930 . S
H505 C521 0.959 . S
H506 C521 0.959 . S
H507 C521 0.961 . S
H508 C522 0.960 . S
H509 C522 0.961 . S
H510 C522 0.959 . S
H511 C525 0.929 . S
H512 C526 0.931 . S
H513 C528 0.930 . S
C514 H502 0.930 . S
C514 C515 1.399 . S
C514 C519 1.399 . S
C515 C514 1.399 . S
C515 C516 1.376 . S
C516 H503 0.930 . S
C516 C515 1.376 . S
C516 C517 1.388 . S
C517 H504 0.930 . S
C517 C516 1.388 . S
C517 C518 1.390 . S
C518 C517 1.390 . S
C518 C519 1.394 . S
C518 C524 1.465 . S
C519 C514 1.399 . S
C519 C518 1.394 . S
C519 C520 1.516 . S
C520 C519 1.516 . S
C520 C521 1.502 . S
C520 C522 1.561 . S
C520 C523 1.526 . S
C521 H505 0.959 . S
C521 H506 0.959 . S
C521 H507 0.961 . S
C521 C520 1.502 . S
C522 H508 0.960 . S
C522 H509 0.961 . S
C522 H510 0.959 . S
C522 C520 1.561 . S
C523 C520 1.526 . S
C523 C524 1.396 . S
C523 C528 1.390 . S
C524 C518 1.465 . S
C524 C523 1.396 . S
C524 C525 1.399 . S
C525 H511 0.929 . S
C525 C524 1.399 . S
C525 C526 1.385 . S
C526 H512 0.931 . S
C526 C525 1.385 . S
C526 C527 1.389 . S
C527 C526 1.389 . S
C527 C528 1.387 . S
C528 H513 0.930 . S
C528 C523 1.390 . S
C528 C527 1.387 . S
H529 C541 0.930 . S
H530 C543 0.930 . S
H531 C544 0.930 . S
H532 C548 0.959 . S
H533 C548 0.959 . S
H534 C548 0.961 . S
H535 C549 0.960 . S
H536 C549 0.961 . S
H537 C549 0.959 . S
H538 C552 0.929 . S
H539 C553 0.931 . S
H540 C555 0.930 . S
C541 H529 0.930 . S
C541 C542 1.399 . S
C541 C546 1.399 . S
C542 C541 1.399 . S
C542 C543 1.376 . S
C543 H530 0.930 . S
C543 C542 1.376 . S
C543 C544 1.388 . S
C544 H531 0.930 . S
C544 C543 1.388 . S
C544 C545 1.390 . S
C545 C544 1.390 . S
C545 C546 1.394 . S
C545 C551 1.465 . S
C546 C541 1.399 . S
C546 C545 1.394 . S
C546 C547 1.516 . S
C547 C546 1.516 . S
C547 C548 1.502 . S
C547 C549 1.561 . S
C547 C550 1.526 . S
C548 H532 0.959 . S
C548 H533 0.959 . S
C548 H534 0.961 . S
C548 C547 1.502 . S
C549 H535 0.960 . S
C549 H536 0.961 . S
C549 H537 0.959 . S
C549 C547 1.561 . S
C550 C547 1.526 . S
C550 C551 1.396 . S
C550 C555 1.390 . S
C551 C545 1.465 . S
C551 C550 1.396 . S
C551 C552 1.399 . S
C552 H538 0.929 . S
C552 C551 1.399 . S
C552 C553 1.385 . S
C553 H539 0.931 . S
C553 C552 1.385 . S
C553 C554 1.389 . S
C554 C553 1.389 . S
C554 C555 1.387 . S
C555 H540 0.930 . S
C555 C550 1.390 . S
C555 C554 1.387 . S
H556 C568 0.930 1_655 S
H557 C570 0.930 . S
H558 C571 0.930 . S
H559 C575 0.959 . S
H560 C575 0.959 . S
H561 C575 0.961 . S
H562 C576 0.960 . S
H563 C576 0.961 . S
H564 C576 0.959 . S
H565 C579 0.929 . S
H566 C580 0.931 . S
H567 C582 0.930 . S
C568 H556 0.930 1_455 S
C568 C569 1.399 . S
C568 C573 1.399 . S
C569 C568 1.399 . S
C569 C570 1.376 . S
C570 H557 0.930 . S
C570 C569 1.376 . S
C570 C571 1.388 . S
C571 H558 0.930 . S
C571 C570 1.388 . S
C571 C572 1.390 . S
C572 C571 1.390 . S
C572 C573 1.394 . S
C572 C578 1.465 . S
C573 C568 1.399 . S
C573 C572 1.394 . S
C573 C574 1.516 . S
C574 C573 1.516 . S
C574 C575 1.502 1_455 S
C574 C576 1.561 . S
C574 C577 1.526 . S
C575 H559 0.959 . S
C575 H560 0.959 . S
C575 H561 0.961 . S
C575 C574 1.502 1_655 S
C576 H562 0.960 . S
C576 H563 0.961 . S
C576 H564 0.959 . S
C576 C574 1.561 . S
C577 C574 1.526 . S
C577 C578 1.396 . S
C577 C582 1.390 . S
C578 C572 1.465 . S
C578 C577 1.396 . S
C578 C579 1.399 . S
C579 H565 0.929 . S
C579 C578 1.399 . S
C579 C580 1.385 . S
C580 H566 0.931 . S
C580 C579 1.385 . S
C580 C581 1.389 . S
C581 C580 1.389 . S
C581 C582 1.387 . S
C582 H567 0.930 . S
C582 C577 1.390 . S
C582 C581 1.387 . S
H583 C595 0.930 . S
H584 C597 0.930 . S
H585 C598 0.930 . S
H586 C602 0.959 . S
H587 C602 0.959 . S
H588 C602 0.961 . S
H589 C603 0.960 . S
H590 C603 0.961 . S
H591 C603 0.959 . S
H592 C606 0.929 . S
H593 C607 0.931 . S
H594 C609 0.930 1_565 S
C595 H583 0.930 . S
C595 C596 1.397 1_565 S
C595 C600 1.399 . S
C596 C595 1.397 1_545 S
C596 C597 1.381 . S
C597 H584 0.930 . S
C597 C596 1.381 . S
C597 C598 1.388 . S
C598 H585 0.930 . S
C598 C597 1.388 . S
C598 C599 1.390 . S
C599 C598 1.390 . S
C599 C600 1.394 1_545 S
C599 C605 1.465 . S
C600 C595 1.399 . S
C600 C599 1.394 1_565 S
C600 C601 1.516 . S
C601 C600 1.516 . S
C601 C602 1.502 . S
C601 C603 1.561 . S
C601 C604 1.526 1_565 S
C602 H586 0.959 . S
C602 H587 0.959 . S
C602 H588 0.961 . S
C602 C601 1.502 . S
C603 H589 0.960 . S
C603 H590 0.961 . S
C603 H591 0.959 . S
C603 C601 1.561 . S
C604 C601 1.526 1_545 S
C604 C605 1.396 . S
C604 C609 1.390 . S
C605 C599 1.465 . S
C605 C604 1.396 . S
C605 C606 1.399 . S
C606 H592 0.929 . S
C606 C605 1.399 . S
C606 C607 1.385 . S
C607 H593 0.931 . S
C607 C606 1.385 . S
C607 C608 1.389 . S
C608 C607 1.389 . S
C608 C609 1.387 . S
C609 H594 0.930 1_545 S
C609 C604 1.390 . S
C609 C608 1.387 . S
H610 C622 0.930 1_554 S
H611 C624 0.930 . S
H612 C625 0.930 . S
H613 C629 0.959 1_556 S
H614 C629 0.959 . S
H615 C629 0.961 . S
H616 C630 0.960 . S
H617 C630 0.961 . S
H618 C630 0.959 . S
H619 C633 0.929 . S
H620 C634 0.931 . S
H621 C636 0.930 . S
C622 H610 0.930 1_556 S
C622 C623 1.399 . S
C622 C627 1.399 . S
C623 C622 1.399 . S
C623 C624 1.376 . S
C624 H611 0.930 . S
C624 C623 1.376 . S
C624 C625 1.388 . S
C625 H612 0.930 . S
C625 C624 1.388 . S
C625 C626 1.390 . S
C626 C625 1.390 . S
C626 C627 1.394 . S
C626 C632 1.465 . S
C627 C622 1.399 . S
C627 C626 1.394 . S
C627 C628 1.516 . S
C628 C627 1.516 . S
C628 C629 1.502 1_556 S
C628 C630 1.561 1_556 S
C628 C631 1.526 . S
C629 H613 0.959 1_554 S
C629 H614 0.959 . S
C629 H615 0.961 . S
C629 C628 1.502 1_554 S
C630 H616 0.960 . S
C630 H617 0.961 . S
C630 H618 0.959 . S
C630 C628 1.561 1_554 S
C631 C628 1.526 . S
C631 C632 1.396 . S
C631 C636 1.390 . S
C632 C626 1.465 . S
C632 C631 1.396 . S
C632 C633 1.399 . S
C633 H619 0.929 . S
C633 C632 1.399 . S
C633 C634 1.385 . S
C634 H620 0.931 . S
C634 C633 1.385 . S
C634 C635 1.389 . S
C635 C634 1.389 . S
C635 C636 1.387 . S
C636 H621 0.930 . S
C636 C631 1.390 . S
C636 C635 1.387 . S
H637 C649 0.930 . S
H638 C651 0.930 . S
H639 C652 0.930 . S
H640 C656 0.959 . S
H641 C656 0.959 . S
H642 C656 0.961 . S
H643 C657 0.960 . S
H644 C657 0.961 . S
H645 C657 0.959 . S
H646 C660 0.929 . S
H647 C661 0.931 . S
H648 C663 0.930 . S
C649 H637 0.930 . S
C649 C650 1.399 . S
C649 C654 1.399 . S
C650 C649 1.399 . S
C650 C651 1.376 . S
C651 H638 0.930 . S
C651 C650 1.376 . S
C651 C652 1.388 . S
C652 H639 0.930 . S
C652 C651 1.388 . S
C652 C653 1.390 . S
C653 C652 1.390 . S
C653 C654 1.394 . S
C653 C659 1.465 . S
C654 C649 1.399 . S
C654 C653 1.394 . S
C654 C655 1.516 . S
C655 C654 1.516 . S
C655 C656 1.502 . S
C655 C657 1.561 . S
C655 C658 1.526 . S
C656 H640 0.959 . S
C656 H641 0.959 . S
C656 H642 0.961 . S
C656 C655 1.502 . S
C657 H643 0.960 . S
C657 H644 0.961 . S
C657 H645 0.959 . S
C657 C655 1.561 . S
C658 C655 1.526 . S
C658 C659 1.396 . S
C658 C663 1.390 . S
C659 C653 1.465 . S
C659 C658 1.396 . S
C659 C660 1.399 . S
C660 H646 0.929 . S
C660 C659 1.399 . S
C660 C661 1.385 . S
C661 H647 0.931 . S
C661 C660 1.385 . S
C661 C662 1.389 . S
C662 C661 1.389 . S
C662 C663 1.387 . S
C663 H648 0.930 . S
C663 C658 1.390 . S
C663 C662 1.387 . S
H664 C676 0.930 . S
H665 C678 0.930 . S
H666 C679 0.930 . S
H667 C683 0.959 . S
H668 C683 0.959 . S
H669 C683 0.961 . S
H670 C684 0.960 . S
H671 C684 0.961 . S
H672 C684 0.959 . S
H673 C687 0.929 . S
H674 C688 0.931 . S
H675 C690 0.930 . S
C676 H664 0.930 . S
C676 C677 1.399 1_655 S
C676 C681 1.399 . S
C677 C676 1.399 1_455 S
C677 C678 1.376 . S
C678 H665 0.930 . S
C678 C677 1.376 . S
C678 C679 1.388 . S
C679 H666 0.930 . S
C679 C678 1.388 . S
C679 C680 1.390 . S
C680 C679 1.390 . S
C680 C681 1.394 1_455 S
C680 C686 1.465 1_554 S
C681 C676 1.399 . S
C681 C680 1.394 1_655 S
C681 C682 1.514 1_554 S
C682 C681 1.514 1_556 S
C682 C683 1.491 1_556 S
C682 C684 1.573 . S
C682 C685 1.528 . S
C683 H667 0.959 . S
C683 H668 0.959 . S
C683 H669 0.961 . S
C683 C682 1.491 1_554 S
C684 H670 0.960 . S
C684 H671 0.961 . S
C684 H672 0.959 . S
C684 C682 1.573 . S
C685 C682 1.528 . S
C685 C686 1.396 1_655 S
C685 C690 1.390 . S
C686 C680 1.465 1_556 S
C686 C685 1.396 1_455 S
C686 C687 1.399 . S
C687 H673 0.929 . S
C687 C686 1.399 . S
C687 C688 1.385 . S
C688 H674 0.931 . S
C688 C687 1.385 . S
C688 C689 1.389 . S
C689 C688 1.389 . S
C689 C690 1.387 1_455 S
C690 H675 0.930 . S
C690 C685 1.390 . S
C690 C689 1.387 1_655 S
H691 C703 0.930 . S
H692 C705 0.930 . S
H693 C706 0.930 . S
H694 C710 0.959 . S
H695 C710 0.959 . S
H696 C710 0.961 . S
H697 C711 0.960 . S
H698 C711 0.961 . S
H699 C711 0.959 . S
H700 C714 0.929 . S
H701 C715 0.931 . S
H702 C717 0.930 . S
C703 H691 0.930 . S
C703 C704 1.399 1_565 S
C703 C708 1.399 . S
C704 C703 1.399 1_545 S
C704 C705 1.376 . S
C705 H692 0.930 . S
C705 C704 1.376 . S
C705 C706 1.388 1_554 S
C706 H693 0.930 . S
C706 C705 1.388 1_556 S
C706 C707 1.390 . S
C707 C706 1.390 . S
C707 C708 1.394 1_546 S
C707 C713 1.465 . S
C708 C703 1.399 . S
C708 C707 1.394 1_564 S
C708 C709 1.516 1_554 S
C709 C708 1.516 1_556 S
C709 C710 1.502 1_556 S
C709 C711 1.561 . S
C709 C712 1.526 . S
C710 H694 0.959 . S
C710 H695 0.959 . S
C710 H696 0.961 . S
C710 C709 1.502 1_554 S
C711 H697 0.960 . S
C711 H698 0.961 . S
C711 H699 0.959 . S
C711 C709 1.561 . S
C712 C709 1.526 . S
C712 C713 1.396 1_565 S
C712 C717 1.390 . S
C713 C707 1.465 . S
C713 C712 1.396 1_545 S
C713 C714 1.399 . S
C714 H700 0.929 . S
C714 C713 1.399 . S
C714 C715 1.385 . S
C715 H701 0.931 . S
C715 C714 1.385 . S
C715 C716 1.389 . S
C716 C715 1.389 . S
C716 C717 1.387 1_545 S
C717 H702 0.930 . S
C717 C712 1.390 . S
C717 C716 1.387 1_565 S
H718 C730 0.930 . S
H719 C732 0.930 . S
H720 C733 0.930 . S
H721 C737 0.959 . S
H722 C737 0.959 . S
H723 C737 0.961 . S
H724 C738 0.960 . S
H725 C738 0.961 . S
H726 C738 0.959 . S
H727 C741 0.929 . S
H728 C742 0.931 . S
H729 C744 0.930 . S
C730 H718 0.930 . S
C730 C731 1.399 . S
C730 C735 1.399 . S
C731 C730 1.399 . S
C731 C732 1.376 . S
C732 H719 0.930 . S
C732 C731 1.376 . S
C732 C733 1.388 . S
C733 H720 0.930 . S
C733 C732 1.388 . S
C733 C734 1.390 . S
C734 C733 1.390 . S
C734 C735 1.394 . S
C734 C740 1.465 . S
C735 C730 1.399 . S
C735 C734 1.394 . S
C735 C736 1.516 . S
C736 C735 1.516 . S
C736 C737 1.502 . S
C736 C738 1.561 . S
C736 C739 1.526 . S
C737 H721 0.959 . S
C737 H722 0.959 . S
C737 H723 0.961 . S
C737 C736 1.502 . S
C738 H724 0.960 . S
C738 H725 0.961 . S
C738 H726 0.959 . S
C738 C736 1.561 . S
C739 C736 1.526 . S
C739 C740 1.396 . S
C739 C744 1.390 . S
C740 C734 1.465 . S
C740 C739 1.396 . S
C740 C741 1.399 . S
C741 H727 0.929 . S
C741 C740 1.399 . S
C741 C742 1.385 . S
C742 H728 0.931 . S
C742 C741 1.385 . S
C742 C743 1.389 . S
C743 C742 1.389 . S
C743 C744 1.387 . S
C744 H729 0.930 . S
C744 C739 1.390 . S
C744 C743 1.387 . S
H745 C757 0.930 . S
H746 C759 0.930 . S
H747 C760 0.930 . S
H748 C764 0.959 . S
H749 C764 0.959 . S
H750 C764 0.961 . S
H751 C765 0.960 . S
H752 C765 0.961 . S
H753 C765 0.959 . S
H754 C768 0.929 . S
H755 C769 0.931 . S
H756 C771 0.930 1_554 S
C757 H745 0.930 . S
C757 C758 1.399 . S
C757 C762 1.399 . S
C758 C757 1.399 . S
C758 C759 1.376 1_554 S
C759 H746 0.930 . S
C759 C758 1.376 1_556 S
C759 C760 1.388 . S
C760 H747 0.930 . S
C760 C759 1.388 . S
C760 C761 1.390 . S
C761 C760 1.390 . S
C761 C762 1.394 1_556 S
C761 C767 1.465 . S
C762 C757 1.399 . S
C762 C761 1.394 1_554 S
C762 C763 1.516 . S
C763 C762 1.516 . S
C763 C764 1.502 . S
C763 C765 1.561 . S
C763 C766 1.526 1_554 S
C764 H748 0.959 . S
C764 H749 0.959 . S
C764 H750 0.961 . S
C764 C763 1.502 . S
C765 H751 0.960 . S
C765 H752 0.961 . S
C765 H753 0.959 . S
C765 C763 1.561 . S
C766 C763 1.526 1_556 S
C766 C767 1.396 . S
C766 C771 1.390 . S
C767 C761 1.465 . S
C767 C766 1.396 . S
C767 C768 1.399 . S
C768 H754 0.929 . S
C768 C767 1.399 . S
C768 C769 1.385 . S
C769 H755 0.931 . S
C769 C768 1.385 . S
C769 C770 1.389 . S
C770 C769 1.389 . S
C770 C771 1.387 . S
C771 H756 0.930 1_556 S
C771 C766 1.390 . S
C771 C770 1.387 . S
H772 C784 0.930 . S
H773 C786 0.930 . S
H774 C787 0.930 . S
H775 C791 0.959 . S
H776 C791 0.959 . S
H777 C791 0.961 . S
H778 C792 0.963 . S
H779 C792 0.961 1_655 S
H780 C792 0.959 . S
H781 C795 0.929 . S
H782 C796 0.924 1_455 S
H783 C798 0.930 . S
C784 H772 0.930 . S
C784 C785 1.394 1_655 S
C784 C789 1.399 . S
C785 C784 1.394 1_455 S
C785 C786 1.383 . S
C786 H773 0.930 . S
C786 C785 1.383 . S
C786 C787 1.388 . S
C787 H774 0.930 . S
C787 C786 1.388 . S
C787 C788 1.390 . S
C788 C787 1.390 . S
C788 C789 1.394 1_455 S
C788 C794 1.465 1_455 S
C789 C784 1.399 . S
C789 C788 1.394 1_655 S
C789 C790 1.516 . S
C790 C789 1.516 . S
C790 C791 1.502 . S
C790 C792 1.561 1_655 S
C790 C793 1.526 . S
C791 H775 0.959 . S
C791 H776 0.959 . S
C791 H777 0.961 . S
C791 C790 1.502 . S
C792 H778 0.963 . S
C792 H779 0.961 1_455 S
C792 H780 0.959 . S
C792 C790 1.561 1_455 S
C793 C790 1.526 . S
C793 C794 1.396 . S
C793 C798 1.390 . S
C794 C788 1.465 1_655 S
C794 C793 1.396 . S
C794 C795 1.399 1_655 S
C795 H781 0.929 . S
C795 C794 1.399 1_455 S
C795 C796 1.380 1_455 S
C796 H782 0.924 1_655 S
C796 C795 1.380 1_655 S
C796 C797 1.402 . S
C797 C796 1.402 . S
C797 C798 1.387 . S
C798 H783 0.930 . S
C798 C793 1.390 . S
C798 C797 1.387 . S
H799 C811 0.930 . S
H800 C813 0.930 . S
H801 C814 0.930 . S
H802 C818 0.959 . S
H803 C818 0.959 . S
H804 C818 0.961 . S
H805 C819 0.960 . S
H806 C819 0.961 . S
H807 C819 0.959 . S
H808 C822 0.929 . S
H809 C823 0.931 . S
H810 C825 0.930 . S
C811 H799 0.930 . S
C811 C812 1.399 1_565 S
C811 C816 1.399 . S
C812 C811 1.399 1_545 S
C812 C813 1.376 . S
C813 H800 0.930 . S
C813 C812 1.376 . S
C813 C814 1.388 . S
C814 H801 0.930 . S
C814 C813 1.388 . S
C814 C815 1.390 . S
C815 C814 1.390 . S
C815 C816 1.394 1_545 S
C815 C821 1.465 . S
C816 C811 1.399 . S
C816 C815 1.394 1_565 S
C816 C817 1.516 . S
C817 C816 1.516 . S
C817 C818 1.502 . S
C817 C819 1.561 . S
C817 C820 1.526 . S
C818 H802 0.959 . S
C818 H803 0.959 . S
C818 H804 0.961 . S
C818 C817 1.502 . S
C819 H805 0.960 . S
C819 H806 0.961 . S
C819 H807 0.959 . S
C819 C817 1.561 . S
C820 C817 1.526 . S
C820 C821 1.396 1_565 S
C820 C825 1.390 . S
C821 C815 1.465 . S
C821 C820 1.396 1_545 S
C821 C822 1.399 . S
C822 H808 0.929 . S
C822 C821 1.399 . S
C822 C823 1.385 . S
C823 H809 0.931 . S
C823 C822 1.385 . S
C823 C824 1.389 1_545 S
C824 C823 1.389 1_565 S
C824 C825 1.387 . S
C825 H810 0.930 . S
C825 C820 1.390 . S
C825 C824 1.387 . S
H826 C838 0.930 . S
H827 C840 0.930 . S
H828 C841 0.930 . S
H829 C845 0.959 . S
H830 C845 0.959 . S
H831 C845 0.961 . S
H832 C846 0.960 . S
H833 C846 0.961 . S
H834 C846 0.959 . S
H835 C849 0.929 . S
H836 C850 0.931 . S
H837 C852 0.930 . S
C838 H826 0.930 . S
C838 C839 1.399 . S
C838 C843 1.399 . S
C839 C838 1.399 . S
C839 C840 1.376 . S
C840 H827 0.930 . S
C840 C839 1.376 . S
C840 C841 1.388 . S
C841 H828 0.930 . S
C841 C840 1.388 . S
C841 C842 1.390 . S
C842 C841 1.390 . S
C842 C843 1.394 . S
C842 C848 1.465 . S
C843 C838 1.399 . S
C843 C842 1.394 . S
C843 C844 1.516 . S
C844 C843 1.516 . S
C844 C845 1.502 . S
C844 C846 1.561 . S
C844 C847 1.526 . S
C845 H829 0.959 . S
C845 H830 0.959 . S
C845 H831 0.961 . S
C845 C844 1.502 . S
C846 H832 0.960 . S
C846 H833 0.961 . S
C846 H834 0.959 . S
C846 C844 1.561 . S
C847 C844 1.526 . S
C847 C848 1.396 . S
C847 C852 1.390 . S
C848 C842 1.465 . S
C848 C847 1.396 . S
C848 C849 1.399 . S
C849 H835 0.929 . S
C849 C848 1.399 . S
C849 C850 1.385 . S
C850 H836 0.931 . S
C850 C849 1.385 . S
C850 C851 1.389 . S
C851 C850 1.389 . S
C851 C852 1.387 . S
C852 H837 0.930 . S
C852 C847 1.390 . S
C852 C851 1.387 . S
H853 C865 0.930 . S
H854 C867 0.930 . S
H855 C868 0.930 . S
H856 C872 0.959 . S
H857 C872 0.959 . S
H858 C872 0.961 . S
H859 C873 0.960 . S
H860 C873 0.961 . S
H861 C873 0.959 . S
H862 C876 0.929 . S
H863 C877 0.931 . S
H864 C879 0.930 . S
C865 H853 0.930 . S
C865 C866 1.399 . S
C865 C870 1.399 . S
C866 C865 1.399 . S
C866 C867 1.376 . S
C867 H854 0.930 . S
C867 C866 1.376 . S
C867 C868 1.388 . S
C868 H855 0.930 . S
C868 C867 1.388 . S
C868 C869 1.390 . S
C869 C868 1.390 . S
C869 C870 1.394 . S
C869 C875 1.465 . S
C870 C865 1.399 . S
C870 C869 1.394 . S
C870 C871 1.516 . S
C871 C870 1.516 . S
C871 C872 1.502 . S
C871 C873 1.561 . S
C871 C874 1.526 . S
C872 H856 0.959 . S
C872 H857 0.959 . S
C872 H858 0.961 . S
C872 C871 1.502 . S
C873 H859 0.960 . S
C873 H860 0.961 . S
C873 H861 0.959 . S
C873 C871 1.561 . S
C874 C871 1.526 . S
C874 C875 1.396 . S
C874 C879 1.390 . S
C875 C869 1.465 . S
C875 C874 1.396 . S
C875 C876 1.399 . S
C876 H862 0.929 . S
C876 C875 1.399 . S
C876 C877 1.385 . S
C877 H863 0.931 . S
C877 C876 1.385 . S
C877 C878 1.389 . S
C878 C877 1.389 . S
C878 C879 1.387 . S
C879 H864 0.930 . S
C879 C874 1.390 . S
C879 C878 1.387 . S
C245 C61 1.867 . S
C257 C95 1.965 . S
C284 C135 1.568 . S
C272 C70 1.560 . S
C311 C154 2.047 . S
C299 C43 1.916 . S
C338 C215 1.393 . S
C326 C52 1.301 . S
C365 C74 1.993 1_565 S
C353 C25 1.867 . S
C380 C34 1.575 . S
C392 C114 1.596 . S
C407 C7 1.897 . S
C419 C175 2.020 . S
C434 C16 1.345 . S
C446 C194 1.430 1_655 S
C473 C76 0.870 . S
C461 C50 0.796 . S
C500 C116 0.252 . S
C488 C59 0.382 1_545 S
C527 C172 0.655 . S
C515 C67 0.794 . S
C542 C41 0.528 . S
C554 C196 0.334 . S
C569 C14 0.825 1_455 S
C581 C97 0.885 . S
C608 C137 0.451 . S
C596 C23 0.161 1_545 S
C635 C183 0.686 . S
C623 C31 0.743 . S
C650 C5 0.423 . S
C662 C217 0.491 . S
C677 C49 1.566 1_455 S
C689 C92 1.709 . S
C704 C58 2.162 1_545 S
C716 C132 2.360 . S
C743 C156 1.621 . S
C731 C68 1.685 . S
C770 C212 2.334 . S
C758 C40 2.165 . S
C785 C13 1.502 1_455 S
C797 C103 1.677 . S
C824 C143 2.342 . S
C812 C22 2.160 1_545 S
C851 C177 1.668 . S
C839 C32 1.621 . S
C866 C4 2.154 . S
C878 C223 2.342 . S
