# Generated by pormake.
# Topology eea, (3,6)-cn, num edge types: 1
# Building blocks:
#     Node 0, Type 0, BuildingBlock: BETDIP_clean_linker_0, # of connection points: 3
#     Node 1, Type 0, BuildingBlock: BETDIP_clean_linker_0, # of connection points: 3
#     Node 2, Type 0, BuildingBlock: BETDIP_clean_linker_0, # of connection points: 3
#     Node 3, Type 0, BuildingBlock: BETDIP_clean_linker_0, # of connection points: 3
#     Node 4, Type 0, BuildingBlock: BETDIP_clean_linker_0, # of connection points: 3
#     Node 5, Type 0, BuildingBlock: BETDIP_clean_linker_0, # of connection points: 3
#     Node 6, Type 0, BuildingBlock: BETDIP_clean_linker_0, # of connection points: 3
#     Node 7, Type 0, BuildingBlock: BETDIP_clean_linker_0, # of connection points: 3
#     Node 8, Type 0, BuildingBlock: BETDIP_clean_linker_0, # of connection points: 3
#     Node 9, Type 0, BuildingBlock: BETDIP_clean_linker_0, # of connection points: 3
#     Node 10, Type 0, BuildingBlock: BETDIP_clean_linker_0, # of connection points: 3
#     Node 11, Type 0, BuildingBlock: BETDIP_clean_linker_0, # of connection points: 3
#     Node 12, Type 0, BuildingBlock: BETDIP_clean_linker_0, # of connection points: 3
#     Node 13, Type 0, BuildingBlock: BETDIP_clean_linker_0, # of connection points: 3
#     Node 14, Type 0, BuildingBlock: BETDIP_clean_linker_0, # of connection points: 3
#     Node 15, Type 0, BuildingBlock: BETDIP_clean_linker_0, # of connection points: 3
#     Node 16, Type 0, BuildingBlock: BETDIP_clean_linker_0, # of connection points: 3
#     Node 17, Type 0, BuildingBlock: BETDIP_clean_linker_0, # of connection points: 3
#     Node 18, Type 1, BuildingBlock: LEVNOQ01_clean_sbu_1, # of connection points: 6
#     Node 19, Type 1, BuildingBlock: LEVNOQ01_clean_sbu_1, # of connection points: 6
#     Node 20, Type 1, BuildingBlock: LEVNOQ01_clean_sbu_1, # of connection points: 6
#     Node 21, Type 1, BuildingBlock: LEVNOQ01_clean_sbu_1, # of connection points: 6
#     Node 22, Type 1, BuildingBlock: LEVNOQ01_clean_sbu_1, # of connection points: 6
#     Node 23, Type 1, BuildingBlock: LEVNOQ01_clean_sbu_1, # of connection points: 6
#     Node 24, Type 1, BuildingBlock: LEVNOQ01_clean_sbu_1, # of connection points: 6
#     Node 25, Type 1, BuildingBlock: LEVNOQ01_clean_sbu_1, # of connection points: 6
#     Node 26, Type 1, BuildingBlock: LEVNOQ01_clean_sbu_1, # of connection points: 6
#     Edge 27, Type (0, 1), BuildingBlock: ZUJKAS_clean_linker_0, # of connection points: 2
#     Edge 28, Type (0, 1), BuildingBlock: ZUJKAS_clean_linker_0, # of connection points: 2
#     Edge 29, Type (0, 1), BuildingBlock: ZUJKAS_clean_linker_0, # of connection points: 2
#     Edge 30, Type (0, 1), BuildingBlock: ZUJKAS_clean_linker_0, # of connection points: 2
#     Edge 31, Type (0, 1), BuildingBlock: ZUJKAS_clean_linker_0, # of connection points: 2
#     Edge 32, Type (0, 1), BuildingBlock: ZUJKAS_clean_linker_0, # of connection points: 2
#     Edge 33, Type (0, 1), BuildingBlock: ZUJKAS_clean_linker_0, # of connection points: 2
#     Edge 34, Type (0, 1), BuildingBlock: ZUJKAS_clean_linker_0, # of connection points: 2
#     Edge 35, Type (0, 1), BuildingBlock: ZUJKAS_clean_linker_0, # of connection points: 2
#     Edge 36, Type (0, 1), BuildingBlock: ZUJKAS_clean_linker_0, # of connection points: 2
#     Edge 37, Type (0, 1), BuildingBlock: ZUJKAS_clean_linker_0, # of connection points: 2
#     Edge 38, Type (0, 1), BuildingBlock: ZUJKAS_clean_linker_0, # of connection points: 2
#     Edge 39, Type (0, 1), BuildingBlock: ZUJKAS_clean_linker_0, # of connection points: 2
#     Edge 40, Type (0, 1), BuildingBlock: ZUJKAS_clean_linker_0, # of connection points: 2
#     Edge 41, Type (0, 1), BuildingBlock: ZUJKAS_clean_linker_0, # of connection points: 2
#     Edge 42, Type (0, 1), BuildingBlock: ZUJKAS_clean_linker_0, # of connection points: 2
#     Edge 43, Type (0, 1), BuildingBlock: ZUJKAS_clean_linker_0, # of connection points: 2
#     Edge 44, Type (0, 1), BuildingBlock: ZUJKAS_clean_linker_0, # of connection points: 2
#     Edge 45, Type (0, 1), BuildingBlock: ZUJKAS_clean_linker_0, # of connection points: 2
#     Edge 46, Type (0, 1), BuildingBlock: ZUJKAS_clean_linker_0, # of connection points: 2
#     Edge 47, Type (0, 1), BuildingBlock: ZUJKAS_clean_linker_0, # of connection points: 2
#     Edge 48, Type (0, 1), BuildingBlock: ZUJKAS_clean_linker_0, # of connection points: 2
#     Edge 49, Type (0, 1), BuildingBlock: ZUJKAS_clean_linker_0, # of connection points: 2
#     Edge 50, Type (0, 1), BuildingBlock: ZUJKAS_clean_linker_0, # of connection points: 2
#     Edge 51, Type (0, 1), BuildingBlock: ZUJKAS_clean_linker_0, # of connection points: 2
#     Edge 52, Type (0, 1), BuildingBlock: ZUJKAS_clean_linker_0, # of connection points: 2
#     Edge 53, Type (0, 1), BuildingBlock: ZUJKAS_clean_linker_0, # of connection points: 2
#     Edge 54, Type (0, 1), BuildingBlock: ZUJKAS_clean_linker_0, # of connection points: 2
#     Edge 55, Type (0, 1), BuildingBlock: ZUJKAS_clean_linker_0, # of connection points: 2
#     Edge 56, Type (0, 1), BuildingBlock: ZUJKAS_clean_linker_0, # of connection points: 2
#     Edge 57, Type (0, 1), BuildingBlock: ZUJKAS_clean_linker_0, # of connection points: 2
#     Edge 58, Type (0, 1), BuildingBlock: ZUJKAS_clean_linker_0, # of connection points: 2
#     Edge 59, Type (0, 1), BuildingBlock: ZUJKAS_clean_linker_0, # of connection points: 2
#     Edge 60, Type (0, 1), BuildingBlock: ZUJKAS_clean_linker_0, # of connection points: 2
#     Edge 61, Type (0, 1), BuildingBlock: ZUJKAS_clean_linker_0, # of connection points: 2
#     Edge 62, Type (0, 1), BuildingBlock: ZUJKAS_clean_linker_0, # of connection points: 2
#     Edge 63, Type (0, 1), BuildingBlock: ZUJKAS_clean_linker_0, # of connection points: 2
#     Edge 64, Type (0, 1), BuildingBlock: ZUJKAS_clean_linker_0, # of connection points: 2
#     Edge 65, Type (0, 1), BuildingBlock: ZUJKAS_clean_linker_0, # of connection points: 2
#     Edge 66, Type (0, 1), BuildingBlock: ZUJKAS_clean_linker_0, # of connection points: 2
#     Edge 67, Type (0, 1), BuildingBlock: ZUJKAS_clean_linker_0, # of connection points: 2
#     Edge 68, Type (0, 1), BuildingBlock: ZUJKAS_clean_linker_0, # of connection points: 2
#     Edge 69, Type (0, 1), BuildingBlock: ZUJKAS_clean_linker_0, # of connection points: 2
#     Edge 70, Type (0, 1), BuildingBlock: ZUJKAS_clean_linker_0, # of connection points: 2
#     Edge 71, Type (0, 1), BuildingBlock: ZUJKAS_clean_linker_0, # of connection points: 2
#     Edge 72, Type (0, 1), BuildingBlock: ZUJKAS_clean_linker_0, # of connection points: 2
#     Edge 73, Type (0, 1), BuildingBlock: ZUJKAS_clean_linker_0, # of connection points: 2
#     Edge 74, Type (0, 1), BuildingBlock: ZUJKAS_clean_linker_0, # of connection points: 2
#     Edge 75, Type (0, 1), BuildingBlock: ZUJKAS_clean_linker_0, # of connection points: 2
#     Edge 76, Type (0, 1), BuildingBlock: ZUJKAS_clean_linker_0, # of connection points: 2
#     Edge 77, Type (0, 1), BuildingBlock: ZUJKAS_clean_linker_0, # of connection points: 2
#     Edge 78, Type (0, 1), BuildingBlock: ZUJKAS_clean_linker_0, # of connection points: 2
#     Edge 79, Type (0, 1), BuildingBlock: ZUJKAS_clean_linker_0, # of connection points: 2
#     Edge 80, Type (0, 1), BuildingBlock: ZUJKAS_clean_linker_0, # of connection points: 2
# Relax obj value: 0.084
# Max RMSD: 0.116
# Mean RMSD: 0.105
data_MOF--net-eea--node1-LEVNOQ01_clean_sbu_1--node2-BETDIP_clean_linker_0--edge1-ZUJKAS_clean_linker_0
_symmetry_space_group_name_H-M    P1
_symmetry_Int_Tables_number       1
_symmetry_cell_setting            triclinic
loop_
_symmetry_equiv_pos_as_xyz
'x, y, z'
_cell_length_a     75.379108
_cell_length_b     75.088168
_cell_length_c     58.728665
_cell_angle_alpha  90.320138
_cell_angle_beta   90.392524
_cell_angle_gamma 120.02407
loop_
_atom_site_label
_atom_site_type_symbol
_atom_site_fract_x
_atom_site_fract_y
_atom_site_fract_z
_atom_type_partial_charge
H0 H 0.23589 0.11976 0.33456 0.0
H1 H 0.26101 0.15822 0.39398 0.0
H2 H 0.25826 0.09964 0.39034 0.0
H3 H 0.21402 0.13769 0.37206 0.0
C4 C 0.22332 0.15094 0.36144 0.0
C5 C 0.2441 0.12299 0.35066 0.0
C6 C 0.24695 0.10784 0.36098 0.0
C7 C 0.24983 0.14148 0.36234 0.0
C8 C 0.2583 0.14469 0.38441 0.0
C9 C 0.26105 0.12947 0.39489 0.0
C10 C 0.25633 0.11161 0.38247 0.0
N11 N 0.24277 0.15456 0.35429 0.0
H12 H 0.88843 0.11431 0.3318 0.0
H13 H 0.84369 0.10005 0.38407 0.0
H14 H 0.90354 0.15319 0.39131 0.0
H15 H 0.87218 0.07488 0.35151 0.0
C16 C 0.85662 0.07064 0.34649 0.0
C17 C 0.88389 0.11848 0.34751 0.0
C18 C 0.89818 0.13579 0.36014 0.0
C19 C 0.86413 0.10564 0.35614 0.0
C20 C 0.85854 0.11052 0.37694 0.0
C21 C 0.87287 0.12749 0.38973 0.0
C22 C 0.89243 0.14024 0.3811 0.0
N23 N 0.85099 0.08607 0.34626 0.0
H24 H 0.88587 0.7711 0.34056 0.0
H25 H 0.90119 0.74408 0.39642 0.0
H26 H 0.84267 0.74043 0.39398 0.0
H27 H 0.9314 0.7727 0.39114 0.0
C28 C 0.93316 0.77302 0.37278 0.0
C29 C 0.88143 0.7619 0.35584 0.0
C30 C 0.86246 0.75601 0.36589 0.0
C31 C 0.89561 0.75786 0.36686 0.0
C32 C 0.89029 0.74701 0.38753 0.0
C33 C 0.8715 0.74132 0.39773 0.0
C34 C 0.85731 0.74492 0.38619 0.0
N35 N 0.91583 0.76673 0.35825 0.0
H36 H 0.11599 0.23294 0.68618 0.0
H37 H 0.15948 0.25814 0.63201 0.0
H38 H 0.10594 0.26445 0.63104 0.0
H39 H 0.1468 0.21843 0.64041 0.0
C40 C 0.15477 0.22375 0.65671 0.0
C41 C 0.1213 0.24218 0.67097 0.0
C42 C 0.1086 0.24811 0.65964 0.0
C43 C 0.13983 0.24607 0.66115 0.0
C44 C 0.14583 0.25631 0.6402 0.0
C45 C 0.13342 0.26259 0.62901 0.0
C46 C 0.11549 0.25945 0.63954 0.0
N47 N 0.15076 0.23693 0.67048 0.0
H48 H 0.76936 0.88153 0.69018 0.0
H49 H 0.74002 0.89512 0.63572 0.0
H50 H 0.75124 0.84456 0.62959 0.0
H51 H 0.76502 0.92649 0.64126 0.0
C52 C 0.76717 0.92824 0.6596 0.0
C53 C 0.76203 0.87788 0.67354 0.0
C54 C 0.75866 0.86013 0.66172 0.0
C55 C 0.7568 0.89145 0.66331 0.0
C56 C 0.74637 0.88604 0.64214 0.0
C57 C 0.74481 0.8696 0.62902 0.0
C58 C 0.75119 0.85682 0.63921 0.0
N59 N 0.76378 0.91124 0.67325 0.0
H60 H 0.11873 0.88727 0.67459 0.0
H61 H 0.10112 0.83801 0.62568 0.0
H62 H 0.16078 0.89105 0.62304 0.0
H63 H 0.07121 0.8355 0.63008 0.0
C64 C 0.06995 0.83736 0.64823 0.0
C65 C 0.12265 0.88029 0.66077 0.0
C66 C 0.1418 0.89138 0.65012 0.0
C67 C 0.10769 0.86104 0.65204 0.0
C68 C 0.11235 0.85267 0.63299 0.0
C69 C 0.13128 0.86368 0.62228 0.0
C70 C 0.14626 0.88239 0.63167 0.0
N71 N 0.08757 0.85128 0.66123 0.0
H72 H 0.90269 0.45414 0.67173 0.0
H73 H 0.93241 0.49637 0.7276 0.0
H74 H 0.92419 0.43556 0.72988 0.0
H75 H 0.88028 0.46889 0.68524 0.0
C76 C 0.89184 0.48509 0.68422 0.0
C77 C 0.91102 0.45789 0.68779 0.0
C78 C 0.91334 0.44284 0.69925 0.0
C79 C 0.9181 0.47732 0.69803 0.0
C80 C 0.92791 0.48175 0.7193 0.0
C81 C 0.93009 0.46671 0.73083 0.0
C82 C 0.92321 0.44748 0.72055 0.0
N83 N 0.91259 0.49135 0.68914 0.0
H84 H 0.55729 0.44932 0.66424 0.0
H85 H 0.51338 0.43462 0.71755 0.0
H86 H 0.57086 0.49106 0.72061 0.0
H87 H 0.5203 0.40671 0.71446 0.0
C88 C 0.51562 0.40326 0.69666 0.0
C89 C 0.55234 0.45388 0.67937 0.0
C90 C 0.56591 0.47214 0.69093 0.0
C91 C 0.5335 0.44016 0.68912 0.0
C92 C 0.52768 0.44552 0.70963 0.0
C93 C 0.54132 0.46356 0.72138 0.0
C94 C 0.56006 0.47717 0.71145 0.0
N95 N 0.52252 0.4196 0.6809 0.0
H96 H 0.55157 0.10299 0.67235 0.0
H97 H 0.57072 0.07903 0.72765 0.0
H98 H 0.5117 0.07422 0.72925 0.0
H99 H 0.59933 0.1119 0.72197 0.0
C100 C 0.60104 0.11019 0.70384 0.0
C101 C 0.54819 0.09483 0.68832 0.0
C102 C 0.52933 0.08838 0.69913 0.0
C103 C 0.56339 0.09211 0.69886 0.0
C104 C 0.5592 0.08157 0.71962 0.0
C105 C 0.54045 0.07481 0.73044 0.0
C106 C 0.52562 0.07822 0.72008 0.0
N107 N 0.58337 0.1015 0.68948 0.0
H108 H 0.78297 0.5661 0.01862 0.0
H109 H 0.82724 0.59584 0.9658 0.0
H110 H 0.76898 0.59279 0.96149 0.0
H111 H 0.82276 0.56196 0.96961 0.0
C112 C 0.82693 0.56347 0.98758 0.0
C113 C 0.78779 0.57526 0.00331 0.0
C114 C 0.77403 0.57956 0.99161 0.0
C115 C 0.80684 0.58068 0.99377 0.0
C116 C 0.81258 0.59169 0.97329 0.0
C117 C 0.79896 0.59595 0.96148 0.0
C118 C 0.77989 0.59023 0.97097 0.0
N119 N 0.81858 0.57219 0.00268 0.0
H120 H 0.43928 0.21937 0.01972 0.0
H121 H 0.40534 0.23072 0.9681 0.0
H122 H 0.40806 0.17521 0.96601 0.0
H123 H 0.4329 0.26141 0.97046 0.0
C124 C 0.43602 0.26433 0.98859 0.0
C125 C 0.42876 0.2141 0.0053 0.0
C126 C 0.42309 0.19515 0.99485 0.0
C127 C 0.42286 0.22731 0.99549 0.0
C128 C 0.41021 0.22082 0.9759 0.0
C129 C 0.40509 0.20222 0.96502 0.0
C130 C 0.41099 0.18912 0.97499 0.0
N131 N 0.43209 0.24797 0.00351 0.0
H132 H 0.78722 0.21879 0.01474 0.0
H133 H 0.77099 0.17639 0.95835 0.0
H134 H 0.82969 0.23158 0.96042 0.0
H135 H 0.74152 0.17888 0.96285 0.0
C136 C 0.73926 0.17554 0.98094 0.0
C137 C 0.79135 0.21412 -0.00091 0.0
C138 C 0.81072 0.22671 0.98951 0.0
C139 C 0.77679 0.19619 0.98764 0.0
C140 C 0.78201 0.19046 0.96696 0.0
C141 C 0.80107 0.20314 0.95692 0.0
C142 C 0.81537 0.22104 0.96855 0.0
N143 N 0.75645 0.18498 0.99602 0.0
H144 H 0.56501 0.78014 0.00469 0.0
H145 H 0.59321 0.82329 0.06018 0.0
H146 H 0.60095 0.77071 0.05509 0.0
H147 H 0.56311 0.8222 0.05633 0.0
C148 C 0.5626 0.82443 0.03812 0.0
C149 C 0.57541 0.78567 0.01921 0.0
C150 C 0.58262 0.77332 0.02863 0.0
C151 C 0.57935 0.80388 0.03037 0.0
C152 C 0.59092 0.80983 0.05083 0.0
C153 C 0.59787 0.79738 0.0604 0.0
C154 C 0.59538 0.78032 0.04795 0.0
N155 N 0.56925 0.81444 0.02263 0.0
H156 H 0.22384 0.78224 0.99645 0.0
H157 H 0.18218 0.7646 0.05243 0.0
H158 H 0.23651 0.82392 0.05296 0.0
H159 H 0.18931 0.73712 0.04777 0.0
C160 C 0.18408 0.73401 0.03012 0.0
C161 C 0.2193 0.7861 0.01235 0.0
C162 C 0.23186 0.80537 0.02286 0.0
C163 C 0.20171 0.77119 0.02328 0.0
C164 C 0.19599 0.77601 0.04414 0.0
C165 C 0.2085 0.79495 0.05502 0.0
C166 C 0.22623 0.80967 0.04409 0.0
N167 N 0.19116 0.75067 0.01473 0.0
H168 H 0.2207 0.43622 0.00324 0.0
H169 H 0.23179 0.40588 0.05869 0.0
H170 H 0.1809 0.41688 0.06073 0.0
H171 H 0.26328 0.44292 0.05283 0.0
C172 C 0.26546 0.43874 0.03573 0.0
C173 C 0.21602 0.42821 0.0193 0.0
C174 C 0.19886 0.42638 0.03052 0.0
C175 C 0.22829 0.42149 0.02995 0.0
C176 C 0.22238 0.41141 0.05101 0.0
C177 C 0.20508 0.40932 0.06239 0.0
C178 C 0.19364 0.4172 0.05195 0.0
N179 N 0.24805 0.42779 0.02127 0.0
H180 H 0.44893 0.89586 0.3509 0.0
H181 H 0.48985 0.92445 0.29448 0.0
H182 H 0.43414 0.92579 0.29794 0.0
H183 H 0.5036 0.9073 0.30377 0.0
C184 C 0.49945 0.9008 0.3206 0.0
C185 C 0.45311 0.90486 0.33547 0.0
C186 C 0.44005 0.91142 0.32642 0.0
C187 C 0.47117 0.9092 0.32413 0.0
C188 C 0.47614 0.92059 0.3038 0.0
C189 C 0.46259 0.92611 0.29422 0.0
C190 C 0.44485 0.92191 0.30576 0.0
N191 N 0.48316 0.9008 0.33271 0.0
H192 H 0.1077 0.55206 0.35412 0.0
H193 H 0.07777 0.56541 0.29989 0.0
H194 H 0.07337 0.50619 0.303 0.0
H195 H 0.11279 0.59347 0.30219 0.0
C196 C 0.11119 0.59743 0.31961 0.0
C197 C 0.09716 0.54681 0.33972 0.0
C198 C 0.09048 0.52727 0.33011 0.0
C199 C 0.09245 0.56057 0.32888 0.0
C200 C 0.08048 0.55439 0.30879 0.0
C201 C 0.07397 0.53501 0.29891 0.0
C202 C 0.07804 0.52115 0.31051 0.0
N203 N 0.10244 0.58152 0.33602 0.0
H204 H 0.45437 0.55029 0.34834 0.0
H205 H 0.43582 0.51334 0.28695 0.0
H206 H 0.49671 0.56463 0.29336 0.0
H207 H 0.40698 0.51516 0.29523 0.0
C208 C 0.40507 0.51064 0.313 0.0
C209 C 0.45812 0.54656 0.33187 0.0
C210 C 0.4777 0.55914 0.32269 0.0
C211 C 0.44286 0.53003 0.31907 0.0
C212 C 0.44749 0.52583 0.29715 0.0
C213 C 0.46679 0.53852 0.28772 0.0
C214 C 0.48193 0.55458 0.30091 0.0
N215 N 0.42257 0.51884 0.32765 0.0
O216 O 0.47144 0.98803 0.95501 0.0
Mg217 Mg 0.4953 0.99313 0.97823 0.0
O218 O 0.4832 0.01638 0.97405 0.0
Mg219 Mg 0.48145 0.0021 0.01075 0.0
O220 O 0.48853 0.97463 0.00557 0.0
O221 O 0.50127 0.97035 0.97268 0.0
O222 O 0.48052 0.98966 0.04839 0.0
O223 O 0.44804 0.97699 0.00353 0.0
Mg224 Mg 0.46213 0.00885 0.04151 0.0
O225 O 0.47396 0.02912 0.01577 0.0
O226 O 0.48235 0.01494 0.06855 0.0
O227 O 0.43578 0.97949 0.03644 0.0
O228 O 0.45318 0.0296 0.04295 0.0
C229 C 0.52817 0.03217 0.00066 0.0
C230 C 0.47585 0.00651 0.95552 0.0
C231 C 0.49457 0.96442 0.99295 0.0
C232 C 0.48396 -0.00088 0.06745 0.0
C233 C 0.43354 0.97011 0.01775 0.0
C234 C 0.46466 0.03775 0.0255 0.0
O235 O 0.52314 0.02252 0.98171 0.0
O236 O 0.51533 0.02615 0.0168 0.0
O237 O 0.01084 0.47881 0.95629 0.0
Mg238 Mg 0.00437 0.49631 0.9797 0.0
O239 O 0.98363 0.46031 0.97577 0.0
Mg240 Mg -0.00217 0.47406 0.01285 0.0
O241 O 0.02379 0.5093 0.00655 0.0
O242 O 0.02516 0.52561 0.97391 0.0
O243 O 0.00852 0.48411 0.05101 0.0
O244 O 0.02373 0.46622 0.00829 0.0
Mg245 Mg 0.99041 0.43573 0.0462 0.0
O246 O 0.97545 0.44105 0.02092 0.0
O247 O -0.00442 0.45637 0.07294 0.0
O248 O 0.01776 0.43998 0.03089 0.0
O249 O 0.96191 0.41081 0.03747 0.0
C250 C 0.96547 0.48847 0.00185 0.0
C251 C 0.99304 0.46359 0.957 0.0
C252 C 0.03249 0.52555 0.99377 0.0
C253 C 0.00542 0.47574 0.07062 0.0
C254 C 0.0286 0.45343 0.01628 0.0
C255 C 0.96101 0.42213 0.02161 0.0
O256 O 0.97441 0.49302 0.98275 0.0
O257 O 0.97251 0.48243 0.01795 0.0
O258 O 0.53359 0.51836 0.05847 0.0
Mg259 Mg 0.50894 0.50034 0.03606 0.0
O260 O 0.52182 0.5359 0.04206 0.0
Mg261 Mg 0.52396 0.5243 0.00423 0.0
O262 O 0.51694 0.48971 0.0088 0.0
O263 O 0.50191 0.47112 0.04014 0.0
O264 O 0.52544 0.51529 0.96595 0.0
O265 O 0.55759 0.53338 0.01192 0.0
Mg266 Mg 0.55107 0.55723 0.97126 0.0
O267 O 0.53096 0.55652 0.99552 0.0
O268 O 0.53076 0.54162 0.94441 0.0
O269 O 0.57073 0.5451 0.97825 0.0
O270 O 0.56057 0.58443 0.98914 0.0
C271 C 0.47711 0.50757 0.01386 0.0
C272 C 0.52877 0.53206 0.06003 0.0
C273 C 0.51004 0.47288 0.02045 0.0
C274 C 0.52511 0.52273 0.94648 0.0
C275 C 0.5717 0.53813 0.99747 0.0
C276 C 0.54411 0.57525 0.00093 0.0
O277 O 0.4818 0.50305 0.03292 0.0
O278 O 0.49001 0.51401 -0.0022 0.0
O279 O 0.13709 0.32216 0.28939 0.0
Mg280 Mg 0.16159 0.32883 0.31232 0.0
O281 O 0.14796 0.35039 0.30829 0.0
Mg282 Mg 0.14708 0.33598 0.34504 0.0
O283 O 0.15692 0.31011 0.33873 0.0
O284 O 0.1717 0.30938 0.3057 0.0
O285 O 0.14573 0.32566 0.38315 0.0
O286 O 0.11414 0.30875 0.33756 0.0
Mg287 Mg 0.11358 0.33994 0.37633 0.0
O288 O 0.13748 0.35903 0.35574 0.0
O289 O 0.13067 0.33923 0.40413 0.0
O290 O 0.0942 0.30958 0.36455 0.0
O291 O 0.10988 0.36163 0.35804 0.0
C292 C 0.19344 0.36807 0.33471 0.0
C293 C 0.14106 0.34053 0.28965 0.0
C294 C 0.16542 0.30237 0.3258 0.0
C295 C 0.14048 0.32958 0.40246 0.0
C296 C 0.09719 0.30055 0.34807 0.0
C297 C 0.12717 0.36733 0.34847 0.0
O298 O 0.18816 0.35879 0.31562 0.0
O299 O 0.18083 0.36154 0.35113 0.0
O300 O 0.68212 0.81642 0.2896 0.0
Mg301 Mg 0.67533 0.83385 0.31264 0.0
O302 O 0.65375 0.79743 0.30681 0.0
Mg303 Mg 0.66581 0.80865 0.34473 0.0
O304 O 0.69234 0.84411 0.34147 0.0
O305 O 0.69676 0.8635 0.31047 0.0
O306 O 0.67511 0.81776 0.38298 0.0
O307 O 0.69134 0.80016 0.34064 0.0
Mg308 Mg 0.6568 0.77109 0.3777 0.0
O309 O 0.64187 0.77525 0.35103 0.0
O310 O 0.66063 0.79048 0.40528 0.0
O311 O 0.68483 0.77511 0.3652 0.0
O312 O 0.62895 0.74565 0.36943 0.0
C313 C 0.6359 0.82614 0.3332 0.0
C314 C 0.66407 0.80161 0.28865 0.0
C315 C 0.7019 0.86161 0.33089 0.0
C316 C 0.67119 0.80976 0.40274 0.0
C317 C 0.69605 0.78781 0.35019 0.0
C318 C 0.62754 0.75631 0.35311 0.0
O319 O 0.6462 0.8321 0.31502 0.0
O320 O 0.64083 0.81752 0.34865 0.0
O321 O 0.17398 0.83958 0.40236 0.0
Mg322 Mg 0.16455 0.81739 0.3772 0.0
O323 O 0.18847 0.86499 0.37787 0.0
Mg324 Mg 0.18873 0.85404 0.34036 0.0
O325 O 0.17886 0.81978 0.34618 0.0
O326 O 0.19219 0.81666 0.37751 0.0
O327 O 0.18828 0.84251 0.30125 0.0
O328 O 0.22167 0.86091 0.34762 0.0
Mg329 Mg 0.20878 0.87834 0.31141 0.0
O330 O 0.19871 0.88982 0.33654 0.0
O331 O 0.19022 0.86845 0.28275 0.0
O332 O 0.23269 0.87121 0.31325 0.0
O333 O 0.2231 0.909 0.31136 0.0
C334 C 0.1393 0.83212 0.34666 0.0
C335 C 0.18325 0.85848 0.39807 0.0
C336 C 0.18914 0.81269 0.35631 0.0
C337 C 0.18721 0.85042 0.28238 0.0
C338 C 0.23513 0.86546 0.33253 0.0
C339 C 0.21116 0.90762 0.32765 0.0
O340 O 0.14048 0.8205 0.36161 0.0
O341 O 0.15499 0.84553 0.33595 0.0
O342 O 0.80408 0.65203 0.62505 0.0
Mg343 Mg 0.82979 0.66143 0.64689 0.0
O344 O 0.81465 0.68169 0.6405 0.0
Mg345 Mg 0.81407 0.66997 0.67839 0.0
O346 O 0.8252 0.64516 0.67533 0.0
O347 O 0.83934 0.64117 0.64326 0.0
O348 O 0.81301 0.66161 0.7169 0.0
O349 O 0.78176 0.64209 0.67251 0.0
Mg350 Mg 0.77862 0.67408 0.70625 0.0
O351 O 0.80193 0.69145 0.68476 0.0
O352 O 0.79225 0.66966 0.73545 0.0
O353 O 0.75773 0.6465 0.68896 0.0
O354 O 0.78195 0.70254 0.69868 0.0
C355 C 0.8601 0.70274 0.6671 0.0
C356 C 0.80815 0.6703 0.62285 0.0
C357 C 0.83309 0.63599 0.66382 0.0
C358 C 0.80494 0.66321 0.73534 0.0
C359 C 0.76308 0.63593 0.67692 0.0
C360 C 0.7972 0.70568 0.68616 0.0
O361 O 0.85563 0.69202 0.64892 0.0
O362 O 0.84712 0.69702 0.68317 0.0
O363 O 0.34827 0.15312 0.6249 0.0
Mg364 Mg 0.33786 0.16643 0.64915 0.0
O365 O 0.32039 0.13095 0.64094 0.0
Mg366 Mg 0.33291 0.14271 0.6795 0.0
O367 O 0.35719 0.17873 0.67587 0.0
O368 O 0.35594 0.19663 0.64572 0.0
O369 O 0.34238 0.15087 0.71784 0.0
O370 O 0.3616 0.13869 0.67382 0.0
Mg371 Mg 0.33069 0.10483 0.70491 0.0
O372 O 0.31022 0.10869 0.6863 0.0
O373 O 0.33844 0.12272 0.73471 0.0
O374 O 0.35469 0.10779 0.68495 0.0
O375 O 0.30293 0.07886 0.70239 0.0
C376 C 0.29806 0.15433 0.67074 0.0
C377 C 0.331 0.1373 0.62294 0.0
C378 C 0.36429 0.19578 0.66459 0.0
C379 C 0.34307 0.14143 0.73557 0.0
C380 C 0.36677 0.125 0.67621 0.0
C381 C 0.29738 0.08947 0.69012 0.0
O382 O 0.30671 0.15995 0.65161 0.0
O383 O 0.30611 0.1487 0.68613 0.0
O384 O 0.86695 0.18569 0.72908 0.0
Mg385 Mg 0.84353 0.1666 0.70532 0.0
O386 O 0.85524 0.20217 0.71012 0.0
Mg387 Mg 0.85755 0.1903 0.6732 0.0
O388 O 0.85022 0.15555 0.67708 0.0
O389 O 0.83798 0.13777 0.7095 0.0
O390 O 0.85831 0.17867 0.63499 0.0
O391 O 0.89097 0.19873 0.6812 0.0
Mg392 Mg 0.87638 0.21467 0.64384 0.0
O393 O 0.86594 0.22543 0.66932 0.0
O394 O 0.85658 0.20253 0.61596 0.0
O395 O 0.90108 0.20854 0.64649 0.0
O396 O 0.88888 0.24515 0.643 0.0
C397 C 0.81047 0.17254 0.68336 0.0
C398 C 0.86252 0.19973 0.72863 0.0
C399 C 0.84425 0.13895 0.68892 0.0
C400 C 0.85524 0.18517 0.61615 0.0
C401 C 0.90428 0.20335 0.66582 0.0
C402 C 0.87727 0.24325 0.65989 0.0
O403 O 0.81548 0.16744 0.7019 0.0
O404 O 0.8235 0.18033 0.66742 0.0
H405 H 0.24998 0.8471 0.01984 0.0
H406 H 0.28635 0.87134 0.01369 0.0
H407 H 0.29678 0.82082 0.00032 0.0
H408 H 0.26045 0.79641 0.00681 0.0
H409 H 0.31702 0.86488 0.04346 0.0
H410 H 0.32867 0.86813 0.94954 0.0
H411 H 0.30427 0.86227 0.96134 0.0
H412 H 0.31262 0.8438 0.96318 0.0
C413 C 0.25993 0.84118 0.01508 0.0
C414 C 0.25241 0.81988 0.01391 0.0
C415 C 0.28064 0.855 0.01158 0.0
C416 C 0.2941 0.84777 0.00662 0.0
C417 C 0.28649 0.82661 0.00395 0.0
H418 H 0.42789 0.93391 -0.00012 0.0
H419 H 0.39513 0.90118 0.99666 0.0
C420 C 0.26574 0.81273 0.00752 0.0
C421 C 0.31632 0.86234 0.00689 0.0
H422 H 0.35673 0.8915 0.97243 0.0
C423 C 0.32582 0.87051 0.02798 0.0
C424 C 0.3277 0.86925 0.98668 0.0
C425 C 0.31793 0.86051 0.96379 0.0
C426 C 0.34626 0.88634 0.0293 0.0
C427 C 0.35722 0.89443 0.00896 0.0
C428 C 0.34816 0.8853 0.98794 0.0
C429 C 0.3769 0.91397 0.00924 0.0
C430 C 0.35576 0.89479 0.05241 0.0
C431 C 0.37725 0.9319 0.01676 0.0
C432 C 0.39573 0.95029 0.01887 0.0
C433 C 0.41412 0.95119 0.01296 0.0
C434 C 0.41377 0.93352 0.00432 0.0
C435 C 0.39518 0.9149 0.00257 0.0
H436 H 0.34772 0.88344 0.06607 0.0
H437 H 0.37222 0.89929 0.05276 0.0
H438 H 0.35464 0.90868 0.05628 0.0
H439 H 0.3632 0.93154 0.0215 0.0
H440 H 0.39568 0.9638 0.02538 0.0
H441 H 0.17139 0.41155 0.99545 0.0
H442 H 0.14545 0.42127 0.98663 0.0
H443 H 0.17251 0.46981 0.03716 0.0
H444 H 0.19837 0.46012 0.04591 0.0
H445 H 0.11939 0.41898 0.0227 0.0
H446 H 0.15817 0.49674 0.98422 0.0
H447 H 0.16933 0.4803 0.98415 0.0
H448 H 0.16999 0.49398 0.00961 0.0
C449 C 0.17221 0.42479 0.00395 0.0
C450 C 0.18683 0.43525 0.02116 0.0
C451 C 0.1574 0.43027 -0.00098 0.0
C452 C 0.1572 0.44638 0.0111 0.0
C453 C 0.17263 0.45764 0.02732 0.0
H454 H 0.06479 0.48041 0.03562 0.0
H455 H 0.09714 0.48012 0.03272 0.0
C456 C 0.18734 0.45208 0.03234 0.0
C457 C 0.13917 0.44921 0.00942 0.0
H458 H 0.12369 0.48359 0.99601 0.0
C459 C 0.12027 0.433 0.01657 0.0
C460 C 0.14055 0.46776 0.00207 0.0
C461 C 0.16056 0.48568 0.99442 0.0
C462 C 0.10266 0.43479 0.01661 0.0
C463 C 0.10385 0.45308 0.0086 0.0
C464 C 0.1228 0.46947 0.00176 0.0
C465 C 0.08548 0.45539 0.00777 0.0
C466 C 0.08305 0.41734 0.02594 0.0
C467 C 0.06851 0.44205 0.99415 0.0
C468 C 0.05007 0.4421 0.99595 0.0
C469 C 0.04858 0.45581 0.01099 0.0
C470 C 0.06585 0.46996 0.02364 0.0
C471 C 0.08424 0.46977 0.02203 0.0
H472 H 0.08592 0.4067 0.03635 0.0
H473 H 0.07501 0.4233 0.0366 0.0
H474 H 0.07272 0.40836 0.01159 0.0
H475 H 0.0693 0.43103 0.98285 0.0
H476 H 0.03679 0.43098 0.98625 0.0
H477 H 0.57801 0.75416 0.9868 0.0
H478 H 0.56263 0.71678 0.97993 0.0
H479 H 0.54977 0.70595 0.05162 0.0
H480 H 0.56399 0.74242 0.05823 0.0
H481 H 0.57679 0.69319 -0.00192 0.0
H482 H 0.49684 0.66181 0.02532 0.0
H483 H 0.51328 0.68874 0.01914 0.0
H484 H 0.51407 0.67881 0.04679 0.0
C485 C 0.57153 0.74364 0.00088 0.0
C486 C 0.57254 0.75113 0.02308 0.0
C487 C 0.56276 0.7224 0.997 0.0
C488 C 0.5547 0.70857 0.01524 0.0
C489 C 0.55529 0.71617 0.03719 0.0
H490 H 0.56126 0.6008 0.03729 0.0
H491 H 0.55943 0.63215 0.04357 0.0
C492 C 0.56385 0.73712 0.041 0.0
C493 C 0.54791 0.68649 0.01244 0.0
H494 H 0.51078 0.63876 0.02922 0.0
C495 C 0.56219 0.68125 0.00444 0.0
C496 C 0.52881 0.67088 0.02071 0.0
C497 C 0.51233 0.67537 0.02824 0.0
C498 C 0.55839 0.66103 0.00569 0.0
C499 C 0.53996 0.64577 0.01555 0.0
C500 C 0.52513 0.65068 0.02231 0.0
C501 C 0.53587 0.62452 0.01794 0.0
C502 C 0.57423 0.65617 0.99667 0.0
C503 C 0.52178 0.60915 0.00315 0.0
C504 C 0.5224 0.59104 8e-05 0.0
C505 C 0.53732 0.5884 0.01153 0.0
C506 C 0.54963 0.60261 0.02837 0.0
C507 C 0.54869 0.62052 0.03181 0.0
H508 H 0.58562 0.66865 0.98577 0.0
H509 H 0.58261 0.65422 0.01117 0.0
H510 H 0.5668 0.6416 0.98663 0.0
H511 H 0.51178 0.61201 0.99236 0.0
H512 H 0.51298 0.58034 0.98678 0.0
H513 H 0.85174 0.24373 0.99752 0.0
H514 H 0.87664 0.28064 -0.00034 0.0
H515 H 0.82719 0.29379 0.00275 0.0
H516 H 0.80225 0.25694 0.00043 0.0
H517 H 0.8741 0.30631 0.96289 0.0
H518 H 0.87162 0.33401 0.05023 0.0
H519 H 0.86448 0.30763 0.04413 0.0
H520 H 0.84731 0.31681 0.03689 0.0
C521 C 0.84623 0.25449 -0.00052 0.0
C522 C 0.8251 0.24754 -0.00137 0.0
C523 C 0.86043 0.27553 0.00055 0.0
C524 C 0.8537 0.28987 0.00108 0.0
C525 C 0.83265 0.28291 0.00245 0.0
H526 H 0.92445 0.42025 0.01333 0.0
H527 H 0.89496 0.38893 -0.00191 0.0
C528 C 0.81842 0.26185 0.00131 0.0
C529 C 0.86839 0.31191 0.99735 0.0
H530 H 0.89042 0.35897 0.02303 0.0
C531 C 0.87768 0.31793 0.97596 0.0
C532 C 0.87281 0.32691 0.01435 0.0
C533 C 0.86369 0.32113 0.03778 0.0
C534 C 0.89136 0.33869 0.97111 0.0
C535 C 0.89607 0.35377 0.98828 0.0
C536 C 0.88651 0.3476 0.00958 0.0
C537 C 0.91288 0.37548 0.9863 0.0
C538 C 0.90052 0.34408 0.94767 0.0
C539 C 0.93284 0.37944 0.9821 0.0
C540 C 0.94964 0.39767 0.98999 0.0
C541 C 0.94664 0.41179 0.00272 0.0
C542 C 0.92707 0.40953 0.00353 0.0
C543 C 0.91022 0.3915 0.99502 0.0
H544 H 0.88953 0.33346 0.9346 0.0
H545 H 0.9051 0.36012 0.94307 0.0
H546 H 0.91426 0.34226 0.94714 0.0
H547 H 0.93551 0.36746 0.97567 0.0
H548 H 0.9647 0.39917 0.98928 0.0
H549 H 0.7591 0.5848 0.03199 0.0
H550 H 0.7229 0.57243 0.04102 0.0
H551 H 0.70467 0.54168 0.97564 0.0
H552 H 0.7405 0.55384 0.96673 0.0
H553 H 0.69835 0.58282 0.01408 0.0
H554 H 0.66345 0.49816 0.01856 0.0
H555 H 0.69076 0.51548 0.02111 0.0
H556 H 0.67848 0.50893 0.99353 0.0
C557 C 0.74725 0.57503 0.01986 0.0
C558 C 0.75245 0.57034 -0.00134 0.0
C559 C 0.72667 0.568 0.02497 0.0
C560 C 0.71112 0.55591 0.00911 0.0
C561 C 0.71635 0.55061 0.98832 0.0
H562 H 0.5921 0.52656 0.96879 0.0
H563 H 0.62505 0.52844 0.97569 0.0
C564 C 0.73682 0.55772 0.98316 0.0
C565 C 0.68969 0.55082 0.01283 0.0
H566 H 0.64028 0.51099 0.01173 0.0
C567 C 0.68566 0.56712 0.01417 0.0
C568 C 0.67319 0.53031 0.01249 0.0
C569 C 0.67667 0.51221 0.01154 0.0
C570 C 0.66551 0.56349 0.01411 0.0
C571 C 0.64902 0.54301 0.01327 0.0
C572 C 0.65301 0.52666 0.01262 0.0
C573 C 0.62768 0.53857 0.01072 0.0
C574 C 0.66198 0.58158 0.0136 0.0
C575 C 0.61795 0.54288 0.02846 0.0
C576 C 0.59898 0.54158 0.02464 0.0
C577 C 0.58979 0.5363 0.00292 0.0
C578 C 0.59906 0.53093 0.9856 0.0
C579 C 0.61778 0.53189 0.98953 0.0
H580 H 0.67639 0.59638 0.01097 0.0
H581 H 0.65095 0.57952 -0.00022 0.0
H582 H 0.65526 0.58258 0.02998 0.0
H583 H 0.6254 0.548 0.04495 0.0
H584 H 0.59209 0.54579 0.03823 0.0
H585 H 0.45702 0.20021 0.97495 0.0
H586 H 0.47076 0.17684 0.97661 0.0
H587 H 0.42699 0.14171 0.02846 0.0
H588 H 0.41282 0.16495 0.02631 0.0
H589 H 0.48666 0.16233 0.01039 0.0
H590 H 0.41236 0.10108 0.97467 0.0
H591 H 0.41903 0.12776 0.97596 0.0
H592 H 0.41017 0.11209 0.00097 0.0
C593 C 0.45078 0.1878 0.98713 0.0
C594 C 0.43396 0.18416 0.00049 0.0
C595 C 0.45856 0.17449 0.98802 0.0
C596 C 0.44955 0.15739 0.00225 0.0
C597 C 0.4338 0.15467 0.01703 0.0
H598 H 0.46599 0.0675 0.05205 0.0
H599 H 0.46771 0.09925 0.04022 0.0
C600 C 0.42587 0.16795 0.016 0.0
C601 C 0.45543 0.1415 1e-05 0.0
H602 H 0.43605 0.09079 0.987 0.0
C603 C 0.4757 0.14675 0.00501 0.0
C604 C 0.44122 0.12141 0.99223 0.0
C605 C 0.41953 0.11525 0.98542 0.0
C606 C 0.4817 0.13186 0.00414 0.0
C607 C 0.46705 0.11145 -0.0019 0.0
C608 C 0.44725 0.10658 0.99142 0.0
C609 C 0.47008 0.09429 0.00433 0.0
C610 C 0.5033 0.13766 0.01078 0.0
C611 C 0.47098 0.08113 0.98789 0.0
C612 C 0.47023 0.06291 0.99468 0.0
C613 C 0.46791 0.05763 0.01781 0.0
C614 C 0.46761 0.07119 0.03409 0.0
C615 C 0.46881 0.08941 0.02741 0.0
H616 H 0.51387 0.15454 0.01 0.0
H617 H 0.50345 0.13264 0.02849 0.0
H618 H 0.50904 0.12978 -0.00052 0.0
H619 H 0.47162 0.08464 0.96994 0.0
H620 H 0.47043 0.05256 0.98189 0.0
H621 H 0.70557 0.15673 0.95451 0.0
H622 H 0.67026 0.13355 0.96586 0.0
H623 H 0.68965 0.14014 0.03616 0.0
H624 H 0.72532 0.16359 0.02482 0.0
H625 H 0.65741 0.0954 0.99182 0.0
H626 H 0.6394 0.15132 0.03357 0.0
H627 H 0.65983 0.15953 0.01321 0.0
H628 H 0.66282 0.15164 0.04101 0.0
C629 C 0.70231 0.15334 0.97241 0.0
C630 C 0.71812 0.16194 0.98878 0.0
C631 C 0.68217 0.14012 0.97886 0.0
C632 C 0.67737 0.13527 0.00183 0.0
C633 C 0.69307 0.1439 0.01837 0.0
H634 H 0.54975 0.04724 0.04072 0.0
H635 H 0.58627 0.07317 0.04499 0.0
C636 C 0.71339 0.15719 0.01187 0.0
C637 C 0.65591 0.12046 0.0078 0.0
H638 H 0.6119 0.11763 0.02708 0.0
C639 C 0.64753 0.10014 -8e-05 0.0
C640 C 0.64314 0.12674 0.01844 0.0
C641 C 0.65159 0.14849 0.02705 0.0
C642 C 0.6265 0.08615 0.0014 0.0
C643 C 0.61348 0.09275 0.0107 0.0
C644 C 0.62197 0.11271 0.01983 0.0
C645 C 0.59095 0.07949 0.00898 0.0
C646 C 0.61821 0.06456 0.99226 0.0
C647 C 0.58148 0.07505 0.98745 0.0
C648 C 0.56084 0.0602 0.98492 0.0
C649 C 0.54921 0.04966 0.00395 0.0
C650 C 0.55837 0.0551 0.02575 0.0
C651 C 0.57918 0.06989 0.02823 0.0
H652 H 0.63042 0.06046 0.99078 0.0
H653 H 0.60594 0.05319 0.00337 0.0
H654 H 0.61149 0.06335 0.97505 0.0
H655 H 0.59029 0.08253 0.97243 0.0
H656 H 0.55411 0.05659 0.96797 0.0
H657 H 0.83653 0.53997 0.96215 0.0
H658 H 0.8583 0.52571 0.97204 0.0
H659 H 0.86762 0.55215 0.03949 0.0
H660 H 0.84528 0.56635 0.02966 0.0
H661 H 0.90028 0.55236 0.98638 0.0
H662 H 0.85478 0.49069 0.04872 0.0
H663 H 0.84274 0.4999 0.02899 0.0
H664 H 0.85737 0.51573 0.05265 0.0
C665 C 0.84299 0.54255 0.9792 0.0
C666 C 0.83925 0.55423 0.99513 0.0
C667 C 0.85538 0.53435 0.98484 0.0
C668 C 0.86445 0.53774 0.00651 0.0
C669 C 0.86049 0.5491 0.02277 0.0
H670 H 0.95501 0.50041 0.04122 0.0
H671 H 0.92984 0.51192 0.04526 0.0
C672 C 0.84784 0.55727 0.01713 0.0
C673 C 0.87949 0.53087 0.01071 0.0
H674 H 0.88585 0.49363 0.0363 0.0
C675 C 0.89725 0.53969 0.99751 0.0
C676 C 0.87552 0.51443 0.02535 0.0
C677 C 0.85656 0.50448 0.03975 0.0
C678 C 0.91079 0.53202 -0.00217 0.0
C679 C 0.90631 0.51484 0.01149 0.0
C680 C 0.88909 0.50664 0.02565 0.0
C681 C 0.91909 0.50495 0.01034 0.0
C682 C 0.92963 0.54223 0.98319 0.0
C683 C 0.92076 0.49648 0.98964 0.0
C684 C 0.93527 0.49025 0.9872 0.0
C685 C 0.94805 0.49192 0.00557 0.0
C686 C 0.94529 0.49891 0.0268 0.0
C687 C 0.93095 0.50549 0.02914 0.0
H688 H 0.93366 0.55816 0.97869 0.0
H689 H 0.94299 0.54273 0.99194 0.0
H690 H 0.92665 0.5333 0.9671 0.0
H691 H 0.91143 0.49553 0.97506 0.0
H692 H 0.9369 0.48466 0.97074 0.0
H693 H 0.46146 0.28367 0.0255 0.0
H694 H 0.47863 0.32082 0.03452 0.0
H695 H 0.44706 0.32955 0.97793 0.0
H696 H 0.43046 0.29296 0.96864 0.0
H697 H 0.50341 0.35294 -0.00184 0.0
H698 H 0.43953 0.3599 0.035 0.0
H699 H 0.44064 0.33642 0.03611 0.0
H700 H 0.43246 0.34325 0.01043 0.0
C701 C 0.45801 0.29357 0.01534 0.0
C702 C 0.4447 0.28568 0.99642 0.0
C703 C 0.46781 0.31466 0.02042 0.0
C704 C 0.46392 0.32773 0.00692 0.0
C705 C 0.45007 0.31961 0.98861 0.0
H706 H 0.4917 0.44967 0.9827 0.0
H707 H 0.48506 0.41445 0.9765 0.0
C708 C 0.44066 0.29879 0.98331 0.0
C709 C 0.47523 0.35017 0.01026 0.0
H710 H 0.46691 0.39025 0.01878 0.0
C711 C 0.49567 0.36123 0.00312 0.0
C712 C 0.46491 0.36072 0.01657 0.0
C713 C 0.44322 0.3495 0.02517 0.0
C714 C 0.50573 0.38271 0.00098 0.0
C715 C 0.49498 0.39309 0.00615 0.0
C716 C 0.47489 0.38208 0.01428 0.0
C717 C 0.50433 0.41556 0.00462 0.0
C718 C 0.5274 0.3941 0.99241 0.0
C719 C 0.51811 0.42795 0.0217 0.0
C720 C 0.52164 0.4478 0.02538 0.0
C721 C 0.51164 0.45549 0.01183 0.0
C722 C 0.49968 0.44399 0.99314 0.0
C723 C 0.4959 0.42396 0.98964 0.0
H724 H 0.53255 0.38347 0.98606 0.0
H725 H 0.52873 0.40464 0.97849 0.0
H726 H 0.53785 0.40362 0.00644 0.0
H727 H 0.52452 0.42161 0.03356 0.0
H728 H 0.53087 0.45655 0.03995 0.0
H729 H 0.15679 0.70713 0.05902 0.0
H730 H 0.13107 0.67117 0.05181 0.0
H731 H 0.14898 0.67747 0.9814 0.0
H732 H 0.17464 0.71398 0.98848 0.0
H733 H 0.0976 0.65263 0.01411 0.0
H734 H 0.15809 0.63058 0.01447 0.0
H735 H 0.16241 0.65456 0.02671 0.0
H736 H 0.16134 0.65131 0.99639 0.0
C737 C 0.15506 0.7009 0.04193 0.0
C738 C 0.16765 0.71311 0.02433 0.0
C739 C 0.14037 0.68044 0.03785 0.0
C740 C 0.13834 0.67175 0.01619 0.0
C741 C 0.15046 0.68404 -0.00175 0.0
H742 H 0.06598 0.54796 0.96867 0.0
H743 H 0.09366 0.5829 0.97675 0.0
C744 C 0.165 0.70478 0.00227 0.0
C745 C 0.12441 0.64947 0.01319 0.0
H746 H 0.12376 0.60371 0.01155 0.0
C747 C 0.10324 0.64188 0.01343 0.0
C748 C 0.13199 0.63566 0.01254 0.0
C749 C 0.15469 0.64329 0.01261 0.0
C750 C 0.08933 0.62067 0.01283 0.0
C751 C 0.09688 0.6068 0.01261 0.0
C752 C 0.11809 0.61443 0.01218 0.0
C753 C 0.08286 0.58441 0.01034 0.0
C754 C 0.06666 0.61327 0.01192 0.0
C755 C 0.06836 0.5733 0.02717 0.0
C756 C 0.05258 0.55317 0.02264 0.0
C757 C 0.05118 0.54422 0.0012 0.0
C758 C 0.06668 0.55475 0.98523 0.0
C759 C 0.0825 0.57464 0.98983 0.0
H760 H 0.06354 0.62586 0.00766 0.0
H761 H 0.05879 0.60072 -0.0009 0.0
H762 H 0.05989 0.60711 0.02878 0.0
H763 H 0.06864 0.58058 0.04325 0.0
H764 H 0.04075 0.54524 0.03518 0.0
H765 H 0.29869 0.47087 0.05423 0.0
H766 H 0.33448 0.48469 0.04391 0.0
H767 H 0.31605 0.44009 0.98923 0.0
H768 H 0.27985 0.42655 -0.00083 0.0
H769 H 0.35221 0.4603 0.04602 0.0
H770 H 0.3607 0.49352 0.95961 0.0
H771 H 0.33948 0.48841 0.97785 0.0
H772 H 0.34003 0.46761 0.96334 0.0
C773 C 0.30226 0.46424 0.03976 0.0
C774 C 0.28663 0.44766 0.02753 0.0
C775 C 0.32267 0.47217 0.03384 0.0
C776 C 0.32793 0.46352 0.01573 0.0
C777 C 0.3123 0.44726 0.00298 0.0
H778 H 0.44964 0.48526 0.98033 0.0
H779 H 0.4132 0.47526 0.97877 0.0
C780 C 0.29169 0.43946 0.00874 0.0
C781 C 0.34983 0.47013 0.01235 0.0
H782 H 0.38994 0.49424 0.97582 0.0
C783 C 0.36046 0.46772 0.03065 0.0
C784 C 0.36044 0.47954 0.99219 0.0
C785 C 0.34969 0.4826 0.97212 0.0
C786 C 0.38146 0.47469 0.02957 0.0
C787 C 0.39234 0.48483 0.00976 0.0
C788 C 0.38162 0.48672 0.9911 0.0
C789 C 0.41482 0.49334 0.00837 0.0
C790 C 0.39167 0.47083 0.04966 0.0
C791 C 0.42796 0.50749 0.0249 0.0
C792 C 0.4485 0.51269 0.02619 0.0
C793 C 0.45642 0.50449 0.0104 0.0
C794 C 0.44378 0.49176 0.99266 0.0
C795 C 0.42303 0.48609 0.99175 0.0
H796 H 0.38041 0.45789 0.06018 0.0
H797 H 0.40361 0.46728 0.04405 0.0
H798 H 0.39904 0.48478 0.0607 0.0
H799 H 0.42209 0.51378 0.03747 0.0
H800 H 0.4581 0.52274 0.03984 0.0
H801 H 0.56499 0.85568 0.06252 0.0
H802 H 0.55157 0.87831 0.05261 0.0
H803 H 0.53088 0.84755 0.98749 0.0
H804 H 0.54485 0.82501 0.99719 0.0
H805 H 0.55918 0.90412 0.00915 0.0
H806 H 0.47929 0.84192 0.0266 0.0
H807 H 0.50131 0.84094 0.03729 0.0
H808 H 0.49479 0.83657 0.0076 0.0
C809 C 0.55779 0.85393 0.04598 0.0
C810 C 0.55582 0.83868 0.03063 0.0
C811 C 0.55023 0.86685 0.04034 0.0
C812 C 0.54019 0.86441 0.01946 0.0
C813 C 0.53862 0.84954 0.00371 0.0
H814 H 0.48005 0.92813 0.97104 0.0
H815 H 0.48809 0.90117 0.98006 0.0
C816 C 0.54659 0.83678 0.00922 0.0
C817 C 0.53033 0.87674 0.01525 0.0
H818 H 0.48435 0.875 0.01926 0.0
C819 C 0.54281 0.89779 0.01116 0.0
C820 C 0.50902 0.86829 0.01807 0.0
C821 C 0.4952 0.84571 0.02273 0.0
C822 C 0.53449 0.91075 0.00995 0.0
C823 C 0.51325 0.90244 0.01351 0.0
C824 C 0.50068 0.88129 0.01706 0.0
C825 C 0.50384 0.91545 0.01165 0.0
C826 C 0.5484 0.93322 0.00466 0.0
C827 C 0.50892 0.93158 0.02728 0.0
C828 C 0.50409 0.94686 0.02229 0.0
C829 C 0.49443 0.94612 0.00154 0.0
C830 C 0.4877 0.92898 0.98704 0.0
C831 C 0.49221 0.91361 0.99219 0.0
H832 H 0.56342 0.93627 -0.00199 0.0
H833 H 0.54113 0.93853 0.99194 0.0
H834 H 0.55125 0.94251 0.02044 0.0
H835 H 0.5178 0.93308 0.04248 0.0
H836 H 0.50943 0.96004 0.03362 0.0
H837 H 0.93179 0.14405 0.38511 0.0
H838 H 0.96758 0.1684 0.37653 0.0
H839 H 0.94933 0.17988 0.31096 0.0
H840 H 0.91322 0.15564 0.31975 0.0
H841 H -0.00578 0.1718 0.34274 0.0
H842 H 0.97875 0.23675 0.34181 0.0
H843 H 0.96044 0.21154 0.35189 0.0
H844 H 0.9634 0.2165 0.32184 0.0
C845 C 0.93545 0.15165 0.36877 0.0
C846 C 0.91981 0.14822 0.35317 0.0
C847 C 0.95588 0.16547 0.36386 0.0
C848 C 0.96107 0.17618 0.34328 0.0
C849 C 0.94558 0.17198 0.3271 0.0
H850 H 0.07716 0.28428 0.3076 0.0
H851 H 0.04542 0.25092 0.30257 0.0
C852 C 0.92503 0.15805 0.33201 0.0
C853 C 0.98252 0.19264 0.33961 0.0
H854 H 0.01232 0.24457 0.33352 0.0
C855 C -0.00181 0.18769 0.34043 0.0
C856 C 0.98768 0.21342 0.33721 0.0
C857 C 0.97175 0.21998 0.33837 0.0
C858 C 0.01891 0.20301 0.33886 0.0
C859 C 0.02396 0.2237 0.33612 0.0
C860 C 0.0083 0.22859 0.33499 0.0
C861 C 0.04531 0.24102 0.33714 0.0
C862 C 0.03524 0.19707 0.34062 0.0
C863 C 0.0559 0.24615 0.35802 0.0
C864 C 0.07364 0.26519 0.36097 0.0
C865 C 0.0812 0.27928 0.34302 0.0
C866 C 0.0716 0.27355 0.32158 0.0
C867 C 0.05355 0.25456 0.31873 0.0
H868 H 0.02895 0.18041 0.33706 0.0
H869 H 0.0479 0.20612 0.32864 0.0
H870 H 0.04175 0.2004 0.35816 0.0
H871 H 0.04964 0.23609 0.37252 0.0
H872 H 0.08092 0.26936 0.37764 0.0
H873 H 0.84691 0.75436 0.32285 0.0
H874 H 0.82272 0.76594 0.31174 0.0
H875 H 0.82441 0.78738 0.38048 0.0
H876 H 0.84864 0.77646 0.39135 0.0
H877 H 0.78444 0.75081 0.33106 0.0
H878 H 0.82928 0.83513 0.34426 0.0
H879 H 0.84127 0.81955 0.34176 0.0
H880 H 0.83067 0.82143 0.36845 0.0
C881 C 0.84237 0.76194 0.33535 0.0
C882 C 0.84941 0.76433 0.35797 0.0
C883 C 0.82861 0.76852 0.32905 0.0
C884 C 0.82207 0.77785 0.34521 0.0
C885 C 0.82963 0.78074 0.36758 0.0
H886 H 0.72382 0.79252 0.38199 0.0
H887 H 0.75625 0.79315 0.37642 0.0
C888 C 0.84324 0.7742 0.37385 0.0
C889 C 0.80559 0.78245 0.3398 0.0
H890 H 0.79232 0.8195 0.34617 0.0
C891 C 0.78627 0.76595 0.33366 0.0
C892 C 0.808 0.80218 0.34362 0.0
C893 C 0.8285 0.8206 0.34969 0.0
C894 C 0.76901 0.76836 0.33258 0.0
C895 C 0.77129 0.78789 0.33722 0.0
C896 C 0.79074 0.80461 0.34238 0.0
C897 C 0.75322 0.7904 0.33973 0.0
C898 C 0.74821 0.74975 0.32807 0.0
C899 C 0.74114 0.7892 0.32082 0.0
C900 C 0.7227 0.78913 0.32396 0.0
C901 C 0.71611 0.78981 0.34605 0.0
C902 C 0.72856 0.7917 0.36482 0.0
C903 C 0.74709 0.7922 0.36167 0.0
H904 H 0.74879 0.73526 0.3274 0.0
H905 H 0.73732 0.74836 0.34154 0.0
H906 H 0.74207 0.75156 0.31156 0.0
H907 H 0.74572 0.7878 0.30377 0.0
H908 H 0.71324 0.78769 0.30931 0.0
H909 H 0.25807 0.09083 0.32649 0.0
H910 H 0.24554 0.05385 0.32133 0.0
H911 H 0.20078 0.04019 0.37376 0.0
H912 H 0.21272 0.0768 0.3782 0.0
H913 H 0.25002 0.03365 0.35701 0.0
H914 H 0.16807 0.99309 0.33053 0.0
H915 H 0.18443 0.02054 0.32766 0.0
H916 H 0.17371 0.00972 0.35483 0.0
C917 C 0.24494 0.07978 0.33605 0.0
C918 C 0.23624 0.08643 0.35265 0.0
C919 C 0.23788 0.05874 0.33327 0.0
C920 C 0.2222 0.04425 0.34718 0.0
C921 C 0.21255 0.05094 0.36251 0.0
H922 H 0.19941 0.91682 0.36857 0.0
H923 H 0.20039 0.94937 0.37858 0.0
C924 C 0.21943 0.07186 0.36509 0.0
C925 C 0.21837 0.02291 0.34844 0.0
H926 H 0.1817 0.97223 0.34289 0.0
C927 C 0.23504 0.02025 0.35396 0.0
C928 C 0.19871 0.00541 0.34511 0.0
C929 C 0.18023 0.00728 0.33903 0.0
C930 C 0.2328 0.00063 0.35527 0.0
C931 C 0.21342 0.98323 0.35093 0.0
C932 C 0.19648 0.98571 0.34651 0.0
C933 C 0.2117 0.96322 0.34574 0.0
C934 C 0.25136 -0.00143 0.36021 0.0
C935 C 0.21764 0.96047 0.32413 0.0
C936 C 0.21731 0.94234 0.31855 0.0
C937 C 0.21083 0.92639 0.33441 0.0
C938 C 0.20441 0.92889 0.35605 0.0
C939 C 0.20495 0.94736 0.36175 0.0
H940 H 0.26436 0.01305 0.3672 0.0
H941 H 0.2475 0.98597 0.37247 0.0
H942 H 0.25639 -0.00542 0.3442 0.0
H943 H 0.22279 0.97255 0.31158 0.0
H944 H 0.22209 0.94082 0.30164 0.0
H945 H 0.51917 0.57595 0.32802 0.0
H946 H 0.54399 0.61286 0.33057 0.0
H947 H 0.49481 0.62535 0.34184 0.0
H948 H 0.46988 0.58859 0.33874 0.0
H949 H 0.53646 0.63996 0.29639 0.0
H950 H 0.54485 0.66369 0.38764 0.0
H951 H 0.5386 0.63808 0.37883 0.0
H952 H 0.5195 0.64562 0.37719 0.0
C953 C 0.51372 0.58652 0.33183 0.0
C954 C 0.49255 0.57942 0.33288 0.0
C955 C 0.52789 0.60757 0.33313 0.0
C956 C 0.52113 0.62175 0.33601 0.0
C957 C 0.50026 0.61458 0.33956 0.0
H958 H 0.5896 0.75202 0.35166 0.0
H959 H 0.55965 0.71993 0.33884 0.0
C960 C 0.48605 0.59353 0.33806 0.0
C961 C 0.53537 0.64393 0.33261 0.0
H962 H 0.56055 0.68984 0.36074 0.0
C963 C 0.54175 0.65097 0.31039 0.0
C964 C 0.54205 0.65811 0.35088 0.0
C965 C 0.53607 0.65113 0.37506 0.0
C966 C 0.55464 0.672 0.30597 0.0
C967 C 0.56147 0.68625 0.32433 0.0
C968 C 0.55495 0.67905 0.34652 0.0
C969 C 0.57729 0.70828 0.32197 0.0
C970 C 0.56071 0.67865 0.28172 0.0
C971 C 0.59691 0.71338 0.31447 0.0
C972 C 0.61393 0.73199 0.32122 0.0
C973 C 0.6115 0.74543 0.33587 0.0
C974 C 0.59177 0.7419 0.34023 0.0
C975 C 0.57468 0.72345 0.33309 0.0
H976 H 0.54868 0.66796 0.26953 0.0
H977 H 0.56357 0.69447 0.27886 0.0
H978 H 0.57494 0.67833 0.27789 0.0
H979 H 0.59948 0.702 0.30608 0.0
H980 H 0.62909 0.73439 0.31786 0.0
H981 H 0.42559 0.93605 0.34106 0.0
H982 H 0.38961 0.92559 0.34763 0.0
H983 H 0.37274 0.86207 0.33721 0.0
H984 H 0.40877 0.87249 0.33134 0.0
H985 H 0.36045 0.90636 0.31435 0.0
H986 H 0.33853 0.85818 0.39189 0.0
H987 H 0.3649 0.87543 0.38448 0.0
H988 H 0.35057 0.85083 0.37045 0.0
C989 C 0.41423 0.91982 0.34112 0.0
C990 C 0.41982 0.90499 0.33613 0.0
C991 C 0.39374 0.91387 0.34466 0.0
C992 C 0.37856 0.89305 0.34308 0.0
C993 C 0.38426 0.87815 0.33908 0.0
H994 H 0.24756 0.83916 0.31817 0.0
H995 H 0.28232 0.84414 0.3221 0.0
C996 C 0.40481 0.88409 0.33581 0.0
C997 C 0.3567 0.88719 0.34321 0.0
H998 H 0.31136 0.85752 0.37024 0.0
C999 C 0.34975 0.89577 0.32665 0.0
C1000 C 0.34277 0.87321 0.35913 0.0
C1001 C 0.34956 0.86399 0.37762 0.0
C1002 C 0.3292 0.89074 0.32563 0.0
C1003 C 0.31538 0.8769 0.34164 0.0
C1004 C 0.32216 0.86812 0.35803 0.0
C1005 C 0.29399 0.8722 0.34198 0.0
C1006 C 0.32231 0.90028 0.30759 0.0
C1007 C 0.28919 0.88607 0.35242 0.0
C1008 C 0.26945 0.8831 0.35047 0.0
C1009 C 0.25446 0.86636 0.33788 0.0
C1010 C 0.25903 0.85207 0.32808 0.0
C1011 C 0.27873 0.8549 0.3303 0.0
H1012 H 0.33443 0.90897 0.2949 0.0
H1013 H 0.30848 0.88818 0.29854 0.0
H1014 H 0.31806 0.91096 0.31578 0.0
H1015 H 0.30092 0.89958 0.36132 0.0
H1016 H 0.26615 0.8944 0.35779 0.0
H1017 H 0.11955 0.52649 0.30527 0.0
H1018 H 0.13275 0.50286 0.30837 0.0
H1019 H 0.0984 0.47822 0.37 0.0
H1020 H 0.08451 0.5017 0.36638 0.0
H1021 H 0.15448 0.49463 0.33885 0.0
H1022 H 0.07559 0.42794 0.32867 0.0
H1023 H 0.08129 0.4541 0.32512 0.0
H1024 H 0.07931 0.44386 0.35319 0.0
C1025 C 0.11515 0.51629 0.31974 0.0
C1026 C 0.10103 0.51575 0.33555 0.0
C1027 C 0.1227 0.50282 0.3215 0.0
C1028 C 0.1163 0.48852 0.33916 0.0
C1029 C 0.10321 0.48887 0.35596 0.0
H1030 H 0.15493 0.40207 0.36965 0.0
H1031 H 0.15694 0.43512 0.36386 0.0
C1032 C 0.09545 0.50235 0.35407 0.0
C1033 C 0.12219 0.47239 0.33852 0.0
H1034 H 0.10232 0.42062 0.33268 0.0
C1035 C 0.1431 0.47842 0.33758 0.0
C1036 C 0.10732 0.45131 0.33621 0.0
C1037 C 0.08463 0.44385 0.33562 0.0
C1038 C 0.14951 0.4639 0.3346 0.0
C1039 C 0.13462 0.4428 0.33291 0.0
C1040 C 0.11375 0.43683 0.33377 0.0
C1041 C 0.13993 0.42625 0.332 0.0
C1042 C 0.17209 0.47129 0.33278 0.0
C1043 C 0.13073 0.41059 0.31538 0.0
C1044 C 0.12928 0.3915 0.31892 0.0
C1045 C 0.13733 0.38804 0.3389 0.0
C1046 C 0.14904 0.40458 0.35384 0.0
C1047 C 0.15013 0.42352 0.35056 0.0
H1048 H 0.18093 0.48777 0.32801 0.0
H1049 H 0.178 0.46962 0.34951 0.0
H1050 H 0.17489 0.46204 0.32 0.0
H1051 H 0.12282 0.41239 0.30088 0.0
H1052 H 0.11996 0.37886 0.30736 0.0
H1053 H 0.37132 0.4909 0.28671 0.0
H1054 H 0.33631 0.46661 0.29819 0.0
H1055 H 0.3562 0.47343 0.36831 0.0
H1056 H 0.39158 0.49785 0.35683 0.0
H1057 H 0.32387 0.42822 0.32456 0.0
H1058 H 0.30561 0.48426 0.36552 0.0
H1059 H 0.32589 0.4923 0.345 0.0
H1060 H 0.3292 0.48497 0.37299 0.0
C1061 C 0.36824 0.48726 0.30459 0.0
C1062 C 0.38411 0.49622 0.32086 0.0
C1063 C 0.34827 0.47338 0.31111 0.0
C1064 C 0.34369 0.46832 0.33407 0.0
C1065 C 0.35946 0.47728 0.35051 0.0
H1066 H 0.21522 0.384 0.37471 0.0
H1067 H 0.25231 0.40809 0.37855 0.0
C1068 C 0.37961 0.49114 0.34393 0.0
C1069 C 0.32232 0.45336 0.34026 0.0
H1070 H 0.27839 0.45039 0.35999 0.0
C1071 C 0.31399 0.43295 0.3327 0.0
C1072 C 0.30953 0.45961 0.35094 0.0
C1073 C 0.31785 0.48147 0.35908 0.0
C1074 C 0.293 0.41882 0.3346 0.0
C1075 C 0.27996 0.42539 0.34396 0.0
C1076 C 0.28845 0.44546 0.35277 0.0
C1077 C 0.25739 0.41231 0.34229 0.0
C1078 C 0.2848 0.39712 0.32584 0.0
C1079 C 0.24797 0.40741 0.32073 0.0
C1080 C 0.22697 0.39386 0.3185 0.0
C1081 C 0.21487 0.38493 0.33781 0.0
C1082 C 0.22412 0.3907 0.35953 0.0
C1083 C 0.24529 0.40433 0.36175 0.0
H1084 H 0.297 0.39295 0.32518 0.0
H1085 H 0.27218 0.38588 0.33668 0.0
H1086 H 0.27865 0.39583 0.30831 0.0
H1087 H 0.25698 0.41373 0.30553 0.0
H1088 H 0.22033 0.38992 0.30153 0.0
H1089 H 0.53825 0.91269 0.31022 0.0
H1090 H 0.55855 0.89713 0.32192 0.0
H1091 H 0.50856 0.85358 0.36302 0.0
H1092 H 0.48816 0.86958 0.35167 0.0
H1093 H 0.56828 0.88793 0.36976 0.0
H1094 H 0.52287 0.82146 0.31088 0.0
H1095 H 0.52332 0.84558 0.30777 0.0
H1096 H 0.50944 0.82883 0.33069 0.0
C1097 C 0.53172 0.90002 0.32207 0.0
C1098 C 0.51176 0.89232 0.3301 0.0
C1099 C 0.54332 0.89121 0.32876 0.0
C1100 C 0.535 0.87424 0.34324 0.0
C1101 C 0.5152 0.86675 0.35186 0.0
H1102 H 0.60211 0.8063 0.3604 0.0
H1103 H 0.57596 0.81618 0.36733 0.0
C1104 C 0.50364 0.87588 0.34545 0.0
C1105 C 0.54678 0.86371 0.34753 0.0
H1106 H 0.553 0.82467 0.32672 0.0
C1107 C 0.5647 0.8738 0.36087 0.0
C1108 C 0.54216 0.84548 0.33556 0.0
C1109 C 0.52347 0.83463 0.3203 0.0
C1110 C 0.57859 0.86653 0.3618 0.0
C1111 C 0.57439 0.84881 0.34904 0.0
C1112 C 0.55598 0.83813 0.33665 0.0
C1113 C 0.59013 0.84287 0.34569 0.0
C1114 C 0.59814 0.87834 0.3755 0.0
C1115 C 0.60636 0.85442 0.33094 0.0
C1116 C 0.62091 0.84861 0.32659 0.0
C1117 C 0.61965 0.83127 0.33716 0.0
C1118 C 0.60342 0.81973 0.35206 0.0
C1119 C 0.58856 0.82537 0.35608 0.0
H1120 H 0.59717 0.88892 0.38807 0.0
H1121 H 0.6018 0.86764 0.38464 0.0
H1122 H 0.61097 0.88763 0.36381 0.0
H1123 H 0.60767 0.86788 0.32265 0.0
H1124 H 0.63339 0.85795 0.31524 0.0
H1125 H 0.1235 0.62778 0.2893 0.0
H1126 H 0.13537 0.66415 0.29631 0.0
H1127 H 0.12561 0.65265 0.36827 0.0
H1128 H 0.11348 0.6159 0.36131 0.0
H1129 H 0.1142 0.68362 0.32202 0.0
H1130 H 0.18858 0.69736 0.35836 0.0
H1131 H 0.17244 0.67491 0.3411 0.0
H1132 H 0.16517 0.67676 0.36963 0.0
C1133 C 0.12377 0.63297 0.30662 0.0
C1134 C 0.11771 0.61912 0.32477 0.0
C1135 C 0.13043 0.65369 0.31056 0.0
C1136 C 0.13137 0.66102 0.33275 0.0
C1137 C 0.125 0.6472 0.351 0.0
H1138 H 0.19187 0.78492 0.38356 0.0
H1139 H 0.17686 0.74858 0.37682 0.0
C1140 C 0.11813 0.6263 0.34703 0.0
C1141 C 0.14035 0.68338 0.33653 0.0
H1142 H 0.18475 0.72608 0.35293 0.0
C1143 C 0.12955 0.693 0.32897 0.0
C1144 C 0.16034 0.69541 0.34557 0.0
C1145 C 0.17246 0.68572 0.35409 0.0
C1146 C 0.13821 0.71448 0.33042 0.0
C1147 C 0.15859 0.72667 0.33872 0.0
C1148 C 0.16926 0.71686 0.34632 0.0
C1149 C 0.16869 0.7494 0.34158 0.0
C1150 C 0.12519 0.7237 0.32367 0.0
C1151 C 0.16987 0.76244 0.32377 0.0
C1152 C 0.17794 0.78358 0.32782 0.0
C1153 C 0.18552 0.79204 0.34956 0.0
C1154 C 0.18606 0.77914 0.36658 0.0
C1155 C 0.17739 0.75814 0.36279 0.0
H1156 H 0.10859 0.71209 0.32389 0.0
H1157 H 0.12796 0.73662 0.33522 0.0
H1158 H 0.12904 0.72966 0.30608 0.0
H1159 H 0.16407 0.75623 0.30693 0.0
H1160 H 0.1775 0.7931 0.31429 0.0
H1161 H 0.86207 0.03861 0.35646 0.0
H1162 H 0.83637 0.00192 0.35638 0.0
H1163 H 0.79021 0.01613 0.33426 0.0
H1164 H 0.81591 0.05287 0.33416 0.0
H1165 H 0.80082 0.98272 0.38206 0.0
H1166 H 0.78277 0.97072 0.28946 0.0
H1167 H 0.80512 0.99329 0.3007 0.0
H1168 H 0.78037 0.99132 0.30185 0.0
C1169 C 0.84648 0.03386 0.35132 0.0
C1170 C 0.841 0.04853 0.3452 0.0
C1171 C 0.83182 0.01294 0.35137 0.0
C1172 C 0.81144 0.00628 0.34509 0.0
C1173 C 0.80593 0.02091 0.3388 0.0
H1174 H 0.69782 0.89302 0.34619 0.0
H1175 H 0.72573 0.92811 0.35392 0.0
C1176 C 0.82059 0.04189 0.33886 0.0
C1177 C 0.79587 0.98411 0.34607 0.0
H1178 H 0.76112 0.94335 0.31384 0.0
C1179 C 0.79224 0.97407 0.36711 0.0
C1180 C 0.78475 0.97285 0.32653 0.0
C1181 C 0.78853 0.98251 0.3033 0.0
C1182 C 0.77746 0.95316 0.36918 0.0
C1183 C 0.76617 0.94212 0.34975 0.0
C1184 C 0.76991 0.95201 0.32869 0.0
C1185 C 0.7497 0.92043 0.35083 0.0
C1186 C 0.77366 0.94299 0.39207 0.0
C1187 C 0.75403 0.90447 0.3475 0.0
C1188 C 0.73806 0.88436 0.34328 0.0
C1189 C 0.71775 0.88021 0.34232 0.0
C1190 C 0.71341 0.89592 0.34725 0.0
C1191 C 0.72929 0.91592 0.35155 0.0
H1192 H 0.78372 0.95374 0.40564 0.0
H1193 H 0.75741 0.93689 0.39686 0.0
H1194 H 0.7763 0.92972 0.39104 0.0
H1195 H 0.76975 0.9078 0.34666 0.0
H1196 H 0.74167 0.87248 0.33901 0.0
H1197 H 0.96581 0.77798 0.39663 0.0
H1198 H 0.00063 0.79039 0.38312 0.0
H1199 H 0.98231 0.79766 0.31568 0.0
H1200 H 0.94713 0.78492 0.32909 0.0
H1201 H 0.01058 0.77159 0.34165 0.0
H1202 H 0.03587 0.85522 0.33884 0.0
H1203 H 0.01508 0.8378 0.35677 0.0
H1204 H 0.01145 0.83664 0.32652 0.0
C1205 C 0.96921 0.78223 0.37892 0.0
C1206 C 0.95388 0.78047 0.36388 0.0
C1207 C 0.98904 0.78929 0.37125 0.0
C1208 C 0.99394 0.79499 0.34849 0.0
C1209 C 0.97872 0.79337 0.33334 0.0
H1210 H 0.12213 0.8373 0.30739 0.0
H1211 H 0.08648 0.82998 0.30265 0.0
C1212 C 0.9587 0.78604 0.34098 0.0
C1213 C 0.01504 0.80222 0.34096 0.0
H1214 H 0.06134 0.84596 0.33487 0.0
C1215 C 0.0216 0.78779 0.3395 0.0
C1216 C 0.02929 0.82337 0.33841 0.0
C1217 C 0.02274 0.83929 0.34023 0.0
C1218 C 0.04234 0.79407 0.33672 0.0
C1219 C 0.05678 0.81529 0.33547 0.0
C1220 C 0.05011 0.82969 0.3356 0.0
C1221 C 0.07882 0.82257 0.33808 0.0
C1222 C 0.04888 0.77808 0.33661 0.0
C1223 C 0.08619 0.82138 0.3596 0.0
C1224 C 0.10613 0.82524 0.36225 0.0
C1225 C 0.11918 0.83056 0.34344 0.0
C1226 C 0.11227 0.8331 0.32208 0.0
C1227 C 0.09203 0.82897 0.31937 0.0
H1228 H 0.03584 0.76246 0.33269 0.0
H1229 H 0.06115 0.78195 0.32398 0.0
H1230 H 0.0551 0.77771 0.35368 0.0
H1231 H 0.07621 0.81665 0.37423 0.0
H1232 H 0.1112 0.82361 0.37902 0.0
H1233 H 0.24147 0.18616 0.33565 0.0
H1234 H 0.22896 0.21043 0.32996 0.0
H1235 H 0.17584 0.1721 0.37028 0.0
H1236 H 0.1882 0.14788 0.37602 0.0
H1237 H 0.18726 0.2023 0.31273 0.0
H1238 H 0.20722 0.23101 0.40212 0.0
H1239 H 0.21848 0.21776 0.38782 0.0
H1240 H 0.1928 0.20352 0.39829 0.0
C1241 C 0.22708 0.18288 0.34315 0.0
C1242 C 0.21583 0.16528 0.35645 0.0
C1243 C 0.21993 0.19668 0.33983 0.0
C1244 C 0.20161 0.19306 0.34992 0.0
C1245 C 0.1901 0.17518 0.36255 0.0
H1246 H 0.1382 0.2646 0.34305 0.0
H1247 H 0.1452 0.23631 0.35046 0.0
C1248 C 0.19717 0.1614 0.3658 0.0
C1249 C 0.19494 0.20845 0.34837 0.0
H1250 H 0.18971 0.24376 0.38013 0.0
C1251 C 0.18769 0.2113 0.32744 0.0
C1252 C 0.19565 0.22019 0.36764 0.0
C1253 C 0.20409 0.21817 0.39025 0.0
C1254 C 0.18107 0.22568 0.32534 0.0
C1255 C 0.18174 0.23734 0.34463 0.0
C1256 C 0.18889 0.23444 0.36554 0.0
C1257 C 0.17745 0.25436 0.34257 0.0
C1258 C 0.17379 0.22875 0.30249 0.0
C1259 C 0.19337 0.27373 0.33633 0.0
C1260 C 0.1894 0.2896 0.33197 0.0
C1261 C 0.16952 0.28643 0.33416 0.0
C1262 C 0.15369 0.26735 0.34157 0.0
C1263 C 0.15763 0.25126 0.34564 0.0
H1264 H 0.17323 0.21776 0.28937 0.0
H1265 H 0.15828 0.22689 0.30409 0.0
H1266 H 0.18422 0.24466 0.2966 0.0
H1267 H 0.20874 0.27634 0.33402 0.0
H1268 H 0.20179 0.30425 0.32626 0.0
H1269 H 0.59841 0.47875 0.71658 0.0
H1270 H 0.63461 0.50228 0.7089 0.0
H1271 H 0.61837 0.51564 0.64314 0.0
H1272 H 0.58187 0.49217 0.651 0.0
H1273 H 0.66208 0.50632 0.67463 0.0
H1274 H 0.64658 0.57115 0.67813 0.0
H1275 H 0.62827 0.54552 0.68706 0.0
H1276 H 0.63118 0.5518 0.65732 0.0
C1277 C 0.60265 0.48657 0.70038 0.0
C1278 C 0.58755 0.48407 0.68447 0.0
C1279 C 0.62326 0.49984 0.69598 0.0
C1280 C 0.62903 0.51083 0.67562 0.0
C1281 C 0.61406 0.50739 0.65907 0.0
H1282 H 0.73991 0.6201 0.63843 0.0
H1283 H 0.70916 0.5859 0.63474 0.0
C1284 C 0.59335 0.49402 0.66347 0.0
C1285 C 0.65043 0.52728 0.67279 0.0
H1286 H 0.6799 0.57922 0.66796 0.0
C1287 C 0.66606 0.52226 0.6729 0.0
C1288 C 0.65548 0.54806 0.67146 0.0
C1289 C 0.63955 0.55455 0.67374 0.0
C1290 C 0.68671 0.53761 0.671 0.0
C1291 C 0.6916 0.55829 0.66869 0.0
C1292 C 0.67597 0.56323 0.66893 0.0
C1293 C 0.71282 0.57562 0.66791 0.0
C1294 C 0.70306 0.53163 0.67166 0.0
C1295 C 0.72532 0.58072 0.6874 0.0
C1296 C 0.74274 0.60011 0.68944 0.0
C1297 C 0.74775 0.61456 0.6721 0.0
C1298 C 0.73621 0.60902 0.65189 0.0
C1299 C 0.7188 0.58955 0.64979 0.0
H1300 H 0.69667 0.51502 0.66775 0.0
H1301 H 0.71543 0.54084 0.65943 0.0
H1302 H 0.70997 0.53469 0.689 0.0
H1303 H 0.72074 0.57042 0.70177 0.0
H1304 H 0.75154 0.60432 0.70521 0.0
H1305 H 0.48723 0.06631 0.7 0.0
H1306 H 0.46369 0.07916 0.69248 0.0
H1307 H 0.51425 0.13721 0.67133 0.0
H1308 H 0.53806 0.12493 0.67966 0.0
H1309 H 0.48676 0.13813 0.70718 0.0
H1310 H 0.44552 0.09231 0.62991 0.0
H1311 H 0.4495 0.07889 0.65287 0.0
H1312 H 0.4711 0.09785 0.63741 0.0
C1313 C 0.49337 0.08177 0.69356 0.0
C1314 C 0.51461 0.09461 0.69056 0.0
C1315 C 0.47987 0.08901 0.68915 0.0
C1316 C 0.48731 0.1091 0.68133 0.0
C1317 C 0.50829 0.12165 0.67736 0.0
H1318 H 0.39559 0.14249 0.6421 0.0
H1319 H 0.43001 0.14602 0.64271 0.0
C1320 C 0.52183 0.11448 0.68187 0.0
C1321 C 0.47334 0.11741 0.67857 0.0
H1322 H 0.43216 0.11123 0.64777 0.0
C1323 C 0.47501 0.13254 0.69398 0.0
C1324 C 0.45813 0.11008 0.66132 0.0
C1325 C 0.45591 0.09396 0.64429 0.0
C1326 C 0.46123 0.13996 0.69314 0.0
C1327 C 0.44547 0.13203 0.67636 0.0
C1328 C 0.44445 0.11757 0.66036 0.0
C1329 C 0.42777 0.13542 0.67739 0.0
C1330 C 0.46335 0.15572 0.71065 0.0
C1331 C 0.41556 0.12896 0.69681 0.0
C1332 C 0.3962 0.12683 0.69636 0.0
C1333 C 0.3885 0.13093 0.67645 0.0
C1334 C 0.4012 0.13902 0.6575 0.0
C1335 C 0.42078 0.14109 0.65792 0.0
H1336 H 0.47962 0.16569 0.71597 0.0
H1337 H 0.45736 0.16557 0.70413 0.0
H1338 H 0.45463 0.1477 0.72606 0.0
H1339 H 0.42029 0.12404 0.71182 0.0
H1340 H 0.38676 0.12095 0.71136 0.0
H1341 H 0.92328 0.42616 0.66343 0.0
H1342 H 0.91069 0.38928 0.65712 0.0
H1343 H 0.86817 0.37458 0.71226 0.0
H1344 H 0.88049 0.41117 0.71829 0.0
H1345 H 0.91571 0.36761 0.69295 0.0
H1346 H 0.83399 0.32943 0.66553 0.0
H1347 H 0.85123 0.35674 0.66257 0.0
H1348 H 0.84037 0.3463 0.68978 0.0
C1349 C 0.91073 0.41494 0.67354 0.0
C1350 C 0.90282 0.42128 0.69135 0.0
C1351 C 0.90361 0.39396 0.67004 0.0
C1352 C 0.88847 0.37923 0.68423 0.0
C1353 C 0.87958 0.38561 0.70089 0.0
H1354 H 0.8692 0.25308 0.70245 0.0
H1355 H 0.86968 0.28521 0.71327 0.0
C1356 C 0.88668 0.40648 0.70439 0.0
C1357 C 0.88431 0.35778 0.68415 0.0
H1358 H 0.84695 0.30767 0.67629 0.0
C1359 C 0.90065 0.35451 0.6894 0.0
C1360 C 0.86455 0.34072 0.67996 0.0
C1361 C 0.84654 0.34339 0.67397 0.0
C1362 C 0.89791 0.33465 0.68986 0.0
C1363 C 0.87837 0.3177 0.68492 0.0
C1364 C 0.86182 0.32081 0.68047 0.0
C1365 C 0.87616 0.2976 0.6792 0.0
C1366 C 0.91608 0.33187 0.69448 0.0
C1367 C 0.87954 0.29418 0.65665 0.0
C1368 C 0.87961 0.27634 0.65062 0.0
C1369 C 0.87603 0.26139 0.66698 0.0
C1370 C 0.87193 0.26441 0.68956 0.0
C1371 C 0.87218 0.28263 0.69572 0.0
H1372 H 0.92979 0.34638 0.70026 0.0
H1373 H 0.9122 0.31996 0.70766 0.0
H1374 H 0.92 0.32643 0.6787 0.0
H1375 H 0.88266 0.30564 0.64376 0.0
H1376 H 0.88256 0.2743 0.63304 0.0
H1377 H 0.15505 0.91138 0.6917 0.0
H1378 H 0.17802 0.94857 0.69822 0.0
H1379 H 0.18282 0.95819 0.62567 0.0
H1380 H 0.15956 0.92179 0.61911 0.0
H1381 H 0.21837 0.97347 0.68282 0.0
H1382 H 0.1674 1e-05 0.64715 0.0
H1383 H 0.15823 0.97349 0.65443 0.0
H1384 H 0.17119 0.98358 0.62795 0.0
C1385 C 0.16089 0.92153 0.67724 0.0
C1386 C 0.15566 0.91362 0.65492 0.0
C1387 C 0.17401 0.94268 0.68094 0.0
C1388 C 0.18177 0.95613 0.66239 0.0
C1389 C 0.17665 0.94818 0.64022 0.0
H1390 H 0.28605 0.0757 0.647 0.0
H1391 H 0.25402 0.04388 0.638 0.0
C1392 C 0.16359 0.92726 0.63652 0.0
C1393 C 0.19585 0.97843 0.6658 0.0
H1394 H 0.20283 0.02569 0.65192 0.0
C1395 C 0.21487 0.98488 0.67636 0.0
C1396 C 0.19128 0.99328 0.65711 0.0
C1397 C 0.17083 0.98726 0.64621 0.0
C1398 C 0.22965 0.0058 0.67795 0.0
C1399 C 0.22517 0.02054 0.66891 0.0
C1400 C 0.20611 0.01422 0.65868 0.0
C1401 C 0.24032 0.04261 0.67063 0.0
C1402 C 0.25016 0.0121 0.68898 0.0
C1403 C 0.24231 0.05302 0.69119 0.0
C1404 C 0.26048 0.07113 0.69626 0.0
C1405 C 0.27665 0.07892 0.68076 0.0
C1406 C 0.27354 0.07008 0.65896 0.0
C1407 C 0.25537 0.05185 0.65392 0.0
H1408 H 0.2515 -0.00135 0.69434 0.0
H1409 H 0.26269 0.02137 0.67694 0.0
H1410 H 0.25242 0.0219 0.70418 0.0
H1411 H 0.23082 0.04599 0.70425 0.0
H1412 H 0.26282 0.07759 0.71331 0.0
H1413 H 0.09206 0.24575 0.70214 0.0
H1414 H 0.05562 0.23233 0.71095 0.0
H1415 H 0.04007 0.21827 0.63977 0.0
H1416 H 0.07574 0.23071 0.6311 0.0
H1417 H 0.0312 0.2472 0.69394 0.0
H1418 H -0.00217 0.16557 0.6686 0.0
H1419 H 0.02502 0.18222 0.67331 0.0
H1420 H 0.01334 0.18238 0.64649 0.0
C1421 C 0.08076 0.23949 0.68852 0.0
C1422 C 0.0868 0.23956 0.66592 0.0
C1423 C 0.06002 0.23187 0.69353 0.0
C1424 C 0.0451 0.22394 0.67605 0.0
C1425 C 0.05118 0.22379 0.65362 0.0
H1426 H 0.92959 0.20143 0.63444 0.0
H1427 H 0.96262 0.20362 0.6411 0.0
C1428 C 0.07169 0.23129 0.64865 0.0
C1429 C 0.02337 0.21741 0.68047 0.0
H1430 H 0.97465 0.17925 0.66777 0.0
C1431 C 0.01877 0.23215 0.68885 0.0
C1432 C 0.00722 0.19782 0.67357 0.0
C1433 C 0.01112 0.18105 0.6652 0.0
C1434 C -0.00145 0.22834 0.68906 0.0
C1435 C 0.98252 0.2091 0.68115 0.0
C1436 C 0.98699 0.19396 0.67388 0.0
C1437 C 0.96146 0.20538 0.6778 0.0
C1438 C -0.00537 0.2454 0.69622 0.0
C1439 C 0.94959 0.20501 0.6963 0.0
C1440 C 0.93061 0.20372 0.69255 0.0
C1441 C 0.92339 0.20296 0.67022 0.0
C1442 C 0.93494 0.2024 0.65182 0.0
C1443 C 0.95374 0.2035 0.65559 0.0
H1444 H 0.00905 0.26036 0.6984 0.0
H1445 H 0.98477 0.24728 0.68345 0.0
H1446 H 0.98645 0.24142 0.71269 0.0
H1447 H 0.95521 0.20618 0.71358 0.0
H1448 H 0.92194 0.20398 0.70705 0.0
H1449 H 0.79505 0.8697 0.6824 0.0
H1450 H 0.8085 0.84618 0.6874 0.0
H1451 H 0.7502 0.79512 0.66613 0.0
H1452 H 0.73657 0.81838 0.66147 0.0
H1453 H 0.7752 0.78942 0.705 0.0
H1454 H 0.81414 0.82074 0.62238 0.0
H1455 H 0.81476 0.83835 0.64381 0.0
H1456 H 0.79096 0.82065 0.63018 0.0
C1457 C 0.7849 0.85337 0.67965 0.0
C1458 C 0.76492 0.84586 0.67116 0.0
C1459 C 0.79264 0.84002 0.68231 0.0
C1460 C 0.78042 0.81912 0.67661 0.0
C1461 C 0.75986 0.81127 0.67041 0.0
H1462 H 0.78593 0.71369 0.64572 0.0
H1463 H 0.7883 0.74685 0.63886 0.0
C1464 C 0.75213 0.82455 0.66776 0.0
C1465 C 0.78954 0.80584 0.6745 0.0
H1466 H 0.81765 0.79397 0.63849 0.0
C1467 C 0.78478 0.7906 0.69073 0.0
C1468 C 0.80143 0.80713 0.65537 0.0
C1469 C 0.80564 0.8225 0.63678 0.0
C1470 C 0.79171 0.77652 0.68838 0.0
C1471 C 0.80409 0.77812 0.66955 0.0
C1472 C 0.80871 0.79328 0.6532 0.0
C1473 C 0.81039 0.76264 0.66595 0.0
C1474 C 0.78504 0.75949 0.70556 0.0
C1475 C 0.82376 0.76132 0.68169 0.0
C1476 C 0.82242 0.74237 0.68557 0.0
C1477 C 0.8078 0.72486 0.67363 0.0
C1478 C 0.79737 0.72711 0.65502 0.0
C1479 C 0.79863 0.74603 0.65118 0.0
H1480 H 0.77289 0.75855 0.71694 0.0
H1481 H 0.77917 0.74439 0.69681 0.0
H1482 H 0.79838 0.76226 0.71628 0.0
H1483 H 0.83304 0.77411 0.6931 0.0
H1484 H 0.83048 0.74085 0.70011 0.0
H1485 H 0.05432 0.84507 0.68705 0.0
H1486 H 0.01876 0.82484 0.7006 0.0
H1487 H 0.0046 0.78148 0.64541 0.0
H1488 H 0.03961 0.80175 0.6316 0.0
H1489 H 0.98202 0.81394 0.66779 0.0
H1490 H 0.9824 0.74694 0.70675 0.0
H1491 H 0.0052 0.77199 0.70484 0.0
H1492 H -0.00419 0.75535 0.68026 0.0
C1493 C 0.04363 0.83106 0.67809 0.0
C1494 C 0.04956 0.82486 0.65832 0.0
C1495 C 0.02341 0.81958 0.68579 0.0
C1496 C 0.00921 0.80161 0.67409 0.0
C1497 C 0.01541 0.79518 0.65479 0.0
H1498 H 0.8923 0.71405 0.63877 0.0
H1499 H 0.92791 0.7403 0.64522 0.0
C1500 C 0.03535 0.80679 0.64689 0.0
C1501 C 0.98738 0.79015 0.68038 0.0
H1502 H 0.94978 0.74176 0.69397 0.0
C1503 C 0.97494 0.7984 0.67426 0.0
C1504 C 0.97829 0.76983 0.68855 0.0
C1505 C 0.9911 0.76049 0.69567 0.0
C1506 C 0.95348 0.78623 0.67451 0.0
C1507 C 0.94441 0.76552 0.6813 0.0
C1508 C 0.95685 0.75772 0.68888 0.0
C1509 C 0.92242 0.75089 0.67727 0.0
C1510 C 0.94058 0.79499 0.66589 0.0
C1511 C 0.90751 0.74844 0.69308 0.0
C1512 C 0.88696 0.73325 0.68952 0.0
C1513 C 0.88114 0.72044 0.67007 0.0
C1514 C 0.89615 0.72361 0.65394 0.0
C1515 C 0.91656 0.73858 0.65759 0.0
H1516 H 0.94992 0.81166 0.66209 0.0
H1517 H 0.9323 0.78666 0.65012 0.0
H1518 H 0.9289 0.79271 0.67872 0.0
H1519 H 0.91185 0.75791 0.70835 0.0
H1520 H 0.87575 0.73124 0.70221 0.0
H1521 H 0.18285 0.23739 0.69239 0.0
H1522 H 0.20782 0.22618 0.70089 0.0
H1523 H 0.18327 0.18259 0.64513 0.0
H1524 H 0.15874 0.19387 0.63641 0.0
H1525 H 0.20167 0.18434 0.70967 0.0
H1526 H 0.2452 0.21986 0.63121 0.0
H1527 H 0.22763 0.22692 0.64342 0.0
H1528 H 0.21813 0.20397 0.62626 0.0
C1529 C 0.18272 0.2253 0.68213 0.0
C1530 C 0.16897 0.21652 0.66366 0.0
C1531 C 0.19695 0.21892 0.687 0.0
C1532 C 0.19752 0.20373 0.67344 0.0
C1533 C 0.18327 0.19453 0.65558 0.0
H1534 H 0.26466 0.14364 0.64395 0.0
H1535 H 0.23925 0.15457 0.64863 0.0
C1536 C 0.16925 0.20095 0.65065 0.0
C1537 C 0.21332 0.19775 0.67698 0.0
H1538 H 0.25096 0.19458 0.64862 0.0
C1539 C 0.21267 0.18676 0.69652 0.0
C1540 C 0.22776 0.20115 0.6599 0.0
C1541 C 0.22992 0.2138 0.63911 0.0
C1542 C 0.22524 0.17789 0.6987 0.0
C1543 C 0.23887 0.18032 0.68092 0.0
C1544 C 0.24021 0.1923 0.66202 0.0
C1545 C 0.25163 0.17032 0.68083 0.0
C1546 C 0.22317 0.16531 0.71948 0.0
C1547 C 0.2665 0.17472 0.69785 0.0
C1548 C 0.28066 0.16793 0.69547 0.0
C1549 C 0.2805 0.15716 0.67575 0.0
C1550 C 0.26507 0.15194 0.65929 0.0
C1551 C 0.25063 0.15824 0.66194 0.0
H1552 H 0.20872 0.1608 0.72869 0.0
H1553 H 0.22362 0.15119 0.7148 0.0
H1554 H 0.23614 0.17458 0.73135 0.0
H1555 H 0.26796 0.18439 0.7123 0.0
H1556 H 0.29266 0.17243 0.70821 0.0
H1557 H 0.75361 0.95316 0.64648 0.0
H1558 H 0.76981 0.99013 0.65335 0.0
H1559 H 0.81397 0.98761 0.69834 0.0
H1560 H 0.79734 0.9501 0.69171 0.0
H1561 H 0.7808 0.01568 0.69486 0.0
H1562 H 0.84625 0.02557 0.6421 0.0
H1563 H 0.82207 0.00176 0.64257 0.0
H1564 H 0.83948 0.00882 0.66628 0.0
C1565 C 0.76638 0.96042 0.65839 0.0
C1566 C 0.77425 0.94899 0.66863 0.0
C1567 C 0.77564 0.98148 0.66225 0.0
C1568 C 0.7932 0.99154 0.67604 0.0
C1569 C 0.80046 0.98001 0.6875 0.0
H1570 H 0.86477 0.12055 0.70418 0.0
H1571 H 0.85529 0.08472 0.69681 0.0
C1572 C 0.7909 0.95867 0.68391 0.0
C1573 C 0.80461 0.01423 0.67642 0.0
H1574 H 0.84647 0.05579 0.65395 0.0
C1575 C 0.79525 0.02449 0.68613 0.0
C1576 C 0.82324 0.02552 0.66459 0.0
C1577 C 0.83339 0.01496 0.65312 0.0
C1578 C 0.80407 0.04585 0.68436 0.0
C1579 C 0.82257 0.05713 0.67233 0.0
C1580 C 0.83215 0.04696 0.66289 0.0
C1581 C 0.83261 0.07971 0.67102 0.0
C1582 C 0.79358 0.0563 0.69539 0.0
C1583 C 0.82391 0.08897 0.65779 0.0
C1584 C 0.82955 0.10953 0.66174 0.0
C1585 C 0.84373 0.12076 0.67909 0.0
C1586 C 0.85385 0.11207 0.69066 0.0
C1587 C 0.84846 0.09168 0.68647 0.0
H1588 H 0.78103 0.04582 0.70682 0.0
H1589 H 0.80477 0.06999 0.70539 0.0
H1590 H 0.78695 0.06164 0.68195 0.0
H1591 H 0.81159 0.07985 0.64583 0.0
H1592 H 0.82142 0.11596 0.65287 0.0
H1593 H 0.4876 0.37611 0.72463 0.0
H1594 H 0.4633 0.33978 0.71722 0.0
H1595 H 0.48539 0.34592 0.64852 0.0
H1596 H 0.50965 0.38281 0.65576 0.0
H1597 H 0.43263 0.32199 0.67574 0.0
H1598 H 0.4916 0.29843 0.68653 0.0
H1599 H 0.49537 0.32244 0.6981 0.0
H1600 H 0.49662 0.31949 0.66797 0.0
C1601 C 0.48713 0.36973 0.70788 0.0
C1602 C 0.50034 0.38202 0.69075 0.0
C1603 C 0.47329 0.34908 0.70369 0.0
C1604 C 0.4728 0.34032 0.68245 0.0
C1605 C 0.48572 0.35258 0.66503 0.0
H1606 H 0.39806 0.21526 0.63963 0.0
H1607 H 0.42706 0.24981 0.64638 0.0
C1608 C 0.49941 0.37352 0.66912 0.0
C1609 C 0.45894 0.31814 0.67927 0.0
H1610 H 0.45712 0.27195 0.68315 0.0
C1611 C 0.43792 0.31099 0.67716 0.0
C1612 C 0.46609 0.30406 0.6813 0.0
C1613 C 0.48864 0.31134 0.68368 0.0
C1614 C 0.4237 0.28992 0.67722 0.0
C1615 C 0.43077 0.27581 0.68003 0.0
C1616 C 0.45184 0.28294 0.68158 0.0
C1617 C 0.41636 0.25354 0.67916 0.0
C1618 C 0.40123 0.28287 0.67402 0.0
C1619 C 0.40147 0.24393 0.69604 0.0
C1620 C 0.38495 0.22408 0.69229 0.0
C1621 C 0.38333 0.21401 0.67158 0.0
C1622 C 0.39911 0.22299 0.65565 0.0
C1623 C 0.41565 0.2426 0.65951 0.0
H1624 H 0.39877 0.29544 0.66784 0.0
H1625 H 0.39397 0.26982 0.6617 0.0
H1626 H 0.39333 0.27749 0.69055 0.0
H1627 H 0.40196 0.25225 0.71138 0.0
H1628 H 0.37282 0.21728 0.70469 0.0
H1629 H 0.63371 0.11855 0.72969 0.0
H1630 H 0.66841 0.12882 0.71757 0.0
H1631 H 0.65006 0.12618 0.64734 0.0
H1632 H 0.61488 0.11552 0.65948 0.0
H1633 H 0.67933 0.10524 0.68332 0.0
H1634 H 0.70288 0.18637 0.66203 0.0
H1635 H 0.68185 0.17151 0.68096 0.0
H1636 H 0.6789 0.16566 0.6511 0.0
C1637 C 0.63705 0.12014 0.71165 0.0
C1638 C 0.6217 0.11626 0.69552 0.0
C1639 C 0.65683 0.12596 0.70477 0.0
C1640 C 0.66175 0.12831 0.68162 0.0
C1641 C 0.64649 0.12449 0.66531 0.0
H1642 H 0.79033 0.17113 0.64354 0.0
H1643 H 0.75389 0.1606 0.63895 0.0
C1644 C 0.62647 0.11837 0.67223 0.0
C1645 C 0.68303 0.13481 0.67516 0.0
H1646 H 0.72891 0.17773 0.66411 0.0
C1647 C 0.69011 0.12095 0.67858 0.0
C1648 C 0.69699 0.15533 0.66911 0.0
C1649 C 0.68995 0.17072 0.66559 0.0
C1650 C 0.71102 0.12736 0.67719 0.0
C1651 C 0.72516 0.14818 0.67248 0.0
C1652 C 0.71797 0.16178 0.66773 0.0
C1653 C 0.74746 0.15634 0.67495 0.0
C1654 C 0.71799 0.11204 0.68172 0.0
C1655 C 0.75589 0.15795 0.69673 0.0
C1656 C 0.77652 0.16387 0.6994 0.0
C1657 C 0.7892 0.16842 0.68033 0.0
C1658 C 0.78095 0.16772 0.65855 0.0
C1659 C 0.76017 0.16169 0.65588 0.0
H1660 H 0.70516 0.09592 0.68011 0.0
H1661 H 0.73029 0.11428 0.66978 0.0
H1662 H 0.72431 0.11439 0.69931 0.0
H1663 H 0.74634 0.15414 0.71166 0.0
H1664 H 0.78243 0.16452 0.71644 0.0
H1665 H 0.91524 0.52731 0.68603 0.0
H1666 H 0.90292 0.55189 0.68393 0.0
H1667 H 0.84099 0.50176 0.67471 0.0
H1668 H 0.85314 0.47709 0.6773 0.0
H1669 H 0.88016 0.55849 0.64956 0.0
H1670 H 0.83738 0.53248 0.7307 0.0
H1671 H 0.85624 0.52566 0.72238 0.0
H1672 H 0.83098 0.51251 0.70988 0.0
C1673 C 0.89902 0.52154 0.68346 0.0
C1674 C 0.88506 0.50031 0.68183 0.0
C1675 C 0.89202 0.53559 0.68222 0.0
C1676 C 0.87103 0.52857 0.6795 0.0
C1677 C 0.8572 0.50742 0.67723 0.0
H1678 H 0.80663 0.59556 0.65791 0.0
H1679 H 0.81437 0.56783 0.66426 0.0
C1680 C 0.86415 0.49339 0.67858 0.0
C1681 C 0.8635 0.54333 0.67976 0.0
H1682 H 0.83353 0.55722 0.7097 0.0
C1683 C 0.87001 0.55825 0.66271 0.0
C1684 C 0.85024 0.54291 0.69697 0.0
C1685 C 0.8434 0.52766 0.71615 0.0
C1686 C 0.86347 0.57273 0.66238 0.0
C1687 C 0.85034 0.57234 0.67967 0.0
C1688 C 0.84366 0.55737 0.69657 0.0
C1689 C 0.84376 0.58773 0.68037 0.0
C1690 C 0.87053 0.5884 0.6436 0.0
C1691 C 0.85736 0.6077 0.68835 0.0
C1692 C 0.85288 0.6234 0.68495 0.0
C1693 C 0.83475 0.61915 0.67364 0.0
C1694 C 0.8205 0.59892 0.66708 0.0
C1695 C 0.82494 0.58319 0.67056 0.0
H1696 H 0.87885 0.58524 0.63009 0.0
H1697 H 0.8572 0.58863 0.63575 0.0
H1698 H 0.88087 0.60395 0.65086 0.0
H1699 H 0.87198 0.61135 0.69588 0.0
H1700 H 0.86418 0.63906 0.68964 0.0
H1701 H 0.43788 0.90536 0.25879 0.0
H1702 H 0.44214 0.91548 0.21875 0.0
H1703 H 0.49698 0.97238 0.23644 0.0
H1704 H 0.49307 0.96186 0.27653 0.0
H1705 H 0.4427 0.94867 0.19963 0.0
H1706 H 0.51618 0.95058 0.18445 0.0
H1707 H 0.50069 0.93864 0.20914 0.0
H1708 H 0.51723 0.9661 0.20834 0.0
C1709 C 0.45081 0.92004 0.25402 0.0
C1710 C 0.46513 0.93296 0.27048 0.0
C1711 C 0.45325 0.92576 0.23125 0.0
C1712 C 0.47 0.94453 0.22464 0.0
C1713 C 0.48421 0.95761 0.24117 0.0
H1714 H 0.50337 0.01877 0.10641 0.0
H1715 H 0.49897 0.00359 0.14418 0.0
C1716 C 0.48192 0.95174 0.26397 0.0
C1717 C 0.47222 0.95063 0.20053 0.0
H1718 H 0.50527 0.96567 0.15598 0.0
C1719 C 0.45627 0.95218 0.18999 0.0
C1720 C 0.48987 0.95498 0.188 0.0
C1721 C 0.50688 0.9523 0.19797 0.0
C1722 C 0.45788 0.95873 0.16742 0.0
C1723 C 0.47584 0.96375 0.15526 0.0
C1724 C 0.49156 0.96178 0.16555 0.0
C1725 C 0.4792 0.97238 0.13228 0.0
C1726 C 0.44072 0.96084 0.15686 0.0
C1727 C 0.46999 0.95963 0.11321 0.0
C1728 C 0.47281 0.9682 0.09155 0.0
C1729 C 0.48466 0.98961 0.08892 0.0
C1730 C 0.49433 0.0022 0.10803 0.0
C1731 C 0.49172 0.99362 0.12955 0.0
H1732 H 0.42815 0.95718 0.16903 0.0
H1733 H 0.44674 0.97678 0.15069 0.0
H1734 H 0.43431 0.95033 0.14191 0.0
H1735 H 0.46031 0.94317 0.11517 0.0
H1736 H 0.46485 0.95826 0.07712 0.0
H1737 H 0.08392 0.51564 0.26604 0.0
H1738 H 0.07371 0.51022 0.22608 0.0
H1739 H 0.03896 0.5409 0.23598 0.0
H1740 H 0.04836 0.54574 0.27658 0.0
H1741 H 0.02387 0.49153 0.21168 0.0
H1742 H 0.08659 0.56509 0.17711 0.0
H1743 H 0.09082 0.55299 0.20143 0.0
H1744 H 0.07536 0.56478 0.20432 0.0
C1745 C 0.07369 0.52085 0.26003 0.0
C1746 C 0.06664 0.5308 0.27479 0.0
C1747 C 0.06819 0.51803 0.23703 0.0
C1748 C 0.05579 0.52534 0.22819 0.0
C1749 C 0.04871 0.53533 0.24262 0.0
H1750 H 0.00522 0.50943 0.08942 0.0
H1751 H 0.01897 0.52456 0.12746 0.0
C1752 C 0.05407 0.53803 0.26577 0.0
C1753 C 0.04934 0.52136 0.20408 0.0
H1754 H 0.0629 0.54092 0.15056 0.0
C1755 C 0.0322 0.5024 0.19832 0.0
C1756 C 0.06053 0.53553 0.18683 0.0
C1757 C 0.07941 0.55579 0.19252 0.0
C1758 C 0.02595 0.49712 0.17558 0.0
C1759 C 0.03719 0.5112 0.15822 0.0
C1760 C 0.05421 0.53033 0.16399 0.0
C1761 C 0.03217 0.50525 0.134 0.0
C1762 C 0.00759 0.47632 0.17022 0.0
C1763 C 0.03577 0.49007 0.12501 0.0
C1764 C 0.02784 0.4814 0.10374 0.0
C1765 C 0.01638 0.48792 0.09092 0.0
C1766 C 0.01404 0.50423 0.09907 0.0
C1767 C 0.02185 0.51282 0.12068 0.0
H1768 H -0.00185 0.46917 0.18552 0.0
H1769 H -0.00219 0.47756 0.15682 0.0
H1770 H 0.01293 0.46591 0.16371 0.0
H1771 H 0.04383 0.48417 0.13498 0.0
H1772 H 0.03 0.46897 0.09763 0.0
H1773 H 0.48343 0.5699 0.25774 0.0
H1774 H 0.49173 0.5688 0.2179 0.0
H1775 H 0.46625 0.50315 0.22177 0.0
H1776 H 0.45813 0.50414 0.26219 0.0
H1777 H 0.51769 0.54889 0.20392 0.0
H1778 H 0.44111 0.5182 0.1621 0.0
H1779 H 0.44745 0.53253 0.18862 0.0
H1780 H 0.44319 0.50683 0.18824 0.0
C1781 C 0.47969 0.5552 0.2502 0.0
C1782 C 0.47052 0.53714 0.26319 0.0
C1783 C 0.48428 0.55461 0.22741 0.0
C1784 C 0.47959 0.53594 0.21702 0.0
C1785 C 0.46985 0.5177 0.2296 0.0
H1786 H 0.5069 0.50204 0.08954 0.0
H1787 H 0.49459 0.50469 0.12687 0.0
C1788 C 0.46526 0.51827 0.25259 0.0
C1789 C 0.48619 0.53603 0.19343 0.0
H1790 H 0.46909 0.52552 0.13836 0.0
C1791 C 0.50712 0.54387 0.18954 0.0
C1792 C 0.47227 0.52949 0.17488 0.0
C1793 C 0.44972 0.52132 0.17845 0.0
C1794 C 0.51452 0.54507 0.16744 0.0
C1795 C 0.50065 0.53862 0.14884 0.0
C1796 C 0.47968 0.5308 0.15272 0.0
C1797 C 0.50738 0.53761 0.12558 0.0
C1798 C 0.53699 0.55261 0.16406 0.0
C1799 C 0.51847 0.55535 0.11237 0.0
C1800 C 0.52547 0.55389 0.09071 0.0
C1801 C 0.52179 0.53474 0.08248 0.0
C1802 C 0.5104 0.5171 0.09572 0.0
C1803 C 0.50318 0.51851 0.11696 0.0
H1804 H 0.5455 0.55569 0.18047 0.0
H1805 H 0.53891 0.54102 0.15422 0.0
H1806 H 0.54391 0.56699 0.15405 0.0
H1807 H 0.52177 0.57024 0.11888 0.0
H1808 H 0.534 0.56762 0.08065 0.0
H1809 H 0.91012 0.47168 0.76622 0.0
H1810 H 0.91736 0.47102 0.80701 0.0
H1811 H 0.97057 0.46643 0.79021 0.0
H1812 H 0.96311 0.46668 0.74949 0.0
H1813 H 0.92157 0.43666 0.82779 0.0
H1814 H 0.98954 0.51446 0.83946 0.0
H1815 H 0.97078 0.50825 0.81697 0.0
H1816 H 0.98992 0.50082 0.81436 0.0
C1817 C 0.92361 0.47102 0.77137 0.0
C1818 C 0.9363 0.46953 0.75497 0.0
C1819 C 0.92762 0.47049 0.79455 0.0
C1820 C 0.94456 0.46884 0.80149 0.0
C1821 C 0.95755 0.46794 0.78509 0.0
H1822 H 0.00784 0.45999 0.91626 0.0
H1823 H 0.9929 0.45902 0.87888 0.0
C1824 C 0.95336 0.46813 0.76194 0.0
C1825 C 0.94824 0.46681 0.8258 0.0
H1826 H 0.98406 0.48976 0.86795 0.0
C1827 C 0.93505 0.44833 0.8368 0.0
C1828 C 0.96573 0.48217 0.83736 0.0
C1829 C 0.97975 0.50264 0.82657 0.0
C1830 C 0.93965 0.44429 0.85873 0.0
C1831 C 0.95778 0.45924 0.86986 0.0
C1832 C 0.97035 0.47815 0.85922 0.0
C1833 C 0.96464 0.45554 0.89216 0.0
C1834 C 0.92561 0.42374 0.86936 0.0
C1835 C 0.95325 0.45283 0.91194 0.0
C1836 C 0.96161 0.45294 0.93335 0.0
C1837 C 0.98165 0.45619 0.93523 0.0
C1838 C 0.99235 0.45735 0.9153 0.0
C1839 C 0.9839 0.457 0.89396 0.0
H1840 H 0.91478 0.4124 0.85669 0.0
H1841 H 0.93458 0.41736 0.87741 0.0
H1842 H 0.9165 0.42578 0.88281 0.0
H1843 H 0.9385 0.452 0.91099 0.0
H1844 H 0.95314 0.45237 0.94841 0.0
H1845 H 0.5683 0.47281 0.75629 0.0
H1846 H 0.56378 0.47826 0.7963 0.0
H1847 H 0.50219 0.46504 0.78166 0.0
H1848 H 0.50667 0.45965 0.74123 0.0
H1849 H 0.55436 0.50887 0.81099 0.0
H1850 H 0.49741 0.4302 0.83932 0.0
H1851 H 0.51322 0.43491 0.81456 0.0
H1852 H 0.4913 0.4383 0.81307 0.0
C1853 C 0.55383 0.47121 0.76153 0.0
C1854 C 0.53798 0.46632 0.74561 0.0
C1855 C 0.55122 0.47411 0.78441 0.0
C1856 C 0.53267 0.47198 0.79184 0.0
C1857 C 0.51654 0.4665 0.77618 0.0
H1858 H 0.49756 0.51208 0.91174 0.0
H1859 H 0.49907 0.49772 0.87449 0.0
C1860 C 0.51914 0.46357 0.75317 0.0
C1861 C 0.53095 0.47728 0.81561 0.0
H1862 H 0.50498 0.45778 0.86499 0.0
C1863 C 0.54364 0.4977 0.82284 0.0
C1864 C 0.51711 0.46255 0.83097 0.0
C1865 C 0.50407 0.4402 0.82426 0.0
C1866 C 0.54241 0.50397 0.84498 0.0
C1867 C 0.52817 0.48937 0.86014 0.0
C1868 C 0.51574 0.46886 0.8531 0.0
C1869 C 0.5258 0.49546 0.88323 0.0
C1870 C 0.55611 0.52616 0.85202 0.0
C1871 C 0.54003 0.49834 0.90037 0.0
C1872 C 0.53889 0.50602 0.92165 0.0
C1873 C 0.52371 0.51119 0.9258 0.0
C1874 C 0.5092 0.50791 0.90883 0.0
C1875 C 0.51009 0.49981 0.88768 0.0
H1876 H 0.56487 0.53597 0.83748 0.0
H1877 H 0.54687 0.53242 0.85958 0.0
H1878 H 0.56716 0.52714 0.86525 0.0
H1879 H 0.55236 0.49524 0.89704 0.0
H1880 H 0.55049 0.50896 0.93445 0.0
H1881 H 0.50632 0.04135 0.74668 0.0
H1882 H 0.49842 0.03123 0.78649 0.0
H1883 H 0.55892 0.07911 0.80674 0.0
H1884 H 0.56677 0.08963 0.76695 0.0
H1885 H 0.51753 0.01956 0.82054 0.0
H1886 H 0.52034 0.09336 0.84175 0.0
H1887 H 0.51998 0.08514 0.81272 0.0
H1888 H 0.54301 0.09519 0.82961 0.0
C1889 C 0.51799 0.04957 0.7596 0.0
C1890 C 0.53704 0.06641 0.75378 0.0
C1891 C 0.51351 0.04375 0.78229 0.0
C1892 C 0.52794 0.05473 0.79953 0.0
C1893 C 0.54745 0.07071 0.79367 0.0
H1894 H 0.50837 0.04403 0.94616 0.0
H1895 H 0.52178 0.05686 0.90831 0.0
C1896 C 0.55198 0.07654 0.77093 0.0
C1897 C 0.52188 0.05006 0.8236 0.0
H1898 H 0.51027 0.06887 0.87076 0.0
C1899 C 0.51604 0.03036 0.8316 0.0
C1900 C 0.52016 0.0643 0.83798 0.0
C1901 C 0.52606 0.08566 0.83014 0.0
C1902 C 0.50816 0.02432 0.85353 0.0
C1903 C 0.50548 0.0382 0.86754 0.0
C1904 C 0.51204 0.05818 0.85984 0.0
C1905 C 0.49594 0.03221 0.89025 0.0
C1906 C 0.50299 0.00318 0.86149 0.0
C1907 C 0.47639 0.01485 0.89261 0.0
C1908 C 0.4688 0.00735 0.91422 0.0
C1909 C 0.48039 0.01747 0.93375 0.0
C1910 C 0.49899 0.03605 0.93139 0.0
C1911 C 0.50677 0.04329 0.90976 0.0
H1912 H 0.51151 -0.00285 0.85181 0.0
H1913 H 0.50652 0.00334 0.8799 0.0
H1914 H 0.48638 0.99237 0.85871 0.0
H1915 H 0.46746 0.00651 0.87774 0.0
H1916 H 0.45443 0.99302 0.91563 0.0
H1917 H 0.1699 0.2898 0.60877 0.0
H1918 H 0.17506 0.30045 0.56863 0.0
H1919 H 0.11054 0.26083 0.5551 0.0
H1920 H 0.10529 0.24981 0.59461 0.0
H1921 H 0.15488 0.26747 0.5236 0.0
H1922 H 0.13286 0.32705 0.53994 0.0
H1923 H 0.14432 0.3191 0.56185 0.0
H1924 H 0.11823 0.30233 0.55319 0.0
C1925 C 0.15689 0.28329 0.59716 0.0
C1926 C 0.13714 0.2693 0.60495 0.0
C1927 C 0.15985 0.28933 0.57433 0.0
C1928 C 0.14314 0.28138 0.55913 0.0
C1929 C 0.12357 0.26711 0.5667 0.0
H1930 H 0.11 0.30665 0.43075 0.0
H1931 H 0.11226 0.2932 0.46766 0.0
C1932 C 0.1206 0.26107 0.58935 0.0
C1933 C 0.14558 0.28868 0.53554 0.0
H1934 H 0.13676 0.32016 0.50172 0.0
C1935 C 0.15128 0.27922 0.51872 0.0
C1936 C 0.14041 0.30366 0.52944 0.0
C1937 C 0.13367 0.31376 0.54698 0.0
C1938 C 0.15148 0.28414 0.49562 0.0
C1939 C 0.14626 0.29913 0.48954 0.0
C1940 C 0.14093 0.30879 0.50651 0.0
C1941 C 0.14479 0.30427 0.46563 0.0
C1942 C 0.15631 0.27266 0.47784 0.0
C1943 C 0.16226 0.31439 0.45195 0.0
C1944 C 0.16093 0.32192 0.43058 0.0
C1945 C 0.14221 0.31969 0.42312 0.0
C1946 C 0.12466 0.30878 0.43641 0.0
C1947 C 0.12591 0.30104 0.4574 0.0
H1948 H 0.15651 0.2591 0.48503 0.0
H1949 H 0.1449 0.2674 0.46369 0.0
H1950 H 0.17161 0.28311 0.4706 0.0
H1951 H 0.17703 0.31727 0.4582 0.0
H1952 H 0.17462 0.33034 0.42051 0.0
H1953 H 0.74356 0.89782 0.59919 0.0
H1954 H 0.73107 0.89218 0.56028 0.0
H1955 H 0.72185 0.83076 0.56177 0.0
H1956 H 0.73048 0.83455 0.60153 0.0
H1957 H 0.74284 0.88531 0.52233 0.0
H1958 H 0.66791 0.81637 0.53864 0.0
H1959 H 0.68469 0.83164 0.56162 0.0
H1960 H 0.68802 0.81196 0.54779 0.0
C1961 C 0.73802 0.88268 0.59189 0.0
C1962 C 0.73776 0.86655 0.60452 0.0
C1963 C 0.73129 0.8797 0.56921 0.0
C1964 C 0.72482 0.86079 0.55821 0.0
C1965 C 0.7258 0.84518 0.57011 0.0
H1966 H 0.69494 0.80285 0.43103 0.0
H1967 H 0.71025 0.82021 0.46712 0.0
C1968 C 0.73142 0.8477 0.59306 0.0
C1969 C 0.71704 0.8572 0.53433 0.0
H1970 H 0.67935 0.82124 0.49988 0.0
C1971 C 0.72876 0.87148 0.51749 0.0
C1972 C 0.69845 0.83932 0.52795 0.0
C1973 C 0.68399 0.82413 0.54504 0.0
C1974 C 0.72299 0.86768 0.49436 0.0
C1975 C 0.70527 0.84912 0.48807 0.0
C1976 C 0.69308 0.8354 0.50489 0.0
C1977 C 0.69989 0.84226 0.46419 0.0
C1978 C 0.73618 0.88296 0.47666 0.0
C1979 C 0.6895 0.84938 0.45034 0.0
C1980 C 0.68084 0.83953 0.42949 0.0
C1981 C 0.68218 0.82227 0.42277 0.0
C1982 C 0.69347 0.81595 0.43614 0.0
C1983 C 0.70234 0.82592 0.4566 0.0
H1984 H 0.74959 0.8967 0.48433 0.0
H1985 H 0.74172 0.8755 0.46447 0.0
H1986 H 0.72691 0.88805 0.46681 0.0
H1987 H 0.68727 0.86183 0.45615 0.0
H1988 H 0.67221 0.84462 0.41929 0.0
H1989 H 0.10638 0.85813 0.58633 0.0
H1990 H 0.11492 0.85943 0.546 0.0
H1991 H 0.1712 0.86106 0.56438 0.0
H1992 H 0.1628 0.85994 0.60483 0.0
H1993 H 0.15287 0.894 0.52841 0.0
H1994 H 0.14484 0.81748 0.51133 0.0
H1995 H 0.13213 0.82222 0.5346 0.0
H1996 H 0.15881 0.82999 0.53698 0.0
C1997 C 0.1202 0.85797 0.58172 0.0
C1998 C 0.13388 0.85873 0.59861 0.0
C1999 C 0.12515 0.85897 0.55873 0.0
C2000 C 0.14367 0.86037 0.55233 0.0
C2001 C 0.15676 0.85984 0.56907 0.0
H2002 H 0.21031 0.87066 0.43293 0.0
H2003 H 0.20204 0.87634 0.47148 0.0
C2004 C 0.15194 0.8591 0.59209 0.0
C2005 C 0.15017 0.86403 0.52836 0.0
H2006 H 0.16308 0.84351 0.48407 0.0
C2007 C 0.15499 0.88295 0.51856 0.0
C2008 C 0.1527 0.84949 0.51567 0.0
C2009 C 0.14669 0.82856 0.52504 0.0
C2010 C 0.16314 0.88802 0.49656 0.0
C2011 C 0.16644 0.87377 0.48424 0.0
C2012 C 0.16094 0.8546 0.49382 0.0
C2013 C 0.17524 0.8779 0.46117 0.0
C2014 C 0.16866 0.9087 0.48688 0.0
C2015 C 0.16379 0.87848 0.44255 0.0
C2016 C 0.16885 0.87574 0.42045 0.0
C2017 C 0.18518 0.87212 0.4169 0.0
C2018 C 0.19797 0.87394 0.43526 0.0
C2019 C 0.19307 0.87689 0.45729 0.0
H2020 H 0.16891 0.91943 0.50015 0.0
H2021 H 0.18388 0.91579 0.47863 0.0
H2022 H 0.15716 0.90664 0.47368 0.0
H2023 H 0.14979 0.87888 0.4452 0.0
H2024 H 0.15844 0.87376 0.40657 0.0
H2025 H 0.58503 0.76596 0.09035 0.0
H2026 H 0.59326 0.76747 0.13051 0.0
H2027 H 0.62901 0.83359 0.12787 0.0
H2028 H 0.62134 0.83233 0.08682 0.0
H2029 H 0.6431 0.79681 0.14542 0.0
H2030 H 0.58113 0.80511 0.18657 0.0
H2031 H 0.57647 0.79135 0.15986 0.0
H2032 H 0.59301 0.81867 0.1607 0.0
C2033 C 0.59498 0.78091 0.09801 0.0
C2034 C 0.60316 0.79902 0.08506 0.0
C2035 C 0.59932 0.78169 0.12112 0.0
C2036 C 0.61166 0.80058 0.13198 0.0
C2037 C 0.61938 0.81886 0.11958 0.0
H2038 H 0.6599 0.83034 0.26701 0.0
H2039 H 0.64447 0.82808 0.22972 0.0
C2040 C 0.61507 0.8181 0.0962 0.0
C2041 C 0.61788 0.8006 0.15578 0.0
H2042 H 0.60346 0.80017 0.21079 0.0
C2043 C 0.63454 0.79763 0.15977 0.0
C2044 C 0.60639 0.80141 0.17421 0.0
C2045 C 0.5882 0.80431 0.17034 0.0
C2046 C 0.6402 0.79556 0.18193 0.0
C2047 C 0.62866 0.7962 0.20046 0.0
C2048 C 0.61201 0.79931 0.19645 0.0
C2049 C 0.63528 0.79611 0.22413 0.0
C2050 C 0.65876 0.79319 0.18543 0.0
C2051 C 0.63475 0.77865 0.23354 0.0
C2052 C 0.6436 0.7799 0.25503 0.0
C2053 C 0.65317 0.79869 0.26696 0.0
C2054 C 0.65284 0.81577 0.25786 0.0
C2055 C 0.64391 0.81448 0.2367 0.0
H2056 H 0.66763 0.79588 0.16955 0.0
H2057 H 0.66902 0.8041 0.19877 0.0
H2058 H 0.65377 0.77736 0.19129 0.0
H2059 H 0.62799 0.76429 0.22403 0.0
H2060 H 0.64353 0.76652 0.26195 0.0
H2061 H 0.19735 0.76806 0.09032 0.0
H2062 H 0.19228 0.7741 0.13012 0.0
H2063 H 0.20658 0.83577 0.1138 0.0
H2064 H 0.21131 0.82974 0.07382 0.0
H2065 H 0.22202 0.80711 0.16049 0.0
H2066 H 0.15008 0.80914 0.14641 0.0
H2067 H 0.15954 0.79786 0.12603 0.0
H2068 H 0.1708 0.82531 0.12795 0.0
C2069 C 0.19906 0.7828 0.09512 0.0
C2070 C 0.20447 0.79836 0.07888 0.0
C2071 C 0.19639 0.78627 0.11789 0.0
C2072 C 0.19892 0.8053 0.12479 0.0
C2073 C 0.20436 0.8209 0.10869 0.0
H2074 H 0.19476 0.86907 0.24132 0.0
H2075 H 0.19808 0.85604 0.2047 0.0
C2076 C 0.20712 0.81747 0.08592 0.0
C2077 C 0.19584 0.80894 0.14882 0.0
H2078 H 0.16624 0.82037 0.18262 0.0
C2079 C 0.20969 0.80975 0.16548 0.0
C2080 C 0.17972 0.81232 0.15513 0.0
C2081 C 0.16405 0.81096 0.13801 0.0
C2082 C 0.20832 0.81479 0.18825 0.0
C2083 C 0.19247 0.81871 0.1944 0.0
C2084 C 0.1783 0.81725 0.17782 0.0
C2085 C 0.19132 0.82633 0.21731 0.0
C2086 C 0.22436 0.81697 0.20531 0.0
C2087 C 0.18633 0.81384 0.23666 0.0
C2088 C 0.18443 0.82131 0.25795 0.0
C2089 C 0.18727 0.84123 0.26001 0.0
C2090 C 0.19212 0.85351 0.24043 0.0
C2091 C 0.1942 0.84617 0.21942 0.0
H2092 H 0.23679 0.81536 0.19725 0.0
H2093 H 0.23122 0.8322 0.214 0.0
H2094 H 0.21711 0.80498 0.21851 0.0
H2095 H 0.18375 0.79834 0.23525 0.0
H2096 H 0.18085 0.81157 0.27272 0.0
H2097 H 0.16687 0.38797 0.08142 0.0
H2098 H 0.15856 0.3788 0.12093 0.0
H2099 H 0.2219 0.39845 0.13581 0.0
H2100 H 0.2309 0.41026 0.09685 0.0
H2101 H 0.15968 0.35282 0.14692 0.0
H2102 H 0.21391 0.42938 0.18476 0.0
H2103 H 0.20977 0.42555 0.15445 0.0
H2104 H 0.22615 0.41812 0.16901 0.0
C2105 C 0.17924 0.39092 0.09309 0.0
C2106 C 0.19971 0.40057 0.0858 0.0
C2107 C 0.17437 0.38533 0.11575 0.0
C2108 C 0.18968 0.38855 0.13167 0.0
C2109 C 0.2099 0.39663 0.12416 0.0
H2110 H 0.17809 0.3533 0.27251 0.0
H2111 H 0.19043 0.36695 0.23473 0.0
C2112 C 0.21495 0.40293 0.10158 0.0
C2113 C 0.18406 0.38324 0.15594 0.0
H2114 H 0.19442 0.40249 0.21038 0.0
C2115 C 0.16722 0.3638 0.16072 0.0
C2116 C 0.19403 0.39746 0.1741 0.0
C2117 C 0.21185 0.41884 0.17035 0.0
C2118 C 0.15986 0.3583 0.1829 0.0
C2119 C 0.16957 0.3726 0.20087 0.0
C2120 C 0.18679 0.39177 0.19638 0.0
C2121 C 0.1629 0.36718 0.22468 0.0
C2122 C 0.14191 0.33708 0.18703 0.0
C2123 C 0.14352 0.36339 0.23178 0.0
C2124 C 0.13642 0.35561 0.25357 0.0
C2125 C 0.14879 0.35179 0.26835 0.0
C2126 C 0.16847 0.35652 0.26152 0.0
C2127 C 0.17551 0.36423 0.23993 0.0
H2128 H 0.1384 0.32672 0.17203 0.0
H2129 H 0.14499 0.32998 0.20197 0.0
H2130 H 0.12814 0.33828 0.19077 0.0
H2131 H 0.13367 0.36578 0.22022 0.0
H2132 H 0.12115 0.35192 0.25852 0.0
H2133 H 0.81084 0.5801 0.92711 0.0
H2134 H 0.81496 0.58966 0.88687 0.0
H2135 H 0.79968 0.63667 0.90165 0.0
H2136 H 0.79537 0.62707 0.94203 0.0
H2137 H 0.78142 0.59261 0.85777 0.0
H2138 H 0.85802 0.66313 0.86628 0.0
H2139 H 0.8488 0.64231 0.88641 0.0
H2140 H 0.83914 0.65983 0.88703 0.0
C2141 C 0.80869 0.59271 0.92183 0.0
C2142 C 0.80308 0.60308 0.93767 0.0
C2143 C 0.81085 0.59798 0.89886 0.0
C2144 C 0.80768 0.61386 0.89146 0.0
C2145 C 0.80225 0.6244 0.9072 0.0
H2146 H 0.80353 0.67716 0.77745 0.0
H2147 H 0.80582 0.66307 0.81392 0.0
C2148 C 0.79984 0.61897 0.93017 0.0
C2149 C 0.80997 0.61945 0.86722 0.0
H2150 H 0.84034 0.65795 0.8311 0.0
C2151 C 0.79442 0.6067 0.85175 0.0
C2152 C 0.82704 0.63776 0.85961 0.0
C2153 C 0.84433 0.65155 0.8756 0.0
C2154 C 0.79501 0.61246 0.82893 0.0
C2155 C 0.8117 0.63125 0.82158 0.0
C2156 C 0.82766 0.64349 0.83685 0.0
C2157 C 0.81148 0.63994 0.7992 0.0
C2158 C 0.77732 0.59909 0.81315 0.0
C2159 C 0.81442 0.63184 0.7789 0.0
C2160 C 0.81336 0.64007 0.75791 0.0
C2161 C 0.80913 0.65629 0.75711 0.0
C2162 C 0.80676 0.66463 0.77756 0.0
C2163 C 0.80803 0.65659 0.79839 0.0
H2164 H 0.7649 0.58559 0.82196 0.0
H2165 H 0.77087 0.60823 0.80569 0.0
H2166 H 0.78286 0.59346 0.79889 0.0
H2167 H 0.81723 0.61903 0.77931 0.0
H2168 H 0.81504 0.63324 0.74236 0.0
H2169 H 0.37165 0.16854 0.9464 0.0
H2170 H 0.36216 0.16209 0.90573 0.0
H2171 H 0.41396 0.22112 0.88932 0.0
H2172 H 0.42329 0.22772 0.92976 0.0
H2173 H 0.35525 0.18974 0.87411 0.0
H2174 H 0.4187 0.17586 0.85003 0.0
H2175 H 0.41001 0.17384 0.87898 0.0
H2176 H 0.42563 0.19868 0.86667 0.0
C2177 C 0.38078 0.18017 0.93406 0.0
C2178 C 0.39795 0.19872 0.9411 0.0
C2179 C 0.37544 0.17649 0.91096 0.0
C2180 C 0.38748 0.19111 0.89466 0.0
C2181 C 0.40456 0.20966 0.90169 0.0
H2182 H 0.37144 0.18182 0.7451 0.0
H2183 H 0.38344 0.19732 0.7833 0.0
C2184 C 0.40972 0.21347 0.92475 0.0
C2185 C 0.38217 0.18701 0.87025 0.0
H2186 H 0.39707 0.17516 0.82036 0.0
C2187 C 0.36445 0.1867 0.86229 0.0
C2188 C 0.39431 0.18314 0.855 0.0
C2189 C 0.41317 0.18272 0.863 0.0
C2190 C 0.35832 0.18226 0.8394 0.0
C2191 C 0.3702 0.17796 0.82427 0.0
C2192 C 0.38822 0.17879 0.83206 0.0
C2193 C 0.36254 0.16965 0.80126 0.0
C2194 C 0.33894 0.18166 0.83156 0.0
C2195 C 0.3469 0.14915 0.799 0.0
C2196 C 0.34028 0.14033 0.77752 0.0
C2197 C 0.34904 0.1519 0.75787 0.0
C2198 C 0.36433 0.17268 0.76005 0.0
C2199 C 0.37123 0.18147 0.78174 0.0
H2200 H 0.33371 0.18919 0.84403 0.0
H2201 H 0.34127 0.18932 0.81484 0.0
H2202 H 0.32662 0.16539 0.82935 0.0
H2203 H 0.34014 0.13982 0.81393 0.0
H2204 H 0.32843 0.12429 0.77628 0.0
H2205 H 0.83752 0.20988 0.93931 0.0
H2206 H 0.8457 0.20932 0.89933 0.0
H2207 H 0.7824 0.18619 0.88069 0.0
H2208 H 0.77427 0.18804 0.9205 0.0
H2209 H 0.83191 0.17847 0.86778 0.0
H2210 H 0.81059 0.23636 0.84097 0.0
H2211 H 0.81276 0.23129 0.87056 0.0
H2212 H 0.79065 0.21365 0.85401 0.0
C2213 C 0.82531 0.20476 0.92674 0.0
C2214 C 0.8053 0.19933 0.93319 0.0
C2215 C 0.83 0.20433 0.90389 0.0
C2216 C 0.81477 0.19824 0.88698 0.0
C2217 C 0.79451 0.19153 0.8934 0.0
H2218 H 0.82679 0.19766 0.73957 0.0
H2219 H 0.81465 0.1978 0.77801 0.0
C2220 C 0.78983 0.19223 0.91627 0.0
C2221 C 0.82041 0.19925 0.86271 0.0
H2222 H 0.82331 0.2235 0.81267 0.0
C2223 C 0.83002 0.18829 0.85571 0.0
C2224 C 0.81763 0.21186 0.84692 0.0
C2225 C 0.80748 0.22409 0.85345 0.0
C2226 C 0.8372 0.18978 0.83346 0.0
C2227 C 0.83533 0.20316 0.81795 0.0
C2228 C 0.82508 0.21358 0.82471 0.0
C2229 C 0.84358 0.20616 0.79455 0.0
C2230 C 0.84637 0.17668 0.82677 0.0
C2231 C 0.86419 0.21194 0.79095 0.0
C2232 C 0.87103 0.21141 0.76903 0.0
C2233 C 0.85758 0.20596 0.75035 0.0
C2234 C 0.83756 0.20221 0.75371 0.0
C2235 C 0.83055 0.20213 0.77568 0.0
H2236 H 0.84098 0.16307 0.83794 0.0
H2237 H 0.84249 0.17121 0.80885 0.0
H2238 H 0.86329 0.1859 0.82857 0.0
H2239 H 0.87472 0.21587 0.80521 0.0
H2240 H 0.88651 0.21433 0.76679 0.0
H2241 H 0.24283 0.09841 0.42541 0.0
H2242 H 0.25161 0.09857 0.46541 0.0
H2243 H 0.29739 0.16274 0.46133 0.0
H2244 H 0.28914 0.16265 0.42065 0.0
H2245 H 0.30188 0.11941 0.47903 0.0
H2246 H 0.25179 0.14437 0.52135 0.0
H2247 H 0.24398 0.12965 0.49508 0.0
H2248 H 0.26426 0.15588 0.4949 0.0
C2249 C 0.25496 0.11256 0.43284 0.0
C2250 C 0.26573 0.1304 0.41964 0.0
C2251 C 0.25973 0.11264 0.45579 0.0
C2252 C 0.27513 0.13061 0.46615 0.0
C2253 C 0.28542 0.14872 0.45346 0.0
H2254 H 0.33539 0.16621 0.5933 0.0
H2255 H 0.31916 0.16186 0.55626 0.0
C2256 C 0.28071 0.14865 0.43031 0.0
C2257 C 0.28132 0.12979 0.4898 0.0
H2258 H 0.27305 0.13747 0.5451 0.0
C2259 C 0.29553 0.12322 0.49353 0.0
C2260 C 0.2728 0.13465 0.50848 0.0
C2261 C 0.25731 0.14153 0.50498 0.0
C2262 C 0.30186 0.12185 0.51564 0.0
C2263 C 0.29352 0.1269 0.53438 0.0
C2264 C 0.27909 0.13323 0.53064 0.0
C2265 C 0.30196 0.12868 0.55758 0.0
C2266 C 0.31802 0.11581 0.51887 0.0
C2267 C 0.29744 0.11133 0.57074 0.0
C2268 C 0.30667 0.11375 0.5923 0.0
C2269 C 0.32082 0.13352 0.60046 0.0
C2270 C 0.32496 0.15072 0.58721 0.0
C2271 C 0.31555 0.14832 0.56613 0.0
H2272 H 0.32379 0.11349 0.50241 0.0
H2273 H 0.33114 0.1279 0.52886 0.0
H2274 H 0.31156 0.10133 0.52868 0.0
H2275 H 0.28691 0.09602 0.56429 0.0
H2276 H 0.30305 0.10032 0.60233 0.0
H2277 H 0.88985 0.12042 0.42643 0.0
H2278 H 0.88597 0.12701 0.4665 0.0
H2279 H 0.84421 0.14786 0.4466 0.0
H2280 H 0.84779 0.14082 0.40642 0.0
H2281 H 0.89556 0.16498 0.48566 0.0
H2282 H 0.81363 0.10673 0.49741 0.0
H2283 H 0.82842 0.10576 0.47387 0.0
H2284 H 0.81828 0.12293 0.47319 0.0
C2285 C 0.87965 0.12616 0.43076 0.0
C2286 C 0.869 0.13006 0.41364 0.0
C2287 C 0.87751 0.12996 0.45353 0.0
C2288 C 0.86469 0.13774 0.45947 0.0
C2289 C 0.85387 0.14148 0.44234 0.0
H2290 H 0.84271 0.19182 0.57526 0.0
H2291 H 0.84649 0.1797 0.53792 0.0
C2292 C 0.85591 0.13752 0.4195 0.0
C2293 C 0.8633 0.14273 0.4835 0.0
H2294 H 0.82936 0.13246 0.52641 0.0
C2295 C 0.88115 0.15773 0.4947 0.0
C2296 C 0.84451 0.13309 0.49521 0.0
C2297 C 0.82514 0.11609 0.48441 0.0
C2298 C 0.88048 0.1639 0.51712 0.0
C2299 C 0.86153 0.15473 0.52845 0.0
C2300 C 0.84383 0.13941 0.5175 0.0
C2301 C 0.85939 0.16179 0.55116 0.0
C2302 C 0.89978 0.18062 0.52835 0.0
C2303 C 0.86504 0.15528 0.57086 0.0
C2304 C 0.86264 0.16194 0.59231 0.0
C2305 C 0.85472 0.17532 0.5942 0.0
C2306 C 0.84874 0.18143 0.57435 0.0
C2307 C 0.85101 0.17466 0.55302 0.0
H2308 H 0.91318 0.18672 0.51685 0.0
H2309 H 0.89746 0.19349 0.5338 0.0
H2310 H 0.90329 0.1745 0.54384 0.0
H2311 H 0.87144 0.14522 0.56959 0.0
H2312 H 0.86766 0.15726 0.60729 0.0
H2313 H 0.87858 0.71317 0.42017 0.0
H2314 H 0.87152 0.70326 0.46049 0.0
H2315 H 0.85018 0.74639 0.46989 0.0
H2316 H 0.85742 0.75656 0.43029 0.0
H2317 H 0.88424 0.73407 0.50513 0.0
H2318 H 0.80167 0.68312 0.4834 0.0
H2319 H 0.82179 0.68967 0.46299 0.0
H2320 H 0.81431 0.70815 0.47054 0.0
C2321 C 0.87252 0.72059 0.43094 0.0
C2322 C 0.86799 0.7352 0.42195 0.0
C2323 C 0.8686 0.715 0.45388 0.0
C2324 C 0.86024 0.72408 0.46791 0.0
C2325 C 0.85653 0.73919 0.45919 0.0
H2326 H 0.80423 0.70105 0.6022 0.0
H2327 H 0.81904 0.71718 0.5653 0.0
C2328 C 0.86041 0.74475 0.43648 0.0
C2329 C 0.85365 0.71687 0.49121 0.0
H2330 H 0.81042 0.68963 0.52244 0.0
C2331 C 0.86816 0.72422 0.509 0.0
C2332 C 0.83264 0.70424 0.49601 0.0
C2333 C 0.81663 0.69567 0.47727 0.0
C2334 C 0.86202 0.71928 0.53171 0.0
C2335 C 0.84094 0.70682 0.53646 0.0
C2336 C 0.82652 0.69951 0.51864 0.0
C2337 C 0.8336 0.69899 0.55942 0.0
C2338 C 0.87797 0.72738 0.5505 0.0
C2339 C 0.83672 0.6834 0.56782 0.0
C2340 C 0.82782 0.67385 0.58814 0.0
C2341 C 0.81578 0.67985 0.60061 0.0
C2342 C 0.81311 0.69594 0.5926 0.0
C2343 C 0.82171 0.70524 0.5718 0.0
H2344 H 0.89298 0.73997 0.54455 0.0
H2345 H 0.87282 0.73313 0.56503 0.0
H2346 H 0.88017 0.71471 0.55682 0.0
H2347 H 0.84568 0.67829 0.55837 0.0
H2348 H 0.83067 0.66192 0.5943 0.0
loop_
_geom_bond_atom_site_label_1
_geom_bond_atom_site_label_2
_geom_bond_distance
_geom_bond_site_symmetry_2
_ccdc_geom_bond_type
H0 C5 0.930 . S
H1 C8 0.930 . S
H2 C10 0.930 . S
H3 C4 1.016 . S
C4 H3 1.016 . S
C4 N11 1.286 . S
C5 H0 0.930 . S
C5 C6 1.397 . S
C5 C7 1.361 . S
C6 C5 1.397 . S
C6 C10 1.390 . S
C7 C5 1.361 . S
C7 C8 1.393 . S
C7 N11 1.413 . S
C8 H1 0.930 . S
C8 C7 1.393 . S
C8 C9 1.399 . S
C9 C8 1.399 . S
C9 C10 1.381 . S
C10 H2 0.930 . S
C10 C6 1.390 . S
C10 C9 1.381 . S
N11 C4 1.286 . S
N11 C7 1.413 . S
H12 C17 0.930 . S
H13 C20 0.930 . S
H14 C22 0.930 . S
H15 C16 1.016 . S
C16 H15 1.016 . S
C16 N23 1.286 . S
C17 H12 0.930 . S
C17 C18 1.397 . S
C17 C19 1.361 . S
C18 C17 1.397 . S
C18 C22 1.390 . S
C19 C17 1.361 . S
C19 C20 1.393 . S
C19 N23 1.413 . S
C20 H13 0.930 . S
C20 C19 1.393 . S
C20 C21 1.399 . S
C21 C20 1.399 . S
C21 C22 1.381 . S
C22 H14 0.930 . S
C22 C18 1.390 . S
C22 C21 1.381 . S
N23 C16 1.286 . S
N23 C19 1.413 . S
H24 C29 0.930 . S
H25 C32 0.930 . S
H26 C34 0.930 . S
H27 C28 1.016 . S
C28 H27 1.016 . S
C28 N35 1.286 . S
C29 H24 0.930 . S
C29 C30 1.397 . S
C29 C31 1.361 . S
C30 C29 1.397 . S
C30 C34 1.390 . S
C31 C29 1.361 . S
C31 C32 1.393 . S
C31 N35 1.413 . S
C32 H25 0.930 . S
C32 C31 1.393 . S
C32 C33 1.399 . S
C33 C32 1.399 . S
C33 C34 1.381 . S
C34 H26 0.930 . S
C34 C30 1.390 . S
C34 C33 1.381 . S
N35 C28 1.286 . S
N35 C31 1.413 . S
H36 C41 0.930 . S
H37 C44 0.930 . S
H38 C46 0.930 . S
H39 C40 1.016 . S
C40 H39 1.016 . S
C40 N47 1.286 . S
C41 H36 0.930 . S
C41 C42 1.397 . S
C41 C43 1.361 . S
C42 C41 1.397 . S
C42 C46 1.390 . S
C43 C41 1.361 . S
C43 C44 1.393 . S
C43 N47 1.413 . S
C44 H37 0.930 . S
C44 C43 1.393 . S
C44 C45 1.399 . S
C45 C44 1.399 . S
C45 C46 1.381 . S
C46 H38 0.930 . S
C46 C42 1.390 . S
C46 C45 1.381 . S
N47 C40 1.286 . S
N47 C43 1.413 . S
H48 C53 0.930 . S
H49 C56 0.930 . S
H50 C58 0.930 . S
H51 C52 1.016 . S
C52 H51 1.016 . S
C52 N59 1.286 . S
C53 H48 0.930 . S
C53 C54 1.397 . S
C53 C55 1.361 . S
C54 C53 1.397 . S
C54 C58 1.390 . S
C55 C53 1.361 . S
C55 C56 1.393 . S
C55 N59 1.413 . S
C56 H49 0.930 . S
C56 C55 1.393 . S
C56 C57 1.399 . S
C57 C56 1.399 . S
C57 C58 1.381 . S
C58 H50 0.930 . S
C58 C54 1.390 . S
C58 C57 1.381 . S
N59 C52 1.286 . S
N59 C55 1.413 . S
H60 C65 0.930 . S
H61 C68 0.930 . S
H62 C70 0.930 . S
H63 C64 1.016 . S
C64 H63 1.016 . S
C64 N71 1.286 . S
C65 H60 0.930 . S
C65 C66 1.397 . S
C65 C67 1.361 . S
C66 C65 1.397 . S
C66 C70 1.390 . S
C67 C65 1.361 . S
C67 C68 1.393 . S
C67 N71 1.413 . S
C68 H61 0.930 . S
C68 C67 1.393 . S
C68 C69 1.399 . S
C69 C68 1.399 . S
C69 C70 1.381 . S
C70 H62 0.930 . S
C70 C66 1.390 . S
C70 C69 1.381 . S
N71 C64 1.286 . S
N71 C67 1.413 . S
H72 C77 0.930 . S
H73 C80 0.930 . S
H74 C82 0.930 . S
H75 C76 1.016 . S
C76 H75 1.016 . S
C76 N83 1.286 . S
C77 H72 0.930 . S
C77 C78 1.397 . S
C77 C79 1.361 . S
C78 C77 1.397 . S
C78 C82 1.390 . S
C79 C77 1.361 . S
C79 C80 1.393 . S
C79 N83 1.413 . S
C80 H73 0.930 . S
C80 C79 1.393 . S
C80 C81 1.399 . S
C81 C80 1.399 . S
C81 C82 1.381 . S
C82 H74 0.930 . S
C82 C78 1.390 . S
C82 C81 1.381 . S
N83 C76 1.286 . S
N83 C79 1.413 . S
H84 C89 0.930 . S
H85 C92 0.930 . S
H86 C94 0.930 . S
H87 C88 1.016 . S
C88 H87 1.016 . S
C88 N95 1.286 . S
C89 H84 0.930 . S
C89 C90 1.397 . S
C89 C91 1.361 . S
C90 C89 1.397 . S
C90 C94 1.390 . S
C91 C89 1.361 . S
C91 C92 1.393 . S
C91 N95 1.413 . S
C92 H85 0.930 . S
C92 C91 1.393 . S
C92 C93 1.399 . S
C93 C92 1.399 . S
C93 C94 1.381 . S
C94 H86 0.930 . S
C94 C90 1.390 . S
C94 C93 1.381 . S
N95 C88 1.286 . S
N95 C91 1.413 . S
H96 C101 0.930 . S
H97 C104 0.930 . S
H98 C106 0.930 . S
H99 C100 1.016 . S
C100 H99 1.016 . S
C100 N107 1.286 . S
C101 H96 0.930 . S
C101 C102 1.397 . S
C101 C103 1.361 . S
C102 C101 1.397 . S
C102 C106 1.390 . S
C103 C101 1.361 . S
C103 C104 1.393 . S
C103 N107 1.413 . S
C104 H97 0.930 . S
C104 C103 1.393 . S
C104 C105 1.399 . S
C105 C104 1.399 . S
C105 C106 1.381 . S
C106 H98 0.930 . S
C106 C102 1.390 . S
C106 C105 1.381 . S
N107 C100 1.286 . S
N107 C103 1.413 . S
H108 C113 0.930 . S
H109 C116 0.930 . S
H110 C118 0.930 . S
H111 C112 1.048 . S
C112 H111 1.048 . S
C112 N119 1.271 1_556 S
C113 H108 0.930 . S
C113 C114 1.397 1_554 S
C113 C115 1.361 1_554 S
C114 C113 1.397 1_556 S
C114 C118 1.390 . S
C115 C113 1.361 1_556 S
C115 C116 1.393 . S
C115 N119 1.413 1_556 S
C116 H109 0.930 . S
C116 C115 1.393 . S
C116 C117 1.399 . S
C117 C116 1.399 . S
C117 C118 1.381 . S
C118 H110 0.930 . S
C118 C114 1.390 . S
C118 C117 1.381 . S
N119 C112 1.271 1_554 S
N119 C115 1.413 1_554 S
H120 C125 0.930 . S
H121 C128 0.930 . S
H122 C130 0.930 . S
H123 C124 1.016 1_556 S
C124 H123 1.016 1_554 S
C124 N131 1.286 . S
C125 H120 0.930 . S
C125 C126 1.397 1_554 S
C125 C127 1.348 1_554 S
C126 C125 1.397 1_556 S
C126 C130 1.390 . S
C127 C125 1.348 1_556 S
C127 C128 1.424 . S
C127 N131 1.395 1_556 S
C128 H121 0.930 . S
C128 C127 1.424 . S
C128 C129 1.399 . S
C129 C128 1.399 . S
C129 C130 1.381 . S
C130 H122 0.930 . S
C130 C126 1.390 . S
C130 C129 1.381 . S
N131 C124 1.286 . S
N131 C127 1.395 1_554 S
H132 C137 0.930 . S
H133 C140 0.930 . S
H134 C142 0.930 . S
H135 C136 1.016 . S
C136 H135 1.016 . S
C136 N143 1.286 1_556 S
C137 H132 0.930 . S
C137 C138 1.397 1_554 S
C137 C139 1.361 1_554 S
C138 C137 1.397 1_556 S
C138 C142 1.390 . S
C139 C137 1.361 1_556 S
C139 C140 1.393 . S
C139 N143 1.413 1_556 S
C140 H133 0.930 . S
C140 C139 1.393 . S
C140 C141 1.399 . S
C141 C140 1.399 . S
C141 C142 1.381 . S
C142 H134 0.930 . S
C142 C138 1.390 . S
C142 C141 1.381 . S
N143 C136 1.286 1_554 S
N143 C139 1.413 1_554 S
H144 C149 0.930 . S
H145 C152 0.930 . S
H146 C154 0.930 . S
H147 C148 1.016 . S
C148 H147 1.016 . S
C148 N155 1.286 . S
C149 H144 0.930 . S
C149 C150 1.397 . S
C149 C151 1.361 . S
C150 C149 1.397 . S
C150 C154 1.390 . S
C151 C149 1.361 . S
C151 C152 1.393 . S
C151 N155 1.413 . S
C152 H145 0.930 . S
C152 C151 1.393 . S
C152 C153 1.399 . S
C153 C152 1.399 . S
C153 C154 1.381 . S
C154 H146 0.930 . S
C154 C150 1.390 . S
C154 C153 1.381 . S
N155 C148 1.286 . S
N155 C151 1.413 . S
H156 C161 0.946 . S
H157 C164 0.930 . S
H158 C166 0.930 . S
H159 C160 1.016 . S
C160 H159 1.016 . S
C160 N167 1.286 . S
C161 H156 0.946 . S
C161 C162 1.397 . S
C161 C163 1.361 . S
C162 C161 1.397 . S
C162 C166 1.390 . S
C163 C161 1.361 . S
C163 C164 1.393 . S
C163 N167 1.413 . S
C164 H157 0.930 . S
C164 C163 1.393 . S
C164 C165 1.399 . S
C165 C164 1.399 . S
C165 C166 1.381 . S
C166 H158 0.930 . S
C166 C162 1.390 . S
C166 C165 1.381 . S
N167 C160 1.286 . S
N167 C163 1.413 . S
H168 C173 0.930 . S
H169 C176 0.930 . S
H170 C178 0.930 . S
H171 C172 1.016 . S
C172 H171 1.016 . S
C172 N179 1.286 . S
C173 H168 0.930 . S
C173 C174 1.397 . S
C173 C175 1.361 . S
C174 C173 1.397 . S
C174 C178 1.390 . S
C175 C173 1.361 . S
C175 C176 1.393 . S
C175 N179 1.413 . S
C176 H169 0.930 . S
C176 C175 1.393 . S
C176 C177 1.399 . S
C177 C176 1.399 . S
C177 C178 1.381 . S
C178 H170 0.930 . S
C178 C174 1.390 . S
C178 C177 1.381 . S
N179 C172 1.286 . S
N179 C175 1.413 . S
H180 C185 0.930 . S
H181 C188 0.930 . S
H182 C190 0.930 . S
H183 C184 1.016 . S
C184 H183 1.016 . S
C184 N191 1.286 . S
C185 H180 0.930 . S
C185 C186 1.397 . S
C185 C187 1.361 . S
C186 C185 1.397 . S
C186 C190 1.390 . S
C187 C185 1.361 . S
C187 C188 1.393 . S
C187 N191 1.413 . S
C188 H181 0.930 . S
C188 C187 1.393 . S
C188 C189 1.399 . S
C189 C188 1.399 . S
C189 C190 1.381 . S
C190 H182 0.930 . S
C190 C186 1.390 . S
C190 C189 1.381 . S
N191 C184 1.286 . S
N191 C187 1.413 . S
H192 C197 0.930 . S
H193 C200 0.930 . S
H194 C202 0.930 . S
H195 C196 1.016 . S
C196 H195 1.016 . S
C196 N203 1.286 . S
C197 H192 0.930 . S
C197 C198 1.397 . S
C197 C199 1.361 . S
C198 C197 1.397 . S
C198 C202 1.390 . S
C199 C197 1.361 . S
C199 C200 1.393 . S
C199 N203 1.413 . S
C200 H193 0.930 . S
C200 C199 1.393 . S
C200 C201 1.399 . S
C201 C200 1.399 . S
C201 C202 1.381 . S
C202 H194 0.930 . S
C202 C198 1.390 . S
C202 C201 1.381 . S
N203 C196 1.286 . S
N203 C199 1.413 . S
H204 C209 0.930 . S
H205 C212 0.930 . S
H206 C214 0.930 . S
H207 C208 1.016 . S
C208 H207 1.016 . S
C208 N215 1.286 . S
C209 H204 0.930 . S
C209 C210 1.397 . S
C209 C211 1.361 . S
C210 C209 1.397 . S
C210 C214 1.390 . S
C211 C209 1.361 . S
C211 C212 1.393 . S
C211 N215 1.413 . S
C212 H205 0.930 . S
C212 C211 1.393 . S
C212 C213 1.399 . S
C213 C212 1.399 . S
C213 C214 1.381 . S
C214 H206 0.930 . S
C214 C210 1.390 . S
C214 C213 1.381 . S
N215 C208 1.286 . S
N215 C211 1.413 . S
O216 Mg217 1.990 . S
O216 C230 1.253 . S
Mg217 O216 1.990 . S
Mg217 O220 2.180 1_546 S
Mg217 O221 2.117 1_545 S
Mg217 O235 2.030 . S
O218 Mg219 2.072 1_556 S
O218 C230 1.260 . S
Mg219 O218 2.072 1_554 S
Mg219 O220 2.099 1_545 S
Mg219 O222 2.079 . S
Mg219 O223 2.072 1_545 S
Mg219 O225 2.099 . S
Mg219 O236 2.079 . S
O220 Mg217 2.180 1_564 S
O220 Mg219 2.099 1_565 S
O220 C231 1.279 . S
O221 Mg217 2.117 1_565 S
O221 C231 1.250 1_556 S
O222 Mg219 2.079 . S
O222 C232 1.264 1_545 S
O223 Mg219 2.072 1_565 S
O223 C233 1.260 . S
Mg224 O225 2.180 . S
Mg224 O226 2.030 1_545 S
Mg224 O227 1.990 1_545 S
Mg224 O228 2.117 . S
O225 Mg219 2.099 . S
O225 Mg224 2.180 . S
O225 C234 1.279 . S
O226 Mg224 2.030 1_565 S
O226 C232 1.248 . S
O227 Mg224 1.990 1_565 S
O227 C233 1.253 . S
O228 Mg224 2.117 . S
O228 C234 1.250 . S
C229 O235 1.248 1_554 S
C229 O236 1.264 . S
C230 O216 1.253 . S
C230 O218 1.260 . S
C231 O220 1.279 . S
C231 O221 1.250 1_554 S
C232 O222 1.264 1_565 S
C232 O226 1.248 . S
C233 O223 1.260 . S
C233 O227 1.253 . S
C234 O225 1.279 . S
C234 O228 1.250 . S
O235 Mg217 2.030 . S
O235 C229 1.248 1_556 S
O236 Mg219 2.079 . S
O236 C229 1.264 . S
O237 Mg238 1.990 . S
O237 C251 1.253 1_455 S
Mg238 O237 1.990 . S
Mg238 O241 2.180 1_556 S
Mg238 O242 2.117 . S
Mg238 O256 2.030 1_455 S
O239 Mg240 2.072 1_656 S
O239 C251 1.260 . S
Mg240 O239 2.072 1_454 S
Mg240 O241 2.099 . S
Mg240 O243 2.079 . S
Mg240 O244 2.072 . S
Mg240 O246 2.099 1_455 S
Mg240 O257 2.079 1_455 S
O241 Mg238 2.180 1_554 S
O241 Mg240 2.099 . S
O241 C252 1.279 . S
O242 Mg238 2.117 . S
O242 C252 1.250 1_556 S
O243 Mg240 2.079 . S
O243 C253 1.264 . S
O244 Mg240 2.072 . S
O244 C254 1.260 . S
Mg245 O246 2.180 1_455 S
Mg245 O247 2.030 . S
Mg245 O248 1.990 . S
Mg245 O249 2.117 1_455 S
O246 Mg240 2.099 1_655 S
O246 Mg245 2.180 1_655 S
O246 C255 1.279 . S
O247 Mg245 2.030 . S
O247 C253 1.248 . S
O248 Mg245 1.990 . S
O248 C254 1.253 . S
O249 Mg245 2.117 1_655 S
O249 C255 1.250 . S
C250 O256 1.248 1_554 S
C250 O257 1.264 . S
C251 O237 1.253 1_655 S
C251 O239 1.260 . S
C252 O241 1.279 . S
C252 O242 1.250 1_554 S
C253 O243 1.264 . S
C253 O247 1.248 . S
C254 O244 1.260 . S
C254 O248 1.253 . S
C255 O246 1.279 . S
C255 O249 1.250 . S
O256 Mg238 2.030 1_655 S
O256 C250 1.248 1_556 S
O257 Mg240 2.079 1_655 S
O257 C250 1.264 . S
O258 Mg259 1.990 . S
O258 C272 1.253 . S
Mg259 O258 1.990 . S
Mg259 O262 2.180 . S
Mg259 O263 2.117 . S
Mg259 O277 2.030 . S
O260 Mg261 2.072 . S
O260 C272 1.260 . S
Mg261 O260 2.072 . S
Mg261 O262 2.099 . S
Mg261 O264 2.079 1_554 S
Mg261 O265 2.072 . S
Mg261 O267 2.099 1_554 S
Mg261 O278 2.079 . S
O262 Mg259 2.180 . S
O262 Mg261 2.099 . S
O262 C273 1.279 . S
O263 Mg259 2.117 . S
O263 C273 1.250 . S
O264 Mg261 2.079 1_556 S
O264 C274 1.264 . S
O265 Mg261 2.072 . S
O265 C275 1.260 . S
Mg266 O267 2.180 . S
Mg266 O268 2.030 . S
Mg266 O269 1.990 . S
Mg266 O270 2.117 1_556 S
O267 Mg261 2.099 1_556 S
O267 Mg266 2.180 . S
O267 C276 1.279 1_556 S
O268 Mg266 2.030 . S
O268 C274 1.248 . S
O269 Mg266 1.990 . S
O269 C275 1.253 1_556 S
O270 Mg266 2.117 1_554 S
O270 C276 1.250 . S
C271 O277 1.248 . S
C271 O278 1.264 . S
C272 O258 1.253 . S
C272 O260 1.260 . S
C273 O262 1.279 . S
C273 O263 1.250 . S
C274 O264 1.264 . S
C274 O268 1.248 . S
C275 O265 1.260 . S
C275 O269 1.253 1_554 S
C276 O267 1.279 1_554 S
C276 O270 1.250 . S
O277 Mg259 2.030 . S
O277 C271 1.248 . S
O278 Mg261 2.079 . S
O278 C271 1.264 . S
O279 Mg280 1.990 . S
O279 C293 1.253 . S
Mg280 O279 1.990 . S
Mg280 O283 2.180 . S
Mg280 O284 2.117 . S
Mg280 O298 2.030 . S
O281 Mg282 2.072 . S
O281 C293 1.260 . S
Mg282 O281 2.072 . S
Mg282 O283 2.099 . S
Mg282 O285 2.079 . S
Mg282 O286 2.072 . S
Mg282 O288 2.099 . S
Mg282 O299 2.079 . S
O283 Mg280 2.180 . S
O283 Mg282 2.099 . S
O283 C294 1.279 . S
O284 Mg280 2.117 . S
O284 C294 1.250 . S
O285 Mg282 2.079 . S
O285 C295 1.264 . S
O286 Mg282 2.072 . S
O286 C296 1.260 . S
Mg287 O288 2.180 . S
Mg287 O289 2.030 . S
Mg287 O290 1.990 . S
Mg287 O291 2.117 . S
O288 Mg282 2.099 . S
O288 Mg287 2.180 . S
O288 C297 1.279 . S
O289 Mg287 2.030 . S
O289 C295 1.248 . S
O290 Mg287 1.990 . S
O290 C296 1.253 . S
O291 Mg287 2.117 . S
O291 C297 1.250 . S
C292 O298 1.248 . S
C292 O299 1.264 . S
C293 O279 1.253 . S
C293 O281 1.260 . S
C294 O283 1.279 . S
C294 O284 1.250 . S
C295 O285 1.264 . S
C295 O289 1.248 . S
C296 O286 1.260 . S
C296 O290 1.253 . S
C297 O288 1.279 . S
C297 O291 1.250 . S
O298 Mg280 2.030 . S
O298 C292 1.248 . S
O299 Mg282 2.079 . S
O299 C292 1.264 . S
O300 Mg301 1.990 . S
O300 C314 1.253 . S
Mg301 O300 1.990 . S
Mg301 O304 2.180 . S
Mg301 O305 2.117 . S
Mg301 O319 2.030 . S
O302 Mg303 2.072 . S
O302 C314 1.260 . S
Mg303 O302 2.072 . S
Mg303 O304 2.099 . S
Mg303 O306 2.079 . S
Mg303 O307 2.072 . S
Mg303 O309 2.099 . S
Mg303 O320 2.079 . S
O304 Mg301 2.180 . S
O304 Mg303 2.099 . S
O304 C315 1.279 . S
O305 Mg301 2.117 . S
O305 C315 1.250 . S
O306 Mg303 2.079 . S
O306 C316 1.264 . S
O307 Mg303 2.072 . S
O307 C317 1.260 . S
Mg308 O309 2.180 . S
Mg308 O310 2.030 . S
Mg308 O311 1.990 . S
Mg308 O312 2.117 . S
O309 Mg303 2.099 . S
O309 Mg308 2.180 . S
O309 C318 1.279 . S
O310 Mg308 2.030 . S
O310 C316 1.248 . S
O311 Mg308 1.990 . S
O311 C317 1.253 . S
O312 Mg308 2.117 . S
O312 C318 1.250 . S
C313 O319 1.248 . S
C313 O320 1.264 . S
C314 O300 1.253 . S
C314 O302 1.260 . S
C315 O304 1.279 . S
C315 O305 1.250 . S
C316 O306 1.264 . S
C316 O310 1.248 . S
C317 O307 1.260 . S
C317 O311 1.253 . S
C318 O309 1.279 . S
C318 O312 1.250 . S
O319 Mg301 2.030 . S
O319 C313 1.248 . S
O320 Mg303 2.079 . S
O320 C313 1.264 . S
O321 Mg322 1.990 . S
O321 C335 1.253 . S
Mg322 O321 1.990 . S
Mg322 O325 2.180 . S
Mg322 O326 2.117 . S
Mg322 O340 2.030 . S
O323 Mg324 2.072 . S
O323 C335 1.260 . S
Mg324 O323 2.072 . S
Mg324 O325 2.099 . S
Mg324 O327 2.079 . S
Mg324 O328 2.072 . S
Mg324 O330 2.099 . S
Mg324 O341 2.079 . S
O325 Mg322 2.180 . S
O325 Mg324 2.099 . S
O325 C336 1.279 . S
O326 Mg322 2.117 . S
O326 C336 1.250 . S
O327 Mg324 2.079 . S
O327 C337 1.264 . S
O328 Mg324 2.072 . S
O328 C338 1.260 . S
Mg329 O330 2.180 . S
Mg329 O331 2.030 . S
Mg329 O332 1.990 . S
Mg329 O333 2.117 . S
O330 Mg324 2.099 . S
O330 Mg329 2.180 . S
O330 C339 1.279 . S
O331 Mg329 2.030 . S
O331 C337 1.248 . S
O332 Mg329 1.990 . S
O332 C338 1.253 . S
O333 Mg329 2.117 . S
O333 C339 1.250 . S
C334 O340 1.248 . S
C334 O341 1.264 . S
C335 O321 1.253 . S
C335 O323 1.260 . S
C336 O325 1.279 . S
C336 O326 1.250 . S
C337 O327 1.264 . S
C337 O331 1.248 . S
C338 O328 1.260 . S
C338 O332 1.253 . S
C339 O330 1.279 . S
C339 O333 1.250 . S
O340 Mg322 2.030 . S
O340 C334 1.248 . S
O341 Mg324 2.079 . S
O341 C334 1.264 . S
O342 Mg343 1.990 . S
O342 C356 1.253 . S
Mg343 O342 1.990 . S
Mg343 O346 2.180 . S
Mg343 O347 2.117 . S
Mg343 O361 2.030 . S
O344 Mg345 2.072 . S
O344 C356 1.260 . S
Mg345 O344 2.072 . S
Mg345 O346 2.099 . S
Mg345 O348 2.079 . S
Mg345 O349 2.072 . S
Mg345 O351 2.099 . S
Mg345 O362 2.079 . S
O346 Mg343 2.180 . S
O346 Mg345 2.099 . S
O346 C357 1.279 . S
O347 Mg343 2.117 . S
O347 C357 1.250 . S
O348 Mg345 2.079 . S
O348 C358 1.264 . S
O349 Mg345 2.072 . S
O349 C359 1.260 . S
Mg350 O351 2.180 . S
Mg350 O352 2.030 . S
Mg350 O353 1.990 . S
Mg350 O354 2.117 . S
O351 Mg345 2.099 . S
O351 Mg350 2.180 . S
O351 C360 1.279 . S
O352 Mg350 2.030 . S
O352 C358 1.248 . S
O353 Mg350 1.990 . S
O353 C359 1.253 . S
O354 Mg350 2.117 . S
O354 C360 1.250 . S
C355 O361 1.248 . S
C355 O362 1.264 . S
C356 O342 1.253 . S
C356 O344 1.260 . S
C357 O346 1.279 . S
C357 O347 1.250 . S
C358 O348 1.264 . S
C358 O352 1.248 . S
C359 O349 1.260 . S
C359 O353 1.253 . S
C360 O351 1.279 . S
C360 O354 1.250 . S
O361 Mg343 2.030 . S
O361 C355 1.248 . S
O362 Mg345 2.079 . S
O362 C355 1.264 . S
O363 Mg364 1.990 . S
O363 C377 1.253 . S
Mg364 O363 1.990 . S
Mg364 O367 2.180 . S
Mg364 O368 2.117 . S
Mg364 O382 2.030 . S
O365 Mg366 2.072 . S
O365 C377 1.260 . S
Mg366 O365 2.072 . S
Mg366 O367 2.099 . S
Mg366 O369 2.079 . S
Mg366 O370 2.072 . S
Mg366 O372 2.099 . S
Mg366 O383 2.079 . S
O367 Mg364 2.180 . S
O367 Mg366 2.099 . S
O367 C378 1.279 . S
O368 Mg364 2.117 . S
O368 C378 1.250 . S
O369 Mg366 2.079 . S
O369 C379 1.264 . S
O370 Mg366 2.072 . S
O370 C380 1.260 . S
Mg371 O372 2.180 . S
Mg371 O373 2.030 . S
Mg371 O374 1.990 . S
Mg371 O375 2.117 . S
O372 Mg366 2.099 . S
O372 Mg371 2.180 . S
O372 C381 1.279 . S
O373 Mg371 2.030 . S
O373 C379 1.248 . S
O374 Mg371 1.990 . S
O374 C380 1.253 . S
O375 Mg371 2.117 . S
O375 C381 1.250 . S
C376 O382 1.248 . S
C376 O383 1.264 . S
C377 O363 1.253 . S
C377 O365 1.260 . S
C378 O367 1.279 . S
C378 O368 1.250 . S
C379 O369 1.264 . S
C379 O373 1.248 . S
C380 O370 1.260 . S
C380 O374 1.253 . S
C381 O372 1.279 . S
C381 O375 1.250 . S
O382 Mg364 2.030 . S
O382 C376 1.248 . S
O383 Mg366 2.079 . S
O383 C376 1.264 . S
O384 Mg385 1.990 . S
O384 C398 1.253 . S
Mg385 O384 1.990 . S
Mg385 O388 2.180 . S
Mg385 O389 2.117 . S
Mg385 O403 2.030 . S
O386 Mg387 2.072 . S
O386 C398 1.260 . S
Mg387 O386 2.072 . S
Mg387 O388 2.099 . S
Mg387 O390 2.079 . S
Mg387 O391 2.072 . S
Mg387 O393 2.099 . S
Mg387 O404 2.079 . S
O388 Mg385 2.180 . S
O388 Mg387 2.099 . S
O388 C399 1.279 . S
O389 Mg385 2.117 . S
O389 C399 1.250 . S
O390 Mg387 2.079 . S
O390 C400 1.264 . S
O391 Mg387 2.072 . S
O391 C401 1.260 . S
Mg392 O393 2.180 . S
Mg392 O394 2.030 . S
Mg392 O395 1.990 . S
Mg392 O396 2.117 . S
O393 Mg387 2.099 . S
O393 Mg392 2.180 . S
O393 C402 1.279 . S
O394 Mg392 2.030 . S
O394 C400 1.248 . S
O395 Mg392 1.990 . S
O395 C401 1.253 . S
O396 Mg392 2.117 . S
O396 C402 1.250 . S
C397 O403 1.248 . S
C397 O404 1.264 . S
C398 O384 1.253 . S
C398 O386 1.260 . S
C399 O388 1.279 . S
C399 O389 1.250 . S
C400 O390 1.264 . S
C400 O394 1.248 . S
C401 O391 1.260 . S
C401 O395 1.253 . S
C402 O393 1.279 . S
C402 O396 1.250 . S
O403 Mg385 2.030 . S
O403 C397 1.248 . S
O404 Mg387 2.079 . S
O404 C397 1.264 . S
H405 C413 0.929 . S
H406 C415 0.930 . S
H407 C417 0.930 . S
H408 C420 0.929 . S
H409 C423 0.930 . S
H410 C425 0.960 . S
H411 C425 0.960 . S
H412 C425 0.960 . S
C413 H405 0.929 . S
C413 C414 1.377 . S
C413 C415 1.384 . S
C414 C413 1.377 . S
C414 C420 1.390 . S
C415 H406 0.930 . S
C415 C413 1.384 . S
C415 C416 1.372 . S
C416 C415 1.372 . S
C416 C417 1.400 . S
C416 C421 1.490 . S
C417 H407 0.930 . S
C417 C416 1.400 . S
C417 C420 1.386 . S
H418 C434 0.930 . S
H419 C435 0.931 . S
C420 H408 0.929 . S
C420 C414 1.390 . S
C420 C417 1.386 . S
C421 C416 1.490 . S
C421 C423 1.395 . S
C421 C424 1.425 . S
H422 C428 0.930 1_556 S
C423 H409 0.930 . S
C423 C421 1.395 . S
C423 C426 1.403 . S
C424 C421 1.425 . S
C424 C425 1.500 1_554 S
C424 C428 1.401 . S
C425 H410 0.960 . S
C425 H411 0.960 . S
C425 H412 0.960 . S
C425 C424 1.500 1_556 S
C426 C423 1.403 . S
C426 C427 1.392 . S
C426 C430 1.495 . S
C427 C426 1.392 . S
C427 C428 1.385 . S
C427 C429 1.478 . S
C428 H422 0.930 1_554 S
C428 C424 1.401 . S
C428 C427 1.385 . S
C429 C427 1.478 . S
C429 C431 1.381 . S
C429 C435 1.383 . S
C430 C426 1.495 . S
C430 H436 0.959 . S
C430 H437 0.961 . S
C430 H438 0.960 . S
C431 C429 1.381 . S
C431 C432 1.394 . S
C431 H439 0.930 . S
C432 C431 1.394 . S
C432 C433 1.383 . S
C432 H440 0.929 . S
C433 C432 1.383 . S
C433 C434 1.377 . S
C434 H418 0.930 . S
C434 C433 1.377 . S
C434 C435 1.379 . S
C435 H419 0.931 . S
C435 C429 1.383 . S
C435 C434 1.379 . S
H436 C430 0.959 . S
H437 C430 0.961 . S
H438 C430 0.960 . S
H439 C431 0.930 . S
H440 C432 0.929 . S
H441 C449 0.929 . S
H442 C451 0.930 . S
H443 C453 0.930 . S
H444 C456 0.929 . S
H445 C459 0.930 . S
H446 C461 0.960 . S
H447 C461 0.960 1_556 S
H448 C461 0.960 . S
C449 H441 0.929 . S
C449 C450 1.377 . S
C449 C451 1.384 . S
C450 C449 1.377 . S
C450 C456 1.390 . S
C451 H442 0.930 . S
C451 C449 1.384 . S
C451 C452 1.372 . S
C452 C451 1.372 . S
C452 C453 1.400 . S
C452 C457 1.490 . S
C453 H443 0.930 . S
C453 C452 1.400 . S
C453 C456 1.386 . S
H454 C470 0.930 . S
H455 C471 0.931 . S
C456 H444 0.929 . S
C456 C450 1.390 . S
C456 C453 1.386 . S
C457 C452 1.490 . S
C457 C459 1.395 . S
C457 C460 1.403 . S
H458 C464 0.930 . S
C459 H445 0.930 . S
C459 C457 1.395 . S
C459 C462 1.403 . S
C460 C457 1.403 . S
C460 C461 1.524 . S
C460 C464 1.400 . S
C461 H446 0.960 . S
C461 H447 0.960 1_554 S
C461 H448 0.960 . S
C461 C460 1.524 . S
C462 C459 1.403 . S
C462 C463 1.392 . S
C462 C466 1.495 . S
C463 C462 1.392 . S
C463 C464 1.385 . S
C463 C465 1.478 . S
C464 H458 0.930 . S
C464 C460 1.400 . S
C464 C463 1.385 . S
C465 C463 1.478 . S
C465 C467 1.381 . S
C465 C471 1.383 . S
C466 C462 1.495 . S
C466 H472 0.959 . S
C466 H473 0.961 . S
C466 H474 0.960 . S
C467 C465 1.381 . S
C467 C468 1.394 . S
C467 H475 0.930 1_554 S
C468 C467 1.394 . S
C468 C469 1.383 . S
C468 H476 0.929 1_554 S
C469 C468 1.383 . S
C469 C470 1.377 . S
C470 H454 0.930 . S
C470 C469 1.377 . S
C470 C471 1.379 . S
C471 H455 0.931 . S
C471 C465 1.383 . S
C471 C470 1.379 . S
H472 C466 0.959 . S
H473 C466 0.961 . S
H474 C466 0.960 . S
H475 C467 0.930 1_556 S
H476 C468 0.929 1_556 S
H477 C485 0.929 1_556 S
H478 C487 0.930 1_556 S
H479 C489 0.930 . S
H480 C492 0.929 . S
H481 C495 0.930 . S
H482 C497 0.960 . S
H483 C497 0.960 . S
H484 C497 0.960 . S
C485 H477 0.929 1_554 S
C485 C486 1.377 . S
C485 C487 1.384 . S
C486 C485 1.377 . S
C486 C492 1.390 . S
C487 H478 0.930 1_554 S
C487 C485 1.384 . S
C487 C488 1.372 . S
C488 C487 1.372 . S
C488 C489 1.400 . S
C488 C493 1.490 . S
C489 H479 0.930 . S
C489 C488 1.400 . S
C489 C492 1.386 . S
H490 C506 0.930 . S
H491 C507 0.931 . S
C492 H480 0.929 . S
C492 C486 1.390 . S
C492 C489 1.386 . S
C493 C488 1.490 . S
C493 C495 1.395 . S
C493 C496 1.403 . S
H494 C500 0.930 . S
C495 H481 0.930 . S
C495 C493 1.395 . S
C495 C498 1.403 . S
C496 C493 1.403 . S
C496 C497 1.524 . S
C496 C500 1.400 . S
C497 H482 0.960 . S
C497 H483 0.960 . S
C497 H484 0.960 . S
C497 C496 1.524 . S
C498 C495 1.403 . S
C498 C499 1.392 . S
C498 C502 1.495 1_554 S
C499 C498 1.392 . S
C499 C500 1.385 . S
C499 C501 1.478 . S
C500 H494 0.930 . S
C500 C496 1.400 . S
C500 C499 1.385 . S
C501 C499 1.478 . S
C501 C503 1.381 1_554 S
C501 C507 1.383 . S
C502 C498 1.495 1_556 S
C502 H508 0.959 . S
C502 H509 0.961 1_556 S
C502 H510 0.960 . S
C503 C501 1.381 1_556 S
C503 C504 1.394 . S
C503 H511 0.930 . S
C504 C503 1.394 . S
C504 C505 1.383 1_556 S
C504 H512 0.929 . S
C505 C504 1.383 1_554 S
C505 C506 1.377 . S
C506 H490 0.930 . S
C506 C505 1.377 . S
C506 C507 1.379 . S
C507 H491 0.931 . S
C507 C501 1.383 . S
C507 C506 1.379 . S
H508 C502 0.959 . S
H509 C502 0.961 1_554 S
H510 C502 0.960 . S
H511 C503 0.930 . S
H512 C504 0.929 . S
H513 C521 0.929 . S
H514 C523 0.930 . S
H515 C525 0.931 . S
H516 C528 0.930 . S
H517 C531 0.930 . S
H518 C533 0.960 . S
H519 C533 0.960 . S
H520 C533 0.960 . S
C521 H513 0.929 . S
C521 C522 1.377 . S
C521 C523 1.384 . S
C522 C521 1.377 . S
C522 C528 1.390 . S
C523 H514 0.930 . S
C523 C521 1.384 . S
C523 C524 1.372 . S
C524 C523 1.372 . S
C524 C525 1.399 1_556 S
C524 C529 1.490 . S
C525 H515 0.931 . S
C525 C524 1.399 1_554 S
C525 C528 1.385 1_554 S
H526 C542 0.930 . S
H527 C543 0.931 . S
C528 H516 0.930 . S
C528 C522 1.390 . S
C528 C525 1.385 1_556 S
C529 C524 1.490 . S
C529 C531 1.395 . S
C529 C532 1.403 1_556 S
H530 C536 0.930 . S
C531 H517 0.930 . S
C531 C529 1.395 . S
C531 C534 1.403 . S
C532 C529 1.403 1_554 S
C532 C533 1.524 . S
C532 C536 1.400 . S
C533 H518 0.960 . S
C533 H519 0.960 . S
C533 H520 0.960 . S
C533 C532 1.524 . S
C534 C531 1.403 . S
C534 C535 1.392 . S
C534 C538 1.495 . S
C535 C534 1.392 . S
C535 C536 1.385 1_556 S
C535 C537 1.477 . S
C536 H530 0.930 . S
C536 C532 1.400 . S
C536 C535 1.385 1_554 S
C537 C535 1.477 . S
C537 C539 1.381 1_556 S
C537 C543 1.383 1_556 S
C538 C534 1.495 . S
C538 H544 0.959 . S
C538 H545 0.961 . S
C538 H546 0.960 . S
C539 C537 1.381 1_554 S
C539 C540 1.400 . S
C539 H547 0.927 1_554 S
C540 C539 1.400 . S
C540 C541 1.383 . S
C540 H548 0.929 . S
C541 C540 1.383 . S
C541 C542 1.377 . S
C542 H526 0.930 . S
C542 C541 1.377 . S
C542 C543 1.379 . S
C543 H527 0.931 . S
C543 C537 1.383 1_554 S
C543 C542 1.379 . S
H544 C538 0.959 . S
H545 C538 0.961 . S
H546 C538 0.960 . S
H547 C539 0.927 1_556 S
H548 C540 0.929 . S
H549 C557 0.929 . S
H550 C559 0.930 . S
H551 C561 0.930 . S
H552 C564 0.929 . S
H553 C567 0.930 . S
H554 C569 0.960 1_556 S
H555 C569 0.959 . S
H556 C569 0.961 1_556 S
C557 H549 0.929 . S
C557 C558 1.377 1_554 S
C557 C559 1.384 . S
C558 C557 1.377 1_556 S
C558 C564 1.390 . S
C559 H550 0.930 . S
C559 C557 1.384 . S
C559 C560 1.396 . S
C560 C559 1.396 . S
C560 C561 1.374 1_554 S
C560 C565 1.492 . S
C561 H551 0.930 . S
C561 C560 1.374 1_556 S
C561 C564 1.386 . S
H562 C578 0.930 . S
H563 C579 0.931 . S
C564 H552 0.929 . S
C564 C558 1.390 . S
C564 C561 1.386 . S
C565 C560 1.492 . S
C565 C567 1.395 . S
C565 C568 1.403 . S
H566 C572 0.930 . S
C567 H553 0.930 . S
C567 C565 1.395 . S
C567 C570 1.403 . S
C568 C565 1.403 . S
C568 C569 1.524 . S
C568 C572 1.400 . S
C569 H554 0.960 1_554 S
C569 H555 0.959 . S
C569 H556 0.961 1_554 S
C569 C568 1.524 . S
C570 C567 1.403 . S
C570 C571 1.392 . S
C570 C574 1.495 . S
C571 C570 1.392 . S
C571 C572 1.385 . S
C571 C573 1.478 . S
C572 H566 0.930 . S
C572 C568 1.400 . S
C572 C571 1.385 . S
C573 C571 1.478 . S
C573 C575 1.381 . S
C573 C579 1.383 1_554 S
C574 C570 1.495 . S
C574 H580 0.959 . S
C574 H581 0.961 1_554 S
C574 H582 0.960 . S
C575 C573 1.381 . S
C575 C576 1.394 . S
C575 H583 0.930 . S
C576 C575 1.394 . S
C576 C577 1.383 . S
C576 H584 0.929 . S
C577 C576 1.383 . S
C577 C578 1.377 1_554 S
C578 H562 0.930 . S
C578 C577 1.377 1_556 S
C578 C579 1.379 . S
C579 H563 0.931 . S
C579 C573 1.383 1_556 S
C579 C578 1.379 . S
H580 C574 0.959 . S
H581 C574 0.961 1_556 S
H582 C574 0.960 . S
H583 C575 0.930 . S
H584 C576 0.929 . S
H585 C593 0.929 . S
H586 C595 0.930 . S
H587 C597 0.930 . S
H588 C600 0.929 . S
H589 C603 0.930 . S
H590 C605 0.960 . S
H591 C605 0.960 . S
H592 C605 0.960 1_554 S
C593 H585 0.929 . S
C593 C594 1.355 1_556 S
C593 C595 1.384 . S
C594 C593 1.355 1_554 S
C594 C600 1.414 . S
C595 H586 0.930 . S
C595 C593 1.384 . S
C595 C596 1.372 1_556 S
C596 C595 1.372 1_554 S
C596 C597 1.400 . S
C596 C601 1.490 . S
C597 H587 0.930 . S
C597 C596 1.400 . S
C597 C600 1.386 . S
H598 C614 0.930 . S
H599 C615 0.931 . S
C600 H588 0.929 . S
C600 C594 1.414 . S
C600 C597 1.386 . S
C601 C596 1.490 . S
C601 C603 1.395 . S
C601 C604 1.398 1_554 S
H602 C608 0.926 1_556 S
C603 H589 0.930 . S
C603 C601 1.395 . S
C603 C606 1.403 . S
C604 C601 1.398 1_556 S
C604 C605 1.533 . S
C604 C608 1.397 1_556 S
C605 H590 0.960 . S
C605 H591 0.960 . S
C605 H592 0.960 1_556 S
C605 C604 1.533 . S
C606 C603 1.403 . S
C606 C607 1.392 . S
C606 C610 1.495 . S
C607 C606 1.392 . S
C607 C608 1.385 . S
C607 C609 1.478 . S
C608 H602 0.926 1_554 S
C608 C604 1.397 1_554 S
C608 C607 1.385 . S
C609 C607 1.478 . S
C609 C611 1.381 1_554 S
C609 C615 1.383 . S
C610 C606 1.495 . S
C610 H616 0.959 . S
C610 H617 0.961 . S
C610 H618 0.960 . S
C611 C609 1.381 1_556 S
C611 C612 1.394 . S
C611 H619 0.930 . S
C612 C611 1.394 . S
C612 C613 1.383 1_556 S
C612 H620 0.929 . S
C613 C612 1.383 1_554 S
C613 C614 1.377 . S
C614 H598 0.930 . S
C614 C613 1.377 . S
C614 C615 1.379 . S
C615 H599 0.931 . S
C615 C609 1.383 . S
C615 C614 1.379 . S
H616 C610 0.959 . S
H617 C610 0.961 . S
H618 C610 0.960 . S
H619 C611 0.930 . S
H620 C612 0.929 . S
H621 C629 0.929 . S
H622 C631 0.930 . S
H623 C633 0.930 . S
H624 C636 0.929 . S
H625 C639 0.930 . S
H626 C641 0.960 . S
H627 C641 0.960 . S
H628 C641 0.960 . S
C629 H621 0.929 . S
C629 C630 1.377 1_556 S
C629 C631 1.384 . S
C630 C629 1.377 1_554 S
C630 C636 1.390 . S
C631 H622 0.930 . S
C631 C629 1.384 . S
C631 C632 1.372 1_556 S
C632 C631 1.372 1_554 S
C632 C633 1.400 . S
C632 C637 1.490 . S
C633 H623 0.930 . S
C633 C632 1.400 . S
C633 C636 1.386 . S
H634 C650 0.930 . S
H635 C651 0.931 . S
C636 H624 0.929 . S
C636 C630 1.390 . S
C636 C633 1.386 . S
C637 C632 1.490 . S
C637 C639 1.395 1_554 S
C637 C640 1.403 . S
H638 C644 0.930 . S
C639 H625 0.930 . S
C639 C637 1.395 1_556 S
C639 C642 1.403 . S
C640 C637 1.403 . S
C640 C641 1.524 . S
C640 C644 1.400 . S
C641 H626 0.960 . S
C641 H627 0.960 . S
C641 H628 0.960 . S
C641 C640 1.524 . S
C642 C639 1.403 . S
C642 C643 1.392 1_556 S
C642 C646 1.495 . S
C643 C642 1.392 1_554 S
C643 C644 1.385 . S
C643 C645 1.478 . S
C644 H638 0.930 . S
C644 C640 1.400 . S
C644 C643 1.385 . S
C645 C643 1.478 . S
C645 C647 1.381 1_554 S
C645 C651 1.383 . S
C646 C642 1.495 . S
C646 H652 0.959 . S
C646 H653 0.961 . S
C646 H654 0.960 . S
C647 C645 1.381 1_556 S
C647 C648 1.394 . S
C647 H655 0.930 . S
C648 C647 1.394 . S
C648 C649 1.383 1_556 S
C648 H656 0.929 . S
C649 C648 1.383 1_554 S
C649 C650 1.377 . S
C650 H634 0.930 . S
C650 C649 1.377 . S
C650 C651 1.379 . S
C651 H635 0.931 . S
C651 C645 1.383 . S
C651 C650 1.379 . S
H652 C646 0.959 . S
H653 C646 0.961 . S
H654 C646 0.960 . S
H655 C647 0.930 . S
H656 C648 0.929 . S
H657 C665 0.929 . S
H658 C667 0.930 . S
H659 C669 0.930 . S
H660 C672 0.929 . S
H661 C675 0.930 . S
H662 C677 0.960 . S
H663 C677 0.960 . S
H664 C677 0.960 . S
C665 H657 0.929 . S
C665 C666 1.377 1_556 S
C665 C667 1.384 . S
C666 C665 1.377 1_554 S
C666 C672 1.390 . S
C667 H658 0.930 . S
C667 C665 1.384 . S
C667 C668 1.372 1_556 S
C668 C667 1.372 1_554 S
C668 C669 1.400 . S
C668 C673 1.490 . S
C669 H659 0.930 . S
C669 C668 1.400 . S
C669 C672 1.386 . S
H670 C686 0.930 . S
H671 C687 0.931 . S
C672 H660 0.929 . S
C672 C666 1.390 . S
C672 C669 1.386 . S
C673 C668 1.490 . S
C673 C675 1.395 1_554 S
C673 C676 1.403 . S
H674 C680 0.930 . S
C675 H661 0.930 . S
C675 C673 1.395 1_556 S
C675 C678 1.403 . S
C676 C673 1.403 . S
C676 C677 1.524 . S
C676 C680 1.400 . S
C677 H662 0.960 . S
C677 H663 0.960 . S
C677 H664 0.960 . S
C677 C676 1.524 . S
C678 C675 1.403 . S
C678 C679 1.392 1_556 S
C678 C682 1.495 . S
C679 C678 1.392 1_554 S
C679 C680 1.385 . S
C679 C681 1.478 . S
C680 H674 0.930 . S
C680 C676 1.400 . S
C680 C679 1.385 . S
C681 C679 1.478 . S
C681 C683 1.381 1_554 S
C681 C687 1.383 . S
C682 C678 1.495 . S
C682 H688 0.959 . S
C682 H689 0.961 . S
C682 H690 0.960 . S
C683 C681 1.381 1_556 S
C683 C684 1.394 . S
C683 H691 0.930 . S
C684 C683 1.394 . S
C684 C685 1.383 1_556 S
C684 H692 0.929 . S
C685 C684 1.383 1_554 S
C685 C686 1.377 . S
C686 H670 0.930 . S
C686 C685 1.377 . S
C686 C687 1.379 . S
C687 H671 0.931 . S
C687 C681 1.383 . S
C687 C686 1.379 . S
H688 C682 0.959 . S
H689 C682 0.961 . S
H690 C682 0.960 . S
H691 C683 0.930 . S
H692 C684 0.929 . S
H693 C701 0.929 . S
H694 C703 0.930 . S
H695 C705 0.930 . S
H696 C708 0.929 . S
H697 C711 0.930 . S
H698 C713 0.960 . S
H699 C713 0.960 . S
H700 C713 0.960 . S
C701 H693 0.929 . S
C701 C702 1.377 . S
C701 C703 1.384 . S
C702 C701 1.377 . S
C702 C708 1.390 1_554 S
C703 H694 0.930 . S
C703 C701 1.384 . S
C703 C704 1.372 . S
C704 C703 1.372 . S
C704 C705 1.400 1_554 S
C704 C709 1.490 . S
C705 H695 0.930 . S
C705 C704 1.400 1_556 S
C705 C708 1.386 . S
H706 C722 0.930 . S
H707 C723 0.931 . S
C708 H696 0.929 . S
C708 C702 1.390 1_556 S
C708 C705 1.386 . S
C709 C704 1.490 . S
C709 C711 1.395 . S
C709 C712 1.403 . S
H710 C716 0.930 . S
C711 H697 0.930 . S
C711 C709 1.395 . S
C711 C714 1.403 . S
C712 C709 1.403 . S
C712 C713 1.524 . S
C712 C716 1.400 . S
C713 H698 0.960 . S
C713 H699 0.960 . S
C713 H700 0.960 . S
C713 C712 1.524 . S
C714 C711 1.403 . S
C714 C715 1.392 . S
C714 C718 1.495 1_554 S
C715 C714 1.392 . S
C715 C716 1.385 . S
C715 C717 1.478 . S
C716 H710 0.930 . S
C716 C712 1.400 . S
C716 C715 1.385 . S
C717 C715 1.478 . S
C717 C719 1.381 . S
C717 C723 1.383 1_554 S
C718 C714 1.495 1_556 S
C718 H724 0.959 . S
C718 H725 0.961 . S
C718 H726 0.960 1_556 S
C719 C717 1.381 . S
C719 C720 1.394 . S
C719 H727 0.930 . S
C720 C719 1.394 . S
C720 C721 1.383 . S
C720 H728 0.929 . S
C721 C720 1.383 . S
C721 C722 1.377 1_554 S
C722 H706 0.930 . S
C722 C721 1.377 1_556 S
C722 C723 1.379 . S
C723 H707 0.931 . S
C723 C717 1.383 1_556 S
C723 C722 1.379 . S
H724 C718 0.959 . S
H725 C718 0.961 . S
H726 C718 0.960 1_554 S
H727 C719 0.930 . S
H728 C720 0.929 . S
H729 C737 0.929 . S
H730 C739 0.930 . S
H731 C741 0.930 . S
H732 C744 0.929 . S
H733 C747 0.930 . S
H734 C749 0.960 . S
H735 C749 0.960 . S
H736 C749 0.960 1_556 S
C737 H729 0.929 . S
C737 C738 1.377 . S
C737 C739 1.384 . S
C738 C737 1.377 . S
C738 C744 1.390 1_554 S
C739 H730 0.930 . S
C739 C737 1.384 . S
C739 C740 1.372 . S
C740 C739 1.372 . S
C740 C741 1.400 1_554 S
C740 C745 1.490 . S
C741 H731 0.930 . S
C741 C740 1.400 1_556 S
C741 C744 1.386 . S
H742 C758 0.930 . S
H743 C759 0.931 . S
C744 H732 0.929 . S
C744 C738 1.390 1_556 S
C744 C741 1.386 . S
C745 C740 1.490 . S
C745 C747 1.395 . S
C745 C748 1.403 . S
H746 C752 0.930 . S
C747 H733 0.930 . S
C747 C745 1.395 . S
C747 C750 1.403 . S
C748 C745 1.403 . S
C748 C749 1.524 . S
C748 C752 1.400 . S
C749 H734 0.960 . S
C749 H735 0.960 . S
C749 H736 0.960 1_554 S
C749 C748 1.524 . S
C750 C747 1.403 . S
C750 C751 1.392 . S
C750 C754 1.495 . S
C751 C750 1.392 . S
C751 C752 1.385 . S
C751 C753 1.478 . S
C752 H746 0.930 . S
C752 C748 1.400 . S
C752 C751 1.385 . S
C753 C751 1.478 . S
C753 C755 1.381 . S
C753 C759 1.383 1_554 S
C754 C750 1.495 . S
C754 H760 0.959 . S
C754 H761 0.961 . S
C754 H762 0.960 . S
C755 C753 1.381 . S
C755 C756 1.394 . S
C755 H763 0.930 . S
C756 C755 1.394 . S
C756 C757 1.383 . S
C756 H764 0.929 . S
C757 C756 1.383 . S
C757 C758 1.377 1_554 S
C758 H742 0.930 . S
C758 C757 1.377 1_556 S
C758 C759 1.379 . S
C759 H743 0.931 . S
C759 C753 1.383 1_556 S
C759 C758 1.379 . S
H760 C754 0.959 . S
H761 C754 0.961 . S
H762 C754 0.960 . S
H763 C755 0.930 . S
H764 C756 0.929 . S
H765 C773 0.929 . S
H766 C775 0.930 . S
H767 C777 0.930 1_556 S
H768 C780 0.929 1_556 S
H769 C783 0.930 . S
H770 C785 0.960 . S
H771 C785 0.960 . S
H772 C785 0.960 . S
C773 H765 0.929 . S
C773 C774 1.377 . S
C773 C775 1.384 . S
C774 C773 1.377 . S
C774 C780 1.390 . S
C775 H766 0.930 . S
C775 C773 1.384 . S
C775 C776 1.372 . S
C776 C775 1.372 . S
C776 C777 1.400 . S
C776 C781 1.490 . S
C777 H767 0.930 1_554 S
C777 C776 1.400 . S
C777 C780 1.386 . S
H778 C794 0.925 1_556 S
H779 C795 0.931 1_556 S
C780 H768 0.929 1_554 S
C780 C774 1.390 . S
C780 C777 1.386 . S
C781 C776 1.490 . S
C781 C783 1.395 . S
C781 C784 1.403 1_554 S
H782 C788 0.946 . S
C783 H769 0.930 . S
C783 C781 1.395 . S
C783 C786 1.403 . S
C784 C781 1.403 1_556 S
C784 C785 1.524 . S
C784 C788 1.400 . S
C785 H770 0.960 . S
C785 H771 0.960 . S
C785 H772 0.960 . S
C785 C784 1.524 . S
C786 C783 1.403 . S
C786 C787 1.392 . S
C786 C790 1.495 . S
C787 C786 1.392 . S
C787 C788 1.370 1_554 S
C787 C789 1.478 . S
C788 H782 0.946 . S
C788 C784 1.400 . S
C788 C787 1.370 1_556 S
C789 C787 1.478 . S
C789 C791 1.381 . S
C789 C795 1.383 . S
C790 C786 1.495 . S
C790 H796 0.959 . S
C790 H797 0.961 . S
C790 H798 0.960 . S
C791 C789 1.381 . S
C791 C792 1.394 . S
C791 H799 0.930 . S
C792 C791 1.394 . S
C792 C793 1.383 . S
C792 H800 0.929 . S
C793 C792 1.383 . S
C793 C794 1.381 . S
C794 H778 0.925 1_554 S
C794 C793 1.381 . S
C794 C795 1.380 . S
C795 H779 0.931 1_554 S
C795 C789 1.383 . S
C795 C794 1.380 . S
H796 C790 0.959 . S
H797 C790 0.961 . S
H798 C790 0.960 . S
H799 C791 0.930 . S
H800 C792 0.929 . S
H801 C809 0.929 . S
H802 C811 0.930 . S
H803 C813 0.921 1_556 S
H804 C816 0.907 1_556 S
H805 C819 0.930 . S
H806 C821 0.960 . S
H807 C821 0.960 . S
H808 C821 0.960 . S
C809 H801 0.929 . S
C809 C810 1.377 . S
C809 C811 1.384 . S
C810 C809 1.377 . S
C810 C816 1.414 . S
C811 H802 0.930 . S
C811 C809 1.384 . S
C811 C812 1.372 . S
C812 C811 1.372 . S
C812 C813 1.408 . S
C812 C817 1.490 . S
C813 H803 0.921 1_554 S
C813 C812 1.408 . S
C813 C816 1.385 . S
H814 C830 0.930 . S
H815 C831 0.931 . S
C816 H804 0.907 1_554 S
C816 C810 1.414 . S
C816 C813 1.385 . S
C817 C812 1.490 . S
C817 C819 1.395 . S
C817 C820 1.403 . S
H818 C824 0.930 . S
C819 H805 0.930 . S
C819 C817 1.395 . S
C819 C822 1.403 . S
C820 C817 1.403 . S
C820 C821 1.524 . S
C820 C824 1.400 . S
C821 H806 0.960 . S
C821 H807 0.960 . S
C821 H808 0.960 . S
C821 C820 1.524 . S
C822 C819 1.403 . S
C822 C823 1.392 . S
C822 C826 1.495 . S
C823 C822 1.392 . S
C823 C824 1.385 . S
C823 C825 1.478 . S
C824 H818 0.930 . S
C824 C820 1.400 . S
C824 C823 1.385 . S
C825 C823 1.478 . S
C825 C827 1.381 . S
C825 C831 1.383 1_554 S
C826 C822 1.495 . S
C826 H832 0.959 . S
C826 H833 0.961 1_554 S
C826 H834 0.960 . S
C827 C825 1.381 . S
C827 C828 1.394 . S
C827 H835 0.930 . S
C828 C827 1.394 . S
C828 C829 1.383 . S
C828 H836 0.929 . S
C829 C828 1.383 . S
C829 C830 1.377 1_554 S
C830 H814 0.930 . S
C830 C829 1.377 1_556 S
C830 C831 1.379 . S
C831 H815 0.931 . S
C831 C825 1.383 1_556 S
C831 C830 1.379 . S
H832 C826 0.959 . S
H833 C826 0.961 1_556 S
H834 C826 0.960 . S
H835 C827 0.930 . S
H836 C828 0.929 . S
H837 C845 0.929 . S
H838 C847 0.930 . S
H839 C849 0.930 . S
H840 C852 0.929 . S
H841 C855 0.930 . S
H842 C857 0.960 . S
H843 C857 0.960 . S
H844 C857 0.960 . S
C845 H837 0.929 . S
C845 C846 1.377 . S
C845 C847 1.384 . S
C846 C845 1.377 . S
C846 C852 1.390 . S
C847 H838 0.930 . S
C847 C845 1.384 . S
C847 C848 1.372 . S
C848 C847 1.372 . S
C848 C849 1.400 . S
C848 C853 1.490 . S
C849 H839 0.930 . S
C849 C848 1.400 . S
C849 C852 1.386 . S
H850 C866 0.930 . S
H851 C867 0.931 . S
C852 H840 0.929 . S
C852 C846 1.390 . S
C852 C849 1.386 . S
C853 C848 1.490 . S
C853 C855 1.395 1_655 S
C853 C856 1.403 . S
H854 C860 0.930 . S
C855 H841 0.930 . S
C855 C853 1.395 1_455 S
C855 C858 1.403 . S
C856 C853 1.403 . S
C856 C857 1.524 . S
C856 C860 1.400 1_655 S
C857 H842 0.960 . S
C857 H843 0.960 . S
C857 H844 0.960 . S
C857 C856 1.524 . S
C858 C855 1.403 . S
C858 C859 1.392 . S
C858 C862 1.495 . S
C859 C858 1.392 . S
C859 C860 1.385 . S
C859 C861 1.478 . S
C860 H854 0.930 . S
C860 C856 1.400 1_455 S
C860 C859 1.385 . S
C861 C859 1.478 . S
C861 C863 1.381 . S
C861 C867 1.383 . S
C862 C858 1.495 . S
C862 H868 0.959 . S
C862 H869 0.961 . S
C862 H870 0.960 . S
C863 C861 1.381 . S
C863 C864 1.394 . S
C863 H871 0.930 . S
C864 C863 1.394 . S
C864 C865 1.383 . S
C864 H872 0.929 . S
C865 C864 1.383 . S
C865 C866 1.377 . S
C866 H850 0.930 . S
C866 C865 1.377 . S
C866 C867 1.379 . S
C867 H851 0.931 . S
C867 C861 1.383 . S
C867 C866 1.379 . S
H868 C862 0.959 . S
H869 C862 0.961 . S
H870 C862 0.960 . S
H871 C863 0.930 . S
H872 C864 0.929 . S
H873 C881 0.929 . S
H874 C883 0.930 . S
H875 C885 0.930 . S
H876 C888 0.929 . S
H877 C891 0.930 . S
H878 C893 0.960 . S
H879 C893 0.960 . S
H880 C893 0.960 . S
C881 H873 0.929 . S
C881 C882 1.377 . S
C881 C883 1.384 . S
C882 C881 1.377 . S
C882 C888 1.390 . S
C883 H874 0.930 . S
C883 C881 1.384 . S
C883 C884 1.372 . S
C884 C883 1.372 . S
C884 C885 1.400 . S
C884 C889 1.490 . S
C885 H875 0.930 . S
C885 C884 1.400 . S
C885 C888 1.386 . S
H886 C902 0.930 . S
H887 C903 0.931 . S
C888 H876 0.929 . S
C888 C882 1.390 . S
C888 C885 1.386 . S
C889 C884 1.490 . S
C889 C891 1.395 . S
C889 C892 1.403 . S
H890 C896 0.930 . S
C891 H877 0.930 . S
C891 C889 1.395 . S
C891 C894 1.403 . S
C892 C889 1.403 . S
C892 C893 1.524 . S
C892 C896 1.400 . S
C893 H878 0.960 . S
C893 H879 0.960 . S
C893 H880 0.960 . S
C893 C892 1.524 . S
C894 C891 1.403 . S
C894 C895 1.392 . S
C894 C898 1.495 . S
C895 C894 1.392 . S
C895 C896 1.385 . S
C895 C897 1.478 . S
C896 H890 0.930 . S
C896 C892 1.400 . S
C896 C895 1.385 . S
C897 C895 1.478 . S
C897 C899 1.381 . S
C897 C903 1.383 . S
C898 C894 1.495 . S
C898 H904 0.959 . S
C898 H905 0.961 . S
C898 H906 0.960 . S
C899 C897 1.381 . S
C899 C900 1.394 . S
C899 H907 0.930 . S
C900 C899 1.394 . S
C900 C901 1.383 . S
C900 H908 0.929 . S
C901 C900 1.383 . S
C901 C902 1.377 . S
C902 H886 0.930 . S
C902 C901 1.377 . S
C902 C903 1.379 . S
C903 H887 0.931 . S
C903 C897 1.383 . S
C903 C902 1.379 . S
H904 C898 0.959 . S
H905 C898 0.961 . S
H906 C898 0.960 . S
H907 C899 0.930 . S
H908 C900 0.929 . S
H909 C917 0.929 . S
H910 C919 0.930 . S
H911 C921 0.930 . S
H912 C924 0.929 . S
H913 C927 0.930 . S
H914 C929 0.960 1_565 S
H915 C929 0.960 . S
H916 C929 0.960 . S
C917 H909 0.929 . S
C917 C918 1.377 . S
C917 C919 1.384 . S
C918 C917 1.377 . S
C918 C924 1.390 . S
C919 H910 0.930 . S
C919 C917 1.384 . S
C919 C920 1.372 . S
C920 C919 1.372 . S
C920 C921 1.400 . S
C920 C925 1.490 . S
C921 H911 0.930 . S
C921 C920 1.400 . S
C921 C924 1.386 . S
H922 C938 0.930 . S
H923 C939 0.931 . S
C924 H912 0.929 . S
C924 C918 1.390 . S
C924 C921 1.386 . S
C925 C920 1.490 . S
C925 C927 1.395 . S
C925 C928 1.403 . S
H926 C932 0.930 . S
C927 H913 0.930 . S
C927 C925 1.395 . S
C927 C930 1.403 . S
C928 C925 1.403 . S
C928 C929 1.524 . S
C928 C932 1.400 1_545 S
C929 H914 0.960 1_545 S
C929 H915 0.960 . S
C929 H916 0.960 . S
C929 C928 1.524 . S
C930 C927 1.403 . S
C930 C931 1.392 1_545 S
C930 C934 1.495 . S
C931 C930 1.392 1_565 S
C931 C932 1.385 . S
C931 C933 1.478 . S
C932 H926 0.930 . S
C932 C928 1.400 1_565 S
C932 C931 1.385 . S
C933 C931 1.478 . S
C933 C935 1.381 . S
C933 C939 1.383 . S
C934 C930 1.495 . S
C934 H940 0.959 . S
C934 H941 0.961 1_545 S
C934 H942 0.960 1_545 S
C935 C933 1.381 . S
C935 C936 1.394 . S
C935 H943 0.930 . S
C936 C935 1.394 . S
C936 C937 1.383 . S
C936 H944 0.929 . S
C937 C936 1.383 . S
C937 C938 1.377 . S
C938 H922 0.930 . S
C938 C937 1.377 . S
C938 C939 1.379 . S
C939 H923 0.931 . S
C939 C933 1.383 . S
C939 C938 1.379 . S
H940 C934 0.959 . S
H941 C934 0.961 1_565 S
H942 C934 0.960 1_565 S
H943 C935 0.930 . S
H944 C936 0.929 . S
H945 C953 0.929 . S
H946 C955 0.930 . S
H947 C957 0.930 . S
H948 C960 0.929 . S
H949 C963 0.930 . S
H950 C965 0.960 . S
H951 C965 0.960 . S
H952 C965 0.960 . S
C953 H945 0.929 . S
C953 C954 1.377 . S
C953 C955 1.384 . S
C954 C953 1.377 . S
C954 C960 1.390 . S
C955 H946 0.930 . S
C955 C953 1.384 . S
C955 C956 1.372 . S
C956 C955 1.372 . S
C956 C957 1.400 . S
C956 C961 1.490 . S
C957 H947 0.930 . S
C957 C956 1.400 . S
C957 C960 1.386 . S
H958 C974 0.930 . S
H959 C975 0.931 . S
C960 H948 0.929 . S
C960 C954 1.390 . S
C960 C957 1.386 . S
C961 C956 1.490 . S
C961 C963 1.395 . S
C961 C964 1.403 . S
H962 C968 0.930 . S
C963 H949 0.930 . S
C963 C961 1.395 . S
C963 C966 1.403 . S
C964 C961 1.403 . S
C964 C965 1.524 . S
C964 C968 1.400 . S
C965 H950 0.960 . S
C965 H951 0.960 . S
C965 H952 0.960 . S
C965 C964 1.524 . S
C966 C963 1.403 . S
C966 C967 1.392 . S
C966 C970 1.495 . S
C967 C966 1.392 . S
C967 C968 1.385 . S
C967 C969 1.478 . S
C968 H962 0.930 . S
C968 C964 1.400 . S
C968 C967 1.385 . S
C969 C967 1.478 . S
C969 C971 1.381 . S
C969 C975 1.383 . S
C970 C966 1.495 . S
C970 H976 0.959 . S
C970 H977 0.961 . S
C970 H978 0.960 . S
C971 C969 1.381 . S
C971 C972 1.394 . S
C971 H979 0.930 . S
C972 C971 1.394 . S
C972 C973 1.383 . S
C972 H980 0.929 . S
C973 C972 1.383 . S
C973 C974 1.377 . S
C974 H958 0.930 . S
C974 C973 1.377 . S
C974 C975 1.379 . S
C975 H959 0.931 . S
C975 C969 1.383 . S
C975 C974 1.379 . S
H976 C970 0.959 . S
H977 C970 0.961 . S
H978 C970 0.960 . S
H979 C971 0.930 . S
H980 C972 0.929 . S
H981 C989 0.929 . S
H982 C991 0.930 . S
H983 C993 0.930 . S
H984 C996 0.929 . S
H985 C999 0.930 . S
H986 C1001 0.960 . S
H987 C1001 0.960 . S
H988 C1001 0.960 . S
C989 H981 0.929 . S
C989 C990 1.377 . S
C989 C991 1.384 . S
C990 C989 1.377 . S
C990 C996 1.390 . S
C991 H982 0.930 . S
C991 C989 1.384 . S
C991 C992 1.372 . S
C992 C991 1.372 . S
C992 C993 1.400 . S
C992 C997 1.490 . S
C993 H983 0.930 . S
C993 C992 1.400 . S
C993 C996 1.386 . S
H994 C1010 0.930 . S
H995 C1011 0.931 . S
C996 H984 0.929 . S
C996 C990 1.390 . S
C996 C993 1.386 . S
C997 C992 1.490 . S
C997 C999 1.395 . S
C997 C1000 1.403 . S
H998 C1004 0.930 . S
C999 H985 0.930 . S
C999 C997 1.395 . S
C999 C1002 1.403 . S
C1000 C997 1.403 . S
C1000 C1001 1.524 . S
C1000 C1004 1.400 . S
C1001 H986 0.960 . S
C1001 H987 0.960 . S
C1001 H988 0.960 . S
C1001 C1000 1.524 . S
C1002 C999 1.403 . S
C1002 C1003 1.392 . S
C1002 C1006 1.495 . S
C1003 C1002 1.392 . S
C1003 C1004 1.385 . S
C1003 C1005 1.478 . S
C1004 H998 0.930 . S
C1004 C1000 1.400 . S
C1004 C1003 1.385 . S
C1005 C1003 1.478 . S
C1005 C1007 1.381 . S
C1005 C1011 1.383 . S
C1006 C1002 1.495 . S
C1006 H1012 0.959 . S
C1006 H1013 0.961 . S
C1006 H1014 0.960 . S
C1007 C1005 1.381 . S
C1007 C1008 1.394 . S
C1007 H1015 0.930 . S
C1008 C1007 1.394 . S
C1008 C1009 1.383 . S
C1008 H1016 0.929 . S
C1009 C1008 1.383 . S
C1009 C1010 1.377 . S
C1010 H994 0.930 . S
C1010 C1009 1.377 . S
C1010 C1011 1.379 . S
C1011 H995 0.931 . S
C1011 C1005 1.383 . S
C1011 C1010 1.379 . S
H1012 C1006 0.959 . S
H1013 C1006 0.961 . S
H1014 C1006 0.960 . S
H1015 C1007 0.930 . S
H1016 C1008 0.929 . S
H1017 C1025 0.929 . S
H1018 C1027 0.930 . S
H1019 C1029 0.930 . S
H1020 C1032 0.929 . S
H1021 C1035 0.930 . S
H1022 C1037 0.960 . S
H1023 C1037 0.960 . S
H1024 C1037 0.960 . S
C1025 H1017 0.929 . S
C1025 C1026 1.377 . S
C1025 C1027 1.384 . S
C1026 C1025 1.377 . S
C1026 C1032 1.390 . S
C1027 H1018 0.930 . S
C1027 C1025 1.384 . S
C1027 C1028 1.372 . S
C1028 C1027 1.372 . S
C1028 C1029 1.400 . S
C1028 C1033 1.490 . S
C1029 H1019 0.930 . S
C1029 C1028 1.400 . S
C1029 C1032 1.386 . S
H1030 C1046 0.930 . S
H1031 C1047 0.931 . S
C1032 H1020 0.929 . S
C1032 C1026 1.390 . S
C1032 C1029 1.386 . S
C1033 C1028 1.490 . S
C1033 C1035 1.395 . S
C1033 C1036 1.403 . S
H1034 C1040 0.930 . S
C1035 H1021 0.930 . S
C1035 C1033 1.395 . S
C1035 C1038 1.403 . S
C1036 C1033 1.403 . S
C1036 C1037 1.524 . S
C1036 C1040 1.400 . S
C1037 H1022 0.960 . S
C1037 H1023 0.960 . S
C1037 H1024 0.960 . S
C1037 C1036 1.524 . S
C1038 C1035 1.403 . S
C1038 C1039 1.392 . S
C1038 C1042 1.495 . S
C1039 C1038 1.392 . S
C1039 C1040 1.385 . S
C1039 C1041 1.478 . S
C1040 H1034 0.930 . S
C1040 C1036 1.400 . S
C1040 C1039 1.385 . S
C1041 C1039 1.478 . S
C1041 C1043 1.381 . S
C1041 C1047 1.383 . S
C1042 C1038 1.495 . S
C1042 H1048 0.959 . S
C1042 H1049 0.961 . S
C1042 H1050 0.960 . S
C1043 C1041 1.381 . S
C1043 C1044 1.394 . S
C1043 H1051 0.930 . S
C1044 C1043 1.394 . S
C1044 C1045 1.383 . S
C1044 H1052 0.929 . S
C1045 C1044 1.383 . S
C1045 C1046 1.377 . S
C1046 H1030 0.930 . S
C1046 C1045 1.377 . S
C1046 C1047 1.379 . S
C1047 H1031 0.931 . S
C1047 C1041 1.383 . S
C1047 C1046 1.379 . S
H1048 C1042 0.959 . S
H1049 C1042 0.961 . S
H1050 C1042 0.960 . S
H1051 C1043 0.930 . S
H1052 C1044 0.929 . S
H1053 C1061 0.929 . S
H1054 C1063 0.930 . S
H1055 C1065 0.930 . S
H1056 C1068 0.929 . S
H1057 C1071 0.930 . S
H1058 C1073 0.960 . S
H1059 C1073 0.960 . S
H1060 C1073 0.960 . S
C1061 H1053 0.929 . S
C1061 C1062 1.377 . S
C1061 C1063 1.384 . S
C1062 C1061 1.377 . S
C1062 C1068 1.390 . S
C1063 H1054 0.930 . S
C1063 C1061 1.384 . S
C1063 C1064 1.372 . S
C1064 C1063 1.372 . S
C1064 C1065 1.400 . S
C1064 C1069 1.490 . S
C1065 H1055 0.930 . S
C1065 C1064 1.400 . S
C1065 C1068 1.386 . S
H1066 C1082 0.930 . S
H1067 C1083 0.931 . S
C1068 H1056 0.929 . S
C1068 C1062 1.390 . S
C1068 C1065 1.386 . S
C1069 C1064 1.490 . S
C1069 C1071 1.395 . S
C1069 C1072 1.403 . S
H1070 C1076 0.930 . S
C1071 H1057 0.930 . S
C1071 C1069 1.395 . S
C1071 C1074 1.403 . S
C1072 C1069 1.403 . S
C1072 C1073 1.524 . S
C1072 C1076 1.400 . S
C1073 H1058 0.960 . S
C1073 H1059 0.960 . S
C1073 H1060 0.960 . S
C1073 C1072 1.524 . S
C1074 C1071 1.403 . S
C1074 C1075 1.392 . S
C1074 C1078 1.495 . S
C1075 C1074 1.392 . S
C1075 C1076 1.385 . S
C1075 C1077 1.478 . S
C1076 H1070 0.930 . S
C1076 C1072 1.400 . S
C1076 C1075 1.385 . S
C1077 C1075 1.478 . S
C1077 C1079 1.381 . S
C1077 C1083 1.383 . S
C1078 C1074 1.495 . S
C1078 H1084 0.959 . S
C1078 H1085 0.961 . S
C1078 H1086 0.960 . S
C1079 C1077 1.381 . S
C1079 C1080 1.394 . S
C1079 H1087 0.930 . S
C1080 C1079 1.394 . S
C1080 C1081 1.383 . S
C1080 H1088 0.929 . S
C1081 C1080 1.383 . S
C1081 C1082 1.377 . S
C1082 H1066 0.930 . S
C1082 C1081 1.377 . S
C1082 C1083 1.379 . S
C1083 H1067 0.931 . S
C1083 C1077 1.383 . S
C1083 C1082 1.379 . S
H1084 C1078 0.959 . S
H1085 C1078 0.961 . S
H1086 C1078 0.960 . S
H1087 C1079 0.930 . S
H1088 C1080 0.929 . S
H1089 C1097 0.929 . S
H1090 C1099 0.930 . S
H1091 C1101 0.930 . S
H1092 C1104 0.929 . S
H1093 C1107 0.930 . S
H1094 C1109 0.960 . S
H1095 C1109 0.960 . S
H1096 C1109 0.960 . S
C1097 H1089 0.929 . S
C1097 C1098 1.377 . S
C1097 C1099 1.384 . S
C1098 C1097 1.377 . S
C1098 C1104 1.390 . S
C1099 H1090 0.930 . S
C1099 C1097 1.384 . S
C1099 C1100 1.372 . S
C1100 C1099 1.372 . S
C1100 C1101 1.400 . S
C1100 C1105 1.490 . S
C1101 H1091 0.930 . S
C1101 C1100 1.400 . S
C1101 C1104 1.386 . S
H1102 C1118 0.930 . S
H1103 C1119 0.931 . S
C1104 H1092 0.929 . S
C1104 C1098 1.390 . S
C1104 C1101 1.386 . S
C1105 C1100 1.490 . S
C1105 C1107 1.395 . S
C1105 C1108 1.403 . S
H1106 C1112 0.930 . S
C1107 H1093 0.930 . S
C1107 C1105 1.395 . S
C1107 C1110 1.403 . S
C1108 C1105 1.403 . S
C1108 C1109 1.524 . S
C1108 C1112 1.400 . S
C1109 H1094 0.960 . S
C1109 H1095 0.960 . S
C1109 H1096 0.960 . S
C1109 C1108 1.524 . S
C1110 C1107 1.403 . S
C1110 C1111 1.392 . S
C1110 C1114 1.495 . S
C1111 C1110 1.392 . S
C1111 C1112 1.385 . S
C1111 C1113 1.478 . S
C1112 H1106 0.930 . S
C1112 C1108 1.400 . S
C1112 C1111 1.385 . S
C1113 C1111 1.478 . S
C1113 C1115 1.381 . S
C1113 C1119 1.383 . S
C1114 C1110 1.495 . S
C1114 H1120 0.959 . S
C1114 H1121 0.961 . S
C1114 H1122 0.960 . S
C1115 C1113 1.381 . S
C1115 C1116 1.394 . S
C1115 H1123 0.930 . S
C1116 C1115 1.394 . S
C1116 C1117 1.383 . S
C1116 H1124 0.929 . S
C1117 C1116 1.383 . S
C1117 C1118 1.377 . S
C1118 H1102 0.930 . S
C1118 C1117 1.377 . S
C1118 C1119 1.379 . S
C1119 H1103 0.931 . S
C1119 C1113 1.383 . S
C1119 C1118 1.379 . S
H1120 C1114 0.959 . S
H1121 C1114 0.961 . S
H1122 C1114 0.960 . S
H1123 C1115 0.930 . S
H1124 C1116 0.929 . S
H1125 C1133 0.929 . S
H1126 C1135 0.930 . S
H1127 C1137 0.930 . S
H1128 C1140 0.929 . S
H1129 C1143 0.930 . S
H1130 C1145 0.960 . S
H1131 C1145 0.960 . S
H1132 C1145 0.960 . S
C1133 H1125 0.929 . S
C1133 C1134 1.377 . S
C1133 C1135 1.384 . S
C1134 C1133 1.377 . S
C1134 C1140 1.390 . S
C1135 H1126 0.930 . S
C1135 C1133 1.384 . S
C1135 C1136 1.372 . S
C1136 C1135 1.372 . S
C1136 C1137 1.400 . S
C1136 C1141 1.490 . S
C1137 H1127 0.930 . S
C1137 C1136 1.400 . S
C1137 C1140 1.386 . S
H1138 C1154 0.930 . S
H1139 C1155 0.931 . S
C1140 H1128 0.929 . S
C1140 C1134 1.390 . S
C1140 C1137 1.386 . S
C1141 C1136 1.490 . S
C1141 C1143 1.395 . S
C1141 C1144 1.403 . S
H1142 C1148 0.930 . S
C1143 H1129 0.930 . S
C1143 C1141 1.395 . S
C1143 C1146 1.403 . S
C1144 C1141 1.403 . S
C1144 C1145 1.524 . S
C1144 C1148 1.400 . S
C1145 H1130 0.960 . S
C1145 H1131 0.960 . S
C1145 H1132 0.960 . S
C1145 C1144 1.524 . S
C1146 C1143 1.403 . S
C1146 C1147 1.392 . S
C1146 C1150 1.495 . S
C1147 C1146 1.392 . S
C1147 C1148 1.385 . S
C1147 C1149 1.478 . S
C1148 H1142 0.930 . S
C1148 C1144 1.400 . S
C1148 C1147 1.385 . S
C1149 C1147 1.478 . S
C1149 C1151 1.381 . S
C1149 C1155 1.383 . S
C1150 C1146 1.495 . S
C1150 H1156 0.959 . S
C1150 H1157 0.961 . S
C1150 H1158 0.960 . S
C1151 C1149 1.381 . S
C1151 C1152 1.394 . S
C1151 H1159 0.930 . S
C1152 C1151 1.394 . S
C1152 C1153 1.383 . S
C1152 H1160 0.929 . S
C1153 C1152 1.383 . S
C1153 C1154 1.377 . S
C1154 H1138 0.930 . S
C1154 C1153 1.377 . S
C1154 C1155 1.379 . S
C1155 H1139 0.931 . S
C1155 C1149 1.383 . S
C1155 C1154 1.379 . S
H1156 C1150 0.959 . S
H1157 C1150 0.961 . S
H1158 C1150 0.960 . S
H1159 C1151 0.930 . S
H1160 C1152 0.929 . S
H1161 C1169 0.929 . S
H1162 C1171 0.930 . S
H1163 C1173 0.930 . S
H1164 C1176 0.929 . S
H1165 C1179 0.930 . S
H1166 C1181 0.960 . S
H1167 C1181 0.960 . S
H1168 C1181 0.960 . S
C1169 H1161 0.929 . S
C1169 C1170 1.377 . S
C1169 C1171 1.384 . S
C1170 C1169 1.377 . S
C1170 C1176 1.390 . S
C1171 H1162 0.930 . S
C1171 C1169 1.384 . S
C1171 C1172 1.372 . S
C1172 C1171 1.372 . S
C1172 C1173 1.400 . S
C1172 C1177 1.490 1_545 S
C1173 H1163 0.930 . S
C1173 C1172 1.400 . S
C1173 C1176 1.386 . S
H1174 C1190 0.930 . S
H1175 C1191 0.931 . S
C1176 H1164 0.929 . S
C1176 C1170 1.390 . S
C1176 C1173 1.386 . S
C1177 C1172 1.490 1_565 S
C1177 C1179 1.395 . S
C1177 C1180 1.403 . S
H1178 C1184 0.930 . S
C1179 H1165 0.930 . S
C1179 C1177 1.395 . S
C1179 C1182 1.403 . S
C1180 C1177 1.403 . S
C1180 C1181 1.524 . S
C1180 C1184 1.400 . S
C1181 H1166 0.960 . S
C1181 H1167 0.960 . S
C1181 H1168 0.960 . S
C1181 C1180 1.524 . S
C1182 C1179 1.403 . S
C1182 C1183 1.392 . S
C1182 C1186 1.495 . S
C1183 C1182 1.392 . S
C1183 C1184 1.385 . S
C1183 C1185 1.478 . S
C1184 H1178 0.930 . S
C1184 C1180 1.400 . S
C1184 C1183 1.385 . S
C1185 C1183 1.478 . S
C1185 C1187 1.381 . S
C1185 C1191 1.383 . S
C1186 C1182 1.495 . S
C1186 H1192 0.959 . S
C1186 H1193 0.961 . S
C1186 H1194 0.960 . S
C1187 C1185 1.381 . S
C1187 C1188 1.394 . S
C1187 H1195 0.930 . S
C1188 C1187 1.394 . S
C1188 C1189 1.383 . S
C1188 H1196 0.929 . S
C1189 C1188 1.383 . S
C1189 C1190 1.377 . S
C1190 H1174 0.930 . S
C1190 C1189 1.377 . S
C1190 C1191 1.379 . S
C1191 H1175 0.931 . S
C1191 C1185 1.383 . S
C1191 C1190 1.379 . S
H1192 C1186 0.959 . S
H1193 C1186 0.961 . S
H1194 C1186 0.960 . S
H1195 C1187 0.930 . S
H1196 C1188 0.929 . S
H1197 C1205 0.929 . S
H1198 C1207 0.930 . S
H1199 C1209 0.930 . S
H1200 C1212 0.929 . S
H1201 C1215 0.930 . S
H1202 C1217 0.960 . S
H1203 C1217 0.960 . S
H1204 C1217 0.960 . S
C1205 H1197 0.929 . S
C1205 C1206 1.377 . S
C1205 C1207 1.384 . S
C1206 C1205 1.377 . S
C1206 C1212 1.390 . S
C1207 H1198 0.930 . S
C1207 C1205 1.384 . S
C1207 C1208 1.391 . S
C1208 C1207 1.391 . S
C1208 C1209 1.435 . S
C1208 C1213 1.439 1_655 S
C1209 H1199 0.930 . S
C1209 C1208 1.435 . S
C1209 C1212 1.386 . S
H1210 C1226 0.930 . S
H1211 C1227 0.931 . S
C1212 H1200 0.929 . S
C1212 C1206 1.390 . S
C1212 C1209 1.386 . S
C1213 C1208 1.439 1_455 S
C1213 C1215 1.395 . S
C1213 C1216 1.403 . S
H1214 C1220 0.930 . S
C1215 H1201 0.930 . S
C1215 C1213 1.395 . S
C1215 C1218 1.403 . S
C1216 C1213 1.403 . S
C1216 C1217 1.524 . S
C1216 C1220 1.400 . S
C1217 H1202 0.960 . S
C1217 H1203 0.960 . S
C1217 H1204 0.960 . S
C1217 C1216 1.524 . S
C1218 C1215 1.403 . S
C1218 C1219 1.392 . S
C1218 C1222 1.495 . S
C1219 C1218 1.392 . S
C1219 C1220 1.385 . S
C1219 C1221 1.478 . S
C1220 H1214 0.930 . S
C1220 C1216 1.400 . S
C1220 C1219 1.385 . S
C1221 C1219 1.478 . S
C1221 C1223 1.381 . S
C1221 C1227 1.383 . S
C1222 C1218 1.495 . S
C1222 H1228 0.959 . S
C1222 H1229 0.961 . S
C1222 H1230 0.960 . S
C1223 C1221 1.381 . S
C1223 C1224 1.394 . S
C1223 H1231 0.930 . S
C1224 C1223 1.394 . S
C1224 C1225 1.383 . S
C1224 H1232 0.929 . S
C1225 C1224 1.383 . S
C1225 C1226 1.377 . S
C1226 H1210 0.930 . S
C1226 C1225 1.377 . S
C1226 C1227 1.379 . S
C1227 H1211 0.931 . S
C1227 C1221 1.383 . S
C1227 C1226 1.379 . S
H1228 C1222 0.959 . S
H1229 C1222 0.961 . S
H1230 C1222 0.960 . S
H1231 C1223 0.930 . S
H1232 C1224 0.929 . S
H1233 C1241 0.929 . S
H1234 C1243 0.930 . S
H1235 C1245 0.930 . S
H1236 C1248 0.929 . S
H1237 C1251 0.930 . S
H1238 C1253 0.960 . S
H1239 C1253 0.960 . S
H1240 C1253 0.960 . S
C1241 H1233 0.929 . S
C1241 C1242 1.377 . S
C1241 C1243 1.384 . S
C1242 C1241 1.377 . S
C1242 C1248 1.390 . S
C1243 H1234 0.930 . S
C1243 C1241 1.384 . S
C1243 C1244 1.372 . S
C1244 C1243 1.372 . S
C1244 C1245 1.400 . S
C1244 C1249 1.490 . S
C1245 H1235 0.930 . S
C1245 C1244 1.400 . S
C1245 C1248 1.386 . S
H1246 C1262 0.930 . S
H1247 C1263 0.931 . S
C1248 H1236 0.929 . S
C1248 C1242 1.390 . S
C1248 C1245 1.386 . S
C1249 C1244 1.490 . S
C1249 C1251 1.395 . S
C1249 C1252 1.403 . S
H1250 C1256 0.930 . S
C1251 H1237 0.930 . S
C1251 C1249 1.395 . S
C1251 C1254 1.403 . S
C1252 C1249 1.403 . S
C1252 C1253 1.524 . S
C1252 C1256 1.400 . S
C1253 H1238 0.960 . S
C1253 H1239 0.960 . S
C1253 H1240 0.960 . S
C1253 C1252 1.524 . S
C1254 C1251 1.403 . S
C1254 C1255 1.392 . S
C1254 C1258 1.495 . S
C1255 C1254 1.392 . S
C1255 C1256 1.385 . S
C1255 C1257 1.478 . S
C1256 H1250 0.930 . S
C1256 C1252 1.400 . S
C1256 C1255 1.385 . S
C1257 C1255 1.478 . S
C1257 C1259 1.381 . S
C1257 C1263 1.383 . S
C1258 C1254 1.495 . S
C1258 H1264 0.959 . S
C1258 H1265 0.961 . S
C1258 H1266 0.960 . S
C1259 C1257 1.381 . S
C1259 C1260 1.394 . S
C1259 H1267 0.930 . S
C1260 C1259 1.394 . S
C1260 C1261 1.383 . S
C1260 H1268 0.929 . S
C1261 C1260 1.383 . S
C1261 C1262 1.377 . S
C1262 H1246 0.930 . S
C1262 C1261 1.377 . S
C1262 C1263 1.379 . S
C1263 H1247 0.931 . S
C1263 C1257 1.383 . S
C1263 C1262 1.379 . S
H1264 C1258 0.959 . S
H1265 C1258 0.961 . S
H1266 C1258 0.960 . S
H1267 C1259 0.930 . S
H1268 C1260 0.929 . S
H1269 C1277 0.929 . S
H1270 C1279 0.930 . S
H1271 C1281 0.930 . S
H1272 C1284 0.929 . S
H1273 C1287 0.930 . S
H1274 C1289 0.960 . S
H1275 C1289 0.960 . S
H1276 C1289 0.960 . S
C1277 H1269 0.929 . S
C1277 C1278 1.377 . S
C1277 C1279 1.384 . S
C1278 C1277 1.377 . S
C1278 C1284 1.390 . S
C1279 H1270 0.930 . S
C1279 C1277 1.384 . S
C1279 C1280 1.372 . S
C1280 C1279 1.372 . S
C1280 C1281 1.400 . S
C1280 C1285 1.490 . S
C1281 H1271 0.930 . S
C1281 C1280 1.400 . S
C1281 C1284 1.386 . S
H1282 C1298 0.930 . S
H1283 C1299 0.931 . S
C1284 H1272 0.929 . S
C1284 C1278 1.390 . S
C1284 C1281 1.386 . S
C1285 C1280 1.490 . S
C1285 C1287 1.395 . S
C1285 C1288 1.403 . S
H1286 C1292 0.930 . S
C1287 H1273 0.930 . S
C1287 C1285 1.395 . S
C1287 C1290 1.403 . S
C1288 C1285 1.403 . S
C1288 C1289 1.524 . S
C1288 C1292 1.400 . S
C1289 H1274 0.960 . S
C1289 H1275 0.960 . S
C1289 H1276 0.960 . S
C1289 C1288 1.524 . S
C1290 C1287 1.403 . S
C1290 C1291 1.392 . S
C1290 C1294 1.495 . S
C1291 C1290 1.392 . S
C1291 C1292 1.385 . S
C1291 C1293 1.478 . S
C1292 H1286 0.930 . S
C1292 C1288 1.400 . S
C1292 C1291 1.385 . S
C1293 C1291 1.478 . S
C1293 C1295 1.381 . S
C1293 C1299 1.383 . S
C1294 C1290 1.495 . S
C1294 H1300 0.959 . S
C1294 H1301 0.961 . S
C1294 H1302 0.960 . S
C1295 C1293 1.381 . S
C1295 C1296 1.394 . S
C1295 H1303 0.930 . S
C1296 C1295 1.394 . S
C1296 C1297 1.383 . S
C1296 H1304 0.929 . S
C1297 C1296 1.383 . S
C1297 C1298 1.377 . S
C1298 H1282 0.930 . S
C1298 C1297 1.377 . S
C1298 C1299 1.379 . S
C1299 H1283 0.931 . S
C1299 C1293 1.383 . S
C1299 C1298 1.379 . S
H1300 C1294 0.959 . S
H1301 C1294 0.961 . S
H1302 C1294 0.960 . S
H1303 C1295 0.930 . S
H1304 C1296 0.929 . S
H1305 C1313 0.929 . S
H1306 C1315 0.930 . S
H1307 C1317 0.930 . S
H1308 C1320 0.929 . S
H1309 C1323 0.930 . S
H1310 C1325 0.960 . S
H1311 C1325 0.960 . S
H1312 C1325 0.960 . S
C1313 H1305 0.929 . S
C1313 C1314 1.377 . S
C1313 C1315 1.384 . S
C1314 C1313 1.377 . S
C1314 C1320 1.390 . S
C1315 H1306 0.930 . S
C1315 C1313 1.384 . S
C1315 C1316 1.372 . S
C1316 C1315 1.372 . S
C1316 C1317 1.400 . S
C1316 C1321 1.490 . S
C1317 H1307 0.930 . S
C1317 C1316 1.400 . S
C1317 C1320 1.386 . S
H1318 C1334 0.930 . S
H1319 C1335 0.931 . S
C1320 H1308 0.929 . S
C1320 C1314 1.390 . S
C1320 C1317 1.386 . S
C1321 C1316 1.490 . S
C1321 C1323 1.395 . S
C1321 C1324 1.403 . S
H1322 C1328 0.930 . S
C1323 H1309 0.930 . S
C1323 C1321 1.395 . S
C1323 C1326 1.403 . S
C1324 C1321 1.403 . S
C1324 C1325 1.524 . S
C1324 C1328 1.400 . S
C1325 H1310 0.960 . S
C1325 H1311 0.960 . S
C1325 H1312 0.960 . S
C1325 C1324 1.524 . S
C1326 C1323 1.403 . S
C1326 C1327 1.392 . S
C1326 C1330 1.495 . S
C1327 C1326 1.392 . S
C1327 C1328 1.385 . S
C1327 C1329 1.478 . S
C1328 H1322 0.930 . S
C1328 C1324 1.400 . S
C1328 C1327 1.385 . S
C1329 C1327 1.478 . S
C1329 C1331 1.381 . S
C1329 C1335 1.383 . S
C1330 C1326 1.495 . S
C1330 H1336 0.959 . S
C1330 H1337 0.961 . S
C1330 H1338 0.960 . S
C1331 C1329 1.381 . S
C1331 C1332 1.394 . S
C1331 H1339 0.930 . S
C1332 C1331 1.394 . S
C1332 C1333 1.383 . S
C1332 H1340 0.929 . S
C1333 C1332 1.383 . S
C1333 C1334 1.377 . S
C1334 H1318 0.930 . S
C1334 C1333 1.377 . S
C1334 C1335 1.379 . S
C1335 H1319 0.931 . S
C1335 C1329 1.383 . S
C1335 C1334 1.379 . S
H1336 C1330 0.959 . S
H1337 C1330 0.961 . S
H1338 C1330 0.960 . S
H1339 C1331 0.930 . S
H1340 C1332 0.929 . S
H1341 C1349 0.929 . S
H1342 C1351 0.930 . S
H1343 C1353 0.930 . S
H1344 C1356 0.929 . S
H1345 C1359 0.930 . S
H1346 C1361 0.960 . S
H1347 C1361 0.960 . S
H1348 C1361 0.960 . S
C1349 H1341 0.929 . S
C1349 C1350 1.377 . S
C1349 C1351 1.384 . S
C1350 C1349 1.377 . S
C1350 C1356 1.390 . S
C1351 H1342 0.930 . S
C1351 C1349 1.384 . S
C1351 C1352 1.372 . S
C1352 C1351 1.372 . S
C1352 C1353 1.400 . S
C1352 C1357 1.490 . S
C1353 H1343 0.930 . S
C1353 C1352 1.400 . S
C1353 C1356 1.386 . S
H1354 C1370 0.930 . S
H1355 C1371 0.931 . S
C1356 H1344 0.929 . S
C1356 C1350 1.390 . S
C1356 C1353 1.386 . S
C1357 C1352 1.490 . S
C1357 C1359 1.395 . S
C1357 C1360 1.403 . S
H1358 C1364 0.930 . S
C1359 H1345 0.930 . S
C1359 C1357 1.395 . S
C1359 C1362 1.403 . S
C1360 C1357 1.403 . S
C1360 C1361 1.524 . S
C1360 C1364 1.400 . S
C1361 H1346 0.960 . S
C1361 H1347 0.960 . S
C1361 H1348 0.960 . S
C1361 C1360 1.524 . S
C1362 C1359 1.403 . S
C1362 C1363 1.392 . S
C1362 C1366 1.495 . S
C1363 C1362 1.392 . S
C1363 C1364 1.385 . S
C1363 C1365 1.478 . S
C1364 H1358 0.930 . S
C1364 C1360 1.400 . S
C1364 C1363 1.385 . S
C1365 C1363 1.478 . S
C1365 C1367 1.381 . S
C1365 C1371 1.383 . S
C1366 C1362 1.495 . S
C1366 H1372 0.959 . S
C1366 H1373 0.961 . S
C1366 H1374 0.960 . S
C1367 C1365 1.381 . S
C1367 C1368 1.394 . S
C1367 H1375 0.930 . S
C1368 C1367 1.394 . S
C1368 C1369 1.383 . S
C1368 H1376 0.929 . S
C1369 C1368 1.383 . S
C1369 C1370 1.377 . S
C1370 H1354 0.930 . S
C1370 C1369 1.377 . S
C1370 C1371 1.379 . S
C1371 H1355 0.931 . S
C1371 C1365 1.383 . S
C1371 C1370 1.379 . S
H1372 C1366 0.959 . S
H1373 C1366 0.961 . S
H1374 C1366 0.960 . S
H1375 C1367 0.930 . S
H1376 C1368 0.929 . S
H1377 C1385 0.929 . S
H1378 C1387 0.930 . S
H1379 C1389 0.930 . S
H1380 C1392 0.929 . S
H1381 C1395 0.930 . S
H1382 C1397 0.930 1_545 S
H1383 C1397 0.959 . S
H1384 C1397 0.981 . S
C1385 H1377 0.929 . S
C1385 C1386 1.377 . S
C1385 C1387 1.384 . S
C1386 C1385 1.377 . S
C1386 C1392 1.390 . S
C1387 H1378 0.930 . S
C1387 C1385 1.384 . S
C1387 C1388 1.372 . S
C1388 C1387 1.372 . S
C1388 C1389 1.400 . S
C1388 C1393 1.490 . S
C1389 H1379 0.930 . S
C1389 C1388 1.400 . S
C1389 C1392 1.386 . S
H1390 C1406 0.930 . S
H1391 C1407 0.931 . S
C1392 H1380 0.929 . S
C1392 C1386 1.390 . S
C1392 C1389 1.386 . S
C1393 C1388 1.490 . S
C1393 C1395 1.395 . S
C1393 C1396 1.403 1_565 S
H1394 C1400 0.930 . S
C1395 H1381 0.930 . S
C1395 C1393 1.395 . S
C1395 C1398 1.403 1_565 S
C1396 C1393 1.403 1_545 S
C1396 C1397 1.535 1_545 S
C1396 C1400 1.400 . S
C1397 H1382 0.930 1_565 S
C1397 H1383 0.959 . S
C1397 H1384 0.981 . S
C1397 C1396 1.535 1_565 S
C1398 C1395 1.403 1_545 S
C1398 C1399 1.392 . S
C1398 C1402 1.495 . S
C1399 C1398 1.392 . S
C1399 C1400 1.385 . S
C1399 C1401 1.478 . S
C1400 H1394 0.930 . S
C1400 C1396 1.400 . S
C1400 C1399 1.385 . S
C1401 C1399 1.478 . S
C1401 C1403 1.381 . S
C1401 C1407 1.383 . S
C1402 C1398 1.495 . S
C1402 H1408 0.959 1_545 S
C1402 H1409 0.961 . S
C1402 H1410 0.960 . S
C1403 C1401 1.381 . S
C1403 C1404 1.394 . S
C1403 H1411 0.930 . S
C1404 C1403 1.394 . S
C1404 C1405 1.383 . S
C1404 H1412 0.929 . S
C1405 C1404 1.383 . S
C1405 C1406 1.377 . S
C1406 H1390 0.930 . S
C1406 C1405 1.377 . S
C1406 C1407 1.379 . S
C1407 H1391 0.931 . S
C1407 C1401 1.383 . S
C1407 C1406 1.379 . S
H1408 C1402 0.959 1_565 S
H1409 C1402 0.961 . S
H1410 C1402 0.960 . S
H1411 C1403 0.930 . S
H1412 C1404 0.929 . S
H1413 C1421 0.929 . S
H1414 C1423 0.930 . S
H1415 C1425 0.930 . S
H1416 C1428 0.929 . S
H1417 C1431 0.930 . S
H1418 C1433 0.939 1_655 S
H1419 C1433 0.960 . S
H1420 C1433 0.960 . S
C1421 H1413 0.929 . S
C1421 C1422 1.377 . S
C1421 C1423 1.384 . S
C1422 C1421 1.377 . S
C1422 C1428 1.390 . S
C1423 H1414 0.930 . S
C1423 C1421 1.384 . S
C1423 C1424 1.372 . S
C1424 C1423 1.372 . S
C1424 C1425 1.400 . S
C1424 C1429 1.490 . S
C1425 H1415 0.930 . S
C1425 C1424 1.400 . S
C1425 C1428 1.386 . S
H1426 C1442 0.930 . S
H1427 C1443 0.931 . S
C1428 H1416 0.929 . S
C1428 C1422 1.390 . S
C1428 C1425 1.386 . S
C1429 C1424 1.490 . S
C1429 C1431 1.395 . S
C1429 C1432 1.403 . S
H1430 C1436 0.930 . S
C1431 H1417 0.930 . S
C1431 C1429 1.395 . S
C1431 C1434 1.403 . S
C1432 C1429 1.403 . S
C1432 C1433 1.524 . S
C1432 C1436 1.400 1_455 S
C1433 H1418 0.939 1_455 S
C1433 H1419 0.960 . S
C1433 H1420 0.960 . S
C1433 C1432 1.524 . S
C1434 C1431 1.403 . S
C1434 C1435 1.392 1_455 S
C1434 C1438 1.495 . S
C1435 C1434 1.392 1_655 S
C1435 C1436 1.385 . S
C1435 C1437 1.478 . S
C1436 H1430 0.930 . S
C1436 C1432 1.400 1_655 S
C1436 C1435 1.385 . S
C1437 C1435 1.478 . S
C1437 C1439 1.381 . S
C1437 C1443 1.383 . S
C1438 C1434 1.495 . S
C1438 H1444 0.959 . S
C1438 H1445 0.961 1_455 S
C1438 H1446 0.960 1_455 S
C1439 C1437 1.381 . S
C1439 C1440 1.394 . S
C1439 H1447 0.930 . S
C1440 C1439 1.394 . S
C1440 C1441 1.383 . S
C1440 H1448 0.929 . S
C1441 C1440 1.383 . S
C1441 C1442 1.377 . S
C1442 H1426 0.930 . S
C1442 C1441 1.377 . S
C1442 C1443 1.379 . S
C1443 H1427 0.931 . S
C1443 C1437 1.383 . S
C1443 C1442 1.379 . S
H1444 C1438 0.959 . S
H1445 C1438 0.961 1_655 S
H1446 C1438 0.960 1_655 S
H1447 C1439 0.930 . S
H1448 C1440 0.929 . S
H1449 C1457 0.929 . S
H1450 C1459 0.930 . S
H1451 C1461 0.930 . S
H1452 C1464 0.929 . S
H1453 C1467 0.930 . S
H1454 C1469 0.960 . S
H1455 C1469 0.960 . S
H1456 C1469 0.960 . S
C1457 H1449 0.929 . S
C1457 C1458 1.377 . S
C1457 C1459 1.384 . S
C1458 C1457 1.377 . S
C1458 C1464 1.390 . S
C1459 H1450 0.930 . S
C1459 C1457 1.384 . S
C1459 C1460 1.372 . S
C1460 C1459 1.372 . S
C1460 C1461 1.400 . S
C1460 C1465 1.490 . S
C1461 H1451 0.930 . S
C1461 C1460 1.400 . S
C1461 C1464 1.386 . S
H1462 C1478 0.930 . S
H1463 C1479 0.931 . S
C1464 H1452 0.929 . S
C1464 C1458 1.390 . S
C1464 C1461 1.386 . S
C1465 C1460 1.490 . S
C1465 C1467 1.395 . S
C1465 C1468 1.403 . S
H1466 C1472 0.930 . S
C1467 H1453 0.930 . S
C1467 C1465 1.395 . S
C1467 C1470 1.403 . S
C1468 C1465 1.403 . S
C1468 C1469 1.524 . S
C1468 C1472 1.400 . S
C1469 H1454 0.960 . S
C1469 H1455 0.960 . S
C1469 H1456 0.960 . S
C1469 C1468 1.524 . S
C1470 C1467 1.403 . S
C1470 C1471 1.392 . S
C1470 C1474 1.495 . S
C1471 C1470 1.392 . S
C1471 C1472 1.385 . S
C1471 C1473 1.478 . S
C1472 H1466 0.930 . S
C1472 C1468 1.400 . S
C1472 C1471 1.385 . S
C1473 C1471 1.478 . S
C1473 C1475 1.381 . S
C1473 C1479 1.383 . S
C1474 C1470 1.495 . S
C1474 H1480 0.959 . S
C1474 H1481 0.961 . S
C1474 H1482 0.960 . S
C1475 C1473 1.381 . S
C1475 C1476 1.394 . S
C1475 H1483 0.930 . S
C1476 C1475 1.394 . S
C1476 C1477 1.383 . S
C1476 H1484 0.929 . S
C1477 C1476 1.383 . S
C1477 C1478 1.377 . S
C1478 H1462 0.930 . S
C1478 C1477 1.377 . S
C1478 C1479 1.379 . S
C1479 H1463 0.931 . S
C1479 C1473 1.383 . S
C1479 C1478 1.379 . S
H1480 C1474 0.959 . S
H1481 C1474 0.961 . S
H1482 C1474 0.960 . S
H1483 C1475 0.930 . S
H1484 C1476 0.929 . S
H1485 C1493 0.929 . S
H1486 C1495 0.930 . S
H1487 C1497 0.930 . S
H1488 C1500 0.929 . S
H1489 C1503 0.930 . S
H1490 C1505 0.960 . S
H1491 C1505 0.960 1_455 S
H1492 C1505 0.960 1_455 S
C1493 H1485 0.929 . S
C1493 C1494 1.377 . S
C1493 C1495 1.384 . S
C1494 C1493 1.377 . S
C1494 C1500 1.390 . S
C1495 H1486 0.930 . S
C1495 C1493 1.384 . S
C1495 C1496 1.372 . S
C1496 C1495 1.372 . S
C1496 C1497 1.400 . S
C1496 C1501 1.490 1_455 S
C1497 H1487 0.930 . S
C1497 C1496 1.400 . S
C1497 C1500 1.386 . S
H1498 C1514 0.930 . S
H1499 C1515 0.931 . S
C1500 H1488 0.929 . S
C1500 C1494 1.390 . S
C1500 C1497 1.386 . S
C1501 C1496 1.490 1_655 S
C1501 C1503 1.395 . S
C1501 C1504 1.403 . S
H1502 C1508 0.930 . S
C1503 H1489 0.930 . S
C1503 C1501 1.395 . S
C1503 C1506 1.403 . S
C1504 C1501 1.403 . S
C1504 C1505 1.524 . S
C1504 C1508 1.400 . S
C1505 H1490 0.960 . S
C1505 H1491 0.960 1_655 S
C1505 H1492 0.960 1_655 S
C1505 C1504 1.524 . S
C1506 C1503 1.403 . S
C1506 C1507 1.392 . S
C1506 C1510 1.495 . S
C1507 C1506 1.392 . S
C1507 C1508 1.385 . S
C1507 C1509 1.478 . S
C1508 H1502 0.930 . S
C1508 C1504 1.400 . S
C1508 C1507 1.385 . S
C1509 C1507 1.478 . S
C1509 C1511 1.381 . S
C1509 C1515 1.383 . S
C1510 C1506 1.495 . S
C1510 H1516 0.959 . S
C1510 H1517 0.961 . S
C1510 H1518 0.960 . S
C1511 C1509 1.381 . S
C1511 C1512 1.394 . S
C1511 H1519 0.930 . S
C1512 C1511 1.394 . S
C1512 C1513 1.383 . S
C1512 H1520 0.929 . S
C1513 C1512 1.383 . S
C1513 C1514 1.377 . S
C1514 H1498 0.930 . S
C1514 C1513 1.377 . S
C1514 C1515 1.379 . S
C1515 H1499 0.931 . S
C1515 C1509 1.383 . S
C1515 C1514 1.379 . S
H1516 C1510 0.959 . S
H1517 C1510 0.961 . S
H1518 C1510 0.960 . S
H1519 C1511 0.930 . S
H1520 C1512 0.929 . S
H1521 C1529 0.929 . S
H1522 C1531 0.930 . S
H1523 C1533 0.930 . S
H1524 C1536 0.929 . S
H1525 C1539 0.930 . S
H1526 C1541 0.960 . S
H1527 C1541 0.960 . S
H1528 C1541 0.960 . S
C1529 H1521 0.929 . S
C1529 C1530 1.377 . S
C1529 C1531 1.384 . S
C1530 C1529 1.377 . S
C1530 C1536 1.390 . S
C1531 H1522 0.930 . S
C1531 C1529 1.384 . S
C1531 C1532 1.372 . S
C1532 C1531 1.372 . S
C1532 C1533 1.400 . S
C1532 C1537 1.490 . S
C1533 H1523 0.930 . S
C1533 C1532 1.400 . S
C1533 C1536 1.386 . S
H1534 C1550 0.930 . S
H1535 C1551 0.931 . S
C1536 H1524 0.929 . S
C1536 C1530 1.390 . S
C1536 C1533 1.386 . S
C1537 C1532 1.490 . S
C1537 C1539 1.395 . S
C1537 C1540 1.403 . S
H1538 C1544 0.930 . S
C1539 H1525 0.930 . S
C1539 C1537 1.395 . S
C1539 C1542 1.403 . S
C1540 C1537 1.403 . S
C1540 C1541 1.524 . S
C1540 C1544 1.400 . S
C1541 H1526 0.960 . S
C1541 H1527 0.960 . S
C1541 H1528 0.960 . S
C1541 C1540 1.524 . S
C1542 C1539 1.403 . S
C1542 C1543 1.392 . S
C1542 C1546 1.495 . S
C1543 C1542 1.392 . S
C1543 C1544 1.385 . S
C1543 C1545 1.478 . S
C1544 H1538 0.930 . S
C1544 C1540 1.400 . S
C1544 C1543 1.385 . S
C1545 C1543 1.478 . S
C1545 C1547 1.381 . S
C1545 C1551 1.383 . S
C1546 C1542 1.495 . S
C1546 H1552 0.959 . S
C1546 H1553 0.961 . S
C1546 H1554 0.960 . S
C1547 C1545 1.381 . S
C1547 C1548 1.394 . S
C1547 H1555 0.930 . S
C1548 C1547 1.394 . S
C1548 C1549 1.383 . S
C1548 H1556 0.929 . S
C1549 C1548 1.383 . S
C1549 C1550 1.377 . S
C1550 H1534 0.930 . S
C1550 C1549 1.377 . S
C1550 C1551 1.379 . S
C1551 H1535 0.931 . S
C1551 C1545 1.383 . S
C1551 C1550 1.379 . S
H1552 C1546 0.959 . S
H1553 C1546 0.961 . S
H1554 C1546 0.960 . S
H1555 C1547 0.930 . S
H1556 C1548 0.929 . S
H1557 C1565 0.929 . S
H1558 C1567 0.930 . S
H1559 C1569 0.930 1_545 S
H1560 C1572 0.929 . S
H1561 C1575 0.930 . S
H1562 C1577 0.960 . S
H1563 C1577 0.960 . S
H1564 C1577 0.960 . S
C1565 H1557 0.929 . S
C1565 C1566 1.377 . S
C1565 C1567 1.384 . S
C1566 C1565 1.377 . S
C1566 C1572 1.390 . S
C1567 H1558 0.930 . S
C1567 C1565 1.384 . S
C1567 C1568 1.372 1_565 S
C1568 C1567 1.372 1_545 S
C1568 C1569 1.400 1_545 S
C1568 C1573 1.490 . S
C1569 H1559 0.930 1_565 S
C1569 C1568 1.400 1_565 S
C1569 C1572 1.386 . S
H1570 C1586 0.930 . S
H1571 C1587 0.931 . S
C1572 H1560 0.929 . S
C1572 C1566 1.390 . S
C1572 C1569 1.386 . S
C1573 C1568 1.490 . S
C1573 C1575 1.395 . S
C1573 C1576 1.403 . S
H1574 C1580 0.930 . S
C1575 H1561 0.930 . S
C1575 C1573 1.395 . S
C1575 C1578 1.403 . S
C1576 C1573 1.403 . S
C1576 C1577 1.524 . S
C1576 C1580 1.400 . S
C1577 H1562 0.960 . S
C1577 H1563 0.960 . S
C1577 H1564 0.960 . S
C1577 C1576 1.524 . S
C1578 C1575 1.403 . S
C1578 C1579 1.392 . S
C1578 C1582 1.495 . S
C1579 C1578 1.392 . S
C1579 C1580 1.385 . S
C1579 C1581 1.478 . S
C1580 H1574 0.930 . S
C1580 C1576 1.400 . S
C1580 C1579 1.385 . S
C1581 C1579 1.478 . S
C1581 C1583 1.381 . S
C1581 C1587 1.383 . S
C1582 C1578 1.495 . S
C1582 H1588 0.959 . S
C1582 H1589 0.961 . S
C1582 H1590 0.960 . S
C1583 C1581 1.381 . S
C1583 C1584 1.394 . S
C1583 H1591 0.930 . S
C1584 C1583 1.394 . S
C1584 C1585 1.383 . S
C1584 H1592 0.929 . S
C1585 C1584 1.383 . S
C1585 C1586 1.377 . S
C1586 H1570 0.930 . S
C1586 C1585 1.377 . S
C1586 C1587 1.379 . S
C1587 H1571 0.931 . S
C1587 C1581 1.383 . S
C1587 C1586 1.379 . S
H1588 C1582 0.959 . S
H1589 C1582 0.961 . S
H1590 C1582 0.960 . S
H1591 C1583 0.930 . S
H1592 C1584 0.929 . S
H1593 C1601 0.929 . S
H1594 C1603 0.930 . S
H1595 C1605 0.930 . S
H1596 C1608 0.929 . S
H1597 C1611 0.930 . S
H1598 C1613 0.960 . S
H1599 C1613 0.960 . S
H1600 C1613 0.960 . S
C1601 H1593 0.929 . S
C1601 C1602 1.377 . S
C1601 C1603 1.384 . S
C1602 C1601 1.377 . S
C1602 C1608 1.390 . S
C1603 H1594 0.930 . S
C1603 C1601 1.384 . S
C1603 C1604 1.372 . S
C1604 C1603 1.372 . S
C1604 C1605 1.400 . S
C1604 C1609 1.490 . S
C1605 H1595 0.930 . S
C1605 C1604 1.400 . S
C1605 C1608 1.386 . S
H1606 C1622 0.930 . S
H1607 C1623 0.931 . S
C1608 H1596 0.929 . S
C1608 C1602 1.390 . S
C1608 C1605 1.386 . S
C1609 C1604 1.490 . S
C1609 C1611 1.395 . S
C1609 C1612 1.403 . S
H1610 C1616 0.930 . S
C1611 H1597 0.930 . S
C1611 C1609 1.395 . S
C1611 C1614 1.403 . S
C1612 C1609 1.403 . S
C1612 C1613 1.524 . S
C1612 C1616 1.400 . S
C1613 H1598 0.960 . S
C1613 H1599 0.960 . S
C1613 H1600 0.960 . S
C1613 C1612 1.524 . S
C1614 C1611 1.403 . S
C1614 C1615 1.392 . S
C1614 C1618 1.495 . S
C1615 C1614 1.392 . S
C1615 C1616 1.385 . S
C1615 C1617 1.478 . S
C1616 H1610 0.930 . S
C1616 C1612 1.400 . S
C1616 C1615 1.385 . S
C1617 C1615 1.478 . S
C1617 C1619 1.381 . S
C1617 C1623 1.383 . S
C1618 C1614 1.495 . S
C1618 H1624 0.959 . S
C1618 H1625 0.961 . S
C1618 H1626 0.960 . S
C1619 C1617 1.381 . S
C1619 C1620 1.394 . S
C1619 H1627 0.930 . S
C1620 C1619 1.394 . S
C1620 C1621 1.383 . S
C1620 H1628 0.929 . S
C1621 C1620 1.383 . S
C1621 C1622 1.377 . S
C1622 H1606 0.930 . S
C1622 C1621 1.377 . S
C1622 C1623 1.379 . S
C1623 H1607 0.931 . S
C1623 C1617 1.383 . S
C1623 C1622 1.379 . S
H1624 C1618 0.959 . S
H1625 C1618 0.961 . S
H1626 C1618 0.960 . S
H1627 C1619 0.930 . S
H1628 C1620 0.929 . S
H1629 C1637 0.929 . S
H1630 C1639 0.930 . S
H1631 C1641 0.930 . S
H1632 C1644 0.929 . S
H1633 C1647 0.930 . S
H1634 C1649 0.960 . S
H1635 C1649 0.960 . S
H1636 C1649 0.960 . S
C1637 H1629 0.929 . S
C1637 C1638 1.377 . S
C1637 C1639 1.384 . S
C1638 C1637 1.377 . S
C1638 C1644 1.390 . S
C1639 H1630 0.930 . S
C1639 C1637 1.384 . S
C1639 C1640 1.372 . S
C1640 C1639 1.372 . S
C1640 C1641 1.400 . S
C1640 C1645 1.490 . S
C1641 H1631 0.930 . S
C1641 C1640 1.400 . S
C1641 C1644 1.386 . S
H1642 C1658 0.930 . S
H1643 C1659 0.931 . S
C1644 H1632 0.929 . S
C1644 C1638 1.390 . S
C1644 C1641 1.386 . S
C1645 C1640 1.490 . S
C1645 C1647 1.395 . S
C1645 C1648 1.403 . S
H1646 C1652 0.930 . S
C1647 H1633 0.930 . S
C1647 C1645 1.395 . S
C1647 C1650 1.403 . S
C1648 C1645 1.403 . S
C1648 C1649 1.524 . S
C1648 C1652 1.400 . S
C1649 H1634 0.960 . S
C1649 H1635 0.960 . S
C1649 H1636 0.960 . S
C1649 C1648 1.524 . S
C1650 C1647 1.403 . S
C1650 C1651 1.392 . S
C1650 C1654 1.495 . S
C1651 C1650 1.392 . S
C1651 C1652 1.385 . S
C1651 C1653 1.478 . S
C1652 H1646 0.930 . S
C1652 C1648 1.400 . S
C1652 C1651 1.385 . S
C1653 C1651 1.478 . S
C1653 C1655 1.381 . S
C1653 C1659 1.383 . S
C1654 C1650 1.495 . S
C1654 H1660 0.959 . S
C1654 H1661 0.961 . S
C1654 H1662 0.960 . S
C1655 C1653 1.381 . S
C1655 C1656 1.394 . S
C1655 H1663 0.930 . S
C1656 C1655 1.394 . S
C1656 C1657 1.383 . S
C1656 H1664 0.929 . S
C1657 C1656 1.383 . S
C1657 C1658 1.377 . S
C1658 H1642 0.930 . S
C1658 C1657 1.377 . S
C1658 C1659 1.379 . S
C1659 H1643 0.931 . S
C1659 C1653 1.383 . S
C1659 C1658 1.379 . S
H1660 C1654 0.959 . S
H1661 C1654 0.961 . S
H1662 C1654 0.960 . S
H1663 C1655 0.930 . S
H1664 C1656 0.929 . S
H1665 C1673 0.929 . S
H1666 C1675 0.930 . S
H1667 C1677 0.930 . S
H1668 C1680 0.929 . S
H1669 C1683 0.930 . S
H1670 C1685 0.960 . S
H1671 C1685 0.960 . S
H1672 C1685 0.960 . S
C1673 H1665 0.929 . S
C1673 C1674 1.377 . S
C1673 C1675 1.384 . S
C1674 C1673 1.377 . S
C1674 C1680 1.390 . S
C1675 H1666 0.930 . S
C1675 C1673 1.384 . S
C1675 C1676 1.372 . S
C1676 C1675 1.372 . S
C1676 C1677 1.400 . S
C1676 C1681 1.490 . S
C1677 H1667 0.930 . S
C1677 C1676 1.400 . S
C1677 C1680 1.386 . S
H1678 C1694 0.930 . S
H1679 C1695 0.931 . S
C1680 H1668 0.929 . S
C1680 C1674 1.390 . S
C1680 C1677 1.386 . S
C1681 C1676 1.490 . S
C1681 C1683 1.395 . S
C1681 C1684 1.403 . S
H1682 C1688 0.930 . S
C1683 H1669 0.930 . S
C1683 C1681 1.395 . S
C1683 C1686 1.403 . S
C1684 C1681 1.403 . S
C1684 C1685 1.524 . S
C1684 C1688 1.400 . S
C1685 H1670 0.960 . S
C1685 H1671 0.960 . S
C1685 H1672 0.960 . S
C1685 C1684 1.524 . S
C1686 C1683 1.403 . S
C1686 C1687 1.392 . S
C1686 C1690 1.495 . S
C1687 C1686 1.392 . S
C1687 C1688 1.385 . S
C1687 C1689 1.478 . S
C1688 H1682 0.930 . S
C1688 C1684 1.400 . S
C1688 C1687 1.385 . S
C1689 C1687 1.478 . S
C1689 C1691 1.381 . S
C1689 C1695 1.383 . S
C1690 C1686 1.495 . S
C1690 H1696 0.959 . S
C1690 H1697 0.961 . S
C1690 H1698 0.960 . S
C1691 C1689 1.381 . S
C1691 C1692 1.394 . S
C1691 H1699 0.930 . S
C1692 C1691 1.394 . S
C1692 C1693 1.383 . S
C1692 H1700 0.929 . S
C1693 C1692 1.383 . S
C1693 C1694 1.377 . S
C1694 H1678 0.930 . S
C1694 C1693 1.377 . S
C1694 C1695 1.379 . S
C1695 H1679 0.931 . S
C1695 C1689 1.383 . S
C1695 C1694 1.379 . S
H1696 C1690 0.959 . S
H1697 C1690 0.961 . S
H1698 C1690 0.960 . S
H1699 C1691 0.930 . S
H1700 C1692 0.929 . S
H1701 C1709 0.929 . S
H1702 C1711 0.930 . S
H1703 C1713 0.930 . S
H1704 C1716 0.929 . S
H1705 C1719 0.930 . S
H1706 C1721 0.960 . S
H1707 C1721 0.960 . S
H1708 C1721 0.960 . S
C1709 H1701 0.929 . S
C1709 C1710 1.377 . S
C1709 C1711 1.384 . S
C1710 C1709 1.377 . S
C1710 C1716 1.390 . S
C1711 H1702 0.930 . S
C1711 C1709 1.384 . S
C1711 C1712 1.372 . S
C1712 C1711 1.372 . S
C1712 C1713 1.400 . S
C1712 C1717 1.490 . S
C1713 H1703 0.930 . S
C1713 C1712 1.400 . S
C1713 C1716 1.386 . S
H1714 C1730 0.930 . S
H1715 C1731 0.931 1_545 S
C1716 H1704 0.929 . S
C1716 C1710 1.390 . S
C1716 C1713 1.386 . S
C1717 C1712 1.490 . S
C1717 C1719 1.395 . S
C1717 C1720 1.403 . S
H1718 C1724 0.930 . S
C1719 H1705 0.930 . S
C1719 C1717 1.395 . S
C1719 C1722 1.403 . S
C1720 C1717 1.403 . S
C1720 C1721 1.524 . S
C1720 C1724 1.400 . S
C1721 H1706 0.960 . S
C1721 H1707 0.960 . S
C1721 H1708 0.960 . S
C1721 C1720 1.524 . S
C1722 C1719 1.403 . S
C1722 C1723 1.392 . S
C1722 C1726 1.495 . S
C1723 C1722 1.392 . S
C1723 C1724 1.385 . S
C1723 C1725 1.478 . S
C1724 H1718 0.930 . S
C1724 C1720 1.400 . S
C1724 C1723 1.385 . S
C1725 C1723 1.478 . S
C1725 C1727 1.381 . S
C1725 C1731 1.383 . S
C1726 C1722 1.495 . S
C1726 H1732 0.959 . S
C1726 H1733 0.961 . S
C1726 H1734 0.960 . S
C1727 C1725 1.381 . S
C1727 C1728 1.394 . S
C1727 H1735 0.930 . S
C1728 C1727 1.394 . S
C1728 C1729 1.383 . S
C1728 H1736 0.929 . S
C1729 C1728 1.383 . S
C1729 C1730 1.377 1_565 S
C1730 H1714 0.930 . S
C1730 C1729 1.377 1_545 S
C1730 C1731 1.379 1_545 S
C1731 H1715 0.931 1_565 S
C1731 C1725 1.383 . S
C1731 C1730 1.379 1_565 S
H1732 C1726 0.959 . S
H1733 C1726 0.961 . S
H1734 C1726 0.960 . S
H1735 C1727 0.930 . S
H1736 C1728 0.929 . S
H1737 C1745 0.929 . S
H1738 C1747 0.930 . S
H1739 C1749 0.930 . S
H1740 C1752 0.929 . S
H1741 C1755 0.930 . S
H1742 C1757 0.960 . S
H1743 C1757 0.960 . S
H1744 C1757 0.960 . S
C1745 H1737 0.929 . S
C1745 C1746 1.377 . S
C1745 C1747 1.384 . S
C1746 C1745 1.377 . S
C1746 C1752 1.390 . S
C1747 H1738 0.930 . S
C1747 C1745 1.384 . S
C1747 C1748 1.372 . S
C1748 C1747 1.372 . S
C1748 C1749 1.400 . S
C1748 C1753 1.490 . S
C1749 H1739 0.930 . S
C1749 C1748 1.400 . S
C1749 C1752 1.386 . S
H1750 C1766 0.930 . S
H1751 C1767 0.931 . S
C1752 H1740 0.929 . S
C1752 C1746 1.390 . S
C1752 C1749 1.386 . S
C1753 C1748 1.490 . S
C1753 C1755 1.395 . S
C1753 C1756 1.403 . S
H1754 C1760 0.930 . S
C1755 H1741 0.930 . S
C1755 C1753 1.395 . S
C1755 C1758 1.403 . S
C1756 C1753 1.403 . S
C1756 C1757 1.524 . S
C1756 C1760 1.400 . S
C1757 H1742 0.960 . S
C1757 H1743 0.960 . S
C1757 H1744 0.960 . S
C1757 C1756 1.524 . S
C1758 C1755 1.403 . S
C1758 C1759 1.392 . S
C1758 C1762 1.495 . S
C1759 C1758 1.392 . S
C1759 C1760 1.385 . S
C1759 C1761 1.478 . S
C1760 H1754 0.930 . S
C1760 C1756 1.400 . S
C1760 C1759 1.385 . S
C1761 C1759 1.478 . S
C1761 C1763 1.381 . S
C1761 C1767 1.383 . S
C1762 C1758 1.495 . S
C1762 H1768 0.959 . S
C1762 H1769 0.961 . S
C1762 H1770 0.960 . S
C1763 C1761 1.381 . S
C1763 C1764 1.394 . S
C1763 H1771 0.930 . S
C1764 C1763 1.394 . S
C1764 C1765 1.383 . S
C1764 H1772 0.929 . S
C1765 C1764 1.383 . S
C1765 C1766 1.377 . S
C1766 H1750 0.930 . S
C1766 C1765 1.377 . S
C1766 C1767 1.379 . S
C1767 H1751 0.931 . S
C1767 C1761 1.383 . S
C1767 C1766 1.379 . S
H1768 C1762 0.959 . S
H1769 C1762 0.961 . S
H1770 C1762 0.960 . S
H1771 C1763 0.930 . S
H1772 C1764 0.929 . S
H1773 C1781 0.929 . S
H1774 C1783 0.930 . S
H1775 C1785 0.930 . S
H1776 C1788 0.929 . S
H1777 C1791 0.930 . S
H1778 C1793 0.960 . S
H1779 C1793 0.960 . S
H1780 C1793 0.960 . S
C1781 H1773 0.929 . S
C1781 C1782 1.377 . S
C1781 C1783 1.384 . S
C1782 C1781 1.377 . S
C1782 C1788 1.390 . S
C1783 H1774 0.930 . S
C1783 C1781 1.384 . S
C1783 C1784 1.372 . S
C1784 C1783 1.372 . S
C1784 C1785 1.400 . S
C1784 C1789 1.490 . S
C1785 H1775 0.930 . S
C1785 C1784 1.400 . S
C1785 C1788 1.386 . S
H1786 C1802 0.930 . S
H1787 C1803 0.931 . S
C1788 H1776 0.929 . S
C1788 C1782 1.390 . S
C1788 C1785 1.386 . S
C1789 C1784 1.490 . S
C1789 C1791 1.395 . S
C1789 C1792 1.403 . S
H1790 C1796 0.930 . S
C1791 H1777 0.930 . S
C1791 C1789 1.395 . S
C1791 C1794 1.403 . S
C1792 C1789 1.403 . S
C1792 C1793 1.524 . S
C1792 C1796 1.400 . S
C1793 H1778 0.960 . S
C1793 H1779 0.960 . S
C1793 H1780 0.960 . S
C1793 C1792 1.524 . S
C1794 C1791 1.403 . S
C1794 C1795 1.392 . S
C1794 C1798 1.495 . S
C1795 C1794 1.392 . S
C1795 C1796 1.385 . S
C1795 C1797 1.478 . S
C1796 H1790 0.930 . S
C1796 C1792 1.400 . S
C1796 C1795 1.385 . S
C1797 C1795 1.478 . S
C1797 C1799 1.381 . S
C1797 C1803 1.383 . S
C1798 C1794 1.495 . S
C1798 H1804 0.959 . S
C1798 H1805 0.961 . S
C1798 H1806 0.960 . S
C1799 C1797 1.381 . S
C1799 C1800 1.394 . S
C1799 H1807 0.930 . S
C1800 C1799 1.394 . S
C1800 C1801 1.383 . S
C1800 H1808 0.929 . S
C1801 C1800 1.383 . S
C1801 C1802 1.377 . S
C1802 H1786 0.930 . S
C1802 C1801 1.377 . S
C1802 C1803 1.379 . S
C1803 H1787 0.931 . S
C1803 C1797 1.383 . S
C1803 C1802 1.379 . S
H1804 C1798 0.959 . S
H1805 C1798 0.961 . S
H1806 C1798 0.960 . S
H1807 C1799 0.930 . S
H1808 C1800 0.929 . S
H1809 C1817 0.929 . S
H1810 C1819 0.930 . S
H1811 C1821 0.930 . S
H1812 C1824 0.929 . S
H1813 C1827 0.930 . S
H1814 C1829 0.960 . S
H1815 C1829 0.960 . S
H1816 C1829 0.960 . S
C1817 H1809 0.929 . S
C1817 C1818 1.377 . S
C1817 C1819 1.384 . S
C1818 C1817 1.377 . S
C1818 C1824 1.390 . S
C1819 H1810 0.930 . S
C1819 C1817 1.384 . S
C1819 C1820 1.372 . S
C1820 C1819 1.372 . S
C1820 C1821 1.400 . S
C1820 C1825 1.490 . S
C1821 H1811 0.930 . S
C1821 C1820 1.400 . S
C1821 C1824 1.386 . S
H1822 C1838 0.930 1_455 S
H1823 C1839 0.931 . S
C1824 H1812 0.929 . S
C1824 C1818 1.390 . S
C1824 C1821 1.386 . S
C1825 C1820 1.490 . S
C1825 C1827 1.395 . S
C1825 C1828 1.403 . S
H1826 C1832 0.930 . S
C1827 H1813 0.930 . S
C1827 C1825 1.395 . S
C1827 C1830 1.403 . S
C1828 C1825 1.403 . S
C1828 C1829 1.524 . S
C1828 C1832 1.400 . S
C1829 H1814 0.960 . S
C1829 H1815 0.960 . S
C1829 H1816 0.960 . S
C1829 C1828 1.524 . S
C1830 C1827 1.403 . S
C1830 C1831 1.392 . S
C1830 C1834 1.495 . S
C1831 C1830 1.392 . S
C1831 C1832 1.385 . S
C1831 C1833 1.478 . S
C1832 H1826 0.930 . S
C1832 C1828 1.400 . S
C1832 C1831 1.385 . S
C1833 C1831 1.478 . S
C1833 C1835 1.381 . S
C1833 C1839 1.383 . S
C1834 C1830 1.495 . S
C1834 H1840 0.959 . S
C1834 H1841 0.961 . S
C1834 H1842 0.960 . S
C1835 C1833 1.381 . S
C1835 C1836 1.394 . S
C1835 H1843 0.930 . S
C1836 C1835 1.394 . S
C1836 C1837 1.383 . S
C1836 H1844 0.929 . S
C1837 C1836 1.383 . S
C1837 C1838 1.377 . S
C1838 H1822 0.930 1_655 S
C1838 C1837 1.377 . S
C1838 C1839 1.379 . S
C1839 H1823 0.931 . S
C1839 C1833 1.383 . S
C1839 C1838 1.379 . S
H1840 C1834 0.959 . S
H1841 C1834 0.961 . S
H1842 C1834 0.960 . S
H1843 C1835 0.930 . S
H1844 C1836 0.929 . S
H1845 C1853 0.929 . S
H1846 C1855 0.930 . S
H1847 C1857 0.930 . S
H1848 C1860 0.929 . S
H1849 C1863 0.930 . S
H1850 C1865 0.960 . S
H1851 C1865 0.960 . S
H1852 C1865 0.960 . S
C1853 H1845 0.929 . S
C1853 C1854 1.377 . S
C1853 C1855 1.384 . S
C1854 C1853 1.377 . S
C1854 C1860 1.390 . S
C1855 H1846 0.930 . S
C1855 C1853 1.384 . S
C1855 C1856 1.372 . S
C1856 C1855 1.372 . S
C1856 C1857 1.400 . S
C1856 C1861 1.490 . S
C1857 H1847 0.930 . S
C1857 C1856 1.400 . S
C1857 C1860 1.386 . S
H1858 C1874 0.930 . S
H1859 C1875 0.931 . S
C1860 H1848 0.929 . S
C1860 C1854 1.390 . S
C1860 C1857 1.386 . S
C1861 C1856 1.490 . S
C1861 C1863 1.395 . S
C1861 C1864 1.403 . S
H1862 C1868 0.930 . S
C1863 H1849 0.930 . S
C1863 C1861 1.395 . S
C1863 C1866 1.403 . S
C1864 C1861 1.403 . S
C1864 C1865 1.524 . S
C1864 C1868 1.400 . S
C1865 H1850 0.960 . S
C1865 H1851 0.960 . S
C1865 H1852 0.960 . S
C1865 C1864 1.524 . S
C1866 C1863 1.403 . S
C1866 C1867 1.392 . S
C1866 C1870 1.495 . S
C1867 C1866 1.392 . S
C1867 C1868 1.385 . S
C1867 C1869 1.478 . S
C1868 H1862 0.930 . S
C1868 C1864 1.400 . S
C1868 C1867 1.385 . S
C1869 C1867 1.478 . S
C1869 C1871 1.381 . S
C1869 C1875 1.383 . S
C1870 C1866 1.495 . S
C1870 H1876 0.959 . S
C1870 H1877 0.961 . S
C1870 H1878 0.960 . S
C1871 C1869 1.381 . S
C1871 C1872 1.394 . S
C1871 H1879 0.930 . S
C1872 C1871 1.394 . S
C1872 C1873 1.383 . S
C1872 H1880 0.929 . S
C1873 C1872 1.383 . S
C1873 C1874 1.377 . S
C1874 H1858 0.930 . S
C1874 C1873 1.377 . S
C1874 C1875 1.379 . S
C1875 H1859 0.931 . S
C1875 C1869 1.383 . S
C1875 C1874 1.379 . S
H1876 C1870 0.959 . S
H1877 C1870 0.961 . S
H1878 C1870 0.960 . S
H1879 C1871 0.930 . S
H1880 C1872 0.929 . S
H1881 C1889 0.929 . S
H1882 C1891 0.930 . S
H1883 C1893 0.930 . S
H1884 C1896 0.929 . S
H1885 C1899 0.930 . S
H1886 C1901 0.960 . S
H1887 C1901 0.960 . S
H1888 C1901 0.960 . S
C1889 H1881 0.929 . S
C1889 C1890 1.377 . S
C1889 C1891 1.384 . S
C1890 C1889 1.377 . S
C1890 C1896 1.390 . S
C1891 H1882 0.930 . S
C1891 C1889 1.384 . S
C1891 C1892 1.372 . S
C1892 C1891 1.372 . S
C1892 C1893 1.400 . S
C1892 C1897 1.490 . S
C1893 H1883 0.930 . S
C1893 C1892 1.400 . S
C1893 C1896 1.386 . S
H1894 C1910 0.930 . S
H1895 C1911 0.931 . S
C1896 H1884 0.929 . S
C1896 C1890 1.390 . S
C1896 C1893 1.386 . S
C1897 C1892 1.490 . S
C1897 C1899 1.395 . S
C1897 C1900 1.403 . S
H1898 C1904 0.930 . S
C1899 H1885 0.930 . S
C1899 C1897 1.395 . S
C1899 C1902 1.403 . S
C1900 C1897 1.403 . S
C1900 C1901 1.524 . S
C1900 C1904 1.400 . S
C1901 H1886 0.960 . S
C1901 H1887 0.960 . S
C1901 H1888 0.960 . S
C1901 C1900 1.524 . S
C1902 C1899 1.403 . S
C1902 C1903 1.392 . S
C1902 C1906 1.495 . S
C1903 C1902 1.392 . S
C1903 C1904 1.385 . S
C1903 C1905 1.478 . S
C1904 H1898 0.930 . S
C1904 C1900 1.400 . S
C1904 C1903 1.385 . S
C1905 C1903 1.478 . S
C1905 C1907 1.381 . S
C1905 C1911 1.383 . S
C1906 C1902 1.495 . S
C1906 H1912 0.930 1_545 S
C1906 H1913 0.961 . S
C1906 H1914 0.960 1_545 S
C1907 C1905 1.381 . S
C1907 C1908 1.394 . S
C1907 H1915 0.930 . S
C1908 C1907 1.394 . S
C1908 C1909 1.383 . S
C1908 H1916 0.929 . S
C1909 C1908 1.383 . S
C1909 C1910 1.377 . S
C1910 H1894 0.930 . S
C1910 C1909 1.377 . S
C1910 C1911 1.379 . S
C1911 H1895 0.931 . S
C1911 C1905 1.383 . S
C1911 C1910 1.379 . S
H1912 C1906 0.930 1_565 S
H1913 C1906 0.961 . S
H1914 C1906 0.960 1_565 S
H1915 C1907 0.930 . S
H1916 C1908 0.929 . S
H1917 C1925 0.929 . S
H1918 C1927 0.930 . S
H1919 C1929 0.930 . S
H1920 C1932 0.929 . S
H1921 C1935 0.930 . S
H1922 C1937 0.960 . S
H1923 C1937 0.960 . S
H1924 C1937 0.960 . S
C1925 H1917 0.929 . S
C1925 C1926 1.377 . S
C1925 C1927 1.384 . S
C1926 C1925 1.377 . S
C1926 C1932 1.390 . S
C1927 H1918 0.930 . S
C1927 C1925 1.384 . S
C1927 C1928 1.372 . S
C1928 C1927 1.372 . S
C1928 C1929 1.400 . S
C1928 C1933 1.490 . S
C1929 H1919 0.930 . S
C1929 C1928 1.400 . S
C1929 C1932 1.386 . S
H1930 C1946 0.930 . S
H1931 C1947 0.931 . S
C1932 H1920 0.929 . S
C1932 C1926 1.390 . S
C1932 C1929 1.386 . S
C1933 C1928 1.490 . S
C1933 C1935 1.395 . S
C1933 C1936 1.403 . S
H1934 C1940 0.930 . S
C1935 H1921 0.930 . S
C1935 C1933 1.395 . S
C1935 C1938 1.403 . S
C1936 C1933 1.403 . S
C1936 C1937 1.524 . S
C1936 C1940 1.400 . S
C1937 H1922 0.960 . S
C1937 H1923 0.960 . S
C1937 H1924 0.960 . S
C1937 C1936 1.524 . S
C1938 C1935 1.403 . S
C1938 C1939 1.392 . S
C1938 C1942 1.495 . S
C1939 C1938 1.392 . S
C1939 C1940 1.385 . S
C1939 C1941 1.478 . S
C1940 H1934 0.930 . S
C1940 C1936 1.400 . S
C1940 C1939 1.385 . S
C1941 C1939 1.478 . S
C1941 C1943 1.381 . S
C1941 C1947 1.383 . S
C1942 C1938 1.495 . S
C1942 H1948 0.959 . S
C1942 H1949 0.961 . S
C1942 H1950 0.960 . S
C1943 C1941 1.381 . S
C1943 C1944 1.394 . S
C1943 H1951 0.930 . S
C1944 C1943 1.394 . S
C1944 C1945 1.383 . S
C1944 H1952 0.929 . S
C1945 C1944 1.383 . S
C1945 C1946 1.377 . S
C1946 H1930 0.930 . S
C1946 C1945 1.377 . S
C1946 C1947 1.379 . S
C1947 H1931 0.931 . S
C1947 C1941 1.383 . S
C1947 C1946 1.379 . S
H1948 C1942 0.959 . S
H1949 C1942 0.961 . S
H1950 C1942 0.960 . S
H1951 C1943 0.930 . S
H1952 C1944 0.929 . S
H1953 C1961 0.929 . S
H1954 C1963 0.930 . S
H1955 C1965 0.930 . S
H1956 C1968 0.929 . S
H1957 C1971 0.930 . S
H1958 C1973 0.960 . S
H1959 C1973 0.960 . S
H1960 C1973 0.960 . S
C1961 H1953 0.929 . S
C1961 C1962 1.377 . S
C1961 C1963 1.384 . S
C1962 C1961 1.377 . S
C1962 C1968 1.390 . S
C1963 H1954 0.930 . S
C1963 C1961 1.384 . S
C1963 C1964 1.372 . S
C1964 C1963 1.372 . S
C1964 C1965 1.400 . S
C1964 C1969 1.490 . S
C1965 H1955 0.930 . S
C1965 C1964 1.400 . S
C1965 C1968 1.386 . S
H1966 C1982 0.930 . S
H1967 C1983 0.931 . S
C1968 H1956 0.929 . S
C1968 C1962 1.390 . S
C1968 C1965 1.386 . S
C1969 C1964 1.490 . S
C1969 C1971 1.395 . S
C1969 C1972 1.403 . S
H1970 C1976 0.930 . S
C1971 H1957 0.930 . S
C1971 C1969 1.395 . S
C1971 C1974 1.403 . S
C1972 C1969 1.403 . S
C1972 C1973 1.524 . S
C1972 C1976 1.400 . S
C1973 H1958 0.960 . S
C1973 H1959 0.960 . S
C1973 H1960 0.960 . S
C1973 C1972 1.524 . S
C1974 C1971 1.403 . S
C1974 C1975 1.392 . S
C1974 C1978 1.495 . S
C1975 C1974 1.392 . S
C1975 C1976 1.385 . S
C1975 C1977 1.478 . S
C1976 H1970 0.930 . S
C1976 C1972 1.400 . S
C1976 C1975 1.385 . S
C1977 C1975 1.478 . S
C1977 C1979 1.381 . S
C1977 C1983 1.383 . S
C1978 C1974 1.495 . S
C1978 H1984 0.959 . S
C1978 H1985 0.961 . S
C1978 H1986 0.960 . S
C1979 C1977 1.381 . S
C1979 C1980 1.394 . S
C1979 H1987 0.930 . S
C1980 C1979 1.394 . S
C1980 C1981 1.383 . S
C1980 H1988 0.929 . S
C1981 C1980 1.383 . S
C1981 C1982 1.377 . S
C1982 H1966 0.930 . S
C1982 C1981 1.377 . S
C1982 C1983 1.379 . S
C1983 H1967 0.931 . S
C1983 C1977 1.383 . S
C1983 C1982 1.379 . S
H1984 C1978 0.959 . S
H1985 C1978 0.961 . S
H1986 C1978 0.960 . S
H1987 C1979 0.930 . S
H1988 C1980 0.929 . S
H1989 C1997 0.929 . S
H1990 C1999 0.930 . S
H1991 C2001 0.930 . S
H1992 C2004 0.929 . S
H1993 C2007 0.930 . S
H1994 C2009 0.960 . S
H1995 C2009 0.960 . S
H1996 C2009 0.960 . S
C1997 H1989 0.929 . S
C1997 C1998 1.377 . S
C1997 C1999 1.384 . S
C1998 C1997 1.377 . S
C1998 C2004 1.390 . S
C1999 H1990 0.930 . S
C1999 C1997 1.384 . S
C1999 C2000 1.372 . S
C2000 C1999 1.372 . S
C2000 C2001 1.400 . S
C2000 C2005 1.490 . S
C2001 H1991 0.930 . S
C2001 C2000 1.400 . S
C2001 C2004 1.386 . S
H2002 C2018 0.930 . S
H2003 C2019 0.931 . S
C2004 H1992 0.929 . S
C2004 C1998 1.390 . S
C2004 C2001 1.386 . S
C2005 C2000 1.490 . S
C2005 C2007 1.395 . S
C2005 C2008 1.403 . S
H2006 C2012 0.930 . S
C2007 H1993 0.930 . S
C2007 C2005 1.395 . S
C2007 C2010 1.403 . S
C2008 C2005 1.403 . S
C2008 C2009 1.524 . S
C2008 C2012 1.400 . S
C2009 H1994 0.960 . S
C2009 H1995 0.960 . S
C2009 H1996 0.960 . S
C2009 C2008 1.524 . S
C2010 C2007 1.403 . S
C2010 C2011 1.392 . S
C2010 C2014 1.495 . S
C2011 C2010 1.392 . S
C2011 C2012 1.385 . S
C2011 C2013 1.478 . S
C2012 H2006 0.930 . S
C2012 C2008 1.400 . S
C2012 C2011 1.385 . S
C2013 C2011 1.478 . S
C2013 C2015 1.381 . S
C2013 C2019 1.383 . S
C2014 C2010 1.495 . S
C2014 H2020 0.959 . S
C2014 H2021 0.961 . S
C2014 H2022 0.960 . S
C2015 C2013 1.381 . S
C2015 C2016 1.394 . S
C2015 H2023 0.930 . S
C2016 C2015 1.394 . S
C2016 C2017 1.383 . S
C2016 H2024 0.929 . S
C2017 C2016 1.383 . S
C2017 C2018 1.377 . S
C2018 H2002 0.930 . S
C2018 C2017 1.377 . S
C2018 C2019 1.379 . S
C2019 H2003 0.931 . S
C2019 C2013 1.383 . S
C2019 C2018 1.379 . S
H2020 C2014 0.959 . S
H2021 C2014 0.961 . S
H2022 C2014 0.960 . S
H2023 C2015 0.930 . S
H2024 C2016 0.929 . S
H2025 C2033 0.929 . S
H2026 C2035 0.930 . S
H2027 C2037 0.930 . S
H2028 C2040 0.929 . S
H2029 C2043 0.930 . S
H2030 C2045 0.960 . S
H2031 C2045 0.960 . S
H2032 C2045 0.960 . S
C2033 H2025 0.929 . S
C2033 C2034 1.377 . S
C2033 C2035 1.384 . S
C2034 C2033 1.377 . S
C2034 C2040 1.390 . S
C2035 H2026 0.930 . S
C2035 C2033 1.384 . S
C2035 C2036 1.372 . S
C2036 C2035 1.372 . S
C2036 C2037 1.400 . S
C2036 C2041 1.490 . S
C2037 H2027 0.930 . S
C2037 C2036 1.400 . S
C2037 C2040 1.386 . S
H2038 C2054 0.930 . S
H2039 C2055 0.931 . S
C2040 H2028 0.929 . S
C2040 C2034 1.390 . S
C2040 C2037 1.386 . S
C2041 C2036 1.490 . S
C2041 C2043 1.395 . S
C2041 C2044 1.403 . S
H2042 C2048 0.930 . S
C2043 H2029 0.930 . S
C2043 C2041 1.395 . S
C2043 C2046 1.403 . S
C2044 C2041 1.403 . S
C2044 C2045 1.524 . S
C2044 C2048 1.400 . S
C2045 H2030 0.960 . S
C2045 H2031 0.960 . S
C2045 H2032 0.960 . S
C2045 C2044 1.524 . S
C2046 C2043 1.403 . S
C2046 C2047 1.392 . S
C2046 C2050 1.495 . S
C2047 C2046 1.392 . S
C2047 C2048 1.385 . S
C2047 C2049 1.478 . S
C2048 H2042 0.930 . S
C2048 C2044 1.400 . S
C2048 C2047 1.385 . S
C2049 C2047 1.478 . S
C2049 C2051 1.381 . S
C2049 C2055 1.383 . S
C2050 C2046 1.495 . S
C2050 H2056 0.959 . S
C2050 H2057 0.961 . S
C2050 H2058 0.960 . S
C2051 C2049 1.381 . S
C2051 C2052 1.394 . S
C2051 H2059 0.930 . S
C2052 C2051 1.394 . S
C2052 C2053 1.383 . S
C2052 H2060 0.929 . S
C2053 C2052 1.383 . S
C2053 C2054 1.377 . S
C2054 H2038 0.930 . S
C2054 C2053 1.377 . S
C2054 C2055 1.379 . S
C2055 H2039 0.931 . S
C2055 C2049 1.383 . S
C2055 C2054 1.379 . S
H2056 C2050 0.959 . S
H2057 C2050 0.961 . S
H2058 C2050 0.960 . S
H2059 C2051 0.930 . S
H2060 C2052 0.929 . S
H2061 C2069 0.929 . S
H2062 C2071 0.930 . S
H2063 C2073 0.930 . S
H2064 C2076 0.929 . S
H2065 C2079 0.930 . S
H2066 C2081 0.960 . S
H2067 C2081 0.960 . S
H2068 C2081 0.960 . S
C2069 H2061 0.929 . S
C2069 C2070 1.377 . S
C2069 C2071 1.384 . S
C2070 C2069 1.377 . S
C2070 C2076 1.390 . S
C2071 H2062 0.930 . S
C2071 C2069 1.384 . S
C2071 C2072 1.372 . S
C2072 C2071 1.372 . S
C2072 C2073 1.400 . S
C2072 C2077 1.490 . S
C2073 H2063 0.930 . S
C2073 C2072 1.400 . S
C2073 C2076 1.386 . S
H2074 C2090 0.930 . S
H2075 C2091 0.931 . S
C2076 H2064 0.929 . S
C2076 C2070 1.390 . S
C2076 C2073 1.386 . S
C2077 C2072 1.490 . S
C2077 C2079 1.395 . S
C2077 C2080 1.403 . S
H2078 C2084 0.930 . S
C2079 H2065 0.930 . S
C2079 C2077 1.395 . S
C2079 C2082 1.403 . S
C2080 C2077 1.403 . S
C2080 C2081 1.524 . S
C2080 C2084 1.400 . S
C2081 H2066 0.960 . S
C2081 H2067 0.960 . S
C2081 H2068 0.960 . S
C2081 C2080 1.524 . S
C2082 C2079 1.403 . S
C2082 C2083 1.392 . S
C2082 C2086 1.495 . S
C2083 C2082 1.392 . S
C2083 C2084 1.385 . S
C2083 C2085 1.478 . S
C2084 H2078 0.930 . S
C2084 C2080 1.400 . S
C2084 C2083 1.385 . S
C2085 C2083 1.478 . S
C2085 C2087 1.381 . S
C2085 C2091 1.383 . S
C2086 C2082 1.495 . S
C2086 H2092 0.959 . S
C2086 H2093 0.961 . S
C2086 H2094 0.960 . S
C2087 C2085 1.381 . S
C2087 C2088 1.394 . S
C2087 H2095 0.930 . S
C2088 C2087 1.394 . S
C2088 C2089 1.383 . S
C2088 H2096 0.929 . S
C2089 C2088 1.383 . S
C2089 C2090 1.377 . S
C2090 H2074 0.930 . S
C2090 C2089 1.377 . S
C2090 C2091 1.379 . S
C2091 H2075 0.931 . S
C2091 C2085 1.383 . S
C2091 C2090 1.379 . S
H2092 C2086 0.959 . S
H2093 C2086 0.961 . S
H2094 C2086 0.960 . S
H2095 C2087 0.930 . S
H2096 C2088 0.929 . S
H2097 C2105 0.929 . S
H2098 C2107 0.930 . S
H2099 C2109 0.930 . S
H2100 C2112 0.929 . S
H2101 C2115 0.930 . S
H2102 C2117 0.960 . S
H2103 C2117 0.960 . S
H2104 C2117 0.960 . S
C2105 H2097 0.929 . S
C2105 C2106 1.377 . S
C2105 C2107 1.384 . S
C2106 C2105 1.377 . S
C2106 C2112 1.390 . S
C2107 H2098 0.930 . S
C2107 C2105 1.384 . S
C2107 C2108 1.372 . S
C2108 C2107 1.372 . S
C2108 C2109 1.400 . S
C2108 C2113 1.490 . S
C2109 H2099 0.930 . S
C2109 C2108 1.400 . S
C2109 C2112 1.386 . S
H2110 C2126 0.930 . S
H2111 C2127 0.931 . S
C2112 H2100 0.929 . S
C2112 C2106 1.390 . S
C2112 C2109 1.386 . S
C2113 C2108 1.490 . S
C2113 C2115 1.395 . S
C2113 C2116 1.403 . S
H2114 C2120 0.930 . S
C2115 H2101 0.930 . S
C2115 C2113 1.395 . S
C2115 C2118 1.403 . S
C2116 C2113 1.403 . S
C2116 C2117 1.524 . S
C2116 C2120 1.400 . S
C2117 H2102 0.960 . S
C2117 H2103 0.960 . S
C2117 H2104 0.960 . S
C2117 C2116 1.524 . S
C2118 C2115 1.403 . S
C2118 C2119 1.392 . S
C2118 C2122 1.495 . S
C2119 C2118 1.392 . S
C2119 C2120 1.385 . S
C2119 C2121 1.478 . S
C2120 H2114 0.930 . S
C2120 C2116 1.400 . S
C2120 C2119 1.385 . S
C2121 C2119 1.478 . S
C2121 C2123 1.381 . S
C2121 C2127 1.383 . S
C2122 C2118 1.495 . S
C2122 H2128 0.959 . S
C2122 H2129 0.961 . S
C2122 H2130 0.960 . S
C2123 C2121 1.381 . S
C2123 C2124 1.394 . S
C2123 H2131 0.930 . S
C2124 C2123 1.394 . S
C2124 C2125 1.383 . S
C2124 H2132 0.929 . S
C2125 C2124 1.383 . S
C2125 C2126 1.377 . S
C2126 H2110 0.930 . S
C2126 C2125 1.377 . S
C2126 C2127 1.379 . S
C2127 H2111 0.931 . S
C2127 C2121 1.383 . S
C2127 C2126 1.379 . S
H2128 C2122 0.959 . S
H2129 C2122 0.961 . S
H2130 C2122 0.960 . S
H2131 C2123 0.930 . S
H2132 C2124 0.929 . S
H2133 C2141 0.929 . S
H2134 C2143 0.930 . S
H2135 C2145 0.930 . S
H2136 C2148 0.929 . S
H2137 C2151 0.930 . S
H2138 C2153 0.960 . S
H2139 C2153 0.960 . S
H2140 C2153 0.960 . S
C2141 H2133 0.929 . S
C2141 C2142 1.377 . S
C2141 C2143 1.384 . S
C2142 C2141 1.377 . S
C2142 C2148 1.390 . S
C2143 H2134 0.930 . S
C2143 C2141 1.384 . S
C2143 C2144 1.372 . S
C2144 C2143 1.372 . S
C2144 C2145 1.400 . S
C2144 C2149 1.490 . S
C2145 H2135 0.930 . S
C2145 C2144 1.400 . S
C2145 C2148 1.386 . S
H2146 C2162 0.930 . S
H2147 C2163 0.931 . S
C2148 H2136 0.929 . S
C2148 C2142 1.390 . S
C2148 C2145 1.386 . S
C2149 C2144 1.490 . S
C2149 C2151 1.395 . S
C2149 C2152 1.403 . S
H2150 C2156 0.930 . S
C2151 H2137 0.930 . S
C2151 C2149 1.395 . S
C2151 C2154 1.403 . S
C2152 C2149 1.403 . S
C2152 C2153 1.524 . S
C2152 C2156 1.400 . S
C2153 H2138 0.960 . S
C2153 H2139 0.960 . S
C2153 H2140 0.960 . S
C2153 C2152 1.524 . S
C2154 C2151 1.403 . S
C2154 C2155 1.392 . S
C2154 C2158 1.495 . S
C2155 C2154 1.392 . S
C2155 C2156 1.385 . S
C2155 C2157 1.478 . S
C2156 H2150 0.930 . S
C2156 C2152 1.400 . S
C2156 C2155 1.385 . S
C2157 C2155 1.478 . S
C2157 C2159 1.381 . S
C2157 C2163 1.383 . S
C2158 C2154 1.495 . S
C2158 H2164 0.959 . S
C2158 H2165 0.961 . S
C2158 H2166 0.960 . S
C2159 C2157 1.381 . S
C2159 C2160 1.394 . S
C2159 H2167 0.930 . S
C2160 C2159 1.394 . S
C2160 C2161 1.383 . S
C2160 H2168 0.929 . S
C2161 C2160 1.383 . S
C2161 C2162 1.377 . S
C2162 H2146 0.930 . S
C2162 C2161 1.377 . S
C2162 C2163 1.379 . S
C2163 H2147 0.931 . S
C2163 C2157 1.383 . S
C2163 C2162 1.379 . S
H2164 C2158 0.959 . S
H2165 C2158 0.961 . S
H2166 C2158 0.960 . S
H2167 C2159 0.930 . S
H2168 C2160 0.929 . S
H2169 C2177 0.929 . S
H2170 C2179 0.930 . S
H2171 C2181 0.930 . S
H2172 C2184 0.929 . S
H2173 C2187 0.930 . S
H2174 C2189 0.960 . S
H2175 C2189 0.960 . S
H2176 C2189 0.960 . S
C2177 H2169 0.929 . S
C2177 C2178 1.377 . S
C2177 C2179 1.384 . S
C2178 C2177 1.377 . S
C2178 C2184 1.390 . S
C2179 H2170 0.930 . S
C2179 C2177 1.384 . S
C2179 C2180 1.372 . S
C2180 C2179 1.372 . S
C2180 C2181 1.400 . S
C2180 C2185 1.490 . S
C2181 H2171 0.930 . S
C2181 C2180 1.400 . S
C2181 C2184 1.386 . S
H2182 C2198 0.930 . S
H2183 C2199 0.931 . S
C2184 H2172 0.929 . S
C2184 C2178 1.390 . S
C2184 C2181 1.386 . S
C2185 C2180 1.490 . S
C2185 C2187 1.395 . S
C2185 C2188 1.403 . S
H2186 C2192 0.930 . S
C2187 H2173 0.930 . S
C2187 C2185 1.395 . S
C2187 C2190 1.403 . S
C2188 C2185 1.403 . S
C2188 C2189 1.524 . S
C2188 C2192 1.400 . S
C2189 H2174 0.960 . S
C2189 H2175 0.960 . S
C2189 H2176 0.960 . S
C2189 C2188 1.524 . S
C2190 C2187 1.403 . S
C2190 C2191 1.392 . S
C2190 C2194 1.495 . S
C2191 C2190 1.392 . S
C2191 C2192 1.385 . S
C2191 C2193 1.478 . S
C2192 H2186 0.930 . S
C2192 C2188 1.400 . S
C2192 C2191 1.385 . S
C2193 C2191 1.478 . S
C2193 C2195 1.381 . S
C2193 C2199 1.383 . S
C2194 C2190 1.495 . S
C2194 H2200 0.959 . S
C2194 H2201 0.961 . S
C2194 H2202 0.960 . S
C2195 C2193 1.381 . S
C2195 C2196 1.394 . S
C2195 H2203 0.930 . S
C2196 C2195 1.394 . S
C2196 C2197 1.383 . S
C2196 H2204 0.929 . S
C2197 C2196 1.383 . S
C2197 C2198 1.377 . S
C2198 H2182 0.930 . S
C2198 C2197 1.377 . S
C2198 C2199 1.379 . S
C2199 H2183 0.931 . S
C2199 C2193 1.383 . S
C2199 C2198 1.379 . S
H2200 C2194 0.959 . S
H2201 C2194 0.961 . S
H2202 C2194 0.960 . S
H2203 C2195 0.930 . S
H2204 C2196 0.929 . S
H2205 C2213 0.929 . S
H2206 C2215 0.930 . S
H2207 C2217 0.930 . S
H2208 C2220 0.929 . S
H2209 C2223 0.930 . S
H2210 C2225 0.960 . S
H2211 C2225 0.960 . S
H2212 C2225 0.960 . S
C2213 H2205 0.929 . S
C2213 C2214 1.377 . S
C2213 C2215 1.384 . S
C2214 C2213 1.377 . S
C2214 C2220 1.390 . S
C2215 H2206 0.930 . S
C2215 C2213 1.384 . S
C2215 C2216 1.372 . S
C2216 C2215 1.372 . S
C2216 C2217 1.400 . S
C2216 C2221 1.490 . S
C2217 H2207 0.930 . S
C2217 C2216 1.400 . S
C2217 C2220 1.386 . S
H2218 C2234 0.930 . S
H2219 C2235 0.931 . S
C2220 H2208 0.929 . S
C2220 C2214 1.390 . S
C2220 C2217 1.386 . S
C2221 C2216 1.490 . S
C2221 C2223 1.395 . S
C2221 C2224 1.403 . S
H2222 C2228 0.930 . S
C2223 H2209 0.930 . S
C2223 C2221 1.395 . S
C2223 C2226 1.403 . S
C2224 C2221 1.403 . S
C2224 C2225 1.524 . S
C2224 C2228 1.400 . S
C2225 H2210 0.960 . S
C2225 H2211 0.960 . S
C2225 H2212 0.960 . S
C2225 C2224 1.524 . S
C2226 C2223 1.403 . S
C2226 C2227 1.392 . S
C2226 C2230 1.495 . S
C2227 C2226 1.392 . S
C2227 C2228 1.385 . S
C2227 C2229 1.478 . S
C2228 H2222 0.930 . S
C2228 C2224 1.400 . S
C2228 C2227 1.385 . S
C2229 C2227 1.478 . S
C2229 C2231 1.381 . S
C2229 C2235 1.383 . S
C2230 C2226 1.495 . S
C2230 H2236 0.959 . S
C2230 H2237 0.961 . S
C2230 H2238 0.960 . S
C2231 C2229 1.381 . S
C2231 C2232 1.394 . S
C2231 H2239 0.930 . S
C2232 C2231 1.394 . S
C2232 C2233 1.383 . S
C2232 H2240 0.929 . S
C2233 C2232 1.383 . S
C2233 C2234 1.377 . S
C2234 H2218 0.930 . S
C2234 C2233 1.377 . S
C2234 C2235 1.379 . S
C2235 H2219 0.931 . S
C2235 C2229 1.383 . S
C2235 C2234 1.379 . S
H2236 C2230 0.959 . S
H2237 C2230 0.961 . S
H2238 C2230 0.960 . S
H2239 C2231 0.930 . S
H2240 C2232 0.929 . S
H2241 C2249 0.929 . S
H2242 C2251 0.930 . S
H2243 C2253 0.930 . S
H2244 C2256 0.929 . S
H2245 C2259 0.930 . S
H2246 C2261 0.960 . S
H2247 C2261 0.960 . S
H2248 C2261 0.960 . S
C2249 H2241 0.929 . S
C2249 C2250 1.377 . S
C2249 C2251 1.384 . S
C2250 C2249 1.377 . S
C2250 C2256 1.390 . S
C2251 H2242 0.930 . S
C2251 C2249 1.384 . S
C2251 C2252 1.372 . S
C2252 C2251 1.372 . S
C2252 C2253 1.400 . S
C2252 C2257 1.490 . S
C2253 H2243 0.930 . S
C2253 C2252 1.400 . S
C2253 C2256 1.386 . S
H2254 C2270 0.930 . S
H2255 C2271 0.931 . S
C2256 H2244 0.929 . S
C2256 C2250 1.390 . S
C2256 C2253 1.386 . S
C2257 C2252 1.490 . S
C2257 C2259 1.395 . S
C2257 C2260 1.403 . S
H2258 C2264 0.930 . S
C2259 H2245 0.930 . S
C2259 C2257 1.395 . S
C2259 C2262 1.403 . S
C2260 C2257 1.403 . S
C2260 C2261 1.524 . S
C2260 C2264 1.400 . S
C2261 H2246 0.960 . S
C2261 H2247 0.960 . S
C2261 H2248 0.960 . S
C2261 C2260 1.524 . S
C2262 C2259 1.403 . S
C2262 C2263 1.392 . S
C2262 C2266 1.495 . S
C2263 C2262 1.392 . S
C2263 C2264 1.385 . S
C2263 C2265 1.478 . S
C2264 H2258 0.930 . S
C2264 C2260 1.400 . S
C2264 C2263 1.385 . S
C2265 C2263 1.478 . S
C2265 C2267 1.381 . S
C2265 C2271 1.383 . S
C2266 C2262 1.495 . S
C2266 H2272 0.959 . S
C2266 H2273 0.961 . S
C2266 H2274 0.960 . S
C2267 C2265 1.381 . S
C2267 C2268 1.394 . S
C2267 H2275 0.930 . S
C2268 C2267 1.394 . S
C2268 C2269 1.383 . S
C2268 H2276 0.929 . S
C2269 C2268 1.383 . S
C2269 C2270 1.377 . S
C2270 H2254 0.930 . S
C2270 C2269 1.377 . S
C2270 C2271 1.379 . S
C2271 H2255 0.931 . S
C2271 C2265 1.383 . S
C2271 C2270 1.379 . S
H2272 C2266 0.959 . S
H2273 C2266 0.961 . S
H2274 C2266 0.960 . S
H2275 C2267 0.930 . S
H2276 C2268 0.929 . S
H2277 C2285 0.929 . S
H2278 C2287 0.930 . S
H2279 C2289 0.930 . S
H2280 C2292 0.929 . S
H2281 C2295 0.930 . S
H2282 C2297 0.960 . S
H2283 C2297 0.960 . S
H2284 C2297 0.960 . S
C2285 H2277 0.929 . S
C2285 C2286 1.377 . S
C2285 C2287 1.384 . S
C2286 C2285 1.377 . S
C2286 C2292 1.390 . S
C2287 H2278 0.930 . S
C2287 C2285 1.384 . S
C2287 C2288 1.372 . S
C2288 C2287 1.372 . S
C2288 C2289 1.400 . S
C2288 C2293 1.490 . S
C2289 H2279 0.930 . S
C2289 C2288 1.400 . S
C2289 C2292 1.386 . S
H2290 C2306 0.930 . S
H2291 C2307 0.931 . S
C2292 H2280 0.929 . S
C2292 C2286 1.390 . S
C2292 C2289 1.386 . S
C2293 C2288 1.490 . S
C2293 C2295 1.395 . S
C2293 C2296 1.403 . S
H2294 C2300 0.930 . S
C2295 H2281 0.930 . S
C2295 C2293 1.395 . S
C2295 C2298 1.403 . S
C2296 C2293 1.403 . S
C2296 C2297 1.524 . S
C2296 C2300 1.400 . S
C2297 H2282 0.960 . S
C2297 H2283 0.960 . S
C2297 H2284 0.960 . S
C2297 C2296 1.524 . S
C2298 C2295 1.403 . S
C2298 C2299 1.392 . S
C2298 C2302 1.495 . S
C2299 C2298 1.392 . S
C2299 C2300 1.385 . S
C2299 C2301 1.478 . S
C2300 H2294 0.930 . S
C2300 C2296 1.400 . S
C2300 C2299 1.385 . S
C2301 C2299 1.478 . S
C2301 C2303 1.381 . S
C2301 C2307 1.383 . S
C2302 C2298 1.495 . S
C2302 H2308 0.959 . S
C2302 H2309 0.961 . S
C2302 H2310 0.960 . S
C2303 C2301 1.381 . S
C2303 C2304 1.394 . S
C2303 H2311 0.930 . S
C2304 C2303 1.394 . S
C2304 C2305 1.383 . S
C2304 H2312 0.929 . S
C2305 C2304 1.383 . S
C2305 C2306 1.377 . S
C2306 H2290 0.930 . S
C2306 C2305 1.377 . S
C2306 C2307 1.379 . S
C2307 H2291 0.931 . S
C2307 C2301 1.383 . S
C2307 C2306 1.379 . S
H2308 C2302 0.959 . S
H2309 C2302 0.961 . S
H2310 C2302 0.960 . S
H2311 C2303 0.930 . S
H2312 C2304 0.929 . S
H2313 C2321 0.929 . S
H2314 C2323 0.930 . S
H2315 C2325 0.930 . S
H2316 C2328 0.929 . S
H2317 C2331 0.930 . S
H2318 C2333 0.960 . S
H2319 C2333 0.960 . S
H2320 C2333 0.960 . S
C2321 H2313 0.929 . S
C2321 C2322 1.377 . S
C2321 C2323 1.384 . S
C2322 C2321 1.377 . S
C2322 C2328 1.390 . S
C2323 H2314 0.930 . S
C2323 C2321 1.384 . S
C2323 C2324 1.372 . S
C2324 C2323 1.372 . S
C2324 C2325 1.400 . S
C2324 C2329 1.490 . S
C2325 H2315 0.930 . S
C2325 C2324 1.400 . S
C2325 C2328 1.386 . S
H2326 C2342 0.930 . S
H2327 C2343 0.931 . S
C2328 H2316 0.929 . S
C2328 C2322 1.390 . S
C2328 C2325 1.386 . S
C2329 C2324 1.490 . S
C2329 C2331 1.395 . S
C2329 C2332 1.403 . S
H2330 C2336 0.930 . S
C2331 H2317 0.930 . S
C2331 C2329 1.395 . S
C2331 C2334 1.403 . S
C2332 C2329 1.403 . S
C2332 C2333 1.524 . S
C2332 C2336 1.400 . S
C2333 H2318 0.960 . S
C2333 H2319 0.960 . S
C2333 H2320 0.960 . S
C2333 C2332 1.524 . S
C2334 C2331 1.403 . S
C2334 C2335 1.392 . S
C2334 C2338 1.495 . S
C2335 C2334 1.392 . S
C2335 C2336 1.385 . S
C2335 C2337 1.478 . S
C2336 H2330 0.930 . S
C2336 C2332 1.400 . S
C2336 C2335 1.385 . S
C2337 C2335 1.478 . S
C2337 C2339 1.381 . S
C2337 C2343 1.383 . S
C2338 C2334 1.495 . S
C2338 H2344 0.959 . S
C2338 H2345 0.961 . S
C2338 H2346 0.960 . S
C2339 C2337 1.381 . S
C2339 C2340 1.394 . S
C2339 H2347 0.930 . S
C2340 C2339 1.394 . S
C2340 C2341 1.383 . S
C2340 H2348 0.929 . S
C2341 C2340 1.383 . S
C2341 C2342 1.377 . S
C2342 H2326 0.930 . S
C2342 C2341 1.377 . S
C2342 C2343 1.379 . S
C2343 H2327 0.931 . S
C2343 C2337 1.383 . S
C2343 C2342 1.379 . S
H2344 C2338 0.959 . S
H2345 C2338 0.961 . S
H2346 C2338 0.960 . S
H2347 C2339 0.930 . S
H2348 C2340 0.929 . S
C414 C162 1.405 . S
C433 C233 1.359 . S
C450 C174 1.392 . S
C469 C254 1.318 . S
C486 C150 1.344 . S
C505 C276 1.146 . S
C522 C138 1.332 . S
C541 C255 1.203 . S
C577 C275 1.323 . S
C558 C114 1.396 . S
C594 C126 1.335 1_554 S
C613 C234 1.226 . S
C649 C229 1.334 . S
C630 C136 1.402 1_554 S
C685 C250 1.335 . S
C666 C112 1.381 1_554 S
C702 C124 1.463 . S
C721 C273 1.314 . S
C738 C160 1.419 . S
C757 C252 1.196 . S
C774 C172 1.373 . S
C793 C271 1.312 . S
C829 C231 1.199 . S
C810 C148 1.435 . S
C865 C296 1.395 . S
C846 C18 1.400 . S
C882 C30 1.391 . S
C901 C317 1.323 . S
C918 C6 1.344 . S
C937 C339 1.166 . S
C954 C210 1.331 . S
C973 C318 1.215 . S
C990 C186 1.395 . S
C1009 C338 1.327 . S
C1026 C198 1.343 . S
C1045 C297 1.238 . S
C1062 C208 1.402 . S
C1081 C292 1.334 . S
C1098 C184 1.387 . S
C1117 C313 1.360 . S
C1153 C336 1.233 . S
C1134 C196 1.453 . S
C1170 C16 1.428 . S
C1189 C315 1.279 . S
C1225 C334 1.313 . S
C1206 C28 1.368 . S
C1242 C4 1.439 . S
C1261 C294 1.230 . S
C1297 C359 1.395 . S
C1278 C90 1.400 . S
C1314 C102 1.387 . S
C1333 C380 1.359 . S
C1369 C402 1.167 . S
C1350 C78 1.344 . S
C1405 C381 1.128 . S
C1386 C66 1.332 . S
C1441 C401 1.329 . S
C1422 C42 1.395 . S
C1458 C54 1.348 . S
C1477 C360 1.145 . S
C1494 C64 1.411 . S
C1513 C355 1.387 . S
C1530 C40 1.392 . S
C1549 C376 1.397 . S
C1585 C399 1.205 . S
C1566 C52 1.451 . S
C1602 C88 1.419 . S
C1621 C378 1.192 . S
C1638 C100 1.368 . S
C1657 C397 1.310 . S
C1674 C76 1.435 . S
C1693 C357 1.199 . S
C1710 C189 1.482 . S
C1729 C232 1.444 . S
C1765 C253 1.514 . S
C1746 C201 1.539 . S
C1782 C213 1.560 . S
C1801 C272 1.508 . S
C1818 C81 1.647 . S
C1837 C251 1.601 . S
C1854 C93 1.566 . S
C1873 C274 1.529 . S
C1909 C230 1.501 . S
C1890 C105 1.582 . S
C1926 C45 1.485 . S
C1945 C295 1.473 . S
C1962 C57 1.543 . S
C1981 C316 1.531 . S
C1998 C69 1.563 . S
C2017 C335 1.522 . S
C2034 C153 1.643 . S
C2053 C314 1.583 . S
C2089 C337 1.534 . S
C2070 C165 1.569 . S
C2106 C177 1.582 . S
C2125 C293 1.523 . S
C2142 C117 1.484 . S
C2161 C358 1.450 . S
C2178 C129 1.540 . S
C2197 C379 1.535 . S
C2233 C398 1.482 . S
C2214 C141 1.559 . S
C2250 C9 1.644 . S
C2269 C377 1.587 . S
C2286 C21 1.567 . S
C2305 C400 1.527 . S
C2322 C33 1.586 . S
C2341 C356 1.507 . S
