# Generated by pormake.
# Topology zzz, (3,6)-cn, num edge types: 1
# Building blocks:
#     Node 0, Type 0, BuildingBlock: BETDIP_clean_linker_0, # of connection points: 3
#     Node 1, Type 0, BuildingBlock: BETDIP_clean_linker_0, # of connection points: 3
#     Node 2, Type 0, BuildingBlock: BETDIP_clean_linker_0, # of connection points: 3
#     Node 3, Type 0, BuildingBlock: BETDIP_clean_linker_0, # of connection points: 3
#     Node 4, Type 0, BuildingBlock: BETDIP_clean_linker_0, # of connection points: 3
#     Node 5, Type 0, BuildingBlock: BETDIP_clean_linker_0, # of connection points: 3
#     Node 6, Type 0, BuildingBlock: BETDIP_clean_linker_0, # of connection points: 3
#     Node 7, Type 0, BuildingBlock: BETDIP_clean_linker_0, # of connection points: 3
#     Node 8, Type 1, BuildingBlock: PAMTOO_clean_sbu_0, # of connection points: 6
#     Node 9, Type 1, BuildingBlock: PAMTOO_clean_sbu_0, # of connection points: 6
#     Node 10, Type 1, BuildingBlock: PAMTOO_clean_sbu_0, # of connection points: 6
#     Node 11, Type 1, BuildingBlock: PAMTOO_clean_sbu_0, # of connection points: 6
#     Edge 12, Type (0, 1), BuildingBlock: XUDNAN_clean_linker_2, # of connection points: 2
#     Edge 13, Type (0, 1), BuildingBlock: XUDNAN_clean_linker_2, # of connection points: 2
#     Edge 14, Type (0, 1), BuildingBlock: XUDNAN_clean_linker_2, # of connection points: 2
#     Edge 15, Type (0, 1), BuildingBlock: XUDNAN_clean_linker_2, # of connection points: 2
#     Edge 16, Type (0, 1), BuildingBlock: XUDNAN_clean_linker_2, # of connection points: 2
#     Edge 17, Type (0, 1), BuildingBlock: XUDNAN_clean_linker_2, # of connection points: 2
#     Edge 18, Type (0, 1), BuildingBlock: XUDNAN_clean_linker_2, # of connection points: 2
#     Edge 19, Type (0, 1), BuildingBlock: XUDNAN_clean_linker_2, # of connection points: 2
#     Edge 20, Type (0, 1), BuildingBlock: XUDNAN_clean_linker_2, # of connection points: 2
#     Edge 21, Type (0, 1), BuildingBlock: XUDNAN_clean_linker_2, # of connection points: 2
#     Edge 22, Type (0, 1), BuildingBlock: XUDNAN_clean_linker_2, # of connection points: 2
#     Edge 23, Type (0, 1), BuildingBlock: XUDNAN_clean_linker_2, # of connection points: 2
#     Edge 24, Type (0, 1), BuildingBlock: XUDNAN_clean_linker_2, # of connection points: 2
#     Edge 25, Type (0, 1), BuildingBlock: XUDNAN_clean_linker_2, # of connection points: 2
#     Edge 26, Type (0, 1), BuildingBlock: XUDNAN_clean_linker_2, # of connection points: 2
#     Edge 27, Type (0, 1), BuildingBlock: XUDNAN_clean_linker_2, # of connection points: 2
#     Edge 28, Type (0, 1), BuildingBlock: XUDNAN_clean_linker_2, # of connection points: 2
#     Edge 29, Type (0, 1), BuildingBlock: XUDNAN_clean_linker_2, # of connection points: 2
#     Edge 30, Type (0, 1), BuildingBlock: XUDNAN_clean_linker_2, # of connection points: 2
#     Edge 31, Type (0, 1), BuildingBlock: XUDNAN_clean_linker_2, # of connection points: 2
#     Edge 32, Type (0, 1), BuildingBlock: XUDNAN_clean_linker_2, # of connection points: 2
#     Edge 33, Type (0, 1), BuildingBlock: XUDNAN_clean_linker_2, # of connection points: 2
#     Edge 34, Type (0, 1), BuildingBlock: XUDNAN_clean_linker_2, # of connection points: 2
#     Edge 35, Type (0, 1), BuildingBlock: XUDNAN_clean_linker_2, # of connection points: 2
# Relax obj value: 0.221
# Max RMSD: 0.239
# Mean RMSD: 0.125
data_MOF--net-zzz--node1-PAMTOO_clean_sbu_0--node2-BETDIP_clean_linker_0--edge1-XUDNAN_clean_linker_2
_symmetry_space_group_name_H-M    P1
_symmetry_Int_Tables_number       1
_symmetry_cell_setting            triclinic
loop_
_symmetry_equiv_pos_as_xyz
'x, y, z'
_cell_length_a     57.345978
_cell_length_b     49.427743
_cell_length_c     15.571148
_cell_angle_alpha  91.71154
_cell_angle_beta   79.351749
_cell_angle_gamma 86.071336
loop_
_atom_site_label
_atom_site_type_symbol
_atom_site_fract_x
_atom_site_fract_y
_atom_site_fract_z
_atom_type_partial_charge
H0 H 0.80131 0.54186 0.60752 0.0
H1 H 0.78978 0.51599 0.3529 0.0
H2 H 0.85914 0.5033 0.41721 0.0
H3 H 0.76146 0.57343 0.42945 0.0
C4 C 0.75578 0.5536 0.44859 0.0
C5 C 0.80818 0.53279 0.54281 0.0
C6 C 0.83255 0.52392 0.51854 0.0
C7 C 0.79281 0.53067 0.48197 0.0
C8 C 0.80166 0.51863 0.39866 0.0
C9 C 0.8253 0.50811 0.37647 0.0
C10 C 0.84072 0.5113 0.4355 0.0
N11 N 0.76816 0.53894 0.50597 0.0
H12 H 0.03812 0.73904 0.52741 0.0
H13 H 0.98609 0.72083 0.37172 0.0
H14 H 0.98249 0.79909 0.50249 0.0
H15 H 0.99704 0.67192 0.46413 0.0
C16 C 1.01242 0.67639 0.41604 0.0
C17 C 0.02162 0.74459 0.50566 0.0
C18 C 1.01032 0.77079 0.52597 0.0
C19 C 1.01193 0.72578 0.45486 0.0
C20 C 0.99197 0.73411 0.4188 0.0
C21 C 0.98149 0.7607 0.43466 0.0
C22 C 0.98983 0.77815 0.4929 0.0
N23 N 0.02433 0.70007 0.42932 0.0
H24 H 0.7687 0.99723 0.46724 0.0
H25 H 0.78797 0.01152 0.19186 0.0
H26 H 0.71452 0.01208 0.31233 0.0
H27 H 0.82052 0.96488 0.26217 0.0
C28 C 0.82365 0.98595 0.27452 0.0
C29 C 0.76353 1.00089 0.4049 0.0
C30 C 0.73905 1.00287 0.39872 0.0
C31 C 0.78137 1.00309 0.32917 0.0
C32 C 0.77458 0.00854 0.24903 0.0
C33 C 0.75055 0.01239 0.24422 0.0
C34 C 0.7331 0.00889 0.31779 0.0
N35 N 0.806 1.00241 0.33407 0.0
H36 H 0.54341 0.74417 0.38622 0.0
H37 H 0.5119 0.73479 0.15644 0.0
H38 H 0.50407 0.67541 0.35316 0.0
H39 H 0.53687 0.76604 0.1062 0.0
C40 C 0.53568 0.78025 0.16163 0.0
C41 C 0.5328 0.73305 0.34863 0.0
C42 C 0.52546 0.70753 0.37523 0.0
C43 C 0.52714 0.74372 0.27107 0.0
C44 C 0.51519 0.72771 0.21836 0.0
C45 C 0.50781 0.70221 0.24529 0.0
C46 C 0.51111 0.69399 0.3278 0.0
N47 N 0.53372 0.77029 0.24762 0.0
H48 H 0.25328 0.48924 0.94245 0.0
H49 H 0.25825 0.4908 0.2153 0.0
H50 H 0.18992 0.49051 0.14234 0.0
H51 H 0.28271 0.52945 0.1391 0.0
C52 C 0.29391 0.51166 0.10985 0.0
C53 C 0.24487 0.48889 0.01063 0.0
C54 C 0.21973 0.48914 0.03413 0.0
C55 C 0.25886 0.4901 0.0765 0.0
C56 C 0.24772 0.48989 0.16429 0.0
C57 C 0.22311 0.49002 0.18789 0.0
C58 C 0.20915 0.48954 0.12318 0.0
N59 N 0.2838 0.49332 0.05676 0.0
H60 H 0.04419 0.26891 0.05366 0.0
H61 H 0.99843 0.29612 0.29725 0.0
H62 H 0.99651 0.21507 0.19453 0.0
H63 H 0.99706 0.33545 0.20235 0.0
C64 C 1.01614 0.33593 0.19915 0.0
C65 C 0.03038 0.26517 0.10864 0.0
C66 C 0.0206 0.2397 0.11495 0.0
C67 C 0.02173 0.28605 0.17279 0.0
C68 C 1.00437 0.28068 0.24551 0.0
C69 C 0.99509 0.25527 0.25346 0.0
C70 C 1.00303 0.23513 0.18732 0.0
N71 N 0.03092 0.31214 0.16628 0.0
H72 H 0.28483 0.00932 0.14466 0.0
H73 H 0.26844 0.98917 0.4162 0.0
H74 H 0.34086 0.98593 0.28446 0.0
H75 H 0.23927 0.96556 0.352 0.0
C76 C 0.23222 0.98512 0.33385 0.0
C77 C 0.29056 1.0025 0.2034 0.0
C78 C 0.31526 0.99748 0.20422 0.0
C79 C 0.27332 0.99802 0.27902 0.0
C80 C 0.28114 0.99073 0.35599 0.0
C81 C 0.30524 0.9861 0.35712 0.0
C82 C 0.3221 0.98881 0.28137 0.0
N83 N 0.24826 1.00145 0.28006 0.0
H84 H 0.49662 0.26221 0.21634 0.0
H85 H 0.53183 0.26136 0.43851 0.0
H86 H 0.5213 0.33547 0.30844 0.0
H87 H 0.54352 0.2134 0.34605 0.0
C88 C 0.52461 0.21146 0.36799 0.0
C89 C 0.5054 0.27277 0.26182 0.0
C90 C 0.50979 0.30026 0.25102 0.0
C91 C 0.51328 0.25867 0.33011 0.0
C92 C 0.52555 0.27229 0.38696 0.0
C93 C 0.52901 0.30005 0.3789 0.0
C94 C 0.52018 0.31374 0.31279 0.0
N95 N 0.50798 0.23122 0.34393 0.0
Dy96 Dy 1.01318 0.01916 0.71283 0.0
Dy97 Dy 0.03581 0.99253 0.86971 0.0
C98 C 0.07003 0.00889 0.69222 0.0
O99 O 0.02626 0.97611 0.67165 0.0
O100 O 1.01738 0.96091 0.80822 0.0
O101 O 1.01477 0.04619 0.60669 0.0
O102 O 0.98595 0.0197 0.63338 0.0
O103 O 0.99769 1.00368 0.93298 0.0
O104 O 0.98088 0.01234 0.81284 0.0
O105 O 0.04451 0.03603 0.87022 0.0
O106 O 1.01321 0.05323 0.81093 0.0
O107 O 0.04114 0.9922 1.00353 0.0
O108 O 0.05576 0.95853 0.91266 0.0
C109 C 0.02215 0.95599 0.72372 0.0
O110 O 0.05204 0.02422 0.67451 0.0
O111 O 0.06716 0.99214 0.75717 0.0
C112 C 0.97744 0.06402 0.5906 0.0
C113 C 0.95474 0.11607 0.58758 0.0
C114 C 0.95636 0.10447 0.66781 0.0
C115 C 0.96771 0.0786 0.66928 0.0
C116 C 0.97428 0.07456 0.51103 0.0
C117 C 0.96301 0.10037 0.50939 0.0
C118 C 0.99417 0.04035 0.59047 0.0
C119 C 0.97896 0.00859 0.89688 0.0
C120 C 0.03047 0.05671 0.85431 0.0
C121 C 0.03523 0.94774 0.04954 0.0
C122 C 1.00667 0.90667 0.12092 0.0
C123 C 0.9962 0.93198 0.10429 0.0
C124 C 1.01032 0.95232 0.06954 0.0
C125 C 0.04585 0.92286 0.06882 0.0
C126 C 0.0317 0.90255 0.10487 0.0
C127 C 0.04935 0.96674 0.99461 0.0
H128 H 0.95009 0.11596 0.72902 0.0
H129 H 0.97019 0.07069 0.73141 0.0
H130 H 0.98195 0.06363 0.44984 0.0
H131 H 0.96256 0.10876 0.44621 0.0
H132 H 0.97706 0.93575 0.11483 0.0
H133 H 1.0016 0.97123 0.05484 0.0
H134 H 0.065 0.91877 0.05299 0.0
H135 H 0.04039 0.88348 0.11888 0.0
Dy136 Dy 0.52491 0.98783 0.74305 0.0
Dy137 Dy 0.53086 0.0279 0.90358 0.0
C138 C 0.51707 0.05272 0.73468 0.0
O139 O 0.56456 0.98667 0.71807 0.0
O140 O 0.56721 0.02134 0.81647 0.0
O141 O 0.52398 0.98294 0.60525 0.0
O142 O 0.51288 0.95116 0.69235 0.0
O143 O 0.53001 0.98606 0.95705 0.0
O144 O 0.53913 0.95904 0.83132 0.0
O145 O 0.49137 0.02945 0.9267 0.0
O146 O 0.48852 0.99357 0.83295 0.0
O147 O 0.53236 0.03632 0.0395 0.0
O148 O 0.54239 0.06616 0.94285 0.0
C149 C 0.57714 1.00377 0.75258 0.0
O150 O 0.52664 0.03007 0.69311 0.0
O151 O 0.5125 0.05461 0.82003 0.0
C152 C 0.4873 0.96611 0.60228 0.0
C153 C 0.43797 0.97115 0.60423 0.0
C154 C 0.4485 0.98933 0.65396 0.0
C155 C 0.47286 0.98746 0.64996 0.0
C156 C 0.47741 0.94794 0.55151 0.0
C157 C 0.453 0.95088 0.5505 0.0
C158 C 0.51158 0.96181 0.61771 0.0
C159 C 0.53597 0.9621 0.91676 0.0
C160 C 0.47871 0.01208 0.89412 0.0
C161 C 0.56838 0.0569 0.03737 0.0
C162 C 0.61819 0.05376 0.01914 0.0
C163 C 0.60589 0.03011 0.02778 0.0
C164 C 0.58127 0.03164 0.03637 0.0
C165 C 0.58047 0.08069 0.03351 0.0
C166 C 0.60523 0.07915 0.02457 0.0
C167 C 0.54405 0.05781 0.02022 0.0
H168 H 0.43821 1.00484 0.69814 0.0
H169 H 0.48035 1.00227 0.68732 0.0
H170 H 0.48841 0.93141 0.5138 0.0
H171 H 0.44619 0.93704 0.50789 0.0
H172 H 0.61532 0.0103 0.02643 0.0
H173 H 0.57253 0.01286 0.03748 0.0
H174 H 0.57091 0.10031 0.03213 0.0
H175 H 0.61429 0.09771 0.01853 0.0
Dy176 Dy 0.54597 0.50511 0.85462 0.0
Dy177 Dy 0.50142 0.49814 0.73511 0.0
C178 C 0.5085 0.45847 0.89692 0.0
O179 O 0.55346 0.46535 0.78176 0.0
O180 O 0.53551 0.47592 0.66676 0.0
O181 O 0.55731 0.51488 0.97664 0.0
O182 O 0.58381 0.50353 0.8576 0.0
O183 O 0.51551 0.53767 0.69502 0.0
O184 O 0.54958 0.53781 0.75635 0.0
O185 O 0.48854 0.5344 0.82628 0.0
O186 O 0.51397 0.5293 0.9254 0.0
O187 O 0.46467 0.49319 0.72229 0.0
O188 O 0.49321 0.48883 0.60835 0.0
C189 C 0.54894 0.45938 0.7046 0.0
O190 O 0.52675 0.47082 0.91496 0.0
O191 O 0.49674 0.4659 0.83515 0.0
C192 C 0.59915 0.51336 0.99133 0.0
C193 C 0.63481 0.51561 0.09516 0.0
C194 C 0.61309 0.53144 0.11884 0.0
C195 C 0.59537 0.53013 0.06793 0.0
C196 C 0.62112 0.49818 0.96615 0.0
C197 C 0.63868 0.49912 0.01783 0.0
C198 C 0.57977 0.51029 0.94121 0.0
C199 C 0.53494 0.54853 0.70826 0.0
C200 C 0.4955 0.54137 0.89941 0.0
C201 C 0.45339 0.4953 0.57904 0.0
C202 C 0.421 0.4971 0.46056 0.0
C203 C 0.44562 0.49809 0.43029 0.0
C204 C 0.46157 0.49718 0.48858 0.0
C205 C 0.42869 0.49553 0.60981 0.0
C206 C 0.41269 0.49661 0.55141 0.0
C207 C 0.47045 0.48803 0.63787 0.0
H208 H 0.60951 0.54422 0.17822 0.0
H209 H 0.57859 0.54202 0.08906 0.0
H210 H 0.6245 0.48497 0.90773 0.0
H211 H 0.6553 0.48687 0.99739 0.0
H212 H 0.45266 0.49891 0.36099 0.0
H213 H 0.48044 0.49673 0.46205 0.0
H214 H 0.42177 0.49358 0.67876 0.0
H215 H 0.39389 0.49566 0.57716 0.0
Dy216 Dy 0.03322 0.5371 0.71701 0.0
Dy217 Dy 0.02126 0.48656 0.84018 0.0
C218 C 0.03201 0.47789 0.63495 0.0
O219 O 0.99665 0.52856 0.69767 0.0
O220 O 0.98556 0.50539 0.82303 0.0
O221 O 0.04942 0.5545 0.59676 0.0
O222 O 0.03169 0.58074 0.70593 0.0
O223 O 0.02836 0.52084 0.92801 0.0
O224 O 1.01402 0.55323 0.84761 0.0
O225 O 0.06084 0.48317 0.79793 0.0
O226 O 0.06508 0.52826 0.78039 0.0
O227 O 1.00579 0.47049 0.96302 0.0
O228 O 0.02517 0.4434 0.85779 0.0
C229 C 0.9802 0.5181 0.755 0.0
O230 O 0.04453 0.49923 0.6317 0.0
O231 O 1.01707 0.47311 0.70626 0.0
C232 C 0.0702 0.58998 0.63739 0.0
C233 C 0.11918 0.58175 0.62962 0.0
C234 C 0.10381 0.58273 0.71075 0.0
C235 C 0.07939 0.58709 0.71476 0.0
C236 C 0.08579 0.59394 0.55909 0.0
C237 C 0.1103 0.59002 0.55533 0.0
C238 C 0.04732 0.57884 0.6334 0.0
C239 C 0.02051 0.54603 0.92025 0.0
C240 C 0.07407 0.50385 0.79287 0.0
C241 C 0.98985 0.42944 0.94141 0.0
C242 C 0.94195 0.41756 0.97141 0.0
C243 C 0.955 0.41695 0.03997 0.0
C244 C 0.97878 0.42278 0.02485 0.0
C245 C 0.97797 0.4266 0.87077 0.0
C246 C 0.95424 0.42031 0.88557 0.0
C247 C 1.01067 0.44538 0.9332 0.0
H248 H 0.11032 0.57644 0.76863 0.0
H249 H 0.06782 0.58403 0.77629 0.0
H250 H 0.07911 0.59613 0.49875 0.0
H251 H 0.12191 0.58932 0.49179 0.0
H252 H 0.9464 0.41512 0.10728 0.0
H253 H 0.9877 0.42494 0.08003 0.0
H254 H 0.98626 0.43163 0.80547 0.0
H255 H 0.94496 0.4202 0.83098 0.0
H256 H 0.20527 0.96177 0.46929 0.0
H257 H 0.20392 0.03029 0.30251 0.0
H258 H 0.16277 0.04447 0.37949 0.0
H259 H 0.14546 0.94558 0.48174 0.0
H260 H 0.14099 0.93718 0.59519 0.0
H261 H 0.17035 0.93306 0.52885 0.0
H262 H 0.18613 0.9639 0.63929 0.0
H263 H 0.1568 0.96803 0.70619 0.0
H264 H 0.17193 0.99744 0.66827 0.0
H265 H 0.12098 0.0497 0.47137 0.0
H266 H 0.08271 0.04683 0.5713 0.0
H267 H 0.11156 0.97527 0.6823 0.0
C268 C 0.19631 0.97982 0.44903 0.0
C269 C 0.20773 0.99486 0.3794 0.0
C270 C 0.19553 0.01845 0.35538 0.0
C271 C 0.17216 0.02662 0.39889 0.0
C272 C 0.16138 0.01117 0.46699 0.0
C273 C 0.17318 0.98838 0.49242 0.0
C274 C 0.15772 0.97529 0.56758 0.0
C275 C 0.15337 0.94605 0.54175 0.0
C276 C 0.16881 0.97623 0.65021 0.0
C277 C 0.13503 0.99382 0.57925 0.0
C278 C 0.13759 0.01446 0.52082 0.0
C279 C 0.11892 0.03372 0.51761 0.0
C280 C 0.09714 0.03184 0.5749 0.0
C281 C 0.09391 0.01083 0.63541 0.0
C282 C 0.11334 0.99171 0.63765 0.0
H283 H 0.54912 0.16257 0.37329 0.0
H284 H 0.48357 0.20916 0.49005 0.0
H285 H 0.47362 0.17277 0.59381 0.0
H286 H 0.52375 0.09574 0.39084 0.0
H287 H 0.55079 0.07886 0.41259 0.0
H288 H 0.55211 0.10814 0.34611 0.0
H289 H 0.57584 0.13174 0.44936 0.0
H290 H 0.57447 0.10264 0.5164 0.0
H291 H 0.56356 0.13577 0.56467 0.0
H292 H 0.47337 0.13336 0.69555 0.0
H293 H 0.48034 0.09186 0.77548 0.0
H294 H 0.54406 0.06889 0.5833 0.0
C295 C 0.53249 0.16485 0.41988 0.0
C296 C 0.51706 0.18858 0.42364 0.0
C297 C 0.4955 0.191 0.4855 0.0
C298 C 0.48978 0.17048 0.54492 0.0
C299 C 0.50555 0.14743 0.54027 0.0
C300 C 0.52623 0.14426 0.47802 0.0
C301 C 0.54012 0.11752 0.48638 0.0
C302 C 0.54178 0.09896 0.40409 0.0
C303 C 0.56496 0.12221 0.50535 0.0
C304 C 0.52441 0.10643 0.56467 0.0
C305 C 0.50464 0.12408 0.59531 0.0
C306 C 0.48852 0.11916 0.67098 0.0
C307 C 0.49266 0.09562 0.71616 0.0
C308 C 0.51252 0.07701 0.68483 0.0
C309 C 0.52844 0.08246 0.60763 0.0
H310 H 0.30309 0.53151 0.26327 0.0
H311 H 0.33204 0.47448 0.04691 0.0
H312 H 0.36754 0.46403 0.11405 0.0
H313 H 0.35671 0.5581 0.29478 0.0
H314 H 0.34903 0.56014 0.41252 0.0
H315 H 0.32593 0.56251 0.3484 0.0
H316 H 0.30617 0.52248 0.42901 0.0
H317 H 0.32915 0.52006 0.49383 0.0
H318 H 0.32347 0.49075 0.43138 0.0
H319 H 0.40094 0.46201 0.20256 0.0
H320 H 0.42801 0.46595 0.30786 0.0
H321 H 0.37622 0.52315 0.46969 0.0
C322 C 0.31692 0.51676 0.23009 0.0
C323 C 0.31499 0.50395 0.14945 0.0
C324 C 0.33322 0.48453 0.10855 0.0
C325 C 0.35342 0.47853 0.14628 0.0
C326 C 0.35486 0.49177 0.22563 0.0
C327 C 0.33688 0.5102 0.26762 0.0
C328 C 0.34245 0.52138 0.35289 0.0
C329 C 0.3436 0.55237 0.35203 0.0
C330 C 0.32423 0.51317 0.43141 0.0
C331 C 0.36677 0.50704 0.35133 0.0
C332 C 0.37361 0.49002 0.27747 0.0
C333 C 0.39565 0.47518 0.26068 0.0
C334 C 0.41101 0.47774 0.32071 0.0
C335 C 0.40439 0.49497 0.3972 0.0
C336 C 0.38181 0.50965 0.41245 0.0
H337 H 0.98914 0.36544 0.33442 0.0
H338 H 0.06108 0.35442 0.18573 0.0
H339 H 0.07303 0.39121 0.27737 0.0
H340 H 0.98558 0.4376 0.37184 0.0
H341 H 0.96916 0.4368 0.48212 0.0
H342 H 0.96637 0.4107 0.4022 0.0
H343 H 0.97867 0.37377 0.50346 0.0
H344 H 0.98137 0.39972 0.58391 0.0
H345 H 1.0062 0.37555 0.54285 0.0
H346 H 0.07617 0.43096 0.38482 0.0
H347 H 0.07155 0.46554 0.5069 0.0
H348 H 0.99826 0.44683 0.59046 0.0
C349 C 1.00739 0.37091 0.32084 0.0
C350 C 0.02417 0.35744 0.25263 0.0
C351 C 0.04798 0.36466 0.23765 0.0
C352 C 0.05486 0.38555 0.28916 0.0
C353 C 0.03776 0.39855 0.35611 0.0
C354 C 1.0146 0.39112 0.37272 0.0
C355 C 0.99985 0.40691 0.45123 0.0
C356 C 0.97902 0.42402 0.42526 0.0
C357 C 0.99101 0.38785 0.5247 0.0
C358 C 1.0182 0.42467 0.47619 0.0
C359 C 0.0399 0.41993 0.42004 0.0
C360 C 0.0593 0.43462 0.42942 0.0
C361 C 0.0565 0.45429 0.49861 0.0
C362 C 0.03461 0.4587 0.55832 0.0
C363 C 1.01528 0.44372 0.54633 0.0
H364 H 0.86836 0.9603 0.23864 0.0
H365 H 0.82862 0.03487 0.19657 0.0
H366 H 0.86415 0.0492 0.09678 0.0
H367 H 0.9245 0.993 0.24154 0.0
H368 H 0.94289 0.96377 0.19078 0.0
H369 H 0.91451 0.95945 0.25888 0.0
H370 H 0.90154 0.93279 0.13249 0.0
H371 H 0.92988 0.93677 0.06373 0.0
H372 H 0.90278 0.94798 0.02804 0.0
H373 H 0.90296 0.05238 0.987 0.0
H374 H 0.94337 0.04795 0.89547 0.0
H375 H 0.95962 0.97407 0.02257 0.0
C376 C 0.86733 0.97986 0.20952 0.0
C377 C 0.84578 0.99656 0.22555 0.0
C378 C 0.84502 0.02196 0.18615 0.0
C379 C 0.86509 0.03013 0.12886 0.0
C380 C 0.88602 0.01302 0.11346 0.0
C381 C 0.88745 0.98874 0.15465 0.0
C382 C 0.91228 0.97453 0.12955 0.0
C383 C 0.92425 0.97257 0.20995 0.0
C384 C 0.91156 0.94635 0.08584 0.0
C385 C 0.92436 0.99397 0.06484 0.0
C386 C 0.90883 0.01595 0.05587 0.0
C387 C 0.91537 0.03557 0.9951 0.0
C388 C 0.93833 0.03283 0.94304 0.0
C389 C 0.95478 0.01096 0.95292 0.0
C390 C 0.94764 0.99137 0.01508 0.0
H391 H 0.54021 0.80306 1.00334 0.0
H392 H 0.53327 0.82381 0.27985 0.0
H393 H 0.53398 0.87255 0.24712 0.0
H394 H 0.57986 0.85437 0.92246 0.0
H395 H 0.56604 0.86087 0.82937 0.0
H396 H 0.56569 0.82777 0.87478 0.0
H397 H 0.51971 0.83048 0.89462 0.0
H398 H 0.51993 0.86353 0.84903 0.0
H399 H 0.50244 0.85899 0.95561 0.0
H400 H 0.53448 0.9195 0.18286 0.0
H401 H 0.53423 0.96014 0.09421 0.0
H402 H 0.54087 0.90831 0.85959 0.0
C403 C 0.53902 0.81787 0.05697 0.0
C404 C 0.53681 0.80963 0.14409 0.0
C405 C 0.5351 0.8296 0.21256 0.0
C406 C 0.53549 0.85735 0.19451 0.0
C407 C 0.53763 0.86479 0.10769 0.0
C408 C 0.53936 0.84556 0.04008 0.0
C409 C 0.54085 0.85877 0.95274 0.0
C410 C 0.56452 0.84992 0.89123 0.0
C411 C 0.51946 0.85258 0.91054 0.0
C412 C 0.53974 0.88849 0.98144 0.0
C413 C 0.53788 0.89158 0.07103 0.0
C414 C 0.53604 0.91724 0.11264 0.0
C415 C 0.53592 0.94026 0.06159 0.0
C416 C 0.53765 0.93759 0.96961 0.0
C417 C 0.53976 0.91121 0.92948 0.0
H418 H 0.72282 0.58126 0.37323 0.0
H419 H 0.74708 0.49973 0.42812 0.0
H420 H 0.71845 0.48102 0.34504 0.0
H421 H 0.65977 0.56772 0.39445 0.0
H422 H 0.65503 0.59015 0.30915 0.0
H423 H 0.67699 0.59683 0.37466 0.0
H424 H 0.70918 0.5972 0.23396 0.0
H425 H 0.68737 0.59036 0.16813 0.0
H426 H 0.71412 0.56819 0.15808 0.0
H427 H 0.68907 0.4714 0.24528 0.0
H428 H 0.65891 0.47165 0.15022 0.0
H429 H 0.65212 0.55963 0.16843 0.0
C430 C 0.72186 0.55947 0.36864 0.0
C431 C 0.73713 0.54194 0.40712 0.0
C432 C 0.73543 0.51355 0.39976 0.0
C433 C 0.71928 0.50276 0.35234 0.0
C434 C 0.70465 0.52065 0.31417 0.0
C435 C 0.70551 0.54844 0.32328 0.0
C436 C 0.68774 0.56333 0.27691 0.0
C437 C 0.66876 0.58052 0.34272 0.0
C438 C 0.70036 0.58079 0.20501 0.0
C439 C 0.67714 0.53962 0.23819 0.0
C440 C 0.68719 0.51515 0.26007 0.0
C441 C 0.68093 0.49046 0.22871 0.0
C442 C 0.66389 0.4908 0.17428 0.0
C443 C 0.65308 0.51564 0.15213 0.0
C444 C 0.65982 0.54032 0.18506 0.0
H445 H 1.00391 0.62325 0.39127 0.0
H446 H 0.03449 0.69154 0.25544 0.0
H447 H 0.04091 0.66473 0.11549 0.0
H448 H 0.04526 0.57064 0.25661 0.0
H449 H 0.02269 0.54683 0.25991 0.0
H450 H 0.02135 0.57103 0.34994 0.0
H451 H 0.9787 0.5881 0.33414 0.0
H452 H 0.97999 0.56418 0.24359 0.0
H453 H 0.9735 0.59985 0.23029 0.0
H454 H 0.03902 0.63311 0.98977 0.0
H455 H 0.03466 0.59614 0.88599 0.0
H456 H 1.00997 0.54539 0.10159 0.0
C457 C 1.01232 0.63231 0.33206 0.0
C458 C 0.01879 0.6594 0.33395 0.0
C459 C 0.02965 0.67074 0.25553 0.0
C460 C 0.03325 0.6557 0.17571 0.0
C461 C 0.02637 0.62917 0.1758 0.0
C462 C 1.01663 0.61729 0.25202 0.0
C463 C 1.01095 0.58833 0.2335 0.0
C464 C 0.02596 0.568 0.27761 0.0
C465 C 0.9842 0.58493 0.26207 0.0
C466 C 0.01841 0.58605 0.13459 0.0
C467 C 0.02697 0.61004 0.10298 0.0
C468 C 0.03298 0.61399 0.0138 0.0
C469 C 0.03041 0.59285 0.9553 0.0
C470 C 0.02255 0.56769 0.98564 0.0
C471 C 1.01658 0.56419 0.07668 0.0
H472 H 0.95561 0.22703 0.26674 0.0
H473 H 1.00006 0.26604 0.42199 0.0
H474 H 0.9816 0.24247 0.55109 0.0
H475 H 0.90262 0.21571 0.45977 0.0
H476 H 0.89969 0.18302 0.41001 0.0
H477 H 0.90809 0.21106 0.3423 0.0
H478 H 0.94558 0.18194 0.26259 0.0
H479 H 0.93749 0.15415 0.3298 0.0
H480 H 0.96623 0.16727 0.32583 0.0
H481 H 0.97031 0.20471 0.64265 0.0
H482 H 0.96798 0.15745 0.68444 0.0
H483 H 0.92957 0.14121 0.47589 0.0
C484 C 0.96053 0.23152 0.32923 0.0
C485 C 0.97918 0.24825 0.33463 0.0
C486 C 0.98551 0.25361 0.4167 0.0
C487 C 0.97507 0.24026 0.49056 0.0
C488 C 0.95816 0.22188 0.48144 0.0
C489 C 0.95054 0.21791 0.40288 0.0
C490 C 0.9365 0.19305 0.40355 0.0
C491 C 0.91016 0.20121 0.40398 0.0
C492 C 0.94711 0.17295 0.326 0.0
C493 C 0.93979 0.18189 0.4903 0.0
C494 C 0.9514 0.19941 0.53607 0.0
C495 C 0.9604 0.1913 0.60937 0.0
C496 C 0.9589 0.16427 0.633 0.0
C497 C 0.94862 0.1456 0.58303 0.0
C498 C 0.93746 0.15514 0.51514 0.0
H499 H 0.32939 0.94152 0.40244 0.0
H500 H 0.30107 0.02294 0.49091 0.0
H501 H 0.32666 0.02292 0.60157 0.0
H502 H 0.34364 0.92 0.6354 0.0
H503 H 0.36982 0.90023 0.57856 0.0
H504 H 0.34305 0.90227 0.53304 0.0
H505 H 0.36724 0.9185 0.38926 0.0
H506 H 0.39378 0.91755 0.43443 0.0
H507 H 0.38316 0.94867 0.39217 0.0
H508 H 0.36448 0.02195 0.6473 0.0
H509 H 0.40644 0.01683 0.65176 0.0
H510 H 0.40898 0.93233 0.55999 0.0
C511 C 0.3276 0.95846 0.4495 0.0
C512 C 0.31341 0.98209 0.43977 0.0
C513 C 0.31169 1.00454 0.49921 0.0
C514 C 0.32614 1.00464 0.56215 0.0
C515 C 0.3416 0.98185 0.56576 0.0
C516 C 0.34169 0.95858 0.51371 0.0
C517 C 0.36264 0.93881 0.51966 0.0
C518 C 0.35428 0.91385 0.56968 0.0
C519 C 0.37757 0.93045 0.42852 0.0
C520 C 0.37599 0.95616 0.57267 0.0
C521 C 0.36332 0.98064 0.60013 0.0
C522 C 0.37405 1.00226 0.63157 0.0
C523 C 0.39827 0.99898 0.63398 0.0
C524 C 0.41168 0.97385 0.6077 0.0
C525 C 0.39982 0.95194 0.58014 0.0
H526 H 0.55608 0.34348 0.34228 0.0
H527 H 0.52775 0.29329 0.55562 0.0
H528 H 0.53949 0.32576 0.66005 0.0
H529 H 0.60158 0.37805 0.44085 0.0
H530 H 0.59292 0.41014 0.39941 0.0
H531 H 0.59078 0.37895 0.33926 0.0
H532 H 0.54623 0.39236 0.34082 0.0
H533 H 0.54813 0.42337 0.40122 0.0
H534 H 0.5264 0.40015 0.44401 0.0
H535 H 0.54831 0.36687 0.743 0.0
H536 H 0.54787 0.41412 0.79835 0.0
H537 H 0.56117 0.4412 0.53281 0.0
C538 C 0.55251 0.33895 0.41083 0.0
C539 C 0.54066 0.31579 0.44031 0.0
C540 C 0.53708 0.31054 0.53058 0.0
C541 C 0.54364 0.32901 0.59063 0.0
C542 C 0.55344 0.35275 0.55954 0.0
C543 C 0.55759 0.35785 0.47156 0.0
C544 C 0.56302 0.38705 0.45581 0.0
C545 C 0.58861 0.38863 0.40589 0.0
C546 C 0.54486 0.40157 0.4077 0.0
C547 C 0.56029 0.398 0.54905 0.0
C548 C 0.55592 0.37759 0.60765 0.0
C549 C 0.55193 0.3829 0.69764 0.0
C550 C 0.5517 0.40983 0.72846 0.0
C551 C 0.55442 0.4312 0.66963 0.0
C552 C 0.55922 0.42515 0.57887 0.0
H553 H 0.22539 0.53581 0.28034 0.0
H554 H 0.19518 0.45794 0.29845 0.0
H555 H 0.17421 0.47081 0.44968 0.0
H556 H 0.22619 0.54875 0.52541 0.0
H557 H 0.21726 0.58411 0.51725 0.0
H558 H 0.23617 0.56564 0.42572 0.0
H559 H 0.2061 0.57927 0.32574 0.0
H560 H 0.18757 0.59796 0.41608 0.0
H561 H 0.17544 0.5718 0.35817 0.0
H562 H 0.1513 0.49461 0.5826 0.0
H563 H 0.12169 0.52883 0.66299 0.0
H564 H 0.164 0.59298 0.55433 0.0
C565 C 0.21505 0.52118 0.31802 0.0
C566 C 0.21209 0.49582 0.27989 0.0
C567 C 0.19777 0.47734 0.3281 0.0
C568 C 0.18615 0.48439 0.4141 0.0
C569 C 0.18903 0.50997 0.44986 0.0
C570 C 0.20295 0.52822 0.40253 0.0
C571 C 0.19884 0.55637 0.44563 0.0
C572 C 0.22093 0.56417 0.48059 0.0
C573 C 0.19152 0.57755 0.38271 0.0
C574 C 0.17868 0.55187 0.51993 0.0
C575 C 0.17442 0.5246 0.52485 0.0
C576 C 0.15484 0.51584 0.58087 0.0
C577 C 0.13818 0.53545 0.62724 0.0
C578 C 0.14095 0.56341 0.61542 0.0
C579 C 0.16206 0.57168 0.56572 0.0
H580 H 0.99525 0.75989 0.2604 0.0
H581 H 0.93978 0.79301 0.47097 0.0
H582 H 0.93247 0.8323 0.38384 0.0
H583 H 0.02253 0.81062 0.23187 0.0
H584 H 0.03172 0.81053 0.11469 0.0
H585 H 0.02499 0.77946 0.1662 0.0
H586 H 0.99333 0.77118 0.07196 0.0
H587 H 1.00057 0.80186 0.0163 0.0
H588 H 0.97023 0.79736 0.06645 0.0
H589 H 0.94265 0.87385 0.30911 0.0
H590 H 0.96503 0.91103 0.24233 0.0
H591 H 1.01435 0.85243 0.07621 0.0
C592 C 0.98024 0.77431 0.2848 0.0
C593 C 0.96811 0.77358 0.37208 0.0
C594 C 0.94909 0.79316 0.40379 0.0
C595 C 0.94496 0.81569 0.35468 0.0
C596 C 0.95966 0.8179 0.27346 0.0
C597 C 0.97637 0.79715 0.23685 0.0
C598 C 0.99342 0.8067 0.15911 0.0
C599 C 0.01967 0.80154 0.16876 0.0
C600 C 0.98912 0.79349 0.07337 0.0
C601 C 0.98572 0.83665 0.16518 0.0
C602 C 0.96568 0.8426 0.22916 0.0
C603 C 0.95769 0.86934 0.25628 0.0
C604 C 0.97064 0.89039 0.21822 0.0
C605 C 0.99153 0.88462 0.15414 0.0
C606 C 0.99855 0.85744 0.12544 0.0
H607 H 0.72784 0.06065 0.23178 0.0
H608 H 0.75379 0.98547 0.08626 0.0
H609 H 0.72825 0.99662 0.97856 0.0
H610 H 0.67328 0.05295 0.23785 0.0
H611 H 0.66215 0.08758 0.22929 0.0
H612 H 0.68898 0.08078 0.27023 0.0
H613 H 0.71199 0.10946 0.1509 0.0
H614 H 0.6849 0.11691 0.11005 0.0
H615 H 0.71118 0.10225 0.03735 0.0
H616 H 0.6921 0.00751 0.91987 0.0
H617 H 0.64972 0.01702 0.91459 0.0
H618 H 0.64542 0.08454 0.10197 0.0
C619 C 0.72912 0.04753 0.17386 0.0
C620 C 0.74279 0.02254 0.16563 0.0
C621 C 0.74371 1.005 0.09186 0.0
C622 C 0.72924 0.01124 0.03065 0.0
C623 C 0.7142 0.03508 0.04458 0.0
C624 C 0.71439 0.05327 0.11389 0.0
C625 C 0.69307 0.0738 0.12767 0.0
C626 C 0.67853 0.07371 0.22169 0.0
C627 C 0.70075 0.1023 0.10509 0.0
C628 C 0.67965 0.06278 0.06125 0.0
C629 C 0.69252 0.04114 0.01152 0.0
C630 C 0.68222 0.02496 0.95619 0.0
C631 C 0.65806 0.03037 0.95417 0.0
C632 C 0.64442 0.05164 0.00765 0.0
C633 C 0.65564 0.06868 0.05868 0.0
H634 H 0.51572 0.64705 0.24082 0.0
H635 H 0.48196 0.71119 0.11085 0.0
H636 H 0.46961 0.67614 0.01422 0.0
H637 H 0.53646 0.60329 0.06631 0.0
H638 H 0.53034 0.57331 0.12709 0.0
H639 H 0.53598 0.60385 0.18241 0.0
H640 H 0.49561 0.60226 0.28927 0.0
H641 H 0.48967 0.57184 0.23307 0.0
H642 H 0.46854 0.60109 0.2464 0.0
H643 H 0.4659 0.6321 0.92042 0.0
H644 H 0.47078 0.58621 0.84699 0.0
H645 H 0.49865 0.55361 0.06612 0.0
C646 C 0.50478 0.65423 0.19535 0.0
C647 C 0.4993 0.6822 0.18611 0.0
C648 C 0.48642 0.68999 0.12007 0.0
C649 C 0.4791 0.67017 0.06543 0.0
C650 C 0.48424 0.64275 0.07932 0.0
C651 C 0.49651 0.63505 0.14406 0.0
C652 C 0.50056 0.60472 0.14687 0.0
C653 C 0.5274 0.5958 0.1296 0.0
C654 C 0.48782 0.59438 0.23407 0.0
C655 C 0.48909 0.59616 0.07202 0.0
C656 C 0.48004 0.61814 0.03222 0.0
C657 C 0.47222 0.61477 0.95288 0.0
C658 C 0.4748 0.58858 0.91194 0.0
C659 C 0.48494 0.56628 0.95113 0.0
C660 C 0.4906 0.57011 0.03467 0.0
H661 H 0.84513 0.45668 0.35913 0.0
H662 H 0.82501 0.52399 0.20991 0.0
H663 H 0.84462 0.49888 0.07264 0.0
H664 H 0.90028 0.44524 0.25306 0.0
H665 H 0.90243 0.40875 0.25656 0.0
H666 H 0.88143 0.42849 0.3377 0.0
H667 H 0.84734 0.40166 0.29729 0.0
H668 H 0.86844 0.38192 0.21481 0.0
H669 H 0.84286 0.40006 0.18571 0.0
H670 H 0.87475 0.47315 0.96188 0.0
H671 H 0.91325 0.45125 0.8913 0.0
H672 H 0.91126 0.3965 0.10476 0.0
C673 C 0.84422 0.46561 0.29703 0.0
C674 C 0.83373 0.49207 0.29408 0.0
C675 C 0.8329 0.50356 0.21268 0.0
C676 C 0.84381 0.48935 0.13468 0.0
C677 C 0.85483 0.4635 0.13971 0.0
C678 C 0.85477 0.45157 0.21901 0.0
C679 C 0.87096 0.42578 0.20881 0.0
C680 C 0.88988 0.42719 0.26738 0.0
C681 C 0.85653 0.40088 0.22776 0.0
C682 C 0.88185 0.42629 0.11276 0.0
C683 C 0.87184 0.44778 0.0734 0.0
C684 C 0.88216 0.45567 0.99072 0.0
C685 C 0.90414 0.44283 0.9505 0.0
C686 C 0.91558 0.42225 0.99313 0.0
C687 C 0.90308 0.41231 0.07105 0.0
H688 H 0.99383 0.21018 0.02516 0.0
H689 H 0.06582 0.21563 0.06873 0.0
H690 H 0.07722 0.17007 0.99612 0.0
H691 H 0.98893 0.14394 0.07597 0.0
H692 H 0.97181 0.13484 0.99478 0.0
H693 H 0.97025 0.16948 0.03549 0.0
H694 H 0.98282 0.18556 0.87785 0.0
H695 H 0.98391 0.15097 0.83634 0.0
H696 H 1.00959 0.17032 0.8094 0.0
H697 H 0.07866 0.12094 0.94196 0.0
H698 H 0.07154 0.07459 0.89395 0.0
H699 H 0.99871 0.10177 0.88181 0.0
C700 C 1.01224 0.2022 0.01603 0.0
C701 C 0.02908 0.21653 0.05124 0.0
C702 C 0.05283 0.20523 0.04041 0.0
C703 C 0.05936 0.17927 0.99999 0.0
C704 C 0.04199 0.16511 0.96971 0.0
C705 C 0.01903 0.17648 0.97539 0.0
C706 C 1.00325 0.15643 0.94368 0.0
C707 C 0.98234 0.15085 0.01684 0.0
C708 C 0.99438 0.16642 0.86195 0.0
C709 C 0.0207 0.1317 0.92163 0.0
C710 C 0.04295 0.13707 0.93713 0.0
C711 C 0.06144 0.11672 0.92789 0.0
C712 C 0.05718 0.09038 0.90123 0.0
C713 C 0.03463 0.08456 0.8835 0.0
C714 C 1.01625 0.10564 0.89354 0.0
H715 H 0.35262 0.96252 0.12285 0.0
H716 H 0.32368 0.04589 0.12724 0.0
H717 H 0.36176 0.05826 0.03918 0.0
H718 H 0.40881 0.9759 0.15149 0.0
H719 H 0.42486 0.94884 0.07966 0.0
H720 H 0.39446 0.94564 0.13128 0.0
H721 H 0.38286 0.93724 0.98015 0.0
H722 H 0.41337 0.9399 0.92802 0.0
H723 H 0.38996 0.96127 0.89609 0.0
H724 H 0.40543 0.06275 0.97304 0.0
H725 H 0.44887 0.05801 0.91668 0.0
H726 H 0.44918 0.97111 0.94581 0.0
C727 C 0.35397 0.98315 0.10193 0.0
C728 C 0.33489 1.00316 0.13051 0.0
C729 C 0.33768 0.0301 0.10424 0.0
C730 C 0.35941 0.03733 0.05502 0.0
C731 C 0.37818 0.01732 0.03117 0.0
C732 C 0.37544 0.9906 0.05192 0.0
C733 C 0.39869 0.97321 0.02249 0.0
C734 C 0.4072 0.96013 0.10089 0.0
C735 C 0.39606 0.95162 0.95251 0.0
C736 C 0.41517 0.99437 0.98388 0.0
C737 C 0.40301 0.01974 0.99011 0.0
C738 C 0.4149 0.04287 0.96604 0.0
C739 C 0.43964 0.04001 0.93449 0.0
C740 C 0.45239 0.01419 0.92562 0.0
C741 C 0.43985 0.99104 0.94996 0.0
H742 H 0.54136 0.32824 0.14647 0.0
H743 H 0.46746 0.30998 0.19087 0.0
H744 H 0.45886 0.34692 0.09336 0.0
H745 H 0.52919 0.39661 0.17442 0.0
H746 H 0.55445 0.40566 0.0963 0.0
H747 H 0.55584 0.37407 0.15005 0.0
H748 H 0.5663 0.34745 1.00005 0.0
H749 H 0.5655 0.37906 0.94556 0.0
H750 H 0.54733 0.35263 0.9207 0.0
H751 H 0.45847 0.39011 1.00032 0.0
H752 H 0.46601 0.43359 0.92732 0.0
H753 H 0.53902 0.42515 0.96655 0.0
C754 C 0.52351 0.33131 0.13301 0.0
C755 C 0.50512 0.31605 0.17521 0.0
C756 C 0.48189 0.32105 0.15769 0.0
C757 C 0.47687 0.34218 0.10309 0.0
C758 C 0.49525 0.35809 0.06733 0.0
C759 C 0.51816 0.35265 0.08171 0.0
C760 C 0.53425 0.3744 0.04719 0.0
C761 C 0.54399 0.3885 0.12139 0.0
C762 C 0.55454 0.36268 0.97402 0.0
C763 C 0.5169 0.39328 0.01168 0.0
C764 C 0.49459 0.38349 0.02176 0.0
C765 C 0.47591 0.39783 0.99234 0.0
C766 C 0.48031 0.42255 0.95126 0.0
C767 C 0.50301 0.433 0.94227 0.0
C768 C 0.52134 0.41805 0.97354 0.0
H769 H 0.18485 0.52857 0.02103 0.0
H770 H 0.21741 0.45123 0.90456 0.0
H771 H 0.18526 0.44849 0.81827 0.0
H772 H 0.12679 0.51324 0.0499 0.0
H773 H 0.11439 0.5456 0.02216 0.0
H774 H 0.14161 0.54362 0.06417 0.0
H775 H 0.16336 0.56658 0.92702 0.0
H776 H 0.13581 0.5693 0.8868 0.0
H777 H 0.16216 0.55267 0.81963 0.0
H778 H 0.14599 0.4508 0.76465 0.0
H779 H 0.10516 0.45997 0.73646 0.0
H780 H 0.0991 0.53726 0.88056 0.0
C781 C 0.18561 0.51152 0.975 0.0
C782 C 0.20376 0.4902 0.9686 0.0
C783 C 0.20394 0.46795 0.90919 0.0
C784 C 0.18566 0.46621 0.86037 0.0
C785 C 0.16757 0.48715 0.87041 0.0
C786 C 0.16773 0.50973 0.92479 0.0
C787 C 0.14558 0.52875 0.92767 0.0
C788 C 0.13126 0.53303 0.02154 0.0
C789 C 0.15213 0.55593 0.88789 0.0
C790 C 0.13234 0.51278 0.86993 0.0
C791 C 0.14537 0.4889 0.83711 0.0
C792 C 0.13592 0.46972 0.78837 0.0
C793 C 0.11266 0.47503 0.77306 0.0
C794 C 0.0991 0.49946 0.8053 0.0
C795 C 0.10926 0.51869 0.8534 0.0
H796 H 0.99323 0.8013 0.67675 0.0
H797 H 0.05128 0.79222 0.45415 0.0
H798 H 0.06261 0.83823 0.4871 0.0
H799 H 0.97494 0.86606 0.65092 0.0
H800 H 0.96819 0.8776 0.76431 0.0
H801 H 0.96724 0.84227 0.73525 0.0
H802 H 0.99746 0.82885 0.83415 0.0
H803 H 0.99804 0.86414 0.86578 0.0
H804 H 0.02537 0.84439 0.82044 0.0
H805 H 0.0618 0.88812 0.52428 0.0
H806 H 0.05409 0.93583 0.58065 0.0
H807 H 0.99854 0.91207 0.78688 0.0
C808 C 1.00913 0.80849 0.63818 0.0
C809 C 0.02178 0.79303 0.56419 0.0
C810 C 0.04187 0.80343 0.5126 0.0
C811 C 0.04822 0.82968 0.5303 0.0
C812 C 0.03462 0.84501 0.60102 0.0
C813 C 1.01599 0.83448 0.65613 0.0
C814 C 1.0033 0.85579 0.72428 0.0
C815 C 0.97686 0.86071 0.71825 0.0
C816 C 1.00622 0.84782 0.81663 0.0
C817 C 1.01693 0.88026 0.69622 0.0
C818 C 0.03487 0.87362 0.62476 0.0
C819 C 0.04828 0.89338 0.58172 0.0
C820 C 0.04359 0.92047 0.61355 0.0
C821 C 0.02585 0.92756 0.68835 0.0
C822 C 1.01246 0.90712 0.73033 0.0
H823 H 0.69884 0.97536 0.40195 0.0
H824 H 0.7327 0.02674 0.56512 0.0
H825 H 0.69561 0.03063 0.6773 0.0
H826 H 0.64337 0.01234 0.44241 0.0
H827 H 0.62605 0.98328 0.44162 0.0
H828 H 0.65596 0.98181 0.37988 0.0
H829 H 0.66731 0.93928 0.46076 0.0
H830 H 0.63734 0.94042 0.52216 0.0
H831 H 0.66209 0.9405 0.57865 0.0
H832 H 0.65275 0.03344 0.76301 0.0
H833 H 0.60996 0.0311 0.82233 0.0
H834 H 0.60394 0.97795 0.60174 0.0
C835 C 0.69868 0.98699 0.46214 0.0
C836 C 0.7189 1.00067 0.4746 0.0
C837 C 0.71774 0.01572 0.55433 0.0
C838 C 0.6966 0.01825 0.61805 0.0
C839 C 0.67672 1.00546 0.60163 0.0
C840 C 0.67776 0.98978 0.52597 0.0
C841 C 0.6537 0.97916 0.52155 0.0
C842 C 0.64422 0.98979 0.44164 0.0
C843 C 0.65521 0.94799 0.52076 0.0
C844 C 0.63878 0.99144 0.60633 0.0
C845 C 0.65236 0.00663 0.65146 0.0
C846 C 0.64216 0.02108 0.72914 0.0
C847 C 0.61769 0.01973 0.7621 0.0
C848 C 0.60335 1.0041 0.71758 0.0
C849 C 0.61428 0.98975 0.63851 0.0
H850 H 0.55139 0.65962 0.35092 0.0
H851 H 0.51727 0.71875 0.55362 0.0
H852 H 0.52173 0.68505 0.66592 0.0
H853 H 0.52031 0.60802 0.43156 0.0
H854 H 0.54363 0.58126 0.40089 0.0
H855 H 0.54408 0.61159 0.34011 0.0
H856 H 0.58622 0.61962 0.36851 0.0
H857 H 0.58617 0.58893 0.42827 0.0
H858 H 0.59155 0.62057 0.47905 0.0
H859 H 0.52425 0.64234 0.75275 0.0
H860 H 0.52394 0.59547 0.80513 0.0
H861 H 0.55258 0.56359 0.5421 0.0
C862 C 0.54596 0.66588 0.41942 0.0
C863 C 0.53452 0.69197 0.44406 0.0
C864 C 0.52671 0.69918 0.53376 0.0
C865 C 0.52902 0.68003 0.59769 0.0
C866 C 0.5391 0.65385 0.57048 0.0
C867 C 0.54761 0.64689 0.48315 0.0
C868 C 0.55429 0.61665 0.46851 0.0
C869 C 0.5397 0.60363 0.40668 0.0
C870 C 0.58115 0.61113 0.43406 0.0
C871 C 0.54746 0.60731 0.56083 0.0
C872 C 0.5393 0.62912 0.61919 0.0
C873 C 0.53098 0.62529 0.70769 0.0
C874 C 0.53085 0.59865 0.73688 0.0
C875 C 0.53852 0.57616 0.67761 0.0
C876 C 0.54704 0.58056 0.58872 0.0
H877 H 0.87615 0.54461 0.48246 0.0
H878 H 0.82873 0.50759 0.68761 0.0
H879 H 0.86066 0.50446 0.77572 0.0
H880 H 0.92747 0.50454 0.49306 0.0
H881 H 0.94752 0.53119 0.47372 0.0
H882 H 0.92023 0.5334 0.43215 0.0
H883 H 0.90805 0.58019 0.51336 0.0
H884 H 0.9355 0.57823 0.55437 0.0
H885 H 0.90745 0.58349 0.62938 0.0
H886 H 0.8997 0.50068 0.83318 0.0
H887 H 0.94093 0.49949 0.85971 0.0
H888 H 0.96247 0.53982 0.61694 0.0
C889 C 0.87232 0.53641 0.54686 0.0
C890 C 0.84989 0.52645 0.57849 0.0
C891 C 0.84562 0.5157 0.66273 0.0
C892 C 0.86373 0.51369 0.71286 0.0
C893 C 0.88591 0.52291 0.67837 0.0
C894 C 0.89009 0.53449 0.59779 0.0
C895 C 0.91566 0.54189 0.57361 0.0
C896 C 0.92847 0.52685 0.4881 0.0
C897 C 0.91672 0.57279 0.56734 0.0
C898 C 0.92553 0.53181 0.65166 0.0
C899 C 0.9081 0.52108 0.71174 0.0
C900 C 0.91335 0.50943 0.78714 0.0
C901 C 0.9369 0.50882 0.80158 0.0
C902 C 0.95507 0.51979 0.74097 0.0
C903 C 0.94908 0.53152 0.66527 0.0
loop_
_geom_bond_atom_site_label_1
_geom_bond_atom_site_label_2
_geom_bond_distance
_geom_bond_site_symmetry_2
_ccdc_geom_bond_type
H0 C5 0.930 . S
H1 C8 0.930 . S
H2 C10 0.930 . S
H3 C4 1.016 . S
C4 H3 1.016 . S
C4 N11 1.286 . S
C5 H0 0.930 . S
C5 C6 1.397 . S
C5 C7 1.361 . S
C6 C5 1.397 . S
C6 C10 1.390 . S
C7 C5 1.361 . S
C7 C8 1.393 . S
C7 N11 1.413 . S
C8 H1 0.930 . S
C8 C7 1.393 . S
C8 C9 1.399 . S
C9 C8 1.399 . S
C9 C10 1.381 . S
C10 H2 0.930 . S
C10 C6 1.390 . S
C10 C9 1.381 . S
N11 C4 1.286 . S
N11 C7 1.413 . S
H12 C17 0.939 . S
H13 C20 0.939 1_455 S
H14 C22 0.930 . S
H15 C16 1.016 . S
C16 H15 1.016 . S
C16 N23 1.286 1_655 S
C17 H12 0.939 . S
C17 C18 1.394 1_455 S
C17 C19 1.356 . S
C18 C17 1.394 1_655 S
C18 C22 1.390 . S
C19 C17 1.356 . S
C19 C20 1.390 1_455 S
C19 N23 1.413 . S
C20 H13 0.939 1_655 S
C20 C19 1.390 1_655 S
C20 C21 1.400 . S
C21 C20 1.400 . S
C21 C22 1.381 . S
C22 H14 0.930 . S
C22 C18 1.390 . S
C22 C21 1.381 . S
N23 C16 1.286 1_455 S
N23 C19 1.413 . S
H24 C29 0.930 . S
H25 C32 0.930 . S
H26 C34 0.930 . S
H27 C28 1.029 . S
C28 H27 1.029 . S
C28 N35 1.271 1_565 S
C29 H24 0.930 . S
C29 C30 1.397 . S
C29 C31 1.361 . S
C30 C29 1.397 . S
C30 C34 1.390 1_545 S
C31 C29 1.361 . S
C31 C32 1.393 . S
C31 N35 1.413 . S
C32 H25 0.930 . S
C32 C31 1.393 . S
C32 C33 1.404 . S
C33 C32 1.404 . S
C33 C34 1.377 1_545 S
C34 H26 0.930 . S
C34 C30 1.390 1_565 S
C34 C33 1.377 1_565 S
N35 C28 1.271 1_545 S
N35 C31 1.413 . S
H36 C41 0.930 . S
H37 C44 0.930 . S
H38 C46 0.930 . S
H39 C40 1.016 . S
C40 H39 1.016 . S
C40 N47 1.286 . S
C41 H36 0.930 . S
C41 C42 1.397 . S
C41 C43 1.361 . S
C42 C41 1.397 . S
C42 C46 1.390 . S
C43 C41 1.361 . S
C43 C44 1.393 . S
C43 N47 1.413 . S
C44 H37 0.930 . S
C44 C43 1.393 . S
C44 C45 1.399 . S
C45 C44 1.399 . S
C45 C46 1.381 . S
C46 H38 0.930 . S
C46 C42 1.390 . S
C46 C45 1.381 . S
N47 C40 1.286 . S
N47 C43 1.413 . S
H48 C53 0.930 . S
H49 C56 0.930 . S
H50 C58 0.930 . S
H51 C52 1.016 . S
C52 H51 1.016 . S
C52 N59 1.286 1_554 S
C53 H48 0.930 . S
C53 C54 1.397 . S
C53 C55 1.361 . S
C54 C53 1.397 . S
C54 C58 1.390 . S
C55 C53 1.361 . S
C55 C56 1.393 1_556 S
C55 N59 1.413 . S
C56 H49 0.930 . S
C56 C55 1.393 1_554 S
C56 C57 1.399 . S
C57 C56 1.399 . S
C57 C58 1.381 1_554 S
C58 H50 0.930 . S
C58 C54 1.390 . S
C58 C57 1.381 1_556 S
N59 C52 1.286 1_556 S
N59 C55 1.413 . S
H60 C65 0.930 1_556 S
H61 C68 0.930 . S
H62 C70 0.930 . S
H63 C64 1.016 . S
C64 H63 1.016 . S
C64 N71 1.286 . S
C65 H60 0.930 1_554 S
C65 C66 1.397 . S
C65 C67 1.361 . S
C66 C65 1.397 . S
C66 C70 1.390 . S
C67 C65 1.361 . S
C67 C68 1.393 . S
C67 N71 1.413 . S
C68 H61 0.930 . S
C68 C67 1.393 . S
C68 C69 1.399 . S
C69 C68 1.399 . S
C69 C70 1.381 . S
C70 H62 0.930 . S
C70 C66 1.390 . S
C70 C69 1.381 . S
N71 C64 1.286 . S
N71 C67 1.413 . S
H72 C77 0.930 . S
H73 C80 0.930 . S
H74 C82 0.930 . S
H75 C76 1.027 . S
C76 H75 1.027 . S
C76 N83 1.270 1_565 S
C77 H72 0.930 . S
C77 C78 1.397 . S
C77 C79 1.361 . S
C78 C77 1.397 . S
C78 C82 1.390 1_545 S
C79 C77 1.361 . S
C79 C80 1.393 . S
C79 N83 1.413 . S
C80 H73 0.930 . S
C80 C79 1.393 . S
C80 C81 1.402 . S
C81 C80 1.402 . S
C81 C82 1.380 1_545 S
C82 H74 0.930 . S
C82 C78 1.390 1_565 S
C82 C81 1.380 1_565 S
N83 C76 1.270 1_545 S
N83 C79 1.413 . S
H84 C89 0.930 . S
H85 C92 0.930 . S
H86 C94 0.930 . S
H87 C88 1.016 . S
C88 H87 1.016 . S
C88 N95 1.286 . S
C89 H84 0.930 . S
C89 C90 1.397 . S
C89 C91 1.361 . S
C90 C89 1.397 . S
C90 C94 1.390 . S
C91 C89 1.361 . S
C91 C92 1.393 . S
C91 N95 1.413 . S
C92 H85 0.930 . S
C92 C91 1.393 . S
C92 C93 1.399 . S
C93 C92 1.399 . S
C93 C94 1.381 . S
C94 H86 0.930 . S
C94 C90 1.390 . S
C94 C93 1.381 . S
N95 C88 1.286 . S
N95 C91 1.413 . S
Dy96 O99 2.307 1_545 S
Dy96 O101 2.395 1_655 S
Dy96 O102 2.379 . S
Dy96 O104 2.339 . S
Dy96 O106 2.298 . S
Dy96 O110 2.275 1_655 S
Dy96 C118 2.738 . S
Dy97 O100 2.298 . S
Dy97 O103 2.275 1_455 S
Dy97 O105 2.307 1_565 S
Dy97 O107 2.395 1_455 S
Dy97 O108 2.379 . S
Dy97 O111 2.339 . S
Dy97 C127 2.738 . S
C98 O110 1.254 1_565 S
C98 O111 1.257 . S
O99 Dy96 2.307 1_565 S
O99 C109 1.266 . S
O100 Dy97 2.298 . S
O100 C109 1.236 1_455 S
O101 Dy96 2.395 1_455 S
O101 C118 1.255 1_455 S
O102 Dy96 2.379 . S
O102 C118 1.249 . S
O103 Dy97 2.275 1_655 S
O103 C119 1.254 1_565 S
O104 Dy96 2.339 . S
O104 C119 1.257 . S
O105 Dy97 2.307 1_545 S
O105 C120 1.266 . S
O106 Dy96 2.298 . S
O106 C120 1.236 1_655 S
O107 Dy97 2.395 1_655 S
O107 C127 1.255 1_655 S
O108 Dy97 2.379 . S
O108 C127 1.249 . S
C109 O99 1.266 . S
C109 O100 1.236 1_655 S
O110 Dy96 2.275 1_455 S
O110 C98 1.254 1_545 S
O111 Dy97 2.339 . S
O111 C98 1.257 . S
C112 C115 1.344 1_655 S
C112 C116 1.328 . S
C112 C118 1.516 . S
C113 C114 1.304 1_655 S
C113 C117 1.323 . S
C114 C113 1.304 1_455 S
C114 C115 1.371 . S
C114 H128 0.930 . S
C115 C112 1.344 1_455 S
C115 C114 1.371 . S
C115 H129 0.931 . S
C116 C112 1.328 . S
C116 C117 1.433 . S
C116 H130 0.931 . S
C117 C113 1.323 . S
C117 C116 1.433 . S
C117 H131 0.933 . S
C118 Dy96 2.738 . S
C118 O101 1.255 1_655 S
C118 O102 1.249 . S
C118 C112 1.516 . S
C119 O103 1.254 1_545 S
C119 O104 1.257 . S
C120 O105 1.266 . S
C120 O106 1.236 1_455 S
C121 C124 1.344 1_455 S
C121 C125 1.328 . S
C121 C127 1.516 1_554 S
C122 C123 1.304 1_455 S
C122 C126 1.323 . S
C123 C122 1.304 1_655 S
C123 C124 1.371 . S
C123 H132 0.930 . S
C124 C121 1.344 1_655 S
C124 C123 1.371 . S
C124 H133 0.931 . S
C125 C121 1.328 . S
C125 C126 1.433 . S
C125 H134 0.931 . S
C126 C122 1.323 . S
C126 C125 1.433 . S
C126 H135 0.933 . S
C127 Dy97 2.738 . S
C127 O107 1.255 1_455 S
C127 O108 1.249 . S
C127 C121 1.516 1_556 S
H128 C114 0.930 . S
H129 C115 0.931 . S
H130 C116 0.931 . S
H131 C117 0.933 . S
H132 C123 0.930 . S
H133 C124 0.931 . S
H134 C125 0.931 . S
H135 C126 0.933 . S
Dy136 O139 2.307 . S
Dy136 O141 2.395 1_565 S
Dy136 O142 2.379 . S
Dy136 O144 2.339 . S
Dy136 O146 2.298 . S
Dy136 O150 2.275 1_565 S
Dy136 C158 2.738 . S
Dy137 O140 2.298 . S
Dy137 O143 2.275 1_545 S
Dy137 O145 2.307 . S
Dy137 O147 2.395 1_545 S
Dy137 O148 2.379 . S
Dy137 O151 2.339 . S
Dy137 C167 2.738 . S
C138 O150 1.254 . S
C138 O151 1.257 . S
O139 Dy136 2.307 . S
O139 C149 1.266 . S
O140 Dy137 2.298 . S
O140 C149 1.236 1_545 S
O141 Dy136 2.395 1_545 S
O141 C158 1.255 1_545 S
O142 Dy136 2.379 . S
O142 C158 1.249 . S
O143 Dy137 2.275 1_565 S
O143 C159 1.254 . S
O144 Dy136 2.339 . S
O144 C159 1.257 . S
O145 Dy137 2.307 . S
O145 C160 1.266 . S
O146 Dy136 2.298 . S
O146 C160 1.236 1_565 S
O147 Dy137 2.395 1_565 S
O147 C167 1.255 1_565 S
O148 Dy137 2.379 . S
O148 C167 1.249 . S
C149 O139 1.266 . S
C149 O140 1.236 1_565 S
O150 Dy136 2.275 1_545 S
O150 C138 1.254 . S
O151 Dy137 2.339 . S
O151 C138 1.257 . S
C152 C155 1.344 1_565 S
C152 C156 1.328 . S
C152 C158 1.516 . S
C153 C154 1.304 1_565 S
C153 C157 1.323 . S
C154 C153 1.304 1_545 S
C154 C155 1.371 . S
C154 H168 0.930 . S
C155 C152 1.344 1_545 S
C155 C154 1.371 . S
C155 H169 0.931 . S
C156 C152 1.328 . S
C156 C157 1.433 . S
C156 H170 0.931 . S
C157 C153 1.323 . S
C157 C156 1.433 . S
C157 H171 0.933 . S
C158 Dy136 2.738 . S
C158 O141 1.255 1_565 S
C158 O142 1.249 . S
C158 C152 1.516 . S
C159 O143 1.254 . S
C159 O144 1.257 . S
C160 O145 1.266 . S
C160 O146 1.236 1_545 S
C161 C164 1.344 1_545 S
C161 C165 1.328 . S
C161 C167 1.516 1_554 S
C162 C163 1.304 1_545 S
C162 C166 1.323 . S
C163 C162 1.304 1_565 S
C163 C164 1.371 . S
C163 H172 0.930 . S
C164 C161 1.344 1_565 S
C164 C163 1.371 . S
C164 H173 0.931 1_554 S
C165 C161 1.328 . S
C165 C166 1.433 . S
C165 H174 0.931 . S
C166 C162 1.323 . S
C166 C165 1.433 . S
C166 H175 0.933 . S
C167 Dy137 2.738 . S
C167 O147 1.255 1_545 S
C167 O148 1.249 . S
C167 C161 1.516 1_556 S
H168 C154 0.930 . S
H169 C155 0.931 . S
H170 C156 0.931 . S
H171 C157 0.933 . S
H172 C163 0.930 . S
H173 C164 0.931 1_556 S
H174 C165 0.931 . S
H175 C166 0.933 . S
Dy176 O179 2.307 . S
Dy176 O181 2.395 . S
Dy176 O182 2.379 . S
Dy176 O184 2.339 . S
Dy176 O186 2.298 . S
Dy176 O190 2.275 . S
Dy176 C198 2.738 . S
Dy177 O180 2.298 . S
Dy177 O183 2.275 . S
Dy177 O185 2.307 . S
Dy177 O187 2.395 . S
Dy177 O188 2.379 . S
Dy177 O191 2.339 . S
Dy177 C207 2.738 . S
C178 O190 1.254 . S
C178 O191 1.257 . S
O179 Dy176 2.307 . S
O179 C189 1.266 . S
O180 Dy177 2.298 . S
O180 C189 1.236 . S
O181 Dy176 2.395 . S
O181 C198 1.255 . S
O182 Dy176 2.379 . S
O182 C198 1.249 . S
O183 Dy177 2.275 . S
O183 C199 1.254 . S
O184 Dy176 2.339 . S
O184 C199 1.257 . S
O185 Dy177 2.307 . S
O185 C200 1.266 . S
O186 Dy176 2.298 . S
O186 C200 1.236 . S
O187 Dy177 2.395 . S
O187 C207 1.255 . S
O188 Dy177 2.379 . S
O188 C207 1.249 . S
C189 O179 1.266 . S
C189 O180 1.236 . S
O190 Dy176 2.275 . S
O190 C178 1.254 . S
O191 Dy177 2.339 . S
O191 C178 1.257 . S
C192 C195 1.344 1_556 S
C192 C196 1.328 . S
C192 C198 1.516 . S
C193 C194 1.304 . S
C193 C197 1.323 1_554 S
C194 C193 1.304 . S
C194 C195 1.371 . S
C194 H208 0.930 . S
C195 C192 1.344 1_554 S
C195 C194 1.371 . S
C195 H209 0.931 . S
C196 C192 1.328 . S
C196 C197 1.433 . S
C196 H210 0.931 . S
C197 C193 1.323 1_556 S
C197 C196 1.433 . S
C197 H211 0.933 . S
C198 Dy176 2.738 . S
C198 O181 1.255 . S
C198 O182 1.249 . S
C198 C192 1.516 . S
C199 O183 1.254 . S
C199 O184 1.257 . S
C200 O185 1.266 . S
C200 O186 1.236 . S
C201 C204 1.344 . S
C201 C205 1.328 . S
C201 C207 1.516 . S
C202 C203 1.304 . S
C202 C206 1.323 . S
C203 C202 1.304 . S
C203 C204 1.371 . S
C203 H212 0.930 . S
C204 C201 1.344 . S
C204 C203 1.371 . S
C204 H213 0.931 . S
C205 C201 1.328 . S
C205 C206 1.433 . S
C205 H214 0.931 . S
C206 C202 1.323 . S
C206 C205 1.433 . S
C206 H215 0.933 . S
C207 Dy177 2.738 . S
C207 O187 1.255 . S
C207 O188 1.249 . S
C207 C201 1.516 . S
H208 C194 0.930 . S
H209 C195 0.931 . S
H210 C196 0.931 . S
H211 C197 0.933 . S
H212 C203 0.930 . S
H213 C204 0.931 . S
H214 C205 0.931 . S
H215 C206 0.933 . S
Dy216 O219 2.307 1_455 S
Dy216 O221 2.395 . S
Dy216 O222 2.379 . S
Dy216 O224 2.339 . S
Dy216 O226 2.298 . S
Dy216 O230 2.275 . S
Dy216 C238 2.738 . S
Dy217 O220 2.298 . S
Dy217 O223 2.275 . S
Dy217 O225 2.307 1_655 S
Dy217 O227 2.395 1_556 S
Dy217 O228 2.379 . S
Dy217 O231 2.339 . S
Dy217 C247 2.738 1_556 S
C218 O230 1.254 . S
C218 O231 1.257 1_455 S
O219 Dy216 2.307 1_655 S
O219 C229 1.266 . S
O220 Dy217 2.298 . S
O220 C229 1.236 . S
O221 Dy216 2.395 . S
O221 C238 1.255 . S
O222 Dy216 2.379 . S
O222 C238 1.249 . S
O223 Dy217 2.275 . S
O223 C239 1.254 1_655 S
O224 Dy216 2.339 . S
O224 C239 1.257 . S
O225 Dy217 2.307 1_455 S
O225 C240 1.266 . S
O226 Dy216 2.298 . S
O226 C240 1.236 . S
O227 Dy217 2.395 1_554 S
O227 C247 1.255 . S
O228 Dy217 2.379 . S
O228 C247 1.249 1_556 S
C229 O219 1.266 . S
C229 O220 1.236 . S
O230 Dy216 2.275 . S
O230 C218 1.254 . S
O231 Dy217 2.339 . S
O231 C218 1.257 1_655 S
C232 C235 1.344 . S
C232 C236 1.328 . S
C232 C238 1.516 . S
C233 C234 1.304 . S
C233 C237 1.323 . S
C234 C233 1.304 . S
C234 C235 1.371 . S
C234 H248 0.930 . S
C235 C232 1.344 . S
C235 C234 1.371 . S
C235 H249 0.931 . S
C236 C232 1.328 . S
C236 C237 1.433 . S
C236 H250 0.931 . S
C237 C233 1.323 . S
C237 C236 1.433 . S
C237 H251 0.933 . S
C238 Dy216 2.738 . S
C238 O221 1.255 . S
C238 O222 1.249 . S
C238 C232 1.516 . S
C239 O223 1.254 1_455 S
C239 O224 1.257 . S
C240 O225 1.266 . S
C240 O226 1.236 . S
C241 C244 1.344 . S
C241 C245 1.328 . S
C241 C247 1.516 . S
C242 C243 1.304 . S
C242 C246 1.323 . S
C243 C242 1.304 . S
C243 C244 1.371 . S
C243 H252 0.930 . S
C244 C241 1.344 . S
C244 C243 1.371 . S
C244 H253 0.931 . S
C245 C241 1.328 . S
C245 C246 1.433 . S
C245 H254 0.931 . S
C246 C242 1.323 . S
C246 C245 1.433 . S
C246 H255 0.933 . S
C247 Dy217 2.738 1_554 S
C247 O227 1.255 . S
C247 O228 1.249 1_554 S
C247 C241 1.516 . S
H248 C234 0.930 . S
H249 C235 0.931 . S
H250 C236 0.931 . S
H251 C237 0.933 . S
H252 C243 0.930 . S
H253 C244 0.931 . S
H254 C245 0.931 . S
H255 C246 0.933 . S
H256 C268 0.930 . S
H257 C270 0.930 . S
H258 C271 0.930 . S
H259 C275 0.959 . S
H260 C275 0.959 1_545 S
H261 C275 0.961 . S
H262 C276 0.960 . S
H263 C276 0.961 . S
H264 C276 0.959 . S
H265 C279 0.929 . S
H266 C280 0.931 . S
H267 C282 0.930 . S
C268 H256 0.930 . S
C268 C269 1.404 . S
C268 C273 1.399 . S
C269 C268 1.404 . S
C269 C270 1.369 1_545 S
C270 H257 0.930 . S
C270 C269 1.369 1_565 S
C270 C271 1.388 . S
C271 H258 0.930 . S
C271 C270 1.388 . S
C271 C272 1.390 1_565 S
C272 C271 1.390 1_545 S
C272 C273 1.394 . S
C272 C278 1.464 1_545 S
C273 C268 1.399 . S
C273 C272 1.394 . S
C273 C274 1.516 . S
C274 C273 1.516 . S
C274 C275 1.502 1_545 S
C274 C276 1.561 . S
C274 C277 1.526 . S
C275 H259 0.959 . S
C275 H260 0.959 1_565 S
C275 H261 0.961 . S
C275 C274 1.502 1_565 S
C276 H262 0.960 . S
C276 H263 0.961 . S
C276 H264 0.959 . S
C276 C274 1.561 . S
C277 C274 1.526 . S
C277 C278 1.395 1_545 S
C277 C282 1.390 . S
C278 C272 1.464 1_565 S
C278 C277 1.395 1_565 S
C278 C279 1.400 . S
C279 H265 0.929 . S
C279 C278 1.400 . S
C279 C280 1.385 . S
C280 H266 0.931 . S
C280 C279 1.385 . S
C280 C281 1.384 1_565 S
C281 C280 1.384 1_545 S
C281 C282 1.395 . S
C282 H267 0.930 . S
C282 C277 1.390 . S
C282 C281 1.395 . S
H283 C295 0.930 . S
H284 C297 0.930 . S
H285 C298 0.930 . S
H286 C302 0.959 . S
H287 C302 0.959 . S
H288 C302 0.961 . S
H289 C303 0.960 . S
H290 C303 0.961 . S
H291 C303 0.959 . S
H292 C306 0.929 . S
H293 C307 0.931 . S
H294 C309 0.930 . S
C295 H283 0.930 . S
C295 C296 1.399 . S
C295 C300 1.399 . S
C296 C295 1.399 . S
C296 C297 1.376 . S
C297 H284 0.930 . S
C297 C296 1.376 . S
C297 C298 1.388 . S
C298 H285 0.930 . S
C298 C297 1.388 . S
C298 C299 1.390 . S
C299 C298 1.390 . S
C299 C300 1.394 . S
C299 C305 1.465 . S
C300 C295 1.399 . S
C300 C299 1.394 . S
C300 C301 1.516 . S
C301 C300 1.516 . S
C301 C302 1.502 . S
C301 C303 1.561 . S
C301 C304 1.526 . S
C302 H286 0.959 . S
C302 H287 0.959 . S
C302 H288 0.961 . S
C302 C301 1.502 . S
C303 H289 0.960 . S
C303 H290 0.961 . S
C303 H291 0.959 . S
C303 C301 1.561 . S
C304 C301 1.526 . S
C304 C305 1.396 . S
C304 C309 1.390 . S
C305 C299 1.465 . S
C305 C304 1.396 . S
C305 C306 1.399 . S
C306 H292 0.929 . S
C306 C305 1.399 . S
C306 C307 1.385 . S
C307 H293 0.931 . S
C307 C306 1.385 . S
C307 C308 1.389 . S
C308 C307 1.389 . S
C308 C309 1.387 . S
C309 H294 0.930 . S
C309 C304 1.390 . S
C309 C308 1.387 . S
H310 C322 0.930 . S
H311 C324 0.930 . S
H312 C325 0.930 . S
H313 C329 0.959 . S
H314 C329 0.959 . S
H315 C329 0.961 . S
H316 C330 0.960 . S
H317 C330 0.961 . S
H318 C330 0.959 . S
H319 C333 0.929 . S
H320 C334 0.931 . S
H321 C336 0.930 . S
C322 H310 0.930 . S
C322 C323 1.399 . S
C322 C327 1.399 . S
C323 C322 1.399 . S
C323 C324 1.376 . S
C324 H311 0.930 . S
C324 C323 1.376 . S
C324 C325 1.388 . S
C325 H312 0.930 . S
C325 C324 1.388 . S
C325 C326 1.390 . S
C326 C325 1.390 . S
C326 C327 1.394 . S
C326 C332 1.465 . S
C327 C322 1.399 . S
C327 C326 1.394 . S
C327 C328 1.516 . S
C328 C327 1.516 . S
C328 C329 1.502 . S
C328 C330 1.561 . S
C328 C331 1.526 . S
C329 H313 0.959 . S
C329 H314 0.959 . S
C329 H315 0.961 . S
C329 C328 1.502 . S
C330 H316 0.960 . S
C330 H317 0.961 . S
C330 H318 0.959 . S
C330 C328 1.561 . S
C331 C328 1.526 . S
C331 C332 1.396 . S
C331 C336 1.390 . S
C332 C326 1.465 . S
C332 C331 1.396 . S
C332 C333 1.399 . S
C333 H319 0.929 . S
C333 C332 1.399 . S
C333 C334 1.385 . S
C334 H320 0.931 . S
C334 C333 1.385 . S
C334 C335 1.389 . S
C335 C334 1.389 . S
C335 C336 1.387 . S
C336 H321 0.930 . S
C336 C331 1.390 . S
C336 C335 1.387 . S
H337 C349 0.930 1_655 S
H338 C351 0.930 . S
H339 C352 0.930 . S
H340 C356 0.959 . S
H341 C356 0.959 . S
H342 C356 0.961 . S
H343 C357 0.960 . S
H344 C357 0.961 . S
H345 C357 0.959 . S
H346 C360 0.929 . S
H347 C361 0.931 . S
H348 C363 0.956 . S
C349 H337 0.930 1_455 S
C349 C350 1.399 . S
C349 C354 1.399 . S
C350 C349 1.399 . S
C350 C351 1.376 . S
C351 H338 0.930 . S
C351 C350 1.376 . S
C351 C352 1.388 . S
C352 H339 0.930 . S
C352 C351 1.388 . S
C352 C353 1.390 . S
C353 C352 1.390 . S
C353 C354 1.394 . S
C353 C359 1.465 . S
C354 C349 1.399 . S
C354 C353 1.394 . S
C354 C355 1.516 1_455 S
C355 C354 1.516 1_655 S
C355 C356 1.502 . S
C355 C357 1.561 1_655 S
C355 C358 1.526 1_655 S
C356 H340 0.959 . S
C356 H341 0.959 . S
C356 H342 0.961 . S
C356 C355 1.502 . S
C357 H343 0.960 . S
C357 H344 0.961 . S
C357 H345 0.959 . S
C357 C355 1.561 1_455 S
C358 C355 1.526 1_455 S
C358 C359 1.396 . S
C358 C363 1.392 1_455 S
C359 C353 1.465 . S
C359 C358 1.396 . S
C359 C360 1.399 . S
C360 H346 0.929 . S
C360 C359 1.399 . S
C360 C361 1.385 . S
C361 H347 0.931 . S
C361 C360 1.385 . S
C361 C362 1.389 . S
C362 C361 1.389 . S
C362 C363 1.361 1_455 S
C363 H348 0.956 . S
C363 C358 1.392 1_655 S
C363 C362 1.361 1_655 S
H364 C376 0.930 . S
H365 C378 0.930 . S
H366 C379 0.930 . S
H367 C383 0.959 . S
H368 C383 0.959 . S
H369 C383 0.961 . S
H370 C384 0.960 . S
H371 C384 0.961 . S
H372 C384 0.959 . S
H373 C387 0.929 . S
H374 C388 0.931 . S
H375 C390 0.930 . S
C376 H364 0.930 . S
C376 C377 1.399 1_545 S
C376 C381 1.399 . S
C377 C376 1.399 1_565 S
C377 C378 1.376 . S
C378 H365 0.930 . S
C378 C377 1.376 . S
C378 C379 1.388 . S
C379 H366 0.930 . S
C379 C378 1.388 . S
C379 C380 1.390 . S
C380 C379 1.390 . S
C380 C381 1.394 1_565 S
C380 C386 1.465 . S
C381 C376 1.399 . S
C381 C380 1.394 1_545 S
C381 C382 1.516 . S
C382 C381 1.516 . S
C382 C383 1.502 . S
C382 C384 1.561 1_545 S
C382 C385 1.526 . S
C383 H367 0.959 . S
C383 H368 0.959 . S
C383 H369 0.961 . S
C383 C382 1.502 . S
C384 H370 0.960 . S
C384 H371 0.961 . S
C384 H372 0.959 . S
C384 C382 1.561 1_565 S
C385 C382 1.526 . S
C385 C386 1.396 1_545 S
C385 C390 1.390 . S
C386 C380 1.465 . S
C386 C385 1.396 1_565 S
C386 C387 1.399 1_554 S
C387 H373 0.929 . S
C387 C386 1.399 1_556 S
C387 C388 1.385 . S
C388 H374 0.931 . S
C388 C387 1.385 . S
C388 C389 1.389 . S
C389 C388 1.389 . S
C389 C390 1.387 1_566 S
C390 H375 0.930 . S
C390 C385 1.390 . S
C390 C389 1.387 1_544 S
H391 C403 0.930 1_556 S
H392 C405 0.930 . S
H393 C406 0.930 . S
H394 C410 0.959 . S
H395 C410 0.959 . S
H396 C410 0.961 . S
H397 C411 0.960 . S
H398 C411 0.961 . S
H399 C411 0.959 . S
H400 C414 0.929 . S
H401 C415 0.931 1_554 S
H402 C417 0.930 . S
C403 H391 0.930 1_554 S
C403 C404 1.399 . S
C403 C408 1.399 1_554 S
C404 C403 1.399 . S
C404 C405 1.376 . S
C405 H392 0.930 . S
C405 C404 1.376 . S
C405 C406 1.388 . S
C406 H393 0.930 . S
C406 C405 1.388 . S
C406 C407 1.390 . S
C407 C406 1.390 . S
C407 C408 1.394 1_554 S
C407 C413 1.465 . S
C408 C403 1.399 1_556 S
C408 C407 1.394 1_556 S
C408 C409 1.516 . S
C409 C408 1.516 . S
C409 C410 1.502 . S
C409 C411 1.561 . S
C409 C412 1.526 . S
C410 H394 0.959 . S
C410 H395 0.959 . S
C410 H396 0.961 . S
C410 C409 1.502 . S
C411 H397 0.960 . S
C411 H398 0.961 . S
C411 H399 0.959 . S
C411 C409 1.561 . S
C412 C409 1.526 . S
C412 C413 1.396 1_556 S
C412 C417 1.390 . S
C413 C407 1.465 . S
C413 C412 1.396 1_554 S
C413 C414 1.399 . S
C414 H400 0.929 . S
C414 C413 1.399 . S
C414 C415 1.385 1_554 S
C415 H401 0.931 1_556 S
C415 C414 1.385 1_556 S
C415 C416 1.389 . S
C416 C415 1.389 . S
C416 C417 1.387 . S
C417 H402 0.930 . S
C417 C412 1.390 . S
C417 C416 1.387 . S
H418 C430 0.930 . S
H419 C432 0.930 . S
H420 C433 0.930 . S
H421 C437 0.959 . S
H422 C437 0.959 . S
H423 C437 0.961 . S
H424 C438 0.960 . S
H425 C438 0.961 . S
H426 C438 0.959 . S
H427 C441 0.929 . S
H428 C442 0.931 . S
H429 C444 0.930 . S
C430 H418 0.930 . S
C430 C431 1.399 . S
C430 C435 1.399 . S
C431 C430 1.399 . S
C431 C432 1.376 . S
C432 H419 0.930 . S
C432 C431 1.376 . S
C432 C433 1.388 . S
C433 H420 0.930 . S
C433 C432 1.388 . S
C433 C434 1.390 . S
C434 C433 1.390 . S
C434 C435 1.394 . S
C434 C440 1.465 . S
C435 C430 1.399 . S
C435 C434 1.394 . S
C435 C436 1.516 . S
C436 C435 1.516 . S
C436 C437 1.502 . S
C436 C438 1.561 . S
C436 C439 1.526 . S
C437 H421 0.959 . S
C437 H422 0.959 . S
C437 H423 0.961 . S
C437 C436 1.502 . S
C438 H424 0.960 . S
C438 H425 0.961 . S
C438 H426 0.959 . S
C438 C436 1.561 . S
C439 C436 1.526 . S
C439 C440 1.396 . S
C439 C444 1.390 . S
C440 C434 1.465 . S
C440 C439 1.396 . S
C440 C441 1.399 . S
C441 H427 0.929 . S
C441 C440 1.399 . S
C441 C442 1.385 . S
C442 H428 0.931 . S
C442 C441 1.385 . S
C442 C443 1.389 . S
C443 C442 1.389 . S
C443 C444 1.387 . S
C444 H429 0.930 . S
C444 C439 1.390 . S
C444 C443 1.387 . S
H445 C457 0.930 1_455 S
H446 C459 0.930 . S
H447 C460 0.930 . S
H448 C464 0.959 . S
H449 C464 0.959 . S
H450 C464 0.961 . S
H451 C465 0.960 . S
H452 C465 0.961 . S
H453 C465 0.959 . S
H454 C468 0.929 . S
H455 C469 0.931 . S
H456 C471 0.938 . S
C457 H445 0.930 1_655 S
C457 C458 1.399 . S
C457 C462 1.399 . S
C458 C457 1.399 . S
C458 C459 1.376 . S
C459 H446 0.930 . S
C459 C458 1.376 . S
C459 C460 1.388 . S
C460 H447 0.930 . S
C460 C459 1.388 . S
C460 C461 1.390 . S
C461 C460 1.390 . S
C461 C462 1.394 . S
C461 C467 1.465 . S
C462 C457 1.399 . S
C462 C461 1.394 . S
C462 C463 1.516 1_655 S
C463 C462 1.516 1_455 S
C463 C464 1.503 . S
C463 C465 1.560 1_455 S
C463 C466 1.525 1_455 S
C464 H448 0.959 . S
C464 H449 0.959 . S
C464 H450 0.961 . S
C464 C463 1.503 . S
C465 H451 0.960 . S
C465 H452 0.961 . S
C465 H453 0.959 . S
C465 C463 1.560 1_655 S
C466 C463 1.525 1_655 S
C466 C467 1.396 . S
C466 C471 1.394 1_655 S
C467 C461 1.465 . S
C467 C466 1.396 . S
C467 C468 1.399 . S
C468 H454 0.929 . S
C468 C467 1.399 . S
C468 C469 1.385 1_554 S
C469 H455 0.931 . S
C469 C468 1.385 1_556 S
C469 C470 1.389 . S
C470 C469 1.389 . S
C470 C471 1.376 1_656 S
C471 H456 0.938 . S
C471 C466 1.394 1_455 S
C471 C470 1.376 1_454 S
H472 C484 0.930 . S
H473 C486 0.930 . S
H474 C487 0.930 . S
H475 C491 0.959 . S
H476 C491 0.959 . S
H477 C491 0.961 . S
H478 C492 0.960 . S
H479 C492 0.961 . S
H480 C492 0.959 . S
H481 C495 0.929 . S
H482 C496 0.931 . S
H483 C498 0.930 . S
C484 H472 0.930 . S
C484 C485 1.399 1_655 S
C484 C489 1.399 . S
C485 C484 1.399 1_455 S
C485 C486 1.376 . S
C486 H473 0.930 . S
C486 C485 1.376 . S
C486 C487 1.388 . S
C487 H474 0.930 . S
C487 C486 1.388 . S
C487 C488 1.390 . S
C488 C487 1.390 . S
C488 C489 1.394 1_455 S
C488 C494 1.465 . S
C489 C484 1.399 . S
C489 C488 1.394 1_655 S
C489 C490 1.516 . S
C490 C489 1.516 . S
C490 C491 1.502 . S
C490 C492 1.561 . S
C490 C493 1.526 . S
C491 H475 0.959 . S
C491 H476 0.959 . S
C491 H477 0.961 . S
C491 C490 1.502 . S
C492 H478 0.960 . S
C492 H479 0.961 . S
C492 H480 0.959 . S
C492 C490 1.561 . S
C493 C490 1.526 . S
C493 C494 1.396 1_655 S
C493 C498 1.390 . S
C494 C488 1.465 . S
C494 C493 1.396 1_455 S
C494 C495 1.399 . S
C495 H481 0.929 . S
C495 C494 1.399 . S
C495 C496 1.385 . S
C496 H482 0.931 . S
C496 C495 1.385 . S
C496 C497 1.389 1_455 S
C497 C496 1.389 1_655 S
C497 C498 1.387 . S
C498 H483 0.930 . S
C498 C493 1.390 . S
C498 C497 1.387 . S
H499 C511 0.930 . S
H500 C513 0.930 . S
H501 C514 0.930 . S
H502 C518 0.959 . S
H503 C518 0.959 . S
H504 C518 0.961 . S
H505 C519 0.960 . S
H506 C519 0.961 . S
H507 C519 0.959 . S
H508 C522 0.929 . S
H509 C523 0.931 . S
H510 C525 0.930 . S
C511 H499 0.930 . S
C511 C512 1.399 1_565 S
C511 C516 1.399 . S
C512 C511 1.399 1_545 S
C512 C513 1.376 . S
C513 H500 0.930 . S
C513 C512 1.376 . S
C513 C514 1.388 . S
C514 H501 0.930 . S
C514 C513 1.388 . S
C514 C515 1.390 . S
C515 C514 1.390 . S
C515 C516 1.394 1_545 S
C515 C521 1.465 1_545 S
C516 C511 1.399 . S
C516 C515 1.394 1_565 S
C516 C517 1.516 . S
C517 C516 1.516 . S
C517 C518 1.502 . S
C517 C519 1.561 . S
C517 C520 1.526 . S
C518 H502 0.959 . S
C518 H503 0.959 . S
C518 H504 0.961 . S
C518 C517 1.502 . S
C519 H505 0.960 . S
C519 H506 0.961 . S
C519 H507 0.959 . S
C519 C517 1.561 . S
C520 C517 1.526 . S
C520 C521 1.396 . S
C520 C525 1.390 . S
C521 C515 1.465 1_565 S
C521 C520 1.396 . S
C521 C522 1.399 1_565 S
C522 H508 0.929 . S
C522 C521 1.399 1_545 S
C522 C523 1.385 . S
C523 H509 0.931 . S
C523 C522 1.385 . S
C523 C524 1.389 1_545 S
C524 C523 1.389 1_565 S
C524 C525 1.387 . S
C525 H510 0.930 . S
C525 C520 1.390 . S
C525 C524 1.387 . S
H526 C538 0.930 . S
H527 C540 0.930 . S
H528 C541 0.930 . S
H529 C545 0.959 . S
H530 C545 0.959 . S
H531 C545 0.961 . S
H532 C546 0.960 . S
H533 C546 0.961 . S
H534 C546 0.959 . S
H535 C549 0.929 . S
H536 C550 0.931 . S
H537 C552 0.930 . S
C538 H526 0.930 . S
C538 C539 1.399 . S
C538 C543 1.399 . S
C539 C538 1.399 . S
C539 C540 1.376 . S
C540 H527 0.930 . S
C540 C539 1.376 . S
C540 C541 1.388 . S
C541 H528 0.930 . S
C541 C540 1.388 . S
C541 C542 1.390 . S
C542 C541 1.390 . S
C542 C543 1.394 . S
C542 C548 1.465 . S
C543 C538 1.399 . S
C543 C542 1.394 . S
C543 C544 1.516 . S
C544 C543 1.516 . S
C544 C545 1.502 . S
C544 C546 1.561 . S
C544 C547 1.526 . S
C545 H529 0.959 . S
C545 H530 0.959 . S
C545 H531 0.961 . S
C545 C544 1.502 . S
C546 H532 0.960 . S
C546 H533 0.961 . S
C546 H534 0.959 . S
C546 C544 1.561 . S
C547 C544 1.526 . S
C547 C548 1.396 . S
C547 C552 1.390 . S
C548 C542 1.465 . S
C548 C547 1.396 . S
C548 C549 1.399 . S
C549 H535 0.929 . S
C549 C548 1.399 . S
C549 C550 1.385 . S
C550 H536 0.931 . S
C550 C549 1.385 . S
C550 C551 1.389 . S
C551 C550 1.389 . S
C551 C552 1.387 . S
C552 H537 0.930 . S
C552 C547 1.390 . S
C552 C551 1.387 . S
H553 C565 0.930 . S
H554 C567 0.930 . S
H555 C568 0.930 . S
H556 C572 0.959 . S
H557 C572 0.959 . S
H558 C572 0.961 . S
H559 C573 0.960 . S
H560 C573 0.961 . S
H561 C573 0.959 . S
H562 C576 0.929 . S
H563 C577 0.931 . S
H564 C579 0.930 . S
C565 H553 0.930 . S
C565 C566 1.399 . S
C565 C570 1.399 . S
C566 C565 1.399 . S
C566 C567 1.376 . S
C567 H554 0.930 . S
C567 C566 1.376 . S
C567 C568 1.388 . S
C568 H555 0.930 . S
C568 C567 1.388 . S
C568 C569 1.390 . S
C569 C568 1.390 . S
C569 C570 1.394 . S
C569 C575 1.465 . S
C570 C565 1.399 . S
C570 C569 1.394 . S
C570 C571 1.516 . S
C571 C570 1.516 . S
C571 C572 1.502 . S
C571 C573 1.561 . S
C571 C574 1.526 . S
C572 H556 0.959 . S
C572 H557 0.959 . S
C572 H558 0.961 . S
C572 C571 1.502 . S
C573 H559 0.960 . S
C573 H560 0.961 . S
C573 H561 0.959 . S
C573 C571 1.561 . S
C574 C571 1.526 . S
C574 C575 1.396 . S
C574 C579 1.390 . S
C575 C569 1.465 . S
C575 C574 1.396 . S
C575 C576 1.399 . S
C576 H562 0.929 . S
C576 C575 1.399 . S
C576 C577 1.385 . S
C577 H563 0.931 . S
C577 C576 1.385 . S
C577 C578 1.389 . S
C578 C577 1.389 . S
C578 C579 1.387 . S
C579 H564 0.930 . S
C579 C574 1.390 . S
C579 C578 1.387 . S
H580 C592 0.930 . S
H581 C594 0.930 . S
H582 C595 0.930 . S
H583 C599 0.959 . S
H584 C599 0.959 . S
H585 C599 0.961 . S
H586 C600 0.960 . S
H587 C600 0.961 . S
H588 C600 0.959 . S
H589 C603 0.929 . S
H590 C604 0.931 . S
H591 C606 0.930 . S
C592 H580 0.930 . S
C592 C593 1.399 1_455 S
C592 C597 1.399 . S
C593 C592 1.399 1_655 S
C593 C594 1.376 . S
C594 H581 0.930 . S
C594 C593 1.376 . S
C594 C595 1.388 . S
C595 H582 0.930 . S
C595 C594 1.388 . S
C595 C596 1.390 . S
C596 C595 1.390 . S
C596 C597 1.394 1_655 S
C596 C602 1.465 . S
C597 C592 1.399 . S
C597 C596 1.394 1_455 S
C597 C598 1.516 . S
C598 C597 1.516 . S
C598 C599 1.502 . S
C598 C600 1.561 . S
C598 C601 1.526 . S
C599 H583 0.959 . S
C599 H584 0.959 . S
C599 H585 0.961 . S
C599 C598 1.502 . S
C600 H586 0.960 . S
C600 H587 0.961 . S
C600 H588 0.959 . S
C600 C598 1.561 . S
C601 C598 1.526 . S
C601 C602 1.396 1_455 S
C601 C606 1.390 . S
C602 C596 1.465 . S
C602 C601 1.396 1_655 S
C602 C603 1.399 . S
C603 H589 0.929 . S
C603 C602 1.399 . S
C603 C604 1.385 . S
C604 H590 0.931 . S
C604 C603 1.385 . S
C604 C605 1.389 1_655 S
C605 C604 1.389 1_455 S
C605 C606 1.387 . S
C606 H591 0.930 . S
C606 C601 1.390 . S
C606 C605 1.387 . S
H607 C619 0.930 . S
H608 C621 0.930 . S
H609 C622 0.930 . S
H610 C626 0.959 . S
H611 C626 0.959 . S
H612 C626 0.961 . S
H613 C627 0.960 . S
H614 C627 0.961 . S
H615 C627 0.959 . S
H616 C630 0.929 . S
H617 C631 0.931 1_565 S
H618 C633 0.930 . S
C619 H607 0.930 . S
C619 C620 1.375 1_545 S
C619 C624 1.399 . S
C620 C619 1.375 1_565 S
C620 C621 1.400 . S
C621 H608 0.930 . S
C621 C620 1.400 . S
C621 C622 1.388 . S
C622 H609 0.930 . S
C622 C621 1.388 . S
C622 C623 1.390 1_565 S
C623 C622 1.390 1_545 S
C623 C624 1.394 . S
C623 C629 1.465 . S
C624 C619 1.399 . S
C624 C623 1.394 . S
C624 C625 1.516 . S
C625 C624 1.516 . S
C625 C626 1.502 . S
C625 C627 1.561 . S
C625 C628 1.526 . S
C626 H610 0.959 . S
C626 H611 0.959 . S
C626 H612 0.961 . S
C626 C625 1.502 . S
C627 H613 0.960 . S
C627 H614 0.961 . S
C627 H615 0.959 . S
C627 C625 1.561 . S
C628 C625 1.526 . S
C628 C629 1.396 . S
C628 C633 1.390 . S
C629 C623 1.465 . S
C629 C628 1.396 . S
C629 C630 1.399 1_545 S
C630 H616 0.929 . S
C630 C629 1.399 1_565 S
C630 C631 1.385 1_565 S
C631 H617 0.931 1_545 S
C631 C630 1.385 1_545 S
C631 C632 1.389 . S
C632 C631 1.389 . S
C632 C633 1.387 . S
C633 H618 0.930 . S
C633 C628 1.390 . S
C633 C632 1.387 . S
H634 C646 0.930 . S
H635 C648 0.930 . S
H636 C649 0.930 . S
H637 C653 0.959 1_556 S
H638 C653 0.959 . S
H639 C653 0.961 . S
H640 C654 0.960 . S
H641 C654 0.961 . S
H642 C654 0.959 . S
H643 C657 0.929 . S
H644 C658 0.931 . S
H645 C660 0.930 . S
C646 H634 0.930 . S
C646 C647 1.399 . S
C646 C651 1.399 . S
C647 C646 1.399 . S
C647 C648 1.376 . S
C648 H635 0.930 . S
C648 C647 1.376 . S
C648 C649 1.388 . S
C649 H636 0.930 . S
C649 C648 1.388 . S
C649 C650 1.390 . S
C650 C649 1.390 . S
C650 C651 1.394 . S
C650 C656 1.465 . S
C651 C646 1.399 . S
C651 C650 1.394 . S
C651 C652 1.516 . S
C652 C651 1.516 . S
C652 C653 1.502 . S
C652 C654 1.561 . S
C652 C655 1.526 . S
C653 H637 0.959 1_554 S
C653 H638 0.959 . S
C653 H639 0.961 . S
C653 C652 1.502 . S
C654 H640 0.960 . S
C654 H641 0.961 . S
C654 H642 0.959 . S
C654 C652 1.561 . S
C655 C652 1.526 . S
C655 C656 1.396 . S
C655 C660 1.390 1_554 S
C656 C650 1.465 . S
C656 C655 1.396 . S
C656 C657 1.399 1_554 S
C657 H643 0.929 . S
C657 C656 1.399 1_556 S
C657 C658 1.385 . S
C658 H644 0.931 . S
C658 C657 1.385 . S
C658 C659 1.389 . S
C659 C658 1.389 . S
C659 C660 1.387 . S
C660 H645 0.930 . S
C660 C655 1.390 1_556 S
C660 C659 1.387 . S
H661 C673 0.930 . S
H662 C675 0.930 . S
H663 C676 0.930 . S
H664 C680 0.959 . S
H665 C680 0.959 . S
H666 C680 0.961 . S
H667 C681 0.960 . S
H668 C681 0.961 . S
H669 C681 0.959 . S
H670 C684 0.929 . S
H671 C685 0.931 . S
H672 C687 0.930 . S
C673 H661 0.930 . S
C673 C674 1.399 . S
C673 C678 1.399 . S
C674 C673 1.399 . S
C674 C675 1.376 . S
C675 H662 0.930 . S
C675 C674 1.376 . S
C675 C676 1.388 . S
C676 H663 0.930 . S
C676 C675 1.388 . S
C676 C677 1.390 . S
C677 C676 1.390 . S
C677 C678 1.394 . S
C677 C683 1.465 . S
C678 C673 1.399 . S
C678 C677 1.394 . S
C678 C679 1.516 . S
C679 C678 1.516 . S
C679 C680 1.502 . S
C679 C681 1.561 . S
C679 C682 1.526 . S
C680 H664 0.959 . S
C680 H665 0.959 . S
C680 H666 0.961 . S
C680 C679 1.502 . S
C681 H667 0.960 . S
C681 H668 0.961 . S
C681 H669 0.959 . S
C681 C679 1.561 . S
C682 C679 1.526 . S
C682 C683 1.396 . S
C682 C687 1.390 . S
C683 C677 1.465 . S
C683 C682 1.396 . S
C683 C684 1.399 . S
C684 H670 0.929 . S
C684 C683 1.399 . S
C684 C685 1.385 . S
C685 H671 0.931 . S
C685 C684 1.385 . S
C685 C686 1.389 . S
C686 C685 1.389 . S
C686 C687 1.387 . S
C687 H672 0.930 . S
C687 C682 1.390 . S
C687 C686 1.387 . S
H688 C700 0.930 . S
H689 C702 0.930 . S
H690 C703 0.930 . S
H691 C707 0.959 . S
H692 C707 0.959 . S
H693 C707 0.961 . S
H694 C708 0.960 . S
H695 C708 0.961 . S
H696 C708 0.959 . S
H697 C711 0.929 . S
H698 C712 0.931 1_554 S
H699 C714 0.930 . S
C700 H688 0.930 . S
C700 C701 1.399 . S
C700 C705 1.399 . S
C701 C700 1.399 . S
C701 C702 1.376 1_556 S
C702 H689 0.930 . S
C702 C701 1.376 1_554 S
C702 C703 1.388 . S
C703 H690 0.930 . S
C703 C702 1.388 . S
C703 C704 1.390 1_554 S
C704 C703 1.390 1_556 S
C704 C705 1.394 . S
C704 C710 1.465 . S
C705 C700 1.399 . S
C705 C704 1.394 . S
C705 C706 1.516 . S
C706 C705 1.516 . S
C706 C707 1.502 1_455 S
C706 C708 1.561 . S
C706 C709 1.526 . S
C707 H691 0.959 . S
C707 H692 0.959 . S
C707 H693 0.961 . S
C707 C706 1.502 1_655 S
C708 H694 0.960 . S
C708 H695 0.961 . S
C708 H696 0.959 . S
C708 C706 1.561 . S
C709 C706 1.526 . S
C709 C710 1.396 . S
C709 C714 1.390 . S
C710 C704 1.465 . S
C710 C709 1.396 . S
C710 C711 1.399 1_556 S
C711 H697 0.929 . S
C711 C710 1.399 1_554 S
C711 C712 1.385 1_554 S
C712 H698 0.931 1_556 S
C712 C711 1.385 1_556 S
C712 C713 1.389 . S
C713 C712 1.389 . S
C713 C714 1.387 . S
C714 H699 0.930 . S
C714 C709 1.390 . S
C714 C713 1.387 . S
H715 C727 0.930 . S
H716 C729 0.930 . S
H717 C730 0.930 . S
H718 C734 0.959 . S
H719 C734 0.959 . S
H720 C734 0.961 . S
H721 C735 0.960 . S
H722 C735 0.961 . S
H723 C735 0.959 . S
H724 C738 0.929 . S
H725 C739 0.931 . S
H726 C741 0.930 . S
C727 H715 0.930 . S
C727 C728 1.399 1_565 S
C727 C732 1.399 . S
C728 C727 1.399 1_545 S
C728 C729 1.376 . S
C729 H716 0.930 . S
C729 C728 1.376 . S
C729 C730 1.388 . S
C730 H717 0.930 . S
C730 C729 1.388 . S
C730 C731 1.390 1_554 S
C731 C730 1.390 1_556 S
C731 C732 1.394 1_546 S
C731 C737 1.465 . S
C732 C727 1.399 . S
C732 C731 1.394 1_564 S
C732 C733 1.516 1_554 S
C733 C732 1.516 1_556 S
C733 C734 1.502 1_556 S
C733 C735 1.561 . S
C733 C736 1.526 . S
C734 H718 0.959 . S
C734 H719 0.959 . S
C734 H720 0.961 . S
C734 C733 1.502 1_554 S
C735 H721 0.960 . S
C735 H722 0.961 . S
C735 H723 0.959 . S
C735 C733 1.561 . S
C736 C733 1.526 . S
C736 C737 1.396 1_565 S
C736 C741 1.390 . S
C737 C731 1.465 . S
C737 C736 1.396 1_545 S
C737 C738 1.399 . S
C738 H724 0.929 . S
C738 C737 1.399 . S
C738 C739 1.385 . S
C739 H725 0.931 . S
C739 C738 1.385 . S
C739 C740 1.389 . S
C740 C739 1.389 . S
C740 C741 1.387 1_545 S
C741 H726 0.930 . S
C741 C736 1.390 . S
C741 C740 1.387 1_565 S
H742 C754 0.930 . S
H743 C756 0.930 . S
H744 C757 0.930 . S
H745 C761 0.959 . S
H746 C761 0.959 . S
H747 C761 0.961 . S
H748 C762 0.960 . S
H749 C762 0.961 . S
H750 C762 0.959 . S
H751 C765 0.929 . S
H752 C766 0.931 . S
H753 C768 0.930 . S
C754 H742 0.930 . S
C754 C755 1.399 . S
C754 C759 1.399 . S
C755 C754 1.399 . S
C755 C756 1.376 . S
C756 H743 0.930 . S
C756 C755 1.376 . S
C756 C757 1.388 . S
C757 H744 0.930 . S
C757 C756 1.388 . S
C757 C758 1.390 . S
C758 C757 1.390 . S
C758 C759 1.394 . S
C758 C764 1.465 . S
C759 C754 1.399 . S
C759 C758 1.394 . S
C759 C760 1.516 . S
C760 C759 1.516 . S
C760 C761 1.502 . S
C760 C762 1.561 . S
C760 C763 1.526 . S
C761 H745 0.959 . S
C761 H746 0.959 . S
C761 H747 0.961 . S
C761 C760 1.502 . S
C762 H748 0.960 . S
C762 H749 0.961 . S
C762 H750 0.959 . S
C762 C760 1.561 . S
C763 C760 1.526 . S
C763 C764 1.396 . S
C763 C768 1.390 . S
C764 C758 1.465 . S
C764 C763 1.396 . S
C764 C765 1.399 1_554 S
C765 H751 0.929 . S
C765 C764 1.399 1_556 S
C765 C766 1.385 . S
C766 H752 0.931 . S
C766 C765 1.385 . S
C766 C767 1.389 . S
C767 C766 1.389 . S
C767 C768 1.387 1_556 S
C768 H753 0.930 . S
C768 C763 1.390 . S
C768 C767 1.387 1_554 S
H769 C781 0.930 . S
H770 C783 0.930 . S
H771 C784 0.930 1_554 S
H772 C788 0.959 . S
H773 C788 0.959 . S
H774 C788 0.961 . S
H775 C789 0.960 . S
H776 C789 0.961 . S
H777 C789 0.959 . S
H778 C792 0.929 1_554 S
H779 C793 0.931 . S
H780 C795 0.930 . S
C781 H769 0.930 . S
C781 C782 1.399 . S
C781 C786 1.399 . S
C782 C781 1.399 . S
C782 C783 1.376 . S
C783 H770 0.930 . S
C783 C782 1.376 . S
C783 C784 1.388 . S
C784 H771 0.930 1_556 S
C784 C783 1.388 . S
C784 C785 1.390 . S
C785 C784 1.390 . S
C785 C786 1.394 . S
C785 C791 1.465 . S
C786 C781 1.399 . S
C786 C785 1.394 . S
C786 C787 1.516 . S
C787 C786 1.516 . S
C787 C788 1.502 . S
C787 C789 1.561 . S
C787 C790 1.526 . S
C788 H772 0.959 . S
C788 H773 0.959 . S
C788 H774 0.961 . S
C788 C787 1.502 . S
C789 H775 0.960 . S
C789 H776 0.961 . S
C789 H777 0.959 . S
C789 C787 1.561 . S
C790 C787 1.526 . S
C790 C791 1.396 . S
C790 C795 1.390 . S
C791 C785 1.465 . S
C791 C790 1.396 . S
C791 C792 1.399 . S
C792 H778 0.929 1_556 S
C792 C791 1.399 . S
C792 C793 1.385 . S
C793 H779 0.931 . S
C793 C792 1.385 . S
C793 C794 1.389 . S
C794 C793 1.389 . S
C794 C795 1.387 . S
C795 H780 0.930 . S
C795 C790 1.390 . S
C795 C794 1.387 . S
H796 C808 0.930 . S
H797 C810 0.941 1_455 S
H798 C811 0.930 . S
H799 C815 0.959 . S
H800 C815 0.959 . S
H801 C815 0.961 . S
H802 C816 0.960 . S
H803 C816 0.961 . S
H804 C816 0.959 . S
H805 C819 0.933 1_455 S
H806 C820 0.931 . S
H807 C822 0.930 . S
C808 H796 0.930 . S
C808 C809 1.399 . S
C808 C813 1.399 . S
C809 C808 1.399 . S
C809 C810 1.377 . S
C810 H797 0.941 1_655 S
C810 C809 1.377 . S
C810 C811 1.385 1_655 S
C811 H798 0.930 . S
C811 C810 1.385 1_455 S
C811 C812 1.390 1_455 S
C812 C811 1.390 1_655 S
C812 C813 1.394 . S
C812 C818 1.465 . S
C813 C808 1.399 . S
C813 C812 1.394 . S
C813 C814 1.516 . S
C814 C813 1.516 . S
C814 C815 1.502 . S
C814 C816 1.561 1_655 S
C814 C817 1.526 . S
C815 H799 0.959 . S
C815 H800 0.959 . S
C815 H801 0.961 . S
C815 C814 1.502 . S
C816 H802 0.960 . S
C816 H803 0.961 . S
C816 H804 0.959 . S
C816 C814 1.561 1_455 S
C817 C814 1.526 . S
C817 C818 1.396 . S
C817 C822 1.390 . S
C818 C812 1.465 . S
C818 C817 1.396 . S
C818 C819 1.399 . S
C819 H805 0.933 1_655 S
C819 C818 1.399 . S
C819 C820 1.385 . S
C820 H806 0.931 . S
C820 C819 1.385 . S
C820 C821 1.389 . S
C821 C820 1.389 . S
C821 C822 1.387 . S
C822 H807 0.930 . S
C822 C817 1.390 . S
C822 C821 1.387 . S
H823 C835 0.930 . S
H824 C837 0.930 . S
H825 C838 0.930 . S
H826 C842 0.959 . S
H827 C842 0.959 . S
H828 C842 0.961 . S
H829 C843 0.960 . S
H830 C843 0.961 . S
H831 C843 0.959 . S
H832 C846 0.929 . S
H833 C847 0.931 . S
H834 C849 0.930 . S
C835 H823 0.930 . S
C835 C836 1.387 1_565 S
C835 C840 1.399 . S
C836 C835 1.387 1_545 S
C836 C837 1.389 . S
C837 H824 0.930 . S
C837 C836 1.389 . S
C837 C838 1.388 . S
C838 H825 0.930 . S
C838 C837 1.388 . S
C838 C839 1.390 . S
C839 C838 1.390 . S
C839 C840 1.394 1_545 S
C839 C845 1.465 . S
C840 C835 1.399 . S
C840 C839 1.394 1_565 S
C840 C841 1.516 . S
C841 C840 1.516 . S
C841 C842 1.502 . S
C841 C843 1.561 . S
C841 C844 1.526 . S
C842 H826 0.959 . S
C842 H827 0.959 . S
C842 H828 0.961 . S
C842 C841 1.502 . S
C843 H829 0.960 . S
C843 H830 0.961 . S
C843 H831 0.959 . S
C843 C841 1.561 . S
C844 C841 1.526 . S
C844 C845 1.396 1_565 S
C844 C849 1.390 . S
C845 C839 1.465 . S
C845 C844 1.396 1_545 S
C845 C846 1.399 . S
C846 H832 0.929 . S
C846 C845 1.399 . S
C846 C847 1.385 . S
C847 H833 0.931 . S
C847 C846 1.385 . S
C847 C848 1.389 1_545 S
C848 C847 1.389 1_565 S
C848 C849 1.387 . S
C849 H834 0.930 . S
C849 C844 1.390 . S
C849 C848 1.387 . S
H850 C862 0.930 . S
H851 C864 0.930 . S
H852 C865 0.930 . S
H853 C869 0.959 . S
H854 C869 0.959 . S
H855 C869 0.961 . S
H856 C870 0.960 . S
H857 C870 0.961 . S
H858 C870 0.959 . S
H859 C873 0.929 . S
H860 C874 0.931 . S
H861 C876 0.930 . S
C862 H850 0.930 . S
C862 C863 1.399 . S
C862 C867 1.399 . S
C863 C862 1.399 . S
C863 C864 1.376 . S
C864 H851 0.930 . S
C864 C863 1.376 . S
C864 C865 1.388 . S
C865 H852 0.930 . S
C865 C864 1.388 . S
C865 C866 1.390 . S
C866 C865 1.390 . S
C866 C867 1.394 . S
C866 C872 1.465 . S
C867 C862 1.399 . S
C867 C866 1.394 . S
C867 C868 1.516 . S
C868 C867 1.516 . S
C868 C869 1.502 . S
C868 C870 1.561 . S
C868 C871 1.526 . S
C869 H853 0.959 . S
C869 H854 0.959 . S
C869 H855 0.961 . S
C869 C868 1.502 . S
C870 H856 0.960 . S
C870 H857 0.961 . S
C870 H858 0.959 . S
C870 C868 1.561 . S
C871 C868 1.526 . S
C871 C872 1.396 . S
C871 C876 1.390 . S
C872 C866 1.465 . S
C872 C871 1.396 . S
C872 C873 1.399 . S
C873 H859 0.929 . S
C873 C872 1.399 . S
C873 C874 1.385 . S
C874 H860 0.931 . S
C874 C873 1.385 . S
C874 C875 1.389 . S
C875 C874 1.389 . S
C875 C876 1.387 . S
C876 H861 0.930 . S
C876 C871 1.390 . S
C876 C875 1.387 . S
H877 C889 0.930 . S
H878 C891 0.930 . S
H879 C892 0.930 . S
H880 C896 0.959 . S
H881 C896 0.959 . S
H882 C896 0.961 . S
H883 C897 0.960 . S
H884 C897 0.961 . S
H885 C897 0.959 . S
H886 C900 0.929 . S
H887 C901 0.931 . S
H888 C903 0.930 . S
C889 H877 0.930 . S
C889 C890 1.399 . S
C889 C894 1.399 . S
C890 C889 1.399 . S
C890 C891 1.376 . S
C891 H878 0.930 . S
C891 C890 1.376 . S
C891 C892 1.388 . S
C892 H879 0.930 . S
C892 C891 1.388 . S
C892 C893 1.390 . S
C893 C892 1.390 . S
C893 C894 1.394 . S
C893 C899 1.465 . S
C894 C889 1.399 . S
C894 C893 1.394 . S
C894 C895 1.516 . S
C895 C894 1.516 . S
C895 C896 1.502 . S
C895 C897 1.561 . S
C895 C898 1.526 . S
C896 H880 0.959 . S
C896 H881 0.959 . S
C896 H882 0.961 . S
C896 C895 1.502 . S
C897 H883 0.960 . S
C897 H884 0.961 . S
C897 H885 0.959 . S
C897 C895 1.561 . S
C898 C895 1.526 . S
C898 C899 1.396 . S
C898 C903 1.390 . S
C899 C893 1.465 . S
C899 C898 1.396 . S
C899 C900 1.399 . S
C900 H886 0.929 . S
C900 C899 1.399 . S
C900 C901 1.385 . S
C901 H887 0.931 . S
C901 C900 1.385 . S
C901 C902 1.389 . S
C902 C901 1.389 . S
C902 C903 1.387 . S
C903 H888 0.930 . S
C903 C898 1.390 . S
C903 C902 1.387 . S
C269 C76 2.010 1_545 S
C281 C98 2.048 1_545 S
C308 C138 2.036 . S
C296 C88 1.967 . S
C335 C202 1.862 . S
C323 C52 1.810 . S
C362 C218 1.657 . S
C350 C64 1.511 . S
C389 C119 2.052 1_565 S
C377 C28 1.944 . S
C404 C40 2.023 . S
C416 C159 2.052 . S
C431 C4 1.728 . S
C443 C193 1.913 . S
C458 C16 1.424 . S
C470 C239 1.668 1_655 S
C497 C113 0.367 . S
C485 C69 0.403 . S
C524 C153 0.679 . S
C512 C81 0.694 . S
C551 C189 0.645 . S
C539 C93 0.788 . S
C566 C57 0.628 . S
C578 C233 0.494 . S
C593 C21 0.528 . S
C605 C122 0.340 . S
C632 C162 0.665 . S
C620 C33 0.795 1_565 S
C659 C200 0.741 . S
C647 C45 0.689 . S
C674 C9 0.612 . S
C686 C242 0.602 . S
C701 C66 1.776 1_556 S
C713 C120 2.031 . S
C728 C78 1.898 . S
C740 C160 2.059 . S
C767 C178 1.590 . S
C755 C90 1.651 . S
C794 C240 2.428 . S
C782 C54 2.142 . S
C809 C18 1.772 . S
C821 C109 2.032 . S
C848 C149 2.029 . S
C836 C30 1.922 . S
C875 C199 1.660 . S
C863 C42 1.563 . S
C890 C6 2.189 . S
C902 C229 2.408 . S
