# Generated by pormake.
# Topology apo, (3,6)-cn, num edge types: 1
# Building blocks:
#     Node 0, Type 0, BuildingBlock: MIDCAF_clean_linker_0, # of connection points: 3
#     Node 1, Type 0, BuildingBlock: MIDCAF_clean_linker_0, # of connection points: 3
#     Node 2, Type 0, BuildingBlock: MIDCAF_clean_linker_0, # of connection points: 3
#     Node 3, Type 0, BuildingBlock: MIDCAF_clean_linker_0, # of connection points: 3
#     Node 4, Type 0, BuildingBlock: MIDCAF_clean_linker_0, # of connection points: 3
#     Node 5, Type 0, BuildingBlock: MIDCAF_clean_linker_0, # of connection points: 3
#     Node 6, Type 0, BuildingBlock: MIDCAF_clean_linker_0, # of connection points: 3
#     Node 7, Type 0, BuildingBlock: MIDCAF_clean_linker_0, # of connection points: 3
#     Node 8, Type 1, BuildingBlock: KUMBUR_clean_sbu_1, # of connection points: 6
#     Node 9, Type 1, BuildingBlock: KUMBUR_clean_sbu_1, # of connection points: 6
#     Node 10, Type 1, BuildingBlock: KUMBUR_clean_sbu_1, # of connection points: 6
#     Node 11, Type 1, BuildingBlock: KUMBUR_clean_sbu_1, # of connection points: 6
#     Edge 12, Type (0, 1), BuildingBlock: KIFKEQ_clean_linker_1, # of connection points: 2
#     Edge 13, Type (0, 1), BuildingBlock: KIFKEQ_clean_linker_1, # of connection points: 2
#     Edge 14, Type (0, 1), BuildingBlock: KIFKEQ_clean_linker_1, # of connection points: 2
#     Edge 15, Type (0, 1), BuildingBlock: KIFKEQ_clean_linker_1, # of connection points: 2
#     Edge 16, Type (0, 1), BuildingBlock: KIFKEQ_clean_linker_1, # of connection points: 2
#     Edge 17, Type (0, 1), BuildingBlock: KIFKEQ_clean_linker_1, # of connection points: 2
#     Edge 18, Type (0, 1), BuildingBlock: KIFKEQ_clean_linker_1, # of connection points: 2
#     Edge 19, Type (0, 1), BuildingBlock: KIFKEQ_clean_linker_1, # of connection points: 2
#     Edge 20, Type (0, 1), BuildingBlock: KIFKEQ_clean_linker_1, # of connection points: 2
#     Edge 21, Type (0, 1), BuildingBlock: KIFKEQ_clean_linker_1, # of connection points: 2
#     Edge 22, Type (0, 1), BuildingBlock: KIFKEQ_clean_linker_1, # of connection points: 2
#     Edge 23, Type (0, 1), BuildingBlock: KIFKEQ_clean_linker_1, # of connection points: 2
#     Edge 24, Type (0, 1), BuildingBlock: KIFKEQ_clean_linker_1, # of connection points: 2
#     Edge 25, Type (0, 1), BuildingBlock: KIFKEQ_clean_linker_1, # of connection points: 2
#     Edge 26, Type (0, 1), BuildingBlock: KIFKEQ_clean_linker_1, # of connection points: 2
#     Edge 27, Type (0, 1), BuildingBlock: KIFKEQ_clean_linker_1, # of connection points: 2
#     Edge 28, Type (0, 1), BuildingBlock: KIFKEQ_clean_linker_1, # of connection points: 2
#     Edge 29, Type (0, 1), BuildingBlock: KIFKEQ_clean_linker_1, # of connection points: 2
#     Edge 30, Type (0, 1), BuildingBlock: KIFKEQ_clean_linker_1, # of connection points: 2
#     Edge 31, Type (0, 1), BuildingBlock: KIFKEQ_clean_linker_1, # of connection points: 2
#     Edge 32, Type (0, 1), BuildingBlock: KIFKEQ_clean_linker_1, # of connection points: 2
#     Edge 33, Type (0, 1), BuildingBlock: KIFKEQ_clean_linker_1, # of connection points: 2
#     Edge 34, Type (0, 1), BuildingBlock: KIFKEQ_clean_linker_1, # of connection points: 2
#     Edge 35, Type (0, 1), BuildingBlock: KIFKEQ_clean_linker_1, # of connection points: 2
# Relax obj value: 0.009
# Max RMSD: 0.093
# Mean RMSD: 0.074
data_MOF--net-apo--node1-KUMBUR_clean_sbu_1--node2-MIDCAF_clean_linker_0--edge1-KIFKEQ_clean_linker_1
_symmetry_space_group_name_H-M    P1
_symmetry_Int_Tables_number       1
_symmetry_cell_setting            triclinic
loop_
_symmetry_equiv_pos_as_xyz
'x, y, z'
_cell_length_a     29.424689
_cell_length_b     52.893383
_cell_length_c     64.77226
_cell_angle_alpha  90.067444
_cell_angle_beta   90.079097
_cell_angle_gamma 90.377866
loop_
_atom_site_label
_atom_site_type_symbol
_atom_site_fract_x
_atom_site_fract_y
_atom_site_fract_z
_atom_type_partial_charge
C0 C 0.32211 0.39703 0.48622 0.0
C1 C 0.31694 0.37361 0.49611 0.0
C2 C 0.29925 0.35302 0.48499 0.0
C3 C 0.28669 0.35582 0.46426 0.0
H4 H 0.20325 0.3235 0.41733 0.0
H5 H 0.16257 0.29046 0.3982 0.0
H6 H 0.19396 0.32856 0.34097 0.0
H7 H 0.23333 0.36162 0.35989 0.0
H8 H 0.2659 0.41641 0.36043 0.0
H9 H 0.29357 0.45178 0.34016 0.0
H10 H 0.36304 0.48178 0.39369 0.0
H11 H 0.33467 0.44633 0.41432 0.0
H12 H 0.31498 0.41808 0.45823 0.0
H13 H 0.33569 0.41316 0.49458 0.0
H14 H 0.29472 0.33484 0.49243 0.0
H15 H 0.27299 0.33957 0.45614 0.0
N16 N 0.25664 0.36344 0.42191 0.0
N17 N 0.25965 0.38691 0.39129 0.0
N18 N 0.29307 0.40317 0.42137 0.0
C19 C 0.24627 0.36576 0.40153 0.0
C20 C 0.28294 0.40573 0.40099 0.0
C21 C 0.28004 0.38209 0.43197 0.0
C22 C 0.22152 0.34536 0.39022 0.0
C23 C 0.2014 0.32483 0.40066 0.0
C24 C 0.1782 0.30582 0.38968 0.0
C25 C 0.17467 0.30688 0.36801 0.0
C26 C 0.19506 0.32734 0.35765 0.0
C27 C 0.21798 0.3463 0.36857 0.0
C28 C 0.29829 0.42827 0.38906 0.0
C29 C 0.28692 0.43051 0.36803 0.0
C30 C 0.303 0.4508 0.35631 0.0
C31 C 0.33097 0.46949 0.3652 0.0
C32 C 0.34138 0.46776 0.38637 0.0
C33 C 0.32527 0.44735 0.39817 0.0
C34 C 0.29226 0.37922 0.45415 0.0
C35 C 0.31024 0.39977 0.46542 0.0
C36 C 0.17525 0.1052 0.98531 0.0
C37 C 0.19013 0.12629 0.9967 0.0
C38 C 0.21982 0.14374 0.98739 0.0
C39 C 0.23342 0.14054 0.96687 0.0
H40 H 0.29555 0.17886 0.91782 0.0
H41 H 0.33208 0.21291 0.89814 0.0
H42 H 0.33017 0.16599 0.84361 0.0
H43 H 0.29412 0.13213 0.86294 0.0
H44 H 0.24991 0.08034 0.8626 0.0
H45 H 0.22039 0.04542 0.84204 0.0
H46 H 0.13809 0.0209 0.89346 0.0
H47 H 0.16779 0.05587 0.91429 0.0
H48 H 0.17682 0.08539 0.95656 0.0
H49 H 0.15287 0.09127 0.99224 0.0
H50 H 0.23168 0.1602 0.99585 0.0
H51 H 0.25571 0.1546 0.96007 0.0
N52 N 0.25552 0.13493 0.92346 0.0
N53 N 0.25216 0.11161 0.89272 0.0
N54 N 0.21687 0.09592 0.92245 0.0
C55 C 0.26634 0.1325 0.90315 0.0
C56 C 0.22751 0.09323 0.90218 0.0
C57 C 0.2309 0.11665 0.93325 0.0
C58 C 0.29139 0.15276 0.89197 0.0
C59 C 0.30326 0.17572 0.90168 0.0
C60 C 0.32429 0.1952 0.89046 0.0
C61 C 0.33345 0.19215 0.86931 0.0
C62 C 0.3228 0.16901 0.85981 0.0
C63 C 0.3022 0.14956 0.87097 0.0
C64 C 0.21108 0.07108 0.89012 0.0
C65 C 0.22559 0.06755 0.86963 0.0
C66 C 0.20858 0.04756 0.85778 0.0
C67 C 0.1767 0.03054 0.86609 0.0
C68 C 0.1629 0.03363 0.8867 0.0
C69 C 0.17986 0.05371 0.8986 0.0
C70 C 0.21799 0.11963 0.95529 0.0
C71 C 0.18919 0.10183 0.96488 0.0
C72 C 0.83548 0.10351 0.52679 0.0
C73 C 0.82287 0.12426 0.51461 0.0
C74 C 0.79815 0.14395 0.52387 0.0
C75 C 0.78621 0.14285 0.54479 0.0
H76 H 0.72215 0.1832 0.59384 0.0
H77 H 0.68366 0.21699 0.61301 0.0
H78 H 0.68268 0.17061 0.66764 0.0
H79 H 0.72138 0.13712 0.64902 0.0
H80 H 0.76305 0.08441 0.6498 0.0
H81 H 0.79088 0.04921 0.6704 0.0
H82 H 0.87687 0.02607 0.61996 0.0
H83 H 0.84903 0.06118 0.59919 0.0
H84 H 0.83373 0.08592 0.55639 0.0
H85 H 0.85396 0.08786 0.52012 0.0
H86 H 0.78834 0.16037 0.51498 0.0
H87 H 0.76724 0.15835 0.5514 0.0
N88 N 0.76178 0.139 0.5886 0.0
N89 N 0.76412 0.11641 0.61975 0.0
N90 N 0.79925 0.09996 0.59037 0.0
C91 C 0.75064 0.13708 0.60898 0.0
C92 C 0.7884 0.0978 0.61063 0.0
C93 C 0.78607 0.12037 0.57917 0.0
C94 C 0.72521 0.15739 0.61984 0.0
C95 C 0.71368 0.18015 0.60992 0.0
C96 C 0.69172 0.19949 0.62083 0.0
C97 C 0.68037 0.19623 0.64172 0.0
C98 C 0.69091 0.17342 0.6515 0.0
C99 C 0.71321 0.15429 0.64075 0.0
C100 C 0.80393 0.07576 0.62284 0.0
C101 C 0.78788 0.07186 0.64304 0.0
C102 C 0.80387 0.05173 0.65489 0.0
C103 C 0.83618 0.03499 0.64681 0.0
C104 C 0.85163 0.03854 0.6265 0.0
C105 C 0.83573 0.05872 0.61464 0.0
C106 C 0.79866 0.12199 0.55695 0.0
C107 C 0.82353 0.10237 0.54763 0.0
C108 C 0.68504 0.3983 0.02508 0.0
C109 C 0.68624 0.37514 0.01445 0.0
C110 C 0.70176 0.35361 0.02512 0.0
C111 C 0.71547 0.35519 0.04581 0.0
H112 H 0.78738 0.31637 0.09531 0.0
H113 H 0.82476 0.28331 0.11564 0.0
H114 H 0.82307 0.33197 0.16918 0.0
H115 H 0.78597 0.36452 0.14934 0.0
H116 H 0.72948 0.41059 0.15171 0.0
H117 H 0.70028 0.44573 0.17194 0.0
H118 H 0.64788 0.48022 0.1166 0.0
H119 H 0.6764 0.44482 0.09607 0.0
H120 H 0.69653 0.41803 0.05342 0.0
H121 H 0.67424 0.41541 0.0174 0.0
H122 H 0.70251 0.3353 0.01765 0.0
H123 H 0.72666 0.33819 0.05354 0.0
N124 N 0.74842 0.36117 0.0886 0.0
N125 N 0.74442 0.38401 0.11961 0.0
N126 N 0.71202 0.40065 0.08969 0.0
C127 C 0.75832 0.36322 0.10914 0.0
C128 C 0.72131 0.40276 0.11012 0.0
C129 C 0.72536 0.38003 0.07877 0.0
C130 C 0.78306 0.34311 0.12063 0.0
C131 C 0.79514 0.32001 0.11139 0.0
C132 C 0.8167 0.3011 0.12302 0.0
C133 C 0.82635 0.30488 0.14413 0.0
C134 C 0.81527 0.32818 0.15311 0.0
C135 C 0.79404 0.34696 0.14159 0.0
C136 C 0.7052 0.42476 0.12221 0.0
C137 C 0.71182 0.42559 0.14373 0.0
C138 C 0.69505 0.44566 0.15538 0.0
C139 C 0.67186 0.46548 0.14577 0.0
C140 C 0.66593 0.46511 0.12427 0.0
C141 C 0.68218 0.44483 0.11259 0.0
C142 C 0.71344 0.37828 0.05648 0.0
C143 C 0.69823 0.39983 0.0458 0.0
C144 C 0.6979 0.59971 0.52255 0.0
C145 C 0.69775 0.62379 0.51317 0.0
C146 C 0.71578 0.64432 0.52452 0.0
C147 C 0.7322 0.641 0.54462 0.0
H148 H 0.80591 0.67684 0.59183 0.0
H149 H 0.8408 0.7114 0.61147 0.0
H150 H 0.84033 0.66475 0.66614 0.0
H151 H 0.80514 0.63055 0.64683 0.0
H152 H 0.73926 0.58507 0.64936 0.0
H153 H 0.70669 0.55084 0.66943 0.0
H154 H 0.66482 0.5132 0.61319 0.0
H155 H 0.69605 0.54809 0.59303 0.0
H156 H 0.7116 0.57785 0.54959 0.0
H157 H 0.68623 0.58306 0.51437 0.0
H158 H 0.71614 0.66327 0.5183 0.0
H159 H 0.74508 0.65736 0.55288 0.0
N160 N 0.76723 0.63265 0.58613 0.0
N161 N 0.76254 0.60974 0.61701 0.0
N162 N 0.7289 0.59353 0.58697 0.0
C163 C 0.77735 0.63046 0.60655 0.0
C164 C 0.73835 0.5912 0.60742 0.0
C165 C 0.74321 0.61418 0.5762 0.0
C166 C 0.80201 0.65094 0.61776 0.0
C167 C 0.81348 0.6739 0.60801 0.0
C168 C 0.83367 0.6937 0.61925 0.0
C169 C 0.84271 0.69098 0.64047 0.0
C170 C 0.83285 0.66771 0.64995 0.0
C171 C 0.8128 0.648 0.63878 0.0
C172 C 0.72033 0.56945 0.61951 0.0
C173 C 0.7233 0.56948 0.64119 0.0
C174 C 0.70477 0.54968 0.65276 0.0
C175 C 0.6831 0.52909 0.64301 0.0
C176 C 0.6806 0.52888 0.6213 0.0
C177 C 0.69884 0.54885 0.6097 0.0
C178 C 0.73006 0.61721 0.5542 0.0
C179 C 0.71317 0.59656 0.54283 0.0
C180 C 0.83319 0.89497 0.0255 0.0
C181 C 0.81433 0.8764 0.01243 0.0
C182 C 0.77942 0.8608 0.02028 0.0
C183 C 0.76416 0.86361 0.04068 0.0
H184 H 0.71109 0.82055 0.09219 0.0
H185 H 0.67606 0.78647 0.11244 0.0
H186 H 0.66016 0.83759 0.16385 0.0
H187 H 0.69478 0.87141 0.14393 0.0
H188 H 0.77909 0.91109 0.14885 0.0
H189 H 0.81072 0.94535 0.16943 0.0
H190 H 0.83519 0.98866 0.114 0.0
H191 H 0.8045 0.95386 0.09321 0.0
H192 H 0.83351 0.9124 0.05522 0.0
H193 H 0.86066 0.90707 0.02026 0.0
H194 H 0.76347 0.84657 0.01062 0.0
H195 H 0.73732 0.85127 0.04621 0.0
N196 N 0.74323 0.86675 0.08505 0.0
N197 N 0.74646 0.88965 0.11608 0.0
N198 N 0.78243 0.90563 0.08664 0.0
C199 C 0.73189 0.86902 0.10538 0.0
C200 C 0.77158 0.90805 0.10691 0.0
C201 C 0.76847 0.88508 0.07555 0.0
C202 C 0.70647 0.84872 0.11647 0.0
C203 C 0.69965 0.82459 0.10773 0.0
C204 C 0.67953 0.80507 0.11931 0.0
C205 C 0.66602 0.80925 0.13987 0.0
C206 C 0.67112 0.8336 0.14823 0.0
C207 C 0.69093 0.85304 0.13671 0.0
C208 C 0.78921 0.92966 0.11933 0.0
C209 C 0.79086 0.92796 0.14098 0.0
C210 C 0.80891 0.94771 0.15284 0.0
C211 C 0.82546 0.96988 0.14343 0.0
C212 C 0.82336 0.97174 0.12176 0.0
C213 C 0.80558 0.95183 0.10984 0.0
C214 C 0.78319 0.88223 0.05368 0.0
C215 C 0.81768 0.89796 0.04572 0.0
C216 C 0.1706 0.89391 0.48147 0.0
C217 C 0.19188 0.87718 0.49521 0.0
C218 C 0.22808 0.86236 0.48781 0.0
C219 C 0.24184 0.86384 0.46714 0.0
H220 H 0.28343 0.81641 0.41401 0.0
H221 H 0.31943 0.78251 0.39408 0.0
H222 H 0.34853 0.83522 0.345 0.0
H223 H 0.31265 0.86886 0.36453 0.0
H224 H 0.24604 0.91462 0.359 0.0
H225 H 0.21668 0.94971 0.33879 0.0
H226 H 0.15356 0.98046 0.39338 0.0
H227 H 0.18234 0.9453 0.41367 0.0
H228 H 0.16708 0.90861 0.45085 0.0
H229 H 0.14216 0.90532 0.48636 0.0
H230 H 0.24601 0.84962 0.49799 0.0
H231 H 0.26964 0.85212 0.46195 0.0
N232 N 0.25851 0.86372 0.42212 0.0
N233 N 0.2566 0.88644 0.39099 0.0
N234 N 0.22118 0.90278 0.42032 0.0
C235 C 0.26991 0.86574 0.40178 0.0
C236 C 0.23228 0.90502 0.40012 0.0
C237 C 0.23415 0.88235 0.43149 0.0
C238 C 0.29489 0.84538 0.39087 0.0
C239 C 0.29787 0.82081 0.39906 0.0
C240 C 0.31825 0.80138 0.38764 0.0
C241 C 0.33673 0.80629 0.36802 0.0
C242 C 0.33495 0.83096 0.36015 0.0
C243 C 0.31411 0.8502 0.37136 0.0
C244 C 0.21644 0.92701 0.38798 0.0
C245 C 0.22614 0.9289 0.36678 0.0
C246 C 0.20952 0.94908 0.35518 0.0
C247 C 0.18277 0.96778 0.36451 0.0
C248 C 0.17365 0.96615 0.38574 0.0
C249 C 0.19035 0.94602 0.39736 0.0
C250 C 0.22023 0.88047 0.45346 0.0
C251 C 0.18475 0.89565 0.46095 0.0
C252 C 0.3242 0.5992 0.98452 0.0
C253 C 0.3164 0.62127 0.996 0.0
C254 C 0.29388 0.64153 0.98641 0.0
C255 C 0.27993 0.63982 0.96575 0.0
H256 H 0.21776 0.68041 0.91608 0.0
H257 H 0.18028 0.71405 0.89656 0.0
H258 H 0.17109 0.66484 0.84348 0.0
H259 H 0.20766 0.63144 0.86272 0.0
H260 H 0.27337 0.58711 0.85852 0.0
H261 H 0.30378 0.55264 0.83794 0.0
H262 H 0.35395 0.51685 0.89324 0.0
H263 H 0.32349 0.55133 0.91403 0.0
H264 H 0.31771 0.58024 0.95557 0.0
H265 H 0.34181 0.58334 0.99134 0.0
H266 H 0.28684 0.6587 0.99492 0.0
H267 H 0.26294 0.65582 0.95884 0.0
N268 N 0.25183 0.63478 0.92244 0.0
N269 N 0.25539 0.61243 0.89117 0.0
N270 N 0.28935 0.59573 0.92074 0.0
C271 C 0.24131 0.63294 0.90198 0.0
C272 C 0.27938 0.59377 0.90035 0.0
C273 C 0.27576 0.61608 0.93195 0.0
C274 C 0.21609 0.65319 0.891 0.0
C275 C 0.2074 0.67672 0.90031 0.0
C276 C 0.18614 0.69603 0.88911 0.0
C277 C 0.17274 0.6921 0.86847 0.0
C278 C 0.18043 0.66841 0.85941 0.0
C279 C 0.20182 0.64927 0.87048 0.0
C280 C 0.29611 0.57212 0.88798 0.0
C281 C 0.2907 0.5719 0.86639 0.0
C282 C 0.30833 0.55221 0.85454 0.0
C283 C 0.33145 0.53216 0.86398 0.0
C284 C 0.33604 0.53201 0.88557 0.0
C285 C 0.31873 0.55184 0.89745 0.0
C286 C 0.28846 0.61785 0.95416 0.0
C287 C 0.31052 0.59752 0.9639 0.0
Tb288 Tb 0.0572 0.1388 0.236 0.0
C289 C 0.84965 0.12274 0.26144 0.0
N290 N 0.87743 0.14337 0.26174 0.0
C291 C 0.81861 0.16816 0.24609 0.0
C292 C 0.80592 0.12375 0.25255 0.0
C293 C 0.86155 0.16623 0.25521 0.0
C294 C 0.79094 0.14673 0.24443 0.0
C295 C 0.83601 0.07931 0.27168 0.0
C296 C 0.86451 0.10085 0.27087 0.0
C297 C 0.79319 0.07986 0.2621 0.0
C298 C 0.77816 0.10204 0.25256 0.0
Tb299 Tb 0.94796 0.13761 0.27595 0.0
N300 N 0.90615 0.10104 0.27998 0.0
C301 C 0.8509 0.05808 0.28254 0.0
C302 C 0.9193 0.08091 0.29181 0.0
C303 C 0.89241 0.05906 0.29294 0.0
H304 H 0.88128 0.18323 0.25739 0.0
H305 H 0.90346 0.04313 0.30208 0.0
H306 H 0.13422 0.09517 0.25033 0.0
H307 H 0.08058 0.2361 0.21329 0.0
H308 H 0.94987 0.08172 0.30098 0.0
H309 H 0.83001 0.04118 0.28355 0.0
H310 H 0.0398 0.19517 0.21559 0.0
H311 H 0.80664 0.18627 0.24063 0.0
H312 H 0.77101 0.06343 0.26241 0.0
H313 H 0.74461 0.10239 0.24565 0.0
H314 H 0.21312 0.09492 0.26282 0.0
H315 H 0.75754 0.14831 0.2375 0.0
H316 H 0.15784 0.2405 0.22809 0.0
N317 N 0.13109 0.13541 0.24749 0.0
C318 C 0.15547 0.15729 0.24766 0.0
C319 C 0.19719 0.11266 0.25886 0.0
C320 C 0.20117 0.15789 0.25431 0.0
C321 C 0.1522 0.11298 0.25194 0.0
C322 C 0.2216 0.13527 0.26038 0.0
N323 N 0.09235 0.17715 0.23247 0.0
C324 C 0.07314 0.19707 0.22235 0.0
C325 C 0.1604 0.20168 0.23856 0.0
C326 C 0.13557 0.17884 0.23976 0.0
C327 C 0.1399 0.22261 0.2293 0.0
C328 C 0.09629 0.2202 0.22092 0.0
H329 H 0.25663 0.13493 0.26555 0.0
H330 H 0.26051 0.18167 0.25916 0.0
H331 H 0.2247 0.22009 0.24547 0.0
O332 O 0.05917 0.14482 0.20312 0.0
O333 O 0.04926 0.17075 0.25734 0.0
O334 O 0.01638 0.15052 0.28478 0.0
O335 O 0.0928 0.11332 0.21804 0.0
O336 O 0.99059 0.15263 0.2264 0.0
O337 O 0.9591 0.17051 0.25554 0.0
O338 O 0.93316 0.13109 0.30747 0.0
O339 O 0.93898 0.11876 0.24604 0.0
O340 O 0.01176 0.10568 0.23769 0.0
O341 O 0.92162 0.16787 0.29343 0.0
O342 O 0.99781 0.10765 0.28093 0.0
O343 O 0.06643 0.11579 0.26376 0.0
C344 C 0.03864 0.16987 0.27703 0.0
C345 C 0.10264 0.11484 0.18131 0.0
C346 C 0.11561 0.11677 0.14416 0.0
C347 C 0.13906 0.09379 0.14522 0.0
C348 C 0.1264 0.09181 0.18185 0.0
C349 C 0.14444 0.08144 0.16395 0.0
C350 C 0.09742 0.12749 0.16227 0.0
C351 C 0.96649 0.17032 0.23542 0.0
C352 C 0.08471 0.12501 0.20092 0.0
C353 C 0.22552 0.18081 0.25395 0.0
C354 C 0.20515 0.20268 0.24611 0.0
C355 C 0.96727 0.10429 0.23573 0.0
C356 C 0.902 0.16373 0.32997 0.0
C357 C 0.88602 0.15861 0.36679 0.0
C358 C 0.86931 0.18336 0.36736 0.0
C359 C 0.88503 0.18846 0.33101 0.0
C360 C 0.90237 0.1487 0.34803 0.0
C361 C 0.86879 0.19815 0.34959 0.0
C362 C 0.04107 0.10332 0.27709 0.0
C363 C 0.91901 0.15404 0.31001 0.0
H364 H 0.15341 0.08542 0.13142 0.0
H365 H 0.13122 0.08165 0.19619 0.0
H366 H 0.16267 0.06376 0.1646 0.0
H367 H 0.07944 0.14528 0.16152 0.0
H368 H 0.85639 0.19122 0.38165 0.0
H369 H 0.88418 0.20037 0.31743 0.0
H370 H 0.91519 0.12954 0.34755 0.0
H371 H 0.85568 0.2172 0.35021 0.0
Tb372 Tb 0.44893 0.36117 0.73585 0.0
C373 C 0.65412 0.3791 0.76229 0.0
N374 N 0.62908 0.35746 0.76117 0.0
C375 C 0.6931 0.33534 0.74729 0.0
C376 C 0.69983 0.37971 0.75582 0.0
C377 C 0.64792 0.33562 0.75394 0.0
C378 C 0.71919 0.35746 0.74824 0.0
C379 C 0.65834 0.4237 0.77098 0.0
C380 C 0.63349 0.40086 0.76969 0.0
C381 C 0.70398 0.42435 0.76465 0.0
C382 C 0.72466 0.40242 0.7571 0.0
Tb383 Tb 0.55757 0.36004 0.77448 0.0
N384 N 0.58908 0.3996 0.77553 0.0
C385 C 0.63674 0.44512 0.77883 0.0
C386 C 0.56878 0.42011 0.78424 0.0
C387 C 0.59188 0.44325 0.78565 0.0
H388 H 0.62882 0.31814 0.75398 0.0
H389 H 0.57537 0.45949 0.79242 0.0
H390 H 0.3791 0.40531 0.75419 0.0
H391 H 0.42312 0.26301 0.71673 0.0
H392 H 0.53563 0.41869 0.79092 0.0
H393 H 0.65468 0.46301 0.78014 0.0
H394 H 0.46651 0.30289 0.71901 0.0
H395 H 0.70795 0.31797 0.7417 0.0
H396 H 0.72364 0.44171 0.76561 0.0
H397 H 0.7599 0.40323 0.75229 0.0
H398 H 0.30184 0.40687 0.76863 0.0
H399 H 0.75427 0.35713 0.74318 0.0
H400 H 0.34492 0.26061 0.73067 0.0
N401 N 0.3781 0.36551 0.74962 0.0
C402 C 0.35234 0.34406 0.7497 0.0
C403 C 0.31582 0.38902 0.7636 0.0
C404 C 0.30725 0.34424 0.75699 0.0
C405 C 0.36012 0.38798 0.75589 0.0
C406 C 0.28933 0.36703 0.76428 0.0
N407 N 0.41521 0.32234 0.73556 0.0
C408 C 0.43342 0.30182 0.72596 0.0
C409 C 0.34485 0.29959 0.74094 0.0
C410 C 0.37116 0.32188 0.74206 0.0
C411 C 0.36415 0.27807 0.732 0.0
C412 C 0.4084 0.27931 0.72423 0.0
H413 H 0.25482 0.36796 0.77002 0.0
H414 H 0.24659 0.32162 0.76198 0.0
H415 H 0.27928 0.28263 0.7477 0.0
O416 O 0.45122 0.35453 0.7036 0.0
O417 O 0.44159 0.33992 0.76505 0.0
O418 O 0.51307 0.32713 0.77556 0.0
O419 O 0.39986 0.37808 0.71698 0.0
O420 O 0.51188 0.34308 0.7254 0.0
O421 O 0.54696 0.32696 0.75459 0.0
O422 O 0.55981 0.36659 0.80731 0.0
O423 O 0.56579 0.37928 0.74444 0.0
O424 O 0.4946 0.394 0.73526 0.0
O425 O 0.60293 0.33914 0.79196 0.0
O426 O 0.49378 0.37764 0.78468 0.0
O427 O 0.45984 0.39433 0.75546 0.0
C428 C 0.46868 0.32656 0.77692 0.0
C429 C 0.41499 0.38431 0.68145 0.0
C430 C 0.40252 0.38813 0.64427 0.0
C431 C 0.40417 0.41453 0.64623 0.0
C432 C 0.41642 0.41079 0.68305 0.0
C433 C 0.41103 0.42576 0.6655 0.0
C434 C 0.40786 0.37301 0.66196 0.0
C435 C 0.53975 0.32727 0.73453 0.0
C436 C 0.41553 0.36829 0.70007 0.0
C437 C 0.28133 0.32185 0.75646 0.0
C438 C 0.29999 0.29963 0.74835 0.0
C439 C 0.53922 0.39417 0.7335 0.0
C440 C 0.61572 0.3428 0.82856 0.0
C441 C 0.62654 0.34389 0.86607 0.0
C442 C 0.66344 0.32737 0.86389 0.0
C443 C 0.65291 0.32628 0.82707 0.0
C444 C 0.60276 0.35192 0.84826 0.0
C445 C 0.6765 0.31872 0.84457 0.0
C446 C 0.46668 0.39398 0.77558 0.0
C447 C 0.59216 0.35001 0.80919 0.0
H448 H 0.3993 0.42648 0.63283 0.0
H449 H 0.42057 0.4199 0.69791 0.0
H450 H 0.41147 0.44615 0.66688 0.0
H451 H 0.40559 0.3526 0.66061 0.0
H452 H 0.68258 0.32125 0.87727 0.0
H453 H 0.66413 0.31914 0.81226 0.0
H454 H 0.57436 0.36473 0.84975 0.0
H455 H 0.70509 0.30607 0.84314 0.0
Tb456 Tb 0.0587 0.86033 0.73428 0.0
C457 C 0.85576 0.84213 0.76264 0.0
N458 N 0.88065 0.86382 0.76198 0.0
C459 C 0.81594 0.8865 0.74944 0.0
C460 C 0.81007 0.84165 0.75604 0.0
C461 C 0.86105 0.88603 0.75621 0.0
C462 C 0.7904 0.86416 0.74919 0.0
C463 C 0.85152 0.79741 0.77069 0.0
C464 C 0.87632 0.82028 0.76992 0.0
C465 C 0.80609 0.79679 0.76397 0.0
C466 C 0.78542 0.81885 0.75668 0.0
Tb467 Tb 0.95253 0.86098 0.77463 0.0
N468 N 0.92053 0.82151 0.77621 0.0
C469 C 0.87298 0.77586 0.77836 0.0
C470 C 0.94094 0.80072 0.78445 0.0
C471 C 0.91776 0.77758 0.78539 0.0
H472 H 0.87954 0.90355 0.7574 0.0
H473 H 0.93425 0.76115 0.79185 0.0
H474 H 0.12941 0.81773 0.75556 0.0
H475 H 0.08904 0.95539 0.70802 0.0
H476 H 0.97443 0.80181 0.79095 0.0
H477 H 0.85506 0.75793 0.77926 0.0
H478 H 0.0458 0.91542 0.71162 0.0
H479 H 0.80071 0.90415 0.74473 0.0
H480 H 0.78653 0.77938 0.76447 0.0
H481 H 0.75028 0.81811 0.75168 0.0
H482 H 0.20437 0.81799 0.77196 0.0
H483 H 0.75537 0.8646 0.74404 0.0
H484 H 0.16469 0.95984 0.72445 0.0
N485 N 0.12815 0.85761 0.75037 0.0
C486 C 0.15396 0.87906 0.74974 0.0
C487 C 0.19021 0.83545 0.7662 0.0
C488 C 0.19828 0.87975 0.75807 0.0
C489 C 0.14678 0.83559 0.75742 0.0
C490 C 0.21584 0.85771 0.76682 0.0
N491 N 0.09479 0.89831 0.73112 0.0
C492 C 0.0781 0.9175 0.7193 0.0
C493 C 0.16349 0.92212 0.73744 0.0
C494 C 0.1371 0.89993 0.73944 0.0
C495 C 0.14554 0.94243 0.7263 0.0
C496 C 0.10279 0.94002 0.71705 0.0
H497 H 0.24981 0.85742 0.77329 0.0
H498 H 0.25833 0.90295 0.76306 0.0
H499 H 0.22767 0.94013 0.74514 0.0
O500 O 0.05036 0.86071 0.70122 0.0
O501 O 0.05183 0.89268 0.75545 0.0
O502 O 0.02006 0.87415 0.78388 0.0
O503 O 0.10865 0.84375 0.71632 0.0
O504 O 0.99484 0.87793 0.72456 0.0
O505 O 0.96097 0.89398 0.75425 0.0
O506 O 0.928 0.85324 0.80475 0.0
O507 O 0.94231 0.84344 0.74395 0.0
O508 O 0.01314 0.82786 0.73713 0.0
O509 O 0.92616 0.89137 0.79175 0.0
O510 O 0.01424 0.84169 0.78507 0.0
O511 O 0.05161 0.8278 0.75555 0.0
C512 C 0.04337 0.89249 0.77535 0.0
C513 C 0.10967 0.84088 0.67934 0.0
C514 C 0.12046 0.84346 0.64199 0.0
C515 C 0.15449 0.82507 0.6434 0.0
C516 C 0.14392 0.82245 0.68017 0.0
C517 C 0.16613 0.81469 0.66235 0.0
C518 C 0.09796 0.85156 0.66006 0.0
C519 C 0.96934 0.89469 0.73418 0.0
C520 C 0.08904 0.8492 0.69901 0.0
C521 C 0.22431 0.90206 0.75668 0.0
C522 C 0.20693 0.92321 0.7464 0.0
C523 C 0.96932 0.82829 0.73355 0.0
C524 C 0.89563 0.88643 0.82647 0.0
C525 C 0.88176 0.88475 0.86365 0.0
C526 C 0.85372 0.90599 0.86187 0.0
C527 C 0.86751 0.9077 0.82516 0.0
C528 C 0.90257 0.87475 0.84585 0.0
C529 C 0.84656 0.91731 0.84275 0.0
C530 C 0.04435 0.82732 0.77569 0.0
C531 C 0.91695 0.87678 0.80743 0.0
H532 H 0.17253 0.81889 0.62973 0.0
H533 H 0.15395 0.81402 0.6947 0.0
H534 H 0.19265 0.80065 0.66325 0.0
H535 H 0.07211 0.86601 0.65912 0.0
H536 H 0.83733 0.91385 0.87538 0.0
H537 H 0.86135 0.91681 0.81046 0.0
H538 H 0.92433 0.85837 0.84713 0.0
H539 H 0.82476 0.93364 0.84158 0.0
Tb540 Tb 0.45071 0.63894 0.2337 0.0
C541 C 0.65085 0.65602 0.25771 0.0
N542 N 0.62486 0.63461 0.25827 0.0
C543 C 0.68661 0.61089 0.24383 0.0
C544 C 0.69541 0.65572 0.2497 0.0
C545 C 0.64336 0.61193 0.25267 0.0
C546 C 0.71255 0.63294 0.24208 0.0
C547 C 0.6618 0.69962 0.26863 0.0
C548 C 0.63432 0.67781 0.26696 0.0
C549 C 0.70558 0.69962 0.26005 0.0
C550 C 0.72225 0.67776 0.25052 0.0
Tb551 Tb 0.55569 0.63928 0.27408 0.0
N552 N 0.59194 0.67718 0.27527 0.0
C553 C 0.64505 0.72044 0.27957 0.0
C554 C 0.57645 0.6968 0.28699 0.0
C555 C 0.60239 0.71891 0.28898 0.0
H556 H 0.62595 0.59432 0.25566 0.0
H557 H 0.58977 0.73459 0.29801 0.0
H558 H 0.37867 0.68206 0.2514 0.0
H559 H 0.43196 0.53859 0.21852 0.0
H560 H 0.54419 0.69528 0.29483 0.0
H561 H 0.6653 0.73748 0.28135 0.0
H562 H 0.47148 0.57948 0.21777 0.0
H563 H 0.70052 0.59293 0.23903 0.0
H564 H 0.72724 0.71621 0.26116 0.0
H565 H 0.75657 0.67784 0.24447 0.0
H566 H 0.30047 0.68271 0.26475 0.0
H567 H 0.74658 0.63194 0.23577 0.0
H568 H 0.35393 0.53551 0.23244 0.0
N569 N 0.37953 0.6421 0.24709 0.0
C570 C 0.35483 0.6203 0.24724 0.0
C571 C 0.31552 0.66498 0.26009 0.0
C572 C 0.30961 0.61991 0.25439 0.0
C573 C 0.36021 0.66445 0.2528 0.0
C574 C 0.29017 0.6426 0.26101 0.0
N575 N 0.41864 0.59943 0.23305 0.0
C576 C 0.43862 0.57845 0.22489 0.0
C577 C 0.35049 0.57528 0.24017 0.0
C578 C 0.37505 0.59826 0.24011 0.0
C579 C 0.37164 0.55354 0.23266 0.0
C580 C 0.41577 0.55518 0.22487 0.0
H581 H 0.25546 0.64311 0.26656 0.0
H582 H 0.25033 0.59637 0.25994 0.0
H583 H 0.28614 0.55729 0.24757 0.0
O584 O 0.42567 0.63 0.20394 0.0
O585 O 0.44188 0.62243 0.26481 0.0
O586 O 0.5119 0.60575 0.27281 0.0
O587 O 0.42394 0.6687 0.2158 0.0
O588 O 0.51228 0.61909 0.22391 0.0
O589 O 0.54929 0.60589 0.25378 0.0
O590 O 0.54408 0.63952 0.30657 0.0
O591 O 0.54769 0.67105 0.25238 0.0
O592 O 0.51818 0.65157 0.22389 0.0
O593 O 0.60858 0.62908 0.29378 0.0
O594 O 0.49181 0.65692 0.28343 0.0
O595 O 0.45924 0.67267 0.25335 0.0
C596 C 0.46731 0.60563 0.27428 0.0
C597 C 0.394 0.66192 0.18093 0.0
C598 C 0.38046 0.65746 0.14382 0.0
C599 C 0.3554 0.67992 0.14416 0.0
C600 C 0.36866 0.68432 0.18082 0.0
C601 C 0.34938 0.69316 0.16255 0.0
C602 C 0.39954 0.64827 0.16231 0.0
C603 C 0.54159 0.60461 0.2337 0.0
C604 C 0.41498 0.65343 0.20047 0.0
C605 C 0.28514 0.59703 0.25452 0.0
C606 C 0.30555 0.57477 0.24747 0.0
C607 C 0.5419 0.66987 0.23231 0.0
C608 C 0.59671 0.61719 0.32852 0.0
C609 C 0.6115 0.61516 0.36555 0.0
C610 C 0.63445 0.59228 0.36265 0.0
C611 C 0.61941 0.59407 0.32597 0.0
C612 C 0.5925 0.62759 0.34847 0.0
C613 C 0.63817 0.58176 0.34299 0.0
C614 C 0.46589 0.67312 0.27353 0.0
C615 C 0.58575 0.63306 0.31052 0.0
H616 H 0.34023 0.68716 0.13012 0.0
H617 H 0.36362 0.69499 0.1949 0.0
H618 H 0.32976 0.71039 0.16263 0.0
H619 H 0.41904 0.63096 0.1621 0.0
H620 H 0.65027 0.58282 0.37561 0.0
H621 H 0.62429 0.58603 0.31075 0.0
H622 H 0.57649 0.64582 0.35057 0.0
H623 H 0.6567 0.56434 0.34086 0.0
H624 H 0.22518 0.99635 0.335 0.0
H625 H 0.09621 0.98578 0.36569 0.0
H626 H 0.19181 0.0293 0.31344 0.0
H627 H 0.06322 0.01907 0.34454 0.0
H628 H 0.00773 0.05674 0.28625 0.0
H629 H 0.04273 0.02448 0.30782 0.0
H630 H 0.16045 0.07269 0.31629 0.0
H631 H 0.12473 0.1052 0.29498 0.0
C632 C 0.18976 0.00112 0.33715 0.0
C633 C 0.16326 0.98848 0.35199 0.0
C634 C 0.17079 0.02011 0.32495 0.0
C635 C 0.12489 0.02667 0.32726 0.0
C636 C 0.09856 0.0142 0.34225 0.0
C637 C 0.11756 0.99534 0.35451 0.0
C638 C 0.04069 0.06057 0.29304 0.0
C639 C 0.06325 0.08353 0.28931 0.0
C640 C 0.06085 0.04209 0.30528 0.0
C641 C 0.10414 0.04616 0.3139 0.0
C642 C 0.12719 0.06896 0.30974 0.0
C643 C 0.10685 0.08751 0.29755 0.0
H644 H 0.38242 0.53721 0.82911 0.0
H645 H 0.32557 0.48113 0.87013 0.0
H646 H 0.41542 0.50391 0.80805 0.0
H647 H 0.35707 0.44761 0.8487 0.0
H648 H 0.4559 0.39416 0.81745 0.0
H649 H 0.42466 0.42755 0.83892 0.0
H650 H 0.39768 0.47199 0.78431 0.0
H651 H 0.43169 0.4393 0.76305 0.0
C652 C 0.37659 0.51769 0.83347 0.0
C653 C 0.35137 0.51174 0.85122 0.0
C654 C 0.39532 0.49855 0.82135 0.0
C655 C 0.38881 0.47295 0.82654 0.0
C656 C 0.3635 0.46706 0.84436 0.0
C657 C 0.34525 0.48625 0.85663 0.0
C658 C 0.44333 0.41109 0.81004 0.0
C659 C 0.4457 0.4139 0.7885 0.0
C660 C 0.42501 0.43019 0.82235 0.0
C661 C 0.4083 0.45253 0.81342 0.0
C662 C 0.41066 0.45525 0.79183 0.0
C663 C 0.42953 0.43629 0.77956 0.0
H664 H 0.60428 0.50226 0.63562 0.0
H665 H 0.71566 0.5084 0.67895 0.0
H666 H 0.57076 0.46869 0.65641 0.0
H667 H 0.68064 0.47606 0.70037 0.0
H668 H 0.62977 0.40047 0.72442 0.0
H669 H 0.66466 0.43208 0.70227 0.0
H670 H 0.532 0.46218 0.68819 0.0
H671 H 0.4972 0.43064 0.71051 0.0
C672 C 0.62178 0.49644 0.64952 0.0
C673 C 0.66278 0.50818 0.65554 0.0
C674 C 0.60213 0.47739 0.66164 0.0
C675 C 0.62278 0.46966 0.68018 0.0
C676 C 0.66394 0.48125 0.6861 0.0
C677 C 0.68374 0.50014 0.67392 0.0
C678 C 0.60799 0.41397 0.71684 0.0
C679 C 0.56062 0.41316 0.7196 0.0
C680 C 0.62807 0.43215 0.70405 0.0
C681 C 0.60128 0.44987 0.69346 0.0
C682 C 0.5538 0.44875 0.69591 0.0
C683 C 0.53377 0.43068 0.70883 0.0
H684 H 0.79524 0.9878 0.18064 0.0
H685 H 0.90095 0.99907 0.13539 0.0
H686 H 0.82874 0.02036 0.20221 0.0
H687 H 0.93608 0.03092 0.15732 0.0
H688 H 0.97465 0.10101 0.19405 0.0
H689 H 0.93895 0.07 0.1712 0.0
H690 H 0.88388 0.03119 0.22458 0.0
H691 H 0.91719 0.06334 0.24685 0.0
C692 C 0.82602 0.99708 0.17538 0.0
C693 C 0.84543 0.99065 0.15628 0.0
C694 C 0.84565 0.01578 0.18789 0.0
C695 C 0.88587 0.02843 0.18189 0.0
C696 C 0.90489 0.02213 0.16258 0.0
C697 C 0.88478 0.00367 0.14992 0.0
C698 C 0.95462 0.08581 0.20072 0.0
C699 C 0.94791 0.08466 0.2221 0.0
C700 C 0.93435 0.06781 0.18766 0.0
C701 C 0.90781 0.04781 0.19578 0.0
C702 C 0.90252 0.04653 0.21742 0.0
C703 C 0.92187 0.06488 0.23035 0.0
H704 H 0.84752 0.98541 0.6362 0.0
H705 H 0.86636 0.03791 0.68654 0.0
H706 H 0.87736 0.95147 0.65743 0.0
H707 H 0.89892 0.0046 0.70749 0.0
H708 H 0.92457 0.93715 0.74758 0.0
H709 H 0.88893 0.96951 0.72681 0.0
H710 H 0.93963 0.93347 0.67147 0.0
H711 H 0.97019 0.89958 0.69217 0.0
C712 C 0.85857 0.9897 0.65179 0.0
C713 C 0.85451 0.01427 0.65974 0.0
C714 C 0.87609 0.97026 0.664 0.0
C715 C 0.89101 0.97502 0.68435 0.0
C716 C 0.88702 0.99978 0.69216 0.0
C717 C 0.86859 0.01906 0.68009 0.0
C718 C 0.92691 0.93571 0.73095 0.0
C719 C 0.94923 0.91528 0.72161 0.0
C720 C 0.90726 0.9547 0.71894 0.0
C721 C 0.911 0.95438 0.69724 0.0
C722 C 0.93456 0.93424 0.688 0.0
C723 C 0.95279 0.91483 0.69997 0.0
H724 H 0.69061 0.5158 0.14267 0.0
H725 H 0.61142 0.46157 0.17714 0.0
H726 H 0.66235 0.5498 0.16463 0.0
H727 H 0.58076 0.49547 0.19838 0.0
H728 H 0.56502 0.55709 0.24593 0.0
H729 H 0.59831 0.52379 0.22481 0.0
H730 H 0.59903 0.57419 0.17222 0.0
H731 H 0.5676 0.60755 0.19366 0.0
C732 C 0.66662 0.51131 0.15482 0.0
C733 C 0.65319 0.48622 0.15835 0.0
C734 C 0.6502 0.53074 0.16736 0.0
C735 C 0.61927 0.52548 0.18342 0.0
C736 C 0.60534 0.50026 0.18657 0.0
C737 C 0.6225 0.48083 0.17431 0.0
C738 C 0.5731 0.56105 0.22994 0.0
C739 C 0.56401 0.58483 0.22141 0.0
C740 C 0.59159 0.54191 0.21772 0.0
C741 C 0.60123 0.54615 0.19669 0.0
C742 C 0.59265 0.5702 0.18835 0.0
C743 C 0.57422 0.58929 0.20057 0.0
H744 H 0.36631 0.46531 0.32644 0.0
H745 H 0.33972 0.52021 0.37428 0.0
H746 H 0.39671 0.49857 0.30443 0.0
H747 H 0.37141 0.55362 0.35225 0.0
H748 H 0.38779 0.60879 0.29611 0.0
H749 H 0.35419 0.57646 0.31869 0.0
H750 H 0.4645 0.52608 0.30402 0.0
H751 H 0.49797 0.55827 0.28173 0.0
C752 C 0.36675 0.48452 0.33225 0.0
C753 C 0.3503 0.49008 0.35211 0.0
C754 C 0.38461 0.50357 0.31968 0.0
C755 C 0.38652 0.52874 0.32658 0.0
C756 C 0.37001 0.53443 0.34642 0.0
C757 C 0.35231 0.51527 0.3591 0.0
C758 C 0.40462 0.59073 0.29769 0.0
C759 C 0.44554 0.58602 0.28724 0.0
C760 C 0.38562 0.57233 0.31072 0.0
C761 C 0.4067 0.5487 0.31316 0.0
C762 C 0.44726 0.544 0.3024 0.0
C763 C 0.46658 0.56248 0.28972 0.0
H764 H 0.14485 0.03442 0.82672 0.0
H765 H 0.16404 0.98066 0.87597 0.0
H766 H 0.11186 0.00149 0.80521 0.0
H767 H 0.13296 0.94716 0.85415 0.0
H768 H 0.03731 0.89679 0.81739 0.0
H769 H 0.06829 0.93002 0.83929 0.0
H770 H 0.12584 0.96654 0.78551 0.0
H771 H 0.09065 0.93487 0.76369 0.0
C772 C 0.14253 0.0154 0.83284 0.0
C773 C 0.15709 0.01012 0.85302 0.0
C774 C 0.12381 0.99638 0.82044 0.0
C775 C 0.11977 0.97141 0.82776 0.0
C776 C 0.13461 0.96616 0.848 0.0
C777 C 0.15269 0.98533 0.86053 0.0
C778 C 0.05642 0.91199 0.81024 0.0
C779 C 0.06243 0.91276 0.78871 0.0
C780 C 0.0747 0.93099 0.82287 0.0
C781 C 0.10013 0.95106 0.81434 0.0
C782 C 0.10605 0.95172 0.79278 0.0
C783 C 0.08672 0.93311 0.78016 0.0
H784 H 0.10294 0.12491 0.01074 0.0
H785 H 0.24125 0.13651 0.03091 0.0
H786 H 0.07629 0.13057 0.04604 0.0
H787 H 0.21533 0.14087 0.06642 0.0
H788 H 0.16502 0.156 0.12867 0.0
H789 H 0.17811 0.16395 0.09196 0.0
H790 H 0.07408 0.10874 0.07679 0.0
H791 H 0.06009 0.10203 0.11328 0.0
C792 C 0.12763 0.12858 0.02282 0.0
C793 C 0.17413 0.13021 0.01815 0.0
C794 C 0.11244 0.13179 0.04308 0.0
C795 C 0.1435 0.13621 0.05927 0.0
C796 C 0.1901 0.13814 0.05443 0.0
C797 C 0.20516 0.13538 0.03409 0.0
C798 C 0.14352 0.14664 0.11738 0.0
C799 C 0.11138 0.12856 0.12365 0.0
C800 C 0.15161 0.15072 0.09633 0.0
C801 C 0.12812 0.13648 0.08125 0.0
C802 C 0.09286 0.12021 0.08775 0.0
C803 C 0.08457 0.11636 0.10872 0.0
H804 H 0.2733 0.39356 0.52907 0.0
H805 H 0.38832 0.34782 0.51248 0.0
H806 H 0.2946 0.39063 0.56552 0.0
H807 H 0.41038 0.34509 0.54905 0.0
H808 H 0.45976 0.3853 0.61155 0.0
H809 H 0.43904 0.37678 0.57556 0.0
H810 H 0.30184 0.35919 0.59458 0.0
H811 H 0.32298 0.36759 0.63062 0.0
C812 C 0.30299 0.38274 0.53334 0.0
C813 C 0.3292 0.37089 0.51813 0.0
C814 C 0.31503 0.38087 0.55417 0.0
C815 C 0.354 0.36746 0.56019 0.0
C816 C 0.38016 0.3555 0.54489 0.0
C817 C 0.36758 0.35701 0.52404 0.0
C818 C 0.42561 0.37884 0.60802 0.0
C819 C 0.39293 0.37707 0.62372 0.0
C820 C 0.4137 0.37396 0.58746 0.0
C821 C 0.36862 0.36768 0.58221 0.0
C822 C 0.33668 0.36433 0.59815 0.0
C823 C 0.34879 0.36889 0.61875 0.0
H824 H 0.72153 0.34536 0.98379 0.0
H825 H 0.61738 0.40114 0.99471 0.0
H826 H 0.6948 0.34043 0.94847 0.0
H827 H 0.59234 0.39692 0.95875 0.0
H828 H 0.6278 0.39195 0.88224 0.0
H829 H 0.63561 0.40231 0.91918 0.0
H830 H 0.61136 0.32408 0.93457 0.0
H831 H 0.60277 0.31391 0.89802 0.0
C832 C 0.69283 0.35651 0.97879 0.0
C833 C 0.67131 0.37336 0.99239 0.0
C834 C 0.67775 0.35379 0.95846 0.0
C835 C 0.64124 0.36811 0.95101 0.0
C836 C 0.62056 0.38566 0.96417 0.0
C837 C 0.63518 0.38812 0.98473 0.0
C838 C 0.62201 0.37729 0.89361 0.0
C839 C 0.61497 0.35211 0.88733 0.0
C840 C 0.62682 0.38315 0.91469 0.0
C841 C 0.62497 0.36384 0.92959 0.0
C842 C 0.61343 0.33922 0.92335 0.0
C843 C 0.60818 0.33346 0.90247 0.0
H844 H 0.90327 0.11078 0.49619 0.0
H845 H 0.76954 0.13945 0.4824 0.0
H846 H 0.92242 0.11211 0.45946 0.0
H847 H 0.78903 0.14145 0.44594 0.0
H848 H 0.81798 0.12809 0.38022 0.0
H849 H 0.80491 0.11487 0.41594 0.0
H850 H 0.93654 0.14492 0.43309 0.0
H851 H 0.94947 0.15776 0.39727 0.0
C852 C 0.87786 0.11722 0.48532 0.0
C853 C 0.83486 0.12508 0.49226 0.0
C854 C 0.88895 0.11811 0.4643 0.0
C855 C 0.85716 0.12668 0.44971 0.0
C856 C 0.81408 0.13429 0.45667 0.0
C857 C 0.80311 0.13354 0.47765 0.0
C858 C 0.84473 0.13091 0.39152 0.0
C859 C 0.88477 0.14377 0.38609 0.0
C860 C 0.83707 0.12369 0.412 0.0
C861 C 0.86926 0.12934 0.42747 0.0
C862 C 0.91106 0.14024 0.4216 0.0
C863 C 0.91861 0.14753 0.4011 0.0
H864 H 0.84119 0.91391 0.98587 0.0
H865 H 0.82512 0.83275 0.98949 0.0
H866 H 0.8691 0.90999 0.95089 0.0
H867 H 0.85239 0.82891 0.95394 0.0
H868 H 0.83525 0.846 0.88162 0.0
H869 H 0.82602 0.83991 0.91885 0.0
H870 H 0.9322 0.89502 0.93012 0.0
H871 H 0.94049 0.90131 0.89294 0.0
C872 C 0.84424 0.89514 0.97937 0.0
C873 C 0.83104 0.87366 0.99073 0.0
C874 C 0.86044 0.89287 0.95921 0.0
C875 C 0.86366 0.86909 0.94962 0.0
C876 C 0.85034 0.84753 0.96085 0.0
C877 C 0.83439 0.84977 0.98119 0.0
C878 C 0.85788 0.85593 0.89211 0.0
C879 C 0.88853 0.87411 0.88452 0.0
C880 C 0.85251 0.85256 0.91344 0.0
C881 C 0.8775 0.86751 0.92749 0.0
C882 C 0.91162 0.88367 0.91973 0.0
C883 C 0.91689 0.88703 0.89845 0.0
H884 H 0.71818 0.66093 0.48424 0.0
H885 H 0.63162 0.59538 0.49326 0.0
H886 H 0.68571 0.66694 0.45051 0.0
H887 H 0.60488 0.59897 0.45848 0.0
H888 H 0.55114 0.6065 0.39647 0.0
H889 H 0.56346 0.61483 0.43304 0.0
H890 H 0.68844 0.65451 0.41792 0.0
H891 H 0.67323 0.64781 0.38157 0.0
C892 C 0.69236 0.64765 0.47921 0.0
C893 C 0.67826 0.62745 0.49191 0.0
C894 C 0.67421 0.65084 0.4594 0.0
C895 C 0.64272 0.63333 0.45116 0.0
C896 C 0.62825 0.61333 0.46398 0.0
C897 C 0.64498 0.61074 0.48405 0.0
C898 C 0.58014 0.61789 0.40113 0.0
C899 C 0.61144 0.6264 0.3864 0.0
C900 C 0.58798 0.62224 0.42215 0.0
C901 C 0.62826 0.63437 0.42891 0.0
C902 C 0.65717 0.64495 0.41378 0.0
C903 C 0.64864 0.6411 0.39277 0.0
H904 H 0.35879 0.66134 0.01469 0.0
H905 H 0.31079 0.58547 0.02651 0.0
H906 H 0.3827 0.66529 0.0504 0.0
H907 H 0.33729 0.58864 0.06205 0.0
H908 H 0.32991 0.61808 0.12949 0.0
H909 H 0.32006 0.60618 0.09343 0.0
H910 H 0.43165 0.65577 0.07671 0.0
H911 H 0.43908 0.6686 0.11276 0.0
C912 C 0.35352 0.64543 0.02495 0.0
C913 C 0.33241 0.62322 0.01778 0.0
C914 C 0.36809 0.64747 0.04545 0.0
C915 C 0.36226 0.62726 0.05942 0.0
C916 C 0.34199 0.60479 0.05202 0.0
C917 C 0.32714 0.60284 0.03152 0.0
C918 C 0.35312 0.62577 0.11811 0.0
C919 C 0.38516 0.64422 0.12381 0.0
C920 C 0.34755 0.61901 0.09733 0.0
C921 C 0.37416 0.6305 0.08181 0.0
C922 C 0.4093 0.64715 0.08798 0.0
C923 C 0.4143 0.65418 0.10871 0.0
H924 H 0.15813 0.9142 0.52099 0.0
H925 H 0.18738 0.83424 0.51877 0.0
H926 H 0.12783 0.90919 0.55581 0.0
H927 H 0.16005 0.82965 0.55381 0.0
H928 H 0.08191 0.81891 0.60982 0.0
H929 H 0.09176 0.82944 0.57348 0.0
H930 H 0.15282 0.90091 0.59084 0.0
H931 H 0.14156 0.89042 0.6273 0.0
C932 C 0.15809 0.89554 0.52784 0.0
C933 C 0.17522 0.87461 0.5169 0.0
C934 C 0.14106 0.89275 0.54792 0.0
C935 C 0.14086 0.86897 0.55759 0.0
C936 C 0.1585 0.84816 0.54672 0.0
C937 C 0.17515 0.8509 0.52668 0.0
C938 C 0.09553 0.83734 0.60579 0.0
C939 C 0.11095 0.85387 0.62127 0.0
C940 C 0.10197 0.84322 0.58499 0.0
C941 C 0.1245 0.86565 0.57922 0.0
C942 C 0.13559 0.8834 0.5947 0.0
C943 C 0.12889 0.87752 0.6156 0.0
H944 H 0.11905 0.31259 0.3344 0.0
H945 H 0.17524 0.25547 0.37443 0.0
H946 H 0.08409 0.27979 0.3132 0.0
H947 H 0.14001 0.22256 0.35319 0.0
H948 H 0.03833 0.17066 0.31941 0.0
H949 H 0.06797 0.20371 0.34222 0.0
H950 H 0.10793 0.24774 0.28905 0.0
H951 H 0.07732 0.21517 0.26638 0.0
C952 C 0.12411 0.29302 0.33866 0.0
C953 C 0.15046 0.28673 0.35604 0.0
C954 C 0.10402 0.27418 0.32647 0.0
C955 C 0.10957 0.24847 0.33132 0.0
C956 C 0.13469 0.24216 0.34908 0.0
C957 C 0.15489 0.26105 0.36128 0.0
C958 C 0.05333 0.18743 0.31259 0.0
C959 C 0.05584 0.1901 0.29101 0.0
C960 C 0.07058 0.20632 0.32568 0.0
C961 C 0.09046 0.22842 0.31752 0.0
C962 C 0.09244 0.23115 0.29593 0.0
C963 C 0.07532 0.21228 0.28288 0.0
H964 H 0.30212 0.20935 0.83253 0.0
H965 H 0.40727 0.22235 0.87786 0.0
H966 H 0.33369 0.24263 0.811 0.0
H967 H 0.44062 0.2551 0.85586 0.0
H968 H 0.46844 0.32722 0.81874 0.0
H969 H 0.43482 0.2958 0.84201 0.0
H970 H 0.39374 0.25109 0.78908 0.0
H971 H 0.42608 0.28292 0.76636 0.0
C972 C 0.33235 0.21926 0.83778 0.0
C973 C 0.35244 0.21316 0.85678 0.0
C974 C 0.35073 0.23827 0.82537 0.0
C975 C 0.39023 0.25148 0.83145 0.0
C976 C 0.40993 0.24562 0.8507 0.0
C977 C 0.391 0.22678 0.8633 0.0
C978 C 0.45165 0.31072 0.81226 0.0
C979 C 0.44834 0.30771 0.79081 0.0
C980 C 0.43276 0.29259 0.82553 0.0
C981 C 0.41086 0.2709 0.81753 0.0
C982 C 0.40883 0.26783 0.79593 0.0
C983 C 0.42725 0.28609 0.78278 0.0
H984 H 0.71893 0.24047 0.65417 0.0
H985 H 0.59434 0.19733 0.65692 0.0
H986 H 0.68632 0.27234 0.6772 0.0
H987 H 0.56086 0.22948 0.67942 0.0
H988 H 0.53612 0.27612 0.73814 0.0
H989 H 0.56967 0.24477 0.7149 0.0
H990 H 0.62826 0.30509 0.67843 0.0
H991 H 0.59398 0.33623 0.70158 0.0
C992 C 0.6842 0.23816 0.65942 0.0
C993 C 0.65891 0.21668 0.65376 0.0
C994 C 0.6655 0.25634 0.67258 0.0
C995 C 0.62101 0.25343 0.68024 0.0
C996 C 0.59547 0.23209 0.67412 0.0
C997 C 0.61436 0.21382 0.66111 0.0
C998 C 0.55655 0.28251 0.72523 0.0
C999 C 0.56255 0.30842 0.7215 0.0
C1000 C 0.57537 0.26466 0.71181 0.0
C1001 C 0.60146 0.27241 0.6947 0.0
C1002 C 0.60848 0.29845 0.69145 0.0
C1003 C 0.58876 0.31628 0.7046 0.0
H1004 H 0.80198 0.29062 0.1831 0.0
H1005 H 0.89745 0.27347 0.13461 0.0
H1006 H 0.83657 0.25877 0.20502 0.0
H1007 H 0.9328 0.24171 0.15671 0.0
H1008 H 0.95321 0.16887 0.19375 0.0
H1009 H 0.92034 0.20111 0.17168 0.0
H1010 H 0.90313 0.24977 0.2247 0.0
H1011 H 0.93563 0.21722 0.24687 0.0
C1012 C 0.83068 0.28016 0.17717 0.0
C1013 C 0.84702 0.28467 0.15709 0.0
C1014 C 0.85069 0.26193 0.1898 0.0
C1015 C 0.88775 0.24767 0.18277 0.0
C1016 C 0.90395 0.25206 0.1626 0.0
C1017 C 0.88371 0.27027 0.14989 0.0
C1018 C 0.94241 0.18644 0.20074 0.0
C1019 C 0.94645 0.19029 0.22216 0.0
C1020 C 0.92379 0.20505 0.18802 0.0
C1021 C 0.90881 0.22811 0.19633 0.0
C1022 C 0.91346 0.23209 0.21776 0.0
C1023 C 0.93212 0.21343 0.2305 0.0
H1024 H 0.81569 0.70549 0.67894 0.0
H1025 H 0.90999 0.72523 0.63044 0.0
H1026 H 0.84603 0.73947 0.7003 0.0
H1027 H 0.93955 0.75997 0.65168 0.0
H1028 H 0.01537 0.79795 0.70668 0.0
H1029 H 0.98439 0.76616 0.68324 0.0
H1030 H 0.84847 0.78534 0.70258 0.0
H1031 H 0.87938 0.81728 0.72583 0.0
C1032 C 0.84297 0.7171 0.67283 0.0
C1033 C 0.86066 0.71247 0.65303 0.0
C1034 C 0.85998 0.73682 0.68499 0.0
C1035 C 0.89516 0.75252 0.67772 0.0
C1036 C 0.91268 0.74809 0.65783 0.0
C1037 C 0.89549 0.72834 0.64558 0.0
C1038 C 0.97883 0.79542 0.70596 0.0
C1039 C 0.94992 0.80987 0.71855 0.0
C1040 C 0.96107 0.7773 0.69236 0.0
C1041 C 0.91395 0.773 0.69113 0.0
C1042 C 0.88499 0.78784 0.70338 0.0
C1043 C 0.90274 0.80619 0.71678 0.0
H1044 H 0.69095 0.79769 0.17926 0.0
H1045 H 0.60145 0.77336 0.13023 0.0
H1046 H 0.66253 0.76395 0.2012 0.0
H1047 H 0.57096 0.74018 0.15248 0.0
H1048 H 0.55135 0.66898 0.19037 0.0
H1049 H 0.58215 0.70173 0.16805 0.0
H1050 H 0.60366 0.74985 0.22129 0.0
H1051 H 0.57451 0.71661 0.24354 0.0
C1052 C 0.66469 0.78524 0.17326 0.0
C1053 C 0.64836 0.78827 0.15302 0.0
C1054 C 0.64806 0.76589 0.18592 0.0
C1055 C 0.61397 0.74916 0.17886 0.0
C1056 C 0.5977 0.75224 0.1585 0.0
C1057 C 0.61498 0.77139 0.1457 0.0
C1058 C 0.56288 0.68653 0.19731 0.0
C1059 C 0.56086 0.69002 0.21881 0.0
C1060 C 0.58027 0.70551 0.18445 0.0
C1061 C 0.59562 0.72873 0.19266 0.0
C1062 C 0.59325 0.73218 0.21424 0.0
C1063 C 0.57632 0.71307 0.22711 0.0
H1064 H 0.29823 0.76071 0.35838 0.0
H1065 H 0.41877 0.8059 0.34846 0.0
H1066 H 0.3271 0.72866 0.33468 0.0
H1067 H 0.44861 0.77356 0.3253 0.0
H1068 H 0.46782 0.72419 0.26827 0.0
H1069 H 0.43646 0.75622 0.29153 0.0
H1070 H 0.38349 0.69694 0.33084 0.0
H1071 H 0.41465 0.66525 0.30746 0.0
C1072 C 0.33131 0.76353 0.3514 0.0
C1073 C 0.35626 0.78576 0.35522 0.0
C1074 C 0.34791 0.74519 0.33781 0.0
C1075 C 0.39011 0.74856 0.3279 0.0
C1076 C 0.41554 0.77057 0.33222 0.0
C1077 C 0.39867 0.78901 0.34562 0.0
C1078 C 0.44871 0.71819 0.28172 0.0
C1079 C 0.44324 0.69243 0.28612 0.0
C1080 C 0.43129 0.73644 0.29519 0.0
C1081 C 0.40756 0.72921 0.31317 0.0
C1082 C 0.40119 0.70327 0.31712 0.0
C1083 C 0.41915 0.6851 0.30381 0.0
H1084 H 0.10007 0.68921 0.84214 0.0
H1085 H 0.20022 0.74154 0.8662 0.0
H1086 H 0.07098 0.7221 0.81938 0.0
H1087 H 0.17147 0.7744 0.8433 0.0
H1088 H 0.07559 0.83326 0.81466 0.0
H1089 H 0.10618 0.80099 0.83758 0.0
H1090 H 0.0937 0.74566 0.7887 0.0
H1091 H 0.06273 0.77817 0.76582 0.0
C1092 C 0.11591 0.70775 0.84253 0.0
C1093 C 0.15255 0.71275 0.85594 0.0
C1094 C 0.09941 0.72656 0.82941 0.0
C1095 C 0.1192 0.75082 0.82933 0.0
C1096 C 0.15517 0.75598 0.84308 0.0
C1097 C 0.17159 0.73718 0.85626 0.0
C1098 C 0.07976 0.81421 0.80882 0.0
C1099 C 0.06698 0.80813 0.78853 0.0
C1100 C 0.09746 0.79575 0.8219 0.0
C1101 C 0.10222 0.77068 0.81504 0.0
C1102 C 0.09002 0.76472 0.79455 0.0
C1103 C 0.07283 0.78333 0.78136 0.0
loop_
_geom_bond_atom_site_label_1
_geom_bond_atom_site_label_2
_geom_bond_distance
_geom_bond_site_symmetry_2
_ccdc_geom_bond_type
C0 C1 1.384 . S
C0 H13 0.947 . S
C0 C35 1.382 . S
C1 C0 1.384 . S
C1 C2 1.378 . S
C2 C1 1.378 . S
C2 C3 1.378 . S
C2 H14 0.952 . S
C3 C2 1.378 . S
C3 H15 0.950 . S
C3 C34 1.383 . S
H4 C23 0.947 . S
H5 C24 0.946 . S
H6 C26 0.953 . S
H7 C27 0.945 . S
H8 C29 0.952 . S
H9 C30 0.949 . S
H10 C32 0.950 . S
H11 C33 0.948 . S
H12 C35 0.951 . S
H13 C0 0.947 . S
H14 C2 0.952 . S
H15 C3 0.950 . S
N16 C19 1.382 . S
N16 C21 1.363 . S
N17 C19 1.371 . S
N17 C20 1.372 . S
N18 C20 1.361 . S
N18 C21 1.377 . S
C19 N16 1.382 . S
C19 N17 1.371 . S
C19 C22 1.480 . S
C20 N17 1.372 . S
C20 N18 1.361 . S
C20 C28 1.457 . S
C21 N16 1.363 . S
C21 N18 1.377 . S
C21 C34 1.479 . S
C22 C19 1.480 . S
C22 C23 1.383 . S
C22 C27 1.385 . S
C23 H4 0.947 . S
C23 C22 1.383 . S
C23 C24 1.388 . S
C24 H5 0.946 . S
C24 C23 1.388 . S
C24 C25 1.384 . S
C25 C24 1.384 . S
C25 C26 1.377 . S
C26 H6 0.953 . S
C26 C25 1.377 . S
C26 C27 1.369 . S
C27 H7 0.945 . S
C27 C22 1.385 . S
C27 C26 1.369 . S
C28 C20 1.457 . S
C28 C29 1.372 . S
C28 C33 1.364 . S
C29 H8 0.952 . S
C29 C28 1.372 . S
C29 C30 1.389 . S
C30 H9 0.949 . S
C30 C29 1.389 . S
C30 C31 1.387 . S
C31 C30 1.387 . S
C31 C32 1.372 . S
C32 H10 0.950 . S
C32 C31 1.372 . S
C32 C33 1.379 . S
C33 H11 0.948 . S
C33 C28 1.364 . S
C33 C32 1.379 . S
C34 C3 1.383 . S
C34 C21 1.479 . S
C34 C35 1.398 . S
C35 C0 1.382 . S
C35 H12 0.951 . S
C35 C34 1.398 . S
C36 C37 1.384 . S
C36 H49 0.947 . S
C36 C71 1.382 . S
C37 C36 1.384 . S
C37 C38 1.378 . S
C38 C37 1.378 . S
C38 C39 1.378 . S
C38 H50 0.952 . S
C39 C38 1.378 . S
C39 H51 0.950 . S
C39 C70 1.383 . S
H40 C59 0.947 . S
H41 C60 0.946 . S
H42 C62 0.953 . S
H43 C63 0.945 . S
H44 C65 0.952 . S
H45 C66 0.949 . S
H46 C68 0.950 . S
H47 C69 0.948 . S
H48 C71 0.951 . S
H49 C36 0.947 . S
H50 C38 0.952 . S
H51 C39 0.950 . S
N52 C55 1.382 . S
N52 C57 1.363 . S
N53 C55 1.371 . S
N53 C56 1.372 . S
N54 C56 1.361 . S
N54 C57 1.377 . S
C55 N52 1.382 . S
C55 N53 1.371 . S
C55 C58 1.480 . S
C56 N53 1.372 . S
C56 N54 1.361 . S
C56 C64 1.457 . S
C57 N52 1.363 . S
C57 N54 1.377 . S
C57 C70 1.479 . S
C58 C55 1.480 . S
C58 C59 1.383 . S
C58 C63 1.385 . S
C59 H40 0.947 . S
C59 C58 1.383 . S
C59 C60 1.388 . S
C60 H41 0.946 . S
C60 C59 1.388 . S
C60 C61 1.384 . S
C61 C60 1.384 . S
C61 C62 1.377 . S
C62 H42 0.953 . S
C62 C61 1.377 . S
C62 C63 1.369 . S
C63 H43 0.945 . S
C63 C58 1.385 . S
C63 C62 1.369 . S
C64 C56 1.457 . S
C64 C65 1.372 . S
C64 C69 1.364 . S
C65 H44 0.952 . S
C65 C64 1.372 . S
C65 C66 1.389 . S
C66 H45 0.949 . S
C66 C65 1.389 . S
C66 C67 1.387 . S
C67 C66 1.387 . S
C67 C68 1.372 . S
C68 H46 0.950 . S
C68 C67 1.372 . S
C68 C69 1.379 . S
C69 H47 0.948 . S
C69 C64 1.364 . S
C69 C68 1.379 . S
C70 C39 1.383 . S
C70 C57 1.479 . S
C70 C71 1.398 . S
C71 C36 1.382 . S
C71 H48 0.951 . S
C71 C70 1.398 . S
C72 C73 1.384 . S
C72 H85 0.947 . S
C72 C107 1.382 . S
C73 C72 1.384 . S
C73 C74 1.378 . S
C74 C73 1.378 . S
C74 C75 1.378 . S
C74 H86 0.952 . S
C75 C74 1.378 . S
C75 H87 0.950 . S
C75 C106 1.383 . S
H76 C95 0.947 . S
H77 C96 0.946 . S
H78 C98 0.953 . S
H79 C99 0.945 . S
H80 C101 0.952 . S
H81 C102 0.949 . S
H82 C104 0.950 . S
H83 C105 0.948 . S
H84 C107 0.951 . S
H85 C72 0.947 . S
H86 C74 0.952 . S
H87 C75 0.950 . S
N88 C91 1.382 . S
N88 C93 1.363 . S
N89 C91 1.371 . S
N89 C92 1.372 . S
N90 C92 1.361 . S
N90 C93 1.377 . S
C91 N88 1.382 . S
C91 N89 1.371 . S
C91 C94 1.480 . S
C92 N89 1.372 . S
C92 N90 1.361 . S
C92 C100 1.457 . S
C93 N88 1.363 . S
C93 N90 1.377 . S
C93 C106 1.479 . S
C94 C91 1.480 . S
C94 C95 1.383 . S
C94 C99 1.385 . S
C95 H76 0.947 . S
C95 C94 1.383 . S
C95 C96 1.388 . S
C96 H77 0.946 . S
C96 C95 1.388 . S
C96 C97 1.384 . S
C97 C96 1.384 . S
C97 C98 1.377 . S
C98 H78 0.953 . S
C98 C97 1.377 . S
C98 C99 1.369 . S
C99 H79 0.945 . S
C99 C94 1.385 . S
C99 C98 1.369 . S
C100 C92 1.457 . S
C100 C101 1.372 . S
C100 C105 1.364 . S
C101 H80 0.952 . S
C101 C100 1.372 . S
C101 C102 1.389 . S
C102 H81 0.949 . S
C102 C101 1.389 . S
C102 C103 1.387 . S
C103 C102 1.387 . S
C103 C104 1.372 . S
C104 H82 0.950 . S
C104 C103 1.372 . S
C104 C105 1.379 . S
C105 H83 0.948 . S
C105 C100 1.364 . S
C105 C104 1.379 . S
C106 C75 1.383 . S
C106 C93 1.479 . S
C106 C107 1.398 . S
C107 C72 1.382 . S
C107 H84 0.951 . S
C107 C106 1.398 . S
C108 C109 1.384 . S
C108 H121 0.947 . S
C108 C143 1.382 . S
C109 C108 1.384 . S
C109 C110 1.378 . S
C110 C109 1.378 . S
C110 C111 1.378 . S
C110 H122 0.952 . S
C111 C110 1.378 . S
C111 H123 0.950 . S
C111 C142 1.383 . S
H112 C131 0.947 . S
H113 C132 0.946 . S
H114 C134 0.953 . S
H115 C135 0.945 . S
H116 C137 0.952 . S
H117 C138 0.949 . S
H118 C140 0.950 . S
H119 C141 0.948 . S
H120 C143 0.951 . S
H121 C108 0.947 . S
H122 C110 0.952 . S
H123 C111 0.950 . S
N124 C127 1.382 . S
N124 C129 1.363 . S
N125 C127 1.371 . S
N125 C128 1.372 . S
N126 C128 1.361 . S
N126 C129 1.377 . S
C127 N124 1.382 . S
C127 N125 1.371 . S
C127 C130 1.480 . S
C128 N125 1.372 . S
C128 N126 1.361 . S
C128 C136 1.457 . S
C129 N124 1.363 . S
C129 N126 1.377 . S
C129 C142 1.479 . S
C130 C127 1.480 . S
C130 C131 1.383 . S
C130 C135 1.385 . S
C131 H112 0.947 . S
C131 C130 1.383 . S
C131 C132 1.388 . S
C132 H113 0.946 . S
C132 C131 1.388 . S
C132 C133 1.384 . S
C133 C132 1.384 . S
C133 C134 1.377 . S
C134 H114 0.953 . S
C134 C133 1.377 . S
C134 C135 1.369 . S
C135 H115 0.945 . S
C135 C130 1.385 . S
C135 C134 1.369 . S
C136 C128 1.457 . S
C136 C137 1.372 . S
C136 C141 1.364 . S
C137 H116 0.952 . S
C137 C136 1.372 . S
C137 C138 1.389 . S
C138 H117 0.949 . S
C138 C137 1.389 . S
C138 C139 1.387 . S
C139 C138 1.387 . S
C139 C140 1.372 . S
C140 H118 0.950 . S
C140 C139 1.372 . S
C140 C141 1.379 . S
C141 H119 0.948 . S
C141 C136 1.364 . S
C141 C140 1.379 . S
C142 C111 1.383 . S
C142 C129 1.479 . S
C142 C143 1.398 . S
C143 C108 1.382 . S
C143 H120 0.951 . S
C143 C142 1.398 . S
C144 C145 1.384 . S
C144 H157 0.947 . S
C144 C179 1.382 . S
C145 C144 1.384 . S
C145 C146 1.378 . S
C146 C145 1.378 . S
C146 C147 1.378 . S
C146 H158 0.952 . S
C147 C146 1.378 . S
C147 H159 0.950 . S
C147 C178 1.383 . S
H148 C167 0.947 . S
H149 C168 0.946 . S
H150 C170 0.953 . S
H151 C171 0.945 . S
H152 C173 0.952 . S
H153 C174 0.949 . S
H154 C176 0.950 . S
H155 C177 0.948 . S
H156 C179 0.951 . S
H157 C144 0.947 . S
H158 C146 0.952 . S
H159 C147 0.950 . S
N160 C163 1.382 . S
N160 C165 1.363 . S
N161 C163 1.371 . S
N161 C164 1.372 . S
N162 C164 1.361 . S
N162 C165 1.377 . S
C163 N160 1.382 . S
C163 N161 1.371 . S
C163 C166 1.480 . S
C164 N161 1.372 . S
C164 N162 1.361 . S
C164 C172 1.457 . S
C165 N160 1.363 . S
C165 N162 1.377 . S
C165 C178 1.479 . S
C166 C163 1.480 . S
C166 C167 1.383 . S
C166 C171 1.385 . S
C167 H148 0.947 . S
C167 C166 1.383 . S
C167 C168 1.388 . S
C168 H149 0.946 . S
C168 C167 1.388 . S
C168 C169 1.384 . S
C169 C168 1.384 . S
C169 C170 1.377 . S
C170 H150 0.953 . S
C170 C169 1.377 . S
C170 C171 1.369 . S
C171 H151 0.945 . S
C171 C166 1.385 . S
C171 C170 1.369 . S
C172 C164 1.457 . S
C172 C173 1.372 . S
C172 C177 1.364 . S
C173 H152 0.952 . S
C173 C172 1.372 . S
C173 C174 1.389 . S
C174 H153 0.949 . S
C174 C173 1.389 . S
C174 C175 1.387 . S
C175 C174 1.387 . S
C175 C176 1.372 . S
C176 H154 0.950 . S
C176 C175 1.372 . S
C176 C177 1.379 . S
C177 H155 0.948 . S
C177 C172 1.364 . S
C177 C176 1.379 . S
C178 C147 1.383 . S
C178 C165 1.479 . S
C178 C179 1.398 . S
C179 C144 1.382 . S
C179 H156 0.951 . S
C179 C178 1.398 . S
C180 C181 1.384 . S
C180 H193 0.947 . S
C180 C215 1.382 . S
C181 C180 1.384 . S
C181 C182 1.378 . S
C182 C181 1.378 . S
C182 C183 1.378 . S
C182 H194 0.952 . S
C183 C182 1.378 . S
C183 H195 0.950 . S
C183 C214 1.383 . S
H184 C203 0.947 . S
H185 C204 0.946 . S
H186 C206 0.953 . S
H187 C207 0.945 . S
H188 C209 0.952 . S
H189 C210 0.949 . S
H190 C212 0.950 . S
H191 C213 0.948 . S
H192 C215 0.951 . S
H193 C180 0.947 . S
H194 C182 0.952 . S
H195 C183 0.950 . S
N196 C199 1.382 . S
N196 C201 1.363 . S
N197 C199 1.371 . S
N197 C200 1.372 . S
N198 C200 1.361 . S
N198 C201 1.377 . S
C199 N196 1.382 . S
C199 N197 1.371 . S
C199 C202 1.480 . S
C200 N197 1.372 . S
C200 N198 1.361 . S
C200 C208 1.457 . S
C201 N196 1.363 . S
C201 N198 1.377 . S
C201 C214 1.479 . S
C202 C199 1.480 . S
C202 C203 1.383 . S
C202 C207 1.385 . S
C203 H184 0.947 . S
C203 C202 1.383 . S
C203 C204 1.388 . S
C204 H185 0.946 . S
C204 C203 1.388 . S
C204 C205 1.384 . S
C205 C204 1.384 . S
C205 C206 1.377 . S
C206 H186 0.953 . S
C206 C205 1.377 . S
C206 C207 1.369 . S
C207 H187 0.945 . S
C207 C202 1.385 . S
C207 C206 1.369 . S
C208 C200 1.457 . S
C208 C209 1.372 . S
C208 C213 1.364 . S
C209 H188 0.952 . S
C209 C208 1.372 . S
C209 C210 1.389 . S
C210 H189 0.949 . S
C210 C209 1.389 . S
C210 C211 1.387 . S
C211 C210 1.387 . S
C211 C212 1.372 . S
C212 H190 0.950 . S
C212 C211 1.372 . S
C212 C213 1.379 . S
C213 H191 0.948 . S
C213 C208 1.364 . S
C213 C212 1.379 . S
C214 C183 1.383 . S
C214 C201 1.479 . S
C214 C215 1.398 . S
C215 C180 1.382 . S
C215 H192 0.951 . S
C215 C214 1.398 . S
C216 C217 1.384 . S
C216 H229 0.947 . S
C216 C251 1.382 . S
C217 C216 1.384 . S
C217 C218 1.378 . S
C218 C217 1.378 . S
C218 C219 1.378 . S
C218 H230 0.952 . S
C219 C218 1.378 . S
C219 H231 0.950 . S
C219 C250 1.383 . S
H220 C239 0.947 . S
H221 C240 0.946 . S
H222 C242 0.953 . S
H223 C243 0.945 . S
H224 C245 0.952 . S
H225 C246 0.949 . S
H226 C248 0.950 . S
H227 C249 0.948 . S
H228 C251 0.951 . S
H229 C216 0.947 . S
H230 C218 0.952 . S
H231 C219 0.950 . S
N232 C235 1.382 . S
N232 C237 1.363 . S
N233 C235 1.371 . S
N233 C236 1.372 . S
N234 C236 1.361 . S
N234 C237 1.377 . S
C235 N232 1.382 . S
C235 N233 1.371 . S
C235 C238 1.480 . S
C236 N233 1.372 . S
C236 N234 1.361 . S
C236 C244 1.457 . S
C237 N232 1.363 . S
C237 N234 1.377 . S
C237 C250 1.479 . S
C238 C235 1.480 . S
C238 C239 1.383 . S
C238 C243 1.385 . S
C239 H220 0.947 . S
C239 C238 1.383 . S
C239 C240 1.388 . S
C240 H221 0.946 . S
C240 C239 1.388 . S
C240 C241 1.384 . S
C241 C240 1.384 . S
C241 C242 1.377 . S
C242 H222 0.953 . S
C242 C241 1.377 . S
C242 C243 1.369 . S
C243 H223 0.945 . S
C243 C238 1.385 . S
C243 C242 1.369 . S
C244 C236 1.457 . S
C244 C245 1.372 . S
C244 C249 1.364 . S
C245 H224 0.952 . S
C245 C244 1.372 . S
C245 C246 1.389 . S
C246 H225 0.949 . S
C246 C245 1.389 . S
C246 C247 1.387 . S
C247 C246 1.387 . S
C247 C248 1.372 . S
C248 H226 0.950 . S
C248 C247 1.372 . S
C248 C249 1.379 . S
C249 H227 0.948 . S
C249 C244 1.364 . S
C249 C248 1.379 . S
C250 C219 1.383 . S
C250 C237 1.479 . S
C250 C251 1.398 . S
C251 C216 1.382 . S
C251 H228 0.951 . S
C251 C250 1.398 . S
C252 C253 1.384 . S
C252 H265 0.947 . S
C252 C287 1.382 . S
C253 C252 1.384 . S
C253 C254 1.378 . S
C254 C253 1.378 . S
C254 C255 1.378 . S
C254 H266 0.952 . S
C255 C254 1.378 . S
C255 H267 0.950 . S
C255 C286 1.383 . S
H256 C275 0.947 . S
H257 C276 0.946 . S
H258 C278 0.953 . S
H259 C279 0.945 . S
H260 C281 0.952 . S
H261 C282 0.949 . S
H262 C284 0.950 . S
H263 C285 0.948 . S
H264 C287 0.951 . S
H265 C252 0.947 . S
H266 C254 0.952 . S
H267 C255 0.950 . S
N268 C271 1.382 . S
N268 C273 1.363 . S
N269 C271 1.371 . S
N269 C272 1.372 . S
N270 C272 1.361 . S
N270 C273 1.377 . S
C271 N268 1.382 . S
C271 N269 1.371 . S
C271 C274 1.480 . S
C272 N269 1.372 . S
C272 N270 1.361 . S
C272 C280 1.457 . S
C273 N268 1.363 . S
C273 N270 1.377 . S
C273 C286 1.479 . S
C274 C271 1.480 . S
C274 C275 1.383 . S
C274 C279 1.385 . S
C275 H256 0.947 . S
C275 C274 1.383 . S
C275 C276 1.388 . S
C276 H257 0.946 . S
C276 C275 1.388 . S
C276 C277 1.384 . S
C277 C276 1.384 . S
C277 C278 1.377 . S
C278 H258 0.953 . S
C278 C277 1.377 . S
C278 C279 1.369 . S
C279 H259 0.945 . S
C279 C274 1.385 . S
C279 C278 1.369 . S
C280 C272 1.457 . S
C280 C281 1.372 . S
C280 C285 1.364 . S
C281 H260 0.952 . S
C281 C280 1.372 . S
C281 C282 1.389 . S
C282 H261 0.949 . S
C282 C281 1.389 . S
C282 C283 1.387 . S
C283 C282 1.387 . S
C283 C284 1.372 . S
C284 H262 0.950 . S
C284 C283 1.372 . S
C284 C285 1.379 . S
C285 H263 0.948 . S
C285 C280 1.364 . S
C285 C284 1.379 . S
C286 C255 1.383 . S
C286 C273 1.479 . S
C286 C287 1.398 . S
C287 C252 1.382 . S
C287 H264 0.951 . S
C287 C286 1.398 . S
Tb288 N317 2.617 . S
Tb288 N323 2.572 . S
Tb288 O332 2.465 . S
Tb288 O333 2.387 . S
Tb288 O335 2.428 . S
Tb288 O336 2.308 . S
Tb288 O340 2.349 . S
Tb288 O343 2.393 . S
Tb288 C352 2.802 . S
C289 N290 1.379 . S
C289 C292 1.416 . S
C289 C296 1.424 . S
N290 C289 1.379 . S
N290 C293 1.334 . S
N290 Tb299 2.617 . S
C291 C293 1.390 . S
C291 C294 1.339 . S
C291 H311 0.930 . S
C292 C289 1.416 . S
C292 C294 1.416 . S
C292 C298 1.448 . S
C293 N290 1.334 . S
C293 C291 1.390 . S
C293 H304 0.930 . S
C294 C291 1.339 . S
C294 C292 1.416 . S
C294 H315 0.930 . S
C295 C296 1.413 . S
C295 C297 1.427 . S
C295 C301 1.416 . S
C296 C289 1.424 . S
C296 C295 1.413 . S
C296 N300 1.361 . S
C297 C295 1.427 . S
C297 C298 1.328 . S
C297 H312 0.929 . S
C298 C292 1.448 . S
C298 C297 1.328 . S
C298 H313 0.930 . S
Tb299 N290 2.617 . S
Tb299 N300 2.572 . S
Tb299 O334 2.333 1_655 S
Tb299 O337 2.393 . S
Tb299 O338 2.465 . S
Tb299 O339 2.387 . S
Tb299 O341 2.428 . S
Tb299 O342 2.308 1_655 S
Tb299 C363 2.802 . S
N300 C296 1.361 . S
N300 Tb299 2.572 . S
N300 C302 1.340 . S
C301 C295 1.416 . S
C301 C303 1.332 . S
C301 H309 0.931 . S
C302 N300 1.340 . S
C302 C303 1.407 . S
C302 H308 0.930 . S
C303 C301 1.332 . S
C303 C302 1.407 . S
C303 H305 0.929 . S
H304 C293 0.930 . S
H305 C303 0.929 . S
H306 C321 0.930 . S
H307 C328 0.929 . S
H308 C302 0.930 . S
H309 C301 0.931 . S
H310 C324 0.930 . S
H311 C291 0.930 . S
H312 C297 0.929 . S
H313 C298 0.930 . S
H314 C319 0.930 . S
H315 C294 0.930 . S
H316 C327 0.931 . S
N317 Tb288 2.617 . S
N317 C318 1.379 . S
N317 C321 1.334 . S
C318 N317 1.379 . S
C318 C320 1.416 . S
C318 C326 1.424 . S
C319 H314 0.930 . S
C319 C321 1.390 . S
C319 C322 1.339 . S
C320 C318 1.416 . S
C320 C322 1.416 . S
C320 C353 1.448 . S
C321 H306 0.930 . S
C321 N317 1.334 . S
C321 C319 1.390 . S
C322 C319 1.339 . S
C322 C320 1.416 . S
C322 H329 0.930 . S
N323 Tb288 2.572 . S
N323 C324 1.340 . S
N323 C326 1.361 . S
C324 H310 0.930 . S
C324 N323 1.340 . S
C324 C328 1.407 . S
C325 C326 1.413 . S
C325 C327 1.416 . S
C325 C354 1.427 . S
C326 C318 1.424 . S
C326 N323 1.361 . S
C326 C325 1.413 . S
C327 H316 0.931 . S
C327 C325 1.416 . S
C327 C328 1.332 . S
C328 H307 0.929 . S
C328 C324 1.407 . S
C328 C327 1.332 . S
H329 C322 0.930 . S
H330 C353 0.930 . S
H331 C354 0.929 . S
O332 Tb288 2.465 . S
O332 C352 1.264 . S
O333 Tb288 2.387 . S
O333 C344 1.264 . S
O334 Tb299 2.333 1_455 S
O334 C344 1.264 . S
O335 Tb288 2.428 . S
O335 C352 1.256 . S
O336 Tb288 2.308 . S
O336 C351 1.266 1_455 S
O337 Tb299 2.393 . S
O337 C351 1.248 . S
O338 Tb299 2.465 . S
O338 C363 1.264 . S
O339 Tb299 2.387 . S
O339 C355 1.264 . S
O340 Tb288 2.349 . S
O340 C355 1.243 1_455 S
O341 Tb299 2.428 . S
O341 C363 1.256 . S
O342 Tb299 2.308 1_455 S
O342 C362 1.266 . S
O343 Tb288 2.393 . S
O343 C362 1.248 . S
C344 O333 1.264 . S
C344 O334 1.264 . S
C345 C348 1.399 . S
C345 C350 1.383 . S
C345 C352 1.496 . S
C346 C347 1.399 . S
C346 C350 1.389 . S
C347 C346 1.399 . S
C347 C349 1.380 . S
C347 H364 0.929 . S
C348 C345 1.399 . S
C348 C349 1.392 . S
C348 H365 0.929 . S
C349 C347 1.380 . S
C349 C348 1.392 . S
C349 H366 0.929 . S
C350 C345 1.383 . S
C350 C346 1.389 . S
C350 H367 0.931 . S
C351 O336 1.266 1_655 S
C351 O337 1.248 . S
C352 Tb288 2.802 . S
C352 O332 1.264 . S
C352 O335 1.256 . S
C352 C345 1.496 . S
C353 C320 1.448 . S
C353 H330 0.930 . S
C353 C354 1.328 . S
C354 C325 1.427 . S
C354 H331 0.929 . S
C354 C353 1.328 . S
C355 O339 1.264 . S
C355 O340 1.243 1_655 S
C356 C359 1.399 . S
C356 C360 1.383 . S
C356 C363 1.496 . S
C357 C358 1.399 . S
C357 C360 1.389 . S
C358 C357 1.399 . S
C358 C361 1.380 . S
C358 H368 0.929 . S
C359 C356 1.399 . S
C359 C361 1.392 . S
C359 H369 0.929 . S
C360 C356 1.383 . S
C360 C357 1.389 . S
C360 H370 0.931 . S
C361 C358 1.380 . S
C361 C359 1.392 . S
C361 H371 0.929 . S
C362 O342 1.266 . S
C362 O343 1.248 . S
C363 Tb299 2.802 . S
C363 O338 1.264 . S
C363 O341 1.256 . S
C363 C356 1.496 . S
H364 C347 0.929 . S
H365 C348 0.929 . S
H366 C349 0.929 . S
H367 C350 0.931 . S
H368 C358 0.929 . S
H369 C359 0.929 . S
H370 C360 0.931 . S
H371 C361 0.929 . S
Tb372 N401 2.617 . S
Tb372 N407 2.572 . S
Tb372 O416 2.465 . S
Tb372 O417 2.387 . S
Tb372 O419 2.428 . S
Tb372 O420 2.308 . S
Tb372 O424 2.349 . S
Tb372 O427 2.393 . S
Tb372 C436 2.802 . S
C373 N374 1.379 . S
C373 C376 1.416 . S
C373 C380 1.424 . S
N374 C373 1.379 . S
N374 C377 1.334 . S
N374 Tb383 2.617 . S
C375 C377 1.390 . S
C375 C378 1.339 . S
C375 H395 0.930 . S
C376 C373 1.416 . S
C376 C378 1.416 . S
C376 C382 1.448 . S
C377 N374 1.334 . S
C377 C375 1.390 . S
C377 H388 0.930 . S
C378 C375 1.339 . S
C378 C376 1.416 . S
C378 H399 0.930 . S
C379 C380 1.413 . S
C379 C381 1.427 . S
C379 C385 1.416 . S
C380 C373 1.424 . S
C380 C379 1.413 . S
C380 N384 1.361 . S
C381 C379 1.427 . S
C381 C382 1.328 . S
C381 H396 0.929 . S
C382 C376 1.448 . S
C382 C381 1.328 . S
C382 H397 0.930 . S
Tb383 N374 2.617 . S
Tb383 N384 2.572 . S
Tb383 O418 2.349 . S
Tb383 O421 2.393 . S
Tb383 O422 2.465 . S
Tb383 O423 2.387 . S
Tb383 O425 2.428 . S
Tb383 O426 2.308 . S
Tb383 C447 2.802 . S
N384 C380 1.361 . S
N384 Tb383 2.572 . S
N384 C386 1.340 . S
C385 C379 1.416 . S
C385 C387 1.332 . S
C385 H393 0.931 . S
C386 N384 1.340 . S
C386 C387 1.407 . S
C386 H392 0.930 . S
C387 C385 1.332 . S
C387 C386 1.407 . S
C387 H389 0.929 . S
H388 C377 0.930 . S
H389 C387 0.929 . S
H390 C405 0.930 . S
H391 C412 0.929 . S
H392 C386 0.930 . S
H393 C385 0.931 . S
H394 C408 0.930 . S
H395 C375 0.930 . S
H396 C381 0.929 . S
H397 C382 0.930 . S
H398 C403 0.930 . S
H399 C378 0.930 . S
H400 C411 0.931 . S
N401 Tb372 2.617 . S
N401 C402 1.379 . S
N401 C405 1.334 . S
C402 N401 1.379 . S
C402 C404 1.416 . S
C402 C410 1.424 . S
C403 H398 0.930 . S
C403 C405 1.390 . S
C403 C406 1.339 . S
C404 C402 1.416 . S
C404 C406 1.416 . S
C404 C437 1.448 . S
C405 H390 0.930 . S
C405 N401 1.334 . S
C405 C403 1.390 . S
C406 C403 1.339 . S
C406 C404 1.416 . S
C406 H413 0.930 . S
N407 Tb372 2.572 . S
N407 C408 1.340 . S
N407 C410 1.361 . S
C408 H394 0.930 . S
C408 N407 1.340 . S
C408 C412 1.407 . S
C409 C410 1.413 . S
C409 C411 1.416 . S
C409 C438 1.427 . S
C410 C402 1.424 . S
C410 N407 1.361 . S
C410 C409 1.413 . S
C411 H400 0.931 . S
C411 C409 1.416 . S
C411 C412 1.332 . S
C412 H391 0.929 . S
C412 C408 1.407 . S
C412 C411 1.332 . S
H413 C406 0.930 . S
H414 C437 0.930 . S
H415 C438 0.929 . S
O416 Tb372 2.465 . S
O416 C436 1.264 . S
O417 Tb372 2.387 . S
O417 C428 1.264 . S
O418 Tb383 2.349 . S
O418 C428 1.243 . S
O419 Tb372 2.428 . S
O419 C436 1.256 . S
O420 Tb372 2.308 . S
O420 C435 1.266 . S
O421 Tb383 2.393 . S
O421 C435 1.248 . S
O422 Tb383 2.465 . S
O422 C447 1.264 . S
O423 Tb383 2.387 . S
O423 C439 1.264 . S
O424 Tb372 2.349 . S
O424 C439 1.243 . S
O425 Tb383 2.428 . S
O425 C447 1.256 . S
O426 Tb383 2.308 . S
O426 C446 1.266 . S
O427 Tb372 2.393 . S
O427 C446 1.248 . S
C428 O417 1.264 . S
C428 O418 1.243 . S
C429 C432 1.399 . S
C429 C434 1.383 . S
C429 C436 1.496 . S
C430 C431 1.399 . S
C430 C434 1.389 . S
C431 C430 1.399 . S
C431 C433 1.380 . S
C431 H448 0.929 . S
C432 C429 1.399 . S
C432 C433 1.392 . S
C432 H449 0.929 . S
C433 C431 1.380 . S
C433 C432 1.392 . S
C433 H450 0.929 . S
C434 C429 1.383 . S
C434 C430 1.389 . S
C434 H451 0.931 . S
C435 O420 1.266 . S
C435 O421 1.248 . S
C436 Tb372 2.802 . S
C436 O416 1.264 . S
C436 O419 1.256 . S
C436 C429 1.496 . S
C437 C404 1.448 . S
C437 H414 0.930 . S
C437 C438 1.328 . S
C438 C409 1.427 . S
C438 H415 0.929 . S
C438 C437 1.328 . S
C439 O423 1.264 . S
C439 O424 1.243 . S
C440 C443 1.399 . S
C440 C444 1.383 . S
C440 C447 1.496 . S
C441 C442 1.399 . S
C441 C444 1.389 . S
C442 C441 1.399 . S
C442 C445 1.380 . S
C442 H452 0.929 . S
C443 C440 1.399 . S
C443 C445 1.392 . S
C443 H453 0.929 . S
C444 C440 1.383 . S
C444 C441 1.389 . S
C444 H454 0.931 . S
C445 C442 1.380 . S
C445 C443 1.392 . S
C445 H455 0.929 . S
C446 O426 1.266 . S
C446 O427 1.248 . S
C447 Tb383 2.802 . S
C447 O422 1.264 . S
C447 O425 1.256 . S
C447 C440 1.496 . S
H448 C431 0.929 . S
H449 C432 0.929 . S
H450 C433 0.929 . S
H451 C434 0.931 . S
H452 C442 0.929 . S
H453 C443 0.929 . S
H454 C444 0.931 . S
H455 C445 0.929 . S
Tb456 N485 2.617 . S
Tb456 N491 2.572 . S
Tb456 O500 2.465 . S
Tb456 O501 2.387 . S
Tb456 O503 2.428 . S
Tb456 O504 2.308 . S
Tb456 O508 2.349 . S
Tb456 O511 2.393 . S
Tb456 C520 2.802 . S
C457 N458 1.379 . S
C457 C460 1.416 . S
C457 C464 1.424 . S
N458 C457 1.379 . S
N458 C461 1.334 . S
N458 Tb467 2.617 . S
C459 C461 1.390 . S
C459 C462 1.339 . S
C459 H479 0.930 . S
C460 C457 1.416 . S
C460 C462 1.416 . S
C460 C466 1.448 . S
C461 N458 1.334 . S
C461 C459 1.390 . S
C461 H472 0.930 . S
C462 C459 1.339 . S
C462 C460 1.416 . S
C462 H483 0.930 . S
C463 C464 1.413 . S
C463 C465 1.427 . S
C463 C469 1.416 . S
C464 C457 1.424 . S
C464 C463 1.413 . S
C464 N468 1.361 . S
C465 C463 1.427 . S
C465 C466 1.328 . S
C465 H480 0.929 . S
C466 C460 1.448 . S
C466 C465 1.328 . S
C466 H481 0.930 . S
Tb467 N458 2.617 . S
Tb467 N468 2.572 . S
Tb467 O502 2.349 1_655 S
Tb467 O505 2.393 . S
Tb467 O506 2.465 . S
Tb467 O507 2.387 . S
Tb467 O509 2.428 . S
Tb467 O510 2.308 1_655 S
Tb467 C531 2.802 . S
N468 C464 1.361 . S
N468 Tb467 2.572 . S
N468 C470 1.340 . S
C469 C463 1.416 . S
C469 C471 1.332 . S
C469 H477 0.931 . S
C470 N468 1.340 . S
C470 C471 1.407 . S
C470 H476 0.930 . S
C471 C469 1.332 . S
C471 C470 1.407 . S
C471 H473 0.929 . S
H472 C461 0.930 . S
H473 C471 0.929 . S
H474 C489 0.930 . S
H475 C496 0.929 . S
H476 C470 0.930 . S
H477 C469 0.931 . S
H478 C492 0.930 . S
H479 C459 0.930 . S
H480 C465 0.929 . S
H481 C466 0.930 . S
H482 C487 0.930 . S
H483 C462 0.930 . S
H484 C495 0.931 . S
N485 Tb456 2.617 . S
N485 C486 1.379 . S
N485 C489 1.334 . S
C486 N485 1.379 . S
C486 C488 1.416 . S
C486 C494 1.424 . S
C487 H482 0.930 . S
C487 C489 1.390 . S
C487 C490 1.339 . S
C488 C486 1.416 . S
C488 C490 1.416 . S
C488 C521 1.448 . S
C489 H474 0.930 . S
C489 N485 1.334 . S
C489 C487 1.390 . S
C490 C487 1.339 . S
C490 C488 1.416 . S
C490 H497 0.930 . S
N491 Tb456 2.572 . S
N491 C492 1.340 . S
N491 C494 1.361 . S
C492 H478 0.930 . S
C492 N491 1.340 . S
C492 C496 1.407 . S
C493 C494 1.413 . S
C493 C495 1.416 . S
C493 C522 1.427 . S
C494 C486 1.424 . S
C494 N491 1.361 . S
C494 C493 1.413 . S
C495 H484 0.931 . S
C495 C493 1.416 . S
C495 C496 1.332 . S
C496 H475 0.929 . S
C496 C492 1.407 . S
C496 C495 1.332 . S
H497 C490 0.930 . S
H498 C521 0.930 . S
H499 C522 0.929 . S
O500 Tb456 2.465 . S
O500 C520 1.264 . S
O501 Tb456 2.387 . S
O501 C512 1.264 . S
O502 Tb467 2.349 1_455 S
O502 C512 1.243 . S
O503 Tb456 2.428 . S
O503 C520 1.256 . S
O504 Tb456 2.308 . S
O504 C519 1.266 1_455 S
O505 Tb467 2.393 . S
O505 C519 1.248 . S
O506 Tb467 2.465 . S
O506 C531 1.264 . S
O507 Tb467 2.387 . S
O507 C523 1.264 . S
O508 Tb456 2.349 . S
O508 C523 1.243 1_455 S
O509 Tb467 2.428 . S
O509 C531 1.256 . S
O510 Tb467 2.308 1_455 S
O510 C530 1.266 . S
O511 Tb456 2.393 . S
O511 C530 1.248 . S
C512 O501 1.264 . S
C512 O502 1.243 . S
C513 C516 1.399 . S
C513 C518 1.383 . S
C513 C520 1.496 . S
C514 C515 1.399 . S
C514 C518 1.389 . S
C515 C514 1.399 . S
C515 C517 1.380 . S
C515 H532 0.929 . S
C516 C513 1.399 . S
C516 C517 1.392 . S
C516 H533 0.929 . S
C517 C515 1.380 . S
C517 C516 1.392 . S
C517 H534 0.929 . S
C518 C513 1.383 . S
C518 C514 1.389 . S
C518 H535 0.931 . S
C519 O504 1.266 1_655 S
C519 O505 1.248 . S
C520 Tb456 2.802 . S
C520 O500 1.264 . S
C520 O503 1.256 . S
C520 C513 1.496 . S
C521 C488 1.448 . S
C521 H498 0.930 . S
C521 C522 1.328 . S
C522 C493 1.427 . S
C522 H499 0.929 . S
C522 C521 1.328 . S
C523 O507 1.264 . S
C523 O508 1.243 1_655 S
C524 C527 1.399 . S
C524 C528 1.383 . S
C524 C531 1.496 . S
C525 C526 1.399 . S
C525 C528 1.389 . S
C526 C525 1.399 . S
C526 C529 1.380 . S
C526 H536 0.929 . S
C527 C524 1.399 . S
C527 C529 1.392 . S
C527 H537 0.929 . S
C528 C524 1.383 . S
C528 C525 1.389 . S
C528 H538 0.931 . S
C529 C526 1.380 . S
C529 C527 1.392 . S
C529 H539 0.929 . S
C530 O510 1.266 . S
C530 O511 1.248 . S
C531 Tb467 2.802 . S
C531 O506 1.264 . S
C531 O509 1.256 . S
C531 C524 1.496 . S
H532 C515 0.929 . S
H533 C516 0.929 . S
H534 C517 0.929 . S
H535 C518 0.931 . S
H536 C526 0.929 . S
H537 C527 0.929 . S
H538 C528 0.931 . S
H539 C529 0.929 . S
Tb540 N569 2.617 . S
Tb540 N575 2.572 . S
Tb540 O584 2.465 . S
Tb540 O585 2.387 . S
Tb540 O587 2.428 . S
Tb540 O588 2.308 . S
Tb540 O592 2.349 . S
Tb540 O595 2.393 . S
Tb540 C604 2.802 . S
C541 N542 1.379 . S
C541 C544 1.416 . S
C541 C548 1.424 . S
N542 C541 1.379 . S
N542 C545 1.334 . S
N542 Tb551 2.617 . S
C543 C545 1.390 . S
C543 C546 1.339 . S
C543 H563 0.930 . S
C544 C541 1.416 . S
C544 C546 1.416 . S
C544 C550 1.448 . S
C545 N542 1.334 . S
C545 C543 1.390 . S
C545 H556 0.930 . S
C546 C543 1.339 . S
C546 C544 1.416 . S
C546 H567 0.930 . S
C547 C548 1.413 . S
C547 C549 1.427 . S
C547 C553 1.416 . S
C548 C541 1.424 . S
C548 C547 1.413 . S
C548 N552 1.361 . S
C549 C547 1.427 . S
C549 C550 1.328 . S
C549 H564 0.929 . S
C550 C544 1.448 . S
C550 C549 1.328 . S
C550 H565 0.930 . S
Tb551 N542 2.617 . S
Tb551 N552 2.572 . S
Tb551 O586 2.349 . S
Tb551 O589 2.393 . S
Tb551 O590 2.465 . S
Tb551 O591 2.387 . S
Tb551 O593 2.428 . S
Tb551 O594 2.308 . S
Tb551 C615 2.802 . S
N552 C548 1.361 . S
N552 Tb551 2.572 . S
N552 C554 1.340 . S
C553 C547 1.416 . S
C553 C555 1.332 . S
C553 H561 0.931 . S
C554 N552 1.340 . S
C554 C555 1.407 . S
C554 H560 0.930 . S
C555 C553 1.332 . S
C555 C554 1.407 . S
C555 H557 0.929 . S
H556 C545 0.930 . S
H557 C555 0.929 . S
H558 C573 0.930 . S
H559 C580 0.929 . S
H560 C554 0.930 . S
H561 C553 0.931 . S
H562 C576 0.930 . S
H563 C543 0.930 . S
H564 C549 0.929 . S
H565 C550 0.930 . S
H566 C571 0.930 . S
H567 C546 0.930 . S
H568 C579 0.931 . S
N569 Tb540 2.617 . S
N569 C570 1.379 . S
N569 C573 1.334 . S
C570 N569 1.379 . S
C570 C572 1.416 . S
C570 C578 1.424 . S
C571 H566 0.930 . S
C571 C573 1.390 . S
C571 C574 1.339 . S
C572 C570 1.416 . S
C572 C574 1.416 . S
C572 C605 1.448 . S
C573 H558 0.930 . S
C573 N569 1.334 . S
C573 C571 1.390 . S
C574 C571 1.339 . S
C574 C572 1.416 . S
C574 H581 0.930 . S
N575 Tb540 2.572 . S
N575 C576 1.340 . S
N575 C578 1.361 . S
C576 H562 0.930 . S
C576 N575 1.340 . S
C576 C580 1.407 . S
C577 C578 1.413 . S
C577 C579 1.416 . S
C577 C606 1.427 . S
C578 C570 1.424 . S
C578 N575 1.361 . S
C578 C577 1.413 . S
C579 H568 0.931 . S
C579 C577 1.416 . S
C579 C580 1.332 . S
C580 H559 0.929 . S
C580 C576 1.407 . S
C580 C579 1.332 . S
H581 C574 0.930 . S
H582 C605 0.930 . S
H583 C606 0.929 . S
O584 Tb540 2.465 . S
O584 C604 1.264 . S
O585 Tb540 2.387 . S
O585 C596 1.264 . S
O586 Tb551 2.349 . S
O586 C596 1.243 . S
O587 Tb540 2.428 . S
O587 C604 1.256 . S
O588 Tb540 2.308 . S
O588 C603 1.266 . S
O589 Tb551 2.393 . S
O589 C603 1.248 . S
O590 Tb551 2.465 . S
O590 C615 1.264 . S
O591 Tb551 2.387 . S
O591 C607 1.264 . S
O592 Tb540 2.349 . S
O592 C607 1.243 . S
O593 Tb551 2.428 . S
O593 C615 1.256 . S
O594 Tb551 2.308 . S
O594 C614 1.266 . S
O595 Tb540 2.393 . S
O595 C614 1.248 . S
C596 O585 1.264 . S
C596 O586 1.243 . S
C597 C600 1.399 . S
C597 C602 1.383 . S
C597 C604 1.496 . S
C598 C599 1.399 . S
C598 C602 1.389 . S
C599 C598 1.399 . S
C599 C601 1.380 . S
C599 H616 0.929 . S
C600 C597 1.399 . S
C600 C601 1.392 . S
C600 H617 0.929 . S
C601 C599 1.380 . S
C601 C600 1.392 . S
C601 H618 0.929 . S
C602 C597 1.383 . S
C602 C598 1.389 . S
C602 H619 0.931 . S
C603 O588 1.266 . S
C603 O589 1.248 . S
C604 Tb540 2.802 . S
C604 O584 1.264 . S
C604 O587 1.256 . S
C604 C597 1.496 . S
C605 C572 1.448 . S
C605 H582 0.930 . S
C605 C606 1.328 . S
C606 C577 1.427 . S
C606 H583 0.929 . S
C606 C605 1.328 . S
C607 O591 1.264 . S
C607 O592 1.243 . S
C608 C611 1.399 . S
C608 C612 1.383 . S
C608 C615 1.496 . S
C609 C610 1.399 . S
C609 C612 1.389 . S
C610 C609 1.399 . S
C610 C613 1.380 . S
C610 H620 0.929 . S
C611 C608 1.399 . S
C611 C613 1.392 . S
C611 H621 0.929 . S
C612 C608 1.383 . S
C612 C609 1.389 . S
C612 H622 0.931 . S
C613 C610 1.380 . S
C613 C611 1.392 . S
C613 H623 0.929 . S
C614 O594 1.266 . S
C614 O595 1.248 . S
C615 Tb551 2.802 . S
C615 O590 1.264 . S
C615 O593 1.256 . S
C615 C608 1.496 . S
H616 C599 0.929 . S
H617 C600 0.929 . S
H618 C601 0.929 . S
H619 C602 0.931 . S
H620 C610 0.929 . S
H621 C611 0.929 . S
H622 C612 0.931 . S
H623 C613 0.929 . S
H624 C632 0.950 . S
H625 C637 0.950 . S
H626 C634 0.950 . S
H627 C636 0.950 . S
H628 C638 0.948 1_655 S
H629 C640 0.950 . S
H630 C642 0.950 . S
H631 C643 0.950 . S
C632 H624 0.950 . S
C632 C633 1.386 1_545 S
C632 C634 1.391 . S
C633 C632 1.386 1_565 S
C633 C637 1.393 . S
C634 H626 0.950 . S
C634 C632 1.391 . S
C634 C635 1.400 . S
C635 C634 1.400 . S
C635 C636 1.398 . S
C635 C641 1.491 . S
C636 H627 0.950 . S
C636 C635 1.398 . S
C636 C637 1.391 1_545 S
C637 H625 0.950 . S
C637 C633 1.393 . S
C637 C636 1.391 1_565 S
C638 H628 0.948 1_455 S
C638 C639 1.386 . S
C638 C640 1.391 . S
C639 C638 1.386 . S
C639 C643 1.393 . S
C640 H629 0.950 . S
C640 C638 1.391 . S
C640 C641 1.400 . S
C641 C635 1.491 . S
C641 C640 1.400 . S
C641 C642 1.398 . S
C642 H630 0.950 . S
C642 C641 1.398 . S
C642 C643 1.391 . S
C643 H631 0.950 . S
C643 C639 1.393 . S
C643 C642 1.391 . S
H644 C652 0.950 . S
H645 C657 0.950 . S
H646 C654 0.950 . S
H647 C656 0.950 . S
H648 C658 0.950 . S
H649 C660 0.950 . S
H650 C662 0.950 . S
H651 C663 0.950 . S
C652 H644 0.950 . S
C652 C653 1.386 . S
C652 C654 1.391 . S
C653 C652 1.386 . S
C653 C657 1.393 . S
C654 H646 0.950 . S
C654 C652 1.391 . S
C654 C655 1.400 . S
C655 C654 1.400 . S
C655 C656 1.398 . S
C655 C661 1.491 . S
C656 H647 0.950 . S
C656 C655 1.398 . S
C656 C657 1.391 . S
C657 H645 0.950 . S
C657 C653 1.393 . S
C657 C656 1.391 . S
C658 H648 0.950 . S
C658 C659 1.386 . S
C658 C660 1.391 . S
C659 C658 1.386 . S
C659 C663 1.393 . S
C660 H649 0.950 . S
C660 C658 1.391 . S
C660 C661 1.400 . S
C661 C655 1.491 . S
C661 C660 1.400 . S
C661 C662 1.398 . S
C662 H650 0.950 . S
C662 C661 1.398 . S
C662 C663 1.391 . S
C663 H651 0.950 . S
C663 C659 1.393 . S
C663 C662 1.391 . S
H664 C672 0.950 . S
H665 C677 0.950 . S
H666 C674 0.950 . S
H667 C676 0.950 . S
H668 C678 0.950 . S
H669 C680 0.950 . S
H670 C682 0.950 . S
H671 C683 0.950 . S
C672 H664 0.950 . S
C672 C673 1.386 . S
C672 C674 1.391 . S
C673 C672 1.386 . S
C673 C677 1.393 . S
C674 H666 0.950 . S
C674 C672 1.391 . S
C674 C675 1.400 . S
C675 C674 1.400 . S
C675 C676 1.398 . S
C675 C681 1.491 . S
C676 H667 0.950 . S
C676 C675 1.398 . S
C676 C677 1.391 . S
C677 H665 0.950 . S
C677 C673 1.393 . S
C677 C676 1.391 . S
C678 H668 0.950 . S
C678 C679 1.386 . S
C678 C680 1.391 . S
C679 C678 1.386 . S
C679 C683 1.393 . S
C680 H669 0.950 . S
C680 C678 1.391 . S
C680 C681 1.400 . S
C681 C675 1.491 . S
C681 C680 1.400 . S
C681 C682 1.398 . S
C682 H670 0.950 . S
C682 C681 1.398 . S
C682 C683 1.391 . S
C683 H671 0.950 . S
C683 C679 1.393 . S
C683 C682 1.391 . S
H684 C692 0.950 . S
H685 C697 0.950 . S
H686 C694 0.950 . S
H687 C696 0.950 . S
H688 C698 0.950 . S
H689 C700 0.950 . S
H690 C702 0.950 . S
H691 C703 0.950 . S
C692 H684 0.950 . S
C692 C693 1.386 . S
C692 C694 1.391 1_565 S
C693 C692 1.386 . S
C693 C697 1.393 1_565 S
C694 H686 0.950 . S
C694 C692 1.391 1_545 S
C694 C695 1.400 . S
C695 C694 1.400 . S
C695 C696 1.398 . S
C695 C701 1.491 . S
C696 H687 0.950 . S
C696 C695 1.398 . S
C696 C697 1.391 . S
C697 H685 0.950 . S
C697 C693 1.393 1_545 S
C697 C696 1.391 . S
C698 H688 0.950 . S
C698 C699 1.386 . S
C698 C700 1.391 . S
C699 C698 1.386 . S
C699 C703 1.393 . S
C700 H689 0.950 . S
C700 C698 1.391 . S
C700 C701 1.400 . S
C701 C695 1.491 . S
C701 C700 1.400 . S
C701 C702 1.398 . S
C702 H690 0.950 . S
C702 C701 1.398 . S
C702 C703 1.391 . S
C703 H691 0.950 . S
C703 C699 1.393 . S
C703 C702 1.391 . S
H704 C712 0.950 . S
H705 C717 0.950 . S
H706 C714 0.950 . S
H707 C716 0.950 . S
H708 C718 0.950 . S
H709 C720 0.950 . S
H710 C722 0.950 . S
H711 C723 0.950 . S
C712 H704 0.950 . S
C712 C713 1.386 1_565 S
C712 C714 1.391 . S
C713 C712 1.386 1_545 S
C713 C717 1.393 . S
C714 H706 0.950 . S
C714 C712 1.391 . S
C714 C715 1.400 . S
C715 C714 1.400 . S
C715 C716 1.398 . S
C715 C721 1.491 . S
C716 H707 0.950 . S
C716 C715 1.398 . S
C716 C717 1.391 1_565 S
C717 H705 0.950 . S
C717 C713 1.393 . S
C717 C716 1.391 1_545 S
C718 H708 0.950 . S
C718 C719 1.386 . S
C718 C720 1.391 . S
C719 C718 1.386 . S
C719 C723 1.393 . S
C720 H709 0.950 . S
C720 C718 1.391 . S
C720 C721 1.400 . S
C721 C715 1.491 . S
C721 C720 1.400 . S
C721 C722 1.398 . S
C722 H710 0.950 . S
C722 C721 1.398 . S
C722 C723 1.391 . S
C723 H711 0.950 . S
C723 C719 1.393 . S
C723 C722 1.391 . S
H724 C732 0.950 . S
H725 C737 0.950 . S
H726 C734 0.950 . S
H727 C736 0.950 . S
H728 C738 0.950 . S
H729 C740 0.950 . S
H730 C742 0.950 . S
H731 C743 0.950 . S
C732 H724 0.950 . S
C732 C733 1.386 . S
C732 C734 1.391 . S
C733 C732 1.386 . S
C733 C737 1.393 . S
C734 H726 0.950 . S
C734 C732 1.391 . S
C734 C735 1.400 . S
C735 C734 1.400 . S
C735 C736 1.398 . S
C735 C741 1.491 . S
C736 H727 0.950 . S
C736 C735 1.398 . S
C736 C737 1.391 . S
C737 H725 0.950 . S
C737 C733 1.393 . S
C737 C736 1.391 . S
C738 H728 0.950 . S
C738 C739 1.386 . S
C738 C740 1.391 . S
C739 C738 1.386 . S
C739 C743 1.393 . S
C740 H729 0.950 . S
C740 C738 1.391 . S
C740 C741 1.400 . S
C741 C735 1.491 . S
C741 C740 1.400 . S
C741 C742 1.398 . S
C742 H730 0.950 . S
C742 C741 1.398 . S
C742 C743 1.391 . S
C743 H731 0.950 . S
C743 C739 1.393 . S
C743 C742 1.391 . S
H744 C752 0.950 . S
H745 C757 0.950 . S
H746 C754 0.950 . S
H747 C756 0.950 . S
H748 C758 0.950 . S
H749 C760 0.950 . S
H750 C762 0.950 . S
H751 C763 0.950 . S
C752 H744 0.950 . S
C752 C753 1.386 . S
C752 C754 1.391 . S
C753 C752 1.386 . S
C753 C757 1.393 . S
C754 H746 0.950 . S
C754 C752 1.391 . S
C754 C755 1.400 . S
C755 C754 1.400 . S
C755 C756 1.398 . S
C755 C761 1.491 . S
C756 H747 0.950 . S
C756 C755 1.398 . S
C756 C757 1.391 . S
C757 H745 0.950 . S
C757 C753 1.393 . S
C757 C756 1.391 . S
C758 H748 0.950 . S
C758 C759 1.386 . S
C758 C760 1.391 . S
C759 C758 1.386 . S
C759 C763 1.393 . S
C760 H749 0.950 . S
C760 C758 1.391 . S
C760 C761 1.400 . S
C761 C755 1.491 . S
C761 C760 1.400 . S
C761 C762 1.398 . S
C762 H750 0.950 . S
C762 C761 1.398 . S
C762 C763 1.391 . S
C763 H751 0.950 . S
C763 C759 1.393 . S
C763 C762 1.391 . S
H764 C772 0.950 . S
H765 C777 0.950 . S
H766 C774 0.950 . S
H767 C776 0.950 . S
H768 C778 0.950 . S
H769 C780 0.950 . S
H770 C782 0.950 . S
H771 C783 0.950 . S
C772 H764 0.950 . S
C772 C773 1.386 . S
C772 C774 1.391 1_545 S
C773 C772 1.386 . S
C773 C777 1.393 1_545 S
C774 H766 0.950 . S
C774 C772 1.391 1_565 S
C774 C775 1.400 . S
C775 C774 1.400 . S
C775 C776 1.398 . S
C775 C781 1.491 . S
C776 H767 0.950 . S
C776 C775 1.398 . S
C776 C777 1.391 . S
C777 H765 0.950 . S
C777 C773 1.393 1_565 S
C777 C776 1.391 . S
C778 H768 0.950 . S
C778 C779 1.386 . S
C778 C780 1.391 . S
C779 C778 1.386 . S
C779 C783 1.393 . S
C780 H769 0.950 . S
C780 C778 1.391 . S
C780 C781 1.400 . S
C781 C775 1.491 . S
C781 C780 1.400 . S
C781 C782 1.398 . S
C782 H770 0.950 . S
C782 C781 1.398 . S
C782 C783 1.391 . S
C783 H771 0.950 . S
C783 C779 1.393 . S
C783 C782 1.391 . S
H784 C792 0.950 . S
H785 C797 0.950 . S
H786 C794 0.950 . S
H787 C796 0.950 . S
H788 C798 0.950 . S
H789 C800 0.950 . S
H790 C802 0.950 . S
H791 C803 0.950 . S
C792 H784 0.950 . S
C792 C793 1.386 . S
C792 C794 1.391 . S
C793 C792 1.386 . S
C793 C797 1.393 . S
C794 H786 0.950 . S
C794 C792 1.391 . S
C794 C795 1.400 . S
C795 C794 1.400 . S
C795 C796 1.398 . S
C795 C801 1.491 . S
C796 H787 0.950 . S
C796 C795 1.398 . S
C796 C797 1.391 . S
C797 H785 0.950 . S
C797 C793 1.393 . S
C797 C796 1.391 . S
C798 H788 0.950 . S
C798 C799 1.386 . S
C798 C800 1.391 . S
C799 C798 1.386 . S
C799 C803 1.393 . S
C800 H789 0.950 . S
C800 C798 1.391 . S
C800 C801 1.400 . S
C801 C795 1.491 . S
C801 C800 1.400 . S
C801 C802 1.398 . S
C802 H790 0.950 . S
C802 C801 1.398 . S
C802 C803 1.391 . S
C803 H791 0.950 . S
C803 C799 1.393 . S
C803 C802 1.391 . S
H804 C812 0.950 . S
H805 C817 0.950 . S
H806 C814 0.950 . S
H807 C816 0.950 . S
H808 C818 0.950 . S
H809 C820 0.950 . S
H810 C822 0.950 . S
H811 C823 0.950 . S
C812 H804 0.950 . S
C812 C813 1.386 . S
C812 C814 1.391 . S
C813 C812 1.386 . S
C813 C817 1.393 . S
C814 H806 0.950 . S
C814 C812 1.391 . S
C814 C815 1.400 . S
C815 C814 1.400 . S
C815 C816 1.398 . S
C815 C821 1.491 . S
C816 H807 0.950 . S
C816 C815 1.398 . S
C816 C817 1.391 . S
C817 H805 0.950 . S
C817 C813 1.393 . S
C817 C816 1.391 . S
C818 H808 0.950 . S
C818 C819 1.386 . S
C818 C820 1.391 . S
C819 C818 1.386 . S
C819 C823 1.393 . S
C820 H809 0.950 . S
C820 C818 1.391 . S
C820 C821 1.400 . S
C821 C815 1.491 . S
C821 C820 1.400 . S
C821 C822 1.398 . S
C822 H810 0.950 . S
C822 C821 1.398 . S
C822 C823 1.391 . S
C823 H811 0.950 . S
C823 C819 1.393 . S
C823 C822 1.391 . S
H824 C832 0.950 . S
H825 C837 0.950 . S
H826 C834 0.950 . S
H827 C836 0.950 . S
H828 C838 0.950 . S
H829 C840 0.950 . S
H830 C842 0.950 . S
H831 C843 0.950 . S
C832 H824 0.950 . S
C832 C833 1.386 . S
C832 C834 1.391 . S
C833 C832 1.386 . S
C833 C837 1.393 . S
C834 H826 0.950 . S
C834 C832 1.391 . S
C834 C835 1.400 . S
C835 C834 1.400 . S
C835 C836 1.398 . S
C835 C841 1.491 . S
C836 H827 0.950 . S
C836 C835 1.398 . S
C836 C837 1.391 . S
C837 H825 0.950 . S
C837 C833 1.393 . S
C837 C836 1.391 . S
C838 H828 0.950 . S
C838 C839 1.386 . S
C838 C840 1.391 . S
C839 C838 1.386 . S
C839 C843 1.393 . S
C840 H829 0.950 . S
C840 C838 1.391 . S
C840 C841 1.400 . S
C841 C835 1.491 . S
C841 C840 1.400 . S
C841 C842 1.398 . S
C842 H830 0.950 . S
C842 C841 1.398 . S
C842 C843 1.391 . S
C843 H831 0.950 . S
C843 C839 1.393 . S
C843 C842 1.391 . S
H844 C852 0.950 . S
H845 C857 0.950 . S
H846 C854 0.950 . S
H847 C856 0.950 . S
H848 C858 0.950 . S
H849 C860 0.950 . S
H850 C862 0.950 . S
H851 C863 0.950 . S
C852 H844 0.950 . S
C852 C853 1.386 . S
C852 C854 1.391 . S
C853 C852 1.386 . S
C853 C857 1.393 . S
C854 H846 0.950 . S
C854 C852 1.391 . S
C854 C855 1.400 . S
C855 C854 1.400 . S
C855 C856 1.398 . S
C855 C861 1.491 . S
C856 H847 0.950 . S
C856 C855 1.398 . S
C856 C857 1.391 . S
C857 H845 0.950 . S
C857 C853 1.393 . S
C857 C856 1.391 . S
C858 H848 0.950 . S
C858 C859 1.386 . S
C858 C860 1.391 . S
C859 C858 1.386 . S
C859 C863 1.393 . S
C860 H849 0.950 . S
C860 C858 1.391 . S
C860 C861 1.400 . S
C861 C855 1.491 . S
C861 C860 1.400 . S
C861 C862 1.398 . S
C862 H850 0.950 . S
C862 C861 1.398 . S
C862 C863 1.391 . S
C863 H851 0.950 . S
C863 C859 1.393 . S
C863 C862 1.391 . S
H864 C872 0.950 . S
H865 C877 0.950 . S
H866 C874 0.950 . S
H867 C876 0.950 . S
H868 C878 0.950 . S
H869 C880 0.950 . S
H870 C882 0.950 . S
H871 C883 0.950 . S
C872 H864 0.950 . S
C872 C873 1.386 . S
C872 C874 1.391 . S
C873 C872 1.386 . S
C873 C877 1.393 . S
C874 H866 0.950 . S
C874 C872 1.391 . S
C874 C875 1.400 . S
C875 C874 1.400 . S
C875 C876 1.398 . S
C875 C881 1.491 . S
C876 H867 0.950 . S
C876 C875 1.398 . S
C876 C877 1.391 . S
C877 H865 0.950 . S
C877 C873 1.393 . S
C877 C876 1.391 . S
C878 H868 0.950 . S
C878 C879 1.386 . S
C878 C880 1.391 . S
C879 C878 1.386 . S
C879 C883 1.393 . S
C880 H869 0.950 . S
C880 C878 1.391 . S
C880 C881 1.400 . S
C881 C875 1.491 . S
C881 C880 1.400 . S
C881 C882 1.398 . S
C882 H870 0.950 . S
C882 C881 1.398 . S
C882 C883 1.391 . S
C883 H871 0.950 . S
C883 C879 1.393 . S
C883 C882 1.391 . S
H884 C892 0.950 . S
H885 C897 0.950 . S
H886 C894 0.950 . S
H887 C896 0.950 . S
H888 C898 0.950 . S
H889 C900 0.950 . S
H890 C902 0.950 . S
H891 C903 0.950 . S
C892 H884 0.950 . S
C892 C893 1.386 . S
C892 C894 1.391 . S
C893 C892 1.386 . S
C893 C897 1.393 . S
C894 H886 0.950 . S
C894 C892 1.391 . S
C894 C895 1.400 . S
C895 C894 1.400 . S
C895 C896 1.398 . S
C895 C901 1.491 . S
C896 H887 0.950 . S
C896 C895 1.398 . S
C896 C897 1.391 . S
C897 H885 0.950 . S
C897 C893 1.393 . S
C897 C896 1.391 . S
C898 H888 0.950 . S
C898 C899 1.386 . S
C898 C900 1.391 . S
C899 C898 1.386 . S
C899 C903 1.393 . S
C900 H889 0.950 . S
C900 C898 1.391 . S
C900 C901 1.400 . S
C901 C895 1.491 . S
C901 C900 1.400 . S
C901 C902 1.398 . S
C902 H890 0.950 . S
C902 C901 1.398 . S
C902 C903 1.391 . S
C903 H891 0.950 . S
C903 C899 1.393 . S
C903 C902 1.391 . S
H904 C912 0.950 . S
H905 C917 0.950 . S
H906 C914 0.950 . S
H907 C916 0.950 . S
H908 C918 0.950 . S
H909 C920 0.950 . S
H910 C922 0.950 . S
H911 C923 0.950 . S
C912 H904 0.950 . S
C912 C913 1.386 . S
C912 C914 1.391 . S
C913 C912 1.386 . S
C913 C917 1.393 . S
C914 H906 0.950 . S
C914 C912 1.391 . S
C914 C915 1.400 . S
C915 C914 1.400 . S
C915 C916 1.398 . S
C915 C921 1.491 . S
C916 H907 0.950 . S
C916 C915 1.398 . S
C916 C917 1.391 . S
C917 H905 0.950 . S
C917 C913 1.393 . S
C917 C916 1.391 . S
C918 H908 0.950 . S
C918 C919 1.386 . S
C918 C920 1.391 . S
C919 C918 1.386 . S
C919 C923 1.393 . S
C920 H909 0.950 . S
C920 C918 1.391 . S
C920 C921 1.400 . S
C921 C915 1.491 . S
C921 C920 1.400 . S
C921 C922 1.398 . S
C922 H910 0.950 . S
C922 C921 1.398 . S
C922 C923 1.391 . S
C923 H911 0.950 . S
C923 C919 1.393 . S
C923 C922 1.391 . S
H924 C932 0.950 . S
H925 C937 0.950 . S
H926 C934 0.950 . S
H927 C936 0.950 . S
H928 C938 0.950 . S
H929 C940 0.950 . S
H930 C942 0.950 . S
H931 C943 0.950 . S
C932 H924 0.950 . S
C932 C933 1.386 . S
C932 C934 1.391 . S
C933 C932 1.386 . S
C933 C937 1.393 . S
C934 H926 0.950 . S
C934 C932 1.391 . S
C934 C935 1.400 . S
C935 C934 1.400 . S
C935 C936 1.398 . S
C935 C941 1.491 . S
C936 H927 0.950 . S
C936 C935 1.398 . S
C936 C937 1.391 . S
C937 H925 0.950 . S
C937 C933 1.393 . S
C937 C936 1.391 . S
C938 H928 0.950 . S
C938 C939 1.386 . S
C938 C940 1.391 . S
C939 C938 1.386 . S
C939 C943 1.393 . S
C940 H929 0.950 . S
C940 C938 1.391 . S
C940 C941 1.400 . S
C941 C935 1.491 . S
C941 C940 1.400 . S
C941 C942 1.398 . S
C942 H930 0.950 . S
C942 C941 1.398 . S
C942 C943 1.391 . S
C943 H931 0.950 . S
C943 C939 1.393 . S
C943 C942 1.391 . S
H944 C952 0.950 . S
H945 C957 0.950 . S
H946 C954 0.950 . S
H947 C956 0.950 . S
H948 C958 0.950 . S
H949 C960 0.950 . S
H950 C962 0.950 . S
H951 C963 0.950 . S
C952 H944 0.950 . S
C952 C953 1.386 . S
C952 C954 1.391 . S
C953 C952 1.386 . S
C953 C957 1.393 . S
C954 H946 0.950 . S
C954 C952 1.391 . S
C954 C955 1.400 . S
C955 C954 1.400 . S
C955 C956 1.398 . S
C955 C961 1.491 . S
C956 H947 0.950 . S
C956 C955 1.398 . S
C956 C957 1.391 . S
C957 H945 0.950 . S
C957 C953 1.393 . S
C957 C956 1.391 . S
C958 H948 0.950 . S
C958 C959 1.386 . S
C958 C960 1.391 . S
C959 C958 1.386 . S
C959 C963 1.393 . S
C960 H949 0.950 . S
C960 C958 1.391 . S
C960 C961 1.400 . S
C961 C955 1.491 . S
C961 C960 1.400 . S
C961 C962 1.398 . S
C962 H950 0.950 . S
C962 C961 1.398 . S
C962 C963 1.391 . S
C963 H951 0.950 . S
C963 C959 1.393 . S
C963 C962 1.391 . S
H964 C972 0.950 . S
H965 C977 0.950 . S
H966 C974 0.950 . S
H967 C976 0.950 . S
H968 C978 0.950 . S
H969 C980 0.950 . S
H970 C982 0.950 . S
H971 C983 0.950 . S
C972 H964 0.950 . S
C972 C973 1.386 . S
C972 C974 1.391 . S
C973 C972 1.386 . S
C973 C977 1.393 . S
C974 H966 0.950 . S
C974 C972 1.391 . S
C974 C975 1.400 . S
C975 C974 1.400 . S
C975 C976 1.398 . S
C975 C981 1.491 . S
C976 H967 0.950 . S
C976 C975 1.398 . S
C976 C977 1.391 . S
C977 H965 0.950 . S
C977 C973 1.393 . S
C977 C976 1.391 . S
C978 H968 0.950 . S
C978 C979 1.386 . S
C978 C980 1.391 . S
C979 C978 1.386 . S
C979 C983 1.393 . S
C980 H969 0.950 . S
C980 C978 1.391 . S
C980 C981 1.400 . S
C981 C975 1.491 . S
C981 C980 1.400 . S
C981 C982 1.398 . S
C982 H970 0.950 . S
C982 C981 1.398 . S
C982 C983 1.391 . S
C983 H971 0.950 . S
C983 C979 1.393 . S
C983 C982 1.391 . S
H984 C992 0.950 . S
H985 C997 0.950 . S
H986 C994 0.950 . S
H987 C996 0.950 . S
H988 C998 0.950 . S
H989 C1000 0.950 . S
H990 C1002 0.950 . S
H991 C1003 0.950 . S
C992 H984 0.950 . S
C992 C993 1.386 . S
C992 C994 1.391 . S
C993 C992 1.386 . S
C993 C997 1.393 . S
C994 H986 0.950 . S
C994 C992 1.391 . S
C994 C995 1.400 . S
C995 C994 1.400 . S
C995 C996 1.398 . S
C995 C1001 1.491 . S
C996 H987 0.950 . S
C996 C995 1.398 . S
C996 C997 1.391 . S
C997 H985 0.950 . S
C997 C993 1.393 . S
C997 C996 1.391 . S
C998 H988 0.950 . S
C998 C999 1.386 . S
C998 C1000 1.391 . S
C999 C998 1.386 . S
C999 C1003 1.393 . S
C1000 H989 0.950 . S
C1000 C998 1.391 . S
C1000 C1001 1.400 . S
C1001 C995 1.491 . S
C1001 C1000 1.400 . S
C1001 C1002 1.398 . S
C1002 H990 0.950 . S
C1002 C1001 1.398 . S
C1002 C1003 1.391 . S
C1003 H991 0.950 . S
C1003 C999 1.393 . S
C1003 C1002 1.391 . S
H1004 C1012 0.950 . S
H1005 C1017 0.950 . S
H1006 C1014 0.950 . S
H1007 C1016 0.950 . S
H1008 C1018 0.950 . S
H1009 C1020 0.950 . S
H1010 C1022 0.950 . S
H1011 C1023 0.950 . S
C1012 H1004 0.950 . S
C1012 C1013 1.386 . S
C1012 C1014 1.391 . S
C1013 C1012 1.386 . S
C1013 C1017 1.393 . S
C1014 H1006 0.950 . S
C1014 C1012 1.391 . S
C1014 C1015 1.400 . S
C1015 C1014 1.400 . S
C1015 C1016 1.398 . S
C1015 C1021 1.491 . S
C1016 H1007 0.950 . S
C1016 C1015 1.398 . S
C1016 C1017 1.391 . S
C1017 H1005 0.950 . S
C1017 C1013 1.393 . S
C1017 C1016 1.391 . S
C1018 H1008 0.950 . S
C1018 C1019 1.386 . S
C1018 C1020 1.391 . S
C1019 C1018 1.386 . S
C1019 C1023 1.393 . S
C1020 H1009 0.950 . S
C1020 C1018 1.391 . S
C1020 C1021 1.400 . S
C1021 C1015 1.491 . S
C1021 C1020 1.400 . S
C1021 C1022 1.398 . S
C1022 H1010 0.950 . S
C1022 C1021 1.398 . S
C1022 C1023 1.391 . S
C1023 H1011 0.950 . S
C1023 C1019 1.393 . S
C1023 C1022 1.391 . S
H1024 C1032 0.950 . S
H1025 C1037 0.950 . S
H1026 C1034 0.950 . S
H1027 C1036 0.950 . S
H1028 C1038 0.950 . S
H1029 C1040 0.950 . S
H1030 C1042 0.950 . S
H1031 C1043 0.950 . S
C1032 H1024 0.950 . S
C1032 C1033 1.386 . S
C1032 C1034 1.391 . S
C1033 C1032 1.386 . S
C1033 C1037 1.393 . S
C1034 H1026 0.950 . S
C1034 C1032 1.391 . S
C1034 C1035 1.400 . S
C1035 C1034 1.400 . S
C1035 C1036 1.398 . S
C1035 C1041 1.491 . S
C1036 H1027 0.950 . S
C1036 C1035 1.398 . S
C1036 C1037 1.391 . S
C1037 H1025 0.950 . S
C1037 C1033 1.393 . S
C1037 C1036 1.391 . S
C1038 H1028 0.950 . S
C1038 C1039 1.386 . S
C1038 C1040 1.391 . S
C1039 C1038 1.386 . S
C1039 C1043 1.393 . S
C1040 H1029 0.950 . S
C1040 C1038 1.391 . S
C1040 C1041 1.400 . S
C1041 C1035 1.491 . S
C1041 C1040 1.400 . S
C1041 C1042 1.398 . S
C1042 H1030 0.950 . S
C1042 C1041 1.398 . S
C1042 C1043 1.391 . S
C1043 H1031 0.950 . S
C1043 C1039 1.393 . S
C1043 C1042 1.391 . S
H1044 C1052 0.950 . S
H1045 C1057 0.950 . S
H1046 C1054 0.950 . S
H1047 C1056 0.950 . S
H1048 C1058 0.950 . S
H1049 C1060 0.950 . S
H1050 C1062 0.950 . S
H1051 C1063 0.950 . S
C1052 H1044 0.950 . S
C1052 C1053 1.386 . S
C1052 C1054 1.391 . S
C1053 C1052 1.386 . S
C1053 C1057 1.393 . S
C1054 H1046 0.950 . S
C1054 C1052 1.391 . S
C1054 C1055 1.400 . S
C1055 C1054 1.400 . S
C1055 C1056 1.398 . S
C1055 C1061 1.491 . S
C1056 H1047 0.950 . S
C1056 C1055 1.398 . S
C1056 C1057 1.391 . S
C1057 H1045 0.950 . S
C1057 C1053 1.393 . S
C1057 C1056 1.391 . S
C1058 H1048 0.950 . S
C1058 C1059 1.386 . S
C1058 C1060 1.391 . S
C1059 C1058 1.386 . S
C1059 C1063 1.393 . S
C1060 H1049 0.950 . S
C1060 C1058 1.391 . S
C1060 C1061 1.400 . S
C1061 C1055 1.491 . S
C1061 C1060 1.400 . S
C1061 C1062 1.398 . S
C1062 H1050 0.950 . S
C1062 C1061 1.398 . S
C1062 C1063 1.391 . S
C1063 H1051 0.950 . S
C1063 C1059 1.393 . S
C1063 C1062 1.391 . S
H1064 C1072 0.950 . S
H1065 C1077 0.950 . S
H1066 C1074 0.950 . S
H1067 C1076 0.950 . S
H1068 C1078 0.950 . S
H1069 C1080 0.950 . S
H1070 C1082 0.950 . S
H1071 C1083 0.950 . S
C1072 H1064 0.950 . S
C1072 C1073 1.386 . S
C1072 C1074 1.391 . S
C1073 C1072 1.386 . S
C1073 C1077 1.393 . S
C1074 H1066 0.950 . S
C1074 C1072 1.391 . S
C1074 C1075 1.400 . S
C1075 C1074 1.400 . S
C1075 C1076 1.398 . S
C1075 C1081 1.491 . S
C1076 H1067 0.950 . S
C1076 C1075 1.398 . S
C1076 C1077 1.391 . S
C1077 H1065 0.950 . S
C1077 C1073 1.393 . S
C1077 C1076 1.391 . S
C1078 H1068 0.950 . S
C1078 C1079 1.386 . S
C1078 C1080 1.391 . S
C1079 C1078 1.386 . S
C1079 C1083 1.393 . S
C1080 H1069 0.950 . S
C1080 C1078 1.391 . S
C1080 C1081 1.400 . S
C1081 C1075 1.491 . S
C1081 C1080 1.400 . S
C1081 C1082 1.398 . S
C1082 H1070 0.950 . S
C1082 C1081 1.398 . S
C1082 C1083 1.391 . S
C1083 H1071 0.950 . S
C1083 C1079 1.393 . S
C1083 C1082 1.391 . S
H1084 C1092 0.950 . S
H1085 C1097 0.950 . S
H1086 C1094 0.950 . S
H1087 C1096 0.950 . S
H1088 C1098 0.950 . S
H1089 C1100 0.950 . S
H1090 C1102 0.950 . S
H1091 C1103 0.950 . S
C1092 H1084 0.950 . S
C1092 C1093 1.386 . S
C1092 C1094 1.391 . S
C1093 C1092 1.386 . S
C1093 C1097 1.393 . S
C1094 H1086 0.950 . S
C1094 C1092 1.391 . S
C1094 C1095 1.400 . S
C1095 C1094 1.400 . S
C1095 C1096 1.398 . S
C1095 C1101 1.491 . S
C1096 H1087 0.950 . S
C1096 C1095 1.398 . S
C1096 C1097 1.391 . S
C1097 H1085 0.950 . S
C1097 C1093 1.393 . S
C1097 C1096 1.391 . S
C1098 H1088 0.950 . S
C1098 C1099 1.386 . S
C1098 C1100 1.391 . S
C1099 C1098 1.386 . S
C1099 C1103 1.393 . S
C1100 H1089 0.950 . S
C1100 C1098 1.391 . S
C1100 C1101 1.400 . S
C1101 C1095 1.491 . S
C1101 C1100 1.400 . S
C1101 C1102 1.398 . S
C1102 H1090 0.950 . S
C1102 C1101 1.398 . S
C1102 C1103 1.391 . S
C1103 H1091 0.950 . S
C1103 C1099 1.393 . S
C1103 C1102 1.391 . S
C633 C247 1.480 . S
C639 C362 1.467 . S
C659 C446 1.455 . S
C653 C283 1.479 . S
C679 C439 1.472 . S
C673 C175 1.474 . S
C693 C211 1.472 . S
C699 C355 1.465 . S
C719 C519 1.462 . S
C713 C103 1.460 . S
C739 C603 1.454 . S
C733 C139 1.462 . S
C753 C31 1.462 . S
C759 C596 1.468 . S
C773 C67 1.464 . S
C779 C512 1.471 . S
C799 C346 1.358 . S
C793 C37 1.513 1_554 S
C819 C430 1.327 . S
C813 C1 1.506 . S
C839 C441 1.394 . S
C833 C109 1.524 1_556 S
C859 C357 1.397 . S
C853 C73 1.534 . S
C879 C525 1.314 . S
C873 C181 1.519 1_556 S
C893 C145 1.522 . S
C899 C609 1.360 . S
C919 C598 1.422 . S
C913 C253 1.541 1_554 S
C933 C217 1.540 . S
C939 C514 1.395 . S
C959 C344 1.580 . S
C953 C25 1.547 . S
C979 C428 1.581 . S
C973 C61 1.550 . S
C993 C97 1.553 . S
C999 C435 1.550 . S
C1019 C351 1.553 . S
C1013 C133 1.541 . S
C1039 C523 1.576 . S
C1033 C169 1.570 . S
C1053 C205 1.573 . S
C1059 C607 1.578 . S
C1073 C241 1.557 . S
C1079 C614 1.563 . S
C1093 C277 1.566 . S
C1099 C530 1.551 . S
