# Generated by pormake.
# Topology pth, (4,4)-cn, num edge types: 1
# Building blocks:
#     Node 0, Type 0, BuildingBlock: KUFVIS_clean_sbu_0, # of connection points: 4
#     Node 1, Type 0, BuildingBlock: KUFVIS_clean_sbu_0, # of connection points: 4
#     Node 2, Type 0, BuildingBlock: KUFVIS_clean_sbu_0, # of connection points: 4
#     Node 3, Type 1, BuildingBlock: MIFKUJ_clean_linker_1, # of connection points: 4
#     Node 4, Type 1, BuildingBlock: MIFKUJ_clean_linker_1, # of connection points: 4
#     Node 5, Type 1, BuildingBlock: MIFKUJ_clean_linker_1, # of connection points: 4
#     Edge 6, Type (0, 1), BuildingBlock: EZIPEK_clean_linker_0, # of connection points: 2
#     Edge 7, Type (0, 1), BuildingBlock: EZIPEK_clean_linker_0, # of connection points: 2
#     Edge 8, Type (0, 1), BuildingBlock: EZIPEK_clean_linker_0, # of connection points: 2
#     Edge 9, Type (0, 1), BuildingBlock: EZIPEK_clean_linker_0, # of connection points: 2
#     Edge 10, Type (0, 1), BuildingBlock: EZIPEK_clean_linker_0, # of connection points: 2
#     Edge 11, Type (0, 1), BuildingBlock: EZIPEK_clean_linker_0, # of connection points: 2
#     Edge 12, Type (0, 1), BuildingBlock: EZIPEK_clean_linker_0, # of connection points: 2
#     Edge 13, Type (0, 1), BuildingBlock: EZIPEK_clean_linker_0, # of connection points: 2
#     Edge 14, Type (0, 1), BuildingBlock: EZIPEK_clean_linker_0, # of connection points: 2
#     Edge 15, Type (0, 1), BuildingBlock: EZIPEK_clean_linker_0, # of connection points: 2
#     Edge 16, Type (0, 1), BuildingBlock: EZIPEK_clean_linker_0, # of connection points: 2
#     Edge 17, Type (0, 1), BuildingBlock: EZIPEK_clean_linker_0, # of connection points: 2
# Relax obj value: 0.017
# Max RMSD: 0.085
# Mean RMSD: 0.063
data_MOF--net-pth--node1-KUFVIS_clean_sbu_0--node2-MIFKUJ_clean_linker_1--edge1-EZIPEK_clean_linker_0
_symmetry_space_group_name_H-M    P1
_symmetry_Int_Tables_number       1
_symmetry_cell_setting            triclinic
loop_
_symmetry_equiv_pos_as_xyz
'x, y, z'
_cell_length_a     22.634887
_cell_length_b     22.653019
_cell_length_c     49.877909
_cell_angle_alpha  90.372935
_cell_angle_beta   91.954352
_cell_angle_gamma 120.15112
loop_
_atom_site_label
_atom_site_type_symbol
_atom_site_fract_x
_atom_site_fract_y
_atom_site_fract_z
_atom_type_partial_charge
Mn0 Mn 0.04618 0.06771 0.04048 0.0
Mn1 Mn 0.9618 0.13388 0.00659 0.0
C2 C 0.97849 0.0109 1.00241 0.0
C3 C 0.04829 0.9977 0.07428 0.0
C4 C 0.11486 0.19042 0.00412 0.0
O5 O 0.04841 0.13708 0.06725 0.0
O6 O 0.98045 0.16883 0.04494 0.0
C7 C 0.82933 0.06902 0.03324 0.0
N8 N 0.86535 0.07817 0.01088 0.0
C9 C 0.76213 1.00439 0.98464 0.0
C10 C 0.72436 0.99259 0.00768 0.0
C11 C 0.75812 0.02542 0.03206 0.0
C12 C 0.83311 0.04796 0.98715 0.0
H13 H 0.8547 0.09557 0.05165 0.0
C14 C 0.01686 0.17054 0.06569 0.0
O15 O 0.10455 0.04666 0.06513 0.0
O16 O 0.9914 0.99117 0.06464 0.0
N17 N 0.9413 0.10361 0.96968 0.0
C18 C 0.9846 0.1229 0.949 0.0
C19 C 0.95838 0.09766 0.92289 0.0
C20 C 0.8879 0.05319 0.91824 0.0
C21 C 0.84421 0.03479 0.93974 0.0
C22 C 0.8732 0.06219 0.96528 0.0
H23 H 0.03882 0.15725 0.95232 0.0
O24 O 0.02621 0.99904 0.01093 0.0
O25 O 0.97295 0.05653 0.01626 0.0
O26 O 0.11831 0.14573 0.01856 0.0
O27 O 0.05999 0.19253 0.99979 0.0
C28 C 0.77303 0.99041 0.9368 0.0
C29 C 0.73204 0.97497 0.95926 0.0
H30 H 0.66937 0.95919 0.00679 0.0
H31 H 0.72926 0.01759 0.04986 0.0
H32 H 0.99245 0.11225 0.9064 0.0
H33 H 0.86792 0.03341 0.89811 0.0
H34 H 0.74928 0.96789 0.91734 0.0
H35 H 0.67733 0.94084 0.95675 0.0
Mn36 Mn 0.01964 0.0581 0.37502 0.0
Mn37 Mn 0.1106 0.20724 0.40998 0.0
C38 C 0.09668 0.06754 0.40888 0.0
C39 C 0.00637 0.98635 0.33873 0.0
C40 C 0.96022 0.10704 0.41852 0.0
O41 O 0.0084 0.12603 0.35168 0.0
O42 O 0.07969 0.2244 0.37453 0.0
C43 C 0.23084 0.28111 0.37659 0.0
N44 N 0.20418 0.2555 0.4007 0.0
C45 C 0.31604 0.31052 0.42268 0.0
C46 C 0.34477 0.33754 0.39808 0.0
C47 C 0.302 0.32234 0.3749 0.0
C48 C 0.24489 0.26909 0.42304 0.0
H49 H 0.19799 0.27051 0.35884 0.0
C50 C 0.03964 0.1911 0.35435 0.0
O51 O 0.95399 0.97886 0.35141 0.0
O52 O 0.06571 0.03763 0.34603 0.0
N53 N 0.14456 0.19818 0.44447 0.0
C54 C 0.10948 0.1609 0.46565 0.0
C55 C 0.14508 0.16585 0.48995 0.0
C56 C 0.21631 0.20935 0.49226 0.0
C57 C 0.25147 0.24633 0.47004 0.0
C58 C 0.21332 0.23844 0.44623 0.0
H59 H 0.05503 0.12643 0.46375 0.0
O60 O 0.04753 0.0084 0.40029 0.0
O61 O 0.10013 0.12029 0.39697 0.0
O62 O 0.95465 0.05997 0.40256 0.0
O63 O 0.01556 0.16399 0.42164 0.0
C64 C 0.32298 0.28973 0.4704 0.0
C65 C 0.35522 0.32222 0.44677 0.0
H66 H 0.3996 0.36961 0.39672 0.0
H67 H 0.3238 0.34292 0.35585 0.0
H68 H 0.11769 0.13611 0.50684 0.0
H69 H 0.2436 0.21309 0.51104 0.0
H70 H 0.35381 0.29738 0.48859 0.0
H71 H 0.41034 0.35445 0.44716 0.0
Mn72 Mn 0.05978 0.06813 0.70777 0.0
Mn73 Mn 0.97608 0.12544 0.74529 0.0
C74 C 0.11294 0.13327 0.74652 0.0
C75 C 0.13181 0.08181 0.67308 0.0
C76 C 0.94386 0.97822 0.74419 0.0
O77 O 0.98353 0.05845 0.68213 0.0
O78 O 0.9376 0.10788 0.70715 0.0
C79 C 0.01049 0.2584 0.72206 0.0
N80 N 0.01342 0.22205 0.74314 0.0
C81 C 0.06234 0.32202 0.77236 0.0
C82 C 0.06194 0.36081 0.75065 0.0
C83 C 0.03576 0.32878 0.72539 0.0
C84 C 0.03742 0.25223 0.76769 0.0
H85 H 0.98756 0.23356 0.70309 0.0
C86 C 0.94159 0.0798 0.68524 0.0
O87 O 0.08894 0.02178 0.68164 0.0
O88 O 0.13091 0.13369 0.68376 0.0
N89 N 0.00989 0.14422 0.78194 0.0
C90 C 0.00722 0.09981 0.80084 0.0
C91 C 0.03278 0.12408 0.8271 0.0
C92 C 0.05986 0.19349 0.83379 0.0
C93 C 0.0613 0.23806 0.81411 0.0
C94 C 0.036 0.21112 0.78817 0.0
H95 H 0.98617 0.04631 0.79593 0.0
O96 O 0.13228 0.09301 0.73648 0.0
O97 O 0.06185 0.13341 0.73371 0.0
O98 O 0.99075 0.98548 0.72876 0.0
O99 O 0.93292 0.02642 0.75036 0.0
C100 C 0.08668 0.30812 0.81925 0.0
C101 C 0.08659 0.34995 0.79845 0.0
H102 H 0.08094 0.41503 0.75322 0.0
H103 H 0.03399 0.35804 0.70863 0.0
H104 H 0.03134 0.08928 0.84217 0.0
H105 H 0.0792 0.21196 0.8541 0.0
H106 H 0.10638 0.33037 0.83913 0.0
H107 H 0.10623 0.40376 0.80264 0.0
H108 H 0.10906 0.53753 0.15321 0.0
H109 H 0.10568 0.44976 0.12366 0.0
H110 H 0.95727 0.29347 0.17295 0.0
H111 H 0.95117 0.38029 0.19964 0.0
H112 H 0.03443 0.57872 0.15949 0.0
H113 H 0.12218 0.4925 0.23264 0.0
H114 H 0.12394 0.40887 0.26345 0.0
H115 H 0.91489 0.34012 0.28216 0.0
H116 H 0.91401 0.42532 0.2522 0.0
H117 H 0.91054 0.6125 0.25137 0.0
H118 H 0.90475 0.70143 0.27766 0.0
H119 H 0.10652 0.85025 0.25383 0.0
H120 H 0.11225 0.76145 0.22734 0.0
H121 H 1.00502 0.56853 0.2576 0.0
H122 H 0.93528 0.67723 0.19072 0.0
H123 H 0.94402 0.77109 0.16353 0.0
H124 H 0.13328 0.80255 0.133 0.0
H125 H 0.12604 0.71021 0.16078 0.0
C126 C 0.03084 0.46677 0.17924 0.0
C127 C 0.07464 0.48451 0.15759 0.0
C128 C 0.07347 0.43424 0.14079 0.0
C129 C 0.03117 0.36468 0.14594 0.0
C130 C 0.99023 0.3467 0.1684 0.0
C131 C 0.98808 0.39687 0.18418 0.0
C132 C 0.02681 0.5213 0.19501 0.0
C133 C 0.02997 0.57686 0.18108 0.0
C134 C 0.01798 0.51878 0.22315 0.0
C135 C 0.01796 0.46508 0.24013 0.0
C136 C 0.07665 0.45915 0.24326 0.0
C137 C 0.07762 0.41148 0.26079 0.0
C138 C 0.01956 0.36829 0.27514 0.0
C139 C 0.96025 0.37296 0.27135 0.0
C140 C 0.95981 0.42157 0.25432 0.0
C141 C 0.01175 0.68035 0.23737 0.0
C142 C 0.95338 0.66431 0.25167 0.0
C143 C 0.94987 0.71499 0.26649 0.0
C144 C 1.00506 0.78236 0.26754 0.0
C145 C 0.06324 0.79867 0.25307 0.0
C146 C 0.06653 0.74805 0.23806 0.0
C147 C 0.01558 0.62593 0.22209 0.0
C148 C 0.0113 0.57039 0.23609 0.0
C149 C 0.02544 0.6295 0.19419 0.0
C150 C 0.03041 0.68692 0.17807 0.0
C151 C 0.97939 0.70504 0.17862 0.0
C152 C 0.9842 0.75843 0.16308 0.0
C153 C 0.03952 0.79385 0.14646 0.0
C154 C 0.09049 0.776 0.14587 0.0
C155 C 0.08604 0.72308 0.16157 0.0
H156 H 0.63678 0.12697 0.49149 0.0
H157 H 0.72839 0.13397 0.46464 0.0
H158 H 0.70059 0.94741 0.49846 0.0
H159 H 0.609 0.94109 0.52611 0.0
H160 H 0.49848 0.01534 0.49302 0.0
H161 H 0.71163 0.11987 0.54744 0.0
H162 H 0.80445 0.12337 0.57528 0.0
H163 H 0.65831 0.98836 0.631 0.0
H164 H 0.56479 0.97887 0.60182 0.0
H165 H 0.39391 0.97955 0.59616 0.0
H166 H 0.31408 0.99613 0.62277 0.0
H167 H 0.36037 0.17653 0.57878 0.0
H168 H 0.44187 0.16081 0.55228 0.0
H169 H 0.5317 0.0661 0.59066 0.0
H170 H 0.32272 1.00148 0.53988 0.0
H171 H 0.24324 0.02338 0.51453 0.0
H172 H 0.36962 0.07168 0.44604 0.0
H173 H 0.46029 0.07649 0.47416 0.0
C174 C 0.61656 0.03384 0.51094 0.0
C175 C 0.64998 0.08724 0.49307 0.0
C176 C 0.70211 0.09124 0.47774 0.0
C177 C 0.72122 0.04136 0.47963 0.0
C178 C 0.68636 0.98634 0.49678 0.0
C179 C 0.63454 0.98288 0.51256 0.0
C180 C 0.56355 0.03365 0.52766 0.0
C181 C 0.50561 0.02863 0.51424 0.0
C182 C 0.57246 0.04545 0.55577 0.0
C183 C 0.63037 0.0477 0.572 0.0
C184 C 0.69887 0.08877 0.56502 0.0
C185 C 0.7522 0.09177 0.58118 0.0
C186 C 0.73844 0.05656 0.60537 0.0
C187 C 0.67024 0.01604 0.61248 0.0
C188 C 0.61688 0.01099 0.59584 0.0
C189 C 0.42329 0.06853 0.57205 0.0
C190 C 0.38748 0.02307 0.59235 0.0
C191 C 0.34176 0.03226 0.60743 0.0
C192 C 0.33111 0.08712 0.60254 0.0
C193 C 0.36781 0.13367 0.58266 0.0
C194 C 0.41423 0.12481 0.56766 0.0
C195 C 0.46896 0.05535 0.5555 0.0
C196 C 0.52447 0.05551 0.56918 0.0
C197 C 0.45836 0.04119 0.52726 0.0
C198 C 0.40174 0.04168 0.51036 0.0
C199 C 0.33724 0.02309 0.52036 0.0
C200 C 0.2895 0.03245 0.50521 0.0
C201 C 0.29981 0.05017 0.47809 0.0
C202 C 0.36045 0.06044 0.46707 0.0
C203 C 0.41208 0.06071 0.48326 0.0
H204 H 0.40382 0.3749 0.87963 0.0
H205 H 0.30119 0.28888 0.8555 0.0
H206 H 0.36638 0.40802 0.78414 0.0
H207 H 0.45547 0.5027 0.81014 0.0
H208 H 0.55927 0.54072 0.82836 0.0
H209 H 0.50519 0.45725 0.93307 0.0
H210 H 0.4146 0.37906 0.96206 0.0
H211 H 0.26902 0.41489 0.91788 0.0
H212 H 0.36009 0.49373 0.88871 0.0
H213 H 0.60118 0.73752 0.90969 0.0
H214 H 0.69319 0.83545 0.93533 0.0
H215 H 0.82751 0.75468 0.92388 0.0
H216 H 0.73614 0.65788 0.89748 0.0
H217 H 0.54811 0.5969 0.92342 0.0
H218 H 0.64624 0.74695 0.8526 0.0
H219 H 0.73201 0.82694 0.82262 0.0
H220 H 0.77624 0.67102 0.7979 0.0
H221 H 0.69124 0.59078 0.82857 0.0
C222 C 0.43751 0.44893 0.84777 0.0
C223 C 0.39396 0.38579 0.8595 0.0
C224 C 0.3361 0.33466 0.84524 0.0
C225 C 0.32498 0.34128 0.81778 0.0
C226 C 0.37209 0.40144 0.80538 0.0
C227 C 0.42489 0.45548 0.82035 0.0
C228 C 0.49612 0.50841 0.8631 0.0
C229 C 0.55503 0.55268 0.84901 0.0
C230 C 0.49438 0.52499 0.89063 0.0
C231 C 0.43912 0.48059 0.90855 0.0
C232 C 0.45393 0.44882 0.92974 0.0
C233 C 0.40243 0.40429 0.94624 0.0
C234 C 0.33537 0.39129 0.94203 0.0
C235 C 0.32064 0.42452 0.92139 0.0
C236 C 0.37234 0.46922 0.90478 0.0
C237 C 0.66204 0.69065 0.90176 0.0
C238 C 0.65073 0.74144 0.91243 0.0
C239 C 0.70315 0.79731 0.9269 0.0
C240 C 0.76706 0.80221 0.9315 0.0
C241 C 0.77863 0.75189 0.92046 0.0
C242 C 0.72664 0.69677 0.90549 0.0
C243 C 0.60543 0.62959 0.88774 0.0
C244 C 0.54918 0.58489 0.9024 0.0
C245 C 0.60829 0.61383 0.8606 0.0
C246 C 0.663 0.66302 0.84328 0.0
C247 C 0.67534 0.73014 0.84127 0.0
C248 C 0.72387 0.77569 0.82401 0.0
C249 C 0.76061 0.75492 0.8082 0.0
C250 C 0.74862 0.68799 0.8101 0.0
C251 C 0.70012 0.64234 0.82752 0.0
C252 C 0.96274 0.20438 0.10103 0.0
C253 C 0.0228 0.21465 0.08914 0.0
C254 C 0.08941 0.31247 0.1202 0.0
C255 C 0.02828 0.31105 0.12725 0.0
N256 N 0.90591 0.26075 0.11876 0.0
N257 N 0.14562 0.28317 0.08649 0.0
C258 C 0.96449 0.25828 0.11618 0.0
C259 C 0.08707 0.26986 0.09854 0.0
N260 N 0.90494 0.14186 0.0992 0.0
N261 N 0.14908 0.35228 0.13475 0.0
H262 H 0.14656 0.2529 0.07088 0.0
H263 H 0.1925 0.32733 0.0907 0.0
H264 H 0.15198 0.3811 0.15166 0.0
H265 H 0.19358 0.35057 0.13186 0.0
H266 H 0.86076 0.13069 0.10908 0.0
H267 H 0.90524 0.0995 0.09098 0.0
H268 H 0.85962 0.22525 0.10915 0.0
H269 H 0.90512 0.30207 0.12766 0.0
C270 C 0.83214 0.0584 0.42089 0.0
C271 C 0.89875 0.09502 0.43376 0.0
C272 C 0.84618 0.08445 0.47721 0.0
C273 C 0.78046 0.05042 0.46435 0.0
N274 N 0.7088 0.00754 0.42412 0.0
N275 N 0.96475 0.16656 0.47279 0.0
C276 C 0.77287 0.0377 0.4362 0.0
C277 C 0.90494 0.11474 0.46151 0.0
N278 N 0.82574 0.04638 0.39374 0.0
N279 N 0.85283 0.08913 0.50462 0.0
H280 H 0.00734 0.19874 0.46224 0.0
H281 H 0.96905 0.18566 0.49226 0.0
H282 H 0.81132 0.07056 0.51699 0.0
H283 H 0.89933 0.10554 0.51512 0.0
H284 H 0.78026 0.01208 0.38347 0.0
H285 H 0.86643 0.07194 0.38114 0.0
H286 H 0.69876 1.00275 0.40349 0.0
H287 H 0.66455 0.98844 0.435 0.0
C288 C 0.82741 0.87695 0.75061 0.0
C289 C 0.89912 0.91118 0.75644 0.0
C290 C 0.88083 0.83773 0.79499 0.0
C291 C 0.80937 0.80326 0.78889 0.0
N292 N 0.7162 0.77765 0.75733 0.0
N293 N 0.99526 0.91426 0.78032 0.0
C294 C 0.78324 0.81889 0.76547 0.0
C295 C 0.92623 0.88788 0.77725 0.0
N296 N 0.80118 0.90147 0.7315 0.0
N297 N 0.90503 0.82528 0.8185 0.0
H298 H 0.03012 0.9516 0.76804 0.0
H299 H 0.01771 0.89487 0.79343 0.0
H300 H 0.87351 0.78846 0.83182 0.0
H301 H 0.95547 0.85457 0.82579 0.0
H302 H 0.74918 0.88417 0.72862 0.0
H303 H 0.83181 0.94239 0.71955 0.0
H304 H 0.69552 0.78217 0.73901 0.0
H305 H 0.68256 0.73466 0.76778 0.0
C306 C 0.01766 0.8774 0.08382 0.0
C307 C 0.04801 0.94659 0.09286 0.0
C308 C 0.07711 0.91658 0.13668 0.0
C309 C 0.04192 0.84673 0.12825 0.0
N310 N 0.97075 0.75875 0.09534 0.0
N311 N 0.09915 0.03152 0.12864 0.0
C312 C 0.00979 0.82662 0.10226 0.0
C313 C 0.07609 0.96619 0.11948 0.0
N314 N 0.99924 0.86063 0.05724 0.0
N315 N 0.11223 0.93544 0.16098 0.0
H316 H 0.09929 0.06904 0.11658 0.0
H317 H 0.11345 0.04746 0.1486 0.0
H318 H 0.11195 0.90022 0.17442 0.0
H319 H 0.14513 0.98597 0.16715 0.0
H320 H 0.98408 0.8127 0.04881 0.0
H321 H 1.00502 0.89626 0.04294 0.0
H322 H 0.93916 0.74053 0.07802 0.0
H323 H 0.96573 0.71993 0.10786 0.0
C324 C 0.12862 0.0243 0.4497 0.0
C325 C 0.14967 0.07003 0.4281 0.0
C326 C 0.26858 0.111 0.44241 0.0
C327 C 0.24762 0.05763 0.46118 0.0
N328 N 0.15419 0.94846 0.47443 0.0
N329 N 0.24144 0.13916 0.39886 0.0
C330 C 0.17652 0.01 0.4627 0.0
C331 C 0.22022 0.1083 0.42284 0.0
N332 N 0.06296 0.99408 0.45782 0.0
N333 N 0.33373 0.16527 0.44356 0.0
H334 H 0.20776 0.13521 0.38326 0.0
H335 H 0.29233 0.1626 0.39354 0.0
H336 H 0.36784 0.17485 0.45981 0.0
H337 H 0.35096 0.2047 0.43 0.0
H338 H 0.04728 0.96444 0.47486 0.0
H339 H 0.02672 0.00488 0.44939 0.0
H340 H 0.10272 0.91062 0.47406 0.0
H341 H 0.18718 0.93159 0.48112 0.0
C342 C 0.18641 0.16619 0.78888 0.0
C343 C 0.15861 0.18587 0.76713 0.0
C344 C 0.22756 0.30453 0.7832 0.0
C345 C 0.26459 0.28635 0.80172 0.0
N346 N 0.28907 0.19819 0.81572 0.0
N347 N 0.17165 0.27871 0.73924 0.0
C348 C 0.2465 0.21654 0.80305 0.0
C349 C 0.18433 0.25649 0.76296 0.0
N350 N 0.15616 0.0994 0.79585 0.0
N351 N 0.233 0.36725 0.78497 0.0
H352 H 0.14422 0.24628 0.72297 0.0
H353 H 0.19479 0.33032 0.73478 0.0
H354 H 0.25782 0.40094 0.80126 0.0
H355 H 0.20658 0.38245 0.77189 0.0
H356 H 0.17152 0.08363 0.81299 0.0
H357 H 0.1113 0.0614 0.78622 0.0
H358 H 0.27995 0.14826 0.81516 0.0
H359 H 0.33752 0.23353 0.82367 0.0
C360 C 0.84405 0.00764 0.65174 0.0
C361 C 0.89539 0.07288 0.66194 0.0
C362 C 0.84551 0.12742 0.63464 0.0
C363 C 0.79506 0.06269 0.62367 0.0
N364 N 0.75892 0.94368 0.61618 0.0
N365 N 0.9607 0.19303 0.65372 0.0
C366 C 0.79807 1.00338 0.63055 0.0
C367 C 0.90091 0.13236 0.65059 0.0
N368 N 0.83817 0.94978 0.66255 0.0
N369 N 0.83935 0.18383 0.63102 0.0
H370 H 1.00419 0.1965 0.66324 0.0
H371 H 0.9693 0.23716 0.64404 0.0
H372 H 0.79785 0.18234 0.62064 0.0
H373 H 0.87205 0.2306 0.64076 0.0
H374 H 0.79653 0.90121 0.65832 0.0
H375 H 0.87306 0.95054 0.67691 0.0
H376 H 0.76361 0.90056 0.61858 0.0
H377 H 0.72662 0.93939 0.59993 0.0
C378 C 0.93761 0.9533 0.95678 0.0
C379 C 0.92323 0.96061 0.9837 0.0
C380 C 0.80874 0.8596 0.977 0.0
C381 C 0.8205 0.85757 0.94933 0.0
N382 N 0.89179 0.90916 0.91181 0.0
N383 N 0.8427 0.92298 0.01925 0.0
C384 C 0.88387 0.90616 0.93892 0.0
C385 C 0.85787 0.91483 0.99367 0.0
N386 N 1.00272 0.99108 0.94827 0.0
N387 N 0.75272 0.80628 0.98779 0.0
H388 H 0.87825 0.95806 0.03329 0.0
H389 H 0.79318 0.89777 0.0261 0.0
H390 H 0.71659 0.76349 0.97658 0.0
H391 H 0.7453 0.80084 0.00831 0.0
H392 H 0.01798 0.9824 0.92991 0.0
H393 H 0.04258 0.0287 0.96028 0.0
H394 H 0.9343 0.94788 0.9028 0.0
H395 H 0.85295 0.87668 0.89805 0.0
C396 C 1.00144 0.9411 0.29191 0.0
C397 C 1.00091 0.93245 0.32006 0.0
C398 C 0.00856 0.82909 0.31367 0.0
C399 C 1.00379 0.83456 0.28545 0.0
N400 N 0.98568 0.88958 0.24742 0.0
N401 N 0.99131 0.86199 0.35766 0.0
C402 C 0.99753 0.88898 0.27445 0.0
C403 C 1.00036 0.87439 0.33089 0.0
N404 N 0.00641 0.99941 0.28195 0.0
N405 N 0.02421 0.78261 0.32407 0.0
H406 H 0.98624 0.89432 0.37114 0.0
H407 H 0.98269 0.81659 0.36615 0.0
H408 H 0.03176 0.74911 0.31219 0.0
H409 H 0.03613 0.78147 0.34434 0.0
H410 H 0.01489 0.01267 0.26193 0.0
H411 H 1.00593 0.03675 0.29414 0.0
H412 H 0.97383 0.92384 0.23837 0.0
H413 H 0.9825 0.85227 0.2341 0.0
C414 C 0.25407 0.12496 0.66199 0.0
C415 C 0.18372 0.09092 0.6536 0.0
C416 C 0.21089 0.06002 0.61033 0.0
C417 C 0.28121 0.09491 0.61862 0.0
N418 N 0.37185 0.17227 0.64954 0.0
N419 N 0.09638 0.03826 0.61832 0.0
C420 C 0.30341 0.13138 0.64355 0.0
C421 C 0.16248 0.06205 0.62728 0.0
N422 N 0.27342 0.14749 0.68807 0.0
N423 N 0.19035 0.02339 0.58658 0.0
H424 H 0.05996 0.03952 0.63021 0.0
H425 H 0.07889 0.02264 0.59854 0.0
H426 H 0.22468 0.02334 0.57315 0.0
H427 H 0.13939 0.99025 0.58074 0.0
H428 H 0.32254 0.16506 0.69625 0.0
H429 H 0.23927 0.14386 0.70234 0.0
H430 H 0.39148 0.20601 0.66603 0.0
H431 H 0.40937 0.17691 0.63673 0.0
C432 C 0.20277 0.22029 0.96923 0.0
C433 C 0.17661 0.24178 0.99037 0.0
C434 C 0.25934 0.3618 0.98132 0.0
C435 C 0.28017 0.34015 0.95858 0.0
N436 N 0.26602 0.25001 0.92844 0.0
N437 N 0.17609 0.33289 0.01554 0.0
C438 C 0.25047 0.26968 0.95192 0.0
C439 C 0.20387 0.31261 0.99613 0.0
N440 N 0.18237 0.15272 0.96567 0.0
N441 N 0.2938 0.42928 0.98913 0.0
H442 H 0.13848 0.29878 0.02795 0.0
H443 H 0.18756 0.38315 0.01849 0.0
H444 H 0.33359 0.46679 0.97841 0.0
H445 H 0.28654 0.44764 0.00716 0.0
H446 H 0.20511 0.13484 0.95259 0.0
H447 H 0.14664 0.11452 0.97739 0.0
H448 H 0.24007 0.2001 0.9207 0.0
H449 H 0.30125 0.28455 0.91536 0.0
C450 C 0.04308 0.22688 0.30614 0.0
C451 C 0.02887 0.23166 0.33335 0.0
C452 C 0.01407 0.32915 0.32272 0.0
C453 C 0.02172 0.32031 0.29508 0.0
N454 N 0.02849 0.25072 0.25983 0.0
N455 N 0.98342 0.27601 0.36585 0.0
C456 C 0.03167 0.26605 0.28657 0.0
C457 C 0.00907 0.27941 0.34112 0.0
N458 N 0.07084 0.18787 0.29911 0.0
N459 N 0.01471 0.38661 0.33171 0.0
H460 H 0.97651 0.23867 0.37954 0.0
H461 H 0.9621 0.30539 0.37154 0.0
H462 H 0.02079 0.42571 0.31914 0.0
H463 H 0.01632 0.39871 0.35201 0.0
H464 H 0.08867 0.18815 0.28011 0.0
H465 H 0.08212 0.16014 0.31289 0.0
H466 H 0.02855 0.2075 0.25259 0.0
H467 H 0.01908 0.27746 0.24494 0.0
loop_
_geom_bond_atom_site_label_1
_geom_bond_atom_site_label_2
_geom_bond_distance
_geom_bond_site_symmetry_2
_ccdc_geom_bond_type
Mn0 O5 2.095 . S
Mn0 O15 2.162 . S
Mn0 O16 2.297 1_445 S
Mn0 O24 2.384 1_445 S
Mn0 O25 2.209 1_455 S
Mn0 O26 2.094 . S
Mn1 O6 2.121 . S
Mn1 N8 2.257 . S
Mn1 N17 2.282 1_554 S
Mn1 O25 2.215 . S
Mn1 O27 2.117 1_654 S
C2 O24 1.248 . S
C2 O25 1.283 1_565 S
C3 O15 1.281 1_565 S
C3 O16 1.236 1_455 S
C4 O26 1.249 . S
C4 O27 1.262 1_554 S
O5 Mn0 2.095 . S
O5 C14 1.250 . S
O6 Mn1 2.121 . S
O6 C14 1.258 1_655 S
C7 N8 1.326 . S
C7 C11 1.460 . S
C7 H13 0.929 . S
N8 Mn1 2.257 . S
N8 C7 1.326 . S
N8 C12 1.362 1_554 S
C9 C10 1.258 . S
C9 C12 1.431 . S
C9 C29 1.449 . S
C10 C9 1.258 . S
C10 C11 1.477 1_556 S
C10 H30 0.931 . S
C11 C7 1.460 . S
C11 C10 1.477 1_554 S
C11 H31 0.930 . S
C12 N8 1.362 1_556 S
C12 C9 1.431 . S
C12 C22 1.476 . S
H13 C7 0.929 . S
C14 O5 1.250 . S
C14 O6 1.258 1_455 S
O15 Mn0 2.162 . S
O15 C3 1.281 1_545 S
O16 Mn0 2.297 1_665 S
O16 C3 1.236 1_655 S
N17 Mn1 2.282 1_556 S
N17 C18 1.328 . S
N17 C22 1.318 . S
C18 N17 1.328 . S
C18 C19 1.457 . S
C18 H23 0.929 1_655 S
C19 C18 1.457 . S
C19 C20 1.291 . S
C19 H32 0.931 . S
C20 C19 1.291 . S
C20 C21 1.373 . S
C20 H33 0.929 . S
C21 C20 1.373 . S
C21 C22 1.396 . S
C21 C28 1.403 . S
C22 C12 1.476 . S
C22 N17 1.318 . S
C22 C21 1.396 . S
H23 C18 0.929 1_455 S
O24 Mn0 2.384 1_665 S
O24 C2 1.248 . S
O25 Mn0 2.209 1_655 S
O25 Mn1 2.215 . S
O25 C2 1.283 1_545 S
O26 Mn0 2.094 . S
O26 C4 1.249 . S
O27 Mn1 2.117 1_456 S
O27 C4 1.262 1_556 S
C28 C21 1.403 . S
C28 C29 1.399 . S
C28 H34 0.929 . S
C29 C9 1.449 . S
C29 C28 1.399 . S
C29 H35 0.930 . S
H30 C10 0.931 . S
H31 C11 0.930 . S
H32 C19 0.931 . S
H33 C20 0.929 . S
H34 C28 0.929 . S
H35 C29 0.930 . S
Mn36 O41 2.095 . S
Mn36 O51 2.162 1_545 S
Mn36 O52 2.297 1_655 S
Mn36 O60 2.385 1_655 S
Mn36 O61 2.209 1_655 S
Mn36 O62 2.094 . S
Mn37 O42 2.121 . S
Mn37 N44 2.257 . S
Mn37 N53 2.282 . S
Mn37 O61 2.215 . S
Mn37 O63 2.117 1_455 S
C38 O60 1.234 . S
C38 O61 1.283 . S
C39 O51 1.281 1_455 S
C39 O52 1.236 1_565 S
C40 O62 1.240 . S
C40 O63 1.264 . S
O41 Mn36 2.095 . S
O41 C50 1.250 1_655 S
O42 Mn37 2.121 . S
O42 C50 1.258 . S
C43 N44 1.326 . S
C43 C47 1.460 . S
C43 H49 0.929 . S
N44 Mn37 2.257 . S
N44 C43 1.326 . S
N44 C48 1.362 . S
C45 C46 1.258 . S
C45 C48 1.431 . S
C45 C65 1.449 . S
C46 C45 1.258 . S
C46 C47 1.477 . S
C46 H66 0.931 . S
C47 C43 1.460 . S
C47 C46 1.477 . S
C47 H67 0.930 . S
C48 N44 1.362 . S
C48 C45 1.431 . S
C48 C58 1.476 . S
H49 C43 0.929 . S
C50 O41 1.250 1_455 S
C50 O42 1.258 . S
O51 Mn36 2.162 1_565 S
O51 C39 1.281 1_655 S
O52 Mn36 2.297 1_455 S
O52 C39 1.236 1_545 S
N53 Mn37 2.282 . S
N53 C54 1.328 . S
N53 C58 1.318 . S
C54 N53 1.328 . S
C54 C55 1.457 . S
C54 H59 0.929 . S
C55 C54 1.457 . S
C55 C56 1.291 . S
C55 H68 0.931 . S
C56 C55 1.291 . S
C56 C57 1.373 . S
C56 H69 0.929 . S
C57 C56 1.373 . S
C57 C58 1.396 . S
C57 C64 1.403 . S
C58 C48 1.476 . S
C58 N53 1.318 . S
C58 C57 1.396 . S
H59 C54 0.929 . S
O60 Mn36 2.385 1_455 S
O60 C38 1.234 . S
O61 Mn36 2.209 1_455 S
O61 Mn37 2.215 . S
O61 C38 1.283 . S
O62 Mn36 2.094 . S
O62 C40 1.240 . S
O63 Mn37 2.117 1_655 S
O63 C40 1.264 . S
C64 C57 1.403 . S
C64 C65 1.399 . S
C64 H70 0.929 . S
C65 C45 1.449 . S
C65 C64 1.399 . S
C65 H71 0.930 . S
H66 C46 0.931 . S
H67 C47 0.930 . S
H68 C55 0.931 . S
H69 C56 0.929 . S
H70 C64 0.929 . S
H71 C65 0.930 . S
Mn72 O77 2.095 1_455 S
Mn72 O87 2.162 1_545 S
Mn72 O88 2.297 . S
Mn72 O96 2.385 . S
Mn72 O97 2.209 . S
Mn72 O98 2.094 1_445 S
Mn73 O78 2.121 . S
Mn73 N80 2.257 . S
Mn73 N89 2.282 . S
Mn73 O97 2.215 1_655 S
Mn73 O99 2.117 . S
C74 O96 1.234 . S
C74 O97 1.283 . S
C75 O87 1.282 1_545 S
C75 O88 1.236 . S
C76 O98 1.240 . S
C76 O99 1.264 1_565 S
O77 Mn72 2.095 1_655 S
O77 C86 1.250 . S
O78 Mn73 2.121 . S
O78 C86 1.258 . S
C79 N80 1.326 . S
C79 C83 1.460 . S
C79 H85 0.929 . S
N80 Mn73 2.257 . S
N80 C79 1.326 . S
N80 C84 1.362 1_655 S
C81 C82 1.258 . S
C81 C84 1.431 . S
C81 C101 1.449 . S
C82 C81 1.258 . S
C82 C83 1.477 1_455 S
C82 H102 0.931 . S
C83 C79 1.460 . S
C83 C82 1.477 1_655 S
C83 H103 0.930 . S
C84 N80 1.362 1_455 S
C84 C81 1.431 . S
C84 C94 1.476 . S
H85 C79 0.929 . S
C86 O77 1.250 . S
C86 O78 1.258 . S
O87 Mn72 2.162 1_565 S
O87 C75 1.282 1_565 S
O88 Mn72 2.297 . S
O88 C75 1.236 . S
N89 Mn73 2.282 . S
N89 C90 1.328 1_655 S
N89 C94 1.318 1_655 S
C90 N89 1.328 1_455 S
C90 C91 1.457 . S
C90 H95 0.929 1_455 S
C91 C90 1.457 . S
C91 C92 1.291 . S
C91 H104 0.931 . S
C92 C91 1.291 . S
C92 C93 1.373 . S
C92 H105 0.929 . S
C93 C92 1.373 . S
C93 C94 1.396 . S
C93 C100 1.403 . S
C94 C84 1.476 . S
C94 N89 1.318 1_455 S
C94 C93 1.396 . S
H95 C90 0.929 1_655 S
O96 Mn72 2.385 . S
O96 C74 1.234 . S
O97 Mn72 2.209 . S
O97 Mn73 2.215 1_455 S
O97 C74 1.283 . S
O98 Mn72 2.094 1_665 S
O98 C76 1.240 . S
O99 Mn73 2.117 . S
O99 C76 1.264 1_545 S
C100 C93 1.403 . S
C100 C101 1.399 . S
C100 H106 0.929 . S
C101 C81 1.449 . S
C101 C100 1.399 . S
C101 H107 0.930 . S
H102 C82 0.931 . S
H103 C83 0.930 . S
H104 C91 0.931 . S
H105 C92 0.929 . S
H106 C100 0.929 . S
H107 C101 0.930 . S
H108 C127 0.949 . S
H109 C128 0.950 . S
H110 C130 0.950 . S
H111 C131 0.950 . S
H112 C133 0.950 . S
H113 C136 0.950 . S
H114 C137 0.950 . S
H115 C139 0.951 . S
H116 C140 0.949 . S
H117 C142 0.949 . S
H118 C143 0.950 . S
H119 C145 0.950 . S
H120 C146 0.950 . S
H121 C148 0.950 . S
H122 C151 0.950 . S
H123 C152 0.950 . S
H124 C154 0.951 . S
H125 C155 0.949 . S
C126 C127 1.376 . S
C126 C131 1.386 1_455 S
C126 C132 1.483 . S
C127 H108 0.949 . S
C127 C126 1.376 . S
C127 C128 1.397 . S
C128 H109 0.950 . S
C128 C127 1.397 . S
C128 C129 1.391 . S
C129 C128 1.391 . S
C129 C130 1.405 1_455 S
C130 H110 0.950 . S
C130 C129 1.405 1_655 S
C130 C131 1.367 . S
C131 H111 0.950 . S
C131 C126 1.386 1_655 S
C131 C130 1.367 . S
C132 C126 1.483 . S
C132 C133 1.382 . S
C132 C134 1.403 . S
C133 H112 0.950 . S
C133 C132 1.382 . S
C133 C149 1.411 . S
C134 C132 1.403 . S
C134 C135 1.489 . S
C134 C148 1.411 . S
C135 C134 1.489 . S
C135 C136 1.383 . S
C135 C140 1.382 1_455 S
C136 H113 0.950 . S
C136 C135 1.383 . S
C136 C137 1.395 . S
C137 H114 0.950 . S
C137 C136 1.395 . S
C137 C138 1.288 . S
C138 C137 1.288 . S
C138 C139 1.392 1_455 S
C139 H115 0.951 . S
C139 C138 1.392 1_655 S
C139 C140 1.392 . S
C140 H116 0.949 . S
C140 C135 1.382 1_655 S
C140 C139 1.392 . S
C141 C142 1.376 1_455 S
C141 C146 1.386 . S
C141 C147 1.483 . S
C142 H117 0.949 . S
C142 C141 1.376 1_655 S
C142 C143 1.397 . S
C143 H118 0.950 . S
C143 C142 1.397 . S
C143 C144 1.391 1_655 S
C144 C143 1.391 1_455 S
C144 C145 1.405 . S
C145 H119 0.950 . S
C145 C144 1.405 . S
C145 C146 1.367 . S
C146 H120 0.950 . S
C146 C141 1.386 . S
C146 C145 1.367 . S
C147 C141 1.483 . S
C147 C148 1.382 . S
C147 C149 1.403 . S
C148 H121 0.950 . S
C148 C134 1.411 . S
C148 C147 1.382 . S
C149 C133 1.411 . S
C149 C147 1.403 . S
C149 C150 1.489 . S
C150 C149 1.489 . S
C150 C151 1.383 1_455 S
C150 C155 1.382 . S
C151 H122 0.950 . S
C151 C150 1.383 1_655 S
C151 C152 1.395 . S
C152 H123 0.950 . S
C152 C151 1.395 . S
C152 C153 1.288 1_655 S
C153 C152 1.288 1_455 S
C153 C154 1.392 . S
C154 H124 0.951 . S
C154 C153 1.392 . S
C154 C155 1.392 . S
C155 H125 0.949 . S
C155 C150 1.382 . S
C155 C154 1.392 . S
H156 C175 0.949 . S
H157 C176 0.950 . S
H158 C178 0.950 1_565 S
H159 C179 0.952 . S
H160 C181 0.950 . S
H161 C184 0.950 . S
H162 C185 0.950 . S
H163 C187 0.951 1_565 S
H164 C188 0.949 1_565 S
H165 C190 0.949 1_565 S
H166 C191 0.950 1_565 S
H167 C193 0.950 . S
H168 C194 0.950 . S
H169 C196 0.950 . S
H170 C199 0.950 . S
H171 C200 0.950 . S
H172 C202 0.951 . S
H173 C203 0.949 . S
C174 C175 1.376 . S
C174 C179 1.386 . S
C174 C180 1.483 . S
C175 H156 0.949 . S
C175 C174 1.376 . S
C175 C176 1.397 . S
C176 H157 0.950 . S
C176 C175 1.397 . S
C176 C177 1.391 . S
C177 C176 1.391 . S
C177 C178 1.405 . S
C178 H158 0.950 1_545 S
C178 C177 1.405 . S
C178 C179 1.367 . S
C179 H159 0.952 . S
C179 C174 1.386 . S
C179 C178 1.367 . S
C180 C174 1.483 . S
C180 C181 1.382 . S
C180 C182 1.403 . S
C181 H160 0.950 . S
C181 C180 1.382 . S
C181 C197 1.411 . S
C182 C180 1.403 . S
C182 C183 1.489 . S
C182 C196 1.411 . S
C183 C182 1.489 . S
C183 C184 1.383 . S
C183 C188 1.382 . S
C184 H161 0.950 . S
C184 C183 1.383 . S
C184 C185 1.395 . S
C185 H162 0.950 . S
C185 C184 1.395 . S
C185 C186 1.288 . S
C186 C185 1.288 . S
C186 C187 1.392 . S
C187 H163 0.951 1_545 S
C187 C186 1.392 . S
C187 C188 1.392 . S
C188 H164 0.949 1_545 S
C188 C183 1.382 . S
C188 C187 1.392 . S
C189 C190 1.376 . S
C189 C194 1.386 . S
C189 C195 1.483 . S
C190 H165 0.949 1_545 S
C190 C189 1.376 . S
C190 C191 1.397 . S
C191 H166 0.950 1_545 S
C191 C190 1.397 . S
C191 C192 1.391 . S
C192 C191 1.391 . S
C192 C193 1.405 . S
C193 H167 0.950 . S
C193 C192 1.405 . S
C193 C194 1.367 . S
C194 H168 0.950 . S
C194 C189 1.386 . S
C194 C193 1.367 . S
C195 C189 1.483 . S
C195 C196 1.382 . S
C195 C197 1.403 . S
C196 H169 0.950 . S
C196 C182 1.411 . S
C196 C195 1.382 . S
C197 C181 1.411 . S
C197 C195 1.403 . S
C197 C198 1.489 . S
C198 C197 1.489 . S
C198 C199 1.383 . S
C198 C203 1.382 . S
C199 H170 0.950 . S
C199 C198 1.383 . S
C199 C200 1.395 . S
C200 H171 0.950 . S
C200 C199 1.395 . S
C200 C201 1.288 . S
C201 C200 1.288 . S
C201 C202 1.392 . S
C202 H172 0.951 . S
C202 C201 1.392 . S
C202 C203 1.392 . S
C203 H173 0.949 . S
C203 C198 1.382 . S
C203 C202 1.392 . S
H204 C223 0.949 . S
H205 C224 0.950 . S
H206 C226 0.950 . S
H207 C227 0.950 . S
H208 C229 0.950 . S
H209 C232 0.950 . S
H210 C233 0.950 . S
H211 C235 0.951 . S
H212 C236 0.949 . S
H213 C238 0.949 . S
H214 C239 0.950 . S
H215 C241 0.950 . S
H216 C242 0.950 . S
H217 C244 0.950 . S
H218 C247 0.950 . S
H219 C248 0.950 . S
H220 C250 0.951 . S
H221 C251 0.949 . S
C222 C223 1.376 . S
C222 C227 1.386 . S
C222 C228 1.483 . S
C223 H204 0.949 . S
C223 C222 1.376 . S
C223 C224 1.397 . S
C224 H205 0.950 . S
C224 C223 1.397 . S
C224 C225 1.391 . S
C225 C224 1.391 . S
C225 C226 1.405 . S
C226 H206 0.950 . S
C226 C225 1.405 . S
C226 C227 1.367 . S
C227 H207 0.950 . S
C227 C222 1.386 . S
C227 C226 1.367 . S
C228 C222 1.483 . S
C228 C229 1.382 . S
C228 C230 1.403 . S
C229 H208 0.950 . S
C229 C228 1.382 . S
C229 C245 1.411 . S
C230 C228 1.403 . S
C230 C231 1.489 . S
C230 C244 1.411 . S
C231 C230 1.489 . S
C231 C232 1.383 . S
C231 C236 1.382 . S
C232 H209 0.950 . S
C232 C231 1.383 . S
C232 C233 1.395 . S
C233 H210 0.950 . S
C233 C232 1.395 . S
C233 C234 1.288 . S
C234 C233 1.288 . S
C234 C235 1.392 . S
C235 H211 0.951 . S
C235 C234 1.392 . S
C235 C236 1.392 . S
C236 H212 0.949 . S
C236 C231 1.382 . S
C236 C235 1.392 . S
C237 C238 1.376 . S
C237 C242 1.386 . S
C237 C243 1.483 . S
C238 H213 0.949 . S
C238 C237 1.376 . S
C238 C239 1.397 . S
C239 H214 0.950 . S
C239 C238 1.397 . S
C239 C240 1.391 . S
C240 C239 1.391 . S
C240 C241 1.405 . S
C241 H215 0.950 . S
C241 C240 1.405 . S
C241 C242 1.367 . S
C242 H216 0.950 . S
C242 C237 1.386 . S
C242 C241 1.367 . S
C243 C237 1.483 . S
C243 C244 1.382 . S
C243 C245 1.403 . S
C244 H217 0.950 . S
C244 C230 1.411 . S
C244 C243 1.382 . S
C245 C229 1.411 . S
C245 C243 1.403 . S
C245 C246 1.489 . S
C246 C245 1.489 . S
C246 C247 1.383 . S
C246 C251 1.382 . S
C247 H218 0.950 . S
C247 C246 1.383 . S
C247 C248 1.395 . S
C248 H219 0.950 . S
C248 C247 1.395 . S
C248 C249 1.288 . S
C249 C248 1.288 . S
C249 C250 1.392 . S
C250 H220 0.951 . S
C250 C249 1.392 . S
C250 C251 1.392 . S
C251 H221 0.949 . S
C251 C246 1.382 . S
C251 C250 1.392 . S
C252 C253 1.363 1_655 S
C252 C258 1.379 . S
C252 N260 1.356 . S
C253 C252 1.363 1_455 S
C253 C259 1.363 . S
C254 C255 1.363 . S
C254 C259 1.379 . S
C254 N261 1.356 . S
C255 C254 1.363 . S
C255 C258 1.363 1_455 S
N256 C258 1.356 . S
N256 H268 0.984 . S
N256 H269 0.985 . S
N257 C259 1.356 . S
N257 H262 0.984 . S
N257 H263 0.985 . S
C258 C252 1.379 . S
C258 C255 1.363 1_655 S
C258 N256 1.356 . S
C259 C253 1.363 . S
C259 C254 1.379 . S
C259 N257 1.356 . S
N260 C252 1.356 . S
N260 H266 0.984 . S
N260 H267 0.984 . S
N261 C254 1.356 . S
N261 H264 0.984 . S
N261 H265 0.985 . S
H262 N257 0.984 . S
H263 N257 0.985 . S
H264 N261 0.984 . S
H265 N261 0.985 . S
H266 N260 0.984 . S
H267 N260 0.984 . S
H268 N256 0.984 . S
H269 N256 0.985 . S
C270 C271 1.363 . S
C270 C276 1.379 . S
C270 N278 1.356 1_545 S
C271 C270 1.363 . S
C271 C277 1.363 . S
C272 C273 1.363 . S
C272 C277 1.379 . S
C272 N279 1.356 . S
C273 C272 1.363 . S
C273 C276 1.363 . S
N274 C276 1.356 1_565 S
N274 H286 0.984 . S
N274 H287 0.985 1_565 S
N275 C277 1.356 . S
N275 H280 0.984 . S
N275 H281 0.985 . S
C276 C270 1.379 . S
C276 C273 1.363 . S
C276 N274 1.356 1_545 S
C277 C271 1.363 . S
C277 C272 1.379 . S
C277 N275 1.356 . S
N278 C270 1.356 1_565 S
N278 H284 0.984 . S
N278 H285 0.984 . S
N279 C272 1.356 . S
N279 H282 0.984 . S
N279 H283 0.985 . S
H280 N275 0.984 . S
H281 N275 0.985 . S
H282 N279 0.984 . S
H283 N279 0.985 . S
H284 N278 0.984 . S
H285 N278 0.984 . S
H286 N274 0.984 . S
H287 N274 0.985 1_545 S
C288 C289 1.363 . S
C288 C294 1.379 . S
C288 N296 1.356 . S
C289 C288 1.363 . S
C289 C295 1.363 . S
C290 C291 1.363 . S
C290 C295 1.379 . S
C290 N297 1.356 . S
C291 C290 1.363 . S
C291 C294 1.363 . S
N292 C294 1.356 . S
N292 H304 0.984 . S
N292 H305 0.985 . S
N293 C295 1.356 . S
N293 H298 0.984 . S
N293 H299 0.985 . S
C294 C288 1.379 . S
C294 C291 1.363 . S
C294 N292 1.356 . S
C295 C289 1.363 . S
C295 C290 1.379 . S
C295 N293 1.356 . S
N296 C288 1.356 . S
N296 H302 0.984 . S
N296 H303 0.984 . S
N297 C290 1.356 . S
N297 H300 0.984 . S
N297 H301 0.985 . S
H298 N293 0.984 . S
H299 N293 0.985 . S
H300 N297 0.984 . S
H301 N297 0.985 . S
H302 N296 0.984 . S
H303 N296 0.984 . S
H304 N292 0.984 . S
H305 N292 0.985 . S
C306 C307 1.359 1_655 S
C306 C312 1.373 . S
C306 N314 1.367 . S
C307 C306 1.359 1_455 S
C307 C313 1.363 . S
C308 C309 1.363 . S
C308 C313 1.379 . S
C308 N315 1.356 . S
C309 C308 1.363 . S
C309 C312 1.363 1_455 S
N310 C312 1.356 . S
N310 H322 0.984 . S
N310 H323 0.985 . S
N311 C313 1.356 . S
N311 H316 0.984 1_565 S
N311 H317 0.985 1_565 S
C312 C306 1.373 . S
C312 C309 1.363 1_655 S
C312 N310 1.356 . S
C313 C307 1.363 . S
C313 C308 1.379 . S
C313 N311 1.356 . S
N314 C306 1.367 . S
N314 H320 0.984 . S
N314 H321 0.984 . S
N315 C308 1.356 . S
N315 H318 0.984 . S
N315 H319 0.985 . S
H316 N311 0.984 1_545 S
H317 N311 0.985 1_545 S
H318 N315 0.984 . S
H319 N315 0.985 . S
H320 N314 0.984 . S
H321 N314 0.984 . S
H322 N310 0.984 . S
H323 N310 0.985 . S
C324 C325 1.363 . S
C324 C330 1.379 . S
C324 N332 1.356 1_545 S
C325 C324 1.363 . S
C325 C331 1.363 . S
C326 C327 1.363 . S
C326 C331 1.379 . S
C326 N333 1.356 . S
C327 C326 1.363 . S
C327 C330 1.363 . S
N328 C330 1.356 1_565 S
N328 H340 0.984 . S
N328 H341 0.985 1_565 S
N329 C331 1.356 . S
N329 H334 0.984 . S
N329 H335 0.985 . S
C330 C324 1.379 . S
C330 C327 1.363 . S
C330 N328 1.356 1_545 S
C331 C325 1.363 . S
C331 C326 1.379 . S
C331 N329 1.356 . S
N332 C324 1.356 1_565 S
N332 H338 0.984 . S
N332 H339 0.984 . S
N333 C326 1.356 . S
N333 H336 0.984 . S
N333 H337 0.985 . S
H334 N329 0.984 . S
H335 N329 0.985 . S
H336 N333 0.984 . S
H337 N333 0.985 . S
H338 N332 0.984 . S
H339 N332 0.984 . S
H340 N328 0.984 . S
H341 N328 0.985 1_545 S
C342 C343 1.363 . S
C342 C348 1.379 . S
C342 N350 1.356 . S
C343 C342 1.363 . S
C343 C349 1.363 . S
C344 C345 1.363 . S
C344 C349 1.379 . S
C344 N351 1.356 . S
C345 C344 1.363 . S
C345 C348 1.363 . S
N346 C348 1.356 . S
N346 H358 0.984 . S
N346 H359 0.985 . S
N347 C349 1.356 . S
N347 H352 0.984 . S
N347 H353 0.985 . S
C348 C342 1.379 . S
C348 C345 1.363 . S
C348 N346 1.356 . S
C349 C343 1.363 . S
C349 C344 1.379 . S
C349 N347 1.356 . S
N350 C342 1.356 . S
N350 H356 0.984 . S
N350 H357 0.984 . S
N351 C344 1.356 . S
N351 H354 0.984 . S
N351 H355 0.985 . S
H352 N347 0.984 . S
H353 N347 0.985 . S
H354 N351 0.984 . S
H355 N351 0.985 . S
H356 N350 0.984 . S
H357 N350 0.984 . S
H358 N346 0.984 . S
H359 N346 0.985 . S
C360 C361 1.363 . S
C360 C366 1.379 . S
C360 N368 1.356 1_545 S
C361 C360 1.363 . S
C361 C367 1.363 . S
C362 C363 1.363 . S
C362 C367 1.379 . S
C362 N369 1.356 . S
C363 C362 1.363 . S
C363 C366 1.363 . S
N364 C366 1.356 1_565 S
N364 H376 0.984 . S
N364 H377 0.985 1_565 S
N365 C367 1.356 . S
N365 H370 0.984 . S
N365 H371 0.985 . S
C366 C360 1.379 . S
C366 C363 1.363 . S
C366 N364 1.356 1_545 S
C367 C361 1.363 . S
C367 C362 1.379 . S
C367 N365 1.356 . S
N368 C360 1.356 1_565 S
N368 H374 0.984 . S
N368 H375 0.984 1_565 S
N369 C362 1.356 . S
N369 H372 0.984 . S
N369 H373 0.985 . S
H370 N365 0.984 . S
H371 N365 0.985 . S
H372 N369 0.984 . S
H373 N369 0.985 . S
H374 N368 0.984 . S
H375 N368 0.984 1_545 S
H376 N364 0.984 . S
H377 N364 0.985 1_545 S
C378 C379 1.363 . S
C378 C384 1.379 . S
C378 N386 1.356 1_565 S
C379 C378 1.363 . S
C379 C385 1.363 . S
C380 C381 1.363 . S
C380 C385 1.379 . S
C380 N387 1.356 . S
C381 C380 1.363 . S
C381 C384 1.363 . S
N382 C384 1.356 . S
N382 H394 0.984 . S
N382 H395 0.985 . S
N383 C385 1.356 1_554 S
N383 H388 0.984 . S
N383 H389 0.985 . S
C384 C378 1.379 . S
C384 C381 1.363 . S
C384 N382 1.356 . S
C385 C379 1.363 . S
C385 C380 1.379 . S
C385 N383 1.356 1_556 S
N386 C378 1.356 1_545 S
N386 H392 0.984 . S
N386 H393 0.984 . S
N387 C380 1.356 . S
N387 H390 0.984 . S
N387 H391 0.985 . S
H388 N383 0.984 . S
H389 N383 0.985 . S
H390 N387 0.984 . S
H391 N387 0.985 . S
H392 N386 0.984 . S
H393 N386 0.984 . S
H394 N382 0.984 . S
H395 N382 0.985 . S
C396 C397 1.363 1_655 S
C396 C402 1.379 1_655 S
C396 N404 1.356 . S
C397 C396 1.363 1_455 S
C397 C403 1.363 . S
C398 C399 1.363 . S
C398 C403 1.379 . S
C398 N405 1.356 . S
C399 C398 1.363 . S
C399 C402 1.363 . S
N400 C402 1.356 1_655 S
N400 H412 0.984 . S
N400 H413 0.985 1_655 S
N401 C403 1.356 . S
N401 H406 0.984 . S
N401 H407 0.985 . S
C402 C396 1.379 1_455 S
C402 C399 1.363 . S
C402 N400 1.356 1_455 S
C403 C397 1.363 . S
C403 C398 1.379 . S
C403 N401 1.356 . S
N404 C396 1.356 . S
N404 H410 0.984 . S
N404 H411 0.984 . S
N405 C398 1.356 . S
N405 H408 0.984 . S
N405 H409 0.985 . S
H406 N401 0.984 . S
H407 N401 0.985 . S
H408 N405 0.984 . S
H409 N405 0.985 . S
H410 N404 0.984 . S
H411 N404 0.984 . S
H412 N400 0.984 . S
H413 N400 0.985 1_455 S
C414 C415 1.363 . S
C414 C420 1.379 . S
C414 N422 1.356 1_545 S
C415 C414 1.363 . S
C415 C421 1.363 . S
C416 C417 1.363 . S
C416 C421 1.379 . S
C416 N423 1.356 . S
C417 C416 1.363 . S
C417 C420 1.363 . S
N418 C420 1.356 . S
N418 H430 0.984 1_545 S
N418 H431 0.985 . S
N419 C421 1.356 . S
N419 H424 0.984 . S
N419 H425 0.985 . S
C420 C414 1.379 . S
C420 C417 1.363 . S
C420 N418 1.356 . S
C421 C415 1.363 . S
C421 C416 1.379 . S
C421 N419 1.356 . S
N422 C414 1.356 1_565 S
N422 H428 0.984 . S
N422 H429 0.984 . S
N423 C416 1.356 . S
N423 H426 0.984 . S
N423 H427 0.985 . S
H424 N419 0.984 . S
H425 N419 0.985 . S
H426 N423 0.984 . S
H427 N423 0.985 . S
H428 N422 0.984 . S
H429 N422 0.984 . S
H430 N418 0.984 1_565 S
H431 N418 0.985 . S
C432 C433 1.363 . S
C432 C438 1.379 . S
C432 N440 1.356 . S
C433 C432 1.363 . S
C433 C439 1.363 . S
C434 C435 1.363 . S
C434 C439 1.379 . S
C434 N441 1.356 . S
C435 C434 1.363 . S
C435 C438 1.363 . S
N436 C438 1.356 . S
N436 H448 0.984 . S
N436 H449 0.985 . S
N437 C439 1.356 1_554 S
N437 H442 0.984 . S
N437 H443 0.985 . S
C438 C432 1.379 . S
C438 C435 1.363 . S
C438 N436 1.356 . S
C439 C433 1.363 . S
C439 C434 1.379 . S
C439 N437 1.356 1_556 S
N440 C432 1.356 . S
N440 H446 0.984 . S
N440 H447 0.984 . S
N441 C434 1.356 . S
N441 H444 0.984 . S
N441 H445 0.985 . S
H442 N437 0.984 . S
H443 N437 0.985 . S
H444 N441 0.984 . S
H445 N441 0.985 . S
H446 N440 0.984 . S
H447 N440 0.984 . S
H448 N436 0.984 . S
H449 N436 0.985 . S
C450 C451 1.363 . S
C450 C456 1.379 . S
C450 N458 1.356 . S
C451 C450 1.363 . S
C451 C457 1.363 . S
C452 C453 1.363 . S
C452 C457 1.379 . S
C452 N459 1.356 . S
C453 C452 1.363 . S
C453 C456 1.363 . S
N454 C456 1.356 . S
N454 H466 0.984 . S
N454 H467 0.985 . S
N455 C457 1.356 . S
N455 H460 0.984 . S
N455 H461 0.985 . S
C456 C450 1.379 . S
C456 C453 1.363 . S
C456 N454 1.356 . S
C457 C451 1.363 . S
C457 C452 1.379 . S
C457 N455 1.356 . S
N458 C450 1.356 . S
N458 H464 0.984 . S
N458 H465 0.984 . S
N459 C452 1.356 . S
N459 H462 0.984 . S
N459 H463 0.985 . S
H460 N455 0.984 . S
H461 N455 0.985 . S
H462 N459 0.984 . S
H463 N459 0.985 . S
H464 N458 0.984 . S
H465 N458 0.984 . S
H466 N454 0.984 . S
H467 N454 0.985 . S
C255 C129 1.503 . S
C253 C14 1.456 . S
C271 C40 1.507 . S
C273 C177 1.530 . S
C289 C76 1.491 . S
C291 C249 1.495 . S
C307 C3 1.488 . S
C309 C153 1.479 . S
C327 C201 1.515 . S
C325 C38 1.505 . S
C343 C74 1.482 . S
C345 C225 1.498 . S
C363 C186 1.470 . S
C361 C86 1.434 . S
C379 C2 1.483 1_556 S
C381 C240 1.500 . S
C399 C144 1.488 . S
C397 C39 1.489 . S
C417 C192 1.492 . S
C415 C75 1.497 . S
C435 C234 1.510 . S
C433 C4 1.483 1_556 S
C451 C50 1.456 . S
C453 C138 1.498 . S
