# Generated by pormake.
# Topology pth, (4,4)-cn, num edge types: 1
# Building blocks:
#     Node 0, Type 0, BuildingBlock: QUQFOY_clean_sbu_3, # of connection points: 4
#     Node 1, Type 0, BuildingBlock: QUQFOY_clean_sbu_3, # of connection points: 4
#     Node 2, Type 0, BuildingBlock: QUQFOY_clean_sbu_3, # of connection points: 4
#     Node 3, Type 1, BuildingBlock: MIFKUJ_clean_linker_1, # of connection points: 4
#     Node 4, Type 1, BuildingBlock: MIFKUJ_clean_linker_1, # of connection points: 4
#     Node 5, Type 1, BuildingBlock: MIFKUJ_clean_linker_1, # of connection points: 4
#     Edge 6, Type (0, 1), BuildingBlock: MIFKUJ_clean_linker_0, # of connection points: 2
#     Edge 7, Type (0, 1), BuildingBlock: MIFKUJ_clean_linker_0, # of connection points: 2
#     Edge 8, Type (0, 1), BuildingBlock: MIFKUJ_clean_linker_0, # of connection points: 2
#     Edge 9, Type (0, 1), BuildingBlock: MIFKUJ_clean_linker_0, # of connection points: 2
#     Edge 10, Type (0, 1), BuildingBlock: MIFKUJ_clean_linker_0, # of connection points: 2
#     Edge 11, Type (0, 1), BuildingBlock: MIFKUJ_clean_linker_0, # of connection points: 2
#     Edge 12, Type (0, 1), BuildingBlock: MIFKUJ_clean_linker_0, # of connection points: 2
#     Edge 13, Type (0, 1), BuildingBlock: MIFKUJ_clean_linker_0, # of connection points: 2
#     Edge 14, Type (0, 1), BuildingBlock: MIFKUJ_clean_linker_0, # of connection points: 2
#     Edge 15, Type (0, 1), BuildingBlock: MIFKUJ_clean_linker_0, # of connection points: 2
#     Edge 16, Type (0, 1), BuildingBlock: MIFKUJ_clean_linker_0, # of connection points: 2
#     Edge 17, Type (0, 1), BuildingBlock: MIFKUJ_clean_linker_0, # of connection points: 2
# Relax obj value: 0.016
# Max RMSD: 0.072
# Mean RMSD: 0.058
data_MOF--net-pth--node1-QUQFOY_clean_sbu_3--node2-MIFKUJ_clean_linker_1--edge1-MIFKUJ_clean_linker_0
_symmetry_space_group_name_H-M    P1
_symmetry_Int_Tables_number       1
_symmetry_cell_setting            triclinic
loop_
_symmetry_equiv_pos_as_xyz
'x, y, z'
_cell_length_a     36.991582
_cell_length_b     36.755296
_cell_length_c     81.776535
_cell_angle_alpha  90.002309
_cell_angle_beta   90.650323
_cell_angle_gamma 120.69014
loop_
_atom_site_label
_atom_site_type_symbol
_atom_site_fract_x
_atom_site_fract_y
_atom_site_fract_z
_atom_type_partial_charge
C0 C 0.98676 0.11108 0.06211 0.0
O1 O 0.96724 0.10846 0.04887 0.0
Cd2 Cd 0.95952 0.06327 0.0263 0.0
O3 O 0.00357 0.08861 0.0643 0.0
Cd4 Cd 0.01248 0.03495 0.04964 0.0
C5 C 0.06446 0.10331 0.01882 0.0
O6 O 0.94278 0.99653 0.03734 0.0
O7 O 0.98661 0.97843 0.02908 0.0
O8 O 1e-05 0.99584 0.07486 0.0
C9 C 0.94977 0.97263 0.02843 0.0
O10 O 0.02895 0.09784 0.01431 0.0
C11 C 0.03464 0.99646 0.075 0.0
O12 O 0.06804 0.08594 0.03175 0.0
O13 O 0.05969 0.01578 0.06338 0.0
C14 C 0.11581 0.08689 0.40247 0.0
O15 O 0.13552 0.11424 0.39151 0.0
Cd16 Cd 0.10189 0.11772 0.36687 0.0
O17 O 0.07604 0.06264 0.40154 0.0
Cd18 Cd 0.01532 0.05134 0.38445 0.0
C19 C 0.04942 0.01235 0.35497 0.0
O20 O 0.04322 0.12326 0.37498 0.0
O21 O 0.98695 0.07564 0.36263 0.0
O22 O 0.98186 0.05417 0.40929 0.0
C23 C 0.01479 0.11439 0.36429 0.0
O24 O 0.07912 0.05037 0.35294 0.0
C25 C 0.94809 0.01897 0.40713 0.0
O26 O 0.02204 0.00313 0.36599 0.0
O27 O 0.94559 -0.00199 0.39436 0.0
C28 C 0.95548 0.06614 0.6945 0.0
O29 O 0.95904 0.08633 0.70761 0.0
Cd30 Cd 0.00393 0.09303 0.73033 0.0
O31 O 0.97657 0.04789 0.69254 0.0
Cd32 Cd 0.02803 0.03678 0.70781 0.0
C33 C 0.95827 0.98693 0.73808 0.0
O34 O 0.06969 0.10727 0.7198 0.0
O35 O 0.08165 0.0595 0.7292 0.0
O36 O 0.0632 0.04469 0.68197 0.0
C37 C 0.09116 0.09786 0.7292 0.0
O38 O 0.96751 0.02359 0.74302 0.0
C39 C 0.06595 0.01182 0.68356 0.0
O40 O 0.97311 0.98201 0.72481 0.0
O41 O 0.04989 0.98974 0.69627 0.0
H42 H 0.11176 0.54037 0.18315 0.0
H43 H 0.10712 0.48407 0.16561 0.0
H44 H 0.99361 0.393 0.18992 0.0
H45 H -0.00273 0.44942 0.20699 0.0
H46 H 0.06226 0.57079 0.1856 0.0
H47 H 0.11013 0.50354 0.22439 0.0
H48 H 0.10565 0.44455 0.24009 0.0
H49 H 0.98738 0.41929 0.26001 0.0
H50 H 0.99177 0.4778 0.24418 0.0
H51 H -0.00122 0.58678 0.24777 0.0
H52 H 0.99622 0.63991 0.26464 0.0
H53 H 0.10808 0.73784 0.24122 0.0
H54 H 0.11227 0.68401 0.22533 0.0
H55 H 0.05147 0.56121 0.24601 0.0
H56 H 0.00495 0.63045 0.20902 0.0
H57 H 0.00926 0.6905 0.19462 0.0
H58 H 0.12012 0.70945 0.16971 0.0
H59 H 0.11744 0.65146 0.18517 0.0
C60 C 0.05523 0.4991 0.19657 0.0
C61 C 0.08585 0.5083 0.18471 0.0
C62 C 0.08323 0.47621 0.17472 0.0
C63 C 0.05017 0.43431 0.17654 0.0
C64 C 0.01975 0.42499 0.18848 0.0
C65 C 0.02195 0.45719 0.19827 0.0
C66 C 0.05725 0.53357 0.20672 0.0
C67 C 0.06064 0.56909 0.19884 0.0
C68 C 0.05393 0.53084 0.22393 0.0
C69 C 0.0512 0.49486 0.2331 0.0
C70 C 0.08312 0.48503 0.23205 0.0
C71 C 0.08063 0.45154 0.24106 0.0
C72 C 0.04609 0.42731 0.2512 0.0
C73 C 0.01406 0.43706 0.25212 0.0
C74 C 0.01671 0.47067 0.24321 0.0
C75 C 0.05543 0.63139 0.23513 0.0
C76 C 0.02304 0.61967 0.2464 0.0
C77 C 0.02129 0.65024 0.25589 0.0
C78 C 0.05166 0.69336 0.2542 0.0
C79 C 0.08437 0.70497 0.243 0.0
C80 C 0.08652 0.67424 0.23372 0.0
C81 C 0.05635 0.59849 0.22492 0.0
C82 C 0.05348 0.56323 0.23278 0.0
C83 C 0.05987 0.60143 0.20767 0.0
C84 C 0.06134 0.63692 0.19843 0.0
C85 C 0.03059 0.648 0.20066 0.0
C86 C 0.0328 0.68207 0.19222 0.0
C87 C 0.06514 0.70509 0.18099 0.0
C88 C 0.09531 0.69319 0.17851 0.0
C89 C 0.09352 0.65962 0.18719 0.0
H90 H 0.57325 0.02842 0.5139 0.0
H91 H 0.62666 0.02437 0.49789 0.0
H92 H 0.58801 0.90192 0.5186 0.0
H93 H 0.5346 0.90613 0.53462 0.0
H94 H 0.48864 0.97938 0.51445 0.0
H95 H 0.60278 0.02449 0.54978 0.0
H96 H 0.66058 0.02945 0.56623 0.0
H97 H 0.5723 0.92095 0.59409 0.0
H98 H 0.51436 0.91493 0.57715 0.0
H99 H 0.39644 0.91033 0.57212 0.0
H100 H 0.34175 0.91135 0.58821 0.0
H101 H 0.38982 0.0417 0.57454 0.0
H102 H 0.44357 0.03978 0.55803 0.0
H103 H 0.48652 0.96591 0.57485 0.0
H104 H 0.37082 0.93196 0.53673 0.0
H105 H 0.32209 0.94879 0.52314 0.0
H106 H 0.42724 0.059 0.50161 0.0
H107 H 0.47567 0.04353 0.51611 0.0
C108 C 0.55017 0.96768 0.52548 0.0
C109 C 0.57613 0.00062 0.51491 0.0
C110 C 0.60676 -0.0016 0.50588 0.0
C111 C 0.61147 0.96289 0.50708 0.0
C112 C 0.58484 0.92953 0.5174 0.0
C113 C 0.55455 0.93199 0.5266 0.0
C114 C 0.51888 0.97089 0.53554 0.0
C115 C 0.48831 0.97663 0.52767 0.0
C116 C 0.5189 0.96793 0.55279 0.0
C117 C 0.55416 0.96885 0.56201 0.0
C118 C 0.59583 0.00088 0.55906 0.0
C119 C 0.62887 0.00388 0.56852 0.0
C120 C 0.6208 0.97553 0.58137 0.0
C121 C 0.57924 0.94326 0.58426 0.0
C122 C 0.54621 0.93983 0.57461 0.0
C123 C 0.42375 0.97486 0.56384 0.0
C124 C 0.39516 0.9391 0.57265 0.0
C125 C 0.36405 0.93985 0.58189 0.0
C126 C 0.36131 0.97662 0.58268 0.0
C127 C 0.3905 0.01262 0.57398 0.0
C128 C 0.42142 0.01172 0.56463 0.0
C129 C 0.45579 0.97326 0.55372 0.0
C130 C 0.48659 0.96795 0.56161 0.0
C131 C 0.45705 0.97846 0.53656 0.0
C132 C 0.42695 0.98687 0.52766 0.0
C133 C 0.38335 0.96006 0.52927 0.0
C134 C 0.35549 0.96948 0.52132 0.0
C135 C 0.37069 0.00547 0.51136 0.0
C136 C 0.41438 0.03161 0.50948 0.0
C137 C 0.44216 0.02248 0.51759 0.0
H138 H 0.49258 0.4389 0.85201 0.0
H139 H 0.43447 0.38064 0.83685 0.0
H140 H 0.34739 0.41054 0.85922 0.0
H141 H 0.40574 0.4694 0.874 0.0
H142 H 0.51912 0.52155 0.84915 0.0
H143 H 0.47567 0.42299 0.89337 0.0
H144 H 0.42464 0.3684 0.91158 0.0
H145 H 0.38635 0.45504 0.92827 0.0
H146 H 0.43745 0.50956 0.91002 0.0
H147 H 0.54511 0.62507 0.90658 0.0
H148 H 0.60016 0.68527 0.9218 0.0
H149 H 0.69419 0.66787 0.89802 0.0
H150 H 0.63874 0.60586 0.88374 0.0
H151 H 0.5239 0.54595 0.90901 0.0
H152 H 0.56733 0.64386 0.86288 0.0
H153 H 0.61912 0.69638 0.84419 0.0
H154 H 0.65982 0.60899 0.83139 0.0
H155 H 0.60775 0.55647 0.84995 0.0
C156 C 0.45343 0.4583 0.86417 0.0
C157 C 0.46091 0.43261 0.85375 0.0
C158 C 0.42766 0.39917 0.84521 0.0
C159 C 0.38641 0.39108 0.84687 0.0
C160 C 0.37889 0.41625 0.85762 0.0
C161 C 0.41214 0.44962 0.86618 0.0
C162 C 0.489 0.49588 0.87214 0.0
C163 C 0.52051 0.52662 0.86227 0.0
C164 C 0.4905 0.50284 0.88918 0.0
C165 C 0.46002 0.47011 0.9003 0.0
C166 C 0.45624 0.43016 0.90095 0.0
C167 C 0.42738 0.39918 0.91142 0.0
C168 C 0.40165 0.40761 0.92129 0.0
C169 C 0.40565 0.44771 0.92068 0.0
C170 C 0.43487 0.47885 0.91035 0.0
C171 C 0.58774 0.61107 0.89393 0.0
C172 C 0.57762 0.63433 0.90462 0.0
C173 C 0.60922 0.6691 0.91317 0.0
C174 C 0.65171 0.68152 0.91114 0.0
C175 C 0.66181 0.65888 0.90005 0.0
C176 C 0.63012 0.62374 0.89167 0.0
C177 C 0.55378 0.5721 0.88599 0.0
C178 C 0.52257 0.54098 0.89588 0.0
C179 C 0.55276 0.56467 0.86898 0.0
C180 C 0.58399 0.59649 0.85781 0.0
C181 C 0.58746 0.63611 0.85604 0.0
C182 C 0.61681 0.66591 0.84534 0.0
C183 C 0.64337 0.65661 0.83642 0.0
C184 C 0.63988 0.61695 0.83824 0.0
C185 C 0.61011 0.58696 0.84875 0.0
H186 H 0.00619 0.11161 0.09449 0.0
H187 H 0.01768 0.16496 0.11515 0.0
H188 H 0.9916 0.2341 0.07895 0.0
H189 H 0.97923 0.18062 0.0583 0.0
H190 H 0.07016 0.28219 0.09865 0.0
H191 H 0.9199 0.18432 0.10365 0.0
H192 H 0.85757 0.11382 0.10806 0.0
H193 H 0.90645 0.10711 0.15512 0.0
H194 H 0.9694 0.17737 0.15088 0.0
H195 H 0.05226 0.43509 0.14335 0.0
H196 H 0.04329 0.37846 0.12506 0.0
H197 H 0.03167 0.30129 0.16677 0.0
H198 H 0.03897 0.35752 0.1851 0.0
H199 H 0.97565 0.25473 0.1455 0.0
H200 H 0.12264 0.35103 0.14263 0.0
H201 H 0.18824 0.41947 0.13921 0.0
H202 H 0.15182 0.42717 0.08988 0.0
H203 H 0.08569 0.35905 0.09307 0.0
C204 C 0.00265 0.13805 0.09096 0.0
C205 C 0.99177 0.14196 0.07479 0.0
C206 C 0.00917 0.16838 0.10276 0.0
C207 C 0.00549 0.20329 0.09849 0.0
C208 C 0.99458 0.20728 0.0824 0.0
C209 C 0.98733 0.17662 0.07068 0.0
C210 C 0.01379 0.23626 0.11072 0.0
C211 C 0.04939 0.2765 0.10883 0.0
C212 C 0.98748 0.22797 0.12429 0.0
C213 C 0.94956 0.18586 0.12686 0.0
C214 C 0.91755 0.16763 0.11487 0.0
C215 C 0.88206 0.12776 0.11735 0.0
C216 C 0.87811 0.10594 0.13184 0.0
C217 C 0.90958 0.12401 0.14389 0.0
C218 C 0.94515 0.16387 0.14146 0.0
C219 C 0.04816 0.40615 0.14858 0.0
C220 C 0.04651 0.40061 0.16559 0.0
C221 C 0.0432 0.37386 0.13814 0.0
C222 C 0.03759 0.33584 0.14452 0.0
C223 C 0.03604 0.33035 0.16155 0.0
C224 C 0.04026 0.36241 0.172 0.0
C225 C 0.03188 0.3014 0.13336 0.0
C226 C 0.99681 0.26069 0.13544 0.0
C227 C 0.05925 0.30904 0.12013 0.0
C228 C 0.09902 0.35007 0.11814 0.0
C229 C 0.12846 0.36747 0.13109 0.0
C230 C 0.16577 0.40619 0.12918 0.0
C231 C 0.17415 0.4277 0.11435 0.0
C232 C 0.14527 0.41049 0.10137 0.0
C233 C 0.10788 0.37179 0.10321 0.0
H234 H 0.20306 0.45767 0.1129 0.0
H235 H 0.85061 0.07507 0.13374 0.0
H236 H 0.87163 0.94525 0.40591 0.0
H237 H 0.81188 0.92432 0.42401 0.0
H238 H 0.885 0.03935 0.45201 0.0
H239 H 0.94485 0.0599 0.4343 0.0
H240 H 0.83986 0.97541 0.47183 0.0
H241 H 0.81447 0.02998 0.42194 0.0
H242 H 0.80511 0.03261 0.39214 0.0
H243 H 0.7004 0.90511 0.39259 0.0
H244 H 0.70951 0.90156 0.42239 0.0
H245 H 0.69399 0.02389 0.50497 0.0
H246 H 0.74849 0.02182 0.48901 0.0
H247 H 0.65807 0.89594 0.47209 0.0
H248 H 0.60326 0.89783 0.48811 0.0
H249 H 0.7067 0.9525 0.44703 0.0
H250 H 0.72725 0.90413 0.49851 0.0
H251 H 0.73676 0.90576 0.52844 0.0
H252 H 0.85124 0.02586 0.52516 0.0
H253 H 0.84208 0.0253 0.49522 0.0
C254 C 0.87505 0.96583 0.41603 0.0
C255 C 0.91283 0.00438 0.41861 0.0
C256 C 0.84087 0.95391 0.42632 0.0
C257 C 0.84381 0.98056 0.43923 0.0
C258 C 0.882 0.01828 0.44214 0.0
C259 C 0.91615 0.03007 0.43195 0.0
C260 C 0.80682 0.97058 0.44931 0.0
C261 C 0.8108 0.97052 0.46641 0.0
C262 C 0.76852 0.96322 0.44223 0.0
C263 C 0.76301 0.96531 0.42434 0.0
C264 C 0.78968 0.00239 0.41566 0.0
C265 C 0.78438 0.00407 0.39877 0.0
C266 C 0.75228 0.969 0.39047 0.0
C267 C 0.72532 0.93221 0.39904 0.0
C268 C 0.73053 0.93035 0.41592 0.0
C269 C 0.68577 0.9958 0.49784 0.0
C270 C 0.64449 0.96105 0.49772 0.0
C271 C 0.71692 0.99453 0.48885 0.0
C272 C 0.70728 0.95859 0.4795 0.0
C273 C 0.66607 0.92384 0.4793 0.0
C274 C 0.63495 0.9249 0.48848 0.0
C275 C 0.74021 0.95834 0.46949 0.0
C276 C 0.73547 0.95654 0.45243 0.0
C277 C 0.77795 0.96446 0.4766 0.0
C278 C 0.7838 0.96479 0.49461 0.0
C279 C 0.75429 0.93105 0.50418 0.0
C280 C 0.75965 0.93176 0.52115 0.0
C281 C 0.79454 0.96593 0.5287 0.0
C282 C 0.82421 -0.00058 0.51929 0.0
C283 C 0.81898 -0.00111 0.50231 0.0
H284 H 0.79863 0.96642 0.54184 0.0
H285 H 0.74821 0.97036 0.3774 0.0
H286 H 0.9083 0.90534 0.7273 0.0
H287 H 0.853 0.84593 0.74252 0.0
H288 H 0.88625 0.92498 0.78562 0.0
H289 H 0.94021 0.98467 0.77034 0.0
H290 H 0.84816 0.80152 0.76796 0.0
H291 H 0.80203 0.90375 0.80703 0.0
H292 H 0.80142 0.97034 0.80461 0.0
H293 H 0.7949 0.95823 0.75228 0.0
H294 H 0.79488 0.89129 0.75439 0.0
H295 H 0.72684 0.68367 0.83507 0.0
H296 H 0.77896 0.73666 0.81677 0.0
H297 H 0.68217 0.75258 0.79389 0.0
H298 H 0.63033 0.70068 0.81262 0.0
H299 H 0.74663 0.82528 0.7984 0.0
H300 H 0.72537 0.69758 0.77495 0.0
H301 H 0.71964 0.62775 0.77424 0.0
H302 H 0.84878 0.68445 0.78957 0.0
H303 H 0.85514 0.75457 0.79059 0.0
C304 C 0.90396 0.90988 0.74005 0.0
C305 C 0.92815 0.94974 0.74758 0.0
C306 C 0.87239 0.87594 0.74874 0.0
C307 C 0.86484 0.88127 0.76511 0.0
C308 C 0.89067 0.92044 0.77287 0.0
C309 C 0.92164 0.95448 0.76415 0.0
C310 C 0.8293 0.84643 0.77401 0.0
C311 C 0.8259 0.80665 0.77459 0.0
C312 C 0.79943 0.85271 0.78225 0.0
C313 C 0.79883 0.89269 0.78088 0.0
C314 C 0.80027 0.9152 0.79501 0.0
C315 C 0.80007 0.95302 0.79369 0.0
C316 C 0.79825 0.96857 0.7783 0.0
C317 C 0.79646 0.94623 0.76419 0.0
C318 C 0.79659 0.90837 0.76544 0.0
C319 C 0.71678 0.6984 0.82606 0.0
C320 C 0.67469 0.68818 0.8252 0.0
C321 C 0.74647 0.72848 0.81556 0.0
C322 C 0.7344 0.74815 0.80375 0.0
C323 C 0.69226 0.73786 0.80289 0.0
C324 C 0.66269 0.70828 0.81358 0.0
C325 C 0.76601 0.78054 0.7927 0.0
C326 C 0.7687 0.81996 0.79171 0.0
C327 C 0.79421 0.77338 0.78362 0.0
C328 C 0.79062 0.73129 0.78297 0.0
C329 C 0.75247 0.69512 0.77828 0.0
C330 C 0.74912 0.65549 0.77781 0.0
C331 C 0.7838 0.65165 0.78189 0.0
C332 C 0.82193 0.68747 0.78642 0.0
C333 C 0.82545 0.72717 0.78693 0.0
H334 H 0.78114 0.62094 0.78152 0.0
H335 H 0.79814 0.99788 0.77731 0.0
H336 H 0.98116 0.9413 0.09749 0.0
H337 H 0.99507 0.90054 0.11738 0.0
H338 H 0.1239 0.96067 0.10165 0.0
H339 H 0.10959 0.00056 0.08117 0.0
H340 H 0.09476 0.8808 0.10425 0.0
H341 H 0.09623 0.98311 0.13974 0.0
H342 H 0.07231 0.02824 0.15211 0.0
H343 H 0.96022 0.91796 0.1687 0.0
H344 H 0.98315 0.87209 0.15623 0.0
H345 H 0.13523 0.7794 0.17174 0.0
H346 H 0.13781 0.83625 0.15532 0.0
H347 H 0.00242 0.77005 0.15343 0.0
H348 H -0.00074 0.71199 0.16904 0.0
H349 H 0.04615 0.86152 0.16161 0.0
H350 H 0.04506 0.76111 0.12222 0.0
H351 H 0.07319 0.71882 0.11057 0.0
H352 H 0.19196 0.83203 0.10264 0.0
H353 H 0.16466 0.87495 0.11448 0.0
C354 C 0.01259 0.9462 0.09835 0.0
C355 C 0.0443 0.97416 0.08778 0.0
C356 C 0.02061 0.92306 0.10983 0.0
C357 C 0.06076 0.92803 0.11124 0.0
C358 C 0.09271 0.9564 0.10083 0.0
C359 C 0.08453 0.97922 0.08916 0.0
C360 C 0.06827 0.90149 0.12289 0.0
C361 C 0.08498 0.8774 0.11689 0.0
C362 C 0.05533 0.89671 0.13939 0.0
C363 C 0.04132 0.92413 0.14694 0.0
C364 C 0.06633 0.96845 0.14592 0.0
C365 C 0.05296 0.99417 0.15297 0.0
C366 C 0.01474 0.97598 0.16116 0.0
C367 C 0.98982 0.93201 0.16235 0.0
C368 C 0.00302 0.90613 0.15531 0.0
C369 C 0.10594 0.77658 0.1677 0.0
C370 C 0.067 0.74083 0.17169 0.0
C371 C 0.10755 0.80933 0.15845 0.0
C372 C 0.07031 0.8072 0.15323 0.0
C373 C 0.03147 0.77228 0.15749 0.0
C374 C 0.02979 0.73922 0.1665 0.0
C375 C 0.07154 0.84053 0.14277 0.0
C376 C 0.05653 0.86576 0.14903 0.0
C377 C 0.08674 0.84694 0.12663 0.0
C378 C 0.103 0.82116 0.11942 0.0
C379 C 0.07729 0.77694 0.11814 0.0
C380 C 0.09306 0.75286 0.11147 0.0
C381 C 0.13438 0.77271 0.10592 0.0
C382 C 0.15998 0.81669 0.10697 0.0
C383 C 0.14438 0.8409 0.11366 0.0
H384 H 0.14653 0.75402 0.10075 0.0
H385 H 0.00445 0.99595 0.16661 0.0
H386 H 0.09245 0.01645 0.4207 0.0
H387 H 0.134 0.00623 0.44157 0.0
H388 H 0.23347 0.13625 0.43627 0.0
H389 H 0.19281 0.14588 0.41472 0.0
H390 H 0.26636 0.09083 0.43671 0.0
H391 H 0.16655 0.09679 0.47114 0.0
H392 H 0.09655 0.07899 0.48084 0.0
H393 H 0.06417 0.95023 0.48832 0.0
H394 H 0.13378 0.96711 0.47845 0.0
H395 H 0.38027 0.08356 0.50606 0.0
H396 H 0.33488 0.10027 0.48979 0.0
H397 H 0.24849 0.96731 0.48135 0.0
H398 H 0.29444 0.95016 0.49702 0.0
H399 H 0.21042 0.01827 0.48953 0.0
H400 H 0.31162 0.01541 0.45292 0.0
H401 H 0.38345 0.03701 0.44426 0.0
H402 H 0.41486 0.16669 0.44248 0.0
H403 H 0.34335 0.14589 0.45138 0.0
C404 C 0.12299 0.04298 0.42412 0.0
C405 C 0.13945 0.08195 0.41608 0.0
C406 C 0.14664 0.0372 0.43615 0.0
C407 C 0.1867 0.07065 0.44072 0.0
C408 C 0.20269 0.10993 0.43296 0.0
C409 C 0.17943 0.11545 0.42067 0.0
C410 C 0.21302 0.06381 0.45276 0.0
C411 C 0.25422 0.07573 0.44839 0.0
C412 C 0.19719 0.04345 0.46793 0.0
C413 C 0.1553 0.03316 0.47392 0.0
C414 C 0.1444 0.06461 0.47474 0.0
C415 C 0.1048 0.05469 0.48029 0.0
C416 C 0.0759 0.01349 0.48516 0.0
C417 C 0.08658 0.98213 0.48453 0.0
C418 C 0.12612 0.99187 0.47898 0.0
C419 C 0.35176 0.0578 0.50068 0.0
C420 C 0.34132 0.0155 0.50269 0.0
C421 C 0.32571 0.06745 0.49152 0.0
C422 C 0.28857 0.03499 0.48436 0.0
C423 C 0.27701 0.99272 0.48689 0.0
C424 C 0.30329 0.98303 0.49589 0.0
C425 C 0.26315 0.04523 0.47334 0.0
C426 C 0.22231 0.03383 0.4779 0.0
C427 C 0.27946 0.06673 0.45848 0.0
C428 C 0.3223 0.07916 0.45299 0.0
C429 C 0.33396 0.04857 0.45082 0.0
C430 C 0.37459 0.06066 0.44584 0.0
C431 C 0.40374 0.10321 0.44286 0.0
C432 C 0.39227 0.13375 0.44481 0.0
C433 C 0.35169 0.12183 0.44981 0.0
H434 H 0.43518 0.11251 0.43901 0.0
H435 H 0.04526 0.00588 0.48945 0.0
H436 H 0.14337 0.08692 0.74972 0.0
H437 H 0.19144 0.13624 0.77046 0.0
H438 H 0.15517 0.22671 0.75679 0.0
H439 H 0.10764 0.17783 0.73576 0.0
H440 H 0.23768 0.26473 0.76116 0.0
H441 H 0.11678 0.16655 0.7913 0.0
H442 H 0.06116 0.09632 0.80053 0.0
H443 H 0.15453 0.07213 0.82066 0.0
H444 H 0.21078 0.142 0.81134 0.0
H445 H 0.32595 0.39785 0.83015 0.0
H446 H 0.27284 0.34646 0.81121 0.0
H447 H 0.3166 0.25985 0.82085 0.0
H448 H 0.3694 0.31087 0.84012 0.0
H449 H 0.22899 0.2202 0.81899 0.0
H450 H 0.34969 0.31876 0.78792 0.0
H451 H 0.40433 0.38979 0.77899 0.0
H452 H 0.30911 0.41386 0.76091 0.0
H453 H 0.25385 0.34316 0.76996 0.0
C454 C 0.14573 0.11738 0.75109 0.0
C455 C 0.12162 0.12847 0.74117 0.0
C456 C 0.17302 0.14542 0.76301 0.0
C457 C 0.1763 0.18482 0.76535 0.0
C458 C 0.15296 0.19636 0.75522 0.0
C459 C 0.12583 0.16842 0.74322 0.0
C460 C 0.20436 0.21413 0.7783 0.0
C461 C 0.23535 0.25517 0.77384 0.0
C462 C 0.20178 0.20136 0.7948 0.0
C463 C 0.16802 0.15936 0.80048 0.0
C464 C 0.12548 0.14612 0.79758 0.0
C465 C 0.09383 0.1064 0.80285 0.0
C466 C 0.10431 0.07974 0.81114 0.0
C467 C 0.14647 0.0928 0.81422 0.0
C468 C 0.17824 0.13247 0.80896 0.0
C469 C 0.32375 0.36754 0.82849 0.0
C470 C 0.35194 0.3584 0.83655 0.0
C471 C 0.29363 0.33838 0.81758 0.0
C472 C 0.29126 0.29968 0.8145 0.0
C473 C 0.31812 0.28967 0.82303 0.0
C474 C 0.34839 0.31891 0.83392 0.0
C475 C 0.26216 0.27058 0.80179 0.0
C476 C 0.23109 0.22966 0.8063 0.0
C477 C 0.26445 0.28349 0.78535 0.0
C478 C 0.29764 0.32584 0.77976 0.0
C479 C 0.3404 0.33932 0.78215 0.0
C480 C 0.37148 0.3795 0.77705 0.0
C481 C 0.3602 0.40636 0.76942 0.0
C482 C 0.3178 0.39304 0.76684 0.0
C483 C 0.28659 0.35291 0.77194 0.0
H484 H 0.38431 0.43745 0.76548 0.0
H485 H 0.07976 0.049 0.81521 0.0
H486 H 0.95293 0.04482 0.66233 0.0
H487 H 0.89787 0.03062 0.64205 0.0
H488 H 0.83209 0.06013 0.67799 0.0
H489 H 0.88732 0.07523 0.69824 0.0
H490 H 0.78377 0.97797 0.66061 0.0
H491 H 0.87555 0.1279 0.6511 0.0
H492 H 0.94347 0.19156 0.64481 0.0
H493 H 0.94695 0.13629 0.59903 0.0
H494 H 0.8793 0.072 0.60516 0.0
H495 H 0.62292 0.97938 0.61455 0.0
H496 H 0.68164 0.99431 0.63281 0.0
H497 H 0.75542 -2e-05 0.5913 0.0
H498 H 0.69696 0.98651 0.57292 0.0
H499 H 0.80191 0.06217 0.61072 0.0
H500 H 0.71185 0.9143 0.6185 0.0
H501 H 0.64577 0.84779 0.62399 0.0
H502 H 0.641 0.89365 0.67174 0.0
H503 H 0.70676 0.96072 0.66644 0.0
C504 C 0.92697 0.04875 0.66585 0.0
C505 C 0.92439 0.06111 0.68187 0.0
C506 C 0.89566 0.04068 0.65427 0.0
C507 C 0.86106 0.0443 0.6586 0.0
C508 C 0.85865 0.0572 0.67448 0.0
C509 C 0.8903 0.066 0.68598 0.0
C510 C 0.8264 0.03283 0.64678 0.0
C511 C 0.78742 0.99655 0.64978 0.0
C512 C 0.83201 0.05628 0.63239 0.0
C513 C 0.87261 0.09494 0.62868 0.0
C514 C 0.891 0.12914 0.63977 0.0
C515 C 0.9294 0.16538 0.63622 0.0
C516 C 0.94958 0.16792 0.62156 0.0
C517 C 0.93132 0.13425 0.61039 0.0
C518 C 0.89294 0.09792 0.6139 0.0
C519 C 0.65149 0.98326 0.60936 0.0
C520 C 0.65541 0.9815 0.59237 0.0
C521 C 0.68502 0.99172 0.6198 0.0
C522 C 0.72278 0.99759 0.61347 0.0
C523 C 0.7266 0.99551 0.59647 0.0
C524 C 0.69324 0.98772 0.586 0.0
C525 C 0.75864 0.00737 0.6246 0.0
C526 C 0.79802 0.04328 0.62147 0.0
C527 C 0.75362 0.98306 0.63875 0.0
C528 C 0.71407 0.9427 0.64201 0.0
C529 C 0.69655 0.91034 0.63012 0.0
C530 C 0.65917 0.87251 0.63321 0.0
C531 C 0.63915 0.86653 0.64819 0.0
C532 C 0.65652 0.89834 0.66013 0.0
C533 C 0.69388 0.93626 0.6571 0.0
H534 H 0.61021 0.83722 0.65055 0.0
H535 H 0.9793 0.19601 0.61882 0.0
H536 H 0.87803 0.96996 0.01821 0.0
H537 H 0.82806 0.92388 0.99722 0.0
H538 H 0.90024 0.86265 0.99073 0.0
H539 H 0.95118 0.90979 0.0113 0.0
H540 H 0.87876 0.87759 0.96227 0.0
H541 H 0.80531 0.81585 0.01202 0.0
H542 H 0.77512 0.81478 0.03887 0.0
H543 H 0.695 0.85402 0.01654 0.0
H544 H 0.72512 0.85584 0.98957 0.0
H545 H 0.72148 0.68556 0.92491 0.0
H546 H 0.77348 0.74005 0.94316 0.0
H547 H 0.70846 0.80931 0.93961 0.0
H548 H 0.65701 0.75577 0.92073 0.0
H549 H 0.72532 0.79341 0.97214 0.0
H550 H 0.79735 0.84963 0.92172 0.0
H551 H 0.82688 0.84681 0.8952 0.0
H552 H 0.90922 0.8132 0.91944 0.0
H553 H 0.87974 0.8152 0.9461 0.0
C554 C 0.88308 0.94649 0.01238 0.0
C555 C 0.91838 0.94331 0.01641 0.0
C556 C 0.85445 0.92009 0.00041 0.0
C557 C 0.86011 0.88944 0.99253 0.0
C558 C 0.89527 0.88611 0.99663 0.0
C559 C 0.92424 0.91291 0.00843 0.0
C560 C 0.8298 0.86126 0.97983 0.0
C561 C 0.84527 0.85883 0.96451 0.0
C562 C 0.78597 0.83752 0.98261 0.0
C563 C 0.76779 0.83641 -0.00119 0.0
C564 C 0.78149 0.82457 0.01286 0.0
C565 C 0.76435 0.82377 0.02809 0.0
C566 C 0.73325 0.83445 0.02942 0.0
C567 C 0.71914 0.84583 0.0155 0.0
C568 C 0.73621 0.84671 0.00023 0.0
C569 C 0.7187 0.71285 0.92762 0.0
C570 C 0.68497 0.71622 0.92132 0.0
C571 C 0.74835 0.74383 0.93815 0.0
C572 C 0.74472 0.7786 0.94267 0.0
C573 C 0.71159 0.78254 0.93627 0.0
C574 C 0.68215 0.7518 0.92556 0.0
C575 C 0.77443 0.80958 0.95475 0.0
C576 C 0.75882 0.81246 0.96993 0.0
C577 C 0.81812 0.83326 0.95192 0.0
C578 C 0.83606 0.83222 0.93591 0.0
C579 C 0.8215 0.84128 0.92139 0.0
C580 C 0.83829 0.8399 0.90633 0.0
C581 C 0.86984 0.82974 0.90563 0.0
C582 C 0.88475 0.82103 0.92 0.0
C583 C 0.86805 0.82234 0.93509 0.0
H584 H 0.8828 0.82869 0.89396 0.0
H585 H 0.72002 0.8338 0.04122 0.0
H586 H 0.98166 0.93325 0.34917 0.0
H587 H 0.97844 0.87808 0.33142 0.0
H588 H 0.10936 0.95963 0.31973 0.0
H589 H 0.11226 0.01536 0.33687 0.0
H590 H 0.06883 0.92283 0.29339 0.0
H591 H 0.07294 0.87478 0.34764 0.0
H592 H 0.04993 0.85422 0.37605 0.0
H593 H 0.92951 0.75488 0.3587 0.0
H594 H 0.95164 0.77521 0.33018 0.0
H595 H 0.11672 0.76668 0.26745 0.0
H596 H 0.11227 0.82012 0.28359 0.0
H597 H 0.97702 0.74669 0.28045 0.0
H598 H 0.98091 0.69408 0.26353 0.0
H599 H 0.01534 0.77689 0.31346 0.0
H600 H 0.01585 0.82511 0.25864 0.0
H601 H 0.04316 0.84549 0.23071 0.0
H602 H 0.16072 0.9452 0.25014 0.0
H603 H 0.13431 0.92496 0.27822 0.0
C604 C 0.00974 0.93935 0.34282 0.0
C605 C 0.04723 0.97859 0.34444 0.0
C606 C 0.00792 0.90774 0.33274 0.0
C607 C 0.04384 0.91445 0.32441 0.0
C608 C 0.08122 0.9537 0.32599 0.0
C609 C 0.08285 0.98551 0.33584 0.0
C610 C 0.04267 0.88085 0.31395 0.0
C611 C 0.05752 0.89108 0.29788 0.0
C612 C 0.02716 0.83909 0.31964 0.0
C613 C 0.01379 0.82682 0.33678 0.0
C614 C 0.04144 0.84876 0.34989 0.0
C615 C 0.02858 0.83711 0.36601 0.0
C616 C 0.98824 0.80335 0.36918 0.0
C617 C 0.96072 0.78108 0.35623 0.0
C618 C 0.97341 0.79263 0.34008 0.0
C619 C 0.08598 0.76211 0.26991 0.0
C620 C 0.04918 0.72594 0.26412 0.0
C621 C 0.08355 0.79255 0.27925 0.0
C622 C 0.04433 0.78717 0.28316 0.0
C623 C 0.00754 0.75113 0.2776 0.0
C624 C 0.00991 0.721 0.26801 0.0
C625 C 0.04191 0.81927 0.29314 0.0
C626 C 0.02639 0.80867 0.30905 0.0
C627 C 0.05738 0.86082 0.28742 0.0
C628 C 0.07323 0.87325 0.27054 0.0
C629 C 0.04766 0.85114 0.25697 0.0
C630 C 0.06295 0.86271 0.24111 0.0
C631 C 0.10369 0.89655 0.23865 0.0
C632 C 0.12918 0.91896 0.25206 0.0
C633 C 0.11405 0.90747 0.26795 0.0
H634 H 0.11547 0.90547 0.22636 0.0
H635 H 0.97834 0.79437 0.38167 0.0
H636 H 0.09025 0.95335 0.68676 0.0
H637 H 0.13615 0.94253 0.66861 0.0
H638 H 0.14093 0.03642 0.63565 0.0
H639 H 0.09522 0.04765 0.65375 0.0
H640 H 0.13299 0.96388 0.61969 0.0
H641 H 0.21807 0.06648 0.66126 0.0
H642 H 0.23862 0.09229 0.68962 0.0
H643 H 0.25944 0.98986 0.70005 0.0
H644 H 0.23839 0.96308 0.6718 0.0
H645 H 0.3161 0.01498 0.57534 0.0
H646 H 0.26261 0.01698 0.59185 0.0
H647 H 0.27629 0.94015 0.62846 0.0
H648 H 0.33157 0.94012 0.6125 0.0
H649 H 0.27266 0.00133 0.64264 0.0
H650 H 0.19076 0.89953 0.60111 0.0
H651 H 0.16946 0.87223 0.57296 0.0
H652 H 0.1414 0.96977 0.56255 0.0
H653 H 0.16309 -0.00197 0.59058 0.0
C654 C 0.10057 0.97126 0.67553 0.0
C655 C 0.08941 0.00159 0.67173 0.0
C656 C 0.12685 0.96511 0.66521 0.0
C657 C 0.14218 0.989 0.6509 0.0
C658 C 0.1294 0.01773 0.64666 0.0
C659 C 0.10344 0.02419 0.65704 0.0
C660 C 0.17367 0.98603 0.64091 0.0
C661 C 0.1637 0.97238 0.62461 0.0
C662 C 0.2133 0.99631 0.64751 0.0
C663 C 0.2262 0.01252 0.66447 0.0
C664 C 0.22668 0.04926 0.66964 0.0
C665 C 0.23848 0.0641 0.68569 0.0
C666 C 0.25021 0.04266 0.69665 0.0
C667 C 0.25028 0.00639 0.69156 0.0
C668 C 0.23843 0.99138 0.67553 0.0
C669 C 0.30811 -0.00111 0.58699 0.0
C670 C 0.32817 0.97733 0.59256 0.0
C671 C 0.27704 -0.00044 0.59631 0.0
C672 C 0.26488 0.97811 0.61127 0.0
C673 C 0.28496 0.95672 0.61691 0.0
C674 C 0.31631 0.9564 0.60768 0.0
C675 C 0.23213 0.97896 0.62131 0.0
C676 C 0.2419 0.99243 0.63766 0.0
C677 C 0.19222 0.96818 0.61475 0.0
C678 C 0.17892 0.95112 0.59791 0.0
C679 C 0.18033 0.91534 0.59278 0.0
C680 C 0.16815 0.89967 0.57685 0.0
C681 C 0.15418 0.91931 0.56596 0.0
C682 C 0.15227 0.95462 0.57099 0.0
C683 C 0.16446 0.97045 0.58691 0.0
H684 H 0.14477 0.90714 0.55363 0.0
H685 H 0.25935 0.0542 0.70907 0.0
H686 H 0.14526 0.11961 0.02303 0.0
H687 H 0.20683 0.16687 0.00677 0.0
H688 H 0.1299 0.19749 0.97646 0.0
H689 H 0.06843 0.14996 0.99228 0.0
H690 H 0.18062 0.1849 0.95814 0.0
H691 H 0.19418 0.26391 0.00736 0.0
H692 H 0.19972 0.27661 0.03715 0.0
H693 H 0.31156 0.2687 0.0392 0.0
H694 H 0.30634 0.2554 0.00944 0.0
H695 H 0.31916 0.38344 0.92396 0.0
H696 H 0.26622 0.32725 0.94106 0.0
H697 H 0.35971 0.30048 0.95969 0.0
H698 H 0.41297 0.35679 0.94253 0.0
H699 H 0.30674 0.30579 0.9841 0.0
H700 H 0.29605 0.23531 0.93347 0.0
H701 H 0.28999 0.22622 0.9035 0.0
H702 H 0.1714 0.22106 0.904 0.0
H703 H 0.17707 0.23081 0.93395 0.0
C704 C 0.14147 0.13633 0.01287 0.0
C705 C 0.10193 0.13109 0.00899 0.0
C706 C 0.1767 0.1634 0.00362 0.0
C707 C 0.173 0.18597 0.99049 0.0
C708 C 0.13347 0.1803 0.9865 0.0
C709 C 0.09834 0.15317 0.99563 0.0
C710 C 0.21008 0.21609 0.98091 0.0
C711 C 0.20809 0.21142 0.96382 0.0
C712 C 0.24639 0.25011 0.98835 0.0
C713 C 0.24957 0.25813 0.00622 0.0
C714 C 0.21975 0.26452 0.01419 0.0
C715 C 0.22287 0.27189 0.03106 0.0
C716 C 0.25589 0.27331 0.04007 0.0
C717 C 0.28594 0.26749 0.03222 0.0
C718 C 0.28293 0.26005 0.01535 0.0
C719 C 0.32846 0.36576 0.93179 0.0
C720 C 0.37004 0.37432 0.93194 0.0
C721 C 0.29823 0.3336 0.94146 0.0
C722 C 0.30914 0.30965 0.95151 0.0
C723 C 0.3508 0.31863 0.95196 0.0
C724 C 0.38101 0.35053 0.94212 0.0
C725 C 0.2766 0.27503 0.96139 0.0
C726 C 0.2795 0.27885 0.97848 0.0
C727 C 0.24091 0.24044 0.95397 0.0
C728 C 0.23715 0.23411 0.93596 0.0
C729 C 0.26883 0.23255 0.92718 0.0
C730 C 0.26544 0.22723 0.91019 0.0
C731 C 0.23037 0.22314 0.90185 0.0
C732 C 0.19856 0.22425 0.91048 0.0
C733 C 0.20182 0.22963 0.92746 0.0
H734 H 0.22782 0.21904 0.88869 0.0
H735 H 0.25826 0.27904 0.05313 0.0
H736 H 0.95523 0.10612 0.34216 0.0
H737 H 0.96059 0.15862 0.32246 0.0
H738 H 0.08541 0.24726 0.34063 0.0
H739 H 0.07973 0.19538 0.36068 0.0
H740 H 0.04347 0.28608 0.3358 0.0
H741 H 0.06817 0.19075 0.30445 0.0
H742 H 0.05264 0.12145 0.29373 0.0
H743 H 0.93925 0.10306 0.27099 0.0
H744 H 0.95382 0.17204 0.28176 0.0
H745 H 0.10876 0.42946 0.26986 0.0
H746 H 0.10365 0.37469 0.28835 0.0
H747 H 0.9736 0.29343 0.27421 0.0
H748 H 0.97864 0.34788 0.25552 0.0
H749 H 0.01821 0.25083 0.27662 0.0
H750 H 0.9947 0.34707 0.30843 0.0
H751 H 0.01208 0.41715 0.31891 0.0
H752 H 0.12616 0.43443 0.34055 0.0
H753 H 0.10975 0.36467 0.32998 0.0
C754 C 0.98373 0.13687 0.342 0.0
C755 C 0.01713 0.14662 0.35291 0.0
C756 C 0.98686 0.16674 0.33067 0.0
C757 C 0.02371 0.2066 0.32988 0.0
C758 C 0.05673 0.21667 0.341 0.0
C759 C 0.05345 0.18698 0.35244 0.0
C760 C 0.02789 0.23792 0.3175 0.0
C761 C 0.03851 0.2785 0.32284 0.0
C762 C 0.02062 0.22779 0.30061 0.0
C763 C 0.01189 0.18638 0.29405 0.0
C764 C 0.03977 0.1718 0.29726 0.0
C765 C 0.03116 0.13259 0.29116 0.0
C766 C 0.99493 0.10782 0.28172 0.0
C767 C 0.96728 0.12226 0.27832 0.0
C768 C 0.97571 0.16142 0.28441 0.0
C769 C 0.07929 0.39965 0.2705 0.0
C770 C 0.04401 0.39295 0.26134 0.0
C771 C 0.07635 0.36856 0.28113 0.0
C772 C 0.03812 0.33031 0.28275 0.0
C773 C 0.00331 0.32285 0.27315 0.0
C774 C 0.00616 0.35402 0.26259 0.0
C775 C 0.03394 0.29881 0.29497 0.0
C776 C 0.02325 0.25827 0.28959 0.0
C777 C 0.04144 0.30902 0.31181 0.0
C778 C 0.0512 0.35084 0.31827 0.0
C779 C 0.02366 0.36596 0.31531 0.0
C780 C 0.0333 0.4056 0.32128 0.0
C781 C 0.07025 0.43028 0.33035 0.0
C782 C 0.09758 0.41531 0.3335 0.0
C783 C 0.08811 0.37571 0.32753 0.0
H784 H 0.07766 0.46096 0.33497 0.0
H785 H 0.98832 0.07748 0.27701 0.0
loop_
_geom_bond_atom_site_label_1
_geom_bond_atom_site_label_2
_geom_bond_distance
_geom_bond_site_symmetry_2
_ccdc_geom_bond_type
C0 O1 1.307 . S
C0 O3 1.160 . S
O1 C0 1.307 . S
O1 Cd2 2.228 1_455 S
Cd2 O1 2.228 1_655 S
Cd2 O6 2.273 . S
Cd2 O10 2.277 1_655 S
O3 C0 1.160 . S
O3 Cd4 2.203 . S
Cd4 O3 2.203 . S
Cd4 O6 2.411 1_455 S
Cd4 O7 2.333 1_545 S
Cd4 O8 2.352 1_545 S
Cd4 O12 2.277 . S
Cd4 O13 2.356 1_545 S
C5 O10 1.209 . S
C5 O12 1.226 . S
O6 Cd2 2.273 . S
O6 Cd4 2.411 1_655 S
O6 C9 1.320 1_545 S
O7 Cd4 2.333 1_565 S
O7 C9 1.214 1_455 S
O8 Cd4 2.352 1_565 S
O8 C11 1.258 . S
C9 O6 1.320 1_565 S
C9 O7 1.214 1_655 S
O10 Cd2 2.277 1_455 S
O10 C5 1.209 . S
C11 O8 1.258 . S
C11 O13 1.282 . S
O12 Cd4 2.277 . S
O12 C5 1.226 . S
O13 Cd4 2.356 1_565 S
O13 C11 1.282 . S
C14 O15 1.306 . S
C14 O17 1.160 . S
O15 C14 1.306 . S
O15 Cd16 2.228 . S
Cd16 O15 2.228 . S
Cd16 O20 2.273 . S
Cd16 O24 2.277 . S
O17 C14 1.160 . S
O17 Cd18 2.203 . S
Cd18 O17 2.203 . S
Cd18 O20 2.411 . S
Cd18 O21 2.333 1_455 S
Cd18 O22 2.352 1_455 S
Cd18 O26 2.277 1_445 S
Cd18 O27 2.356 1_445 S
C19 O24 1.209 1_565 S
C19 O26 1.226 1_455 S
O20 Cd16 2.273 . S
O20 Cd18 2.411 . S
O20 C23 1.320 . S
O21 Cd18 2.333 1_655 S
O21 C23 1.214 1_655 S
O22 Cd18 2.352 1_655 S
O22 C25 1.258 . S
C23 O20 1.320 . S
C23 O21 1.214 1_455 S
O24 Cd16 2.277 . S
O24 C19 1.209 1_545 S
C25 O22 1.258 . S
C25 O27 1.282 1_545 S
O26 Cd18 2.277 1_665 S
O26 C19 1.226 1_655 S
O27 Cd18 2.356 1_665 S
O27 C25 1.282 1_565 S
C28 O29 1.306 . S
C28 O31 1.160 . S
O29 C28 1.306 . S
O29 Cd30 2.228 . S
Cd30 O29 2.228 . S
Cd30 O34 2.273 1_655 S
Cd30 O38 2.277 . S
O31 C28 1.160 . S
O31 Cd32 2.203 1_655 S
Cd32 O31 2.203 1_455 S
Cd32 O34 2.411 . S
Cd32 O35 2.333 . S
Cd32 O36 2.352 . S
Cd32 O40 2.277 1_445 S
Cd32 O41 2.356 1_545 S
C33 O38 1.209 1_565 S
C33 O40 1.226 . S
O34 Cd30 2.273 1_455 S
O34 Cd32 2.411 . S
O34 C37 1.320 . S
O35 Cd32 2.333 . S
O35 C37 1.214 . S
O36 Cd32 2.352 . S
O36 C39 1.258 . S
C37 O34 1.320 . S
C37 O35 1.214 . S
O38 Cd30 2.277 . S
O38 C33 1.209 1_545 S
C39 O36 1.258 . S
C39 O41 1.282 1_545 S
O40 Cd32 2.277 1_665 S
O40 C33 1.226 . S
O41 Cd32 2.356 1_565 S
O41 C39 1.282 1_565 S
H42 C61 0.949 . S
H43 C62 0.950 . S
H44 C64 0.950 1_655 S
H45 C65 0.950 1_655 S
H46 C67 0.950 . S
H47 C70 0.950 . S
H48 C71 0.950 . S
H49 C73 0.951 1_655 S
H50 C74 0.949 1_655 S
H51 C76 0.949 1_655 S
H52 C77 0.950 1_655 S
H53 C79 0.950 . S
H54 C80 0.950 . S
H55 C82 0.950 . S
H56 C85 0.950 1_655 S
H57 C86 0.950 1_655 S
H58 C88 0.951 . S
H59 C89 0.949 . S
C60 C61 1.376 . S
C60 C65 1.386 . S
C60 C66 1.483 . S
C61 H42 0.949 . S
C61 C60 1.376 . S
C61 C62 1.397 . S
C62 H43 0.950 . S
C62 C61 1.397 . S
C62 C63 1.391 . S
C63 C62 1.391 . S
C63 C64 1.405 . S
C64 H44 0.950 1_455 S
C64 C63 1.405 . S
C64 C65 1.367 . S
C65 H45 0.950 1_455 S
C65 C60 1.386 . S
C65 C64 1.367 . S
C66 C60 1.483 . S
C66 C67 1.382 . S
C66 C68 1.403 . S
C67 H46 0.950 . S
C67 C66 1.382 . S
C67 C83 1.411 . S
C68 C66 1.403 . S
C68 C69 1.489 . S
C68 C82 1.411 . S
C69 C68 1.489 . S
C69 C70 1.383 . S
C69 C74 1.382 . S
C70 H47 0.950 . S
C70 C69 1.383 . S
C70 C71 1.395 . S
C71 H48 0.950 . S
C71 C70 1.395 . S
C71 C72 1.288 . S
C72 C71 1.288 . S
C72 C73 1.392 . S
C73 H49 0.951 1_455 S
C73 C72 1.392 . S
C73 C74 1.392 . S
C74 H50 0.949 1_455 S
C74 C69 1.382 . S
C74 C73 1.392 . S
C75 C76 1.376 . S
C75 C80 1.386 . S
C75 C81 1.483 . S
C76 H51 0.949 1_455 S
C76 C75 1.376 . S
C76 C77 1.397 . S
C77 H52 0.950 1_455 S
C77 C76 1.397 . S
C77 C78 1.391 . S
C78 C77 1.391 . S
C78 C79 1.405 . S
C79 H53 0.950 . S
C79 C78 1.405 . S
C79 C80 1.367 . S
C80 H54 0.950 . S
C80 C75 1.386 . S
C80 C79 1.367 . S
C81 C75 1.483 . S
C81 C82 1.382 . S
C81 C83 1.403 . S
C82 H55 0.950 . S
C82 C68 1.411 . S
C82 C81 1.382 . S
C83 C67 1.411 . S
C83 C81 1.403 . S
C83 C84 1.489 . S
C84 C83 1.489 . S
C84 C85 1.383 . S
C84 C89 1.382 . S
C85 H56 0.950 1_455 S
C85 C84 1.383 . S
C85 C86 1.395 . S
C86 H57 0.950 1_455 S
C86 C85 1.395 . S
C86 C87 1.288 . S
C87 C86 1.288 . S
C87 C88 1.392 . S
C88 H58 0.951 . S
C88 C87 1.392 . S
C88 C89 1.392 . S
C89 H59 0.949 . S
C89 C84 1.382 . S
C89 C88 1.392 . S
H90 C109 0.949 . S
H91 C110 0.950 . S
H92 C112 0.950 . S
H93 C113 0.950 . S
H94 C115 0.950 . S
H95 C118 0.950 . S
H96 C119 0.950 . S
H97 C121 0.951 . S
H98 C122 0.949 . S
H99 C124 0.949 . S
H100 C125 0.950 . S
H101 C127 0.950 . S
H102 C128 0.950 . S
H103 C130 0.950 . S
H104 C133 0.950 1_565 S
H105 C134 0.950 1_565 S
H106 C136 0.951 . S
H107 C137 0.949 . S
C108 C109 1.376 . S
C108 C113 1.386 1_545 S
C108 C114 1.483 . S
C109 H90 0.949 . S
C109 C108 1.376 . S
C109 C110 1.397 . S
C110 H91 0.950 . S
C110 C109 1.397 . S
C110 C111 1.391 . S
C111 C110 1.391 . S
C111 C112 1.405 1_545 S
C112 H92 0.950 . S
C112 C111 1.405 1_565 S
C112 C113 1.367 . S
C113 H93 0.950 . S
C113 C108 1.386 1_565 S
C113 C112 1.367 . S
C114 C108 1.483 . S
C114 C115 1.382 . S
C114 C116 1.403 . S
C115 H94 0.950 . S
C115 C114 1.382 . S
C115 C131 1.411 . S
C116 C114 1.403 . S
C116 C117 1.489 . S
C116 C130 1.411 . S
C117 C116 1.489 . S
C117 C118 1.383 . S
C117 C122 1.382 1_545 S
C118 H95 0.950 . S
C118 C117 1.383 . S
C118 C119 1.395 . S
C119 H96 0.950 . S
C119 C118 1.395 . S
C119 C120 1.288 . S
C120 C119 1.288 . S
C120 C121 1.392 1_545 S
C121 H97 0.951 . S
C121 C120 1.392 1_565 S
C121 C122 1.392 . S
C122 H98 0.949 . S
C122 C117 1.382 1_565 S
C122 C121 1.392 . S
C123 C124 1.376 1_545 S
C123 C128 1.386 . S
C123 C129 1.483 . S
C124 H99 0.949 . S
C124 C123 1.376 1_565 S
C124 C125 1.397 . S
C125 H100 0.950 . S
C125 C124 1.397 . S
C125 C126 1.391 1_565 S
C126 C125 1.391 1_545 S
C126 C127 1.405 . S
C127 H101 0.950 . S
C127 C126 1.405 . S
C127 C128 1.367 . S
C128 H102 0.950 . S
C128 C123 1.386 . S
C128 C127 1.367 . S
C129 C123 1.483 . S
C129 C130 1.382 . S
C129 C131 1.403 . S
C130 H103 0.950 . S
C130 C116 1.411 . S
C130 C129 1.382 . S
C131 C115 1.411 . S
C131 C129 1.403 . S
C131 C132 1.489 . S
C132 C131 1.489 . S
C132 C133 1.383 . S
C132 C137 1.382 . S
C133 H104 0.950 1_545 S
C133 C132 1.383 . S
C133 C134 1.395 . S
C134 H105 0.950 1_545 S
C134 C133 1.395 . S
C134 C135 1.288 . S
C135 C134 1.288 . S
C135 C136 1.392 . S
C136 H106 0.951 . S
C136 C135 1.392 . S
C136 C137 1.392 . S
C137 H107 0.949 . S
C137 C132 1.382 . S
C137 C136 1.392 . S
H138 C157 0.949 . S
H139 C158 0.950 . S
H140 C160 0.950 . S
H141 C161 0.950 . S
H142 C163 0.950 . S
H143 C166 0.950 . S
H144 C167 0.950 . S
H145 C169 0.951 . S
H146 C170 0.949 . S
H147 C172 0.949 . S
H148 C173 0.950 . S
H149 C175 0.950 . S
H150 C176 0.950 . S
H151 C178 0.950 . S
H152 C181 0.950 . S
H153 C182 0.950 . S
H154 C184 0.951 . S
H155 C185 0.949 . S
C156 C157 1.376 . S
C156 C161 1.386 . S
C156 C162 1.483 . S
C157 H138 0.949 . S
C157 C156 1.376 . S
C157 C158 1.397 . S
C158 H139 0.950 . S
C158 C157 1.397 . S
C158 C159 1.391 . S
C159 C158 1.391 . S
C159 C160 1.405 . S
C160 H140 0.950 . S
C160 C159 1.405 . S
C160 C161 1.367 . S
C161 H141 0.950 . S
C161 C156 1.386 . S
C161 C160 1.367 . S
C162 C156 1.483 . S
C162 C163 1.382 . S
C162 C164 1.403 . S
C163 H142 0.950 . S
C163 C162 1.382 . S
C163 C179 1.411 . S
C164 C162 1.403 . S
C164 C165 1.489 . S
C164 C178 1.411 . S
C165 C164 1.489 . S
C165 C166 1.383 . S
C165 C170 1.382 . S
C166 H143 0.950 . S
C166 C165 1.383 . S
C166 C167 1.395 . S
C167 H144 0.950 . S
C167 C166 1.395 . S
C167 C168 1.288 . S
C168 C167 1.288 . S
C168 C169 1.392 . S
C169 H145 0.951 . S
C169 C168 1.392 . S
C169 C170 1.392 . S
C170 H146 0.949 . S
C170 C165 1.382 . S
C170 C169 1.392 . S
C171 C172 1.376 . S
C171 C176 1.386 . S
C171 C177 1.483 . S
C172 H147 0.949 . S
C172 C171 1.376 . S
C172 C173 1.397 . S
C173 H148 0.950 . S
C173 C172 1.397 . S
C173 C174 1.391 . S
C174 C173 1.391 . S
C174 C175 1.405 . S
C175 H149 0.950 . S
C175 C174 1.405 . S
C175 C176 1.367 . S
C176 H150 0.950 . S
C176 C171 1.386 . S
C176 C175 1.367 . S
C177 C171 1.483 . S
C177 C178 1.382 . S
C177 C179 1.403 . S
C178 H151 0.950 . S
C178 C164 1.411 . S
C178 C177 1.382 . S
C179 C163 1.411 . S
C179 C177 1.403 . S
C179 C180 1.489 . S
C180 C179 1.489 . S
C180 C181 1.383 . S
C180 C185 1.382 . S
C181 H152 0.950 . S
C181 C180 1.383 . S
C181 C182 1.395 . S
C182 H153 0.950 . S
C182 C181 1.395 . S
C182 C183 1.288 . S
C183 C182 1.288 . S
C183 C184 1.392 . S
C184 H154 0.951 . S
C184 C183 1.392 . S
C184 C185 1.392 . S
C185 H155 0.949 . S
C185 C180 1.382 . S
C185 C184 1.392 . S
H186 C204 0.951 . S
H187 C206 0.951 . S
H188 C208 0.950 . S
H189 C209 0.950 . S
H190 C211 0.950 . S
H191 C214 0.950 . S
H192 C215 0.950 . S
H193 C217 0.950 . S
H194 C218 0.950 . S
H195 C219 0.951 . S
H196 C221 0.951 . S
H197 C223 0.950 . S
H198 C224 0.950 . S
H199 C226 0.950 1_655 S
H200 C229 0.950 . S
H201 C230 0.950 . S
H202 C232 0.950 . S
H203 C233 0.950 . S
C204 H186 0.951 . S
C204 C205 1.366 . S
C204 C206 1.388 . S
C205 C204 1.366 . S
C205 C209 1.385 . S
C206 H187 0.951 . S
C206 C204 1.388 . S
C206 C207 1.366 . S
C207 C206 1.366 . S
C207 C208 1.414 . S
C207 C210 1.499 . S
C208 H188 0.950 . S
C208 C207 1.414 . S
C208 C209 1.374 . S
C209 H189 0.950 . S
C209 C205 1.385 . S
C209 C208 1.374 . S
C210 C207 1.499 . S
C210 C211 1.373 . S
C210 C212 1.389 . S
C211 H190 0.950 . S
C211 C210 1.373 . S
C211 C227 1.377 . S
C212 C210 1.389 . S
C212 C213 1.524 1_455 S
C212 C226 1.377 . S
C213 C212 1.524 1_655 S
C213 C214 1.397 . S
C213 C218 1.363 . S
C214 H191 0.950 . S
C214 C213 1.397 . S
C214 C215 1.334 . S
C215 H192 0.950 . S
C215 C214 1.334 . S
C215 C216 1.287 . S
C216 C215 1.287 . S
C216 C217 1.524 . S
C216 H235 0.913 . S
C217 H193 0.950 . S
C217 C216 1.524 . S
C217 C218 1.415 . S
C218 H194 0.950 . S
C218 C213 1.363 . S
C218 C217 1.415 . S
C219 H195 0.951 . S
C219 C220 1.366 . S
C219 C221 1.388 . S
C220 C219 1.366 . S
C220 C224 1.385 . S
C221 H196 0.951 . S
C221 C219 1.388 . S
C221 C222 1.366 . S
C222 C221 1.366 . S
C222 C223 1.414 . S
C222 C225 1.499 . S
C223 H197 0.950 . S
C223 C222 1.414 . S
C223 C224 1.374 . S
C224 H198 0.950 . S
C224 C220 1.385 . S
C224 C223 1.374 . S
C225 C222 1.499 . S
C225 C226 1.373 . S
C225 C227 1.389 . S
C226 H199 0.950 1_455 S
C226 C212 1.377 . S
C226 C225 1.373 . S
C227 C211 1.377 . S
C227 C225 1.389 . S
C227 C228 1.524 . S
C228 C227 1.524 . S
C228 C229 1.397 . S
C228 C233 1.363 . S
C229 H200 0.950 . S
C229 C228 1.397 . S
C229 C230 1.334 . S
C230 H201 0.950 . S
C230 C229 1.334 . S
C230 C231 1.287 . S
C231 C230 1.287 . S
C231 C232 1.524 . S
C231 H234 0.999 . S
C232 H202 0.950 . S
C232 C231 1.524 . S
C232 C233 1.415 . S
C233 H203 0.950 . S
C233 C228 1.363 . S
C233 C232 1.415 . S
H234 C231 0.999 . S
H235 C216 0.913 . S
H236 C254 0.951 1_565 S
H237 C256 0.948 . S
H238 C258 0.950 . S
H239 C259 0.950 . S
H240 C261 0.951 1_565 S
H241 C264 0.950 . S
H242 C265 0.950 . S
H243 C267 0.950 . S
H244 C268 0.950 . S
H245 C269 0.951 . S
H246 C271 0.951 . S
H247 C273 0.950 . S
H248 C274 0.950 . S
H249 C276 0.950 . S
H250 C279 0.950 . S
H251 C280 0.950 . S
H252 C282 0.950 . S
H253 C283 0.950 1_545 S
C254 H236 0.951 1_545 S
C254 C255 1.366 . S
C254 C256 1.388 . S
C255 C254 1.366 . S
C255 C259 1.385 . S
C256 H237 0.948 . S
C256 C254 1.388 . S
C256 C257 1.366 . S
C257 C256 1.366 . S
C257 C258 1.414 . S
C257 C260 1.499 . S
C258 H238 0.950 . S
C258 C257 1.414 . S
C258 C259 1.374 . S
C259 H239 0.950 . S
C259 C255 1.385 . S
C259 C258 1.374 . S
C260 C257 1.499 . S
C260 C261 1.373 . S
C260 C262 1.389 . S
C261 H240 0.951 1_545 S
C261 C260 1.373 . S
C261 C277 1.377 . S
C262 C260 1.389 . S
C262 C263 1.524 . S
C262 C276 1.377 . S
C263 C262 1.524 . S
C263 C264 1.397 . S
C263 C268 1.363 . S
C264 H241 0.950 . S
C264 C263 1.397 . S
C264 C265 1.334 . S
C265 H242 0.950 . S
C265 C264 1.334 . S
C265 C266 1.287 . S
C266 C265 1.287 . S
C266 C267 1.524 . S
C266 H285 0.913 . S
C267 H243 0.950 . S
C267 C266 1.524 . S
C267 C268 1.415 . S
C268 H244 0.950 . S
C268 C263 1.363 . S
C268 C267 1.415 . S
C269 H245 0.951 . S
C269 C270 1.366 . S
C269 C271 1.388 . S
C270 C269 1.366 . S
C270 C274 1.385 . S
C271 H246 0.951 . S
C271 C269 1.388 . S
C271 C272 1.366 . S
C272 C271 1.366 . S
C272 C273 1.414 . S
C272 C275 1.499 . S
C273 H247 0.950 . S
C273 C272 1.414 . S
C273 C274 1.374 . S
C274 H248 0.950 . S
C274 C270 1.385 . S
C274 C273 1.374 . S
C275 C272 1.499 . S
C275 C276 1.373 . S
C275 C277 1.389 . S
C276 H249 0.950 . S
C276 C262 1.377 . S
C276 C275 1.373 . S
C277 C261 1.377 . S
C277 C275 1.389 . S
C277 C278 1.524 1_545 S
C278 C277 1.524 1_565 S
C278 C279 1.397 . S
C278 C283 1.363 . S
C279 H250 0.950 . S
C279 C278 1.397 . S
C279 C280 1.334 . S
C280 H251 0.950 . S
C280 C279 1.334 . S
C280 C281 1.287 . S
C281 C280 1.287 . S
C281 C282 1.524 . S
C281 H284 0.999 . S
C282 H252 0.950 . S
C282 C281 1.524 . S
C282 C283 1.415 . S
C283 H253 0.950 1_565 S
C283 C278 1.363 . S
C283 C282 1.415 . S
H284 C281 0.999 . S
H285 C266 0.913 . S
H286 C304 0.951 . S
H287 C306 0.951 . S
H288 C308 0.950 . S
H289 C309 0.950 . S
H290 C311 0.950 . S
H291 C314 0.950 . S
H292 C315 0.950 1_545 S
H293 C317 0.950 . S
H294 C318 0.950 . S
H295 C319 0.951 . S
H296 C321 0.951 . S
H297 C323 0.950 . S
H298 C324 0.950 . S
H299 C326 0.950 . S
H300 C329 0.950 . S
H301 C330 0.950 . S
H302 C332 0.950 . S
H303 C333 0.950 . S
C304 H286 0.951 . S
C304 C305 1.366 . S
C304 C306 1.388 . S
C305 C304 1.366 . S
C305 C309 1.385 . S
C306 H287 0.951 . S
C306 C304 1.388 . S
C306 C307 1.366 . S
C307 C306 1.366 . S
C307 C308 1.414 . S
C307 C310 1.499 . S
C308 H288 0.950 . S
C308 C307 1.414 . S
C308 C309 1.374 . S
C309 H289 0.950 . S
C309 C305 1.385 . S
C309 C308 1.374 . S
C310 C307 1.499 . S
C310 C311 1.373 . S
C310 C312 1.389 . S
C311 H290 0.950 . S
C311 C310 1.373 . S
C311 C327 1.377 . S
C312 C310 1.389 . S
C312 C313 1.524 . S
C312 C326 1.377 . S
C313 C312 1.524 . S
C313 C314 1.397 . S
C313 C318 1.363 . S
C314 H291 0.950 . S
C314 C313 1.397 . S
C314 C315 1.334 . S
C315 H292 0.950 1_565 S
C315 C314 1.334 . S
C315 C316 1.287 . S
C316 C315 1.287 . S
C316 C317 1.524 . S
C316 H335 0.913 1_565 S
C317 H293 0.950 . S
C317 C316 1.524 . S
C317 C318 1.415 . S
C318 H294 0.950 . S
C318 C313 1.363 . S
C318 C317 1.415 . S
C319 H295 0.951 . S
C319 C320 1.366 . S
C319 C321 1.388 . S
C320 C319 1.366 . S
C320 C324 1.385 . S
C321 H296 0.951 . S
C321 C319 1.388 . S
C321 C322 1.366 . S
C322 C321 1.366 . S
C322 C323 1.414 . S
C322 C325 1.499 . S
C323 H297 0.950 . S
C323 C322 1.414 . S
C323 C324 1.374 . S
C324 H298 0.950 . S
C324 C320 1.385 . S
C324 C323 1.374 . S
C325 C322 1.499 . S
C325 C326 1.373 . S
C325 C327 1.389 . S
C326 H299 0.950 . S
C326 C312 1.377 . S
C326 C325 1.373 . S
C327 C311 1.377 . S
C327 C325 1.389 . S
C327 C328 1.524 . S
C328 C327 1.524 . S
C328 C329 1.397 . S
C328 C333 1.363 . S
C329 H300 0.950 . S
C329 C328 1.397 . S
C329 C330 1.334 . S
C330 H301 0.950 . S
C330 C329 1.334 . S
C330 C331 1.287 . S
C331 C330 1.287 . S
C331 C332 1.524 . S
C331 H334 0.999 . S
C332 H302 0.950 . S
C332 C331 1.524 . S
C332 C333 1.415 . S
C333 H303 0.950 . S
C333 C328 1.363 . S
C333 C332 1.415 . S
H334 C331 0.999 . S
H335 C316 0.913 1_545 S
H336 C354 0.951 1_655 S
H337 C356 0.951 1_655 S
H338 C358 0.950 . S
H339 C359 0.950 . S
H340 C361 0.950 . S
H341 C364 0.950 . S
H342 C365 0.950 . S
H343 C367 0.950 . S
H344 C368 0.950 . S
H345 C369 0.951 . S
H346 C371 0.951 . S
H347 C373 0.950 1_655 S
H348 C374 0.950 1_655 S
H349 C376 0.950 . S
H350 C379 0.950 . S
H351 C380 0.950 . S
H352 C382 0.950 . S
H353 C383 0.950 . S
C354 H336 0.951 1_455 S
C354 C355 1.366 . S
C354 C356 1.388 . S
C355 C354 1.366 . S
C355 C359 1.385 . S
C356 H337 0.951 1_455 S
C356 C354 1.388 . S
C356 C357 1.366 . S
C357 C356 1.366 . S
C357 C358 1.414 . S
C357 C360 1.499 . S
C358 H338 0.950 . S
C358 C357 1.414 . S
C358 C359 1.374 . S
C359 H339 0.950 . S
C359 C355 1.385 . S
C359 C358 1.374 . S
C360 C357 1.499 . S
C360 C361 1.373 . S
C360 C362 1.389 . S
C361 H340 0.950 . S
C361 C360 1.373 . S
C361 C377 1.377 . S
C362 C360 1.389 . S
C362 C363 1.524 . S
C362 C376 1.377 . S
C363 C362 1.524 . S
C363 C364 1.397 . S
C363 C368 1.363 1_455 S
C364 H341 0.950 . S
C364 C363 1.397 . S
C364 C365 1.334 . S
C365 H342 0.950 . S
C365 C364 1.334 . S
C365 C366 1.287 1_455 S
C366 C365 1.287 1_655 S
C366 C367 1.524 . S
C366 H385 0.913 . S
C367 H343 0.950 . S
C367 C366 1.524 . S
C367 C368 1.415 . S
C368 H344 0.950 . S
C368 C363 1.363 1_655 S
C368 C367 1.415 . S
C369 H345 0.951 . S
C369 C370 1.366 . S
C369 C371 1.388 . S
C370 C369 1.366 . S
C370 C374 1.385 . S
C371 H346 0.951 . S
C371 C369 1.388 . S
C371 C372 1.366 . S
C372 C371 1.366 . S
C372 C373 1.414 . S
C372 C375 1.499 . S
C373 H347 0.950 1_455 S
C373 C372 1.414 . S
C373 C374 1.374 . S
C374 H348 0.950 1_455 S
C374 C370 1.385 . S
C374 C373 1.374 . S
C375 C372 1.499 . S
C375 C376 1.373 . S
C375 C377 1.389 . S
C376 H349 0.950 . S
C376 C362 1.377 . S
C376 C375 1.373 . S
C377 C361 1.377 . S
C377 C375 1.389 . S
C377 C378 1.524 . S
C378 C377 1.524 . S
C378 C379 1.397 . S
C378 C383 1.363 . S
C379 H350 0.950 . S
C379 C378 1.397 . S
C379 C380 1.334 . S
C380 H351 0.950 . S
C380 C379 1.334 . S
C380 C381 1.287 . S
C381 C380 1.287 . S
C381 C382 1.524 . S
C381 H384 0.999 . S
C382 H352 0.950 . S
C382 C381 1.524 . S
C382 C383 1.415 . S
C383 H353 0.950 . S
C383 C378 1.363 . S
C383 C382 1.415 . S
H384 C381 0.999 . S
H385 C366 0.913 . S
H386 C404 0.951 . S
H387 C406 0.951 . S
H388 C408 0.950 . S
H389 C409 0.950 . S
H390 C411 0.950 . S
H391 C414 0.942 1_545 S
H392 C415 0.950 . S
H393 C417 0.950 . S
H394 C418 0.950 . S
H395 C419 0.951 . S
H396 C421 0.951 . S
H397 C423 0.950 . S
H398 C424 0.950 . S
H399 C426 0.950 . S
H400 C429 0.950 . S
H401 C430 0.950 . S
H402 C432 0.950 . S
H403 C433 0.950 . S
C404 H386 0.951 . S
C404 C405 1.366 1_565 S
C404 C406 1.388 . S
C405 C404 1.366 1_545 S
C405 C409 1.385 . S
C406 H387 0.951 . S
C406 C404 1.388 . S
C406 C407 1.366 1_565 S
C407 C406 1.366 1_545 S
C407 C408 1.414 . S
C407 C410 1.499 . S
C408 H388 0.950 . S
C408 C407 1.414 . S
C408 C409 1.374 . S
C409 H389 0.950 . S
C409 C405 1.385 . S
C409 C408 1.374 . S
C410 C407 1.499 . S
C410 C411 1.373 . S
C410 C412 1.389 1_545 S
C411 H390 0.950 . S
C411 C410 1.373 . S
C411 C427 1.377 . S
C412 C410 1.389 1_565 S
C412 C413 1.524 . S
C412 C426 1.377 . S
C413 C412 1.524 . S
C413 C414 1.397 . S
C413 C418 1.363 . S
C414 H391 0.942 1_565 S
C414 C413 1.397 . S
C414 C415 1.334 . S
C415 H392 0.950 . S
C415 C414 1.334 . S
C415 C416 1.287 . S
C416 C415 1.287 . S
C416 C417 1.524 . S
C416 H435 0.913 . S
C417 H393 0.950 . S
C417 C416 1.524 . S
C417 C418 1.415 . S
C418 H394 0.950 . S
C418 C413 1.363 . S
C418 C417 1.415 . S
C419 H395 0.951 . S
C419 C420 1.366 . S
C419 C421 1.388 . S
C420 C419 1.366 . S
C420 C424 1.385 1_545 S
C421 H396 0.951 . S
C421 C419 1.388 . S
C421 C422 1.366 . S
C422 C421 1.366 . S
C422 C423 1.414 1_545 S
C422 C425 1.499 . S
C423 H397 0.950 . S
C423 C422 1.414 1_565 S
C423 C424 1.374 . S
C424 H398 0.950 . S
C424 C420 1.385 1_565 S
C424 C423 1.374 . S
C425 C422 1.499 . S
C425 C426 1.373 1_545 S
C425 C427 1.389 . S
C426 H399 0.950 . S
C426 C412 1.377 . S
C426 C425 1.373 1_565 S
C427 C411 1.377 . S
C427 C425 1.389 . S
C427 C428 1.524 . S
C428 C427 1.524 . S
C428 C429 1.397 . S
C428 C433 1.363 . S
C429 H400 0.950 . S
C429 C428 1.397 . S
C429 C430 1.334 . S
C430 H401 0.950 . S
C430 C429 1.334 . S
C430 C431 1.287 . S
C431 C430 1.287 . S
C431 C432 1.524 . S
C431 H434 0.999 . S
C432 H402 0.950 . S
C432 C431 1.524 . S
C432 C433 1.415 . S
C433 H403 0.950 . S
C433 C428 1.363 . S
C433 C432 1.415 . S
H434 C431 0.999 . S
H435 C416 0.913 . S
H436 C454 0.951 . S
H437 C456 0.951 . S
H438 C458 0.950 . S
H439 C459 0.950 . S
H440 C461 0.950 . S
H441 C464 0.950 . S
H442 C465 0.950 . S
H443 C467 0.950 . S
H444 C468 0.950 . S
H445 C469 0.951 . S
H446 C471 0.951 . S
H447 C473 0.950 . S
H448 C474 0.950 . S
H449 C476 0.950 . S
H450 C479 0.950 . S
H451 C480 0.950 . S
H452 C482 0.950 . S
H453 C483 0.950 . S
C454 H436 0.951 . S
C454 C455 1.366 . S
C454 C456 1.388 . S
C455 C454 1.366 . S
C455 C459 1.385 . S
C456 H437 0.951 . S
C456 C454 1.388 . S
C456 C457 1.366 . S
C457 C456 1.366 . S
C457 C458 1.414 . S
C457 C460 1.499 . S
C458 H438 0.950 . S
C458 C457 1.414 . S
C458 C459 1.374 . S
C459 H439 0.950 . S
C459 C455 1.385 . S
C459 C458 1.374 . S
C460 C457 1.499 . S
C460 C461 1.373 . S
C460 C462 1.389 . S
C461 H440 0.950 . S
C461 C460 1.373 . S
C461 C477 1.377 . S
C462 C460 1.389 . S
C462 C463 1.524 . S
C462 C476 1.377 . S
C463 C462 1.524 . S
C463 C464 1.397 . S
C463 C468 1.363 . S
C464 H441 0.950 . S
C464 C463 1.397 . S
C464 C465 1.334 . S
C465 H442 0.950 . S
C465 C464 1.334 . S
C465 C466 1.287 . S
C466 C465 1.287 . S
C466 C467 1.524 . S
C466 H485 0.913 . S
C467 H443 0.950 . S
C467 C466 1.524 . S
C467 C468 1.415 . S
C468 H444 0.950 . S
C468 C463 1.363 . S
C468 C467 1.415 . S
C469 H445 0.951 . S
C469 C470 1.366 . S
C469 C471 1.388 . S
C470 C469 1.366 . S
C470 C474 1.385 . S
C471 H446 0.951 . S
C471 C469 1.388 . S
C471 C472 1.366 . S
C472 C471 1.366 . S
C472 C473 1.414 . S
C472 C475 1.499 . S
C473 H447 0.950 . S
C473 C472 1.414 . S
C473 C474 1.374 . S
C474 H448 0.950 . S
C474 C470 1.385 . S
C474 C473 1.374 . S
C475 C472 1.499 . S
C475 C476 1.373 . S
C475 C477 1.389 . S
C476 H449 0.950 . S
C476 C462 1.377 . S
C476 C475 1.373 . S
C477 C461 1.377 . S
C477 C475 1.389 . S
C477 C478 1.524 . S
C478 C477 1.524 . S
C478 C479 1.397 . S
C478 C483 1.363 . S
C479 H450 0.950 . S
C479 C478 1.397 . S
C479 C480 1.334 . S
C480 H451 0.950 . S
C480 C479 1.334 . S
C480 C481 1.287 . S
C481 C480 1.287 . S
C481 C482 1.524 . S
C481 H484 0.999 . S
C482 H452 0.950 . S
C482 C481 1.524 . S
C482 C483 1.415 . S
C483 H453 0.950 . S
C483 C478 1.363 . S
C483 C482 1.415 . S
H484 C481 0.999 . S
H485 C466 0.913 . S
H486 C504 0.951 . S
H487 C506 0.951 . S
H488 C508 0.950 . S
H489 C509 0.950 . S
H490 C511 0.950 1_565 S
H491 C514 0.950 . S
H492 C515 0.950 . S
H493 C517 0.950 . S
H494 C518 0.950 . S
H495 C519 0.951 . S
H496 C521 0.951 . S
H497 C523 0.950 . S
H498 C524 0.950 . S
H499 C526 0.950 . S
H500 C529 0.950 . S
H501 C530 0.950 . S
H502 C532 0.950 . S
H503 C533 0.950 . S
C504 H486 0.951 . S
C504 C505 1.366 . S
C504 C506 1.388 . S
C505 C504 1.366 . S
C505 C509 1.385 . S
C506 H487 0.951 . S
C506 C504 1.388 . S
C506 C507 1.366 . S
C507 C506 1.366 . S
C507 C508 1.414 . S
C507 C510 1.499 . S
C508 H488 0.950 . S
C508 C507 1.414 . S
C508 C509 1.374 . S
C509 H489 0.950 . S
C509 C505 1.385 . S
C509 C508 1.374 . S
C510 C507 1.499 . S
C510 C511 1.373 . S
C510 C512 1.389 . S
C511 H490 0.950 1_545 S
C511 C510 1.373 . S
C511 C527 1.379 1_545 S
C512 C510 1.389 . S
C512 C513 1.524 . S
C512 C526 1.377 . S
C513 C512 1.524 . S
C513 C514 1.397 . S
C513 C518 1.363 . S
C514 H491 0.950 . S
C514 C513 1.397 . S
C514 C515 1.334 . S
C515 H492 0.950 . S
C515 C514 1.334 . S
C515 C516 1.287 . S
C516 C515 1.287 . S
C516 C517 1.524 . S
C516 H535 0.913 . S
C517 H493 0.950 . S
C517 C516 1.524 . S
C517 C518 1.415 . S
C518 H494 0.950 . S
C518 C513 1.363 . S
C518 C517 1.415 . S
C519 H495 0.951 . S
C519 C520 1.366 . S
C519 C521 1.388 . S
C520 C519 1.366 . S
C520 C524 1.385 . S
C521 H496 0.951 . S
C521 C519 1.388 . S
C521 C522 1.366 . S
C522 C521 1.366 . S
C522 C523 1.414 . S
C522 C525 1.499 . S
C523 H497 0.950 . S
C523 C522 1.414 . S
C523 C524 1.374 . S
C524 H498 0.950 . S
C524 C520 1.385 . S
C524 C523 1.374 . S
C525 C522 1.499 . S
C525 C526 1.373 . S
C525 C527 1.385 1_545 S
C526 H499 0.950 . S
C526 C512 1.377 . S
C526 C525 1.373 . S
C527 C511 1.379 1_565 S
C527 C525 1.385 1_565 S
C527 C528 1.527 . S
C528 C527 1.527 . S
C528 C529 1.397 . S
C528 C533 1.363 . S
C529 H500 0.950 . S
C529 C528 1.397 . S
C529 C530 1.334 . S
C530 H501 0.950 . S
C530 C529 1.334 . S
C530 C531 1.287 . S
C531 C530 1.287 . S
C531 C532 1.524 . S
C531 H534 0.999 . S
C532 H502 0.950 . S
C532 C531 1.524 . S
C532 C533 1.415 . S
C533 H503 0.950 . S
C533 C528 1.363 . S
C533 C532 1.415 . S
H534 C531 0.999 . S
H535 C516 0.913 . S
H536 C554 0.951 . S
H537 C556 0.948 1_556 S
H538 C558 0.927 1_556 S
H539 C559 0.950 . S
H540 C561 0.950 . S
H541 C564 0.950 . S
H542 C565 0.950 . S
H543 C567 0.950 . S
H544 C568 0.950 1_556 S
H545 C569 0.951 . S
H546 C571 0.951 . S
H547 C573 0.950 . S
H548 C574 0.950 . S
H549 C576 0.950 . S
H550 C579 0.950 . S
H551 C580 0.950 . S
H552 C582 0.950 . S
H553 C583 0.950 . S
C554 H536 0.951 . S
C554 C555 1.366 . S
C554 C556 1.388 . S
C555 C554 1.366 . S
C555 C559 1.385 . S
C556 H537 0.948 1_554 S
C556 C554 1.388 . S
C556 C557 1.366 1_554 S
C557 C556 1.366 1_556 S
C557 C558 1.399 1_556 S
C557 C560 1.499 . S
C558 H538 0.927 1_554 S
C558 C557 1.399 1_554 S
C558 C559 1.417 . S
C559 H539 0.950 . S
C559 C555 1.385 . S
C559 C558 1.417 . S
C560 C557 1.499 . S
C560 C561 1.373 . S
C560 C562 1.389 . S
C561 H540 0.950 . S
C561 C560 1.373 . S
C561 C577 1.377 . S
C562 C560 1.389 . S
C562 C563 1.524 1_556 S
C562 C576 1.377 . S
C563 C562 1.524 1_554 S
C563 C564 1.397 . S
C563 C568 1.363 . S
C564 H541 0.950 . S
C564 C563 1.397 . S
C564 C565 1.334 . S
C565 H542 0.950 . S
C565 C564 1.334 . S
C565 C566 1.287 . S
C566 C565 1.287 . S
C566 C567 1.524 . S
C566 H585 0.913 . S
C567 H543 0.950 . S
C567 C566 1.524 . S
C567 C568 1.415 . S
C568 H544 0.950 1_554 S
C568 C563 1.363 . S
C568 C567 1.415 . S
C569 H545 0.951 . S
C569 C570 1.366 . S
C569 C571 1.388 . S
C570 C569 1.366 . S
C570 C574 1.385 . S
C571 H546 0.951 . S
C571 C569 1.388 . S
C571 C572 1.366 . S
C572 C571 1.366 . S
C572 C573 1.414 . S
C572 C575 1.499 . S
C573 H547 0.950 . S
C573 C572 1.414 . S
C573 C574 1.374 . S
C574 H548 0.950 . S
C574 C570 1.385 . S
C574 C573 1.374 . S
C575 C572 1.499 . S
C575 C576 1.373 . S
C575 C577 1.389 . S
C576 H549 0.950 . S
C576 C562 1.377 . S
C576 C575 1.373 . S
C577 C561 1.377 . S
C577 C575 1.389 . S
C577 C578 1.524 . S
C578 C577 1.524 . S
C578 C579 1.397 . S
C578 C583 1.363 . S
C579 H550 0.950 . S
C579 C578 1.397 . S
C579 C580 1.334 . S
C580 H551 0.950 . S
C580 C579 1.334 . S
C580 C581 1.287 . S
C581 C580 1.287 . S
C581 C582 1.524 . S
C581 H584 0.999 . S
C582 H552 0.950 . S
C582 C581 1.524 . S
C582 C583 1.415 . S
C583 H553 0.950 . S
C583 C578 1.363 . S
C583 C582 1.415 . S
H584 C581 0.999 . S
H585 C566 0.913 . S
H586 C604 0.951 . S
H587 C606 0.951 . S
H588 C608 0.950 . S
H589 C609 0.950 . S
H590 C611 0.950 . S
H591 C614 0.950 . S
H592 C615 0.949 1_455 S
H593 C617 0.950 . S
H594 C618 0.950 . S
H595 C619 0.951 . S
H596 C621 0.951 . S
H597 C623 0.950 . S
H598 C624 0.963 . S
H599 C626 0.950 1_655 S
H600 C629 0.950 . S
H601 C630 0.950 . S
H602 C632 0.950 . S
H603 C633 0.950 . S
C604 H586 0.951 . S
C604 C605 1.366 1_655 S
C604 C606 1.388 . S
C605 C604 1.366 1_455 S
C605 C609 1.385 . S
C606 H587 0.951 . S
C606 C604 1.388 . S
C606 C607 1.366 1_655 S
C607 C606 1.366 1_455 S
C607 C608 1.414 . S
C607 C610 1.499 . S
C608 H588 0.950 . S
C608 C607 1.414 . S
C608 C609 1.374 . S
C609 H589 0.950 . S
C609 C605 1.385 . S
C609 C608 1.374 . S
C610 C607 1.499 . S
C610 C611 1.373 . S
C610 C612 1.389 . S
C611 H590 0.950 . S
C611 C610 1.373 . S
C611 C627 1.377 . S
C612 C610 1.389 . S
C612 C613 1.524 1_455 S
C612 C626 1.377 . S
C613 C612 1.524 1_655 S
C613 C614 1.397 1_655 S
C613 C618 1.363 . S
C614 H591 0.950 . S
C614 C613 1.397 1_455 S
C614 C615 1.333 1_455 S
C615 H592 0.949 1_655 S
C615 C614 1.333 1_655 S
C615 C616 1.289 . S
C616 C615 1.289 . S
C616 C617 1.524 . S
C616 H635 0.913 . S
C617 H593 0.950 . S
C617 C616 1.524 . S
C617 C618 1.415 . S
C618 H594 0.950 . S
C618 C613 1.363 . S
C618 C617 1.415 . S
C619 H595 0.951 . S
C619 C620 1.366 . S
C619 C621 1.388 . S
C620 C619 1.366 . S
C620 C624 1.358 1_455 S
C621 H596 0.951 . S
C621 C619 1.388 . S
C621 C622 1.366 . S
C622 C621 1.366 . S
C622 C623 1.414 1_455 S
C622 C625 1.499 . S
C623 H597 0.950 . S
C623 C622 1.414 1_655 S
C623 C624 1.388 . S
C624 H598 0.963 . S
C624 C620 1.358 1_655 S
C624 C623 1.388 . S
C625 C622 1.499 . S
C625 C626 1.373 . S
C625 C627 1.389 . S
C626 H599 0.950 1_455 S
C626 C612 1.377 . S
C626 C625 1.373 . S
C627 C611 1.377 . S
C627 C625 1.389 . S
C627 C628 1.524 . S
C628 C627 1.524 . S
C628 C629 1.397 . S
C628 C633 1.363 . S
C629 H600 0.950 . S
C629 C628 1.397 . S
C629 C630 1.334 . S
C630 H601 0.950 . S
C630 C629 1.334 . S
C630 C631 1.287 . S
C631 C630 1.287 . S
C631 C632 1.524 . S
C631 H634 0.999 . S
C632 H602 0.950 . S
C632 C631 1.524 . S
C632 C633 1.415 . S
C633 H603 0.950 . S
C633 C628 1.363 . S
C633 C632 1.415 . S
H634 C631 0.999 . S
H635 C616 0.913 . S
H636 C654 0.946 1_565 S
H637 C656 0.951 . S
H638 C658 0.950 . S
H639 C659 0.950 . S
H640 C661 0.950 . S
H641 C664 0.950 . S
H642 C665 0.950 . S
H643 C667 0.950 . S
H644 C668 0.950 . S
H645 C669 0.951 . S
H646 C671 0.951 . S
H647 C673 0.948 1_565 S
H648 C674 0.967 . S
H649 C676 0.950 . S
H650 C679 0.950 . S
H651 C680 0.950 . S
H652 C682 0.950 . S
H653 C683 0.950 . S
C654 H636 0.946 1_545 S
C654 C655 1.366 . S
C654 C656 1.388 . S
C655 C654 1.366 . S
C655 C659 1.385 . S
C656 H637 0.951 . S
C656 C654 1.388 . S
C656 C657 1.366 . S
C657 C656 1.366 . S
C657 C658 1.414 . S
C657 C660 1.499 . S
C658 H638 0.950 . S
C658 C657 1.414 . S
C658 C659 1.374 . S
C659 H639 0.950 . S
C659 C655 1.385 . S
C659 C658 1.374 . S
C660 C657 1.499 . S
C660 C661 1.373 . S
C660 C662 1.389 . S
C661 H640 0.950 . S
C661 C660 1.373 . S
C661 C677 1.377 . S
C662 C660 1.389 . S
C662 C663 1.524 . S
C662 C676 1.377 . S
C663 C662 1.524 . S
C663 C664 1.397 . S
C663 C668 1.363 . S
C664 H641 0.950 . S
C664 C663 1.397 . S
C664 C665 1.334 . S
C665 H642 0.950 . S
C665 C664 1.334 . S
C665 C666 1.287 . S
C666 C665 1.287 . S
C666 C667 1.524 . S
C666 H685 0.913 . S
C667 H643 0.950 . S
C667 C666 1.524 . S
C667 C668 1.415 . S
C668 H644 0.950 . S
C668 C663 1.363 . S
C668 C667 1.415 . S
C669 H645 0.951 . S
C669 C670 1.366 . S
C669 C671 1.388 . S
C670 C669 1.366 . S
C670 C674 1.385 . S
C671 H646 0.951 . S
C671 C669 1.388 . S
C671 C672 1.366 . S
C672 C671 1.366 . S
C672 C673 1.414 . S
C672 C675 1.499 . S
C673 H647 0.948 1_545 S
C673 C672 1.414 . S
C673 C674 1.374 . S
C674 H648 0.967 . S
C674 C670 1.385 . S
C674 C673 1.374 . S
C675 C672 1.499 . S
C675 C676 1.373 . S
C675 C677 1.389 . S
C676 H649 0.950 . S
C676 C662 1.377 . S
C676 C675 1.373 . S
C677 C661 1.377 . S
C677 C675 1.389 . S
C677 C678 1.524 1_545 S
C678 C677 1.524 1_565 S
C678 C679 1.397 . S
C678 C683 1.363 1_565 S
C679 H650 0.950 . S
C679 C678 1.397 . S
C679 C680 1.334 . S
C680 H651 0.950 . S
C680 C679 1.334 . S
C680 C681 1.287 . S
C681 C680 1.287 . S
C681 C682 1.524 . S
C681 H684 0.999 . S
C682 H652 0.950 . S
C682 C681 1.524 . S
C682 C683 1.415 1_565 S
C683 H653 0.950 . S
C683 C678 1.363 1_545 S
C683 C682 1.415 1_545 S
H684 C681 0.999 . S
H685 C666 0.913 . S
H686 C704 0.951 . S
H687 C706 0.951 . S
H688 C708 0.950 . S
H689 C709 0.950 1_556 S
H690 C711 0.950 . S
H691 C714 0.950 . S
H692 C715 0.950 . S
H693 C717 0.950 . S
H694 C718 0.950 . S
H695 C719 0.951 . S
H696 C721 0.951 . S
H697 C723 0.950 . S
H698 C724 0.950 . S
H699 C726 0.950 . S
H700 C729 0.950 . S
H701 C730 0.950 . S
H702 C732 0.950 . S
H703 C733 0.950 . S
C704 H686 0.951 . S
C704 C705 1.366 . S
C704 C706 1.388 . S
C705 C704 1.366 . S
C705 C709 1.385 . S
C706 H687 0.951 . S
C706 C704 1.388 . S
C706 C707 1.366 1_554 S
C707 C706 1.366 1_556 S
C707 C708 1.414 . S
C707 C710 1.499 . S
C708 H688 0.950 . S
C708 C707 1.414 . S
C708 C709 1.374 1_556 S
C709 H689 0.950 1_554 S
C709 C705 1.385 . S
C709 C708 1.374 1_554 S
C710 C707 1.499 . S
C710 C711 1.373 . S
C710 C712 1.389 . S
C711 H690 0.950 . S
C711 C710 1.373 . S
C711 C727 1.377 . S
C712 C710 1.389 . S
C712 C713 1.524 1_556 S
C712 C726 1.377 . S
C713 C712 1.524 1_554 S
C713 C714 1.397 . S
C713 C718 1.363 . S
C714 H691 0.950 . S
C714 C713 1.397 . S
C714 C715 1.334 . S
C715 H692 0.950 . S
C715 C714 1.334 . S
C715 C716 1.287 . S
C716 C715 1.287 . S
C716 C717 1.524 . S
C716 H735 0.913 . S
C717 H693 0.950 . S
C717 C716 1.524 . S
C717 C718 1.415 . S
C718 H694 0.950 . S
C718 C713 1.363 . S
C718 C717 1.415 . S
C719 H695 0.951 . S
C719 C720 1.366 . S
C719 C721 1.388 . S
C720 C719 1.366 . S
C720 C724 1.385 . S
C721 H696 0.951 . S
C721 C719 1.388 . S
C721 C722 1.366 . S
C722 C721 1.366 . S
C722 C723 1.414 . S
C722 C725 1.499 . S
C723 H697 0.950 . S
C723 C722 1.414 . S
C723 C724 1.374 . S
C724 H698 0.950 . S
C724 C720 1.385 . S
C724 C723 1.374 . S
C725 C722 1.499 . S
C725 C726 1.373 . S
C725 C727 1.389 . S
C726 H699 0.950 . S
C726 C712 1.377 . S
C726 C725 1.373 . S
C727 C711 1.377 . S
C727 C725 1.389 . S
C727 C728 1.524 . S
C728 C727 1.524 . S
C728 C729 1.397 . S
C728 C733 1.363 . S
C729 H700 0.950 . S
C729 C728 1.397 . S
C729 C730 1.334 . S
C730 H701 0.950 . S
C730 C729 1.334 . S
C730 C731 1.287 . S
C731 C730 1.287 . S
C731 C732 1.524 . S
C731 H734 0.999 . S
C732 H702 0.950 . S
C732 C731 1.524 . S
C732 C733 1.415 . S
C733 H703 0.950 . S
C733 C728 1.363 . S
C733 C732 1.415 . S
H734 C731 0.999 . S
H735 C716 0.913 . S
H736 C754 0.951 . S
H737 C756 0.951 . S
H738 C758 0.950 . S
H739 C759 0.950 . S
H740 C761 0.950 . S
H741 C764 0.950 . S
H742 C765 0.950 . S
H743 C767 0.950 . S
H744 C768 0.950 . S
H745 C769 0.951 . S
H746 C771 0.951 . S
H747 C773 0.950 1_655 S
H748 C774 0.950 1_655 S
H749 C776 0.950 . S
H750 C779 0.950 . S
H751 C780 0.950 . S
H752 C782 0.950 . S
H753 C783 0.950 . S
C754 H736 0.951 . S
C754 C755 1.366 1_655 S
C754 C756 1.388 . S
C755 C754 1.366 1_455 S
C755 C759 1.385 . S
C756 H737 0.951 . S
C756 C754 1.388 . S
C756 C757 1.366 1_655 S
C757 C756 1.366 1_455 S
C757 C758 1.414 . S
C757 C760 1.499 . S
C758 H738 0.950 . S
C758 C757 1.414 . S
C758 C759 1.374 . S
C759 H739 0.950 . S
C759 C755 1.385 . S
C759 C758 1.374 . S
C760 C757 1.499 . S
C760 C761 1.373 . S
C760 C762 1.366 1_455 S
C761 H740 0.950 . S
C761 C760 1.373 . S
C761 C777 1.377 . S
C762 C760 1.366 1_655 S
C762 C763 1.536 . S
C762 C776 1.389 . S
C763 C762 1.536 . S
C763 C764 1.397 . S
C763 C768 1.363 . S
C764 H741 0.950 . S
C764 C763 1.397 . S
C764 C765 1.334 . S
C765 H742 0.950 . S
C765 C764 1.334 . S
C765 C766 1.287 . S
C766 C765 1.287 . S
C766 C767 1.524 . S
C766 H785 0.913 . S
C767 H743 0.950 . S
C767 C766 1.524 . S
C767 C768 1.415 . S
C768 H744 0.950 . S
C768 C763 1.363 . S
C768 C767 1.415 . S
C769 H745 0.951 . S
C769 C770 1.366 . S
C769 C771 1.388 . S
C770 C769 1.366 . S
C770 C774 1.385 . S
C771 H746 0.951 . S
C771 C769 1.388 . S
C771 C772 1.366 . S
C772 C771 1.366 . S
C772 C773 1.414 . S
C772 C775 1.499 . S
C773 H747 0.950 1_455 S
C773 C772 1.414 . S
C773 C774 1.374 . S
C774 H748 0.950 1_455 S
C774 C770 1.385 . S
C774 C773 1.374 . S
C775 C772 1.499 . S
C775 C776 1.373 1_455 S
C775 C777 1.389 . S
C776 H749 0.950 . S
C776 C762 1.389 . S
C776 C775 1.373 1_655 S
C777 C761 1.377 . S
C777 C775 1.389 . S
C777 C778 1.524 . S
C778 C777 1.524 . S
C778 C779 1.397 . S
C778 C783 1.363 . S
C779 H750 0.950 . S
C779 C778 1.397 . S
C779 C780 1.334 . S
C780 H751 0.950 . S
C780 C779 1.334 . S
C780 C781 1.287 . S
C781 C780 1.287 . S
C781 C782 1.524 . S
C781 H784 0.999 . S
C782 H752 0.950 . S
C782 C781 1.524 . S
C782 C783 1.415 . S
C783 H753 0.950 . S
C783 C778 1.363 . S
C783 C782 1.415 . S
H784 C781 0.999 . S
H785 C766 0.913 . S
C220 C63 1.459 . S
C205 C0 1.452 . S
C255 C25 1.507 . S
C270 C111 1.509 . S
C305 C33 1.531 . S
C320 C183 1.522 . S
C355 C11 1.459 . S
C370 C87 1.456 . S
C420 C135 1.493 . S
C405 C14 1.492 . S
C455 C37 1.532 . S
C470 C159 1.536 . S
C520 C120 1.493 . S
C505 C28 1.490 . S
C555 C9 1.531 . S
C570 C174 1.538 . S
C620 C78 1.568 . S
C605 C19 1.568 . S
C670 C126 1.508 . S
C655 C39 1.507 . S
C720 C168 1.529 . S
C705 C5 1.530 . S
C755 C23 1.573 . S
C770 C72 1.574 . S
