# Generated by pormake.
# Topology cml, (3,6)-cn, num edge types: 1
# Building blocks:
#     Node 0, Type 0, BuildingBlock: PAMTOO_clean_linker_0, # of connection points: 3
#     Node 1, Type 0, BuildingBlock: PAMTOO_clean_linker_0, # of connection points: 3
#     Node 2, Type 0, BuildingBlock: PAMTOO_clean_linker_0, # of connection points: 3
#     Node 3, Type 0, BuildingBlock: PAMTOO_clean_linker_0, # of connection points: 3
#     Node 4, Type 0, BuildingBlock: PAMTOO_clean_linker_0, # of connection points: 3
#     Node 5, Type 0, BuildingBlock: PAMTOO_clean_linker_0, # of connection points: 3
#     Node 6, Type 0, BuildingBlock: PAMTOO_clean_linker_0, # of connection points: 3
#     Node 7, Type 0, BuildingBlock: PAMTOO_clean_linker_0, # of connection points: 3
#     Node 8, Type 1, BuildingBlock: OJICUG_clean_sbu_0, # of connection points: 6
#     Node 9, Type 1, BuildingBlock: OJICUG_clean_sbu_0, # of connection points: 6
#     Node 10, Type 1, BuildingBlock: OJICUG_clean_sbu_0, # of connection points: 6
#     Node 11, Type 1, BuildingBlock: OJICUG_clean_sbu_0, # of connection points: 6
#     Edge 12, Type (0, 1), BuildingBlock: UVAHIK_clean_linker_0, # of connection points: 2
#     Edge 13, Type (0, 1), BuildingBlock: UVAHIK_clean_linker_0, # of connection points: 2
#     Edge 14, Type (0, 1), BuildingBlock: UVAHIK_clean_linker_0, # of connection points: 2
#     Edge 15, Type (0, 1), BuildingBlock: UVAHIK_clean_linker_0, # of connection points: 2
#     Edge 16, Type (0, 1), BuildingBlock: UVAHIK_clean_linker_0, # of connection points: 2
#     Edge 17, Type (0, 1), BuildingBlock: UVAHIK_clean_linker_0, # of connection points: 2
#     Edge 18, Type (0, 1), BuildingBlock: UVAHIK_clean_linker_0, # of connection points: 2
#     Edge 19, Type (0, 1), BuildingBlock: UVAHIK_clean_linker_0, # of connection points: 2
#     Edge 20, Type (0, 1), BuildingBlock: UVAHIK_clean_linker_0, # of connection points: 2
#     Edge 21, Type (0, 1), BuildingBlock: UVAHIK_clean_linker_0, # of connection points: 2
#     Edge 22, Type (0, 1), BuildingBlock: UVAHIK_clean_linker_0, # of connection points: 2
#     Edge 23, Type (0, 1), BuildingBlock: UVAHIK_clean_linker_0, # of connection points: 2
#     Edge 24, Type (0, 1), BuildingBlock: UVAHIK_clean_linker_0, # of connection points: 2
#     Edge 25, Type (0, 1), BuildingBlock: UVAHIK_clean_linker_0, # of connection points: 2
#     Edge 26, Type (0, 1), BuildingBlock: UVAHIK_clean_linker_0, # of connection points: 2
#     Edge 27, Type (0, 1), BuildingBlock: UVAHIK_clean_linker_0, # of connection points: 2
#     Edge 28, Type (0, 1), BuildingBlock: UVAHIK_clean_linker_0, # of connection points: 2
#     Edge 29, Type (0, 1), BuildingBlock: UVAHIK_clean_linker_0, # of connection points: 2
#     Edge 30, Type (0, 1), BuildingBlock: UVAHIK_clean_linker_0, # of connection points: 2
#     Edge 31, Type (0, 1), BuildingBlock: UVAHIK_clean_linker_0, # of connection points: 2
#     Edge 32, Type (0, 1), BuildingBlock: UVAHIK_clean_linker_0, # of connection points: 2
#     Edge 33, Type (0, 1), BuildingBlock: UVAHIK_clean_linker_0, # of connection points: 2
#     Edge 34, Type (0, 1), BuildingBlock: UVAHIK_clean_linker_0, # of connection points: 2
#     Edge 35, Type (0, 1), BuildingBlock: UVAHIK_clean_linker_0, # of connection points: 2
# Relax obj value: 0.007
# Max RMSD: 0.056
# Mean RMSD: 0.045
data_MOF--net-cml--node1-OJICUG_clean_sbu_0--node2-PAMTOO_clean_linker_0--edge1-UVAHIK_clean_linker_0
_symmetry_space_group_name_H-M    P1
_symmetry_Int_Tables_number       1
_symmetry_cell_setting            triclinic
loop_
_symmetry_equiv_pos_as_xyz
'x, y, z'
_cell_length_a     52.12252
_cell_length_b     51.423185
_cell_length_c     44.981784
_cell_angle_alpha  89.938938
_cell_angle_beta   88.296552
_cell_angle_gamma 89.943636
loop_
_atom_site_label
_atom_site_type_symbol
_atom_site_fract_x
_atom_site_fract_y
_atom_site_fract_z
_atom_type_partial_charge
H0 H 0.31038 0.41549 0.03972 0.0
H1 H 0.26464 0.40172 0.96326 0.0
H2 H 0.25535 0.35306 0.04035 0.0
H3 H 0.26035 0.3269 0.98258 0.0
C4 C 0.24884 0.34048 0.96901 0.0
O5 O 0.2408 0.36139 0.98603 0.0
H6 H 0.26132 0.34734 0.95008 0.0
C7 C 0.29528 0.40481 0.02903 0.0
C8 C 0.28333 0.38388 0.04396 0.0
C9 C 0.28878 0.41142 -7e-05 0.0
C10 C 0.26956 0.39728 0.98595 0.0
C11 C 0.25774 0.37619 0.00051 0.0
C12 C 0.26448 0.36958 0.02947 0.0
H13 H 0.68973 0.57493 0.52881 0.0
H14 H 0.754 0.6267 0.53617 0.0
H15 H 0.74194 0.58665 0.45403 0.0
H16 H 0.79682 0.59059 0.46988 0.0
C17 C 0.79566 0.60897 0.4829 0.0
O18 O 0.77132 0.61927 0.48159 0.0
H19 H 0.8003 0.60445 0.50635 0.0
C20 C 0.70685 0.58388 0.51907 0.0
C21 C 0.71395 0.57871 0.48934 0.0
C22 C 0.72116 0.60108 0.53615 0.0
C23 C 0.74295 0.61307 0.52339 0.0
C24 C 0.75063 0.60738 0.49399 0.0
C25 C 0.7362 0.59025 0.47701 0.0
H26 H 0.69773 0.43519 0.03434 0.0
H27 H 0.74301 0.36517 0.03518 0.0
H28 H 0.74299 0.41284 0.95695 0.0
H29 H 0.73816 0.35797 0.94546 0.0
C30 C 0.74914 0.34986 0.9642 0.0
O31 O 0.75977 0.3698 0.98016 0.0
H32 H 0.73556 0.33849 0.9787 0.0
C33 C 0.71178 0.42242 0.0237 0.0
C34 C 0.71984 0.42725 0.99414 0.0
C35 C 0.71995 0.40011 0.03881 0.0
C36 C 0.73674 0.3827 0.02414 0.0
C37 C 0.74492 0.3874 0.99471 0.0
C38 C 0.73673 0.40969 0.97985 0.0
H39 H 0.31256 0.58203 0.52387 0.0
H40 H 0.25057 0.59593 0.46484 0.0
H41 H 0.26711 0.65165 0.53281 0.0
H42 H 0.21292 0.64404 0.5253 0.0
C43 C 0.21264 0.63896 0.50128 0.0
O44 O 0.23712 0.64048 0.48892 0.0
H45 H 0.20534 0.61873 0.49914 0.0
C46 C 0.29677 0.59408 0.51679 0.0
C47 C 0.29175 0.61779 0.53119 0.0
C48 C 0.28206 0.58596 0.49292 0.0
C49 C 0.26194 0.60178 0.48346 0.0
C50 C 0.25638 0.62523 0.49819 0.0
C51 C 0.27126 0.63324 0.52198 0.0
H52 H 0.8074 0.92104 0.03551 0.0
H53 H 0.76052 0.90167 0.9616 0.0
H54 H 0.75969 0.85272 0.03887 0.0
H55 H 0.76338 0.82569 0.98235 0.0
C56 C 0.7511 0.8385 0.96873 0.0
O57 O 0.74206 0.85908 0.98564 0.0
H58 H 0.76307 0.84585 0.94961 0.0
C59 C 0.79294 0.90883 0.02577 0.0
C60 C 0.78424 0.88657 0.04112 0.0
C61 C 0.78456 0.91454 0.9971 0.0
C62 C 0.76705 0.89777 0.98381 0.0
C63 C 0.7582 0.87558 -0.00104 0.0
C64 C 0.76661 0.87007 0.02756 0.0
H65 H 0.19614 0.06753 0.53759 0.0
H66 H 0.25619 0.12475 0.54098 0.0
H67 H 0.24971 0.07668 0.46366 0.0
H68 H 0.3034 0.08707 0.47935 0.0
C69 C 0.30039 0.10584 0.49125 0.0
O70 O 0.27548 0.11413 0.4881 0.0
H71 H 0.30438 0.10265 0.51517 0.0
C72 C 0.21313 0.0766 0.52774 0.0
C73 C 0.22163 0.06927 0.49905 0.0
C74 C 0.22535 0.09661 0.54311 0.0
C75 C 0.24652 0.10919 0.52957 0.0
C76 C 0.25536 0.10172 0.50114 0.0
C77 C 0.24286 0.08199 0.48582 0.0
H78 H 0.19941 0.93535 0.03506 0.0
H79 H 0.24336 0.86446 0.03503 0.0
H80 H 0.24348 0.91237 0.957 0.0
H81 H 0.23716 0.85787 0.94553 0.0
C82 C 0.24851 0.84937 0.96374 0.0
O83 O 0.25965 0.86894 0.9798 0.0
H84 H 0.23516 0.83787 0.9784 0.0
C85 C 0.21308 0.92234 0.02416 0.0
C86 C 0.22091 0.92709 0.9945 0.0
C87 C 0.22102 0.89985 0.0391 0.0
C88 C 0.23729 0.88213 0.02412 0.0
C89 C 0.24527 0.88677 0.99461 0.0
C90 C 0.23735 0.90926 0.97996 0.0
H91 H 0.80459 0.07685 0.53372 0.0
H92 H 0.75031 0.09812 0.4676 0.0
H93 H 0.75556 0.1434 0.54728 0.0
H94 H 0.70282 0.13535 0.5276 0.0
C95 C 0.70668 0.13394 0.50318 0.0
O96 O 0.73232 0.1384 0.49686 0.0
H97 H 0.70133 0.11401 0.49598 0.0
C98 C 0.78905 0.08912 0.52646 0.0
C99 C 0.78112 0.11028 0.54418 0.0
C100 C 0.7782 0.08449 0.49877 0.0
C101 C 0.75899 0.10131 0.48888 0.0
C102 C 0.75076 0.12232 0.50654 0.0
C103 C 0.76194 0.12694 0.53398 0.0
Sc104 Sc -0.00038 0.8274 0.31225 0.0
Sc105 Sc 0.99604 0.89588 0.31427 0.0
Sc106 Sc 0.99272 0.86013 0.38099 0.0
O107 O 0.99611 0.8611 0.33584 0.0
C108 C 0.95861 0.81153 0.36347 0.0
C109 C 0.96127 0.86052 0.27315 0.0
C110 C 0.95345 0.90559 0.36544 0.0
C111 C 0.03853 0.86464 0.27635 0.0
C112 C 0.03465 0.81576 0.36761 0.0
C113 C 0.03055 0.90821 0.36987 0.0
O114 O 0.96982 0.80817 0.33826 0.0
O115 O 0.96882 0.88241 0.28269 0.0
O116 O 0.9617 0.88803 0.38265 0.0
O117 O 0.03012 0.84223 0.28347 0.0
O118 O 0.02311 0.83197 0.38467 0.0
O119 O 0.02325 0.91288 0.34368 0.0
O120 O 0.02873 0.81234 0.34066 0.0
O121 O 0.02816 0.8855 0.28582 0.0
O122 O 0.02111 0.89002 0.3859 0.0
O123 O 0.97066 0.839 0.28164 0.0
O124 O 0.96439 0.82986 0.38096 0.0
O125 O 0.96399 0.91054 0.34027 0.0
Sc126 Sc 0.00087 0.17542 0.8097 0.0
Sc127 Sc 0.00197 0.10686 0.81403 0.0
Sc128 Sc -0.00112 0.1441 0.87958 0.0
O129 O 0.00056 0.14215 0.83443 0.0
C130 C 0.03693 0.19089 0.86304 0.0
C131 C 0.0416 0.1401 0.77396 0.0
C132 C 0.03908 0.09805 0.8683 0.0
C133 C 0.96419 0.13862 0.77273 0.0
C134 C 0.96008 0.18911 0.86173 0.0
C135 C 0.96174 0.09613 0.86744 0.0
O136 O 0.02921 0.19373 0.83668 0.0
O137 O 0.03257 0.11875 0.78392 0.0
O138 O 0.02927 0.11616 0.88416 0.0
O139 O 0.97248 0.16092 0.77995 0.0
O140 O 0.96853 0.17239 0.87983 0.0
O141 O 0.97157 0.09095 0.84194 0.0
O142 O 0.96984 0.19248 0.83576 0.0
O143 O 0.97309 0.1176 0.78316 0.0
O144 O 0.96973 0.11457 0.88351 0.0
O145 O 0.03206 0.16208 0.78105 0.0
O146 O 0.02768 0.17391 0.88086 0.0
O147 O 0.03103 0.09229 0.84274 0.0
Sc148 Sc 0.49839 0.32417 0.31173 0.0
Sc149 Sc 0.49241 0.39248 0.31274 0.0
Sc150 Sc 0.49506 0.35794 0.3801 0.0
O151 O 0.49528 0.35815 0.33488 0.0
C152 C 0.46092 0.30817 0.36621 0.0
C153 C 0.45693 0.35531 0.27477 0.0
C154 C 0.45274 0.40123 0.3671 0.0
C155 C 0.53429 0.36212 0.27283 0.0
C156 C 0.53712 0.31441 0.36434 0.0
C157 C 0.52993 0.40746 0.36475 0.0
O158 O 0.4702 0.30496 0.33999 0.0
O159 O 0.46397 0.37754 0.28371 0.0
O160 O 0.46304 0.3845 0.38384 0.0
O161 O 0.52725 0.3395 0.28109 0.0
O162 O 0.52678 0.33116 0.38169 0.0
O163 O 0.52052 0.41119 0.33936 0.0
O164 O 0.52911 0.30993 0.33841 0.0
O165 O 0.52332 0.38272 0.2822 0.0
O166 O 0.52258 0.38913 0.38197 0.0
O167 O 0.46771 0.33431 0.28266 0.0
O168 O 0.46789 0.32651 0.3831 0.0
O169 O 0.4613 0.4062 0.34098 0.0
Sc170 Sc 0.50223 0.67653 0.80968 0.0
Sc171 Sc 0.50107 0.60801 0.81286 0.0
Sc172 Sc 0.49743 0.6443 0.87905 0.0
O173 O 0.50021 0.64298 0.83386 0.0
C174 C 0.53712 0.69027 0.86458 0.0
C175 C 0.54274 0.64038 0.77481 0.0
C176 C 0.53671 0.59747 0.86815 0.0
C177 C 0.46561 0.64152 0.77054 0.0
C178 C 0.46022 0.6904 0.86047 0.0
C179 C 0.45955 0.59734 0.86482 0.0
O180 O 0.53024 0.69352 0.83797 0.0
O181 O 0.53266 0.61934 0.78419 0.0
O182 O 0.52713 0.61569 0.88402 0.0
O183 O 0.47439 0.66339 0.77859 0.0
O184 O 0.46769 0.67317 0.87856 0.0
O185 O 0.46968 0.59268 0.83936 0.0
O186 O 0.47093 0.69404 0.83501 0.0
O187 O 0.47342 0.62004 0.78099 0.0
O188 O 0.46763 0.61516 0.88173 0.0
O189 O 0.53384 0.66268 0.78175 0.0
O190 O 0.52686 0.67347 0.88192 0.0
O191 O 0.52894 0.59217 0.84232 0.0
C192 C 0.2167 0.33211 0.92936 0.0
C193 C 0.22589 0.32648 0.95766 0.0
C194 C 0.19534 0.31899 0.91886 0.0
C195 C 0.13879 0.28069 0.94378 0.0
H196 H 0.14158 0.25412 0.86307 0.0
C197 C 0.06689 0.20504 0.90244 0.0
C198 C 0.05772 0.20793 0.87353 0.0
C199 C 0.08662 0.22084 0.91238 0.0
C200 C 0.14035 0.26173 0.88552 0.0
H201 H 0.21957 0.30384 0.99776 0.0
H202 H 0.18232 0.28058 0.97938 0.0
H203 H 0.17737 0.27951 0.8812 0.0
H204 H 0.06213 0.2299 0.83245 0.0
H205 H 0.09646 0.25762 0.84996 0.0
H206 H 0.10187 0.26275 0.94819 0.0
C207 C 0.19156 0.29507 0.96524 0.0
C208 C 0.16085 0.27626 0.8959 0.0
C209 C 0.21295 0.30817 0.97569 0.0
C210 C 0.06873 0.22709 0.85482 0.0
C211 C 0.0885 0.2429 0.86479 0.0
C212 C 0.11829 0.26619 0.93339 0.0
C213 C 0.18263 0.30021 0.93662 0.0
C214 C 0.16039 0.28571 0.92522 0.0
C215 C 0.09766 0.23993 0.89368 0.0
C216 C 0.11894 0.25634 0.90424 0.0
H217 H 0.22615 0.34655 0.91534 0.0
H218 H 0.18865 0.32368 0.89692 0.0
H219 H 0.13769 0.28809 0.96632 0.0
H220 H 0.05897 0.19044 0.91747 0.0
H221 H 0.09351 0.21779 0.93459 0.0
C222 C 0.82146 0.6498 0.48805 0.0
C223 C 0.81431 0.62863 0.47053 0.0
C224 C 0.83694 0.6695 0.47594 0.0
C225 C 0.85679 0.69909 0.40412 0.0
H226 H 0.91018 0.73017 0.45061 0.0
C227 C 0.93275 0.77103 0.35587 0.0
C228 C 0.93923 0.79225 0.37387 0.0
C229 C 0.9164 0.75154 0.3669 0.0
C230 C 0.89515 0.72188 0.43749 0.0
H231 H 0.81709 0.61147 0.42663 0.0
H232 H 0.84475 0.64561 0.40548 0.0
H233 H 0.88485 0.69443 0.4715 0.0
H234 H 0.93263 0.81011 0.4172 0.0
H235 H 0.90409 0.77619 0.43622 0.0
H236 H 0.86735 0.72649 0.36999 0.0
C237 C 0.83832 0.64711 0.42853 0.0
C238 C 0.88065 0.7014 0.44944 0.0
C239 C 0.82277 0.62745 0.44066 0.0
C240 C 0.92823 0.79399 0.40274 0.0
C241 C 0.91199 0.77447 0.41376 0.0
C242 C 0.87139 0.71953 0.39211 0.0
C243 C 0.84544 0.66845 0.44599 0.0
C244 C 0.86124 0.68982 0.43295 0.0
C245 C 0.90627 0.75282 0.39615 0.0
C246 C 0.89063 0.7312 0.40874 0.0
H247 H 0.81462 0.65132 0.51097 0.0
H248 H 0.84167 0.68588 0.48985 0.0
H249 H 0.84172 0.69086 0.39101 0.0
H250 H 0.94081 0.76908 0.33351 0.0
H251 H 0.91241 0.73501 0.35287 0.0
C252 C 0.78147 0.33676 0.92429 0.0
C253 C 0.77018 0.33245 0.95257 0.0
C254 C 0.80181 0.32119 0.91399 0.0
C255 C 0.85311 0.27857 0.94038 0.0
H256 H 0.85494 0.2528 0.85933 0.0
C257 C 0.92632 0.20178 0.8998 0.0
C258 C 0.93798 0.20543 0.87151 0.0
C259 C 0.90572 0.21732 0.90928 0.0
C260 C 0.85483 0.26009 0.88191 0.0
H261 H 0.77158 0.30935 0.99272 0.0
H262 H 0.80701 0.2818 0.97466 0.0
H263 H 0.81912 0.27993 0.87675 0.0
H264 H 0.93691 0.22827 0.83093 0.0
H265 H 0.90108 0.25556 0.84768 0.0
H266 H 0.8888 0.25881 0.94557 0.0
C267 C 0.80017 0.29714 0.96039 0.0
C268 C 0.83433 0.27561 0.89188 0.0
C269 C 0.77981 0.31269 0.97064 0.0
C270 C 0.9284 0.22489 0.85284 0.0
C271 C 0.90777 0.24045 0.86236 0.0
C272 C 0.8736 0.26309 0.93041 0.0
C273 C 0.81139 0.30124 0.93196 0.0
C274 C 0.83322 0.28494 0.92125 0.0
C275 C 0.89629 0.2369 0.89073 0.0
C276 C 0.87464 0.25361 0.90111 0.0
H277 H 0.77463 0.35228 0.91027 0.0
H278 H 0.81035 0.32509 0.8922 0.0
H279 H 0.85301 0.28584 0.96297 0.0
H280 H 0.93306 0.18688 0.91474 0.0
H281 H 0.89702 0.21384 0.93109 0.0
C282 C 0.20269 0.68405 0.4828 0.0
C283 C 0.19543 0.65789 0.48592 0.0
C284 C 0.18665 0.7018 0.4689 0.0
C285 C 0.13118 0.70535 0.41917 0.0
H286 H 0.12474 0.77531 0.45056 0.0
C287 C 0.07054 0.78339 0.36148 0.0
C288 C 0.05527 0.79951 0.38004 0.0
C289 C 0.0891 0.76715 0.37348 0.0
C290 C 0.12619 0.7558 0.44161 0.0
H291 H 0.16543 0.62987 0.478 0.0
H292 H 0.13706 0.66091 0.45429 0.0
H293 H 0.15348 0.74455 0.47378 0.0
H294 H 0.04787 0.81138 0.42581 0.0
H295 H 0.07976 0.78274 0.4467 0.0
H296 H 0.10313 0.71627 0.38776 0.0
C297 C 0.15548 0.66763 0.46171 0.0
C298 C 0.14294 0.73824 0.4547 0.0
C299 C 0.17162 0.64986 0.47544 0.0
C300 C 0.05933 0.79932 0.41081 0.0
C301 C 0.07776 0.78296 0.4228 0.0
C302 C 0.11433 0.72286 0.40619 0.0
C303 C 0.16282 0.69382 0.45819 0.0
C304 C 0.14553 0.71274 0.44375 0.0
C305 C 0.09274 0.76652 0.40433 0.0
C306 C 0.11151 0.74826 0.41736 0.0
H307 H 0.22087 0.69071 0.49102 0.0
H308 H 0.19304 0.72173 0.46632 0.0
H309 H 0.13297 0.68599 0.40988 0.0
H310 H 0.06808 0.78318 0.33766 0.0
H311 H 0.1006 0.75507 0.35855 0.0
C312 C 0.71692 0.80439 0.97604 0.0
C313 C 0.72877 0.82325 0.95776 0.0
C314 C 0.69576 0.79054 0.96617 0.0
C315 C 0.66351 0.77141 0.89782 0.0
H316 H 0.60558 0.7575 0.95157 0.0
C317 C 0.56978 0.72574 0.85757 0.0
C318 C 0.55831 0.70644 0.87571 0.0
C319 C 0.59015 0.74055 0.86779 0.0
C320 C 0.62173 0.76099 0.93639 0.0
H321 H 0.72736 0.84342 0.91559 0.0
H322 H 0.6903 0.81924 0.89819 0.0
H323 H 0.64202 0.78232 0.96908 0.0
H324 H 0.55931 0.68772 0.91898 0.0
H325 H 0.59498 0.71339 0.93661 0.0
H326 H 0.64334 0.74998 0.86518 0.0
C327 C 0.69768 0.81469 0.91985 0.0
C328 C 0.64259 0.77521 0.94641 0.0
C329 C 0.7188 0.82855 0.92977 0.0
C330 C 0.56759 0.70247 0.90441 0.0
C331 C 0.58798 0.71728 0.91461 0.0
C332 C 0.64268 0.75717 0.88781 0.0
C333 C 0.68598 0.79547 0.93791 0.0
C334 C 0.66371 0.78055 0.92724 0.0
C335 C 0.59955 0.73641 0.89637 0.0
C336 C 0.62156 0.75178 0.90698 0.0
H337 H 0.72412 0.80032 -0.00209 0.0
H338 H 0.68727 0.77575 0.98051 0.0
H339 H 0.67968 0.77486 0.88265 0.0
H340 H 0.5631 0.72942 0.83539 0.0
H341 H 0.59842 0.75539 0.85335 0.0
C342 C 0.32463 0.14777 0.49602 0.0
C343 C 0.3181 0.12627 0.47865 0.0
C344 C 0.33955 0.16784 0.48376 0.0
C345 C 0.35875 0.19761 0.41189 0.0
H346 H 0.41306 0.22835 0.45726 0.0
C347 C 0.43453 0.26777 0.36074 0.0
C348 C 0.44207 0.28899 0.37814 0.0
C349 C 0.41821 0.24869 0.37273 0.0
C350 C 0.39775 0.2202 0.44446 0.0
H351 H 0.32116 0.10904 0.43482 0.0
H352 H 0.34774 0.14389 0.41337 0.0
H353 H 0.38751 0.19305 0.47885 0.0
H354 H 0.43757 0.30718 0.42155 0.0
H355 H 0.40896 0.274 0.44228 0.0
H356 H 0.36914 0.22469 0.37742 0.0
C357 C 0.34134 0.14531 0.43644 0.0
C358 C 0.38313 0.19996 0.45682 0.0
C359 C 0.3264 0.12526 0.44873 0.0
C360 C 0.43231 0.29104 0.40754 0.0
C361 C 0.41603 0.27195 0.41951 0.0
C362 C 0.3734 0.21785 0.39952 0.0
C363 C 0.34801 0.16687 0.4538 0.0
C364 C 0.3635 0.1884 0.44065 0.0
C365 C 0.40908 0.25039 0.40237 0.0
C366 C 0.39307 0.22933 0.41566 0.0
H367 H 0.31787 0.14917 0.51898 0.0
H368 H 0.34399 0.18438 0.49757 0.0
H369 H 0.34349 0.18939 0.39906 0.0
H370 H 0.44163 0.26555 0.33801 0.0
H371 H 0.41335 0.2322 0.35904 0.0
C372 C 0.27845 0.81129 0.96787 0.0
C373 C 0.26917 0.83203 0.95102 0.0
C374 C 0.29844 0.79575 0.9566 0.0
C375 C 0.35255 0.79602 0.90217 0.0
H376 H 0.35021 0.72129 0.91361 0.0
C377 C 0.42905 0.72651 0.85075 0.0
C378 C 0.43792 0.70675 0.86951 0.0
C379 C 0.40791 0.74175 0.85942 0.0
C380 C 0.35123 0.74215 0.91045 0.0
H381 H 0.27381 0.85358 0.90987 0.0
H382 H 0.30863 0.82618 0.88981 0.0
H383 H 0.31419 0.748 0.93112 0.0
H384 H 0.43141 0.68758 0.91216 0.0
H385 H 0.39483 0.71427 0.92723 0.0
H386 H 0.3897 0.79015 0.88167 0.0
C387 C 0.30047 0.82185 0.91168 0.0
C388 C 0.33061 0.75744 0.92048 0.0
C389 C 0.28046 0.83737 0.92298 0.0
C390 C 0.42514 0.70259 0.89709 0.0
C391 C 0.40402 0.71776 0.90568 0.0
C392 C 0.37318 0.78071 0.89211 0.0
C393 C 0.30966 0.80086 0.92838 0.0
C394 C 0.33114 0.78456 0.91668 0.0
C395 C 0.39516 0.73748 0.88696 0.0
C396 C 0.37282 0.75365 0.89639 0.0
H397 H 0.27033 0.80723 0.98983 0.0
H398 H 0.30543 0.78004 0.97023 0.0
H399 H 0.35367 0.8169 0.89925 0.0
H400 H 0.43837 0.73022 0.82934 0.0
H401 H 0.40136 0.75667 0.84441 0.0
C402 C 0.68537 0.14976 0.45703 0.0
C403 C 0.69097 0.15361 0.48702 0.0
C404 C 0.67104 0.16817 0.44178 0.0
C405 C 0.64968 0.23688 0.44432 0.0
H406 H 0.59554 0.21211 0.39432 0.0
C407 C 0.56757 0.30239 0.40431 0.0
C408 C 0.55849 0.29841 0.37552 0.0
C409 C 0.58612 0.2859 0.41586 0.0
C410 C 0.61084 0.21937 0.40781 0.0
H411 H 0.68719 0.18003 0.52431 0.0
H412 H 0.66169 0.21209 0.4979 0.0
H413 H 0.62324 0.18092 0.41853 0.0
H414 H 0.56271 0.27453 0.33588 0.0
H415 H 0.59519 0.24592 0.35604 0.0
H416 H 0.63693 0.27535 0.43394 0.0
C417 C 0.66836 0.19492 0.48608 0.0
C418 C 0.62671 0.20148 0.42171 0.0
C419 C 0.68271 0.17651 0.5013 0.0
C420 C 0.5691 0.2781 0.3582 0.0
C421 C 0.58762 0.26158 0.3698 0.0
C422 C 0.63377 0.25478 0.43043 0.0
C423 C 0.66222 0.19089 0.45619 0.0
C424 C 0.64617 0.21001 0.44035 0.0
C425 C 0.59603 0.26504 0.39893 0.0
C426 C 0.61403 0.24621 0.41222 0.0
H427 H 0.69205 0.13246 0.44546 0.0
H428 H 0.66703 0.16469 0.41864 0.0
H429 H 0.66476 0.2441 0.45815 0.0
H430 H 0.55992 0.31786 0.41829 0.0
H431 H 0.59201 0.28895 0.43848 0.0
C432 C 0.33061 0.43117 0.98386 0.0
C433 C 0.30368 0.43157 0.98347 0.0
C434 C 0.345 0.44988 0.96842 0.0
C435 C 0.37012 0.48169 0.91909 0.0
H436 H 0.35447 0.55499 0.92899 0.0
C437 C 0.42938 0.56009 0.85772 0.0
C438 C 0.43799 0.58065 0.87547 0.0
C439 C 0.41032 0.54319 0.8684 0.0
C440 C 0.35901 0.53458 0.92602 0.0
H441 H 0.27064 0.4518 0.96665 0.0
H442 H 0.29601 0.48492 0.9396 0.0
H443 H 0.32626 0.52231 0.95242 0.0
H444 H 0.43242 0.60011 0.918 0.0
H445 H 0.39923 0.57039 0.93668 0.0
H446 H 0.40314 0.49375 0.8934 0.0
C447 C 0.30585 0.47004 0.95196 0.0
C448 C 0.34278 0.51592 0.93917 0.0
C449 C 0.29139 0.45107 0.96723 0.0
C450 C 0.42636 0.58443 0.90377 0.0
C451 C 0.4072 0.56752 0.91442 0.0
C452 C 0.3862 0.50027 0.90579 0.0
C453 C 0.33281 0.46951 0.95233 0.0
C454 C 0.34846 0.48932 0.93625 0.0
C455 C 0.39934 0.54644 0.89704 0.0
C456 C 0.38103 0.52692 0.90945 0.0
H457 H 0.34059 0.41617 0.9959 0.0
H458 H 0.36574 0.44915 0.96935 0.0
H459 H 0.37482 0.4613 0.91625 0.0
H460 H 0.43769 0.55669 0.83572 0.0
H461 H 0.40438 0.52733 0.85435 0.0
C462 C 0.70763 0.54188 0.45368 0.0
C463 C 0.69731 0.56217 0.47117 0.0
C464 C 0.69142 0.52538 0.43816 0.0
C465 C 0.65056 0.48392 0.4275 0.0
H466 H 0.591 0.51116 0.38813 0.0
C467 C 0.56251 0.42104 0.40167 0.0
C468 C 0.55066 0.42498 0.37434 0.0
C469 C 0.58219 0.43746 0.41051 0.0
C470 C 0.60769 0.50323 0.39872 0.0
H471 H 0.66222 0.58193 0.4851 0.0
H472 H 0.634 0.55317 0.45827 0.0
H473 H 0.6227 0.54109 0.40737 0.0
H474 H 0.55055 0.4492 0.33473 0.0
H475 H 0.58487 0.47775 0.35023 0.0
H476 H 0.63539 0.44604 0.41905 0.0
C477 C 0.65453 0.54993 0.45645 0.0
C478 C 0.62572 0.52038 0.40995 0.0
C479 C 0.67065 0.56622 0.47207 0.0
C480 C 0.5591 0.44565 0.35601 0.0
C481 C 0.57874 0.46208 0.36489 0.0
C482 C 0.63245 0.46675 0.41635 0.0
C483 C 0.66468 0.52915 0.43961 0.0
C484 C 0.64711 0.51092 0.42489 0.0
C485 C 0.59045 0.45821 0.39227 0.0
C486 C 0.61063 0.47625 0.40225 0.0
H487 H 0.72813 0.53835 0.45268 0.0
H488 H 0.69976 0.50961 0.42517 0.0
H489 H 0.66676 0.47607 0.4391 0.0
H490 H 0.55655 0.40531 0.41634 0.0
H491 H 0.59062 0.4342 0.43193 0.0
C492 C 0.70421 0.47327 0.99139 0.0
C493 C 0.70824 0.44904 0.9776 0.0
C494 C 0.68948 0.49234 0.97784 0.0
C495 C 0.65949 0.51158 0.90742 0.0
H496 H 0.60646 0.54001 0.96029 0.0
C497 C 0.56796 0.56037 0.86452 0.0
C498 C 0.55824 0.58218 0.87999 0.0
C499 C 0.58844 0.54615 0.87559 0.0
C500 C 0.62137 0.53264 0.94528 0.0
H501 H 0.70111 0.42631 0.93811 0.0
H502 H 0.67548 0.45963 0.91441 0.0
H503 H 0.63981 0.51265 0.98042 0.0
H504 H 0.56282 0.60637 0.91903 0.0
H505 H 0.59865 0.58174 0.93807 0.0
H506 H 0.64074 0.53133 0.87219 0.0
C507 C 0.68386 0.46397 0.93559 0.0
C508 C 0.64053 0.51697 0.95683 0.0
C509 C 0.69858 0.44488 0.94915 0.0
C510 C 0.56962 0.58954 0.90665 0.0
C511 C 0.59015 0.57538 0.91764 0.0
C512 C 0.64034 0.52736 0.89585 0.0
C513 C 0.67849 0.48758 0.95022 0.0
C514 C 0.65964 0.50605 0.93801 0.0
C515 C 0.59973 0.55346 0.90231 0.0
C516 C 0.6209 0.53782 0.91462 0.0
H517 H 0.71177 0.47716 0.01311 0.0
H518 H 0.68606 0.51055 0.98938 0.0
H519 H 0.67412 0.50362 0.89243 0.0
H520 H 0.55966 0.55413 0.84393 0.0
H521 H 0.5951 0.52913 0.86347 0.0
C522 C 0.29583 0.56193 0.44688 0.0
C523 C 0.28919 0.56161 0.47734 0.0
C524 C 0.30808 0.54046 0.43365 0.0
C525 C 0.35062 0.48772 0.45606 0.0
H526 H 0.34599 0.46564 0.37403 0.0
C527 C 0.41896 0.4102 0.40676 0.0
C528 C 0.43 0.41586 0.37859 0.0
C529 C 0.39818 0.42471 0.418 0.0
C530 C 0.34755 0.47168 0.39697 0.0
H531 H 0.28778 0.53804 0.51726 0.0
H532 H 0.3085 0.5003 0.49408 0.0
H533 H 0.31453 0.49646 0.39484 0.0
H534 H 0.42726 0.44084 0.33983 0.0
H535 H 0.39141 0.46637 0.3597 0.0
H536 H 0.38395 0.4637 0.45811 0.0
C537 C 0.305 0.5173 0.48055 0.0
C538 C 0.32952 0.48929 0.40887 0.0
C539 C 0.293 0.53879 0.49377 0.0
C540 C 0.41932 0.43594 0.36164 0.0
C541 C 0.39858 0.45047 0.37293 0.0
C542 C 0.36858 0.47019 0.4442 0.0
C543 C 0.3137 0.5183 0.45068 0.0
C544 C 0.33105 0.49773 0.43848 0.0
C545 C 0.38798 0.44525 0.40139 0.0
C546 C 0.36749 0.46221 0.41442 0.0
H547 H 0.29322 0.57941 0.43383 0.0
H548 H 0.31463 0.54193 0.41064 0.0
H549 H 0.35276 0.49423 0.47874 0.0
H550 H 0.4265 0.39471 0.42032 0.0
H551 H 0.39021 0.41994 0.43984 0.0
C552 C 0.80562 0.93372 0.95133 0.0
C553 C 0.79589 0.93689 0.98057 0.0
C554 C 0.81984 0.95356 0.93742 0.0
C555 C 0.86096 0.00814 0.95754 0.0
H556 H 0.86046 0.0243 0.87335 0.0
C557 C 0.92747 0.08626 0.90612 0.0
C558 C 0.9401 0.07999 0.879 0.0
C559 C 0.90747 0.07076 0.9174 0.0
C560 C 0.86091 0.01986 0.89687 0.0
H561 H 0.79169 0.96392 0.01732 0.0
H562 H 0.81628 -0.00134 0.99296 0.0
H563 H 0.82867 0.99416 0.8947 0.0
H564 H 0.94115 0.05264 0.84223 0.0
H565 H 0.90655 0.02538 0.86221 0.0
H566 H 0.89344 0.03328 0.95974 0.0
C567 C 0.81346 0.98065 0.98103 0.0
C568 C 0.84269 0.00265 0.90909 0.0
C569 C 0.79933 0.96082 0.99494 0.0
C570 C 0.9319 0.05806 0.86319 0.0
C571 C 0.91192 0.04252 0.87453 0.0
C572 C 0.87914 0.02527 0.94536 0.0
C573 C 0.82454 0.97696 0.95248 0.0
C574 C 0.84263 0.99649 0.93954 0.0
C575 C 0.89964 0.04856 0.9019 0.0
C576 C 0.87946 0.03121 0.91486 0.0
H577 H 0.80346 0.9154 0.93981 0.0
H578 H 0.82828 0.95002 0.9155 0.0
H579 H 0.86181 0.00339 0.98096 0.0
H580 H 0.93307 0.10313 0.91879 0.0
H581 H 0.89814 0.07618 0.93832 0.0
C582 C 0.19857 0.02673 0.49718 0.0
C583 C 0.20711 0.04945 0.48264 0.0
C584 C 0.18179 0.00981 0.48336 0.0
C585 C 0.15374 0.99218 0.41155 0.0
H586 H 0.09575 0.97109 0.46196 0.0
C587 C 0.06234 0.94483 0.36551 0.0
C588 C 0.05145 0.92415 0.38204 0.0
C589 C 0.08239 0.95945 0.37689 0.0
C590 C 0.11196 0.97651 0.44766 0.0
H591 H 0.20581 0.07165 0.44173 0.0
H592 H 0.17636 0.04203 0.41751 0.0
H593 H 0.12998 0.99669 0.48285 0.0
H594 H 0.0534 0.90252 0.42343 0.0
H595 H 0.08839 0.92782 0.44302 0.0
H596 H 0.13549 0.97203 0.37627 0.0
C597 C 0.1828 0.03723 0.43952 0.0
C598 C 0.13161 0.99115 0.45965 0.0
C599 C 0.19967 0.05417 0.45336 0.0
C600 C 0.06114 0.91842 0.41015 0.0
C601 C 0.08118 0.93299 0.42146 0.0
C602 C 0.13404 0.97744 0.39953 0.0
C603 C 0.17313 0.01527 0.45473 0.0
C604 C 0.15274 -0.00089 0.44177 0.0
C605 C 0.09199 0.9537 0.40502 0.0
C606 C 0.11295 0.96942 0.4175 0.0
H607 H 0.20436 0.02241 0.51958 0.0
H608 H 0.17512 0.99272 0.49537 0.0
H609 H 0.16987 0.9979 0.39729 0.0
H610 H 0.05538 0.94979 0.34378 0.0
H611 H 0.09013 0.97548 0.36384 0.0
C612 C 0.20594 0.97339 0.99201 0.0
C613 C 0.20955 0.94913 0.97813 0.0
C614 C 0.1916 0.9928 0.97848 0.0
C615 C 0.16225 0.01277 0.90791 0.0
H616 H 0.10946 0.04205 0.96047 0.0
C617 C 0.07089 0.06146 0.86463 0.0
C618 C 0.06103 0.08328 0.87996 0.0
C619 C 0.09152 0.04749 0.87573 0.0
C620 C 0.12433 0.03445 0.94554 0.0
H621 H 0.20202 0.92667 0.93854 0.0
H622 H 0.17711 0.96056 0.91491 0.0
H623 H 0.14239 0.01429 0.98083 0.0
H624 H 0.06561 0.10785 0.91869 0.0
H625 H 0.10172 0.08365 0.93779 0.0
H626 H 0.14384 0.03263 0.87252 0.0
C627 C 0.18552 0.96467 0.93612 0.0
C628 C 0.14324 0.01855 0.95724 0.0
C629 C 0.19984 0.94525 0.94966 0.0
C630 C 0.07252 0.09099 0.90644 0.0
C631 C 0.0932 0.07708 0.91746 0.0
C632 C 0.14335 0.02877 0.8962 0.0
C633 C 0.18061 0.98836 0.95079 0.0
C634 C 0.16221 0.00726 0.93851 0.0
C635 C 0.10284 0.05507 0.90234 0.0
C636 C 0.12396 0.0395 0.91485 0.0
H637 H 0.21355 0.97707 0.01375 0.0
H638 H 0.18851 0.01104 0.99007 0.0
H639 H 0.17679 0.00454 0.89299 0.0
H640 H 0.06253 0.05494 0.84419 0.0
H641 H 0.09823 0.03041 0.86377 0.0
C642 C 0.79409 0.03877 0.4927 0.0
C643 C 0.78826 0.06292 0.47987 0.0
C644 C 0.80725 0.01977 0.47619 0.0
C645 C 0.85321 0.01516 0.41326 0.0
H646 H 0.84479 0.94095 0.42546 0.0
C647 C 0.92142 0.94102 0.35667 0.0
C648 C 0.93087 0.92134 0.37519 0.0
C649 C 0.90091 0.95668 0.36623 0.0
C650 C 0.84741 0.96163 0.42192 0.0
H651 H 0.79023 0.08547 0.43913 0.0
H652 H 0.81279 0.05202 0.41002 0.0
H653 H 0.81308 0.97106 0.44697 0.0
H654 H 0.92554 0.90232 0.41803 0.0
H655 H 0.8899 0.92988 0.43479 0.0
H656 H 0.88778 0.00584 0.38881 0.0
C657 C 0.80759 0.04799 0.43305 0.0
C658 C 0.82924 0.97886 0.43419 0.0
C659 C 0.79442 0.06704 0.44962 0.0
C660 C 0.91883 0.91731 0.40321 0.0
C661 C 0.89826 0.93299 0.41275 0.0
C662 C 0.8713 0.99795 0.40095 0.0
C663 C 0.81482 0.02445 0.44642 0.0
C664 C 0.83219 0.00587 0.43045 0.0
C665 C 0.8893 0.95306 0.39451 0.0
C666 C 0.86885 0.97102 0.40556 0.0
H667 H 0.78925 0.0349 0.51587 0.0
H668 H 0.81263 0.00196 0.48727 0.0
H669 H 0.85636 0.03584 0.41038 0.0
H670 H 0.93004 0.94458 0.33485 0.0
H671 H 0.89422 0.97176 0.35151 0.0
C672 C 0.29734 0.39487 0.09512 0.0
C673 C 0.29236 0.37596 0.07355 0.0
C674 C 0.30989 0.38818 0.121 0.0
C675 C 0.35668 0.34071 0.14595 0.0
H676 H 0.34615 0.37592 0.22152 0.0
C677 C 0.4276 0.33026 0.24186 0.0
C678 C 0.43491 0.35395 0.25472 0.0
C679 C 0.40688 0.32928 0.22283 0.0
C680 C 0.34931 0.36593 0.20054 0.0
H681 H 0.29522 0.33493 0.06294 0.0
H682 H 0.31689 0.32311 0.10848 0.0
H683 H 0.31413 0.38017 0.18329 0.0
H684 H 0.42575 0.3951 0.258 0.0
H685 H 0.38995 0.39335 0.22475 0.0
H686 H 0.39225 0.32717 0.16282 0.0
C687 C 0.31135 0.34319 0.10515 0.0
C688 C 0.33098 0.36833 0.17868 0.0
C689 C 0.29872 0.3499 0.07924 0.0
C690 C 0.42078 0.37652 0.24845 0.0
C691 C 0.40004 0.37549 0.2296 0.0
C692 C 0.37499 0.33827 0.16783 0.0
C693 C 0.31775 0.3624 0.12588 0.0
C694 C 0.33482 0.35637 0.15082 0.0
C695 C 0.39293 0.35191 0.21646 0.0
C696 C 0.37185 0.35147 0.19502 0.0
H697 H 0.29241 0.41507 0.09143 0.0
H698 H 0.31468 0.40351 0.13636 0.0
H699 H 0.36041 0.33151 0.12461 0.0
H700 H 0.43799 0.31248 0.24629 0.0
H701 H 0.40174 0.3108 0.21312 0.0
C702 C 0.70674 0.58693 0.58682 0.0
C703 C 0.71203 0.6072 0.5667 0.0
C704 C 0.69327 0.59183 0.61345 0.0
C705 C 0.66649 0.6434 0.66338 0.0
H706 H 0.61195 0.59288 0.6753 0.0
C707 C 0.575 0.66002 0.73856 0.0
C708 C 0.56577 0.63844 0.75485 0.0
C709 C 0.59583 0.65733 0.7184 0.0
C710 C 0.62727 0.60698 0.67263 0.0
H711 H 0.70902 0.64865 0.55917 0.0
H712 H 0.68485 0.65727 0.60561 0.0
H713 H 0.64414 0.58607 0.63615 0.0
H714 H 0.5722 0.59748 0.764 0.0
H715 H 0.6084 0.59295 0.72928 0.0
H716 H 0.64891 0.66458 0.69972 0.0
C717 C 0.69144 0.63766 0.60108 0.0
C718 C 0.64582 0.60304 0.6502 0.0
C719 C 0.70523 0.63276 0.57451 0.0
C720 C 0.57846 0.61443 0.75145 0.0
C721 C 0.59923 0.6118 0.7315 0.0
C722 C 0.64779 0.64738 0.68594 0.0
C723 C 0.68444 0.61704 0.62025 0.0
C724 C 0.66569 0.62113 0.6453 0.0
C725 C 0.6078 0.63302 0.71426 0.0
C726 C 0.62802 0.62914 0.69079 0.0
H727 H 0.71205 0.56709 0.5813 0.0
H728 H 0.68875 0.57564 0.62811 0.0
H729 H 0.6816 0.65766 0.66017 0.0
H730 H 0.56572 0.67881 0.74076 0.0
H731 H 0.60195 0.67401 0.7053 0.0
C732 C 0.69859 0.36911 0.07472 0.0
C733 C 0.70857 0.394 0.0686 0.0
C734 C 0.68372 0.36463 0.10058 0.0
C735 C 0.64024 0.40072 0.15 0.0
H736 H 0.63905 0.33795 0.19785 0.0
C737 C 0.56862 0.38912 0.24815 0.0
C738 C 0.55657 0.36484 0.25189 0.0
C739 C 0.5895 0.39203 0.22835 0.0
C740 C 0.63902 0.35548 0.1845 0.0
H741 H 0.71277 0.43304 0.0859 0.0
H742 H 0.68681 0.42521 0.13107 0.0
H743 H 0.67286 0.34397 0.15954 0.0
H744 H 0.55733 0.32444 0.23802 0.0
H745 H 0.59343 0.32972 0.2027 0.0
H746 H 0.60612 0.41201 0.17398 0.0
C747 C 0.69007 0.40932 0.11561 0.0
C748 C 0.65843 0.35896 0.1627 0.0
C749 C 0.70493 0.41379 0.08981 0.0
C750 C 0.56617 0.34342 0.23564 0.0
C751 C 0.58698 0.3464 0.21556 0.0
C752 C 0.62082 0.39719 0.17157 0.0
C753 C 0.67856 0.38496 0.12073 0.0
C754 C 0.65918 0.38162 0.14521 0.0
C755 C 0.59874 0.37082 0.21151 0.0
C756 C 0.61991 0.37453 0.18906 0.0
H757 H 0.70089 0.35354 0.05867 0.0
H758 H 0.67498 0.3457 0.10385 0.0
H759 H 0.63994 0.41812 0.13641 0.0
H760 H 0.56201 0.40596 0.26066 0.0
H761 H 0.59843 0.41098 0.22628 0.0
C762 C 0.33526 0.62451 0.55132 0.0
C763 C 0.3085 0.62614 0.55539 0.0
C764 C 0.35131 0.62895 0.575 0.0
C765 C 0.35494 0.65584 0.65086 0.0
H766 H 0.40918 0.6046 0.65729 0.0
C767 C 0.43746 0.66408 0.73412 0.0
C768 C 0.44564 0.64099 0.74775 0.0
C769 C 0.41932 0.66335 0.71185 0.0
C770 C 0.39401 0.61893 0.65601 0.0
H771 H 0.27751 0.63501 0.58688 0.0
H772 H 0.3057 0.64262 0.62869 0.0
H773 H 0.38032 0.6024 0.61598 0.0
H774 H 0.44039 0.5991 0.74927 0.0
H775 H 0.40872 0.59793 0.71069 0.0
H776 H 0.36858 0.67207 0.69135 0.0
C777 C 0.31423 0.63805 0.60707 0.0
C778 C 0.37767 0.61789 0.63209 0.0
C779 C 0.2981 0.6337 0.58322 0.0
C780 C 0.43478 0.61725 0.73908 0.0
C781 C 0.41666 0.61655 0.71687 0.0
C782 C 0.3714 0.65691 0.67487 0.0
C783 C 0.34096 0.63499 0.60335 0.0
C784 C 0.35805 0.63639 0.62911 0.0
C785 C 0.40898 0.63954 0.70272 0.0
C786 C 0.39111 0.63844 0.67767 0.0
H787 H 0.34377 0.61919 0.52991 0.0
H788 H 0.37185 0.6271 0.57123 0.0
H789 H 0.34004 0.6704 0.6491 0.0
H790 H 0.44535 0.68272 0.74027 0.0
H791 H 0.41395 0.68137 0.70119 0.0
C792 C 0.79993 0.89927 0.09117 0.0
C793 C 0.79535 0.87978 0.07012 0.0
C794 C 0.81391 0.89378 0.11641 0.0
C795 C 0.86363 0.84868 0.14074 0.0
H796 H 0.85289 0.88391 0.21627 0.0
C797 C 0.93281 0.8368 0.23812 0.0
C798 C 0.94018 0.86013 0.25176 0.0
C799 C 0.91274 0.83655 0.21818 0.0
C800 C 0.85614 0.87398 0.19526 0.0
H801 H 0.80061 0.83888 0.05988 0.0
H802 H 0.82449 0.82912 0.10439 0.0
H803 H 0.82057 0.88744 0.17829 0.0
H804 H 0.93195 0.90146 0.25527 0.0
H805 H 0.89715 0.90096 0.22044 0.0
H806 H 0.89941 0.83562 0.15754 0.0
C807 C 0.81767 0.84878 0.10106 0.0
C808 C 0.83765 0.87599 0.17353 0.0
C809 C 0.80372 0.8543 0.07575 0.0
C810 C 0.92688 0.88314 0.24514 0.0
C811 C 0.90675 0.88284 0.22538 0.0
C812 C 0.88206 0.84657 0.16253 0.0
C813 C 0.82354 0.86862 0.12124 0.0
C814 C 0.84144 0.86382 0.14577 0.0
C815 C 0.89949 0.85957 0.21164 0.0
C816 C 0.87876 0.85966 0.18976 0.0
H817 H 0.79343 0.91901 0.08763 0.0
H818 H 0.81821 0.90959 0.13134 0.0
H819 H 0.86738 0.83937 0.11946 0.0
H820 H 0.94257 0.8187 0.24276 0.0
H821 H 0.90746 0.8183 0.20804 0.0
C822 C 0.20675 0.08653 0.59366 0.0
C823 C 0.21467 0.1051 0.57241 0.0
C824 C 0.19304 0.09407 0.61932 0.0
C825 C 0.14865 0.14501 0.64416 0.0
H826 H 0.15234 0.10908 0.71975 0.0
C827 C 0.07432 0.16204 0.74028 0.0
C828 C 0.06447 0.13922 0.75359 0.0
C829 C 0.09585 0.16099 0.72101 0.0
C830 C 0.15107 0.11927 0.69875 0.0
H831 H 0.21576 0.14627 0.56209 0.0
H832 H 0.19197 0.15955 0.60725 0.0
H833 H 0.18591 0.10218 0.68158 0.0
H834 H 0.06987 0.09746 0.75731 0.0
H835 H 0.10709 0.09569 0.72359 0.0
H836 H 0.11341 0.16147 0.66097 0.0
C837 C 0.19613 0.13911 0.60384 0.0
C838 C 0.1703 0.11535 0.67694 0.0
C839 C 0.20995 0.13155 0.57816 0.0
C840 C 0.07684 0.11543 0.74744 0.0
C841 C 0.09837 0.11442 0.72832 0.0
C842 C 0.12944 0.14896 0.666 0.0
C843 C 0.18693 0.12037 0.62429 0.0
C844 C 0.16894 0.12764 0.6491 0.0
C845 C 0.10807 0.13715 0.71479 0.0
C846 C 0.13009 0.13559 0.69322 0.0
H847 H 0.21037 0.06602 0.58991 0.0
H848 H 0.18607 0.07909 0.63445 0.0
H849 H 0.14684 0.15452 0.62283 0.0
H850 H 0.06536 0.18072 0.7446 0.0
H851 H 0.10299 0.17886 0.71104 0.0
C852 C 0.20735 0.91374 0.09049 0.0
C853 C 0.21003 0.89395 0.06912 0.0
C854 C 0.19311 0.90949 0.11679 0.0
C855 C 0.16166 0.85936 0.16461 0.0
H856 H 0.11141 0.91386 0.17923 0.0
C857 C 0.07012 0.84541 0.23922 0.0
C858 C 0.06136 0.86679 0.25613 0.0
C859 C 0.09098 0.84806 0.21915 0.0
C860 C 0.12557 0.89863 0.17589 0.0
H861 H 0.20118 0.85372 0.05931 0.0
H862 H 0.17629 0.84628 0.10531 0.0
H863 H 0.14423 0.91955 0.14041 0.0
H864 H 0.06848 0.90737 0.26631 0.0
H865 H 0.10498 0.9118 0.23189 0.0
H866 H 0.14263 0.83831 0.19999 0.0
C867 C 0.18535 0.86503 0.10182 0.0
C868 C 0.14442 0.90192 0.1536 0.0
C869 C 0.19962 0.86929 0.07547 0.0
C870 C 0.07444 0.8906 0.25327 0.0
C871 C 0.09536 0.89318 0.23346 0.0
C872 C 0.1428 0.8561 0.18709 0.0
C873 C 0.18123 0.88536 0.12227 0.0
C874 C 0.16258 0.88228 0.14756 0.0
C875 C 0.10361 0.87209 0.21576 0.0
C876 C 0.12443 0.87567 0.19284 0.0
H877 H 0.21553 0.93282 0.08637 0.0
H878 H 0.19069 0.92537 0.13244 0.0
H879 H 0.17551 0.84395 0.16053 0.0
H880 H 0.06048 0.82679 0.24091 0.0
H881 H 0.09669 0.8315 0.20564 0.0
C882 C 0.80352 0.14011 0.57907 0.0
C883 C 0.79405 0.11526 0.57251 0.0
C884 C 0.81918 0.14377 0.60345 0.0
C885 C 0.86423 0.10649 0.64758 0.0
H886 H 0.86323 0.16645 0.69979 0.0
C887 C 0.93117 0.1129 0.74615 0.0
C888 C 0.94307 0.13691 0.75146 0.0
C889 C 0.91145 0.11105 0.72598 0.0
C890 C 0.86388 0.14972 0.68518 0.0
H891 H 0.79173 0.07526 0.58755 0.0
H892 H 0.81886 0.08164 0.63015 0.0
H893 H 0.83041 0.16202 0.66232 0.0
H894 H 0.94323 0.17791 0.73988 0.0
H895 H 0.90907 0.17451 0.70417 0.0
H896 H 0.89781 0.09432 0.6698 0.0
C897 C 0.81474 0.09817 0.61611 0.0
C898 C 0.84507 0.14717 0.66381 0.0
C899 C 0.79917 0.09452 0.5918 0.0
C900 C 0.93451 0.1591 0.73633 0.0
C901 C 0.9148 0.1572 0.716 0.0
C902 C 0.88302 0.10907 0.66878 0.0
C903 C 0.82558 0.12263 0.62166 0.0
C904 C 0.84501 0.12545 0.64488 0.0
C905 C 0.90319 0.1331 0.71043 0.0
C906 C 0.88305 0.13065 0.68792 0.0
H907 H 0.79998 0.1564 0.56446 0.0
H908 H 0.82734 0.16282 0.6071 0.0
H909 H 0.86508 0.08983 0.63286 0.0
H910 H 0.93702 0.09545 0.75763 0.0
H911 H 0.90259 0.09227 0.72265 0.0
loop_
_geom_bond_atom_site_label_1
_geom_bond_atom_site_label_2
_geom_bond_distance
_geom_bond_site_symmetry_2
_ccdc_geom_bond_type
H0 C7 0.929 . S
H1 C10 0.930 . S
H2 C12 0.929 . S
H3 C4 0.969 . S
C4 H3 0.969 . S
C4 O5 1.550 1_556 S
C4 H6 0.973 . S
O5 C4 1.550 1_554 S
O5 C11 1.412 . S
H6 C4 0.973 . S
C7 H0 0.929 . S
C7 C8 1.400 . S
C7 C9 1.366 1_554 S
C8 C7 1.400 . S
C8 C12 1.377 . S
C9 C7 1.366 1_556 S
C9 C10 1.374 . S
C10 H1 0.930 . S
C10 C9 1.374 . S
C10 C11 1.383 1_556 S
C11 O5 1.412 . S
C11 C10 1.383 1_554 S
C11 C12 1.394 . S
C12 H2 0.929 . S
C12 C8 1.377 . S
C12 C11 1.394 . S
H13 C20 0.929 . S
H14 C23 0.930 . S
H15 C25 0.929 . S
H16 C17 0.969 . S
C17 H16 0.969 . S
C17 O18 1.550 . S
C17 H19 0.973 . S
O18 C17 1.550 . S
O18 C24 1.412 . S
H19 C17 0.973 . S
C20 H13 0.929 . S
C20 C21 1.400 . S
C20 C22 1.364 . S
C21 C20 1.400 . S
C21 C25 1.377 . S
C22 C20 1.364 . S
C22 C23 1.374 . S
C23 H14 0.930 . S
C23 C22 1.374 . S
C23 C24 1.383 . S
C24 O18 1.412 . S
C24 C23 1.383 . S
C24 C25 1.394 . S
C25 H15 0.929 . S
C25 C21 1.377 . S
C25 C24 1.394 . S
H26 C33 0.929 . S
H27 C36 0.930 . S
H28 C38 0.929 . S
H29 C30 0.969 . S
C30 H29 0.969 . S
C30 O31 1.550 . S
C30 H32 0.973 1_556 S
O31 C30 1.550 . S
O31 C37 1.412 . S
H32 C30 0.973 1_554 S
C33 H26 0.929 . S
C33 C34 1.400 1_554 S
C33 C35 1.364 . S
C34 C33 1.400 1_556 S
C34 C38 1.377 . S
C35 C33 1.364 . S
C35 C36 1.374 . S
C36 H27 0.930 . S
C36 C35 1.374 . S
C36 C37 1.383 1_554 S
C37 O31 1.412 . S
C37 C36 1.383 1_556 S
C37 C38 1.394 . S
C38 H28 0.929 . S
C38 C34 1.377 . S
C38 C37 1.394 . S
H39 C46 0.929 . S
H40 C49 0.930 . S
H41 C51 0.929 . S
H42 C43 0.969 . S
C43 H42 0.969 . S
C43 O44 1.550 . S
C43 H45 0.973 . S
O44 C43 1.550 . S
O44 C50 1.412 . S
H45 C43 0.973 . S
C46 H39 0.929 . S
C46 C47 1.400 . S
C46 C48 1.364 . S
C47 C46 1.400 . S
C47 C51 1.377 . S
C48 C46 1.364 . S
C48 C49 1.374 . S
C49 H40 0.930 . S
C49 C48 1.374 . S
C49 C50 1.383 . S
C50 O44 1.412 . S
C50 C49 1.383 . S
C50 C51 1.394 . S
C51 H41 0.929 . S
C51 C47 1.377 . S
C51 C50 1.394 . S
H52 C59 0.929 . S
H53 C62 0.930 . S
H54 C64 0.929 . S
H55 C56 0.969 . S
C56 H55 0.969 . S
C56 O57 1.550 1_556 S
C56 H58 0.973 . S
O57 C56 1.550 1_554 S
O57 C63 1.412 . S
H58 C56 0.973 . S
C59 H52 0.929 . S
C59 C60 1.400 . S
C59 C61 1.366 1_554 S
C60 C59 1.400 . S
C60 C64 1.377 . S
C61 C59 1.366 1_556 S
C61 C62 1.374 . S
C62 H53 0.930 . S
C62 C61 1.374 . S
C62 C63 1.383 1_556 S
C63 O57 1.412 . S
C63 C62 1.383 1_554 S
C63 C64 1.394 . S
C64 H54 0.929 . S
C64 C60 1.377 . S
C64 C63 1.394 . S
H65 C72 0.929 . S
H66 C75 0.930 . S
H67 C77 0.929 . S
H68 C69 0.969 . S
C69 H68 0.969 . S
C69 O70 1.550 . S
C69 H71 0.973 . S
O70 C69 1.550 . S
O70 C76 1.412 . S
H71 C69 0.973 . S
C72 H65 0.929 . S
C72 C73 1.400 . S
C72 C74 1.364 . S
C73 C72 1.400 . S
C73 C77 1.377 . S
C74 C72 1.364 . S
C74 C75 1.374 . S
C75 H66 0.930 . S
C75 C74 1.374 . S
C75 C76 1.383 . S
C76 O70 1.412 . S
C76 C75 1.383 . S
C76 C77 1.394 . S
C77 H67 0.929 . S
C77 C73 1.377 . S
C77 C76 1.394 . S
H78 C85 0.929 . S
H79 C88 0.930 . S
H80 C90 0.929 . S
H81 C82 0.969 . S
C82 H81 0.969 . S
C82 O83 1.550 . S
C82 H84 0.973 1_556 S
O83 C82 1.550 . S
O83 C89 1.412 . S
H84 C82 0.973 1_554 S
C85 H78 0.929 . S
C85 C86 1.400 1_554 S
C85 C87 1.364 . S
C86 C85 1.400 1_556 S
C86 C90 1.377 . S
C87 C85 1.364 . S
C87 C88 1.374 . S
C88 H79 0.930 . S
C88 C87 1.374 . S
C88 C89 1.383 1_554 S
C89 O83 1.412 . S
C89 C88 1.383 1_556 S
C89 C90 1.394 . S
C90 H80 0.929 . S
C90 C86 1.377 . S
C90 C89 1.394 . S
H91 C98 0.929 . S
H92 C101 0.930 . S
H93 C103 0.929 . S
H94 C95 0.969 . S
C95 H94 0.969 . S
C95 O96 1.550 . S
C95 H97 0.973 . S
O96 C95 1.550 . S
O96 C102 1.412 . S
H97 C95 0.973 . S
C98 H91 0.929 . S
C98 C99 1.400 . S
C98 C100 1.364 . S
C99 C98 1.400 . S
C99 C103 1.377 . S
C100 C98 1.364 . S
C100 C101 1.374 . S
C101 H92 0.930 . S
C101 C100 1.374 . S
C101 C102 1.383 . S
C102 O96 1.412 . S
C102 C101 1.383 . S
C102 C103 1.394 . S
C103 H93 0.929 . S
C103 C99 1.377 . S
C103 C102 1.394 . S
Sc104 O107 2.025 . S
Sc104 O114 2.105 1_455 S
Sc104 O117 2.105 . S
Sc104 O120 2.105 . S
Sc104 O123 2.105 1_455 S
Sc105 O107 2.025 . S
Sc105 O115 2.105 1_455 S
Sc105 O119 2.105 . S
Sc105 O121 2.105 . S
Sc105 O125 2.105 1_455 S
Sc106 O107 2.025 . S
Sc106 O116 2.079 1_455 S
Sc106 O118 2.131 . S
Sc106 O122 2.131 . S
Sc106 O124 2.079 1_455 S
O107 Sc104 2.025 . S
O107 Sc105 2.025 . S
O107 Sc106 2.025 . S
C108 O114 1.268 . S
C108 O124 1.268 . S
C109 O115 1.268 . S
C109 O123 1.268 . S
C110 O116 1.268 . S
C110 O125 1.268 . S
C111 O117 1.268 . S
C111 O121 1.268 . S
C112 O118 1.268 . S
C112 O120 1.268 . S
C113 O119 1.268 . S
C113 O122 1.268 . S
O114 Sc104 2.105 1_655 S
O114 C108 1.268 . S
O115 Sc105 2.105 1_655 S
O115 C109 1.268 . S
O116 Sc106 2.079 1_655 S
O116 C110 1.268 . S
O117 Sc104 2.105 . S
O117 C111 1.268 . S
O118 Sc106 2.131 . S
O118 C112 1.268 . S
O119 Sc105 2.105 . S
O119 C113 1.268 . S
O120 Sc104 2.105 . S
O120 C112 1.268 . S
O121 Sc105 2.105 . S
O121 C111 1.268 . S
O122 Sc106 2.131 . S
O122 C113 1.268 . S
O123 Sc104 2.105 1_655 S
O123 C109 1.268 . S
O124 Sc106 2.079 1_655 S
O124 C108 1.268 . S
O125 Sc105 2.105 1_655 S
O125 C110 1.268 . S
Sc126 O129 2.025 . S
Sc126 O136 2.105 . S
Sc126 O139 2.105 1_455 S
Sc126 O142 2.105 1_455 S
Sc126 O145 2.105 . S
Sc127 O129 2.025 . S
Sc127 O137 2.105 . S
Sc127 O141 2.105 1_455 S
Sc127 O143 2.105 1_455 S
Sc127 O147 2.105 . S
Sc128 O129 2.025 . S
Sc128 O138 2.131 . S
Sc128 O140 2.079 1_455 S
Sc128 O144 2.079 1_455 S
Sc128 O146 2.131 . S
O129 Sc126 2.025 . S
O129 Sc127 2.025 . S
O129 Sc128 2.025 . S
C130 O136 1.268 . S
C130 O146 1.268 . S
C131 O137 1.268 . S
C131 O145 1.268 . S
C132 O138 1.268 . S
C132 O147 1.268 . S
C133 O139 1.268 . S
C133 O143 1.268 . S
C134 O140 1.268 . S
C134 O142 1.268 . S
C135 O141 1.268 . S
C135 O144 1.268 . S
O136 Sc126 2.105 . S
O136 C130 1.268 . S
O137 Sc127 2.105 . S
O137 C131 1.268 . S
O138 Sc128 2.131 . S
O138 C132 1.268 . S
O139 Sc126 2.105 1_655 S
O139 C133 1.268 . S
O140 Sc128 2.079 1_655 S
O140 C134 1.268 . S
O141 Sc127 2.105 1_655 S
O141 C135 1.268 . S
O142 Sc126 2.105 1_655 S
O142 C134 1.268 . S
O143 Sc127 2.105 1_655 S
O143 C133 1.268 . S
O144 Sc128 2.079 1_655 S
O144 C135 1.268 . S
O145 Sc126 2.105 . S
O145 C131 1.268 . S
O146 Sc128 2.131 . S
O146 C130 1.268 . S
O147 Sc127 2.105 . S
O147 C132 1.268 . S
Sc148 O151 2.025 . S
Sc148 O158 2.105 . S
Sc148 O161 2.105 . S
Sc148 O164 2.105 . S
Sc148 O167 2.105 . S
Sc149 O151 2.025 . S
Sc149 O159 2.105 . S
Sc149 O163 2.105 . S
Sc149 O165 2.105 . S
Sc149 O169 2.105 . S
Sc150 O151 2.025 . S
Sc150 O160 2.105 . S
Sc150 O162 2.105 . S
Sc150 O166 2.105 . S
Sc150 O168 2.105 . S
O151 Sc148 2.025 . S
O151 Sc149 2.025 . S
O151 Sc150 2.025 . S
C152 O158 1.268 . S
C152 O168 1.268 . S
C153 O159 1.268 . S
C153 O167 1.268 . S
C154 O160 1.268 . S
C154 O169 1.268 . S
C155 O161 1.268 . S
C155 O165 1.268 . S
C156 O162 1.268 . S
C156 O164 1.268 . S
C157 O163 1.268 . S
C157 O166 1.268 . S
O158 Sc148 2.105 . S
O158 C152 1.268 . S
O159 Sc149 2.105 . S
O159 C153 1.268 . S
O160 Sc150 2.105 . S
O160 C154 1.268 . S
O161 Sc148 2.105 . S
O161 C155 1.268 . S
O162 Sc150 2.105 . S
O162 C156 1.268 . S
O163 Sc149 2.105 . S
O163 C157 1.268 . S
O164 Sc148 2.105 . S
O164 C156 1.268 . S
O165 Sc149 2.105 . S
O165 C155 1.268 . S
O166 Sc150 2.105 . S
O166 C157 1.268 . S
O167 Sc148 2.105 . S
O167 C153 1.268 . S
O168 Sc150 2.105 . S
O168 C152 1.268 . S
O169 Sc149 2.105 . S
O169 C154 1.268 . S
Sc170 O173 2.025 . S
Sc170 O180 2.105 . S
Sc170 O183 2.105 . S
Sc170 O186 2.105 . S
Sc170 O189 2.105 . S
Sc171 O173 2.025 . S
Sc171 O181 2.105 . S
Sc171 O185 2.105 . S
Sc171 O187 2.105 . S
Sc171 O191 2.105 . S
Sc172 O173 2.025 . S
Sc172 O182 2.105 . S
Sc172 O184 2.105 . S
Sc172 O188 2.105 . S
Sc172 O190 2.105 . S
O173 Sc170 2.025 . S
O173 Sc171 2.025 . S
O173 Sc172 2.025 . S
C174 O180 1.268 . S
C174 O190 1.268 . S
C175 O181 1.268 . S
C175 O189 1.268 . S
C176 O182 1.268 . S
C176 O191 1.268 . S
C177 O183 1.268 . S
C177 O187 1.268 . S
C178 O184 1.268 . S
C178 O186 1.268 . S
C179 O185 1.268 . S
C179 O188 1.268 . S
O180 Sc170 2.105 . S
O180 C174 1.268 . S
O181 Sc171 2.105 . S
O181 C175 1.268 . S
O182 Sc172 2.105 . S
O182 C176 1.268 . S
O183 Sc170 2.105 . S
O183 C177 1.268 . S
O184 Sc172 2.105 . S
O184 C178 1.268 . S
O185 Sc171 2.105 . S
O185 C179 1.268 . S
O186 Sc170 2.105 . S
O186 C178 1.268 . S
O187 Sc171 2.105 . S
O187 C177 1.268 . S
O188 Sc172 2.105 . S
O188 C179 1.268 . S
O189 Sc170 2.105 . S
O189 C175 1.268 . S
O190 Sc172 2.105 . S
O190 C174 1.268 . S
O191 Sc171 2.105 . S
O191 C176 1.268 . S
C192 C193 1.349 . S
C192 C194 1.327 . S
C192 H217 0.950 . S
C193 C192 1.349 . S
C193 C209 1.349 . S
C194 C192 1.327 . S
C194 C213 1.429 . S
C194 H218 0.950 . S
C195 C212 1.574 . S
C195 C214 1.368 . S
C195 H219 0.949 . S
H196 C200 0.949 . S
C197 C198 1.349 . S
C197 C199 1.327 . S
C197 H220 0.950 . S
C198 C197 1.349 . S
C198 C210 1.349 . S
C199 C197 1.327 . S
C199 C215 1.429 . S
C199 H221 0.950 . S
C200 H196 0.949 . S
C200 C208 1.574 . S
C200 C216 1.368 . S
H201 C209 0.950 1_554 S
H202 C207 0.950 . S
H203 C208 0.949 . S
H204 C210 0.950 . S
H205 C211 0.950 . S
H206 C212 0.949 . S
C207 H202 0.950 . S
C207 C209 1.327 . S
C207 C213 1.429 . S
C208 C200 1.574 . S
C208 H203 0.949 . S
C208 C214 1.368 . S
C209 C193 1.349 . S
C209 H201 0.950 1_556 S
C209 C207 1.327 . S
C210 C198 1.349 . S
C210 H204 0.950 . S
C210 C211 1.327 . S
C211 H205 0.950 . S
C211 C210 1.327 . S
C211 C215 1.429 . S
C212 C195 1.574 . S
C212 H206 0.949 . S
C212 C216 1.368 . S
C213 C194 1.429 . S
C213 C207 1.429 . S
C213 C214 1.523 . S
C214 C195 1.368 . S
C214 C208 1.368 . S
C214 C213 1.523 . S
C215 C199 1.429 . S
C215 C211 1.429 . S
C215 C216 1.523 . S
C216 C200 1.368 . S
C216 C212 1.368 . S
C216 C215 1.523 . S
H217 C192 0.950 . S
H218 C194 0.950 . S
H219 C195 0.949 . S
H220 C197 0.950 . S
H221 C199 0.950 . S
C222 C223 1.349 . S
C222 C224 1.327 . S
C222 H247 0.950 . S
C223 C222 1.349 . S
C223 C239 1.349 . S
C224 C222 1.327 . S
C224 C243 1.429 . S
C224 H248 0.950 . S
C225 C242 1.574 . S
C225 C244 1.368 . S
C225 H249 0.949 . S
H226 C230 0.949 . S
C227 C228 1.349 . S
C227 C229 1.327 . S
C227 H250 0.950 . S
C228 C227 1.349 . S
C228 C240 1.349 . S
C229 C227 1.327 . S
C229 C245 1.429 . S
C229 H251 0.950 . S
C230 H226 0.949 . S
C230 C238 1.574 . S
C230 C246 1.368 . S
H231 C239 0.950 . S
H232 C237 0.950 . S
H233 C238 0.949 . S
H234 C240 0.950 . S
H235 C241 0.950 . S
H236 C242 0.949 . S
C237 H232 0.950 . S
C237 C239 1.327 . S
C237 C243 1.429 . S
C238 C230 1.574 . S
C238 H233 0.949 . S
C238 C244 1.368 . S
C239 C223 1.349 . S
C239 H231 0.950 . S
C239 C237 1.327 . S
C240 C228 1.349 . S
C240 H234 0.950 . S
C240 C241 1.327 . S
C241 H235 0.950 . S
C241 C240 1.327 . S
C241 C245 1.429 . S
C242 C225 1.574 . S
C242 H236 0.949 . S
C242 C246 1.368 . S
C243 C224 1.429 . S
C243 C237 1.429 . S
C243 C244 1.523 . S
C244 C225 1.368 . S
C244 C238 1.368 . S
C244 C243 1.523 . S
C245 C229 1.429 . S
C245 C241 1.429 . S
C245 C246 1.523 . S
C246 C230 1.368 . S
C246 C242 1.368 . S
C246 C245 1.523 . S
H247 C222 0.950 . S
H248 C224 0.950 . S
H249 C225 0.949 . S
H250 C227 0.950 . S
H251 C229 0.950 . S
C252 C253 1.349 . S
C252 C254 1.327 . S
C252 H277 0.950 . S
C253 C252 1.349 . S
C253 C269 1.349 . S
C254 C252 1.327 . S
C254 C273 1.429 . S
C254 H278 0.950 . S
C255 C272 1.574 . S
C255 C274 1.368 . S
C255 H279 0.949 . S
H256 C260 0.949 . S
C257 C258 1.349 . S
C257 C259 1.327 . S
C257 H280 0.950 . S
C258 C257 1.349 . S
C258 C270 1.349 . S
C259 C257 1.327 . S
C259 C275 1.429 . S
C259 H281 0.950 . S
C260 H256 0.949 . S
C260 C268 1.574 . S
C260 C276 1.368 . S
H261 C269 0.950 . S
H262 C267 0.950 . S
H263 C268 0.949 . S
H264 C270 0.950 . S
H265 C271 0.950 . S
H266 C272 0.949 . S
C267 H262 0.950 . S
C267 C269 1.327 . S
C267 C273 1.429 . S
C268 C260 1.574 . S
C268 H263 0.949 . S
C268 C274 1.368 . S
C269 C253 1.349 . S
C269 H261 0.950 . S
C269 C267 1.327 . S
C270 C258 1.349 . S
C270 H264 0.950 . S
C270 C271 1.327 . S
C271 H265 0.950 . S
C271 C270 1.327 . S
C271 C275 1.429 . S
C272 C255 1.574 . S
C272 H266 0.949 . S
C272 C276 1.368 . S
C273 C254 1.429 . S
C273 C267 1.429 . S
C273 C274 1.523 . S
C274 C255 1.368 . S
C274 C268 1.368 . S
C274 C273 1.523 . S
C275 C259 1.429 . S
C275 C271 1.429 . S
C275 C276 1.523 . S
C276 C260 1.368 . S
C276 C272 1.368 . S
C276 C275 1.523 . S
H277 C252 0.950 . S
H278 C254 0.950 . S
H279 C255 0.949 . S
H280 C257 0.950 . S
H281 C259 0.950 . S
C282 C283 1.349 . S
C282 C284 1.327 . S
C282 H307 0.950 . S
C283 C282 1.349 . S
C283 C299 1.349 . S
C284 C282 1.327 . S
C284 C303 1.429 . S
C284 H308 0.950 . S
C285 C302 1.574 . S
C285 C304 1.368 . S
C285 H309 0.949 . S
H286 C290 0.949 . S
C287 C288 1.349 . S
C287 C289 1.327 . S
C287 H310 0.950 . S
C288 C287 1.349 . S
C288 C300 1.349 . S
C289 C287 1.327 . S
C289 C305 1.429 . S
C289 H311 0.950 . S
C290 H286 0.949 . S
C290 C298 1.574 . S
C290 C306 1.368 . S
H291 C299 0.950 . S
H292 C297 0.950 . S
H293 C298 0.949 . S
H294 C300 0.950 . S
H295 C301 0.950 . S
H296 C302 0.949 . S
C297 H292 0.950 . S
C297 C299 1.327 . S
C297 C303 1.429 . S
C298 C290 1.574 . S
C298 H293 0.949 . S
C298 C304 1.368 . S
C299 C283 1.349 . S
C299 H291 0.950 . S
C299 C297 1.327 . S
C300 C288 1.349 . S
C300 H294 0.950 . S
C300 C301 1.327 . S
C301 H295 0.950 . S
C301 C300 1.327 . S
C301 C305 1.429 . S
C302 C285 1.574 . S
C302 H296 0.949 . S
C302 C306 1.368 . S
C303 C284 1.429 . S
C303 C297 1.429 . S
C303 C304 1.523 . S
C304 C285 1.368 . S
C304 C298 1.368 . S
C304 C303 1.523 . S
C305 C289 1.429 . S
C305 C301 1.429 . S
C305 C306 1.523 . S
C306 C290 1.368 . S
C306 C302 1.368 . S
C306 C305 1.523 . S
H307 C282 0.950 . S
H308 C284 0.950 . S
H309 C285 0.949 . S
H310 C287 0.950 . S
H311 C289 0.950 . S
C312 C313 1.349 . S
C312 C314 1.327 . S
C312 H337 0.950 1_556 S
C313 C312 1.349 . S
C313 C329 1.349 . S
C314 C312 1.327 . S
C314 C333 1.429 . S
C314 H338 0.950 . S
C315 C332 1.574 . S
C315 C334 1.368 . S
C315 H339 0.949 . S
H316 C320 0.949 . S
C317 C318 1.349 . S
C317 C319 1.327 . S
C317 H340 0.950 . S
C318 C317 1.349 . S
C318 C330 1.349 . S
C319 C317 1.327 . S
C319 C335 1.429 . S
C319 H341 0.950 . S
C320 H316 0.949 . S
C320 C328 1.574 . S
C320 C336 1.368 . S
H321 C329 0.950 . S
H322 C327 0.950 . S
H323 C328 0.949 . S
H324 C330 0.950 . S
H325 C331 0.950 . S
H326 C332 0.949 . S
C327 H322 0.950 . S
C327 C329 1.327 . S
C327 C333 1.429 . S
C328 C320 1.574 . S
C328 H323 0.949 . S
C328 C334 1.368 . S
C329 C313 1.349 . S
C329 H321 0.950 . S
C329 C327 1.327 . S
C330 C318 1.349 . S
C330 H324 0.950 . S
C330 C331 1.327 . S
C331 H325 0.950 . S
C331 C330 1.327 . S
C331 C335 1.429 . S
C332 C315 1.574 . S
C332 H326 0.949 . S
C332 C336 1.368 . S
C333 C314 1.429 . S
C333 C327 1.429 . S
C333 C334 1.523 . S
C334 C315 1.368 . S
C334 C328 1.368 . S
C334 C333 1.523 . S
C335 C319 1.429 . S
C335 C331 1.429 . S
C335 C336 1.523 . S
C336 C320 1.368 . S
C336 C332 1.368 . S
C336 C335 1.523 . S
H337 C312 0.950 1_554 S
H338 C314 0.950 . S
H339 C315 0.949 . S
H340 C317 0.950 . S
H341 C319 0.950 . S
C342 C343 1.349 . S
C342 C344 1.327 . S
C342 H367 0.950 . S
C343 C342 1.349 . S
C343 C359 1.349 . S
C344 C342 1.327 . S
C344 C363 1.429 . S
C344 H368 0.950 . S
C345 C362 1.574 . S
C345 C364 1.368 . S
C345 H369 0.949 . S
H346 C350 0.949 . S
C347 C348 1.349 . S
C347 C349 1.327 . S
C347 H370 0.950 . S
C348 C347 1.349 . S
C348 C360 1.349 . S
C349 C347 1.327 . S
C349 C365 1.429 . S
C349 H371 0.950 . S
C350 H346 0.949 . S
C350 C358 1.574 . S
C350 C366 1.368 . S
H351 C359 0.950 . S
H352 C357 0.950 . S
H353 C358 0.949 . S
H354 C360 0.950 . S
H355 C361 0.950 . S
H356 C362 0.949 . S
C357 H352 0.950 . S
C357 C359 1.327 . S
C357 C363 1.429 . S
C358 C350 1.574 . S
C358 H353 0.949 . S
C358 C364 1.368 . S
C359 C343 1.349 . S
C359 H351 0.950 . S
C359 C357 1.327 . S
C360 C348 1.349 . S
C360 H354 0.950 . S
C360 C361 1.327 . S
C361 H355 0.950 . S
C361 C360 1.327 . S
C361 C365 1.429 . S
C362 C345 1.574 . S
C362 H356 0.949 . S
C362 C366 1.368 . S
C363 C344 1.429 . S
C363 C357 1.429 . S
C363 C364 1.523 . S
C364 C345 1.368 . S
C364 C358 1.368 . S
C364 C363 1.523 . S
C365 C349 1.429 . S
C365 C361 1.429 . S
C365 C366 1.523 . S
C366 C350 1.368 . S
C366 C362 1.368 . S
C366 C365 1.523 . S
H367 C342 0.950 . S
H368 C344 0.950 . S
H369 C345 0.949 . S
H370 C347 0.950 . S
H371 C349 0.950 . S
C372 C373 1.349 . S
C372 C374 1.327 . S
C372 H397 0.950 . S
C373 C372 1.349 . S
C373 C389 1.349 . S
C374 C372 1.327 . S
C374 C393 1.429 . S
C374 H398 0.950 . S
C375 C392 1.574 . S
C375 C394 1.368 . S
C375 H399 0.949 . S
H376 C380 0.949 . S
C377 C378 1.349 . S
C377 C379 1.327 . S
C377 H400 0.950 . S
C378 C377 1.349 . S
C378 C390 1.349 . S
C379 C377 1.327 . S
C379 C395 1.429 . S
C379 H401 0.950 . S
C380 H376 0.949 . S
C380 C388 1.574 . S
C380 C396 1.368 . S
H381 C389 0.950 . S
H382 C387 0.950 . S
H383 C388 0.949 . S
H384 C390 0.950 . S
H385 C391 0.950 . S
H386 C392 0.949 . S
C387 H382 0.950 . S
C387 C389 1.327 . S
C387 C393 1.429 . S
C388 C380 1.574 . S
C388 H383 0.949 . S
C388 C394 1.368 . S
C389 C373 1.349 . S
C389 H381 0.950 . S
C389 C387 1.327 . S
C390 C378 1.349 . S
C390 H384 0.950 . S
C390 C391 1.327 . S
C391 H385 0.950 . S
C391 C390 1.327 . S
C391 C395 1.429 . S
C392 C375 1.574 . S
C392 H386 0.949 . S
C392 C396 1.368 . S
C393 C374 1.429 . S
C393 C387 1.429 . S
C393 C394 1.523 . S
C394 C375 1.368 . S
C394 C388 1.368 . S
C394 C393 1.523 . S
C395 C379 1.429 . S
C395 C391 1.429 . S
C395 C396 1.523 . S
C396 C380 1.368 . S
C396 C392 1.368 . S
C396 C395 1.523 . S
H397 C372 0.950 . S
H398 C374 0.950 . S
H399 C375 0.949 . S
H400 C377 0.950 . S
H401 C379 0.950 . S
C402 C403 1.349 . S
C402 C404 1.327 . S
C402 H427 0.950 . S
C403 C402 1.349 . S
C403 C419 1.349 . S
C404 C402 1.327 . S
C404 C423 1.429 . S
C404 H428 0.950 . S
C405 C422 1.574 . S
C405 C424 1.368 . S
C405 H429 0.949 . S
H406 C410 0.949 . S
C407 C408 1.349 . S
C407 C409 1.327 . S
C407 H430 0.950 . S
C408 C407 1.349 . S
C408 C420 1.349 . S
C409 C407 1.327 . S
C409 C425 1.429 . S
C409 H431 0.950 . S
C410 H406 0.949 . S
C410 C418 1.574 . S
C410 C426 1.368 . S
H411 C419 0.950 . S
H412 C417 0.950 . S
H413 C418 0.949 . S
H414 C420 0.950 . S
H415 C421 0.950 . S
H416 C422 0.949 . S
C417 H412 0.950 . S
C417 C419 1.327 . S
C417 C423 1.429 . S
C418 C410 1.574 . S
C418 H413 0.949 . S
C418 C424 1.368 . S
C419 C403 1.349 . S
C419 H411 0.950 . S
C419 C417 1.327 . S
C420 C408 1.349 . S
C420 H414 0.950 . S
C420 C421 1.327 . S
C421 H415 0.950 . S
C421 C420 1.327 . S
C421 C425 1.429 . S
C422 C405 1.574 . S
C422 H416 0.949 . S
C422 C426 1.368 . S
C423 C404 1.429 . S
C423 C417 1.429 . S
C423 C424 1.523 . S
C424 C405 1.368 . S
C424 C418 1.368 . S
C424 C423 1.523 . S
C425 C409 1.429 . S
C425 C421 1.429 . S
C425 C426 1.523 . S
C426 C410 1.368 . S
C426 C422 1.368 . S
C426 C425 1.523 . S
H427 C402 0.950 . S
H428 C404 0.950 . S
H429 C405 0.949 . S
H430 C407 0.950 . S
H431 C409 0.950 . S
C432 C433 1.349 . S
C432 C434 1.327 . S
C432 H457 0.950 1_556 S
C433 C432 1.349 . S
C433 C449 1.349 . S
C434 C432 1.327 . S
C434 C453 1.429 . S
C434 H458 0.950 . S
C435 C452 1.574 . S
C435 C454 1.368 . S
C435 H459 0.949 . S
H436 C440 0.949 . S
C437 C438 1.349 . S
C437 C439 1.327 . S
C437 H460 0.950 . S
C438 C437 1.349 . S
C438 C450 1.349 . S
C439 C437 1.327 . S
C439 C455 1.429 . S
C439 H461 0.950 . S
C440 H436 0.949 . S
C440 C448 1.574 . S
C440 C456 1.368 . S
H441 C449 0.950 . S
H442 C447 0.950 . S
H443 C448 0.949 . S
H444 C450 0.950 . S
H445 C451 0.950 . S
H446 C452 0.949 . S
C447 H442 0.950 . S
C447 C449 1.327 . S
C447 C453 1.429 . S
C448 C440 1.574 . S
C448 H443 0.949 . S
C448 C454 1.368 . S
C449 C433 1.349 . S
C449 H441 0.950 . S
C449 C447 1.327 . S
C450 C438 1.349 . S
C450 H444 0.950 . S
C450 C451 1.327 . S
C451 H445 0.950 . S
C451 C450 1.327 . S
C451 C455 1.429 . S
C452 C435 1.574 . S
C452 H446 0.949 . S
C452 C456 1.368 . S
C453 C434 1.429 . S
C453 C447 1.429 . S
C453 C454 1.523 . S
C454 C435 1.368 . S
C454 C448 1.368 . S
C454 C453 1.523 . S
C455 C439 1.429 . S
C455 C451 1.429 . S
C455 C456 1.523 . S
C456 C440 1.368 . S
C456 C452 1.368 . S
C456 C455 1.523 . S
H457 C432 0.950 1_554 S
H458 C434 0.950 . S
H459 C435 0.949 . S
H460 C437 0.950 . S
H461 C439 0.950 . S
C462 C463 1.349 . S
C462 C464 1.327 . S
C462 H487 0.950 . S
C463 C462 1.349 . S
C463 C479 1.349 . S
C464 C462 1.327 . S
C464 C483 1.429 . S
C464 H488 0.950 . S
C465 C482 1.574 . S
C465 C484 1.368 . S
C465 H489 0.949 . S
H466 C470 0.949 . S
C467 C468 1.349 . S
C467 C469 1.327 . S
C467 H490 0.950 . S
C468 C467 1.349 . S
C468 C480 1.349 . S
C469 C467 1.327 . S
C469 C485 1.429 . S
C469 H491 0.950 . S
C470 H466 0.949 . S
C470 C478 1.574 . S
C470 C486 1.368 . S
H471 C479 0.950 . S
H472 C477 0.950 . S
H473 C478 0.949 . S
H474 C480 0.950 . S
H475 C481 0.950 . S
H476 C482 0.949 . S
C477 H472 0.950 . S
C477 C479 1.327 . S
C477 C483 1.429 . S
C478 C470 1.574 . S
C478 H473 0.949 . S
C478 C484 1.368 . S
C479 C463 1.349 . S
C479 H471 0.950 . S
C479 C477 1.327 . S
C480 C468 1.349 . S
C480 H474 0.950 . S
C480 C481 1.327 . S
C481 H475 0.950 . S
C481 C480 1.327 . S
C481 C485 1.429 . S
C482 C465 1.574 . S
C482 H476 0.949 . S
C482 C486 1.368 . S
C483 C464 1.429 . S
C483 C477 1.429 . S
C483 C484 1.523 . S
C484 C465 1.368 . S
C484 C478 1.368 . S
C484 C483 1.523 . S
C485 C469 1.429 . S
C485 C481 1.429 . S
C485 C486 1.523 . S
C486 C470 1.368 . S
C486 C482 1.368 . S
C486 C485 1.523 . S
H487 C462 0.950 . S
H488 C464 0.950 . S
H489 C465 0.949 . S
H490 C467 0.950 . S
H491 C469 0.950 . S
C492 C493 1.349 . S
C492 C494 1.327 . S
C492 H517 0.950 1_556 S
C493 C492 1.349 . S
C493 C509 1.349 . S
C494 C492 1.327 . S
C494 C513 1.429 . S
C494 H518 0.950 . S
C495 C512 1.574 . S
C495 C514 1.368 . S
C495 H519 0.949 . S
H496 C500 0.949 . S
C497 C498 1.349 . S
C497 C499 1.327 . S
C497 H520 0.950 . S
C498 C497 1.349 . S
C498 C510 1.349 . S
C499 C497 1.327 . S
C499 C515 1.429 . S
C499 H521 0.950 . S
C500 H496 0.949 . S
C500 C508 1.574 . S
C500 C516 1.368 . S
H501 C509 0.950 . S
H502 C507 0.950 . S
H503 C508 0.949 . S
H504 C510 0.950 . S
H505 C511 0.950 . S
H506 C512 0.949 . S
C507 H502 0.950 . S
C507 C509 1.327 . S
C507 C513 1.429 . S
C508 C500 1.574 . S
C508 H503 0.949 . S
C508 C514 1.368 . S
C509 C493 1.349 . S
C509 H501 0.950 . S
C509 C507 1.327 . S
C510 C498 1.349 . S
C510 H504 0.950 . S
C510 C511 1.327 . S
C511 H505 0.950 . S
C511 C510 1.327 . S
C511 C515 1.429 . S
C512 C495 1.574 . S
C512 H506 0.949 . S
C512 C516 1.368 . S
C513 C494 1.429 . S
C513 C507 1.429 . S
C513 C514 1.523 . S
C514 C495 1.368 . S
C514 C508 1.368 . S
C514 C513 1.523 . S
C515 C499 1.429 . S
C515 C511 1.429 . S
C515 C516 1.523 . S
C516 C500 1.368 . S
C516 C512 1.368 . S
C516 C515 1.523 . S
H517 C492 0.950 1_554 S
H518 C494 0.950 . S
H519 C495 0.949 . S
H520 C497 0.950 . S
H521 C499 0.950 . S
C522 C523 1.349 . S
C522 C524 1.327 . S
C522 H547 0.950 . S
C523 C522 1.349 . S
C523 C539 1.349 . S
C524 C522 1.327 . S
C524 C543 1.429 . S
C524 H548 0.950 . S
C525 C542 1.574 . S
C525 C544 1.368 . S
C525 H549 0.949 . S
H526 C530 0.949 . S
C527 C528 1.349 . S
C527 C529 1.327 . S
C527 H550 0.950 . S
C528 C527 1.349 . S
C528 C540 1.349 . S
C529 C527 1.327 . S
C529 C545 1.429 . S
C529 H551 0.950 . S
C530 H526 0.949 . S
C530 C538 1.574 . S
C530 C546 1.368 . S
H531 C539 0.950 . S
H532 C537 0.950 . S
H533 C538 0.949 . S
H534 C540 0.950 . S
H535 C541 0.950 . S
H536 C542 0.949 . S
C537 H532 0.950 . S
C537 C539 1.327 . S
C537 C543 1.429 . S
C538 C530 1.574 . S
C538 H533 0.949 . S
C538 C544 1.368 . S
C539 C523 1.349 . S
C539 H531 0.950 . S
C539 C537 1.327 . S
C540 C528 1.349 . S
C540 H534 0.950 . S
C540 C541 1.327 . S
C541 H535 0.950 . S
C541 C540 1.327 . S
C541 C545 1.429 . S
C542 C525 1.574 . S
C542 H536 0.949 . S
C542 C546 1.368 . S
C543 C524 1.429 . S
C543 C537 1.429 . S
C543 C544 1.523 . S
C544 C525 1.368 . S
C544 C538 1.368 . S
C544 C543 1.523 . S
C545 C529 1.429 . S
C545 C541 1.429 . S
C545 C546 1.523 . S
C546 C530 1.368 . S
C546 C542 1.368 . S
C546 C545 1.523 . S
H547 C522 0.950 . S
H548 C524 0.950 . S
H549 C525 0.949 . S
H550 C527 0.950 . S
H551 C529 0.950 . S
C552 C553 1.349 . S
C552 C554 1.327 . S
C552 H577 0.950 . S
C553 C552 1.349 . S
C553 C569 1.349 . S
C554 C552 1.327 . S
C554 C573 1.429 . S
C554 H578 0.950 . S
C555 C572 1.574 1_565 S
C555 C574 1.368 . S
C555 H579 0.949 . S
H556 C560 0.949 . S
C557 C558 1.349 . S
C557 C559 1.327 . S
C557 H580 0.950 . S
C558 C557 1.349 . S
C558 C570 1.349 . S
C559 C557 1.327 . S
C559 C575 1.429 . S
C559 H581 0.950 . S
C560 H556 0.949 . S
C560 C568 1.574 1_545 S
C560 C576 1.368 . S
H561 C569 0.950 1_554 S
H562 C567 0.971 . S
H563 C568 0.949 . S
H564 C570 0.950 . S
H565 C571 0.950 . S
H566 C572 0.949 . S
C567 H562 0.971 . S
C567 C569 1.327 . S
C567 C573 1.429 . S
C568 C560 1.574 1_565 S
C568 H563 0.949 . S
C568 C574 1.368 . S
C569 C553 1.349 . S
C569 H561 0.950 1_556 S
C569 C567 1.327 . S
C570 C558 1.349 . S
C570 H564 0.950 . S
C570 C571 1.327 . S
C571 H565 0.950 . S
C571 C570 1.327 . S
C571 C575 1.429 . S
C572 C555 1.574 1_545 S
C572 H566 0.949 . S
C572 C576 1.368 . S
C573 C554 1.429 . S
C573 C567 1.429 . S
C573 C574 1.523 . S
C574 C555 1.368 . S
C574 C568 1.368 . S
C574 C573 1.523 . S
C575 C559 1.429 . S
C575 C571 1.429 . S
C575 C576 1.523 . S
C576 C560 1.368 . S
C576 C572 1.368 . S
C576 C575 1.523 . S
H577 C552 0.950 . S
H578 C554 0.950 . S
H579 C555 0.949 . S
H580 C557 0.950 . S
H581 C559 0.950 . S
C582 C583 1.349 . S
C582 C584 1.327 . S
C582 H607 0.950 . S
C583 C582 1.349 . S
C583 C599 1.349 . S
C584 C582 1.327 . S
C584 C603 1.429 . S
C584 H608 0.950 . S
C585 C602 1.574 1_545 S
C585 C604 1.368 . S
C585 H609 0.949 . S
H586 C590 0.949 . S
C587 C588 1.349 . S
C587 C589 1.327 . S
C587 H610 0.950 . S
C588 C587 1.349 . S
C588 C600 1.349 . S
C589 C587 1.327 . S
C589 C605 1.429 . S
C589 H611 0.950 . S
C590 H586 0.949 . S
C590 C598 1.574 . S
C590 C606 1.368 . S
H591 C599 0.950 . S
H592 C597 0.950 . S
H593 C598 0.949 . S
H594 C600 0.950 . S
H595 C601 0.950 . S
H596 C602 0.949 . S
C597 H592 0.950 . S
C597 C599 1.327 . S
C597 C603 1.429 . S
C598 C590 1.574 . S
C598 H593 0.949 . S
C598 C604 1.368 1_565 S
C599 C583 1.349 . S
C599 H591 0.950 . S
C599 C597 1.327 . S
C600 C588 1.349 . S
C600 H594 0.950 . S
C600 C601 1.327 . S
C601 H595 0.950 . S
C601 C600 1.327 . S
C601 C605 1.429 . S
C602 C585 1.574 1_565 S
C602 H596 0.949 . S
C602 C606 1.368 . S
C603 C584 1.429 . S
C603 C597 1.429 . S
C603 C604 1.523 . S
C604 C585 1.368 . S
C604 C598 1.368 1_545 S
C604 C603 1.523 . S
C605 C589 1.429 . S
C605 C601 1.429 . S
C605 C606 1.523 . S
C606 C590 1.368 . S
C606 C602 1.368 . S
C606 C605 1.523 . S
H607 C582 0.950 . S
H608 C584 0.950 . S
H609 C585 0.949 . S
H610 C587 0.950 . S
H611 C589 0.950 . S
C612 C613 1.349 . S
C612 C614 1.327 . S
C612 H637 0.950 1_556 S
C613 C612 1.349 . S
C613 C629 1.349 . S
C614 C612 1.327 . S
C614 C633 1.429 . S
C614 H638 0.950 . S
C615 C632 1.574 . S
C615 C634 1.368 . S
C615 H639 0.949 . S
H616 C620 0.949 . S
C617 C618 1.349 . S
C617 C619 1.327 . S
C617 H640 0.950 . S
C618 C617 1.349 . S
C618 C630 1.349 . S
C619 C617 1.327 . S
C619 C635 1.429 . S
C619 H641 0.950 . S
C620 H616 0.949 . S
C620 C628 1.574 . S
C620 C636 1.368 . S
H621 C629 0.950 . S
H622 C627 0.950 . S
H623 C628 0.949 . S
H624 C630 0.950 . S
H625 C631 0.950 . S
H626 C632 0.949 . S
C627 H622 0.950 . S
C627 C629 1.327 . S
C627 C633 1.429 . S
C628 C620 1.574 . S
C628 H623 0.949 . S
C628 C634 1.368 1_545 S
C629 C613 1.349 . S
C629 H621 0.950 . S
C629 C627 1.327 . S
C630 C618 1.349 . S
C630 H624 0.950 . S
C630 C631 1.327 . S
C631 H625 0.950 . S
C631 C630 1.327 . S
C631 C635 1.429 . S
C632 C615 1.574 . S
C632 H626 0.949 . S
C632 C636 1.368 1_565 S
C633 C614 1.429 . S
C633 C627 1.429 . S
C633 C634 1.523 . S
C634 C615 1.368 . S
C634 C628 1.368 1_565 S
C634 C633 1.523 . S
C635 C619 1.429 . S
C635 C631 1.429 . S
C635 C636 1.523 . S
C636 C620 1.368 . S
C636 C632 1.368 1_545 S
C636 C635 1.523 . S
H637 C612 0.950 1_554 S
H638 C614 0.950 . S
H639 C615 0.949 . S
H640 C617 0.950 . S
H641 C619 0.950 . S
C642 C643 1.349 . S
C642 C644 1.327 . S
C642 H667 0.950 . S
C643 C642 1.349 . S
C643 C659 1.349 . S
C644 C642 1.327 . S
C644 C663 1.429 . S
C644 H668 0.950 . S
C645 C662 1.574 . S
C645 C664 1.368 . S
C645 H669 0.949 . S
H646 C650 0.949 . S
C647 C648 1.349 . S
C647 C649 1.327 . S
C647 H670 0.950 . S
C648 C647 1.349 . S
C648 C660 1.349 . S
C649 C647 1.327 . S
C649 C665 1.429 . S
C649 H671 0.950 . S
C650 H646 0.949 . S
C650 C658 1.574 . S
C650 C666 1.368 . S
H651 C659 0.950 . S
H652 C657 0.950 . S
H653 C658 0.949 . S
H654 C660 0.950 . S
H655 C661 0.950 . S
H656 C662 0.949 . S
C657 H652 0.950 . S
C657 C659 1.327 . S
C657 C663 1.429 . S
C658 C650 1.574 . S
C658 H653 0.949 . S
C658 C664 1.368 1_565 S
C659 C643 1.349 . S
C659 H651 0.950 . S
C659 C657 1.327 . S
C660 C648 1.349 . S
C660 H654 0.950 . S
C660 C661 1.327 . S
C661 H655 0.950 . S
C661 C660 1.327 . S
C661 C665 1.429 . S
C662 C645 1.574 . S
C662 H656 0.949 . S
C662 C666 1.368 1_545 S
C663 C644 1.429 . S
C663 C657 1.429 . S
C663 C664 1.523 . S
C664 C645 1.368 . S
C664 C658 1.368 1_545 S
C664 C663 1.523 . S
C665 C649 1.429 . S
C665 C661 1.429 . S
C665 C666 1.523 . S
C666 C650 1.368 . S
C666 C662 1.368 1_565 S
C666 C665 1.523 . S
H667 C642 0.950 . S
H668 C644 0.950 . S
H669 C645 0.949 . S
H670 C647 0.950 . S
H671 C649 0.950 . S
C672 C673 1.349 . S
C672 C674 1.327 . S
C672 H697 0.950 . S
C673 C672 1.349 . S
C673 C689 1.349 . S
C674 C672 1.327 . S
C674 C693 1.429 . S
C674 H698 0.950 . S
C675 C692 1.574 . S
C675 C694 1.368 . S
C675 H699 0.949 . S
H676 C680 0.949 . S
C677 C678 1.349 . S
C677 C679 1.327 . S
C677 H700 0.950 . S
C678 C677 1.349 . S
C678 C690 1.349 . S
C679 C677 1.327 . S
C679 C695 1.429 . S
C679 H701 0.950 . S
C680 H676 0.949 . S
C680 C688 1.574 . S
C680 C696 1.368 . S
H681 C689 0.950 . S
H682 C687 0.950 . S
H683 C688 0.949 . S
H684 C690 0.950 . S
H685 C691 0.950 . S
H686 C692 0.949 . S
C687 H682 0.950 . S
C687 C689 1.327 . S
C687 C693 1.429 . S
C688 C680 1.574 . S
C688 H683 0.949 . S
C688 C694 1.368 . S
C689 C673 1.349 . S
C689 H681 0.950 . S
C689 C687 1.327 . S
C690 C678 1.349 . S
C690 H684 0.950 . S
C690 C691 1.327 . S
C691 H685 0.950 . S
C691 C690 1.327 . S
C691 C695 1.429 . S
C692 C675 1.574 . S
C692 H686 0.949 . S
C692 C696 1.368 . S
C693 C674 1.429 . S
C693 C687 1.429 . S
C693 C694 1.523 . S
C694 C675 1.368 . S
C694 C688 1.368 . S
C694 C693 1.523 . S
C695 C679 1.429 . S
C695 C691 1.429 . S
C695 C696 1.523 . S
C696 C680 1.368 . S
C696 C692 1.368 . S
C696 C695 1.523 . S
H697 C672 0.950 . S
H698 C674 0.950 . S
H699 C675 0.949 . S
H700 C677 0.950 . S
H701 C679 0.950 . S
C702 C703 1.349 . S
C702 C704 1.327 . S
C702 H727 0.950 . S
C703 C702 1.349 . S
C703 C719 1.349 . S
C704 C702 1.327 . S
C704 C723 1.429 . S
C704 H728 0.950 . S
C705 C722 1.574 . S
C705 C724 1.368 . S
C705 H729 0.949 . S
H706 C710 0.949 . S
C707 C708 1.349 . S
C707 C709 1.327 . S
C707 H730 0.950 . S
C708 C707 1.349 . S
C708 C720 1.349 . S
C709 C707 1.327 . S
C709 C725 1.429 . S
C709 H731 0.950 . S
C710 H706 0.949 . S
C710 C718 1.574 . S
C710 C726 1.368 . S
H711 C719 0.950 . S
H712 C717 0.950 . S
H713 C718 0.949 . S
H714 C720 0.950 . S
H715 C721 0.950 . S
H716 C722 0.949 . S
C717 H712 0.950 . S
C717 C719 1.327 . S
C717 C723 1.429 . S
C718 C710 1.574 . S
C718 H713 0.949 . S
C718 C724 1.368 . S
C719 C703 1.349 . S
C719 H711 0.950 . S
C719 C717 1.327 . S
C720 C708 1.349 . S
C720 H714 0.950 . S
C720 C721 1.327 . S
C721 H715 0.950 . S
C721 C720 1.327 . S
C721 C725 1.429 . S
C722 C705 1.574 . S
C722 H716 0.949 . S
C722 C726 1.368 . S
C723 C704 1.429 . S
C723 C717 1.429 . S
C723 C724 1.523 . S
C724 C705 1.368 . S
C724 C718 1.368 . S
C724 C723 1.523 . S
C725 C709 1.429 . S
C725 C721 1.429 . S
C725 C726 1.523 . S
C726 C710 1.368 . S
C726 C722 1.368 . S
C726 C725 1.523 . S
H727 C702 0.950 . S
H728 C704 0.950 . S
H729 C705 0.949 . S
H730 C707 0.950 . S
H731 C709 0.950 . S
C732 C733 1.349 . S
C732 C734 1.327 . S
C732 H757 0.950 . S
C733 C732 1.349 . S
C733 C749 1.349 . S
C734 C732 1.327 . S
C734 C753 1.429 . S
C734 H758 0.950 . S
C735 C752 1.574 . S
C735 C754 1.368 . S
C735 H759 0.949 . S
H736 C740 0.949 . S
C737 C738 1.349 . S
C737 C739 1.327 . S
C737 H760 0.950 . S
C738 C737 1.349 . S
C738 C750 1.349 . S
C739 C737 1.327 . S
C739 C755 1.429 . S
C739 H761 0.950 . S
C740 H736 0.949 . S
C740 C748 1.574 . S
C740 C756 1.368 . S
H741 C749 0.950 . S
H742 C747 0.950 . S
H743 C748 0.949 . S
H744 C750 0.950 . S
H745 C751 0.950 . S
H746 C752 0.949 . S
C747 H742 0.950 . S
C747 C749 1.327 . S
C747 C753 1.429 . S
C748 C740 1.574 . S
C748 H743 0.949 . S
C748 C754 1.368 . S
C749 C733 1.349 . S
C749 H741 0.950 . S
C749 C747 1.327 . S
C750 C738 1.349 . S
C750 H744 0.950 . S
C750 C751 1.327 . S
C751 H745 0.950 . S
C751 C750 1.327 . S
C751 C755 1.429 . S
C752 C735 1.574 . S
C752 H746 0.949 . S
C752 C756 1.368 . S
C753 C734 1.429 . S
C753 C747 1.429 . S
C753 C754 1.523 . S
C754 C735 1.368 . S
C754 C748 1.368 . S
C754 C753 1.523 . S
C755 C739 1.429 . S
C755 C751 1.429 . S
C755 C756 1.523 . S
C756 C740 1.368 . S
C756 C752 1.368 . S
C756 C755 1.523 . S
H757 C732 0.950 . S
H758 C734 0.950 . S
H759 C735 0.949 . S
H760 C737 0.950 . S
H761 C739 0.950 . S
C762 C763 1.349 . S
C762 C764 1.327 . S
C762 H787 0.950 . S
C763 C762 1.349 . S
C763 C779 1.349 . S
C764 C762 1.327 . S
C764 C783 1.429 . S
C764 H788 0.950 . S
C765 C782 1.574 . S
C765 C784 1.368 . S
C765 H789 0.949 . S
H766 C770 0.949 . S
C767 C768 1.349 . S
C767 C769 1.327 . S
C767 H790 0.950 . S
C768 C767 1.349 . S
C768 C780 1.349 . S
C769 C767 1.327 . S
C769 C785 1.429 . S
C769 H791 0.950 . S
C770 H766 0.949 . S
C770 C778 1.574 . S
C770 C786 1.368 . S
H771 C779 0.950 . S
H772 C777 0.950 . S
H773 C778 0.949 . S
H774 C780 0.950 . S
H775 C781 0.950 . S
H776 C782 0.949 . S
C777 H772 0.950 . S
C777 C779 1.327 . S
C777 C783 1.429 . S
C778 C770 1.574 . S
C778 H773 0.949 . S
C778 C784 1.368 . S
C779 C763 1.349 . S
C779 H771 0.950 . S
C779 C777 1.327 . S
C780 C768 1.349 . S
C780 H774 0.950 . S
C780 C781 1.327 . S
C781 H775 0.950 . S
C781 C780 1.327 . S
C781 C785 1.429 . S
C782 C765 1.574 . S
C782 H776 0.949 . S
C782 C786 1.368 . S
C783 C764 1.429 . S
C783 C777 1.429 . S
C783 C784 1.523 . S
C784 C765 1.368 . S
C784 C778 1.368 . S
C784 C783 1.523 . S
C785 C769 1.429 . S
C785 C781 1.429 . S
C785 C786 1.523 . S
C786 C770 1.368 . S
C786 C782 1.368 . S
C786 C785 1.523 . S
H787 C762 0.950 . S
H788 C764 0.950 . S
H789 C765 0.949 . S
H790 C767 0.950 . S
H791 C769 0.950 . S
C792 C793 1.349 . S
C792 C794 1.327 . S
C792 H817 0.950 . S
C793 C792 1.349 . S
C793 C809 1.349 . S
C794 C792 1.327 . S
C794 C813 1.429 . S
C794 H818 0.950 . S
C795 C812 1.574 . S
C795 C814 1.368 . S
C795 H819 0.949 . S
H796 C800 0.949 . S
C797 C798 1.349 . S
C797 C799 1.327 . S
C797 H820 0.950 . S
C798 C797 1.349 . S
C798 C810 1.349 . S
C799 C797 1.327 . S
C799 C815 1.429 . S
C799 H821 0.950 . S
C800 H796 0.949 . S
C800 C808 1.574 . S
C800 C816 1.368 . S
H801 C809 0.950 . S
H802 C807 0.950 . S
H803 C808 0.949 . S
H804 C810 0.950 . S
H805 C811 0.950 . S
H806 C812 0.949 . S
C807 H802 0.950 . S
C807 C809 1.327 . S
C807 C813 1.429 . S
C808 C800 1.574 . S
C808 H803 0.949 . S
C808 C814 1.368 . S
C809 C793 1.349 . S
C809 H801 0.950 . S
C809 C807 1.327 . S
C810 C798 1.349 . S
C810 H804 0.950 . S
C810 C811 1.327 . S
C811 H805 0.950 . S
C811 C810 1.327 . S
C811 C815 1.429 . S
C812 C795 1.574 . S
C812 H806 0.949 . S
C812 C816 1.368 . S
C813 C794 1.429 . S
C813 C807 1.429 . S
C813 C814 1.523 . S
C814 C795 1.368 . S
C814 C808 1.368 . S
C814 C813 1.523 . S
C815 C799 1.429 . S
C815 C811 1.429 . S
C815 C816 1.523 . S
C816 C800 1.368 . S
C816 C812 1.368 . S
C816 C815 1.523 . S
H817 C792 0.950 . S
H818 C794 0.950 . S
H819 C795 0.949 . S
H820 C797 0.950 . S
H821 C799 0.950 . S
C822 C823 1.349 . S
C822 C824 1.327 . S
C822 H847 0.950 . S
C823 C822 1.349 . S
C823 C839 1.349 . S
C824 C822 1.327 . S
C824 C843 1.429 . S
C824 H848 0.950 . S
C825 C842 1.574 . S
C825 C844 1.368 . S
C825 H849 0.949 . S
H826 C830 0.949 . S
C827 C828 1.349 . S
C827 C829 1.327 . S
C827 H850 0.950 . S
C828 C827 1.349 . S
C828 C840 1.349 . S
C829 C827 1.327 . S
C829 C845 1.429 . S
C829 H851 0.950 . S
C830 H826 0.949 . S
C830 C838 1.574 . S
C830 C846 1.368 . S
H831 C839 0.950 . S
H832 C837 0.950 . S
H833 C838 0.949 . S
H834 C840 0.950 . S
H835 C841 0.950 . S
H836 C842 0.949 . S
C837 H832 0.950 . S
C837 C839 1.327 . S
C837 C843 1.429 . S
C838 C830 1.574 . S
C838 H833 0.949 . S
C838 C844 1.368 . S
C839 C823 1.349 . S
C839 H831 0.950 . S
C839 C837 1.327 . S
C840 C828 1.349 . S
C840 H834 0.950 . S
C840 C841 1.327 . S
C841 H835 0.950 . S
C841 C840 1.327 . S
C841 C845 1.429 . S
C842 C825 1.574 . S
C842 H836 0.949 . S
C842 C846 1.368 . S
C843 C824 1.429 . S
C843 C837 1.429 . S
C843 C844 1.523 . S
C844 C825 1.368 . S
C844 C838 1.368 . S
C844 C843 1.523 . S
C845 C829 1.429 . S
C845 C841 1.429 . S
C845 C846 1.523 . S
C846 C830 1.368 . S
C846 C842 1.368 . S
C846 C845 1.523 . S
H847 C822 0.950 . S
H848 C824 0.950 . S
H849 C825 0.949 . S
H850 C827 0.950 . S
H851 C829 0.950 . S
C852 C853 1.349 . S
C852 C854 1.327 . S
C852 H877 0.950 . S
C853 C852 1.349 . S
C853 C869 1.349 . S
C854 C852 1.327 . S
C854 C873 1.429 . S
C854 H878 0.950 . S
C855 C872 1.574 . S
C855 C874 1.368 . S
C855 H879 0.949 . S
H856 C860 0.949 . S
C857 C858 1.349 . S
C857 C859 1.327 . S
C857 H880 0.950 . S
C858 C857 1.349 . S
C858 C870 1.349 . S
C859 C857 1.327 . S
C859 C875 1.429 . S
C859 H881 0.950 . S
C860 H856 0.949 . S
C860 C868 1.574 . S
C860 C876 1.368 . S
H861 C869 0.950 . S
H862 C867 0.950 . S
H863 C868 0.949 . S
H864 C870 0.950 . S
H865 C871 0.950 . S
H866 C872 0.949 . S
C867 H862 0.950 . S
C867 C869 1.327 . S
C867 C873 1.429 . S
C868 C860 1.574 . S
C868 H863 0.949 . S
C868 C874 1.368 . S
C869 C853 1.349 . S
C869 H861 0.950 . S
C869 C867 1.327 . S
C870 C858 1.349 . S
C870 H864 0.950 . S
C870 C871 1.327 . S
C871 H865 0.950 . S
C871 C870 1.327 . S
C871 C875 1.429 . S
C872 C855 1.574 . S
C872 H866 0.949 . S
C872 C876 1.368 . S
C873 C854 1.429 . S
C873 C867 1.429 . S
C873 C874 1.523 . S
C874 C855 1.368 . S
C874 C868 1.368 . S
C874 C873 1.523 . S
C875 C859 1.429 . S
C875 C871 1.429 . S
C875 C876 1.523 . S
C876 C860 1.368 . S
C876 C872 1.368 . S
C876 C875 1.523 . S
H877 C852 0.950 . S
H878 C854 0.950 . S
H879 C855 0.949 . S
H880 C857 0.950 . S
H881 C859 0.950 . S
C882 C883 1.349 . S
C882 C884 1.327 . S
C882 H907 0.950 . S
C883 C882 1.349 . S
C883 C899 1.349 . S
C884 C882 1.327 . S
C884 C903 1.429 . S
C884 H908 0.950 . S
C885 C902 1.574 . S
C885 C904 1.368 . S
C885 H909 0.949 . S
H886 C890 0.949 . S
C887 C888 1.349 . S
C887 C889 1.327 . S
C887 H910 0.950 . S
C888 C887 1.349 . S
C888 C900 1.349 . S
C889 C887 1.327 . S
C889 C905 1.429 . S
C889 H911 0.950 . S
C890 H886 0.949 . S
C890 C898 1.574 . S
C890 C906 1.368 . S
H891 C899 0.950 . S
H892 C897 0.950 . S
H893 C898 0.949 . S
H894 C900 0.950 . S
H895 C901 0.950 . S
H896 C902 0.949 . S
C897 H892 0.950 . S
C897 C899 1.327 . S
C897 C903 1.429 . S
C898 C890 1.574 . S
C898 H893 0.949 . S
C898 C904 1.368 . S
C899 C883 1.349 . S
C899 H891 0.950 . S
C899 C897 1.327 . S
C900 C888 1.349 . S
C900 H894 0.950 . S
C900 C901 1.327 . S
C901 H895 0.950 . S
C901 C900 1.327 . S
C901 C905 1.429 . S
C902 C885 1.574 . S
C902 H896 0.949 . S
C902 C906 1.368 . S
C903 C884 1.429 . S
C903 C897 1.429 . S
C903 C904 1.523 . S
C904 C885 1.368 . S
C904 C898 1.368 . S
C904 C903 1.523 . S
C905 C889 1.429 . S
C905 C901 1.429 . S
C905 C906 1.523 . S
C906 C890 1.368 . S
C906 C902 1.368 . S
C906 C905 1.523 . S
H907 C882 0.950 . S
H908 C884 0.950 . S
H909 C885 0.949 . S
H910 C887 0.950 . S
H911 C889 0.950 . S
C193 C4 1.551 . S
C198 C130 1.603 . S
C228 C108 1.453 . S
C223 C17 1.444 . S
C258 C134 1.454 . S
C253 C30 1.405 . S
C288 C112 1.604 . S
C283 C43 1.591 . S
C318 C174 1.604 . S
C313 C56 1.551 . S
C348 C152 1.454 . S
C343 C69 1.444 . S
C373 C82 1.405 . S
C378 C178 1.453 . S
C408 C156 1.604 . S
C403 C95 1.591 . S
C433 C9 1.545 . S
C438 C179 1.561 . S
C468 C157 1.417 . S
C463 C21 1.424 . S
C493 C34 1.420 . S
C498 C176 1.417 . S
C523 C48 1.548 . S
C528 C154 1.561 . S
C558 C135 1.561 . S
C553 C61 1.545 . S
C583 C73 1.424 . S
C588 C113 1.417 . S
C618 C132 1.417 . S
C613 C86 1.420 . S
C648 C110 1.561 . S
C643 C100 1.548 . S
C678 C153 1.482 . S
C673 C8 1.486 . S
C708 C175 1.486 . S
C703 C22 1.477 . S
C733 C35 1.475 . S
C738 C155 1.486 . S
C768 C177 1.482 . S
C763 C47 1.490 . S
C798 C109 1.482 . S
C793 C60 1.486 . S
C823 C74 1.477 . S
C828 C131 1.486 . S
C853 C87 1.475 . S
C858 C111 1.486 . S
C883 C99 1.490 . S
C888 C133 1.482 . S
