# Generated by pormake.
# Topology zzz, (3,6)-cn, num edge types: 1
# Building blocks:
#     Node 0, Type 0, BuildingBlock: PAMTOO_clean_linker_0, # of connection points: 3
#     Node 1, Type 0, BuildingBlock: PAMTOO_clean_linker_0, # of connection points: 3
#     Node 2, Type 0, BuildingBlock: PAMTOO_clean_linker_0, # of connection points: 3
#     Node 3, Type 0, BuildingBlock: PAMTOO_clean_linker_0, # of connection points: 3
#     Node 4, Type 0, BuildingBlock: PAMTOO_clean_linker_0, # of connection points: 3
#     Node 5, Type 0, BuildingBlock: PAMTOO_clean_linker_0, # of connection points: 3
#     Node 6, Type 0, BuildingBlock: PAMTOO_clean_linker_0, # of connection points: 3
#     Node 7, Type 0, BuildingBlock: PAMTOO_clean_linker_0, # of connection points: 3
#     Node 8, Type 1, BuildingBlock: PAMTUU_clean_sbu_0, # of connection points: 6
#     Node 9, Type 1, BuildingBlock: PAMTUU_clean_sbu_0, # of connection points: 6
#     Node 10, Type 1, BuildingBlock: PAMTUU_clean_sbu_0, # of connection points: 6
#     Node 11, Type 1, BuildingBlock: PAMTUU_clean_sbu_0, # of connection points: 6
#     Edge 12, Type (0, 1), BuildingBlock: AJUNOK_clean_linker_0, # of connection points: 2
#     Edge 13, Type (0, 1), BuildingBlock: AJUNOK_clean_linker_0, # of connection points: 2
#     Edge 14, Type (0, 1), BuildingBlock: AJUNOK_clean_linker_0, # of connection points: 2
#     Edge 15, Type (0, 1), BuildingBlock: AJUNOK_clean_linker_0, # of connection points: 2
#     Edge 16, Type (0, 1), BuildingBlock: AJUNOK_clean_linker_0, # of connection points: 2
#     Edge 17, Type (0, 1), BuildingBlock: AJUNOK_clean_linker_0, # of connection points: 2
#     Edge 18, Type (0, 1), BuildingBlock: AJUNOK_clean_linker_0, # of connection points: 2
#     Edge 19, Type (0, 1), BuildingBlock: AJUNOK_clean_linker_0, # of connection points: 2
#     Edge 20, Type (0, 1), BuildingBlock: AJUNOK_clean_linker_0, # of connection points: 2
#     Edge 21, Type (0, 1), BuildingBlock: AJUNOK_clean_linker_0, # of connection points: 2
#     Edge 22, Type (0, 1), BuildingBlock: AJUNOK_clean_linker_0, # of connection points: 2
#     Edge 23, Type (0, 1), BuildingBlock: AJUNOK_clean_linker_0, # of connection points: 2
#     Edge 24, Type (0, 1), BuildingBlock: AJUNOK_clean_linker_0, # of connection points: 2
#     Edge 25, Type (0, 1), BuildingBlock: AJUNOK_clean_linker_0, # of connection points: 2
#     Edge 26, Type (0, 1), BuildingBlock: AJUNOK_clean_linker_0, # of connection points: 2
#     Edge 27, Type (0, 1), BuildingBlock: AJUNOK_clean_linker_0, # of connection points: 2
#     Edge 28, Type (0, 1), BuildingBlock: AJUNOK_clean_linker_0, # of connection points: 2
#     Edge 29, Type (0, 1), BuildingBlock: AJUNOK_clean_linker_0, # of connection points: 2
#     Edge 30, Type (0, 1), BuildingBlock: AJUNOK_clean_linker_0, # of connection points: 2
#     Edge 31, Type (0, 1), BuildingBlock: AJUNOK_clean_linker_0, # of connection points: 2
#     Edge 32, Type (0, 1), BuildingBlock: AJUNOK_clean_linker_0, # of connection points: 2
#     Edge 33, Type (0, 1), BuildingBlock: AJUNOK_clean_linker_0, # of connection points: 2
#     Edge 34, Type (0, 1), BuildingBlock: AJUNOK_clean_linker_0, # of connection points: 2
#     Edge 35, Type (0, 1), BuildingBlock: AJUNOK_clean_linker_0, # of connection points: 2
# Relax obj value: 0.275
# Max RMSD: 0.252
# Mean RMSD: 0.114
data_MOF--net-zzz--node1-PAMTUU_clean_sbu_0--node2-PAMTOO_clean_linker_0--edge1-AJUNOK_clean_linker_0
_symmetry_space_group_name_H-M    P1
_symmetry_Int_Tables_number       1
_symmetry_cell_setting            triclinic
loop_
_symmetry_equiv_pos_as_xyz
'x, y, z'
_cell_length_a     35.350283
_cell_length_b     40.168712
_cell_length_c     11.980708
_cell_angle_alpha  102.75476
_cell_angle_beta   90.09148
_cell_angle_gamma 89.998855
loop_
_atom_site_label
_atom_site_type_symbol
_atom_site_fract_x
_atom_site_fract_y
_atom_site_fract_z
_atom_type_partial_charge
H0 H 0.8702 0.58947 0.57608 0.0
H1 H 0.75776 0.57902 0.43296 0.0
H2 H 0.80177 0.50384 0.60435 0.0
H3 H 0.73673 0.4736 0.37799 0.0
C4 C 0.74016 0.50042 0.3696 0.0
O5 O 0.74392 0.52112 0.47915 0.0
H6 H 0.76672 0.5007 0.3197 0.0
C7 C 0.8429 0.57703 0.56476 0.0
C8 C 0.83865 0.5475 0.60814 0.0
C9 C 0.81499 0.58787 0.49586 0.0
C10 C 0.78011 0.57079 0.48271 0.0
C11 C 0.77571 0.53977 0.51547 0.0
C12 C 0.8051 0.52787 0.57864 0.0
H13 H 0.10901 0.8401 0.45648 0.0
H14 H 0.09431 0.74065 0.23911 0.0
H15 H 1.02682 0.7713 0.5437 0.0
H16 H 1.04289 0.68867 0.46729 0.0
C17 C 1.0563 0.69216 0.3869 0.0
O18 O 1.04141 0.72143 0.36144 0.0
H19 H 0.08732 0.69475 0.40307 0.0
C20 C 0.09614 0.81494 0.43998 0.0
C21 C 0.06793 0.80842 0.51394 0.0
C22 C 0.10571 0.79091 0.34053 0.0
C23 C 0.08744 0.75928 0.3164 0.0
C24 C 0.05934 0.75193 0.38967 0.0
C25 C 1.04918 0.77666 0.48849 0.0
H26 H 0.75317 0.93283 0.48285 0.0
H27 H 0.8604 0.94295 0.32429 0.0
H28 H 0.81545 0.0261 0.57966 0.0
H29 H 0.86409 0.04795 0.36487 0.0
C30 C 0.87198 0.02074 0.33261 0.0
O31 O 0.87206 1.00523 0.42611 0.0
H32 H 0.84974 1.00921 0.26988 0.0
C33 C 0.7789 0.94686 0.47659 0.0
C34 C 0.7818 0.97949 0.54759 0.0
C35 C 0.80542 0.93404 0.38986 0.0
C36 C 0.83869 0.95278 0.38634 0.0
C37 C 0.84211 0.98632 0.45015 0.0
C38 C 0.81326 1.00007 0.53082 0.0
H39 H 0.54082 0.69179 0.2622 0.0
H40 H 0.52052 0.75311 0.01659 0.0
H41 H 0.59245 0.79071 0.30911 0.0
H42 H 0.58185 0.7902 0.96913 0.0
C43 C 0.5834 0.81213 0.04413 0.0
O44 O 0.55825 0.80693 0.12785 0.0
H45 H 0.61271 0.81272 0.07836 0.0
C46 C 0.54363 0.71597 0.23634 0.0
C47 C 0.56787 0.74057 0.29855 0.0
C48 C 0.52756 0.71945 0.13329 0.0
C49 C 0.53256 0.75025 0.09716 0.0
C50 C 0.55503 0.77669 0.16182 0.0
C51 C 0.57371 0.77132 0.2616 0.0
H52 H 0.24156 0.43827 0.14821 0.0
H53 H 0.33798 0.44112 0.37118 0.0
H54 H 0.30183 0.5317 0.26515 0.0
H55 H 0.39881 0.52104 0.31366 0.0
C56 C 0.39133 0.50216 0.36519 0.0
O57 O 0.3528 0.50496 0.38991 0.0
H58 H 0.39768 0.47661 0.31038 0.0
C59 C 0.2658 0.4512 0.19323 0.0
C60 C 0.26915 0.48593 0.19522 0.0
C61 C 0.28865 0.43486 0.26149 0.0
C62 C 0.31969 0.45302 0.3187 0.0
C63 C 0.32532 0.48765 0.3194 0.0
C64 C 0.2993 0.50451 0.25921 0.0
H65 H 0.99498 0.17923 0.27213 0.0
H66 H 1.00594 0.27662 0.5064 0.0
H67 H 0.07762 0.25139 0.20946 0.0
H68 H 0.11504 0.30726 0.42906 0.0
C69 C 0.08745 0.30686 0.47299 0.0
O70 O 0.05908 0.2992 0.39147 0.0
H71 H 0.0892 0.28697 0.52459 0.0
C72 C 1.00728 0.20461 0.2942 0.0
C73 C 1.03641 0.21291 0.2262 0.0
C74 C 0.99658 0.22699 0.39633 0.0
C75 C 1.01381 0.25911 0.4274 0.0
C76 C 1.04275 0.26808 0.3597 0.0
C77 C 1.05452 0.24478 0.25982 0.0
H78 H 0.37675 0.09031 0.26234 0.0
H79 H 0.27644 0.08162 0.45767 0.0
H80 H 0.31472 0.99652 0.19867 0.0
H81 H 0.21702 1.00356 0.26446 0.0
C82 C 0.22457 0.02242 0.34401 0.0
O83 O 0.26299 0.01871 0.36483 0.0
H84 H 0.21881 0.04822 0.32809 0.0
C85 C 0.35201 0.07642 0.27953 0.0
C86 C 0.34825 0.04285 0.21636 0.0
C87 C 0.32837 0.09016 0.37332 0.0
C88 C 0.29631 0.07123 0.39064 0.0
C89 C 0.29092 0.0376 0.32916 0.0
C90 C 0.31749 0.02302 0.24261 0.0
H91 H 0.56766 0.33486 0.51896 0.0
H92 H 0.59232 0.27376 0.76215 0.0
H93 H 0.52263 0.23324 0.46666 0.0
H94 H 0.50458 0.2083 0.69358 0.0
C95 C 0.53375 0.21083 0.72926 0.0
O96 O 0.55835 0.21812 0.64732 0.0
H97 H 0.53351 0.23258 0.80498 0.0
C98 C 0.56634 0.31045 0.54393 0.0
C99 C 0.54367 0.28478 0.48038 0.0
C100 C 0.58284 0.30743 0.64671 0.0
C101 C 0.57985 0.27628 0.68177 0.0
C102 C 0.55918 0.24879 0.6154 0.0
C103 C 0.54003 0.25351 0.51555 0.0
Tb104 Tb 1.02619 0.01713 0.77342 0.0
Tb105 Tb 0.09103 1.00743 0.952 0.0
C106 C 1.00519 0.01384 0.02481 0.0
C107 C 0.95708 0.05936 0.62348 0.0
C108 C 0.94053 0.1255 0.59614 0.0
C109 C 0.9446 0.09834 0.50016 0.0
C110 C 0.95314 0.06567 0.514 0.0
C111 C 0.9495 0.0856 0.71971 0.0
C112 C 0.94103 0.1185 0.70602 0.0
C113 C 0.97641 0.02799 0.63501 0.0
O114 O 1.0461 0.06919 0.84433 0.0
O115 O 0.0798 0.06158 1.00183 0.0
O116 O 0.11903 0.02724 0.81708 0.0
O117 O 0.07861 1.00268 0.67604 0.0
O118 O 0.11228 1.00935 0.11736 0.0
O119 O 0.1464 0.99024 0.9678 0.0
O120 O 0.08269 0.95766 0.83989 0.0
O121 O 1.02315 0.96271 0.77208 0.0
O122 O 1.00048 0.03052 0.94308 0.0
O123 O 1.03667 0.99641 0.02844 0.0
C124 C 0.06399 0.08143 0.94143 0.0
O125 O 1.01261 0.02804 0.61519 0.0
O126 O 0.96881 0.01624 0.72556 0.0
C127 C 0.11222 0.01543 0.70775 0.0
C128 C 0.14585 0.95803 0.10596 0.0
C129 C 0.15048 0.88976 0.12559 0.0
C130 C 0.18349 0.90764 0.10999 0.0
C131 C 0.18112 0.94161 0.09913 0.0
C132 C 0.11314 0.94029 0.12451 0.0
C133 C 0.11548 0.90668 0.13507 0.0
C134 C 0.14194 0.99136 0.07626 0.0
C135 C 1.05183 0.94373 0.78975 0.0
H136 H 0.945 0.10292 0.41436 0.0
H137 H 0.96018 0.04609 0.43949 0.0
H138 H 0.95289 0.08137 0.8054 0.0
H139 H 0.93772 0.1389 0.78134 0.0
H140 H 0.21083 0.89523 0.10473 0.0
H141 H 0.20657 0.95476 0.0827 0.0
H142 H 0.08548 0.95209 0.12826 0.0
H143 H 0.08973 0.89394 0.15151 0.0
Tb144 Tb 0.54746 0.99686 0.75796 0.0
Tb145 Tb 0.58253 0.02669 1.00379 0.0
C146 C 0.56813 0.94451 0.904 0.0
C147 C 0.48814 0.02254 0.56762 0.0
C148 C 0.44361 0.08058 0.56557 0.0
C149 C 0.4547 0.05841 0.46208 0.0
C150 C 0.47738 0.0298 0.46318 0.0
C151 C 0.47838 0.04559 0.66994 0.0
C152 C 0.45701 0.07452 0.66901 0.0
C153 C 0.51254 0.9934 0.57533 0.0
O154 O 0.49932 1.00156 0.87758 0.0
O155 O 0.52253 0.03509 0.04392 0.0
O156 O 0.56348 0.07478 0.96661 0.0
O157 O 0.55909 0.05151 0.7755 0.0
O158 O 0.58548 0.02379 0.177 0.0
O159 O 0.62892 0.0494 0.10269 0.0
O160 O 0.62816 0.02531 0.87607 0.0
O161 O 0.60706 0.98305 0.72949 0.0
O162 O 0.55875 0.94771 0.80052 0.0
O163 O 0.57564 0.97144 0.98556 0.0
C164 C 0.49429 0.0193 0.98272 0.0
O165 O 0.54838 1.00089 0.58555 0.0
O166 O 0.5019 0.9764 0.65096 0.0
C167 C 0.55904 0.07837 0.86096 0.0
C168 C 0.64717 1.00518 0.18998 0.0
C169 C 0.69337 0.94838 0.19292 0.0
C170 C 0.68419 0.97169 0.29578 0.0
C171 C 0.66079 0.99985 0.29447 0.0
C172 C 0.65574 0.98124 0.08849 0.0
C173 C 0.67798 0.95289 0.09023 0.0
C174 C 0.62085 0.03293 0.18211 0.0
C175 C 0.63458 1.00268 0.78038 0.0
H176 H 0.44447 0.06231 0.38062 0.0
H177 H 0.48599 0.01325 0.38336 0.0
H178 H 0.48724 0.04136 0.75175 0.0
H179 H 0.44975 0.09144 0.74973 0.0
H180 H 0.69641 0.96891 0.37624 0.0
H181 H 0.65393 0.01756 0.37396 0.0
H182 H 0.64535 0.98448 1.00683 0.0
H183 H 0.68448 0.9351 0.0109 0.0
Tb184 Tb 0.52648 0.50222 0.99031 0.0
Tb185 Tb 0.58814 0.52615 0.81325 0.0
C186 C 0.50251 0.51171 0.74393 0.0
C187 C 0.48772 0.44522 0.16733 0.0
C188 C 0.49713 0.38297 0.24076 0.0
C189 C 0.46094 0.39407 0.21573 0.0
C190 C 0.45636 0.4247 0.17867 0.0
C191 C 0.52373 0.43472 0.19551 0.0
C192 C 0.52835 0.40414 0.23246 0.0
C193 C 0.48311 0.475 0.11349 0.0
O194 O 0.56717 0.46177 0.94133 0.0
O195 O 0.58762 0.47001 0.76795 0.0
O196 O 0.62362 0.51453 0.95046 0.0
O197 O 0.57818 0.51878 0.09156 0.0
O198 O 0.63327 0.55843 0.79023 0.0
O199 O 0.60555 0.52659 0.64578 0.0
O200 O 0.5693 0.56966 0.94099 0.0
O201 O 0.51007 0.55472 0.98745 0.0
O202 O 0.50039 0.492 0.81833 0.0
O203 O 0.53152 0.53229 0.74591 0.0
C204 C 0.58123 0.44995 0.83963 0.0
O205 O 0.50347 0.50223 0.15317 0.0
O206 O 0.48314 0.4674 1.00217 0.0
C207 C 0.6141 0.51709 0.05885 0.0
C208 C 0.62402 0.58238 0.62804 0.0
C209 C 0.61425 0.64343 0.54708 0.0
C210 C 0.65023 0.63377 0.57943 0.0
C211 C 0.655 0.60371 0.62006 0.0
C212 C 0.58832 0.59135 0.59174 0.0
C213 C 0.58352 0.62141 0.55175 0.0
C214 C 0.6288 0.55205 0.67961 0.0
C215 C 0.53422 0.57789 0.96899 0.0
H216 H 0.43627 0.37861 0.2219 0.0
H217 H 0.42836 0.4319 0.15578 0.0
H218 H 0.54848 0.44962 0.18549 0.0
H219 H 0.55653 0.39697 0.25388 0.0
H220 H 0.67456 0.64988 0.57569 0.0
H221 H 0.68286 0.59738 0.64695 0.0
H222 H 0.56391 0.57546 0.59631 0.0
H223 H 0.5556 0.62747 0.52459 0.0
Tb224 Tb 0.07141 0.52 0.78832 0.0
Tb225 Tb 1.03468 0.49058 0.98769 0.0
C226 C 1.04671 0.56945 0.01549 0.0
C227 C 0.12691 0.49436 0.54794 0.0
C228 C 0.16982 0.4366 0.44459 0.0
C229 C 0.15936 0.46114 0.38198 0.0
C230 C 0.13788 0.48987 0.4335 0.0
C231 C 0.13553 0.46867 0.60678 0.0
C232 C 0.15661 0.44021 0.55624 0.0
C233 C 0.10445 0.52393 0.60782 0.0
O234 O 0.11913 0.5029 0.87919 0.0
O235 O 0.0926 0.50274 0.0521 0.0
O236 O 0.0637 0.44657 0.88538 0.0
O237 O 1.05266 0.46742 0.72922 0.0
O238 O 1.02565 0.49319 0.16274 0.0
O239 O 0.99458 0.45734 0.03458 0.0
O240 O 0.99073 0.49263 0.85658 0.0
O241 O 1.01285 0.53772 0.78935 0.0
O242 O 0.07045 0.56533 0.92874 0.0
O243 O 1.02339 0.54501 0.02645 0.0
C244 C 0.12283 0.5035 0.98862 0.0
O245 O 0.06834 0.51792 0.61122 0.0
O246 O 0.1172 0.53903 0.70866 0.0
C247 C 0.06189 0.44175 0.77402 0.0
C248 C 0.96023 0.49613 0.17449 0.0
C249 C 0.9125 0.55362 0.22908 0.0
C250 C 0.91454 0.53449 0.11643 0.0
C251 C 0.9377 0.50581 0.08979 0.0
C252 C 0.95648 0.51397 0.28831 0.0
C253 C 0.93251 0.54223 0.31558 0.0
C254 C 0.99447 0.47572 0.13919 0.0
C255 C 0.98462 0.51787 0.80466 0.0
H256 H 0.16969 0.45912 0.29574 0.0
H257 H 0.13064 0.50884 0.38559 0.0
H258 H 0.1262 0.47046 0.69285 0.0
H259 H 0.16412 0.42179 0.60642 0.0
H260 H 0.8986 0.54192 0.04856 0.0
H261 H 0.9394 0.49239 1.00126 0.0
H262 H 0.97374 0.50731 0.35498 0.0
H263 H 0.9299 0.55531 0.40454 0.0
C264 C 0.16223 1.00352 0.41665 0.0
C265 C 0.19857 0.01769 0.44264 0.0
C266 C 0.13508 1.00251 0.50207 0.0
C267 C 0.1425 0.01607 0.61901 0.0
H268 H 0.15423 0.99372 0.32851 0.0
H269 H 0.10772 0.9914 0.47539 0.0
S270 S 0.23305 0.05675 0.73522 0.0
N271 N 0.24022 0.04602 0.59569 0.0
N272 N 0.18967 0.04418 0.756 0.0
C273 C 0.17886 0.03023 0.64685 0.0
C274 C 0.20659 0.03119 0.55923 0.0
C275 C 0.5419 0.14622 0.6847 0.0
C276 C 0.54407 0.17751 0.76491 0.0
C277 C 0.54735 0.11484 0.7169 0.0
C278 C 0.55485 0.11293 0.83156 0.0
H279 H 0.53517 0.14594 0.59625 0.0
H280 H 0.54497 0.09178 0.65054 0.0
S281 S 0.56433 0.18777 0.07537 0.0
N282 N 0.55517 0.20474 0.96462 0.0
N283 N 0.56499 0.14602 0.0251 0.0
C284 C 0.55758 0.14416 0.91262 0.0
C285 C 0.55228 0.17625 0.87946 0.0
C286 C 0.42124 0.48007 0.53071 0.0
C287 C 0.41638 0.50687 0.47295 0.0
C288 C 0.44816 0.48207 0.6199 0.0
C289 C 0.47183 0.51086 0.65497 0.0
H290 H 0.40491 0.45685 0.50413 0.0
H291 H 0.45125 0.46037 0.65906 0.0
S292 S 0.46816 0.58938 0.53873 0.0
N293 N 0.43603 0.56408 0.46352 0.0
N294 N 0.48612 0.5679 0.62896 0.0
C295 C 0.46617 0.53831 0.60054 0.0
C296 C 0.43864 0.53634 0.5106 0.0
C297 C 0.08071 0.34619 0.67011 0.0
C298 C 0.08038 0.34162 0.55005 0.0
C299 C 0.07466 0.3785 0.74223 0.0
C300 C 0.06772 0.40745 0.69702 0.0
H301 H 0.08582 0.32462 0.70869 0.0
H302 H 0.07541 0.38073 0.83395 0.0
S303 S 0.06497 0.40888 0.38713 0.0
N304 N 0.07416 0.36876 0.38923 0.0
N305 N 0.0609 0.42891 0.52248 0.0
C306 C 0.06726 0.40301 0.57653 0.0
C307 C 0.07418 0.37033 0.50377 0.0
C308 C 0.91528 0.04311 0.19805 0.0
C309 C 0.90951 0.01898 0.26583 0.0
C310 C 0.94642 0.04145 0.12376 0.0
C311 C 0.97393 0.01545 0.11229 0.0
H312 H 0.89483 0.06338 0.20062 0.0
H313 H 0.94859 0.06074 0.07366 0.0
S314 S 0.97307 0.94558 0.27052 0.0
N315 N 0.93458 0.9678 0.31585 0.0
N316 N 0.99344 0.96499 0.17823 0.0
C317 C 0.96909 0.9913 0.18095 0.0
C318 C 0.93683 0.99279 0.25623 0.0
C319 C 0.58385 0.87708 0.0828 0.0
C320 C 0.57595 0.84579 1.00713 0.0
C321 C 0.58105 0.90834 0.04822 0.0
C322 C 0.57024 0.91012 0.9357 0.0
H323 H 0.59308 0.87734 0.16927 0.0
H324 H 0.5879 0.93136 0.11104 0.0
S325 S 0.54563 0.83529 0.704 0.0
N326 N 0.55613 0.81847 0.81418 0.0
N327 N 0.55089 0.87696 0.7493 0.0
C328 C 0.56173 0.87893 0.85937 0.0
C329 C 0.56454 0.84698 0.89492 0.0
C330 C 0.71232 0.52263 0.2021 0.0
C331 C 0.70636 0.50989 0.30152 0.0
C332 C 0.68247 0.52561 0.12605 0.0
C333 C 0.64491 0.51645 0.14628 0.0
H334 H 0.74074 0.5291 0.18015 0.0
H335 H 0.68905 0.53464 0.04974 0.0
S336 S 0.61387 0.48201 0.39479 0.0
N337 N 0.65975 0.48835 0.41595 0.0
N338 N 0.60378 0.49471 0.27621 0.0
C339 C 0.63838 0.50494 0.24783 0.0
C340 C 0.6689 0.50152 0.32444 0.0
C341 C 0.06068 0.66215 0.17614 0.0
C342 C 1.05013 0.66136 0.28912 0.0
C343 C 0.05906 0.63264 0.08705 0.0
C344 C 1.04666 0.60125 0.1075 0.0
H345 H 0.07098 0.68556 0.15676 0.0
H346 H 0.06784 0.63439 1.0019 0.0
S347 S 1.01892 0.58499 0.39031 0.0
N348 N 1.02881 0.62611 0.41704 0.0
N349 N 1.0254 0.57105 0.2515 0.0
C350 C 1.03611 0.60022 0.2204 0.0
C351 C 1.03803 0.6301 0.31061 0.0
C352 C 0.93924 0.19599 0.43777 0.0
C353 C 0.97297 0.21318 0.47732 0.0
C354 C 0.92512 0.17024 0.48823 0.0
C355 C 0.94448 0.16082 0.57925 0.0
H356 H 0.92611 0.19981 0.35975 0.0
H357 H 0.9014 0.15514 0.44787 0.0
S358 S 1.02928 0.2035 0.7293 0.0
N359 N 1.02138 0.22347 0.625 0.0
N360 N 0.9952 0.17492 0.7195 0.0
C361 C 0.97506 0.18122 0.62959 0.0
C362 C 0.98928 0.20753 0.57845 0.0
C363 C 0.37659 0.13477 0.44307 0.0
C364 C 0.34367 0.11794 0.46857 0.0
C365 C 0.41159 0.12536 0.48282 0.0
C366 C 0.41256 0.10528 0.56533 0.0
H367 H 0.37675 0.14629 0.3694 0.0
H368 H 0.43731 0.13038 0.44027 0.0
S369 S 0.33061 0.08963 0.73984 0.0
N370 N 0.31203 0.1046 0.63419 0.0
N371 N 0.37677 0.08895 0.71899 0.0
C372 C 0.37878 0.10219 0.62414 0.0
C373 C 0.34382 0.11033 0.57777 0.0
C374 C 0.61799 0.3627 0.68528 0.0
C375 C 0.59328 0.34016 0.72473 0.0
C376 C 0.61509 0.3983 0.72499 0.0
C377 C 0.58769 0.4125 0.80648 0.0
H378 H 0.63712 0.35287 0.61519 0.0
H379 H 0.63322 0.41475 0.68808 0.0
S380 S 0.51718 0.36428 0.93868 0.0
N381 N 0.54203 0.33453 0.85292 0.0
N382 N 0.53633 0.40087 0.92797 0.0
C383 C 0.56473 0.39 0.85231 0.0
C384 C 0.56783 0.35396 0.81211 0.0
C385 C 0.26995 0.41017 0.42157 0.0
C386 C 0.27249 0.4049 0.30154 0.0
C387 C 0.23439 0.41624 0.47323 0.0
C388 C 0.20151 0.41297 0.40503 0.0
H389 H 0.29443 0.41818 0.47515 0.0
H390 H 0.2333 0.4282 0.56351 0.0
S391 S 0.19631 0.36851 0.10034 0.0
N392 N 0.24212 0.3733 0.12785 0.0
N393 N 0.1743 0.38526 0.22146 0.0
C394 C 0.20453 0.39484 0.29116 0.0
C395 C 0.24108 0.38826 0.24113 0.0
C396 C 0.16147 0.82247 0.29173 0.0
C397 C 0.12915 0.80256 0.25453 0.0
C398 C 0.17246 0.84847 0.23777 0.0
C399 C 0.15165 0.8547 0.14459 0.0
H400 H 0.17493 0.82116 0.372 0.0
H401 H 0.19396 0.86635 0.27825 0.0
S402 S 0.0737 0.80193 0.99131 0.0
N403 N 0.08297 0.78506 0.10213 0.0
N404 N 0.10434 0.83335 0.99913 0.0
C405 C 0.12422 0.83075 0.094 0.0
C406 C 0.11282 0.80454 0.14933 0.0
C407 C 0.75937 0.88989 0.30028 0.0
C408 C 0.79245 0.90825 0.28596 0.0
C409 C 0.72478 0.90085 0.26247 0.0
C410 C 0.72481 0.92417 0.19053 0.0
H411 H 0.75841 0.87581 0.36764 0.0
H412 H 0.69858 0.89418 0.29892 0.0
S413 S 0.80851 0.949 0.04181 0.0
N414 N 0.82598 0.92916 0.1374 0.0
N415 N 0.76209 0.94796 0.05594 0.0
C416 C 0.75916 0.93004 0.13938 0.0
C417 C 0.79359 0.92007 0.18384 0.0
C418 C 0.49106 0.66483 0.09482 0.0
C419 C 0.51622 0.68699 0.05508 0.0
C420 C 0.49477 0.62911 0.06027 0.0
C421 C 0.52385 0.61456 0.98532 0.0
H422 H 0.47145 0.67513 0.16312 0.0
H423 H 0.47703 0.61309 0.10014 0.0
S424 S 0.59207 0.66164 0.84129 0.0
N425 N 0.56692 0.69178 0.92412 0.0
N426 N 0.57392 0.62524 0.85796 0.0
C427 C 0.54585 0.63654 0.93436 0.0
C428 C 0.54178 0.67264 0.96876 0.0
C429 C 0.81802 0.59141 0.29535 0.0
C430 C 0.82664 0.60783 0.4094 0.0
C431 C 0.84743 0.5764 0.2236 0.0
C432 C 0.88515 0.58201 0.26049 0.0
H433 H 0.78966 0.58244 0.27127 0.0
H434 H 0.84027 0.55681 0.14889 0.0
S435 S 0.9175 0.65045 0.50163 0.0
N436 N 0.87123 0.64831 0.51941 0.0
N437 N 0.92757 0.62188 0.38336 0.0
C438 C 0.89235 0.60983 0.35205 0.0
C439 C 0.86199 0.62424 0.42467 0.0
C440 C 1.02465 0.17075 0.04232 0.0
C441 C 1.04995 0.18549 0.13038 0.0
C442 C 1.03115 0.13809 0.97355 0.0
C443 C 0.06279 0.11871 0.99225 0.0
H444 H 0.99826 0.18351 0.03225 0.0
H445 H 1.00965 0.12694 0.91205 0.0
S446 S 0.14022 0.14798 0.20065 0.0
N447 N 0.10991 0.18005 0.22325 0.0
N448 N 0.12218 0.11866 0.09528 0.0
C449 C 0.08987 0.13445 0.0734 0.0
C450 C 0.08345 0.16785 0.14214 0.0
C451 C 0.3922 0.04833 0.05508 0.0
C452 C 0.3807 0.02963 0.13654 0.0
C453 C 0.42841 0.04425 1.00393 0.0
C454 C 0.45515 0.02154 0.03253 0.0
H455 H 0.37368 0.06777 0.03547 0.0
H456 H 0.43603 0.05996 0.94462 0.0
S457 S 0.4384 0.96326 0.22846 0.0
N458 N 0.39864 0.98526 0.23485 0.0
N459 N 0.46627 0.97748 0.13849 0.0
C460 C 0.44347 1.00127 0.10841 0.0
C461 C 0.40645 1.00527 0.1601 0.0
C462 C 0.48955 0.3158 0.42102 0.0
C463 C 0.52172 0.29524 0.38771 0.0
C464 C 0.48009 0.34267 0.36776 0.0
C465 C 0.50243 0.35006 0.27892 0.0
H466 H 0.47438 0.31385 0.49786 0.0
H467 H 0.45709 0.35953 0.40312 0.0
S468 S 0.58404 0.29866 0.14217 0.0
N469 N 0.57179 0.28048 0.24771 0.0
N470 N 0.55388 0.33032 0.14624 0.0
C471 C 0.53182 0.32708 0.23596 0.0
C472 C 0.54126 0.2997 0.28999 0.0
C473 C 0.20482 0.51376 0.20754 0.0
C474 C 0.23666 0.5009 0.14074 0.0
C475 C 0.16855 0.51531 0.15799 0.0
C476 C 0.1622 0.50387 0.03929 0.0
H477 H 0.20736 0.5204 0.29993 0.0
H478 H 0.14503 0.5248 0.21356 0.0
S479 S 0.23657 0.4697 0.82522 0.0
N480 N 0.25943 0.47796 0.94858 0.0
N481 N 0.19226 0.48113 0.85568 0.0
C482 C 0.1943 0.49271 0.971 0.0
C483 C 0.23108 0.49113 0.0215 0.0
C484 C 1.02538 0.85674 0.60332 0.0
C485 C 0.05782 0.83705 0.61084 0.0
C486 C 1.0223 0.89059 0.66738 0.0
C487 C 1.05172 0.90604 0.74063 0.0
H488 H 1.00375 0.84697 0.54048 0.0
H489 H 0.99781 0.90537 0.65347 0.0
S490 S 0.14098 0.86352 0.79796 0.0
N491 N 0.11826 0.83413 0.70366 0.0
N492 N 0.11279 0.89707 0.82463 0.0
C493 C 0.08289 0.88539 0.75548 0.0
C494 C 0.08584 0.8511 0.69055 0.0
C495 C 0.72517 0.01819 0.61843 0.0
C496 C 0.74878 0.99059 0.62828 0.0
C497 C 0.6887 0.02259 0.66988 0.0
C498 C 0.6739 0.99911 0.73084 0.0
H499 H 0.73401 0.03543 0.56558 0.0
H500 H 0.67138 0.04378 0.65802 0.0
S501 S 0.72432 0.92351 0.78599 0.0
N502 N 0.75493 0.94098 0.7121 0.0
N503 N 0.68634 0.94802 0.80014 0.0
C504 C 0.69752 0.97216 0.74375 0.0
C505 C 0.73484 0.9683 0.69518 0.0
C506 C 0.62144 0.70901 0.36037 0.0
C507 C 0.58906 0.72944 0.39158 0.0
C508 C 0.63111 0.68277 0.41644 0.0
C509 C 0.60857 0.67572 0.50542 0.0
H510 H 0.63693 0.71074 0.28388 0.0
H511 H 0.65453 0.66611 0.38345 0.0
S512 S 0.52535 0.72622 0.63431 0.0
N513 N 0.53798 0.74403 0.52825 0.0
N514 N 0.55598 0.69515 0.63383 0.0
C515 C 0.57854 0.69831 0.54508 0.0
C516 C 0.569 0.72515 0.48868 0.0
C517 C 0.89027 0.50539 0.63746 0.0
C518 C 0.87203 0.53725 0.67331 0.0
C519 C 0.92606 0.49876 0.68242 0.0
C520 C 0.94551 0.52393 0.76331 0.0
H521 H 0.87769 0.486 0.57036 0.0
H522 H 0.9393 0.47422 0.65009 0.0
S523 S 0.90842 0.6097 0.89692 0.0
N524 N 0.87503 0.5927 0.80534 0.0
N525 N 0.94211 0.58065 0.88468 0.0
C526 C 0.92692 0.55516 0.80322 0.0
C527 C 0.89036 0.56166 0.75981 0.0
loop_
_geom_bond_atom_site_label_1
_geom_bond_atom_site_label_2
_geom_bond_distance
_geom_bond_site_symmetry_2
_ccdc_geom_bond_type
H0 C7 0.929 . S
H1 C10 0.930 . S
H2 C12 0.929 . S
H3 C4 0.969 . S
C4 H3 0.969 . S
C4 O5 1.550 . S
C4 H6 0.973 . S
O5 C4 1.550 . S
O5 C11 1.412 . S
H6 C4 0.973 . S
C7 H0 0.929 . S
C7 C8 1.400 . S
C7 C9 1.364 . S
C8 C7 1.400 . S
C8 C12 1.377 . S
C9 C7 1.364 . S
C9 C10 1.374 . S
C10 H1 0.930 . S
C10 C9 1.374 . S
C10 C11 1.383 . S
C11 O5 1.412 . S
C11 C10 1.383 . S
C11 C12 1.394 . S
C12 H2 0.929 . S
C12 C8 1.377 . S
C12 C11 1.394 . S
H13 C20 0.928 1_655 S
H14 C23 0.931 . S
H15 C25 0.928 1_655 S
H16 C17 0.969 . S
C17 H16 0.969 . S
C17 O18 1.550 1_455 S
C17 H19 0.973 1_455 S
O18 C17 1.550 1_655 S
O18 C24 1.404 1_655 S
H19 C17 0.973 1_655 S
C20 H13 0.928 1_455 S
C20 C21 1.400 . S
C20 C22 1.364 . S
C21 C20 1.400 . S
C21 C25 1.377 . S
C22 C20 1.364 . S
C22 C23 1.374 1_455 S
C23 H14 0.931 . S
C23 C22 1.374 1_655 S
C23 C24 1.382 1_655 S
C24 O18 1.404 1_455 S
C24 C23 1.382 1_455 S
C24 C25 1.394 . S
C25 H15 0.928 1_455 S
C25 C21 1.377 . S
C25 C24 1.394 . S
H26 C33 0.928 1_565 S
H27 C36 0.929 . S
H28 C38 0.924 1_565 S
H29 C30 0.969 . S
C30 H29 0.969 . S
C30 O31 1.550 1_545 S
C30 H32 0.973 1_545 S
O31 C30 1.550 1_565 S
O31 C37 1.404 1_565 S
H32 C30 0.973 1_565 S
C33 H26 0.928 1_545 S
C33 C34 1.403 . S
C33 C35 1.363 . S
C34 C33 1.403 . S
C34 C38 1.377 . S
C35 C33 1.363 . S
C35 C36 1.375 1_545 S
C36 H27 0.929 . S
C36 C35 1.375 1_565 S
C36 C37 1.390 1_565 S
C37 O31 1.404 1_545 S
C37 C36 1.390 1_545 S
C37 C38 1.387 . S
C38 H28 0.924 1_545 S
C38 C34 1.377 . S
C38 C37 1.387 . S
H39 C46 0.929 . S
H40 C49 0.930 . S
H41 C51 0.929 . S
H42 C43 0.969 . S
C43 H42 0.969 . S
C43 O44 1.550 1_556 S
C43 H45 0.973 . S
O44 C43 1.550 1_554 S
O44 C50 1.412 . S
H45 C43 0.973 . S
C46 H39 0.929 . S
C46 C47 1.400 . S
C46 C48 1.364 1_554 S
C47 C46 1.400 . S
C47 C51 1.377 . S
C48 C46 1.364 1_556 S
C48 C49 1.374 . S
C49 H40 0.930 . S
C49 C48 1.374 . S
C49 C50 1.383 1_556 S
C50 O44 1.412 . S
C50 C49 1.383 1_554 S
C50 C51 1.394 . S
C51 H41 0.929 . S
C51 C47 1.377 . S
C51 C50 1.394 . S
H52 C59 0.929 . S
H53 C62 0.930 . S
H54 C64 0.929 . S
H55 C56 0.969 . S
C56 H55 0.969 . S
C56 O57 1.550 . S
C56 H58 0.973 . S
O57 C56 1.550 . S
O57 C63 1.412 . S
H58 C56 0.973 . S
C59 H52 0.929 . S
C59 C60 1.400 . S
C59 C61 1.364 . S
C60 C59 1.400 . S
C60 C64 1.377 . S
C61 C59 1.364 . S
C61 C62 1.374 . S
C62 H53 0.930 . S
C62 C61 1.374 . S
C62 C63 1.383 . S
C63 O57 1.412 . S
C63 C62 1.383 . S
C63 C64 1.394 . S
C64 H54 0.929 . S
C64 C60 1.377 . S
C64 C63 1.394 . S
H65 C72 0.928 1_655 S
H66 C75 0.930 . S
H67 C77 0.929 1_655 S
H68 C69 0.969 . S
C69 H68 0.969 . S
C69 O70 1.550 1_455 S
C69 H71 0.973 1_455 S
O70 C69 1.550 1_655 S
O70 C76 1.412 1_655 S
H71 C69 0.973 1_655 S
C72 H65 0.928 1_455 S
C72 C73 1.399 . S
C72 C74 1.364 . S
C73 C72 1.399 . S
C73 C77 1.377 . S
C74 C72 1.364 . S
C74 C75 1.374 1_455 S
C75 H66 0.930 . S
C75 C74 1.374 1_655 S
C75 C76 1.383 1_655 S
C76 O70 1.412 1_455 S
C76 C75 1.383 1_455 S
C76 C77 1.395 . S
C77 H67 0.929 1_455 S
C77 C73 1.377 . S
C77 C76 1.395 . S
H78 C85 0.929 1_565 S
H79 C88 0.930 . S
H80 C90 0.933 1_565 S
H81 C82 0.969 . S
C82 H81 0.969 . S
C82 O83 1.550 1_545 S
C82 H84 0.973 1_545 S
O83 C82 1.550 1_565 S
O83 C89 1.412 1_565 S
H84 C82 0.973 1_565 S
C85 H78 0.929 1_545 S
C85 C86 1.396 . S
C85 C87 1.365 . S
C86 C85 1.396 . S
C86 C90 1.376 . S
C87 C85 1.365 . S
C87 C88 1.374 1_545 S
C88 H79 0.930 . S
C88 C87 1.374 1_565 S
C88 C89 1.383 1_565 S
C89 O83 1.412 1_545 S
C89 C88 1.383 1_545 S
C89 C90 1.392 . S
C90 H80 0.933 1_545 S
C90 C86 1.376 . S
C90 C89 1.392 . S
H91 C98 0.929 . S
H92 C101 0.930 . S
H93 C103 0.929 . S
H94 C95 0.969 . S
C95 H94 0.969 . S
C95 O96 1.550 . S
C95 H97 0.973 . S
O96 C95 1.550 . S
O96 C102 1.412 . S
H97 C95 0.973 . S
C98 H91 0.929 . S
C98 C99 1.400 . S
C98 C100 1.364 . S
C99 C98 1.400 . S
C99 C103 1.377 . S
C100 C98 1.364 . S
C100 C101 1.374 . S
C101 H92 0.930 . S
C101 C100 1.374 . S
C101 C102 1.383 . S
C102 O96 1.412 . S
C102 C101 1.383 . S
C102 C103 1.394 . S
C103 H93 0.929 . S
C103 C99 1.377 . S
C103 C102 1.394 . S
Tb104 C113 2.764 . S
Tb104 O114 2.325 . S
Tb104 O117 2.303 1_655 S
Tb104 O121 2.322 1_545 S
Tb104 O122 2.349 . S
Tb104 O125 2.415 . S
Tb104 O126 2.399 . S
Tb105 O115 2.322 1_566 S
Tb105 O116 2.349 . S
Tb105 O118 2.415 1_556 S
Tb105 O119 2.399 1_556 S
Tb105 O120 2.325 . S
Tb105 O123 2.303 1_455 S
Tb105 C134 2.764 1_556 S
C106 O122 1.261 . S
C106 O123 1.257 1_545 S
C107 C110 1.358 . S
C107 C111 1.332 . S
C107 C113 1.504 . S
C108 C109 1.373 . S
C108 C112 1.308 . S
C109 C108 1.373 . S
C109 C110 1.429 . S
C109 H136 0.932 . S
C110 C107 1.358 . S
C110 C109 1.429 . S
C110 H137 0.930 . S
C111 C107 1.332 . S
C111 C112 1.394 . S
C111 H138 0.932 1_655 S
C112 C108 1.308 . S
C112 C111 1.394 . S
C112 H139 0.929 . S
C113 Tb104 2.764 . S
C113 C107 1.504 . S
C113 O125 1.239 . S
C113 O126 1.263 . S
O114 Tb104 2.325 . S
O114 C124 1.236 1_655 S
O115 Tb105 2.322 1_544 S
O115 C124 1.257 1_554 S
O116 Tb105 2.349 . S
O116 C127 1.261 . S
O117 Tb104 2.303 1_455 S
O117 C127 1.257 1_545 S
O118 Tb105 2.415 1_554 S
O118 C134 1.239 . S
O119 Tb105 2.399 1_554 S
O119 C134 1.263 . S
O120 Tb105 2.325 . S
O120 C135 1.236 1_455 S
O121 Tb104 2.322 1_565 S
O121 C135 1.257 . S
O122 Tb104 2.349 . S
O122 C106 1.261 . S
O123 Tb105 2.303 1_655 S
O123 C106 1.257 1_565 S
C124 O114 1.236 1_455 S
C124 O115 1.257 1_556 S
O125 Tb104 2.415 . S
O125 C113 1.239 . S
O126 Tb104 2.399 . S
O126 C113 1.263 . S
C127 O116 1.261 . S
C127 O117 1.257 1_565 S
C128 C131 1.358 . S
C128 C132 1.332 . S
C128 C134 1.504 . S
C129 C130 1.373 . S
C129 C133 1.308 . S
C130 C129 1.373 . S
C130 C131 1.429 . S
C130 H140 0.932 . S
C131 C128 1.358 . S
C131 C130 1.429 . S
C131 H141 0.930 . S
C132 C128 1.332 . S
C132 C133 1.394 . S
C132 H142 0.932 1_455 S
C133 C129 1.308 . S
C133 C132 1.394 . S
C133 H143 0.929 . S
C134 Tb105 2.764 1_554 S
C134 O118 1.239 . S
C134 O119 1.263 . S
C134 C128 1.504 . S
C135 O120 1.236 1_655 S
C135 O121 1.257 . S
H136 C109 0.932 . S
H137 C110 0.930 . S
H138 C111 0.932 1_455 S
H139 C112 0.929 . S
H140 C130 0.932 . S
H141 C131 0.930 . S
H142 C132 0.932 1_655 S
H143 C133 0.929 . S
Tb144 C153 2.764 . S
Tb144 O154 2.325 . S
Tb144 O157 2.303 1_565 S
Tb144 O161 2.322 . S
Tb144 O162 2.349 . S
Tb144 O165 2.415 1_565 S
Tb144 O166 2.399 . S
Tb145 O155 2.322 . S
Tb145 O156 2.349 1_554 S
Tb145 O158 2.415 1_545 S
Tb145 O159 2.399 . S
Tb145 O160 2.325 1_554 S
Tb145 O163 2.303 1_544 S
Tb145 C174 2.764 . S
C146 O162 1.261 . S
C146 O163 1.257 . S
C147 C150 1.358 . S
C147 C151 1.332 1_565 S
C147 C153 1.504 . S
C148 C149 1.373 . S
C148 C152 1.308 1_565 S
C149 C148 1.373 . S
C149 C150 1.429 . S
C149 H176 0.932 . S
C150 C147 1.358 . S
C150 C149 1.429 . S
C150 H177 0.930 . S
C151 C147 1.332 1_545 S
C151 C152 1.394 . S
C151 H178 0.932 . S
C152 C148 1.308 1_545 S
C152 C151 1.394 . S
C152 H179 0.929 . S
C153 Tb144 2.764 . S
C153 C147 1.504 . S
C153 O165 1.239 1_565 S
C153 O166 1.263 . S
O154 Tb144 2.325 . S
O154 C164 1.236 1_565 S
O155 Tb145 2.322 . S
O155 C164 1.257 1_554 S
O156 Tb145 2.349 1_556 S
O156 C167 1.261 . S
O157 Tb144 2.303 1_545 S
O157 C167 1.257 . S
O158 Tb145 2.415 1_565 S
O158 C174 1.239 1_565 S
O159 Tb145 2.399 . S
O159 C174 1.263 . S
O160 Tb145 2.325 1_556 S
O160 C175 1.236 1_545 S
O161 Tb144 2.322 . S
O161 C175 1.257 . S
O162 Tb144 2.349 . S
O162 C146 1.261 . S
O163 Tb145 2.303 1_566 S
O163 C146 1.257 . S
C164 O154 1.236 1_545 S
C164 O155 1.257 1_556 S
O165 Tb144 2.415 1_545 S
O165 C153 1.239 1_545 S
O166 Tb144 2.399 . S
O166 C153 1.263 . S
C167 O156 1.261 . S
C167 O157 1.257 . S
C168 C171 1.358 . S
C168 C172 1.332 1_545 S
C168 C174 1.504 . S
C169 C170 1.373 . S
C169 C173 1.308 1_545 S
C170 C169 1.373 . S
C170 C171 1.429 . S
C170 H180 0.932 . S
C171 C168 1.358 . S
C171 C170 1.429 . S
C171 H181 0.930 . S
C172 C168 1.332 1_565 S
C172 C173 1.394 . S
C172 H182 0.932 . S
C173 C169 1.308 1_565 S
C173 C172 1.394 . S
C173 H183 0.929 . S
C174 Tb145 2.764 . S
C174 O158 1.239 1_545 S
C174 O159 1.263 . S
C174 C168 1.504 . S
C175 O160 1.236 1_565 S
C175 O161 1.257 . S
H176 C149 0.932 . S
H177 C150 0.930 . S
H178 C151 0.932 . S
H179 C152 0.929 . S
H180 C170 0.932 . S
H181 C171 0.930 . S
H182 C172 0.932 . S
H183 C173 0.929 . S
Tb184 C193 2.764 . S
Tb184 O194 2.325 1_554 S
Tb184 O197 2.303 1_554 S
Tb184 O201 2.322 1_554 S
Tb184 O202 2.349 1_554 S
Tb184 O205 2.415 . S
Tb184 O206 2.399 . S
Tb185 O195 2.322 . S
Tb185 O196 2.349 . S
Tb185 O198 2.415 . S
Tb185 O199 2.399 . S
Tb185 O200 2.325 . S
Tb185 O203 2.303 . S
Tb185 C214 2.764 . S
C186 O202 1.261 . S
C186 O203 1.257 . S
C187 C190 1.358 . S
C187 C191 1.332 . S
C187 C193 1.504 . S
C188 C189 1.373 . S
C188 C192 1.308 . S
C189 C188 1.373 . S
C189 C190 1.429 . S
C189 H216 0.932 . S
C190 C187 1.358 . S
C190 C189 1.429 . S
C190 H217 0.930 . S
C191 C187 1.332 . S
C191 C192 1.394 . S
C191 H218 0.932 . S
C192 C188 1.308 . S
C192 C191 1.394 . S
C192 H219 0.929 . S
C193 Tb184 2.764 . S
C193 C187 1.504 . S
C193 O205 1.239 . S
C193 O206 1.263 . S
O194 Tb184 2.325 1_556 S
O194 C204 1.236 . S
O195 Tb185 2.322 . S
O195 C204 1.257 . S
O196 Tb185 2.349 . S
O196 C207 1.261 . S
O197 Tb184 2.303 1_556 S
O197 C207 1.257 . S
O198 Tb185 2.415 . S
O198 C214 1.239 . S
O199 Tb185 2.399 . S
O199 C214 1.263 . S
O200 Tb185 2.325 . S
O200 C215 1.236 . S
O201 Tb184 2.322 1_556 S
O201 C215 1.257 . S
O202 Tb184 2.349 1_556 S
O202 C186 1.261 . S
O203 Tb185 2.303 . S
O203 C186 1.257 . S
C204 O194 1.236 . S
C204 O195 1.257 . S
O205 Tb184 2.415 . S
O205 C193 1.239 . S
O206 Tb184 2.399 . S
O206 C193 1.263 . S
C207 O196 1.261 . S
C207 O197 1.257 . S
C208 C211 1.358 . S
C208 C212 1.332 . S
C208 C214 1.504 . S
C209 C210 1.373 . S
C209 C213 1.308 . S
C210 C209 1.373 . S
C210 C211 1.429 . S
C210 H220 0.932 . S
C211 C208 1.358 . S
C211 C210 1.429 . S
C211 H221 0.930 . S
C212 C208 1.332 . S
C212 C213 1.394 . S
C212 H222 0.932 . S
C213 C209 1.308 . S
C213 C212 1.394 . S
C213 H223 0.929 . S
C214 Tb185 2.764 . S
C214 O198 1.239 . S
C214 O199 1.263 . S
C214 C208 1.504 . S
C215 O200 1.236 . S
C215 O201 1.257 . S
H216 C189 0.932 . S
H217 C190 0.930 . S
H218 C191 0.932 . S
H219 C192 0.929 . S
H220 C210 0.932 . S
H221 C211 0.930 . S
H222 C212 0.932 . S
H223 C213 0.929 . S
Tb224 C233 2.764 . S
Tb224 O234 2.325 . S
Tb224 O237 2.303 . S
Tb224 O241 2.322 1_455 S
Tb224 O242 2.349 . S
Tb224 O245 2.415 . S
Tb224 O246 2.399 . S
Tb225 O235 2.322 1_655 S
Tb225 O236 2.349 . S
Tb225 O238 2.415 1_556 S
Tb225 O239 2.399 1_556 S
Tb225 O240 2.325 . S
Tb225 O243 2.303 . S
Tb225 C254 2.764 1_556 S
C226 O242 1.261 . S
C226 O243 1.257 1_455 S
C227 C230 1.358 . S
C227 C231 1.332 . S
C227 C233 1.504 . S
C228 C229 1.373 . S
C228 C232 1.308 . S
C229 C228 1.373 . S
C229 C230 1.429 . S
C229 H256 0.932 . S
C230 C227 1.358 . S
C230 C229 1.429 . S
C230 H257 0.930 . S
C231 C227 1.332 . S
C231 C232 1.394 . S
C231 H258 0.932 . S
C232 C228 1.308 . S
C232 C231 1.394 . S
C232 H259 0.929 . S
C233 Tb224 2.764 . S
C233 C227 1.504 . S
C233 O245 1.239 . S
C233 O246 1.263 . S
O234 Tb224 2.325 . S
O234 C244 1.236 . S
O235 Tb225 2.322 1_455 S
O235 C244 1.257 . S
O236 Tb225 2.349 . S
O236 C247 1.261 . S
O237 Tb224 2.303 . S
O237 C247 1.257 1_455 S
O238 Tb225 2.415 1_554 S
O238 C254 1.239 . S
O239 Tb225 2.399 1_554 S
O239 C254 1.263 . S
O240 Tb225 2.325 . S
O240 C255 1.236 . S
O241 Tb224 2.322 1_655 S
O241 C255 1.257 . S
O242 Tb224 2.349 . S
O242 C226 1.261 . S
O243 Tb225 2.303 . S
O243 C226 1.257 1_655 S
C244 O234 1.236 . S
C244 O235 1.257 . S
O245 Tb224 2.415 . S
O245 C233 1.239 . S
O246 Tb224 2.399 . S
O246 C233 1.263 . S
C247 O236 1.261 . S
C247 O237 1.257 1_655 S
C248 C251 1.358 . S
C248 C252 1.332 . S
C248 C254 1.504 . S
C249 C250 1.373 . S
C249 C253 1.308 . S
C250 C249 1.373 . S
C250 C251 1.429 . S
C250 H260 0.932 . S
C251 C248 1.358 . S
C251 C250 1.429 . S
C251 H261 0.930 . S
C252 C248 1.332 . S
C252 C253 1.394 . S
C252 H262 0.932 . S
C253 C249 1.308 . S
C253 C252 1.394 . S
C253 H263 0.929 . S
C254 Tb225 2.764 1_554 S
C254 O238 1.239 . S
C254 O239 1.263 . S
C254 C248 1.504 . S
C255 O240 1.236 . S
C255 O241 1.257 . S
H256 C229 0.932 . S
H257 C230 0.930 . S
H258 C231 0.932 . S
H259 C232 0.929 . S
H260 C250 0.932 . S
H261 C251 0.930 . S
H262 C252 0.932 . S
H263 C253 0.929 . S
C264 C265 1.356 1_565 S
C264 C266 1.419 . S
C264 H268 0.930 . S
C265 C264 1.356 1_545 S
C265 C274 1.435 . S
C266 C264 1.419 . S
C266 C267 1.363 1_565 S
C266 H269 0.929 . S
C267 C266 1.363 1_545 S
C267 C273 1.428 . S
H268 C264 0.930 . S
H269 C266 0.929 . S
S270 N271 1.613 . S
S270 N272 1.610 . S
N271 S270 1.613 . S
N271 C274 1.350 . S
N272 S270 1.610 . S
N272 C273 1.351 . S
C273 C267 1.428 . S
C273 N272 1.351 . S
C273 C274 1.434 . S
C274 C265 1.435 . S
C274 N271 1.350 . S
C274 C273 1.434 . S
C275 C276 1.369 . S
C275 C277 1.419 . S
C275 H279 0.930 . S
C276 C275 1.369 . S
C276 C285 1.429 . S
C277 C275 1.419 . S
C277 C278 1.363 . S
C277 H280 0.929 . S
C278 C277 1.363 . S
C278 C284 1.428 . S
H279 C275 0.930 . S
H280 C277 0.929 . S
S281 N282 1.613 . S
S281 N283 1.610 . S
N282 S281 1.613 . S
N282 C285 1.350 . S
N283 S281 1.610 . S
N283 C284 1.351 . S
C284 C278 1.428 . S
C284 N283 1.351 . S
C284 C285 1.434 . S
C285 C276 1.429 . S
C285 N282 1.350 . S
C285 C284 1.434 . S
C286 C287 1.369 . S
C286 C288 1.419 . S
C286 H290 0.930 . S
C287 C286 1.369 . S
C287 C296 1.429 . S
C288 C286 1.419 . S
C288 C289 1.363 . S
C288 H291 0.929 . S
C289 C288 1.363 . S
C289 C295 1.428 . S
H290 C286 0.930 . S
H291 C288 0.929 . S
S292 N293 1.613 . S
S292 N294 1.610 . S
N293 S292 1.613 . S
N293 C296 1.350 . S
N294 S292 1.610 . S
N294 C295 1.351 . S
C295 C289 1.428 . S
C295 N294 1.351 . S
C295 C296 1.434 . S
C296 C287 1.429 . S
C296 N293 1.350 . S
C296 C295 1.434 . S
C297 C298 1.360 1_655 S
C297 C299 1.419 . S
C297 H301 0.930 . S
C298 C297 1.360 1_455 S
C298 C307 1.438 . S
C299 C297 1.419 . S
C299 C300 1.363 1_655 S
C299 H302 0.929 . S
C300 C299 1.363 1_455 S
C300 C306 1.428 . S
H301 C297 0.930 . S
H302 C299 0.929 . S
S303 N304 1.613 . S
S303 N305 1.610 . S
N304 S303 1.613 . S
N304 C307 1.350 . S
N305 S303 1.610 . S
N305 C306 1.351 . S
C306 C300 1.428 . S
C306 N305 1.351 . S
C306 C307 1.434 . S
C307 C298 1.438 . S
C307 N304 1.350 . S
C307 C306 1.434 . S
C308 C309 1.349 1_545 S
C308 C310 1.419 . S
C308 H312 0.930 . S
C309 C308 1.349 1_565 S
C309 C318 1.443 . S
C310 C308 1.419 . S
C310 C311 1.363 1_545 S
C310 H313 0.929 . S
C311 C310 1.363 1_565 S
C311 C317 1.428 . S
H312 C308 0.930 . S
H313 C310 0.929 . S
S314 N315 1.613 . S
S314 N316 1.610 . S
N315 S314 1.613 . S
N315 C318 1.350 . S
N316 S314 1.610 . S
N316 C317 1.351 . S
C317 C311 1.428 . S
C317 N316 1.351 . S
C317 C318 1.434 . S
C318 C309 1.443 . S
C318 N315 1.350 . S
C318 C317 1.434 . S
C319 C320 1.369 1_554 S
C319 C321 1.419 1_554 S
C319 H323 0.930 . S
C320 C319 1.369 1_556 S
C320 C329 1.429 . S
C321 C319 1.419 1_556 S
C321 C322 1.363 . S
C321 H324 0.929 1_556 S
C322 C321 1.363 . S
C322 C328 1.428 . S
H323 C319 0.930 . S
H324 C321 0.929 1_554 S
S325 N326 1.613 . S
S325 N327 1.610 . S
N326 S325 1.613 . S
N326 C329 1.350 . S
N327 S325 1.610 . S
N327 C328 1.351 . S
C328 C322 1.428 . S
C328 N327 1.351 . S
C328 C329 1.434 . S
C329 C320 1.429 . S
C329 N326 1.350 . S
C329 C328 1.434 . S
C330 C331 1.369 . S
C330 C332 1.419 . S
C330 H334 0.930 . S
C331 C330 1.369 . S
C331 C340 1.429 . S
C332 C330 1.419 . S
C332 C333 1.363 . S
C332 H335 0.929 . S
C333 C332 1.363 . S
C333 C339 1.428 . S
H334 C330 0.930 . S
H335 C332 0.929 . S
S336 N337 1.613 . S
S336 N338 1.610 . S
N337 S336 1.613 . S
N337 C340 1.350 . S
N338 S336 1.610 . S
N338 C339 1.351 . S
C339 C333 1.428 . S
C339 N338 1.351 . S
C339 C340 1.434 . S
C340 C331 1.429 . S
C340 N337 1.350 . S
C340 C339 1.434 . S
C341 C342 1.358 1_455 S
C341 C343 1.419 . S
C341 H345 0.930 . S
C342 C341 1.358 1_655 S
C342 C351 1.440 . S
C343 C341 1.419 . S
C343 C344 1.363 1_455 S
C343 H346 0.929 . S
C344 C343 1.363 1_655 S
C344 C350 1.428 . S
H345 C341 0.930 . S
H346 C343 0.929 . S
S347 N348 1.613 . S
S347 N349 1.610 . S
N348 S347 1.613 . S
N348 C351 1.350 . S
N349 S347 1.610 . S
N349 C350 1.351 . S
C350 C344 1.428 . S
C350 N349 1.351 . S
C350 C351 1.434 . S
C351 C342 1.440 . S
C351 N348 1.350 . S
C351 C350 1.434 . S
C352 C353 1.369 . S
C352 C354 1.419 . S
C352 H356 0.930 . S
C353 C352 1.369 . S
C353 C362 1.429 1_655 S
C354 C352 1.419 . S
C354 C355 1.363 . S
C354 H357 0.929 . S
C355 C354 1.363 . S
C355 C361 1.428 . S
H356 C352 0.930 . S
H357 C354 0.929 . S
S358 N359 1.613 . S
S358 N360 1.610 1_455 S
N359 S358 1.613 . S
N359 C362 1.350 . S
N360 S358 1.610 1_655 S
N360 C361 1.351 . S
C361 C355 1.428 . S
C361 N360 1.351 . S
C361 C362 1.434 1_655 S
C362 C353 1.429 1_455 S
C362 N359 1.350 . S
C362 C361 1.434 1_455 S
C363 C364 1.369 1_565 S
C363 C365 1.419 . S
C363 H367 0.930 1_565 S
C364 C363 1.369 1_545 S
C364 C373 1.429 1_545 S
C365 C363 1.419 . S
C365 C366 1.363 . S
C365 H368 0.929 . S
C366 C365 1.363 . S
C366 C372 1.428 . S
H367 C363 0.930 1_545 S
H368 C365 0.929 . S
S369 N370 1.613 . S
S369 N371 1.610 . S
N370 S369 1.613 . S
N370 C373 1.350 . S
N371 S369 1.610 . S
N371 C372 1.351 . S
C372 C366 1.428 . S
C372 N371 1.351 . S
C372 C373 1.434 . S
C373 C364 1.429 1_565 S
C373 N370 1.350 . S
C373 C372 1.434 . S
C374 C375 1.369 . S
C374 C376 1.419 . S
C374 H378 0.930 1_556 S
C375 C374 1.369 . S
C375 C384 1.429 . S
C376 C374 1.419 . S
C376 C377 1.363 . S
C376 H379 0.929 . S
C377 C376 1.363 . S
C377 C383 1.428 . S
H378 C374 0.930 1_554 S
H379 C376 0.929 . S
S380 N381 1.613 . S
S380 N382 1.610 . S
N381 S380 1.613 . S
N381 C384 1.350 . S
N382 S380 1.610 . S
N382 C383 1.351 . S
C383 C377 1.428 . S
C383 N382 1.351 . S
C383 C384 1.434 . S
C384 C375 1.429 . S
C384 N381 1.350 . S
C384 C383 1.434 . S
C385 C386 1.369 . S
C385 C387 1.419 . S
C385 H389 0.930 . S
C386 C385 1.369 . S
C386 C395 1.429 . S
C387 C385 1.419 . S
C387 C388 1.363 . S
C387 H390 0.929 . S
C388 C387 1.363 . S
C388 C394 1.428 . S
H389 C385 0.930 . S
H390 C387 0.929 . S
S391 N392 1.613 . S
S391 N393 1.610 . S
N392 S391 1.613 . S
N392 C395 1.350 . S
N393 S391 1.610 . S
N393 C394 1.351 . S
C394 C388 1.428 . S
C394 N393 1.351 . S
C394 C395 1.434 . S
C395 C386 1.429 . S
C395 N392 1.350 . S
C395 C394 1.434 . S
C396 C397 1.369 . S
C396 C398 1.419 . S
C396 H400 0.930 . S
C397 C396 1.369 . S
C397 C406 1.429 . S
C398 C396 1.419 . S
C398 C399 1.363 . S
C398 H401 0.929 . S
C399 C398 1.363 . S
C399 C405 1.428 . S
H400 C396 0.930 . S
H401 C398 0.929 . S
S402 N403 1.610 1_455 S
S402 N404 1.610 . S
N403 S402 1.610 1_655 S
N403 C406 1.346 1_655 S
N404 S402 1.610 . S
N404 C405 1.351 . S
C405 C399 1.428 . S
C405 N404 1.351 . S
C405 C406 1.434 . S
C406 C397 1.429 . S
C406 N403 1.346 1_455 S
C406 C405 1.434 . S
C407 C408 1.369 . S
C407 C409 1.419 . S
C407 H411 0.930 . S
C408 C407 1.369 . S
C408 C417 1.429 1_565 S
C409 C407 1.419 . S
C409 C410 1.363 1_565 S
C409 H412 0.929 . S
C410 C409 1.363 1_545 S
C410 C416 1.428 . S
H411 C407 0.930 . S
H412 C409 0.929 . S
S413 N414 1.613 . S
S413 N415 1.610 . S
N414 S413 1.613 . S
N414 C417 1.350 . S
N415 S413 1.610 . S
N415 C416 1.351 . S
C416 C410 1.428 . S
C416 N415 1.351 . S
C416 C417 1.434 . S
C417 C408 1.429 1_545 S
C417 N414 1.350 . S
C417 C416 1.434 . S
C418 C419 1.369 . S
C418 C420 1.419 . S
C418 H422 0.930 . S
C419 C418 1.369 . S
C419 C428 1.429 . S
C420 C418 1.419 . S
C420 C421 1.363 . S
C420 H423 0.929 1_556 S
C421 C420 1.363 . S
C421 C427 1.428 . S
H422 C418 0.930 . S
H423 C420 0.929 1_554 S
S424 N425 1.613 . S
S424 N426 1.610 . S
N425 S424 1.613 . S
N425 C428 1.350 . S
N426 S424 1.610 . S
N426 C427 1.351 . S
C427 C421 1.428 . S
C427 N426 1.351 . S
C427 C428 1.434 . S
C428 C419 1.429 . S
C428 N425 1.350 . S
C428 C427 1.434 . S
C429 C430 1.369 . S
C429 C431 1.419 . S
C429 H433 0.930 . S
C430 C429 1.369 . S
C430 C439 1.429 . S
C431 C429 1.419 . S
C431 C432 1.363 . S
C431 H434 0.929 . S
C432 C431 1.363 . S
C432 C438 1.428 . S
H433 C429 0.930 . S
H434 C431 0.929 . S
S435 N436 1.613 . S
S435 N437 1.610 . S
N436 S435 1.613 . S
N436 C439 1.350 . S
N437 S435 1.610 . S
N437 C438 1.351 . S
C438 C432 1.428 . S
C438 N437 1.351 . S
C438 C439 1.434 . S
C439 C430 1.429 . S
C439 N436 1.350 . S
C439 C438 1.434 . S
C440 C441 1.369 1_655 S
C440 C442 1.419 . S
C440 H444 0.930 . S
C441 C440 1.369 1_455 S
C441 C450 1.429 . S
C442 C440 1.419 . S
C442 C443 1.363 1_655 S
C442 H445 0.929 1_554 S
C443 C442 1.363 1_455 S
C443 C449 1.428 . S
H444 C440 0.930 . S
H445 C442 0.929 1_556 S
S446 N447 1.613 . S
S446 N448 1.610 . S
N447 S446 1.613 . S
N447 C450 1.350 . S
N448 S446 1.610 . S
N448 C449 1.351 . S
C449 C443 1.428 . S
C449 N448 1.351 . S
C449 C450 1.434 . S
C450 C441 1.429 . S
C450 N447 1.350 . S
C450 C449 1.434 . S
C451 C452 1.369 . S
C451 C453 1.419 . S
C451 H455 0.930 . S
C452 C451 1.369 . S
C452 C461 1.429 1_544 S
C453 C451 1.419 . S
C453 C454 1.363 1_554 S
C453 H456 0.929 . S
C454 C453 1.363 1_556 S
C454 C460 1.428 1_545 S
H455 C451 0.930 . S
H456 C453 0.929 . S
S457 N458 1.613 . S
S457 N459 1.610 . S
N458 S457 1.613 . S
N458 C461 1.350 . S
N459 S457 1.610 . S
N459 C460 1.351 . S
C460 C454 1.428 1_565 S
C460 N459 1.351 . S
C460 C461 1.434 . S
C461 C452 1.429 1_566 S
C461 N458 1.350 . S
C461 C460 1.434 . S
C462 C463 1.369 . S
C462 C464 1.419 . S
C462 H466 0.930 . S
C463 C462 1.369 . S
C463 C472 1.429 . S
C464 C462 1.419 . S
C464 C465 1.363 . S
C464 H467 0.929 . S
C465 C464 1.363 . S
C465 C471 1.428 . S
H466 C462 0.930 . S
H467 C464 0.929 . S
S468 N469 1.613 . S
S468 N470 1.610 . S
N469 S468 1.613 . S
N469 C472 1.350 . S
N470 S468 1.610 . S
N470 C471 1.351 . S
C471 C465 1.428 . S
C471 N470 1.351 . S
C471 C472 1.434 . S
C472 C463 1.429 . S
C472 N469 1.350 . S
C472 C471 1.434 . S
C473 C474 1.369 . S
C473 C475 1.419 . S
C473 H477 0.930 1_556 S
C474 C473 1.369 . S
C474 C483 1.429 . S
C475 C473 1.419 . S
C475 C476 1.363 . S
C475 H478 0.929 . S
C476 C475 1.363 . S
C476 C482 1.428 . S
H477 C473 0.930 1_554 S
H478 C475 0.929 . S
S479 N480 1.613 . S
S479 N481 1.610 . S
N480 S479 1.613 . S
N480 C483 1.350 . S
N481 S479 1.610 . S
N481 C482 1.351 . S
C482 C476 1.428 . S
C482 N481 1.351 . S
C482 C483 1.434 . S
C483 C474 1.429 . S
C483 N480 1.350 . S
C483 C482 1.434 . S
C484 C485 1.369 . S
C484 C486 1.419 . S
C484 H488 0.930 . S
C485 C484 1.369 . S
C485 C494 1.429 1_655 S
C486 C484 1.419 . S
C486 C487 1.363 . S
C486 H489 0.929 . S
C487 C486 1.363 . S
C487 C493 1.428 1_655 S
H488 C484 0.930 . S
H489 C486 0.929 . S
S490 N491 1.613 . S
S490 N492 1.610 . S
N491 S490 1.613 . S
N491 C494 1.350 . S
N492 S490 1.610 . S
N492 C493 1.351 . S
C493 C487 1.428 1_455 S
C493 N492 1.351 . S
C493 C494 1.434 . S
C494 C485 1.429 1_455 S
C494 N491 1.350 . S
C494 C493 1.434 . S
C495 C496 1.369 1_545 S
C495 C497 1.419 . S
C495 H499 0.930 . S
C496 C495 1.369 1_565 S
C496 C505 1.429 . S
C497 C495 1.419 . S
C497 C498 1.363 1_545 S
C497 H500 0.929 . S
C498 C497 1.363 1_565 S
C498 C504 1.428 . S
H499 C495 0.930 . S
H500 C497 0.929 . S
S501 N502 1.613 . S
S501 N503 1.610 . S
N502 S501 1.613 . S
N502 C505 1.350 . S
N503 S501 1.610 . S
N503 C504 1.351 . S
C504 C498 1.428 . S
C504 N503 1.351 . S
C504 C505 1.434 . S
C505 C496 1.429 . S
C505 N502 1.350 . S
C505 C504 1.434 . S
C506 C507 1.369 . S
C506 C508 1.419 . S
C506 H510 0.930 . S
C507 C506 1.369 . S
C507 C516 1.429 . S
C508 C506 1.419 . S
C508 C509 1.363 . S
C508 H511 0.929 . S
C509 C508 1.363 . S
C509 C515 1.428 . S
H510 C506 0.930 . S
H511 C508 0.929 . S
S512 N513 1.613 . S
S512 N514 1.610 . S
N513 S512 1.613 . S
N513 C516 1.350 . S
N514 S512 1.610 . S
N514 C515 1.351 . S
C515 C509 1.428 . S
C515 N514 1.351 . S
C515 C516 1.434 . S
C516 C507 1.429 . S
C516 N513 1.350 . S
C516 C515 1.434 . S
C517 C518 1.369 . S
C517 C519 1.419 . S
C517 H521 0.930 . S
C518 C517 1.369 . S
C518 C527 1.429 . S
C519 C517 1.419 . S
C519 C520 1.363 . S
C519 H522 0.929 . S
C520 C519 1.363 . S
C520 C526 1.428 . S
H521 C517 0.930 . S
H522 C519 0.929 . S
S523 N524 1.613 . S
S523 N525 1.610 . S
N524 S523 1.613 . S
N524 C527 1.350 . S
N525 S523 1.610 . S
N525 C526 1.351 . S
C526 C520 1.428 . S
C526 N525 1.351 . S
C526 C527 1.434 . S
C527 C518 1.429 . S
C527 N524 1.350 . S
C527 C526 1.434 . S
C265 C82 1.814 . S
C267 C127 2.254 1_545 S
C278 C167 1.811 . S
C276 C95 1.775 . S
C289 C186 2.265 . S
C287 C56 1.889 . S
C300 C247 1.558 1_455 S
C298 C69 1.260 . S
C311 C106 2.255 1_564 S
C309 C30 1.831 1_565 S
C320 C43 1.722 . S
C322 C146 1.814 . S
C331 C4 1.796 . S
C333 C207 2.267 1_554 S
C342 C17 1.262 1_655 S
C344 C226 1.558 1_654 S
C355 C108 1.139 . S
C353 C74 1.205 1_655 S
C366 C148 0.580 . S
C364 C87 0.587 . S
C377 C204 1.357 . S
C375 C100 1.172 . S
C386 C61 0.710 . S
C388 C228 0.694 . S
C397 C22 1.206 . S
C399 C129 1.149 . S
C410 C169 0.596 . S
C408 C35 0.567 1_565 S
C421 C215 1.353 . S
C419 C48 1.187 . S
C430 C9 0.718 . S
C432 C249 0.698 . S
C441 C73 1.635 . S
C443 C124 1.842 1_554 S
C452 C86 2.320 . S
C454 C164 2.573 . S
C465 C188 1.628 . S
C463 C99 1.668 . S
C476 C244 2.566 . S
C474 C60 2.310 1_556 S
C485 C21 1.639 1_655 S
C487 C135 1.846 . S
C498 C175 2.576 . S
C496 C34 2.309 1_565 S
C509 C209 1.628 . S
C507 C47 1.677 . S
C518 C8 2.310 . S
C520 C255 2.570 . S
