# Generated by pormake.
# Topology tsx, (6,3)-cn, num edge types: 1
# Building blocks:
#     Node 0, Type 0, BuildingBlock: JUFBIX_clean_sbu_0, # of connection points: 6
#     Node 1, Type 0, BuildingBlock: JUFBIX_clean_sbu_0, # of connection points: 6
#     Node 2, Type 1, BuildingBlock: VETTIZ_charged_linker_0, # of connection points: 3
#     Node 3, Type 1, BuildingBlock: VETTIZ_charged_linker_0, # of connection points: 3
#     Node 4, Type 1, BuildingBlock: VETTIZ_charged_linker_0, # of connection points: 3
#     Node 5, Type 1, BuildingBlock: VETTIZ_charged_linker_0, # of connection points: 3
#     Edge 6, Type (0, 1), BuildingBlock: CIFDUS_clean_linker_0, # of connection points: 2
#     Edge 7, Type (0, 1), BuildingBlock: CIFDUS_clean_linker_0, # of connection points: 2
#     Edge 8, Type (0, 1), BuildingBlock: CIFDUS_clean_linker_0, # of connection points: 2
#     Edge 9, Type (0, 1), BuildingBlock: CIFDUS_clean_linker_0, # of connection points: 2
#     Edge 10, Type (0, 1), BuildingBlock: CIFDUS_clean_linker_0, # of connection points: 2
#     Edge 11, Type (0, 1), BuildingBlock: CIFDUS_clean_linker_0, # of connection points: 2
#     Edge 12, Type (0, 1), BuildingBlock: CIFDUS_clean_linker_0, # of connection points: 2
#     Edge 13, Type (0, 1), BuildingBlock: CIFDUS_clean_linker_0, # of connection points: 2
#     Edge 14, Type (0, 1), BuildingBlock: CIFDUS_clean_linker_0, # of connection points: 2
#     Edge 15, Type (0, 1), BuildingBlock: CIFDUS_clean_linker_0, # of connection points: 2
#     Edge 16, Type (0, 1), BuildingBlock: CIFDUS_clean_linker_0, # of connection points: 2
#     Edge 17, Type (0, 1), BuildingBlock: CIFDUS_clean_linker_0, # of connection points: 2
# Relax obj value: 0.164
# Max RMSD: 0.170
# Mean RMSD: 0.139
data_MOF--net-tsx--node1-JUFBIX_clean_sbu_0--node2-VETTIZ_charged_linker_0--edge1-CIFDUS_clean_linker_0
_symmetry_space_group_name_H-M    P1
_symmetry_Int_Tables_number       1
_symmetry_cell_setting            triclinic
loop_
_symmetry_equiv_pos_as_xyz
'x, y, z'
_cell_length_a     20.961923
_cell_length_b     24.745253
_cell_length_c     40.23216
_cell_angle_alpha  92.285143
_cell_angle_beta   89.991377
_cell_angle_gamma 99.085463
loop_
_atom_site_label
_atom_site_type_symbol
_atom_site_fract_x
_atom_site_fract_y
_atom_site_fract_z
_atom_type_partial_charge
Co0 Co 0.11501 0.07968 0.00817 0.0
C1 C 0.05783 0.0911 0.94728 0.0
Co2 Co 0.0422 0.13569 0.01003 0.0
C3 C 0.17359 0.98029 -0.0034 0.0
C4 C 0.23871 0.04846 0.01742 0.0
N5 N 0.17741 0.03361 0.00653 0.0
N6 N 0.23031 0.96138 0.00087 0.0
C7 C 0.2712 1.00471 0.0138 0.0
H8 H 0.12966 0.9558 -0.013 0.0
H9 H 0.25864 0.08859 0.02775 0.0
C10 C 0.10104 0.12375 0.07079 0.0
N11 N 0.98309 0.18429 0.01328 0.0
C12 C 0.9302 0.18821 -0.00516 0.0
C13 C 0.98936 0.22818 0.03473 0.0
N14 N 0.90378 0.23303 0.00397 0.0
C15 C 0.94077 0.25779 0.02926 0.0
C16 C 0.98983 0.02752 0.02059 0.0
O17 O 0.13042 0.09091 0.05416 0.0
O18 O 0.05978 0.14718 0.05635 0.0
O19 O 0.97685 0.0759 0.0189 0.0
O20 O 0.04803 0.01941 0.01658 0.0
O21 O 0.02597 0.12291 0.96361 0.0
H22 H 0.02812 0.23925 0.05264 0.0
H23 H 0.91308 0.1601 0.97429 0.0
O24 O 0.09968 0.06853 0.96211 0.0
O25 O 0.1802 0.14127 -7e-05 0.0
O26 O 0.1073 0.19546 0.00134 0.0
C27 C 0.16585 0.18914 -0.00174 0.0
H28 H 0.32148 1.00544 0.02006 0.0
H29 H 0.93391 0.29521 0.04266 0.0
Co30 Co 0.52842 0.44714 0.49943 0.0
C31 C 0.5094 0.47684 0.43557 0.0
Co32 Co 0.44452 0.49093 0.49479 0.0
C33 C 0.6086 0.36003 0.49495 0.0
C34 C 0.65169 0.43032 0.52428 0.0
N35 N 0.59949 0.41108 0.50523 0.0
N36 N 0.66422 0.34668 0.50704 0.0
C37 C 0.69142 0.39132 0.52526 0.0
H38 H 0.57402 0.33259 0.47979 0.0
H39 H 0.65981 0.46976 0.53745 0.0
C40 C 0.46523 0.46264 0.55874 0.0
N41 N 0.3729 0.52629 0.49033 0.0
C42 C 0.36954 0.57656 0.4791 0.0
C43 C 0.31196 0.50662 0.49944 0.0
N44 N 0.30891 0.58885 0.48079 0.0
C45 C 0.27262 0.54473 0.4935 0.0
C46 C 0.41294 0.37732 0.48758 0.0
O47 O 0.51359 0.44528 0.54558 0.0
O48 O 0.42675 0.48358 0.54063 0.0
O49 O 0.39158 0.4223 0.48532 0.0
O50 O 0.47268 0.37838 0.49365 0.0
O51 O 0.46377 0.49817 0.44903 0.0
H52 H 0.29719 0.46741 0.51039 0.0
H53 H 0.41086 0.60366 0.46995 0.0
O54 O 0.5429 0.44985 0.45308 0.0
O55 O 0.58266 0.51711 0.50559 0.0
O56 O 0.49808 0.55908 0.50471 0.0
C57 C 0.55873 0.56127 0.5081 0.0
H58 H 0.73691 0.39582 0.53855 0.0
H59 H 0.22165 0.54093 0.49913 0.0
C60 C 0.07633 0.85069 0.43193 0.0
C61 C 0.14033 0.84006 0.42781 0.0
C62 C 0.18573 0.87946 0.41244 0.0
C63 C 0.10362 0.93571 0.40351 0.0
C64 C 0.05936 0.89947 0.4202 0.0
C65 C 0.99552 0.92054 0.42396 0.0
H66 H 0.81899 0.12137 0.39312 0.0
C67 C 0.0723 0.98147 0.39345 0.0
C68 C 1.0123 0.97751 0.40956 0.0
H69 H 0.82658 0.05104 0.48914 0.0
H70 H 0.91659 1.00647 0.47001 0.0
H71 H 0.95505 0.16046 0.39853 0.0
H72 H 0.85887 0.02067 0.34176 0.0
H73 H 0.92142 0.05192 0.31666 0.0
H74 H 0.85871 0.08993 0.3302 0.0
H75 H 0.91859 0.16695 0.35884 0.0
H76 H 1.00165 0.15686 0.36272 0.0
C77 C 0.97534 0.92069 0.46055 0.0
C78 C 0.94365 0.8843 0.40235 0.0
C79 C 0.15075 0.07334 0.28704 0.0
C80 C 0.11992 0.10351 0.26476 0.0
C81 C 0.06315 0.12317 0.27508 0.0
C82 C 0.03574 0.1105 0.30592 0.0
C83 C 0.06435 0.07692 0.32674 0.0
C84 C 0.12141 0.05947 0.31751 0.0
C85 C 0.1421 0.02075 0.34186 0.0
C86 C 0.08684 0.01728 0.3668 0.0
C87 C 0.04194 0.05038 0.35762 0.0
C88 C 0.20774 0.047 0.3577 0.0
C89 C 0.14441 0.96534 0.32292 0.0
C90 C 0.83564 0.09242 0.40929 0.0
C91 C 0.81254 0.08715 0.44192 0.0
C92 C 0.84091 0.05354 0.46331 0.0
C93 C 0.89113 0.02573 0.45203 0.0
C94 C 0.91189 0.03007 0.41893 0.0
C95 C 0.88674 0.06589 0.39896 0.0
C96 C 0.92914 0.08168 0.36975 0.0
C97 C 0.98408 0.05018 0.37578 0.0
C98 C 0.97124 1.01654 0.40296 0.0
C99 C 0.95217 0.14468 0.37219 0.0
C100 C 0.89035 0.06048 0.33777 0.0
H101 H 0.20458 0.95642 0.38995 0.0
H102 H 0.04068 0.82202 0.44431 0.0
H103 H 0.89755 0.90117 0.40319 0.0
H104 H 0.93435 0.84193 0.41141 0.0
H105 H 0.95925 0.88228 0.37596 0.0
H106 H 1.00369 0.95583 0.47449 0.0
H107 H 0.98349 0.88266 0.47245 0.0
H108 H 0.92285 0.92143 0.46298 0.0
H109 H 0.19498 0.05842 0.28021 0.0
H110 H 0.03708 0.14554 0.25858 0.0
H111 H 0.99157 0.12545 0.31158 0.0
H112 H 0.21945 0.09153 0.3532 0.0
H113 H 0.2481 0.02739 0.34745 0.0
H114 H 0.20745 0.04427 0.38516 0.0
H115 H 0.09668 0.94926 0.3113 0.0
H116 H 0.1571 0.9335 0.33882 0.0
H117 H 0.18109 0.97014 0.30289 0.0
H118 H 0.23507 0.87285 0.40859 0.0
C119 C 0.16796 0.92751 0.40096 0.0
C120 C 0.14189 0.08441 0.54476 0.0
C121 C 0.18938 0.12551 0.55881 0.0
C122 C 0.18869 0.13793 0.5932 0.0
C123 C 0.09375 0.0695 0.59931 0.0
C124 C 0.09492 0.05648 0.56563 0.0
C125 C 0.04272 1.00931 0.55577 0.0
H126 H 0.78779 0.8211 0.60208 0.0
C127 C 0.03893 0.03357 0.61402 0.0
C128 C 1.00894 0.99751 0.58886 0.0
H129 H 0.88017 0.8339 0.50611 0.0
H130 H 0.95285 0.91456 0.52662 0.0
H131 H 0.9185 0.84212 0.64413 0.0
H132 H 0.78968 0.95256 0.6164 0.0
H133 H 0.81475 0.97017 0.65763 0.0
H134 H 0.76923 0.90323 0.64775 0.0
H135 H 0.83914 0.83974 0.66138 0.0
H136 H 0.90778 0.88452 0.6791 0.0
C137 C 0.07607 0.9612 0.54255 0.0
C138 C 0.99759 0.02998 0.53053 0.0
C139 C 0.99471 0.05811 0.73678 0.0
C140 C 0.94819 0.03178 0.75823 0.0
C141 C 0.89785 0.9923 0.74502 0.0
C142 C 0.89587 0.97748 0.7109 0.0
C143 C 0.94467 1.0026 0.68995 0.0
C144 C 0.99205 0.04304 0.70299 0.0
C145 C 0.03961 0.06602 0.67739 0.0
C146 C 1.01398 0.03196 0.64676 0.0
C147 C 0.95867 0.99464 0.65417 0.0
C148 C 0.1076 0.05489 0.68773 0.0
C149 C 0.034 0.12738 0.67429 0.0
C150 C 0.82329 0.84165 0.58534 0.0
C151 C 0.82829 0.82124 0.55248 0.0
C152 C 0.87574 0.84863 0.5316 0.0
C153 C 0.91797 0.8952 0.54343 0.0
C154 C 0.91377 0.91417 0.57653 0.0
C155 C 0.86673 0.8876 0.59688 0.0
C156 C 0.87097 0.91218 0.63174 0.0
C157 C 0.92874 0.95727 0.62903 0.0
C158 C 0.95365 0.95858 0.59654 0.0
C159 C 0.88438 0.86755 0.65558 0.0
C160 C 0.80787 0.93555 0.63911 0.0
H161 H 0.14336 0.1222 0.6394 0.0
H162 H 0.14199 0.07384 0.51837 0.0
H163 H 0.95231 1.00124 0.52617 0.0
H164 H 0.02236 0.03804 0.50642 0.0
H165 H 0.98296 0.06905 0.54 0.0
H166 H 0.04755 0.92064 0.54672 0.0
H167 H 0.12238 0.96066 0.55596 0.0
H168 H 0.08745 0.96479 0.5157 0.0
H169 H 0.03347 0.08912 0.74629 0.0
H170 H 0.86153 0.97156 0.76127 0.0
H171 H 0.85729 0.94627 0.70231 0.0
H172 H 0.10427 0.01708 0.70214 0.0
H173 H 0.13339 0.08928 0.70356 0.0
H174 H 0.13816 0.04721 0.66619 0.0
H175 H 0.983 0.1341 0.67722 0.0
H176 H 0.04832 0.14308 0.64964 0.0
H177 H 0.06322 0.15317 0.69378 0.0
H178 H 0.22478 0.16966 0.60437 0.0
C179 C 0.14115 0.11042 0.61346 0.0
C180 C 0.61454 0.43958 0.94657 0.0
C181 C 0.63958 0.39522 0.93133 0.0
C182 C 0.61512 0.3742 0.89999 0.0
C183 C 0.5446 0.44284 0.89893 0.0
C184 C 0.56755 0.46281 0.92989 0.0
C185 C 0.53532 0.50971 0.9426 0.0
H186 H 0.33739 0.69388 0.91176 0.0
C187 C 0.49728 0.47688 0.88806 0.0
C188 C 0.49129 0.51613 0.91354 0.0
H189 H 0.43371 0.67329 0.00458 0.0
H190 H 0.47703 0.59619 0.97965 0.0
H191 H 0.44684 0.67551 0.86444 0.0
H192 H 0.28537 0.56248 0.89869 0.0
H193 H 0.29246 0.55014 0.85557 0.0
H194 H 0.27746 0.61627 0.87104 0.0
H195 H 0.36746 0.67201 0.84704 0.0
H196 H 0.4235 0.62923 0.83087 0.0
C197 C 0.58769 0.56067 0.94856 0.0
C198 C 0.49638 0.49166 0.97391 0.0
C199 C 0.40912 0.44964 0.77065 0.0
C200 C 0.37698 0.48232 0.75071 0.0
C201 C 0.35068 0.52614 0.76589 0.0
C202 C 0.36016 0.5393 0.79993 0.0
C203 C 0.39705 0.50882 0.81887 0.0
C204 C 0.42009 0.46439 0.80421 0.0
C205 C 0.46363 0.43996 0.82695 0.0
C206 C 0.463 0.4771 0.85775 0.0
C207 C 0.42337 0.51686 0.85305 0.0
C208 C 0.53168 0.44515 0.81089 0.0
C209 C 0.43173 0.38049 0.83335 0.0
C210 C 0.36669 0.6725 0.92719 0.0
C211 C 0.38193 0.69039 0.9603 0.0
C212 C 0.42186 0.66142 0.97885 0.0
C213 C 0.44687 0.6165 0.96445 0.0
C214 C 0.43168 0.59999 0.9312 0.0
C215 C 0.39112 0.62725 0.91345 0.0
C216 C 0.37795 0.60304 0.87885 0.0
C217 C 0.41677 0.55633 0.87881 0.0
C218 C 0.44937 0.5553 0.90922 0.0
C219 C 0.40474 0.64701 0.85381 0.0
C220 C 0.30449 0.58206 0.87552 0.0
H221 H 0.55135 0.37982 0.85997 0.0
H222 H 0.63103 0.45586 0.97101 0.0
H223 H 0.4496 0.50683 0.9742 0.0
H224 H 0.52418 0.50577 -0.00303 0.0
H225 H 0.4833 0.44633 0.97448 0.0
H226 H 0.61988 0.56669 0.92659 0.0
H227 H 0.61812 0.5558 0.97051 0.0
H228 H 0.56735 0.59888 0.95246 0.0
H229 H 0.4292 0.41519 0.75993 0.0
H230 H 0.32605 0.55229 0.75116 0.0
H231 H 0.34081 0.57418 0.80982 0.0
H232 H 0.54114 0.4814 0.79506 0.0
H233 H 0.53652 0.40841 0.79489 0.0
H234 H 0.57141 0.45205 0.82935 0.0
H235 H 0.37842 0.37769 0.83565 0.0
H236 H 0.44768 0.36547 0.85697 0.0
H237 H 0.44132 0.352 0.81257 0.0
H238 H 0.63388 0.34051 0.8875 0.0
C239 C 0.56757 0.39751 0.88385 0.0
C240 C 0.70229 0.73491 0.06553 0.0
C241 C 0.76009 0.76185 0.08053 0.0
C242 C 0.77652 0.74811 0.11265 0.0
C243 C 0.68211 0.67821 0.11359 0.0
C244 C 0.66423 0.69254 0.08241 0.0
C245 C 0.60259 0.65674 0.07028 0.0
H246 H 0.42061 0.4054 0.07732 0.0
C247 C 0.63808 0.62897 0.12304 0.0
C248 C 0.59225 0.61475 0.09736 0.0
H249 H 0.3798 0.5359 0.01673 0.0
H250 H 0.46829 0.59837 0.04384 0.0
H251 H 0.57839 0.43238 0.08473 0.0
H252 H 0.41431 0.47155 0.13755 0.0
H253 H 0.47521 0.48348 0.16799 0.0
H254 H 0.45253 0.41556 0.14937 0.0
H255 H 0.5218 0.3858 0.10751 0.0
H256 H 0.59193 0.42521 0.12756 0.0
C257 C 0.61403 0.6303 0.03584 0.0
C258 C 0.54819 0.69232 0.07002 0.0
C259 C 0.65616 0.5457 0.23532 0.0
C260 C 0.6259 0.49608 0.24803 0.0
C261 C 0.59284 0.45518 0.22635 0.0
C262 C 0.58486 0.46536 0.19282 0.0
C263 C 0.61019 0.51695 0.18102 0.0
C264 C 0.64854 0.5549 0.20148 0.0
C265 C 0.67652 0.60512 0.18315 0.0
C266 C 0.64034 0.59415 0.1501 0.0
C267 C 0.60147 0.54272 0.14935 0.0
C268 C 0.75034 0.60522 0.17931 0.0
C269 C 0.65934 0.65661 0.20194 0.0
C270 C 0.43179 0.44704 0.06916 0.0
C271 C 0.39674 0.46484 0.04324 0.0
C272 C 0.40837 0.52072 0.03565 0.0
C273 C 0.45952 0.55672 0.05126 0.0
C274 C 0.49679 0.53701 0.07577 0.0
C275 C 0.47969 0.48384 0.08559 0.0
C276 C 0.51333 0.47283 0.11681 0.0
C277 C 0.5566 0.52726 0.12312 0.0
C278 C 0.54919 0.56413 0.09824 0.0
C279 C 0.55334 0.42637 0.10901 0.0
C280 C 0.46162 0.45993 0.14439 0.0
H281 H 0.75253 0.69855 0.15378 0.0
H282 H 0.68849 0.74538 0.04096 0.0
H283 H 0.50025 0.6685 0.07495 0.0
H284 H 0.54658 0.7126 0.04595 0.0
H285 H 0.55554 0.72496 0.09011 0.0
H286 H 0.65524 0.6071 0.03696 0.0
H287 H 0.62524 0.662 0.01701 0.0
H288 H 0.57148 0.6016 0.02669 0.0
H289 H 0.6828 0.5772 0.25165 0.0
H290 H 0.5696 0.41664 0.23583 0.0
H291 H 0.55735 0.4334 0.17766 0.0
H292 H 0.76501 0.56585 0.18626 0.0
H293 H 0.7788 0.63795 0.19535 0.0
H294 H 0.76615 0.61054 0.15316 0.0
H295 H 0.60711 0.6506 0.20828 0.0
H296 H 0.66852 0.6935 0.18698 0.0
H297 H 0.68755 0.66525 0.22545 0.0
H298 H 0.82021 0.7691 0.12475 0.0
C299 C 0.73765 0.70685 0.12932 0.0
H300 H 0.1512 0.29672 0.00225 0.0
H301 H 0.29592 0.19088 -0.00814 0.0
H302 H 0.38114 0.26986 -0.00045 0.0
H303 H 0.41378 0.36634 0.01686 0.0
H304 H 0.26982 0.47163 0.03065 0.0
H305 H 0.18501 0.39583 0.01309 0.0
C306 C 0.20139 0.29097 0.00105 0.0
C307 C 0.21708 0.23773 -0.00307 0.0
C308 C 0.25022 0.33648 0.00625 0.0
C309 C 0.2824 0.23121 -0.00474 0.0
C310 C 0.33121 0.27637 -0.00026 0.0
C311 C 0.36385 0.37282 0.01546 0.0
C312 C 0.34771 0.42408 0.0255 0.0
C313 C 0.31556 0.32878 0.00643 0.0
C314 C 0.28327 0.43249 0.02305 0.0
C315 C 0.23483 0.38902 0.01334 0.0
H316 H 0.33346 0.91839 0.02265 0.0
H317 H 0.16109 0.88006 0.96182 0.0
H318 H 0.18976 0.79067 0.94673 0.0
H319 H 0.26643 0.72537 0.94832 0.0
H320 H 0.4441 0.76866 0.00455 0.0
H321 H 0.40979 0.85376 0.0242 0.0
C322 C 0.30213 0.89114 0.00579 0.0
C323 C 0.24534 0.90705 -0.00684 0.0
C324 C 0.31975 0.84027 -0.00356 0.0
C325 C 0.20493 0.86956 0.97215 0.0
C326 C 0.22149 0.81828 0.96332 0.0
C327 C 0.29818 0.75351 0.9646 0.0
C328 C 0.35826 0.74027 0.97458 0.0
C329 C 0.27931 0.80358 0.97489 0.0
C330 C 0.39735 0.7769 -0.00337 0.0
C331 C 0.37805 0.82606 0.00766 0.0
H332 H 0.99994 0.91989 0.02763 0.0
H333 H 0.86165 0.03205 0.03014 0.0
H334 H 0.77639 0.95843 0.04541 0.0
H335 H 0.74223 0.86309 0.06208 0.0
H336 H 0.88152 0.75242 0.06156 0.0
H337 H 0.96465 0.82388 0.04106 0.0
C338 C 0.95109 0.9282 0.03129 0.0
C339 C 0.93759 0.98166 0.02798 0.0
C340 C 0.90217 0.88569 0.04036 0.0
C341 C 0.87376 0.99145 0.0327 0.0
C342 C 0.82477 0.9493 0.04142 0.0
C343 C 0.79048 0.85458 0.05675 0.0
C344 C 0.80591 0.80273 0.06304 0.0
C345 C 0.83853 0.8964 0.0458 0.0
C346 C 0.86875 0.79213 0.05667 0.0
C347 C 0.9163 0.83302 0.04515 0.0
H348 H 0.88759 0.33835 0.00163 0.0
H349 H 0.80085 0.17405 0.97124 0.0
H350 H 0.71016 0.20964 0.94617 0.0
H351 H 0.6551 0.28775 0.93389 0.0
H352 H 0.74433 0.45164 0.96441 0.0
H353 H 0.83354 0.41548 -0.01039 0.0
C354 C 0.84853 0.31008 -0.01004 0.0
C355 C 0.85076 0.25351 -0.01139 0.0
C356 C 0.79672 0.33074 0.97593 0.0
C357 C 0.80049 0.21777 0.97246 0.0
C358 C 0.7485 0.2381 0.95832 0.0
C359 C 0.69427 0.31558 0.94587 0.0
C360 C 0.69275 0.37236 0.94736 0.0
C361 C 0.74609 0.29456 0.95997 0.0
C362 C 0.74355 0.40773 0.96338 0.0
C363 C 0.79494 0.38715 0.97756 0.0
H364 H 0.68955 0.58668 0.50174 0.0
H365 H 0.52127 0.65537 0.53288 0.0
H366 H 0.58941 0.74172 0.54919 0.0
H367 H 0.69735 0.79734 0.55605 0.0
H368 H 0.86506 0.73066 0.52235 0.0
H369 H 0.79687 0.64428 0.50543 0.0
C370 C 0.66782 0.62062 0.51201 0.0
C371 C 0.60042 0.61437 0.51627 0.0
C372 C 0.70725 0.67061 0.52089 0.0
C373 C 0.57298 0.65899 0.52929 0.0
C374 C 0.61193 0.70841 0.53872 0.0
C375 C 0.71878 0.76385 0.54493 0.0
C376 C 0.78608 0.77019 0.54057 0.0
C377 C 0.67916 0.71459 0.53486 0.0
C378 C 0.8133 0.72679 0.52578 0.0
C379 C 0.77437 0.67735 0.51625 0.0
H380 H 0.63414 0.26833 0.45779 0.0
H381 H 0.75138 0.30844 0.54628 0.0
H382 H 0.80246 0.22795 0.53597 0.0
H383 H 0.82167 0.15071 0.49913 0.0
H384 H 0.70354 0.1089 0.4113 0.0
H385 H 0.64416 0.18435 0.42458 0.0
C386 C 0.67004 0.25917 0.47516 0.0
C387 C 0.68962 0.29571 0.50236 0.0
C388 C 0.69925 0.21214 0.46926 0.0
C389 C 0.73643 0.28252 0.52451 0.0
C390 C 0.76549 0.23597 0.51883 0.0
C391 C 0.78166 0.15702 0.48343 0.0
C392 C 0.76738 0.12429 0.45417 0.0
C393 C 0.74836 0.20112 0.4909 0.0
C394 C 0.71588 0.13374 0.43386 0.0
C395 C 0.68208 0.17707 0.44135 0.0
H396 H 0.43404 0.28046 0.51168 0.0
H397 H 0.28695 0.35855 0.46708 0.0
H398 H 0.20473 0.28118 0.48037 0.0
H399 H 0.17237 0.19871 0.51272 0.0
H400 H 0.31841 0.12528 0.56129 0.0
H401 H 0.40324 0.19256 0.5381 0.0
C402 C 0.38429 0.27992 0.50407 0.0
C403 C 0.36666 0.3255 0.48868 0.0
C404 C 0.33683 0.23617 0.51288 0.0
C405 C 0.30182 0.32418 0.47916 0.0
C406 C 0.25465 0.28001 0.48688 0.0
C407 C 0.22293 0.19664 0.51726 0.0
C408 C 0.23952 0.15725 0.53845 0.0
C409 C 0.27119 0.23684 0.50491 0.0
C410 C 0.30492 0.15525 0.54484 0.0
C411 C 0.35327 0.1939 0.53178 0.0
H412 H 0.19065 0.60116 0.45883 0.0
H413 H 0.37873 0.69072 0.48473 0.0
H414 H 0.3419 0.77668 0.47241 0.0
H415 H 0.25641 0.8263 0.45466 0.0
H416 H 0.06969 0.73649 0.42576 0.0
H417 H 0.10504 0.65104 0.44035 0.0
C418 C 0.22345 0.63952 0.46196 0.0
C419 C 0.28746 0.63941 0.47265 0.0
C420 C 0.20193 0.68883 0.45474 0.0
C421 C 0.32959 0.68948 0.47612 0.0
C422 C 0.30836 0.73871 0.46933 0.0
C423 C 0.22344 0.78809 0.45111 0.0
C424 C 0.16039 0.78822 0.43885 0.0
C425 C 0.2447 0.73884 0.45855 0.0
C426 C 0.11813 0.73811 0.43549 0.0
C427 C 0.13856 0.68901 0.44351 0.0
H428 H 0.15246 0.05857 0.11217 0.0
H429 H 0.07824 0.21139 0.1095 0.0
H430 H 0.09132 0.22424 0.16979 0.0
H431 H 0.11268 0.18724 0.22333 0.0
H432 H 0.17109 0.02753 0.2259 0.0
H433 H 0.17937 0.02396 0.1657 0.0
C434 C 0.13989 0.09499 0.12478 0.0
C435 C 0.11368 0.13363 0.10663 0.0
C436 C 0.14547 0.10118 0.15945 0.0
C437 C 0.09759 0.18067 0.12313 0.0
C438 C 0.10532 0.18815 0.15753 0.0
C439 C 0.12725 0.15157 0.21081 0.0
C440 C 0.13989 0.10735 0.22935 0.0
C441 C 0.12738 0.14784 0.176 0.0
C442 C 0.16136 0.06254 0.21261 0.0
C443 C 0.16513 0.05995 0.17799 0.0
H444 H 0.94809 0.09562 0.9119 0.0
H445 H 0.14239 0.05965 0.90249 0.0
H446 H 0.1248 0.03769 0.84329 0.0
H447 H 0.05475 0.02832 0.79437 0.0
H448 H 0.85895 0.0599 0.80285 0.0
H449 H 0.876 0.08322 0.86248 0.0
C450 C 0.98655 0.08329 0.89676 0.0
C451 C 0.04656 0.07957 0.9114 0.0
C452 C 0.97565 0.06954 0.86277 0.0
C453 C 0.09578 0.06276 0.89173 0.0
C454 C 0.0858 0.05018 0.85792 0.0
C455 C 1.0159 0.04048 0.80932 0.0
C456 C 0.95598 0.04301 0.79444 0.0
C457 C 0.02601 0.05333 0.84325 0.0
C458 C 0.90547 0.0577 0.81398 0.0
C459 C 0.91536 0.07125 0.84792 0.0
H460 H 0.35842 0.47924 0.59386 0.0
H461 H 0.55105 0.4405 0.60478 0.0
H462 H 0.53902 0.44117 0.66492 0.0
H463 H 0.47733 0.45802 0.71405 0.0
H464 H 0.28295 0.49317 0.70467 0.0
H465 H 0.29272 0.48958 0.64398 0.0
C466 C 0.39758 0.47073 0.60944 0.0
C467 C 0.45567 0.46022 0.59493 0.0
C468 C 0.3903 0.4709 0.64412 0.0
C469 C 0.50584 0.44876 0.61533 0.0
C470 C 0.49912 0.44923 0.64973 0.0
C471 C 0.43619 0.46341 0.6989 0.0
C472 C 0.37927 0.47542 0.71396 0.0
C473 C 0.44189 0.46075 0.66433 0.0
C474 C 0.3275 0.48421 0.69372 0.0
C475 C 0.33298 0.48199 0.65906 0.0
H476 H 0.58919 0.42557 0.39621 0.0
H477 H 0.46806 0.55152 0.39635 0.0
H478 H 0.49933 0.57203 0.33934 0.0
H479 H 0.55871 0.5529 0.28893 0.0
H480 H 0.67334 0.42299 0.28656 0.0
H481 H 0.64812 0.40574 0.34523 0.0
C482 C 0.56961 0.45743 0.38373 0.0
C483 C 0.52624 0.48685 0.40048 0.0
C484 C 0.58728 0.4687 0.35075 0.0
C485 C 0.5011 0.52793 0.38395 0.0
C486 C 0.51924 0.53996 0.35141 0.0
C487 C 0.57903 0.52156 0.3016 0.0
C488 C 0.61875 0.48993 0.2841 0.0
C489 C 0.5622 0.51064 0.33461 0.0
C490 C 0.6435 0.44826 0.30006 0.0
C491 C 0.62866 0.43823 0.33337 0.0
loop_
_geom_bond_atom_site_label_1
_geom_bond_atom_site_label_2
_geom_bond_distance
_geom_bond_site_symmetry_2
_ccdc_geom_bond_type
Co0 N5 2.057 . S
Co0 O17 2.021 . S
Co0 O20 2.062 1_455 S
Co0 O24 2.117 1_554 S
Co0 O25 2.020 1_565 S
C1 O21 1.259 1_455 S
C1 O24 1.258 1_545 S
Co2 N11 2.057 . S
Co2 O18 2.117 . S
Co2 O19 2.020 1_545 S
Co2 O21 2.021 1_554 S
Co2 O26 2.062 1_655 S
C3 N5 1.316 . S
C3 N6 1.347 . S
C3 H8 0.931 . S
C4 N5 1.375 1_556 S
C4 C7 1.350 . S
C4 H9 0.930 . S
N5 Co0 2.057 . S
N5 C3 1.316 . S
N5 C4 1.375 1_554 S
N6 C3 1.347 . S
N6 C7 1.373 1_554 S
C7 C4 1.350 . S
C7 N6 1.373 1_556 S
C7 H28 0.931 . S
H8 C3 0.931 . S
H9 C4 0.930 . S
C10 O17 1.259 1_545 S
C10 O18 1.258 1_455 S
N11 Co2 2.057 . S
N11 C12 1.316 . S
N11 C13 1.375 . S
C12 N11 1.316 . S
C12 N14 1.347 . S
C12 H23 0.931 1_554 S
C13 N11 1.375 . S
C13 C15 1.350 . S
C13 H22 0.930 . S
N14 C12 1.347 . S
N14 C15 1.373 . S
C15 C13 1.350 . S
C15 N14 1.373 . S
C15 H29 0.931 . S
C16 O19 1.256 . S
C16 O20 1.255 . S
O17 Co0 2.021 . S
O17 C10 1.259 1_565 S
O18 Co2 2.117 . S
O18 C10 1.258 1_655 S
O19 Co2 2.020 1_565 S
O19 C16 1.256 . S
O20 Co0 2.062 1_655 S
O20 C16 1.255 . S
O21 C1 1.259 1_655 S
O21 Co2 2.021 1_556 S
H22 C13 0.930 . S
H23 C12 0.931 1_556 S
O24 Co0 2.117 1_556 S
O24 C1 1.258 1_565 S
O25 Co0 2.020 1_545 S
O25 C27 1.256 . S
O26 Co2 2.062 1_455 S
O26 C27 1.255 . S
C27 O25 1.256 . S
C27 O26 1.255 . S
H28 C7 0.931 . S
H29 C15 0.931 . S
Co30 N35 2.057 . S
Co30 O47 2.021 . S
Co30 O50 2.062 . S
Co30 O54 2.117 . S
Co30 O55 2.020 . S
C31 O51 1.259 . S
C31 O54 1.258 . S
Co32 N41 2.057 . S
Co32 O48 2.117 . S
Co32 O49 2.020 . S
Co32 O51 2.021 . S
Co32 O56 2.062 . S
C33 N35 1.316 . S
C33 N36 1.347 . S
C33 H38 0.931 . S
C34 N35 1.375 . S
C34 C37 1.350 . S
C34 H39 0.930 . S
N35 Co30 2.057 . S
N35 C33 1.316 . S
N35 C34 1.375 . S
N36 C33 1.347 . S
N36 C37 1.373 . S
C37 C34 1.350 . S
C37 N36 1.373 . S
C37 H58 0.931 . S
H38 C33 0.931 . S
H39 C34 0.930 . S
C40 O47 1.259 . S
C40 O48 1.258 . S
N41 Co32 2.057 . S
N41 C42 1.316 . S
N41 C43 1.375 . S
C42 N41 1.316 . S
C42 N44 1.347 . S
C42 H53 0.931 . S
C43 N41 1.375 . S
C43 C45 1.350 . S
C43 H52 0.930 . S
N44 C42 1.347 . S
N44 C45 1.373 . S
C45 C43 1.350 . S
C45 N44 1.373 . S
C45 H59 0.931 . S
C46 O49 1.256 . S
C46 O50 1.255 . S
O47 Co30 2.021 . S
O47 C40 1.259 . S
O48 Co32 2.117 . S
O48 C40 1.258 . S
O49 Co32 2.020 . S
O49 C46 1.256 . S
O50 Co30 2.062 . S
O50 C46 1.255 . S
O51 C31 1.259 . S
O51 Co32 2.021 . S
H52 C43 0.930 . S
H53 C42 0.931 . S
O54 Co30 2.117 . S
O54 C31 1.258 . S
O55 Co30 2.020 . S
O55 C57 1.256 . S
O56 Co32 2.062 . S
O56 C57 1.255 . S
C57 O55 1.256 . S
C57 O56 1.255 . S
H58 C37 0.931 . S
H59 C45 0.931 . S
C60 C61 1.391 . S
C60 C64 1.391 . S
C60 H102 0.948 . S
C61 C60 1.391 . S
C61 C62 1.391 . S
C62 C61 1.391 . S
C62 H118 0.947 . S
C62 C119 1.392 . S
C63 C64 1.391 . S
C63 C67 1.397 . S
C63 C119 1.419 . S
C64 C60 1.391 . S
C64 C63 1.391 . S
C64 C65 1.399 . S
C65 C64 1.399 . S
C65 C68 1.396 . S
C65 C77 1.453 1_565 S
C65 C78 1.684 1_455 S
H66 C90 0.948 . S
C67 C63 1.397 . S
C67 C68 1.394 . S
C67 C86 1.723 . S
C68 C65 1.396 . S
C68 C67 1.394 . S
C68 C98 1.723 1_465 S
H69 C92 0.947 . S
H70 C93 0.948 . S
H71 C99 0.982 . S
H72 C100 0.979 . S
H73 C100 0.980 . S
H74 C100 0.983 . S
H75 C99 0.979 . S
H76 C99 0.977 . S
C77 C65 1.453 1_545 S
C77 H106 0.982 . S
C77 H107 0.979 1_545 S
C77 H108 0.977 . S
C78 C65 1.684 1_655 S
C78 H103 0.979 . S
C78 H104 0.980 . S
C78 H105 0.983 . S
C79 C80 1.391 1_465 S
C79 C84 1.391 . S
C79 H109 0.948 . S
C80 C79 1.391 1_645 S
C80 C81 1.391 . S
C81 C80 1.391 . S
C81 C82 1.392 . S
C81 H110 0.947 . S
C82 C81 1.392 . S
C82 C83 1.419 . S
C82 H111 0.948 . S
C83 C82 1.419 . S
C83 C84 1.391 1_645 S
C83 C87 1.397 . S
C84 C79 1.391 . S
C84 C83 1.391 1_465 S
C84 C85 1.399 . S
C85 C84 1.399 . S
C85 C86 1.396 . S
C85 C88 1.453 . S
C85 C89 1.684 . S
C86 C67 1.723 . S
C86 C85 1.396 . S
C86 C87 1.394 1_465 S
C87 C83 1.397 . S
C87 C86 1.394 1_645 S
C87 C97 1.723 . S
C88 C85 1.453 . S
C88 H112 0.982 . S
C88 H113 0.979 . S
C88 H114 0.977 . S
C89 C85 1.684 . S
C89 H115 0.979 1_455 S
C89 H116 0.980 . S
C89 H117 0.983 . S
C90 H66 0.948 . S
C90 C91 1.391 . S
C90 C95 1.391 . S
C91 C90 1.391 . S
C91 C92 1.391 . S
C92 H69 0.947 . S
C92 C91 1.391 . S
C92 C93 1.392 . S
C93 H70 0.948 . S
C93 C92 1.392 . S
C93 C94 1.419 . S
C94 C93 1.419 . S
C94 C95 1.391 . S
C94 C98 1.397 . S
C95 C90 1.391 . S
C95 C94 1.391 . S
C95 C96 1.399 . S
C96 C95 1.399 . S
C96 C97 1.396 . S
C96 C99 1.453 . S
C96 C100 1.684 . S
C97 C87 1.723 . S
C97 C96 1.396 . S
C97 C98 1.394 . S
C98 C68 1.723 1_645 S
C98 C94 1.397 . S
C98 C97 1.394 . S
C99 H71 0.982 . S
C99 H75 0.979 . S
C99 H76 0.977 . S
C99 C96 1.453 . S
C100 H72 0.979 . S
C100 H73 0.980 . S
C100 H74 0.983 . S
C100 C96 1.684 . S
H101 C119 0.948 . S
H102 C60 0.948 . S
H103 C78 0.979 . S
H104 C78 0.980 . S
H105 C78 0.983 . S
H106 C77 0.982 . S
H107 C77 0.979 1_565 S
H108 C77 0.977 . S
H109 C79 0.948 . S
H110 C81 0.947 . S
H111 C82 0.948 . S
H112 C88 0.982 . S
H113 C88 0.979 . S
H114 C88 0.977 . S
H115 C89 0.979 1_655 S
H116 C89 0.980 . S
H117 C89 0.983 . S
H118 C62 0.947 . S
C119 C62 1.392 . S
C119 C63 1.419 . S
C119 H101 0.948 . S
C120 C121 1.391 . S
C120 C124 1.391 . S
C120 H162 0.948 . S
C121 C120 1.391 . S
C121 C122 1.391 . S
C122 C121 1.391 . S
C122 H178 0.947 . S
C122 C179 1.392 . S
C123 C124 1.391 . S
C123 C127 1.397 . S
C123 C179 1.419 . S
C124 C120 1.391 . S
C124 C123 1.391 . S
C124 C125 1.399 . S
C125 C124 1.399 . S
C125 C128 1.396 . S
C125 C137 1.453 . S
C125 C138 1.684 1_455 S
H126 C150 0.948 . S
C127 C123 1.397 . S
C127 C128 1.394 . S
C127 C146 1.723 . S
C128 C125 1.396 . S
C128 C127 1.394 . S
C128 C158 1.723 1_445 S
H129 C152 0.947 . S
H130 C153 0.948 . S
H131 C159 0.982 . S
H132 C160 0.979 . S
H133 C160 0.980 . S
H134 C160 0.983 . S
H135 C159 0.979 . S
H136 C159 0.977 . S
C137 C125 1.453 . S
C137 H166 0.982 . S
C137 H167 0.979 . S
C137 H168 0.977 1_545 S
C138 C125 1.684 1_655 S
C138 H163 0.979 . S
C138 H164 0.980 . S
C138 H165 0.983 1_655 S
C139 C140 1.391 1_455 S
C139 C144 1.391 . S
C139 H169 0.948 . S
C140 C139 1.391 1_655 S
C140 C141 1.391 1_545 S
C141 C140 1.391 1_565 S
C141 C142 1.392 . S
C141 H170 0.947 . S
C142 C141 1.392 . S
C142 C143 1.419 1_565 S
C142 H171 0.948 . S
C143 C142 1.419 1_545 S
C143 C144 1.391 1_655 S
C143 C147 1.397 . S
C144 C139 1.391 . S
C144 C143 1.391 1_455 S
C144 C145 1.399 . S
C145 C144 1.399 . S
C145 C146 1.396 . S
C145 C148 1.453 . S
C145 C149 1.684 . S
C146 C127 1.723 . S
C146 C145 1.396 . S
C146 C147 1.394 1_455 S
C147 C143 1.397 . S
C147 C146 1.394 1_655 S
C147 C157 1.723 1_545 S
C148 C145 1.453 . S
C148 H172 0.982 . S
C148 H173 0.979 . S
C148 H174 0.977 . S
C149 C145 1.684 . S
C149 H175 0.979 . S
C149 H176 0.980 . S
C149 H177 0.983 . S
C150 H126 0.948 . S
C150 C151 1.391 . S
C150 C155 1.391 . S
C151 C150 1.391 . S
C151 C152 1.391 . S
C152 H129 0.947 . S
C152 C151 1.391 . S
C152 C153 1.392 . S
C153 H130 0.948 . S
C153 C152 1.392 . S
C153 C154 1.419 . S
C154 C153 1.419 . S
C154 C155 1.391 . S
C154 C158 1.397 . S
C155 C150 1.391 . S
C155 C154 1.391 . S
C155 C156 1.399 . S
C156 C155 1.399 . S
C156 C157 1.396 . S
C156 C159 1.453 . S
C156 C160 1.684 . S
C157 C147 1.723 1_565 S
C157 C156 1.396 . S
C157 C158 1.394 . S
C158 C128 1.723 1_665 S
C158 C154 1.397 . S
C158 C157 1.394 . S
C159 H131 0.982 . S
C159 H135 0.979 . S
C159 H136 0.977 . S
C159 C156 1.453 . S
C160 H132 0.979 . S
C160 H133 0.980 . S
C160 H134 0.983 . S
C160 C156 1.684 . S
H161 C179 0.948 . S
H162 C120 0.948 . S
H163 C138 0.979 . S
H164 C138 0.980 . S
H165 C138 0.983 1_455 S
H166 C137 0.982 . S
H167 C137 0.979 . S
H168 C137 0.977 1_565 S
H169 C139 0.948 . S
H170 C141 0.947 . S
H171 C142 0.948 . S
H172 C148 0.982 . S
H173 C148 0.979 . S
H174 C148 0.977 . S
H175 C149 0.979 . S
H176 C149 0.980 . S
H177 C149 0.983 . S
H178 C122 0.947 . S
C179 C122 1.392 . S
C179 C123 1.419 . S
C179 H161 0.948 . S
C180 C181 1.391 1_554 S
C180 C184 1.391 1_554 S
C180 H222 0.948 . S
C181 C180 1.391 1_556 S
C181 C182 1.391 . S
C182 C181 1.391 . S
C182 H238 0.947 . S
C182 C239 1.392 . S
C183 C184 1.391 . S
C183 C187 1.397 . S
C183 C239 1.419 . S
C184 C180 1.391 1_556 S
C184 C183 1.391 . S
C184 C185 1.399 . S
C185 C184 1.399 . S
C185 C188 1.396 . S
C185 C197 1.453 1_556 S
C185 C198 1.684 1_556 S
H186 C210 0.948 . S
C187 C183 1.397 . S
C187 C188 1.394 . S
C187 C206 1.723 . S
C188 C185 1.396 . S
C188 C187 1.394 . S
C188 C218 1.723 . S
H189 C212 0.947 . S
H190 C213 0.948 . S
H191 C219 0.982 . S
H192 C220 0.979 . S
H193 C220 0.980 . S
H194 C220 0.983 . S
H195 C219 0.979 . S
H196 C219 0.977 . S
C197 C185 1.453 1_554 S
C197 H226 0.982 . S
C197 H227 0.979 . S
C197 H228 0.977 . S
C198 C185 1.684 1_554 S
C198 H223 0.979 . S
C198 H224 0.980 . S
C198 H225 0.983 . S
C199 C200 1.391 . S
C199 C204 1.391 . S
C199 H229 0.948 . S
C200 C199 1.391 . S
C200 C201 1.391 . S
C201 C200 1.391 . S
C201 C202 1.392 . S
C201 H230 0.947 . S
C202 C201 1.392 . S
C202 C203 1.419 . S
C202 H231 0.948 . S
C203 C202 1.419 . S
C203 C204 1.391 . S
C203 C207 1.397 . S
C204 C199 1.391 . S
C204 C203 1.391 . S
C204 C205 1.399 . S
C205 C204 1.399 . S
C205 C206 1.396 . S
C205 C208 1.453 . S
C205 C209 1.684 . S
C206 C187 1.723 . S
C206 C205 1.396 . S
C206 C207 1.394 . S
C207 C203 1.397 . S
C207 C206 1.394 . S
C207 C217 1.723 . S
C208 C205 1.453 . S
C208 H232 0.982 . S
C208 H233 0.979 . S
C208 H234 0.977 . S
C209 C205 1.684 . S
C209 H235 0.979 . S
C209 H236 0.980 . S
C209 H237 0.983 . S
C210 H186 0.948 . S
C210 C211 1.391 1_556 S
C210 C215 1.391 . S
C211 C210 1.391 1_554 S
C211 C212 1.391 . S
C212 H189 0.947 . S
C212 C211 1.391 . S
C212 C213 1.392 . S
C213 H190 0.948 . S
C213 C212 1.392 . S
C213 C214 1.419 1_554 S
C214 C213 1.419 1_556 S
C214 C215 1.391 . S
C214 C218 1.397 . S
C215 C210 1.391 . S
C215 C214 1.391 . S
C215 C216 1.399 . S
C216 C215 1.399 . S
C216 C217 1.396 . S
C216 C219 1.453 . S
C216 C220 1.684 . S
C217 C207 1.723 . S
C217 C216 1.396 . S
C217 C218 1.394 . S
C218 C188 1.723 . S
C218 C214 1.397 . S
C218 C217 1.394 . S
C219 H191 0.982 . S
C219 H195 0.979 . S
C219 H196 0.977 . S
C219 C216 1.453 . S
C220 H192 0.979 . S
C220 H193 0.980 . S
C220 H194 0.983 . S
C220 C216 1.684 . S
H221 C239 0.948 . S
H222 C180 0.948 . S
H223 C198 0.979 . S
H224 C198 0.980 . S
H225 C198 0.983 . S
H226 C197 0.982 . S
H227 C197 0.979 . S
H228 C197 0.977 . S
H229 C199 0.948 . S
H230 C201 0.947 . S
H231 C202 0.948 . S
H232 C208 0.982 . S
H233 C208 0.979 . S
H234 C208 0.977 . S
H235 C209 0.979 . S
H236 C209 0.980 . S
H237 C209 0.983 . S
H238 C182 0.947 . S
C239 C182 1.392 . S
C239 C183 1.419 . S
C239 H221 0.948 . S
C240 C241 1.391 . S
C240 C244 1.391 . S
C240 H282 0.948 1_554 S
C241 C240 1.391 . S
C241 C242 1.391 . S
C242 C241 1.391 . S
C242 H298 0.947 . S
C242 C299 1.392 . S
C243 C244 1.391 . S
C243 C247 1.397 . S
C243 C299 1.419 . S
C244 C240 1.391 . S
C244 C243 1.391 . S
C244 C245 1.399 . S
C245 C244 1.399 . S
C245 C248 1.396 . S
C245 C257 1.453 . S
C245 C258 1.684 . S
H246 C270 0.948 . S
C247 C243 1.397 . S
C247 C248 1.394 . S
C247 C266 1.723 . S
C248 C245 1.396 . S
C248 C247 1.394 . S
C248 C278 1.723 . S
H249 C272 0.947 1_556 S
H250 C273 0.948 . S
H251 C279 0.982 . S
H252 C280 0.979 . S
H253 C280 0.980 . S
H254 C280 0.983 . S
H255 C279 0.979 . S
H256 C279 0.977 . S
C257 C245 1.453 . S
C257 H286 0.982 . S
C257 H287 0.979 1_554 S
C257 H288 0.977 . S
C258 C245 1.684 . S
C258 H283 0.979 . S
C258 H284 0.980 1_554 S
C258 H285 0.983 1_554 S
C259 C260 1.391 . S
C259 C264 1.391 . S
C259 H289 0.948 . S
C260 C259 1.391 . S
C260 C261 1.391 . S
C261 C260 1.391 . S
C261 C262 1.392 . S
C261 H290 0.947 . S
C262 C261 1.392 . S
C262 C263 1.419 . S
C262 H291 0.948 . S
C263 C262 1.419 . S
C263 C264 1.391 . S
C263 C267 1.397 . S
C264 C259 1.391 . S
C264 C263 1.391 . S
C264 C265 1.399 . S
C265 C264 1.399 . S
C265 C266 1.396 . S
C265 C268 1.453 . S
C265 C269 1.684 . S
C266 C247 1.723 . S
C266 C265 1.396 . S
C266 C267 1.394 . S
C267 C263 1.397 . S
C267 C266 1.394 . S
C267 C277 1.723 . S
C268 C265 1.453 . S
C268 H292 0.982 . S
C268 H293 0.979 . S
C268 H294 0.977 . S
C269 C265 1.684 . S
C269 H295 0.979 . S
C269 H296 0.980 . S
C269 H297 0.983 . S
C270 H246 0.948 . S
C270 C271 1.391 . S
C270 C275 1.391 . S
C271 C270 1.391 . S
C271 C272 1.391 . S
C272 H249 0.947 1_554 S
C272 C271 1.391 . S
C272 C273 1.392 . S
C273 H250 0.948 . S
C273 C272 1.392 . S
C273 C274 1.419 . S
C274 C273 1.419 . S
C274 C275 1.391 . S
C274 C278 1.397 . S
C275 C270 1.391 . S
C275 C274 1.391 . S
C275 C276 1.399 . S
C276 C275 1.399 . S
C276 C277 1.396 . S
C276 C279 1.453 . S
C276 C280 1.684 . S
C277 C267 1.723 . S
C277 C276 1.396 . S
C277 C278 1.394 . S
C278 C248 1.723 . S
C278 C274 1.397 . S
C278 C277 1.394 . S
C279 H251 0.982 . S
C279 H255 0.979 . S
C279 H256 0.977 . S
C279 C276 1.453 . S
C280 H252 0.979 . S
C280 H253 0.980 . S
C280 H254 0.983 . S
C280 C276 1.684 . S
H281 C299 0.948 . S
H282 C240 0.948 1_556 S
H283 C258 0.979 . S
H284 C258 0.980 1_556 S
H285 C258 0.983 1_556 S
H286 C257 0.982 . S
H287 C257 0.979 1_556 S
H288 C257 0.977 . S
H289 C259 0.948 . S
H290 C261 0.947 . S
H291 C262 0.948 . S
H292 C268 0.982 . S
H293 C268 0.979 . S
H294 C268 0.977 . S
H295 C269 0.979 . S
H296 C269 0.980 . S
H297 C269 0.983 . S
H298 C242 0.947 . S
C299 C242 1.392 . S
C299 C243 1.419 . S
C299 H281 0.948 . S
H300 C306 0.930 . S
H301 C309 0.930 . S
H302 C310 0.930 . S
H303 C311 0.930 . S
H304 C314 0.930 . S
H305 C315 0.930 . S
C306 H300 0.930 . S
C306 C307 1.355 . S
C306 C308 1.415 . S
C307 C306 1.355 . S
C307 C309 1.419 . S
C308 C306 1.415 . S
C308 C313 1.425 . S
C308 C315 1.409 . S
C309 H301 0.930 . S
C309 C307 1.419 . S
C309 C310 1.362 . S
C310 H302 0.930 . S
C310 C309 1.362 . S
C310 C313 1.409 . S
C311 H303 0.930 . S
C311 C312 1.355 . S
C311 C313 1.415 . S
C312 C311 1.355 . S
C312 C314 1.419 . S
C313 C308 1.425 . S
C313 C310 1.409 . S
C313 C311 1.415 . S
C314 H304 0.930 . S
C314 C312 1.419 . S
C314 C315 1.362 . S
C315 H305 0.930 . S
C315 C308 1.409 . S
C315 C314 1.362 . S
H316 C322 0.928 1_556 S
H317 C325 0.930 . S
H318 C326 0.930 . S
H319 C327 0.930 . S
H320 C330 0.930 . S
H321 C331 0.930 . S
C322 H316 0.928 1_554 S
C322 C323 1.356 . S
C322 C324 1.415 . S
C323 C322 1.356 . S
C323 C325 1.419 . S
C324 C322 1.415 . S
C324 C329 1.425 . S
C324 C331 1.409 1_554 S
C325 H317 0.930 . S
C325 C323 1.419 . S
C325 C326 1.362 . S
C326 H318 0.930 . S
C326 C325 1.362 . S
C326 C329 1.409 . S
C327 H319 0.930 . S
C327 C328 1.355 . S
C327 C329 1.415 . S
C328 C327 1.355 . S
C328 C330 1.419 1_554 S
C329 C324 1.425 . S
C329 C326 1.409 . S
C329 C327 1.415 . S
C330 H320 0.930 . S
C330 C328 1.419 1_556 S
C330 C331 1.362 . S
C331 H321 0.930 . S
C331 C324 1.409 1_556 S
C331 C330 1.362 . S
H332 C338 0.930 . S
H333 C341 0.930 . S
H334 C342 0.930 . S
H335 C343 0.935 . S
H336 C346 0.930 . S
H337 C347 0.930 . S
C338 H332 0.930 . S
C338 C339 1.355 . S
C338 C340 1.415 . S
C339 C338 1.355 . S
C339 C341 1.419 1_554 S
C340 C338 1.415 . S
C340 C345 1.425 . S
C340 C347 1.409 . S
C341 H333 0.930 . S
C341 C339 1.419 1_556 S
C341 C342 1.362 . S
C342 H334 0.930 . S
C342 C341 1.362 . S
C342 C345 1.409 1_556 S
C343 H335 0.935 . S
C343 C344 1.350 1_556 S
C343 C345 1.414 1_556 S
C344 C343 1.350 1_554 S
C344 C346 1.419 . S
C345 C340 1.425 . S
C345 C342 1.409 1_554 S
C345 C343 1.414 1_554 S
C346 H336 0.930 . S
C346 C344 1.419 . S
C346 C347 1.362 . S
C347 H337 0.930 . S
C347 C340 1.409 . S
C347 C346 1.362 . S
H348 C354 0.930 . S
H349 C357 0.930 . S
H350 C358 0.930 . S
H351 C359 0.930 . S
H352 C362 0.930 . S
H353 C363 0.930 . S
C354 H348 0.930 . S
C354 C355 1.355 . S
C354 C356 1.415 . S
C355 C354 1.355 . S
C355 C357 1.419 . S
C356 C354 1.415 . S
C356 C361 1.425 . S
C356 C363 1.409 . S
C357 H349 0.930 . S
C357 C355 1.419 . S
C357 C358 1.362 . S
C358 H350 0.930 . S
C358 C357 1.362 . S
C358 C361 1.409 . S
C359 H351 0.930 . S
C359 C360 1.355 . S
C359 C361 1.415 . S
C360 C359 1.355 . S
C360 C362 1.419 . S
C361 C356 1.425 . S
C361 C358 1.409 . S
C361 C359 1.415 . S
C362 H352 0.930 . S
C362 C360 1.419 . S
C362 C363 1.362 . S
C363 H353 0.930 . S
C363 C356 1.409 . S
C363 C362 1.362 . S
H364 C370 0.930 . S
H365 C373 0.930 . S
H366 C374 0.930 . S
H367 C375 0.930 . S
H368 C378 0.930 . S
H369 C379 0.930 . S
C370 H364 0.930 . S
C370 C371 1.355 . S
C370 C372 1.415 . S
C371 C370 1.355 . S
C371 C373 1.419 . S
C372 C370 1.415 . S
C372 C377 1.425 . S
C372 C379 1.409 . S
C373 H365 0.930 . S
C373 C371 1.419 . S
C373 C374 1.362 . S
C374 H366 0.930 . S
C374 C373 1.362 . S
C374 C377 1.409 . S
C375 H367 0.930 . S
C375 C376 1.355 . S
C375 C377 1.415 . S
C376 C375 1.355 . S
C376 C378 1.419 . S
C377 C372 1.425 . S
C377 C374 1.409 . S
C377 C375 1.415 . S
C378 H368 0.930 . S
C378 C376 1.419 . S
C378 C379 1.362 . S
C379 H369 0.930 . S
C379 C372 1.409 . S
C379 C378 1.362 . S
H380 C386 0.930 . S
H381 C389 0.930 . S
H382 C390 0.930 . S
H383 C391 0.930 . S
H384 C394 0.930 . S
H385 C395 0.930 . S
C386 H380 0.930 . S
C386 C387 1.355 . S
C386 C388 1.415 . S
C387 C386 1.355 . S
C387 C389 1.419 . S
C388 C386 1.415 . S
C388 C393 1.425 . S
C388 C395 1.409 . S
C389 H381 0.930 . S
C389 C387 1.419 . S
C389 C390 1.362 . S
C390 H382 0.930 . S
C390 C389 1.362 . S
C390 C393 1.409 . S
C391 H383 0.930 . S
C391 C392 1.355 . S
C391 C393 1.415 . S
C392 C391 1.355 . S
C392 C394 1.419 . S
C393 C388 1.425 . S
C393 C390 1.409 . S
C393 C391 1.415 . S
C394 H384 0.930 . S
C394 C392 1.419 . S
C394 C395 1.362 . S
C395 H385 0.930 . S
C395 C388 1.409 . S
C395 C394 1.362 . S
H396 C402 0.930 . S
H397 C405 0.930 . S
H398 C406 0.930 . S
H399 C407 0.930 . S
H400 C410 0.930 . S
H401 C411 0.930 . S
C402 H396 0.930 . S
C402 C403 1.355 . S
C402 C404 1.415 . S
C403 C402 1.355 . S
C403 C405 1.419 . S
C404 C402 1.415 . S
C404 C409 1.425 . S
C404 C411 1.409 . S
C405 H397 0.930 . S
C405 C403 1.419 . S
C405 C406 1.362 . S
C406 H398 0.930 . S
C406 C405 1.362 . S
C406 C409 1.409 . S
C407 H399 0.930 . S
C407 C408 1.355 . S
C407 C409 1.415 . S
C408 C407 1.355 . S
C408 C410 1.419 . S
C409 C404 1.425 . S
C409 C406 1.409 . S
C409 C407 1.415 . S
C410 H400 0.930 . S
C410 C408 1.419 . S
C410 C411 1.362 . S
C411 H401 0.930 . S
C411 C404 1.409 . S
C411 C410 1.362 . S
H412 C418 0.930 . S
H413 C421 0.930 . S
H414 C422 0.930 . S
H415 C423 0.930 . S
H416 C426 0.930 . S
H417 C427 0.930 . S
C418 H412 0.930 . S
C418 C419 1.355 . S
C418 C420 1.415 . S
C419 C418 1.355 . S
C419 C421 1.419 . S
C420 C418 1.415 . S
C420 C425 1.425 . S
C420 C427 1.409 . S
C421 H413 0.930 . S
C421 C419 1.419 . S
C421 C422 1.362 . S
C422 H414 0.930 . S
C422 C421 1.362 . S
C422 C425 1.409 . S
C423 H415 0.930 . S
C423 C424 1.355 . S
C423 C425 1.415 . S
C424 C423 1.355 . S
C424 C426 1.419 . S
C425 C420 1.425 . S
C425 C422 1.409 . S
C425 C423 1.415 . S
C426 H416 0.930 . S
C426 C424 1.419 . S
C426 C427 1.362 . S
C427 H417 0.930 . S
C427 C420 1.409 . S
C427 C426 1.362 . S
H428 C434 0.930 . S
H429 C437 0.930 . S
H430 C438 0.930 . S
H431 C439 0.930 . S
H432 C442 0.930 . S
H433 C443 0.930 . S
C434 H428 0.930 . S
C434 C435 1.355 1_665 S
C434 C436 1.415 . S
C435 C434 1.355 1_445 S
C435 C437 1.419 . S
C436 C434 1.415 . S
C436 C441 1.425 1_665 S
C436 C443 1.409 . S
C437 H429 0.930 . S
C437 C435 1.419 . S
C437 C438 1.362 . S
C438 H430 0.930 . S
C438 C437 1.362 . S
C438 C441 1.409 . S
C439 H431 0.930 . S
C439 C440 1.355 1_545 S
C439 C441 1.415 . S
C440 C439 1.355 1_565 S
C440 C442 1.419 1_455 S
C441 C436 1.425 1_445 S
C441 C438 1.409 . S
C441 C439 1.415 . S
C442 H432 0.930 . S
C442 C440 1.419 1_655 S
C442 C443 1.362 . S
C443 H433 0.930 . S
C443 C436 1.409 . S
C443 C442 1.362 . S
H444 C450 0.930 . S
H445 C453 0.930 1_565 S
H446 C454 0.930 1_565 S
H447 C455 0.930 . S
H448 C458 0.930 . S
H449 C459 0.930 . S
C450 H444 0.930 . S
C450 C451 1.355 1_655 S
C450 C452 1.415 . S
C451 C450 1.355 1_455 S
C451 C453 1.419 . S
C452 C450 1.415 . S
C452 C457 1.425 1_655 S
C452 C459 1.409 . S
C453 H445 0.930 1_545 S
C453 C451 1.419 . S
C453 C454 1.362 . S
C454 H446 0.930 1_545 S
C454 C453 1.362 . S
C454 C457 1.409 . S
C455 H447 0.930 . S
C455 C456 1.355 . S
C455 C457 1.415 . S
C456 C455 1.355 . S
C456 C458 1.419 1_455 S
C457 C452 1.425 1_455 S
C457 C454 1.409 . S
C457 C455 1.415 . S
C458 H448 0.930 . S
C458 C456 1.419 1_655 S
C458 C459 1.362 . S
C459 H449 0.930 . S
C459 C452 1.409 . S
C459 C458 1.362 . S
H460 C466 0.930 . S
H461 C469 0.930 . S
H462 C470 0.930 . S
H463 C471 0.930 . S
H464 C474 0.930 . S
H465 C475 0.930 . S
C466 H460 0.930 . S
C466 C467 1.355 . S
C466 C468 1.415 . S
C467 C466 1.355 . S
C467 C469 1.419 . S
C468 C466 1.415 . S
C468 C473 1.425 . S
C468 C475 1.409 . S
C469 H461 0.930 . S
C469 C467 1.419 . S
C469 C470 1.362 . S
C470 H462 0.930 . S
C470 C469 1.362 . S
C470 C473 1.409 . S
C471 H463 0.930 . S
C471 C472 1.355 . S
C471 C473 1.415 . S
C472 C471 1.355 . S
C472 C474 1.419 . S
C473 C468 1.425 . S
C473 C470 1.409 . S
C473 C471 1.415 . S
C474 H464 0.930 . S
C474 C472 1.419 . S
C474 C475 1.362 . S
C475 H465 0.930 . S
C475 C468 1.409 . S
C475 C474 1.362 . S
H476 C482 0.930 . S
H477 C485 0.930 . S
H478 C486 0.930 . S
H479 C487 0.930 . S
H480 C490 0.930 . S
H481 C491 0.930 . S
C482 H476 0.930 . S
C482 C483 1.355 . S
C482 C484 1.415 . S
C483 C482 1.355 . S
C483 C485 1.419 . S
C484 C482 1.415 . S
C484 C489 1.425 . S
C484 C491 1.409 . S
C485 H477 0.930 . S
C485 C483 1.419 . S
C485 C486 1.362 . S
C486 H478 0.930 . S
C486 C485 1.362 . S
C486 C489 1.409 . S
C487 H479 0.930 . S
C487 C488 1.355 . S
C487 C489 1.415 . S
C488 C487 1.355 . S
C488 C490 1.419 . S
C489 C484 1.425 . S
C489 C486 1.409 . S
C489 C487 1.415 . S
C490 H480 0.930 . S
C490 C488 1.419 . S
C490 C491 1.362 . S
C491 H481 0.930 . S
C491 C484 1.409 . S
C491 C490 1.362 . S
C312 C271 1.502 . S
C307 C27 1.530 . S
C323 N6 1.450 . S
C328 C211 1.468 . S
C339 C16 1.506 . S
C344 C241 1.333 . S
C355 N14 1.402 . S
C360 C181 1.344 1_554 S
C371 C57 1.526 . S
C376 C151 1.531 . S
C387 N36 1.423 . S
C392 C91 1.453 . S
C408 C121 1.412 . S
C403 C46 1.499 . S
C424 C61 1.343 . S
C419 N44 1.442 . S
C435 C10 1.389 . S
C440 C80 1.374 1_465 S
C451 C1 1.538 . S
C456 C140 1.493 1_455 S
C472 C200 1.336 . S
C467 C40 1.374 . S
C483 C31 1.521 . S
C488 C260 1.502 . S
