# Generated by pormake.
# Topology ant, (3,6)-cn, num edge types: 1
# Building blocks:
#     Node 0, Type 0, BuildingBlock: BETDIP_clean_linker_0, # of connection points: 3
#     Node 1, Type 0, BuildingBlock: BETDIP_clean_linker_0, # of connection points: 3
#     Node 2, Type 0, BuildingBlock: BETDIP_clean_linker_0, # of connection points: 3
#     Node 3, Type 0, BuildingBlock: BETDIP_clean_linker_0, # of connection points: 3
#     Node 4, Type 0, BuildingBlock: BETDIP_clean_linker_0, # of connection points: 3
#     Node 5, Type 0, BuildingBlock: BETDIP_clean_linker_0, # of connection points: 3
#     Node 6, Type 0, BuildingBlock: BETDIP_clean_linker_0, # of connection points: 3
#     Node 7, Type 0, BuildingBlock: BETDIP_clean_linker_0, # of connection points: 3
#     Node 8, Type 1, BuildingBlock: MIDCAF_clean_sbu_0, # of connection points: 6
#     Node 9, Type 1, BuildingBlock: MIDCAF_clean_sbu_0, # of connection points: 6
#     Node 10, Type 1, BuildingBlock: MIDCAF_clean_sbu_0, # of connection points: 6
#     Node 11, Type 1, BuildingBlock: MIDCAF_clean_sbu_0, # of connection points: 6
#     Edge 12, Type (0, 1), BuildingBlock: AJUNOK_clean_linker_0, # of connection points: 2
#     Edge 13, Type (0, 1), BuildingBlock: AJUNOK_clean_linker_0, # of connection points: 2
#     Edge 14, Type (0, 1), BuildingBlock: AJUNOK_clean_linker_0, # of connection points: 2
#     Edge 15, Type (0, 1), BuildingBlock: AJUNOK_clean_linker_0, # of connection points: 2
#     Edge 16, Type (0, 1), BuildingBlock: AJUNOK_clean_linker_0, # of connection points: 2
#     Edge 17, Type (0, 1), BuildingBlock: AJUNOK_clean_linker_0, # of connection points: 2
#     Edge 18, Type (0, 1), BuildingBlock: AJUNOK_clean_linker_0, # of connection points: 2
#     Edge 19, Type (0, 1), BuildingBlock: AJUNOK_clean_linker_0, # of connection points: 2
#     Edge 20, Type (0, 1), BuildingBlock: AJUNOK_clean_linker_0, # of connection points: 2
#     Edge 21, Type (0, 1), BuildingBlock: AJUNOK_clean_linker_0, # of connection points: 2
#     Edge 22, Type (0, 1), BuildingBlock: AJUNOK_clean_linker_0, # of connection points: 2
#     Edge 23, Type (0, 1), BuildingBlock: AJUNOK_clean_linker_0, # of connection points: 2
#     Edge 24, Type (0, 1), BuildingBlock: AJUNOK_clean_linker_0, # of connection points: 2
#     Edge 25, Type (0, 1), BuildingBlock: AJUNOK_clean_linker_0, # of connection points: 2
#     Edge 26, Type (0, 1), BuildingBlock: AJUNOK_clean_linker_0, # of connection points: 2
#     Edge 27, Type (0, 1), BuildingBlock: AJUNOK_clean_linker_0, # of connection points: 2
#     Edge 28, Type (0, 1), BuildingBlock: AJUNOK_clean_linker_0, # of connection points: 2
#     Edge 29, Type (0, 1), BuildingBlock: AJUNOK_clean_linker_0, # of connection points: 2
#     Edge 30, Type (0, 1), BuildingBlock: AJUNOK_clean_linker_0, # of connection points: 2
#     Edge 31, Type (0, 1), BuildingBlock: AJUNOK_clean_linker_0, # of connection points: 2
#     Edge 32, Type (0, 1), BuildingBlock: AJUNOK_clean_linker_0, # of connection points: 2
#     Edge 33, Type (0, 1), BuildingBlock: AJUNOK_clean_linker_0, # of connection points: 2
#     Edge 34, Type (0, 1), BuildingBlock: AJUNOK_clean_linker_0, # of connection points: 2
#     Edge 35, Type (0, 1), BuildingBlock: AJUNOK_clean_linker_0, # of connection points: 2
# Relax obj value: 0.093
# Max RMSD: 0.189
# Mean RMSD: 0.125
data_MOF--net-ant--node1-MIDCAF_clean_sbu_0--node2-BETDIP_clean_linker_0--edge1-AJUNOK_clean_linker_0
_symmetry_space_group_name_H-M    P1
_symmetry_Int_Tables_number       1
_symmetry_cell_setting            triclinic
loop_
_symmetry_equiv_pos_as_xyz
'x, y, z'
_cell_length_a     20.86218
_cell_length_b     20.877038
_cell_length_c     52.697892
_cell_angle_alpha  92.694224
_cell_angle_beta   96.841092
_cell_angle_gamma 88.90751
loop_
_atom_site_label
_atom_site_type_symbol
_atom_site_fract_x
_atom_site_fract_y
_atom_site_fract_z
_atom_type_partial_charge
H0 H 0.23002 0.32454 0.09649 0.0
H1 H 0.24244 0.17709 0.03738 0.0
H2 H 0.15819 0.36026 0.01824 0.0
H3 H 0.3302 0.14316 0.06914 0.0
C4 C 0.29748 0.14515 0.08375 0.0
C5 C 0.22117 0.30869 0.07652 0.0
C6 C 0.19281 0.35107 0.0582 0.0
C7 C 0.23956 0.24609 0.06929 0.0
C8 C 0.2291 0.22535 0.04338 0.0
C9 C 0.19957 0.26645 0.02509 0.0
C10 C 0.1811 0.32887 0.03255 0.0
N11 N 0.26446 0.20386 0.08861 0.0
H12 H 0.02006 0.83754 0.33673 0.0
H13 H 0.12791 0.84757 0.27281 0.0
H14 H 0.93134 0.78402 0.26058 0.0
H15 H 0.13244 0.79929 0.3528 0.0
C16 C 0.16361 0.83053 0.34396 0.0
C17 C 0.02247 0.83103 0.31635 0.0
C18 C 0.96748 0.81089 0.29978 0.0
C19 C 0.08009 0.84477 0.3064 0.0
C20 C 0.08272 0.83816 0.28012 0.0
C21 C 0.02991 0.81508 0.2635 0.0
C22 C 0.97223 0.80189 0.2734 0.0
N23 N 0.13725 0.8636 0.32213 0.0
H24 H 0.7646 0.79485 0.58656 0.0
H25 H 0.73331 0.65064 0.52555 0.0
H26 H 0.66271 0.84334 0.51401 0.0
H27 H 0.83511 0.61269 0.54869 0.0
C28 C 0.81376 0.61413 0.56655 0.0
C29 C 0.74532 0.78126 0.56708 0.0
C30 C 0.71224 0.82697 0.55137 0.0
C31 C 0.75438 0.71803 0.55783 0.0
C32 C 0.72873 0.69983 0.53267 0.0
C33 C 0.69454 0.74444 0.51693 0.0
C34 C 0.68778 0.80825 0.52624 0.0
N35 N 0.78477 0.67251 0.57479 0.0
H36 H 0.49824 0.25455 0.82796 0.0
H37 H 0.62106 0.24764 0.76802 0.0
H38 H 0.41555 0.23869 0.74865 0.0
H39 H 0.66205 0.1642 0.80182 0.0
C40 C 0.67418 0.20682 0.81398 0.0
C41 C 0.50383 0.25207 0.80775 0.0
C42 C 0.44873 0.24756 0.78924 0.0
C43 C 0.56626 0.25143 0.80015 0.0
C44 C 0.57308 0.24834 0.77404 0.0
C45 C 0.51938 0.24362 0.75551 0.0
C46 C 0.45707 0.2437 0.76303 0.0
N47 N 0.62266 0.25028 0.81836 0.0
H48 H 0.97243 0.70847 0.87645 0.0
H49 H 0.05671 0.78599 0.94952 0.0
H50 H 0.03218 0.58336 0.93824 0.0
H51 H 0.0997 0.85465 0.92489 0.0
C52 C 0.05879 0.86607 0.91102 0.0
C53 C 0.99274 0.70127 0.89601 0.0
C54 C 0.99812 0.63886 0.90542 0.0
C55 C 0.01632 0.75441 0.91146 0.0
C56 C 0.04148 0.74521 0.93695 0.0
C57 C 0.0468 0.68373 0.94668 0.0
C58 C 0.02509 0.63096 0.93092 0.0
N59 N 0.01558 0.81632 0.90102 0.0
H60 H 0.60129 0.88779 0.12815 0.0
H61 H 0.7173 0.85907 0.20004 0.0
H62 H 0.51144 0.84944 0.19506 0.0
H63 H 0.78991 0.92183 0.18129 0.0
C64 C 0.78415 0.89501 0.163 0.0
C65 C 0.60483 0.88142 0.14857 0.0
C66 C 0.5489 0.87157 0.16014 0.0
C67 C 0.66571 0.87943 0.163 0.0
C68 C 0.67058 0.8656 0.18903 0.0
C69 C 0.61494 0.85573 0.20061 0.0
C70 C 0.55423 0.8605 0.18633 0.0
N71 N 0.72142 0.88343 0.15023 0.0
H72 H 0.50625 0.20323 0.37403 0.0
H73 H 0.59286 0.26773 0.44885 0.0
H74 H 0.53742 0.07195 0.43528 0.0
H75 H 0.56768 0.36561 0.43541 0.0
C76 C 0.57169 0.36262 0.41504 0.0
C77 C 0.52154 0.19377 0.3939 0.0
C78 C 0.51651 0.13153 0.40264 0.0
C79 C 0.54821 0.24363 0.41042 0.0
C80 C 0.57077 0.23058 0.43588 0.0
C81 C 0.56587 0.16883 0.44482 0.0
C82 C 0.53827 0.11995 0.42832 0.0
N83 N 0.55524 0.3049 0.40037 0.0
H84 H 0.13362 0.34961 0.6384 0.0
H85 H 0.23571 0.28789 0.70914 0.0
H86 H 0.02948 0.29986 0.70045 0.0
H87 H 0.29221 0.23431 0.67888 0.0
C88 C 0.30083 0.27545 0.66792 0.0
C89 C 0.13313 0.33563 0.65792 0.0
C90 C 0.07407 0.32853 0.66781 0.0
C91 C 0.19145 0.31983 0.67255 0.0
C92 C 0.19101 0.29988 0.69756 0.0
C93 C 0.13283 0.29331 0.70756 0.0
C94 C 0.07459 0.30834 0.69291 0.0
N95 N 0.24975 0.31982 0.6613 0.0
Zn96 Zn 0.21262 0.6895 0.14147 0.0
Zn97 Zn 0.08569 0.82968 0.08181 0.0
Zn98 Zn 0.15048 0.76263 0.10919 0.0
C99 C 0.12229 0.73321 0.05066 0.0
C100 C 0.18319 0.90634 0.10107 0.0
O101 O 0.10208 0.76665 0.14436 0.0
O102 O 0.16939 0.71417 0.17201 0.0
C103 C 0.16629 0.60846 0.10094 0.0
O104 O 0.12945 0.70713 0.07249 0.0
O105 O 0.1122 0.79277 0.04958 0.0
O106 O 0.12338 0.91301 0.09466 0.0
O107 O 0.20751 0.84962 0.10424 0.0
O108 O 0.18858 0.60654 0.12421 0.0
O109 O 0.15309 0.66304 0.09081 0.0
O110 O 0.24696 0.80342 0.11663 0.0
O111 O 0.29897 0.72495 0.13753 0.0
C112 C 0.29969 0.77779 0.12684 0.0
O113 O 0.06108 0.79544 0.12513 0.0
O114 O 0.99706 0.81394 0.08971 0.0
C115 C 0.11844 0.74696 0.16705 0.0
C116 C 1.00475 0.80898 0.11362 0.0
Zn117 Zn 0.52003 0.67011 0.32467 0.0
Zn118 Zn 0.65077 0.81809 0.37615 0.0
Zn119 Zn 0.58373 0.74801 0.35375 0.0
C120 C 0.55244 0.89124 0.35801 0.0
C121 C 0.73088 0.77731 0.34581 0.0
O122 O 0.5901 0.65461 0.37275 0.0
O123 O 0.56176 0.59137 0.33873 0.0
C124 C 0.43163 0.75399 0.3454 0.0
O125 O 0.52709 0.83631 0.36025 0.0
O126 O 0.61282 0.89408 0.35809 0.0
O127 O 0.73877 0.78901 0.36964 0.0
O128 O 0.67297 0.76858 0.33452 0.0
O129 O 0.43494 0.69723 0.33617 0.0
O130 O 0.48353 0.78667 0.35091 0.0
O131 O 0.62133 0.75181 0.31714 0.0
O132 O 0.54292 0.70281 0.29206 0.0
C133 C 0.593 0.73653 0.2947 0.0
O134 O 0.61393 0.70466 0.39072 0.0
O135 O 0.62264 0.80078 0.40966 0.0
C136 C 0.58363 0.59787 0.36209 0.0
C137 C 0.61836 0.74099 0.41124 0.0
Zn138 Zn 0.60043 0.31326 0.58014 0.0
Zn139 Zn 0.74301 0.16472 0.63966 0.0
Zn140 Zn 0.67572 0.23559 0.60733 0.0
C141 C 0.82377 0.26119 0.62814 0.0
C142 C 0.70313 0.0839 0.59747 0.0
O143 O 0.58354 0.25678 0.6237 0.0
O144 O 0.52331 0.31995 0.59762 0.0
C145 C 0.7131 0.37904 0.59241 0.0
O146 O 0.77039 0.2824 0.61649 0.0
O147 O 0.82593 0.20823 0.63882 0.0
O148 O 0.7284 0.08258 0.62039 0.0
O149 O 0.68433 0.13783 0.58784 0.0
O150 O 0.65595 0.38822 0.58244 0.0
O151 O 0.73066 0.32457 0.60183 0.0
O152 O 0.65507 0.18214 0.57054 0.0
O153 O 0.59642 0.25629 0.54926 0.0
C154 C 0.62285 0.20145 0.54991 0.0
O155 O 0.62707 0.22981 0.64255 0.0
O156 O 0.69573 0.178 0.66984 0.0
C157 C 0.53025 0.28771 0.61737 0.0
C158 C 0.64266 0.20736 0.66486 0.0
Zn159 Zn 0.99111 0.09948 0.81974 0.0
Zn160 Zn 0.16496 0.33186 0.8751 0.0
Zn161 Zn 0.08212 0.25119 0.8617 0.0
C162 C 0.16162 0.25287 0.9166 0.0
C163 C 0.04512 0.39687 0.86544 0.0
O164 O 0.09459 0.21086 0.82177 0.0
O165 O 0.05417 0.12772 0.79581 0.0
C166 C 0.05307 0.12711 0.87594 0.0
O167 O 0.12009 0.22317 0.90045 0.0
O168 O 0.18804 0.30287 0.91046 0.0
O169 O 0.1053 0.40539 0.86932 0.0
O170 O 0.0226 0.33973 0.86342 0.0
O171 O 0.0298 0.13944 0.85345 0.0
O172 O 0.08281 0.17338 0.88853 0.0
O173 O 0.98057 0.28497 0.85466 0.0
O174 O 0.98451 0.18866 0.83845 0.0
C175 C 0.95027 0.23809 0.84254 0.0
O176 O 0.15923 0.24567 0.83534 0.0
O177 O 0.22951 0.31876 0.8514 0.0
C178 C 0.0908 0.17664 0.80038 0.0
C179 C 0.21296 0.27489 0.83486 0.0
C180 C 0.14623 0.43071 0.08823 0.0
C181 C 0.17652 0.41847 0.06602 0.0
C182 C 0.13821 0.49336 0.09813 0.0
C183 C 0.15959 0.54652 0.08615 0.0
H184 H 0.13057 0.39136 0.09858 0.0
H185 H 0.11777 0.50009 0.11605 0.0
S186 S 0.2378 0.54157 0.02659 0.0
N187 N 0.22482 0.46555 0.03148 0.0
N188 N 0.20901 0.58343 0.0502 0.0
C189 C 0.18616 0.53561 0.06308 0.0
C190 C 0.19481 0.47154 0.05299 0.0
C191 C 0.90482 0.7633 0.33201 0.0
C192 C 0.90532 0.79877 0.30998 0.0
C193 C 0.84739 0.75402 0.34268 0.0
C194 C 0.78801 0.77925 0.33166 0.0
H195 H 0.94932 0.74307 0.34124 0.0
H196 H 0.84968 0.72784 0.36005 0.0
S197 S 0.7633 0.87854 0.27475 0.0
N198 N 0.84123 0.86084 0.27793 0.0
N199 N 0.7336 0.84305 0.29807 0.0
C200 C 0.78751 0.81394 0.30946 0.0
C201 C 0.84606 0.82376 0.29861 0.0
C202 C 0.81789 0.49459 0.56531 0.0
C203 C 0.80238 0.55246 0.57818 0.0
C204 C 0.79568 0.43554 0.57226 0.0
C205 C 0.75774 0.43258 0.59243 0.0
H206 H 0.84334 0.49537 0.54856 0.0
H207 H 0.80333 0.39295 0.56037 0.0
S208 S 0.7133 0.56789 0.63515 0.0
N209 N 0.75451 0.60136 0.6145 0.0
N210 N 0.71215 0.49045 0.62713 0.0
C211 C 0.74714 0.489 0.60694 0.0
C212 C 0.7697 0.54907 0.59995 0.0
C213 C 0.76775 0.2639 0.84064 0.0
C214 C 0.74388 0.22245 0.81993 0.0
C215 C 0.83495 0.27212 0.84723 0.0
C216 C 0.88005 0.23933 0.83323 0.0
H217 H 0.73464 0.28796 0.85239 0.0
H218 H 0.85166 0.30184 0.86403 0.0
S219 S 0.84134 0.13451 0.77475 0.0
N220 N 0.77039 0.1544 0.78389 0.0
N221 N 0.89514 0.17085 0.79579 0.0
C222 C 0.85617 0.20138 0.81155 0.0
C223 C 0.7885 0.19266 0.80504 0.0
C224 C 0.95794 0.52609 0.89789 0.0
C225 C 0.98507 0.58029 0.88839 0.0
C226 C 0.96762 0.46419 0.88723 0.0
C227 C 1.0043 0.45495 0.86668 0.0
H228 H 0.93499 0.53078 0.91529 0.0
H229 H 0.95366 0.42334 0.89717 0.0
S230 S 0.07039 0.58108 0.8305 0.0
N231 N 0.03907 0.62073 0.85402 0.0
N232 N 0.05527 0.50478 0.83376 0.0
C233 C 0.02217 0.50918 0.85451 0.0
C234 C 0.01317 0.57198 0.86546 0.0
C235 C 0.83566 0.82299 0.13179 0.0
C236 C 0.84152 0.87134 0.15143 0.0
C237 C 0.8895 0.80109 0.12025 0.0
C238 C 0.95084 0.82639 0.12815 0.0
H239 H 0.7892 0.80212 0.12513 0.0
H240 H 0.88302 0.76478 0.10482 0.0
S241 S 0.9906 0.95735 0.17707 0.0
N242 N 0.91278 0.94527 0.17761 0.0
N243 N 0.01383 0.90512 0.15534 0.0
C244 C 0.9574 0.87463 0.1477 0.0
C245 C 0.90267 0.89679 0.15952 0.0
C246 C 0.57668 0.48234 0.4151 0.0
C247 C 0.58389 0.42236 0.40228 0.0
C248 C 0.58129 0.5399 0.40264 0.0
C249 C 0.59353 0.53922 0.37695 0.0
H250 H 0.56458 0.48477 0.43456 0.0
H251 H 0.57157 0.58479 0.41271 0.0
S252 S 0.62867 0.39524 0.33652 0.0
N253 N 0.61278 0.3663 0.36367 0.0
N254 N 0.62162 0.47388 0.34033 0.0
C255 C 0.60575 0.47965 0.36463 0.0
C256 C 0.60084 0.42132 0.37725 0.0
C257 C 0.9577 0.36153 0.66015 0.0
C258 C 0.0115 0.32996 0.65118 0.0
C259 C 0.89457 0.34566 0.64979 0.0
C260 C 0.88367 0.29767 0.63028 0.0
H261 H 0.96436 0.39432 0.67678 0.0
H262 H 0.85446 0.36595 0.65892 0.0
S263 S 1.00711 0.20863 0.59731 0.0
N264 N 0.04913 0.25493 0.61926 0.0
N265 N 0.93046 0.2252 0.60004 0.0
C266 C 0.93666 0.27118 0.61927 0.0
C267 C 1.00079 0.28743 0.62965 0.0
C268 C 0.37982 0.33622 0.64686 0.0
C269 C 0.36205 0.27891 0.65688 0.0
C270 C 0.43585 0.33902 0.63488 0.0
C271 C 0.47578 0.28463 0.6325 0.0
H272 H 0.34999 0.37907 0.64802 0.0
H273 H 0.44751 0.38387 0.62708 0.0
S274 S 0.44917 0.12274 0.65501 0.0
N275 N 0.38863 0.16686 0.66403 0.0
N276 N 0.4927 0.17136 0.64035 0.0
C277 C 0.45888 0.22719 0.64266 0.0
C278 C 0.4023 0.2246 0.65522 0.0
C279 C 0.43094 0.89413 0.1499 0.0
C280 C 0.4864 0.85891 0.14466 0.0
C281 C 0.36902 0.87088 0.14144 0.0
C282 C 0.36131 0.81109 0.12816 0.0
H283 H 0.43557 0.93741 0.16211 0.0
H284 H 0.32739 0.89684 0.14733 0.0
S285 S 0.49065 0.70467 0.10711 0.0
N286 N 0.52936 0.76527 0.12294 0.0
N287 N 0.41302 0.72075 0.10776 0.0
C288 C 0.41608 0.77816 0.1211 0.0
C289 C 0.47881 0.80237 0.12918 0.0
C290 C 0.33646 0.29355 0.78941 0.0
C291 C 0.38259 0.2462 0.79728 0.0
C292 C 0.27712 0.29854 0.79963 0.0
C293 C 0.26089 0.25511 0.81741 0.0
H294 H 0.34801 0.32947 0.77654 0.0
H295 H 0.24549 0.33906 0.79484 0.0
S296 S 0.36116 0.11771 0.84166 0.0
N297 N 0.40544 0.15167 0.82216 0.0
N298 N 0.29347 0.16036 0.84084 0.0
C299 C 0.30443 0.20474 0.82386 0.0
C300 C 0.36538 0.20044 0.81394 0.0
C301 C 0.2574 0.76053 0.35859 0.0
C302 C 0.23448 0.81864 0.34829 0.0
C303 C 0.3223 0.74169 0.35874 0.0
C304 C 0.36713 0.78088 0.34915 0.0
H305 H 0.22422 0.7276 0.36526 0.0
H306 H 0.3371 0.69496 0.36564 0.0
S307 S 0.33357 0.94117 0.32289 0.0
N308 N 0.26305 0.91804 0.33029 0.0
N309 N 0.38526 0.88246 0.33078 0.0
C310 C 0.34594 0.84099 0.34036 0.0
C311 C 0.27951 0.85993 0.33988 0.0
C312 C 0.71915 0.94713 0.5483 0.0
C313 C 0.70196 0.89379 0.56146 0.0
C314 C 0.71513 1.01013 0.559 0.0
C315 C 0.69376 0.02143 0.58314 0.0
H316 H 0.73845 0.93987 0.53018 0.0
H317 H 0.73217 0.04951 0.54904 0.0
S318 S 0.63203 0.89989 0.62299 0.0
N319 N 0.65454 0.85796 0.59814 0.0
N320 N 0.64762 0.97535 0.61826 0.0
C321 C 0.67228 0.96897 0.59551 0.0
C322 C 0.67628 0.9054 0.5847 0.0
C323 C 0.30279 0.02558 0.08422 0.0
C324 C 0.27719 0.08392 0.09346 0.0
C325 C 0.27639 0.96645 0.08894 0.0
C326 C 0.2232 0.96413 0.10284 0.0
H327 H 0.34105 0.0258 0.07201 0.0
H328 H 0.29437 0.92301 0.08 0.0
S329 S 0.14633 0.10129 0.13541 0.0
N330 N 0.20201 0.13419 0.12061 0.0
N331 N 0.15174 0.02342 0.12884 0.0
C332 C 0.20097 0.02141 0.11405 0.0
C333 C 0.22813 0.08136 0.10953 0.0
C334 C 0.53369 0.06806 0.36285 0.0
C335 C 0.50044 0.07589 0.38449 0.0
C336 C 0.54171 1.00727 0.35126 0.0
C337 C 0.51725 0.95245 0.36109 0.0
H338 H 0.56026 0.1074 0.35667 0.0
H339 H 0.57382 1.00228 0.33654 0.0
S340 S 0.40857 0.95073 0.41173 0.0
N341 N 0.42816 0.02681 0.41073 0.0
N342 N 0.44559 0.91177 0.38953 0.0
C343 C 0.47502 0.96107 0.37983 0.0
C344 C 0.4662 0.02321 0.39148 0.0
C345 C 0.09977 0.97776 0.91276 0.0
C346 C 0.05354 0.93274 0.90209 0.0
C347 C 0.09836 0.04106 0.90479 0.0
C348 C 0.05084 0.06167 0.88562 0.0
H349 H 0.13797 0.96377 0.92732 0.0
H350 H 0.13564 0.07354 0.91325 0.0
S351 S 0.91499 0.96469 0.85312 0.0
N352 N 0.95639 0.91467 0.87241 0.0
N353 N 0.95343 0.03342 0.85751 0.0
C354 C 1.00314 0.01773 0.87531 0.0
C355 C 1.00449 0.9533 0.88349 0.0
C356 C 0.12886 0.24035 0.98447 0.0
C357 C 0.19116 0.24632 -0.00225 0.0
C358 C 0.11973 0.23435 0.95766 0.0
C359 C 0.17263 0.23587 0.9435 0.0
H360 H 0.08695 0.24386 -0.00519 0.0
H361 H 0.0709 0.23442 0.94797 0.0
S362 S 0.34539 0.24364 0.96952 0.0
N363 N 0.30647 0.24667 -0.00491 0.0
N364 N 0.28928 0.23771 0.94464 0.0
C365 C 0.23519 0.23733 0.95667 0.0
C366 C 0.24449 0.24209 0.98389 0.0
C367 C 0.06821 0.84608 0.22272 0.0
C368 C 0.03829 0.80082 0.23625 0.0
C369 C 0.09017 0.82928 0.19919 0.0
C370 C 0.08193 0.76712 0.1882 0.0
H371 H 0.07787 0.89385 0.23107 0.0
H372 H 0.11705 0.86407 0.19025 0.0
S373 S 1.00366 0.63192 0.21479 0.0
N374 N 0.99922 0.69172 0.23621 0.0
N375 N 0.03975 0.66089 0.19161 0.0
C376 C 0.04924 0.72237 0.20072 0.0
C377 C 0.02708 0.73922 0.22477 0.0
C378 C 0.70677 0.69624 0.47327 0.0
C379 C 0.66706 0.72547 0.49043 0.0
C380 C 0.68643 0.69187 0.44686 0.0
C381 C 0.62588 0.71645 0.43701 0.0
H382 H 0.75578 0.68179 0.47998 0.0
H383 H 0.72078 0.67561 0.43398 0.0
S384 S 0.49906 0.78435 0.47427 0.0
N385 N 0.5603 0.76857 0.49605 0.0
N386 N 0.52304 0.76175 0.44642 0.0
C387 C 0.58331 0.73896 0.45418 0.0
C388 C 0.60372 0.74327 0.48095 0.0
C389 C 0.5386 0.28237 0.71296 0.0
C390 C 0.53198 0.23104 0.72876 0.0
C391 C 0.5711 0.27381 0.6911 0.0
C392 C 0.5988 0.21401 0.68486 0.0
H393 H 0.52256 0.33011 0.71848 0.0
H394 H 0.5782 0.31497 0.68003 0.0
S395 S 0.58795 0.0635 0.7186 0.0
N396 N 0.55 0.11768 0.73539 0.0
N397 N 0.61183 0.10167 0.69471 0.0
C398 C 0.58879 0.16174 0.69966 0.0
C399 C 0.55499 0.17022 0.7215 0.0
C400 C 0.13519 0.70718 0.9817 0.0
C401 C 0.07679 0.67608 0.97332 0.0
C402 C 0.15564 0.71731 0.00777 0.0
C403 C 0.11868 0.69617 0.02625 0.0
H404 H 0.16239 0.72858 0.96807 0.0
H405 H 0.19705 0.74751 0.01347 0.0
S406 S 0.96985 0.6005 0.01431 0.0
N407 N 0.98791 0.61512 0.98546 0.0
N408 N 0.02727 0.63383 0.03472 0.0
C409 C 0.06504 0.65774 0.01822 0.0
C410 C 0.04373 0.64777 -0.00842 0.0
C411 C 0.64017 0.76574 0.22948 0.0
C412 C 0.61968 0.82974 0.22622 0.0
C413 C 0.63436 0.73583 0.25234 0.0
C414 C 0.60939 0.76979 0.27262 0.0
H415 H 0.65753 0.73776 0.21379 0.0
H416 H 0.64746 0.68558 0.25388 0.0
S417 S 0.55298 0.93907 0.27411 0.0
N418 N 0.57576 0.9265 0.24528 0.0
N419 N 0.56664 0.87087 0.28864 0.0
C420 C 0.59147 0.83448 0.26999 0.0
C421 C 0.59624 0.86446 0.24662 0.0
C422 C 0.54328 0.13865 0.48794 0.0
C423 C 0.58825 0.15625 0.47178 0.0
C424 C 0.55864 0.14317 0.51456 0.0
C425 C 0.6196 0.16435 0.52562 0.0
H426 H 0.4942 0.12734 0.48008 0.0
H427 H 0.52054 0.13687 0.52648 0.0
S428 S 0.75793 0.20279 0.49143 0.0
N429 N 0.69895 0.18557 0.46845 0.0
N430 N 0.7279 0.19337 0.51863 0.0
C431 C 0.66724 0.17411 0.50963 0.0
C432 C 0.65143 0.1705 0.48258 0.0
C433 C 0.11766 0.30112 0.75356 0.0
C434 C 0.1322 0.2637 0.73222 0.0
C435 C 0.10951 0.27249 0.77637 0.0
C436 C 0.1148 0.20542 0.77839 0.0
H437 H 0.11044 0.35247 0.75231 0.0
H438 H 0.09502 0.30292 0.79197 0.0
S439 S 0.15735 0.08764 0.72812 0.0
N440 N 0.15622 0.15757 0.71462 0.0
N441 N 0.13959 0.10317 0.75754 0.0
C442 C 0.13223 0.16796 0.75743 0.0
C443 C 0.14132 0.19731 0.7343 0.0
loop_
_geom_bond_atom_site_label_1
_geom_bond_atom_site_label_2
_geom_bond_distance
_geom_bond_site_symmetry_2
_ccdc_geom_bond_type
H0 C5 0.930 . S
H1 C8 0.930 . S
H2 C10 0.930 . S
H3 C4 1.016 . S
C4 H3 1.016 . S
C4 N11 1.286 . S
C5 H0 0.930 . S
C5 C6 1.397 . S
C5 C7 1.361 . S
C6 C5 1.397 . S
C6 C10 1.390 . S
C7 C5 1.361 . S
C7 C8 1.393 . S
C7 N11 1.413 . S
C8 H1 0.930 . S
C8 C7 1.393 . S
C8 C9 1.399 . S
C9 C8 1.399 . S
C9 C10 1.381 . S
C10 H2 0.930 . S
C10 C6 1.390 . S
C10 C9 1.381 . S
N11 C4 1.286 . S
N11 C7 1.413 . S
H12 C17 0.930 . S
H13 C20 0.930 . S
H14 C22 0.930 1_655 S
H15 C16 1.016 . S
C16 H15 1.016 . S
C16 N23 1.286 . S
C17 H12 0.930 . S
C17 C18 1.397 . S
C17 C19 1.361 . S
C18 C17 1.397 . S
C18 C22 1.390 . S
C19 C17 1.361 . S
C19 C20 1.393 . S
C19 N23 1.413 . S
C20 H13 0.930 . S
C20 C19 1.393 . S
C20 C21 1.399 . S
C21 C20 1.399 . S
C21 C22 1.381 . S
C22 H14 0.930 1_455 S
C22 C18 1.390 . S
C22 C21 1.381 . S
N23 C16 1.286 . S
N23 C19 1.413 . S
H24 C29 0.930 . S
H25 C32 0.930 . S
H26 C34 0.930 . S
H27 C28 1.016 . S
C28 H27 1.016 . S
C28 N35 1.286 . S
C29 H24 0.930 . S
C29 C30 1.397 . S
C29 C31 1.361 . S
C30 C29 1.397 . S
C30 C34 1.390 . S
C31 C29 1.361 . S
C31 C32 1.393 . S
C31 N35 1.413 . S
C32 H25 0.930 . S
C32 C31 1.393 . S
C32 C33 1.399 . S
C33 C32 1.399 . S
C33 C34 1.381 . S
C34 H26 0.930 . S
C34 C30 1.390 . S
C34 C33 1.381 . S
N35 C28 1.286 . S
N35 C31 1.413 . S
H36 C41 0.930 . S
H37 C44 0.930 . S
H38 C46 0.930 . S
H39 C40 1.016 . S
C40 H39 1.016 . S
C40 N47 1.286 . S
C41 H36 0.930 . S
C41 C42 1.397 . S
C41 C43 1.361 . S
C42 C41 1.397 . S
C42 C46 1.390 . S
C43 C41 1.361 . S
C43 C44 1.393 . S
C43 N47 1.413 . S
C44 H37 0.930 . S
C44 C43 1.393 . S
C44 C45 1.399 . S
C45 C44 1.399 . S
C45 C46 1.381 . S
C46 H38 0.930 . S
C46 C42 1.390 . S
C46 C45 1.381 . S
N47 C40 1.286 . S
N47 C43 1.413 . S
H48 C53 0.930 . S
H49 C56 0.930 . S
H50 C58 0.930 . S
H51 C52 1.016 . S
C52 H51 1.016 . S
C52 N59 1.286 . S
C53 H48 0.930 . S
C53 C54 1.397 . S
C53 C55 1.361 . S
C54 C53 1.397 . S
C54 C58 1.390 . S
C55 C53 1.361 . S
C55 C56 1.393 . S
C55 N59 1.413 . S
C56 H49 0.930 . S
C56 C55 1.393 . S
C56 C57 1.399 . S
C57 C56 1.399 . S
C57 C58 1.381 . S
C58 H50 0.930 . S
C58 C54 1.390 . S
C58 C57 1.381 . S
N59 C52 1.286 . S
N59 C55 1.413 . S
H60 C65 0.930 . S
H61 C68 0.930 . S
H62 C70 0.930 . S
H63 C64 1.016 . S
C64 H63 1.016 . S
C64 N71 1.286 . S
C65 H60 0.930 . S
C65 C66 1.397 . S
C65 C67 1.361 . S
C66 C65 1.397 . S
C66 C70 1.390 . S
C67 C65 1.361 . S
C67 C68 1.393 . S
C67 N71 1.413 . S
C68 H61 0.930 . S
C68 C67 1.393 . S
C68 C69 1.399 . S
C69 C68 1.399 . S
C69 C70 1.381 . S
C70 H62 0.930 . S
C70 C66 1.390 . S
C70 C69 1.381 . S
N71 C64 1.286 . S
N71 C67 1.413 . S
H72 C77 0.930 . S
H73 C80 0.930 . S
H74 C82 0.930 . S
H75 C76 1.016 . S
C76 H75 1.016 . S
C76 N83 1.286 . S
C77 H72 0.930 . S
C77 C78 1.397 . S
C77 C79 1.361 . S
C78 C77 1.397 . S
C78 C82 1.390 . S
C79 C77 1.361 . S
C79 C80 1.393 . S
C79 N83 1.413 . S
C80 H73 0.930 . S
C80 C79 1.393 . S
C80 C81 1.399 . S
C81 C80 1.399 . S
C81 C82 1.381 . S
C82 H74 0.930 . S
C82 C78 1.390 . S
C82 C81 1.381 . S
N83 C76 1.286 . S
N83 C79 1.413 . S
H84 C89 0.930 . S
H85 C92 0.930 . S
H86 C94 0.930 . S
H87 C88 1.016 . S
C88 H87 1.016 . S
C88 N95 1.286 . S
C89 H84 0.930 . S
C89 C90 1.397 . S
C89 C91 1.361 . S
C90 C89 1.397 . S
C90 C94 1.390 . S
C91 C89 1.361 . S
C91 C92 1.393 . S
C91 N95 1.413 . S
C92 H85 0.930 . S
C92 C91 1.393 . S
C92 C93 1.399 . S
C93 C92 1.399 . S
C93 C94 1.381 . S
C94 H86 0.930 . S
C94 C90 1.390 . S
C94 C93 1.381 . S
N95 C88 1.286 . S
N95 C91 1.413 . S
Zn96 O102 1.920 . S
Zn96 O108 1.898 . S
Zn96 O111 1.905 . S
Zn97 O105 1.905 . S
Zn97 O106 1.898 . S
Zn97 O114 1.920 1_455 S
Zn98 O101 2.080 . S
Zn98 O104 2.114 . S
Zn98 O107 2.120 . S
Zn98 O109 2.120 . S
Zn98 O110 2.114 . S
Zn98 O113 2.080 . S
C99 O104 1.166 . S
C99 O105 1.182 . S
C100 O106 1.167 . S
C100 O107 1.299 . S
O101 Zn98 2.080 . S
O101 C115 1.305 . S
O102 Zn96 1.920 . S
O102 C115 1.234 . S
C103 O108 1.167 . S
C103 O109 1.299 . S
O104 Zn98 2.114 . S
O104 C99 1.166 . S
O105 Zn97 1.905 . S
O105 C99 1.182 . S
O106 Zn97 1.898 . S
O106 C100 1.167 . S
O107 Zn98 2.120 . S
O107 C100 1.299 . S
O108 Zn96 1.898 . S
O108 C103 1.167 . S
O109 Zn98 2.120 . S
O109 C103 1.299 . S
O110 Zn98 2.114 . S
O110 C112 1.166 . S
O111 Zn96 1.905 . S
O111 C112 1.182 . S
C112 O110 1.166 . S
C112 O111 1.182 . S
O113 Zn98 2.080 . S
O113 C116 1.305 1_455 S
O114 Zn97 1.920 1_655 S
O114 C116 1.234 . S
C115 O101 1.305 . S
C115 O102 1.234 . S
C116 O113 1.305 1_655 S
C116 O114 1.234 . S
Zn117 O123 1.920 . S
Zn117 O129 1.898 . S
Zn117 O132 1.905 . S
Zn118 O126 1.905 . S
Zn118 O127 1.898 . S
Zn118 O135 1.920 . S
Zn119 O122 2.080 . S
Zn119 O125 2.114 . S
Zn119 O128 2.120 . S
Zn119 O130 2.120 . S
Zn119 O131 2.114 . S
Zn119 O134 2.080 . S
C120 O125 1.166 . S
C120 O126 1.182 . S
C121 O127 1.167 . S
C121 O128 1.299 . S
O122 Zn119 2.080 . S
O122 C136 1.305 . S
O123 Zn117 1.920 . S
O123 C136 1.234 . S
C124 O129 1.167 . S
C124 O130 1.299 . S
O125 Zn119 2.114 . S
O125 C120 1.166 . S
O126 Zn118 1.905 . S
O126 C120 1.182 . S
O127 Zn118 1.898 . S
O127 C121 1.167 . S
O128 Zn119 2.120 . S
O128 C121 1.299 . S
O129 Zn117 1.898 . S
O129 C124 1.167 . S
O130 Zn119 2.120 . S
O130 C124 1.299 . S
O131 Zn119 2.114 . S
O131 C133 1.166 . S
O132 Zn117 1.905 . S
O132 C133 1.182 . S
C133 O131 1.166 . S
C133 O132 1.182 . S
O134 Zn119 2.080 . S
O134 C137 1.305 . S
O135 Zn118 1.920 . S
O135 C137 1.234 . S
C136 O122 1.305 . S
C136 O123 1.234 . S
C137 O134 1.305 . S
C137 O135 1.234 . S
Zn138 O144 1.920 . S
Zn138 O150 1.898 . S
Zn138 O153 1.905 . S
Zn139 O147 1.905 . S
Zn139 O148 1.898 . S
Zn139 O156 1.920 . S
Zn140 O143 2.080 . S
Zn140 O146 2.114 . S
Zn140 O149 2.120 . S
Zn140 O151 2.120 . S
Zn140 O152 2.114 . S
Zn140 O155 2.080 . S
C141 O146 1.166 . S
C141 O147 1.182 . S
C142 O148 1.167 . S
C142 O149 1.299 . S
O143 Zn140 2.080 . S
O143 C157 1.305 . S
O144 Zn138 1.920 . S
O144 C157 1.234 . S
C145 O150 1.167 . S
C145 O151 1.299 . S
O146 Zn140 2.114 . S
O146 C141 1.166 . S
O147 Zn139 1.905 . S
O147 C141 1.182 . S
O148 Zn139 1.898 . S
O148 C142 1.167 . S
O149 Zn140 2.120 . S
O149 C142 1.299 . S
O150 Zn138 1.898 . S
O150 C145 1.167 . S
O151 Zn140 2.120 . S
O151 C145 1.299 . S
O152 Zn140 2.114 . S
O152 C154 1.166 . S
O153 Zn138 1.905 . S
O153 C154 1.182 . S
C154 O152 1.166 . S
C154 O153 1.182 . S
O155 Zn140 2.080 . S
O155 C158 1.305 . S
O156 Zn139 1.920 . S
O156 C158 1.234 . S
C157 O143 1.305 . S
C157 O144 1.234 . S
C158 O155 1.305 . S
C158 O156 1.234 . S
Zn159 O165 1.920 . S
Zn159 O171 1.898 . S
Zn159 O174 1.905 1_455 S
Zn160 O168 1.905 . S
Zn160 O169 1.898 . S
Zn160 O177 1.920 . S
Zn161 O164 2.080 . S
Zn161 O167 2.114 . S
Zn161 O170 2.120 . S
Zn161 O172 2.120 . S
Zn161 O173 2.114 . S
Zn161 O176 2.080 . S
C162 O167 1.166 . S
C162 O168 1.182 . S
C163 O169 1.167 . S
C163 O170 1.299 . S
O164 Zn161 2.080 . S
O164 C178 1.305 . S
O165 Zn159 1.920 . S
O165 C178 1.234 . S
C166 O171 1.167 . S
C166 O172 1.299 . S
O167 Zn161 2.114 . S
O167 C162 1.166 . S
O168 Zn160 1.905 . S
O168 C162 1.182 . S
O169 Zn160 1.898 . S
O169 C163 1.167 . S
O170 Zn161 2.120 . S
O170 C163 1.299 . S
O171 Zn159 1.898 . S
O171 C166 1.167 . S
O172 Zn161 2.120 . S
O172 C166 1.299 . S
O173 Zn161 2.114 . S
O173 C175 1.166 1_455 S
O174 Zn159 1.905 1_655 S
O174 C175 1.182 . S
C175 O173 1.166 1_655 S
C175 O174 1.182 . S
O176 Zn161 2.080 . S
O176 C179 1.305 . S
O177 Zn160 1.920 . S
O177 C179 1.234 . S
C178 O164 1.305 . S
C178 O165 1.234 . S
C179 O176 1.305 . S
C179 O177 1.234 . S
C180 C181 1.369 . S
C180 C182 1.419 . S
C180 H184 0.930 . S
C181 C180 1.369 . S
C181 C190 1.429 . S
C182 C180 1.419 . S
C182 C183 1.363 . S
C182 H185 0.929 . S
C183 C182 1.363 . S
C183 C189 1.428 . S
H184 C180 0.930 . S
H185 C182 0.929 . S
S186 N187 1.613 . S
S186 N188 1.610 . S
N187 S186 1.613 . S
N187 C190 1.350 . S
N188 S186 1.610 . S
N188 C189 1.351 . S
C189 C183 1.428 . S
C189 N188 1.351 . S
C189 C190 1.434 . S
C190 C181 1.429 . S
C190 N187 1.350 . S
C190 C189 1.434 . S
C191 C192 1.369 . S
C191 C193 1.419 . S
C191 H195 0.930 . S
C192 C191 1.369 . S
C192 C201 1.429 . S
C193 C191 1.419 . S
C193 C194 1.363 . S
C193 H196 0.929 . S
C194 C193 1.363 . S
C194 C200 1.428 . S
H195 C191 0.930 . S
H196 C193 0.929 . S
S197 N198 1.613 . S
S197 N199 1.610 . S
N198 S197 1.613 . S
N198 C201 1.350 . S
N199 S197 1.610 . S
N199 C200 1.351 . S
C200 C194 1.428 . S
C200 N199 1.351 . S
C200 C201 1.434 . S
C201 C192 1.429 . S
C201 N198 1.350 . S
C201 C200 1.434 . S
C202 C203 1.369 . S
C202 C204 1.419 . S
C202 H206 0.930 . S
C203 C202 1.369 . S
C203 C212 1.429 . S
C204 C202 1.419 . S
C204 C205 1.363 . S
C204 H207 0.929 . S
C205 C204 1.363 . S
C205 C211 1.428 . S
H206 C202 0.930 . S
H207 C204 0.929 . S
S208 N209 1.613 . S
S208 N210 1.610 . S
N209 S208 1.613 . S
N209 C212 1.350 . S
N210 S208 1.610 . S
N210 C211 1.351 . S
C211 C205 1.428 . S
C211 N210 1.351 . S
C211 C212 1.434 . S
C212 C203 1.429 . S
C212 N209 1.350 . S
C212 C211 1.434 . S
C213 C214 1.369 . S
C213 C215 1.419 . S
C213 H217 0.930 . S
C214 C213 1.369 . S
C214 C223 1.429 . S
C215 C213 1.419 . S
C215 C216 1.363 . S
C215 H218 0.929 . S
C216 C215 1.363 . S
C216 C222 1.428 . S
H217 C213 0.930 . S
H218 C215 0.929 . S
S219 N220 1.613 . S
S219 N221 1.610 . S
N220 S219 1.613 . S
N220 C223 1.350 . S
N221 S219 1.610 . S
N221 C222 1.351 . S
C222 C216 1.428 . S
C222 N221 1.351 . S
C222 C223 1.434 . S
C223 C214 1.429 . S
C223 N220 1.350 . S
C223 C222 1.434 . S
C224 C225 1.369 . S
C224 C226 1.419 . S
C224 H228 0.930 . S
C225 C224 1.369 . S
C225 C234 1.429 . S
C226 C224 1.419 . S
C226 C227 1.363 . S
C226 H229 0.929 . S
C227 C226 1.363 . S
C227 C233 1.428 . S
H228 C224 0.930 . S
H229 C226 0.929 . S
S230 N231 1.613 . S
S230 N232 1.610 . S
N231 S230 1.613 . S
N231 C234 1.350 . S
N232 S230 1.610 . S
N232 C233 1.351 . S
C233 C227 1.428 . S
C233 N232 1.351 . S
C233 C234 1.434 . S
C234 C225 1.429 . S
C234 N231 1.350 . S
C234 C233 1.434 . S
C235 C236 1.369 . S
C235 C237 1.419 . S
C235 H239 0.930 . S
C236 C235 1.369 . S
C236 C245 1.429 . S
C237 C235 1.419 . S
C237 C238 1.363 . S
C237 H240 0.929 . S
C238 C237 1.363 . S
C238 C244 1.428 . S
H239 C235 0.930 . S
H240 C237 0.929 . S
S241 N242 1.613 . S
S241 N243 1.610 . S
N242 S241 1.613 . S
N242 C245 1.350 . S
N243 S241 1.610 . S
N243 C244 1.351 . S
C244 C238 1.428 . S
C244 N243 1.351 . S
C244 C245 1.434 . S
C245 C236 1.429 . S
C245 N242 1.350 . S
C245 C244 1.434 . S
C246 C247 1.369 . S
C246 C248 1.419 . S
C246 H250 0.930 . S
C247 C246 1.369 . S
C247 C256 1.429 . S
C248 C246 1.419 . S
C248 C249 1.363 . S
C248 H251 0.929 . S
C249 C248 1.363 . S
C249 C255 1.428 . S
H250 C246 0.930 . S
H251 C248 0.929 . S
S252 N253 1.613 . S
S252 N254 1.610 . S
N253 S252 1.613 . S
N253 C256 1.350 . S
N254 S252 1.610 . S
N254 C255 1.351 . S
C255 C249 1.428 . S
C255 N254 1.351 . S
C255 C256 1.434 . S
C256 C247 1.429 . S
C256 N253 1.350 . S
C256 C255 1.434 . S
C257 C258 1.369 . S
C257 C259 1.419 . S
C257 H261 0.930 . S
C258 C257 1.369 . S
C258 C267 1.429 . S
C259 C257 1.419 . S
C259 C260 1.363 . S
C259 H262 0.929 . S
C260 C259 1.363 . S
C260 C266 1.428 . S
H261 C257 0.930 . S
H262 C259 0.929 . S
S263 N264 1.613 . S
S263 N265 1.610 . S
N264 S263 1.613 . S
N264 C267 1.350 . S
N265 S263 1.610 . S
N265 C266 1.351 . S
C266 C260 1.428 . S
C266 N265 1.351 . S
C266 C267 1.434 . S
C267 C258 1.429 . S
C267 N264 1.350 . S
C267 C266 1.434 . S
C268 C269 1.369 . S
C268 C270 1.419 . S
C268 H272 0.930 . S
C269 C268 1.369 . S
C269 C278 1.429 . S
C270 C268 1.419 . S
C270 C271 1.363 . S
C270 H273 0.929 . S
C271 C270 1.363 . S
C271 C277 1.428 . S
H272 C268 0.930 . S
H273 C270 0.929 . S
S274 N275 1.613 . S
S274 N276 1.610 . S
N275 S274 1.613 . S
N275 C278 1.350 . S
N276 S274 1.610 . S
N276 C277 1.351 . S
C277 C271 1.428 . S
C277 N276 1.351 . S
C277 C278 1.434 . S
C278 C269 1.429 . S
C278 N275 1.350 . S
C278 C277 1.434 . S
C279 C280 1.369 . S
C279 C281 1.419 . S
C279 H283 0.930 . S
C280 C279 1.369 . S
C280 C289 1.429 . S
C281 C279 1.419 . S
C281 C282 1.363 . S
C281 H284 0.929 . S
C282 C281 1.363 . S
C282 C288 1.428 . S
H283 C279 0.930 . S
H284 C281 0.929 . S
S285 N286 1.613 . S
S285 N287 1.610 . S
N286 S285 1.613 . S
N286 C289 1.350 . S
N287 S285 1.610 . S
N287 C288 1.351 . S
C288 C282 1.428 . S
C288 N287 1.351 . S
C288 C289 1.434 . S
C289 C280 1.429 . S
C289 N286 1.350 . S
C289 C288 1.434 . S
C290 C291 1.369 . S
C290 C292 1.419 . S
C290 H294 0.930 . S
C291 C290 1.369 . S
C291 C300 1.429 . S
C292 C290 1.419 . S
C292 C293 1.363 . S
C292 H295 0.929 . S
C293 C292 1.363 . S
C293 C299 1.428 . S
H294 C290 0.930 . S
H295 C292 0.929 . S
S296 N297 1.613 . S
S296 N298 1.610 . S
N297 S296 1.613 . S
N297 C300 1.350 . S
N298 S296 1.610 . S
N298 C299 1.351 . S
C299 C293 1.428 . S
C299 N298 1.351 . S
C299 C300 1.434 . S
C300 C291 1.429 . S
C300 N297 1.350 . S
C300 C299 1.434 . S
C301 C302 1.369 . S
C301 C303 1.419 . S
C301 H305 0.930 . S
C302 C301 1.369 . S
C302 C311 1.429 . S
C303 C301 1.419 . S
C303 C304 1.363 . S
C303 H306 0.929 . S
C304 C303 1.363 . S
C304 C310 1.428 . S
H305 C301 0.930 . S
H306 C303 0.929 . S
S307 N308 1.613 . S
S307 N309 1.610 . S
N308 S307 1.613 . S
N308 C311 1.350 . S
N309 S307 1.610 . S
N309 C310 1.351 . S
C310 C304 1.428 . S
C310 N309 1.351 . S
C310 C311 1.434 . S
C311 C302 1.429 . S
C311 N308 1.350 . S
C311 C310 1.434 . S
C312 C313 1.369 . S
C312 C314 1.419 . S
C312 H316 0.930 . S
C313 C312 1.369 . S
C313 C322 1.429 . S
C314 C312 1.419 . S
C314 C315 1.363 1_565 S
C314 H317 0.929 1_565 S
C315 C314 1.363 1_545 S
C315 C321 1.428 1_545 S
H316 C312 0.930 . S
H317 C314 0.929 1_545 S
S318 N319 1.613 . S
S318 N320 1.610 . S
N319 S318 1.613 . S
N319 C322 1.350 . S
N320 S318 1.610 . S
N320 C321 1.351 . S
C321 C315 1.428 1_565 S
C321 N320 1.351 . S
C321 C322 1.434 . S
C322 C313 1.429 . S
C322 N319 1.350 . S
C322 C321 1.434 . S
C323 C324 1.369 . S
C323 C325 1.419 1_545 S
C323 H327 0.930 . S
C324 C323 1.369 . S
C324 C333 1.429 . S
C325 C323 1.419 1_565 S
C325 C326 1.363 . S
C325 H328 0.929 . S
C326 C325 1.363 . S
C326 C332 1.428 . S
H327 C323 0.930 . S
H328 C325 0.929 . S
S329 N330 1.613 1_565 S
S329 N331 1.610 . S
N330 S329 1.613 1_545 S
N330 C333 1.350 . S
N331 S329 1.610 . S
N331 C332 1.351 . S
C332 C326 1.428 . S
C332 N331 1.351 . S
C332 C333 1.434 1_565 S
C333 C324 1.429 . S
C333 N330 1.350 . S
C333 C332 1.434 1_545 S
C334 C335 1.369 . S
C334 C336 1.419 . S
C334 H338 0.930 . S
C335 C334 1.369 . S
C335 C344 1.429 . S
C336 C334 1.419 . S
C336 C337 1.363 1_545 S
C336 H339 0.928 1_545 S
C337 C336 1.363 1_565 S
C337 C343 1.428 . S
H338 C334 0.930 . S
H339 C336 0.928 1_565 S
S340 N341 1.613 1_565 S
S340 N342 1.610 . S
N341 S340 1.613 1_545 S
N341 C344 1.350 . S
N342 S340 1.610 . S
N342 C343 1.351 . S
C343 C337 1.428 . S
C343 N342 1.351 . S
C343 C344 1.434 1_565 S
C344 C335 1.429 . S
C344 N341 1.350 . S
C344 C343 1.434 1_545 S
C345 C346 1.369 . S
C345 C347 1.419 1_565 S
C345 H349 0.930 . S
C346 C345 1.369 . S
C346 C355 1.429 . S
C347 C345 1.419 1_545 S
C347 C348 1.363 . S
C347 H350 0.929 . S
C348 C347 1.363 . S
C348 C354 1.428 . S
H349 C345 0.930 . S
H350 C347 0.929 . S
S351 N352 1.613 1_545 S
S351 N353 1.610 . S
N352 S351 1.613 1_565 S
N352 C355 1.350 1_655 S
N353 S351 1.610 . S
N353 C354 1.351 1_655 S
C354 C348 1.428 . S
C354 N353 1.351 1_455 S
C354 C355 1.434 1_545 S
C355 C346 1.429 . S
C355 N352 1.350 1_455 S
C355 C354 1.434 1_565 S
C356 C357 1.379 . S
C356 C358 1.393 1_554 S
C356 H360 0.947 . S
C357 C356 1.379 . S
C357 C366 1.429 1_554 S
C358 C356 1.393 1_556 S
C358 C359 1.363 . S
C358 H361 0.929 . S
C359 C358 1.363 . S
C359 C365 1.428 . S
H360 C356 0.947 . S
H361 C358 0.929 . S
S362 N363 1.613 1_556 S
S362 N364 1.610 . S
N363 S362 1.613 1_554 S
N363 C366 1.350 1_554 S
N364 S362 1.610 . S
N364 C365 1.351 . S
C365 C359 1.428 . S
C365 N364 1.351 . S
C365 C366 1.434 . S
C366 C357 1.429 1_556 S
C366 N363 1.350 1_556 S
C366 C365 1.434 . S
C367 C368 1.369 . S
C367 C369 1.419 . S
C367 H371 0.930 . S
C368 C367 1.369 . S
C368 C377 1.429 . S
C369 C367 1.419 . S
C369 C370 1.363 . S
C369 H372 0.929 . S
C370 C369 1.363 . S
C370 C376 1.428 . S
H371 C367 0.930 . S
H372 C369 0.929 . S
S373 N374 1.613 . S
S373 N375 1.610 . S
N374 S373 1.613 . S
N374 C377 1.350 . S
N375 S373 1.610 . S
N375 C376 1.351 . S
C376 C370 1.428 . S
C376 N375 1.351 . S
C376 C377 1.434 . S
C377 C368 1.429 . S
C377 N374 1.350 . S
C377 C376 1.434 . S
C378 C379 1.369 . S
C378 C380 1.419 . S
C378 H382 0.930 . S
C379 C378 1.369 . S
C379 C388 1.429 . S
C380 C378 1.419 . S
C380 C381 1.363 . S
C380 H383 0.929 . S
C381 C380 1.363 . S
C381 C387 1.428 . S
H382 C378 0.930 . S
H383 C380 0.929 . S
S384 N385 1.613 . S
S384 N386 1.610 . S
N385 S384 1.613 . S
N385 C388 1.350 . S
N386 S384 1.610 . S
N386 C387 1.351 . S
C387 C381 1.428 . S
C387 N386 1.351 . S
C387 C388 1.434 . S
C388 C379 1.429 . S
C388 N385 1.350 . S
C388 C387 1.434 . S
C389 C390 1.369 . S
C389 C391 1.419 . S
C389 H393 0.930 . S
C390 C389 1.369 . S
C390 C399 1.429 . S
C391 C389 1.419 . S
C391 C392 1.363 . S
C391 H394 0.929 . S
C392 C391 1.363 . S
C392 C398 1.428 . S
H393 C389 0.930 . S
H394 C391 0.929 . S
S395 N396 1.613 . S
S395 N397 1.610 . S
N396 S395 1.613 . S
N396 C399 1.350 . S
N397 S395 1.610 . S
N397 C398 1.351 . S
C398 C392 1.428 . S
C398 N397 1.351 . S
C398 C399 1.434 . S
C399 C390 1.429 . S
C399 N396 1.350 . S
C399 C398 1.434 . S
C400 C401 1.369 . S
C400 C402 1.419 1_556 S
C400 H404 0.930 . S
C401 C400 1.369 . S
C401 C410 1.441 . S
C402 C400 1.419 1_554 S
C402 C403 1.363 . S
C402 H405 0.929 . S
C403 C402 1.363 . S
C403 C409 1.428 . S
H404 C400 0.930 . S
H405 C402 0.929 . S
S406 N407 1.613 1_554 S
S406 N408 1.610 . S
N407 S406 1.613 1_556 S
N407 C410 1.334 1_655 S
N408 S406 1.610 . S
N408 C409 1.351 1_655 S
C409 C403 1.428 . S
C409 N408 1.351 1_455 S
C409 C410 1.437 1_554 S
C410 C401 1.441 . S
C410 N407 1.334 1_455 S
C410 C409 1.437 1_556 S
C411 C412 1.369 . S
C411 C413 1.419 . S
C411 H415 0.930 . S
C412 C411 1.369 . S
C412 C421 1.429 . S
C413 C411 1.419 . S
C413 C414 1.363 . S
C413 H416 0.929 . S
C414 C413 1.363 . S
C414 C420 1.428 . S
H415 C411 0.930 . S
H416 C413 0.929 . S
S417 N418 1.613 . S
S417 N419 1.610 . S
N418 S417 1.613 . S
N418 C421 1.350 . S
N419 S417 1.610 . S
N419 C420 1.351 . S
C420 C414 1.428 . S
C420 N419 1.351 . S
C420 C421 1.434 . S
C421 C412 1.429 . S
C421 N418 1.350 . S
C421 C420 1.434 . S
C422 C423 1.369 . S
C422 C424 1.419 . S
C422 H426 0.930 . S
C423 C422 1.369 . S
C423 C432 1.429 . S
C424 C422 1.419 . S
C424 C425 1.363 . S
C424 H427 0.929 . S
C425 C424 1.363 . S
C425 C431 1.428 . S
H426 C422 0.930 . S
H427 C424 0.929 . S
S428 N429 1.613 . S
S428 N430 1.610 . S
N429 S428 1.613 . S
N429 C432 1.350 . S
N430 S428 1.610 . S
N430 C431 1.351 . S
C431 C425 1.428 . S
C431 N430 1.351 . S
C431 C432 1.434 . S
C432 C423 1.429 . S
C432 N429 1.350 . S
C432 C431 1.434 . S
C433 C434 1.369 . S
C433 C435 1.419 . S
C433 H437 0.930 . S
C434 C433 1.369 . S
C434 C443 1.429 . S
C435 C433 1.419 . S
C435 C436 1.363 . S
C435 H438 0.929 . S
C436 C435 1.363 . S
C436 C442 1.428 . S
H437 C433 0.930 . S
H438 C435 0.929 . S
S439 N440 1.613 . S
S439 N441 1.610 1_655 S
N440 S439 1.613 . S
N440 C443 1.350 1_655 S
N441 S439 1.610 1_455 S
N441 C442 1.351 . S
C442 C436 1.428 . S
C442 N441 1.351 . S
C442 C443 1.434 . S
C443 C434 1.429 . S
C443 N440 1.350 1_455 S
C443 C442 1.434 . S
C183 C103 1.413 . S
C181 C6 1.559 . S
C194 C121 1.563 . S
C192 C18 1.653 1_655 S
C203 C28 1.429 . S
C205 C145 1.350 . S
C216 C175 1.203 . S
C214 C40 1.279 . S
C227 C163 1.304 . S
C225 C54 1.382 . S
C236 C64 1.265 . S
C238 C116 1.209 . S
C247 C76 1.582 . S
C249 C136 1.477 . S
C258 C90 1.672 1_655 S
C260 C141 1.485 . S
C269 C88 1.258 . S
C271 C157 1.208 . S
C280 C66 1.678 . S
C282 C112 1.480 . S
C293 C179 1.578 . S
C291 C42 1.665 . S
C304 C124 1.192 . S
C302 C16 1.270 . S
C313 C30 1.553 . S
C315 C142 1.410 . S
C324 C4 1.432 . S
C326 C100 1.352 . S
C337 C120 1.312 . S
C335 C78 1.384 . S
C348 C166 1.462 . S
C346 C52 1.582 . S
C359 C162 1.355 . S
C357 C9 1.505 . S
C370 C115 1.530 . S
C368 C21 1.599 . S
C379 C33 1.489 . S
C381 C137 1.344 . S
C390 C45 1.614 . S
C392 C158 1.545 . S
C403 C99 1.318 . S
C401 C57 1.562 . S
C412 C69 1.548 . S
C414 C133 1.403 . S
C425 C154 1.339 . S
C423 C81 1.575 . S
C436 C178 1.379 . S
C434 C93 1.527 . S
