# Generated by pormake.
# Topology ant, (3,6)-cn, num edge types: 1
# Building blocks:
#     Node 0, Type 0, BuildingBlock: PAMTOO_clean_linker_0, # of connection points: 3
#     Node 1, Type 0, BuildingBlock: PAMTOO_clean_linker_0, # of connection points: 3
#     Node 2, Type 0, BuildingBlock: PAMTOO_clean_linker_0, # of connection points: 3
#     Node 3, Type 0, BuildingBlock: PAMTOO_clean_linker_0, # of connection points: 3
#     Node 4, Type 0, BuildingBlock: PAMTOO_clean_linker_0, # of connection points: 3
#     Node 5, Type 0, BuildingBlock: PAMTOO_clean_linker_0, # of connection points: 3
#     Node 6, Type 0, BuildingBlock: PAMTOO_clean_linker_0, # of connection points: 3
#     Node 7, Type 0, BuildingBlock: PAMTOO_clean_linker_0, # of connection points: 3
#     Node 8, Type 1, BuildingBlock: MIDCAF_clean_sbu_0, # of connection points: 6
#     Node 9, Type 1, BuildingBlock: MIDCAF_clean_sbu_0, # of connection points: 6
#     Node 10, Type 1, BuildingBlock: MIDCAF_clean_sbu_0, # of connection points: 6
#     Node 11, Type 1, BuildingBlock: MIDCAF_clean_sbu_0, # of connection points: 6
#     Edge 12, Type (0, 1), BuildingBlock: UVAHIK_clean_linker_0, # of connection points: 2
#     Edge 13, Type (0, 1), BuildingBlock: UVAHIK_clean_linker_0, # of connection points: 2
#     Edge 14, Type (0, 1), BuildingBlock: UVAHIK_clean_linker_0, # of connection points: 2
#     Edge 15, Type (0, 1), BuildingBlock: UVAHIK_clean_linker_0, # of connection points: 2
#     Edge 16, Type (0, 1), BuildingBlock: UVAHIK_clean_linker_0, # of connection points: 2
#     Edge 17, Type (0, 1), BuildingBlock: UVAHIK_clean_linker_0, # of connection points: 2
#     Edge 18, Type (0, 1), BuildingBlock: UVAHIK_clean_linker_0, # of connection points: 2
#     Edge 19, Type (0, 1), BuildingBlock: UVAHIK_clean_linker_0, # of connection points: 2
#     Edge 20, Type (0, 1), BuildingBlock: UVAHIK_clean_linker_0, # of connection points: 2
#     Edge 21, Type (0, 1), BuildingBlock: UVAHIK_clean_linker_0, # of connection points: 2
#     Edge 22, Type (0, 1), BuildingBlock: UVAHIK_clean_linker_0, # of connection points: 2
#     Edge 23, Type (0, 1), BuildingBlock: UVAHIK_clean_linker_0, # of connection points: 2
#     Edge 24, Type (0, 1), BuildingBlock: UVAHIK_clean_linker_0, # of connection points: 2
#     Edge 25, Type (0, 1), BuildingBlock: UVAHIK_clean_linker_0, # of connection points: 2
#     Edge 26, Type (0, 1), BuildingBlock: UVAHIK_clean_linker_0, # of connection points: 2
#     Edge 27, Type (0, 1), BuildingBlock: UVAHIK_clean_linker_0, # of connection points: 2
#     Edge 28, Type (0, 1), BuildingBlock: UVAHIK_clean_linker_0, # of connection points: 2
#     Edge 29, Type (0, 1), BuildingBlock: UVAHIK_clean_linker_0, # of connection points: 2
#     Edge 30, Type (0, 1), BuildingBlock: UVAHIK_clean_linker_0, # of connection points: 2
#     Edge 31, Type (0, 1), BuildingBlock: UVAHIK_clean_linker_0, # of connection points: 2
#     Edge 32, Type (0, 1), BuildingBlock: UVAHIK_clean_linker_0, # of connection points: 2
#     Edge 33, Type (0, 1), BuildingBlock: UVAHIK_clean_linker_0, # of connection points: 2
#     Edge 34, Type (0, 1), BuildingBlock: UVAHIK_clean_linker_0, # of connection points: 2
#     Edge 35, Type (0, 1), BuildingBlock: UVAHIK_clean_linker_0, # of connection points: 2
# Relax obj value: 0.057
# Max RMSD: 0.149
# Mean RMSD: 0.095
data_MOF--net-ant--node1-MIDCAF_clean_sbu_0--node2-PAMTOO_clean_linker_0--edge1-UVAHIK_clean_linker_0
_symmetry_space_group_name_H-M    P1
_symmetry_Int_Tables_number       1
_symmetry_cell_setting            triclinic
loop_
_symmetry_equiv_pos_as_xyz
'x, y, z'
_cell_length_a     37.252384
_cell_length_b     37.166538
_cell_length_c     90.889989
_cell_angle_alpha  86.108421
_cell_angle_beta   97.831563
_cell_angle_gamma 90.125543
loop_
_atom_site_label
_atom_site_type_symbol
_atom_site_fract_x
_atom_site_fract_y
_atom_site_fract_z
_atom_type_partial_charge
H0 H 0.21943 0.1827 0.06804 0.0
H1 H 0.18941 0.29518 0.06503 0.0
H2 H 0.2331 0.24278 0.10718 0.0
H3 H 0.17952 0.30324 0.10984 0.0
C4 C 0.18032 0.31651 0.09855 0.0
O5 O 0.21052 0.30456 0.09298 0.0
H6 H 0.15512 0.30902 0.09136 0.0
C7 C 0.21685 0.20782 0.0732 0.0
C8 C 0.22769 0.20885 0.08857 0.0
C9 C 0.20242 0.23846 0.06451 0.0
C10 C 0.20028 0.27102 0.0714 0.0
C11 C 0.21156 0.27264 0.0867 0.0
C12 C 0.22473 0.24144 0.09533 0.0
H13 H 0.15701 0.77915 0.31171 0.0
H14 H 0.04384 0.75655 0.31168 0.0
H15 H 0.11167 0.76853 0.35304 0.0
H16 H 0.05619 0.71305 0.35646 0.0
C17 C 0.03887 0.71992 0.34567 0.0
O18 O 0.04638 0.75455 0.34058 0.0
H19 H 0.04515 0.70007 0.33771 0.0
C20 C 0.13405 0.77535 0.31778 0.0
C21 C 0.13907 0.77488 0.33345 0.0
C22 C 0.09984 0.76894 0.30985 0.0
C23 C 0.07033 0.76194 0.31763 0.0
C24 C 0.07483 0.76184 0.33316 0.0
C25 C 0.10889 0.76862 0.34102 0.0
H26 H 0.64988 0.68227 0.54896 0.0
H27 H 0.62862 0.79598 0.54976 0.0
H28 H 0.70097 0.74161 0.58506 0.0
H29 H 0.66157 0.80636 0.59562 0.0
C30 C 0.6511 0.81723 0.58414 0.0
O31 O 0.67204 0.80401 0.57429 0.0
H32 H 0.62244 0.80838 0.58162 0.0
C33 C 0.65383 0.70739 0.55435 0.0
C34 C 0.67737 0.70798 0.5678 0.0
C35 C 0.63571 0.73879 0.54774 0.0
C36 C 0.64198 0.7713 0.55467 0.0
C37 C 0.66532 0.77223 0.5681 0.0
C38 C 0.68271 0.74056 0.57474 0.0
H39 H 0.65414 0.25685 0.79713 0.0
H40 H 0.5414 0.26169 0.80247 0.0
H41 H 0.62263 0.26205 0.84086 0.0
H42 H 0.5473 0.22494 0.84842 0.0
C43 C 0.53661 0.23089 0.83649 0.0
O44 O 0.55269 0.26213 0.83145 0.0
H45 H 0.54337 0.20749 0.83029 0.0
C46 C 0.63329 0.25798 0.80433 0.0
C47 C 0.64315 0.25956 0.81976 0.0
C48 C 0.59678 0.2589 0.798 0.0
C49 C 0.56974 0.26133 0.8072 0.0
C50 C 0.5791 0.26183 0.82264 0.0
C51 C 0.61572 0.26146 0.8289 0.0
H52 H 0.07265 0.81185 0.9411 0.0
H53 H 0.05817 0.70144 0.93035 0.0
H54 H 0.06218 0.78453 0.89537 0.0
H55 H 0.01271 0.72236 0.88435 0.0
C56 C 0.01953 0.706 0.89506 0.0
O57 O 0.05375 0.71519 0.90155 0.0
H58 H 0.99868 0.71219 0.90225 0.0
C59 C 0.06939 0.79195 0.93284 0.0
C60 C 0.06855 0.80296 0.9177 0.0
C61 C 0.06579 0.75552 0.93749 0.0
C62 C 0.06117 0.72965 0.92689 0.0
C63 C 0.05927 0.74026 0.91172 0.0
C64 C 0.06314 0.77678 0.90713 0.0
H65 H 0.60706 0.80759 0.20054 0.0
H66 H 0.72045 0.79855 0.19665 0.0
H67 H 0.64053 0.77752 0.15952 0.0
H68 H 0.7132 0.73043 0.16087 0.0
C69 C 0.72616 0.74548 0.17033 0.0
O70 O 0.71042 0.77943 0.16928 0.0
H71 H 0.72172 0.73007 0.18087 0.0
C72 C 0.62843 0.80255 0.19392 0.0
C73 C 0.6193 0.79267 0.17925 0.0
C74 C 0.66478 0.80486 0.2003 0.0
C75 C 0.69226 0.79734 0.19182 0.0
C76 C 0.68355 0.78753 0.17715 0.0
C77 C 0.64709 0.78553 0.17081 0.0
H78 H 0.62651 0.25558 0.43534 0.0
H79 H 0.65156 0.14476 0.4298 0.0
H80 H 0.65116 0.22375 0.39309 0.0
H81 H 0.63056 0.15523 0.38085 0.0
C82 C 0.63189 0.14066 0.39201 0.0
O83 O 0.65916 0.15555 0.40153 0.0
H84 H 0.60501 0.14372 0.3959 0.0
C85 C 0.63346 0.23491 0.42832 0.0
C86 C 0.6383 0.24428 0.41349 0.0
C87 C 0.63857 0.19919 0.43435 0.0
C88 C 0.64808 0.17251 0.42536 0.0
C89 C 0.65228 0.18152 0.41047 0.0
C90 C 0.64808 0.21733 0.40466 0.0
H91 H 0.10761 0.31975 0.6944 0.0
H92 H 0.22025 0.30224 0.69099 0.0
H93 H 0.14578 0.33002 0.6516 0.0
H94 H 0.21011 0.28196 0.64527 0.0
C95 C 0.22503 0.2845 0.65659 0.0
O96 O 0.21363 0.31546 0.66224 0.0
H97 H 0.21912 0.26024 0.66375 0.0
C98 C 0.12953 0.31943 0.68769 0.0
C99 C 0.12212 0.32632 0.67215 0.0
C100 C 0.16473 0.31035 0.69458 0.0
C101 C 0.19287 0.30883 0.68584 0.0
C102 C 0.18597 0.31595 0.67041 0.0
C103 C 0.1507 0.32447 0.66356 0.0
Zn104 Zn 0.21862 0.68609 0.15218 0.0
Zn105 Zn 0.11106 0.81405 0.11651 0.0
Zn106 Zn 0.15831 0.76696 0.12666 0.0
C107 C 0.11417 0.76466 0.09426 0.0
C108 C 0.1761 0.85136 0.12283 0.0
O109 O 0.14988 0.74188 0.14979 0.0
O110 O 0.17897 0.69622 0.16478 0.0
C111 C 0.1799 0.69839 0.11993 0.0
O112 O 0.13743 0.74899 0.10443 0.0
O113 O 0.09923 0.79384 0.09663 0.0
O114 O 0.1426 0.85678 0.11898 0.0
O115 O 0.18857 0.81893 0.12555 0.0
O116 O 0.19448 0.70775 0.13244 0.0
O117 O 0.16059 0.72268 0.11202 0.0
O118 O 0.21247 0.78986 0.13033 0.0
O119 O 0.21838 0.73656 0.14123 0.0
C120 C 0.23344 0.76593 0.13768 0.0
O121 O 0.11693 0.7639 0.14167 0.0
O122 O 0.07713 0.80508 0.13119 0.0
C123 C 0.15437 0.72082 0.16201 0.0
C124 C 0.08675 0.78083 0.14134 0.0
Zn125 Zn 0.55337 0.68217 0.34713 0.0
Zn126 Zn 0.62324 0.68364 0.39329 0.0
Zn127 Zn 0.58712 0.69701 0.37112 0.0
C128 C 0.63095 0.75741 0.38443 0.0
C129 C 0.66806 0.68493 0.37225 0.0
O130 O 0.59416 0.64071 0.37246 0.0
O131 O 0.56171 0.62789 0.35149 0.0
C132 C 0.50761 0.7214 0.36396 0.0
O133 O 0.62453 0.7425 0.37192 0.0
O134 O 0.62871 0.73813 0.39632 0.0
O135 O 0.66255 0.66201 0.3827 0.0
O136 O 0.64318 0.7085 0.36742 0.0
O137 O 0.50822 0.70694 0.35176 0.0
O138 O 0.53573 0.72026 0.37377 0.0
O139 O 0.61533 0.73166 0.35587 0.0
O140 O 0.58578 0.7122 0.3351 0.0
C141 C 0.6093 0.73259 0.34154 0.0
O142 O 0.55795 0.70891 0.38931 0.0
O143 O 0.58089 0.65984 0.40191 0.0
C144 C 0.58138 0.61754 0.36353 0.0
C145 C 0.55805 0.68556 0.4004 0.0
Zn146 Zn 0.62594 0.3116 0.59915 0.0
Zn147 Zn 0.7113 0.22319 0.63676 0.0
Zn148 Zn 0.66798 0.26774 0.61794 0.0
C149 C 0.75267 0.28301 0.62971 0.0
C150 C 0.68852 0.18496 0.61197 0.0
O151 O 0.61769 0.27864 0.62784 0.0
O152 O 0.58693 0.31772 0.61143 0.0
C153 C 0.69077 0.34764 0.60558 0.0
O154 O 0.72189 0.29381 0.62255 0.0
O155 O 0.75575 0.25247 0.63674 0.0
O156 O 0.70741 0.18099 0.6246 0.0
O157 O 0.67257 0.21538 0.60759 0.0
O158 O 0.66066 0.35138 0.5974 0.0
O159 O 0.69828 0.31852 0.61397 0.0
O160 O 0.65389 0.24024 0.59699 0.0
O161 O 0.61679 0.27886 0.58283 0.0
C162 C 0.63334 0.24896 0.58467 0.0
O163 O 0.64297 0.25985 0.63858 0.0
O164 O 0.68199 0.22446 0.65346 0.0
C165 C 0.5895 0.29878 0.62359 0.0
C166 C 0.65289 0.24262 0.65127 0.0
Zn167 Zn 0.04433 0.18047 0.85051 0.0
Zn168 Zn 0.15168 0.30118 0.88444 0.0
Zn169 Zn 0.10308 0.25686 0.87451 0.0
C170 C 0.14426 0.24818 0.90768 0.0
C171 C 0.08601 0.34024 0.87668 0.0
O172 O 0.11388 0.23465 0.85244 0.0
O173 O 0.08574 0.19137 0.83846 0.0
C174 C 0.08086 0.1871 0.88272 0.0
O175 O 0.12109 0.23561 0.89752 0.0
O176 O 0.16172 0.27647 0.90488 0.0
O177 O 0.11944 0.34435 0.88085 0.0
O178 O 0.07326 0.30871 0.87415 0.0
O179 O 0.06685 0.19897 0.86989 0.0
O180 O 0.0996 0.2099 0.89026 0.0
O181 O 0.04914 0.28128 0.86922 0.0
O182 O 0.0451 0.22935 0.86007 0.0
C183 C 0.0292 0.25826 0.86226 0.0
O184 O 0.14561 0.25619 0.86015 0.0
O185 O 0.18585 0.29452 0.87002 0.0
C186 C 0.11046 0.21517 0.8409 0.0
C187 C 0.17609 0.27251 0.86031 0.0
C188 C 0.15974 0.37998 0.08922 0.0
C189 C 0.18191 0.3569 0.09949 0.0
C190 C 0.16038 0.41735 0.09049 0.0
C191 C 0.18598 0.485 0.11819 0.0
H192 H 0.17643 0.55323 0.08362 0.0
C193 C 0.20699 0.63655 0.12427 0.0
C194 C 0.18192 0.66057 0.11582 0.0
C195 C 0.20752 0.60014 0.1214 0.0
C196 C 0.17878 0.5345 0.09338 0.0
H197 H 0.22333 0.35468 0.11867 0.0
H198 H 0.22503 0.41992 0.12083 0.0
H199 H 0.17707 0.48849 0.08029 0.0
H200 H 0.13854 0.66537 0.0973 0.0
H201 H 0.13947 0.60142 0.09221 0.0
H202 H 0.18781 0.53082 0.13127 0.0
C203 C 0.20637 0.40926 0.11201 0.0
C204 C 0.17913 0.49736 0.09148 0.0
C205 C 0.20562 0.37193 0.11075 0.0
C206 C 0.1582 0.64754 0.10401 0.0
C207 C 0.15878 0.61093 0.10109 0.0
C208 C 0.18575 0.522 0.12008 0.0
C209 C 0.18342 0.43248 0.10202 0.0
C210 C 0.18293 0.47211 0.10388 0.0
C211 C 0.18303 0.58667 0.10996 0.0
C212 C 0.18237 0.54727 0.10772 0.0
H213 H 0.14144 0.36906 0.08035 0.0
H214 H 0.14215 0.43426 0.08266 0.0
H215 H 0.18807 0.46647 0.12799 0.0
H216 H 0.22616 0.64575 0.13325 0.0
H217 H 0.22713 0.58246 0.12821 0.0
C218 C 0.98816 0.72534 0.36111 0.0
C219 C 0.99954 0.71746 0.3476 0.0
C220 C 0.95159 0.72287 0.36294 0.0
C221 C 0.85898 0.72027 0.34222 0.0
H222 H 0.83599 0.67476 0.37943 0.0
C223 C 0.71454 0.71866 0.35941 0.0
C224 C 0.70406 0.68723 0.36717 0.0
C225 C 0.74985 0.72213 0.35592 0.0
C226 C 0.8419 0.68722 0.36891 0.0
H227 H 0.98187 0.70285 0.32513 0.0
H228 H 0.91783 0.69786 0.32834 0.0
H229 H 0.89901 0.68195 0.37559 0.0
H230 H 0.72184 0.63423 0.37681 0.0
H231 H 0.78326 0.64008 0.37061 0.0
H232 H 0.80166 0.72491 0.33548 0.0
C233 C 0.93706 0.70591 0.33755 0.0
C234 C 0.87807 0.69181 0.3668 0.0
C235 C 0.97366 0.70842 0.33573 0.0
C236 C 0.72919 0.65889 0.37093 0.0
C237 C 0.76443 0.66233 0.36744 0.0
C238 C 0.82271 0.7157 0.34435 0.0
C239 C 0.92566 0.71272 0.35123 0.0
C240 C 0.88706 0.70837 0.35344 0.0
C241 C 0.7754 0.69426 0.36017 0.0
C242 C 0.81378 0.69901 0.35771 0.0
H243 H 0.00763 0.73315 0.37029 0.0
H244 H 0.94359 0.72902 0.37352 0.0
H245 H 0.86502 0.73341 0.33185 0.0
H246 H 0.69591 0.74117 0.35653 0.0
H247 H 0.7575 0.74718 0.35043 0.0
C248 C 0.69311 0.66092 0.58888 0.0
C249 C 0.69614 0.67422 0.57426 0.0
C250 C 0.70577 0.62619 0.59401 0.0
C251 C 0.72045 0.53974 0.57838 0.0
H252 H 0.75791 0.50754 0.61902 0.0
C253 C 0.73106 0.38979 0.59354 0.0
C254 C 0.71504 0.3788 0.60616 0.0
C255 C 0.74215 0.42548 0.59135 0.0
C256 C 0.7475 0.5161 0.60762 0.0
H257 H 0.7175 0.66321 0.55403 0.0
H258 H 0.74031 0.60317 0.56302 0.0
H259 H 0.75112 0.5722 0.61194 0.0
H260 H 0.70038 0.39515 0.62693 0.0
H261 H 0.71874 0.45773 0.62302 0.0
H262 H 0.71508 0.48429 0.57406 0.0
C263 C 0.72723 0.61889 0.57041 0.0
C264 C 0.74357 0.55316 0.60357 0.0
C265 C 0.71431 0.65332 0.56526 0.0
C266 C 0.71329 0.40301 0.61722 0.0
C267 C 0.72375 0.43894 0.61493 0.0
C268 C 0.72425 0.50295 0.58241 0.0
C269 C 0.72191 0.60431 0.58463 0.0
C270 C 0.72954 0.56537 0.58893 0.0
C271 C 0.73631 0.45109 0.60154 0.0
C272 C 0.73735 0.49048 0.59712 0.0
H273 H 0.67911 0.67652 0.59602 0.0
H274 H 0.70104 0.61578 0.60499 0.0
H275 H 0.70875 0.54799 0.56709 0.0
H276 H 0.73232 0.37157 0.5848 0.0
H277 H 0.75274 0.43358 0.58112 0.0
C278 C 0.69599 0.28485 0.83607 0.0
C279 C 0.68215 0.25948 0.82602 0.0
C280 C 0.73342 0.28728 0.84051 0.0
C281 C 0.82017 0.26458 0.82763 0.0
H282 H 0.8632 0.28097 0.86789 0.0
C283 C 0.97103 0.23934 0.84806 0.0
C284 C 0.98999 0.26382 0.85731 0.0
C285 C 0.93359 0.24244 0.84413 0.0
C286 C 0.85152 0.27692 0.85655 0.0
H287 H 0.69637 0.21523 0.81353 0.0
H288 H 0.7613 0.21901 0.8214 0.0
H289 H 0.7972 0.27798 0.86191 0.0
H290 H 0.98463 0.3111 0.86957 0.0
H291 H 0.9187 0.31648 0.86271 0.0
H292 H 0.87429 0.26288 0.8223 0.0
C293 C 0.74352 0.23782 0.82552 0.0
C294 C 0.81373 0.27514 0.85313 0.0
C295 C 0.70629 0.23552 0.82106 0.0
C296 C 0.97072 0.29191 0.86238 0.0
C297 C 0.93301 0.29483 0.85855 0.0
C298 C 0.85779 0.26624 0.83105 0.0
C299 C 0.75768 0.26428 0.83501 0.0
C300 C 0.79765 0.26829 0.83867 0.0
C301 C 0.91405 0.26998 0.84942 0.0
C302 C 0.87396 0.27181 0.8456 0.0
H303 H 0.67803 0.3038 0.84001 0.0
H304 H 0.74341 0.30802 0.8478 0.0
H305 H 0.80872 0.26025 0.81629 0.0
H306 H 0.98503 0.21736 0.84398 0.0
H307 H 0.91979 0.2226 0.83724 0.0
C308 C 1.00231 0.64147 0.90149 0.0
C309 C 0.01867 0.66649 0.89225 0.0
C310 C 1.00139 0.60484 0.89876 0.0
C311 C 0.01287 0.54211 0.8694 0.0
H312 H 0.0319 0.47089 0.90275 0.0
C313 C 0.07341 0.40213 0.86561 0.0
C314 C 0.06298 0.37276 0.87455 0.0
C315 C 0.0585 0.43628 0.86622 0.0
C316 C 0.02573 0.49034 0.89332 0.0
H317 H 0.0479 0.67295 0.87327 0.0
H318 H 0.04709 0.60893 0.86861 0.0
H319 H 0.02632 0.53433 0.90736 0.0
H320 H 0.02777 0.35529 0.89065 0.0
H321 H 1.00167 0.41561 0.89192 0.0
H322 H 0.01393 0.49812 0.85539 0.0
C323 C 0.03394 0.61756 0.8777 0.0
C324 C 0.02263 0.5268 0.89595 0.0
C325 C 0.03471 0.65417 0.88041 0.0
C326 C 0.03578 0.37755 0.88351 0.0
C327 C 0.02122 0.41204 0.88434 0.0
C328 C 0.01618 0.50569 0.86678 0.0
C329 C 0.01713 0.59239 0.8868 0.0
C330 C 0.017 0.55327 0.88402 0.0
C331 C 0.0333 0.44196 0.87602 0.0
C332 C 0.02346 0.47949 0.87871 0.0
H333 H 0.99001 0.6503 0.91077 0.0
H334 H 0.98803 0.58634 0.90594 0.0
H335 H 0.00765 0.5616 0.85994 0.0
H336 H 0.09468 0.39905 0.85875 0.0
H337 H 0.0687 0.45871 0.85979 0.0
C338 C 0.78684 0.77622 0.17653 0.0
C339 C 0.76655 0.74804 0.17002 0.0
C340 C 0.82437 0.77765 0.17654 0.0
C341 C 0.90509 0.72278 0.1731 0.0
H342 H 0.94377 0.81376 0.1592 0.0
C343 C 0.04433 0.73719 0.15161 0.0
C344 C 0.06092 0.77107 0.15179 0.0
C345 C 0.01162 0.73189 0.15746 0.0
C346 C 0.93386 0.78829 0.16348 0.0
H347 H 0.76997 0.69802 0.15938 0.0
H348 H 0.83565 0.70052 0.15935 0.0
H349 H 0.88012 0.80963 0.16202 0.0
H350 H 0.05911 0.82467 0.15952 0.0
H351 H 1.00362 0.8149 0.17063 0.0
H352 H 0.95893 0.70137 0.17449 0.0
C353 C 0.82244 0.72173 0.16427 0.0
C354 C 0.89713 0.78593 0.165 0.0
C355 C 0.78485 0.72049 0.16414 0.0
C356 C 0.0466 0.79833 0.15924 0.0
C357 C 0.01451 0.79282 0.16539 0.0
C358 C 0.94207 0.72521 0.17173 0.0
C359 C 0.84258 0.75053 0.17033 0.0
C360 C 0.88218 0.7531 0.16965 0.0
C361 C 0.99534 0.76033 0.16373 0.0
C362 C 0.95691 0.75795 0.16674 0.0
H363 H 0.77372 0.79728 0.18156 0.0
H364 H 0.83922 0.7999 0.1815 0.0
H365 H 0.89439 0.69716 0.17686 0.0
H366 H 0.05477 0.71593 0.14576 0.0
H367 H 0.99782 0.70648 0.15595 0.0
C368 C 0.60295 0.30225 0.41018 0.0
C369 C 0.63267 0.28205 0.40721 0.0
C370 C 0.59779 0.33792 0.40442 0.0
C371 C 0.64688 0.416 0.3905 0.0
H372 H 0.55057 0.45171 0.37475 0.0
C373 C 0.61223 0.56753 0.38036 0.0
C374 C 0.58892 0.57874 0.36737 0.0
C375 C 0.61854 0.53091 0.38429 0.0
C376 C 0.57768 0.44206 0.37898 0.0
H377 H 0.68028 0.28338 0.39587 0.0
H378 H 0.67109 0.34572 0.38568 0.0
H379 H 0.55935 0.38816 0.38311 0.0
H380 H 0.55438 0.56025 0.34821 0.0
H381 H 0.5655 0.49623 0.35509 0.0
H382 H 0.66521 0.4699 0.38635 0.0
C383 C 0.65192 0.33397 0.39255 0.0
C384 C 0.58264 0.40578 0.38391 0.0
C385 C 0.657 0.29821 0.39827 0.0
C386 C 0.57241 0.55251 0.3583 0.0
C387 C 0.57862 0.51585 0.36228 0.0
C388 C 0.64189 0.45233 0.38563 0.0
C389 C 0.6223 0.35422 0.39559 0.0
C390 C 0.61725 0.39242 0.38982 0.0
C391 C 0.6016 0.50467 0.37535 0.0
C392 C 0.6072 0.46579 0.37991 0.0
H393 H 0.58352 0.2904 0.4169 0.0
H394 H 0.5749 0.35294 0.40707 0.0
H395 H 0.67382 0.40656 0.3951 0.0
H396 H 0.6254 0.58704 0.38759 0.0
H397 H 0.63607 0.52313 0.39452 0.0
C398 C 0.0619 0.35732 0.67137 0.0
C399 C 0.08431 0.33409 0.66502 0.0
C400 C 0.02543 0.3622 0.66544 0.0
C401 C 0.95747 0.34515 0.63246 0.0
H402 H 0.88993 0.34207 0.66142 0.0
C403 C 0.81334 0.28962 0.62193 0.0
C404 C 0.78583 0.30408 0.6289 0.0
C405 C 0.84832 0.30356 0.62404 0.0
C406 C 0.90832 0.34382 0.65314 0.0
H407 H 0.08614 0.29843 0.64724 0.0
H408 H 0.02249 0.30642 0.63702 0.0
H409 H 0.95455 0.34609 0.66977 0.0
H410 H 0.77234 0.34534 0.64292 0.0
H411 H 0.83405 0.3699 0.64677 0.0
H412 H 0.91104 0.34106 0.61591 0.0
C413 C 0.03316 0.32149 0.64642 0.0
C414 C 0.9455 0.34607 0.65793 0.0
C415 C 0.0697 0.3168 0.65229 0.0
C416 C 0.79318 0.33412 0.63732 0.0
C417 C 0.82847 0.34786 0.63961 0.0
C418 C 0.92025 0.34271 0.62767 0.0
C419 C 0.01036 0.3438 0.65306 0.0
C420 C 0.97066 0.34586 0.6477 0.0
C421 C 0.85668 0.3319 0.63338 0.0
C422 C 0.8953 0.34111 0.638 0.0
H423 H 0.07251 0.37149 0.68104 0.0
H424 H 0.00894 0.38012 0.67068 0.0
H425 H 0.97595 0.3457 0.62423 0.0
H426 H 0.80823 0.26612 0.61554 0.0
H427 H 0.86937 0.29034 0.61921 0.0
C428 C 0.27978 0.3179 0.64936 0.0
C429 C 0.26509 0.28657 0.6556 0.0
C430 C 0.31661 0.31953 0.64791 0.0
C431 C 0.40578 0.27436 0.66054 0.0
H432 H 0.43098 0.32384 0.62448 0.0
C433 C 0.54647 0.26661 0.6389 0.0
C434 C 0.55832 0.29866 0.63204 0.0
C435 C 0.51266 0.26548 0.64409 0.0
C436 C 0.4245 0.31031 0.63471 0.0
H437 H 0.27715 0.23201 0.66485 0.0
H438 H 0.34147 0.23446 0.66201 0.0
H439 H 0.36799 0.32078 0.62852 0.0
H440 H 0.5456 0.35511 0.62619 0.0
H441 H 0.48712 0.35325 0.63533 0.0
H442 H 0.46272 0.26326 0.66645 0.0
C443 C 0.32479 0.25821 0.65866 0.0
C444 C 0.3883 0.3086 0.63705 0.0
C445 C 0.28792 0.2567 0.6602 0.0
C446 C 0.53699 0.32997 0.63133 0.0
C447 C 0.50343 0.32886 0.63649 0.0
C448 C 0.44217 0.27588 0.65814 0.0
C449 C 0.33957 0.2896 0.6524 0.0
C450 C 0.3784 0.29088 0.65004 0.0
C451 C 0.49021 0.29632 0.64238 0.0
C452 C 0.4519 0.29419 0.64524 0.0
H453 H 0.26269 0.34116 0.64557 0.0
H454 H 0.32707 0.34434 0.64324 0.0
H455 H 0.39917 0.26071 0.67073 0.0
H456 H 0.56227 0.24201 0.63945 0.0
H457 H 0.50318 0.24001 0.64858 0.0
C458 C 0.56485 0.80825 0.16034 0.0
C459 C 0.58059 0.78839 0.17329 0.0
C460 C 0.52733 0.807 0.15585 0.0
C461 C 0.44202 0.7828 0.17132 0.0
H462 H 0.39903 0.78845 0.12991 0.0
C463 C 0.29279 0.74777 0.15258 0.0
C464 C 0.27271 0.77165 0.14193 0.0
C465 C 0.33017 0.7519 0.15619 0.0
C466 C 0.4107 0.7872 0.14152 0.0
H467 H 0.57015 0.75012 0.19121 0.0
H468 H 0.5053 0.74664 0.18313 0.0
H469 H 0.46496 0.79008 0.13617 0.0
H470 H 0.27608 0.81851 0.12666 0.0
H471 H 0.34177 0.82549 0.13285 0.0
H472 H 0.38782 0.77887 0.17663 0.0
C473 C 0.5213 0.76437 0.1767 0.0
C474 C 0.44849 0.7882 0.14513 0.0
C475 C 0.55854 0.76604 0.18128 0.0
C476 C 0.29082 0.79986 0.13498 0.0
C477 C 0.3284 0.80368 0.13843 0.0
C478 C 0.40441 0.78135 0.16771 0.0
C479 C 0.50495 0.7855 0.16415 0.0
C480 C 0.46469 0.78563 0.1601 0.0
C481 C 0.34845 0.77971 0.14908 0.0
C482 C 0.38834 0.78324 0.15278 0.0
H483 H 0.58133 0.82583 0.15405 0.0
H484 H 0.51579 0.82382 0.14618 0.0
H485 H 0.45327 0.78182 0.18297 0.0
H486 H 0.27965 0.72571 0.15811 0.0
H487 H 0.34495 0.73284 0.16434 0.0
C488 C 0.47564 0.20626 0.84062 0.0
C489 C 0.49579 0.23453 0.83484 0.0
C490 C 0.4379 0.20879 0.83955 0.0
C491 C 0.36581 0.27635 0.83674 0.0
H492 H 0.30129 0.19606 0.8283 0.0
C493 C 0.21699 0.29271 0.84214 0.0
C494 C 0.20201 0.26429 0.85016 0.0
C495 C 0.24868 0.28742 0.83594 0.0
C496 C 0.31892 0.21872 0.83073 0.0
H497 H 0.49171 0.28724 0.82276 0.0
H498 H 0.42604 0.29178 0.8211 0.0
H499 H 0.36587 0.18995 0.82639 0.0
H500 H 0.20644 0.20756 0.85717 0.0
H501 H 0.2628 0.19837 0.84692 0.0
H502 H 0.31992 0.30466 0.84181 0.0
C503 C 0.43953 0.26774 0.8266 0.0
C504 C 0.35591 0.2152 0.82963 0.0
C505 C 0.47724 0.26511 0.82758 0.0
C506 C 0.21749 0.22977 0.8509 0.0
C507 C 0.2498 0.22461 0.845 0.0
C508 C 0.32908 0.27976 0.83798 0.0
C509 C 0.41947 0.23978 0.83271 0.0
C510 C 0.3798 0.2439 0.83277 0.0
C511 C 0.26679 0.25388 0.83812 0.0
C512 C 0.30509 0.25092 0.83514 0.0
H513 H 0.48925 0.18231 0.84615 0.0
H514 H 0.42327 0.18694 0.84449 0.0
H515 H 0.38356 0.29875 0.83949 0.0
H516 H 0.20528 0.31955 0.84139 0.0
H517 H 0.26017 0.31028 0.83023 0.0
C518 C 0.20158 0.80162 0.33598 0.0
C519 C 0.17607 0.77875 0.34179 0.0
C520 C 0.23745 0.8021 0.34286 0.0
C521 C 0.30328 0.74358 0.36768 0.0
H522 H 0.36601 0.82549 0.3624 0.0
C523 C 0.45922 0.73127 0.37991 0.0
C524 C 0.47376 0.73863 0.36657 0.0
C525 C 0.42381 0.74238 0.38105 0.0
C526 C 0.34871 0.80257 0.36417 0.0
H527 H 0.16824 0.73976 0.35996 0.0
H528 H 0.23019 0.74197 0.37233 0.0
H529 H 0.30038 0.83345 0.357 0.0
H530 H 0.46433 0.76537 0.34446 0.0
H531 H 0.40327 0.78587 0.34664 0.0
H532 H 0.35187 0.71271 0.3746 0.0
C533 C 0.22275 0.75877 0.36217 0.0
C534 C 0.31114 0.80696 0.36092 0.0
C535 C 0.18695 0.75791 0.35516 0.0
C536 C 0.45359 0.75938 0.35485 0.0
C537 C 0.41878 0.77125 0.35613 0.0
C538 C 0.34081 0.73937 0.37116 0.0
C539 C 0.24876 0.78013 0.35589 0.0
C540 C 0.28797 0.77719 0.36203 0.0
C541 C 0.40309 0.76187 0.36903 0.0
C542 C 0.36388 0.7685 0.36888 0.0
H543 H 0.19408 0.81863 0.32588 0.0
H544 H 0.25658 0.81864 0.33753 0.0
H545 H 0.28657 0.71987 0.36854 0.0
H546 H 0.47427 0.71505 0.38904 0.0
H547 H 0.41218 0.73474 0.3911 0.0
C548 C 0.68563 0.87476 0.58845 0.0
C549 C 0.6531 0.85778 0.58331 0.0
C550 C 0.68775 0.91238 0.58783 0.0
C551 C 0.63134 0.99343 0.58709 0.0
H552 H 0.7179 0.04263 0.57746 0.0
C553 C 0.65051 0.14545 0.59476 0.0
C554 C 0.68408 0.15344 0.60285 0.0
C555 C 0.6451 0.11206 0.5885 0.0
C556 C 0.69351 0.02932 0.58017 0.0
H557 H 0.59753 0.86657 0.57311 0.0
H558 H 0.60104 0.9325 0.57214 0.0
H559 H 0.71154 0.97811 0.57439 0.0
H560 H 0.73878 0.13387 0.6101 0.0
H561 H 0.72949 0.07598 0.59937 0.0
H562 H 0.61392 0.04425 0.59345 0.0
C563 C 0.62484 0.91674 0.57676 0.0
C564 C 0.68992 0.99234 0.57844 0.0
C565 C 0.62283 0.87907 0.57729 0.0
C566 C 0.71262 0.12841 0.60389 0.0
C567 C 0.70733 0.09528 0.59763 0.0
C568 C 0.635 0.03041 0.58889 0.0
C569 C 0.6573 0.93383 0.58208 0.0
C570 C 0.65921 0.97379 0.58224 0.0
C571 C 0.67323 0.08619 0.59023 0.0
C572 C 0.66658 0.04861 0.58584 0.0
H573 H 0.70934 0.85884 0.59306 0.0
H574 H 0.71302 0.92467 0.59219 0.0
H575 H 0.60745 0.97989 0.59022 0.0
H576 H 0.6279 0.16405 0.59399 0.0
H577 H 0.6186 0.10602 0.58275 0.0
C578 C 0.26609 0.15297 0.0922 0.0
C579 C 0.24031 0.17491 0.09728 0.0
C580 C 0.27239 0.11761 0.09824 0.0
C581 C 0.25176 0.05074 0.12851 0.0
H582 H 0.24793 0.9838 0.09741 0.0
C583 C 0.18719 0.91164 0.13235 0.0
C584 C 0.19937 0.88327 0.12483 0.0
C585 C 0.20389 0.9452 0.1319 0.0
C586 C 0.24999 1.0019 0.10633 0.0
H587 H 0.20268 0.17795 0.11331 0.0
H588 H 0.21326 0.116 0.12381 0.0
H589 H 0.25553 0.04772 0.09134 0.0
H590 H 0.23952 0.867 0.11148 0.0
H591 H 0.26917 0.92617 0.11063 0.0
H592 H 0.24445 0.00481 0.14335 0.0
C593 C 0.22902 0.12616 0.11527 0.0
C594 C 0.25429 0.03874 0.10284 0.0
C595 C 0.22289 0.16169 0.10927 0.0
C596 C 0.23002 0.88836 0.11754 0.0
C597 C 0.24664 0.9223 0.11693 0.0
C598 C 0.24745 0.01384 0.132 0.0
C599 C 0.25285 0.10325 0.10944 0.0
C600 C 0.25412 0.06378 0.11379 0.0
C601 C 0.23299 0.95142 0.12374 0.0
C602 C 0.2453 0.98911 0.12085 0.0
H603 H 0.28019 0.16268 0.08306 0.0
H604 H 0.29153 0.10105 0.09372 0.0
H605 H 0.25218 0.06916 0.13727 0.0
H606 H 0.16347 0.90835 0.13801 0.0
H607 H 0.19228 0.96694 0.1371 0.0
C608 C 0.64377 0.07836 0.4043 0.0
C609 C 0.63896 0.10112 0.39122 0.0
C610 C 0.64783 0.04122 0.40361 0.0
C611 C 0.66782 0.97065 0.37885 0.0
H612 H 0.61502 0.90984 0.40473 0.0
C613 C 0.63969 0.81842 0.37192 0.0
C614 C 0.64063 0.79589 0.38504 0.0
C615 C 0.64412 0.85568 0.37266 0.0
C616 C 0.63037 0.92638 0.39758 0.0
H617 H 0.63431 0.10317 0.36717 0.0
H618 H 0.64083 0.03808 0.36589 0.0
H619 H 0.61366 0.97484 0.4061 0.0
H620 H 0.64919 0.7944 0.40918 0.0
H621 H 0.65738 0.8591 0.41041 0.0
H622 H 0.68389 0.92184 0.37015 0.0
C623 C 0.64235 0.04896 0.37671 0.0
C624 C 0.62962 0.96368 0.39837 0.0
C625 C 0.63844 0.08616 0.37742 0.0
C626 C 0.64798 0.81106 0.39886 0.0
C627 C 0.65246 0.84816 0.39959 0.0
C628 C 0.66849 0.9332 0.37802 0.0
C629 C 0.6467 0.02602 0.38979 0.0
C630 C 0.64834 0.98628 0.38904 0.0
C631 C 0.64958 0.871 0.38651 0.0
C632 C 0.64981 0.91069 0.38742 0.0
H633 H 0.64391 0.08929 0.41505 0.0
H634 H 0.65159 0.02437 0.41391 0.0
H635 H 0.6828 0.98732 0.3716 0.0
H636 H 0.63417 0.80751 0.36113 0.0
H637 H 0.64165 0.87261 0.36238 0.0
C638 C 0.05011 0.85886 0.90114 0.0
C639 C 0.07286 0.84186 0.91321 0.0
C640 C 0.05231 0.89612 0.89783 0.0
C641 C 0.08328 0.98006 0.91529 0.0
H642 H 0.07252 0.02098 0.87455 0.0
C643 C 0.10291 0.13282 0.89962 0.0
C644 C 0.07907 0.14834 0.88755 0.0
C645 C 0.10279 0.09546 0.90315 0.0
C646 C 0.0752 0.01004 0.88601 0.0
H647 H 0.11705 0.8504 0.93075 0.0
H648 H 0.12098 0.91512 0.92494 0.0
H649 H 0.07167 0.95574 0.87945 0.0
H650 H 0.03498 0.13715 0.87034 0.0
H651 H 0.0346 0.0726 0.8765 0.0
H652 H 0.08665 0.03445 0.92182 0.0
C653 C 0.10084 0.89991 0.91825 0.0
C654 C 0.07471 0.97258 0.88881 0.0
C655 C 0.09863 0.86277 0.92156 0.0
C656 C 0.05428 0.12601 0.87948 0.0
C657 C 0.05412 0.08888 0.88299 0.0
C658 C 0.08375 0.01757 0.91248 0.0
C659 C 0.07737 0.91719 0.90648 0.0
C660 C 0.07858 0.95709 0.90348 0.0
C661 C 0.07877 0.07297 0.89469 0.0
C662 C 0.07946 0.03305 0.8978 0.0
H663 H 0.02975 0.84361 0.89458 0.0
H664 H 0.0336 0.90856 0.88876 0.0
H665 H 0.08582 0.9691 0.92673 0.0
H666 H 0.12229 0.14936 0.90607 0.0
H667 H 0.1222 0.08409 0.91222 0.0
C668 C 0.19507 0.26475 0.03792 0.0
C669 C 0.18994 0.23598 0.04831 0.0
C670 C 0.18538 0.26126 0.02267 0.0
C671 C 0.18177 0.19695 0.9952 0.0
H672 H 0.11682 0.26324 0.9696 0.0
C673 C 0.18143 0.23427 0.93227 0.0
C674 C 0.14798 0.23255 0.92314 0.0
C675 C 0.18368 0.22687 0.94763 0.0
C676 C 0.13464 0.24429 0.97667 0.0
H677 H 0.1685 0.18171 0.05065 0.0
H678 H 0.15358 0.17524 0.02401 0.0
H679 H 0.12558 0.2686 0.99662 0.0
H680 H 0.091 0.22014 0.92268 0.0
H681 H 0.09475 0.20851 0.94977 0.0
H682 H 0.19254 0.17409 0.97515 0.0
C683 C 0.16505 0.20036 0.02779 0.0
C684 C 0.13982 0.24754 0.99204 0.0
C685 C 0.17395 0.20407 0.04303 0.0
C686 C 0.11715 0.22133 0.92949 0.0
C687 C 0.11921 0.2149 0.94494 0.0
C688 C 0.17727 0.19427 0.97979 0.0
C689 C 0.17096 0.2288 0.01751 0.0
C690 C 0.16365 0.22408 0.00139 0.0
C691 C 0.15235 0.21852 0.95412 0.0
C692 C 0.15385 0.21808 0.97043 0.0
H693 H 0.20761 0.28956 0.0415 0.0
H694 H 0.19032 0.28348 0.01487 0.0
H695 H 0.20042 0.1787 0.00224 0.0
H696 H 0.20555 0.24292 0.92761 0.0
H697 H 0.20945 0.22998 0.95454 0.0
C698 C 0.10664 0.79767 0.28474 0.0
C699 C 0.09551 0.76825 0.29346 0.0
C700 C 0.10478 0.7962 0.26934 0.0
C701 C 0.06904 0.74139 0.23737 0.0
H702 H 0.1497 0.78514 0.22017 0.0
C703 C 0.12329 0.7008 0.18384 0.0
C704 C 0.13416 0.7288 0.17429 0.0
C705 C 0.11021 0.70852 0.197 0.0
C706 C 0.12667 0.77326 0.22474 0.0
H707 H 0.07321 0.71448 0.29305 0.0
H708 H 0.07149 0.71099 0.26626 0.0
H709 H 0.14388 0.79301 0.246 0.0
H710 H 0.13905 0.78676 0.17075 0.0
H711 H 0.11638 0.8002 0.19377 0.0
H712 H 0.05342 0.71986 0.2161 0.0
C713 C 0.08055 0.73578 0.27113 0.0
C714 C 0.12318 0.77787 0.23958 0.0
C715 C 0.08174 0.73759 0.2865 0.0
C716 C 0.13032 0.76468 0.1778 0.0
C717 C 0.11762 0.77237 0.19101 0.0
C718 C 0.07293 0.73627 0.22254 0.0
C719 C 0.09255 0.76488 0.26234 0.0
C720 C 0.0945 0.76179 0.24618 0.0
C721 C 0.10851 0.74432 0.20095 0.0
C722 C 0.10194 0.752 0.21614 0.0
H723 H 0.11697 0.82177 0.28988 0.0
H724 H 0.11336 0.81954 0.26297 0.0
H725 H 0.04624 0.72909 0.24194 0.0
H726 H 0.12626 0.67292 0.1814 0.0
H727 H 0.10364 0.68638 0.20453 0.0
C728 C 0.61245 0.76447 0.52186 0.0
C729 C 0.61139 0.73739 0.53339 0.0
C730 C 0.59282 0.76075 0.50779 0.0
C731 C 0.56291 0.68926 0.48405 0.0
H732 H 0.51356 0.76519 0.45758 0.0
C733 C 0.53057 0.66499 0.42295 0.0
C734 C 0.54018 0.69337 0.41333 0.0
C735 C 0.52497 0.6713 0.43745 0.0
C736 C 0.52736 0.74368 0.46479 0.0
H737 H 0.58649 0.6867 0.53948 0.0
H738 H 0.55293 0.67993 0.51486 0.0
H739 H 0.53253 0.7757 0.48377 0.0
H740 H 0.5481 0.75106 0.41071 0.0
H741 H 0.54029 0.76196 0.43611 0.0
H742 H 0.56052 0.658 0.46522 0.0
C743 C 0.56924 0.7038 0.51669 0.0
C744 C 0.53808 0.74973 0.4798 0.0
C745 C 0.58863 0.7076 0.53075 0.0
C746 C 0.54053 0.72869 0.41791 0.0
C747 C 0.53601 0.73489 0.43256 0.0
C748 C 0.55279 0.68341 0.46907 0.0
C749 C 0.5719 0.72984 0.50495 0.0
C750 C 0.55651 0.72273 0.4895 0.0
C751 C 0.53023 0.70592 0.44277 0.0
C752 C 0.53546 0.71072 0.45912 0.0
H753 H 0.62986 0.78764 0.52348 0.0
H754 H 0.59566 0.78109 0.49891 0.0
H755 H 0.5776 0.66813 0.49119 0.0
H756 H 0.52979 0.63754 0.4196 0.0
H757 H 0.51902 0.64851 0.44477 0.0
C758 C 0.6008 0.22803 0.77481 0.0
C759 C 0.58737 0.25671 0.78177 0.0
C760 C 0.59488 0.22723 0.75936 0.0
C761 C 0.58605 0.28704 0.72631 0.0
H762 H 0.5638 0.19933 0.7062 0.0
C763 C 0.61273 0.27606 0.6658 0.0
C764 C 0.6313 0.24441 0.66366 0.0
C765 C 0.59588 0.27863 0.67856 0.0
C766 C 0.57003 0.22409 0.71163 0.0
H767 H 0.5566 0.30662 0.77824 0.0
H768 H 0.547 0.30577 0.75095 0.0
H769 H 0.55536 0.20155 0.73229 0.0
H770 H 0.64618 0.19042 0.67292 0.0
H771 H 0.61791 0.19507 0.69524 0.0
H772 H 0.60317 0.30885 0.70605 0.0
C773 C 0.56169 0.28374 0.75752 0.0
C774 C 0.56503 0.22536 0.72653 0.0
C775 C 0.56705 0.28417 0.77306 0.0
C776 C 0.63191 0.2151 0.67427 0.0
C777 C 0.6153 0.21768 0.687 0.0
C778 C 0.59147 0.28565 0.71143 0.0
C779 C 0.57591 0.25542 0.75054 0.0
C780 C 0.57417 0.25643 0.73414 0.0
C781 C 0.59766 0.24969 0.68947 0.0
C782 C 0.58483 0.25367 0.70409 0.0
H783 H 0.61648 0.20654 0.78134 0.0
H784 H 0.60655 0.20532 0.75426 0.0
H785 H 0.59354 0.31126 0.73195 0.0
H786 H 0.61253 0.29932 0.65795 0.0
H787 H 0.58234 0.3036 0.68006 0.0
C788 C 0.09319 0.72222 0.96127 0.0
C789 C 0.06623 0.74529 0.9535 0.0
C790 C 0.09665 0.71725 0.97682 0.0
C791 C 0.07449 0.76627 0.00834 0.0
H792 H 0.10342 0.67826 0.03241 0.0
C793 C 0.0731 0.76106 0.07049 0.0
C794 C 0.10565 0.75046 0.07939 0.0
C795 C 0.06704 0.75372 0.05555 0.0
C796 C 0.0955 0.70299 0.02578 0.0
H797 H 0.02016 0.77903 0.95552 0.0
H798 H 0.02518 0.76946 0.9825 0.0
H799 H 0.09423 0.67783 0.00512 0.0
H800 H 0.15629 0.72146 0.07992 0.0
H801 H 0.14568 0.70875 0.05351 0.0
H802 H 0.07558 0.79149 0.02878 0.0
C803 C 0.04452 0.75615 0.97678 0.0
C804 C 0.09028 0.7028 0.01019 0.0
C805 C 0.04142 0.76146 0.96134 0.0
C806 C 0.13095 0.72994 0.07331 0.0
C807 C 0.12489 0.72267 0.05822 0.0
C808 C 0.07942 0.76638 0.02378 0.0
C809 C 0.07297 0.73509 0.98478 0.0
C810 C 0.07924 0.73442 0.00131 0.0
C811 C 0.09347 0.7358 0.0491 0.0
C812 C 0.08951 0.73473 0.03268 0.0
H813 H 0.11266 0.70958 0.95539 0.0
H814 H 0.11889 0.70094 0.98263 0.0
H815 H 0.06722 0.79141 0.00189 0.0
H816 H 0.0528 0.77638 0.07492 0.0
H817 H 0.04222 0.76345 0.04885 0.0
C818 C 0.65649 0.84111 0.22183 0.0
C819 C 0.67343 0.81236 0.21618 0.0
C820 C 0.66009 0.8448 0.23715 0.0
C821 C 0.7073 0.80654 0.27403 0.0
H822 H 0.6137 0.82348 0.2865 0.0
C823 C 0.65706 0.73658 0.32518 0.0
C824 C 0.63185 0.75416 0.33236 0.0
C825 C 0.67186 0.75441 0.31343 0.0
C826 C 0.64034 0.8196 0.28333 0.0
H827 H 0.70888 0.76601 0.22196 0.0
H828 H 0.71428 0.77155 0.2487 0.0
H829 H 0.62135 0.83517 0.26062 0.0
H830 H 0.60358 0.80431 0.33369 0.0
H831 H 0.62941 0.8358 0.313 0.0
H832 H 0.72528 0.78846 0.29675 0.0
C833 C 0.69893 0.79192 0.24139 0.0
C834 C 0.64479 0.82633 0.2684 0.0
C835 C 0.69573 0.78857 0.22604 0.0
C836 C 0.6234 0.79052 0.32837 0.0
C837 C 0.63797 0.80835 0.3165 0.0
C838 C 0.70273 0.79949 0.28898 0.0
C839 C 0.68019 0.8194 0.24717 0.0
C840 C 0.67795 0.81872 0.26344 0.0
C841 C 0.66111 0.78993 0.30849 0.0
C842 C 0.66882 0.80482 0.29368 0.0
H843 H 0.63951 0.86009 0.2144 0.0
H844 H 0.64598 0.8668 0.24117 0.0
H845 H 0.73344 0.8011 0.27067 0.0
H846 H 0.66353 0.70834 0.32805 0.0
H847 H 0.68929 0.73931 0.30743 0.0
C848 C 0.60148 0.1994 0.45516 0.0
C849 C 0.63393 0.19037 0.45007 0.0
C850 C 0.5984 0.1956 0.47031 0.0
C851 C 0.64392 0.15953 0.50764 0.0
H852 H 0.59521 0.24153 0.52046 0.0
C853 C 0.66082 0.20983 0.56773 0.0
C854 C 0.6301 0.22581 0.57204 0.0
C855 C 0.65895 0.19606 0.55366 0.0
C856 C 0.60836 0.21806 0.5171 0.0
H857 H 0.68812 0.16886 0.45657 0.0
H858 H 0.6834 0.16343 0.48323 0.0
H859 H 0.59623 0.23583 0.49421 0.0
H860 H 0.57273 0.23655 0.56591 0.0
H861 H 0.56922 0.21187 0.54162 0.0
H862 H 0.65729 0.14293 0.53088 0.0
C863 C 0.65995 0.17264 0.47553 0.0
C864 C 0.60888 0.21471 0.50198 0.0
C865 C 0.66277 0.17587 0.46029 0.0
C866 C 0.59687 0.22472 0.56274 0.0
C867 C 0.59492 0.21074 0.54883 0.0
C868 C 0.64364 0.16308 0.5229 0.0
C869 C 0.62805 0.18348 0.48076 0.0
C870 C 0.62657 0.18543 0.49699 0.0
C871 C 0.6263 0.1981 0.5438 0.0
C872 C 0.62573 0.19239 0.52776 0.0
H873 H 0.57874 0.21023 0.44742 0.0
H874 H 0.57306 0.20322 0.47386 0.0
H875 H 0.65766 0.13654 0.5042 0.0
H876 H 0.68678 0.21051 0.57471 0.0
H877 H 0.68357 0.18643 0.55008 0.0
C878 C 0.18985 0.26907 0.71645 0.0
C879 C 0.17171 0.30125 0.71083 0.0
C880 C 0.19393 0.25905 0.7317 0.0
C881 C 0.19252 0.29246 0.76874 0.0
H882 H 0.15096 0.19967 0.77855 0.0
C883 C 0.13516 0.25997 0.82347 0.0
C884 C 0.1326 0.22401 0.82894 0.0
C885 C 0.15033 0.26829 0.81044 0.0
C886 C 0.16366 0.22524 0.77617 0.0
H887 H 0.14505 0.34892 0.7167 0.0
H888 H 0.15263 0.33163 0.74342 0.0
H889 H 0.15861 0.21677 0.75292 0.0
H890 H 0.14558 0.16865 0.82574 0.0
H891 H 0.17357 0.1831 0.80327 0.0
H892 H 0.19748 0.30112 0.79196 0.0
C893 C 0.16356 0.31415 0.73603 0.0
C894 C 0.16782 0.23509 0.76141 0.0
C895 C 0.15895 0.32388 0.72077 0.0
C896 C 0.14724 0.1966 0.82167 0.0
C897 C 0.16299 0.20493 0.80875 0.0
C898 C 0.18895 0.28237 0.78358 0.0
C899 C 0.1805 0.28134 0.7416 0.0
C900 C 0.18127 0.26918 0.7575 0.0
C901 C 0.16344 0.24077 0.80264 0.0
C902 C 0.17334 0.24909 0.78743 0.0
H903 H 0.19977 0.25107 0.709 0.0
H904 H 0.2071 0.23362 0.73573 0.0
H905 H 0.20338 0.31876 0.76601 0.0
H906 H 0.12356 0.28153 0.82879 0.0
H907 H 0.14965 0.29613 0.80606 0.0
loop_
_geom_bond_atom_site_label_1
_geom_bond_atom_site_label_2
_geom_bond_distance
_geom_bond_site_symmetry_2
_ccdc_geom_bond_type
H0 C7 0.929 . S
H1 C10 0.930 . S
H2 C12 0.929 . S
H3 C4 0.969 . S
C4 H3 0.969 . S
C4 O5 1.550 . S
C4 H6 0.973 . S
O5 C4 1.550 . S
O5 C11 1.412 . S
H6 C4 0.973 . S
C7 H0 0.929 . S
C7 C8 1.400 . S
C7 C9 1.364 . S
C8 C7 1.400 . S
C8 C12 1.377 . S
C9 C7 1.364 . S
C9 C10 1.374 . S
C10 H1 0.930 . S
C10 C9 1.374 . S
C10 C11 1.383 . S
C11 O5 1.412 . S
C11 C10 1.383 . S
C11 C12 1.394 . S
C12 H2 0.929 . S
C12 C8 1.377 . S
C12 C11 1.394 . S
H13 C20 0.929 . S
H14 C23 0.930 . S
H15 C25 0.929 . S
H16 C17 0.969 . S
C17 H16 0.969 . S
C17 O18 1.550 . S
C17 H19 0.973 . S
O18 C17 1.550 . S
O18 C24 1.412 . S
H19 C17 0.973 . S
C20 H13 0.929 . S
C20 C21 1.400 . S
C20 C22 1.364 . S
C21 C20 1.400 . S
C21 C25 1.377 . S
C22 C20 1.364 . S
C22 C23 1.374 . S
C23 H14 0.930 . S
C23 C22 1.374 . S
C23 C24 1.383 . S
C24 O18 1.412 . S
C24 C23 1.383 . S
C24 C25 1.394 . S
C25 H15 0.929 . S
C25 C21 1.377 . S
C25 C24 1.394 . S
H26 C33 0.929 . S
H27 C36 0.930 . S
H28 C38 0.929 . S
H29 C30 0.969 . S
C30 H29 0.969 . S
C30 O31 1.550 . S
C30 H32 0.973 . S
O31 C30 1.550 . S
O31 C37 1.412 . S
H32 C30 0.973 . S
C33 H26 0.929 . S
C33 C34 1.400 . S
C33 C35 1.364 . S
C34 C33 1.400 . S
C34 C38 1.377 . S
C35 C33 1.364 . S
C35 C36 1.374 . S
C36 H27 0.930 . S
C36 C35 1.374 . S
C36 C37 1.383 . S
C37 O31 1.412 . S
C37 C36 1.383 . S
C37 C38 1.394 . S
C38 H28 0.929 . S
C38 C34 1.377 . S
C38 C37 1.394 . S
H39 C46 0.929 . S
H40 C49 0.930 . S
H41 C51 0.929 . S
H42 C43 0.969 . S
C43 H42 0.969 . S
C43 O44 1.550 . S
C43 H45 0.973 . S
O44 C43 1.550 . S
O44 C50 1.412 . S
H45 C43 0.973 . S
C46 H39 0.929 . S
C46 C47 1.400 . S
C46 C48 1.364 . S
C47 C46 1.400 . S
C47 C51 1.377 . S
C48 C46 1.364 . S
C48 C49 1.374 . S
C49 H40 0.930 . S
C49 C48 1.374 . S
C49 C50 1.383 . S
C50 O44 1.412 . S
C50 C49 1.383 . S
C50 C51 1.394 . S
C51 H41 0.929 . S
C51 C47 1.377 . S
C51 C50 1.394 . S
H52 C59 0.929 . S
H53 C62 0.930 . S
H54 C64 0.929 . S
H55 C56 0.969 . S
C56 H55 0.969 . S
C56 O57 1.550 . S
C56 H58 0.973 . S
O57 C56 1.550 . S
O57 C63 1.412 . S
H58 C56 0.973 . S
C59 H52 0.929 . S
C59 C60 1.400 . S
C59 C61 1.364 . S
C60 C59 1.400 . S
C60 C64 1.377 . S
C61 C59 1.364 . S
C61 C62 1.374 . S
C62 H53 0.930 . S
C62 C61 1.374 . S
C62 C63 1.383 . S
C63 O57 1.412 . S
C63 C62 1.383 . S
C63 C64 1.394 . S
C64 H54 0.929 . S
C64 C60 1.377 . S
C64 C63 1.394 . S
H65 C72 0.929 . S
H66 C75 0.930 . S
H67 C77 0.929 . S
H68 C69 0.969 . S
C69 H68 0.969 . S
C69 O70 1.550 . S
C69 H71 0.973 . S
O70 C69 1.550 . S
O70 C76 1.412 . S
H71 C69 0.973 . S
C72 H65 0.929 . S
C72 C73 1.400 . S
C72 C74 1.364 . S
C73 C72 1.400 . S
C73 C77 1.377 . S
C74 C72 1.364 . S
C74 C75 1.374 . S
C75 H66 0.930 . S
C75 C74 1.374 . S
C75 C76 1.383 . S
C76 O70 1.412 . S
C76 C75 1.383 . S
C76 C77 1.394 . S
C77 H67 0.929 . S
C77 C73 1.377 . S
C77 C76 1.394 . S
H78 C85 0.929 . S
H79 C88 0.930 . S
H80 C90 0.929 . S
H81 C82 0.969 . S
C82 H81 0.969 . S
C82 O83 1.550 . S
C82 H84 0.973 . S
O83 C82 1.550 . S
O83 C89 1.412 . S
H84 C82 0.973 . S
C85 H78 0.929 . S
C85 C86 1.400 . S
C85 C87 1.364 . S
C86 C85 1.400 . S
C86 C90 1.377 . S
C87 C85 1.364 . S
C87 C88 1.374 . S
C88 H79 0.930 . S
C88 C87 1.374 . S
C88 C89 1.383 . S
C89 O83 1.412 . S
C89 C88 1.383 . S
C89 C90 1.394 . S
C90 H80 0.929 . S
C90 C86 1.377 . S
C90 C89 1.394 . S
H91 C98 0.929 . S
H92 C101 0.930 . S
H93 C103 0.929 . S
H94 C95 0.969 . S
C95 H94 0.969 . S
C95 O96 1.550 . S
C95 H97 0.973 . S
O96 C95 1.550 . S
O96 C102 1.412 . S
H97 C95 0.973 . S
C98 H91 0.929 . S
C98 C99 1.400 . S
C98 C100 1.364 . S
C99 C98 1.400 . S
C99 C103 1.377 . S
C100 C98 1.364 . S
C100 C101 1.374 . S
C101 H92 0.930 . S
C101 C100 1.374 . S
C101 C102 1.383 . S
C102 O96 1.412 . S
C102 C101 1.383 . S
C102 C103 1.394 . S
C103 H93 0.929 . S
C103 C99 1.377 . S
C103 C102 1.394 . S
Zn104 O110 1.920 . S
Zn104 O116 1.898 . S
Zn104 O119 1.905 . S
Zn105 O113 1.905 . S
Zn105 O114 1.898 . S
Zn105 O122 1.920 . S
Zn106 O109 2.080 . S
Zn106 O112 2.114 . S
Zn106 O115 2.120 . S
Zn106 O117 2.120 . S
Zn106 O118 2.114 . S
Zn106 O121 2.080 . S
C107 O112 1.166 . S
C107 O113 1.182 . S
C108 O114 1.167 . S
C108 O115 1.299 . S
O109 Zn106 2.080 . S
O109 C123 1.305 . S
O110 Zn104 1.920 . S
O110 C123 1.234 . S
C111 O116 1.167 . S
C111 O117 1.299 . S
O112 Zn106 2.114 . S
O112 C107 1.166 . S
O113 Zn105 1.905 . S
O113 C107 1.182 . S
O114 Zn105 1.898 . S
O114 C108 1.167 . S
O115 Zn106 2.120 . S
O115 C108 1.299 . S
O116 Zn104 1.898 . S
O116 C111 1.167 . S
O117 Zn106 2.120 . S
O117 C111 1.299 . S
O118 Zn106 2.114 . S
O118 C120 1.166 . S
O119 Zn104 1.905 . S
O119 C120 1.182 . S
C120 O118 1.166 . S
C120 O119 1.182 . S
O121 Zn106 2.080 . S
O121 C124 1.305 . S
O122 Zn105 1.920 . S
O122 C124 1.234 . S
C123 O109 1.305 . S
C123 O110 1.234 . S
C124 O121 1.305 . S
C124 O122 1.234 . S
Zn125 O131 1.920 . S
Zn125 O137 1.898 . S
Zn125 O140 1.905 . S
Zn126 O134 1.905 . S
Zn126 O135 1.898 . S
Zn126 O143 1.920 . S
Zn127 O130 2.080 . S
Zn127 O133 2.114 . S
Zn127 O136 2.120 . S
Zn127 O138 2.120 . S
Zn127 O139 2.114 . S
Zn127 O142 2.080 . S
C128 O133 1.166 . S
C128 O134 1.182 . S
C129 O135 1.167 . S
C129 O136 1.299 . S
O130 Zn127 2.080 . S
O130 C144 1.305 . S
O131 Zn125 1.920 . S
O131 C144 1.234 . S
C132 O137 1.167 . S
C132 O138 1.299 . S
O133 Zn127 2.114 . S
O133 C128 1.166 . S
O134 Zn126 1.905 . S
O134 C128 1.182 . S
O135 Zn126 1.898 . S
O135 C129 1.167 . S
O136 Zn127 2.120 . S
O136 C129 1.299 . S
O137 Zn125 1.898 . S
O137 C132 1.167 . S
O138 Zn127 2.120 . S
O138 C132 1.299 . S
O139 Zn127 2.114 . S
O139 C141 1.166 . S
O140 Zn125 1.905 . S
O140 C141 1.182 . S
C141 O139 1.166 . S
C141 O140 1.182 . S
O142 Zn127 2.080 . S
O142 C145 1.305 . S
O143 Zn126 1.920 . S
O143 C145 1.234 . S
C144 O130 1.305 . S
C144 O131 1.234 . S
C145 O142 1.305 . S
C145 O143 1.234 . S
Zn146 O152 1.920 . S
Zn146 O158 1.898 . S
Zn146 O161 1.905 . S
Zn147 O155 1.905 . S
Zn147 O156 1.898 . S
Zn147 O164 1.920 . S
Zn148 O151 2.080 . S
Zn148 O154 2.114 . S
Zn148 O157 2.120 . S
Zn148 O159 2.120 . S
Zn148 O160 2.114 . S
Zn148 O163 2.080 . S
C149 O154 1.166 . S
C149 O155 1.182 . S
C150 O156 1.167 . S
C150 O157 1.299 . S
O151 Zn148 2.080 . S
O151 C165 1.305 . S
O152 Zn146 1.920 . S
O152 C165 1.234 . S
C153 O158 1.167 . S
C153 O159 1.299 . S
O154 Zn148 2.114 . S
O154 C149 1.166 . S
O155 Zn147 1.905 . S
O155 C149 1.182 . S
O156 Zn147 1.898 . S
O156 C150 1.167 . S
O157 Zn148 2.120 . S
O157 C150 1.299 . S
O158 Zn146 1.898 . S
O158 C153 1.167 . S
O159 Zn148 2.120 . S
O159 C153 1.299 . S
O160 Zn148 2.114 . S
O160 C162 1.166 . S
O161 Zn146 1.905 . S
O161 C162 1.182 . S
C162 O160 1.166 . S
C162 O161 1.182 . S
O163 Zn148 2.080 . S
O163 C166 1.305 . S
O164 Zn147 1.920 . S
O164 C166 1.234 . S
C165 O151 1.305 . S
C165 O152 1.234 . S
C166 O163 1.305 . S
C166 O164 1.234 . S
Zn167 O173 1.920 . S
Zn167 O179 1.898 . S
Zn167 O182 1.905 . S
Zn168 O176 1.905 . S
Zn168 O177 1.898 . S
Zn168 O185 1.920 . S
Zn169 O172 2.080 . S
Zn169 O175 2.114 . S
Zn169 O178 2.120 . S
Zn169 O180 2.120 . S
Zn169 O181 2.114 . S
Zn169 O184 2.080 . S
C170 O175 1.166 . S
C170 O176 1.182 . S
C171 O177 1.167 . S
C171 O178 1.299 . S
O172 Zn169 2.080 . S
O172 C186 1.305 . S
O173 Zn167 1.920 . S
O173 C186 1.234 . S
C174 O179 1.167 . S
C174 O180 1.299 . S
O175 Zn169 2.114 . S
O175 C170 1.166 . S
O176 Zn168 1.905 . S
O176 C170 1.182 . S
O177 Zn168 1.898 . S
O177 C171 1.167 . S
O178 Zn169 2.120 . S
O178 C171 1.299 . S
O179 Zn167 1.898 . S
O179 C174 1.167 . S
O180 Zn169 2.120 . S
O180 C174 1.299 . S
O181 Zn169 2.114 . S
O181 C183 1.166 . S
O182 Zn167 1.905 . S
O182 C183 1.182 . S
C183 O181 1.166 . S
C183 O182 1.182 . S
O184 Zn169 2.080 . S
O184 C187 1.305 . S
O185 Zn168 1.920 . S
O185 C187 1.234 . S
C186 O172 1.305 . S
C186 O173 1.234 . S
C187 O184 1.305 . S
C187 O185 1.234 . S
C188 C189 1.349 . S
C188 C190 1.327 . S
C188 H213 0.950 . S
C189 C188 1.349 . S
C189 C205 1.349 . S
C190 C188 1.327 . S
C190 C209 1.429 . S
C190 H214 0.950 . S
C191 C208 1.574 . S
C191 C210 1.368 . S
C191 H215 0.949 . S
H192 C196 0.949 . S
C193 C194 1.349 . S
C193 C195 1.327 . S
C193 H216 0.950 . S
C194 C193 1.349 . S
C194 C206 1.349 . S
C195 C193 1.327 . S
C195 C211 1.429 . S
C195 H217 0.950 . S
C196 H192 0.949 . S
C196 C204 1.574 . S
C196 C212 1.368 . S
H197 C205 0.950 . S
H198 C203 0.950 . S
H199 C204 0.949 . S
H200 C206 0.950 . S
H201 C207 0.950 . S
H202 C208 0.949 . S
C203 H198 0.950 . S
C203 C205 1.327 . S
C203 C209 1.429 . S
C204 C196 1.574 . S
C204 H199 0.949 . S
C204 C210 1.368 . S
C205 C189 1.349 . S
C205 H197 0.950 . S
C205 C203 1.327 . S
C206 C194 1.349 . S
C206 H200 0.950 . S
C206 C207 1.327 . S
C207 H201 0.950 . S
C207 C206 1.327 . S
C207 C211 1.429 . S
C208 C191 1.574 . S
C208 H202 0.949 . S
C208 C212 1.368 . S
C209 C190 1.429 . S
C209 C203 1.429 . S
C209 C210 1.523 . S
C210 C191 1.368 . S
C210 C204 1.368 . S
C210 C209 1.523 . S
C211 C195 1.429 . S
C211 C207 1.429 . S
C211 C212 1.523 . S
C212 C196 1.368 . S
C212 C208 1.368 . S
C212 C211 1.523 . S
H213 C188 0.950 . S
H214 C190 0.950 . S
H215 C191 0.949 . S
H216 C193 0.950 . S
H217 C195 0.950 . S
C218 C219 1.349 . S
C218 C220 1.327 . S
C218 H243 0.950 1_655 S
C219 C218 1.349 . S
C219 C235 1.349 . S
C220 C218 1.327 . S
C220 C239 1.429 . S
C220 H244 0.950 . S
C221 C238 1.574 . S
C221 C240 1.368 . S
C221 H245 0.949 . S
H222 C226 0.949 . S
C223 C224 1.349 . S
C223 C225 1.327 . S
C223 H246 0.950 . S
C224 C223 1.349 . S
C224 C236 1.349 . S
C225 C223 1.327 . S
C225 C241 1.429 . S
C225 H247 0.950 . S
C226 H222 0.949 . S
C226 C234 1.574 . S
C226 C242 1.368 . S
H227 C235 0.950 . S
H228 C233 0.950 . S
H229 C234 0.949 . S
H230 C236 0.950 . S
H231 C237 0.950 . S
H232 C238 0.949 . S
C233 H228 0.950 . S
C233 C235 1.327 . S
C233 C239 1.429 . S
C234 C226 1.574 . S
C234 H229 0.949 . S
C234 C240 1.368 . S
C235 C219 1.349 . S
C235 H227 0.950 . S
C235 C233 1.327 . S
C236 C224 1.349 . S
C236 H230 0.950 . S
C236 C237 1.327 . S
C237 H231 0.950 . S
C237 C236 1.327 . S
C237 C241 1.429 . S
C238 C221 1.574 . S
C238 H232 0.949 . S
C238 C242 1.368 . S
C239 C220 1.429 . S
C239 C233 1.429 . S
C239 C240 1.523 . S
C240 C221 1.368 . S
C240 C234 1.368 . S
C240 C239 1.523 . S
C241 C225 1.429 . S
C241 C237 1.429 . S
C241 C242 1.523 . S
C242 C226 1.368 . S
C242 C238 1.368 . S
C242 C241 1.523 . S
H243 C218 0.950 1_455 S
H244 C220 0.950 . S
H245 C221 0.949 . S
H246 C223 0.950 . S
H247 C225 0.950 . S
C248 C249 1.349 . S
C248 C250 1.327 . S
C248 H273 0.950 . S
C249 C248 1.349 . S
C249 C265 1.349 . S
C250 C248 1.327 . S
C250 C269 1.429 . S
C250 H274 0.950 . S
C251 C268 1.574 . S
C251 C270 1.368 . S
C251 H275 0.949 . S
H252 C256 0.949 . S
C253 C254 1.349 . S
C253 C255 1.327 . S
C253 H276 0.950 . S
C254 C253 1.349 . S
C254 C266 1.349 . S
C255 C253 1.327 . S
C255 C271 1.429 . S
C255 H277 0.950 . S
C256 H252 0.949 . S
C256 C264 1.574 . S
C256 C272 1.368 . S
H257 C265 0.950 . S
H258 C263 0.950 . S
H259 C264 0.949 . S
H260 C266 0.950 . S
H261 C267 0.950 . S
H262 C268 0.949 . S
C263 H258 0.950 . S
C263 C265 1.327 . S
C263 C269 1.429 . S
C264 C256 1.574 . S
C264 H259 0.949 . S
C264 C270 1.368 . S
C265 C249 1.349 . S
C265 H257 0.950 . S
C265 C263 1.327 . S
C266 C254 1.349 . S
C266 H260 0.950 . S
C266 C267 1.327 . S
C267 H261 0.950 . S
C267 C266 1.327 . S
C267 C271 1.429 . S
C268 C251 1.574 . S
C268 H262 0.949 . S
C268 C272 1.368 . S
C269 C250 1.429 . S
C269 C263 1.429 . S
C269 C270 1.523 . S
C270 C251 1.368 . S
C270 C264 1.368 . S
C270 C269 1.523 . S
C271 C255 1.429 . S
C271 C267 1.429 . S
C271 C272 1.523 . S
C272 C256 1.368 . S
C272 C268 1.368 . S
C272 C271 1.523 . S
H273 C248 0.950 . S
H274 C250 0.950 . S
H275 C251 0.949 . S
H276 C253 0.950 . S
H277 C255 0.950 . S
C278 C279 1.349 . S
C278 C280 1.327 . S
C278 H303 0.950 . S
C279 C278 1.349 . S
C279 C295 1.349 . S
C280 C278 1.327 . S
C280 C299 1.429 . S
C280 H304 0.950 . S
C281 C298 1.574 . S
C281 C300 1.368 . S
C281 H305 0.949 . S
H282 C286 0.949 . S
C283 C284 1.349 . S
C283 C285 1.327 . S
C283 H306 0.950 . S
C284 C283 1.349 . S
C284 C296 1.349 . S
C285 C283 1.327 . S
C285 C301 1.429 . S
C285 H307 0.950 . S
C286 H282 0.949 . S
C286 C294 1.574 . S
C286 C302 1.368 . S
H287 C295 0.950 . S
H288 C293 0.950 . S
H289 C294 0.949 . S
H290 C296 0.950 . S
H291 C297 0.950 . S
H292 C298 0.949 . S
C293 H288 0.950 . S
C293 C295 1.327 . S
C293 C299 1.429 . S
C294 C286 1.574 . S
C294 H289 0.949 . S
C294 C300 1.368 . S
C295 C279 1.349 . S
C295 H287 0.950 . S
C295 C293 1.327 . S
C296 C284 1.349 . S
C296 H290 0.950 . S
C296 C297 1.327 . S
C297 H291 0.950 . S
C297 C296 1.327 . S
C297 C301 1.429 . S
C298 C281 1.574 . S
C298 H292 0.949 . S
C298 C302 1.368 . S
C299 C280 1.429 . S
C299 C293 1.429 . S
C299 C300 1.523 . S
C300 C281 1.368 . S
C300 C294 1.368 . S
C300 C299 1.523 . S
C301 C285 1.429 . S
C301 C297 1.429 . S
C301 C302 1.523 . S
C302 C286 1.368 . S
C302 C298 1.368 . S
C302 C301 1.523 . S
H303 C278 0.950 . S
H304 C280 0.950 . S
H305 C281 0.949 . S
H306 C283 0.950 . S
H307 C285 0.950 . S
C308 C309 1.349 . S
C308 C310 1.327 . S
C308 H333 0.950 1_455 S
C309 C308 1.349 . S
C309 C325 1.349 . S
C310 C308 1.327 . S
C310 C329 1.429 . S
C310 H334 0.950 . S
C311 C328 1.574 . S
C311 C330 1.368 . S
C311 H335 0.949 . S
H312 C316 0.949 . S
C313 C314 1.349 . S
C313 C315 1.327 . S
C313 H336 0.950 . S
C314 C313 1.349 . S
C314 C326 1.349 . S
C315 C313 1.327 . S
C315 C331 1.429 . S
C315 H337 0.950 . S
C316 H312 0.949 . S
C316 C324 1.574 . S
C316 C332 1.368 . S
H317 C325 0.950 . S
H318 C323 0.950 . S
H319 C324 0.949 . S
H320 C326 0.950 . S
H321 C327 0.950 . S
H322 C328 0.949 . S
C323 H318 0.950 . S
C323 C325 1.327 . S
C323 C329 1.429 . S
C324 C316 1.574 . S
C324 H319 0.949 . S
C324 C330 1.368 . S
C325 C309 1.349 . S
C325 H317 0.950 . S
C325 C323 1.327 . S
C326 C314 1.349 . S
C326 H320 0.950 . S
C326 C327 1.327 . S
C327 H321 0.950 . S
C327 C326 1.327 . S
C327 C331 1.429 . S
C328 C311 1.574 . S
C328 H322 0.949 . S
C328 C332 1.368 . S
C329 C310 1.429 . S
C329 C323 1.429 . S
C329 C330 1.523 . S
C330 C311 1.368 . S
C330 C324 1.368 . S
C330 C329 1.523 . S
C331 C315 1.429 . S
C331 C327 1.429 . S
C331 C332 1.523 . S
C332 C316 1.368 . S
C332 C328 1.368 . S
C332 C331 1.523 . S
H333 C308 0.950 1_655 S
H334 C310 0.950 . S
H335 C311 0.949 . S
H336 C313 0.950 . S
H337 C315 0.950 . S
C338 C339 1.349 . S
C338 C340 1.327 . S
C338 H363 0.950 . S
C339 C338 1.349 . S
C339 C355 1.349 . S
C340 C338 1.327 . S
C340 C359 1.429 . S
C340 H364 0.950 . S
C341 C358 1.574 . S
C341 C360 1.368 . S
C341 H365 0.949 . S
H342 C346 0.949 . S
C343 C344 1.349 . S
C343 C345 1.327 1_455 S
C343 H366 0.950 . S
C344 C343 1.349 . S
C344 C356 1.349 . S
C345 C343 1.327 1_655 S
C345 C361 1.429 . S
C345 H367 0.950 . S
C346 H342 0.949 . S
C346 C354 1.574 . S
C346 C362 1.368 . S
H347 C355 0.950 . S
H348 C353 0.950 . S
H349 C354 0.949 . S
H350 C356 0.950 . S
H351 C357 0.950 . S
H352 C358 0.949 . S
C353 H348 0.950 . S
C353 C355 1.327 . S
C353 C359 1.429 . S
C354 C346 1.574 . S
C354 H349 0.949 . S
C354 C360 1.368 . S
C355 C339 1.349 . S
C355 H347 0.950 . S
C355 C353 1.327 . S
C356 C344 1.349 . S
C356 H350 0.950 . S
C356 C357 1.327 1_455 S
C357 H351 0.950 . S
C357 C356 1.327 1_655 S
C357 C361 1.429 . S
C358 C341 1.574 . S
C358 H352 0.949 . S
C358 C362 1.368 . S
C359 C340 1.429 . S
C359 C353 1.429 . S
C359 C360 1.523 . S
C360 C341 1.368 . S
C360 C354 1.368 . S
C360 C359 1.523 . S
C361 C345 1.429 . S
C361 C357 1.429 . S
C361 C362 1.523 . S
C362 C346 1.368 . S
C362 C358 1.368 . S
C362 C361 1.523 . S
H363 C338 0.950 . S
H364 C340 0.950 . S
H365 C341 0.949 . S
H366 C343 0.950 . S
H367 C345 0.950 . S
C368 C369 1.349 . S
C368 C370 1.327 . S
C368 H393 0.950 . S
C369 C368 1.349 . S
C369 C385 1.349 . S
C370 C368 1.327 . S
C370 C389 1.429 . S
C370 H394 0.950 . S
C371 C388 1.574 . S
C371 C390 1.368 . S
C371 H395 0.949 . S
H372 C376 0.949 . S
C373 C374 1.349 . S
C373 C375 1.327 . S
C373 H396 0.950 . S
C374 C373 1.349 . S
C374 C386 1.349 . S
C375 C373 1.327 . S
C375 C391 1.429 . S
C375 H397 0.950 . S
C376 H372 0.949 . S
C376 C384 1.574 . S
C376 C392 1.368 . S
H377 C385 0.950 . S
H378 C383 0.950 . S
H379 C384 0.949 . S
H380 C386 0.950 . S
H381 C387 0.950 . S
H382 C388 0.949 . S
C383 H378 0.950 . S
C383 C385 1.327 . S
C383 C389 1.429 . S
C384 C376 1.574 . S
C384 H379 0.949 . S
C384 C390 1.368 . S
C385 C369 1.349 . S
C385 H377 0.950 . S
C385 C383 1.327 . S
C386 C374 1.349 . S
C386 H380 0.950 . S
C386 C387 1.327 . S
C387 H381 0.950 . S
C387 C386 1.327 . S
C387 C391 1.429 . S
C388 C371 1.574 . S
C388 H382 0.949 . S
C388 C392 1.368 . S
C389 C370 1.429 . S
C389 C383 1.429 . S
C389 C390 1.523 . S
C390 C371 1.368 . S
C390 C384 1.368 . S
C390 C389 1.523 . S
C391 C375 1.429 . S
C391 C387 1.429 . S
C391 C392 1.523 . S
C392 C376 1.368 . S
C392 C388 1.368 . S
C392 C391 1.523 . S
H393 C368 0.950 . S
H394 C370 0.950 . S
H395 C371 0.949 . S
H396 C373 0.950 . S
H397 C375 0.950 . S
C398 C399 1.349 . S
C398 C400 1.327 . S
C398 H423 0.950 . S
C399 C398 1.349 . S
C399 C415 1.349 . S
C400 C398 1.327 . S
C400 C419 1.429 1_455 S
C400 H424 0.935 1_455 S
C401 C418 1.574 . S
C401 C420 1.368 . S
C401 H425 0.949 . S
H402 C406 0.949 . S
C403 C404 1.349 . S
C403 C405 1.327 . S
C403 H426 0.950 . S
C404 C403 1.349 . S
C404 C416 1.349 . S
C405 C403 1.327 . S
C405 C421 1.429 . S
C405 H427 0.950 . S
C406 H402 0.949 . S
C406 C414 1.574 . S
C406 C422 1.368 . S
H407 C415 0.950 . S
H408 C413 0.950 . S
H409 C414 0.949 . S
H410 C416 0.950 . S
H411 C417 0.950 . S
H412 C418 0.949 . S
C413 H408 0.950 . S
C413 C415 1.327 . S
C413 C419 1.429 1_455 S
C414 C406 1.574 . S
C414 H409 0.949 . S
C414 C420 1.368 . S
C415 C399 1.349 . S
C415 H407 0.950 . S
C415 C413 1.327 . S
C416 C404 1.349 . S
C416 H410 0.950 . S
C416 C417 1.327 . S
C417 H411 0.950 . S
C417 C416 1.327 . S
C417 C421 1.429 . S
C418 C401 1.574 . S
C418 H412 0.949 . S
C418 C422 1.368 . S
C419 C400 1.429 1_655 S
C419 C413 1.429 1_655 S
C419 C420 1.523 . S
C420 C401 1.368 . S
C420 C414 1.368 . S
C420 C419 1.523 . S
C421 C405 1.429 . S
C421 C417 1.429 . S
C421 C422 1.523 . S
C422 C406 1.368 . S
C422 C418 1.368 . S
C422 C421 1.523 . S
H423 C398 0.950 . S
H424 C400 0.935 1_655 S
H425 C401 0.949 . S
H426 C403 0.950 . S
H427 C405 0.950 . S
C428 C429 1.349 . S
C428 C430 1.327 . S
C428 H453 0.950 . S
C429 C428 1.349 . S
C429 C445 1.349 . S
C430 C428 1.327 . S
C430 C449 1.429 . S
C430 H454 0.950 . S
C431 C448 1.574 . S
C431 C450 1.368 . S
C431 H455 0.949 . S
H432 C436 0.949 . S
C433 C434 1.349 . S
C433 C435 1.327 . S
C433 H456 0.950 . S
C434 C433 1.349 . S
C434 C446 1.349 . S
C435 C433 1.327 . S
C435 C451 1.429 . S
C435 H457 0.950 . S
C436 H432 0.949 . S
C436 C444 1.574 . S
C436 C452 1.368 . S
H437 C445 0.950 . S
H438 C443 0.950 . S
H439 C444 0.949 . S
H440 C446 0.950 . S
H441 C447 0.950 . S
H442 C448 0.949 . S
C443 H438 0.950 . S
C443 C445 1.327 . S
C443 C449 1.429 . S
C444 C436 1.574 . S
C444 H439 0.949 . S
C444 C450 1.368 . S
C445 C429 1.349 . S
C445 H437 0.950 . S
C445 C443 1.327 . S
C446 C434 1.349 . S
C446 H440 0.950 . S
C446 C447 1.327 . S
C447 H441 0.950 . S
C447 C446 1.327 . S
C447 C451 1.429 . S
C448 C431 1.574 . S
C448 H442 0.949 . S
C448 C452 1.368 . S
C449 C430 1.429 . S
C449 C443 1.429 . S
C449 C450 1.523 . S
C450 C431 1.368 . S
C450 C444 1.368 . S
C450 C449 1.523 . S
C451 C435 1.429 . S
C451 C447 1.429 . S
C451 C452 1.523 . S
C452 C436 1.368 . S
C452 C448 1.368 . S
C452 C451 1.523 . S
H453 C428 0.950 . S
H454 C430 0.950 . S
H455 C431 0.949 . S
H456 C433 0.950 . S
H457 C435 0.950 . S
C458 C459 1.349 . S
C458 C460 1.327 . S
C458 H483 0.950 . S
C459 C458 1.349 . S
C459 C475 1.349 . S
C460 C458 1.327 . S
C460 C479 1.429 . S
C460 H484 0.950 . S
C461 C478 1.574 . S
C461 C480 1.368 . S
C461 H485 0.949 . S
H462 C466 0.949 . S
C463 C464 1.349 . S
C463 C465 1.327 . S
C463 H486 0.950 . S
C464 C463 1.349 . S
C464 C476 1.349 . S
C465 C463 1.327 . S
C465 C481 1.429 . S
C465 H487 0.950 . S
C466 H462 0.949 . S
C466 C474 1.574 . S
C466 C482 1.368 . S
H467 C475 0.950 . S
H468 C473 0.950 . S
H469 C474 0.949 . S
H470 C476 0.950 . S
H471 C477 0.950 . S
H472 C478 0.949 . S
C473 H468 0.950 . S
C473 C475 1.327 . S
C473 C479 1.429 . S
C474 C466 1.574 . S
C474 H469 0.949 . S
C474 C480 1.368 . S
C475 C459 1.349 . S
C475 H467 0.950 . S
C475 C473 1.327 . S
C476 C464 1.349 . S
C476 H470 0.950 . S
C476 C477 1.327 . S
C477 H471 0.950 . S
C477 C476 1.327 . S
C477 C481 1.429 . S
C478 C461 1.574 . S
C478 H472 0.949 . S
C478 C482 1.368 . S
C479 C460 1.429 . S
C479 C473 1.429 . S
C479 C480 1.523 . S
C480 C461 1.368 . S
C480 C474 1.368 . S
C480 C479 1.523 . S
C481 C465 1.429 . S
C481 C477 1.429 . S
C481 C482 1.523 . S
C482 C466 1.368 . S
C482 C478 1.368 . S
C482 C481 1.523 . S
H483 C458 0.950 . S
H484 C460 0.950 . S
H485 C461 0.949 . S
H486 C463 0.950 . S
H487 C465 0.950 . S
C488 C489 1.349 . S
C488 C490 1.327 . S
C488 H513 0.950 . S
C489 C488 1.349 . S
C489 C505 1.349 . S
C490 C488 1.327 . S
C490 C509 1.429 . S
C490 H514 0.950 . S
C491 C508 1.574 . S
C491 C510 1.368 . S
C491 H515 0.949 . S
H492 C496 0.949 . S
C493 C494 1.349 . S
C493 C495 1.327 . S
C493 H516 0.950 . S
C494 C493 1.349 . S
C494 C506 1.349 . S
C495 C493 1.327 . S
C495 C511 1.429 . S
C495 H517 0.950 . S
C496 H492 0.949 . S
C496 C504 1.574 . S
C496 C512 1.368 . S
H497 C505 0.950 . S
H498 C503 0.950 . S
H499 C504 0.949 . S
H500 C506 0.950 . S
H501 C507 0.950 . S
H502 C508 0.949 . S
C503 H498 0.950 . S
C503 C505 1.327 . S
C503 C509 1.429 . S
C504 C496 1.574 . S
C504 H499 0.949 . S
C504 C510 1.368 . S
C505 C489 1.349 . S
C505 H497 0.950 . S
C505 C503 1.327 . S
C506 C494 1.349 . S
C506 H500 0.950 . S
C506 C507 1.327 . S
C507 H501 0.950 . S
C507 C506 1.327 . S
C507 C511 1.429 . S
C508 C491 1.574 . S
C508 H502 0.949 . S
C508 C512 1.368 . S
C509 C490 1.429 . S
C509 C503 1.429 . S
C509 C510 1.523 . S
C510 C491 1.368 . S
C510 C504 1.368 . S
C510 C509 1.523 . S
C511 C495 1.429 . S
C511 C507 1.429 . S
C511 C512 1.523 . S
C512 C496 1.368 . S
C512 C508 1.368 . S
C512 C511 1.523 . S
H513 C488 0.950 . S
H514 C490 0.950 . S
H515 C491 0.949 . S
H516 C493 0.950 . S
H517 C495 0.950 . S
C518 C519 1.349 . S
C518 C520 1.327 . S
C518 H543 0.950 . S
C519 C518 1.349 . S
C519 C535 1.349 . S
C520 C518 1.327 . S
C520 C539 1.429 . S
C520 H544 0.950 . S
C521 C538 1.574 . S
C521 C540 1.368 . S
C521 H545 0.949 . S
H522 C526 0.949 . S
C523 C524 1.349 . S
C523 C525 1.327 . S
C523 H546 0.950 . S
C524 C523 1.349 . S
C524 C536 1.349 . S
C525 C523 1.327 . S
C525 C541 1.429 . S
C525 H547 0.950 . S
C526 H522 0.949 . S
C526 C534 1.574 . S
C526 C542 1.368 . S
H527 C535 0.950 . S
H528 C533 0.950 . S
H529 C534 0.949 . S
H530 C536 0.950 . S
H531 C537 0.950 . S
H532 C538 0.949 . S
C533 H528 0.950 . S
C533 C535 1.327 . S
C533 C539 1.429 . S
C534 C526 1.574 . S
C534 H529 0.949 . S
C534 C540 1.368 . S
C535 C519 1.349 . S
C535 H527 0.950 . S
C535 C533 1.327 . S
C536 C524 1.349 . S
C536 H530 0.950 . S
C536 C537 1.327 . S
C537 H531 0.950 . S
C537 C536 1.327 . S
C537 C541 1.429 . S
C538 C521 1.574 . S
C538 H532 0.949 . S
C538 C542 1.368 . S
C539 C520 1.429 . S
C539 C533 1.429 . S
C539 C540 1.523 . S
C540 C521 1.368 . S
C540 C534 1.368 . S
C540 C539 1.523 . S
C541 C525 1.429 . S
C541 C537 1.429 . S
C541 C542 1.523 . S
C542 C526 1.368 . S
C542 C538 1.368 . S
C542 C541 1.523 . S
H543 C518 0.950 . S
H544 C520 0.950 . S
H545 C521 0.949 . S
H546 C523 0.950 . S
H547 C525 0.950 . S
C548 C549 1.349 . S
C548 C550 1.327 . S
C548 H573 0.950 . S
C549 C548 1.349 . S
C549 C565 1.349 . S
C550 C548 1.327 . S
C550 C569 1.429 . S
C550 H574 0.950 . S
C551 C568 1.574 1_565 S
C551 C570 1.368 . S
C551 H575 0.949 . S
H552 C556 0.949 . S
C553 C554 1.349 . S
C553 C555 1.327 . S
C553 H576 0.950 . S
C554 C553 1.349 . S
C554 C566 1.349 . S
C555 C553 1.327 . S
C555 C571 1.429 . S
C555 H577 0.950 . S
C556 H552 0.949 . S
C556 C564 1.574 1_545 S
C556 C572 1.368 . S
H557 C565 0.950 . S
H558 C563 0.950 . S
H559 C564 0.949 . S
H560 C566 0.950 . S
H561 C567 0.950 . S
H562 C568 0.949 . S
C563 H558 0.950 . S
C563 C565 1.327 . S
C563 C569 1.429 . S
C564 C556 1.574 1_565 S
C564 H559 0.949 . S
C564 C570 1.368 . S
C565 C549 1.349 . S
C565 H557 0.950 . S
C565 C563 1.327 . S
C566 C554 1.349 . S
C566 H560 0.950 . S
C566 C567 1.327 . S
C567 H561 0.950 . S
C567 C566 1.327 . S
C567 C571 1.429 . S
C568 C551 1.574 1_545 S
C568 H562 0.949 . S
C568 C572 1.368 . S
C569 C550 1.429 . S
C569 C563 1.429 . S
C569 C570 1.523 . S
C570 C551 1.368 . S
C570 C564 1.368 . S
C570 C569 1.523 . S
C571 C555 1.429 . S
C571 C567 1.429 . S
C571 C572 1.523 . S
C572 C556 1.368 . S
C572 C568 1.368 . S
C572 C571 1.523 . S
H573 C548 0.950 . S
H574 C550 0.950 . S
H575 C551 0.949 . S
H576 C553 0.950 . S
H577 C555 0.950 . S
C578 C579 1.349 . S
C578 C580 1.327 . S
C578 H603 0.950 . S
C579 C578 1.349 . S
C579 C595 1.349 . S
C580 C578 1.327 . S
C580 C599 1.429 . S
C580 H604 0.950 . S
C581 C598 1.574 . S
C581 C600 1.368 . S
C581 H605 0.949 . S
H582 C586 0.949 . S
C583 C584 1.349 . S
C583 C585 1.327 . S
C583 H606 0.950 . S
C584 C583 1.349 . S
C584 C596 1.349 . S
C585 C583 1.327 . S
C585 C601 1.429 . S
C585 H607 0.950 . S
C586 H582 0.949 . S
C586 C594 1.574 1_565 S
C586 C602 1.368 . S
H587 C595 0.950 . S
H588 C593 0.950 . S
H589 C594 0.949 . S
H590 C596 0.950 . S
H591 C597 0.950 . S
H592 C598 0.949 . S
C593 H588 0.950 . S
C593 C595 1.327 . S
C593 C599 1.429 . S
C594 C586 1.574 1_545 S
C594 H589 0.949 . S
C594 C600 1.368 . S
C595 C579 1.349 . S
C595 H587 0.950 . S
C595 C593 1.327 . S
C596 C584 1.349 . S
C596 H590 0.950 . S
C596 C597 1.327 . S
C597 H591 0.950 . S
C597 C596 1.327 . S
C597 C601 1.429 . S
C598 C581 1.574 . S
C598 H592 0.949 . S
C598 C602 1.368 1_545 S
C599 C580 1.429 . S
C599 C593 1.429 . S
C599 C600 1.523 . S
C600 C581 1.368 . S
C600 C594 1.368 . S
C600 C599 1.523 . S
C601 C585 1.429 . S
C601 C597 1.429 . S
C601 C602 1.523 . S
C602 C586 1.368 . S
C602 C598 1.368 1_565 S
C602 C601 1.523 . S
H603 C578 0.950 . S
H604 C580 0.950 . S
H605 C581 0.949 . S
H606 C583 0.950 . S
H607 C585 0.950 . S
C608 C609 1.349 . S
C608 C610 1.327 . S
C608 H633 0.950 . S
C609 C608 1.349 . S
C609 C625 1.349 . S
C610 C608 1.327 . S
C610 C629 1.429 . S
C610 H634 0.950 . S
C611 C628 1.574 . S
C611 C630 1.368 1_565 S
C611 H635 0.949 1_565 S
H612 C616 0.949 . S
C613 C614 1.349 . S
C613 C615 1.327 . S
C613 H636 0.950 . S
C614 C613 1.349 . S
C614 C626 1.349 . S
C615 C613 1.327 . S
C615 C631 1.429 . S
C615 H637 0.950 . S
C616 H612 0.949 . S
C616 C624 1.574 . S
C616 C632 1.368 . S
H617 C625 0.950 . S
H618 C623 0.950 . S
H619 C624 0.954 . S
H620 C626 0.950 . S
H621 C627 0.950 . S
H622 C628 0.949 . S
C623 H618 0.950 . S
C623 C625 1.327 . S
C623 C629 1.429 . S
C624 C616 1.574 . S
C624 H619 0.954 . S
C624 C630 1.368 1_565 S
C625 C609 1.349 . S
C625 H617 0.950 . S
C625 C623 1.327 . S
C626 C614 1.349 . S
C626 H620 0.950 . S
C626 C627 1.327 . S
C627 H621 0.950 . S
C627 C626 1.327 . S
C627 C631 1.429 . S
C628 C611 1.574 . S
C628 H622 0.949 . S
C628 C632 1.368 . S
C629 C610 1.429 . S
C629 C623 1.429 . S
C629 C630 1.523 . S
C630 C611 1.368 1_545 S
C630 C624 1.368 1_545 S
C630 C629 1.523 . S
C631 C615 1.429 . S
C631 C627 1.429 . S
C631 C632 1.523 . S
C632 C616 1.368 . S
C632 C628 1.368 . S
C632 C631 1.523 . S
H633 C608 0.950 . S
H634 C610 0.950 . S
H635 C611 0.949 1_545 S
H636 C613 0.950 . S
H637 C615 0.950 . S
C638 C639 1.349 . S
C638 C640 1.327 . S
C638 H663 0.950 . S
C639 C638 1.349 . S
C639 C655 1.349 . S
C640 C638 1.327 . S
C640 C659 1.429 . S
C640 H664 0.950 . S
C641 C658 1.574 . S
C641 C660 1.368 . S
C641 H665 0.949 . S
H642 C646 0.949 . S
C643 C644 1.349 . S
C643 C645 1.327 . S
C643 H666 0.950 . S
C644 C643 1.349 . S
C644 C656 1.349 . S
C645 C643 1.327 . S
C645 C661 1.429 . S
C645 H667 0.950 . S
C646 H642 0.949 . S
C646 C654 1.574 . S
C646 C662 1.368 . S
H647 C655 0.950 . S
H648 C653 0.950 . S
H649 C654 0.949 . S
H650 C656 0.950 . S
H651 C657 0.950 . S
H652 C658 0.949 . S
C653 H648 0.950 . S
C653 C655 1.327 . S
C653 C659 1.429 . S
C654 C646 1.574 . S
C654 H649 0.949 . S
C654 C660 1.368 . S
C655 C639 1.349 . S
C655 H647 0.950 . S
C655 C653 1.327 . S
C656 C644 1.349 . S
C656 H650 0.950 . S
C656 C657 1.327 . S
C657 H651 0.950 . S
C657 C656 1.327 . S
C657 C661 1.429 . S
C658 C641 1.574 . S
C658 H652 0.949 . S
C658 C662 1.368 . S
C659 C640 1.429 . S
C659 C653 1.429 . S
C659 C660 1.523 . S
C660 C641 1.368 . S
C660 C654 1.368 . S
C660 C659 1.523 . S
C661 C645 1.429 . S
C661 C657 1.429 . S
C661 C662 1.523 1_545 S
C662 C646 1.368 . S
C662 C658 1.368 . S
C662 C661 1.523 1_565 S
H663 C638 0.950 . S
H664 C640 0.950 . S
H665 C641 0.949 . S
H666 C643 0.950 . S
H667 C645 0.950 . S
C668 C669 1.349 . S
C668 C670 1.327 . S
C668 H693 0.950 . S
C669 C668 1.349 . S
C669 C685 1.349 . S
C670 C668 1.327 . S
C670 C689 1.429 . S
C670 H694 0.950 . S
C671 C688 1.574 . S
C671 C690 1.368 . S
C671 H695 0.949 1_556 S
H672 C676 0.949 . S
C673 C674 1.349 . S
C673 C675 1.327 . S
C673 H696 0.950 . S
C674 C673 1.349 . S
C674 C686 1.349 . S
C675 C673 1.327 . S
C675 C691 1.429 . S
C675 H697 0.950 . S
C676 H672 0.949 . S
C676 C684 1.574 . S
C676 C692 1.368 . S
H677 C685 0.950 . S
H678 C683 0.950 . S
H679 C684 0.949 . S
H680 C686 0.950 . S
H681 C687 0.950 . S
H682 C688 0.949 . S
C683 H678 0.950 . S
C683 C685 1.327 . S
C683 C689 1.429 . S
C684 C676 1.574 . S
C684 H679 0.949 . S
C684 C690 1.368 . S
C685 C669 1.349 . S
C685 H677 0.950 . S
C685 C683 1.327 . S
C686 C674 1.349 . S
C686 H680 0.950 . S
C686 C687 1.327 . S
C687 H681 0.950 . S
C687 C686 1.327 . S
C687 C691 1.429 . S
C688 C671 1.574 . S
C688 H682 0.949 . S
C688 C692 1.368 . S
C689 C670 1.429 . S
C689 C683 1.429 . S
C689 C690 1.523 1_554 S
C690 C671 1.368 . S
C690 C684 1.368 . S
C690 C689 1.523 1_556 S
C691 C675 1.429 . S
C691 C687 1.429 . S
C691 C692 1.523 . S
C692 C676 1.368 . S
C692 C688 1.368 . S
C692 C691 1.523 . S
H693 C668 0.950 . S
H694 C670 0.950 . S
H695 C671 0.949 1_554 S
H696 C673 0.950 . S
H697 C675 0.950 . S
C698 C699 1.349 . S
C698 C700 1.327 . S
C698 H723 0.950 . S
C699 C698 1.349 . S
C699 C715 1.349 . S
C700 C698 1.327 . S
C700 C719 1.429 . S
C700 H724 0.950 . S
C701 C718 1.574 . S
C701 C720 1.368 . S
C701 H725 0.949 . S
H702 C706 0.949 . S
C703 C704 1.349 . S
C703 C705 1.327 . S
C703 H726 0.950 . S
C704 C703 1.349 . S
C704 C716 1.349 . S
C705 C703 1.327 . S
C705 C721 1.429 . S
C705 H727 0.950 . S
C706 H702 0.949 . S
C706 C714 1.574 . S
C706 C722 1.368 . S
H707 C715 0.950 . S
H708 C713 0.950 . S
H709 C714 0.949 . S
H710 C716 0.950 . S
H711 C717 0.950 . S
H712 C718 0.949 . S
C713 H708 0.950 . S
C713 C715 1.327 . S
C713 C719 1.429 . S
C714 C706 1.574 . S
C714 H709 0.949 . S
C714 C720 1.368 . S
C715 C699 1.349 . S
C715 H707 0.950 . S
C715 C713 1.327 . S
C716 C704 1.349 . S
C716 H710 0.950 . S
C716 C717 1.327 . S
C717 H711 0.950 . S
C717 C716 1.327 . S
C717 C721 1.429 . S
C718 C701 1.574 . S
C718 H712 0.949 . S
C718 C722 1.368 . S
C719 C700 1.429 . S
C719 C713 1.429 . S
C719 C720 1.523 . S
C720 C701 1.368 . S
C720 C714 1.368 . S
C720 C719 1.523 . S
C721 C705 1.429 . S
C721 C717 1.429 . S
C721 C722 1.523 . S
C722 C706 1.368 . S
C722 C718 1.368 . S
C722 C721 1.523 . S
H723 C698 0.950 . S
H724 C700 0.950 . S
H725 C701 0.949 . S
H726 C703 0.950 . S
H727 C705 0.950 . S
C728 C729 1.349 . S
C728 C730 1.327 . S
C728 H753 0.950 . S
C729 C728 1.349 . S
C729 C745 1.349 . S
C730 C728 1.327 . S
C730 C749 1.429 . S
C730 H754 0.950 . S
C731 C748 1.574 . S
C731 C750 1.368 . S
C731 H755 0.949 . S
H732 C736 0.949 . S
C733 C734 1.349 . S
C733 C735 1.327 . S
C733 H756 0.950 . S
C734 C733 1.349 . S
C734 C746 1.349 . S
C735 C733 1.327 . S
C735 C751 1.429 . S
C735 H757 0.950 . S
C736 H732 0.949 . S
C736 C744 1.574 . S
C736 C752 1.368 . S
H737 C745 0.950 . S
H738 C743 0.950 . S
H739 C744 0.949 . S
H740 C746 0.950 . S
H741 C747 0.950 . S
H742 C748 0.949 . S
C743 H738 0.950 . S
C743 C745 1.327 . S
C743 C749 1.429 . S
C744 C736 1.574 . S
C744 H739 0.949 . S
C744 C750 1.368 . S
C745 C729 1.349 . S
C745 H737 0.950 . S
C745 C743 1.327 . S
C746 C734 1.349 . S
C746 H740 0.950 . S
C746 C747 1.327 . S
C747 H741 0.950 . S
C747 C746 1.327 . S
C747 C751 1.429 . S
C748 C731 1.574 . S
C748 H742 0.949 . S
C748 C752 1.368 . S
C749 C730 1.429 . S
C749 C743 1.429 . S
C749 C750 1.523 . S
C750 C731 1.368 . S
C750 C744 1.368 . S
C750 C749 1.523 . S
C751 C735 1.429 . S
C751 C747 1.429 . S
C751 C752 1.523 . S
C752 C736 1.368 . S
C752 C748 1.368 . S
C752 C751 1.523 . S
H753 C728 0.950 . S
H754 C730 0.950 . S
H755 C731 0.949 . S
H756 C733 0.950 . S
H757 C735 0.950 . S
C758 C759 1.349 . S
C758 C760 1.327 . S
C758 H783 0.950 . S
C759 C758 1.349 . S
C759 C775 1.349 . S
C760 C758 1.327 . S
C760 C779 1.429 . S
C760 H784 0.950 . S
C761 C778 1.574 . S
C761 C780 1.368 . S
C761 H785 0.949 . S
H762 C766 0.949 . S
C763 C764 1.349 . S
C763 C765 1.327 . S
C763 H786 0.950 . S
C764 C763 1.349 . S
C764 C776 1.349 . S
C765 C763 1.327 . S
C765 C781 1.429 . S
C765 H787 0.950 . S
C766 H762 0.949 . S
C766 C774 1.574 . S
C766 C782 1.368 . S
H767 C775 0.950 . S
H768 C773 0.950 . S
H769 C774 0.949 . S
H770 C776 0.950 . S
H771 C777 0.950 . S
H772 C778 0.949 . S
C773 H768 0.950 . S
C773 C775 1.327 . S
C773 C779 1.429 . S
C774 C766 1.574 . S
C774 H769 0.949 . S
C774 C780 1.368 . S
C775 C759 1.349 . S
C775 H767 0.950 . S
C775 C773 1.327 . S
C776 C764 1.349 . S
C776 H770 0.950 . S
C776 C777 1.327 . S
C777 H771 0.950 . S
C777 C776 1.327 . S
C777 C781 1.429 . S
C778 C761 1.574 . S
C778 H772 0.949 . S
C778 C782 1.368 . S
C779 C760 1.429 . S
C779 C773 1.429 . S
C779 C780 1.523 . S
C780 C761 1.368 . S
C780 C774 1.368 . S
C780 C779 1.523 . S
C781 C765 1.429 . S
C781 C777 1.429 . S
C781 C782 1.523 . S
C782 C766 1.368 . S
C782 C778 1.368 . S
C782 C781 1.523 . S
H783 C758 0.950 . S
H784 C760 0.950 . S
H785 C761 0.949 . S
H786 C763 0.950 . S
H787 C765 0.950 . S
C788 C789 1.349 . S
C788 C790 1.327 . S
C788 H813 0.950 . S
C789 C788 1.349 . S
C789 C805 1.349 . S
C790 C788 1.327 . S
C790 C809 1.429 . S
C790 H814 0.950 . S
C791 C808 1.574 . S
C791 C810 1.368 . S
C791 H815 0.949 . S
H792 C796 0.949 . S
C793 C794 1.349 . S
C793 C795 1.327 . S
C793 H816 0.950 . S
C794 C793 1.349 . S
C794 C806 1.349 . S
C795 C793 1.327 . S
C795 C811 1.429 . S
C795 H817 0.950 . S
C796 H792 0.949 . S
C796 C804 1.574 . S
C796 C812 1.368 . S
H797 C805 0.950 . S
H798 C803 0.950 . S
H799 C804 0.942 1_556 S
H800 C806 0.950 . S
H801 C807 0.950 . S
H802 C808 0.949 . S
C803 H798 0.950 . S
C803 C805 1.327 . S
C803 C809 1.429 . S
C804 C796 1.574 . S
C804 H799 0.942 1_554 S
C804 C810 1.368 . S
C805 C789 1.349 . S
C805 H797 0.950 . S
C805 C803 1.327 . S
C806 C794 1.349 . S
C806 H800 0.950 . S
C806 C807 1.327 . S
C807 H801 0.950 . S
C807 C806 1.327 . S
C807 C811 1.429 . S
C808 C791 1.574 . S
C808 H802 0.949 . S
C808 C812 1.368 . S
C809 C790 1.429 . S
C809 C803 1.429 . S
C809 C810 1.523 1_556 S
C810 C791 1.368 . S
C810 C804 1.368 . S
C810 C809 1.523 1_554 S
C811 C795 1.429 . S
C811 C807 1.429 . S
C811 C812 1.523 . S
C812 C796 1.368 . S
C812 C808 1.368 . S
C812 C811 1.523 . S
H813 C788 0.950 . S
H814 C790 0.950 . S
H815 C791 0.949 . S
H816 C793 0.950 . S
H817 C795 0.950 . S
C818 C819 1.349 . S
C818 C820 1.327 . S
C818 H843 0.950 . S
C819 C818 1.349 . S
C819 C835 1.349 . S
C820 C818 1.327 . S
C820 C839 1.429 . S
C820 H844 0.950 . S
C821 C838 1.574 . S
C821 C840 1.368 . S
C821 H845 0.949 . S
H822 C826 0.949 . S
C823 C824 1.349 . S
C823 C825 1.327 . S
C823 H846 0.950 . S
C824 C823 1.349 . S
C824 C836 1.349 . S
C825 C823 1.327 . S
C825 C841 1.429 . S
C825 H847 0.950 . S
C826 H822 0.949 . S
C826 C834 1.574 . S
C826 C842 1.368 . S
H827 C835 0.950 . S
H828 C833 0.950 . S
H829 C834 0.949 . S
H830 C836 0.950 . S
H831 C837 0.950 . S
H832 C838 0.949 . S
C833 H828 0.950 . S
C833 C835 1.327 . S
C833 C839 1.429 . S
C834 C826 1.574 . S
C834 H829 0.949 . S
C834 C840 1.368 . S
C835 C819 1.349 . S
C835 H827 0.950 . S
C835 C833 1.327 . S
C836 C824 1.349 . S
C836 H830 0.950 . S
C836 C837 1.327 . S
C837 H831 0.950 . S
C837 C836 1.327 . S
C837 C841 1.429 . S
C838 C821 1.574 . S
C838 H832 0.949 . S
C838 C842 1.368 . S
C839 C820 1.429 . S
C839 C833 1.429 . S
C839 C840 1.523 . S
C840 C821 1.368 . S
C840 C834 1.368 . S
C840 C839 1.523 . S
C841 C825 1.429 . S
C841 C837 1.429 . S
C841 C842 1.523 . S
C842 C826 1.368 . S
C842 C838 1.368 . S
C842 C841 1.523 . S
H843 C818 0.950 . S
H844 C820 0.950 . S
H845 C821 0.949 . S
H846 C823 0.950 . S
H847 C825 0.950 . S
C848 C849 1.349 . S
C848 C850 1.327 . S
C848 H873 0.950 . S
C849 C848 1.349 . S
C849 C865 1.349 . S
C850 C848 1.327 . S
C850 C869 1.429 . S
C850 H874 0.950 . S
C851 C868 1.574 . S
C851 C870 1.368 . S
C851 H875 0.949 . S
H852 C856 0.949 . S
C853 C854 1.349 . S
C853 C855 1.327 . S
C853 H876 0.950 . S
C854 C853 1.349 . S
C854 C866 1.349 . S
C855 C853 1.327 . S
C855 C871 1.429 . S
C855 H877 0.950 . S
C856 H852 0.949 . S
C856 C864 1.574 . S
C856 C872 1.368 . S
H857 C865 0.950 . S
H858 C863 0.950 . S
H859 C864 0.949 . S
H860 C866 0.950 . S
H861 C867 0.950 . S
H862 C868 0.949 . S
C863 H858 0.950 . S
C863 C865 1.327 . S
C863 C869 1.429 . S
C864 C856 1.574 . S
C864 H859 0.949 . S
C864 C870 1.368 . S
C865 C849 1.349 . S
C865 H857 0.950 . S
C865 C863 1.327 . S
C866 C854 1.349 . S
C866 H860 0.950 . S
C866 C867 1.327 . S
C867 H861 0.950 . S
C867 C866 1.327 . S
C867 C871 1.429 . S
C868 C851 1.574 . S
C868 H862 0.949 . S
C868 C872 1.368 . S
C869 C850 1.429 . S
C869 C863 1.429 . S
C869 C870 1.523 . S
C870 C851 1.368 . S
C870 C864 1.368 . S
C870 C869 1.523 . S
C871 C855 1.429 . S
C871 C867 1.429 . S
C871 C872 1.523 . S
C872 C856 1.368 . S
C872 C868 1.368 . S
C872 C871 1.523 . S
H873 C848 0.950 . S
H874 C850 0.950 . S
H875 C851 0.949 . S
H876 C853 0.950 . S
H877 C855 0.950 . S
C878 C879 1.349 . S
C878 C880 1.327 . S
C878 H903 0.950 . S
C879 C878 1.349 . S
C879 C895 1.349 . S
C880 C878 1.327 . S
C880 C899 1.429 . S
C880 H904 0.950 . S
C881 C898 1.574 . S
C881 C900 1.368 . S
C881 H905 0.949 . S
H882 C886 0.949 . S
C883 C884 1.349 . S
C883 C885 1.327 . S
C883 H906 0.950 . S
C884 C883 1.349 . S
C884 C896 1.349 . S
C885 C883 1.327 . S
C885 C901 1.429 . S
C885 H907 0.950 . S
C886 H882 0.949 . S
C886 C894 1.574 . S
C886 C902 1.368 . S
H887 C895 0.950 . S
H888 C893 0.950 . S
H889 C894 0.949 . S
H890 C896 0.950 . S
H891 C897 0.950 . S
H892 C898 0.949 . S
C893 H888 0.950 . S
C893 C895 1.327 . S
C893 C899 1.429 . S
C894 C886 1.574 . S
C894 H889 0.949 . S
C894 C900 1.368 . S
C895 C879 1.349 . S
C895 H887 0.950 . S
C895 C893 1.327 . S
C896 C884 1.349 . S
C896 H890 0.950 . S
C896 C897 1.327 . S
C897 H891 0.950 . S
C897 C896 1.327 . S
C897 C901 1.429 . S
C898 C881 1.574 . S
C898 H892 0.949 . S
C898 C902 1.368 . S
C899 C880 1.429 . S
C899 C893 1.429 . S
C899 C900 1.523 . S
C900 C881 1.368 . S
C900 C894 1.368 . S
C900 C899 1.523 . S
C901 C885 1.429 . S
C901 C897 1.429 . S
C901 C902 1.523 . S
C902 C886 1.368 . S
C902 C898 1.368 . S
C902 C901 1.523 . S
H903 C878 0.950 . S
H904 C880 0.950 . S
H905 C881 0.949 . S
H906 C883 0.950 . S
H907 C885 0.950 . S
C194 C111 1.521 . S
C189 C4 1.519 . S
C224 C129 1.350 . S
C219 C17 1.354 1_655 S
C249 C34 1.291 . S
C254 C153 1.189 . S
C284 C183 1.272 1_655 S
C279 C47 1.401 . S
C314 C171 1.256 . S
C309 C56 1.322 . S
C339 C69 1.373 . S
C344 C124 1.378 . S
C369 C86 1.566 . S
C374 C144 1.446 . S
C399 C99 1.391 . S
C404 C149 1.249 . S
C429 C95 1.362 . S
C434 C165 1.367 . S
C459 C73 1.395 . S
C464 C120 1.250 . S
C494 C187 1.362 . S
C489 C43 1.360 . S
C524 C132 1.273 . S
C519 C21 1.410 . S
C549 C30 1.513 . S
C554 C150 1.517 . S
C579 C8 1.303 . S
C584 C108 1.200 . S
C614 C128 1.255 . S
C609 C82 1.312 . S
C644 C174 1.448 . S
C639 C60 1.576 . S
C674 C170 1.356 . S
C669 C9 1.574 . S
C704 C123 1.383 . S
C699 C22 1.454 . S
C729 C35 1.560 . S
C734 C145 1.337 . S
C759 C48 1.479 . S
C764 C166 1.405 . S
C794 C107 1.386 . S
C789 C61 1.519 . S
C819 C74 1.554 . S
C824 C141 1.490 . S
C854 C162 1.404 . S
C849 C87 1.540 . S
C884 C186 1.462 . S
C879 C100 1.527 . S
