# Generated by pormake.
# Topology anh, (6,3)-cn, num edge types: 1
# Building blocks:
#     Node 0, Type 0, BuildingBlock: BETFEN_clean_sbu_0, # of connection points: 6
#     Node 1, Type 0, BuildingBlock: BETFEN_clean_sbu_0, # of connection points: 6
#     Node 2, Type 0, BuildingBlock: BETFEN_clean_sbu_0, # of connection points: 6
#     Node 3, Type 1, BuildingBlock: VETTIZ_charged_linker_0, # of connection points: 3
#     Node 4, Type 1, BuildingBlock: VETTIZ_charged_linker_0, # of connection points: 3
#     Node 5, Type 1, BuildingBlock: VETTIZ_charged_linker_0, # of connection points: 3
#     Node 6, Type 1, BuildingBlock: VETTIZ_charged_linker_0, # of connection points: 3
#     Node 7, Type 1, BuildingBlock: VETTIZ_charged_linker_0, # of connection points: 3
#     Node 8, Type 1, BuildingBlock: VETTIZ_charged_linker_0, # of connection points: 3
#     Edge 9, Type (0, 1), BuildingBlock: AJUNOK_clean_linker_0, # of connection points: 2
#     Edge 10, Type (0, 1), BuildingBlock: AJUNOK_clean_linker_0, # of connection points: 2
#     Edge 11, Type (0, 1), BuildingBlock: AJUNOK_clean_linker_0, # of connection points: 2
#     Edge 12, Type (0, 1), BuildingBlock: AJUNOK_clean_linker_0, # of connection points: 2
#     Edge 13, Type (0, 1), BuildingBlock: AJUNOK_clean_linker_0, # of connection points: 2
#     Edge 14, Type (0, 1), BuildingBlock: AJUNOK_clean_linker_0, # of connection points: 2
#     Edge 15, Type (0, 1), BuildingBlock: AJUNOK_clean_linker_0, # of connection points: 2
#     Edge 16, Type (0, 1), BuildingBlock: AJUNOK_clean_linker_0, # of connection points: 2
#     Edge 17, Type (0, 1), BuildingBlock: AJUNOK_clean_linker_0, # of connection points: 2
#     Edge 18, Type (0, 1), BuildingBlock: AJUNOK_clean_linker_0, # of connection points: 2
#     Edge 19, Type (0, 1), BuildingBlock: AJUNOK_clean_linker_0, # of connection points: 2
#     Edge 20, Type (0, 1), BuildingBlock: AJUNOK_clean_linker_0, # of connection points: 2
#     Edge 21, Type (0, 1), BuildingBlock: AJUNOK_clean_linker_0, # of connection points: 2
#     Edge 22, Type (0, 1), BuildingBlock: AJUNOK_clean_linker_0, # of connection points: 2
#     Edge 23, Type (0, 1), BuildingBlock: AJUNOK_clean_linker_0, # of connection points: 2
#     Edge 24, Type (0, 1), BuildingBlock: AJUNOK_clean_linker_0, # of connection points: 2
#     Edge 25, Type (0, 1), BuildingBlock: AJUNOK_clean_linker_0, # of connection points: 2
#     Edge 26, Type (0, 1), BuildingBlock: AJUNOK_clean_linker_0, # of connection points: 2
# Relax obj value: 0.217
# Max RMSD: 0.225
# Mean RMSD: 0.167
data_MOF--net-anh--node1-BETFEN_clean_sbu_0--node2-VETTIZ_charged_linker_0--edge1-AJUNOK_clean_linker_0
_symmetry_space_group_name_H-M    P1
_symmetry_Int_Tables_number       1
_symmetry_cell_setting            triclinic
loop_
_symmetry_equiv_pos_as_xyz
'x, y, z'
_cell_length_a     27.451558
_cell_length_b     29.346699
_cell_length_c     53.088027
_cell_angle_alpha  90.736264
_cell_angle_beta   91.600092
_cell_angle_gamma 102.845
loop_
_atom_site_label
_atom_site_type_symbol
_atom_site_fract_x
_atom_site_fract_y
_atom_site_fract_z
_atom_type_partial_charge
Pr0 Pr 0.0674 0.54248 0.15719 0.0
Pr1 Pr 0.09123 0.64462 0.14525 0.0
C2 C 1.03364 0.45623 0.1753 0.0
C3 C 0.9865 0.42125 0.17777 0.0
C4 C 0.98464 0.37455 0.17098 0.0
C5 C 0.94109 0.34026 0.17413 0.0
C6 C 0.89856 0.35215 0.18405 0.0
C7 C 0.90012 0.39912 0.19037 0.0
C8 C 0.94373 0.43344 0.18723 0.0
C9 C 0.07643 0.56039 0.10587 0.0
C10 C 0.97195 0.59619 0.1486 0.0
C11 C 0.12572 0.73024 0.12643 0.0
C12 C 0.17155 0.76729 0.12919 0.0
C13 C 0.1682 0.81426 0.12924 0.0
C14 C 0.21065 0.84976 0.13447 0.0
C15 C 0.25719 0.83881 0.13971 0.0
C16 C 0.26063 0.79174 0.13888 0.0
C17 C 0.2182 0.75629 0.13366 0.0
C18 C 0.08189 0.62746 0.19654 0.0
C19 C 0.18686 0.59015 0.15387 0.0
O20 O 1.04033 0.49438 0.18924 0.0
O21 O 0.04991 0.46366 0.1525 0.0
O22 O 0.05355 0.58114 0.12094 0.0
O23 O 0.09442 0.52839 0.11706 0.0
O24 O 1.00434 0.63051 0.13831 0.0
O25 O 0.98741 0.56108 0.1592 0.0
O26 O 0.12941 0.69157 0.11481 0.0
O27 O 0.09828 0.72295 0.14633 0.0
O28 O 0.10473 0.60615 0.18167 0.0
O29 O 0.06531 0.66016 0.18523 0.0
O30 O 0.15443 0.55357 0.16205 0.0
O31 O 0.17188 0.62713 0.14528 0.0
H32 H 1.01721 0.36447 0.16361 0.0
H33 H 0.94085 0.30428 0.16917 0.0
H34 H 0.86824 0.40906 0.19859 0.0
H35 H 0.94427 0.46924 0.19266 0.0
H36 H 0.13246 0.8234 0.12592 0.0
H37 H 0.20692 0.88574 0.13498 0.0
H38 H 0.2957 0.78218 0.14333 0.0
H39 H 0.22156 0.72024 0.13385 0.0
Pr40 Pr 0.60392 0.09038 0.50656 0.0
Pr41 Pr 0.49491 0.06903 0.51418 0.0
C42 C 0.69629 0.1238 0.4893 0.0
C43 C 0.73201 0.16871 0.48545 0.0
C44 C 0.74144 0.20479 0.50384 0.0
C45 C 0.77612 0.24672 0.49961 0.0
C46 C 0.80162 0.25343 0.47684 0.0
C47 C 0.79153 0.2173 0.45846 0.0
C48 C 0.75724 0.17546 0.46275 0.0
C49 C 0.57879 0.08406 0.55693 0.0
C50 C 0.5465 0.18514 0.51195 0.0
C51 C 0.40194 1.02996 0.52862 0.0
C52 C 0.36856 0.98414 0.5224 0.0
C53 C 0.37019 0.96295 0.49866 0.0
C54 C 0.34053 0.91861 0.49306 0.0
C55 C 0.30925 0.89392 0.51123 0.0
C56 C 0.30744 0.9153 0.53496 0.0
C57 C 0.33698 0.96001 0.54052 0.0
C58 C 0.5191 0.07328 0.46374 0.0
C59 C 0.55326 0.97428 0.51049 0.0
O60 O 0.65601 0.11481 0.47467 0.0
O61 O 0.68801 0.11024 0.51248 0.0
O62 O 0.55891 0.10504 0.54039 0.0
O63 O 0.61472 0.06696 0.54799 0.0
O64 O 0.50698 0.1535 0.51963 0.0
O65 O 0.58572 0.16905 0.5041 0.0
O66 O 0.44195 1.02862 0.5423 0.0
O67 O 0.41098 0.05956 0.51017 0.0
O68 O 0.53943 1.05294 0.48045 0.0
O69 O 0.48426 0.09166 0.47276 0.0
O70 O 0.59405 1.00566 0.50409 0.0
O71 O 0.51303 0.9906 0.51637 0.0
H72 H 0.72226 0.20052 0.5215 0.0
H73 H 0.78351 0.27351 0.5143 0.0
H74 H 0.80999 0.2215 0.4406 0.0
H75 H 0.75038 0.14824 0.44826 0.0
H76 H 0.39463 0.9806 0.48442 0.0
H77 H 0.34187 0.90379 0.47438 0.0
H78 H 0.28374 0.89718 0.54934 0.0
H79 H 0.33559 0.97552 0.55904 0.0
Pr80 Pr 0.55299 0.534 0.81786 0.0
Pr81 Pr 0.56552 0.63425 0.82921 0.0
C82 C 0.53776 0.44329 0.80565 0.0
C83 C 0.55794 0.407 0.81835 0.0
C84 C 0.55906 0.40466 0.84484 0.0
C85 C 0.57793 0.36994 0.85684 0.0
C86 C 0.59683 0.33767 0.84257 0.0
C87 C 0.5979 0.3415 0.81617 0.0
C88 C 0.57853 0.37591 0.80416 0.0
C89 C 0.56551 0.55541 0.86935 0.0
C90 C 0.66943 0.59227 0.82491 0.0
C91 C 0.57339 0.72062 0.84775 0.0
C92 C 0.53227 0.74532 0.84817 0.0
C93 C 0.53789 0.78809 0.83597 0.0
C94 C 0.49578 0.80393 0.82812 0.0
C95 C 0.44759 0.77717 0.83238 0.0
C96 C 0.44197 0.73732 0.84714 0.0
C97 C 0.48412 0.72131 0.85493 0.0
C98 C 0.54915 0.61216 0.77785 0.0
C99 C 0.44973 0.57642 0.8198 0.0
O100 O 0.57038 0.47501 0.79427 0.0
O101 O 0.50567 0.46063 0.81827 0.0
O102 O 0.53792 0.57169 0.85426 0.0
O103 O 0.58781 0.52698 0.85796 0.0
O104 O 0.64957 0.62594 0.83417 0.0
O105 O 0.64025 0.55434 0.81471 0.0
O106 O 0.56905 0.68439 0.86231 0.0
O107 O 0.58788 0.71271 0.82514 0.0
O108 O 0.57814 0.59611 0.79233 0.0
O109 O 0.52878 0.6419 0.78954 0.0
O110 O 0.46982 0.54337 0.81001 0.0
O111 O 0.47824 0.61347 0.8311 0.0
H112 H 0.54437 0.42901 0.8563 0.0
H113 H 0.57615 0.3672 0.87714 0.0
H114 H 0.61108 0.31619 0.80469 0.0
H115 H 0.5787 0.37763 0.78379 0.0
H116 H 0.57448 0.80705 0.83051 0.0
H117 H 0.50071 0.83541 0.81714 0.0
H118 H 0.40511 0.71661 0.85089 0.0
H119 H 0.47857 0.68815 0.86437 0.0
C120 C 0.69065 0.18626 0.20481 0.0
C121 C 0.72953 0.2154 0.21912 0.0
C122 C 0.72953 0.21339 0.24557 0.0
C123 C 0.65333 0.15328 0.24337 0.0
C124 C 0.6531 0.15519 0.21736 0.0
C125 C 0.60977 0.12008 0.2054 0.0
H126 H 0.40347 0.94675 0.22081 0.0
C127 C 0.61035 0.11666 0.25067 0.0
C128 C 0.58473 0.0966 0.22856 0.0
H129 H 0.46204 1.00582 0.15081 0.0
H130 H 0.53067 1.05744 0.17371 0.0
H131 H 0.50717 0.9403 0.24641 0.0
H132 H 0.41958 1.0447 0.25097 0.0
H133 H 0.4409 1.03612 0.28167 0.0
H134 H 0.401 0.98801 0.26457 0.0
H135 H 0.45222 0.93231 0.26485 0.0
H136 H 0.51302 0.96111 0.27775 0.0
C137 C 0.63091 0.08571 0.18881 0.0
C138 C 0.57593 0.14719 0.19087 0.0
C139 C 0.57675 0.08986 0.34345 0.0
C140 C 0.54056 1.05777 0.35608 0.0
C141 C 0.50589 1.02342 0.34226 0.0
C142 C 0.50641 1.02184 0.31588 0.0
C143 C 0.54206 1.05499 0.30329 0.0
C144 C 0.57706 0.0876 0.31711 0.0
C145 C 0.61332 0.11879 0.30066 0.0
C146 C 0.59331 0.10054 0.27463 0.0
C147 C 0.55137 0.06356 0.27629 0.0
C148 C 0.6663 0.11024 0.30646 0.0
C149 C 0.60839 0.16981 0.3053 0.0
C150 C 0.43104 0.97091 0.21042 0.0
C151 C 0.4275 0.97227 0.18403 0.0
C152 C 0.46436 1.00384 0.17115 0.0
C153 C 0.50391 1.03394 0.18449 0.0
C154 C 0.50656 1.03246 0.21098 0.0
C155 C 0.4705 1.00109 0.22343 0.0
C156 C 0.47852 1.00441 0.25153 0.0
C157 C 0.52522 1.04317 0.25404 0.0
C158 C 0.54165 0.05959 0.23027 0.0
C159 C 0.4879 0.95713 0.26083 0.0
C160 C 0.43267 1.01875 0.26301 0.0
H161 H 0.69393 0.18294 0.27794 0.0
H162 H 0.69018 0.18691 0.18441 0.0
H163 H 0.57351 0.17958 0.20143 0.0
H164 H 0.53694 0.12725 0.18841 0.0
H165 H 0.59097 0.15765 0.17208 0.0
H166 H 0.66468 0.07741 0.19807 0.0
H167 H 0.64184 0.10097 0.17021 0.0
H168 H 0.60453 1.05164 0.1858 0.0
H169 H 0.60395 0.11632 0.35386 0.0
H170 H 0.47778 0.99847 0.35191 0.0
H171 H 0.47866 0.99527 0.3063 0.0
H172 H 0.66453 0.07493 0.31428 0.0
H173 H 0.68736 0.13625 0.32045 0.0
H174 H 0.68853 0.11087 0.28934 0.0
H175 H 0.56846 0.17129 0.30702 0.0
H176 H 0.62207 0.19319 0.28968 0.0
H177 H 0.62859 0.18465 0.32301 0.0
H178 H 0.75906 0.23579 0.25687 0.0
C179 C 0.69167 0.18266 0.25776 0.0
C180 C 0.55193 0.72233 0.50969 0.0
C181 C 0.55501 0.76643 0.52383 0.0
C182 C 0.56102 0.76351 0.54999 0.0
C183 C 0.5571 0.6787 0.54862 0.0
C184 C 0.55349 0.67839 0.52269 0.0
C185 C 0.5516 0.62652 0.51323 0.0
H186 H 0.53276 0.38984 0.55843 0.0
C187 C 0.55435 0.62987 0.55802 0.0
C188 C 0.55201 0.59688 0.53777 0.0
H189 H 0.56411 0.42278 0.48112 0.0
H190 H 0.56385 0.5066 0.49038 0.0
H191 H 0.61393 0.46918 0.57805 0.0
H192 H 0.45574 0.45277 0.56753 0.0
H193 H 0.47021 0.48261 0.59651 0.0
H194 H 0.48344 0.42541 0.59245 0.0
H195 H 0.57043 0.43676 0.59938 0.0
H196 H 0.59692 0.49839 0.60408 0.0
C197 C 0.59789 0.62567 0.49784 0.0
C198 C 0.50356 0.60775 0.49739 0.0
C199 C 0.54546 0.6149 0.65315 0.0
C200 C 0.53804 0.57692 0.66946 0.0
C201 C 0.53186 0.5315 0.65915 0.0
C202 C 0.53287 0.52414 0.63301 0.0
C203 C 0.54069 0.56266 0.61677 0.0
C204 C 0.54636 0.60687 0.62711 0.0
C205 C 0.55305 0.64364 0.6075 0.0
C206 C 0.55088 0.61456 0.58332 0.0
C207 C 0.54436 0.56723 0.58883 0.0
C208 C 0.60571 0.67606 0.61235 0.0
C209 C 0.5081 0.66784 0.60923 0.0
C210 C 0.53884 0.41391 0.54294 0.0
C211 C 0.54763 0.39689 0.51893 0.0
C212 C 0.55697 0.43268 0.50013 0.0
C213 C 0.5566 0.48175 0.50541 0.0
C214 C 0.54781 0.49749 0.53006 0.0
C215 C 0.5402 0.46224 0.54796 0.0
C216 C 0.53706 0.48142 0.5737 0.0
C217 C 0.54338 0.53339 0.56933 0.0
C218 C 0.54842 0.54599 0.54346 0.0
C219 C 0.58142 0.47081 0.58983 0.0
C220 C 0.48417 0.45937 0.5833 0.0
H221 H 0.56683 0.72483 0.58197 0.0
H222 H 0.54789 0.72196 0.48936 0.0
H223 H 0.4702 0.60879 0.50859 0.0
H224 H 0.50135 0.57097 0.49126 0.0
H225 H 0.50247 0.6292 0.48037 0.0
H226 H 0.63256 0.63935 0.50941 0.0
H227 H 0.59861 0.6477 0.48092 0.0
H228 H 0.59796 0.58948 0.49155 0.0
H229 H 0.55117 0.65038 0.66047 0.0
H230 H 0.52596 0.50157 0.67135 0.0
H231 H 0.52774 0.48857 0.62664 0.0
H232 H 0.63228 0.65684 0.62115 0.0
H233 H 0.60402 0.70581 0.62519 0.0
H234 H 0.6238 0.68968 0.59475 0.0
H235 H 0.47503 0.64467 0.61759 0.0
H236 H 0.49388 0.67627 0.59056 0.0
H237 H 0.51792 0.70018 0.62112 0.0
H238 H 0.56425 0.79466 0.5617 0.0
C239 C 0.56234 0.72157 0.56201 0.0
C240 C 0.19815 0.57229 0.83348 0.0
C241 C 0.24398 0.56765 0.84534 0.0
C242 C 0.24685 0.56652 0.87177 0.0
C243 C 0.16108 0.57435 0.8746 0.0
C244 C 0.1567 0.57507 0.84862 0.0
C245 C 0.10369 0.5782 0.84033 0.0
H246 H 0.87006 0.59824 0.87989 0.0
C247 C 0.11307 0.57824 0.88544 0.0
C248 C 0.07827 0.58046 0.86565 0.0
H249 H 0.91017 0.58728 0.80252 0.0
H250 H 0.99508 0.58245 0.81639 0.0
H251 H 0.91697 0.51907 0.89882 0.0
H252 H 0.96936 0.66804 0.89888 0.0
H253 H 0.98838 0.65006 0.92822 0.0
H254 H 0.92265 0.63871 0.91968 0.0
H255 H 0.89675 0.55655 0.92128 0.0
H256 H 0.95117 0.53283 0.9273 0.0
C257 C 0.07938 0.53359 0.82504 0.0
C258 C 0.1063 0.62306 0.82524 0.0
C259 C 0.10216 0.58063 0.98101 0.0
C260 C 0.06294 0.58217 -0.00274 0.0
C261 C 1.01658 0.58684 0.98684 0.0
C262 C 1.00901 0.58873 0.96071 0.0
C263 C 0.04812 0.58572 0.94463 0.0
C264 C 0.09375 0.58203 0.9549 0.0
C265 C 0.13068 0.57846 0.93502 0.0
C266 C 0.09957 0.58034 0.91102 0.0
C267 C 0.05148 0.5847 0.9168 0.0
C268 C 0.14538 0.53054 0.9378 0.0
C269 C 0.17475 0.62184 0.93817 0.0
C270 C 0.89704 0.59532 0.86577 0.0
C271 C 0.8834 0.59405 0.84014 0.0
C272 C 0.91967 0.58869 0.82249 0.0
C273 C 0.96886 0.58587 0.83055 0.0
C274 C 0.98177 0.58755 0.85655 0.0
C275 C 0.94531 0.5919 0.87342 0.0
C276 C 0.96279 0.5916 0.90025 0.0
C277 C 1.01598 0.58683 0.89723 0.0
C278 C 1.02832 0.58459 0.87161 0.0
C279 C 0.93028 0.54811 0.91278 0.0
C280 C 0.9605 0.63929 0.91264 0.0
H281 H 0.2121 0.56913 0.90626 0.0
H282 H 0.19462 0.57314 0.81314 0.0
H283 H 0.12818 0.65391 0.83607 0.0
H284 H 0.06886 0.62969 0.82119 0.0
H285 H 0.12474 0.62079 0.80704 0.0
H286 H 0.08361 0.50198 0.83544 0.0
H287 H 0.09734 0.53307 0.80656 0.0
H288 H 1.03897 0.53042 0.82157 0.0
H289 H 0.13859 0.57801 0.9884 0.0
H290 H 0.98569 0.58796 -0.00108 0.0
H291 H 0.97266 0.59187 0.95411 0.0
H292 H 0.11496 0.50413 0.94621 0.0
H293 H 0.17933 0.53363 0.95014 0.0
H294 H 0.15144 0.51464 0.91947 0.0
H295 H 0.16141 0.65307 0.9446 0.0
H296 H 0.19338 0.63254 0.92033 0.0
H297 H 0.20299 0.61573 0.95237 0.0
H298 H 0.28132 0.56357 0.88141 0.0
C299 C 0.20628 0.56997 0.88628 0.0
C300 C 0.96691 0.45946 0.45802 0.0
C301 C 0.93987 0.42024 0.44415 0.0
C302 C 0.9436 0.41893 0.4178 0.0
C303 C 1.0004 0.49495 0.41915 0.0
C304 C 0.99741 0.49625 0.44512 0.0
C305 C 1.03088 0.53994 0.45659 0.0
H306 H 0.20408 0.74173 0.43826 0.0
C307 C 1.03528 0.53795 0.41136 0.0
C308 C 0.05386 0.56451 0.43321 0.0
H309 H 0.14642 0.68807 0.50936 0.0
H310 H 0.09163 0.62164 0.48758 0.0
H311 H 0.21299 0.64382 0.41285 0.0
H312 H 0.10183 0.72603 0.41075 0.0
H313 H 0.09737 0.69886 0.38093 0.0
H314 H 0.15494 0.73861 0.39105 0.0
H315 H 0.22061 0.69881 0.39731 0.0
H316 H 0.19206 0.64456 0.38127 0.0
C317 C 0.07052 0.52519 0.47402 0.0
C318 C 0.9978 0.56822 0.47018 0.0
C319 C 0.06102 0.56913 0.3179 0.0
C320 C 0.08875 0.60747 0.30513 0.0
C321 C 0.1196 0.64453 0.31901 0.0
C322 C 0.12211 0.64405 0.34534 0.0
C323 C 0.09307 0.60626 0.35803 0.0
C324 C 0.06341 0.56948 0.34436 0.0
C325 C 1.03426 0.53303 0.3612 0.0
C326 C 0.05068 0.55453 0.38716 0.0
C327 C 0.08524 0.59718 0.3851 0.0
C328 C 0.05156 0.48678 0.35678 0.0
C329 C 0.97786 0.52966 0.35556 0.0
C330 C 0.18008 0.71533 0.44916 0.0
C331 C 0.18013 0.71937 0.47548 0.0
C332 C 0.14721 0.68524 0.48902 0.0
C333 C 0.11566 0.64678 0.47635 0.0
C334 C 0.11677 0.64284 0.44988 0.0
C335 C 0.14831 0.67731 0.43685 0.0
C336 C 0.14349 0.6694 0.40888 0.0
C337 C 0.10495 0.62367 0.40706 0.0
C338 C 0.08928 0.60783 0.43105 0.0
C339 C 0.19488 0.66413 0.39935 0.0
C340 C 0.12374 0.71029 0.3971 0.0
H341 H 0.97448 0.45274 0.38515 0.0
H342 H 0.96505 0.46097 0.47835 0.0
H343 H 0.96292 0.56764 0.45886 0.0
H344 H 1.01608 0.60552 0.47275 0.0
H345 H 0.98691 0.5533 0.48886 0.0
H346 H 0.08475 0.49642 0.46507 0.0
H347 H 0.05435 0.51249 0.49227 0.0
H348 H 0.10376 0.55359 0.4778 0.0
H349 H 1.0368 0.54037 0.30756 0.0
H350 H 0.14138 0.67422 0.30938 0.0
H351 H 0.14614 0.67349 0.35477 0.0
H352 H 0.0909 0.49358 0.35063 0.0
H353 H 1.02795 0.46456 0.34197 0.0
H354 H 0.05165 0.46642 0.37416 0.0
H355 H 0.97042 0.565 0.35258 0.0
H356 H 0.95399 0.51514 0.37121 0.0
H357 H 0.96489 0.50827 0.33824 0.0
H358 H 0.92301 0.38905 0.40684 0.0
C359 C 0.97348 0.45599 0.40525 0.0
C360 C 0.35294 0.91949 0.801 0.0
C361 C 0.3318 0.8817 0.78471 0.0
C362 C 0.32551 0.89099 0.75894 0.0
C363 C 0.38276 0.96629 0.76508 0.0
C364 C 0.38064 0.96032 0.79084 0.0
C365 C 0.41947 0.99591 0.80526 0.0
H366 H 0.6146 0.17962 0.80442 0.0
C367 C 0.42556 1.00547 0.76036 0.0
C368 C 0.44706 1.02266 0.78392 0.0
H369 H 0.53724 0.11465 0.86913 0.0
H370 H 0.48619 1.05533 0.84188 0.0
H371 H 0.62236 0.08208 0.77614 0.0
H372 H 0.52458 0.17721 0.77094 0.0
H373 H 0.5348 0.16093 0.73989 0.0
H374 H 0.58712 0.19009 0.75967 0.0
H375 H 0.63802 0.13482 0.7586 0.0
H376 H 0.60356 0.0806 0.74426 0.0
C377 C 0.45356 0.97017 0.82092 0.0
C378 C 0.39204 1.02655 0.82108 0.0
C379 C 0.48387 1.04204 0.67104 0.0
C380 C 0.52625 0.0726 0.66187 0.0
C381 C 0.55961 0.10219 0.6787 0.0
C382 C 0.55126 0.10125 0.70453 0.0
C383 C 0.5094 0.06993 0.71366 0.0
C384 C 0.47635 1.04105 0.69707 0.0
C385 C 0.43559 1.0083 0.71057 0.0
C386 C 0.44923 1.02309 0.73789 0.0
C387 C 0.49269 0.05893 0.73943 0.0
C388 C 0.44058 0.95761 0.70493 0.0
C389 C 0.3847 1.01837 0.70214 0.0
C390 C 0.58859 0.15142 0.81308 0.0
C391 C 0.58015 0.15196 0.83912 0.0
C392 C 0.54443 0.11513 0.84916 0.0
C393 C 0.5143 0.08118 0.83322 0.0
C394 C 0.5204 0.08382 0.807 0.0
C395 C 0.5583 0.11751 0.79748 0.0
C396 C 0.55879 0.11596 0.76919 0.0
C397 C 0.51354 0.07688 0.76321 0.0
C398 C 0.49117 0.05843 0.78534 0.0
C399 C 0.60821 0.10303 0.76145 0.0
C400 C 0.5513 0.16349 0.7592 0.0
H401 H 0.34946 0.93695 0.72886 0.0
H402 H 0.35707 0.91455 0.82106 0.0
H403 H 0.35858 1.03279 0.81055 0.0
H404 H 0.41519 0.06177 0.82544 0.0
H405 H 0.37913 1.00925 0.83894 0.0
H406 H 0.45692 0.93716 0.81127 0.0
H407 H 0.43835 0.96104 0.83982 0.0
H408 H 0.49252 0.99032 0.82328 0.0
H409 H 0.45808 1.01863 0.65833 0.0
H410 H 0.59229 0.12602 0.67179 0.0
H411 H 0.57805 0.1247 0.71639 0.0
H412 H 0.48058 0.95586 0.70403 0.0
H413 H 0.42207 0.94448 0.68655 0.0
H414 H 0.42538 0.9329 0.71971 0.0
H415 H 0.38766 1.05663 0.70043 0.0
H416 H 0.35526 1.00665 0.71588 0.0
H417 H 0.37194 1.00168 0.6835 0.0
H418 H 0.30653 0.86336 0.74608 0.0
C419 C 0.35137 0.93333 0.74894 0.0
C420 C 0.71787 0.59432 0.13902 0.0
C421 C 0.76298 0.59506 0.12631 0.0
C422 C 0.76166 0.59353 0.09989 0.0
C423 C 0.67277 0.59057 0.09858 0.0
C424 C 0.67283 0.59229 0.12461 0.0
C425 C 0.62057 0.59264 0.13375 0.0
H426 H 0.37154 0.57531 0.09897 0.0
C427 C 0.6215 0.58821 0.08861 0.0
C428 C 0.58968 0.58916 0.1089 0.0
H429 H 0.4337 0.59697 0.17473 0.0
H430 H 0.51703 0.59668 0.15918 0.0
H431 H 0.45425 0.65071 0.07575 0.0
H432 H 0.43321 0.50164 0.08048 0.0
H433 H 0.45396 0.51634 0.05004 0.0
H434 H 0.39603 0.52922 0.05988 0.0
H435 H 0.41001 0.6113 0.05571 0.0
H436 H 0.47413 0.63216 0.04707 0.0
C437 C 0.62283 0.63934 0.14783 0.0
C438 C 0.60271 0.5498 0.15029 0.0
C439 C 0.59297 0.57626 -0.00626 0.0
C440 C 0.55016 0.5706 0.97793 0.0
C441 C 0.50355 0.56922 0.98872 0.0
C442 C 0.49964 0.57249 0.01495 0.0
C443 C 0.54285 0.57734 0.0306 0.0
C444 C 0.58836 0.57914 0.01982 0.0
C445 C 0.63016 0.58347 0.03907 0.0
C446 C 0.60246 0.58447 0.06337 0.0
C447 C 0.55154 0.58101 0.05833 0.0
C448 C 0.66785 0.63051 0.03477 0.0
C449 C 0.65196 0.53907 0.0366 0.0
C450 C 0.40293 0.57963 0.11232 0.0
C451 C 0.3959 0.5856 0.13803 0.0
C452 C 0.43812 0.59213 0.15473 0.0
C453 C 0.48636 0.59202 0.14569 0.0
C454 C 0.49264 0.5862 0.11964 0.0
C455 C 0.45084 0.58063 0.10361 0.0
C456 C 0.46302 0.57751 0.07649 0.0
C457 C 0.51885 0.58159 0.07845 0.0
C458 C 0.53712 0.58617 0.10375 0.0
C459 C 0.44948 0.61975 0.06283 0.0
C460 C 0.43501 0.5289 0.06593 0.0
H461 H 0.71995 0.59031 0.06606 0.0
H462 H 0.71788 0.59581 0.15941 0.0
H463 H 0.60641 0.51733 0.14023 0.0
H464 H 0.56306 0.54525 0.15504 0.0
H465 H 0.6254 0.55302 0.16816 0.0
H466 H 0.64252 0.66912 0.13653 0.0
H467 H 0.64336 0.64042 0.16625 0.0
H468 H 0.58536 0.64551 0.15122 0.0
H469 H 0.62949 0.5784 0.986 0.0
H470 H 0.47001 0.56484 0.97686 0.0
H471 H 0.46303 0.57078 0.02199 0.0
H472 H 0.64847 0.6574 0.02746 0.0
H473 H 0.69604 0.62622 0.02086 0.0
H474 H 0.68728 0.6464 0.05235 0.0
H475 H 0.62337 0.50857 0.02904 0.0
H476 H 0.6641 0.52717 0.05495 0.0
H477 H 0.68375 0.54477 0.02366 0.0
H478 H 0.79551 0.59399 0.08975 0.0
C479 C 0.71735 0.5913 0.0861 0.0
C480 C 0.25483 0.54717 0.14555 0.0
C481 C 0.24101 0.58868 0.15301 0.0
C482 C 0.30524 0.54591 0.14197 0.0
C483 C 0.34422 0.58571 0.14641 0.0
H484 H 0.22628 0.51587 0.14131 0.0
H485 H 0.31371 0.5138 0.13496 0.0
S486 S 0.32888 0.70181 0.16857 0.0
N487 N 0.27113 0.6699 0.16622 0.0
N488 N 0.3656 0.66708 0.16005 0.0
C489 C 0.33119 0.62676 0.15504 0.0
C490 C 0.27975 0.62837 0.15818 0.0
C491 C 0.88464 0.2949 0.46097 0.0
C492 C 0.83911 0.29743 0.47191 0.0
C493 C 0.91825 0.33517 0.45329 0.0
C494 C 0.90806 0.3797 0.4565 0.0
H495 H 0.89386 0.26133 0.45772 0.0
H496 H 0.95187 0.33137 0.44405 0.0
S497 S 0.79552 0.40624 0.48487 0.0
N498 N 0.78646 0.34875 0.48611 0.0
N499 N 0.85044 0.42452 0.47206 0.0
C500 C 0.86399 0.38319 0.46842 0.0
C501 C 0.82936 0.34205 0.47607 0.0
C502 C 0.36539 0.80111 0.83139 0.0
C503 C 0.40445 0.78827 0.81861 0.0
C504 C 0.33206 0.8234 0.81854 0.0
C505 C 0.33854 0.83503 0.7929 0.0
H506 H 0.36342 0.7979 0.85166 0.0
H507 H 0.30621 0.83784 0.82953 0.0
S508 S 0.42308 0.79102 0.74983 0.0
N509 N 0.43815 0.77495 0.77813 0.0
N510 N 0.37698 0.81781 0.75399 0.0
C511 C 0.37127 0.8138 0.77928 0.0
C512 C 0.40471 0.79097 0.79229 0.0
C513 C 0.90194 0.63743 0.1397 0.0
C514 C 0.91716 0.59666 0.14724 0.0
C515 C 0.85116 0.63795 0.1356 0.0
C516 C 0.81294 0.59787 0.139 0.0
H517 H 0.92958 0.66898 0.13597 0.0
H518 H 0.84183 0.66929 0.12821 0.0
S519 S 0.83126 0.48267 0.15985 0.0
N520 N 0.88853 0.51547 0.15923 0.0
N521 N 0.79351 0.51677 0.15126 0.0
C522 C 0.82715 0.55756 0.14773 0.0
C523 C 0.879 0.55689 0.15193 0.0
C524 C 0.22665 0.83546 0.51032 0.0
C525 C 0.27794 0.84649 0.50501 0.0
C526 C 0.19539 0.79288 0.50203 0.0
C527 C 0.21441 0.75994 0.48816 0.0
H528 H 0.21007 0.86076 0.51995 0.0
H529 H 0.15574 0.7867 0.50539 0.0
S530 S 0.34689 0.76853 0.47257 0.0
N531 N 0.34696 0.81831 0.48743 0.0
N532 N 0.28822 0.73884 0.47174 0.0
C533 C 0.26595 0.76933 0.484 0.0
C534 C 0.2977 0.81244 0.49244 0.0
C535 C 0.56426 0.26449 0.86477 0.0
C536 C 0.60517 0.29439 0.85396 0.0
C537 C 0.56034 0.21621 0.86449 0.0
C538 C 0.59725 0.19682 0.8533 0.0
H539 H 0.53195 0.2775 0.8701 0.0
H540 H 0.52485 0.19426 0.86944 0.0
S541 S 0.72065 0.26234 0.83286 0.0
N542 N 0.6896 0.30311 0.83922 0.0
N543 N 0.68302 0.21199 0.83953 0.0
C544 C 0.64287 0.22717 0.8478 0.0
C545 C 0.64652 0.27629 0.84769 0.0
C546 C 0.59337 0.90021 0.5049 0.0
C547 C 0.55197 0.91991 0.51119 0.0
C548 C 0.59307 0.85084 0.5067 0.0
C549 C 0.551 0.81648 0.51445 0.0
H550 H 0.6274 0.92347 0.4991 0.0
H551 H 0.62731 0.83982 0.50294 0.0
S552 S 0.43253 0.84716 0.53388 0.0
N553 N 0.46711 0.89812 0.52588 0.0
N554 N 0.46681 0.80835 0.52918 0.0
C555 C 0.50935 0.83575 0.5205 0.0
C556 C 0.50965 0.88581 0.51879 0.0
C557 C 0.74647 0.56026 0.8165 0.0
C558 C 0.72525 0.59596 0.82673 0.0
C559 C 0.79808 0.56112 0.81944 0.0
C560 C 0.83093 0.59759 0.83288 0.0
H561 H 0.72285 0.53063 0.80658 0.0
H562 H 0.81191 0.53194 0.81211 0.0
S563 S 0.79648 0.7016 0.86166 0.0
N564 N 0.74315 0.67056 0.84955 0.0
N565 N 0.83912 0.67183 0.85509 0.0
C566 C 0.81073 0.63431 0.84234 0.0
C567 C 0.75837 0.63362 0.83927 0.0
C568 C 0.29475 0.90698 0.16795 0.0
C569 C 0.30076 0.87579 0.14855 0.0
C570 C 0.33581 0.93899 0.1787 0.0
C571 C 0.38451 0.94123 0.17043 0.0
H572 H 0.25825 0.90551 0.17557 0.0
H573 H 0.3295 0.96162 0.19398 0.0
S574 S 0.4201 0.86938 0.11908 0.0
N575 N 0.35884 0.85098 0.12047 0.0
N576 N 0.43631 0.91081 0.14104 0.0
C577 C 0.39094 0.91145 0.15045 0.0
C578 C 0.34904 0.87871 0.13949 0.0
C579 C 0.51057 0.25802 0.52527 0.0
C580 C 0.54711 0.23941 0.51256 0.0
C581 C 0.51082 0.30727 0.52668 0.0
C582 C 0.54693 0.34286 0.51505 0.0
H583 H 0.4813 0.23414 0.53476 0.0
H584 H 0.48166 0.31756 0.5372 0.0
S585 S 0.65213 0.31545 0.47916 0.0
N586 N 0.62169 0.26336 0.48807 0.0
N587 N 0.62132 0.35345 0.49019 0.0
C588 C 0.58341 0.32478 0.50195 0.0
C589 C 0.58372 0.27451 0.50089 0.0
C590 C 0.36453 0.53003 0.83075 0.0
C591 C 0.3941 0.57042 0.82039 0.0
C592 C 0.31414 0.52761 0.83654 0.0
C593 C 0.29067 0.56504 0.83175 0.0
H594 H 0.38138 0.50137 0.83609 0.0
H595 H 0.29419 0.49726 0.84632 0.0
S596 S 0.34892 0.67486 0.8004 0.0
N597 N 0.39441 0.64637 0.8027 0.0
N598 N 0.29965 0.64122 0.81303 0.0
C599 C 0.31864 0.60386 0.81939 0.0
C600 C 0.3703 0.60675 0.81394 0.0
C601 C 0.86148 0.27716 0.20468 0.0
C602 C 0.85453 0.31504 0.19013 0.0
C603 C 0.82064 0.24404 0.2131 0.0
C604 C 0.77138 0.24727 0.20705 0.0
H605 H 0.89876 0.27411 0.21048 0.0
H606 H 0.82762 0.21628 0.22499 0.0
S607 S 0.73295 0.33761 0.16789 0.0
N608 N 0.79469 0.35238 0.16876 0.0
N609 N 0.71767 0.28976 0.18466 0.0
C610 C 0.76378 0.28373 0.19163 0.0
C611 C 0.80544 0.3178 0.18321 0.0
C612 C 0.05524 0.60227 0.06782 0.0
C613 C 0.07582 0.56666 0.07826 0.0
C614 C 0.05209 0.60761 0.04165 0.0
C615 C 0.06939 0.57753 0.02493 0.0
H616 H 1.04105 0.62602 0.07993 0.0
H617 H 1.03581 0.63543 0.03445 0.0
S618 S 0.1261 0.47842 0.04271 0.0
N619 N 0.11425 0.5011 0.06986 0.0
N620 N 0.10728 0.51049 0.02074 0.0
C621 C 0.09055 0.54209 0.03516 0.0
C622 C 0.09399 0.5368 0.0618 0.0
C623 C 0.50983 0.09987 0.41992 0.0
C624 C 0.52716 0.06955 0.43651 0.0
C625 C 0.5151 0.09622 0.39387 0.0
C626 C 0.53719 0.06173 0.38358 0.0
H627 H 0.49201 0.1266 0.42711 0.0
H628 H 0.50119 0.12007 0.38163 0.0
S629 S 0.58904 0.9741 0.41858 0.0
N630 N 0.56822 1.00439 0.44068 0.0
N631 N 0.57702 0.99714 0.3915 0.0
C632 C 0.55496 1.0314 0.39981 0.0
C633 C 0.55029 1.03546 0.42638 0.0
C634 C 0.57152 0.57281 0.7392 0.0
C635 C 0.54415 0.60258 0.75034 0.0
C636 C 0.5686 0.56405 0.71311 0.0
C637 C 0.5383 0.58481 0.69717 0.0
H638 H 0.59585 0.55648 0.75067 0.0
H639 H 0.59111 0.54165 0.7053 0.0
S640 S 0.4562 0.66261 0.71711 0.0
N641 N 0.48377 0.65096 0.74354 0.0
N642 N 0.47814 0.63426 0.69454 0.0
C643 C 0.50986 0.61379 0.70812 0.0
C644 C 0.51276 0.62267 0.7347 0.0
C645 C 0.59302 0.06285 0.60142 0.0
C646 C 0.56377 0.08046 0.58344 0.0
C647 C 0.58013 0.05976 0.62678 0.0
C648 C 0.53706 0.0733 0.63486 0.0
H649 H 0.62653 1.05201 0.59597 0.0
H650 H 0.60406 1.04687 0.6402 0.0
S651 S 0.44748 0.12099 0.59548 0.0
N652 N 0.48971 0.1117 0.57564 0.0
N653 N 0.46496 0.10443 0.62329 0.0
C654 C 0.50699 0.09013 0.61713 0.0
C655 C 0.52051 0.09411 0.59139 0.0
C656 C 0.53643 0.5901 0.90776 0.0
C657 C 0.56307 0.55931 0.89703 0.0
C658 C 0.53209 0.59336 0.93394 0.0
C659 C 0.55426 0.56594 0.95029 0.0
H660 H 0.51869 0.61185 0.89588 0.0
H661 H 0.51171 0.61788 0.94144 0.0
S662 S 0.6257 0.47805 0.93163 0.0
N663 N 0.61085 0.5 0.90476 0.0
N664 N 0.6019 0.50554 0.95387 0.0
C665 C 0.58058 0.5347 0.93978 0.0
C666 C 0.5852 0.53153 0.91317 0.0
C667 C 0.0994 0.58468 0.23516 0.0
C668 C 0.08102 0.62121 0.22417 0.0
C669 C 0.10047 0.57934 0.26143 0.0
C670 C 0.08377 0.61072 0.27748 0.0
H671 H 0.11351 0.56032 0.22344 0.0
H672 H 0.11561 0.55131 0.26927 0.0
S673 S 1.02947 0.71029 0.25837 0.0
N674 N 0.04334 0.68772 0.23157 0.0
N675 N 0.04631 0.67792 0.28079 0.0
C676 C 0.06436 0.64663 0.26677 0.0
C677 C 0.06272 0.65181 0.24013 0.0
loop_
_geom_bond_atom_site_label_1
_geom_bond_atom_site_label_2
_geom_bond_distance
_geom_bond_site_symmetry_2
_ccdc_geom_bond_type
Pr0 C2 2.880 . S
Pr0 O20 2.562 . S
Pr0 O21 2.490 . S
Pr0 O22 2.695 1_655 S
Pr0 O23 2.512 . S
Pr0 O25 2.437 . S
Pr0 O28 2.436 . S
Pr0 O30 2.438 1_655 S
Pr1 C11 2.880 . S
Pr1 O22 2.436 . S
Pr1 O24 2.438 1_455 S
Pr1 O26 2.562 . S
Pr1 O27 2.490 . S
Pr1 O28 2.695 1_455 S
Pr1 O29 2.512 . S
Pr1 O31 2.437 . S
C2 Pr0 2.880 . S
C2 C3 1.491 . S
C2 O20 1.254 . S
C2 O21 1.225 . S
C3 C2 1.491 . S
C3 C4 1.392 . S
C3 C8 1.356 . S
C4 C3 1.392 . S
C4 C5 1.368 . S
C4 H32 0.929 . S
C5 C4 1.368 . S
C5 C6 1.386 . S
C5 H33 0.929 . S
C6 C5 1.386 . S
C6 C7 1.373 . S
C7 C6 1.373 . S
C7 C8 1.409 . S
C7 H34 0.931 . S
C8 C3 1.356 . S
C8 C7 1.409 . S
C8 H35 0.930 . S
C9 O22 1.270 . S
C9 O23 1.248 1_455 S
C10 O24 1.267 . S
C10 O25 1.278 . S
C11 Pr1 2.880 . S
C11 C12 1.491 . S
C11 O26 1.254 . S
C11 O27 1.225 . S
C12 C11 1.491 . S
C12 C13 1.392 . S
C12 C17 1.356 . S
C13 C12 1.392 . S
C13 C14 1.368 . S
C13 H36 0.929 . S
C14 C13 1.368 . S
C14 C15 1.386 . S
C14 H37 0.929 . S
C15 C14 1.386 . S
C15 C16 1.373 . S
C16 C15 1.373 . S
C16 C17 1.409 . S
C16 H38 0.931 . S
C17 C12 1.356 . S
C17 C16 1.409 . S
C17 H39 0.930 . S
C18 O28 1.270 1_455 S
C18 O29 1.248 . S
C19 O30 1.267 . S
C19 O31 1.278 . S
O20 Pr0 2.562 . S
O20 C2 1.254 . S
O21 Pr0 2.490 . S
O21 C2 1.225 . S
O22 Pr0 2.695 1_455 S
O22 Pr1 2.436 . S
O22 C9 1.270 . S
O23 Pr0 2.512 . S
O23 C9 1.248 1_655 S
O24 Pr1 2.438 1_655 S
O24 C10 1.267 . S
O25 Pr0 2.437 . S
O25 C10 1.278 . S
O26 Pr1 2.562 . S
O26 C11 1.254 . S
O27 Pr1 2.490 . S
O27 C11 1.225 . S
O28 Pr0 2.436 . S
O28 Pr1 2.695 1_655 S
O28 C18 1.270 1_655 S
O29 Pr1 2.512 . S
O29 C18 1.248 . S
O30 Pr0 2.438 1_455 S
O30 C19 1.267 . S
O31 Pr1 2.437 . S
O31 C19 1.278 . S
H32 C4 0.929 . S
H33 C5 0.929 . S
H34 C7 0.931 . S
H35 C8 0.930 . S
H36 C13 0.929 . S
H37 C14 0.929 . S
H38 C16 0.931 . S
H39 C17 0.930 . S
Pr40 C42 2.880 . S
Pr40 O60 2.562 . S
Pr40 O61 2.490 . S
Pr40 O62 2.694 1_545 S
Pr40 O63 2.512 . S
Pr40 O65 2.437 . S
Pr40 O68 2.436 . S
Pr40 O70 2.438 1_545 S
Pr41 C51 2.880 . S
Pr41 O62 2.435 . S
Pr41 O64 2.438 1_565 S
Pr41 O66 2.562 . S
Pr41 O67 2.490 . S
Pr41 O68 2.695 1_565 S
Pr41 O69 2.512 . S
Pr41 O71 2.437 . S
C42 Pr40 2.880 . S
C42 C43 1.491 . S
C42 O60 1.254 . S
C42 O61 1.225 . S
C43 C42 1.491 . S
C43 C44 1.392 . S
C43 C48 1.356 . S
C44 C43 1.392 . S
C44 C45 1.368 . S
C44 H72 0.929 . S
C45 C44 1.368 . S
C45 C46 1.386 . S
C45 H73 0.929 . S
C46 C45 1.386 . S
C46 C47 1.373 . S
C47 C46 1.373 . S
C47 C48 1.409 . S
C47 H74 0.931 . S
C48 C43 1.356 . S
C48 C47 1.409 . S
C48 H75 0.930 . S
C49 O62 1.270 1_545 S
C49 O63 1.248 . S
C50 O64 1.267 . S
C50 O65 1.278 . S
C51 Pr41 2.880 . S
C51 C52 1.491 . S
C51 O66 1.254 . S
C51 O67 1.225 . S
C52 C51 1.491 . S
C52 C53 1.392 . S
C52 C57 1.356 . S
C53 C52 1.392 . S
C53 C54 1.368 . S
C53 H76 0.929 . S
C54 C53 1.368 . S
C54 C55 1.386 . S
C54 H77 0.929 . S
C55 C54 1.386 . S
C55 C56 1.373 . S
C56 C55 1.373 . S
C56 C57 1.409 . S
C56 H78 0.931 . S
C57 C52 1.356 . S
C57 C56 1.409 . S
C57 H79 0.930 . S
C58 O68 1.270 . S
C58 O69 1.248 1_545 S
C59 O70 1.267 . S
C59 O71 1.278 . S
O60 Pr40 2.562 . S
O60 C42 1.254 . S
O61 Pr40 2.490 . S
O61 C42 1.225 . S
O62 Pr40 2.694 1_565 S
O62 Pr41 2.435 . S
O62 C49 1.270 1_565 S
O63 Pr40 2.512 . S
O63 C49 1.248 . S
O64 Pr41 2.438 1_545 S
O64 C50 1.267 . S
O65 Pr40 2.437 . S
O65 C50 1.278 . S
O66 Pr41 2.562 . S
O66 C51 1.254 . S
O67 Pr41 2.490 . S
O67 C51 1.225 . S
O68 Pr40 2.436 . S
O68 Pr41 2.695 1_545 S
O68 C58 1.270 . S
O69 Pr41 2.512 . S
O69 C58 1.248 1_565 S
O70 Pr40 2.438 1_565 S
O70 C59 1.267 . S
O71 Pr41 2.437 . S
O71 C59 1.278 . S
H72 C44 0.929 . S
H73 C45 0.929 . S
H74 C47 0.931 . S
H75 C48 0.930 . S
H76 C53 0.929 . S
H77 C54 0.929 . S
H78 C56 0.931 . S
H79 C57 0.930 . S
Pr80 C82 2.880 . S
Pr80 O100 2.562 . S
Pr80 O101 2.490 . S
Pr80 O102 2.695 . S
Pr80 O103 2.512 . S
Pr80 O105 2.437 . S
Pr80 O108 2.436 . S
Pr80 O110 2.438 . S
Pr81 C91 2.880 . S
Pr81 O102 2.436 . S
Pr81 O104 2.438 . S
Pr81 O106 2.562 . S
Pr81 O107 2.490 . S
Pr81 O108 2.695 . S
Pr81 O109 2.512 . S
Pr81 O111 2.437 . S
C82 Pr80 2.880 . S
C82 C83 1.491 . S
C82 O100 1.254 . S
C82 O101 1.225 . S
C83 C82 1.491 . S
C83 C84 1.392 . S
C83 C88 1.356 . S
C84 C83 1.392 . S
C84 C85 1.368 . S
C84 H112 0.929 . S
C85 C84 1.368 . S
C85 C86 1.386 . S
C85 H113 0.929 . S
C86 C85 1.386 . S
C86 C87 1.373 . S
C87 C86 1.373 . S
C87 C88 1.409 . S
C87 H114 0.931 . S
C88 C83 1.356 . S
C88 C87 1.409 . S
C88 H115 0.930 . S
C89 O102 1.270 . S
C89 O103 1.248 . S
C90 O104 1.267 . S
C90 O105 1.278 . S
C91 Pr81 2.880 . S
C91 C92 1.491 . S
C91 O106 1.254 . S
C91 O107 1.225 . S
C92 C91 1.491 . S
C92 C93 1.392 . S
C92 C97 1.356 . S
C93 C92 1.392 . S
C93 C94 1.368 . S
C93 H116 0.929 . S
C94 C93 1.368 . S
C94 C95 1.386 . S
C94 H117 0.929 . S
C95 C94 1.386 . S
C95 C96 1.373 . S
C96 C95 1.373 . S
C96 C97 1.409 . S
C96 H118 0.931 . S
C97 C92 1.356 . S
C97 C96 1.409 . S
C97 H119 0.930 . S
C98 O108 1.270 . S
C98 O109 1.248 . S
C99 O110 1.267 . S
C99 O111 1.278 . S
O100 Pr80 2.562 . S
O100 C82 1.254 . S
O101 Pr80 2.490 . S
O101 C82 1.225 . S
O102 Pr80 2.695 . S
O102 Pr81 2.436 . S
O102 C89 1.270 . S
O103 Pr80 2.512 . S
O103 C89 1.248 . S
O104 Pr81 2.438 . S
O104 C90 1.267 . S
O105 Pr80 2.437 . S
O105 C90 1.278 . S
O106 Pr81 2.562 . S
O106 C91 1.254 . S
O107 Pr81 2.490 . S
O107 C91 1.225 . S
O108 Pr80 2.436 . S
O108 Pr81 2.695 . S
O108 C98 1.270 . S
O109 Pr81 2.512 . S
O109 C98 1.248 . S
O110 Pr80 2.438 . S
O110 C99 1.267 . S
O111 Pr81 2.437 . S
O111 C99 1.278 . S
H112 C84 0.929 . S
H113 C85 0.929 . S
H114 C87 0.931 . S
H115 C88 0.930 . S
H116 C93 0.929 . S
H117 C94 0.929 . S
H118 C96 0.931 . S
H119 C97 0.930 . S
C120 C121 1.391 . S
C120 C124 1.391 . S
C120 H162 0.948 . S
C121 C120 1.391 . S
C121 C122 1.391 . S
C122 C121 1.391 . S
C122 H178 0.947 . S
C122 C179 1.392 . S
C123 C124 1.391 . S
C123 C127 1.397 . S
C123 C179 1.419 . S
C124 C120 1.391 . S
C124 C123 1.391 . S
C124 C125 1.399 . S
C125 C124 1.399 . S
C125 C128 1.396 . S
C125 C137 1.453 . S
C125 C138 1.684 . S
H126 C150 0.948 . S
C127 C123 1.397 . S
C127 C128 1.394 . S
C127 C146 1.723 . S
C128 C125 1.396 . S
C128 C127 1.394 . S
C128 C158 1.723 1_545 S
H129 C152 0.947 . S
H130 C153 0.948 . S
H131 C159 0.982 . S
H132 C160 0.979 . S
H133 C160 0.980 . S
H134 C160 0.983 . S
H135 C159 0.979 . S
H136 C159 0.977 . S
C137 C125 1.453 . S
C137 H166 0.982 . S
C137 H167 0.979 . S
C137 H168 0.977 . S
C138 C125 1.684 . S
C138 H163 0.979 . S
C138 H164 0.980 . S
C138 H165 0.983 . S
C139 C140 1.391 . S
C139 C144 1.391 . S
C139 H169 0.948 . S
C140 C139 1.391 . S
C140 C141 1.391 1_545 S
C141 C140 1.391 1_565 S
C141 C142 1.392 . S
C141 H170 0.947 . S
C142 C141 1.392 . S
C142 C143 1.419 1_565 S
C142 H171 0.948 . S
C143 C142 1.419 1_545 S
C143 C144 1.391 . S
C143 C147 1.397 . S
C144 C139 1.391 . S
C144 C143 1.391 . S
C144 C145 1.399 . S
C145 C144 1.399 . S
C145 C146 1.396 . S
C145 C148 1.453 . S
C145 C149 1.684 . S
C146 C127 1.723 . S
C146 C145 1.396 . S
C146 C147 1.394 . S
C147 C143 1.397 . S
C147 C146 1.394 . S
C147 C157 1.723 1_545 S
C148 C145 1.453 . S
C148 H172 0.982 . S
C148 H173 0.979 . S
C148 H174 0.977 . S
C149 C145 1.684 . S
C149 H175 0.979 . S
C149 H176 0.980 . S
C149 H177 0.983 . S
C150 H126 0.948 . S
C150 C151 1.391 . S
C150 C155 1.391 . S
C151 C150 1.391 . S
C151 C152 1.391 . S
C152 H129 0.947 . S
C152 C151 1.391 . S
C152 C153 1.392 . S
C153 H130 0.948 . S
C153 C152 1.392 . S
C153 C154 1.419 . S
C154 C153 1.419 . S
C154 C155 1.391 . S
C154 C158 1.397 . S
C155 C150 1.391 . S
C155 C154 1.391 . S
C155 C156 1.399 . S
C156 C155 1.399 . S
C156 C157 1.396 . S
C156 C159 1.453 . S
C156 C160 1.684 . S
C157 C147 1.723 1_565 S
C157 C156 1.396 . S
C157 C158 1.394 . S
C158 C128 1.723 1_565 S
C158 C154 1.397 . S
C158 C157 1.394 . S
C159 H131 0.982 . S
C159 H135 0.979 . S
C159 H136 0.977 . S
C159 C156 1.453 . S
C160 H132 0.979 . S
C160 H133 0.980 . S
C160 H134 0.983 . S
C160 C156 1.684 . S
H161 C179 0.948 . S
H162 C120 0.948 . S
H163 C138 0.979 . S
H164 C138 0.980 . S
H165 C138 0.983 . S
H166 C137 0.982 . S
H167 C137 0.979 . S
H168 C137 0.977 . S
H169 C139 0.948 . S
H170 C141 0.947 . S
H171 C142 0.948 . S
H172 C148 0.982 . S
H173 C148 0.979 . S
H174 C148 0.977 . S
H175 C149 0.979 . S
H176 C149 0.980 . S
H177 C149 0.983 . S
H178 C122 0.947 . S
C179 C122 1.392 . S
C179 C123 1.419 . S
C179 H161 0.948 . S
C180 C181 1.391 . S
C180 C184 1.391 . S
C180 H222 0.948 . S
C181 C180 1.391 . S
C181 C182 1.391 . S
C182 C181 1.391 . S
C182 H238 0.947 . S
C182 C239 1.392 . S
C183 C184 1.391 . S
C183 C187 1.397 . S
C183 C239 1.419 . S
C184 C180 1.391 . S
C184 C183 1.391 . S
C184 C185 1.399 . S
C185 C184 1.399 . S
C185 C188 1.396 . S
C185 C197 1.453 . S
C185 C198 1.684 . S
H186 C210 0.948 . S
C187 C183 1.397 . S
C187 C188 1.394 . S
C187 C206 1.723 . S
C188 C185 1.396 . S
C188 C187 1.394 . S
C188 C218 1.723 . S
H189 C212 0.947 . S
H190 C213 0.948 . S
H191 C219 0.982 . S
H192 C220 0.979 . S
H193 C220 0.980 . S
H194 C220 0.983 . S
H195 C219 0.979 . S
H196 C219 0.977 . S
C197 C185 1.453 . S
C197 H226 0.982 . S
C197 H227 0.979 . S
C197 H228 0.977 . S
C198 C185 1.684 . S
C198 H223 0.979 . S
C198 H224 0.980 . S
C198 H225 0.983 . S
C199 C200 1.391 . S
C199 C204 1.391 . S
C199 H229 0.948 . S
C200 C199 1.391 . S
C200 C201 1.391 . S
C201 C200 1.391 . S
C201 C202 1.392 . S
C201 H230 0.947 . S
C202 C201 1.392 . S
C202 C203 1.419 . S
C202 H231 0.948 . S
C203 C202 1.419 . S
C203 C204 1.391 . S
C203 C207 1.397 . S
C204 C199 1.391 . S
C204 C203 1.391 . S
C204 C205 1.399 . S
C205 C204 1.399 . S
C205 C206 1.396 . S
C205 C208 1.453 . S
C205 C209 1.684 . S
C206 C187 1.723 . S
C206 C205 1.396 . S
C206 C207 1.394 . S
C207 C203 1.397 . S
C207 C206 1.394 . S
C207 C217 1.723 . S
C208 C205 1.453 . S
C208 H232 0.982 . S
C208 H233 0.979 . S
C208 H234 0.977 . S
C209 C205 1.684 . S
C209 H235 0.979 . S
C209 H236 0.980 . S
C209 H237 0.983 . S
C210 H186 0.948 . S
C210 C211 1.391 . S
C210 C215 1.391 . S
C211 C210 1.391 . S
C211 C212 1.391 . S
C212 H189 0.947 . S
C212 C211 1.391 . S
C212 C213 1.392 . S
C213 H190 0.948 . S
C213 C212 1.392 . S
C213 C214 1.419 . S
C214 C213 1.419 . S
C214 C215 1.391 . S
C214 C218 1.397 . S
C215 C210 1.391 . S
C215 C214 1.391 . S
C215 C216 1.399 . S
C216 C215 1.399 . S
C216 C217 1.396 . S
C216 C219 1.453 . S
C216 C220 1.684 . S
C217 C207 1.723 . S
C217 C216 1.396 . S
C217 C218 1.394 . S
C218 C188 1.723 . S
C218 C214 1.397 . S
C218 C217 1.394 . S
C219 H191 0.982 . S
C219 H195 0.979 . S
C219 H196 0.977 . S
C219 C216 1.453 . S
C220 H192 0.979 . S
C220 H193 0.980 . S
C220 H194 0.983 . S
C220 C216 1.684 . S
H221 C239 0.948 . S
H222 C180 0.948 . S
H223 C198 0.979 . S
H224 C198 0.980 . S
H225 C198 0.983 . S
H226 C197 0.982 . S
H227 C197 0.979 . S
H228 C197 0.977 . S
H229 C199 0.948 . S
H230 C201 0.947 . S
H231 C202 0.948 . S
H232 C208 0.982 . S
H233 C208 0.979 . S
H234 C208 0.977 . S
H235 C209 0.979 . S
H236 C209 0.980 . S
H237 C209 0.983 . S
H238 C182 0.947 . S
C239 C182 1.392 . S
C239 C183 1.419 . S
C239 H221 0.948 . S
C240 C241 1.391 . S
C240 C244 1.391 . S
C240 H282 0.948 . S
C241 C240 1.391 . S
C241 C242 1.391 . S
C242 C241 1.391 . S
C242 H298 0.947 . S
C242 C299 1.392 . S
C243 C244 1.391 . S
C243 C247 1.397 . S
C243 C299 1.419 . S
C244 C240 1.391 . S
C244 C243 1.391 . S
C244 C245 1.399 . S
C245 C244 1.399 . S
C245 C248 1.396 . S
C245 C257 1.453 . S
C245 C258 1.684 . S
H246 C270 0.948 . S
C247 C243 1.397 . S
C247 C248 1.394 . S
C247 C266 1.723 . S
C248 C245 1.396 . S
C248 C247 1.394 . S
C248 C278 1.723 1_455 S
H249 C272 0.947 . S
H250 C273 0.948 . S
H251 C279 0.982 . S
H252 C280 0.979 . S
H253 C280 0.980 . S
H254 C280 0.983 . S
H255 C279 0.979 . S
H256 C279 0.977 . S
C257 C245 1.453 . S
C257 H286 0.982 . S
C257 H287 0.979 . S
C257 H288 0.977 1_455 S
C258 C245 1.684 . S
C258 H283 0.979 . S
C258 H284 0.980 . S
C258 H285 0.983 . S
C259 C260 1.390 1_556 S
C259 C264 1.391 . S
C259 H289 0.948 . S
C260 C259 1.390 1_554 S
C260 C261 1.390 1_454 S
C261 C260 1.390 1_656 S
C261 C262 1.392 . S
C261 H290 0.947 . S
C262 C261 1.392 . S
C262 C263 1.419 1_655 S
C262 H291 0.948 . S
C263 C262 1.419 1_455 S
C263 C264 1.391 . S
C263 C267 1.397 . S
C264 C259 1.391 . S
C264 C263 1.391 . S
C264 C265 1.399 . S
C265 C264 1.399 . S
C265 C266 1.396 . S
C265 C268 1.453 . S
C265 C269 1.684 . S
C266 C247 1.723 . S
C266 C265 1.396 . S
C266 C267 1.394 . S
C267 C263 1.397 . S
C267 C266 1.394 . S
C267 C277 1.723 1_455 S
C268 C265 1.453 . S
C268 H292 0.982 . S
C268 H293 0.979 . S
C268 H294 0.977 . S
C269 C265 1.684 . S
C269 H295 0.979 . S
C269 H296 0.980 . S
C269 H297 0.983 . S
C270 H246 0.948 . S
C270 C271 1.391 . S
C270 C275 1.391 . S
C271 C270 1.391 . S
C271 C272 1.391 . S
C272 H249 0.947 . S
C272 C271 1.391 . S
C272 C273 1.392 . S
C273 H250 0.948 . S
C273 C272 1.392 . S
C273 C274 1.419 . S
C274 C273 1.419 . S
C274 C275 1.391 . S
C274 C278 1.397 . S
C275 C270 1.391 . S
C275 C274 1.391 . S
C275 C276 1.399 . S
C276 C275 1.399 . S
C276 C277 1.396 . S
C276 C279 1.453 . S
C276 C280 1.684 . S
C277 C267 1.723 1_655 S
C277 C276 1.396 . S
C277 C278 1.394 . S
C278 C248 1.723 1_655 S
C278 C274 1.397 . S
C278 C277 1.394 . S
C279 H251 0.982 . S
C279 H255 0.979 . S
C279 H256 0.977 . S
C279 C276 1.453 . S
C280 H252 0.979 . S
C280 H253 0.980 . S
C280 H254 0.983 . S
C280 C276 1.684 . S
H281 C299 0.948 . S
H282 C240 0.948 . S
H283 C258 0.979 . S
H284 C258 0.980 . S
H285 C258 0.983 . S
H286 C257 0.982 . S
H287 C257 0.979 . S
H288 C257 0.977 1_655 S
H289 C259 0.948 . S
H290 C261 0.947 . S
H291 C262 0.948 . S
H292 C268 0.982 . S
H293 C268 0.979 . S
H294 C268 0.977 . S
H295 C269 0.979 . S
H296 C269 0.980 . S
H297 C269 0.983 . S
H298 C242 0.947 . S
C299 C242 1.392 . S
C299 C243 1.419 . S
C299 H281 0.948 . S
C300 C301 1.391 . S
C300 C304 1.391 . S
C300 H342 0.948 . S
C301 C300 1.391 . S
C301 C302 1.391 . S
C302 C301 1.391 . S
C302 H358 0.947 . S
C302 C359 1.392 . S
C303 C304 1.391 . S
C303 C307 1.397 . S
C303 C359 1.419 . S
C304 C300 1.391 . S
C304 C303 1.391 . S
C304 C305 1.399 . S
C305 C304 1.399 . S
C305 C308 1.396 . S
C305 C317 1.453 1_655 S
C305 C318 1.684 . S
H306 C330 0.948 . S
C307 C303 1.397 . S
C307 C308 1.394 . S
C307 C326 1.723 . S
C308 C305 1.396 . S
C308 C307 1.394 . S
C308 C338 1.723 1_655 S
H309 C332 0.947 . S
H310 C333 0.948 . S
H311 C339 0.982 . S
H312 C340 0.979 . S
H313 C340 0.980 . S
H314 C340 0.983 . S
H315 C339 0.979 . S
H316 C339 0.977 . S
C317 C305 1.453 1_455 S
C317 H346 0.982 . S
C317 H347 0.979 1_455 S
C317 H348 0.977 . S
C318 C305 1.684 . S
C318 H343 0.979 . S
C318 H344 0.980 . S
C318 H345 0.983 . S
C319 C320 1.391 . S
C319 C324 1.391 . S
C319 H349 0.948 . S
C320 C319 1.391 . S
C320 C321 1.391 1_655 S
C321 C320 1.391 1_455 S
C321 C322 1.392 . S
C321 H350 0.947 . S
C322 C321 1.392 . S
C322 C323 1.419 . S
C322 H351 0.948 . S
C323 C322 1.419 . S
C323 C324 1.391 1_455 S
C323 C327 1.397 . S
C324 C319 1.391 . S
C324 C323 1.391 1_655 S
C324 C325 1.399 . S
C325 C324 1.399 . S
C325 C326 1.396 . S
C325 C328 1.453 . S
C325 C329 1.684 . S
C326 C307 1.723 . S
C326 C325 1.396 . S
C326 C327 1.394 1_655 S
C327 C323 1.397 . S
C327 C326 1.394 1_455 S
C327 C337 1.723 . S
C328 C325 1.453 . S
C328 H352 0.982 . S
C328 H353 0.979 . S
C328 H354 0.977 . S
C329 C325 1.684 . S
C329 H355 0.979 . S
C329 H356 0.980 . S
C329 H357 0.983 . S
C330 H306 0.948 . S
C330 C331 1.391 . S
C330 C335 1.391 . S
C331 C330 1.391 . S
C331 C332 1.391 . S
C332 H309 0.947 . S
C332 C331 1.391 . S
C332 C333 1.392 . S
C333 H310 0.948 . S
C333 C332 1.392 . S
C333 C334 1.419 . S
C334 C333 1.419 . S
C334 C335 1.391 . S
C334 C338 1.397 . S
C335 C330 1.391 . S
C335 C334 1.391 . S
C335 C336 1.399 . S
C336 C335 1.399 . S
C336 C337 1.396 . S
C336 C339 1.453 . S
C336 C340 1.684 . S
C337 C327 1.723 . S
C337 C336 1.396 . S
C337 C338 1.394 . S
C338 C308 1.723 1_455 S
C338 C334 1.397 . S
C338 C337 1.394 . S
C339 H311 0.982 . S
C339 H315 0.979 . S
C339 H316 0.977 . S
C339 C336 1.453 . S
C340 H312 0.979 . S
C340 H313 0.980 . S
C340 H314 0.983 . S
C340 C336 1.684 . S
H341 C359 0.948 . S
H342 C300 0.948 . S
H343 C318 0.979 . S
H344 C318 0.980 . S
H345 C318 0.983 . S
H346 C317 0.982 . S
H347 C317 0.979 1_655 S
H348 C317 0.977 . S
H349 C319 0.948 . S
H350 C321 0.947 . S
H351 C322 0.948 . S
H352 C328 0.982 . S
H353 C328 0.979 . S
H354 C328 0.977 . S
H355 C329 0.979 . S
H356 C329 0.980 . S
H357 C329 0.983 . S
H358 C302 0.947 . S
C359 C302 1.392 . S
C359 C303 1.419 . S
C359 H341 0.948 . S
C360 C361 1.391 . S
C360 C364 1.391 . S
C360 H402 0.948 . S
C361 C360 1.391 . S
C361 C362 1.391 . S
C362 C361 1.391 . S
C362 H418 0.947 . S
C362 C419 1.392 . S
C363 C364 1.391 . S
C363 C367 1.397 . S
C363 C419 1.419 . S
C364 C360 1.391 . S
C364 C363 1.391 . S
C364 C365 1.399 . S
C365 C364 1.399 . S
C365 C368 1.396 . S
C365 C377 1.453 . S
C365 C378 1.684 . S
H366 C390 0.948 . S
C367 C363 1.397 . S
C367 C368 1.394 . S
C367 C386 1.723 . S
C368 C365 1.396 . S
C368 C367 1.394 . S
C368 C398 1.723 1_565 S
H369 C392 0.947 . S
H370 C393 0.948 . S
H371 C399 0.982 . S
H372 C400 0.979 . S
H373 C400 0.980 . S
H374 C400 0.983 . S
H375 C399 0.979 . S
H376 C399 0.977 . S
C377 C365 1.453 . S
C377 H406 0.982 . S
C377 H407 0.979 . S
C377 H408 0.977 1_565 S
C378 C365 1.684 . S
C378 H403 0.979 . S
C378 H404 0.952 1_565 S
C378 H405 0.983 . S
C379 C380 1.391 1_565 S
C379 C384 1.391 . S
C379 H409 0.948 . S
C380 C379 1.391 1_545 S
C380 C381 1.391 . S
C381 C380 1.391 . S
C381 C382 1.392 . S
C381 H410 0.947 . S
C382 C381 1.392 . S
C382 C383 1.419 . S
C382 H411 0.948 . S
C383 C382 1.419 . S
C383 C384 1.391 1_545 S
C383 C387 1.397 . S
C384 C379 1.391 . S
C384 C383 1.391 1_565 S
C384 C385 1.399 . S
C385 C384 1.399 . S
C385 C386 1.396 . S
C385 C388 1.453 . S
C385 C389 1.684 . S
C386 C367 1.723 . S
C386 C385 1.396 . S
C386 C387 1.394 1_565 S
C387 C383 1.397 . S
C387 C386 1.394 1_545 S
C387 C397 1.723 . S
C388 C385 1.453 . S
C388 H412 0.982 . S
C388 H413 0.979 . S
C388 H414 0.977 . S
C389 C385 1.684 . S
C389 H415 0.979 . S
C389 H416 0.980 . S
C389 H417 0.983 . S
C390 H366 0.948 . S
C390 C391 1.391 . S
C390 C395 1.391 . S
C391 C390 1.391 . S
C391 C392 1.391 . S
C392 H369 0.947 . S
C392 C391 1.391 . S
C392 C393 1.392 . S
C393 H370 0.948 . S
C393 C392 1.392 . S
C393 C394 1.419 . S
C394 C393 1.419 . S
C394 C395 1.391 . S
C394 C398 1.397 . S
C395 C390 1.391 . S
C395 C394 1.391 . S
C395 C396 1.399 . S
C396 C395 1.399 . S
C396 C397 1.396 . S
C396 C399 1.453 . S
C396 C400 1.684 . S
C397 C387 1.723 . S
C397 C396 1.396 . S
C397 C398 1.394 . S
C398 C368 1.723 1_545 S
C398 C394 1.397 . S
C398 C397 1.394 . S
C399 H371 0.982 . S
C399 H375 0.979 . S
C399 H376 0.977 . S
C399 C396 1.453 . S
C400 H372 0.979 . S
C400 H373 0.980 . S
C400 H374 0.983 . S
C400 C396 1.684 . S
H401 C419 0.948 . S
H402 C360 0.948 . S
H403 C378 0.979 . S
H404 C378 0.952 1_545 S
H405 C378 0.983 . S
H406 C377 0.982 . S
H407 C377 0.979 . S
H408 C377 0.977 1_545 S
H409 C379 0.948 . S
H410 C381 0.947 . S
H411 C382 0.948 . S
H412 C388 0.982 . S
H413 C388 0.979 . S
H414 C388 0.977 . S
H415 C389 0.979 . S
H416 C389 0.980 . S
H417 C389 0.983 . S
H418 C362 0.947 . S
C419 C362 1.392 . S
C419 C363 1.419 . S
C419 H401 0.948 . S
C420 C421 1.391 . S
C420 C424 1.391 . S
C420 H462 0.948 . S
C421 C420 1.391 . S
C421 C422 1.391 . S
C422 C421 1.391 . S
C422 H478 0.947 . S
C422 C479 1.392 . S
C423 C424 1.391 . S
C423 C427 1.397 . S
C423 C479 1.419 . S
C424 C420 1.391 . S
C424 C423 1.391 . S
C424 C425 1.399 . S
C425 C424 1.399 . S
C425 C428 1.396 . S
C425 C437 1.453 . S
C425 C438 1.684 . S
H426 C450 0.948 . S
C427 C423 1.397 . S
C427 C428 1.394 . S
C427 C446 1.723 . S
C428 C425 1.396 . S
C428 C427 1.394 . S
C428 C458 1.723 . S
H429 C452 0.947 . S
H430 C453 0.948 . S
H431 C459 0.982 . S
H432 C460 0.979 . S
H433 C460 0.980 . S
H434 C460 0.983 . S
H435 C459 0.979 . S
H436 C459 0.977 . S
C437 C425 1.453 . S
C437 H466 0.982 . S
C437 H467 0.979 . S
C437 H468 0.977 . S
C438 C425 1.684 . S
C438 H463 0.979 . S
C438 H464 0.980 . S
C438 H465 0.983 . S
C439 C440 1.391 . S
C439 C444 1.391 . S
C439 H469 0.948 . S
C440 C439 1.391 . S
C440 C441 1.391 . S
C441 C440 1.391 . S
C441 C442 1.392 . S
C441 H470 0.947 . S
C442 C441 1.392 . S
C442 C443 1.419 . S
C442 H471 0.948 . S
C443 C442 1.419 . S
C443 C444 1.391 . S
C443 C447 1.397 . S
C444 C439 1.391 . S
C444 C443 1.391 . S
C444 C445 1.399 . S
C445 C444 1.399 . S
C445 C446 1.396 . S
C445 C448 1.453 . S
C445 C449 1.684 . S
C446 C427 1.723 . S
C446 C445 1.396 . S
C446 C447 1.394 . S
C447 C443 1.397 . S
C447 C446 1.394 . S
C447 C457 1.723 . S
C448 C445 1.453 . S
C448 H472 0.982 . S
C448 H473 0.979 . S
C448 H474 0.977 . S
C449 C445 1.684 . S
C449 H475 0.979 . S
C449 H476 0.980 . S
C449 H477 0.983 . S
C450 H426 0.948 . S
C450 C451 1.391 . S
C450 C455 1.391 . S
C451 C450 1.391 . S
C451 C452 1.391 . S
C452 H429 0.947 . S
C452 C451 1.391 . S
C452 C453 1.392 . S
C453 H430 0.948 . S
C453 C452 1.392 . S
C453 C454 1.419 . S
C454 C453 1.419 . S
C454 C455 1.391 . S
C454 C458 1.397 . S
C455 C450 1.391 . S
C455 C454 1.391 . S
C455 C456 1.399 . S
C456 C455 1.399 . S
C456 C457 1.396 . S
C456 C459 1.453 . S
C456 C460 1.684 . S
C457 C447 1.723 . S
C457 C456 1.396 . S
C457 C458 1.394 . S
C458 C428 1.723 . S
C458 C454 1.397 . S
C458 C457 1.394 . S
C459 H431 0.982 . S
C459 H435 0.979 . S
C459 H436 0.977 . S
C459 C456 1.453 . S
C460 H432 0.979 . S
C460 H433 0.980 . S
C460 H434 0.983 . S
C460 C456 1.684 . S
H461 C479 0.948 . S
H462 C420 0.948 . S
H463 C438 0.979 . S
H464 C438 0.980 . S
H465 C438 0.983 . S
H466 C437 0.982 . S
H467 C437 0.979 . S
H468 C437 0.977 . S
H469 C439 0.948 . S
H470 C441 0.947 . S
H471 C442 0.948 . S
H472 C448 0.982 . S
H473 C448 0.979 . S
H474 C448 0.977 . S
H475 C449 0.979 . S
H476 C449 0.980 . S
H477 C449 0.983 . S
H478 C422 0.947 . S
C479 C422 1.392 . S
C479 C423 1.419 . S
C479 H461 0.948 . S
C480 C481 1.369 . S
C480 C482 1.419 . S
C480 H484 0.930 . S
C481 C480 1.369 . S
C481 C490 1.429 . S
C482 C480 1.419 . S
C482 C483 1.363 . S
C482 H485 0.929 . S
C483 C482 1.363 . S
C483 C489 1.428 . S
H484 C480 0.930 . S
H485 C482 0.929 . S
S486 N487 1.613 . S
S486 N488 1.610 . S
N487 S486 1.613 . S
N487 C490 1.350 . S
N488 S486 1.610 . S
N488 C489 1.351 . S
C489 C483 1.428 . S
C489 N488 1.351 . S
C489 C490 1.434 . S
C490 C481 1.429 . S
C490 N487 1.350 . S
C490 C489 1.434 . S
C491 C492 1.369 . S
C491 C493 1.419 . S
C491 H495 0.930 . S
C492 C491 1.369 . S
C492 C501 1.429 . S
C493 C491 1.419 . S
C493 C494 1.363 . S
C493 H496 0.929 . S
C494 C493 1.363 . S
C494 C500 1.428 . S
H495 C491 0.930 . S
H496 C493 0.929 . S
S497 N498 1.613 . S
S497 N499 1.610 . S
N498 S497 1.613 . S
N498 C501 1.350 . S
N499 S497 1.610 . S
N499 C500 1.351 . S
C500 C494 1.428 . S
C500 N499 1.351 . S
C500 C501 1.434 . S
C501 C492 1.429 . S
C501 N498 1.350 . S
C501 C500 1.434 . S
C502 C503 1.369 . S
C502 C504 1.419 . S
C502 H506 0.930 . S
C503 C502 1.369 . S
C503 C512 1.429 . S
C504 C502 1.419 . S
C504 C505 1.363 . S
C504 H507 0.929 . S
C505 C504 1.363 . S
C505 C511 1.428 . S
H506 C502 0.930 . S
H507 C504 0.929 . S
S508 N509 1.613 . S
S508 N510 1.610 . S
N509 S508 1.613 . S
N509 C512 1.350 . S
N510 S508 1.610 . S
N510 C511 1.351 . S
C511 C505 1.428 . S
C511 N510 1.351 . S
C511 C512 1.434 . S
C512 C503 1.429 . S
C512 N509 1.350 . S
C512 C511 1.434 . S
C513 C514 1.369 . S
C513 C515 1.419 . S
C513 H517 0.930 . S
C514 C513 1.369 . S
C514 C523 1.429 . S
C515 C513 1.419 . S
C515 C516 1.363 . S
C515 H518 0.929 . S
C516 C515 1.363 . S
C516 C522 1.428 . S
H517 C513 0.930 . S
H518 C515 0.929 . S
S519 N520 1.613 . S
S519 N521 1.610 . S
N520 S519 1.613 . S
N520 C523 1.350 . S
N521 S519 1.610 . S
N521 C522 1.351 . S
C522 C516 1.428 . S
C522 N521 1.351 . S
C522 C523 1.434 . S
C523 C514 1.429 . S
C523 N520 1.350 . S
C523 C522 1.434 . S
C524 C525 1.369 . S
C524 C526 1.419 . S
C524 H528 0.930 . S
C525 C524 1.369 . S
C525 C534 1.429 . S
C526 C524 1.419 . S
C526 C527 1.363 . S
C526 H529 0.929 . S
C527 C526 1.363 . S
C527 C533 1.428 . S
H528 C524 0.930 . S
H529 C526 0.929 . S
S530 N531 1.613 . S
S530 N532 1.610 . S
N531 S530 1.613 . S
N531 C534 1.350 . S
N532 S530 1.610 . S
N532 C533 1.351 . S
C533 C527 1.428 . S
C533 N532 1.351 . S
C533 C534 1.434 . S
C534 C525 1.429 . S
C534 N531 1.350 . S
C534 C533 1.434 . S
C535 C536 1.369 . S
C535 C537 1.419 . S
C535 H539 0.930 . S
C536 C535 1.369 . S
C536 C545 1.429 . S
C537 C535 1.419 . S
C537 C538 1.363 . S
C537 H540 0.929 . S
C538 C537 1.363 . S
C538 C544 1.428 . S
H539 C535 0.930 . S
H540 C537 0.929 . S
S541 N542 1.613 . S
S541 N543 1.610 . S
N542 S541 1.613 . S
N542 C545 1.350 . S
N543 S541 1.610 . S
N543 C544 1.351 . S
C544 C538 1.428 . S
C544 N543 1.351 . S
C544 C545 1.434 . S
C545 C536 1.429 . S
C545 N542 1.350 . S
C545 C544 1.434 . S
C546 C547 1.369 . S
C546 C548 1.419 . S
C546 H550 0.930 . S
C547 C546 1.369 . S
C547 C556 1.429 . S
C548 C546 1.419 . S
C548 C549 1.363 . S
C548 H551 0.929 . S
C549 C548 1.363 . S
C549 C555 1.428 . S
H550 C546 0.930 . S
H551 C548 0.929 . S
S552 N553 1.613 . S
S552 N554 1.610 . S
N553 S552 1.613 . S
N553 C556 1.350 . S
N554 S552 1.610 . S
N554 C555 1.351 . S
C555 C549 1.428 . S
C555 N554 1.351 . S
C555 C556 1.434 . S
C556 C547 1.429 . S
C556 N553 1.350 . S
C556 C555 1.434 . S
C557 C558 1.369 . S
C557 C559 1.419 . S
C557 H561 0.930 . S
C558 C557 1.369 . S
C558 C567 1.429 . S
C559 C557 1.419 . S
C559 C560 1.363 . S
C559 H562 0.929 . S
C560 C559 1.363 . S
C560 C566 1.428 . S
H561 C557 0.930 . S
H562 C559 0.929 . S
S563 N564 1.613 . S
S563 N565 1.610 . S
N564 S563 1.613 . S
N564 C567 1.350 . S
N565 S563 1.610 . S
N565 C566 1.351 . S
C566 C560 1.428 . S
C566 N565 1.351 . S
C566 C567 1.434 . S
C567 C558 1.429 . S
C567 N564 1.350 . S
C567 C566 1.434 . S
C568 C569 1.369 . S
C568 C570 1.419 . S
C568 H572 0.930 . S
C569 C568 1.369 . S
C569 C578 1.429 . S
C570 C568 1.419 . S
C570 C571 1.363 . S
C570 H573 0.929 . S
C571 C570 1.363 . S
C571 C577 1.428 . S
H572 C568 0.930 . S
H573 C570 0.929 . S
S574 N575 1.613 . S
S574 N576 1.610 . S
N575 S574 1.613 . S
N575 C578 1.350 . S
N576 S574 1.610 . S
N576 C577 1.351 . S
C577 C571 1.428 . S
C577 N576 1.351 . S
C577 C578 1.434 . S
C578 C569 1.429 . S
C578 N575 1.350 . S
C578 C577 1.434 . S
C579 C580 1.369 . S
C579 C581 1.419 . S
C579 H583 0.930 . S
C580 C579 1.369 . S
C580 C589 1.429 . S
C581 C579 1.419 . S
C581 C582 1.363 . S
C581 H584 0.929 . S
C582 C581 1.363 . S
C582 C588 1.428 . S
H583 C579 0.930 . S
H584 C581 0.929 . S
S585 N586 1.613 . S
S585 N587 1.610 . S
N586 S585 1.613 . S
N586 C589 1.350 . S
N587 S585 1.610 . S
N587 C588 1.351 . S
C588 C582 1.428 . S
C588 N587 1.351 . S
C588 C589 1.434 . S
C589 C580 1.429 . S
C589 N586 1.350 . S
C589 C588 1.434 . S
C590 C591 1.369 . S
C590 C592 1.419 . S
C590 H594 0.930 . S
C591 C590 1.369 . S
C591 C600 1.429 . S
C592 C590 1.419 . S
C592 C593 1.363 . S
C592 H595 0.929 . S
C593 C592 1.363 . S
C593 C599 1.428 . S
H594 C590 0.930 . S
H595 C592 0.929 . S
S596 N597 1.613 . S
S596 N598 1.610 . S
N597 S596 1.613 . S
N597 C600 1.350 . S
N598 S596 1.610 . S
N598 C599 1.351 . S
C599 C593 1.428 . S
C599 N598 1.351 . S
C599 C600 1.434 . S
C600 C591 1.429 . S
C600 N597 1.350 . S
C600 C599 1.434 . S
C601 C602 1.369 . S
C601 C603 1.419 . S
C601 H605 0.930 . S
C602 C601 1.369 . S
C602 C611 1.429 . S
C603 C601 1.419 . S
C603 C604 1.363 . S
C603 H606 0.929 . S
C604 C603 1.363 . S
C604 C610 1.428 . S
H605 C601 0.930 . S
H606 C603 0.929 . S
S607 N608 1.613 . S
S607 N609 1.610 . S
N608 S607 1.613 . S
N608 C611 1.350 . S
N609 S607 1.610 . S
N609 C610 1.351 . S
C610 C604 1.428 . S
C610 N609 1.351 . S
C610 C611 1.434 . S
C611 C602 1.429 . S
C611 N608 1.350 . S
C611 C610 1.434 . S
C612 C613 1.369 1_655 S
C612 C614 1.419 1_655 S
C612 H616 0.930 . S
C613 C612 1.369 1_455 S
C613 C622 1.429 . S
C614 C612 1.419 1_455 S
C614 C615 1.363 . S
C614 H617 0.929 1_455 S
C615 C614 1.363 . S
C615 C621 1.428 . S
H616 C612 0.930 . S
H617 C614 0.929 1_655 S
S618 N619 1.613 . S
S618 N620 1.610 . S
N619 S618 1.613 . S
N619 C622 1.350 . S
N620 S618 1.610 . S
N620 C621 1.351 . S
C621 C615 1.428 . S
C621 N620 1.351 . S
C621 C622 1.434 . S
C622 C613 1.429 . S
C622 N619 1.350 . S
C622 C621 1.434 . S
C623 C624 1.369 . S
C623 C625 1.419 . S
C623 H627 0.930 . S
C624 C623 1.369 . S
C624 C633 1.429 1_545 S
C625 C623 1.419 . S
C625 C626 1.363 . S
C625 H628 0.929 . S
C626 C625 1.363 . S
C626 C632 1.428 1_545 S
H627 C623 0.930 . S
H628 C625 0.929 . S
S629 N630 1.613 . S
S629 N631 1.610 . S
N630 S629 1.613 . S
N630 C633 1.350 . S
N631 S629 1.610 . S
N631 C632 1.351 . S
C632 C626 1.428 1_565 S
C632 N631 1.351 . S
C632 C633 1.434 . S
C633 C624 1.429 1_565 S
C633 N630 1.350 . S
C633 C632 1.434 . S
C634 C635 1.369 . S
C634 C636 1.419 . S
C634 H638 0.930 . S
C635 C634 1.369 . S
C635 C644 1.429 . S
C636 C634 1.419 . S
C636 C637 1.363 . S
C636 H639 0.929 . S
C637 C636 1.363 . S
C637 C643 1.428 . S
H638 C634 0.930 . S
H639 C636 0.929 . S
S640 N641 1.613 . S
S640 N642 1.610 . S
N641 S640 1.613 . S
N641 C644 1.350 . S
N642 S640 1.610 . S
N642 C643 1.351 . S
C643 C637 1.428 . S
C643 N642 1.351 . S
C643 C644 1.434 . S
C644 C635 1.429 . S
C644 N641 1.350 . S
C644 C643 1.434 . S
C645 C646 1.369 1_565 S
C645 C647 1.419 . S
C645 H649 0.930 . S
C646 C645 1.369 1_545 S
C646 C655 1.429 . S
C647 C645 1.419 . S
C647 C648 1.363 1_565 S
C647 H650 0.929 . S
C648 C647 1.363 1_545 S
C648 C654 1.428 . S
H649 C645 0.930 . S
H650 C647 0.929 . S
S651 N652 1.613 . S
S651 N653 1.610 . S
N652 S651 1.613 . S
N652 C655 1.350 . S
N653 S651 1.610 . S
N653 C654 1.351 . S
C654 C648 1.428 . S
C654 N653 1.351 . S
C654 C655 1.434 . S
C655 C646 1.429 . S
C655 N652 1.350 . S
C655 C654 1.434 . S
C656 C657 1.369 . S
C656 C658 1.419 . S
C656 H660 0.930 . S
C657 C656 1.369 . S
C657 C666 1.429 . S
C658 C656 1.419 . S
C658 C659 1.363 . S
C658 H661 0.929 . S
C659 C658 1.363 . S
C659 C665 1.428 . S
H660 C656 0.930 . S
H661 C658 0.929 . S
S662 N663 1.613 . S
S662 N664 1.610 . S
N663 S662 1.613 . S
N663 C666 1.350 . S
N664 S662 1.610 . S
N664 C665 1.351 . S
C665 C659 1.428 . S
C665 N664 1.351 . S
C665 C666 1.434 . S
C666 C657 1.429 . S
C666 N663 1.350 . S
C666 C665 1.434 . S
C667 C668 1.369 1_655 S
C667 C669 1.419 . S
C667 H671 0.930 . S
C668 C667 1.369 1_455 S
C668 C677 1.429 . S
C669 C667 1.419 . S
C669 C670 1.363 . S
C669 H672 0.929 . S
C670 C669 1.363 . S
C670 C676 1.428 1_655 S
H671 C667 0.930 . S
H672 C669 0.929 . S
S673 N674 1.613 . S
S673 N675 1.610 . S
N674 S673 1.613 . S
N674 C677 1.350 . S
N675 S673 1.610 . S
N675 C676 1.351 . S
C676 C670 1.428 1_455 S
C676 N675 1.351 . S
C676 C677 1.434 . S
C677 C668 1.429 . S
C677 N674 1.350 . S
C677 C676 1.434 . S
C481 C19 2.016 . S
C483 C451 2.012 . S
C492 C46 1.358 . S
C494 C301 1.389 . S
C503 C95 0.643 . S
C505 C361 0.593 . S
C514 C10 2.146 . S
C516 C421 1.902 . S
C527 C331 1.386 . S
C525 C55 1.359 . S
C538 C391 0.949 . S
C536 C86 0.902 . S
C547 C59 3.177 . S
C549 C181 2.977 . S
C558 C90 2.174 . S
C560 C271 2.183 . S
C569 C15 1.358 . S
C571 C151 1.386 . S
C582 C211 3.102 . S
C580 C50 3.116 . S
C593 C241 1.847 . S
C591 C99 2.017 . S
C602 C6 1.295 . S
C604 C121 1.280 . S
C615 C260 1.343 . S
C613 C9 1.318 . S
C624 C58 1.446 . S
C626 C140 1.472 . S
C635 C98 1.720 . S
C637 C200 1.763 . S
C648 C380 1.066 . S
C646 C49 1.065 . S
C659 C440 1.333 1_556 S
C657 C89 1.309 . S
C668 C18 1.435 . S
C670 C320 1.455 . S
