# Generated by pormake.
# Topology anh, (6,3)-cn, num edge types: 1
# Building blocks:
#     Node 0, Type 0, BuildingBlock: PAMTOO_clean_sbu_0, # of connection points: 6
#     Node 1, Type 0, BuildingBlock: PAMTOO_clean_sbu_0, # of connection points: 6
#     Node 2, Type 0, BuildingBlock: PAMTOO_clean_sbu_0, # of connection points: 6
#     Node 3, Type 1, BuildingBlock: BETDAH_clean_linker_0, # of connection points: 3
#     Node 4, Type 1, BuildingBlock: BETDAH_clean_linker_0, # of connection points: 3
#     Node 5, Type 1, BuildingBlock: BETDAH_clean_linker_0, # of connection points: 3
#     Node 6, Type 1, BuildingBlock: BETDAH_clean_linker_0, # of connection points: 3
#     Node 7, Type 1, BuildingBlock: BETDAH_clean_linker_0, # of connection points: 3
#     Node 8, Type 1, BuildingBlock: BETDAH_clean_linker_0, # of connection points: 3
#     Edge 9, Type (0, 1), BuildingBlock: XIVTED_clean_linker_0, # of connection points: 2
#     Edge 10, Type (0, 1), BuildingBlock: XIVTED_clean_linker_0, # of connection points: 2
#     Edge 11, Type (0, 1), BuildingBlock: XIVTED_clean_linker_0, # of connection points: 2
#     Edge 12, Type (0, 1), BuildingBlock: XIVTED_clean_linker_0, # of connection points: 2
#     Edge 13, Type (0, 1), BuildingBlock: XIVTED_clean_linker_0, # of connection points: 2
#     Edge 14, Type (0, 1), BuildingBlock: XIVTED_clean_linker_0, # of connection points: 2
#     Edge 15, Type (0, 1), BuildingBlock: XIVTED_clean_linker_0, # of connection points: 2
#     Edge 16, Type (0, 1), BuildingBlock: XIVTED_clean_linker_0, # of connection points: 2
#     Edge 17, Type (0, 1), BuildingBlock: XIVTED_clean_linker_0, # of connection points: 2
#     Edge 18, Type (0, 1), BuildingBlock: XIVTED_clean_linker_0, # of connection points: 2
#     Edge 19, Type (0, 1), BuildingBlock: XIVTED_clean_linker_0, # of connection points: 2
#     Edge 20, Type (0, 1), BuildingBlock: XIVTED_clean_linker_0, # of connection points: 2
#     Edge 21, Type (0, 1), BuildingBlock: XIVTED_clean_linker_0, # of connection points: 2
#     Edge 22, Type (0, 1), BuildingBlock: XIVTED_clean_linker_0, # of connection points: 2
#     Edge 23, Type (0, 1), BuildingBlock: XIVTED_clean_linker_0, # of connection points: 2
#     Edge 24, Type (0, 1), BuildingBlock: XIVTED_clean_linker_0, # of connection points: 2
#     Edge 25, Type (0, 1), BuildingBlock: XIVTED_clean_linker_0, # of connection points: 2
#     Edge 26, Type (0, 1), BuildingBlock: XIVTED_clean_linker_0, # of connection points: 2
# Relax obj value: 0.145
# Max RMSD: 0.160
# Mean RMSD: 0.105
data_MOF--net-anh--node1-PAMTOO_clean_sbu_0--node2-BETDAH_clean_linker_0--edge1-XIVTED_clean_linker_0
_symmetry_space_group_name_H-M    P1
_symmetry_Int_Tables_number       1
_symmetry_cell_setting            triclinic
loop_
_symmetry_equiv_pos_as_xyz
'x, y, z'
_cell_length_a     30.987117
_cell_length_b     30.278804
_cell_length_c     49.70513
_cell_angle_alpha  93.766096
_cell_angle_beta   96.246412
_cell_angle_gamma 102.68623
loop_
_atom_site_label
_atom_site_type_symbol
_atom_site_fract_x
_atom_site_fract_y
_atom_site_fract_z
_atom_type_partial_charge
Dy0 Dy 1.06928 0.59394 0.14939 0.0
Dy1 Dy 1.0451 0.48325 0.13751 0.0
C2 C 1.05482 0.54751 0.09038 0.0
O3 O 0.99575 0.57456 0.15411 0.0
O4 O 0.97826 0.50258 0.13214 0.0
O5 O 0.09361 0.65858 0.13403 0.0
O6 O 0.07148 0.65612 0.17395 0.0
O7 O 1.03737 0.49887 0.18101 0.0
O8 O 0.08735 0.56747 0.18867 0.0
O9 O 0.12042 0.50022 0.14505 0.0
O10 O 0.1359 0.57775 0.14291 0.0
O11 O 1.0525 0.41755 0.14885 0.0
O12 O 1.00825 0.42245 0.11282 0.0
C13 C 0.96583 0.53802 0.14306 0.0
O14 O 1.03942 0.57469 0.10638 0.0
O15 O 1.0673 0.51224 0.09977 0.0
C16 C 0.13295 0.71499 0.16779 0.0
C17 C 0.21574 0.77583 0.18511 0.0
C18 C 0.18704 0.78448 0.16313 0.0
C19 C 0.146 0.75436 0.15462 0.0
C20 C 0.16108 0.70645 0.18997 0.0
C21 C 0.20195 0.73675 0.19866 0.0
C22 C 0.09173 0.68162 0.15681 0.0
C23 C 1.0635 0.53153 0.1977 0.0
C24 C 0.14916 0.53917 0.14396 0.0
C25 C 0.98418 0.3644 0.14046 0.0
C26 C 0.91305 0.30555 0.15999 0.0
C27 C 0.92586 0.35175 0.16984 0.0
C28 C 0.96093 0.38088 0.16009 0.0
C29 C 0.97204 0.31837 0.13071 0.0
C30 C 0.9367 0.2891 0.14039 0.0
C31 C 1.02061 0.39574 0.13023 0.0
H32 H 0.1968 0.81378 0.15193 0.0
H33 H 0.12492 0.76121 0.13725 0.0
H34 H 0.15187 0.676 0.2003 0.0
H35 H 0.22285 0.72935 0.21591 0.0
H36 H 0.90891 0.36545 0.18521 0.0
H37 H 0.9699 0.41641 0.16785 0.0
H38 H 0.98961 0.3052 0.11548 0.0
H39 H 0.92734 0.25385 0.13213 0.0
Dy40 Dy 0.58193 0.03048 0.5176 0.0
Dy41 Dy 0.69111 0.05429 0.52921 0.0
C42 C 0.632 0.04639 0.57704 0.0
O43 O 0.60249 0.10344 0.50935 0.0
O44 O 0.67178 0.12106 0.53433 0.0
O45 O 0.5185 0.01343 0.53284 0.0
O46 O 0.52102 0.02307 0.49015 0.0
O47 O 0.67115 0.06326 0.48565 0.0
O48 O 0.60816 0.00693 0.48062 0.0
O49 O 0.67181 0.97822 0.52238 0.0
O50 O 0.59757 0.96465 0.5285 0.0
O51 O 0.75408 0.04703 0.51706 0.0
O52 O 0.75256 0.08989 0.55349 0.0
C53 C 0.63767 0.1335 0.52144 0.0
O54 O 0.60301 0.06025 0.5604 0.0
O55 O 0.66589 0.03339 0.56801 0.0
C56 C 0.46245 0.96604 0.50131 0.0
C57 C 0.39877 0.88389 0.4862 0.0
C58 C 0.43626 0.88527 0.50514 0.0
C59 C 0.46798 0.92592 0.5125 0.0
C60 C 0.42503 0.96482 0.48246 0.0
C61 C 0.39348 0.924 0.47486 0.0
C62 C 0.4959 0.00896 0.50872 0.0
C63 C 0.64043 0.03282 0.47007 0.0
C64 C 0.6342 0.95034 0.52595 0.0
C65 C 0.80956 0.11467 0.52674 0.0
C66 C 0.87122 0.18735 0.50993 0.0
C67 C 0.82769 0.17352 0.49616 0.0
C68 C 0.79704 0.13763 0.50459 0.0
C69 C 0.85291 0.12815 0.54045 0.0
C70 C 0.88352 0.16427 0.53215 0.0
C71 C 0.77718 0.07756 0.53602 0.0
H72 H 0.44146 0.85472 0.51388 0.0
H73 H 0.4969 0.92589 0.52685 0.0
H74 H 0.42032 0.9954 0.47355 0.0
H75 H 0.36474 0.92385 0.46032 0.0
H76 H 0.81709 0.19101 0.4792 0.0
H77 H 0.76346 0.12796 0.49394 0.0
H78 H 0.86303 0.11088 0.55764 0.0
H79 H 0.91695 0.17389 0.54299 0.0
Dy80 Dy 0.62731 0.53684 0.83865 0.0
Dy81 Dy 0.51966 0.51576 0.82174 0.0
C82 C 0.58637 0.52733 0.77807 0.0
O83 O 0.61406 0.60499 0.83056 0.0
O84 O 0.53839 0.59111 0.83224 0.0
O85 O 0.69314 0.57094 0.8317 0.0
O86 O 0.68483 0.52531 0.86363 0.0
O87 O 0.53142 0.50703 0.86627 0.0
O88 O 0.59889 0.55772 0.87529 0.0
O89 O 0.53679 0.44789 0.81659 0.0
O90 O 0.60265 0.46363 0.84499 0.0
O91 O 0.45262 0.51287 0.83066 0.0
O92 O 0.46407 0.49141 0.79011 0.0
C93 C 0.57707 0.61934 0.83157 0.0
O94 O 0.61253 0.51064 0.79501 0.0
O95 O 0.55328 0.54234 0.78662 0.0
C96 C 0.7457 0.52594 0.83884 0.0
C97 C 0.81519 0.49241 0.8191 0.0
C98 C 0.77773 0.49532 0.80126 0.0
C99 C 0.74308 0.5117 0.81108 0.0
C100 C 0.7816 0.52036 0.85688 0.0
C101 C 0.816 0.50359 0.84714 0.0
C102 C 0.71257 0.54864 0.84902 0.0
C103 C 0.56259 0.53443 0.88352 0.0
C104 C 0.56882 0.43438 0.83096 0.0
C105 C 0.40987 0.53398 0.7937 0.0
C106 C 0.36015 0.59444 0.77266 0.0
C107 C 0.39753 0.61018 0.79242 0.0
C108 C 0.42218 0.58039 0.80266 0.0
C109 C 0.37377 0.51811 0.7733 0.0
C110 C 0.3491 0.54811 0.76279 0.0
C111 C 0.43567 0.5028 0.80519 0.0
H112 H 0.7762 0.48685 0.77961 0.0
H113 H 0.71518 0.51497 0.79682 0.0
H114 H 0.784 0.53082 0.87836 0.0
H115 H 0.8447 0.50245 0.86139 0.0
H116 H 0.40676 0.64521 0.80109 0.0
H117 H 0.45029 0.59354 0.81814 0.0
H118 H 0.36433 0.48248 0.76576 0.0
H119 H 0.32089 0.53485 0.74737 0.0
H120 H 0.52335 0.96723 0.27612 0.0
H121 H 0.63582 0.06462 0.25547 0.0
H122 H 0.52258 0.00948 0.19538 0.0
C123 C 0.54013 0.98689 0.26127 0.0
C124 C 0.5182 0.98452 0.23487 0.0
C125 C 0.58254 0.01571 0.26899 0.0
C126 C 0.60311 0.04243 0.24974 0.0
C127 C 0.58132 0.03995 0.22308 0.0
C128 C 0.53902 0.01129 0.21596 0.0
N129 N 0.60048 0.06551 0.20269 0.0
C130 C 0.64265 0.09419 0.20589 0.0
H131 H 0.63699 0.45218 0.58735 0.0
H132 H 0.61896 0.5843 0.56924 0.0
H133 H 0.62612 0.4851 0.5045 0.0
C134 C 0.63369 0.4766 0.57268 0.0
C135 C 0.63293 0.46362 0.54503 0.0
C136 C 0.62834 0.51979 0.58158 0.0
C137 C 0.62281 0.55084 0.5624 0.0
C138 C 0.6224 0.53861 0.5345 0.0
C139 C 0.62669 0.49467 0.52596 0.0
N140 N 0.61774 0.56946 0.51454 0.0
C141 C 0.61911 0.6155 0.52027 0.0
H142 H 0.07955 0.58028 0.89096 0.0
H143 H 0.15246 0.71664 0.91746 0.0
H144 H 0.12101 0.67307 0.83217 0.0
C145 C 0.09796 0.61286 0.88604 0.0
C146 C 0.09845 0.62217 0.85876 0.0
C147 C 0.11758 0.64635 0.90734 0.0
C148 C 0.13773 0.69022 0.90122 0.0
C149 C 0.13985 0.69989 0.87413 0.0
C150 C 0.12051 0.66556 0.85305 0.0
N151 N 0.16084 0.74437 0.86842 0.0
C152 C 0.17944 0.75179 0.84443 0.0
H153 H 0.15966 0.60545 0.39326 0.0
H154 H 0.09735 0.46918 0.40837 0.0
H155 H 0.19834 0.55242 0.46794 0.0
C156 C 0.1558 0.57814 0.40646 0.0
C157 C 0.18213 0.58451 0.43181 0.0
C158 C 0.12542 0.53663 0.3976 0.0
C159 C 0.12054 0.5014 0.41493 0.0
C160 C 0.14668 0.50754 0.44048 0.0
C161 C 0.17763 0.54865 0.44853 0.0
N162 N 0.14414 0.47257 0.45823 0.0
C163 C 0.10575 0.43962 0.45976 0.0
H164 H 0.57756 0.11697 0.76679 0.0
H165 H 0.59799 0.98627 0.7862 0.0
H166 H 0.58277 0.08391 0.84964 0.0
C167 C 0.58046 0.09279 0.78167 0.0
C168 C 0.57863 0.10546 0.80905 0.0
C169 C 0.5877 0.05015 0.77329 0.0
C170 C 0.59265 0.01929 0.79268 0.0
C171 C 0.5904 0.03118 0.82032 0.0
C172 C 0.58423 0.07463 0.82839 0.0
N173 N 0.59412 0.00049 0.8405 0.0
C174 C 0.59314 0.95445 0.83513 0.0
H175 H 0.6471 0.54071 0.08174 0.0
H176 H 0.51284 0.54342 0.0948 0.0
H177 H 0.61021 0.53607 0.16265 0.0
C178 C 0.62235 0.54042 0.09561 0.0
C179 C 0.63457 0.5377 0.12333 0.0
C180 C 0.57897 0.54288 0.08532 0.0
C181 C 0.54625 0.5417 0.10293 0.0
C182 C 0.55696 0.53951 0.13099 0.0
C183 C 0.60157 0.53794 0.14112 0.0
N184 N 0.52404 0.53895 0.14938 0.0
C185 C 0.47865 0.53986 0.14289 0.0
H186 H 0.1899 0.46643 0.14485 0.0
H187 H 0.44031 0.61305 0.1394 0.0
H188 H 0.22118 0.61179 0.14165 0.0
H189 H 0.40749 0.46796 0.14237 0.0
H190 H 0.36079 0.61353 0.13928 0.0
H191 H 0.26872 0.46658 0.14342 0.0
C192 C 0.21317 0.49852 0.14388 0.0
C193 C 0.19807 0.53918 0.14341 0.0
C194 C 0.3708 0.58148 0.13979 0.0
C195 C 0.28988 0.53951 0.14168 0.0
C196 C 0.41632 0.58119 0.13974 0.0
C197 C 0.43075 0.54034 0.14062 0.0
C198 C 0.33902 0.54058 0.14089 0.0
C199 C 0.39801 0.50022 0.14142 0.0
C200 C 0.2585 0.49853 0.14303 0.0
C201 C 0.23064 0.57947 0.14208 0.0
N202 N 0.35405 0.50136 0.14156 0.0
N203 N 0.27458 0.57858 0.14128 0.0
H204 H 0.88771 0.20566 0.45817 0.0
H205 H 0.0758 0.43212 0.50807 0.0
H206 H 0.92813 0.25735 0.54223 0.0
H207 H 1.05199 0.37097 0.42553 0.0
H208 H 1.01596 0.37211 0.51995 0.0
H209 H 0.94219 0.26948 0.44481 0.0
C210 C 0.90788 0.23058 0.47379 0.0
C211 C 0.90357 0.22607 0.50138 0.0
C212 C 1.02356 0.37177 0.49919 0.0
C213 C 0.9659 0.299 0.48625 0.0
C214 C 1.05753 0.40604 0.49244 0.0
C215 C 1.06839 0.40603 0.46589 0.0
C216 C 1.00042 0.33725 0.47918 0.0
C217 C 1.04421 0.37179 0.44625 0.0
C218 C 0.93907 0.26684 0.46616 0.0
C219 C 0.93079 0.25911 0.52078 0.0
N220 N 1.01125 0.33851 0.4533 0.0
N221 N 0.96074 0.29413 0.51284 0.0
H222 H 0.50837 0.66304 0.83378 0.0
H223 H 0.66153 0.91327 0.83005 0.0
H224 H 0.64991 0.68918 0.82911 0.0
H225 H 0.52024 0.88624 0.83435 0.0
H226 H 0.65789 0.83116 0.82839 0.0
H227 H 0.5119 0.74426 0.83306 0.0
C228 C 0.54024 0.68574 0.83259 0.0
C229 C 0.5789 0.66892 0.8315 0.0
C230 C 0.6276 0.84308 0.82954 0.0
C231 C 0.58318 0.76258 0.83071 0.0
C232 C 0.6297 0.88984 0.8304 0.0
C233 C 0.59108 0.9061 0.8322 0.0
C234 C 0.58653 0.81252 0.83062 0.0
C235 C 0.55068 0.87475 0.83283 0.0
C236 C 0.54222 0.73228 0.83218 0.0
C237 C 0.6192 0.70037 0.83003 0.0
N238 N 0.54944 0.82945 0.8321 0.0
N239 N 0.62027 0.74556 0.8297 0.0
H240 H 0.89392 0.47031 0.11972 0.0
H241 H 0.7011 0.59528 0.1598 0.0
H242 H 0.9239 0.6021 0.165 0.0
H243 H 0.67738 0.47361 0.10526 0.0
H244 H 0.78136 0.59525 0.16633 0.0
H245 H 0.81434 0.46835 0.1181 0.0
C246 C 0.884 0.49896 0.1294 0.0
C247 C 0.91647 0.53657 0.14242 0.0
C248 C 0.75851 0.56821 0.1532 0.0
C249 C 0.82374 0.53433 0.14073 0.0
C250 C 0.71248 0.56794 0.14973 0.0
C251 C 0.68196 0.53412 0.13215 0.0
C252 C 0.77448 0.53428 0.13912 0.0
C253 C 0.6993 0.50023 0.11916 0.0
C254 C 0.83818 0.49777 0.12845 0.0
C255 C 0.9006 0.57237 0.15461 0.0
N256 N 0.74389 0.50124 0.12284 0.0
N257 N 0.85572 0.57038 0.15346 0.0
H258 H 0.36206 0.84777 0.43483 0.0
H259 H 0.2022 0.63066 0.4827 0.0
H260 H 0.36069 0.82139 0.51902 0.0
H261 H 0.23616 0.63864 0.40087 0.0
H262 H 0.25466 0.70374 0.49626 0.0
H263 H 0.30903 0.77482 0.42168 0.0
C264 C 0.35032 0.82671 0.45053 0.0
C265 C 0.36575 0.84048 0.47803 0.0
C266 C 0.25059 0.68938 0.47535 0.0
C267 C 0.30536 0.75712 0.46319 0.0
C268 C 0.22085 0.64755 0.46762 0.0
C269 C 0.21456 0.62843 0.44056 0.0
C270 C 0.27395 0.71246 0.45586 0.0
C271 C 0.23918 0.65236 0.42182 0.0
C272 C 0.32035 0.785 0.44303 0.0
C273 C 0.34988 0.81174 0.49758 0.0
N274 N 0.26762 0.69317 0.4298 0.0
N275 N 0.32041 0.77143 0.48978 0.0
H276 H 0.62742 0.39289 0.8595 0.0
H277 H 0.51439 0.14508 0.78617 0.0
H278 H 0.50715 0.3628 0.8024 0.0
H279 H 0.62695 0.17062 0.84876 0.0
H280 H 0.509 0.22403 0.79396 0.0
H281 H 0.62621 0.3117 0.85763 0.0
C282 C 0.60061 0.36928 0.84664 0.0
C283 C 0.56744 0.38494 0.83096 0.0
C284 C 0.53465 0.21244 0.80623 0.0
C285 C 0.56596 0.29164 0.82873 0.0
C286 C 0.53771 0.16731 0.80179 0.0
C287 C 0.57135 0.15136 0.81673 0.0
C288 C 0.56575 0.24227 0.8256 0.0
C289 C 0.60044 0.18152 0.83687 0.0
C290 C 0.59993 0.32283 0.84565 0.0
C291 C 0.53354 0.35252 0.81479 0.0
N292 N 0.59731 0.22569 0.84051 0.0
N293 N 0.53385 0.30758 0.81399 0.0
H294 H 0.70287 0.90704 0.52254 0.0
H295 H 0.55156 0.65656 0.52827 0.0
H296 H 0.56259 0.88069 0.53119 0.0
H297 H 0.69149 0.68378 0.51971 0.0
H298 H 0.55524 0.73872 0.53114 0.0
H299 H 0.69974 0.82581 0.52299 0.0
C300 C 0.67138 0.88427 0.52459 0.0
C301 C 0.63292 0.901 0.52678 0.0
C302 C 0.58523 0.72683 0.52879 0.0
C303 C 0.62913 0.80742 0.52729 0.0
C304 C 0.58311 0.68003 0.52723 0.0
C305 C 0.62132 0.66382 0.52385 0.0
C306 C 0.62589 0.75746 0.52684 0.0
C307 C 0.66137 0.69523 0.52242 0.0
C308 C 0.66964 0.83776 0.52485 0.0
C309 C 0.59314 0.86956 0.52942 0.0
N310 N 0.66262 0.74056 0.52385 0.0
N311 N 0.59228 0.8244 0.52954 0.0
H312 H 0.87268 0.4406 0.83778 0.0
H313 H 1.0499 0.63985 0.81257 0.0
H314 H 0.85306 0.53202 0.77702 0.0
H315 H 0.08096 0.52818 0.85469 0.0
H316 H 0.9859 0.58818 0.78695 0.0
H317 H 0.95174 0.45586 0.83236 0.0
C318 C 0.88478 0.4627 0.82262 0.0
C319 C 0.85674 0.48651 0.80864 0.0
C320 C 1.00722 0.5745 0.80129 0.0
C321 C 0.94715 0.50509 0.80279 0.0
C322 C 1.04432 0.60421 0.81596 0.0
C323 C 1.06984 0.58899 0.83699 0.0
C324 C 0.99462 0.52972 0.80836 0.0
C325 C 1.06072 0.54205 0.83983 0.0
C326 C 0.92997 0.47143 0.81947 0.0
C327 C 0.87373 0.51373 0.78871 0.0
N328 N 1.02288 0.51435 0.82646 0.0
N329 N 0.91817 0.52348 0.78701 0.0
H330 H 0.29447 0.75271 0.20213 0.0
H331 H 0.4444 0.00449 0.20745 0.0
H332 H 0.23938 0.86907 0.18628 0.0
H333 H 0.49031 0.8958 0.24495 0.0
H334 H 0.3704 0.95388 0.19548 0.0
H335 H 0.36781 0.80347 0.21455 0.0
C336 C 0.2976 0.78894 0.20151 0.0
C337 C 0.26046 0.80655 0.19322 0.0
C338 C 0.39666 0.94116 0.20637 0.0
C339 C 0.34478 0.86481 0.20684 0.0
C340 C 0.4389 0.96989 0.21303 0.0
C341 C 0.47341 0.95423 0.22721 0.0
C342 C 0.38908 0.89634 0.21369 0.0
C343 C 0.46446 0.90928 0.23422 0.0
C344 C 0.33962 0.81788 0.20844 0.0
C345 C 0.26703 0.85381 0.19218 0.0
N346 N 0.42319 0.88184 0.22729 0.0
N347 N 0.30839 0.88126 0.19883 0.0
H348 H 0.57447 0.17443 0.49688 0.0
H349 H 0.69831 0.42298 0.56481 0.0
H350 H 0.70321 0.20549 0.54575 0.0
H351 H 0.57919 0.39846 0.50728 0.0
H352 H 0.70167 0.34356 0.5563 0.0
H353 H 0.576 0.25587 0.49894 0.0
C354 C 0.60314 0.19827 0.50795 0.0
C355 C 0.63863 0.18284 0.52133 0.0
C356 C 0.67498 0.35545 0.54527 0.0
C357 C 0.64051 0.27625 0.52376 0.0
C358 C 0.6731 0.40084 0.55012 0.0
C359 C 0.63833 0.41723 0.5368 0.0
C360 C 0.6415 0.32577 0.52718 0.0
C361 C 0.60666 0.38718 0.51787 0.0
C362 C 0.60401 0.24482 0.50905 0.0
C363 C 0.67493 0.21552 0.53523 0.0
N364 N 0.60868 0.34271 0.51385 0.0
N365 N 0.67477 0.26046 0.53621 0.0
H366 H 0.26864 0.57305 0.76242 0.0
H367 H 0.26571 0.78787 0.84072 0.0
H368 H 0.38229 0.6865 0.76701 0.0
H369 H 0.14427 0.70883 0.79484 0.0
H370 H 0.30825 0.76002 0.80739 0.0
H371 H 0.22067 0.62605 0.76574 0.0
C372 C 0.28355 0.60903 0.7632 0.0
C373 C 0.33002 0.6252 0.76563 0.0
C374 C 0.27219 0.74995 0.80399 0.0
C375 C 0.27507 0.6862 0.77043 0.0
C376 C 0.24798 0.76598 0.823 0.0
C377 C 0.20181 0.74961 0.82068 0.0
C378 C 0.24989 0.71617 0.7833 0.0
C379 C 0.18013 0.72115 0.7976 0.0
C380 C 0.25595 0.63946 0.7652 0.0
C381 C 0.3469 0.67244 0.76648 0.0
N382 N 0.20449 0.70402 0.78016 0.0
N383 N 0.31967 0.70135 0.76989 0.0
H384 H 0.83402 0.32519 0.1705 0.0
H385 H 0.72216 0.073 0.20208 0.0
H386 H 0.90389 0.21652 0.17154 0.0
H387 H 0.65754 0.18504 0.2063 0.0
H388 H 0.79094 0.12557 0.19372 0.0
H389 H 0.77072 0.27506 0.18605 0.0
C390 C 0.83628 0.29089 0.17425 0.0
C391 C 0.87448 0.27514 0.1697 0.0
C392 C 0.76194 0.13881 0.19682 0.0
C393 C 0.80149 0.21709 0.18718 0.0
C394 C 0.72292 0.1089 0.20171 0.0
C395 C 0.68476 0.12518 0.20496 0.0
C396 C 0.76226 0.18504 0.19494 0.0
C397 C 0.6867 0.17157 0.20401 0.0
C398 C 0.79995 0.26216 0.18302 0.0
C399 C 0.87495 0.22998 0.17441 0.0
N400 N 0.72479 0.19993 0.1989 0.0
N401 N 0.83895 0.2025 0.1828 0.0
H402 H 0.09054 0.5027 0.05172 0.0
H403 H 0.09263 0.6959 0.94865 0.0
H404 H 1.0385 0.62197 0.06651 0.0
H405 H 0.13319 0.57094 0.93031 0.0
H406 H 0.0778 0.67188 -0.00651 0.0
H407 H 0.10936 0.52841 0.00792 0.0
C408 C 0.08272 0.53406 0.04568 0.0
C409 C 1.06282 0.56013 0.06281 0.0
C410 C 0.09019 0.64982 0.97971 0.0
C411 C 0.08484 0.5901 0.01291 0.0
C412 C 0.09908 0.66376 0.95425 0.0
C413 C 0.11395 0.63527 0.93574 0.0
C414 C 0.09635 0.60717 0.98671 0.0
C415 C 0.12124 0.59368 0.94389 0.0
C416 C 0.09367 0.54885 0.02073 0.0
C417 C 1.0537 0.60066 0.05397 0.0
N418 N 0.11219 0.5808 0.96871 0.0
N419 N 1.06491 0.61443 0.0297 0.0
H420 H 0.59943 0.96008 0.43427 0.0
H421 H 0.62589 0.09186 0.30277 0.0
H422 H 0.68145 0.09598 0.43822 0.0
H423 H 0.58672 0.94566 0.30038 0.0
H424 H 0.64861 0.09542 0.35188 0.0
H425 H 0.59477 0.95506 0.38487 0.0
C426 C 0.61669 0.98881 0.42471 0.0
C427 C 0.64062 0.0286 0.44033 0.0
C428 C 0.63566 0.06257 0.34048 0.0
C429 C 0.63511 0.02328 0.38366 0.0
C430 C 0.6229 0.06049 0.31245 0.0
C431 C 0.60364 0.01844 0.29755 0.0
C432 C 0.6287 0.02234 0.35361 0.0
C433 C 0.60035 0.9789 0.31118 0.0
C434 C 0.61421 0.98586 0.39649 0.0
C435 C 0.66263 0.06467 0.42688 0.0
N436 N 0.6121 0.98187 0.33844 0.0
N437 N 0.65884 0.06142 0.39922 0.0
H438 H 0.65473 0.50379 0.75438 0.0
H439 H 0.56838 0.559 0.60542 0.0
H440 H 0.5386 0.55893 0.73681 0.0
H441 H 0.68459 0.50488 0.6245 0.0
H442 H 0.56048 0.56614 0.65397 0.0
H443 H 0.66888 0.50922 0.70731 0.0
C444 C 0.63217 0.51707 0.74063 0.0
C445 C 0.59525 0.53066 0.74955 0.0
C446 C 0.58795 0.55311 0.64754 0.0
C447 C 0.61134 0.53707 0.69545 0.0
C448 C 0.59267 0.5494 0.61988 0.0
C449 C 0.6269 0.53087 0.61094 0.0
C450 C 0.61773 0.53821 0.66632 0.0
C451 C 0.65726 0.51861 0.6305 0.0
C452 C 0.64035 0.52029 0.71372 0.0
C453 C 0.56735 0.54784 0.73079 0.0
N454 N 0.65175 0.52215 0.6572 0.0
N455 N 0.57585 0.55038 0.70459 0.0
H456 H 0.5626 0.06597 0.60108 0.0
H457 H 0.6527 0.01711 0.75071 0.0
H458 H 0.68428 0.02015 0.61874 0.0
H459 H 0.53049 0.06001 0.72974 0.0
H460 H 0.66291 0.01194 0.70233 0.0
H461 H 0.54927 0.05987 0.64806 0.0
C462 C 0.5867 0.05475 0.61486 0.0
C463 C 0.62481 0.04384 0.60592 0.0
C464 C 0.63364 0.02201 0.70833 0.0
C465 C 0.6095 0.03649 0.6601 0.0
C466 C 0.62764 0.02458 0.73586 0.0
C467 C 0.59092 0.0394 0.74417 0.0
C468 C 0.60261 0.0343 0.68913 0.0
C469 C 0.55958 0.04903 0.7242 0.0
C470 C 0.57892 0.05106 0.64177 0.0
C471 C 0.65457 0.02915 0.62479 0.0
N472 N 0.56632 0.04665 0.6977 0.0
N473 N 0.64637 0.02604 0.65105 0.0
H474 H 0.50078 0.48231 0.91148 0.0
H475 H 0.6242 0.6052 0.05563 0.0
H476 H 0.61439 0.59655 0.92268 0.0
H477 H 0.51192 0.49033 0.04824 0.0
H478 H 0.61489 0.60671 0.00643 0.0
H479 H 0.49855 0.48813 0.96084 0.0
C480 C 0.52498 0.50878 0.92423 0.0
C481 C 0.55811 0.53868 0.91291 0.0
C482 C 0.59193 0.5813 0.01543 0.0
C483 C 0.55567 0.54557 0.96923 0.0
C484 C 0.59726 0.58051 0.04354 0.0
C485 C 0.56904 0.54735 0.05591 0.0
C486 C 0.55835 0.54835 -0.00064 0.0
C487 C 0.53434 0.51644 0.0394 0.0
C488 C 0.5237 0.51206 0.95239 0.0
C489 C 0.58854 0.57238 0.93042 0.0
N490 N 0.53026 0.5173 0.01186 0.0
N491 N 0.58668 0.57471 0.95759 0.0
H492 H 1.04455 0.45514 0.225 0.0
H493 H 0.08591 0.59618 0.37047 0.0
H494 H 0.08569 0.60146 0.23766 0.0
H495 H 0.11249 0.4624 0.36021 0.0
H496 H 1.06362 0.59213 0.32155 0.0
H497 H 1.04968 0.45197 0.27456 0.0
C498 C 1.05435 0.48654 0.23819 0.0
C499 C 1.06514 0.52863 0.2273 0.0
C500 C 0.07377 0.56344 0.33009 0.0
C501 C 1.06998 0.5252 0.28355 0.0
C502 C 0.08647 0.56567 0.35798 0.0
C503 C 0.10211 0.53 0.36938 0.0
C504 C 0.07614 0.52505 0.31345 0.0
C505 C 0.10085 0.49075 0.35229 0.0
C506 C 1.05727 0.48466 0.26635 0.0
C507 C 0.0776 0.56829 0.24522 0.0
N508 N 0.08862 0.4895 0.32505 0.0
N509 N 0.07953 0.5656 0.27245 0.0
loop_
_geom_bond_atom_site_label_1
_geom_bond_atom_site_label_2
_geom_bond_distance
_geom_bond_site_symmetry_2
_ccdc_geom_bond_type
Dy0 O3 2.307 1_455 S
Dy0 O5 2.395 . S
Dy0 O6 2.379 . S
Dy0 O8 2.339 . S
Dy0 O10 2.298 . S
Dy0 O14 2.275 . S
Dy0 C22 2.738 . S
Dy1 O4 2.298 . S
Dy1 O7 2.275 1_655 S
Dy1 O9 2.307 1_655 S
Dy1 O11 2.395 . S
Dy1 O12 2.379 . S
Dy1 O15 2.339 . S
Dy1 C31 2.738 . S
C2 O14 1.254 . S
C2 O15 1.257 1_455 S
O3 Dy0 2.307 1_655 S
O3 C13 1.266 . S
O4 Dy1 2.298 . S
O4 C13 1.236 . S
O5 Dy0 2.395 . S
O5 C22 1.255 . S
O6 Dy0 2.379 . S
O6 C22 1.249 . S
O7 Dy1 2.275 1_455 S
O7 C23 1.254 . S
O8 Dy0 2.339 . S
O8 C23 1.257 . S
O9 Dy1 2.307 1_455 S
O9 C24 1.266 . S
O10 Dy0 2.298 . S
O10 C24 1.236 . S
O11 Dy1 2.395 . S
O11 C31 1.255 . S
O12 Dy1 2.379 . S
O12 C31 1.249 . S
C13 O3 1.266 . S
C13 O4 1.236 . S
O14 Dy0 2.275 . S
O14 C2 1.254 . S
O15 Dy1 2.339 . S
O15 C2 1.257 1_655 S
C16 C19 1.344 . S
C16 C20 1.328 . S
C16 C22 1.516 . S
C17 C18 1.304 . S
C17 C21 1.323 . S
C18 C17 1.304 . S
C18 C19 1.371 . S
C18 H32 0.930 . S
C19 C16 1.344 . S
C19 C18 1.371 . S
C19 H33 0.931 . S
C20 C16 1.328 . S
C20 C21 1.433 . S
C20 H34 0.931 . S
C21 C17 1.323 . S
C21 C20 1.433 . S
C21 H35 0.933 . S
C22 Dy0 2.738 . S
C22 O5 1.255 . S
C22 O6 1.249 . S
C22 C16 1.516 . S
C23 O7 1.254 . S
C23 O8 1.257 . S
C24 O9 1.266 . S
C24 O10 1.236 . S
C25 C28 1.344 . S
C25 C29 1.328 . S
C25 C31 1.516 . S
C26 C27 1.304 . S
C26 C30 1.323 . S
C27 C26 1.304 . S
C27 C28 1.371 . S
C27 H36 0.930 . S
C28 C25 1.344 . S
C28 C27 1.371 . S
C28 H37 0.931 . S
C29 C25 1.328 . S
C29 C30 1.433 . S
C29 H38 0.931 . S
C30 C26 1.323 . S
C30 C29 1.433 . S
C30 H39 0.933 . S
C31 Dy1 2.738 . S
C31 O11 1.255 . S
C31 O12 1.249 . S
C31 C25 1.516 . S
H32 C18 0.930 . S
H33 C19 0.931 . S
H34 C20 0.931 . S
H35 C21 0.933 . S
H36 C27 0.930 . S
H37 C28 0.931 . S
H38 C29 0.931 . S
H39 C30 0.933 . S
Dy40 O43 2.307 . S
Dy40 O45 2.395 1_545 S
Dy40 O46 2.379 1_545 S
Dy40 O48 2.339 . S
Dy40 O50 2.298 1_545 S
Dy40 O54 2.275 . S
Dy40 C62 2.738 1_545 S
Dy41 O44 2.298 . S
Dy41 O47 2.275 . S
Dy41 O49 2.307 1_545 S
Dy41 O51 2.395 . S
Dy41 O52 2.379 . S
Dy41 O55 2.339 . S
Dy41 C71 2.738 . S
C42 O54 1.254 . S
C42 O55 1.257 . S
O43 Dy40 2.307 . S
O43 C53 1.266 . S
O44 Dy41 2.298 . S
O44 C53 1.236 . S
O45 Dy40 2.395 1_565 S
O45 C62 1.255 . S
O46 Dy40 2.379 1_565 S
O46 C62 1.249 . S
O47 Dy41 2.275 . S
O47 C63 1.254 . S
O48 Dy40 2.339 . S
O48 C63 1.257 . S
O49 Dy41 2.307 1_565 S
O49 C64 1.266 . S
O50 Dy40 2.298 1_565 S
O50 C64 1.236 . S
O51 Dy41 2.395 . S
O51 C71 1.255 . S
O52 Dy41 2.379 . S
O52 C71 1.249 . S
C53 O43 1.266 . S
C53 O44 1.236 . S
O54 Dy40 2.275 . S
O54 C42 1.254 . S
O55 Dy41 2.339 . S
O55 C42 1.257 . S
C56 C59 1.344 . S
C56 C60 1.328 . S
C56 C62 1.516 . S
C57 C58 1.304 . S
C57 C61 1.323 . S
C58 C57 1.304 . S
C58 C59 1.371 . S
C58 H72 0.930 . S
C59 C56 1.344 . S
C59 C58 1.371 . S
C59 H73 0.931 . S
C60 C56 1.328 . S
C60 C61 1.433 . S
C60 H74 0.931 . S
C61 C57 1.323 . S
C61 C60 1.433 . S
C61 H75 0.933 . S
C62 Dy40 2.738 1_565 S
C62 O45 1.255 . S
C62 O46 1.249 . S
C62 C56 1.516 . S
C63 O47 1.254 . S
C63 O48 1.257 . S
C64 O49 1.266 . S
C64 O50 1.236 . S
C65 C68 1.344 . S
C65 C69 1.328 . S
C65 C71 1.516 . S
C66 C67 1.304 . S
C66 C70 1.323 . S
C67 C66 1.304 . S
C67 C68 1.371 . S
C67 H76 0.930 . S
C68 C65 1.344 . S
C68 C67 1.371 . S
C68 H77 0.931 . S
C69 C65 1.328 . S
C69 C70 1.433 . S
C69 H78 0.931 . S
C70 C66 1.323 . S
C70 C69 1.433 . S
C70 H79 0.933 . S
C71 Dy41 2.738 . S
C71 O51 1.255 . S
C71 O52 1.249 . S
C71 C65 1.516 . S
H72 C58 0.930 . S
H73 C59 0.931 . S
H74 C60 0.931 . S
H75 C61 0.933 . S
H76 C67 0.930 . S
H77 C68 0.931 . S
H78 C69 0.931 . S
H79 C70 0.933 . S
Dy80 O83 2.307 . S
Dy80 O85 2.395 . S
Dy80 O86 2.379 . S
Dy80 O88 2.339 . S
Dy80 O90 2.298 . S
Dy80 O94 2.275 . S
Dy80 C102 2.738 . S
Dy81 O84 2.298 . S
Dy81 O87 2.275 . S
Dy81 O89 2.307 . S
Dy81 O91 2.395 . S
Dy81 O92 2.379 . S
Dy81 O95 2.339 . S
Dy81 C111 2.738 . S
C82 O94 1.254 . S
C82 O95 1.257 . S
O83 Dy80 2.307 . S
O83 C93 1.266 . S
O84 Dy81 2.298 . S
O84 C93 1.236 . S
O85 Dy80 2.395 . S
O85 C102 1.255 . S
O86 Dy80 2.379 . S
O86 C102 1.249 . S
O87 Dy81 2.275 . S
O87 C103 1.254 . S
O88 Dy80 2.339 . S
O88 C103 1.257 . S
O89 Dy81 2.307 . S
O89 C104 1.266 . S
O90 Dy80 2.298 . S
O90 C104 1.236 . S
O91 Dy81 2.395 . S
O91 C111 1.255 . S
O92 Dy81 2.379 . S
O92 C111 1.249 . S
C93 O83 1.266 . S
C93 O84 1.236 . S
O94 Dy80 2.275 . S
O94 C82 1.254 . S
O95 Dy81 2.339 . S
O95 C82 1.257 . S
C96 C99 1.344 . S
C96 C100 1.328 . S
C96 C102 1.516 . S
C97 C98 1.304 . S
C97 C101 1.323 . S
C98 C97 1.304 . S
C98 C99 1.371 . S
C98 H112 0.930 . S
C99 C96 1.344 . S
C99 C98 1.371 . S
C99 H113 0.931 . S
C100 C96 1.328 . S
C100 C101 1.433 . S
C100 H114 0.931 . S
C101 C97 1.323 . S
C101 C100 1.433 . S
C101 H115 0.933 . S
C102 Dy80 2.738 . S
C102 O85 1.255 . S
C102 O86 1.249 . S
C102 C96 1.516 . S
C103 O87 1.254 . S
C103 O88 1.257 . S
C104 O89 1.266 . S
C104 O90 1.236 . S
C105 C108 1.344 . S
C105 C109 1.328 . S
C105 C111 1.516 . S
C106 C107 1.304 . S
C106 C110 1.323 . S
C107 C106 1.304 . S
C107 C108 1.371 . S
C107 H116 0.930 . S
C108 C105 1.344 . S
C108 C107 1.371 . S
C108 H117 0.931 . S
C109 C105 1.328 . S
C109 C110 1.433 . S
C109 H118 0.931 . S
C110 C106 1.323 . S
C110 C109 1.433 . S
C110 H119 0.933 . S
C111 Dy81 2.738 . S
C111 O91 1.255 . S
C111 O92 1.249 . S
C111 C105 1.516 . S
H112 C98 0.930 . S
H113 C99 0.931 . S
H114 C100 0.931 . S
H115 C101 0.933 . S
H116 C107 0.930 . S
H117 C108 0.931 . S
H118 C109 0.931 . S
H119 C110 0.933 . S
H120 C123 0.929 . S
H121 C126 0.929 . S
H122 C128 0.930 . S
C123 H120 0.929 . S
C123 C124 1.398 . S
C123 C125 1.396 . S
C124 C123 1.398 . S
C124 C128 1.407 . S
C125 C123 1.396 . S
C125 C126 1.394 . S
C126 H121 0.929 . S
C126 C125 1.394 . S
C126 C127 1.382 . S
C127 C126 1.382 . S
C127 C128 1.392 . S
C127 N129 1.420 . S
C128 H122 0.930 . S
C128 C124 1.407 . S
C128 C127 1.392 . S
N129 C127 1.420 . S
N129 C130 1.244 . S
C130 N129 1.244 . S
H131 C134 0.929 . S
H132 C137 0.929 . S
H133 C139 0.930 . S
C134 H131 0.929 . S
C134 C135 1.398 . S
C134 C136 1.396 . S
C135 C134 1.398 . S
C135 C139 1.407 . S
C136 C134 1.396 . S
C136 C137 1.394 . S
C137 H132 0.929 . S
C137 C136 1.394 . S
C137 C138 1.382 . S
C138 C137 1.382 . S
C138 C139 1.392 . S
C138 N140 1.420 . S
C139 H133 0.930 . S
C139 C135 1.407 . S
C139 C138 1.392 . S
N140 C138 1.420 . S
N140 C141 1.244 . S
C141 N140 1.244 . S
H142 C145 0.929 . S
H143 C148 0.929 . S
H144 C150 0.930 . S
C145 H142 0.929 . S
C145 C146 1.398 . S
C145 C147 1.396 1_655 S
C146 C145 1.398 . S
C146 C150 1.407 1_655 S
C147 C145 1.396 1_455 S
C147 C148 1.394 . S
C148 H143 0.929 . S
C148 C147 1.394 . S
C148 C149 1.382 . S
C149 C148 1.382 . S
C149 C150 1.392 . S
C149 N151 1.420 . S
C150 H144 0.930 . S
C150 C146 1.407 1_455 S
C150 C149 1.392 . S
N151 C149 1.420 . S
N151 C152 1.244 . S
C152 N151 1.244 . S
H153 C156 0.929 . S
H154 C159 0.929 1_655 S
H155 C161 0.930 . S
C156 H153 0.929 . S
C156 C157 1.398 . S
C156 C158 1.396 . S
C157 C156 1.398 . S
C157 C161 1.407 . S
C158 C156 1.396 . S
C158 C159 1.394 . S
C159 H154 0.929 1_455 S
C159 C158 1.394 . S
C159 C160 1.382 . S
C160 C159 1.382 . S
C160 C161 1.392 . S
C160 N162 1.420 1_455 S
C161 H155 0.930 . S
C161 C157 1.407 . S
C161 C160 1.392 . S
N162 C160 1.420 1_655 S
N162 C163 1.244 . S
C163 N162 1.244 . S
H164 C167 0.929 . S
H165 C170 0.929 . S
H166 C172 0.930 . S
C167 H164 0.929 . S
C167 C168 1.398 . S
C167 C169 1.396 . S
C168 C167 1.398 . S
C168 C172 1.407 . S
C169 C167 1.396 . S
C169 C170 1.394 1_545 S
C170 H165 0.929 . S
C170 C169 1.394 1_565 S
C170 C171 1.382 . S
C171 C170 1.382 . S
C171 C172 1.392 1_565 S
C171 N173 1.420 . S
C172 H166 0.930 . S
C172 C168 1.407 . S
C172 C171 1.392 1_545 S
N173 C171 1.420 . S
N173 C174 1.244 . S
C174 N173 1.244 . S
H175 C178 0.929 . S
H176 C181 0.929 . S
H177 C183 0.930 . S
C178 H175 0.929 . S
C178 C179 1.398 . S
C178 C180 1.396 . S
C179 C178 1.398 . S
C179 C183 1.407 . S
C180 C178 1.396 . S
C180 C181 1.394 . S
C181 H176 0.929 . S
C181 C180 1.394 . S
C181 C182 1.382 . S
C182 C181 1.382 . S
C182 C183 1.392 . S
C182 N184 1.420 . S
C183 H177 0.930 . S
C183 C179 1.407 . S
C183 C182 1.392 . S
N184 C182 1.420 . S
N184 C185 1.244 . S
C185 N184 1.244 . S
H186 C192 0.930 . S
H187 C196 0.930 . S
H188 C201 0.929 . S
H189 C199 0.929 . S
H190 C194 0.929 . S
H191 C200 0.929 . S
C192 H186 0.930 . S
C192 C193 1.367 . S
C192 C200 1.378 . S
C193 C192 1.367 . S
C193 C201 1.433 . S
C194 H190 0.929 . S
C194 C196 1.378 . S
C194 C198 1.350 . S
C195 C198 1.463 . S
C195 C200 1.350 . S
C195 N203 1.427 . S
C196 H187 0.930 . S
C196 C194 1.378 . S
C196 C197 1.367 . S
C197 C196 1.367 . S
C197 C199 1.433 . S
C198 C194 1.350 . S
C198 C195 1.463 . S
C198 N202 1.427 . S
C199 H189 0.929 . S
C199 C197 1.433 . S
C199 N202 1.384 . S
C200 H191 0.929 . S
C200 C192 1.378 . S
C200 C195 1.350 . S
C201 H188 0.929 . S
C201 C193 1.433 . S
C201 N203 1.384 . S
N202 C198 1.427 . S
N202 C199 1.384 . S
N203 C195 1.427 . S
N203 C201 1.384 . S
H204 C210 0.930 . S
H205 C214 0.930 . S
H206 C219 0.929 . S
H207 C217 0.929 . S
H208 C212 0.929 . S
H209 C218 0.929 . S
C210 H204 0.930 . S
C210 C211 1.367 . S
C210 C218 1.378 . S
C211 C210 1.367 . S
C211 C219 1.433 . S
C212 H208 0.929 . S
C212 C214 1.378 . S
C212 C216 1.350 . S
C213 C216 1.463 . S
C213 C218 1.350 . S
C213 N221 1.427 . S
C214 H205 0.930 . S
C214 C212 1.378 . S
C214 C215 1.367 . S
C215 C214 1.367 . S
C215 C217 1.433 . S
C216 C212 1.350 . S
C216 C213 1.463 . S
C216 N220 1.427 . S
C217 H207 0.929 . S
C217 C215 1.433 . S
C217 N220 1.384 . S
C218 H209 0.929 . S
C218 C210 1.378 . S
C218 C213 1.350 . S
C219 H206 0.929 . S
C219 C211 1.433 . S
C219 N221 1.384 . S
N220 C216 1.427 . S
N220 C217 1.384 . S
N221 C213 1.427 . S
N221 C219 1.384 . S
H222 C228 0.930 . S
H223 C232 0.930 . S
H224 C237 0.929 . S
H225 C235 0.929 . S
H226 C230 0.929 . S
H227 C236 0.929 . S
C228 H222 0.930 . S
C228 C229 1.367 . S
C228 C236 1.378 . S
C229 C228 1.367 . S
C229 C237 1.433 . S
C230 H226 0.929 . S
C230 C232 1.378 . S
C230 C234 1.350 . S
C231 C234 1.463 . S
C231 C236 1.350 . S
C231 N239 1.427 . S
C232 H223 0.930 . S
C232 C230 1.378 . S
C232 C233 1.367 . S
C233 C232 1.367 . S
C233 C235 1.433 . S
C234 C230 1.350 . S
C234 C231 1.463 . S
C234 N238 1.427 . S
C235 H225 0.929 . S
C235 C233 1.433 . S
C235 N238 1.384 . S
C236 H227 0.929 . S
C236 C228 1.378 . S
C236 C231 1.350 . S
C237 H224 0.929 . S
C237 C229 1.433 . S
C237 N239 1.384 . S
N238 C234 1.427 . S
N238 C235 1.384 . S
N239 C231 1.427 . S
N239 C237 1.384 . S
H240 C246 0.930 . S
H241 C250 0.930 . S
H242 C255 0.929 . S
H243 C253 0.929 . S
H244 C248 0.929 . S
H245 C254 0.929 . S
C246 H240 0.930 . S
C246 C247 1.367 . S
C246 C254 1.378 . S
C247 C246 1.367 . S
C247 C255 1.433 . S
C248 H244 0.929 . S
C248 C250 1.378 . S
C248 C252 1.350 . S
C249 C252 1.463 . S
C249 C254 1.350 . S
C249 N257 1.427 . S
C250 H241 0.930 . S
C250 C248 1.378 . S
C250 C251 1.367 . S
C251 C250 1.367 . S
C251 C253 1.433 . S
C252 C248 1.350 . S
C252 C249 1.463 . S
C252 N256 1.427 . S
C253 H243 0.929 . S
C253 C251 1.433 . S
C253 N256 1.384 . S
C254 H245 0.929 . S
C254 C246 1.378 . S
C254 C249 1.350 . S
C255 H242 0.929 . S
C255 C247 1.433 . S
C255 N257 1.384 . S
N256 C252 1.427 . S
N256 C253 1.384 . S
N257 C249 1.427 . S
N257 C255 1.384 . S
H258 C264 0.930 . S
H259 C268 0.930 . S
H260 C273 0.929 . S
H261 C271 0.929 . S
H262 C266 0.929 . S
H263 C272 0.929 . S
C264 H258 0.930 . S
C264 C265 1.367 . S
C264 C272 1.378 . S
C265 C264 1.367 . S
C265 C273 1.433 . S
C266 H262 0.929 . S
C266 C268 1.378 . S
C266 C270 1.350 . S
C267 C270 1.463 . S
C267 C272 1.350 . S
C267 N275 1.427 . S
C268 H259 0.930 . S
C268 C266 1.378 . S
C268 C269 1.367 . S
C269 C268 1.367 . S
C269 C271 1.433 . S
C270 C266 1.350 . S
C270 C267 1.463 . S
C270 N274 1.427 . S
C271 H261 0.929 . S
C271 C269 1.433 . S
C271 N274 1.384 . S
C272 H263 0.929 . S
C272 C264 1.378 . S
C272 C267 1.350 . S
C273 H260 0.929 . S
C273 C265 1.433 . S
C273 N275 1.384 . S
N274 C270 1.427 . S
N274 C271 1.384 . S
N275 C267 1.427 . S
N275 C273 1.384 . S
H276 C282 0.930 . S
H277 C286 0.930 . S
H278 C291 0.929 . S
H279 C289 0.929 . S
H280 C284 0.929 . S
H281 C290 0.929 . S
C282 H276 0.930 . S
C282 C283 1.367 . S
C282 C290 1.378 . S
C283 C282 1.367 . S
C283 C291 1.433 . S
C284 H280 0.929 . S
C284 C286 1.378 . S
C284 C288 1.350 . S
C285 C288 1.463 . S
C285 C290 1.350 . S
C285 N293 1.427 . S
C286 H277 0.930 . S
C286 C284 1.378 . S
C286 C287 1.367 . S
C287 C286 1.367 . S
C287 C289 1.433 . S
C288 C284 1.350 . S
C288 C285 1.463 . S
C288 N292 1.427 . S
C289 H279 0.929 . S
C289 C287 1.433 . S
C289 N292 1.384 . S
C290 H281 0.929 . S
C290 C282 1.378 . S
C290 C285 1.350 . S
C291 H278 0.929 . S
C291 C283 1.433 . S
C291 N293 1.384 . S
N292 C288 1.427 . S
N292 C289 1.384 . S
N293 C285 1.427 . S
N293 C291 1.384 . S
H294 C300 0.930 . S
H295 C304 0.930 . S
H296 C309 0.929 . S
H297 C307 0.929 . S
H298 C302 0.929 . S
H299 C308 0.929 . S
C300 H294 0.930 . S
C300 C301 1.367 . S
C300 C308 1.378 . S
C301 C300 1.367 . S
C301 C309 1.433 . S
C302 H298 0.929 . S
C302 C304 1.378 . S
C302 C306 1.350 . S
C303 C306 1.463 . S
C303 C308 1.350 . S
C303 N311 1.427 . S
C304 H295 0.930 . S
C304 C302 1.378 . S
C304 C305 1.367 . S
C305 C304 1.367 . S
C305 C307 1.433 . S
C306 C302 1.350 . S
C306 C303 1.463 . S
C306 N310 1.427 . S
C307 H297 0.929 . S
C307 C305 1.433 . S
C307 N310 1.384 . S
C308 H299 0.929 . S
C308 C300 1.378 . S
C308 C303 1.350 . S
C309 H296 0.929 . S
C309 C301 1.433 . S
C309 N311 1.384 . S
N310 C306 1.427 . S
N310 C307 1.384 . S
N311 C303 1.427 . S
N311 C309 1.384 . S
H312 C318 0.930 . S
H313 C322 0.930 . S
H314 C327 0.929 . S
H315 C325 0.929 . S
H316 C320 0.929 . S
H317 C326 0.929 . S
C318 H312 0.930 . S
C318 C319 1.367 . S
C318 C326 1.378 . S
C319 C318 1.367 . S
C319 C327 1.433 . S
C320 H316 0.929 . S
C320 C322 1.378 . S
C320 C324 1.350 . S
C321 C324 1.463 . S
C321 C326 1.350 . S
C321 N329 1.427 . S
C322 H313 0.930 . S
C322 C320 1.378 . S
C322 C323 1.367 . S
C323 C322 1.367 . S
C323 C325 1.433 . S
C324 C320 1.350 . S
C324 C321 1.463 . S
C324 N328 1.427 . S
C325 H315 0.929 . S
C325 C323 1.433 . S
C325 N328 1.384 . S
C326 H317 0.929 . S
C326 C318 1.378 . S
C326 C321 1.350 . S
C327 H314 0.929 . S
C327 C319 1.433 . S
C327 N329 1.384 . S
N328 C324 1.427 . S
N328 C325 1.384 . S
N329 C321 1.427 . S
N329 C327 1.384 . S
H330 C336 0.930 . S
H331 C340 0.930 . S
H332 C345 0.929 . S
H333 C343 0.929 . S
H334 C338 0.929 . S
H335 C344 0.929 . S
C336 H330 0.930 . S
C336 C337 1.367 . S
C336 C344 1.378 . S
C337 C336 1.367 . S
C337 C345 1.433 . S
C338 H334 0.929 . S
C338 C340 1.378 1_565 S
C338 C342 1.350 . S
C339 C342 1.463 . S
C339 C344 1.350 . S
C339 N347 1.427 . S
C340 H331 0.930 . S
C340 C338 1.378 1_545 S
C340 C341 1.367 . S
C341 C340 1.367 . S
C341 C343 1.433 1_545 S
C342 C338 1.350 . S
C342 C339 1.463 . S
C342 N346 1.427 . S
C343 H333 0.929 . S
C343 C341 1.433 1_565 S
C343 N346 1.384 . S
C344 H335 0.929 . S
C344 C336 1.378 . S
C344 C339 1.350 . S
C345 H332 0.929 . S
C345 C337 1.433 . S
C345 N347 1.384 . S
N346 C342 1.427 . S
N346 C343 1.384 . S
N347 C339 1.427 . S
N347 C345 1.384 . S
H348 C354 0.930 . S
H349 C358 0.930 . S
H350 C363 0.929 . S
H351 C361 0.929 . S
H352 C356 0.929 . S
H353 C362 0.929 . S
C354 H348 0.930 . S
C354 C355 1.367 . S
C354 C362 1.378 . S
C355 C354 1.367 . S
C355 C363 1.433 . S
C356 H352 0.929 . S
C356 C358 1.378 . S
C356 C360 1.350 . S
C357 C360 1.463 . S
C357 C362 1.350 . S
C357 N365 1.427 . S
C358 H349 0.930 . S
C358 C356 1.378 . S
C358 C359 1.367 . S
C359 C358 1.367 . S
C359 C361 1.433 . S
C360 C356 1.350 . S
C360 C357 1.463 . S
C360 N364 1.427 . S
C361 H351 0.929 . S
C361 C359 1.433 . S
C361 N364 1.384 . S
C362 H353 0.929 . S
C362 C354 1.378 . S
C362 C357 1.350 . S
C363 H350 0.929 . S
C363 C355 1.433 . S
C363 N365 1.384 . S
N364 C360 1.427 . S
N364 C361 1.384 . S
N365 C357 1.427 . S
N365 C363 1.384 . S
H366 C372 0.930 . S
H367 C376 0.930 . S
H368 C381 0.929 . S
H369 C379 0.929 . S
H370 C374 0.929 . S
H371 C380 0.929 . S
C372 H366 0.930 . S
C372 C373 1.367 . S
C372 C380 1.378 . S
C373 C372 1.367 . S
C373 C381 1.433 . S
C374 H370 0.929 . S
C374 C376 1.378 . S
C374 C378 1.350 . S
C375 C378 1.463 . S
C375 C380 1.350 . S
C375 N383 1.427 . S
C376 H367 0.930 . S
C376 C374 1.378 . S
C376 C377 1.367 . S
C377 C376 1.367 . S
C377 C379 1.433 . S
C378 C374 1.350 . S
C378 C375 1.463 . S
C378 N382 1.427 . S
C379 H369 0.929 . S
C379 C377 1.433 . S
C379 N382 1.384 . S
C380 H371 0.929 . S
C380 C372 1.378 . S
C380 C375 1.350 . S
C381 H368 0.929 . S
C381 C373 1.433 . S
C381 N383 1.384 . S
N382 C378 1.427 . S
N382 C379 1.384 . S
N383 C375 1.427 . S
N383 C381 1.384 . S
H384 C390 0.930 . S
H385 C394 0.930 . S
H386 C399 0.929 . S
H387 C397 0.929 . S
H388 C392 0.929 . S
H389 C398 0.929 . S
C390 H384 0.930 . S
C390 C391 1.367 . S
C390 C398 1.378 . S
C391 C390 1.367 . S
C391 C399 1.433 . S
C392 H388 0.929 . S
C392 C394 1.378 . S
C392 C396 1.350 . S
C393 C396 1.463 . S
C393 C398 1.350 . S
C393 N401 1.427 . S
C394 H385 0.930 . S
C394 C392 1.378 . S
C394 C395 1.367 . S
C395 C394 1.367 . S
C395 C397 1.433 . S
C396 C392 1.350 . S
C396 C393 1.463 . S
C396 N400 1.427 . S
C397 H387 0.929 . S
C397 C395 1.433 . S
C397 N400 1.384 . S
C398 H389 0.929 . S
C398 C390 1.378 . S
C398 C393 1.350 . S
C399 H386 0.929 . S
C399 C391 1.433 . S
C399 N401 1.384 . S
N400 C396 1.427 . S
N400 C397 1.384 . S
N401 C393 1.427 . S
N401 C399 1.384 . S
H402 C408 0.930 . S
H403 C412 0.930 . S
H404 C417 0.929 1_655 S
H405 C415 0.929 . S
H406 C410 0.929 . S
H407 C416 0.929 . S
C408 H402 0.930 . S
C408 C409 1.367 . S
C408 C416 1.378 . S
C409 C408 1.367 . S
C409 C417 1.433 . S
C410 H406 0.929 . S
C410 C412 1.378 . S
C410 C414 1.350 1_556 S
C411 C414 1.463 . S
C411 C416 1.350 . S
C411 N419 1.427 . S
C412 H403 0.930 . S
C412 C410 1.378 . S
C412 C413 1.367 . S
C413 C412 1.367 . S
C413 C415 1.433 . S
C414 C410 1.350 1_554 S
C414 C411 1.463 . S
C414 N418 1.417 1_554 S
C415 H405 0.929 . S
C415 C413 1.433 . S
C415 N418 1.421 . S
C416 H407 0.929 . S
C416 C408 1.378 . S
C416 C411 1.350 . S
C417 H404 0.929 1_455 S
C417 C409 1.433 . S
C417 N419 1.384 . S
N418 C414 1.417 1_556 S
N418 C415 1.421 . S
N419 C411 1.427 . S
N419 C417 1.384 . S
H420 C426 0.930 . S
H421 C430 0.930 . S
H422 C435 0.929 . S
H423 C433 0.929 . S
H424 C428 0.929 . S
H425 C434 0.929 . S
C426 H420 0.930 . S
C426 C427 1.367 . S
C426 C434 1.378 . S
C427 C426 1.367 . S
C427 C435 1.433 . S
C428 H424 0.929 . S
C428 C430 1.378 . S
C428 C432 1.350 . S
C429 C432 1.463 . S
C429 C434 1.350 . S
C429 N437 1.427 . S
C430 H421 0.930 . S
C430 C428 1.378 . S
C430 C431 1.367 . S
C431 C430 1.367 . S
C431 C433 1.433 . S
C432 C428 1.350 . S
C432 C429 1.463 . S
C432 N436 1.427 . S
C433 H423 0.929 . S
C433 C431 1.433 . S
C433 N436 1.384 . S
C434 H425 0.929 . S
C434 C426 1.378 . S
C434 C429 1.350 . S
C435 H422 0.929 . S
C435 C427 1.433 . S
C435 N437 1.384 . S
N436 C432 1.427 . S
N436 C433 1.384 . S
N437 C429 1.427 . S
N437 C435 1.384 . S
H438 C444 0.930 . S
H439 C448 0.930 . S
H440 C453 0.929 . S
H441 C451 0.929 . S
H442 C446 0.929 . S
H443 C452 0.929 . S
C444 H438 0.930 . S
C444 C445 1.367 . S
C444 C452 1.378 . S
C445 C444 1.367 . S
C445 C453 1.433 . S
C446 H442 0.929 . S
C446 C448 1.378 . S
C446 C450 1.350 . S
C447 C450 1.463 . S
C447 C452 1.350 . S
C447 N455 1.427 . S
C448 H439 0.930 . S
C448 C446 1.378 . S
C448 C449 1.367 . S
C449 C448 1.367 . S
C449 C451 1.433 . S
C450 C446 1.350 . S
C450 C447 1.463 . S
C450 N454 1.427 . S
C451 H441 0.929 . S
C451 C449 1.433 . S
C451 N454 1.384 . S
C452 H443 0.929 . S
C452 C444 1.378 . S
C452 C447 1.350 . S
C453 H440 0.929 . S
C453 C445 1.433 . S
C453 N455 1.384 . S
N454 C450 1.427 . S
N454 C451 1.384 . S
N455 C447 1.427 . S
N455 C453 1.384 . S
H456 C462 0.930 . S
H457 C466 0.930 1_565 S
H458 C471 0.929 . S
H459 C469 0.929 . S
H460 C464 0.929 1_565 S
H461 C470 0.929 . S
C462 H456 0.930 . S
C462 C463 1.367 . S
C462 C470 1.378 . S
C463 C462 1.367 . S
C463 C471 1.433 . S
C464 H460 0.929 1_545 S
C464 C466 1.378 . S
C464 C468 1.350 . S
C465 C468 1.463 . S
C465 C470 1.350 . S
C465 N473 1.427 . S
C466 H457 0.930 1_545 S
C466 C464 1.378 . S
C466 C467 1.367 . S
C467 C466 1.367 . S
C467 C469 1.433 . S
C468 C464 1.350 . S
C468 C465 1.463 . S
C468 N472 1.427 . S
C469 H459 0.929 . S
C469 C467 1.433 . S
C469 N472 1.384 . S
C470 H461 0.929 . S
C470 C462 1.378 . S
C470 C465 1.350 . S
C471 H458 0.929 . S
C471 C463 1.433 . S
C471 N473 1.384 . S
N472 C468 1.427 . S
N472 C469 1.384 . S
N473 C465 1.427 . S
N473 C471 1.384 . S
H474 C480 0.930 . S
H475 C484 0.930 . S
H476 C489 0.929 . S
H477 C487 0.929 . S
H478 C482 0.929 1_556 S
H479 C488 0.929 . S
C480 H474 0.930 . S
C480 C481 1.367 . S
C480 C488 1.378 . S
C481 C480 1.367 . S
C481 C489 1.433 . S
C482 H478 0.929 1_554 S
C482 C484 1.378 . S
C482 C486 1.363 . S
C483 C486 1.425 1_556 S
C483 C488 1.350 . S
C483 N491 1.427 . S
C484 H475 0.930 . S
C484 C482 1.378 . S
C484 C485 1.367 . S
C485 C484 1.367 . S
C485 C487 1.433 . S
C486 C482 1.363 . S
C486 C483 1.425 1_554 S
C486 N490 1.452 . S
C487 H477 0.929 . S
C487 C485 1.433 . S
C487 N490 1.384 . S
C488 H479 0.929 . S
C488 C480 1.378 . S
C488 C483 1.350 . S
C489 H476 0.929 . S
C489 C481 1.433 . S
C489 N491 1.384 . S
N490 C486 1.452 . S
N490 C487 1.384 . S
N491 C483 1.427 . S
N491 C489 1.384 . S
H492 C498 0.930 . S
H493 C502 0.930 1_655 S
H494 C507 0.929 1_655 S
H495 C505 0.929 . S
H496 C500 0.929 1_655 S
H497 C506 0.929 . S
C498 H492 0.930 . S
C498 C499 1.367 . S
C498 C506 1.378 . S
C499 C498 1.367 . S
C499 C507 1.433 . S
C500 H496 0.929 1_455 S
C500 C502 1.378 . S
C500 C504 1.350 . S
C501 C504 1.463 . S
C501 C506 1.350 . S
C501 N509 1.427 . S
C502 H493 0.930 1_455 S
C502 C500 1.378 . S
C502 C503 1.367 . S
C503 C502 1.367 . S
C503 C505 1.433 . S
C504 C500 1.350 . S
C504 C501 1.463 . S
C504 N508 1.427 . S
C505 H495 0.929 . S
C505 C503 1.433 . S
C505 N508 1.384 . S
C506 H497 0.929 . S
C506 C498 1.378 . S
C506 C501 1.350 . S
C507 H494 0.929 1_455 S
C507 C499 1.433 . S
C507 N509 1.384 . S
N508 C504 1.427 . S
N508 C505 1.384 . S
N509 C501 1.427 . S
N509 C507 1.384 . S
C193 C24 3.044 . S
C197 C185 2.983 . S
C211 C66 1.183 . S
C215 C163 1.211 . S
C229 C93 1.844 . S
C233 C174 1.794 . S
C247 C13 2.993 . S
C251 C179 2.952 . S
C269 C157 1.106 . S
C265 C57 1.104 . S
C287 C168 1.821 . S
C283 C104 1.862 . S
C301 C64 1.986 . S
C305 C141 1.913 . S
C319 C97 0.387 . S
C323 C146 0.389 . S
C337 C17 1.204 . S
C341 C124 1.228 . S
C359 C135 1.695 . S
C355 C53 1.728 . S
C377 C152 0.243 . S
C373 C106 0.384 . S
C391 C26 1.210 . S
C395 C130 1.234 . S
C413 C147 1.214 . S
C409 C2 1.185 . S
C427 C63 1.476 . S
C431 C125 1.495 . S
C445 C82 1.446 . S
C449 C136 1.473 . S
C467 C169 1.454 . S
C463 C42 1.431 . S
C485 C180 1.745 . S
C481 C103 1.720 . S
C499 C23 1.539 . S
C503 C158 1.543 . S
