# Generated by pormake.
# Topology hwx, (6,3)-cn, num edge types: 1
# Building blocks:
#     Node 0, Type 0, BuildingBlock: IZENUY_clean_sbu_0, # of connection points: 6
#     Node 1, Type 0, BuildingBlock: IZENUY_clean_sbu_0, # of connection points: 6
#     Node 2, Type 0, BuildingBlock: IZENUY_clean_sbu_0, # of connection points: 6
#     Node 3, Type 0, BuildingBlock: IZENUY_clean_sbu_0, # of connection points: 6
#     Node 4, Type 1, BuildingBlock: PAMTOO_clean_linker_0, # of connection points: 3
#     Node 5, Type 1, BuildingBlock: PAMTOO_clean_linker_0, # of connection points: 3
#     Node 6, Type 1, BuildingBlock: PAMTOO_clean_linker_0, # of connection points: 3
#     Node 7, Type 1, BuildingBlock: PAMTOO_clean_linker_0, # of connection points: 3
#     Node 8, Type 1, BuildingBlock: PAMTOO_clean_linker_0, # of connection points: 3
#     Node 9, Type 1, BuildingBlock: PAMTOO_clean_linker_0, # of connection points: 3
#     Node 10, Type 1, BuildingBlock: PAMTOO_clean_linker_0, # of connection points: 3
#     Node 11, Type 1, BuildingBlock: PAMTOO_clean_linker_0, # of connection points: 3
#     Edge 12, Type (0, 1), BuildingBlock: UVAHIK_clean_linker_0, # of connection points: 2
#     Edge 13, Type (0, 1), BuildingBlock: UVAHIK_clean_linker_0, # of connection points: 2
#     Edge 14, Type (0, 1), BuildingBlock: UVAHIK_clean_linker_0, # of connection points: 2
#     Edge 15, Type (0, 1), BuildingBlock: UVAHIK_clean_linker_0, # of connection points: 2
#     Edge 16, Type (0, 1), BuildingBlock: UVAHIK_clean_linker_0, # of connection points: 2
#     Edge 17, Type (0, 1), BuildingBlock: UVAHIK_clean_linker_0, # of connection points: 2
#     Edge 18, Type (0, 1), BuildingBlock: UVAHIK_clean_linker_0, # of connection points: 2
#     Edge 19, Type (0, 1), BuildingBlock: UVAHIK_clean_linker_0, # of connection points: 2
#     Edge 20, Type (0, 1), BuildingBlock: UVAHIK_clean_linker_0, # of connection points: 2
#     Edge 21, Type (0, 1), BuildingBlock: UVAHIK_clean_linker_0, # of connection points: 2
#     Edge 22, Type (0, 1), BuildingBlock: UVAHIK_clean_linker_0, # of connection points: 2
#     Edge 23, Type (0, 1), BuildingBlock: UVAHIK_clean_linker_0, # of connection points: 2
#     Edge 24, Type (0, 1), BuildingBlock: UVAHIK_clean_linker_0, # of connection points: 2
#     Edge 25, Type (0, 1), BuildingBlock: UVAHIK_clean_linker_0, # of connection points: 2
#     Edge 26, Type (0, 1), BuildingBlock: UVAHIK_clean_linker_0, # of connection points: 2
#     Edge 27, Type (0, 1), BuildingBlock: UVAHIK_clean_linker_0, # of connection points: 2
#     Edge 28, Type (0, 1), BuildingBlock: UVAHIK_clean_linker_0, # of connection points: 2
#     Edge 29, Type (0, 1), BuildingBlock: UVAHIK_clean_linker_0, # of connection points: 2
#     Edge 30, Type (0, 1), BuildingBlock: UVAHIK_clean_linker_0, # of connection points: 2
#     Edge 31, Type (0, 1), BuildingBlock: UVAHIK_clean_linker_0, # of connection points: 2
#     Edge 32, Type (0, 1), BuildingBlock: UVAHIK_clean_linker_0, # of connection points: 2
#     Edge 33, Type (0, 1), BuildingBlock: UVAHIK_clean_linker_0, # of connection points: 2
#     Edge 34, Type (0, 1), BuildingBlock: UVAHIK_clean_linker_0, # of connection points: 2
#     Edge 35, Type (0, 1), BuildingBlock: UVAHIK_clean_linker_0, # of connection points: 2
# Relax obj value: 0.003
# Max RMSD: 0.065
# Mean RMSD: 0.051
data_MOF--net-hwx--node1-IZENUY_clean_sbu_0--node2-PAMTOO_clean_linker_0--edge1-UVAHIK_clean_linker_0
_symmetry_space_group_name_H-M    P1
_symmetry_Int_Tables_number       1
_symmetry_cell_setting            triclinic
loop_
_symmetry_equiv_pos_as_xyz
'x, y, z'
_cell_length_a     66.286002
_cell_length_b     66.239433
_cell_length_c     26.867525
_cell_angle_alpha  88.414344
_cell_angle_beta   91.599539
_cell_angle_gamma 89.969821
loop_
_atom_site_label
_atom_site_type_symbol
_atom_site_fract_x
_atom_site_fract_y
_atom_site_fract_z
_atom_type_partial_charge
Fe0 Fe 0.23204 0.22285 0.06908 0.0
Fe1 Fe 0.22921 0.22625 0.9549 0.0
O2 O 0.22158 0.21468 0.0116 0.0
Fe3 Fe 0.20347 0.19496 0.01075 0.0
O4 O 0.19206 0.20166 0.06958 0.0
O5 O 0.20737 0.2297 0.09075 0.0
O6 O 0.23481 0.24935 0.04829 0.0
C7 C 0.22644 0.25943 0.01263 0.0
C8 C 0.22966 0.18025 0.08329 0.0
O9 O 0.2206 0.25088 0.97339 0.0
C10 C 0.22808 0.18652 0.92933 0.0
O11 O 0.2575 0.21667 0.05127 0.0
O12 O 0.25511 0.23127 0.9769 0.0
O13 O 0.22087 0.1774 0.0419 0.0
O14 O 0.23114 0.19784 0.10041 0.0
C15 C 0.18718 0.22051 0.93884 0.0
O16 O 0.23841 0.20244 0.93268 0.0
O17 O 0.2116 0.18466 0.95177 0.0
C18 C 0.2657 0.22359 0.01255 0.0
O19 O 0.20469 0.22336 0.9224 0.0
O20 O 0.18471 0.21109 0.97958 0.0
C21 C 0.19238 0.21802 0.0929 0.0
Fe22 Fe 0.27335 0.72477 0.57278 0.0
Fe23 Fe 0.29811 0.6943 0.51583 0.0
O24 O 0.28097 0.71492 0.51562 0.0
Fe25 Fe 0.27149 0.7257 0.4585 0.0
O26 O 0.27007 0.75161 0.48139 0.0
O27 O 0.28349 0.74945 0.5571 0.0
O28 O 0.29736 0.71941 0.60625 0.0
C29 C 0.3149 0.71666 0.59022 0.0
C30 C 0.23734 0.72628 0.51325 0.0
O31 O 0.31735 0.70845 0.54907 0.0
C32 C 0.2717 0.68353 0.44119 0.0
O33 O 0.26269 0.70073 0.59209 0.0
O34 O 0.28895 0.68242 0.57363 0.0
O35 O 0.24556 0.72035 0.47447 0.0
O36 O 0.24796 0.73206 0.55003 0.0
C37 C 0.31104 0.71945 0.43587 0.0
O38 O 0.28016 0.67873 0.48246 0.0
O39 O 0.27124 0.70175 0.42542 0.0
C40 C 0.27232 0.6843 0.59521 0.0
O41 O 0.31036 0.70238 0.45817 0.0
O42 O 0.2967 0.73186 0.4384 0.0
C43 C 0.27859 0.7598 0.51856 0.0
Fe44 Fe 0.77109 0.78732 0.95232 0.0
Fe45 Fe 0.77334 0.78601 0.06677 0.0
O46 O 0.78125 0.79649 0.00911 0.0
Fe47 Fe 0.79938 0.8162 0.0081 0.0
O48 O 0.78904 0.82863 0.95103 0.0
O49 O 0.76115 0.81201 0.93395 0.0
O50 O 0.74607 0.7814 0.97674 0.0
C51 C 0.73723 0.78739 0.01485 0.0
C52 C 0.81249 0.7933 0.93247 0.0
O53 O 0.74724 0.79264 0.05289 0.0
C54 C 0.81377 0.79034 0.08698 0.0
O55 O 0.78031 0.76208 0.96676 0.0
O56 O 0.76991 0.76028 0.04378 0.0
O57 O 0.81673 0.80116 0.97366 0.0
O58 O 0.79429 0.79143 0.91752 0.0
C59 C 0.77583 0.82806 0.08398 0.0
O60 O 0.79886 0.77857 0.0849 0.0
O61 O 0.81308 0.80749 0.06503 0.0
C62 C 0.77657 0.75188 0.00571 0.0
O63 O 0.77532 0.80988 0.10003 0.0
O64 O 0.78324 0.83253 0.0424 0.0
C65 C 0.77163 0.82784 0.9305 0.0
Fe66 Fe 0.70373 0.31595 0.50685 0.0
Fe67 Fe 0.7313 0.28508 0.5628 0.0
O68 O 0.72193 0.29634 0.50609 0.0
Fe69 Fe 0.73074 0.288 0.44852 0.0
O70 O 0.72861 0.31282 0.41642 0.0
O71 O 0.72017 0.33349 0.47486 0.0
O72 O 0.71334 0.32656 0.56531 0.0
C73 C 0.73039 0.32489 0.58751 0.0
C74 C 0.69049 0.29234 0.42599 0.0
O75 O 0.7408 0.30907 0.58424 0.0
C76 C 0.72723 0.25165 0.50597 0.0
O77 O 0.68603 0.29983 0.53882 0.0
O78 O 0.70752 0.28782 0.59598 0.0
O79 O 0.70558 0.28072 0.42825 0.0
O80 O 0.69077 0.30889 0.44853 0.0
C81 C 0.76604 0.28806 0.50334 0.0
O82 O 0.72247 0.26028 0.54522 0.0
O83 O 0.73454 0.26166 0.4699 0.0
C84 C 0.68954 0.29071 0.57991 0.0
O85 O 0.75678 0.28033 0.5399 0.0
O86 O 0.75645 0.29469 0.46512 0.0
C87 C 0.7278 0.33046 0.43332 0.0
H88 H 0.22559 0.56578 0.01998 0.0
H89 H 0.22655 0.50919 0.94546 0.0
H90 H 0.22604 0.50973 0.10526 0.0
H91 H 0.25379 0.48007 0.06242 0.0
C92 C 0.2447 0.47622 0.02854 0.0
O93 O 0.22677 0.48681 0.02738 0.0
H94 H 0.25364 0.48053 0.99543 0.0
C95 C 0.22522 0.54941 0.02167 0.0
C96 C 0.22539 0.5392 0.06822 0.0
C97 C 0.22562 0.53882 0.9772 0.0
C98 C 0.22619 0.51763 0.97941 0.0
C99 C 0.22631 0.50722 0.02558 0.0
C100 C 0.22594 0.51797 0.06985 0.0
H101 H 0.93356 0.75498 0.51466 0.0
H102 H 0.99104 0.75237 0.44476 0.0
H103 H 0.9885 0.75304 0.60423 0.0
H104 H 0.02115 0.77818 0.56042 0.0
C105 C 0.02403 0.76914 0.52705 0.0
O106 O 0.01235 0.75192 0.52821 0.0
H107 H 0.01997 0.77863 0.49339 0.0
C108 C 0.94987 0.75383 0.51772 0.0
C109 C 0.9595 0.75373 0.56499 0.0
C110 C 0.96101 0.75333 0.47413 0.0
C111 C 0.98216 0.75279 0.47799 0.0
C112 C 0.99199 0.75272 0.52487 0.0
C113 C 0.98071 0.75322 0.56824 0.0
H114 H 0.76512 0.4465 0.00519 0.0
H115 H 0.76846 0.50409 0.07513 0.0
H116 H 0.7763 0.5005 0.91738 0.0
H117 H 0.80404 0.52962 0.97204 0.0
C118 C 0.79343 0.5341 0.00117 0.0
O119 O 0.77507 0.52479 0.99273 0.0
H120 H 0.79981 0.52926 0.03835 0.0
C121 C 0.76739 0.4627 0.00259 0.0
C122 C 0.77105 0.47201 0.95617 0.0
C123 C 0.76638 0.47411 0.04566 0.0
C124 C 0.76929 0.49507 0.04222 0.0
C125 C 0.77289 0.50453 0.99599 0.0
C126 C 0.77363 0.49304 0.95299 0.0
H127 H 0.06981 0.25251 0.50645 0.0
H128 H 0.01283 0.26021 0.57679 0.0
H129 H 0.01503 0.25826 0.41744 0.0
H130 H 0.9887 0.28961 0.45556 0.0
C131 C 0.98362 0.28181 0.49023 0.0
O132 O 0.99157 0.26255 0.49336 0.0
H133 H 0.98917 0.29067 0.52245 0.0
C134 C 0.0536 0.25472 0.5038 0.0
C135 C 0.04387 0.25532 0.45672 0.0
C136 C 0.04264 0.2564 0.54749 0.0
C137 C 0.02157 0.25858 0.54366 0.0
C138 C 0.01171 0.2594 0.49679 0.0
C139 C 0.0228 0.25751 0.45347 0.0
H140 H 0.72782 0.94531 0.4986 0.0
H141 H 0.72501 1.0021 0.57192 0.0
H142 H 0.72594 1.00117 0.41247 0.0
H143 H 0.75266 0.03121 0.45903 0.0
C144 C 0.74346 0.03491 0.49162 0.0
O145 O 0.72562 0.02422 0.4899 0.0
H146 H 0.7524 0.03054 0.52596 0.0
C147 C 0.72646 0.96162 0.49649 0.0
C148 C 0.72649 0.97173 0.44978 0.0
C149 C 0.72585 0.97233 0.54081 0.0
C150 C 0.72533 0.99352 0.53819 0.0
C151 C 0.72547 0.00381 0.49194 0.0
C152 C 0.72591 0.99297 0.44791 0.0
H153 H 0.56892 0.26294 9e-05 0.0
H154 H 0.51315 0.25348 0.07569 0.0
H155 H 0.51314 0.25733 0.91578 0.0
H156 H 0.48017 0.27948 0.96269 0.0
C157 C 0.47789 0.26933 0.99579 0.0
O158 O 0.49063 0.25291 0.99417 0.0
H159 H 0.48142 0.27813 0.02966 0.0
C160 C 0.55272 0.2606 0.99886 0.0
C161 C 0.54236 0.26044 0.95265 0.0
C162 C 0.54241 0.25798 0.04348 0.0
C163 C 0.5214 0.25536 0.04161 0.0
C164 C 0.5109 0.25511 0.9956 0.0
C165 C 0.52139 0.2574 0.95117 0.0
H166 H 0.26312 0.06372 0.51452 0.0
H167 H 0.26964 0.00594 0.44736 0.0
H168 H 0.27436 0.01044 0.60657 0.0
H169 H 0.30344 0.98189 0.56432 0.0
C170 C 0.29442 0.97728 0.53097 0.0
O171 O 0.27544 0.98579 0.53187 0.0
H172 H 0.30238 0.98277 0.49726 0.0
C173 C 0.2658 0.04758 0.51819 0.0
C174 C 0.26895 0.03861 0.56569 0.0
C175 C 0.26592 0.03598 0.47534 0.0
C176 C 0.2695 0.01512 0.48012 0.0
C177 C 0.2725 0.00595 0.52745 0.0
C178 C 0.27204 0.01765 0.57017 0.0
H179 H 0.43346 0.75022 0.0178 0.0
H180 H 0.49012 0.75714 0.94456 0.0
H181 H 0.48854 0.75681 0.10427 0.0
H182 H 0.51433 0.78782 0.05931 0.0
C183 C 0.51961 0.77961 0.0265 0.0
O184 O 0.51171 0.76034 0.02702 0.0
H185 H 0.5142 0.78809 0.99235 0.0
C186 C 0.44966 0.75243 0.01958 0.0
C187 C 0.45958 0.75352 0.06626 0.0
C188 C 0.46044 0.75363 0.97531 0.0
C189 C 0.48152 0.75587 0.97821 0.0
C190 C 0.49156 0.75717 0.02466 0.0
C191 C 0.48065 0.75571 0.06858 0.0
C192 C 0.15788 0.21091 0.12502 0.0
C193 C 0.17546 0.22279 0.12556 0.0
C194 C 0.14192 0.21528 0.15589 0.0
C195 C 0.12099 0.25583 0.23223 0.0
H196 H 0.094 0.21132 0.29938 0.0
C197 C 0.07373 0.26518 0.40674 0.0
C198 C 0.05602 0.25373 0.41149 0.0
C199 C 0.08636 0.26243 0.3668 0.0
C200 C 0.10116 0.22391 0.2803 0.0
H201 H 0.18994 0.2487 0.15885 0.0
H202 H 0.16231 0.25605 0.21345 0.0
H203 H 0.12014 0.20436 0.24021 0.0
H204 H 0.0373 0.23085 0.37742 0.0
H205 H 0.05949 0.22596 0.30725 0.0
H206 H 0.10236 0.27536 0.27359 0.0
C207 C 0.1607 0.24355 0.1885 0.0
C208 C 0.11616 0.21993 0.24636 0.0
C209 C 0.17663 0.23925 0.15744 0.0
C210 C 0.05083 0.23992 0.37453 0.0
C211 C 0.06359 0.23701 0.33468 0.0
C212 C 0.10607 0.25981 0.26638 0.0
C213 C 0.14316 0.23159 0.18822 0.0
C214 C 0.12644 0.23584 0.22233 0.0
C215 C 0.08164 0.24805 0.33081 0.0
C216 C 0.09615 0.24389 0.29123 0.0
H217 H 0.15637 0.19823 0.10057 0.0
H218 H 0.12853 0.20594 0.1541 0.0
H219 H 0.12831 0.26845 0.21368 0.0
H220 H 0.07801 0.27606 0.43451 0.0
H221 H 0.10023 0.27104 0.36513 0.0
C222 C 0.24731 0.66996 0.65502 0.0
C223 C 0.2651 0.66773 0.62839 0.0
C224 C 0.24098 0.65467 0.68788 0.0
C225 C 0.24758 0.60045 0.72246 0.0
H226 H 0.23034 0.61741 0.8515 0.0
C227 C 0.24148 0.54632 0.89503 0.0
C228 C 0.22641 0.5503 0.92914 0.0
C229 C 0.24418 0.55928 0.85369 0.0
C230 C 0.23476 0.61237 0.81538 0.0
H231 H 0.28986 0.64736 0.61443 0.0
H232 H 0.27888 0.62081 0.67217 0.0
H233 H 0.23887 0.64269 0.78839 0.0
H234 H 0.20138 0.56993 0.94495 0.0
H235 H 0.20576 0.59226 0.8724 0.0
H236 H 0.24368 0.57004 0.74996 0.0
C237 C 0.26976 0.63432 0.66731 0.0
C238 C 0.23968 0.6269 0.77916 0.0
C239 C 0.27612 0.64962 0.63447 0.0
C240 C 0.21331 0.5667 0.91956 0.0
C241 C 0.2159 0.57954 0.87818 0.0
C242 C 0.24259 0.58586 0.75876 0.0
C243 C 0.25225 0.63677 0.69486 0.0
C244 C 0.24625 0.62114 0.73236 0.0
C245 C 0.23177 0.57637 0.84561 0.0
C246 C 0.23619 0.59166 0.80576 0.0
H247 H 0.23835 0.68361 0.65094 0.0
H248 H 0.22725 0.6569 0.70799 0.0
H249 H 0.25239 0.59553 0.68655 0.0
H250 H 0.25187 0.53385 0.90177 0.0
H251 H 0.25663 0.55645 0.82955 0.0
C252 C 0.83133 0.76762 0.15078 0.0
C253 C 0.83158 0.78487 0.11913 0.0
C254 C 0.84782 0.76302 0.18266 0.0
C255 C 0.89168 0.78717 0.24436 0.0
H256 H 0.90712 0.73182 0.27717 0.0
C257 C 0.95566 0.76827 0.38794 0.0
C258 C 0.95024 0.75409 0.42502 0.0
C259 C 0.94371 0.77081 0.34444 0.0
C260 C 0.90297 0.74735 0.26834 0.0
H261 H 0.84971 0.81039 0.09484 0.0
H262 H 0.87855 0.80217 0.14979 0.0
H263 H 0.88126 0.73872 0.21245 0.0
H264 H 0.92888 0.73062 0.44454 0.0
H265 H 0.90806 0.73501 0.36878 0.0
H266 H 0.91318 0.79577 0.30074 0.0
C267 C 0.86544 0.79243 0.15081 0.0
C268 C 0.88811 0.75131 0.23142 0.0
C269 C 0.84891 0.7971 0.11915 0.0
C270 C 0.9333 0.74178 0.41667 0.0
C271 C 0.92148 0.74418 0.37312 0.0
C272 C 0.90661 0.78321 0.28106 0.0
C273 C 0.86501 0.77547 0.18342 0.0
C274 C 0.88201 0.77126 0.2196 0.0
C275 C 0.92626 0.75906 0.33706 0.0
C276 C 0.91216 0.76324 0.29409 0.0
H277 H 0.81823 0.75787 0.15173 0.0
H278 H 0.84683 0.74999 0.20772 0.0
H279 H 0.88718 0.8027 0.23681 0.0
H280 H 0.96859 0.77802 0.39356 0.0
H281 H 0.94786 0.78226 0.31706 0.0
C282 C 0.75426 0.33813 0.65309 0.0
C283 C 0.73738 0.34108 0.62082 0.0
C284 C 0.76035 0.35321 0.68566 0.0
C285 C 0.75618 0.40775 0.70857 0.0
H286 H 0.76639 0.3913 0.84654 0.0
C287 C 0.75882 0.46405 0.86983 0.0
C288 C 0.77146 0.4595 0.9114 0.0
C289 C 0.75704 0.45055 0.83079 0.0
C290 C 0.764 0.39619 0.80803 0.0
H291 H 0.71407 0.36247 0.59644 0.0
H292 H 0.72474 0.38872 0.65327 0.0
H293 H 0.75899 0.36588 0.78517 0.0
H294 H 0.7932 0.4381 0.94343 0.0
H295 H 0.79066 0.41485 0.87477 0.0
H296 H 0.76114 0.43811 0.7315 0.0
C297 C 0.73326 0.37476 0.65328 0.0
C298 C 0.75969 0.38157 0.77286 0.0
C299 C 0.72706 0.35964 0.62102 0.0
C300 C 0.78315 0.44181 0.912 0.0
C301 C 0.78157 0.42845 0.87283 0.0
C302 C 0.76066 0.42241 0.74375 0.0
C303 C 0.74983 0.37163 0.68634 0.0
C304 C 0.75555 0.38719 0.72285 0.0
C305 C 0.76804 0.43233 0.83241 0.0
C306 C 0.76446 0.41682 0.79404 0.0
H307 H 0.76261 0.32406 0.65375 0.0
H308 H 0.7733 0.35044 0.71039 0.0
H309 H 0.75326 0.41251 0.67015 0.0
H310 H 0.74954 0.47754 0.86872 0.0
H311 H 0.74634 0.45397 0.80054 0.0
C312 C 0.67368 0.27101 0.36131 0.0
C313 C 0.67291 0.28738 0.39339 0.0
C314 C 0.65727 0.26667 0.32965 0.0
C315 C 0.61204 0.29046 0.26976 0.0
H316 H 0.59895 0.23523 0.2372 0.0
C317 C 0.54784 0.27141 0.12915 0.0
C318 C 0.55381 0.25853 0.09158 0.0
C319 C 0.56006 0.2737 0.17195 0.0
C320 C 0.60243 0.25073 0.246 0.0
H321 H 0.65402 0.31165 0.41844 0.0
H322 H 0.62528 0.30386 0.36382 0.0
H323 H 0.62481 0.24177 0.30115 0.0
H324 H 0.57654 0.23715 0.07027 0.0
H325 H 0.59779 0.24104 0.14496 0.0
H326 H 0.58979 0.29938 0.21417 0.0
C327 C 0.63873 0.29464 0.36235 0.0
C328 C 0.6173 0.25449 0.28244 0.0
C329 C 0.65519 0.29906 0.3938 0.0
C330 C 0.57168 0.24728 0.09858 0.0
C331 C 0.58375 0.24939 0.14148 0.0
C332 C 0.59707 0.28668 0.23357 0.0
C333 C 0.63963 0.27849 0.32956 0.0
C334 C 0.62258 0.27442 0.29407 0.0
C335 C 0.5783 0.26294 0.17813 0.0
C336 C 0.5924 0.26679 0.22064 0.0
H337 H 0.68708 0.26171 0.36 0.0
H338 H 0.65863 0.25433 0.30437 0.0
H339 H 0.61587 0.306 0.27723 0.0
H340 H 0.53418 0.28032 0.12449 0.0
H341 H 0.55543 0.28414 0.1998 0.0
C342 C 0.25083 0.17337 0.86434 0.0
C343 C 0.23445 0.17042 0.89587 0.0
C344 C 0.25646 0.15829 0.83203 0.0
C345 C 0.25214 0.10367 0.80949 0.0
H346 H 0.26166 0.11987 0.67243 0.0
C347 C 0.25581 0.04683 0.64945 0.0
C348 C 0.26861 0.05143 0.60997 0.0
C349 C 0.25352 0.06049 0.68777 0.0
C350 C 0.25943 0.11506 0.71072 0.0
H351 H 0.21149 0.14904 0.91901 0.0
H352 H 0.22132 0.12281 0.86258 0.0
H353 H 0.25427 0.14539 0.7326 0.0
H354 H 0.29007 0.07311 0.58114 0.0
H355 H 0.28659 0.09664 0.64851 0.0
H356 H 0.25729 0.07329 0.78753 0.0
C357 C 0.22983 0.13676 0.86299 0.0
C358 C 0.25513 0.12973 0.74521 0.0
C359 C 0.22411 0.15188 0.89504 0.0
C360 C 0.27989 0.06936 0.61085 0.0
C361 C 0.27777 0.08288 0.64928 0.0
C362 C 0.25658 0.08896 0.775 0.0
C363 C 0.24595 0.13987 0.83081 0.0
C364 C 0.25132 0.12422 0.79489 0.0
C365 C 0.26413 0.07891 0.68751 0.0
C366 C 0.26019 0.09446 0.72509 0.0
H367 H 0.2592 0.18741 0.86419 0.0
H368 H 0.26909 0.16104 0.80803 0.0
H369 H 0.24948 0.09898 0.84768 0.0
H370 H 0.24686 0.03316 0.64942 0.0
H371 H 0.24277 0.05699 0.71636 0.0
C372 C 0.32758 0.74099 0.37034 0.0
C373 C 0.32824 0.72419 0.40347 0.0
C374 C 0.34363 0.74506 0.33889 0.0
C375 C 0.38741 0.72026 0.28309 0.0
H376 H 0.40229 0.77534 0.24805 0.0
C377 C 0.45278 0.73871 0.15121 0.0
C378 C 0.4476 0.75239 0.11204 0.0
C379 C 0.44012 0.7362 0.19178 0.0
C380 C 0.39828 0.75988 0.25749 0.0
H381 H 0.34661 0.69886 0.4306 0.0
H382 H 0.37471 0.70619 0.37661 0.0
H383 H 0.37645 0.76906 0.30951 0.0
H384 H 0.4258 0.7749 0.08567 0.0
H385 H 0.4038 0.77061 0.15644 0.0
H386 H 0.40922 0.71113 0.23084 0.0
C387 C 0.3616 0.71596 0.37397 0.0
C388 C 0.38341 0.75627 0.29252 0.0
C389 C 0.3455 0.7118 0.40512 0.0
C390 C 0.43005 0.76413 0.11522 0.0
C391 C 0.41754 0.76179 0.15591 0.0
C392 C 0.40239 0.72388 0.24836 0.0
C393 C 0.36081 0.73253 0.34011 0.0
C394 C 0.37755 0.73641 0.30522 0.0
C395 C 0.42222 0.74752 0.19417 0.0
C396 C 0.40777 0.74373 0.23463 0.0
H397 H 0.31452 0.75083 0.36803 0.0
H398 H 0.34234 0.75778 0.31281 0.0
H399 H 0.38312 0.70478 0.29131 0.0
H400 H 0.46619 0.72943 0.14955 0.0
H401 H 0.44417 0.7252 0.22095 0.0
C402 C 0.7751 0.86336 0.89766 0.0
C403 C 0.76455 0.84495 0.8979 0.0
C404 C 0.76918 0.87923 0.86519 0.0
C405 C 0.72711 0.89784 0.78159 0.0
H406 H 0.77012 0.92614 0.71406 0.0
C407 C 0.71558 0.94349 0.59685 0.0
C408 C 0.72699 0.96115 0.58944 0.0
C409 C 0.71846 0.9315 0.64002 0.0
C410 C 0.75791 0.91866 0.73318 0.0
H411 H 0.73911 0.82901 0.86508 0.0
H412 H 0.72904 0.85655 0.80761 0.0
H413 H 0.77844 0.90085 0.77863 0.0
H414 H 0.74974 0.98054 0.62237 0.0
H415 H 0.75467 0.95963 0.69816 0.0
H416 H 0.70661 0.91534 0.73475 0.0
C417 C 0.74173 0.85883 0.83308 0.0
C418 C 0.76269 0.90413 0.77026 0.0
C419 C 0.74758 0.84298 0.86583 0.0
C420 C 0.74067 0.96706 0.62716 0.0
C421 C 0.74363 0.955 0.67028 0.0
C422 C 0.72234 0.91235 0.74428 0.0
C423 C 0.75262 0.87706 0.83192 0.0
C424 C 0.74736 0.89337 0.7946 0.0
C425 C 0.73287 0.93685 0.67667 0.0
C426 C 0.7377 0.92276 0.71931 0.0
H427 H 0.78808 0.8655 0.92234 0.0
H428 H 0.77767 0.89318 0.86601 0.0
H429 H 0.71493 0.89008 0.80012 0.0
H430 H 0.70478 0.93868 0.5686 0.0
H431 H 0.71003 0.91755 0.64362 0.0
C432 C 0.84869 0.79491 0.90718 0.0
C433 C 0.82891 0.78782 0.89908 0.0
C434 C 0.86391 0.79029 0.87423 0.0
C435 C 0.87052 0.77342 0.74507 0.0
H436 H 0.92589 0.76361 0.78987 0.0
C437 C 0.92902 0.74379 0.61289 0.0
C438 C 0.94711 0.7548 0.61013 0.0
C439 C 0.91583 0.74675 0.65155 0.0
C440 C 0.9105 0.76642 0.77692 0.0
H441 H 0.80981 0.76962 0.85128 0.0
H442 H 0.83634 0.76111 0.79486 0.0
H443 H 0.90023 0.77077 0.85078 0.0
H444 H 0.96604 0.7767 0.64751 0.0
H445 H 0.94298 0.78165 0.71583 0.0
H446 H 0.88069 0.76879 0.67144 0.0
C447 C 0.84004 0.77079 0.82563 0.0
C448 C 0.8958 0.7706 0.8117 0.0
C449 C 0.82481 0.77558 0.85817 0.0
C450 C 0.95227 0.76793 0.6487 0.0
C451 C 0.93906 0.7708 0.68773 0.0
C452 C 0.88512 0.76905 0.71054 0.0
C453 C 0.85973 0.77832 0.83274 0.0
C454 C 0.87559 0.77405 0.79619 0.0
C455 C 0.92045 0.76066 0.68865 0.0
C456 C 0.90522 0.76541 0.72605 0.0
H457 H 0.85234 0.80439 0.93838 0.0
H458 H 0.87882 0.79653 0.88066 0.0
H459 H 0.85527 0.77653 0.73148 0.0
H460 H 0.92482 0.7332 0.5844 0.0
H461 H 0.90177 0.73841 0.6519 0.0
C462 C 0.72756 0.36759 0.41208 0.0
C463 C 0.73382 0.34791 0.40151 0.0
C464 C 0.73219 0.38385 0.38013 0.0
C465 C 0.76629 0.40052 0.28132 0.0
H466 H 0.72132 0.43394 0.23361 0.0
C467 C 0.74517 0.45111 0.09726 0.0
C468 C 0.76201 0.46386 0.09371 0.0
C469 C 0.7419 0.43985 0.14092 0.0
C470 C 0.73404 0.42483 0.24694 0.0
H471 H 0.75056 0.33001 0.35025 0.0
H472 H 0.75878 0.35844 0.29481 0.0
H473 H 0.71618 0.40833 0.29932 0.0
H474 H 0.78839 0.47526 0.133 0.0
H475 H 0.78286 0.45515 0.20962 0.0
H476 H 0.78402 0.41669 0.22796 0.0
C477 C 0.75024 0.36125 0.32772 0.0
C478 C 0.73114 0.41028 0.28469 0.0
C479 C 0.7454 0.34496 0.35927 0.0
C480 C 0.77526 0.46558 0.13507 0.0
C481 C 0.77216 0.45403 0.17861 0.0
C482 C 0.76925 0.41526 0.24399 0.0
C483 C 0.74344 0.3808 0.33743 0.0
C484 C 0.74713 0.39768 0.30147 0.0
C485 C 0.75556 0.44089 0.18168 0.0
C486 C 0.75305 0.42724 0.22567 0.0
H487 H 0.71865 0.37038 0.44437 0.0
H488 H 0.72687 0.3988 0.38862 0.0
H489 H 0.7789 0.3911 0.29385 0.0
H490 H 0.73472 0.4496 0.06584 0.0
H491 H 0.72909 0.42971 0.14207 0.0
C492 C 0.17175 0.2397 0.86589 0.0
C493 C 0.16939 0.22661 0.90737 0.0
C494 C 0.15524 0.24484 0.8347 0.0
C495 C 0.10657 0.22562 0.7912 0.0
H496 H 0.09956 0.27999 0.73612 0.0
C497 C 0.04639 0.24414 0.63677 0.0
C498 C 0.05348 0.25592 0.59663 0.0
C499 C 0.05779 0.24228 0.68134 0.0
C500 C 0.10134 0.26471 0.75103 0.0
H501 H 0.14773 0.20897 0.94922 0.0
H502 H 0.11888 0.21782 0.89413 0.0
H503 H 0.12495 0.27341 0.80206 0.0
H504 H 0.07744 0.27592 0.57271 0.0
H505 H 0.09744 0.27235 0.64954 0.0
H506 H 0.08359 0.21672 0.73881 0.0
C507 C 0.13355 0.22406 0.88591 0.0
C508 C 0.11585 0.26097 0.78884 0.0
C509 C 0.15006 0.21907 0.9175 0.0
C510 C 0.07172 0.26648 0.60271 0.0
C511 C 0.08307 0.26463 0.64708 0.0
C512 C 0.09213 0.22934 0.75312 0.0
C513 C 0.13602 0.2369 0.84402 0.0
C514 C 0.11895 0.24131 0.80849 0.0
C515 C 0.07643 0.25225 0.68668 0.0
C516 C 0.08969 0.24884 0.73172 0.0
H517 H 0.1864 0.24586 0.85716 0.0
H518 H 0.15766 0.25459 0.80238 0.0
H519 H 0.10873 0.21028 0.80537 0.0
H520 H 0.0324 0.23579 0.63312 0.0
H521 H 0.05214 0.2328 0.71134 0.0
C522 C 0.27036 0.64731 0.41611 0.0
C523 C 0.2641 0.66746 0.40834 0.0
C524 C 0.26418 0.63242 0.38305 0.0
C525 C 0.24407 0.62714 0.25367 0.0
H526 H 0.23532 0.57147 0.29624 0.0
C527 C 0.21432 0.56878 0.1169 0.0
C528 C 0.22594 0.55109 0.11442 0.0
C529 C 0.21702 0.58178 0.15652 0.0
C530 C 0.23778 0.58696 0.28391 0.0
H531 H 0.24562 0.68758 0.36123 0.0
H532 H 0.23428 0.6616 0.30468 0.0
H533 H 0.24342 0.59679 0.35828 0.0
H534 H 0.24863 0.53255 0.15335 0.0
H535 H 0.25311 0.55521 0.22329 0.0
H536 H 0.23822 0.61735 0.17949 0.0
C537 C 0.24454 0.65734 0.33523 0.0
C538 C 0.2425 0.60147 0.31935 0.0
C539 C 0.25095 0.67226 0.36785 0.0
C540 C 0.23937 0.54601 0.15427 0.0
C541 C 0.24197 0.55899 0.19424 0.0
C542 C 0.23912 0.61272 0.21848 0.0
C543 C 0.25137 0.63728 0.34179 0.0
C544 C 0.24577 0.62177 0.30465 0.0
C545 C 0.23127 0.57731 0.19489 0.0
C546 C 0.23596 0.59248 0.23314 0.0
H547 H 0.28055 0.64312 0.44692 0.0
H548 H 0.26996 0.61724 0.38909 0.0
H549 H 0.24697 0.64244 0.24061 0.0
H550 H 0.20351 0.57291 0.08736 0.0
H551 H 0.20827 0.5956 0.15656 0.0
C552 C 0.3303 0.73464 0.66241 0.0
C553 C 0.33263 0.72188 0.62203 0.0
C554 C 0.34681 0.73951 0.69309 0.0
C555 C 0.39568 0.72062 0.73866 0.0
H556 H 0.4027 0.77533 0.78391 0.0
C557 C 0.45635 0.74041 0.88864 0.0
C558 C 0.4494 0.75262 0.92658 0.0
C559 C 0.44476 0.73808 0.84477 0.0
C560 C 0.40092 0.75996 0.77181 0.0
H561 H 0.35422 0.70436 0.58194 0.0
H562 H 0.38312 0.71268 0.63639 0.0
H563 H 0.37712 0.76831 0.71975 0.0
H564 H 0.42545 0.77282 0.94708 0.0
H565 H 0.40514 0.76845 0.8716 0.0
H566 H 0.41887 0.71208 0.7922 0.0
C567 C 0.36844 0.71891 0.64399 0.0
C568 C 0.3863 0.75596 0.73499 0.0
C569 C 0.35193 0.71421 0.6128 0.0
C570 C 0.43108 0.76308 0.91886 0.0
C571 C 0.41955 0.76076 0.87521 0.0
C572 C 0.41024 0.72459 0.77584 0.0
C573 C 0.36603 0.73162 0.68444 0.0
C574 C 0.3832 0.73618 0.71889 0.0
C575 C 0.42606 0.74799 0.8379 0.0
C576 C 0.41267 0.74423 0.79375 0.0
H577 H 0.31568 0.7409 0.67039 0.0
H578 H 0.34443 0.74915 0.72434 0.0
H579 H 0.39353 0.70521 0.72717 0.0
H580 H 0.47038 0.73213 0.89359 0.0
H581 H 0.45032 0.7283 0.81653 0.0
C582 C 0.75705 0.84002 0.15728 0.0
C583 C 0.76908 0.84442 0.1161 0.0
C584 C 0.75081 0.85543 0.18788 0.0
C585 C 0.76522 0.9053 0.23036 0.0
H586 H 0.70998 0.90836 0.27339 0.0
C587 C 0.74091 0.96635 0.36539 0.0
C588 C 0.72821 0.9599 0.40374 0.0
C589 C 0.74422 0.95405 0.32489 0.0
C590 C 0.72551 0.90763 0.26215 0.0
H591 H 0.78386 0.8685 0.07459 0.0
H592 H 0.77322 0.89534 0.12871 0.0
H593 H 0.71928 0.88298 0.21403 0.0
H594 H 0.70807 0.93598 0.42785 0.0
H595 H 0.71444 0.91428 0.35874 0.0
H596 H 0.77177 0.92929 0.27981 0.0
C597 C 0.76861 0.87996 0.13709 0.0
C598 C 0.7308 0.89312 0.22801 0.0
C599 C 0.77463 0.86459 0.10606 0.0
C600 C 0.71824 0.94127 0.39947 0.0
C601 C 0.72169 0.92892 0.35931 0.0
C602 C 0.76 0.91964 0.26497 0.0
C603 C 0.75665 0.87552 0.17832 0.0
C604 C 0.75075 0.89167 0.2122 0.0
C605 C 0.73502 0.93496 0.32191 0.0
C606 C 0.74013 0.92085 0.28181 0.0
H607 H 0.75243 0.82467 0.16587 0.0
H608 H 0.74174 0.85156 0.21968 0.0
H609 H 0.78076 0.90438 0.21916 0.0
H610 H 0.74892 0.98056 0.36754 0.0
H611 H 0.75429 0.95939 0.29634 0.0
C612 C 0.67548 0.27422 0.65677 0.0
C613 C 0.67239 0.28547 0.61205 0.0
C614 C 0.65941 0.27026 0.68824 0.0
C615 C 0.61086 0.29118 0.7222 0.0
H616 H 0.60321 0.23923 0.78918 0.0
C617 C 0.56662 0.28054 0.90224 0.0
C618 C 0.5537 0.26383 0.90652 0.0
C619 C 0.57889 0.28293 0.86115 0.0
C620 C 0.60502 0.25375 0.7703 0.0
H621 H 0.64981 0.3009 0.56478 0.0
H622 H 0.62191 0.29412 0.61995 0.0
H623 H 0.62929 0.24306 0.72688 0.0
H624 H 0.54304 0.23676 0.87094 0.0
H625 H 0.56483 0.2408 0.79885 0.0
H626 H 0.58695 0.302 0.76642 0.0
C627 C 0.63678 0.28846 0.63069 0.0
C628 C 0.62005 0.25599 0.73506 0.0
C629 C 0.65278 0.29226 0.59903 0.0
C630 C 0.55284 0.24981 0.86827 0.0
C631 C 0.56537 0.25205 0.82736 0.0
C632 C 0.596 0.289 0.7578 0.0
C633 C 0.63996 0.2776 0.67585 0.0
C634 C 0.62326 0.27478 0.71102 0.0
C635 C 0.57867 0.26853 0.82372 0.0
C636 C 0.59308 0.27033 0.78262 0.0
H637 H 0.69037 0.26869 0.66782 0.0
H638 H 0.66233 0.26197 0.72302 0.0
H639 H 0.61308 0.30588 0.70455 0.0
H640 H 0.56748 0.29158 0.93122 0.0
H641 H 0.5891 0.29568 0.85956 0.0
C642 C 0.2477 0.16532 0.15887 0.0
C643 C 0.2361 0.16261 0.11496 0.0
C644 C 0.25258 0.14887 0.19063 0.0
C645 C 0.23329 0.09952 0.22876 0.0
H646 H 0.28541 0.09341 0.29684 0.0
C647 C 0.2761 0.04458 0.38808 0.0
C648 C 0.26208 0.04596 0.42606 0.0
C649 C 0.27349 0.05609 0.34384 0.0
C650 C 0.27086 0.09474 0.27763 0.0
H651 H 0.22109 0.14031 0.06922 0.0
H652 H 0.22944 0.11165 0.12511 0.0
H653 H 0.28086 0.11913 0.23034 0.0
H654 H 0.23394 0.05952 0.44701 0.0
H655 H 0.22919 0.07934 0.36964 0.0
H656 H 0.22311 0.0756 0.27712 0.0
C657 C 0.23469 0.12654 0.13489 0.0
C658 C 0.26821 0.10957 0.23993 0.0
C659 C 0.22999 0.14296 0.10283 0.0
C660 C 0.24498 0.05827 0.41826 0.0
C661 C 0.24222 0.0695 0.37391 0.0
C662 C 0.23588 0.08486 0.26679 0.0
C663 C 0.24582 0.12936 0.17942 0.0
C664 C 0.24931 0.11233 0.2157 0.0
C665 C 0.25664 0.06885 0.33665 0.0
C666 C 0.25459 0.08256 0.29221 0.0
H667 H 0.25274 0.18022 0.16919 0.0
H668 H 0.26102 0.15154 0.22492 0.0
H669 H 0.21851 0.10139 0.21102 0.0
H670 H 0.28945 0.03524 0.39344 0.0
H671 H 0.28478 0.05526 0.31559 0.0
C672 C 0.23081 0.29129 0.05986 0.0
C673 C 0.22562 0.28177 0.01516 0.0
C674 C 0.23121 0.31233 0.06198 0.0
C675 C 0.21408 0.35951 0.9957 0.0
H676 H 0.25857 0.38307 0.0707 0.0
C677 C 0.23432 0.44474 0.98369 0.0
C678 C 0.2405 0.45388 0.02809 0.0
C679 C 0.23112 0.42387 0.98269 0.0
C680 C 0.2459 0.37676 0.05011 0.0
H681 H 0.21626 0.28702 0.93786 0.0
H682 H 0.21729 0.32379 0.94137 0.0
H683 H 0.25554 0.34654 0.06759 0.0
H684 H 0.24723 0.44871 0.10671 0.0
H685 H 0.24165 0.41224 0.10516 0.0
H686 H 0.20467 0.38988 0.97771 0.0
C687 C 0.22083 0.31494 0.97499 0.0
C688 C 0.24415 0.35578 0.04835 0.0
C689 C 0.22033 0.29384 0.9729 0.0
C690 C 0.24277 0.44194 0.07185 0.0
C691 C 0.23964 0.42108 0.07086 0.0
C692 C 0.21589 0.38055 0.99733 0.0
C693 C 0.22653 0.32445 0.01942 0.0
C694 C 0.2282 0.34686 0.02123 0.0
C695 C 0.23402 0.41175 0.02614 0.0
C696 C 0.23181 0.38941 0.02464 0.0
H697 H 0.23474 0.28248 0.09331 0.0
H698 H 0.23524 0.3191 0.09711 0.0
H699 H 0.20148 0.35318 0.97495 0.0
H700 H 0.2323 0.45373 0.94961 0.0
H701 H 0.2269 0.41716 0.9476 0.0
C702 C 0.20589 0.734 0.55851 0.0
C703 C 0.21509 0.72858 0.51428 0.0
C704 C 0.1851 0.73725 0.55947 0.0
C705 C 0.13678 0.72782 0.49141 0.0
H706 H 0.11852 0.77335 0.56602 0.0
C707 C 0.05428 0.75735 0.48086 0.0
C708 C 0.04596 0.76338 0.52558 0.0
C709 C 0.07473 0.75224 0.47915 0.0
C710 C 0.12333 0.76044 0.54549 0.0
H711 H 0.20948 0.72184 0.43656 0.0
H712 H 0.17313 0.72781 0.4381 0.0
H713 H 0.15442 0.76601 0.56319 0.0
H714 H 0.05209 0.76793 0.60401 0.0
H715 H 0.08784 0.75901 0.60125 0.0
H716 H 0.10557 0.72242 0.47342 0.0
C717 C 0.18203 0.72935 0.47219 0.0
C718 C 0.14394 0.75621 0.54388 0.0
C719 C 0.20289 0.72601 0.47125 0.0
C720 C 0.05827 0.76365 0.56891 0.0
C721 C 0.07871 0.75862 0.56722 0.0
C722 C 0.11612 0.7321 0.49292 0.0
C723 C 0.17293 0.73525 0.51621 0.0
C724 C 0.15094 0.73979 0.51707 0.0
C725 C 0.08723 0.75302 0.52223 0.0
C726 C 0.10916 0.74841 0.52019 0.0
H727 H 0.21476 0.73588 0.59253 0.0
H728 H 0.17855 0.74135 0.59428 0.0
H729 H 0.14162 0.71493 0.47086 0.0
H730 H 0.04497 0.75682 0.44713 0.0
H731 H 0.08083 0.7481 0.44387 0.0
C732 C 0.77787 0.71808 0.05021 0.0
C733 C 0.77858 0.72959 0.00556 0.0
C734 C 0.77973 0.69705 0.05 0.0
C735 C 0.79678 0.65515 0.97166 0.0
H736 H 0.76531 0.6224 0.0626 0.0
C737 C 0.80832 0.5689 0.99308 0.0
C738 C 0.79121 0.5568 0.00011 0.0
C739 C 0.80693 0.58994 0.9941 0.0
C740 C 0.77406 0.63127 0.03654 0.0
H741 H 0.7817 0.72799 0.92559 0.0
H742 H 0.78433 0.69138 0.92503 0.0
H743 H 0.76223 0.65896 0.06263 0.0
H744 H 0.75928 0.55732 0.01601 0.0
H745 H 0.75664 0.59395 0.01576 0.0
H746 H 0.80799 0.62745 0.94417 0.0
C747 C 0.78284 0.69856 0.96044 0.0
C748 C 0.77252 0.65232 0.0371 0.0
C749 C 0.78119 0.71959 0.96072 0.0
C750 C 0.7727 0.56619 0.00932 0.0
C751 C 0.77124 0.58724 0.00983 0.0
C752 C 0.79817 0.63411 0.97078 0.0
C753 C 0.78216 0.68699 0.00508 0.0
C754 C 0.78387 0.66455 0.00469 0.0
C755 C 0.78835 0.59942 0.00229 0.0
C756 C 0.78684 0.62187 0.00323 0.0
H757 H 0.77606 0.72532 0.08546 0.0
H758 H 0.7795 0.68871 0.08522 0.0
H759 H 0.80597 0.66404 0.94661 0.0
H760 H 0.82286 0.56202 0.98716 0.0
H761 H 0.82053 0.59875 0.9893 0.0
C762 C 0.79963 0.2802 0.54514 0.0
C763 C 0.78841 0.28754 0.50326 0.0
C764 C 0.82072 0.27931 0.54443 0.0
C765 C 0.86455 0.30019 0.47746 0.0
H766 H 0.89268 0.2537 0.53661 0.0
C767 C 0.94924 0.28675 0.44864 0.0
C768 C 0.96095 0.28092 0.49096 0.0
C769 C 0.92819 0.28695 0.45034 0.0
C770 C 0.88505 0.26686 0.52032 0.0
H771 H 0.79066 0.29981 0.42783 0.0
H772 H 0.82727 0.29798 0.42642 0.0
H773 H 0.85596 0.25561 0.5398 0.0
H774 H 0.96003 0.27016 0.56759 0.0
H775 H 0.92311 0.27049 0.57079 0.0
H776 H 0.89361 0.31138 0.45771 0.0
C777 C 0.81983 0.29317 0.46011 0.0
C778 C 0.86401 0.26798 0.52224 0.0
C779 C 0.79879 0.29411 0.46084 0.0
C780 C 0.95125 0.27474 0.53458 0.0
C781 C 0.93017 0.27486 0.53626 0.0
C782 C 0.88555 0.29903 0.4754 0.0
C783 C 0.83107 0.28574 0.50184 0.0
C784 C 0.85349 0.28464 0.50069 0.0
C785 C 0.91841 0.28121 0.49432 0.0
C786 C 0.89605 0.28233 0.49667 0.0
H787 H 0.79215 0.27511 0.57852 0.0
H788 H 0.82891 0.27377 0.57749 0.0
H789 H 0.857 0.31341 0.4613 0.0
H790 H 0.95638 0.29142 0.41443 0.0
H791 H 0.91955 0.2916 0.41716 0.0
C792 C 0.72199 0.21734 0.54608 0.0
C793 C 0.72627 0.22933 0.50366 0.0
C794 C 0.72217 0.19624 0.54405 0.0
C795 C 0.74301 0.15511 0.47044 0.0
H796 H 0.70477 0.1216 0.54146 0.0
C797 C 0.7403 0.06901 0.44772 0.0
C798 C 0.73912 0.0572 0.49171 0.0
C799 C 0.73722 0.08987 0.44841 0.0
C800 C 0.71564 0.13076 0.52172 0.0
H801 H 0.73329 0.22848 0.42532 0.0
H802 H 0.73327 0.19186 0.42163 0.0
H803 H 0.70215 0.15835 0.54417 0.0
H804 H 0.73273 0.05755 0.57019 0.0
H805 H 0.72744 0.09414 0.57169 0.0
H806 H 0.75653 0.12761 0.44807 0.0
C807 C 0.73026 0.1987 0.45681 0.0
C808 C 0.71416 0.15182 0.52333 0.0
C809 C 0.73017 0.21974 0.45889 0.0
C810 C 0.73393 0.06645 0.53597 0.0
C811 C 0.73079 0.08733 0.53667 0.0
C812 C 0.74444 0.13411 0.46871 0.0
C813 C 0.72655 0.18667 0.4995 0.0
C814 C 0.72784 0.16425 0.49768 0.0
C815 C 0.73272 0.09933 0.49304 0.0
C816 C 0.73079 0.12168 0.49432 0.0
H817 H 0.71891 0.22423 0.58117 0.0
H818 H 0.71941 0.18745 0.57774 0.0
H819 H 0.75407 0.16418 0.4511 0.0
H820 H 0.74394 0.06213 0.41297 0.0
H821 H 0.73843 0.09863 0.41398 0.0
C822 C 0.30031 0.22178 0.05355 0.0
C823 C 0.28798 0.22506 0.01064 0.0
C824 C 0.32119 0.22485 0.0519 0.0
C825 C 0.35886 0.25268 0.97777 0.0
H826 H 0.39775 0.21869 0.05077 0.0
C827 C 0.44425 0.26246 0.95332 0.0
C828 C 0.45635 0.26228 0.99702 0.0
C829 C 0.42403 0.25658 0.95487 0.0
C830 C 0.38704 0.2284 0.03049 0.0
H831 H 0.28809 0.23312 0.93178 0.0
H832 H 0.32434 0.23808 0.92876 0.0
H833 H 0.3618 0.21064 0.0538 0.0
H834 H 0.45731 0.25485 0.07596 0.0
H835 H 0.42182 0.24466 0.07896 0.0
H836 H 0.38399 0.27045 0.95449 0.0
C837 C 0.31789 0.23369 0.96403 0.0
C838 C 0.36645 0.22381 0.03227 0.0
C839 C 0.29708 0.23072 0.96573 0.0
C840 C 0.44814 0.25534 0.04194 0.0
C841 C 0.42791 0.24939 0.04352 0.0
C842 C 0.37938 0.25722 0.97588 0.0
C843 C 0.33017 0.23118 0.00725 0.0
C844 C 0.35211 0.23587 0.00577 0.0
C845 C 0.41555 0.25022 0.0001 0.0
C846 C 0.39374 0.24512 0.00209 0.0
H847 H 0.29378 0.21741 0.08875 0.0
H848 H 0.33019 0.2229 0.08595 0.0
H849 H 0.34823 0.26258 0.95781 0.0
H850 H 0.45038 0.26742 0.91808 0.0
H851 H 0.41501 0.25703 0.9206 0.0
C852 C 0.28862 0.79165 0.56138 0.0
C853 C 0.28102 0.78208 0.51872 0.0
C854 C 0.29029 0.81268 0.56211 0.0
C855 C 0.27058 0.85936 0.49904 0.0
H856 H 0.31659 0.88427 0.56505 0.0
C857 C 0.28584 0.94537 0.48604 0.0
C858 C 0.29262 0.95465 0.52975 0.0
C859 C 0.2843 0.92433 0.48444 0.0
C860 C 0.30353 0.87754 0.54691 0.0
H861 H 0.2696 0.78721 0.44293 0.0
H862 H 0.27279 0.82384 0.44399 0.0
H863 H 0.31457 0.84757 0.56205 0.0
H864 H 0.30251 0.94941 0.6065 0.0
H865 H 0.29982 0.91262 0.6039 0.0
H866 H 0.2596 0.88937 0.48375 0.0
C867 C 0.27711 0.8151 0.47725 0.0
C868 C 0.30237 0.8565 0.5452 0.0
C869 C 0.2754 0.79406 0.47654 0.0
C870 C 0.29748 0.94258 0.57217 0.0
C871 C 0.29602 0.92154 0.57056 0.0
C872 C 0.27177 0.88041 0.50064 0.0
C873 C 0.28446 0.82469 0.52014 0.0
C874 C 0.28586 0.84712 0.52133 0.0
C875 C 0.2895 0.91216 0.5266 0.0
C876 C 0.28824 0.88976 0.5247 0.0
H877 H 0.29308 0.78292 0.59459 0.0
H878 H 0.29578 0.81955 0.59598 0.0
H879 H 0.25748 0.85266 0.48106 0.0
H880 H 0.28188 0.95443 0.45302 0.0
H881 H 0.27937 0.91759 0.44991 0.0
C882 C 0.70338 0.78069 0.97439 0.0
C883 C 0.71488 0.78652 0.01636 0.0
C884 C 0.68235 0.77945 0.9761 0.0
C885 C 0.63875 0.79704 0.04661 0.0
H886 H 0.61089 0.75288 0.98251 0.0
C887 C 0.55363 0.78292 0.07036 0.0
C888 C 0.5423 0.77869 0.02697 0.0
C889 C 0.57472 0.78306 0.06992 0.0
C890 C 0.61843 0.76539 0.00023 0.0
H891 H 0.71317 0.79574 0.09303 0.0
H892 H 0.67657 0.79334 0.09615 0.0
H893 H 0.64759 0.75506 0.97986 0.0
H894 H 0.54392 0.77046 0.94986 0.0
H895 H 0.58086 0.77075 0.94879 0.0
H896 H 0.60959 0.80736 0.06703 0.0
C897 C 0.68379 0.78996 0.06167 0.0
C898 C 0.63947 0.76667 0.99865 0.0
C899 C 0.70481 0.79123 0.05995 0.0
C900 C 0.5524 0.7739 0.98362 0.0
C901 C 0.5735 0.77397 0.98318 0.0
C902 C 0.61773 0.79573 0.0483 0.0
C903 C 0.67228 0.784 0.01981 0.0
C904 C 0.64989 0.78254 0.02173 0.0
C905 C 0.58491 0.77881 0.02616 0.0
C906 C 0.60731 0.77991 0.02506 0.0
H907 H 0.7106 0.77706 0.9401 0.0
H908 H 0.67396 0.77513 0.94292 0.0
H909 H 0.64622 0.80965 0.06409 0.0
H910 H 0.54617 0.78641 0.10443 0.0
H911 H 0.58306 0.78649 0.10387 0.0
loop_
_geom_bond_atom_site_label_1
_geom_bond_atom_site_label_2
_geom_bond_distance
_geom_bond_site_symmetry_2
_ccdc_geom_bond_type
Fe0 O2 1.918 . S
Fe0 O5 1.997 . S
Fe0 O6 2.002 . S
Fe0 O11 1.976 . S
Fe0 O14 1.996 . S
Fe1 O2 1.918 1_556 S
Fe1 O9 1.997 . S
Fe1 O12 1.996 . S
Fe1 O16 1.976 . S
Fe1 O19 2.002 . S
O2 Fe0 1.918 . S
O2 Fe1 1.918 1_554 S
O2 Fe3 1.918 . S
Fe3 O2 1.918 . S
Fe3 O4 2.002 . S
Fe3 O13 1.976 . S
Fe3 O17 1.996 1_554 S
Fe3 O20 1.997 1_554 S
O4 Fe3 2.002 . S
O4 C21 1.295 . S
O5 Fe0 1.997 . S
O5 C21 1.235 . S
O6 Fe0 2.002 . S
O6 C7 1.295 . S
C7 O6 1.295 . S
C7 O9 1.235 1_554 S
C8 O13 1.287 . S
C8 O14 1.255 . S
O9 Fe1 1.997 . S
O9 C7 1.235 1_556 S
C10 O16 1.287 . S
C10 O17 1.255 . S
O11 Fe0 1.976 . S
O11 C18 1.287 . S
O12 Fe1 1.996 . S
O12 C18 1.255 1_556 S
O13 Fe3 1.976 . S
O13 C8 1.287 . S
O14 Fe0 1.996 . S
O14 C8 1.255 . S
C15 O19 1.295 . S
C15 O20 1.235 . S
O16 Fe1 1.976 . S
O16 C10 1.287 . S
O17 Fe3 1.996 1_556 S
O17 C10 1.255 . S
C18 O11 1.287 . S
C18 O12 1.255 1_554 S
O19 Fe1 2.002 . S
O19 C15 1.295 . S
O20 Fe3 1.997 1_556 S
O20 C15 1.235 . S
C21 O4 1.295 . S
C21 O5 1.235 . S
Fe22 O24 1.918 . S
Fe22 O27 1.997 . S
Fe22 O28 2.002 . S
Fe22 O33 1.976 . S
Fe22 O36 1.996 . S
Fe23 O24 1.918 . S
Fe23 O31 1.997 . S
Fe23 O34 1.996 . S
Fe23 O38 1.976 . S
Fe23 O41 2.002 . S
O24 Fe22 1.918 . S
O24 Fe23 1.918 . S
O24 Fe25 1.918 . S
Fe25 O24 1.918 . S
Fe25 O26 2.002 . S
Fe25 O35 1.976 . S
Fe25 O39 1.996 . S
Fe25 O42 1.997 . S
O26 Fe25 2.002 . S
O26 C43 1.295 . S
O27 Fe22 1.997 . S
O27 C43 1.235 . S
O28 Fe22 2.002 . S
O28 C29 1.295 . S
C29 O28 1.295 . S
C29 O31 1.235 . S
C30 O35 1.287 . S
C30 O36 1.255 . S
O31 Fe23 1.997 . S
O31 C29 1.235 . S
C32 O38 1.287 . S
C32 O39 1.255 . S
O33 Fe22 1.976 . S
O33 C40 1.287 . S
O34 Fe23 1.996 . S
O34 C40 1.255 . S
O35 Fe25 1.976 . S
O35 C30 1.287 . S
O36 Fe22 1.996 . S
O36 C30 1.255 . S
C37 O41 1.295 . S
C37 O42 1.235 . S
O38 Fe23 1.976 . S
O38 C32 1.287 . S
O39 Fe25 1.996 . S
O39 C32 1.255 . S
C40 O33 1.287 . S
C40 O34 1.255 . S
O41 Fe23 2.002 . S
O41 C37 1.295 . S
O42 Fe25 1.997 . S
O42 C37 1.235 . S
C43 O26 1.295 . S
C43 O27 1.235 . S
Fe44 O46 1.918 1_556 S
Fe44 O49 1.997 . S
Fe44 O50 2.002 . S
Fe44 O55 1.976 . S
Fe44 O58 1.996 . S
Fe45 O46 1.918 . S
Fe45 O53 1.997 . S
Fe45 O56 1.996 . S
Fe45 O60 1.976 . S
Fe45 O63 2.002 . S
O46 Fe44 1.918 1_554 S
O46 Fe45 1.918 . S
O46 Fe47 1.918 . S
Fe47 O46 1.918 . S
Fe47 O48 2.002 1_554 S
Fe47 O57 1.976 1_554 S
Fe47 O61 1.996 . S
Fe47 O64 1.997 . S
O48 Fe47 2.002 1_556 S
O48 C65 1.295 . S
O49 Fe44 1.997 . S
O49 C65 1.235 . S
O50 Fe44 2.002 . S
O50 C51 1.295 1_556 S
C51 O50 1.295 1_554 S
C51 O53 1.235 . S
C52 O57 1.287 . S
C52 O58 1.255 . S
O53 Fe45 1.997 . S
O53 C51 1.235 . S
C54 O60 1.287 . S
C54 O61 1.255 . S
O55 Fe44 1.976 . S
O55 C62 1.287 1_556 S
O56 Fe45 1.996 . S
O56 C62 1.255 . S
O57 Fe47 1.976 1_556 S
O57 C52 1.287 . S
O58 Fe44 1.996 . S
O58 C52 1.255 . S
C59 O63 1.295 . S
C59 O64 1.235 . S
O60 Fe45 1.976 . S
O60 C54 1.287 . S
O61 Fe47 1.996 . S
O61 C54 1.255 . S
C62 O55 1.287 1_554 S
C62 O56 1.255 . S
O63 Fe45 2.002 . S
O63 C59 1.295 . S
O64 Fe47 1.997 . S
O64 C59 1.235 . S
C65 O48 1.295 . S
C65 O49 1.235 . S
Fe66 O68 1.918 . S
Fe66 O71 1.997 . S
Fe66 O72 2.002 . S
Fe66 O77 1.976 . S
Fe66 O80 1.996 . S
Fe67 O68 1.918 . S
Fe67 O75 1.997 . S
Fe67 O78 1.996 . S
Fe67 O82 1.976 . S
Fe67 O85 2.002 . S
O68 Fe66 1.918 . S
O68 Fe67 1.918 . S
O68 Fe69 1.918 . S
Fe69 O68 1.918 . S
Fe69 O70 2.002 . S
Fe69 O79 1.976 . S
Fe69 O83 1.996 . S
Fe69 O86 1.997 . S
O70 Fe69 2.002 . S
O70 C87 1.295 . S
O71 Fe66 1.997 . S
O71 C87 1.235 . S
O72 Fe66 2.002 . S
O72 C73 1.295 . S
C73 O72 1.295 . S
C73 O75 1.235 . S
C74 O79 1.287 . S
C74 O80 1.255 . S
O75 Fe67 1.997 . S
O75 C73 1.235 . S
C76 O82 1.287 . S
C76 O83 1.255 . S
O77 Fe66 1.976 . S
O77 C84 1.287 . S
O78 Fe67 1.996 . S
O78 C84 1.255 . S
O79 Fe69 1.976 . S
O79 C74 1.287 . S
O80 Fe66 1.996 . S
O80 C74 1.255 . S
C81 O85 1.295 . S
C81 O86 1.235 . S
O82 Fe67 1.976 . S
O82 C76 1.287 . S
O83 Fe69 1.996 . S
O83 C76 1.255 . S
C84 O77 1.287 . S
C84 O78 1.255 . S
O85 Fe67 2.002 . S
O85 C81 1.295 . S
O86 Fe69 1.997 . S
O86 C81 1.235 . S
C87 O70 1.295 . S
C87 O71 1.235 . S
H88 C95 0.929 . S
H89 C98 0.930 . S
H90 C100 0.929 . S
H91 C92 0.971 . S
C92 H91 0.971 . S
C92 O93 1.537 1_556 S
C92 H94 0.989 . S
O93 C92 1.537 1_554 S
O93 C99 1.412 . S
H94 C92 0.989 . S
C95 H88 0.929 . S
C95 C96 1.400 . S
C95 C97 1.364 1_554 S
C96 C95 1.400 . S
C96 C100 1.377 . S
C97 C95 1.364 1_556 S
C97 C98 1.374 . S
C98 H89 0.930 . S
C98 C97 1.374 . S
C98 C99 1.383 1_556 S
C99 O93 1.412 . S
C99 C98 1.383 1_554 S
C99 C100 1.394 . S
C100 H90 0.929 . S
C100 C96 1.377 . S
C100 C99 1.394 . S
H101 C108 0.929 . S
H102 C111 0.930 . S
H103 C113 0.929 . S
H104 C105 0.969 . S
C105 H104 0.969 . S
C105 O106 1.550 . S
C105 H107 0.973 . S
O106 C105 1.550 . S
O106 C112 1.388 1_455 S
H107 C105 0.973 . S
C108 H101 0.929 . S
C108 C109 1.400 . S
C108 C110 1.364 . S
C109 C108 1.400 . S
C109 C113 1.377 . S
C110 C108 1.364 . S
C110 C111 1.374 . S
C111 H102 0.930 . S
C111 C110 1.374 . S
C111 C112 1.394 . S
C112 O106 1.388 1_655 S
C112 C111 1.394 . S
C112 C113 1.411 . S
C113 H103 0.929 . S
C113 C109 1.377 . S
C113 C112 1.411 . S
H114 C121 0.929 . S
H115 C124 0.930 . S
H116 C126 0.929 . S
H117 C118 0.969 . S
C118 H117 0.969 . S
C118 O119 1.550 1_554 S
C118 H120 0.973 . S
O119 C118 1.550 1_556 S
O119 C125 1.412 . S
H120 C118 0.973 . S
C121 H114 0.929 . S
C121 C122 1.400 1_554 S
C121 C123 1.364 . S
C122 C121 1.400 1_556 S
C122 C126 1.377 . S
C123 C121 1.364 . S
C123 C124 1.374 . S
C124 H115 0.930 . S
C124 C123 1.374 . S
C124 C125 1.383 1_554 S
C125 O119 1.412 . S
C125 C124 1.383 1_556 S
C125 C126 1.394 . S
C126 H116 0.929 . S
C126 C122 1.377 . S
C126 C125 1.394 . S
H127 C134 0.929 . S
H128 C137 0.922 1_655 S
H129 C139 0.929 . S
H130 C131 0.969 . S
C131 H130 0.969 . S
C131 O132 1.550 . S
C131 H133 0.973 . S
O132 C131 1.550 . S
O132 C138 1.451 . S
H133 C131 0.973 . S
C134 H127 0.929 . S
C134 C135 1.400 . S
C134 C136 1.364 . S
C135 C134 1.400 . S
C135 C139 1.377 . S
C136 C134 1.364 . S
C136 C137 1.374 . S
C137 H128 0.922 1_455 S
C137 C136 1.374 . S
C137 C138 1.369 1_455 S
C138 O132 1.451 . S
C138 C137 1.369 1_655 S
C138 C139 1.372 1_655 S
C139 H129 0.929 . S
C139 C135 1.377 . S
C139 C138 1.372 1_455 S
H140 C147 0.929 . S
H141 C150 0.930 1_545 S
H142 C152 0.929 . S
H143 C144 0.969 . S
C144 H143 0.969 . S
C144 O145 1.550 . S
C144 H146 0.973 . S
O145 C144 1.550 . S
O145 C151 1.412 . S
H146 C144 0.973 . S
C147 H140 0.929 . S
C147 C148 1.400 . S
C147 C149 1.364 . S
C148 C147 1.400 . S
C148 C152 1.377 . S
C149 C147 1.364 . S
C149 C150 1.374 . S
C150 H141 0.930 1_565 S
C150 C149 1.374 . S
C150 C151 1.383 1_565 S
C151 O145 1.412 . S
C151 C150 1.383 1_545 S
C151 C152 1.394 1_545 S
C152 H142 0.929 . S
C152 C148 1.377 . S
C152 C151 1.394 1_565 S
H153 C160 0.928 1_554 S
H154 C163 0.930 . S
H155 C165 0.929 . S
H156 C157 0.969 . S
C157 H156 0.969 . S
C157 O158 1.550 1_554 S
C157 H159 0.973 . S
O158 C157 1.550 1_556 S
O158 C164 1.412 . S
H159 C157 0.973 . S
C160 H153 0.928 1_556 S
C160 C161 1.406 . S
C160 C162 1.359 1_556 S
C161 C160 1.406 . S
C161 C165 1.377 . S
C162 C160 1.359 1_554 S
C162 C163 1.374 . S
C163 H154 0.930 . S
C163 C162 1.374 . S
C163 C164 1.383 1_554 S
C164 O158 1.412 . S
C164 C163 1.383 1_556 S
C164 C165 1.394 . S
C165 H155 0.929 . S
C165 C161 1.377 . S
C165 C164 1.394 . S
H166 C173 0.929 . S
H167 C176 0.930 . S
H168 C178 0.929 . S
H169 C170 0.969 . S
C170 H169 0.969 . S
C170 O171 1.550 . S
C170 H172 0.973 . S
O171 C170 1.550 . S
O171 C177 1.379 1_565 S
H172 C170 0.973 . S
C173 H166 0.929 . S
C173 C174 1.400 . S
C173 C175 1.364 . S
C174 C173 1.400 . S
C174 C178 1.377 . S
C175 C173 1.364 . S
C175 C176 1.374 . S
C176 H167 0.930 . S
C176 C175 1.374 . S
C176 C177 1.396 . S
C177 O171 1.379 1_545 S
C177 C176 1.396 . S
C177 C178 1.415 . S
C178 H168 0.929 . S
C178 C174 1.377 . S
C178 C177 1.415 . S
H179 C186 0.929 . S
H180 C189 0.930 . S
H181 C191 0.929 . S
H182 C183 0.969 1_556 S
C183 H182 0.969 1_554 S
C183 O184 1.550 . S
C183 H185 0.973 1_554 S
O184 C183 1.550 . S
O184 C190 1.412 . S
H185 C183 0.973 1_556 S
C186 H179 0.929 . S
C186 C187 1.400 . S
C186 C188 1.364 1_554 S
C187 C186 1.400 . S
C187 C191 1.377 . S
C188 C186 1.364 1_556 S
C188 C189 1.374 . S
C189 H180 0.930 . S
C189 C188 1.374 . S
C189 C190 1.383 1_556 S
C190 O184 1.412 . S
C190 C189 1.383 1_554 S
C190 C191 1.394 . S
C191 H181 0.929 . S
C191 C187 1.377 . S
C191 C190 1.394 . S
C192 C193 1.349 . S
C192 C194 1.327 . S
C192 H217 0.950 . S
C193 C192 1.349 . S
C193 C209 1.349 . S
C194 C192 1.327 . S
C194 C213 1.429 . S
C194 H218 0.950 . S
C195 C212 1.574 . S
C195 C214 1.368 . S
C195 H219 0.949 . S
H196 C200 0.949 . S
C197 C198 1.349 . S
C197 C199 1.327 . S
C197 H220 0.950 . S
C198 C197 1.349 . S
C198 C210 1.349 . S
C199 C197 1.327 . S
C199 C215 1.429 . S
C199 H221 0.950 . S
C200 H196 0.949 . S
C200 C208 1.574 . S
C200 C216 1.368 . S
H201 C209 0.950 . S
H202 C207 0.950 . S
H203 C208 0.949 . S
H204 C210 0.950 . S
H205 C211 0.950 . S
H206 C212 0.949 . S
C207 H202 0.950 . S
C207 C209 1.327 . S
C207 C213 1.429 . S
C208 C200 1.574 . S
C208 H203 0.949 . S
C208 C214 1.368 . S
C209 C193 1.349 . S
C209 H201 0.950 . S
C209 C207 1.327 . S
C210 C198 1.349 . S
C210 H204 0.950 . S
C210 C211 1.327 . S
C211 H205 0.950 . S
C211 C210 1.327 . S
C211 C215 1.429 . S
C212 C195 1.574 . S
C212 H206 0.949 . S
C212 C216 1.368 . S
C213 C194 1.429 . S
C213 C207 1.429 . S
C213 C214 1.523 . S
C214 C195 1.368 . S
C214 C208 1.368 . S
C214 C213 1.523 . S
C215 C199 1.429 . S
C215 C211 1.429 . S
C215 C216 1.523 . S
C216 C200 1.368 . S
C216 C212 1.368 . S
C216 C215 1.523 . S
H217 C192 0.950 . S
H218 C194 0.950 . S
H219 C195 0.949 . S
H220 C197 0.950 . S
H221 C199 0.950 . S
C222 C223 1.349 . S
C222 C224 1.327 . S
C222 H247 0.950 . S
C223 C222 1.349 . S
C223 C239 1.349 . S
C224 C222 1.327 . S
C224 C243 1.429 . S
C224 H248 0.950 . S
C225 C242 1.574 . S
C225 C244 1.368 . S
C225 H249 0.949 . S
H226 C230 0.949 . S
C227 C228 1.349 . S
C227 C229 1.327 . S
C227 H250 0.950 . S
C228 C227 1.349 . S
C228 C240 1.349 . S
C229 C227 1.327 . S
C229 C245 1.429 . S
C229 H251 0.950 . S
C230 H226 0.949 . S
C230 C238 1.574 . S
C230 C246 1.368 . S
H231 C239 0.950 . S
H232 C237 0.950 . S
H233 C238 0.949 . S
H234 C240 0.950 . S
H235 C241 0.950 . S
H236 C242 0.949 . S
C237 H232 0.950 . S
C237 C239 1.327 . S
C237 C243 1.429 . S
C238 C230 1.574 . S
C238 H233 0.949 . S
C238 C244 1.368 . S
C239 C223 1.349 . S
C239 H231 0.950 . S
C239 C237 1.327 . S
C240 C228 1.349 . S
C240 H234 0.950 . S
C240 C241 1.327 . S
C241 H235 0.950 . S
C241 C240 1.327 . S
C241 C245 1.429 . S
C242 C225 1.574 . S
C242 H236 0.949 . S
C242 C246 1.368 . S
C243 C224 1.429 . S
C243 C237 1.429 . S
C243 C244 1.523 . S
C244 C225 1.368 . S
C244 C238 1.368 . S
C244 C243 1.523 . S
C245 C229 1.429 . S
C245 C241 1.429 . S
C245 C246 1.523 . S
C246 C230 1.368 . S
C246 C242 1.368 . S
C246 C245 1.523 . S
H247 C222 0.950 . S
H248 C224 0.950 . S
H249 C225 0.949 . S
H250 C227 0.950 . S
H251 C229 0.950 . S
C252 C253 1.349 . S
C252 C254 1.327 . S
C252 H277 0.950 . S
C253 C252 1.349 . S
C253 C269 1.349 . S
C254 C252 1.327 . S
C254 C273 1.429 . S
C254 H278 0.950 . S
C255 C272 1.574 . S
C255 C274 1.368 . S
C255 H279 0.949 . S
H256 C260 0.949 . S
C257 C258 1.349 . S
C257 C259 1.327 . S
C257 H280 0.950 . S
C258 C257 1.349 . S
C258 C270 1.349 . S
C259 C257 1.327 . S
C259 C275 1.429 . S
C259 H281 0.950 . S
C260 H256 0.949 . S
C260 C268 1.574 . S
C260 C276 1.368 . S
H261 C269 0.950 . S
H262 C267 0.950 . S
H263 C268 0.949 . S
H264 C270 0.950 . S
H265 C271 0.950 . S
H266 C272 0.949 . S
C267 H262 0.950 . S
C267 C269 1.327 . S
C267 C273 1.429 . S
C268 C260 1.574 . S
C268 H263 0.949 . S
C268 C274 1.368 . S
C269 C253 1.349 . S
C269 H261 0.950 . S
C269 C267 1.327 . S
C270 C258 1.349 . S
C270 H264 0.950 . S
C270 C271 1.327 . S
C271 H265 0.950 . S
C271 C270 1.327 . S
C271 C275 1.429 . S
C272 C255 1.574 . S
C272 H266 0.949 . S
C272 C276 1.368 . S
C273 C254 1.429 . S
C273 C267 1.429 . S
C273 C274 1.523 . S
C274 C255 1.368 . S
C274 C268 1.368 . S
C274 C273 1.523 . S
C275 C259 1.429 . S
C275 C271 1.429 . S
C275 C276 1.523 . S
C276 C260 1.368 . S
C276 C272 1.368 . S
C276 C275 1.523 . S
H277 C252 0.950 . S
H278 C254 0.950 . S
H279 C255 0.949 . S
H280 C257 0.950 . S
H281 C259 0.950 . S
C282 C283 1.349 . S
C282 C284 1.327 . S
C282 H307 0.950 . S
C283 C282 1.349 . S
C283 C299 1.349 . S
C284 C282 1.327 . S
C284 C303 1.429 . S
C284 H308 0.950 . S
C285 C302 1.574 . S
C285 C304 1.368 . S
C285 H309 0.949 . S
H286 C290 0.949 . S
C287 C288 1.349 . S
C287 C289 1.327 . S
C287 H310 0.950 . S
C288 C287 1.349 . S
C288 C300 1.349 . S
C289 C287 1.327 . S
C289 C305 1.429 . S
C289 H311 0.950 . S
C290 H286 0.949 . S
C290 C298 1.574 . S
C290 C306 1.368 . S
H291 C299 0.950 . S
H292 C297 0.950 . S
H293 C298 0.949 . S
H294 C300 0.950 . S
H295 C301 0.950 . S
H296 C302 0.949 . S
C297 H292 0.950 . S
C297 C299 1.327 . S
C297 C303 1.429 . S
C298 C290 1.574 . S
C298 H293 0.949 . S
C298 C304 1.368 . S
C299 C283 1.349 . S
C299 H291 0.950 . S
C299 C297 1.327 . S
C300 C288 1.349 . S
C300 H294 0.950 . S
C300 C301 1.327 . S
C301 H295 0.950 . S
C301 C300 1.327 . S
C301 C305 1.429 . S
C302 C285 1.574 . S
C302 H296 0.949 . S
C302 C306 1.368 . S
C303 C284 1.429 . S
C303 C297 1.429 . S
C303 C304 1.523 . S
C304 C285 1.368 . S
C304 C298 1.368 . S
C304 C303 1.523 . S
C305 C289 1.429 . S
C305 C301 1.429 . S
C305 C306 1.523 . S
C306 C290 1.368 . S
C306 C302 1.368 . S
C306 C305 1.523 . S
H307 C282 0.950 . S
H308 C284 0.950 . S
H309 C285 0.949 . S
H310 C287 0.950 . S
H311 C289 0.950 . S
C312 C313 1.349 . S
C312 C314 1.327 . S
C312 H337 0.950 . S
C313 C312 1.349 . S
C313 C329 1.349 . S
C314 C312 1.327 . S
C314 C333 1.429 . S
C314 H338 0.950 . S
C315 C332 1.574 . S
C315 C334 1.368 . S
C315 H339 0.949 . S
H316 C320 0.949 . S
C317 C318 1.349 . S
C317 C319 1.327 . S
C317 H340 0.950 . S
C318 C317 1.349 . S
C318 C330 1.349 . S
C319 C317 1.327 . S
C319 C335 1.429 . S
C319 H341 0.950 . S
C320 H316 0.949 . S
C320 C328 1.574 . S
C320 C336 1.368 . S
H321 C329 0.950 . S
H322 C327 0.950 . S
H323 C328 0.949 . S
H324 C330 0.950 . S
H325 C331 0.950 . S
H326 C332 0.949 . S
C327 H322 0.950 . S
C327 C329 1.327 . S
C327 C333 1.429 . S
C328 C320 1.574 . S
C328 H323 0.949 . S
C328 C334 1.368 . S
C329 C313 1.349 . S
C329 H321 0.950 . S
C329 C327 1.327 . S
C330 C318 1.349 . S
C330 H324 0.950 . S
C330 C331 1.327 . S
C331 H325 0.950 . S
C331 C330 1.327 . S
C331 C335 1.429 . S
C332 C315 1.574 . S
C332 H326 0.949 . S
C332 C336 1.368 . S
C333 C314 1.429 . S
C333 C327 1.429 . S
C333 C334 1.523 . S
C334 C315 1.368 . S
C334 C328 1.368 . S
C334 C333 1.523 . S
C335 C319 1.429 . S
C335 C331 1.429 . S
C335 C336 1.523 . S
C336 C320 1.368 . S
C336 C332 1.368 . S
C336 C335 1.523 . S
H337 C312 0.950 . S
H338 C314 0.950 . S
H339 C315 0.949 . S
H340 C317 0.950 . S
H341 C319 0.950 . S
C342 C343 1.349 . S
C342 C344 1.327 . S
C342 H367 0.950 . S
C343 C342 1.349 . S
C343 C359 1.349 . S
C344 C342 1.327 . S
C344 C363 1.429 . S
C344 H368 0.950 . S
C345 C362 1.574 . S
C345 C364 1.368 . S
C345 H369 0.949 . S
H346 C350 0.949 . S
C347 C348 1.349 . S
C347 C349 1.327 . S
C347 H370 0.950 . S
C348 C347 1.349 . S
C348 C360 1.349 . S
C349 C347 1.327 . S
C349 C365 1.429 . S
C349 H371 0.950 . S
C350 H346 0.949 . S
C350 C358 1.574 . S
C350 C366 1.368 . S
H351 C359 0.950 . S
H352 C357 0.950 . S
H353 C358 0.949 . S
H354 C360 0.950 . S
H355 C361 0.950 . S
H356 C362 0.949 . S
C357 H352 0.950 . S
C357 C359 1.327 . S
C357 C363 1.429 . S
C358 C350 1.574 . S
C358 H353 0.949 . S
C358 C364 1.368 . S
C359 C343 1.349 . S
C359 H351 0.950 . S
C359 C357 1.327 . S
C360 C348 1.349 . S
C360 H354 0.950 . S
C360 C361 1.327 . S
C361 H355 0.950 . S
C361 C360 1.327 . S
C361 C365 1.429 . S
C362 C345 1.574 . S
C362 H356 0.949 . S
C362 C366 1.368 . S
C363 C344 1.429 . S
C363 C357 1.429 . S
C363 C364 1.523 . S
C364 C345 1.368 . S
C364 C358 1.368 . S
C364 C363 1.523 . S
C365 C349 1.429 . S
C365 C361 1.429 . S
C365 C366 1.523 . S
C366 C350 1.368 . S
C366 C362 1.368 . S
C366 C365 1.523 . S
H367 C342 0.950 . S
H368 C344 0.950 . S
H369 C345 0.949 . S
H370 C347 0.950 . S
H371 C349 0.950 . S
C372 C373 1.349 . S
C372 C374 1.327 . S
C372 H397 0.950 . S
C373 C372 1.349 . S
C373 C389 1.349 . S
C374 C372 1.327 . S
C374 C393 1.429 . S
C374 H398 0.950 . S
C375 C392 1.574 . S
C375 C394 1.368 . S
C375 H399 0.949 . S
H376 C380 0.949 . S
C377 C378 1.349 . S
C377 C379 1.327 . S
C377 H400 0.950 . S
C378 C377 1.349 . S
C378 C390 1.349 . S
C379 C377 1.327 . S
C379 C395 1.429 . S
C379 H401 0.950 . S
C380 H376 0.949 . S
C380 C388 1.574 . S
C380 C396 1.368 . S
H381 C389 0.950 . S
H382 C387 0.950 . S
H383 C388 0.949 . S
H384 C390 0.950 . S
H385 C391 0.950 . S
H386 C392 0.949 . S
C387 H382 0.950 . S
C387 C389 1.327 . S
C387 C393 1.429 . S
C388 C380 1.574 . S
C388 H383 0.949 . S
C388 C394 1.368 . S
C389 C373 1.349 . S
C389 H381 0.950 . S
C389 C387 1.327 . S
C390 C378 1.349 . S
C390 H384 0.950 . S
C390 C391 1.327 . S
C391 H385 0.950 . S
C391 C390 1.327 . S
C391 C395 1.429 . S
C392 C375 1.574 . S
C392 H386 0.949 . S
C392 C396 1.368 . S
C393 C374 1.429 . S
C393 C387 1.429 . S
C393 C394 1.523 . S
C394 C375 1.368 . S
C394 C388 1.368 . S
C394 C393 1.523 . S
C395 C379 1.429 . S
C395 C391 1.429 . S
C395 C396 1.523 . S
C396 C380 1.368 . S
C396 C392 1.368 . S
C396 C395 1.523 . S
H397 C372 0.950 . S
H398 C374 0.950 . S
H399 C375 0.949 . S
H400 C377 0.950 . S
H401 C379 0.950 . S
C402 C403 1.349 . S
C402 C404 1.327 . S
C402 H427 0.950 . S
C403 C402 1.349 . S
C403 C419 1.349 . S
C404 C402 1.327 . S
C404 C423 1.429 . S
C404 H428 0.950 . S
C405 C422 1.574 . S
C405 C424 1.368 . S
C405 H429 0.949 . S
H406 C410 0.949 . S
C407 C408 1.349 . S
C407 C409 1.327 . S
C407 H430 0.950 . S
C408 C407 1.349 . S
C408 C420 1.349 . S
C409 C407 1.327 . S
C409 C425 1.429 . S
C409 H431 0.950 . S
C410 H406 0.949 . S
C410 C418 1.574 . S
C410 C426 1.368 . S
H411 C419 0.950 . S
H412 C417 0.950 . S
H413 C418 0.949 . S
H414 C420 0.950 . S
H415 C421 0.950 . S
H416 C422 0.949 . S
C417 H412 0.950 . S
C417 C419 1.327 . S
C417 C423 1.429 . S
C418 C410 1.574 . S
C418 H413 0.949 . S
C418 C424 1.368 . S
C419 C403 1.349 . S
C419 H411 0.950 . S
C419 C417 1.327 . S
C420 C408 1.349 . S
C420 H414 0.950 . S
C420 C421 1.327 . S
C421 H415 0.950 . S
C421 C420 1.327 . S
C421 C425 1.429 . S
C422 C405 1.574 . S
C422 H416 0.949 . S
C422 C426 1.368 . S
C423 C404 1.429 . S
C423 C417 1.429 . S
C423 C424 1.523 . S
C424 C405 1.368 . S
C424 C418 1.368 . S
C424 C423 1.523 . S
C425 C409 1.429 . S
C425 C421 1.429 . S
C425 C426 1.523 . S
C426 C410 1.368 . S
C426 C422 1.368 . S
C426 C425 1.523 . S
H427 C402 0.950 . S
H428 C404 0.950 . S
H429 C405 0.949 . S
H430 C407 0.950 . S
H431 C409 0.950 . S
C432 C433 1.349 . S
C432 C434 1.327 . S
C432 H457 0.950 . S
C433 C432 1.349 . S
C433 C449 1.349 . S
C434 C432 1.327 . S
C434 C453 1.429 . S
C434 H458 0.950 . S
C435 C452 1.574 . S
C435 C454 1.368 . S
C435 H459 0.949 . S
H436 C440 0.949 . S
C437 C438 1.349 . S
C437 C439 1.327 . S
C437 H460 0.950 . S
C438 C437 1.349 . S
C438 C450 1.349 . S
C439 C437 1.327 . S
C439 C455 1.429 . S
C439 H461 0.950 . S
C440 H436 0.949 . S
C440 C448 1.574 . S
C440 C456 1.368 . S
H441 C449 0.950 . S
H442 C447 0.950 . S
H443 C448 0.949 . S
H444 C450 0.950 . S
H445 C451 0.950 . S
H446 C452 0.949 . S
C447 H442 0.950 . S
C447 C449 1.327 . S
C447 C453 1.429 . S
C448 C440 1.574 . S
C448 H443 0.949 . S
C448 C454 1.368 . S
C449 C433 1.349 . S
C449 H441 0.950 . S
C449 C447 1.327 . S
C450 C438 1.349 . S
C450 H444 0.950 . S
C450 C451 1.327 . S
C451 H445 0.950 . S
C451 C450 1.327 . S
C451 C455 1.429 . S
C452 C435 1.574 . S
C452 H446 0.949 . S
C452 C456 1.368 . S
C453 C434 1.429 . S
C453 C447 1.429 . S
C453 C454 1.523 . S
C454 C435 1.368 . S
C454 C448 1.368 . S
C454 C453 1.523 . S
C455 C439 1.429 . S
C455 C451 1.429 . S
C455 C456 1.523 . S
C456 C440 1.368 . S
C456 C452 1.368 . S
C456 C455 1.523 . S
H457 C432 0.950 . S
H458 C434 0.950 . S
H459 C435 0.949 . S
H460 C437 0.950 . S
H461 C439 0.950 . S
C462 C463 1.349 . S
C462 C464 1.327 . S
C462 H487 0.950 . S
C463 C462 1.349 . S
C463 C479 1.349 . S
C464 C462 1.327 . S
C464 C483 1.429 . S
C464 H488 0.950 . S
C465 C482 1.574 . S
C465 C484 1.368 . S
C465 H489 0.949 . S
H466 C470 0.949 . S
C467 C468 1.349 . S
C467 C469 1.327 . S
C467 H490 0.950 . S
C468 C467 1.349 . S
C468 C480 1.349 . S
C469 C467 1.327 . S
C469 C485 1.429 . S
C469 H491 0.950 . S
C470 H466 0.949 . S
C470 C478 1.574 . S
C470 C486 1.368 . S
H471 C479 0.950 . S
H472 C477 0.950 . S
H473 C478 0.949 . S
H474 C480 0.950 . S
H475 C481 0.950 . S
H476 C482 0.949 . S
C477 H472 0.950 . S
C477 C479 1.327 . S
C477 C483 1.429 . S
C478 C470 1.574 . S
C478 H473 0.949 . S
C478 C484 1.368 . S
C479 C463 1.349 . S
C479 H471 0.950 . S
C479 C477 1.327 . S
C480 C468 1.349 . S
C480 H474 0.950 . S
C480 C481 1.327 . S
C481 H475 0.950 . S
C481 C480 1.327 . S
C481 C485 1.429 . S
C482 C465 1.574 . S
C482 H476 0.949 . S
C482 C486 1.368 . S
C483 C464 1.429 . S
C483 C477 1.429 . S
C483 C484 1.523 . S
C484 C465 1.368 . S
C484 C478 1.368 . S
C484 C483 1.523 . S
C485 C469 1.429 . S
C485 C481 1.429 . S
C485 C486 1.523 . S
C486 C470 1.368 . S
C486 C482 1.368 . S
C486 C485 1.523 . S
H487 C462 0.950 . S
H488 C464 0.950 . S
H489 C465 0.949 . S
H490 C467 0.950 . S
H491 C469 0.950 . S
C492 C493 1.349 . S
C492 C494 1.327 . S
C492 H517 0.950 . S
C493 C492 1.349 . S
C493 C509 1.349 . S
C494 C492 1.327 . S
C494 C513 1.429 . S
C494 H518 0.950 . S
C495 C512 1.574 . S
C495 C514 1.368 . S
C495 H519 0.949 . S
H496 C500 0.949 . S
C497 C498 1.349 . S
C497 C499 1.327 . S
C497 H520 0.950 . S
C498 C497 1.349 . S
C498 C510 1.349 . S
C499 C497 1.327 . S
C499 C515 1.429 . S
C499 H521 0.950 . S
C500 H496 0.949 . S
C500 C508 1.574 . S
C500 C516 1.368 . S
H501 C509 0.950 . S
H502 C507 0.950 . S
H503 C508 0.949 . S
H504 C510 0.950 . S
H505 C511 0.950 . S
H506 C512 0.949 . S
C507 H502 0.950 . S
C507 C509 1.327 . S
C507 C513 1.429 . S
C508 C500 1.574 . S
C508 H503 0.949 . S
C508 C514 1.368 . S
C509 C493 1.349 . S
C509 H501 0.950 . S
C509 C507 1.327 . S
C510 C498 1.349 . S
C510 H504 0.950 . S
C510 C511 1.327 . S
C511 H505 0.950 . S
C511 C510 1.327 . S
C511 C515 1.429 . S
C512 C495 1.574 . S
C512 H506 0.949 . S
C512 C516 1.368 . S
C513 C494 1.429 . S
C513 C507 1.429 . S
C513 C514 1.523 . S
C514 C495 1.368 . S
C514 C508 1.368 . S
C514 C513 1.523 . S
C515 C499 1.429 . S
C515 C511 1.429 . S
C515 C516 1.523 . S
C516 C500 1.368 . S
C516 C512 1.368 . S
C516 C515 1.523 . S
H517 C492 0.950 . S
H518 C494 0.950 . S
H519 C495 0.949 . S
H520 C497 0.950 . S
H521 C499 0.950 . S
C522 C523 1.349 . S
C522 C524 1.327 . S
C522 H547 0.950 . S
C523 C522 1.349 . S
C523 C539 1.349 . S
C524 C522 1.327 . S
C524 C543 1.429 . S
C524 H548 0.950 . S
C525 C542 1.574 . S
C525 C544 1.368 . S
C525 H549 0.949 . S
H526 C530 0.949 . S
C527 C528 1.349 . S
C527 C529 1.327 . S
C527 H550 0.950 . S
C528 C527 1.349 . S
C528 C540 1.349 . S
C529 C527 1.327 . S
C529 C545 1.429 . S
C529 H551 0.950 . S
C530 H526 0.949 . S
C530 C538 1.574 . S
C530 C546 1.368 . S
H531 C539 0.950 . S
H532 C537 0.950 . S
H533 C538 0.949 . S
H534 C540 0.950 . S
H535 C541 0.950 . S
H536 C542 0.949 . S
C537 H532 0.950 . S
C537 C539 1.327 . S
C537 C543 1.429 . S
C538 C530 1.574 . S
C538 H533 0.949 . S
C538 C544 1.368 . S
C539 C523 1.349 . S
C539 H531 0.950 . S
C539 C537 1.327 . S
C540 C528 1.349 . S
C540 H534 0.950 . S
C540 C541 1.327 . S
C541 H535 0.950 . S
C541 C540 1.327 . S
C541 C545 1.429 . S
C542 C525 1.574 . S
C542 H536 0.949 . S
C542 C546 1.368 . S
C543 C524 1.429 . S
C543 C537 1.429 . S
C543 C544 1.523 . S
C544 C525 1.368 . S
C544 C538 1.368 . S
C544 C543 1.523 . S
C545 C529 1.429 . S
C545 C541 1.429 . S
C545 C546 1.523 . S
C546 C530 1.368 . S
C546 C542 1.368 . S
C546 C545 1.523 . S
H547 C522 0.950 . S
H548 C524 0.950 . S
H549 C525 0.949 . S
H550 C527 0.950 . S
H551 C529 0.950 . S
C552 C553 1.349 . S
C552 C554 1.327 . S
C552 H577 0.950 . S
C553 C552 1.349 . S
C553 C569 1.349 . S
C554 C552 1.327 . S
C554 C573 1.429 . S
C554 H578 0.950 . S
C555 C572 1.574 . S
C555 C574 1.368 . S
C555 H579 0.949 . S
H556 C560 0.949 . S
C557 C558 1.349 . S
C557 C559 1.327 . S
C557 H580 0.950 . S
C558 C557 1.349 . S
C558 C570 1.349 . S
C559 C557 1.327 . S
C559 C575 1.429 . S
C559 H581 0.950 . S
C560 H556 0.949 . S
C560 C568 1.574 . S
C560 C576 1.368 . S
H561 C569 0.950 . S
H562 C567 0.950 . S
H563 C568 0.949 . S
H564 C570 0.950 . S
H565 C571 0.950 . S
H566 C572 0.949 . S
C567 H562 0.950 . S
C567 C569 1.327 . S
C567 C573 1.429 . S
C568 C560 1.574 . S
C568 H563 0.949 . S
C568 C574 1.368 . S
C569 C553 1.349 . S
C569 H561 0.950 . S
C569 C567 1.327 . S
C570 C558 1.349 . S
C570 H564 0.950 . S
C570 C571 1.327 . S
C571 H565 0.950 . S
C571 C570 1.327 . S
C571 C575 1.429 . S
C572 C555 1.574 . S
C572 H566 0.949 . S
C572 C576 1.368 . S
C573 C554 1.429 . S
C573 C567 1.429 . S
C573 C574 1.523 . S
C574 C555 1.368 . S
C574 C568 1.368 . S
C574 C573 1.523 . S
C575 C559 1.429 . S
C575 C571 1.429 . S
C575 C576 1.523 . S
C576 C560 1.368 . S
C576 C572 1.368 . S
C576 C575 1.523 . S
H577 C552 0.950 . S
H578 C554 0.950 . S
H579 C555 0.949 . S
H580 C557 0.950 . S
H581 C559 0.950 . S
C582 C583 1.349 . S
C582 C584 1.327 . S
C582 H607 0.950 . S
C583 C582 1.349 . S
C583 C599 1.349 . S
C584 C582 1.327 . S
C584 C603 1.429 . S
C584 H608 0.950 . S
C585 C602 1.574 . S
C585 C604 1.368 . S
C585 H609 0.949 . S
H586 C590 0.949 . S
C587 C588 1.349 . S
C587 C589 1.327 . S
C587 H610 0.950 . S
C588 C587 1.349 . S
C588 C600 1.349 . S
C589 C587 1.327 . S
C589 C605 1.429 . S
C589 H611 0.950 . S
C590 H586 0.949 . S
C590 C598 1.574 . S
C590 C606 1.368 . S
H591 C599 0.950 . S
H592 C597 0.950 . S
H593 C598 0.949 . S
H594 C600 0.950 . S
H595 C601 0.950 . S
H596 C602 0.949 . S
C597 H592 0.950 . S
C597 C599 1.327 . S
C597 C603 1.429 . S
C598 C590 1.574 . S
C598 H593 0.949 . S
C598 C604 1.368 . S
C599 C583 1.349 . S
C599 H591 0.950 . S
C599 C597 1.327 . S
C600 C588 1.349 . S
C600 H594 0.950 . S
C600 C601 1.327 . S
C601 H595 0.950 . S
C601 C600 1.327 . S
C601 C605 1.429 . S
C602 C585 1.574 . S
C602 H596 0.949 . S
C602 C606 1.368 . S
C603 C584 1.429 . S
C603 C597 1.429 . S
C603 C604 1.523 . S
C604 C585 1.368 . S
C604 C598 1.368 . S
C604 C603 1.523 . S
C605 C589 1.429 . S
C605 C601 1.429 . S
C605 C606 1.523 . S
C606 C590 1.368 . S
C606 C602 1.368 . S
C606 C605 1.523 . S
H607 C582 0.950 . S
H608 C584 0.950 . S
H609 C585 0.949 . S
H610 C587 0.950 . S
H611 C589 0.950 . S
C612 C613 1.349 . S
C612 C614 1.327 . S
C612 H637 0.950 . S
C613 C612 1.349 . S
C613 C629 1.349 . S
C614 C612 1.327 . S
C614 C633 1.429 . S
C614 H638 0.950 . S
C615 C632 1.574 . S
C615 C634 1.368 . S
C615 H639 0.949 . S
H616 C620 0.949 . S
C617 C618 1.349 . S
C617 C619 1.327 . S
C617 H640 0.950 . S
C618 C617 1.349 . S
C618 C630 1.349 . S
C619 C617 1.327 . S
C619 C635 1.429 . S
C619 H641 0.950 . S
C620 H616 0.949 . S
C620 C628 1.574 . S
C620 C636 1.368 . S
H621 C629 0.950 . S
H622 C627 0.950 . S
H623 C628 0.949 . S
H624 C630 0.950 . S
H625 C631 0.950 . S
H626 C632 0.949 . S
C627 H622 0.950 . S
C627 C629 1.327 . S
C627 C633 1.429 . S
C628 C620 1.574 . S
C628 H623 0.949 . S
C628 C634 1.368 . S
C629 C613 1.349 . S
C629 H621 0.950 . S
C629 C627 1.327 . S
C630 C618 1.349 . S
C630 H624 0.950 . S
C630 C631 1.327 . S
C631 H625 0.950 . S
C631 C630 1.327 . S
C631 C635 1.429 . S
C632 C615 1.574 . S
C632 H626 0.949 . S
C632 C636 1.368 . S
C633 C614 1.429 . S
C633 C627 1.429 . S
C633 C634 1.523 . S
C634 C615 1.368 . S
C634 C628 1.368 . S
C634 C633 1.523 . S
C635 C619 1.429 . S
C635 C631 1.429 . S
C635 C636 1.523 . S
C636 C620 1.368 . S
C636 C632 1.368 . S
C636 C635 1.523 . S
H637 C612 0.950 . S
H638 C614 0.950 . S
H639 C615 0.949 . S
H640 C617 0.950 . S
H641 C619 0.950 . S
C642 C643 1.349 . S
C642 C644 1.327 . S
C642 H667 0.950 . S
C643 C642 1.349 . S
C643 C659 1.349 . S
C644 C642 1.327 . S
C644 C663 1.429 . S
C644 H668 0.950 . S
C645 C662 1.574 . S
C645 C664 1.368 . S
C645 H669 0.949 . S
H646 C650 0.949 . S
C647 C648 1.349 . S
C647 C649 1.327 . S
C647 H670 0.950 . S
C648 C647 1.349 . S
C648 C660 1.349 . S
C649 C647 1.327 . S
C649 C665 1.429 . S
C649 H671 0.950 . S
C650 H646 0.949 . S
C650 C658 1.574 . S
C650 C666 1.368 . S
H651 C659 0.950 . S
H652 C657 0.950 . S
H653 C658 0.949 . S
H654 C660 0.950 . S
H655 C661 0.950 . S
H656 C662 0.949 . S
C657 H652 0.950 . S
C657 C659 1.327 . S
C657 C663 1.429 . S
C658 C650 1.574 . S
C658 H653 0.949 . S
C658 C664 1.368 . S
C659 C643 1.349 . S
C659 H651 0.950 . S
C659 C657 1.327 . S
C660 C648 1.349 . S
C660 H654 0.950 . S
C660 C661 1.327 . S
C661 H655 0.950 . S
C661 C660 1.327 . S
C661 C665 1.429 . S
C662 C645 1.574 . S
C662 H656 0.949 . S
C662 C666 1.368 . S
C663 C644 1.429 . S
C663 C657 1.429 . S
C663 C664 1.523 . S
C664 C645 1.368 . S
C664 C658 1.368 . S
C664 C663 1.523 . S
C665 C649 1.429 . S
C665 C661 1.429 . S
C665 C666 1.523 . S
C666 C650 1.368 . S
C666 C662 1.368 . S
C666 C665 1.523 . S
H667 C642 0.950 . S
H668 C644 0.950 . S
H669 C645 0.949 . S
H670 C647 0.950 . S
H671 C649 0.950 . S
C672 C673 1.349 . S
C672 C674 1.327 . S
C672 H697 0.950 . S
C673 C672 1.349 . S
C673 C689 1.349 1_554 S
C674 C672 1.327 . S
C674 C693 1.429 . S
C674 H698 0.950 . S
C675 C692 1.574 . S
C675 C694 1.368 1_556 S
C675 H699 0.949 . S
H676 C680 0.949 . S
C677 C678 1.349 1_556 S
C677 C679 1.327 . S
C677 H700 0.950 . S
C678 C677 1.349 1_554 S
C678 C690 1.349 . S
C679 C677 1.327 . S
C679 C695 1.429 1_556 S
C679 H701 0.950 . S
C680 H676 0.949 . S
C680 C688 1.574 . S
C680 C696 1.368 . S
H681 C689 0.950 . S
H682 C687 0.950 . S
H683 C688 0.949 . S
H684 C690 0.950 . S
H685 C691 0.950 . S
H686 C692 0.949 . S
C687 H682 0.950 . S
C687 C689 1.327 . S
C687 C693 1.429 1_556 S
C688 C680 1.574 . S
C688 H683 0.949 . S
C688 C694 1.368 . S
C689 C673 1.349 1_556 S
C689 H681 0.950 . S
C689 C687 1.327 . S
C690 C678 1.349 . S
C690 H684 0.950 . S
C690 C691 1.327 . S
C691 H685 0.950 . S
C691 C690 1.327 . S
C691 C695 1.429 . S
C692 C675 1.574 . S
C692 H686 0.949 . S
C692 C696 1.368 1_556 S
C693 C674 1.429 . S
C693 C687 1.429 1_554 S
C693 C694 1.523 . S
C694 C675 1.368 1_554 S
C694 C688 1.368 . S
C694 C693 1.523 . S
C695 C679 1.429 1_554 S
C695 C691 1.429 . S
C695 C696 1.523 . S
C696 C680 1.368 . S
C696 C692 1.368 1_554 S
C696 C695 1.523 . S
H697 C672 0.950 . S
H698 C674 0.950 . S
H699 C675 0.949 . S
H700 C677 0.950 . S
H701 C679 0.950 . S
C702 C703 1.349 . S
C702 C704 1.327 . S
C702 H727 0.950 . S
C703 C702 1.349 . S
C703 C719 1.349 . S
C704 C702 1.327 . S
C704 C723 1.429 . S
C704 H728 0.950 . S
C705 C722 1.574 . S
C705 C724 1.368 . S
C705 H729 0.949 . S
H706 C710 0.949 . S
C707 C708 1.349 . S
C707 C709 1.327 . S
C707 H730 0.950 . S
C708 C707 1.349 . S
C708 C720 1.349 . S
C709 C707 1.327 . S
C709 C725 1.429 . S
C709 H731 0.950 . S
C710 H706 0.949 . S
C710 C718 1.574 . S
C710 C726 1.368 . S
H711 C719 0.950 . S
H712 C717 0.950 . S
H713 C718 0.949 . S
H714 C720 0.950 . S
H715 C721 0.950 . S
H716 C722 0.949 . S
C717 H712 0.950 . S
C717 C719 1.327 . S
C717 C723 1.429 . S
C718 C710 1.574 . S
C718 H713 0.949 . S
C718 C724 1.368 . S
C719 C703 1.349 . S
C719 H711 0.950 . S
C719 C717 1.327 . S
C720 C708 1.349 . S
C720 H714 0.950 . S
C720 C721 1.327 . S
C721 H715 0.950 . S
C721 C720 1.327 . S
C721 C725 1.429 . S
C722 C705 1.574 . S
C722 H716 0.949 . S
C722 C726 1.368 . S
C723 C704 1.429 . S
C723 C717 1.429 . S
C723 C724 1.523 . S
C724 C705 1.368 . S
C724 C718 1.368 . S
C724 C723 1.523 . S
C725 C709 1.429 . S
C725 C721 1.429 . S
C725 C726 1.523 . S
C726 C710 1.368 . S
C726 C722 1.368 . S
C726 C725 1.523 . S
H727 C702 0.950 . S
H728 C704 0.950 . S
H729 C705 0.949 . S
H730 C707 0.950 . S
H731 C709 0.950 . S
C732 C733 1.349 . S
C732 C734 1.327 . S
C732 H757 0.950 . S
C733 C732 1.349 . S
C733 C749 1.349 1_554 S
C734 C732 1.327 . S
C734 C753 1.429 . S
C734 H758 0.950 . S
C735 C752 1.574 . S
C735 C754 1.368 1_556 S
C735 H759 0.949 . S
H736 C740 0.949 . S
C737 C738 1.349 1_556 S
C737 C739 1.327 . S
C737 H760 0.950 . S
C738 C737 1.349 1_554 S
C738 C750 1.349 . S
C739 C737 1.327 . S
C739 C755 1.429 1_556 S
C739 H761 0.950 . S
C740 H736 0.949 . S
C740 C748 1.574 . S
C740 C756 1.368 . S
H741 C749 0.950 . S
H742 C747 0.950 . S
H743 C748 0.949 . S
H744 C750 0.950 . S
H745 C751 0.950 . S
H746 C752 0.949 . S
C747 H742 0.950 . S
C747 C749 1.327 . S
C747 C753 1.429 1_556 S
C748 C740 1.574 . S
C748 H743 0.949 . S
C748 C754 1.368 . S
C749 C733 1.349 1_556 S
C749 H741 0.950 . S
C749 C747 1.327 . S
C750 C738 1.349 . S
C750 H744 0.950 . S
C750 C751 1.327 . S
C751 H745 0.950 . S
C751 C750 1.327 . S
C751 C755 1.429 . S
C752 C735 1.574 . S
C752 H746 0.949 . S
C752 C756 1.368 1_556 S
C753 C734 1.429 . S
C753 C747 1.429 1_554 S
C753 C754 1.523 . S
C754 C735 1.368 1_554 S
C754 C748 1.368 . S
C754 C753 1.523 . S
C755 C739 1.429 1_554 S
C755 C751 1.429 . S
C755 C756 1.523 . S
C756 C740 1.368 . S
C756 C752 1.368 1_554 S
C756 C755 1.523 . S
H757 C732 0.950 . S
H758 C734 0.950 . S
H759 C735 0.949 . S
H760 C737 0.950 . S
H761 C739 0.950 . S
C762 C763 1.349 . S
C762 C764 1.327 . S
C762 H787 0.950 . S
C763 C762 1.349 . S
C763 C779 1.349 . S
C764 C762 1.327 . S
C764 C783 1.429 . S
C764 H788 0.950 . S
C765 C782 1.574 . S
C765 C784 1.368 . S
C765 H789 0.949 . S
H766 C770 0.949 . S
C767 C768 1.349 . S
C767 C769 1.327 . S
C767 H790 0.950 . S
C768 C767 1.349 . S
C768 C780 1.349 . S
C769 C767 1.327 . S
C769 C785 1.429 . S
C769 H791 0.950 . S
C770 H766 0.949 . S
C770 C778 1.574 . S
C770 C786 1.368 . S
H771 C779 0.950 . S
H772 C777 0.950 . S
H773 C778 0.949 . S
H774 C780 0.950 . S
H775 C781 0.950 . S
H776 C782 0.949 . S
C777 H772 0.950 . S
C777 C779 1.327 . S
C777 C783 1.429 . S
C778 C770 1.574 . S
C778 H773 0.949 . S
C778 C784 1.368 . S
C779 C763 1.349 . S
C779 H771 0.950 . S
C779 C777 1.327 . S
C780 C768 1.349 . S
C780 H774 0.950 . S
C780 C781 1.327 . S
C781 H775 0.950 . S
C781 C780 1.327 . S
C781 C785 1.429 . S
C782 C765 1.574 . S
C782 H776 0.949 . S
C782 C786 1.368 . S
C783 C764 1.429 . S
C783 C777 1.429 . S
C783 C784 1.523 . S
C784 C765 1.368 . S
C784 C778 1.368 . S
C784 C783 1.523 . S
C785 C769 1.429 . S
C785 C781 1.429 . S
C785 C786 1.523 . S
C786 C770 1.368 . S
C786 C782 1.368 . S
C786 C785 1.523 . S
H787 C762 0.950 . S
H788 C764 0.950 . S
H789 C765 0.949 . S
H790 C767 0.950 . S
H791 C769 0.950 . S
C792 C793 1.349 . S
C792 C794 1.327 . S
C792 H817 0.950 . S
C793 C792 1.349 . S
C793 C809 1.349 . S
C794 C792 1.327 . S
C794 C813 1.429 . S
C794 H818 0.950 . S
C795 C812 1.574 . S
C795 C814 1.368 . S
C795 H819 0.949 . S
H796 C800 0.949 . S
C797 C798 1.349 . S
C797 C799 1.327 . S
C797 H820 0.950 . S
C798 C797 1.349 . S
C798 C810 1.349 . S
C799 C797 1.327 . S
C799 C815 1.429 . S
C799 H821 0.950 . S
C800 H796 0.949 . S
C800 C808 1.574 . S
C800 C816 1.368 . S
H801 C809 0.950 . S
H802 C807 0.950 . S
H803 C808 0.949 . S
H804 C810 0.950 . S
H805 C811 0.950 . S
H806 C812 0.949 . S
C807 H802 0.950 . S
C807 C809 1.327 . S
C807 C813 1.429 . S
C808 C800 1.574 . S
C808 H803 0.949 . S
C808 C814 1.368 . S
C809 C793 1.349 . S
C809 H801 0.950 . S
C809 C807 1.327 . S
C810 C798 1.349 . S
C810 H804 0.950 . S
C810 C811 1.327 . S
C811 H805 0.950 . S
C811 C810 1.327 . S
C811 C815 1.429 . S
C812 C795 1.574 . S
C812 H806 0.949 . S
C812 C816 1.368 . S
C813 C794 1.429 . S
C813 C807 1.429 . S
C813 C814 1.523 . S
C814 C795 1.368 . S
C814 C808 1.368 . S
C814 C813 1.523 . S
C815 C799 1.429 . S
C815 C811 1.429 . S
C815 C816 1.523 . S
C816 C800 1.368 . S
C816 C812 1.368 . S
C816 C815 1.523 . S
H817 C792 0.950 . S
H818 C794 0.950 . S
H819 C795 0.949 . S
H820 C797 0.950 . S
H821 C799 0.950 . S
C822 C823 1.349 . S
C822 C824 1.327 . S
C822 H847 0.950 . S
C823 C822 1.349 . S
C823 C839 1.349 1_554 S
C824 C822 1.327 . S
C824 C843 1.429 . S
C824 H848 0.950 . S
C825 C842 1.574 . S
C825 C844 1.368 1_556 S
C825 H849 0.949 . S
H826 C830 0.949 . S
C827 C828 1.349 1_556 S
C827 C829 1.327 . S
C827 H850 0.950 . S
C828 C827 1.349 1_554 S
C828 C840 1.349 . S
C829 C827 1.327 . S
C829 C845 1.429 1_556 S
C829 H851 0.950 . S
C830 H826 0.949 . S
C830 C838 1.574 . S
C830 C846 1.368 . S
H831 C839 0.950 . S
H832 C837 0.950 . S
H833 C838 0.949 . S
H834 C840 0.950 . S
H835 C841 0.950 . S
H836 C842 0.949 . S
C837 H832 0.950 . S
C837 C839 1.327 . S
C837 C843 1.429 1_556 S
C838 C830 1.574 . S
C838 H833 0.949 . S
C838 C844 1.368 . S
C839 C823 1.349 1_556 S
C839 H831 0.950 . S
C839 C837 1.327 . S
C840 C828 1.349 . S
C840 H834 0.950 . S
C840 C841 1.327 . S
C841 H835 0.950 . S
C841 C840 1.327 . S
C841 C845 1.429 . S
C842 C825 1.574 . S
C842 H836 0.949 . S
C842 C846 1.368 1_556 S
C843 C824 1.429 . S
C843 C837 1.429 1_554 S
C843 C844 1.523 . S
C844 C825 1.368 1_554 S
C844 C838 1.368 . S
C844 C843 1.523 . S
C845 C829 1.429 1_554 S
C845 C841 1.429 . S
C845 C846 1.523 . S
C846 C830 1.368 . S
C846 C842 1.368 1_554 S
C846 C845 1.523 . S
H847 C822 0.950 . S
H848 C824 0.950 . S
H849 C825 0.949 . S
H850 C827 0.950 . S
H851 C829 0.950 . S
C852 C853 1.349 . S
C852 C854 1.327 . S
C852 H877 0.950 . S
C853 C852 1.349 . S
C853 C869 1.349 . S
C854 C852 1.327 . S
C854 C873 1.429 . S
C854 H878 0.950 . S
C855 C872 1.574 . S
C855 C874 1.368 . S
C855 H879 0.949 . S
H856 C860 0.949 . S
C857 C858 1.349 . S
C857 C859 1.327 . S
C857 H880 0.950 . S
C858 C857 1.349 . S
C858 C870 1.349 . S
C859 C857 1.327 . S
C859 C875 1.429 . S
C859 H881 0.950 . S
C860 H856 0.949 . S
C860 C868 1.574 . S
C860 C876 1.368 . S
H861 C869 0.950 . S
H862 C867 0.950 . S
H863 C868 0.949 . S
H864 C870 0.950 . S
H865 C871 0.950 . S
H866 C872 0.949 . S
C867 H862 0.950 . S
C867 C869 1.327 . S
C867 C873 1.429 . S
C868 C860 1.574 . S
C868 H863 0.949 . S
C868 C874 1.368 . S
C869 C853 1.349 . S
C869 H861 0.950 . S
C869 C867 1.327 . S
C870 C858 1.349 . S
C870 H864 0.950 . S
C870 C871 1.327 . S
C871 H865 0.950 . S
C871 C870 1.327 . S
C871 C875 1.429 . S
C872 C855 1.574 . S
C872 H866 0.949 . S
C872 C876 1.368 . S
C873 C854 1.429 . S
C873 C867 1.429 . S
C873 C874 1.523 . S
C874 C855 1.368 . S
C874 C868 1.368 . S
C874 C873 1.523 . S
C875 C859 1.429 . S
C875 C871 1.429 . S
C875 C876 1.523 . S
C876 C860 1.368 . S
C876 C872 1.368 . S
C876 C875 1.523 . S
H877 C852 0.950 . S
H878 C854 0.950 . S
H879 C855 0.949 . S
H880 C857 0.950 . S
H881 C859 0.950 . S
C882 C883 1.349 1_556 S
C882 C884 1.327 . S
C882 H907 0.950 . S
C883 C882 1.349 1_554 S
C883 C899 1.349 . S
C884 C882 1.327 . S
C884 C903 1.429 1_556 S
C884 H908 0.950 . S
C885 C902 1.574 . S
C885 C904 1.368 . S
C885 H909 0.949 . S
H886 C890 0.949 . S
C887 C888 1.349 . S
C887 C889 1.327 . S
C887 H910 0.950 . S
C888 C887 1.349 . S
C888 C900 1.349 1_554 S
C889 C887 1.327 . S
C889 C905 1.429 . S
C889 H911 0.950 . S
C890 H886 0.949 . S
C890 C898 1.574 . S
C890 C906 1.368 1_556 S
H891 C899 0.950 . S
H892 C897 0.950 . S
H893 C898 0.949 . S
H894 C900 0.950 . S
H895 C901 0.950 . S
H896 C902 0.949 . S
C897 H892 0.950 . S
C897 C899 1.327 . S
C897 C903 1.429 . S
C898 C890 1.574 . S
C898 H893 0.949 . S
C898 C904 1.368 1_556 S
C899 C883 1.349 . S
C899 H891 0.950 . S
C899 C897 1.327 . S
C900 C888 1.349 1_556 S
C900 H894 0.950 . S
C900 C901 1.327 . S
C901 H895 0.950 . S
C901 C900 1.327 . S
C901 C905 1.429 1_556 S
C902 C885 1.574 . S
C902 H896 0.949 . S
C902 C906 1.368 . S
C903 C884 1.429 1_554 S
C903 C897 1.429 . S
C903 C904 1.523 . S
C904 C885 1.368 . S
C904 C898 1.368 1_554 S
C904 C903 1.523 . S
C905 C889 1.429 . S
C905 C901 1.429 1_554 S
C905 C906 1.523 . S
C906 C890 1.368 1_554 S
C906 C902 1.368 . S
C906 C905 1.523 . S
H907 C882 0.950 . S
H908 C884 0.950 . S
H909 C885 0.949 . S
H910 C887 0.950 . S
H911 C889 0.950 . S
C193 C21 1.495 . S
C198 C135 1.501 . S
C223 C40 1.509 . S
C228 C97 1.481 . S
C258 C110 1.434 . S
C253 C54 1.455 . S
C283 C73 1.506 . S
C288 C122 1.510 . S
C318 C162 1.443 . S
C313 C74 1.464 . S
C348 C174 1.480 . S
C343 C10 1.488 . S
C378 C187 1.491 . S
C373 C37 1.484 . S
C408 C149 1.510 . S
C403 C65 1.526 . S
C433 C52 1.441 . S
C438 C109 1.437 . S
C463 C87 1.536 . S
C468 C123 1.520 . S
C493 C15 1.506 . S
C498 C136 1.496 . S
C528 C96 1.465 . S
C523 C32 1.475 . S
C553 C29 1.517 . S
C558 C188 1.505 . S
C588 C148 1.514 . S
C583 C59 1.515 . S
C618 C161 1.429 . S
C613 C84 1.432 . S
C643 C8 1.496 . S
C648 C175 1.471 . S
C678 C92 1.472 1_554 S
C673 C7 1.537 . S
C708 C105 1.446 . S
C703 C30 1.485 . S
C733 C62 1.542 . S
C738 C118 1.503 . S
C763 C81 1.507 . S
C768 C131 1.461 . S
C798 C144 1.468 . S
C793 C76 1.541 . S
C823 C18 1.485 . S
C828 C157 1.446 . S
C853 C43 1.538 . S
C858 C170 1.508 . S
C883 C51 1.507 . S
C888 C183 1.461 . S
