# Generated by pormake.
# Topology ssa, (4,4)-cn, num edge types: 1
# Building blocks:
#     Node 0, Type 0, BuildingBlock: ESEHIV_clean_sbu_0, # of connection points: 4
#     Node 1, Type 0, BuildingBlock: ESEHIV_clean_sbu_0, # of connection points: 4
#     Node 2, Type 0, BuildingBlock: ESEHIV_clean_sbu_0, # of connection points: 4
#     Node 3, Type 0, BuildingBlock: ESEHIV_clean_sbu_0, # of connection points: 4
#     Node 4, Type 0, BuildingBlock: ESEHIV_clean_sbu_0, # of connection points: 4
#     Node 5, Type 0, BuildingBlock: ESEHIV_clean_sbu_0, # of connection points: 4
#     Node 6, Type 1, BuildingBlock: NAWXER_clean_linker_0, # of connection points: 4
#     Node 7, Type 1, BuildingBlock: NAWXER_clean_linker_0, # of connection points: 4
#     Node 8, Type 1, BuildingBlock: NAWXER_clean_linker_0, # of connection points: 4
#     Node 9, Type 1, BuildingBlock: NAWXER_clean_linker_0, # of connection points: 4
#     Node 10, Type 1, BuildingBlock: NAWXER_clean_linker_0, # of connection points: 4
#     Node 11, Type 1, BuildingBlock: NAWXER_clean_linker_0, # of connection points: 4
#     Edge 12, Type (0, 1), BuildingBlock: EZIPEK_clean_linker_0, # of connection points: 2
#     Edge 13, Type (0, 1), BuildingBlock: EZIPEK_clean_linker_0, # of connection points: 2
#     Edge 14, Type (0, 1), BuildingBlock: EZIPEK_clean_linker_0, # of connection points: 2
#     Edge 15, Type (0, 1), BuildingBlock: EZIPEK_clean_linker_0, # of connection points: 2
#     Edge 16, Type (0, 1), BuildingBlock: EZIPEK_clean_linker_0, # of connection points: 2
#     Edge 17, Type (0, 1), BuildingBlock: EZIPEK_clean_linker_0, # of connection points: 2
#     Edge 18, Type (0, 1), BuildingBlock: EZIPEK_clean_linker_0, # of connection points: 2
#     Edge 19, Type (0, 1), BuildingBlock: EZIPEK_clean_linker_0, # of connection points: 2
#     Edge 20, Type (0, 1), BuildingBlock: EZIPEK_clean_linker_0, # of connection points: 2
#     Edge 21, Type (0, 1), BuildingBlock: EZIPEK_clean_linker_0, # of connection points: 2
#     Edge 22, Type (0, 1), BuildingBlock: EZIPEK_clean_linker_0, # of connection points: 2
#     Edge 23, Type (0, 1), BuildingBlock: EZIPEK_clean_linker_0, # of connection points: 2
#     Edge 24, Type (0, 1), BuildingBlock: EZIPEK_clean_linker_0, # of connection points: 2
#     Edge 25, Type (0, 1), BuildingBlock: EZIPEK_clean_linker_0, # of connection points: 2
#     Edge 26, Type (0, 1), BuildingBlock: EZIPEK_clean_linker_0, # of connection points: 2
#     Edge 27, Type (0, 1), BuildingBlock: EZIPEK_clean_linker_0, # of connection points: 2
#     Edge 28, Type (0, 1), BuildingBlock: EZIPEK_clean_linker_0, # of connection points: 2
#     Edge 29, Type (0, 1), BuildingBlock: EZIPEK_clean_linker_0, # of connection points: 2
#     Edge 30, Type (0, 1), BuildingBlock: EZIPEK_clean_linker_0, # of connection points: 2
#     Edge 31, Type (0, 1), BuildingBlock: EZIPEK_clean_linker_0, # of connection points: 2
#     Edge 32, Type (0, 1), BuildingBlock: EZIPEK_clean_linker_0, # of connection points: 2
#     Edge 33, Type (0, 1), BuildingBlock: EZIPEK_clean_linker_0, # of connection points: 2
#     Edge 34, Type (0, 1), BuildingBlock: EZIPEK_clean_linker_0, # of connection points: 2
#     Edge 35, Type (0, 1), BuildingBlock: EZIPEK_clean_linker_0, # of connection points: 2
# Relax obj value: 0.011
# Max RMSD: 0.108
# Mean RMSD: 0.056
data_MOF--net-ssa--node1-ESEHIV_clean_sbu_0--node2-NAWXER_clean_linker_0--edge1-EZIPEK_clean_linker_0
_symmetry_space_group_name_H-M    P1
_symmetry_Int_Tables_number       1
_symmetry_cell_setting            triclinic
loop_
_symmetry_equiv_pos_as_xyz
'x, y, z'
_cell_length_a     45.313164
_cell_length_b     48.720739
_cell_length_c     32.884485
_cell_angle_alpha  87.80826
_cell_angle_beta   91.094277
_cell_angle_gamma 122.35538
loop_
_atom_site_label
_atom_site_type_symbol
_atom_site_fract_x
_atom_site_fract_y
_atom_site_fract_z
_atom_type_partial_charge
Cu0 Cu 0.98084 0.49225 0.03258 0.0
N1 N 0.9428 0.44949 0.03295 0.0
N2 N 0.89549 0.4039 0.00979 0.0
C3 C 0.9185 0.43632 1.00353 0.0
C4 C 0.90807 0.39666 0.04362 0.0
C5 C 0.93651 0.4247 0.05814 0.0
O6 O 0.97663 0.51106 0.97998 0.0
C7 C 0.05468 0.51148 0.03938 0.0
O8 O 0.06328 0.53529 0.01258 0.0
H9 H 0.91982 0.45018 0.97647 0.0
H10 H 0.95287 0.42657 0.08362 0.0
N11 N 0.97706 0.5141 0.0754 0.0
N12 N 0.99566 0.55157 0.12243 0.0
C13 C 1.00493 0.53852 0.09394 0.0
C14 C 0.94893 0.51129 0.0931 0.0
C15 C 0.96045 0.53479 0.1221 0.0
C16 C 0.96932 0.53307 0.97798 0.0
O17 O 0.9739 0.54991 0.01027 0.0
H18 H 0.03165 0.54727 0.08593 0.0
H19 H 0.92211 0.49394 0.08493 0.0
O20 O 0.02246 0.49082 0.04685 0.0
H21 H 0.89964 0.37267 0.05579 0.0
H22 H 0.94443 0.53952 0.14095 0.0
Cu23 Cu 0.51591 1.00258 0.49946 0.0
N24 N 0.54017 1.00284 0.45338 0.0
N25 N 0.55938 0.9824 0.4085 0.0
C26 C 0.54609 0.97912 0.44599 0.0
C27 C 0.56246 0.0095 0.39163 0.0
C28 C 0.55057 0.02209 0.41942 0.0
O29 O 0.47136 0.96107 0.4979 0.0
C30 C 0.57657 0.02957 0.54544 0.0
O31 O 0.59074 0.04166 0.50954 0.0
H32 H 0.53963 0.95914 0.46719 0.0
H33 H 0.54839 0.043 0.41453 0.0
N34 N 0.50758 0.03657 0.50113 0.0
N35 N 0.5004 0.07401 0.52886 0.0
C36 C 0.50682 0.05019 0.53586 0.0
C37 C 0.50105 0.05223 0.47114 0.0
C38 C 0.49661 0.07536 0.48818 0.0
C39 C 0.45425 0.9564 0.46491 0.0
O40 O 0.46616 0.97989 0.43698 0.0
H41 H 0.51129 0.04303 0.56577 0.0
H42 H 0.4996 0.04727 0.43916 0.0
O43 O 0.54386 0.0086 0.5479 0.0
H44 H 0.57144 0.01876 0.36094 0.0
H45 H 0.49132 0.09205 0.47202 0.0
Cu46 Cu 0.52378 0.51106 0.01579 0.0
N47 N 0.5186 0.46965 0.01251 0.0
N48 N 0.51646 0.42869 0.98001 0.0
C49 C 0.53225 0.46129 0.98255 0.0
C50 C 0.49223 0.41583 0.00965 0.0
C51 C 0.49334 0.44088 0.02926 0.0
O52 O 0.53999 0.53115 0.96159 0.0
C53 C 0.4702 0.49545 0.07015 0.0
O54 O 0.48561 0.48259 0.08986 0.0
H55 H 0.5514 0.47851 0.96086 0.0
H56 H 0.47433 0.4376 0.05127 0.0
N57 N 0.55601 0.54021 0.05357 0.0
N58 N 0.57908 0.58488 0.0906 0.0
C59 C 0.56361 0.57102 0.05527 0.0
C60 C 0.5673 0.53445 0.08912 0.0
C61 C 0.58152 0.56201 0.11207 0.0
C62 C 0.57249 0.54403 0.95463 0.0
O63 O 0.59289 0.54614 0.98485 0.0
H64 H 0.55488 0.58193 0.03273 0.0
H65 H 0.5627 0.51106 0.09914 0.0
O66 O 0.48061 0.507 0.03402 0.0
H67 H 0.47313 0.39013 0.01447 0.0
H68 H 0.59066 0.56431 0.14315 0.0
Cu69 Cu 1.00029 0.48462 0.54311 0.0
N70 N 0.03324 0.47324 0.53426 0.0
N71 N 0.07058 0.46808 0.49669 0.0
C72 C 0.05802 0.48683 0.505 0.0
C73 C 0.05357 0.44177 0.52194 0.0
C74 C 0.0305 0.44497 0.54505 0.0
O75 O 1.00407 0.51233 0.49546 0.0
C76 C 0.95221 0.43145 0.59125 0.0
O77 O 0.97988 0.44476 0.61483 0.0
H78 H 0.06457 0.50848 0.48731 0.0
H79 H 0.01092 0.4265 0.56539 0.0
N80 N 1.00925 0.51004 0.58828 0.0
N81 N 0.99688 0.53487 0.63427 0.0
C82 C 0.98618 0.51729 0.60058 0.0
C83 C 0.03586 0.52379 0.61503 0.0
C84 C 0.02831 0.53943 0.64358 0.0
C85 C 0.03182 0.54088 0.49454 0.0
O86 O 0.05347 0.54962 0.52543 0.0
H87 H 0.96159 0.50932 0.58538 0.0
H88 H 0.05884 0.52237 0.614 0.0
O89 O 0.95449 0.44453 0.55589 0.0
H90 H 0.0558 0.42074 0.52149 0.0
H91 H 0.04423 0.55262 0.6693 0.0
Cu92 Cu 0.49388 0.99959 0.03391 0.0
N93 N 0.48485 0.03291 0.02726 0.0
N94 N 0.47802 0.07037 0.99518 0.0
C95 C 0.48504 0.04705 0.9912 0.0
C96 C 0.47213 0.07043 0.03524 0.0
C97 C 0.47648 0.04724 0.05506 0.0
O98 O 0.50257 0.98991 0.9791 0.0
C99 C 0.44415 0.93419 0.06711 0.0
O100 O 0.46183 0.92424 0.04814 0.0
H101 H 0.4911 0.04093 0.96252 0.0
H102 H 0.474 0.04143 0.08738 0.0
N103 N 0.53181 0.00954 0.06744 0.0
N104 N 0.56773 1.00002 0.10342 0.0
C105 C 0.54015 0.98767 0.07823 0.0
C106 C 0.55515 0.03696 0.08639 0.0
C107 C 0.5777 0.03117 0.10856 0.0
C108 C 0.52545 0.99758 0.95099 0.0
O109 O 0.51347 0.98179 0.91705 0.0
H110 H 0.52618 0.96299 0.06801 0.0
H111 H 0.55564 0.05941 0.08436 0.0
O112 O 0.4526 0.96364 0.06233 0.0
H113 H 0.46601 0.08658 0.04915 0.0
H114 H 0.59925 0.04816 0.12735 0.0
Cu115 Cu 0.53398 0.51808 0.47515 0.0
N116 N 0.56211 0.5375 0.42944 0.0
N117 N 0.58756 0.57917 0.38437 0.0
C118 C 0.55801 0.55775 0.40454 0.0
C119 C 0.61122 0.57175 0.39617 0.0
C120 C 0.59538 0.5459 0.42413 0.0
O121 O 0.49513 0.52414 0.46315 0.0
C122 C 0.55866 0.53539 0.55909 0.0
O123 O 0.52612 0.52198 0.57097 0.0
H124 H 0.5356 0.56008 0.40569 0.0
H125 H 0.60842 0.53691 0.44305 0.0
N126 N 0.51776 0.47401 0.48055 0.0
N127 N 0.50587 0.42803 0.51251 0.0
C128 C 0.52591 0.46067 0.51185 0.0
C129 C 0.49202 0.44882 0.46022 0.0
C130 C 0.4845 0.42023 0.48009 0.0
C131 C 0.46278 0.50538 0.47159 0.0
O132 O 0.4531 0.48264 0.50028 0.0
H133 H 0.54494 0.47454 0.53491 0.0
H134 H 0.47842 0.45113 0.43423 0.0
O135 O 0.56562 0.53881 0.52119 0.0
H136 H 0.6388 0.58635 0.38893 0.0
H137 H 0.46391 0.39581 0.47264 0.0
C138 C 0.37421 0.53147 0.18053 0.0
C139 C 0.36439 0.50469 0.1563 0.0
C140 C 0.34939 0.53224 0.2044 0.0
C141 C 0.3143 0.50636 0.20409 0.0
C142 C 0.32919 0.47912 0.15552 0.0
C143 C 0.30431 0.48016 0.17881 0.0
C144 C 0.28756 0.50665 0.22893 0.0
C145 C 0.35743 0.49386 0.31997 0.0
C146 C 0.36646 0.5119 0.35555 0.0
C147 C 0.33315 0.49334 0.29221 0.0
C148 C 0.31819 0.51186 0.29846 0.0
C149 C 0.35137 0.53013 0.36204 0.0
C150 C 0.32785 0.5303 0.33382 0.0
C151 C 0.28973 0.50975 0.27179 0.0
C152 C 0.15003 0.46815 0.32939 0.0
C153 C 0.15883 0.49135 0.35909 0.0
C154 C 0.17381 0.47404 0.29848 0.0
C155 C 0.20683 0.50305 0.29717 0.0
C156 C 0.19114 0.52101 0.35644 0.0
C157 C 0.21509 0.52662 0.32608 0.0
C158 C 0.23488 0.50654 0.27098 0.0
C159 C 0.16317 0.51953 0.18518 0.0
C160 C 0.15552 0.50453 0.14738 0.0
C161 C 0.18787 0.51942 0.2116 0.0
C162 C 0.20473 0.50315 0.20178 0.0
C163 C 0.17269 0.48879 0.13712 0.0
C164 C 0.19665 0.48789 0.164 0.0
C165 C 0.23302 0.50426 0.22801 0.0
H166 H 0.40124 0.55145 0.18157 0.0
H167 H 0.35756 0.55294 0.22314 0.0
H168 H 0.32107 0.4582 0.13723 0.0
H169 H 0.27731 0.4601 0.17784 0.0
H170 H 0.36833 0.47927 0.31436 0.0
H171 H 0.32529 0.47742 0.26681 0.0
H172 H 0.35753 0.54402 0.38929 0.0
H173 H 0.31663 0.54452 0.34014 0.0
H174 H 0.12525 0.44509 0.33096 0.0
H175 H 0.1672 0.45525 0.27701 0.0
H176 H 0.19839 0.53922 0.37899 0.0
H177 H 0.2406 0.54896 0.32596 0.0
H178 H 0.15071 0.53223 0.19375 0.0
H179 H 0.19444 0.53315 0.23893 0.0
H180 H 0.16765 0.47727 0.1081 0.0
H181 H 0.20926 0.47548 0.15484 0.0
N182 N 0.25949 0.50412 0.20909 0.0
N183 N 0.26312 0.50949 0.29061 0.0
C184 C 0.84016 0.31035 0.85512 0.0
C185 C 0.8209 0.31675 0.88185 0.0
C186 C 0.82286 0.2859 0.82664 0.0
C187 C 0.78615 0.2676 0.82473 0.0
C188 C 0.78443 0.29955 0.8786 0.0
C189 C 0.76722 0.27511 0.85045 0.0
C190 C 0.76689 0.23755 0.80126 0.0
C191 C 0.81362 0.31638 0.69993 0.0
C192 C 0.84285 0.31876 0.68178 0.0
C193 C 0.79154 0.28991 0.72611 0.0
C194 C 0.79762 0.26477 0.73392 0.0
C195 C 0.84883 0.29351 0.68963 0.0
C196 C 0.82616 0.26659 0.71492 0.0
C197 C 0.77304 0.23576 0.75977 0.0
C198 C 0.64638 0.11153 0.71255 0.0
C199 C 0.66067 0.10237 0.68247 0.0
C200 C 0.66818 0.13535 0.73991 0.0
C201 C 0.70464 0.15017 0.73784 0.0
C202 C 0.69689 0.1161 0.68131 0.0
C203 C 0.71875 0.13998 0.70869 0.0
C204 C 0.72806 0.17901 0.76212 0.0
C205 C 0.67025 0.09612 0.856 0.0
C206 C 0.65229 0.10077 0.88722 0.0
C207 C 0.69297 0.12164 0.82893 0.0
C208 C 0.69697 0.15224 0.83027 0.0
C209 C 0.65422 0.13083 0.88526 0.0
C210 C 0.67679 0.15622 0.85831 0.0
C211 C 0.72268 0.18064 0.804 0.0
H212 H 0.86835 0.32332 0.85746 0.0
H213 H 0.83805 0.28009 0.80787 0.0
H214 H 0.7692 0.30415 0.89906 0.0
H215 H 0.73891 0.2612 0.84979 0.0
H216 H 0.80825 0.33535 0.69432 0.0
H217 H 0.76937 0.28882 0.73983 0.0
H218 H 0.87112 0.29467 0.67616 0.0
H219 H 0.83117 0.24735 0.7201 0.0
H220 H 0.61853 0.10162 0.7133 0.0
H221 H 0.65662 0.14342 0.76115 0.0
H222 H 0.70835 0.10966 0.6578 0.0
H223 H 0.74677 0.15134 0.70617 0.0
H224 H 0.66683 0.07285 0.8512 0.0
H225 H 0.7076 0.11738 0.80716 0.0
H226 H 0.638 0.13519 0.90413 0.0
H227 H 0.67813 0.17908 0.85914 0.0
N228 N 0.74218 0.20997 0.82155 0.0
N229 N 0.75325 0.20653 0.74184 0.0
C230 C 0.62636 0.72022 0.18494 0.0
C231 C 0.60075 0.70316 0.15533 0.0
C232 C 0.62845 0.74643 0.20404 0.0
C233 C 0.60444 0.75568 0.19464 0.0
C234 C 0.57835 0.71386 0.14384 0.0
C235 C 0.58017 0.73986 0.16333 0.0
C236 C 0.60252 0.77966 0.21962 0.0
C237 C 0.56826 0.68924 0.29386 0.0
C238 C 0.59637 0.69379 0.31793 0.0
C239 C 0.56828 0.71605 0.27712 0.0
C240 C 0.59625 0.74774 0.28456 0.0
C241 C 0.62396 0.72552 0.32608 0.0
C242 C 0.62369 0.75234 0.30987 0.0
C243 C 0.59867 0.77582 0.26246 0.0
C244 C 0.55903 0.85744 0.3355 0.0
C245 C 0.58312 0.89115 0.3312 0.0
C246 C 0.56423 0.83555 0.3151 0.0
C247 C 0.59348 0.84697 0.28979 0.0
C248 C 0.61295 0.90251 0.30702 0.0
C249 C 0.61818 0.88066 0.28674 0.0
C250 C 0.5971 0.82389 0.26497 0.0
C251 C 0.62809 0.9069 0.16652 0.0
C252 C 0.59682 0.90644 0.16647 0.0
C253 C 0.62884 0.88025 0.18257 0.0
C254 C 0.59857 0.85331 0.19975 0.0
C255 C 0.56633 0.87893 0.18241 0.0
C256 C 0.56725 0.85266 0.19915 0.0
C257 C 0.60028 0.82738 0.2221 0.0
H258 H 0.64413 0.71266 0.19405 0.0
H259 H 0.6481 0.75877 0.22723 0.0
H260 H 0.55851 0.70122 0.12091 0.0
H261 H 0.56151 0.74657 0.15528 0.0
H262 H 0.54667 0.66496 0.28746 0.0
H263 H 0.54695 0.71209 0.25749 0.0
H264 H 0.64577 0.72944 0.34474 0.0
H265 H 0.64558 0.77662 0.31562 0.0
H266 H 0.53592 0.84813 0.35415 0.0
H267 H 0.54484 0.80975 0.31807 0.0
H268 H 0.63198 0.92836 0.30347 0.0
H269 H 0.64136 0.89013 0.26822 0.0
H270 H 0.65189 0.928 0.15455 0.0
H271 H 0.6533 0.88124 0.18326 0.0
H272 H 0.54199 0.87817 0.18273 0.0
H273 H 0.54373 0.83213 0.21257 0.0
N274 N 0.60281 0.80522 0.20088 0.0
N275 N 0.59619 0.79801 0.28365 0.0
C276 C 0.90025 0.58114 0.7238 0.0
C277 C 0.89566 0.55745 0.69703 0.0
C278 C 0.87132 0.58121 0.73765 0.0
C279 C 0.83739 0.55748 0.72509 0.0
C280 C 0.862 0.53461 0.68306 0.0
C281 C 0.83304 0.53475 0.69682 0.0
C282 C 0.8065 0.55475 0.74409 0.0
C283 C 0.85542 0.51883 0.83337 0.0
C284 C 0.87363 0.54083 0.86434 0.0
C285 C 0.83159 0.5218 0.80871 0.0
C286 C 0.82537 0.54678 0.81456 0.0
C287 C 0.86716 0.56556 0.87058 0.0
C288 C 0.84306 0.56836 0.84612 0.0
C289 C 0.80159 0.5511 0.78669 0.0
C290 C 0.65843 0.53435 0.80139 0.0
C291 C 0.66424 0.55125 0.83737 0.0
C292 C 0.68538 0.53299 0.78353 0.0
C293 C 0.71959 0.55073 0.7992 0.0
C294 C 0.69782 0.56684 0.85478 0.0
C295 C 0.72523 0.56701 0.83562 0.0
C296 C 0.74961 0.55233 0.7786 0.0
C297 C 0.69451 0.58067 0.68783 0.0
C298 C 0.67667 0.55678 0.65867 0.0
C299 C 0.7212 0.5816 0.7114 0.0
C300 C 0.73007 0.55823 0.70682 0.0
C301 C 0.68693 0.53465 0.6525 0.0
C302 C 0.71348 0.53548 0.67616 0.0
C303 C 0.75444 0.55567 0.73565 0.0
H304 H 0.92608 0.599 0.7347 0.0
H305 H 0.8753 0.59921 0.75913 0.0
H306 H 0.85811 0.51625 0.66224 0.0
H307 H 0.80714 0.51628 0.68678 0.0
H308 H 0.85964 0.49934 0.82832 0.0
H309 H 0.81805 0.50459 0.78493 0.0
H310 H 0.8806 0.58255 0.89461 0.0
H311 H 0.83878 0.5878 0.8513 0.0
H312 H 0.633 0.52203 0.787 0.0
H313 H 0.67933 0.51833 0.75711 0.0
H314 H 0.70302 0.57936 0.88306 0.0
H315 H 0.751 0.58023 0.84916 0.0
H316 H 0.68712 0.59802 0.69308 0.0
H317 H 0.7339 0.59971 0.73441 0.0
H318 H 0.67363 0.51607 0.63014 0.0
H319 H 0.71991 0.51734 0.6718 0.0
N320 N 0.7826 0.55647 0.72012 0.0
N321 N 0.77357 0.55039 0.80233 0.0
C322 C 0.13068 0.64967 0.22595 0.0
C323 C 0.10747 0.65713 0.20758 0.0
C324 C 0.16032 0.67351 0.24611 0.0
C325 C 0.1674 0.70522 0.24762 0.0
C326 C 0.11454 0.68888 0.20919 0.0
C327 C 0.14467 0.71293 0.22858 0.0
C328 C 0.19775 0.7299 0.27061 0.0
C329 C 0.10984 0.66536 0.35671 0.0
C330 C 0.11685 0.64603 0.38277 0.0
C331 C 0.13695 0.69199 0.3348 0.0
C332 C 0.17158 0.69957 0.338 0.0
C333 C 0.15146 0.65387 0.38661 0.0
C334 C 0.17858 0.68048 0.36462 0.0
C335 C 0.20031 0.72685 0.31313 0.0
C336 C 0.32764 0.85735 0.35242 0.0
C337 C 0.34004 0.84758 0.38581 0.0
C338 C 0.30105 0.8342 0.32781 0.0
C339 C 0.28684 0.8008 0.33563 0.0
C340 C 0.32545 0.8143 0.39425 0.0
C341 C 0.29911 0.79114 0.36938 0.0
C342 C 0.25723 0.77577 0.31124 0.0
C343 C 0.34451 0.83199 0.21796 0.0
C344 C 0.33692 0.84689 0.18551 0.0
C345 C 0.31828 0.81033 0.24554 0.0
C346 C 0.2839 0.80324 0.2414 0.0
C347 C 0.30269 0.83997 0.18146 0.0
C348 C 0.27647 0.81825 0.20888 0.0
C349 C 0.2549 0.77818 0.26819 0.0
H350 H 0.12566 0.62533 0.22493 0.0
H351 H 0.17766 0.66721 0.26068 0.0
H352 H 0.09687 0.69501 0.19522 0.0
H353 H 0.14975 0.7373 0.2297 0.0
H354 H 0.08341 0.65994 0.35355 0.0
H355 H 0.13081 0.70672 0.3154 0.0
H356 H 0.15747 0.63938 0.40673 0.0
H357 H 0.20496 0.68579 0.36783 0.0
H358 H 0.33834 0.88293 0.34569 0.0
H359 H 0.29119 0.84247 0.30319 0.0
H360 H 0.33454 0.8063 0.42004 0.0
H361 H 0.28826 0.76559 0.37657 0.0
H362 H 0.37066 0.83678 0.22156 0.0
H363 H 0.32472 0.79851 0.26948 0.0
H364 H 0.29617 0.8511 0.15668 0.0
H365 H 0.25021 0.81303 0.20457 0.0
N366 N 0.22495 0.75521 0.2498 0.0
N367 N 0.23 0.74993 0.33181 0.0
C368 C 0.46227 0.15525 0.84397 0.0
C369 C 0.49116 0.15534 0.86042 0.0
C370 C 0.46685 0.17749 0.81275 0.0
C371 C 0.50041 0.20056 0.79803 0.0
C372 C 0.52462 0.17762 0.84444 0.0
C373 C 0.52929 0.20055 0.8141 0.0
C374 C 0.50535 0.22796 0.77194 0.0
C375 C 0.51969 0.16727 0.68145 0.0
C376 C 0.49567 0.15547 0.64916 0.0
C377 C 0.52029 0.1891 0.70868 0.0
C378 C 0.49665 0.19942 0.70447 0.0
C379 C 0.47166 0.16526 0.64525 0.0
C380 C 0.47226 0.18707 0.67245 0.0
C381 C 0.50009 0.22608 0.72936 0.0
C382 C 0.52866 0.35623 0.67344 0.0
C383 C 0.50171 0.34543 0.64462 0.0
C384 C 0.52831 0.33439 0.70271 0.0
C385 C 0.50103 0.30147 0.70337 0.0
C386 C 0.47384 0.31291 0.64627 0.0
C387 C 0.47362 0.29109 0.67522 0.0
C388 C 0.5031 0.2768 0.72873 0.0
C389 C 0.4853 0.32742 0.83488 0.0
C390 C 0.51747 0.34993 0.85288 0.0
C391 C 0.48313 0.30567 0.80636 0.0
C392 C 0.51296 0.30563 0.79567 0.0
C393 C 0.54756 0.35071 0.84084 0.0
C394 C 0.5452 0.3284 0.81308 0.0
C395 C 0.50969 0.27917 0.77102 0.0
H396 H 0.43629 0.13846 0.85601 0.0
H397 H 0.44437 0.17774 0.80145 0.0
H398 H 0.54726 0.17816 0.85677 0.0
H399 H 0.55548 0.2188 0.80395 0.0
H400 H 0.53871 0.16034 0.68481 0.0
H401 H 0.54044 0.1991 0.73166 0.0
H402 H 0.45301 0.15664 0.6205 0.0
H403 H 0.45404 0.19485 0.66793 0.0
H404 H 0.55046 0.38127 0.67237 0.0
H405 H 0.55023 0.34285 0.72329 0.0
H406 H 0.4529 0.3042 0.62418 0.0
H407 H 0.45248 0.26578 0.67488 0.0
H408 H 0.4617 0.32625 0.84357 0.0
H409 H 0.45789 0.28799 0.79386 0.0
H410 H 0.57268 0.36784 0.85404 0.0
H411 H 0.56848 0.32854 0.80572 0.0
N412 N 0.51005 0.25438 0.79097 0.0
N413 N 0.49881 0.25051 0.7097 0.0
C414 C 0.07866 0.47975 0.0737 0.0
C415 C 0.08212 0.51014 0.06451 0.0
C416 C 0.137 0.53696 0.10377 0.0
C417 C 0.1305 0.50631 0.11805 0.0
N418 N 0.09051 0.44806 0.1221 0.0
N419 N 0.11134 0.56718 0.08034 0.0
C420 C 0.10004 0.47753 0.10449 0.0
C421 C 0.11048 0.53869 0.08199 0.0
N422 N 0.05585 0.45309 0.05209 0.0
N423 N 0.16888 0.56456 0.10991 0.0
H424 H 0.0918 0.56965 0.06718 0.0
H425 H 0.12958 0.5875 0.09633 0.0
H426 H 0.18944 0.56434 0.12437 0.0
H427 H 0.17603 0.58708 0.09668 0.0
H428 H 0.05462 0.43113 0.05502 0.0
H429 H 0.04107 0.45398 0.02797 0.0
H430 H 0.06672 0.42676 0.1162 0.0
H431 H 0.1046 0.4454 0.14566 0.0
C432 C 0.60441 0.03116 0.6133 0.0
C433 C 0.59638 0.04706 0.58206 0.0
C434 C 0.63212 0.09904 0.61566 0.0
C435 C 0.63848 0.08291 0.64815 0.0
N436 N 0.62758 0.03341 0.68131 0.0
N437 N 0.59625 0.0945 0.55792 0.0
C438 C 0.62366 0.04883 0.64801 0.0
C439 C 0.60846 0.08054 0.58449 0.0
N440 N 0.59477 0.99962 0.60902 0.0
N441 N 0.6495 0.13227 0.61394 0.0
H442 H 0.57891 0.08209 0.53442 0.0
H443 H 0.60074 0.11759 0.5614 0.0
H444 H 0.66654 0.14691 0.63656 0.0
H445 H 0.64934 0.14559 0.5885 0.0
H446 H 0.60293 0.98759 0.62845 0.0
H447 H 0.58035 0.986 0.58423 0.0
H448 H 0.61457 0.00825 0.68506 0.0
H449 H 0.64219 0.04584 0.70667 0.0
C450 C 0.55723 0.61442 0.12649 0.0
C451 C 0.58453 0.61478 0.10575 0.0
C452 C 0.62181 0.67388 0.11375 0.0
C453 C 0.59568 0.67275 0.13844 0.0
N454 N 0.54164 0.64012 0.17588 0.0
N455 N 0.64396 0.64372 0.08281 0.0
C456 C 0.56424 0.64247 0.14697 0.0
C457 C 0.61725 0.64425 0.10042 0.0
N458 N 0.52423 0.58755 0.12538 0.0
N459 N 0.65024 0.70324 0.10171 0.0
H460 H 0.64073 0.62247 0.07176 0.0
H461 H 0.6696 0.66361 0.08161 0.0
H462 H 0.6541 0.72533 0.11024 0.0
H463 H 0.66849 0.70584 0.08063 0.0
H464 H 0.50249 0.58676 0.1368 0.0
H465 H 0.51819 0.56736 0.10892 0.0
H466 H 0.5201 0.618 0.1861 0.0
H467 H 0.54633 0.65979 0.19271 0.0
C468 C 0.97232 0.56913 0.6356 0.0
C469 C 0.97727 0.54551 0.65511 0.0
C470 C 0.93449 0.5356 0.70745 0.0
C471 C 0.92594 0.5557 0.6845 0.0
N472 N 0.93597 0.59167 0.62677 0.0
N473 N 0.96317 0.50538 0.70861 0.0
C474 C 0.94494 0.57282 0.64875 0.0
C475 C 0.95881 0.52889 0.69124 0.0
N476 N 0.99425 0.58805 0.60456 0.0
N477 N 0.91926 0.52295 0.74463 0.0
H478 H 0.98085 0.50004 0.69745 0.0
H479 H 0.94792 0.48979 0.73246 0.0
H480 H 0.9006 0.52663 0.75681 0.0
H481 H 0.92685 0.51087 0.76481 0.0
H482 H 0.99425 0.60758 0.5906 0.0
H483 H 0.01469 0.58579 0.5951 0.0
H484 H 0.94614 0.60202 0.59817 0.0
H485 H 0.91679 0.5957 0.63627 0.0
C486 C 0.38718 0.88186 0.08491 0.0
C487 C 0.4165 0.91192 0.09729 0.0
C488 C 0.39224 0.90051 0.16672 0.0
C489 C 0.36457 0.86925 0.15519 0.0
N490 N 0.33925 0.8278 0.10505 0.0
N491 N 0.45064 0.94657 0.15221 0.0
C492 C 0.36305 0.85926 0.11472 0.0
C493 C 0.42003 0.92039 0.13882 0.0
N494 N 0.38163 0.87535 0.04445 0.0
N495 N 0.39152 0.91167 0.20397 0.0
H496 H 0.47201 0.96127 0.13323 0.0
H497 H 0.45615 0.95181 0.18285 0.0
H498 H 0.3717 0.89792 0.22522 0.0
H499 H 0.40885 0.93555 0.21237 0.0
H500 H 0.35883 0.85551 0.03313 0.0
H501 H 0.39844 0.89137 0.02174 0.0
H502 H 0.33929 0.81808 0.0774 0.0
H503 H 0.32136 0.8105 0.126 0.0
C504 C 0.48628 0.40384 0.58153 0.0
C505 C 0.5041 0.40669 0.54516 0.0
C506 C 0.51971 0.36888 0.5735 0.0
C507 C 0.50358 0.36746 0.61086 0.0
N508 N 0.47531 0.3863 0.65277 0.0
N509 N 0.54128 0.39594 0.50729 0.0
C510 C 0.48794 0.38577 0.61556 0.0
C511 C 0.52175 0.39023 0.54135 0.0
N512 N 0.467 0.4178 0.58287 0.0
N513 N 0.53245 0.34932 0.5686 0.0
H514 H 0.54255 0.41106 0.48313 0.0
H515 H 0.55792 0.38756 0.50395 0.0
H516 H 0.53257 0.33424 0.5919 0.0
H517 H 0.54104 0.34649 0.54087 0.0
H518 H 0.45055 0.41424 0.60687 0.0
H519 H 0.46551 0.43124 0.55835 0.0
H520 H 0.4669 0.40174 0.65948 0.0
H521 H 0.47547 0.37278 0.67806 0.0
C522 C 0.59357 0.95661 0.40189 0.0
C523 C 0.56535 0.9596 0.38915 0.0
C524 C 0.55041 0.91967 0.33653 0.0
C525 C 0.57688 0.91465 0.35142 0.0
N526 N 0.62019 0.92461 0.40241 0.0
N527 N 0.51271 0.93957 0.35019 0.0
C528 C 0.59755 0.93213 0.38529 0.0
C529 C 0.54259 0.93989 0.35803 0.0
N530 N 0.61711 0.97791 0.42908 0.0
N531 N 0.53352 0.90603 0.30106 0.0
H532 H 0.506 0.95362 0.36601 0.0
H533 H 0.49312 0.92323 0.3309 0.0
H534 H 0.53863 0.89127 0.28428 0.0
H535 H 0.51674 0.91166 0.28639 0.0
H536 H 0.64031 0.97939 0.43674 0.0
H537 H 0.61472 0.99601 0.44155 0.0
H538 H 0.63335 0.93405 0.42959 0.0
H539 H 0.6237 0.9068 0.39121 0.0
C540 C 0.61888 0.58003 0.90398 0.0
C541 C 0.58717 0.55026 0.91286 0.0
C542 C 0.60272 0.52274 0.86543 0.0
C543 C 0.63535 0.55193 0.85799 0.0
N544 N 0.66774 0.61053 0.85739 0.0
N545 N 0.54267 0.4988 0.88658 0.0
C546 C 0.64126 0.58143 0.87307 0.0
C547 C 0.57685 0.52339 0.88831 0.0
N548 N 0.62803 0.60658 0.92614 0.0
N549 N 0.59801 0.49429 0.85316 0.0
H550 H 0.52313 0.49923 0.90221 0.0
H551 H 0.53353 0.48056 0.86547 0.0
H552 H 0.57614 0.4714 0.86048 0.0
H553 H 0.57614 0.4714 0.86048 0.0
H554 H 0.65264 0.62795 0.92456 0.0
H555 H 0.61104 0.60647 0.94727 0.0
H556 H 0.67175 0.63281 0.86519 0.0
H557 H 0.68328 0.61206 0.83331 0.0
C558 C 0.05096 0.5964 0.46787 0.0
C559 C 0.04239 0.56464 0.45936 0.0
C560 C 0.07425 0.58567 0.39438 0.0
C561 C 0.08823 0.61795 0.40695 0.0
N562 N 0.09028 0.65451 0.45595 0.0
N563 N 0.04433 0.52823 0.41354 0.0
C564 C 0.07622 0.62346 0.44348 0.0
C565 C 0.05298 0.55891 0.42188 0.0
N566 N 0.03472 0.60044 0.49958 0.0
N567 N 0.08117 0.5807 0.35601 0.0
H568 H 0.02703 0.50792 0.4315 0.0
H569 H 0.05512 0.52298 0.38969 0.0
H570 H 0.09671 0.5998 0.3354 0.0
H571 H 0.06928 0.5579 0.34335 0.0
H572 H 0.03733 0.62243 0.50577 0.0
H573 H 0.01572 0.58075 0.51723 0.0
H574 H 0.08569 0.66006 0.48448 0.0
H575 H 0.10847 0.67496 0.43874 0.0
C576 C 0.50366 0.12591 0.96462 0.0
C577 C 0.47942 0.09195 0.9629 0.0
C578 C 0.46519 0.09907 0.89256 0.0
C579 C 0.4866 0.13335 0.89588 0.0
N580 N 0.51895 0.1792 0.93944 0.0
N581 N 0.43153 0.047 0.92869 0.0
C582 C 0.50367 0.14676 0.93327 0.0
C583 C 0.45845 0.07878 0.92784 0.0
N584 N 0.52802 0.13819 0.99488 0.0
N585 N 0.45254 0.08579 0.85553 0.0
H586 H 0.42529 0.03192 0.95468 0.0
H587 H 0.41335 0.03672 0.90528 0.0
H588 H 0.45793 0.09977 0.82868 0.0
H589 H 0.43965 0.06093 0.85089 0.0
H590 H 0.54843 0.1625 0.99521 0.0
H591 H 0.53015 0.12355 0.01715 0.0
H592 H 0.52888 0.1895 0.96755 0.0
H593 H 0.51836 0.19517 0.9179 0.0
C594 C 0.44236 0.53757 0.43085 0.0
C595 C 0.4363 0.50692 0.44476 0.0
C596 C 0.3813 0.48024 0.4058 0.0
C597 C 0.39034 0.51046 0.38691 0.0
N598 N 0.43373 0.56762 0.37655 0.0
N599 N 0.40317 0.44858 0.43563 0.0
C600 C 0.42207 0.53911 0.39812 0.0
C601 C 0.40654 0.47805 0.42976 0.0
N602 N 0.46671 0.56525 0.44972 0.0
N603 N 0.34831 0.45359 0.40177 0.0
H604 H 0.42189 0.44548 0.44998 0.0
H605 H 0.38366 0.42763 0.42173 0.0
H606 H 0.32867 0.45431 0.38566 0.0
H607 H 0.3395 0.43181 0.41818 0.0
H608 H 0.47001 0.58783 0.44311 0.0
H609 H 0.48073 0.56505 0.47513 0.0
H610 H 0.45837 0.58839 0.38082 0.0
H611 H 0.42034 0.56961 0.35161 0.0
C612 C 0.86143 0.39274 0.94466 0.0
C613 C 0.86866 0.38136 0.98158 0.0
C614 C 0.83874 0.32651 0.95512 0.0
C615 C 0.83808 0.33931 0.91582 0.0
N616 N 0.84863 0.38486 0.87266 0.0
N617 N 0.84029 0.33465 0.02725 0.0
C618 C 0.84926 0.37252 0.91043 0.0
C619 C 0.85067 0.34728 0.98873 0.0
N620 N 0.86105 0.42054 0.9443 0.0
N621 N 0.82843 0.29463 0.96041 0.0
H622 H 0.84257 0.34925 0.05104 0.0
H623 H 0.82461 0.3098 0.03409 0.0
H624 H 0.81903 0.2784 0.9367 0.0
H625 H 0.8319 0.2851 0.9877 0.0
H626 H 0.8534 0.42901 0.91924 0.0
H627 H 0.86311 0.4321 0.97122 0.0
H628 H 0.85991 0.40965 0.86638 0.0
H629 H 0.83916 0.37059 0.84704 0.0
C630 C 0.90869 0.51666 0.95669 0.0
C631 C 0.94458 0.53181 0.94622 0.0
C632 C 0.93298 0.54914 0.87959 0.0
C633 C 0.89795 0.53682 0.89185 0.0
N634 N 0.85249 0.51013 0.94248 0.0
N635 N 0.9917 0.56364 0.89902 0.0
C636 C 0.88582 0.52083 0.9305 0.0
C637 C 0.95688 0.54811 0.9078 0.0
N638 N 0.89632 0.49757 0.99146 0.0
N639 N 0.94326 0.56171 0.84089 0.0
H640 H 1.00942 0.56238 0.9185 0.0
H641 H 1.00343 0.57902 0.87367 0.0
H642 H 0.927 0.56417 0.82022 0.0
H643 H 0.96703 0.56793 0.82827 0.0
H644 H 0.87002 0.48328 0.99932 0.0
H645 H 0.91211 0.49366 0.01112 0.0
H646 H 0.8432 0.50211 0.97199 0.0
H647 H 0.8343 0.51094 0.92341 0.0
C648 C 0.42917 0.90201 0.43508 0.0
C649 C 0.42352 0.92419 0.45473 0.0
C650 C 0.36131 0.89127 0.43728 0.0
C651 C 0.3683 0.87241 0.41193 0.0
N652 N 0.40978 0.8618 0.3833 0.0
N653 N 0.38482 0.94104 0.47423 0.0
C654 C 0.40241 0.87803 0.41026 0.0
C655 C 0.38963 0.91895 0.45607 0.0
N656 N 0.46021 0.90399 0.44017 0.0
N657 N 0.32756 0.88235 0.44385 0.0
H658 H 0.40467 0.96054 0.49011 0.0
H659 H 0.36181 0.94094 0.47196 0.0
H660 H 0.30625 0.86207 0.43077 0.0
H661 H 0.32045 0.89324 0.46489 0.0
H662 H 0.46511 0.88698 0.42935 0.0
H663 H 0.47973 0.92077 0.45913 0.0
H664 H 0.43502 0.86759 0.37734 0.0
H665 H 0.39107 0.84429 0.36422 0.0
C666 C 0.50483 0.41063 0.90861 0.0
C667 C 0.51898 0.41081 0.94746 0.0
C668 C 0.52982 0.36924 0.92567 0.0
C669 C 0.51926 0.37178 0.88531 0.0
N670 N 0.50402 0.40073 0.83689 0.0
N671 N 0.54965 0.39405 0.99149 0.0
C672 C 0.50893 0.39424 0.87634 0.0
C673 C 0.53304 0.39129 0.95541 0.0
N674 N 0.48573 0.42461 0.90309 0.0
N675 N 0.53485 0.34465 0.93635 0.0
H676 H 0.55199 0.40984 0.01371 0.0
H677 H 0.56355 0.38294 0.99782 0.0
H678 H 0.53134 0.32715 0.91617 0.0
H679 H 0.53916 0.33968 0.96618 0.0
H680 H 0.47164 0.42227 0.87663 0.0
H681 H 0.48156 0.43618 0.92628 0.0
H682 H 0.49981 0.41921 0.82846 0.0
H683 H 0.50772 0.38996 0.81232 0.0
C684 C 0.0792 0.47092 0.4222 0.0
C685 C 0.09196 0.47217 0.46222 0.0
C686 C 0.14614 0.48078 0.43434 0.0
C687 C 0.13528 0.48396 0.39448 0.0
N688 N 0.09345 0.48703 0.35116 0.0
N689 N 0.13895 0.4823 0.50701 0.0
C690 C 0.10228 0.48034 0.38854 0.0
C691 C 0.12583 0.47814 0.46846 0.0
N692 N 0.04464 0.45951 0.41638 0.0
N693 N 0.17515 0.47911 0.43951 0.0
H694 H 0.12457 0.48051 0.53248 0.0
H695 H 0.16486 0.49012 0.51337 0.0
H696 H 0.19021 0.48007 0.41525 0.0
H697 H 0.18237 0.47367 0.46745 0.0
H698 H 0.03303 0.45515 0.38775 0.0
H699 H 0.02687 0.45136 0.44039 0.0
H700 H 0.07127 0.48803 0.34612 0.0
H701 H 0.10985 0.49446 0.32587 0.0
C702 C 0.57894 0.05535 0.96435 0.0
C703 C 0.56449 0.02283 0.9522 0.0
C704 C 0.62088 0.04173 0.91847 0.0
C705 C 0.62869 0.07407 0.91874 0.0
N706 N 0.63169 0.10843 0.97114 0.0
N707 N 0.57714 0.98418 0.9274 0.0
C708 C 0.61269 0.08035 0.95049 0.0
C709 C 0.58739 0.01575 0.93253 0.0
N710 N 0.5608 0.06265 0.98897 0.0
N711 N 0.64704 0.03645 0.912 0.0
H712 H 0.55479 0.96479 0.9414 0.0
H713 H 0.59047 0.97747 0.90882 0.0
H714 H 0.67312 0.0557 0.91069 0.0
H715 H 0.64379 0.01361 0.91451 0.0
H716 H 0.56733 0.08628 0.99401 0.0
H717 H 0.53997 0.0443 1.00505 0.0
H718 H 0.62266 0.11321 0.99719 0.0
H719 H 0.65817 0.12488 0.96496 0.0
C720 C 0.59641 0.63292 0.39398 0.0
C721 C 0.59475 0.60986 0.36754 0.0
C722 C 0.59969 0.64436 0.30861 0.0
C723 C 0.59671 0.66525 0.33499 0.0
N724 N 0.5864 0.67638 0.40246 0.0
N725 N 0.59193 0.5915 0.30019 0.0
C726 C 0.59372 0.65885 0.37768 0.0
C727 C 0.5958 0.61509 0.32491 0.0
N728 N 0.60087 0.63002 0.43478 0.0
N729 N 0.60706 0.6529 0.26829 0.0
H730 H 0.58993 0.57029 0.3117 0.0
H731 H 0.58857 0.59197 0.26882 0.0
H732 H 0.61049 0.67433 0.25548 0.0
H733 H 0.61259 0.6402 0.24823 0.0
H734 H 0.60565 0.64772 0.45528 0.0
H735 H 0.60323 0.61136 0.44756 0.0
H736 H 0.58018 0.67044 0.43317 0.0
H737 H 0.58325 0.69507 0.39168 0.0
C738 C 0.47069 0.08109 0.58648 0.0
C739 C 0.49902 0.09443 0.55873 0.0
C740 C 0.52365 0.14817 0.58807 0.0
C741 C 0.49684 0.13427 0.61811 0.0
N742 N 0.44734 0.08667 0.6494 0.0
N743 N 0.55508 0.13921 0.53654 0.0
C744 C 0.471 0.10045 0.61825 0.0
C745 C 0.5262 0.12763 0.56046 0.0
N746 N 0.44289 0.05016 0.58142 0.0
N747 N 0.54599 0.18117 0.58505 0.0
H748 H 0.55764 0.12475 0.51612 0.0
H749 H 0.57762 0.16216 0.53931 0.0
H750 H 0.54504 0.19701 0.60466 0.0
H751 H 0.56361 0.1931 0.56117 0.0
H752 H 0.4197 0.03982 0.59783 0.0
H753 H 0.44196 0.03568 0.55823 0.0
H754 H 0.43014 0.0617 0.65369 0.0
H755 H 0.44668 0.10009 0.67294 0.0
C756 C 0.44601 0.50367 0.13438 0.0
C757 C 0.44305 0.49831 0.09162 0.0
C758 C 0.39058 0.50139 0.09064 0.0
C759 C 0.39131 0.50246 0.13375 0.0
N760 N 0.41492 0.49569 0.19702 0.0
N761 N 0.40623 0.48355 0.0318 0.0
C762 C 0.41755 0.50087 0.15572 0.0
C763 C 0.41363 0.49489 0.07038 0.0
N764 N 0.47641 0.51307 0.1548 0.0
N765 N 0.3684 0.50721 0.06886 0.0
H766 H 0.42055 0.47595 0.01681 0.0
H767 H 0.38334 0.47791 0.01662 0.0
H768 H 0.3515 0.5125 0.08255 0.0
H769 H 0.36928 0.5099 0.03723 0.0
H770 H 0.48042 0.52026 0.18489 0.0
H771 H 0.4993 0.51807 0.14096 0.0
H772 H 0.4315 0.4909 0.21385 0.0
H773 H 0.39404 0.49261 0.21389 0.0
C774 C 0.90202 0.37205 0.59236 0.0
C775 C 0.91887 0.40345 0.60886 0.0
C776 C 0.88612 0.37949 0.67268 0.0
C777 C 0.86787 0.34814 0.65581 0.0
N778 N 0.85243 0.31621 0.59576 0.0
N779 N 0.91832 0.43764 0.65936 0.0
C780 C 0.87396 0.34492 0.61439 0.0
C781 C 0.90801 0.40727 0.64728 0.0
N782 N 0.91379 0.36774 0.55673 0.0
N783 N 0.88445 0.3828 0.71352 0.0
H784 H 0.93362 0.4584 0.64098 0.0
H785 H 0.90832 0.44166 0.68516 0.0
H786 H 0.8703 0.36312 0.73385 0.0
H787 H 0.9001 0.4048 0.72784 0.0
H788 H 0.90534 0.34492 0.54565 0.0
H789 H 0.93374 0.38698 0.53955 0.0
H790 H 0.85349 0.3133 0.56472 0.0
H791 H 0.83125 0.29621 0.61057 0.0
C792 C 0.57714 0.97292 0.1629 0.0
C793 C 0.58205 0.98212 0.12102 0.0
C794 C 0.59966 0.94358 0.10888 0.0
C795 C 0.59567 0.93496 0.15107 0.0
N796 N 0.59001 0.94771 0.21957 0.0
N797 N 0.60586 0.9827 0.05627 0.0
C798 C 0.58754 0.95179 0.17856 0.0
C799 C 0.59613 0.96961 0.09479 0.0
N800 N 0.56045 0.98262 0.18713 0.0
N801 N 0.60465 0.92572 0.08196 0.0
H802 H 0.60359 1.00197 0.04562 0.0
H803 H 0.6191 0.97671 0.03651 0.0
H804 H 0.60671 0.90604 0.09085 0.0
H805 H 0.60395 0.92873 0.05051 0.0
H806 H 0.55255 0.97364 0.21681 0.0
H807 H 0.55194 0.99766 0.17651 0.0
H808 H 0.58739 0.96149 0.24097 0.0
H809 H 0.59807 0.93274 0.23199 0.0
C810 C 0.62037 0.57247 0.58426 0.0
C811 C 0.58735 0.54284 0.58898 0.0
C812 C 0.61181 0.52644 0.64557 0.0
C813 C 0.64579 0.55341 0.63624 0.0
N814 N 0.68317 0.6007 0.59365 0.0
N815 N 0.5536 0.48888 0.62099 0.0
C816 C 0.65027 0.57618 0.60488 0.0
C817 C 0.58342 0.51918 0.61909 0.0
N818 N 0.62298 0.59751 0.56093 0.0
N819 N 0.60648 0.50793 0.68023 0.0
H820 H 0.53208 0.48159 0.60226 0.0
H821 H 0.55139 0.46972 0.63882 0.0
H822 H 0.62653 0.51256 0.70047 0.0
H823 H 0.58171 0.49014 0.69095 0.0
H824 H 0.64552 0.6207 0.55931 0.0
H825 H 0.60149 0.59611 0.54662 0.0
H826 H 0.68833 0.61582 0.568 0.0
H827 H 0.70562 0.60429 0.60808 0.0
C828 C 0.02355 0.57639 0.1877 0.0
C829 C 0.0196 0.57959 0.14532 0.0
C830 C 0.07274 0.63392 0.14357 0.0
C831 C 0.0759 0.63148 0.18641 0.0
N832 N 0.04982 0.60378 0.2505 0.0
N833 N 0.03441 0.61381 0.08507 0.0
C834 C 0.04979 0.60375 0.20893 0.0
C835 C 0.0423 0.60928 0.12403 0.0
N836 N 1.00354 0.54681 0.20718 0.0
N837 N 0.09957 0.65863 0.12119 0.0
H838 H 0.01172 0.59622 0.07056 0.0
H839 H 0.04826 0.63599 0.06895 0.0
H840 H 0.1229 0.67671 0.13404 0.0
H841 H 0.10002 0.65953 0.0895 0.0
H842 H 1.00783 0.54208 0.23714 0.0
H843 H 0.98432 0.52626 0.19234 0.0
H844 H 0.0297 0.58541 0.26839 0.0
H845 H 0.06832 0.62366 0.26701 0.0
loop_
_geom_bond_atom_site_label_1
_geom_bond_atom_site_label_2
_geom_bond_distance
_geom_bond_site_symmetry_2
_ccdc_geom_bond_type
Cu0 N1 1.999 1_554 S
Cu0 O6 1.979 1_554 S
Cu0 N11 1.984 1_655 S
Cu0 O20 1.954 1_655 S
N1 Cu0 1.999 1_556 S
N1 C3 1.263 . S
N1 C5 1.389 1_556 S
N2 C3 1.358 . S
N2 C4 1.400 . S
C3 N1 1.263 . S
C3 N2 1.358 . S
C3 H9 0.930 . S
C4 N2 1.400 . S
C4 C5 1.351 1_556 S
C4 H21 0.930 . S
C5 N1 1.389 1_554 S
C5 C4 1.351 1_554 S
C5 H10 0.930 . S
O6 Cu0 1.979 1_556 S
O6 C16 1.282 . S
C7 O8 1.261 1_554 S
C7 O20 1.251 . S
O8 C7 1.261 1_556 S
H9 C3 0.930 . S
H10 C5 0.930 . S
N11 Cu0 1.984 1_455 S
N11 C13 1.335 . S
N11 C14 1.390 . S
N12 C13 1.345 . S
N12 C15 1.336 . S
C13 N11 1.335 . S
C13 N12 1.345 . S
C13 H18 0.930 . S
C14 N11 1.390 . S
C14 C15 1.346 . S
C14 H19 0.930 1_554 S
C15 N12 1.336 . S
C15 C14 1.346 . S
C15 H22 0.929 . S
C16 O6 1.282 . S
C16 O17 1.216 1_655 S
O17 C16 1.216 1_455 S
H18 C13 0.930 . S
H19 C14 0.930 1_556 S
O20 Cu0 1.954 1_455 S
O20 C7 1.251 . S
H21 C4 0.930 . S
H22 C15 0.929 . S
Cu23 N24 1.999 . S
Cu23 O29 1.974 . S
Cu23 N34 1.985 1_565 S
Cu23 O43 1.959 1_565 S
N24 Cu23 1.999 . S
N24 C26 1.263 . S
N24 C28 1.389 . S
N25 C26 1.358 . S
N25 C27 1.400 . S
C26 N24 1.263 . S
C26 N25 1.358 . S
C26 H32 0.930 . S
C27 N25 1.400 . S
C27 C28 1.351 . S
C27 H44 0.930 . S
C28 N24 1.389 . S
C28 C27 1.351 . S
C28 H33 0.930 . S
O29 Cu23 1.974 . S
O29 C39 1.282 . S
C30 O31 1.261 . S
C30 O43 1.251 . S
O31 C30 1.261 . S
H32 C26 0.930 . S
H33 C28 0.930 . S
N34 Cu23 1.985 1_545 S
N34 C36 1.335 . S
N34 C37 1.390 . S
N35 C36 1.345 . S
N35 C38 1.336 . S
C36 N34 1.335 . S
C36 N35 1.345 . S
C36 H41 0.930 . S
C37 N34 1.390 . S
C37 C38 1.346 . S
C37 H42 0.930 . S
C38 N35 1.336 . S
C38 C37 1.346 . S
C38 H45 0.929 . S
C39 O29 1.282 . S
C39 O40 1.216 . S
O40 C39 1.216 . S
H41 C36 0.930 . S
H42 C37 0.930 . S
O43 Cu23 1.959 1_545 S
O43 C30 1.251 . S
H44 C27 0.930 . S
H45 C38 0.929 . S
Cu46 N47 1.999 1_554 S
Cu46 O52 1.974 1_554 S
Cu46 N57 1.985 . S
Cu46 O66 1.959 . S
N47 Cu46 1.999 1_556 S
N47 C49 1.263 . S
N47 C51 1.389 . S
N48 C49 1.358 . S
N48 C50 1.400 . S
C49 N47 1.263 . S
C49 N48 1.358 . S
C49 H55 0.930 . S
C50 N48 1.400 . S
C50 C51 1.351 . S
C50 H67 0.930 . S
C51 N47 1.389 . S
C51 C50 1.351 . S
C51 H56 0.930 . S
O52 Cu46 1.974 1_556 S
O52 C62 1.282 . S
C53 O54 1.261 . S
C53 O66 1.251 . S
O54 C53 1.261 . S
H55 C49 0.930 . S
H56 C51 0.930 . S
N57 Cu46 1.985 . S
N57 C59 1.335 . S
N57 C60 1.390 . S
N58 C59 1.345 . S
N58 C61 1.336 . S
C59 N57 1.335 . S
C59 N58 1.345 . S
C59 H64 0.930 . S
C60 N57 1.390 . S
C60 C61 1.346 . S
C60 H65 0.930 . S
C61 N58 1.336 . S
C61 C60 1.346 . S
C61 H68 0.929 . S
C62 O52 1.282 . S
C62 O63 1.216 1_556 S
O63 C62 1.216 1_554 S
H64 C59 0.930 . S
H65 C60 0.930 . S
O66 Cu46 1.959 . S
O66 C53 1.251 . S
H67 C50 0.930 . S
H68 C61 0.929 . S
Cu69 N70 1.999 1_655 S
Cu69 O75 1.974 1_655 S
Cu69 N80 1.985 . S
Cu69 O89 1.959 . S
N70 Cu69 1.999 1_455 S
N70 C72 1.263 . S
N70 C74 1.389 1_455 S
N71 C72 1.358 . S
N71 C73 1.400 . S
C72 N70 1.263 . S
C72 N71 1.358 . S
C72 H78 0.930 . S
C73 N71 1.400 . S
C73 C74 1.351 1_455 S
C73 H90 0.930 . S
C74 N70 1.389 1_655 S
C74 C73 1.351 1_655 S
C74 H79 0.930 . S
O75 Cu69 1.974 1_455 S
O75 C85 1.282 . S
C76 O77 1.258 1_655 S
C76 O89 1.251 . S
O77 C76 1.258 1_455 S
H78 C72 0.930 . S
H79 C74 0.930 . S
N80 Cu69 1.985 . S
N80 C82 1.335 . S
N80 C83 1.390 . S
N81 C82 1.345 . S
N81 C84 1.336 . S
C82 N80 1.335 . S
C82 N81 1.345 . S
C82 H87 0.930 . S
C83 N80 1.390 . S
C83 C84 1.346 . S
C83 H88 0.930 1_655 S
C84 N81 1.336 . S
C84 C83 1.346 . S
C84 H91 0.929 . S
C85 O75 1.282 . S
C85 O86 1.216 . S
O86 C85 1.216 . S
H87 C82 0.930 . S
H88 C83 0.930 1_455 S
O89 Cu69 1.959 . S
O89 C76 1.251 . S
H90 C73 0.930 . S
H91 C84 0.929 . S
Cu92 N93 1.999 . S
Cu92 O98 1.974 1_554 S
Cu92 N103 1.985 1_545 S
Cu92 O112 1.959 1_545 S
N93 Cu92 1.999 . S
N93 C95 1.263 1_554 S
N93 C97 1.389 . S
N94 C95 1.358 . S
N94 C96 1.400 1_556 S
C95 N93 1.263 1_556 S
C95 N94 1.358 . S
C95 H101 0.930 . S
C96 N94 1.400 1_554 S
C96 C97 1.351 . S
C96 H113 0.930 . S
C97 N93 1.389 . S
C97 C96 1.351 . S
C97 H102 0.930 . S
O98 Cu92 1.974 1_556 S
O98 C108 1.282 . S
C99 O100 1.261 . S
C99 O112 1.251 . S
O100 C99 1.261 . S
H101 C95 0.930 . S
H102 C97 0.930 . S
N103 Cu92 1.985 1_565 S
N103 C105 1.335 . S
N103 C106 1.390 . S
N104 C105 1.345 . S
N104 C107 1.336 . S
C105 N103 1.335 . S
C105 N104 1.345 . S
C105 H110 0.930 . S
C106 N103 1.390 . S
C106 C107 1.346 . S
C106 H111 0.931 . S
C107 N104 1.336 . S
C107 C106 1.346 . S
C107 H114 0.929 . S
C108 O98 1.282 . S
C108 O109 1.216 . S
O109 C108 1.216 . S
H110 C105 0.930 . S
H111 C106 0.931 . S
O112 Cu92 1.959 1_565 S
O112 C99 1.251 . S
H113 C96 0.930 . S
H114 C107 0.929 . S
Cu115 N116 1.999 . S
Cu115 O121 1.974 . S
Cu115 N126 1.985 . S
Cu115 O135 1.959 . S
N116 Cu115 1.999 . S
N116 C118 1.263 . S
N116 C120 1.389 . S
N117 C118 1.358 . S
N117 C119 1.400 . S
C118 N116 1.263 . S
C118 N117 1.358 . S
C118 H124 0.930 . S
C119 N117 1.400 . S
C119 C120 1.351 . S
C119 H136 0.930 . S
C120 N116 1.389 . S
C120 C119 1.351 . S
C120 H125 0.930 . S
O121 Cu115 1.974 . S
O121 C131 1.282 . S
C122 O123 1.261 . S
C122 O135 1.251 . S
O123 C122 1.261 . S
H124 C118 0.930 . S
H125 C120 0.930 . S
N126 Cu115 1.985 . S
N126 C128 1.335 . S
N126 C129 1.390 . S
N127 C128 1.345 . S
N127 C130 1.336 . S
C128 N126 1.335 . S
C128 N127 1.345 . S
C128 H133 0.930 . S
C129 N126 1.390 . S
C129 C130 1.346 . S
C129 H134 0.930 . S
C130 N127 1.336 . S
C130 C129 1.346 . S
C130 H137 0.929 . S
C131 O121 1.282 . S
C131 O132 1.216 . S
O132 C131 1.216 . S
H133 C128 0.930 . S
H134 C129 0.930 . S
O135 Cu115 1.959 . S
O135 C122 1.251 . S
H136 C119 0.930 . S
H137 C130 0.929 . S
C138 C139 1.384 . S
C138 C140 1.384 . S
C138 H166 0.931 . S
C139 C138 1.384 . S
C139 C142 1.382 . S
C140 C138 1.384 . S
C140 C141 1.381 . S
C140 H167 0.930 . S
C141 C140 1.381 . S
C141 C143 1.381 . S
C141 C144 1.487 . S
C142 C139 1.382 . S
C142 C143 1.387 . S
C142 H168 0.930 . S
C143 C141 1.381 . S
C143 C142 1.387 . S
C143 H169 0.931 . S
C144 C141 1.487 . S
C144 C151 1.399 . S
C144 N182 1.343 . S
C145 C146 1.384 . S
C145 C147 1.384 . S
C145 H170 0.931 . S
C146 C145 1.384 . S
C146 C149 1.382 . S
C147 C145 1.384 . S
C147 C148 1.381 . S
C147 H171 0.930 . S
C148 C147 1.381 . S
C148 C150 1.381 . S
C148 C151 1.487 . S
C149 C146 1.382 . S
C149 C150 1.387 . S
C149 H172 0.930 . S
C150 C148 1.381 . S
C150 C149 1.387 . S
C150 H173 0.931 . S
C151 C144 1.399 . S
C151 C148 1.487 . S
C151 N183 1.343 . S
C152 C153 1.384 . S
C152 C154 1.384 . S
C152 H174 0.931 . S
C153 C152 1.384 . S
C153 C156 1.382 . S
C154 C152 1.384 . S
C154 C155 1.381 . S
C154 H175 0.930 . S
C155 C154 1.381 . S
C155 C157 1.381 . S
C155 C158 1.487 . S
C156 C153 1.382 . S
C156 C157 1.387 . S
C156 H176 0.930 . S
C157 C155 1.381 . S
C157 C156 1.387 . S
C157 H177 0.931 . S
C158 C155 1.487 . S
C158 C165 1.399 . S
C158 N183 1.343 . S
C159 C160 1.384 . S
C159 C161 1.384 . S
C159 H178 0.931 . S
C160 C159 1.384 . S
C160 C163 1.382 . S
C161 C159 1.384 . S
C161 C162 1.381 . S
C161 H179 0.930 . S
C162 C161 1.381 . S
C162 C164 1.381 . S
C162 C165 1.487 . S
C163 C160 1.382 . S
C163 C164 1.387 . S
C163 H180 0.930 . S
C164 C162 1.381 . S
C164 C163 1.387 . S
C164 H181 0.931 . S
C165 C158 1.399 . S
C165 C162 1.487 . S
C165 N182 1.343 . S
H166 C138 0.931 . S
H167 C140 0.930 . S
H168 C142 0.930 . S
H169 C143 0.931 . S
H170 C145 0.931 . S
H171 C147 0.930 . S
H172 C149 0.930 . S
H173 C150 0.931 . S
H174 C152 0.931 . S
H175 C154 0.930 . S
H176 C156 0.930 . S
H177 C157 0.931 . S
H178 C159 0.931 . S
H179 C161 0.930 . S
H180 C163 0.930 . S
H181 C164 0.931 . S
N182 C144 1.343 . S
N182 C165 1.343 . S
N183 C151 1.343 . S
N183 C158 1.343 . S
C184 C185 1.384 . S
C184 C186 1.384 . S
C184 H212 0.931 . S
C185 C184 1.384 . S
C185 C188 1.382 . S
C186 C184 1.384 . S
C186 C187 1.381 . S
C186 H213 0.930 . S
C187 C186 1.381 . S
C187 C189 1.381 . S
C187 C190 1.487 . S
C188 C185 1.382 . S
C188 C189 1.387 . S
C188 H214 0.930 . S
C189 C187 1.381 . S
C189 C188 1.387 . S
C189 H215 0.931 . S
C190 C187 1.487 . S
C190 C197 1.399 . S
C190 N228 1.343 . S
C191 C192 1.384 . S
C191 C193 1.384 . S
C191 H216 0.931 . S
C192 C191 1.384 . S
C192 C195 1.382 . S
C193 C191 1.384 . S
C193 C194 1.381 . S
C193 H217 0.930 . S
C194 C193 1.381 . S
C194 C196 1.381 . S
C194 C197 1.487 . S
C195 C192 1.382 . S
C195 C196 1.387 . S
C195 H218 0.930 . S
C196 C194 1.381 . S
C196 C195 1.387 . S
C196 H219 0.931 . S
C197 C190 1.399 . S
C197 C194 1.487 . S
C197 N229 1.343 . S
C198 C199 1.384 . S
C198 C200 1.384 . S
C198 H220 0.931 . S
C199 C198 1.384 . S
C199 C202 1.382 . S
C200 C198 1.384 . S
C200 C201 1.381 . S
C200 H221 0.930 . S
C201 C200 1.381 . S
C201 C203 1.381 . S
C201 C204 1.487 . S
C202 C199 1.382 . S
C202 C203 1.387 . S
C202 H222 0.930 . S
C203 C201 1.381 . S
C203 C202 1.387 . S
C203 H223 0.931 . S
C204 C201 1.487 . S
C204 C211 1.399 . S
C204 N229 1.343 . S
C205 C206 1.384 . S
C205 C207 1.384 . S
C205 H224 0.931 . S
C206 C205 1.384 . S
C206 C209 1.382 . S
C207 C205 1.384 . S
C207 C208 1.381 . S
C207 H225 0.930 . S
C208 C207 1.381 . S
C208 C210 1.381 . S
C208 C211 1.487 . S
C209 C206 1.382 . S
C209 C210 1.387 . S
C209 H226 0.930 . S
C210 C208 1.381 . S
C210 C209 1.387 . S
C210 H227 0.931 . S
C211 C204 1.399 . S
C211 C208 1.487 . S
C211 N228 1.343 . S
H212 C184 0.931 . S
H213 C186 0.930 . S
H214 C188 0.930 . S
H215 C189 0.931 . S
H216 C191 0.931 . S
H217 C193 0.930 . S
H218 C195 0.930 . S
H219 C196 0.931 . S
H220 C198 0.931 . S
H221 C200 0.930 . S
H222 C202 0.930 . S
H223 C203 0.931 . S
H224 C205 0.931 . S
H225 C207 0.930 . S
H226 C209 0.930 . S
H227 C210 0.931 . S
N228 C190 1.343 . S
N228 C211 1.343 . S
N229 C197 1.343 . S
N229 C204 1.343 . S
C230 C231 1.384 . S
C230 C232 1.384 . S
C230 H258 0.931 . S
C231 C230 1.384 . S
C231 C234 1.382 . S
C232 C230 1.384 . S
C232 C233 1.381 . S
C232 H259 0.930 . S
C233 C232 1.381 . S
C233 C235 1.381 . S
C233 C236 1.487 . S
C234 C231 1.382 . S
C234 C235 1.387 . S
C234 H260 0.930 . S
C235 C233 1.381 . S
C235 C234 1.387 . S
C235 H261 0.931 . S
C236 C233 1.487 . S
C236 C243 1.399 . S
C236 N274 1.343 . S
C237 C238 1.384 . S
C237 C239 1.384 . S
C237 H262 0.931 . S
C238 C237 1.384 . S
C238 C241 1.382 . S
C239 C237 1.384 . S
C239 C240 1.381 . S
C239 H263 0.930 . S
C240 C239 1.381 . S
C240 C242 1.381 . S
C240 C243 1.487 . S
C241 C238 1.382 . S
C241 C242 1.387 . S
C241 H264 0.930 . S
C242 C240 1.381 . S
C242 C241 1.387 . S
C242 H265 0.931 . S
C243 C236 1.399 . S
C243 C240 1.487 . S
C243 N275 1.343 . S
C244 C245 1.384 . S
C244 C246 1.384 . S
C244 H266 0.931 . S
C245 C244 1.384 . S
C245 C248 1.382 . S
C246 C244 1.384 . S
C246 C247 1.381 . S
C246 H267 0.930 . S
C247 C246 1.381 . S
C247 C249 1.381 . S
C247 C250 1.487 . S
C248 C245 1.382 . S
C248 C249 1.387 . S
C248 H268 0.930 . S
C249 C247 1.381 . S
C249 C248 1.387 . S
C249 H269 0.931 . S
C250 C247 1.487 . S
C250 C257 1.399 . S
C250 N275 1.343 . S
C251 C252 1.384 . S
C251 C253 1.384 . S
C251 H270 0.931 . S
C252 C251 1.384 . S
C252 C255 1.382 . S
C253 C251 1.384 . S
C253 C254 1.381 . S
C253 H271 0.930 . S
C254 C253 1.381 . S
C254 C256 1.381 . S
C254 C257 1.487 . S
C255 C252 1.382 . S
C255 C256 1.387 . S
C255 H272 0.930 . S
C256 C254 1.381 . S
C256 C255 1.387 . S
C256 H273 0.931 . S
C257 C250 1.399 . S
C257 C254 1.487 . S
C257 N274 1.343 . S
H258 C230 0.931 . S
H259 C232 0.930 . S
H260 C234 0.930 . S
H261 C235 0.931 . S
H262 C237 0.931 . S
H263 C239 0.930 . S
H264 C241 0.930 . S
H265 C242 0.931 . S
H266 C244 0.931 . S
H267 C246 0.930 . S
H268 C248 0.930 . S
H269 C249 0.931 . S
H270 C251 0.931 . S
H271 C253 0.930 . S
H272 C255 0.930 . S
H273 C256 0.931 . S
N274 C236 1.343 . S
N274 C257 1.343 . S
N275 C243 1.343 . S
N275 C250 1.343 . S
C276 C277 1.384 . S
C276 C278 1.384 . S
C276 H304 0.931 . S
C277 C276 1.384 . S
C277 C280 1.382 . S
C278 C276 1.384 . S
C278 C279 1.381 . S
C278 H305 0.930 . S
C279 C278 1.381 . S
C279 C281 1.381 . S
C279 C282 1.487 . S
C280 C277 1.382 . S
C280 C281 1.387 . S
C280 H306 0.930 . S
C281 C279 1.381 . S
C281 C280 1.387 . S
C281 H307 0.931 . S
C282 C279 1.487 . S
C282 C289 1.399 . S
C282 N320 1.343 . S
C283 C284 1.384 . S
C283 C285 1.384 . S
C283 H308 0.931 . S
C284 C283 1.384 . S
C284 C287 1.382 . S
C285 C283 1.384 . S
C285 C286 1.381 . S
C285 H309 0.930 . S
C286 C285 1.381 . S
C286 C288 1.381 . S
C286 C289 1.487 . S
C287 C284 1.382 . S
C287 C288 1.387 . S
C287 H310 0.930 . S
C288 C286 1.381 . S
C288 C287 1.387 . S
C288 H311 0.931 . S
C289 C282 1.399 . S
C289 C286 1.487 . S
C289 N321 1.343 . S
C290 C291 1.384 . S
C290 C292 1.384 . S
C290 H312 0.931 . S
C291 C290 1.384 . S
C291 C294 1.382 . S
C292 C290 1.384 . S
C292 C293 1.381 . S
C292 H313 0.930 . S
C293 C292 1.381 . S
C293 C295 1.381 . S
C293 C296 1.487 . S
C294 C291 1.382 . S
C294 C295 1.387 . S
C294 H314 0.930 . S
C295 C293 1.381 . S
C295 C294 1.387 . S
C295 H315 0.931 . S
C296 C293 1.487 . S
C296 C303 1.399 . S
C296 N321 1.343 . S
C297 C298 1.384 . S
C297 C299 1.384 . S
C297 H316 0.931 . S
C298 C297 1.384 . S
C298 C301 1.382 . S
C299 C297 1.384 . S
C299 C300 1.381 . S
C299 H317 0.930 . S
C300 C299 1.381 . S
C300 C302 1.381 . S
C300 C303 1.487 . S
C301 C298 1.382 . S
C301 C302 1.387 . S
C301 H318 0.930 . S
C302 C300 1.381 . S
C302 C301 1.387 . S
C302 H319 0.931 . S
C303 C296 1.399 . S
C303 C300 1.487 . S
C303 N320 1.343 . S
H304 C276 0.931 . S
H305 C278 0.930 . S
H306 C280 0.930 . S
H307 C281 0.931 . S
H308 C283 0.931 . S
H309 C285 0.930 . S
H310 C287 0.930 . S
H311 C288 0.931 . S
H312 C290 0.931 . S
H313 C292 0.930 . S
H314 C294 0.930 . S
H315 C295 0.931 . S
H316 C297 0.931 . S
H317 C299 0.930 . S
H318 C301 0.930 . S
H319 C302 0.931 . S
N320 C282 1.343 . S
N320 C303 1.343 . S
N321 C289 1.343 . S
N321 C296 1.343 . S
C322 C323 1.384 . S
C322 C324 1.384 . S
C322 H350 0.931 . S
C323 C322 1.384 . S
C323 C326 1.382 . S
C324 C322 1.384 . S
C324 C325 1.381 . S
C324 H351 0.930 . S
C325 C324 1.381 . S
C325 C327 1.381 . S
C325 C328 1.487 . S
C326 C323 1.382 . S
C326 C327 1.387 . S
C326 H352 0.930 . S
C327 C325 1.381 . S
C327 C326 1.387 . S
C327 H353 0.931 . S
C328 C325 1.487 . S
C328 C335 1.399 . S
C328 N366 1.343 . S
C329 C330 1.384 . S
C329 C331 1.384 . S
C329 H354 0.931 . S
C330 C329 1.384 . S
C330 C333 1.382 . S
C331 C329 1.384 . S
C331 C332 1.381 . S
C331 H355 0.930 . S
C332 C331 1.381 . S
C332 C334 1.381 . S
C332 C335 1.487 . S
C333 C330 1.382 . S
C333 C334 1.387 . S
C333 H356 0.930 . S
C334 C332 1.381 . S
C334 C333 1.387 . S
C334 H357 0.931 . S
C335 C328 1.399 . S
C335 C332 1.487 . S
C335 N367 1.343 . S
C336 C337 1.384 . S
C336 C338 1.384 . S
C336 H358 0.931 . S
C337 C336 1.384 . S
C337 C340 1.382 . S
C338 C336 1.384 . S
C338 C339 1.381 . S
C338 H359 0.930 . S
C339 C338 1.381 . S
C339 C341 1.381 . S
C339 C342 1.487 . S
C340 C337 1.382 . S
C340 C341 1.387 . S
C340 H360 0.930 . S
C341 C339 1.381 . S
C341 C340 1.387 . S
C341 H361 0.931 . S
C342 C339 1.487 . S
C342 C349 1.399 . S
C342 N367 1.343 . S
C343 C344 1.384 . S
C343 C345 1.384 . S
C343 H362 0.931 . S
C344 C343 1.384 . S
C344 C347 1.382 . S
C345 C343 1.384 . S
C345 C346 1.381 . S
C345 H363 0.930 . S
C346 C345 1.381 . S
C346 C348 1.381 . S
C346 C349 1.487 . S
C347 C344 1.382 . S
C347 C348 1.387 . S
C347 H364 0.930 . S
C348 C346 1.381 . S
C348 C347 1.387 . S
C348 H365 0.931 . S
C349 C342 1.399 . S
C349 C346 1.487 . S
C349 N366 1.343 . S
H350 C322 0.931 . S
H351 C324 0.930 . S
H352 C326 0.930 . S
H353 C327 0.931 . S
H354 C329 0.931 . S
H355 C331 0.930 . S
H356 C333 0.930 . S
H357 C334 0.931 . S
H358 C336 0.931 . S
H359 C338 0.930 . S
H360 C340 0.930 . S
H361 C341 0.931 . S
H362 C343 0.931 . S
H363 C345 0.930 . S
H364 C347 0.930 . S
H365 C348 0.931 . S
N366 C328 1.343 . S
N366 C349 1.343 . S
N367 C335 1.343 . S
N367 C342 1.343 . S
C368 C369 1.384 . S
C368 C370 1.384 . S
C368 H396 0.931 . S
C369 C368 1.384 . S
C369 C372 1.382 . S
C370 C368 1.384 . S
C370 C371 1.381 . S
C370 H397 0.930 . S
C371 C370 1.381 . S
C371 C373 1.381 . S
C371 C374 1.487 . S
C372 C369 1.382 . S
C372 C373 1.387 . S
C372 H398 0.930 . S
C373 C371 1.381 . S
C373 C372 1.387 . S
C373 H399 0.931 . S
C374 C371 1.487 . S
C374 C381 1.399 . S
C374 N412 1.343 . S
C375 C376 1.384 . S
C375 C377 1.384 . S
C375 H400 0.931 . S
C376 C375 1.384 . S
C376 C379 1.382 . S
C377 C375 1.384 . S
C377 C378 1.381 . S
C377 H401 0.930 . S
C378 C377 1.381 . S
C378 C380 1.381 . S
C378 C381 1.487 . S
C379 C376 1.382 . S
C379 C380 1.387 . S
C379 H402 0.930 . S
C380 C378 1.381 . S
C380 C379 1.387 . S
C380 H403 0.931 . S
C381 C374 1.399 . S
C381 C378 1.487 . S
C381 N413 1.343 . S
C382 C383 1.384 . S
C382 C384 1.384 . S
C382 H404 0.931 . S
C383 C382 1.384 . S
C383 C386 1.382 . S
C384 C382 1.384 . S
C384 C385 1.381 . S
C384 H405 0.930 . S
C385 C384 1.381 . S
C385 C387 1.381 . S
C385 C388 1.487 . S
C386 C383 1.382 . S
C386 C387 1.387 . S
C386 H406 0.930 . S
C387 C385 1.381 . S
C387 C386 1.387 . S
C387 H407 0.931 . S
C388 C385 1.487 . S
C388 C395 1.399 . S
C388 N413 1.343 . S
C389 C390 1.384 . S
C389 C391 1.384 . S
C389 H408 0.931 . S
C390 C389 1.384 . S
C390 C393 1.382 . S
C391 C389 1.384 . S
C391 C392 1.381 . S
C391 H409 0.930 . S
C392 C391 1.381 . S
C392 C394 1.381 . S
C392 C395 1.487 . S
C393 C390 1.382 . S
C393 C394 1.387 . S
C393 H410 0.930 . S
C394 C392 1.381 . S
C394 C393 1.387 . S
C394 H411 0.931 . S
C395 C388 1.399 . S
C395 C392 1.487 . S
C395 N412 1.343 . S
H396 C368 0.931 . S
H397 C370 0.930 . S
H398 C372 0.930 . S
H399 C373 0.931 . S
H400 C375 0.931 . S
H401 C377 0.930 . S
H402 C379 0.930 . S
H403 C380 0.931 . S
H404 C382 0.931 . S
H405 C384 0.930 . S
H406 C386 0.930 . S
H407 C387 0.931 . S
H408 C389 0.931 . S
H409 C391 0.930 . S
H410 C393 0.930 . S
H411 C394 0.931 . S
N412 C374 1.343 . S
N412 C395 1.343 . S
N413 C381 1.343 . S
N413 C388 1.343 . S
C414 C415 1.363 . S
C414 C420 1.379 . S
C414 N422 1.356 . S
C415 C414 1.363 . S
C415 C421 1.363 . S
C416 C417 1.363 . S
C416 C421 1.379 . S
C416 N423 1.356 . S
C417 C416 1.363 . S
C417 C420 1.363 . S
N418 C420 1.356 . S
N418 H430 0.984 . S
N418 H431 0.985 . S
N419 C421 1.356 . S
N419 H424 0.984 . S
N419 H425 0.985 . S
C420 C414 1.379 . S
C420 C417 1.363 . S
C420 N418 1.356 . S
C421 C415 1.363 . S
C421 C416 1.379 . S
C421 N419 1.356 . S
N422 C414 1.356 . S
N422 H428 0.984 . S
N422 H429 0.984 . S
N423 C416 1.356 . S
N423 H426 0.984 . S
N423 H427 0.985 . S
H424 N419 0.984 . S
H425 N419 0.985 . S
H426 N423 0.984 . S
H427 N423 0.985 . S
H428 N422 0.984 . S
H429 N422 0.984 . S
H430 N418 0.984 . S
H431 N418 0.985 . S
C432 C433 1.363 . S
C432 C438 1.379 . S
C432 N440 1.356 . S
C433 C432 1.363 . S
C433 C439 1.363 . S
C434 C435 1.363 . S
C434 C439 1.379 . S
C434 N441 1.356 . S
C435 C434 1.363 . S
C435 C438 1.363 . S
N436 C438 1.356 . S
N436 H448 0.984 . S
N436 H449 0.985 . S
N437 C439 1.356 . S
N437 H442 0.984 . S
N437 H443 0.985 . S
C438 C432 1.379 . S
C438 C435 1.363 . S
C438 N436 1.356 . S
C439 C433 1.363 . S
C439 C434 1.379 . S
C439 N437 1.356 . S
N440 C432 1.356 . S
N440 H446 0.984 . S
N440 H447 0.984 . S
N441 C434 1.356 . S
N441 H444 0.984 . S
N441 H445 0.985 . S
H442 N437 0.984 . S
H443 N437 0.985 . S
H444 N441 0.984 . S
H445 N441 0.985 . S
H446 N440 0.984 . S
H447 N440 0.984 . S
H448 N436 0.984 . S
H449 N436 0.985 . S
C450 C451 1.363 . S
C450 C456 1.379 . S
C450 N458 1.356 . S
C451 C450 1.363 . S
C451 C457 1.363 . S
C452 C453 1.363 . S
C452 C457 1.379 . S
C452 N459 1.356 . S
C453 C452 1.363 . S
C453 C456 1.363 . S
N454 C456 1.356 . S
N454 H466 0.984 . S
N454 H467 0.985 . S
N455 C457 1.356 . S
N455 H460 0.984 . S
N455 H461 0.985 . S
C456 C450 1.379 . S
C456 C453 1.363 . S
C456 N454 1.356 . S
C457 C451 1.363 . S
C457 C452 1.379 . S
C457 N455 1.356 . S
N458 C450 1.356 . S
N458 H464 0.984 . S
N458 H465 0.984 . S
N459 C452 1.356 . S
N459 H462 0.984 . S
N459 H463 0.985 . S
H460 N455 0.984 . S
H461 N455 0.985 . S
H462 N459 0.984 . S
H463 N459 0.985 . S
H464 N458 0.984 . S
H465 N458 0.984 . S
H466 N454 0.984 . S
H467 N454 0.985 . S
C468 C469 1.363 . S
C468 C474 1.379 . S
C468 N476 1.356 . S
C469 C468 1.363 . S
C469 C475 1.363 . S
C470 C471 1.363 . S
C470 C475 1.379 . S
C470 N477 1.356 . S
C471 C470 1.363 . S
C471 C474 1.363 . S
N472 C474 1.356 . S
N472 H484 0.984 . S
N472 H485 0.985 . S
N473 C475 1.356 . S
N473 H478 0.984 . S
N473 H479 0.985 . S
C474 C468 1.379 . S
C474 C471 1.363 . S
C474 N472 1.356 . S
C475 C469 1.363 . S
C475 C470 1.379 . S
C475 N473 1.356 . S
N476 C468 1.356 . S
N476 H482 0.984 . S
N476 H483 0.984 . S
N477 C470 1.356 . S
N477 H480 0.984 . S
N477 H481 0.985 . S
H478 N473 0.984 . S
H479 N473 0.985 . S
H480 N477 0.984 . S
H481 N477 0.985 . S
H482 N476 0.984 . S
H483 N476 0.984 . S
H484 N472 0.984 . S
H485 N472 0.985 . S
C486 C487 1.363 . S
C486 C492 1.379 . S
C486 N494 1.356 . S
C487 C486 1.363 . S
C487 C493 1.363 . S
C488 C489 1.363 . S
C488 C493 1.379 . S
C488 N495 1.356 . S
C489 C488 1.363 . S
C489 C492 1.363 . S
N490 C492 1.356 . S
N490 H502 0.984 . S
N490 H503 0.985 . S
N491 C493 1.356 . S
N491 H496 0.984 . S
N491 H497 0.985 . S
C492 C486 1.379 . S
C492 C489 1.363 . S
C492 N490 1.356 . S
C493 C487 1.363 . S
C493 C488 1.379 . S
C493 N491 1.356 . S
N494 C486 1.356 . S
N494 H500 0.984 . S
N494 H501 0.984 . S
N495 C488 1.356 . S
N495 H498 0.984 . S
N495 H499 0.985 . S
H496 N491 0.984 . S
H497 N491 0.985 . S
H498 N495 0.984 . S
H499 N495 0.985 . S
H500 N494 0.984 . S
H501 N494 0.984 . S
H502 N490 0.984 . S
H503 N490 0.985 . S
C504 C505 1.363 . S
C504 C510 1.379 . S
C504 N512 1.356 . S
C505 C504 1.363 . S
C505 C511 1.363 . S
C506 C507 1.363 . S
C506 C511 1.379 . S
C506 N513 1.356 . S
C507 C506 1.363 . S
C507 C510 1.363 . S
N508 C510 1.356 . S
N508 H520 0.984 . S
N508 H521 0.985 . S
N509 C511 1.356 . S
N509 H514 0.984 . S
N509 H515 0.985 . S
C510 C504 1.379 . S
C510 C507 1.363 . S
C510 N508 1.356 . S
C511 C505 1.363 . S
C511 C506 1.379 . S
C511 N509 1.356 . S
N512 C504 1.356 . S
N512 H518 0.984 . S
N512 H519 0.984 . S
N513 C506 1.356 . S
N513 H516 0.984 . S
N513 H517 0.985 . S
H514 N509 0.984 . S
H515 N509 0.985 . S
H516 N513 0.984 . S
H517 N513 0.985 . S
H518 N512 0.984 . S
H519 N512 0.984 . S
H520 N508 0.984 . S
H521 N508 0.985 . S
C522 C523 1.363 . S
C522 C528 1.379 . S
C522 N530 1.356 . S
C523 C522 1.363 . S
C523 C529 1.363 . S
C524 C525 1.363 . S
C524 C529 1.379 . S
C524 N531 1.356 . S
C525 C524 1.363 . S
C525 C528 1.363 . S
N526 C528 1.356 . S
N526 H538 0.984 . S
N526 H539 0.985 . S
N527 C529 1.356 . S
N527 H532 0.984 . S
N527 H533 0.985 . S
C528 C522 1.379 . S
C528 C525 1.363 . S
C528 N526 1.356 . S
C529 C523 1.363 . S
C529 C524 1.379 . S
C529 N527 1.356 . S
N530 C522 1.356 . S
N530 H536 0.984 . S
N530 H537 0.984 . S
N531 C524 1.356 . S
N531 H534 0.984 . S
N531 H535 0.985 . S
H532 N527 0.984 . S
H533 N527 0.985 . S
H534 N531 0.984 . S
H535 N531 0.985 . S
H536 N530 0.984 . S
H537 N530 0.984 . S
H538 N526 0.984 . S
H539 N526 0.985 . S
C540 C541 1.363 . S
C540 C546 1.379 . S
C540 N548 1.356 . S
C541 C540 1.363 . S
C541 C547 1.363 . S
C542 C543 1.363 . S
C542 C547 1.379 . S
C542 N549 1.356 . S
C543 C542 1.363 . S
C543 C546 1.363 . S
N544 C546 1.356 . S
N544 H556 0.984 . S
N544 H557 0.985 . S
N545 C547 1.356 . S
N545 H550 0.984 . S
N545 H551 0.985 . S
C546 C540 1.379 . S
C546 C543 1.363 . S
C546 N544 1.356 . S
C547 C541 1.363 . S
C547 C542 1.379 . S
C547 N545 1.356 . S
N548 C540 1.356 . S
N548 H554 0.984 1_556 S
N548 H555 0.984 1_556 S
N549 C542 1.356 . S
N549 H552 0.984 . S
N549 H553 0.985 . S
H550 N545 0.984 . S
H551 N545 0.985 . S
H552 N549 0.984 . S
H553 N549 0.985 . S
H554 N548 0.984 1_554 S
H555 N548 0.984 1_554 S
H556 N544 0.984 . S
H557 N544 0.985 . S
C558 C559 1.363 . S
C558 C564 1.379 . S
C558 N566 1.356 . S
C559 C558 1.363 . S
C559 C565 1.363 . S
C560 C561 1.363 . S
C560 C565 1.379 . S
C560 N567 1.356 . S
C561 C560 1.363 . S
C561 C564 1.363 . S
N562 C564 1.356 . S
N562 H574 0.984 . S
N562 H575 0.985 . S
N563 C565 1.356 . S
N563 H568 0.984 . S
N563 H569 0.985 . S
C564 C558 1.379 . S
C564 C561 1.363 . S
C564 N562 1.356 . S
C565 C559 1.363 . S
C565 C560 1.379 . S
C565 N563 1.356 . S
N566 C558 1.356 . S
N566 H572 0.984 . S
N566 H573 0.984 . S
N567 C560 1.356 . S
N567 H570 0.984 . S
N567 H571 0.985 . S
H568 N563 0.984 . S
H569 N563 0.985 . S
H570 N567 0.984 . S
H571 N567 0.985 . S
H572 N566 0.984 . S
H573 N566 0.984 . S
H574 N562 0.984 . S
H575 N562 0.985 . S
C576 C577 1.363 . S
C576 C582 1.379 . S
C576 N584 1.356 . S
C577 C576 1.363 . S
C577 C583 1.363 . S
C578 C579 1.363 . S
C578 C583 1.379 . S
C578 N585 1.356 . S
C579 C578 1.363 . S
C579 C582 1.363 . S
N580 C582 1.356 . S
N580 H592 0.984 . S
N580 H593 0.985 . S
N581 C583 1.356 . S
N581 H586 0.984 . S
N581 H587 0.985 . S
C582 C576 1.379 . S
C582 C579 1.363 . S
C582 N580 1.356 . S
C583 C577 1.363 . S
C583 C578 1.379 . S
C583 N581 1.356 . S
N584 C576 1.356 . S
N584 H590 0.984 . S
N584 H591 0.984 . S
N585 C578 1.356 . S
N585 H588 0.984 . S
N585 H589 0.985 . S
H586 N581 0.984 . S
H587 N581 0.985 . S
H588 N585 0.984 . S
H589 N585 0.985 . S
H590 N584 0.984 . S
H591 N584 0.984 . S
H592 N580 0.984 . S
H593 N580 0.985 . S
C594 C595 1.363 . S
C594 C600 1.379 . S
C594 N602 1.356 . S
C595 C594 1.363 . S
C595 C601 1.363 . S
C596 C597 1.363 . S
C596 C601 1.379 . S
C596 N603 1.356 . S
C597 C596 1.363 . S
C597 C600 1.363 . S
N598 C600 1.356 . S
N598 H610 0.984 . S
N598 H611 0.985 . S
N599 C601 1.356 . S
N599 H604 0.984 . S
N599 H605 0.985 . S
C600 C594 1.379 . S
C600 C597 1.363 . S
C600 N598 1.356 . S
C601 C595 1.363 . S
C601 C596 1.379 . S
C601 N599 1.356 . S
N602 C594 1.356 . S
N602 H608 0.984 . S
N602 H609 0.984 . S
N603 C596 1.356 . S
N603 H606 0.984 . S
N603 H607 0.985 . S
H604 N599 0.984 . S
H605 N599 0.985 . S
H606 N603 0.984 . S
H607 N603 0.985 . S
H608 N602 0.984 . S
H609 N602 0.984 . S
H610 N598 0.984 . S
H611 N598 0.985 . S
C612 C613 1.363 . S
C612 C618 1.379 . S
C612 N620 1.356 . S
C613 C612 1.363 . S
C613 C619 1.363 . S
C614 C615 1.363 . S
C614 C619 1.379 . S
C614 N621 1.356 . S
C615 C614 1.363 . S
C615 C618 1.363 . S
N616 C618 1.356 . S
N616 H628 0.984 . S
N616 H629 0.985 . S
N617 C619 1.356 . S
N617 H622 0.984 . S
N617 H623 0.985 . S
C618 C612 1.379 . S
C618 C615 1.363 . S
C618 N616 1.356 . S
C619 C613 1.363 . S
C619 C614 1.379 . S
C619 N617 1.356 . S
N620 C612 1.356 . S
N620 H626 0.984 . S
N620 H627 0.984 . S
N621 C614 1.356 . S
N621 H624 0.984 . S
N621 H625 0.985 . S
H622 N617 0.984 . S
H623 N617 0.985 . S
H624 N621 0.984 . S
H625 N621 0.985 . S
H626 N620 0.984 . S
H627 N620 0.984 . S
H628 N616 0.984 . S
H629 N616 0.985 . S
C630 C631 1.363 . S
C630 C636 1.379 . S
C630 N638 1.356 . S
C631 C630 1.363 . S
C631 C637 1.363 . S
C632 C633 1.363 . S
C632 C637 1.379 . S
C632 N639 1.356 . S
C633 C632 1.363 . S
C633 C636 1.363 . S
N634 C636 1.356 . S
N634 H646 0.984 . S
N634 H647 0.985 . S
N635 C637 1.356 . S
N635 H640 0.984 . S
N635 H641 0.985 . S
C636 C630 1.379 . S
C636 C633 1.363 . S
C636 N634 1.356 . S
C637 C631 1.363 . S
C637 C632 1.379 . S
C637 N635 1.356 . S
N638 C630 1.356 . S
N638 H644 0.984 1_556 S
N638 H645 0.984 . S
N639 C632 1.356 . S
N639 H642 0.984 . S
N639 H643 0.985 . S
H640 N635 0.984 . S
H641 N635 0.985 . S
H642 N639 0.984 . S
H643 N639 0.985 . S
H644 N638 0.984 1_554 S
H645 N638 0.984 . S
H646 N634 0.984 . S
H647 N634 0.985 . S
C648 C649 1.363 . S
C648 C654 1.379 . S
C648 N656 1.356 . S
C649 C648 1.363 . S
C649 C655 1.363 . S
C650 C651 1.363 . S
C650 C655 1.379 . S
C650 N657 1.356 . S
C651 C650 1.363 . S
C651 C654 1.363 . S
N652 C654 1.356 . S
N652 H664 0.984 . S
N652 H665 0.985 . S
N653 C655 1.356 . S
N653 H658 0.984 . S
N653 H659 0.985 1_565 S
C654 C648 1.379 . S
C654 C651 1.363 . S
C654 N652 1.356 . S
C655 C649 1.363 . S
C655 C650 1.379 . S
C655 N653 1.356 . S
N656 C648 1.356 . S
N656 H662 0.984 . S
N656 H663 0.984 . S
N657 C650 1.356 . S
N657 H660 0.984 . S
N657 H661 0.985 . S
H658 N653 0.984 . S
H659 N653 0.985 1_545 S
H660 N657 0.984 . S
H661 N657 0.985 . S
H662 N656 0.984 . S
H663 N656 0.984 . S
H664 N652 0.984 . S
H665 N652 0.985 . S
C666 C667 1.363 . S
C666 C672 1.379 . S
C666 N674 1.356 . S
C667 C666 1.363 . S
C667 C673 1.363 . S
C668 C669 1.363 . S
C668 C673 1.379 . S
C668 N675 1.356 . S
C669 C668 1.363 . S
C669 C672 1.363 . S
N670 C672 1.356 . S
N670 H682 0.984 . S
N670 H683 0.985 . S
N671 C673 1.356 . S
N671 H676 0.984 . S
N671 H677 0.985 1_556 S
C672 C666 1.379 . S
C672 C669 1.363 . S
C672 N670 1.356 . S
C673 C667 1.363 . S
C673 C668 1.379 . S
C673 N671 1.356 . S
N674 C666 1.356 . S
N674 H680 0.984 . S
N674 H681 0.984 . S
N675 C668 1.356 . S
N675 H678 0.984 . S
N675 H679 0.985 . S
H676 N671 0.984 . S
H677 N671 0.985 1_554 S
H678 N675 0.984 . S
H679 N675 0.985 . S
H680 N674 0.984 . S
H681 N674 0.984 . S
H682 N670 0.984 . S
H683 N670 0.985 . S
C684 C685 1.363 . S
C684 C690 1.379 . S
C684 N692 1.356 . S
C685 C684 1.363 . S
C685 C691 1.363 . S
C686 C687 1.363 . S
C686 C691 1.379 . S
C686 N693 1.356 . S
C687 C686 1.363 . S
C687 C690 1.363 . S
N688 C690 1.356 . S
N688 H700 0.984 . S
N688 H701 0.985 . S
N689 C691 1.356 . S
N689 H694 0.984 . S
N689 H695 0.985 . S
C690 C684 1.379 . S
C690 C687 1.363 . S
C690 N688 1.356 . S
C691 C685 1.363 . S
C691 C686 1.379 . S
C691 N689 1.356 . S
N692 C684 1.356 . S
N692 H698 0.984 . S
N692 H699 0.984 . S
N693 C686 1.356 . S
N693 H696 0.984 . S
N693 H697 0.985 . S
H694 N689 0.984 . S
H695 N689 0.985 . S
H696 N693 0.984 . S
H697 N693 0.985 . S
H698 N692 0.984 . S
H699 N692 0.984 . S
H700 N688 0.984 . S
H701 N688 0.985 . S
C702 C703 1.363 . S
C702 C708 1.379 . S
C702 N710 1.356 . S
C703 C702 1.363 . S
C703 C709 1.363 . S
C704 C705 1.363 . S
C704 C709 1.379 . S
C704 N711 1.356 . S
C705 C704 1.363 . S
C705 C708 1.363 . S
N706 C708 1.356 . S
N706 H718 0.984 . S
N706 H719 0.985 . S
N707 C709 1.356 . S
N707 H712 0.984 . S
N707 H713 0.985 1_545 S
C708 C702 1.379 . S
C708 C705 1.363 . S
C708 N706 1.356 . S
C709 C703 1.363 . S
C709 C704 1.379 . S
C709 N707 1.356 . S
N710 C702 1.356 . S
N710 H716 0.984 . S
N710 H717 0.984 . S
N711 C704 1.356 . S
N711 H714 0.984 . S
N711 H715 0.985 . S
H712 N707 0.984 . S
H713 N707 0.985 1_565 S
H714 N711 0.984 . S
H715 N711 0.985 . S
H716 N710 0.984 . S
H717 N710 0.984 . S
H718 N706 0.984 . S
H719 N706 0.985 . S
C720 C721 1.363 . S
C720 C726 1.379 . S
C720 N728 1.356 . S
C721 C720 1.363 . S
C721 C727 1.363 . S
C722 C723 1.363 . S
C722 C727 1.379 . S
C722 N729 1.356 . S
C723 C722 1.363 . S
C723 C726 1.363 . S
N724 C726 1.356 . S
N724 H736 0.984 . S
N724 H737 0.985 . S
N725 C727 1.356 . S
N725 H730 0.984 . S
N725 H731 0.985 . S
C726 C720 1.379 . S
C726 C723 1.363 . S
C726 N724 1.356 . S
C727 C721 1.363 . S
C727 C722 1.379 . S
C727 N725 1.356 . S
N728 C720 1.356 . S
N728 H734 0.984 . S
N728 H735 0.984 . S
N729 C722 1.356 . S
N729 H732 0.984 . S
N729 H733 0.985 . S
H730 N725 0.984 . S
H731 N725 0.985 . S
H732 N729 0.984 . S
H733 N729 0.985 . S
H734 N728 0.984 . S
H735 N728 0.984 . S
H736 N724 0.984 . S
H737 N724 0.985 . S
C738 C739 1.363 . S
C738 C744 1.379 . S
C738 N746 1.356 . S
C739 C738 1.363 . S
C739 C745 1.363 . S
C740 C741 1.363 . S
C740 C745 1.379 . S
C740 N747 1.356 . S
C741 C740 1.363 . S
C741 C744 1.363 . S
N742 C744 1.356 . S
N742 H754 0.984 . S
N742 H755 0.985 . S
N743 C745 1.356 . S
N743 H748 0.984 . S
N743 H749 0.985 . S
C744 C738 1.379 . S
C744 C741 1.363 . S
C744 N742 1.356 . S
C745 C739 1.363 . S
C745 C740 1.379 . S
C745 N743 1.356 . S
N746 C738 1.356 . S
N746 H752 0.984 1_545 S
N746 H753 0.984 . S
N747 C740 1.356 . S
N747 H750 0.984 . S
N747 H751 0.985 . S
H748 N743 0.984 . S
H749 N743 0.985 . S
H750 N747 0.984 . S
H751 N747 0.985 . S
H752 N746 0.984 1_565 S
H753 N746 0.984 . S
H754 N742 0.984 . S
H755 N742 0.985 . S
C756 C757 1.363 . S
C756 C762 1.379 . S
C756 N764 1.356 . S
C757 C756 1.363 . S
C757 C763 1.363 . S
C758 C759 1.363 . S
C758 C763 1.379 . S
C758 N765 1.356 . S
C759 C758 1.363 . S
C759 C762 1.363 . S
N760 C762 1.356 . S
N760 H772 0.984 . S
N760 H773 0.985 . S
N761 C763 1.356 . S
N761 H766 0.984 . S
N761 H767 0.985 . S
C762 C756 1.379 . S
C762 C759 1.363 . S
C762 N760 1.356 . S
C763 C757 1.363 . S
C763 C758 1.379 . S
C763 N761 1.356 . S
N764 C756 1.356 . S
N764 H770 0.984 . S
N764 H771 0.984 . S
N765 C758 1.356 . S
N765 H768 0.984 . S
N765 H769 0.985 . S
H766 N761 0.984 . S
H767 N761 0.985 . S
H768 N765 0.984 . S
H769 N765 0.985 . S
H770 N764 0.984 . S
H771 N764 0.984 . S
H772 N760 0.984 . S
H773 N760 0.985 . S
C774 C775 1.363 . S
C774 C780 1.379 . S
C774 N782 1.356 . S
C775 C774 1.363 . S
C775 C781 1.363 . S
C776 C777 1.363 . S
C776 C781 1.379 . S
C776 N783 1.356 . S
C777 C776 1.363 . S
C777 C780 1.363 . S
N778 C780 1.356 . S
N778 H790 0.984 . S
N778 H791 0.985 . S
N779 C781 1.356 . S
N779 H784 0.984 . S
N779 H785 0.985 . S
C780 C774 1.379 . S
C780 C777 1.363 . S
C780 N778 1.356 . S
C781 C775 1.363 . S
C781 C776 1.379 . S
C781 N779 1.356 . S
N782 C774 1.356 . S
N782 H788 0.984 . S
N782 H789 0.984 . S
N783 C776 1.356 . S
N783 H786 0.984 . S
N783 H787 0.985 . S
H784 N779 0.984 . S
H785 N779 0.985 . S
H786 N783 0.984 . S
H787 N783 0.985 . S
H788 N782 0.984 . S
H789 N782 0.984 . S
H790 N778 0.984 . S
H791 N778 0.985 . S
C792 C793 1.363 . S
C792 C798 1.379 . S
C792 N800 1.356 . S
C793 C792 1.363 . S
C793 C799 1.363 . S
C794 C795 1.363 . S
C794 C799 1.379 . S
C794 N801 1.356 . S
C795 C794 1.363 . S
C795 C798 1.363 . S
N796 C798 1.356 . S
N796 H808 0.984 . S
N796 H809 0.985 . S
N797 C799 1.356 . S
N797 H802 0.984 . S
N797 H803 0.985 . S
C798 C792 1.379 . S
C798 C795 1.363 . S
C798 N796 1.356 . S
C799 C793 1.363 . S
C799 C794 1.379 . S
C799 N797 1.356 . S
N800 C792 1.356 . S
N800 H806 0.984 1_565 S
N800 H807 0.984 . S
N801 C794 1.356 . S
N801 H804 0.984 . S
N801 H805 0.985 . S
H802 N797 0.984 . S
H803 N797 0.985 . S
H804 N801 0.984 . S
H805 N801 0.985 . S
H806 N800 0.984 1_545 S
H807 N800 0.984 . S
H808 N796 0.984 . S
H809 N796 0.985 . S
C810 C811 1.363 . S
C810 C816 1.379 . S
C810 N818 1.356 . S
C811 C810 1.363 . S
C811 C817 1.363 . S
C812 C813 1.363 . S
C812 C817 1.379 . S
C812 N819 1.356 . S
C813 C812 1.363 . S
C813 C816 1.363 . S
N814 C816 1.356 . S
N814 H826 0.984 . S
N814 H827 0.985 . S
N815 C817 1.356 . S
N815 H820 0.984 . S
N815 H821 0.985 . S
C816 C810 1.379 . S
C816 C813 1.363 . S
C816 N814 1.356 . S
C817 C811 1.363 . S
C817 C812 1.379 . S
C817 N815 1.356 . S
N818 C810 1.356 . S
N818 H824 0.984 . S
N818 H825 0.984 . S
N819 C812 1.356 . S
N819 H822 0.984 . S
N819 H823 0.985 . S
H820 N815 0.984 . S
H821 N815 0.985 . S
H822 N819 0.984 . S
H823 N819 0.985 . S
H824 N818 0.984 . S
H825 N818 0.984 . S
H826 N814 0.984 . S
H827 N814 0.985 . S
C828 C829 1.363 . S
C828 C834 1.379 . S
C828 N836 1.356 . S
C829 C828 1.363 . S
C829 C835 1.363 . S
C830 C831 1.363 . S
C830 C835 1.379 . S
C830 N837 1.356 . S
C831 C830 1.363 . S
C831 C834 1.363 . S
N832 C834 1.356 . S
N832 H844 0.984 . S
N832 H845 0.985 . S
N833 C835 1.356 . S
N833 H838 0.984 . S
N833 H839 0.985 . S
C834 C828 1.379 . S
C834 C831 1.363 . S
C834 N832 1.356 . S
C835 C829 1.363 . S
C835 C830 1.379 . S
C835 N833 1.356 . S
N836 C828 1.356 . S
N836 H842 0.984 . S
N836 H843 0.984 . S
N837 C830 1.356 . S
N837 H840 0.984 . S
N837 H841 0.985 . S
H838 N833 0.984 . S
H839 N833 0.985 . S
H840 N837 0.984 . S
H841 N837 0.985 . S
H842 N836 0.984 . S
H843 N836 0.984 . S
H844 N832 0.984 . S
H845 N832 0.985 . S
C415 C7 1.903 . S
C417 C160 1.882 . S
C433 C30 1.674 . S
C435 C199 1.652 . S
C453 C231 1.754 . S
C451 N58 1.725 . S
C471 C277 1.516 . S
C469 N81 1.471 . S
C489 C344 1.797 . S
C487 C99 1.816 . S
C507 C383 1.579 . S
C505 N127 1.531 . S
C523 N25 1.757 . S
C525 C245 1.774 . S
C541 C62 1.678 . S
C543 C291 1.652 . S
C561 C330 1.806 . S
C559 C85 1.845 . S
C579 C369 1.566 . S
C577 N94 1.580 . S
C595 C131 1.866 . S
C597 C146 1.815 . S
C615 C185 1.510 . S
C613 N2 1.506 . S
C633 C284 1.821 . S
C631 C16 1.838 . S
C649 C39 1.622 . S
C651 C337 1.593 . S
C669 C390 1.730 . S
C667 N48 1.719 . S
C685 N71 1.460 . S
C687 C153 1.486 . S
C703 C108 1.792 . S
C705 C206 1.770 . S
C721 N117 1.522 . S
C723 C238 1.560 . S
C739 N35 1.713 . S
C741 C376 1.755 . S
C759 C139 1.638 . S
C757 C53 1.660 . S
C775 C76 1.872 . S
C777 C192 1.849 . S
C793 N104 1.515 . S
C795 C252 1.529 . S
C811 C122 1.786 . S
C813 C298 1.751 . S
C829 N12 1.443 . S
C831 C323 1.492 . S
