# Generated by pormake.
# Topology anh, (6,3)-cn, num edge types: 1
# Building blocks:
#     Node 0, Type 0, BuildingBlock: PAMTUU_clean_sbu_0, # of connection points: 6
#     Node 1, Type 0, BuildingBlock: PAMTUU_clean_sbu_0, # of connection points: 6
#     Node 2, Type 0, BuildingBlock: PAMTUU_clean_sbu_0, # of connection points: 6
#     Node 3, Type 1, BuildingBlock: MIDCAF_clean_linker_0, # of connection points: 3
#     Node 4, Type 1, BuildingBlock: MIDCAF_clean_linker_0, # of connection points: 3
#     Node 5, Type 1, BuildingBlock: MIDCAF_clean_linker_0, # of connection points: 3
#     Node 6, Type 1, BuildingBlock: MIDCAF_clean_linker_0, # of connection points: 3
#     Node 7, Type 1, BuildingBlock: MIDCAF_clean_linker_0, # of connection points: 3
#     Node 8, Type 1, BuildingBlock: MIDCAF_clean_linker_0, # of connection points: 3
#     Edge 9, Type (0, 1), BuildingBlock: UVAHIK_clean_linker_0, # of connection points: 2
#     Edge 10, Type (0, 1), BuildingBlock: UVAHIK_clean_linker_0, # of connection points: 2
#     Edge 11, Type (0, 1), BuildingBlock: UVAHIK_clean_linker_0, # of connection points: 2
#     Edge 12, Type (0, 1), BuildingBlock: UVAHIK_clean_linker_0, # of connection points: 2
#     Edge 13, Type (0, 1), BuildingBlock: UVAHIK_clean_linker_0, # of connection points: 2
#     Edge 14, Type (0, 1), BuildingBlock: UVAHIK_clean_linker_0, # of connection points: 2
#     Edge 15, Type (0, 1), BuildingBlock: UVAHIK_clean_linker_0, # of connection points: 2
#     Edge 16, Type (0, 1), BuildingBlock: UVAHIK_clean_linker_0, # of connection points: 2
#     Edge 17, Type (0, 1), BuildingBlock: UVAHIK_clean_linker_0, # of connection points: 2
#     Edge 18, Type (0, 1), BuildingBlock: UVAHIK_clean_linker_0, # of connection points: 2
#     Edge 19, Type (0, 1), BuildingBlock: UVAHIK_clean_linker_0, # of connection points: 2
#     Edge 20, Type (0, 1), BuildingBlock: UVAHIK_clean_linker_0, # of connection points: 2
#     Edge 21, Type (0, 1), BuildingBlock: UVAHIK_clean_linker_0, # of connection points: 2
#     Edge 22, Type (0, 1), BuildingBlock: UVAHIK_clean_linker_0, # of connection points: 2
#     Edge 23, Type (0, 1), BuildingBlock: UVAHIK_clean_linker_0, # of connection points: 2
#     Edge 24, Type (0, 1), BuildingBlock: UVAHIK_clean_linker_0, # of connection points: 2
#     Edge 25, Type (0, 1), BuildingBlock: UVAHIK_clean_linker_0, # of connection points: 2
#     Edge 26, Type (0, 1), BuildingBlock: UVAHIK_clean_linker_0, # of connection points: 2
# Relax obj value: 0.202
# Max RMSD: 0.183
# Mean RMSD: 0.150
data_MOF--net-anh--node1-PAMTUU_clean_sbu_0--node2-MIDCAF_clean_linker_0--edge1-UVAHIK_clean_linker_0
_symmetry_space_group_name_H-M    P1
_symmetry_Int_Tables_number       1
_symmetry_cell_setting            triclinic
loop_
_symmetry_equiv_pos_as_xyz
'x, y, z'
_cell_length_a     45.503029
_cell_length_b     45.60367
_cell_length_c     82.558437
_cell_angle_alpha  93.335589
_cell_angle_beta   90.927986
_cell_angle_gamma 120.16056
loop_
_atom_site_label
_atom_site_type_symbol
_atom_site_fract_x
_atom_site_fract_y
_atom_site_fract_z
_atom_type_partial_charge
Tb0 Tb 0.06928 0.59478 0.15861 0.0
Tb1 Tb 0.10851 0.55255 0.16052 0.0
C2 C 0.09443 0.57366 0.12692 0.0
C3 C 1.00065 0.6087 0.16794 0.0
C4 C 0.93503 0.56632 0.1787 0.0
C5 C 0.93971 0.58609 0.16544 0.0
C6 C 0.9723 0.60707 0.16009 0.0
C7 C 0.99629 0.59126 0.18201 0.0
C8 C 0.96379 0.57037 0.18738 0.0
C9 C 1.03264 0.62157 0.15957 0.0
O10 O 1.03027 0.54291 0.16417 0.0
O11 O 0.05511 0.51283 0.15462 0.0
O12 O 0.08463 0.549 0.18343 0.0
O13 O 0.0875 0.60003 0.18364 0.0
O14 O 0.127 0.52195 0.1503 0.0
O15 O 0.134 0.53698 0.17598 0.0
O16 O 0.14796 0.60652 0.16601 0.0
O17 O 0.12225 0.63341 0.15468 0.0
O18 O 0.07116 0.57885 0.13346 0.0
O19 O 0.11554 0.56884 0.13587 0.0
C20 C 1.028 0.5136 0.15952 0.0
O21 O 0.06022 0.63274 0.16879 0.0
O22 O 1.03133 0.6013 0.14746 0.0
C23 C 0.08536 0.57495 0.19139 0.0
C24 C 0.17773 0.53281 0.16415 0.0
C25 C 0.24754 0.55567 0.16828 0.0
C26 C 0.22318 0.52375 0.17323 0.0
C27 C 0.18855 0.51245 0.17119 0.0
C28 C 0.20182 0.56452 0.15897 0.0
C29 C 0.23656 0.57581 0.16093 0.0
C30 C 0.14167 0.52245 0.1641 0.0
C31 C 0.14973 0.63425 0.1608 0.0
H32 H 0.91808 0.58328 0.15836 0.0
H33 H 0.97506 0.61988 0.14908 0.0
H34 H 1.01773 0.59173 0.18819 0.0
H35 H 0.96105 0.55581 0.19773 0.0
H36 H 0.23092 0.50744 0.17865 0.0
H37 H 0.17022 0.48809 0.17541 0.0
H38 H 0.19378 0.58079 0.15376 0.0
H39 H 0.25481 0.60052 0.15704 0.0
Tb40 Tb 0.55178 0.03688 0.48754 0.0
Tb41 Tb 0.63411 0.07776 0.49227 0.0
C42 C 0.59729 0.06305 0.45724 0.0
C43 C 0.46525 0.96998 0.49406 0.0
C44 C 0.42739 0.90736 0.50778 0.0
C45 C 0.41979 0.91114 0.49173 0.0
C46 C 0.43852 0.94224 0.48495 0.0
C47 C 0.47243 0.96652 0.51026 0.0
C48 C 0.45336 0.93547 0.51712 0.0
C49 C 0.48786 1.00075 0.48595 0.0
O50 O 0.56519 0.99798 0.4932 0.0
O51 O 0.62203 1.02463 0.48798 0.0
O52 O 0.61531 0.0545 0.51492 0.0
O53 O 0.56473 0.05319 0.51307 0.0
O54 O 0.68306 0.0942 0.48393 0.0
O55 O 0.67619 0.11027 0.50798 0.0
O56 O 0.61884 0.11642 0.49646 0.0
O57 O 0.56508 0.08969 0.48424 0.0
O58 O 0.56826 0.04087 0.46288 0.0
O59 O 0.62431 0.08269 0.46688 0.0
C60 C 0.59336 0.99689 0.4909 0.0
O61 O 0.50466 1.02893 0.49517 0.0
O62 O 0.50725 0.99706 0.4756 0.0
C63 C 0.58856 0.05231 0.5217 0.0
C64 C 0.71593 0.15274 0.49284 0.0
C65 C 0.7348 0.22069 0.48856 0.0
C66 C 0.74083 0.21153 0.50368 0.0
C67 C 0.73167 0.17785 0.50577 0.0
C68 C 0.71184 0.1624 0.47747 0.0
C69 C 0.72134 0.19609 0.47534 0.0
C70 C 0.69714 0.11664 0.49636 0.0
C71 C 0.59223 0.11754 0.49068 0.0
H72 H 0.39954 0.88988 0.48437 0.0
H73 H 0.43284 0.94433 0.47242 0.0
H74 H 0.49338 0.98745 0.51745 0.0
H75 H 0.45966 0.93308 0.5295 0.0
H76 H 0.7517 0.2302 0.51399 0.0
H77 H 0.73479 0.171 0.51776 0.0
H78 H 0.69936 0.14365 0.46728 0.0
H79 H 0.71636 0.20248 0.46357 0.0
Tb80 Tb 0.58857 0.53245 0.82053 0.0
Tb81 Tb 0.62997 0.61482 0.82631 0.0
C82 C 0.60908 0.57794 0.79113 0.0
C83 C 0.56726 0.44508 0.82532 0.0
C84 C 0.58629 0.40262 0.84027 0.0
C85 C 0.60878 0.42766 0.83038 0.0
C86 C 0.59947 0.44881 0.82307 0.0
C87 C 0.54482 0.4203 0.83524 0.0
C88 C 0.55427 0.39936 0.84271 0.0
C89 C 0.55794 0.46867 0.81862 0.0
O90 O 0.642 0.54499 0.81903 0.0
O91 O 0.67065 0.60202 0.82763 0.0
O92 O 0.60885 0.5935 0.84913 0.0
O93 O 0.61315 0.54648 0.84454 0.0
O94 O 0.6428 0.66321 0.81941 0.0
O95 O 0.66487 0.65735 0.84147 0.0
O96 O 0.5766 0.60257 0.82362 0.0
O97 O 0.54879 0.54501 0.82643 0.0
O98 O 0.58515 0.55071 0.7973 0.0
O99 O 0.633 0.60343 0.8005 0.0
C100 C 0.67055 0.57351 0.82357 0.0
O101 O 0.55201 0.48674 0.82948 0.0
O102 O 0.57642 0.48689 0.80715 0.0
C103 C 0.61169 0.56868 0.85463 0.0
C104 C 0.65015 0.69965 0.84222 0.0
C105 C 0.62829 0.74167 0.85748 0.0
C106 C 0.66289 0.75471 0.85435 0.0
C107 C 0.67367 0.73386 0.84667 0.0
C108 C 0.61621 0.68597 0.84632 0.0
C109 C 0.60529 0.70678 0.85375 0.0
C110 C 0.6605 0.67822 0.833 0.0
C111 C 0.54841 0.57368 0.82565 0.0
H112 H 0.63337 0.43051 0.82796 0.0
H113 H 0.61756 0.46809 0.81569 0.0
H114 H 0.52011 0.41745 0.83737 0.0
H115 H 0.53649 0.38064 0.8504 0.0
H116 H 0.68144 0.78128 0.85735 0.0
H117 H 0.70013 0.74463 0.84383 0.0
H118 H 0.59786 0.6594 0.84323 0.0
H119 H 0.57842 0.69575 0.85571 0.0
C120 C 0.50385 0.95552 0.19644 0.0
C121 C 0.48049 0.95518 0.18489 0.0
C122 C 0.48993 0.98645 0.17809 0.0
C123 C 0.52093 1.0168 0.18306 0.0
H124 H 0.63385 0.1278 0.17393 0.0
H125 H 0.68331 0.17991 0.16515 0.0
H126 H 0.73277 0.19841 0.21268 0.0
H127 H 0.68462 0.14803 0.22131 0.0
H128 H 0.64195 0.12855 0.2518 0.0
H129 H 0.64307 0.12858 0.28132 0.0
H130 H 0.56005 1.02451 0.27757 0.0
H131 H 0.55822 1.0248 0.24815 0.0
H132 H 0.55058 0.98439 0.21079 0.0
H133 H 0.49801 0.93277 0.20234 0.0
H134 H 0.47315 0.98766 0.16906 0.0
H135 H 0.52642 0.04039 0.17811 0.0
N136 N 0.59761 0.07596 0.1961 0.0
N137 N 0.62373 0.10272 0.22184 0.0
N138 N 0.57375 0.05001 0.2202 0.0
C139 C 0.62393 0.10311 0.20535 0.0
C140 C 0.59899 0.07661 0.22938 0.0
C141 C 0.57229 0.04902 0.2037 0.0
C142 C 0.65431 0.13328 0.19849 0.0
C143 C 0.65534 0.14294 0.18246 0.0
C144 C 0.68392 0.17301 0.17742 0.0
C145 C 0.71234 0.19442 0.18825 0.0
C146 C 0.71144 0.18383 0.20399 0.0
C147 C 0.68334 0.15426 0.20896 0.0
C148 C 0.59992 0.07671 0.24748 0.0
C149 C 0.62387 0.10565 0.25725 0.0
C150 C 0.62466 0.1056 0.27424 0.0
C151 C 0.60163 0.07656 0.28197 0.0
C152 C 0.57781 0.0476 0.27217 0.0
C153 C 0.5769 0.0477 0.2552 0.0
C154 C 0.54343 1.01692 0.19506 0.0
C155 C 0.53439 0.98554 0.20138 0.0
C156 C 0.6141 0.46315 0.53453 0.0
C157 C 0.60223 0.44746 0.51874 0.0
C158 C 0.59034 0.46365 0.5084 0.0
C159 C 0.59022 0.49397 0.5138 0.0
H160 H 0.60692 0.61351 0.50587 0.0
H161 H 0.60473 0.66299 0.49651 0.0
H162 H 0.57648 0.68081 0.54415 0.0
H163 H 0.57684 0.63208 0.55292 0.0
H164 H 0.6028 0.61836 0.58347 0.0
H165 H 0.6046 0.6216 0.6131 0.0
H166 H 0.59995 0.52462 0.61232 0.0
H167 H 0.59784 0.52111 0.58273 0.0
H168 H 0.62373 0.50321 0.55214 0.0
H169 H 0.62267 0.45195 0.54328 0.0
H170 H 0.58108 0.45297 0.49608 0.0
H171 H 0.58027 0.50498 0.50562 0.0
N172 N 0.59676 0.56332 0.52905 0.0
N173 N 0.59654 0.59082 0.55419 0.0
N174 N 0.60019 0.54178 0.55394 0.0
C175 C 0.59528 0.58964 0.53765 0.0
C176 C 0.5989 0.56729 0.56244 0.0
C177 C 0.59935 0.53904 0.5374 0.0
C178 C 0.5921 0.61799 0.53026 0.0
C179 C 0.59967 0.62769 0.51421 0.0
C180 C 0.59874 0.65653 0.5089 0.0
C181 C 0.59005 0.67656 0.51941 0.0
C182 C 0.58238 0.66635 0.5353 0.0
C183 C 0.58309 0.63795 0.54048 0.0
C184 C 0.60013 0.56943 0.58059 0.0
C185 C 0.60214 0.59766 0.58957 0.0
C186 C 0.60338 0.59965 0.60661 0.0
C187 C 0.60241 0.57338 0.61515 0.0
C188 C 0.60035 0.54515 0.60618 0.0
C189 C 0.59933 0.54325 0.58915 0.0
C190 C 0.6019 0.50909 0.52976 0.0
C191 C 0.61424 0.49303 0.53978 0.0
C192 C 1.01045 0.59191 0.87015 0.0
C193 C 0.99576 0.57933 0.85431 0.0
C194 C 1.01244 0.56672 0.84407 0.0
C195 C 1.04218 0.56644 0.84964 0.0
H196 H 0.16135 0.58269 0.84246 0.0
H197 H 0.21219 0.58171 0.83303 0.0
H198 H 0.22814 0.55505 0.88036 0.0
H199 H 0.17817 0.55441 0.88924 0.0
H200 H 0.14416 0.55366 0.91911 0.0
H201 H 0.14259 0.55246 0.94854 0.0
H202 H 0.07228 0.59005 0.94851 0.0
H203 H 0.07279 0.58984 0.91907 0.0
H204 H 1.04923 0.60176 0.88796 0.0
H205 H 0.99879 0.6011 0.87881 0.0
H206 H 1.00253 0.55694 0.83173 0.0
H207 H 1.05352 0.55578 0.84156 0.0
N208 N 0.11022 0.57316 0.86532 0.0
N209 N 0.13366 0.57 0.89047 0.0
N210 N 0.08511 0.57472 0.88995 0.0
C211 C 0.13511 0.57057 0.87401 0.0
C212 C 0.10908 0.57207 0.89855 0.0
C213 C 0.08483 0.57527 0.87348 0.0
C214 C 0.16479 0.56858 0.86671 0.0
C215 C 0.17546 0.57612 0.85074 0.0
C216 C 0.20504 0.57586 0.84538 0.0
C217 C 0.22488 0.56791 0.85577 0.0
C218 C 0.21383 0.5604 0.87161 0.0
C219 C 0.1847 0.56048 0.87685 0.0
C220 C 0.10853 0.57174 0.91662 0.0
C221 C 0.12833 0.56165 0.92537 0.0
C222 C 0.12758 0.56118 0.94234 0.0
C223 C 0.1073 0.57116 0.9511 0.0
C224 C 0.08772 0.58151 0.9423 0.0
C225 C 0.08817 0.5816 0.92533 0.0
C226 C 0.05619 0.57867 0.86566 0.0
C227 C 1.0398 0.59186 0.87557 0.0
C228 C 0.16238 0.63525 0.46228 0.0
C229 C 0.15601 0.62674 0.47848 0.0
C230 C 0.12209 0.60718 0.48279 0.0
C231 C 0.09527 0.59773 0.47137 0.0
H232 H 1.00115 0.59596 0.46903 0.0
H233 H 0.94544 0.57052 0.48055 0.0
H234 H 0.89825 0.51994 0.43357 0.0
H235 H 0.95375 0.54622 0.42196 0.0
H236 H 1.00165 0.55616 0.39233 0.0
H237 H 1.00886 0.55374 0.36316 0.0
H238 H 0.11745 0.61911 0.37151 0.0
H239 H 0.11046 0.62142 0.40078 0.0
H240 H 0.1414 0.63314 0.43857 0.0
H241 H 0.18811 0.65084 0.45854 0.0
H242 H 0.1162 0.59965 0.49505 0.0
H243 H 0.06944 0.5832 0.47518 0.0
N244 N 1.04239 0.59103 0.44901 0.0
N245 N 1.02016 0.58211 0.42223 0.0
N246 N 0.0776 0.59881 0.42733 0.0
C247 C 1.01578 0.58284 0.43845 0.0
C248 C 1.05107 0.59029 0.41658 0.0
C249 C 0.07329 0.59894 0.44358 0.0
C250 C 0.9819 0.57241 0.44467 0.0
C251 C 0.97881 0.57994 0.46109 0.0
C252 C 0.94688 0.56542 0.46769 0.0
C253 C 0.91743 0.54272 0.45807 0.0
C254 C 0.92033 0.53751 0.44134 0.0
C255 C 0.95225 0.55235 0.43469 0.0
C256 C 0.05549 0.58903 0.39888 0.0
C257 C 1.02709 0.57008 0.38798 0.0
C258 C 1.03119 0.56847 0.37129 0.0
C259 C 0.06369 0.5862 0.36513 0.0
C260 C 0.0921 0.60535 0.37598 0.0
C261 C 0.08808 0.60653 0.39271 0.0
C262 C 0.10173 0.60723 0.45534 0.0
C263 C 0.13556 0.6254 0.45081 0.0
C264 C 0.58667 0.12317 0.78205 0.0
C265 C 0.57805 0.12497 0.79822 0.0
C266 C 0.5502 0.09624 0.80403 0.0
C267 C 0.53165 0.06639 0.79399 0.0
H268 H 0.46314 0.96067 0.79527 0.0
H269 H 0.46034 0.91888 0.81319 0.0
H270 H 0.48834 0.87215 0.7741 0.0
H271 H 0.49131 0.91413 0.75611 0.0
H272 H 0.50385 0.95017 0.72077 0.0
H273 H 0.51206 0.95199 0.69151 0.0
H274 H 0.53098 0.05492 0.69398 0.0
H275 H 0.52294 0.0533 0.72303 0.0
H276 H 0.57535 0.09272 0.7596 0.0
H277 H 0.60818 0.14467 0.77721 0.0
H278 H 0.54226 0.09692 0.81627 0.0
H279 H 0.51044 0.0447 0.79889 0.0
N280 N 0.50527 1.00262 0.77474 0.0
N281 N 0.49374 0.97188 0.74941 0.0
N282 N 0.52388 1.03166 0.75124 0.0
C283 C 0.49112 0.97236 0.7658 0.0
C284 C 0.50956 1.00158 0.74203 0.0
C285 C 0.52186 1.03232 0.76761 0.0
C286 C 0.47827 0.94111 0.77443 0.0
C287 C 0.46748 0.94071 0.79032 0.0
C288 C 0.46563 0.91664 0.80057 0.0
C289 C 0.4748 0.89279 0.79509 0.0
C290 C 0.48155 0.89063 0.77864 0.0
C291 C 0.4831 0.91455 0.76832 0.0
C292 C 0.5128 1.00161 0.72423 0.0
C293 C 0.50951 0.97307 0.71503 0.0
C294 C 0.5144 0.97416 0.69833 0.0
C295 C 0.52209 1.00357 0.69052 0.0
C296 C 0.52476 1.03181 0.69967 0.0
C297 C 0.52035 1.03091 0.71634 0.0
C298 C 0.54022 0.06466 0.77783 0.0
C299 C 0.5678 0.09341 0.77192 0.0
C300 C 0.62872 0.38989 0.09976 0.0
C301 C 0.62994 0.38956 0.1168 0.0
C302 C 0.61108 0.40091 0.12579 0.0
C303 C 0.59377 0.41465 0.11814 0.0
H304 H 0.56568 0.4848 0.13051 0.0
H305 H 0.53897 0.50897 0.14806 0.0
H306 H 0.49069 0.52194 0.10591 0.0
H307 H 0.51765 0.49848 0.08824 0.0
H308 H 0.57763 0.51921 0.05833 0.0
H309 H 0.58515 0.53305 0.03014 0.0
H310 H 0.59169 0.44335 0.01763 0.0
H311 H 0.58436 0.42934 0.04605 0.0
H312 H 0.61265 0.40552 0.07904 0.0
H313 H 0.64232 0.38068 0.09239 0.0
H314 H 0.61156 0.40157 0.13892 0.0
H315 H 0.58096 0.42453 0.12568 0.0
N316 N 0.56842 0.45302 0.10352 0.0
N317 N 0.56178 0.4794 0.08145 0.0
N318 N 0.58537 0.44414 0.07788 0.0
C319 C 0.55822 0.47356 0.09739 0.0
C320 C 0.57537 0.46491 0.07161 0.0
C321 C 0.58185 0.43804 0.09389 0.0
C322 C 0.54357 0.48956 0.108 0.0
C323 C 0.54959 0.49306 0.12497 0.0
C324 C 0.53462 0.50706 0.13501 0.0
C325 C 0.5131 0.51726 0.12821 0.0
C326 C 0.50746 0.51433 0.1113 0.0
C327 C 0.52284 0.50089 0.10125 0.0
C328 C 0.5803 0.47307 0.05443 0.0
C329 C 0.58065 0.50233 0.04962 0.0
C330 C 0.5852 0.51045 0.03349 0.0
C331 C 0.58907 0.48931 0.02176 0.0
C332 C 0.58862 0.45997 0.02648 0.0
C333 C 0.58458 0.45207 0.04272 0.0
C334 C 0.59511 0.41784 0.1013 0.0
C335 C 0.61162 0.40406 0.09208 0.0
C336 C 0.3055 0.57992 0.1574 0.0
C337 C 0.28417 0.56708 0.17037 0.0
C338 C 0.33854 0.58535 0.15844 0.0
C339 C 0.38196 0.5473 0.17772 0.0
H340 H 0.45641 0.60916 0.1526 0.0
C341 C 0.45893 0.5066 0.13945 0.0
C342 C 0.49405 0.52817 0.13866 0.0
C343 C 0.43987 0.51723 0.1484 0.0
C344 C 0.43625 0.59217 0.16 0.0
H345 H 0.28159 0.55322 0.1952 0.0
H346 H 0.33942 0.56283 0.19706 0.0
H347 H 0.41161 0.62169 0.15955 0.0
H348 H 0.53735 0.57726 0.14664 0.0
H349 H 0.50354 0.59653 0.16217 0.0
H350 H 0.4056 0.5169 0.17743 0.0
C351 C 0.33042 0.568 0.18597 0.0
C352 C 0.41047 0.59916 0.16384 0.0
C353 C 0.29733 0.56241 0.18488 0.0
C354 C 0.51018 0.56033 0.1472 0.0
C355 C 0.49095 0.57127 0.156 0.0
C356 C 0.40762 0.54031 0.17385 0.0
C357 C 0.35088 0.57818 0.17252 0.0
C358 C 0.38226 0.57594 0.17207 0.0
C359 C 0.45558 0.54982 0.15657 0.0
C360 C 0.43406 0.56181 0.16429 0.0
H361 H 0.29597 0.58365 0.14606 0.0
H362 H 0.35345 0.59282 0.14778 0.0
H363 H 0.36055 0.52874 0.18399 0.0
H364 H 0.44616 0.48173 0.13288 0.0
H365 H 0.41257 0.50043 0.14839 0.0
C366 C 0.72966 0.27103 0.49809 0.0
C367 C 0.74112 0.25541 0.48668 0.0
C368 C 0.73559 0.30383 0.49625 0.0
C369 C 0.76448 0.37028 0.46649 0.0
H370 H 0.80485 0.43314 0.50471 0.0
C371 C 0.85342 0.50897 0.4578 0.0
C372 C 0.88521 0.52004 0.46576 0.0
C373 C 0.82405 0.48103 0.46291 0.0
C374 C 0.7933 0.41593 0.49393 0.0
H375 H 0.76731 0.26147 0.46438 0.0
H376 H 0.77859 0.31886 0.46137 0.0
H377 H 0.77526 0.37221 0.50759 0.0
H378 H 0.91045 0.5125 0.4863 0.0
H379 H 0.86004 0.46426 0.49502 0.0
H380 H 0.78534 0.41368 0.45264 0.0
C381 C 0.76418 0.30564 0.4715 0.0
C382 C 0.77603 0.38094 0.4956 0.0
C383 C 0.75805 0.27286 0.47329 0.0
C384 C 0.88643 0.50493 0.47992 0.0
C385 C 0.85723 0.47707 0.48498 0.0
C386 C 0.78207 0.4052 0.4648 0.0
C387 C 0.75323 0.32163 0.483 0.0
C388 C 0.7632 0.35779 0.48178 0.0
C389 C 0.82603 0.46358 0.47601 0.0
C390 C 0.79846 0.42839 0.47841 0.0
H391 H 0.7159 0.25778 0.50836 0.0
H392 H 0.72655 0.31529 0.50522 0.0
H393 H 0.75392 0.35305 0.45565 0.0
H394 H 0.85156 0.52059 0.44705 0.0
H395 H 0.80024 0.47176 0.45596 0.0
C396 C 0.58626 0.75353 0.87165 0.0
C397 C 0.61519 0.76473 0.86236 0.0
C398 C 0.56887 0.77155 0.8726 0.0
C399 C 0.57213 0.85077 0.86071 0.0
H400 H 0.48134 0.78867 0.84173 0.0
C401 C 0.51692 0.87955 0.80678 0.0
C402 C 0.4844 0.87585 0.8071 0.0
C403 C 0.52887 0.86836 0.81922 0.0
C404 C 0.5062 0.80633 0.84744 0.0
H405 H 0.65032 0.80563 0.84819 0.0
H406 H 0.62073 0.83703 0.85013 0.0
H407 H 0.51252 0.76629 0.85583 0.0
H408 H 0.43856 0.85698 0.82051 0.0
H409 H 0.45927 0.8358 0.84218 0.0
H410 H 0.5669 0.89042 0.85087 0.0
C411 C 0.61129 0.81436 0.85669 0.0
C412 C 0.52408 0.7936 0.85558 0.0
C413 C 0.62839 0.79622 0.85558 0.0
C414 C 0.46364 0.85987 0.81996 0.0
C415 C 0.47548 0.84801 0.83234 0.0
C416 C 0.55437 0.86342 0.85248 0.0
C417 C 0.58042 0.80135 0.86449 0.0
C418 C 0.55802 0.81553 0.86138 0.0
C419 C 0.5085 0.85291 0.83219 0.0
C420 C 0.5221 0.84107 0.84498 0.0
H421 H 0.57592 0.72983 0.87742 0.0
H422 H 0.54539 0.76119 0.87889 0.0
H423 H 0.59799 0.8683 0.86532 0.0
H424 H 0.53375 0.89236 0.79723 0.0
H425 H 0.55421 0.87185 0.81871 0.0
C426 C 0.89564 0.50543 0.18383 0.0
C427 C 0.90056 0.53796 0.18167 0.0
C428 C 0.86292 0.47695 0.18279 0.0
C429 C 0.79907 0.42692 0.16221 0.0
H430 H 0.71742 0.42716 0.17465 0.0
C431 C 0.68766 0.39566 0.11967 0.0
C432 C 0.65491 0.38316 0.12549 0.0
C433 C 0.71428 0.39923 0.12979 0.0
C434 C 0.73977 0.42596 0.17137 0.0
H435 H 0.87492 0.5666 0.17856 0.0
H436 H 0.81782 0.51696 0.1767 0.0
H437 H 0.77159 0.46623 0.18924 0.0
H438 H 0.62353 0.35977 0.14572 0.0
H439 H 0.67057 0.36755 0.16362 0.0
H440 H 0.76767 0.38862 0.14347 0.0
C441 C 0.83923 0.51338 0.17914 0.0
C442 C 0.77083 0.44858 0.17964 0.0
C443 C 0.87195 0.54182 0.18003 0.0
C444 C 0.64867 0.37058 0.14102 0.0
C445 C 0.6755 0.37474 0.15125 0.0
C446 C 0.76805 0.40453 0.15384 0.0
C447 C 0.8345 0.48053 0.17977 0.0
C448 C 0.80101 0.45052 0.17456 0.0
C449 C 0.70884 0.39075 0.14598 0.0
C450 C 0.73847 0.40518 0.15778 0.0
H451 H 0.91713 0.50156 0.18515 0.0
H452 H 0.85994 0.45196 0.18346 0.0
H453 H 0.82192 0.42783 0.158 0.0
H454 H 0.69372 0.40581 0.10788 0.0
H455 H 0.73975 0.41186 0.12539 0.0
C456 C 0.39223 0.87014 0.52919 0.0
C457 C 0.40834 0.87379 0.51448 0.0
C458 C 0.36976 0.83769 0.53404 0.0
C459 C 0.30184 0.77226 0.52888 0.0
H460 H 0.30654 0.69129 0.51693 0.0
C461 C 0.21672 0.64644 0.4871 0.0
C462 C 0.18457 0.64116 0.49104 0.0
C463 C 0.24526 0.66693 0.49749 0.0
C464 C 0.30478 0.71357 0.52047 0.0
H465 H 0.41662 0.84704 0.49416 0.0
H466 H 0.37738 0.79059 0.50246 0.0
H467 H 0.359 0.74604 0.52203 0.0
H468 H 0.15668 0.64992 0.51 0.0
H469 H 0.20612 0.68426 0.52837 0.0
H470 H 0.24804 0.74101 0.5259 0.0
C471 C 0.38191 0.81246 0.51033 0.0
C472 C 0.33482 0.74487 0.52346 0.0
C473 C 0.40401 0.84477 0.50543 0.0
C474 C 0.18101 0.65353 0.50646 0.0
C475 C 0.2095 0.6736 0.51697 0.0
C476 C 0.27188 0.74112 0.52577 0.0
C477 C 0.36345 0.80852 0.52433 0.0
C478 C 0.33355 0.7748 0.52671 0.0
C479 C 0.24223 0.68226 0.51217 0.0
C480 C 0.27299 0.71179 0.52053 0.0
H481 H 0.39537 0.89224 0.5364 0.0
H482 H 0.35599 0.83538 0.54492 0.0
H483 H 0.29992 0.79483 0.53129 0.0
H484 H 0.22022 0.6364 0.47554 0.0
H485 H 0.26995 0.6729 0.4933 0.0
C486 C 0.57059 0.34367 0.84658 0.0
C487 C 0.59527 0.37834 0.84684 0.0
C488 C 0.57995 0.31977 0.84986 0.0
C489 C 0.65072 0.30851 0.84175 0.0
H490 H 0.58788 0.21895 0.85536 0.0
C491 C 0.60176 0.15685 0.82558 0.0
C492 C 0.59661 0.15718 0.80874 0.0
C493 C 0.61463 0.18675 0.83574 0.0
C494 C 0.60643 0.24394 0.85188 0.0
H495 H 0.64858 0.41545 0.85254 0.0
H496 H 0.66508 0.37334 0.85778 0.0
H497 H 0.58438 0.26787 0.86618 0.0
H498 H 0.60296 0.18971 0.78933 0.0
H499 H 0.62567 0.24152 0.80688 0.0
H500 H 0.67114 0.28419 0.82656 0.0
C501 C 0.63853 0.36479 0.85494 0.0
C502 C 0.60423 0.27192 0.85799 0.0
C503 C 0.62909 0.38881 0.8518 0.0
C504 C 0.60693 0.18844 0.80218 0.0
C505 C 0.62009 0.21829 0.81228 0.0
C506 C 0.65293 0.28054 0.83565 0.0
C507 C 0.61424 0.32993 0.85336 0.0
C508 C 0.62473 0.30398 0.85208 0.0
C509 C 0.62301 0.21759 0.82921 0.0
C510 C 0.62921 0.2477 0.83978 0.0
H511 H 0.54439 0.33457 0.84268 0.0
H512 H 0.56064 0.29309 0.84827 0.0
H513 H 0.667 0.33289 0.83698 0.0
H514 H 0.59483 0.1333 0.831 0.0
H515 H 0.61681 0.18556 0.84874 0.0
C516 C 0.62334 0.96272 0.49477 0.0
C517 C 0.59301 0.96363 0.49251 0.0
C518 C 0.62288 0.93186 0.49686 0.0
C519 C 0.5625 0.83827 0.5046 0.0
H520 H 0.64183 0.83055 0.49614 0.0
C521 C 0.56711 0.71775 0.52185 0.0
C522 C 0.58905 0.708 0.51444 0.0
C523 C 0.56763 0.74802 0.51855 0.0
C524 C 0.61906 0.83166 0.49842 0.0
H525 H 0.53817 0.93148 0.49039 0.0
H526 H 0.5372 0.87824 0.49319 0.0
H527 H 0.64242 0.88277 0.49125 0.0
H528 H 0.62818 0.7237 0.49693 0.0
H529 H 0.62796 0.77525 0.49055 0.0
H530 H 0.53842 0.78671 0.51091 0.0
C531 C 0.56172 0.90135 0.49399 0.0
C532 C 0.61961 0.86242 0.49585 0.0
C533 C 0.5622 0.93227 0.49219 0.0
C534 C 0.61071 0.72966 0.503 0.0
C535 C 0.61092 0.75993 0.4995 0.0
C536 C 0.56177 0.80743 0.50693 0.0
C537 C 0.59204 0.90025 0.49654 0.0
C538 C 0.5914 0.8667 0.49898 0.0
C539 C 0.58959 0.77012 0.50733 0.0
C540 C 0.59013 0.8033 0.50409 0.0
H541 H 0.64769 0.9861 0.49526 0.0
H542 H 0.64703 0.93321 0.49905 0.0
H543 H 0.54012 0.83964 0.50752 0.0
H544 H 0.54916 0.70197 0.5304 0.0
H545 H 0.55093 0.75417 0.52521 0.0
C546 C 0.73545 0.60373 0.825 0.0
C547 C 0.70381 0.57336 0.82496 0.0
C548 C 0.76654 0.60402 0.82693 0.0
C549 C 0.80457 0.54552 0.8291 0.0
H550 H 0.88466 0.63 0.8447 0.0
C551 C 0.93845 0.55452 0.83765 0.0
C552 C 0.9632 0.57929 0.8491 0.0
C553 C 0.90745 0.5537 0.83388 0.0
C554 C 0.86276 0.60577 0.84059 0.0
H555 H 0.68093 0.51924 0.82717 0.0
H556 H 0.73433 0.51972 0.83125 0.0
H557 H 0.83123 0.62811 0.84086 0.0
H558 H 0.97376 0.62385 0.86477 0.0
H559 H 0.92045 0.62114 0.85919 0.0
H560 H 0.83599 0.52281 0.82981 0.0
C561 C 0.73567 0.54355 0.82922 0.0
C562 C 0.83153 0.60485 0.83798 0.0
C563 C 0.70455 0.54321 0.82694 0.0
C564 C 0.95566 0.60355 0.85624 0.0
C565 C 0.92467 0.60243 0.8527 0.0
C566 C 0.83578 0.54631 0.83201 0.0
C567 C 0.7676 0.57403 0.82933 0.0
C568 C 0.80149 0.57475 0.83212 0.0
C569 C 0.89957 0.57748 0.84145 0.0
C570 C 0.86577 0.57647 0.83787 0.0
H571 H 0.7363 0.62755 0.82342 0.0
H572 H 0.78976 0.62814 0.82639 0.0
H573 H 0.7829 0.52168 0.82435 0.0
H574 H 0.94258 0.53515 0.83178 0.0
H575 H 0.88974 0.53425 0.82492 0.0
C576 C 0.1861 0.69877 0.15935 0.0
C577 C 0.18359 0.66745 0.16235 0.0
C578 C 0.21758 0.72973 0.16127 0.0
C579 C 0.30789 0.7686 0.17984 0.0
H580 H 0.32552 0.84373 0.15418 0.0
C581 C 0.44327 0.89017 0.18111 0.0
C582 C 0.44641 0.92258 0.18064 0.0
C583 C 0.41152 0.85985 0.17849 0.0
C584 C 0.32111 0.82325 0.16162 0.0
H585 H 0.21355 0.64503 0.1695 0.0
H586 H 0.26788 0.6981 0.17241 0.0
H587 H 0.27115 0.79058 0.15037 0.0
H588 H 0.41693 0.9471 0.17649 0.0
H589 H 0.36199 0.89453 0.17169 0.0
H590 H 0.35799 0.80116 0.19095 0.0
C591 C 0.24545 0.69923 0.16897 0.0
C592 C 0.28953 0.7924 0.15944 0.0
C593 C 0.21396 0.66836 0.16716 0.0
C594 C 0.41624 0.92309 0.17687 0.0
C595 C 0.38439 0.89262 0.17413 0.0
C596 C 0.33949 0.7993 0.18192 0.0
C597 C 0.24807 0.73078 0.16618 0.0
C598 C 0.28213 0.76425 0.16849 0.0
C599 C 0.38125 0.86031 0.17511 0.0
C600 C 0.3469 0.82734 0.17285 0.0
H601 H 0.16353 0.69952 0.15571 0.0
H602 H 0.21772 0.753 0.15917 0.0
H603 H 0.30362 0.74841 0.18744 0.0
H604 H 0.46552 0.88798 0.18349 0.0
H605 H 0.41086 0.83586 0.17899 0.0
C606 C 0.62414 0.18248 0.49312 0.0
C607 C 0.59303 0.15133 0.49194 0.0
C608 C 0.62524 0.21409 0.49471 0.0
C609 C 0.56805 0.25435 0.49445 0.0
H610 H 0.6519 0.33424 0.51073 0.0
C611 C 0.57804 0.38913 0.50227 0.0
C612 C 0.60224 0.41448 0.5137 0.0
C613 C 0.57718 0.35781 0.4987 0.0
C614 C 0.62781 0.31243 0.50643 0.0
H615 H 0.53849 0.12993 0.49175 0.0
H616 H 0.5401 0.18408 0.49538 0.0
H617 H 0.64932 0.28032 0.50742 0.0
H618 H 0.64587 0.42571 0.52953 0.0
H619 H 0.64303 0.37198 0.52431 0.0
H620 H 0.54609 0.28643 0.49444 0.0
C621 C 0.56409 0.18476 0.49447 0.0
C622 C 0.6265 0.2808 0.50413 0.0
C623 C 0.56302 0.15314 0.49246 0.0
C624 C 0.62596 0.40718 0.52102 0.0
C625 C 0.62477 0.37589 0.51768 0.0
C626 C 0.56919 0.28594 0.49707 0.0
C627 C 0.59527 0.21625 0.49567 0.0
C628 C 0.59659 0.25073 0.49806 0.0
C629 C 0.60033 0.35015 0.50647 0.0
C630 C 0.59909 0.31592 0.50319 0.0
H631 H 0.64795 0.18253 0.49264 0.0
H632 H 0.65002 0.23679 0.49504 0.0
H633 H 0.54442 0.23283 0.48947 0.0
H634 H 0.55912 0.39304 0.49626 0.0
H635 H 0.55816 0.33968 0.48975 0.0
C636 C 0.48351 0.54267 0.82622 0.0
C637 C 0.51504 0.57338 0.82751 0.0
C638 C 0.45242 0.54214 0.82819 0.0
C639 C 0.41348 0.59984 0.83222 0.0
H640 H 0.33625 0.51758 0.84538 0.0
C641 C 0.27927 0.58937 0.83953 0.0
C642 C 0.25693 0.56742 0.85069 0.0
C643 C 0.31002 0.59001 0.83592 0.0
C644 C 0.35739 0.54119 0.84194 0.0
H645 H 0.53755 0.62789 0.83206 0.0
H646 H 0.48425 0.62705 0.83618 0.0
H647 H 0.38968 0.51964 0.84172 0.0
H648 H 0.25019 0.52757 0.86603 0.0
H649 H 0.30313 0.52994 0.8606 0.0
H650 H 0.38138 0.62188 0.83331 0.0
C651 C 0.48303 0.60307 0.83313 0.0
C652 C 0.38852 0.54215 0.83946 0.0
C653 C 0.5141 0.6036 0.83087 0.0
C654 C 0.26647 0.54565 0.8577 0.0
C655 C 0.29717 0.54655 0.85427 0.0
C656 C 0.38238 0.59903 0.83493 0.0
C657 C 0.45127 0.57228 0.83187 0.0
C658 C 0.41748 0.57147 0.83451 0.0
C659 C 0.31993 0.56878 0.84333 0.0
C660 C 0.35348 0.56968 0.83992 0.0
H661 H 0.48272 0.51875 0.82351 0.0
H662 H 0.42921 0.51773 0.82662 0.0
H663 H 0.43432 0.62297 0.82819 0.0
H664 H 0.27346 0.60673 0.83379 0.0
H665 H 0.32592 0.60725 0.82722 0.0
C666 C 0.96429 0.48071 0.16417 0.0
C667 C 0.9946 0.48063 0.16087 0.0
C668 C 0.93339 0.45018 0.16597 0.0
C669 C 0.89009 0.35357 0.1595 0.0
H670 H 0.82599 0.35669 0.1888 0.0
C671 C 0.75628 0.23186 0.16816 0.0
C672 C 0.7428 0.22776 0.1837 0.0
C673 C 0.78592 0.26239 0.16461 0.0
C674 C 0.8435 0.35491 0.18064 0.0
H675 H 1.01515 0.44718 0.15691 0.0
H676 H 0.96202 0.39451 0.16046 0.0
H677 H 0.8788 0.40847 0.1846 0.0
H678 H 0.75036 0.25452 0.20739 0.0
H679 H 0.80137 0.30631 0.20145 0.0
H680 H 0.85513 0.29966 0.15601 0.0
C681 C 0.96174 0.41813 0.16132 0.0
C682 C 0.87399 0.38517 0.17799 0.0
C683 C 0.9926 0.44867 0.15935 0.0
C684 C 0.75979 0.25584 0.19535 0.0
C685 C 0.78921 0.28619 0.19182 0.0
C686 C 0.85955 0.32322 0.16218 0.0
C687 C 0.93138 0.41814 0.16479 0.0
C688 C 0.89815 0.3853 0.16739 0.0
C689 C 0.80321 0.29025 0.17641 0.0
C690 C 0.8356 0.32311 0.17292 0.0
H691 H 0.96433 0.50451 0.16533 0.0
H692 H 0.91087 0.4518 0.16813 0.0
H693 H 0.90729 0.35201 0.15106 0.0
H694 H 0.74439 0.21117 0.15877 0.0
H695 H 0.79515 0.26412 0.1525 0.0
C696 C 0.12494 0.57466 0.10149 0.0
C697 C 0.09659 0.57308 0.10891 0.0
C698 C 0.12677 0.57421 0.08453 0.0
C699 C 0.07315 0.54756 0.04643 0.0
H700 H 0.15578 0.61207 0.02692 0.0
C701 C 0.07644 0.56267 0.97721 0.0
C702 C 0.10649 0.57075 0.96928 0.0
C703 C 0.07571 0.56264 0.99418 0.0
C704 C 0.13262 0.59344 0.03209 0.0
H705 H 1.04781 0.56951 0.10415 0.0
H706 H 1.05087 0.56829 0.07467 0.0
H707 H 0.15387 0.61211 0.05643 0.0
H708 H 0.15951 0.58534 0.97339 0.0
H709 H 0.15782 0.5838 0.00275 0.0
H710 H 1.05196 0.52831 0.02224 0.0
C711 C 0.07171 0.56992 0.08197 0.0
C712 C 0.13154 0.59359 0.04907 0.0
C713 C 0.07008 0.57083 0.09891 0.0
C714 C 0.13571 0.57854 0.97891 0.0
C715 C 0.13489 0.57818 -0.00412 0.0
C716 C 0.07433 0.54712 0.02947 0.0
C717 C 0.10009 0.57166 0.07454 0.0
C718 C 0.1017 0.57083 0.05646 0.0
C719 C 0.10489 0.57033 0.00381 0.0
C720 C 0.10399 0.57024 0.022 0.0
H721 H 0.14586 0.57645 0.10879 0.0
H722 H 0.14889 0.57536 0.0792 0.0
H723 H 1.04991 0.52933 0.05172 0.0
H724 H 1.0532 0.556 0.97033 0.0
H725 H 1.0522 0.55695 -0.00028 0.0
C726 C 0.56963 0.04754 0.42906 0.0
C727 C 0.59922 0.06586 0.43933 0.0
C728 C 0.57106 0.04951 0.41222 0.0
C729 C 0.6252 0.10149 0.37986 0.0
H730 H 0.5661 1.02006 0.35215 0.0
C731 C 0.63335 0.09341 0.30951 0.0
C732 C 0.60236 0.07638 0.30013 0.0
C733 C 0.63391 0.0928 0.32648 0.0
C734 C 0.58256 0.04314 0.35969 0.0
H735 H 0.65366 0.10087 0.43976 0.0
H736 H 0.65628 0.10383 0.41032 0.0
H737 H 0.56581 1.0177 0.38152 0.0
H738 H 0.54753 0.0461 0.30158 0.0
H739 H 0.54861 0.04467 0.33101 0.0
H740 H 0.64213 0.12675 0.3579 0.0
C741 C 0.63178 0.08828 0.41534 0.0
C742 C 0.58236 0.04183 0.37659 0.0
C743 C 0.63032 0.08643 0.43226 0.0
C744 C 0.57197 0.05893 0.30827 0.0
C745 C 0.57256 0.05815 0.3252 0.0
C746 C 0.62553 0.10274 0.36292 0.0
C747 C 0.60216 0.06968 0.40506 0.0
C748 C 0.60343 0.07104 0.38697 0.0
C749 C 0.60353 0.07498 0.33455 0.0
C750 C 0.60399 0.07364 0.3526 0.0
H751 H 0.54512 1.03164 0.43401 0.0
H752 H 0.54756 1.03538 0.40482 0.0
H753 H 0.64149 0.12463 0.38739 0.0
H754 H 0.65734 0.10671 0.30373 0.0
H755 H 0.65826 0.10572 0.33326 0.0
C756 C 0.63218 0.60885 0.76577 0.0
C757 C 0.60896 0.57936 0.77312 0.0
C758 C 0.63175 0.6097 0.74879 0.0
C759 C 0.57644 0.56432 0.71125 0.0
H760 H 0.66096 0.61094 0.68939 0.0
C761 C 0.58233 0.54636 0.6416 0.0
C762 C 0.60337 0.57528 0.63332 0.0
C763 C 0.58315 0.54805 0.65861 0.0
C764 C 0.63709 0.5981 0.6953 0.0
H765 H 0.5673 0.52749 0.76818 0.0
H766 H 0.56699 0.52878 0.73884 0.0
H767 H 0.66227 0.61189 0.719 0.0
H768 H 0.64213 0.62864 0.63662 0.0
H769 H 0.64344 0.63162 0.6663 0.0
H770 H 0.55131 0.55014 0.68755 0.0
C771 C 0.58511 0.55159 0.74611 0.0
C772 C 0.63782 0.59869 0.71233 0.0
C773 C 0.58544 0.55079 0.76303 0.0
C774 C 0.62534 0.60593 0.64256 0.0
C775 C 0.62635 0.60756 0.6596 0.0
C776 C 0.57573 0.56358 0.69425 0.0
C777 C 0.60815 0.58106 0.7387 0.0
C778 C 0.6075 0.5816 0.72056 0.0
C779 C 0.60519 0.57865 0.66786 0.0
C780 C 0.60604 0.58027 0.68603 0.0
H781 H 0.65061 0.63138 0.77313 0.0
H782 H 0.64966 0.63301 0.74359 0.0
H783 H 0.55248 0.55147 0.71708 0.0
H784 H 0.56486 0.5224 0.63491 0.0
H785 H 0.56674 0.52518 0.66454 0.0
C786 C 0.55911 0.05196 0.54698 0.0
C787 C 0.58444 0.04814 0.53929 0.0
C788 C 0.55432 0.04729 0.56347 0.0
C789 C 0.5658 1.00398 0.5966 0.0
H790 H 0.55451 0.06945 0.62386 0.0
C791 C 0.5503 0.99572 0.66614 0.0
C792 C 0.52808 1.00543 0.67294 0.0
C793 C 0.55813 1.0003 0.64983 0.0
C794 C 0.55714 0.05066 0.61639 0.0
H795 H 0.62449 0.03617 0.54285 0.0
H796 H 0.61579 1.02766 0.57181 0.0
H797 H 0.56733 0.07936 0.59552 0.0
H798 H 0.49533 1.02592 0.6679 0.0
H799 H 0.5082 1.03312 0.6394 0.0
H800 H 0.5548 0.97482 0.61738 0.0
C801 C 0.59979 1.03439 0.56498 0.0
C802 C 0.56467 0.05647 0.60018 0.0
C803 C 0.60488 0.03946 0.54846 0.0
C804 C 0.51294 1.0187 0.66302 0.0
C805 C 0.52049 1.02299 0.64672 0.0
C806 C 0.55796 0.99798 0.61284 0.0
C807 C 0.57451 0.03837 0.57263 0.0
C808 C 0.56873 1.03305 0.59008 0.0
C809 C 0.54367 1.01445 0.63998 0.0
C810 C 0.55315 1.02109 0.62287 0.0
H811 H 0.54287 0.05857 0.54027 0.0
H812 H 0.53438 0.05014 0.56901 0.0
H813 H 0.56853 0.98538 0.58903 0.0
H814 H 0.56254 0.9857 0.67358 0.0
H815 H 0.57629 0.99372 0.64509 0.0
C816 C 0.62603 0.54531 0.87797 0.0
C817 C 0.61245 0.5646 0.87219 0.0
C818 C 0.6248 0.53895 0.89432 0.0
C819 C 0.60969 0.56558 0.93522 0.0
H820 H 0.59249 0.47606 0.94451 0.0
C821 C 0.61641 0.53097 0.00072 0.0
C822 C 0.593 0.49784 0.00463 0.0
C823 C 0.6191 0.53953 0.98463 0.0
C824 C 0.5969 0.50104 0.94217 0.0
H825 H 0.58759 0.59308 0.87898 0.0
H826 H 0.58438 0.58105 0.9076 0.0
H827 H 0.59569 0.4906 0.91657 0.0
H828 H 0.55387 0.44776 0.9949 0.0
H829 H 0.5578 0.46279 0.96682 0.0
H830 H 0.60936 0.57541 0.96084 0.0
C831 C 0.59664 0.57138 0.89955 0.0
C832 C 0.59931 0.50962 0.92611 0.0
C833 C 0.59835 0.57821 0.88316 0.0
C834 C 0.57243 0.47336 0.99216 0.0
C835 C 0.57479 0.48202 0.97608 0.0
C836 C 0.60687 0.55684 0.95131 0.0
C837 C 0.60941 0.55122 0.90526 0.0
C838 C 0.60606 0.5421 0.92242 0.0
C839 C 0.59812 0.51525 0.97211 0.0
C840 C 0.60064 0.52451 0.95499 0.0
H841 H 0.63753 0.53491 0.86983 0.0
H842 H 0.63581 0.5242 0.89833 0.0
H843 H 0.61514 0.5909 0.93286 0.0
H844 H 0.63278 0.55022 0.01013 0.0
H845 H 0.63785 0.56514 0.98202 0.0
C846 C 0.07259 0.54626 0.2174 0.0
C847 C 0.08362 0.57594 0.20924 0.0
C848 C 0.07082 0.54725 0.23429 0.0
C849 C 0.06954 0.60108 0.26965 0.0
H850 H 0.09079 0.54358 0.29426 0.0
C851 C 0.08681 0.61513 0.33968 0.0
C852 C 0.06779 0.58496 0.34741 0.0
C853 C 0.08946 0.61405 0.32285 0.0
C854 C 0.08465 0.55964 0.2875 0.0
H855 H 0.10193 0.63004 0.21237 0.0
H856 H 0.10009 0.6321 0.24181 0.0
H857 H 0.09432 0.54195 0.26479 0.0
H858 H 1.03743 0.53003 0.34376 0.0
H859 H 1.04255 0.52812 0.31429 0.0
H860 H 0.06076 0.61932 0.29251 0.0
C861 C 0.09178 0.60778 0.2352 0.0
C862 C 0.08647 0.55861 0.27061 0.0
C863 C 0.09306 0.60667 0.21831 0.0
C864 C 1.05206 0.55365 0.33806 0.0
C865 C 0.05516 0.55254 0.32126 0.0
C866 C 0.06822 0.60245 0.28655 0.0
C867 C 0.08051 0.57807 0.24343 0.0
C868 C 0.07881 0.57925 0.26144 0.0
C869 C 0.07359 0.58276 0.31349 0.0
C870 C 0.07565 0.58167 0.29561 0.0
H871 H 0.06487 0.52212 0.21072 0.0
H872 H 0.06141 0.52373 0.24013 0.0
H873 H 0.06277 0.61683 0.26302 0.0
H874 H 0.09902 0.63958 0.34662 0.0
H875 H 0.10399 0.63768 0.31714 0.0
loop_
_geom_bond_atom_site_label_1
_geom_bond_atom_site_label_2
_geom_bond_distance
_geom_bond_site_symmetry_2
_ccdc_geom_bond_type
Tb0 C9 2.764 1_455 S
Tb0 O10 2.325 1_455 S
Tb0 O13 2.303 . S
Tb0 O17 2.322 . S
Tb0 O18 2.349 . S
Tb0 O21 2.415 1_455 S
Tb0 O22 2.399 1_455 S
Tb1 O11 2.322 . S
Tb1 O12 2.349 . S
Tb1 O14 2.415 . S
Tb1 O15 2.399 . S
Tb1 O16 2.325 . S
Tb1 O19 2.303 . S
Tb1 C30 2.764 . S
C2 O18 1.261 . S
C2 O19 1.257 . S
C3 C6 1.358 . S
C3 C7 1.332 . S
C3 C9 1.504 . S
C4 C5 1.373 . S
C4 C8 1.308 . S
C5 C4 1.373 . S
C5 C6 1.429 . S
C5 H32 0.932 . S
C6 C3 1.358 . S
C6 C5 1.429 . S
C6 H33 0.930 . S
C7 C3 1.332 . S
C7 C8 1.394 . S
C7 H34 0.932 . S
C8 C4 1.308 . S
C8 C7 1.394 . S
C8 H35 0.929 . S
C9 Tb0 2.764 1_655 S
C9 C3 1.504 . S
C9 O21 1.239 . S
C9 O22 1.263 . S
O10 Tb0 2.325 1_655 S
O10 C20 1.236 . S
O11 Tb1 2.322 . S
O11 C20 1.257 1_455 S
O12 Tb1 2.349 . S
O12 C23 1.261 . S
O13 Tb0 2.303 . S
O13 C23 1.257 . S
O14 Tb1 2.415 . S
O14 C30 1.239 . S
O15 Tb1 2.399 . S
O15 C30 1.263 . S
O16 Tb1 2.325 . S
O16 C31 1.236 . S
O17 Tb0 2.322 . S
O17 C31 1.257 . S
O18 Tb0 2.349 . S
O18 C2 1.261 . S
O19 Tb1 2.303 . S
O19 C2 1.257 . S
C20 O10 1.236 . S
C20 O11 1.257 1_655 S
O21 Tb0 2.415 1_655 S
O21 C9 1.239 . S
O22 Tb0 2.399 1_655 S
O22 C9 1.263 . S
C23 O12 1.261 . S
C23 O13 1.257 . S
C24 C27 1.358 . S
C24 C28 1.332 . S
C24 C30 1.504 . S
C25 C26 1.373 . S
C25 C29 1.308 . S
C26 C25 1.373 . S
C26 C27 1.429 . S
C26 H36 0.932 . S
C27 C24 1.358 . S
C27 C26 1.429 . S
C27 H37 0.930 . S
C28 C24 1.332 . S
C28 C29 1.394 . S
C28 H38 0.932 . S
C29 C25 1.308 . S
C29 C28 1.394 . S
C29 H39 0.929 . S
C30 Tb1 2.764 . S
C30 O14 1.239 . S
C30 O15 1.263 . S
C30 C24 1.504 . S
C31 O16 1.236 . S
C31 O17 1.257 . S
H32 C5 0.932 . S
H33 C6 0.930 . S
H34 C7 0.932 . S
H35 C8 0.929 . S
H36 C26 0.932 . S
H37 C27 0.930 . S
H38 C28 0.932 . S
H39 C29 0.929 . S
Tb40 C49 2.764 1_545 S
Tb40 O50 2.325 1_545 S
Tb40 O53 2.303 . S
Tb40 O57 2.322 . S
Tb40 O58 2.349 . S
Tb40 O61 2.415 1_545 S
Tb40 O62 2.399 1_545 S
Tb41 O51 2.322 1_545 S
Tb41 O52 2.349 . S
Tb41 O54 2.415 . S
Tb41 O55 2.399 . S
Tb41 O56 2.325 . S
Tb41 O59 2.303 . S
Tb41 C70 2.764 . S
C42 O58 1.261 . S
C42 O59 1.257 . S
C43 C46 1.358 . S
C43 C47 1.332 . S
C43 C49 1.504 . S
C44 C45 1.373 . S
C44 C48 1.308 . S
C45 C44 1.373 . S
C45 C46 1.429 . S
C45 H72 0.932 . S
C46 C43 1.358 . S
C46 C45 1.429 . S
C46 H73 0.930 . S
C47 C43 1.332 . S
C47 C48 1.394 . S
C47 H74 0.932 . S
C48 C44 1.308 . S
C48 C47 1.394 . S
C48 H75 0.929 . S
C49 Tb40 2.764 1_565 S
C49 C43 1.504 . S
C49 O61 1.239 . S
C49 O62 1.263 . S
O50 Tb40 2.325 1_565 S
O50 C60 1.236 . S
O51 Tb41 2.322 1_565 S
O51 C60 1.257 . S
O52 Tb41 2.349 . S
O52 C63 1.261 . S
O53 Tb40 2.303 . S
O53 C63 1.257 . S
O54 Tb41 2.415 . S
O54 C70 1.239 . S
O55 Tb41 2.399 . S
O55 C70 1.263 . S
O56 Tb41 2.325 . S
O56 C71 1.236 . S
O57 Tb40 2.322 . S
O57 C71 1.257 . S
O58 Tb40 2.349 . S
O58 C42 1.261 . S
O59 Tb41 2.303 . S
O59 C42 1.257 . S
C60 O50 1.236 . S
C60 O51 1.257 . S
O61 Tb40 2.415 1_565 S
O61 C49 1.239 . S
O62 Tb40 2.399 1_565 S
O62 C49 1.263 . S
C63 O52 1.261 . S
C63 O53 1.257 . S
C64 C67 1.358 . S
C64 C68 1.332 . S
C64 C70 1.504 . S
C65 C66 1.373 . S
C65 C69 1.308 . S
C66 C65 1.373 . S
C66 C67 1.429 . S
C66 H76 0.932 . S
C67 C64 1.358 . S
C67 C66 1.429 . S
C67 H77 0.930 . S
C68 C64 1.332 . S
C68 C69 1.394 . S
C68 H78 0.932 . S
C69 C65 1.308 . S
C69 C68 1.394 . S
C69 H79 0.929 . S
C70 Tb41 2.764 . S
C70 O54 1.239 . S
C70 O55 1.263 . S
C70 C64 1.504 . S
C71 O56 1.236 . S
C71 O57 1.257 . S
H72 C45 0.932 . S
H73 C46 0.930 . S
H74 C47 0.932 . S
H75 C48 0.929 . S
H76 C66 0.932 . S
H77 C67 0.930 . S
H78 C68 0.932 . S
H79 C69 0.929 . S
Tb80 C89 2.764 . S
Tb80 O90 2.325 . S
Tb80 O93 2.303 . S
Tb80 O97 2.322 . S
Tb80 O98 2.349 . S
Tb80 O101 2.415 . S
Tb80 O102 2.399 . S
Tb81 O91 2.322 . S
Tb81 O92 2.349 . S
Tb81 O94 2.415 . S
Tb81 O95 2.399 . S
Tb81 O96 2.325 . S
Tb81 O99 2.303 . S
Tb81 C110 2.764 . S
C82 O98 1.261 . S
C82 O99 1.257 . S
C83 C86 1.358 . S
C83 C87 1.332 . S
C83 C89 1.504 . S
C84 C85 1.373 . S
C84 C88 1.308 . S
C85 C84 1.373 . S
C85 C86 1.429 . S
C85 H112 0.932 . S
C86 C83 1.358 . S
C86 C85 1.429 . S
C86 H113 0.930 . S
C87 C83 1.332 . S
C87 C88 1.394 . S
C87 H114 0.932 . S
C88 C84 1.308 . S
C88 C87 1.394 . S
C88 H115 0.929 . S
C89 Tb80 2.764 . S
C89 C83 1.504 . S
C89 O101 1.239 . S
C89 O102 1.263 . S
O90 Tb80 2.325 . S
O90 C100 1.236 . S
O91 Tb81 2.322 . S
O91 C100 1.257 . S
O92 Tb81 2.349 . S
O92 C103 1.261 . S
O93 Tb80 2.303 . S
O93 C103 1.257 . S
O94 Tb81 2.415 . S
O94 C110 1.239 . S
O95 Tb81 2.399 . S
O95 C110 1.263 . S
O96 Tb81 2.325 . S
O96 C111 1.236 . S
O97 Tb80 2.322 . S
O97 C111 1.257 . S
O98 Tb80 2.349 . S
O98 C82 1.261 . S
O99 Tb81 2.303 . S
O99 C82 1.257 . S
C100 O90 1.236 . S
C100 O91 1.257 . S
O101 Tb80 2.415 . S
O101 C89 1.239 . S
O102 Tb80 2.399 . S
O102 C89 1.263 . S
C103 O92 1.261 . S
C103 O93 1.257 . S
C104 C107 1.358 . S
C104 C108 1.332 . S
C104 C110 1.504 . S
C105 C106 1.373 . S
C105 C109 1.308 . S
C106 C105 1.373 . S
C106 C107 1.429 . S
C106 H116 0.932 . S
C107 C104 1.358 . S
C107 C106 1.429 . S
C107 H117 0.930 . S
C108 C104 1.332 . S
C108 C109 1.394 . S
C108 H118 0.932 . S
C109 C105 1.308 . S
C109 C108 1.394 . S
C109 H119 0.929 . S
C110 Tb81 2.764 . S
C110 O94 1.239 . S
C110 O95 1.263 . S
C110 C104 1.504 . S
C111 O96 1.236 . S
C111 O97 1.257 . S
H112 C85 0.932 . S
H113 C86 0.930 . S
H114 C87 0.932 . S
H115 C88 0.929 . S
H116 C106 0.932 . S
H117 C107 0.930 . S
H118 C108 0.932 . S
H119 C109 0.929 . S
C120 C121 1.384 . S
C120 H133 0.947 . S
C120 C155 1.382 . S
C121 C120 1.384 . S
C121 C122 1.378 . S
C122 C121 1.378 . S
C122 C123 1.378 . S
C122 H134 0.952 . S
C123 C122 1.378 . S
C123 H135 0.950 . S
C123 C154 1.383 . S
H124 C143 0.947 . S
H125 C144 0.946 . S
H126 C146 0.953 . S
H127 C147 0.945 . S
H128 C149 0.952 . S
H129 C150 0.949 . S
H130 C152 0.950 1_565 S
H131 C153 0.944 1_565 S
H132 C155 0.951 . S
H133 C120 0.947 . S
H134 C122 0.952 . S
H135 C123 0.950 . S
N136 C139 1.382 . S
N136 C141 1.363 1_545 S
N137 C139 1.371 . S
N137 C140 1.372 . S
N138 C140 1.347 1_565 S
N138 C141 1.379 . S
C139 N136 1.382 . S
C139 N137 1.371 . S
C139 C142 1.480 . S
C140 N137 1.372 . S
C140 N138 1.347 1_545 S
C140 C148 1.457 . S
C141 N136 1.363 1_565 S
C141 N138 1.379 . S
C141 C154 1.479 . S
C142 C139 1.480 . S
C142 C143 1.383 . S
C142 C147 1.385 . S
C143 H124 0.947 . S
C143 C142 1.383 . S
C143 C144 1.388 . S
C144 H125 0.946 . S
C144 C143 1.388 . S
C144 C145 1.384 . S
C145 C144 1.384 . S
C145 C146 1.377 . S
C146 H126 0.953 . S
C146 C145 1.377 . S
C146 C147 1.369 . S
C147 H127 0.945 . S
C147 C142 1.385 . S
C147 C146 1.369 . S
C148 C140 1.457 . S
C148 C149 1.372 . S
C148 C153 1.367 . S
C149 H128 0.952 . S
C149 C148 1.372 . S
C149 C150 1.389 . S
C150 H129 0.949 . S
C150 C149 1.389 . S
C150 C151 1.387 . S
C151 C150 1.387 . S
C151 C152 1.372 . S
C152 H130 0.950 1_545 S
C152 C151 1.372 . S
C152 C153 1.379 . S
C153 H131 0.944 1_545 S
C153 C148 1.367 . S
C153 C152 1.379 . S
C154 C123 1.383 . S
C154 C141 1.479 . S
C154 C155 1.398 . S
C155 C120 1.382 . S
C155 H132 0.951 . S
C155 C154 1.398 . S
C156 C157 1.384 . S
C156 H169 0.947 . S
C156 C191 1.382 . S
C157 C156 1.384 . S
C157 C158 1.378 . S
C158 C157 1.378 . S
C158 C159 1.378 . S
C158 H170 0.952 . S
C159 C158 1.378 . S
C159 H171 0.950 . S
C159 C190 1.383 . S
H160 C179 0.947 . S
H161 C180 0.946 . S
H162 C182 0.953 . S
H163 C183 0.945 . S
H164 C185 0.952 . S
H165 C186 0.949 . S
H166 C188 0.950 . S
H167 C189 0.948 . S
H168 C191 0.951 . S
H169 C156 0.947 . S
H170 C158 0.952 . S
H171 C159 0.950 . S
N172 C175 1.382 . S
N172 C177 1.363 . S
N173 C175 1.371 . S
N173 C176 1.372 . S
N174 C176 1.361 . S
N174 C177 1.377 . S
C175 N172 1.382 . S
C175 N173 1.371 . S
C175 C178 1.480 . S
C176 N173 1.372 . S
C176 N174 1.361 . S
C176 C184 1.457 . S
C177 N172 1.363 . S
C177 N174 1.377 . S
C177 C190 1.479 . S
C178 C175 1.480 . S
C178 C179 1.383 . S
C178 C183 1.385 . S
C179 H160 0.947 . S
C179 C178 1.383 . S
C179 C180 1.388 . S
C180 H161 0.946 . S
C180 C179 1.388 . S
C180 C181 1.384 . S
C181 C180 1.384 . S
C181 C182 1.377 . S
C182 H162 0.953 . S
C182 C181 1.377 . S
C182 C183 1.369 . S
C183 H163 0.945 . S
C183 C178 1.385 . S
C183 C182 1.369 . S
C184 C176 1.457 . S
C184 C185 1.372 . S
C184 C189 1.364 . S
C185 H164 0.952 . S
C185 C184 1.372 . S
C185 C186 1.389 . S
C186 H165 0.949 . S
C186 C185 1.389 . S
C186 C187 1.387 . S
C187 C186 1.387 . S
C187 C188 1.372 . S
C188 H166 0.950 . S
C188 C187 1.372 . S
C188 C189 1.379 . S
C189 H167 0.948 . S
C189 C184 1.364 . S
C189 C188 1.379 . S
C190 C159 1.383 . S
C190 C177 1.479 . S
C190 C191 1.398 . S
C191 C156 1.382 . S
C191 H168 0.951 . S
C191 C190 1.398 . S
C192 C193 1.384 . S
C192 H205 0.947 . S
C192 C227 1.382 . S
C193 C192 1.384 . S
C193 C194 1.378 . S
C194 C193 1.378 . S
C194 C195 1.378 1_655 S
C194 H206 0.952 . S
C195 C194 1.378 1_455 S
C195 H207 0.950 . S
C195 C226 1.383 . S
H196 C215 0.947 . S
H197 C216 0.946 . S
H198 C218 0.953 . S
H199 C219 0.945 . S
H200 C221 0.952 . S
H201 C222 0.949 . S
H202 C224 0.950 . S
H203 C225 0.948 . S
H204 C227 0.951 . S
H205 C192 0.947 . S
H206 C194 0.952 . S
H207 C195 0.950 . S
N208 C211 1.382 . S
N208 C213 1.363 . S
N209 C211 1.371 . S
N209 C212 1.372 . S
N210 C212 1.361 . S
N210 C213 1.377 . S
C211 N208 1.382 . S
C211 N209 1.371 . S
C211 C214 1.480 . S
C212 N209 1.372 . S
C212 N210 1.361 . S
C212 C220 1.457 . S
C213 N208 1.363 . S
C213 N210 1.377 . S
C213 C226 1.479 . S
C214 C211 1.480 . S
C214 C215 1.383 . S
C214 C219 1.385 . S
C215 H196 0.947 . S
C215 C214 1.383 . S
C215 C216 1.388 . S
C216 H197 0.946 . S
C216 C215 1.388 . S
C216 C217 1.384 . S
C217 C216 1.384 . S
C217 C218 1.377 . S
C218 H198 0.953 . S
C218 C217 1.377 . S
C218 C219 1.369 . S
C219 H199 0.945 . S
C219 C214 1.385 . S
C219 C218 1.369 . S
C220 C212 1.457 . S
C220 C221 1.372 . S
C220 C225 1.364 . S
C221 H200 0.952 . S
C221 C220 1.372 . S
C221 C222 1.389 . S
C222 H201 0.949 . S
C222 C221 1.389 . S
C222 C223 1.387 . S
C223 C222 1.387 . S
C223 C224 1.372 . S
C224 H202 0.950 . S
C224 C223 1.372 . S
C224 C225 1.379 . S
C225 H203 0.948 . S
C225 C220 1.364 . S
C225 C224 1.379 . S
C226 C195 1.383 . S
C226 C213 1.479 . S
C226 C227 1.398 1_455 S
C227 C192 1.382 . S
C227 H204 0.951 . S
C227 C226 1.398 1_655 S
C228 C229 1.384 . S
C228 H241 0.947 . S
C228 C263 1.382 . S
C229 C228 1.384 . S
C229 C230 1.378 . S
C230 C229 1.378 . S
C230 C231 1.378 . S
C230 H242 0.952 . S
C231 C230 1.378 . S
C231 H243 0.950 . S
C231 C262 1.383 . S
H232 C251 0.947 . S
H233 C252 0.946 . S
H234 C254 0.953 . S
H235 C255 0.945 . S
H236 C257 0.952 . S
H237 C258 0.949 . S
H238 C260 0.950 . S
H239 C261 0.948 . S
H240 C263 0.951 . S
H241 C228 0.947 . S
H242 C230 0.952 . S
H243 C231 0.950 . S
N244 C247 1.382 1_455 S
N244 C249 1.363 . S
N245 C247 1.371 . S
N245 C248 1.372 1_655 S
N246 C248 1.361 . S
N246 C249 1.377 . S
C247 N244 1.382 1_655 S
C247 N245 1.371 . S
C247 C250 1.480 . S
C248 N245 1.372 1_455 S
C248 N246 1.361 . S
C248 C256 1.457 . S
C249 N244 1.363 . S
C249 N246 1.377 . S
C249 C262 1.479 . S
C250 C247 1.480 . S
C250 C251 1.383 . S
C250 C255 1.385 . S
C251 H232 0.947 . S
C251 C250 1.383 . S
C251 C252 1.388 . S
C252 H233 0.946 . S
C252 C251 1.388 . S
C252 C253 1.384 . S
C253 C252 1.384 . S
C253 C254 1.377 . S
C254 H234 0.953 . S
C254 C253 1.377 . S
C254 C255 1.369 . S
C255 H235 0.945 . S
C255 C250 1.385 . S
C255 C254 1.369 . S
C256 C248 1.457 . S
C256 C257 1.372 1_455 S
C256 C261 1.364 . S
C257 H236 0.952 . S
C257 C256 1.372 1_655 S
C257 C258 1.389 . S
C258 H237 0.949 . S
C258 C257 1.389 . S
C258 C259 1.384 1_655 S
C259 C258 1.384 1_455 S
C259 C260 1.375 . S
C260 H238 0.950 . S
C260 C259 1.375 . S
C260 C261 1.379 . S
C261 H239 0.948 . S
C261 C256 1.364 . S
C261 C260 1.379 . S
C262 C231 1.383 . S
C262 C249 1.479 . S
C262 C263 1.398 . S
C263 C228 1.382 . S
C263 H240 0.951 . S
C263 C262 1.398 . S
C264 C265 1.384 . S
C264 H277 0.947 . S
C264 C299 1.382 . S
C265 C264 1.384 . S
C265 C266 1.378 . S
C266 C265 1.378 . S
C266 C267 1.378 . S
C266 H278 0.952 . S
C267 C266 1.378 . S
C267 H279 0.950 . S
C267 C298 1.383 . S
H268 C287 0.947 . S
H269 C288 0.946 . S
H270 C290 0.953 . S
H271 C291 0.945 . S
H272 C293 0.952 . S
H273 C294 0.949 . S
H274 C296 0.950 . S
H275 C297 0.948 . S
H276 C299 0.951 . S
H277 C264 0.947 . S
H278 C266 0.952 . S
H279 C267 0.950 . S
N280 C283 1.382 1_545 S
N280 C285 1.363 . S
N281 C283 1.371 . S
N281 C284 1.372 1_565 S
N282 C284 1.361 . S
N282 C285 1.377 . S
C283 N280 1.382 1_565 S
C283 N281 1.371 . S
C283 C286 1.480 . S
C284 N281 1.372 1_545 S
C284 N282 1.361 . S
C284 C292 1.457 . S
C285 N280 1.363 . S
C285 N282 1.377 . S
C285 C298 1.479 . S
C286 C283 1.480 . S
C286 C287 1.383 . S
C286 C291 1.385 . S
C287 H268 0.947 . S
C287 C286 1.383 . S
C287 C288 1.388 . S
C288 H269 0.946 . S
C288 C287 1.388 . S
C288 C289 1.384 . S
C289 C288 1.384 . S
C289 C290 1.377 . S
C290 H270 0.953 . S
C290 C289 1.377 . S
C290 C291 1.369 . S
C291 H271 0.945 . S
C291 C286 1.385 . S
C291 C290 1.369 . S
C292 C284 1.457 . S
C292 C293 1.372 1_545 S
C292 C297 1.364 . S
C293 H272 0.952 . S
C293 C292 1.372 1_565 S
C293 C294 1.389 . S
C294 H273 0.949 . S
C294 C293 1.389 . S
C294 C295 1.387 . S
C295 C294 1.387 . S
C295 C296 1.372 1_565 S
C296 H274 0.950 . S
C296 C295 1.372 1_545 S
C296 C297 1.379 . S
C297 H275 0.948 . S
C297 C292 1.364 . S
C297 C296 1.379 . S
C298 C267 1.383 . S
C298 C285 1.479 . S
C298 C299 1.398 . S
C299 C264 1.382 . S
C299 H276 0.951 . S
C299 C298 1.398 . S
C300 C301 1.384 . S
C300 H313 0.947 . S
C300 C335 1.382 . S
C301 C300 1.384 . S
C301 C302 1.378 . S
C302 C301 1.378 . S
C302 C303 1.378 . S
C302 H314 0.952 . S
C303 C302 1.378 . S
C303 H315 0.950 . S
C303 C334 1.383 . S
H304 C323 0.947 . S
H305 C324 0.946 . S
H306 C326 0.953 . S
H307 C327 0.945 . S
H308 C329 0.952 . S
H309 C330 0.949 . S
H310 C332 0.950 . S
H311 C333 0.948 . S
H312 C335 0.951 . S
H313 C300 0.947 . S
H314 C302 0.952 . S
H315 C303 0.950 . S
N316 C319 1.382 . S
N316 C321 1.363 . S
N317 C319 1.371 . S
N317 C320 1.372 . S
N318 C320 1.361 . S
N318 C321 1.377 . S
C319 N316 1.382 . S
C319 N317 1.371 . S
C319 C322 1.480 . S
C320 N317 1.372 . S
C320 N318 1.361 . S
C320 C328 1.457 . S
C321 N316 1.363 . S
C321 N318 1.377 . S
C321 C334 1.479 . S
C322 C319 1.480 . S
C322 C323 1.383 . S
C322 C327 1.385 . S
C323 H304 0.947 . S
C323 C322 1.383 . S
C323 C324 1.388 . S
C324 H305 0.946 . S
C324 C323 1.388 . S
C324 C325 1.384 . S
C325 C324 1.384 . S
C325 C326 1.377 . S
C326 H306 0.953 . S
C326 C325 1.377 . S
C326 C327 1.369 . S
C327 H307 0.945 . S
C327 C322 1.385 . S
C327 C326 1.369 . S
C328 C320 1.457 . S
C328 C329 1.372 . S
C328 C333 1.364 . S
C329 H308 0.952 . S
C329 C328 1.372 . S
C329 C330 1.389 . S
C330 H309 0.949 . S
C330 C329 1.389 . S
C330 C331 1.387 . S
C331 C330 1.387 . S
C331 C332 1.372 . S
C332 H310 0.950 . S
C332 C331 1.372 . S
C332 C333 1.379 . S
C333 H311 0.948 . S
C333 C328 1.364 . S
C333 C332 1.379 . S
C334 C303 1.383 . S
C334 C321 1.479 . S
C334 C335 1.398 . S
C335 C300 1.382 . S
C335 H312 0.951 . S
C335 C334 1.398 . S
C336 C337 1.349 . S
C336 C338 1.327 . S
C336 H361 0.950 . S
C337 C336 1.349 . S
C337 C353 1.349 . S
C338 C336 1.327 . S
C338 C357 1.429 . S
C338 H362 0.950 . S
C339 C356 1.574 . S
C339 C358 1.368 . S
C339 H363 0.949 . S
H340 C344 0.949 . S
C341 C342 1.349 . S
C341 C343 1.327 . S
C341 H364 0.950 . S
C342 C341 1.349 . S
C342 C354 1.349 . S
C343 C341 1.327 . S
C343 C359 1.429 . S
C343 H365 0.950 . S
C344 H340 0.949 . S
C344 C352 1.574 . S
C344 C360 1.368 . S
H345 C353 0.950 . S
H346 C351 0.950 . S
H347 C352 0.949 . S
H348 C354 0.950 . S
H349 C355 0.950 . S
H350 C356 0.949 . S
C351 H346 0.950 . S
C351 C353 1.327 . S
C351 C357 1.429 . S
C352 C344 1.574 . S
C352 H347 0.949 . S
C352 C358 1.368 . S
C353 C337 1.349 . S
C353 H345 0.950 . S
C353 C351 1.327 . S
C354 C342 1.349 . S
C354 H348 0.950 . S
C354 C355 1.327 . S
C355 H349 0.950 . S
C355 C354 1.327 . S
C355 C359 1.429 . S
C356 C339 1.574 . S
C356 H350 0.949 . S
C356 C360 1.368 . S
C357 C338 1.429 . S
C357 C351 1.429 . S
C357 C358 1.523 . S
C358 C339 1.368 . S
C358 C352 1.368 . S
C358 C357 1.523 . S
C359 C343 1.429 . S
C359 C355 1.429 . S
C359 C360 1.523 . S
C360 C344 1.368 . S
C360 C356 1.368 . S
C360 C359 1.523 . S
H361 C336 0.950 . S
H362 C338 0.950 . S
H363 C339 0.949 . S
H364 C341 0.950 . S
H365 C343 0.950 . S
C366 C367 1.349 . S
C366 C368 1.327 . S
C366 H391 0.950 . S
C367 C366 1.349 . S
C367 C383 1.349 . S
C368 C366 1.327 . S
C368 C387 1.429 . S
C368 H392 0.950 . S
C369 C386 1.574 . S
C369 C388 1.368 . S
C369 H393 0.949 . S
H370 C374 0.949 . S
C371 C372 1.349 . S
C371 C373 1.327 . S
C371 H394 0.950 . S
C372 C371 1.349 . S
C372 C384 1.349 . S
C373 C371 1.327 . S
C373 C389 1.429 . S
C373 H395 0.950 . S
C374 H370 0.949 . S
C374 C382 1.574 . S
C374 C390 1.368 . S
H375 C383 0.950 . S
H376 C381 0.950 . S
H377 C382 0.949 . S
H378 C384 0.950 . S
H379 C385 0.950 . S
H380 C386 0.949 . S
C381 H376 0.950 . S
C381 C383 1.327 . S
C381 C387 1.429 . S
C382 C374 1.574 . S
C382 H377 0.949 . S
C382 C388 1.368 . S
C383 C367 1.349 . S
C383 H375 0.950 . S
C383 C381 1.327 . S
C384 C372 1.349 . S
C384 H378 0.950 . S
C384 C385 1.327 . S
C385 H379 0.950 . S
C385 C384 1.327 . S
C385 C389 1.429 . S
C386 C369 1.574 . S
C386 H380 0.949 . S
C386 C390 1.368 . S
C387 C368 1.429 . S
C387 C381 1.429 . S
C387 C388 1.523 . S
C388 C369 1.368 . S
C388 C382 1.368 . S
C388 C387 1.523 . S
C389 C373 1.429 . S
C389 C385 1.429 . S
C389 C390 1.523 . S
C390 C374 1.368 . S
C390 C386 1.368 . S
C390 C389 1.523 . S
H391 C366 0.950 . S
H392 C368 0.950 . S
H393 C369 0.949 . S
H394 C371 0.950 . S
H395 C373 0.950 . S
C396 C397 1.349 . S
C396 C398 1.327 . S
C396 H421 0.950 . S
C397 C396 1.349 . S
C397 C413 1.349 . S
C398 C396 1.327 . S
C398 C417 1.429 . S
C398 H422 0.950 . S
C399 C416 1.574 . S
C399 C418 1.368 . S
C399 H423 0.949 . S
H400 C404 0.949 . S
C401 C402 1.349 . S
C401 C403 1.327 . S
C401 H424 0.950 . S
C402 C401 1.349 . S
C402 C414 1.349 . S
C403 C401 1.327 . S
C403 C419 1.429 . S
C403 H425 0.950 . S
C404 H400 0.949 . S
C404 C412 1.574 . S
C404 C420 1.368 . S
H405 C413 0.950 . S
H406 C411 0.950 . S
H407 C412 0.949 . S
H408 C414 0.950 . S
H409 C415 0.950 . S
H410 C416 0.949 . S
C411 H406 0.950 . S
C411 C413 1.327 . S
C411 C417 1.429 . S
C412 C404 1.574 . S
C412 H407 0.949 . S
C412 C418 1.368 . S
C413 C397 1.349 . S
C413 H405 0.950 . S
C413 C411 1.327 . S
C414 C402 1.349 . S
C414 H408 0.950 . S
C414 C415 1.327 . S
C415 H409 0.950 . S
C415 C414 1.327 . S
C415 C419 1.429 . S
C416 C399 1.574 . S
C416 H410 0.949 . S
C416 C420 1.368 . S
C417 C398 1.429 . S
C417 C411 1.429 . S
C417 C418 1.523 . S
C418 C399 1.368 . S
C418 C412 1.368 . S
C418 C417 1.523 . S
C419 C403 1.429 . S
C419 C415 1.429 . S
C419 C420 1.523 . S
C420 C404 1.368 . S
C420 C416 1.368 . S
C420 C419 1.523 . S
H421 C396 0.950 . S
H422 C398 0.950 . S
H423 C399 0.949 . S
H424 C401 0.950 . S
H425 C403 0.950 . S
C426 C427 1.349 . S
C426 C428 1.327 . S
C426 H451 0.950 . S
C427 C426 1.349 . S
C427 C443 1.349 . S
C428 C426 1.327 . S
C428 C447 1.429 . S
C428 H452 0.950 . S
C429 C446 1.574 . S
C429 C448 1.368 . S
C429 H453 0.949 . S
H430 C434 0.949 . S
C431 C432 1.349 . S
C431 C433 1.327 . S
C431 H454 0.950 . S
C432 C431 1.349 . S
C432 C444 1.349 . S
C433 C431 1.327 . S
C433 C449 1.429 . S
C433 H455 0.950 . S
C434 H430 0.949 . S
C434 C442 1.574 . S
C434 C450 1.368 . S
H435 C443 0.950 . S
H436 C441 0.950 . S
H437 C442 0.949 . S
H438 C444 0.950 . S
H439 C445 0.950 . S
H440 C446 0.949 . S
C441 H436 0.950 . S
C441 C443 1.327 . S
C441 C447 1.429 . S
C442 C434 1.574 . S
C442 H437 0.949 . S
C442 C448 1.368 . S
C443 C427 1.349 . S
C443 H435 0.950 . S
C443 C441 1.327 . S
C444 C432 1.349 . S
C444 H438 0.950 . S
C444 C445 1.327 . S
C445 H439 0.950 . S
C445 C444 1.327 . S
C445 C449 1.429 . S
C446 C429 1.574 . S
C446 H440 0.949 . S
C446 C450 1.368 . S
C447 C428 1.429 . S
C447 C441 1.429 . S
C447 C448 1.523 . S
C448 C429 1.368 . S
C448 C442 1.368 . S
C448 C447 1.523 . S
C449 C433 1.429 . S
C449 C445 1.429 . S
C449 C450 1.523 . S
C450 C434 1.368 . S
C450 C446 1.368 . S
C450 C449 1.523 . S
H451 C426 0.950 . S
H452 C428 0.950 . S
H453 C429 0.949 . S
H454 C431 0.950 . S
H455 C433 0.950 . S
C456 C457 1.349 . S
C456 C458 1.327 . S
C456 H481 0.950 . S
C457 C456 1.349 . S
C457 C473 1.349 . S
C458 C456 1.327 . S
C458 C477 1.429 . S
C458 H482 0.950 . S
C459 C476 1.574 . S
C459 C478 1.368 . S
C459 H483 0.949 . S
H460 C464 0.949 . S
C461 C462 1.349 . S
C461 C463 1.327 . S
C461 H484 0.950 . S
C462 C461 1.349 . S
C462 C474 1.349 . S
C463 C461 1.327 . S
C463 C479 1.429 . S
C463 H485 0.950 . S
C464 H460 0.949 . S
C464 C472 1.574 . S
C464 C480 1.368 . S
H465 C473 0.950 . S
H466 C471 0.950 . S
H467 C472 0.949 . S
H468 C474 0.950 . S
H469 C475 0.950 . S
H470 C476 0.949 . S
C471 H466 0.950 . S
C471 C473 1.327 . S
C471 C477 1.429 . S
C472 C464 1.574 . S
C472 H467 0.949 . S
C472 C478 1.368 . S
C473 C457 1.349 . S
C473 H465 0.950 . S
C473 C471 1.327 . S
C474 C462 1.349 . S
C474 H468 0.950 . S
C474 C475 1.327 . S
C475 H469 0.950 . S
C475 C474 1.327 . S
C475 C479 1.429 . S
C476 C459 1.574 . S
C476 H470 0.949 . S
C476 C480 1.368 . S
C477 C458 1.429 . S
C477 C471 1.429 . S
C477 C478 1.523 . S
C478 C459 1.368 . S
C478 C472 1.368 . S
C478 C477 1.523 . S
C479 C463 1.429 . S
C479 C475 1.429 . S
C479 C480 1.523 . S
C480 C464 1.368 . S
C480 C476 1.368 . S
C480 C479 1.523 . S
H481 C456 0.950 . S
H482 C458 0.950 . S
H483 C459 0.949 . S
H484 C461 0.950 . S
H485 C463 0.950 . S
C486 C487 1.349 . S
C486 C488 1.327 . S
C486 H511 0.950 . S
C487 C486 1.349 . S
C487 C503 1.349 . S
C488 C486 1.327 . S
C488 C507 1.429 . S
C488 H512 0.950 . S
C489 C506 1.574 . S
C489 C508 1.368 . S
C489 H513 0.949 . S
H490 C494 0.949 . S
C491 C492 1.349 . S
C491 C493 1.327 . S
C491 H514 0.950 . S
C492 C491 1.349 . S
C492 C504 1.349 . S
C493 C491 1.327 . S
C493 C509 1.429 . S
C493 H515 0.950 . S
C494 H490 0.949 . S
C494 C502 1.574 . S
C494 C510 1.368 . S
H495 C503 0.950 . S
H496 C501 0.950 . S
H497 C502 0.949 . S
H498 C504 0.950 . S
H499 C505 0.950 . S
H500 C506 0.949 . S
C501 H496 0.950 . S
C501 C503 1.327 . S
C501 C507 1.429 . S
C502 C494 1.574 . S
C502 H497 0.949 . S
C502 C508 1.368 . S
C503 C487 1.349 . S
C503 H495 0.950 . S
C503 C501 1.327 . S
C504 C492 1.349 . S
C504 H498 0.950 . S
C504 C505 1.327 . S
C505 H499 0.950 . S
C505 C504 1.327 . S
C505 C509 1.429 . S
C506 C489 1.574 . S
C506 H500 0.949 . S
C506 C510 1.368 . S
C507 C488 1.429 . S
C507 C501 1.429 . S
C507 C508 1.523 . S
C508 C489 1.368 . S
C508 C502 1.368 . S
C508 C507 1.523 . S
C509 C493 1.429 . S
C509 C505 1.429 . S
C509 C510 1.523 . S
C510 C494 1.368 . S
C510 C506 1.368 . S
C510 C509 1.523 . S
H511 C486 0.950 . S
H512 C488 0.950 . S
H513 C489 0.949 . S
H514 C491 0.950 . S
H515 C493 0.950 . S
C516 C517 1.349 . S
C516 C518 1.327 . S
C516 H541 0.950 . S
C517 C516 1.349 . S
C517 C533 1.349 . S
C518 C516 1.327 . S
C518 C537 1.429 . S
C518 H542 0.950 . S
C519 C536 1.574 . S
C519 C538 1.368 . S
C519 H543 0.949 . S
H520 C524 0.949 . S
C521 C522 1.349 . S
C521 C523 1.327 . S
C521 H544 0.950 . S
C522 C521 1.349 . S
C522 C534 1.349 . S
C523 C521 1.327 . S
C523 C539 1.429 . S
C523 H545 0.950 . S
C524 H520 0.949 . S
C524 C532 1.574 . S
C524 C540 1.368 . S
H525 C533 0.950 . S
H526 C531 0.950 . S
H527 C532 0.949 . S
H528 C534 0.950 . S
H529 C535 0.950 . S
H530 C536 0.949 . S
C531 H526 0.950 . S
C531 C533 1.327 . S
C531 C537 1.429 . S
C532 C524 1.574 . S
C532 H527 0.949 . S
C532 C538 1.368 . S
C533 C517 1.349 . S
C533 H525 0.950 . S
C533 C531 1.327 . S
C534 C522 1.349 . S
C534 H528 0.950 . S
C534 C535 1.327 . S
C535 H529 0.950 . S
C535 C534 1.327 . S
C535 C539 1.429 . S
C536 C519 1.574 . S
C536 H530 0.949 . S
C536 C540 1.368 . S
C537 C518 1.429 . S
C537 C531 1.429 . S
C537 C538 1.523 . S
C538 C519 1.368 . S
C538 C532 1.368 . S
C538 C537 1.523 . S
C539 C523 1.429 . S
C539 C535 1.429 . S
C539 C540 1.523 . S
C540 C524 1.368 . S
C540 C536 1.368 . S
C540 C539 1.523 . S
H541 C516 0.950 . S
H542 C518 0.950 . S
H543 C519 0.949 . S
H544 C521 0.950 . S
H545 C523 0.950 . S
C546 C547 1.349 . S
C546 C548 1.327 . S
C546 H571 0.950 . S
C547 C546 1.349 . S
C547 C563 1.349 . S
C548 C546 1.327 . S
C548 C567 1.429 . S
C548 H572 0.950 . S
C549 C566 1.574 . S
C549 C568 1.368 . S
C549 H573 0.949 . S
H550 C554 0.949 . S
C551 C552 1.349 . S
C551 C553 1.327 . S
C551 H574 0.950 . S
C552 C551 1.349 . S
C552 C564 1.349 . S
C553 C551 1.327 . S
C553 C569 1.429 . S
C553 H575 0.950 . S
C554 H550 0.949 . S
C554 C562 1.574 . S
C554 C570 1.368 . S
H555 C563 0.950 . S
H556 C561 0.950 . S
H557 C562 0.949 . S
H558 C564 0.950 . S
H559 C565 0.950 . S
H560 C566 0.949 . S
C561 H556 0.950 . S
C561 C563 1.327 . S
C561 C567 1.429 . S
C562 C554 1.574 . S
C562 H557 0.949 . S
C562 C568 1.368 . S
C563 C547 1.349 . S
C563 H555 0.950 . S
C563 C561 1.327 . S
C564 C552 1.349 . S
C564 H558 0.950 . S
C564 C565 1.327 . S
C565 H559 0.950 . S
C565 C564 1.327 . S
C565 C569 1.429 . S
C566 C549 1.574 . S
C566 H560 0.949 . S
C566 C570 1.368 . S
C567 C548 1.429 . S
C567 C561 1.429 . S
C567 C568 1.523 . S
C568 C549 1.368 . S
C568 C562 1.368 . S
C568 C567 1.523 . S
C569 C553 1.429 . S
C569 C565 1.429 . S
C569 C570 1.523 . S
C570 C554 1.368 . S
C570 C566 1.368 . S
C570 C569 1.523 . S
H571 C546 0.950 . S
H572 C548 0.950 . S
H573 C549 0.949 . S
H574 C551 0.950 . S
H575 C553 0.950 . S
C576 C577 1.349 . S
C576 C578 1.327 . S
C576 H601 0.950 . S
C577 C576 1.349 . S
C577 C593 1.349 . S
C578 C576 1.327 . S
C578 C597 1.429 . S
C578 H602 0.950 . S
C579 C596 1.574 . S
C579 C598 1.368 . S
C579 H603 0.949 . S
H580 C584 0.949 . S
C581 C582 1.349 . S
C581 C583 1.327 . S
C581 H604 0.950 . S
C582 C581 1.349 . S
C582 C594 1.349 . S
C583 C581 1.327 . S
C583 C599 1.429 . S
C583 H605 0.950 . S
C584 H580 0.949 . S
C584 C592 1.574 . S
C584 C600 1.368 . S
H585 C593 0.950 . S
H586 C591 0.950 . S
H587 C592 0.949 . S
H588 C594 0.950 . S
H589 C595 0.950 . S
H590 C596 0.949 . S
C591 H586 0.950 . S
C591 C593 1.327 . S
C591 C597 1.429 . S
C592 C584 1.574 . S
C592 H587 0.949 . S
C592 C598 1.368 . S
C593 C577 1.349 . S
C593 H585 0.950 . S
C593 C591 1.327 . S
C594 C582 1.349 . S
C594 H588 0.950 . S
C594 C595 1.327 . S
C595 H589 0.950 . S
C595 C594 1.327 . S
C595 C599 1.429 . S
C596 C579 1.574 . S
C596 H590 0.949 . S
C596 C600 1.368 . S
C597 C578 1.429 . S
C597 C591 1.429 . S
C597 C598 1.523 . S
C598 C579 1.368 . S
C598 C592 1.368 . S
C598 C597 1.523 . S
C599 C583 1.429 . S
C599 C595 1.429 . S
C599 C600 1.523 . S
C600 C584 1.368 . S
C600 C596 1.368 . S
C600 C599 1.523 . S
H601 C576 0.950 . S
H602 C578 0.950 . S
H603 C579 0.949 . S
H604 C581 0.950 . S
H605 C583 0.950 . S
C606 C607 1.349 . S
C606 C608 1.327 . S
C606 H631 0.950 . S
C607 C606 1.349 . S
C607 C623 1.349 . S
C608 C606 1.327 . S
C608 C627 1.429 . S
C608 H632 0.950 . S
C609 C626 1.574 . S
C609 C628 1.368 . S
C609 H633 0.949 . S
H610 C614 0.949 . S
C611 C612 1.349 . S
C611 C613 1.327 . S
C611 H634 0.950 . S
C612 C611 1.349 . S
C612 C624 1.349 . S
C613 C611 1.327 . S
C613 C629 1.429 . S
C613 H635 0.950 . S
C614 H610 0.949 . S
C614 C622 1.574 . S
C614 C630 1.368 . S
H615 C623 0.950 . S
H616 C621 0.950 . S
H617 C622 0.949 . S
H618 C624 0.950 . S
H619 C625 0.950 . S
H620 C626 0.949 . S
C621 H616 0.950 . S
C621 C623 1.327 . S
C621 C627 1.429 . S
C622 C614 1.574 . S
C622 H617 0.949 . S
C622 C628 1.368 . S
C623 C607 1.349 . S
C623 H615 0.950 . S
C623 C621 1.327 . S
C624 C612 1.349 . S
C624 H618 0.950 . S
C624 C625 1.327 . S
C625 H619 0.950 . S
C625 C624 1.327 . S
C625 C629 1.429 . S
C626 C609 1.574 . S
C626 H620 0.949 . S
C626 C630 1.368 . S
C627 C608 1.429 . S
C627 C621 1.429 . S
C627 C628 1.523 . S
C628 C609 1.368 . S
C628 C622 1.368 . S
C628 C627 1.523 . S
C629 C613 1.429 . S
C629 C625 1.429 . S
C629 C630 1.523 . S
C630 C614 1.368 . S
C630 C626 1.368 . S
C630 C629 1.523 . S
H631 C606 0.950 . S
H632 C608 0.950 . S
H633 C609 0.949 . S
H634 C611 0.950 . S
H635 C613 0.950 . S
C636 C637 1.349 . S
C636 C638 1.327 . S
C636 H661 0.950 . S
C637 C636 1.349 . S
C637 C653 1.349 . S
C638 C636 1.327 . S
C638 C657 1.429 . S
C638 H662 0.950 . S
C639 C656 1.574 . S
C639 C658 1.368 . S
C639 H663 0.949 . S
H640 C644 0.949 . S
C641 C642 1.349 . S
C641 C643 1.327 . S
C641 H664 0.950 . S
C642 C641 1.349 . S
C642 C654 1.349 . S
C643 C641 1.327 . S
C643 C659 1.429 . S
C643 H665 0.950 . S
C644 H640 0.949 . S
C644 C652 1.574 . S
C644 C660 1.368 . S
H645 C653 0.950 . S
H646 C651 0.950 . S
H647 C652 0.949 . S
H648 C654 0.950 . S
H649 C655 0.950 . S
H650 C656 0.949 . S
C651 H646 0.950 . S
C651 C653 1.327 . S
C651 C657 1.429 . S
C652 C644 1.574 . S
C652 H647 0.949 . S
C652 C658 1.368 . S
C653 C637 1.349 . S
C653 H645 0.950 . S
C653 C651 1.327 . S
C654 C642 1.349 . S
C654 H648 0.950 . S
C654 C655 1.327 . S
C655 H649 0.950 . S
C655 C654 1.327 . S
C655 C659 1.429 . S
C656 C639 1.574 . S
C656 H650 0.949 . S
C656 C660 1.368 . S
C657 C638 1.429 . S
C657 C651 1.429 . S
C657 C658 1.523 . S
C658 C639 1.368 . S
C658 C652 1.368 . S
C658 C657 1.523 . S
C659 C643 1.429 . S
C659 C655 1.429 . S
C659 C660 1.523 . S
C660 C644 1.368 . S
C660 C656 1.368 . S
C660 C659 1.523 . S
H661 C636 0.950 . S
H662 C638 0.950 . S
H663 C639 0.949 . S
H664 C641 0.950 . S
H665 C643 0.950 . S
C666 C667 1.349 . S
C666 C668 1.327 . S
C666 H691 0.950 . S
C667 C666 1.349 . S
C667 C683 1.349 . S
C668 C666 1.327 . S
C668 C687 1.429 . S
C668 H692 0.950 . S
C669 C686 1.574 . S
C669 C688 1.368 . S
C669 H693 0.949 . S
H670 C674 0.949 . S
C671 C672 1.349 . S
C671 C673 1.327 . S
C671 H694 0.950 . S
C672 C671 1.349 . S
C672 C684 1.349 . S
C673 C671 1.327 . S
C673 C689 1.429 . S
C673 H695 0.950 . S
C674 H670 0.949 . S
C674 C682 1.574 . S
C674 C690 1.368 . S
H675 C683 0.950 . S
H676 C681 0.950 . S
H677 C682 0.949 . S
H678 C684 0.950 . S
H679 C685 0.950 . S
H680 C686 0.949 . S
C681 H676 0.950 . S
C681 C683 1.327 . S
C681 C687 1.429 . S
C682 C674 1.574 . S
C682 H677 0.949 . S
C682 C688 1.368 . S
C683 C667 1.349 . S
C683 H675 0.950 . S
C683 C681 1.327 . S
C684 C672 1.349 . S
C684 H678 0.950 . S
C684 C685 1.327 . S
C685 H679 0.950 . S
C685 C684 1.327 . S
C685 C689 1.429 . S
C686 C669 1.574 . S
C686 H680 0.949 . S
C686 C690 1.368 . S
C687 C668 1.429 . S
C687 C681 1.429 . S
C687 C688 1.523 . S
C688 C669 1.368 . S
C688 C682 1.368 . S
C688 C687 1.523 . S
C689 C673 1.429 . S
C689 C685 1.429 . S
C689 C690 1.523 . S
C690 C674 1.368 . S
C690 C686 1.368 . S
C690 C689 1.523 . S
H691 C666 0.950 . S
H692 C668 0.950 . S
H693 C669 0.949 . S
H694 C671 0.950 . S
H695 C673 0.950 . S
C696 C697 1.349 . S
C696 C698 1.327 . S
C696 H721 0.950 . S
C697 C696 1.349 . S
C697 C713 1.349 . S
C698 C696 1.327 . S
C698 C717 1.429 . S
C698 H722 0.950 . S
C699 C716 1.574 . S
C699 C718 1.368 . S
C699 H723 0.949 . S
H700 C704 0.949 . S
C701 C702 1.349 . S
C701 C703 1.327 1_556 S
C701 H724 0.950 . S
C702 C701 1.349 . S
C702 C714 1.349 . S
C703 C701 1.327 1_554 S
C703 C719 1.429 . S
C703 H725 0.950 . S
C704 H700 0.949 . S
C704 C712 1.574 . S
C704 C720 1.368 . S
H705 C713 0.943 1_655 S
H706 C711 0.971 . S
H707 C712 0.949 . S
H708 C714 0.950 . S
H709 C715 0.950 . S
H710 C716 0.949 . S
C711 H706 0.971 . S
C711 C713 1.327 . S
C711 C717 1.429 . S
C712 C704 1.574 . S
C712 H707 0.949 . S
C712 C718 1.368 . S
C713 C697 1.349 . S
C713 H705 0.943 1_455 S
C713 C711 1.327 . S
C714 C702 1.349 . S
C714 H708 0.950 . S
C714 C715 1.327 1_556 S
C715 H709 0.950 . S
C715 C714 1.327 1_554 S
C715 C719 1.429 . S
C716 C699 1.574 . S
C716 H710 0.949 . S
C716 C720 1.368 . S
C717 C698 1.429 . S
C717 C711 1.429 . S
C717 C718 1.523 . S
C718 C699 1.368 . S
C718 C712 1.368 . S
C718 C717 1.523 . S
C719 C703 1.429 . S
C719 C715 1.429 . S
C719 C720 1.523 . S
C720 C704 1.368 . S
C720 C716 1.368 . S
C720 C719 1.523 . S
H721 C696 0.950 . S
H722 C698 0.950 . S
H723 C699 0.949 . S
H724 C701 0.950 . S
H725 C703 0.950 . S
C726 C727 1.349 . S
C726 C728 1.327 . S
C726 H751 0.950 1_545 S
C727 C726 1.349 . S
C727 C743 1.349 . S
C728 C726 1.327 . S
C728 C747 1.429 . S
C728 H752 0.950 1_545 S
C729 C746 1.574 . S
C729 C748 1.368 . S
C729 H753 0.949 . S
H730 C734 0.949 1_565 S
C731 C732 1.349 . S
C731 C733 1.327 . S
C731 H754 0.950 . S
C732 C731 1.349 . S
C732 C744 1.349 . S
C733 C731 1.327 . S
C733 C749 1.429 . S
C733 H755 0.950 . S
C734 H730 0.949 1_545 S
C734 C742 1.574 . S
C734 C750 1.368 . S
H735 C743 0.950 . S
H736 C741 0.950 . S
H737 C742 0.949 1_565 S
H738 C744 0.950 1_565 S
H739 C745 0.950 1_565 S
H740 C746 0.949 . S
C741 H736 0.950 . S
C741 C743 1.327 . S
C741 C747 1.429 . S
C742 C734 1.574 . S
C742 H737 0.949 1_545 S
C742 C748 1.368 . S
C743 C727 1.349 . S
C743 H735 0.950 . S
C743 C741 1.327 . S
C744 C732 1.349 . S
C744 H738 0.950 1_545 S
C744 C745 1.327 . S
C745 H739 0.950 1_545 S
C745 C744 1.327 . S
C745 C749 1.429 . S
C746 C729 1.574 . S
C746 H740 0.949 . S
C746 C750 1.368 . S
C747 C728 1.429 . S
C747 C741 1.429 . S
C747 C748 1.523 . S
C748 C729 1.368 . S
C748 C742 1.368 . S
C748 C747 1.523 . S
C749 C733 1.429 . S
C749 C745 1.429 . S
C749 C750 1.523 . S
C750 C734 1.368 . S
C750 C746 1.368 . S
C750 C749 1.523 . S
H751 C726 0.950 1_565 S
H752 C728 0.950 1_565 S
H753 C729 0.949 . S
H754 C731 0.950 . S
H755 C733 0.950 . S
C756 C757 1.349 . S
C756 C758 1.327 . S
C756 H781 0.950 . S
C757 C756 1.349 . S
C757 C773 1.349 . S
C758 C756 1.327 . S
C758 C777 1.429 . S
C758 H782 0.950 . S
C759 C776 1.574 . S
C759 C778 1.368 . S
C759 H783 0.949 . S
H760 C764 0.949 . S
C761 C762 1.349 . S
C761 C763 1.327 . S
C761 H784 0.950 . S
C762 C761 1.349 . S
C762 C774 1.349 . S
C763 C761 1.327 . S
C763 C779 1.429 . S
C763 H785 0.950 . S
C764 H760 0.949 . S
C764 C772 1.574 . S
C764 C780 1.368 . S
H765 C773 0.950 . S
H766 C771 0.950 . S
H767 C772 0.949 . S
H768 C774 0.950 . S
H769 C775 0.950 . S
H770 C776 0.949 . S
C771 H766 0.950 . S
C771 C773 1.327 . S
C771 C777 1.429 . S
C772 C764 1.574 . S
C772 H767 0.949 . S
C772 C778 1.368 . S
C773 C757 1.349 . S
C773 H765 0.950 . S
C773 C771 1.327 . S
C774 C762 1.349 . S
C774 H768 0.950 . S
C774 C775 1.327 . S
C775 H769 0.950 . S
C775 C774 1.327 . S
C775 C779 1.429 . S
C776 C759 1.574 . S
C776 H770 0.949 . S
C776 C780 1.368 . S
C777 C758 1.429 . S
C777 C771 1.429 . S
C777 C778 1.523 . S
C778 C759 1.368 . S
C778 C772 1.368 . S
C778 C777 1.523 . S
C779 C763 1.429 . S
C779 C775 1.429 . S
C779 C780 1.523 . S
C780 C764 1.368 . S
C780 C776 1.368 . S
C780 C779 1.523 . S
H781 C756 0.950 . S
H782 C758 0.950 . S
H783 C759 0.949 . S
H784 C761 0.950 . S
H785 C763 0.950 . S
C786 C787 1.349 . S
C786 C788 1.327 . S
C786 H811 0.950 . S
C787 C786 1.349 . S
C787 C803 1.349 1_545 S
C788 C786 1.327 . S
C788 C807 1.429 . S
C788 H812 0.950 . S
C789 C806 1.574 . S
C789 C808 1.368 1_565 S
C789 H813 0.949 . S
H790 C794 0.949 . S
C791 C792 1.349 . S
C791 C793 1.327 . S
C791 H814 0.950 . S
C792 C791 1.349 . S
C792 C804 1.349 1_565 S
C793 C791 1.327 . S
C793 C809 1.429 1_565 S
C793 H815 0.950 . S
C794 H790 0.949 . S
C794 C802 1.574 . S
C794 C810 1.368 . S
H795 C803 0.950 . S
H796 C801 0.950 . S
H797 C802 0.949 . S
H798 C804 0.950 . S
H799 C805 0.950 . S
H800 C806 0.949 . S
C801 H796 0.950 . S
C801 C803 1.327 . S
C801 C807 1.429 1_565 S
C802 C794 1.574 . S
C802 H797 0.949 . S
C802 C808 1.368 . S
C803 C787 1.349 1_565 S
C803 H795 0.950 . S
C803 C801 1.327 . S
C804 C792 1.349 1_545 S
C804 H798 0.950 . S
C804 C805 1.327 . S
C805 H799 0.950 . S
C805 C804 1.327 . S
C805 C809 1.429 . S
C806 C789 1.574 . S
C806 H800 0.949 . S
C806 C810 1.368 1_565 S
C807 C788 1.429 . S
C807 C801 1.429 1_545 S
C807 C808 1.523 . S
C808 C789 1.368 1_545 S
C808 C802 1.368 . S
C808 C807 1.523 . S
C809 C793 1.429 1_545 S
C809 C805 1.429 . S
C809 C810 1.523 . S
C810 C794 1.368 . S
C810 C806 1.368 1_545 S
C810 C809 1.523 . S
H811 C786 0.950 . S
H812 C788 0.950 . S
H813 C789 0.949 . S
H814 C791 0.950 . S
H815 C793 0.950 . S
C816 C817 1.349 . S
C816 C818 1.327 . S
C816 H841 0.950 . S
C817 C816 1.349 . S
C817 C833 1.349 . S
C818 C816 1.327 . S
C818 C837 1.429 . S
C818 H842 0.950 . S
C819 C836 1.574 . S
C819 C838 1.368 . S
C819 H843 0.949 . S
H820 C824 0.949 . S
C821 C822 1.349 . S
C821 C823 1.327 1_554 S
C821 H844 0.950 . S
C822 C821 1.349 . S
C822 C834 1.349 . S
C823 C821 1.327 1_556 S
C823 C839 1.429 . S
C823 H845 0.950 . S
C824 H820 0.949 . S
C824 C832 1.574 . S
C824 C840 1.368 . S
H825 C833 0.950 . S
H826 C831 0.950 . S
H827 C832 0.949 . S
H828 C834 0.950 . S
H829 C835 0.950 . S
H830 C836 0.949 . S
C831 H826 0.950 . S
C831 C833 1.327 . S
C831 C837 1.429 . S
C832 C824 1.574 . S
C832 H827 0.949 . S
C832 C838 1.368 . S
C833 C817 1.349 . S
C833 H825 0.950 . S
C833 C831 1.327 . S
C834 C822 1.349 . S
C834 H828 0.950 . S
C834 C835 1.327 1_554 S
C835 H829 0.950 . S
C835 C834 1.327 1_556 S
C835 C839 1.429 . S
C836 C819 1.574 . S
C836 H830 0.949 . S
C836 C840 1.368 . S
C837 C818 1.429 . S
C837 C831 1.429 . S
C837 C838 1.523 . S
C838 C819 1.368 . S
C838 C832 1.368 . S
C838 C837 1.523 . S
C839 C823 1.429 . S
C839 C835 1.429 . S
C839 C840 1.523 . S
C840 C824 1.368 . S
C840 C836 1.368 . S
C840 C839 1.523 . S
H841 C816 0.950 . S
H842 C818 0.950 . S
H843 C819 0.949 . S
H844 C821 0.950 . S
H845 C823 0.950 . S
C846 C847 1.349 . S
C846 C848 1.327 . S
C846 H871 0.950 . S
C847 C846 1.349 . S
C847 C863 1.349 . S
C848 C846 1.327 . S
C848 C867 1.429 . S
C848 H872 0.950 . S
C849 C866 1.574 . S
C849 C868 1.368 . S
C849 H873 0.949 . S
H850 C854 0.949 . S
C851 C852 1.349 . S
C851 C853 1.327 1_655 S
C851 H874 0.950 . S
C852 C851 1.349 . S
C852 C864 1.349 1_655 S
C853 C851 1.327 1_455 S
C853 C869 1.429 . S
C853 H875 0.960 . S
C854 H850 0.949 . S
C854 C862 1.574 . S
C854 C870 1.368 . S
H855 C863 0.950 . S
H856 C861 0.950 . S
H857 C862 0.949 . S
H858 C864 0.950 . S
H859 C865 0.950 . S
H860 C866 0.949 . S
C861 H856 0.950 . S
C861 C863 1.327 . S
C861 C867 1.429 . S
C862 C854 1.574 . S
C862 H857 0.949 . S
C862 C868 1.368 . S
C863 C847 1.349 . S
C863 H855 0.950 . S
C863 C861 1.327 . S
C864 C852 1.349 1_455 S
C864 H858 0.950 . S
C864 C865 1.327 . S
C865 H859 0.950 . S
C865 C864 1.327 . S
C865 C869 1.429 . S
C866 C849 1.574 . S
C866 H860 0.949 . S
C866 C870 1.368 . S
C867 C848 1.429 . S
C867 C861 1.429 . S
C867 C868 1.523 . S
C868 C849 1.368 . S
C868 C862 1.368 . S
C868 C867 1.523 . S
C869 C853 1.429 . S
C869 C865 1.429 . S
C869 C870 1.523 . S
C870 C854 1.368 . S
C870 C866 1.368 . S
C870 C869 1.523 . S
H871 C846 0.950 . S
H872 C848 0.950 . S
H873 C849 0.949 . S
H874 C851 0.950 . S
H875 C853 0.960 . S
C337 C25 0.298 . S
C342 C325 0.328 . S
C367 C65 0.260 . S
C372 C253 0.273 . S
C397 C105 0.318 . S
C402 C289 0.302 . S
C427 C4 0.296 . S
C432 C301 0.130 . S
C462 C229 0.286 . S
C457 C44 0.281 . S
C492 C265 0.350 . S
C487 C84 0.325 . S
C517 C60 2.830 . S
C522 C181 2.765 . S
C547 C100 3.036 . S
C552 C193 2.994 . S
C577 C31 3.042 . S
C582 C121 3.001 . S
C612 C157 2.993 . S
C607 C71 3.025 . S
C642 C217 2.768 . S
C637 C111 2.820 . S
C667 C20 2.826 . S
C672 C145 2.761 . S
C702 C223 1.786 . S
C697 C2 1.728 . S
C727 C42 1.739 . S
C732 C151 1.774 . S
C757 C82 1.739 . S
C762 C187 1.784 . S
C792 C295 1.080 . S
C787 C63 1.073 . S
C822 C331 1.120 . S
C817 C103 1.105 . S
C847 C23 1.072 . S
C852 C259 1.080 1_655 S
