# Generated by pormake.
# Topology ptr, (4,4)-cn, num edge types: 1
# Building blocks:
#     Node 0, Type 0, BuildingBlock: NAHDIM_clean_sbu_0, # of connection points: 4
#     Node 1, Type 0, BuildingBlock: NAHDIM_clean_sbu_0, # of connection points: 4
#     Node 2, Type 0, BuildingBlock: NAHDIM_clean_sbu_0, # of connection points: 4
#     Node 3, Type 0, BuildingBlock: NAHDIM_clean_sbu_0, # of connection points: 4
#     Node 4, Type 0, BuildingBlock: NAHDIM_clean_sbu_0, # of connection points: 4
#     Node 5, Type 0, BuildingBlock: NAHDIM_clean_sbu_0, # of connection points: 4
#     Node 6, Type 0, BuildingBlock: NAHDIM_clean_sbu_0, # of connection points: 4
#     Node 7, Type 0, BuildingBlock: NAHDIM_clean_sbu_0, # of connection points: 4
#     Node 8, Type 0, BuildingBlock: NAHDIM_clean_sbu_0, # of connection points: 4
#     Node 9, Type 0, BuildingBlock: NAHDIM_clean_sbu_0, # of connection points: 4
#     Node 10, Type 0, BuildingBlock: NAHDIM_clean_sbu_0, # of connection points: 4
#     Node 11, Type 0, BuildingBlock: NAHDIM_clean_sbu_0, # of connection points: 4
#     Node 12, Type 0, BuildingBlock: NAHDIM_clean_sbu_0, # of connection points: 4
#     Node 13, Type 0, BuildingBlock: NAHDIM_clean_sbu_0, # of connection points: 4
#     Node 14, Type 0, BuildingBlock: NAHDIM_clean_sbu_0, # of connection points: 4
#     Node 15, Type 0, BuildingBlock: NAHDIM_clean_sbu_0, # of connection points: 4
#     Node 16, Type 0, BuildingBlock: NAHDIM_clean_sbu_0, # of connection points: 4
#     Node 17, Type 0, BuildingBlock: NAHDIM_clean_sbu_0, # of connection points: 4
#     Node 18, Type 1, BuildingBlock: NAWXER_clean_linker_0, # of connection points: 4
#     Node 19, Type 1, BuildingBlock: NAWXER_clean_linker_0, # of connection points: 4
#     Node 20, Type 1, BuildingBlock: NAWXER_clean_linker_0, # of connection points: 4
#     Node 21, Type 1, BuildingBlock: NAWXER_clean_linker_0, # of connection points: 4
#     Node 22, Type 1, BuildingBlock: NAWXER_clean_linker_0, # of connection points: 4
#     Node 23, Type 1, BuildingBlock: NAWXER_clean_linker_0, # of connection points: 4
#     Node 24, Type 1, BuildingBlock: NAWXER_clean_linker_0, # of connection points: 4
#     Node 25, Type 1, BuildingBlock: NAWXER_clean_linker_0, # of connection points: 4
#     Node 26, Type 1, BuildingBlock: NAWXER_clean_linker_0, # of connection points: 4
#     Node 27, Type 1, BuildingBlock: NAWXER_clean_linker_0, # of connection points: 4
#     Node 28, Type 1, BuildingBlock: NAWXER_clean_linker_0, # of connection points: 4
#     Node 29, Type 1, BuildingBlock: NAWXER_clean_linker_0, # of connection points: 4
#     Node 30, Type 1, BuildingBlock: NAWXER_clean_linker_0, # of connection points: 4
#     Node 31, Type 1, BuildingBlock: NAWXER_clean_linker_0, # of connection points: 4
#     Node 32, Type 1, BuildingBlock: NAWXER_clean_linker_0, # of connection points: 4
#     Node 33, Type 1, BuildingBlock: NAWXER_clean_linker_0, # of connection points: 4
#     Node 34, Type 1, BuildingBlock: NAWXER_clean_linker_0, # of connection points: 4
#     Node 35, Type 1, BuildingBlock: NAWXER_clean_linker_0, # of connection points: 4
#     Edge 36, Type (0, 1), None
#     Edge 37, Type (0, 1), None
#     Edge 38, Type (0, 1), None
#     Edge 39, Type (0, 1), None
#     Edge 40, Type (0, 1), None
#     Edge 41, Type (0, 1), None
#     Edge 42, Type (0, 1), None
#     Edge 43, Type (0, 1), None
#     Edge 44, Type (0, 1), None
#     Edge 45, Type (0, 1), None
#     Edge 46, Type (0, 1), None
#     Edge 47, Type (0, 1), None
#     Edge 48, Type (0, 1), None
#     Edge 49, Type (0, 1), None
#     Edge 50, Type (0, 1), None
#     Edge 51, Type (0, 1), None
#     Edge 52, Type (0, 1), None
#     Edge 53, Type (0, 1), None
#     Edge 54, Type (0, 1), None
#     Edge 55, Type (0, 1), None
#     Edge 56, Type (0, 1), None
#     Edge 57, Type (0, 1), None
#     Edge 58, Type (0, 1), None
#     Edge 59, Type (0, 1), None
#     Edge 60, Type (0, 1), None
#     Edge 61, Type (0, 1), None
#     Edge 62, Type (0, 1), None
#     Edge 63, Type (0, 1), None
#     Edge 64, Type (0, 1), None
#     Edge 65, Type (0, 1), None
#     Edge 66, Type (0, 1), None
#     Edge 67, Type (0, 1), None
#     Edge 68, Type (0, 1), None
#     Edge 69, Type (0, 1), None
#     Edge 70, Type (0, 1), None
#     Edge 71, Type (0, 1), None
#     Edge 72, Type (0, 1), None
#     Edge 73, Type (0, 1), None
#     Edge 74, Type (0, 1), None
#     Edge 75, Type (0, 1), None
#     Edge 76, Type (0, 1), None
#     Edge 77, Type (0, 1), None
#     Edge 78, Type (0, 1), None
#     Edge 79, Type (0, 1), None
#     Edge 80, Type (0, 1), None
#     Edge 81, Type (0, 1), None
#     Edge 82, Type (0, 1), None
#     Edge 83, Type (0, 1), None
#     Edge 84, Type (0, 1), None
#     Edge 85, Type (0, 1), None
#     Edge 86, Type (0, 1), None
#     Edge 87, Type (0, 1), None
#     Edge 88, Type (0, 1), None
#     Edge 89, Type (0, 1), None
#     Edge 90, Type (0, 1), None
#     Edge 91, Type (0, 1), None
#     Edge 92, Type (0, 1), None
#     Edge 93, Type (0, 1), None
#     Edge 94, Type (0, 1), None
#     Edge 95, Type (0, 1), None
#     Edge 96, Type (0, 1), None
#     Edge 97, Type (0, 1), None
#     Edge 98, Type (0, 1), None
#     Edge 99, Type (0, 1), None
#     Edge 100, Type (0, 1), None
#     Edge 101, Type (0, 1), None
#     Edge 102, Type (0, 1), None
#     Edge 103, Type (0, 1), None
#     Edge 104, Type (0, 1), None
#     Edge 105, Type (0, 1), None
#     Edge 106, Type (0, 1), None
#     Edge 107, Type (0, 1), None
# Relax obj value: 0.072
# Max RMSD: 0.269
# Mean RMSD: 0.109
data_MOF--net-ptr--node1-NAHDIM_clean_sbu_0--node2-NAWXER_clean_linker_0--edge1-none
_symmetry_space_group_name_H-M    P1
_symmetry_Int_Tables_number       1
_symmetry_cell_setting            triclinic
loop_
_symmetry_equiv_pos_as_xyz
'x, y, z'
_cell_length_a     48.686358
_cell_length_b     47.590324
_cell_length_c     33.574024
_cell_angle_alpha  91.90138
_cell_angle_beta   89.111735
_cell_angle_gamma 122.14008
loop_
_atom_site_label
_atom_site_type_symbol
_atom_site_fract_x
_atom_site_fract_y
_atom_site_fract_z
_atom_type_partial_charge
C0 C 0.03467 0.31737 0.03429 0.0
O1 O 0.01483 0.2957 0.00727 0.0
O2 O 0.96707 0.30828 0.99073 0.0
Zn3 Zn 0.00364 0.35197 0.01267 0.0
O4 O 0.98954 0.37404 0.05291 0.0
C5 C 7e-05 0.38765 0.95341 0.0
O6 O 0.97109 0.37118 0.96956 0.0
O7 O 0.03562 0.34442 0.03997 0.0
C8 C 0.97627 0.36436 0.08673 0.0
O9 O 0.9681 0.33491 0.09876 0.0
C10 C 0.93678 0.29481 0.99597 0.0
O11 O 0.92602 0.30971 0.01908 0.0
O12 O 0.02188 0.38331 0.9666 0.0
C13 C 0.70389 0.67062 0.98198 0.0
O14 O 0.69038 0.68726 0.97298 0.0
O15 O 0.64958 0.67833 0.04246 0.0
Zn16 Zn 0.6445 0.63576 0.02089 0.0
O17 O 0.61665 0.6183 0.9716 0.0
C18 C 0.60916 0.60406 0.09198 0.0
O19 O 0.60825 0.63112 0.09515 0.0
O20 O 0.68851 0.64572 1.00417 0.0
C21 C 0.59146 0.6192 0.96549 0.0
O22 O 0.58234 0.63313 0.9926 0.0
C23 C 0.67279 0.69569 0.06679 0.0
O24 O 0.69199 0.68527 0.07601 0.0
O25 O 0.62407 0.60049 0.06269 0.0
C26 C 0.29683 0.01288 0.96218 0.0
O27 O 0.27552 0.9813 0.95437 0.0
O28 O 0.28475 0.95003 0.02583 0.0
Zn29 Zn 0.32703 0.9841 1.00069 0.0
O30 O 0.33985 0.96614 0.9531 0.0
C31 C 0.35994 0.98438 0.07178 0.0
O32 O 0.33211 0.95648 0.07709 0.0
O33 O 0.32211 0.0209 0.9821 0.0
C34 C 0.35588 0.95275 0.96007 0.0
O35 O 0.3597 0.94747 0.99711 0.0
C36 C 0.27338 0.96142 0.05155 0.0
O37 O 0.28922 -0.0064 0.05898 0.0
O38 O 0.36329 0.00156 0.04173 0.0
C39 C 0.95942 0.6762 0.97387 0.0
O40 O -0.00927 0.69572 0.96765 0.0
O41 O 0.01997 0.68827 0.03987 0.0
Zn42 Zn 0.98331 0.6442 0.01853 0.0
O43 O -0.00293 0.62366 0.97589 0.0
C44 C 0.98704 0.61368 0.08765 0.0
O45 O 0.01721 0.63868 0.08494 0.0
O46 O 0.94938 0.65116 0.99564 0.0
C47 C 0.01655 0.63542 0.94671 0.0
O48 O 0.03279 0.66748 0.94075 0.0
C49 C 0.01195 0.70402 0.06372 0.0
O50 O 0.98109 0.69109 0.07197 0.0
O51 O 0.96622 0.61108 0.06286 0.0
C52 C 0.26592 0.31859 0.03183 0.0
O53 O 0.26254 0.29939 1.00086 0.0
O54 O 0.32058 0.30407 0.98942 0.0
Zn55 Zn 0.33291 0.34872 0.01227 0.0
O56 O 0.36903 0.36744 0.052 0.0
C57 C 0.36816 0.37876 0.94357 0.0
O58 O 0.37371 0.35494 0.9485 0.0
O59 O 0.29395 0.34322 0.0408 0.0
C60 C 0.36944 0.3566 0.08592 0.0
O61 O 0.34469 0.32799 0.09726 0.0
C62 C 0.33368 0.28756 0.99506 0.0
O63 O 0.35916 0.2999 0.01846 0.0
O64 O 0.34914 0.38136 0.96767 0.0
C65 C 0.65878 0.94278 0.04882 0.0
O66 O 0.67598 0.97512 0.05516 0.0
O67 O 0.67142 0.00027 0.97749 0.0
Zn68 Zn 0.62851 0.96514 1.00119 0.0
O69 O 0.6131 0.98216 0.04678 0.0
C70 C 0.59778 0.96693 0.93048 0.0
O71 O 0.62567 -0.00472 0.92844 0.0
O72 O 0.63512 0.93053 0.0244 0.0
C73 C 0.60186 0.00054 0.04173 0.0
O74 O 0.60286 0.01163 1.0061 0.0
C75 C 0.68628 0.03112 0.98625 0.0
O76 O 0.67435 0.04186 0.01385 0.0
O77 O 0.59333 0.94756 0.95855 0.0
C78 C 0.68887 0.64686 0.40093 0.0
O79 O 0.65834 0.63083 0.4121 0.0
O80 O 0.62446 0.62999 0.33891 0.0
Zn81 Zn 0.66308 0.67453 0.35401 0.0
O82 O 0.65322 0.69671 0.39851 0.0
C83 C 0.69632 0.73411 0.30722 0.0
O84 O 0.71305 0.74789 0.34013 0.0
O85 O 0.69807 0.66825 0.37396 0.0
C86 C 0.63064 0.7025 0.39743 0.0
O87 O 0.61114 0.69199 0.36643 0.0
C88 C 0.63025 0.61184 0.31624 0.0
O89 O 0.66033 0.62305 0.30537 0.0
O90 O 0.67534 0.70312 0.30599 0.0
C91 C 0.36652 -0.00083 0.29929 0.0
O92 O 0.35186 0.01367 0.28636 0.0
O93 O 0.32123 0.01792 0.37628 0.0
Zn94 Zn 0.31341 0.97565 0.34968 0.0
O95 O 0.28377 0.96226 0.30232 0.0
C96 C 0.29871 0.9356 0.42212 0.0
O97 O 0.32866 0.95657 0.43406 0.0
O98 O 0.35475 0.98058 0.32915 0.0
C99 C 0.2577 0.96229 0.30236 0.0
O100 O 0.25008 0.97353 0.33418 0.0
C101 C 0.34892 0.04438 0.38109 0.0
O102 O 0.37494 0.04567 0.36732 0.0
O103 O 0.28941 0.93913 0.38852 0.0
C104 C -0.00653 0.38142 0.33312 0.0
O105 O 0.97809 0.37121 0.36717 0.0
O106 O 0.97387 0.30356 0.37639 0.0
Zn107 Zn 0.01561 0.33675 0.34955 0.0
O108 O 0.03037 0.31538 0.30953 0.0
C109 C 0.05373 0.3661 0.42596 0.0
O110 O 0.03034 0.36895 0.44139 0.0
O111 O 0.01165 0.37121 0.32121 0.0
C112 C 0.01913 0.29998 0.27638 0.0
O113 O -0.00895 0.2938 0.26349 0.0
C114 C 0.94585 0.29332 0.36246 0.0
O115 O 0.94318 0.30341 0.3276 0.0
O116 O 0.05156 0.35561 0.39013 0.0
C117 C 0.61925 0.00244 0.28611 0.0
O118 O 0.64908 0.01767 0.27242 0.0
O119 O 0.68479 0.02533 0.35932 0.0
Zn120 Zn 0.64829 0.98068 0.33828 0.0
O121 O 0.66218 0.96237 0.29298 0.0
C122 C 0.65528 0.95209 0.40746 0.0
O123 O 0.68461 0.97857 0.40472 0.0
O124 O 0.61214 0.98449 0.31645 0.0
C125 C 0.6879 0.96171 0.29201 0.0
O126 O 0.70894 0.97591 0.32133 0.0
C127 C 0.68183 0.04995 0.36692 0.0
O128 O 0.65448 0.04774 0.35855 0.0
O129 O 0.63377 0.94757 0.38248 0.0
C130 C 0.94227 0.64928 0.39877 0.0
O131 O 0.95389 0.63072 0.40686 0.0
O132 O -0.00445 0.63832 0.33929 0.0
Zn133 Zn 0.00084 0.68172 0.35571 0.0
O134 O 0.03515 0.70637 0.39767 0.0
C135 C 0.02098 0.73869 0.30674 0.0
O136 O 0.01387 0.75053 0.33845 0.0
O137 O 0.95843 0.67381 0.37628 0.0
C138 C 0.04214 0.69492 0.42685 0.0
O139 O 0.02596 0.66274 0.43204 0.0
C140 C 0.97289 0.62096 0.31433 0.0
O141 O 0.95476 0.63204 0.30279 0.0
O142 O 0.01594 0.70964 0.30722 0.0
C143 C 0.31931 0.27451 0.36511 0.0
O144 O 0.334 0.28519 0.33077 0.0
O145 O 0.33341 0.35073 0.32155 0.0
Zn146 Zn 0.29311 0.31622 0.35001 0.0
O147 O 0.27741 0.3363 0.39089 0.0
C148 C 0.25481 0.28657 0.27421 0.0
O149 O 0.27959 0.28674 0.25787 0.0
O150 O 0.30013 0.28332 0.37763 0.0
C151 C 0.28843 0.35165 0.42414 0.0
O152 O 0.31691 0.35875 0.43672 0.0
C153 C 0.36205 0.36247 0.33435 0.0
O154 O 0.36628 0.35319 0.36896 0.0
O155 O 0.25619 0.2955 0.3106 0.0
C156 C 0.37412 -0.00611 0.70058 0.0
O157 O 0.36056 0.97677 0.66747 0.0
O158 O 0.30328 0.9826 0.65504 0.0
Zn159 Zn 0.33607 0.0233 0.68598 0.0
O160 O 0.31524 0.03277 0.73149 0.0
C161 C 0.36389 0.06461 0.61493 0.0
O162 O 0.36822 0.04138 0.60001 0.0
O163 O 0.36941 0.01678 0.71161 0.0
C164 C 0.29094 0.03581 0.72946 0.0
O165 O 0.2758 0.03006 0.69527 0.0
C166 C 0.28916 0.95363 0.66882 0.0
O167 O 0.29545 0.94968 0.70541 0.0
O168 O 0.35319 0.06227 0.65023 0.0
C169 C 0.04007 0.33281 0.66848 0.0
O170 O 0.04438 0.34638 0.70438 0.0
O171 O 0.9819 0.35183 0.70799 0.0
Zn172 Zn 0.97216 0.30855 0.68289 0.0
O173 O 0.93627 0.28993 0.64265 0.0
C174 C 0.93786 0.27798 0.75227 0.0
O175 O 0.93214 0.3018 0.74842 0.0
O176 O 0.0115 0.31462 0.65468 0.0
C177 C 0.93547 0.30174 0.60958 0.0
O178 O 0.95959 0.33122 0.5996 0.0
C179 C 0.00363 0.38106 0.69842 0.0
O180 O 0.02136 0.38563 0.66653 0.0
O181 O 0.95613 0.2753 0.72693 0.0
C182 C 0.65477 0.70847 0.64167 0.0
O183 O 0.63586 0.67637 0.63441 0.0
O184 O 0.63964 0.6506 0.71589 0.0
Zn185 Zn 0.68231 0.6832 0.6899 0.0
O186 O 0.69464 0.66369 0.6439 0.0
C187 C 0.71458 0.6814 0.75871 0.0
O188 O 0.68701 0.65272 0.76087 0.0
O189 O 0.67782 0.71885 0.66667 0.0
C190 C 0.70346 0.64315 0.64779 0.0
O191 O 0.7022 0.63143 0.68309 0.0
C192 C 0.62281 0.61977 0.70712 0.0
O193 O 0.63243 0.6077 0.67824 0.0
O194 O 0.71843 0.7007 0.73088 0.0
C195 C 0.27318 0.33342 0.66598 0.0
O196 O 0.29093 0.35404 0.69509 0.0
O197 O 0.34245 0.34641 0.70835 0.0
Zn198 Zn 0.30741 0.30198 0.68618 0.0
O199 O 0.3239 0.28222 0.64628 0.0
C200 C 0.30916 0.27211 0.75639 0.0
O201 O 0.33972 0.29592 0.75256 0.0
O202 O 0.27472 0.30797 0.65823 0.0
C203 C 0.33597 0.29266 0.61209 0.0
O204 O 0.3409 0.32104 0.60031 0.0
C205 C 0.3728 0.36016 0.70344 0.0
O206 O 0.38393 0.3451 0.68129 0.0
O207 O 0.2886 0.26967 0.73129 0.0
C208 C 0.60673 0.98617 0.70718 0.0
O209 O 0.6202 0.96894 0.71297 0.0
O210 O 0.66124 0.9841 0.64359 0.0
Zn211 Zn 0.66686 0.02393 0.67329 0.0
O212 O 0.69242 0.03538 0.72431 0.0
C213 C 0.68181 0.06457 0.60271 0.0
O214 O 0.6529 0.04153 0.58949 0.0
O215 O 0.62261 0.01314 0.68858 0.0
C216 C 0.72221 0.04488 0.72505 0.0
O217 O 0.73681 0.04552 0.69153 0.0
C218 C 0.67222 0.96636 0.65327 0.0
O219 O 0.68963 0.97382 0.68585 0.0
O220 O 0.69081 0.06238 0.6372 0.0
C221 C 0.00153 0.61838 0.70103 0.0
O222 O 0.01845 0.63163 0.66862 0.0
O223 O 0.0146 0.69517 0.6637 0.0
Zn224 Zn 0.97389 0.65954 0.68988 0.0
O225 O 0.95962 0.67652 0.7359 0.0
C226 C 0.93899 0.65914 0.62336 0.0
O227 O 0.96446 0.68955 0.62275 0.0
O228 O 0.98103 0.62559 0.71281 0.0
C229 C 0.95588 0.70096 0.73615 0.0
O230 O 0.96427 0.71952 0.70472 0.0
C231 C 0.04346 0.70713 0.67567 0.0
O232 O 0.04856 0.69756 0.70954 0.0
O233 O 0.93742 0.63972 0.64966 0.0
C234 C 0.24233 0.32739 0.09427 0.0
C235 C 0.23805 0.30963 0.05819 0.0
C236 C 0.21609 0.31813 0.11974 0.0
C237 C 0.18524 0.29078 0.10974 0.0
C238 C 0.20708 0.28234 0.04824 0.0
C239 C 0.18088 0.27317 0.07368 0.0
C240 C 0.15671 0.28343 0.13371 0.0
C241 C 0.22095 0.2662 0.21144 0.0
C242 C 0.22776 0.28198 0.24933 0.0
C243 C 0.19661 0.26432 0.18746 0.0
C244 C 0.17955 0.27934 0.20035 0.0
C245 C 0.20952 0.29538 0.26287 0.0
C246 C 0.18597 0.29427 0.23868 0.0
C247 C 0.15458 0.2796 0.17544 0.0
C248 C 0.02859 0.27392 0.21521 0.0
C249 C 0.03996 0.29279 0.25102 0.0
C250 C 0.04956 0.26919 0.19082 0.0
C251 C 0.08242 0.28398 0.20143 0.0
C252 C 0.07243 0.30625 0.2622 0.0
C253 C 0.09332 0.30199 0.23773 0.0
C254 C 0.10617 0.28123 0.17599 0.0
C255 C 0.06966 0.32882 0.09415 0.0
C256 C 0.05354 0.30906 0.06009 0.0
C257 C 0.08659 0.32024 0.11917 0.0
C258 C 0.08754 0.2917 0.11065 0.0
C259 C 0.05466 0.28055 0.05165 0.0
C260 C 0.07177 0.27215 0.07653 0.0
C261 C 0.1082 0.28444 0.13423 0.0
H262 H 0.26589 0.34851 0.10281 0.0
H263 H 0.21975 0.33278 0.14679 0.0
H264 H 0.20298 0.26813 0.0207 0.0
H265 H 0.15708 0.25246 0.06505 0.0
H266 H 0.23436 0.25531 0.20039 0.0
H267 H 0.19132 0.25121 0.15893 0.0
H268 H 0.21413 0.30783 0.29184 0.0
H269 H 0.1732 0.30585 0.24986 0.0
H270 H 0.0036 0.26292 0.20601 0.0
H271 H 0.04007 0.25409 0.16377 0.0
H272 H 0.08213 0.32089 0.28956 0.0
H273 H 0.11839 0.31354 0.24695 0.0
H274 H 0.06921 0.35089 0.10153 0.0
H275 H 0.09945 0.33624 0.14472 0.0
H276 H 0.04253 0.26483 0.02565 0.0
H277 H 0.07283 0.25042 0.06903 0.0
N278 N 0.13321 0.28515 0.11488 0.0
N279 N 0.12933 0.2787 0.19463 0.0
C280 C 0.64555 0.88669 0.06991 0.0
C281 C 0.66625 0.92143 0.07144 0.0
C282 C 0.652 0.86701 0.09325 0.0
C283 C 0.67912 0.88167 0.11869 0.0
C284 C 0.69398 0.93594 0.09593 0.0
C285 C 0.70049 0.91627 0.11904 0.0
C286 C 0.68509 0.86056 0.14413 0.0
C287 C 0.71836 0.9374 0.26139 0.0
C288 C 0.69158 0.94108 0.26099 0.0
C289 C 0.71964 0.91463 0.23525 0.0
C290 C 0.69435 0.89534 0.208 0.0
C291 C 0.66681 0.92254 0.23273 0.0
C292 C 0.66803 0.89968 0.20679 0.0
C293 C 0.69372 0.86794 0.18491 0.0
C294 C 0.72271 0.78891 0.2738 0.0
C295 C 0.69843 0.75497 0.27407 0.0
C296 C 0.72248 0.80932 0.24493 0.0
C297 C 0.69805 0.79626 0.21569 0.0
C298 C 0.67447 0.74173 0.24415 0.0
C299 C 0.67402 0.76222 0.21563 0.0
C300 C 0.69573 0.81903 0.18871 0.0
C301 C 0.65436 0.73515 0.08086 0.0
C302 C 0.67737 0.7263 0.08596 0.0
C303 C 0.65802 0.76325 0.10065 0.0
C304 C 0.68463 0.78288 0.12602 0.0
C305 C 0.70456 0.74662 0.11035 0.0
C306 C 0.7083 0.77481 0.12991 0.0
C307 C 0.68755 0.81189 0.14781 0.0
H308 H 0.62407 0.87474 0.05125 0.0
H309 H 0.63537 0.84032 0.09208 0.0
H310 H 0.71068 0.9626 0.09745 0.0
H311 H 0.72217 0.92816 0.13731 0.0
H312 H 0.73781 0.95124 0.28279 0.0
H313 H 0.74001 0.91143 0.23705 0.0
H314 H 0.64573 0.92461 0.23171 0.0
H315 H 0.64767 0.8844 0.18703 0.0
H316 H 0.74145 0.7999 0.29648 0.0
H317 H 0.74104 0.83555 0.24598 0.0
H318 H 0.65516 0.71579 0.24375 0.0
H319 H 0.65411 0.7516 0.19456 0.0
H320 H 0.63322 0.72009 0.06213 0.0
H321 H 0.63965 0.76923 0.09683 0.0
H322 H 0.72294 0.74073 0.11449 0.0
H323 H 0.72959 0.79016 0.14828 0.0
N324 N 0.68232 0.83279 0.12727 0.0
N325 N 0.69873 0.84692 0.20539 0.0
C326 C 0.06999 0.74761 0.07849 0.0
C327 C 0.03685 0.73557 0.08345 0.0
C328 C 0.09336 0.77648 0.09892 0.0
C329 C 0.08406 0.79372 0.12483 0.0
C330 C 0.02763 0.75351 0.10834 0.0
C331 C 0.05103 0.78246 0.12862 0.0
C332 C 0.10918 0.82337 0.14754 0.0
C333 C 0.0465 0.79327 0.27303 0.0
C334 C 0.03907 0.76042 0.27318 0.0
C335 C 0.06724 0.81503 0.24416 0.0
C336 C 0.08077 0.80431 0.21476 0.0
C337 C 0.05168 0.74939 0.24281 0.0
C338 C 0.0726 0.77121 0.21419 0.0
C339 C 0.10676 0.8289 0.18873 0.0
C340 C 0.20379 0.94214 0.27053 0.0
C341 C 0.2342 0.94535 0.26924 0.0
C342 C 0.17995 0.92205 0.24226 0.0
C343 C 0.18611 0.90505 0.21198 0.0
C344 C 0.24082 0.92951 0.23783 0.0
C345 C 0.21694 0.90932 0.20974 0.0
C346 C 0.15892 0.87906 0.18727 0.0
C347 C 0.22904 0.90435 0.07057 0.0
C348 C 0.24391 0.93894 0.07453 0.0
C349 C 0.20207 0.88331 0.09372 0.0
C350 C 0.18957 0.89643 0.1214 0.0
C351 C 0.23083 0.95202 0.1015 0.0
C352 C 0.20378 0.93096 0.1245 0.0
C353 C 0.16124 0.87369 0.146 0.0
H354 H 0.07789 0.73446 0.05939 0.0
H355 H 0.11873 0.78488 0.09522 0.0
H356 H 0.0023 0.7451 0.11243 0.0
H357 H 0.04328 0.79588 0.14747 0.0
H358 H 0.03723 0.80256 0.29602 0.0
H359 H 0.07355 0.84057 0.24553 0.0
H360 H 0.04665 0.72431 0.24216 0.0
H361 H 0.08354 0.76252 0.19283 0.0
H362 H 0.1979 0.954 0.29429 0.0
H363 H 0.15622 0.91882 0.24491 0.0
H364 H 0.26396 0.93135 0.23599 0.0
H365 H 0.2221 0.89567 0.18763 0.0
H366 H 0.23847 0.89349 0.05 0.0
H367 H 0.19131 0.85673 0.09049 0.0
H368 H 0.24152 0.97856 0.10496 0.0
H369 H 0.19399 0.9417 0.14466 0.0
N370 N 0.13633 0.84598 0.12789 0.0
N371 N 0.13167 0.85657 0.20676 0.0
C372 C 0.30486 0.06352 0.79671 0.0
C373 C 0.28376 0.05116 0.76374 0.0
C374 C 0.30164 0.08256 0.82651 0.0
C375 C 0.27651 0.08872 0.82495 0.0
C376 C 0.25817 0.05669 0.76243 0.0
C377 C 0.25463 0.0754 0.79281 0.0
C378 C 0.27627 0.11306 0.85329 0.0
C379 C 0.26452 0.02972 0.92351 0.0
C380 C 0.29177 0.03864 0.94712 0.0
C381 C 0.26064 0.05412 0.90747 0.0
C382 C 0.28407 0.08787 0.9145 0.0
C383 C 0.31441 0.07243 0.95554 0.0
C384 C 0.3105 0.0968 0.93953 0.0
C385 C 0.28222 0.1141 0.89458 0.0
C386 C 0.29294 0.24226 0.94956 0.0
C387 C 0.32107 0.25558 0.97317 0.0
C388 C 0.28196 0.21318 0.92672 0.0
C389 C 0.29911 0.19708 0.92671 0.0
C390 C 0.33737 0.23861 0.97447 0.0
C391 C 0.3264 0.20953 0.9515 0.0
C392 C 0.2893 0.16763 0.90062 0.0
C393 C 0.32323 0.25102 0.81483 0.0
C394 C 0.30017 0.24655 0.78647 0.0
C395 C 0.31689 0.22544 0.83989 0.0
C396 C 0.28715 0.19493 0.8376 0.0
C397 C 0.26996 0.21639 0.78504 0.0
C398 C 0.26364 0.1907 0.81019 0.0
C399 C 0.28245 0.16621 0.85955 0.0
H400 H 0.32506 0.06005 0.79856 0.0
H401 H 0.3199 0.0938 0.84972 0.0
H402 H 0.24161 0.04761 0.73733 0.0
H403 H 0.23544 0.0804 0.79057 0.0
H404 H 0.24643 0.00389 0.91683 0.0
H405 H 0.23969 0.04663 0.88893 0.0
H406 H 0.3355 0.08013 0.97391 0.0
H407 H 0.3288 0.12269 0.94554 0.0
H408 H 0.27954 0.2545 0.94828 0.0
H409 H 0.26033 0.20352 0.90868 0.0
H410 H 0.35897 0.24812 0.99252 0.0
H411 H 0.33985 0.19731 0.95219 0.0
H412 H 0.34678 0.2739 0.8167 0.0
H413 H 0.33588 0.22905 0.85979 0.0
H414 H 0.25177 0.2121 0.76338 0.0
H415 H 0.24072 0.16718 0.80748 0.0
N416 N 0.27617 0.13894 0.8376 0.0
N417 N 0.28879 0.14148 0.9165 0.0
C418 C 0.9262 0.24848 0.9485 0.0
C419 C 0.9141 0.2637 0.97364 0.0
C420 C 0.90515 0.22028 0.9254 0.0
C421 C 0.87161 0.20686 0.92671 0.0
C422 C 0.88042 0.24951 0.97602 0.0
C423 C 0.85935 0.22122 0.95287 0.0
C424 C 0.84915 0.17785 0.90108 0.0
C425 C 0.90334 0.25901 0.81313 0.0
C426 C 0.92045 0.25315 0.78331 0.0
C427 C 0.88325 0.23425 0.83948 0.0
C428 C 0.88006 0.20315 0.83694 0.0
C429 C 0.91825 0.22247 0.78166 0.0
C430 C 0.89797 0.19757 0.80806 0.0
C431 C 0.8546 0.17523 0.8601 0.0
C432 C 0.72905 0.06944 0.79408 0.0
C433 C 0.74119 0.05922 0.76226 0.0
C434 C 0.74903 0.08811 0.82632 0.0
C435 C 0.78126 0.09614 0.82782 0.0
C436 C 0.77286 0.06583 0.76477 0.0
C437 C 0.79264 0.08404 0.79725 0.0
C438 C 0.805 0.12229 0.85583 0.0
C439 C 0.72986 0.04354 0.93603 0.0
C440 C 0.71549 0.05484 0.9636 0.0
C441 C 0.757 0.06611 0.91398 0.0
C442 C 0.76992 0.10037 0.91861 0.0
C443 C 0.72883 0.08912 0.96864 0.0
C444 C 0.75572 0.11158 0.94643 0.0
C445 C 0.79925 0.12515 0.89683 0.0
H446 H 0.95201 0.25855 0.94625 0.0
H447 H 0.91513 0.20908 0.90633 0.0
H448 H 0.87033 0.26052 0.99522 0.0
H449 H 0.83349 0.21106 0.95464 0.0
H450 H 0.90448 0.28237 0.81524 0.0
H451 H 0.86895 0.23895 0.86052 0.0
H452 H 0.93101 0.21716 0.7589 0.0
H453 H 0.8955 0.17358 0.80516 0.0
H454 H 0.70477 0.06488 0.79293 0.0
H455 H 0.73985 0.09804 0.84857 0.0
H456 H 0.78284 0.05811 0.74086 0.0
H457 H 0.81751 0.09018 0.79747 0.0
H458 H 0.72027 0.01725 0.93163 0.0
H459 H 0.76805 0.05677 0.89373 0.0
H460 H 0.71836 0.09869 0.98952 0.0
H461 H 0.76532 0.13788 0.95087 0.0
N462 N 0.8217 0.15282 0.91769 0.0
N463 N 0.83248 0.14747 0.83937 0.0
C464 C 0.75235 0.70782 0.94079 0.0
C465 C 0.73535 0.67955 0.96418 0.0
C466 C 0.78051 0.71477 0.92077 0.0
C467 C 0.79196 0.69335 0.92332 0.0
C468 C 0.74796 0.65925 0.96865 0.0
C469 C 0.77612 0.66618 0.94845 0.0
C470 C 0.81937 0.6982 0.89842 0.0
C471 C 0.73681 0.66595 0.81446 0.0
C472 C 0.74156 0.68898 0.78579 0.0
C473 C 0.76253 0.67108 0.83793 0.0
C474 C 0.79352 0.69975 0.834 0.0
C475 C 0.77258 0.71776 0.7818 0.0
C476 C 0.7984 0.72299 0.80559 0.0
C477 C 0.82114 0.70376 0.85711 0.0
C478 C 0.92315 0.68072 0.79846 0.0
C479 C 0.93767 0.70495 0.76922 0.0
C480 C 0.90244 0.68174 0.82679 0.0
C481 C 0.89648 0.70755 0.82729 0.0
C482 C 0.93212 0.73108 0.77008 0.0
C483 C 0.91163 0.73229 0.79882 0.0
C484 C 0.87151 0.70657 0.85393 0.0
C485 C 0.94791 0.71139 0.93195 0.0
C486 C 0.93641 0.68312 0.95509 0.0
C487 C 0.92623 0.71741 0.91304 0.0
C488 C 0.89265 0.69505 0.91649 0.0
C489 C 0.90278 0.66142 0.95962 0.0
C490 C 0.88114 0.66741 0.94061 0.0
C491 C 0.86915 0.69983 0.89504 0.0
H492 H 0.74355 0.72424 0.9372 0.0
H493 H 0.79285 0.73639 0.90239 0.0
H494 H 0.73554 0.63744 0.98671 0.0
H495 H 0.78474 0.6495 0.95113 0.0
H496 H 0.71336 0.64335 0.81813 0.0
H497 H 0.7583 0.65212 0.85849 0.0
H498 H 0.77708 0.73584 0.75976 0.0
H499 H 0.82224 0.74501 0.80159 0.0
H500 H 0.92659 0.66003 0.79848 0.0
H501 H 0.8901 0.66158 0.84727 0.0
H502 H 0.94283 0.75004 0.74789 0.0
H503 H 0.90698 0.75215 0.79824 0.0
H504 H 0.97368 0.72881 0.9282 0.0
H505 H 0.93571 0.73937 0.89545 0.0
H506 H 0.89313 0.63955 0.9774 0.0
H507 H 0.85532 0.64994 0.94396 0.0
N508 N 0.84319 0.69602 0.91567 0.0
N509 N 0.84736 0.70821 0.83664 0.0
C510 C 0.70129 0.61585 0.44879 0.0
C511 C 0.7122 0.64122 0.42111 0.0
C512 C 0.7234 0.61157 0.46954 0.0
C513 C 0.75685 0.63296 0.46347 0.0
C514 C 0.74561 0.66172 0.41393 0.0
C515 C 0.7677 0.65757 0.43488 0.0
C516 C 0.78094 0.62997 0.48611 0.0
C517 C 0.73057 0.65671 0.58111 0.0
C518 C 0.719 0.63601 0.61412 0.0
C519 C 0.74933 0.65299 0.55202 0.0
C520 C 0.75606 0.62783 0.55471 0.0
C521 C 0.72508 0.61037 0.61628 0.0
C522 C 0.7434 0.60633 0.58685 0.0
C523 C 0.78003 0.62674 0.52802 0.0
C524 C 0.91518 0.67036 0.56551 0.0
C525 C 0.91155 0.64922 0.59612 0.0
C526 C 0.8888 0.66313 0.54192 0.0
C527 C 0.85827 0.63438 0.54803 0.0
C528 C 0.88108 0.62014 0.60193 0.0
C529 C 0.85454 0.61294 0.57824 0.0
C530 C 0.82993 0.62859 0.52516 0.0
C531 C 0.89493 0.61625 0.44354 0.0
C532 C 0.91181 0.64268 0.41745 0.0
C533 C 0.86759 0.61147 0.46377 0.0
C534 C 0.85678 0.63318 0.45854 0.0
C535 C 0.89992 0.66333 0.41066 0.0
C536 C 0.8725 0.6585 0.43093 0.0
C537 C 0.83029 0.63071 0.48335 0.0
H538 H 0.67565 0.59938 0.45465 0.0
H539 H 0.71437 0.59173 0.49051 0.0
H540 H 0.75478 0.68139 0.39271 0.0
H541 H 0.79339 0.67417 0.42937 0.0
H542 H 0.72662 0.67695 0.5788 0.0
H543 H 0.75981 0.67081 0.52855 0.0
H544 H 0.71649 0.59403 0.64133 0.0
H545 H 0.74862 0.58703 0.5899 0.0
H546 H 0.93826 0.69303 0.56033 0.0
H547 H 0.8921 0.6806 0.51962 0.0
H548 H 0.87749 0.60351 0.62549 0.0
H549 H 0.83106 0.59087 0.58377 0.0
H550 H 0.90321 0.59964 0.44907 0.0
H551 H 0.85535 0.59129 0.48427 0.0
H552 H 0.91223 0.68374 0.39048 0.0
H553 H 0.86439 0.67539 0.42628 0.0
N554 N 0.80603 0.63171 0.46546 0.0
N555 N 0.80465 0.62624 0.54577 0.0
C556 C 0.30964 0.24103 0.42582 0.0
C557 C 0.32733 0.2551 0.39082 0.0
C558 C 0.31808 0.22386 0.45088 0.0
C559 C 0.34488 0.22112 0.44199 0.0
C560 C 0.35354 0.25147 0.38138 0.0
C561 C 0.36216 0.2346 0.40666 0.0
C562 C 0.35336 0.20182 0.46726 0.0
C563 C 0.36032 0.28323 0.55013 0.0
C564 C 0.34167 0.27116 0.58498 0.0
C565 C 0.36509 0.26206 0.52496 0.0
C566 C 0.35057 0.22836 0.53386 0.0
C567 C 0.32766 0.23762 0.59389 0.0
C568 C 0.33196 0.21654 0.56864 0.0
C569 C 0.35556 0.20498 0.50933 0.0
C570 C 0.38354 0.09873 0.55326 0.0
C571 C 0.36601 0.09033 0.58914 0.0
C572 C 0.38339 0.12158 0.52806 0.0
C573 C 0.36471 0.13549 0.5376 0.0
C574 C 0.34864 0.10543 0.59944 0.0
C575 C 0.34785 0.1275 0.57395 0.0
C576 C 0.36276 0.15904 0.51137 0.0
C577 C 0.32772 0.06851 0.4306 0.0
C578 C 0.35188 0.07309 0.40336 0.0
C579 C 0.33081 0.0955 0.45246 0.0
C580 C 0.35789 0.12751 0.44704 0.0
C581 C 0.37897 0.10523 0.39798 0.0
C582 C 0.3817 0.13235 0.41927 0.0
C583 C 0.36056 0.15594 0.46941 0.0
H584 H 0.28913 0.24309 0.43379 0.0
H585 H 0.3034 0.21246 0.47698 0.0
H586 H 0.36769 0.26199 0.35467 0.0
H587 H 0.3825 0.23222 0.39872 0.0
H588 H 0.37155 0.30905 0.54264 0.0
H589 H 0.38033 0.27208 0.49894 0.0
H590 H 0.31296 0.22738 0.62031 0.0
H591 H 0.32053 0.19074 0.57638 0.0
H592 H 0.39745 0.08775 0.54478 0.0
H593 H 0.39802 0.12837 0.50137 0.0
H594 H 0.33472 0.09944 0.62675 0.0
H595 H 0.33343 0.13789 0.58251 0.0
H596 H 0.30664 0.044 0.43543 0.0
H597 H 0.31201 0.09146 0.47346 0.0
H598 H 0.39784 0.10945 0.377 0.0
H599 H 0.40258 0.15701 0.41453 0.0
N600 N 0.35626 0.17755 0.44902 0.0
N601 N 0.36024 0.18352 0.52933 0.0
C602 C 0.72934 0.07694 0.41319 0.0
C603 C 0.70771 0.07955 0.38866 0.0
C604 C 0.75242 0.1043 0.43599 0.0
C605 C 0.75457 0.1348 0.43414 0.0
C606 C 0.71012 0.11024 0.38663 0.0
C607 C 0.73376 0.13785 0.40878 0.0
C608 C 0.77919 0.16355 0.45799 0.0
C609 C 0.69602 0.09863 0.54124 0.0
C610 C 0.70563 0.09059 0.57618 0.0
C611 C 0.7193 0.12277 0.51605 0.0
C612 C 0.75257 0.13851 0.52489 0.0
C613 C 0.73879 0.10688 0.58526 0.0
C614 C 0.76188 0.13031 0.55989 0.0
C615 C 0.77841 0.1648 0.5 0.0
C616 C 0.90348 0.29305 0.54693 0.0
C617 C 0.90895 0.28037 0.58115 0.0
C618 C 0.87841 0.27184 0.52025 0.0
C619 C 0.85907 0.2376 0.52703 0.0
C620 C 0.88921 0.24625 0.58793 0.0
C621 C 0.86479 0.22522 0.56121 0.0
C622 C 0.83154 0.21393 0.50089 0.0
C623 C 0.91908 0.25751 0.42115 0.0
C624 C 0.91673 0.27219 0.38676 0.0
C625 C 0.89182 0.23828 0.44476 0.0
C626 C 0.86185 0.23406 0.43508 0.0
C627 C 0.88652 0.26715 0.37646 0.0
C628 C 0.85934 0.24821 0.40038 0.0
C629 C 0.83247 0.21246 0.45877 0.0
H630 H 0.72792 0.05356 0.41553 0.0
H631 H 0.7686 0.1017 0.45514 0.0
H632 H 0.69379 0.11292 0.36787 0.0
H633 H 0.73538 0.16136 0.4068 0.0
H634 H 0.67058 0.08659 0.53366 0.0
H635 H 0.71117 0.12941 0.49024 0.0
H636 H 0.7471 0.10111 0.61173 0.0
H637 H 0.78726 0.14196 0.56769 0.0
H638 H 0.91827 0.31929 0.54102 0.0
H639 H 0.874 0.28223 0.49472 0.0
H640 H 0.89284 0.23552 0.61375 0.0
H641 H 0.85033 0.19897 0.56733 0.0
H642 H 0.94192 0.26059 0.42966 0.0
H643 H 0.89415 0.22638 0.47031 0.0
H644 H 0.88391 0.2781 0.35014 0.0
H645 H 0.83631 0.24469 0.39184 0.0
N646 N 0.80605 0.18747 0.439 0.0
N647 N 0.80451 0.1901 0.5194 0.0
C648 C 0.95159 0.55498 0.11015 0.0
C649 C 0.97884 0.58725 0.11615 0.0
C650 C 0.94647 0.52922 0.13444 0.0
C651 C 0.96806 0.5355 0.16564 0.0
C652 C 0.00011 0.59347 0.1478 0.0
C653 C -0.00522 0.56789 0.17225 0.0
C654 C 0.96433 0.50799 0.18937 0.0
C655 C 0.98962 0.57967 0.30573 0.0
C656 C 0.96861 0.59025 0.29602 0.0
C657 C 0.98739 0.55239 0.28558 0.0
C658 C 0.96431 0.53543 0.25523 0.0
C659 C 0.94439 0.5721 0.26708 0.0
C660 C 0.94217 0.54483 0.24699 0.0
C661 C 0.96443 0.50887 0.23138 0.0
C662 C 0.00562 0.41528 0.27217 0.0
C663 C 0.98736 0.40206 0.30707 0.0
C664 C -0.00084 0.43395 0.24702 0.0
C665 C 0.97384 0.43912 0.25578 0.0
C666 C 0.96247 0.40783 0.31616 0.0
C667 C 0.95585 0.42622 0.29081 0.0
C668 C 0.96807 0.46079 0.23121 0.0
C669 C 0.95362 0.37706 0.14791 0.0
C670 C 0.97263 0.38768 0.1132 0.0
C671 C 0.95111 0.39987 0.17279 0.0
C672 C 0.96829 0.43377 0.16385 0.0
C673 C 0.98903 0.42142 0.10394 0.0
C674 C 0.98695 0.44411 0.12896 0.0
C675 C 0.96634 0.4589 0.189 0.0
H676 H 0.93496 0.54935 0.08576 0.0
H677 H 0.92589 0.50433 0.12861 0.0
H678 H 0.02136 0.61802 0.15315 0.0
H679 H 0.01216 0.57323 0.19561 0.0
H680 H 0.00837 0.59299 0.3281 0.0
H681 H 0.00453 0.54534 0.29262 0.0
H682 H 0.92758 0.57937 0.25925 0.0
H683 H 0.92361 0.53153 0.22441 0.0
H684 H 0.02512 0.41148 0.26445 0.0
H685 H 0.01431 0.44475 0.22109 0.0
H686 H 0.9479 0.39796 0.34272 0.0
H687 H 0.9366 0.4304 0.29862 0.0
H688 H 0.94047 0.35116 0.15563 0.0
H689 H 0.93564 0.39094 0.19876 0.0
H690 H 0.00397 0.43053 0.07752 0.0
H691 H 0.00029 0.47001 0.1211 0.0
N692 N 0.96485 0.48285 0.16989 0.0
N693 N 0.96659 0.48548 0.25063 0.0
C694 C 0.40242 0.36634 0.14781 0.0
C695 C 0.39606 0.37852 0.11384 0.0
C696 C 0.42756 0.38808 0.17406 0.0
C697 C 0.44593 0.42238 0.16723 0.0
C698 C 0.41498 0.41265 0.10681 0.0
C699 C 0.43939 0.43424 0.13321 0.0
C700 C 0.47322 0.44659 0.19325 0.0
C701 C 0.38629 0.39845 0.27508 0.0
C702 C 0.39022 0.38445 0.3091 0.0
C703 C 0.41281 0.41869 0.25081 0.0
C704 C 0.44363 0.42459 0.25946 0.0
C705 C 0.42122 0.39105 0.31824 0.0
C706 C 0.44763 0.41093 0.29368 0.0
C707 C 0.4724 0.44742 0.23548 0.0
C708 C 0.57111 0.56843 0.30963 0.0
C709 C 0.60348 0.57996 0.29952 0.0
C710 C 0.54573 0.54012 0.29051 0.0
C711 C 0.55233 0.52315 0.26076 0.0
C712 C 0.61 0.56164 0.2715 0.0
C713 C 0.58462 0.53342 0.25236 0.0
C714 C 0.52552 0.49641 0.23664 0.0
C715 C 0.58488 0.54516 0.11272 0.0
C716 C 0.59068 0.57712 0.12041 0.0
C717 C 0.56459 0.51909 0.13773 0.0
C718 C 0.55029 0.52465 0.17121 0.0
C719 C 0.5768 0.58271 0.15439 0.0
C720 C 0.55671 0.55673 0.1794 0.0
C721 C 0.52568 0.49639 0.19466 0.0
H722 H 0.38829 0.34008 0.1538 0.0
H723 H 0.43271 0.37807 0.19935 0.0
H724 H 0.4106 0.42295 0.08112 0.0
H725 H 0.45315 0.46048 0.12702 0.0
H726 H 0.36277 0.39412 0.26743 0.0
H727 H 0.40926 0.43006 0.22562 0.0
H728 H 0.42508 0.38063 0.34419 0.0
H729 H 0.47128 0.41564 0.30143 0.0
H730 H 0.56532 0.58184 0.33137 0.0
H731 H 0.52094 0.53245 0.29757 0.0
H732 H 0.63468 0.56964 0.26339 0.0
H733 H 0.59022 0.52023 0.23005 0.0
H734 H 0.59508 0.54002 0.08667 0.0
H735 H 0.55955 0.49441 0.13054 0.0
H736 H 0.58071 0.60699 0.16115 0.0
H737 H 0.5452 0.5615 0.20431 0.0
N738 N 0.49981 0.47128 0.17477 0.0
N739 N 0.49884 0.47213 0.25545 0.0
C740 C 0.41034 0.0277 0.24886 0.0
C741 C 0.39539 0.00368 0.27821 0.0
C742 C 0.43595 0.03044 0.22644 0.0
C743 C 0.44671 0.00876 0.23238 0.0
C744 C 0.40742 0.98329 0.28576 0.0
C745 C 0.43295 0.98587 0.26303 0.0
C746 C 0.47171 0.00938 0.20616 0.0
C747 C 0.38407 0.97257 0.12908 0.0
C748 C 0.38805 -0.00707 0.09731 0.0
C749 C 0.41079 0.97841 0.15107 0.0
C750 C 0.44206 0.00511 0.14232 0.0
C751 C 0.41936 0.01978 0.08863 0.0
C752 C 0.44615 0.02568 0.11082 0.0
C753 C 0.47059 0.01006 0.1642 0.0
C754 C 0.57317 0.98534 0.10746 0.0
C755 C 0.58421 0.00593 0.07434 0.0
C756 C 0.55313 0.98773 0.13584 0.0
C757 C 0.54454 0.01145 0.13234 0.0
C758 C 0.57585 0.02982 0.07107 0.0
C759 C 0.55624 0.03255 0.09979 0.0
C760 C 0.52064 0.01215 0.15962 0.0
C761 C 0.60341 0.02934 0.23623 0.0
C762 C 0.59438 0.00564 0.26573 0.0
C763 C 0.57987 0.03151 0.21574 0.0
C764 C 0.5468 0.0095 0.22373 0.0
C765 C 0.56137 0.98456 0.2748 0.0
C766 C 0.53784 0.9865 0.254 0.0
C767 C 0.52124 0.01049 0.20165 0.0
H768 H 0.40198 0.04416 0.24276 0.0
H769 H 0.44691 0.04906 0.20387 0.0
H770 H 0.39652 0.96469 0.30836 0.0
H771 H 0.44116 0.96918 0.26844 0.0
H772 H 0.36038 0.95151 0.1364 0.0
H773 H 0.40703 0.96151 0.17436 0.0
H774 H 0.42329 0.03576 0.06414 0.0
H775 H 0.47011 0.04617 0.10322 0.0
H776 H 0.57879 0.96635 0.11055 0.0
H777 H 0.54348 0.97023 0.1597 0.0
H778 H 0.5839 0.04598 0.04586 0.0
H779 H 0.54964 0.05076 0.09612 0.0
H780 H 0.6287 0.04625 0.22893 0.0
H781 H 0.58752 0.05027 0.19355 0.0
H782 H 0.55363 0.96613 0.29745 0.0
H783 H 0.5125 0.96953 0.26107 0.0
N784 N 0.49674 0.00922 0.22317 0.0
N785 N 0.49529 0.01186 0.14268 0.0
C786 C 0.5619 -0.00433 0.72282 0.0
C787 C 0.57515 0.97584 0.72553 0.0
C788 C 0.53395 0.98778 0.74402 0.0
C789 C 0.51896 0.96013 0.76847 0.0
C790 C 0.55891 0.94697 0.74807 0.0
C791 C 0.53093 0.9391 0.76925 0.0
C792 C 0.49211 0.95489 0.79459 0.0
C793 C 0.53927 0.93277 0.90855 0.0
C794 C 0.5709 0.96045 0.90384 0.0
C795 C 0.51359 0.92909 0.88577 0.0
C796 C 0.51916 0.95281 0.85768 0.0
C797 C 0.57634 0.98389 0.87534 0.0
C798 C 0.55076 0.98032 0.85293 0.0
C799 C 0.49174 0.95053 0.83595 0.0
C800 C 0.36576 0.93977 0.88987 0.0
C801 C 0.37679 0.95129 0.92897 0.0
C802 C 0.38673 0.93919 0.86108 0.0
C803 C 0.41946 0.95167 0.87058 0.0
C804 C 0.40903 0.96282 0.93865 0.0
C805 C 0.43012 0.9634 0.90983 0.0
C806 C 0.44307 0.95143 0.84192 0.0
C807 C 0.40453 0.00102 0.76381 0.0
C808 C 0.3912 0.9839 0.72727 0.0
C809 C 0.42016 0.99102 0.78914 0.0
C810 C 0.42233 0.96348 0.77858 0.0
C811 C 0.3931 0.95611 0.71717 0.0
C812 C 0.40859 0.94613 0.74248 0.0
C813 C 0.44397 0.9564 0.80036 0.0
H814 H 0.5737 0.0179 0.70544 0.0
H815 H 0.52491 0.0042 0.74277 0.0
H816 H 0.5683 0.93094 0.75035 0.0
H817 H 0.51926 0.9172 0.78722 0.0
H818 H 0.53421 0.91445 0.93051 0.0
H819 H 0.4893 0.90795 0.89041 0.0
H820 H 0.60028 0.0057 0.87113 0.0
H821 H 0.55561 -0.00034 0.83263 0.0
H822 H 0.34082 0.93055 0.8819 0.0
H823 H 0.37706 0.92848 0.83188 0.0
H824 H 0.41827 0.97222 0.96847 0.0
H825 H 0.45504 0.97323 0.91853 0.0
H826 H 0.40334 0.02245 0.77258 0.0
H827 H 0.43152 0.00545 0.81621 0.0
H828 H 0.38289 0.94218 0.68949 0.0
H829 H 0.4106 0.92523 0.73335 0.0
N830 N 0.46831 0.95766 0.77861 0.0
N831 N 0.46709 0.94856 0.85768 0.0
C832 C 0.98939 0.58324 0.76023 0.0
C833 C 0.00855 0.59818 0.72646 0.0
C834 C -0.00336 0.56543 0.78555 0.0
C835 C 0.02357 0.56267 0.77811 0.0
C836 C 0.03512 0.59482 0.71853 0.0
C837 C 0.04245 0.57705 0.74407 0.0
C838 C 0.02933 0.54118 0.8028 0.0
C839 C 0.04192 0.6236 0.88752 0.0
C840 C 0.02004 0.61227 0.91966 0.0
C841 C 0.04477 0.60098 0.86266 0.0
C842 C 0.02556 0.56672 0.86942 0.0
C843 C 0.00104 0.57801 0.9262 0.0
C844 C 0.00381 0.55562 0.90149 0.0
C845 C 0.02829 0.54184 0.84489 0.0
C846 C 0.03517 0.42698 0.89967 0.0
C847 C 0.00706 0.41273 0.92344 0.0
C848 C 0.04139 0.45168 0.87269 0.0
C849 C 0.01982 0.46264 0.86983 0.0
C850 C 0.98526 0.42327 0.91935 0.0
C851 C -0.00825 0.44814 0.89324 0.0
C852 C 0.02666 0.4908 0.84527 0.0
C853 C -0.00978 0.40399 0.75831 0.0
C854 C 0.01051 0.40922 0.72545 0.0
C855 C -0.00326 0.43017 0.78451 0.0
C856 C 0.02403 0.46204 0.77889 0.0
C857 C 0.03769 0.44119 0.7196 0.0
C858 C 0.04429 0.4674 0.74604 0.0
C859 C 0.02867 0.49063 0.8033 0.0
H860 H 0.96857 0.58508 0.76705 0.0
H861 H 0.9807 0.55322 0.81048 0.0
H862 H 0.05037 0.60606 0.69277 0.0
H863 H 0.06284 0.57446 0.73722 0.0
H864 H 0.05697 0.64985 0.88178 0.0
H865 H 0.06222 0.61027 0.8386 0.0
H866 H 0.98387 0.56829 0.95054 0.0
H867 H 0.98868 0.52938 0.90743 0.0
H868 H 0.05234 0.41924 0.90214 0.0
H869 H 0.06334 0.46283 0.85503 0.0
H870 H 0.96342 0.41296 0.93717 0.0
H871 H 0.97484 0.45629 0.89151 0.0
H872 H 0.96892 0.37972 0.76353 0.0
H873 H 0.9797 0.42561 0.80826 0.0
H874 H 0.05381 0.446 0.69463 0.0
H875 H 0.06502 0.49199 0.74057 0.0
N876 N 0.03006 0.51593 0.78379 0.0
N877 N 0.02681 0.51648 0.86422 0.0
C878 C 0.58086 0.61024 0.75851 0.0
C879 C 0.59387 0.59743 0.73099 0.0
C880 C 0.55373 0.58888 0.7814 0.0
C881 C 0.53956 0.55436 0.77769 0.0
C882 C 0.57939 0.56293 0.72702 0.0
C883 C 0.55261 0.54169 0.75013 0.0
C884 C 0.50992 0.53069 0.79985 0.0
C885 C 0.58106 0.58679 0.90117 0.0
C886 C 0.57095 0.60152 0.93007 0.0
C887 C 0.56016 0.56653 0.87044 0.0
C888 C 0.52884 0.56087 0.86773 0.0
C889 C 0.54012 0.59697 0.92629 0.0
C890 C 0.5192 0.57663 0.89558 0.0
C891 C 0.50442 0.53443 0.84067 0.0
C892 C 0.40491 0.39823 0.88475 0.0
C893 C 0.38676 0.40388 0.91321 0.0
C894 C 0.42587 0.42315 0.8591 0.0
C895 C 0.4289 0.45419 0.86092 0.0
C896 C 0.38904 0.43462 0.91434 0.0
C897 C 0.4102 0.45969 0.88861 0.0
C898 C 0.45438 0.48185 0.83748 0.0
C899 C 0.38276 0.40684 0.74993 0.0
C900 C 0.39515 0.39157 0.72539 0.0
C901 C 0.4036 0.43539 0.77266 0.0
C902 C 0.43719 0.44904 0.77156 0.0
C903 C 0.42885 0.40596 0.72326 0.0
C904 C 0.44969 0.43453 0.74604 0.0
C905 C 0.45958 0.4785 0.79659 0.0
H906 H 0.5914 0.63676 0.76206 0.0
H907 H 0.54359 0.59935 0.8014 0.0
H908 H 0.58887 0.55225 0.70627 0.0
H909 H 0.54207 0.51516 0.74644 0.0
H910 H 0.60467 0.5898 0.90316 0.0
H911 H 0.56789 0.55391 0.85014 0.0
H912 H 0.53158 0.60793 0.94801 0.0
H913 H 0.49497 0.57222 0.89439 0.0
H914 H 0.4038 0.37488 0.88313 0.0
H915 H 0.44074 0.41854 0.83897 0.0
H916 H 0.37554 0.43978 0.93613 0.0
H917 H 0.41253 0.48363 0.89093 0.0
H918 H 0.35691 0.39657 0.75196 0.0
H919 H 0.39345 0.44668 0.79125 0.0
H920 H 0.43915 0.39489 0.70453 0.0
H921 H 0.47558 0.44485 0.74445 0.0
N922 N 0.48711 0.50294 0.77957 0.0
N923 N 0.47683 0.50984 0.85773 0.0
C924 C 0.65332 0.73954 0.45811 0.0
C925 C 0.62893 0.72405 0.42881 0.0
C926 C 0.65384 0.76252 0.48542 0.0
C927 C 0.62953 0.76992 0.4847 0.0
C928 C 0.6044 0.73119 0.42833 0.0
C929 C 0.60479 0.75403 0.45598 0.0
C930 C 0.63198 0.79693 0.51052 0.0
C931 C 0.62352 0.72023 0.59356 0.0
C932 C 0.65012 0.73198 0.61951 0.0
C933 C 0.6197 0.74235 0.57154 0.0
C934 C 0.6427 0.77659 0.57461 0.0
C935 C 0.67259 0.7663 0.62332 0.0
C936 C 0.66887 0.78835 0.60115 0.0
C937 C 0.63948 0.80072 0.55164 0.0
C938 C 0.63965 0.92434 0.5997 0.0
C939 C 0.66488 0.93733 0.62792 0.0
C940 C 0.63262 0.89691 0.57548 0.0
C941 C 0.65125 0.88253 0.57834 0.0
C942 C 0.68292 0.92238 0.63153 0.0
C943 C 0.6762 0.89527 0.60688 0.0
C944 C 0.64412 0.85323 0.5534 0.0
C945 C 0.67274 0.93313 0.46489 0.0
C946 C 0.64881 0.92667 0.43676 0.0
C947 C 0.66847 0.90841 0.49014 0.0
C948 C 0.63999 0.87676 0.48824 0.0
C949 C 0.62005 0.89513 0.43526 0.0
C950 C 0.61581 0.87031 0.46059 0.0
C951 C 0.6369 0.84965 0.51223 0.0
H952 H 0.67278 0.73487 0.4591 0.0
H953 H 0.67393 0.77534 0.50617 0.0
H954 H 0.58536 0.71976 0.40605 0.0
H955 H 0.58608 0.75978 0.45448 0.0
H956 H 0.6056 0.69391 0.59023 0.0
H957 H 0.59875 0.7327 0.55224 0.0
H958 H 0.69331 0.77616 0.64307 0.0
H959 H 0.68679 0.81469 0.60433 0.0
H960 H 0.625 0.93508 0.59667 0.0
H961 H 0.61243 0.88682 0.55486 0.0
H962 H 0.70246 0.93185 0.65303 0.0
H963 H 0.6907 0.88436 0.60995 0.0
H964 H 0.69527 0.95708 0.46676 0.0
H965 H 0.68794 0.91378 0.51032 0.0
H966 H 0.60125 0.88929 0.41374 0.0
H967 H 0.59383 0.84592 0.45823 0.0
N968 N 0.63085 0.82149 0.49254 0.0
N969 N 0.64516 0.82868 0.57128 0.0
C970 C 0.07851 0.70683 0.48597 0.0
C971 C 0.06868 0.7182 0.4543 0.0
C972 C 0.10428 0.72943 0.51091 0.0
C973 C 0.12033 0.76369 0.50467 0.0
C974 C 0.08482 0.75252 0.44843 0.0
C975 C 0.11034 0.7749 0.47321 0.0
C976 C 0.14866 0.78851 0.52877 0.0
C977 C 0.06535 0.74207 0.61551 0.0
C978 C 0.07076 0.72898 0.64934 0.0
C979 C 0.09074 0.76159 0.58956 0.0
C980 C 0.12188 0.76776 0.59641 0.0
C981 C 0.10211 0.73587 0.65671 0.0
C982 C 0.12744 0.75514 0.6305 0.0
C983 C 0.14951 0.79024 0.57084 0.0
C984 C 0.25552 0.92909 0.60723 0.0
C985 C 0.26734 0.9247 0.64289 0.0
C986 C 0.23477 0.90183 0.58265 0.0
C987 C 0.22621 0.86973 0.59265 0.0
C988 C 0.2584 0.89255 0.65321 0.0
C989 C 0.23799 0.86531 0.62829 0.0
C990 C 0.20176 0.84039 0.56904 0.0
C991 C 0.28394 0.90151 0.48369 0.0
C992 C 0.27457 0.90997 0.4489 0.0
C993 C 0.26046 0.87794 0.50921 0.0
C994 C 0.22722 0.86316 0.50086 0.0
C995 C 0.24137 0.89438 0.44014 0.0
C996 C 0.21807 0.87141 0.4658 0.0
C997 C 0.20135 0.83818 0.52692 0.0
H998 H 0.06661 0.68053 0.49119 0.0
H999 H 0.11196 0.72013 0.53452 0.0
H1000 H 0.07793 0.76224 0.42445 0.0
H1001 H 0.12236 0.8012 0.46771 0.0
H1002 H 0.04152 0.73749 0.6092 0.0
H1003 H 0.08607 0.77229 0.56458 0.0
H1004 H 0.10704 0.72611 0.68247 0.0
H1005 H 0.15144 0.76021 0.63685 0.0
H1006 H 0.26171 0.95355 0.5987 0.0
H1007 H 0.22483 0.90583 0.55635 0.0
H1008 H 0.26719 0.88842 0.68047 0.0
H1009 H 0.23113 0.84069 0.63705 0.0
H1010 H 0.30936 0.91292 0.49106 0.0
H1011 H 0.26831 0.87126 0.53529 0.0
H1012 H 0.23321 0.90034 0.4137 0.0
H1013 H 0.1927 0.86034 0.45835 0.0
N1014 N 0.17468 0.8124 0.50874 0.0
N1015 N 0.17608 0.81605 0.58917 0.0
C1016 C 0.27834 0.37691 0.48565 0.0
C1017 C 0.26716 0.35807 0.44979 0.0
C1018 C 0.2571 0.38112 0.51019 0.0
C1019 C 0.22417 0.36586 0.4997 0.0
C1020 C 0.23455 0.34402 0.43879 0.0
C1021 C 0.21341 0.3478 0.46341 0.0
C1022 C 0.20024 0.36833 0.52518 0.0
C1023 C 0.23833 0.32188 0.60596 0.0
C1024 C 0.25379 0.34125 0.64049 0.0
C1025 C 0.2209 0.33004 0.58127 0.0
C1026 C 0.2189 0.35788 0.5905 0.0
C1027 C 0.25147 0.36894 0.64976 0.0
C1028 C 0.23397 0.377 0.62513 0.0
C1029 C 0.19809 0.36495 0.56692 0.0
C1030 C 0.06351 0.32505 0.60526 0.0
C1031 C 0.06812 0.34134 0.64255 0.0
C1032 C 0.08986 0.33371 0.58022 0.0
C1033 C 0.12123 0.35934 0.5916 0.0
C1034 C 0.0996 0.36665 0.65412 0.0
C1035 C 0.1259 0.37548 0.62891 0.0
C1036 C 0.1497 0.36626 0.56751 0.0
C1037 C 0.08748 0.38603 0.48891 0.0
C1038 C 0.08013 0.36969 0.45132 0.0
C1039 C 0.11133 0.38719 0.51317 0.0
C1040 C 0.12739 0.37101 0.50079 0.0
C1041 C 0.09732 0.35494 0.4384 0.0
C1042 C 0.12041 0.35544 0.46283 0.0
C1043 C 0.15201 0.37029 0.52578 0.0
H1044 H 0.3034 0.38834 0.49475 0.0
H1045 H 0.26645 0.39622 0.53727 0.0
H1046 H 0.22499 0.32937 0.41141 0.0
H1047 H 0.18828 0.33591 0.45428 0.0
H1048 H 0.23964 0.30038 0.59798 0.0
H1049 H 0.20855 0.3143 0.55535 0.0
H1050 H 0.26305 0.38436 0.67615 0.0
H1051 H 0.2321 0.39817 0.63318 0.0
H1052 H 0.03958 0.3053 0.59556 0.0
H1053 H 0.08578 0.31988 0.55236 0.0
H1054 H 0.10395 0.37974 0.68259 0.0
H1055 H 0.15001 0.39479 0.63867 0.0
H1056 H 0.07486 0.39792 0.49949 0.0
H1057 H 0.11704 0.40063 0.54153 0.0
H1058 H 0.09231 0.34203 0.40971 0.0
H1059 H 0.13243 0.34295 0.45212 0.0
N1060 N 0.1772 0.37107 0.50658 0.0
N1061 N 0.1731 0.36431 0.58629 0.0
loop_
_geom_bond_atom_site_label_1
_geom_bond_atom_site_label_2
_geom_bond_distance
_geom_bond_site_symmetry_2
_ccdc_geom_bond_type
C0 O1 1.160 . S
C0 O7 1.185 . S
O1 C0 1.160 . S
O2 Zn3 1.899 1_656 S
O2 C10 1.284 . S
Zn3 O2 1.899 1_454 S
Zn3 O4 2.019 1_455 S
Zn3 O7 2.086 . S
Zn3 O12 1.977 1_554 S
O4 Zn3 2.019 1_655 S
O4 C8 1.311 . S
C5 O6 1.203 1_455 S
C5 O12 1.267 . S
O6 C5 1.203 1_655 S
O7 C0 1.185 . S
O7 Zn3 2.086 . S
C8 O4 1.311 . S
C8 O9 1.211 . S
O9 C8 1.211 . S
C10 O2 1.284 . S
C10 O11 1.273 1_556 S
O11 C10 1.273 1_554 S
O12 Zn3 1.977 1_556 S
O12 C5 1.267 . S
C13 O14 1.160 . S
C13 O20 1.185 . S
O14 C13 1.160 . S
O15 Zn16 1.899 . S
O15 C23 1.284 . S
Zn16 O15 1.899 . S
Zn16 O17 2.032 1_554 S
Zn16 O20 2.086 1_554 S
Zn16 O25 1.977 . S
O17 Zn16 2.032 1_556 S
O17 C21 1.278 . S
C18 O19 1.203 . S
C18 O25 1.267 . S
O19 C18 1.203 . S
O20 C13 1.185 . S
O20 Zn16 2.086 1_556 S
C21 O17 1.278 . S
C21 O22 1.211 . S
O22 C21 1.211 . S
C23 O15 1.284 . S
C23 O24 1.273 . S
O24 C23 1.273 . S
O25 Zn16 1.977 . S
O25 C18 1.267 . S
C26 O27 1.160 . S
C26 O33 1.185 1_556 S
O27 C26 1.160 . S
O28 Zn29 1.899 1_565 S
O28 C36 1.284 . S
Zn29 O28 1.899 1_545 S
Zn29 O30 2.032 1_554 S
Zn29 O33 2.086 . S
Zn29 O38 1.977 . S
O30 Zn29 2.032 1_556 S
O30 C34 1.278 1_545 S
C31 O32 1.203 1_545 S
C31 O38 1.267 . S
O32 C31 1.203 1_565 S
O33 C26 1.185 1_554 S
O33 Zn29 2.086 . S
C34 O30 1.278 1_565 S
C34 O35 1.211 . S
O35 C34 1.211 . S
C36 O28 1.284 . S
C36 O37 1.273 . S
O37 C36 1.273 . S
O38 Zn29 1.977 . S
O38 C31 1.267 . S
C39 O40 1.160 . S
C39 O46 1.185 . S
O40 C39 1.160 . S
O41 Zn42 1.899 1_455 S
O41 C49 1.284 . S
Zn42 O41 1.899 1_655 S
Zn42 O43 2.032 1_654 S
Zn42 O46 2.086 1_554 S
Zn42 O51 1.977 . S
O43 Zn42 2.032 1_456 S
O43 C47 1.278 . S
C44 O45 1.203 1_655 S
C44 O51 1.267 . S
O45 C44 1.203 1_455 S
O46 C39 1.185 . S
O46 Zn42 2.086 1_556 S
C47 O43 1.278 . S
C47 O48 1.211 . S
O48 C47 1.211 . S
C49 O41 1.284 . S
C49 O50 1.273 . S
O50 C49 1.273 . S
O51 Zn42 1.977 . S
O51 C44 1.267 . S
C52 O53 1.160 . S
C52 O59 1.185 . S
O53 C52 1.160 . S
O54 Zn55 1.899 1_556 S
O54 C62 1.284 . S
Zn55 O54 1.899 1_554 S
Zn55 O56 2.032 . S
Zn55 O59 2.086 . S
Zn55 O64 1.977 1_554 S
O56 Zn55 2.032 . S
O56 C60 1.278 . S
C57 O58 1.203 . S
C57 O64 1.267 . S
O58 C57 1.203 . S
O59 C52 1.185 . S
O59 Zn55 2.086 . S
C60 O56 1.278 . S
C60 O61 1.211 . S
O61 C60 1.211 . S
C62 O54 1.284 . S
C62 O63 1.273 . S
O63 C62 1.273 . S
O64 Zn55 1.977 1_556 S
O64 C57 1.267 . S
C65 O66 1.160 . S
C65 O72 1.185 . S
O66 C65 1.160 . S
O67 Zn68 1.899 1_546 S
O67 C75 1.284 . S
Zn68 O67 1.899 1_564 S
Zn68 O69 2.032 1_565 S
Zn68 O72 2.086 . S
Zn68 O77 1.977 1_554 S
O69 Zn68 2.032 1_545 S
O69 C73 1.278 . S
C70 O71 1.203 1_565 S
C70 O77 1.267 . S
O71 C70 1.203 1_545 S
O72 C65 1.185 . S
O72 Zn68 2.086 . S
C73 O69 1.278 . S
C73 O74 1.211 . S
O74 C73 1.211 . S
C75 O67 1.284 . S
C75 O76 1.273 1_556 S
O76 C75 1.273 1_554 S
O77 Zn68 1.977 1_556 S
O77 C70 1.267 . S
C78 O79 1.160 . S
C78 O85 1.185 . S
O79 C78 1.160 . S
O80 Zn81 1.899 . S
O80 C88 1.284 . S
Zn81 O80 1.899 . S
Zn81 O82 2.032 . S
Zn81 O85 2.086 . S
Zn81 O90 1.977 . S
O82 Zn81 2.032 . S
O82 C86 1.278 . S
C83 O84 1.203 . S
C83 O90 1.267 . S
O84 C83 1.203 . S
O85 C78 1.185 . S
O85 Zn81 2.086 . S
C86 O82 1.278 . S
C86 O87 1.211 . S
O87 C86 1.211 . S
C88 O80 1.284 . S
C88 O89 1.273 . S
O89 C88 1.273 . S
O90 Zn81 1.977 . S
O90 C83 1.267 . S
C91 O92 1.160 1_565 S
C91 O98 1.185 . S
O92 C91 1.160 1_545 S
O93 Zn94 1.899 1_545 S
O93 C101 1.284 . S
Zn94 O93 1.899 1_565 S
Zn94 O95 2.032 . S
Zn94 O98 2.086 . S
Zn94 O103 1.977 . S
O95 Zn94 2.032 . S
O95 C99 1.278 . S
C96 O97 1.203 . S
C96 O103 1.267 . S
O97 C96 1.203 . S
O98 C91 1.185 . S
O98 Zn94 2.086 . S
C99 O95 1.278 . S
C99 O100 1.211 . S
O100 C99 1.211 . S
C101 O93 1.284 . S
C101 O102 1.273 . S
O102 C101 1.273 . S
O103 Zn94 1.977 . S
O103 C96 1.267 . S
C104 O105 1.160 1_455 S
C104 O111 1.185 . S
O105 C104 1.160 1_655 S
O106 Zn107 1.899 1_655 S
O106 C114 1.284 . S
Zn107 O106 1.899 1_455 S
Zn107 O108 2.032 . S
Zn107 O111 2.086 . S
Zn107 O116 1.977 . S
O108 Zn107 2.032 . S
O108 C112 1.278 . S
C109 O110 1.203 . S
C109 O116 1.267 . S
O110 C109 1.203 . S
O111 C104 1.185 . S
O111 Zn107 2.086 . S
C112 O108 1.278 . S
C112 O113 1.211 . S
O113 C112 1.211 . S
C114 O106 1.284 . S
C114 O115 1.273 . S
O115 C114 1.273 . S
O116 Zn107 1.977 . S
O116 C109 1.267 . S
C117 O118 1.160 1_565 S
C117 O124 1.185 . S
O118 C117 1.160 1_545 S
O119 Zn120 1.899 1_545 S
O119 C127 1.284 . S
Zn120 O119 1.899 1_565 S
Zn120 O121 2.032 . S
Zn120 O124 2.086 . S
Zn120 O129 1.977 . S
O121 Zn120 2.032 . S
O121 C125 1.278 . S
C122 O123 1.203 . S
C122 O129 1.267 . S
O123 C122 1.203 . S
O124 C117 1.185 . S
O124 Zn120 2.086 . S
C125 O121 1.278 . S
C125 O126 1.211 . S
O126 C125 1.211 . S
C127 O119 1.284 . S
C127 O128 1.273 . S
O128 C127 1.273 . S
O129 Zn120 1.977 . S
O129 C122 1.267 . S
C130 O131 1.160 . S
C130 O137 1.185 . S
O131 C130 1.160 . S
O132 Zn133 1.899 1_655 S
O132 C140 1.284 1_655 S
Zn133 O132 1.899 1_455 S
Zn133 O134 2.032 . S
Zn133 O137 2.086 1_455 S
Zn133 O142 1.977 . S
O134 Zn133 2.032 . S
O134 C138 1.278 . S
C135 O136 1.203 . S
C135 O142 1.267 . S
O136 C135 1.203 . S
O137 C130 1.185 . S
O137 Zn133 2.086 1_655 S
C138 O134 1.278 . S
C138 O139 1.211 . S
O139 C138 1.211 . S
C140 O132 1.284 1_455 S
C140 O141 1.273 . S
O141 C140 1.273 . S
O142 Zn133 1.977 . S
O142 C135 1.267 . S
C143 O144 1.160 . S
C143 O150 1.185 . S
O144 C143 1.160 . S
O145 Zn146 1.899 . S
O145 C153 1.284 . S
Zn146 O145 1.899 . S
Zn146 O147 2.032 . S
Zn146 O150 2.086 . S
Zn146 O155 1.977 . S
O147 Zn146 2.032 . S
O147 C151 1.278 . S
C148 O149 1.203 . S
C148 O155 1.267 . S
O149 C148 1.203 . S
O150 C143 1.185 . S
O150 Zn146 2.086 . S
C151 O147 1.278 . S
C151 O152 1.211 . S
O152 C151 1.211 . S
C153 O145 1.284 . S
C153 O154 1.273 . S
O154 C153 1.273 . S
O155 Zn146 1.977 . S
O155 C148 1.267 . S
C156 O157 1.160 1_545 S
C156 O163 1.185 . S
O157 C156 1.160 1_565 S
O158 Zn159 1.899 1_565 S
O158 C166 1.284 . S
Zn159 O158 1.899 1_545 S
Zn159 O160 2.032 . S
Zn159 O163 2.086 . S
Zn159 O168 1.977 . S
O160 Zn159 2.032 . S
O160 C164 1.278 . S
C161 O162 1.203 . S
C161 O168 1.267 . S
O162 C161 1.203 . S
O163 C156 1.185 . S
O163 Zn159 2.086 . S
C164 O160 1.278 . S
C164 O165 1.211 . S
O165 C164 1.211 . S
C166 O158 1.284 . S
C166 O167 1.273 . S
O167 C166 1.273 . S
O168 Zn159 1.977 . S
O168 C161 1.267 . S
C169 O170 1.160 . S
C169 O176 1.185 . S
O170 C169 1.160 . S
O171 Zn172 1.899 1_455 S
O171 C179 1.284 1_455 S
Zn172 O171 1.899 1_655 S
Zn172 O173 2.032 . S
Zn172 O176 2.086 1_655 S
Zn172 O181 1.977 . S
O173 Zn172 2.032 . S
O173 C177 1.278 . S
C174 O175 1.203 . S
C174 O181 1.267 . S
O175 C174 1.203 . S
O176 C169 1.185 . S
O176 Zn172 2.086 1_455 S
C177 O173 1.278 . S
C177 O178 1.211 . S
O178 C177 1.211 . S
C179 O171 1.284 1_655 S
C179 O180 1.273 . S
O180 C179 1.273 . S
O181 Zn172 1.977 . S
O181 C174 1.267 . S
C182 O183 1.160 . S
C182 O189 1.185 . S
O183 C182 1.160 . S
O184 Zn185 1.899 . S
O184 C192 1.284 . S
Zn185 O184 1.899 . S
Zn185 O186 2.032 . S
Zn185 O189 2.086 . S
Zn185 O194 1.977 . S
O186 Zn185 2.032 . S
O186 C190 1.278 . S
C187 O188 1.203 . S
C187 O194 1.267 . S
O188 C187 1.203 . S
O189 C182 1.185 . S
O189 Zn185 2.086 . S
C190 O186 1.278 . S
C190 O191 1.211 . S
O191 C190 1.211 . S
C192 O184 1.284 . S
C192 O193 1.273 . S
O193 C192 1.273 . S
O194 Zn185 1.977 . S
O194 C187 1.267 . S
C195 O196 1.160 . S
C195 O202 1.185 . S
O196 C195 1.160 . S
O197 Zn198 1.899 . S
O197 C205 1.284 . S
Zn198 O197 1.899 . S
Zn198 O199 2.032 . S
Zn198 O202 2.086 . S
Zn198 O207 1.977 . S
O199 Zn198 2.032 . S
O199 C203 1.278 . S
C200 O201 1.203 . S
C200 O207 1.267 . S
O201 C200 1.203 . S
O202 C195 1.185 . S
O202 Zn198 2.086 . S
C203 O199 1.278 . S
C203 O204 1.211 . S
O204 C203 1.211 . S
C205 O197 1.284 . S
C205 O206 1.273 . S
O206 C205 1.273 . S
O207 Zn198 1.977 . S
O207 C200 1.267 . S
C208 O209 1.160 1_545 S
C208 O215 1.185 . S
O209 C208 1.160 1_565 S
O210 Zn211 1.899 1_565 S
O210 C218 1.284 . S
Zn211 O210 1.899 1_545 S
Zn211 O212 2.032 . S
Zn211 O215 2.086 . S
Zn211 O220 1.977 . S
O212 Zn211 2.032 . S
O212 C216 1.278 . S
C213 O214 1.203 . S
C213 O220 1.267 . S
O214 C213 1.203 . S
O215 C208 1.185 . S
O215 Zn211 2.086 . S
C216 O212 1.278 . S
C216 O217 1.211 . S
O217 C216 1.211 . S
C218 O210 1.284 . S
C218 O219 1.273 . S
O219 C218 1.273 . S
O220 Zn211 1.977 . S
O220 C213 1.267 . S
C221 O222 1.160 1_655 S
C221 O228 1.185 . S
O222 C221 1.160 1_455 S
O223 Zn224 1.899 1_455 S
O223 C231 1.284 . S
Zn224 O223 1.899 1_655 S
Zn224 O225 2.032 . S
Zn224 O228 2.086 . S
Zn224 O233 1.977 . S
O225 Zn224 2.032 . S
O225 C229 1.278 . S
C226 O227 1.203 . S
C226 O233 1.267 . S
O227 C226 1.203 . S
O228 C221 1.185 . S
O228 Zn224 2.086 . S
C229 O225 1.278 . S
C229 O230 1.211 . S
O230 C229 1.211 . S
C231 O223 1.284 . S
C231 O232 1.273 . S
O232 C231 1.273 . S
O233 Zn224 1.977 . S
O233 C226 1.267 . S
C234 C235 1.384 . S
C234 C236 1.384 . S
C234 H262 0.931 . S
C235 C234 1.384 . S
C235 C238 1.382 . S
C236 C234 1.384 . S
C236 C237 1.381 . S
C236 H263 0.930 . S
C237 C236 1.381 . S
C237 C239 1.381 . S
C237 C240 1.487 . S
C238 C235 1.382 . S
C238 C239 1.387 . S
C238 H264 0.930 . S
C239 C237 1.381 . S
C239 C238 1.387 . S
C239 H265 0.931 . S
C240 C237 1.487 . S
C240 C247 1.399 . S
C240 N278 1.343 . S
C241 C242 1.384 . S
C241 C243 1.384 . S
C241 H266 0.931 . S
C242 C241 1.384 . S
C242 C245 1.382 . S
C243 C241 1.384 . S
C243 C244 1.381 . S
C243 H267 0.930 . S
C244 C243 1.381 . S
C244 C246 1.381 . S
C244 C247 1.487 . S
C245 C242 1.382 . S
C245 C246 1.387 . S
C245 H268 0.930 . S
C246 C244 1.381 . S
C246 C245 1.387 . S
C246 H269 0.931 . S
C247 C240 1.399 . S
C247 C244 1.487 . S
C247 N279 1.343 . S
C248 C249 1.384 . S
C248 C250 1.384 . S
C248 H270 0.931 . S
C249 C248 1.384 . S
C249 C252 1.382 . S
C250 C248 1.384 . S
C250 C251 1.381 . S
C250 H271 0.930 . S
C251 C250 1.381 . S
C251 C253 1.381 . S
C251 C254 1.487 . S
C252 C249 1.382 . S
C252 C253 1.387 . S
C252 H272 0.930 . S
C253 C251 1.381 . S
C253 C252 1.387 . S
C253 H273 0.931 . S
C254 C251 1.487 . S
C254 C261 1.399 . S
C254 N279 1.343 . S
C255 C256 1.384 . S
C255 C257 1.384 . S
C255 H274 0.931 . S
C256 C255 1.384 . S
C256 C259 1.382 . S
C257 C255 1.384 . S
C257 C258 1.381 . S
C257 H275 0.930 . S
C258 C257 1.381 . S
C258 C260 1.381 . S
C258 C261 1.487 . S
C259 C256 1.382 . S
C259 C260 1.387 . S
C259 H276 0.930 . S
C260 C258 1.381 . S
C260 C259 1.387 . S
C260 H277 0.931 . S
C261 C254 1.399 . S
C261 C258 1.487 . S
C261 N278 1.343 . S
H262 C234 0.931 . S
H263 C236 0.930 . S
H264 C238 0.930 . S
H265 C239 0.931 . S
H266 C241 0.931 . S
H267 C243 0.930 . S
H268 C245 0.930 . S
H269 C246 0.931 . S
H270 C248 0.931 . S
H271 C250 0.930 . S
H272 C252 0.930 . S
H273 C253 0.931 . S
H274 C255 0.931 . S
H275 C257 0.930 . S
H276 C259 0.930 . S
H277 C260 0.931 . S
N278 C240 1.343 . S
N278 C261 1.343 . S
N279 C247 1.343 . S
N279 C254 1.343 . S
C280 C281 1.384 . S
C280 C282 1.384 . S
C280 H308 0.931 . S
C281 C280 1.384 . S
C281 C284 1.382 . S
C282 C280 1.384 . S
C282 C283 1.381 . S
C282 H309 0.930 . S
C283 C282 1.381 . S
C283 C285 1.381 . S
C283 C286 1.487 . S
C284 C281 1.382 . S
C284 C285 1.387 . S
C284 H310 0.930 . S
C285 C283 1.381 . S
C285 C284 1.387 . S
C285 H311 0.931 . S
C286 C283 1.487 . S
C286 C293 1.399 . S
C286 N324 1.343 . S
C287 C288 1.384 . S
C287 C289 1.384 . S
C287 H312 0.931 . S
C288 C287 1.384 . S
C288 C291 1.382 . S
C289 C287 1.384 . S
C289 C290 1.381 . S
C289 H313 0.930 . S
C290 C289 1.381 . S
C290 C292 1.381 . S
C290 C293 1.487 . S
C291 C288 1.382 . S
C291 C292 1.387 . S
C291 H314 0.930 . S
C292 C290 1.381 . S
C292 C291 1.387 . S
C292 H315 0.931 . S
C293 C286 1.399 . S
C293 C290 1.487 . S
C293 N325 1.343 . S
C294 C295 1.384 . S
C294 C296 1.384 . S
C294 H316 0.931 . S
C295 C294 1.384 . S
C295 C298 1.382 . S
C296 C294 1.384 . S
C296 C297 1.381 . S
C296 H317 0.930 . S
C297 C296 1.381 . S
C297 C299 1.381 . S
C297 C300 1.487 . S
C298 C295 1.382 . S
C298 C299 1.387 . S
C298 H318 0.930 . S
C299 C297 1.381 . S
C299 C298 1.387 . S
C299 H319 0.931 . S
C300 C297 1.487 . S
C300 C307 1.399 . S
C300 N325 1.343 . S
C301 C302 1.384 . S
C301 C303 1.384 . S
C301 H320 0.931 . S
C302 C301 1.384 . S
C302 C305 1.382 . S
C303 C301 1.384 . S
C303 C304 1.381 . S
C303 H321 0.930 . S
C304 C303 1.381 . S
C304 C306 1.381 . S
C304 C307 1.487 . S
C305 C302 1.382 . S
C305 C306 1.387 . S
C305 H322 0.930 . S
C306 C304 1.381 . S
C306 C305 1.387 . S
C306 H323 0.931 . S
C307 C300 1.399 . S
C307 C304 1.487 . S
C307 N324 1.343 . S
H308 C280 0.931 . S
H309 C282 0.930 . S
H310 C284 0.930 . S
H311 C285 0.931 . S
H312 C287 0.931 . S
H313 C289 0.930 . S
H314 C291 0.930 . S
H315 C292 0.931 . S
H316 C294 0.931 . S
H317 C296 0.930 . S
H318 C298 0.930 . S
H319 C299 0.931 . S
H320 C301 0.931 . S
H321 C303 0.930 . S
H322 C305 0.930 . S
H323 C306 0.931 . S
N324 C286 1.343 . S
N324 C307 1.343 . S
N325 C293 1.343 . S
N325 C300 1.343 . S
C326 C327 1.384 . S
C326 C328 1.384 . S
C326 H354 0.931 . S
C327 C326 1.384 . S
C327 C330 1.382 . S
C328 C326 1.384 . S
C328 C329 1.381 . S
C328 H355 0.930 . S
C329 C328 1.381 . S
C329 C331 1.381 . S
C329 C332 1.487 . S
C330 C327 1.382 . S
C330 C331 1.387 . S
C330 H356 0.930 . S
C331 C329 1.381 . S
C331 C330 1.387 . S
C331 H357 0.931 . S
C332 C329 1.487 . S
C332 C339 1.399 . S
C332 N370 1.343 . S
C333 C334 1.384 . S
C333 C335 1.384 . S
C333 H358 0.931 . S
C334 C333 1.384 . S
C334 C337 1.382 . S
C335 C333 1.384 . S
C335 C336 1.381 . S
C335 H359 0.930 . S
C336 C335 1.381 . S
C336 C338 1.381 . S
C336 C339 1.487 . S
C337 C334 1.382 . S
C337 C338 1.387 . S
C337 H360 0.930 . S
C338 C336 1.381 . S
C338 C337 1.387 . S
C338 H361 0.931 . S
C339 C332 1.399 . S
C339 C336 1.487 . S
C339 N371 1.343 . S
C340 C341 1.384 . S
C340 C342 1.384 . S
C340 H362 0.931 . S
C341 C340 1.384 . S
C341 C344 1.382 . S
C342 C340 1.384 . S
C342 C343 1.381 . S
C342 H363 0.930 . S
C343 C342 1.381 . S
C343 C345 1.381 . S
C343 C346 1.487 . S
C344 C341 1.382 . S
C344 C345 1.387 . S
C344 H364 0.930 . S
C345 C343 1.381 . S
C345 C344 1.387 . S
C345 H365 0.931 . S
C346 C343 1.487 . S
C346 C353 1.399 . S
C346 N371 1.343 . S
C347 C348 1.384 . S
C347 C349 1.384 . S
C347 H366 0.931 . S
C348 C347 1.384 . S
C348 C351 1.382 . S
C349 C347 1.384 . S
C349 C350 1.381 . S
C349 H367 0.930 . S
C350 C349 1.381 . S
C350 C352 1.381 . S
C350 C353 1.487 . S
C351 C348 1.382 . S
C351 C352 1.387 . S
C351 H368 0.930 . S
C352 C350 1.381 . S
C352 C351 1.387 . S
C352 H369 0.931 . S
C353 C346 1.399 . S
C353 C350 1.487 . S
C353 N370 1.343 . S
H354 C326 0.931 . S
H355 C328 0.930 . S
H356 C330 0.930 . S
H357 C331 0.931 . S
H358 C333 0.931 . S
H359 C335 0.930 . S
H360 C337 0.930 . S
H361 C338 0.931 . S
H362 C340 0.931 . S
H363 C342 0.930 . S
H364 C344 0.930 . S
H365 C345 0.931 . S
H366 C347 0.931 . S
H367 C349 0.930 . S
H368 C351 0.930 . S
H369 C352 0.931 . S
N370 C332 1.343 . S
N370 C353 1.343 . S
N371 C339 1.343 . S
N371 C346 1.343 . S
C372 C373 1.384 . S
C372 C374 1.384 . S
C372 H400 0.931 . S
C373 C372 1.384 . S
C373 C376 1.382 . S
C374 C372 1.384 . S
C374 C375 1.381 . S
C374 H401 0.930 . S
C375 C374 1.381 . S
C375 C377 1.381 . S
C375 C378 1.487 . S
C376 C373 1.382 . S
C376 C377 1.387 . S
C376 H402 0.930 . S
C377 C375 1.381 . S
C377 C376 1.387 . S
C377 H403 0.931 . S
C378 C375 1.487 . S
C378 C385 1.399 . S
C378 N416 1.343 . S
C379 C380 1.384 . S
C379 C381 1.384 . S
C379 H404 0.931 . S
C380 C379 1.384 . S
C380 C383 1.382 . S
C381 C379 1.384 . S
C381 C382 1.381 . S
C381 H405 0.930 . S
C382 C381 1.381 . S
C382 C384 1.381 . S
C382 C385 1.487 . S
C383 C380 1.382 . S
C383 C384 1.387 . S
C383 H406 0.930 . S
C384 C382 1.381 . S
C384 C383 1.387 . S
C384 H407 0.931 . S
C385 C378 1.399 . S
C385 C382 1.487 . S
C385 N417 1.343 . S
C386 C387 1.384 . S
C386 C388 1.384 . S
C386 H408 0.931 . S
C387 C386 1.384 . S
C387 C390 1.382 . S
C388 C386 1.384 . S
C388 C389 1.381 . S
C388 H409 0.930 . S
C389 C388 1.381 . S
C389 C391 1.381 . S
C389 C392 1.487 . S
C390 C387 1.382 . S
C390 C391 1.387 . S
C390 H410 0.930 . S
C391 C389 1.381 . S
C391 C390 1.387 . S
C391 H411 0.931 . S
C392 C389 1.487 . S
C392 C399 1.399 . S
C392 N417 1.343 . S
C393 C394 1.384 . S
C393 C395 1.384 . S
C393 H412 0.931 . S
C394 C393 1.384 . S
C394 C397 1.382 . S
C395 C393 1.384 . S
C395 C396 1.381 . S
C395 H413 0.930 . S
C396 C395 1.381 . S
C396 C398 1.381 . S
C396 C399 1.487 . S
C397 C394 1.382 . S
C397 C398 1.387 . S
C397 H414 0.930 . S
C398 C396 1.381 . S
C398 C397 1.387 . S
C398 H415 0.931 . S
C399 C392 1.399 . S
C399 C396 1.487 . S
C399 N416 1.343 . S
H400 C372 0.931 . S
H401 C374 0.930 . S
H402 C376 0.930 . S
H403 C377 0.931 . S
H404 C379 0.931 . S
H405 C381 0.930 . S
H406 C383 0.930 . S
H407 C384 0.931 . S
H408 C386 0.931 . S
H409 C388 0.930 . S
H410 C390 0.930 . S
H411 C391 0.931 . S
H412 C393 0.931 . S
H413 C395 0.930 . S
H414 C397 0.930 . S
H415 C398 0.931 . S
N416 C378 1.343 . S
N416 C399 1.343 . S
N417 C385 1.343 . S
N417 C392 1.343 . S
C418 C419 1.384 . S
C418 C420 1.384 . S
C418 H446 0.931 . S
C419 C418 1.384 . S
C419 C422 1.382 . S
C420 C418 1.384 . S
C420 C421 1.381 . S
C420 H447 0.930 . S
C421 C420 1.381 . S
C421 C423 1.381 . S
C421 C424 1.487 . S
C422 C419 1.382 . S
C422 C423 1.387 . S
C422 H448 0.930 . S
C423 C421 1.381 . S
C423 C422 1.387 . S
C423 H449 0.931 . S
C424 C421 1.487 . S
C424 C431 1.399 . S
C424 N462 1.343 . S
C425 C426 1.384 . S
C425 C427 1.384 . S
C425 H450 0.931 . S
C426 C425 1.384 . S
C426 C429 1.382 . S
C427 C425 1.384 . S
C427 C428 1.381 . S
C427 H451 0.930 . S
C428 C427 1.381 . S
C428 C430 1.381 . S
C428 C431 1.487 . S
C429 C426 1.382 . S
C429 C430 1.387 . S
C429 H452 0.930 . S
C430 C428 1.381 . S
C430 C429 1.387 . S
C430 H453 0.931 . S
C431 C424 1.399 . S
C431 C428 1.487 . S
C431 N463 1.343 . S
C432 C433 1.384 . S
C432 C434 1.384 . S
C432 H454 0.931 . S
C433 C432 1.384 . S
C433 C436 1.382 . S
C434 C432 1.384 . S
C434 C435 1.381 . S
C434 H455 0.930 . S
C435 C434 1.381 . S
C435 C437 1.381 . S
C435 C438 1.487 . S
C436 C433 1.382 . S
C436 C437 1.387 . S
C436 H456 0.930 . S
C437 C435 1.381 . S
C437 C436 1.387 . S
C437 H457 0.931 . S
C438 C435 1.487 . S
C438 C445 1.399 . S
C438 N463 1.343 . S
C439 C440 1.384 . S
C439 C441 1.384 . S
C439 H458 0.931 . S
C440 C439 1.384 . S
C440 C443 1.382 . S
C441 C439 1.384 . S
C441 C442 1.381 . S
C441 H459 0.930 . S
C442 C441 1.381 . S
C442 C444 1.381 . S
C442 C445 1.487 . S
C443 C440 1.382 . S
C443 C444 1.387 . S
C443 H460 0.930 . S
C444 C442 1.381 . S
C444 C443 1.387 . S
C444 H461 0.931 . S
C445 C438 1.399 . S
C445 C442 1.487 . S
C445 N462 1.343 . S
H446 C418 0.931 . S
H447 C420 0.930 . S
H448 C422 0.930 . S
H449 C423 0.931 . S
H450 C425 0.931 . S
H451 C427 0.930 . S
H452 C429 0.930 . S
H453 C430 0.931 . S
H454 C432 0.931 . S
H455 C434 0.930 . S
H456 C436 0.930 . S
H457 C437 0.931 . S
H458 C439 0.931 . S
H459 C441 0.930 . S
H460 C443 0.930 . S
H461 C444 0.931 . S
N462 C424 1.343 . S
N462 C445 1.343 . S
N463 C431 1.343 . S
N463 C438 1.343 . S
C464 C465 1.384 . S
C464 C466 1.384 . S
C464 H492 0.931 . S
C465 C464 1.384 . S
C465 C468 1.382 . S
C466 C464 1.384 . S
C466 C467 1.381 . S
C466 H493 0.930 . S
C467 C466 1.381 . S
C467 C469 1.381 . S
C467 C470 1.487 . S
C468 C465 1.382 . S
C468 C469 1.387 . S
C468 H494 0.930 . S
C469 C467 1.381 . S
C469 C468 1.387 . S
C469 H495 0.931 . S
C470 C467 1.487 . S
C470 C477 1.399 . S
C470 N508 1.343 . S
C471 C472 1.384 . S
C471 C473 1.384 . S
C471 H496 0.931 . S
C472 C471 1.384 . S
C472 C475 1.382 . S
C473 C471 1.384 . S
C473 C474 1.381 . S
C473 H497 0.930 . S
C474 C473 1.381 . S
C474 C476 1.381 . S
C474 C477 1.487 . S
C475 C472 1.382 . S
C475 C476 1.387 . S
C475 H498 0.930 . S
C476 C474 1.381 . S
C476 C475 1.387 . S
C476 H499 0.931 . S
C477 C470 1.399 . S
C477 C474 1.487 . S
C477 N509 1.343 . S
C478 C479 1.384 . S
C478 C480 1.384 . S
C478 H500 0.931 . S
C479 C478 1.384 . S
C479 C482 1.382 . S
C480 C478 1.384 . S
C480 C481 1.381 . S
C480 H501 0.930 . S
C481 C480 1.381 . S
C481 C483 1.381 . S
C481 C484 1.487 . S
C482 C479 1.382 . S
C482 C483 1.387 . S
C482 H502 0.930 . S
C483 C481 1.381 . S
C483 C482 1.387 . S
C483 H503 0.931 . S
C484 C481 1.487 . S
C484 C491 1.399 . S
C484 N509 1.343 . S
C485 C486 1.384 . S
C485 C487 1.384 . S
C485 H504 0.931 . S
C486 C485 1.384 . S
C486 C489 1.382 . S
C487 C485 1.384 . S
C487 C488 1.381 . S
C487 H505 0.930 . S
C488 C487 1.381 . S
C488 C490 1.381 . S
C488 C491 1.487 . S
C489 C486 1.382 . S
C489 C490 1.387 . S
C489 H506 0.930 . S
C490 C488 1.381 . S
C490 C489 1.387 . S
C490 H507 0.931 . S
C491 C484 1.399 . S
C491 C488 1.487 . S
C491 N508 1.343 . S
H492 C464 0.931 . S
H493 C466 0.930 . S
H494 C468 0.930 . S
H495 C469 0.931 . S
H496 C471 0.931 . S
H497 C473 0.930 . S
H498 C475 0.930 . S
H499 C476 0.931 . S
H500 C478 0.931 . S
H501 C480 0.930 . S
H502 C482 0.930 . S
H503 C483 0.931 . S
H504 C485 0.931 . S
H505 C487 0.930 . S
H506 C489 0.930 . S
H507 C490 0.931 . S
N508 C470 1.343 . S
N508 C491 1.343 . S
N509 C477 1.343 . S
N509 C484 1.343 . S
C510 C511 1.384 . S
C510 C512 1.384 . S
C510 H538 0.931 . S
C511 C510 1.384 . S
C511 C514 1.382 . S
C512 C510 1.384 . S
C512 C513 1.381 . S
C512 H539 0.930 . S
C513 C512 1.381 . S
C513 C515 1.381 . S
C513 C516 1.487 . S
C514 C511 1.382 . S
C514 C515 1.387 . S
C514 H540 0.930 . S
C515 C513 1.381 . S
C515 C514 1.387 . S
C515 H541 0.931 . S
C516 C513 1.487 . S
C516 C523 1.399 . S
C516 N554 1.343 . S
C517 C518 1.384 . S
C517 C519 1.384 . S
C517 H542 0.931 . S
C518 C517 1.384 . S
C518 C521 1.382 . S
C519 C517 1.384 . S
C519 C520 1.381 . S
C519 H543 0.930 . S
C520 C519 1.381 . S
C520 C522 1.381 . S
C520 C523 1.487 . S
C521 C518 1.382 . S
C521 C522 1.387 . S
C521 H544 0.930 . S
C522 C520 1.381 . S
C522 C521 1.387 . S
C522 H545 0.931 . S
C523 C516 1.399 . S
C523 C520 1.487 . S
C523 N555 1.343 . S
C524 C525 1.384 . S
C524 C526 1.384 . S
C524 H546 0.931 . S
C525 C524 1.384 . S
C525 C528 1.382 . S
C526 C524 1.384 . S
C526 C527 1.381 . S
C526 H547 0.930 . S
C527 C526 1.381 . S
C527 C529 1.381 . S
C527 C530 1.487 . S
C528 C525 1.382 . S
C528 C529 1.387 . S
C528 H548 0.930 . S
C529 C527 1.381 . S
C529 C528 1.387 . S
C529 H549 0.931 . S
C530 C527 1.487 . S
C530 C537 1.399 . S
C530 N555 1.343 . S
C531 C532 1.384 . S
C531 C533 1.384 . S
C531 H550 0.931 . S
C532 C531 1.384 . S
C532 C535 1.382 . S
C533 C531 1.384 . S
C533 C534 1.381 . S
C533 H551 0.930 . S
C534 C533 1.381 . S
C534 C536 1.381 . S
C534 C537 1.487 . S
C535 C532 1.382 . S
C535 C536 1.387 . S
C535 H552 0.930 . S
C536 C534 1.381 . S
C536 C535 1.387 . S
C536 H553 0.931 . S
C537 C530 1.399 . S
C537 C534 1.487 . S
C537 N554 1.343 . S
H538 C510 0.931 . S
H539 C512 0.930 . S
H540 C514 0.930 . S
H541 C515 0.931 . S
H542 C517 0.931 . S
H543 C519 0.930 . S
H544 C521 0.930 . S
H545 C522 0.931 . S
H546 C524 0.931 . S
H547 C526 0.930 . S
H548 C528 0.930 . S
H549 C529 0.931 . S
H550 C531 0.931 . S
H551 C533 0.930 . S
H552 C535 0.930 . S
H553 C536 0.931 . S
N554 C516 1.343 . S
N554 C537 1.343 . S
N555 C523 1.343 . S
N555 C530 1.343 . S
C556 C557 1.384 . S
C556 C558 1.384 . S
C556 H584 0.931 . S
C557 C556 1.384 . S
C557 C560 1.382 . S
C558 C556 1.384 . S
C558 C559 1.381 . S
C558 H585 0.930 . S
C559 C558 1.381 . S
C559 C561 1.381 . S
C559 C562 1.487 . S
C560 C557 1.382 . S
C560 C561 1.387 . S
C560 H586 0.930 . S
C561 C559 1.381 . S
C561 C560 1.387 . S
C561 H587 0.931 . S
C562 C559 1.487 . S
C562 C569 1.399 . S
C562 N600 1.343 . S
C563 C564 1.384 . S
C563 C565 1.384 . S
C563 H588 0.931 . S
C564 C563 1.384 . S
C564 C567 1.382 . S
C565 C563 1.384 . S
C565 C566 1.381 . S
C565 H589 0.930 . S
C566 C565 1.381 . S
C566 C568 1.381 . S
C566 C569 1.487 . S
C567 C564 1.382 . S
C567 C568 1.387 . S
C567 H590 0.930 . S
C568 C566 1.381 . S
C568 C567 1.387 . S
C568 H591 0.931 . S
C569 C562 1.399 . S
C569 C566 1.487 . S
C569 N601 1.343 . S
C570 C571 1.384 . S
C570 C572 1.384 . S
C570 H592 0.931 . S
C571 C570 1.384 . S
C571 C574 1.382 . S
C572 C570 1.384 . S
C572 C573 1.381 . S
C572 H593 0.930 . S
C573 C572 1.381 . S
C573 C575 1.381 . S
C573 C576 1.487 . S
C574 C571 1.382 . S
C574 C575 1.387 . S
C574 H594 0.930 . S
C575 C573 1.381 . S
C575 C574 1.387 . S
C575 H595 0.931 . S
C576 C573 1.487 . S
C576 C583 1.399 . S
C576 N601 1.343 . S
C577 C578 1.384 . S
C577 C579 1.384 . S
C577 H596 0.931 . S
C578 C577 1.384 . S
C578 C581 1.382 . S
C579 C577 1.384 . S
C579 C580 1.381 . S
C579 H597 0.930 . S
C580 C579 1.381 . S
C580 C582 1.381 . S
C580 C583 1.487 . S
C581 C578 1.382 . S
C581 C582 1.387 . S
C581 H598 0.930 . S
C582 C580 1.381 . S
C582 C581 1.387 . S
C582 H599 0.931 . S
C583 C576 1.399 . S
C583 C580 1.487 . S
C583 N600 1.343 . S
H584 C556 0.931 . S
H585 C558 0.930 . S
H586 C560 0.930 . S
H587 C561 0.931 . S
H588 C563 0.931 . S
H589 C565 0.930 . S
H590 C567 0.930 . S
H591 C568 0.931 . S
H592 C570 0.931 . S
H593 C572 0.930 . S
H594 C574 0.930 . S
H595 C575 0.931 . S
H596 C577 0.931 . S
H597 C579 0.930 . S
H598 C581 0.930 . S
H599 C582 0.931 . S
N600 C562 1.343 . S
N600 C583 1.343 . S
N601 C569 1.343 . S
N601 C576 1.343 . S
C602 C603 1.384 . S
C602 C604 1.384 . S
C602 H630 0.931 . S
C603 C602 1.384 . S
C603 C606 1.382 . S
C604 C602 1.384 . S
C604 C605 1.381 . S
C604 H631 0.930 . S
C605 C604 1.381 . S
C605 C607 1.381 . S
C605 C608 1.487 . S
C606 C603 1.382 . S
C606 C607 1.387 . S
C606 H632 0.930 . S
C607 C605 1.381 . S
C607 C606 1.387 . S
C607 H633 0.931 . S
C608 C605 1.487 . S
C608 C615 1.399 . S
C608 N646 1.343 . S
C609 C610 1.384 . S
C609 C611 1.384 . S
C609 H634 0.931 . S
C610 C609 1.384 . S
C610 C613 1.382 . S
C611 C609 1.384 . S
C611 C612 1.381 . S
C611 H635 0.930 . S
C612 C611 1.381 . S
C612 C614 1.381 . S
C612 C615 1.487 . S
C613 C610 1.382 . S
C613 C614 1.387 . S
C613 H636 0.930 . S
C614 C612 1.381 . S
C614 C613 1.387 . S
C614 H637 0.931 . S
C615 C608 1.399 . S
C615 C612 1.487 . S
C615 N647 1.343 . S
C616 C617 1.384 . S
C616 C618 1.384 . S
C616 H638 0.931 . S
C617 C616 1.384 . S
C617 C620 1.382 . S
C618 C616 1.384 . S
C618 C619 1.381 . S
C618 H639 0.930 . S
C619 C618 1.381 . S
C619 C621 1.381 . S
C619 C622 1.487 . S
C620 C617 1.382 . S
C620 C621 1.387 . S
C620 H640 0.930 . S
C621 C619 1.381 . S
C621 C620 1.387 . S
C621 H641 0.931 . S
C622 C619 1.487 . S
C622 C629 1.399 . S
C622 N647 1.343 . S
C623 C624 1.384 . S
C623 C625 1.384 . S
C623 H642 0.931 . S
C624 C623 1.384 . S
C624 C627 1.382 . S
C625 C623 1.384 . S
C625 C626 1.381 . S
C625 H643 0.930 . S
C626 C625 1.381 . S
C626 C628 1.381 . S
C626 C629 1.487 . S
C627 C624 1.382 . S
C627 C628 1.387 . S
C627 H644 0.930 . S
C628 C626 1.381 . S
C628 C627 1.387 . S
C628 H645 0.931 . S
C629 C622 1.399 . S
C629 C626 1.487 . S
C629 N646 1.343 . S
H630 C602 0.931 . S
H631 C604 0.930 . S
H632 C606 0.930 . S
H633 C607 0.931 . S
H634 C609 0.931 . S
H635 C611 0.930 . S
H636 C613 0.930 . S
H637 C614 0.931 . S
H638 C616 0.931 . S
H639 C618 0.930 . S
H640 C620 0.930 . S
H641 C621 0.931 . S
H642 C623 0.931 . S
H643 C625 0.930 . S
H644 C627 0.930 . S
H645 C628 0.931 . S
N646 C608 1.343 . S
N646 C629 1.343 . S
N647 C615 1.343 . S
N647 C622 1.343 . S
C648 C649 1.384 . S
C648 C650 1.384 . S
C648 H676 0.931 . S
C649 C648 1.384 . S
C649 C652 1.382 1_655 S
C650 C648 1.384 . S
C650 C651 1.381 . S
C650 H677 0.930 . S
C651 C650 1.381 . S
C651 C653 1.381 1_655 S
C651 C654 1.487 1_655 S
C652 C649 1.382 1_455 S
C652 C653 1.387 . S
C652 H678 0.930 . S
C653 C651 1.381 1_455 S
C653 C652 1.387 . S
C653 H679 0.931 . S
C654 C651 1.487 1_455 S
C654 C661 1.399 1_455 S
C654 N692 1.343 . S
C655 C656 1.384 . S
C655 C657 1.384 . S
C655 H680 0.931 . S
C656 C655 1.384 . S
C656 C659 1.382 1_455 S
C657 C655 1.384 . S
C657 C658 1.381 1_455 S
C657 H681 0.930 . S
C658 C657 1.381 1_655 S
C658 C660 1.381 . S
C658 C661 1.497 . S
C659 C656 1.382 1_655 S
C659 C660 1.387 . S
C659 H682 0.930 . S
C660 C658 1.381 . S
C660 C659 1.387 . S
C660 H683 0.931 . S
C661 C654 1.399 1_655 S
C661 C658 1.497 . S
C661 N693 1.333 . S
C662 C663 1.384 . S
C662 C664 1.384 . S
C662 H684 0.931 . S
C663 C662 1.384 . S
C663 C666 1.382 1_455 S
C664 C662 1.384 . S
C664 C665 1.381 . S
C664 H685 0.930 . S
C665 C664 1.381 . S
C665 C667 1.381 1_455 S
C665 C668 1.487 . S
C666 C663 1.382 1_655 S
C666 C667 1.387 . S
C666 H686 0.930 . S
C667 C665 1.381 1_655 S
C667 C666 1.387 . S
C667 H687 0.931 . S
C668 C665 1.487 . S
C668 C675 1.399 . S
C668 N693 1.343 1_455 S
C669 C670 1.384 . S
C669 C671 1.384 . S
C669 H688 0.931 . S
C670 C669 1.384 . S
C670 C673 1.382 1_655 S
C671 C669 1.384 . S
C671 C672 1.380 1_655 S
C671 H689 0.930 . S
C672 C671 1.380 1_455 S
C672 C674 1.387 . S
C672 C675 1.497 . S
C673 C670 1.382 1_455 S
C673 C674 1.387 . S
C673 H690 0.930 . S
C674 C672 1.387 . S
C674 C673 1.387 . S
C674 H691 0.931 . S
C675 C668 1.399 . S
C675 C672 1.497 . S
C675 N692 1.328 . S
H676 C648 0.931 . S
H677 C650 0.930 . S
H678 C652 0.930 . S
H679 C653 0.931 . S
H680 C655 0.931 . S
H681 C657 0.930 . S
H682 C659 0.930 . S
H683 C660 0.931 . S
H684 C662 0.931 . S
H685 C664 0.930 . S
H686 C666 0.930 . S
H687 C667 0.931 . S
H688 C669 0.931 . S
H689 C671 0.930 . S
H690 C673 0.930 . S
H691 C674 0.931 . S
N692 C654 1.343 . S
N692 C675 1.328 . S
N693 C661 1.333 . S
N693 C668 1.343 1_655 S
C694 C695 1.384 . S
C694 C696 1.384 . S
C694 H722 0.931 . S
C695 C694 1.384 . S
C695 C698 1.382 . S
C696 C694 1.384 . S
C696 C697 1.381 . S
C696 H723 0.930 . S
C697 C696 1.381 . S
C697 C699 1.381 . S
C697 C700 1.487 . S
C698 C695 1.382 . S
C698 C699 1.387 . S
C698 H724 0.930 . S
C699 C697 1.381 . S
C699 C698 1.387 . S
C699 H725 0.931 . S
C700 C697 1.487 . S
C700 C707 1.399 . S
C700 N738 1.343 . S
C701 C702 1.384 . S
C701 C703 1.384 . S
C701 H726 0.931 . S
C702 C701 1.384 . S
C702 C705 1.382 . S
C703 C701 1.384 . S
C703 C704 1.381 . S
C703 H727 0.930 . S
C704 C703 1.381 . S
C704 C706 1.381 . S
C704 C707 1.487 . S
C705 C702 1.382 . S
C705 C706 1.387 . S
C705 H728 0.930 . S
C706 C704 1.381 . S
C706 C705 1.387 . S
C706 H729 0.931 . S
C707 C700 1.399 . S
C707 C704 1.487 . S
C707 N739 1.343 . S
C708 C709 1.384 . S
C708 C710 1.384 . S
C708 H730 0.931 . S
C709 C708 1.384 . S
C709 C712 1.382 . S
C710 C708 1.384 . S
C710 C711 1.381 . S
C710 H731 0.930 . S
C711 C710 1.381 . S
C711 C713 1.381 . S
C711 C714 1.487 . S
C712 C709 1.382 . S
C712 C713 1.387 . S
C712 H732 0.930 . S
C713 C711 1.381 . S
C713 C712 1.387 . S
C713 H733 0.931 . S
C714 C711 1.487 . S
C714 C721 1.399 . S
C714 N739 1.343 . S
C715 C716 1.384 . S
C715 C717 1.384 . S
C715 H734 0.931 . S
C716 C715 1.384 . S
C716 C719 1.382 . S
C717 C715 1.384 . S
C717 C718 1.381 . S
C717 H735 0.930 . S
C718 C717 1.381 . S
C718 C720 1.381 . S
C718 C721 1.487 . S
C719 C716 1.382 . S
C719 C720 1.387 . S
C719 H736 0.930 . S
C720 C718 1.381 . S
C720 C719 1.387 . S
C720 H737 0.931 . S
C721 C714 1.399 . S
C721 C718 1.487 . S
C721 N738 1.343 . S
H722 C694 0.931 . S
H723 C696 0.930 . S
H724 C698 0.930 . S
H725 C699 0.931 . S
H726 C701 0.931 . S
H727 C703 0.930 . S
H728 C705 0.930 . S
H729 C706 0.931 . S
H730 C708 0.931 . S
H731 C710 0.930 . S
H732 C712 0.930 . S
H733 C713 0.931 . S
H734 C715 0.931 . S
H735 C717 0.930 . S
H736 C719 0.930 . S
H737 C720 0.931 . S
N738 C700 1.343 . S
N738 C721 1.343 . S
N739 C707 1.343 . S
N739 C714 1.343 . S
C740 C741 1.384 1_545 S
C740 C742 1.384 . S
C740 H768 0.931 . S
C741 C740 1.384 1_565 S
C741 C744 1.382 . S
C742 C740 1.384 . S
C742 C743 1.381 1_545 S
C742 H769 0.930 . S
C743 C742 1.381 1_565 S
C743 C745 1.381 . S
C743 C746 1.487 . S
C744 C741 1.382 . S
C744 C745 1.387 . S
C744 H770 0.930 . S
C745 C743 1.381 . S
C745 C744 1.387 . S
C745 H771 0.931 . S
C746 C743 1.487 . S
C746 C753 1.399 1_565 S
C746 N784 1.343 . S
C747 C748 1.384 1_565 S
C747 C749 1.384 . S
C747 H772 0.931 . S
C748 C747 1.384 1_545 S
C748 C751 1.382 . S
C749 C747 1.384 . S
C749 C750 1.381 1_565 S
C749 H773 0.930 . S
C750 C749 1.381 1_545 S
C750 C752 1.381 . S
C750 C753 1.487 . S
C751 C748 1.382 . S
C751 C752 1.387 . S
C751 H774 0.930 . S
C752 C750 1.381 . S
C752 C751 1.387 . S
C752 H775 0.931 . S
C753 C746 1.399 1_545 S
C753 C750 1.487 . S
C753 N785 1.343 . S
C754 C755 1.384 1_565 S
C754 C756 1.384 . S
C754 H776 0.931 . S
C755 C754 1.384 1_545 S
C755 C758 1.382 . S
C756 C754 1.384 . S
C756 C757 1.381 1_565 S
C756 H777 0.930 . S
C757 C756 1.381 1_545 S
C757 C759 1.381 . S
C757 C760 1.487 . S
C758 C755 1.382 . S
C758 C759 1.387 . S
C758 H778 0.930 . S
C759 C757 1.381 . S
C759 C758 1.387 . S
C759 H779 0.931 . S
C760 C757 1.487 . S
C760 C767 1.399 1_545 S
C760 N785 1.343 . S
C761 C762 1.384 1_545 S
C761 C763 1.384 . S
C761 H780 0.931 . S
C762 C761 1.384 1_565 S
C762 C765 1.382 . S
C763 C761 1.384 . S
C763 C764 1.381 1_545 S
C763 H781 0.930 . S
C764 C763 1.381 1_565 S
C764 C766 1.381 . S
C764 C767 1.487 . S
C765 C762 1.382 . S
C765 C766 1.387 . S
C765 H782 0.930 . S
C766 C764 1.381 . S
C766 C765 1.387 . S
C766 H783 0.931 . S
C767 C760 1.399 1_565 S
C767 C764 1.487 . S
C767 N784 1.343 . S
H768 C740 0.931 . S
H769 C742 0.930 . S
H770 C744 0.930 . S
H771 C745 0.931 . S
H772 C747 0.931 . S
H773 C749 0.930 . S
H774 C751 0.930 . S
H775 C752 0.931 . S
H776 C754 0.931 . S
H777 C756 0.930 . S
H778 C758 0.930 . S
H779 C759 0.931 . S
H780 C761 0.931 . S
H781 C763 0.930 . S
H782 C765 0.930 . S
H783 C766 0.931 . S
N784 C746 1.343 . S
N784 C767 1.343 . S
N785 C753 1.343 . S
N785 C760 1.343 . S
C786 C787 1.384 . S
C786 C788 1.384 . S
C786 H814 0.931 . S
C787 C786 1.384 . S
C787 C790 1.382 1_545 S
C788 C786 1.384 . S
C788 C789 1.381 1_545 S
C788 H815 0.930 . S
C789 C788 1.381 1_565 S
C789 C791 1.382 . S
C789 C792 1.497 . S
C790 C787 1.382 1_565 S
C790 C791 1.387 . S
C790 H816 0.930 . S
C791 C789 1.382 . S
C791 C790 1.387 . S
C791 H817 0.931 . S
C792 C789 1.497 . S
C792 C799 1.400 1_565 S
C792 N830 1.332 . S
C793 C794 1.384 . S
C793 C795 1.384 . S
C793 H818 0.931 . S
C794 C793 1.384 . S
C794 C797 1.382 1_565 S
C795 C793 1.384 . S
C795 C796 1.418 . S
C795 H819 0.930 . S
C796 C795 1.418 . S
C796 C798 1.364 1_565 S
C796 C799 1.466 1_565 S
C797 C794 1.382 1_545 S
C797 C798 1.387 . S
C797 H820 0.930 . S
C798 C796 1.364 1_545 S
C798 C797 1.387 . S
C798 H821 0.931 . S
C799 C792 1.400 1_545 S
C799 C796 1.466 1_545 S
C799 N831 1.346 . S
C800 C801 1.384 . S
C800 C802 1.384 . S
C800 H822 0.931 . S
C801 C800 1.384 . S
C801 C804 1.382 1_565 S
C802 C800 1.384 . S
C802 C803 1.380 1_565 S
C802 H823 0.930 . S
C803 C802 1.380 1_545 S
C803 C805 1.387 . S
C803 C806 1.497 . S
C804 C801 1.382 1_545 S
C804 C805 1.387 . S
C804 H824 0.930 . S
C805 C803 1.387 . S
C805 C804 1.387 . S
C805 H825 0.931 . S
C806 C803 1.497 . S
C806 C813 1.400 1_545 S
C806 N831 1.328 . S
C807 C808 1.384 . S
C807 C809 1.384 . S
C807 H826 0.931 . S
C808 C807 1.384 . S
C808 C811 1.382 1_545 S
C809 C807 1.384 . S
C809 C810 1.381 . S
C809 H827 0.930 . S
C810 C809 1.381 . S
C810 C812 1.381 1_545 S
C810 C813 1.489 1_545 S
C811 C808 1.382 1_565 S
C811 C812 1.387 . S
C811 H828 0.930 . S
C812 C810 1.381 1_565 S
C812 C811 1.387 . S
C812 H829 0.931 . S
C813 C806 1.400 1_565 S
C813 C810 1.489 1_565 S
C813 N830 1.341 . S
H814 C786 0.931 . S
H815 C788 0.930 . S
H816 C790 0.930 . S
H817 C791 0.931 . S
H818 C793 0.931 . S
H819 C795 0.930 . S
H820 C797 0.930 . S
H821 C798 0.931 . S
H822 C800 0.931 . S
H823 C802 0.930 . S
H824 C804 0.930 . S
H825 C805 0.931 . S
H826 C807 0.931 . S
H827 C809 0.930 . S
H828 C811 0.930 . S
H829 C812 0.931 . S
N830 C792 1.332 . S
N830 C813 1.341 . S
N831 C799 1.346 . S
N831 C806 1.328 . S
C832 C833 1.384 . S
C832 C834 1.384 . S
C832 H860 0.931 . S
C833 C832 1.384 . S
C833 C836 1.382 1_655 S
C834 C832 1.384 . S
C834 C835 1.381 . S
C834 H861 0.930 . S
C835 C834 1.381 . S
C835 C837 1.381 1_655 S
C835 C838 1.489 . S
C836 C833 1.382 1_455 S
C836 C837 1.387 . S
C836 H862 0.930 . S
C837 C835 1.381 1_455 S
C837 C836 1.387 . S
C837 H863 0.931 . S
C838 C835 1.489 . S
C838 C845 1.399 . S
C838 N876 1.341 1_655 S
C839 C840 1.384 . S
C839 C841 1.384 . S
C839 H864 0.931 . S
C840 C839 1.384 . S
C840 C843 1.382 1_455 S
C841 C839 1.384 . S
C841 C842 1.381 1_455 S
C841 H865 0.930 . S
C842 C841 1.381 1_655 S
C842 C844 1.383 . S
C842 C845 1.499 . S
C843 C840 1.382 1_655 S
C843 C844 1.387 . S
C843 H866 0.930 . S
C844 C842 1.383 . S
C844 C843 1.387 . S
C844 H867 0.931 . S
C845 C838 1.399 . S
C845 C842 1.499 . S
C845 N877 1.330 . S
C846 C847 1.384 . S
C846 C848 1.384 . S
C846 H868 0.931 . S
C847 C846 1.384 . S
C847 C850 1.382 1_455 S
C848 C846 1.384 . S
C848 C849 1.381 . S
C848 H869 0.930 . S
C849 C848 1.381 . S
C849 C851 1.381 1_455 S
C849 C852 1.489 1_455 S
C850 C847 1.382 1_655 S
C850 C851 1.387 . S
C850 H870 0.930 . S
C851 C849 1.381 1_655 S
C851 C850 1.387 . S
C851 H871 0.931 . S
C852 C849 1.489 1_655 S
C852 C859 1.399 1_655 S
C852 N877 1.341 . S
C853 C854 1.384 . S
C853 C855 1.384 . S
C853 H872 0.931 . S
C854 C853 1.384 . S
C854 C857 1.382 1_655 S
C855 C853 1.384 . S
C855 C856 1.381 . S
C855 H873 0.930 . S
C856 C855 1.381 . S
C856 C858 1.383 1_655 S
C856 C859 1.495 1_655 S
C857 C854 1.382 1_455 S
C857 C858 1.387 . S
C857 H874 0.930 . S
C858 C856 1.383 1_455 S
C858 C857 1.387 . S
C858 H875 0.931 . S
C859 C852 1.399 1_455 S
C859 C856 1.495 1_455 S
C859 N876 1.334 . S
H860 C832 0.931 . S
H861 C834 0.930 . S
H862 C836 0.930 . S
H863 C837 0.931 . S
H864 C839 0.931 . S
H865 C841 0.930 . S
H866 C843 0.930 . S
H867 C844 0.931 . S
H868 C846 0.931 . S
H869 C848 0.930 . S
H870 C850 0.930 . S
H871 C851 0.931 . S
H872 C853 0.931 . S
H873 C855 0.930 . S
H874 C857 0.930 . S
H875 C858 0.931 . S
N876 C838 1.341 1_455 S
N876 C859 1.334 . S
N877 C845 1.330 . S
N877 C852 1.341 . S
C878 C879 1.384 . S
C878 C880 1.384 . S
C878 H906 0.931 . S
C879 C878 1.384 . S
C879 C882 1.382 . S
C880 C878 1.384 . S
C880 C881 1.381 . S
C880 H907 0.930 . S
C881 C880 1.381 . S
C881 C883 1.381 . S
C881 C884 1.487 . S
C882 C879 1.382 . S
C882 C883 1.387 . S
C882 H908 0.930 . S
C883 C881 1.381 . S
C883 C882 1.387 . S
C883 H909 0.931 . S
C884 C881 1.487 . S
C884 C891 1.399 . S
C884 N922 1.343 . S
C885 C886 1.384 . S
C885 C887 1.384 . S
C885 H910 0.931 . S
C886 C885 1.384 . S
C886 C889 1.382 . S
C887 C885 1.384 . S
C887 C888 1.381 . S
C887 H911 0.930 . S
C888 C887 1.381 . S
C888 C890 1.381 . S
C888 C891 1.487 . S
C889 C886 1.382 . S
C889 C890 1.387 . S
C889 H912 0.930 . S
C890 C888 1.381 . S
C890 C889 1.387 . S
C890 H913 0.931 . S
C891 C884 1.399 . S
C891 C888 1.487 . S
C891 N923 1.343 . S
C892 C893 1.384 . S
C892 C894 1.384 . S
C892 H914 0.931 . S
C893 C892 1.384 . S
C893 C896 1.382 . S
C894 C892 1.384 . S
C894 C895 1.381 . S
C894 H915 0.930 . S
C895 C894 1.381 . S
C895 C897 1.381 . S
C895 C898 1.487 . S
C896 C893 1.382 . S
C896 C897 1.387 . S
C896 H916 0.930 . S
C897 C895 1.381 . S
C897 C896 1.387 . S
C897 H917 0.931 . S
C898 C895 1.487 . S
C898 C905 1.399 . S
C898 N923 1.343 . S
C899 C900 1.384 . S
C899 C901 1.384 . S
C899 H918 0.931 . S
C900 C899 1.384 . S
C900 C903 1.382 . S
C901 C899 1.384 . S
C901 C902 1.381 . S
C901 H919 0.930 . S
C902 C901 1.381 . S
C902 C904 1.381 . S
C902 C905 1.487 . S
C903 C900 1.382 . S
C903 C904 1.387 . S
C903 H920 0.930 . S
C904 C902 1.381 . S
C904 C903 1.387 . S
C904 H921 0.931 . S
C905 C898 1.399 . S
C905 C902 1.487 . S
C905 N922 1.343 . S
H906 C878 0.931 . S
H907 C880 0.930 . S
H908 C882 0.930 . S
H909 C883 0.931 . S
H910 C885 0.931 . S
H911 C887 0.930 . S
H912 C889 0.930 . S
H913 C890 0.931 . S
H914 C892 0.931 . S
H915 C894 0.930 . S
H916 C896 0.930 . S
H917 C897 0.931 . S
H918 C899 0.931 . S
H919 C901 0.930 . S
H920 C903 0.930 . S
H921 C904 0.931 . S
N922 C884 1.343 . S
N922 C905 1.343 . S
N923 C891 1.343 . S
N923 C898 1.343 . S
C924 C925 1.384 . S
C924 C926 1.384 . S
C924 H952 0.931 . S
C925 C924 1.384 . S
C925 C928 1.382 . S
C926 C924 1.384 . S
C926 C927 1.381 . S
C926 H953 0.930 . S
C927 C926 1.381 . S
C927 C929 1.381 . S
C927 C930 1.487 . S
C928 C925 1.382 . S
C928 C929 1.387 . S
C928 H954 0.930 . S
C929 C927 1.381 . S
C929 C928 1.387 . S
C929 H955 0.931 . S
C930 C927 1.487 . S
C930 C937 1.399 . S
C930 N968 1.343 . S
C931 C932 1.384 . S
C931 C933 1.384 . S
C931 H956 0.931 . S
C932 C931 1.384 . S
C932 C935 1.382 . S
C933 C931 1.384 . S
C933 C934 1.381 . S
C933 H957 0.930 . S
C934 C933 1.381 . S
C934 C936 1.381 . S
C934 C937 1.487 . S
C935 C932 1.382 . S
C935 C936 1.387 . S
C935 H958 0.930 . S
C936 C934 1.381 . S
C936 C935 1.387 . S
C936 H959 0.931 . S
C937 C930 1.399 . S
C937 C934 1.487 . S
C937 N969 1.343 . S
C938 C939 1.384 . S
C938 C940 1.384 . S
C938 H960 0.931 . S
C939 C938 1.384 . S
C939 C942 1.382 . S
C940 C938 1.384 . S
C940 C941 1.381 . S
C940 H961 0.930 . S
C941 C940 1.381 . S
C941 C943 1.381 . S
C941 C944 1.487 . S
C942 C939 1.382 . S
C942 C943 1.387 . S
C942 H962 0.930 . S
C943 C941 1.381 . S
C943 C942 1.387 . S
C943 H963 0.931 . S
C944 C941 1.487 . S
C944 C951 1.399 . S
C944 N969 1.343 . S
C945 C946 1.384 . S
C945 C947 1.384 . S
C945 H964 0.931 . S
C946 C945 1.384 . S
C946 C949 1.382 . S
C947 C945 1.384 . S
C947 C948 1.381 . S
C947 H965 0.930 . S
C948 C947 1.381 . S
C948 C950 1.381 . S
C948 C951 1.487 . S
C949 C946 1.382 . S
C949 C950 1.387 . S
C949 H966 0.930 . S
C950 C948 1.381 . S
C950 C949 1.387 . S
C950 H967 0.931 . S
C951 C944 1.399 . S
C951 C948 1.487 . S
C951 N968 1.343 . S
H952 C924 0.931 . S
H953 C926 0.930 . S
H954 C928 0.930 . S
H955 C929 0.931 . S
H956 C931 0.931 . S
H957 C933 0.930 . S
H958 C935 0.930 . S
H959 C936 0.931 . S
H960 C938 0.931 . S
H961 C940 0.930 . S
H962 C942 0.930 . S
H963 C943 0.931 . S
H964 C945 0.931 . S
H965 C947 0.930 . S
H966 C949 0.930 . S
H967 C950 0.931 . S
N968 C930 1.343 . S
N968 C951 1.343 . S
N969 C937 1.343 . S
N969 C944 1.343 . S
C970 C971 1.384 . S
C970 C972 1.384 . S
C970 H998 0.931 . S
C971 C970 1.384 . S
C971 C974 1.382 . S
C972 C970 1.384 . S
C972 C973 1.381 . S
C972 H999 0.930 . S
C973 C972 1.381 . S
C973 C975 1.381 . S
C973 C976 1.487 . S
C974 C971 1.382 . S
C974 C975 1.387 . S
C974 H1000 0.930 . S
C975 C973 1.381 . S
C975 C974 1.387 . S
C975 H1001 0.931 . S
C976 C973 1.487 . S
C976 C983 1.399 . S
C976 N1014 1.343 . S
C977 C978 1.384 . S
C977 C979 1.384 . S
C977 H1002 0.931 . S
C978 C977 1.384 . S
C978 C981 1.382 . S
C979 C977 1.384 . S
C979 C980 1.381 . S
C979 H1003 0.930 . S
C980 C979 1.381 . S
C980 C982 1.381 . S
C980 C983 1.487 . S
C981 C978 1.382 . S
C981 C982 1.387 . S
C981 H1004 0.930 . S
C982 C980 1.381 . S
C982 C981 1.387 . S
C982 H1005 0.931 . S
C983 C976 1.399 . S
C983 C980 1.487 . S
C983 N1015 1.343 . S
C984 C985 1.384 . S
C984 C986 1.384 . S
C984 H1006 0.931 . S
C985 C984 1.384 . S
C985 C988 1.382 . S
C986 C984 1.384 . S
C986 C987 1.381 . S
C986 H1007 0.930 . S
C987 C986 1.381 . S
C987 C989 1.381 . S
C987 C990 1.487 . S
C988 C985 1.382 . S
C988 C989 1.387 . S
C988 H1008 0.930 . S
C989 C987 1.381 . S
C989 C988 1.387 . S
C989 H1009 0.931 . S
C990 C987 1.487 . S
C990 C997 1.399 . S
C990 N1015 1.343 . S
C991 C992 1.384 . S
C991 C993 1.384 . S
C991 H1010 0.931 . S
C992 C991 1.384 . S
C992 C995 1.382 . S
C993 C991 1.384 . S
C993 C994 1.381 . S
C993 H1011 0.930 . S
C994 C993 1.381 . S
C994 C996 1.381 . S
C994 C997 1.487 . S
C995 C992 1.382 . S
C995 C996 1.387 . S
C995 H1012 0.930 . S
C996 C994 1.381 . S
C996 C995 1.387 . S
C996 H1013 0.931 . S
C997 C990 1.399 . S
C997 C994 1.487 . S
C997 N1014 1.343 . S
H998 C970 0.931 . S
H999 C972 0.930 . S
H1000 C974 0.930 . S
H1001 C975 0.931 . S
H1002 C977 0.931 . S
H1003 C979 0.930 . S
H1004 C981 0.930 . S
H1005 C982 0.931 . S
H1006 C984 0.931 . S
H1007 C986 0.930 . S
H1008 C988 0.930 . S
H1009 C989 0.931 . S
H1010 C991 0.931 . S
H1011 C993 0.930 . S
H1012 C995 0.930 . S
H1013 C996 0.931 . S
N1014 C976 1.343 . S
N1014 C997 1.343 . S
N1015 C983 1.343 . S
N1015 C990 1.343 . S
C1016 C1017 1.384 . S
C1016 C1018 1.384 . S
C1016 H1044 0.931 . S
C1017 C1016 1.384 . S
C1017 C1020 1.382 . S
C1018 C1016 1.384 . S
C1018 C1019 1.381 . S
C1018 H1045 0.930 . S
C1019 C1018 1.381 . S
C1019 C1021 1.381 . S
C1019 C1022 1.487 . S
C1020 C1017 1.382 . S
C1020 C1021 1.387 . S
C1020 H1046 0.930 . S
C1021 C1019 1.381 . S
C1021 C1020 1.387 . S
C1021 H1047 0.931 . S
C1022 C1019 1.487 . S
C1022 C1029 1.399 . S
C1022 N1060 1.343 . S
C1023 C1024 1.384 . S
C1023 C1025 1.384 . S
C1023 H1048 0.931 . S
C1024 C1023 1.384 . S
C1024 C1027 1.382 . S
C1025 C1023 1.384 . S
C1025 C1026 1.381 . S
C1025 H1049 0.930 . S
C1026 C1025 1.381 . S
C1026 C1028 1.381 . S
C1026 C1029 1.487 . S
C1027 C1024 1.382 . S
C1027 C1028 1.387 . S
C1027 H1050 0.930 . S
C1028 C1026 1.381 . S
C1028 C1027 1.387 . S
C1028 H1051 0.931 . S
C1029 C1022 1.399 . S
C1029 C1026 1.487 . S
C1029 N1061 1.343 . S
C1030 C1031 1.384 . S
C1030 C1032 1.384 . S
C1030 H1052 0.931 . S
C1031 C1030 1.384 . S
C1031 C1034 1.382 . S
C1032 C1030 1.384 . S
C1032 C1033 1.381 . S
C1032 H1053 0.930 . S
C1033 C1032 1.381 . S
C1033 C1035 1.381 . S
C1033 C1036 1.487 . S
C1034 C1031 1.382 . S
C1034 C1035 1.387 . S
C1034 H1054 0.930 . S
C1035 C1033 1.381 . S
C1035 C1034 1.387 . S
C1035 H1055 0.931 . S
C1036 C1033 1.487 . S
C1036 C1043 1.399 . S
C1036 N1061 1.343 . S
C1037 C1038 1.384 . S
C1037 C1039 1.384 . S
C1037 H1056 0.931 . S
C1038 C1037 1.384 . S
C1038 C1041 1.382 . S
C1039 C1037 1.384 . S
C1039 C1040 1.381 . S
C1039 H1057 0.930 . S
C1040 C1039 1.381 . S
C1040 C1042 1.381 . S
C1040 C1043 1.487 . S
C1041 C1038 1.382 . S
C1041 C1042 1.387 . S
C1041 H1058 0.930 . S
C1042 C1040 1.381 . S
C1042 C1041 1.387 . S
C1042 H1059 0.931 . S
C1043 C1036 1.399 . S
C1043 C1040 1.487 . S
C1043 N1060 1.343 . S
H1044 C1016 0.931 . S
H1045 C1018 0.930 . S
H1046 C1020 0.930 . S
H1047 C1021 0.931 . S
H1048 C1023 0.931 . S
H1049 C1025 0.930 . S
H1050 C1027 0.930 . S
H1051 C1028 0.931 . S
H1052 C1030 0.931 . S
H1053 C1032 0.930 . S
H1054 C1034 0.930 . S
H1055 C1035 0.931 . S
H1056 C1037 0.931 . S
H1057 C1039 0.930 . S
H1058 C1041 0.930 . S
H1059 C1042 0.931 . S
N1060 C1022 1.343 . S
N1060 C1043 1.343 . S
N1061 C1029 1.343 . S
N1061 C1036 1.343 . S
C8 C670 1.525 . S
C18 C716 1.589 . S
C748 C31 1.447 . S
C34 C801 1.487 . S
C5 C847 1.426 . S
C21 C886 1.715 . S
C47 C840 1.526 . S
C893 C57 1.626 . S
C794 C70 1.442 . S
C73 C755 1.502 . S
C649 C44 1.428 . S
C60 C695 1.681 . S
C86 C925 1.853 . S
C96 C992 1.769 . S
C1038 C109 1.881 . S
C112 C249 1.868 . S
C83 C295 1.844 . S
C99 C341 1.864 . S
C125 C288 1.715 . S
C135 C334 1.740 . S
C242 C148 1.839 . S
C1017 C151 1.964 . S
C946 C122 1.922 . S
C971 C138 1.902 . S
C164 C373 1.745 . S
C174 C426 1.768 . S
C187 C472 1.876 . S
C190 C518 2.015 . S
C571 C161 1.890 . S
C617 C177 1.915 . S
C564 C203 1.830 . S
C610 C213 1.787 . S
C226 C525 1.934 . S
C479 C229 1.906 . S
C200 C394 1.877 . S
C433 C216 1.895 . S
C256 C0 1.869 . S
C23 C302 2.039 . S
C348 C36 2.169 . S
C380 C26 1.855 . S
C419 C10 2.110 . S
C465 C13 1.775 . S
C39 C486 1.807 . S
C62 C387 1.949 . S
C75 C440 2.120 . S
C65 C281 1.904 . S
C327 C49 2.202 . S
C52 C235 1.839 . S
C511 C78 1.726 . S
C101 C578 2.025 . S
C114 C624 2.016 . S
C663 C104 1.249 . S
C88 C709 1.916 . S
C91 C741 1.175 . S
C117 C762 1.229 . S
C140 C656 1.266 . S
C702 C153 1.889 . S
C143 C557 1.805 . S
C127 C603 2.039 . S
C532 C130 1.794 . S
C808 C156 1.212 . S
C179 C854 1.266 . S
C192 C879 1.843 . S
C932 C182 1.725 . S
C985 C166 2.031 . S
C169 C1031 1.841 . S
C195 C1024 1.774 . S
C218 C939 1.962 . S
C978 C231 1.985 . S
C833 C221 1.240 . S
C900 C205 1.872 . S
C208 C787 1.171 . S
