# Generated by pormake.
# Topology ssa, (4,4)-cn, num edge types: 1
# Building blocks:
#     Node 0, Type 0, BuildingBlock: KOZSID_clean_sbu_0, # of connection points: 4
#     Node 1, Type 0, BuildingBlock: KOZSID_clean_sbu_0, # of connection points: 4
#     Node 2, Type 0, BuildingBlock: KOZSID_clean_sbu_0, # of connection points: 4
#     Node 3, Type 0, BuildingBlock: KOZSID_clean_sbu_0, # of connection points: 4
#     Node 4, Type 0, BuildingBlock: KOZSID_clean_sbu_0, # of connection points: 4
#     Node 5, Type 0, BuildingBlock: KOZSID_clean_sbu_0, # of connection points: 4
#     Node 6, Type 1, BuildingBlock: MUDLON_clean_linker_0, # of connection points: 4
#     Node 7, Type 1, BuildingBlock: MUDLON_clean_linker_0, # of connection points: 4
#     Node 8, Type 1, BuildingBlock: MUDLON_clean_linker_0, # of connection points: 4
#     Node 9, Type 1, BuildingBlock: MUDLON_clean_linker_0, # of connection points: 4
#     Node 10, Type 1, BuildingBlock: MUDLON_clean_linker_0, # of connection points: 4
#     Node 11, Type 1, BuildingBlock: MUDLON_clean_linker_0, # of connection points: 4
#     Edge 12, Type (0, 1), BuildingBlock: XIVTED_clean_linker_0, # of connection points: 2
#     Edge 13, Type (0, 1), BuildingBlock: XIVTED_clean_linker_0, # of connection points: 2
#     Edge 14, Type (0, 1), BuildingBlock: XIVTED_clean_linker_0, # of connection points: 2
#     Edge 15, Type (0, 1), BuildingBlock: XIVTED_clean_linker_0, # of connection points: 2
#     Edge 16, Type (0, 1), BuildingBlock: XIVTED_clean_linker_0, # of connection points: 2
#     Edge 17, Type (0, 1), BuildingBlock: XIVTED_clean_linker_0, # of connection points: 2
#     Edge 18, Type (0, 1), BuildingBlock: XIVTED_clean_linker_0, # of connection points: 2
#     Edge 19, Type (0, 1), BuildingBlock: XIVTED_clean_linker_0, # of connection points: 2
#     Edge 20, Type (0, 1), BuildingBlock: XIVTED_clean_linker_0, # of connection points: 2
#     Edge 21, Type (0, 1), BuildingBlock: XIVTED_clean_linker_0, # of connection points: 2
#     Edge 22, Type (0, 1), BuildingBlock: XIVTED_clean_linker_0, # of connection points: 2
#     Edge 23, Type (0, 1), BuildingBlock: XIVTED_clean_linker_0, # of connection points: 2
#     Edge 24, Type (0, 1), BuildingBlock: XIVTED_clean_linker_0, # of connection points: 2
#     Edge 25, Type (0, 1), BuildingBlock: XIVTED_clean_linker_0, # of connection points: 2
#     Edge 26, Type (0, 1), BuildingBlock: XIVTED_clean_linker_0, # of connection points: 2
#     Edge 27, Type (0, 1), BuildingBlock: XIVTED_clean_linker_0, # of connection points: 2
#     Edge 28, Type (0, 1), BuildingBlock: XIVTED_clean_linker_0, # of connection points: 2
#     Edge 29, Type (0, 1), BuildingBlock: XIVTED_clean_linker_0, # of connection points: 2
#     Edge 30, Type (0, 1), BuildingBlock: XIVTED_clean_linker_0, # of connection points: 2
#     Edge 31, Type (0, 1), BuildingBlock: XIVTED_clean_linker_0, # of connection points: 2
#     Edge 32, Type (0, 1), BuildingBlock: XIVTED_clean_linker_0, # of connection points: 2
#     Edge 33, Type (0, 1), BuildingBlock: XIVTED_clean_linker_0, # of connection points: 2
#     Edge 34, Type (0, 1), BuildingBlock: XIVTED_clean_linker_0, # of connection points: 2
#     Edge 35, Type (0, 1), BuildingBlock: XIVTED_clean_linker_0, # of connection points: 2
# Relax obj value: 0.007
# Max RMSD: 0.044
# Mean RMSD: 0.025
data_MOF--net-ssa--node1-KOZSID_clean_sbu_0--node2-MUDLON_clean_linker_0--edge1-XIVTED_clean_linker_0
_symmetry_space_group_name_H-M    P1
_symmetry_Int_Tables_number       1
_symmetry_cell_setting            triclinic
loop_
_symmetry_equiv_pos_as_xyz
'x, y, z'
_cell_length_a     74.885116
_cell_length_b     76.363475
_cell_length_c     42.489594
_cell_angle_alpha  87.575784
_cell_angle_beta   89.939321
_cell_angle_gamma 121.89785
loop_
_atom_site_label
_atom_site_type_symbol
_atom_site_fract_x
_atom_site_fract_y
_atom_site_fract_z
_atom_type_partial_charge
C0 C 0.96995 0.50185 0.03891 0.0
C1 C 0.95212 0.49727 0.05626 0.0
C2 C 0.95089 0.4854 0.08204 0.0
C3 C 0.96801 0.48351 0.07914 0.0
N4 N 0.98014 0.49344 0.05301 0.0
Co5 Co 0.00692 0.49521 0.04024 0.0
N6 N 0.00585 0.47901 0.07943 0.0
C7 C 0.99097 0.47118 0.10283 0.0
C8 C 0.99469 0.4612 0.12706 0.0
C9 C 0.01314 0.46284 0.11879 0.0
C10 C 0.01957 0.47371 0.08981 0.0
N11 N 0.03355 0.49678 0.02723 0.0
C12 C 0.04452 0.48963 0.04244 0.0
C13 C 0.06215 0.49382 0.02494 0.0
C14 C 0.06247 0.50419 0.99783 0.0
C15 C 0.04508 0.50566 0.00025 0.0
N16 N 0.00823 0.51172 0.0013 0.0
C17 C 0.023 0.51934 0.97771 0.0
C18 C 0.01961 0.52979 0.95387 0.0
C19 C 0.00173 0.52902 0.96282 0.0
C20 C 0.99529 0.51823 0.99193 0.0
N21 N 0.02359 0.52119 0.06259 0.0
C22 C 0.04828 0.55759 0.09493 0.0
C23 C 0.05459 0.5554 0.06522 0.0
C24 C 0.04204 0.53732 0.04948 0.0
C25 C 0.02921 0.54141 0.10801 0.0
C26 C 0.01725 0.52341 0.09164 0.0
N27 N 0.9903 0.46913 0.01786 0.0
C28 C 0.98556 0.44944 0.97216 0.0
C29 C 0.96881 0.43162 0.98703 0.0
C30 C 0.96244 0.43303 0.01722 0.0
C31 C 0.97335 0.4518 0.03212 0.0
C32 C 0.99589 0.4678 0.98777 0.0
H33 H 0.96792 0.45182 0.05526 0.0
H34 H 0.00849 0.48063 0.97495 0.0
H35 H 0.04765 0.53672 0.0268 0.0
H36 H 0.00306 0.51143 0.10306 0.0
C37 C 0.97378 0.47361 0.10149 0.0
C38 C 0.97684 0.5147 0.00969 0.0
C39 C 0.03905 0.47901 0.07347 0.0
C40 C 0.03967 0.51608 0.97826 0.0
H41 H 0.94128 0.50224 0.05114 0.0
H42 H 0.93918 0.47928 0.10103 0.0
H43 H 0.98522 0.45378 0.14833 0.0
H44 H 0.02105 0.45685 0.13266 0.0
H45 H 0.07368 0.48992 0.03126 0.0
H46 H 0.07416 0.5102 0.97881 0.0
H47 H 0.02898 0.53702 0.93246 0.0
H48 H 0.99429 0.53565 0.94932 0.0
H49 H 0.06912 0.56769 0.05399 0.0
H50 H 0.02376 0.54243 0.1311 0.0
H51 H 0.99073 0.44928 0.94841 0.0
H52 H 0.94946 0.41962 0.02965 0.0
C53 C 0.55858 0.0169 0.55772 0.0
C54 C 0.56155 0.01039 0.58718 0.0
C55 C 0.54329 0.99236 0.59551 0.0
C56 C 0.53031 0.98884 0.57073 0.0
N57 N 0.53922 0.00343 0.54686 0.0
Co58 Co 0.52584 0.00447 0.50649 0.0
N59 N 0.49861 0.97839 0.51945 0.0
C60 C 0.49436 0.96679 0.54662 0.0
C61 C 0.47431 0.94983 0.54897 0.0
C62 C 0.46519 0.95048 0.52157 0.0
C63 C 0.48032 0.96784 0.50393 0.0
N64 N 0.51239 0.00562 0.46625 0.0
C65 C 0.49283 0.99244 0.45568 0.0
C66 C 0.49014 0.99876 0.42585 0.0
C67 C 0.50851 0.01663 0.41742 0.0
C68 C 0.52139 0.02015 0.44232 0.0
N69 N 0.55313 0.03045 0.49343 0.0
C70 C 0.5575 0.04185 0.46605 0.0
C71 C 0.57734 0.05913 0.46406 0.0
C72 C 0.58621 0.0589 0.49193 0.0
C73 C 0.57121 0.04133 0.50933 0.0
N74 N 0.53554 0.98776 0.4864 0.0
C75 C 0.54898 0.96385 0.4577 0.0
C76 C 0.5516 0.9816 0.44224 0.0
C77 C 0.54476 0.99317 0.45684 0.0
C78 C 0.53952 0.95826 0.48775 0.0
C79 C 0.53307 0.97037 0.50159 0.0
N80 N 0.51617 0.02117 0.52661 0.0
C81 C 0.51393 0.05166 0.52705 0.0
C82 C 0.50399 0.04564 0.55686 0.0
C83 C 0.49985 0.02689 0.5708 0.0
C84 C 0.50614 0.01513 0.55556 0.0
C85 C 0.5197 0.03923 0.5124 0.0
H86 H 0.5028 0.00126 0.56782 0.0
H87 H 0.52718 0.04466 0.48973 0.0
H88 H 0.54705 0.00637 0.44364 0.0
H89 H 0.52615 0.96532 0.52459 0.0
C90 C 0.50954 0.97227 0.56954 0.0
C91 C 0.57455 0.03614 0.54131 0.0
C92 C 0.47656 0.97353 0.47254 0.0
C93 C 0.54225 0.0365 0.44332 0.0
H94 H 0.57543 0.01798 0.60132 0.0
H95 H 0.53982 0.98304 0.6172 0.0
H96 H 0.46719 0.93834 0.56829 0.0
H97 H 0.4492 0.93939 0.51526 0.0
H98 H 0.47644 0.99115 0.41138 0.0
H99 H 0.51217 0.02577 0.39551 0.0
H100 H 0.58434 0.07078 0.44493 0.0
H101 H 0.60182 0.07059 0.49884 0.0
H102 H 0.55861 0.98642 0.41872 0.0
H103 H 0.53736 0.94475 0.50081 0.0
H104 H 0.51765 0.06608 0.5152 0.0
H105 H 0.49169 0.02114 0.59346 0.0
C106 C 0.56793 0.5323 0.95634 0.0
C107 C 0.57409 0.54466 0.92869 0.0
C108 C 0.55726 0.54578 0.91955 0.0
C109 C 0.54183 0.53407 0.94197 0.0
N110 N 0.54776 0.52552 0.96496 0.0
Co111 Co 0.53025 0.50748 0.00224 0.0
N112 N 0.5052 0.5084 0.98787 0.0
C113 C 0.50381 0.51785 0.96114 0.0
C114 C 0.48455 0.51563 0.95748 0.0
C115 C 0.47292 0.50414 0.98349 0.0
C116 C 0.48587 0.5001 0.00164 0.0
N117 N 0.5129 0.4899 0.03996 0.0
C118 C 0.49297 0.48372 0.0491 0.0
C119 C 0.48718 0.47236 0.07769 0.0
C120 C 0.50404 0.47133 0.08698 0.0
C121 C 0.51913 0.48215 0.06374 0.0
N122 N 0.55514 0.50611 0.01616 0.0
C123 C 0.55618 0.49577 0.04206 0.0
C124 C 0.57518 0.49734 0.0451 0.0
C125 C 0.58697 0.50925 0.01947 0.0
C126 C 0.5744 0.51425 0.00221 0.0
N127 N 0.53986 0.53255 0.02645 0.0
C128 C 0.55229 0.56752 0.06195 0.0
C129 C 0.55496 0.55159 0.07319 0.0
C130 C 0.54857 0.53438 0.05539 0.0
C131 C 0.54358 0.56573 0.03227 0.0
C132 C 0.53769 0.54837 0.015 0.0
N133 N 0.52059 0.48239 0.97807 0.0
C134 C 0.5125 0.44734 0.97529 0.0
C135 C 0.50681 0.44672 0.9439 0.0
C136 C 0.50821 0.4643 0.92986 0.0
C137 C 0.51516 0.48183 0.94718 0.0
C138 C 0.51921 0.46513 0.99181 0.0
H139 H 0.51605 0.49474 0.935 0.0
H140 H 0.52314 0.4645 0.0157 0.0
H141 H 0.55079 0.52275 0.06566 0.0
H142 H 0.53126 0.54804 0.99254 0.0
C143 C 0.52129 0.52982 0.94103 0.0
C144 C 0.58153 0.52683 0.97281 0.0
C145 C 0.4792 0.48872 0.03206 0.0
C146 C 0.53921 0.48515 0.0635 0.0
H147 H 0.58908 0.55188 0.9161 0.0
H148 H 0.55625 0.55382 0.89869 0.0
H149 H 0.47969 0.52196 0.93847 0.0
H150 H 0.4568 0.49947 0.98873 0.0
H151 H 0.47238 0.46566 0.09067 0.0
H152 H 0.50521 0.46373 0.10826 0.0
H153 H 0.57991 0.49067 0.06378 0.0
H154 H 0.60304 0.51379 0.01411 0.0
H155 H 0.5621 0.55232 0.09564 0.0
H156 H 0.54094 0.57746 0.02246 0.0
H157 H 0.51148 0.43402 0.98729 0.0
H158 H 0.50423 0.46467 0.90544 0.0
C159 C 0.0139 0.47463 0.55427 0.0
C160 C 0.99512 0.46198 0.53938 0.0
C161 C 0.99537 0.47266 0.51269 0.0
C162 C 0.01411 0.49119 0.51291 0.0
N163 N 0.02597 0.49301 0.53803 0.0
Co164 Co 0.05378 0.51789 0.54849 0.0
N165 N 0.05421 0.53342 0.50891 0.0
C166 C 0.0399 0.52623 0.48589 0.0
C167 C 0.04488 0.54005 0.46084 0.0
C168 C 0.06352 0.55711 0.46818 0.0
C169 C 0.06878 0.55274 0.49758 0.0
N170 N 0.08119 0.54304 0.55954 0.0
C171 C 0.09279 0.56175 0.54403 0.0
C172 C 0.11048 0.57519 0.56057 0.0
C173 C 0.11017 0.56454 0.58736 0.0
C174 C 0.09232 0.54535 0.58577 0.0
N175 N 0.05372 0.50207 0.58747 0.0
C176 C 0.06894 0.5086 0.60906 0.0
C177 C 0.06485 0.49412 0.63273 0.0
C178 C 0.04587 0.47728 0.62589 0.0
C179 C 0.03939 0.48257 0.59843 0.0
N180 N 0.06903 0.50743 0.52522 0.0
C181 C 0.09076 0.49306 0.4913 0.0
C182 C 0.09882 0.50343 0.51897 0.0
C183 C 0.08771 0.5103 0.53557 0.0
C184 C 0.07167 0.48998 0.48095 0.0
C185 C 0.06122 0.49728 0.49802 0.0
N186 N 0.03853 0.52835 0.57169 0.0
C187 C 0.03164 0.54014 0.61951 0.0
C188 C 0.01585 0.5419 0.60511 0.0
C189 C 0.01186 0.53709 0.57355 0.0
C190 C 0.02325 0.53037 0.55746 0.0
C191 C 0.04275 0.53348 0.60248 0.0
H192 H 0.01924 0.52672 0.5336 0.0
H193 H 0.05461 0.53251 0.61477 0.0
H194 H 0.09457 0.5179 0.55666 0.0
H195 H 0.0469 0.49459 0.48855 0.0
C196 C 0.02145 0.5068 0.48916 0.0
C197 C 0.01942 0.46858 0.58393 0.0
C198 C 0.08775 0.56747 0.51369 0.0
C199 C 0.08622 0.52885 0.60756 0.0
H200 H 0.9825 0.4466 0.54701 0.0
H201 H 0.98336 0.46749 0.49514 0.0
H202 H 0.03593 0.53802 0.43985 0.0
H203 H 0.07223 0.57118 0.45351 0.0
H204 H 0.12245 0.59102 0.55386 0.0
H205 H 0.1217 0.57005 0.60564 0.0
H206 H 0.07439 0.49571 0.65282 0.0
H207 H 0.03765 0.4628 0.6397 0.0
H208 H 0.11351 0.50602 0.528 0.0
H209 H 0.06494 0.48229 0.45937 0.0
H210 H 0.03551 0.54398 0.64382 0.0
H211 H 0.99963 0.538 0.56144 0.0
C212 C 0.49789 0.99346 0.05782 0.0
C213 C 0.49549 0.99904 0.08748 0.0
C214 C 0.5137 0.01712 0.09301 0.0
C215 C 0.5261 0.02154 0.06654 0.0
N216 N 0.51689 0.00746 0.04426 0.0
Co217 Co 0.52954 0.00755 0.00255 0.0
N218 N 0.55641 0.0341 0.01089 0.0
C219 C 0.56077 0.04549 0.03653 0.0
C220 C 0.58038 0.06312 0.03535 0.0
C221 C 0.5891 0.06308 0.0072 0.0
C222 C 0.57421 0.04534 0.9928 0.0
N223 N 0.54237 0.00735 0.96118 0.0
C224 C 0.56172 0.02086 0.94823 0.0
C225 C 0.56444 0.01479 0.91916 0.0
C226 C 0.54618 0.99679 0.91356 0.0
C227 C 0.53341 0.99289 0.93938 0.0
N228 N 0.50246 0.98127 0.99387 0.0
C229 C 0.49775 0.9704 0.96756 0.0
C230 C 0.47792 0.95307 0.96835 0.0
C231 C 0.46941 0.95279 0.99689 0.0
C232 C 0.48463 0.97006 0.01189 0.0
N233 N 0.51836 0.02365 0.98234 0.0
C234 C 0.50228 0.04628 0.95361 0.0
C235 C 0.50127 0.02981 0.93881 0.0
C236 C 0.50939 0.01886 0.9534 0.0
C237 C 0.51156 0.0513 0.98298 0.0
C238 C 0.51936 0.03983 0.99686 0.0
N239 N 0.54067 0.99144 0.02277 0.0
C240 C 0.54371 0.96141 0.02522 0.0
C241 C 0.55546 0.96798 0.0524 0.0
C242 C 0.55994 0.98659 0.06432 0.0
C243 C 0.55234 0.99792 0.04939 0.0
C244 C 0.53669 0.97337 0.01073 0.0
H245 H 0.55593 0.01175 0.06002 0.0
H246 H 0.528 0.9676 0.98992 0.0
H247 H 0.50827 0.00664 0.9407 0.0
H248 H 0.52607 0.04434 0.01935 0.0
C249 C 0.54632 0.03891 0.06175 0.0
C250 C 0.48163 0.97475 0.04361 0.0
C251 C 0.57782 0.03979 0.96212 0.0
C252 C 0.51269 0.97625 0.94325 0.0
H253 H 0.48197 0.99087 0.10348 0.0
H254 H 0.51745 0.02599 0.11384 0.0
H255 H 0.58753 0.07457 0.05295 0.0
H256 H 0.6047 0.07474 0.9983 0.0
H257 H 0.57814 0.02267 0.90348 0.0
H258 H 0.54256 0.98773 0.89296 0.0
H259 H 0.47066 0.94179 0.95054 0.0
H260 H 0.45386 0.94105 0.00584 0.0
H261 H 0.49452 0.02553 0.91577 0.0
H262 H 0.51256 0.06385 0.99548 0.0
H263 H 0.54005 0.94715 0.015 0.0
H264 H 0.56885 0.99217 0.08556 0.0
C265 C 0.53593 0.55228 0.51162 0.0
C266 C 0.53187 0.56428 0.53043 0.0
C267 C 0.51975 0.55178 0.55542 0.0
C268 C 0.51716 0.53296 0.55052 0.0
N269 N 0.52708 0.5327 0.52408 0.0
Co270 Co 0.52675 0.50832 0.50748 0.0
N271 N 0.50932 0.49009 0.54472 0.0
C272 C 0.50254 0.49565 0.56973 0.0
C273 C 0.49168 0.48005 0.59228 0.0
C274 C 0.49172 0.46357 0.58125 0.0
C275 C 0.50257 0.47009 0.5524 0.0
N276 N 0.52575 0.48375 0.49029 0.0
C277 C 0.51691 0.46419 0.50273 0.0
C278 C 0.5195 0.45173 0.48276 0.0
C279 C 0.53056 0.46391 0.45685 0.0
C280 C 0.534 0.48299 0.46243 0.0
N281 N 0.54496 0.52675 0.47093 0.0
C282 C 0.55254 0.52136 0.44671 0.0
C283 C 0.5645 0.53722 0.42506 0.0
C284 C 0.5646 0.55378 0.43604 0.0
C285 C 0.55268 0.54705 0.46399 0.0
N286 N 0.55251 0.51535 0.53068 0.0
C287 C 0.58837 0.52391 0.5645 0.0
C288 C 0.58588 0.51752 0.53365 0.0
C289 C 0.56795 0.5133 0.51733 0.0
C290 C 0.57277 0.52625 0.57794 0.0
C291 C 0.55517 0.52201 0.56072 0.0
N292 N 0.5009 0.50122 0.48422 0.0
C293 C 0.48258 0.49544 0.43523 0.0
C294 C 0.46447 0.49148 0.4512 0.0
C295 C 0.46472 0.49239 0.48386 0.0
C296 C 0.48306 0.49753 0.49977 0.0
C297 C 0.5004 0.49998 0.45209 0.0
H298 H 0.48237 0.49849 0.52459 0.0
H299 H 0.5135 0.50238 0.43851 0.0
H300 H 0.56682 0.50822 0.49405 0.0
H301 H 0.54389 0.52414 0.57228 0.0
C302 C 0.50624 0.51553 0.57096 0.0
C303 C 0.54828 0.56022 0.48219 0.0
C304 C 0.50644 0.45686 0.53357 0.0
C305 C 0.54657 0.50086 0.44346 0.0
H306 H 0.53715 0.58043 0.52652 0.0
H307 H 0.51367 0.55595 0.57494 0.0
H308 H 0.48466 0.48063 0.61418 0.0
H309 H 0.48469 0.44848 0.59321 0.0
H310 H 0.51423 0.43559 0.48679 0.0
H311 H 0.53598 0.45953 0.43676 0.0
H312 H 0.57172 0.53666 0.40336 0.0
H313 H 0.57218 0.56895 0.42425 0.0
H314 H 0.59749 0.51534 0.52232 0.0
H315 H 0.57418 0.5315 0.60162 0.0
H316 H 0.48289 0.4947 0.40983 0.0
H317 H 0.45093 0.4895 0.49701 0.0
H318 H 0.33923 0.47045 0.23846 0.0
N319 N 0.30452 0.43208 0.22971 0.0
H320 H 0.36261 0.48032 0.28239 0.0
H321 H 0.2983 0.41022 0.28361 0.0
H322 H 0.3209 0.4205 0.32936 0.0
H323 H 0.31775 0.40874 0.20791 0.0
H324 H 0.34345 0.4177 0.16523 0.0
H325 H 0.31923 0.46524 0.18747 0.0
H326 H 0.34469 0.47423 0.14416 0.0
H327 H 0.30118 0.46372 0.25205 0.0
H328 H 0.26831 0.40736 0.20248 0.0
H329 H 0.26961 0.46509 0.25383 0.0
H330 H 0.237 0.40956 0.20161 0.0
H331 H 0.18627 0.47412 0.26493 0.0
H332 H 0.1771 0.4836 0.31376 0.0
H333 H 0.14678 0.42021 0.34993 0.0
H334 H 0.15548 0.41081 0.30037 0.0
H335 H 0.13356 0.40933 0.23397 0.0
H336 H 0.11232 0.41653 0.19845 0.0
H337 H 0.16736 0.47603 0.17167 0.0
H338 H 0.1882 0.46892 0.20781 0.0
H339 H 0.21275 0.46958 0.24055 0.0
H340 H 0.24519 0.47043 0.23018 0.0
H341 H 0.21008 0.40357 0.23498 0.0
N342 N 0.1732 0.4349 0.24875 0.0
H343 H 0.17762 0.40312 0.24258 0.0
C344 C 0.31721 0.43931 0.25736 0.0
C345 C 0.3351 0.45938 0.25806 0.0
C346 C 0.34838 0.46514 0.28366 0.0
C347 C 0.34386 0.45119 0.30959 0.0
C348 C 0.32525 0.43152 0.30956 0.0
C349 C 0.31217 0.42564 0.2836 0.0
C350 C 0.31662 0.43625 0.2009 0.0
C351 C 0.32321 0.4228 0.19355 0.0
C352 C 0.33786 0.42796 0.16907 0.0
C353 C 0.34626 0.44677 0.15137 0.0
C354 C 0.33875 0.45976 0.15763 0.0
C355 C 0.32405 0.45456 0.18218 0.0
C356 C 0.28698 0.435 0.22785 0.0
C357 C 0.28727 0.45173 0.24112 0.0
C358 C 0.26912 0.45266 0.24174 0.0
C359 C 0.25044 0.43725 0.22832 0.0
C360 C 0.25075 0.42135 0.21319 0.0
C361 C 0.26872 0.42015 0.2133 0.0
C362 C 0.17128 0.44165 0.27896 0.0
C363 C 0.17798 0.46235 0.28354 0.0
C364 C 0.17281 0.46776 0.31162 0.0
C365 C 0.16095 0.4526 0.33564 0.0
C366 C 0.15554 0.43218 0.33168 0.0
C367 C 0.16062 0.42679 0.30355 0.0
C368 C 0.16243 0.43845 0.2236 0.0
C369 C 0.14108 0.42372 0.21988 0.0
C370 C 0.129 0.42788 0.1995 0.0
C371 C 0.1381 0.44695 0.18233 0.0
C372 C 0.15978 0.46133 0.18494 0.0
C373 C 0.17182 0.45717 0.20545 0.0
C374 C 0.19266 0.43621 0.24162 0.0
C375 C 0.21197 0.45514 0.23841 0.0
C376 C 0.23064 0.45557 0.23302 0.0
C377 C 0.23047 0.43706 0.23163 0.0
C378 C 0.21099 0.41819 0.23498 0.0
C379 C 0.19236 0.41783 0.23963 0.0
H380 H 0.73146 0.11307 0.76802 0.0
N381 N 0.74541 0.14976 0.7396 0.0
H382 H 0.70663 0.09711 0.81286 0.0
H383 H 0.73174 0.16924 0.77675 0.0
H384 H 0.70757 0.15376 0.822 0.0
H385 H 0.71941 0.16347 0.72219 0.0
H386 H 0.69341 0.14963 0.68131 0.0
H387 H 0.74173 0.12422 0.69622 0.0
H388 H 0.71503 0.10948 0.65607 0.0
H389 H 0.78278 0.15438 0.7454 0.0
H390 H 0.75273 0.18913 0.73335 0.0
H391 H 0.81686 0.18648 0.74883 0.0
H392 H 0.78631 0.22112 0.73873 0.0
H393 H 0.91573 0.28667 0.79876 0.0
H394 H 0.92673 0.3059 0.8467 0.0
H395 H 0.87385 0.31402 0.84062 0.0
H396 H 0.86224 0.29343 0.79398 0.0
H397 H 0.87509 0.30984 0.74418 0.0
H398 H 0.89562 0.33989 0.70844 0.0
H399 H 0.93791 0.31915 0.68832 0.0
H400 H 0.91682 0.28867 0.72383 0.0
H401 H 0.87005 0.24404 0.78988 0.0
H402 H 0.83601 0.21248 0.78383 0.0
H403 H 0.81948 0.24489 0.71561 0.0
N404 N 0.88486 0.28092 0.7616 0.0
H405 H 0.85283 0.27645 0.72299 0.0
C406 C 0.73353 0.14229 0.76897 0.0
C407 C 0.72659 0.12211 0.78016 0.0
C408 C 0.71245 0.11308 0.80585 0.0
C409 C 0.70498 0.12412 0.82094 0.0
C410 C 0.71274 0.14471 0.8106 0.0
C411 C 0.72679 0.15369 0.78478 0.0
C412 C 0.73274 0.145 0.71208 0.0
C413 C 0.71917 0.1523 0.70714 0.0
C414 C 0.70399 0.14407 0.68399 0.0
C415 C 0.70186 0.12819 0.66562 0.0
C416 C 0.71629 0.12182 0.66946 0.0
C417 C 0.73157 0.13019 0.69243 0.0
C418 C 0.76518 0.16922 0.73946 0.0
C419 C 0.78357 0.16896 0.74358 0.0
C420 C 0.80298 0.18734 0.74589 0.0
C421 C 0.8044 0.20649 0.74457 0.0
C422 C 0.78594 0.20674 0.73963 0.0
C423 C 0.76655 0.18832 0.73685 0.0
C424 C 0.88853 0.28905 0.79251 0.0
C425 C 0.90627 0.29217 0.80834 0.0
C426 C 0.91263 0.30338 0.83551 0.0
C427 C 0.90155 0.31209 0.84709 0.0
C428 C 0.88282 0.30762 0.83244 0.0
C429 C 0.87626 0.29604 0.80551 0.0
C430 C 0.8944 0.29687 0.73666 0.0
C431 C 0.88851 0.31147 0.7317 0.0
C432 C 0.9004 0.32879 0.71137 0.0
C433 C 0.91859 0.3321 0.69583 0.0
C434 C 0.9239 0.31701 0.69969 0.0
C435 C 0.91189 0.29959 0.71995 0.0
C436 C 0.86427 0.2628 0.7572 0.0
C437 C 0.85899 0.24436 0.77381 0.0
C438 C 0.83957 0.22625 0.77002 0.0
C439 C 0.82495 0.226 0.74898 0.0
C440 C 0.83018 0.24451 0.73234 0.0
C441 C 0.84952 0.26273 0.73651 0.0
H442 H 0.57298 0.84929 0.27771 0.0
N443 N 0.6136 0.8606 0.2648 0.0
H444 H 0.56154 0.86288 0.31885 0.0
H445 H 0.6358 0.8816 0.3132 0.0
H446 H 0.62443 0.895 0.35499 0.0
H447 H 0.63704 0.8994 0.24274 0.0
H448 H 0.62919 0.91617 0.19964 0.0
H449 H 0.58232 0.84076 0.22183 0.0
H450 H 0.57502 0.85705 0.17772 0.0
H451 H 0.57821 0.82154 0.26884 0.0
H452 H 0.64587 0.85561 0.26134 0.0
H453 H 0.57715 0.78919 0.26679 0.0
H454 H 0.64524 0.82336 0.26185 0.0
H455 H 0.57462 0.69761 0.28625 0.0
H456 H 0.56406 0.67353 0.33172 0.0
H457 H 0.6266 0.71023 0.36829 0.0
H458 H 0.6373 0.73374 0.32145 0.0
H459 H 0.63712 0.7148 0.25083 0.0
H460 H 0.6275 0.68914 0.2111 0.0
H461 H 0.57212 0.69111 0.19063 0.0
H462 H 0.58167 0.7166 0.23085 0.0
H463 H 0.58344 0.7346 0.29639 0.0
H464 H 0.58282 0.76601 0.2943 0.0
H465 H 0.63846 0.79573 0.23326 0.0
N466 N 0.61454 0.72974 0.27107 0.0
H467 H 0.63992 0.76459 0.23772 0.0
C468 C 0.60534 0.86456 0.29237 0.0
C469 C 0.58415 0.85875 0.295 0.0
C470 C 0.57763 0.86656 0.3186 0.0
C471 C 0.59215 0.88028 0.33993 0.0
C472 C 0.61295 0.88479 0.33856 0.0
C473 C 0.61944 0.877 0.31496 0.0
C474 C 0.61044 0.86886 0.23564 0.0
C475 C 0.62371 0.89005 0.22818 0.0
C476 C 0.6192 0.89958 0.2034 0.0
C477 C 0.60133 0.88803 0.18519 0.0
C478 C 0.58866 0.86655 0.19161 0.0
C479 C 0.59301 0.85709 0.21676 0.0
C480 C 0.6122 0.84105 0.26462 0.0
C481 C 0.59287 0.82207 0.26678 0.0
C482 C 0.59233 0.80349 0.26601 0.0
C483 C 0.61111 0.80346 0.26393 0.0
C484 C 0.63039 0.82259 0.26252 0.0
C485 C 0.63086 0.8411 0.26257 0.0
C486 C 0.60693 0.71733 0.30022 0.0
C487 C 0.58602 0.70059 0.30414 0.0
C488 C 0.57994 0.68691 0.33047 0.0
C489 C 0.59452 0.68975 0.35367 0.0
C490 C 0.61506 0.70728 0.3506 0.0
C491 C 0.62119 0.72086 0.32405 0.0
C492 C 0.61022 0.71765 0.24374 0.0
C493 C 0.62317 0.71004 0.23725 0.0
C494 C 0.61759 0.69533 0.21477 0.0
C495 C 0.59901 0.68809 0.19803 0.0
C496 C 0.5866 0.69656 0.20312 0.0
C497 C 0.59206 0.71113 0.22602 0.0
C498 C 0.61212 0.7473 0.26771 0.0
C499 C 0.59562 0.74782 0.28267 0.0
C500 C 0.59513 0.7659 0.28114 0.0
C501 C 0.61076 0.78371 0.26396 0.0
C502 C 0.62652 0.78267 0.24761 0.0
C503 C 0.62727 0.76477 0.24977 0.0
H504 H 0.92307 0.61591 0.83227 0.0
N505 N 0.89275 0.59161 0.79409 0.0
H506 H 0.93317 0.60564 0.88087 0.0
H507 H 0.86966 0.55405 0.82605 0.0
H508 H 0.88078 0.54288 0.87243 0.0
H509 H 0.88195 0.55286 0.77734 0.0
H510 H 0.9016 0.54485 0.74156 0.0
H511 H 0.92444 0.61794 0.75514 0.0
H512 H 0.94456 0.60994 0.71918 0.0
H513 H 0.88112 0.61573 0.8176 0.0
H514 H 0.85843 0.56264 0.76119 0.0
H515 H 0.84751 0.61339 0.81276 0.0
H516 H 0.82546 0.56096 0.75466 0.0
H517 H 0.74114 0.60688 0.79245 0.0
H518 H 0.71535 0.59796 0.83504 0.0
H519 H 0.71694 0.54335 0.86 0.0
H520 H 0.74215 0.55206 0.817 0.0
H521 H 0.72712 0.54313 0.76325 0.0
H522 H 0.70117 0.52955 0.72219 0.0
H523 H 0.72767 0.59131 0.68077 0.0
H524 H 0.75403 0.60471 0.72168 0.0
H525 H 0.79366 0.61738 0.77417 0.0
H526 H 0.82715 0.61924 0.77775 0.0
H527 H 0.7939 0.55252 0.7796 0.0
N528 N 0.75546 0.58405 0.77238 0.0
H529 H 0.76084 0.55103 0.7739 0.0
C530 C 0.89609 0.58566 0.8251 0.0
C531 C 0.91354 0.60008 0.84153 0.0
C532 C 0.91943 0.59403 0.86907 0.0
C533 C 0.90833 0.57318 0.88025 0.0
C534 C 0.88987 0.55905 0.86483 0.0
C535 C 0.88362 0.56532 0.83783 0.0
C536 C 0.90169 0.58614 0.76903 0.0
C537 C 0.8953 0.56549 0.76445 0.0
C538 C 0.90669 0.56088 0.74405 0.0
C539 C 0.92482 0.57676 0.72788 0.0
C540 C 0.93059 0.59735 0.73117 0.0
C541 C 0.91913 0.60195 0.75165 0.0
C542 C 0.8726 0.58956 0.78978 0.0
C543 C 0.86898 0.6037 0.80391 0.0
C544 C 0.84978 0.60242 0.80084 0.0
C545 C 0.8337 0.58707 0.78305 0.0
C546 C 0.8373 0.57282 0.76891 0.0
C547 C 0.85643 0.5739 0.77245 0.0
C548 C 0.74364 0.58026 0.80136 0.0
C549 C 0.73628 0.59327 0.80765 0.0
C550 C 0.72157 0.58814 0.83206 0.0
C551 C 0.7139 0.56981 0.8508 0.0
C552 C 0.72223 0.55739 0.84567 0.0
C553 C 0.73689 0.5625 0.82113 0.0
C554 C 0.74262 0.57504 0.74547 0.0
C555 C 0.72785 0.5537 0.74483 0.0
C556 C 0.7128 0.54596 0.72148 0.0
C557 C 0.71216 0.55937 0.69842 0.0
C558 C 0.7278 0.58052 0.69798 0.0
C559 C 0.74286 0.58823 0.72134 0.0
C560 C 0.77473 0.58417 0.77415 0.0
C561 C 0.7937 0.60321 0.7752 0.0
C562 C 0.8128 0.60418 0.77754 0.0
C563 C 0.81333 0.58601 0.77936 0.0
C564 C 0.79423 0.56688 0.77794 0.0
C565 C 0.77515 0.56597 0.77505 0.0
H566 H 0.18428 0.69738 0.29476 0.0
N567 N 0.17604 0.72798 0.28408 0.0
H568 H 0.17546 0.67551 0.34276 0.0
H569 H 0.16441 0.73411 0.33954 0.0
H570 H 0.15657 0.71301 0.3885 0.0
H571 H 0.13502 0.70896 0.27574 0.0
H572 H 0.11405 0.682 0.23945 0.0
H573 H 0.1917 0.71638 0.23575 0.0
H574 H 0.17107 0.69034 0.19832 0.0
H575 H 0.21484 0.73271 0.27794 0.0
H576 H 0.18235 0.76537 0.27602 0.0
H577 H 0.24839 0.76525 0.26879 0.0
H578 H 0.21581 0.79815 0.26905 0.0
H579 H 0.34306 0.85754 0.28017 0.0
H580 H 0.36682 0.87308 0.32325 0.0
H581 H 0.33174 0.90021 0.35261 0.0
H582 H 0.30854 0.8853 0.30804 0.0
H583 H 0.32581 0.90022 0.23129 0.0
H584 H 0.35115 0.91525 0.18693 0.0
H585 H 0.35198 0.85915 0.18472 0.0
H586 H 0.32665 0.84431 0.22928 0.0
H587 H 0.30573 0.82822 0.29065 0.0
H588 H 0.27298 0.79483 0.29359 0.0
H589 H 0.24376 0.82006 0.23518 0.0
N590 N 0.31192 0.86433 0.2624 0.0
H591 H 0.27629 0.85388 0.23441 0.0
C592 C 0.17452 0.7171 0.31348 0.0
C593 C 0.17848 0.70103 0.31522 0.0
C594 C 0.17357 0.68862 0.34289 0.0
C595 C 0.16494 0.69225 0.36948 0.0
C596 C 0.16264 0.7094 0.36828 0.0
C597 C 0.16727 0.7216 0.34046 0.0
C598 C 0.1649 0.71483 0.25858 0.0
C599 C 0.14297 0.70519 0.25847 0.0
C600 C 0.13102 0.6898 0.23757 0.0
C601 C 0.14079 0.6838 0.21592 0.0
C602 C 0.16292 0.6942 0.21504 0.0
C603 C 0.17485 0.70941 0.23631 0.0
C604 C 0.19605 0.74666 0.2771 0.0
C605 C 0.21492 0.74691 0.27529 0.0
C606 C 0.23417 0.76562 0.27049 0.0
C607 C 0.23497 0.78449 0.26812 0.0
C608 C 0.21594 0.78403 0.26995 0.0
C609 C 0.19675 0.76532 0.27416 0.0
C610 C 0.32413 0.87053 0.29057 0.0
C611 C 0.34033 0.86669 0.29592 0.0
C612 C 0.35385 0.87547 0.32093 0.0
C613 C 0.35139 0.88812 0.34138 0.0
C614 C 0.33441 0.89093 0.33698 0.0
C615 C 0.321 0.88228 0.31174 0.0
C616 C 0.32443 0.87128 0.23358 0.0
C617 C 0.33116 0.89106 0.22075 0.0
C618 C 0.34557 0.89956 0.19538 0.0
C619 C 0.35364 0.88841 0.1824 0.0
C620 C 0.34622 0.86819 0.19446 0.0
C621 C 0.33167 0.85965 0.21978 0.0
C622 C 0.29334 0.84382 0.26289 0.0
C623 C 0.2923 0.82671 0.27867 0.0
C624 C 0.2735 0.8074 0.27998 0.0
C625 C 0.25548 0.80465 0.26494 0.0
C626 C 0.25701 0.82162 0.24787 0.0
C627 C 0.27565 0.84095 0.24714 0.0
H628 H 0.41397 0.11211 0.72502 0.0
N629 N 0.43731 0.14961 0.74639 0.0
H630 H 0.42451 0.0963 0.68604 0.0
H631 H 0.47195 0.17046 0.70657 0.0
H632 H 0.48249 0.15474 0.66715 0.0
H633 H 0.47731 0.16077 0.76193 0.0
H634 H 0.48701 0.14599 0.80557 0.0
H635 H 0.4125 0.12528 0.79436 0.0
H636 H 0.42214 0.11055 0.83871 0.0
H637 H 0.41507 0.16015 0.7107 0.0
H638 H 0.46649 0.1855 0.77507 0.0
H639 H 0.41762 0.19335 0.70602 0.0
H640 H 0.46817 0.21798 0.77213 0.0
H641 H 0.41986 0.29645 0.70954 0.0
H642 H 0.43015 0.3218 0.66545 0.0
H643 H 0.48883 0.32421 0.65471 0.0
H644 H 0.4787 0.29945 0.69926 0.0
H645 H 0.48356 0.31248 0.75341 0.0
H646 H 0.49371 0.33672 0.79511 0.0
H647 H 0.42842 0.30776 0.82441 0.0
H648 H 0.41837 0.28356 0.78223 0.0
H649 H 0.41027 0.24617 0.73291 0.0
H650 H 0.40955 0.21382 0.73424 0.0
H651 H 0.47722 0.24804 0.74273 0.0
N652 N 0.44322 0.28403 0.73724 0.0
H653 H 0.47745 0.27997 0.74357 0.0
C654 C 0.44211 0.14236 0.71872 0.0
C655 C 0.42866 0.12163 0.71182 0.0
C656 C 0.43475 0.11262 0.68976 0.0
C657 C 0.45436 0.1243 0.67388 0.0
C658 C 0.46724 0.14547 0.67902 0.0
C659 C 0.46123 0.15445 0.70148 0.0
C660 C 0.44409 0.14409 0.7749 0.0
C661 C 0.46523 0.15014 0.77889 0.0
C662 C 0.47078 0.14174 0.80401 0.0
C663 C 0.45532 0.127 0.82552 0.0
C664 C 0.43437 0.12171 0.82232 0.0
C665 C 0.42885 0.13021 0.79723 0.0
C666 C 0.44037 0.16999 0.74324 0.0
C667 C 0.42688 0.17283 0.72384 0.0
C668 C 0.42823 0.1918 0.7215 0.0
C669 C 0.44294 0.20841 0.73902 0.0
C670 C 0.4568 0.20571 0.75795 0.0
C671 C 0.45569 0.18683 0.75985 0.0
C672 C 0.44838 0.296 0.70781 0.0
C673 C 0.43473 0.30214 0.69715 0.0
C674 C 0.44064 0.31658 0.67187 0.0
C675 C 0.46042 0.32519 0.65663 0.0
C676 C 0.47364 0.31815 0.66625 0.0
C677 C 0.46774 0.30377 0.69167 0.0
C678 C 0.45011 0.29611 0.76477 0.0
C679 C 0.47145 0.31091 0.76928 0.0
C680 C 0.47726 0.32483 0.7932 0.0
C681 C 0.46185 0.32429 0.81291 0.0
C682 C 0.44064 0.30876 0.80934 0.0
C683 C 0.43487 0.29482 0.78549 0.0
C684 C 0.44382 0.26548 0.73783 0.0
C685 C 0.4249 0.24658 0.73512 0.0
C686 C 0.4246 0.22814 0.73556 0.0
C687 C 0.44337 0.22819 0.73829 0.0
C688 C 0.4624 0.24726 0.74096 0.0
C689 C 0.4626 0.26569 0.74106 0.0
H690 H 0.03567 0.44166 0.07875 0.0
H691 H 0.1407 0.48415 0.17715 0.0
H692 H 0.07556 0.50518 0.1021 0.0
H693 H 0.10462 0.42197 0.14547 0.0
H694 H 0.1172 0.49215 0.14947 0.0
H695 H 0.06052 0.43389 0.10349 0.0
C696 C 0.0497 0.4539 0.08922 0.0
C697 C 0.0537 0.474 0.08871 0.0
C698 C 0.11447 0.47678 0.1484 0.0
C699 C 0.08211 0.46543 0.11676 0.0
C700 C 0.12802 0.47223 0.16401 0.0
C701 C 0.1247 0.45233 0.16367 0.0
C702 C 0.09734 0.46132 0.13239 0.0
C703 C 0.10766 0.43744 0.14676 0.0
C704 C 0.06388 0.44953 0.1032 0.0
C705 C 0.07203 0.48947 0.10227 0.0
N706 N 0.09458 0.44221 0.13192 0.0
N707 N 0.08557 0.48486 0.11585 0.0
H708 H 0.6148 0.046 0.52965 0.0
H709 H 0.66123 0.1178 0.67651 0.0
H710 H 0.57785 0.05937 0.59034 0.0
H711 H 0.70038 0.11235 0.60783 0.0
H712 H 0.63072 0.09686 0.64481 0.0
H713 H 0.64647 0.07015 0.55789 0.0
C714 C 0.61348 0.05414 0.54891 0.0
C715 C 0.5939 0.05087 0.55782 0.0
C716 C 0.646 0.10036 0.63651 0.0
C717 C 0.62974 0.07826 0.59024 0.0
C718 C 0.66353 0.11252 0.6545 0.0
C719 C 0.68353 0.11694 0.64489 0.0
C720 C 0.64833 0.09234 0.60875 0.0
C721 C 0.68528 0.10914 0.61645 0.0
C722 C 0.63147 0.0679 0.56497 0.0
C723 C 0.59278 0.06158 0.58291 0.0
N724 N 0.6679 0.09713 0.59949 0.0
N725 N 0.61046 0.07477 0.59835 0.0
H726 H 0.56838 0.60816 0.04168 0.0
H727 H 0.59519 0.65133 0.21304 0.0
H728 H 0.55014 0.56853 0.12641 0.0
H729 H 0.58625 0.68478 0.13674 0.0
H730 H 0.58318 0.62206 0.17958 0.0
H731 H 0.57881 0.63761 0.07424 0.0
C732 C 0.56639 0.60554 0.06702 0.0
C733 C 0.55844 0.5857 0.08119 0.0
C734 C 0.58381 0.63578 0.17013 0.0
C735 C 0.57089 0.61953 0.11849 0.0
C736 C 0.59079 0.65252 0.18912 0.0
C737 C 0.59179 0.67048 0.17751 0.0
C738 C 0.57807 0.63709 0.13911 0.0
C739 C 0.58565 0.67115 0.1465 0.0
C740 C 0.57246 0.62241 0.08555 0.0
C741 C 0.55664 0.5835 0.11427 0.0
N742 N 0.57919 0.65471 0.1282 0.0
N743 N 0.56296 0.60019 0.13173 0.0
H744 H 0.00301 0.56821 0.58563 0.0
H745 H 0.9363 0.54922 0.74445 0.0
H746 H 0.99972 0.52958 0.66537 0.0
H747 H 0.94453 0.59328 0.66996 0.0
H748 H 0.95871 0.5412 0.71473 0.0
H749 H 0.98101 0.57709 0.61515 0.0
C750 C 0.99765 0.56158 0.60933 0.0
C751 C 0.00321 0.54812 0.62305 0.0
C752 C 0.95564 0.55262 0.70481 0.0
C753 C 0.97809 0.55826 0.65697 0.0
C754 C 0.94269 0.55709 0.72166 0.0
C755 C 0.93837 0.57182 0.70955 0.0
C756 C 0.96438 0.56289 0.67547 0.0
C757 C 0.94751 0.58188 0.68023 0.0
C758 C 0.98518 0.56674 0.62621 0.0
C759 C 0.99603 0.5402 0.65398 0.0
N760 N 0.96003 0.57717 0.66411 0.0
N761 N 0.98379 0.54532 0.66981 0.0
H762 H 0.47599 0.94643 0.08983 0.0
H763 H 0.35743 0.91322 0.13093 0.0
H764 H 0.44325 0.97041 0.03855 0.0
H765 H 0.38937 0.88704 0.17906 0.0
H766 H 0.3879 0.93286 0.09494 0.0
H767 H 0.44373 0.9232 0.1212 0.0
C768 C 0.46188 0.94664 0.08522 0.0
C769 C 0.46204 0.9602 0.06187 0.0
C770 C 0.38818 0.92268 0.1132 0.0
C771 C 0.42527 0.93394 0.09737 0.0
C772 C 0.37081 0.91151 0.13379 0.0
C773 C 0.37089 0.89854 0.15814 0.0
C774 C 0.40586 0.921 0.11709 0.0
C775 C 0.38853 0.8967 0.16048 0.0
C776 C 0.44351 0.93344 0.10299 0.0
C777 C 0.44355 0.96009 0.05651 0.0
N778 N 0.40537 0.90794 0.1404 0.0
N779 N 0.42588 0.9472 0.07425 0.0
H780 H 0.53191 0.44631 0.56268 0.0
H781 H 0.438 0.33087 0.6103 0.0
H782 H 0.46797 0.42111 0.53452 0.0
H783 H 0.49993 0.35985 0.64942 0.0
H784 H 0.44982 0.36191 0.57628 0.0
H785 H 0.52163 0.41278 0.58842 0.0
C786 C 0.51574 0.43355 0.56175 0.0
C787 C 0.50068 0.43623 0.54677 0.0
C788 C 0.46086 0.36137 0.59211 0.0
C789 C 0.48873 0.39809 0.57604 0.0
C790 C 0.45411 0.34368 0.61162 0.0
C791 C 0.46793 0.34275 0.63298 0.0
C792 C 0.48158 0.37828 0.59395 0.0
C793 C 0.48874 0.3597 0.63317 0.0
C794 C 0.50985 0.41448 0.57641 0.0
C795 C 0.47992 0.41944 0.54602 0.0
N796 N 0.49487 0.37679 0.61416 0.0
N797 N 0.4745 0.40104 0.56064 0.0
H798 H 0.58573 0.97754 0.42449 0.0
H799 H 0.55541 0.86528 0.37483 0.0
H800 H 0.52845 0.92162 0.45646 0.0
H801 H 0.6153 0.92114 0.35262 0.0
H802 H 0.54521 0.88524 0.40558 0.0
H803 H 0.59678 0.9568 0.39839 0.0
C804 C 0.57545 0.96088 0.42594 0.0
C805 C 0.55609 0.95131 0.44254 0.0
C806 C 0.56065 0.89307 0.39419 0.0
C807 C 0.56869 0.92738 0.41283 0.0
C808 C 0.56645 0.8817 0.37658 0.0
C809 C 0.58626 0.89152 0.36115 0.0
C810 C 0.57468 0.91445 0.39614 0.0
C811 C 0.6 0.91281 0.36444 0.0
C812 C 0.58182 0.94902 0.4112 0.0
C813 C 0.54356 0.92963 0.44409 0.0
N814 N 0.5939 0.92355 0.38137 0.0
N815 N 0.55002 0.9184 0.42926 0.0
H816 H 0.61747 0.56505 0.97031 0.0
H817 H 0.68001 0.53053 0.86216 0.0
H818 H 0.59226 0.50269 0.94317 0.0
H819 H 0.70645 0.59302 0.89049 0.0
H820 H 0.64897 0.51964 0.89527 0.0
H821 H 0.65117 0.57535 0.94423 0.0
C822 C 0.61919 0.55357 0.95893 0.0
C823 C 0.60227 0.53309 0.95855 0.0
C824 C 0.66162 0.53572 0.89448 0.0
C825 C 0.64044 0.54457 0.92882 0.0
C826 C 0.67949 0.54194 0.87575 0.0
C827 C 0.69593 0.56277 0.87342 0.0
C828 C 0.66002 0.55041 0.91095 0.0
C829 C 0.69406 0.57686 0.89117 0.0
C830 C 0.63833 0.55939 0.94411 0.0
C831 C 0.60506 0.51865 0.94374 0.0
N832 N 0.67638 0.57045 0.90902 0.0
N833 N 0.62377 0.52468 0.9293 0.0
H834 H 0.12657 0.58265 0.48668 0.0
H835 H 0.12932 0.67971 0.40524 0.0
H836 H 0.08094 0.59903 0.50636 0.0
H837 H 0.18059 0.66955 0.39604 0.0
H838 H 0.1131 0.65198 0.44574 0.0
H839 H 0.14815 0.61572 0.45657 0.0
C840 C 0.12133 0.59343 0.48493 0.0
C841 C 0.10205 0.58829 0.49866 0.0
C842 C 0.12803 0.65594 0.43516 0.0
C843 C 0.12626 0.62578 0.46423 0.0
C844 C 0.13745 0.67197 0.41211 0.0
C845 C 0.15638 0.67702 0.39691 0.0
C846 C 0.13738 0.64459 0.44294 0.0
C847 C 0.1658 0.66598 0.40658 0.0
C848 C 0.13357 0.61223 0.4678 0.0
C849 C 0.09574 0.60256 0.49588 0.0
N850 N 0.15608 0.65014 0.42872 0.0
N851 N 0.10772 0.62059 0.47869 0.0
H852 H 0.4654 0.03134 0.92243 0.0
H853 H 0.49004 0.14285 0.86266 0.0
H854 H 0.51998 0.08828 0.9498 0.0
H855 H 0.43333 0.08566 0.84183 0.0
H856 H 0.50052 0.12342 0.89695 0.0
H857 H 0.45269 0.05118 0.89477 0.0
C858 C 0.47472 0.04803 0.9226 0.0
C859 C 0.49386 0.05817 0.93824 0.0
C860 C 0.48568 0.11515 0.88513 0.0
C861 C 0.47935 0.08103 0.90672 0.0
C862 C 0.47973 0.12622 0.86548 0.0
C863 C 0.46081 0.11586 0.84925 0.0
C864 C 0.47272 0.09353 0.88837 0.0
C865 C 0.44794 0.09433 0.8541 0.0
C866 C 0.46739 0.05936 0.90697 0.0
C867 C 0.50509 0.07983 0.93818 0.0
N868 N 0.45421 0.08388 0.87298 0.0
N869 N 0.49775 0.09055 0.92245 0.0
H870 H 0.4604 0.51492 0.40518 0.0
H871 H 0.35297 0.42574 0.34451 0.0
H872 H 0.42561 0.45629 0.4574 0.0
H873 H 0.37025 0.48943 0.33359 0.0
H874 H 0.38061 0.4358 0.38272 0.0
H875 H 0.42909 0.50533 0.3743 0.0
C876 C 0.44609 0.50007 0.41016 0.0
C877 C 0.44543 0.48633 0.4337 0.0
C878 C 0.37815 0.44748 0.37212 0.0
C879 C 0.4099 0.47517 0.39842 0.0
C880 C 0.36225 0.44177 0.3504 0.0
C881 C 0.35923 0.45675 0.33535 0.0
C882 C 0.39146 0.46836 0.37839 0.0
C883 C 0.37225 0.47736 0.34374 0.0
C884 C 0.42827 0.49466 0.39273 0.0
C885 C 0.4266 0.46728 0.43944 0.0
N886 N 0.38798 0.4826 0.36431 0.0
N887 N 0.40959 0.46211 0.42157 0.0
H888 H 0.98781 0.41579 0.95395 0.0
H889 H 0.88104 0.31866 0.89518 0.0
H890 H 0.92649 0.40231 0.98361 0.0
H891 H 0.94304 0.34097 0.85562 0.0
H892 H 0.8969 0.34614 0.93279 0.0
H893 H 0.97113 0.38501 0.92349 0.0
C894 C 0.97079 0.40633 0.95403 0.0
C895 C 0.95853 0.41183 0.97091 0.0
C896 C 0.90698 0.34482 0.91601 0.0
C897 C 0.93922 0.37634 0.93609 0.0
C898 C 0.89795 0.3292 0.89445 0.0
C899 C 0.91067 0.32736 0.87211 0.0
C900 C 0.92888 0.35865 0.91528 0.0
C901 C 0.93253 0.34136 0.87266 0.0
C902 C 0.96126 0.38869 0.9367 0.0
C903 C 0.93653 0.39865 0.97085 0.0
N904 N 0.94086 0.35636 0.89374 0.0
N905 N 0.92754 0.38157 0.95342 0.0
H906 H 0.99071 0.5556 0.00267 0.0
H907 H 0.88698 0.54033 0.92434 0.0
H908 H 0.93656 0.49515 0.9886 0.0
H909 H 0.94988 0.58914 0.89442 0.0
H910 H 0.90235 0.52645 0.96071 0.0
H911 H 0.9728 0.57112 0.97622 0.0
C912 C 0.9749 0.54566 0.99442 0.0
C913 C 0.96507 0.52415 0.99749 0.0
C914 C 0.91264 0.54035 0.94636 0.0
C915 C 0.94452 0.54163 0.96781 0.0
C916 C 0.90394 0.54826 0.92537 0.0
C917 C 0.91704 0.56594 0.90574 0.0
C918 C 0.93456 0.55043 0.9483 0.0
C919 C 0.93895 0.57575 0.90917 0.0
C920 C 0.96475 0.55447 0.97936 0.0
C921 C 0.94458 0.51182 0.98658 0.0
N922 N 0.94696 0.56786 0.92993 0.0
N923 N 0.93494 0.52075 0.97208 0.0
H924 H 0.4625 0.93506 0.45235 0.0
H925 H 0.36661 0.9275 0.35999 0.0
H926 H 0.44525 0.98047 0.45776 0.0
H927 H 0.37312 0.87502 0.37755 0.0
H928 H 0.39523 0.94713 0.39559 0.0
H929 H 0.43005 0.91284 0.4243 0.0
C930 C 0.45173 0.94021 0.44773 0.0
C931 C 0.45644 0.95955 0.45705 0.0
C932 C 0.39026 0.93125 0.39189 0.0
C933 C 0.41957 0.93452 0.4249 0.0
C934 C 0.37376 0.91993 0.37169 0.0
C935 C 0.3674 0.89952 0.36551 0.0
C936 C 0.40072 0.92226 0.40579 0.0
C937 C 0.37771 0.89081 0.38101 0.0
C938 C 0.43325 0.92759 0.43183 0.0
C939 C 0.44211 0.96567 0.45067 0.0
N940 N 0.39397 0.90228 0.40016 0.0
N941 N 0.42439 0.95327 0.4347 0.0
H942 H 0.47387 0.42891 0.90381 0.0
H943 H 0.49552 0.342 0.85223 0.0
H944 H 0.52282 0.42165 0.94315 0.0
H945 H 0.44176 0.34479 0.82364 0.0
H946 H 0.50606 0.3712 0.88551 0.0
H947 H 0.46225 0.39828 0.87373 0.0
C948 C 0.48222 0.4209 0.90603 0.0
C949 C 0.49939 0.4279 0.92594 0.0
C950 C 0.49188 0.36531 0.87213 0.0
C951 C 0.48609 0.39269 0.89168 0.0
C952 C 0.48589 0.34869 0.85306 0.0
C953 C 0.46771 0.3409 0.83515 0.0
C954 C 0.4797 0.37434 0.87305 0.0
C955 C 0.45573 0.35008 0.83734 0.0
C956 C 0.47549 0.40333 0.88901 0.0
C957 C 0.50941 0.4167 0.92827 0.0
N958 N 0.46201 0.36636 0.85575 0.0
N959 N 0.50268 0.39972 0.91123 0.0
H960 H 0.07443 0.45575 0.46502 0.0
H961 H 0.18049 0.4875 0.37019 0.0
H962 H 0.13289 0.51359 0.47561 0.0
H963 H 0.12173 0.4293 0.36332 0.0
H964 H 0.16447 0.49653 0.41175 0.0
H965 H 0.0926 0.44488 0.43083 0.0
C966 C 0.09114 0.46614 0.46018 0.0
C967 C 0.10213 0.48568 0.47289 0.0
C968 C 0.15519 0.48169 0.40135 0.0
C969 C 0.12311 0.47335 0.43369 0.0
C970 C 0.16429 0.47657 0.37754 0.0
C971 C 0.15245 0.45762 0.36314 0.0
C972 C 0.13406 0.46783 0.41068 0.0
C973 C 0.1316 0.44396 0.37393 0.0
C974 C 0.10154 0.4599 0.44075 0.0
C975 C 0.12385 0.49837 0.46633 0.0
N976 N 0.12307 0.44939 0.39682 0.0
N977 N 0.13361 0.49207 0.4469 0.0
H978 H 0.58796 0.07457 0.9271 0.0
H979 H 0.69991 0.09608 0.86844 0.0
H980 H 0.61232 0.03673 0.95679 0.0
H981 H 0.671 0.12802 0.82935 0.0
H982 H 0.66991 0.07673 0.90537 0.0
H983 H 0.62032 0.09701 0.89549 0.0
C984 C 0.60028 0.07115 0.92697 0.0
C985 C 0.5977 0.05392 0.94422 0.0
C986 C 0.67023 0.08808 0.88884 0.0
C987 C 0.63452 0.07924 0.90839 0.0
C988 C 0.68732 0.09909 0.86768 0.0
C989 C 0.68798 0.11366 0.84561 0.0
C990 C 0.65365 0.09166 0.88795 0.0
C991 C 0.67135 0.11716 0.84613 0.0
C992 C 0.61868 0.08386 0.909 0.0
C993 C 0.61391 0.04995 0.94358 0.0
N994 N 0.65485 0.10616 0.86681 0.0
N995 N 0.63168 0.0625 0.92582 0.0
H996 H 0.5236 0.57393 0.45943 0.0
H997 H 0.61933 0.67656 0.37933 0.0
H998 H 0.58827 0.59392 0.47577 0.0
H999 H 0.55655 0.66547 0.38596 0.0
H1000 H 0.60855 0.64717 0.41613 0.0
H1001 H 0.53523 0.60777 0.43358 0.0
C1002 C 0.54025 0.58562 0.45782 0.0
C1003 C 0.55508 0.58127 0.46935 0.0
C1004 C 0.59719 0.65132 0.40984 0.0
C1005 C 0.56853 0.61972 0.43968 0.0
C1006 C 0.60338 0.66825 0.38894 0.0
C1007 C 0.5888 0.67352 0.37918 0.0
C1008 C 0.5762 0.63931 0.42083 0.0
C1009 C 0.56823 0.66177 0.39215 0.0
C1010 C 0.54689 0.60488 0.44314 0.0
C1011 C 0.57645 0.59678 0.46686 0.0
N1012 N 0.56248 0.64508 0.41198 0.0
N1013 N 0.58258 0.61527 0.45191 0.0
H1014 H 0.50461 0.05117 0.62035 0.0
H1015 H 0.47054 0.13386 0.61304 0.0
H1016 H 0.49027 0.07041 0.53179 0.0
H1017 H 0.45643 0.09107 0.69247 0.0
H1018 H 0.48373 0.11568 0.58332 0.0
H1019 H 0.49306 0.07094 0.64784 0.0
C1020 C 0.49891 0.05941 0.60659 0.0
C1021 C 0.4981 0.05873 0.5736 0.0
C1022 C 0.47767 0.11031 0.60723 0.0
C1023 C 0.4854 0.08199 0.60518 0.0
C1024 C 0.47025 0.12067 0.62413 0.0
C1025 C 0.46224 0.11377 0.65505 0.0
C1026 C 0.47753 0.09336 0.62176 0.0
C1027 C 0.46222 0.09668 0.66852 0.0
C1028 C 0.49245 0.07082 0.62238 0.0
C1029 C 0.49129 0.07049 0.55719 0.0
N1030 N 0.46985 0.08715 0.65188 0.0
N1031 N 0.48518 0.08163 0.57316 0.0
H1032 H 0.46954 0.5142 0.05985 0.0
H1033 H 0.35197 0.42346 0.10963 0.0
H1034 H 0.44282 0.45087 0.03671 0.0
H1035 H 0.38153 0.48542 0.14179 0.0
H1036 H 0.38358 0.43403 0.07769 0.0
H1037 H 0.43593 0.50476 0.08518 0.0
C1038 C 0.45647 0.49831 0.06011 0.0
C1039 C 0.45876 0.4832 0.04656 0.0
C1040 C 0.38307 0.44535 0.09154 0.0
C1041 C 0.42044 0.47225 0.0752 0.0
C1042 C 0.36504 0.43932 0.10983 0.0
C1043 C 0.36411 0.45352 0.12864 0.0
C1044 C 0.40034 0.46574 0.09204 0.0
C1045 C 0.38141 0.47396 0.12749 0.0
C1046 C 0.43734 0.49291 0.07448 0.0
C1047 C 0.44152 0.46285 0.04718 0.0
N1048 N 0.39885 0.4794 0.10972 0.0
N1049 N 0.42306 0.45792 0.06141 0.0
H1050 H 0.99593 0.46163 0.63709 0.0
H1051 H 0.94014 0.33841 0.63973 0.0
H1052 H 0.00869 0.43013 0.56721 0.0
H1053 H 0.92967 0.371 0.71088 0.0
H1054 H 0.96459 0.37154 0.6119 0.0
H1055 H 0.97078 0.42823 0.66373 0.0
C1056 C 0.99335 0.44757 0.62749 0.0
C1057 C 0.00423 0.44841 0.60013 0.0
C1058 C 0.95686 0.37141 0.63354 0.0
C1059 C 0.97562 0.41027 0.63013 0.0
C1060 C 0.94296 0.35251 0.64949 0.0
C1061 C 0.93275 0.35188 0.67764 0.0
C1062 C 0.96064 0.38982 0.64588 0.0
C1063 C 0.93686 0.37065 0.689 0.0
C1064 C 0.97904 0.42855 0.64257 0.0
C1065 C 0.00048 0.42993 0.58834 0.0
N1066 N 0.95049 0.3888 0.67314 0.0
N1067 N 0.98645 0.41155 0.60343 0.0
H1068 H 0.53225 0.92657 0.06767 0.0
H1069 H 0.62689 0.92229 0.14593 0.0
H1070 H 0.5946 0.98045 0.07433 0.0
H1071 H 0.56144 0.87818 0.17027 0.0
H1072 H 0.61613 0.94127 0.11126 0.0
H1073 H 0.54372 0.90599 0.09677 0.0
C1074 C 0.54841 0.934 0.07501 0.0
C1075 C 0.5625 0.95523 0.06874 0.0
C1076 C 0.60418 0.92734 0.12408 0.0
C1077 C 0.5757 0.93184 0.10187 0.0
C1078 C 0.61028 0.91651 0.144 0.0
C1079 C 0.5951 0.8986 0.16138 0.0
C1080 C 0.58274 0.9201 0.12114 0.0
C1081 C 0.57377 0.89168 0.15715 0.0
C1082 C 0.5549 0.9223 0.09173 0.0
C1083 C 0.58321 0.96416 0.079 0.0
N1084 N 0.56825 0.90246 0.13754 0.0
N1085 N 0.58922 0.95241 0.09504 0.0
H1086 H 0.62976 0.54425 0.54438 0.0
H1087 H 0.67057 0.53185 0.713 0.0
H1088 H 0.58927 0.51254 0.6261 0.0
H1089 H 0.71237 0.56991 0.63552 0.0
H1090 H 0.64063 0.52169 0.67941 0.0
H1091 H 0.66015 0.55117 0.57549 0.0
C1092 C 0.62725 0.53863 0.5688 0.0
C1093 C 0.60696 0.52791 0.58273 0.0
C1094 C 0.65634 0.53217 0.66963 0.0
C1095 C 0.64163 0.53581 0.61844 0.0
C1096 C 0.6735 0.53783 0.68874 0.0
C1097 C 0.69407 0.55175 0.67708 0.0
C1098 C 0.65968 0.54047 0.63854 0.0
C1099 C 0.69678 0.55931 0.64559 0.0
C1100 C 0.64461 0.54266 0.58657 0.0
C1101 C 0.60466 0.52114 0.61454 0.0
N1102 N 0.67978 0.55362 0.62744 0.0
N1103 N 0.62176 0.52521 0.63128 0.0
H1104 H 0.0366 0.58108 0.12542 0.0
H1105 H 0.14894 0.65447 0.19782 0.0
H1106 H 0.09057 0.57703 0.10379 0.0
H1107 H 0.10287 0.67197 0.1885 0.0
H1108 H 0.12678 0.62437 0.16737 0.0
H1109 H 0.05943 0.61249 0.1536 0.0
C1110 C 0.05324 0.58678 0.12672 0.0
C1111 C 0.06175 0.57651 0.11224 0.0
C1112 C 0.1216 0.63488 0.17187 0.0
C1113 C 0.08785 0.61226 0.14439 0.0
C1114 C 0.13434 0.65222 0.18908 0.0
C1115 C 0.12789 0.66596 0.19584 0.0
C1116 C 0.10207 0.63099 0.16164 0.0
C1117 C 0.10842 0.66172 0.18443 0.0
C1118 C 0.06626 0.60475 0.14257 0.0
C1119 C 0.08343 0.58461 0.11439 0.0
N1120 N 0.09616 0.64455 0.1681 0.0
N1121 N 0.09571 0.60194 0.13032 0.0
loop_
_geom_bond_atom_site_label_1
_geom_bond_atom_site_label_2
_geom_bond_distance
_geom_bond_site_symmetry_2
_ccdc_geom_bond_type
C0 C1 1.443 . S
C0 N4 1.376 . S
C0 C38 1.389 . S
C1 C0 1.443 . S
C1 C2 1.340 . S
C1 H41 0.951 . S
C2 C1 1.340 . S
C2 C3 1.439 . S
C2 H42 0.950 . S
C3 C2 1.439 . S
C3 N4 1.374 . S
C3 C37 1.395 . S
N4 C0 1.376 . S
N4 C3 1.374 . S
N4 Co5 2.008 1_655 S
Co5 N4 2.008 1_455 S
Co5 N6 1.995 . S
Co5 N11 2.008 . S
Co5 N16 1.995 . S
Co5 N21 2.282 . S
Co5 N27 2.282 1_455 S
N6 Co5 1.995 . S
N6 C7 1.376 1_455 S
N6 C10 1.383 . S
C7 N6 1.376 1_655 S
C7 C8 1.446 . S
C7 C37 1.391 . S
C8 C7 1.446 . S
C8 C9 1.339 1_655 S
C8 H43 0.949 . S
C9 C8 1.339 1_455 S
C9 C10 1.439 . S
C9 H44 0.950 . S
C10 N6 1.383 . S
C10 C9 1.439 . S
C10 C39 1.392 . S
N11 Co5 2.008 . S
N11 C12 1.376 . S
N11 C15 1.374 . S
C12 N11 1.376 . S
C12 C13 1.443 . S
C12 C39 1.389 . S
C13 C12 1.443 . S
C13 C14 1.340 . S
C13 H45 0.951 . S
C14 C13 1.340 . S
C14 C15 1.439 . S
C14 H46 0.955 . S
C15 N11 1.374 . S
C15 C14 1.439 . S
C15 C40 1.395 1_554 S
N16 Co5 1.995 . S
N16 C17 1.376 1_554 S
N16 C20 1.383 1_455 S
C17 N16 1.376 1_556 S
C17 C18 1.446 . S
C17 C40 1.391 . S
C18 C17 1.446 . S
C18 C19 1.339 1_455 S
C18 H47 0.949 . S
C19 C18 1.339 1_655 S
C19 C20 1.439 1_556 S
C19 H48 0.950 . S
C20 N16 1.383 1_655 S
C20 C19 1.439 1_554 S
C20 C38 1.392 . S
N21 Co5 2.282 . S
N21 C24 1.332 . S
N21 C26 1.332 . S
C22 C23 1.386 . S
C22 C25 1.388 . S
C23 C22 1.386 . S
C23 C24 1.382 . S
C23 H49 0.950 . S
C24 N21 1.332 . S
C24 C23 1.382 . S
C24 H35 0.952 . S
C25 C22 1.388 . S
C25 C26 1.382 . S
C25 H50 0.950 . S
C26 N21 1.332 . S
C26 C25 1.382 . S
C26 H36 0.948 . S
N27 Co5 2.282 1_655 S
N27 C31 1.332 . S
N27 C32 1.332 1_554 S
C28 C29 1.388 . S
C28 C32 1.382 . S
C28 H51 0.950 . S
C29 C28 1.388 . S
C29 C30 1.386 1_556 S
C30 C29 1.386 1_554 S
C30 C31 1.382 . S
C30 H52 0.950 . S
C31 N27 1.332 . S
C31 C30 1.382 . S
C31 H33 0.952 . S
C32 N27 1.332 1_556 S
C32 C28 1.382 . S
C32 H34 0.948 . S
H33 C31 0.952 . S
H34 C32 0.948 . S
H35 C24 0.952 . S
H36 C26 0.948 . S
C37 C3 1.395 . S
C37 C7 1.391 . S
C38 C0 1.389 . S
C38 C20 1.392 . S
C39 C10 1.392 . S
C39 C12 1.389 . S
C40 C15 1.395 1_556 S
C40 C17 1.391 . S
H41 C1 0.951 . S
H42 C2 0.950 . S
H43 C8 0.949 . S
H44 C9 0.950 . S
H45 C13 0.951 . S
H46 C14 0.955 . S
H47 C18 0.949 . S
H48 C19 0.950 . S
H49 C23 0.950 . S
H50 C25 0.950 . S
H51 C28 0.950 . S
H52 C30 0.950 . S
C53 C54 1.443 . S
C53 N57 1.376 . S
C53 C91 1.389 . S
C54 C53 1.443 . S
C54 C55 1.340 . S
C54 H94 0.951 . S
C55 C54 1.340 . S
C55 C56 1.439 1_545 S
C55 H95 0.950 1_545 S
C56 C55 1.439 1_565 S
C56 N57 1.374 1_565 S
C56 C90 1.395 . S
N57 C53 1.376 . S
N57 C56 1.374 1_545 S
N57 Co58 2.008 . S
Co58 N57 2.008 . S
Co58 N59 1.995 1_545 S
Co58 N64 2.008 . S
Co58 N69 1.995 . S
Co58 N74 2.282 1_545 S
Co58 N80 2.282 . S
N59 Co58 1.995 1_565 S
N59 C60 1.376 . S
N59 C63 1.383 . S
C60 N59 1.376 . S
C60 C61 1.446 . S
C60 C90 1.391 . S
C61 C60 1.446 . S
C61 C62 1.339 . S
C61 H96 0.949 . S
C62 C61 1.339 . S
C62 C63 1.439 . S
C62 H97 0.950 . S
C63 N59 1.383 . S
C63 C62 1.439 . S
C63 C92 1.392 . S
N64 Co58 2.008 . S
N64 C65 1.376 1_545 S
N64 C68 1.374 . S
C65 N64 1.376 1_565 S
C65 C66 1.443 . S
C65 C92 1.389 . S
C66 C65 1.443 . S
C66 C67 1.340 1_565 S
C66 H98 0.951 . S
C67 C66 1.340 1_545 S
C67 C68 1.439 . S
C67 H99 0.950 . S
C68 N64 1.374 . S
C68 C67 1.439 . S
C68 C93 1.395 . S
N69 Co58 1.995 . S
N69 C70 1.376 . S
N69 C73 1.383 . S
C70 N69 1.376 . S
C70 C71 1.446 . S
C70 C93 1.391 . S
C71 C70 1.446 . S
C71 C72 1.339 . S
C71 H100 0.949 . S
C72 C71 1.339 . S
C72 C73 1.439 . S
C72 H101 0.950 . S
C73 N69 1.383 . S
C73 C72 1.439 . S
C73 C91 1.392 . S
N74 Co58 2.282 1_565 S
N74 C77 1.332 . S
N74 C79 1.332 . S
C75 C76 1.386 . S
C75 C78 1.388 . S
C76 C75 1.386 . S
C76 C77 1.382 . S
C76 H102 0.950 . S
C77 N74 1.332 . S
C77 C76 1.382 . S
C77 H88 0.952 1_565 S
C78 C75 1.388 . S
C78 C79 1.382 . S
C78 H103 0.950 . S
C79 N74 1.332 . S
C79 C78 1.382 . S
C79 H89 0.948 . S
N80 Co58 2.282 . S
N80 C84 1.332 . S
N80 C85 1.332 . S
C81 C82 1.388 . S
C81 C85 1.382 . S
C81 H104 0.950 . S
C82 C81 1.388 . S
C82 C83 1.386 . S
C83 C82 1.386 . S
C83 C84 1.382 . S
C83 H105 0.950 . S
C84 N80 1.332 . S
C84 C83 1.382 . S
C84 H86 0.952 . S
C85 N80 1.332 . S
C85 C81 1.382 . S
C85 H87 0.948 . S
H86 C84 0.952 . S
H87 C85 0.948 . S
H88 C77 0.952 1_545 S
H89 C79 0.948 . S
C90 C56 1.395 . S
C90 C60 1.391 . S
C91 C53 1.389 . S
C91 C73 1.392 . S
C92 C63 1.392 . S
C92 C65 1.389 . S
C93 C68 1.395 . S
C93 C70 1.391 . S
H94 C54 0.951 . S
H95 C55 0.950 1_565 S
H96 C61 0.949 . S
H97 C62 0.950 . S
H98 C66 0.951 . S
H99 C67 0.950 . S
H100 C71 0.949 . S
H101 C72 0.950 . S
H102 C76 0.950 . S
H103 C78 0.950 . S
H104 C81 0.950 . S
H105 C83 0.950 . S
C106 C107 1.443 . S
C106 N110 1.376 . S
C106 C144 1.389 . S
C107 C106 1.443 . S
C107 C108 1.340 . S
C107 H147 0.951 . S
C108 C107 1.340 . S
C108 C109 1.439 . S
C108 H148 0.950 . S
C109 C108 1.439 . S
C109 N110 1.374 . S
C109 C143 1.395 . S
N110 C106 1.376 . S
N110 C109 1.374 . S
N110 Co111 2.008 1_556 S
Co111 N110 2.008 1_554 S
Co111 N112 1.995 1_554 S
Co111 N117 2.008 . S
Co111 N122 1.995 . S
Co111 N127 2.282 . S
Co111 N133 2.282 1_554 S
N112 Co111 1.995 1_556 S
N112 C113 1.376 . S
N112 C116 1.383 1_556 S
C113 N112 1.376 . S
C113 C114 1.446 . S
C113 C143 1.391 . S
C114 C113 1.446 . S
C114 C115 1.339 . S
C114 H149 0.949 . S
C115 C114 1.339 . S
C115 C116 1.439 1_556 S
C115 H150 0.950 . S
C116 N112 1.383 1_554 S
C116 C115 1.439 1_554 S
C116 C145 1.392 . S
N117 Co111 2.008 . S
N117 C118 1.376 . S
N117 C121 1.374 . S
C118 N117 1.376 . S
C118 C119 1.443 . S
C118 C145 1.389 . S
C119 C118 1.443 . S
C119 C120 1.340 . S
C119 H151 0.951 . S
C120 C119 1.340 . S
C120 C121 1.439 . S
C120 H152 0.950 . S
C121 N117 1.374 . S
C121 C120 1.439 . S
C121 C146 1.395 . S
N122 Co111 1.995 . S
N122 C123 1.376 . S
N122 C126 1.384 1_554 S
C123 N122 1.376 . S
C123 C124 1.446 . S
C123 C146 1.391 . S
C124 C123 1.446 . S
C124 C125 1.339 . S
C124 H153 0.949 . S
C125 C124 1.339 . S
C125 C126 1.440 1_554 S
C125 H154 0.950 . S
C126 N122 1.384 1_556 S
C126 C125 1.440 1_556 S
C126 C144 1.390 . S
N127 Co111 2.282 . S
N127 C130 1.332 . S
N127 C132 1.332 . S
C128 C129 1.386 . S
C128 C131 1.388 . S
C129 C128 1.386 . S
C129 C130 1.382 . S
C129 H155 0.950 . S
C130 N127 1.332 . S
C130 C129 1.382 . S
C130 H141 0.952 . S
C131 C128 1.388 . S
C131 C132 1.382 . S
C131 H156 0.950 . S
C132 N127 1.332 . S
C132 C131 1.382 . S
C132 H142 0.948 1_554 S
N133 Co111 2.282 1_556 S
N133 C137 1.332 . S
N133 C138 1.332 . S
C134 C135 1.388 . S
C134 C138 1.382 . S
C134 H157 0.950 . S
C135 C134 1.388 . S
C135 C136 1.386 . S
C136 C135 1.386 . S
C136 C137 1.382 . S
C136 H158 0.950 . S
C137 N133 1.332 . S
C137 C136 1.382 . S
C137 H139 0.952 . S
C138 N133 1.332 . S
C138 C134 1.382 . S
C138 H140 0.948 1_556 S
H139 C137 0.952 . S
H140 C138 0.948 1_554 S
H141 C130 0.952 . S
H142 C132 0.948 1_556 S
C143 C109 1.395 . S
C143 C113 1.391 . S
C144 C106 1.389 . S
C144 C126 1.390 . S
C145 C116 1.392 . S
C145 C118 1.389 . S
C146 C121 1.395 . S
C146 C123 1.391 . S
H147 C107 0.951 . S
H148 C108 0.950 . S
H149 C114 0.949 . S
H150 C115 0.950 . S
H151 C119 0.951 . S
H152 C120 0.950 . S
H153 C124 0.949 . S
H154 C125 0.950 . S
H155 C129 0.950 . S
H156 C131 0.950 . S
H157 C134 0.950 . S
H158 C136 0.950 . S
C159 C160 1.443 1_455 S
C159 N163 1.376 . S
C159 C197 1.389 . S
C160 C159 1.443 1_655 S
C160 C161 1.340 . S
C160 H200 0.951 . S
C161 C160 1.340 . S
C161 C162 1.439 1_655 S
C161 H201 0.950 . S
C162 C161 1.439 1_455 S
C162 N163 1.374 . S
C162 C196 1.395 . S
N163 C159 1.376 . S
N163 C162 1.374 . S
N163 Co164 2.008 . S
Co164 N163 2.008 . S
Co164 N165 1.995 . S
Co164 N170 2.008 . S
Co164 N175 1.995 . S
Co164 N180 2.282 . S
Co164 N186 2.282 . S
N165 Co164 1.995 . S
N165 C166 1.376 . S
N165 C169 1.383 . S
C166 N165 1.376 . S
C166 C167 1.446 . S
C166 C196 1.391 . S
C167 C166 1.446 . S
C167 C168 1.339 . S
C167 H202 0.949 . S
C168 C167 1.339 . S
C168 C169 1.439 . S
C168 H203 0.950 . S
C169 N165 1.383 . S
C169 C168 1.439 . S
C169 C198 1.392 . S
N170 Co164 2.008 . S
N170 C171 1.376 . S
N170 C174 1.374 . S
C171 N170 1.376 . S
C171 C172 1.443 . S
C171 C198 1.389 . S
C172 C171 1.443 . S
C172 C173 1.340 . S
C172 H204 0.951 . S
C173 C172 1.340 . S
C173 C174 1.439 . S
C173 H205 0.950 . S
C174 N170 1.374 . S
C174 C173 1.439 . S
C174 C199 1.395 . S
N175 Co164 1.995 . S
N175 C176 1.376 . S
N175 C179 1.383 . S
C176 N175 1.376 . S
C176 C177 1.446 . S
C176 C199 1.391 . S
C177 C176 1.446 . S
C177 C178 1.339 . S
C177 H206 0.949 . S
C178 C177 1.339 . S
C178 C179 1.439 . S
C178 H207 0.950 . S
C179 N175 1.383 . S
C179 C178 1.439 . S
C179 C197 1.392 . S
N180 Co164 2.282 . S
N180 C183 1.332 . S
N180 C185 1.332 . S
C181 C182 1.386 . S
C181 C184 1.388 . S
C182 C181 1.386 . S
C182 C183 1.382 . S
C182 H208 0.950 . S
C183 N180 1.332 . S
C183 C182 1.382 . S
C183 H194 0.952 . S
C184 C181 1.388 . S
C184 C185 1.382 . S
C184 H209 0.950 . S
C185 N180 1.332 . S
C185 C184 1.382 . S
C185 H195 0.948 . S
N186 Co164 2.282 . S
N186 C190 1.332 . S
N186 C191 1.332 . S
C187 C188 1.388 . S
C187 C191 1.382 . S
C187 H210 0.950 . S
C188 C187 1.388 . S
C188 C189 1.386 . S
C189 C188 1.386 . S
C189 C190 1.382 . S
C189 H211 0.950 1_455 S
C190 N186 1.332 . S
C190 C189 1.382 . S
C190 H192 0.952 . S
C191 N186 1.332 . S
C191 C187 1.382 . S
C191 H193 0.948 . S
H192 C190 0.952 . S
H193 C191 0.948 . S
H194 C183 0.952 . S
H195 C185 0.948 . S
C196 C162 1.395 . S
C196 C166 1.391 . S
C197 C159 1.389 . S
C197 C179 1.392 . S
C198 C169 1.392 . S
C198 C171 1.389 . S
C199 C174 1.395 . S
C199 C176 1.391 . S
H200 C160 0.951 . S
H201 C161 0.950 . S
H202 C167 0.949 . S
H203 C168 0.950 . S
H204 C172 0.951 . S
H205 C173 0.950 . S
H206 C177 0.949 . S
H207 C178 0.950 . S
H208 C182 0.950 . S
H209 C184 0.950 . S
H210 C187 0.950 . S
H211 C189 0.950 1_655 S
C212 C213 1.443 . S
C212 N216 1.376 1_565 S
C212 C250 1.389 . S
C213 C212 1.443 . S
C213 C214 1.340 1_565 S
C213 H253 0.951 . S
C214 C213 1.340 1_545 S
C214 C215 1.439 . S
C214 H254 0.950 . S
C215 C214 1.439 . S
C215 N216 1.374 . S
C215 C249 1.395 . S
N216 C212 1.376 1_545 S
N216 C215 1.374 . S
N216 Co217 2.008 . S
Co217 N216 2.008 . S
Co217 N218 1.995 . S
Co217 N223 2.008 1_554 S
Co217 N228 1.995 1_544 S
Co217 N233 2.282 1_554 S
Co217 N239 2.282 1_545 S
N218 Co217 1.995 . S
N218 C219 1.376 . S
N218 C222 1.383 1_554 S
C219 N218 1.376 . S
C219 C220 1.446 . S
C219 C249 1.391 . S
C220 C219 1.446 . S
C220 C221 1.339 . S
C220 H255 0.949 . S
C221 C220 1.339 . S
C221 C222 1.439 1_554 S
C221 H256 0.950 1_554 S
C222 N218 1.383 1_556 S
C222 C221 1.439 1_556 S
C222 C251 1.392 . S
N223 Co217 2.008 1_556 S
N223 C224 1.376 . S
N223 C227 1.374 1_545 S
C224 N223 1.376 . S
C224 C225 1.443 . S
C224 C251 1.389 . S
C225 C224 1.443 . S
C225 C226 1.340 . S
C225 H257 0.951 . S
C226 C225 1.340 . S
C226 C227 1.439 1_545 S
C226 H258 0.944 1_545 S
C227 N223 1.374 1_565 S
C227 C226 1.439 1_565 S
C227 C252 1.395 . S
N228 Co217 1.995 1_566 S
N228 C229 1.376 . S
N228 C232 1.383 1_556 S
C229 N228 1.376 . S
C229 C230 1.446 . S
C229 C252 1.391 . S
C230 C229 1.446 . S
C230 C231 1.339 . S
C230 H259 0.949 . S
C231 C230 1.339 . S
C231 C232 1.439 1_556 S
C231 H260 0.950 1_556 S
C232 N228 1.383 1_554 S
C232 C231 1.439 1_554 S
C232 C250 1.392 . S
N233 Co217 2.282 1_556 S
N233 C236 1.332 . S
N233 C238 1.332 . S
C234 C235 1.386 . S
C234 C237 1.388 . S
C235 C234 1.386 . S
C235 C236 1.382 . S
C235 H261 0.950 . S
C236 N233 1.332 . S
C236 C235 1.382 . S
C236 H247 0.952 . S
C237 C234 1.388 . S
C237 C238 1.382 . S
C237 H262 0.950 . S
C238 N233 1.332 . S
C238 C237 1.382 . S
C238 H248 0.948 1_556 S
N239 Co217 2.282 1_565 S
N239 C243 1.332 . S
N239 C244 1.332 . S
C240 C241 1.388 . S
C240 C244 1.382 . S
C240 H263 0.950 . S
C241 C240 1.388 . S
C241 C242 1.386 . S
C242 C241 1.386 . S
C242 C243 1.382 . S
C242 H264 0.950 . S
C243 N239 1.332 . S
C243 C242 1.382 . S
C243 H245 0.952 1_565 S
C244 N239 1.332 . S
C244 C240 1.382 . S
C244 H246 0.954 . S
H245 C243 0.952 1_545 S
H246 C244 0.954 . S
H247 C236 0.952 . S
H248 C238 0.948 1_554 S
C249 C215 1.395 . S
C249 C219 1.391 . S
C250 C212 1.389 . S
C250 C232 1.392 . S
C251 C222 1.392 . S
C251 C224 1.389 . S
C252 C227 1.395 . S
C252 C229 1.391 . S
H253 C213 0.951 . S
H254 C214 0.950 . S
H255 C220 0.949 . S
H256 C221 0.950 1_556 S
H257 C225 0.951 . S
H258 C226 0.944 1_565 S
H259 C230 0.949 . S
H260 C231 0.950 1_554 S
H261 C235 0.950 . S
H262 C237 0.950 . S
H263 C240 0.950 . S
H264 C242 0.950 . S
C265 C266 1.443 . S
C265 N269 1.376 . S
C265 C303 1.389 . S
C266 C265 1.443 . S
C266 C267 1.340 . S
C266 H306 0.951 . S
C267 C266 1.340 . S
C267 C268 1.439 . S
C267 H307 0.950 . S
C268 C267 1.439 . S
C268 N269 1.374 . S
C268 C302 1.395 . S
N269 C265 1.376 . S
N269 C268 1.374 . S
N269 Co270 2.008 . S
Co270 N269 2.008 . S
Co270 N271 1.995 . S
Co270 N276 2.008 . S
Co270 N281 1.995 . S
Co270 N286 2.282 . S
Co270 N292 2.282 . S
N271 Co270 1.995 . S
N271 C272 1.376 . S
N271 C275 1.383 . S
C272 N271 1.376 . S
C272 C273 1.446 . S
C272 C302 1.391 . S
C273 C272 1.446 . S
C273 C274 1.339 . S
C273 H308 0.949 . S
C274 C273 1.339 . S
C274 C275 1.439 . S
C274 H309 0.950 . S
C275 N271 1.383 . S
C275 C274 1.439 . S
C275 C304 1.392 . S
N276 Co270 2.008 . S
N276 C277 1.376 . S
N276 C280 1.374 . S
C277 N276 1.376 . S
C277 C278 1.443 . S
C277 C304 1.389 . S
C278 C277 1.443 . S
C278 C279 1.340 . S
C278 H310 0.951 . S
C279 C278 1.340 . S
C279 C280 1.439 . S
C279 H311 0.950 . S
C280 N276 1.374 . S
C280 C279 1.439 . S
C280 C305 1.395 . S
N281 Co270 1.995 . S
N281 C282 1.376 . S
N281 C285 1.383 . S
C282 N281 1.376 . S
C282 C283 1.446 . S
C282 C305 1.391 . S
C283 C282 1.446 . S
C283 C284 1.339 . S
C283 H312 0.949 . S
C284 C283 1.339 . S
C284 C285 1.439 . S
C284 H313 0.950 . S
C285 N281 1.383 . S
C285 C284 1.439 . S
C285 C303 1.392 . S
N286 Co270 2.282 . S
N286 C289 1.332 . S
N286 C291 1.332 . S
C287 C288 1.386 . S
C287 C290 1.388 . S
C288 C287 1.386 . S
C288 C289 1.382 . S
C288 H314 0.950 . S
C289 N286 1.332 . S
C289 C288 1.382 . S
C289 H300 0.952 . S
C290 C287 1.388 . S
C290 C291 1.382 . S
C290 H315 0.950 . S
C291 N286 1.332 . S
C291 C290 1.382 . S
C291 H301 0.948 . S
N292 Co270 2.282 . S
N292 C296 1.332 . S
N292 C297 1.332 . S
C293 C294 1.388 . S
C293 C297 1.382 . S
C293 H316 0.950 . S
C294 C293 1.388 . S
C294 C295 1.386 . S
C295 C294 1.386 . S
C295 C296 1.382 . S
C295 H317 0.950 . S
C296 N292 1.332 . S
C296 C295 1.382 . S
C296 H298 0.952 . S
C297 N292 1.332 . S
C297 C293 1.382 . S
C297 H299 0.948 . S
H298 C296 0.952 . S
H299 C297 0.948 . S
H300 C289 0.952 . S
H301 C291 0.948 . S
C302 C268 1.395 . S
C302 C272 1.391 . S
C303 C265 1.389 . S
C303 C285 1.392 . S
C304 C275 1.392 . S
C304 C277 1.389 . S
C305 C280 1.395 . S
C305 C282 1.391 . S
H306 C266 0.951 . S
H307 C267 0.950 . S
H308 C273 0.949 . S
H309 C274 0.950 . S
H310 C278 0.951 . S
H311 C279 0.950 . S
H312 C283 0.949 . S
H313 C284 0.950 . S
H314 C288 0.950 . S
H315 C290 0.950 . S
H316 C293 0.950 . S
H317 C295 0.950 . S
H318 C345 0.929 . S
N319 C344 1.433 . S
N319 C350 1.435 . S
N319 C356 1.423 . S
H320 C346 0.930 . S
H321 C349 0.931 . S
H322 C348 0.929 . S
H323 C351 0.930 . S
H324 C352 0.932 . S
H325 C355 0.929 . S
H326 C354 0.931 . S
H327 C357 0.929 . S
H328 C361 0.932 . S
H329 C358 0.931 . S
H330 C360 0.929 . S
H331 C363 0.929 . S
H332 C364 0.930 . S
H333 C366 0.929 . S
H334 C367 0.931 . S
H335 C369 0.930 . S
H336 C370 0.932 . S
H337 C372 0.931 . S
H338 C373 0.929 . S
H339 C375 0.929 . S
H340 C376 0.931 . S
H341 C378 0.929 . S
N342 C362 1.433 . S
N342 C368 1.435 . S
N342 C374 1.423 . S
H343 C379 0.932 . S
C344 N319 1.433 . S
C344 C345 1.363 . S
C344 C349 1.370 . S
C345 H318 0.929 . S
C345 C344 1.363 . S
C345 C346 1.385 . S
C346 H320 0.930 . S
C346 C345 1.385 . S
C346 C347 1.357 . S
C347 C346 1.357 . S
C347 C348 1.406 . S
C348 H322 0.929 . S
C348 C347 1.406 . S
C348 C349 1.391 . S
C349 H321 0.931 . S
C349 C344 1.370 . S
C349 C348 1.391 . S
C350 N319 1.435 . S
C350 C351 1.358 . S
C350 C355 1.371 . S
C351 H323 0.930 . S
C351 C350 1.358 . S
C351 C352 1.405 . S
C352 H324 0.932 . S
C352 C351 1.405 . S
C352 C353 1.383 . S
C353 C352 1.383 . S
C353 C354 1.393 . S
C354 H326 0.931 . S
C354 C353 1.393 . S
C354 C355 1.382 . S
C355 H325 0.929 . S
C355 C350 1.371 . S
C355 C354 1.382 . S
C356 N319 1.423 . S
C356 C357 1.362 . S
C356 C361 1.388 . S
C357 H327 0.929 . S
C357 C356 1.362 . S
C357 C358 1.376 . S
C358 H329 0.931 . S
C358 C357 1.376 . S
C358 C359 1.396 . S
C359 C358 1.396 . S
C359 C360 1.348 . S
C359 C377 1.472 . S
C360 H330 0.929 . S
C360 C359 1.348 . S
C360 C361 1.443 . S
C361 H328 0.932 . S
C361 C356 1.388 . S
C361 C360 1.443 . S
C362 N342 1.433 . S
C362 C363 1.363 . S
C362 C367 1.370 . S
C363 H331 0.929 . S
C363 C362 1.363 . S
C363 C364 1.385 . S
C364 H332 0.930 . S
C364 C363 1.385 . S
C364 C365 1.357 . S
C365 C364 1.357 . S
C365 C366 1.406 . S
C366 H333 0.929 . S
C366 C365 1.406 . S
C366 C367 1.391 . S
C367 H334 0.931 . S
C367 C362 1.370 . S
C367 C366 1.391 . S
C368 N342 1.435 . S
C368 C369 1.358 . S
C368 C373 1.371 . S
C369 H335 0.930 . S
C369 C368 1.358 . S
C369 C370 1.405 . S
C370 H336 0.932 . S
C370 C369 1.405 . S
C370 C371 1.383 . S
C371 C370 1.383 . S
C371 C372 1.393 . S
C372 H337 0.931 . S
C372 C371 1.393 . S
C372 C373 1.382 . S
C373 H338 0.929 . S
C373 C368 1.371 . S
C373 C372 1.382 . S
C374 N342 1.423 . S
C374 C375 1.362 . S
C374 C379 1.388 . S
C375 H339 0.929 . S
C375 C374 1.362 . S
C375 C376 1.376 . S
C376 H340 0.931 . S
C376 C375 1.376 . S
C376 C377 1.396 . S
C377 C359 1.472 . S
C377 C376 1.396 . S
C377 C378 1.348 . S
C378 H341 0.929 . S
C378 C377 1.348 . S
C378 C379 1.443 . S
C379 H343 0.932 . S
C379 C374 1.388 . S
C379 C378 1.443 . S
H380 C407 0.929 . S
N381 C406 1.433 . S
N381 C412 1.435 . S
N381 C418 1.423 . S
H382 C408 0.930 . S
H383 C411 0.931 . S
H384 C410 0.929 . S
H385 C413 0.930 . S
H386 C414 0.932 . S
H387 C417 0.929 . S
H388 C416 0.931 . S
H389 C419 0.929 . S
H390 C423 0.932 . S
H391 C420 0.931 . S
H392 C422 0.929 . S
H393 C425 0.929 . S
H394 C426 0.930 . S
H395 C428 0.929 . S
H396 C429 0.931 . S
H397 C431 0.930 . S
H398 C432 0.932 . S
H399 C434 0.931 . S
H400 C435 0.929 . S
H401 C437 0.929 . S
H402 C438 0.931 . S
H403 C440 0.929 . S
N404 C424 1.433 . S
N404 C430 1.435 . S
N404 C436 1.423 . S
H405 C441 0.932 . S
C406 N381 1.433 . S
C406 C407 1.363 . S
C406 C411 1.370 . S
C407 H380 0.929 . S
C407 C406 1.363 . S
C407 C408 1.385 . S
C408 H382 0.930 . S
C408 C407 1.385 . S
C408 C409 1.357 . S
C409 C408 1.357 . S
C409 C410 1.406 . S
C410 H384 0.929 . S
C410 C409 1.406 . S
C410 C411 1.391 . S
C411 H383 0.931 . S
C411 C406 1.370 . S
C411 C410 1.391 . S
C412 N381 1.435 . S
C412 C413 1.358 . S
C412 C417 1.371 . S
C413 H385 0.930 . S
C413 C412 1.358 . S
C413 C414 1.405 . S
C414 H386 0.932 . S
C414 C413 1.405 . S
C414 C415 1.383 . S
C415 C414 1.383 . S
C415 C416 1.393 . S
C416 H388 0.931 . S
C416 C415 1.393 . S
C416 C417 1.382 . S
C417 H387 0.929 . S
C417 C412 1.371 . S
C417 C416 1.382 . S
C418 N381 1.423 . S
C418 C419 1.362 . S
C418 C423 1.388 . S
C419 H389 0.929 . S
C419 C418 1.362 . S
C419 C420 1.376 . S
C420 H391 0.931 . S
C420 C419 1.376 . S
C420 C421 1.396 . S
C421 C420 1.396 . S
C421 C422 1.348 . S
C421 C439 1.472 . S
C422 H392 0.929 . S
C422 C421 1.348 . S
C422 C423 1.443 . S
C423 H390 0.932 . S
C423 C418 1.388 . S
C423 C422 1.443 . S
C424 N404 1.433 . S
C424 C425 1.363 . S
C424 C429 1.370 . S
C425 H393 0.929 . S
C425 C424 1.363 . S
C425 C426 1.385 . S
C426 H394 0.930 . S
C426 C425 1.385 . S
C426 C427 1.357 . S
C427 C426 1.357 . S
C427 C428 1.406 . S
C428 H395 0.929 . S
C428 C427 1.406 . S
C428 C429 1.391 . S
C429 H396 0.931 . S
C429 C424 1.370 . S
C429 C428 1.391 . S
C430 N404 1.435 . S
C430 C431 1.358 . S
C430 C435 1.371 . S
C431 H397 0.930 . S
C431 C430 1.358 . S
C431 C432 1.405 . S
C432 H398 0.932 . S
C432 C431 1.405 . S
C432 C433 1.383 . S
C433 C432 1.383 . S
C433 C434 1.393 . S
C434 H399 0.931 . S
C434 C433 1.393 . S
C434 C435 1.382 . S
C435 H400 0.929 . S
C435 C430 1.371 . S
C435 C434 1.382 . S
C436 N404 1.423 . S
C436 C437 1.362 . S
C436 C441 1.388 . S
C437 H401 0.929 . S
C437 C436 1.362 . S
C437 C438 1.376 . S
C438 H402 0.931 . S
C438 C437 1.376 . S
C438 C439 1.396 . S
C439 C421 1.472 . S
C439 C438 1.396 . S
C439 C440 1.348 . S
C440 H403 0.929 . S
C440 C439 1.348 . S
C440 C441 1.443 . S
C441 H405 0.932 . S
C441 C436 1.388 . S
C441 C440 1.443 . S
H442 C469 0.929 . S
N443 C468 1.433 . S
N443 C474 1.435 . S
N443 C480 1.423 . S
H444 C470 0.930 . S
H445 C473 0.931 . S
H446 C472 0.929 . S
H447 C475 0.930 . S
H448 C476 0.932 . S
H449 C479 0.929 . S
H450 C478 0.931 . S
H451 C481 0.929 . S
H452 C485 0.932 . S
H453 C482 0.931 . S
H454 C484 0.929 . S
H455 C487 0.929 . S
H456 C488 0.930 . S
H457 C490 0.929 . S
H458 C491 0.931 . S
H459 C493 0.930 . S
H460 C494 0.932 . S
H461 C496 0.931 . S
H462 C497 0.929 . S
H463 C499 0.929 . S
H464 C500 0.931 . S
H465 C502 0.929 . S
N466 C486 1.433 . S
N466 C492 1.435 . S
N466 C498 1.423 . S
H467 C503 0.932 . S
C468 N443 1.433 . S
C468 C469 1.363 . S
C468 C473 1.370 . S
C469 H442 0.929 . S
C469 C468 1.363 . S
C469 C470 1.385 . S
C470 H444 0.930 . S
C470 C469 1.385 . S
C470 C471 1.357 . S
C471 C470 1.357 . S
C471 C472 1.406 . S
C472 H446 0.929 . S
C472 C471 1.406 . S
C472 C473 1.391 . S
C473 H445 0.931 . S
C473 C468 1.370 . S
C473 C472 1.391 . S
C474 N443 1.435 . S
C474 C475 1.358 . S
C474 C479 1.371 . S
C475 H447 0.930 . S
C475 C474 1.358 . S
C475 C476 1.405 . S
C476 H448 0.932 . S
C476 C475 1.405 . S
C476 C477 1.383 . S
C477 C476 1.383 . S
C477 C478 1.393 . S
C478 H450 0.931 . S
C478 C477 1.393 . S
C478 C479 1.382 . S
C479 H449 0.929 . S
C479 C474 1.371 . S
C479 C478 1.382 . S
C480 N443 1.423 . S
C480 C481 1.362 . S
C480 C485 1.388 . S
C481 H451 0.929 . S
C481 C480 1.362 . S
C481 C482 1.376 . S
C482 H453 0.931 . S
C482 C481 1.376 . S
C482 C483 1.396 . S
C483 C482 1.396 . S
C483 C484 1.348 . S
C483 C501 1.472 . S
C484 H454 0.929 . S
C484 C483 1.348 . S
C484 C485 1.443 . S
C485 H452 0.932 . S
C485 C480 1.388 . S
C485 C484 1.443 . S
C486 N466 1.433 . S
C486 C487 1.363 . S
C486 C491 1.370 . S
C487 H455 0.929 . S
C487 C486 1.363 . S
C487 C488 1.385 . S
C488 H456 0.930 . S
C488 C487 1.385 . S
C488 C489 1.357 . S
C489 C488 1.357 . S
C489 C490 1.406 . S
C490 H457 0.929 . S
C490 C489 1.406 . S
C490 C491 1.391 . S
C491 H458 0.931 . S
C491 C486 1.370 . S
C491 C490 1.391 . S
C492 N466 1.435 . S
C492 C493 1.358 . S
C492 C497 1.371 . S
C493 H459 0.930 . S
C493 C492 1.358 . S
C493 C494 1.405 . S
C494 H460 0.932 . S
C494 C493 1.405 . S
C494 C495 1.383 . S
C495 C494 1.383 . S
C495 C496 1.393 . S
C496 H461 0.931 . S
C496 C495 1.393 . S
C496 C497 1.382 . S
C497 H462 0.929 . S
C497 C492 1.371 . S
C497 C496 1.382 . S
C498 N466 1.423 . S
C498 C499 1.362 . S
C498 C503 1.388 . S
C499 H463 0.929 . S
C499 C498 1.362 . S
C499 C500 1.376 . S
C500 H464 0.931 . S
C500 C499 1.376 . S
C500 C501 1.396 . S
C501 C483 1.472 . S
C501 C500 1.396 . S
C501 C502 1.348 . S
C502 H465 0.929 . S
C502 C501 1.348 . S
C502 C503 1.443 . S
C503 H467 0.932 . S
C503 C498 1.388 . S
C503 C502 1.443 . S
H504 C531 0.929 . S
N505 C530 1.433 . S
N505 C536 1.435 . S
N505 C542 1.423 . S
H506 C532 0.930 . S
H507 C535 0.931 . S
H508 C534 0.929 . S
H509 C537 0.930 . S
H510 C538 0.932 . S
H511 C541 0.929 . S
H512 C540 0.931 . S
H513 C543 0.929 . S
H514 C547 0.932 . S
H515 C544 0.931 . S
H516 C546 0.929 . S
H517 C549 0.929 . S
H518 C550 0.930 . S
H519 C552 0.929 . S
H520 C553 0.931 . S
H521 C555 0.930 . S
H522 C556 0.932 . S
H523 C558 0.931 . S
H524 C559 0.929 . S
H525 C561 0.929 . S
H526 C562 0.931 . S
H527 C564 0.929 . S
N528 C548 1.433 . S
N528 C554 1.435 . S
N528 C560 1.423 . S
H529 C565 0.932 . S
C530 N505 1.433 . S
C530 C531 1.363 . S
C530 C535 1.370 . S
C531 H504 0.929 . S
C531 C530 1.363 . S
C531 C532 1.385 . S
C532 H506 0.930 . S
C532 C531 1.385 . S
C532 C533 1.357 . S
C533 C532 1.357 . S
C533 C534 1.406 . S
C534 H508 0.929 . S
C534 C533 1.406 . S
C534 C535 1.391 . S
C535 H507 0.931 . S
C535 C530 1.370 . S
C535 C534 1.391 . S
C536 N505 1.435 . S
C536 C537 1.358 . S
C536 C541 1.371 . S
C537 H509 0.930 . S
C537 C536 1.358 . S
C537 C538 1.405 . S
C538 H510 0.932 . S
C538 C537 1.405 . S
C538 C539 1.383 . S
C539 C538 1.383 . S
C539 C540 1.393 . S
C540 H512 0.931 . S
C540 C539 1.393 . S
C540 C541 1.382 . S
C541 H511 0.929 . S
C541 C536 1.371 . S
C541 C540 1.382 . S
C542 N505 1.423 . S
C542 C543 1.362 . S
C542 C547 1.388 . S
C543 H513 0.929 . S
C543 C542 1.362 . S
C543 C544 1.376 . S
C544 H515 0.931 . S
C544 C543 1.376 . S
C544 C545 1.396 . S
C545 C544 1.396 . S
C545 C546 1.348 . S
C545 C563 1.472 . S
C546 H516 0.929 . S
C546 C545 1.348 . S
C546 C547 1.443 . S
C547 H514 0.932 . S
C547 C542 1.388 . S
C547 C546 1.443 . S
C548 N528 1.433 . S
C548 C549 1.363 . S
C548 C553 1.370 . S
C549 H517 0.929 . S
C549 C548 1.363 . S
C549 C550 1.385 . S
C550 H518 0.930 . S
C550 C549 1.385 . S
C550 C551 1.357 . S
C551 C550 1.357 . S
C551 C552 1.406 . S
C552 H519 0.929 . S
C552 C551 1.406 . S
C552 C553 1.391 . S
C553 H520 0.931 . S
C553 C548 1.370 . S
C553 C552 1.391 . S
C554 N528 1.435 . S
C554 C555 1.358 . S
C554 C559 1.371 . S
C555 H521 0.930 . S
C555 C554 1.358 . S
C555 C556 1.405 . S
C556 H522 0.932 . S
C556 C555 1.405 . S
C556 C557 1.383 . S
C557 C556 1.383 . S
C557 C558 1.393 . S
C558 H523 0.931 . S
C558 C557 1.393 . S
C558 C559 1.382 . S
C559 H524 0.929 . S
C559 C554 1.371 . S
C559 C558 1.382 . S
C560 N528 1.423 . S
C560 C561 1.362 . S
C560 C565 1.388 . S
C561 H525 0.929 . S
C561 C560 1.362 . S
C561 C562 1.376 . S
C562 H526 0.931 . S
C562 C561 1.376 . S
C562 C563 1.396 . S
C563 C545 1.472 . S
C563 C562 1.396 . S
C563 C564 1.348 . S
C564 H527 0.929 . S
C564 C563 1.348 . S
C564 C565 1.443 . S
C565 H529 0.932 . S
C565 C560 1.388 . S
C565 C564 1.443 . S
H566 C593 0.929 . S
N567 C592 1.433 . S
N567 C598 1.435 . S
N567 C604 1.423 . S
H568 C594 0.930 . S
H569 C597 0.931 . S
H570 C596 0.929 . S
H571 C599 0.930 . S
H572 C600 0.932 . S
H573 C603 0.929 . S
H574 C602 0.931 . S
H575 C605 0.929 . S
H576 C609 0.932 . S
H577 C606 0.931 . S
H578 C608 0.929 . S
H579 C611 0.929 . S
H580 C612 0.930 . S
H581 C614 0.929 . S
H582 C615 0.931 . S
H583 C617 0.930 . S
H584 C618 0.932 . S
H585 C620 0.931 . S
H586 C621 0.929 . S
H587 C623 0.929 . S
H588 C624 0.931 . S
H589 C626 0.929 . S
N590 C610 1.433 . S
N590 C616 1.435 . S
N590 C622 1.423 . S
H591 C627 0.932 . S
C592 N567 1.433 . S
C592 C593 1.363 . S
C592 C597 1.370 . S
C593 H566 0.929 . S
C593 C592 1.363 . S
C593 C594 1.385 . S
C594 H568 0.930 . S
C594 C593 1.385 . S
C594 C595 1.357 . S
C595 C594 1.357 . S
C595 C596 1.406 . S
C596 H570 0.929 . S
C596 C595 1.406 . S
C596 C597 1.391 . S
C597 H569 0.931 . S
C597 C592 1.370 . S
C597 C596 1.391 . S
C598 N567 1.435 . S
C598 C599 1.358 . S
C598 C603 1.371 . S
C599 H571 0.930 . S
C599 C598 1.358 . S
C599 C600 1.405 . S
C600 H572 0.932 . S
C600 C599 1.405 . S
C600 C601 1.383 . S
C601 C600 1.383 . S
C601 C602 1.393 . S
C602 H574 0.931 . S
C602 C601 1.393 . S
C602 C603 1.382 . S
C603 H573 0.929 . S
C603 C598 1.371 . S
C603 C602 1.382 . S
C604 N567 1.423 . S
C604 C605 1.362 . S
C604 C609 1.388 . S
C605 H575 0.929 . S
C605 C604 1.362 . S
C605 C606 1.376 . S
C606 H577 0.931 . S
C606 C605 1.376 . S
C606 C607 1.396 . S
C607 C606 1.396 . S
C607 C608 1.348 . S
C607 C625 1.472 . S
C608 H578 0.929 . S
C608 C607 1.348 . S
C608 C609 1.443 . S
C609 H576 0.932 . S
C609 C604 1.388 . S
C609 C608 1.443 . S
C610 N590 1.433 . S
C610 C611 1.363 . S
C610 C615 1.370 . S
C611 H579 0.929 . S
C611 C610 1.363 . S
C611 C612 1.385 . S
C612 H580 0.930 . S
C612 C611 1.385 . S
C612 C613 1.357 . S
C613 C612 1.357 . S
C613 C614 1.406 . S
C614 H581 0.929 . S
C614 C613 1.406 . S
C614 C615 1.391 . S
C615 H582 0.931 . S
C615 C610 1.370 . S
C615 C614 1.391 . S
C616 N590 1.435 . S
C616 C617 1.358 . S
C616 C621 1.371 . S
C617 H583 0.930 . S
C617 C616 1.358 . S
C617 C618 1.405 . S
C618 H584 0.932 . S
C618 C617 1.405 . S
C618 C619 1.383 . S
C619 C618 1.383 . S
C619 C620 1.393 . S
C620 H585 0.931 . S
C620 C619 1.393 . S
C620 C621 1.382 . S
C621 H586 0.929 . S
C621 C616 1.371 . S
C621 C620 1.382 . S
C622 N590 1.423 . S
C622 C623 1.362 . S
C622 C627 1.388 . S
C623 H587 0.929 . S
C623 C622 1.362 . S
C623 C624 1.376 . S
C624 H588 0.931 . S
C624 C623 1.376 . S
C624 C625 1.396 . S
C625 C607 1.472 . S
C625 C624 1.396 . S
C625 C626 1.348 . S
C626 H589 0.929 . S
C626 C625 1.348 . S
C626 C627 1.443 . S
C627 H591 0.932 . S
C627 C622 1.388 . S
C627 C626 1.443 . S
H628 C655 0.929 . S
N629 C654 1.433 . S
N629 C660 1.435 . S
N629 C666 1.423 . S
H630 C656 0.930 . S
H631 C659 0.931 . S
H632 C658 0.929 . S
H633 C661 0.930 . S
H634 C662 0.932 . S
H635 C665 0.929 . S
H636 C664 0.931 . S
H637 C667 0.929 . S
H638 C671 0.932 . S
H639 C668 0.931 . S
H640 C670 0.929 . S
H641 C673 0.929 . S
H642 C674 0.930 . S
H643 C676 0.929 . S
H644 C677 0.931 . S
H645 C679 0.930 . S
H646 C680 0.932 . S
H647 C682 0.931 . S
H648 C683 0.929 . S
H649 C685 0.929 . S
H650 C686 0.931 . S
H651 C688 0.929 . S
N652 C672 1.433 . S
N652 C678 1.435 . S
N652 C684 1.423 . S
H653 C689 0.932 . S
C654 N629 1.433 . S
C654 C655 1.363 . S
C654 C659 1.370 . S
C655 H628 0.929 . S
C655 C654 1.363 . S
C655 C656 1.385 . S
C656 H630 0.930 . S
C656 C655 1.385 . S
C656 C657 1.357 . S
C657 C656 1.357 . S
C657 C658 1.406 . S
C658 H632 0.929 . S
C658 C657 1.406 . S
C658 C659 1.391 . S
C659 H631 0.931 . S
C659 C654 1.370 . S
C659 C658 1.391 . S
C660 N629 1.435 . S
C660 C661 1.358 . S
C660 C665 1.371 . S
C661 H633 0.930 . S
C661 C660 1.358 . S
C661 C662 1.405 . S
C662 H634 0.932 . S
C662 C661 1.405 . S
C662 C663 1.383 . S
C663 C662 1.383 . S
C663 C664 1.393 . S
C664 H636 0.931 . S
C664 C663 1.393 . S
C664 C665 1.382 . S
C665 H635 0.929 . S
C665 C660 1.371 . S
C665 C664 1.382 . S
C666 N629 1.423 . S
C666 C667 1.362 . S
C666 C671 1.388 . S
C667 H637 0.929 . S
C667 C666 1.362 . S
C667 C668 1.376 . S
C668 H639 0.931 . S
C668 C667 1.376 . S
C668 C669 1.396 . S
C669 C668 1.396 . S
C669 C670 1.348 . S
C669 C687 1.472 . S
C670 H640 0.929 . S
C670 C669 1.348 . S
C670 C671 1.443 . S
C671 H638 0.932 . S
C671 C666 1.388 . S
C671 C670 1.443 . S
C672 N652 1.433 . S
C672 C673 1.363 . S
C672 C677 1.370 . S
C673 H641 0.929 . S
C673 C672 1.363 . S
C673 C674 1.385 . S
C674 H642 0.930 . S
C674 C673 1.385 . S
C674 C675 1.357 . S
C675 C674 1.357 . S
C675 C676 1.406 . S
C676 H643 0.929 . S
C676 C675 1.406 . S
C676 C677 1.391 . S
C677 H644 0.931 . S
C677 C672 1.370 . S
C677 C676 1.391 . S
C678 N652 1.435 . S
C678 C679 1.358 . S
C678 C683 1.371 . S
C679 H645 0.930 . S
C679 C678 1.358 . S
C679 C680 1.405 . S
C680 H646 0.932 . S
C680 C679 1.405 . S
C680 C681 1.383 . S
C681 C680 1.383 . S
C681 C682 1.393 . S
C682 H647 0.931 . S
C682 C681 1.393 . S
C682 C683 1.382 . S
C683 H648 0.929 . S
C683 C678 1.371 . S
C683 C682 1.382 . S
C684 N652 1.423 . S
C684 C685 1.362 . S
C684 C689 1.388 . S
C685 H649 0.929 . S
C685 C684 1.362 . S
C685 C686 1.376 . S
C686 H650 0.931 . S
C686 C685 1.376 . S
C686 C687 1.396 . S
C687 C669 1.472 . S
C687 C686 1.396 . S
C687 C688 1.348 . S
C688 H651 0.929 . S
C688 C687 1.348 . S
C688 C689 1.443 . S
C689 H653 0.932 . S
C689 C684 1.388 . S
C689 C688 1.443 . S
H690 C696 0.930 . S
H691 C700 0.930 . S
H692 C705 0.929 . S
H693 C703 0.929 . S
H694 C698 0.929 . S
H695 C704 0.929 . S
C696 H690 0.930 . S
C696 C697 1.367 . S
C696 C704 1.378 . S
C697 C696 1.367 . S
C697 C705 1.433 . S
C698 H694 0.929 . S
C698 C700 1.378 . S
C698 C702 1.350 . S
C699 C702 1.463 . S
C699 C704 1.350 . S
C699 N707 1.427 . S
C700 H691 0.930 . S
C700 C698 1.378 . S
C700 C701 1.367 . S
C701 C700 1.367 . S
C701 C703 1.433 . S
C702 C698 1.350 . S
C702 C699 1.463 . S
C702 N706 1.427 . S
C703 H693 0.929 . S
C703 C701 1.433 . S
C703 N706 1.384 . S
C704 H695 0.929 . S
C704 C696 1.378 . S
C704 C699 1.350 . S
C705 H692 0.929 . S
C705 C697 1.433 . S
C705 N707 1.384 . S
N706 C702 1.427 . S
N706 C703 1.384 . S
N707 C699 1.427 . S
N707 C705 1.384 . S
H708 C714 0.930 . S
H709 C718 0.930 . S
H710 C723 0.929 . S
H711 C721 0.929 . S
H712 C716 0.929 . S
H713 C722 0.929 . S
C714 H708 0.930 . S
C714 C715 1.367 . S
C714 C722 1.378 . S
C715 C714 1.367 . S
C715 C723 1.433 . S
C716 H712 0.929 . S
C716 C718 1.378 . S
C716 C720 1.350 . S
C717 C720 1.463 . S
C717 C722 1.350 . S
C717 N725 1.427 . S
C718 H709 0.930 . S
C718 C716 1.378 . S
C718 C719 1.367 . S
C719 C718 1.367 . S
C719 C721 1.433 . S
C720 C716 1.350 . S
C720 C717 1.463 . S
C720 N724 1.427 . S
C721 H711 0.929 . S
C721 C719 1.433 . S
C721 N724 1.384 . S
C722 H713 0.929 . S
C722 C714 1.378 . S
C722 C717 1.350 . S
C723 H710 0.929 . S
C723 C715 1.433 . S
C723 N725 1.384 . S
N724 C720 1.427 . S
N724 C721 1.384 . S
N725 C717 1.427 . S
N725 C723 1.384 . S
H726 C732 0.930 . S
H727 C736 0.930 . S
H728 C741 0.929 . S
H729 C739 0.929 . S
H730 C734 0.929 . S
H731 C740 0.929 . S
C732 H726 0.930 . S
C732 C733 1.367 . S
C732 C740 1.378 . S
C733 C732 1.367 . S
C733 C741 1.433 . S
C734 H730 0.929 . S
C734 C736 1.378 . S
C734 C738 1.350 . S
C735 C738 1.463 . S
C735 C740 1.350 . S
C735 N743 1.427 . S
C736 H727 0.930 . S
C736 C734 1.378 . S
C736 C737 1.367 . S
C737 C736 1.367 . S
C737 C739 1.433 . S
C738 C734 1.350 . S
C738 C735 1.463 . S
C738 N742 1.427 . S
C739 H729 0.929 . S
C739 C737 1.433 . S
C739 N742 1.384 . S
C740 H731 0.929 . S
C740 C732 1.378 . S
C740 C735 1.350 . S
C741 H728 0.929 . S
C741 C733 1.433 . S
C741 N743 1.384 . S
N742 C738 1.427 . S
N742 C739 1.384 . S
N743 C735 1.427 . S
N743 C741 1.384 . S
H744 C750 0.930 . S
H745 C754 0.930 . S
H746 C759 0.929 . S
H747 C757 0.929 . S
H748 C752 0.929 . S
H749 C758 0.929 . S
C750 H744 0.930 . S
C750 C751 1.367 . S
C750 C758 1.378 . S
C751 C750 1.367 . S
C751 C759 1.433 . S
C752 H748 0.929 . S
C752 C754 1.378 . S
C752 C756 1.350 . S
C753 C756 1.463 . S
C753 C758 1.350 . S
C753 N761 1.427 . S
C754 H745 0.930 . S
C754 C752 1.378 . S
C754 C755 1.367 . S
C755 C754 1.367 . S
C755 C757 1.433 . S
C756 C752 1.350 . S
C756 C753 1.463 . S
C756 N760 1.427 . S
C757 H747 0.929 . S
C757 C755 1.433 . S
C757 N760 1.384 . S
C758 H749 0.929 . S
C758 C750 1.378 . S
C758 C753 1.350 . S
C759 H746 0.929 . S
C759 C751 1.433 . S
C759 N761 1.384 . S
N760 C756 1.427 . S
N760 C757 1.384 . S
N761 C753 1.427 . S
N761 C759 1.384 . S
H762 C768 0.930 . S
H763 C772 0.930 . S
H764 C777 0.929 . S
H765 C775 0.929 . S
H766 C770 0.929 . S
H767 C776 0.929 . S
C768 H762 0.930 . S
C768 C769 1.367 . S
C768 C776 1.378 . S
C769 C768 1.367 . S
C769 C777 1.433 . S
C770 H766 0.929 . S
C770 C772 1.378 . S
C770 C774 1.350 . S
C771 C774 1.463 . S
C771 C776 1.350 . S
C771 N779 1.427 . S
C772 H763 0.930 . S
C772 C770 1.378 . S
C772 C773 1.367 . S
C773 C772 1.367 . S
C773 C775 1.433 . S
C774 C770 1.350 . S
C774 C771 1.463 . S
C774 N778 1.427 . S
C775 H765 0.929 . S
C775 C773 1.433 . S
C775 N778 1.384 . S
C776 H767 0.929 . S
C776 C768 1.378 . S
C776 C771 1.350 . S
C777 H764 0.929 . S
C777 C769 1.433 . S
C777 N779 1.384 . S
N778 C774 1.427 . S
N778 C775 1.384 . S
N779 C771 1.427 . S
N779 C777 1.384 . S
H780 C786 0.930 . S
H781 C790 0.930 . S
H782 C795 0.929 . S
H783 C793 0.929 . S
H784 C788 0.929 . S
H785 C794 0.929 . S
C786 H780 0.930 . S
C786 C787 1.367 . S
C786 C794 1.378 . S
C787 C786 1.367 . S
C787 C795 1.433 . S
C788 H784 0.929 . S
C788 C790 1.378 . S
C788 C792 1.350 . S
C789 C792 1.463 . S
C789 C794 1.350 . S
C789 N797 1.427 . S
C790 H781 0.930 . S
C790 C788 1.378 . S
C790 C791 1.367 . S
C791 C790 1.367 . S
C791 C793 1.433 . S
C792 C788 1.350 . S
C792 C789 1.463 . S
C792 N796 1.427 . S
C793 H783 0.929 . S
C793 C791 1.433 . S
C793 N796 1.384 . S
C794 H785 0.929 . S
C794 C786 1.378 . S
C794 C789 1.350 . S
C795 H782 0.929 . S
C795 C787 1.433 . S
C795 N797 1.384 . S
N796 C792 1.427 . S
N796 C793 1.384 . S
N797 C789 1.427 . S
N797 C795 1.384 . S
H798 C804 0.930 . S
H799 C808 0.930 . S
H800 C813 0.929 . S
H801 C811 0.929 . S
H802 C806 0.929 . S
H803 C812 0.929 . S
C804 H798 0.930 . S
C804 C805 1.367 . S
C804 C812 1.378 . S
C805 C804 1.367 . S
C805 C813 1.433 . S
C806 H802 0.929 . S
C806 C808 1.378 . S
C806 C810 1.350 . S
C807 C810 1.463 . S
C807 C812 1.350 . S
C807 N815 1.427 . S
C808 H799 0.930 . S
C808 C806 1.378 . S
C808 C809 1.367 . S
C809 C808 1.367 . S
C809 C811 1.433 . S
C810 C806 1.350 . S
C810 C807 1.463 . S
C810 N814 1.427 . S
C811 H801 0.929 . S
C811 C809 1.433 . S
C811 N814 1.384 . S
C812 H803 0.929 . S
C812 C804 1.378 . S
C812 C807 1.350 . S
C813 H800 0.929 . S
C813 C805 1.433 . S
C813 N815 1.384 . S
N814 C810 1.427 . S
N814 C811 1.384 . S
N815 C807 1.427 . S
N815 C813 1.384 . S
H816 C822 0.930 . S
H817 C826 0.930 . S
H818 C831 0.929 . S
H819 C829 0.929 . S
H820 C824 0.929 . S
H821 C830 0.929 . S
C822 H816 0.930 . S
C822 C823 1.367 . S
C822 C830 1.378 . S
C823 C822 1.367 . S
C823 C831 1.433 . S
C824 H820 0.929 . S
C824 C826 1.378 . S
C824 C828 1.350 . S
C825 C828 1.463 . S
C825 C830 1.350 . S
C825 N833 1.427 . S
C826 H817 0.930 . S
C826 C824 1.378 . S
C826 C827 1.367 . S
C827 C826 1.367 . S
C827 C829 1.433 . S
C828 C824 1.350 . S
C828 C825 1.463 . S
C828 N832 1.427 . S
C829 H819 0.929 . S
C829 C827 1.433 . S
C829 N832 1.384 . S
C830 H821 0.929 . S
C830 C822 1.378 . S
C830 C825 1.350 . S
C831 H818 0.929 . S
C831 C823 1.433 . S
C831 N833 1.384 . S
N832 C828 1.427 . S
N832 C829 1.384 . S
N833 C825 1.427 . S
N833 C831 1.384 . S
H834 C840 0.930 . S
H835 C844 0.930 . S
H836 C849 0.929 . S
H837 C847 0.929 . S
H838 C842 0.929 . S
H839 C848 0.929 . S
C840 H834 0.930 . S
C840 C841 1.367 . S
C840 C848 1.378 . S
C841 C840 1.367 . S
C841 C849 1.433 . S
C842 H838 0.929 . S
C842 C844 1.378 . S
C842 C846 1.350 . S
C843 C846 1.463 . S
C843 C848 1.350 . S
C843 N851 1.427 . S
C844 H835 0.930 . S
C844 C842 1.378 . S
C844 C845 1.367 . S
C845 C844 1.367 . S
C845 C847 1.433 . S
C846 C842 1.350 . S
C846 C843 1.463 . S
C846 N850 1.427 . S
C847 H837 0.929 . S
C847 C845 1.433 . S
C847 N850 1.384 . S
C848 H839 0.929 . S
C848 C840 1.378 . S
C848 C843 1.350 . S
C849 H836 0.929 . S
C849 C841 1.433 . S
C849 N851 1.384 . S
N850 C846 1.427 . S
N850 C847 1.384 . S
N851 C843 1.427 . S
N851 C849 1.384 . S
H852 C858 0.930 . S
H853 C862 0.930 . S
H854 C867 0.929 . S
H855 C865 0.929 . S
H856 C860 0.929 . S
H857 C866 0.929 . S
C858 H852 0.930 . S
C858 C859 1.367 . S
C858 C866 1.378 . S
C859 C858 1.367 . S
C859 C867 1.433 . S
C860 H856 0.929 . S
C860 C862 1.378 . S
C860 C864 1.350 . S
C861 C864 1.463 . S
C861 C866 1.350 . S
C861 N869 1.427 . S
C862 H853 0.930 . S
C862 C860 1.378 . S
C862 C863 1.367 . S
C863 C862 1.367 . S
C863 C865 1.433 . S
C864 C860 1.350 . S
C864 C861 1.463 . S
C864 N868 1.427 . S
C865 H855 0.929 . S
C865 C863 1.433 . S
C865 N868 1.384 . S
C866 H857 0.929 . S
C866 C858 1.378 . S
C866 C861 1.350 . S
C867 H854 0.929 . S
C867 C859 1.433 . S
C867 N869 1.384 . S
N868 C864 1.427 . S
N868 C865 1.384 . S
N869 C861 1.427 . S
N869 C867 1.384 . S
H870 C876 0.930 . S
H871 C880 0.930 . S
H872 C885 0.929 . S
H873 C883 0.929 . S
H874 C878 0.929 . S
H875 C884 0.929 . S
C876 H870 0.930 . S
C876 C877 1.367 . S
C876 C884 1.378 . S
C877 C876 1.367 . S
C877 C885 1.433 . S
C878 H874 0.929 . S
C878 C880 1.378 . S
C878 C882 1.350 . S
C879 C882 1.463 . S
C879 C884 1.350 . S
C879 N887 1.427 . S
C880 H871 0.930 . S
C880 C878 1.378 . S
C880 C881 1.367 . S
C881 C880 1.367 . S
C881 C883 1.433 . S
C882 C878 1.350 . S
C882 C879 1.463 . S
C882 N886 1.427 . S
C883 H873 0.929 . S
C883 C881 1.433 . S
C883 N886 1.384 . S
C884 H875 0.929 . S
C884 C876 1.378 . S
C884 C879 1.350 . S
C885 H872 0.929 . S
C885 C877 1.433 . S
C885 N887 1.384 . S
N886 C882 1.427 . S
N886 C883 1.384 . S
N887 C879 1.427 . S
N887 C885 1.384 . S
H888 C894 0.930 . S
H889 C898 0.930 . S
H890 C903 0.929 1_554 S
H891 C901 0.929 . S
H892 C896 0.929 . S
H893 C902 0.929 . S
C894 H888 0.930 . S
C894 C895 1.367 . S
C894 C902 1.378 . S
C895 C894 1.367 . S
C895 C903 1.433 . S
C896 H892 0.929 . S
C896 C898 1.378 . S
C896 C900 1.350 . S
C897 C900 1.463 . S
C897 C902 1.350 . S
C897 N905 1.427 . S
C898 H889 0.930 . S
C898 C896 1.378 . S
C898 C899 1.367 . S
C899 C898 1.367 . S
C899 C901 1.433 . S
C900 C896 1.350 . S
C900 C897 1.463 . S
C900 N904 1.427 . S
C901 H891 0.929 . S
C901 C899 1.433 . S
C901 N904 1.384 . S
C902 H893 0.929 . S
C902 C894 1.378 . S
C902 C897 1.350 . S
C903 H890 0.929 1_556 S
C903 C895 1.433 . S
C903 N905 1.384 . S
N904 C900 1.427 . S
N904 C901 1.384 . S
N905 C897 1.427 . S
N905 C903 1.384 . S
H906 C912 0.930 . S
H907 C916 0.930 . S
H908 C921 0.950 . S
H909 C919 0.929 . S
H910 C914 0.929 . S
H911 C920 0.929 . S
C912 H906 0.930 . S
C912 C913 1.367 . S
C912 C920 1.378 . S
C913 C912 1.367 . S
C913 C921 1.428 1_556 S
C914 H910 0.929 . S
C914 C916 1.378 . S
C914 C918 1.350 . S
C915 C918 1.463 . S
C915 C920 1.350 . S
C915 N923 1.427 . S
C916 H907 0.930 . S
C916 C914 1.378 . S
C916 C917 1.367 . S
C917 C916 1.367 . S
C917 C919 1.433 . S
C918 C914 1.350 . S
C918 C915 1.463 . S
C918 N922 1.427 . S
C919 H909 0.929 . S
C919 C917 1.433 . S
C919 N922 1.384 . S
C920 H911 0.929 . S
C920 C912 1.378 . S
C920 C915 1.350 . S
C921 H908 0.950 . S
C921 C913 1.428 1_554 S
C921 N923 1.368 1_554 S
N922 C918 1.427 . S
N922 C919 1.384 . S
N923 C915 1.427 . S
N923 C921 1.368 1_556 S
H924 C930 0.930 . S
H925 C934 0.930 . S
H926 C939 0.929 . S
H927 C937 0.929 . S
H928 C932 0.929 . S
H929 C938 0.929 . S
C930 H924 0.930 . S
C930 C931 1.367 . S
C930 C938 1.378 . S
C931 C930 1.367 . S
C931 C939 1.433 . S
C932 H928 0.929 . S
C932 C934 1.378 . S
C932 C936 1.350 . S
C933 C936 1.463 . S
C933 C938 1.350 . S
C933 N941 1.427 . S
C934 H925 0.930 . S
C934 C932 1.378 . S
C934 C935 1.367 . S
C935 C934 1.367 . S
C935 C937 1.433 . S
C936 C932 1.350 . S
C936 C933 1.463 . S
C936 N940 1.427 . S
C937 H927 0.929 . S
C937 C935 1.433 . S
C937 N940 1.384 . S
C938 H929 0.929 . S
C938 C930 1.378 . S
C938 C933 1.350 . S
C939 H926 0.929 . S
C939 C931 1.433 . S
C939 N941 1.384 . S
N940 C936 1.427 . S
N940 C937 1.384 . S
N941 C933 1.427 . S
N941 C939 1.384 . S
H942 C948 0.930 . S
H943 C952 0.930 . S
H944 C957 0.929 . S
H945 C955 0.929 . S
H946 C950 0.929 . S
H947 C956 0.929 . S
C948 H942 0.930 . S
C948 C949 1.367 . S
C948 C956 1.378 . S
C949 C948 1.367 . S
C949 C957 1.433 . S
C950 H946 0.929 . S
C950 C952 1.378 . S
C950 C954 1.350 . S
C951 C954 1.463 . S
C951 C956 1.350 . S
C951 N959 1.427 . S
C952 H943 0.930 . S
C952 C950 1.378 . S
C952 C953 1.367 . S
C953 C952 1.367 . S
C953 C955 1.433 . S
C954 C950 1.350 . S
C954 C951 1.463 . S
C954 N958 1.427 . S
C955 H945 0.929 . S
C955 C953 1.433 . S
C955 N958 1.384 . S
C956 H947 0.929 . S
C956 C948 1.378 . S
C956 C951 1.350 . S
C957 H944 0.929 . S
C957 C949 1.433 . S
C957 N959 1.384 . S
N958 C954 1.427 . S
N958 C955 1.384 . S
N959 C951 1.427 . S
N959 C957 1.384 . S
H960 C966 0.930 . S
H961 C970 0.930 . S
H962 C975 0.929 . S
H963 C973 0.929 . S
H964 C968 0.929 . S
H965 C974 0.929 . S
C966 H960 0.930 . S
C966 C967 1.367 . S
C966 C974 1.378 . S
C967 C966 1.367 . S
C967 C975 1.433 . S
C968 H964 0.929 . S
C968 C970 1.378 . S
C968 C972 1.350 . S
C969 C972 1.463 . S
C969 C974 1.350 . S
C969 N977 1.427 . S
C970 H961 0.930 . S
C970 C968 1.378 . S
C970 C971 1.367 . S
C971 C970 1.367 . S
C971 C973 1.433 . S
C972 C968 1.350 . S
C972 C969 1.463 . S
C972 N976 1.427 . S
C973 H963 0.929 . S
C973 C971 1.433 . S
C973 N976 1.384 . S
C974 H965 0.929 . S
C974 C966 1.378 . S
C974 C969 1.350 . S
C975 H962 0.929 . S
C975 C967 1.433 . S
C975 N977 1.384 . S
N976 C972 1.427 . S
N976 C973 1.384 . S
N977 C969 1.427 . S
N977 C975 1.384 . S
H978 C984 0.930 . S
H979 C988 0.930 . S
H980 C993 0.929 . S
H981 C991 0.929 . S
H982 C986 0.929 . S
H983 C992 0.929 . S
C984 H978 0.930 . S
C984 C985 1.367 . S
C984 C992 1.378 . S
C985 C984 1.367 . S
C985 C993 1.433 . S
C986 H982 0.929 . S
C986 C988 1.378 . S
C986 C990 1.350 . S
C987 C990 1.463 . S
C987 C992 1.350 . S
C987 N995 1.427 . S
C988 H979 0.930 . S
C988 C986 1.378 . S
C988 C989 1.367 . S
C989 C988 1.367 . S
C989 C991 1.433 . S
C990 C986 1.350 . S
C990 C987 1.463 . S
C990 N994 1.427 . S
C991 H981 0.929 . S
C991 C989 1.433 . S
C991 N994 1.384 . S
C992 H983 0.929 . S
C992 C984 1.378 . S
C992 C987 1.350 . S
C993 H980 0.929 . S
C993 C985 1.433 . S
C993 N995 1.384 . S
N994 C990 1.427 . S
N994 C991 1.384 . S
N995 C987 1.427 . S
N995 C993 1.384 . S
H996 C1002 0.930 . S
H997 C1006 0.930 . S
H998 C1011 0.929 . S
H999 C1009 0.929 . S
H1000 C1004 0.929 . S
H1001 C1010 0.929 . S
C1002 H996 0.930 . S
C1002 C1003 1.367 . S
C1002 C1010 1.378 . S
C1003 C1002 1.367 . S
C1003 C1011 1.433 . S
C1004 H1000 0.929 . S
C1004 C1006 1.378 . S
C1004 C1008 1.350 . S
C1005 C1008 1.463 . S
C1005 C1010 1.350 . S
C1005 N1013 1.427 . S
C1006 H997 0.930 . S
C1006 C1004 1.378 . S
C1006 C1007 1.367 . S
C1007 C1006 1.367 . S
C1007 C1009 1.433 . S
C1008 C1004 1.350 . S
C1008 C1005 1.463 . S
C1008 N1012 1.427 . S
C1009 H999 0.929 . S
C1009 C1007 1.433 . S
C1009 N1012 1.384 . S
C1010 H1001 0.929 . S
C1010 C1002 1.378 . S
C1010 C1005 1.350 . S
C1011 H998 0.929 . S
C1011 C1003 1.433 . S
C1011 N1013 1.384 . S
N1012 C1008 1.427 . S
N1012 C1009 1.384 . S
N1013 C1005 1.427 . S
N1013 C1011 1.384 . S
H1014 C1020 0.930 . S
H1015 C1024 0.930 . S
H1016 C1029 0.929 . S
H1017 C1027 0.929 . S
H1018 C1022 0.929 . S
H1019 C1028 0.929 . S
C1020 H1014 0.930 . S
C1020 C1021 1.367 . S
C1020 C1028 1.378 . S
C1021 C1020 1.367 . S
C1021 C1029 1.433 . S
C1022 H1018 0.929 . S
C1022 C1024 1.378 . S
C1022 C1026 1.350 . S
C1023 C1026 1.463 . S
C1023 C1028 1.350 . S
C1023 N1031 1.427 . S
C1024 H1015 0.930 . S
C1024 C1022 1.378 . S
C1024 C1025 1.367 . S
C1025 C1024 1.367 . S
C1025 C1027 1.433 . S
C1026 C1022 1.350 . S
C1026 C1023 1.463 . S
C1026 N1030 1.427 . S
C1027 H1017 0.929 . S
C1027 C1025 1.433 . S
C1027 N1030 1.384 . S
C1028 H1019 0.929 . S
C1028 C1020 1.378 . S
C1028 C1023 1.350 . S
C1029 H1016 0.929 . S
C1029 C1021 1.433 . S
C1029 N1031 1.384 . S
N1030 C1026 1.427 . S
N1030 C1027 1.384 . S
N1031 C1023 1.427 . S
N1031 C1029 1.384 . S
H1032 C1038 0.930 . S
H1033 C1042 0.930 . S
H1034 C1047 0.929 . S
H1035 C1045 0.929 . S
H1036 C1040 0.929 . S
H1037 C1046 0.929 . S
C1038 H1032 0.930 . S
C1038 C1039 1.367 . S
C1038 C1046 1.378 . S
C1039 C1038 1.367 . S
C1039 C1047 1.433 . S
C1040 H1036 0.929 . S
C1040 C1042 1.378 . S
C1040 C1044 1.350 . S
C1041 C1044 1.463 . S
C1041 C1046 1.350 . S
C1041 N1049 1.427 . S
C1042 H1033 0.930 . S
C1042 C1040 1.378 . S
C1042 C1043 1.367 . S
C1043 C1042 1.367 . S
C1043 C1045 1.433 . S
C1044 C1040 1.350 . S
C1044 C1041 1.463 . S
C1044 N1048 1.427 . S
C1045 H1035 0.929 . S
C1045 C1043 1.433 . S
C1045 N1048 1.384 . S
C1046 H1037 0.929 . S
C1046 C1038 1.378 . S
C1046 C1041 1.350 . S
C1047 H1034 0.929 . S
C1047 C1039 1.433 . S
C1047 N1049 1.384 . S
N1048 C1044 1.427 . S
N1048 C1045 1.384 . S
N1049 C1041 1.427 . S
N1049 C1047 1.384 . S
H1050 C1056 0.926 1_455 S
H1051 C1060 0.930 . S
H1052 C1065 0.929 . S
H1053 C1063 0.929 . S
H1054 C1058 0.929 . S
H1055 C1064 0.929 . S
C1056 H1050 0.926 1_655 S
C1056 C1057 1.367 1_655 S
C1056 C1064 1.382 . S
C1057 C1056 1.367 1_455 S
C1057 C1065 1.433 1_455 S
C1058 H1054 0.929 . S
C1058 C1060 1.378 . S
C1058 C1062 1.350 . S
C1059 C1062 1.463 . S
C1059 C1064 1.350 . S
C1059 N1067 1.427 . S
C1060 H1051 0.930 . S
C1060 C1058 1.378 . S
C1060 C1061 1.367 . S
C1061 C1060 1.367 . S
C1061 C1063 1.433 . S
C1062 C1058 1.350 . S
C1062 C1059 1.463 . S
C1062 N1066 1.427 . S
C1063 H1053 0.929 . S
C1063 C1061 1.433 . S
C1063 N1066 1.384 . S
C1064 H1055 0.929 . S
C1064 C1056 1.382 . S
C1064 C1059 1.350 . S
C1065 H1052 0.929 . S
C1065 C1057 1.433 1_655 S
C1065 N1067 1.384 . S
N1066 C1062 1.427 . S
N1066 C1063 1.384 . S
N1067 C1059 1.427 . S
N1067 C1065 1.384 . S
H1068 C1074 0.930 . S
H1069 C1078 0.930 . S
H1070 C1083 0.929 . S
H1071 C1081 0.929 . S
H1072 C1076 0.929 . S
H1073 C1082 0.929 . S
C1074 H1068 0.930 . S
C1074 C1075 1.367 . S
C1074 C1082 1.378 . S
C1075 C1074 1.367 . S
C1075 C1083 1.433 . S
C1076 H1072 0.929 . S
C1076 C1078 1.378 . S
C1076 C1080 1.350 . S
C1077 C1080 1.463 . S
C1077 C1082 1.350 . S
C1077 N1085 1.427 . S
C1078 H1069 0.930 . S
C1078 C1076 1.378 . S
C1078 C1079 1.367 . S
C1079 C1078 1.367 . S
C1079 C1081 1.433 . S
C1080 C1076 1.350 . S
C1080 C1077 1.463 . S
C1080 N1084 1.427 . S
C1081 H1071 0.929 . S
C1081 C1079 1.433 . S
C1081 N1084 1.384 . S
C1082 H1073 0.929 . S
C1082 C1074 1.378 . S
C1082 C1077 1.350 . S
C1083 H1070 0.929 . S
C1083 C1075 1.433 . S
C1083 N1085 1.384 . S
N1084 C1080 1.427 . S
N1084 C1081 1.384 . S
N1085 C1077 1.427 . S
N1085 C1083 1.384 . S
H1086 C1092 0.930 . S
H1087 C1096 0.930 . S
H1088 C1101 0.929 . S
H1089 C1099 0.929 . S
H1090 C1094 0.929 . S
H1091 C1100 0.929 . S
C1092 H1086 0.930 . S
C1092 C1093 1.367 . S
C1092 C1100 1.378 . S
C1093 C1092 1.367 . S
C1093 C1101 1.433 . S
C1094 H1090 0.929 . S
C1094 C1096 1.378 . S
C1094 C1098 1.350 . S
C1095 C1098 1.463 . S
C1095 C1100 1.350 . S
C1095 N1103 1.427 . S
C1096 H1087 0.930 . S
C1096 C1094 1.378 . S
C1096 C1097 1.367 . S
C1097 C1096 1.367 . S
C1097 C1099 1.433 . S
C1098 C1094 1.350 . S
C1098 C1095 1.463 . S
C1098 N1102 1.427 . S
C1099 H1089 0.929 . S
C1099 C1097 1.433 . S
C1099 N1102 1.384 . S
C1100 H1091 0.929 . S
C1100 C1092 1.378 . S
C1100 C1095 1.350 . S
C1101 H1088 0.929 . S
C1101 C1093 1.433 . S
C1101 N1103 1.384 . S
N1102 C1098 1.427 . S
N1102 C1099 1.384 . S
N1103 C1095 1.427 . S
N1103 C1101 1.384 . S
H1104 C1110 0.930 . S
H1105 C1114 0.930 . S
H1106 C1119 0.929 . S
H1107 C1117 0.929 . S
H1108 C1112 0.929 . S
H1109 C1118 0.929 . S
C1110 H1104 0.930 . S
C1110 C1111 1.367 . S
C1110 C1118 1.378 . S
C1111 C1110 1.367 . S
C1111 C1119 1.433 . S
C1112 H1108 0.929 . S
C1112 C1114 1.378 . S
C1112 C1116 1.350 . S
C1113 C1116 1.463 . S
C1113 C1118 1.350 . S
C1113 N1121 1.427 . S
C1114 H1105 0.930 . S
C1114 C1112 1.378 . S
C1114 C1115 1.367 . S
C1115 C1114 1.367 . S
C1115 C1117 1.433 . S
C1116 C1112 1.350 . S
C1116 C1113 1.463 . S
C1116 N1120 1.427 . S
C1117 H1107 0.929 . S
C1117 C1115 1.433 . S
C1117 N1120 1.384 . S
C1118 H1109 0.929 . S
C1118 C1110 1.378 . S
C1118 C1113 1.350 . S
C1119 H1106 0.929 . S
C1119 C1111 1.433 . S
C1119 N1121 1.384 . S
N1120 C1116 1.427 . S
N1120 C1117 1.384 . S
N1121 C1113 1.427 . S
N1121 C1119 1.384 . S
C697 C39 1.750 . S
C701 C371 1.657 . S
C715 C91 1.760 . S
C719 C415 1.703 . S
C737 C495 1.437 . S
C733 C128 1.493 . S
C755 C539 1.469 . S
C751 C188 1.509 1_655 S
C773 C619 1.626 . S
C769 C250 1.685 . S
C791 C675 1.773 . S
C787 C304 1.929 . S
C805 C75 1.889 . S
C809 C471 1.663 . S
C823 C144 1.762 . S
C827 C551 1.620 . S
C845 C595 1.688 . S
C841 C198 1.856 . S
C863 C663 1.477 . S
C859 C234 1.501 . S
C877 C294 1.521 . S
C881 C347 1.418 . S
C899 C427 1.635 . S
C895 C29 1.687 . S
C917 C533 1.805 . S
C913 C38 1.918 1_556 S
C931 C92 1.727 . S
C935 C613 1.572 . S
C953 C681 1.510 . S
C949 C135 1.530 . S
C967 C181 1.687 . S
C971 C365 1.583 . S
C985 C251 1.599 . S
C989 C409 1.531 . S
C1003 C303 1.962 . S
C1007 C489 1.733 . S
C1021 C82 1.861 . S
C1025 C657 1.696 . S
C1043 C353 1.699 . S
C1039 C145 1.798 . S
C1057 C197 1.669 . S
C1061 C433 1.615 . S
C1075 C241 1.469 . S
C1079 C477 1.414 . S
C1093 C287 1.601 . S
C1097 C557 1.566 . S
C1111 C22 1.535 . S
C1115 C601 1.473 . S
