# Generated by pormake.
# Topology zzz, (3,6)-cn, num edge types: 1
# Building blocks:
#     Node 0, Type 0, BuildingBlock: KAKCAD_clean_linker_0, # of connection points: 3
#     Node 1, Type 0, BuildingBlock: KAKCAD_clean_linker_0, # of connection points: 3
#     Node 2, Type 0, BuildingBlock: KAKCAD_clean_linker_0, # of connection points: 3
#     Node 3, Type 0, BuildingBlock: KAKCAD_clean_linker_0, # of connection points: 3
#     Node 4, Type 0, BuildingBlock: KAKCAD_clean_linker_0, # of connection points: 3
#     Node 5, Type 0, BuildingBlock: KAKCAD_clean_linker_0, # of connection points: 3
#     Node 6, Type 0, BuildingBlock: KAKCAD_clean_linker_0, # of connection points: 3
#     Node 7, Type 0, BuildingBlock: KAKCAD_clean_linker_0, # of connection points: 3
#     Node 8, Type 1, BuildingBlock: NUHQIS_clean_sbu_0, # of connection points: 6
#     Node 9, Type 1, BuildingBlock: NUHQIS_clean_sbu_0, # of connection points: 6
#     Node 10, Type 1, BuildingBlock: NUHQIS_clean_sbu_0, # of connection points: 6
#     Node 11, Type 1, BuildingBlock: NUHQIS_clean_sbu_0, # of connection points: 6
#     Edge 12, Type (0, 1), BuildingBlock: ZUJKAS_clean_linker_0, # of connection points: 2
#     Edge 13, Type (0, 1), BuildingBlock: ZUJKAS_clean_linker_0, # of connection points: 2
#     Edge 14, Type (0, 1), BuildingBlock: ZUJKAS_clean_linker_0, # of connection points: 2
#     Edge 15, Type (0, 1), BuildingBlock: ZUJKAS_clean_linker_0, # of connection points: 2
#     Edge 16, Type (0, 1), BuildingBlock: ZUJKAS_clean_linker_0, # of connection points: 2
#     Edge 17, Type (0, 1), BuildingBlock: ZUJKAS_clean_linker_0, # of connection points: 2
#     Edge 18, Type (0, 1), BuildingBlock: ZUJKAS_clean_linker_0, # of connection points: 2
#     Edge 19, Type (0, 1), BuildingBlock: ZUJKAS_clean_linker_0, # of connection points: 2
#     Edge 20, Type (0, 1), BuildingBlock: ZUJKAS_clean_linker_0, # of connection points: 2
#     Edge 21, Type (0, 1), BuildingBlock: ZUJKAS_clean_linker_0, # of connection points: 2
#     Edge 22, Type (0, 1), BuildingBlock: ZUJKAS_clean_linker_0, # of connection points: 2
#     Edge 23, Type (0, 1), BuildingBlock: ZUJKAS_clean_linker_0, # of connection points: 2
#     Edge 24, Type (0, 1), BuildingBlock: ZUJKAS_clean_linker_0, # of connection points: 2
#     Edge 25, Type (0, 1), BuildingBlock: ZUJKAS_clean_linker_0, # of connection points: 2
#     Edge 26, Type (0, 1), BuildingBlock: ZUJKAS_clean_linker_0, # of connection points: 2
#     Edge 27, Type (0, 1), BuildingBlock: ZUJKAS_clean_linker_0, # of connection points: 2
#     Edge 28, Type (0, 1), BuildingBlock: ZUJKAS_clean_linker_0, # of connection points: 2
#     Edge 29, Type (0, 1), BuildingBlock: ZUJKAS_clean_linker_0, # of connection points: 2
#     Edge 30, Type (0, 1), BuildingBlock: ZUJKAS_clean_linker_0, # of connection points: 2
#     Edge 31, Type (0, 1), BuildingBlock: ZUJKAS_clean_linker_0, # of connection points: 2
#     Edge 32, Type (0, 1), BuildingBlock: ZUJKAS_clean_linker_0, # of connection points: 2
#     Edge 33, Type (0, 1), BuildingBlock: ZUJKAS_clean_linker_0, # of connection points: 2
#     Edge 34, Type (0, 1), BuildingBlock: ZUJKAS_clean_linker_0, # of connection points: 2
#     Edge 35, Type (0, 1), BuildingBlock: ZUJKAS_clean_linker_0, # of connection points: 2
# Relax obj value: 0.385
# Max RMSD: 0.257
# Mean RMSD: 0.230
data_MOF--net-zzz--node1-NUHQIS_clean_sbu_0--node2-KAKCAD_clean_linker_0--edge1-ZUJKAS_clean_linker_0
_symmetry_space_group_name_H-M    P1
_symmetry_Int_Tables_number       1
_symmetry_cell_setting            triclinic
loop_
_symmetry_equiv_pos_as_xyz
'x, y, z'
_cell_length_a     74.763958
_cell_length_b     74.784265
_cell_length_c     23.64334
_cell_angle_alpha  89.960282
_cell_angle_beta   89.987294
_cell_angle_gamma 89.993043
loop_
_atom_site_label
_atom_site_type_symbol
_atom_site_fract_x
_atom_site_fract_y
_atom_site_fract_z
_atom_type_partial_charge
C0 C 0.76429 0.46092 0.0034 0.0
C1 C 0.77279 0.44479 0.018 0.0
C2 C 0.75552 0.47107 0.04459 0.0
C3 C 0.75518 0.4653 0.10112 0.0
C4 C 0.76276 0.44869 0.11504 0.0
C5 C 0.77141 0.43851 0.07388 0.0
C6 C 0.74804 0.47706 0.14618 0.0
C7 C 0.73164 0.48576 0.13963 0.0
C8 C 0.72497 0.49703 0.18211 0.0
C9 C 0.73496 0.49965 0.23214 0.0
C10 C 0.7517 0.49109 0.23903 0.0
C11 C 0.75801 0.47994 0.19541 0.0
C12 C 0.76335 0.49385 0.28973 0.0
C13 C 0.76615 0.51092 0.313 0.0
C14 C 0.77357 0.47952 0.31071 0.0
C15 C 0.78729 0.48235 0.34965 0.0
C16 C 0.79097 0.49958 0.37078 0.0
C17 C 0.70736 0.50552 0.17218 0.0
C18 C 0.70527 0.51706 0.12578 0.0
C19 C 0.69207 0.49913 0.20005 0.0
C20 C 0.67496 0.5032 0.17926 0.0
C21 C 0.67287 0.51377 0.13031 0.0
C22 C 0.68824 0.52121 0.10525 0.0
C23 C 0.77969 0.51372 0.35333 0.0
H24 H 0.76527 0.46624 0.9609 0.0
H25 H 0.74983 0.48386 0.03278 0.0
H26 H 0.76237 0.44378 0.15816 0.0
H27 H 0.77754 0.42597 0.08623 0.0
H28 H 0.72385 0.48354 0.10156 0.0
H29 H 0.77111 0.47383 0.19878 0.0
H30 H 0.72977 0.50828 0.26508 0.0
H31 H 0.75849 0.52227 0.29809 0.0
H32 H 0.77153 0.46608 0.29493 0.0
H33 H 0.79553 0.47099 0.36064 0.0
H34 H 0.71689 0.5219 0.10307 0.0
H35 H 0.69337 0.48998 0.23535 0.0
H36 H 0.78156 0.52712 0.36951 0.0
H37 H 0.68722 0.52923 0.06722 0.0
H38 H 0.66341 0.49741 0.2 0.0
C39 C 0.05237 0.76929 0.03116 0.0
C40 C 0.06636 0.78072 0.0476 0.0
C41 C 0.04253 0.75989 0.07158 0.0
C42 C 0.04658 0.7615 0.12944 0.0
C43 C 0.06133 0.77199 0.14553 0.0
C44 C 0.07106 0.78155 0.10513 0.0
C45 C 0.03465 0.75336 0.1728 0.0
C46 C 0.02655 0.73674 0.16328 0.0
C47 C 0.01403 0.72973 0.20155 0.0
C48 C 0.0097 0.73939 0.25087 0.0
C49 C 0.01798 0.75601 0.26147 0.0
C50 C 0.03036 0.7628 0.22222 0.0
C51 C 0.01335 0.76729 0.3111 0.0
C52 C 0.99577 0.77336 0.31939 0.0
C53 C 0.0271 0.77446 0.34466 0.0
C54 C 0.02357 0.78815 0.38332 0.0
C55 C 0.0062 0.79512 0.38914 0.0
C56 C 0.00556 0.71243 0.18722 0.0
C57 C 0.99524 0.71115 0.13781 0.0
C58 C 0.01061 0.69671 0.21545 0.0
C59 C 0.00636 0.67994 0.19249 0.0
C60 C 0.99693 0.67863 0.14104 0.0
C61 C 0.99089 0.69446 0.11512 0.0
C62 C 0.99224 0.78721 0.35787 0.0
H63 H 0.04859 0.76808 0.98711 0.0
H64 H 0.03121 0.75203 0.05749 0.0
H65 H 0.06506 0.77324 0.18961 0.0
H66 H 0.08167 0.7903 0.11947 0.0
H67 H 0.02992 0.72915 0.1257 0.0
H68 H 0.03603 0.77595 0.22913 0.0
H69 H 0.99992 0.73412 0.28032 0.0
H70 H 0.98496 0.76819 0.29366 0.0
H71 H 0.04079 0.77007 0.3389 0.0
H72 H 0.03468 0.79396 0.40619 0.0
H73 H 0.99144 0.72311 0.1149 0.0
H74 H 0.01881 0.69739 0.25315 0.0
H75 H 0.97866 0.79211 0.36181 0.0
H76 H 0.9838 0.69403 0.07521 0.0
H77 H 0.01105 0.66801 0.21385 0.0
C78 C 0.74374 0.06205 0.0463 0.0
C79 C 0.73058 0.07444 0.06263 0.0
C80 C 0.75313 0.05225 0.08688 0.0
C81 C 0.74977 0.05478 0.14487 0.0
C82 C 0.73758 0.06813 0.16122 0.0
C83 C 0.72802 0.07777 0.12063 0.0
C84 C 0.75776 0.04252 0.18757 0.0
C85 C 0.77521 0.03601 0.18105 0.0
C86 C 0.78212 0.02291 0.21765 0.0
C87 C 0.77139 0.01635 0.26218 0.0
C88 C 0.75412 0.02343 0.27084 0.0
C89 C 0.74745 0.0363 0.23307 0.0
C90 C 0.74237 0.01766 0.31807 0.0
C91 C 0.73603 1.00002 0.3215 0.0
C92 C 0.73504 0.03064 0.35419 0.0
C93 C 0.72097 0.02638 0.3907 0.0
C94 C 0.71376 0.00901 0.3918 0.0
C95 C 0.80042 0.01613 0.20643 0.0
C96 C 0.80314 0.99838 0.18919 0.0
C97 C 0.81469 0.02829 0.20277 0.0
C98 C 0.83103 0.02313 0.17915 0.0
C99 C 0.83345 0.00571 0.1581 0.0
C100 C 0.81949 0.99323 0.16501 0.0
C101 C 0.7218 0.99574 0.35789 0.0
H102 H 0.74632 0.05939 1.00202 0.0
H103 H 0.76236 0.04205 0.07254 0.0
H104 H 0.73494 0.07072 0.20551 0.0
H105 H 0.71793 0.08711 0.13496 0.0
H106 H 0.78343 0.04088 0.14652 0.0
H107 H 0.73381 0.04096 0.23817 0.0
H108 H 0.77658 0.0062 0.29051 0.0
H109 H 0.74134 0.98981 0.29366 0.0
H110 H 0.73961 0.04438 0.35204 0.0
H111 H 0.71507 0.037 0.41555 0.0
H112 H 0.79227 0.98882 0.19099 0.0
H113 H 0.81285 0.04209 0.21537 0.0
H114 H 0.71673 0.98218 0.35815 0.0
H115 H 0.82099 0.97965 0.14979 0.0
H116 H 0.84136 0.03316 0.17411 0.0
C117 C 0.50671 0.72643 0.40392 0.0
C118 C 0.51462 0.71076 0.3821 0.0
C119 C 0.50311 0.74107 0.36854 0.0
C120 C 0.50737 0.74031 0.31081 0.0
C121 C 0.51633 0.72522 0.28982 0.0
C122 C 0.51999 0.71064 0.32505 0.0
C123 C 0.49886 0.75282 0.27041 0.0
C124 C 0.5048 0.77053 0.26235 0.0
C125 C 0.49638 0.78152 0.22165 0.0
C126 C 0.48227 0.77455 0.18911 0.0
C127 C 0.47642 0.75695 0.19677 0.0
C128 C 0.48465 0.74627 0.23779 0.0
C129 C 0.46294 0.74898 0.1586 0.0
C130 C 0.4489 0.73863 0.1806 0.0
C131 C 0.46528 0.74993 0.09979 0.0
C132 C 0.45469 0.73959 0.06383 0.0
C133 C 0.44144 0.7282 0.08602 0.0
C134 C 0.50253 0.79998 0.20923 0.0
C135 C 0.49001 0.81398 0.20744 0.0
C136 C 0.51999 0.80315 0.18979 0.0
C137 C 0.52446 0.81966 0.16529 0.0
C138 C 0.51157 0.83333 0.1603 0.0
C139 C 0.49449 0.83047 0.1835 0.0
C140 C 0.43816 0.72845 0.14462 0.0
H141 H 0.50261 0.72708 0.4478 0.0
H142 H 0.49591 0.75245 0.38542 0.0
H143 H 0.51943 0.72422 0.24516 0.0
H144 H 0.5259 0.69881 0.30644 0.0
H145 H 0.5159 0.77563 0.28698 0.0
H146 H 0.48039 0.7325 0.24315 0.0
H147 H 0.47609 0.78273 0.15665 0.0
H148 H 0.4467 0.73788 0.22583 0.0
H149 H 0.47611 0.75771 0.08182 0.0
H150 H 0.45776 0.73961 0.01907 0.0
H151 H 0.47643 0.81183 0.22194 0.0
H152 H 0.52983 0.79252 0.19019 0.0
H153 H 0.42781 0.72015 0.16299 0.0
H154 H 0.48417 0.84058 0.18001 0.0
H155 H 0.5378 0.8215 0.14841 0.0
C156 C 0.24032 0.52864 0.29968 0.0
C157 C 0.22666 0.51815 0.32368 0.0
C158 C 0.24957 0.52267 0.25197 0.0
C159 C 0.24517 0.50624 0.22695 0.0
C160 C 0.23192 0.49551 0.25159 0.0
C161 C 0.22289 0.50131 0.29983 0.0
C162 C 0.25406 0.50055 0.17427 0.0
C163 C 0.27269 0.50026 0.17095 0.0
C164 C 0.28138 0.49519 0.12088 0.0
C165 C 0.27112 0.49074 0.07274 0.0
C166 C 0.25225 0.49121 0.07573 0.0
C167 C 0.24393 0.49585 0.12688 0.0
C168 C 0.24055 0.48802 0.02612 0.0
C169 C 0.23904 0.50112 0.98385 0.0
C170 C 0.22794 0.4741 0.02786 0.0
C171 C 0.21352 0.47383 0.99013 0.0
C172 C 0.21122 0.48765 0.95039 0.0
C173 C 0.30117 0.49425 0.12236 0.0
C174 C 0.31087 0.50954 0.13802 0.0
C175 C 0.30979 0.47758 0.12297 0.0
C176 C 0.32732 0.47606 0.14363 0.0
C177 C 0.33652 0.49119 0.1641 0.0
C178 C 0.32833 0.50805 0.15856 0.0
C179 C 0.22447 0.50098 0.94646 0.0
H180 H 0.24343 0.54176 0.31632 0.0
H181 H 0.25972 0.53119 0.2334 0.0
H182 H 0.22853 0.48266 0.23337 0.0
H183 H 0.21277 0.49269 0.31795 0.0
H184 H 0.28051 0.50363 0.20813 0.0
H185 H 0.22944 0.49646 0.12917 0.0
H186 H 0.2777 0.48706 0.0336 0.0
H187 H 0.2484 0.51217 0.98237 0.0
H188 H 0.22865 0.46404 0.06079 0.0
H189 H 0.20352 0.46345 0.99472 0.0
H190 H 0.30441 0.52251 0.13868 0.0
H191 H 0.3025 0.46557 0.11188 0.0
H192 H 0.22318 0.51173 0.91599 0.0
H193 H 0.33482 0.52001 0.17421 0.0
H194 H 0.33332 0.4629 0.14628 0.0
C195 C 0.95381 0.24767 0.27325 0.0
C196 C 0.95991 0.23111 0.29369 0.0
C197 C 0.96361 0.25691 0.23215 0.0
C198 C 0.97953 0.24963 0.2104 0.0
C199 C 0.98571 0.23322 0.23146 0.0
C200 C 0.97603 0.22407 0.27264 0.0
C201 C 0.9896 0.2589 0.16516 0.0
C202 C 0.99311 0.27721 0.16892 0.0
C203 C 1.00307 0.28605 0.12695 0.0
C204 C 0.00951 0.27627 0.08003 0.0
C205 C 0.00574 0.25783 0.07563 0.0
C206 C 0.99592 0.24934 0.1184 0.0
C207 C 0.01118 0.24676 0.02668 0.0
C208 C 0.99949 0.245 0.98059 0.0
C209 C 0.0252 0.23443 0.03288 0.0
C210 C 0.02689 0.21997 0.99556 0.0
C211 C 0.01438 0.2174 0.9518 0.0
C212 C 0.00674 0.30538 0.13529 0.0
C213 C 0.99244 0.31695 0.14725 0.0
C214 C 0.0243 0.31159 0.14287 0.0
C215 C 0.02741 0.32857 0.16624 0.0
C216 C 0.01301 0.33964 0.18238 0.0
C217 C 0.99551 0.33383 0.17049 0.0
C218 C 1.00108 0.23048 0.94348 0.0
H219 H 0.94145 0.25339 0.28878 0.0
H220 H 0.95851 0.26953 0.21639 0.0
H221 H 0.99804 0.2274 0.21587 0.0
H222 H 0.98093 0.2112 0.28681 0.0
H223 H 0.98851 0.28456 0.20569 0.0
H224 H 0.99294 0.23519 0.11467 0.0
H225 H 0.01714 0.28293 0.04725 0.0
H226 H 0.98832 0.2541 0.97577 0.0
H227 H 0.03407 0.23525 0.06902 0.0
H228 H 0.03719 0.21011 0.00359 0.0
H229 H 0.97876 0.31244 0.14208 0.0
H230 H 0.03556 0.30286 0.13447 0.0
H231 H 0.99136 0.22902 0.90984 0.0
H232 H 0.98403 0.34177 0.18267 0.0
H233 H 0.04108 0.3327 0.17381 0.0
C234 C 0.25979 0.9577 0.27641 0.0
C235 C 0.27574 0.96431 0.29976 0.0
C236 C 0.25069 0.96749 0.23502 0.0
C237 C 0.25758 0.9839 0.21579 0.0
C238 C 0.27337 0.9906 0.23974 0.0
C239 C 0.28232 0.98094 0.28142 0.0
C240 C 0.24858 0.9939 0.16996 0.0
C241 C 0.2302 0.99714 0.17225 0.0
C242 C 0.22156 0.00696 0.12956 0.0
C243 C 0.23163 0.01344 0.08324 0.0
C244 C 0.25017 0.00994 0.08036 0.0
C245 C 0.25846 1.00035 0.12404 0.0
C246 C 0.26154 0.01533 0.03199 0.0
C247 C 0.26323 0.00382 0.98546 0.0
C248 C 0.27415 0.02906 0.03917 0.0
C249 C 0.28877 0.0306 1.00241 0.0
C250 C 0.29125 0.01824 0.95822 0.0
C251 C 0.20214 0.0105 0.13666 0.0
C252 C 0.19063 0.99618 0.14907 0.0
C253 C 0.19574 0.02804 0.14289 0.0
C254 C 0.17864 0.03114 0.16554 0.0
C255 C 0.16765 0.01675 0.1824 0.0
C256 C 0.17366 0.99924 0.1717 0.0
C257 C 0.27793 0.00525 0.94892 0.0
H258 H 0.25446 0.94491 0.28983 0.0
H259 H 0.23855 0.96203 0.21697 0.0
H260 H 0.27885 1.00328 0.22594 0.0
H261 H 0.29474 0.98624 0.29802 0.0
H262 H 0.22264 0.99243 0.2085 0.0
H263 H 0.27269 0.99757 0.12159 0.0
H264 H 0.22513 0.02092 0.04982 0.0
H265 H 0.25391 0.99287 0.97986 0.0
H266 H 0.27337 0.03779 0.07564 0.0
H267 H 0.29881 0.04066 0.01119 0.0
H268 H 0.19528 0.98251 0.14488 0.0
H269 H 0.20439 0.03932 0.13407 0.0
H270 H 0.27932 0.99564 0.91495 0.0
H271 H 0.1658 0.98776 0.18442 0.0
H272 H 0.17436 0.04482 0.17208 0.0
C273 C 0.48604 0.28227 0.98997 0.0
C274 C 0.50037 0.29066 0.96169 0.0
C275 C 0.48915 0.26811 0.02777 0.0
C276 C 0.50666 0.26217 0.03838 0.0
C277 C 0.52083 0.26987 0.00776 0.0
C278 C 0.51773 0.28389 0.96987 0.0
C279 C 0.51063 0.25015 0.08699 0.0
C280 C 0.50185 0.2336 0.09502 0.0
C281 C 0.50589 0.22303 0.14279 0.0
C282 C 0.51813 0.2293 0.18302 0.0
C283 C 0.52669 0.24575 0.17589 0.0
C284 C 0.5231 0.25596 0.12755 0.0
C285 C 0.53847 0.25288 0.22071 0.0
C286 C 0.53221 0.25403 0.27651 0.0
C287 C 0.55551 0.25955 0.20756 0.0
C288 C 0.56587 0.26782 0.2492 0.0
C289 C 0.55922 0.26993 0.30455 0.0
C290 C 0.49779 0.2053 0.15301 0.0
C291 C 0.48216 0.20393 0.18558 0.0
C292 C 0.50805 0.1899 0.14325 0.0
C293 C 0.50341 0.17363 0.16852 0.0
C294 C 0.48846 0.17245 0.20459 0.0
C295 C 0.47749 0.18764 0.21096 0.0
C296 C 0.5424 0.26257 0.31789 0.0
H297 H 0.47247 0.28699 0.98413 0.0
H298 H 0.478 0.26251 0.05107 0.0
H299 H 0.53447 0.26556 0.01509 0.0
H300 H 0.52913 0.29005 0.94938 0.0
H301 H 0.49221 0.22892 0.06421 0.0
H302 H 0.52947 0.26891 0.12278 0.0
H303 H 0.52099 0.2213 0.22026 0.0
H304 H 0.51903 0.2491 0.28752 0.0
H305 H 0.56068 0.2586 0.16485 0.0
H306 H 0.57889 0.27297 0.23757 0.0
H307 H 0.47426 0.21574 0.19462 0.0
H308 H 0.52041 0.19078 0.11943 0.0
H309 H 0.53661 0.26418 0.35955 0.0
H310 H 0.46575 0.18717 0.23774 0.0
H311 H 0.5123 0.16233 0.16304 0.0
Tb312 Tb 0.01839 0.99955 0.72128 0.0
Eu313 Eu 0.98603 0.01044 0.63481 0.0
C314 C 0.02644 0.01072 0.59616 0.0
C315 C 0.00579 0.04007 0.71294 0.0
C316 C 0.05512 0.97381 0.78459 0.0
C317 C 0.07517 0.95376 0.83423 0.0
C318 C 0.06579 0.9699 0.8316 0.0
C319 C 0.05448 0.96181 0.73906 0.0
C320 C 0.06383 0.94566 0.74164 0.0
C321 C 0.07393 0.94126 0.78988 0.0
C322 C 0.04346 0.98956 0.78526 0.0
O323 O 0.99476 0.00532 0.77245 0.0
O324 O 0.97473 0.99505 0.7083 0.0
O325 O 0.99369 0.98248 0.60978 0.0
O326 O 0.00799 0.97387 0.69146 0.0
C327 C 0.97884 0.99898 0.76062 0.0
O328 O 0.95818 0.01845 0.62541 0.0
O329 O 0.97445 0.0139 0.55085 0.0
O330 O 0.01171 0.02027 0.59564 0.0
O331 O 0.02907 0.99858 0.63548 0.0
O332 O 0.01886 0.02871 0.72309 0.0
O333 O 0.99111 0.0353 0.68631 0.0
C334 C 1.00066 0.97005 0.64228 0.0
O335 O 0.04556 1.0008 0.74361 0.0
O336 O 0.02663 0.98614 0.79466 0.0
C337 C 0.95271 0.03678 0.54723 0.0
C338 C 0.93966 0.07 0.50987 0.0
C339 C 0.9278 0.05583 0.52063 0.0
C340 C 0.93431 0.0393 0.53903 0.0
C341 C 0.96457 0.05092 0.53675 0.0
C342 C 0.95811 0.06737 0.51792 0.0
C343 C 0.95924 0.01984 0.57056 0.0
H344 H 0.0826 0.95067 0.87232 0.0
H345 H 0.06632 0.979 0.86719 0.0
H346 H 0.04625 0.96465 0.70241 0.0
H347 H 0.06274 0.9364 0.70663 0.0
H348 H 0.91354 0.05752 0.51455 0.0
H349 H 0.92497 0.02855 0.54758 0.0
H350 H 0.9788 0.04932 0.54392 0.0
H351 H 0.96751 0.07816 0.5108 0.0
Tb352 Tb 0.5099 0.01964 0.72967 0.0
Eu353 Eu 0.49806 0.98768 0.64305 0.0
C354 C 0.49781 0.02839 0.60573 0.0
C355 C 0.46923 0.00747 0.72385 0.0
C356 C 0.53637 0.05561 0.79534 0.0
C357 C 0.55567 0.07631 0.84525 0.0
C358 C 0.53954 0.06696 0.84129 0.0
C359 C 0.54913 0.05426 0.75203 0.0
C360 C 0.56529 0.06355 0.75603 0.0
C361 C 0.5689 0.07434 0.80337 0.0
C362 C 0.52052 0.04409 0.79505 0.0
O363 O 0.50442 0.99577 0.77997 0.0
O364 O 0.51439 0.97619 0.71414 0.0
O365 O 0.52573 0.99525 0.6149 0.0
O366 O 0.53522 0.00942 0.6959 0.0
C367 C 0.51088 0.98 0.76696 0.0
O368 O 0.49082 0.95962 0.63438 0.0
O369 O 0.49233 0.97643 0.55983 0.0
O370 O 0.48841 0.01356 0.60472 0.0
O371 O 0.51005 0.031 0.64474 0.0
O372 O 0.48073 0.02048 0.73312 0.0
O373 O 0.47381 0.99272 0.69735 0.0
C374 C 0.53851 1.00215 0.64615 0.0
O375 O 0.50924 0.04668 0.75382 0.0
O376 O 0.52378 0.02715 0.80287 0.0
C377 C 0.46963 0.95447 0.56388 0.0
C378 C 0.43489 0.94143 0.54336 0.0
C379 C 0.44939 0.92955 0.54866 0.0
C380 C 0.46663 0.93604 0.55885 0.0
C381 C 0.45526 0.96638 0.55819 0.0
C382 C 0.4381 0.95993 0.54757 0.0
C383 C 0.48735 0.96102 0.58056 0.0
H384 H 0.55815 0.08433 0.88257 0.0
H385 H 0.52983 0.06806 0.87514 0.0
H386 H 0.54684 0.04556 0.71614 0.0
H387 H 0.57516 0.06188 0.7229 0.0
H388 H 0.44737 0.91523 0.54617 0.0
H389 H 0.47755 0.92666 0.56408 0.0
H390 H 0.45726 0.98066 0.56274 0.0
H391 H 0.42734 0.9695 0.54252 0.0
Tb392 Tb 0.48708 0.50473 0.69722 0.0
Eu393 Eu 0.51936 0.49239 0.61209 0.0
C394 C 0.47918 0.49395 0.57273 0.0
C395 C 0.49907 0.46402 0.69334 0.0
C396 C 0.4553 0.53295 0.77724 0.0
C397 C 0.43342 0.55117 0.82627 0.0
C398 C 0.43996 0.53436 0.81089 0.0
C399 C 0.46409 0.54849 0.75905 0.0
C400 C 0.45752 0.5653 0.7741 0.0
C401 C 0.4421 0.56682 0.80782 0.0
C402 C 0.4616 0.51533 0.759 0.0
O403 O 0.51219 0.51324 0.73658 0.0
O404 O 0.52973 0.491 0.70095 0.0
O405 O 0.52068 0.52249 0.61322 0.0
O406 O 0.49234 0.52843 0.64595 0.0
C407 C 0.52668 0.50328 0.73922 0.0
O408 O 0.54754 0.49232 0.58809 0.0
O409 O 0.52809 0.4783 0.53637 0.0
O410 O 0.49535 0.49907 0.55898 0.0
O411 O 0.47525 0.49052 0.62576 0.0
O412 O 0.4925 0.47731 0.72334 0.0
O413 O 0.50735 0.46669 0.64494 0.0
C414 C 0.50738 0.53363 0.62214 0.0
O415 O 0.46021 0.51231 0.705 0.0
O416 O 0.47708 0.51025 0.77854 0.0
C417 C 0.55624 0.46493 0.54602 0.0
C418 C 0.57314 0.43121 0.54427 0.0
C419 C 0.57097 0.44053 0.59553 0.0
C420 C 0.56247 0.45718 0.59646 0.0
C421 C 0.55913 0.45611 0.49466 0.0
C422 C 0.56741 0.43941 0.49374 0.0
C423 C 0.54501 0.48106 0.54665 0.0
H424 H 0.42145 0.55195 0.85199 0.0
H425 H 0.43297 0.52246 0.82488 0.0
H426 H 0.47599 0.5476 0.73306 0.0
H427 H 0.46466 0.57709 0.76001 0.0
H428 H 0.57541 0.43476 0.63514 0.0
H429 H 0.56025 0.46369 0.63677 0.0
H430 H 0.55423 0.4618 0.45542 0.0
H431 H 0.56844 0.43257 0.45354 0.0
Tb432 Tb 0.99302 0.49119 0.71425 0.0
Eu433 Eu 0.00672 0.52224 0.62782 0.0
C434 C 0.00591 0.48168 0.59258 0.0
C435 C 0.03396 0.50237 0.71322 0.0
C436 C 0.96428 0.45583 0.77219 0.0
C437 C 0.94671 0.43035 0.80281 0.0
C438 C 0.96271 0.44003 0.80358 0.0
C439 C 0.95 0.46146 0.73809 0.0
C440 C 0.93398 0.45191 0.73767 0.0
C441 C 0.93199 0.43642 0.77093 0.0
C442 C 0.98057 0.46669 0.77613 0.0
O443 O 0.99912 0.51454 0.76594 0.0
O444 O 0.9914 0.535 0.69919 0.0
O445 O 0.97926 0.51484 0.59667 0.0
O446 O 0.96873 0.5038 0.68103 0.0
C447 C 0.99417 0.53082 0.75232 0.0
O448 O 0.01325 0.55036 0.61498 0.0
O449 O 0.01611 0.53178 0.54563 0.0
O450 O 0.01634 0.49576 0.59388 0.0
O451 O 0.99275 0.4801 0.62899 0.0
O452 O 0.02217 0.48949 0.72073 0.0
O453 O 0.02982 0.51725 0.68679 0.0
C454 C 0.96601 0.50967 0.62922 0.0
O455 O 0.99244 0.46398 0.73672 0.0
O456 O 0.97799 0.48369 0.78521 0.0
C457 C 0.03886 0.55293 0.55995 0.0
C458 C 0.07483 0.56381 0.56241 0.0
C459 C 0.06166 0.57512 0.53939 0.0
C460 C 0.04369 0.56976 0.53873 0.0
C461 C 0.05206 0.54154 0.58171 0.0
C462 C 0.06985 0.54695 0.5832 0.0
C463 C 0.02006 0.54763 0.56505 0.0
H464 H 0.94574 0.41833 0.82819 0.0
H465 H 0.9737 0.4354 0.82959 0.0
H466 H 0.95104 0.47356 0.71311 0.0
H467 H 0.92291 0.45718 0.71326 0.0
H468 H 0.06525 0.58812 0.52268 0.0
H469 H 0.0336 0.57878 0.52234 0.0
H470 H 0.04858 0.52848 0.59815 0.0
H471 H 0.07977 0.53779 0.59987 0.0
H472 H 0.16131 0.04242 0.2633 0.0
H473 H 0.13596 0.04448 0.32793 0.0
H474 H 0.11138 0.99908 0.24689 0.0
H475 H 0.13613 0.99762 0.17965 0.0
H476 H 0.08654 0.02302 0.2768 0.0
H477 H 0.13148 0.01079 0.45933 0.0
H478 H 0.13717 0.03052 0.4201 0.0
H479 H 0.13899 0.0089 0.38716 0.0
C480 C 0.15033 0.03315 0.25801 0.0
C481 C 0.151 0.01968 0.21642 0.0
C482 C 0.13593 0.03416 0.29581 0.0
C483 C 0.122 0.02157 0.29362 0.0
C484 C 0.12207 0.00881 0.25008 0.0
H485 H 0.05464 0.98881 0.57182 0.0
H486 H 0.07687 0.99216 0.49706 0.0
C487 C 0.13636 0.0079 0.21185 0.0
C488 C 0.10779 0.02113 0.33794 0.0
H489 H 0.10122 0.01696 0.48044 0.0
C490 C 0.08974 0.02172 0.32136 0.0
C491 C 0.11192 0.01911 0.39611 0.0
C492 C 0.13092 0.01711 0.41681 0.0
C493 C 0.07578 0.02035 0.36112 0.0
C494 C 0.07993 0.01881 0.41941 0.0
C495 C 0.09798 0.01829 0.43592 0.0
C496 C 0.06591 0.01683 0.46394 0.0
C497 C 0.05674 0.01994 0.33997 0.0
C498 C 0.05228 0.02962 0.47077 0.0
C499 C 0.03934 0.02761 0.5133 0.0
C500 C 0.03996 0.01294 0.55055 0.0
C501 C 0.05374 1.0003 0.54404 0.0
C502 C 0.06651 1.0022 0.50121 0.0
H503 H 0.05605 0.01617 0.29456 0.0
H504 H 0.04852 0.01035 0.36466 0.0
H505 H 0.05077 0.03344 0.34447 0.0
H506 H 0.05176 0.04128 0.44368 0.0
H507 H 0.02901 0.03768 0.51744 0.0
H508 H 0.49259 0.13709 0.17445 0.0
H509 H 0.49141 0.11085 0.23643 0.0
H510 H 0.4773 0.14462 0.37722 0.0
H511 H 0.47856 0.17084 0.31599 0.0
H512 H 0.51249 0.1048 0.32886 0.0
H513 H 0.44134 0.10425 0.3936 0.0
H514 H 0.44934 0.11713 0.33411 0.0
H515 H 0.45184 0.12552 0.40498 0.0
C516 C 0.48905 0.13892 0.21849 0.0
C517 C 0.4856 0.15614 0.24002 0.0
C518 C 0.48834 0.12389 0.25385 0.0
C519 C 0.48404 0.12569 0.31141 0.0
C520 C 0.48019 0.14278 0.33273 0.0
H521 H 0.51548 0.06019 0.59377 0.0
H522 H 0.51166 0.0827 0.52001 0.0
C523 C 0.4809 0.15781 0.29747 0.0
C524 C 0.48497 0.11001 0.35021 0.0
H525 H 0.46145 0.08686 0.45044 0.0
C526 C 0.50126 0.10077 0.35497 0.0
C527 C 0.47029 0.10457 0.38392 0.0
C528 C 0.45216 0.11327 0.37857 0.0
C529 C 0.50345 0.08671 0.39387 0.0
C530 C 0.48906 0.08192 0.42972 0.0
C531 C 0.47256 0.09068 0.42348 0.0
C532 C 0.49107 0.06821 0.47496 0.0
C533 C 0.52119 0.07712 0.39618 0.0
C534 C 0.48041 0.05274 0.47525 0.0
C535 C 0.48251 0.0398 0.51771 0.0
C536 C 0.49523 0.04215 0.56099 0.0
C537 C 0.50564 0.05783 0.561 0.0
C538 C 0.50355 0.07071 0.5186 0.0
H539 H 0.52881 0.07875 0.35616 0.0
H540 H 0.52937 0.08281 0.43095 0.0
H541 H 0.51934 0.06262 0.40448 0.0
H542 H 0.47061 0.05058 0.44222 0.0
H543 H 0.47421 0.02794 0.51645 0.0
H544 H 0.34552 0.46488 0.23993 0.0
H545 H 0.37113 0.46415 0.30405 0.0
H546 H 0.39118 0.5129 0.2304 0.0
H547 H 0.36582 0.51357 0.16494 0.0
H548 H 0.40996 0.46539 0.28421 0.0
H549 H 0.38359 0.52395 0.4028 0.0
H550 H 0.36991 0.511 0.35501 0.0
H551 H 0.38579 0.52679 0.32758 0.0
C552 C 0.35558 0.47522 0.23611 0.0
C553 C 0.35347 0.48936 0.19723 0.0
C554 C 0.37017 0.47484 0.27323 0.0
C555 C 0.38289 0.48862 0.27262 0.0
C556 C 0.38134 0.50228 0.2322 0.0
H557 H 0.48345 0.49648 0.45786 0.0
H558 H 0.46036 0.49447 0.38478 0.0
C559 C 0.36681 0.50265 0.19485 0.0
C560 C 0.39724 0.48914 0.31612 0.0
H561 H 0.41163 0.51261 0.4315 0.0
C562 C 0.41038 0.47573 0.31634 0.0
C563 C 0.39759 0.5025 0.35849 0.0
C564 C 0.38342 0.51683 0.36157 0.0
C565 C 0.42401 0.47547 0.35739 0.0
C566 C 0.42454 0.48902 0.39913 0.0
C567 C 0.41126 0.50229 0.39929 0.0
C568 C 0.43867 0.48962 0.44336 0.0
C569 C 0.43759 0.46056 0.35643 0.0
C570 C 0.43413 0.48777 0.50069 0.0
C571 C 0.44731 0.48888 0.54266 0.0
C572 C 0.46528 0.49208 0.52816 0.0
C573 C 0.46976 0.49395 0.47061 0.0
C574 C 0.45659 0.49272 0.42868 0.0
H575 H 0.43313 0.44918 0.3297 0.0
H576 H 0.45037 0.4657 0.33893 0.0
H577 H 0.44023 0.45556 0.39988 0.0
H578 H 0.42036 0.48547 0.51298 0.0
H579 H 0.44335 0.48747 0.5865 0.0
H580 H 0.03796 0.34545 0.26582 0.0
H581 H 0.03984 0.37076 0.33071 0.0
H582 H 0.99575 0.39619 0.24504 0.0
H583 H 0.99443 0.37144 0.17784 0.0
H584 H 0.02032 0.42051 0.27694 0.0
H585 H 0.00462 0.37614 0.45837 0.0
H586 H 0.02455 0.36984 0.42117 0.0
H587 H 1.00323 0.36866 0.38605 0.0
C588 C 0.02895 0.35661 0.25966 0.0
C589 C 0.01588 0.3562 0.21674 0.0
C590 C 0.02985 0.37098 0.29753 0.0
C591 C 0.01757 0.38516 0.29397 0.0
C592 C 0.00522 0.38532 0.24923 0.0
H593 H 0.98326 0.4543 0.56573 0.0
H594 H 0.98687 0.4317 0.4922 0.0
C595 C 0.00441 0.37104 0.21101 0.0
C596 C 0.01701 0.39941 0.33803 0.0
H597 H 0.01123 0.40627 0.47981 0.0
C598 C 0.01837 0.4174 0.32133 0.0
C599 C 0.01415 0.3954 0.39593 0.0
C600 C 0.01137 0.37649 0.41651 0.0
C601 C 0.01696 0.43144 0.36075 0.0
C602 C 0.01454 0.42739 0.41882 0.0
C603 C 0.01324 0.4094 0.43546 0.0
C604 C 0.01247 0.44153 0.46285 0.0
C605 C 0.01745 0.45045 0.33943 0.0
C606 C 0.02572 0.4546 0.47144 0.0
C607 C 0.02359 0.46771 0.51329 0.0
C608 C 0.00831 0.46786 0.54805 0.0
C609 C 0.99521 0.45461 0.53986 0.0
C610 C 0.99726 0.44164 0.49775 0.0
H611 H 0.01438 0.45123 0.29351 0.0
H612 H 0.00777 0.45899 0.36264 0.0
H613 H 0.03106 0.456 0.34593 0.0
H614 H 0.0378 0.45456 0.44619 0.0
H615 H 0.03402 0.47762 0.51877 0.0
H616 H 0.83519 0.98707 0.0587 0.0
H617 H 0.86104 0.98331 0.99645 0.0
H618 H 0.89412 0.01158 0.11595 0.0
H619 H 0.8684 0.01506 0.17914 0.0
H620 H 0.88002 0.01228 0.94987 0.0
H621 H 0.92518 0.96811 0.07347 0.0
H622 H 0.9016 0.97016 0.08883 0.0
H623 H 0.9169 0.98728 0.11104 0.0
C624 C 0.84806 0.99205 0.07259 0.0
C625 C 0.84969 1.00134 0.12409 0.0
C626 C 0.86281 0.99001 0.03668 0.0
C627 C 0.87956 0.99704 0.05164 0.0
C628 C 0.88141 0.0058 0.10384 0.0
H629 H 0.98065 0.0101 0.87122 0.0
H630 H 0.95678 0.0093 0.94234 0.0
C631 C 0.86664 0.00791 0.13972 0.0
C632 C 0.89463 0.99656 0.01055 0.0
H633 H 0.9373 0.98134 0.99053 0.0
C634 C 0.89251 0.00542 0.95862 0.0
C635 C 0.91098 0.98777 0.02226 0.0
C636 C 0.91384 0.97765 0.07671 0.0
C637 C 0.90632 0.00593 0.91837 0.0
C638 C 0.92262 0.99695 0.92968 0.0
C639 C 0.9248 0.98817 0.98179 0.0
C640 C 0.93745 0.9965 0.88763 0.0
C641 C 0.90346 0.01646 0.86464 0.0
C642 C 0.93469 0.98917 0.8337 0.0
C643 C 0.94825 0.98968 0.79294 0.0
C644 C 0.96496 0.99738 0.80537 0.0
C645 C 0.96793 0.00412 0.86014 0.0
C646 C 0.9543 0.00366 0.90088 0.0
H647 H 0.89261 0.0265 0.86946 0.0
H648 H 0.91588 0.02349 0.85164 0.0
H649 H 0.89955 0.00718 0.83019 0.0
H650 H 0.92196 0.98318 0.82287 0.0
H651 H 0.94552 0.9842 0.75145 0.0
H652 H 0.52891 0.83573 0.05866 0.0
H653 H 0.53136 0.86183 0.99678 0.0
H654 H 0.50393 0.89396 0.12079 0.0
H655 H 0.50176 0.86799 0.18357 0.0
H656 H 0.5014 0.88038 0.95461 0.0
H657 H 0.54629 0.92596 0.0738 0.0
H658 H 0.5449 0.90229 0.08858 0.0
H659 H 0.52777 0.91717 0.11356 0.0
C660 C 0.52384 0.84845 0.07356 0.0
C661 C 0.51516 0.84974 0.12624 0.0
C662 C 0.52513 0.86334 0.03788 0.0
C663 C 0.51795 0.87989 0.05425 0.0
C664 C 0.50981 0.8814 0.10756 0.0
H665 H 0.50093 0.98125 0.87878 0.0
H666 H 0.50293 0.95718 0.94897 0.0
C667 C 0.50845 0.8665 0.14321 0.0
C668 C 0.51763 0.89508 0.01362 0.0
H669 H 0.53182 0.93806 0.99298 0.0
C670 C 0.50815 0.89295 0.96284 0.0
C671 C 0.52626 0.91155 0.0247 0.0
C672 C 0.53702 0.91442 0.07788 0.0
C673 C 0.50688 0.90687 0.92312 0.0
C674 C 0.5157 0.92329 0.93376 0.0
C675 C 0.5251 0.92548 0.98475 0.0
C676 C 0.51537 0.93823 0.89214 0.0
C677 C 0.49572 0.90398 0.8707 0.0
C678 C 0.52211 0.93576 0.83727 0.0
C679 C 0.52091 0.94942 0.79706 0.0
C680 C 0.51311 0.96598 0.81096 0.0
C681 C 0.50696 0.96867 0.86657 0.0
C682 C 0.5081 0.95492 0.90678 0.0
H683 H 0.48594 0.89295 0.87649 0.0
H684 H 0.48832 0.91631 0.85897 0.0
H685 H 0.50463 0.90033 0.83498 0.0
H686 H 0.52817 0.92316 0.82534 0.0
H687 H 0.52596 0.94692 0.75486 0.0
H688 H 0.64763 0.48768 0.11499 0.0
H689 H 0.62087 0.48896 0.05584 0.0
H690 H 0.63134 0.54446 0.0194 0.0
H691 H 0.65818 0.54334 0.07877 0.0
H692 H 0.5897 0.51008 0.05427 0.0
H693 H 0.63138 0.52107 0.86263 0.0
H694 H 0.64084 0.51442 0.9296 0.0
H695 H 0.63435 0.53726 0.91789 0.0
C696 C 0.64405 0.5003 0.09557 0.0
C697 C 0.65518 0.51538 0.10142 0.0
C698 C 0.62877 0.50098 0.06144 0.0
C699 C 0.62427 0.5167 0.03228 0.0
C700 C 0.63476 0.53207 0.0405 0.0
H701 H 0.5261 0.52772 0.82651 0.0
H702 H 0.54896 0.53224 0.89969 0.0
C703 C 0.65009 0.5314 0.07453 0.0
C704 C 0.60928 0.5166 0.9908 0.0
H705 H 0.60019 0.52024 0.84959 0.0
C706 C 0.59194 0.51244 0.00956 0.0
C707 C 0.61227 0.51945 0.93233 0.0
C708 C 0.63072 0.52315 0.90911 0.0
C709 C 0.57756 0.51091 0.9714 0.0
C710 C 0.58057 0.51381 0.91299 0.0
C711 C 0.59786 0.51816 0.8944 0.0
C712 C 0.56634 0.51111 0.86978 0.0
C713 C 0.55941 0.50557 0.99358 0.0
C714 C 0.56859 0.49794 0.82818 0.0
C715 C 0.55565 0.49539 0.78633 0.0
C716 C 0.54012 0.50603 0.78479 0.0
C717 C 0.53785 0.51925 0.82653 0.0
C718 C 0.55086 0.52179 0.86859 0.0
H719 H 0.56012 0.50036 0.03753 0.0
H720 H 0.55048 0.51742 0.99345 0.0
H721 H 0.55328 0.4952 0.96615 0.0
H722 H 0.58042 0.48956 0.82812 0.0
H723 H 0.55793 0.48508 0.75499 0.0
H724 H 0.02186 0.652 0.13025 0.0
H725 H 0.02019 0.62531 0.07085 0.0
H726 H 0.96642 0.63928 0.02224 0.0
H727 H 0.96779 0.66584 0.08272 0.0
H728 H 0.97185 0.60174 0.04363 0.0
H729 H 0.02237 0.63017 0.89646 0.0
H730 H 0.02921 0.62904 0.96923 0.0
H731 H 0.01111 0.64351 0.94917 0.0
C732 C 0.0095 0.64922 0.10805 0.0
C733 C 0.99498 0.66117 0.1111 0.0
C734 C 0.00866 0.63403 0.07357 0.0
C735 C 0.9933 0.63047 0.04132 0.0
C736 C 0.97845 0.64184 0.04644 0.0
H737 H 0.98559 0.56611 0.73797 0.0
H738 H 0.98456 0.58958 0.80969 0.0
C739 C 0.97929 0.65706 0.08083 0.0
C740 C 0.99307 0.61547 1.00007 0.0
H741 H 0.01269 0.60066 0.87825 0.0
C742 C 0.98078 0.60146 0.00751 0.0
C743 C 0.00457 0.61527 0.9525 0.0
C744 C 0.01747 0.63035 0.94083 0.0
C745 C 0.97986 0.58714 0.96898 0.0
C746 C 0.99162 0.58677 0.92206 0.0
C747 C 0.00377 0.60088 0.91442 0.0
C748 C 0.99134 0.57213 0.87947 0.0
C749 C 0.96605 0.57272 0.9781 0.0
C750 C 0.9955 0.55446 0.89476 0.0
C751 C 0.99611 0.54095 0.85373 0.0
C752 C 0.99263 0.54487 0.79652 0.0
C753 C 0.98831 0.56256 0.78155 0.0
C754 C 0.98773 0.57604 0.82253 0.0
H755 H 0.95539 0.57707 0.00781 0.0
H756 H 0.95976 0.56878 0.93742 0.0
H757 H 0.97264 0.56074 0.99631 0.0
H758 H 0.99866 0.55118 0.93824 0.0
H759 H 0.99957 0.5275 0.86676 0.0
H760 H 0.92385 0.22486 0.2912 0.0
H761 H 0.90756 0.20213 0.34508 0.0
H762 H 0.95574 0.18977 0.43774 0.0
H763 H 0.97174 0.21287 0.38613 0.0
H764 H 0.91549 0.16877 0.3324 0.0
H765 H 0.92028 0.18187 0.55989 0.0
H766 H 0.92397 0.19931 0.50821 0.0
H767 H 0.9421 0.18495 0.53044 0.0
C768 C 0.93074 0.2178 0.32477 0.0
C769 C 0.94913 0.22043 0.33398 0.0
C770 C 0.92142 0.20479 0.35542 0.0
C771 C 0.93035 0.19429 0.39584 0.0
C772 C 0.94837 0.19792 0.40792 0.0
H773 H 0.95261 0.09039 0.42408 0.0
H774 H 0.9436 0.1206 0.39792 0.0
C775 C 0.95763 0.21095 0.37763 0.0
C776 C 0.92237 0.1774 0.4168 0.0
H777 H 0.92414 0.14985 0.53155 0.0
C778 C 0.91674 0.16484 0.37639 0.0
C779 C 0.92349 0.17222 0.47426 0.0
C780 C 0.9276 0.18544 0.52057 0.0
C781 C 0.91451 0.14681 0.39074 0.0
C782 C 0.91835 0.14122 0.44649 0.0
C783 C 0.92166 0.15409 0.48838 0.0
C784 C 0.92221 0.12228 0.45953 0.0
C785 C 0.90924 0.13373 0.34517 0.0
C786 C 0.91333 0.11329 0.5034 0.0
C787 C 0.91857 0.09598 0.51869 0.0
C788 C 0.93295 0.08761 0.49089 0.0
C789 C 0.94157 0.09657 0.44641 0.0
C790 C 0.93628 0.11374 0.431 0.0
H791 H 0.90045 0.14021 0.31331 0.0
H792 H 0.92144 0.12904 0.32291 0.0
H793 H 0.90221 0.12194 0.36311 0.0
H794 H 0.9026 0.11978 0.52637 0.0
H795 H 0.91183 0.08941 0.55352 0.0
H796 H 0.29126 0.97549 0.39778 0.0
H797 H 0.31441 0.95987 0.45146 0.0
H798 H 0.30756 0.91325 0.34643 0.0
H799 H 0.28455 0.92895 0.2917 0.0
H800 H 0.31893 0.92461 0.50867 0.0
H801 H 0.35838 0.93371 0.31015 0.0
H802 H 0.33753 0.94529 0.32152 0.0
H803 H 0.33753 0.92179 0.30628 0.0
C804 C 0.29441 0.96177 0.38695 0.0
C805 C 0.2864 0.95353 0.33999 0.0
C806 C 0.3075 0.95281 0.41792 0.0
C807 C 0.3128 0.93552 0.40231 0.0
C808 C 0.30367 0.92664 0.35878 0.0
H809 H 0.42457 0.91364 0.47498 0.0
H810 H 0.39411 0.90529 0.44856 0.0
C811 C 0.29052 0.9356 0.32774 0.0
C812 C 0.32974 0.92843 0.42512 0.0
H813 H 0.37403 0.92669 0.39198 0.0
C814 C 0.33097 0.92459 0.48305 0.0
C815 C 0.34536 0.92831 0.39138 0.0
C816 C 0.3448 0.93255 0.32892 0.0
C817 C 0.34763 0.92167 0.50884 0.0
C818 C 0.36339 0.92316 0.47596 0.0
C819 C 0.36197 0.92558 0.41726 0.0
C820 C 0.38137 0.92513 0.50166 0.0
C821 C 0.34817 0.91756 0.57126 0.0
C822 C 0.38435 0.93874 0.54142 0.0
C823 C 0.40171 0.94335 0.55722 0.0
C824 C 0.4165 0.93474 0.53262 0.0
C825 C 0.41349 0.92049 0.49498 0.0
C826 C 0.39607 0.91573 0.47971 0.0
H827 H 0.33632 0.90955 0.58401 0.0
H828 H 0.36047 0.91014 0.58313 0.0
H829 H 0.34772 0.93027 0.59543 0.0
H830 H 0.37333 0.94656 0.55789 0.0
H831 H 0.40353 0.95413 0.58725 0.0
H832 H 0.57842 0.30041 0.28383 0.0
H833 H 0.58905 0.3221 0.35226 0.0
H834 H 0.57113 0.28837 0.48882 0.0
H835 H 0.56113 0.26594 0.42043 0.0
H836 H 0.5549 0.32319 0.47982 0.0
H837 H 0.62876 0.32754 0.47514 0.0
H838 H 0.61882 0.32563 0.40622 0.0
H839 H 0.61665 0.30751 0.45579 0.0
C840 C 0.57741 0.2971 0.32829 0.0
C841 C 0.56871 0.28141 0.34637 0.0
C842 C 0.58353 0.3096 0.36749 0.0
C843 C 0.58101 0.30676 0.42554 0.0
C844 C 0.57332 0.29071 0.44412 0.0
H845 H 0.56714 0.40476 0.62301 0.0
H846 H 0.57283 0.37285 0.61222 0.0
C847 C 0.56741 0.27803 0.40488 0.0
C848 C 0.58322 0.322 0.46464 0.0
H849 H 0.61297 0.35448 0.50167 0.0
C850 C 0.56764 0.32984 0.48626 0.0
C851 C 0.59985 0.33056 0.47245 0.0
C852 C 0.61702 0.3223 0.45162 0.0
C853 C 0.56796 0.34691 0.51066 0.0
C854 C 0.58451 0.35606 0.51545 0.0
C855 C 0.60031 0.3475 0.49796 0.0
C856 C 0.58521 0.37535 0.52984 0.0
C857 C 0.55034 0.35553 0.52615 0.0
C858 C 0.59179 0.38749 0.48963 0.0
C859 C 0.58916 0.40582 0.49657 0.0
C860 C 0.5796 0.41237 0.54342 0.0
C861 C 0.57449 0.40028 0.5862 0.0
C862 C 0.5775 0.38194 0.57977 0.0
H863 H 0.53871 0.34799 0.50923 0.0
H864 H 0.549 0.35597 0.57285 0.0
H865 H 0.54963 0.36942 0.50974 0.0
H866 H 0.59802 0.38274 0.45107 0.0
H867 H 0.59384 0.41476 0.46372 0.0
H868 H 0.23708 0.53896 0.41425 0.0
H869 H 0.2177 0.55247 0.48642 0.0
H870 H 0.17189 0.52677 0.4114 0.0
H871 H 0.19074 0.51394 0.33837 0.0
H872 H 0.18606 0.57531 0.4603 0.0
H873 H 0.16924 0.51512 0.58521 0.0
H874 H 0.18935 0.51683 0.54296 0.0
H875 H 0.16838 0.51102 0.51044 0.0
C876 C 0.22287 0.5362 0.41315 0.0
C877 C 0.2155 0.52526 0.37057 0.0
C878 C 0.21189 0.54383 0.4546 0.0
C879 C 0.19348 0.54035 0.45452 0.0
C880 C 0.18616 0.52927 0.41276 0.0
H881 H 0.0941 0.57605 0.47302 0.0
H882 H 0.12657 0.57609 0.46462 0.0
C883 C 0.19701 0.52186 0.37116 0.0
C884 C 0.18126 0.54908 0.49489 0.0
H885 H 0.14623 0.53798 0.57944 0.0
C886 C 0.17766 0.56736 0.48801 0.0
C887 C 0.17066 0.53879 0.53201 0.0
C888 C 0.17472 0.51938 0.54362 0.0
C889 C 0.16234 0.57509 0.5121 0.0
C890 C 0.15034 0.56412 0.54268 0.0
C891 C 0.15524 0.54641 0.55527 0.0
C892 C 0.13146 0.56928 0.55246 0.0
C893 C 0.1587 0.59465 0.50188 0.0
C894 C 0.12332 0.56589 0.60488 0.0
C895 C 0.10471 0.56555 0.60938 0.0
C896 C 0.09397 0.56869 0.56158 0.0
C897 C 0.10209 0.57376 0.51057 0.0
C898 C 0.12069 0.57391 0.50592 0.0
H899 H 0.17139 0.60236 0.50137 0.0
H900 H 0.15233 0.59631 0.45981 0.0
H901 H 0.14971 0.60035 0.53465 0.0
H902 H 0.13133 0.56222 0.64126 0.0
H903 H 0.0987 0.56175 0.64933 0.0
H904 H 0.10155 0.79149 0.03982 0.0
H905 H 0.11347 0.8158 0.98111 0.0
H906 H 0.06172 0.8225 0.90357 0.0
H907 H 0.04964 0.79872 0.96229 0.0
H908 H 0.09263 0.82589 0.82706 0.0
H909 H 0.09677 0.86746 0.02265 0.0
H910 H 0.10827 0.84633 0.02117 0.0
H911 H 0.08428 0.84683 0.02112 0.0
C912 C 0.09276 0.79803 0.00983 0.0
C913 C 0.07458 0.79323 0.00617 0.0
C914 C 0.09963 0.81183 0.97618 0.0
C915 C 0.08842 0.82098 0.93845 0.0
C916 C 0.07061 0.8155 0.93223 0.0
H917 H 0.05793 0.90968 0.76336 0.0
H918 H 0.06749 0.8798 0.78999 0.0
C919 C 0.06374 0.80181 0.96582 0.0
C920 C 0.09422 0.83761 0.91007 0.0
H921 H 0.09834 0.88223 0.93608 0.0
C922 C 0.09436 0.83818 0.85076 0.0
C923 C 0.09662 0.85357 0.94118 0.0
C924 C 0.09644 0.85369 0.00505 0.0
C925 C 0.09563 0.85451 0.82172 0.0
C926 C 0.09633 0.87062 0.85296 0.0
C927 C 0.09774 0.86988 0.91213 0.0
C928 C 0.09264 0.88825 0.82675 0.0
C929 C 0.09552 0.85435 0.75795 0.0
C930 C 0.10359 0.90306 0.83833 0.0
C931 C 0.09804 0.9203 0.82351 0.0
C932 C 0.08141 0.92301 0.797 0.0
C933 C 0.07096 0.90806 0.78278 0.0
C934 C 0.07647 0.89089 0.79778 0.0
H935 H 0.10221 0.84215 0.74148 0.0
H936 H 0.08148 0.85414 0.74274 0.0
H937 H 0.1023 0.86631 0.74017 0.0
H938 H 0.11606 0.90135 0.86105 0.0
H939 H 0.10645 0.93156 0.83456 0.0
H940 H 0.71652 0.05795 0.96976 0.0
H941 H 0.69237 0.0684 0.90976 0.0
H942 H 0.69106 0.11842 1.00023 0.0
H943 H 0.71578 0.10821 0.06017 0.0
H944 H 0.65906 0.10017 1.00113 0.0
H945 H 0.68424 0.10412 0.78211 0.0
H946 H 0.69098 0.08369 0.8157 0.0
H947 H 0.69891 0.10474 0.84288 0.0
C948 C 0.71169 0.07147 0.97567 0.0
C949 C 0.71811 0.0822 0.02011 0.0
C950 C 0.69783 0.07745 0.94109 0.0
C951 C 0.69006 0.09428 0.95001 0.0
C952 C 0.69699 0.10543 0.99238 0.0
H953 H 0.57798 0.10778 0.84189 0.0
H954 H 0.60781 0.11805 0.87046 0.0
C955 C 0.71099 0.09951 0.02689 0.0
C956 C 0.67296 0.0986 0.9216 0.0
H957 H 0.6526 0.09689 0.79264 0.0
C958 C 0.65763 0.10003 0.95547 0.0
C959 C 0.67119 0.09839 0.86211 0.0
C960 C 0.68726 0.09784 0.82363 0.0
C961 C 0.64045 0.09952 0.93172 0.0
C962 C 0.63864 0.09799 0.8723 0.0
C963 C 0.65402 0.098 0.83816 0.0
C964 C 0.62121 0.09358 0.84609 0.0
C965 C 0.62447 0.0991 0.97081 0.0
C966 C 0.61905 0.07686 0.82015 0.0
C967 C 0.60215 0.07105 0.80343 0.0
C968 C 0.58703 0.08185 0.81244 0.0
C969 C 0.58936 0.09907 0.83524 0.0
C970 C 0.60636 0.10494 0.85158 0.0
H971 H 0.6284 0.09743 0.01582 0.0
H972 H 0.61697 0.11184 0.96695 0.0
H973 H 0.61531 0.088 0.95923 0.0
H974 H 0.63033 0.06786 0.8156 0.0
H975 H 0.6008 0.05766 0.78651 0.0
H976 H 0.43435 0.69346 0.11312 0.0
H977 H 0.42604 0.66941 0.04933 0.0
H978 H 0.42206 0.70691 0.91137 0.0
H979 H 0.43005 0.7314 0.97555 0.0
H980 H 0.39678 0.66288 0.96892 0.0
H981 H 0.46388 0.67222 0.86972 0.0
H982 H 0.45823 0.68236 0.93658 0.0
H983 H 0.44899 0.6911 0.87222 0.0
C984 C 0.4311 0.69682 0.06977 0.0
C985 C 0.43303 0.7144 0.04943 0.0
C986 C 0.42642 0.68298 0.03325 0.0
C987 C 0.42368 0.68638 0.97564 0.0
C988 C 0.42434 0.70404 0.95569 0.0
H989 H 0.43854 0.59677 0.74215 0.0
H990 H 0.43005 0.62686 0.773 0.0
C991 C 0.42897 0.71797 0.99235 0.0
C992 C 0.42241 0.67107 0.93643 0.0
H993 H 0.44828 0.64616 0.84763 0.0
C994 C 0.40784 0.65936 0.94138 0.0
C995 C 0.43684 0.6666 0.90045 0.0
C996 C 0.45296 0.67862 0.89431 0.0
C997 C 0.40773 0.64282 0.91332 0.0
C998 C 0.42278 0.63778 0.88074 0.0
C999 C 0.43678 0.65003 0.8728 0.0
C1000 C 0.4254 0.61926 0.86011 0.0
C1001 C 0.3917 0.63077 0.92001 0.0
C1002 C 0.42555 0.60501 0.89879 0.0
C1003 C 0.43041 0.58786 0.88134 0.0
C1004 C 0.43544 0.58468 0.825 0.0
C1005 C 0.43489 0.59887 0.78599 0.0
C1006 C 0.42993 0.61602 0.80343 0.0
H1007 H 0.37932 0.63869 0.92696 0.0
H1008 H 0.3898 0.62211 0.88235 0.0
H1009 H 0.39365 0.6221 0.95762 0.0
H1010 H 0.42268 0.60728 0.94311 0.0
H1011 H 0.43097 0.57726 0.91254 0.0
H1012 H 0.8057 0.43082 0.03908 0.0
H1013 H 0.82758 0.42025 0.97091 0.0
H1014 H 0.78964 0.42802 0.83569 0.0
H1015 H 0.76744 0.43877 0.90429 0.0
H1016 H 0.8293 0.39342 0.8879 0.0
H1017 H 0.83038 0.46201 0.79453 0.0
H1018 H 0.8189 0.45735 0.85994 0.0
H1019 H 0.80956 0.45002 0.79396 0.0
C1020 C 0.80176 0.42984 0.99513 0.0
C1021 C 0.78485 0.43577 0.97709 0.0
C1022 C 0.81432 0.4238 0.9561 0.0
C1023 C 0.81031 0.42358 0.89819 0.0
C1024 C 0.79308 0.42838 0.88015 0.0
H1025 H 0.90631 0.43123 0.68899 0.0
H1026 H 0.875 0.42292 0.70421 0.0
C1027 C 0.78045 0.43453 0.91933 0.0
C1028 C 0.82503 0.42027 0.85765 0.0
H1029 H 0.85428 0.44323 0.77411 0.0
C1030 C 0.83453 0.40412 0.8617 0.0
C1031 C 0.83175 0.43419 0.82306 0.0
C1032 C 0.82224 0.45192 0.81753 0.0
C1033 C 0.85133 0.40211 0.83603 0.0
C1034 C 0.85881 0.41667 0.8062 0.0
C1035 C 0.84851 0.4321 0.79728 0.0
C1036 C 0.87818 0.41773 0.79365 0.0
C1037 C 0.86133 0.38477 0.84364 0.0
C1038 C 0.89039 0.41727 0.83867 0.0
C1039 C 0.90816 0.42228 0.8304 0.0
C1040 C 0.91411 0.4279 0.77686 0.0
C1041 C 0.90211 0.42724 0.73098 0.0
C1042 C 0.88425 0.42234 0.73942 0.0
H1043 H 0.85191 0.37333 0.84721 0.0
H1044 H 0.87066 0.38226 0.80795 0.0
H1045 H 0.86919 0.38536 0.88341 0.0
H1046 H 0.88591 0.41427 0.88121 0.0
H1047 H 0.91686 0.42291 0.86695 0.0
H1048 H 0.04272 0.19868 0.90657 0.0
H1049 H 0.04199 0.16919 0.86092 0.0
H1050 H 0.98468 0.16765 0.87949 0.0
H1051 H 0.98527 0.19695 0.92531 0.0
H1052 H 0.00462 0.13629 0.92127 0.0
H1053 H 0.02157 0.15513 0.69992 0.0
H1054 H 0.03544 0.16425 0.75508 0.0
H1055 H 0.01247 0.17095 0.74999 0.0
C1056 C 0.02995 0.19212 0.90048 0.0
C1057 C 0.01405 0.20027 0.91931 0.0
C1058 C 0.02955 0.17532 0.87414 0.0
C1059 C 0.01326 0.16628 0.86645 0.0
C1060 C 0.99738 0.17443 0.88466 0.0
H1061 H 0.98453 0.06891 0.68714 0.0
H1062 H 0.98688 0.09949 0.72354 0.0
C1063 C 0.99774 0.19127 0.91047 0.0
C1064 C 0.01278 0.14793 0.84212 0.0
H1065 H 0.01889 0.12424 0.7199 0.0
C1066 C 0.00778 0.13364 0.87729 0.0
C1067 C 0.01677 0.14453 0.78463 0.0
C1068 C 0.02177 0.15949 0.74483 0.0
C1069 C 0.00682 0.11604 0.85663 0.0
C1070 C 0.01098 0.1126 0.79929 0.0
C1071 C 0.01581 0.1269 0.76392 0.0
C1072 C 0.0101 0.09422 0.7754 0.0
C1073 C 1.00111 0.10122 0.89603 0.0
C1074 C 0.02254 0.08116 0.79186 0.0
C1075 C 0.02131 0.06367 0.77092 0.0
C1076 C 0.00754 0.05885 0.73327 0.0
C1077 C 0.99525 0.07208 0.71626 0.0
C1078 C 0.99659 0.0896 0.73688 0.0
H1079 H 0.99543 0.10646 0.93616 0.0
H1080 H 0.99099 0.09254 0.87534 0.0
H1081 H 0.01287 0.09279 0.90645 0.0
H1082 H 0.03315 0.08447 0.82122 0.0
H1083 H 0.03102 0.05388 0.78499 0.0
H1084 H 0.31064 0.04639 0.9146 0.0
H1085 H 0.3403 0.0453 0.87004 0.0
H1086 H 0.34078 0.98792 0.88674 0.0
H1087 H 0.31129 0.98887 0.93141 0.0
H1088 H 0.37238 0.00748 0.93065 0.0
H1089 H 0.35462 0.02486 0.70873 0.0
H1090 H 0.34536 0.03866 0.76385 0.0
H1091 H 0.33852 0.01575 0.75797 0.0
C1092 C 0.31699 0.03353 0.90832 0.0
C1093 C 0.30849 0.01771 0.92629 0.0
C1094 C 0.33391 0.03292 0.88262 0.0
C1095 C 0.34271 0.01651 0.87475 0.0
C1096 C 0.3342 1.00071 0.89208 0.0
H1097 H 0.44015 0.98663 0.69785 0.0
H1098 H 0.40955 0.98937 0.73388 0.0
C1099 C 0.31725 1.00128 0.91722 0.0
C1100 C 0.36115 0.01581 0.85111 0.0
H1101 H 0.38538 0.02166 0.72975 0.0
C1102 C 0.37524 0.01062 0.88678 0.0
C1103 C 0.36482 0.01978 0.79377 0.0
C1104 C 0.35008 0.02498 0.75347 0.0
C1105 C 0.39292 0.00945 0.86675 0.0
C1106 C 0.39663 0.01358 0.80954 0.0
C1107 C 0.38252 0.01861 0.77368 0.0
C1108 C 0.41508 0.01242 0.7862 0.0
C1109 C 0.40752 0.00353 0.90664 0.0
C1110 C 0.42832 0.02461 0.80308 0.0
C1111 C 0.44583 0.02316 0.78234 0.0
C1112 C 0.4505 0.00939 0.74451 0.0
C1113 C 0.43711 0.99733 0.72719 0.0
C1114 C 0.41957 0.9989 0.74758 0.0
H1115 H 0.40205 0.99793 0.9466 0.0
H1116 H 0.41613 0.9933 0.88625 0.0
H1117 H 0.41607 0.01518 0.91734 0.0
H1118 H 0.42511 0.03523 0.83252 0.0
H1119 H 0.45574 0.0327 0.79661 0.0
H1120 H 0.51636 0.30015 0.86119 0.0
H1121 H 0.51466 0.329 0.81232 0.0
H1122 H 0.47643 0.34765 0.93531 0.0
H1123 H 0.4784 0.31909 0.98533 0.0
H1124 H 0.48566 0.34843 0.76459 0.0
H1125 H 0.51672 0.38497 0.94376 0.0
H1126 H 0.51712 0.3609 0.9385 0.0
H1127 H 0.49726 0.37217 0.96226 0.0
C1128 C 0.50756 0.31038 0.87786 0.0
C1129 C 0.49764 0.30729 0.92759 0.0
C1130 C 0.50654 0.32684 0.84966 0.0
C1131 C 0.49567 0.34062 0.87071 0.0
C1132 C 0.48515 0.33733 0.91882 0.0
H1133 H 0.48022 0.45262 0.78602 0.0
H1134 H 0.47882 0.4225 0.82577 0.0
C1135 C 0.48614 0.32088 0.94701 0.0
C1136 C 0.49579 0.35859 0.84345 0.0
H1137 H 0.50596 0.40248 0.86777 0.0
C1138 C 0.49012 0.36026 0.78705 0.0
C1139 C 0.50169 0.37401 0.87271 0.0
C1140 C 0.5087 0.37299 0.93248 0.0
C1141 C 0.48981 0.37698 0.75959 0.0
C1142 C 0.49567 0.39242 0.78894 0.0
C1143 C 0.5014 0.39069 0.84526 0.0
C1144 C 0.49593 0.41053 0.76245 0.0
C1145 C 0.48278 0.378 0.69987 0.0
C1146 C 0.50607 0.41394 0.71355 0.0
C1147 C 0.50684 0.4312 0.69042 0.0
C1148 C 0.49764 0.44549 0.71608 0.0
C1149 C 0.48748 0.442 0.76502 0.0
C1150 C 0.48666 0.42475 0.7879 0.0
H1151 H 0.47428 0.36627 0.68936 0.0
H1152 H 0.47484 0.39037 0.69321 0.0
H1153 H 0.49422 0.37816 0.66997 0.0
H1154 H 0.51371 0.40334 0.69385 0.0
H1155 H 0.51494 0.43339 0.65307 0.0
H1156 H 0.19283 0.461 0.89515 0.0
H1157 H 0.16332 0.46306 0.84998 0.0
H1158 H 0.16129 0.51936 0.88816 0.0
H1159 H 0.1907 0.51743 0.93333 0.0
H1160 H 0.13006 0.49619 0.92428 0.0
H1161 H 0.14882 0.49053 0.69709 0.0
H1162 H 0.15902 0.47512 0.74604 0.0
H1163 H 0.16427 0.49847 0.75023 0.0
C1164 C 0.18618 0.47385 0.89341 0.0
C1165 C 0.19419 0.48907 0.91764 0.0
C1166 C 0.16936 0.47502 0.86742 0.0
C1167 C 0.16016 0.49138 0.86553 0.0
C1168 C 0.16821 0.50662 0.88889 0.0
H1169 H 0.06262 0.5247 0.69752 0.0
H1170 H 0.09302 0.52136 0.73385 0.0
C1171 C 0.18509 0.50552 0.91432 0.0
C1172 C 0.14174 0.49245 0.84197 0.0
H1173 H 0.11796 0.49149 0.71849 0.0
C1174 C 0.12739 0.49511 0.87932 0.0
C1175 C 0.13833 0.49118 0.7833 0.0
C1176 C 0.15337 0.48877 0.74148 0.0
C1177 C 0.10969 0.49641 0.85957 0.0
C1178 C 0.10623 0.49494 0.80092 0.0
C1179 C 0.12062 0.49246 0.76348 0.0
C1180 C 0.08779 0.49652 0.77764 0.0
C1181 C 0.09482 0.4997 0.90146 0.0
C1182 C 0.07474 0.48354 0.78959 0.0
C1183 C 0.0573 0.48532 0.76849 0.0
C1184 C 0.05252 0.50019 0.73516 0.0
C1185 C 0.06573 0.51308 0.72299 0.0
C1186 C 0.08317 0.5112 0.74368 0.0
H1187 H 0.10002 0.5039 0.94342 0.0
H1188 H 0.08554 0.51014 0.88552 0.0
H1189 H 0.08704 0.48719 0.90725 0.0
H1190 H 0.07806 0.472 0.81524 0.0
H1191 H 0.04754 0.47511 0.77866 0.0
H1192 H 0.02027 0.80348 0.49328 0.0
H1193 H 0.01789 0.83186 0.54437 0.0
H1194 H 0.98343 0.85256 0.41359 0.0
H1195 H 0.98571 0.82429 0.36248 0.0
H1196 H 0.02873 0.86453 0.50785 0.0
H1197 H 0.95617 0.86693 0.55387 0.0
H1198 H 0.96727 0.84673 0.5311 0.0
H1199 H 0.96081 0.86346 0.48025 0.0
C1200 C 0.01203 0.81401 0.47568 0.0
C1201 C 1.00313 0.81153 0.42379 0.0
C1202 C 0.01065 0.83023 0.50501 0.0
C1203 C 1.00029 0.84432 0.48331 0.0
C1204 C 0.99113 0.84177 0.43207 0.0
H1205 H 0.98461 0.95664 0.5472 0.0
H1206 H 0.98483 0.92586 0.5128 0.0
C1207 C 0.99245 0.82555 0.40282 0.0
C1208 C 1.00007 0.86207 0.51206 0.0
H1209 H 0.97224 0.89441 0.56413 0.0
C1210 C 0.01639 0.87097 0.52079 0.0
C1211 C 0.98397 0.87051 0.52894 0.0
C1212 C 0.96608 0.86135 0.52361 0.0
C1213 C 0.01702 0.88828 0.544 0.0
C1214 C 1.00089 0.89687 0.55971 0.0
C1215 C 0.9846 0.88785 0.55195 0.0
C1216 C 1.00059 0.91548 0.58211 0.0
C1217 C 0.0349 0.89748 0.54959 0.0
C1218 C 0.00919 0.9199 0.63307 0.0
C1219 C 0.00911 0.93756 0.65299 0.0
C1220 C 1.00036 0.95116 0.62243 0.0
C1221 C 0.99154 0.94658 0.57186 0.0
C1222 C 0.9916 0.92895 0.5521 0.0
H1223 H 0.04541 0.89079 0.524 0.0
H1224 H 0.03397 0.91169 0.53622 0.0
H1225 H 0.03916 0.89717 0.59453 0.0
H1226 H 0.01597 0.90968 0.6575 0.0
H1227 H 0.01603 0.94055 0.69211 0.0
H1228 H 0.68479 0.98907 0.35885 0.0
H1229 H 0.65589 0.98627 0.40648 0.0
H1230 H 0.67526 0.01863 0.54424 0.0
H1231 H 0.70443 0.02107 0.49771 0.0
H1232 H 0.65427 0.98921 0.57977 0.0
H1233 H 0.62037 0.02809 0.41089 0.0
H1234 H 0.63239 0.00886 0.38594 0.0
H1235 H 0.6444 0.02714 0.41748 0.0
C1236 C 0.68308 0.99528 0.39985 0.0
C1237 C 0.69696 0.00541 0.42417 0.0
C1238 C 0.66644 0.99386 0.42672 0.0
C1239 C 0.66326 1.00258 0.47835 0.0
C1240 C 0.67733 0.01194 0.50415 0.0
H1241 H 0.56872 0.01698 0.69336 0.0
H1242 H 0.59916 0.0169 0.65504 0.0
C1243 C 0.69398 0.01339 0.47732 0.0
C1244 C 0.64511 1.00248 0.50437 0.0
H1245 H 0.6018 0.01509 0.48079 0.0
C1246 C 0.6428 0.99491 0.55827 0.0
C1247 C 0.63015 0.01002 0.47641 0.0
C1248 C 0.6319 0.01915 0.41972 0.0
C1249 C 0.62586 0.99426 0.58427 0.0
C1250 C 0.61087 1.00167 0.55606 0.0
C1251 C 0.61325 0.00935 0.50237 0.0
C1252 C 0.59253 1.00136 0.58074 0.0
C1253 C 0.62407 0.98522 0.64105 0.0
C1254 C 0.57855 0.99298 0.55132 0.0
C1255 C 0.56112 0.99311 0.57285 0.0
C1256 C 0.55719 1.00171 0.62435 0.0
C1257 C 0.57123 0.01011 0.65384 0.0
C1258 C 0.5887 0.00999 0.63213 0.0
H1259 H 0.63563 0.97634 0.65016 0.0
H1260 H 0.62348 0.99556 0.67464 0.0
H1261 H 0.61159 0.97719 0.64325 0.0
H1262 H 0.58113 0.98631 0.51147 0.0
H1263 H 0.55071 0.98651 0.54882 0.0
H1264 H 0.54154 0.68563 0.38526 0.0
H1265 H 0.54095 0.6563 0.43147 0.0
H1266 H 0.48937 0.66852 0.50317 0.0
H1267 H 0.48957 0.69757 0.45584 0.0
H1268 H 0.53727 0.64558 0.54604 0.0
H1269 H 0.48025 0.62211 0.41525 0.0
H1270 H 0.49285 0.64199 0.39824 0.0
H1271 H 0.47613 0.64255 0.45286 0.0
C1272 C 0.53008 0.68211 0.41096 0.0
C1273 C 0.51554 0.69398 0.41637 0.0
C1274 C 0.52981 0.66536 0.43758 0.0
C1275 C 0.51497 0.66006 0.4699 0.0
C1276 C 0.50083 0.67218 0.47759 0.0
H1277 H 0.48284 0.56072 0.63271 0.0
H1278 H 0.48533 0.59151 0.59896 0.0
C1279 C 0.50108 0.68891 0.45104 0.0
C1280 C 0.51399 0.64168 0.49396 0.0
H1281 H 0.48972 0.60297 0.48906 0.0
C1282 C 0.5269 0.63624 0.53353 0.0
C1283 C 0.50048 0.62947 0.47752 0.0
C1284 C 0.48672 0.63421 0.43327 0.0
C1285 C 0.52646 0.61905 0.55788 0.0
C1286 C 0.51294 0.60686 0.54144 0.0
C1287 C 0.50005 0.61232 0.50184 0.0
C1288 C 0.51192 0.58831 0.56427 0.0
C1289 C 0.54026 0.61425 0.60189 0.0
C1290 C 0.526 0.57616 0.55586 0.0
C1291 C 0.52465 0.5585 0.57524 0.0
C1292 C 0.5091 0.55254 0.60313 0.0
C1293 C 0.49504 0.56478 0.61158 0.0
C1294 C 0.49642 0.58243 0.59223 0.0
H1295 H 0.54645 0.62635 0.62085 0.0
H1296 H 0.53427 0.60607 0.63624 0.0
H1297 H 0.55105 0.6063 0.58174 0.0
H1298 H 0.53794 0.58023 0.53331 0.0
H1299 H 0.53572 0.54947 0.56766 0.0
H1300 H 0.81141 0.53038 0.38196 0.0
H1301 H 0.83917 0.53423 0.43382 0.0
H1302 H 0.83666 0.47934 0.48927 0.0
H1303 H 0.80774 0.47607 0.44448 0.0
H1304 H 0.85061 0.49592 0.56704 0.0
H1305 H 0.88576 0.52022 0.3762 0.0
H1306 H 0.86819 0.53522 0.396 0.0
H1307 H 0.86292 0.51273 0.37378 0.0
C1308 C 0.81637 0.51919 0.40636 0.0
C1309 C 0.8072 0.5027 0.40721 0.0
C1310 C 0.83265 0.52132 0.43507 0.0
C1311 C 0.84066 0.50685 0.46346 0.0
C1312 C 0.83111 0.49071 0.4669 0.0
H1313 H 0.9552 0.50036 0.52359 0.0
H1314 H 0.92468 0.49938 0.48665 0.0
C1315 C 0.81454 0.48876 0.44008 0.0
C1316 C 0.85897 0.50828 0.48901 0.0
H1317 H 0.90183 0.52182 0.46232 0.0
C1318 C 0.86182 0.50146 0.54379 0.0
C1319 C 0.87385 0.5152 0.4588 0.0
C1320 C 0.87258 0.52106 0.39777 0.0
C1321 C 0.87893 0.50114 0.56867 0.0
C1322 C 0.8936 0.50894 0.5396 0.0
C1323 C 0.8907 0.51597 0.48518 0.0
C1324 C 0.9122 0.5093 0.56329 0.0
C1325 C 0.88108 0.49165 0.62465 0.0
C1326 C 0.91565 0.51527 0.61873 0.0
C1327 C 0.93309 0.51517 0.64053 0.0
C1328 C 0.94757 0.50994 0.60651 0.0
C1329 C 0.94428 0.50458 0.5506 0.0
C1330 C 0.9268 0.50405 0.52948 0.0
H1331 H 0.87048 0.48141 0.63094 0.0
H1332 H 0.89428 0.48493 0.62791 0.0
H1333 H 0.87984 0.5015 0.6595 0.0
H1334 H 0.90489 0.52011 0.64523 0.0
H1335 H 0.93532 0.51955 0.68364 0.0
loop_
_geom_bond_atom_site_label_1
_geom_bond_atom_site_label_2
_geom_bond_distance
_geom_bond_site_symmetry_2
_ccdc_geom_bond_type
C0 C1 1.386 . S
C0 C2 1.397 . S
C0 H24 0.931 . S
C1 C0 1.386 . S
C1 C5 1.397 . S
C2 C0 1.397 . S
C2 C3 1.384 . S
C2 H25 0.930 . S
C3 C2 1.384 . S
C3 C4 1.377 . S
C3 C6 1.481 . S
C4 C3 1.377 . S
C4 C5 1.389 . S
C4 H26 0.929 . S
C5 C1 1.397 . S
C5 C4 1.389 . S
C5 H27 0.931 . S
C6 C3 1.481 . S
C6 C7 1.387 . S
C6 C11 1.390 . S
C7 C6 1.387 . S
C7 C8 1.401 . S
C7 H28 0.930 . S
C8 C7 1.401 . S
C8 C9 1.376 . S
C8 C17 1.511 . S
C9 C8 1.376 . S
C9 C10 1.392 . S
C9 H30 0.931 . S
C10 C9 1.392 . S
C10 C11 1.361 . S
C10 C12 1.500 . S
C11 C6 1.390 . S
C11 C10 1.361 . S
C11 H29 0.931 . S
C12 C10 1.500 . S
C12 C13 1.371 . S
C12 C14 1.365 . S
C13 C12 1.371 . S
C13 C23 1.386 . S
C13 H31 0.931 . S
C14 C12 1.365 . S
C14 C15 1.409 . S
C14 H32 0.929 . S
C15 C14 1.409 . S
C15 C16 1.380 . S
C15 H33 0.930 . S
C16 C15 1.380 . S
C16 C23 1.357 . S
C17 C8 1.511 . S
C17 C18 1.341 . S
C17 C19 1.371 . S
C18 C17 1.341 . S
C18 C22 1.394 . S
C18 H34 0.930 . S
C19 C17 1.371 . S
C19 C20 1.392 . S
C19 H35 0.931 . S
C20 C19 1.392 . S
C20 C21 1.331 . S
C20 H38 0.932 . S
C21 C20 1.331 . S
C21 C22 1.336 . S
C22 C18 1.394 . S
C22 C21 1.336 . S
C22 H37 0.929 . S
C23 C13 1.386 . S
C23 C16 1.357 . S
C23 H36 0.928 . S
H24 C0 0.931 . S
H25 C2 0.930 . S
H26 C4 0.929 . S
H27 C5 0.931 . S
H28 C7 0.930 . S
H29 C11 0.931 . S
H30 C9 0.931 . S
H31 C13 0.931 . S
H32 C14 0.929 . S
H33 C15 0.930 . S
H34 C18 0.930 . S
H35 C19 0.931 . S
H36 C23 0.928 . S
H37 C22 0.929 . S
H38 C20 0.932 . S
C39 C40 1.394 . S
C39 C41 1.397 . S
C39 H63 0.931 . S
C40 C39 1.394 . S
C40 C44 1.389 1_655 S
C41 C39 1.397 . S
C41 C42 1.389 . S
C41 H64 0.930 . S
C42 C41 1.389 . S
C42 C43 1.373 1_655 S
C42 C45 1.480 . S
C43 C42 1.373 1_455 S
C43 C44 1.389 . S
C43 H65 0.929 . S
C44 C40 1.389 1_455 S
C44 C43 1.389 . S
C44 H66 0.931 . S
C45 C42 1.480 . S
C45 C46 1.388 . S
C45 C50 1.390 . S
C46 C45 1.388 . S
C46 C47 1.402 . S
C46 H67 0.930 . S
C47 C46 1.402 . S
C47 C48 1.376 . S
C47 C56 1.513 . S
C48 C47 1.376 . S
C48 C49 1.392 . S
C48 H69 0.934 . S
C49 C48 1.392 . S
C49 C50 1.361 . S
C49 C51 1.499 1_655 S
C50 C45 1.390 . S
C50 C49 1.361 . S
C50 H68 0.931 . S
C51 C49 1.499 1_455 S
C51 C52 1.364 1_455 S
C51 C53 1.373 . S
C52 C51 1.364 1_655 S
C52 C62 1.386 . S
C52 H70 0.931 . S
C53 C51 1.373 . S
C53 C54 1.409 . S
C53 H71 0.929 . S
C54 C53 1.409 . S
C54 C55 1.378 . S
C54 H72 0.930 . S
C55 C54 1.378 . S
C55 C62 1.360 1_455 S
C56 C47 1.513 . S
C56 C57 1.341 . S
C56 C58 1.371 1_655 S
C57 C56 1.341 . S
C57 C61 1.394 . S
C57 H73 0.930 . S
C58 C56 1.371 1_455 S
C58 C59 1.392 . S
C58 H74 0.931 . S
C59 C58 1.392 . S
C59 C60 1.322 1_455 S
C59 H77 0.932 . S
C60 C59 1.322 1_655 S
C60 C61 1.345 . S
C61 C57 1.394 . S
C61 C60 1.345 . S
C61 H76 0.929 . S
C62 C52 1.386 . S
C62 C55 1.360 1_655 S
C62 H75 0.928 . S
H63 C39 0.931 . S
H64 C41 0.930 . S
H65 C43 0.929 . S
H66 C44 0.931 . S
H67 C46 0.930 . S
H68 C50 0.931 . S
H69 C48 0.934 . S
H70 C52 0.931 . S
H71 C53 0.929 . S
H72 C54 0.930 . S
H73 C57 0.930 . S
H74 C58 0.931 . S
H75 C62 0.928 . S
H76 C61 0.929 . S
H77 C59 0.932 . S
C78 C79 1.394 . S
C78 C80 1.397 . S
C78 H102 0.931 . S
C79 C78 1.394 . S
C79 C83 1.389 1_565 S
C80 C78 1.397 . S
C80 C81 1.389 . S
C80 H103 0.930 . S
C81 C80 1.389 . S
C81 C82 1.373 1_565 S
C81 C84 1.480 . S
C82 C81 1.373 1_545 S
C82 C83 1.389 . S
C82 H104 0.929 . S
C83 C79 1.389 1_545 S
C83 C82 1.389 . S
C83 H105 0.931 . S
C84 C81 1.480 . S
C84 C85 1.388 . S
C84 C89 1.390 . S
C85 C84 1.388 . S
C85 C86 1.402 . S
C85 H106 0.930 . S
C86 C85 1.402 . S
C86 C87 1.376 . S
C86 C95 1.513 . S
C87 C86 1.376 . S
C87 C88 1.392 . S
C87 H108 0.934 . S
C88 C87 1.392 . S
C88 C89 1.361 . S
C88 C90 1.499 1_565 S
C89 C84 1.390 . S
C89 C88 1.361 . S
C89 H107 0.931 . S
C90 C88 1.499 1_545 S
C90 C91 1.364 1_545 S
C90 C92 1.373 . S
C91 C90 1.364 1_565 S
C91 C101 1.386 . S
C91 H109 0.931 . S
C92 C90 1.373 . S
C92 C93 1.409 . S
C92 H110 0.929 . S
C93 C92 1.409 . S
C93 C94 1.378 . S
C93 H111 0.930 . S
C94 C93 1.378 . S
C94 C101 1.360 1_545 S
C95 C86 1.513 . S
C95 C96 1.341 . S
C95 C97 1.371 1_565 S
C96 C95 1.341 . S
C96 C100 1.394 . S
C96 H112 0.930 . S
C97 C95 1.371 1_545 S
C97 C98 1.392 . S
C97 H113 0.931 . S
C98 C97 1.392 . S
C98 C99 1.322 1_545 S
C98 H116 0.932 . S
C99 C98 1.322 1_565 S
C99 C100 1.345 . S
C100 C96 1.394 . S
C100 C99 1.345 . S
C100 H115 0.929 . S
C101 C91 1.386 . S
C101 C94 1.360 1_565 S
C101 H114 0.928 . S
H102 C78 0.931 . S
H103 C80 0.930 . S
H104 C82 0.929 . S
H105 C83 0.931 . S
H106 C85 0.930 . S
H107 C89 0.931 . S
H108 C87 0.934 . S
H109 C91 0.931 . S
H110 C92 0.929 . S
H111 C93 0.930 . S
H112 C96 0.930 . S
H113 C97 0.931 . S
H114 C101 0.928 . S
H115 C100 0.929 . S
H116 C98 0.932 . S
C117 C118 1.386 . S
C117 C119 1.397 . S
C117 H141 0.931 . S
C118 C117 1.386 . S
C118 C122 1.397 . S
C119 C117 1.397 . S
C119 C120 1.384 . S
C119 H142 0.930 . S
C120 C119 1.384 . S
C120 C121 1.377 . S
C120 C123 1.481 . S
C121 C120 1.377 . S
C121 C122 1.389 . S
C121 H143 0.929 . S
C122 C118 1.397 . S
C122 C121 1.389 . S
C122 H144 0.931 . S
C123 C120 1.481 . S
C123 C124 1.387 . S
C123 C128 1.390 . S
C124 C123 1.387 . S
C124 C125 1.401 . S
C124 H145 0.930 . S
C125 C124 1.401 . S
C125 C126 1.376 . S
C125 C134 1.511 . S
C126 C125 1.376 . S
C126 C127 1.392 . S
C126 H147 0.931 . S
C127 C126 1.392 . S
C127 C128 1.361 . S
C127 C129 1.500 . S
C128 C123 1.390 . S
C128 C127 1.361 . S
C128 H146 0.931 . S
C129 C127 1.500 . S
C129 C130 1.371 . S
C129 C131 1.365 . S
C130 C129 1.371 . S
C130 C140 1.386 . S
C130 H148 0.931 . S
C131 C129 1.365 . S
C131 C132 1.409 . S
C131 H149 0.929 . S
C132 C131 1.409 . S
C132 C133 1.380 . S
C132 H150 0.930 . S
C133 C132 1.380 . S
C133 C140 1.357 . S
C134 C125 1.511 . S
C134 C135 1.341 . S
C134 C136 1.371 . S
C135 C134 1.341 . S
C135 C139 1.394 . S
C135 H151 0.930 . S
C136 C134 1.371 . S
C136 C137 1.392 . S
C136 H152 0.931 . S
C137 C136 1.392 . S
C137 C138 1.331 . S
C137 H155 0.932 . S
C138 C137 1.331 . S
C138 C139 1.336 . S
C139 C135 1.394 . S
C139 C138 1.336 . S
C139 H154 0.929 . S
C140 C130 1.386 . S
C140 C133 1.357 . S
C140 H153 0.928 . S
H141 C117 0.931 . S
H142 C119 0.930 . S
H143 C121 0.929 . S
H144 C122 0.931 . S
H145 C124 0.930 . S
H146 C128 0.931 . S
H147 C126 0.931 . S
H148 C130 0.931 . S
H149 C131 0.929 . S
H150 C132 0.930 . S
H151 C135 0.930 . S
H152 C136 0.931 . S
H153 C140 0.928 . S
H154 C139 0.929 . S
H155 C137 0.932 . S
C156 C157 1.386 . S
C156 C158 1.397 . S
C156 H180 0.931 . S
C157 C156 1.386 . S
C157 C161 1.397 . S
C158 C156 1.397 . S
C158 C159 1.384 . S
C158 H181 0.930 . S
C159 C158 1.384 . S
C159 C160 1.377 . S
C159 C162 1.481 . S
C160 C159 1.377 . S
C160 C161 1.389 . S
C160 H182 0.929 . S
C161 C157 1.397 . S
C161 C160 1.389 . S
C161 H183 0.931 . S
C162 C159 1.481 . S
C162 C163 1.387 . S
C162 C167 1.390 . S
C163 C162 1.387 . S
C163 C164 1.401 . S
C163 H184 0.930 . S
C164 C163 1.401 . S
C164 C165 1.376 . S
C164 C173 1.511 . S
C165 C164 1.376 . S
C165 C166 1.392 1_554 S
C165 H186 0.931 1_554 S
C166 C165 1.392 1_556 S
C166 C167 1.361 1_556 S
C166 C168 1.500 . S
C167 C162 1.390 . S
C167 C166 1.361 1_554 S
C167 H185 0.931 . S
C168 C166 1.500 . S
C168 C169 1.371 . S
C168 C170 1.365 . S
C169 C168 1.371 . S
C169 C179 1.386 . S
C169 H187 0.931 . S
C170 C168 1.365 . S
C170 C171 1.409 . S
C170 H188 0.929 . S
C171 C170 1.409 . S
C171 C172 1.380 . S
C171 H189 0.930 . S
C172 C171 1.380 . S
C172 C179 1.357 . S
C173 C164 1.511 . S
C173 C174 1.341 . S
C173 C175 1.371 . S
C174 C173 1.341 . S
C174 C178 1.394 . S
C174 H190 0.930 . S
C175 C173 1.371 . S
C175 C176 1.392 . S
C175 H191 0.922 1_554 S
C176 C175 1.392 . S
C176 C177 1.331 . S
C176 H194 0.932 . S
C177 C176 1.331 . S
C177 C178 1.336 . S
C178 C174 1.394 . S
C178 C177 1.336 . S
C178 H193 0.929 . S
C179 C169 1.386 . S
C179 C172 1.357 . S
C179 H192 0.928 . S
H180 C156 0.931 . S
H181 C158 0.930 . S
H182 C160 0.929 . S
H183 C161 0.931 . S
H184 C163 0.930 . S
H185 C167 0.931 . S
H186 C165 0.931 1_556 S
H187 C169 0.931 . S
H188 C170 0.929 . S
H189 C171 0.930 . S
H190 C174 0.930 . S
H191 C175 0.922 1_556 S
H192 C179 0.928 . S
H193 C178 0.929 . S
H194 C176 0.932 . S
C195 C196 1.386 . S
C195 C197 1.397 . S
C195 H219 0.931 . S
C196 C195 1.386 . S
C196 C200 1.398 1_655 S
C197 C195 1.397 . S
C197 C198 1.389 1_655 S
C197 H220 0.930 . S
C198 C197 1.389 1_455 S
C198 C199 1.373 . S
C198 C201 1.480 1_455 S
C199 C198 1.373 . S
C199 C200 1.389 . S
C199 H221 0.929 . S
C200 C196 1.398 1_455 S
C200 C199 1.389 . S
C200 H222 0.931 . S
C201 C198 1.480 1_655 S
C201 C202 1.386 . S
C201 C206 1.390 . S
C202 C201 1.386 . S
C202 C203 1.400 . S
C202 H223 0.935 . S
C203 C202 1.400 . S
C203 C204 1.376 . S
C203 C212 1.512 . S
C204 C203 1.376 . S
C204 C205 1.392 1_654 S
C204 H225 0.933 1_554 S
C205 C204 1.392 1_456 S
C205 C206 1.361 1_456 S
C205 C207 1.499 . S
C206 C201 1.390 . S
C206 C205 1.361 1_654 S
C206 H224 0.931 1_655 S
C207 C205 1.499 . S
C207 C208 1.357 1_455 S
C207 C209 1.380 . S
C208 C207 1.357 1_655 S
C208 C218 1.386 . S
C208 H226 0.931 . S
C209 C207 1.380 . S
C209 C210 1.409 . S
C209 H227 0.929 . S
C210 C209 1.409 . S
C210 C211 1.384 . S
C210 H228 0.930 . S
C211 C210 1.384 . S
C211 C218 1.353 1_455 S
C212 C203 1.512 . S
C212 C213 1.341 . S
C212 C214 1.371 1_655 S
C213 C212 1.341 . S
C213 C217 1.394 . S
C213 H229 0.930 . S
C214 C212 1.371 1_455 S
C214 C215 1.392 . S
C214 H230 0.921 1_554 S
C215 C214 1.392 . S
C215 C216 1.326 1_455 S
C215 H233 0.932 . S
C216 C215 1.326 1_655 S
C216 C217 1.341 . S
C217 C213 1.394 . S
C217 C216 1.341 . S
C217 H232 0.929 . S
C218 C208 1.386 . S
C218 C211 1.353 1_655 S
C218 H231 0.928 . S
H219 C195 0.931 . S
H220 C197 0.930 . S
H221 C199 0.929 . S
H222 C200 0.931 . S
H223 C202 0.935 . S
H224 C206 0.931 1_455 S
H225 C204 0.933 1_556 S
H226 C208 0.931 . S
H227 C209 0.929 . S
H228 C210 0.930 . S
H229 C213 0.930 . S
H230 C214 0.921 1_556 S
H231 C218 0.928 . S
H232 C217 0.929 . S
H233 C215 0.932 . S
C234 C235 1.386 . S
C234 C236 1.397 . S
C234 H258 0.931 . S
C235 C234 1.386 . S
C235 C239 1.398 1_565 S
C236 C234 1.397 . S
C236 C237 1.389 1_565 S
C236 H259 0.930 . S
C237 C236 1.389 1_545 S
C237 C238 1.373 . S
C237 C240 1.480 1_545 S
C238 C237 1.373 . S
C238 C239 1.389 . S
C238 H260 0.929 . S
C239 C235 1.398 1_545 S
C239 C238 1.389 . S
C239 H261 0.931 . S
C240 C237 1.480 1_565 S
C240 C241 1.386 . S
C240 C245 1.390 . S
C241 C240 1.386 . S
C241 C242 1.400 . S
C241 H262 0.935 . S
C242 C241 1.400 . S
C242 C243 1.376 . S
C242 C251 1.512 . S
C243 C242 1.376 . S
C243 C244 1.392 1_564 S
C243 H264 0.933 1_554 S
C244 C243 1.392 1_546 S
C244 C245 1.361 1_546 S
C244 C246 1.499 . S
C245 C240 1.390 . S
C245 C244 1.361 1_564 S
C245 H263 0.931 1_565 S
C246 C244 1.499 . S
C246 C247 1.357 1_545 S
C246 C248 1.380 . S
C247 C246 1.357 1_565 S
C247 C257 1.386 . S
C247 H265 0.931 . S
C248 C246 1.380 . S
C248 C249 1.409 . S
C248 H266 0.929 . S
C249 C248 1.409 . S
C249 C250 1.384 . S
C249 H267 0.930 . S
C250 C249 1.384 . S
C250 C257 1.353 1_545 S
C251 C242 1.512 . S
C251 C252 1.341 . S
C251 C253 1.371 1_565 S
C252 C251 1.341 . S
C252 C256 1.394 . S
C252 H268 0.930 . S
C253 C251 1.371 1_545 S
C253 C254 1.392 . S
C253 H269 0.924 1_554 S
C254 C253 1.392 . S
C254 C255 1.327 1_545 S
C254 H272 0.932 . S
C255 C254 1.327 1_565 S
C255 C256 1.341 . S
C256 C252 1.394 . S
C256 C255 1.341 . S
C256 H271 0.929 . S
C257 C247 1.386 . S
C257 C250 1.353 1_565 S
C257 H270 0.928 . S
H258 C234 0.931 . S
H259 C236 0.930 . S
H260 C238 0.929 . S
H261 C239 0.931 . S
H262 C241 0.935 . S
H263 C245 0.931 1_545 S
H264 C243 0.933 1_556 S
H265 C247 0.931 . S
H266 C248 0.929 . S
H267 C249 0.930 . S
H268 C252 0.930 . S
H269 C253 0.924 1_556 S
H270 C257 0.928 . S
H271 C256 0.929 . S
H272 C254 0.932 . S
C273 C274 1.386 . S
C273 C275 1.397 . S
C273 H297 0.931 . S
C274 C273 1.386 . S
C274 C278 1.397 . S
C275 C273 1.397 . S
C275 C276 1.384 . S
C275 H298 0.930 . S
C276 C275 1.384 . S
C276 C277 1.377 . S
C276 C279 1.481 . S
C277 C276 1.377 . S
C277 C278 1.389 . S
C277 H299 0.929 . S
C278 C274 1.397 . S
C278 C277 1.389 . S
C278 H300 0.931 . S
C279 C276 1.481 . S
C279 C280 1.387 1_556 S
C279 C284 1.390 1_556 S
C280 C279 1.387 1_554 S
C280 C281 1.401 . S
C280 H301 0.930 1_554 S
C281 C280 1.401 . S
C281 C282 1.376 . S
C281 C290 1.511 . S
C282 C281 1.376 . S
C282 C283 1.392 . S
C282 H303 0.931 . S
C283 C282 1.392 . S
C283 C284 1.361 . S
C283 C285 1.500 . S
C284 C279 1.390 1_554 S
C284 C283 1.361 . S
C284 H302 0.931 . S
C285 C283 1.500 . S
C285 C286 1.371 . S
C285 C287 1.365 . S
C286 C285 1.371 . S
C286 C296 1.386 . S
C286 H304 0.931 . S
C287 C285 1.365 . S
C287 C288 1.409 . S
C287 H305 0.929 . S
C288 C287 1.409 . S
C288 C289 1.380 . S
C288 H306 0.930 . S
C289 C288 1.380 . S
C289 C296 1.357 . S
C290 C281 1.511 . S
C290 C291 1.341 . S
C290 C292 1.371 . S
C291 C290 1.341 . S
C291 C295 1.394 . S
C291 H307 0.930 . S
C292 C290 1.371 . S
C292 C293 1.392 . S
C292 H308 0.931 . S
C293 C292 1.392 . S
C293 C294 1.331 . S
C293 H311 0.932 . S
C294 C293 1.331 . S
C294 C295 1.336 . S
C295 C291 1.394 . S
C295 C294 1.336 . S
C295 H310 0.929 . S
C296 C286 1.386 . S
C296 C289 1.357 . S
C296 H309 0.928 . S
H297 C273 0.931 . S
H298 C275 0.930 . S
H299 C277 0.929 . S
H300 C278 0.931 . S
H301 C280 0.930 1_556 S
H302 C284 0.931 . S
H303 C282 0.931 . S
H304 C286 0.931 . S
H305 C287 0.929 . S
H306 C288 0.930 . S
H307 C291 0.930 . S
H308 C292 0.931 . S
H309 C296 0.928 . S
H310 C295 0.929 . S
H311 C293 0.932 . S
Tb312 C322 2.825 . S
Tb312 O323 2.347 1_455 S
Tb312 O326 2.366 . S
Tb312 O331 2.418 . S
Tb312 O332 2.384 1_565 S
Tb312 O335 2.479 . S
Tb312 O336 2.471 . S
Eu313 O324 2.418 . S
Eu313 O325 2.384 1_545 S
Eu313 O328 2.479 . S
Eu313 O329 2.471 . S
Eu313 O330 2.347 1_655 S
Eu313 O333 2.366 . S
Eu313 C343 2.825 . S
C314 O330 1.259 1_565 S
C314 O331 1.265 . S
C315 O332 1.255 . S
C315 O333 1.265 1_455 S
C316 C318 1.380 . S
C316 C319 1.374 . S
C316 C322 1.507 . S
C317 C318 1.384 . S
C317 C321 1.387 . S
C317 H344 0.930 . S
C318 C316 1.380 . S
C318 C317 1.384 . S
C318 H345 0.931 . S
C319 C316 1.374 . S
C319 C320 1.390 . S
C319 H346 0.930 1_455 S
C320 C319 1.390 . S
C320 C321 1.391 . S
C320 H347 0.930 1_455 S
C321 C317 1.387 . S
C321 C320 1.391 . S
C322 Tb312 2.825 . S
C322 C316 1.507 . S
C322 O335 1.238 . S
C322 O336 1.247 . S
O323 Tb312 2.347 1_655 S
O323 C327 1.259 1_565 S
O324 Eu313 2.418 . S
O324 C327 1.265 . S
O325 Eu313 2.384 1_565 S
O325 C334 1.255 . S
O326 Tb312 2.366 . S
O326 C334 1.265 1_455 S
C327 O323 1.259 1_545 S
C327 O324 1.265 . S
O328 Eu313 2.479 . S
O328 C343 1.238 . S
O329 Eu313 2.471 . S
O329 C343 1.247 . S
O330 Eu313 2.347 1_455 S
O330 C314 1.259 1_545 S
O331 Tb312 2.418 . S
O331 C314 1.265 . S
O332 Tb312 2.384 1_545 S
O332 C315 1.255 . S
O333 Eu313 2.366 . S
O333 C315 1.265 1_655 S
C334 O325 1.255 . S
C334 O326 1.265 1_655 S
O335 Tb312 2.479 . S
O335 C322 1.238 . S
O336 Tb312 2.471 . S
O336 C322 1.247 . S
C337 C340 1.380 . S
C337 C341 1.374 . S
C337 C343 1.507 . S
C338 C339 1.387 . S
C338 C342 1.391 . S
C339 C338 1.387 . S
C339 C340 1.384 . S
C339 H348 0.930 . S
C340 C337 1.380 . S
C340 C339 1.384 . S
C340 H349 0.931 . S
C341 C337 1.374 . S
C341 C342 1.390 . S
C341 H350 0.930 1_655 S
C342 C338 1.391 . S
C342 C341 1.390 . S
C342 H351 0.930 1_655 S
C343 Eu313 2.825 . S
C343 O328 1.238 . S
C343 O329 1.247 . S
C343 C337 1.507 . S
H344 C317 0.930 . S
H345 C318 0.931 . S
H346 C319 0.930 1_655 S
H347 C320 0.930 1_655 S
H348 C339 0.930 . S
H349 C340 0.931 . S
H350 C341 0.930 1_455 S
H351 C342 0.930 1_455 S
Tb352 C362 2.825 . S
Tb352 O363 2.347 1_545 S
Tb352 O366 2.366 . S
Tb352 O371 2.418 . S
Tb352 O372 2.384 . S
Tb352 O375 2.479 . S
Tb352 O376 2.471 . S
Eu353 O364 2.418 . S
Eu353 O365 2.384 . S
Eu353 O368 2.479 . S
Eu353 O369 2.471 . S
Eu353 O370 2.347 1_565 S
Eu353 O373 2.366 . S
Eu353 C383 2.825 . S
C354 O370 1.259 . S
C354 O371 1.265 . S
C355 O372 1.255 . S
C355 O373 1.265 1_545 S
C356 C358 1.380 . S
C356 C359 1.374 . S
C356 C362 1.507 . S
C357 C358 1.384 . S
C357 C361 1.387 . S
C357 H384 0.930 . S
C358 C356 1.380 . S
C358 C357 1.384 . S
C358 H385 0.931 . S
C359 C356 1.374 . S
C359 C360 1.390 . S
C359 H386 0.930 1_545 S
C360 C359 1.390 . S
C360 C361 1.391 . S
C360 H387 0.930 1_545 S
C361 C357 1.387 . S
C361 C360 1.391 . S
C362 Tb352 2.825 . S
C362 C356 1.507 . S
C362 O375 1.238 . S
C362 O376 1.247 . S
O363 Tb352 2.347 1_565 S
O363 C367 1.259 . S
O364 Eu353 2.418 . S
O364 C367 1.265 . S
O365 Eu353 2.384 . S
O365 C374 1.255 . S
O366 Tb352 2.366 . S
O366 C374 1.265 1_545 S
C367 O363 1.259 . S
C367 O364 1.265 . S
O368 Eu353 2.479 . S
O368 C383 1.238 . S
O369 Eu353 2.471 . S
O369 C383 1.247 . S
O370 Eu353 2.347 1_545 S
O370 C354 1.259 . S
O371 Tb352 2.418 . S
O371 C354 1.265 . S
O372 Tb352 2.384 . S
O372 C355 1.255 . S
O373 Eu353 2.366 . S
O373 C355 1.265 1_565 S
C374 O365 1.255 . S
C374 O366 1.265 1_565 S
O375 Tb352 2.479 . S
O375 C362 1.238 . S
O376 Tb352 2.471 . S
O376 C362 1.247 . S
C377 C380 1.380 . S
C377 C381 1.374 . S
C377 C383 1.507 . S
C378 C379 1.387 . S
C378 C382 1.391 . S
C379 C378 1.387 . S
C379 C380 1.384 . S
C379 H388 0.930 . S
C380 C377 1.380 . S
C380 C379 1.384 . S
C380 H389 0.931 . S
C381 C377 1.374 . S
C381 C382 1.390 . S
C381 H390 0.930 1_565 S
C382 C378 1.391 . S
C382 C381 1.390 . S
C382 H391 0.930 1_565 S
C383 Eu353 2.825 . S
C383 O368 1.238 . S
C383 O369 1.247 . S
C383 C377 1.507 . S
H384 C357 0.930 . S
H385 C358 0.931 . S
H386 C359 0.930 1_565 S
H387 C360 0.930 1_565 S
H388 C379 0.930 . S
H389 C380 0.931 . S
H390 C381 0.930 1_545 S
H391 C382 0.930 1_545 S
Tb392 C402 2.825 . S
Tb392 O403 2.347 . S
Tb392 O406 2.366 . S
Tb392 O411 2.418 . S
Tb392 O412 2.384 . S
Tb392 O415 2.479 . S
Tb392 O416 2.471 . S
Eu393 O404 2.418 . S
Eu393 O405 2.384 . S
Eu393 O408 2.479 . S
Eu393 O409 2.471 . S
Eu393 O410 2.347 . S
Eu393 O413 2.366 . S
Eu393 C423 2.825 . S
C394 O410 1.259 . S
C394 O411 1.265 . S
C395 O412 1.255 . S
C395 O413 1.265 . S
C396 C398 1.380 . S
C396 C399 1.374 . S
C396 C402 1.507 . S
C397 C398 1.384 . S
C397 C401 1.387 . S
C397 H424 0.930 . S
C398 C396 1.380 . S
C398 C397 1.384 . S
C398 H425 0.931 . S
C399 C396 1.374 . S
C399 C400 1.390 . S
C399 H426 0.930 . S
C400 C399 1.390 . S
C400 C401 1.391 . S
C400 H427 0.930 . S
C401 C397 1.387 . S
C401 C400 1.391 . S
C402 Tb392 2.825 . S
C402 C396 1.507 . S
C402 O415 1.238 . S
C402 O416 1.247 . S
O403 Tb392 2.347 . S
O403 C407 1.259 . S
O404 Eu393 2.418 . S
O404 C407 1.265 . S
O405 Eu393 2.384 . S
O405 C414 1.255 . S
O406 Tb392 2.366 . S
O406 C414 1.265 . S
C407 O403 1.259 . S
C407 O404 1.265 . S
O408 Eu393 2.479 . S
O408 C423 1.238 . S
O409 Eu393 2.471 . S
O409 C423 1.247 . S
O410 Eu393 2.347 . S
O410 C394 1.259 . S
O411 Tb392 2.418 . S
O411 C394 1.265 . S
O412 Tb392 2.384 . S
O412 C395 1.255 . S
O413 Eu393 2.366 . S
O413 C395 1.265 . S
C414 O405 1.255 . S
C414 O406 1.265 . S
O415 Tb392 2.479 . S
O415 C402 1.238 . S
O416 Tb392 2.471 . S
O416 C402 1.247 . S
C417 C420 1.380 . S
C417 C421 1.374 . S
C417 C423 1.507 . S
C418 C419 1.387 . S
C418 C422 1.391 . S
C419 C418 1.387 . S
C419 C420 1.384 . S
C419 H428 0.930 . S
C420 C417 1.380 . S
C420 C419 1.384 . S
C420 H429 0.931 . S
C421 C417 1.374 . S
C421 C422 1.390 . S
C421 H430 0.930 . S
C422 C418 1.391 . S
C422 C421 1.390 . S
C422 H431 0.930 . S
C423 Eu393 2.825 . S
C423 O408 1.238 . S
C423 O409 1.247 . S
C423 C417 1.507 . S
H424 C397 0.930 . S
H425 C398 0.931 . S
H426 C399 0.930 . S
H427 C400 0.930 . S
H428 C419 0.930 . S
H429 C420 0.931 . S
H430 C421 0.930 . S
H431 C422 0.930 . S
Tb432 C442 2.825 . S
Tb432 O443 2.347 . S
Tb432 O446 2.366 . S
Tb432 O451 2.418 . S
Tb432 O452 2.384 1_655 S
Tb432 O455 2.479 . S
Tb432 O456 2.471 . S
Eu433 O444 2.418 . S
Eu433 O445 2.384 1_455 S
Eu433 O448 2.479 . S
Eu433 O449 2.471 . S
Eu433 O450 2.347 . S
Eu433 O453 2.366 . S
Eu433 C463 2.825 . S
C434 O450 1.259 1_655 S
C434 O451 1.265 . S
C435 O452 1.255 . S
C435 O453 1.265 . S
C436 C438 1.380 . S
C436 C439 1.374 . S
C436 C442 1.507 . S
C437 C438 1.384 . S
C437 C441 1.387 . S
C437 H464 0.930 . S
C438 C436 1.380 . S
C438 C437 1.384 . S
C438 H465 0.931 . S
C439 C436 1.374 . S
C439 C440 1.390 . S
C439 H466 0.930 . S
C440 C439 1.390 . S
C440 C441 1.391 . S
C440 H467 0.930 . S
C441 C437 1.387 . S
C441 C440 1.391 . S
C442 Tb432 2.825 . S
C442 C436 1.507 . S
C442 O455 1.238 . S
C442 O456 1.247 . S
O443 Tb432 2.347 . S
O443 C447 1.259 1_655 S
O444 Eu433 2.418 . S
O444 C447 1.265 . S
O445 Eu433 2.384 1_655 S
O445 C454 1.255 . S
O446 Tb432 2.366 . S
O446 C454 1.265 . S
C447 O443 1.259 1_455 S
C447 O444 1.265 . S
O448 Eu433 2.479 . S
O448 C463 1.238 . S
O449 Eu433 2.471 . S
O449 C463 1.247 . S
O450 Eu433 2.347 . S
O450 C434 1.259 1_455 S
O451 Tb432 2.418 . S
O451 C434 1.265 . S
O452 Tb432 2.384 1_455 S
O452 C435 1.255 . S
O453 Eu433 2.366 . S
O453 C435 1.265 . S
C454 O445 1.255 . S
C454 O446 1.265 . S
O455 Tb432 2.479 . S
O455 C442 1.238 . S
O456 Tb432 2.471 . S
O456 C442 1.247 . S
C457 C460 1.380 . S
C457 C461 1.374 . S
C457 C463 1.507 . S
C458 C459 1.387 . S
C458 C462 1.391 . S
C459 C458 1.387 . S
C459 C460 1.384 . S
C459 H468 0.930 . S
C460 C457 1.380 . S
C460 C459 1.384 . S
C460 H469 0.931 . S
C461 C457 1.374 . S
C461 C462 1.390 . S
C461 H470 0.930 . S
C462 C458 1.391 . S
C462 C461 1.390 . S
C462 H471 0.930 . S
C463 Eu433 2.825 . S
C463 O448 1.238 . S
C463 O449 1.247 . S
C463 C457 1.507 . S
H464 C437 0.930 . S
H465 C438 0.931 . S
H466 C439 0.930 . S
H467 C440 0.930 . S
H468 C459 0.930 . S
H469 C460 0.931 . S
H470 C461 0.930 . S
H471 C462 0.930 . S
H472 C480 0.929 . S
H473 C482 0.930 . S
H474 C484 0.930 . S
H475 C487 0.929 . S
H476 C490 0.930 . S
H477 C492 0.960 . S
H478 C492 0.960 . S
H479 C492 0.960 . S
C480 H472 0.929 . S
C480 C481 1.394 . S
C480 C482 1.384 . S
C481 C480 1.394 . S
C481 C487 1.374 1_545 S
C482 H473 0.930 . S
C482 C480 1.384 . S
C482 C483 1.372 . S
C483 C482 1.372 . S
C483 C484 1.400 1_545 S
C483 C488 1.490 . S
C484 H474 0.930 . S
C484 C483 1.400 1_565 S
C484 C487 1.386 . S
H485 C501 0.930 . S
H486 C502 0.931 . S
C487 H475 0.929 . S
C487 C481 1.374 1_565 S
C487 C484 1.386 . S
C488 C483 1.490 . S
C488 C490 1.395 1_545 S
C488 C491 1.403 . S
H489 C495 0.930 . S
C490 H476 0.930 . S
C490 C488 1.395 1_565 S
C490 C493 1.403 . S
C491 C488 1.403 . S
C491 C492 1.524 . S
C491 C495 1.400 . S
C492 H477 0.960 . S
C492 H478 0.960 . S
C492 H479 0.960 . S
C492 C491 1.524 . S
C493 C490 1.403 . S
C493 C494 1.392 1_565 S
C493 C497 1.495 . S
C494 C493 1.392 1_545 S
C494 C495 1.385 . S
C494 C496 1.477 1_545 S
C495 H489 0.930 . S
C495 C491 1.400 . S
C495 C494 1.385 . S
C496 C494 1.477 1_565 S
C496 C498 1.371 1_565 S
C496 C502 1.392 . S
C497 C493 1.495 . S
C497 H503 0.959 . S
C497 H504 0.961 . S
C497 H505 0.960 1_565 S
C498 C496 1.371 1_545 S
C498 C499 1.394 . S
C498 H506 0.930 . S
C499 C498 1.394 . S
C499 C500 1.391 . S
C499 H507 0.929 . S
C500 C499 1.391 . S
C500 C501 1.369 1_545 S
C501 H485 0.930 . S
C501 C500 1.369 1_565 S
C501 C502 1.379 . S
C502 H486 0.931 . S
C502 C496 1.392 . S
C502 C501 1.379 . S
H503 C497 0.959 . S
H504 C497 0.961 . S
H505 C497 0.960 1_545 S
H506 C498 0.930 . S
H507 C499 0.929 . S
H508 C516 0.929 . S
H509 C518 0.930 . S
H510 C520 0.930 . S
H511 C523 0.929 . S
H512 C526 0.930 . S
H513 C528 0.960 . S
H514 C528 0.960 . S
H515 C528 0.960 . S
C516 H508 0.929 . S
C516 C517 1.377 . S
C516 C518 1.384 . S
C517 C516 1.377 . S
C517 C523 1.390 . S
C518 H509 0.930 . S
C518 C516 1.384 . S
C518 C519 1.372 . S
C519 C518 1.372 . S
C519 C520 1.400 . S
C519 C524 1.490 . S
C520 H510 0.930 . S
C520 C519 1.400 . S
C520 C523 1.386 . S
H521 C537 0.930 . S
H522 C538 0.931 . S
C523 H511 0.929 . S
C523 C517 1.390 . S
C523 C520 1.386 . S
C524 C519 1.490 . S
C524 C526 1.395 . S
C524 C527 1.403 . S
H525 C531 0.930 . S
C526 H512 0.930 . S
C526 C524 1.395 . S
C526 C529 1.403 . S
C527 C524 1.403 . S
C527 C528 1.524 . S
C527 C531 1.400 . S
C528 H513 0.960 . S
C528 H514 0.960 . S
C528 H515 0.960 . S
C528 C527 1.524 . S
C529 C526 1.403 . S
C529 C530 1.392 . S
C529 C533 1.495 . S
C530 C529 1.392 . S
C530 C531 1.385 . S
C530 C532 1.478 . S
C531 H525 0.930 . S
C531 C527 1.400 . S
C531 C530 1.385 . S
C532 C530 1.478 . S
C532 C534 1.381 . S
C532 C538 1.383 . S
C533 C529 1.495 . S
C533 H539 0.959 . S
C533 H540 0.961 . S
C533 H541 0.960 . S
C534 C532 1.381 . S
C534 C535 1.394 . S
C534 H542 0.930 . S
C535 C534 1.394 . S
C535 C536 1.383 . S
C535 H543 0.929 . S
C536 C535 1.383 . S
C536 C537 1.377 . S
C537 H521 0.930 . S
C537 C536 1.377 . S
C537 C538 1.379 . S
C538 H522 0.931 . S
C538 C532 1.383 . S
C538 C537 1.379 . S
H539 C533 0.959 . S
H540 C533 0.961 . S
H541 C533 0.960 . S
H542 C534 0.930 . S
H543 C535 0.929 . S
H544 C552 0.929 . S
H545 C554 0.930 . S
H546 C556 0.930 . S
H547 C559 0.929 . S
H548 C562 0.930 . S
H549 C564 0.960 . S
H550 C564 0.960 . S
H551 C564 0.960 . S
C552 H544 0.929 . S
C552 C553 1.377 . S
C552 C554 1.384 . S
C553 C552 1.377 . S
C553 C559 1.390 . S
C554 H545 0.930 . S
C554 C552 1.384 . S
C554 C555 1.372 . S
C555 C554 1.372 . S
C555 C556 1.400 . S
C555 C560 1.490 . S
C556 H546 0.930 . S
C556 C555 1.400 . S
C556 C559 1.386 . S
H557 C573 0.930 . S
H558 C574 0.931 . S
C559 H547 0.929 . S
C559 C553 1.390 . S
C559 C556 1.386 . S
C560 C555 1.490 . S
C560 C562 1.395 . S
C560 C563 1.403 . S
H561 C567 0.930 . S
C562 H548 0.930 . S
C562 C560 1.395 . S
C562 C565 1.403 . S
C563 C560 1.403 . S
C563 C564 1.524 . S
C563 C567 1.400 . S
C564 H549 0.960 . S
C564 H550 0.960 . S
C564 H551 0.960 . S
C564 C563 1.524 . S
C565 C562 1.403 . S
C565 C566 1.392 . S
C565 C569 1.495 . S
C566 C565 1.392 . S
C566 C567 1.385 . S
C566 C568 1.478 . S
C567 H561 0.930 . S
C567 C563 1.400 . S
C567 C566 1.385 . S
C568 C566 1.478 . S
C568 C570 1.381 . S
C568 C574 1.383 . S
C569 C565 1.495 . S
C569 H575 0.959 . S
C569 H576 0.961 . S
C569 H577 0.960 . S
C570 C568 1.381 . S
C570 C571 1.394 . S
C570 H578 0.930 . S
C571 C570 1.394 . S
C571 C572 1.383 . S
C571 H579 0.929 . S
C572 C571 1.383 . S
C572 C573 1.377 . S
C573 H557 0.930 . S
C573 C572 1.377 . S
C573 C574 1.379 . S
C574 H558 0.931 . S
C574 C568 1.383 . S
C574 C573 1.379 . S
H575 C569 0.959 . S
H576 C569 0.961 . S
H577 C569 0.960 . S
H578 C570 0.930 . S
H579 C571 0.929 . S
H580 C588 0.929 . S
H581 C590 0.930 . S
H582 C592 0.930 . S
H583 C595 0.929 . S
H584 C598 0.930 . S
H585 C600 0.960 . S
H586 C600 0.960 1_455 S
H587 C600 0.960 . S
C588 H580 0.929 . S
C588 C589 1.396 . S
C588 C590 1.384 . S
C589 C588 1.396 . S
C589 C595 1.372 1_455 S
C590 H581 0.930 . S
C590 C588 1.384 . S
C590 C591 1.372 . S
C591 C590 1.372 . S
C591 C592 1.400 1_455 S
C591 C596 1.490 . S
C592 H582 0.930 . S
C592 C591 1.400 1_655 S
C592 C595 1.386 . S
H593 C609 0.930 . S
H594 C610 0.931 . S
C595 H583 0.929 . S
C595 C589 1.372 1_655 S
C595 C592 1.386 . S
C596 C591 1.490 . S
C596 C598 1.395 . S
C596 C599 1.403 1_455 S
H597 C603 0.930 . S
C598 H584 0.930 . S
C598 C596 1.395 . S
C598 C601 1.403 . S
C599 C596 1.403 1_655 S
C599 C600 1.524 . S
C599 C603 1.400 . S
C600 H585 0.960 . S
C600 H586 0.960 1_655 S
C600 H587 0.960 . S
C600 C599 1.524 . S
C601 C598 1.403 . S
C601 C602 1.392 . S
C601 C605 1.495 . S
C602 C601 1.392 . S
C602 C603 1.385 1_455 S
C602 C604 1.478 . S
C603 H597 0.930 . S
C603 C599 1.400 . S
C603 C602 1.385 1_655 S
C604 C602 1.478 . S
C604 C606 1.381 . S
C604 C610 1.383 1_455 S
C605 C601 1.495 . S
C605 H611 0.959 . S
C605 H612 0.961 . S
C605 H613 0.960 . S
C606 C604 1.381 . S
C606 C607 1.394 . S
C606 H614 0.930 . S
C607 C606 1.394 . S
C607 C608 1.383 . S
C607 H615 0.929 . S
C608 C607 1.383 . S
C608 C609 1.377 1_455 S
C609 H593 0.930 . S
C609 C608 1.377 1_655 S
C609 C610 1.379 . S
C610 H594 0.931 . S
C610 C604 1.383 1_655 S
C610 C609 1.379 . S
H611 C605 0.959 . S
H612 C605 0.961 . S
H613 C605 0.960 . S
H614 C606 0.930 . S
H615 C607 0.929 . S
H616 C624 0.929 . S
H617 C626 0.930 . S
H618 C628 0.930 . S
H619 C631 0.929 . S
H620 C634 0.930 . S
H621 C636 0.960 . S
H622 C636 0.960 . S
H623 C636 0.960 . S
C624 H616 0.929 . S
C624 C625 1.380 . S
C624 C626 1.384 . S
C625 C624 1.380 . S
C625 C631 1.387 1_565 S
C626 H617 0.930 . S
C626 C624 1.384 . S
C626 C627 1.381 . S
C627 C626 1.381 . S
C627 C628 1.391 1_565 S
C627 C632 1.490 . S
C628 H618 0.930 . S
C628 C627 1.391 1_545 S
C628 C631 1.386 . S
H629 C645 0.930 . S
H630 C646 0.931 . S
C631 H619 0.929 . S
C631 C625 1.387 1_545 S
C631 C628 1.386 . S
C632 C627 1.490 . S
C632 C634 1.391 1_564 S
C632 C635 1.407 . S
H633 C639 0.930 . S
C634 H620 0.930 . S
C634 C632 1.391 1_546 S
C634 C637 1.403 . S
C635 C632 1.407 . S
C635 C636 1.524 . S
C635 C639 1.400 1_554 S
C636 H621 0.960 . S
C636 H622 0.960 . S
C636 H623 0.960 . S
C636 C635 1.524 . S
C637 C634 1.403 . S
C637 C638 1.392 . S
C637 C641 1.495 . S
C638 C637 1.392 . S
C638 C639 1.385 1_545 S
C638 C640 1.478 . S
C639 H633 0.930 . S
C639 C635 1.400 1_556 S
C639 C638 1.385 1_565 S
C640 C638 1.478 . S
C640 C642 1.381 1_545 S
C640 C646 1.383 . S
C641 C637 1.495 . S
C641 H647 0.959 . S
C641 H648 0.961 . S
C641 H649 0.960 . S
C642 C640 1.381 1_565 S
C642 C643 1.394 . S
C642 H650 0.930 . S
C643 C642 1.394 . S
C643 C644 1.374 1_565 S
C643 H651 0.929 . S
C644 C643 1.374 1_545 S
C644 C645 1.388 . S
C645 H629 0.930 . S
C645 C644 1.388 . S
C645 C646 1.379 . S
C646 H630 0.931 . S
C646 C640 1.383 . S
C646 C645 1.379 . S
H647 C641 0.959 . S
H648 C641 0.961 . S
H649 C641 0.960 . S
H650 C642 0.930 . S
H651 C643 0.929 . S
H652 C660 0.929 . S
H653 C662 0.930 . S
H654 C664 0.930 . S
H655 C667 0.929 . S
H656 C670 0.930 . S
H657 C672 0.960 . S
H658 C672 0.960 . S
H659 C672 0.960 . S
C660 H652 0.929 . S
C660 C661 1.377 . S
C660 C662 1.384 . S
C661 C660 1.377 . S
C661 C667 1.390 . S
C662 H653 0.930 . S
C662 C660 1.384 . S
C662 C663 1.372 . S
C663 C662 1.372 . S
C663 C664 1.400 . S
C663 C668 1.490 . S
C664 H654 0.930 . S
C664 C663 1.400 . S
C664 C667 1.386 . S
H665 C681 0.930 . S
H666 C682 0.931 . S
C667 H655 0.929 . S
C667 C661 1.390 . S
C667 C664 1.386 . S
C668 C663 1.490 . S
C668 C670 1.395 1_554 S
C668 C671 1.403 . S
H669 C675 0.930 . S
C670 H656 0.930 . S
C670 C668 1.395 1_556 S
C670 C673 1.403 . S
C671 C668 1.403 . S
C671 C672 1.524 . S
C671 C675 1.400 1_554 S
C672 H657 0.960 . S
C672 H658 0.960 . S
C672 H659 0.960 . S
C672 C671 1.524 . S
C673 C670 1.403 . S
C673 C674 1.392 . S
C673 C677 1.495 . S
C674 C673 1.392 . S
C674 C675 1.385 . S
C674 C676 1.478 . S
C675 H669 0.930 . S
C675 C671 1.400 1_556 S
C675 C674 1.385 . S
C676 C674 1.478 . S
C676 C678 1.381 . S
C676 C682 1.383 . S
C677 C673 1.495 . S
C677 H683 0.959 . S
C677 H684 0.961 . S
C677 H685 0.960 . S
C678 C676 1.381 . S
C678 C679 1.394 . S
C678 H686 0.930 . S
C679 C678 1.394 . S
C679 C680 1.383 . S
C679 H687 0.929 . S
C680 C679 1.383 . S
C680 C681 1.377 . S
C681 H665 0.930 . S
C681 C680 1.377 . S
C681 C682 1.379 . S
C682 H666 0.931 . S
C682 C676 1.383 . S
C682 C681 1.379 . S
H683 C677 0.959 . S
H684 C677 0.961 . S
H685 C677 0.960 . S
H686 C678 0.930 . S
H687 C679 0.929 . S
H688 C696 0.929 . S
H689 C698 0.930 . S
H690 C700 0.930 . S
H691 C703 0.929 . S
H692 C706 0.930 . S
H693 C708 0.960 . S
H694 C708 0.960 . S
H695 C708 0.960 1_554 S
C696 H688 0.929 . S
C696 C697 1.377 . S
C696 C698 1.384 . S
C697 C696 1.377 . S
C697 C703 1.390 . S
C698 H689 0.930 . S
C698 C696 1.384 . S
C698 C699 1.372 . S
C699 C698 1.372 . S
C699 C700 1.400 . S
C699 C704 1.490 . S
C700 H690 0.930 . S
C700 C699 1.400 . S
C700 C703 1.386 . S
H701 C717 0.930 . S
H702 C718 0.931 . S
C703 H691 0.929 . S
C703 C697 1.390 . S
C703 C700 1.386 . S
C704 C699 1.490 . S
C704 C706 1.395 . S
C704 C707 1.403 1_554 S
H705 C711 0.930 . S
C706 H692 0.930 . S
C706 C704 1.395 . S
C706 C709 1.403 1_554 S
C707 C704 1.403 1_556 S
C707 C708 1.524 . S
C707 C711 1.400 . S
C708 H693 0.960 . S
C708 H694 0.960 . S
C708 H695 0.960 1_556 S
C708 C707 1.524 . S
C709 C706 1.403 1_556 S
C709 C710 1.392 . S
C709 C713 1.495 . S
C710 C709 1.392 . S
C710 C711 1.385 . S
C710 C712 1.478 . S
C711 H705 0.930 . S
C711 C707 1.400 . S
C711 C710 1.385 . S
C712 C710 1.478 . S
C712 C714 1.381 . S
C712 C718 1.383 . S
C713 C709 1.495 . S
C713 H719 0.959 1_556 S
C713 H720 0.961 . S
C713 H721 0.960 . S
C714 C712 1.381 . S
C714 C715 1.394 . S
C714 H722 0.930 . S
C715 C714 1.394 . S
C715 C716 1.383 . S
C715 H723 0.929 . S
C716 C715 1.383 . S
C716 C717 1.377 . S
C717 H701 0.930 . S
C717 C716 1.377 . S
C717 C718 1.379 . S
C718 H702 0.931 . S
C718 C712 1.383 . S
C718 C717 1.379 . S
H719 C713 0.959 1_554 S
H720 C713 0.961 . S
H721 C713 0.960 . S
H722 C714 0.930 . S
H723 C715 0.929 . S
H724 C732 0.929 . S
H725 C734 0.930 . S
H726 C736 0.930 . S
H727 C739 0.929 . S
H728 C742 0.930 . S
H729 C744 0.960 . S
H730 C744 0.960 . S
H731 C744 0.960 1_655 S
C732 H724 0.929 . S
C732 C733 1.377 . S
C732 C734 1.384 . S
C733 C732 1.377 . S
C733 C739 1.390 1_455 S
C734 H725 0.930 . S
C734 C732 1.384 . S
C734 C735 1.396 . S
C735 C734 1.396 . S
C735 C736 1.376 1_455 S
C735 C740 1.490 . S
C736 H726 0.930 . S
C736 C735 1.376 1_655 S
C736 C739 1.386 . S
H737 C753 0.930 . S
H738 C754 0.931 . S
C739 H727 0.929 . S
C739 C733 1.390 1_655 S
C739 C736 1.386 . S
C740 C735 1.490 . S
C740 C742 1.392 1_455 S
C740 C743 1.406 1_554 S
H741 C747 0.930 . S
C742 H728 0.930 . S
C742 C740 1.392 1_655 S
C742 C745 1.403 1_554 S
C743 C740 1.406 1_556 S
C743 C744 1.524 . S
C743 C747 1.400 . S
C744 H729 0.960 . S
C744 H730 0.960 . S
C744 H731 0.960 1_455 S
C744 C743 1.524 . S
C745 C742 1.403 1_556 S
C745 C746 1.396 . S
C745 C749 1.495 1_556 S
C746 C745 1.396 . S
C746 C747 1.381 1_655 S
C746 C748 1.479 . S
C747 H741 0.930 . S
C747 C743 1.400 . S
C747 C746 1.381 1_455 S
C748 C746 1.479 . S
C748 C750 1.381 1_655 S
C748 C754 1.383 . S
C749 C745 1.495 1_554 S
C749 H755 0.959 . S
C749 H756 0.961 1_554 S
C749 H757 0.960 1_654 S
C750 C748 1.381 1_455 S
C750 C751 1.394 . S
C750 H758 0.930 . S
C751 C750 1.394 . S
C751 C752 1.383 1_455 S
C751 H759 0.929 . S
C752 C751 1.383 1_655 S
C752 C753 1.377 . S
C753 H737 0.930 . S
C753 C752 1.377 . S
C753 C754 1.379 . S
C754 H738 0.931 . S
C754 C748 1.383 . S
C754 C753 1.379 . S
H755 C749 0.959 . S
H756 C749 0.961 1_556 S
H757 C749 0.960 1_456 S
H758 C750 0.930 . S
H759 C751 0.929 . S
H760 C768 0.929 . S
H761 C770 0.930 . S
H762 C772 0.930 . S
H763 C775 0.929 . S
H764 C778 0.930 . S
H765 C780 0.960 . S
H766 C780 0.960 . S
H767 C780 0.960 . S
C768 H760 0.929 . S
C768 C769 1.377 1_655 S
C768 C770 1.384 . S
C769 C768 1.377 1_455 S
C769 C775 1.390 . S
C770 H761 0.930 . S
C770 C768 1.384 . S
C770 C771 1.372 . S
C771 C770 1.372 . S
C771 C772 1.400 1_655 S
C771 C776 1.490 . S
C772 H762 0.930 . S
C772 C771 1.400 1_455 S
C772 C775 1.386 . S
H773 C789 0.930 . S
H774 C790 0.931 . S
C775 H763 0.929 . S
C775 C769 1.390 . S
C775 C772 1.386 . S
C776 C771 1.490 . S
C776 C778 1.395 . S
C776 C779 1.403 1_655 S
H777 C783 0.903 1_455 S
C778 H764 0.930 . S
C778 C776 1.395 . S
C778 C781 1.403 . S
C779 C776 1.403 1_455 S
C779 C780 1.524 . S
C779 C783 1.390 1_455 S
C780 H765 0.960 . S
C780 H766 0.960 . S
C780 H767 0.960 . S
C780 C779 1.524 . S
C781 C778 1.403 . S
C781 C782 1.392 . S
C781 C785 1.495 . S
C782 C781 1.392 . S
C782 C783 1.422 . S
C782 C784 1.478 . S
C783 H777 0.903 1_655 S
C783 C779 1.390 1_655 S
C783 C782 1.422 . S
C784 C782 1.478 . S
C784 C786 1.381 . S
C784 C790 1.383 . S
C785 C781 1.495 . S
C785 H791 0.959 . S
C785 H792 0.961 . S
C785 H793 0.960 . S
C786 C784 1.381 . S
C786 C787 1.394 . S
C786 H794 0.930 . S
C787 C786 1.394 . S
C787 C788 1.383 . S
C787 H795 0.929 . S
C788 C787 1.383 . S
C788 C789 1.377 . S
C789 H773 0.930 . S
C789 C788 1.377 . S
C789 C790 1.379 . S
C790 H774 0.931 . S
C790 C784 1.383 . S
C790 C789 1.379 . S
H791 C785 0.959 . S
H792 C785 0.961 . S
H793 C785 0.960 . S
H794 C786 0.930 . S
H795 C787 0.929 . S
H796 C804 0.929 . S
H797 C806 0.930 . S
H798 C808 0.930 . S
H799 C811 0.929 . S
H800 C814 0.905 1_545 S
H801 C816 0.960 . S
H802 C816 0.960 . S
H803 C816 0.960 . S
C804 H796 0.929 . S
C804 C805 1.377 . S
C804 C806 1.384 . S
C805 C804 1.377 . S
C805 C811 1.390 1_545 S
C806 H797 0.930 . S
C806 C804 1.384 . S
C806 C807 1.372 1_545 S
C807 C806 1.372 1_565 S
C807 C808 1.400 . S
C807 C812 1.490 . S
C808 H798 0.930 . S
C808 C807 1.400 . S
C808 C811 1.386 . S
H809 C825 0.930 . S
H810 C826 0.931 . S
C811 H799 0.929 . S
C811 C805 1.390 1_565 S
C811 C808 1.386 . S
C812 C807 1.490 . S
C812 C814 1.413 . S
C812 C815 1.403 . S
H813 C819 0.930 . S
C814 H800 0.905 1_565 S
C814 C812 1.413 . S
C814 C817 1.413 . S
C815 C812 1.403 . S
C815 C816 1.524 . S
C815 C819 1.400 . S
C816 H801 0.960 . S
C816 H802 0.960 . S
C816 H803 0.960 . S
C816 C815 1.524 . S
C817 C814 1.413 . S
C817 C818 1.392 . S
C817 C821 1.495 1_565 S
C818 C817 1.392 . S
C818 C819 1.385 . S
C818 C820 1.478 . S
C819 H813 0.930 . S
C819 C815 1.400 . S
C819 C818 1.385 . S
C820 C818 1.478 . S
C820 C822 1.381 . S
C820 C826 1.383 . S
C821 C817 1.495 1_545 S
C821 H827 0.959 . S
C821 H828 0.961 1_545 S
C821 H829 0.960 . S
C822 C820 1.381 . S
C822 C823 1.394 . S
C822 H830 0.930 1_565 S
C823 C822 1.394 . S
C823 C824 1.383 . S
C823 H831 0.929 1_565 S
C824 C823 1.383 . S
C824 C825 1.377 . S
C825 H809 0.930 . S
C825 C824 1.377 . S
C825 C826 1.379 . S
C826 H810 0.931 . S
C826 C820 1.383 . S
C826 C825 1.379 . S
H827 C821 0.959 . S
H828 C821 0.961 1_565 S
H829 C821 0.960 . S
H830 C822 0.930 1_545 S
H831 C823 0.929 1_545 S
H832 C840 0.929 . S
H833 C842 0.930 . S
H834 C844 0.930 . S
H835 C847 0.929 . S
H836 C850 0.930 . S
H837 C852 0.960 . S
H838 C852 0.960 . S
H839 C852 0.960 . S
C840 H832 0.929 . S
C840 C841 1.377 . S
C840 C842 1.384 . S
C841 C840 1.377 . S
C841 C847 1.390 . S
C842 H833 0.930 . S
C842 C840 1.384 . S
C842 C843 1.372 . S
C843 C842 1.372 . S
C843 C844 1.400 . S
C843 C848 1.490 . S
C844 H834 0.930 . S
C844 C843 1.400 . S
C844 C847 1.386 . S
H845 C861 0.930 . S
H846 C862 0.931 . S
C847 H835 0.929 . S
C847 C841 1.390 . S
C847 C844 1.386 . S
C848 C843 1.490 . S
C848 C850 1.395 . S
C848 C851 1.403 . S
H849 C855 0.930 . S
C850 H836 0.930 . S
C850 C848 1.395 . S
C850 C853 1.403 . S
C851 C848 1.403 . S
C851 C852 1.524 . S
C851 C855 1.400 . S
C852 H837 0.960 . S
C852 H838 0.960 . S
C852 H839 0.960 . S
C852 C851 1.524 . S
C853 C850 1.403 . S
C853 C854 1.392 . S
C853 C857 1.495 . S
C854 C853 1.392 . S
C854 C855 1.385 . S
C854 C856 1.478 . S
C855 H849 0.930 . S
C855 C851 1.400 . S
C855 C854 1.385 . S
C856 C854 1.478 . S
C856 C858 1.381 . S
C856 C862 1.383 . S
C857 C853 1.495 . S
C857 H863 0.959 . S
C857 H864 0.961 . S
C857 H865 0.960 . S
C858 C856 1.381 . S
C858 C859 1.394 . S
C858 H866 0.930 . S
C859 C858 1.394 . S
C859 C860 1.383 . S
C859 H867 0.929 . S
C860 C859 1.383 . S
C860 C861 1.377 . S
C861 H845 0.930 . S
C861 C860 1.377 . S
C861 C862 1.379 . S
C862 H846 0.931 . S
C862 C856 1.383 . S
C862 C861 1.379 . S
H863 C857 0.959 . S
H864 C857 0.961 . S
H865 C857 0.960 . S
H866 C858 0.930 . S
H867 C859 0.929 . S
H868 C876 0.929 . S
H869 C878 0.930 . S
H870 C880 0.930 . S
H871 C883 0.929 . S
H872 C886 0.930 . S
H873 C888 0.960 . S
H874 C888 0.960 . S
H875 C888 0.960 . S
C876 H868 0.929 . S
C876 C877 1.377 . S
C876 C878 1.384 . S
C877 C876 1.377 . S
C877 C883 1.390 . S
C878 H869 0.930 . S
C878 C876 1.384 . S
C878 C879 1.372 . S
C879 C878 1.372 . S
C879 C880 1.400 . S
C879 C884 1.490 . S
C880 H870 0.930 . S
C880 C879 1.400 . S
C880 C883 1.386 . S
H881 C897 0.930 . S
H882 C898 0.931 . S
C883 H871 0.929 . S
C883 C877 1.390 . S
C883 C880 1.386 . S
C884 C879 1.490 . S
C884 C886 1.395 . S
C884 C887 1.403 . S
H885 C891 0.930 . S
C886 H872 0.930 . S
C886 C884 1.395 . S
C886 C889 1.403 . S
C887 C884 1.403 . S
C887 C888 1.524 . S
C887 C891 1.400 . S
C888 H873 0.960 . S
C888 H874 0.960 . S
C888 H875 0.960 . S
C888 C887 1.524 . S
C889 C886 1.403 . S
C889 C890 1.392 . S
C889 C893 1.495 . S
C890 C889 1.392 . S
C890 C891 1.385 . S
C890 C892 1.478 . S
C891 H885 0.930 . S
C891 C887 1.400 . S
C891 C890 1.385 . S
C892 C890 1.478 . S
C892 C894 1.381 . S
C892 C898 1.383 . S
C893 C889 1.495 . S
C893 H899 0.959 . S
C893 H900 0.961 . S
C893 H901 0.960 . S
C894 C892 1.381 . S
C894 C895 1.394 . S
C894 H902 0.930 . S
C895 C894 1.394 . S
C895 C896 1.383 . S
C895 H903 0.929 . S
C896 C895 1.383 . S
C896 C897 1.377 . S
C897 H881 0.930 . S
C897 C896 1.377 . S
C897 C898 1.379 . S
C898 H882 0.931 . S
C898 C892 1.383 . S
C898 C897 1.379 . S
H899 C893 0.959 . S
H900 C893 0.961 . S
H901 C893 0.960 . S
H902 C894 0.930 . S
H903 C895 0.929 . S
H904 C912 0.929 . S
H905 C914 0.930 1_556 S
H906 C916 0.930 . S
H907 C919 0.929 . S
H908 C922 0.930 1_655 S
H909 C924 0.960 . S
H910 C924 0.960 . S
H911 C924 0.960 . S
C912 H904 0.929 . S
C912 C913 1.377 1_455 S
C912 C914 1.384 . S
C913 C912 1.377 1_655 S
C913 C919 1.390 . S
C914 H905 0.930 1_554 S
C914 C912 1.384 . S
C914 C915 1.372 . S
C915 C914 1.372 . S
C915 C916 1.400 1_455 S
C915 C920 1.490 . S
C916 H906 0.930 . S
C916 C915 1.400 1_655 S
C916 C919 1.386 . S
H917 C933 0.930 . S
H918 C934 0.894 1_655 S
C919 H907 0.929 . S
C919 C913 1.390 . S
C919 C916 1.386 . S
C920 C915 1.490 . S
C920 C922 1.395 1_554 S
C920 C923 1.403 . S
H921 C927 0.930 1_554 S
C922 H908 0.930 1_455 S
C922 C920 1.395 1_556 S
C922 C925 1.403 . S
C923 C920 1.403 . S
C923 C924 1.524 . S
C923 C927 1.400 1_554 S
C924 H909 0.960 . S
C924 H910 0.960 . S
C924 H911 0.960 . S
C924 C923 1.524 . S
C925 C922 1.403 . S
C925 C926 1.392 . S
C925 C929 1.495 1_455 S
C926 C925 1.392 . S
C926 C927 1.385 . S
C926 C928 1.478 . S
C927 H921 0.930 1_556 S
C927 C923 1.400 1_556 S
C927 C926 1.385 . S
C928 C926 1.478 . S
C928 C930 1.381 . S
C928 C934 1.383 . S
C929 C925 1.495 1_655 S
C929 H935 0.959 . S
C929 H936 0.961 . S
C929 H937 0.960 1_655 S
C930 C928 1.381 . S
C930 C931 1.394 . S
C930 H938 0.930 . S
C931 C930 1.394 . S
C931 C932 1.383 . S
C931 H939 0.929 . S
C932 C931 1.383 . S
C932 C933 1.377 . S
C933 H917 0.930 . S
C933 C932 1.377 . S
C933 C934 1.379 . S
C934 H918 0.894 1_455 S
C934 C928 1.383 . S
C934 C933 1.379 . S
H935 C929 0.959 . S
H936 C929 0.961 . S
H937 C929 0.960 1_455 S
H938 C930 0.930 . S
H939 C931 0.929 . S
H940 C948 0.929 . S
H941 C950 0.930 . S
H942 C952 0.930 . S
H943 C955 0.929 . S
H944 C958 0.930 . S
H945 C960 0.960 . S
H946 C960 0.960 1_565 S
H947 C960 0.960 . S
C948 H940 0.929 . S
C948 C949 1.377 . S
C948 C950 1.384 . S
C949 C948 1.377 . S
C949 C955 1.390 1_565 S
C950 H941 0.930 . S
C950 C948 1.384 . S
C950 C951 1.372 1_565 S
C951 C950 1.372 1_545 S
C951 C952 1.400 . S
C951 C956 1.490 . S
C952 H942 0.930 . S
C952 C951 1.400 . S
C952 C955 1.386 . S
H953 C969 0.930 . S
H954 C970 0.931 . S
C955 H943 0.929 . S
C955 C949 1.390 1_545 S
C955 C952 1.386 . S
C956 C951 1.490 . S
C956 C958 1.395 . S
C956 C959 1.403 1_554 S
H957 C963 0.930 . S
C958 H944 0.930 . S
C958 C956 1.395 . S
C958 C961 1.403 . S
C959 C956 1.403 1_556 S
C959 C960 1.524 . S
C959 C963 1.400 . S
C960 H945 0.960 . S
C960 H946 0.960 1_545 S
C960 H947 0.960 . S
C960 C959 1.524 . S
C961 C958 1.403 . S
C961 C962 1.392 1_554 S
C961 C965 1.495 . S
C962 C961 1.392 1_556 S
C962 C963 1.385 . S
C962 C964 1.478 . S
C963 H957 0.930 . S
C963 C959 1.400 . S
C963 C962 1.385 . S
C964 C962 1.478 . S
C964 C966 1.381 . S
C964 C970 1.383 . S
C965 C961 1.495 . S
C965 H971 0.959 . S
C965 H972 0.961 . S
C965 H973 0.960 . S
C966 C964 1.381 . S
C966 C967 1.394 . S
C966 H974 0.930 1_545 S
C967 C966 1.394 . S
C967 C968 1.383 . S
C967 H975 0.929 1_545 S
C968 C967 1.383 . S
C968 C969 1.377 . S
C969 H953 0.930 . S
C969 C968 1.377 . S
C969 C970 1.379 . S
C970 H954 0.931 . S
C970 C964 1.383 . S
C970 C969 1.379 . S
H971 C965 0.959 . S
H972 C965 0.961 . S
H973 C965 0.960 . S
H974 C966 0.930 1_565 S
H975 C967 0.929 1_565 S
H976 C984 0.929 . S
H977 C986 0.930 . S
H978 C988 0.930 . S
H979 C991 0.929 . S
H980 C994 0.930 . S
H981 C996 0.960 . S
H982 C996 0.960 . S
H983 C996 0.960 . S
C984 H976 0.929 . S
C984 C985 1.377 . S
C984 C986 1.384 . S
C985 C984 1.377 . S
C985 C991 1.390 . S
C986 H977 0.930 . S
C986 C984 1.384 . S
C986 C987 1.372 . S
C987 C986 1.372 . S
C987 C988 1.400 . S
C987 C992 1.490 . S
C988 H978 0.930 . S
C988 C987 1.400 . S
C988 C991 1.386 . S
H989 C1005 0.930 . S
H990 C1006 0.931 . S
C991 H979 0.929 . S
C991 C985 1.390 . S
C991 C988 1.386 . S
C992 C987 1.490 . S
C992 C994 1.395 1_554 S
C992 C995 1.403 . S
H993 C999 0.930 . S
C994 H980 0.930 . S
C994 C992 1.395 1_556 S
C994 C997 1.403 . S
C995 C992 1.403 . S
C995 C996 1.524 . S
C995 C999 1.400 1_554 S
C996 H981 0.960 . S
C996 H982 0.960 . S
C996 H983 0.960 . S
C996 C995 1.524 . S
C997 C994 1.403 . S
C997 C998 1.392 . S
C997 C1001 1.495 . S
C998 C997 1.392 . S
C998 C999 1.385 . S
C998 C1000 1.478 . S
C999 H993 0.930 . S
C999 C995 1.400 1_556 S
C999 C998 1.385 . S
C1000 C998 1.478 . S
C1000 C1002 1.381 . S
C1000 C1006 1.383 . S
C1001 C997 1.495 . S
C1001 H1007 0.959 . S
C1001 H1008 0.961 . S
C1001 H1009 0.960 . S
C1002 C1000 1.381 . S
C1002 C1003 1.394 . S
C1002 H1010 0.930 . S
C1003 C1002 1.394 . S
C1003 C1004 1.383 . S
C1003 H1011 0.929 . S
C1004 C1003 1.383 . S
C1004 C1005 1.377 . S
C1005 H989 0.930 . S
C1005 C1004 1.377 . S
C1005 C1006 1.379 . S
C1006 H990 0.931 . S
C1006 C1000 1.383 . S
C1006 C1005 1.379 . S
H1007 C1001 0.959 . S
H1008 C1001 0.961 . S
H1009 C1001 0.960 . S
H1010 C1002 0.930 . S
H1011 C1003 0.929 . S
H1012 C1020 0.929 . S
H1013 C1022 0.930 . S
H1014 C1024 0.930 1_556 S
H1015 C1027 0.929 . S
H1016 C1030 0.930 . S
H1017 C1032 0.960 . S
H1018 C1032 0.960 1_554 S
H1019 C1032 0.960 . S
C1020 H1012 0.929 . S
C1020 C1021 1.377 . S
C1020 C1022 1.384 . S
C1021 C1020 1.377 . S
C1021 C1027 1.390 . S
C1022 H1013 0.930 . S
C1022 C1020 1.384 . S
C1022 C1023 1.372 . S
C1023 C1022 1.372 . S
C1023 C1024 1.400 . S
C1023 C1028 1.490 . S
C1024 H1014 0.930 1_554 S
C1024 C1023 1.400 . S
C1024 C1027 1.386 . S
H1025 C1041 0.930 . S
H1026 C1042 0.931 . S
C1027 H1015 0.929 . S
C1027 C1021 1.390 . S
C1027 C1024 1.386 . S
C1028 C1023 1.490 . S
C1028 C1030 1.395 . S
C1028 C1031 1.403 1_554 S
H1029 C1035 0.930 . S
C1030 H1016 0.930 . S
C1030 C1028 1.395 . S
C1030 C1033 1.403 1_554 S
C1031 C1028 1.403 1_556 S
C1031 C1032 1.524 . S
C1031 C1035 1.400 . S
C1032 H1017 0.960 . S
C1032 H1018 0.960 1_556 S
C1032 H1019 0.960 . S
C1032 C1031 1.524 . S
C1033 C1030 1.403 1_556 S
C1033 C1034 1.392 . S
C1033 C1037 1.495 . S
C1034 C1033 1.392 . S
C1034 C1035 1.385 . S
C1034 C1036 1.478 . S
C1035 H1029 0.930 . S
C1035 C1031 1.400 . S
C1035 C1034 1.385 . S
C1036 C1034 1.478 . S
C1036 C1038 1.381 . S
C1036 C1042 1.383 . S
C1037 C1033 1.495 . S
C1037 H1043 0.949 1_556 S
C1037 H1044 0.961 . S
C1037 H1045 0.960 . S
C1038 C1036 1.381 . S
C1038 C1039 1.394 . S
C1038 H1046 0.930 . S
C1039 C1038 1.394 . S
C1039 C1040 1.383 . S
C1039 H1047 0.929 . S
C1040 C1039 1.383 . S
C1040 C1041 1.377 . S
C1041 H1025 0.930 . S
C1041 C1040 1.377 . S
C1041 C1042 1.379 . S
C1042 H1026 0.931 . S
C1042 C1036 1.383 . S
C1042 C1041 1.379 . S
H1043 C1037 0.949 1_554 S
H1044 C1037 0.961 . S
H1045 C1037 0.960 . S
H1046 C1038 0.930 . S
H1047 C1039 0.929 . S
H1048 C1056 0.929 . S
H1049 C1058 0.930 . S
H1050 C1060 0.930 . S
H1051 C1063 0.929 . S
H1052 C1066 0.930 . S
H1053 C1068 0.965 . S
H1054 C1068 0.960 . S
H1055 C1068 0.960 1_655 S
C1056 H1048 0.929 . S
C1056 C1057 1.377 . S
C1056 C1058 1.384 . S
C1057 C1056 1.377 . S
C1057 C1063 1.390 1_455 S
C1058 H1049 0.930 . S
C1058 C1056 1.384 . S
C1058 C1059 1.372 . S
C1059 C1058 1.372 . S
C1059 C1060 1.400 1_455 S
C1059 C1064 1.490 . S
C1060 H1050 0.930 . S
C1060 C1059 1.400 1_655 S
C1060 C1063 1.386 . S
H1061 C1077 0.930 . S
H1062 C1078 0.931 . S
C1063 H1051 0.929 . S
C1063 C1057 1.390 1_655 S
C1063 C1060 1.386 . S
C1064 C1059 1.490 . S
C1064 C1066 1.395 . S
C1064 C1067 1.403 . S
H1065 C1071 0.930 . S
C1066 H1052 0.930 . S
C1066 C1064 1.395 . S
C1066 C1069 1.403 . S
C1067 C1064 1.403 . S
C1067 C1068 1.524 . S
C1067 C1071 1.400 . S
C1068 H1053 0.965 . S
C1068 H1054 0.960 . S
C1068 H1055 0.960 1_455 S
C1068 C1067 1.524 . S
C1069 C1066 1.403 . S
C1069 C1070 1.392 . S
C1069 C1073 1.495 . S
C1070 C1069 1.392 . S
C1070 C1071 1.385 . S
C1070 C1072 1.478 . S
C1071 H1065 0.930 . S
C1071 C1067 1.400 . S
C1071 C1070 1.385 . S
C1072 C1070 1.478 . S
C1072 C1074 1.381 . S
C1072 C1078 1.383 1_455 S
C1073 C1069 1.495 . S
C1073 H1079 0.959 . S
C1073 H1080 0.961 1_455 S
C1073 H1081 0.960 . S
C1074 C1072 1.381 . S
C1074 C1075 1.394 . S
C1074 H1082 0.930 . S
C1075 C1074 1.394 . S
C1075 C1076 1.383 . S
C1075 H1083 0.929 . S
C1076 C1075 1.383 . S
C1076 C1077 1.377 1_455 S
C1077 H1061 0.930 . S
C1077 C1076 1.377 1_655 S
C1077 C1078 1.379 . S
C1078 H1062 0.931 . S
C1078 C1072 1.383 1_655 S
C1078 C1077 1.379 . S
H1079 C1073 0.959 . S
H1080 C1073 0.961 1_655 S
H1081 C1073 0.960 . S
H1082 C1074 0.930 . S
H1083 C1075 0.929 . S
H1084 C1092 0.929 . S
H1085 C1094 0.930 . S
H1086 C1096 0.930 . S
H1087 C1099 0.929 . S
H1088 C1102 0.930 . S
H1089 C1104 0.960 . S
H1090 C1104 0.960 . S
H1091 C1104 0.924 1_565 S
C1092 H1084 0.929 . S
C1092 C1093 1.377 . S
C1092 C1094 1.384 . S
C1093 C1092 1.377 . S
C1093 C1099 1.390 1_545 S
C1094 H1085 0.930 . S
C1094 C1092 1.384 . S
C1094 C1095 1.372 . S
C1095 C1094 1.372 . S
C1095 C1096 1.400 1_545 S
C1095 C1100 1.490 . S
C1096 H1086 0.930 . S
C1096 C1095 1.400 1_565 S
C1096 C1099 1.386 . S
H1097 C1113 0.930 . S
H1098 C1114 0.931 . S
C1099 H1087 0.929 . S
C1099 C1093 1.390 1_565 S
C1099 C1096 1.386 . S
C1100 C1095 1.490 . S
C1100 C1102 1.395 . S
C1100 C1103 1.403 . S
H1101 C1107 0.930 . S
C1102 H1088 0.930 . S
C1102 C1100 1.395 . S
C1102 C1105 1.403 . S
C1103 C1100 1.403 . S
C1103 C1104 1.524 . S
C1103 C1107 1.400 . S
C1104 H1089 0.960 . S
C1104 H1090 0.960 . S
C1104 H1091 0.924 1_545 S
C1104 C1103 1.524 . S
C1105 C1102 1.403 . S
C1105 C1106 1.392 . S
C1105 C1109 1.499 . S
C1106 C1105 1.392 . S
C1106 C1107 1.385 . S
C1106 C1108 1.478 . S
C1107 H1101 0.930 . S
C1107 C1103 1.400 . S
C1107 C1106 1.385 . S
C1108 C1106 1.478 . S
C1108 C1110 1.381 . S
C1108 C1114 1.383 1_545 S
C1109 C1105 1.499 . S
C1109 H1115 0.955 1_545 S
C1109 H1116 0.933 1_545 S
C1109 H1117 0.988 . S
C1110 C1108 1.381 . S
C1110 C1111 1.394 . S
C1110 H1118 0.930 . S
C1111 C1110 1.394 . S
C1111 C1112 1.383 . S
C1111 H1119 0.929 . S
C1112 C1111 1.383 . S
C1112 C1113 1.377 1_545 S
C1113 H1097 0.930 . S
C1113 C1112 1.377 1_565 S
C1113 C1114 1.379 . S
C1114 H1098 0.931 . S
C1114 C1108 1.383 1_565 S
C1114 C1113 1.379 . S
H1115 C1109 0.955 1_565 S
H1116 C1109 0.933 1_565 S
H1117 C1109 0.988 . S
H1118 C1110 0.930 . S
H1119 C1111 0.929 . S
H1120 C1128 0.929 . S
H1121 C1130 0.930 . S
H1122 C1132 0.930 . S
H1123 C1135 0.929 . S
H1124 C1138 0.930 . S
H1125 C1140 0.960 . S
H1126 C1140 0.960 . S
H1127 C1140 0.960 . S
C1128 H1120 0.929 . S
C1128 C1129 1.377 . S
C1128 C1130 1.384 . S
C1129 C1128 1.377 . S
C1129 C1135 1.390 . S
C1130 H1121 0.930 . S
C1130 C1128 1.384 . S
C1130 C1131 1.372 . S
C1131 C1130 1.372 . S
C1131 C1132 1.400 . S
C1131 C1136 1.490 . S
C1132 H1122 0.930 . S
C1132 C1131 1.400 . S
C1132 C1135 1.386 . S
H1133 C1149 0.930 . S
H1134 C1150 0.931 . S
C1135 H1123 0.929 . S
C1135 C1129 1.390 . S
C1135 C1132 1.386 . S
C1136 C1131 1.490 . S
C1136 C1138 1.395 . S
C1136 C1139 1.403 . S
H1137 C1143 0.930 . S
C1138 H1124 0.930 . S
C1138 C1136 1.395 . S
C1138 C1141 1.403 . S
C1139 C1136 1.403 . S
C1139 C1140 1.524 . S
C1139 C1143 1.400 . S
C1140 H1125 0.960 . S
C1140 H1126 0.960 . S
C1140 H1127 0.960 . S
C1140 C1139 1.524 . S
C1141 C1138 1.403 . S
C1141 C1142 1.392 . S
C1141 C1145 1.495 . S
C1142 C1141 1.392 . S
C1142 C1143 1.385 . S
C1142 C1144 1.478 . S
C1143 H1137 0.930 . S
C1143 C1139 1.400 . S
C1143 C1142 1.385 . S
C1144 C1142 1.478 . S
C1144 C1146 1.381 . S
C1144 C1150 1.383 . S
C1145 C1141 1.495 . S
C1145 H1151 0.959 . S
C1145 H1152 0.961 . S
C1145 H1153 0.960 . S
C1146 C1144 1.381 . S
C1146 C1147 1.394 . S
C1146 H1154 0.930 . S
C1147 C1146 1.394 . S
C1147 C1148 1.383 . S
C1147 H1155 0.929 . S
C1148 C1147 1.383 . S
C1148 C1149 1.377 . S
C1149 H1133 0.930 . S
C1149 C1148 1.377 . S
C1149 C1150 1.379 . S
C1150 H1134 0.931 . S
C1150 C1144 1.383 . S
C1150 C1149 1.379 . S
H1151 C1145 0.959 . S
H1152 C1145 0.961 . S
H1153 C1145 0.960 . S
H1154 C1146 0.930 . S
H1155 C1147 0.929 . S
H1156 C1164 0.929 . S
H1157 C1166 0.930 . S
H1158 C1168 0.930 . S
H1159 C1171 0.929 . S
H1160 C1174 0.930 . S
H1161 C1176 0.960 . S
H1162 C1176 0.960 . S
H1163 C1176 0.960 . S
C1164 H1156 0.929 . S
C1164 C1165 1.377 . S
C1164 C1166 1.384 . S
C1165 C1164 1.377 . S
C1165 C1171 1.390 . S
C1166 H1157 0.930 . S
C1166 C1164 1.384 . S
C1166 C1167 1.372 . S
C1167 C1166 1.372 . S
C1167 C1168 1.400 . S
C1167 C1172 1.490 . S
C1168 H1158 0.930 . S
C1168 C1167 1.400 . S
C1168 C1171 1.386 . S
H1169 C1185 0.930 . S
H1170 C1186 0.931 . S
C1171 H1159 0.929 . S
C1171 C1165 1.390 . S
C1171 C1168 1.386 . S
C1172 C1167 1.490 . S
C1172 C1174 1.395 . S
C1172 C1175 1.403 . S
H1173 C1179 0.930 . S
C1174 H1160 0.930 . S
C1174 C1172 1.395 . S
C1174 C1177 1.403 . S
C1175 C1172 1.403 . S
C1175 C1176 1.524 . S
C1175 C1179 1.400 . S
C1176 H1161 0.960 . S
C1176 H1162 0.960 . S
C1176 H1163 0.960 . S
C1176 C1175 1.524 . S
C1177 C1174 1.403 . S
C1177 C1178 1.392 . S
C1177 C1181 1.495 . S
C1178 C1177 1.392 . S
C1178 C1179 1.385 . S
C1178 C1180 1.478 . S
C1179 H1173 0.930 . S
C1179 C1175 1.400 . S
C1179 C1178 1.385 . S
C1180 C1178 1.478 . S
C1180 C1182 1.381 . S
C1180 C1186 1.383 . S
C1181 C1177 1.495 . S
C1181 H1187 0.959 . S
C1181 H1188 0.961 . S
C1181 H1189 0.960 . S
C1182 C1180 1.381 . S
C1182 C1183 1.394 . S
C1182 H1190 0.930 . S
C1183 C1182 1.394 . S
C1183 C1184 1.383 . S
C1183 H1191 0.929 . S
C1184 C1183 1.383 . S
C1184 C1185 1.377 . S
C1185 H1169 0.930 . S
C1185 C1184 1.377 . S
C1185 C1186 1.379 . S
C1186 H1170 0.931 . S
C1186 C1180 1.383 . S
C1186 C1185 1.379 . S
H1187 C1181 0.959 . S
H1188 C1181 0.961 . S
H1189 C1181 0.960 . S
H1190 C1182 0.930 . S
H1191 C1183 0.929 . S
H1192 C1200 0.929 . S
H1193 C1202 0.930 . S
H1194 C1204 0.930 . S
H1195 C1207 0.929 . S
H1196 C1210 0.930 . S
H1197 C1212 0.960 . S
H1198 C1212 0.960 . S
H1199 C1212 0.960 . S
C1200 H1192 0.929 . S
C1200 C1201 1.377 1_455 S
C1200 C1202 1.384 . S
C1201 C1200 1.377 1_655 S
C1201 C1207 1.390 . S
C1202 H1193 0.930 . S
C1202 C1200 1.384 . S
C1202 C1203 1.372 1_455 S
C1203 C1202 1.372 1_655 S
C1203 C1204 1.400 . S
C1203 C1208 1.490 . S
C1204 H1194 0.930 . S
C1204 C1203 1.400 . S
C1204 C1207 1.386 . S
H1205 C1221 0.930 . S
H1206 C1222 0.931 . S
C1207 H1195 0.929 . S
C1207 C1201 1.390 . S
C1207 C1204 1.386 . S
C1208 C1203 1.490 . S
C1208 C1210 1.395 1_655 S
C1208 C1211 1.403 . S
H1209 C1215 0.930 . S
C1210 H1196 0.930 . S
C1210 C1208 1.395 1_455 S
C1210 C1213 1.403 . S
C1211 C1208 1.403 . S
C1211 C1212 1.524 . S
C1211 C1215 1.400 . S
C1212 H1197 0.960 . S
C1212 H1198 0.960 . S
C1212 H1199 0.960 . S
C1212 C1211 1.524 . S
C1213 C1210 1.403 . S
C1213 C1214 1.392 1_455 S
C1213 C1217 1.495 . S
C1214 C1213 1.392 1_655 S
C1214 C1215 1.385 . S
C1214 C1216 1.478 . S
C1215 H1209 0.930 . S
C1215 C1211 1.400 . S
C1215 C1214 1.385 . S
C1216 C1214 1.478 . S
C1216 C1218 1.381 1_655 S
C1216 C1222 1.383 . S
C1217 C1213 1.495 . S
C1217 H1223 0.959 . S
C1217 H1224 0.961 . S
C1217 H1225 0.960 . S
C1218 C1216 1.381 1_455 S
C1218 C1219 1.402 . S
C1218 H1226 0.930 . S
C1219 C1218 1.402 . S
C1219 C1220 1.363 1_455 S
C1219 H1227 0.947 . S
C1220 C1219 1.363 1_655 S
C1220 C1221 1.377 . S
C1221 H1205 0.930 . S
C1221 C1220 1.377 . S
C1221 C1222 1.379 . S
C1222 H1206 0.931 . S
C1222 C1216 1.383 . S
C1222 C1221 1.379 . S
H1223 C1217 0.959 . S
H1224 C1217 0.961 . S
H1225 C1217 0.960 . S
H1226 C1218 0.930 . S
H1227 C1219 0.947 . S
H1228 C1236 0.929 . S
H1229 C1238 0.930 . S
H1230 C1240 0.930 . S
H1231 C1243 0.929 . S
H1232 C1246 0.930 . S
H1233 C1248 0.960 . S
H1234 C1248 0.960 . S
H1235 C1248 0.960 1_545 S
C1236 H1228 0.929 . S
C1236 C1237 1.377 . S
C1236 C1238 1.384 . S
C1237 C1236 1.377 . S
C1237 C1243 1.390 1_565 S
C1238 H1229 0.930 . S
C1238 C1236 1.384 . S
C1238 C1239 1.372 . S
C1239 C1238 1.372 . S
C1239 C1240 1.400 1_565 S
C1239 C1244 1.490 . S
C1240 H1230 0.930 . S
C1240 C1239 1.400 1_545 S
C1240 C1243 1.386 . S
H1241 C1257 0.930 . S
H1242 C1258 0.931 . S
C1243 H1231 0.929 . S
C1243 C1237 1.390 1_545 S
C1243 C1240 1.386 . S
C1244 C1239 1.490 . S
C1244 C1246 1.395 . S
C1244 C1247 1.403 . S
H1245 C1251 0.930 . S
C1246 H1232 0.930 . S
C1246 C1244 1.395 . S
C1246 C1249 1.403 . S
C1247 C1244 1.403 . S
C1247 C1248 1.524 . S
C1247 C1251 1.400 . S
C1248 H1233 0.960 . S
C1248 H1234 0.960 . S
C1248 H1235 0.960 1_565 S
C1248 C1247 1.524 . S
C1249 C1246 1.403 . S
C1249 C1250 1.392 . S
C1249 C1253 1.495 . S
C1250 C1249 1.392 . S
C1250 C1251 1.385 . S
C1250 C1252 1.478 . S
C1251 H1245 0.930 . S
C1251 C1247 1.400 . S
C1251 C1250 1.385 . S
C1252 C1250 1.478 . S
C1252 C1254 1.381 . S
C1252 C1258 1.383 1_565 S
C1253 C1249 1.495 . S
C1253 H1259 0.959 . S
C1253 H1260 0.923 1_565 S
C1253 H1261 0.960 . S
C1254 C1252 1.381 . S
C1254 C1255 1.394 . S
C1254 H1262 0.930 . S
C1255 C1254 1.394 . S
C1255 C1256 1.383 . S
C1255 H1263 0.929 . S
C1256 C1255 1.383 . S
C1256 C1257 1.377 1_565 S
C1257 H1241 0.930 . S
C1257 C1256 1.377 1_545 S
C1257 C1258 1.379 . S
C1258 H1242 0.931 . S
C1258 C1252 1.383 1_545 S
C1258 C1257 1.379 . S
H1259 C1253 0.959 . S
H1260 C1253 0.923 1_545 S
H1261 C1253 0.960 . S
H1262 C1254 0.930 . S
H1263 C1255 0.929 . S
H1264 C1272 0.929 . S
H1265 C1274 0.930 . S
H1266 C1276 0.930 . S
H1267 C1279 0.929 . S
H1268 C1282 0.930 . S
H1269 C1284 0.960 . S
H1270 C1284 0.960 . S
H1271 C1284 0.960 . S
C1272 H1264 0.929 . S
C1272 C1273 1.377 . S
C1272 C1274 1.384 . S
C1273 C1272 1.377 . S
C1273 C1279 1.390 . S
C1274 H1265 0.930 . S
C1274 C1272 1.384 . S
C1274 C1275 1.372 . S
C1275 C1274 1.372 . S
C1275 C1276 1.400 . S
C1275 C1280 1.490 . S
C1276 H1266 0.930 . S
C1276 C1275 1.400 . S
C1276 C1279 1.386 . S
H1277 C1293 0.930 . S
H1278 C1294 0.931 . S
C1279 H1267 0.929 . S
C1279 C1273 1.390 . S
C1279 C1276 1.386 . S
C1280 C1275 1.490 . S
C1280 C1282 1.395 . S
C1280 C1283 1.403 . S
H1281 C1287 0.930 . S
C1282 H1268 0.930 . S
C1282 C1280 1.395 . S
C1282 C1285 1.403 . S
C1283 C1280 1.403 . S
C1283 C1284 1.524 . S
C1283 C1287 1.400 . S
C1284 H1269 0.960 . S
C1284 H1270 0.960 . S
C1284 H1271 0.960 . S
C1284 C1283 1.524 . S
C1285 C1282 1.403 . S
C1285 C1286 1.392 . S
C1285 C1289 1.495 . S
C1286 C1285 1.392 . S
C1286 C1287 1.385 . S
C1286 C1288 1.478 . S
C1287 H1281 0.930 . S
C1287 C1283 1.400 . S
C1287 C1286 1.385 . S
C1288 C1286 1.478 . S
C1288 C1290 1.381 . S
C1288 C1294 1.383 . S
C1289 C1285 1.495 . S
C1289 H1295 0.959 . S
C1289 H1296 0.961 . S
C1289 H1297 0.960 . S
C1290 C1288 1.381 . S
C1290 C1291 1.394 . S
C1290 H1298 0.930 . S
C1291 C1290 1.394 . S
C1291 C1292 1.383 . S
C1291 H1299 0.929 . S
C1292 C1291 1.383 . S
C1292 C1293 1.377 . S
C1293 H1277 0.930 . S
C1293 C1292 1.377 . S
C1293 C1294 1.379 . S
C1294 H1278 0.931 . S
C1294 C1288 1.383 . S
C1294 C1293 1.379 . S
H1295 C1289 0.959 . S
H1296 C1289 0.961 . S
H1297 C1289 0.960 . S
H1298 C1290 0.930 . S
H1299 C1291 0.929 . S
H1300 C1308 0.929 . S
H1301 C1310 0.930 . S
H1302 C1312 0.930 . S
H1303 C1315 0.929 . S
H1304 C1318 0.930 . S
H1305 C1320 0.960 . S
H1306 C1320 0.960 . S
H1307 C1320 0.960 . S
C1308 H1300 0.929 . S
C1308 C1309 1.377 . S
C1308 C1310 1.384 . S
C1309 C1308 1.377 . S
C1309 C1315 1.390 . S
C1310 H1301 0.930 . S
C1310 C1308 1.384 . S
C1310 C1311 1.372 . S
C1311 C1310 1.372 . S
C1311 C1312 1.400 . S
C1311 C1316 1.490 . S
C1312 H1302 0.930 . S
C1312 C1311 1.400 . S
C1312 C1315 1.386 . S
H1313 C1329 0.930 . S
H1314 C1330 0.931 . S
C1315 H1303 0.929 . S
C1315 C1309 1.390 . S
C1315 C1312 1.386 . S
C1316 C1311 1.490 . S
C1316 C1318 1.395 . S
C1316 C1319 1.403 . S
H1317 C1323 0.930 . S
C1318 H1304 0.930 . S
C1318 C1316 1.395 . S
C1318 C1321 1.403 . S
C1319 C1316 1.403 . S
C1319 C1320 1.524 . S
C1319 C1323 1.400 . S
C1320 H1305 0.960 . S
C1320 H1306 0.960 . S
C1320 H1307 0.960 . S
C1320 C1319 1.524 . S
C1321 C1318 1.403 . S
C1321 C1322 1.392 . S
C1321 C1325 1.495 . S
C1322 C1321 1.392 . S
C1322 C1323 1.385 . S
C1322 C1324 1.478 . S
C1323 H1317 0.930 . S
C1323 C1319 1.400 . S
C1323 C1322 1.385 . S
C1324 C1322 1.478 . S
C1324 C1326 1.381 . S
C1324 C1330 1.383 . S
C1325 C1321 1.495 . S
C1325 H1331 0.959 . S
C1325 H1332 0.961 . S
C1325 H1333 0.960 . S
C1326 C1324 1.381 . S
C1326 C1327 1.394 . S
C1326 H1334 0.930 . S
C1327 C1326 1.394 . S
C1327 C1328 1.383 . S
C1327 H1335 0.929 . S
C1328 C1327 1.383 . S
C1328 C1329 1.377 . S
C1329 H1313 0.930 . S
C1329 C1328 1.377 . S
C1329 C1330 1.379 . S
C1330 H1314 0.931 . S
C1330 C1324 1.383 . S
C1330 C1329 1.379 . S
H1331 C1325 0.959 . S
H1332 C1325 0.961 . S
H1333 C1325 0.960 . S
H1334 C1326 0.930 . S
H1335 C1327 0.929 . S
C481 C255 1.951 1_545 S
C500 C314 2.055 1_545 S
C536 C354 2.073 . S
C517 C294 1.938 . S
C572 C394 2.072 . S
C553 C177 1.950 . S
C608 C434 2.072 1_455 S
C589 C216 1.956 1_455 S
C644 C327 2.063 . S
C625 C99 1.957 . S
C661 C138 1.939 . S
C680 C367 2.076 . S
C697 C21 1.950 . S
C716 C407 2.061 . S
C733 C60 1.958 1_455 S
C752 C447 2.073 1_655 S
C788 C338 0.255 . S
C769 C196 0.258 1_455 S
C824 C378 0.232 . S
C805 C235 0.237 1_545 S
C860 C418 0.146 . S
C841 C289 0.220 . S
C877 C157 0.258 . S
C896 C458 0.280 . S
C913 C40 0.224 . S
C932 C321 0.212 . S
C968 C361 0.180 . S
C949 C79 0.243 . S
C1004 C401 0.280 . S
C985 C133 0.211 . S
C1021 C1 0.217 . S
C1040 C441 0.279 . S
C1057 C211 2.523 . S
C1076 C315 2.830 . S
C1093 C250 2.511 . S
C1112 C355 2.825 . S
C1148 C395 2.821 . S
C1129 C274 2.517 . S
C1184 C435 2.829 . S
C1165 C172 2.508 . S
C1201 C55 2.526 1_655 S
C1220 C334 2.834 . S
C1256 C374 2.817 . S
C1237 C94 2.507 1_565 S
C1292 C414 2.825 . S
C1273 C118 2.515 . S
C1309 C16 2.510 . S
C1328 C454 2.825 . S
