# Generated by pormake.
# Topology tsx, (6,3)-cn, num edge types: 1
# Building blocks:
#     Node 0, Type 0, BuildingBlock: VOLQOD_clean_sbu_1, # of connection points: 6
#     Node 1, Type 0, BuildingBlock: VOLQOD_clean_sbu_1, # of connection points: 6
#     Node 2, Type 1, BuildingBlock: BELTOD_clean_linker_0, # of connection points: 3
#     Node 3, Type 1, BuildingBlock: BELTOD_clean_linker_0, # of connection points: 3
#     Node 4, Type 1, BuildingBlock: BELTOD_clean_linker_0, # of connection points: 3
#     Node 5, Type 1, BuildingBlock: BELTOD_clean_linker_0, # of connection points: 3
#     Edge 6, Type (0, 1), BuildingBlock: EZIPEK_clean_linker_0, # of connection points: 2
#     Edge 7, Type (0, 1), BuildingBlock: EZIPEK_clean_linker_0, # of connection points: 2
#     Edge 8, Type (0, 1), BuildingBlock: EZIPEK_clean_linker_0, # of connection points: 2
#     Edge 9, Type (0, 1), BuildingBlock: EZIPEK_clean_linker_0, # of connection points: 2
#     Edge 10, Type (0, 1), BuildingBlock: EZIPEK_clean_linker_0, # of connection points: 2
#     Edge 11, Type (0, 1), BuildingBlock: EZIPEK_clean_linker_0, # of connection points: 2
#     Edge 12, Type (0, 1), BuildingBlock: EZIPEK_clean_linker_0, # of connection points: 2
#     Edge 13, Type (0, 1), BuildingBlock: EZIPEK_clean_linker_0, # of connection points: 2
#     Edge 14, Type (0, 1), BuildingBlock: EZIPEK_clean_linker_0, # of connection points: 2
#     Edge 15, Type (0, 1), BuildingBlock: EZIPEK_clean_linker_0, # of connection points: 2
#     Edge 16, Type (0, 1), BuildingBlock: EZIPEK_clean_linker_0, # of connection points: 2
#     Edge 17, Type (0, 1), BuildingBlock: EZIPEK_clean_linker_0, # of connection points: 2
# Relax obj value: 0.067
# Max RMSD: 0.102
# Mean RMSD: 0.074
data_MOF--net-tsx--node1-VOLQOD_clean_sbu_1--node2-BELTOD_clean_linker_0--edge1-EZIPEK_clean_linker_0
_symmetry_space_group_name_H-M    P1
_symmetry_Int_Tables_number       1
_symmetry_cell_setting            triclinic
loop_
_symmetry_equiv_pos_as_xyz
'x, y, z'
_cell_length_a     17.968984
_cell_length_b     18.669166
_cell_length_c     34.921313
_cell_angle_alpha  91.220938
_cell_angle_beta   89.807187
_cell_angle_gamma 89.986726
loop_
_atom_site_label
_atom_site_type_symbol
_atom_site_fract_x
_atom_site_fract_y
_atom_site_fract_z
_atom_type_partial_charge
O0 O 0.05133 0.98009 0.09283 0.0
Zn1 Zn 0.07708 0.97558 0.03693 0.0
O2 O 0.98917 0.99094 0.0059 0.0
Zn3 Zn 0.96965 0.90373 0.97697 0.0
Zn4 Zn 0.9039 0.01394 0.03881 0.0
Zn5 Zn 0.00697 0.06808 0.97043 0.0
O6 O 0.9621 0.92134 0.92048 0.0
O7 O 0.01511 0.02888 0.91615 0.0
O8 O 0.1305 0.88321 0.02362 0.0
O9 O 0.05323 0.83436 0.98184 0.0
O10 O 0.88086 0.85386 0.99777 0.0
O11 O 0.82995 0.93271 0.03854 0.0
O12 O 0.85218 0.10372 0.02207 0.0
O13 O 0.1482 0.05587 0.02992 0.0
O14 O 0.92148 0.13738 0.97254 0.0
O15 O 0.09918 0.12441 0.98519 0.0
C16 C -0.00445 0.00615 0.11088 0.0
C17 C 0.9897 0.97145 0.90069 0.0
C18 C 0.83086 0.8712 0.02211 0.0
C19 C 0.11274 0.83149 0.00112 0.0
C20 C 0.86582 0.14607 0.99481 0.0
C21 C 0.14986 0.11142 0.0095 0.0
O22 O 0.93686 0.02608 0.0937 0.0
O23 O 0.55295 0.48806 0.5925 0.0
Zn24 Zn 0.57045 0.49519 0.53598 0.0
O25 O 0.47827 0.50489 0.50777 0.0
Zn26 Zn 0.46275 0.41955 0.47572 0.0
Zn27 Zn 0.39723 0.51546 0.54473 0.0
Zn28 Zn 0.48384 0.58822 0.47526 0.0
O29 O 0.45414 0.4432 0.41994 0.0
O30 O 0.48725 0.55813 0.41939 0.0
O31 O 0.6307 0.41189 0.51659 0.0
O32 O 0.55243 0.35605 0.4769 0.0
O33 O 0.37674 0.36138 0.49458 0.0
O34 O 0.33561 0.42576 0.54479 0.0
O35 O 0.33202 0.59986 0.53263 0.0
O36 O 0.63287 0.58244 0.52992 0.0
O37 O 0.39336 0.64911 0.48423 0.0
O38 O 0.57464 0.64906 0.48727 0.0
C39 C 0.49842 0.50927 0.61314 0.0
C40 C 0.47143 0.49947 0.40195 0.0
C41 C 0.33325 0.37009 0.52313 0.0
C42 C 0.6154 0.36093 0.49321 0.0
C43 C 0.33845 0.64768 0.50736 0.0
C44 C 0.62872 0.63832 0.50992 0.0
O45 O 0.43667 0.52779 0.59852 0.0
P46 P 0.08044 0.0813 0.40262 0.0
H47 H 0.0398 0.23073 0.41492 0.0
H48 H 0.9259 0.28884 0.43869 0.0
H49 H 0.8255 0.08191 0.45514 0.0
H50 H 0.93983 0.02346 0.43165 0.0
H51 H 0.15843 0.95331 0.37582 0.0
H52 H 0.20414 0.848 0.40906 0.0
H53 H 0.09819 0.92276 0.51328 0.0
H54 H 0.05507 0.03014 0.48073 0.0
H55 H 0.16083 0.12486 0.33381 0.0
H56 H 0.96457 0.00258 0.36108 0.0
O57 O 0.15298 0.13621 0.40842 0.0
H58 H 0.13685 0.10496 0.26531 0.0
H59 H 0.94 0.98379 0.29246 0.0
C60 C -0.00113 0.12295 0.42265 0.0
C61 C 0.99395 0.19778 0.42436 0.0
C62 C 0.92917 0.23088 0.43779 0.0
C63 C 0.86822 0.18938 0.44905 0.0
C64 C 0.87268 0.11446 0.44706 0.0
C65 C 0.93771 0.08137 0.43371 0.0
C66 C 0.10225 -0.00109 0.42558 0.0
C67 C 0.14366 0.94658 0.40561 0.0
C68 C 0.16952 0.8865 0.42447 0.0
C69 C 0.15443 0.87823 0.46352 0.0
C70 C 0.11053 0.92895 0.48322 0.0
C71 C 0.0856 0.98974 0.4645 0.0
C72 C 0.06402 0.06571 0.35244 0.0
C73 C 0.11259 0.09391 0.32513 0.0
C74 C 0.09902 0.08261 0.28612 0.0
C75 C 0.03662 0.04315 0.27404 0.0
C76 C 0.98832 0.01448 0.30138 0.0
C77 C 0.00224 0.02537 0.3404 0.0
P78 P 0.09085 0.89987 0.60955 0.0
H79 H 0.05732 0.7571 0.57832 0.0
H80 H 0.94515 0.7058 0.54898 0.0
H81 H 0.84119 0.91401 0.55216 0.0
H82 H 0.9526 0.96528 0.58207 0.0
H83 H 0.22082 0.93742 0.56386 0.0
H84 H 0.26874 0.05233 0.54163 0.0
H85 H 0.07898 0.16078 0.59172 0.0
H86 H 0.03118 0.04596 0.61424 0.0
H87 H 0.97878 0.83336 0.65912 0.0
H88 H 0.15087 -0.00614 0.66975 0.0
O89 O 0.16061 0.84083 0.60766 0.0
H90 H 0.94986 0.84912 0.72766 0.0
H91 H 0.12069 0.01042 0.73782 0.0
C92 C 0.01351 0.86512 0.58236 0.0
C93 C 0.01103 0.7921 0.57218 0.0
C94 C 0.94721 0.76281 0.55538 0.0
C95 C 0.88512 0.80623 0.54863 0.0
C96 C 0.88881 0.87989 0.55712 0.0
C97 C 0.95247 0.90904 0.57419 0.0
C98 C 0.12223 0.98317 0.59036 0.0
C99 C 0.18891 0.98564 0.56955 0.0
C100 C 0.21605 0.05094 0.55678 0.0
C101 C 0.17687 0.11446 0.56488 0.0
C102 C 0.10922 0.11195 0.58487 0.0
C103 C 0.08206 0.04653 0.59757 0.0
C104 C 0.06572 0.91377 0.65911 0.0
C105 C 0.00945 0.87272 0.67592 0.0
C106 C 0.99291 0.8816 0.71493 0.0
C107 C 0.03259 0.93157 0.73745 0.0
C108 C 0.08893 0.97237 0.72066 0.0
C109 C 0.10592 0.96296 0.68185 0.0
P110 P 0.59091 0.59436 0.90327 0.0
H111 H 0.5566 0.71994 0.95196 0.0
H112 H 0.43896 0.76524 0.97905 0.0
H113 H 0.3261 0.57573 0.9367 0.0
H114 H 0.44279 0.53215 0.90798 0.0
H115 H 0.7413 0.53842 0.90016 0.0
H116 H 0.79947 0.43164 0.92685 0.0
H117 H 0.59325 0.37878 0.98305 0.0
H118 H 0.53521 0.48576 0.95697 0.0
H119 H 0.52689 0.67926 0.84345 0.0
H120 H 0.60338 0.46169 0.85564 0.0
O121 O 0.65093 0.66235 0.90202 0.0
H122 H 0.50185 0.65482 0.77538 0.0
H123 H 0.57879 0.43769 0.78747 0.0
C124 C 0.5078 0.62324 0.9276 0.0
C125 C 0.50664 0.68803 0.94863 0.0
C126 C 0.43983 0.71367 0.96423 0.0
C127 C 0.37405 0.67399 0.95952 0.0
C128 C 0.37636 0.60713 0.94041 0.0
C129 C 0.44268 0.58242 0.92406 0.0
C130 C 0.6341 0.52024 0.92659 0.0
C131 C 0.7089 0.50456 0.9187 0.0
C132 C 0.74203 0.4439 0.93389 0.0
C133 C 0.70042 0.39785 0.95681 0.0
C134 C 0.62598 0.41407 0.96542 0.0
C135 C 0.59297 0.47508 0.95039 0.0
C136 C 0.56744 0.57256 0.85445 0.0
C137 C 0.53769 0.62618 0.83156 0.0
C138 C 0.52332 0.61232 0.79288 0.0
C139 C 0.5386 0.54457 0.77664 0.0
C140 C 0.56661 0.49022 0.7997 0.0
C141 C 0.58083 0.50409 0.83851 0.0
P142 P 0.58911 0.40697 0.11426 0.0
H143 H 0.5799 0.28189 0.06258 0.0
H144 H 0.47348 0.21966 0.03327 0.0
H145 H 0.3265 0.38516 0.07695 0.0
H146 H 0.43243 0.44566 0.1078 0.0
H147 H 0.73251 0.47703 0.11732 0.0
H148 H 0.77742 0.59164 0.09353 0.0
H149 H 0.56444 0.6289 0.04089 0.0
H150 H 0.51969 0.51363 0.0641 0.0
H151 H 0.53725 0.31623 0.17552 0.0
H152 H 0.57364 0.5422 0.15929 0.0
O153 O 0.65856 0.34782 0.11637 0.0
H154 H 0.5032 0.34119 0.24278 0.0
H155 H 0.54026 0.56659 0.22632 0.0
C156 C 0.5135 0.3675 0.0879 0.0
C157 C 0.5249 0.30506 0.06566 0.0
C158 C 0.46446 0.2699 0.04869 0.0
C159 C 0.39234 0.29772 0.05322 0.0
C160 C 0.38184 0.36297 0.07325 0.0
C161 C 0.44204 0.39719 0.0909 0.0
C162 C 0.6233 0.48626 0.09199 0.0
C163 C 0.69588 0.50909 0.10005 0.0
C164 C 0.7213 0.57449 0.08673 0.0
C165 C 0.67403 0.61841 0.06564 0.0
C166 C 0.60154 0.59543 0.05713 0.0
C167 C 0.57625 0.52956 0.07029 0.0
C168 C 0.55884 0.42708 0.16252 0.0
C169 C 0.5374 0.37107 0.1863 0.0
C170 C 0.51776 0.38523 0.22449 0.0
C171 C 0.51932 0.45566 0.23928 0.0
C172 C 0.53864 0.51197 0.21524 0.0
C173 C 0.55805 0.49782 0.17703 0.0
C174 C 0.25802 0.18971 0.99054 0.0
C175 C 0.20701 0.16604 0.01867 0.0
C176 C 0.27898 0.2263 0.06904 0.0
C177 C 0.32715 0.2545 0.04085 0.0
N178 N 0.35425 0.27524 0.97431 0.0
N179 N 0.15654 0.17997 0.08262 0.0
C180 C 0.3141 0.24001 0.00136 0.0
C181 C 0.21363 0.1901 0.05729 0.0
N182 N 0.25522 0.16184 0.95408 0.0
N183 N 0.29729 0.23068 0.107 0.0
H184 H 0.10625 0.15604 0.07473 0.0
H185 H 0.15588 0.20243 0.1102 0.0
H186 H 0.34624 0.25425 0.11707 0.0
H187 H 0.26761 0.20426 0.12816 0.0
H188 H 0.29597 0.17127 0.93351 0.0
H189 H 0.21518 0.12472 0.94517 0.0
H190 H 0.34236 0.27208 0.94516 0.0
H191 H 0.39533 0.31271 0.98135 0.0
C192 C 0.21979 0.75384 0.02243 0.0
C193 C 0.167 0.77179 0.9939 0.0
C194 C 0.24742 0.72084 0.9441 0.0
C195 C 0.30164 0.70476 0.972 0.0
N196 N 0.33234 0.68844 0.03838 0.0
N197 N 0.11631 0.73276 0.93258 0.0
C198 C 0.28568 0.71586 0.01153 0.0
C199 C 0.17589 0.74293 0.95623 0.0
N200 N 0.20602 0.77207 0.05986 0.0
N201 N 0.26462 0.7179 0.90593 0.0
H202 H 0.06147 0.73707 0.94201 0.0
H203 H 0.12096 0.70796 0.90564 0.0
H204 H 0.3174 0.70468 0.89548 0.0
H205 H 0.22838 0.73597 0.88497 0.0
H206 H 0.2457 0.76962 0.08144 0.0
H207 H 0.1539 0.78998 0.06926 0.0
H208 H 0.32106 0.68931 0.06763 0.0
H209 H 0.38025 0.65954 0.03113 0.0
C210 C 0.7467 0.7695 0.00464 0.0
C211 C 0.77707 0.81527 0.03351 0.0
C212 C 0.71735 0.74217 0.08223 0.0
C213 C 0.70087 0.68951 0.05376 0.0
N214 N 0.71104 0.64826 0.98804 0.0
N215 N 0.80219 0.83607 0.10126 0.0
C216 C 0.71776 0.70201 0.01489 0.0
C217 C 0.76451 0.80012 0.07284 0.0
N218 N 0.74479 0.79075 0.96749 0.0
N219 N 0.68888 0.7362 0.11834 0.0
H220 H 0.84186 0.87543 0.09639 0.0
H221 H 0.80009 0.82116 0.12984 0.0
H222 H 0.65391 0.69421 0.12604 0.0
H223 H 0.69382 0.77659 0.13925 0.0
H224 H 0.71796 0.76133 0.94594 0.0
H225 H 0.76267 0.84133 0.95921 0.0
H226 H 0.7339 0.65198 0.96071 0.0
H227 H 0.68999 0.59776 0.99423 0.0
C228 C 0.81443 0.26664 0.01382 0.0
C229 C 0.81518 0.20673 0.98808 0.0
C230 C 0.73479 0.26993 0.94352 0.0
C231 C 0.73396 0.32982 0.96924 0.0
N232 N 0.75965 0.38171 0.03151 0.0
N233 N 0.76455 0.14422 0.93302 0.0
C234 C 0.76931 0.32687 0.00539 0.0
C235 C 0.77175 0.20625 0.95427 0.0
N236 N 0.85985 0.26741 0.04519 0.0
N237 N 0.70196 0.2748 0.90837 0.0
H238 H 0.79066 0.09648 0.94029 0.0
H239 H 0.72799 0.13803 0.91014 0.0
H240 H 0.67098 0.31919 0.90021 0.0
H241 H 0.70851 0.2367 0.88643 0.0
H242 H 0.86847 0.31242 0.0627 0.0
H243 H 0.89312 0.22404 0.0525 0.0
H244 H 0.7775 0.37982 0.05979 0.0
H245 H 0.72865 0.42744 0.02572 0.0
C246 C 0.68897 0.73022 0.55161 0.0
C247 C 0.68651 0.69358 0.51576 0.0
C248 C 0.8064 0.74615 0.49807 0.0
C249 C 0.81407 0.77288 0.5362 0.0
N250 N 0.7663 0.78394 0.60089 0.0
N251 N 0.7424 0.66367 0.4547 0.0
C252 C 0.75597 0.764 0.56336 0.0
C253 C 0.74466 0.70144 0.48864 0.0
N254 N 0.62678 0.73306 0.57425 0.0
N255 N 0.85782 0.76411 0.47099 0.0
H256 H 0.69696 0.63215 0.44653 0.0
H257 H 0.78692 0.66038 0.4356 0.0
H258 H 0.90356 0.79674 0.47718 0.0
H259 H 0.85202 0.75185 0.44194 0.0
H260 H 0.62282 0.76458 0.59914 0.0
H261 H 0.57652 0.70929 0.56608 0.0
H262 H 0.72926 0.77094 0.62267 0.0
H263 H 0.81481 0.80827 0.61102 0.0
C264 C 0.69755 0.30592 0.44263 0.0
C265 C 0.67502 0.31053 0.48166 0.0
C266 C 0.77828 0.23265 0.49961 0.0
C267 C 0.79809 0.22534 0.46039 0.0
N268 N 0.76662 0.23972 0.39394 0.0
N269 N 0.68324 0.26678 0.54598 0.0
C270 C 0.75428 0.25696 0.43168 0.0
C271 C 0.71221 0.27034 0.50982 0.0
N272 N 0.66841 0.35145 0.41638 0.0
N273 N 0.82395 0.20591 0.52709 0.0
H274 H 0.6342 0.29292 0.55418 0.0
H275 H 0.70378 0.23282 0.56672 0.0
H276 H 0.87221 0.17698 0.52061 0.0
H277 H 0.81687 0.21662 0.55626 0.0
H278 H 0.68903 0.35567 0.38861 0.0
H279 H 0.62844 0.39016 0.42312 0.0
H280 H 0.73137 0.2554 0.37202 0.0
H281 H 0.80801 0.20396 0.38484 0.0
C282 C 0.31167 0.26979 0.56767 0.0
C283 C 0.28829 0.30862 0.53533 0.0
C284 C 0.18911 0.22135 0.52278 0.0
C285 C 0.21111 0.18413 0.55587 0.0
N286 N 0.28106 0.18082 0.61463 0.0
N287 N 0.19886 0.32974 0.48567 0.0
C288 C 0.26858 0.21095 0.57985 0.0
C289 C 0.22506 0.2869 0.5139 0.0
N290 N 0.37718 0.28678 0.58558 0.0
N291 N 0.13543 0.1929 0.4994 0.0
H292 H 0.22455 0.37778 0.4785 0.0
H293 H 0.14893 0.32086 0.47133 0.0
H294 H 0.10681 0.14593 0.50556 0.0
H295 H 0.12201 0.21354 0.47291 0.0
H296 H 0.40136 0.25521 0.60638 0.0
H297 H 0.41107 0.32929 0.57756 0.0
H298 H 0.31654 0.20298 0.6352 0.0
H299 H 0.25087 0.13714 0.62448 0.0
C300 C 0.3094 0.77744 0.51176 0.0
C301 C 0.28367 0.70643 0.50576 0.0
C302 C 0.1624 0.75206 0.48573 0.0
C303 C 0.19367 0.82151 0.48429 0.0
N304 N 0.29661 0.90219 0.49558 0.0
N305 N 0.18584 0.62422 0.4873 0.0
C306 C 0.26674 0.83503 0.49783 0.0
C307 C 0.20953 0.69301 0.49363 0.0
N308 N 0.37441 0.78946 0.5311 0.0
N309 N 0.08805 0.7429 0.47918 0.0
H310 H 0.21858 0.57964 0.49304 0.0
H311 H 0.13543 0.61123 0.4743 0.0
H312 H 0.05282 0.78559 0.47306 0.0
H313 H 0.06023 0.69473 0.48322 0.0
H314 H 0.3928 0.84026 0.53953 0.0
H315 H 0.40631 0.74796 0.54209 0.0
H316 H 0.35256 0.91344 0.5005 0.0
H317 H 0.2662 0.9465 0.48683 0.0
C318 C 0.01436 0.95426 0.1756 0.0
C319 C 0.0004 0.01499 0.15296 0.0
C320 C -0.00179 0.09168 0.21073 0.0
C321 C 0.02162 0.03264 0.23258 0.0
N322 N 0.06268 0.90974 0.23521 0.0
N323 N 0.99088 0.14362 0.14798 0.0
C324 C 0.03246 0.96431 0.21489 0.0
C325 C -0.00492 0.08436 0.17023 0.0
N326 N 0.00797 0.88689 0.15983 0.0
N327 N 0.97737 0.15428 0.22876 0.0
H328 H 0.98948 0.141 0.11814 0.0
H329 H -0.00446 0.19575 0.15893 0.0
H330 H 0.97857 0.16156 0.25846 0.0
H331 H 0.95242 0.19653 0.21461 0.0
H332 H 0.01009 0.84052 0.17585 0.0
H333 H 0.99323 0.87741 0.13129 0.0
H334 H 0.07945 0.86122 0.22268 0.0
H335 H 0.07701 0.91501 0.26405 0.0
C336 C 0.05207 0.90934 0.84511 0.0
C337 C -0.00152 0.95973 0.85888 0.0
C338 C 0.96175 0.98595 0.79298 0.0
C339 C 0.01833 0.93884 0.77925 0.0
N340 N 0.12064 0.85877 0.79088 0.0
N341 N 0.90549 0.04962 0.84724 0.0
C342 C 0.06416 0.90104 0.80498 0.0
C343 C 0.95413 -0.00091 0.83314 0.0
N344 N 0.09141 0.86942 0.87052 0.0
N345 N 0.91469 0.01708 0.76749 0.0
H346 H 0.89576 0.05801 0.87646 0.0
H347 H 0.87726 0.08587 0.83036 0.0
H348 H 0.92015 0.01024 0.73789 0.0
H349 H 0.86749 0.04618 0.77534 0.0
H350 H 0.12458 0.82585 0.86268 0.0
H351 H 0.0886 0.87753 0.90012 0.0
H352 H 0.16196 0.83645 0.80766 0.0
H353 H 0.12884 0.84845 0.7617 0.0
C354 C 0.46145 0.47959 0.68046 0.0
C355 C 0.50894 0.51671 0.65505 0.0
C356 C 0.58162 0.56289 0.7094 0.0
C357 C 0.52944 0.53237 0.73484 0.0
N358 N 0.41399 0.46983 0.74524 0.0
N359 N 0.60544 0.60485 0.64551 0.0
C360 C 0.4677 0.49286 0.72057 0.0
C361 C 0.56687 0.56127 0.66954 0.0
N362 N 0.41243 0.42969 0.66637 0.0
N363 N 0.64619 0.59206 0.72328 0.0
H364 H 0.59518 0.60695 0.6162 0.0
H365 H 0.64257 0.64405 0.65513 0.0
H366 H 0.65913 0.59425 0.75239 0.0
H367 H 0.6899 0.60804 0.70575 0.0
H368 H 0.38199 0.39555 0.68366 0.0
H369 H 0.40694 0.41781 0.63721 0.0
H370 H 0.36362 0.44779 0.7362 0.0
H371 H 0.41718 0.47786 0.77484 0.0
C372 C 0.55639 0.49223 0.34512 0.0
C373 C 0.48264 0.49348 0.35997 0.0
C374 C 0.43256 0.47704 0.29503 0.0
C375 C 0.50625 0.46985 0.28074 0.0
N376 N 0.63822 0.46097 0.29199 0.0
N377 N 0.35041 0.4818 0.35046 0.0
C378 C 0.5682 0.47519 0.30571 0.0
C379 C 0.4206 0.48433 0.33529 0.0
N380 N 0.61533 0.50743 0.36865 0.0
N381 N 0.37432 0.47858 0.26995 0.0
H382 H 0.33938 0.4909 0.37951 0.0
H383 H 0.30347 0.46708 0.3348 0.0
H384 H 0.3812 0.4722 0.24039 0.0
H385 H 0.31992 0.49104 0.27793 0.0
H386 H 0.66919 0.51618 0.35874 0.0
H387 H 0.61018 0.51603 0.39812 0.0
H388 H 0.68461 0.45498 0.3094 0.0
H389 H 0.64951 0.44958 0.26318 0.0
loop_
_geom_bond_atom_site_label_1
_geom_bond_atom_site_label_2
_geom_bond_distance
_geom_bond_site_symmetry_2
_ccdc_geom_bond_type
O0 Zn1 1.953 . S
O0 C16 1.225 1_565 S
Zn1 O0 1.953 . S
Zn1 O2 1.949 1_565 S
Zn1 O8 1.919 . S
Zn1 O13 1.924 1_565 S
O2 Zn1 1.949 1_545 S
O2 Zn3 1.923 1_444 S
O2 Zn4 1.950 1_455 S
O2 Zn5 1.945 1_554 S
Zn3 O2 1.923 1_666 S
Zn3 O6 1.933 . S
Zn3 O9 1.941 1_655 S
Zn3 O10 1.965 . S
Zn4 O2 1.950 1_655 S
Zn4 O11 1.938 1_545 S
Zn4 O12 1.906 . S
Zn4 O22 1.953 . S
Zn5 O2 1.945 1_556 S
Zn5 O7 1.932 . S
Zn5 O14 1.977 1_455 S
Zn5 O15 1.910 . S
O6 Zn3 1.933 . S
O6 C17 1.226 1_665 S
O7 Zn5 1.932 . S
O7 C17 1.307 . S
O8 Zn1 1.919 . S
O8 C19 1.253 1_554 S
O9 Zn3 1.941 1_455 S
O9 C19 1.283 . S
O10 Zn3 1.965 . S
O10 C18 1.303 1_556 S
O11 Zn4 1.938 1_565 S
O11 C18 1.247 . S
O12 Zn4 1.906 . S
O12 C20 1.304 1_554 S
O13 Zn1 1.924 1_545 S
O13 C21 1.311 . S
O14 Zn5 1.977 1_655 S
O14 C20 1.272 . S
O15 Zn5 1.910 . S
O15 C21 1.231 1_556 S
C16 O0 1.225 1_545 S
C16 O22 1.298 1_455 S
C17 O6 1.226 1_445 S
C17 O7 1.307 . S
C18 O10 1.303 1_554 S
C18 O11 1.247 . S
C19 O8 1.253 1_556 S
C19 O9 1.283 . S
C20 O12 1.304 1_556 S
C20 O14 1.272 . S
C21 O13 1.311 . S
C21 O15 1.231 1_554 S
O22 Zn4 1.953 . S
O22 C16 1.298 1_655 S
O23 Zn24 1.953 . S
O23 C39 1.225 . S
Zn24 O23 1.953 . S
Zn24 O25 1.949 . S
Zn24 O31 1.919 . S
Zn24 O36 1.924 . S
O25 Zn24 1.949 . S
O25 Zn26 1.923 . S
O25 Zn27 1.950 . S
O25 Zn28 1.945 . S
Zn26 O25 1.923 . S
Zn26 O29 1.933 . S
Zn26 O32 1.941 . S
Zn26 O33 1.965 . S
Zn27 O25 1.950 . S
Zn27 O34 1.938 . S
Zn27 O35 1.906 . S
Zn27 O45 1.953 . S
Zn28 O25 1.945 . S
Zn28 O30 1.932 . S
Zn28 O37 1.977 . S
Zn28 O38 1.910 . S
O29 Zn26 1.933 . S
O29 C40 1.226 . S
O30 Zn28 1.932 . S
O30 C40 1.307 . S
O31 Zn24 1.919 . S
O31 C42 1.253 . S
O32 Zn26 1.941 . S
O32 C42 1.283 . S
O33 Zn26 1.965 . S
O33 C41 1.303 . S
O34 Zn27 1.938 . S
O34 C41 1.247 . S
O35 Zn27 1.906 . S
O35 C43 1.304 . S
O36 Zn24 1.924 . S
O36 C44 1.311 . S
O37 Zn28 1.977 . S
O37 C43 1.272 . S
O38 Zn28 1.910 . S
O38 C44 1.231 . S
C39 O23 1.225 . S
C39 O45 1.298 . S
C40 O29 1.226 . S
C40 O30 1.307 . S
C41 O33 1.303 . S
C41 O34 1.247 . S
C42 O31 1.253 . S
C42 O32 1.283 . S
C43 O35 1.304 . S
C43 O37 1.272 . S
C44 O36 1.311 . S
C44 O38 1.231 . S
O45 Zn27 1.953 . S
O45 C39 1.298 . S
P46 O57 1.490 . S
P46 C60 1.812 1_455 S
P46 C66 1.803 1_545 S
P46 C72 1.819 . S
H47 C61 0.941 1_455 S
H48 C62 0.939 . S
H49 C64 0.940 . S
H50 C65 0.940 . S
H51 C67 0.939 1_545 S
H52 C68 0.942 . S
H53 C70 0.940 . S
H54 C71 0.939 . S
H55 C73 0.941 . S
H56 C77 0.939 . S
O57 P46 1.490 . S
H58 C74 0.939 . S
H59 C76 0.940 . S
C60 P46 1.812 1_655 S
C60 C61 1.389 . S
C60 C65 1.391 . S
C61 H47 0.941 1_655 S
C61 C60 1.389 . S
C61 C62 1.397 . S
C62 H48 0.939 . S
C62 C61 1.397 . S
C62 C63 1.378 . S
C63 C62 1.378 . S
C63 C64 1.378 . S
C64 H49 0.940 . S
C64 C63 1.378 . S
C64 C65 1.396 . S
C65 H50 0.940 . S
C65 C60 1.391 . S
C65 C64 1.396 . S
C66 P46 1.803 1_565 S
C66 C67 1.378 . S
C66 C71 1.400 . S
C67 H51 0.939 1_565 S
C67 C66 1.378 . S
C67 C68 1.361 . S
C68 H52 0.942 . S
C68 C67 1.361 . S
C68 C69 1.369 . S
C69 C68 1.369 . S
C69 C70 1.404 . S
C70 H53 0.940 . S
C70 C69 1.404 . S
C70 C71 1.389 . S
C71 H54 0.939 . S
C71 C66 1.400 . S
C71 C70 1.389 . S
C72 P46 1.819 . S
C72 C73 1.391 . S
C72 C77 1.391 1_545 S
C73 H55 0.941 . S
C73 C72 1.391 . S
C73 C74 1.396 . S
C74 H58 0.939 . S
C74 C73 1.396 . S
C74 C75 1.397 . S
C75 C74 1.397 . S
C75 C76 1.385 1_545 S
C76 H59 0.940 . S
C76 C75 1.385 1_565 S
C76 C77 1.388 . S
C77 H56 0.939 . S
C77 C72 1.391 1_565 S
C77 C76 1.388 . S
P78 O89 1.490 . S
P78 C92 1.812 . S
P78 C98 1.803 1_565 S
P78 C104 1.819 . S
H79 C93 0.941 . S
H80 C94 0.939 . S
H81 C96 0.940 . S
H82 C97 0.940 . S
H83 C99 0.939 . S
H84 C100 0.942 . S
H85 C102 0.940 . S
H86 C103 0.939 . S
H87 C105 0.941 . S
H88 C109 0.939 . S
O89 P78 1.490 . S
H90 C106 0.939 . S
H91 C108 0.940 . S
C92 P78 1.812 . S
C92 C93 1.389 . S
C92 C97 1.391 1_455 S
C93 H79 0.941 . S
C93 C92 1.389 . S
C93 C94 1.397 1_455 S
C94 H80 0.939 . S
C94 C93 1.397 1_655 S
C94 C95 1.378 . S
C95 C94 1.378 . S
C95 C96 1.378 . S
C96 H81 0.940 . S
C96 C95 1.378 . S
C96 C97 1.396 . S
C97 H82 0.940 . S
C97 C92 1.391 1_655 S
C97 C96 1.396 . S
C98 P78 1.803 1_545 S
C98 C99 1.378 . S
C98 C103 1.400 . S
C99 H83 0.939 . S
C99 C98 1.378 . S
C99 C100 1.361 . S
C100 H84 0.942 . S
C100 C99 1.361 . S
C100 C101 1.369 . S
C101 C100 1.369 . S
C101 C102 1.404 . S
C102 H85 0.940 . S
C102 C101 1.404 . S
C102 C103 1.389 . S
C103 H86 0.939 . S
C103 C98 1.400 . S
C103 C102 1.389 . S
C104 P78 1.819 . S
C104 C105 1.391 . S
C104 C109 1.391 1_565 S
C105 H87 0.941 . S
C105 C104 1.391 . S
C105 C106 1.396 . S
C106 H90 0.939 . S
C106 C105 1.396 . S
C106 C107 1.397 . S
C107 C106 1.397 . S
C107 C108 1.385 1_565 S
C108 H91 0.940 . S
C108 C107 1.385 1_545 S
C108 C109 1.388 . S
C109 H88 0.939 . S
C109 C104 1.391 1_545 S
C109 C108 1.388 . S
P110 O121 1.490 . S
P110 C124 1.812 . S
P110 C130 1.803 . S
P110 C136 1.819 . S
H111 C125 0.941 . S
H112 C126 0.939 . S
H113 C128 0.940 . S
H114 C129 0.940 . S
H115 C131 0.939 . S
H116 C132 0.942 . S
H117 C134 0.940 . S
H118 C135 0.939 . S
H119 C137 0.941 . S
H120 C141 0.939 . S
O121 P110 1.490 . S
H122 C138 0.939 . S
H123 C140 0.940 . S
C124 P110 1.812 . S
C124 C125 1.389 . S
C124 C129 1.391 . S
C125 H111 0.941 . S
C125 C124 1.389 . S
C125 C126 1.397 . S
C126 H112 0.939 . S
C126 C125 1.397 . S
C126 C127 1.378 . S
C127 C126 1.378 . S
C127 C128 1.378 . S
C128 H113 0.940 . S
C128 C127 1.378 . S
C128 C129 1.396 . S
C129 H114 0.940 . S
C129 C124 1.391 . S
C129 C128 1.396 . S
C130 P110 1.803 . S
C130 C131 1.378 . S
C130 C135 1.400 . S
C131 H115 0.939 . S
C131 C130 1.378 . S
C131 C132 1.361 . S
C132 H116 0.942 . S
C132 C131 1.361 . S
C132 C133 1.369 . S
C133 C132 1.369 . S
C133 C134 1.404 . S
C134 H117 0.940 . S
C134 C133 1.404 . S
C134 C135 1.389 . S
C135 H118 0.939 . S
C135 C130 1.400 . S
C135 C134 1.389 . S
C136 P110 1.819 . S
C136 C137 1.391 . S
C136 C141 1.391 . S
C137 H119 0.941 . S
C137 C136 1.391 . S
C137 C138 1.396 . S
C138 H122 0.939 . S
C138 C137 1.396 . S
C138 C139 1.397 . S
C139 C138 1.397 . S
C139 C140 1.385 . S
C140 H123 0.940 . S
C140 C139 1.385 . S
C140 C141 1.388 . S
C141 H120 0.939 . S
C141 C136 1.391 . S
C141 C140 1.388 . S
P142 O153 1.490 . S
P142 C156 1.812 . S
P142 C162 1.803 . S
P142 C168 1.819 . S
H143 C157 0.941 . S
H144 C158 0.939 . S
H145 C160 0.940 . S
H146 C161 0.940 . S
H147 C163 0.939 . S
H148 C164 0.942 . S
H149 C166 0.940 . S
H150 C167 0.939 . S
H151 C169 0.941 . S
H152 C173 0.939 . S
O153 P142 1.490 . S
H154 C170 0.939 . S
H155 C172 0.940 . S
C156 P142 1.812 . S
C156 C157 1.389 . S
C156 C161 1.391 . S
C157 H143 0.941 . S
C157 C156 1.389 . S
C157 C158 1.397 . S
C158 H144 0.939 . S
C158 C157 1.397 . S
C158 C159 1.378 . S
C159 C158 1.378 . S
C159 C160 1.378 . S
C160 H145 0.940 . S
C160 C159 1.378 . S
C160 C161 1.396 . S
C161 H146 0.940 . S
C161 C156 1.391 . S
C161 C160 1.396 . S
C162 P142 1.803 . S
C162 C163 1.378 . S
C162 C167 1.400 . S
C163 H147 0.939 . S
C163 C162 1.378 . S
C163 C164 1.361 . S
C164 H148 0.942 . S
C164 C163 1.361 . S
C164 C165 1.369 . S
C165 C164 1.369 . S
C165 C166 1.404 . S
C166 H149 0.940 . S
C166 C165 1.404 . S
C166 C167 1.389 . S
C167 H150 0.939 . S
C167 C162 1.400 . S
C167 C166 1.389 . S
C168 P142 1.819 . S
C168 C169 1.391 . S
C168 C173 1.391 . S
C169 H151 0.941 . S
C169 C168 1.391 . S
C169 C170 1.396 . S
C170 H154 0.939 . S
C170 C169 1.396 . S
C170 C171 1.397 . S
C171 C170 1.397 . S
C171 C172 1.385 . S
C172 H155 0.940 . S
C172 C171 1.385 . S
C172 C173 1.388 . S
C173 H152 0.939 . S
C173 C168 1.391 . S
C173 C172 1.388 . S
C174 C175 1.363 . S
C174 C180 1.379 . S
C174 N182 1.356 1_554 S
C175 C174 1.363 . S
C175 C181 1.363 . S
C176 C177 1.363 . S
C176 C181 1.379 . S
C176 N183 1.356 . S
C177 C176 1.363 . S
C177 C180 1.363 . S
N178 C180 1.353 1_556 S
N178 H190 0.991 . S
N178 H191 0.981 1_556 S
N179 C181 1.356 . S
N179 H184 0.984 . S
N179 H185 0.985 . S
C180 C174 1.379 . S
C180 C177 1.363 . S
C180 N178 1.353 1_554 S
C181 C175 1.363 . S
C181 C176 1.379 . S
C181 N179 1.356 . S
N182 C174 1.356 1_556 S
N182 H188 0.984 . S
N182 H189 0.984 . S
N183 C176 1.356 . S
N183 H186 0.984 . S
N183 H187 0.985 . S
H184 N179 0.984 . S
H185 N179 0.985 . S
H186 N183 0.984 . S
H187 N183 0.985 . S
H188 N182 0.984 . S
H189 N182 0.984 . S
H190 N178 0.991 . S
H191 N178 0.981 1_554 S
C192 C193 1.363 1_554 S
C192 C198 1.379 . S
C192 N200 1.356 . S
C193 C192 1.363 1_556 S
C193 C199 1.363 . S
C194 C195 1.363 . S
C194 C199 1.379 . S
C194 N201 1.356 . S
C195 C194 1.363 . S
C195 C198 1.363 1_556 S
N196 C198 1.356 . S
N196 H208 0.984 . S
N196 H209 0.985 . S
N197 C199 1.356 . S
N197 H202 0.984 . S
N197 H203 0.985 . S
C198 C192 1.379 . S
C198 C195 1.363 1_554 S
C198 N196 1.356 . S
C199 C193 1.363 . S
C199 C194 1.379 . S
C199 N197 1.356 . S
N200 C192 1.356 . S
N200 H206 0.984 . S
N200 H207 0.984 . S
N201 C194 1.356 . S
N201 H204 0.984 . S
N201 H205 0.985 . S
H202 N197 0.984 . S
H203 N197 0.985 . S
H204 N201 0.984 . S
H205 N201 0.985 . S
H206 N200 0.984 . S
H207 N200 0.984 . S
H208 N196 0.984 . S
H209 N196 0.985 . S
C210 C211 1.363 . S
C210 C216 1.379 . S
C210 N218 1.356 1_554 S
C211 C210 1.363 . S
C211 C217 1.363 . S
C212 C213 1.363 . S
C212 C217 1.379 . S
C212 N219 1.356 . S
C213 C212 1.363 . S
C213 C216 1.363 . S
N214 C216 1.356 1_556 S
N214 H226 0.984 . S
N214 H227 0.985 1_556 S
N215 C217 1.356 . S
N215 H220 0.984 . S
N215 H221 0.985 . S
C216 C210 1.379 . S
C216 C213 1.363 . S
C216 N214 1.356 1_554 S
C217 C211 1.363 . S
C217 C212 1.379 . S
C217 N215 1.356 . S
N218 C210 1.356 1_556 S
N218 H224 0.984 . S
N218 H225 0.984 . S
N219 C212 1.356 . S
N219 H222 0.984 . S
N219 H223 0.985 . S
H220 N215 0.984 . S
H221 N215 0.985 . S
H222 N219 0.984 . S
H223 N219 0.985 . S
H224 N218 0.984 . S
H225 N218 0.984 . S
H226 N214 0.984 . S
H227 N214 0.985 1_554 S
C228 C229 1.363 1_554 S
C228 C234 1.379 . S
C228 N236 1.356 . S
C229 C228 1.363 1_556 S
C229 C235 1.363 . S
C230 C231 1.363 . S
C230 C235 1.379 . S
C230 N237 1.356 . S
C231 C230 1.363 . S
C231 C234 1.363 1_556 S
N232 C234 1.356 . S
N232 H244 0.984 . S
N232 H245 0.985 . S
N233 C235 1.356 . S
N233 H238 0.984 . S
N233 H239 0.985 . S
C234 C228 1.379 . S
C234 C231 1.363 1_554 S
C234 N232 1.356 . S
C235 C229 1.363 . S
C235 C230 1.379 . S
C235 N233 1.356 . S
N236 C228 1.356 . S
N236 H242 0.984 . S
N236 H243 0.984 . S
N237 C230 1.356 . S
N237 H240 0.984 . S
N237 H241 0.985 . S
H238 N233 0.984 . S
H239 N233 0.985 . S
H240 N237 0.984 . S
H241 N237 0.985 . S
H242 N236 0.984 . S
H243 N236 0.984 . S
H244 N232 0.984 . S
H245 N232 0.985 . S
C246 C247 1.363 . S
C246 C252 1.379 . S
C246 N254 1.356 . S
C247 C246 1.363 . S
C247 C253 1.363 . S
C248 C249 1.363 . S
C248 C253 1.379 . S
C248 N255 1.356 . S
C249 C248 1.363 . S
C249 C252 1.363 . S
N250 C252 1.356 . S
N250 H262 0.984 . S
N250 H263 0.985 . S
N251 C253 1.356 . S
N251 H256 0.984 . S
N251 H257 0.985 . S
C252 C246 1.379 . S
C252 C249 1.363 . S
C252 N250 1.356 . S
C253 C247 1.363 . S
C253 C248 1.379 . S
C253 N251 1.356 . S
N254 C246 1.356 . S
N254 H260 0.984 . S
N254 H261 0.984 . S
N255 C248 1.356 . S
N255 H258 0.984 . S
N255 H259 0.985 . S
H256 N251 0.984 . S
H257 N251 0.985 . S
H258 N255 0.984 . S
H259 N255 0.985 . S
H260 N254 0.984 . S
H261 N254 0.984 . S
H262 N250 0.984 . S
H263 N250 0.985 . S
C264 C265 1.363 . S
C264 C270 1.379 . S
C264 N272 1.356 . S
C265 C264 1.363 . S
C265 C271 1.363 . S
C266 C267 1.363 . S
C266 C271 1.379 . S
C266 N273 1.356 . S
C267 C266 1.363 . S
C267 C270 1.363 . S
N268 C270 1.356 . S
N268 H280 0.984 . S
N268 H281 0.985 . S
N269 C271 1.356 . S
N269 H274 0.984 . S
N269 H275 0.985 . S
C270 C264 1.379 . S
C270 C267 1.363 . S
C270 N268 1.356 . S
C271 C265 1.363 . S
C271 C266 1.379 . S
C271 N269 1.356 . S
N272 C264 1.356 . S
N272 H278 0.984 . S
N272 H279 0.984 . S
N273 C266 1.356 . S
N273 H276 0.984 . S
N273 H277 0.985 . S
H274 N269 0.984 . S
H275 N269 0.985 . S
H276 N273 0.984 . S
H277 N273 0.985 . S
H278 N272 0.984 . S
H279 N272 0.984 . S
H280 N268 0.984 . S
H281 N268 0.985 . S
C282 C283 1.363 . S
C282 C288 1.379 . S
C282 N290 1.356 . S
C283 C282 1.363 . S
C283 C289 1.363 . S
C284 C285 1.363 . S
C284 C289 1.379 . S
C284 N291 1.356 . S
C285 C284 1.363 . S
C285 C288 1.363 . S
N286 C288 1.356 . S
N286 H298 0.984 . S
N286 H299 0.985 . S
N287 C289 1.356 . S
N287 H292 0.984 . S
N287 H293 0.985 . S
C288 C282 1.379 . S
C288 C285 1.363 . S
C288 N286 1.356 . S
C289 C283 1.363 . S
C289 C284 1.379 . S
C289 N287 1.356 . S
N290 C282 1.356 . S
N290 H296 0.984 . S
N290 H297 0.984 . S
N291 C284 1.356 . S
N291 H294 0.984 . S
N291 H295 0.985 . S
H292 N287 0.984 . S
H293 N287 0.985 . S
H294 N291 0.984 . S
H295 N291 0.985 . S
H296 N290 0.984 . S
H297 N290 0.984 . S
H298 N286 0.984 . S
H299 N286 0.985 . S
C300 C301 1.363 . S
C300 C306 1.379 . S
C300 N308 1.356 . S
C301 C300 1.363 . S
C301 C307 1.363 . S
C302 C303 1.363 . S
C302 C307 1.379 . S
C302 N309 1.356 . S
C303 C302 1.363 . S
C303 C306 1.363 . S
N304 C306 1.356 . S
N304 H316 0.984 . S
N304 H317 0.985 . S
N305 C307 1.356 . S
N305 H310 0.984 . S
N305 H311 0.985 . S
C306 C300 1.379 . S
C306 C303 1.363 . S
C306 N304 1.356 . S
C307 C301 1.363 . S
C307 C302 1.379 . S
C307 N305 1.356 . S
N308 C300 1.356 . S
N308 H314 0.984 . S
N308 H315 0.984 . S
N309 C302 1.356 . S
N309 H312 0.984 . S
N309 H313 0.985 . S
H310 N305 0.984 . S
H311 N305 0.985 . S
H312 N309 0.984 . S
H313 N309 0.985 . S
H314 N308 0.984 . S
H315 N308 0.984 . S
H316 N304 0.984 . S
H317 N304 0.985 . S
C318 C319 1.363 1_565 S
C318 C324 1.379 . S
C318 N326 1.356 . S
C319 C318 1.363 1_545 S
C319 C325 1.363 1_455 S
C320 C321 1.362 1_655 S
C320 C325 1.379 . S
C320 N327 1.356 . S
C321 C320 1.362 1_455 S
C321 C324 1.365 1_545 S
N322 C324 1.356 . S
N322 H334 0.984 . S
N322 H335 0.985 . S
N323 C325 1.356 . S
N323 H328 0.984 . S
N323 H329 0.985 . S
C324 C318 1.379 . S
C324 C321 1.365 1_565 S
C324 N322 1.356 . S
C325 C319 1.363 1_655 S
C325 C320 1.379 . S
C325 N323 1.356 . S
N326 C318 1.356 . S
N326 H332 0.984 . S
N326 H333 0.984 . S
N327 C320 1.356 . S
N327 H330 0.984 . S
N327 H331 0.985 . S
H328 N323 0.984 . S
H329 N323 0.985 . S
H330 N327 0.984 . S
H331 N327 0.985 . S
H332 N326 0.984 . S
H333 N326 0.984 . S
H334 N322 0.984 . S
H335 N322 0.985 . S
C336 C337 1.363 1_565 S
C336 C342 1.379 . S
C336 N344 1.356 . S
C337 C336 1.363 1_545 S
C337 C343 1.363 1_455 S
C338 C339 1.367 1_655 S
C338 C343 1.379 . S
C338 N345 1.356 . S
C339 C338 1.367 1_455 S
C339 C342 1.359 1_545 S
N340 C342 1.356 . S
N340 H352 0.984 . S
N340 H353 0.985 . S
N341 C343 1.356 . S
N341 H346 0.984 . S
N341 H347 0.985 . S
C342 C336 1.379 . S
C342 C339 1.359 1_565 S
C342 N340 1.356 . S
C343 C337 1.363 1_655 S
C343 C338 1.379 . S
C343 N341 1.356 . S
N344 C336 1.356 . S
N344 H350 0.984 . S
N344 H351 0.984 . S
N345 C338 1.356 . S
N345 H348 0.984 . S
N345 H349 0.985 . S
H346 N341 0.984 . S
H347 N341 0.985 . S
H348 N345 0.984 . S
H349 N345 0.985 . S
H350 N344 0.984 . S
H351 N344 0.984 . S
H352 N340 0.984 . S
H353 N340 0.985 . S
C354 C355 1.363 . S
C354 C360 1.379 . S
C354 N362 1.356 . S
C355 C354 1.363 . S
C355 C361 1.363 . S
C356 C357 1.363 . S
C356 C361 1.379 . S
C356 N363 1.356 . S
C357 C356 1.363 . S
C357 C360 1.363 . S
N358 C360 1.356 . S
N358 H370 0.984 . S
N358 H371 0.985 . S
N359 C361 1.356 . S
N359 H364 0.984 . S
N359 H365 0.985 . S
C360 C354 1.379 . S
C360 C357 1.363 . S
C360 N358 1.356 . S
C361 C355 1.363 . S
C361 C356 1.379 . S
C361 N359 1.356 . S
N362 C354 1.356 . S
N362 H368 0.984 . S
N362 H369 0.984 . S
N363 C356 1.356 . S
N363 H366 0.984 . S
N363 H367 0.985 . S
H364 N359 0.984 . S
H365 N359 0.985 . S
H366 N363 0.984 . S
H367 N363 0.985 . S
H368 N362 0.984 . S
H369 N362 0.984 . S
H370 N358 0.984 . S
H371 N358 0.985 . S
C372 C373 1.363 . S
C372 C378 1.379 . S
C372 N380 1.356 . S
C373 C372 1.363 . S
C373 C379 1.363 . S
C374 C375 1.363 . S
C374 C379 1.379 . S
C374 N381 1.356 . S
C375 C374 1.363 . S
C375 C378 1.363 . S
N376 C378 1.356 . S
N376 H388 0.984 . S
N376 H389 0.985 . S
N377 C379 1.356 . S
N377 H382 0.984 . S
N377 H383 0.985 . S
C378 C372 1.379 . S
C378 C375 1.363 . S
C378 N376 1.356 . S
C379 C373 1.363 . S
C379 C374 1.379 . S
C379 N377 1.356 . S
N380 C372 1.356 . S
N380 H386 0.984 . S
N380 H387 0.984 . S
N381 C374 1.356 . S
N381 H384 0.984 . S
N381 H385 0.985 . S
H382 N377 0.984 . S
H383 N377 0.985 . S
H384 N381 0.984 . S
H385 N381 0.985 . S
H386 N380 0.984 . S
H387 N380 0.984 . S
H388 N376 0.984 . S
H389 N376 0.985 . S
C177 C159 1.459 . S
C175 C21 1.471 . S
C193 C19 1.464 . S
C195 C127 1.450 . S
C211 C18 1.444 . S
C213 C165 1.431 . S
C229 C20 1.461 . S
C231 C133 1.433 . S
C247 C44 1.470 . S
C249 C95 1.459 . S
C265 C42 1.464 . S
C267 C63 1.450 . S
C285 C101 1.431 . S
C283 C41 1.444 . S
C303 C69 1.434 . S
C301 C43 1.461 . S
C319 C16 1.499 . S
C321 C75 1.461 . S
C337 C17 1.469 . S
C339 C107 1.439 1_545 S
C357 C139 1.460 . S
C355 C39 1.499 . S
C373 C40 1.469 . S
C375 C171 1.440 . S
