# Generated by pormake.
# Topology zzz, (3,6)-cn, num edge types: 1
# Building blocks:
#     Node 0, Type 0, BuildingBlock: VETTIZ_charged_linker_0, # of connection points: 3
#     Node 1, Type 0, BuildingBlock: VETTIZ_charged_linker_0, # of connection points: 3
#     Node 2, Type 0, BuildingBlock: VETTIZ_charged_linker_0, # of connection points: 3
#     Node 3, Type 0, BuildingBlock: VETTIZ_charged_linker_0, # of connection points: 3
#     Node 4, Type 0, BuildingBlock: VETTIZ_charged_linker_0, # of connection points: 3
#     Node 5, Type 0, BuildingBlock: VETTIZ_charged_linker_0, # of connection points: 3
#     Node 6, Type 0, BuildingBlock: VETTIZ_charged_linker_0, # of connection points: 3
#     Node 7, Type 0, BuildingBlock: VETTIZ_charged_linker_0, # of connection points: 3
#     Node 8, Type 1, BuildingBlock: KUMBOL_clean_sbu_0, # of connection points: 6
#     Node 9, Type 1, BuildingBlock: KUMBOL_clean_sbu_0, # of connection points: 6
#     Node 10, Type 1, BuildingBlock: KUMBOL_clean_sbu_0, # of connection points: 6
#     Node 11, Type 1, BuildingBlock: KUMBOL_clean_sbu_0, # of connection points: 6
#     Edge 12, Type (0, 1), BuildingBlock: XIVTED_clean_linker_0, # of connection points: 2
#     Edge 13, Type (0, 1), BuildingBlock: XIVTED_clean_linker_0, # of connection points: 2
#     Edge 14, Type (0, 1), BuildingBlock: XIVTED_clean_linker_0, # of connection points: 2
#     Edge 15, Type (0, 1), BuildingBlock: XIVTED_clean_linker_0, # of connection points: 2
#     Edge 16, Type (0, 1), BuildingBlock: XIVTED_clean_linker_0, # of connection points: 2
#     Edge 17, Type (0, 1), BuildingBlock: XIVTED_clean_linker_0, # of connection points: 2
#     Edge 18, Type (0, 1), BuildingBlock: XIVTED_clean_linker_0, # of connection points: 2
#     Edge 19, Type (0, 1), BuildingBlock: XIVTED_clean_linker_0, # of connection points: 2
#     Edge 20, Type (0, 1), BuildingBlock: XIVTED_clean_linker_0, # of connection points: 2
#     Edge 21, Type (0, 1), BuildingBlock: XIVTED_clean_linker_0, # of connection points: 2
#     Edge 22, Type (0, 1), BuildingBlock: XIVTED_clean_linker_0, # of connection points: 2
#     Edge 23, Type (0, 1), BuildingBlock: XIVTED_clean_linker_0, # of connection points: 2
#     Edge 24, Type (0, 1), BuildingBlock: XIVTED_clean_linker_0, # of connection points: 2
#     Edge 25, Type (0, 1), BuildingBlock: XIVTED_clean_linker_0, # of connection points: 2
#     Edge 26, Type (0, 1), BuildingBlock: XIVTED_clean_linker_0, # of connection points: 2
#     Edge 27, Type (0, 1), BuildingBlock: XIVTED_clean_linker_0, # of connection points: 2
#     Edge 28, Type (0, 1), BuildingBlock: XIVTED_clean_linker_0, # of connection points: 2
#     Edge 29, Type (0, 1), BuildingBlock: XIVTED_clean_linker_0, # of connection points: 2
#     Edge 30, Type (0, 1), BuildingBlock: XIVTED_clean_linker_0, # of connection points: 2
#     Edge 31, Type (0, 1), BuildingBlock: XIVTED_clean_linker_0, # of connection points: 2
#     Edge 32, Type (0, 1), BuildingBlock: XIVTED_clean_linker_0, # of connection points: 2
#     Edge 33, Type (0, 1), BuildingBlock: XIVTED_clean_linker_0, # of connection points: 2
#     Edge 34, Type (0, 1), BuildingBlock: XIVTED_clean_linker_0, # of connection points: 2
#     Edge 35, Type (0, 1), BuildingBlock: XIVTED_clean_linker_0, # of connection points: 2
# Relax obj value: 0.303
# Max RMSD: 0.229
# Mean RMSD: 0.215
data_MOF--net-zzz--node1-KUMBOL_clean_sbu_0--node2-VETTIZ_charged_linker_0--edge1-XIVTED_clean_linker_0
_symmetry_space_group_name_H-M    P1
_symmetry_Int_Tables_number       1
_symmetry_cell_setting            triclinic
loop_
_symmetry_equiv_pos_as_xyz
'x, y, z'
_cell_length_a     56.678108
_cell_length_b     56.493747
_cell_length_c     19.826478
_cell_angle_alpha  91.057415
_cell_angle_beta   90.019214
_cell_angle_gamma 89.94291
loop_
_atom_site_label
_atom_site_type_symbol
_atom_site_fract_x
_atom_site_fract_y
_atom_site_fract_z
_atom_type_partial_charge
C0 C 0.80609 0.54711 0.27677 0.0
C1 C 0.82824 0.55586 0.30017 0.0
C2 C 0.83866 0.57476 0.26617 0.0
C3 C 0.80654 0.57551 0.18568 0.0
C4 C 0.79532 0.55756 0.2195 0.0
C5 C 0.77133 0.55223 0.18733 0.0
H6 H 0.69829 0.57295 0.91524 0.0
C7 C 0.79209 0.58224 0.12704 0.0
C8 C 0.771 0.569 0.12708 0.0
H9 H 0.68079 0.52897 0.08409 0.0
H10 H 0.71918 0.53799 0.135 0.0
H11 H 0.71626 0.61562 1.00423 0.0
H12 H 0.74904 0.55773 0.89764 0.0
H13 H 0.76866 0.58134 0.88868 0.0
H14 H 0.73911 0.58374 0.85568 0.0
H15 H 0.71917 0.61443 0.91416 0.0
H16 H 0.74168 0.62749 0.96741 0.0
C17 C 0.75192 0.5586 0.23893 0.0
C18 C 0.77059 0.52607 0.16435 0.0
C19 C 0.83058 0.63262 0.94957 0.0
C20 C 0.82427 0.63738 0.88241 0.0
C21 C 0.80054 0.63436 0.86291 0.0
C22 C 0.78426 0.62399 0.90666 0.0
C23 C 0.79182 0.61637 0.97042 0.0
C24 C 0.81432 0.62176 0.99197 0.0
C25 C 0.81984 0.61138 0.05946 0.0
C26 C 0.79728 0.59777 0.07345 0.0
C27 C 0.78106 0.60074 0.02125 0.0
C28 C 0.82349 0.63221 0.11062 0.0
C29 C 0.84147 0.59465 0.05051 0.0
C30 C 0.70199 0.56555 0.96407 0.0
C31 C 0.68578 0.55061 0.99557 0.0
C32 C 0.69267 0.54063 0.05789 0.0
C33 C 0.71491 0.54604 0.08788 0.0
C34 C 0.73044 0.56176 0.0558 0.0
C35 C 0.72343 0.57119 0.99501 0.0
C36 C 0.74095 0.58799 0.96685 0.0
C37 C 0.75974 0.58773 0.0207 0.0
C38 C 0.7542 0.57205 0.07319 0.0
C39 C 0.72902 0.61268 0.96225 0.0
C40 C 0.7499 0.57742 0.89851 0.0
H41 H 0.83737 0.59866 0.18659 0.0
H42 H 0.79738 0.53288 0.30274 0.0
H43 H 0.78603 0.52177 0.13178 0.0
H44 H 0.75457 0.5219 0.13478 0.0
H45 H 0.77105 0.51425 0.20853 0.0
H46 H 0.75496 0.5766 0.2609 0.0
H47 H 0.75182 0.54581 0.28084 0.0
H48 H 0.73422 0.55885 0.21588 0.0
H49 H 0.84864 0.6345 0.96666 0.0
H50 H 0.79505 0.63824 0.81196 0.0
H51 H 0.76685 0.62092 0.88722 0.0
H52 H 0.8145 0.64864 0.09405 0.0
H53 H 0.84249 0.63648 0.11706 0.0
H54 H 0.81565 0.6286 0.1606 0.0
H55 H 0.8408 0.58517 1.00083 0.0
H56 H 0.84226 0.58042 0.08772 0.0
H57 H 0.85828 0.60472 0.05278 0.0
H58 H 0.8555 0.58185 0.28286 0.0
C59 C 0.82803 0.58456 0.20989 0.0
C60 C 0.90128 0.80993 0.90283 0.0
C61 C 0.896 0.83434 0.90642 0.0
C62 C 0.89849 0.84605 0.96975 0.0
C63 C 0.91831 0.81186 0.01508 0.0
C64 C 0.91321 0.79939 0.95653 0.0
C65 C 0.92508 0.77558 0.95448 0.0
H66 H 1.00328 0.69662 0.07545 0.0
C67 C 0.93533 0.79779 0.05459 0.0
C68 C 0.93945 0.77656 0.01946 0.0
H69 H 0.95591 0.69137 0.90439 0.0
H70 H 0.94094 0.72965 0.92903 0.0
H71 H 0.01595 0.75835 0.0532 0.0
H72 H 0.964 0.72665 0.18566 0.0
H73 H 0.98471 0.74625 0.22535 0.0
H74 H 0.99463 0.71836 0.19097 0.0
H75 H 0.0249 0.73722 0.11515 0.0
H76 H 0.01772 0.76712 0.1398 0.0
C77 C 0.94116 0.77442 0.89091 0.0
C78 C 0.90546 0.75642 0.95663 0.0
C79 C 0.97019 0.83765 0.26082 0.0
C80 C 0.98888 0.83321 0.30497 0.0
C81 C 1.00163 0.81174 0.29525 0.0
C82 C 0.99539 0.79513 0.24312 0.0
C83 C 0.97652 0.80018 0.19904 0.0
C84 C 0.96461 0.82144 0.20892 0.0
C85 C 0.94658 0.82584 0.1559 0.0
C86 C 0.9486 0.8035 0.11323 0.0
C87 C 0.96606 0.7879 0.13762 0.0
C88 C 0.95424 0.84825 0.11687 0.0
C89 C 0.92211 0.82775 0.19069 0.0
C90 C 0.98977 0.70401 0.04348 0.0
C91 C 0.98057 0.69049 0.98783 0.0
C92 C 0.96307 0.70088 0.94778 0.0
C93 C 0.95428 0.72337 0.96233 0.0
C94 C 0.96303 0.73651 0.01752 0.0
C95 C 0.98051 0.72715 0.05774 0.0
C96 C 0.98694 0.74484 0.1145 0.0
C97 C 0.9699 0.76559 0.10199 0.0
C98 C 0.95633 0.76022 0.04394 0.0
C99 C 0.01284 0.75232 0.10554 0.0
C100 C 0.98239 0.73343 0.18314 0.0
H101 H 0.9117 0.84526 0.06923 0.0
H102 H 0.89853 0.79971 0.85685 0.0
H103 H 0.88908 0.76333 0.98093 0.0
H104 H 0.91052 0.74109 0.98752 0.0
H105 H 0.90063 0.75008 0.90511 0.0
H106 H 0.94884 0.7921 0.88032 0.0
H107 H 0.93109 0.7686 0.84552 0.0
H108 H 0.95667 0.7628 0.89659 0.0
H109 H 0.96044 0.85413 0.2647 0.0
H110 H 0.01629 0.80774 0.32818 0.0
H111 H 1.0055 0.77909 0.23832 0.0
H112 H 0.97346 0.85186 0.12224 0.0
H113 H 0.94475 0.86429 0.13548 0.0
H114 H 0.95163 0.84635 0.06174 0.0
H115 H 0.92067 0.81492 0.23242 0.0
H116 H 0.90733 0.8233 0.15638 0.0
H117 H 0.91922 0.84576 0.21258 0.0
H118 H 0.89433 0.86461 0.97647 0.0
C119 C 0.90929 0.83485 0.02403 0.0
C120 C 0.82209 0.98196 0.06336 0.0
C121 C 0.83693 0.9692 0.01737 0.0
C122 C 0.83184 0.94521 1.00354 0.0
C123 C 0.79495 0.94879 0.06289 0.0
C124 C 0.80112 0.97093 0.08696 0.0
C125 C 0.78281 0.97961 0.13855 0.0
H126 H 0.67227 0.95824 0.27537 0.0
C127 C 0.77107 0.94306 0.08508 0.0
C128 C 0.76376 0.96021 0.13313 0.0
H129 H 0.71953 0.01388 0.34033 0.0
H130 H 0.74843 1.00086 0.25502 0.0
H131 H 0.67624 0.96904 0.13518 0.0
H132 H 0.7086 0.91537 0.25037 0.0
H133 H 0.69907 0.90218 0.17357 0.0
H134 H 0.67802 0.91732 0.22706 0.0
H135 H 0.66454 0.93979 0.13321 0.0
H136 H 0.68574 0.9494 0.07136 0.0
C137 C 0.77326 1.00393 0.11791 0.0
C138 C 0.79457 0.98022 0.20861 0.0
C139 C 0.72055 0.8981 0.91785 0.0
C140 C 0.69575 0.89795 0.91223 0.0
C141 C 0.68248 0.89953 0.97256 0.0
C142 C 0.69336 0.90564 0.03381 0.0
C143 C 0.71745 0.91127 0.0344 0.0
C144 C 0.73098 0.90605 0.97832 0.0
C145 C 0.75623 0.91378 0.98731 0.0
C146 C 0.75469 0.92698 0.05548 0.0
C147 C 0.73188 0.92559 0.08195 0.0
C148 C 0.76281 0.93052 0.92912 0.0
C149 C 0.77202 0.89134 0.98925 0.0
C150 C 0.68908 0.96731 0.27304 0.0
C151 C 0.69379 0.98658 0.31635 0.0
C152 C 0.71551 0.99867 0.30838 0.0
C153 C 0.73234 0.99098 0.25939 0.0
C154 C 0.72731 0.97122 0.21725 0.0
C155 C 0.70563 0.9602 0.22435 0.0
C156 C 0.70135 0.94145 0.17171 0.0
C157 C 0.72497 0.94086 0.13609 0.0
C158 C 0.74046 0.95846 0.1617 0.0
C159 C 0.68094 0.95015 0.12552 0.0
C160 C 0.69633 0.91777 0.20719 0.0
H161 H 0.8083 0.9165 0.01676 0.0
H162 H 0.82623 1.00001 0.07828 0.0
H163 H 0.80359 0.96312 0.21834 0.0
H164 H 0.78171 0.98298 0.24967 0.0
H165 H 0.80797 0.99455 0.21182 0.0
H166 H 0.76665 1.00313 0.06511 0.0
H167 H 0.78735 0.01757 0.12121 0.0
H168 H 0.75846 1.00978 0.15042 0.0
H169 H 0.73153 0.89489 0.87407 0.0
H170 H 0.66344 0.89853 0.97224 0.0
H171 H 0.68224 0.90754 0.07723 0.0
H172 H 0.75028 0.94566 0.9272 0.0
H173 H 0.76238 0.92101 0.87964 0.0
H174 H 0.78073 0.93786 0.93408 0.0
H175 H 0.76219 0.87487 0.97593 0.0
H176 H 0.77951 0.88869 0.04039 0.0
H177 H 0.7867 0.89223 0.95229 0.0
H178 H 0.84356 0.93459 0.97208 0.0
C179 C 0.81126 0.93486 0.02745 0.0
C180 C 0.54249 0.73024 0.32387 0.0
C181 C 0.55323 0.71173 0.36066 0.0
C182 C 0.57752 0.70744 0.35208 0.0
C183 C 0.57854 0.73457 0.25994 0.0
C184 C 0.55607 0.74219 0.27495 0.0
C185 C 0.55032 0.76423 0.23467 0.0
H186 H 0.5797 0.82869 0.95502 0.0
C187 C 0.58693 0.74657 0.19987 0.0
C188 C 0.57129 0.76514 0.18555 0.0
H189 H 0.52829 0.84925 0.10622 0.0
H190 H 0.53651 0.81304 0.16702 0.0
H191 H 0.62067 0.81289 0.05705 0.0
H192 H 0.56657 0.77881 0.94209 0.0
H193 H 0.5865 0.75564 0.95603 0.0
H194 H 0.59581 0.78111 0.90928 0.0
H195 H 0.6198 0.80968 0.96676 0.0
H196 H 0.63305 0.78736 0.01834 0.0
C197 C 0.55025 0.78559 0.2843 0.0
C198 C 0.52665 0.7609 0.19759 0.0
C199 C 0.63424 0.69576 0.03823 0.0
C200 C 0.63844 0.69787 0.96863 0.0
C201 C 0.63747 0.72062 0.9406 0.0
C202 C 0.62914 0.74005 0.97885 0.0
C203 C 0.62142 0.73661 0.04538 0.0
C204 C 0.62525 0.71507 0.07516 0.0
C205 C 0.61541 0.71419 0.14553 0.0
C206 C 0.60342 0.73841 0.15096 0.0
C207 C 0.60662 0.75113 0.09171 0.0
C208 C 0.63621 0.71135 0.19571 0.0
C209 C 0.59736 0.69361 0.14864 0.0
C210 C 0.57059 0.82613 1.00228 0.0
C211 C 0.55376 0.84258 0.02603 0.0
C212 C 0.54152 0.83721 0.08626 0.0
C213 C 0.54657 0.81637 0.12238 0.0
C214 C 0.56427 0.80078 0.09884 0.0
C215 C 0.57577 0.80594 0.03935 0.0
C216 C 0.5938 0.78769 0.01982 0.0
C217 C 0.59279 0.77161 0.07998 0.0
C218 C 0.57511 0.7788 0.1262 0.0
C219 C 0.61818 0.79994 0.01469 0.0
C220 C 0.58545 0.77517 0.9534 0.0
H221 H 0.60877 0.7156 0.29806 0.0
H222 H 0.52422 0.73497 0.33254 0.0
H223 H 0.52701 0.74445 0.16595 0.0
H224 H 0.52281 0.77583 0.16403 0.0
H225 H 0.51189 0.75953 0.23415 0.0
H226 H 0.56555 0.7847 0.31936 0.0
H227 H 0.53388 0.78585 0.31513 0.0
H228 H 0.55193 0.80264 0.25869 0.0
H229 H 0.63519 0.67873 0.06205 0.0
H230 H 0.64136 0.72305 0.8877 0.0
H231 H 0.62765 0.75665 0.95384 0.0
H232 H 0.65332 0.7079 0.16983 0.0
H233 H 0.63345 0.69608 0.22928 0.0
H234 H 0.63877 0.72762 0.22723 0.0
H235 H 0.58348 0.69565 0.1095 0.0
H236 H 0.58847 0.69255 0.19786 0.0
H237 H 0.60611 0.67621 0.1404 0.0
H238 H 0.58641 0.69415 0.38159 0.0
C239 C 0.59029 0.71912 0.30265 0.0
C240 C 0.3259 0.48638 0.24386 0.0
C241 C 0.33301 0.48185 0.31137 0.0
C242 C 0.31592 0.47331 0.35652 0.0
C243 C 0.28729 0.46965 0.2669 0.0
C244 C 0.30261 0.4804 0.22286 0.0
C245 C 0.29104 0.48298 0.15365 0.0
H246 H 0.19361 0.45254 0.9595 0.0
C247 C 0.26634 0.46156 0.22962 0.0
C248 C 0.26705 0.47078 0.16436 0.0
H249 H 0.22143 0.52333 0.97255 0.0
H250 H 0.2494 0.51079 0.05973 0.0
H251 H 0.24515 0.41941 1.00213 0.0
H252 H 0.18067 0.44336 0.0648 0.0
H253 H 0.19131 0.44082 0.14805 0.0
H254 H 0.18771 0.41512 0.09321 0.0
H255 H 0.21496 0.41069 0.98816 0.0
H256 H 0.23157 0.39942 0.05811 0.0
C257 C 0.30558 0.46964 0.0995 0.0
C258 C 0.28896 0.50942 0.1372 0.0
C259 C 0.20641 0.40701 0.33344 0.0
C260 C 0.18879 0.39245 0.30373 0.0
C261 C 0.19226 0.38464 0.23614 0.0
C262 C 0.20947 0.39521 0.19583 0.0
C263 C 0.22312 0.41355 0.22355 0.0
C264 C 0.2236 0.4171 0.29228 0.0
C265 C 0.24284 0.43405 0.31334 0.0
C266 C 0.25087 0.4427 0.24468 0.0
C267 C 0.23833 0.43135 0.1926 0.0
C268 C 0.26225 0.41985 0.35062 0.0
C269 C 0.23205 0.45449 0.35631 0.0
C270 C 0.20653 0.46511 0.97863 0.0
C271 C 0.2057 0.48867 0.95786 0.0
C272 C 0.2223 0.50482 0.98556 0.0
C273 C 0.23883 0.49752 0.03487 0.0
C274 C 0.23904 0.47384 0.05587 0.0
C275 C 0.22208 0.45846 0.03003 0.0
C276 C 0.21967 0.43649 0.07121 0.0
C277 C 0.23687 0.442 0.12846 0.0
C278 C 0.24986 0.46273 0.11606 0.0
C279 C 0.22821 0.41525 0.02765 0.0
C280 C 0.19367 0.43376 0.09583 0.0
H281 H 0.28123 0.46083 0.37161 0.0
H282 H 0.33829 0.49358 0.20816 0.0
H283 H 0.27412 0.51783 0.16536 0.0
H284 H 0.2866 0.51192 0.08233 0.0
H285 H 0.30543 0.51902 0.15094 0.0
H286 H 0.30792 0.45077 0.11312 0.0
H287 H 0.32331 0.47777 0.09401 0.0
H288 H 0.2965 0.47019 0.04986 0.0
H289 H 0.20571 0.41249 0.38585 0.0
H290 H 0.18061 0.37173 0.2128 0.0
H291 H 0.21115 0.38952 0.14414 0.0
H292 H 0.25855 0.40051 0.35104 0.0
H293 H 0.26387 0.42563 0.40426 0.0
H294 H 0.27973 0.42154 0.32598 0.0
H295 H 0.21565 0.46119 0.33236 0.0
H296 H 0.24408 0.46983 0.36134 0.0
H297 H 0.22753 0.44847 0.40773 0.0
H298 H 0.32014 0.47097 0.40928 0.0
C299 C 0.29332 0.46723 0.33474 0.0
C300 C 0.12385 0.21485 0.33991 0.0
C301 C 0.13731 0.19556 0.31487 0.0
C302 C 0.14164 0.19404 0.24473 0.0
C303 C 0.11289 0.22491 0.22619 0.0
C304 C 0.1119 0.22932 0.29462 0.0
C305 C 0.09486 0.24893 0.31227 0.0
H306 H 0.02941 0.33901 0.1985 0.0
C307 C 0.09394 0.23862 0.19407 0.0
C308 C 0.08393 0.25345 0.24349 0.0
H309 H 0.05632 0.32635 0.39933 0.0
H310 H 0.0678 0.28734 0.36583 0.0
H311 H 0.07069 0.30772 0.10105 0.0
H312 H 1.00767 0.27121 0.16812 0.0
H313 H 0.01013 0.28332 0.0843 0.0
H314 H 1.00389 0.30233 0.15376 0.0
H315 H 0.04245 0.32111 0.08403 0.0
H316 H 0.05043 0.29347 0.04332 0.0
C317 C 0.10924 0.27039 0.34026 0.0
C318 C 0.07619 0.23937 0.36201 0.0
C319 C 0.0611 0.2035 0.979 0.0
C320 C 0.03798 0.20244 0.95357 0.0
C321 C 0.02147 0.21917 0.97982 0.0
C322 C 0.028 0.23618 0.03027 0.0
C323 C 0.05129 0.23677 0.05489 0.0
C324 C 0.06693 0.21962 0.03118 0.0
C325 C 0.08824 0.21745 0.07557 0.0
C326 C 0.0824 0.23535 0.13117 0.0
C327 C 0.06178 0.24829 0.11661 0.0
C328 C 0.10998 0.22541 0.03476 0.0
C329 C 0.09011 0.19155 0.10158 0.0
C330 C 0.03784 0.32776 0.23498 0.0
C331 C 0.04329 0.33674 0.30108 0.0
C332 C 0.05326 0.32092 0.34737 0.0
C333 C 0.06003 0.2981 0.32795 0.0
C334 C 0.05671 0.2903 0.26133 0.0
C335 C 0.04444 0.30407 0.21646 0.0
C336 C 0.04078 0.29034 0.14968 0.0
C337 C 0.05456 0.26718 0.16205 0.0
C338 C 0.06493 0.26859 0.22648 0.0
C339 C 0.05174 0.304 0.09108 0.0
C340 C 0.01417 0.28636 0.13839 0.0
H341 H 0.13241 0.2061 0.14724 0.0
H342 H 0.12047 0.21726 0.39327 0.0
H343 H 0.07055 0.2212 0.34657 0.0
H344 H 0.05988 0.25012 0.36326 0.0
H345 H 0.0834 0.23855 0.41401 0.0
H346 H 0.12862 0.26776 0.33512 0.0
H347 H 0.10576 0.27365 0.39477 0.0
H348 H 0.10538 0.28683 0.31256 0.0
H349 H 0.074 0.19029 0.96379 0.0
H350 H 1.00331 0.21865 0.96295 0.0
H351 H 0.01449 0.2471 0.05245 0.0
H352 H 0.10595 0.24169 1.00611 0.0
H353 H 0.11544 0.21139 0.99792 0.0
H354 H 0.12516 0.23001 0.06747 0.0
H355 H 0.07572 0.17983 0.0829 0.0
H356 H 0.08859 0.19068 0.15719 0.0
H357 H 0.10686 0.18293 0.08553 0.0
H358 H 0.15295 0.18031 0.22383 0.0
C359 C 0.12946 0.20869 0.20022 0.0
C360 C 0.31474 0.04241 0.97057 0.0
C361 C 0.32827 0.05565 0.92343 0.0
C362 C 0.32128 0.07937 0.91216 0.0
C363 C 0.29632 0.07863 1.00962 0.0
C364 C 0.29774 0.05445 1.01136 0.0
C365 C 0.28005 0.04526 0.06287 0.0
H366 H 0.20767 0.07497 0.32897 0.0
C367 C 0.28296 0.08745 0.06733 0.0
C368 C 0.26949 0.06859 0.0918 0.0
H369 H 0.18642 0.02555 0.17145 0.0
H370 H 0.22101 0.03717 0.10443 0.0
H371 H 0.26065 0.06475 0.33356 0.0
H372 H 0.219 0.11554 0.23161 0.0
H373 H 0.24404 0.13032 0.26462 0.0
H374 H 0.22472 0.1149 0.32074 0.0
H375 H 0.2572 0.09396 0.368 0.0
H376 H 0.28164 0.08637 0.31329 0.0
C377 C 0.29308 0.03157 0.11804 0.0
C378 C 0.26171 0.02944 0.02699 0.0
C379 C 0.33223 0.14253 0.21184 0.0
C380 C 0.3334 0.14363 0.28287 0.0
C381 C 0.31232 0.1397 0.3191 0.0
C382 C 0.29225 0.13073 0.28647 0.0
C383 C 0.29344 0.12475 0.21759 0.0
C384 C 0.31276 0.13161 0.18043 0.0
C385 C 0.31212 0.12163 0.10934 0.0
C386 C 0.2898 0.10625 0.11198 0.0
C387 C 0.2793 0.10814 0.17597 0.0
C388 C 0.33486 0.10696 0.09622 0.0
C389 C 0.30986 0.14242 0.0605 0.0
C390 C 0.21081 0.06543 0.28197 0.0
C391 C 0.19449 0.04859 0.25754 0.0
C392 C 0.19886 0.03808 0.19305 0.0
C393 C 0.2192 0.04406 0.15512 0.0
C394 C 0.23568 0.06011 0.18255 0.0
C395 C 0.23071 0.07118 0.24374 0.0
C396 C 0.24748 0.09105 0.25977 0.0
C397 C 0.26184 0.0916 0.19522 0.0
C398 C 0.25624 0.07236 0.15235 0.0
C399 C 0.26249 0.08385 0.32185 0.0
C400 C 0.23318 0.11424 0.27021 0.0
H401 H 0.30024 0.10893 0.94614 0.0
H402 H 0.3179 0.02373 0.97751 0.0
H403 H 0.24913 0.04024 0.99744 0.0
H404 H 0.25187 0.0187 0.06374 0.0
H405 H 0.27051 0.01666 0.99188 0.0
H406 H 0.30687 0.04285 0.14226 0.0
H407 H 0.30168 0.01547 0.09637 0.0
H408 H 0.28053 0.026 0.15776 0.0
H409 H 0.34734 0.1473 0.18182 0.0
H410 H 0.31174 0.14106 0.37351 0.0
H411 H 0.27724 0.12699 0.31726 0.0
H412 H 0.3354 0.09128 0.12928 0.0
H413 H 0.35099 0.11761 0.10563 0.0
H414 H 0.33646 0.10085 0.04337 0.0
H415 H 0.32281 0.15656 0.07344 0.0
H416 H 0.29188 0.15028 0.06291 0.0
H417 H 0.31373 0.13702 1.00798 0.0
H418 H 0.32884 0.08945 0.87163 0.0
C419 C 0.30523 0.09087 0.95506 0.0
C420 C 0.47789 0.30169 0.95365 0.0
C421 C 0.46763 0.32087 0.91864 0.0
C422 C 0.44373 0.32637 0.92997 0.0
C423 C 0.44242 0.29878 0.02103 0.0
C424 C 0.46435 0.29019 1.00352 0.0
C425 C 0.46965 0.26779 0.04259 0.0
H426 H 0.44245 0.20447 0.3253 0.0
C427 C 0.43421 0.28686 0.08154 0.0
C428 C 0.44929 0.26763 0.09382 0.0
H429 H 0.49003 0.18169 0.16617 0.0
H430 H 0.48216 0.2182 0.10679 0.0
H431 H 0.45687 0.25431 0.33497 0.0
H432 H 0.40046 0.22079 0.22756 0.0
H433 H 0.38903 0.24672 0.26634 0.0
H434 H 0.40235 0.22434 0.3176 0.0
H435 H 0.42835 0.25154 0.37242 0.0
H436 H 0.43647 0.27735 0.32541 0.0
C437 C 0.49389 0.26996 0.07722 0.0
C438 C 0.46815 0.24661 0.99249 0.0
C439 C 0.38866 0.33807 0.24684 0.0
C440 C 0.38477 0.33591 0.31656 0.0
C441 C 0.38593 0.31314 0.34445 0.0
C442 C 0.39403 0.29372 0.30577 0.0
C443 C 0.40128 0.29715 0.23879 0.0
C444 C 0.39737 0.31874 0.20938 0.0
C445 C 0.40669 0.3196 0.13843 0.0
C446 C 0.4184 0.29528 0.13199 0.0
C447 C 0.41551 0.2825 0.19126 0.0
C448 C 0.4249 0.34002 0.13461 0.0
C449 C 0.38553 0.32262 0.08955 0.0
C450 C 0.45076 0.20653 0.27666 0.0
C451 C 0.46648 0.18939 0.25052 0.0
C452 C 0.47773 0.19426 0.18832 0.0
C453 C 0.47285 0.2153 0.15299 0.0
C454 C 0.45623 0.23158 0.1791 0.0
C455 C 0.44557 0.22683 0.24011 0.0
C456 C 0.42825 0.24553 0.26155 0.0
C457 C 0.42888 0.26161 0.20136 0.0
C458 C 0.4457 0.25392 0.15318 0.0
C459 C 0.43775 0.25781 0.327 0.0
C460 C 0.40368 0.23386 0.26922 0.0
H461 H 0.41287 0.31981 0.98722 0.0
H462 H 0.49581 0.29613 0.943 0.0
H463 H 0.45272 0.24849 0.95831 0.0
H464 H 0.46561 0.22962 0.01782 0.0
H465 H 0.48428 0.24547 0.96073 0.0
H466 H 0.49462 0.28631 0.10927 0.0
H467 H 0.50823 0.27084 0.03917 0.0
H468 H 0.49752 0.25477 0.10997 0.0
H469 H 0.38762 0.35512 0.22314 0.0
H470 H 0.3823 0.31068 0.39749 0.0
H471 H 0.39573 0.27713 0.33076 0.0
H472 H 0.43894 0.33786 0.17321 0.0
H473 H 0.41633 0.35749 0.14328 0.0
H474 H 0.4336 0.34104 0.08516 0.0
H475 H 0.36843 0.32488 0.11645 0.0
H476 H 0.38337 0.30688 0.05569 0.0
H477 H 0.38759 0.33859 0.05825 0.0
H478 H 0.4352 0.3403 0.90203 0.0
C479 C 0.431 0.31512 0.98026 0.0
Gd480 Gd 0.99261 0.02165 0.574 0.0
Gd481 Gd 0.03612 1.00856 0.70471 0.0
C482 C 0.06861 0.06555 0.84345 0.0
C483 C 0.10934 0.0661 0.80535 0.0
C484 C 0.08123 0.03859 0.7544 0.0
C485 C 0.06357 0.04751 0.79537 0.0
C486 C 0.10448 0.04733 0.76005 0.0
C487 C 0.09141 0.07521 0.84697 0.0
C488 C 0.05078 0.07288 0.88783 0.0
C489 C 0.02889 0.06168 0.88514 0.0
N490 N 0.04178 0.03765 0.79074 0.0
C491 C 0.02478 0.04382 0.83676 0.0
H492 H 1.0077 0.03561 0.83584 0.0
C493 C 0.09349 1.00886 0.67671 0.0
N494 N 0.07596 0.0204 0.71165 0.0
C495 C 0.1168 0.01687 0.6805 0.0
C496 C 0.12227 0.03645 0.72155 0.0
H497 H 0.08931 0.99392 0.64407 0.0
H498 H 0.09552 0.08927 0.88298 0.0
H499 H 0.02017 0.99415 0.44249 0.0
H500 H 0.05389 0.08673 0.9253 0.0
H501 H 0.01508 0.06687 0.92013 0.0
H502 H 0.12701 0.07324 0.80988 0.0
H503 H 0.93989 0.03737 0.6359 0.0
H504 H 0.97264 0.94433 0.35261 0.0
H505 H 0.01193 0.96325 0.35765 0.0
H506 H 0.90003 0.9593 0.46946 0.0
H507 H 0.13048 1.00805 0.6514 0.0
H508 H 0.14033 0.04263 0.72445 0.0
H509 H 0.93101 0.94269 0.39551 0.0
H510 H 0.89843 0.02414 0.6294 0.0
N511 N 0.98607 0.99286 0.48771 0.0
C512 C 0.97613 0.95805 0.39021 0.0
C513 C 0.99829 0.96871 0.39283 0.0
C514 C 0.95853 0.96571 0.43493 0.0
C515 C 0.96405 0.98355 0.48317 0.0
C516 C 1.00288 0.98637 0.44147 0.0
N517 N 0.95249 1.01078 0.56748 0.0
C518 C 0.94669 0.9928 0.52455 0.0
C519 C 0.91183 0.0151 0.59977 0.0
C520 C 0.90582 0.99577 0.55842 0.0
C521 C 0.93532 0.0226 0.6031 0.0
C522 C 0.92325 0.98459 0.51927 0.0
H523 H 0.88761 0.98999 0.55585 0.0
O524 O 0.97356 0.05321 0.54521 0.0
O525 O 0.01615 0.03691 0.65425 0.0
O526 O 0.99839 1.00928 0.74757 0.0
O527 O 0.97409 1.00107 0.65545 0.0
O528 O 0.98253 0.0505 0.65007 0.0
O529 O 1.00247 0.0402 0.48332 0.0
O530 O 0.05709 0.9787 0.73668 0.0
O531 O 0.01278 0.9933 0.6241 0.0
O532 O 0.03025 0.02043 0.531 0.0
O533 O 0.05454 0.029 0.62271 0.0
O534 O 0.04627 0.97952 0.62917 0.0
O535 O 0.02568 0.98874 0.79269 0.0
C536 C 1.00256 0.05239 0.68013 0.0
C537 C 0.91787 0.96603 0.47375 0.0
C538 C 0.9355 0.95659 0.43165 0.0
C539 C 0.98888 0.05819 0.49866 0.0
C540 C 1.00031 0.08155 0.50672 0.0
C541 C 0.9866 0.10146 0.52378 0.0
C542 C 0.02503 0.08375 0.50429 0.0
C543 C 0.03606 0.10551 0.51896 0.0
C544 C 0.99737 0.12309 0.53891 0.0
C545 C 0.02189 0.12516 0.53663 0.0
C546 C 0.97773 1.00272 0.72142 0.0
C547 C 0.02632 0.97768 0.59864 0.0
C548 C 0.04142 0.97229 0.78058 0.0
C549 C 0.03273 0.94796 0.77069 0.0
C550 C 0.04861 0.92901 0.77459 0.0
C551 C 0.00936 0.94367 0.74993 0.0
C552 C 1.00178 0.92061 0.73381 0.0
C553 C 0.04131 0.90608 0.75779 0.0
C554 C 0.01808 0.90185 0.73752 0.0
C555 C 0.05088 0.02719 0.55681 0.0
H556 H 0.96755 0.10016 0.52666 0.0
H557 H 0.03574 0.06849 0.49159 0.0
H558 H 0.98667 0.13836 0.55221 0.0
H559 H 0.02963 0.14237 0.54671 0.0
H560 H 0.06679 0.93204 0.78932 0.0
H561 H 0.99709 0.95822 0.74558 0.0
H562 H 0.05366 0.89151 0.7608 0.0
H563 H 0.01273 0.88377 0.72684 0.0
Gd564 Gd 0.5075 0.99172 0.57215 0.0
Gd565 Gd 0.51903 0.03939 0.69683 0.0
C566 C 0.46278 0.0713 0.83803 0.0
C567 C 0.45765 0.11057 0.79238 0.0
C568 C 0.48656 0.08341 0.74348 0.0
C569 C 0.48028 0.06635 0.78899 0.0
C570 C 0.47573 0.10592 0.7456 0.0
C571 C 0.45116 0.09327 0.83849 0.0
C572 C 0.4577 0.05416 0.88578 0.0
C573 C 0.47054 0.03313 0.88543 0.0
N574 N 0.49179 0.04523 0.78677 0.0
C575 C 0.48782 0.0291 0.83619 0.0
H576 H 0.49772 0.01299 0.83885 0.0
C577 C 0.51292 0.09568 0.65877 0.0
N578 N 0.50406 0.07837 0.69904 0.0
C579 C 0.5027 0.11821 0.65874 0.0
C580 C 0.48378 0.12327 0.70171 0.0
H581 H 0.52739 0.09178 0.62485 0.0
H582 H 0.43748 0.09722 0.87518 0.0
H583 H 0.53305 0.01602 0.43576 0.0
H584 H 0.44432 0.05722 0.92398 0.0
H585 H 0.46722 0.01999 0.92331 0.0
H586 H 0.44893 0.12765 0.79428 0.0
H587 H 0.49507 0.94072 0.64743 0.0
H588 H 0.58527 0.96817 0.35908 0.0
H589 H 0.56434 1.00653 0.35424 0.0
H590 H 0.5748 0.89928 0.49337 0.0
H591 H 0.50935 0.13161 0.62542 0.0
H592 H 0.4759 0.14075 0.70171 0.0
H593 H 0.58929 0.92829 0.41203 0.0
H594 H 0.51103 0.90007 0.65291 0.0
N595 N 0.53625 0.98365 0.48851 0.0
C596 C 0.57141 0.97221 0.39515 0.0
C597 C 0.55962 0.99385 0.39222 0.0
C598 C 0.56476 0.95581 0.44356 0.0
C599 C 0.5467 0.96204 0.48958 0.0
C600 C 0.54181 0.99919 0.43893 0.0
N601 N 0.52048 0.95211 0.57605 0.0
C602 C 0.53859 0.94576 0.53502 0.0
C603 C 0.519 0.91276 0.61963 0.0
C604 C 0.53845 0.90631 0.58015 0.0
C605 C 0.50994 0.93574 0.61616 0.0
C606 C 0.54826 0.92276 0.53628 0.0
H607 H 0.54541 0.88848 0.58277 0.0
O608 O 0.47666 0.97077 0.54629 0.0
O609 O 0.49201 0.01681 0.64799 0.0
O610 O 0.51884 1.00263 0.74457 0.0
O611 O 0.52981 0.9772 0.6564 0.0
O612 O 0.47857 0.98306 0.64776 0.0
O613 O 0.48914 0.99752 0.47782 0.0
O614 O 0.54536 0.06463 0.73166 0.0
O615 O 0.53455 0.01521 0.61859 0.0
O616 O 0.50674 0.02811 0.52284 0.0
O617 O 0.49699 0.05386 0.61136 0.0
O618 O 0.5458 0.04977 0.61712 0.0
O619 O 0.54529 0.02927 0.77109 0.0
C620 C 0.47664 1.00385 0.67482 0.0
C621 C 0.56696 0.91678 0.49271 0.0
C622 C 0.57521 0.93329 0.44641 0.0
C623 C 0.47145 0.98418 0.49558 0.0
C624 C 0.44794 0.99552 0.49898 0.0
C625 C 0.42873 0.98304 0.52542 0.0
C626 C 0.44502 0.0195 0.48276 0.0
C627 C 0.42339 0.03107 0.49402 0.0
C628 C 0.40721 0.99442 0.53681 0.0
C629 C 0.40453 0.01828 0.52156 0.0
C630 C 0.52691 0.98189 0.72148 0.0
C631 C 0.54882 0.02906 0.59036 0.0
C632 C 0.55768 0.04838 0.76127 0.0
C633 C 0.58202 0.045 0.73535 0.0
C634 C 0.59332 0.06344 0.70132 0.0
C635 C 0.59264 0.02248 0.73537 0.0
C636 C 0.61353 0.01792 0.69875 0.0
C637 C 0.614 0.05913 0.66506 0.0
C638 C 0.62385 0.0365 0.66276 0.0
C639 C 0.49892 0.04887 0.54611 0.0
H640 H 0.43052 0.96461 0.53872 0.0
H641 H 0.45968 0.02935 0.46248 0.0
H642 H 0.39254 0.9847 0.55763 0.0
H643 H 0.38748 0.02653 0.5297 0.0
H644 H 0.58563 0.08099 0.70025 0.0
H645 H 0.58438 1.00845 0.76337 0.0
H646 H 0.62216 0.07328 0.63739 0.0
H647 H 0.63947 0.03362 0.63232 0.0
Gd648 Gd 0.48834 0.52676 0.69795 0.0
Gd649 Gd 0.53483 0.50547 0.58425 0.0
C650 C 0.60558 0.49756 0.69605 0.0
C651 C 0.62776 0.53128 0.65664 0.0
C652 C 0.58802 0.52361 0.61449 0.0
C653 C 0.58628 0.50418 0.65519 0.0
C654 C 0.6091 0.53699 0.61331 0.0
C655 C 0.62603 0.51154 0.69781 0.0
C656 C 0.60393 0.47689 0.73327 0.0
C657 C 0.58373 0.46303 0.72776 0.0
N658 N 0.56604 0.49131 0.65346 0.0
C659 C 0.56508 0.47032 0.68693 0.0
H660 H 0.55036 0.45855 0.6821 0.0
C661 C 0.57295 0.54456 0.52239 0.0
N662 N 0.56978 0.5285 0.57272 0.0
C663 C 0.59325 0.55851 0.51993 0.0
C664 C 0.61121 0.5551 0.56667 0.0
H665 H 0.55981 0.54679 0.48347 0.0
H666 H 0.64079 0.50695 0.7298 0.0
H667 H 0.47257 0.57267 0.59655 0.0
H668 H 0.61833 0.47123 0.76515 0.0
H669 H 0.58253 0.44658 0.75471 0.0
H670 H 0.64389 0.54156 0.65708 0.0
H671 H 0.46393 0.48614 0.80171 0.0
H672 H 0.40422 0.55946 0.51693 0.0
H673 H 0.44016 0.58403 0.52407 0.0
H674 H 0.3789 0.49034 0.6315 0.0
H675 H 0.59517 0.57166 0.48128 0.0
H676 H 0.62707 0.56575 0.56425 0.0
H677 H 0.38178 0.52424 0.55605 0.0
H678 H 0.42847 0.46145 0.80714 0.0
N679 N 0.45688 0.54034 0.62865 0.0
C680 C 0.41872 0.55408 0.54885 0.0
C681 C 0.439 0.5679 0.5525 0.0
C682 C 0.41715 0.53383 0.58788 0.0
C683 C 0.43659 0.52756 0.62865 0.0
C684 C 0.45778 0.56096 0.59335 0.0
N685 N 0.45341 0.50392 0.71216 0.0
C686 C 0.43497 0.50852 0.67084 0.0
C687 C 0.43019 0.47433 0.76769 0.0
C688 C 0.41197 0.47748 0.72158 0.0
C689 C 0.45052 0.48819 0.76348 0.0
C690 C 0.41389 0.49521 0.67371 0.0
H691 H 0.39612 0.46688 0.72532 0.0
O692 O 0.47496 0.53254 0.79961 0.0
O693 O 0.52761 0.52453 0.68216 0.0
O694 O 0.51692 0.47362 0.63217 0.0
O695 O 0.49506 0.48857 0.72277 0.0
O696 O 0.5146 0.51561 0.7764 0.0
O697 O 0.4841 0.56243 0.73845 0.0
O698 O 0.54823 0.50028 0.48233 0.0
O699 O 0.49565 0.50756 0.60048 0.0
O700 O 0.50599 0.55856 0.64901 0.0
O701 O 0.52789 0.54352 0.55863 0.0
O702 O 0.5083 0.51625 0.50586 0.0
O703 O 0.53972 0.47002 0.54274 0.0
C704 C 0.53349 0.51838 0.74124 0.0
C705 C 0.39505 0.50058 0.63065 0.0
C706 C 0.39665 0.51992 0.58792 0.0
C707 C 0.47909 0.55514 0.79874 0.0
C708 C 0.49392 0.56431 0.85412 0.0
C709 C 0.4852 0.56458 0.92021 0.0
C710 C 0.51724 0.57159 0.84198 0.0
C711 C 0.53167 0.57965 0.89524 0.0
C712 C 0.49953 0.57218 0.97358 0.0
C713 C 0.52257 0.57974 0.96135 0.0
C714 C 0.50477 0.47086 0.68862 0.0
C715 C 0.48951 0.51343 0.54143 0.0
C716 C 0.54437 0.47762 0.48255 0.0
C717 C 0.52929 0.46855 0.42759 0.0
C718 C 0.53763 0.46839 0.36111 0.0
C719 C 0.506 0.46141 0.44065 0.0
C720 C 0.49116 0.45366 0.38794 0.0
C721 C 0.52292 0.46107 0.30827 0.0
C722 C 0.49988 0.45368 0.32142 0.0
C723 C 0.51813 0.56125 0.59249 0.0
H724 H 0.46738 0.55876 0.93053 0.0
H725 H 0.52416 0.5709 0.79104 0.0
H726 H 0.49269 0.57243 0.02455 0.0
H727 H 0.53296 0.58629 1.00353 0.0
H728 H 0.55542 0.47413 0.35008 0.0
H729 H 0.49937 0.46202 0.49191 0.0
H730 H 0.52945 0.46091 0.25697 0.0
H731 H 0.48916 0.44738 0.27961 0.0
Gd732 Gd 1.00262 0.48932 0.69022 0.0
Gd733 Gd 0.01921 0.54064 0.5891 0.0
C734 C 1.0091 0.61685 0.6661 0.0
C735 C 0.9756 0.6298 0.59976 0.0
C736 C 0.99192 0.59031 0.58246 0.0
C737 C 1.00827 0.59451 0.63303 0.0
C738 C 0.97586 0.60815 0.56389 0.0
C739 C 0.99221 0.63416 0.65078 0.0
C740 C 0.0274 0.62149 0.71168 0.0
C741 C 0.04485 0.60447 0.72108 0.0
N742 N 0.02437 0.57739 0.6466 0.0
C743 C 0.04326 0.58257 0.68731 0.0
H744 H 0.05723 0.57002 0.69509 0.0
C745 C 0.9796 0.56585 0.49101 0.0
N746 N 0.99279 0.56934 0.54829 0.0
C747 C 0.96331 0.58293 0.47089 0.0
C748 C 0.96112 0.60401 0.50824 0.0
H749 H 0.98103 0.5494 0.46255 0.0
H750 H 0.99237 0.65125 0.67647 0.0
H751 H 0.96742 0.46086 0.57621 0.0
H752 H 0.02866 0.6384 0.73811 0.0
H753 H 0.05952 0.60815 0.75457 0.0
H754 H 0.96318 0.6436 0.58688 0.0
H755 H 0.03524 0.47792 0.82643 0.0
H756 H 0.99598 0.39234 0.53459 0.0
H757 H 0.96589 0.4231 0.51424 0.0
H758 H 0.05777 0.38556 0.69776 0.0
H759 H 0.95238 0.57977 0.42687 0.0
H760 H 0.94853 0.61725 0.49248 0.0
H761 H 0.03084 0.37876 0.6019 0.0
H762 H 0.06326 0.44757 0.86582 0.0
N763 N 0.99888 0.45272 0.63024 0.0
C764 C 0.99683 0.40907 0.56212 0.0
C765 C 0.97983 0.42637 0.55057 0.0
C766 C 0.01415 0.41323 0.61106 0.0
C767 C 0.01445 0.43536 0.64539 0.0
C768 C 0.98092 0.44802 0.58585 0.0
N769 N 0.02743 0.45967 0.73446 0.0
C770 C 0.02944 0.43908 0.69903 0.0
C771 C 0.05408 0.44503 0.81837 0.0
C772 C 0.0577 0.42448 0.77959 0.0
C773 C 0.03833 0.46223 0.79579 0.0
C774 C 0.04478 0.42096 0.7201 0.0
H775 H 0.0697 0.41102 0.79748 0.0
O776 O 0.98978 0.48077 0.78984 0.0
O777 O 1.00382 0.52883 0.68533 0.0
O778 O 0.04917 0.53154 0.66183 0.0
O779 O 0.04249 0.49256 0.69448 0.0
O780 O 0.01089 0.51481 0.7779 0.0
O781 O 0.96539 0.48239 0.70623 0.0
O782 O 0.02921 0.55402 0.49164 0.0
O783 O 0.01878 0.50106 0.59405 0.0
O784 O 0.97345 0.49948 0.61544 0.0
O785 O 0.97941 0.53958 0.60096 0.0
O786 O 0.00959 0.5151 0.50291 0.0
O787 O 0.05628 0.54369 0.56245 0.0
C788 C 1.00886 0.53429 0.74583 0.0
C789 C 0.04586 0.39957 0.68302 0.0
C790 C 0.03052 0.39569 0.62853 0.0
C791 C 0.9678 0.4812 0.77142 0.0
C792 C 0.95268 0.49676 0.81252 0.0
C793 C 0.94578 0.48956 0.87682 0.0
C794 C 0.94676 0.51952 0.79056 0.0
C795 C 0.93415 0.53509 0.83299 0.0
C796 C 0.93318 0.50499 0.91912 0.0
C797 C 0.92745 0.52766 0.89757 0.0
C798 C 0.05602 0.5116 0.69049 0.0
C799 C 0.01315 0.49562 0.53398 0.0
C800 C 0.0515 0.54973 0.50071 0.0
C801 C 0.06268 0.53602 0.44588 0.0
C802 C 0.06621 0.54685 0.38369 0.0
C803 C 0.06784 0.51182 0.45272 0.0
C804 C 0.07626 0.49846 0.39729 0.0
C805 C 0.07465 0.53371 0.32863 0.0
C806 C 0.0796 0.50968 0.33517 0.0
C807 C 0.96592 0.52056 0.59623 0.0
H808 H 0.95047 0.47216 0.89462 0.0
H809 H 0.95235 0.52532 0.74128 0.0
H810 H 0.92791 0.4994 0.96882 0.0
H811 H 0.91743 0.53926 0.93097 0.0
H812 H 0.06205 0.56542 0.37748 0.0
H813 H 0.06492 0.50335 0.5006 0.0
H814 H 0.07734 0.54217 0.28069 0.0
H815 H 0.08655 0.5 0.29189 0.0
H816 H 0.14864 0.03878 0.21437 0.0
H817 H 0.09332 0.04856 0.5864 0.0
H818 H 0.19015 0.04682 0.3959 0.0
H819 H 0.05482 0.01726 0.4198 0.0
H820 H 0.12765 0.05267 0.51316 0.0
H821 H 0.1132 0.03419 0.28454 0.0
C822 C 0.15047 0.03938 0.26871 0.0
C823 C 0.17268 0.04349 0.29865 0.0
C824 C 0.11175 0.04476 0.49257 0.0
C825 C 0.13182 0.0388 0.37955 0.0
C826 C 0.09209 0.04228 0.53463 0.0
C827 C 0.0712 0.03177 0.51031 0.0
C828 C 0.11064 0.03712 0.42472 0.0
C829 C 0.07055 0.02508 0.44149 0.0
C830 C 0.13012 0.03694 0.3088 0.0
C831 C 0.17356 0.04432 0.36978 0.0
N832 N 0.08992 0.02779 0.40129 0.0
N833 N 0.15357 0.04221 0.40734 0.0
H834 H 0.43584 0.166 0.33539 0.0
H835 H 0.5181 0.05629 0.4208 0.0
H836 H 0.50633 0.16019 0.25324 0.0
H837 H 0.46726 0.08525 0.5615 0.0
H838 H 0.51032 0.08952 0.34546 0.0
H839 H 0.44395 0.13252 0.4063 0.0
C840 C 0.45313 0.15795 0.33204 0.0
C841 C 0.47065 0.16687 0.28879 0.0
C842 C 0.50086 0.08852 0.39276 0.0
C843 C 0.47924 0.12662 0.36774 0.0
C844 C 0.50512 0.06946 0.43555 0.0
C845 C 0.49333 0.06795 0.49769 0.0
C846 C 0.48431 0.10596 0.41149 0.0
C847 C 0.47689 0.08574 0.51437 0.0
C848 C 0.45753 0.13839 0.37221 0.0
C849 C 0.49215 0.15428 0.28525 0.0
N850 N 0.47278 0.10387 0.4715 0.0
N851 N 0.49579 0.13481 0.32395 0.0
H852 H 0.35786 0.45287 0.39496 0.0
H853 H 0.47049 0.53772 0.43809 0.0
H854 H 0.36504 0.51822 0.28769 0.0
H855 H 0.45737 0.47755 0.56269 0.0
H856 H 0.43375 0.5295 0.37652 0.0
H857 H 0.39547 0.46041 0.4504 0.0
C858 C 0.36736 0.46885 0.38271 0.0
C859 C 0.3578 0.48517 0.33714 0.0
C860 C 0.43875 0.51816 0.41756 0.0
C861 C 0.40182 0.49357 0.40001 0.0
C862 C 0.45969 0.52288 0.45289 0.0
C863 C 0.4665 0.50888 0.5074 0.0
C864 C 0.42463 0.49889 0.43569 0.0
C865 C 0.45231 0.48937 0.52283 0.0
C866 C 0.38901 0.47306 0.41442 0.0
C867 C 0.37154 0.50512 0.32228 0.0
N868 N 0.43202 0.48505 0.48751 0.0
N869 N 0.39275 0.50881 0.35383 0.0
H870 H 0.07302 0.36378 0.37944 0.0
H871 H 0.98895 0.47746 0.4255 0.0
H872 H 1.00579 0.36822 0.27841 0.0
H873 H 0.04783 0.4622 0.55483 0.0
H874 H 0.99636 0.4402 0.36248 0.0
H875 H 0.06532 0.40157 0.43532 0.0
C876 C 0.0566 0.37273 0.36839 0.0
C877 C 0.03979 0.36214 0.32484 0.0
C878 C 1.0076 0.44491 0.40477 0.0
C879 C 0.0314 0.40694 0.38742 0.0
C880 C 1.00338 0.46619 0.44085 0.0
C881 C 0.0173 0.47262 0.49706 0.0
C882 C 0.02633 0.43011 0.4237 0.0
C883 C 0.03615 0.45763 0.51339 0.0
C884 C 0.05233 0.39459 0.40026 0.0
C885 C 0.0193 0.37541 0.31147 0.0
N886 N 0.04004 0.43718 0.47716 0.0
N887 N 0.01566 0.39702 0.3427 0.0
H888 H 0.87933 0.98861 0.06294 0.0
H889 H 0.93552 0.98123 0.69077 0.0
H890 H 0.8402 0.97226 0.88184 0.0
H891 H 0.97333 0.01264 0.85856 0.0
H892 H 0.90126 0.97629 0.76337 0.0
H893 H 0.91423 0.9974 0.99276 0.0
C894 C 0.87789 0.98748 1.00851 0.0
C895 C 0.85672 0.97988 0.97823 0.0
C896 C 0.91696 0.98442 0.7845 0.0
C897 C 0.89671 0.98907 0.89773 0.0
C898 C 0.93663 0.98733 0.74275 0.0
C899 C 0.95736 0.99795 0.76764 0.0
C900 C 0.91783 0.99188 0.85259 0.0
C901 C 0.95776 1.00462 0.83654 0.0
C902 C 0.89788 0.99222 0.96844 0.0
C903 C 0.85608 0.97818 0.90738 0.0
N904 N 0.93834 1.00154 0.87645 0.0
N905 N 0.87568 0.98249 0.86995 0.0
H906 H 0.51233 0.86871 1.01197 0.0
H907 H 0.55944 0.94619 0.71019 0.0
H908 H 0.58554 0.86824 0.95114 0.0
H909 H 0.50412 0.97242 0.84066 0.0
H910 H 0.56616 0.9136 0.78792 0.0
H911 H 0.50599 0.90353 0.94168 0.0
C912 C 0.52713 0.87584 0.9845 0.0
C913 C 0.54946 0.86491 0.98721 0.0
C914 C 0.55269 0.92663 0.79987 0.0
C915 C 0.54201 0.90455 0.90493 0.0
C916 C 0.54889 0.94529 0.7556 0.0
C917 C 0.53162 0.96251 0.76974 0.0
C918 C 0.53863 0.92464 0.85791 0.0
C919 C 0.51808 0.96001 0.82865 0.0
C920 C 0.52341 0.89569 0.94401 0.0
C921 C 0.56777 0.8752 0.94943 0.0
N922 N 0.5217 0.94135 0.87021 0.0
N923 N 0.56358 0.89409 0.90952 0.0
H924 H 0.65984 0.58062 0.91538 0.0
H925 H 0.55229 0.49237 0.84128 0.0
H926 H 0.65687 0.51054 0.99853 0.0
H927 H 0.56575 0.55453 0.72505 0.0
H928 H 0.58863 0.49986 0.90554 0.0
H929 H 0.62457 0.57203 0.85058 0.0
C930 C 0.65196 0.56332 0.92032 0.0
C931 C 0.66216 0.5461 0.9621 0.0
C932 C 0.58382 0.51176 0.86563 0.0
C933 C 0.61999 0.53679 0.88981 0.0
C934 C 0.5631 0.50747 0.82881 0.0
C935 C 0.55648 0.52232 0.77597 0.0
C936 C 0.59782 0.5315 0.85099 0.0
C937 C 0.57067 0.54212 0.76357 0.0
C938 C 0.63142 0.5586 0.88352 0.0
C939 C 0.64996 0.52449 0.96755 0.0
N940 N 0.59065 0.54609 0.80062 0.0
N941 N 0.62958 0.5205 0.93203 0.0
H942 H 0.95135 0.65272 0.97144 0.0
H943 H 0.03852 0.55294 0.8416 0.0
H944 H 0.02486 0.67122 0.95651 0.0
H945 H 0.9744 0.56851 0.73471 0.0
H946 H 0.03393 0.59025 0.90728 0.0
H947 H 0.95966 0.6152 0.913 0.0
C948 C 0.96938 0.64869 0.95717 0.0
C949 C 0.9874 0.6654 0.96914 0.0
C950 C 0.02101 0.58558 0.86908 0.0
C951 C 0.99683 0.62205 0.90049 0.0
C952 C 0.02359 0.56432 0.83155 0.0
C953 C 1.00717 0.55789 0.78113 0.0
C954 C 1.00123 0.60003 0.85857 0.0
C955 C 0.98782 0.57302 0.77164 0.0
C956 C 0.97397 0.62735 0.9228 0.0
C957 C 0.01042 0.65892 0.94913 0.0
N958 N 0.98527 0.59317 0.81032 0.0
N959 N 0.01449 0.63779 0.91562 0.0
H960 H 0.14593 0.19385 0.45284 0.0
H961 H 0.06494 0.08407 0.42427 0.0
H962 H 0.13672 0.14841 0.27722 0.0
H963 H 0.06687 0.13305 0.59407 0.0
H964 H 0.10433 0.09652 0.39302 0.0
H965 H 0.13181 0.16184 0.52318 0.0
C966 C 0.14164 0.17701 0.429 0.0
C967 C 0.14093 0.17454 0.35829 0.0
C968 C 0.09637 0.10425 0.43796 0.0
C969 C 0.12508 0.13779 0.43863 0.0
C970 C 0.07377 0.09705 0.45617 0.0
C971 C 0.06199 0.10836 0.51018 0.0
C972 C 0.10699 0.12333 0.47274 0.0
C973 C 0.07474 0.12477 0.54983 0.0
C974 C 0.13365 0.15866 0.4694 0.0
C975 C 0.13669 0.15176 0.33107 0.0
N976 N 0.09627 0.1323 0.52916 0.0
N977 N 0.12816 0.13453 0.37104 0.0
H978 H 0.34549 0.1543 0.41693 0.0
H979 H 0.43987 0.05224 0.38012 0.0
H980 H 0.37611 0.12786 0.23026 0.0
H981 H 0.39928 0.06679 0.56039 0.0
H982 H 0.42788 0.09037 0.33635 0.0
H983 H 0.37631 0.13367 0.47855 0.0
C984 C 0.35874 0.14464 0.38841 0.0
C985 C 0.35678 0.14153 0.31792 0.0
C986 C 0.42189 0.08542 0.386 0.0
C987 C 0.39264 0.11861 0.38856 0.0
C988 C 0.42882 0.06364 0.41124 0.0
C989 C 0.41993 0.05595 0.47314 0.0
C990 C 0.40579 0.09956 0.42257 0.0
C991 C 0.40582 0.07166 0.51126 0.0
C992 C 0.37648 0.13298 0.42393 0.0
C993 C 0.3758 0.13028 0.28439 0.0
N994 N 0.39878 0.09253 0.48477 0.0
N995 N 0.39247 0.11872 0.32005 0.0
H996 H 0.36681 0.3808 0.29403 0.0
H997 H 0.47786 0.42667 0.49523 0.0
H998 H 0.40681 0.34119 0.43915 0.0
H999 H 0.45008 0.45817 0.3149 0.0
H1000 H 0.4414 0.40443 0.50679 0.0
H1001 H 0.38582 0.41707 0.33545 0.0
C1002 C 0.37896 0.37974 0.33602 0.0
C1003 C 0.38622 0.35763 0.36028 0.0
C1004 C 0.4431 0.41656 0.46542 0.0
C1005 C 0.40768 0.39904 0.40832 0.0
C1006 C 0.46394 0.42938 0.45878 0.0
C1007 C 0.46743 0.44378 0.4026 0.0
C1008 C 0.42574 0.41784 0.41511 0.0
C1009 C 0.44858 0.44652 0.3574 0.0
C1010 C 0.3898 0.4005 0.3596 0.0
C1011 C 0.40109 0.35759 0.41704 0.0
N1012 N 0.42876 0.43325 0.36376 0.0
N1013 N 0.41188 0.37788 0.43775 0.0
H1014 H 0.14526 0.38552 0.2424 0.0
H1015 H 0.10041 0.47789 0.50097 0.0
H1016 H 0.17626 0.39558 0.44023 0.0
H1017 H 0.06734 0.46147 0.30983 0.0
H1018 H 0.11961 0.43915 0.49743 0.0
H1019 H 0.10862 0.40109 0.28504 0.0
C1020 C 0.14454 0.39035 0.29536 0.0
C1021 C 0.16493 0.3909 0.33607 0.0
C1022 C 0.10773 0.44377 0.45695 0.0
C1023 C 0.12263 0.41009 0.38424 0.0
C1024 C 0.09672 0.4659 0.45902 0.0
C1025 C 0.08304 0.47326 0.40422 0.0
C1026 C 0.10527 0.42913 0.39927 0.0
C1027 C 0.0786 0.45689 0.35173 0.0
C1028 C 0.12333 0.3996 0.31962 0.0
C1029 C 0.16178 0.39668 0.40492 0.0
N1030 N 0.09014 0.43585 0.34973 0.0
N1031 N 0.14139 0.40707 0.42617 0.0
H1032 H 0.87655 0.87931 0.88684 0.0
H1033 H 0.98269 0.88966 0.64008 0.0
H1034 H 0.9118 0.82258 0.7773 0.0
H1035 H 0.96299 0.9403 0.79571 0.0
H1036 H 0.94303 0.87281 0.64487 0.0
H1037 H 0.89328 0.90732 0.80799 0.0
C1038 C 0.88732 0.87248 0.84583 0.0
C1039 C 0.89454 0.8486 0.84338 0.0
C1040 C 0.94717 0.88812 0.67641 0.0
C1041 C 0.91267 0.88055 0.75103 0.0
C1042 C 0.96987 0.89759 0.67413 0.0
C1043 C 0.9765 0.91558 0.72005 0.0
C1044 C 0.93123 0.89647 0.72564 0.0
C1045 C 0.95888 0.92595 0.76075 0.0
C1046 C 0.89661 0.88858 0.80021 0.0
C1047 C 0.90664 0.84083 0.7849 0.0
N1048 N 0.93723 0.91578 0.76407 0.0
N1049 N 0.91596 0.85685 0.74243 0.0
H1050 H 0.71558 0.91863 0.8 0.0
H1051 H 0.59247 0.97384 0.70688 0.0
H1052 H 0.64922 0.89012 0.86977 0.0
H1053 H 0.6608 1.00727 0.69315 0.0
H1054 H 0.6121 0.93622 0.72968 0.0
H1055 H 0.69458 0.94115 0.71801 0.0
C1056 C 0.69667 0.91631 0.79764 0.0
C1057 C 0.68424 0.90325 0.84603 0.0
C1058 C 0.62269 0.95174 0.7201 0.0
C1059 C 0.65992 0.93039 0.75217 0.0
C1060 C 0.61154 0.97333 0.708 0.0
C1061 C 0.62489 0.99411 0.70021 0.0
C1062 C 0.6474 0.95086 0.72336 0.0
C1063 C 0.64957 0.99198 0.69902 0.0
C1064 C 0.6846 0.92965 0.75054 0.0
C1065 C 0.65964 0.90113 0.8372 0.0
N1066 N 0.65995 0.97087 0.71135 0.0
N1067 N 0.64817 0.91529 0.79305 0.0
H1068 H 0.65609 0.65292 0.99174 0.0
H1069 H 0.54539 0.60655 0.78812 0.0
H1070 H 0.61652 0.69262 0.84586 0.0
H1071 H 0.57226 0.57584 0.9707 0.0
H1072 H 0.5817 0.62921 0.77821 0.0
H1073 H 0.63656 0.61683 0.9514 0.0
C1074 C 0.64395 0.65402 0.9497 0.0
C1075 C 0.63693 0.67613 0.92502 0.0
C1076 C 0.57983 0.61716 0.81974 0.0
C1077 C 0.615 0.63487 0.87784 0.0
C1078 C 0.55909 0.6041 0.82541 0.0
C1079 C 0.55538 0.58977 0.88162 0.0
C1080 C 0.59687 0.61615 0.87097 0.0
C1081 C 0.57393 0.58739 0.92802 0.0
C1082 C 0.63283 0.63335 0.92669 0.0
C1083 C 0.62206 0.67621 0.86825 0.0
N1084 N 0.59363 0.60089 0.92254 0.0
N1085 N 0.61104 0.65599 0.84793 0.0
H1086 H 0.82579 0.61523 0.75833 0.0
H1087 H 0.93952 0.57729 0.89914 0.0
H1088 H 0.86699 0.66105 0.88873 0.0
H1089 H 0.91251 0.54652 0.7144 0.0
H1090 H 0.91954 0.61429 0.87363 0.0
H1091 H 0.8618 0.59886 0.71162 0.0
C1092 C 0.84238 0.62277 0.77517 0.0
C1093 C 0.84336 0.63842 0.83105 0.0
C1094 C 0.91858 0.59979 0.83726 0.0
C1095 C 0.88473 0.61888 0.7795 0.0
C1096 C 0.9298 0.57861 0.85231 0.0
C1097 C 0.92703 0.55877 0.80982 0.0
C1098 C 0.90378 0.60087 0.78051 0.0
C1099 C 0.91469 0.56139 0.74906 0.0
C1100 C 0.86313 0.61313 0.74865 0.0
C1101 C 0.86547 0.6479 0.84856 0.0
N1102 N 0.90287 0.58186 0.73714 0.0
N1103 N 0.88539 0.6372 0.82519 0.0
H1104 H 0.99652 0.1763 0.94913 0.0
H1105 H 0.04432 0.07814 0.68078 0.0
H1106 H 0.06418 0.18124 0.85086 0.0
H1107 H 0.97459 0.07739 0.76679 0.0
H1108 H 0.05236 0.11553 0.7428 0.0
H1109 H 0.98817 0.14044 0.88189 0.0
C1110 C 0.00952 0.17018 0.91282 0.0
C1111 C 0.03119 0.18211 0.90649 0.0
C1112 C 0.03532 0.10714 0.74843 0.0
C1113 C 0.02185 0.14023 0.8295 0.0
C1114 C 0.03084 0.08565 0.71345 0.0
C1115 C 1.00896 0.07422 0.72003 0.0
C1116 C 0.01778 0.11743 0.79021 0.0
C1117 C 0.99184 0.08532 0.76114 0.0
C1118 C 1.00482 0.14943 0.87472 0.0
C1119 C 0.04737 0.17267 0.85884 0.0
N1120 N 0.99664 0.10605 0.79482 0.0
N1121 N 0.04246 0.1524 0.82282 0.0
H1122 H 0.34035 1.00911 0.88448 0.0
H1123 H 0.45367 0.04674 0.67152 0.0
H1124 H 0.36742 0.08059 0.88315 0.0
H1125 H 0.44953 0.97778 0.75966 0.0
H1126 H 0.41749 0.05826 0.73195 0.0
H1127 H 0.37631 0.99586 0.82478 0.0
C1128 C 0.35358 0.02208 0.87176 0.0
C1129 C 0.3501 0.04623 0.8879 0.0
C1130 C 0.42457 0.04063 0.73847 0.0
C1131 C 0.39124 0.0311 0.81816 0.0
C1132 C 0.44537 0.03415 0.70447 0.0
C1133 C 0.45522 0.01162 0.71288 0.0
C1134 C 0.41306 0.02426 0.77985 0.0
C1135 C 0.44289 0.99557 0.75334 0.0
C1136 C 0.37412 0.01446 0.8374 0.0
C1137 C 0.36833 0.06197 0.86975 0.0
N1138 N 0.42253 1.00218 0.78543 0.0
N1139 N 0.38774 0.05422 0.83557 0.0
H1140 H 0.46348 0.32751 0.78249 0.0
H1141 H 0.50413 0.4601 0.82162 0.0
H1142 H 0.50026 0.35339 0.95885 0.0
H1143 H 0.50157 0.42706 0.62401 0.0
H1144 H 0.50053 0.42117 0.87229 0.0
H1145 H 0.47614 0.36285 0.72145 0.0
C1146 C 0.475 0.3402 0.80747 0.0
C1147 C 0.48124 0.33727 0.87546 0.0
C1148 C 0.50089 0.42234 0.81784 0.0
C1149 C 0.49468 0.37836 0.80719 0.0
C1150 C 0.50273 0.44461 0.78879 0.0
C1151 C 0.50296 0.4469 0.71839 0.0
C1152 C 0.4987 0.40202 0.77648 0.0
C1153 C 0.50144 0.42611 0.6785 0.0
C1154 C 0.48201 0.36048 0.77287 0.0
C1155 C 0.4955 0.35467 0.90615 0.0
N1156 N 0.499 0.40456 0.70806 0.0
N1157 N 0.50133 0.37464 0.87232 0.0
H1158 H 0.20377 0.50784 0.82962 0.0
H1159 H 0.06158 0.50848 0.82564 0.0
H1160 H 0.15972 0.48632 0.9944 0.0
H1161 H 0.1019 0.51557 0.64337 0.0
H1162 H 0.09812 0.50511 0.88984 0.0
H1163 H 0.16782 0.51567 0.76253 0.0
C1164 C 0.18657 0.50512 0.85197 0.0
C1165 C 0.18474 0.49644 0.91777 0.0
C1166 C 0.09916 0.50731 0.83578 0.0
C1167 C 0.14361 0.50524 0.84153 0.0
C1168 C 0.07821 0.50896 0.79897 0.0
C1169 C 0.07864 0.51147 0.72883 0.0
C1170 C 0.12107 0.50843 0.80264 0.0
C1171 C 0.1008 0.51334 0.6974 0.0
C1172 C 0.16607 0.50942 0.81356 0.0
C1173 C 0.16199 0.49298 0.94394 0.0
N1174 N 0.12115 0.51164 0.7344 0.0
N1175 N 0.14251 0.49734 0.90602 0.0
H1176 H 0.95867 0.85768 0.38973 0.0
H1177 H 0.05529 0.95278 0.5148 0.0
H1178 H 0.03249 0.85218 0.33995 0.0
H1179 H 0.98411 0.95249 0.5905 0.0
H1180 H 0.04702 0.91638 0.45005 0.0
H1181 H 0.96734 0.892 0.46293 0.0
C1182 C 0.9768 0.86351 0.39467 0.0
C1183 C 0.99486 0.85182 0.35805 0.0
C1184 C 0.03311 0.92423 0.48048 0.0
C1185 C 1.00493 0.89174 0.44219 0.0
C1186 C 0.03779 0.94514 0.51734 0.0
C1187 C 0.02018 0.95623 0.55663 0.0
C1188 C 0.01059 0.91387 0.48298 0.0
C1189 C 0.99801 0.94508 0.55919 0.0
C1190 C 0.98172 0.88321 0.43662 0.0
C1191 C 0.01798 0.86032 0.36727 0.0
N1192 N 0.99382 0.92469 0.5226 0.0
N1193 N 0.02228 0.87979 0.40764 0.0
H1194 H 0.66939 0.95825 0.40272 0.0
H1195 H 0.57343 0.05691 0.50508 0.0
H1196 H 0.67513 0.03107 0.34397 0.0
H1197 H 0.57492 0.98767 0.59203 0.0
H1198 H 0.61036 0.0478 0.44555 0.0
H1199 H 0.63511 0.96861 0.4723 0.0
C1200 C 0.66361 0.97653 0.40507 0.0
C1201 C 0.67528 0.99379 0.36707 0.0
C1202 C 0.60262 0.03451 0.47736 0.0
C1203 C 0.6355 1.00581 0.4467 0.0
C1204 C 0.58144 0.03966 0.51111 0.0
C1205 C 0.57061 0.02274 0.55184 0.0
C1206 C 0.61335 0.01225 0.48454 0.0
C1207 C 0.58217 1.00093 0.5593 0.0
C1208 C 0.64396 0.98242 0.4449 0.0
C1209 C 0.66691 0.01719 0.3726 0.0
N1210 N 0.60275 0.99626 0.52564 0.0
N1211 N 0.64745 0.02243 0.4109 0.0
H1212 H 0.55655 0.70547 0.49719 0.0
H1213 H 0.51935 0.57161 0.45915 0.0
H1214 H 0.52212 0.6779 0.31892 0.0
H1215 H 0.5203 0.60535 0.65594 0.0
H1216 H 0.52253 0.6104 0.40752 0.0
H1217 H 0.5445 0.66992 0.55823 0.0
C1218 C 0.54567 0.69233 0.47169 0.0
C1219 C 0.53991 0.69487 0.4032 0.0
C1220 C 0.52191 0.60941 0.46199 0.0
C1221 C 0.52717 0.65357 0.47163 0.0
C1222 C 0.52031 0.58721 0.49162 0.0
C1223 C 0.51975 0.58515 0.5621 0.0
C1224 C 0.5235 0.62992 0.50285 0.0
C1225 C 0.52071 0.60611 0.60142 0.0
C1226 C 0.53902 0.67194 0.50633 0.0
C1227 C 0.52648 0.67692 0.37197 0.0
N1228 N 0.52289 0.6276 0.57133 0.0
N1229 N 0.52097 0.65689 0.40593 0.0
H1230 H 0.83938 0.57917 0.41717 0.0
H1231 H 0.94084 0.48723 0.52212 0.0
H1232 H 0.84962 0.51225 0.31402 0.0
H1233 H 0.93697 0.55956 0.59418 0.0
H1234 H 0.9039 0.49304 0.45966 0.0
H1235 H 0.87053 0.5689 0.49703 0.0
C1236 C 0.84767 0.56192 0.41273 0.0
C1237 C 0.84157 0.54643 0.3592 0.0
C1238 C 0.911 0.50757 0.48967 0.0
C1239 C 0.87815 0.53476 0.4497 0.0
C1240 C 0.93206 0.50421 0.52586 0.0
C1241 C 0.9422 0.52293 0.56361 0.0
C1242 C 0.89969 0.52976 0.49161 0.0
C1243 C 0.93002 0.54464 0.56546 0.0
C1244 C 0.86573 0.55618 0.45787 0.0
C1245 C 0.85339 0.52454 0.35513 0.0
N1246 N 0.90958 0.54744 0.53005 0.0
N1247 N 0.87123 0.51946 0.39921 0.0
loop_
_geom_bond_atom_site_label_1
_geom_bond_atom_site_label_2
_geom_bond_distance
_geom_bond_site_symmetry_2
_ccdc_geom_bond_type
C0 C1 1.391 . S
C0 C4 1.391 . S
C0 H42 0.948 . S
C1 C0 1.391 . S
C1 C2 1.391 . S
C2 C1 1.391 . S
C2 H58 0.947 . S
C2 C59 1.392 . S
C3 C4 1.391 . S
C3 C7 1.397 . S
C3 C59 1.419 . S
C4 C0 1.391 . S
C4 C3 1.391 . S
C4 C5 1.399 . S
C5 C4 1.399 . S
C5 C8 1.396 . S
C5 C17 1.453 . S
C5 C18 1.684 . S
H6 C30 0.948 . S
C7 C3 1.397 . S
C7 C8 1.394 . S
C7 C26 1.723 . S
C8 C5 1.396 . S
C8 C7 1.394 . S
C8 C38 1.723 . S
H9 C32 0.947 . S
H10 C33 0.948 . S
H11 C39 0.982 . S
H12 C40 0.979 . S
H13 C40 0.980 . S
H14 C40 0.983 . S
H15 C39 0.979 . S
H16 C39 0.977 . S
C17 C5 1.453 . S
C17 H46 0.982 . S
C17 H47 0.979 . S
C17 H48 0.977 . S
C18 C5 1.684 . S
C18 H43 0.979 . S
C18 H44 0.980 . S
C18 H45 0.983 . S
C19 C20 1.392 1_554 S
C19 C24 1.391 . S
C19 H49 0.948 . S
C20 C19 1.392 1_556 S
C20 C21 1.391 . S
C21 C20 1.391 . S
C21 C22 1.392 1_556 S
C21 H50 0.947 . S
C22 C21 1.392 1_554 S
C22 C23 1.419 . S
C22 H51 0.948 . S
C23 C22 1.419 . S
C23 C24 1.391 . S
C23 C27 1.397 . S
C24 C19 1.391 . S
C24 C23 1.391 . S
C24 C25 1.399 . S
C25 C24 1.399 . S
C25 C26 1.396 . S
C25 C28 1.453 . S
C25 C29 1.684 . S
C26 C7 1.723 . S
C26 C25 1.396 . S
C26 C27 1.394 . S
C27 C23 1.397 . S
C27 C26 1.394 . S
C27 C37 1.723 . S
C28 C25 1.453 . S
C28 H52 0.982 . S
C28 H53 0.979 . S
C28 H54 0.977 . S
C29 C25 1.684 . S
C29 H55 0.979 . S
C29 H56 0.980 . S
C29 H57 0.983 . S
C30 H6 0.948 . S
C30 C31 1.391 . S
C30 C35 1.391 . S
C31 C30 1.391 . S
C31 C32 1.391 . S
C32 H9 0.947 . S
C32 C31 1.391 . S
C32 C33 1.392 . S
C33 H10 0.948 . S
C33 C32 1.392 . S
C33 C34 1.419 . S
C34 C33 1.419 . S
C34 C35 1.391 . S
C34 C38 1.397 . S
C35 C30 1.391 . S
C35 C34 1.391 . S
C35 C36 1.399 . S
C36 C35 1.399 . S
C36 C37 1.396 . S
C36 C39 1.453 . S
C36 C40 1.684 . S
C37 C27 1.723 . S
C37 C36 1.396 . S
C37 C38 1.394 . S
C38 C8 1.723 . S
C38 C34 1.397 . S
C38 C37 1.394 . S
C39 H11 0.982 . S
C39 H15 0.979 . S
C39 H16 0.977 . S
C39 C36 1.453 . S
C40 H12 0.979 . S
C40 H13 0.980 . S
C40 H14 0.983 . S
C40 C36 1.684 . S
H41 C59 0.948 . S
H42 C0 0.948 . S
H43 C18 0.979 . S
H44 C18 0.980 . S
H45 C18 0.983 . S
H46 C17 0.982 . S
H47 C17 0.979 . S
H48 C17 0.977 . S
H49 C19 0.948 . S
H50 C21 0.947 . S
H51 C22 0.948 . S
H52 C28 0.982 . S
H53 C28 0.979 . S
H54 C28 0.977 . S
H55 C29 0.979 . S
H56 C29 0.980 . S
H57 C29 0.983 . S
H58 C2 0.947 . S
C59 C2 1.392 . S
C59 C3 1.419 . S
C59 H41 0.948 . S
C60 C61 1.391 . S
C60 C64 1.391 . S
C60 H102 0.948 1_554 S
C61 C60 1.391 . S
C61 C62 1.391 . S
C62 C61 1.391 . S
C62 H118 0.947 . S
C62 C119 1.392 . S
C63 C64 1.391 . S
C63 C67 1.397 . S
C63 C119 1.419 . S
C64 C60 1.391 . S
C64 C63 1.391 . S
C64 C65 1.399 . S
C65 C64 1.399 . S
C65 C68 1.396 . S
C65 C77 1.453 . S
C65 C78 1.684 . S
H66 C90 0.948 . S
C67 C63 1.397 . S
C67 C68 1.394 . S
C67 C86 1.723 . S
C68 C65 1.396 . S
C68 C67 1.394 . S
C68 C98 1.723 . S
H69 C92 0.947 . S
H70 C93 0.948 . S
H71 C99 0.982 . S
H72 C100 0.979 . S
H73 C100 0.980 . S
H74 C100 0.983 . S
H75 C99 0.979 . S
H76 C99 0.977 . S
C77 C65 1.453 . S
C77 H106 0.982 . S
C77 H107 0.979 1_554 S
C77 H108 0.977 . S
C78 C65 1.684 . S
C78 H103 0.979 . S
C78 H104 0.980 . S
C78 H105 0.983 1_554 S
C79 C80 1.391 . S
C79 C84 1.391 . S
C79 H109 0.948 . S
C80 C79 1.391 . S
C80 C81 1.391 . S
C81 C80 1.391 . S
C81 C82 1.392 . S
C81 H110 0.947 . S
C82 C81 1.392 . S
C82 C83 1.419 . S
C82 H111 0.948 . S
C83 C82 1.419 . S
C83 C84 1.391 . S
C83 C87 1.397 . S
C84 C79 1.391 . S
C84 C83 1.391 . S
C84 C85 1.399 . S
C85 C84 1.399 . S
C85 C86 1.396 . S
C85 C88 1.453 . S
C85 C89 1.684 . S
C86 C67 1.723 . S
C86 C85 1.396 . S
C86 C87 1.394 . S
C87 C83 1.397 . S
C87 C86 1.394 . S
C87 C97 1.723 . S
C88 C85 1.453 . S
C88 H112 0.982 . S
C88 H113 0.979 . S
C88 H114 0.977 . S
C89 C85 1.684 . S
C89 H115 0.979 . S
C89 H116 0.980 . S
C89 H117 0.983 . S
C90 H66 0.948 . S
C90 C91 1.391 . S
C90 C95 1.391 . S
C91 C90 1.391 . S
C91 C92 1.391 . S
C92 H69 0.947 . S
C92 C91 1.391 . S
C92 C93 1.392 . S
C93 H70 0.948 . S
C93 C92 1.392 . S
C93 C94 1.419 . S
C94 C93 1.419 . S
C94 C95 1.391 . S
C94 C98 1.397 . S
C95 C90 1.391 . S
C95 C94 1.391 . S
C95 C96 1.399 . S
C96 C95 1.399 . S
C96 C97 1.396 . S
C96 C99 1.453 . S
C96 C100 1.684 . S
C97 C87 1.723 . S
C97 C96 1.396 . S
C97 C98 1.394 . S
C98 C68 1.723 . S
C98 C94 1.397 . S
C98 C97 1.394 . S
C99 H71 0.982 . S
C99 H75 0.979 . S
C99 H76 0.977 . S
C99 C96 1.453 . S
C100 H72 0.979 . S
C100 H73 0.980 . S
C100 H74 0.983 . S
C100 C96 1.684 . S
H101 C119 0.948 . S
H102 C60 0.948 1_556 S
H103 C78 0.979 . S
H104 C78 0.980 . S
H105 C78 0.983 1_556 S
H106 C77 0.982 . S
H107 C77 0.979 1_556 S
H108 C77 0.977 . S
H109 C79 0.948 . S
H110 C81 0.947 . S
H111 C82 0.948 . S
H112 C88 0.982 . S
H113 C88 0.979 . S
H114 C88 0.977 . S
H115 C89 0.979 . S
H116 C89 0.980 . S
H117 C89 0.983 . S
H118 C62 0.947 . S
C119 C62 1.392 . S
C119 C63 1.419 . S
C119 H101 0.948 . S
C120 C121 1.391 . S
C120 C124 1.391 . S
C120 H162 0.948 . S
C121 C120 1.391 . S
C121 C122 1.391 . S
C122 C121 1.391 . S
C122 H178 0.947 . S
C122 C179 1.392 . S
C123 C124 1.391 . S
C123 C127 1.397 . S
C123 C179 1.419 . S
C124 C120 1.391 . S
C124 C123 1.391 . S
C124 C125 1.399 . S
C125 C124 1.399 . S
C125 C128 1.396 . S
C125 C137 1.453 . S
C125 C138 1.684 . S
H126 C150 0.948 . S
C127 C123 1.397 . S
C127 C128 1.394 . S
C127 C146 1.723 . S
C128 C125 1.396 . S
C128 C127 1.394 . S
C128 C158 1.723 . S
H129 C152 0.947 . S
H130 C153 0.948 . S
H131 C159 0.982 . S
H132 C160 0.979 . S
H133 C160 0.980 . S
H134 C160 0.983 . S
H135 C159 0.979 . S
H136 C159 0.977 . S
C137 C125 1.453 . S
C137 H166 0.982 . S
C137 H167 0.979 . S
C137 H168 0.977 . S
C138 C125 1.684 . S
C138 H163 0.979 . S
C138 H164 0.980 . S
C138 H165 0.983 . S
C139 C140 1.391 . S
C139 C144 1.391 . S
C139 H169 0.948 1_554 S
C140 C139 1.391 . S
C140 C141 1.391 . S
C141 C140 1.391 . S
C141 C142 1.392 . S
C141 H170 0.947 . S
C142 C141 1.392 . S
C142 C143 1.419 . S
C142 H171 0.948 . S
C143 C142 1.419 . S
C143 C144 1.391 . S
C143 C147 1.397 . S
C144 C139 1.391 . S
C144 C143 1.391 . S
C144 C145 1.399 . S
C145 C144 1.399 . S
C145 C146 1.396 . S
C145 C148 1.453 . S
C145 C149 1.684 . S
C146 C127 1.723 . S
C146 C145 1.396 . S
C146 C147 1.394 . S
C147 C143 1.397 . S
C147 C146 1.394 . S
C147 C157 1.723 . S
C148 C145 1.453 . S
C148 H172 0.982 . S
C148 H173 0.979 1_554 S
C148 H174 0.977 . S
C149 C145 1.684 . S
C149 H175 0.979 . S
C149 H176 0.980 . S
C149 H177 0.983 1_554 S
C150 H126 0.948 . S
C150 C151 1.391 . S
C150 C155 1.391 . S
C151 C150 1.391 . S
C151 C152 1.391 . S
C152 H129 0.947 . S
C152 C151 1.391 . S
C152 C153 1.392 . S
C153 H130 0.948 . S
C153 C152 1.392 . S
C153 C154 1.419 . S
C154 C153 1.419 . S
C154 C155 1.391 . S
C154 C158 1.397 . S
C155 C150 1.391 . S
C155 C154 1.391 . S
C155 C156 1.399 . S
C156 C155 1.399 . S
C156 C157 1.396 . S
C156 C159 1.453 . S
C156 C160 1.684 . S
C157 C147 1.723 . S
C157 C156 1.396 . S
C157 C158 1.394 . S
C158 C128 1.723 . S
C158 C154 1.397 . S
C158 C157 1.394 . S
C159 H131 0.982 . S
C159 H135 0.979 . S
C159 H136 0.977 . S
C159 C156 1.453 . S
C160 H132 0.979 . S
C160 H133 0.980 . S
C160 H134 0.983 . S
C160 C156 1.684 . S
H161 C179 0.948 . S
H162 C120 0.948 . S
H163 C138 0.979 . S
H164 C138 0.980 . S
H165 C138 0.983 . S
H166 C137 0.982 . S
H167 C137 0.979 . S
H168 C137 0.977 . S
H169 C139 0.948 1_556 S
H170 C141 0.947 . S
H171 C142 0.948 . S
H172 C148 0.982 . S
H173 C148 0.979 1_556 S
H174 C148 0.977 . S
H175 C149 0.979 . S
H176 C149 0.980 . S
H177 C149 0.983 1_556 S
H178 C122 0.947 . S
C179 C122 1.392 . S
C179 C123 1.419 . S
C179 H161 0.948 . S
C180 C181 1.391 . S
C180 C184 1.391 . S
C180 H222 0.948 . S
C181 C180 1.391 . S
C181 C182 1.391 . S
C182 C181 1.391 . S
C182 H238 0.947 . S
C182 C239 1.392 . S
C183 C184 1.391 . S
C183 C187 1.397 . S
C183 C239 1.419 . S
C184 C180 1.391 . S
C184 C183 1.391 . S
C184 C185 1.399 . S
C185 C184 1.399 . S
C185 C188 1.396 . S
C185 C197 1.453 . S
C185 C198 1.684 . S
H186 C210 0.948 . S
C187 C183 1.397 . S
C187 C188 1.394 . S
C187 C206 1.723 . S
C188 C185 1.396 . S
C188 C187 1.394 . S
C188 C218 1.723 . S
H189 C212 0.947 . S
H190 C213 0.948 . S
H191 C219 0.982 . S
H192 C220 0.979 . S
H193 C220 0.980 . S
H194 C220 0.983 . S
H195 C219 0.979 . S
H196 C219 0.977 . S
C197 C185 1.453 . S
C197 H226 0.982 . S
C197 H227 0.979 . S
C197 H228 0.977 . S
C198 C185 1.684 . S
C198 H223 0.979 . S
C198 H224 0.980 . S
C198 H225 0.983 . S
C199 C200 1.391 . S
C199 C204 1.391 . S
C199 H229 0.948 . S
C200 C199 1.391 . S
C200 C201 1.391 1_554 S
C201 C200 1.391 1_556 S
C201 C202 1.392 1_556 S
C201 H230 0.947 . S
C202 C201 1.392 1_554 S
C202 C203 1.419 . S
C202 H231 0.948 . S
C203 C202 1.419 . S
C203 C204 1.391 . S
C203 C207 1.397 . S
C204 C199 1.391 . S
C204 C203 1.391 . S
C204 C205 1.399 . S
C205 C204 1.399 . S
C205 C206 1.396 . S
C205 C208 1.453 . S
C205 C209 1.684 . S
C206 C187 1.723 . S
C206 C205 1.396 . S
C206 C207 1.394 . S
C207 C203 1.397 . S
C207 C206 1.394 . S
C207 C217 1.723 . S
C208 C205 1.453 . S
C208 H232 0.982 . S
C208 H233 0.979 . S
C208 H234 0.977 . S
C209 C205 1.684 . S
C209 H235 0.979 . S
C209 H236 0.980 . S
C209 H237 0.983 . S
C210 H186 0.948 . S
C210 C211 1.391 . S
C210 C215 1.391 . S
C211 C210 1.391 . S
C211 C212 1.391 . S
C212 H189 0.947 . S
C212 C211 1.391 . S
C212 C213 1.392 . S
C213 H190 0.948 . S
C213 C212 1.392 . S
C213 C214 1.419 . S
C214 C213 1.419 . S
C214 C215 1.391 . S
C214 C218 1.397 . S
C215 C210 1.391 . S
C215 C214 1.391 . S
C215 C216 1.399 . S
C216 C215 1.399 . S
C216 C217 1.396 . S
C216 C219 1.453 . S
C216 C220 1.684 . S
C217 C207 1.723 . S
C217 C216 1.396 . S
C217 C218 1.394 . S
C218 C188 1.723 . S
C218 C214 1.397 . S
C218 C217 1.394 . S
C219 H191 0.982 . S
C219 H195 0.979 . S
C219 H196 0.977 . S
C219 C216 1.453 . S
C220 H192 0.979 . S
C220 H193 0.980 . S
C220 H194 0.983 . S
C220 C216 1.684 . S
H221 C239 0.948 . S
H222 C180 0.948 . S
H223 C198 0.979 . S
H224 C198 0.980 . S
H225 C198 0.983 . S
H226 C197 0.982 . S
H227 C197 0.979 . S
H228 C197 0.977 . S
H229 C199 0.948 . S
H230 C201 0.947 . S
H231 C202 0.948 . S
H232 C208 0.982 . S
H233 C208 0.979 . S
H234 C208 0.977 . S
H235 C209 0.979 . S
H236 C209 0.980 . S
H237 C209 0.983 . S
H238 C182 0.947 . S
C239 C182 1.392 . S
C239 C183 1.419 . S
C239 H221 0.948 . S
C240 C241 1.391 . S
C240 C244 1.391 . S
C240 H282 0.948 1_554 S
C241 C240 1.391 . S
C241 C242 1.391 . S
C242 C241 1.391 . S
C242 H298 0.947 . S
C242 C299 1.392 . S
C243 C244 1.391 . S
C243 C247 1.397 . S
C243 C299 1.419 . S
C244 C240 1.391 . S
C244 C243 1.391 . S
C244 C245 1.399 1_554 S
C245 C244 1.399 1_556 S
C245 C248 1.396 . S
C245 C257 1.453 . S
C245 C258 1.684 . S
H246 C270 0.948 . S
C247 C243 1.397 . S
C247 C248 1.394 1_554 S
C247 C266 1.723 . S
C248 C245 1.396 . S
C248 C247 1.394 1_556 S
C248 C278 1.723 . S
H249 C272 0.947 . S
H250 C273 0.948 . S
H251 C279 0.982 . S
H252 C280 0.979 . S
H253 C280 0.980 . S
H254 C280 0.983 . S
H255 C279 0.979 . S
H256 C279 0.977 . S
C257 C245 1.453 . S
C257 H286 0.982 . S
C257 H287 0.979 . S
C257 H288 0.977 . S
C258 C245 1.684 . S
C258 H283 0.979 . S
C258 H284 0.980 . S
C258 H285 0.983 . S
C259 C260 1.391 . S
C259 C264 1.391 . S
C259 H289 0.948 . S
C260 C259 1.391 . S
C260 C261 1.391 . S
C261 C260 1.391 . S
C261 C262 1.392 . S
C261 H290 0.947 . S
C262 C261 1.392 . S
C262 C263 1.419 . S
C262 H291 0.948 . S
C263 C262 1.419 . S
C263 C264 1.391 . S
C263 C267 1.397 . S
C264 C259 1.391 . S
C264 C263 1.391 . S
C264 C265 1.399 . S
C265 C264 1.399 . S
C265 C266 1.396 . S
C265 C268 1.453 . S
C265 C269 1.684 . S
C266 C247 1.723 . S
C266 C265 1.396 . S
C266 C267 1.394 . S
C267 C263 1.397 . S
C267 C266 1.394 . S
C267 C277 1.723 1_554 S
C268 C265 1.453 . S
C268 H292 0.982 . S
C268 H293 0.979 . S
C268 H294 0.977 . S
C269 C265 1.684 . S
C269 H295 0.979 . S
C269 H296 0.980 . S
C269 H297 0.983 . S
C270 H246 0.948 . S
C270 C271 1.391 . S
C270 C275 1.391 . S
C271 C270 1.391 . S
C271 C272 1.391 . S
C272 H249 0.947 . S
C272 C271 1.391 . S
C272 C273 1.392 . S
C273 H250 0.948 . S
C273 C272 1.392 . S
C273 C274 1.419 . S
C274 C273 1.419 . S
C274 C275 1.391 . S
C274 C278 1.397 . S
C275 C270 1.391 . S
C275 C274 1.391 . S
C275 C276 1.399 . S
C276 C275 1.399 . S
C276 C277 1.396 . S
C276 C279 1.453 . S
C276 C280 1.684 . S
C277 C267 1.723 1_556 S
C277 C276 1.396 . S
C277 C278 1.394 . S
C278 C248 1.723 . S
C278 C274 1.397 . S
C278 C277 1.394 . S
C279 H251 0.982 . S
C279 H255 0.979 . S
C279 H256 0.977 . S
C279 C276 1.453 . S
C280 H252 0.979 . S
C280 H253 0.980 . S
C280 H254 0.983 . S
C280 C276 1.684 . S
H281 C299 0.948 . S
H282 C240 0.948 1_556 S
H283 C258 0.979 . S
H284 C258 0.980 . S
H285 C258 0.983 . S
H286 C257 0.982 . S
H287 C257 0.979 . S
H288 C257 0.977 . S
H289 C259 0.948 . S
H290 C261 0.947 . S
H291 C262 0.948 . S
H292 C268 0.982 . S
H293 C268 0.979 . S
H294 C268 0.977 . S
H295 C269 0.979 . S
H296 C269 0.980 . S
H297 C269 0.983 . S
H298 C242 0.947 . S
C299 C242 1.392 . S
C299 C243 1.419 . S
C299 H281 0.948 . S
C300 C301 1.391 . S
C300 C304 1.391 . S
C300 H342 0.948 . S
C301 C300 1.391 . S
C301 C302 1.391 . S
C302 C301 1.391 . S
C302 H358 0.947 . S
C302 C359 1.392 . S
C303 C304 1.391 . S
C303 C307 1.397 . S
C303 C359 1.419 . S
C304 C300 1.391 . S
C304 C303 1.391 . S
C304 C305 1.399 . S
C305 C304 1.399 . S
C305 C308 1.396 . S
C305 C317 1.453 . S
C305 C318 1.684 . S
H306 C330 0.948 1_556 S
C307 C303 1.397 . S
C307 C308 1.394 . S
C307 C326 1.723 1_554 S
C308 C305 1.396 . S
C308 C307 1.394 . S
C308 C338 1.723 . S
H309 C332 0.947 . S
H310 C333 0.948 . S
H311 C339 0.982 . S
H312 C340 0.979 . S
H313 C340 0.980 . S
H314 C340 0.983 . S
H315 C339 0.979 . S
H316 C339 0.977 . S
C317 C305 1.453 . S
C317 H346 0.982 . S
C317 H347 0.979 . S
C317 H348 0.977 . S
C318 C305 1.684 . S
C318 H343 0.979 . S
C318 H344 0.980 . S
C318 H345 0.983 . S
C319 C320 1.391 . S
C319 C324 1.391 . S
C319 H349 0.948 . S
C320 C319 1.391 . S
C320 C321 1.391 . S
C321 C320 1.391 . S
C321 C322 1.392 . S
C321 H350 0.947 . S
C322 C321 1.392 . S
C322 C323 1.419 . S
C322 H351 0.948 . S
C323 C322 1.419 . S
C323 C324 1.391 . S
C323 C327 1.397 . S
C324 C319 1.391 . S
C324 C323 1.391 . S
C324 C325 1.399 . S
C325 C324 1.399 . S
C325 C326 1.396 . S
C325 C328 1.453 . S
C325 C329 1.684 . S
C326 C307 1.723 1_556 S
C326 C325 1.396 . S
C326 C327 1.394 . S
C327 C323 1.397 . S
C327 C326 1.394 . S
C327 C337 1.723 . S
C328 C325 1.453 . S
C328 H352 0.982 . S
C328 H353 0.979 . S
C328 H354 0.977 . S
C329 C325 1.684 . S
C329 H355 0.979 . S
C329 H356 0.980 . S
C329 H357 0.983 . S
C330 H306 0.948 1_554 S
C330 C331 1.391 . S
C330 C335 1.391 . S
C331 C330 1.391 . S
C331 C332 1.391 . S
C332 H309 0.947 . S
C332 C331 1.391 . S
C332 C333 1.392 . S
C333 H310 0.948 . S
C333 C332 1.392 . S
C333 C334 1.419 . S
C334 C333 1.419 . S
C334 C335 1.391 . S
C334 C338 1.397 . S
C335 C330 1.391 . S
C335 C334 1.391 . S
C335 C336 1.399 1_554 S
C336 C335 1.399 1_556 S
C336 C337 1.396 . S
C336 C339 1.453 . S
C336 C340 1.684 . S
C337 C327 1.723 . S
C337 C336 1.396 . S
C337 C338 1.394 1_556 S
C338 C308 1.723 . S
C338 C334 1.397 . S
C338 C337 1.394 1_554 S
C339 H311 0.982 . S
C339 H315 0.979 . S
C339 H316 0.977 . S
C339 C336 1.453 . S
C340 H312 0.979 . S
C340 H313 0.980 . S
C340 H314 0.983 . S
C340 C336 1.684 . S
H341 C359 0.948 . S
H342 C300 0.948 . S
H343 C318 0.979 . S
H344 C318 0.980 . S
H345 C318 0.983 . S
H346 C317 0.982 . S
H347 C317 0.979 . S
H348 C317 0.977 . S
H349 C319 0.948 . S
H350 C321 0.947 . S
H351 C322 0.948 . S
H352 C328 0.982 . S
H353 C328 0.979 . S
H354 C328 0.977 . S
H355 C329 0.979 . S
H356 C329 0.980 . S
H357 C329 0.983 . S
H358 C302 0.947 . S
C359 C302 1.392 . S
C359 C303 1.419 . S
C359 H341 0.948 . S
C360 C361 1.391 . S
C360 C364 1.391 . S
C360 H402 0.948 . S
C361 C360 1.391 . S
C361 C362 1.391 . S
C362 C361 1.391 . S
C362 H418 0.947 . S
C362 C419 1.392 . S
C363 C364 1.391 . S
C363 C367 1.397 . S
C363 C419 1.419 . S
C364 C360 1.391 . S
C364 C363 1.391 . S
C364 C365 1.399 . S
C365 C364 1.399 . S
C365 C368 1.396 . S
C365 C377 1.453 . S
C365 C378 1.684 . S
H366 C390 0.948 . S
C367 C363 1.397 . S
C367 C368 1.394 . S
C367 C386 1.723 1_556 S
C368 C365 1.396 . S
C368 C367 1.394 . S
C368 C398 1.723 1_556 S
H369 C392 0.941 1_556 S
H370 C393 0.948 . S
H371 C399 0.982 . S
H372 C400 0.979 . S
H373 C400 0.980 . S
H374 C400 0.983 . S
H375 C399 0.979 . S
H376 C399 0.977 . S
C377 C365 1.453 . S
C377 H406 0.982 . S
C377 H407 0.979 . S
C377 H408 0.977 . S
C378 C365 1.684 . S
C378 H403 0.979 . S
C378 H404 0.980 . S
C378 H405 0.983 . S
C379 C380 1.391 . S
C379 C384 1.391 . S
C379 H409 0.948 . S
C380 C379 1.391 . S
C380 C381 1.391 . S
C381 C380 1.391 . S
C381 C382 1.392 . S
C381 H410 0.947 . S
C382 C381 1.392 . S
C382 C383 1.419 . S
C382 H411 0.948 . S
C383 C382 1.419 . S
C383 C384 1.391 . S
C383 C387 1.397 . S
C384 C379 1.391 . S
C384 C383 1.391 . S
C384 C385 1.399 . S
C385 C384 1.399 . S
C385 C386 1.396 . S
C385 C388 1.453 . S
C385 C389 1.684 . S
C386 C367 1.723 1_554 S
C386 C385 1.396 . S
C386 C387 1.394 . S
C387 C383 1.397 . S
C387 C386 1.394 . S
C387 C397 1.723 . S
C388 C385 1.453 . S
C388 H412 0.982 . S
C388 H413 0.979 . S
C388 H414 0.977 1_554 S
C389 C385 1.684 . S
C389 H415 0.979 . S
C389 H416 0.980 1_554 S
C389 H417 0.983 . S
C390 H366 0.948 . S
C390 C391 1.391 . S
C390 C395 1.391 . S
C391 C390 1.391 . S
C391 C392 1.400 . S
C392 H369 0.941 1_554 S
C392 C391 1.400 . S
C392 C393 1.389 1_554 S
C393 H370 0.948 . S
C393 C392 1.389 1_556 S
C393 C394 1.419 1_556 S
C394 C393 1.419 1_554 S
C394 C395 1.391 . S
C394 C398 1.397 . S
C395 C390 1.391 . S
C395 C394 1.391 . S
C395 C396 1.399 . S
C396 C395 1.399 . S
C396 C397 1.396 . S
C396 C399 1.453 . S
C396 C400 1.684 . S
C397 C387 1.723 . S
C397 C396 1.396 . S
C397 C398 1.394 . S
C398 C368 1.723 1_554 S
C398 C394 1.397 . S
C398 C397 1.394 . S
C399 H371 0.982 . S
C399 H375 0.979 . S
C399 H376 0.977 . S
C399 C396 1.453 . S
C400 H372 0.979 . S
C400 H373 0.980 . S
C400 H374 0.983 . S
C400 C396 1.684 . S
H401 C419 0.948 . S
H402 C360 0.948 . S
H403 C378 0.979 . S
H404 C378 0.980 . S
H405 C378 0.983 . S
H406 C377 0.982 . S
H407 C377 0.979 . S
H408 C377 0.977 . S
H409 C379 0.948 . S
H410 C381 0.947 . S
H411 C382 0.948 . S
H412 C388 0.982 . S
H413 C388 0.979 . S
H414 C388 0.977 1_556 S
H415 C389 0.979 . S
H416 C389 0.980 1_556 S
H417 C389 0.983 . S
H418 C362 0.947 . S
C419 C362 1.392 . S
C419 C363 1.419 . S
C419 H401 0.948 . S
C420 C421 1.391 . S
C420 C424 1.391 . S
C420 H462 0.948 . S
C421 C420 1.391 . S
C421 C422 1.391 . S
C422 C421 1.391 . S
C422 H478 0.947 . S
C422 C479 1.392 . S
C423 C424 1.391 . S
C423 C427 1.397 . S
C423 C479 1.419 . S
C424 C420 1.391 . S
C424 C423 1.391 . S
C424 C425 1.399 . S
C425 C424 1.399 . S
C425 C428 1.396 . S
C425 C437 1.453 . S
C425 C438 1.684 . S
H426 C450 0.948 . S
C427 C423 1.397 . S
C427 C428 1.394 . S
C427 C446 1.723 1_556 S
C428 C425 1.396 . S
C428 C427 1.394 . S
C428 C458 1.723 1_556 S
H429 C452 0.947 1_556 S
H430 C453 0.948 . S
H431 C459 0.982 . S
H432 C460 0.979 . S
H433 C460 0.980 . S
H434 C460 0.983 . S
H435 C459 0.979 . S
H436 C459 0.977 . S
C437 C425 1.453 . S
C437 H466 0.982 . S
C437 H467 0.979 . S
C437 H468 0.977 . S
C438 C425 1.684 . S
C438 H463 0.979 . S
C438 H464 0.980 . S
C438 H465 0.983 . S
C439 C440 1.391 . S
C439 C444 1.391 . S
C439 H469 0.948 . S
C440 C439 1.391 . S
C440 C441 1.391 . S
C441 C440 1.391 . S
C441 C442 1.392 . S
C441 H470 0.947 . S
C442 C441 1.392 . S
C442 C443 1.419 . S
C442 H471 0.948 . S
C443 C442 1.419 . S
C443 C444 1.391 . S
C443 C447 1.397 . S
C444 C439 1.391 . S
C444 C443 1.391 . S
C444 C445 1.399 . S
C445 C444 1.399 . S
C445 C446 1.396 . S
C445 C448 1.453 . S
C445 C449 1.684 . S
C446 C427 1.723 1_554 S
C446 C445 1.396 . S
C446 C447 1.394 . S
C447 C443 1.397 . S
C447 C446 1.394 . S
C447 C457 1.723 . S
C448 C445 1.453 . S
C448 H472 0.982 . S
C448 H473 0.979 . S
C448 H474 0.977 1_554 S
C449 C445 1.684 . S
C449 H475 0.979 . S
C449 H476 0.980 1_554 S
C449 H477 0.983 . S
C450 H426 0.948 . S
C450 C451 1.391 . S
C450 C455 1.391 . S
C451 C450 1.391 . S
C451 C452 1.391 . S
C452 H429 0.947 1_554 S
C452 C451 1.391 . S
C452 C453 1.392 1_554 S
C453 H430 0.948 . S
C453 C452 1.392 1_556 S
C453 C454 1.419 1_556 S
C454 C453 1.419 1_554 S
C454 C455 1.391 . S
C454 C458 1.397 . S
C455 C450 1.391 . S
C455 C454 1.391 . S
C455 C456 1.399 . S
C456 C455 1.399 . S
C456 C457 1.396 . S
C456 C459 1.453 . S
C456 C460 1.684 . S
C457 C447 1.723 . S
C457 C456 1.396 . S
C457 C458 1.394 . S
C458 C428 1.723 1_554 S
C458 C454 1.397 . S
C458 C457 1.394 . S
C459 H431 0.982 . S
C459 H435 0.979 . S
C459 H436 0.977 . S
C459 C456 1.453 . S
C460 H432 0.979 . S
C460 H433 0.980 . S
C460 H434 0.983 . S
C460 C456 1.684 . S
H461 C479 0.948 . S
H462 C420 0.948 . S
H463 C438 0.979 . S
H464 C438 0.980 . S
H465 C438 0.983 . S
H466 C437 0.982 . S
H467 C437 0.979 . S
H468 C437 0.977 . S
H469 C439 0.948 . S
H470 C441 0.947 . S
H471 C442 0.948 . S
H472 C448 0.982 . S
H473 C448 0.979 . S
H474 C448 0.977 1_556 S
H475 C449 0.979 . S
H476 C449 0.980 1_556 S
H477 C449 0.983 . S
H478 C422 0.947 . S
C479 C422 1.392 . S
C479 C423 1.419 . S
C479 H461 0.948 . S
Gd480 N511 2.656 1_545 S
Gd480 N517 2.601 . S
Gd480 O524 2.545 . S
Gd480 O525 2.606 1_655 S
Gd480 O527 2.429 . S
Gd480 O528 2.545 1_655 S
Gd480 O529 2.412 . S
Gd480 O531 2.362 1_545 S
Gd480 O532 2.324 1_655 S
Gd480 C539 2.828 . S
Gd481 N490 2.661 1_565 S
Gd481 N494 2.601 . S
Gd481 O525 2.362 1_565 S
Gd481 O526 2.324 1_455 S
Gd481 O530 2.545 . S
Gd481 O531 2.606 1_455 S
Gd481 O533 2.429 . S
Gd481 O534 2.545 . S
Gd481 O535 2.412 . S
Gd481 C548 2.828 . S
C482 C485 1.417 . S
C482 C487 1.431 . S
C482 C488 1.412 . S
C483 C486 1.437 . S
C483 C487 1.317 . S
C483 H502 0.929 . S
C484 C485 1.426 . S
C484 C486 1.413 . S
C484 N494 1.359 1_545 S
C485 C482 1.417 . S
C485 C484 1.426 . S
C485 N490 1.350 . S
C486 C483 1.437 . S
C486 C484 1.413 . S
C486 C496 1.377 1_545 S
C487 C482 1.431 . S
C487 C483 1.317 . S
C487 H498 0.930 . S
C488 C482 1.412 . S
C488 C489 1.355 . S
C488 H500 0.930 . S
C489 C488 1.355 . S
C489 C491 1.402 . S
C489 H501 0.930 1_455 S
N490 Gd481 2.661 1_545 S
N490 C485 1.350 . S
N490 C491 1.307 . S
C491 C489 1.402 . S
C491 N490 1.307 . S
C491 H492 0.930 1_455 S
H492 C491 0.930 1_655 S
C493 N494 1.334 . S
C493 C495 1.394 . S
C493 H497 0.930 . S
N494 Gd481 2.601 . S
N494 C484 1.359 1_565 S
N494 C493 1.334 . S
C495 C493 1.394 . S
C495 C496 1.377 . S
C495 H507 0.930 . S
C496 C486 1.377 1_565 S
C496 C495 1.377 . S
C496 H508 0.926 1_565 S
H497 C493 0.930 . S
H498 C487 0.930 . S
H499 C516 0.930 . S
H500 C488 0.930 . S
H501 C489 0.930 1_655 S
H502 C483 0.929 . S
H503 C521 0.930 . S
H504 C512 0.930 . S
H505 C513 0.932 . S
H506 C537 0.929 . S
H507 C495 0.930 . S
H508 C496 0.926 1_545 S
H509 C538 0.930 . S
H510 C519 0.930 . S
N511 Gd480 2.656 1_565 S
N511 C515 1.352 . S
N511 C516 1.311 1_655 S
C512 H504 0.930 . S
C512 C513 1.353 1_655 S
C512 C514 1.412 . S
C513 H505 0.932 . S
C513 C512 1.353 1_455 S
C513 C516 1.402 . S
C514 C512 1.412 . S
C514 C515 1.417 . S
C514 C538 1.431 . S
C515 N511 1.352 . S
C515 C514 1.417 . S
C515 C518 1.426 1_565 S
C516 H499 0.930 . S
C516 N511 1.311 1_455 S
C516 C513 1.402 . S
N517 Gd480 2.601 . S
N517 C518 1.359 . S
N517 C521 1.334 . S
C518 C515 1.426 1_545 S
C518 N517 1.359 . S
C518 C522 1.413 . S
C519 H510 0.930 . S
C519 C520 1.359 . S
C519 C521 1.394 . S
C520 C519 1.359 . S
C520 C522 1.391 . S
C520 H523 0.929 . S
C521 H503 0.930 . S
C521 N517 1.334 . S
C521 C519 1.394 . S
C522 C518 1.413 . S
C522 C520 1.391 . S
C522 C537 1.437 1_545 S
H523 C520 0.929 . S
O524 Gd480 2.545 . S
O524 C539 1.258 . S
O525 Gd480 2.606 1_455 S
O525 Gd481 2.362 1_545 S
O525 C536 1.284 . S
O526 Gd481 2.324 1_655 S
O526 C546 1.254 1_565 S
O527 Gd480 2.429 . S
O527 C546 1.268 . S
O528 Gd480 2.545 1_455 S
O528 C536 1.250 . S
O529 Gd480 2.412 . S
O529 C539 1.252 . S
O530 Gd481 2.545 . S
O530 C548 1.258 . S
O531 Gd480 2.362 1_565 S
O531 Gd481 2.606 1_655 S
O531 C547 1.284 . S
O532 Gd480 2.324 1_455 S
O532 C555 1.254 . S
O533 Gd481 2.429 . S
O533 C555 1.268 1_565 S
O534 Gd481 2.545 . S
O534 C547 1.250 1_455 S
O535 Gd481 2.412 . S
O535 C548 1.252 . S
C536 O525 1.284 . S
C536 O528 1.250 . S
C537 H506 0.929 . S
C537 C522 1.437 1_565 S
C537 C538 1.317 . S
C538 H509 0.930 . S
C538 C514 1.431 . S
C538 C537 1.317 . S
C539 Gd480 2.828 . S
C539 O524 1.258 . S
C539 O529 1.252 . S
C539 C540 1.497 . S
C540 C539 1.497 . S
C540 C541 1.395 . S
C540 C542 1.380 . S
C541 C540 1.395 . S
C541 C544 1.398 . S
C541 H556 0.930 . S
C542 C540 1.380 . S
C542 C543 1.391 . S
C542 H557 0.930 1_655 S
C543 C542 1.391 . S
C543 C545 1.387 . S
C544 C541 1.398 . S
C544 C545 1.380 . S
C544 H558 0.930 . S
C545 C543 1.387 . S
C545 C544 1.380 . S
C545 H559 0.930 . S
C546 O526 1.254 1_545 S
C546 O527 1.268 . S
C547 O531 1.284 . S
C547 O534 1.250 1_655 S
C548 Gd481 2.828 . S
C548 O530 1.258 . S
C548 O535 1.252 . S
C548 C549 1.497 . S
C549 C548 1.497 . S
C549 C550 1.395 . S
C549 C551 1.380 . S
C550 C549 1.395 . S
C550 C553 1.398 . S
C550 H560 0.930 . S
C551 C549 1.380 . S
C551 C552 1.391 . S
C551 H561 0.922 1_455 S
C552 C551 1.391 . S
C552 C554 1.387 . S
C553 C550 1.398 . S
C553 C554 1.380 . S
C553 H562 0.930 . S
C554 C552 1.387 . S
C554 C553 1.380 . S
C554 H563 0.930 . S
C555 O532 1.254 . S
C555 O533 1.268 1_545 S
H556 C541 0.930 . S
H557 C542 0.930 1_455 S
H558 C544 0.930 . S
H559 C545 0.930 . S
H560 C550 0.930 . S
H561 C551 0.922 1_655 S
H562 C553 0.930 . S
H563 C554 0.930 . S
Gd564 N595 2.661 . S
Gd564 N601 2.601 . S
Gd564 O608 2.545 . S
Gd564 O609 2.606 1_565 S
Gd564 O611 2.429 . S
Gd564 O612 2.545 1_565 S
Gd564 O613 2.412 . S
Gd564 O615 2.362 . S
Gd564 O616 2.324 1_565 S
Gd564 C623 2.828 . S
Gd565 N574 2.661 . S
Gd565 N578 2.601 . S
Gd565 O609 2.362 . S
Gd565 O610 2.324 1_545 S
Gd565 O614 2.545 . S
Gd565 O615 2.606 1_545 S
Gd565 O617 2.429 . S
Gd565 O618 2.545 . S
Gd565 O619 2.412 . S
Gd565 C632 2.828 . S
C566 C569 1.417 . S
C566 C571 1.431 . S
C566 C572 1.412 . S
C567 C570 1.437 . S
C567 C571 1.317 . S
C567 H586 0.929 . S
C568 C569 1.426 . S
C568 C570 1.413 . S
C568 N578 1.359 . S
C569 C566 1.417 . S
C569 C568 1.426 . S
C569 N574 1.350 . S
C570 C567 1.437 . S
C570 C568 1.413 . S
C570 C580 1.391 . S
C571 C566 1.431 . S
C571 C567 1.317 . S
C571 H582 0.930 . S
C572 C566 1.412 . S
C572 C573 1.355 . S
C572 H584 0.930 . S
C573 C572 1.355 . S
C573 C575 1.402 . S
C573 H585 0.930 1_545 S
N574 Gd565 2.661 . S
N574 C569 1.350 . S
N574 C575 1.307 . S
C575 C573 1.402 . S
C575 N574 1.307 . S
C575 H576 0.930 1_545 S
H576 C575 0.930 1_565 S
C577 N578 1.334 . S
C577 C579 1.394 . S
C577 H581 0.930 . S
N578 Gd565 2.601 . S
N578 C568 1.359 . S
N578 C577 1.334 . S
C579 C577 1.394 . S
C579 C580 1.359 . S
C579 H591 0.930 . S
C580 C570 1.391 . S
C580 C579 1.359 . S
C580 H592 0.929 . S
H581 C577 0.930 . S
H582 C571 0.930 . S
H583 C600 0.930 . S
H584 C572 0.930 . S
H585 C573 0.930 1_565 S
H586 C567 0.929 . S
H587 C605 0.930 . S
H588 C596 0.930 . S
H589 C597 0.930 . S
H590 C621 0.929 . S
H591 C579 0.930 . S
H592 C580 0.929 . S
H593 C622 0.930 . S
H594 C603 0.930 . S
N595 Gd564 2.661 . S
N595 C599 1.350 . S
N595 C600 1.307 1_565 S
C596 H588 0.930 . S
C596 C597 1.355 1_565 S
C596 C598 1.412 . S
C597 H589 0.930 . S
C597 C596 1.355 1_545 S
C597 C600 1.402 . S
C598 C596 1.412 . S
C598 C599 1.417 . S
C598 C622 1.431 . S
C599 N595 1.350 . S
C599 C598 1.417 . S
C599 C602 1.426 . S
C600 H583 0.930 . S
C600 N595 1.307 1_545 S
C600 C597 1.402 . S
N601 Gd564 2.601 . S
N601 C602 1.359 . S
N601 C605 1.334 . S
C602 C599 1.426 . S
C602 N601 1.359 . S
C602 C606 1.413 . S
C603 H594 0.930 . S
C603 C604 1.359 . S
C603 C605 1.394 . S
C604 C603 1.359 . S
C604 C606 1.391 . S
C604 H607 0.929 . S
C605 H587 0.930 . S
C605 N601 1.334 . S
C605 C603 1.394 . S
C606 C602 1.413 . S
C606 C604 1.391 . S
C606 C621 1.437 . S
H607 C604 0.929 . S
O608 Gd564 2.545 . S
O608 C623 1.258 . S
O609 Gd564 2.606 1_545 S
O609 Gd565 2.362 . S
O609 C620 1.284 . S
O610 Gd565 2.324 1_565 S
O610 C630 1.254 . S
O611 Gd564 2.429 . S
O611 C630 1.268 . S
O612 Gd564 2.545 1_545 S
O612 C620 1.250 . S
O613 Gd564 2.412 . S
O613 C623 1.252 . S
O614 Gd565 2.545 . S
O614 C632 1.258 . S
O615 Gd564 2.362 . S
O615 Gd565 2.606 1_565 S
O615 C631 1.284 . S
O616 Gd564 2.324 1_545 S
O616 C639 1.254 . S
O617 Gd565 2.429 . S
O617 C639 1.268 . S
O618 Gd565 2.545 . S
O618 C631 1.250 1_545 S
O619 Gd565 2.412 . S
O619 C632 1.252 . S
C620 O609 1.284 . S
C620 O612 1.250 . S
C621 H590 0.929 . S
C621 C606 1.437 . S
C621 C622 1.317 . S
C622 H593 0.930 . S
C622 C598 1.431 . S
C622 C621 1.317 . S
C623 Gd564 2.828 . S
C623 O608 1.258 . S
C623 O613 1.252 . S
C623 C624 1.497 . S
C624 C623 1.497 . S
C624 C625 1.395 . S
C624 C626 1.380 . S
C625 C624 1.395 . S
C625 C628 1.398 . S
C625 H640 0.930 . S
C626 C624 1.380 . S
C626 C627 1.391 . S
C626 H641 0.930 1_565 S
C627 C626 1.391 . S
C627 C629 1.387 . S
C628 C625 1.398 . S
C628 C629 1.380 . S
C628 H642 0.930 . S
C629 C627 1.387 . S
C629 C628 1.380 . S
C629 H643 0.930 . S
C630 O610 1.254 . S
C630 O611 1.268 . S
C631 O615 1.284 . S
C631 O618 1.250 1_565 S
C632 Gd565 2.828 . S
C632 O614 1.258 . S
C632 O619 1.252 . S
C632 C633 1.497 . S
C633 C632 1.497 . S
C633 C634 1.395 . S
C633 C635 1.380 . S
C634 C633 1.395 . S
C634 C637 1.398 . S
C634 H644 0.930 . S
C635 C633 1.380 . S
C635 C636 1.391 . S
C635 H645 0.930 . S
C636 C635 1.391 . S
C636 C638 1.387 . S
C637 C634 1.398 . S
C637 C638 1.380 . S
C637 H646 0.930 . S
C638 C636 1.387 . S
C638 C637 1.380 . S
C638 H647 0.930 . S
C639 O616 1.254 . S
C639 O617 1.268 . S
H640 C625 0.930 . S
H641 C626 0.930 1_545 S
H642 C628 0.930 . S
H643 C629 0.930 . S
H644 C634 0.930 . S
H645 C635 0.930 . S
H646 C637 0.930 . S
H647 C638 0.930 . S
Gd648 N679 2.661 . S
Gd648 N685 2.601 . S
Gd648 O692 2.545 . S
Gd648 O693 2.606 . S
Gd648 O695 2.429 . S
Gd648 O696 2.545 . S
Gd648 O697 2.412 . S
Gd648 O699 2.362 . S
Gd648 O700 2.324 . S
Gd648 C707 2.828 . S
Gd649 N658 2.661 . S
Gd649 N662 2.601 . S
Gd649 O693 2.362 . S
Gd649 O694 2.324 . S
Gd649 O698 2.545 . S
Gd649 O699 2.606 . S
Gd649 O701 2.429 . S
Gd649 O702 2.545 . S
Gd649 O703 2.412 . S
Gd649 C716 2.828 . S
C650 C653 1.417 . S
C650 C655 1.431 . S
C650 C656 1.412 . S
C651 C654 1.437 . S
C651 C655 1.317 . S
C651 H670 0.929 . S
C652 C653 1.426 . S
C652 C654 1.413 . S
C652 N662 1.359 . S
C653 C650 1.417 . S
C653 C652 1.426 . S
C653 N658 1.350 . S
C654 C651 1.437 . S
C654 C652 1.413 . S
C654 C664 1.391 . S
C655 C650 1.431 . S
C655 C651 1.317 . S
C655 H666 0.930 . S
C656 C650 1.412 . S
C656 C657 1.355 . S
C656 H668 0.930 . S
C657 C656 1.355 . S
C657 C659 1.402 . S
C657 H669 0.930 . S
N658 Gd649 2.661 . S
N658 C653 1.350 . S
N658 C659 1.307 . S
C659 C657 1.402 . S
C659 N658 1.307 . S
C659 H660 0.930 . S
H660 C659 0.930 . S
C661 N662 1.334 . S
C661 C663 1.394 . S
C661 H665 0.930 . S
N662 Gd649 2.601 . S
N662 C652 1.359 . S
N662 C661 1.334 . S
C663 C661 1.394 . S
C663 C664 1.359 . S
C663 H675 0.930 . S
C664 C654 1.391 . S
C664 C663 1.359 . S
C664 H676 0.929 . S
H665 C661 0.930 . S
H666 C655 0.930 . S
H667 C684 0.930 . S
H668 C656 0.930 . S
H669 C657 0.930 . S
H670 C651 0.929 . S
H671 C689 0.930 . S
H672 C680 0.930 . S
H673 C681 0.930 . S
H674 C705 0.929 . S
H675 C663 0.930 . S
H676 C664 0.929 . S
H677 C706 0.930 . S
H678 C687 0.930 . S
N679 Gd648 2.661 . S
N679 C683 1.350 . S
N679 C684 1.307 . S
C680 H672 0.930 . S
C680 C681 1.355 . S
C680 C682 1.412 . S
C681 H673 0.930 . S
C681 C680 1.355 . S
C681 C684 1.402 . S
C682 C680 1.412 . S
C682 C683 1.417 . S
C682 C706 1.431 . S
C683 N679 1.350 . S
C683 C682 1.417 . S
C683 C686 1.426 . S
C684 H667 0.930 . S
C684 N679 1.307 . S
C684 C681 1.402 . S
N685 Gd648 2.601 . S
N685 C686 1.359 . S
N685 C689 1.334 . S
C686 C683 1.426 . S
C686 N685 1.359 . S
C686 C690 1.413 . S
C687 H678 0.930 . S
C687 C688 1.359 . S
C687 C689 1.394 . S
C688 C687 1.359 . S
C688 C690 1.391 . S
C688 H691 0.929 . S
C689 H671 0.930 . S
C689 N685 1.334 . S
C689 C687 1.394 . S
C690 C686 1.413 . S
C690 C688 1.391 . S
C690 C705 1.437 . S
H691 C688 0.929 . S
O692 Gd648 2.545 . S
O692 C707 1.258 . S
O693 Gd648 2.606 . S
O693 Gd649 2.362 . S
O693 C704 1.284 . S
O694 Gd649 2.324 . S
O694 C714 1.254 . S
O695 Gd648 2.429 . S
O695 C714 1.268 . S
O696 Gd648 2.545 . S
O696 C704 1.250 . S
O697 Gd648 2.412 . S
O697 C707 1.252 . S
O698 Gd649 2.545 . S
O698 C716 1.258 . S
O699 Gd648 2.362 . S
O699 Gd649 2.606 . S
O699 C715 1.284 . S
O700 Gd648 2.324 . S
O700 C723 1.254 . S
O701 Gd649 2.429 . S
O701 C723 1.268 . S
O702 Gd649 2.545 . S
O702 C715 1.250 . S
O703 Gd649 2.412 . S
O703 C716 1.252 . S
C704 O693 1.284 . S
C704 O696 1.250 . S
C705 H674 0.929 . S
C705 C690 1.437 . S
C705 C706 1.317 . S
C706 H677 0.930 . S
C706 C682 1.431 . S
C706 C705 1.317 . S
C707 Gd648 2.828 . S
C707 O692 1.258 . S
C707 O697 1.252 . S
C707 C708 1.497 . S
C708 C707 1.497 . S
C708 C709 1.395 . S
C708 C710 1.380 . S
C709 C708 1.395 . S
C709 C712 1.398 . S
C709 H724 0.930 . S
C710 C708 1.380 . S
C710 C711 1.391 . S
C710 H725 0.930 . S
C711 C710 1.391 . S
C711 C713 1.387 . S
C712 C709 1.398 . S
C712 C713 1.380 . S
C712 H726 0.930 . S
C713 C711 1.387 . S
C713 C712 1.380 . S
C713 H727 0.930 . S
C714 O694 1.254 . S
C714 O695 1.268 . S
C715 O699 1.284 . S
C715 O702 1.250 . S
C716 Gd649 2.828 . S
C716 O698 1.258 . S
C716 O703 1.252 . S
C716 C717 1.497 . S
C717 C716 1.497 . S
C717 C718 1.395 . S
C717 C719 1.380 . S
C718 C717 1.395 . S
C718 C721 1.398 . S
C718 H728 0.930 . S
C719 C717 1.380 . S
C719 C720 1.391 . S
C719 H729 0.930 . S
C720 C719 1.391 . S
C720 C722 1.387 . S
C721 C718 1.398 . S
C721 C722 1.380 . S
C721 H730 0.930 . S
C722 C720 1.387 . S
C722 C721 1.380 . S
C722 H731 0.930 . S
C723 O700 1.254 . S
C723 O701 1.268 . S
H724 C709 0.930 . S
H725 C710 0.930 . S
H726 C712 0.930 . S
H727 C713 0.930 . S
H728 C718 0.930 . S
H729 C719 0.930 . S
H730 C721 0.930 . S
H731 C722 0.930 . S
Gd732 N763 2.661 . S
Gd732 N769 2.601 . S
Gd732 O776 2.545 . S
Gd732 O777 2.601 1_655 S
Gd732 O779 2.429 1_655 S
Gd732 O780 2.545 . S
Gd732 O781 2.412 . S
Gd732 O783 2.362 1_655 S
Gd732 O784 2.324 . S
Gd732 C791 2.828 . S
Gd733 N742 2.661 . S
Gd733 N746 2.601 . S
Gd733 O777 2.371 . S
Gd733 O778 2.324 . S
Gd733 O782 2.545 . S
Gd733 O783 2.606 . S
Gd733 O785 2.429 1_455 S
Gd733 O786 2.545 . S
Gd733 O787 2.412 . S
Gd733 C800 2.828 . S
C734 C737 1.417 . S
C734 C739 1.431 . S
C734 C740 1.412 . S
C735 C738 1.437 . S
C735 C739 1.317 . S
C735 H754 0.929 . S
C736 C737 1.426 . S
C736 C738 1.413 . S
C736 N746 1.359 . S
C737 C734 1.417 . S
C737 C736 1.426 . S
C737 N742 1.350 . S
C738 C735 1.437 . S
C738 C736 1.413 . S
C738 C748 1.391 . S
C739 C734 1.431 . S
C739 C735 1.317 . S
C739 H750 0.930 . S
C740 C734 1.412 . S
C740 C741 1.355 . S
C740 H752 0.930 . S
C741 C740 1.355 . S
C741 C743 1.402 . S
C741 H753 0.930 . S
N742 Gd733 2.661 . S
N742 C737 1.350 . S
N742 C743 1.307 . S
C743 C741 1.402 . S
C743 N742 1.307 . S
C743 H744 0.930 . S
H744 C743 0.930 . S
C745 N746 1.334 . S
C745 C747 1.397 . S
C745 H749 0.930 1_455 S
N746 Gd733 2.601 . S
N746 C736 1.359 . S
N746 C745 1.334 . S
C747 C745 1.397 . S
C747 C748 1.374 . S
C747 H759 0.914 1_455 S
C748 C738 1.391 . S
C748 C747 1.374 . S
C748 H760 0.929 . S
H749 C745 0.930 1_655 S
H750 C739 0.930 . S
H751 C768 0.930 . S
H752 C740 0.930 . S
H753 C741 0.930 . S
H754 C735 0.929 . S
H755 C773 0.930 . S
H756 C764 0.930 . S
H757 C765 0.930 . S
H758 C789 0.929 . S
H759 C747 0.914 1_655 S
H760 C748 0.929 . S
H761 C790 0.930 . S
H762 C771 0.930 . S
N763 Gd732 2.661 . S
N763 C767 1.350 . S
N763 C768 1.307 . S
C764 H756 0.930 . S
C764 C765 1.355 . S
C764 C766 1.412 . S
C765 H757 0.930 . S
C765 C764 1.355 . S
C765 C768 1.402 . S
C766 C764 1.412 . S
C766 C767 1.417 . S
C766 C790 1.431 . S
C767 N763 1.350 . S
C767 C766 1.417 . S
C767 C770 1.426 . S
C768 H751 0.930 . S
C768 N763 1.307 . S
C768 C765 1.402 . S
N769 Gd732 2.601 . S
N769 C770 1.359 . S
N769 C773 1.334 1_655 S
C770 C767 1.426 . S
C770 N769 1.359 . S
C770 C774 1.413 . S
C771 H762 0.930 . S
C771 C772 1.359 1_455 S
C771 C773 1.394 . S
C772 C771 1.359 1_655 S
C772 C774 1.391 . S
C772 H775 0.929 . S
C773 H755 0.930 . S
C773 N769 1.334 1_455 S
C773 C771 1.394 . S
C774 C770 1.413 . S
C774 C772 1.391 . S
C774 C789 1.437 . S
H775 C772 0.929 . S
O776 Gd732 2.545 . S
O776 C791 1.258 . S
O777 Gd732 2.601 1_455 S
O777 Gd733 2.371 . S
O777 C788 1.278 1_455 S
O778 Gd733 2.324 . S
O778 C798 1.254 . S
O779 Gd732 2.429 1_455 S
O779 C798 1.268 . S
O780 Gd732 2.545 . S
O780 C788 1.250 . S
O781 Gd732 2.412 . S
O781 C791 1.252 . S
O782 Gd733 2.545 . S
O782 C800 1.258 . S
O783 Gd732 2.362 1_455 S
O783 Gd733 2.606 . S
O783 C799 1.284 . S
O784 Gd732 2.324 . S
O784 C807 1.254 . S
O785 Gd733 2.429 1_655 S
O785 C807 1.268 . S
O786 Gd733 2.545 . S
O786 C799 1.250 . S
O787 Gd733 2.412 . S
O787 C800 1.252 . S
C788 O777 1.278 1_655 S
C788 O780 1.250 . S
C789 H758 0.929 . S
C789 C774 1.437 . S
C789 C790 1.317 . S
C790 H761 0.930 . S
C790 C766 1.431 . S
C790 C789 1.317 . S
C791 Gd732 2.828 . S
C791 O776 1.258 . S
C791 O781 1.252 . S
C791 C792 1.497 . S
C792 C791 1.497 . S
C792 C793 1.395 . S
C792 C794 1.380 . S
C793 C792 1.395 . S
C793 C796 1.398 . S
C793 H808 0.930 . S
C794 C792 1.380 . S
C794 C795 1.391 . S
C794 H809 0.930 . S
C795 C794 1.391 . S
C795 C797 1.387 . S
C796 C793 1.398 . S
C796 C797 1.380 . S
C796 H810 0.930 . S
C797 C795 1.387 . S
C797 C796 1.380 . S
C797 H811 0.930 . S
C798 O778 1.254 . S
C798 O779 1.268 . S
C799 O783 1.284 . S
C799 O786 1.250 . S
C800 Gd733 2.828 . S
C800 O782 1.258 . S
C800 O787 1.252 . S
C800 C801 1.497 . S
C801 C800 1.497 . S
C801 C802 1.395 . S
C801 C803 1.380 . S
C802 C801 1.395 . S
C802 C805 1.398 . S
C802 H812 0.930 . S
C803 C801 1.380 . S
C803 C804 1.391 . S
C803 H813 0.930 . S
C804 C803 1.391 . S
C804 C806 1.387 . S
C805 C802 1.398 . S
C805 C806 1.380 . S
C805 H814 0.930 . S
C806 C804 1.387 . S
C806 C805 1.380 . S
C806 H815 0.930 . S
C807 O784 1.254 . S
C807 O785 1.268 . S
H808 C793 0.930 . S
H809 C794 0.930 . S
H810 C796 0.930 . S
H811 C797 0.930 . S
H812 C802 0.930 . S
H813 C803 0.930 . S
H814 C805 0.930 . S
H815 C806 0.930 . S
H816 C822 0.930 . S
H817 C826 0.930 . S
H818 C831 0.929 . S
H819 C829 0.929 . S
H820 C824 0.929 . S
H821 C830 0.929 . S
C822 H816 0.930 . S
C822 C823 1.367 . S
C822 C830 1.378 . S
C823 C822 1.367 . S
C823 C831 1.433 . S
C824 H820 0.929 . S
C824 C826 1.378 . S
C824 C828 1.350 . S
C825 C828 1.463 . S
C825 C830 1.350 . S
C825 N833 1.427 . S
C826 H817 0.930 . S
C826 C824 1.378 . S
C826 C827 1.367 . S
C827 C826 1.367 . S
C827 C829 1.433 . S
C828 C824 1.350 . S
C828 C825 1.463 . S
C828 N832 1.427 . S
C829 H819 0.929 . S
C829 C827 1.433 . S
C829 N832 1.384 . S
C830 H821 0.929 . S
C830 C822 1.378 . S
C830 C825 1.350 . S
C831 H818 0.929 . S
C831 C823 1.433 . S
C831 N833 1.384 . S
N832 C828 1.427 . S
N832 C829 1.384 . S
N833 C825 1.427 . S
N833 C831 1.384 . S
H834 C840 0.930 . S
H835 C844 0.930 . S
H836 C849 0.929 . S
H837 C847 0.929 . S
H838 C842 0.929 . S
H839 C848 0.929 . S
C840 H834 0.930 . S
C840 C841 1.367 . S
C840 C848 1.378 . S
C841 C840 1.367 . S
C841 C849 1.433 . S
C842 H838 0.929 . S
C842 C844 1.378 . S
C842 C846 1.350 . S
C843 C846 1.463 . S
C843 C848 1.350 . S
C843 N851 1.427 . S
C844 H835 0.930 . S
C844 C842 1.378 . S
C844 C845 1.367 . S
C845 C844 1.367 . S
C845 C847 1.433 . S
C846 C842 1.350 . S
C846 C843 1.463 . S
C846 N850 1.427 . S
C847 H837 0.929 . S
C847 C845 1.433 . S
C847 N850 1.384 . S
C848 H839 0.929 . S
C848 C840 1.378 . S
C848 C843 1.350 . S
C849 H836 0.929 . S
C849 C841 1.433 . S
C849 N851 1.384 . S
N850 C846 1.427 . S
N850 C847 1.384 . S
N851 C843 1.427 . S
N851 C849 1.384 . S
H852 C858 0.930 . S
H853 C862 0.930 . S
H854 C867 0.929 . S
H855 C865 0.929 . S
H856 C860 0.929 . S
H857 C866 0.929 . S
C858 H852 0.930 . S
C858 C859 1.367 . S
C858 C866 1.378 . S
C859 C858 1.367 . S
C859 C867 1.433 . S
C860 H856 0.929 . S
C860 C862 1.378 . S
C860 C864 1.350 . S
C861 C864 1.463 . S
C861 C866 1.350 . S
C861 N869 1.427 . S
C862 H853 0.930 . S
C862 C860 1.378 . S
C862 C863 1.367 . S
C863 C862 1.367 . S
C863 C865 1.433 . S
C864 C860 1.350 . S
C864 C861 1.463 . S
C864 N868 1.427 . S
C865 H855 0.929 . S
C865 C863 1.433 . S
C865 N868 1.384 . S
C866 H857 0.929 . S
C866 C858 1.378 . S
C866 C861 1.350 . S
C867 H854 0.929 . S
C867 C859 1.433 . S
C867 N869 1.384 . S
N868 C864 1.427 . S
N868 C865 1.384 . S
N869 C861 1.427 . S
N869 C867 1.384 . S
H870 C876 0.930 . S
H871 C880 0.930 . S
H872 C885 0.929 . S
H873 C883 0.929 . S
H874 C878 0.929 . S
H875 C884 0.929 . S
C876 H870 0.930 . S
C876 C877 1.367 . S
C876 C884 1.378 . S
C877 C876 1.367 . S
C877 C885 1.433 . S
C878 H874 0.929 . S
C878 C880 1.378 . S
C878 C882 1.350 . S
C879 C882 1.463 . S
C879 C884 1.350 . S
C879 N887 1.427 . S
C880 H871 0.930 . S
C880 C878 1.378 . S
C880 C881 1.367 . S
C881 C880 1.367 . S
C881 C883 1.433 . S
C882 C878 1.350 . S
C882 C879 1.463 . S
C882 N886 1.427 . S
C883 H873 0.929 . S
C883 C881 1.433 . S
C883 N886 1.384 . S
C884 H875 0.929 . S
C884 C876 1.378 . S
C884 C879 1.350 . S
C885 H872 0.929 . S
C885 C877 1.433 . S
C885 N887 1.384 . S
N886 C882 1.427 . S
N886 C883 1.384 . S
N887 C879 1.427 . S
N887 C885 1.384 . S
H888 C894 0.930 . S
H889 C898 0.930 . S
H890 C903 0.929 . S
H891 C901 0.929 . S
H892 C896 0.929 1_545 S
H893 C902 0.929 . S
C894 H888 0.930 . S
C894 C895 1.367 . S
C894 C902 1.378 1_554 S
C895 C894 1.367 . S
C895 C903 1.433 . S
C896 H892 0.929 1_565 S
C896 C898 1.378 1_565 S
C896 C900 1.350 . S
C897 C900 1.463 . S
C897 C902 1.350 . S
C897 N905 1.427 . S
C898 H889 0.930 . S
C898 C896 1.378 1_545 S
C898 C899 1.367 1_545 S
C899 C898 1.367 1_565 S
C899 C901 1.433 . S
C900 C896 1.350 . S
C900 C897 1.463 . S
C900 N904 1.427 . S
C901 H891 0.929 . S
C901 C899 1.433 . S
C901 N904 1.384 . S
C902 H893 0.929 . S
C902 C894 1.378 1_556 S
C902 C897 1.350 . S
C903 H890 0.929 . S
C903 C895 1.433 . S
C903 N905 1.384 1_554 S
N904 C900 1.427 . S
N904 C901 1.384 . S
N905 C897 1.427 . S
N905 C903 1.384 1_556 S
H906 C912 0.930 . S
H907 C916 0.930 . S
H908 C921 0.929 . S
H909 C919 0.929 . S
H910 C914 0.929 . S
H911 C920 0.929 . S
C912 H906 0.930 . S
C912 C913 1.367 . S
C912 C920 1.378 . S
C913 C912 1.367 . S
C913 C921 1.433 . S
C914 H910 0.929 . S
C914 C916 1.378 . S
C914 C918 1.350 . S
C915 C918 1.463 . S
C915 C920 1.350 1_556 S
C915 N923 1.427 . S
C916 H907 0.930 . S
C916 C914 1.378 . S
C916 C917 1.367 . S
C917 C916 1.367 . S
C917 C919 1.433 . S
C918 C914 1.350 . S
C918 C915 1.463 . S
C918 N922 1.427 . S
C919 H909 0.929 . S
C919 C917 1.433 . S
C919 N922 1.384 . S
C920 H911 0.929 . S
C920 C912 1.378 . S
C920 C915 1.350 1_554 S
C921 H908 0.929 . S
C921 C913 1.433 . S
C921 N923 1.384 1_554 S
N922 C918 1.427 . S
N922 C919 1.384 . S
N923 C915 1.427 . S
N923 C921 1.384 1_556 S
H924 C930 0.930 . S
H925 C934 0.930 . S
H926 C939 0.929 . S
H927 C937 0.929 . S
H928 C932 0.929 . S
H929 C938 0.929 . S
C930 H924 0.930 . S
C930 C931 1.367 . S
C930 C938 1.378 1_554 S
C931 C930 1.367 . S
C931 C939 1.433 . S
C932 H928 0.929 . S
C932 C934 1.378 . S
C932 C936 1.350 . S
C933 C936 1.463 . S
C933 C938 1.350 . S
C933 N941 1.427 . S
C934 H925 0.930 . S
C934 C932 1.378 . S
C934 C935 1.367 . S
C935 C934 1.367 . S
C935 C937 1.433 . S
C936 C932 1.350 . S
C936 C933 1.463 . S
C936 N940 1.427 . S
C937 H927 0.929 . S
C937 C935 1.433 . S
C937 N940 1.384 . S
C938 H929 0.929 . S
C938 C930 1.378 1_556 S
C938 C933 1.350 . S
C939 H926 0.929 . S
C939 C931 1.433 . S
C939 N941 1.384 1_554 S
N940 C936 1.427 . S
N940 C937 1.384 . S
N941 C933 1.427 . S
N941 C939 1.384 1_556 S
H942 C948 0.930 . S
H943 C952 0.930 1_455 S
H944 C957 0.929 . S
H945 C955 0.929 . S
H946 C950 0.929 1_455 S
H947 C956 0.929 . S
C948 H942 0.930 . S
C948 C949 1.367 . S
C948 C956 1.378 1_554 S
C949 C948 1.367 . S
C949 C957 1.433 . S
C950 H946 0.929 1_655 S
C950 C952 1.378 . S
C950 C954 1.350 . S
C951 C954 1.463 . S
C951 C956 1.350 . S
C951 N959 1.427 . S
C952 H943 0.930 1_655 S
C952 C950 1.378 . S
C952 C953 1.367 . S
C953 C952 1.367 . S
C953 C955 1.433 . S
C954 C950 1.350 . S
C954 C951 1.463 . S
C954 N958 1.427 . S
C955 H945 0.929 . S
C955 C953 1.433 . S
C955 N958 1.384 . S
C956 H947 0.929 . S
C956 C948 1.378 1_556 S
C956 C951 1.350 . S
C957 H944 0.929 . S
C957 C949 1.433 . S
C957 N959 1.384 1_554 S
N958 C954 1.427 . S
N958 C955 1.384 . S
N959 C951 1.427 . S
N959 C957 1.384 1_556 S
H960 C966 0.930 . S
H961 C970 0.930 . S
H962 C975 0.929 . S
H963 C973 0.929 . S
H964 C968 0.929 . S
H965 C974 0.929 . S
C966 H960 0.930 . S
C966 C967 1.367 . S
C966 C974 1.378 . S
C967 C966 1.367 . S
C967 C975 1.433 . S
C968 H964 0.929 . S
C968 C970 1.378 1_455 S
C968 C972 1.350 . S
C969 C972 1.463 . S
C969 C974 1.350 . S
C969 N977 1.427 . S
C970 H961 0.930 . S
C970 C968 1.378 1_655 S
C970 C971 1.367 1_655 S
C971 C970 1.367 1_455 S
C971 C973 1.433 . S
C972 C968 1.350 . S
C972 C969 1.463 . S
C972 N976 1.427 . S
C973 H963 0.929 . S
C973 C971 1.433 . S
C973 N976 1.384 . S
C974 H965 0.929 . S
C974 C966 1.378 . S
C974 C969 1.350 . S
C975 H962 0.929 . S
C975 C967 1.433 . S
C975 N977 1.384 . S
N976 C972 1.427 . S
N976 C973 1.384 . S
N977 C969 1.427 . S
N977 C975 1.384 . S
H978 C984 0.930 . S
H979 C988 0.905 1_565 S
H980 C993 0.929 . S
H981 C991 0.929 . S
H982 C986 0.929 . S
H983 C992 0.929 . S
C984 H978 0.930 . S
C984 C985 1.367 . S
C984 C992 1.378 . S
C985 C984 1.367 . S
C985 C993 1.433 . S
C986 H982 0.929 . S
C986 C988 1.406 . S
C986 C990 1.350 . S
C987 C990 1.463 . S
C987 C992 1.350 . S
C987 N995 1.427 . S
C988 H979 0.905 1_545 S
C988 C986 1.406 . S
C988 C989 1.366 . S
C989 C988 1.366 . S
C989 C991 1.443 . S
C990 C986 1.350 . S
C990 C987 1.463 . S
C990 N994 1.427 . S
C991 H981 0.929 . S
C991 C989 1.443 . S
C991 N994 1.384 . S
C992 H983 0.929 . S
C992 C984 1.378 . S
C992 C987 1.350 . S
C993 H980 0.929 . S
C993 C985 1.433 . S
C993 N995 1.384 . S
N994 C990 1.427 . S
N994 C991 1.384 . S
N995 C987 1.427 . S
N995 C993 1.384 . S
H996 C1002 0.930 . S
H997 C1006 0.930 . S
H998 C1011 0.929 . S
H999 C1009 0.929 . S
H1000 C1004 0.929 . S
H1001 C1010 0.929 . S
C1002 H996 0.930 . S
C1002 C1003 1.367 . S
C1002 C1010 1.378 . S
C1003 C1002 1.367 . S
C1003 C1011 1.433 . S
C1004 H1000 0.929 . S
C1004 C1006 1.378 . S
C1004 C1008 1.350 . S
C1005 C1008 1.463 . S
C1005 C1010 1.350 . S
C1005 N1013 1.427 . S
C1006 H997 0.930 . S
C1006 C1004 1.378 . S
C1006 C1007 1.367 . S
C1007 C1006 1.367 . S
C1007 C1009 1.433 . S
C1008 C1004 1.350 . S
C1008 C1005 1.463 . S
C1008 N1012 1.427 . S
C1009 H999 0.929 . S
C1009 C1007 1.433 . S
C1009 N1012 1.384 . S
C1010 H1001 0.929 . S
C1010 C1002 1.378 . S
C1010 C1005 1.350 . S
C1011 H998 0.929 . S
C1011 C1003 1.433 . S
C1011 N1013 1.384 . S
N1012 C1008 1.427 . S
N1012 C1009 1.384 . S
N1013 C1005 1.427 . S
N1013 C1011 1.384 . S
H1014 C1020 0.930 . S
H1015 C1024 0.930 . S
H1016 C1029 0.929 . S
H1017 C1027 0.929 . S
H1018 C1022 0.929 . S
H1019 C1028 0.929 . S
C1020 H1014 0.930 . S
C1020 C1021 1.367 . S
C1020 C1028 1.378 . S
C1021 C1020 1.367 . S
C1021 C1029 1.433 . S
C1022 H1018 0.929 . S
C1022 C1024 1.378 . S
C1022 C1026 1.350 . S
C1023 C1026 1.463 . S
C1023 C1028 1.350 . S
C1023 N1031 1.427 . S
C1024 H1015 0.930 . S
C1024 C1022 1.378 . S
C1024 C1025 1.367 . S
C1025 C1024 1.367 . S
C1025 C1027 1.433 . S
C1026 C1022 1.350 . S
C1026 C1023 1.463 . S
C1026 N1030 1.427 . S
C1027 H1017 0.929 . S
C1027 C1025 1.433 . S
C1027 N1030 1.384 . S
C1028 H1019 0.929 . S
C1028 C1020 1.378 . S
C1028 C1023 1.350 . S
C1029 H1016 0.929 . S
C1029 C1021 1.433 . S
C1029 N1031 1.384 . S
N1030 C1026 1.427 . S
N1030 C1027 1.384 . S
N1031 C1023 1.427 . S
N1031 C1029 1.384 . S
H1032 C1038 0.930 . S
H1033 C1042 0.930 . S
H1034 C1047 0.929 . S
H1035 C1045 0.929 . S
H1036 C1040 0.929 . S
H1037 C1046 0.929 1_554 S
C1038 H1032 0.930 . S
C1038 C1039 1.367 1_554 S
C1038 C1046 1.378 1_554 S
C1039 C1038 1.367 1_556 S
C1039 C1047 1.433 . S
C1040 H1036 0.929 . S
C1040 C1042 1.378 1_655 S
C1040 C1044 1.350 . S
C1041 C1044 1.463 . S
C1041 C1046 1.350 . S
C1041 N1049 1.427 . S
C1042 H1033 0.930 . S
C1042 C1040 1.378 1_455 S
C1042 C1043 1.367 . S
C1043 C1042 1.367 . S
C1043 C1045 1.433 1_455 S
C1044 C1040 1.350 . S
C1044 C1041 1.463 . S
C1044 N1048 1.427 . S
C1045 H1035 0.929 . S
C1045 C1043 1.433 1_655 S
C1045 N1048 1.384 . S
C1046 H1037 0.929 1_556 S
C1046 C1038 1.378 1_556 S
C1046 C1041 1.350 . S
C1047 H1034 0.929 . S
C1047 C1039 1.433 . S
C1047 N1049 1.384 . S
N1048 C1044 1.427 . S
N1048 C1045 1.384 . S
N1049 C1041 1.427 . S
N1049 C1047 1.384 . S
H1050 C1056 0.930 . S
H1051 C1060 0.930 . S
H1052 C1065 0.929 . S
H1053 C1063 0.929 . S
H1054 C1058 0.929 . S
H1055 C1064 0.923 1_554 S
C1056 H1050 0.930 . S
C1056 C1057 1.367 1_554 S
C1056 C1064 1.373 1_554 S
C1057 C1056 1.367 1_556 S
C1057 C1065 1.433 . S
C1058 H1054 0.929 . S
C1058 C1060 1.378 . S
C1058 C1062 1.350 . S
C1059 C1062 1.463 . S
C1059 C1064 1.360 . S
C1059 N1067 1.427 . S
C1060 H1051 0.930 . S
C1060 C1058 1.378 . S
C1060 C1061 1.367 1_565 S
C1061 C1060 1.367 1_545 S
C1061 C1063 1.433 . S
C1062 C1058 1.350 . S
C1062 C1059 1.463 . S
C1062 N1066 1.427 1_565 S
C1063 H1053 0.929 . S
C1063 C1061 1.433 . S
C1063 N1066 1.384 . S
C1064 H1055 0.923 1_556 S
C1064 C1056 1.373 1_556 S
C1064 C1059 1.360 . S
C1065 H1052 0.929 . S
C1065 C1057 1.433 . S
C1065 N1067 1.384 . S
N1066 C1062 1.427 1_545 S
N1066 C1063 1.384 . S
N1067 C1059 1.427 . S
N1067 C1065 1.384 . S
H1068 C1074 0.930 . S
H1069 C1078 0.930 . S
H1070 C1083 0.929 . S
H1071 C1081 0.929 . S
H1072 C1076 0.929 . S
H1073 C1082 0.929 . S
C1074 H1068 0.930 . S
C1074 C1075 1.367 1_554 S
C1074 C1082 1.378 . S
C1075 C1074 1.367 1_556 S
C1075 C1083 1.433 . S
C1076 H1072 0.929 . S
C1076 C1078 1.378 . S
C1076 C1080 1.350 . S
C1077 C1080 1.463 . S
C1077 C1082 1.350 1_556 S
C1077 N1085 1.427 . S
C1078 H1069 0.930 . S
C1078 C1076 1.378 . S
C1078 C1079 1.367 . S
C1079 C1078 1.367 . S
C1079 C1081 1.433 . S
C1080 C1076 1.350 . S
C1080 C1077 1.463 . S
C1080 N1084 1.427 . S
C1081 H1071 0.929 . S
C1081 C1079 1.433 . S
C1081 N1084 1.384 . S
C1082 H1073 0.929 . S
C1082 C1074 1.378 . S
C1082 C1077 1.350 1_554 S
C1083 H1070 0.929 . S
C1083 C1075 1.433 . S
C1083 N1085 1.384 . S
N1084 C1080 1.427 . S
N1084 C1081 1.384 . S
N1085 C1077 1.427 . S
N1085 C1083 1.384 . S
H1086 C1092 0.930 . S
H1087 C1096 0.930 . S
H1088 C1101 0.929 . S
H1089 C1099 0.929 . S
H1090 C1094 0.929 . S
H1091 C1100 0.929 1_554 S
C1092 H1086 0.930 . S
C1092 C1093 1.367 1_554 S
C1092 C1100 1.378 1_554 S
C1093 C1092 1.367 1_556 S
C1093 C1101 1.433 . S
C1094 H1090 0.929 . S
C1094 C1096 1.378 . S
C1094 C1098 1.350 . S
C1095 C1098 1.463 . S
C1095 C1100 1.350 . S
C1095 N1103 1.427 . S
C1096 H1087 0.930 . S
C1096 C1094 1.378 . S
C1096 C1097 1.367 . S
C1097 C1096 1.367 . S
C1097 C1099 1.433 . S
C1098 C1094 1.350 . S
C1098 C1095 1.463 . S
C1098 N1102 1.427 . S
C1099 H1089 0.929 . S
C1099 C1097 1.433 . S
C1099 N1102 1.384 . S
C1100 H1091 0.929 1_556 S
C1100 C1092 1.378 1_556 S
C1100 C1095 1.350 . S
C1101 H1088 0.929 . S
C1101 C1093 1.433 . S
C1101 N1103 1.384 . S
N1102 C1098 1.427 . S
N1102 C1099 1.384 . S
N1103 C1095 1.427 . S
N1103 C1101 1.384 . S
H1104 C1110 0.930 . S
H1105 C1114 0.930 . S
H1106 C1119 0.929 . S
H1107 C1117 0.929 . S
H1108 C1112 0.929 . S
H1109 C1118 0.929 . S
C1110 H1104 0.930 . S
C1110 C1111 1.367 . S
C1110 C1118 1.378 . S
C1111 C1110 1.367 . S
C1111 C1119 1.433 . S
C1112 H1108 0.929 . S
C1112 C1114 1.378 . S
C1112 C1116 1.350 . S
C1113 C1116 1.463 . S
C1113 C1118 1.350 . S
C1113 N1121 1.427 . S
C1114 H1105 0.930 . S
C1114 C1112 1.378 . S
C1114 C1115 1.367 . S
C1115 C1114 1.367 . S
C1115 C1117 1.433 . S
C1116 C1112 1.350 . S
C1116 C1113 1.463 . S
C1116 N1120 1.427 . S
C1117 H1107 0.929 . S
C1117 C1115 1.433 . S
C1117 N1120 1.384 . S
C1118 H1109 0.929 . S
C1118 C1110 1.378 . S
C1118 C1113 1.350 . S
C1119 H1106 0.929 . S
C1119 C1111 1.433 . S
C1119 N1121 1.384 . S
N1120 C1116 1.427 . S
N1120 C1117 1.384 . S
N1121 C1113 1.427 . S
N1121 C1119 1.384 . S
H1122 C1128 0.930 . S
H1123 C1132 0.930 . S
H1124 C1137 0.929 . S
H1125 C1135 0.929 . S
H1126 C1130 0.929 . S
H1127 C1136 0.929 . S
C1128 H1122 0.930 . S
C1128 C1129 1.367 . S
C1128 C1136 1.378 . S
C1129 C1128 1.367 . S
C1129 C1137 1.433 . S
C1130 H1126 0.929 . S
C1130 C1132 1.378 . S
C1130 C1134 1.350 . S
C1131 C1134 1.463 . S
C1131 C1136 1.350 . S
C1131 N1139 1.427 . S
C1132 H1123 0.930 . S
C1132 C1130 1.378 . S
C1132 C1133 1.367 . S
C1133 C1132 1.367 . S
C1133 C1135 1.433 . S
C1134 C1130 1.350 . S
C1134 C1131 1.463 . S
C1134 N1138 1.427 . S
C1135 H1125 0.929 . S
C1135 C1133 1.433 . S
C1135 N1138 1.384 . S
C1136 H1127 0.929 . S
C1136 C1128 1.378 . S
C1136 C1131 1.350 . S
C1137 H1124 0.929 . S
C1137 C1129 1.433 . S
C1137 N1139 1.384 . S
N1138 C1134 1.427 . S
N1138 C1135 1.384 . S
N1139 C1131 1.427 . S
N1139 C1137 1.384 . S
H1140 C1146 0.930 . S
H1141 C1150 0.930 . S
H1142 C1155 0.929 . S
H1143 C1153 0.929 . S
H1144 C1148 0.929 . S
H1145 C1154 0.929 . S
C1146 H1140 0.930 . S
C1146 C1147 1.367 . S
C1146 C1154 1.378 . S
C1147 C1146 1.367 . S
C1147 C1155 1.433 . S
C1148 H1144 0.929 . S
C1148 C1150 1.378 . S
C1148 C1152 1.350 . S
C1149 C1152 1.463 . S
C1149 C1154 1.350 . S
C1149 N1157 1.427 . S
C1150 H1141 0.930 . S
C1150 C1148 1.378 . S
C1150 C1151 1.367 . S
C1151 C1150 1.367 . S
C1151 C1153 1.433 . S
C1152 C1148 1.350 . S
C1152 C1149 1.463 . S
C1152 N1156 1.427 . S
C1153 H1143 0.929 . S
C1153 C1151 1.433 . S
C1153 N1156 1.384 . S
C1154 H1145 0.929 . S
C1154 C1146 1.378 . S
C1154 C1149 1.350 . S
C1155 H1142 0.929 . S
C1155 C1147 1.433 . S
C1155 N1157 1.384 . S
N1156 C1152 1.427 . S
N1156 C1153 1.384 . S
N1157 C1149 1.427 . S
N1157 C1155 1.384 . S
H1158 C1164 0.930 . S
H1159 C1168 0.930 . S
H1160 C1173 0.929 . S
H1161 C1171 0.929 . S
H1162 C1166 0.929 . S
H1163 C1172 0.929 . S
C1164 H1158 0.930 . S
C1164 C1165 1.367 . S
C1164 C1172 1.378 . S
C1165 C1164 1.367 . S
C1165 C1173 1.433 . S
C1166 H1162 0.929 . S
C1166 C1168 1.378 . S
C1166 C1170 1.350 . S
C1167 C1170 1.463 . S
C1167 C1172 1.350 . S
C1167 N1175 1.427 . S
C1168 H1159 0.930 . S
C1168 C1166 1.378 . S
C1168 C1169 1.367 . S
C1169 C1168 1.367 . S
C1169 C1171 1.433 . S
C1170 C1166 1.350 . S
C1170 C1167 1.463 . S
C1170 N1174 1.427 . S
C1171 H1161 0.929 . S
C1171 C1169 1.433 . S
C1171 N1174 1.384 . S
C1172 H1163 0.929 . S
C1172 C1164 1.378 . S
C1172 C1167 1.350 . S
C1173 H1160 0.929 . S
C1173 C1165 1.433 . S
C1173 N1175 1.384 . S
N1174 C1170 1.427 . S
N1174 C1171 1.384 . S
N1175 C1167 1.427 . S
N1175 C1173 1.384 . S
H1176 C1182 0.930 . S
H1177 C1186 0.930 . S
H1178 C1191 0.929 . S
H1179 C1189 0.929 . S
H1180 C1184 0.929 . S
H1181 C1190 0.929 . S
C1182 H1176 0.930 . S
C1182 C1183 1.367 . S
C1182 C1190 1.378 . S
C1183 C1182 1.367 . S
C1183 C1191 1.433 . S
C1184 H1180 0.929 . S
C1184 C1186 1.378 . S
C1184 C1188 1.350 . S
C1185 C1188 1.463 . S
C1185 C1190 1.350 . S
C1185 N1193 1.427 . S
C1186 H1177 0.930 . S
C1186 C1184 1.378 . S
C1186 C1187 1.367 . S
C1187 C1186 1.367 . S
C1187 C1189 1.433 . S
C1188 C1184 1.350 . S
C1188 C1185 1.463 . S
C1188 N1192 1.427 . S
C1189 H1179 0.929 . S
C1189 C1187 1.433 . S
C1189 N1192 1.384 . S
C1190 H1181 0.929 . S
C1190 C1182 1.378 . S
C1190 C1185 1.350 . S
C1191 H1178 0.929 . S
C1191 C1183 1.433 . S
C1191 N1193 1.384 . S
N1192 C1188 1.427 . S
N1192 C1189 1.384 . S
N1193 C1185 1.427 . S
N1193 C1191 1.384 . S
H1194 C1200 0.930 . S
H1195 C1204 0.930 1_545 S
H1196 C1209 0.929 . S
H1197 C1207 0.929 . S
H1198 C1202 0.929 1_545 S
H1199 C1208 0.929 . S
C1200 H1194 0.930 . S
C1200 C1201 1.367 . S
C1200 C1208 1.378 . S
C1201 C1200 1.367 . S
C1201 C1209 1.433 . S
C1202 H1198 0.929 1_565 S
C1202 C1204 1.378 . S
C1202 C1206 1.350 . S
C1203 C1206 1.463 . S
C1203 C1208 1.350 . S
C1203 N1211 1.427 . S
C1204 H1195 0.930 1_565 S
C1204 C1202 1.378 . S
C1204 C1205 1.367 . S
C1205 C1204 1.367 . S
C1205 C1207 1.433 . S
C1206 C1202 1.350 . S
C1206 C1203 1.463 . S
C1206 N1210 1.427 . S
C1207 H1197 0.929 . S
C1207 C1205 1.433 . S
C1207 N1210 1.384 . S
C1208 H1199 0.929 . S
C1208 C1200 1.378 . S
C1208 C1203 1.350 . S
C1209 H1196 0.929 . S
C1209 C1201 1.433 . S
C1209 N1211 1.384 . S
N1210 C1206 1.427 . S
N1210 C1207 1.384 . S
N1211 C1203 1.427 . S
N1211 C1209 1.384 . S
H1212 C1218 0.930 . S
H1213 C1222 0.930 . S
H1214 C1227 0.929 . S
H1215 C1225 0.929 . S
H1216 C1220 0.929 . S
H1217 C1226 0.929 . S
C1218 H1212 0.930 . S
C1218 C1219 1.367 . S
C1218 C1226 1.378 . S
C1219 C1218 1.367 . S
C1219 C1227 1.433 . S
C1220 H1216 0.929 . S
C1220 C1222 1.378 . S
C1220 C1224 1.350 . S
C1221 C1224 1.463 . S
C1221 C1226 1.350 . S
C1221 N1229 1.427 . S
C1222 H1213 0.930 . S
C1222 C1220 1.378 . S
C1222 C1223 1.367 . S
C1223 C1222 1.367 . S
C1223 C1225 1.433 . S
C1224 C1220 1.350 . S
C1224 C1221 1.463 . S
C1224 N1228 1.427 . S
C1225 H1215 0.929 . S
C1225 C1223 1.433 . S
C1225 N1228 1.384 . S
C1226 H1217 0.929 . S
C1226 C1218 1.378 . S
C1226 C1221 1.350 . S
C1227 H1214 0.929 . S
C1227 C1219 1.433 . S
C1227 N1229 1.384 . S
N1228 C1224 1.427 . S
N1228 C1225 1.384 . S
N1229 C1221 1.427 . S
N1229 C1227 1.384 . S
H1230 C1236 0.930 . S
H1231 C1240 0.930 . S
H1232 C1245 0.929 . S
H1233 C1243 0.929 . S
H1234 C1238 0.929 . S
H1235 C1244 0.929 . S
C1236 H1230 0.930 . S
C1236 C1237 1.367 . S
C1236 C1244 1.378 . S
C1237 C1236 1.367 . S
C1237 C1245 1.433 . S
C1238 H1234 0.929 . S
C1238 C1240 1.378 . S
C1238 C1242 1.350 . S
C1239 C1242 1.463 . S
C1239 C1244 1.350 . S
C1239 N1247 1.427 . S
C1240 H1231 0.930 . S
C1240 C1238 1.378 . S
C1240 C1241 1.367 . S
C1241 C1240 1.367 . S
C1241 C1243 1.433 . S
C1242 C1238 1.350 . S
C1242 C1239 1.463 . S
C1242 N1246 1.427 . S
C1243 H1233 0.929 . S
C1243 C1241 1.433 . S
C1243 N1246 1.384 . S
C1244 H1235 0.929 . S
C1244 C1236 1.378 . S
C1244 C1239 1.350 . S
C1245 H1232 0.929 . S
C1245 C1237 1.433 . S
C1245 N1247 1.384 . S
N1246 C1242 1.427 . S
N1246 C1243 1.384 . S
N1247 C1239 1.427 . S
N1247 C1245 1.384 . S
C823 C391 2.402 . S
C827 C555 2.353 . S
C845 C639 2.364 . S
C841 C451 2.408 . S
C863 C715 2.266 . S
C859 C241 2.183 . S
C881 C799 2.252 . S
C877 C331 2.169 . S
C899 C546 2.350 1_565 S
C895 C121 2.134 . S
C913 C211 2.349 . S
C917 C630 2.375 . S
C931 C31 2.454 . S
C935 C704 2.270 . S
C949 C91 2.243 . S
C953 C788 2.257 . S
C971 C543 0.642 1_455 S
C967 C301 0.724 . S
C989 C627 0.570 1_545 S
C985 C380 0.605 . S
C1007 C720 0.578 . S
C1003 C440 0.589 . S
C1021 C260 0.665 . S
C1025 C804 0.638 . S
C1039 C61 0.662 1_556 S
C1043 C552 0.646 . S
C1061 C636 0.600 . S
C1057 C140 0.607 1_556 S
C1079 C711 0.593 . S
C1075 C200 0.629 1_556 S
C1093 C20 0.640 . S
C1097 C795 0.633 . S
C1111 C320 2.868 . S
C1115 C536 2.907 . S
C1129 C361 2.548 . S
C1133 C620 2.880 . S
C1151 C714 2.948 . S
C1147 C421 2.441 . S
C1169 C798 2.980 . S
C1165 C271 2.762 . S
C1183 C80 2.923 . S
C1187 C547 2.904 . S
C1205 C631 2.871 . S
C1201 C151 2.891 . S
C1223 C723 2.949 . S
C1219 C181 2.380 . S
C1237 C1 2.395 . S
C1241 C807 2.977 . S
