# Generated by pormake.
# Topology ctn, (3,4)-cn, num edge types: 1
# Building blocks:
#     Node 0, Type 0, BuildingBlock: PAMTOO_clean_linker_0, # of connection points: 3
#     Node 1, Type 0, BuildingBlock: PAMTOO_clean_linker_0, # of connection points: 3
#     Node 2, Type 0, BuildingBlock: PAMTOO_clean_linker_0, # of connection points: 3
#     Node 3, Type 0, BuildingBlock: PAMTOO_clean_linker_0, # of connection points: 3
#     Node 4, Type 0, BuildingBlock: PAMTOO_clean_linker_0, # of connection points: 3
#     Node 5, Type 0, BuildingBlock: PAMTOO_clean_linker_0, # of connection points: 3
#     Node 6, Type 0, BuildingBlock: PAMTOO_clean_linker_0, # of connection points: 3
#     Node 7, Type 0, BuildingBlock: PAMTOO_clean_linker_0, # of connection points: 3
#     Node 8, Type 0, BuildingBlock: PAMTOO_clean_linker_0, # of connection points: 3
#     Node 9, Type 0, BuildingBlock: PAMTOO_clean_linker_0, # of connection points: 3
#     Node 10, Type 0, BuildingBlock: PAMTOO_clean_linker_0, # of connection points: 3
#     Node 11, Type 0, BuildingBlock: PAMTOO_clean_linker_0, # of connection points: 3
#     Node 12, Type 0, BuildingBlock: PAMTOO_clean_linker_0, # of connection points: 3
#     Node 13, Type 0, BuildingBlock: PAMTOO_clean_linker_0, # of connection points: 3
#     Node 14, Type 0, BuildingBlock: PAMTOO_clean_linker_0, # of connection points: 3
#     Node 15, Type 0, BuildingBlock: PAMTOO_clean_linker_0, # of connection points: 3
#     Node 16, Type 1, BuildingBlock: AZAVOO_clean_sbu_0, # of connection points: 4
#     Node 17, Type 1, BuildingBlock: AZAVOO_clean_sbu_0, # of connection points: 4
#     Node 18, Type 1, BuildingBlock: AZAVOO_clean_sbu_0, # of connection points: 4
#     Node 19, Type 1, BuildingBlock: AZAVOO_clean_sbu_0, # of connection points: 4
#     Node 20, Type 1, BuildingBlock: AZAVOO_clean_sbu_0, # of connection points: 4
#     Node 21, Type 1, BuildingBlock: AZAVOO_clean_sbu_0, # of connection points: 4
#     Node 22, Type 1, BuildingBlock: AZAVOO_clean_sbu_0, # of connection points: 4
#     Node 23, Type 1, BuildingBlock: AZAVOO_clean_sbu_0, # of connection points: 4
#     Node 24, Type 1, BuildingBlock: AZAVOO_clean_sbu_0, # of connection points: 4
#     Node 25, Type 1, BuildingBlock: AZAVOO_clean_sbu_0, # of connection points: 4
#     Node 26, Type 1, BuildingBlock: AZAVOO_clean_sbu_0, # of connection points: 4
#     Node 27, Type 1, BuildingBlock: AZAVOO_clean_sbu_0, # of connection points: 4
#     Edge 28, Type (0, 1), BuildingBlock: UVAHIK_clean_linker_0, # of connection points: 2
#     Edge 29, Type (0, 1), BuildingBlock: UVAHIK_clean_linker_0, # of connection points: 2
#     Edge 30, Type (0, 1), BuildingBlock: UVAHIK_clean_linker_0, # of connection points: 2
#     Edge 31, Type (0, 1), BuildingBlock: UVAHIK_clean_linker_0, # of connection points: 2
#     Edge 32, Type (0, 1), BuildingBlock: UVAHIK_clean_linker_0, # of connection points: 2
#     Edge 33, Type (0, 1), BuildingBlock: UVAHIK_clean_linker_0, # of connection points: 2
#     Edge 34, Type (0, 1), BuildingBlock: UVAHIK_clean_linker_0, # of connection points: 2
#     Edge 35, Type (0, 1), BuildingBlock: UVAHIK_clean_linker_0, # of connection points: 2
#     Edge 36, Type (0, 1), BuildingBlock: UVAHIK_clean_linker_0, # of connection points: 2
#     Edge 37, Type (0, 1), BuildingBlock: UVAHIK_clean_linker_0, # of connection points: 2
#     Edge 38, Type (0, 1), BuildingBlock: UVAHIK_clean_linker_0, # of connection points: 2
#     Edge 39, Type (0, 1), BuildingBlock: UVAHIK_clean_linker_0, # of connection points: 2
#     Edge 40, Type (0, 1), BuildingBlock: UVAHIK_clean_linker_0, # of connection points: 2
#     Edge 41, Type (0, 1), BuildingBlock: UVAHIK_clean_linker_0, # of connection points: 2
#     Edge 42, Type (0, 1), BuildingBlock: UVAHIK_clean_linker_0, # of connection points: 2
#     Edge 43, Type (0, 1), BuildingBlock: UVAHIK_clean_linker_0, # of connection points: 2
#     Edge 44, Type (0, 1), BuildingBlock: UVAHIK_clean_linker_0, # of connection points: 2
#     Edge 45, Type (0, 1), BuildingBlock: UVAHIK_clean_linker_0, # of connection points: 2
#     Edge 46, Type (0, 1), BuildingBlock: UVAHIK_clean_linker_0, # of connection points: 2
#     Edge 47, Type (0, 1), BuildingBlock: UVAHIK_clean_linker_0, # of connection points: 2
#     Edge 48, Type (0, 1), BuildingBlock: UVAHIK_clean_linker_0, # of connection points: 2
#     Edge 49, Type (0, 1), BuildingBlock: UVAHIK_clean_linker_0, # of connection points: 2
#     Edge 50, Type (0, 1), BuildingBlock: UVAHIK_clean_linker_0, # of connection points: 2
#     Edge 51, Type (0, 1), BuildingBlock: UVAHIK_clean_linker_0, # of connection points: 2
#     Edge 52, Type (0, 1), BuildingBlock: UVAHIK_clean_linker_0, # of connection points: 2
#     Edge 53, Type (0, 1), BuildingBlock: UVAHIK_clean_linker_0, # of connection points: 2
#     Edge 54, Type (0, 1), BuildingBlock: UVAHIK_clean_linker_0, # of connection points: 2
#     Edge 55, Type (0, 1), BuildingBlock: UVAHIK_clean_linker_0, # of connection points: 2
#     Edge 56, Type (0, 1), BuildingBlock: UVAHIK_clean_linker_0, # of connection points: 2
#     Edge 57, Type (0, 1), BuildingBlock: UVAHIK_clean_linker_0, # of connection points: 2
#     Edge 58, Type (0, 1), BuildingBlock: UVAHIK_clean_linker_0, # of connection points: 2
#     Edge 59, Type (0, 1), BuildingBlock: UVAHIK_clean_linker_0, # of connection points: 2
#     Edge 60, Type (0, 1), BuildingBlock: UVAHIK_clean_linker_0, # of connection points: 2
#     Edge 61, Type (0, 1), BuildingBlock: UVAHIK_clean_linker_0, # of connection points: 2
#     Edge 62, Type (0, 1), BuildingBlock: UVAHIK_clean_linker_0, # of connection points: 2
#     Edge 63, Type (0, 1), BuildingBlock: UVAHIK_clean_linker_0, # of connection points: 2
#     Edge 64, Type (0, 1), BuildingBlock: UVAHIK_clean_linker_0, # of connection points: 2
#     Edge 65, Type (0, 1), BuildingBlock: UVAHIK_clean_linker_0, # of connection points: 2
#     Edge 66, Type (0, 1), BuildingBlock: UVAHIK_clean_linker_0, # of connection points: 2
#     Edge 67, Type (0, 1), BuildingBlock: UVAHIK_clean_linker_0, # of connection points: 2
#     Edge 68, Type (0, 1), BuildingBlock: UVAHIK_clean_linker_0, # of connection points: 2
#     Edge 69, Type (0, 1), BuildingBlock: UVAHIK_clean_linker_0, # of connection points: 2
#     Edge 70, Type (0, 1), BuildingBlock: UVAHIK_clean_linker_0, # of connection points: 2
#     Edge 71, Type (0, 1), BuildingBlock: UVAHIK_clean_linker_0, # of connection points: 2
#     Edge 72, Type (0, 1), BuildingBlock: UVAHIK_clean_linker_0, # of connection points: 2
#     Edge 73, Type (0, 1), BuildingBlock: UVAHIK_clean_linker_0, # of connection points: 2
#     Edge 74, Type (0, 1), BuildingBlock: UVAHIK_clean_linker_0, # of connection points: 2
#     Edge 75, Type (0, 1), BuildingBlock: UVAHIK_clean_linker_0, # of connection points: 2
# Relax obj value: 0.056
# Max RMSD: 0.172
# Mean RMSD: 0.111
data_MOF--net-ctn--node1-AZAVOO_clean_sbu_0--node2-PAMTOO_clean_linker_0--edge1-UVAHIK_clean_linker_0
_symmetry_space_group_name_H-M    P1
_symmetry_Int_Tables_number       1
_symmetry_cell_setting            triclinic
loop_
_symmetry_equiv_pos_as_xyz
'x, y, z'
_cell_length_a     68.594014
_cell_length_b     70.081153
_cell_length_c     71.360671
_cell_angle_alpha  85.153467
_cell_angle_beta   95.188624
_cell_angle_gamma 100.39005
loop_
_atom_site_label
_atom_site_type_symbol
_atom_site_fract_x
_atom_site_fract_y
_atom_site_fract_z
_atom_type_partial_charge
H0 H 0.99576 0.04538 0.03858 0.0
H1 H 0.01511 0.98992 0.04461 0.0
H2 H 0.03888 0.03349 0.00288 0.0
H3 H 0.0294 0.99546 0.98966 0.0
C4 C 0.03331 0.98647 0.00259 0.0
O5 O 0.03923 0.99815 0.01744 0.0
H6 H 0.01992 0.97569 0.00617 0.0
C7 C 0.00465 0.03554 0.03409 0.0
C8 C 0.01728 0.04182 0.01952 0.0
C9 C 0.00384 0.01698 0.04343 0.0
C10 C 0.01545 0.00429 0.03759 0.0
C11 C 0.02776 0.01021 0.02275 0.0
C12 C 0.02879 0.02895 0.01389 0.0
H13 H 0.31975 0.71125 0.27583 0.0
H14 H 0.2836 0.72885 0.22707 0.0
H15 H 0.33574 0.7675 0.24663 0.0
H16 H 0.30173 0.78813 0.23055 0.0
C17 C 0.29347 0.77593 0.22244 0.0
O18 O 0.30586 0.76269 0.2211 0.0
H19 H 0.28017 0.769 0.22995 0.0
C20 C 0.31681 0.7219 0.2645 0.0
C21 C 0.3298 0.73984 0.2629 0.0
C22 C 0.29998 0.71768 0.25173 0.0
C23 C 0.29651 0.7316 0.23702 0.0
C24 C 0.30934 0.7495 0.23534 0.0
C25 C 0.32587 0.75363 0.24824 0.0
H26 H 0.97101 0.50967 0.11765 0.0
H27 H 0.95169 0.48719 0.0633 0.0
H28 H 0.00125 0.46857 0.09565 0.0
H29 H 0.00396 0.47842 0.05393 0.0
C30 C 0.98884 0.47082 0.04921 0.0
O31 O 0.97811 0.4646 0.06472 0.0
H32 H 0.98122 0.48116 0.03984 0.0
C33 C 0.97271 0.5007 0.10647 0.0
C34 C 0.98786 0.48935 0.10871 0.0
C35 C 0.95941 0.50008 0.09016 0.0
C36 C 0.96148 0.48781 0.0761 0.0
C37 C 0.97649 0.47653 0.07819 0.0
C38 C 0.98959 0.47728 0.0944 0.0
H39 H 0.70397 0.85361 0.26131 0.0
H40 H 0.6881 0.79308 0.25057 0.0
H41 H 0.7392 0.82736 0.22694 0.0
H42 H 0.70423 0.80111 0.20277 0.0
C43 C 0.70682 0.78798 0.21195 0.0
O44 O 0.71678 0.79325 0.22891 0.0
H45 H 0.69202 0.77918 0.21462 0.0
C46 C 0.70683 0.84118 0.25464 0.0
C47 C 0.72339 0.84303 0.24384 0.0
C48 C 0.6942 0.82319 0.25744 0.0
C49 C 0.69775 0.80705 0.24873 0.0
C50 C 0.71365 0.80883 0.2374 0.0
C51 C 0.72651 0.82664 0.23512 0.0
H52 H 0.07863 0.99548 0.5316 0.0
H53 H 0.02927 0.98177 0.49022 0.0
H54 H 0.06855 0.03664 0.48499 0.0
H55 H 0.02511 0.03856 0.47579 0.0
C56 C 0.02017 0.0237 0.47083 0.0
O57 O 0.03659 0.01494 0.4703 0.0
H58 H 0.00979 0.01517 0.48081 0.0
C59 C 0.06971 0.99958 0.51908 0.0
C60 C 0.07547 0.01761 0.50918 0.0
C61 C 0.05319 0.98639 0.51221 0.0
C62 C 0.04209 0.99173 0.49568 0.0
C63 C 0.0474 0.00996 0.48614 0.0
C64 C 0.06423 0.02275 0.49272 0.0
H65 H 0.17914 0.74626 0.78297 0.0
H66 H 0.19825 0.706 0.7492 0.0
H67 H 0.23211 0.72224 0.8005 0.0
H68 H 0.25556 0.71952 0.76922 0.0
C69 C 0.24588 0.70727 0.76214 0.0
O70 O 0.22921 0.70085 0.77192 0.0
H71 H 0.24144 0.71278 0.74758 0.0
C72 C 0.18981 0.73724 0.78054 0.0
C73 C 0.20601 0.73577 0.79387 0.0
C74 C 0.18683 0.72661 0.76435 0.0
C75 C 0.20018 0.71424 0.76163 0.0
C76 C 0.2164 0.71273 0.77469 0.0
C77 C 0.2193 0.72344 0.79071 0.0
H78 H 0.93074 0.53311 0.5071 0.0
H79 H 0.94884 0.49729 0.468 0.0
H80 H 0.98762 0.54943 0.48362 0.0
H81 H 0.98645 0.54313 0.44342 0.0
C82 C 0.98261 0.52698 0.44412 0.0
O83 O 0.98281 0.51979 0.46274 0.0
H84 H 0.96744 0.52291 0.43707 0.0
C85 C 0.94175 0.53012 0.4983 0.0
C86 C 0.95975 0.5433 0.49692 0.0
C87 C 0.93755 0.51344 0.48796 0.0
C88 C 0.95159 0.51012 0.47597 0.0
C89 C 0.96946 0.52318 0.47434 0.0
C90 C 0.97358 0.53963 0.48485 0.0
H91 H 0.78087 0.79519 0.83983 0.0
H92 H 0.82987 0.77146 0.82305 0.0
H93 H 0.80645 0.81542 0.78728 0.0
H94 H 0.81459 0.78399 0.76653 0.0
C95 C 0.8265 0.77895 0.77631 0.0
O96 O 0.83178 0.79145 0.79056 0.0
H97 H 0.82045 0.76409 0.7823 0.0
C98 C 0.79194 0.79497 0.82999 0.0
C99 C 0.79211 0.8073 0.81336 0.0
C100 C 0.80563 0.78212 0.83392 0.0
C101 C 0.81911 0.78114 0.82046 0.0
C102 C 0.81903 0.79286 0.80357 0.0
C103 C 0.80582 0.80607 0.80017 0.0
H104 H 0.28699 0.29734 0.34375 0.0
H105 H 0.3311 0.27114 0.32128 0.0
H106 H 0.30807 0.31772 0.28915 0.0
H107 H 0.31381 0.28712 0.2659 0.0
C108 C 0.32576 0.28118 0.27488 0.0
O109 O 0.33225 0.29286 0.28961 0.0
H110 H 0.31934 0.26624 0.28042 0.0
C111 C 0.29658 0.29683 0.33262 0.0
C112 C 0.29572 0.30943 0.31622 0.0
C113 C 0.30935 0.28308 0.33465 0.0
C114 C 0.32117 0.28166 0.31994 0.0
C115 C 0.32053 0.29409 0.30356 0.0
C116 C 0.30801 0.308 0.30178 0.0
H117 H 0.47115 0.01231 0.61706 0.0
H118 H 0.45102 0.9902 0.56272 0.0
H119 H 0.50134 0.97184 0.59397 0.0
H120 H 0.50324 0.98242 0.55231 0.0
C121 C 0.48821 0.97451 0.54772 0.0
O122 O 0.47773 0.96799 0.56333 0.0
H123 H 0.48024 0.98466 0.53847 0.0
C124 C 0.47273 0.00347 0.60573 0.0
C125 C 0.48801 0.99228 0.60756 0.0
C126 C 0.45916 0.00288 0.58964 0.0
C127 C 0.46105 0.9908 0.57537 0.0
C128 C 0.47621 0.97969 0.57703 0.0
C129 C 0.48959 0.98041 0.59305 0.0
H130 H 0.20211 0.35425 0.76253 0.0
H131 H 0.18513 0.29387 0.75176 0.0
H132 H 0.23489 0.32805 0.72574 0.0
H133 H 0.19765 0.30238 0.70306 0.0
C134 C 0.20125 0.28915 0.71149 0.0
O135 O 0.21216 0.29412 0.72812 0.0
H136 H 0.18694 0.27975 0.7148 0.0
C137 C 0.20446 0.34187 0.75544 0.0
C138 C 0.22042 0.34367 0.7439 0.0
C139 C 0.1919 0.32394 0.75862 0.0
C140 C 0.19471 0.30781 0.74947 0.0
C141 C 0.20979 0.30962 0.73717 0.0
C142 C 0.22273 0.32736 0.73458 0.0
H143 H 0.82158 0.20929 0.77299 0.0
H144 H 0.7866 0.2305 0.72526 0.0
H145 H 0.83887 0.26725 0.7476 0.0
H146 H 0.80534 0.2899 0.73164 0.0
C147 C 0.79682 0.27765 0.72374 0.0
O148 O 0.80923 0.2646 0.72174 0.0
H149 H 0.78395 0.27062 0.73179 0.0
C150 C 0.81925 0.22068 0.76221 0.0
C151 C 0.83246 0.23856 0.76193 0.0
C152 C 0.80257 0.21765 0.74916 0.0
C153 C 0.79926 0.23263 0.73558 0.0
C154 C 0.81231 0.25046 0.73515 0.0
C155 C 0.8288 0.25344 0.74828 0.0
H156 H 0.50697 0.55551 0.54409 0.0
H157 H 0.52385 0.49903 0.55034 0.0
H158 H 0.54345 0.53911 0.50418 0.0
H159 H 0.53183 0.50034 0.49359 0.0
C160 C 0.5367 0.49198 0.5066 0.0
O161 O 0.54434 0.50449 0.52043 0.0
H162 H 0.5236 0.48172 0.51169 0.0
C163 C 0.51478 0.54502 0.53911 0.0
C164 C 0.52519 0.54972 0.52281 0.0
C165 C 0.51443 0.52696 0.54931 0.0
C166 C 0.5238 0.51298 0.54254 0.0
C167 C 0.53409 0.5174 0.52616 0.0
C168 C 0.53489 0.53573 0.51643 0.0
H169 H 0.58457 0.4941 0.02825 0.0
H170 H 0.53127 0.4815 0.99122 0.0
H171 H 0.56826 0.53743 0.98615 0.0
H172 H 0.52392 0.53759 0.97971 0.0
C173 C 0.51949 0.5228 0.97445 0.0
O174 O 0.53637 0.51525 0.97243 0.0
H175 H 0.51022 0.51343 0.98484 0.0
C176 C 0.5744 0.49856 0.01692 0.0
C177 C 0.57846 0.51748 0.00819 0.0
C178 C 0.5574 0.48532 0.01098 0.0
C179 C 0.5445 0.4913 0.99606 0.0
C180 C 0.5484 0.51006 0.9873 0.0
C181 C 0.56526 0.5231 0.99337 0.0
H182 H 0.67622 0.24228 0.28782 0.0
H183 H 0.69615 0.2026 0.25395 0.0
H184 H 0.73103 0.22106 0.30405 0.0
H185 H 0.75395 0.21838 0.2724 0.0
C186 C 0.7443 0.20599 0.26552 0.0
O187 O 0.72812 0.19914 0.27586 0.0
H188 H 0.73922 0.21143 0.25112 0.0
C189 C 0.68725 0.23375 0.28516 0.0
C190 C 0.70403 0.23326 0.29801 0.0
C191 C 0.68421 0.22279 0.26919 0.0
C192 C 0.6981 0.21106 0.26622 0.0
C193 C 0.71486 0.21049 0.27883 0.0
C194 C 0.71781 0.22153 0.29461 0.0
H195 H 0.4305 0.03288 0.00336 0.0
H196 H 0.45006 0.99938 0.96317 0.0
H197 H 0.4848 0.05435 0.97634 0.0
H198 H 0.48462 0.04661 0.93682 0.0
C199 C 0.48158 0.03044 0.93813 0.0
O200 O 0.48251 0.02398 0.95695 0.0
H201 H 0.46639 0.02543 0.93148 0.0
C202 C 0.44121 0.03128 0.99361 0.0
C203 C 0.45801 0.04592 0.99129 0.0
C204 C 0.43796 0.01455 0.98337 0.0
C205 C 0.45202 0.01231 0.97095 0.0
C206 C 0.46889 0.02658 0.96863 0.0
C207 C 0.47183 0.04333 0.97867 0.0
Mg208 Mg 0.21456 0.85195 0.00164 0.0
O209 O 0.24617 0.86999 0.00011 0.0
O210 O 0.26716 0.8491 0.00793 0.0
Mg211 Mg 0.24977 0.81858 0.01425 0.0
C212 C 0.26383 0.86624 0.00299 0.0
C213 C 0.18141 0.87152 0.98286 0.0
O214 O 0.17386 0.85288 0.98438 0.0
O215 O 0.21726 0.8392 0.97362 0.0
O216 O 0.23753 0.81804 0.98319 0.0
O217 O 0.21539 0.85689 0.03222 0.0
O218 O 0.22525 0.83193 0.02136 0.0
C219 C 0.22667 0.82582 0.97031 0.0
C220 C 0.22344 0.84149 0.03554 0.0
O221 O 0.19982 0.87674 0.98753 0.0
Mg222 Mg 0.16204 0.49832 0.30315 0.0
O223 O 0.14221 0.49577 0.27522 0.0
O224 O 0.1625 0.50086 0.25183 0.0
Mg225 Mg 0.19469 0.50596 0.26431 0.0
C226 C 0.14506 0.49733 0.25765 0.0
C227 C 0.13784 0.49194 0.33718 0.0
O228 O 0.15547 0.50111 0.34312 0.0
O229 O 0.17011 0.46819 0.3012 0.0
O230 O 0.19058 0.47466 0.27787 0.0
O231 O 0.16278 0.53037 0.30108 0.0
O232 O 0.18493 0.51631 0.28946 0.0
C233 C 0.18179 0.46292 0.2904 0.0
C234 C 0.17831 0.53198 0.29165 0.0
O235 O 0.13523 0.48694 0.32028 0.0
Mg236 Mg 0.80419 0.66847 0.06058 0.0
O237 O 0.77183 0.65229 0.05666 0.0
O238 O 0.75222 0.67472 0.05502 0.0
Mg239 Mg 0.77136 0.70478 0.05772 0.0
C240 C 0.75458 0.65707 0.05483 0.0
C241 C 0.8146 0.62715 0.06812 0.0
O242 O 0.80391 0.62808 0.08228 0.0
O243 O 0.80283 0.67902 0.02904 0.0
O244 O 0.7839 0.70177 0.02971 0.0
O245 O 0.8024 0.66703 0.09215 0.0
O246 O 0.79497 0.6911 0.07254 0.0
C247 C 0.79428 0.69262 0.02084 0.0
C248 C 0.79591 0.68334 0.08946 0.0
O249 O 0.81652 0.64121 0.05554 0.0
Mg250 Mg 0.90843 0.04946 0.24345 0.0
O251 O 0.88604 0.02073 0.24279 0.0
O252 O 0.90302 0.99686 0.23976 0.0
Mg253 Mg 0.93608 0.00971 0.2408 0.0
C254 C 0.88671 0.00288 0.24095 0.0
C255 C 0.86852 0.06557 0.24149 0.0
O256 O 0.86551 0.05569 0.22633 0.0
O257 O 0.91825 0.04185 0.27421 0.0
O258 O 0.93521 0.01799 0.27126 0.0
O259 O 0.90633 0.05237 0.21184 0.0
O260 O 0.92815 0.03753 0.2292 0.0
C261 C 0.92863 0.02926 0.2814 0.0
C262 C 0.92042 0.04219 0.21273 0.0
O263 O 0.88457 0.06543 0.2519 0.0
Mg264 Mg 0.30109 0.16986 0.55905 0.0
O265 O 0.26932 0.15209 0.55533 0.0
O266 O 0.24818 0.17326 0.55238 0.0
Mg267 Mg 0.266 0.20407 0.55158 0.0
C268 C 0.25168 0.15589 0.55346 0.0
C269 C 0.31409 0.12978 0.56988 0.0
O270 O 0.30396 0.13139 0.58427 0.0
O271 O 0.30036 0.17788 0.52727 0.0
O272 O 0.27879 0.19861 0.52414 0.0
O273 O 0.29832 0.17057 0.5901 0.0
O274 O 0.29017 0.19289 0.56863 0.0
C275 C 0.29052 0.18934 0.51713 0.0
C276 C 0.2909 0.18626 0.58599 0.0
O277 O 0.31491 0.1429 0.55638 0.0
Mg278 Mg 0.40831 0.54749 0.7474 0.0
O279 O 0.38565 0.519 0.74579 0.0
O280 O 0.40255 0.49487 0.74366 0.0
Mg281 Mg 0.43572 0.50734 0.74596 0.0
C282 C 0.38623 0.50111 0.74409 0.0
C283 C 0.3686 0.56408 0.74382 0.0
O284 O 0.36613 0.55427 0.72864 0.0
O285 O 0.41672 0.5396 0.77843 0.0
O286 O 0.43372 0.51559 0.77625 0.0
O287 O 0.40775 0.55073 0.71585 0.0
O288 O 0.42858 0.53539 0.73404 0.0
C289 C 0.42677 0.52691 0.78604 0.0
C290 C 0.42173 0.54039 0.71731 0.0
O291 O 0.38422 0.56372 0.75481 0.0
Mg292 Mg 0.71294 0.35198 0.50416 0.0
O293 O 0.74444 0.37025 0.50261 0.0
O294 O 0.76565 0.3496 0.51059 0.0
Mg295 Mg 0.7485 0.31899 0.51694 0.0
C296 C 0.76215 0.36667 0.50557 0.0
C297 C 0.67944 0.37141 0.48622 0.0
O298 O 0.67177 0.35288 0.48879 0.0
O299 O 0.71578 0.33917 0.47621 0.0
O300 O 0.73634 0.3183 0.48586 0.0
O301 O 0.71373 0.35704 0.53472 0.0
O302 O 0.7238 0.33213 0.52397 0.0
C303 C 0.72538 0.32592 0.47295 0.0
C304 C 0.72192 0.34173 0.5381 0.0
O305 O 0.69804 0.37659 0.48991 0.0
Mg306 Mg 0.6637 0.9994 0.80068 0.0
O307 O 0.64381 0.99785 0.77277 0.0
O308 O 0.66393 0.00329 0.74924 0.0
Mg309 Mg 0.69614 0.00735 0.76163 0.0
C310 C 0.64654 0.99985 0.75517 0.0
C311 C 0.63896 0.9941 0.83426 0.0
O312 O 0.65643 0.0037 0.84009 0.0
O313 O 0.6709 0.96901 0.79786 0.0
O314 O 0.69104 0.97573 0.77426 0.0
O315 O 0.66524 0.03157 0.79927 0.0
O316 O 0.68689 0.01721 0.78724 0.0
C317 C 0.68214 0.9638 0.78659 0.0
C318 C 0.6807 0.033 0.78976 0.0
O319 O 0.63667 0.98835 0.81764 0.0
Mg320 Mg 0.03052 0.27528 0.93305 0.0
O321 O 0.00159 0.26905 0.91391 0.0
O322 O 0.97769 0.25436 0.93216 0.0
Mg323 Mg 0.99094 0.25188 0.96262 0.0
C324 C 0.98356 0.26111 0.91605 0.0
C325 C 0.06433 0.29123 0.91014 0.0
O326 O 0.07079 0.2803 0.92439 0.0
O327 O 0.02007 0.3009 0.9444 0.0
O328 O 0.99663 0.28533 0.96279 0.0
O329 O 0.03672 0.24596 0.92894 0.0
O330 O 0.02014 0.25228 0.95217 0.0
C331 C 0.00689 0.30102 0.95594 0.0
C332 C 0.0267 0.23968 0.9434 0.0
O333 O 0.04638 0.29379 0.90933 0.0
Mg334 Mg 0.53082 0.77991 0.43018 0.0
O335 O 0.50152 0.77364 0.41165 0.0
O336 O 0.47791 0.75923 0.43033 0.0
Mg337 Mg 0.49188 0.75665 0.46054 0.0
C338 C 0.48351 0.76589 0.4141 0.0
C339 C 0.56372 0.79484 0.40603 0.0
O340 O 0.5704 0.78394 0.4202 0.0
O341 O 0.52072 0.80566 0.44173 0.0
O342 O 0.49769 0.79008 0.46056 0.0
O343 O 0.53677 0.75051 0.42599 0.0
O344 O 0.52087 0.75703 0.44962 0.0
C345 C 0.50779 0.80577 0.45353 0.0
C346 C 0.52719 0.74436 0.44075 0.0
O347 O 0.54605 0.79806 0.40592 0.0
Mg348 Mg 0.98088 0.75067 0.60881 0.0
O349 O 0.01042 0.74658 0.62532 0.0
O350 O 0.03139 0.74295 0.60418 0.0
Mg351 Mg 0.01532 0.7436 0.57465 0.0
C352 C 0.0275 0.7441 0.62118 0.0
C353 C 0.96868 0.75096 0.65021 0.0
O354 O 0.9757 0.7346 0.6518 0.0
O355 O 0.99478 0.78169 0.59878 0.0
O356 O 0.01366 0.77581 0.57669 0.0
O357 O 0.97024 0.71835 0.61035 0.0
O358 O 0.98689 0.73464 0.58735 0.0
C359 C 0.00646 0.78761 0.5857 0.0
C360 C 0.97872 0.71817 0.59489 0.0
O361 O 0.9695 0.76119 0.63461 0.0
Mg362 Mg 0.48257 0.25064 0.10812 0.0
O363 O 0.51054 0.24451 0.12655 0.0
O364 O 0.53245 0.23981 0.10675 0.0
Mg365 Mg 0.5189 0.24219 0.07643 0.0
C366 C 0.52757 0.24095 0.12343 0.0
C367 C 0.46681 0.25086 0.14801 0.0
O368 O 0.47196 0.23359 0.14949 0.0
O369 O 0.49868 0.28112 0.09929 0.0
O370 O 0.51939 0.2748 0.07909 0.0
O371 O 0.46959 0.21893 0.1086 0.0
O372 O 0.48938 0.23417 0.08731 0.0
C373 C 0.51197 0.28679 0.08762 0.0
C374 C 0.47937 0.21813 0.09409 0.0
O375 O 0.47 0.26171 0.133 0.0
C376 C 0.20434 0.76577 0.81049 0.0
C377 C 0.20887 0.74689 0.81114 0.0
C378 C 0.2067 0.776 0.82679 0.0
C379 C 0.23395 0.77902 0.87337 0.0
H380 H 0.19085 0.80249 0.88753 0.0
C381 C 0.23261 0.8019 0.9483 0.0
C382 C 0.22494 0.81865 0.95113 0.0
C383 C 0.23108 0.79481 0.93046 0.0
C384 C 0.20318 0.79634 0.88364 0.0
H385 H 0.21923 0.72398 0.82968 0.0
H386 H 0.22387 0.74205 0.85789 0.0
H387 H 0.18755 0.78714 0.85762 0.0
H388 H 0.20967 0.84113 0.93725 0.0
H389 H 0.20734 0.8289 0.90586 0.0
H390 H 0.24971 0.78824 0.89915 0.0
C391 C 0.21856 0.74893 0.84471 0.0
C392 C 0.20124 0.78749 0.86653 0.0
C393 C 0.21597 0.73861 0.82849 0.0
C394 C 0.21569 0.82817 0.93558 0.0
C395 C 0.21428 0.8211 0.9176 0.0
C396 C 0.23598 0.78802 0.89032 0.0
C397 C 0.2139 0.7677 0.84405 0.0
C398 C 0.21646 0.77841 0.86142 0.0
C399 C 0.22201 0.80433 0.91483 0.0
C400 C 0.22046 0.79643 0.8959 0.0
H401 H 0.19916 0.77278 0.79735 0.0
H402 H 0.20317 0.79052 0.82585 0.0
H403 H 0.24607 0.77245 0.86961 0.0
H404 H 0.23965 0.79404 0.95993 0.0
H405 H 0.23677 0.7816 0.92902 0.0
C406 C 0.01789 0.52308 0.44039 0.0
C407 C 0.99766 0.51921 0.43413 0.0
C408 C 0.03207 0.51684 0.43056 0.0
C409 C 0.04023 0.50397 0.38331 0.0
H410 H 0.08526 0.484 0.40933 0.0
C411 C 0.10134 0.48325 0.34222 0.0
C412 C 0.12098 0.48995 0.34926 0.0
C413 C 0.08539 0.48365 0.35306 0.0
C414 C 0.07284 0.48966 0.40183 0.0
H415 H 0.97632 0.50565 0.41285 0.0
H416 H 0.00108 0.49471 0.39565 0.0
H417 H 0.05918 0.49104 0.42741 0.0
H418 H 0.13926 0.50152 0.37354 0.0
H419 H 0.11163 0.50244 0.39221 0.0
H420 H 0.05409 0.50313 0.35779 0.0
C421 C 0.00601 0.50264 0.40809 0.0
C422 C 0.05789 0.49369 0.41221 0.0
C423 C 0.99183 0.5088 0.41798 0.0
C424 C 0.12434 0.49627 0.36764 0.0
C425 C 0.10844 0.49668 0.37844 0.0
C426 C 0.05522 0.50002 0.37293 0.0
C427 C 0.02632 0.50672 0.41418 0.0
C428 C 0.04154 0.50115 0.4031 0.0
C429 C 0.08873 0.49073 0.37118 0.0
C430 C 0.07187 0.49308 0.38208 0.0
H431 H 0.02272 0.53121 0.45272 0.0
H432 H 0.0476 0.52045 0.43548 0.0
H433 H 0.02796 0.50993 0.37586 0.0
H434 H 0.09824 0.47823 0.32814 0.0
H435 H 0.07041 0.47867 0.34714 0.0
C436 C 0.80975 0.7509 0.85325 0.0
C437 C 0.80583 0.77006 0.85217 0.0
C438 C 0.80912 0.73953 0.8704 0.0
C439 C 0.78446 0.73308 0.91363 0.0
H440 H 0.82934 0.71223 0.93895 0.0
C441 C 0.7887 0.71498 0.99259 0.0
C442 C 0.79621 0.69845 0.00051 0.0
C443 C 0.7899 0.72079 0.97356 0.0
C444 C 0.81655 0.71759 0.93189 0.0
H445 H 0.79927 0.79247 0.86869 0.0
H446 H 0.79735 0.77239 0.89817 0.0
H447 H 0.83171 0.72785 0.90689 0.0
H448 H 0.81122 0.67522 0.99445 0.0
H449 H 0.81317 0.68539 0.96075 0.0
H450 H 0.76923 0.72309 0.93834 0.0
C451 C 0.80081 0.76621 0.88572 0.0
C452 C 0.81794 0.72656 0.91361 0.0
C453 C 0.80176 0.77764 0.86876 0.0
C454 C 0.80524 0.68798 0.9888 0.0
C455 C 0.80641 0.69383 0.96953 0.0
C456 C 0.78297 0.72396 0.93168 0.0
C457 C 0.80428 0.74702 0.88667 0.0
C458 C 0.80211 0.73494 0.90463 0.0
C459 C 0.79851 0.71021 0.96169 0.0
C460 C 0.79924 0.71677 0.94135 0.0
H461 H 0.81279 0.7445 0.84078 0.0
H462 H 0.81182 0.72473 0.87084 0.0
H463 H 0.77195 0.73916 0.90684 0.0
H464 H 0.78187 0.72363 0.00112 0.0
H465 H 0.78419 0.73378 0.96817 0.0
C466 C 0.00195 0.04148 0.44449 0.0
C467 C 0.00926 0.02461 0.45155 0.0
C468 C 0.99126 0.04212 0.42686 0.0
C469 C 0.96333 0.01023 0.3907 0.0
H470 H 0.97301 0.05709 0.35744 0.0
C471 C 0.94212 0.01215 0.31061 0.0
C472 C 0.93423 0.02819 0.30198 0.0
C473 C 0.94899 0.0117 0.32964 0.0
C474 C 0.96992 0.044 0.36667 0.0
H475 H 0.01045 0.99492 0.44617 0.0
H476 H 0.99239 0.99615 0.41514 0.0
H477 H 0.98985 0.05639 0.389 0.0
H478 H 0.92692 0.05615 0.30677 0.0
H479 H 0.93913 0.05541 0.34008 0.0
H480 H 0.94386 0.9977 0.36806 0.0
C481 C 0.99472 0.00889 0.4232 0.0
C482 C 0.97957 0.04358 0.38479 0.0
C483 C 0.00528 0.00823 0.44087 0.0
C484 C 0.93289 0.04357 0.31298 0.0
C485 C 0.93999 0.04321 0.33201 0.0
C486 C 0.95381 0.01061 0.37254 0.0
C487 C 0.98758 0.02586 0.41594 0.0
C488 C 0.97657 0.02662 0.39698 0.0
C489 C 0.94831 0.02736 0.34048 0.0
C490 C 0.95716 0.02743 0.36026 0.0
H491 H 0.00443 0.05417 0.45264 0.0
H492 H 0.98567 0.0553 0.42192 0.0
H493 H 0.9603 0.99706 0.39982 0.0
H494 H 0.9433 1e-05 0.30259 0.0
H495 H 0.95547 0.99936 0.3357 0.0
C496 C 0.21541 0.25933 0.70648 0.0
C497 C 0.21262 0.27826 0.70027 0.0
C498 C 0.22544 0.24892 0.69578 0.0
C499 C 0.2591 0.25526 0.6568 0.0
H500 H 0.23782 0.20082 0.65057 0.0
C501 C 0.27843 0.21475 0.59623 0.0
C502 C 0.28283 0.19597 0.60043 0.0
C503 C 0.27111 0.22426 0.60976 0.0
C504 C 0.24408 0.21594 0.65238 0.0
H505 H 0.21849 0.30141 0.67838 0.0
H506 H 0.23558 0.2832 0.65945 0.0
H507 H 0.2229 0.2186 0.67184 0.0
H508 H 0.2829 0.17236 0.62211 0.0
H509 H 0.26981 0.18899 0.64581 0.0
H510 H 0.2799 0.25272 0.6369 0.0
C511 C 0.23032 0.27639 0.67267 0.0
C512 C 0.23558 0.22614 0.66459 0.0
C513 C 0.22039 0.28679 0.68342 0.0
C514 C 0.27964 0.18683 0.61847 0.0
C515 C 0.27209 0.1963 0.63199 0.0
C516 C 0.26749 0.24511 0.64451 0.0
C517 C 0.23288 0.25727 0.67865 0.0
C518 C 0.2428 0.24601 0.66674 0.0
C519 C 0.26786 0.21517 0.62779 0.0
C520 C 0.25989 0.22543 0.64196 0.0
H521 H 0.20967 0.25256 0.71954 0.0
H522 H 0.22739 0.23436 0.70095 0.0
H523 H 0.26535 0.27042 0.65842 0.0
H524 H 0.28082 0.22224 0.5825 0.0
H525 H 0.26775 0.23869 0.60602 0.0
C526 C 0.49099 0.50733 0.57179 0.0
C527 C 0.50545 0.52371 0.56768 0.0
C528 C 0.48153 0.50551 0.58864 0.0
C529 C 0.45537 0.51453 0.61871 0.0
H530 H 0.48614 0.52966 0.66505 0.0
C531 C 0.42149 0.53913 0.68221 0.0
C532 C 0.42943 0.53423 0.70047 0.0
C533 C 0.42979 0.53444 0.66635 0.0
C534 C 0.47728 0.52511 0.65234 0.0
H535 H 0.522 0.55053 0.57814 0.0
H536 H 0.50569 0.54736 0.60739 0.0
H537 H 0.50315 0.52696 0.6372 0.0
H538 H 0.452 0.52006 0.71632 0.0
H539 H 0.46613 0.51158 0.68879 0.0
H540 H 0.42945 0.51293 0.63388 0.0
C541 C 0.50155 0.53592 0.59774 0.0
C542 C 0.48706 0.52374 0.63632 0.0
C543 C 0.51079 0.53782 0.58092 0.0
C544 C 0.44544 0.52402 0.7025 0.0
C545 C 0.45368 0.51929 0.68669 0.0
C546 C 0.44554 0.51596 0.63478 0.0
C547 C 0.48667 0.51988 0.60173 0.0
C548 C 0.47623 0.51883 0.61923 0.0
C549 C 0.4462 0.52475 0.66842 0.0
C550 C 0.4564 0.52158 0.6517 0.0
H551 H 0.4866 0.49628 0.56175 0.0
H552 H 0.47017 0.49293 0.59142 0.0
H553 H 0.44662 0.51082 0.6057 0.0
H554 H 0.40916 0.547 0.68015 0.0
H555 H 0.4238 0.53905 0.65248 0.0
C556 C 0.78689 0.30448 0.70097 0.0
C557 C 0.78888 0.2849 0.7046 0.0
C558 C 0.7791 0.31109 0.68332 0.0
C559 C 0.74962 0.29343 0.63985 0.0
H560 H 0.77248 0.34406 0.61768 0.0
C561 C 0.73465 0.31734 0.56139 0.0
C562 C 0.72963 0.3359 0.55734 0.0
C563 C 0.74147 0.31154 0.57965 0.0
C564 C 0.76585 0.32997 0.62379 0.0
H565 H 0.78341 0.25666 0.69301 0.0
H566 H 0.77056 0.26824 0.66201 0.0
H567 H 0.78512 0.33304 0.64905 0.0
H568 H 0.72804 0.36303 0.56916 0.0
H569 H 0.74027 0.35295 0.60109 0.0
H570 H 0.73074 0.29022 0.61431 0.0
C571 C 0.77482 0.27855 0.67276 0.0
C572 C 0.77302 0.32365 0.64178 0.0
C573 C 0.78242 0.27193 0.69045 0.0
C574 C 0.73178 0.34863 0.57187 0.0
C575 C 0.73885 0.34291 0.5901 0.0
C576 C 0.74263 0.29966 0.62179 0.0
C577 C 0.77307 0.29823 0.66894 0.0
C578 C 0.76507 0.30525 0.65001 0.0
C579 C 0.74362 0.32425 0.59418 0.0
C580 C 0.75073 0.31794 0.61355 0.0
H581 H 0.79134 0.31466 0.71182 0.0
H582 H 0.77758 0.32624 0.68105 0.0
H583 H 0.74281 0.27937 0.64586 0.0
H584 H 0.73308 0.30717 0.55051 0.0
H585 H 0.74522 0.29714 0.58237 0.0
C586 C 0.51064 0.01105 0.63193 0.0
C587 C 0.50247 0.99315 0.62445 0.0
C588 C 0.52495 0.01197 0.64723 0.0
C589 C 0.5643 0.01091 0.67021 0.0
H590 H 0.56118 0.97155 0.71197 0.0
C591 C 0.63199 0.00193 0.7217 0.0
C592 C 0.62913 0.99864 0.74106 0.0
C593 C 0.61579 0.00141 0.70832 0.0
C594 C 0.56218 0.98274 0.70049 0.0
H595 H 0.50248 0.9621 0.62766 0.0
H596 H 0.52767 0.96374 0.65415 0.0
H597 H 0.53375 0.97062 0.68748 0.0
H598 H 0.60679 0.99194 0.76144 0.0
H599 H 0.57843 0.99103 0.73796 0.0
H600 H 0.59266 0.02306 0.68318 0.0
C601 C 0.52292 0.97706 0.64826 0.0
C602 C 0.54656 0.98211 0.68637 0.0
C603 C 0.50864 0.97615 0.63292 0.0
C604 C 0.60957 0.99455 0.74666 0.0
C605 C 0.59331 0.99395 0.73321 0.0
C606 C 0.57991 0.01149 0.68427 0.0
C607 C 0.53141 0.99501 0.65546 0.0
C608 C 0.54751 0.99611 0.67099 0.0
C609 C 0.59626 0.99753 0.71389 0.0
C610 C 0.57914 0.99732 0.69948 0.0
H611 H 0.50632 0.02443 0.62566 0.0
H612 H 0.53104 0.026 0.65257 0.0
H613 H 0.56561 0.02181 0.65849 0.0
H614 H 0.6468 0.00505 0.7168 0.0
H615 H 0.61858 0.0039 0.69353 0.0
C616 C 0.86101 0.22686 0.78121 0.0
C617 C 0.8498 0.24167 0.77608 0.0
C618 C 0.87666 0.22935 0.79522 0.0
C619 C 0.91065 0.26647 0.82205 0.0
H620 H 0.91386 0.22324 0.85921 0.0
C621 C 0.94923 0.25009 0.90131 0.0
C622 C 0.96896 0.25942 0.89935 0.0
C623 C 0.93547 0.24815 0.88564 0.0
C624 C 0.91311 0.23548 0.849 0.0
H625 H 0.84643 0.27085 0.7815 0.0
H626 H 0.87376 0.2752 0.806 0.0
H627 H 0.88859 0.21968 0.8329 0.0
H628 H 0.98959 0.27419 0.87927 0.0
H629 H 0.96548 0.27071 0.85188 0.0
H630 H 0.93493 0.28241 0.83848 0.0
C631 C 0.87059 0.26173 0.79901 0.0
C632 C 0.89878 0.23337 0.83379 0.0
C633 C 0.85492 0.25923 0.78498 0.0
C634 C 0.97453 0.26692 0.88132 0.0
C635 C 0.9607 0.26502 0.86562 0.0
C636 C 0.92505 0.26857 0.83726 0.0
C637 C 0.88148 0.24672 0.80445 0.0
C638 C 0.89728 0.24887 0.82019 0.0
C639 C 0.94104 0.25551 0.86761 0.0
C640 C 0.92632 0.25315 0.851 0.0
H641 H 0.85768 0.21329 0.77437 0.0
H642 H 0.88498 0.21764 0.79885 0.0
H643 H 0.90999 0.27863 0.81171 0.0
H644 H 0.94436 0.24419 0.91496 0.0
H645 H 0.92036 0.24102 0.8877 0.0
C646 C 0.50791 0.95671 0.52894 0.0
C647 C 0.48999 0.95757 0.53668 0.0
C648 C 0.5095 0.94108 0.51854 0.0
C649 C 0.48763 0.8901 0.51275 0.0
H650 H 0.51285 0.89747 0.46555 0.0
C651 C 0.48736 0.82545 0.46859 0.0
C652 C 0.5048 0.82446 0.46008 0.0
C653 C 0.48509 0.84242 0.47642 0.0
C654 C 0.50597 0.89513 0.47882 0.0
H655 H 0.45937 0.94344 0.53869 0.0
H656 H 0.46222 0.91593 0.52081 0.0
H657 H 0.51005 0.92574 0.48234 0.0
H658 H 0.53333 0.84076 0.45261 0.0
H659 H 0.52964 0.87031 0.46677 0.0
H660 H 0.48397 0.85961 0.50967 0.0
C661 C 0.47514 0.92715 0.52306 0.0
C662 C 0.50433 0.91133 0.4884 0.0
C663 C 0.4735 0.94286 0.53329 0.0
C664 C 0.51968 0.84108 0.45902 0.0
C665 C 0.51752 0.85805 0.4671 0.0
C666 C 0.48944 0.87393 0.50331 0.0
C667 C 0.49319 0.92603 0.51568 0.0
C668 C 0.49506 0.90896 0.50542 0.0
C669 C 0.50033 0.8588 0.47622 0.0
C670 C 0.49852 0.8762 0.48615 0.0
H671 H 0.52073 0.96806 0.53106 0.0
H672 H 0.5236 0.94057 0.51306 0.0
H673 H 0.48073 0.8878 0.52601 0.0
H674 H 0.47547 0.81299 0.4694 0.0
H675 H 0.47141 0.8426 0.48283 0.0
C676 C 0.17692 0.30744 0.78759 0.0
C677 C 0.17689 0.3218 0.77264 0.0
C678 C 0.1641 0.30642 0.80188 0.0
C679 C 0.11732 0.31667 0.8139 0.0
H680 H 0.14211 0.31849 0.86491 0.0
C681 C 0.07096 0.31017 0.87906 0.0
C682 C 0.07726 0.29851 0.89463 0.0
C683 C 0.08298 0.31574 0.86397 0.0
C684 C 0.13488 0.31776 0.85079 0.0
H685 H 0.16307 0.34593 0.76049 0.0
H686 H 0.14007 0.34375 0.7854 0.0
H687 H 0.16276 0.32184 0.8384 0.0
H688 H 0.1012 0.28372 0.90661 0.0
H689 H 0.12167 0.29282 0.88038 0.0
H690 H 0.08938 0.31158 0.82625 0.0
C691 C 0.15022 0.33348 0.78606 0.0
C692 C 0.14675 0.31978 0.83563 0.0
C693 C 0.16335 0.33475 0.77191 0.0
C694 C 0.0959 0.29282 0.89493 0.0
C695 C 0.10777 0.2982 0.87986 0.0
C696 C 0.10537 0.31429 0.82912 0.0
C697 C 0.15078 0.31953 0.80133 0.0
C698 C 0.13807 0.31892 0.8171 0.0
C699 C 0.10149 0.30965 0.86413 0.0
C700 C 0.11401 0.31441 0.84779 0.0
H701 H 0.18734 0.2974 0.78854 0.0
H702 H 0.16469 0.29547 0.81349 0.0
H703 H 0.11034 0.31595 0.79968 0.0
H704 H 0.05667 0.31481 0.87844 0.0
H705 H 0.07776 0.32475 0.85218 0.0
C706 C 0.52535 0.57225 0.49328 0.0
C707 C 0.52638 0.56949 0.51307 0.0
C708 C 0.52563 0.59087 0.48435 0.0
C709 C 0.53769 0.64338 0.49405 0.0
H710 H 0.50401 0.65021 0.44819 0.0
C711 C 0.51947 0.7179 0.46606 0.0
C712 C 0.5242 0.72361 0.44744 0.0
C713 C 0.51901 0.69864 0.47314 0.0
C714 C 0.51352 0.64844 0.46096 0.0
H715 H 0.52933 0.58434 0.53895 0.0
H716 H 0.52875 0.61632 0.52354 0.0
H717 H 0.50553 0.61742 0.46232 0.0
H718 H 0.53113 0.71349 0.42133 0.0
H719 H 0.52983 0.67965 0.43365 0.0
H720 H 0.5451 0.67444 0.49298 0.0
C721 C 0.5281 0.60429 0.5148 0.0
C722 C 0.51453 0.62969 0.469 0.0
C723 C 0.52807 0.5858 0.52368 0.0
C724 C 0.52751 0.70951 0.43576 0.0
C725 C 0.52671 0.69016 0.44276 0.0
C726 C 0.5364 0.66206 0.48621 0.0
C727 C 0.52685 0.60711 0.49502 0.0
C728 C 0.52652 0.62693 0.48576 0.0
C729 C 0.52293 0.68468 0.46164 0.0
C730 C 0.52422 0.66477 0.46969 0.0
H731 H 0.52394 0.55999 0.48468 0.0
H732 H 0.52492 0.59251 0.46909 0.0
H733 H 0.5475 0.64187 0.50665 0.0
H734 H 0.51687 0.72844 0.4754 0.0
H735 H 0.5159 0.69469 0.48772 0.0
C736 C 0.84861 0.79098 0.74978 0.0
C737 C 0.84429 0.77818 0.76566 0.0
C738 C 0.86442 0.78947 0.73922 0.0
C739 C 0.89441 0.75369 0.72857 0.0
H740 H 0.92742 0.79857 0.7052 0.0
C741 C 0.95668 0.74476 0.68272 0.0
C742 C 0.95799 0.75629 0.66563 0.0
C743 C 0.94499 0.74862 0.69654 0.0
C744 C 0.91824 0.78588 0.71152 0.0
H745 H 0.85379 0.75469 0.78378 0.0
H746 H 0.88153 0.75204 0.76541 0.0
H747 H 0.90301 0.80324 0.7265 0.0
H748 H 0.94859 0.78141 0.64999 0.0
H749 H 0.92801 0.78797 0.67395 0.0
H750 H 0.90925 0.73632 0.71335 0.0
C751 C 0.87243 0.76294 0.76081 0.0
C752 C 0.90426 0.78856 0.72374 0.0
C753 C 0.85664 0.76448 0.77136 0.0
C754 C 0.94793 0.77222 0.66299 0.0
C755 C 0.93619 0.77605 0.6768 0.0
C756 C 0.90834 0.75101 0.71635 0.0
C757 C 0.87631 0.7752 0.74442 0.0
C758 C 0.89204 0.77249 0.73229 0.0
C759 C 0.93427 0.76408 0.69361 0.0
C760 C 0.92033 0.76706 0.70752 0.0
H761 H 0.83942 0.80183 0.74527 0.0
H762 H 0.8669 0.79908 0.72663 0.0
H763 H 0.88503 0.74098 0.73464 0.0
H764 H 0.96436 0.73246 0.68529 0.0
H765 H 0.94416 0.73932 0.70947 0.0
C766 C 0.04631 0.96396 0.54113 0.0
C767 C 0.04824 0.96665 0.52159 0.0
C768 C 0.04199 0.94518 0.54987 0.0
C769 C 0.04831 0.89555 0.54519 0.0
H770 H 0.00264 0.87894 0.57462 0.0
C771 C 0.01985 0.81484 0.56296 0.0
C772 C 0.01165 0.8087 0.58026 0.0
C773 C 0.02477 0.83455 0.55746 0.0
C774 C 0.01567 0.8834 0.56676 0.0
H775 H 0.04739 0.95197 0.49593 0.0
H776 H 0.04029 0.9192 0.51126 0.0
H777 H 0.01053 0.91285 0.56218 0.0
H778 H 0.00221 0.81858 0.6054 0.0
H779 H 0.01139 0.85322 0.59601 0.0
H780 H 0.05385 0.86647 0.54989 0.0
C781 C 0.0419 0.93158 0.51976 0.0
C782 C 0.02011 0.9028 0.55958 0.0
C783 C 0.04583 0.95029 0.51098 0.0
C784 C 0.00847 0.82284 0.59196 0.0
C785 C 0.01365 0.84269 0.58653 0.0
C786 C 0.0441 0.87631 0.55258 0.0
C787 C 0.03998 0.92884 0.53927 0.0
C788 C 0.03621 0.90889 0.54839 0.0
C789 C 0.02193 0.84879 0.5692 0.0
C790 C 0.02743 0.86982 0.56305 0.0
H791 H 0.04805 0.97637 0.54959 0.0
H792 H 0.04062 0.94341 0.56495 0.0
H793 H 0.06101 0.89999 0.53686 0.0
H794 H 0.02227 0.80438 0.55345 0.0
H795 H 0.03057 0.83858 0.54379 0.0
C796 C 0.15811 0.71208 0.74261 0.0
C797 C 0.16985 0.72857 0.75027 0.0
C798 C 0.1422 0.714 0.72929 0.0
C799 C 0.12394 0.74886 0.69367 0.0
H800 H 0.07322 0.71421 0.69675 0.0
C801 C 0.06309 0.74307 0.63214 0.0
C802 C 0.04341 0.74259 0.6365 0.0
C803 C 0.07817 0.74173 0.64645 0.0
C804 C 0.08726 0.72407 0.69578 0.0
H805 H 0.17422 0.76002 0.74987 0.0
H806 H 0.14643 0.76337 0.72661 0.0
H807 H 0.10016 0.71118 0.72114 0.0
H808 H 0.02418 0.74022 0.65944 0.0
H809 H 0.0506 0.73773 0.68446 0.0
H810 H 0.11111 0.76172 0.66831 0.0
C811 C 0.14955 0.74896 0.7309 0.0
C812 C 0.10273 0.72221 0.70963 0.0
C813 C 0.16534 0.74703 0.74433 0.0
C814 C 0.03917 0.74065 0.65556 0.0
C815 C 0.05427 0.73913 0.6699 0.0
C816 C 0.10856 0.75059 0.67974 0.0
C817 C 0.13781 0.73247 0.72322 0.0
C818 C 0.12125 0.73457 0.7087 0.0
C819 C 0.07394 0.73972 0.66549 0.0
C820 C 0.09007 0.73818 0.68061 0.0
H821 H 0.16114 0.69766 0.74702 0.0
H822 H 0.13352 0.70104 0.72351 0.0
H823 H 0.13809 0.7585 0.69248 0.0
H824 H 0.06693 0.74456 0.61763 0.0
H825 H 0.09315 0.74201 0.6426 0.0
C826 C 0.97266 0.57902 0.49955 0.0
C827 C 0.96382 0.56098 0.50784 0.0
C828 C 0.97565 0.59577 0.50953 0.0
C829 C 0.97809 0.61283 0.55774 0.0
H830 H 0.96628 0.66026 0.53071 0.0
C831 C 0.97113 0.68171 0.59488 0.0
C832 C 0.97907 0.69982 0.58612 0.0
C833 C 0.97042 0.66454 0.58591 0.0
C834 C 0.96989 0.64721 0.53844 0.0
H835 H 0.95181 0.54637 0.5334 0.0
H836 H 0.9566 0.57564 0.55063 0.0
H837 H 0.96309 0.63088 0.51398 0.0
H838 H 0.99275 0.71402 0.56116 0.0
H839 H 0.99176 0.6842 0.54572 0.0
H840 H 0.98466 0.62923 0.58227 0.0
C841 C 0.96138 0.57682 0.53646 0.0
C842 C 0.96808 0.63035 0.52883 0.0
C843 C 0.95841 0.56007 0.52649 0.0
C844 C 0.98661 0.70034 0.56837 0.0
C845 C 0.98587 0.68324 0.55941 0.0
C846 C 0.97986 0.62973 0.56739 0.0
C847 C 0.96987 0.59493 0.52805 0.0
C848 C 0.97216 0.61293 0.53834 0.0
C849 C 0.97755 0.66515 0.56795 0.0
C850 C 0.9758 0.64712 0.55783 0.0
H851 H 0.97687 0.5803 0.48517 0.0
H852 H 0.98248 0.60942 0.5027 0.0
H853 H 0.98159 0.59974 0.56547 0.0
H854 H 0.96516 0.68081 0.60853 0.0
H855 H 0.96377 0.65086 0.59281 0.0
C856 C 0.74203 0.87364 0.25775 0.0
C857 C 0.73788 0.86168 0.24248 0.0
C858 C 0.75622 0.89063 0.25687 0.0
C859 C 0.78796 0.92426 0.22354 0.0
H860 H 0.8194 0.93823 0.26989 0.0
C861 C 0.86653 0.97203 0.22984 0.0
C862 C 0.86803 0.9886 0.24004 0.0
C863 C 0.84913 0.95817 0.22931 0.0
C864 C 0.81058 0.93457 0.25691 0.0
H865 H 0.74531 0.85885 0.21401 0.0
H866 H 0.77098 0.88753 0.21303 0.0
H867 H 0.79222 0.91061 0.2706 0.0
H868 H 0.85253 0.00374 0.25762 0.0
H869 H 0.82226 0.9789 0.2573 0.0
H870 H 0.80749 0.94765 0.20982 0.0
C871 C 0.76281 0.88416 0.22552 0.0
C872 C 0.79488 0.91881 0.25726 0.0
C873 C 0.74826 0.86739 0.22622 0.0
C874 C 0.85174 0.99112 0.24961 0.0
C875 C 0.83449 0.97697 0.24947 0.0
C876 C 0.80399 0.93974 0.22315 0.0
C877 C 0.76712 0.89598 0.24089 0.0
C878 C 0.78336 0.91334 0.24057 0.0
C879 C 0.83311 0.96041 0.23932 0.0
C880 C 0.81541 0.94494 0.23982 0.0
H881 H 0.73469 0.86971 0.27067 0.0
H882 H 0.75869 0.89948 0.26886 0.0
H883 H 0.77926 0.92087 0.21044 0.0
H884 H 0.87881 0.96979 0.22223 0.0
H885 H 0.84836 0.94542 0.22148 0.0
C886 C 0.75044 0.17686 0.24989 0.0
C887 C 0.75588 0.18992 0.2641 0.0
C888 C 0.76146 0.1622 0.24825 0.0
C889 C 0.79812 0.13473 0.27436 0.0
H890 H 0.81028 0.12569 0.22419 0.0
C891 C 0.85797 0.08977 0.26082 0.0
C892 C 0.85411 0.07785 0.24554 0.0
C893 C 0.84499 0.10231 0.26381 0.0
C894 C 0.80681 0.12781 0.23829 0.0
H895 H 0.77637 0.19738 0.28831 0.0
H896 H 0.79587 0.17194 0.28535 0.0
H897 H 0.78944 0.14952 0.22807 0.0
H898 H 0.83319 0.06936 0.22179 0.0
H899 H 0.81051 0.09104 0.22712 0.0
H900 H 0.81569 0.1131 0.28455 0.0
C901 C 0.78311 0.17296 0.27546 0.0
C902 C 0.79484 0.1415 0.24052 0.0
C903 C 0.77207 0.18762 0.27708 0.0
C904 C 0.83671 0.07841 0.23362 0.0
C905 C 0.82375 0.09095 0.23661 0.0
C906 C 0.81011 0.12102 0.27212 0.0
C907 C 0.77807 0.1602 0.26089 0.0
C908 C 0.79039 0.14519 0.25858 0.0
C909 C 0.82785 0.10325 0.25159 0.0
C910 C 0.81465 0.11743 0.25405 0.0
H911 H 0.73777 0.17815 0.23994 0.0
H912 H 0.75693 0.1524 0.23709 0.0
H913 H 0.79477 0.13701 0.28846 0.0
H914 H 0.87124 0.08972 0.27026 0.0
H915 H 0.84871 0.1117 0.27537 0.0
C916 C 0.40911 0.99108 0.96969 0.0
C917 C 0.41979 0.99957 0.98554 0.0
C918 C 0.39182 0.97729 0.97168 0.0
C919 C 0.34982 0.9567 0.97879 0.0
H920 H 0.3488 0.91724 0.02036 0.0
C921 C 0.2786 0.90144 0.99574 0.0
C922 C 0.28115 0.88215 0.00076 0.0
C923 C 0.29512 0.91631 0.99394 0.0
C924 C 0.34886 0.9281 0.00861 0.0
H925 H 0.42077 -2e-05 0.01597 0.0
H926 H 0.39045 0.97618 0.01942 0.0
H927 H 0.37847 0.94181 0.01688 0.0
H928 H 0.3032 0.86342 0.00763 0.0
H929 H 0.33175 0.88917 0.00433 0.0
H930 H 0.32033 0.94262 0.97029 0.0
C931 C 0.39552 0.98008 0.00544 0.0
C932 C 0.3658 0.94233 0.00674 0.0
C933 C 0.4128 0.99388 0.00345 0.0
C934 C 0.30059 0.8781 0.00383 0.0
C935 C 0.31703 0.89291 0.00206 0.0
C936 C 0.33283 0.94245 0.98068 0.0
C937 C 0.38481 0.97162 0.98959 0.0
C938 C 0.36655 0.95674 0.99175 0.0
C939 C 0.31454 0.91221 0.99719 0.0
C940 C 0.33221 0.92788 0.99553 0.0
H941 H 0.41398 0.99529 0.95568 0.0
H942 H 0.38406 0.97089 0.9592 0.0
H943 H 0.34981 0.96773 0.96721 0.0
H944 H 0.26386 0.90511 0.99328 0.0
H945 H 0.29269 0.93106 0.99031 0.0
C946 C 0.27239 0.3286 0.2966 0.0
C947 C 0.28194 0.32388 0.31423 0.0
C948 C 0.25934 0.34197 0.29481 0.0
C949 C 0.24491 0.38131 0.31996 0.0
H950 H 0.20023 0.37591 0.28225 0.0
C951 C 0.18855 0.43415 0.31174 0.0
C952 C 0.18719 0.44332 0.29349 0.0
C953 C 0.1974 0.41753 0.31511 0.0
C954 C 0.21261 0.37753 0.29289 0.0
H955 H 0.28522 0.32994 0.34381 0.0
H956 H 0.26176 0.35227 0.3409 0.0
H957 H 0.22136 0.35111 0.28672 0.0
H958 H 0.19271 0.44156 0.26431 0.0
H959 H 0.20756 0.41226 0.27012 0.0
H960 H 0.23589 0.40766 0.32621 0.0
C961 C 0.26468 0.34602 0.3283 0.0
C962 C 0.22487 0.36343 0.29536 0.0
C963 C 0.27796 0.33289 0.33003 0.0
C964 C 0.19359 0.43482 0.27852 0.0
C965 C 0.20204 0.41802 0.28183 0.0
C966 C 0.23245 0.39522 0.3177 0.0
C967 C 0.25521 0.35083 0.31065 0.0
C968 C 0.24141 0.36527 0.30872 0.0
C969 C 0.20461 0.40957 0.30023 0.0
C970 C 0.21636 0.39363 0.30396 0.0
H971 H 0.2748 0.32182 0.28412 0.0
H972 H 0.25266 0.34549 0.28091 0.0
H973 H 0.25764 0.38353 0.33016 0.0
H974 H 0.18388 0.44045 0.32357 0.0
H975 H 0.19911 0.4112 0.32942 0.0
C976 C 0.09479 0.04052 0.53189 0.0
C977 C 0.09384 0.03064 0.51545 0.0
C978 C 0.11213 0.05321 0.5375 0.0
C979 C 0.16558 0.06353 0.53532 0.0
H980 H 0.16189 0.11749 0.5396 0.0
C981 C 0.23563 0.12325 0.54263 0.0
C982 C 0.23453 0.13984 0.55193 0.0
C983 C 0.2187 0.10906 0.53954 0.0
C984 C 0.16326 0.10242 0.53894 0.0
H985 H 0.11003 0.02571 0.49218 0.0
H986 H 0.14069 0.04751 0.50231 0.0
H987 H 0.13192 0.09415 0.53227 0.0
H988 H 0.21528 0.15408 0.56632 0.0
H989 H 0.18615 0.12891 0.56206 0.0
H990 H 0.19675 0.07145 0.54255 0.0
C991 C 0.128 0.04561 0.51071 0.0
C992 C 0.14603 0.0891 0.53458 0.0
C993 C 0.11052 0.03327 0.50489 0.0
C994 C 0.21646 0.14154 0.55886 0.0
C995 C 0.1997 0.12716 0.55623 0.0
C996 C 0.18281 0.07676 0.54011 0.0
C997 C 0.12888 0.05581 0.52697 0.0
C998 C 0.14706 0.0696 0.53255 0.0
C999 C 0.20039 0.11092 0.5461 0.0
C1000 C 0.18195 0.09648 0.54182 0.0
H1001 H 0.08203 0.03862 0.5402 0.0
H1002 H 0.11252 0.06092 0.5501 0.0
H1003 H 0.16668 0.04849 0.53392 0.0
H1004 H 0.24937 0.12166 0.53702 0.0
H1005 H 0.2199 0.09699 0.53145 0.0
C1006 C 0.7955 0.18123 0.75166 0.0
C1007 C 0.78846 0.19897 0.75006 0.0
C1008 C 0.78228 0.16362 0.75334 0.0
C1009 C 0.73428 0.14255 0.77059 0.0
H1010 H 0.73808 0.09881 0.7421 0.0
C1011 C 0.68227 0.06877 0.78192 0.0
C1012 C 0.69091 0.05205 0.78203 0.0
C1013 C 0.6926 0.08696 0.77574 0.0
C1014 C 0.73694 0.1108 0.75032 0.0
H1015 H 0.76214 0.21223 0.74885 0.0
H1016 H 0.73899 0.18135 0.75207 0.0
H1017 H 0.75939 0.13011 0.73568 0.0
H1018 H 0.71705 0.04123 0.77557 0.0
H1019 H 0.73526 0.07286 0.76538 0.0
H1020 H 0.71251 0.12321 0.78582 0.0
C1021 C 0.75473 0.18113 0.75191 0.0
C1022 C 0.74909 0.12874 0.74656 0.0
C1023 C 0.76793 0.19875 0.74995 0.0
C1024 C 0.70991 0.05382 0.77551 0.0
C1025 C 0.72033 0.072 0.76955 0.0
C1026 C 0.72231 0.12455 0.77453 0.0
C1027 C 0.7618 0.1634 0.75372 0.0
C1028 C 0.74802 0.14473 0.75679 0.0
C1029 C 0.7119 0.08886 0.76975 0.0
C1030 C 0.72362 0.10836 0.76459 0.0
H1031 H 0.81125 0.18101 0.75166 0.0
H1032 H 0.78814 0.15016 0.75486 0.0
H1033 H 0.73331 0.15459 0.77883 0.0
H1034 H 0.66758 0.06784 0.78674 0.0
H1035 H 0.68547 0.09953 0.77576 0.0
C1036 C 0.44693 0.03396 0.59365 0.0
C1037 C 0.44318 0.01495 0.58763 0.0
C1038 C 0.43203 0.04539 0.59154 0.0
C1039 C 0.3853 0.05132 0.56389 0.0
H1040 H 0.37794 0.08164 0.6049 0.0
C1041 C 0.33801 0.11287 0.55572 0.0
C1042 C 0.32633 0.11427 0.57059 0.0
C1043 C 0.35105 0.09947 0.55732 0.0
C1044 C 0.37969 0.07315 0.59336 0.0
H1045 H 0.42058 0.993 0.57492 0.0
H1046 H 0.39472 0.01309 0.57098 0.0
H1047 H 0.40318 0.06086 0.60892 0.0
H1048 H 0.31863 0.10213 0.5985 0.0
H1049 H 0.34132 0.07883 0.60124 0.0
H1050 H 0.3618 0.06369 0.54833 0.0
C1051 C 0.40928 0.01917 0.57719 0.0
C1052 C 0.3943 0.0614 0.5956 0.0
C1053 C 0.42413 0.00768 0.57943 0.0
C1054 C 0.32747 0.10152 0.5868 0.0
C1055 C 0.34057 0.08824 0.58844 0.0
C1056 C 0.37078 0.06322 0.56159 0.0
C1057 C 0.41306 0.03815 0.58323 0.0
C1058 C 0.3973 0.05039 0.58089 0.0
C1059 C 0.35276 0.08728 0.57386 0.0
C1060 C 0.36783 0.07427 0.57631 0.0
H1061 H 0.4615 0.04019 0.59971 0.0
H1062 H 0.43549 0.06005 0.5961 0.0
H1063 H 0.38736 0.04311 0.55225 0.0
H1064 H 0.33748 0.12245 0.54302 0.0
H1065 H 0.36032 0.09915 0.54588 0.0
C1066 C 0.57182 0.49084 0.49912 0.0
C1067 C 0.55241 0.48104 0.50181 0.0
C1068 C 0.58635 0.48071 0.49453 0.0
C1069 C 0.59301 0.43567 0.47445 0.0
H1070 H 0.64398 0.44305 0.50359 0.0
C1071 C 0.64545 0.37975 0.4797 0.0
C1072 C 0.6661 0.38598 0.48231 0.0
C1073 C 0.63243 0.39303 0.47888 0.0
C1074 C 0.63001 0.44107 0.49501 0.0
H1075 H 0.53266 0.45326 0.50078 0.0
H1076 H 0.55801 0.4355 0.49275 0.0
H1077 H 0.61953 0.46305 0.50848 0.0
H1078 H 0.68933 0.41128 0.48495 0.0
H1079 H 0.66657 0.4346 0.48315 0.0
H1080 H 0.60337 0.41361 0.46107 0.0
C1081 C 0.56206 0.45098 0.49435 0.0
C1082 C 0.61596 0.45251 0.49789 0.0
C1083 C 0.5476 0.46108 0.4991 0.0
C1084 C 0.67349 0.40598 0.48303 0.0
C1085 C 0.66043 0.41933 0.48215 0.0
C1086 C 0.60711 0.42434 0.47147 0.0
C1087 C 0.58164 0.46064 0.49216 0.0
C1088 C 0.59716 0.44966 0.48792 0.0
C1089 C 0.63971 0.41295 0.48055 0.0
C1090 C 0.62565 0.4266 0.482 0.0
H1091 H 0.57578 0.50633 0.50068 0.0
H1092 H 0.60123 0.4886 0.49268 0.0
H1093 H 0.57878 0.43339 0.46631 0.0
H1094 H 0.63922 0.36445 0.47906 0.0
H1095 H 0.61661 0.38749 0.47785 0.0
C1096 C 0.70163 0.26331 0.31421 0.0
C1097 C 0.70698 0.24475 0.31502 0.0
C1098 C 0.7041 0.2739 0.33028 0.0
C1099 C 0.7327 0.27883 0.37612 0.0
H1100 H 0.68889 0.30074 0.39105 0.0
C1101 C 0.73206 0.30233 0.45094 0.0
C1102 C 0.72374 0.31869 0.4538 0.0
C1103 C 0.73051 0.2951 0.43316 0.0
C1104 C 0.7014 0.29503 0.38693 0.0
H1105 H 0.71895 0.2228 0.33362 0.0
H1106 H 0.72374 0.2415 0.36142 0.0
H1107 H 0.6854 0.28488 0.36142 0.0
H1108 H 0.70733 0.34035 0.44001 0.0
H1109 H 0.70493 0.32788 0.40872 0.0
H1110 H 0.74881 0.28899 0.40143 0.0
C1111 C 0.71771 0.24785 0.34828 0.0
C1112 C 0.69936 0.28589 0.36998 0.0
C1113 C 0.71503 0.23717 0.3323 0.0
C1114 C 0.71387 0.3277 0.43832 0.0
C1115 C 0.71241 0.32049 0.4204 0.0
C1116 C 0.73482 0.28812 0.39293 0.0
C1117 C 0.71223 0.26629 0.34747 0.0
C1118 C 0.71486 0.27736 0.36461 0.0
C1119 C 0.72075 0.30409 0.41762 0.0
C1120 C 0.71905 0.29596 0.39878 0.0
H1121 H 0.69572 0.26979 0.3011 0.0
H1122 H 0.69992 0.28816 0.32922 0.0
H1123 H 0.74502 0.2727 0.37216 0.0
H1124 H 0.73963 0.29486 0.46251 0.0
H1125 H 0.7367 0.28219 0.4317 0.0
C1126 C 0.51714 0.02752 0.93441 0.0
C1127 C 0.49694 0.02303 0.92822 0.0
C1128 C 0.53156 0.02136 0.92484 0.0
C1129 C 0.54037 0.00714 0.87826 0.0
H1130 H 0.5855 0.98836 0.90545 0.0
C1131 C 0.60237 0.98545 0.83895 0.0
C1132 C 0.62191 0.99247 0.84605 0.0
C1133 C 0.58624 0.98617 0.84946 0.0
C1134 C 0.57306 0.99368 0.89763 0.0
H1135 H 0.47591 0.0086 0.9072 0.0
H1136 H 0.50109 0.99781 0.89042 0.0
H1137 H 0.5591 0.99577 0.92287 0.0
H1138 H 0.63982 0.00499 0.8701 0.0
H1139 H 0.61189 0.00645 0.88818 0.0
H1140 H 0.55453 0.00558 0.85306 0.0
C1141 C 0.50581 0.00613 0.90265 0.0
C1142 C 0.55793 0.99793 0.90763 0.0
C1143 C 0.49139 0.01221 0.9123 0.0
C1144 C 0.62498 0.99947 0.86417 0.0
C1145 C 0.60891 0.00019 0.87463 0.0
C1146 C 0.55555 0.00298 0.86826 0.0
C1147 C 0.52608 0.0107 0.90876 0.0
C1148 C 0.54153 0.00496 0.89808 0.0
C1149 C 0.5893 0.99388 0.86729 0.0
C1150 C 0.57225 0.99647 0.87783 0.0
H1151 H 0.52177 0.036 0.94655 0.0
H1152 H 0.54705 0.02537 0.92975 0.0
H1153 H 0.52806 0.01273 0.87048 0.0
H1154 H 0.59948 0.97992 0.82506 0.0
H1155 H 0.57134 0.98092 0.84349 0.0
C1156 C 0.31318 0.27863 0.36982 0.0
C1157 C 0.31039 0.27042 0.35229 0.0
C1158 C 0.31342 0.2668 0.38656 0.0
C1159 C 0.32348 0.23819 0.41925 0.0
H1160 H 0.27737 0.19779 0.42576 0.0
C1161 C 0.31155 0.19184 0.48969 0.0
C1162 C 0.29337 0.19305 0.49676 0.0
C1163 C 0.31497 0.19793 0.47088 0.0
C1164 C 0.29043 0.20888 0.42406 0.0
H1165 H 0.30582 0.24346 0.33844 0.0
H1166 H 0.30575 0.2226 0.36789 0.0
H1167 H 0.28182 0.21553 0.39494 0.0
H1168 H 0.26413 0.20043 0.48943 0.0
H1169 H 0.26995 0.21061 0.4566 0.0
H1170 H 0.33182 0.23191 0.44849 0.0
C1171 C 0.30795 0.23823 0.36859 0.0
C1172 C 0.29303 0.21894 0.40643 0.0
C1173 C 0.30807 0.25013 0.3518 0.0
C1174 C 0.27833 0.19943 0.48442 0.0
C1175 C 0.28161 0.20514 0.46559 0.0
C1176 C 0.32105 0.22792 0.43679 0.0
C1177 C 0.31056 0.24647 0.38613 0.0
C1178 C 0.3093 0.23405 0.40401 0.0
C1179 C 0.30011 0.20491 0.45874 0.0
C1180 C 0.30423 0.21352 0.43949 0.0
H1181 H 0.31512 0.29425 0.37056 0.0
H1182 H 0.31526 0.27352 0.39988 0.0
H1183 H 0.33621 0.2497 0.41771 0.0
H1184 H 0.32344 0.18705 0.49889 0.0
H1185 H 0.32935 0.19756 0.46591 0.0
C1186 C 0.50263 0.50692 0.94541 0.0
C1187 C 0.50739 0.52351 0.95578 0.0
C1188 C 0.49149 0.50746 0.92804 0.0
C1189 C 0.4765 0.54202 0.88948 0.0
H1190 H 0.43999 0.49631 0.87351 0.0
C1191 C 0.43037 0.54153 0.81743 0.0
C1192 C 0.4317 0.52591 0.80673 0.0
C1193 C 0.43711 0.54134 0.83656 0.0
C1194 C 0.45015 0.50918 0.87778 0.0
H1195 H 0.50346 0.55338 0.95662 0.0
H1196 H 0.48364 0.5543 0.92643 0.0
H1197 H 0.45652 0.49595 0.90524 0.0
H1198 H 0.44028 0.49747 0.80798 0.0
H1199 H 0.45181 0.49711 0.84126 0.0
H1200 H 0.47011 0.55519 0.86195 0.0
C1201 C 0.489 0.54102 0.93141 0.0
C1202 C 0.45971 0.50896 0.89593 0.0
C1203 C 0.50027 0.54049 0.94874 0.0
C1204 C 0.43912 0.50978 0.81577 0.0
C1205 C 0.44563 0.50951 0.83489 0.0
C1206 C 0.46681 0.54228 0.87139 0.0
C1207 C 0.48459 0.52455 0.92075 0.0
C1208 C 0.47329 0.52526 0.90192 0.0
C1209 C 0.44505 0.52543 0.84541 0.0
C1210 C 0.45378 0.52576 0.86523 0.0
H1211 H 0.50775 0.49358 0.95068 0.0
H1212 H 0.48864 0.49457 0.92017 0.0
H1213 H 0.48704 0.55475 0.89346 0.0
H1214 H 0.42475 0.55418 0.81091 0.0
H1215 H 0.43633 0.55374 0.84437 0.0
C1216 C 0.71862 0.75658 0.208 0.0
C1217 C 0.71859 0.77621 0.20216 0.0
C1218 C 0.72909 0.74546 0.19853 0.0
C1219 C 0.76833 0.74988 0.16483 0.0
H1220 H 0.7422 0.69804 0.15279 0.0
C1221 C 0.78704 0.71229 0.10232 0.0
C1222 C 0.78899 0.69261 0.10488 0.0
C1223 C 0.78038 0.72139 0.11653 0.0
C1224 C 0.74982 0.71236 0.1563 0.0
H1225 H 0.73007 0.79991 0.18249 0.0
H1226 H 0.74797 0.78053 0.16565 0.0
H1227 H 0.72698 0.71625 0.17344 0.0
H1228 H 0.78554 0.66699 0.12437 0.0
H1229 H 0.77342 0.68295 0.14928 0.0
H1230 H 0.79073 0.74626 0.14704 0.0
C1231 C 0.74012 0.77365 0.17762 0.0
C1232 C 0.74113 0.72281 0.16815 0.0
C1233 C 0.72972 0.78474 0.18712 0.0
C1234 C 0.78419 0.68219 0.12203 0.0
C1235 C 0.77721 0.69127 0.13623 0.0
C1236 C 0.7769 0.73951 0.15289 0.0
C1237 C 0.73982 0.75382 0.18309 0.0
C1238 C 0.75006 0.74188 0.17221 0.0
C1239 C 0.77532 0.71099 0.13359 0.0
C1240 C 0.76752 0.72083 0.14817 0.0
H1241 H 0.71034 0.74982 0.21976 0.0
H1242 H 0.72879 0.73034 0.20332 0.0
H1243 H 0.77588 0.76432 0.16802 0.0
H1244 H 0.79074 0.72076 0.08931 0.0
H1245 H 0.77883 0.73652 0.114 0.0
C1246 C 0.97321 0.01708 0.06013 0.0
C1247 C 0.99209 0.01189 0.06021 0.0
C1248 C 0.96379 0.01594 0.07684 0.0
C1249 C 0.97727 0.01865 0.12756 0.0
H1250 H 0.92021 0.00831 0.1312 0.0
C1251 C 0.94335 0.02581 0.1969 0.0
C1252 C 0.92695 0.03546 0.19558 0.0
C1253 C 0.95011 0.02004 0.18075 0.0
C1254 C 0.93617 0.01134 0.13036 0.0
H1255 H 0.01522 8e-05 0.07766 0.0
H1256 H 0.99856 0.99763 0.1068 0.0
H1257 H 0.93383 0.00194 0.10231 0.0
H1258 H 0.9046 0.04636 0.17624 0.0
H1259 H 0.9166 0.03652 0.14794 0.0
H1260 H 0.97967 0.02844 0.15536 0.0
C1261 C 0.99123 0.00299 0.09386 0.0
C1262 C 0.94398 0.00765 0.11383 0.0
C1263 C 1.00067 0.00416 0.07712 0.0
C1264 C 0.91727 0.03895 0.17774 0.0
C1265 C 0.92405 0.03318 0.16154 0.0
C1266 C 0.96948 0.02231 0.14405 0.0
C1267 C 0.97301 0.00952 0.09403 0.0
C1268 C 0.96462 0.01147 0.11216 0.0
C1269 C 0.9407 0.02384 0.16285 0.0
C1270 C 0.94884 0.0189 0.14559 0.0
H1271 H 0.96609 0.02285 0.04725 0.0
H1272 H 0.94981 0.02115 0.07642 0.0
H1273 H 0.9932 0.02217 0.12665 0.0
H1274 H 0.95125 0.02297 0.21038 0.0
H1275 H 0.96281 0.01267 0.18229 0.0
C1276 C 0.28063 0.77037 0.18869 0.0
C1277 C 0.28643 0.78326 0.20301 0.0
C1278 C 0.27372 0.77708 0.17077 0.0
C1279 C 0.27278 0.82232 0.1398 0.0
H1280 H 0.23126 0.78912 0.11123 0.0
C1281 C 0.23296 0.84804 0.06944 0.0
C1282 C 0.23098 0.83547 0.05478 0.0
C1283 C 0.23977 0.84211 0.08769 0.0
C1284 C 0.24295 0.79849 0.11901 0.0
H1285 H 0.28844 0.81297 0.21023 0.0
H1286 H 0.27589 0.82469 0.17905 0.0
H1287 H 0.24254 0.77799 0.14296 0.0
H1288 H 0.23449 0.80682 0.04775 0.0
H1289 H 0.24621 0.79644 0.07964 0.0
H1290 H 0.27281 0.84295 0.11583 0.0
C1291 C 0.27741 0.80955 0.18139 0.0
C1292 C 0.24949 0.79211 0.13717 0.0
C1293 C 0.28451 0.80285 0.19928 0.0
C1294 C 0.23594 0.81687 0.05873 0.0
C1295 C 0.24251 0.81087 0.077 0.0
C1296 C 0.26606 0.82879 0.12169 0.0
C1297 C 0.27201 0.79676 0.16687 0.0
C1298 C 0.26462 0.80386 0.14775 0.0
C1299 C 0.24446 0.82341 0.09166 0.0
C1300 C 0.25121 0.81686 0.11107 0.0
H1301 H 0.28156 0.7551 0.19132 0.0
H1302 H 0.26991 0.76683 0.15993 0.0
H1303 H 0.28465 0.83166 0.14739 0.0
H1304 H 0.22926 0.86246 0.06681 0.0
H1305 H 0.24103 0.85201 0.09877 0.0
C1306 C 0.00789 0.47317 0.13456 0.0
C1307 C 0.00205 0.49022 0.12581 0.0
C1308 C 0.02199 0.47407 0.15004 0.0
C1309 C 0.04539 0.47926 0.18828 0.0
H1310 H 0.092 0.5196 0.18498 0.0
C1311 C 0.10811 0.49187 0.24889 0.0
C1312 C 0.12773 0.4957 0.24342 0.0
C1313 C 0.09195 0.49114 0.23531 0.0
C1314 C 0.07911 0.5082 0.1861 0.0
H1315 H 0.00625 0.52155 0.1267 0.0
H1316 H 0.03068 0.5231 0.15385 0.0
H1317 H 0.06513 0.51845 0.16012 0.0
H1318 H 0.14559 0.50143 0.21927 0.0
H1319 H 0.11753 0.50006 0.19579 0.0
H1320 H 0.05967 0.46878 0.21409 0.0
C1321 C 0.02448 0.50905 0.14862 0.0
C1322 C 0.06359 0.50768 0.17195 0.0
C1323 C 0.01032 0.50814 0.13317 0.0
C1324 C 0.13073 0.49853 0.22407 0.0
C1325 C 0.11463 0.49788 0.21056 0.0
C1326 C 0.0609 0.47984 0.2025 0.0
C1327 C 0.03063 0.49204 0.15712 0.0
C1328 C 0.04661 0.49311 0.17276 0.0
C1329 C 0.09505 0.49435 0.216 0.0
C1330 C 0.07805 0.49419 0.20145 0.0
H1331 H 0.00163 0.45911 0.12939 0.0
H1332 H 0.02651 0.46072 0.15614 0.0
H1333 H 0.03243 0.46795 0.18942 0.0
H1334 H 0.10523 0.48962 0.26366 0.0
H1335 H 0.07704 0.48849 0.23996 0.0
C1336 C 0.35913 0.73012 0.28254 0.0
C1337 C 0.34721 0.74422 0.27676 0.0
C1338 C 0.37494 0.7339 0.29624 0.0
C1339 C 0.3919 0.76398 0.33617 0.0
H1340 H 0.44214 0.74699 0.33265 0.0
C1341 C 0.47433 0.76981 0.37923 0.0
C1342 C 0.46858 0.76459 0.39766 0.0
C1343 C 0.46016 0.76841 0.3638 0.0
C1344 C 0.42826 0.75198 0.33376 0.0
H1345 H 0.34268 0.77341 0.28066 0.0
H1346 H 0.37042 0.78007 0.30452 0.0
H1347 H 0.41659 0.74295 0.30642 0.0
H1348 H 0.44332 0.75388 0.41425 0.0
H1349 H 0.41874 0.75143 0.38738 0.0
H1350 H 0.40351 0.77296 0.36351 0.0
C1351 C 0.36744 0.76605 0.29852 0.0
C1352 C 0.41357 0.7495 0.31882 0.0
C1353 C 0.35168 0.76231 0.28474 0.0
C1354 C 0.44832 0.75803 0.40028 0.0
C1355 C 0.43418 0.75675 0.38488 0.0
C1356 C 0.40653 0.76636 0.35113 0.0
C1357 C 0.37914 0.75182 0.30454 0.0
C1358 C 0.39517 0.75534 0.31993 0.0
C1359 C 0.43993 0.7619 0.36647 0.0
C1360 C 0.4248 0.76023 0.35017 0.0
H1361 H 0.35617 0.71612 0.2765 0.0
H1362 H 0.38357 0.72258 0.30069 0.0
H1363 H 0.37782 0.76848 0.33753 0.0
H1364 H 0.4898 0.77492 0.37669 0.0
H1365 H 0.46502 0.77262 0.34978 0.0
C1366 C 0.97364 0.43918 0.03497 0.0
C1367 C 0.99031 0.45372 0.03827 0.0
C1368 C 0.975 0.42334 0.0248 0.0
C1369 C 0.00375 0.4069 0.99015 0.0
H1370 H 0.983 0.35539 0.0117 0.0
C1371 C 0.01878 0.33635 0.9613 0.0
C1372 C 0.00389 0.31973 0.96244 0.0
C1373 C 0.01663 0.35337 0.96926 0.0
C1374 C 0.98857 0.36965 0.00526 0.0
H1375 H 0.02108 0.46378 0.03253 0.0
H1376 H 0.02347 0.43607 0.01464 0.0
H1377 H 0.98005 0.3838 0.02788 0.0
H1378 H 0.97458 0.30833 0.97183 0.0
H1379 H 0.97053 0.33807 0.98506 0.0
H1380 H 0.01209 0.39278 0.96739 0.0
C1381 C 0.00944 0.4368 0.02015 0.0
C1382 C 0.98693 0.38594 0.01461 0.0
C1383 C 0.00813 0.45256 0.03049 0.0
C1384 C 0.98646 0.32078 0.97094 0.0
C1385 C 0.9842 0.33783 0.97866 0.0
C1386 C 0.00522 0.39059 0.98066 0.0
C1387 C 0.99295 0.42192 0.01739 0.0
C1388 C 0.99453 0.40473 0.00719 0.0
C1389 C 0.99944 0.35421 0.97834 0.0
C1390 C 0.99766 0.37173 0.98811 0.0
H1391 H 0.95958 0.43999 0.04038 0.0
H1392 H 0.96195 0.41224 0.02262 0.0
H1393 H 0.00959 0.42124 0.98402 0.0
H1394 H 0.03243 0.33598 0.9549 0.0
H1395 H 0.02876 0.36562 0.96886 0.0
C1396 C 0.67553 0.80526 0.28391 0.0
C1397 C 0.67798 0.82099 0.27029 0.0
C1398 C 0.66091 0.80344 0.29662 0.0
C1399 C 0.62935 0.83181 0.3182 0.0
H1400 H 0.60402 0.78028 0.33605 0.0
C1401 C 0.56968 0.81315 0.37452 0.0
C1402 C 0.57568 0.80069 0.3896 0.0
C1403 C 0.58046 0.81711 0.35843 0.0
C1404 C 0.61091 0.79476 0.3311 0.0
H1405 H 0.66679 0.84697 0.25904 0.0
H1406 H 0.64088 0.84362 0.28111 0.0
H1407 H 0.62527 0.78391 0.30996 0.0
H1408 H 0.59794 0.78301 0.39975 0.0
H1409 H 0.6163 0.78962 0.37169 0.0
H1410 H 0.61475 0.84248 0.33955 0.0
C1411 C 0.65053 0.83287 0.28217 0.0
C1412 C 0.62319 0.79686 0.31626 0.0
C1413 C 0.66532 0.83478 0.26951 0.0
C1414 C 0.59285 0.79266 0.38843 0.0
C1415 C 0.60334 0.79634 0.37232 0.0
C1416 C 0.61678 0.82969 0.33293 0.0
C1417 C 0.6482 0.8172 0.29594 0.0
C1418 C 0.63309 0.81535 0.31001 0.0
C1419 C 0.59712 0.80837 0.3571 0.0
C1420 C 0.60795 0.8111 0.33983 0.0
H1421 H 0.68531 0.79461 0.28508 0.0
H1422 H 0.65992 0.79144 0.3073 0.0
H1423 H 0.63681 0.84625 0.31384 0.0
H1424 H 0.55652 0.81957 0.37504 0.0
H1425 H 0.57546 0.82649 0.34682 0.0
C1426 C 0.01838 0.07748 0.02204 0.0
C1427 C 0.0188 0.06203 0.0108 0.0
C1428 C 0.01898 0.09637 0.01397 0.0
C1429 C 0.01099 0.12437 0.96827 0.0
H1430 H 0.03822 0.16756 0.99658 0.0
C1431 C 0.02729 0.20493 0.93822 0.0
C1432 C 0.02322 0.21882 0.94974 0.0
C1433 C 0.02571 0.18542 0.94487 0.0
C1434 C 0.03042 0.15564 0.98859 0.0
H1435 H 0.0206 0.05452 0.98222 0.0
H1436 H 0.02252 0.08774 0.96819 0.0
H1437 H 0.03891 0.1344 0.00947 0.0
H1438 H 0.01381 0.22312 0.97705 0.0
H1439 H 0.01134 0.18904 0.98876 0.0
H1440 H 0.00305 0.14589 0.94715 0.0
C1441 C 0.02117 0.0851 0.98323 0.0
C1442 C 0.03075 0.13661 0.99598 0.0
C1443 C 0.02035 0.06608 0.9913 0.0
C1444 C 0.01702 0.21275 0.96785 0.0
C1445 C 0.01572 0.19329 0.97459 0.0
C1446 C 0.0109 0.14346 0.96076 0.0
C1447 C 0.02038 0.10047 0.99447 0.0
C1448 C 0.02084 0.12071 0.98603 0.0
C1449 C 0.02032 0.17951 0.96326 0.0
C1450 C 0.02044 0.15925 0.97097 0.0
H1451 H 0.0176 0.07501 0.03716 0.0
H1452 H 0.01805 0.10772 0.02308 0.0
H1453 H 0.00297 0.11252 0.96032 0.0
H1454 H 0.03205 0.20919 0.92418 0.0
H1455 H 0.0294 0.17508 0.93589 0.0
C1456 C 0.35364 0.26508 0.26652 0.0
C1457 C 0.3428 0.28037 0.26323 0.0
C1458 C 0.36893 0.2639 0.25518 0.0
C1459 C 0.38618 0.28052 0.208 0.0
H1460 H 0.43382 0.26102 0.22814 0.0
C1461 C 0.44816 0.27428 0.1604 0.0
C1462 C 0.45566 0.25676 0.16281 0.0
C1463 C 0.43615 0.27895 0.17357 0.0
C1464 C 0.42054 0.26639 0.22228 0.0
H1465 H 0.34011 0.30703 0.24637 0.0
H1466 H 0.36697 0.30516 0.22658 0.0
H1467 H 0.40964 0.266 0.24953 0.0
H1468 H 0.45695 0.23075 0.18133 0.0
H1469 H 0.43594 0.23884 0.20417 0.0
H1470 H 0.39692 0.28067 0.18075 0.0
C1471 C 0.36336 0.29377 0.23758 0.0
C1472 C 0.40667 0.26923 0.23454 0.0
C1473 C 0.34806 0.29492 0.24893 0.0
C1474 C 0.45142 0.24436 0.17901 0.0
C1475 C 0.43944 0.24905 0.19219 0.0
C1476 C 0.40006 0.27771 0.19576 0.0
C1477 C 0.37381 0.2781 0.24039 0.0
C1478 C 0.3892 0.27614 0.22754 0.0
C1479 C 0.43139 0.26625 0.18948 0.0
C1480 C 0.41732 0.27042 0.20271 0.0
H1481 H 0.35001 0.25381 0.27764 0.0
H1482 H 0.37653 0.25155 0.25768 0.0
H1483 H 0.37277 0.28556 0.20206 0.0
H1484 H 0.4512 0.28422 0.14813 0.0
H1485 H 0.43043 0.29246 0.1712 0.0
C1486 C 0.54561 0.44936 0.00918 0.0
C1487 C 0.55329 0.46522 0.02007 0.0
C1488 C 0.54169 0.43049 0.01762 0.0
C1489 C 0.53386 0.40269 0.0638 0.0
H1490 H 0.54421 0.36044 0.03659 0.0
C1491 C 0.50657 0.32144 0.08645 0.0
C1492 C 0.51839 0.30788 0.08295 0.0
C1493 C 0.51172 0.34104 0.08017 0.0
C1494 C 0.54146 0.37204 0.04455 0.0
H1495 H 0.56266 0.47354 0.04854 0.0
H1496 H 0.5565 0.44053 0.06317 0.0
H1497 H 0.55179 0.39359 0.02303 0.0
H1498 H 0.54551 0.30451 0.0711 0.0
H1499 H 0.55477 0.33863 0.06073 0.0
H1500 H 0.52404 0.38108 0.08559 0.0
C1501 C 0.55318 0.44274 0.04811 0.0
C1502 C 0.54552 0.39109 0.0366 0.0
C1503 C 0.55698 0.46167 0.03966 0.0
C1504 C 0.53591 0.31451 0.0738 0.0
C1505 C 0.54116 0.33409 0.06773 0.0
C1506 C 0.52991 0.38359 0.07184 0.0
C1507 C 0.54552 0.4269 0.03718 0.0
C1508 C 0.54164 0.40667 0.04603 0.0
C1509 C 0.5289 0.34754 0.07042 0.0
C1510 C 0.53359 0.36801 0.06228 0.0
H1511 H 0.54281 0.45146 0.99403 0.0
H1512 H 0.53551 0.41872 0.00877 0.0
H1513 H 0.5305 0.41428 0.07141 0.0
H1514 H 0.49294 0.31679 0.09341 0.0
H1515 H 0.50181 0.35091 0.08236 0.0
C1516 C 0.65565 0.20677 0.24811 0.0
C1517 C 0.66661 0.22374 0.25557 0.0
C1518 C 0.63934 0.20775 0.23503 0.0
C1519 C 0.60374 0.23997 0.21551 0.0
H1520 H 0.59756 0.20786 0.173 0.0
C1521 C 0.56148 0.23533 0.13613 0.0
C1522 C 0.54235 0.23817 0.13951 0.0
C1523 C 0.57559 0.23282 0.15106 0.0
C1524 C 0.59911 0.217 0.18473 0.0
H1525 H 0.66909 0.25505 0.25508 0.0
H1526 H 0.64083 0.25681 0.2321 0.0
H1527 H 0.6242 0.20525 0.19747 0.0
H1528 H 0.52311 0.24051 0.16143 0.0
H1529 H 0.54778 0.23587 0.18758 0.0
H1530 H 0.57905 0.25222 0.20234 0.0
C1531 C 0.64455 0.24268 0.23663 0.0
C1532 C 0.61425 0.21532 0.19892 0.0
C1533 C 0.66079 0.24169 0.24977 0.0
C1534 C 0.5377 0.2384 0.15829 0.0
C1535 C 0.55187 0.23583 0.17328 0.0
C1536 C 0.5886 0.24168 0.20128 0.0
C1537 C 0.63367 0.22573 0.22901 0.0
C1538 C 0.61689 0.22691 0.21441 0.0
C1539 C 0.57098 0.23297 0.16983 0.0
C1540 C 0.58625 0.23038 0.18559 0.0
H1541 H 0.65958 0.19269 0.25252 0.0
H1542 H 0.63112 0.19437 0.2297 0.0
H1543 H 0.60517 0.24894 0.22737 0.0
H1544 H 0.56569 0.23518 0.12188 0.0
H1545 H 0.59026 0.23103 0.14784 0.0
C1546 C 0.4801 0.07312 0.00819 0.0
C1547 C 0.46095 0.06383 0.00196 0.0
C1548 C 0.48272 0.08978 0.01832 0.0
C1549 C 0.45545 0.12824 0.03072 0.0
H1550 H 0.49936 0.13785 0.0689 0.0
C1551 C 0.46156 0.18513 0.08619 0.0
C1552 C 0.47863 0.19958 0.08537 0.0
C1553 C 0.45994 0.1683 0.07653 0.0
C1554 C 0.48707 0.13531 0.05824 0.0
H1555 H 0.42953 0.06536 0.00136 0.0
H1556 H 0.43397 0.09324 0.02001 0.0
H1557 H 0.49524 0.10899 0.05101 0.0
H1558 H 0.50778 0.20726 0.07461 0.0
H1559 H 0.50516 0.17749 0.0582 0.0
H1560 H 0.44693 0.15423 0.03868 0.0
C1561 C 0.44711 0.0881 0.01663 0.0
C1562 C 0.48476 0.11887 0.04784 0.0
C1563 C 0.44452 0.07173 0.00619 0.0
C1564 C 0.49438 0.19651 0.07533 0.0
C1565 C 0.49294 0.17944 0.06605 0.0
C1566 C 0.45753 0.1444 0.04142 0.0
C1567 C 0.46624 0.09746 0.02281 0.0
C1568 C 0.46891 0.11508 0.03388 0.0
C1569 C 0.47556 0.16538 0.06628 0.0
C1570 C 0.47336 0.14808 0.05522 0.0
H1571 H 0.49315 0.06743 0.00547 0.0
H1572 H 0.49773 0.09666 0.02249 0.0
H1573 H 0.44336 0.12626 0.01983 0.0
H1574 H 0.44917 0.18715 0.09376 0.0
H1575 H 0.44642 0.15759 0.07695 0.0
C1576 C 0.24024 0.37349 0.75824 0.0
C1577 C 0.23528 0.36207 0.74262 0.0
C1578 C 0.25481 0.39018 0.75751 0.0
C1579 C 0.28642 0.42421 0.72445 0.0
H1580 H 0.31917 0.4358 0.7707 0.0
C1581 C 0.36636 0.47013 0.73288 0.0
C1582 C 0.36743 0.48703 0.74251 0.0
C1583 C 0.34885 0.45643 0.73183 0.0
C1584 C 0.30999 0.43278 0.75776 0.0
H1585 H 0.24172 0.35988 0.71371 0.0
H1586 H 0.26807 0.38806 0.71293 0.0
H1587 H 0.29159 0.40854 0.77097 0.0
H1588 H 0.35103 0.50291 0.75849 0.0
H1589 H 0.32053 0.47837 0.75727 0.0
H1590 H 0.30599 0.44792 0.71117 0.0
C1591 C 0.26023 0.38448 0.72561 0.0
C1592 C 0.29407 0.41725 0.75787 0.0
C1593 C 0.24528 0.36802 0.72617 0.0
C1594 C 0.35058 0.49004 0.75093 0.0
C1595 C 0.33321 0.47607 0.75026 0.0
C1596 C 0.30267 0.43949 0.72429 0.0
C1597 C 0.26534 0.39573 0.74134 0.0
C1598 C 0.28202 0.41269 0.74121 0.0
C1599 C 0.33228 0.45919 0.74073 0.0
C1600 C 0.31451 0.44384 0.74095 0.0
H1601 H 0.23326 0.36936 0.77133 0.0
H1602 H 0.2579 0.39861 0.7698 0.0
H1603 H 0.27736 0.42147 0.71141 0.0
H1604 H 0.37906 0.4675 0.72614 0.0
H1605 H 0.34841 0.44341 0.7245 0.0
C1606 C 0.27269 0.68815 0.77488 0.0
C1607 C 0.25713 0.69084 0.76129 0.0
C1608 C 0.28346 0.67317 0.77378 0.0
C1609 C 0.296 0.64135 0.73961 0.0
H1610 H 0.31448 0.61242 0.78441 0.0
C1611 C 0.33725 0.57739 0.73469 0.0
C1612 C 0.35414 0.57656 0.74725 0.0
C1613 C 0.3243 0.59014 0.7371 0.0
C1614 C 0.30956 0.62047 0.77177 0.0
H1615 H 0.2398 0.67944 0.73657 0.0
H1616 H 0.25849 0.65312 0.73464 0.0
H1617 H 0.29382 0.63681 0.78735 0.0
H1618 H 0.37036 0.58815 0.7725 0.0
H1619 H 0.34788 0.61051 0.77661 0.0
H1620 H 0.31186 0.62521 0.72404 0.0
C1621 C 0.26275 0.66286 0.74588 0.0
C1622 C 0.29772 0.63446 0.77346 0.0
C1623 C 0.252 0.67785 0.747 0.0
C1624 C 0.35749 0.58841 0.76257 0.0
C1625 C 0.34453 0.60117 0.76498 0.0
C1626 C 0.30782 0.62738 0.73793 0.0
C1627 C 0.27877 0.66047 0.75914 0.0
C1628 C 0.29086 0.64513 0.7574 0.0
C1629 C 0.32792 0.60238 0.75213 0.0
C1630 C 0.31482 0.61681 0.75398 0.0
H1631 H 0.27673 0.69785 0.78618 0.0
H1632 H 0.29577 0.67184 0.78416 0.0
H1633 H 0.29128 0.64952 0.72697 0.0
H1634 H 0.33413 0.56839 0.72279 0.0
H1635 H 0.31148 0.59045 0.72712 0.0
C1636 C 0.90797 0.49113 0.47381 0.0
C1637 C 0.91857 0.49952 0.48975 0.0
C1638 C 0.89028 0.47783 0.47558 0.0
C1639 C 0.84794 0.45762 0.48208 0.0
H1640 H 0.84621 0.41854 0.52402 0.0
C1641 C 0.77665 0.40194 0.49819 0.0
C1642 C 0.77936 0.38272 0.50341 0.0
C1643 C 0.79307 0.41695 0.49654 0.0
C1644 C 0.84647 0.4293 0.51218 0.0
H1645 H 0.91881 0.50049 0.52007 0.0
H1646 H 0.88782 0.47759 0.52312 0.0
H1647 H 0.87587 0.44318 0.5209 0.0
H1648 H 0.8016 0.36429 0.51075 0.0
H1649 H 0.82997 0.39027 0.50772 0.0
H1650 H 0.81866 0.44334 0.47312 0.0
C1651 C 0.89328 0.48114 0.50925 0.0
C1652 C 0.8634 0.44358 0.51051 0.0
C1653 C 0.91095 0.49443 0.50748 0.0
C1654 C 0.79886 0.37889 0.5068 0.0
C1655 C 0.8152 0.39384 0.50518 0.0
C1656 C 0.83096 0.44333 0.48377 0.0
C1657 C 0.88279 0.47259 0.49335 0.0
C1658 C 0.86442 0.45784 0.49538 0.0
C1659 C 0.81253 0.41306 0.50014 0.0
C1660 C 0.83011 0.42888 0.49874 0.0
H1661 H 0.9133 0.4949 0.45991 0.0
H1662 H 0.88268 0.47138 0.46307 0.0
H1663 H 0.84816 0.46853 0.47037 0.0
H1664 H 0.76186 0.40544 0.49549 0.0
H1665 H 0.79052 0.43164 0.49276 0.0
C1666 C 0.77323 0.83101 0.82514 0.0
C1667 C 0.77814 0.82153 0.81003 0.0
C1668 C 0.76019 0.84436 0.82213 0.0
C1669 C 0.74209 0.87833 0.78603 0.0
H1670 H 0.70003 0.87796 0.81899 0.0
C1671 C 0.69154 0.93552 0.77283 0.0
C1672 C 0.68684 0.9439 0.78866 0.0
C1673 C 0.69964 0.91849 0.77492 0.0
C1674 C 0.71181 0.87842 0.80975 0.0
H1675 H 0.77279 0.81864 0.77987 0.0
H1676 H 0.7505 0.84241 0.77459 0.0
H1677 H 0.7206 0.85263 0.82375 0.0
H1678 H 0.68605 0.94057 0.81903 0.0
H1679 H 0.70086 0.91117 0.82285 0.0
H1680 H 0.7341 0.90443 0.77249 0.0
C1681 C 0.75679 0.83939 0.78878 0.0
C1682 C 0.72355 0.86385 0.81245 0.0
C1683 C 0.76966 0.82585 0.79181 0.0
C1684 C 0.68938 0.93433 0.80657 0.0
C1685 C 0.69788 0.91744 0.80872 0.0
C1686 C 0.73056 0.89301 0.78346 0.0
C1687 C 0.75192 0.84879 0.80391 0.0
C1688 C 0.73885 0.8637 0.80065 0.0
C1689 C 0.70371 0.90963 0.79295 0.0
C1690 C 0.71526 0.89332 0.7953 0.0
H1691 H 0.77975 0.82843 0.83931 0.0
H1692 H 0.75697 0.8516 0.83403 0.0
H1693 H 0.75397 0.87879 0.77689 0.0
H1694 H 0.68953 0.94249 0.75882 0.0
H1695 H 0.70327 0.91262 0.76238 0.0
C1696 C 0.61506 0.52493 0.01793 0.0
C1697 C 0.59667 0.53125 0.0142 0.0
C1698 C 0.63228 0.53803 0.02301 0.0
C1699 C 0.65299 0.59063 0.02015 0.0
H1700 H 0.69242 0.57606 0.05854 0.0
C1701 C 0.71768 0.64702 0.04926 0.0
C1702 C 0.7367 0.64189 0.05168 0.0
C1703 C 0.70084 0.63309 0.0453 0.0
C1704 C 0.68164 0.58028 0.04765 0.0
H1705 H 0.58189 0.55619 0.01342 0.0
H1706 H 0.61186 0.57901 0.02236 0.0
H1707 H 0.66249 0.55261 0.05055 0.0
H1708 H 0.75277 0.61783 0.05224 0.0
H1709 H 0.72328 0.59348 0.04524 0.0
H1710 H 0.67205 0.61827 0.01725 0.0
C1711 C 0.61306 0.564 0.02101 0.0
C1712 C 0.66449 0.56684 0.04307 0.0
C1713 C 0.59587 0.55092 0.01591 0.0
C1714 C 0.73837 0.62232 0.05045 0.0
C1715 C 0.72146 0.60834 0.04652 0.0
C1716 C 0.67008 0.60404 0.02474 0.0
C1717 C 0.63152 0.55777 0.02449 0.0
C1718 C 0.6499 0.5719 0.02932 0.0
C1719 C 0.70252 0.61362 0.04367 0.0
C1720 C 0.68456 0.59908 0.03862 0.0
H1721 H 0.61624 0.50992 0.0165 0.0
H1722 H 0.64627 0.53278 0.02534 0.0
H1723 H 0.6423 0.59489 0.00921 0.0
H1724 H 0.71574 0.6619 0.05021 0.0
H1725 H 0.68644 0.63759 0.04353 0.0
C1726 C 0.28102 0.69102 0.27214 0.0
C1727 C 0.28588 0.69898 0.25405 0.0
C1728 C 0.26789 0.67343 0.27442 0.0
C1729 C 0.24592 0.62912 0.25 0.0
H1730 H 0.21037 0.62148 0.29028 0.0
C1731 C 0.20716 0.55311 0.27703 0.0
C1732 C 0.18829 0.55112 0.2839 0.0
C1733 C 0.21748 0.57144 0.27137 0.0
C1734 C 0.21995 0.6234 0.27876 0.0
H1735 H 0.28062 0.69459 0.22416 0.0
H1736 H 0.25721 0.66419 0.22811 0.0
H1737 H 0.23087 0.6531 0.28423 0.0
H1738 H 0.16504 0.56667 0.28942 0.0
H1739 H 0.18281 0.59863 0.27905 0.0
H1740 H 0.23467 0.5995 0.2443 0.0
C1741 C 0.26384 0.67141 0.24057 0.0
C1742 C 0.23197 0.64149 0.27548 0.0
C1743 C 0.27709 0.68897 0.23828 0.0
C1744 C 0.17963 0.56776 0.28432 0.0
C1745 C 0.18989 0.58609 0.27849 0.0
C1746 C 0.23378 0.61104 0.25319 0.0
C1747 C 0.25911 0.66339 0.25868 0.0
C1748 C 0.24535 0.6445 0.26127 0.0
C1749 C 0.20911 0.58821 0.27229 0.0
C1750 C 0.22085 0.60786 0.26781 0.0
H1751 H 0.28724 0.69845 0.28459 0.0
H1752 H 0.26485 0.66759 0.2886 0.0
H1753 H 0.25613 0.63084 0.23902 0.0
H1754 H 0.2143 0.54058 0.27664 0.0
H1755 H 0.23235 0.57249 0.26694 0.0
C1756 C 0.94712 0.53125 0.09379 0.0
C1757 C 0.94351 0.51226 0.08772 0.0
C1758 C 0.93229 0.54276 0.09126 0.0
C1759 C 0.88652 0.54923 0.06231 0.0
H1760 H 0.8771 0.57835 0.10346 0.0
C1761 C 0.83909 0.61083 0.05405 0.0
C1762 C 0.82659 0.61148 0.06848 0.0
C1763 C 0.85215 0.59744 0.05565 0.0
C1764 C 0.87946 0.57021 0.09187 0.0
H1765 H 0.92116 0.49045 0.07447 0.0
H1766 H 0.89549 0.51072 0.06971 0.0
H1767 H 0.90249 0.55771 0.108 0.0
H1768 H 0.81741 0.59793 0.0955 0.0
H1769 H 0.84016 0.5747 0.09827 0.0
H1770 H 0.86353 0.56187 0.04616 0.0
C1771 C 0.90989 0.5167 0.07632 0.0
C1772 C 0.89413 0.55854 0.09442 0.0
C1773 C 0.92464 0.50511 0.07902 0.0
C1774 C 0.82688 0.59793 0.08416 0.0
C1775 C 0.84001 0.58468 0.08582 0.0
C1776 C 0.87197 0.56109 0.05969 0.0
C1777 C 0.91354 0.53564 0.08243 0.0
C1778 C 0.89783 0.54792 0.07968 0.0
C1779 C 0.85307 0.58454 0.07178 0.0
C1780 C 0.86826 0.57167 0.07447 0.0
H1781 H 0.96154 0.5374 0.10023 0.0
H1782 H 0.93562 0.55739 0.09591 0.0
H1783 H 0.88915 0.54132 0.05065 0.0
H1784 H 0.83923 0.62105 0.04177 0.0
H1785 H 0.86208 0.59772 0.04463 0.0
C1786 C 0.04575 0.95671 0.99426 0.0
C1787 C 0.0499 0.97627 0.99858 0.0
C1788 C 0.06094 0.94736 0.98986 0.0
C1789 C 0.11494 0.94946 0.99661 0.0
H1790 H 0.10579 0.91406 0.95655 0.0
C1791 C 0.17492 0.90585 0.98147 0.0
C1792 C 0.16795 0.88599 0.97914 0.0
C1793 C 0.16155 0.91887 0.98084 0.0
C1794 C 0.10857 0.92381 0.96785 0.0
H1795 H 0.07298 0.0017 0.00078 0.0
H1796 H 0.0997 0.98527 0.99339 0.0
H1797 H 0.08026 0.93273 0.96181 0.0
H1798 H 0.14157 0.8645 0.97321 0.0
H1799 H 0.11841 0.88698 0.97235 0.0
H1800 H 0.14294 0.94011 0.00311 0.0
C1801 C 0.08473 0.97707 0.99371 0.0
C1802 C 0.09393 0.93451 0.97086 0.0
C1803 C 0.06948 0.98647 0.99796 0.0
C1804 C 0.14747 0.87968 0.97513 0.0
C1805 C 0.13415 0.89264 0.97452 0.0
C1806 C 0.12954 0.93867 0.99369 0.0
C1807 C 0.08063 0.95741 0.98962 0.0
C1808 C 0.09681 0.94721 0.98548 0.0
C1809 C 0.14094 0.91232 0.97782 0.0
C1810 C 0.12641 0.92544 0.97948 0.0
H1811 H 0.03072 0.94862 0.99431 0.0
H1812 H 0.05732 0.93216 0.98693 0.0
H1813 H 0.11754 0.959 0.00809 0.0
H1814 H 0.19061 0.91121 0.98452 0.0
H1815 H 0.16732 0.93399 0.98312 0.0
loop_
_geom_bond_atom_site_label_1
_geom_bond_atom_site_label_2
_geom_bond_distance
_geom_bond_site_symmetry_2
_ccdc_geom_bond_type
H0 C7 0.929 . S
H1 C10 0.930 . S
H2 C12 0.929 . S
H3 C4 0.969 1_565 S
C4 H3 0.969 1_545 S
C4 O5 1.550 . S
C4 H6 0.975 . S
O5 C4 1.550 . S
O5 C11 1.412 . S
H6 C4 0.975 . S
C7 H0 0.929 . S
C7 C8 1.400 1_655 S
C7 C9 1.356 1_655 S
C8 C7 1.400 1_455 S
C8 C12 1.377 . S
C9 C7 1.356 1_455 S
C9 C10 1.401 . S
C10 H1 0.930 . S
C10 C9 1.401 . S
C10 C11 1.383 . S
C11 O5 1.412 . S
C11 C10 1.383 . S
C11 C12 1.394 . S
C12 H2 0.929 . S
C12 C8 1.377 . S
C12 C11 1.394 . S
H13 C20 0.929 . S
H14 C23 0.930 . S
H15 C25 0.929 . S
H16 C17 0.969 . S
C17 H16 0.969 . S
C17 O18 1.550 . S
C17 H19 0.973 . S
O18 C17 1.550 . S
O18 C24 1.412 . S
H19 C17 0.973 . S
C20 H13 0.929 . S
C20 C21 1.400 . S
C20 C22 1.364 . S
C21 C20 1.400 . S
C21 C25 1.377 . S
C22 C20 1.364 . S
C22 C23 1.374 . S
C23 H14 0.930 . S
C23 C22 1.374 . S
C23 C24 1.383 . S
C24 O18 1.412 . S
C24 C23 1.383 . S
C24 C25 1.394 . S
C25 H15 0.929 . S
C25 C21 1.377 . S
C25 C24 1.394 . S
H26 C33 0.929 . S
H27 C36 0.930 . S
H28 C38 0.929 1_455 S
H29 C30 0.969 . S
C30 H29 0.969 . S
C30 O31 1.550 . S
C30 H32 0.973 . S
O31 C30 1.550 . S
O31 C37 1.412 . S
H32 C30 0.973 . S
C33 H26 0.929 . S
C33 C34 1.400 . S
C33 C35 1.364 . S
C34 C33 1.400 . S
C34 C38 1.377 . S
C35 C33 1.364 . S
C35 C36 1.374 . S
C36 H27 0.930 . S
C36 C35 1.374 . S
C36 C37 1.383 . S
C37 O31 1.412 . S
C37 C36 1.383 . S
C37 C38 1.394 . S
C38 H28 0.929 1_655 S
C38 C34 1.377 . S
C38 C37 1.394 . S
H39 C46 0.929 . S
H40 C49 0.930 . S
H41 C51 0.929 . S
H42 C43 0.969 . S
C43 H42 0.969 . S
C43 O44 1.550 . S
C43 H45 0.973 . S
O44 C43 1.550 . S
O44 C50 1.412 . S
H45 C43 0.973 . S
C46 H39 0.929 . S
C46 C47 1.400 . S
C46 C48 1.364 . S
C47 C46 1.400 . S
C47 C51 1.377 . S
C48 C46 1.364 . S
C48 C49 1.374 . S
C49 H40 0.930 . S
C49 C48 1.374 . S
C49 C50 1.383 . S
C50 O44 1.412 . S
C50 C49 1.383 . S
C50 C51 1.394 . S
C51 H41 0.929 . S
C51 C47 1.377 . S
C51 C50 1.394 . S
H52 C59 0.929 . S
H53 C62 0.930 . S
H54 C64 0.967 . S
H55 C56 0.969 . S
C56 H55 0.969 . S
C56 O57 1.550 . S
C56 H58 0.973 . S
O57 C56 1.550 . S
O57 C63 1.412 . S
H58 C56 0.973 . S
C59 H52 0.929 . S
C59 C60 1.400 . S
C59 C61 1.364 . S
C60 C59 1.400 . S
C60 C64 1.362 1_565 S
C61 C59 1.364 . S
C61 C62 1.374 . S
C62 H53 0.930 . S
C62 C61 1.374 . S
C62 C63 1.383 . S
C63 O57 1.412 . S
C63 C62 1.383 . S
C63 C64 1.373 1_565 S
C64 H54 0.967 . S
C64 C60 1.362 1_545 S
C64 C63 1.373 1_545 S
H65 C72 0.929 . S
H66 C75 0.930 . S
H67 C77 0.929 . S
H68 C69 0.969 . S
C69 H68 0.969 . S
C69 O70 1.550 . S
C69 H71 0.973 . S
O70 C69 1.550 . S
O70 C76 1.412 . S
H71 C69 0.973 . S
C72 H65 0.929 . S
C72 C73 1.400 . S
C72 C74 1.364 . S
C73 C72 1.400 . S
C73 C77 1.377 . S
C74 C72 1.364 . S
C74 C75 1.374 . S
C75 H66 0.930 . S
C75 C74 1.374 . S
C75 C76 1.383 . S
C76 O70 1.412 . S
C76 C75 1.383 . S
C76 C77 1.394 . S
C77 H67 0.929 . S
C77 C73 1.377 . S
C77 C76 1.394 . S
H78 C85 0.929 . S
H79 C88 0.930 . S
H80 C90 0.929 . S
H81 C82 0.969 . S
C82 H81 0.969 . S
C82 O83 1.550 1_655 S
C82 H84 0.973 . S
O83 C82 1.550 1_455 S
O83 C89 1.405 1_455 S
H84 C82 0.973 . S
C85 H78 0.929 . S
C85 C86 1.400 . S
C85 C87 1.364 . S
C86 C85 1.400 . S
C86 C90 1.377 . S
C87 C85 1.364 . S
C87 C88 1.374 . S
C88 H79 0.930 . S
C88 C87 1.374 . S
C88 C89 1.383 . S
C89 O83 1.405 1_655 S
C89 C88 1.383 . S
C89 C90 1.394 . S
C90 H80 0.929 . S
C90 C86 1.377 . S
C90 C89 1.394 . S
H91 C98 0.929 . S
H92 C101 0.930 . S
H93 C103 0.929 . S
H94 C95 0.969 . S
C95 H94 0.969 . S
C95 O96 1.550 . S
C95 H97 0.973 . S
O96 C95 1.550 . S
O96 C102 1.412 . S
H97 C95 0.973 . S
C98 H91 0.929 . S
C98 C99 1.400 . S
C98 C100 1.364 . S
C99 C98 1.400 . S
C99 C103 1.377 . S
C100 C98 1.364 . S
C100 C101 1.374 . S
C101 H92 0.930 . S
C101 C100 1.374 . S
C101 C102 1.383 . S
C102 O96 1.412 . S
C102 C101 1.383 . S
C102 C103 1.394 . S
C103 H93 0.929 . S
C103 C99 1.377 . S
C103 C102 1.394 . S
H104 C111 0.929 . S
H105 C114 0.930 . S
H106 C116 0.929 . S
H107 C108 0.969 . S
C108 H107 0.969 . S
C108 O109 1.550 . S
C108 H110 0.973 . S
O109 C108 1.550 . S
O109 C115 1.412 . S
H110 C108 0.973 . S
C111 H104 0.929 . S
C111 C112 1.400 . S
C111 C113 1.364 . S
C112 C111 1.400 . S
C112 C116 1.377 . S
C113 C111 1.364 . S
C113 C114 1.374 . S
C114 H105 0.930 . S
C114 C113 1.374 . S
C114 C115 1.383 . S
C115 O109 1.412 . S
C115 C114 1.383 . S
C115 C116 1.394 . S
C116 H106 0.929 . S
C116 C112 1.377 . S
C116 C115 1.394 . S
H117 C124 0.929 . S
H118 C127 0.930 . S
H119 C129 0.929 . S
H120 C121 0.969 . S
C121 H120 0.969 . S
C121 O122 1.550 . S
C121 H123 0.973 . S
O122 C121 1.550 . S
O122 C128 1.412 . S
H123 C121 0.973 . S
C124 H117 0.929 . S
C124 C125 1.400 . S
C124 C126 1.364 . S
C125 C124 1.400 . S
C125 C129 1.377 . S
C126 C124 1.364 . S
C126 C127 1.374 . S
C127 H118 0.930 . S
C127 C126 1.374 . S
C127 C128 1.383 . S
C128 O122 1.412 . S
C128 C127 1.383 . S
C128 C129 1.394 . S
C129 H119 0.929 . S
C129 C125 1.377 . S
C129 C128 1.394 . S
H130 C137 0.929 . S
H131 C140 0.930 . S
H132 C142 0.929 . S
H133 C134 0.969 . S
C134 H133 0.969 . S
C134 O135 1.550 . S
C134 H136 0.973 . S
O135 C134 1.550 . S
O135 C141 1.412 . S
H136 C134 0.973 . S
C137 H130 0.929 . S
C137 C138 1.400 . S
C137 C139 1.364 . S
C138 C137 1.400 . S
C138 C142 1.377 . S
C139 C137 1.364 . S
C139 C140 1.374 . S
C140 H131 0.930 . S
C140 C139 1.374 . S
C140 C141 1.383 . S
C141 O135 1.412 . S
C141 C140 1.383 . S
C141 C142 1.394 . S
C142 H132 0.929 . S
C142 C138 1.377 . S
C142 C141 1.394 . S
H143 C150 0.929 . S
H144 C153 0.930 . S
H145 C155 0.929 . S
H146 C147 0.969 . S
C147 H146 0.969 . S
C147 O148 1.550 . S
C147 H149 0.973 . S
O148 C147 1.550 . S
O148 C154 1.412 . S
H149 C147 0.973 . S
C150 H143 0.929 . S
C150 C151 1.400 . S
C150 C152 1.364 . S
C151 C150 1.400 . S
C151 C155 1.377 . S
C152 C150 1.364 . S
C152 C153 1.374 . S
C153 H144 0.930 . S
C153 C152 1.374 . S
C153 C154 1.383 . S
C154 O148 1.412 . S
C154 C153 1.383 . S
C154 C155 1.394 . S
C155 H145 0.929 . S
C155 C151 1.377 . S
C155 C154 1.394 . S
H156 C163 0.929 . S
H157 C166 0.930 . S
H158 C168 0.929 . S
H159 C160 0.969 . S
C160 H159 0.969 . S
C160 O161 1.550 . S
C160 H162 0.973 . S
O161 C160 1.550 . S
O161 C167 1.412 . S
H162 C160 0.973 . S
C163 H156 0.929 . S
C163 C164 1.400 . S
C163 C165 1.364 . S
C164 C163 1.400 . S
C164 C168 1.377 . S
C165 C163 1.364 . S
C165 C166 1.374 . S
C166 H157 0.930 . S
C166 C165 1.374 . S
C166 C167 1.383 . S
C167 O161 1.412 . S
C167 C166 1.383 . S
C167 C168 1.394 . S
C168 H158 0.929 . S
C168 C164 1.377 . S
C168 C167 1.394 . S
H169 C176 0.929 1_554 S
H170 C179 0.930 . S
H171 C181 0.929 . S
H172 C173 0.969 . S
C173 H172 0.969 . S
C173 O174 1.550 . S
C173 H175 0.973 . S
O174 C173 1.550 . S
O174 C180 1.412 . S
H175 C173 0.973 . S
C176 H169 0.929 1_556 S
C176 C177 1.400 . S
C176 C178 1.364 . S
C177 C176 1.400 . S
C177 C181 1.377 . S
C178 C176 1.364 . S
C178 C179 1.374 . S
C179 H170 0.930 . S
C179 C178 1.374 . S
C179 C180 1.383 . S
C180 O174 1.412 . S
C180 C179 1.383 . S
C180 C181 1.394 . S
C181 H171 0.929 . S
C181 C177 1.377 . S
C181 C180 1.394 . S
H182 C189 0.929 . S
H183 C192 0.930 . S
H184 C194 0.929 . S
H185 C186 0.969 . S
C186 H185 0.969 . S
C186 O187 1.550 . S
C186 H188 0.973 . S
O187 C186 1.550 . S
O187 C193 1.412 . S
H188 C186 0.973 . S
C189 H182 0.929 . S
C189 C190 1.400 . S
C189 C191 1.364 . S
C190 C189 1.400 . S
C190 C194 1.377 . S
C191 C189 1.364 . S
C191 C192 1.374 . S
C192 H183 0.930 . S
C192 C191 1.374 . S
C192 C193 1.383 . S
C193 O187 1.412 . S
C193 C192 1.383 . S
C193 C194 1.394 . S
C194 H184 0.929 . S
C194 C190 1.377 . S
C194 C193 1.394 . S
H195 C202 0.929 . S
H196 C205 0.930 . S
H197 C207 0.929 . S
H198 C199 0.969 . S
C199 H198 0.969 . S
C199 O200 1.550 . S
C199 H201 0.973 . S
O200 C199 1.550 . S
O200 C206 1.412 . S
H201 C199 0.973 . S
C202 H195 0.929 . S
C202 C203 1.400 . S
C202 C204 1.364 . S
C203 C202 1.400 . S
C203 C207 1.377 . S
C204 C202 1.364 . S
C204 C205 1.374 1_554 S
C205 H196 0.930 . S
C205 C204 1.374 1_556 S
C205 C206 1.383 . S
C206 O200 1.412 . S
C206 C205 1.383 . S
C206 C207 1.394 1_556 S
C207 H197 0.929 . S
C207 C203 1.377 . S
C207 C206 1.394 1_554 S
Mg208 O209 2.028 . S
Mg208 O215 1.986 1_554 S
Mg208 O217 2.114 . S
Mg208 O218 2.251 . S
Mg208 O221 2.010 . S
O209 Mg208 2.028 . S
O209 C212 1.251 . S
O210 Mg211 2.027 1_554 S
O210 C212 1.247 . S
Mg211 O210 2.027 1_556 S
Mg211 O216 2.048 . S
Mg211 O218 2.066 1_556 S
C212 O209 1.251 . S
C212 O210 1.247 . S
C213 O214 1.264 . S
C213 O221 1.249 . S
O214 C213 1.264 . S
O215 Mg208 1.986 1_556 S
O215 C219 1.246 . S
O216 Mg211 2.048 . S
O216 C219 1.259 . S
O217 Mg208 2.114 . S
O217 C220 1.252 . S
O218 Mg208 2.251 . S
O218 Mg211 2.066 1_554 S
O218 C220 1.273 . S
C219 O215 1.246 . S
C219 O216 1.259 . S
C220 O217 1.252 . S
C220 O218 1.273 . S
O221 Mg208 2.010 . S
O221 C213 1.249 . S
Mg222 O223 2.028 . S
Mg222 O229 1.986 . S
Mg222 O231 2.114 . S
Mg222 O232 2.251 . S
Mg222 O235 2.010 . S
O223 Mg222 2.028 . S
O223 C226 1.250 . S
O224 Mg225 2.028 . S
O224 C226 1.248 . S
Mg225 O224 2.028 . S
Mg225 O230 2.032 . S
Mg225 O232 2.079 . S
C226 O223 1.250 . S
C226 O224 1.248 . S
C227 O228 1.264 . S
C227 O235 1.249 . S
O228 C227 1.264 . S
O229 Mg222 1.986 . S
O229 C233 1.246 . S
O230 Mg225 2.032 . S
O230 C233 1.259 . S
O231 Mg222 2.114 . S
O231 C234 1.252 . S
O232 Mg222 2.251 . S
O232 Mg225 2.079 . S
O232 C234 1.273 . S
C233 O229 1.246 . S
C233 O230 1.259 . S
C234 O231 1.252 . S
C234 O232 1.273 . S
O235 Mg222 2.010 . S
O235 C227 1.249 . S
Mg236 O237 2.028 . S
Mg236 O243 1.986 . S
Mg236 O245 2.114 . S
Mg236 O246 2.251 . S
Mg236 O249 2.010 . S
O237 Mg236 2.028 . S
O237 C240 1.250 . S
O238 Mg239 2.028 . S
O238 C240 1.248 . S
Mg239 O238 2.028 . S
Mg239 O244 2.032 . S
Mg239 O246 2.079 . S
C240 O237 1.250 . S
C240 O238 1.248 . S
C241 O242 1.264 . S
C241 O249 1.249 . S
O242 C241 1.264 . S
O243 Mg236 1.986 . S
O243 C247 1.246 . S
O244 Mg239 2.032 . S
O244 C247 1.259 . S
O245 Mg236 2.114 . S
O245 C248 1.252 . S
O246 Mg236 2.251 . S
O246 Mg239 2.079 . S
O246 C248 1.273 . S
C247 O243 1.246 . S
C247 O244 1.259 . S
C248 O245 1.252 . S
C248 O246 1.273 . S
O249 Mg236 2.010 . S
O249 C241 1.249 . S
Mg250 O251 2.028 . S
Mg250 O257 1.986 . S
Mg250 O259 2.114 . S
Mg250 O260 2.251 . S
Mg250 O263 2.010 . S
O251 Mg250 2.028 . S
O251 C254 1.250 . S
O252 Mg253 2.028 1_565 S
O252 C254 1.248 1_565 S
Mg253 O252 2.028 1_545 S
Mg253 O258 2.034 . S
Mg253 O260 2.082 . S
C254 O251 1.250 . S
C254 O252 1.248 1_545 S
C255 O256 1.264 . S
C255 O263 1.249 . S
O256 C255 1.264 . S
O257 Mg250 1.986 . S
O257 C261 1.246 . S
O258 Mg253 2.034 . S
O258 C261 1.259 . S
O259 Mg250 2.114 . S
O259 C262 1.252 . S
O260 Mg250 2.251 . S
O260 Mg253 2.082 . S
O260 C262 1.273 . S
C261 O257 1.246 . S
C261 O258 1.259 . S
C262 O259 1.252 . S
C262 O260 1.273 . S
O263 Mg250 2.010 . S
O263 C255 1.249 . S
Mg264 O265 2.028 . S
Mg264 O271 1.986 . S
Mg264 O273 2.114 . S
Mg264 O274 2.251 . S
Mg264 O277 2.010 . S
O265 Mg264 2.028 . S
O265 C268 1.250 . S
O266 Mg267 2.028 . S
O266 C268 1.248 . S
Mg267 O266 2.028 . S
Mg267 O272 2.032 . S
Mg267 O274 2.079 . S
C268 O265 1.250 . S
C268 O266 1.248 . S
C269 O270 1.264 . S
C269 O277 1.249 . S
O270 C269 1.264 . S
O271 Mg264 1.986 . S
O271 C275 1.246 . S
O272 Mg267 2.032 . S
O272 C275 1.259 . S
O273 Mg264 2.114 . S
O273 C276 1.252 . S
O274 Mg264 2.251 . S
O274 Mg267 2.079 . S
O274 C276 1.273 . S
C275 O271 1.246 . S
C275 O272 1.259 . S
C276 O273 1.252 . S
C276 O274 1.273 . S
O277 Mg264 2.010 . S
O277 C269 1.249 . S
Mg278 O279 2.028 . S
Mg278 O285 1.986 . S
Mg278 O287 2.114 . S
Mg278 O288 2.251 . S
Mg278 O291 2.010 . S
O279 Mg278 2.028 . S
O279 C282 1.250 . S
O280 Mg281 2.028 . S
O280 C282 1.248 . S
Mg281 O280 2.028 . S
Mg281 O286 2.032 . S
Mg281 O288 2.079 . S
C282 O279 1.250 . S
C282 O280 1.248 . S
C283 O284 1.264 . S
C283 O291 1.249 . S
O284 C283 1.264 . S
O285 Mg278 1.986 . S
O285 C289 1.246 . S
O286 Mg281 2.032 . S
O286 C289 1.259 . S
O287 Mg278 2.114 . S
O287 C290 1.252 . S
O288 Mg278 2.251 . S
O288 Mg281 2.079 . S
O288 C290 1.273 . S
C289 O285 1.246 . S
C289 O286 1.259 . S
C290 O287 1.252 . S
C290 O288 1.273 . S
O291 Mg278 2.010 . S
O291 C283 1.249 . S
Mg292 O293 2.028 . S
Mg292 O299 1.986 . S
Mg292 O301 2.114 . S
Mg292 O302 2.251 . S
Mg292 O305 2.010 . S
O293 Mg292 2.028 . S
O293 C296 1.250 . S
O294 Mg295 2.028 . S
O294 C296 1.248 . S
Mg295 O294 2.028 . S
Mg295 O300 2.032 . S
Mg295 O302 2.079 . S
C296 O293 1.250 . S
C296 O294 1.248 . S
C297 O298 1.264 . S
C297 O305 1.249 . S
O298 C297 1.264 . S
O299 Mg292 1.986 . S
O299 C303 1.246 . S
O300 Mg295 2.032 . S
O300 C303 1.259 . S
O301 Mg292 2.114 . S
O301 C304 1.252 . S
O302 Mg292 2.251 . S
O302 Mg295 2.079 . S
O302 C304 1.273 . S
C303 O299 1.246 . S
C303 O300 1.259 . S
C304 O301 1.252 . S
C304 O302 1.273 . S
O305 Mg292 2.010 . S
O305 C297 1.249 . S
Mg306 O307 2.028 1_545 S
Mg306 O313 1.986 1_545 S
Mg306 O315 2.114 . S
Mg306 O316 2.251 . S
Mg306 O319 2.010 . S
O307 Mg306 2.028 1_565 S
O307 C310 1.250 . S
O308 Mg309 2.028 . S
O308 C310 1.248 . S
Mg309 O308 2.028 . S
Mg309 O314 2.032 . S
Mg309 O316 2.079 1_565 S
C310 O307 1.250 . S
C310 O308 1.248 . S
C311 O312 1.264 . S
C311 O319 1.249 . S
O312 C311 1.264 . S
O313 Mg306 1.986 1_565 S
O313 C317 1.246 . S
O314 Mg309 2.032 . S
O314 C317 1.259 . S
O315 Mg306 2.114 . S
O315 C318 1.252 . S
O316 Mg306 2.251 . S
O316 Mg309 2.079 1_545 S
O316 C318 1.273 . S
C317 O313 1.246 . S
C317 O314 1.259 . S
C318 O315 1.252 . S
C318 O316 1.273 . S
O319 Mg306 2.010 . S
O319 C311 1.249 . S
Mg320 O321 2.028 1_455 S
Mg320 O327 1.986 . S
Mg320 O329 2.114 . S
Mg320 O330 2.251 1_455 S
Mg320 O333 2.010 . S
O321 Mg320 2.028 1_655 S
O321 C324 1.250 . S
O322 Mg323 2.028 . S
O322 C324 1.248 . S
Mg323 O322 2.028 . S
Mg323 O328 2.032 . S
Mg323 O330 2.079 . S
C324 O321 1.250 . S
C324 O322 1.248 . S
C325 O326 1.264 . S
C325 O333 1.249 . S
O326 C325 1.264 . S
O327 Mg320 1.986 . S
O327 C331 1.246 . S
O328 Mg323 2.032 . S
O328 C331 1.259 1_655 S
O329 Mg320 2.114 . S
O329 C332 1.252 . S
O330 Mg320 2.251 1_655 S
O330 Mg323 2.079 . S
O330 C332 1.273 1_655 S
C331 O327 1.246 . S
C331 O328 1.259 1_455 S
C332 O329 1.252 . S
C332 O330 1.273 1_455 S
O333 Mg320 2.010 . S
O333 C325 1.249 . S
Mg334 O335 2.028 . S
Mg334 O341 1.986 . S
Mg334 O343 2.114 . S
Mg334 O344 2.251 . S
Mg334 O347 2.010 . S
O335 Mg334 2.028 . S
O335 C338 1.250 . S
O336 Mg337 2.028 . S
O336 C338 1.248 . S
Mg337 O336 2.028 . S
Mg337 O342 2.032 . S
Mg337 O344 2.079 . S
C338 O335 1.250 . S
C338 O336 1.248 . S
C339 O340 1.264 . S
C339 O347 1.249 . S
O340 C339 1.264 . S
O341 Mg334 1.986 . S
O341 C345 1.246 . S
O342 Mg337 2.032 . S
O342 C345 1.259 . S
O343 Mg334 2.114 . S
O343 C346 1.252 . S
O344 Mg334 2.251 . S
O344 Mg337 2.079 . S
O344 C346 1.273 . S
C345 O341 1.246 . S
C345 O342 1.259 . S
C346 O343 1.252 . S
C346 O344 1.273 . S
O347 Mg334 2.010 . S
O347 C339 1.249 . S
Mg348 O349 2.028 1_655 S
Mg348 O355 1.986 1_655 S
Mg348 O357 2.114 . S
Mg348 O358 2.251 1_655 S
Mg348 O361 2.010 . S
O349 Mg348 2.028 1_455 S
O349 C352 1.250 . S
O350 Mg351 2.028 . S
O350 C352 1.248 . S
Mg351 O350 2.028 . S
Mg351 O356 2.032 . S
Mg351 O358 2.079 . S
C352 O349 1.250 . S
C352 O350 1.248 . S
C353 O354 1.264 . S
C353 O361 1.249 . S
O354 C353 1.264 . S
O355 Mg348 1.986 1_455 S
O355 C359 1.246 . S
O356 Mg351 2.032 . S
O356 C359 1.259 . S
O357 Mg348 2.114 . S
O357 C360 1.252 . S
O358 Mg348 2.251 1_455 S
O358 Mg351 2.079 . S
O358 C360 1.273 1_455 S
C359 O355 1.246 . S
C359 O356 1.259 . S
C360 O357 1.252 . S
C360 O358 1.273 1_655 S
O361 Mg348 2.010 . S
O361 C353 1.249 . S
Mg362 O363 2.028 . S
Mg362 O369 1.986 . S
Mg362 O371 2.114 . S
Mg362 O372 2.251 . S
Mg362 O375 2.010 . S
O363 Mg362 2.028 . S
O363 C366 1.250 . S
O364 Mg365 2.028 . S
O364 C366 1.248 . S
Mg365 O364 2.028 . S
Mg365 O370 2.032 . S
Mg365 O372 2.079 . S
C366 O363 1.250 . S
C366 O364 1.248 . S
C367 O368 1.264 . S
C367 O375 1.249 . S
O368 C367 1.264 . S
O369 Mg362 1.986 . S
O369 C373 1.246 . S
O370 Mg365 2.032 . S
O370 C373 1.259 . S
O371 Mg362 2.114 . S
O371 C374 1.252 . S
O372 Mg362 2.251 . S
O372 Mg365 2.079 . S
O372 C374 1.273 . S
C373 O369 1.246 . S
C373 O370 1.259 . S
C374 O371 1.252 . S
C374 O372 1.273 . S
O375 Mg362 2.010 . S
O375 C367 1.249 . S
C376 C377 1.349 . S
C376 C378 1.327 . S
C376 H401 0.950 . S
C377 C376 1.349 . S
C377 C393 1.349 . S
C378 C376 1.327 . S
C378 C397 1.429 . S
C378 H402 0.950 . S
C379 C396 1.574 . S
C379 C398 1.368 . S
C379 H403 0.949 . S
H380 C384 0.949 . S
C381 C382 1.349 . S
C381 C383 1.327 . S
C381 H404 0.950 . S
C382 C381 1.349 . S
C382 C394 1.349 . S
C383 C381 1.327 . S
C383 C399 1.429 . S
C383 H405 0.950 . S
C384 H380 0.949 . S
C384 C392 1.574 . S
C384 C400 1.368 . S
H385 C393 0.950 . S
H386 C391 0.950 . S
H387 C392 0.949 . S
H388 C394 0.950 . S
H389 C395 0.950 . S
H390 C396 0.949 . S
C391 H386 0.950 . S
C391 C393 1.327 . S
C391 C397 1.429 . S
C392 C384 1.574 . S
C392 H387 0.949 . S
C392 C398 1.368 . S
C393 C377 1.349 . S
C393 H385 0.950 . S
C393 C391 1.327 . S
C394 C382 1.349 . S
C394 H388 0.950 . S
C394 C395 1.327 . S
C395 H389 0.950 . S
C395 C394 1.327 . S
C395 C399 1.429 . S
C396 C379 1.574 . S
C396 H390 0.949 . S
C396 C400 1.368 . S
C397 C378 1.429 . S
C397 C391 1.429 . S
C397 C398 1.523 . S
C398 C379 1.368 . S
C398 C392 1.368 . S
C398 C397 1.523 . S
C399 C383 1.429 . S
C399 C395 1.429 . S
C399 C400 1.523 . S
C400 C384 1.368 . S
C400 C396 1.368 . S
C400 C399 1.523 . S
H401 C376 0.950 . S
H402 C378 0.950 . S
H403 C379 0.949 . S
H404 C381 0.950 . S
H405 C383 0.950 . S
C406 C407 1.349 . S
C406 C408 1.327 . S
C406 H431 0.950 . S
C407 C406 1.349 . S
C407 C423 1.349 . S
C408 C406 1.327 . S
C408 C427 1.429 . S
C408 H432 0.950 . S
C409 C426 1.574 . S
C409 C428 1.368 . S
C409 H433 0.949 . S
H410 C414 0.949 . S
C411 C412 1.349 . S
C411 C413 1.327 . S
C411 H434 0.950 . S
C412 C411 1.349 . S
C412 C424 1.349 . S
C413 C411 1.327 . S
C413 C429 1.429 . S
C413 H435 0.950 . S
C414 H410 0.949 . S
C414 C422 1.574 . S
C414 C430 1.368 . S
H415 C423 0.950 1_655 S
H416 C421 0.950 . S
H417 C422 0.949 . S
H418 C424 0.950 . S
H419 C425 0.950 . S
H420 C426 0.949 . S
C421 H416 0.950 . S
C421 C423 1.327 . S
C421 C427 1.429 . S
C422 C414 1.574 . S
C422 H417 0.949 . S
C422 C428 1.368 . S
C423 C407 1.349 . S
C423 H415 0.950 1_455 S
C423 C421 1.327 . S
C424 C412 1.349 . S
C424 H418 0.950 . S
C424 C425 1.327 . S
C425 H419 0.950 . S
C425 C424 1.327 . S
C425 C429 1.429 . S
C426 C409 1.574 . S
C426 H420 0.949 . S
C426 C430 1.368 . S
C427 C408 1.429 . S
C427 C421 1.429 . S
C427 C428 1.523 . S
C428 C409 1.368 . S
C428 C422 1.368 . S
C428 C427 1.523 . S
C429 C413 1.429 . S
C429 C425 1.429 . S
C429 C430 1.523 . S
C430 C414 1.368 . S
C430 C426 1.368 . S
C430 C429 1.523 . S
H431 C406 0.950 . S
H432 C408 0.950 . S
H433 C409 0.949 . S
H434 C411 0.950 . S
H435 C413 0.950 . S
C436 C437 1.349 . S
C436 C438 1.327 . S
C436 H461 0.950 . S
C437 C436 1.349 . S
C437 C453 1.349 . S
C438 C436 1.327 . S
C438 C457 1.429 . S
C438 H462 0.950 . S
C439 C456 1.574 . S
C439 C458 1.368 . S
C439 H463 0.949 . S
H440 C444 0.949 . S
C441 C442 1.349 . S
C441 C443 1.327 . S
C441 H464 0.950 1_556 S
C442 C441 1.349 . S
C442 C454 1.349 . S
C443 C441 1.327 . S
C443 C459 1.429 . S
C443 H465 0.950 . S
C444 H440 0.949 . S
C444 C452 1.574 . S
C444 C460 1.368 . S
H445 C453 0.950 . S
H446 C451 0.950 . S
H447 C452 0.949 . S
H448 C454 0.950 . S
H449 C455 0.950 . S
H450 C456 0.949 . S
C451 H446 0.950 . S
C451 C453 1.327 . S
C451 C457 1.429 . S
C452 C444 1.574 . S
C452 H447 0.949 . S
C452 C458 1.368 . S
C453 C437 1.349 . S
C453 H445 0.950 . S
C453 C451 1.327 . S
C454 C442 1.349 . S
C454 H448 0.950 . S
C454 C455 1.327 . S
C455 H449 0.950 . S
C455 C454 1.327 . S
C455 C459 1.429 . S
C456 C439 1.574 . S
C456 H450 0.949 . S
C456 C460 1.368 . S
C457 C438 1.429 . S
C457 C451 1.429 . S
C457 C458 1.523 . S
C458 C439 1.368 . S
C458 C452 1.368 . S
C458 C457 1.523 . S
C459 C443 1.429 . S
C459 C455 1.429 . S
C459 C460 1.523 . S
C460 C444 1.368 . S
C460 C456 1.368 . S
C460 C459 1.523 . S
H461 C436 0.950 . S
H462 C438 0.950 . S
H463 C439 0.949 . S
H464 C441 0.950 1_554 S
H465 C443 0.950 . S
C466 C467 1.349 1_545 S
C466 C468 1.327 . S
C466 H491 0.950 . S
C467 C466 1.349 1_565 S
C467 C483 1.349 1_455 S
C468 C466 1.327 . S
C468 C487 1.444 1_455 S
C468 H492 0.950 . S
C469 C486 1.574 . S
C469 C488 1.368 1_565 S
C469 H493 0.949 . S
H470 C474 0.949 . S
C471 C472 1.349 . S
C471 C473 1.327 . S
C471 H494 0.950 1_545 S
C472 C471 1.349 . S
C472 C484 1.349 . S
C473 C471 1.327 . S
C473 C489 1.429 . S
C473 H495 0.950 1_545 S
C474 H470 0.949 . S
C474 C482 1.574 . S
C474 C490 1.368 . S
H475 C483 0.950 . S
H476 C481 0.950 . S
H477 C482 0.949 . S
H478 C484 0.950 . S
H479 C485 0.950 . S
H480 C486 0.949 . S
C481 H476 0.950 . S
C481 C483 1.327 . S
C481 C487 1.407 1_565 S
C482 C474 1.574 . S
C482 H477 0.949 . S
C482 C488 1.368 . S
C483 C467 1.349 1_655 S
C483 H475 0.950 . S
C483 C481 1.327 . S
C484 C472 1.349 . S
C484 H478 0.950 . S
C484 C485 1.327 . S
C485 H479 0.950 . S
C485 C484 1.327 . S
C485 C489 1.429 . S
C486 C469 1.574 . S
C486 H480 0.949 . S
C486 C490 1.368 1_565 S
C487 C468 1.444 1_655 S
C487 C481 1.407 1_545 S
C487 C488 1.529 . S
C488 C469 1.368 1_545 S
C488 C482 1.368 . S
C488 C487 1.529 . S
C489 C473 1.429 . S
C489 C485 1.429 . S
C489 C490 1.523 . S
C490 C474 1.368 . S
C490 C486 1.368 1_545 S
C490 C489 1.523 . S
H491 C466 0.950 . S
H492 C468 0.950 . S
H493 C469 0.949 . S
H494 C471 0.950 1_565 S
H495 C473 0.950 1_565 S
C496 C497 1.349 . S
C496 C498 1.327 . S
C496 H521 0.950 . S
C497 C496 1.349 . S
C497 C513 1.349 . S
C498 C496 1.327 . S
C498 C517 1.429 . S
C498 H522 0.950 . S
C499 C516 1.574 . S
C499 C518 1.368 . S
C499 H523 0.949 . S
H500 C504 0.949 . S
C501 C502 1.349 . S
C501 C503 1.327 . S
C501 H524 0.950 . S
C502 C501 1.349 . S
C502 C514 1.349 . S
C503 C501 1.327 . S
C503 C519 1.429 . S
C503 H525 0.950 . S
C504 H500 0.949 . S
C504 C512 1.574 . S
C504 C520 1.368 . S
H505 C513 0.950 . S
H506 C511 0.950 . S
H507 C512 0.949 . S
H508 C514 0.950 . S
H509 C515 0.950 . S
H510 C516 0.949 . S
C511 H506 0.950 . S
C511 C513 1.327 . S
C511 C517 1.429 . S
C512 C504 1.574 . S
C512 H507 0.949 . S
C512 C518 1.368 . S
C513 C497 1.349 . S
C513 H505 0.950 . S
C513 C511 1.327 . S
C514 C502 1.349 . S
C514 H508 0.950 . S
C514 C515 1.327 . S
C515 H509 0.950 . S
C515 C514 1.327 . S
C515 C519 1.429 . S
C516 C499 1.574 . S
C516 H510 0.949 . S
C516 C520 1.368 . S
C517 C498 1.429 . S
C517 C511 1.429 . S
C517 C518 1.523 . S
C518 C499 1.368 . S
C518 C512 1.368 . S
C518 C517 1.523 . S
C519 C503 1.429 . S
C519 C515 1.429 . S
C519 C520 1.523 . S
C520 C504 1.368 . S
C520 C516 1.368 . S
C520 C519 1.523 . S
H521 C496 0.950 . S
H522 C498 0.950 . S
H523 C499 0.949 . S
H524 C501 0.950 . S
H525 C503 0.950 . S
C526 C527 1.349 . S
C526 C528 1.327 . S
C526 H551 0.950 . S
C527 C526 1.349 . S
C527 C543 1.349 . S
C528 C526 1.327 . S
C528 C547 1.429 . S
C528 H552 0.950 . S
C529 C546 1.574 . S
C529 C548 1.368 . S
C529 H553 0.949 . S
H530 C534 0.949 . S
C531 C532 1.349 . S
C531 C533 1.327 . S
C531 H554 0.950 . S
C532 C531 1.349 . S
C532 C544 1.349 . S
C533 C531 1.327 . S
C533 C549 1.429 . S
C533 H555 0.950 . S
C534 H530 0.949 . S
C534 C542 1.574 . S
C534 C550 1.368 . S
H535 C543 0.950 . S
H536 C541 0.950 . S
H537 C542 0.949 . S
H538 C544 0.950 . S
H539 C545 0.950 . S
H540 C546 0.949 . S
C541 H536 0.950 . S
C541 C543 1.327 . S
C541 C547 1.429 . S
C542 C534 1.574 . S
C542 H537 0.949 . S
C542 C548 1.368 . S
C543 C527 1.349 . S
C543 H535 0.950 . S
C543 C541 1.327 . S
C544 C532 1.349 . S
C544 H538 0.950 . S
C544 C545 1.327 . S
C545 H539 0.950 . S
C545 C544 1.327 . S
C545 C549 1.429 . S
C546 C529 1.574 . S
C546 H540 0.949 . S
C546 C550 1.368 . S
C547 C528 1.429 . S
C547 C541 1.429 . S
C547 C548 1.523 . S
C548 C529 1.368 . S
C548 C542 1.368 . S
C548 C547 1.523 . S
C549 C533 1.429 . S
C549 C545 1.429 . S
C549 C550 1.523 . S
C550 C534 1.368 . S
C550 C546 1.368 . S
C550 C549 1.523 . S
H551 C526 0.950 . S
H552 C528 0.950 . S
H553 C529 0.949 . S
H554 C531 0.950 . S
H555 C533 0.950 . S
C556 C557 1.349 . S
C556 C558 1.327 . S
C556 H581 0.950 . S
C557 C556 1.349 . S
C557 C573 1.349 . S
C558 C556 1.327 . S
C558 C577 1.429 . S
C558 H582 0.950 . S
C559 C576 1.574 . S
C559 C578 1.368 . S
C559 H583 0.949 . S
H560 C564 0.949 . S
C561 C562 1.349 . S
C561 C563 1.327 . S
C561 H584 0.950 . S
C562 C561 1.349 . S
C562 C574 1.349 . S
C563 C561 1.327 . S
C563 C579 1.429 . S
C563 H585 0.950 . S
C564 H560 0.949 . S
C564 C572 1.574 . S
C564 C580 1.368 . S
H565 C573 0.950 . S
H566 C571 0.950 . S
H567 C572 0.949 . S
H568 C574 0.950 . S
H569 C575 0.950 . S
H570 C576 0.949 . S
C571 H566 0.950 . S
C571 C573 1.327 . S
C571 C577 1.429 . S
C572 C564 1.574 . S
C572 H567 0.949 . S
C572 C578 1.368 . S
C573 C557 1.349 . S
C573 H565 0.950 . S
C573 C571 1.327 . S
C574 C562 1.349 . S
C574 H568 0.950 . S
C574 C575 1.327 . S
C575 H569 0.950 . S
C575 C574 1.327 . S
C575 C579 1.429 . S
C576 C559 1.574 . S
C576 H570 0.949 . S
C576 C580 1.368 . S
C577 C558 1.429 . S
C577 C571 1.429 . S
C577 C578 1.523 . S
C578 C559 1.368 . S
C578 C572 1.368 . S
C578 C577 1.523 . S
C579 C563 1.429 . S
C579 C575 1.429 . S
C579 C580 1.523 . S
C580 C564 1.368 . S
C580 C576 1.368 . S
C580 C579 1.523 . S
H581 C556 0.950 . S
H582 C558 0.950 . S
H583 C559 0.949 . S
H584 C561 0.950 . S
H585 C563 0.950 . S
C586 C587 1.349 . S
C586 C588 1.327 . S
C586 H611 0.950 . S
C587 C586 1.349 . S
C587 C603 1.349 . S
C588 C586 1.327 . S
C588 C607 1.429 . S
C588 H612 0.950 . S
C589 C606 1.574 . S
C589 C608 1.368 . S
C589 H613 0.949 . S
H590 C594 0.949 1_545 S
C591 C592 1.349 . S
C591 C593 1.327 . S
C591 H614 0.950 . S
C592 C591 1.349 . S
C592 C604 1.327 1_565 S
C593 C591 1.327 . S
C593 C609 1.429 . S
C593 H615 0.950 . S
C594 H590 0.949 1_565 S
C594 C602 1.574 . S
C594 C610 1.368 . S
H595 C603 0.950 . S
H596 C601 0.950 . S
H597 C602 0.949 . S
H598 C604 0.975 . S
H599 C605 0.950 1_545 S
H600 C606 0.949 . S
C601 H596 0.950 . S
C601 C603 1.327 . S
C601 C607 1.429 . S
C602 C594 1.574 . S
C602 H597 0.949 . S
C602 C608 1.368 . S
C603 C587 1.349 . S
C603 H595 0.950 . S
C603 C601 1.327 . S
C604 C592 1.327 1_545 S
C604 H598 0.975 . S
C604 C605 1.325 1_545 S
C605 H599 0.950 1_565 S
C605 C604 1.325 1_565 S
C605 C609 1.429 . S
C606 C589 1.574 . S
C606 H600 0.949 . S
C606 C610 1.368 . S
C607 C588 1.429 . S
C607 C601 1.429 . S
C607 C608 1.523 . S
C608 C589 1.368 . S
C608 C602 1.368 . S
C608 C607 1.523 . S
C609 C593 1.429 . S
C609 C605 1.429 . S
C609 C610 1.523 . S
C610 C594 1.368 . S
C610 C606 1.368 . S
C610 C609 1.523 . S
H611 C586 0.950 . S
H612 C588 0.950 . S
H613 C589 0.949 . S
H614 C591 0.950 . S
H615 C593 0.950 . S
C616 C617 1.349 . S
C616 C618 1.327 . S
C616 H641 0.950 . S
C617 C616 1.349 . S
C617 C633 1.349 . S
C618 C616 1.327 . S
C618 C637 1.429 . S
C618 H642 0.950 . S
C619 C636 1.574 . S
C619 C638 1.368 . S
C619 H643 0.949 . S
H620 C624 0.949 . S
C621 C622 1.349 . S
C621 C623 1.327 . S
C621 H644 0.950 . S
C622 C621 1.349 . S
C622 C634 1.349 . S
C623 C621 1.327 . S
C623 C639 1.429 . S
C623 H645 0.950 . S
C624 H620 0.949 . S
C624 C632 1.574 . S
C624 C640 1.368 . S
H625 C633 0.950 . S
H626 C631 0.950 . S
H627 C632 0.949 . S
H628 C634 0.950 . S
H629 C635 0.950 . S
H630 C636 0.949 . S
C631 H626 0.950 . S
C631 C633 1.327 . S
C631 C637 1.429 . S
C632 C624 1.574 . S
C632 H627 0.949 . S
C632 C638 1.368 . S
C633 C617 1.349 . S
C633 H625 0.950 . S
C633 C631 1.327 . S
C634 C622 1.349 . S
C634 H628 0.950 . S
C634 C635 1.327 . S
C635 H629 0.950 . S
C635 C634 1.327 . S
C635 C639 1.429 . S
C636 C619 1.574 . S
C636 H630 0.949 . S
C636 C640 1.368 . S
C637 C618 1.429 . S
C637 C631 1.429 . S
C637 C638 1.523 . S
C638 C619 1.368 . S
C638 C632 1.368 . S
C638 C637 1.523 . S
C639 C623 1.429 . S
C639 C635 1.429 . S
C639 C640 1.523 . S
C640 C624 1.368 . S
C640 C636 1.368 . S
C640 C639 1.523 . S
H641 C616 0.950 . S
H642 C618 0.950 . S
H643 C619 0.949 . S
H644 C621 0.950 . S
H645 C623 0.950 . S
C646 C647 1.349 . S
C646 C648 1.327 . S
C646 H671 0.950 . S
C647 C646 1.349 . S
C647 C663 1.349 . S
C648 C646 1.327 . S
C648 C667 1.429 . S
C648 H672 0.950 . S
C649 C666 1.574 . S
C649 C668 1.368 . S
C649 H673 0.949 . S
H650 C654 0.949 . S
C651 C652 1.349 . S
C651 C653 1.327 . S
C651 H674 0.950 . S
C652 C651 1.349 . S
C652 C664 1.349 . S
C653 C651 1.327 . S
C653 C669 1.429 . S
C653 H675 0.950 . S
C654 H650 0.949 . S
C654 C662 1.574 . S
C654 C670 1.368 . S
H655 C663 0.950 . S
H656 C661 0.950 . S
H657 C662 0.949 . S
H658 C664 0.950 . S
H659 C665 0.950 . S
H660 C666 0.949 . S
C661 H656 0.950 . S
C661 C663 1.327 . S
C661 C667 1.429 . S
C662 C654 1.574 . S
C662 H657 0.949 . S
C662 C668 1.368 . S
C663 C647 1.349 . S
C663 H655 0.950 . S
C663 C661 1.327 . S
C664 C652 1.349 . S
C664 H658 0.950 . S
C664 C665 1.327 . S
C665 H659 0.950 . S
C665 C664 1.327 . S
C665 C669 1.429 . S
C666 C649 1.574 . S
C666 H660 0.949 . S
C666 C670 1.368 . S
C667 C648 1.429 . S
C667 C661 1.429 . S
C667 C668 1.523 . S
C668 C649 1.368 . S
C668 C662 1.368 . S
C668 C667 1.523 . S
C669 C653 1.429 . S
C669 C665 1.429 . S
C669 C670 1.523 . S
C670 C654 1.368 . S
C670 C666 1.368 . S
C670 C669 1.523 . S
H671 C646 0.950 . S
H672 C648 0.950 . S
H673 C649 0.949 . S
H674 C651 0.950 . S
H675 C653 0.950 . S
C676 C677 1.349 . S
C676 C678 1.327 . S
C676 H701 0.950 . S
C677 C676 1.349 . S
C677 C693 1.349 . S
C678 C676 1.327 . S
C678 C697 1.429 . S
C678 H702 0.950 . S
C679 C696 1.574 . S
C679 C698 1.368 . S
C679 H703 0.949 . S
H680 C684 0.949 . S
C681 C682 1.349 . S
C681 C683 1.327 . S
C681 H704 0.950 . S
C682 C681 1.349 . S
C682 C694 1.349 . S
C683 C681 1.327 . S
C683 C699 1.429 . S
C683 H705 0.950 . S
C684 H680 0.949 . S
C684 C692 1.574 . S
C684 C700 1.368 . S
H685 C693 0.950 . S
H686 C691 0.950 . S
H687 C692 0.949 . S
H688 C694 0.950 . S
H689 C695 0.950 . S
H690 C696 0.949 . S
C691 H686 0.950 . S
C691 C693 1.327 . S
C691 C697 1.429 . S
C692 C684 1.574 . S
C692 H687 0.949 . S
C692 C698 1.368 . S
C693 C677 1.349 . S
C693 H685 0.950 . S
C693 C691 1.327 . S
C694 C682 1.349 . S
C694 H688 0.950 . S
C694 C695 1.327 . S
C695 H689 0.950 . S
C695 C694 1.327 . S
C695 C699 1.429 . S
C696 C679 1.574 . S
C696 H690 0.949 . S
C696 C700 1.368 . S
C697 C678 1.429 . S
C697 C691 1.429 . S
C697 C698 1.523 . S
C698 C679 1.368 . S
C698 C692 1.368 . S
C698 C697 1.523 . S
C699 C683 1.429 . S
C699 C695 1.429 . S
C699 C700 1.523 . S
C700 C684 1.368 . S
C700 C696 1.368 . S
C700 C699 1.523 . S
H701 C676 0.950 . S
H702 C678 0.950 . S
H703 C679 0.949 . S
H704 C681 0.950 . S
H705 C683 0.950 . S
C706 C707 1.349 . S
C706 C708 1.327 . S
C706 H731 0.950 . S
C707 C706 1.349 . S
C707 C723 1.349 . S
C708 C706 1.327 . S
C708 C727 1.429 . S
C708 H732 0.950 . S
C709 C726 1.574 . S
C709 C728 1.368 . S
C709 H733 0.949 . S
H710 C714 0.949 . S
C711 C712 1.349 . S
C711 C713 1.327 . S
C711 H734 0.950 . S
C712 C711 1.349 . S
C712 C724 1.349 . S
C713 C711 1.327 . S
C713 C729 1.429 . S
C713 H735 0.950 . S
C714 H710 0.949 . S
C714 C722 1.574 . S
C714 C730 1.368 . S
H715 C723 0.950 . S
H716 C721 0.950 . S
H717 C722 0.949 . S
H718 C724 0.950 . S
H719 C725 0.950 . S
H720 C726 0.949 . S
C721 H716 0.950 . S
C721 C723 1.327 . S
C721 C727 1.429 . S
C722 C714 1.574 . S
C722 H717 0.949 . S
C722 C728 1.368 . S
C723 C707 1.349 . S
C723 H715 0.950 . S
C723 C721 1.327 . S
C724 C712 1.349 . S
C724 H718 0.950 . S
C724 C725 1.327 . S
C725 H719 0.950 . S
C725 C724 1.327 . S
C725 C729 1.429 . S
C726 C709 1.574 . S
C726 H720 0.949 . S
C726 C730 1.368 . S
C727 C708 1.429 . S
C727 C721 1.429 . S
C727 C728 1.523 . S
C728 C709 1.368 . S
C728 C722 1.368 . S
C728 C727 1.523 . S
C729 C713 1.429 . S
C729 C725 1.429 . S
C729 C730 1.523 . S
C730 C714 1.368 . S
C730 C726 1.368 . S
C730 C729 1.523 . S
H731 C706 0.950 . S
H732 C708 0.950 . S
H733 C709 0.949 . S
H734 C711 0.950 . S
H735 C713 0.950 . S
C736 C737 1.349 . S
C736 C738 1.327 . S
C736 H761 0.950 . S
C737 C736 1.349 . S
C737 C753 1.349 . S
C738 C736 1.327 . S
C738 C757 1.429 . S
C738 H762 0.950 . S
C739 C756 1.574 . S
C739 C758 1.368 . S
C739 H763 0.949 . S
H740 C744 0.949 . S
C741 C742 1.349 . S
C741 C743 1.327 . S
C741 H764 0.950 . S
C742 C741 1.349 . S
C742 C754 1.349 . S
C743 C741 1.327 . S
C743 C759 1.429 . S
C743 H765 0.950 . S
C744 H740 0.949 . S
C744 C752 1.574 . S
C744 C760 1.368 . S
H745 C753 0.950 . S
H746 C751 0.950 . S
H747 C752 0.949 . S
H748 C754 0.950 . S
H749 C755 0.950 . S
H750 C756 0.949 . S
C751 H746 0.950 . S
C751 C753 1.327 . S
C751 C757 1.429 . S
C752 C744 1.574 . S
C752 H747 0.949 . S
C752 C758 1.368 . S
C753 C737 1.349 . S
C753 H745 0.950 . S
C753 C751 1.327 . S
C754 C742 1.349 . S
C754 H748 0.950 . S
C754 C755 1.327 . S
C755 H749 0.950 . S
C755 C754 1.327 . S
C755 C759 1.429 . S
C756 C739 1.574 . S
C756 H750 0.949 . S
C756 C760 1.368 . S
C757 C738 1.429 . S
C757 C751 1.429 . S
C757 C758 1.523 . S
C758 C739 1.368 . S
C758 C752 1.368 . S
C758 C757 1.523 . S
C759 C743 1.429 . S
C759 C755 1.429 . S
C759 C760 1.523 . S
C760 C744 1.368 . S
C760 C756 1.368 . S
C760 C759 1.523 . S
H761 C736 0.950 . S
H762 C738 0.950 . S
H763 C739 0.949 . S
H764 C741 0.950 . S
H765 C743 0.950 . S
C766 C767 1.349 . S
C766 C768 1.327 . S
C766 H791 0.950 . S
C767 C766 1.349 . S
C767 C783 1.349 . S
C768 C766 1.327 . S
C768 C787 1.429 . S
C768 H792 0.950 . S
C769 C786 1.574 . S
C769 C788 1.368 . S
C769 H793 0.949 . S
H770 C774 0.949 . S
C771 C772 1.349 . S
C771 C773 1.327 . S
C771 H794 0.950 . S
C772 C771 1.349 . S
C772 C784 1.349 . S
C773 C771 1.327 . S
C773 C789 1.429 . S
C773 H795 0.950 . S
C774 H770 0.949 . S
C774 C782 1.574 . S
C774 C790 1.368 . S
H775 C783 0.950 . S
H776 C781 0.950 . S
H777 C782 0.949 . S
H778 C784 0.950 . S
H779 C785 0.950 . S
H780 C786 0.949 . S
C781 H776 0.950 . S
C781 C783 1.327 . S
C781 C787 1.429 . S
C782 C774 1.574 . S
C782 H777 0.949 . S
C782 C788 1.368 . S
C783 C767 1.349 . S
C783 H775 0.950 . S
C783 C781 1.327 . S
C784 C772 1.349 . S
C784 H778 0.950 . S
C784 C785 1.327 . S
C785 H779 0.950 . S
C785 C784 1.327 . S
C785 C789 1.429 . S
C786 C769 1.574 . S
C786 H780 0.949 . S
C786 C790 1.368 . S
C787 C768 1.429 . S
C787 C781 1.429 . S
C787 C788 1.523 . S
C788 C769 1.368 . S
C788 C782 1.368 . S
C788 C787 1.523 . S
C789 C773 1.429 . S
C789 C785 1.429 . S
C789 C790 1.523 . S
C790 C774 1.368 . S
C790 C786 1.368 . S
C790 C789 1.523 . S
H791 C766 0.950 . S
H792 C768 0.950 . S
H793 C769 0.949 . S
H794 C771 0.950 . S
H795 C773 0.950 . S
C796 C797 1.349 . S
C796 C798 1.327 . S
C796 H821 0.950 . S
C797 C796 1.349 . S
C797 C813 1.349 . S
C798 C796 1.327 . S
C798 C817 1.429 . S
C798 H822 0.950 . S
C799 C816 1.574 . S
C799 C818 1.368 . S
C799 H823 0.949 . S
H800 C804 0.949 . S
C801 C802 1.349 . S
C801 C803 1.327 . S
C801 H824 0.950 . S
C802 C801 1.349 . S
C802 C814 1.349 . S
C803 C801 1.327 . S
C803 C819 1.429 . S
C803 H825 0.950 . S
C804 H800 0.949 . S
C804 C812 1.574 . S
C804 C820 1.368 . S
H805 C813 0.950 . S
H806 C811 0.950 . S
H807 C812 0.949 . S
H808 C814 0.950 . S
H809 C815 0.950 . S
H810 C816 0.949 . S
C811 H806 0.950 . S
C811 C813 1.327 . S
C811 C817 1.429 . S
C812 C804 1.574 . S
C812 H807 0.949 . S
C812 C818 1.368 . S
C813 C797 1.349 . S
C813 H805 0.950 . S
C813 C811 1.327 . S
C814 C802 1.349 . S
C814 H808 0.950 . S
C814 C815 1.327 . S
C815 H809 0.950 . S
C815 C814 1.327 . S
C815 C819 1.429 . S
C816 C799 1.574 . S
C816 H810 0.949 . S
C816 C820 1.368 . S
C817 C798 1.429 . S
C817 C811 1.429 . S
C817 C818 1.523 . S
C818 C799 1.368 . S
C818 C812 1.368 . S
C818 C817 1.523 . S
C819 C803 1.429 . S
C819 C815 1.429 . S
C819 C820 1.523 . S
C820 C804 1.368 . S
C820 C816 1.368 . S
C820 C819 1.523 . S
H821 C796 0.950 . S
H822 C798 0.950 . S
H823 C799 0.949 . S
H824 C801 0.950 . S
H825 C803 0.950 . S
C826 C827 1.349 . S
C826 C828 1.327 . S
C826 H851 0.950 . S
C827 C826 1.349 . S
C827 C843 1.349 . S
C828 C826 1.327 . S
C828 C847 1.429 . S
C828 H852 0.950 . S
C829 C846 1.574 . S
C829 C848 1.368 . S
C829 H853 0.949 . S
H830 C834 0.949 . S
C831 C832 1.349 1_455 S
C831 C833 1.333 1_455 S
C831 H854 0.950 . S
C832 C831 1.349 1_655 S
C832 C844 1.349 . S
C833 C831 1.333 1_655 S
C833 C849 1.451 . S
C833 H855 0.923 1_655 S
C834 H830 0.949 . S
C834 C842 1.574 . S
C834 C850 1.368 . S
H835 C843 0.950 . S
H836 C841 0.950 . S
H837 C842 0.949 . S
H838 C844 0.950 . S
H839 C845 0.950 . S
H840 C846 0.949 1_455 S
C841 H836 0.950 . S
C841 C843 1.327 . S
C841 C847 1.429 . S
C842 C834 1.574 . S
C842 H837 0.949 . S
C842 C848 1.368 . S
C843 C827 1.349 . S
C843 H835 0.950 . S
C843 C841 1.327 . S
C844 C832 1.349 . S
C844 H838 0.950 . S
C844 C845 1.327 . S
C845 H839 0.950 . S
C845 C844 1.327 . S
C845 C849 1.429 . S
C846 C829 1.574 . S
C846 H840 0.949 1_655 S
C846 C850 1.368 . S
C847 C828 1.429 . S
C847 C841 1.429 . S
C847 C848 1.523 . S
C848 C829 1.368 . S
C848 C842 1.368 . S
C848 C847 1.523 . S
C849 C833 1.451 . S
C849 C845 1.429 . S
C849 C850 1.523 . S
C850 C834 1.368 . S
C850 C846 1.368 . S
C850 C849 1.523 . S
H851 C826 0.950 . S
H852 C828 0.950 . S
H853 C829 0.949 . S
H854 C831 0.950 . S
H855 C833 0.923 1_455 S
C856 C857 1.349 . S
C856 C858 1.327 . S
C856 H881 0.950 . S
C857 C856 1.349 . S
C857 C873 1.349 . S
C858 C856 1.327 . S
C858 C877 1.429 . S
C858 H882 0.950 . S
C859 C876 1.574 . S
C859 C878 1.368 . S
C859 H883 0.949 . S
H860 C864 0.949 . S
C861 C862 1.349 . S
C861 C863 1.327 . S
C861 H884 0.950 . S
C862 C861 1.349 . S
C862 C874 1.349 . S
C863 C861 1.327 . S
C863 C879 1.429 . S
C863 H885 0.950 . S
C864 H860 0.949 . S
C864 C872 1.574 . S
C864 C880 1.368 . S
H865 C873 0.950 . S
H866 C871 0.950 . S
H867 C872 0.949 . S
H868 C874 0.950 . S
H869 C875 0.950 . S
H870 C876 0.949 . S
C871 H866 0.950 . S
C871 C873 1.327 . S
C871 C877 1.429 . S
C872 C864 1.574 . S
C872 H867 0.949 . S
C872 C878 1.368 . S
C873 C857 1.349 . S
C873 H865 0.950 . S
C873 C871 1.327 . S
C874 C862 1.349 . S
C874 H868 0.950 . S
C874 C875 1.327 . S
C875 H869 0.950 . S
C875 C874 1.327 . S
C875 C879 1.429 . S
C876 C859 1.574 . S
C876 H870 0.949 . S
C876 C880 1.368 . S
C877 C858 1.429 . S
C877 C871 1.429 . S
C877 C878 1.523 . S
C878 C859 1.368 . S
C878 C872 1.368 . S
C878 C877 1.523 . S
C879 C863 1.429 . S
C879 C875 1.429 . S
C879 C880 1.523 . S
C880 C864 1.368 . S
C880 C876 1.368 . S
C880 C879 1.523 . S
H881 C856 0.950 . S
H882 C858 0.950 . S
H883 C859 0.949 . S
H884 C861 0.950 . S
H885 C863 0.950 . S
C886 C887 1.349 . S
C886 C888 1.327 . S
C886 H911 0.950 . S
C887 C886 1.349 . S
C887 C903 1.349 . S
C888 C886 1.327 . S
C888 C907 1.429 . S
C888 H912 0.950 . S
C889 C906 1.574 . S
C889 C908 1.368 . S
C889 H913 0.949 . S
H890 C894 0.949 . S
C891 C892 1.349 . S
C891 C893 1.327 . S
C891 H914 0.950 . S
C892 C891 1.349 . S
C892 C904 1.349 . S
C893 C891 1.327 . S
C893 C909 1.429 . S
C893 H915 0.950 . S
C894 H890 0.949 . S
C894 C902 1.574 . S
C894 C910 1.368 . S
H895 C903 0.950 . S
H896 C901 0.950 . S
H897 C902 0.949 . S
H898 C904 0.950 . S
H899 C905 0.950 . S
H900 C906 0.949 . S
C901 H896 0.950 . S
C901 C903 1.327 . S
C901 C907 1.429 . S
C902 C894 1.574 . S
C902 H897 0.949 . S
C902 C908 1.368 . S
C903 C887 1.349 . S
C903 H895 0.950 . S
C903 C901 1.327 . S
C904 C892 1.349 . S
C904 H898 0.950 . S
C904 C905 1.327 . S
C905 H899 0.950 . S
C905 C904 1.327 . S
C905 C909 1.429 . S
C906 C889 1.574 . S
C906 H900 0.949 . S
C906 C910 1.368 . S
C907 C888 1.429 . S
C907 C901 1.429 . S
C907 C908 1.523 . S
C908 C889 1.368 . S
C908 C902 1.368 . S
C908 C907 1.523 . S
C909 C893 1.429 . S
C909 C905 1.429 . S
C909 C910 1.523 . S
C910 C894 1.368 . S
C910 C906 1.368 . S
C910 C909 1.523 . S
H911 C886 0.950 . S
H912 C888 0.950 . S
H913 C889 0.949 . S
H914 C891 0.950 . S
H915 C893 0.950 . S
C916 C917 1.349 1_556 S
C916 C918 1.327 1_545 S
C916 H941 0.950 . S
C917 C916 1.349 1_554 S
C917 C933 1.349 . S
C918 C916 1.327 1_565 S
C918 C937 1.429 1_556 S
C918 H942 0.950 . S
C919 C936 1.574 . S
C919 C938 1.368 . S
C919 H943 0.949 . S
H920 C924 0.949 . S
C921 C922 1.350 1_554 S
C921 C923 1.327 . S
C921 H944 0.950 . S
C922 C921 1.350 1_556 S
C922 C934 1.348 . S
C923 C921 1.327 . S
C923 C939 1.453 . S
C923 H945 0.950 . S
C924 H920 0.949 . S
C924 C932 1.574 . S
C924 C940 1.322 1_556 S
H925 C933 0.950 . S
H926 C931 0.950 . S
H927 C932 0.949 . S
H928 C934 0.950 . S
H929 C935 0.950 . S
H930 C936 0.949 . S
C931 H926 0.950 . S
C931 C933 1.327 . S
C931 C937 1.429 1_545 S
C932 C924 1.574 . S
C932 H927 0.949 . S
C932 C938 1.368 1_556 S
C933 C917 1.349 . S
C933 H925 0.950 . S
C933 C931 1.327 . S
C934 C922 1.348 . S
C934 H928 0.950 . S
C934 C935 1.327 . S
C935 H929 0.950 . S
C935 C934 1.327 . S
C935 C939 1.405 1_556 S
C936 C919 1.574 . S
C936 H930 0.949 . S
C936 C940 1.415 . S
C937 C918 1.429 1_554 S
C937 C931 1.429 1_565 S
C937 C938 1.523 . S
C938 C919 1.368 . S
C938 C932 1.368 1_554 S
C938 C937 1.523 . S
C939 C923 1.453 . S
C939 C935 1.405 1_554 S
C939 C940 1.524 . S
C940 C924 1.322 1_554 S
C940 C936 1.415 . S
C940 C939 1.524 . S
H941 C916 0.950 . S
H942 C918 0.950 . S
H943 C919 0.949 . S
H944 C921 0.950 . S
H945 C923 0.950 . S
C946 C947 1.349 . S
C946 C948 1.327 . S
C946 H971 0.950 . S
C947 C946 1.349 . S
C947 C963 1.349 . S
C948 C946 1.327 . S
C948 C967 1.429 . S
C948 H972 0.950 . S
C949 C966 1.574 . S
C949 C968 1.368 . S
C949 H973 0.949 . S
H950 C954 0.949 . S
C951 C952 1.349 . S
C951 C953 1.327 . S
C951 H974 0.950 . S
C952 C951 1.349 . S
C952 C964 1.349 . S
C953 C951 1.327 . S
C953 C969 1.429 . S
C953 H975 0.950 . S
C954 H950 0.949 . S
C954 C962 1.574 . S
C954 C970 1.368 . S
H955 C963 0.950 . S
H956 C961 0.950 . S
H957 C962 0.949 . S
H958 C964 0.950 . S
H959 C965 0.950 . S
H960 C966 0.949 . S
C961 H956 0.950 . S
C961 C963 1.327 . S
C961 C967 1.429 . S
C962 C954 1.574 . S
C962 H957 0.949 . S
C962 C968 1.368 . S
C963 C947 1.349 . S
C963 H955 0.950 . S
C963 C961 1.327 . S
C964 C952 1.349 . S
C964 H958 0.950 . S
C964 C965 1.327 . S
C965 H959 0.950 . S
C965 C964 1.327 . S
C965 C969 1.429 . S
C966 C949 1.574 . S
C966 H960 0.949 . S
C966 C970 1.368 . S
C967 C948 1.429 . S
C967 C961 1.429 . S
C967 C968 1.523 . S
C968 C949 1.368 . S
C968 C962 1.368 . S
C968 C967 1.523 . S
C969 C953 1.429 . S
C969 C965 1.429 . S
C969 C970 1.523 . S
C970 C954 1.368 . S
C970 C966 1.368 . S
C970 C969 1.523 . S
H971 C946 0.950 . S
H972 C948 0.950 . S
H973 C949 0.949 . S
H974 C951 0.950 . S
H975 C953 0.950 . S
C976 C977 1.349 . S
C976 C978 1.327 . S
C976 H1001 0.950 . S
C977 C976 1.349 . S
C977 C993 1.349 . S
C978 C976 1.327 . S
C978 C997 1.429 . S
C978 H1002 0.950 . S
C979 C996 1.574 . S
C979 C998 1.368 . S
C979 H1003 0.949 . S
H980 C984 0.949 . S
C981 C982 1.349 . S
C981 C983 1.327 . S
C981 H1004 0.950 . S
C982 C981 1.349 . S
C982 C994 1.349 . S
C983 C981 1.327 . S
C983 C999 1.429 . S
C983 H1005 0.950 . S
C984 H980 0.949 . S
C984 C992 1.574 . S
C984 C1000 1.368 . S
H985 C993 0.950 . S
H986 C991 0.950 . S
H987 C992 0.949 . S
H988 C994 0.950 . S
H989 C995 0.950 . S
H990 C996 0.949 . S
C991 H986 0.950 . S
C991 C993 1.327 . S
C991 C997 1.429 . S
C992 C984 1.574 . S
C992 H987 0.949 . S
C992 C998 1.368 . S
C993 C977 1.349 . S
C993 H985 0.950 . S
C993 C991 1.327 . S
C994 C982 1.349 . S
C994 H988 0.950 . S
C994 C995 1.327 . S
C995 H989 0.950 . S
C995 C994 1.327 . S
C995 C999 1.429 . S
C996 C979 1.574 . S
C996 H990 0.949 . S
C996 C1000 1.368 . S
C997 C978 1.429 . S
C997 C991 1.429 . S
C997 C998 1.523 . S
C998 C979 1.368 . S
C998 C992 1.368 . S
C998 C997 1.523 . S
C999 C983 1.429 . S
C999 C995 1.429 . S
C999 C1000 1.523 . S
C1000 C984 1.368 . S
C1000 C996 1.368 . S
C1000 C999 1.523 . S
H1001 C976 0.950 . S
H1002 C978 0.950 . S
H1003 C979 0.949 . S
H1004 C981 0.950 . S
H1005 C983 0.950 . S
C1006 C1007 1.349 . S
C1006 C1008 1.327 . S
C1006 H1031 0.950 . S
C1007 C1006 1.349 . S
C1007 C1023 1.349 . S
C1008 C1006 1.327 . S
C1008 C1027 1.429 . S
C1008 H1032 0.950 . S
C1009 C1026 1.574 . S
C1009 C1028 1.368 . S
C1009 H1033 0.949 . S
H1010 C1014 0.949 . S
C1011 C1012 1.349 . S
C1011 C1013 1.327 . S
C1011 H1034 0.950 . S
C1012 C1011 1.349 . S
C1012 C1024 1.349 . S
C1013 C1011 1.327 . S
C1013 C1029 1.429 . S
C1013 H1035 0.950 . S
C1014 H1010 0.949 . S
C1014 C1022 1.574 . S
C1014 C1030 1.368 . S
H1015 C1023 0.950 . S
H1016 C1021 0.950 . S
H1017 C1022 0.949 . S
H1018 C1024 0.950 . S
H1019 C1025 0.950 . S
H1020 C1026 0.949 . S
C1021 H1016 0.950 . S
C1021 C1023 1.327 . S
C1021 C1027 1.429 . S
C1022 C1014 1.574 . S
C1022 H1017 0.949 . S
C1022 C1028 1.368 . S
C1023 C1007 1.349 . S
C1023 H1015 0.950 . S
C1023 C1021 1.327 . S
C1024 C1012 1.349 . S
C1024 H1018 0.950 . S
C1024 C1025 1.327 . S
C1025 H1019 0.950 . S
C1025 C1024 1.327 . S
C1025 C1029 1.429 . S
C1026 C1009 1.574 . S
C1026 H1020 0.949 . S
C1026 C1030 1.368 . S
C1027 C1008 1.429 . S
C1027 C1021 1.429 . S
C1027 C1028 1.523 . S
C1028 C1009 1.368 . S
C1028 C1022 1.368 . S
C1028 C1027 1.523 . S
C1029 C1013 1.429 . S
C1029 C1025 1.429 . S
C1029 C1030 1.523 . S
C1030 C1014 1.368 . S
C1030 C1026 1.368 . S
C1030 C1029 1.523 . S
H1031 C1006 0.950 . S
H1032 C1008 0.950 . S
H1033 C1009 0.949 . S
H1034 C1011 0.950 . S
H1035 C1013 0.950 . S
C1036 C1037 1.349 1_545 S
C1036 C1038 1.327 . S
C1036 H1061 0.950 . S
C1037 C1036 1.349 1_565 S
C1037 C1053 1.349 . S
C1038 C1036 1.327 . S
C1038 C1057 1.429 . S
C1038 H1062 0.950 . S
C1039 C1056 1.574 . S
C1039 C1058 1.368 . S
C1039 H1063 0.949 . S
H1040 C1044 0.949 . S
C1041 C1042 1.349 . S
C1041 C1043 1.327 . S
C1041 H1064 0.950 . S
C1042 C1041 1.349 . S
C1042 C1054 1.349 . S
C1043 C1041 1.327 . S
C1043 C1059 1.429 . S
C1043 H1065 0.950 . S
C1044 H1040 0.949 . S
C1044 C1052 1.574 . S
C1044 C1060 1.368 . S
H1045 C1053 0.950 . S
H1046 C1051 0.950 . S
H1047 C1052 0.949 . S
H1048 C1054 0.950 . S
H1049 C1055 0.950 . S
H1050 C1056 0.949 . S
C1051 H1046 0.950 . S
C1051 C1053 1.327 . S
C1051 C1057 1.429 1_565 S
C1052 C1044 1.574 . S
C1052 H1047 0.949 . S
C1052 C1058 1.368 . S
C1053 C1037 1.349 . S
C1053 H1045 0.950 . S
C1053 C1051 1.327 . S
C1054 C1042 1.349 . S
C1054 H1048 0.950 . S
C1054 C1055 1.327 . S
C1055 H1049 0.950 . S
C1055 C1054 1.327 . S
C1055 C1059 1.429 . S
C1056 C1039 1.574 . S
C1056 H1050 0.949 . S
C1056 C1060 1.368 . S
C1057 C1038 1.429 . S
C1057 C1051 1.429 1_545 S
C1057 C1058 1.523 . S
C1058 C1039 1.368 . S
C1058 C1052 1.368 . S
C1058 C1057 1.523 . S
C1059 C1043 1.429 . S
C1059 C1055 1.429 . S
C1059 C1060 1.523 . S
C1060 C1044 1.368 . S
C1060 C1056 1.368 . S
C1060 C1059 1.523 . S
H1061 C1036 0.950 . S
H1062 C1038 0.950 . S
H1063 C1039 0.949 . S
H1064 C1041 0.950 . S
H1065 C1043 0.950 . S
C1066 C1067 1.349 . S
C1066 C1068 1.327 . S
C1066 H1091 0.950 . S
C1067 C1066 1.349 . S
C1067 C1083 1.349 . S
C1068 C1066 1.327 . S
C1068 C1087 1.429 . S
C1068 H1092 0.950 . S
C1069 C1086 1.574 . S
C1069 C1088 1.368 . S
C1069 H1093 0.949 . S
H1070 C1074 0.949 . S
C1071 C1072 1.349 . S
C1071 C1073 1.327 . S
C1071 H1094 0.950 . S
C1072 C1071 1.349 . S
C1072 C1084 1.349 . S
C1073 C1071 1.327 . S
C1073 C1089 1.429 . S
C1073 H1095 0.950 . S
C1074 H1070 0.949 . S
C1074 C1082 1.574 . S
C1074 C1090 1.368 . S
H1075 C1083 0.950 . S
H1076 C1081 0.950 . S
H1077 C1082 0.949 . S
H1078 C1084 0.950 . S
H1079 C1085 0.950 . S
H1080 C1086 0.949 . S
C1081 H1076 0.950 . S
C1081 C1083 1.327 . S
C1081 C1087 1.429 . S
C1082 C1074 1.574 . S
C1082 H1077 0.949 . S
C1082 C1088 1.368 . S
C1083 C1067 1.349 . S
C1083 H1075 0.950 . S
C1083 C1081 1.327 . S
C1084 C1072 1.349 . S
C1084 H1078 0.950 . S
C1084 C1085 1.327 . S
C1085 H1079 0.950 . S
C1085 C1084 1.327 . S
C1085 C1089 1.429 . S
C1086 C1069 1.574 . S
C1086 H1080 0.949 . S
C1086 C1090 1.368 . S
C1087 C1068 1.429 . S
C1087 C1081 1.429 . S
C1087 C1088 1.523 . S
C1088 C1069 1.368 . S
C1088 C1082 1.368 . S
C1088 C1087 1.523 . S
C1089 C1073 1.429 . S
C1089 C1085 1.429 . S
C1089 C1090 1.523 . S
C1090 C1074 1.368 . S
C1090 C1086 1.368 . S
C1090 C1089 1.523 . S
H1091 C1066 0.950 . S
H1092 C1068 0.950 . S
H1093 C1069 0.949 . S
H1094 C1071 0.950 . S
H1095 C1073 0.950 . S
C1096 C1097 1.349 . S
C1096 C1098 1.327 . S
C1096 H1121 0.950 . S
C1097 C1096 1.349 . S
C1097 C1113 1.349 . S
C1098 C1096 1.327 . S
C1098 C1117 1.429 . S
C1098 H1122 0.950 . S
C1099 C1116 1.574 . S
C1099 C1118 1.368 . S
C1099 H1123 0.949 . S
H1100 C1104 0.949 . S
C1101 C1102 1.349 . S
C1101 C1103 1.327 . S
C1101 H1124 0.950 . S
C1102 C1101 1.349 . S
C1102 C1114 1.349 . S
C1103 C1101 1.327 . S
C1103 C1119 1.429 . S
C1103 H1125 0.950 . S
C1104 H1100 0.949 . S
C1104 C1112 1.574 . S
C1104 C1120 1.368 . S
H1105 C1113 0.950 . S
H1106 C1111 0.950 . S
H1107 C1112 0.949 . S
H1108 C1114 0.950 . S
H1109 C1115 0.950 . S
H1110 C1116 0.949 . S
C1111 H1106 0.950 . S
C1111 C1113 1.327 . S
C1111 C1117 1.429 . S
C1112 C1104 1.574 . S
C1112 H1107 0.949 . S
C1112 C1118 1.368 . S
C1113 C1097 1.349 . S
C1113 H1105 0.950 . S
C1113 C1111 1.327 . S
C1114 C1102 1.349 . S
C1114 H1108 0.950 . S
C1114 C1115 1.327 . S
C1115 H1109 0.950 . S
C1115 C1114 1.327 . S
C1115 C1119 1.429 . S
C1116 C1099 1.574 . S
C1116 H1110 0.949 . S
C1116 C1120 1.368 . S
C1117 C1098 1.429 . S
C1117 C1111 1.429 . S
C1117 C1118 1.523 . S
C1118 C1099 1.368 . S
C1118 C1112 1.368 . S
C1118 C1117 1.523 . S
C1119 C1103 1.429 . S
C1119 C1115 1.429 . S
C1119 C1120 1.523 . S
C1120 C1104 1.368 . S
C1120 C1116 1.368 . S
C1120 C1119 1.523 . S
H1121 C1096 0.950 . S
H1122 C1098 0.950 . S
H1123 C1099 0.949 . S
H1124 C1101 0.950 . S
H1125 C1103 0.950 . S
C1126 C1127 1.349 . S
C1126 C1128 1.327 . S
C1126 H1151 0.950 . S
C1127 C1126 1.349 . S
C1127 C1143 1.349 . S
C1128 C1126 1.327 . S
C1128 C1147 1.429 . S
C1128 H1152 0.950 . S
C1129 C1146 1.585 . S
C1129 C1148 1.368 . S
C1129 H1153 0.949 1_545 S
H1130 C1134 0.949 . S
C1131 C1132 1.349 1_565 S
C1131 C1133 1.327 . S
C1131 H1154 0.950 . S
C1132 C1131 1.349 1_545 S
C1132 C1144 1.349 . S
C1133 C1131 1.327 . S
C1133 C1149 1.429 1_565 S
C1133 H1155 0.950 . S
C1134 H1130 0.949 . S
C1134 C1142 1.574 . S
C1134 C1150 1.368 . S
H1135 C1143 0.950 . S
H1136 C1141 0.979 . S
H1137 C1142 0.949 . S
H1138 C1144 0.950 . S
H1139 C1145 0.950 . S
H1140 C1146 0.922 1_565 S
C1141 H1136 0.979 . S
C1141 C1143 1.327 . S
C1141 C1147 1.429 . S
C1142 C1134 1.574 . S
C1142 H1137 0.949 . S
C1142 C1148 1.368 . S
C1143 C1127 1.349 . S
C1143 H1135 0.950 . S
C1143 C1141 1.327 . S
C1144 C1132 1.349 . S
C1144 H1138 0.950 . S
C1144 C1145 1.327 . S
C1145 H1139 0.950 . S
C1145 C1144 1.327 . S
C1145 C1149 1.429 . S
C1146 C1129 1.585 . S
C1146 H1140 0.922 1_545 S
C1146 C1150 1.388 . S
C1147 C1128 1.429 . S
C1147 C1141 1.429 . S
C1147 C1148 1.523 . S
C1148 C1129 1.368 . S
C1148 C1142 1.368 . S
C1148 C1147 1.523 . S
C1149 C1133 1.429 1_545 S
C1149 C1145 1.429 . S
C1149 C1150 1.523 . S
C1150 C1134 1.368 . S
C1150 C1146 1.388 . S
C1150 C1149 1.523 . S
H1151 C1126 0.950 . S
H1152 C1128 0.950 . S
H1153 C1129 0.949 1_565 S
H1154 C1131 0.950 . S
H1155 C1133 0.950 . S
C1156 C1157 1.349 . S
C1156 C1158 1.327 . S
C1156 H1181 0.950 . S
C1157 C1156 1.349 . S
C1157 C1173 1.349 . S
C1158 C1156 1.327 . S
C1158 C1177 1.429 . S
C1158 H1182 0.950 . S
C1159 C1176 1.574 . S
C1159 C1178 1.368 . S
C1159 H1183 0.949 . S
H1160 C1164 0.949 . S
C1161 C1162 1.349 . S
C1161 C1163 1.327 . S
C1161 H1184 0.950 . S
C1162 C1161 1.349 . S
C1162 C1174 1.349 . S
C1163 C1161 1.327 . S
C1163 C1179 1.429 . S
C1163 H1185 0.950 . S
C1164 H1160 0.949 . S
C1164 C1172 1.574 . S
C1164 C1180 1.368 . S
H1165 C1173 0.950 . S
H1166 C1171 0.950 . S
H1167 C1172 0.949 . S
H1168 C1174 0.950 . S
H1169 C1175 0.950 . S
H1170 C1176 0.949 . S
C1171 H1166 0.950 . S
C1171 C1173 1.327 . S
C1171 C1177 1.429 . S
C1172 C1164 1.574 . S
C1172 H1167 0.949 . S
C1172 C1178 1.368 . S
C1173 C1157 1.349 . S
C1173 H1165 0.950 . S
C1173 C1171 1.327 . S
C1174 C1162 1.349 . S
C1174 H1168 0.950 . S
C1174 C1175 1.327 . S
C1175 H1169 0.950 . S
C1175 C1174 1.327 . S
C1175 C1179 1.429 . S
C1176 C1159 1.574 . S
C1176 H1170 0.949 . S
C1176 C1180 1.368 . S
C1177 C1158 1.429 . S
C1177 C1171 1.429 . S
C1177 C1178 1.523 . S
C1178 C1159 1.368 . S
C1178 C1172 1.368 . S
C1178 C1177 1.523 . S
C1179 C1163 1.429 . S
C1179 C1175 1.429 . S
C1179 C1180 1.523 . S
C1180 C1164 1.368 . S
C1180 C1176 1.368 . S
C1180 C1179 1.523 . S
H1181 C1156 0.950 . S
H1182 C1158 0.950 . S
H1183 C1159 0.949 . S
H1184 C1161 0.950 . S
H1185 C1163 0.950 . S
C1186 C1187 1.349 . S
C1186 C1188 1.327 . S
C1186 H1211 0.950 . S
C1187 C1186 1.349 . S
C1187 C1203 1.349 . S
C1188 C1186 1.327 . S
C1188 C1207 1.429 . S
C1188 H1212 0.950 . S
C1189 C1206 1.574 . S
C1189 C1208 1.368 . S
C1189 H1213 0.949 . S
H1190 C1194 0.949 . S
C1191 C1192 1.349 . S
C1191 C1193 1.327 . S
C1191 H1214 0.950 . S
C1192 C1191 1.349 . S
C1192 C1204 1.349 . S
C1193 C1191 1.327 . S
C1193 C1209 1.429 . S
C1193 H1215 0.950 . S
C1194 H1190 0.949 . S
C1194 C1202 1.574 . S
C1194 C1210 1.368 . S
H1195 C1203 0.950 . S
H1196 C1201 0.950 . S
H1197 C1202 0.949 . S
H1198 C1204 0.950 . S
H1199 C1205 0.950 . S
H1200 C1206 0.949 . S
C1201 H1196 0.950 . S
C1201 C1203 1.327 . S
C1201 C1207 1.429 . S
C1202 C1194 1.574 . S
C1202 H1197 0.949 . S
C1202 C1208 1.368 . S
C1203 C1187 1.349 . S
C1203 H1195 0.950 . S
C1203 C1201 1.327 . S
C1204 C1192 1.349 . S
C1204 H1198 0.950 . S
C1204 C1205 1.327 . S
C1205 H1199 0.950 . S
C1205 C1204 1.327 . S
C1205 C1209 1.429 . S
C1206 C1189 1.574 . S
C1206 H1200 0.949 . S
C1206 C1210 1.368 . S
C1207 C1188 1.429 . S
C1207 C1201 1.429 . S
C1207 C1208 1.523 . S
C1208 C1189 1.368 . S
C1208 C1202 1.368 . S
C1208 C1207 1.523 . S
C1209 C1193 1.429 . S
C1209 C1205 1.429 . S
C1209 C1210 1.523 . S
C1210 C1194 1.368 . S
C1210 C1206 1.368 . S
C1210 C1209 1.523 . S
H1211 C1186 0.950 . S
H1212 C1188 0.950 . S
H1213 C1189 0.949 . S
H1214 C1191 0.950 . S
H1215 C1193 0.950 . S
C1216 C1217 1.349 . S
C1216 C1218 1.327 . S
C1216 H1241 0.950 . S
C1217 C1216 1.349 . S
C1217 C1233 1.349 . S
C1218 C1216 1.327 . S
C1218 C1237 1.429 . S
C1218 H1242 0.950 . S
C1219 C1236 1.574 . S
C1219 C1238 1.368 . S
C1219 H1243 0.949 . S
H1220 C1224 0.949 . S
C1221 C1222 1.349 . S
C1221 C1223 1.327 . S
C1221 H1244 0.950 . S
C1222 C1221 1.349 . S
C1222 C1234 1.349 . S
C1223 C1221 1.327 . S
C1223 C1239 1.429 . S
C1223 H1245 0.950 . S
C1224 H1220 0.949 . S
C1224 C1232 1.574 . S
C1224 C1240 1.368 . S
H1225 C1233 0.950 . S
H1226 C1231 0.950 . S
H1227 C1232 0.949 . S
H1228 C1234 0.950 . S
H1229 C1235 0.950 . S
H1230 C1236 0.949 . S
C1231 H1226 0.950 . S
C1231 C1233 1.327 . S
C1231 C1237 1.429 . S
C1232 C1224 1.574 . S
C1232 H1227 0.949 . S
C1232 C1238 1.368 . S
C1233 C1217 1.349 . S
C1233 H1225 0.950 . S
C1233 C1231 1.327 . S
C1234 C1222 1.349 . S
C1234 H1228 0.950 . S
C1234 C1235 1.327 . S
C1235 H1229 0.950 . S
C1235 C1234 1.327 . S
C1235 C1239 1.429 . S
C1236 C1219 1.574 . S
C1236 H1230 0.949 . S
C1236 C1240 1.368 . S
C1237 C1218 1.429 . S
C1237 C1231 1.429 . S
C1237 C1238 1.523 . S
C1238 C1219 1.368 . S
C1238 C1232 1.368 . S
C1238 C1237 1.523 . S
C1239 C1223 1.429 . S
C1239 C1235 1.429 . S
C1239 C1240 1.523 . S
C1240 C1224 1.368 . S
C1240 C1236 1.368 . S
C1240 C1239 1.523 . S
H1241 C1216 0.950 . S
H1242 C1218 0.950 . S
H1243 C1219 0.949 . S
H1244 C1221 0.950 . S
H1245 C1223 0.950 . S
C1246 C1247 1.349 . S
C1246 C1248 1.327 . S
C1246 H1271 0.950 . S
C1247 C1246 1.349 . S
C1247 C1263 1.349 . S
C1248 C1246 1.327 . S
C1248 C1267 1.429 . S
C1248 H1272 0.950 . S
C1249 C1266 1.574 . S
C1249 C1268 1.368 . S
C1249 H1273 0.949 . S
H1250 C1254 0.949 . S
C1251 C1252 1.349 . S
C1251 C1253 1.327 . S
C1251 H1274 0.950 . S
C1252 C1251 1.349 . S
C1252 C1264 1.349 . S
C1253 C1251 1.327 . S
C1253 C1269 1.429 . S
C1253 H1275 0.950 . S
C1254 H1250 0.949 . S
C1254 C1262 1.574 . S
C1254 C1270 1.368 . S
H1255 C1263 0.950 1_455 S
H1256 C1261 0.950 . S
H1257 C1262 0.949 . S
H1258 C1264 0.950 . S
H1259 C1265 0.950 . S
H1260 C1266 0.949 . S
C1261 H1256 0.950 . S
C1261 C1263 1.327 . S
C1261 C1267 1.429 . S
C1262 C1254 1.574 . S
C1262 H1257 0.949 . S
C1262 C1268 1.368 . S
C1263 C1247 1.349 . S
C1263 H1255 0.950 1_655 S
C1263 C1261 1.327 . S
C1264 C1252 1.349 . S
C1264 H1258 0.950 . S
C1264 C1265 1.327 . S
C1265 H1259 0.950 . S
C1265 C1264 1.327 . S
C1265 C1269 1.429 . S
C1266 C1249 1.574 . S
C1266 H1260 0.949 . S
C1266 C1270 1.368 . S
C1267 C1248 1.429 . S
C1267 C1261 1.429 . S
C1267 C1268 1.523 . S
C1268 C1249 1.368 . S
C1268 C1262 1.368 . S
C1268 C1267 1.523 . S
C1269 C1253 1.429 . S
C1269 C1265 1.429 . S
C1269 C1270 1.523 . S
C1270 C1254 1.368 . S
C1270 C1266 1.368 . S
C1270 C1269 1.523 . S
H1271 C1246 0.950 . S
H1272 C1248 0.950 . S
H1273 C1249 0.949 . S
H1274 C1251 0.950 . S
H1275 C1253 0.950 . S
C1276 C1277 1.349 . S
C1276 C1278 1.327 . S
C1276 H1301 0.950 . S
C1277 C1276 1.349 . S
C1277 C1293 1.349 . S
C1278 C1276 1.327 . S
C1278 C1297 1.429 . S
C1278 H1302 0.950 . S
C1279 C1296 1.574 . S
C1279 C1298 1.368 . S
C1279 H1303 0.949 . S
H1280 C1284 0.949 . S
C1281 C1282 1.349 . S
C1281 C1283 1.327 . S
C1281 H1304 0.950 . S
C1282 C1281 1.349 . S
C1282 C1294 1.349 . S
C1283 C1281 1.327 . S
C1283 C1299 1.429 . S
C1283 H1305 0.950 . S
C1284 H1280 0.949 . S
C1284 C1292 1.574 . S
C1284 C1300 1.368 . S
H1285 C1293 0.950 . S
H1286 C1291 0.950 . S
H1287 C1292 0.949 . S
H1288 C1294 0.950 . S
H1289 C1295 0.950 . S
H1290 C1296 0.949 . S
C1291 H1286 0.950 . S
C1291 C1293 1.327 . S
C1291 C1297 1.429 . S
C1292 C1284 1.574 . S
C1292 H1287 0.949 . S
C1292 C1298 1.368 . S
C1293 C1277 1.349 . S
C1293 H1285 0.950 . S
C1293 C1291 1.327 . S
C1294 C1282 1.349 . S
C1294 H1288 0.950 . S
C1294 C1295 1.327 . S
C1295 H1289 0.950 . S
C1295 C1294 1.327 . S
C1295 C1299 1.429 . S
C1296 C1279 1.574 . S
C1296 H1290 0.949 . S
C1296 C1300 1.368 . S
C1297 C1278 1.429 . S
C1297 C1291 1.429 . S
C1297 C1298 1.523 . S
C1298 C1279 1.368 . S
C1298 C1292 1.368 . S
C1298 C1297 1.523 . S
C1299 C1283 1.429 . S
C1299 C1295 1.429 . S
C1299 C1300 1.523 . S
C1300 C1284 1.368 . S
C1300 C1296 1.368 . S
C1300 C1299 1.523 . S
H1301 C1276 0.950 . S
H1302 C1278 0.950 . S
H1303 C1279 0.949 . S
H1304 C1281 0.950 . S
H1305 C1283 0.950 . S
C1306 C1307 1.349 . S
C1306 C1308 1.327 . S
C1306 H1331 0.950 . S
C1307 C1306 1.349 . S
C1307 C1323 1.349 . S
C1308 C1306 1.327 . S
C1308 C1327 1.429 . S
C1308 H1332 0.950 . S
C1309 C1326 1.574 . S
C1309 C1328 1.368 . S
C1309 H1333 0.949 . S
H1310 C1314 0.949 . S
C1311 C1312 1.349 . S
C1311 C1313 1.327 . S
C1311 H1334 0.950 . S
C1312 C1311 1.349 . S
C1312 C1324 1.349 . S
C1313 C1311 1.327 . S
C1313 C1329 1.429 . S
C1313 H1335 0.950 . S
C1314 H1310 0.949 . S
C1314 C1322 1.574 . S
C1314 C1330 1.368 . S
H1315 C1323 0.950 1_655 S
H1316 C1321 0.950 . S
H1317 C1322 0.949 . S
H1318 C1324 0.950 . S
H1319 C1325 0.950 . S
H1320 C1326 0.949 . S
C1321 H1316 0.950 . S
C1321 C1323 1.327 . S
C1321 C1327 1.429 . S
C1322 C1314 1.574 . S
C1322 H1317 0.949 . S
C1322 C1328 1.368 . S
C1323 C1307 1.349 . S
C1323 H1315 0.950 1_455 S
C1323 C1321 1.327 . S
C1324 C1312 1.349 . S
C1324 H1318 0.950 . S
C1324 C1325 1.327 . S
C1325 H1319 0.950 . S
C1325 C1324 1.327 . S
C1325 C1329 1.429 . S
C1326 C1309 1.574 . S
C1326 H1320 0.949 . S
C1326 C1330 1.368 . S
C1327 C1308 1.429 . S
C1327 C1321 1.429 . S
C1327 C1328 1.523 . S
C1328 C1309 1.368 . S
C1328 C1322 1.368 . S
C1328 C1327 1.523 . S
C1329 C1313 1.429 . S
C1329 C1325 1.429 . S
C1329 C1330 1.523 . S
C1330 C1314 1.368 . S
C1330 C1326 1.368 . S
C1330 C1329 1.523 . S
H1331 C1306 0.950 . S
H1332 C1308 0.950 . S
H1333 C1309 0.949 . S
H1334 C1311 0.950 . S
H1335 C1313 0.950 . S
C1336 C1337 1.349 . S
C1336 C1338 1.327 . S
C1336 H1361 0.950 . S
C1337 C1336 1.349 . S
C1337 C1353 1.349 . S
C1338 C1336 1.327 . S
C1338 C1357 1.429 . S
C1338 H1362 0.950 . S
C1339 C1356 1.574 . S
C1339 C1358 1.368 . S
C1339 H1363 0.949 . S
H1340 C1344 0.949 . S
C1341 C1342 1.349 . S
C1341 C1343 1.327 . S
C1341 H1364 0.950 . S
C1342 C1341 1.349 . S
C1342 C1354 1.349 . S
C1343 C1341 1.327 . S
C1343 C1359 1.429 . S
C1343 H1365 0.950 . S
C1344 H1340 0.949 . S
C1344 C1352 1.574 . S
C1344 C1360 1.368 . S
H1345 C1353 0.950 . S
H1346 C1351 0.950 . S
H1347 C1352 0.949 . S
H1348 C1354 0.950 . S
H1349 C1355 0.950 . S
H1350 C1356 0.949 . S
C1351 H1346 0.950 . S
C1351 C1353 1.327 . S
C1351 C1357 1.429 . S
C1352 C1344 1.574 . S
C1352 H1347 0.949 . S
C1352 C1358 1.368 . S
C1353 C1337 1.349 . S
C1353 H1345 0.950 . S
C1353 C1351 1.327 . S
C1354 C1342 1.349 . S
C1354 H1348 0.950 . S
C1354 C1355 1.327 . S
C1355 H1349 0.950 . S
C1355 C1354 1.327 . S
C1355 C1359 1.429 . S
C1356 C1339 1.574 . S
C1356 H1350 0.949 . S
C1356 C1360 1.368 . S
C1357 C1338 1.429 . S
C1357 C1351 1.429 . S
C1357 C1358 1.523 . S
C1358 C1339 1.368 . S
C1358 C1352 1.368 . S
C1358 C1357 1.523 . S
C1359 C1343 1.429 . S
C1359 C1355 1.429 . S
C1359 C1360 1.523 . S
C1360 C1344 1.368 . S
C1360 C1356 1.368 . S
C1360 C1359 1.523 . S
H1361 C1336 0.950 . S
H1362 C1338 0.950 . S
H1363 C1339 0.949 . S
H1364 C1341 0.950 . S
H1365 C1343 0.950 . S
C1366 C1367 1.349 . S
C1366 C1368 1.327 . S
C1366 H1391 0.950 . S
C1367 C1366 1.349 . S
C1367 C1383 1.349 . S
C1368 C1366 1.327 . S
C1368 C1387 1.429 . S
C1368 H1392 0.950 . S
C1369 C1386 1.574 . S
C1369 C1388 1.368 1_455 S
C1369 H1393 0.949 . S
H1370 C1374 0.949 . S
C1371 C1372 1.349 . S
C1371 C1373 1.327 . S
C1371 H1394 0.950 . S
C1372 C1371 1.349 . S
C1372 C1384 1.349 1_455 S
C1373 C1371 1.327 . S
C1373 C1389 1.429 1_455 S
C1373 H1395 0.950 . S
C1374 H1370 0.949 . S
C1374 C1382 1.574 . S
C1374 C1390 1.368 . S
H1375 C1383 0.950 1_455 S
H1376 C1381 0.950 . S
H1377 C1382 0.949 1_554 S
H1378 C1384 0.950 . S
H1379 C1385 0.950 . S
H1380 C1386 0.949 . S
C1381 H1376 0.950 . S
C1381 C1383 1.327 1_455 S
C1381 C1387 1.429 1_455 S
C1382 C1374 1.574 . S
C1382 H1377 0.949 1_556 S
C1382 C1388 1.368 . S
C1383 C1367 1.349 . S
C1383 H1375 0.950 1_655 S
C1383 C1381 1.327 1_655 S
C1384 C1372 1.349 1_655 S
C1384 H1378 0.950 . S
C1384 C1385 1.327 . S
C1385 H1379 0.950 . S
C1385 C1384 1.327 . S
C1385 C1389 1.429 . S
C1386 C1369 1.574 . S
C1386 H1380 0.949 . S
C1386 C1390 1.368 1_455 S
C1387 C1368 1.429 . S
C1387 C1381 1.429 1_655 S
C1387 C1388 1.523 1_554 S
C1388 C1369 1.368 1_655 S
C1388 C1382 1.368 . S
C1388 C1387 1.523 1_556 S
C1389 C1373 1.429 1_655 S
C1389 C1385 1.429 . S
C1389 C1390 1.523 . S
C1390 C1374 1.368 . S
C1390 C1386 1.368 1_655 S
C1390 C1389 1.523 . S
H1391 C1366 0.950 . S
H1392 C1368 0.950 . S
H1393 C1369 0.949 . S
H1394 C1371 0.950 . S
H1395 C1373 0.950 . S
C1396 C1397 1.349 . S
C1396 C1398 1.327 . S
C1396 H1421 0.950 . S
C1397 C1396 1.349 . S
C1397 C1413 1.349 . S
C1398 C1396 1.327 . S
C1398 C1417 1.429 . S
C1398 H1422 0.950 . S
C1399 C1416 1.574 . S
C1399 C1418 1.368 . S
C1399 H1423 0.949 . S
H1400 C1404 0.949 . S
C1401 C1402 1.349 . S
C1401 C1403 1.327 . S
C1401 H1424 0.950 . S
C1402 C1401 1.349 . S
C1402 C1414 1.349 . S
C1403 C1401 1.327 . S
C1403 C1419 1.429 . S
C1403 H1425 0.950 . S
C1404 H1400 0.949 . S
C1404 C1412 1.574 . S
C1404 C1420 1.368 . S
H1405 C1413 0.950 . S
H1406 C1411 0.950 . S
H1407 C1412 0.949 . S
H1408 C1414 0.950 . S
H1409 C1415 0.950 . S
H1410 C1416 0.949 . S
C1411 H1406 0.950 . S
C1411 C1413 1.327 . S
C1411 C1417 1.429 . S
C1412 C1404 1.574 . S
C1412 H1407 0.949 . S
C1412 C1418 1.368 . S
C1413 C1397 1.349 . S
C1413 H1405 0.950 . S
C1413 C1411 1.327 . S
C1414 C1402 1.349 . S
C1414 H1408 0.950 . S
C1414 C1415 1.327 . S
C1415 H1409 0.950 . S
C1415 C1414 1.327 . S
C1415 C1419 1.429 . S
C1416 C1399 1.574 . S
C1416 H1410 0.949 . S
C1416 C1420 1.368 . S
C1417 C1398 1.429 . S
C1417 C1411 1.429 . S
C1417 C1418 1.523 . S
C1418 C1399 1.368 . S
C1418 C1412 1.368 . S
C1418 C1417 1.523 . S
C1419 C1403 1.429 . S
C1419 C1415 1.429 . S
C1419 C1420 1.523 . S
C1420 C1404 1.368 . S
C1420 C1416 1.368 . S
C1420 C1419 1.523 . S
H1421 C1396 0.950 . S
H1422 C1398 0.950 . S
H1423 C1399 0.949 . S
H1424 C1401 0.950 . S
H1425 C1403 0.950 . S
C1426 C1427 1.349 . S
C1426 C1428 1.327 . S
C1426 H1451 0.950 . S
C1427 C1426 1.349 . S
C1427 C1443 1.349 1_454 S
C1428 C1426 1.327 . S
C1428 C1447 1.429 1_554 S
C1428 H1452 0.950 . S
C1429 C1446 1.574 . S
C1429 C1448 1.368 1_655 S
C1429 H1453 0.949 . S
H1430 C1434 0.949 . S
C1431 C1432 1.349 1_655 S
C1431 C1433 1.327 . S
C1431 H1454 0.950 . S
C1432 C1431 1.349 1_455 S
C1432 C1444 1.349 . S
C1433 C1431 1.327 . S
C1433 C1449 1.429 1_655 S
C1433 H1455 0.950 . S
C1434 H1430 0.949 . S
C1434 C1442 1.574 . S
C1434 C1450 1.368 . S
H1435 C1443 0.950 . S
H1436 C1441 0.950 . S
H1437 C1442 0.949 . S
H1438 C1444 0.950 . S
H1439 C1445 0.950 . S
H1440 C1446 0.949 . S
C1441 H1436 0.950 . S
C1441 C1443 1.327 . S
C1441 C1447 1.429 1_655 S
C1442 C1434 1.574 . S
C1442 H1437 0.949 . S
C1442 C1448 1.368 . S
C1443 C1427 1.349 1_656 S
C1443 H1435 0.950 . S
C1443 C1441 1.327 . S
C1444 C1432 1.349 . S
C1444 H1438 0.950 . S
C1444 C1445 1.327 . S
C1445 H1439 0.950 . S
C1445 C1444 1.327 . S
C1445 C1449 1.429 . S
C1446 C1429 1.574 . S
C1446 H1440 0.949 . S
C1446 C1450 1.368 1_655 S
C1447 C1428 1.429 1_556 S
C1447 C1441 1.429 1_455 S
C1447 C1448 1.523 . S
C1448 C1429 1.368 1_455 S
C1448 C1442 1.368 . S
C1448 C1447 1.523 . S
C1449 C1433 1.429 1_455 S
C1449 C1445 1.429 . S
C1449 C1450 1.523 . S
C1450 C1434 1.368 . S
C1450 C1446 1.368 1_455 S
C1450 C1449 1.523 . S
H1451 C1426 0.950 . S
H1452 C1428 0.950 . S
H1453 C1429 0.949 . S
H1454 C1431 0.950 . S
H1455 C1433 0.950 . S
C1456 C1457 1.349 . S
C1456 C1458 1.327 . S
C1456 H1481 0.950 . S
C1457 C1456 1.349 . S
C1457 C1473 1.349 . S
C1458 C1456 1.327 . S
C1458 C1477 1.429 . S
C1458 H1482 0.950 . S
C1459 C1476 1.574 . S
C1459 C1478 1.368 . S
C1459 H1483 0.949 . S
H1460 C1464 0.949 . S
C1461 C1462 1.349 . S
C1461 C1463 1.327 . S
C1461 H1484 0.950 . S
C1462 C1461 1.349 . S
C1462 C1474 1.349 . S
C1463 C1461 1.327 . S
C1463 C1479 1.429 . S
C1463 H1485 0.950 . S
C1464 H1460 0.949 . S
C1464 C1472 1.574 . S
C1464 C1480 1.368 . S
H1465 C1473 0.950 . S
H1466 C1471 0.950 . S
H1467 C1472 0.949 . S
H1468 C1474 0.950 . S
H1469 C1475 0.950 . S
H1470 C1476 0.949 . S
C1471 H1466 0.950 . S
C1471 C1473 1.327 . S
C1471 C1477 1.429 . S
C1472 C1464 1.574 . S
C1472 H1467 0.949 . S
C1472 C1478 1.368 . S
C1473 C1457 1.349 . S
C1473 H1465 0.950 . S
C1473 C1471 1.327 . S
C1474 C1462 1.349 . S
C1474 H1468 0.950 . S
C1474 C1475 1.327 . S
C1475 H1469 0.950 . S
C1475 C1474 1.327 . S
C1475 C1479 1.429 . S
C1476 C1459 1.574 . S
C1476 H1470 0.949 . S
C1476 C1480 1.368 . S
C1477 C1458 1.429 . S
C1477 C1471 1.429 . S
C1477 C1478 1.523 . S
C1478 C1459 1.368 . S
C1478 C1472 1.368 . S
C1478 C1477 1.523 . S
C1479 C1463 1.429 . S
C1479 C1475 1.429 . S
C1479 C1480 1.523 . S
C1480 C1464 1.368 . S
C1480 C1476 1.368 . S
C1480 C1479 1.523 . S
H1481 C1456 0.950 . S
H1482 C1458 0.950 . S
H1483 C1459 0.949 . S
H1484 C1461 0.950 . S
H1485 C1463 0.950 . S
C1486 C1487 1.363 . S
C1486 C1488 1.327 1_556 S
C1486 H1511 0.950 . S
C1487 C1486 1.363 . S
C1487 C1503 1.301 1_556 S
C1488 C1486 1.327 1_554 S
C1488 C1507 1.429 . S
C1488 H1512 0.950 . S
C1489 C1506 1.574 . S
C1489 C1508 1.368 . S
C1489 H1513 0.949 . S
H1490 C1494 0.949 . S
C1491 C1492 1.349 . S
C1491 C1493 1.327 . S
C1491 H1514 0.950 . S
C1492 C1491 1.349 . S
C1492 C1504 1.349 . S
C1493 C1491 1.327 . S
C1493 C1509 1.429 . S
C1493 H1515 0.950 . S
C1494 H1490 0.949 . S
C1494 C1502 1.574 . S
C1494 C1510 1.368 . S
H1495 C1503 0.950 . S
H1496 C1501 0.950 . S
H1497 C1502 0.949 . S
H1498 C1504 0.950 . S
H1499 C1505 0.950 . S
H1500 C1506 0.949 . S
C1501 H1496 0.950 . S
C1501 C1503 1.327 . S
C1501 C1507 1.429 . S
C1502 C1494 1.574 . S
C1502 H1497 0.949 . S
C1502 C1508 1.368 . S
C1503 C1487 1.301 1_554 S
C1503 H1495 0.950 . S
C1503 C1501 1.327 . S
C1504 C1492 1.349 . S
C1504 H1498 0.950 . S
C1504 C1505 1.327 . S
C1505 H1499 0.950 . S
C1505 C1504 1.327 . S
C1505 C1509 1.429 . S
C1506 C1489 1.574 . S
C1506 H1500 0.949 . S
C1506 C1510 1.368 . S
C1507 C1488 1.429 . S
C1507 C1501 1.429 . S
C1507 C1508 1.523 . S
C1508 C1489 1.368 . S
C1508 C1502 1.368 . S
C1508 C1507 1.523 . S
C1509 C1493 1.429 . S
C1509 C1505 1.429 . S
C1509 C1510 1.523 . S
C1510 C1494 1.368 . S
C1510 C1506 1.368 . S
C1510 C1509 1.523 . S
H1511 C1486 0.950 . S
H1512 C1488 0.950 . S
H1513 C1489 0.949 . S
H1514 C1491 0.950 . S
H1515 C1493 0.950 . S
C1516 C1517 1.349 . S
C1516 C1518 1.327 . S
C1516 H1541 0.950 . S
C1517 C1516 1.349 . S
C1517 C1533 1.349 . S
C1518 C1516 1.327 . S
C1518 C1537 1.429 . S
C1518 H1542 0.950 . S
C1519 C1536 1.574 . S
C1519 C1538 1.368 . S
C1519 H1543 0.949 . S
H1520 C1524 0.949 . S
C1521 C1522 1.349 . S
C1521 C1523 1.327 . S
C1521 H1544 0.950 . S
C1522 C1521 1.349 . S
C1522 C1534 1.349 . S
C1523 C1521 1.327 . S
C1523 C1539 1.429 . S
C1523 H1545 0.950 . S
C1524 H1520 0.949 . S
C1524 C1532 1.574 . S
C1524 C1540 1.368 . S
H1525 C1533 0.950 . S
H1526 C1531 0.950 . S
H1527 C1532 0.949 . S
H1528 C1534 0.950 . S
H1529 C1535 0.950 . S
H1530 C1536 0.949 . S
C1531 H1526 0.950 . S
C1531 C1533 1.327 . S
C1531 C1537 1.429 . S
C1532 C1524 1.574 . S
C1532 H1527 0.949 . S
C1532 C1538 1.368 . S
C1533 C1517 1.349 . S
C1533 H1525 0.950 . S
C1533 C1531 1.327 . S
C1534 C1522 1.349 . S
C1534 H1528 0.950 . S
C1534 C1535 1.327 . S
C1535 H1529 0.950 . S
C1535 C1534 1.327 . S
C1535 C1539 1.429 . S
C1536 C1519 1.574 . S
C1536 H1530 0.949 . S
C1536 C1540 1.368 . S
C1537 C1518 1.429 . S
C1537 C1531 1.429 . S
C1537 C1538 1.523 . S
C1538 C1519 1.368 . S
C1538 C1532 1.368 . S
C1538 C1537 1.523 . S
C1539 C1523 1.429 . S
C1539 C1535 1.429 . S
C1539 C1540 1.523 . S
C1540 C1524 1.368 . S
C1540 C1536 1.368 . S
C1540 C1539 1.523 . S
H1541 C1516 0.950 . S
H1542 C1518 0.950 . S
H1543 C1519 0.949 . S
H1544 C1521 0.950 . S
H1545 C1523 0.950 . S
C1546 C1547 1.349 . S
C1546 C1548 1.327 . S
C1546 H1571 0.950 . S
C1547 C1546 1.349 . S
C1547 C1563 1.349 . S
C1548 C1546 1.327 . S
C1548 C1567 1.429 . S
C1548 H1572 0.950 . S
C1549 C1566 1.574 . S
C1549 C1568 1.368 . S
C1549 H1573 0.949 . S
H1550 C1554 0.949 . S
C1551 C1552 1.349 . S
C1551 C1553 1.327 . S
C1551 H1574 0.950 . S
C1552 C1551 1.349 . S
C1552 C1564 1.349 . S
C1553 C1551 1.327 . S
C1553 C1569 1.429 . S
C1553 H1575 0.950 . S
C1554 H1550 0.949 . S
C1554 C1562 1.574 . S
C1554 C1570 1.368 . S
H1555 C1563 0.950 . S
H1556 C1561 0.950 . S
H1557 C1562 0.949 . S
H1558 C1564 0.950 . S
H1559 C1565 0.950 . S
H1560 C1566 0.949 . S
C1561 H1556 0.950 . S
C1561 C1563 1.327 . S
C1561 C1567 1.429 . S
C1562 C1554 1.574 . S
C1562 H1557 0.949 . S
C1562 C1568 1.368 . S
C1563 C1547 1.349 . S
C1563 H1555 0.950 . S
C1563 C1561 1.327 . S
C1564 C1552 1.349 . S
C1564 H1558 0.950 . S
C1564 C1565 1.327 . S
C1565 H1559 0.950 . S
C1565 C1564 1.327 . S
C1565 C1569 1.429 . S
C1566 C1549 1.574 . S
C1566 H1560 0.949 . S
C1566 C1570 1.368 . S
C1567 C1548 1.429 . S
C1567 C1561 1.429 . S
C1567 C1568 1.523 . S
C1568 C1549 1.368 . S
C1568 C1562 1.368 . S
C1568 C1567 1.523 . S
C1569 C1553 1.429 . S
C1569 C1565 1.429 . S
C1569 C1570 1.523 . S
C1570 C1554 1.368 . S
C1570 C1566 1.368 . S
C1570 C1569 1.523 . S
H1571 C1546 0.950 . S
H1572 C1548 0.950 . S
H1573 C1549 0.949 . S
H1574 C1551 0.950 . S
H1575 C1553 0.950 . S
C1576 C1577 1.349 . S
C1576 C1578 1.327 . S
C1576 H1601 0.950 . S
C1577 C1576 1.349 . S
C1577 C1593 1.349 . S
C1578 C1576 1.327 . S
C1578 C1597 1.429 . S
C1578 H1602 0.950 . S
C1579 C1596 1.574 . S
C1579 C1598 1.368 . S
C1579 H1603 0.949 . S
H1580 C1584 0.949 . S
C1581 C1582 1.349 . S
C1581 C1583 1.327 . S
C1581 H1604 0.950 . S
C1582 C1581 1.349 . S
C1582 C1594 1.349 . S
C1583 C1581 1.327 . S
C1583 C1599 1.429 . S
C1583 H1605 0.950 . S
C1584 H1580 0.949 . S
C1584 C1592 1.574 . S
C1584 C1600 1.368 . S
H1585 C1593 0.950 . S
H1586 C1591 0.950 . S
H1587 C1592 0.949 . S
H1588 C1594 0.950 . S
H1589 C1595 0.950 . S
H1590 C1596 0.949 . S
C1591 H1586 0.950 . S
C1591 C1593 1.327 . S
C1591 C1597 1.429 . S
C1592 C1584 1.574 . S
C1592 H1587 0.949 . S
C1592 C1598 1.368 . S
C1593 C1577 1.349 . S
C1593 H1585 0.950 . S
C1593 C1591 1.327 . S
C1594 C1582 1.349 . S
C1594 H1588 0.950 . S
C1594 C1595 1.327 . S
C1595 H1589 0.950 . S
C1595 C1594 1.327 . S
C1595 C1599 1.429 . S
C1596 C1579 1.574 . S
C1596 H1590 0.949 . S
C1596 C1600 1.368 . S
C1597 C1578 1.429 . S
C1597 C1591 1.429 . S
C1597 C1598 1.523 . S
C1598 C1579 1.368 . S
C1598 C1592 1.368 . S
C1598 C1597 1.523 . S
C1599 C1583 1.429 . S
C1599 C1595 1.429 . S
C1599 C1600 1.523 . S
C1600 C1584 1.368 . S
C1600 C1596 1.368 . S
C1600 C1599 1.523 . S
H1601 C1576 0.950 . S
H1602 C1578 0.950 . S
H1603 C1579 0.949 . S
H1604 C1581 0.950 . S
H1605 C1583 0.950 . S
C1606 C1607 1.349 . S
C1606 C1608 1.327 . S
C1606 H1631 0.950 . S
C1607 C1606 1.349 . S
C1607 C1623 1.349 . S
C1608 C1606 1.327 . S
C1608 C1627 1.429 . S
C1608 H1632 0.950 . S
C1609 C1626 1.574 . S
C1609 C1628 1.368 . S
C1609 H1633 0.949 . S
H1610 C1614 0.949 . S
C1611 C1612 1.349 . S
C1611 C1613 1.327 . S
C1611 H1634 0.950 . S
C1612 C1611 1.349 . S
C1612 C1624 1.349 . S
C1613 C1611 1.327 . S
C1613 C1629 1.429 . S
C1613 H1635 0.950 . S
C1614 H1610 0.949 . S
C1614 C1622 1.574 . S
C1614 C1630 1.368 . S
H1615 C1623 0.950 . S
H1616 C1621 0.950 . S
H1617 C1622 0.949 . S
H1618 C1624 0.950 . S
H1619 C1625 0.950 . S
H1620 C1626 0.949 . S
C1621 H1616 0.950 . S
C1621 C1623 1.327 . S
C1621 C1627 1.429 . S
C1622 C1614 1.574 . S
C1622 H1617 0.949 . S
C1622 C1628 1.368 . S
C1623 C1607 1.349 . S
C1623 H1615 0.950 . S
C1623 C1621 1.327 . S
C1624 C1612 1.349 . S
C1624 H1618 0.950 . S
C1624 C1625 1.327 . S
C1625 H1619 0.950 . S
C1625 C1624 1.327 . S
C1625 C1629 1.429 . S
C1626 C1609 1.574 . S
C1626 H1620 0.949 . S
C1626 C1630 1.368 . S
C1627 C1608 1.429 . S
C1627 C1621 1.429 . S
C1627 C1628 1.523 . S
C1628 C1609 1.368 . S
C1628 C1622 1.368 . S
C1628 C1627 1.523 . S
C1629 C1613 1.429 . S
C1629 C1625 1.429 . S
C1629 C1630 1.523 . S
C1630 C1614 1.368 . S
C1630 C1626 1.368 . S
C1630 C1629 1.523 . S
H1631 C1606 0.950 . S
H1632 C1608 0.950 . S
H1633 C1609 0.949 . S
H1634 C1611 0.950 . S
H1635 C1613 0.950 . S
C1636 C1637 1.349 . S
C1636 C1638 1.327 . S
C1636 H1661 0.950 . S
C1637 C1636 1.349 . S
C1637 C1653 1.349 . S
C1638 C1636 1.327 . S
C1638 C1657 1.429 . S
C1638 H1662 0.950 . S
C1639 C1656 1.574 . S
C1639 C1658 1.368 . S
C1639 H1663 0.949 . S
H1640 C1644 0.949 . S
C1641 C1642 1.349 . S
C1641 C1643 1.327 . S
C1641 H1664 0.950 . S
C1642 C1641 1.349 . S
C1642 C1654 1.349 . S
C1643 C1641 1.327 . S
C1643 C1659 1.429 . S
C1643 H1665 0.950 . S
C1644 H1640 0.949 . S
C1644 C1652 1.574 . S
C1644 C1660 1.368 . S
H1645 C1653 0.950 . S
H1646 C1651 0.950 . S
H1647 C1652 0.949 . S
H1648 C1654 0.950 . S
H1649 C1655 0.950 . S
H1650 C1656 0.949 . S
C1651 H1646 0.950 . S
C1651 C1653 1.327 . S
C1651 C1657 1.429 . S
C1652 C1644 1.574 . S
C1652 H1647 0.949 . S
C1652 C1658 1.368 . S
C1653 C1637 1.349 . S
C1653 H1645 0.950 . S
C1653 C1651 1.327 . S
C1654 C1642 1.349 . S
C1654 H1648 0.950 . S
C1654 C1655 1.327 . S
C1655 H1649 0.950 . S
C1655 C1654 1.327 . S
C1655 C1659 1.429 . S
C1656 C1639 1.574 . S
C1656 H1650 0.949 . S
C1656 C1660 1.368 . S
C1657 C1638 1.429 . S
C1657 C1651 1.429 . S
C1657 C1658 1.523 . S
C1658 C1639 1.368 . S
C1658 C1652 1.368 . S
C1658 C1657 1.523 . S
C1659 C1643 1.429 . S
C1659 C1655 1.429 . S
C1659 C1660 1.523 . S
C1660 C1644 1.368 . S
C1660 C1656 1.368 . S
C1660 C1659 1.523 . S
H1661 C1636 0.950 . S
H1662 C1638 0.950 . S
H1663 C1639 0.949 . S
H1664 C1641 0.950 . S
H1665 C1643 0.950 . S
C1666 C1667 1.349 . S
C1666 C1668 1.327 . S
C1666 H1691 0.950 . S
C1667 C1666 1.349 . S
C1667 C1683 1.349 . S
C1668 C1666 1.327 . S
C1668 C1687 1.429 . S
C1668 H1692 0.950 . S
C1669 C1686 1.574 . S
C1669 C1688 1.368 . S
C1669 H1693 0.949 . S
H1670 C1674 0.949 . S
C1671 C1672 1.349 . S
C1671 C1673 1.327 . S
C1671 H1694 0.950 . S
C1672 C1671 1.349 . S
C1672 C1684 1.349 . S
C1673 C1671 1.327 . S
C1673 C1689 1.429 . S
C1673 H1695 0.950 . S
C1674 H1670 0.949 . S
C1674 C1682 1.574 . S
C1674 C1690 1.368 . S
H1675 C1683 0.950 . S
H1676 C1681 0.950 . S
H1677 C1682 0.949 . S
H1678 C1684 0.950 . S
H1679 C1685 0.950 . S
H1680 C1686 0.949 . S
C1681 H1676 0.950 . S
C1681 C1683 1.327 . S
C1681 C1687 1.429 . S
C1682 C1674 1.574 . S
C1682 H1677 0.949 . S
C1682 C1688 1.368 . S
C1683 C1667 1.349 . S
C1683 H1675 0.950 . S
C1683 C1681 1.327 . S
C1684 C1672 1.349 . S
C1684 H1678 0.950 . S
C1684 C1685 1.327 . S
C1685 H1679 0.950 . S
C1685 C1684 1.327 . S
C1685 C1689 1.429 . S
C1686 C1669 1.574 . S
C1686 H1680 0.949 . S
C1686 C1690 1.368 . S
C1687 C1668 1.429 . S
C1687 C1681 1.429 . S
C1687 C1688 1.523 . S
C1688 C1669 1.368 . S
C1688 C1682 1.368 . S
C1688 C1687 1.523 . S
C1689 C1673 1.429 . S
C1689 C1685 1.429 . S
C1689 C1690 1.523 . S
C1690 C1674 1.368 . S
C1690 C1686 1.368 . S
C1690 C1689 1.523 . S
H1691 C1666 0.950 . S
H1692 C1668 0.950 . S
H1693 C1669 0.949 . S
H1694 C1671 0.950 . S
H1695 C1673 0.950 . S
C1696 C1697 1.349 . S
C1696 C1698 1.327 . S
C1696 H1721 0.950 . S
C1697 C1696 1.349 . S
C1697 C1713 1.349 . S
C1698 C1696 1.327 . S
C1698 C1717 1.427 1_556 S
C1698 H1722 0.950 . S
C1699 C1716 1.574 . S
C1699 C1718 1.368 . S
C1699 H1723 0.949 . S
H1700 C1704 0.949 . S
C1701 C1702 1.349 . S
C1701 C1703 1.327 . S
C1701 H1724 0.950 . S
C1702 C1701 1.349 . S
C1702 C1714 1.349 . S
C1703 C1701 1.327 . S
C1703 C1719 1.429 . S
C1703 H1725 0.950 . S
C1704 H1700 0.949 . S
C1704 C1712 1.574 . S
C1704 C1720 1.368 . S
H1705 C1713 0.950 . S
H1706 C1711 0.950 . S
H1707 C1712 0.949 1_556 S
H1708 C1714 0.950 . S
H1709 C1715 0.950 . S
H1710 C1716 0.949 . S
C1711 H1706 0.950 . S
C1711 C1713 1.327 1_554 S
C1711 C1717 1.429 . S
C1712 C1704 1.574 . S
C1712 H1707 0.949 1_554 S
C1712 C1718 1.368 . S
C1713 C1697 1.349 . S
C1713 H1705 0.950 . S
C1713 C1711 1.327 1_556 S
C1714 C1702 1.349 . S
C1714 H1708 0.950 . S
C1714 C1715 1.327 . S
C1715 H1709 0.950 . S
C1715 C1714 1.327 . S
C1715 C1719 1.429 . S
C1716 C1699 1.574 . S
C1716 H1710 0.949 . S
C1716 C1720 1.368 . S
C1717 C1698 1.427 1_554 S
C1717 C1711 1.429 . S
C1717 C1718 1.524 . S
C1718 C1699 1.368 . S
C1718 C1712 1.368 . S
C1718 C1717 1.524 . S
C1719 C1703 1.429 . S
C1719 C1715 1.429 . S
C1719 C1720 1.523 . S
C1720 C1704 1.368 . S
C1720 C1716 1.368 . S
C1720 C1719 1.523 . S
H1721 C1696 0.950 . S
H1722 C1698 0.950 . S
H1723 C1699 0.949 . S
H1724 C1701 0.950 . S
H1725 C1703 0.950 . S
C1726 C1727 1.349 . S
C1726 C1728 1.327 . S
C1726 H1751 0.950 . S
C1727 C1726 1.349 . S
C1727 C1743 1.349 . S
C1728 C1726 1.327 . S
C1728 C1747 1.429 . S
C1728 H1752 0.950 . S
C1729 C1746 1.574 . S
C1729 C1748 1.368 . S
C1729 H1753 0.949 . S
H1730 C1734 0.949 . S
C1731 C1732 1.349 . S
C1731 C1733 1.327 . S
C1731 H1754 0.950 . S
C1732 C1731 1.349 . S
C1732 C1744 1.349 . S
C1733 C1731 1.327 . S
C1733 C1749 1.429 . S
C1733 H1755 0.950 . S
C1734 H1730 0.949 . S
C1734 C1742 1.574 . S
C1734 C1750 1.368 . S
H1735 C1743 0.950 . S
H1736 C1741 0.950 . S
H1737 C1742 0.949 . S
H1738 C1744 0.950 . S
H1739 C1745 0.950 . S
H1740 C1746 0.949 . S
C1741 H1736 0.950 . S
C1741 C1743 1.327 . S
C1741 C1747 1.429 . S
C1742 C1734 1.574 . S
C1742 H1737 0.949 . S
C1742 C1748 1.368 . S
C1743 C1727 1.349 . S
C1743 H1735 0.950 . S
C1743 C1741 1.327 . S
C1744 C1732 1.349 . S
C1744 H1738 0.950 . S
C1744 C1745 1.327 . S
C1745 H1739 0.950 . S
C1745 C1744 1.327 . S
C1745 C1749 1.429 . S
C1746 C1729 1.574 . S
C1746 H1740 0.949 . S
C1746 C1750 1.368 . S
C1747 C1728 1.429 . S
C1747 C1741 1.429 . S
C1747 C1748 1.523 . S
C1748 C1729 1.368 . S
C1748 C1742 1.368 . S
C1748 C1747 1.523 . S
C1749 C1733 1.429 . S
C1749 C1745 1.429 . S
C1749 C1750 1.523 . S
C1750 C1734 1.368 . S
C1750 C1746 1.368 . S
C1750 C1749 1.523 . S
H1751 C1726 0.950 . S
H1752 C1728 0.950 . S
H1753 C1729 0.949 . S
H1754 C1731 0.950 . S
H1755 C1733 0.950 . S
C1756 C1757 1.349 . S
C1756 C1758 1.327 . S
C1756 H1781 0.950 . S
C1757 C1756 1.349 . S
C1757 C1773 1.349 . S
C1758 C1756 1.327 . S
C1758 C1777 1.429 . S
C1758 H1782 0.950 . S
C1759 C1776 1.574 . S
C1759 C1778 1.368 . S
C1759 H1783 0.949 . S
H1760 C1764 0.949 . S
C1761 C1762 1.349 . S
C1761 C1763 1.327 . S
C1761 H1784 0.950 . S
C1762 C1761 1.349 . S
C1762 C1774 1.349 . S
C1763 C1761 1.327 . S
C1763 C1779 1.429 . S
C1763 H1785 0.950 . S
C1764 H1760 0.949 . S
C1764 C1772 1.574 . S
C1764 C1780 1.368 . S
H1765 C1773 0.950 . S
H1766 C1771 0.950 . S
H1767 C1772 0.949 . S
H1768 C1774 0.950 . S
H1769 C1775 0.950 . S
H1770 C1776 0.949 . S
C1771 H1766 0.950 . S
C1771 C1773 1.327 . S
C1771 C1777 1.429 . S
C1772 C1764 1.574 . S
C1772 H1767 0.949 . S
C1772 C1778 1.368 . S
C1773 C1757 1.349 . S
C1773 H1765 0.950 . S
C1773 C1771 1.327 . S
C1774 C1762 1.349 . S
C1774 H1768 0.950 . S
C1774 C1775 1.327 . S
C1775 H1769 0.950 . S
C1775 C1774 1.327 . S
C1775 C1779 1.429 . S
C1776 C1759 1.574 . S
C1776 H1770 0.949 . S
C1776 C1780 1.368 . S
C1777 C1758 1.429 . S
C1777 C1771 1.429 . S
C1777 C1778 1.523 . S
C1778 C1759 1.368 . S
C1778 C1772 1.368 . S
C1778 C1777 1.523 . S
C1779 C1763 1.429 . S
C1779 C1775 1.429 . S
C1779 C1780 1.523 . S
C1780 C1764 1.368 . S
C1780 C1776 1.368 . S
C1780 C1779 1.523 . S
H1781 C1756 0.950 . S
H1782 C1758 0.950 . S
H1783 C1759 0.949 . S
H1784 C1761 0.950 . S
H1785 C1763 0.950 . S
C1786 C1787 1.349 . S
C1786 C1788 1.327 . S
C1786 H1811 0.950 . S
C1787 C1786 1.349 . S
C1787 C1803 1.349 1_565 S
C1788 C1786 1.327 . S
C1788 C1807 1.429 . S
C1788 H1812 0.950 . S
C1789 C1806 1.561 1_554 S
C1789 C1808 1.417 . S
C1789 H1813 0.919 1_554 S
H1790 C1794 0.949 . S
C1791 C1792 1.349 1_556 S
C1791 C1793 1.327 . S
C1791 H1814 0.950 . S
C1792 C1791 1.349 1_554 S
C1792 C1804 1.349 . S
C1793 C1791 1.327 . S
C1793 C1809 1.429 1_556 S
C1793 H1815 0.950 . S
C1794 H1790 0.949 . S
C1794 C1802 1.574 . S
C1794 C1810 1.368 . S
H1795 C1803 0.953 . S
H1796 C1801 0.959 1_556 S
H1797 C1802 0.949 . S
H1798 C1804 0.950 . S
H1799 C1805 0.950 . S
H1800 C1806 0.949 . S
C1801 H1796 0.959 1_554 S
C1801 C1803 1.327 1_565 S
C1801 C1807 1.429 . S
C1802 C1794 1.574 . S
C1802 H1797 0.949 . S
C1802 C1808 1.368 . S
C1803 C1787 1.349 1_545 S
C1803 H1795 0.953 . S
C1803 C1801 1.327 1_545 S
C1804 C1792 1.349 . S
C1804 H1798 0.950 . S
C1804 C1805 1.327 . S
C1805 H1799 0.950 . S
C1805 C1804 1.327 . S
C1805 C1809 1.429 . S
C1806 C1789 1.561 1_556 S
C1806 H1800 0.949 . S
C1806 C1810 1.368 1_556 S
C1807 C1788 1.429 . S
C1807 C1801 1.429 . S
C1807 C1808 1.523 . S
C1808 C1789 1.417 . S
C1808 C1802 1.368 . S
C1808 C1807 1.523 . S
C1809 C1793 1.429 1_554 S
C1809 C1805 1.429 . S
C1809 C1810 1.523 . S
C1810 C1794 1.368 . S
C1810 C1806 1.368 1_554 S
C1810 C1809 1.523 . S
H1811 C1786 0.950 . S
H1812 C1788 0.950 . S
H1813 C1789 0.919 1_556 S
H1814 C1791 0.950 . S
H1815 C1793 0.950 . S
C382 C219 1.723 . S
C377 C73 1.763 . S
C412 C227 1.100 . S
C407 C82 1.240 1_455 S
C437 C100 1.806 . S
C442 C247 1.765 1_556 S
C472 C261 1.286 . S
C467 C56 1.272 . S
C502 C276 1.375 . S
C497 C134 1.349 . S
C532 C290 1.775 . S
C527 C165 1.760 . S
C557 C147 1.190 . S
C562 C304 1.228 . S
C592 C310 1.805 . S
C587 C125 1.858 . S
C617 C151 1.409 . S
C622 C324 1.378 . S
C652 C345 1.457 . S
C647 C121 1.444 . S
C677 C139 1.751 . S
C682 C325 1.495 . S
C712 C346 1.296 . S
C707 C164 1.293 . S
C737 C95 1.248 . S
C742 C353 1.110 . S
C767 C61 1.526 . S
C772 C359 1.507 . S
C797 C74 1.395 . S
C802 C352 1.364 . S
C827 C86 1.751 . S
C832 C360 1.754 . S
C857 C47 1.369 . S
C862 C254 1.318 1_565 S
C887 C186 1.258 . S
C892 C255 1.080 . S
C922 C212 1.488 1_556 S
C917 C204 1.549 . S
C952 C233 1.832 . S
C947 C112 1.876 . S
C977 C60 1.348 1_545 S
C982 C268 1.304 . S
C1012 C318 1.446 . S
C1007 C152 1.438 . S
C1042 C269 1.640 . S
C1037 C126 1.911 . S
C1072 C297 1.072 . S
C1067 C160 1.288 . S
C1102 C303 1.723 . S
C1097 C190 1.763 . S
C1127 C199 1.240 . S
C1132 C311 1.101 . S
C1157 C113 1.806 . S
C1162 C275 1.765 . S
C1192 C289 1.286 . S
C1187 C173 1.272 . S
C1217 C43 1.349 . S
C1222 C248 1.375 . S
C1252 C262 1.775 . S
C1247 C9 1.742 1_655 S
C1282 C220 1.228 . S
C1277 C17 1.190 . S
C1312 C226 1.805 . S
C1307 C34 1.858 1_455 S
C1337 C21 1.409 . S
C1342 C338 1.378 . S
C1367 C30 1.444 . S
C1372 C331 1.457 . S
C1397 C48 1.752 . S
C1402 C339 1.495 . S
C1427 C8 1.293 . S
C1432 C332 1.296 . S
C1462 C367 1.110 . S
C1457 C108 1.248 . S
C1492 C373 1.507 . S
C1487 C178 1.560 . S
C1522 C366 1.364 . S
C1517 C191 1.395 . S
C1547 C203 1.751 . S
C1552 C374 1.754 . S
C1577 C138 1.369 . S
C1582 C282 1.318 . S
C1612 C283 1.080 . S
C1607 C69 1.259 . S
C1642 C296 1.487 . S
C1637 C87 1.549 . S
C1672 C317 1.832 . S
C1667 C99 1.876 . S
C1697 C177 1.348 . S
C1702 C240 1.304 . S
C1732 C234 1.446 . S
C1727 C22 1.438 . S
C1757 C35 1.911 . S
C1762 C241 1.640 . S
C1792 C213 1.072 . S
C1787 C4 1.288 1_565 S
