# Generated by pormake.
# Topology ssa, (4,4)-cn, num edge types: 1
# Building blocks:
#     Node 0, Type 0, BuildingBlock: ESEHIV_clean_sbu_0, # of connection points: 4
#     Node 1, Type 0, BuildingBlock: ESEHIV_clean_sbu_0, # of connection points: 4
#     Node 2, Type 0, BuildingBlock: ESEHIV_clean_sbu_0, # of connection points: 4
#     Node 3, Type 0, BuildingBlock: ESEHIV_clean_sbu_0, # of connection points: 4
#     Node 4, Type 0, BuildingBlock: ESEHIV_clean_sbu_0, # of connection points: 4
#     Node 5, Type 0, BuildingBlock: ESEHIV_clean_sbu_0, # of connection points: 4
#     Node 6, Type 1, BuildingBlock: MIFKUJ_clean_linker_1, # of connection points: 4
#     Node 7, Type 1, BuildingBlock: MIFKUJ_clean_linker_1, # of connection points: 4
#     Node 8, Type 1, BuildingBlock: MIFKUJ_clean_linker_1, # of connection points: 4
#     Node 9, Type 1, BuildingBlock: MIFKUJ_clean_linker_1, # of connection points: 4
#     Node 10, Type 1, BuildingBlock: MIFKUJ_clean_linker_1, # of connection points: 4
#     Node 11, Type 1, BuildingBlock: MIFKUJ_clean_linker_1, # of connection points: 4
#     Edge 12, Type (0, 1), BuildingBlock: EYOCIG_clean_linker_4, # of connection points: 2
#     Edge 13, Type (0, 1), BuildingBlock: EYOCIG_clean_linker_4, # of connection points: 2
#     Edge 14, Type (0, 1), BuildingBlock: EYOCIG_clean_linker_4, # of connection points: 2
#     Edge 15, Type (0, 1), BuildingBlock: EYOCIG_clean_linker_4, # of connection points: 2
#     Edge 16, Type (0, 1), BuildingBlock: EYOCIG_clean_linker_4, # of connection points: 2
#     Edge 17, Type (0, 1), BuildingBlock: EYOCIG_clean_linker_4, # of connection points: 2
#     Edge 18, Type (0, 1), BuildingBlock: EYOCIG_clean_linker_4, # of connection points: 2
#     Edge 19, Type (0, 1), BuildingBlock: EYOCIG_clean_linker_4, # of connection points: 2
#     Edge 20, Type (0, 1), BuildingBlock: EYOCIG_clean_linker_4, # of connection points: 2
#     Edge 21, Type (0, 1), BuildingBlock: EYOCIG_clean_linker_4, # of connection points: 2
#     Edge 22, Type (0, 1), BuildingBlock: EYOCIG_clean_linker_4, # of connection points: 2
#     Edge 23, Type (0, 1), BuildingBlock: EYOCIG_clean_linker_4, # of connection points: 2
#     Edge 24, Type (0, 1), BuildingBlock: EYOCIG_clean_linker_4, # of connection points: 2
#     Edge 25, Type (0, 1), BuildingBlock: EYOCIG_clean_linker_4, # of connection points: 2
#     Edge 26, Type (0, 1), BuildingBlock: EYOCIG_clean_linker_4, # of connection points: 2
#     Edge 27, Type (0, 1), BuildingBlock: EYOCIG_clean_linker_4, # of connection points: 2
#     Edge 28, Type (0, 1), BuildingBlock: EYOCIG_clean_linker_4, # of connection points: 2
#     Edge 29, Type (0, 1), BuildingBlock: EYOCIG_clean_linker_4, # of connection points: 2
#     Edge 30, Type (0, 1), BuildingBlock: EYOCIG_clean_linker_4, # of connection points: 2
#     Edge 31, Type (0, 1), BuildingBlock: EYOCIG_clean_linker_4, # of connection points: 2
#     Edge 32, Type (0, 1), BuildingBlock: EYOCIG_clean_linker_4, # of connection points: 2
#     Edge 33, Type (0, 1), BuildingBlock: EYOCIG_clean_linker_4, # of connection points: 2
#     Edge 34, Type (0, 1), BuildingBlock: EYOCIG_clean_linker_4, # of connection points: 2
#     Edge 35, Type (0, 1), BuildingBlock: EYOCIG_clean_linker_4, # of connection points: 2
# Relax obj value: 0.008
# Max RMSD: 0.107
# Mean RMSD: 0.056
data_MOF--net-ssa--node1-ESEHIV_clean_sbu_0--node2-MIFKUJ_clean_linker_1--edge1-EYOCIG_clean_linker_4
_symmetry_space_group_name_H-M    P1
_symmetry_Int_Tables_number       1
_symmetry_cell_setting            triclinic
loop_
_symmetry_equiv_pos_as_xyz
'x, y, z'
_cell_length_a     49.475324
_cell_length_b     52.944328
_cell_length_c     33.209716
_cell_angle_alpha  88.498548
_cell_angle_beta   90.746858
_cell_angle_gamma 122.09434
loop_
_atom_site_label
_atom_site_type_symbol
_atom_site_fract_x
_atom_site_fract_y
_atom_site_fract_z
_atom_type_partial_charge
Cu0 Cu 0.02156 0.51492 0.01429 0.0
N1 N 1.00407 0.47778 0.99061 0.0
N2 N 0.97567 0.43659 0.95566 0.0
C3 C 0.99507 0.46652 0.9535 0.0
C4 C 0.97165 0.42841 0.99463 0.0
C5 C 0.98888 0.4538 0.01604 0.0
O6 O 0.98629 0.52104 1.00108 0.0
C7 C 0.06309 0.49918 0.04583 0.0
O8 O 0.07257 0.50528 0.00806 0.0
H9 H 1.00123 0.47967 0.92586 0.0
H10 H 0.98874 0.45484 0.04851 0.0
N11 N 0.05393 0.55542 0.01715 0.0
N12 N 0.07449 0.59534 0.05629 0.0
C13 C 0.06423 0.56634 0.05448 0.0
C14 C 0.05772 0.579 0.9952 0.0
C15 C 0.07067 0.60368 0.01931 0.0
C16 C 0.98527 0.52825 0.96396 0.0
O17 O 1.00591 0.52959 0.93812 0.0
H18 H 0.06124 0.55274 0.08096 0.0
H19 H 0.04909 0.57809 0.96498 0.0
O20 O 0.04029 0.50229 0.05753 0.0
H21 H 0.95657 0.40587 0.0066 0.0
H22 H 0.07538 0.62558 0.01102 0.0
Cu23 Cu 0.5151 1.00391 0.53368 0.0
N24 N 0.54195 0.99287 0.50701 0.0
N25 N 0.56096 0.96925 0.47253 0.0
C26 C 0.54495 0.98368 0.47015 0.0
C27 C 0.5681 0.96895 0.51138 0.0
C28 C 0.55634 0.98295 0.53218 0.0
O29 O 0.47344 0.96876 0.5255 0.0
C30 C 0.56733 0.04213 0.56945 0.0
O31 O 0.5696 0.05228 0.5323 0.0
H32 H 0.53421 0.9857 0.44271 0.0
H33 H 0.55602 0.98333 0.56465 0.0
N34 N 0.50406 0.03386 0.53184 0.0
N35 N 0.48276 0.05646 0.5644 0.0
C36 C 0.50335 0.04702 0.56635 0.0
C37 C 0.4825 0.03524 0.50783 0.0
C38 C 0.46961 0.04911 0.52768 0.0
C39 C 0.46724 0.96843 0.48795 0.0
O40 O 0.48887 0.98898 0.46364 0.0
H41 H 0.51538 0.04725 0.59388 0.0
H42 H 0.47408 0.02458 0.47925 0.0
O43 O 0.5415 0.01842 0.58115 0.0
H44 H 0.57933 0.95772 0.52418 0.0
H45 H 0.45063 0.05196 0.51686 0.0
Cu46 Cu 0.51999 0.51879 0.00949 0.0
N47 N 0.49839 0.47697 0.99616 0.0
N48 N 0.4817 0.43327 0.96599 0.0
C49 C 0.50606 0.45671 0.98573 0.0
C50 C 0.45819 0.43857 0.96362 0.0
C51 C 0.46842 0.46508 0.98147 0.0
O52 O 0.54755 0.53925 0.96387 0.0
C53 C 0.47024 0.50313 0.05347 0.0
O54 O 0.48549 0.49211 0.07207 0.0
H55 H 0.52927 0.45968 0.98992 0.0
H56 H 0.45539 0.47619 0.98002 0.0
N57 N 0.54629 0.54249 0.05341 0.0
N58 N 0.56714 0.58557 0.08726 0.0
C59 C 0.54064 0.56219 0.07127 0.0
C60 C 0.57802 0.5547 0.05871 0.0
C61 C 0.59072 0.58098 0.07947 0.0
C62 C 0.56912 0.53297 0.96322 0.0
O63 O 0.56804 0.51348 0.98934 0.0
H64 H 0.51827 0.56119 0.0691 0.0
H65 H 0.59203 0.54705 0.04523 0.0
O66 O 0.4823 0.51941 0.02165 0.0
H67 H 0.43596 0.4252 0.94752 0.0
H68 H 0.6157 0.59654 0.08591 0.0
Cu69 Cu 0.01971 0.51215 0.50553 0.0
N70 N 0.01807 0.48973 0.46263 0.0
N71 N 0.03976 0.47106 0.42475 0.0
C72 C 0.04532 0.49346 0.44827 0.0
C73 C 1.00795 0.45208 0.42422 0.0
C74 C 0.99446 0.46361 0.44808 0.0
O75 O 0.0474 0.54704 0.47017 0.0
C76 C 0.99895 0.4616 0.56491 0.0
O77 O 0.02813 0.47414 0.57872 0.0
H78 H 0.06893 0.51119 0.45723 0.0
H79 H 0.96964 0.45268 0.45662 0.0
N80 N 0.99459 0.52807 0.51564 0.0
N81 N 0.96292 0.53678 0.55165 0.0
C82 C 0.9674 0.5157 0.53739 0.0
C83 C 1.00727 0.55785 0.51751 0.0
C84 C 0.98768 0.56316 0.53927 0.0
C85 C 0.07543 0.56959 0.47384 0.0
O86 O 0.09248 0.57179 0.50556 0.0
H87 H 0.95316 0.49235 0.54619 0.0
H88 H 0.03098 0.57507 0.50831 0.0
O89 O 0.99249 0.47471 0.53733 0.0
H90 H 0.99564 0.4308 0.40948 0.0
H91 H 0.99277 0.5847 0.54876 0.0
Cu92 Cu 0.52533 0.01223 0.01469 0.0
N93 N 0.51305 0.03987 0.01256 0.0
N94 N 0.49211 0.06425 0.98511 0.0
C95 C 0.50473 0.04783 0.9781 0.0
C96 C 0.49222 0.06697 0.02522 0.0
C97 C 0.50534 0.05183 0.04232 0.0
O98 O 0.56585 0.04582 0.99303 0.0
C99 C 0.46715 0.9721 0.05438 0.0
O100 O 0.45826 0.96173 0.018 0.0
H101 H 0.5066 0.04062 0.94862 0.0
H102 H 0.50751 0.04848 0.07418 0.0
N103 N 0.55132 0.99994 0.03771 0.0
N104 N 0.57108 0.97924 0.07737 0.0
C105 C 0.55132 0.9894 0.07514 0.0
C106 C 0.57162 0.99581 0.01625 0.0
C107 C 0.58405 0.9833 0.04079 0.0
C108 C 0.57219 0.0464 0.95583 0.0
O109 O 0.55104 0.02534 0.93257 0.0
H110 H 0.53616 0.98777 0.09958 0.0
H111 H 0.57596 1.00017 0.98431 0.0
O112 O 0.49557 0.99367 0.06025 0.0
H113 H 0.4825 0.0781 0.04087 0.0
H114 H 0.60009 0.97631 0.03208 0.0
Cu115 Cu 0.51526 0.50759 0.51774 0.0
N116 N 0.54207 0.54332 0.49024 0.0
N117 N 0.56478 0.58711 0.45845 0.0
C118 C 0.53988 0.56706 0.48123 0.0
C119 C 0.58311 0.57592 0.45237 0.0
C120 C 0.56886 0.54869 0.47177 0.0
O121 O 0.48818 0.49124 0.46988 0.0
C122 C 0.56422 0.52869 0.57369 0.0
O123 O 0.54889 0.54095 0.58656 0.0
H124 H 0.52058 0.56952 0.49074 0.0
H125 H 0.57737 0.53362 0.47226 0.0
N126 N 0.48833 0.47242 0.54702 0.0
N127 N 0.47042 0.42664 0.57142 0.0
C128 C 0.49625 0.45273 0.55981 0.0
C129 C 0.45626 0.45758 0.55007 0.0
C130 C 0.44521 0.42932 0.56536 0.0
C131 C 0.4661 0.49698 0.46673 0.0
O132 O 0.46426 0.5138 0.49359 0.0
H133 H 0.5202 0.45698 0.55951 0.0
H134 H 0.44167 0.46615 0.54044 0.0
O135 O 0.5535 0.51173 0.54321 0.0
H136 H 0.60508 0.58668 0.43517 0.0
H137 H 0.42062 0.41196 0.5713 0.0
H138 H 0.16993 0.40448 0.1677 0.0
H139 H 0.13376 0.41359 0.12689 0.0
H140 H 0.16886 0.49662 0.18695 0.0
H141 H 0.2051 0.48787 0.22707 0.0
H142 H 0.23576 0.43686 0.1743 0.0
H143 H 0.14812 0.40652 0.26774 0.0
H144 H 0.11047 0.41343 0.3062 0.0
H145 H 0.18927 0.49191 0.35974 0.0
H146 H 0.22687 0.48541 0.32097 0.0
H147 H 0.29973 0.48662 0.32003 0.0
H148 H 0.34475 0.49441 0.36154 0.0
H149 H 0.33024 0.41119 0.32184 0.0
H150 H 0.28498 0.40334 0.27986 0.0
H151 H 0.23771 0.44269 0.32316 0.0
H152 H 0.32333 0.48228 0.23328 0.0
H153 H 0.36703 0.48963 0.1911 0.0
H154 H 0.30224 0.4092 0.12791 0.0
H155 H 0.25827 0.40094 0.17153 0.0
C156 C 0.19001 0.44522 0.20111 0.0
C157 C 0.16985 0.42464 0.17211 0.0
C158 C 0.14915 0.42981 0.14888 0.0
C159 C 0.1485 0.45576 0.15404 0.0
C160 C 0.16879 0.47637 0.1826 0.0
C161 C 0.18939 0.47126 0.20571 0.0
C162 C 0.21231 0.44022 0.22611 0.0
C163 C 0.23562 0.43726 0.20694 0.0
C164 C 0.21317 0.44185 0.26866 0.0
C165 C 0.19018 0.44558 0.29138 0.0
C166 C 0.15724 0.42528 0.28758 0.0
C167 C 0.13588 0.42911 0.30958 0.0
C168 C 0.14735 0.45313 0.33556 0.0
C169 C 0.18017 0.47322 0.33976 0.0
C170 C 0.2015 0.46948 0.31775 0.0
C171 C 0.28895 0.44443 0.29659 0.0
C172 C 0.30605 0.4699 0.32031 0.0
C173 C 0.3318 0.4744 0.34397 0.0
C174 C 0.34089 0.45345 0.34467 0.0
C175 C 0.32367 0.42772 0.32154 0.0
C176 C 0.29793 0.42328 0.29754 0.0
C177 C 0.26174 0.44044 0.27141 0.0
C178 C 0.23732 0.44134 0.29058 0.0
C179 C 0.26074 0.4381 0.22892 0.0
C180 C 0.2876 0.4407 0.20616 0.0
C181 C 0.31858 0.46553 0.2115 0.0
C182 C 0.34347 0.46991 0.18721 0.0
C183 C 0.3376 0.44995 0.15666 0.0
C184 C 0.30703 0.42468 0.1517 0.0
C185 C 0.28205 0.42007 0.17639 0.0
H186 H 0.74384 0.20961 0.81817 0.0
H187 H 0.70035 0.17419 0.86272 0.0
H188 H 0.71325 0.10389 0.82535 0.0
H189 H 0.75712 0.1396 0.7802 0.0
H190 H 0.80541 0.22579 0.82183 0.0
H191 H 0.71934 0.18072 0.73219 0.0
H192 H 0.67497 0.14196 0.69364 0.0
H193 H 0.73982 0.12624 0.62967 0.0
H194 H 0.78456 0.16447 0.66974 0.0
H195 H 0.87306 0.25576 0.66666 0.0
H196 H 0.90939 0.30104 0.62631 0.0
H197 H 0.87343 0.34861 0.68617 0.0
H198 H 0.83701 0.30358 0.72587 0.0
H199 H 0.80674 0.22246 0.67285 0.0
H200 H 0.89451 0.27882 0.76594 0.0
H201 H 0.93198 0.3236 0.8037 0.0
H202 H 0.85273 0.3231 0.85741 0.0
H203 H 0.81537 0.27893 0.81936 0.0
C204 C 0.75379 0.17733 0.79565 0.0
C205 C 0.73743 0.1866 0.81944 0.0
C206 C 0.71261 0.1664 0.84492 0.0
C207 C 0.7037 0.13653 0.84745 0.0
C208 C 0.71984 0.12695 0.82381 0.0
C209 C 0.74473 0.14724 0.79795 0.0
C210 C 0.78103 0.19994 0.7701 0.0
C211 C 0.80563 0.2249 0.78922 0.0
C212 C 0.78188 0.19877 0.72754 0.0
C213 C 0.7551 0.17474 0.70485 0.0
C214 C 0.72406 0.16846 0.71075 0.0
C215 C 0.69882 0.14668 0.68839 0.0
C216 C 0.70433 0.13133 0.65929 0.0
C217 C 0.7353 0.13785 0.65243 0.0
C218 C 0.76066 0.15953 0.67522 0.0
C219 C 0.85244 0.27619 0.69981 0.0
C220 C 0.87289 0.27589 0.671 0.0
C221 C 0.89365 0.30174 0.648 0.0
C222 C 0.89414 0.32826 0.65322 0.0
C223 C 0.87354 0.32847 0.68162 0.0
C224 C 0.85285 0.30274 0.7045 0.0
C225 C 0.83024 0.2489 0.72467 0.0
C226 C 0.80695 0.22289 0.70549 0.0
C227 C 0.82958 0.24942 0.7672 0.0
C228 C 0.85235 0.2759 0.78975 0.0
C229 C 0.88531 0.28853 0.78563 0.0
C230 C 0.90653 0.31382 0.8071 0.0
C231 C 0.89474 0.32631 0.83275 0.0
C232 C 0.86194 0.31356 0.83739 0.0
C233 C 0.84078 0.28843 0.81591 0.0
H234 H 0.65614 0.87124 0.35293 0.0
H235 H 0.64423 0.90317 0.39216 0.0
H236 H 0.55692 0.87066 0.32547 0.0
H237 H 0.56835 0.83858 0.28704 0.0
H238 H 0.62186 0.80986 0.34559 0.0
H239 H 0.65683 0.89367 0.25234 0.0
H240 H 0.64653 0.92962 0.21853 0.0
H241 H 0.56359 0.85732 0.16108 0.0
H242 H 0.57339 0.8214 0.19517 0.0
H243 H 0.5682 0.75314 0.19977 0.0
H244 H 0.55603 0.70945 0.16116 0.0
H245 H 0.64209 0.71664 0.20542 0.0
H246 H 0.65429 0.7605 0.2445 0.0
H247 H 0.61799 0.81023 0.1963 0.0
H248 H 0.57113 0.72935 0.28802 0.0
H249 H 0.5619 0.68723 0.33057 0.0
H250 H 0.64831 0.745 0.39631 0.0
H251 H 0.6586 0.78731 0.35223 0.0
C252 C 0.6135 0.85284 0.31631 0.0
C253 C 0.63447 0.87102 0.3467 0.0
C254 C 0.62769 0.88925 0.36905 0.0
C255 C 0.59974 0.88941 0.3615 0.0
C256 C 0.57871 0.87106 0.33161 0.0
C257 C 0.58539 0.85288 0.30945 0.0
C258 C 0.61991 0.83286 0.29255 0.0
C259 C 0.6221 0.81051 0.3129 0.0
C260 C 0.61924 0.83294 0.2499 0.0
C261 C 0.61566 0.85496 0.22649 0.0
C262 C 0.63657 0.88563 0.23228 0.0
C263 C 0.63074 0.90602 0.21313 0.0
C264 C 0.60412 0.89578 0.18808 0.0
C265 C 0.5841 0.86537 0.18074 0.0
C266 C 0.58982 0.845 0.1999 0.0
C267 C 0.61218 0.76023 0.22523 0.0
C268 C 0.58467 0.74555 0.20101 0.0
C269 C 0.57764 0.72051 0.17899 0.0
C270 C 0.59807 0.70968 0.18038 0.0
C271 C 0.62588 0.72453 0.20398 0.0
C272 C 0.63284 0.74954 0.22635 0.0
C273 C 0.6184 0.78636 0.2493 0.0
C274 C 0.61912 0.81017 0.22895 0.0
C275 C 0.62046 0.78689 0.29197 0.0
C276 C 0.61614 0.76123 0.31603 0.0
C277 C 0.58872 0.73289 0.3106 0.0
C278 C 0.58317 0.70899 0.33522 0.0
C279 C 0.60449 0.71332 0.36618 0.0
C280 C 0.63179 0.7415 0.37218 0.0
C281 C 0.63763 0.76546 0.3471 0.0
H282 H 0.73726 0.53386 0.70865 0.0
H283 H 0.69175 0.52497 0.66745 0.0
H284 H 0.70502 0.60805 0.70563 0.0
H285 H 0.75091 0.61703 0.74737 0.0
H286 H 0.79832 0.57963 0.70078 0.0
H287 H 0.71615 0.5384 0.79672 0.0
H288 H 0.67253 0.53382 0.83655 0.0
H289 H 0.73871 0.6154 0.89659 0.0
H290 H 0.78257 0.62076 0.85539 0.0
H291 H 0.87251 0.61971 0.85057 0.0
H292 H 0.90913 0.61085 0.89065 0.0
H293 H 0.87198 0.52661 0.83304 0.0
H294 H 0.8352 0.5351 0.79366 0.0
H295 H 0.80616 0.5859 0.84952 0.0
H296 H 0.89028 0.61346 0.74662 0.0
H297 H 0.92287 0.6021 0.70405 0.0
H298 H 0.83726 0.52381 0.6614 0.0
H299 H 0.80499 0.53456 0.70399 0.0
C300 C 0.74752 0.57608 0.73133 0.0
C301 C 0.73045 0.55023 0.70831 0.0
C302 C 0.70447 0.54513 0.68476 0.0
C303 C 0.69506 0.56582 0.68344 0.0
C304 C 0.71192 0.59174 0.70632 0.0
C305 C 0.73797 0.59682 0.73024 0.0
C306 C 0.77602 0.58131 0.75463 0.0
C307 C 0.80006 0.58119 0.73336 0.0
C308 C 0.77854 0.58351 0.79713 0.0
C309 C 0.75241 0.58054 0.82197 0.0
C310 C 0.7213 0.55568 0.81779 0.0
C311 C 0.6965 0.55283 0.84085 0.0
C312 C 0.70256 0.57446 0.86891 0.0
C313 C 0.73372 0.59869 0.87459 0.0
C314 C 0.75861 0.60174 0.85115 0.0
C315 C 0.85122 0.57828 0.81858 0.0
C316 C 0.87234 0.59939 0.8464 0.0
C317 C 0.89328 0.59437 0.86922 0.0
C318 C 0.89327 0.56802 0.86486 0.0
C319 C 0.87249 0.54712 0.83686 0.0
C320 C 0.85159 0.55209 0.81415 0.0
C321 C 0.82769 0.58266 0.79559 0.0
C322 C 0.80493 0.58526 0.8169 0.0
C323 C 0.82499 0.5807 0.75316 0.0
C324 C 0.84535 0.57473 0.72849 0.0
C325 C 0.87869 0.59378 0.7283 0.0
C326 C 0.89713 0.5874 0.7041 0.0
C327 C 0.88213 0.56205 0.68018 0.0
C328 C 0.849 0.54335 0.68002 0.0
C329 C 0.83069 0.54956 0.70414 0.0
H330 H 0.26693 0.86471 0.19605 0.0
H331 H 0.31266 0.90127 0.15438 0.0
H332 H 0.37334 0.87859 0.21894 0.0
H333 H 0.32783 0.84186 0.26002 0.0
H334 H 0.24057 0.80469 0.20168 0.0
H335 H 0.29206 0.88583 0.29793 0.0
H336 H 0.33623 0.92233 0.34051 0.0
H337 H 0.34347 0.85136 0.39531 0.0
H338 H 0.30013 0.8152 0.35276 0.0
H339 H 0.22823 0.7433 0.34921 0.0
H340 H 0.19008 0.69648 0.38427 0.0
H341 H 0.11198 0.70053 0.33281 0.0
H342 H 0.15035 0.74769 0.29738 0.0
H343 H 0.24096 0.79909 0.35095 0.0
H344 H 0.20682 0.72309 0.25944 0.0
H345 H 0.16935 0.67939 0.22086 0.0
H346 H 0.13993 0.7318 0.15418 0.0
H347 H 0.17664 0.7756 0.19424 0.0
C348 C 0.29393 0.85081 0.23178 0.0
C349 C 0.29013 0.86779 0.20151 0.0
C350 C 0.3162 0.88868 0.17781 0.0
C351 C 0.34639 0.89273 0.18384 0.0
C352 C 0.35029 0.87599 0.21409 0.0
C353 C 0.32431 0.85513 0.23771 0.0
C354 C 0.26593 0.82716 0.25532 0.0
C355 C 0.24023 0.80398 0.23436 0.0
C356 C 0.26599 0.82528 0.29794 0.0
C357 C 0.29284 0.84783 0.32229 0.0
C358 C 0.30338 0.87824 0.31889 0.0
C359 C 0.32838 0.89896 0.34315 0.0
C360 C 0.34275 0.88925 0.37091 0.0
C361 C 0.33245 0.85907 0.37401 0.0
C362 C 0.3077 0.83849 0.34989 0.0
C363 C 0.19226 0.74914 0.32058 0.0
C364 C 0.20294 0.73443 0.34578 0.0
C365 C 0.18116 0.70759 0.36562 0.0
C366 C 0.14827 0.69498 0.36099 0.0
C367 C 0.13733 0.70983 0.33661 0.0
C368 C 0.1592 0.73673 0.31646 0.0
C369 C 0.21602 0.77655 0.29735 0.0
C370 C 0.24077 0.80039 0.31829 0.0
C371 C 0.21599 0.77835 0.25473 0.0
C372 C 0.19362 0.75228 0.2307 0.0
C373 C 0.19177 0.72509 0.23727 0.0
C374 C 0.17063 0.70025 0.21512 0.0
C375 C 0.15165 0.70245 0.18549 0.0
C376 C 0.15409 0.72974 0.17769 0.0
C377 C 0.17503 0.75463 0.2003 0.0
H378 H 0.47415 0.269 0.84311 0.0
H379 H 0.48692 0.31319 0.88051 0.0
H380 H 0.40003 0.30528 0.83828 0.0
H381 H 0.38714 0.2607 0.8002 0.0
H382 H 0.42529 0.2123 0.84868 0.0
H383 H 0.47047 0.29155 0.75616 0.0
H384 H 0.48074 0.33329 0.71216 0.0
H385 H 0.39419 0.27567 0.64663 0.0
H386 H 0.38277 0.23373 0.69234 0.0
H387 H 0.38438 0.14724 0.69642 0.0
H388 H 0.39527 0.11402 0.65872 0.0
H389 H 0.48561 0.15061 0.7195 0.0
H390 H 0.47506 0.18391 0.75654 0.0
H391 H 0.41934 0.2104 0.69954 0.0
H392 H 0.3875 0.12828 0.79633 0.0
H393 H 0.39811 0.09383 0.83416 0.0
H394 H 0.48196 0.16877 0.8862 0.0
H395 H 0.47184 0.20311 0.84816 0.0
C396 C 0.42964 0.26136 0.81875 0.0
C397 C 0.45759 0.27649 0.84203 0.0
C398 C 0.46499 0.30184 0.86329 0.0
C399 C 0.44455 0.31258 0.86216 0.0
C400 C 0.41627 0.29743 0.83943 0.0
C401 C 0.40891 0.27201 0.81772 0.0
C402 C 0.42333 0.23499 0.79528 0.0
C403 C 0.42361 0.21182 0.81606 0.0
C404 C 0.42098 0.23401 0.75267 0.0
C405 C 0.42538 0.25965 0.72827 0.0
C406 C 0.45299 0.28796 0.7334 0.0
C407 C 0.45915 0.31169 0.70793 0.0
C408 C 0.43834 0.30725 0.67627 0.0
C409 C 0.41048 0.27926 0.6711 0.0
C410 C 0.404 0.25548 0.69709 0.0
C411 C 0.42867 0.16795 0.72986 0.0
C412 C 0.4065 0.14809 0.7017 0.0
C413 C 0.41266 0.12902 0.68032 0.0
C414 C 0.44121 0.12964 0.68646 0.0
C415 C 0.46332 0.14949 0.71443 0.0
C416 C 0.45722 0.1685 0.73569 0.0
C417 C 0.4226 0.18845 0.75302 0.0
C418 C 0.41956 0.21024 0.73222 0.0
C419 C 0.42406 0.18917 0.79559 0.0
C420 C 0.42895 0.16813 0.81948 0.0
C421 C 0.40814 0.13721 0.81587 0.0
C422 C 0.41415 0.11767 0.8373 0.0
C423 C 0.44083 0.12905 0.86248 0.0
C424 C 0.4613 0.15981 0.86664 0.0
C425 C 0.45541 0.1793 0.84523 0.0
C426 C 0.09268 0.47878 0.091 0.0
C427 C 0.07809 0.48791 0.07236 0.0
C428 C 0.111 0.46889 0.11184 0.0
C429 C 0.12754 0.46183 0.13018 0.0
C430 C 0.62173 0.07141 0.6075 0.0
C431 C 0.59554 0.05622 0.59336 0.0
C432 C 0.65262 0.09099 0.62219 0.0
C433 C 0.67765 0.10881 0.63725 0.0
C434 C 0.57554 0.63398 0.12029 0.0
C435 C 0.57064 0.61126 0.10487 0.0
C436 C 0.58309 0.66066 0.14019 0.0
C437 C 0.58994 0.68296 0.15849 0.0
C438 C 0.92614 0.53661 0.60589 0.0
C439 C 0.94156 0.53377 0.58103 0.0
C440 C 0.91216 0.54575 0.63354 0.0
C441 C 0.90008 0.55455 0.6555 0.0
C442 C 0.42277 0.94644 0.11125 0.0
C443 C 0.44422 0.9592 0.0869 0.0
C444 C 0.39615 0.92926 0.13722 0.0
C445 C 0.37307 0.91282 0.15795 0.0
C446 C 0.46492 0.3794 0.605 0.0
C447 C 0.46941 0.40198 0.58926 0.0
C448 C 0.45549 0.35306 0.62713 0.0
C449 C 0.44657 0.33147 0.64863 0.0
C450 C 0.57434 0.94007 0.42232 0.0
C451 C 0.56703 0.95414 0.44302 0.0
C452 C 0.58417 0.92298 0.40156 0.0
C453 C 0.59215 0.90808 0.38407 0.0
C454 C 0.6224 0.55876 0.92265 0.0
C455 C 0.59702 0.54909 0.93876 0.0
C456 C 0.65213 0.56702 0.90617 0.0
C457 C 0.67625 0.57192 0.89044 0.0
C458 C 0.09672 0.61638 0.42354 0.0
C459 C 0.0864 0.59472 0.44596 0.0
C460 C 0.1112 0.64316 0.39967 0.0
C461 C 0.12636 0.66667 0.38113 0.0
C462 C 0.46828 0.0836 0.93167 0.0
C463 C 0.47934 0.07459 0.95622 0.0
C464 C 0.45619 0.09611 0.90496 0.0
C465 C 0.44754 0.10952 0.88461 0.0
C466 C 0.41865 0.47437 0.41394 0.0
C467 C 0.44124 0.48353 0.43661 0.0
C468 C 0.39134 0.46521 0.3892 0.0
C469 C 0.36827 0.45894 0.36854 0.0
C470 C 0.94821 0.39809 0.89962 0.0
C471 C 0.96154 0.41696 0.92418 0.0
C472 C 0.93174 0.37399 0.87418 0.0
C473 C 0.91602 0.35229 0.85455 0.0
C474 C 0.9476 0.54526 0.93213 0.0
C475 C 0.96364 0.53716 0.94947 0.0
C476 C 0.92954 0.55469 0.90959 0.0
C477 C 0.91345 0.56159 0.88985 0.0
C478 C 0.41343 0.93635 0.44979 0.0
C479 C 0.4363 0.94906 0.47143 0.0
C480 C 0.38873 0.92297 0.42124 0.0
C481 C 0.3678 0.90956 0.39712 0.0
C482 C 0.47384 0.38753 0.9271 0.0
C483 C 0.48029 0.40935 0.94611 0.0
C484 C 0.46271 0.3615 0.90384 0.0
C485 C 0.45327 0.33921 0.88435 0.0
C486 C 0.08337 0.46447 0.39313 0.0
C487 C 0.06303 0.46731 0.40762 0.0
C488 C 0.1065 0.46094 0.37465 0.0
C489 C 0.12543 0.45767 0.35702 0.0
C490 C 0.62814 0.0836 0.92143 0.0
C491 C 0.60344 0.06766 0.93962 0.0
C492 C 0.65549 0.10093 0.89663 0.0
C493 C 0.67756 0.11607 0.87381 0.0
C494 C 0.57885 0.6386 0.4299 0.0
C495 C 0.57123 0.61463 0.44382 0.0
C496 C 0.58936 0.66616 0.41091 0.0
C497 C 0.59771 0.68858 0.39174 0.0
C498 C 0.46603 0.08094 0.61904 0.0
C499 C 0.4746 0.06959 0.59488 0.0
C500 C 0.45611 0.09631 0.64396 0.0
C501 C 0.4488 0.11123 0.66292 0.0
C502 C 0.4135 0.48109 0.08389 0.0
C503 C 0.43876 0.49288 0.0669 0.0
C504 C 0.38544 0.46697 0.107 0.0
C505 C 0.36243 0.45752 0.12824 0.0
C506 C 0.95484 0.40756 0.59395 0.0
C507 C 0.97427 0.43216 0.58001 0.0
C508 C 0.9334 0.37902 0.61243 0.0
C509 C 0.91593 0.35549 0.63034 0.0
C510 C 0.58034 0.94971 0.13311 0.0
C511 C 0.57467 0.96357 0.10913 0.0
C512 C 0.58896 0.9322 0.15518 0.0
C513 C 0.5966 0.91624 0.17069 0.0
C514 C 0.61752 0.54351 0.61308 0.0
C515 C 0.5935 0.53576 0.59369 0.0
C516 C 0.64504 0.55294 0.63743 0.0
C517 C 0.66792 0.55986 0.6588 0.0
C518 C 0.09705 0.63084 0.11706 0.0
C519 C 0.08643 0.61343 0.09005 0.0
C520 C 0.11367 0.65482 0.14328 0.0
C521 C 0.1308 0.67685 0.16212 0.0
loop_
_geom_bond_atom_site_label_1
_geom_bond_atom_site_label_2
_geom_bond_distance
_geom_bond_site_symmetry_2
_ccdc_geom_bond_type
Cu0 N1 1.999 1_454 S
Cu0 O6 1.943 1_454 S
Cu0 N11 1.988 . S
Cu0 O20 1.991 . S
N1 Cu0 1.999 1_656 S
N1 C3 1.263 . S
N1 C5 1.389 1_556 S
N2 C3 1.358 . S
N2 C4 1.400 . S
C3 N1 1.263 . S
C3 N2 1.358 . S
C3 H9 0.930 . S
C4 N2 1.400 . S
C4 C5 1.351 1_556 S
C4 H21 0.930 . S
C5 N1 1.389 1_554 S
C5 C4 1.351 1_554 S
C5 H10 0.930 . S
O6 Cu0 1.943 1_656 S
O6 C16 1.282 . S
C7 O8 1.261 1_554 S
C7 O20 1.251 . S
O8 C7 1.261 1_556 S
H9 C3 0.930 . S
H10 C5 0.930 . S
N11 Cu0 1.988 . S
N11 C13 1.335 . S
N11 C14 1.390 . S
N12 C13 1.345 . S
N12 C15 1.336 . S
C13 N11 1.335 . S
C13 N12 1.345 . S
C13 H18 0.930 . S
C14 N11 1.390 . S
C14 C15 1.346 . S
C14 H19 0.930 1_554 S
C15 N12 1.336 . S
C15 C14 1.346 . S
C15 H22 0.929 . S
C16 O6 1.282 . S
C16 O17 1.216 1_655 S
O17 C16 1.216 1_455 S
H18 C13 0.930 . S
H19 C14 0.930 1_556 S
O20 Cu0 1.991 . S
O20 C7 1.251 . S
H21 C4 0.930 . S
H22 C15 0.929 . S
Cu23 N24 1.999 . S
Cu23 O29 1.974 . S
Cu23 N34 1.985 1_565 S
Cu23 O43 1.959 1_565 S
N24 Cu23 1.999 . S
N24 C26 1.263 . S
N24 C28 1.389 . S
N25 C26 1.358 . S
N25 C27 1.400 . S
C26 N24 1.263 . S
C26 N25 1.358 . S
C26 H32 0.930 . S
C27 N25 1.400 . S
C27 C28 1.351 . S
C27 H44 0.930 . S
C28 N24 1.389 . S
C28 C27 1.351 . S
C28 H33 0.930 . S
O29 Cu23 1.974 . S
O29 C39 1.282 . S
C30 O31 1.261 . S
C30 O43 1.251 . S
O31 C30 1.261 . S
H32 C26 0.930 . S
H33 C28 0.930 . S
N34 Cu23 1.985 1_545 S
N34 C36 1.335 . S
N34 C37 1.390 . S
N35 C36 1.345 . S
N35 C38 1.336 . S
C36 N34 1.335 . S
C36 N35 1.345 . S
C36 H41 0.930 . S
C37 N34 1.390 . S
C37 C38 1.346 . S
C37 H42 0.930 . S
C38 N35 1.336 . S
C38 C37 1.346 . S
C38 H45 0.929 . S
C39 O29 1.282 . S
C39 O40 1.216 . S
O40 C39 1.216 . S
H41 C36 0.930 . S
H42 C37 0.930 . S
O43 Cu23 1.959 1_545 S
O43 C30 1.251 . S
H44 C27 0.930 . S
H45 C38 0.929 . S
Cu46 N47 1.999 1_554 S
Cu46 O52 1.974 1_554 S
Cu46 N57 1.985 . S
Cu46 O66 1.959 . S
N47 Cu46 1.999 1_556 S
N47 C49 1.263 . S
N47 C51 1.389 . S
N48 C49 1.358 . S
N48 C50 1.400 . S
C49 N47 1.263 . S
C49 N48 1.358 . S
C49 H55 0.930 . S
C50 N48 1.400 . S
C50 C51 1.351 . S
C50 H67 0.930 . S
C51 N47 1.389 . S
C51 C50 1.351 . S
C51 H56 0.930 . S
O52 Cu46 1.974 1_556 S
O52 C62 1.282 . S
C53 O54 1.261 . S
C53 O66 1.251 . S
O54 C53 1.261 . S
H55 C49 0.930 . S
H56 C51 0.930 . S
N57 Cu46 1.985 . S
N57 C59 1.335 . S
N57 C60 1.390 . S
N58 C59 1.345 . S
N58 C61 1.336 . S
C59 N57 1.335 . S
C59 N58 1.345 . S
C59 H64 0.930 . S
C60 N57 1.390 . S
C60 C61 1.346 . S
C60 H65 0.930 . S
C61 N58 1.336 . S
C61 C60 1.346 . S
C61 H68 0.929 . S
C62 O52 1.282 . S
C62 O63 1.216 1_556 S
O63 C62 1.216 1_554 S
H64 C59 0.930 . S
H65 C60 0.930 . S
O66 Cu46 1.959 . S
O66 C53 1.251 . S
H67 C50 0.930 . S
H68 C61 0.929 . S
Cu69 N70 1.999 1_655 S
Cu69 O75 1.974 1_655 S
Cu69 N80 1.985 . S
Cu69 O89 1.959 . S
N70 Cu69 1.999 1_455 S
N70 C72 1.263 . S
N70 C74 1.389 1_455 S
N71 C72 1.358 . S
N71 C73 1.400 . S
C72 N70 1.263 . S
C72 N71 1.358 . S
C72 H78 0.930 . S
C73 N71 1.400 . S
C73 C74 1.351 1_455 S
C73 H90 0.930 . S
C74 N70 1.389 1_655 S
C74 C73 1.351 1_655 S
C74 H79 0.930 . S
O75 Cu69 1.974 1_455 S
O75 C85 1.282 . S
C76 O77 1.261 . S
C76 O89 1.251 . S
O77 C76 1.261 . S
H78 C72 0.930 . S
H79 C74 0.930 . S
N80 Cu69 1.985 . S
N80 C82 1.335 . S
N80 C83 1.390 . S
N81 C82 1.345 . S
N81 C84 1.336 . S
C82 N80 1.335 . S
C82 N81 1.345 . S
C82 H87 0.930 . S
C83 N80 1.390 . S
C83 C84 1.346 . S
C83 H88 0.930 1_655 S
C84 N81 1.336 . S
C84 C83 1.346 . S
C84 H91 0.929 . S
C85 O75 1.282 . S
C85 O86 1.216 . S
O86 C85 1.216 . S
H87 C82 0.930 . S
H88 C83 0.930 1_455 S
O89 Cu69 1.959 . S
O89 C76 1.251 . S
H90 C73 0.930 . S
H91 C84 0.929 . S
Cu92 N93 1.999 . S
Cu92 O98 1.974 1_554 S
Cu92 N103 1.985 1_545 S
Cu92 O112 1.959 1_545 S
N93 Cu92 1.999 . S
N93 C95 1.263 1_554 S
N93 C97 1.389 . S
N94 C95 1.358 . S
N94 C96 1.400 1_556 S
C95 N93 1.263 1_556 S
C95 N94 1.358 . S
C95 H101 0.930 . S
C96 N94 1.400 1_554 S
C96 C97 1.351 . S
C96 H113 0.930 . S
C97 N93 1.389 . S
C97 C96 1.351 . S
C97 H102 0.930 . S
O98 Cu92 1.974 1_556 S
O98 C108 1.282 . S
C99 O100 1.261 . S
C99 O112 1.251 . S
O100 C99 1.261 . S
H101 C95 0.930 . S
H102 C97 0.930 . S
N103 Cu92 1.985 1_565 S
N103 C105 1.335 . S
N103 C106 1.390 . S
N104 C105 1.345 . S
N104 C107 1.336 . S
C105 N103 1.335 . S
C105 N104 1.345 . S
C105 H110 0.930 . S
C106 N103 1.390 . S
C106 C107 1.346 . S
C106 H111 0.926 1_565 S
C107 N104 1.336 . S
C107 C106 1.346 . S
C107 H114 0.929 . S
C108 O98 1.282 . S
C108 O109 1.216 . S
O109 C108 1.216 . S
H110 C105 0.930 . S
H111 C106 0.926 1_545 S
O112 Cu92 1.959 1_565 S
O112 C99 1.251 . S
H113 C96 0.930 . S
H114 C107 0.929 . S
Cu115 N116 1.999 . S
Cu115 O121 1.974 . S
Cu115 N126 1.985 . S
Cu115 O135 1.959 . S
N116 Cu115 1.999 . S
N116 C118 1.263 . S
N116 C120 1.389 . S
N117 C118 1.358 . S
N117 C119 1.400 . S
C118 N116 1.263 . S
C118 N117 1.358 . S
C118 H124 0.930 . S
C119 N117 1.400 . S
C119 C120 1.351 . S
C119 H136 0.930 . S
C120 N116 1.389 . S
C120 C119 1.351 . S
C120 H125 0.930 . S
O121 Cu115 1.974 . S
O121 C131 1.282 . S
C122 O123 1.261 . S
C122 O135 1.251 . S
O123 C122 1.261 . S
H124 C118 0.930 . S
H125 C120 0.930 . S
N126 Cu115 1.985 . S
N126 C128 1.335 . S
N126 C129 1.390 . S
N127 C128 1.345 . S
N127 C130 1.336 . S
C128 N126 1.335 . S
C128 N127 1.345 . S
C128 H133 0.930 . S
C129 N126 1.390 . S
C129 C130 1.346 . S
C129 H134 0.930 . S
C130 N127 1.336 . S
C130 C129 1.346 . S
C130 H137 0.929 . S
C131 O121 1.282 . S
C131 O132 1.216 . S
O132 C131 1.216 . S
H133 C128 0.930 . S
H134 C129 0.930 . S
O135 Cu115 1.959 . S
O135 C122 1.251 . S
H136 C119 0.930 . S
H137 C130 0.929 . S
H138 C157 0.949 . S
H139 C158 0.950 . S
H140 C160 0.950 . S
H141 C161 0.950 . S
H142 C163 0.950 . S
H143 C166 0.950 . S
H144 C167 0.950 . S
H145 C169 0.951 . S
H146 C170 0.949 . S
H147 C172 0.949 . S
H148 C173 0.950 . S
H149 C175 0.950 . S
H150 C176 0.950 . S
H151 C178 0.950 . S
H152 C181 0.950 . S
H153 C182 0.950 . S
H154 C184 0.951 . S
H155 C185 0.949 . S
C156 C157 1.376 . S
C156 C161 1.386 . S
C156 C162 1.483 . S
C157 H138 0.949 . S
C157 C156 1.376 . S
C157 C158 1.397 . S
C158 H139 0.950 . S
C158 C157 1.397 . S
C158 C159 1.391 . S
C159 C158 1.391 . S
C159 C160 1.405 . S
C160 H140 0.950 . S
C160 C159 1.405 . S
C160 C161 1.367 . S
C161 H141 0.950 . S
C161 C156 1.386 . S
C161 C160 1.367 . S
C162 C156 1.483 . S
C162 C163 1.382 . S
C162 C164 1.403 . S
C163 H142 0.950 . S
C163 C162 1.382 . S
C163 C179 1.411 . S
C164 C162 1.403 . S
C164 C165 1.489 . S
C164 C178 1.411 . S
C165 C164 1.489 . S
C165 C166 1.383 . S
C165 C170 1.382 . S
C166 H143 0.950 . S
C166 C165 1.383 . S
C166 C167 1.395 . S
C167 H144 0.950 . S
C167 C166 1.395 . S
C167 C168 1.288 . S
C168 C167 1.288 . S
C168 C169 1.392 . S
C169 H145 0.951 . S
C169 C168 1.392 . S
C169 C170 1.392 . S
C170 H146 0.949 . S
C170 C165 1.382 . S
C170 C169 1.392 . S
C171 C172 1.376 . S
C171 C176 1.386 . S
C171 C177 1.483 . S
C172 H147 0.949 . S
C172 C171 1.376 . S
C172 C173 1.397 . S
C173 H148 0.950 . S
C173 C172 1.397 . S
C173 C174 1.391 . S
C174 C173 1.391 . S
C174 C175 1.405 . S
C175 H149 0.950 . S
C175 C174 1.405 . S
C175 C176 1.367 . S
C176 H150 0.950 . S
C176 C171 1.386 . S
C176 C175 1.367 . S
C177 C171 1.483 . S
C177 C178 1.382 . S
C177 C179 1.403 . S
C178 H151 0.950 . S
C178 C164 1.411 . S
C178 C177 1.382 . S
C179 C163 1.411 . S
C179 C177 1.403 . S
C179 C180 1.489 . S
C180 C179 1.489 . S
C180 C181 1.383 . S
C180 C185 1.382 . S
C181 H152 0.950 . S
C181 C180 1.383 . S
C181 C182 1.395 . S
C182 H153 0.950 . S
C182 C181 1.395 . S
C182 C183 1.288 . S
C183 C182 1.288 . S
C183 C184 1.392 . S
C184 H154 0.951 . S
C184 C183 1.392 . S
C184 C185 1.392 . S
C185 H155 0.949 . S
C185 C180 1.382 . S
C185 C184 1.392 . S
H186 C205 0.949 . S
H187 C206 0.950 . S
H188 C208 0.950 . S
H189 C209 0.950 . S
H190 C211 0.950 . S
H191 C214 0.950 . S
H192 C215 0.950 . S
H193 C217 0.951 . S
H194 C218 0.949 . S
H195 C220 0.949 . S
H196 C221 0.950 . S
H197 C223 0.950 . S
H198 C224 0.950 . S
H199 C226 0.950 . S
H200 C229 0.950 . S
H201 C230 0.950 . S
H202 C232 0.951 . S
H203 C233 0.949 . S
C204 C205 1.376 . S
C204 C209 1.386 . S
C204 C210 1.483 . S
C205 H186 0.949 . S
C205 C204 1.376 . S
C205 C206 1.397 . S
C206 H187 0.950 . S
C206 C205 1.397 . S
C206 C207 1.391 . S
C207 C206 1.391 . S
C207 C208 1.405 . S
C208 H188 0.950 . S
C208 C207 1.405 . S
C208 C209 1.367 . S
C209 H189 0.950 . S
C209 C204 1.386 . S
C209 C208 1.367 . S
C210 C204 1.483 . S
C210 C211 1.382 . S
C210 C212 1.403 . S
C211 H190 0.950 . S
C211 C210 1.382 . S
C211 C227 1.411 . S
C212 C210 1.403 . S
C212 C213 1.489 . S
C212 C226 1.411 . S
C213 C212 1.489 . S
C213 C214 1.383 . S
C213 C218 1.382 . S
C214 H191 0.950 . S
C214 C213 1.383 . S
C214 C215 1.395 . S
C215 H192 0.950 . S
C215 C214 1.395 . S
C215 C216 1.288 . S
C216 C215 1.288 . S
C216 C217 1.392 . S
C217 H193 0.951 . S
C217 C216 1.392 . S
C217 C218 1.392 . S
C218 H194 0.949 . S
C218 C213 1.382 . S
C218 C217 1.392 . S
C219 C220 1.376 . S
C219 C224 1.386 . S
C219 C225 1.483 . S
C220 H195 0.949 . S
C220 C219 1.376 . S
C220 C221 1.397 . S
C221 H196 0.950 . S
C221 C220 1.397 . S
C221 C222 1.391 . S
C222 C221 1.391 . S
C222 C223 1.405 . S
C223 H197 0.950 . S
C223 C222 1.405 . S
C223 C224 1.367 . S
C224 H198 0.950 . S
C224 C219 1.386 . S
C224 C223 1.367 . S
C225 C219 1.483 . S
C225 C226 1.382 . S
C225 C227 1.403 . S
C226 H199 0.950 . S
C226 C212 1.411 . S
C226 C225 1.382 . S
C227 C211 1.411 . S
C227 C225 1.403 . S
C227 C228 1.489 . S
C228 C227 1.489 . S
C228 C229 1.383 . S
C228 C233 1.382 . S
C229 H200 0.950 . S
C229 C228 1.383 . S
C229 C230 1.395 . S
C230 H201 0.950 . S
C230 C229 1.395 . S
C230 C231 1.288 . S
C231 C230 1.288 . S
C231 C232 1.392 . S
C232 H202 0.951 . S
C232 C231 1.392 . S
C232 C233 1.392 . S
C233 H203 0.949 . S
C233 C228 1.382 . S
C233 C232 1.392 . S
H234 C253 0.949 . S
H235 C254 0.950 . S
H236 C256 0.950 . S
H237 C257 0.950 . S
H238 C259 0.950 . S
H239 C262 0.950 . S
H240 C263 0.950 . S
H241 C265 0.951 . S
H242 C266 0.949 . S
H243 C268 0.949 . S
H244 C269 0.950 . S
H245 C271 0.950 . S
H246 C272 0.950 . S
H247 C274 0.950 . S
H248 C277 0.950 . S
H249 C278 0.950 . S
H250 C280 0.951 . S
H251 C281 0.949 . S
C252 C253 1.376 . S
C252 C257 1.386 . S
C252 C258 1.483 . S
C253 H234 0.949 . S
C253 C252 1.376 . S
C253 C254 1.397 . S
C254 H235 0.950 . S
C254 C253 1.397 . S
C254 C255 1.391 . S
C255 C254 1.391 . S
C255 C256 1.405 . S
C256 H236 0.950 . S
C256 C255 1.405 . S
C256 C257 1.367 . S
C257 H237 0.950 . S
C257 C252 1.386 . S
C257 C256 1.367 . S
C258 C252 1.483 . S
C258 C259 1.382 . S
C258 C260 1.403 . S
C259 H238 0.950 . S
C259 C258 1.382 . S
C259 C275 1.411 . S
C260 C258 1.403 . S
C260 C261 1.489 . S
C260 C274 1.411 . S
C261 C260 1.489 . S
C261 C262 1.383 . S
C261 C266 1.382 . S
C262 H239 0.950 . S
C262 C261 1.383 . S
C262 C263 1.395 . S
C263 H240 0.950 . S
C263 C262 1.395 . S
C263 C264 1.288 . S
C264 C263 1.288 . S
C264 C265 1.392 . S
C265 H241 0.951 . S
C265 C264 1.392 . S
C265 C266 1.392 . S
C266 H242 0.949 . S
C266 C261 1.382 . S
C266 C265 1.392 . S
C267 C268 1.376 . S
C267 C272 1.386 . S
C267 C273 1.483 . S
C268 H243 0.949 . S
C268 C267 1.376 . S
C268 C269 1.397 . S
C269 H244 0.950 . S
C269 C268 1.397 . S
C269 C270 1.391 . S
C270 C269 1.391 . S
C270 C271 1.405 . S
C271 H245 0.950 . S
C271 C270 1.405 . S
C271 C272 1.367 . S
C272 H246 0.950 . S
C272 C267 1.386 . S
C272 C271 1.367 . S
C273 C267 1.483 . S
C273 C274 1.382 . S
C273 C275 1.403 . S
C274 H247 0.950 . S
C274 C260 1.411 . S
C274 C273 1.382 . S
C275 C259 1.411 . S
C275 C273 1.403 . S
C275 C276 1.489 . S
C276 C275 1.489 . S
C276 C277 1.383 . S
C276 C281 1.382 . S
C277 H248 0.950 . S
C277 C276 1.383 . S
C277 C278 1.395 . S
C278 H249 0.950 . S
C278 C277 1.395 . S
C278 C279 1.288 . S
C279 C278 1.288 . S
C279 C280 1.392 . S
C280 H250 0.951 . S
C280 C279 1.392 . S
C280 C281 1.392 . S
C281 H251 0.949 . S
C281 C276 1.382 . S
C281 C280 1.392 . S
H282 C301 0.949 . S
H283 C302 0.950 . S
H284 C304 0.950 . S
H285 C305 0.950 . S
H286 C307 0.950 . S
H287 C310 0.950 . S
H288 C311 0.950 . S
H289 C313 0.951 . S
H290 C314 0.949 . S
H291 C316 0.949 . S
H292 C317 0.950 . S
H293 C319 0.950 . S
H294 C320 0.950 . S
H295 C322 0.950 . S
H296 C325 0.950 . S
H297 C326 0.950 . S
H298 C328 0.951 . S
H299 C329 0.949 . S
C300 C301 1.376 . S
C300 C305 1.386 . S
C300 C306 1.483 . S
C301 H282 0.949 . S
C301 C300 1.376 . S
C301 C302 1.397 . S
C302 H283 0.950 . S
C302 C301 1.397 . S
C302 C303 1.391 . S
C303 C302 1.391 . S
C303 C304 1.405 . S
C304 H284 0.950 . S
C304 C303 1.405 . S
C304 C305 1.367 . S
C305 H285 0.950 . S
C305 C300 1.386 . S
C305 C304 1.367 . S
C306 C300 1.483 . S
C306 C307 1.382 . S
C306 C308 1.403 . S
C307 H286 0.950 . S
C307 C306 1.382 . S
C307 C323 1.411 . S
C308 C306 1.403 . S
C308 C309 1.489 . S
C308 C322 1.411 . S
C309 C308 1.489 . S
C309 C310 1.383 . S
C309 C314 1.382 . S
C310 H287 0.950 . S
C310 C309 1.383 . S
C310 C311 1.395 . S
C311 H288 0.950 . S
C311 C310 1.395 . S
C311 C312 1.288 . S
C312 C311 1.288 . S
C312 C313 1.392 . S
C313 H289 0.951 . S
C313 C312 1.392 . S
C313 C314 1.392 . S
C314 H290 0.949 . S
C314 C309 1.382 . S
C314 C313 1.392 . S
C315 C316 1.376 . S
C315 C320 1.386 . S
C315 C321 1.483 . S
C316 H291 0.949 . S
C316 C315 1.376 . S
C316 C317 1.397 . S
C317 H292 0.950 . S
C317 C316 1.397 . S
C317 C318 1.391 . S
C318 C317 1.391 . S
C318 C319 1.405 . S
C319 H293 0.950 . S
C319 C318 1.405 . S
C319 C320 1.367 . S
C320 H294 0.950 . S
C320 C315 1.386 . S
C320 C319 1.367 . S
C321 C315 1.483 . S
C321 C322 1.382 . S
C321 C323 1.403 . S
C322 H295 0.950 . S
C322 C308 1.411 . S
C322 C321 1.382 . S
C323 C307 1.411 . S
C323 C321 1.403 . S
C323 C324 1.489 . S
C324 C323 1.489 . S
C324 C325 1.383 . S
C324 C329 1.382 . S
C325 H296 0.950 . S
C325 C324 1.383 . S
C325 C326 1.395 . S
C326 H297 0.950 . S
C326 C325 1.395 . S
C326 C327 1.288 . S
C327 C326 1.288 . S
C327 C328 1.392 . S
C328 H298 0.951 . S
C328 C327 1.392 . S
C328 C329 1.392 . S
C329 H299 0.949 . S
C329 C324 1.382 . S
C329 C328 1.392 . S
H330 C349 0.949 . S
H331 C350 0.950 . S
H332 C352 0.950 . S
H333 C353 0.950 . S
H334 C355 0.950 . S
H335 C358 0.950 . S
H336 C359 0.950 . S
H337 C361 0.951 . S
H338 C362 0.949 . S
H339 C364 0.949 . S
H340 C365 0.950 . S
H341 C367 0.950 . S
H342 C368 0.950 . S
H343 C370 0.950 . S
H344 C373 0.950 . S
H345 C374 0.950 . S
H346 C376 0.951 . S
H347 C377 0.949 . S
C348 C349 1.376 . S
C348 C353 1.386 . S
C348 C354 1.483 . S
C349 H330 0.949 . S
C349 C348 1.376 . S
C349 C350 1.397 . S
C350 H331 0.950 . S
C350 C349 1.397 . S
C350 C351 1.391 . S
C351 C350 1.391 . S
C351 C352 1.405 . S
C352 H332 0.950 . S
C352 C351 1.405 . S
C352 C353 1.367 . S
C353 H333 0.950 . S
C353 C348 1.386 . S
C353 C352 1.367 . S
C354 C348 1.483 . S
C354 C355 1.382 . S
C354 C356 1.403 . S
C355 H334 0.950 . S
C355 C354 1.382 . S
C355 C371 1.411 . S
C356 C354 1.403 . S
C356 C357 1.489 . S
C356 C370 1.411 . S
C357 C356 1.489 . S
C357 C358 1.383 . S
C357 C362 1.382 . S
C358 H335 0.950 . S
C358 C357 1.383 . S
C358 C359 1.395 . S
C359 H336 0.950 . S
C359 C358 1.395 . S
C359 C360 1.288 . S
C360 C359 1.288 . S
C360 C361 1.392 . S
C361 H337 0.951 . S
C361 C360 1.392 . S
C361 C362 1.392 . S
C362 H338 0.949 . S
C362 C357 1.382 . S
C362 C361 1.392 . S
C363 C364 1.376 . S
C363 C368 1.386 . S
C363 C369 1.483 . S
C364 H339 0.949 . S
C364 C363 1.376 . S
C364 C365 1.397 . S
C365 H340 0.950 . S
C365 C364 1.397 . S
C365 C366 1.391 . S
C366 C365 1.391 . S
C366 C367 1.405 . S
C367 H341 0.950 . S
C367 C366 1.405 . S
C367 C368 1.367 . S
C368 H342 0.950 . S
C368 C363 1.386 . S
C368 C367 1.367 . S
C369 C363 1.483 . S
C369 C370 1.382 . S
C369 C371 1.403 . S
C370 H343 0.950 . S
C370 C356 1.411 . S
C370 C369 1.382 . S
C371 C355 1.411 . S
C371 C369 1.403 . S
C371 C372 1.489 . S
C372 C371 1.489 . S
C372 C373 1.383 . S
C372 C377 1.382 . S
C373 H344 0.950 . S
C373 C372 1.383 . S
C373 C374 1.395 . S
C374 H345 0.950 . S
C374 C373 1.395 . S
C374 C375 1.288 . S
C375 C374 1.288 . S
C375 C376 1.392 . S
C376 H346 0.951 . S
C376 C375 1.392 . S
C376 C377 1.392 . S
C377 H347 0.949 . S
C377 C372 1.382 . S
C377 C376 1.392 . S
H378 C397 0.949 . S
H379 C398 0.950 . S
H380 C400 0.950 . S
H381 C401 0.950 . S
H382 C403 0.950 . S
H383 C406 0.950 . S
H384 C407 0.950 . S
H385 C409 0.951 . S
H386 C410 0.949 . S
H387 C412 0.949 . S
H388 C413 0.950 . S
H389 C415 0.950 . S
H390 C416 0.950 . S
H391 C418 0.950 . S
H392 C421 0.950 . S
H393 C422 0.950 . S
H394 C424 0.951 . S
H395 C425 0.949 . S
C396 C397 1.376 . S
C396 C401 1.386 . S
C396 C402 1.483 . S
C397 H378 0.949 . S
C397 C396 1.376 . S
C397 C398 1.397 . S
C398 H379 0.950 . S
C398 C397 1.397 . S
C398 C399 1.391 . S
C399 C398 1.391 . S
C399 C400 1.405 . S
C400 H380 0.950 . S
C400 C399 1.405 . S
C400 C401 1.367 . S
C401 H381 0.950 . S
C401 C396 1.386 . S
C401 C400 1.367 . S
C402 C396 1.483 . S
C402 C403 1.382 . S
C402 C404 1.403 . S
C403 H382 0.950 . S
C403 C402 1.382 . S
C403 C419 1.411 . S
C404 C402 1.403 . S
C404 C405 1.489 . S
C404 C418 1.411 . S
C405 C404 1.489 . S
C405 C406 1.383 . S
C405 C410 1.382 . S
C406 H383 0.950 . S
C406 C405 1.383 . S
C406 C407 1.395 . S
C407 H384 0.950 . S
C407 C406 1.395 . S
C407 C408 1.288 . S
C408 C407 1.288 . S
C408 C409 1.392 . S
C409 H385 0.951 . S
C409 C408 1.392 . S
C409 C410 1.392 . S
C410 H386 0.949 . S
C410 C405 1.382 . S
C410 C409 1.392 . S
C411 C412 1.376 . S
C411 C416 1.386 . S
C411 C417 1.483 . S
C412 H387 0.949 . S
C412 C411 1.376 . S
C412 C413 1.397 . S
C413 H388 0.950 . S
C413 C412 1.397 . S
C413 C414 1.391 . S
C414 C413 1.391 . S
C414 C415 1.405 . S
C415 H389 0.950 . S
C415 C414 1.405 . S
C415 C416 1.367 . S
C416 H390 0.950 . S
C416 C411 1.386 . S
C416 C415 1.367 . S
C417 C411 1.483 . S
C417 C418 1.382 . S
C417 C419 1.403 . S
C418 H391 0.950 . S
C418 C404 1.411 . S
C418 C417 1.382 . S
C419 C403 1.411 . S
C419 C417 1.403 . S
C419 C420 1.489 . S
C420 C419 1.489 . S
C420 C421 1.383 . S
C420 C425 1.382 . S
C421 H392 0.950 . S
C421 C420 1.383 . S
C421 C422 1.395 . S
C422 H393 0.950 . S
C422 C421 1.395 . S
C422 C423 1.288 . S
C423 C422 1.288 . S
C423 C424 1.392 . S
C424 H394 0.951 . S
C424 C423 1.392 . S
C424 C425 1.392 . S
C425 H395 0.949 . S
C425 C420 1.382 . S
C425 C424 1.392 . S
C426 C427 1.170 . S
C426 C428 1.380 . S
C427 C426 1.170 . S
C428 C426 1.380 . S
C428 C429 1.170 . S
C429 C428 1.170 . S
C430 C431 1.170 . S
C430 C432 1.380 . S
C431 C430 1.170 . S
C432 C430 1.380 . S
C432 C433 1.170 . S
C433 C432 1.170 . S
C434 C435 1.170 . S
C434 C436 1.380 . S
C435 C434 1.170 . S
C436 C434 1.380 . S
C436 C437 1.170 . S
C437 C436 1.170 . S
C438 C439 1.170 . S
C438 C440 1.380 . S
C439 C438 1.170 . S
C440 C438 1.380 . S
C440 C441 1.170 . S
C441 C440 1.170 . S
C442 C443 1.170 . S
C442 C444 1.380 . S
C443 C442 1.170 . S
C444 C442 1.380 . S
C444 C445 1.170 . S
C445 C444 1.170 . S
C446 C447 1.170 . S
C446 C448 1.380 . S
C447 C446 1.170 . S
C448 C446 1.380 . S
C448 C449 1.170 . S
C449 C448 1.170 . S
C450 C451 1.170 . S
C450 C452 1.380 . S
C451 C450 1.170 . S
C452 C450 1.380 . S
C452 C453 1.170 . S
C453 C452 1.170 . S
C454 C455 1.170 . S
C454 C456 1.380 . S
C455 C454 1.170 . S
C456 C454 1.380 . S
C456 C457 1.170 . S
C457 C456 1.170 . S
C458 C459 1.170 . S
C458 C460 1.380 . S
C459 C458 1.170 . S
C460 C458 1.380 . S
C460 C461 1.170 . S
C461 C460 1.170 . S
C462 C463 1.170 . S
C462 C464 1.380 . S
C463 C462 1.170 . S
C464 C462 1.380 . S
C464 C465 1.170 . S
C465 C464 1.170 . S
C466 C467 1.170 . S
C466 C468 1.380 . S
C467 C466 1.170 . S
C468 C466 1.380 . S
C468 C469 1.170 . S
C469 C468 1.170 . S
C470 C471 1.170 . S
C470 C472 1.380 . S
C471 C470 1.170 . S
C472 C470 1.380 . S
C472 C473 1.170 . S
C473 C472 1.170 . S
C474 C475 1.170 . S
C474 C476 1.380 . S
C475 C474 1.170 . S
C476 C474 1.380 . S
C476 C477 1.170 . S
C477 C476 1.170 . S
C478 C479 1.170 . S
C478 C480 1.380 . S
C479 C478 1.170 . S
C480 C478 1.380 . S
C480 C481 1.170 . S
C481 C480 1.170 . S
C482 C483 1.170 . S
C482 C484 1.380 . S
C483 C482 1.170 . S
C484 C482 1.380 . S
C484 C485 1.170 . S
C485 C484 1.170 . S
C486 C487 1.170 . S
C486 C488 1.380 . S
C487 C486 1.170 . S
C488 C486 1.380 . S
C488 C489 1.170 . S
C489 C488 1.170 . S
C490 C491 1.170 . S
C490 C492 1.380 . S
C491 C490 1.170 . S
C492 C490 1.380 . S
C492 C493 1.170 . S
C493 C492 1.170 . S
C494 C495 1.170 . S
C494 C496 1.380 . S
C495 C494 1.170 . S
C496 C494 1.380 . S
C496 C497 1.170 . S
C497 C496 1.170 . S
C498 C499 1.170 . S
C498 C500 1.380 . S
C499 C498 1.170 . S
C500 C498 1.380 . S
C500 C501 1.170 . S
C501 C500 1.170 . S
C502 C503 1.170 . S
C502 C504 1.380 . S
C503 C502 1.170 . S
C504 C502 1.380 . S
C504 C505 1.170 . S
C505 C504 1.170 . S
C506 C507 1.170 . S
C506 C508 1.380 . S
C507 C506 1.170 . S
C508 C506 1.380 . S
C508 C509 1.170 . S
C509 C508 1.170 . S
C510 C511 1.170 . S
C510 C512 1.380 . S
C511 C510 1.170 . S
C512 C510 1.380 . S
C512 C513 1.170 . S
C513 C512 1.170 . S
C514 C515 1.170 . S
C514 C516 1.380 . S
C515 C514 1.170 . S
C516 C514 1.380 . S
C516 C517 1.170 . S
C517 C516 1.170 . S
C518 C519 1.170 . S
C518 C520 1.380 . S
C519 C518 1.170 . S
C520 C518 1.380 . S
C520 C521 1.170 . S
C521 C520 1.170 . S
C427 C7 1.877 . S
C429 C159 1.874 . S
C431 C30 1.644 . S
C433 C216 1.636 . S
C437 C270 1.744 . S
C435 N58 1.723 . S
C441 C327 1.440 . S
C439 N81 1.468 . S
C445 C351 1.761 . S
C443 C99 1.780 . S
C449 C408 1.568 . S
C447 N127 1.514 . S
C451 N25 1.749 . S
C453 C255 1.750 . S
C455 C62 1.632 . S
C457 C312 1.640 . S
C461 C366 1.803 . S
C459 C85 1.810 . S
C465 C423 1.528 . S
C463 N94 1.538 . S
C467 C131 1.833 . S
C469 C174 1.782 . S
C473 C231 1.437 . S
C471 N2 1.494 . S
C477 C318 1.820 . S
C475 C16 1.812 . S
C479 C39 1.590 . S
C481 C360 1.557 . S
C485 C399 1.704 . S
C483 N48 1.724 . S
C487 N71 1.423 . S
C489 C168 1.467 . S
C491 C108 1.754 . S
C493 C207 1.759 . S
C495 N117 1.492 . S
C497 C279 1.574 . S
C499 N35 1.708 . S
C501 C414 1.753 . S
C505 C183 1.625 . S
C503 C53 1.640 . S
C507 C76 1.847 . S
C509 C222 1.846 . S
C511 N104 1.498 . S
C513 C264 1.471 . S
C515 C122 1.767 . S
C517 C303 1.719 . S
C519 N12 1.444 . S
C521 C375 1.484 . S
