# Generated by pormake.
# Topology anh, (6,3)-cn, num edge types: 1
# Building blocks:
#     Node 0, Type 0, BuildingBlock: HISSIN_clean_sbu_0, # of connection points: 6
#     Node 1, Type 0, BuildingBlock: HISSIN_clean_sbu_0, # of connection points: 6
#     Node 2, Type 0, BuildingBlock: HISSIN_clean_sbu_0, # of connection points: 6
#     Node 3, Type 1, BuildingBlock: PAMTOO_clean_linker_0, # of connection points: 3
#     Node 4, Type 1, BuildingBlock: PAMTOO_clean_linker_0, # of connection points: 3
#     Node 5, Type 1, BuildingBlock: PAMTOO_clean_linker_0, # of connection points: 3
#     Node 6, Type 1, BuildingBlock: PAMTOO_clean_linker_0, # of connection points: 3
#     Node 7, Type 1, BuildingBlock: PAMTOO_clean_linker_0, # of connection points: 3
#     Node 8, Type 1, BuildingBlock: PAMTOO_clean_linker_0, # of connection points: 3
#     Edge 9, Type (0, 1), BuildingBlock: TEMPAE_clean_linker_10, # of connection points: 2
#     Edge 10, Type (0, 1), BuildingBlock: TEMPAE_clean_linker_10, # of connection points: 2
#     Edge 11, Type (0, 1), BuildingBlock: TEMPAE_clean_linker_10, # of connection points: 2
#     Edge 12, Type (0, 1), BuildingBlock: TEMPAE_clean_linker_10, # of connection points: 2
#     Edge 13, Type (0, 1), BuildingBlock: TEMPAE_clean_linker_10, # of connection points: 2
#     Edge 14, Type (0, 1), BuildingBlock: TEMPAE_clean_linker_10, # of connection points: 2
#     Edge 15, Type (0, 1), BuildingBlock: TEMPAE_clean_linker_10, # of connection points: 2
#     Edge 16, Type (0, 1), BuildingBlock: TEMPAE_clean_linker_10, # of connection points: 2
#     Edge 17, Type (0, 1), BuildingBlock: TEMPAE_clean_linker_10, # of connection points: 2
#     Edge 18, Type (0, 1), BuildingBlock: TEMPAE_clean_linker_10, # of connection points: 2
#     Edge 19, Type (0, 1), BuildingBlock: TEMPAE_clean_linker_10, # of connection points: 2
#     Edge 20, Type (0, 1), BuildingBlock: TEMPAE_clean_linker_10, # of connection points: 2
#     Edge 21, Type (0, 1), BuildingBlock: TEMPAE_clean_linker_10, # of connection points: 2
#     Edge 22, Type (0, 1), BuildingBlock: TEMPAE_clean_linker_10, # of connection points: 2
#     Edge 23, Type (0, 1), BuildingBlock: TEMPAE_clean_linker_10, # of connection points: 2
#     Edge 24, Type (0, 1), BuildingBlock: TEMPAE_clean_linker_10, # of connection points: 2
#     Edge 25, Type (0, 1), BuildingBlock: TEMPAE_clean_linker_10, # of connection points: 2
#     Edge 26, Type (0, 1), BuildingBlock: TEMPAE_clean_linker_10, # of connection points: 2
# Relax obj value: 0.246
# Max RMSD: 0.148
# Mean RMSD: 0.117
data_MOF--net-anh--node1-HISSIN_clean_sbu_0--node2-PAMTOO_clean_linker_0--edge1-TEMPAE_clean_linker_10
_symmetry_space_group_name_H-M    P1
_symmetry_Int_Tables_number       1
_symmetry_cell_setting            triclinic
loop_
_symmetry_equiv_pos_as_xyz
'x, y, z'
_cell_length_a     31.392715
_cell_length_b     31.553969
_cell_length_c     49.98265
_cell_angle_alpha  88.734055
_cell_angle_beta   92.646415
_cell_angle_gamma 119.87784
loop_
_atom_site_label
_atom_site_type_symbol
_atom_site_fract_x
_atom_site_fract_y
_atom_site_fract_z
_atom_type_partial_charge
Eu0 Eu 0.21389 0.53998 0.15888 0.0
Eu1 Eu 0.27015 0.65531 0.1729 0.0
C2 C 0.22263 0.57533 0.21989 0.0
C3 C 0.1113 0.41027 0.15339 0.0
C4 C 1.08924 0.41735 0.17531 0.0
C5 C 1.03278 0.34103 0.13926 0.0
C6 C 1.03924 0.38683 0.17905 0.0
C7 C 1.08305 0.37158 0.13559 0.0
C8 C 1.01029 0.34889 0.16081 0.0
C9 C 0.16163 0.44709 0.14713 0.0
O10 O 0.33433 0.63795 0.17202 0.0
O11 O 0.29457 0.55882 0.15652 0.0
C12 C 0.33591 0.599 0.16359 0.0
O13 O 0.23358 0.57802 0.11859 0.0
O14 O 0.32179 0.71437 0.19982 0.0
O15 O 0.27964 0.72797 0.16847 0.0
O16 O 0.28684 0.65818 0.12996 0.0
C17 C 0.26496 0.62341 0.1121 0.0
O18 O 0.15025 0.55569 0.16516 0.0
O19 O 0.19156 0.63834 0.15902 0.0
O20 O 0.2312 0.6175 0.21013 0.0
O21 O 0.16464 0.48176 0.13135 0.0
O22 O 0.19355 0.46409 0.16729 0.0
O23 O 0.22197 0.54201 0.20434 0.0
C24 C 0.35416 0.79666 0.18438 0.0
C25 C 0.36179 0.82072 0.15958 0.0
C26 C 0.41214 0.87375 0.20576 0.0
C27 C 0.39282 0.87129 0.15813 0.0
C28 C 0.38098 0.82326 0.20722 0.0
C29 C 0.41672 0.89852 0.18142 0.0
C30 C 0.31303 0.74662 0.18786 0.0
C31 C 0.14934 0.59683 0.16091 0.0
H32 H 0.11024 0.44772 0.18894 0.0
H33 H 1.01131 0.31197 0.12498 0.0
H34 H 1.02279 0.39441 0.19553 0.0
H35 H 1.09948 0.36612 0.11836 0.0
H36 H 0.34172 0.80104 0.14159 0.0
H37 H 0.42973 0.89375 0.22408 0.0
H38 H 0.39621 0.88944 0.13904 0.0
H39 H 0.3754 0.8055 0.22657 0.0
Eu40 Eu 0.72475 1.0614 0.49077 0.0
Eu41 Eu 0.66647 0.11578 0.50489 0.0
C42 C 0.70619 0.07446 0.55154 0.0
C43 C 0.74569 0.96174 0.46865 0.0
C44 C 0.69534 0.9357 0.46163 0.0
C45 C 0.74886 0.88675 0.46655 0.0
C46 C 0.67134 0.88515 0.45849 0.0
C47 C 0.77275 0.93742 0.47012 0.0
C48 C 0.69743 0.85974 0.46206 0.0
C49 C 0.76739 1.01197 0.47843 0.0
O50 O 0.74849 0.17956 0.50566 0.0
O51 O 0.78477 0.14191 0.48533 0.0
C52 C 0.78768 0.18229 0.49462 0.0
O53 O 0.68274 1.06266 0.45277 0.0
O54 O 0.65791 0.16852 0.52869 0.0
O55 O 0.6018 0.12304 0.49875 0.0
O56 O 0.68406 0.13325 0.4621 0.0
C57 C 0.67855 0.10038 0.44483 0.0
O58 O 0.64651 0.99597 0.49673 0.0
O59 O 0.60369 1.03702 0.494 0.0
O60 O 0.66717 0.07516 0.54209 0.0
O61 O 0.7634 1.04277 0.46214 0.0
O62 O 0.75581 1.01534 0.50271 0.0
O63 O 0.74059 0.08073 0.5353 0.0
C64 C 0.60908 0.19933 0.50771 0.0
C65 C 0.60667 0.21081 0.48053 0.0
C66 C 0.5795 0.25377 0.51961 0.0
C67 C 0.58895 0.24232 0.47291 0.0
C68 C 0.597 0.22228 0.52717 0.0
C69 C 0.57371 0.26289 0.49236 0.0
C70 C 0.61668 0.15857 0.51596 0.0
C71 C 0.6038 0.99497 0.49446 0.0
H72 H 0.6739 0.95401 0.46035 0.0
H73 H 0.77023 0.86844 0.46885 0.0
H74 H 0.63174 0.86587 0.45538 0.0
H75 H 0.81172 0.95712 0.47547 0.0
H76 H 0.61604 0.19354 0.46515 0.0
H77 H 0.56743 0.26835 0.53513 0.0
H78 H 0.58537 0.24905 0.45181 0.0
H79 H 0.5983 0.21359 0.54819 0.0
Eu80 Eu 0.60767 0.5359 0.83987 0.0
Eu81 Eu 0.71853 0.59038 0.82211 0.0
C82 C 0.69299 0.57319 0.88426 0.0
C83 C 0.48366 0.51882 0.85035 0.0
C84 C 0.47815 0.53821 0.82568 0.0
C85 C 0.44427 0.55776 0.872 0.0
C86 C 0.45731 0.56834 0.82438 0.0
C87 C 0.46463 0.52715 0.87325 0.0
C88 C 0.44228 0.58033 0.84775 0.0
C89 C 0.51689 0.49842 0.85343 0.0
O90 O 0.70413 0.51151 0.82863 0.0
O91 O 0.61991 0.47108 0.82877 0.0
C92 C 0.66165 0.46977 0.82781 0.0
O93 O 0.60699 0.56126 0.79787 0.0
O94 O 0.79656 0.62576 0.83261 0.0
O95 O 0.77276 0.62311 0.791 0.0
O96 O 0.67036 0.55222 0.78544 0.0
C97 C 0.63082 0.55489 0.77919 0.0
O98 O 0.63033 0.6186 0.84205 0.0
O99 O 0.69835 0.65142 0.81672 0.0
O100 O 0.72056 0.6057 0.86663 0.0
O101 O 0.52932 0.4861 0.83152 0.0
O102 O 0.55451 0.52265 0.87002 0.0
O103 O 0.6516 0.53523 0.87632 0.0
C104 C 0.84791 0.62418 0.80051 0.0
C105 C 0.84594 0.58034 0.80851 0.0
C106 C 0.93143 0.65575 0.78691 0.0
C107 C 0.88748 0.57522 0.80688 0.0
C108 C 0.88998 0.66084 0.78861 0.0
C109 C 0.93139 0.61391 0.79725 0.0
C110 C 0.80988 0.63525 0.8079 0.0
C111 C 0.66427 0.65643 0.82864 0.0
H112 H 0.49259 0.53261 0.80765 0.0
H113 H 0.43341 0.56641 0.89043 0.0
H114 H 0.45532 0.58427 0.80527 0.0
H115 H 0.46878 0.51288 0.89251 0.0
H116 H 0.81347 0.55147 0.8176 0.0
H117 H 0.96475 0.68642 0.77965 0.0
H118 H 0.8863 0.5424 0.81475 0.0
H119 H 0.892 0.69488 0.78234 0.0
H120 H 0.6891 0.18407 0.23984 0.0
H121 H 0.58099 0.21468 0.27004 0.0
H122 H 0.65154 0.28161 0.19714 0.0
H123 H 0.55223 0.27962 0.19568 0.0
C124 C 0.54294 0.25568 0.21363 0.0
O125 O 0.5849 0.27167 0.23017 0.0
H126 H 0.51529 0.26024 0.22439 0.0
C127 C 0.66683 0.20147 0.2376 0.0
C128 C 0.67367 0.23272 0.21581 0.0
C129 C 0.63455 0.19555 0.25771 0.0
C130 C 0.60612 0.21859 0.25478 0.0
C131 C 0.61212 0.24924 0.23283 0.0
C132 C 0.64645 0.25698 0.2137 0.0
H133 H 0.52439 0.58641 0.58 0.0
H134 H 0.43369 0.43239 0.59588 0.0
H135 H 0.44883 0.48541 0.51544 0.0
H136 H 0.3619 0.41715 0.51984 0.0
C137 C 0.36807 0.38831 0.52936 0.0
O138 O 0.40944 0.40784 0.54631 0.0
H139 H 0.33519 0.36379 0.54088 0.0
C140 C 0.4992 0.54947 0.5732 0.0
C141 C 0.48752 0.54074 0.54569 0.0
C142 C 0.48142 0.51065 0.59165 0.0
C143 C 0.44727 0.46334 0.5824 0.0
C144 C 0.43489 0.45446 0.55505 0.0
C145 C 0.45642 0.49287 0.53669 0.0
H146 H 0.23283 0.68164 0.90537 0.0
H147 H 0.36635 0.80814 0.93391 0.0
H148 H 0.29433 0.81574 0.86046 0.0
H149 H 0.44398 0.90637 0.88571 0.0
C150 C 0.40965 0.87748 0.8757 0.0
O151 O 0.3712 0.86336 0.89283 0.0
H152 H 0.40251 0.89425 0.85751 0.0
C153 C 0.26188 0.71907 0.90265 0.0
C154 C 0.25976 0.74544 0.88017 0.0
C155 C 0.29943 0.7416 0.92254 0.0
C156 C 0.33686 0.79016 0.91889 0.0
C157 C 0.33491 0.81667 0.89646 0.0
C158 C 0.29579 0.7947 0.87755 0.0
H159 H 1.10128 0.47809 0.4199 0.0
H160 H 0.24118 0.6099 0.42719 0.0
H161 H 0.15528 0.54845 0.49719 0.0
H162 H 0.23946 0.67958 0.49371 0.0
C163 C 0.25822 0.67284 0.4774 0.0
O164 O 0.24405 0.62252 0.47803 0.0
H165 H 0.24316 0.68064 0.45853 0.0
C166 C 0.12844 0.50776 0.43238 0.0
C167 C 0.12038 0.50763 0.46 0.0
C168 C 0.17125 0.5441 0.42037 0.0
C169 C 0.20824 0.58187 0.43632 0.0
C170 C 0.20375 0.58519 0.46386 0.0
C171 C 0.15932 0.54723 0.47588 0.0
H172 H 0.67757 0.97103 0.75411 0.0
H173 H 0.69281 0.1138 0.76005 0.0
H174 H 0.66178 1.02281 0.83031 0.0
H175 H 0.61331 0.10525 0.82414 0.0
C176 C 0.64035 0.12628 0.80868 0.0
O177 O 0.67705 0.11237 0.8102 0.0
H178 H 0.61941 0.11375 0.78918 0.0
C179 C 0.67742 0.999 0.76619 0.0
C180 C 0.66907 0.98988 0.79379 0.0
C181 C 0.68579 1.04292 0.75366 0.0
C182 C 0.68505 0.07937 0.76918 0.0
C183 C 0.67513 0.07309 0.79654 0.0
C184 C 0.66796 1.028 0.80907 0.0
H185 H 0.83773 0.60589 0.08428 0.0
H186 H 0.69687 0.59386 0.09298 0.0
H187 H 0.78033 0.59053 0.16321 0.0
H188 H 0.69886 0.65392 0.13364 0.0
C189 C 0.68196 0.62468 0.14897 0.0
O190 O 0.69434 0.58808 0.14425 0.0
H191 H 0.69999 0.64252 0.16837 0.0
C192 C 0.80903 0.60099 0.09733 0.0
C193 C 0.8153 0.59615 0.12524 0.0
C194 C 0.76683 0.59979 0.08548 0.0
C195 C 0.73007 0.59624 0.10196 0.0
C196 C 0.7343 0.5945 0.12995 0.0
C197 C 0.77741 0.59419 0.14173 0.0
C198 C 0.43164 0.64254 0.16682 0.0
C199 C 0.38566 0.60001 0.16163 0.0
C200 C 0.47762 0.64364 0.16453 0.0
C201 C 0.47947 0.60119 0.15692 0.0
C202 C 0.43319 0.55813 0.1518 0.0
C203 C 0.38781 0.5581 0.15409 0.0
C204 C 0.52471 0.69086 0.1702 0.0
C205 C 0.43147 0.5115 0.14379 0.0
C206 C 0.60084 0.61694 0.12759 0.0
C207 C 0.6256 0.60862 0.14968 0.0
C208 C 0.5539 0.61381 0.1295 0.0
C209 C 0.52924 0.60194 0.15418 0.0
C210 C 0.55319 0.59166 0.17629 0.0
C211 C 0.60026 0.59524 0.17385 0.0
C212 C 0.53142 0.62514 0.10505 0.0
C213 C 0.52972 0.57836 0.20309 0.0
H214 H 0.43188 0.67556 0.17257 0.0
H215 H 0.35355 0.52462 0.1499 0.0
H216 H 0.54642 0.68545 0.18669 0.0
H217 H 0.54741 0.70226 0.15226 0.0
H218 H 0.51799 0.72082 0.17585 0.0
H219 H 0.39323 0.48076 0.14081 0.0
H220 H 0.45097 0.51728 0.12494 0.0
H221 H 0.45077 0.50099 0.15941 0.0
H222 H 0.61939 0.62823 0.10883 0.0
H223 H 0.61838 0.58955 0.1914 0.0
H224 H 0.5289 0.65835 0.10877 0.0
H225 H 0.49346 0.59472 0.1009 0.0
H226 H 0.55315 0.63133 0.087 0.0
H227 H 0.52755 0.60974 0.21105 0.0
H228 H 0.55059 0.56829 0.21794 0.0
H229 H 0.49156 0.54728 0.20084 0.0
C230 C 0.84503 0.27596 0.50374 0.0
C231 C 0.83663 0.23175 0.49213 0.0
C232 C 0.89033 0.32146 0.50118 0.0
C233 C 0.92979 0.3248 0.48631 0.0
C234 C 0.92145 0.28028 0.47462 0.0
C235 C 0.87614 0.23531 0.47773 0.0
C236 C 0.89586 0.36643 0.51445 0.0
C237 C 0.96056 0.28014 0.45828 0.0
C238 C 1.02664 0.44874 0.45412 0.0
C239 C 1.0707 0.46495 0.47001 0.0
C240 C 0.98167 0.40493 0.45942 0.0
C241 C 0.97813 0.3745 0.48168 0.0
C242 C 1.02174 0.39144 0.49858 0.0
C243 C 1.06675 0.4356 0.49264 0.0
C244 C 0.93789 0.39037 0.44038 0.0
C245 C 1.02132 0.36197 0.52278 0.0
H246 H 0.81598 0.27515 0.51502 0.0
H247 H 0.87157 0.20256 0.4684 0.0
H248 H 0.92966 0.38329 0.52763 0.0
H249 H 0.89998 0.39389 0.49901 0.0
H250 H 0.86384 0.35824 0.52656 0.0
H251 H 0.94976 0.24309 0.45082 0.0
H252 H 0.96811 0.30496 0.44086 0.0
H253 H 0.99536 0.29417 0.4705 0.0
H254 H 1.02749 0.47017 0.4367 0.0
H255 H 1.09946 0.44604 0.50526 0.0
H256 H 0.90582 0.38507 0.45151 0.0
H257 H 0.9275 0.35497 0.43076 0.0
H258 H 0.94527 0.41802 0.42445 0.0
H259 H 0.98968 0.35384 0.53517 0.0
H260 H 1.05577 0.38119 0.53536 0.0
H261 H 1.01666 0.32647 0.51625 0.0
C262 C 0.69613 0.74382 0.80933 0.0
C263 C 0.66405 0.70566 0.82628 0.0
C264 C 0.69621 0.78922 0.80635 0.0
C265 C 0.66359 0.79893 0.82062 0.0
C266 C 0.63146 0.76075 0.83807 0.0
C267 C 0.63199 0.7155 0.84056 0.0
C268 C 0.73152 0.82713 0.78751 0.0
C269 C 0.59659 0.76734 0.85491 0.0
C270 C 0.68986 0.93523 0.82619 0.0
C271 C 0.66208 0.93988 0.80437 0.0
C272 C 0.68982 0.89019 0.83207 0.0
C273 C 0.66154 0.84725 0.81597 0.0
C274 C 0.63212 0.85145 0.79462 0.0
C275 C 0.63274 0.8965 0.78929 0.0
C276 C 0.72155 0.88898 0.85525 0.0
C277 C 0.60117 0.80901 0.77604 0.0
H278 H 0.7214 0.73812 0.79795 0.0
H279 H 0.60695 0.68765 0.85398 0.0
H280 H 0.71059 0.83265 0.77062 0.0
H281 H 0.75339 0.86269 0.79804 0.0
H282 H 0.75709 0.81648 0.77924 0.0
H283 H 0.56208 0.73208 0.85747 0.0
H284 H 0.61411 0.78017 0.87512 0.0
H285 H 0.58735 0.79461 0.84637 0.0
H286 H 0.71347 0.96746 0.8381 0.0
H287 H 0.61071 0.898 0.77234 0.0
H288 H 0.74909 0.88021 0.84787 0.0
H289 H 0.69853 0.85963 0.8694 0.0
H290 H 0.74112 0.92429 0.86623 0.0
H291 H 0.58963 0.7732 0.78578 0.0
H292 H 0.62298 0.81186 0.75855 0.0
H293 H 0.56782 0.80988 0.76838 0.0
C294 C 1.05516 0.55648 0.16687 0.0
C295 C 1.09964 0.59636 0.15814 0.0
C296 C 1.00899 0.55564 0.16441 0.0
C297 C 1.00515 0.59503 0.15214 0.0
C298 C 1.04992 0.63525 0.14319 0.0
C299 C 1.0958 0.63572 0.14657 0.0
C300 C 0.96394 0.51205 0.17505 0.0
C301 C 1.04927 0.6778 0.12927 0.0
C302 C 0.87928 0.56885 0.1183 0.0
C303 C 0.8612 0.59197 0.13485 0.0
C304 C 0.92483 0.56981 0.12362 0.0
C305 C 0.95456 0.5928 0.14698 0.0
C306 C 0.93558 0.61392 0.16472 0.0
C307 C 0.89011 0.61367 0.15847 0.0
C308 C 0.94178 0.54698 0.10349 0.0
C309 C 0.96383 0.63758 0.19039 0.0
H310 H 1.05636 0.52559 0.17599 0.0
H311 H 0.12888 0.66695 0.13949 0.0
H312 H 0.94434 0.52428 0.18802 0.0
H313 H 0.93819 0.49114 0.15819 0.0
H314 H 0.97312 0.48708 0.18672 0.0
H315 H 1.08645 0.70645 0.12341 0.0
H316 H 1.0247 0.66475 0.11101 0.0
H317 H 1.03424 0.69446 0.14254 0.0
H318 H 0.85782 0.55002 0.10045 0.0
H319 H 0.87795 0.63169 0.17186 0.0
H320 H 0.94557 0.51687 0.11297 0.0
H321 H 0.97854 0.57454 0.09654 0.0
H322 H 0.916 0.53215 0.08576 0.0
H323 H 0.97357 0.61254 0.2015 0.0
H324 H 0.94267 0.64767 0.20353 0.0
H325 H 0.99871 0.6711 0.18576 0.0
C326 C 0.5536 0.89994 0.49107 0.0
C327 C 0.55478 0.94536 0.4921 0.0
C328 C 0.5086 0.85391 0.48872 0.0
C329 C 0.46176 0.85131 0.48741 0.0
C330 C 0.46277 0.89705 0.48844 0.0
C331 C 0.50828 0.94255 0.49068 0.0
C332 C 0.51141 0.80767 0.48768 0.0
C333 C 0.41523 0.89806 0.4871 0.0
C334 C 0.34192 0.73727 0.45746 0.0
C335 C 0.31502 0.71206 0.48011 0.0
C336 C 0.38924 0.78083 0.45951 0.0
C337 C 0.41219 0.80158 0.48491 0.0
C338 C 0.38615 0.77514 0.50786 0.0
C339 C 0.33877 0.7317 0.50523 0.0
C340 C 0.41392 0.80591 0.43413 0.0
C341 C 0.40764 0.79389 0.53553 0.0
H342 H 0.58826 0.90017 0.49203 0.0
H343 H 0.50725 0.97631 0.49136 0.0
H344 H 0.49299 0.78426 0.50511 0.0
H345 H 0.49165 0.78656 0.46935 0.0
H346 H 0.54994 0.8151 0.48786 0.0
H347 H 0.42126 0.93581 0.48808 0.0
H348 H 0.39422 0.88074 0.46821 0.0
H349 H 0.39215 0.87654 0.50389 0.0
H350 H 0.32476 0.72413 0.43781 0.0
H351 H 0.31911 0.71423 0.52311 0.0
H352 H 0.45212 0.8125 0.43456 0.0
H353 H 0.41613 0.84208 0.4326 0.0
H354 H 0.39386 0.78425 0.41596 0.0
H355 H 0.44563 0.79999 0.53763 0.0
H356 H 0.38538 0.76827 0.55144 0.0
H357 H 0.40985 0.82964 0.53869 0.0
C358 C 0.70548 0.41838 0.82523 0.0
C359 C 0.66137 0.42041 0.82548 0.0
C360 C 0.70624 0.37344 0.8229 0.0
C361 C 0.66186 0.32739 0.82055 0.0
C362 C 0.61721 0.32916 0.82076 0.0
C363 C 0.61748 0.37465 0.82322 0.0
C364 C 0.75522 0.37542 0.82297 0.0
C365 C 0.56849 0.28248 0.81827 0.0
C366 C 0.65956 0.21192 0.7898 0.0
C367 C 0.65669 0.18234 0.81215 0.0
C368 C 0.66222 0.25851 0.79221 0.0
C369 C 0.66206 0.27802 0.81773 0.0
C370 C 0.66102 0.24917 0.84043 0.0
C371 C 0.65819 0.20257 0.83743 0.0
C372 C 0.66331 0.28619 0.76705 0.0
C373 C 0.66115 0.26681 0.86822 0.0
H374 H 0.7401 0.45239 0.82688 0.0
H375 H 0.58276 0.37422 0.82325 0.0
H376 H 0.75787 0.35302 0.83969 0.0
H377 H 0.75848 0.35958 0.8041 0.0
H378 H 0.78662 0.41332 0.82507 0.0
H379 H 0.53686 0.289 0.81868 0.0
H380 H 0.566 0.26375 0.79925 0.0
H381 H 0.56555 0.25734 0.83486 0.0
H382 H 0.65741 0.19748 0.77 0.0
H383 H 0.65491 0.18076 0.85509 0.0
H384 H 0.69494 0.32401 0.76822 0.0
H385 H 0.62939 0.28889 0.76505 0.0
H386 H 0.666 0.26833 0.74881 0.0
H387 H 0.69253 0.30442 0.87126 0.0
H388 H 0.66362 0.2427 0.884 0.0
H389 H 0.62697 0.2683 0.87065 0.0
C390 C 0.68442 0.78461 0.48649 0.0
C391 C 0.66991 0.8058 0.46564 0.0
C392 C 0.65333 0.73649 0.49464 0.0
C393 C 0.60631 0.70899 0.48184 0.0
C394 C 0.59309 0.72849 0.4593 0.0
C395 C 0.62525 0.77666 0.45134 0.0
C396 C 0.6691 0.71679 0.51859 0.0
C397 C 0.54344 0.7002 0.445 0.0
C398 C 0.53626 0.57729 0.50489 0.0
C399 C 0.51152 0.58141 0.52647 0.0
C400 C 0.56511 0.61797 0.4889 0.0
C401 C 0.56908 0.6635 0.49475 0.0
C402 C 0.54151 0.66689 0.51541 0.0
C403 C 0.51316 0.62579 0.53108 0.0
C404 C 0.59366 0.61291 0.46692 0.0
C405 C 0.54414 0.71465 0.52199 0.0
H406 H 0.71848 0.80666 0.49792 0.0
H407 H 0.61417 0.79233 0.43482 0.0
H408 H 0.6478 0.71515 0.53608 0.0
H409 H 0.66142 0.67913 0.51464 0.0
H410 H 0.70886 0.74001 0.52399 0.0
H411 H 0.54305 0.71541 0.42478 0.0
H412 H 0.53245 0.66109 0.44295 0.0
H413 H 0.51542 0.70212 0.45686 0.0
H414 H 0.53514 0.54296 0.50137 0.0
H415 H 0.49339 0.62868 0.54752 0.0
H416 H 0.63311 0.6305 0.47332 0.0
H417 H 0.5909 0.63173 0.44846 0.0
H418 H 0.58054 0.57401 0.4621 0.0
H419 H 0.58143 0.74074 0.53033 0.0
H420 H 0.5168 0.71003 0.53679 0.0
H421 H 0.53772 0.73119 0.50357 0.0
C422 C 1.01658 0.63652 0.78456 0.0
C423 C 0.979 0.61562 0.80294 0.0
C424 C 1.0654 0.65112 0.79263 0.0
C425 C 1.07663 0.64526 0.81973 0.0
C426 C 1.03812 0.61949 0.83754 0.0
C427 C 0.98971 0.60478 0.82888 0.0
C428 C 1.1053 0.67679 0.77281 0.0
C429 C 1.04843 0.61233 0.86662 0.0
C430 C 0.2017 0.67636 0.85014 0.0
C431 C 0.21715 0.72263 0.86099 0.0
C432 C 0.1575 0.6518 0.83478 0.0
C433 C 0.12784 0.67372 0.83087 0.0
C434 C 0.14474 0.72156 0.84064 0.0
C435 C 0.18941 0.74555 0.85542 0.0
C436 C 0.14148 0.60152 0.82403 0.0
C437 C 0.11411 0.74621 0.83708 0.0
H438 H 1.00829 0.64422 0.76435 0.0
H439 H 0.96098 0.58891 0.84326 0.0
H440 H 0.12337 0.71686 0.77593 0.0
H441 H 0.13391 0.66605 0.77573 0.0
H442 H 1.09028 0.66866 0.75182 0.0
H443 H 1.01441 0.58645 0.87689 0.0
H444 H 1.07464 0.59842 0.86847 0.0
H445 H 1.06558 0.64801 0.87718 0.0
H446 H 0.22363 0.65894 0.85423 0.0
H447 H 0.20129 0.78122 0.86396 0.0
H448 H 0.124 0.59654 0.80367 0.0
H449 H 0.11387 0.57358 0.83724 0.0
H450 H 0.17289 0.59472 0.82327 0.0
H451 H 1.10356 0.74656 0.81563 0.0
H452 H 0.13382 0.78444 0.8446 0.0
H453 H 1.07969 0.72542 0.84807 0.0
C454 C 0.41529 0.97469 0.16891 0.0
C455 C 0.44029 0.95257 0.18127 0.0
C456 C 0.43265 1.02476 0.17192 0.0
C457 C 0.47624 1.05346 0.18754 0.0
C458 C 0.50308 1.03194 0.19897 0.0
C459 C 0.48458 0.98156 0.19582 0.0
C460 C 0.40287 1.04638 0.15961 0.0
C461 C 0.5502 1.06173 0.21541 0.0
C462 C 0.53715 0.19143 0.18218 0.0
C463 C 0.52115 0.20292 0.20522 0.0
C464 C 0.52298 0.14289 0.17615 0.0
C465 C 0.49171 0.10512 0.19347 0.0
C466 C 0.47485 0.11655 0.21657 0.0
C467 C 0.49016 0.16548 0.22228 0.0
C468 C 0.5425 0.13216 0.15169 0.0
C469 C 0.44142 0.07722 0.23551 0.0
H470 H 0.38063 0.95234 0.15802 0.0
H471 H 0.50413 0.96459 0.20525 0.0
H472 H 0.38794 1.05826 0.17572 0.0
H473 H 0.42652 0.0792 0.14762 0.0
H474 H 0.3717 1.01991 0.14652 0.0
H475 H 0.56903 1.04061 0.22072 0.0
H476 H 0.57579 0.09505 0.20433 0.0
H477 H 0.54212 0.07398 0.2342 0.0
H478 H 0.56211 0.22072 0.16939 0.0
H479 H 0.47887 0.17471 0.2404 0.0
H480 H 0.51163 0.10555 0.13854 0.0
H481 H 0.56508 0.11525 0.15785 0.0
H482 H 0.56544 0.16562 0.1399 0.0
H483 H 0.40796 1.04937 0.22441 0.0
H484 H 0.43003 0.09212 0.25194 0.0
H485 H 0.46043 1.05835 0.24451 0.0
C486 C 0.50789 0.26884 0.46505 0.0
C487 C 0.54615 0.28856 0.48476 0.0
C488 C 0.4734 0.28485 0.46256 0.0
C489 C 0.47685 0.32042 0.48059 0.0
C490 C 0.51839 0.34405 0.4985 0.0
C491 C 0.55282 0.32816 0.50011 0.0
C492 C 0.4312 0.26062 0.44221 0.0
C493 C 0.52409 0.38284 0.51788 0.0
C494 C 0.405 0.3853 0.48661 0.0
C495 C 0.37699 0.3603 0.50863 0.0
C496 C 0.43324 0.36874 0.47422 0.0
C497 C 0.43397 0.32705 0.48464 0.0
C498 C 0.40022 0.29801 0.50422 0.0
C499 C 0.37189 0.31501 0.51593 0.0
C500 C 0.46665 0.39924 0.45236 0.0
C501 C 0.39915 0.2528 0.51567 0.0
H502 H 0.50258 0.23841 0.45291 0.0
H503 H 0.58323 0.34449 0.51477 0.0
H504 H 0.4 0.22865 0.45151 0.0
H505 H 0.41827 0.28597 0.435 0.0
H506 H 0.44186 0.24725 0.42476 0.0
H507 H 0.55996 0.39954 0.52931 0.0
H508 H 0.52097 0.41227 0.50705 0.0
H509 H 0.49427 0.36649 0.53238 0.0
H510 H 0.4088 0.4203 0.48085 0.0
H511 H 0.35036 0.29586 0.53304 0.0
H512 H 0.47292 0.37637 0.43828 0.0
H513 H 0.50278 0.42658 0.46143 0.0
H514 H 0.45112 0.41939 0.44096 0.0
H515 H 0.39814 0.22895 0.49942 0.0
H516 H 0.36691 0.23131 0.52823 0.0
H517 H 0.43309 0.26365 0.52826 0.0
C518 C 0.39439 0.61876 0.86372 0.0
C519 C 0.43076 0.62071 0.84757 0.0
C520 C 0.38814 0.65954 0.86634 0.0
C521 C 0.41905 0.70317 0.85251 0.0
C522 C 0.45401 0.70458 0.83516 0.0
C523 C 0.45956 0.66344 0.83295 0.0
C524 C 0.34977 0.65658 0.88466 0.0
C525 C 0.48669 0.75014 0.81957 0.0
C526 C 0.38858 0.80523 0.84622 0.0
C527 C 0.41654 0.83533 0.86781 0.0
C528 C 0.38825 0.76154 0.84121 0.0
C529 C 0.41774 0.74858 0.85776 0.0
C530 C 0.44717 0.77965 0.87913 0.0
C531 C 0.44562 0.82237 0.88415 0.0
C532 C 0.35506 0.72854 0.81887 0.0
C533 C 0.47998 0.76756 0.89682 0.0
H534 H 0.37147 0.58566 0.87474 0.0
H535 H 0.48822 0.6657 0.8207 0.0
H536 H 0.36808 0.68051 0.90234 0.0
H537 H 0.32672 0.66992 0.87424 0.0
H538 H 0.32548 0.61875 0.89183 0.0
H539 H 0.51428 0.74622 0.80844 0.0
H540 H 0.46401 0.75827 0.80499 0.0
H541 H 0.50614 0.78204 0.83321 0.0
H542 H 0.36539 0.815 0.83395 0.0
H543 H 0.46648 0.84532 0.9011 0.0
H544 H 0.32645 0.69365 0.82743 0.0
H545 H 0.37628 0.71948 0.80524 0.0
H546 H 0.33651 0.7453 0.80696 0.0
H547 H 0.45748 0.73233 0.90721 0.0
H548 H 0.50147 0.79623 0.91213 0.0
H549 H 0.50599 0.7632 0.88442 0.0
C550 C 0.92446 0.3134 0.14128 0.0
C551 C 0.95635 0.32046 0.16347 0.0
C552 C 0.87383 0.29365 0.14442 0.0
C553 C 0.85507 0.28114 0.17036 0.0
C554 C 0.88669 0.28534 0.19254 0.0
C555 C 0.93693 0.3048 0.18879 0.0
C556 C 0.84111 0.28899 0.12026 0.0
C557 C 0.86803 0.27201 0.22055 0.0
C558 C 0.74935 0.29365 0.19344 0.0
C559 C 0.71418 0.24466 0.19774 0.0
C560 C 0.7942 0.30609 0.18227 0.0
C561 C 0.80381 0.26852 0.1752 0.0
C562 C 0.76648 0.21901 0.17698 0.0
C563 C 0.722 0.20762 0.18836 0.0
C564 C 0.83299 0.3594 0.18049 0.0
C565 C 0.77495 0.178 0.16906 0.0
H566 H 0.93937 0.32571 0.12166 0.0
H567 H 0.96143 0.30943 0.20589 0.0
H568 H 0.80592 0.25384 0.12063 0.0
H569 H 0.83215 0.31883 0.12054 0.0
H570 H 0.85914 0.29142 0.10123 0.0
H571 H 0.89678 0.27445 0.23528 0.0
H572 H 0.85517 0.29701 0.22706 0.0
H573 H 0.83622 0.23431 0.22092 0.0
H574 H 0.74351 0.32238 0.20077 0.0
H575 H 0.6944 0.16968 0.19129 0.0
H576 H 0.85017 0.3676 0.16075 0.0
H577 H 0.86249 0.36783 0.19608 0.0
H578 H 0.81773 0.38395 0.1835 0.0
H579 H 0.79474 0.18669 0.15012 0.0
H580 H 0.73985 0.14288 0.16658 0.0
H581 H 0.79814 0.1731 0.18486 0.0
C582 C 0.26228 0.60117 0.06384 0.0
C583 C 0.27458 0.63685 0.08354 0.0
C584 C 0.26943 0.61403 0.03662 0.0
C585 C 0.28832 0.66351 0.02899 0.0
C586 C 0.30182 0.69972 0.04888 0.0
C587 C 0.29519 0.68602 0.07587 0.0
C588 C 0.25555 0.57458 0.01599 0.0
C589 C 0.32128 0.75279 0.04161 0.0
C590 C 0.33639 0.7154 0.96048 0.0
C591 C 0.29579 0.71656 0.94844 0.0
C592 C 0.3337 0.69541 0.9862 0.0
C593 C 0.28977 0.67733 0.00027 0.0
C594 C 0.24828 0.67708 0.98776 0.0
C595 C 0.25174 0.69642 0.96196 0.0
C596 C 0.37834 0.69533 -0.00132 0.0
C597 C 0.201 0.65893 0.00217 0.0
H598 H 0.24682 0.56318 0.06964 0.0
H599 H 0.3047 0.71388 0.09093 0.0
H600 H 0.2229 0.56951 0.0038 0.0
H601 H 0.2859 0.58545 0.00211 0.0
H602 H 0.24683 0.53901 0.02531 0.0
H603 H 0.33209 0.7767 0.05954 0.0
H604 H 0.35366 0.766 0.029 0.0
H605 H 0.2927 0.75668 0.02969 0.0
H606 H 0.37034 0.73065 0.94992 0.0
H607 H 0.22048 0.69785 0.95281 0.0
H608 H 0.36789 0.65907 0.00758 0.0
H609 H 0.3944 0.72261 0.01511 0.0
H610 H 0.40705 0.70438 0.98391 0.0
H611 H 0.18818 0.62152 0.01001 0.0
H612 H 0.17122 0.65837 0.98901 0.0
H613 H 0.20753 0.68295 0.01959 0.0
C614 C 0.66012 0.14616 0.40929 0.0
C615 C 0.66612 0.10614 0.41652 0.0
C616 C 0.64986 0.15394 0.3827 0.0
C617 C 0.64535 0.12086 0.36264 0.0
C618 C 0.64962 0.07939 0.36981 0.0
C619 C 0.6601 0.07253 0.39673 0.0
C620 C 0.6458 0.19877 0.37596 0.0
C621 C 0.64465 1.04319 0.34895 0.0
C622 C 0.59276 0.13913 0.29618 0.0
C623 C 0.63592 0.17102 0.28317 0.0
C624 C 0.59495 0.11974 0.3215 0.0
C625 C 0.64135 0.13308 0.33407 0.0
C626 C 0.68483 0.16364 0.32047 0.0
C627 C 0.68157 0.18225 0.29528 0.0
C628 C 0.54778 0.08689 0.3353 0.0
C629 C 0.73508 0.17922 0.33321 0.0
H630 H 0.66418 0.17217 0.42441 0.0
H631 H 0.66423 1.04129 0.40218 0.0
H632 H 0.67651 0.22379 0.36327 0.0
H633 H 0.61102 0.18836 0.36434 0.0
H634 H 0.64697 0.21906 0.39413 0.0
H635 H 0.64351 1.01022 0.35807 0.0
H636 H 0.61078 1.03164 0.33621 0.0
H637 H 0.67626 1.06073 0.33565 0.0
H638 H 0.55741 0.13001 0.28676 0.0
H639 H 0.71514 0.20755 0.28558 0.0
H640 H 0.54402 0.10691 0.35216 0.0
H641 H 0.54837 1.05441 0.34384 0.0
H642 H 0.51501 0.0744 0.32147 0.0
H643 H 0.74184 0.20346 0.35055 0.0
H644 H 0.76494 0.1992 0.31899 0.0
H645 H 0.73708 0.14698 0.34087 0.0
C646 C 0.61573 0.51907 0.73331 0.0
C647 C 0.61202 0.55038 0.75126 0.0
C648 C 0.59392 0.5117 0.70738 0.0
C649 C 0.5693 0.53747 0.69914 0.0
C650 C 0.56687 0.57027 0.71702 0.0
C651 C 0.58763 0.57575 0.74301 0.0
C652 C 0.59625 0.47561 0.68903 0.0
C653 C 0.54242 0.59963 0.70872 0.0
C654 C 0.55309 0.55253 0.62457 0.0
C655 C 0.50298 0.51869 0.61958 0.0
C656 C 0.57487 0.55943 0.65038 0.0
C657 C 0.54643 0.53064 0.67172 0.0
C658 C 0.49608 0.49603 0.66694 0.0
C659 C 0.47479 0.49093 0.64101 0.0
C660 C 0.62842 0.59751 0.65479 0.0
C661 C 0.46481 0.46409 0.68917 0.0
H662 H 0.63416 0.4991 0.73984 0.0
H663 H 0.58508 0.60024 0.7569 0.0
H664 H 0.55847 0.44684 0.68287 0.0
H665 H 0.61513 0.49425 0.67055 0.0
H666 H 0.61594 0.45785 0.69868 0.0
H667 H 0.5453 0.62488 0.72475 0.0
H668 H 0.55945 0.62141 0.69057 0.0
H669 H 0.50295 0.57475 0.70349 0.0
H670 H 0.57589 0.57321 0.6082 0.0
H671 H 0.43604 0.46504 0.63756 0.0
H672 H 0.64977 0.57979 0.66188 0.0
H673 H 0.63247 0.62362 0.67056 0.0
H674 H 0.64483 0.6184 0.63628 0.0
H675 H 0.48184 0.44365 0.69862 0.0
H676 H 0.42683 0.43748 0.68193 0.0
H677 H 0.46276 0.48708 0.70497 0.0
C678 C 0.75159 0.10025 0.59633 0.0
C679 C 0.71027 1.0673 0.58081 0.0
C680 C 0.75162 0.09807 0.62461 0.0
C681 C 0.7099 1.06117 0.63761 0.0
C682 C 0.66918 1.02639 0.62181 0.0
C683 C 0.66952 1.03047 0.59373 0.0
C684 C 0.79524 0.13672 0.64055 0.0
C685 C 0.62454 0.9855 0.63457 0.0
C686 C 0.71954 1.02987 0.71124 0.0
C687 C 0.6949 1.05031 0.72406 0.0
C688 C 0.72522 1.03356 0.68331 0.0
C689 C 0.70747 1.05984 0.6676 0.0
C690 C 0.68456 0.08242 0.68045 0.0
C691 C 0.6779 0.07679 0.70827 0.0
C692 C 0.74894 1.008 0.67052 0.0
C693 C 0.66598 0.11173 0.66468 0.0
H694 H 0.78277 0.12931 0.58641 0.0
H695 H 0.63744 1.00503 0.58176 0.0
H696 H 0.78381 0.15922 0.65168 0.0
H697 H 0.80899 0.11956 0.65559 0.0
H698 H 0.82586 0.1612 0.62762 0.0
H699 H 0.59801 0.95893 0.61955 0.0
H700 H 0.6358 0.96564 0.64925 0.0
H701 H 0.60547 1.00081 0.64567 0.0
H702 H 0.73432 1.01054 0.72297 0.0
H703 H 0.65821 0.09233 0.71748 0.0
H704 H 0.78076 1.03446 0.65896 0.0
H705 H 0.72223 0.98 0.65618 0.0
H706 H 0.76174 0.98982 0.6855 0.0
H707 H 0.69518 0.13898 0.65191 0.0
H708 H 0.65377 0.1312 0.67785 0.0
H709 H 0.63451 0.08713 0.6512 0.0
C710 C 0.75217 0.61819 0.92314 0.0
C711 C 0.70689 0.57964 0.91349 0.0
C712 C 0.76471 0.62424 0.95083 0.0
C713 C 0.73112 0.59119 0.96941 0.0
C714 C 0.68537 0.55237 0.95975 0.0
C715 C 0.67394 0.54702 0.93206 0.0
C716 C 0.81398 0.66593 0.96023 0.0
C717 C 0.64826 0.51636 0.97872 0.0
C718 C 0.77385 0.57322 0.03935 0.0
C719 C 0.76015 0.60001 0.05553 0.0
C720 C 0.76609 0.57136 0.01133 0.0
C721 C 0.7436 0.5965 -0.00106 0.0
C722 C 0.73036 0.62423 0.01504 0.0
C723 C 0.73887 0.62575 0.04303 0.0
C724 C 0.7808 0.54132 -0.00496 0.0
C725 C 0.70616 0.65148 0.00274 0.0
H726 H 0.77792 0.64361 0.90905 0.0
H727 H 0.63874 0.51718 0.925 0.0
H728 H 0.80873 0.68975 0.97411 0.0
H729 H 0.83525 0.65145 0.97153 0.0
H730 H 0.83599 0.68853 0.94335 0.0
H731 H 0.61411 0.48851 0.96808 0.0
H732 H 0.66447 0.49729 0.99052 0.0
H733 H 0.63836 0.53598 -0.00687 0.0
H734 H 0.78956 0.5525 0.04867 0.0
H735 H 0.72873 0.64713 0.05516 0.0
H736 H 0.80441 0.5637 0.97862 0.0
H737 H 0.74753 0.51013 0.98565 0.0
H738 H 0.80094 0.52673 0.00739 0.0
H739 H 0.72912 0.67653 0.98688 0.0
H740 H 0.70004 0.6731 0.01778 0.0
H741 H 0.67015 0.62518 -0.0069 0.0
C742 C 0.20002 0.52081 0.26095 0.0
C743 C 0.21371 0.56642 0.24916 0.0
C744 C 0.19187 0.51318 0.28867 0.0
C745 C 0.19776 0.55208 0.30505 0.0
C746 C 0.21159 0.59808 0.29321 0.0
C747 C 0.21925 0.6046 0.26559 0.0
C748 C 0.17693 0.4635 0.30043 0.0
C749 C 0.21853 0.64072 0.30977 0.0
C750 C 0.13754 0.53091 0.37247 0.0
C751 C 0.17726 0.54286 0.39079 0.0
C752 C 0.1432 0.53187 0.34462 0.0
C753 C 0.18979 0.54535 0.3346 0.0
C754 C 0.22973 0.55626 0.35296 0.0
C755 C 0.22299 0.55479 0.38071 0.0
C756 C 1.09958 0.52 0.32588 0.0
C757 C 0.28006 0.57087 0.34326 0.0
H758 H 0.19551 0.491 0.24854 0.0
H759 H 0.22993 0.64012 0.25691 0.0
H760 H 0.20443 0.4666 0.31618 0.0
H761 H 0.1412 0.44886 0.31014 0.0
H762 H 0.17349 0.43692 0.28508 0.0
H763 H 0.22938 0.67416 0.29756 0.0
H764 H 0.18395 0.63114 0.31968 0.0
H765 H 0.24728 0.64918 0.32581 0.0
H766 H 1.10216 0.52214 0.37988 0.0
H767 H 0.25377 0.56323 0.39456 0.0
H768 H 1.0946 0.49213 0.31102 0.0
H769 H 1.10622 0.55326 0.31457 0.0
H770 H 1.065 0.50621 0.33671 0.0
H771 H 0.27765 0.5431 0.32911 0.0
H772 H 0.30652 0.57525 0.35999 0.0
H773 H 0.29478 0.60598 0.33223 0.0
loop_
_geom_bond_atom_site_label_1
_geom_bond_atom_site_label_2
_geom_bond_distance
_geom_bond_site_symmetry_2
_ccdc_geom_bond_type
Eu0 C9 2.828 . S
Eu0 O11 2.392 1_655 S
Eu0 O13 2.418 . S
Eu0 O18 2.373 . S
Eu0 O21 2.488 . S
Eu0 O22 2.471 . S
Eu0 O23 2.352 1_655 S
Eu1 O10 2.373 . S
Eu1 O14 2.488 . S
Eu1 O15 2.471 . S
Eu1 O16 2.349 . S
Eu1 O19 2.392 1_455 S
Eu1 O20 2.418 . S
Eu1 C30 2.828 . S
C2 O20 1.244 . S
C2 O23 1.267 . S
C3 C4 1.379 . S
C3 C7 1.373 . S
C3 C9 1.505 . S
C4 C3 1.379 . S
C4 C6 1.369 . S
C4 H32 0.930 . S
C5 C7 1.383 . S
C5 C8 1.382 . S
C5 H33 0.930 . S
C6 C4 1.369 . S
C6 C8 1.392 . S
C6 H34 0.930 . S
C7 C3 1.373 . S
C7 C5 1.383 . S
C7 H35 0.931 . S
C8 C5 1.382 . S
C8 C6 1.392 . S
C9 Eu0 2.828 . S
C9 C3 1.505 . S
C9 O21 1.249 . S
C9 O22 1.244 . S
O10 Eu1 2.373 . S
O10 C12 1.258 . S
O11 Eu0 2.392 1_455 S
O11 C12 1.242 . S
C12 O10 1.258 . S
C12 O11 1.242 . S
O13 Eu0 2.418 . S
O13 C17 1.244 1_655 S
O14 Eu1 2.488 . S
O14 C30 1.249 . S
O15 Eu1 2.471 . S
O15 C30 1.244 . S
O16 Eu1 2.349 . S
O16 C17 1.265 . S
C17 O13 1.244 1_455 S
C17 O16 1.265 . S
O18 Eu0 2.373 . S
O18 C31 1.258 . S
O19 Eu1 2.392 1_655 S
O19 C31 1.242 . S
O20 Eu1 2.418 . S
O20 C2 1.244 . S
O21 Eu0 2.488 . S
O21 C9 1.249 . S
O22 Eu0 2.471 . S
O22 C9 1.244 . S
O23 Eu0 2.352 1_455 S
O23 C2 1.267 . S
C24 C25 1.379 . S
C24 C28 1.373 . S
C24 C30 1.505 . S
C25 C24 1.379 . S
C25 C27 1.369 . S
C25 H36 0.930 . S
C26 C28 1.383 . S
C26 C29 1.382 . S
C26 H37 0.930 . S
C27 C25 1.369 . S
C27 C29 1.392 . S
C27 H38 0.930 . S
C28 C24 1.373 . S
C28 C26 1.383 . S
C28 H39 0.931 . S
C29 C26 1.382 . S
C29 C27 1.392 . S
C30 Eu1 2.828 . S
C30 O14 1.249 . S
C30 O15 1.244 . S
C30 C24 1.505 . S
C31 O18 1.258 . S
C31 O19 1.242 . S
H32 C4 0.930 . S
H33 C5 0.930 . S
H34 C6 0.930 . S
H35 C7 0.931 . S
H36 C25 0.930 . S
H37 C26 0.930 . S
H38 C27 0.930 . S
H39 C28 0.931 . S
Eu40 C49 2.828 . S
Eu40 O51 2.392 1_565 S
Eu40 O53 2.413 1_565 S
Eu40 O58 2.373 . S
Eu40 O61 2.488 . S
Eu40 O62 2.471 . S
Eu40 O63 2.349 1_565 S
Eu41 O50 2.373 . S
Eu41 O54 2.488 . S
Eu41 O55 2.471 . S
Eu41 O56 2.349 . S
Eu41 O59 2.392 1_545 S
Eu41 O60 2.418 . S
Eu41 C70 2.828 . S
C42 O60 1.244 . S
C42 O63 1.265 . S
C43 C44 1.379 . S
C43 C47 1.373 . S
C43 C49 1.505 . S
C44 C43 1.379 . S
C44 C46 1.369 . S
C44 H72 0.930 . S
C45 C47 1.383 . S
C45 C48 1.382 . S
C45 H73 0.930 . S
C46 C44 1.369 . S
C46 C48 1.392 . S
C46 H74 0.930 . S
C47 C43 1.373 . S
C47 C45 1.383 . S
C47 H75 0.931 . S
C48 C45 1.382 . S
C48 C46 1.392 . S
C49 Eu40 2.828 . S
C49 C43 1.505 . S
C49 O61 1.249 . S
C49 O62 1.244 . S
O50 Eu41 2.373 . S
O50 C52 1.258 . S
O51 Eu40 2.392 1_545 S
O51 C52 1.242 . S
C52 O50 1.258 . S
C52 O51 1.242 . S
O53 Eu40 2.413 1_545 S
O53 C57 1.267 . S
O54 Eu41 2.488 . S
O54 C70 1.249 . S
O55 Eu41 2.471 . S
O55 C70 1.244 . S
O56 Eu41 2.349 . S
O56 C57 1.265 . S
C57 O53 1.267 . S
C57 O56 1.265 . S
O58 Eu40 2.373 . S
O58 C71 1.258 . S
O59 Eu41 2.392 1_565 S
O59 C71 1.242 . S
O60 Eu41 2.418 . S
O60 C42 1.244 . S
O61 Eu40 2.488 . S
O61 C49 1.249 . S
O62 Eu40 2.471 . S
O62 C49 1.244 . S
O63 Eu40 2.349 1_545 S
O63 C42 1.265 . S
C64 C65 1.379 . S
C64 C68 1.373 . S
C64 C70 1.505 . S
C65 C64 1.379 . S
C65 C67 1.369 . S
C65 H76 0.930 . S
C66 C68 1.383 . S
C66 C69 1.382 . S
C66 H77 0.930 . S
C67 C65 1.369 . S
C67 C69 1.392 . S
C67 H78 0.930 . S
C68 C64 1.373 . S
C68 C66 1.383 . S
C68 H79 0.931 . S
C69 C66 1.382 . S
C69 C67 1.392 . S
C70 Eu41 2.828 . S
C70 O54 1.249 . S
C70 O55 1.244 . S
C70 C64 1.505 . S
C71 O58 1.258 . S
C71 O59 1.242 . S
H72 C44 0.930 . S
H73 C45 0.930 . S
H74 C46 0.930 . S
H75 C47 0.931 . S
H76 C65 0.930 . S
H77 C66 0.930 . S
H78 C67 0.930 . S
H79 C68 0.931 . S
Eu80 C89 2.828 . S
Eu80 O91 2.392 . S
Eu80 O93 2.418 . S
Eu80 O98 2.373 . S
Eu80 O101 2.488 . S
Eu80 O102 2.471 . S
Eu80 O103 2.349 . S
Eu81 O90 2.373 . S
Eu81 O94 2.488 . S
Eu81 O95 2.471 . S
Eu81 O96 2.349 . S
Eu81 O99 2.392 . S
Eu81 O100 2.418 . S
Eu81 C110 2.828 . S
C82 O100 1.244 . S
C82 O103 1.265 . S
C83 C84 1.379 . S
C83 C87 1.373 . S
C83 C89 1.505 . S
C84 C83 1.379 . S
C84 C86 1.369 . S
C84 H112 0.930 . S
C85 C87 1.383 . S
C85 C88 1.382 . S
C85 H113 0.930 . S
C86 C84 1.369 . S
C86 C88 1.392 . S
C86 H114 0.930 . S
C87 C83 1.373 . S
C87 C85 1.383 . S
C87 H115 0.931 . S
C88 C85 1.382 . S
C88 C86 1.392 . S
C89 Eu80 2.828 . S
C89 C83 1.505 . S
C89 O101 1.249 . S
C89 O102 1.244 . S
O90 Eu81 2.373 . S
O90 C92 1.258 . S
O91 Eu80 2.392 . S
O91 C92 1.242 . S
C92 O90 1.258 . S
C92 O91 1.242 . S
O93 Eu80 2.418 . S
O93 C97 1.244 . S
O94 Eu81 2.488 . S
O94 C110 1.249 . S
O95 Eu81 2.471 . S
O95 C110 1.244 . S
O96 Eu81 2.349 . S
O96 C97 1.265 . S
C97 O93 1.244 . S
C97 O96 1.265 . S
O98 Eu80 2.373 . S
O98 C111 1.258 . S
O99 Eu81 2.392 . S
O99 C111 1.242 . S
O100 Eu81 2.418 . S
O100 C82 1.244 . S
O101 Eu80 2.488 . S
O101 C89 1.249 . S
O102 Eu80 2.471 . S
O102 C89 1.244 . S
O103 Eu80 2.349 . S
O103 C82 1.265 . S
C104 C105 1.379 . S
C104 C108 1.373 . S
C104 C110 1.505 . S
C105 C104 1.379 . S
C105 C107 1.369 . S
C105 H116 0.930 . S
C106 C108 1.383 . S
C106 C109 1.382 . S
C106 H117 0.930 . S
C107 C105 1.369 . S
C107 C109 1.392 . S
C107 H118 0.930 . S
C108 C104 1.373 . S
C108 C106 1.383 . S
C108 H119 0.931 . S
C109 C106 1.382 . S
C109 C107 1.392 . S
C110 Eu81 2.828 . S
C110 O94 1.249 . S
C110 O95 1.244 . S
C110 C104 1.505 . S
C111 O98 1.258 . S
C111 O99 1.242 . S
H112 C84 0.930 . S
H113 C85 0.930 . S
H114 C86 0.930 . S
H115 C87 0.931 . S
H116 C105 0.930 . S
H117 C106 0.930 . S
H118 C107 0.930 . S
H119 C108 0.931 . S
H120 C127 0.929 . S
H121 C130 0.930 1_565 S
H122 C132 0.929 . S
H123 C124 0.969 . S
C124 H123 0.969 . S
C124 O125 1.550 . S
C124 H126 0.973 . S
O125 C124 1.550 . S
O125 C131 1.412 1_565 S
H126 C124 0.973 . S
C127 H120 0.929 . S
C127 C128 1.400 . S
C127 C129 1.364 . S
C128 C127 1.400 . S
C128 C132 1.377 . S
C129 C127 1.364 . S
C129 C130 1.374 . S
C130 H121 0.930 1_545 S
C130 C129 1.374 . S
C130 C131 1.383 . S
C131 O125 1.412 1_545 S
C131 C130 1.383 . S
C131 C132 1.394 . S
C132 H122 0.929 . S
C132 C128 1.377 . S
C132 C131 1.394 . S
H133 C140 0.929 . S
H134 C143 0.930 . S
H135 C145 0.929 . S
H136 C137 0.969 . S
C137 H136 0.969 . S
C137 O138 1.550 . S
C137 H139 0.973 . S
O138 C137 1.550 . S
O138 C144 1.412 . S
H139 C137 0.973 . S
C140 H133 0.929 . S
C140 C141 1.400 . S
C140 C142 1.364 . S
C141 C140 1.400 . S
C141 C145 1.377 . S
C142 C140 1.364 . S
C142 C143 1.374 . S
C143 H134 0.930 . S
C143 C142 1.374 . S
C143 C144 1.383 . S
C144 O138 1.412 . S
C144 C143 1.383 . S
C144 C145 1.394 . S
C145 H135 0.929 . S
C145 C141 1.377 . S
C145 C144 1.394 . S
H146 C153 0.929 . S
H147 C156 0.930 . S
H148 C158 0.929 . S
H149 C150 0.969 . S
C150 H149 0.969 . S
C150 O151 1.550 . S
C150 H152 0.973 . S
O151 C150 1.550 . S
O151 C157 1.412 . S
H152 C150 0.973 . S
C153 H146 0.929 . S
C153 C154 1.400 . S
C153 C155 1.364 . S
C154 C153 1.400 . S
C154 C158 1.377 . S
C155 C153 1.364 . S
C155 C156 1.374 . S
C156 H147 0.930 . S
C156 C155 1.374 . S
C156 C157 1.383 . S
C157 O151 1.412 . S
C157 C156 1.383 . S
C157 C158 1.394 . S
C158 H148 0.929 . S
C158 C154 1.377 . S
C158 C157 1.394 . S
H159 C166 0.929 . S
H160 C169 0.930 . S
H161 C171 0.929 . S
H162 C163 0.969 . S
C163 H162 0.969 . S
C163 O164 1.550 . S
C163 H165 0.973 . S
O164 C163 1.550 . S
O164 C170 1.412 . S
H165 C163 0.973 . S
C166 H159 0.929 . S
C166 C167 1.400 . S
C166 C168 1.364 . S
C167 C166 1.400 . S
C167 C171 1.377 . S
C168 C166 1.364 . S
C168 C169 1.374 . S
C169 H160 0.930 . S
C169 C168 1.374 . S
C169 C170 1.383 . S
C170 O164 1.412 . S
C170 C169 1.383 . S
C170 C171 1.394 . S
C171 H161 0.929 . S
C171 C167 1.377 . S
C171 C170 1.394 . S
H172 C179 0.928 1_565 S
H173 C182 0.930 . S
H174 C184 0.929 . S
H175 C176 0.969 . S
C176 H175 0.969 . S
C176 O177 1.550 . S
C176 H178 0.973 . S
O177 C176 1.550 . S
O177 C183 1.412 . S
H178 C176 0.973 . S
C179 H172 0.928 1_545 S
C179 C180 1.400 1_545 S
C179 C181 1.365 . S
C180 C179 1.400 1_565 S
C180 C184 1.377 1_565 S
C181 C179 1.365 . S
C181 C182 1.374 . S
C182 H173 0.930 . S
C182 C181 1.374 . S
C182 C183 1.383 . S
C183 O177 1.412 . S
C183 C182 1.383 . S
C183 C184 1.394 . S
C184 H174 0.929 . S
C184 C180 1.377 1_545 S
C184 C183 1.394 . S
H185 C192 0.929 . S
H186 C195 0.930 . S
H187 C197 0.929 . S
H188 C189 0.969 . S
C189 H188 0.969 . S
C189 O190 1.550 . S
C189 H191 0.973 . S
O190 C189 1.550 . S
O190 C196 1.412 . S
H191 C189 0.973 . S
C192 H185 0.929 . S
C192 C193 1.400 . S
C192 C194 1.364 . S
C193 C192 1.400 . S
C193 C197 1.377 . S
C194 C192 1.364 . S
C194 C195 1.374 . S
C195 H186 0.930 . S
C195 C194 1.374 . S
C195 C196 1.383 . S
C196 O190 1.412 . S
C196 C195 1.383 . S
C196 C197 1.394 . S
C197 H187 0.929 . S
C197 C193 1.377 . S
C197 C196 1.394 . S
C198 C199 1.391 . S
C198 C200 1.394 . S
C198 H214 0.931 . S
C199 C198 1.391 . S
C199 C203 1.376 . S
C200 C198 1.394 . S
C200 C201 1.369 . S
C200 C204 1.531 . S
C201 C200 1.369 . S
C201 C202 1.410 . S
C201 C209 1.503 . S
C202 C201 1.410 . S
C202 C203 1.392 . S
C202 C205 1.511 . S
C203 C199 1.376 . S
C203 C202 1.392 . S
C203 H215 0.929 . S
C204 C200 1.531 . S
C204 H216 0.960 . S
C204 H217 0.962 . S
C204 H218 0.960 . S
C205 C202 1.511 . S
C205 H219 0.961 . S
C205 H220 0.961 . S
C205 H221 0.961 . S
C206 C207 1.370 . S
C206 C208 1.363 . S
C206 H222 0.931 . S
C207 C206 1.370 . S
C207 C211 1.408 . S
C208 C206 1.363 . S
C208 C209 1.370 . S
C208 C212 1.524 . S
C209 C201 1.503 . S
C209 C208 1.370 . S
C209 C210 1.403 . S
C210 C209 1.403 . S
C210 C211 1.404 . S
C210 C213 1.539 . S
C211 C207 1.408 . S
C211 C210 1.404 . S
C211 H223 0.930 . S
C212 C208 1.524 . S
C212 H224 0.956 . S
C212 H225 0.961 . S
C212 H226 0.961 . S
C213 C210 1.539 . S
C213 H227 0.958 . S
C213 H228 0.961 . S
C213 H229 0.960 . S
H214 C198 0.931 . S
H215 C203 0.929 . S
H216 C204 0.960 . S
H217 C204 0.962 . S
H218 C204 0.960 . S
H219 C205 0.961 . S
H220 C205 0.961 . S
H221 C205 0.961 . S
H222 C206 0.931 . S
H223 C211 0.930 . S
H224 C212 0.956 . S
H225 C212 0.961 . S
H226 C212 0.961 . S
H227 C213 0.958 . S
H228 C213 0.961 . S
H229 C213 0.960 . S
C230 C231 1.391 . S
C230 C232 1.394 . S
C230 H246 0.931 . S
C231 C230 1.391 . S
C231 C235 1.376 . S
C232 C230 1.394 . S
C232 C233 1.369 . S
C232 C236 1.531 . S
C233 C232 1.369 . S
C233 C234 1.410 . S
C233 C241 1.503 . S
C234 C233 1.410 . S
C234 C235 1.392 . S
C234 C237 1.511 . S
C235 C231 1.376 . S
C235 C234 1.392 . S
C235 H247 0.929 . S
C236 C232 1.531 . S
C236 H248 0.960 . S
C236 H249 0.962 . S
C236 H250 0.960 . S
C237 C234 1.511 . S
C237 H251 0.961 . S
C237 H252 0.961 . S
C237 H253 0.961 . S
C238 C239 1.370 . S
C238 C240 1.363 . S
C238 H254 0.931 . S
C239 C238 1.370 . S
C239 C243 1.408 . S
C240 C238 1.363 . S
C240 C241 1.370 . S
C240 C244 1.524 . S
C241 C233 1.503 . S
C241 C240 1.370 . S
C241 C242 1.403 . S
C242 C241 1.403 . S
C242 C243 1.404 . S
C242 C245 1.539 . S
C243 C239 1.408 . S
C243 C242 1.404 . S
C243 H255 0.930 . S
C244 C240 1.524 . S
C244 H256 0.956 . S
C244 H257 0.961 . S
C244 H258 0.961 . S
C245 C242 1.539 . S
C245 H259 0.958 . S
C245 H260 0.961 . S
C245 H261 0.960 . S
H246 C230 0.931 . S
H247 C235 0.929 . S
H248 C236 0.960 . S
H249 C236 0.962 . S
H250 C236 0.960 . S
H251 C237 0.961 . S
H252 C237 0.961 . S
H253 C237 0.961 . S
H254 C238 0.931 . S
H255 C243 0.930 . S
H256 C244 0.956 . S
H257 C244 0.961 . S
H258 C244 0.961 . S
H259 C245 0.958 . S
H260 C245 0.961 . S
H261 C245 0.960 . S
C262 C263 1.391 . S
C262 C264 1.394 . S
C262 H278 0.931 . S
C263 C262 1.391 . S
C263 C267 1.376 . S
C264 C262 1.394 . S
C264 C265 1.369 . S
C264 C268 1.531 . S
C265 C264 1.369 . S
C265 C266 1.410 . S
C265 C273 1.503 . S
C266 C265 1.410 . S
C266 C267 1.392 . S
C266 C269 1.511 . S
C267 C263 1.376 . S
C267 C266 1.392 . S
C267 H279 0.929 . S
C268 C264 1.531 . S
C268 H280 0.960 . S
C268 H281 0.962 . S
C268 H282 0.960 . S
C269 C266 1.511 . S
C269 H283 0.961 . S
C269 H284 0.961 . S
C269 H285 0.961 . S
C270 C271 1.370 . S
C270 C272 1.363 . S
C270 H286 0.931 . S
C271 C270 1.370 . S
C271 C275 1.408 . S
C272 C270 1.363 . S
C272 C273 1.370 . S
C272 C276 1.524 . S
C273 C265 1.503 . S
C273 C272 1.370 . S
C273 C274 1.403 . S
C274 C273 1.403 . S
C274 C275 1.404 . S
C274 C277 1.539 . S
C275 C271 1.408 . S
C275 C274 1.404 . S
C275 H287 0.930 . S
C276 C272 1.524 . S
C276 H288 0.956 . S
C276 H289 0.961 . S
C276 H290 0.961 . S
C277 C274 1.539 . S
C277 H291 0.958 . S
C277 H292 0.961 . S
C277 H293 0.960 . S
H278 C262 0.931 . S
H279 C267 0.929 . S
H280 C268 0.960 . S
H281 C268 0.962 . S
H282 C268 0.960 . S
H283 C269 0.961 . S
H284 C269 0.961 . S
H285 C269 0.961 . S
H286 C270 0.931 . S
H287 C275 0.930 . S
H288 C276 0.956 . S
H289 C276 0.961 . S
H290 C276 0.961 . S
H291 C277 0.958 . S
H292 C277 0.961 . S
H293 C277 0.960 . S
C294 C295 1.391 . S
C294 C296 1.394 . S
C294 H310 0.931 . S
C295 C294 1.391 . S
C295 C299 1.376 . S
C296 C294 1.394 . S
C296 C297 1.369 . S
C296 C300 1.531 . S
C297 C296 1.369 . S
C297 C298 1.410 . S
C297 C305 1.503 . S
C298 C297 1.410 . S
C298 C299 1.392 . S
C298 C301 1.511 . S
C299 C295 1.376 . S
C299 C298 1.392 . S
C299 H311 0.929 . S
C300 C296 1.531 . S
C300 H312 0.960 . S
C300 H313 0.962 . S
C300 H314 0.960 . S
C301 C298 1.511 . S
C301 H315 0.961 . S
C301 H316 0.961 . S
C301 H317 0.961 . S
C302 C303 1.370 . S
C302 C304 1.363 . S
C302 H318 0.931 . S
C303 C302 1.370 . S
C303 C307 1.408 . S
C304 C302 1.363 . S
C304 C305 1.370 . S
C304 C308 1.524 . S
C305 C297 1.503 . S
C305 C304 1.370 . S
C305 C306 1.403 . S
C306 C305 1.403 . S
C306 C307 1.404 . S
C306 C309 1.539 . S
C307 C303 1.408 . S
C307 C306 1.404 . S
C307 H319 0.930 . S
C308 C304 1.524 . S
C308 H320 0.956 . S
C308 H321 0.961 . S
C308 H322 0.961 . S
C309 C306 1.539 . S
C309 H323 0.958 . S
C309 H324 0.961 . S
C309 H325 0.960 . S
H310 C294 0.931 . S
H311 C299 0.929 . S
H312 C300 0.960 . S
H313 C300 0.962 . S
H314 C300 0.960 . S
H315 C301 0.961 . S
H316 C301 0.961 . S
H317 C301 0.961 . S
H318 C302 0.931 . S
H319 C307 0.930 . S
H320 C308 0.956 . S
H321 C308 0.961 . S
H322 C308 0.961 . S
H323 C309 0.958 . S
H324 C309 0.961 . S
H325 C309 0.960 . S
C326 C327 1.391 . S
C326 C328 1.394 . S
C326 H342 0.931 . S
C327 C326 1.391 . S
C327 C331 1.376 . S
C328 C326 1.394 . S
C328 C329 1.369 . S
C328 C332 1.531 . S
C329 C328 1.369 . S
C329 C330 1.410 . S
C329 C337 1.503 . S
C330 C329 1.410 . S
C330 C331 1.392 . S
C330 C333 1.511 . S
C331 C327 1.376 . S
C331 C330 1.392 . S
C331 H343 0.929 . S
C332 C328 1.531 . S
C332 H344 0.960 . S
C332 H345 0.962 . S
C332 H346 0.960 . S
C333 C330 1.511 . S
C333 H347 0.961 . S
C333 H348 0.961 . S
C333 H349 0.961 . S
C334 C335 1.370 . S
C334 C336 1.363 . S
C334 H350 0.931 . S
C335 C334 1.370 . S
C335 C339 1.408 . S
C336 C334 1.363 . S
C336 C337 1.370 . S
C336 C340 1.524 . S
C337 C329 1.503 . S
C337 C336 1.370 . S
C337 C338 1.403 . S
C338 C337 1.403 . S
C338 C339 1.404 . S
C338 C341 1.539 . S
C339 C335 1.408 . S
C339 C338 1.404 . S
C339 H351 0.930 . S
C340 C336 1.524 . S
C340 H352 0.956 . S
C340 H353 0.961 . S
C340 H354 0.961 . S
C341 C338 1.539 . S
C341 H355 0.958 . S
C341 H356 0.961 . S
C341 H357 0.960 . S
H342 C326 0.931 . S
H343 C331 0.929 . S
H344 C332 0.960 . S
H345 C332 0.962 . S
H346 C332 0.960 . S
H347 C333 0.961 . S
H348 C333 0.961 . S
H349 C333 0.961 . S
H350 C334 0.931 . S
H351 C339 0.930 . S
H352 C340 0.956 . S
H353 C340 0.961 . S
H354 C340 0.961 . S
H355 C341 0.958 . S
H356 C341 0.961 . S
H357 C341 0.960 . S
C358 C359 1.391 . S
C358 C360 1.394 . S
C358 H374 0.931 . S
C359 C358 1.391 . S
C359 C363 1.376 . S
C360 C358 1.394 . S
C360 C361 1.369 . S
C360 C364 1.531 . S
C361 C360 1.369 . S
C361 C362 1.410 . S
C361 C369 1.503 . S
C362 C361 1.410 . S
C362 C363 1.392 . S
C362 C365 1.511 . S
C363 C359 1.376 . S
C363 C362 1.392 . S
C363 H375 0.929 . S
C364 C360 1.531 . S
C364 H376 0.960 . S
C364 H377 0.962 . S
C364 H378 0.960 . S
C365 C362 1.511 . S
C365 H379 0.961 . S
C365 H380 0.961 . S
C365 H381 0.961 . S
C366 C367 1.370 . S
C366 C368 1.363 . S
C366 H382 0.931 . S
C367 C366 1.370 . S
C367 C371 1.408 . S
C368 C366 1.363 . S
C368 C369 1.370 . S
C368 C372 1.524 . S
C369 C361 1.503 . S
C369 C368 1.370 . S
C369 C370 1.403 . S
C370 C369 1.403 . S
C370 C371 1.404 . S
C370 C373 1.539 . S
C371 C367 1.408 . S
C371 C370 1.404 . S
C371 H383 0.930 . S
C372 C368 1.524 . S
C372 H384 0.956 . S
C372 H385 0.961 . S
C372 H386 0.961 . S
C373 C370 1.539 . S
C373 H387 0.958 . S
C373 H388 0.961 . S
C373 H389 0.960 . S
H374 C358 0.931 . S
H375 C363 0.929 . S
H376 C364 0.960 . S
H377 C364 0.962 . S
H378 C364 0.960 . S
H379 C365 0.961 . S
H380 C365 0.961 . S
H381 C365 0.961 . S
H382 C366 0.931 . S
H383 C371 0.930 . S
H384 C372 0.956 . S
H385 C372 0.961 . S
H386 C372 0.961 . S
H387 C373 0.958 . S
H388 C373 0.961 . S
H389 C373 0.960 . S
C390 C391 1.391 . S
C390 C392 1.394 . S
C390 H406 0.931 . S
C391 C390 1.391 . S
C391 C395 1.376 . S
C392 C390 1.394 . S
C392 C393 1.369 . S
C392 C396 1.531 . S
C393 C392 1.369 . S
C393 C394 1.410 . S
C393 C401 1.503 . S
C394 C393 1.410 . S
C394 C395 1.392 . S
C394 C397 1.511 . S
C395 C391 1.376 . S
C395 C394 1.392 . S
C395 H407 0.929 . S
C396 C392 1.531 . S
C396 H408 0.960 . S
C396 H409 0.962 . S
C396 H410 0.960 . S
C397 C394 1.511 . S
C397 H411 0.961 . S
C397 H412 0.961 . S
C397 H413 0.961 . S
C398 C399 1.370 . S
C398 C400 1.363 . S
C398 H414 0.931 . S
C399 C398 1.370 . S
C399 C403 1.408 . S
C400 C398 1.363 . S
C400 C401 1.370 . S
C400 C404 1.524 . S
C401 C393 1.503 . S
C401 C400 1.370 . S
C401 C402 1.403 . S
C402 C401 1.403 . S
C402 C403 1.404 . S
C402 C405 1.539 . S
C403 C399 1.408 . S
C403 C402 1.404 . S
C403 H415 0.930 . S
C404 C400 1.524 . S
C404 H416 0.956 . S
C404 H417 0.961 . S
C404 H418 0.961 . S
C405 C402 1.539 . S
C405 H419 0.958 . S
C405 H420 0.961 . S
C405 H421 0.960 . S
H406 C390 0.931 . S
H407 C395 0.929 . S
H408 C396 0.960 . S
H409 C396 0.962 . S
H410 C396 0.960 . S
H411 C397 0.961 . S
H412 C397 0.961 . S
H413 C397 0.961 . S
H414 C398 0.931 . S
H415 C403 0.930 . S
H416 C404 0.956 . S
H417 C404 0.961 . S
H418 C404 0.961 . S
H419 C405 0.958 . S
H420 C405 0.961 . S
H421 C405 0.960 . S
C422 C423 1.391 . S
C422 C424 1.394 . S
C422 H438 0.931 . S
C423 C422 1.391 . S
C423 C427 1.376 . S
C424 C422 1.394 . S
C424 C425 1.369 . S
C424 C428 1.531 . S
C425 C424 1.369 . S
C425 C426 1.410 . S
C425 C433 1.503 . S
C426 C425 1.410 . S
C426 C427 1.392 . S
C426 C429 1.511 . S
C427 C423 1.376 . S
C427 C426 1.392 . S
C427 H439 0.929 . S
C428 C424 1.531 . S
C428 H440 0.960 . S
C428 H441 0.962 . S
C428 H442 0.960 . S
C429 C426 1.511 . S
C429 H443 0.961 . S
C429 H444 0.961 . S
C429 H445 0.961 . S
C430 C431 1.370 . S
C430 C432 1.363 1_455 S
C430 H446 0.931 . S
C431 C430 1.370 . S
C431 C435 1.408 . S
C432 C430 1.363 1_655 S
C432 C433 1.370 . S
C432 C436 1.524 . S
C433 C425 1.503 . S
C433 C432 1.370 . S
C433 C434 1.403 . S
C434 C433 1.403 . S
C434 C435 1.404 1_655 S
C434 C437 1.539 . S
C435 C431 1.408 . S
C435 C434 1.404 1_455 S
C435 H447 0.930 . S
C436 C432 1.524 . S
C436 H448 0.956 . S
C436 H449 0.961 . S
C436 H450 0.961 . S
C437 C434 1.539 . S
C437 H451 0.958 . S
C437 H452 0.961 . S
C437 H453 0.960 . S
H438 C422 0.931 . S
H439 C427 0.929 . S
H440 C428 0.960 . S
H441 C428 0.962 . S
H442 C428 0.960 . S
H443 C429 0.961 . S
H444 C429 0.961 . S
H445 C429 0.961 . S
H446 C430 0.931 . S
H447 C435 0.930 . S
H448 C436 0.956 . S
H449 C436 0.961 . S
H450 C436 0.961 . S
H451 C437 0.958 . S
H452 C437 0.961 . S
H453 C437 0.960 . S
C454 C455 1.391 . S
C454 C456 1.394 . S
C454 H470 0.931 . S
C455 C454 1.391 . S
C455 C459 1.376 . S
C456 C454 1.394 . S
C456 C457 1.369 . S
C456 C460 1.531 . S
C457 C456 1.369 . S
C457 C458 1.410 . S
C457 C465 1.503 . S
C458 C457 1.410 . S
C458 C459 1.392 . S
C458 C461 1.511 . S
C459 C455 1.376 . S
C459 C458 1.392 . S
C459 H471 0.929 . S
C460 C456 1.531 . S
C460 H472 0.960 . S
C460 H473 0.962 . S
C460 H474 0.960 . S
C461 C458 1.511 . S
C461 H475 0.961 . S
C461 H476 0.961 . S
C461 H477 0.961 . S
C462 C463 1.370 . S
C462 C464 1.363 . S
C462 H478 0.931 . S
C463 C462 1.370 . S
C463 C467 1.408 . S
C464 C462 1.363 . S
C464 C465 1.370 . S
C464 C468 1.524 . S
C465 C457 1.503 . S
C465 C464 1.370 . S
C465 C466 1.403 . S
C466 C465 1.403 . S
C466 C467 1.404 . S
C466 C469 1.539 . S
C467 C463 1.408 . S
C467 C466 1.404 . S
C467 H479 0.930 . S
C468 C464 1.524 . S
C468 H480 0.956 . S
C468 H481 0.961 . S
C468 H482 0.961 . S
C469 C466 1.539 . S
C469 H483 0.958 . S
C469 H484 0.961 . S
C469 H485 0.960 . S
H470 C454 0.931 . S
H471 C459 0.929 . S
H472 C460 0.960 . S
H473 C460 0.962 . S
H474 C460 0.960 . S
H475 C461 0.961 . S
H476 C461 0.961 . S
H477 C461 0.961 . S
H478 C462 0.931 . S
H479 C467 0.930 . S
H480 C468 0.956 . S
H481 C468 0.961 . S
H482 C468 0.961 . S
H483 C469 0.958 . S
H484 C469 0.961 . S
H485 C469 0.960 . S
C486 C487 1.391 . S
C486 C488 1.394 . S
C486 H502 0.931 . S
C487 C486 1.391 . S
C487 C491 1.376 . S
C488 C486 1.394 . S
C488 C489 1.369 . S
C488 C492 1.531 . S
C489 C488 1.369 . S
C489 C490 1.410 . S
C489 C497 1.503 . S
C490 C489 1.410 . S
C490 C491 1.392 . S
C490 C493 1.511 . S
C491 C487 1.376 . S
C491 C490 1.392 . S
C491 H503 0.929 . S
C492 C488 1.531 . S
C492 H504 0.960 . S
C492 H505 0.962 . S
C492 H506 0.960 . S
C493 C490 1.511 . S
C493 H507 0.961 . S
C493 H508 0.961 . S
C493 H509 0.961 . S
C494 C495 1.370 . S
C494 C496 1.363 . S
C494 H510 0.931 . S
C495 C494 1.370 . S
C495 C499 1.408 . S
C496 C494 1.363 . S
C496 C497 1.370 . S
C496 C500 1.524 . S
C497 C489 1.503 . S
C497 C496 1.370 . S
C497 C498 1.403 . S
C498 C497 1.403 . S
C498 C499 1.404 . S
C498 C501 1.539 . S
C499 C495 1.408 . S
C499 C498 1.404 . S
C499 H511 0.930 . S
C500 C496 1.524 . S
C500 H512 0.956 . S
C500 H513 0.961 . S
C500 H514 0.961 . S
C501 C498 1.539 . S
C501 H515 0.958 . S
C501 H516 0.961 . S
C501 H517 0.960 . S
H502 C486 0.931 . S
H503 C491 0.929 . S
H504 C492 0.960 . S
H505 C492 0.962 . S
H506 C492 0.960 . S
H507 C493 0.961 . S
H508 C493 0.961 . S
H509 C493 0.961 . S
H510 C494 0.931 . S
H511 C499 0.930 . S
H512 C500 0.956 . S
H513 C500 0.961 . S
H514 C500 0.961 . S
H515 C501 0.958 . S
H516 C501 0.961 . S
H517 C501 0.960 . S
C518 C519 1.391 . S
C518 C520 1.394 . S
C518 H534 0.931 . S
C519 C518 1.391 . S
C519 C523 1.376 . S
C520 C518 1.394 . S
C520 C521 1.369 . S
C520 C524 1.531 . S
C521 C520 1.369 . S
C521 C522 1.410 . S
C521 C529 1.503 . S
C522 C521 1.410 . S
C522 C523 1.392 . S
C522 C525 1.511 . S
C523 C519 1.376 . S
C523 C522 1.392 . S
C523 H535 0.929 . S
C524 C520 1.531 . S
C524 H536 0.960 . S
C524 H537 0.962 . S
C524 H538 0.960 . S
C525 C522 1.511 . S
C525 H539 0.961 . S
C525 H540 0.961 . S
C525 H541 0.961 . S
C526 C527 1.370 . S
C526 C528 1.363 . S
C526 H542 0.931 . S
C527 C526 1.370 . S
C527 C531 1.408 . S
C528 C526 1.363 . S
C528 C529 1.370 . S
C528 C532 1.524 . S
C529 C521 1.503 . S
C529 C528 1.370 . S
C529 C530 1.403 . S
C530 C529 1.403 . S
C530 C531 1.404 . S
C530 C533 1.539 . S
C531 C527 1.408 . S
C531 C530 1.404 . S
C531 H543 0.930 . S
C532 C528 1.524 . S
C532 H544 0.956 . S
C532 H545 0.961 . S
C532 H546 0.961 . S
C533 C530 1.539 . S
C533 H547 0.958 . S
C533 H548 0.961 . S
C533 H549 0.960 . S
H534 C518 0.931 . S
H535 C523 0.929 . S
H536 C524 0.960 . S
H537 C524 0.962 . S
H538 C524 0.960 . S
H539 C525 0.961 . S
H540 C525 0.961 . S
H541 C525 0.961 . S
H542 C526 0.931 . S
H543 C531 0.930 . S
H544 C532 0.956 . S
H545 C532 0.961 . S
H546 C532 0.961 . S
H547 C533 0.958 . S
H548 C533 0.961 . S
H549 C533 0.960 . S
C550 C551 1.391 . S
C550 C552 1.394 . S
C550 H566 0.931 . S
C551 C550 1.391 . S
C551 C555 1.376 . S
C552 C550 1.394 . S
C552 C553 1.369 . S
C552 C556 1.531 . S
C553 C552 1.369 . S
C553 C554 1.410 . S
C553 C561 1.503 . S
C554 C553 1.410 . S
C554 C555 1.392 . S
C554 C557 1.511 . S
C555 C551 1.376 . S
C555 C554 1.392 . S
C555 H567 0.929 . S
C556 C552 1.531 . S
C556 H568 0.960 . S
C556 H569 0.962 . S
C556 H570 0.960 . S
C557 C554 1.511 . S
C557 H571 0.961 . S
C557 H572 0.961 . S
C557 H573 0.961 . S
C558 C559 1.370 . S
C558 C560 1.363 . S
C558 H574 0.931 . S
C559 C558 1.370 . S
C559 C563 1.408 . S
C560 C558 1.363 . S
C560 C561 1.370 . S
C560 C564 1.524 . S
C561 C553 1.503 . S
C561 C560 1.370 . S
C561 C562 1.403 . S
C562 C561 1.403 . S
C562 C563 1.404 . S
C562 C565 1.539 . S
C563 C559 1.408 . S
C563 C562 1.404 . S
C563 H575 0.930 . S
C564 C560 1.524 . S
C564 H576 0.956 . S
C564 H577 0.961 . S
C564 H578 0.961 . S
C565 C562 1.539 . S
C565 H579 0.958 . S
C565 H580 0.961 . S
C565 H581 0.960 . S
H566 C550 0.931 . S
H567 C555 0.929 . S
H568 C556 0.960 . S
H569 C556 0.962 . S
H570 C556 0.960 . S
H571 C557 0.961 . S
H572 C557 0.961 . S
H573 C557 0.961 . S
H574 C558 0.931 . S
H575 C563 0.930 . S
H576 C564 0.956 . S
H577 C564 0.961 . S
H578 C564 0.961 . S
H579 C565 0.958 . S
H580 C565 0.961 . S
H581 C565 0.960 . S
C582 C583 1.391 1_655 S
C582 C584 1.394 . S
C582 H598 0.931 . S
C583 C582 1.391 1_455 S
C583 C587 1.376 . S
C584 C582 1.394 . S
C584 C585 1.369 1_655 S
C584 C588 1.531 . S
C585 C584 1.369 1_455 S
C585 C586 1.410 . S
C585 C593 1.503 . S
C586 C585 1.410 . S
C586 C587 1.392 . S
C586 C589 1.511 . S
C587 C583 1.376 . S
C587 C586 1.392 . S
C587 H599 0.929 . S
C588 C584 1.531 . S
C588 H600 0.960 . S
C588 H601 0.962 . S
C588 H602 0.960 . S
C589 C586 1.511 . S
C589 H603 0.961 . S
C589 H604 0.961 . S
C589 H605 0.961 . S
C590 C591 1.370 . S
C590 C592 1.363 . S
C590 H606 0.931 . S
C591 C590 1.370 . S
C591 C595 1.408 . S
C592 C590 1.363 . S
C592 C593 1.370 1_556 S
C592 C596 1.524 1_556 S
C593 C585 1.503 . S
C593 C592 1.370 1_554 S
C593 C594 1.403 1_554 S
C594 C593 1.403 1_556 S
C594 C595 1.404 . S
C594 C597 1.552 . S
C595 C591 1.408 . S
C595 C594 1.404 . S
C595 H607 0.930 . S
C596 C592 1.524 1_554 S
C596 H608 0.956 . S
C596 H609 0.961 . S
C596 H610 0.961 . S
C597 C594 1.552 . S
C597 H611 0.947 1_455 S
C597 H612 0.959 . S
C597 H613 0.961 1_556 S
H598 C582 0.931 . S
H599 C587 0.929 . S
H600 C588 0.960 . S
H601 C588 0.962 . S
H602 C588 0.960 . S
H603 C589 0.961 . S
H604 C589 0.961 . S
H605 C589 0.961 . S
H606 C590 0.931 . S
H607 C595 0.930 . S
H608 C596 0.956 . S
H609 C596 0.961 . S
H610 C596 0.961 . S
H611 C597 0.947 1_655 S
H612 C597 0.959 . S
H613 C597 0.961 1_554 S
C614 C615 1.391 . S
C614 C616 1.394 . S
C614 H630 0.931 . S
C615 C614 1.391 . S
C615 C619 1.376 . S
C616 C614 1.394 . S
C616 C617 1.369 . S
C616 C620 1.531 . S
C617 C616 1.369 . S
C617 C618 1.410 . S
C617 C625 1.503 . S
C618 C617 1.410 . S
C618 C619 1.392 . S
C618 C621 1.511 . S
C619 C615 1.376 . S
C619 C618 1.392 . S
C619 H631 0.929 . S
C620 C616 1.531 . S
C620 H632 0.960 . S
C620 H633 0.962 . S
C620 H634 0.960 . S
C621 C618 1.511 . S
C621 H635 0.961 . S
C621 H636 0.961 . S
C621 H637 0.961 . S
C622 C623 1.370 . S
C622 C624 1.363 . S
C622 H638 0.931 1_545 S
C623 C622 1.370 . S
C623 C627 1.408 . S
C624 C622 1.363 . S
C624 C625 1.370 . S
C624 C628 1.524 1_545 S
C625 C617 1.503 . S
C625 C624 1.370 . S
C625 C626 1.403 . S
C626 C625 1.403 . S
C626 C627 1.404 . S
C626 C629 1.539 . S
C627 C623 1.408 . S
C627 C626 1.404 . S
C627 H639 0.930 . S
C628 C624 1.524 1_565 S
C628 H640 0.956 . S
C628 H641 0.961 . S
C628 H642 0.961 . S
C629 C626 1.539 . S
C629 H643 0.958 . S
C629 H644 0.961 . S
C629 H645 0.960 . S
H630 C614 0.931 . S
H631 C619 0.929 . S
H632 C620 0.960 . S
H633 C620 0.962 . S
H634 C620 0.960 . S
H635 C621 0.961 . S
H636 C621 0.961 . S
H637 C621 0.961 . S
H638 C622 0.931 1_565 S
H639 C627 0.930 . S
H640 C628 0.956 . S
H641 C628 0.961 . S
H642 C628 0.961 . S
H643 C629 0.958 . S
H644 C629 0.961 . S
H645 C629 0.960 . S
C646 C647 1.391 . S
C646 C648 1.394 . S
C646 H662 0.931 . S
C647 C646 1.391 . S
C647 C651 1.376 . S
C648 C646 1.394 . S
C648 C649 1.369 . S
C648 C652 1.531 . S
C649 C648 1.369 . S
C649 C650 1.410 . S
C649 C657 1.503 . S
C650 C649 1.410 . S
C650 C651 1.392 . S
C650 C653 1.511 . S
C651 C647 1.376 . S
C651 C650 1.392 . S
C651 H663 0.929 . S
C652 C648 1.531 . S
C652 H664 0.960 . S
C652 H665 0.962 . S
C652 H666 0.960 . S
C653 C650 1.511 . S
C653 H667 0.961 . S
C653 H668 0.961 . S
C653 H669 0.961 . S
C654 C655 1.370 . S
C654 C656 1.363 . S
C654 H670 0.931 . S
C655 C654 1.370 . S
C655 C659 1.408 . S
C656 C654 1.363 . S
C656 C657 1.370 . S
C656 C660 1.524 . S
C657 C649 1.503 . S
C657 C656 1.370 . S
C657 C658 1.403 . S
C658 C657 1.403 . S
C658 C659 1.404 . S
C658 C661 1.539 . S
C659 C655 1.408 . S
C659 C658 1.404 . S
C659 H671 0.930 . S
C660 C656 1.524 . S
C660 H672 0.956 . S
C660 H673 0.961 . S
C660 H674 0.961 . S
C661 C658 1.539 . S
C661 H675 0.958 . S
C661 H676 0.961 . S
C661 H677 0.960 . S
H662 C646 0.931 . S
H663 C651 0.929 . S
H664 C652 0.960 . S
H665 C652 0.962 . S
H666 C652 0.960 . S
H667 C653 0.961 . S
H668 C653 0.961 . S
H669 C653 0.961 . S
H670 C654 0.931 . S
H671 C659 0.930 . S
H672 C660 0.956 . S
H673 C660 0.961 . S
H674 C660 0.961 . S
H675 C661 0.958 . S
H676 C661 0.961 . S
H677 C661 0.960 . S
C678 C679 1.391 . S
C678 C680 1.394 . S
C678 H694 0.931 . S
C679 C678 1.391 . S
C679 C683 1.376 . S
C680 C678 1.394 . S
C680 C681 1.369 . S
C680 C684 1.531 . S
C681 C680 1.369 . S
C681 C682 1.410 . S
C681 C689 1.503 . S
C682 C681 1.410 . S
C682 C683 1.392 . S
C682 C685 1.511 1_545 S
C683 C679 1.376 . S
C683 C682 1.392 . S
C683 H695 0.929 1_545 S
C684 C680 1.531 . S
C684 H696 0.960 . S
C684 H697 0.962 . S
C684 H698 0.960 . S
C685 C682 1.511 1_565 S
C685 H699 0.961 . S
C685 H700 0.961 . S
C685 H701 0.961 1_565 S
C686 C687 1.370 . S
C686 C688 1.363 . S
C686 H702 0.931 1_545 S
C687 C686 1.370 . S
C687 C691 1.408 . S
C688 C686 1.363 . S
C688 C689 1.370 . S
C688 C692 1.524 1_545 S
C689 C681 1.503 . S
C689 C688 1.370 . S
C689 C690 1.403 . S
C690 C689 1.403 . S
C690 C691 1.404 . S
C690 C693 1.539 . S
C691 C687 1.408 . S
C691 C690 1.404 . S
C691 H703 0.930 . S
C692 C688 1.524 1_565 S
C692 H704 0.956 . S
C692 H705 0.961 . S
C692 H706 0.961 . S
C693 C690 1.539 . S
C693 H707 0.958 . S
C693 H708 0.961 . S
C693 H709 0.960 . S
H694 C678 0.931 . S
H695 C683 0.929 1_565 S
H696 C684 0.960 . S
H697 C684 0.962 . S
H698 C684 0.960 . S
H699 C685 0.961 . S
H700 C685 0.961 . S
H701 C685 0.961 1_545 S
H702 C686 0.931 1_565 S
H703 C691 0.930 . S
H704 C692 0.956 . S
H705 C692 0.961 . S
H706 C692 0.961 . S
H707 C693 0.958 . S
H708 C693 0.961 . S
H709 C693 0.960 . S
C710 C711 1.391 . S
C710 C712 1.394 . S
C710 H726 0.931 . S
C711 C710 1.391 . S
C711 C715 1.376 . S
C712 C710 1.394 . S
C712 C713 1.369 . S
C712 C716 1.531 . S
C713 C712 1.369 . S
C713 C714 1.410 . S
C713 C721 1.503 1_556 S
C714 C713 1.410 . S
C714 C715 1.392 . S
C714 C717 1.511 . S
C715 C711 1.376 . S
C715 C714 1.392 . S
C715 H727 0.929 . S
C716 C712 1.531 . S
C716 H728 0.980 . S
C716 H729 0.962 . S
C716 H730 0.960 . S
C717 C714 1.511 . S
C717 H731 0.961 . S
C717 H732 0.961 . S
C717 H733 0.961 . S
C718 C719 1.370 . S
C718 C720 1.363 . S
C718 H734 0.931 . S
C719 C718 1.370 . S
C719 C723 1.408 . S
C720 C718 1.363 . S
C720 C721 1.370 . S
C720 C724 1.524 . S
C721 C713 1.503 1_554 S
C721 C720 1.370 . S
C721 C722 1.403 . S
C722 C721 1.403 . S
C722 C723 1.404 . S
C722 C725 1.546 . S
C723 C719 1.408 . S
C723 C722 1.404 . S
C723 H735 0.930 . S
C724 C720 1.524 . S
C724 H736 0.956 1_554 S
C724 H737 0.961 1_554 S
C724 H738 0.961 . S
C725 C722 1.546 . S
C725 H739 0.958 . S
C725 H740 0.968 . S
C725 H741 0.947 1_554 S
H726 C710 0.931 . S
H727 C715 0.929 . S
H728 C716 0.980 . S
H729 C716 0.962 . S
H730 C716 0.960 . S
H731 C717 0.961 . S
H732 C717 0.961 . S
H733 C717 0.961 . S
H734 C718 0.931 . S
H735 C723 0.930 . S
H736 C724 0.956 1_556 S
H737 C724 0.961 1_556 S
H738 C724 0.961 . S
H739 C725 0.958 . S
H740 C725 0.968 . S
H741 C725 0.947 1_556 S
C742 C743 1.391 1_655 S
C742 C744 1.394 . S
C742 H758 0.931 . S
C743 C742 1.391 1_455 S
C743 C747 1.376 . S
C744 C742 1.394 . S
C744 C745 1.369 1_655 S
C744 C748 1.531 . S
C745 C744 1.369 1_455 S
C745 C746 1.410 . S
C745 C753 1.503 . S
C746 C745 1.410 . S
C746 C747 1.392 . S
C746 C749 1.511 . S
C747 C743 1.376 . S
C747 C746 1.392 . S
C747 H759 0.929 . S
C748 C744 1.531 . S
C748 H760 0.960 . S
C748 H761 0.962 . S
C748 H762 0.960 . S
C749 C746 1.511 . S
C749 H763 0.961 . S
C749 H764 0.961 . S
C749 H765 0.961 . S
C750 C751 1.370 . S
C750 C752 1.363 . S
C750 H766 0.931 . S
C751 C750 1.370 . S
C751 C755 1.408 . S
C752 C750 1.363 . S
C752 C753 1.370 . S
C752 C756 1.524 . S
C753 C745 1.503 . S
C753 C752 1.370 . S
C753 C754 1.403 . S
C754 C753 1.403 . S
C754 C755 1.404 . S
C754 C757 1.539 . S
C755 C751 1.408 . S
C755 C754 1.404 . S
C755 H767 0.930 . S
C756 C752 1.524 . S
C756 H768 0.956 1_455 S
C756 H769 0.961 . S
C756 H770 0.961 . S
C757 C754 1.539 . S
C757 H771 0.958 . S
C757 H772 0.961 . S
C757 H773 0.960 . S
H758 C742 0.931 . S
H759 C747 0.929 . S
H760 C748 0.960 . S
H761 C748 0.962 . S
H762 C748 0.960 . S
H763 C749 0.961 . S
H764 C749 0.961 . S
H765 C749 0.961 . S
H766 C750 0.931 . S
H767 C755 0.930 . S
H768 C756 0.956 1_655 S
H769 C756 0.961 . S
H770 C756 0.961 . S
H771 C757 0.958 . S
H772 C757 0.961 . S
H773 C757 0.960 . S
C199 C12 3.017 . S
C207 C189 2.833 . S
C231 C52 2.891 . S
C239 C167 2.865 1_655 S
C263 C111 2.926 . S
C271 C180 2.888 . S
C295 C31 3.029 . S
C303 C193 2.993 . S
C335 C163 2.964 . S
C327 C71 3.164 . S
C367 C176 2.922 . S
C359 C92 3.122 . S
C391 C48 0.304 . S
C399 C141 0.228 . S
C423 C109 0.248 . S
C431 C154 0.193 . S
C455 C29 0.493 . S
C463 C124 0.470 . S
C495 C137 0.425 . S
C487 C69 0.366 . S
C527 C150 0.450 . S
C519 C88 0.328 . S
C551 C8 0.242 . S
C559 C128 0.220 . S
C591 C155 1.243 . S
C583 C17 1.250 . S
C615 C57 1.279 . S
C623 C129 1.276 . S
C647 C97 1.171 . S
C655 C142 1.247 . S
C687 C181 1.804 . S
C679 C42 1.675 . S
C719 C194 1.756 . S
C711 C82 1.739 . S
C743 C2 1.728 . S
C751 C168 1.785 . S
