# Generated by pormake.
# Topology tsx, (6,3)-cn, num edge types: 1
# Building blocks:
#     Node 0, Type 0, BuildingBlock: JUFBIX_clean_sbu_0, # of connection points: 6
#     Node 1, Type 0, BuildingBlock: JUFBIX_clean_sbu_0, # of connection points: 6
#     Node 2, Type 1, BuildingBlock: MIDCAF_clean_linker_0, # of connection points: 3
#     Node 3, Type 1, BuildingBlock: MIDCAF_clean_linker_0, # of connection points: 3
#     Node 4, Type 1, BuildingBlock: MIDCAF_clean_linker_0, # of connection points: 3
#     Node 5, Type 1, BuildingBlock: MIDCAF_clean_linker_0, # of connection points: 3
#     Edge 6, Type (0, 1), BuildingBlock: EZIPEK_clean_linker_0, # of connection points: 2
#     Edge 7, Type (0, 1), BuildingBlock: EZIPEK_clean_linker_0, # of connection points: 2
#     Edge 8, Type (0, 1), BuildingBlock: EZIPEK_clean_linker_0, # of connection points: 2
#     Edge 9, Type (0, 1), BuildingBlock: EZIPEK_clean_linker_0, # of connection points: 2
#     Edge 10, Type (0, 1), BuildingBlock: EZIPEK_clean_linker_0, # of connection points: 2
#     Edge 11, Type (0, 1), BuildingBlock: EZIPEK_clean_linker_0, # of connection points: 2
#     Edge 12, Type (0, 1), BuildingBlock: EZIPEK_clean_linker_0, # of connection points: 2
#     Edge 13, Type (0, 1), BuildingBlock: EZIPEK_clean_linker_0, # of connection points: 2
#     Edge 14, Type (0, 1), BuildingBlock: EZIPEK_clean_linker_0, # of connection points: 2
#     Edge 15, Type (0, 1), BuildingBlock: EZIPEK_clean_linker_0, # of connection points: 2
#     Edge 16, Type (0, 1), BuildingBlock: EZIPEK_clean_linker_0, # of connection points: 2
#     Edge 17, Type (0, 1), BuildingBlock: EZIPEK_clean_linker_0, # of connection points: 2
# Relax obj value: 0.161
# Max RMSD: 0.169
# Mean RMSD: 0.138
data_MOF--net-tsx--node1-JUFBIX_clean_sbu_0--node2-MIDCAF_clean_linker_0--edge1-EZIPEK_clean_linker_0
_symmetry_space_group_name_H-M    P1
_symmetry_Int_Tables_number       1
_symmetry_cell_setting            triclinic
loop_
_symmetry_equiv_pos_as_xyz
'x, y, z'
_cell_length_a     18.551131
_cell_length_b     22.316475
_cell_length_c     34.245881
_cell_angle_alpha  92.611014
_cell_angle_beta   89.173447
_cell_angle_gamma 99.410818
loop_
_atom_site_label
_atom_site_type_symbol
_atom_site_fract_x
_atom_site_fract_y
_atom_site_fract_z
_atom_type_partial_charge
Co0 Co 0.06602 0.99135 0.00068 0.0
C1 C 0.99814 0.0237 0.93439 0.0
Co2 Co 0.97357 0.0414 0.0126 0.0
C3 C 0.16164 0.90097 0.00393 0.0
C4 C 0.19645 0.96755 0.96149 0.0
N5 N 0.14424 0.95152 0.98863 0.0
N6 N 0.22213 0.88475 0.98698 0.0
C7 C 0.24436 0.92653 0.9604 0.0
H8 H 0.13008 0.87598 0.02652 0.0
H9 H 0.19914 0.00638 0.94342 0.0
C10 C 0.04213 0.00932 0.07876 0.0
N11 N 0.8952 0.08097 0.02581 0.0
C12 C 0.87124 0.12762 0.00898 0.0
C13 C 0.85005 0.0684 0.05673 0.0
N14 N 0.81342 0.14457 0.02846 0.0
C15 C 0.80014 0.10766 0.05858 0.0
C16 C 0.93353 0.91554 0.00649 0.0
O17 O 0.08144 0.98404 0.05461 0.0
O18 O 0.9931 0.03705 0.06643 0.0
O19 O 0.91039 0.9655 0.01353 0.0
O20 O 1.00095 0.91594 -0.00098 0.0
O21 O 0.95518 0.04516 0.95853 0.0
H22 H 0.85334 0.03294 0.07683 0.0
H23 H 0.89582 0.14903 0.98318 0.0
O24 O 0.05005 0.9992 0.94688 0.0
O25 O 0.12993 0.06706 0.00248 0.0
O26 O 0.03781 0.11702 0.01158 0.0
C27 C 0.10609 0.11715 0.00738 0.0
H28 H 0.29148 0.9268 0.94134 0.0
H29 H 0.75701 0.10887 0.08009 0.0
Co30 Co 0.56535 0.48229 0.49953 0.0
C31 C 0.4987 0.51669 0.43352 0.0
Co32 Co 0.474 0.53346 0.51174 0.0
C33 C 0.66123 0.39161 0.50205 0.0
C34 C 0.69682 0.46016 0.46098 0.0
N35 N 0.64353 0.44242 0.48725 0.0
N36 N 0.72323 0.3772 0.4858 0.0
C37 C 0.74587 0.42011 0.46003 0.0
H38 H 0.62927 0.36553 0.52405 0.0
H39 H 0.69979 0.49978 0.4436 0.0
C40 C 0.54147 0.49945 0.5776 0.0
N41 N 0.39602 0.57345 0.52504 0.0
C42 C 0.37252 0.62027 0.50815 0.0
C43 C 0.35035 0.56083 0.55574 0.0
N44 N 0.31443 0.63721 0.52735 0.0
C45 C 0.30049 0.60016 0.55736 0.0
C46 C 0.43235 0.40752 0.50481 0.0
O47 O 0.57988 0.47353 0.55331 0.0
O48 O 0.49339 0.5284 0.56551 0.0
O49 O 0.41014 0.45778 0.51229 0.0
O50 O 0.49959 0.40722 0.49711 0.0
O51 O 0.45588 0.53802 0.45778 0.0
H52 H 0.35313 0.52519 0.57578 0.0
H53 H 0.39752 0.6417 0.48245 0.0
O54 O 0.5502 0.49151 0.44581 0.0
O55 O 0.62998 0.55776 0.50223 0.0
O56 O 0.53882 0.60876 0.51117 0.0
C57 C 0.60702 0.60818 0.50733 0.0
H58 H 0.79418 0.42195 0.44173 0.0
H59 H 0.25693 0.60131 0.57863 0.0
C60 C 0.93567 0.20115 0.44475 0.0
C61 C 0.89789 0.19209 0.48017 0.0
C62 C 0.90675 0.14218 0.50214 0.0
C63 C 0.94946 0.09971 0.48735 0.0
H64 H 0.0867 0.95235 0.50929 0.0
H65 H 0.14234 0.87248 0.53873 0.0
H66 H 0.15649 0.78397 0.42503 0.0
H67 H 0.10077 0.86187 0.39571 0.0
H68 H 0.09339 0.92428 0.32171 0.0
H69 H 0.09656 0.92193 0.25028 0.0
H70 H 0.03802 0.10107 0.25168 0.0
H71 H 0.03419 0.10422 0.32317 0.0
H72 H 1.00451 0.16687 0.40196 0.0
H73 H 0.93009 0.23979 0.42763 0.0
H74 H 0.87831 0.13482 0.52979 0.0
H75 H 0.95309 0.0604 0.50389 0.0
N76 N 0.03686 0.01056 0.45038 0.0
N77 N 0.07446 0.96793 0.39103 0.0
N78 N 0.02782 0.05868 0.39136 0.0
C79 C 0.06572 0.96553 0.43036 0.0
C80 C 0.05576 0.01407 0.3713 0.0
C81 C 0.01808 0.05767 0.43073 0.0
C82 C 0.09034 0.91449 0.45007 0.0
C83 C 0.10081 0.91558 0.49072 0.0
C84 C 0.13277 0.8701 0.50753 0.0
C85 C 0.15455 0.82305 0.48382 0.0
C86 C 0.14083 0.8203 0.44369 0.0
C87 C 0.10897 0.86523 0.42703 0.0
C88 C 0.06301 0.01433 0.32823 0.0
C89 C 0.08186 0.96355 0.30698 0.0
C90 C 0.08385 0.96201 0.2662 0.0
C91 C 0.06756 0.01131 0.24611 0.0
C92 C 0.0509 0.06277 0.267 0.0
C93 C 0.04852 0.0643 0.30778 0.0
C94 C 0.9834 0.10656 0.45045 0.0
C95 C 0.97807 0.15909 0.4301 0.0
C96 C 0.87566 0.80958 0.5655 0.0
C97 C 0.83586 0.81453 0.53166 0.0
C98 C 0.85068 0.86794 0.51076 0.0
C99 C 0.90133 0.91735 0.52515 0.0
H100 H 0.11976 0.06043 0.51059 0.0
H101 H 0.21165 0.13936 0.48292 0.0
H102 H 0.18698 0.25894 0.58287 0.0
H103 H 0.09469 0.18142 0.61023 0.0
H104 H 0.09443 0.09399 0.69325 0.0
H105 H 0.08645 0.0955 0.76471 0.0
H106 H 0.88431 0.96896 0.75797 0.0
H107 H 0.89265 0.96586 0.68652 0.0
H108 H 0.95199 0.855 0.60753 0.0
H109 H 0.86518 0.7686 0.58188 0.0
H110 H 0.82039 0.87245 0.48455 0.0
H111 H 0.90899 0.95907 0.50971 0.0
N112 N 0.01734 0.01464 0.56218 0.0
N113 N 0.04367 0.0695 0.62191 0.0
N114 N 0.96832 0.97478 0.62098 0.0
C115 C 0.05167 0.06509 0.58243 0.0
C116 C 1.00189 0.02474 0.64133 0.0
C117 C 0.9757 0.9692 0.58157 0.0
C118 C 0.10015 0.11431 0.56271 0.0
C119 C 0.13253 0.10396 0.52615 0.0
C120 C 0.18526 0.14885 0.51041 0.0
C121 C 0.20616 0.20456 0.53112 0.0
C122 C 0.17158 0.21603 0.56662 0.0
C123 C 0.11904 0.17148 0.58224 0.0
C124 C 0.99449 0.02938 0.68431 0.0
C125 C 0.04795 0.06688 0.70695 0.0
C126 C 0.04351 0.06785 0.74771 0.0
C127 C 0.98497 0.03218 0.76642 0.0
C128 C 0.92997 0.9966 0.74392 0.0
C129 C 0.93504 0.99474 0.70319 0.0
C130 C 0.9363 0.91417 0.56096 0.0
C131 C 0.92507 0.85902 0.58013 0.0
C132 C 0.40591 0.69233 0.93878 0.0
C133 C 0.38446 0.69199 0.97806 0.0
C134 C 0.4057 0.64885 0.00224 0.0
C135 C 0.44646 0.60543 0.98668 0.0
H136 H 0.58854 0.4616 0.00865 0.0
H137 H 0.64586 0.3834 0.03907 0.0
H138 H 0.64731 0.28572 0.92762 0.0
H139 H 0.58915 0.36156 0.8976 0.0
H140 H 0.61944 0.43896 0.82366 0.0
H141 H 0.62616 0.43334 0.7522 0.0
H142 H 0.4968 0.57654 0.74729 0.0
H143 H 0.48981 0.58314 0.81862 0.0
H144 H 0.46053 0.65105 0.89262 0.0
H145 H 0.39028 0.72547 0.91975 0.0
H146 H 0.38974 0.64818 0.03279 0.0
H147 H 0.46135 0.57218 0.00556 0.0
N148 N 0.52645 0.51199 0.94909 0.0
N149 N 0.56776 0.46891 0.8907 0.0
N150 N 0.51376 0.55576 0.8889 0.0
C151 C 0.55861 0.46789 0.93006 0.0
C152 C 0.54566 0.51246 0.86992 0.0
C153 C 0.50389 0.55638 0.92828 0.0
C154 C 0.58501 0.41856 0.95065 0.0
C155 C 0.5999 0.42299 0.99092 0.0
C156 C 0.63303 0.37859 0.00821 0.0
C157 C 0.65184 0.32945 0.98531 0.0
C158 C 0.634 0.32365 0.94565 0.0
C159 C 0.60081 0.3674 0.92857 0.0
C160 C 0.5537 0.51132 0.8269 0.0
C161 C 0.59277 0.46962 0.80748 0.0
C162 C 0.59694 0.46635 0.76673 0.0
C163 C 0.56184 0.50446 0.74489 0.0
C164 C 0.52417 0.54691 0.76397 0.0
C165 C 0.52031 0.55052 0.80469 0.0
C166 C 0.46605 0.60446 0.94682 0.0
C167 C 0.44621 0.64936 0.92336 0.0
C168 C 0.37758 0.3164 0.06087 0.0
C169 C 0.33454 0.32387 0.02873 0.0
C170 C 0.34686 0.37904 0.00962 0.0
C171 C 0.39836 0.42762 0.02431 0.0
H172 H 0.61363 0.57137 0.00822 0.0
H173 H 0.70611 0.65059 0.9812 0.0
H174 H 0.70155 0.75944 0.08815 0.0
H175 H 0.60972 0.68158 0.11521 0.0
H176 H 0.59822 0.5928 0.19386 0.0
H177 H 0.58955 0.59171 0.26523 0.0
H178 H 0.38519 0.46827 0.2565 0.0
H179 H 0.39414 0.46778 0.1851 0.0
H180 H 0.45751 0.35891 0.10202 0.0
H181 H 0.36891 0.27407 0.07588 0.0
H182 H 0.31389 0.38551 0.98478 0.0
H183 H 0.40392 0.47082 0.0106 0.0
N184 N 0.5196 0.52108 0.06169 0.0
N185 N 0.54744 0.5724 0.12239 0.0
N186 N 0.46988 0.47873 0.11967 0.0
C187 C 0.55524 0.56998 0.08287 0.0
C188 C 0.50462 0.52722 0.14094 0.0
C189 C 0.47704 0.47517 0.0802 0.0
C190 C 0.60472 0.61963 0.06406 0.0
C191 C 0.63146 0.61248 0.02573 0.0
C192 C 0.68434 0.65759 0.01027 0.0
C193 C 0.71066 0.71045 0.0329 0.0
C194 C 0.68193 0.71876 0.07039 0.0
C195 C 0.62952 0.67397 0.08579 0.0
C196 C 0.49716 0.52995 0.18391 0.0
C197 C 0.55114 0.56578 0.20711 0.0
C198 C 0.54632 0.56527 0.24781 0.0
C199 C 0.4869 0.52975 0.26591 0.0
C200 C 0.43151 0.49575 0.2429 0.0
C201 C 0.43694 0.49537 0.2022 0.0
C202 C 0.43681 0.42162 0.0586 0.0
C203 C 0.42799 0.3649 0.07578 0.0
C204 C 0.21165 0.18805 0.97985 0.0
C205 C 0.15865 0.1748 0.00996 0.0
C206 C 0.21079 0.2689 0.04582 0.0
C207 C 0.27051 0.27649 0.01919 0.0
N208 N 0.3316 0.24127 0.96216 0.0
N209 N 0.11476 0.19817 0.07489 0.0
C210 C 0.27183 0.23577 0.98631 0.0
C211 C 0.15942 0.21435 0.04368 0.0
N212 N 0.20334 0.15607 0.94476 0.0
N213 N 0.20303 0.3141 0.0731 0.0
H214 H 0.07783 0.1577 0.07551 0.0
H215 H 0.11938 0.22214 0.1018 0.0
H216 H 0.23952 0.35496 0.07539 0.0
H217 H 0.15668 0.31361 0.09071 0.0
H218 H 0.23648 0.16724 0.9205 0.0
H219 H 0.15875 0.12206 0.93867 0.0
H220 H 0.33937 0.20883 0.94034 0.0
H221 H 0.376 0.27633 0.96569 0.0
C222 C 0.22303 0.77402 0.98028 0.0
C223 C 0.25617 0.83273 -0.00594 0.0
C224 C 0.36971 0.79461 0.00728 0.0
C225 C 0.33731 0.73639 0.99216 0.0
N226 N 0.229 0.66604 0.97458 0.0
N227 N 0.3523 0.89644 0.0294 0.0
C228 C 0.26219 0.72457 0.98239 0.0
C229 C 0.32681 0.842 0.01062 0.0
N230 N 0.15639 0.7665 0.96265 0.0
N231 N 0.44224 0.80516 0.01652 0.0
H232 H 0.32106 0.93133 0.03217 0.0
H233 H 0.401 0.90524 0.0449 0.0
H234 H 0.47416 0.77071 0.01573 0.0
H235 H 0.4715 0.84815 0.02337 0.0
H236 H 0.13268 0.72633 0.94805 0.0
H237 H 0.1267 0.80195 0.9602 0.0
H238 H 0.17296 0.65352 0.97053 0.0
H239 H 0.25692 0.62918 0.97581 0.0
C240 C 0.81548 0.85072 0.98636 0.0
C241 C 0.88157 0.85758 0.00782 0.0
C242 C 0.8421 0.75775 0.03507 0.0
C243 C 0.77172 0.75629 0.01917 0.0
N244 N 0.6888 0.80229 0.98124 0.0
N245 N 0.95476 0.82016 0.05636 0.0
C246 C 0.75779 0.80272 -0.00514 0.0
C247 C 0.89478 0.81135 0.03274 0.0
N248 N 0.80858 0.88925 0.95722 0.0
N249 N 0.85834 0.70778 0.05255 0.0
H250 H 0.99412 0.8592 0.05673 0.0
H251 H 0.96228 0.79107 0.07834 0.0
H252 H 0.82064 0.66789 0.05487 0.0
H253 H 0.91087 0.70375 0.06122 0.0
H254 H 0.76456 0.88305 0.93812 0.0
H255 H 0.85031 0.92409 0.9496 0.0
H256 H 0.67315 0.83868 0.9674 0.0
H257 H 0.64576 0.76692 0.98597 0.0
C258 C 0.80668 0.25339 0.02172 0.0
C259 C 0.77276 0.19174 0.01916 0.0
C260 C 0.656 0.22304 0.00415 0.0
C261 C 0.692 0.28391 0.00163 0.0
N262 N 0.80409 0.35637 0.00297 0.0
N263 N 0.66851 0.11655 0.00202 0.0
C264 C 0.76806 0.29911 0.00926 0.0
C265 C 0.6981 0.17618 0.00896 0.0
N266 N 0.87502 0.26827 0.0372 0.0
N267 N 0.58147 0.21027 0.00237 0.0
H268 H 0.69884 0.08133 0.00388 0.0
H269 H 0.61631 0.10245 0.99081 0.0
H270 H 0.54908 0.24386 -0.0007 0.0
H271 H 0.55162 0.16766 0.00766 0.0
H272 H 0.90002 0.31286 0.04347 0.0
H273 H 0.90405 0.23573 0.04714 0.0
H274 H 0.86076 0.36802 0.00374 0.0
H275 H 0.7779 0.39132 -0.00594 0.0
C276 C 0.71523 0.67833 0.48158 0.0
C277 C 0.66044 0.6653 0.51081 0.0
C278 C 0.71142 0.75911 0.5473 0.0
C279 C 0.77265 0.7665 0.52165 0.0
N280 N 0.83696 0.73018 0.46609 0.0
N281 N 0.6142 0.68833 0.5753 0.0
C282 C 0.77559 0.72553 0.48903 0.0
C283 C 0.66004 0.70462 0.54457 0.0
N284 N 0.70847 0.64675 0.44632 0.0
N285 N 0.70201 0.80452 0.57411 0.0
H286 H 0.57748 0.64771 0.5756 0.0
H287 H 0.61781 0.7123 0.60221 0.0
H288 H 0.73814 0.84555 0.57666 0.0
H289 H 0.65466 0.80399 0.59092 0.0
H290 H 0.74316 0.65789 0.42264 0.0
H291 H 0.66373 0.61328 0.43943 0.0
H292 H 0.84547 0.6975 0.44458 0.0
H293 H 0.88188 0.76451 0.47051 0.0
C294 C 0.82478 0.33533 0.51386 0.0
C295 C 0.75851 0.3259 0.49282 0.0
C296 C 0.7736 0.22071 0.47629 0.0
C297 C 0.84531 0.2334 0.49175 0.0
N298 N 0.9397 0.30089 0.52654 0.0
N299 N 0.66915 0.26155 0.45318 0.0
C300 C 0.87067 0.28996 0.51155 0.0
C301 C 0.73192 0.26863 0.47446 0.0
N302 N 0.84328 0.38808 0.53583 0.0
N303 N 0.74606 0.16299 0.4629 0.0
H304 H 0.6374 0.29583 0.45157 0.0
H305 H 0.65064 0.22336 0.43527 0.0
H306 H 0.77583 0.12722 0.46339 0.0
H307 H 0.69201 0.14925 0.45444 0.0
H308 H 0.88803 0.39682 0.55439 0.0
H309 H 0.80993 0.42156 0.53763 0.0
H310 H 0.965 0.34319 0.53759 0.0
H311 H 0.97305 0.26748 0.52667 0.0
C312 C 0.314 0.34341 0.48438 0.0
C313 C 0.37959 0.35001 0.50626 0.0
C314 C 0.33778 0.25134 0.53468 0.0
C315 C 0.26815 0.24995 0.51786 0.0
N316 N 0.18739 0.29499 0.47798 0.0
N317 N 0.45112 0.31308 0.55574 0.0
C318 C 0.25566 0.29581 0.49272 0.0
C319 C 0.39142 0.30428 0.53191 0.0
N320 N 0.30825 0.38185 0.45502 0.0
N321 N 0.35241 0.20198 0.55349 0.0
H322 H 0.49143 0.35145 0.55554 0.0
H323 H 0.45769 0.28476 0.57832 0.0
H324 H 0.31391 0.16277 0.55651 0.0
H325 H 0.40443 0.19761 0.5628 0.0
H326 H 0.26476 0.3759 0.43559 0.0
H327 H 0.35036 0.41656 0.44768 0.0
H328 H 0.17237 0.33095 0.46342 0.0
H329 H 0.14422 0.25955 0.48233 0.0
C330 C 0.30764 0.74613 0.52142 0.0
C331 C 0.27408 0.68446 0.51782 0.0
C332 C 0.15814 0.71573 0.50103 0.0
C333 C 0.19398 0.77684 0.49987 0.0
N334 N 0.30543 0.84984 0.50403 0.0
N335 N 0.1712 0.60929 0.4986 0.0
C336 C 0.26946 0.79212 0.50893 0.0
C337 C 0.20013 0.66889 0.50629 0.0
N338 N 0.37517 0.76071 0.53791 0.0
N339 N 0.08385 0.70271 0.49758 0.0
H340 H 0.20149 0.57416 0.50097 0.0
H341 H 0.11979 0.59516 0.48643 0.0
H342 H 0.05154 0.73622 0.49402 0.0
H343 H 0.05376 0.65984 0.50185 0.0
H344 H 0.39975 0.80516 0.54498 0.0
H345 H 0.4039 0.72791 0.54776 0.0
H346 H 0.36197 0.86184 0.50584 0.0
H347 H 0.27944 0.88502 0.49529 0.0
C348 C 0.1168 0.03551 0.13932 0.0
C349 C 0.05155 0.00577 0.12116 0.0
C350 C 0.99666 0.98056 0.18497 0.0
C351 C 0.06316 0.00755 0.203 0.0
N352 N 0.19026 0.05179 0.19807 0.0
N353 N 0.93467 0.94046 0.12527 0.0
C354 C 0.12451 0.03223 0.18034 0.0
C355 C 0.99293 0.97551 0.14359 0.0
N356 N 0.16972 0.06938 0.11769 0.0
N357 N 0.93643 0.9614 0.20744 0.0
H358 H 0.9298 0.93583 0.09496 0.0
H359 H 0.89416 0.91182 0.13985 0.0
H360 H 0.9374 0.96272 0.23791 0.0
H361 H 0.8842 0.94818 0.19609 0.0
H362 H 0.21454 0.09789 0.12989 0.0
H363 H 0.16624 0.0728 0.08753 0.0
H364 H 0.23892 0.06417 0.18276 0.0
H365 H 0.19733 0.05124 0.22821 0.0
C366 C 0.98571 0.97139 0.86829 0.0
C367 C 0.98792 0.02568 0.89178 0.0
C368 C 0.97503 0.08193 0.8332 0.0
C369 C 0.98348 0.02955 0.80964 0.0
N370 N 1.01102 0.92725 0.80488 0.0
N371 N 0.99748 0.13516 0.89609 0.0
C372 C 0.99254 0.97492 0.82718 0.0
C373 C 0.98556 0.08174 0.8742 0.0
N374 N 0.97494 0.91619 0.8851 0.0
N375 N 0.95559 0.13138 0.81654 0.0
H376 H 1.00782 0.13751 0.926 0.0
H377 H 1.00408 0.17766 0.8839 0.0
H378 H 0.94673 0.13287 0.78661 0.0
H379 H 0.94155 0.16843 0.8328 0.0
H380 H 0.9656 0.87499 0.86894 0.0
H381 H 0.96753 0.91137 0.9151 0.0
H382 H 0.02588 0.88896 0.81683 0.0
H383 H 0.0186 0.92831 0.77468 0.0
C384 C 0.49489 0.46113 0.64196 0.0
C385 C 0.5511 0.49551 0.61992 0.0
C386 C 0.61682 0.53362 0.67988 0.0
C387 C 0.5613 0.49828 0.70177 0.0
N388 N 0.45494 0.42039 0.70455 0.0
N389 N 0.66999 0.5579 0.61618 0.0
C390 C 0.5026 0.45946 0.68302 0.0
C391 C 0.61379 0.52943 0.63837 0.0
N392 N 0.43334 0.43129 0.62368 0.0
N393 N 0.67078 0.57276 0.69893 0.0
H394 H 0.66823 0.55838 0.58579 0.0
H395 H 0.72038 0.57806 0.62746 0.0
H396 H 0.67592 0.57543 0.72929 0.0
H397 H 0.70816 0.60505 0.68512 0.0
H398 H 0.38651 0.41177 0.63842 0.0
H399 H 0.4271 0.42877 0.59342 0.0
H400 H 0.4158 0.38621 0.69233 0.0
H401 H 0.45793 0.4189 0.73487 0.0
C402 C 0.48586 0.46598 0.36697 0.0
C403 C 0.48887 0.51981 0.39099 0.0
C404 C 0.47705 0.57785 0.33311 0.0
C405 C 0.48475 0.52584 0.30901 0.0
N406 N 0.51026 0.42298 0.30309 0.0
N407 N 0.50014 0.62938 0.39646 0.0
C408 C 0.49274 0.47047 0.32593 0.0
C409 C 0.48744 0.5765 0.37404 0.0
N410 N 0.47433 0.41034 0.38322 0.0
N411 N 0.45851 0.62808 0.31699 0.0
H412 H 0.51049 0.63087 0.42635 0.0
H413 H 0.50741 0.67223 0.38473 0.0
H414 H 0.44979 0.63043 0.28711 0.0
H415 H 0.44503 0.66497 0.33364 0.0
H416 H 0.46433 0.36953 0.36667 0.0
H417 H 0.46703 0.40486 0.41317 0.0
H418 H 0.52441 0.38408 0.31458 0.0
H419 H 0.51772 0.42468 0.2729 0.0
loop_
_geom_bond_atom_site_label_1
_geom_bond_atom_site_label_2
_geom_bond_distance
_geom_bond_site_symmetry_2
_ccdc_geom_bond_type
Co0 N5 2.057 . S
Co0 O17 2.021 . S
Co0 O20 2.062 1_455 S
Co0 O24 2.117 1_554 S
Co0 O25 2.020 1_565 S
C1 O21 1.259 1_455 S
C1 O24 1.258 1_545 S
Co2 N11 2.057 . S
Co2 O18 2.117 . S
Co2 O19 2.020 1_545 S
Co2 O21 2.021 1_554 S
Co2 O26 2.062 1_655 S
C3 N5 1.316 . S
C3 N6 1.347 . S
C3 H8 0.931 . S
C4 N5 1.375 1_556 S
C4 C7 1.350 . S
C4 H9 0.930 . S
N5 Co0 2.057 . S
N5 C3 1.316 . S
N5 C4 1.375 1_554 S
N6 C3 1.347 . S
N6 C7 1.373 1_554 S
C7 C4 1.350 . S
C7 N6 1.373 1_556 S
C7 H28 0.931 . S
H8 C3 0.931 . S
H9 C4 0.930 . S
C10 O17 1.259 1_545 S
C10 O18 1.258 1_455 S
N11 Co2 2.057 . S
N11 C12 1.316 . S
N11 C13 1.375 . S
C12 N11 1.316 . S
C12 N14 1.347 . S
C12 H23 0.931 1_554 S
C13 N11 1.375 . S
C13 C15 1.350 . S
C13 H22 0.930 . S
N14 C12 1.347 . S
N14 C15 1.373 . S
C15 C13 1.350 . S
C15 N14 1.373 . S
C15 H29 0.931 . S
C16 O19 1.256 . S
C16 O20 1.255 . S
O17 Co0 2.021 . S
O17 C10 1.259 1_565 S
O18 Co2 2.117 . S
O18 C10 1.258 1_655 S
O19 Co2 2.020 1_565 S
O19 C16 1.256 . S
O20 Co0 2.062 1_655 S
O20 C16 1.255 . S
O21 C1 1.259 1_655 S
O21 Co2 2.021 1_556 S
H22 C13 0.930 . S
H23 C12 0.931 1_556 S
O24 Co0 2.117 1_556 S
O24 C1 1.258 1_565 S
O25 Co0 2.020 1_545 S
O25 C27 1.256 . S
O26 Co2 2.062 1_455 S
O26 C27 1.255 . S
C27 O25 1.256 . S
C27 O26 1.255 . S
H28 C7 0.931 . S
H29 C15 0.931 . S
Co30 N35 2.057 . S
Co30 O47 2.021 . S
Co30 O50 2.062 . S
Co30 O54 2.117 . S
Co30 O55 2.020 . S
C31 O51 1.259 . S
C31 O54 1.258 . S
Co32 N41 2.057 . S
Co32 O48 2.117 . S
Co32 O49 2.020 . S
Co32 O51 2.021 . S
Co32 O56 2.062 . S
C33 N35 1.316 . S
C33 N36 1.347 . S
C33 H38 0.931 . S
C34 N35 1.375 . S
C34 C37 1.350 . S
C34 H39 0.930 . S
N35 Co30 2.057 . S
N35 C33 1.316 . S
N35 C34 1.375 . S
N36 C33 1.347 . S
N36 C37 1.373 . S
C37 C34 1.350 . S
C37 N36 1.373 . S
C37 H58 0.931 . S
H38 C33 0.931 . S
H39 C34 0.930 . S
C40 O47 1.259 . S
C40 O48 1.258 . S
N41 Co32 2.057 . S
N41 C42 1.316 . S
N41 C43 1.375 . S
C42 N41 1.316 . S
C42 N44 1.347 . S
C42 H53 0.931 . S
C43 N41 1.375 . S
C43 C45 1.350 . S
C43 H52 0.930 . S
N44 C42 1.347 . S
N44 C45 1.373 . S
C45 C43 1.350 . S
C45 N44 1.373 . S
C45 H59 0.931 . S
C46 O49 1.256 . S
C46 O50 1.255 . S
O47 Co30 2.021 . S
O47 C40 1.259 . S
O48 Co32 2.117 . S
O48 C40 1.258 . S
O49 Co32 2.020 . S
O49 C46 1.256 . S
O50 Co30 2.062 . S
O50 C46 1.255 . S
O51 C31 1.259 . S
O51 Co32 2.021 . S
H52 C43 0.930 . S
H53 C42 0.931 . S
O54 Co30 2.117 . S
O54 C31 1.258 . S
O55 Co30 2.020 . S
O55 C57 1.256 . S
O56 Co32 2.062 . S
O56 C57 1.255 . S
C57 O55 1.256 . S
C57 O56 1.255 . S
H58 C37 0.931 . S
H59 C45 0.931 . S
C60 C61 1.384 . S
C60 H73 0.947 . S
C60 C95 1.382 . S
C61 C60 1.384 . S
C61 C62 1.378 . S
C62 C61 1.378 . S
C62 C63 1.378 . S
C62 H74 0.952 . S
C63 C62 1.378 . S
C63 H75 0.950 . S
C63 C94 1.383 . S
H64 C83 0.947 . S
H65 C84 0.946 . S
H66 C86 0.953 . S
H67 C87 0.945 . S
H68 C89 0.952 . S
H69 C90 0.949 . S
H70 C92 0.950 . S
H71 C93 0.948 . S
H72 C95 0.951 . S
H73 C60 0.947 . S
H74 C62 0.952 . S
H75 C63 0.950 . S
N76 C79 1.382 1_545 S
N76 C81 1.363 1_455 S
N77 C79 1.371 . S
N77 C80 1.372 1_565 S
N78 C80 1.361 1_655 S
N78 C81 1.377 . S
C79 N76 1.382 1_565 S
C79 N77 1.371 . S
C79 C82 1.480 . S
C80 N77 1.372 1_545 S
C80 N78 1.361 1_455 S
C80 C88 1.457 . S
C81 N76 1.363 1_655 S
C81 N78 1.377 . S
C81 C94 1.479 . S
C82 C79 1.480 . S
C82 C83 1.383 . S
C82 C87 1.385 . S
C83 H64 0.947 . S
C83 C82 1.383 . S
C83 C84 1.388 . S
C84 H65 0.946 . S
C84 C83 1.388 . S
C84 C85 1.384 . S
C85 C84 1.384 . S
C85 C86 1.377 . S
C86 H66 0.953 . S
C86 C85 1.377 . S
C86 C87 1.369 . S
C87 H67 0.945 . S
C87 C82 1.385 . S
C87 C86 1.369 . S
C88 C80 1.457 . S
C88 C89 1.372 1_545 S
C88 C93 1.364 1_455 S
C89 H68 0.952 . S
C89 C88 1.372 1_565 S
C89 C90 1.389 . S
C90 H69 0.949 . S
C90 C89 1.389 . S
C90 C91 1.387 1_565 S
C91 C90 1.387 1_545 S
C91 C92 1.372 1_455 S
C92 H70 0.950 . S
C92 C91 1.372 1_655 S
C92 C93 1.379 . S
C93 H71 0.948 . S
C93 C88 1.364 1_655 S
C93 C92 1.379 . S
C94 C63 1.383 . S
C94 C81 1.479 . S
C94 C95 1.398 . S
C95 C60 1.382 . S
C95 H72 0.951 . S
C95 C94 1.398 . S
C96 C97 1.384 . S
C96 H109 0.947 . S
C96 C131 1.382 . S
C97 C96 1.384 . S
C97 C98 1.378 . S
C98 C97 1.378 . S
C98 C99 1.378 . S
C98 H110 0.952 . S
C99 C98 1.378 . S
C99 H111 0.950 . S
C99 C130 1.383 . S
H100 C119 0.947 . S
H101 C120 0.946 . S
H102 C122 0.953 . S
H103 C123 0.945 . S
H104 C125 0.952 . S
H105 C126 0.949 . S
H106 C128 0.950 . S
H107 C129 0.948 . S
H108 C131 0.951 . S
H109 C96 0.947 . S
H110 C98 0.952 . S
H111 C99 0.950 . S
N112 C115 1.382 . S
N112 C117 1.363 1_445 S
N113 C115 1.371 . S
N113 C116 1.372 . S
N114 C116 1.361 1_665 S
N114 C117 1.377 . S
C115 N112 1.382 . S
C115 N113 1.371 . S
C115 C118 1.480 . S
C116 N113 1.372 . S
C116 N114 1.361 1_445 S
C116 C124 1.457 . S
C117 N112 1.363 1_665 S
C117 N114 1.377 . S
C117 C130 1.479 . S
C118 C115 1.480 . S
C118 C119 1.383 . S
C118 C123 1.385 . S
C119 H100 0.947 . S
C119 C118 1.383 . S
C119 C120 1.388 . S
C120 H101 0.946 . S
C120 C119 1.388 . S
C120 C121 1.384 . S
C121 C120 1.384 . S
C121 C122 1.377 . S
C122 H102 0.953 . S
C122 C121 1.377 . S
C122 C123 1.369 . S
C123 H103 0.945 . S
C123 C118 1.385 . S
C123 C122 1.369 . S
C124 C116 1.457 . S
C124 C125 1.372 . S
C124 C129 1.364 1_445 S
C125 H104 0.952 . S
C125 C124 1.372 . S
C125 C126 1.389 . S
C126 H105 0.949 . S
C126 C125 1.389 . S
C126 C127 1.387 . S
C127 C126 1.387 . S
C127 C128 1.372 1_445 S
C128 H106 0.950 . S
C128 C127 1.372 1_665 S
C128 C129 1.379 . S
C129 H107 0.948 . S
C129 C124 1.364 1_665 S
C129 C128 1.379 . S
C130 C99 1.383 . S
C130 C117 1.479 . S
C130 C131 1.398 . S
C131 C96 1.382 . S
C131 H108 0.951 . S
C131 C130 1.398 . S
C132 C133 1.384 1_556 S
C132 H145 0.947 . S
C132 C167 1.382 . S
C133 C132 1.384 1_554 S
C133 C134 1.378 . S
C134 C133 1.378 . S
C134 C135 1.378 . S
C134 H146 0.952 . S
C135 C134 1.378 . S
C135 H147 0.950 . S
C135 C166 1.383 1_554 S
H136 C155 0.957 . S
H137 C156 0.946 . S
H138 C158 0.953 . S
H139 C159 0.945 . S
H140 C161 0.952 . S
H141 C162 0.949 . S
H142 C164 0.950 . S
H143 C165 0.948 . S
H144 C167 0.951 . S
H145 C132 0.947 . S
H146 C134 0.952 . S
H147 C135 0.950 . S
N148 C151 1.382 . S
N148 C153 1.363 . S
N149 C151 1.371 . S
N149 C152 1.372 . S
N150 C152 1.361 . S
N150 C153 1.377 . S
C151 N148 1.382 . S
C151 N149 1.371 . S
C151 C154 1.480 . S
C152 N149 1.372 . S
C152 N150 1.361 . S
C152 C160 1.457 . S
C153 N148 1.363 . S
C153 N150 1.377 . S
C153 C166 1.479 . S
C154 C151 1.480 . S
C154 C155 1.363 1_556 S
C154 C159 1.385 . S
C155 H136 0.957 . S
C155 C154 1.363 1_554 S
C155 C156 1.398 . S
C156 H137 0.946 . S
C156 C155 1.398 . S
C156 C157 1.384 1_554 S
C157 C156 1.384 1_556 S
C157 C158 1.376 . S
C158 H138 0.953 . S
C158 C157 1.376 . S
C158 C159 1.369 . S
C159 H139 0.945 . S
C159 C154 1.385 . S
C159 C158 1.369 . S
C160 C152 1.457 . S
C160 C161 1.372 . S
C160 C165 1.364 . S
C161 H140 0.952 . S
C161 C160 1.372 . S
C161 C162 1.389 . S
C162 H141 0.949 . S
C162 C161 1.389 . S
C162 C163 1.387 . S
C163 C162 1.387 . S
C163 C164 1.372 . S
C164 H142 0.950 . S
C164 C163 1.372 . S
C164 C165 1.379 . S
C165 H143 0.948 . S
C165 C160 1.364 . S
C165 C164 1.379 . S
C166 C135 1.383 1_556 S
C166 C153 1.479 . S
C166 C167 1.398 . S
C167 C132 1.382 . S
C167 H144 0.951 . S
C167 C166 1.398 . S
C168 C169 1.384 . S
C168 H181 0.947 . S
C168 C203 1.382 . S
C169 C168 1.384 . S
C169 C170 1.378 1_554 S
C170 C169 1.378 1_556 S
C170 C171 1.378 1_556 S
C170 H182 0.952 . S
C171 C170 1.378 1_554 S
C171 H183 0.950 . S
C171 C202 1.383 . S
H172 C191 0.947 . S
H173 C192 0.946 1_556 S
H174 C194 0.953 . S
H175 C195 0.945 . S
H176 C197 0.952 . S
H177 C198 0.949 . S
H178 C200 0.950 . S
H179 C201 0.948 . S
H180 C203 0.951 . S
H181 C168 0.947 . S
H182 C170 0.952 . S
H183 C171 0.950 . S
N184 C187 1.382 . S
N184 C189 1.363 . S
N185 C187 1.371 . S
N185 C188 1.372 . S
N186 C188 1.361 . S
N186 C189 1.377 . S
C187 N184 1.382 . S
C187 N185 1.371 . S
C187 C190 1.480 . S
C188 N185 1.372 . S
C188 N186 1.361 . S
C188 C196 1.457 . S
C189 N184 1.363 . S
C189 N186 1.377 . S
C189 C202 1.479 . S
C190 C187 1.480 . S
C190 C191 1.383 . S
C190 C195 1.385 . S
C191 H172 0.947 . S
C191 C190 1.383 . S
C191 C192 1.388 . S
C192 H173 0.946 1_554 S
C192 C191 1.388 . S
C192 C193 1.384 . S
C193 C192 1.384 . S
C193 C194 1.377 . S
C194 H174 0.953 . S
C194 C193 1.377 . S
C194 C195 1.369 . S
C195 H175 0.945 . S
C195 C190 1.385 . S
C195 C194 1.369 . S
C196 C188 1.457 . S
C196 C197 1.372 . S
C196 C201 1.364 . S
C197 H176 0.952 . S
C197 C196 1.372 . S
C197 C198 1.389 . S
C198 H177 0.949 . S
C198 C197 1.389 . S
C198 C199 1.387 . S
C199 C198 1.387 . S
C199 C200 1.372 . S
C200 H178 0.950 . S
C200 C199 1.372 . S
C200 C201 1.379 . S
C201 H179 0.948 . S
C201 C196 1.364 . S
C201 C200 1.379 . S
C202 C171 1.383 . S
C202 C189 1.479 . S
C202 C203 1.398 . S
C203 C168 1.382 . S
C203 H180 0.951 . S
C203 C202 1.398 . S
C204 C205 1.363 1_556 S
C204 C210 1.379 . S
C204 N212 1.356 . S
C205 C204 1.363 1_554 S
C205 C211 1.363 . S
C206 C207 1.363 . S
C206 C211 1.379 . S
C206 N213 1.356 . S
C207 C206 1.363 . S
C207 C210 1.363 1_554 S
N208 C210 1.356 . S
N208 H220 0.984 . S
N208 H221 0.985 . S
N209 C211 1.356 . S
N209 H214 0.984 . S
N209 H215 0.985 . S
C210 C204 1.379 . S
C210 C207 1.363 1_556 S
C210 N208 1.356 . S
C211 C205 1.363 . S
C211 C206 1.379 . S
C211 N209 1.356 . S
N212 C204 1.356 . S
N212 H218 0.984 . S
N212 H219 0.984 . S
N213 C206 1.356 . S
N213 H216 0.984 . S
N213 H217 0.985 . S
H214 N209 0.984 . S
H215 N209 0.985 . S
H216 N213 0.984 . S
H217 N213 0.985 . S
H218 N212 0.984 . S
H219 N212 0.984 . S
H220 N208 0.984 . S
H221 N208 0.985 . S
C222 C223 1.363 . S
C222 C228 1.379 . S
C222 N230 1.356 . S
C223 C222 1.363 . S
C223 C229 1.363 . S
C224 C225 1.363 . S
C224 C229 1.379 . S
C224 N231 1.356 . S
C225 C224 1.363 . S
C225 C228 1.363 . S
N226 C228 1.356 . S
N226 H238 0.984 . S
N226 H239 0.985 . S
N227 C229 1.356 . S
N227 H232 0.984 . S
N227 H233 0.985 . S
C228 C222 1.379 . S
C228 C225 1.363 . S
C228 N226 1.356 . S
C229 C223 1.363 . S
C229 C224 1.379 . S
C229 N227 1.356 . S
N230 C222 1.356 . S
N230 H236 0.984 . S
N230 H237 0.984 . S
N231 C224 1.356 . S
N231 H234 0.984 . S
N231 H235 0.985 . S
H232 N227 0.984 . S
H233 N227 0.985 . S
H234 N231 0.984 . S
H235 N231 0.985 . S
H236 N230 0.984 . S
H237 N230 0.984 . S
H238 N226 0.984 . S
H239 N226 0.985 . S
C240 C241 1.363 1_556 S
C240 C246 1.379 . S
C240 N248 1.356 . S
C241 C240 1.363 1_554 S
C241 C247 1.363 . S
C242 C243 1.363 . S
C242 C247 1.379 . S
C242 N249 1.356 . S
C243 C242 1.363 . S
C243 C246 1.363 1_554 S
N244 C246 1.356 . S
N244 H256 0.984 . S
N244 H257 0.985 . S
N245 C247 1.356 . S
N245 H250 0.984 . S
N245 H251 0.985 . S
C246 C240 1.379 . S
C246 C243 1.363 1_556 S
C246 N244 1.356 . S
C247 C241 1.363 . S
C247 C242 1.379 . S
C247 N245 1.356 . S
N248 C240 1.356 . S
N248 H254 0.984 . S
N248 H255 0.984 . S
N249 C242 1.356 . S
N249 H252 0.984 . S
N249 H253 0.985 . S
H250 N245 0.984 . S
H251 N245 0.985 . S
H252 N249 0.984 . S
H253 N249 0.985 . S
H254 N248 0.984 . S
H255 N248 0.984 . S
H256 N244 0.984 . S
H257 N244 0.985 . S
C258 C259 1.363 1_556 S
C258 C264 1.379 . S
C258 N266 1.356 . S
C259 C258 1.363 1_554 S
C259 C265 1.363 . S
C260 C261 1.363 . S
C260 C265 1.379 . S
C260 N267 1.356 . S
C261 C260 1.363 . S
C261 C264 1.363 1_554 S
N262 C264 1.356 . S
N262 H274 0.984 . S
N262 H275 0.985 . S
N263 C265 1.356 . S
N263 H268 0.984 . S
N263 H269 0.985 . S
C264 C258 1.379 . S
C264 C261 1.363 1_556 S
C264 N262 1.356 . S
C265 C259 1.363 . S
C265 C260 1.379 . S
C265 N263 1.356 . S
N266 C258 1.356 . S
N266 H272 0.984 . S
N266 H273 0.984 . S
N267 C260 1.356 . S
N267 H270 0.984 . S
N267 H271 0.985 . S
H268 N263 0.984 . S
H269 N263 0.985 . S
H270 N267 0.984 . S
H271 N267 0.985 . S
H272 N266 0.984 . S
H273 N266 0.984 . S
H274 N262 0.984 . S
H275 N262 0.985 . S
C276 C277 1.363 . S
C276 C282 1.379 . S
C276 N284 1.356 . S
C277 C276 1.363 . S
C277 C283 1.363 . S
C278 C279 1.363 . S
C278 C283 1.379 . S
C278 N285 1.356 . S
C279 C278 1.363 . S
C279 C282 1.363 . S
N280 C282 1.356 . S
N280 H292 0.984 . S
N280 H293 0.985 . S
N281 C283 1.356 . S
N281 H286 0.984 . S
N281 H287 0.985 . S
C282 C276 1.379 . S
C282 C279 1.363 . S
C282 N280 1.356 . S
C283 C277 1.363 . S
C283 C278 1.379 . S
C283 N281 1.356 . S
N284 C276 1.356 . S
N284 H290 0.984 . S
N284 H291 0.984 . S
N285 C278 1.356 . S
N285 H288 0.984 . S
N285 H289 0.985 . S
H286 N281 0.984 . S
H287 N281 0.985 . S
H288 N285 0.984 . S
H289 N285 0.985 . S
H290 N284 0.984 . S
H291 N284 0.984 . S
H292 N280 0.984 . S
H293 N280 0.985 . S
C294 C295 1.363 . S
C294 C300 1.379 . S
C294 N302 1.356 . S
C295 C294 1.363 . S
C295 C301 1.363 . S
C296 C297 1.363 . S
C296 C301 1.379 . S
C296 N303 1.356 . S
C297 C296 1.363 . S
C297 C300 1.363 . S
N298 C300 1.356 . S
N298 H310 0.984 . S
N298 H311 0.985 . S
N299 C301 1.356 . S
N299 H304 0.984 . S
N299 H305 0.985 . S
C300 C294 1.379 . S
C300 C297 1.363 . S
C300 N298 1.356 . S
C301 C295 1.363 . S
C301 C296 1.379 . S
C301 N299 1.356 . S
N302 C294 1.356 . S
N302 H308 0.984 . S
N302 H309 0.984 . S
N303 C296 1.356 . S
N303 H306 0.984 . S
N303 H307 0.985 . S
H304 N299 0.984 . S
H305 N299 0.985 . S
H306 N303 0.984 . S
H307 N303 0.985 . S
H308 N302 0.984 . S
H309 N302 0.984 . S
H310 N298 0.984 . S
H311 N298 0.985 . S
C312 C313 1.363 . S
C312 C318 1.379 . S
C312 N320 1.356 . S
C313 C312 1.363 . S
C313 C319 1.363 . S
C314 C315 1.363 . S
C314 C319 1.379 . S
C314 N321 1.356 . S
C315 C314 1.363 . S
C315 C318 1.363 . S
N316 C318 1.356 . S
N316 H328 0.984 . S
N316 H329 0.985 . S
N317 C319 1.356 . S
N317 H322 0.984 . S
N317 H323 0.985 . S
C318 C312 1.379 . S
C318 C315 1.363 . S
C318 N316 1.356 . S
C319 C313 1.363 . S
C319 C314 1.379 . S
C319 N317 1.356 . S
N320 C312 1.356 . S
N320 H326 0.984 . S
N320 H327 0.984 . S
N321 C314 1.356 . S
N321 H324 0.984 . S
N321 H325 0.985 . S
H322 N317 0.984 . S
H323 N317 0.985 . S
H324 N321 0.984 . S
H325 N321 0.985 . S
H326 N320 0.984 . S
H327 N320 0.984 . S
H328 N316 0.984 . S
H329 N316 0.985 . S
C330 C331 1.363 . S
C330 C336 1.379 . S
C330 N338 1.356 . S
C331 C330 1.363 . S
C331 C337 1.363 . S
C332 C333 1.363 . S
C332 C337 1.379 . S
C332 N339 1.356 . S
C333 C332 1.363 . S
C333 C336 1.363 . S
N334 C336 1.356 . S
N334 H346 0.984 . S
N334 H347 0.985 . S
N335 C337 1.356 . S
N335 H340 0.984 . S
N335 H341 0.985 . S
C336 C330 1.379 . S
C336 C333 1.363 . S
C336 N334 1.356 . S
C337 C331 1.363 . S
C337 C332 1.379 . S
C337 N335 1.356 . S
N338 C330 1.356 . S
N338 H344 0.984 . S
N338 H345 0.984 . S
N339 C332 1.356 . S
N339 H342 0.984 . S
N339 H343 0.985 . S
H340 N335 0.984 . S
H341 N335 0.985 . S
H342 N339 0.984 . S
H343 N339 0.985 . S
H344 N338 0.984 . S
H345 N338 0.984 . S
H346 N334 0.984 . S
H347 N334 0.985 . S
C348 C349 1.363 . S
C348 C354 1.379 . S
C348 N356 1.356 . S
C349 C348 1.363 . S
C349 C355 1.363 1_445 S
C350 C351 1.363 1_665 S
C350 C355 1.379 . S
C350 N357 1.356 . S
C351 C350 1.363 1_445 S
C351 C354 1.363 . S
N352 C354 1.356 . S
N352 H364 0.984 . S
N352 H365 0.985 . S
N353 C355 1.356 . S
N353 H358 0.984 . S
N353 H359 0.985 . S
C354 C348 1.379 . S
C354 C351 1.363 . S
C354 N352 1.356 . S
C355 C349 1.363 1_665 S
C355 C350 1.379 . S
C355 N353 1.356 . S
N356 C348 1.356 . S
N356 H362 0.984 . S
N356 H363 0.984 . S
N357 C350 1.356 . S
N357 H360 0.984 . S
N357 H361 0.985 . S
H358 N353 0.984 . S
H359 N353 0.985 . S
H360 N357 0.984 . S
H361 N357 0.985 . S
H362 N356 0.984 . S
H363 N356 0.984 . S
H364 N352 0.984 . S
H365 N352 0.985 . S
C366 C367 1.363 1_565 S
C366 C372 1.379 . S
C366 N374 1.356 . S
C367 C366 1.363 1_545 S
C367 C373 1.363 1_455 S
C368 C369 1.363 1_655 S
C368 C373 1.379 . S
C368 N375 1.356 . S
C369 C368 1.363 1_455 S
C369 C372 1.363 1_545 S
N370 C372 1.356 . S
N370 H382 0.984 . S
N370 H383 0.985 . S
N371 C373 1.356 . S
N371 H376 0.984 . S
N371 H377 0.985 . S
C372 C366 1.379 . S
C372 C369 1.363 1_565 S
C372 N370 1.356 . S
C373 C367 1.363 1_655 S
C373 C368 1.379 . S
C373 N371 1.356 . S
N374 C366 1.356 . S
N374 H380 0.984 . S
N374 H381 0.984 . S
N375 C368 1.356 . S
N375 H378 0.984 . S
N375 H379 0.985 . S
H376 N371 0.984 . S
H377 N371 0.985 . S
H378 N375 0.984 . S
H379 N375 0.985 . S
H380 N374 0.984 . S
H381 N374 0.984 . S
H382 N370 0.984 . S
H383 N370 0.985 . S
C384 C385 1.363 . S
C384 C390 1.379 . S
C384 N392 1.356 . S
C385 C384 1.363 . S
C385 C391 1.363 . S
C386 C387 1.363 . S
C386 C391 1.379 . S
C386 N393 1.356 . S
C387 C386 1.363 . S
C387 C390 1.363 . S
N388 C390 1.356 . S
N388 H400 0.984 . S
N388 H401 0.985 . S
N389 C391 1.356 . S
N389 H394 0.984 . S
N389 H395 0.985 . S
C390 C384 1.379 . S
C390 C387 1.363 . S
C390 N388 1.356 . S
C391 C385 1.363 . S
C391 C386 1.379 . S
C391 N389 1.356 . S
N392 C384 1.356 . S
N392 H398 0.984 . S
N392 H399 0.984 . S
N393 C386 1.356 . S
N393 H396 0.984 . S
N393 H397 0.985 . S
H394 N389 0.984 . S
H395 N389 0.985 . S
H396 N393 0.984 . S
H397 N393 0.985 . S
H398 N392 0.984 . S
H399 N392 0.984 . S
H400 N388 0.984 . S
H401 N388 0.985 . S
C402 C403 1.363 . S
C402 C408 1.379 . S
C402 N410 1.356 . S
C403 C402 1.363 . S
C403 C409 1.363 . S
C404 C405 1.363 . S
C404 C409 1.379 . S
C404 N411 1.356 . S
C405 C404 1.363 . S
C405 C408 1.363 . S
N406 C408 1.356 . S
N406 H418 0.984 . S
N406 H419 0.985 . S
N407 C409 1.356 . S
N407 H412 0.984 . S
N407 H413 0.985 . S
C408 C402 1.379 . S
C408 C405 1.363 . S
C408 N406 1.356 . S
C409 C403 1.363 . S
C409 C404 1.379 . S
C409 N407 1.356 . S
N410 C402 1.356 . S
N410 H416 0.984 . S
N410 H417 0.984 . S
N411 C404 1.356 . S
N411 H414 0.984 . S
N411 H415 0.985 . S
H412 N407 0.984 . S
H413 N407 0.985 . S
H414 N411 0.984 . S
H415 N411 0.985 . S
H416 N410 0.984 . S
H417 N410 0.984 . S
H418 N406 0.984 . S
H419 N406 0.985 . S
C207 C169 1.532 . S
C205 C27 1.588 . S
C223 N6 1.490 . S
C225 C133 1.479 . S
C241 C16 1.561 . S
C243 C193 1.481 . S
C259 N14 1.466 . S
C261 C157 1.438 1_554 S
C277 C57 1.588 . S
C279 C97 1.532 . S
C295 N36 1.490 . S
C297 C61 1.481 . S
C315 C121 1.481 . S
C313 C46 1.561 . S
C333 C85 1.437 . S
C331 N44 1.465 . S
C349 C10 1.394 . S
C351 C91 1.391 . S
C367 C1 1.537 . S
C369 C127 1.535 . S
C387 C163 1.391 . S
C385 C40 1.394 . S
C403 C31 1.537 . S
C405 C199 1.536 . S
