# Generated by pormake.
# Topology pyr, (3,6)-cn, num edge types: 1
# Building blocks:
#     Node 0, Type 0, BuildingBlock: VETTIZ_charged_linker_0, # of connection points: 3
#     Node 1, Type 0, BuildingBlock: VETTIZ_charged_linker_0, # of connection points: 3
#     Node 2, Type 0, BuildingBlock: VETTIZ_charged_linker_0, # of connection points: 3
#     Node 3, Type 0, BuildingBlock: VETTIZ_charged_linker_0, # of connection points: 3
#     Node 4, Type 0, BuildingBlock: VETTIZ_charged_linker_0, # of connection points: 3
#     Node 5, Type 0, BuildingBlock: VETTIZ_charged_linker_0, # of connection points: 3
#     Node 6, Type 0, BuildingBlock: VETTIZ_charged_linker_0, # of connection points: 3
#     Node 7, Type 0, BuildingBlock: VETTIZ_charged_linker_0, # of connection points: 3
#     Node 8, Type 1, BuildingBlock: FUNLAD_clean_sbu_0, # of connection points: 6
#     Node 9, Type 1, BuildingBlock: FUNLAD_clean_sbu_0, # of connection points: 6
#     Node 10, Type 1, BuildingBlock: FUNLAD_clean_sbu_0, # of connection points: 6
#     Node 11, Type 1, BuildingBlock: FUNLAD_clean_sbu_0, # of connection points: 6
#     Edge 12, Type (0, 1), BuildingBlock: UVAHIK_clean_linker_0, # of connection points: 2
#     Edge 13, Type (0, 1), BuildingBlock: UVAHIK_clean_linker_0, # of connection points: 2
#     Edge 14, Type (0, 1), BuildingBlock: UVAHIK_clean_linker_0, # of connection points: 2
#     Edge 15, Type (0, 1), BuildingBlock: UVAHIK_clean_linker_0, # of connection points: 2
#     Edge 16, Type (0, 1), BuildingBlock: UVAHIK_clean_linker_0, # of connection points: 2
#     Edge 17, Type (0, 1), BuildingBlock: UVAHIK_clean_linker_0, # of connection points: 2
#     Edge 18, Type (0, 1), BuildingBlock: UVAHIK_clean_linker_0, # of connection points: 2
#     Edge 19, Type (0, 1), BuildingBlock: UVAHIK_clean_linker_0, # of connection points: 2
#     Edge 20, Type (0, 1), BuildingBlock: UVAHIK_clean_linker_0, # of connection points: 2
#     Edge 21, Type (0, 1), BuildingBlock: UVAHIK_clean_linker_0, # of connection points: 2
#     Edge 22, Type (0, 1), BuildingBlock: UVAHIK_clean_linker_0, # of connection points: 2
#     Edge 23, Type (0, 1), BuildingBlock: UVAHIK_clean_linker_0, # of connection points: 2
#     Edge 24, Type (0, 1), BuildingBlock: UVAHIK_clean_linker_0, # of connection points: 2
#     Edge 25, Type (0, 1), BuildingBlock: UVAHIK_clean_linker_0, # of connection points: 2
#     Edge 26, Type (0, 1), BuildingBlock: UVAHIK_clean_linker_0, # of connection points: 2
#     Edge 27, Type (0, 1), BuildingBlock: UVAHIK_clean_linker_0, # of connection points: 2
#     Edge 28, Type (0, 1), BuildingBlock: UVAHIK_clean_linker_0, # of connection points: 2
#     Edge 29, Type (0, 1), BuildingBlock: UVAHIK_clean_linker_0, # of connection points: 2
#     Edge 30, Type (0, 1), BuildingBlock: UVAHIK_clean_linker_0, # of connection points: 2
#     Edge 31, Type (0, 1), BuildingBlock: UVAHIK_clean_linker_0, # of connection points: 2
#     Edge 32, Type (0, 1), BuildingBlock: UVAHIK_clean_linker_0, # of connection points: 2
#     Edge 33, Type (0, 1), BuildingBlock: UVAHIK_clean_linker_0, # of connection points: 2
#     Edge 34, Type (0, 1), BuildingBlock: UVAHIK_clean_linker_0, # of connection points: 2
#     Edge 35, Type (0, 1), BuildingBlock: UVAHIK_clean_linker_0, # of connection points: 2
# Relax obj value: 0.039
# Max RMSD: 0.057
# Mean RMSD: 0.023
data_MOF--net-pry--node1-FUNLAD_clean_sbu_0--node2-VETTIZ_charged_linker_0--edge1-UVAHIK_clean_linker_0
_symmetry_space_group_name_H-M    P1
_symmetry_Int_Tables_number       1
_symmetry_cell_setting            triclinic
loop_
_symmetry_equiv_pos_as_xyz
'x, y, z'
_cell_length_a     54.585742
_cell_length_b     57.143972
_cell_length_c     57.538022
_cell_angle_alpha  90.131368
_cell_angle_beta   90.101965
_cell_angle_gamma 86.887463
loop_
_atom_site_label
_atom_site_type_symbol
_atom_site_fract_x
_atom_site_fract_y
_atom_site_fract_z
_atom_type_partial_charge
C0 C 0.12703 0.12135 0.2398 0.0
C1 C 0.10651 0.13046 0.25233 0.0
C2 C 0.09449 0.15154 0.24459 0.0
C3 C 0.12313 0.15382 0.21242 0.0
C4 C 0.13501 0.13327 0.22012 0.0
C5 C 0.15682 0.12607 0.20528 0.0
H6 H 0.22811 0.14502 0.11166 0.0
C7 C 0.13613 0.16174 0.19139 0.0
C8 C 0.15595 0.14547 0.18724 0.0
H9 H 0.23707 0.08969 0.1627 0.0
H10 H 0.20122 0.10516 0.18303 0.0
H11 H 0.21716 0.18567 0.14845 0.0
H12 H 0.16967 0.14452 0.1073 0.0
H13 H 0.15705 0.17344 0.10695 0.0
H14 H 0.18728 0.1671 0.09514 0.0
H15 H 0.2124 0.19081 0.11799 0.0
H16 H 0.19263 0.20472 0.13966 0.0
C17 C 0.18018 0.12639 0.22062 0.0
C18 C 0.15224 0.10192 0.1943 0.0
C19 C 0.1056 0.23562 0.14743 0.0
C20 C 0.11392 0.24657 0.12713 0.0
C21 C 0.13496 0.23662 0.11587 0.0
C22 C 0.14725 0.21622 0.12429 0.0
C23 C 0.13864 0.20538 0.14433 0.0
C24 C 0.11818 0.21507 0.15565 0.0
C25 C 0.11186 0.2009 0.17675 0.0
C26 C 0.13186 0.18121 0.17614 0.0
C27 C 0.14747 0.18402 0.15705 0.0
C28 C 0.11402 0.21662 0.19852 0.0
C29 C 0.08604 0.19162 0.17301 0.0
C30 C 0.22256 0.13629 0.12732 0.0
C31 C 0.23561 0.11592 0.13537 0.0
C32 C 0.22728 0.1051 0.15573 0.0
C33 C 0.20648 0.11425 0.16768 0.0
C34 C 0.19372 0.13459 0.15939 0.0
C35 C 0.20191 0.14529 0.13958 0.0
C36 C 0.18638 0.167 0.13352 0.0
C37 C 0.16749 0.16756 0.15293 0.0
C38 C 0.17178 0.14846 0.16798 0.0
C39 C 0.20285 0.18825 0.13475 0.0
C40 C 0.17452 0.16307 0.10942 0.0
H41 H 0.09261 0.17907 0.21976 0.0
H42 H 0.13699 0.10544 0.2454 0.0
H43 H 0.1327 0.10104 0.18895 0.0
H44 H 0.16291 0.09838 0.17829 0.0
H45 H 0.15641 0.08752 0.20687 0.0
H46 H 0.17825 0.14027 0.23419 0.0
H47 H 0.18379 0.10937 0.22961 0.0
H48 H 0.19666 0.13067 0.21071 0.0
H49 H 0.08947 0.24266 0.15651 0.0
H50 H 0.14219 0.24481 0.10057 0.0
H51 H 0.16308 0.2097 0.11479 0.0
H52 H 0.12992 0.2279 0.19692 0.0
H53 H 0.09726 0.2283 0.20083 0.0
H54 H 0.11747 0.20647 0.2146 0.0
H55 H 0.0837 0.18585 0.15469 0.0
H56 H 0.08275 0.17608 0.18365 0.0
H57 H 0.07149 0.20546 0.17675 0.0
H58 H 0.07854 0.15891 0.25373 0.0
C59 C 0.10262 0.1632 0.22475 0.0
C60 C 0.28371 0.87574 0.62595 0.0
C61 C 0.27031 0.89573 0.6344 0.0
C62 C 0.27836 0.90632 0.65506 0.0
C63 C 0.31236 0.87726 0.65828 0.0
C64 C 0.30445 0.86683 0.63813 0.0
C65 C 0.32039 0.84554 0.63159 0.0
H66 H 0.41852 0.77113 0.65332 0.0
C67 C 0.33447 0.86354 0.66668 0.0
C68 C 0.33918 0.84488 0.65113 0.0
H69 H 0.36604 0.76916 0.59697 0.0
H70 H 0.34451 0.80367 0.61187 0.0
H71 H 0.42321 0.82802 0.65314 0.0
H72 H 0.37788 0.7838 0.6935 0.0
H73 H 0.38916 0.80523 0.71204 0.0
H74 H 0.41039 0.78438 0.69809 0.0
H75 H 0.43568 0.80813 0.67479 0.0
H76 H 0.42378 0.83717 0.68235 0.0
C77 C 0.33224 0.85023 0.6077 0.0
C78 C 0.30434 0.82396 0.63211 0.0
C79 C 0.37821 0.88928 0.73988 0.0
C80 C 0.39876 0.88006 0.75232 0.0
C81 C 0.4112 0.85942 0.74398 0.0
C82 C 0.40343 0.84828 0.72365 0.0
C83 C 0.38287 0.85773 0.71144 0.0
C84 C 0.37059 0.87786 0.7197 0.0
C85 C 0.34878 0.88517 0.70485 0.0
C86 C 0.35011 0.8663 0.68619 0.0
C87 C 0.37018 0.85024 0.69004 0.0
C88 C 0.35303 0.90972 0.69473 0.0
C89 C 0.32534 0.88406 0.71989 0.0
C90 C 0.40231 0.77807 0.64428 0.0
C91 C 0.39425 0.76737 0.62368 0.0
C92 C 0.37309 0.77719 0.6125 0.0
C93 C 0.36041 0.79722 0.62131 0.0
C94 C 0.36875 0.80779 0.6417 0.0
C95 C 0.38933 0.79821 0.65291 0.0
C96 C 0.39526 0.81192 0.67449 0.0
C97 C 0.3749 0.83125 0.67425 0.0
C98 C 0.35946 0.82866 0.65494 0.0
C99 C 0.42088 0.82179 0.67127 0.0
C100 C 0.39329 0.79558 0.69575 0.0
H101 H 0.3043 0.90612 0.68257 0.0
H102 H 0.27836 0.86724 0.61003 0.0
H103 H 0.28993 0.82598 0.64574 0.0
H104 H 0.31485 0.80755 0.63669 0.0
H105 H 0.29493 0.8216 0.6152 0.0
H106 H 0.33671 0.86893 0.60612 0.0
H107 H 0.31963 0.84628 0.59322 0.0
H108 H 0.34991 0.84024 0.6051 0.0
H109 H 0.36797 0.90487 0.74594 0.0
H110 H 0.42719 0.85201 0.75305 0.0
H111 H 0.41376 0.83272 0.71822 0.0
H112 H 0.37258 0.91109 0.68973 0.0
H113 H 0.34843 0.9237 0.70769 0.0
H114 H 0.3425 0.91351 0.67867 0.0
H115 H 0.32733 0.86965 0.73285 0.0
H116 H 0.30896 0.88008 0.70962 0.0
H117 H 0.32155 0.90068 0.7296 0.0
H118 H 0.26829 0.92147 0.66229 0.0
C119 C 0.29924 0.89725 0.66697 0.0
C120 C 0.58861 0.35095 0.96587 0.0
C121 C 0.56633 0.3427 0.95774 0.0
C122 C 0.5513 0.35716 0.94317 0.0
C123 C 0.58244 0.38571 0.94206 0.0
C124 C 0.59623 0.3725 0.9579 0.0
C125 C 0.62013 0.38322 0.96351 0.0
H126 H 0.70225 0.46428 0.9394 0.0
C127 C 0.59688 0.40549 0.93479 0.0
C128 C 0.61875 0.40449 0.94766 0.0
H129 H 0.70839 0.40859 0.99003 0.0
H130 H 0.66736 0.39757 0.98075 0.0
H131 H 0.64315 0.48103 0.94896 0.0
H132 H 0.68171 0.43424 0.90126 0.0
H133 H 0.65612 0.44594 0.88605 0.0
H134 H 0.67893 0.46523 0.89628 0.0
H135 H 0.66293 0.49053 0.92633 0.0
H136 H 0.63101 0.48598 0.92083 0.0
C137 C 0.61978 0.39029 0.98952 0.0
C138 C 0.64133 0.36539 0.95665 0.0
C139 C 0.5719 0.4499 0.86189 0.0
C140 C 0.58396 0.46591 0.84811 0.0
C141 C 0.60478 0.47637 0.85711 0.0
C142 C 0.6145 0.46952 0.87881 0.0
C143 C 0.60341 0.45191 0.89146 0.0
C144 C 0.58201 0.44299 0.88328 0.0
C145 C 0.57318 0.4238 0.8984 0.0
C146 C 0.59333 0.42205 0.91661 0.0
C147 C 0.61105 0.43845 0.91241 0.0
C148 C 0.5481 0.43217 0.90899 0.0
C149 C 0.57251 0.40126 0.88337 0.0
C150 C 0.69448 0.44999 0.94871 0.0
C151 C 0.70828 0.43732 0.96553 0.0
C152 C 0.69795 0.4185 0.97698 0.0
C153 C 0.67417 0.41217 0.97157 0.0
C154 C 0.6608 0.42451 0.95417 0.0
C155 C 0.67092 0.44317 0.94315 0.0
C156 C 0.65467 0.45326 0.92412 0.0
C157 C 0.63281 0.43804 0.92601 0.0
C158 C 0.63658 0.42119 0.94357 0.0
C159 C 0.64758 0.47914 0.93015 0.0
C160 C 0.66844 0.44972 0.90067 0.0
H161 H 0.54734 0.38853 0.9237 0.0
H162 H 0.60031 0.34041 0.97746 0.0
H163 H 0.63684 0.35601 0.94034 0.0
H164 H 0.65867 0.37366 0.95289 0.0
H165 H 0.64471 0.35202 0.97043 0.0
H166 H 0.60088 0.39579 0.99527 0.0
H167 H 0.62641 0.37542 1.00069 0.0
H168 H 0.63072 0.4056 0.99316 0.0
H169 H 0.55561 0.44193 0.85556 0.0
H170 H 0.61434 0.48882 0.84682 0.0
H171 H 0.63088 0.47744 0.88444 0.0
H172 H 0.5461 0.45162 0.91012 0.0
H173 H 0.53261 0.42625 0.89832 0.0
H174 H 0.54597 0.42612 0.92711 0.0
H175 H 0.58911 0.39925 0.87218 0.0
H176 H 0.57251 0.385 0.89356 0.0
H177 H 0.55617 0.40192 0.87181 0.0
H178 H 0.53406 0.35125 0.93666 0.0
C179 C 0.55917 0.3787 0.93544 0.0
C180 C 0.939 0.65328 0.46155 0.0
C181 C 0.92586 0.66749 0.47769 0.0
C182 C 0.90411 0.65949 0.48731 0.0
C183 C 0.90713 0.62531 0.46224 0.0
C184 C 0.92922 0.63249 0.45388 0.0
C185 C 0.93916 0.61717 0.43441 0.0
H186 H 0.91447 0.544 0.34773 0.0
C187 C 0.90021 0.605 0.44823 0.0
C188 C 0.91896 0.60007 0.43196 0.0
H189 H 0.98277 0.57663 0.36178 0.0
H190 H 0.96724 0.58979 0.399 0.0
H191 H 0.91212 0.52179 0.39914 0.0
H192 H 0.87718 0.58292 0.36741 0.0
H193 H 0.85487 0.56802 0.38276 0.0
H194 H 0.87124 0.55333 0.35946 0.0
H195 H 0.88459 0.52006 0.38233 0.0
H196 H 0.88369 0.52619 0.41317 0.0
C197 C 0.96372 0.60484 0.44242 0.0
C198 C 0.94134 0.63276 0.41256 0.0
C199 C 0.81569 0.57317 0.45817 0.0
C200 C 0.8028 0.55669 0.44553 0.0
C201 C 0.8146 0.54454 0.42698 0.0
C202 C 0.83866 0.54911 0.42076 0.0
C203 C 0.85101 0.56619 0.43304 0.0
C204 C 0.83968 0.57764 0.45161 0.0
C205 C 0.85543 0.59566 0.46222 0.0
C206 C 0.87832 0.59267 0.4473 0.0
C207 C 0.87546 0.57559 0.43008 0.0
C208 C 0.86077 0.58871 0.48779 0.0
C209 C 0.84204 0.62015 0.45916 0.0
C210 C 0.92638 0.55362 0.35885 0.0
C211 C 0.94961 0.56 0.35119 0.0
C212 C 0.96441 0.57231 0.36664 0.0
C213 C 0.95544 0.57988 0.38833 0.0
C214 C 0.93141 0.57516 0.3947 0.0
C215 C 0.91785 0.56111 0.38069 0.0
C216 C 0.89346 0.55631 0.3913 0.0
C217 C 0.89413 0.571 0.4133 0.0
C218 C 0.91613 0.58251 0.41481 0.0
C219 C 0.89322 0.52973 0.39668 0.0
C220 C 0.87297 0.56545 0.37441 0.0
H221 H 0.87781 0.63352 0.48727 0.0
H222 H 0.95562 0.6591 0.45369 0.0
H223 H 0.9244 0.64424 0.41021 0.0
H224 H 0.94365 0.6228 0.39627 0.0
H225 H 0.95707 0.6442 0.41419 0.0
H226 H 0.96485 0.60359 0.4617 0.0
H227 H 0.97967 0.6145 0.43647 0.0
H228 H 0.96581 0.58647 0.43626 0.0
H229 H 0.807 0.58299 0.47232 0.0
H230 H 0.80514 0.53155 0.4172 0.0
H231 H 0.84651 0.53951 0.40632 0.0
H232 H 0.86476 0.56947 0.48926 0.0
H233 H 0.84475 0.59345 0.49906 0.0
H234 H 0.87711 0.5968 0.49492 0.0
H235 H 0.82953 0.62053 0.44385 0.0
H236 H 0.85473 0.63412 0.45561 0.0
H237 H 0.83078 0.62508 0.47465 0.0
H238 H 0.89383 0.67004 0.49999 0.0
C239 C 0.8948 0.63836 0.47981 0.0
C240 C 0.88296 0.77953 0.88091 0.0
C241 C 0.90376 0.7667 0.87229 0.0
C242 C 0.91519 0.77493 0.8521 0.0
C243 C 0.88515 0.80791 0.84956 0.0
C244 C 0.87407 0.79988 0.86939 0.0
C245 C 0.85226 0.81537 0.87659 0.0
H246 H 0.77521 0.91032 0.85792 0.0
C247 C 0.87119 0.82965 0.84193 0.0
C248 C 0.85191 0.83401 0.85782 0.0
H249 H 0.77411 0.86015 0.914 0.0
H250 H 0.80981 0.83926 0.8983 0.0
H251 H 0.78876 0.87208 0.81659 0.0
H252 H 0.83254 0.9157 0.85915 0.0
H253 H 0.84585 0.91496 0.83142 0.0
H254 H 0.81492 0.92727 0.83504 0.0
H255 H 0.78829 0.90338 0.81371 0.0
H256 H 0.81053 0.88454 0.79858 0.0
C257 C 0.82924 0.80065 0.87544 0.0
C258 C 0.85761 0.82563 0.90094 0.0
C259 C 0.89676 0.87393 0.76945 0.0
C260 C 0.8875 0.89482 0.75878 0.0
C261 C 0.8667 0.9068 0.76858 0.0
C262 C 0.85541 0.89834 0.78851 0.0
C263 C 0.86492 0.87762 0.79905 0.0
C264 C 0.88531 0.86577 0.78957 0.0
C265 C 0.89307 0.84427 0.80354 0.0
C266 C 0.87398 0.84519 0.82285 0.0
C267 C 0.85747 0.86477 0.82003 0.0
C268 C 0.8909 0.82249 0.78779 0.0
C269 C 0.91923 0.84739 0.81304 0.0
C270 C 0.78258 0.89472 0.86668 0.0
C271 C 0.77176 0.88693 0.88729 0.0
C272 C 0.78219 0.86672 0.89829 0.0
C273 C 0.80292 0.85451 0.88905 0.0
C274 C 0.81358 0.86251 0.86853 0.0
C275 C 0.80349 0.88236 0.85774 0.0
C276 C 0.81779 0.88857 0.83642 0.0
C277 C 0.83791 0.86904 0.83611 0.0
C278 C 0.83524 0.85378 0.85491 0.0
C279 C 0.80056 0.88728 0.81511 0.0
C280 C 0.82826 0.91294 0.84046 0.0
H281 H 0.91547 0.80059 0.82539 0.0
H282 H 0.8739 0.77406 0.89656 0.0
H283 H 0.87753 0.8282 0.90324 0.0
H284 H 0.84865 0.84322 0.90371 0.0
H285 H 0.85195 0.81375 0.91497 0.0
H286 H 0.83035 0.78836 0.8604 0.0
H287 H 0.82748 0.79003 0.89143 0.0
H288 H 0.81206 0.81139 0.8727 0.0
H289 H 0.91282 0.86438 0.76254 0.0
H290 H 0.85892 0.92268 0.76062 0.0
H291 H 0.83964 0.90832 0.79495 0.0
H292 H 0.87404 0.82429 0.77691 0.0
H293 H 0.90689 0.82026 0.77591 0.0
H294 H 0.88921 0.80617 0.79772 0.0
H295 H 0.92144 0.86589 0.81837 0.0
H296 H 0.92337 0.83694 0.82881 0.0
H297 H 0.93331 0.8428 0.79963 0.0
H298 H 0.93108 0.76536 0.84488 0.0
C299 C 0.906 0.79537 0.8407 0.0
C300 C 0.7225 0.13349 0.3837 0.0
C301 C 0.73589 0.11355 0.3751 0.0
C302 C 0.72768 0.103 0.35449 0.0
C303 C 0.6936 0.13202 0.35157 0.0
C304 C 0.70165 0.1424 0.37169 0.0
C305 C 0.68576 0.16367 0.37838 0.0
H306 H 0.58753 0.23825 0.35759 0.0
C307 C 0.67142 0.14576 0.34334 0.0
C308 C 0.66683 0.16439 0.35896 0.0
H309 H 0.64034 0.23968 0.4137 0.0
H310 H 0.6618 0.20534 0.3984 0.0
H311 H 0.58282 0.18129 0.35744 0.0
H312 H 0.62805 0.22553 0.31694 0.0
H313 H 0.6163 0.2043 0.29844 0.0
H314 H 0.59546 0.22526 0.31271 0.0
H315 H 0.57023 0.20139 0.33603 0.0
H316 H 0.58198 0.17239 0.32815 0.0
C317 C 0.67407 0.15889 0.40233 0.0
C318 C 0.70181 0.18525 0.37782 0.0
C319 C 0.62712 0.12007 0.27048 0.0
C320 C 0.60649 0.12928 0.25815 0.0
C321 C 0.59416 0.14997 0.26651 0.0
C322 C 0.60208 0.16114 0.28677 0.0
C323 C 0.62271 0.15167 0.29889 0.0
C324 C 0.6349 0.13151 0.29058 0.0
C325 C 0.65681 0.12419 0.30527 0.0
C326 C 0.65564 0.14306 0.32393 0.0
C327 C 0.63556 0.15915 0.32022 0.0
C328 C 0.65263 0.09965 0.31543 0.0
C329 C 0.68014 0.12529 0.29007 0.0
C330 C 0.6038 0.23122 0.36648 0.0
C331 C 0.61197 0.24171 0.38714 0.0
C332 C 0.63321 0.23181 0.39813 0.0
C333 C 0.64584 0.21186 0.38908 0.0
C334 C 0.63737 0.20146 0.36867 0.0
C335 C 0.61672 0.21112 0.35762 0.0
C336 C 0.61063 0.19749 0.33602 0.0
C337 C 0.63097 0.17812 0.33607 0.0
C338 C 0.64654 0.18063 0.3553 0.0
C339 C 0.58501 0.18766 0.33934 0.0
C340 C 0.61249 0.2139 0.31481 0.0
H341 H 0.70151 0.10322 0.32717 0.0
H342 H 0.72795 0.14196 0.3996 0.0
H343 H 0.71611 0.18327 0.36409 0.0
H344 H 0.69127 0.20168 0.37336 0.0
H345 H 0.71134 0.18755 0.39467 0.0
H346 H 0.66976 0.14015 0.40395 0.0
H347 H 0.68672 0.16294 0.41676 0.0
H348 H 0.65634 0.16874 0.40501 0.0
H349 H 0.63731 0.10446 0.26439 0.0
H350 H 0.57812 0.15739 0.2575 0.0
H351 H 0.59183 0.17673 0.29223 0.0
H352 H 0.63313 0.09831 0.32062 0.0
H353 H 0.65707 0.08567 0.30243 0.0
H354 H 0.66333 0.09583 0.33139 0.0
H355 H 0.67804 0.13965 0.27706 0.0
H356 H 0.69658 0.12936 0.30021 0.0
H357 H 0.6839 0.10864 0.28041 0.0
H358 H 0.73773 0.08789 0.34715 0.0
C359 C 0.70668 0.11206 0.34275 0.0
C360 C 0.43951 0.54885 0.15324 0.0
C361 C 0.42755 0.53073 0.16426 0.0
C362 C 0.40773 0.52079 0.1528 0.0
C363 C 0.40953 0.54954 0.12208 0.0
C364 C 0.43025 0.55793 0.13224 0.0
C365 C 0.43956 0.57849 0.11934 0.0
H366 H 0.41631 0.66728 0.04499 0.0
C367 C 0.40258 0.56493 0.10229 0.0
C368 C 0.42037 0.58164 0.1003 0.0
H369 H 0.48116 0.65307 0.08712 0.0
H370 H 0.46632 0.61578 0.09818 0.0
H371 H 0.37712 0.64806 0.08059 0.0
H372 H 0.41619 0.61511 0.02322 0.0
H373 H 0.38725 0.60312 0.02403 0.0
H374 H 0.38936 0.63411 0.01872 0.0
H375 H 0.37269 0.65669 0.0508 0.0
H376 H 0.35624 0.6334 0.06313 0.0
C377 C 0.4391 0.59968 0.13625 0.0
C378 C 0.4653 0.57133 0.10942 0.0
C379 C 0.31844 0.55964 0.06577 0.0
C380 C 0.30548 0.57316 0.04897 0.0
C381 C 0.31743 0.59091 0.03727 0.0
C382 C 0.34159 0.59586 0.04305 0.0
C383 C 0.35387 0.58296 0.06076 0.0
C384 C 0.34251 0.56476 0.07131 0.0
C385 C 0.3584 0.55267 0.08947 0.0
C386 C 0.38112 0.56678 0.08829 0.0
C387 C 0.37818 0.58478 0.07176 0.0
C388 C 0.34498 0.55564 0.11311 0.0
C389 C 0.3638 0.52685 0.0819 0.0
C390 C 0.42753 0.656 0.05631 0.0
C391 C 0.4497 0.66344 0.06561 0.0
C392 C 0.4637 0.64811 0.08023 0.0
C393 C 0.45511 0.6264 0.08659 0.0
C394 C 0.43216 0.61997 0.07844 0.0
C395 C 0.41921 0.63422 0.06285 0.0
C396 C 0.39558 0.62402 0.0554 0.0
C397 C 0.39624 0.60162 0.06964 0.0
C398 C 0.41748 0.59968 0.08345 0.0
C399 C 0.37415 0.64138 0.06268 0.0
C400 C 0.39692 0.61892 0.02896 0.0
H401 H 0.38313 0.52222 0.12424 0.0
H402 H 0.45477 0.55694 0.16147 0.0
H403 H 0.46795 0.552 0.10726 0.0
H404 H 0.46803 0.57847 0.09179 0.0
H405 H 0.4801 0.57702 0.12107 0.0
H406 H 0.42167 0.60086 0.14629 0.0
H407 H 0.45451 0.59793 0.14888 0.0
H408 H 0.44002 0.6167 0.12747 0.0
H409 H 0.30985 0.54557 0.07469 0.0
H410 H 0.30778 0.6015 0.02421 0.0
H411 H 0.34956 0.60992 0.03394 0.0
H412 H 0.33696 0.57385 0.11511 0.0
H413 H 0.32977 0.54356 0.1144 0.0
H414 H 0.35708 0.55274 0.12827 0.0
H415 H 0.36329 0.52498 0.06265 0.0
H416 H 0.38245 0.52012 0.08691 0.0
H417 H 0.3501 0.51523 0.08922 0.0
H418 H 0.39859 0.50638 0.16056 0.0
C419 C 0.39875 0.53003 0.13172 0.0
C420 C 0.06595 0.35889 0.55626 0.0
C421 C 0.07889 0.34312 0.54139 0.0
C422 C 0.1015 0.34949 0.53212 0.0
C423 C 0.09937 0.38515 0.55519 0.0
C424 C 0.07665 0.3794 0.56326 0.0
C425 C 0.06698 0.39574 0.58195 0.0
H426 H 0.09103 0.47494 0.66389 0.0
C427 C 0.10662 0.40602 0.56823 0.0
C428 C 0.08777 0.41216 0.58403 0.0
H429 H 0.02647 0.43509 0.65579 0.0
H430 H 0.04094 0.42106 0.61848 0.0
H431 H 0.09257 0.49218 0.60892 0.0
H432 H 0.12924 0.43616 0.64752 0.0
H433 H 0.15115 0.44938 0.63024 0.0
H434 H 0.13476 0.46657 0.65191 0.0
H435 H 0.11872 0.497 0.62687 0.0
H436 H 0.122 0.48799 0.59684 0.0
C437 C 0.04325 0.40869 0.57278 0.0
C438 C 0.06353 0.38121 0.60445 0.0
C439 C 0.19089 0.43761 0.55586 0.0
C440 C 0.20349 0.45529 0.56703 0.0
C441 C 0.19135 0.46901 0.58433 0.0
C442 C 0.16728 0.46482 0.59082 0.0
C443 C 0.15527 0.4465 0.58016 0.0
C444 C 0.16689 0.43351 0.56269 0.0
C445 C 0.15139 0.41449 0.55363 0.0
C446 C 0.12841 0.41853 0.56824 0.0
C447 C 0.13096 0.43709 0.58396 0.0
C448 C 0.1462 0.41914 0.52755 0.0
C449 C 0.16494 0.39048 0.55878 0.0
C450 C 0.07979 0.46363 0.65377 0.0
C451 C 0.05783 0.45573 0.66289 0.0
C452 C 0.04368 0.44102 0.64927 0.0
C453 C 0.05213 0.43287 0.62765 0.0
C454 C 0.07515 0.4392 0.6197 0.0
C455 C 0.08814 0.45508 0.63219 0.0
C456 C 0.11233 0.4596 0.62094 0.0
C457 C 0.11218 0.44283 0.60039 0.0
C458 C 0.09047 0.4308 0.59998 0.0
C459 C 0.11161 0.48554 0.61307 0.0
C460 C 0.13309 0.45275 0.63847 0.0
H461 H 0.12929 0.37408 0.53173 0.0
H462 H 0.04836 0.35477 0.56343 0.0
H463 H 0.07553 0.36483 0.60453 0.0
H464 H 0.06885 0.39045 0.62039 0.0
H465 H 0.0443 0.37604 0.60623 0.0
H466 H 0.04511 0.41316 0.55407 0.0
H467 H 0.02726 0.3976 0.57447 0.0
H468 H 0.03911 0.42563 0.58162 0.0
H469 H 0.19983 0.42663 0.54266 0.0
H470 H 0.20058 0.48294 0.59294 0.0
H471 H 0.15914 0.47568 0.60426 0.0
H472 H 0.14182 0.43812 0.52447 0.0
H473 H 0.16244 0.41378 0.5168 0.0
H474 H 0.13018 0.41012 0.52104 0.0
H475 H 0.17663 0.39136 0.57459 0.0
H476 H 0.15229 0.37656 0.56266 0.0
H477 H 0.17704 0.38473 0.54411 0.0
H478 H 0.11195 0.3377 0.52066 0.0
C479 C 0.11171 0.37052 0.53882 0.0
C480 C 0.02365 0.01823 0.46195 0.0
N481 N 0.01273 0.05433 0.52437 0.0
C482 C 0.03521 0.06216 0.51939 0.0
C483 C 0.03982 0.08568 0.52233 0.0
C484 C 0.02111 0.10137 0.53045 0.0
C485 C 0.99856 0.09263 0.53694 0.0
C486 C 0.99469 0.06884 0.53363 0.0
Zn487 Zn 0.00594 0.02168 0.51245 0.0
C488 C 0.95783 0.02119 0.48784 0.0
N489 N 0.99454 0.9548 0.48323 0.0
C490 C 0.01245 0.94122 0.47259 0.0
C491 C 0.97235 0.94633 0.48818 0.0
C492 C 0.96778 0.9231 0.48329 0.0
C493 C 0.9862 0.90833 0.47314 0.0
C494 C 0.00864 0.91778 0.46734 0.0
Zn495 Zn 1.00109 0.98731 0.49557 0.0
O496 O 0.02137 0.03116 0.4799 0.0
C497 C 0.04918 0.9878 0.52019 0.0
O498 O 0.01674 0.99733 0.46299 0.0
H499 H 0.95844 0.95734 0.49685 0.0
H500 H 0.04926 0.05044 0.51187 0.0
H501 H 0.02999 0.94833 0.46888 0.0
O502 O 0.041 0.00857 0.52467 0.0
O503 O 0.03626 0.97468 0.50786 0.0
H504 H 0.9769 0.06226 0.5373 0.0
O505 O 0.98567 0.97778 0.52833 0.0
O506 O 0.99016 0.0119 0.54484 0.0
O507 O 0.96588 1.00034 0.48346 0.0
O508 O 0.97088 0.03431 0.50004 0.0
C509 C 0.98327 0.991 0.54611 0.0
H510 H 0.05757 0.09171 0.51748 0.0
H511 H 0.98367 0.10425 0.54321 0.0
H512 H 0.95036 0.91655 0.48845 0.0
H513 H 0.02325 0.90708 0.45927 0.0
C514 C 0.5476 0.98806 0.98921 0.0
N515 N 0.50934 0.05355 0.98309 0.0
C516 C 0.53121 0.06314 0.98713 0.0
C517 C 0.53471 0.08621 0.98075 0.0
C518 C 0.51553 0.09959 0.97005 0.0
C519 C 0.49344 0.08897 0.96529 0.0
C520 C 0.49072 0.06578 0.97201 0.0
Zn521 Zn 0.50413 0.02145 0.99682 0.0
C522 C 0.48123 0.98904 0.96435 0.0
N523 N 0.49428 0.95528 0.02791 0.0
C524 C 0.51291 0.94257 0.03849 0.0
C525 C 0.47234 0.94592 0.02358 0.0
C526 C 0.46891 0.92255 0.0288 0.0
C527 C 0.48822 0.90864 0.03856 0.0
C528 C 0.51022 0.91905 0.04409 0.0
Zn529 Zn 0.49961 0.9875 0.01439 0.0
O530 O 0.53935 0.00874 0.98445 0.0
C531 C 0.52256 0.01992 0.04685 0.0
O532 O 0.53478 0.97518 1.00181 0.0
H533 H 0.45779 0.9563 0.01512 0.0
H534 H 0.5457 0.05316 0.99612 0.0
H535 H 0.53023 0.95036 0.04165 0.0
O536 O 0.51999 0.03258 0.02876 0.0
O537 O 0.51572 0.99898 0.04617 0.0
H538 H 0.47349 0.05778 0.96901 0.0
O539 O 0.4644 1.00024 0.02676 0.0
O540 O 0.469 0.0338 0.00941 0.0
O541 O 0.48378 0.97638 0.98243 0.0
O542 O 0.48805 0.00997 0.96506 0.0
C543 C 0.45618 0.02094 0.02202 0.0
H544 H 0.55191 0.09375 0.98509 0.0
H545 H 0.4783 0.09859 0.95684 0.0
H546 H 0.45153 0.91524 0.02461 0.0
H547 H 0.52557 0.90885 0.05154 0.0
C548 C 0.51679 0.45935 0.49034 0.0
N549 N 0.52008 0.49006 0.55699 0.0
C550 C 0.51146 0.47121 0.56812 0.0
C551 C 0.51688 0.46737 0.5916 0.0
C552 C 0.53152 0.48293 0.60352 0.0
C553 C 0.54077 0.50177 0.59139 0.0
C554 C 0.53467 0.50512 0.56808 0.0
Zn555 Zn 0.5093 0.49826 0.52393 0.0
C556 C 0.5504 0.51727 0.49669 0.0
N557 N 0.48702 0.5185 0.4557 0.0
C558 C 0.47263 0.50325 0.44467 0.0
C559 C 0.49537 0.53745 0.44451 0.0
C560 C 0.48981 0.54122 0.42104 0.0
C561 C 0.47533 0.52545 0.4092 0.0
C562 C 0.46643 0.50648 0.42139 0.0
Zn563 Zn 0.49779 0.51033 0.48874 0.0
O564 O 0.51932 0.46353 0.51194 0.0
C565 C 0.45665 0.49136 0.51596 0.0
O566 O 0.50817 0.47566 0.47719 0.0
H567 H 0.50683 0.54932 0.45362 0.0
H568 H 0.49987 0.45949 0.55896 0.0
H569 H 0.46651 0.48808 0.45373 0.0
O570 O 0.47329 0.48837 0.53129 0.0
O571 O 0.46197 0.50013 0.49648 0.0
H572 H 0.54101 0.5202 0.55905 0.0
O573 O 0.48764 0.54503 0.50075 0.0
O574 O 0.49906 0.53294 0.53545 0.0
O575 O 0.53371 0.52037 0.48143 0.0
O576 O 0.54515 0.50836 0.51613 0.0
C577 C 0.49031 0.54923 0.52233 0.0
H578 H 0.50953 0.45256 0.6004 0.0
H579 H 0.55184 0.51433 0.60006 0.0
H580 H 0.4969 0.55613 0.4122 0.0
H581 H 0.45554 0.49373 0.41278 0.0
C582 C 0.99066 0.55324 0.98953 0.0
N583 N 0.99166 0.52636 0.05776 0.0
C584 C 0.9974 0.54754 0.06643 0.0
C585 C 0.9928 0.55305 0.08976 0.0
C586 C 0.98252 0.53646 0.10436 0.0
C587 C 0.97636 0.51496 0.09466 0.0
C588 C 0.98089 0.51037 0.07126 0.0
Zn589 Zn 1.00072 0.51649 0.02469 0.0
C590 C 0.9586 0.49514 1.00099 0.0
N591 N 0.01935 0.49263 0.95658 0.0
C592 C 0.03315 0.50733 0.94425 0.0
C593 C 0.00989 0.47358 0.94641 0.0
C594 C 0.01332 0.46935 0.92266 0.0
C595 C 0.02678 0.48478 0.90936 0.0
C596 C 0.03733 0.50358 0.92066 0.0
Zn597 Zn 0.01051 0.50222 0.98981 0.0
O598 O 0.98941 0.55046 0.01143 0.0
C599 C 0.05254 0.52381 0.01372 0.0
O600 O 0.99868 0.53612 0.97702 0.0
H601 H 0.99891 0.46215 0.95651 0.0
H602 H 0.00595 0.56 0.05536 0.0
H603 H 0.0403 0.52254 0.95252 0.0
O604 O 0.03674 0.52739 0.02969 0.0
O605 O 0.04641 0.51364 0.99511 0.0
H606 H 0.97636 0.49366 0.06402 0.0
O607 O 0.02215 0.46841 1.00281 0.0
O608 O 0.01239 0.48223 0.03732 0.0
O609 O 0.97449 0.4909 0.98522 0.0
O610 O 0.96469 0.5057 0.01939 0.0
C611 C 0.02065 0.46531 0.02465 0.0
H612 H 0.99748 0.57002 0.09629 0.0
H613 H 0.96885 0.50138 0.10515 0.0
H614 H 0.00467 0.45472 0.9147 0.0
H615 H 0.04833 0.51563 0.91129 0.0
C616 C 0.09685 0.09357 0.2738 0.0
C617 C 0.09782 0.11813 0.27344 0.0
C618 C 0.08873 0.08202 0.29361 0.0
C619 C 0.05413 0.09287 0.34904 0.0
H620 H 0.08395 0.0323 0.36654 0.0
C621 C 0.0379 0.05216 0.43897 0.0
C622 C 0.03319 0.0282 0.44003 0.0
C623 C 0.0457 0.06223 0.41832 0.0
C624 C 0.07526 0.0491 0.36176 0.0
H625 H 0.09145 0.14969 0.29398 0.0
H626 H 0.07776 0.12967 0.32855 0.0
H627 H 0.09776 0.0517 0.3315 0.0
H628 H 0.03356 0.99599 0.42006 0.0
H629 H 0.0475 0.01361 0.38389 0.0
H630 H 0.03199 0.09044 0.37955 0.0
C631 C 0.08263 0.11926 0.31334 0.0
C632 C 0.08314 0.06025 0.3416 0.0
C633 C 0.09057 0.1308 0.29348 0.0
C634 C 0.037 0.01447 0.41989 0.0
C635 C 0.04506 0.02456 0.39918 0.0
C636 C 0.04642 0.08182 0.36925 0.0
C637 C 0.08149 0.09467 0.31373 0.0
C638 C 0.0728 0.0824 0.33499 0.0
C639 C 0.04924 0.04865 0.39808 0.0
C640 C 0.05697 0.05986 0.37599 0.0
H641 H 0.102 0.08325 0.25859 0.0
H642 H 0.08777 0.06315 0.29298 0.0
H643 H 0.04524 0.10959 0.34436 0.0
H644 H 0.03527 0.06335 0.45409 0.0
H645 H 0.0491 0.08073 0.41825 0.0
C646 C 0.40786 0.91635 0.77513 0.0
C647 C 0.40708 0.89181 0.77394 0.0
C648 C 0.41573 0.92736 0.79541 0.0
C649 C 0.45008 0.91518 0.85072 0.0
H650 H 0.41966 0.97506 0.86976 0.0
C651 C 0.46703 0.95491 0.94136 0.0
C652 C 0.47144 0.97892 0.94257 0.0
C653 C 0.459 0.94488 0.92069 0.0
C654 C 0.4285 0.95845 0.86457 0.0
H655 H 0.4135 0.85968 0.79346 0.0
H656 H 0.42675 0.87876 0.82887 0.0
H657 H 0.40598 0.95635 0.8342 0.0
H658 H 0.47034 0.01128 0.9229 0.0
H659 H 0.45606 0.99375 0.88678 0.0
H660 H 0.47229 0.91714 0.88132 0.0
C661 C 0.42191 0.88958 0.81396 0.0
C662 C 0.4207 0.9477 0.84411 0.0
C663 C 0.41424 0.87858 0.79363 0.0
C664 C 0.46713 0.99274 0.92261 0.0
C665 C 0.45886 0.98271 0.90192 0.0
C666 C 0.45771 0.92583 0.87124 0.0
C667 C 0.42287 0.91415 0.81517 0.0
C668 C 0.43132 0.92585 0.83689 0.0
C669 C 0.45494 0.95859 0.90064 0.0
C670 C 0.44699 0.94756 0.8785 0.0
H671 H 0.40277 0.92708 0.7602 0.0
H672 H 0.41657 0.94625 0.79543 0.0
H673 H 0.45914 0.89866 0.84558 0.0
H674 H 0.47009 0.94369 0.95635 0.0
H675 H 0.45584 0.92633 0.92044 0.0
C676 C 0.57186 0.44969 0.80982 0.0
C677 C 0.57653 0.46933 0.82353 0.0
C678 C 0.56568 0.45226 0.78645 0.0
C679 C 0.56976 0.49266 0.73694 0.0
H680 H 0.52334 0.45148 0.70964 0.0
C681 C 0.55976 0.48287 0.63783 0.0
C682 C 0.53614 0.48045 0.62876 0.0
C683 C 0.5638 0.4821 0.66179 0.0
C684 C 0.53612 0.46333 0.71697 0.0
H685 H 0.5784 0.50709 0.82356 0.0
H686 H 0.56707 0.51173 0.78253 0.0
H687 H 0.5307 0.45039 0.75127 0.0
H688 H 0.49821 0.47543 0.63752 0.0
H689 H 0.5051 0.47447 0.67938 0.0
H690 H 0.57466 0.50605 0.70268 0.0
C691 C 0.56852 0.49428 0.78988 0.0
C692 C 0.54059 0.46249 0.74084 0.0
C693 C 0.57492 0.49167 0.81335 0.0
C694 C 0.51667 0.47699 0.64406 0.0
C695 C 0.52065 0.47645 0.66804 0.0
C696 C 0.56513 0.49364 0.71306 0.0
C697 C 0.56386 0.47455 0.77616 0.0
C698 C 0.55774 0.47688 0.75107 0.0
C699 C 0.54425 0.47913 0.67721 0.0
C700 C 0.54849 0.47876 0.70274 0.0
H701 H 0.57357 0.43218 0.81703 0.0
H702 H 0.56287 0.43663 0.77632 0.0
H703 H 0.58322 0.50386 0.74419 0.0
H704 H 0.57513 0.48535 0.62637 0.0
H705 H 0.5823 0.4837 0.6682 0.0
C706 C 0.94972 0.53609 0.31427 0.0
C707 C 0.95739 0.55565 0.32666 0.0
C708 C 0.95427 0.53381 0.29047 0.0
C709 C 0.96967 0.56997 0.23928 0.0
H710 H 0.97659 0.50937 0.20885 0.0
C711 C 0.99629 0.55355 0.1423 0.0
C712 C 0.97923 0.54088 0.12972 0.0
C713 C 0.99424 0.55606 0.16639 0.0
C714 C 0.97465 0.52638 0.21722 0.0
H715 H 0.97695 0.58764 0.32355 0.0
H716 H 0.98643 0.58272 0.28276 0.0
H717 H 0.97407 0.51136 0.25115 0.0
H718 H 0.94589 0.52194 0.13277 0.0
H719 H 0.94316 0.52545 0.17492 0.0
H720 H 0.97114 0.58481 0.20513 0.0
C721 C 0.97595 0.5696 0.29117 0.0
C722 C 0.97304 0.52757 0.24142 0.0
C723 C 0.97094 0.57216 0.31483 0.0
C724 C 0.95977 0.53128 0.14184 0.0
C725 C 0.95806 0.53336 0.16595 0.0
C726 C 0.97183 0.56874 0.21513 0.0
C727 C 0.96709 0.55076 0.27849 0.0
C728 C 0.97024 0.54939 0.25279 0.0
C729 C 0.97539 0.54558 0.1784 0.0
C730 C 0.97403 0.54695 0.20394 0.0
H731 H 0.9397 0.52272 0.3228 0.0
H732 H 0.94696 0.51911 0.28138 0.0
H733 H 0.96697 0.58709 0.24725 0.0
H734 H 0.01173 0.5609 0.13371 0.0
H735 H 0.00783 0.56552 0.17576 0.0
C736 C 0.27428 0.12096 0.11224 0.0
C737 C 0.25784 0.10608 0.12277 0.0
C738 C 0.29517 0.11176 0.10059 0.0
C739 C 0.32263 0.0565 0.07438 0.0
H740 H 0.38294 0.0891 0.07861 0.0
C741 C 0.4171 0.01569 0.0441 0.0
C742 C 0.43248 0.03034 0.0319 0.0
C743 C 0.39533 0.02482 0.05432 0.0
C744 C 0.36618 0.07989 0.07705 0.0
H745 H 0.25061 0.06962 0.12882 0.0
H746 H 0.28736 0.05367 0.10937 0.0
H747 H 0.34625 0.10508 0.09828 0.0
H748 H 0.43679 0.06612 0.02072 0.0
H749 H 0.39893 0.08201 0.03863 0.0
H750 H 0.34288 0.03106 0.0535 0.0
C751 C 0.28392 0.07251 0.10974 0.0
C752 C 0.34506 0.0891 0.0883 0.0
C753 C 0.26294 0.08171 0.12125 0.0
C754 C 0.42541 0.05431 0.02998 0.0
C755 C 0.40377 0.06347 0.04038 0.0
C756 C 0.34383 0.04719 0.06329 0.0
C757 C 0.30038 0.08739 0.09924 0.0
C758 C 0.32293 0.07756 0.08713 0.0
C759 C 0.38852 0.04887 0.05279 0.0
C760 C 0.36587 0.05879 0.06446 0.0
H761 H 0.27123 0.13982 0.11323 0.0
H762 H 0.30715 0.12383 0.09249 0.0
H763 H 0.3059 0.04728 0.07267 0.0
H764 H 0.42197 0.99715 0.04594 0.0
H765 H 0.38411 0.01313 0.0639 0.0
C766 C 0.23178 0.89042 0.61107 0.0
C767 C 0.24801 0.90543 0.62185 0.0
C768 C 0.21088 0.8995 0.59934 0.0
C769 C 0.16845 0.95188 0.59594 0.0
H770 H 0.15022 0.92606 0.53639 0.0
C771 C 0.0883 0.99381 0.54192 0.0
C772 C 0.07299 0.97874 0.53009 0.0
C773 C 0.11016 0.98511 0.55227 0.0
C774 C 0.15483 0.93331 0.55314 0.0
H775 H 0.25494 0.94193 0.62825 0.0
H776 H 0.21832 0.95767 0.60816 0.0
H777 H 0.18703 0.91032 0.55623 0.0
H778 H 0.06885 0.94266 0.51971 0.0
H779 H 0.10665 0.92741 0.53812 0.0
H780 H 0.13612 0.97458 0.59315 0.0
C781 C 0.22171 0.93884 0.60898 0.0
C782 C 0.176 0.92429 0.5645 0.0
C783 C 0.2427 0.92978 0.62056 0.0
C784 C 0.08025 0.95479 0.52859 0.0
C785 C 0.10204 0.94606 0.53907 0.0
C786 C 0.1472 0.96079 0.58468 0.0
C787 C 0.20553 0.92382 0.59822 0.0
C788 C 0.18307 0.93347 0.58604 0.0
C789 C 0.11723 0.96107 0.55122 0.0
C790 C 0.14007 0.95165 0.56309 0.0
H791 H 0.23496 0.87158 0.612 0.0
H792 H 0.19863 0.88742 0.59153 0.0
H793 H 0.17316 0.95912 0.61267 0.0
H794 H 0.08336 0.01238 0.5433 0.0
H795 H 0.12155 0.99731 0.56104 0.0
C796 C 0.75291 0.4257 0.9672 0.0
C797 C 0.73388 0.44291 0.97022 0.0
C798 C 0.77728 0.43111 0.97064 0.0
C799 C 0.81683 0.48217 0.97606 0.0
H800 H 0.86431 0.43472 0.99897 0.0
C801 C 0.91394 0.50048 0.00993 0.0
C802 C 0.9331 0.48846 0.99779 0.0
C803 C 0.88967 0.49474 0.00647 0.0
C804 C 0.85119 0.44805 0.99247 0.0
H805 H 0.72502 0.47903 0.97965 0.0
H806 H 0.76746 0.48834 0.98695 0.0
H807 H 0.82155 0.42523 0.99416 0.0
H808 H 0.94202 0.46076 0.97291 0.0
H809 H 0.89942 0.45018 0.96751 0.0
H810 H 0.84658 0.50519 0.97547 0.0
C811 C 0.76385 0.47086 0.98107 0.0
C812 C 0.82671 0.44264 0.98955 0.0
C813 C 0.7395 0.46554 0.97711 0.0
C814 C 0.92758 0.47033 0.98242 0.0
C815 C 0.90332 0.46424 0.97939 0.0
C816 C 0.84118 0.48768 0.97949 0.0
C817 C 0.78313 0.45378 0.97767 0.0
C818 C 0.80918 0.45961 0.98118 0.0
C819 C 0.88421 0.47655 0.99124 0.0
C820 C 0.85853 0.47064 0.98761 0.0
H821 H 0.74894 0.40818 0.96161 0.0
H822 H 0.79152 0.4176 0.96734 0.0
H823 H 0.80412 0.49558 0.96909 0.0
H824 H 0.91767 0.5146 0.02181 0.0
H825 H 0.87515 0.50439 0.01583 0.0
C826 C 0.76916 0.55044 0.47415 0.0
C827 C 0.77682 0.55282 0.45103 0.0
C828 C 0.74456 0.5471 0.47922 0.0
C829 C 0.68696 0.52872 0.45211 0.0
H830 H 0.6566 0.55894 0.50604 0.0
C831 C 0.58283 0.52922 0.46907 0.0
C832 C 0.57586 0.52325 0.49171 0.0
C833 C 0.6072 0.53367 0.46417 0.0
C834 C 0.6649 0.55028 0.49101 0.0
H835 H 0.76472 0.55412 0.41513 0.0
H836 H 0.7218 0.54866 0.42393 0.0
H837 H 0.69957 0.56486 0.49736 0.0
H838 H 0.58885 0.51784 0.52707 0.0
H839 H 0.63135 0.52575 0.51847 0.0
H840 H 0.65217 0.51437 0.44566 0.0
C841 C 0.73482 0.54876 0.43816 0.0
C842 C 0.68953 0.55359 0.48607 0.0
C843 C 0.75941 0.55192 0.4331 0.0
C844 C 0.59365 0.52234 0.50943 0.0
C845 C 0.61796 0.52699 0.50456 0.0
C846 C 0.66231 0.52557 0.45696 0.0
C847 C 0.72708 0.54626 0.46127 0.0
C848 C 0.70087 0.5428 0.46658 0.0
C849 C 0.62502 0.53245 0.48183 0.0
C850 C 0.65104 0.53627 0.47648 0.0
H851 H 0.78224 0.55086 0.4883 0.0
H852 H 0.73932 0.54487 0.49719 0.0
H853 H 0.6952 0.5198 0.4372 0.0
H854 H 0.56955 0.53009 0.45504 0.0
H855 H 0.6121 0.53808 0.44654 0.0
C856 C 0.09867 0.27123 0.09326 0.0
C857 C 0.10111 0.26827 0.11746 0.0
C858 C 0.08835 0.29209 0.0839 0.0
C859 C 0.07541 0.35498 0.09826 0.0
H860 H 0.03629 0.35438 0.04196 0.0
C861 C 0.02801 0.43966 0.05974 0.0
C862 C 0.02863 0.44245 0.03544 0.0
C863 C 0.03583 0.41835 0.07007 0.0
C864 C 0.04738 0.3549 0.05756 0.0
H865 H 0.09387 0.28502 0.15076 0.0
H866 H 0.07533 0.3213 0.13445 0.0
H867 H 0.0508 0.31746 0.05968 0.0
H868 H 0.03791 0.42477 1.00301 0.0
H869 H 0.0516 0.38763 0.02101 0.0
H870 H 0.07196 0.39246 0.09611 0.0
C871 C 0.08185 0.30754 0.12267 0.0
C872 C 0.05573 0.33368 0.06777 0.0
C873 C 0.09222 0.28659 0.13206 0.0
C874 C 0.03713 0.42327 0.02175 0.0
C875 C 0.04486 0.40191 0.03209 0.0
C876 C 0.06699 0.37621 0.0881 0.0
C877 C 0.07999 0.31069 0.09842 0.0
C878 C 0.07004 0.33337 0.08818 0.0
C879 C 0.04441 0.39916 0.05641 0.0
C880 C 0.05298 0.37649 0.06751 0.0
H881 H 0.10493 0.25741 0.08143 0.0
H882 H 0.08751 0.29382 0.06518 0.0
H883 H 0.08669 0.35556 0.11373 0.0
H884 H 0.02152 0.45399 0.07087 0.0
H885 H 0.03489 0.41685 0.0888 0.0
C886 C 0.53587 0.31259 0.96676 0.0
C887 C 0.56011 0.31817 0.96197 0.0
C888 C 0.52965 0.2892 0.96773 0.0
C889 C 0.54956 0.23166 0.94458 0.0
H890 H 0.50943 0.20678 0.9932 0.0
C891 C 0.54066 0.1328 0.95759 0.0
C892 C 0.51821 0.12486 0.96543 0.0
C893 C 0.5441 0.15673 0.95577 0.0
C894 C 0.52029 0.21354 0.97926 0.0
H895 H 0.59691 0.30366 0.95493 0.0
H896 H 0.5861 0.26292 0.95687 0.0
H897 H 0.51888 0.24805 0.99408 0.0
H898 H 0.48146 0.13588 0.97676 0.0
H899 H 0.48723 0.17768 0.97284 0.0
H900 H 0.55094 0.19734 0.92963 0.0
C901 C 0.5719 0.27661 0.95973 0.0
C902 C 0.52578 0.23714 0.97986 0.0
C903 C 0.57814 0.29993 0.95894 0.0
C904 C 0.49893 0.1414 0.97048 0.0
C905 C 0.50234 0.16537 0.96856 0.0
C906 C 0.54394 0.20815 0.94388 0.0
C907 C 0.54752 0.27103 0.96368 0.0
C908 C 0.54077 0.24631 0.9627 0.0
C909 C 0.52511 0.17331 0.9616 0.0
C910 C 0.52952 0.19872 0.96138 0.0
H911 H 0.52164 0.32632 0.96928 0.0
H912 H 0.51071 0.28535 0.97079 0.0
H913 H 0.56076 0.23841 0.93087 0.0
H914 H 0.55577 0.1205 0.95329 0.0
H915 H 0.56195 0.16221 0.95054 0.0
C916 C 0.91524 0.71045 0.47957 0.0
C917 C 0.93298 0.69182 0.48167 0.0
C918 C 0.92222 0.73356 0.47915 0.0
C919 C 0.97104 0.7726 0.49357 0.0
H920 H 0.94422 0.8095 0.44205 0.0
C921 C 1.00119 0.8661 0.47595 0.0
C922 C 0.9824 0.88294 0.47031 0.0
C923 C 0.99668 0.84225 0.47602 0.0
C924 C 0.95169 0.79956 0.45668 0.0
H925 H 0.97176 0.6828 0.48631 0.0
H926 H 0.98397 0.72342 0.48586 0.0
H927 H 0.93271 0.76923 0.44696 0.0
H928 H 0.94451 0.88782 0.4591 0.0
H929 H 0.9364 0.84647 0.45995 0.0
H930 H 0.98953 0.80307 0.50369 0.0
C931 C 0.96469 0.72004 0.48441 0.0
C932 C 0.9451 0.77649 0.45947 0.0
C933 C 0.95773 0.69684 0.4846 0.0
C934 C 0.95929 0.87533 0.46385 0.0
C935 C 0.95474 0.85155 0.46407 0.0
C936 C 0.97745 0.7958 0.49093 0.0
C937 C 0.94706 0.73854 0.481 0.0
C938 C 0.95453 0.76286 0.47804 0.0
C939 C 0.97324 0.83473 0.47055 0.0
C940 C 0.96769 0.80963 0.47255 0.0
H941 H 0.89607 0.70714 0.47699 0.0
H942 H 0.90824 0.74755 0.47679 0.0
H943 H 0.97849 0.76247 0.50808 0.0
H944 H 0.01915 0.87135 0.4812 0.0
H945 H 0.01146 0.82975 0.4807 0.0
C946 C 0.41675 0.72776 0.62821 0.0
C947 C 0.40738 0.74597 0.61377 0.0
C948 C 0.4275 0.70706 0.61865 0.0
C949 C 0.45345 0.68135 0.56349 0.0
H950 H 0.439 0.62241 0.59224 0.0
C951 C 0.47332 0.59102 0.51849 0.0
C952 C 0.48266 0.57246 0.5325 0.0
C953 C 0.46539 0.61256 0.52845 0.0
C954 C 0.44345 0.63872 0.58411 0.0
H955 H 0.40311 0.75691 0.57783 0.0
H956 H 0.42109 0.72082 0.56126 0.0
H957 H 0.42351 0.65913 0.60973 0.0
H958 H 0.49122 0.56222 0.56804 0.0
H959 H 0.47748 0.59959 0.58526 0.0
H960 H 0.47307 0.66079 0.53764 0.0
C961 C 0.42037 0.72249 0.58 0.0
C962 C 0.43461 0.65984 0.59421 0.0
C963 C 0.40971 0.74316 0.58954 0.0
C964 C 0.48408 0.57606 0.55666 0.0
C965 C 0.47604 0.59749 0.5666 0.0
C966 C 0.46219 0.6602 0.55332 0.0
C967 C 0.42919 0.70401 0.59438 0.0
C968 C 0.43942 0.68149 0.58402 0.0
C969 C 0.46645 0.61599 0.55267 0.0
C970 C 0.45728 0.63859 0.56348 0.0
H971 H 0.4152 0.72921 0.64693 0.0
H972 H 0.43441 0.69341 0.63032 0.0
H973 H 0.45791 0.69762 0.5553 0.0
H974 H 0.47193 0.58887 0.49983 0.0
H975 H 0.45791 0.62635 0.51721 0.0
C976 C 0.90656 0.88951 0.71897 0.0
C977 C 0.8992 0.90431 0.73755 0.0
C978 C 0.91617 0.89875 0.69854 0.0
C979 C 0.94507 0.95103 0.67475 0.0
H980 H 0.92211 0.92842 0.61547 0.0
C981 C 0.9689 0.996 0.58767 0.0
C982 C 0.97323 0.9816 0.56809 0.0
C983 C 0.95992 0.98675 0.60839 0.0
C984 C 0.92905 0.93477 0.63182 0.0
H985 H 0.89708 0.94041 0.74939 0.0
H986 H 0.91376 0.95647 0.71389 0.0
H987 H 0.90747 0.91153 0.65135 0.0
H988 H 0.97157 0.94602 0.55514 0.0
H989 H 0.95655 0.92991 0.59111 0.0
H990 H 0.96686 0.9741 0.65528 0.0
C991 C 0.91208 0.93771 0.71505 0.0
C992 C 0.92059 0.92504 0.65246 0.0
C993 C 0.90229 0.9285 0.73536 0.0
C994 C 0.96833 0.95774 0.56978 0.0
C995 C 0.95952 0.94848 0.59047 0.0
C996 C 0.95368 0.96066 0.6541 0.0
C997 C 0.91893 0.92301 0.69625 0.0
C998 C 0.92844 0.93305 0.67423 0.0
C999 C 0.95514 0.9628 0.61013 0.0
C1000 C 0.94579 0.9527 0.63228 0.0
H1001 H 0.90432 0.87082 0.71999 0.0
H1002 H 0.92148 0.88687 0.68452 0.0
H1003 H 0.95176 0.95745 0.69118 0.0
H1004 H 0.9724 0.01447 0.587 0.0
H1005 H 0.95648 0.99847 0.62296 0.0
C1006 C 0.59723 0.09289 0.23557 0.0
C1007 C 0.59803 0.11745 0.23662 0.0
C1008 C 0.58951 0.08177 0.2153 0.0
C1009 C 0.58295 0.0903 0.15187 0.0
H1010 H 0.53821 0.04002 0.15546 0.0
C1011 C 0.53711 0.054 0.0697 0.0
C1012 C 0.53258 0.03001 0.06855 0.0
C1013 C 0.54569 0.06395 0.0902 0.0
C1014 C 0.55102 0.05377 0.15408 0.0
H1015 H 0.5915 0.1495 0.21696 0.0
H1016 H 0.57804 0.13013 0.18163 0.0
H1017 H 0.55188 0.05865 0.19105 0.0
H1018 H 0.5339 0.99765 0.08819 0.0
H1019 H 0.54945 0.01488 0.12385 0.0
H1020 H 0.58245 0.08535 0.11502 0.0
C1021 C 0.58343 0.11945 0.1965 0.0
C1022 C 0.55879 0.06452 0.17456 0.0
C1023 C 0.59092 0.13059 0.21684 0.0
C1024 C 0.53712 0.01619 0.08845 0.0
C1025 C 0.54588 0.02615 0.10898 0.0
C1026 C 0.57535 0.07945 0.13143 0.0
C1027 C 0.58262 0.09489 0.19545 0.0
C1028 C 0.57471 0.08306 0.17371 0.0
C1029 C 0.55021 0.05023 0.1102 0.0
C1030 C 0.55909 0.06114 0.13217 0.0
H1031 H 0.60239 0.08224 0.25052 0.0
H1032 H 0.58928 0.06283 0.21506 0.0
H1033 H 0.59556 0.10424 0.15057 0.0
H1034 H 0.53368 0.06527 0.0548 0.0
H1035 H 0.54829 0.0826 0.09044 0.0
C1036 C 0.45799 0.52464 0.19688 0.0
C1037 C 0.43368 0.52455 0.18874 0.0
C1038 C 0.46305 0.52309 0.22067 0.0
C1039 C 0.43242 0.53593 0.27656 0.0
H1040 H 0.49042 0.50413 0.30312 0.0
C1041 C 0.4469 0.52451 0.37513 0.0
C1042 C 0.47045 0.52783 0.38399 0.0
C1043 C 0.44274 0.52449 0.3512 0.0
C1044 C 0.47428 0.5133 0.29587 0.0
H1045 H 0.3958 0.52139 0.19923 0.0
H1046 H 0.40476 0.51771 0.24041 0.0
H1047 H 0.48255 0.50097 0.26144 0.0
H1048 H 0.50804 0.5341 0.37486 0.0
H1049 H 0.50071 0.53423 0.3329 0.0
H1050 H 0.42406 0.54811 0.31097 0.0
C1051 C 0.41985 0.51962 0.22849 0.0
C1052 C 0.46976 0.51146 0.27204 0.0
C1053 C 0.41477 0.52133 0.20478 0.0
C1054 C 0.48965 0.53171 0.36848 0.0
C1055 C 0.48553 0.53151 0.34451 0.0
C1056 C 0.43688 0.53767 0.30035 0.0
C1057 C 0.44392 0.52129 0.23678 0.0
C1058 C 0.44871 0.52269 0.26213 0.0
C1059 C 0.46209 0.52764 0.33564 0.0
C1060 C 0.45782 0.52634 0.31026 0.0
H1061 H 0.47304 0.52674 0.18496 0.0
H1062 H 0.48181 0.52443 0.22646 0.0
H1063 H 0.41635 0.54529 0.26942 0.0
H1064 H 0.43174 0.52162 0.38672 0.0
H1065 H 0.42451 0.52134 0.34486 0.0
C1066 C 0.04517 0.44167 0.70177 0.0
C1067 C 0.05122 0.46036 0.68745 0.0
C1068 C 0.04093 0.44522 0.72542 0.0
C1069 C 0.05378 0.48619 0.77318 0.0
H1070 H 0.00663 0.45025 0.80619 0.0
C1071 C 0.02826 0.50209 0.86939 0.0
C1072 C 0.02888 0.48213 0.88371 0.0
C1073 C 0.03029 0.49986 0.84533 0.0
C1074 C 0.01995 0.46027 0.79717 0.0
H1075 H 0.05701 0.49752 0.68644 0.0
H1076 H 0.04883 0.504 0.72781 0.0
H1077 H 0.01007 0.44664 0.76406 0.0
H1078 H 0.032 0.44409 0.88377 0.0
H1079 H 0.03485 0.44024 0.84152 0.0
H1080 H 0.06323 0.50012 0.8064 0.0
C1081 C 0.04792 0.48645 0.72084 0.0
C1082 C 0.02199 0.4582 0.77306 0.0
C1083 C 0.05246 0.48282 0.69716 0.0
C1084 C 0.03118 0.45983 0.87328 0.0
C1085 C 0.03288 0.4576 0.84913 0.0
C1086 C 0.05149 0.48848 0.79725 0.0
C1087 C 0.0424 0.46761 0.73532 0.0
C1088 C 0.03912 0.47095 0.76078 0.0
C1089 C 0.03259 0.47762 0.83498 0.0
C1090 C 0.03472 0.47539 0.80946 0.0
H1091 H 0.0446 0.42406 0.69485 0.0
H1092 H 0.03727 0.4302 0.73605 0.0
H1093 H 0.06748 0.49594 0.76441 0.0
H1094 H 0.02585 0.51954 0.8767 0.0
H1095 H 0.02966 0.51554 0.83475 0.0
C1096 C 0.72966 0.90703 0.88343 0.0
C1097 C 0.74969 0.89959 0.89747 0.0
C1098 C 0.70835 0.91759 0.89334 0.0
C1099 C 0.67553 0.92348 0.95002 0.0
H1100 H 0.63677 0.97217 0.91785 0.0
C1101 C 0.57883 0.95493 0.98192 0.0
C1102 C 0.57144 0.97876 0.97951 0.0
C1103 C 0.60079 0.9459 0.97204 0.0
C1104 C 0.64747 0.95877 0.92724 0.0
H1105 H 0.76342 0.89842 0.93283 0.0
H1106 H 0.72666 0.91722 0.95004 0.0
H1107 H 0.67483 0.95622 0.90058 0.0
H1108 H 0.58166 0.01185 0.96506 0.0
H1109 H 0.62022 0.99626 0.94835 0.0
H1110 H 0.64863 0.92647 0.977 0.0
C1111 C 0.72698 0.91428 0.93144 0.0
C1112 C 0.6692 0.94935 0.91714 0.0
C1113 C 0.74816 0.90357 0.92156 0.0
C1114 C 0.58672 0.99339 0.96719 0.0
C1115 C 0.60879 0.98438 0.95743 0.0
C1116 C 0.65391 0.93297 0.96018 0.0
C1117 C 0.70661 0.92117 0.91754 0.0
C1118 C 0.68354 0.93152 0.92836 0.0
C1119 C 0.61611 0.96047 0.95961 0.0
C1120 C 0.63948 0.95069 0.94891 0.0
H1121 H 0.73017 0.90403 0.86484 0.0
H1122 H 0.693 0.92236 0.88206 0.0
H1123 H 0.68579 0.90956 0.95911 0.0
H1124 H 0.56745 0.94309 0.99115 0.0
H1125 H 0.6055 0.92733 0.9738 0.0
C1126 C 0.7746 0.11901 0.39809 0.0
C1127 C 0.75837 0.10394 0.38743 0.0
C1128 C 0.79566 0.11004 0.40963 0.0
C1129 C 0.82383 0.05522 0.43564 0.0
H1130 H 0.88377 0.08836 0.43123 0.0
C1131 C 0.91862 0.01547 0.46606 0.0
C1132 C 0.93403 0.03038 0.47801 0.0
C1133 C 0.89674 0.02436 0.45586 0.0
C1134 C 0.86712 0.07902 0.43285 0.0
H1135 H 0.7517 0.06741 0.38093 0.0
H1136 H 0.78875 0.05185 0.40028 0.0
H1137 H 0.84684 0.10385 0.41154 0.0
H1138 H 0.93827 0.06633 0.48883 0.0
H1139 H 0.90016 0.08179 0.471 0.0
H1140 H 0.84438 0.03016 0.45665 0.0
C1141 C 0.785 0.07065 0.40007 0.0
C1142 C 0.84587 0.08793 0.42157 0.0
C1143 C 0.76386 0.07962 0.38864 0.0
C1144 C 0.92687 0.05434 0.47975 0.0
C1145 C 0.90509 0.06324 0.4694 0.0
C1146 C 0.84514 0.04622 0.44678 0.0
C1147 C 0.80123 0.08573 0.41073 0.0
C1148 C 0.8239 0.07618 0.42282 0.0
C1149 C 0.88982 0.0484 0.4572 0.0
C1150 C 0.86704 0.05802 0.44554 0.0
H1151 H 0.77123 0.13784 0.39732 0.0
H1152 H 0.80748 0.12224 0.41785 0.0
H1153 H 0.80721 0.04587 0.43736 0.0
H1154 H 0.92356 0.99693 0.46437 0.0
H1155 H 0.88551 0.01247 0.44644 0.0
C1156 C 0.26319 0.5675 0.06352 0.0
C1157 C 0.27924 0.56943 0.04467 0.0
C1158 C 0.23847 0.56373 0.0598 0.0
C1159 C 0.18963 0.56709 0.01478 0.0
H1160 H 0.15788 0.52547 0.057 0.0
C1161 C 0.09427 0.53048 0.99795 0.0
C1162 C 0.07796 0.5309 0.01686 0.0
C1163 C 0.11856 0.5364 1.00105 0.0
C1164 C 0.16645 0.53731 0.04521 0.0
H1165 H 0.2821 0.56908 0.00714 0.0
H1166 H 0.23889 0.56186 1.00052 0.0
H1167 H 0.20096 0.53296 0.06261 0.0
H1168 H 0.07422 0.53815 0.05375 0.0
H1169 H 0.11677 0.54824 0.05916 0.0
H1170 H 0.15504 0.57086 0.99708 0.0
C1171 C 0.24529 0.56373 0.01821 0.0
C1172 C 0.19113 0.54167 0.04843 0.0
C1173 C 0.27005 0.56776 0.02196 0.0
C1174 C 0.08635 0.53764 0.03885 0.0
C1175 C 0.11071 0.5433 0.04199 0.0
C1176 C 0.16497 0.56251 0.01141 0.0
C1177 C 0.22923 0.56154 0.03711 0.0
C1178 C 0.20302 0.55671 0.03334 0.0
C1179 C 0.12707 0.54261 0.02314 0.0
C1180 C 0.15314 0.54766 0.02667 0.0
H1181 H 0.26973 0.56917 0.08121 0.0
H1182 H 0.22657 0.56272 0.07475 0.0
H1183 H 0.19808 0.57902 1.00302 0.0
H1184 H 0.08833 0.52544 0.98077 0.0
H1185 H 0.13084 0.53557 0.98627 0.0
C1186 C 0.23748 0.45939 0.53828 0.0
C1187 C 0.22951 0.45878 0.56145 0.0
C1188 C 0.26214 0.46241 0.53317 0.0
C1189 C 0.31945 0.48272 0.55953 0.0
H1190 H 0.35047 0.44915 0.50781 0.0
C1191 C 0.42387 0.48056 0.54374 0.0
C1192 C 0.43114 0.48553 0.52094 0.0
C1193 C 0.39941 0.47644 0.54861 0.0
C1194 C 0.34198 0.45872 0.52222 0.0
H1195 H 0.24111 0.46029 0.59744 0.0
H1196 H 0.28413 0.46509 0.58862 0.0
H1197 H 0.30737 0.44384 0.51645 0.0
H1198 H 0.41862 0.48941 0.48526 0.0
H1199 H 0.37596 0.48197 0.49379 0.0
H1200 H 0.35423 0.49731 0.56545 0.0
C1201 C 0.27133 0.4639 0.57432 0.0
C1202 C 0.31727 0.45578 0.52713 0.0
C1203 C 0.24667 0.4611 0.5794 0.0
C1204 C 0.41358 0.48569 0.50302 0.0
C1205 C 0.38919 0.48132 0.50786 0.0
C1206 C 0.34419 0.48547 0.55475 0.0
C1207 C 0.27939 0.46466 0.55115 0.0
C1208 C 0.30568 0.46778 0.54583 0.0
C1209 C 0.38181 0.47694 0.53074 0.0
C1210 C 0.35569 0.47355 0.53603 0.0
H1211 H 0.22458 0.45782 0.5241 0.0
H1212 H 0.26761 0.46329 0.51513 0.0
H1213 H 0.31104 0.49259 0.57378 0.0
H1214 H 0.43697 0.4803 0.55792 0.0
H1215 H 0.39424 0.47287 0.56637 0.0
C1216 C 0.89717 0.72905 0.89368 0.0
C1217 C 0.91337 0.74492 0.88439 0.0
C1218 C 0.90605 0.7089 0.90547 0.0
C1219 C 0.96204 0.66957 0.91344 0.0
H1220 H 0.92688 0.64813 0.96716 0.0
C1221 C 0.98379 0.57827 0.95404 0.0
C1222 C 0.98264 0.57589 0.97835 0.0
C1223 C 0.97595 0.59928 0.94321 0.0
C1224 C 0.9371 0.65396 0.95234 0.0
H1225 H 0.95179 0.75191 0.8805 0.0
H1226 H 0.96728 0.71686 0.9011 0.0
H1227 H 0.9124 0.68397 0.94741 0.0
H1228 H 0.97242 0.59402 0.01031 0.0
H1229 H 0.95899 0.63083 0.99143 0.0
H1230 H 0.98699 0.63982 0.91861 0.0
C1231 C 0.94764 0.71981 0.89897 0.0
C1232 C 0.92858 0.6744 0.94078 0.0
C1233 C 0.93875 0.73996 0.88711 0.0
C1234 C 0.97353 0.59519 0.99156 0.0
C1235 C 0.96568 0.61627 0.98069 0.0
C1236 C 0.97056 0.64915 0.925 0.0
C1237 C 0.93142 0.704 0.90839 0.0
C1238 C 0.94084 0.68245 0.92106 0.0
C1239 C 0.96676 0.61862 0.95633 0.0
C1240 C 0.95813 0.64093 0.94454 0.0
H1241 H 0.87753 0.73204 0.8916 0.0
H1242 H 0.89296 0.69697 0.91203 0.0
H1243 H 0.97189 0.67502 0.89823 0.0
H1244 H 0.9906 0.5638 0.94324 0.0
H1245 H 0.97672 0.60019 0.92443 0.0
C1246 C 0.46716 0.70059 0.07973 0.0
C1247 C 0.45729 0.68765 0.06146 0.0
C1248 C 0.47249 0.72398 0.07656 0.0
C1249 C 0.45365 0.77499 0.04153 0.0
H1250 H 0.5127 0.80115 0.06563 0.0
C1251 C 0.47586 0.87016 0.02317 0.0
C1252 C 0.48588 0.8831 0.0413 0.0
C1253 C 0.47355 0.8461 0.02539 0.0
C1254 C 0.49598 0.79416 0.05905 0.0
H1255 H 0.44621 0.68895 0.02524 0.0
H1256 H 0.45524 0.72996 0.0198 0.0
H1257 H 0.50717 0.75919 0.06942 0.0
H1258 H 0.50153 0.88103 0.0759 0.0
H1259 H 0.49708 0.83887 0.08003 0.0
H1260 H 0.44213 0.80985 0.03158 0.0
C1261 C 0.45863 0.72197 0.03664 0.0
C1262 C 0.49288 0.77014 0.06114 0.0
C1263 C 0.45343 0.69851 0.03977 0.0
C1264 C 0.49382 0.87144 0.06164 0.0
C1265 C 0.49135 0.84731 0.06393 0.0
C1266 C 0.45666 0.79898 0.03958 0.0
C1267 C 0.46791 0.735 0.0551 0.0
C1268 C 0.47169 0.76032 0.05235 0.0
C1269 C 0.48107 0.83439 0.04585 0.0
C1270 C 0.47789 0.80886 0.04826 0.0
H1271 H 0.46994 0.69295 0.0968 0.0
H1272 H 0.47934 0.73368 0.09117 0.0
H1273 H 0.43691 0.76798 0.035 0.0
H1274 H 0.47009 0.8786 0.00708 0.0
H1275 H 0.46608 0.83663 0.01091 0.0
C1276 C 0.05959 0.30741 0.55638 0.0
C1277 C 0.07005 0.31924 0.53773 0.0
C1278 C 0.05219 0.28462 0.55367 0.0
C1279 C 0.06512 0.2315 0.51996 0.0
H1280 H 0.00407 0.21228 0.54643 0.0
C1281 C 0.03514 0.13707 0.5107 0.0
C1282 C 0.0247 0.12686 0.53027 0.0
C1283 C 0.03905 0.16096 0.5103 0.0
C1284 C 0.02129 0.21732 0.53916 0.0
H1285 H 0.08072 0.31629 0.50151 0.0
H1286 H 0.06811 0.27606 0.49691 0.0
H1287 H 0.01355 0.25352 0.54742 0.0
H1288 H 0.00979 0.13364 0.56462 0.0
H1289 H 0.01708 0.17551 0.5642 0.0
H1290 H 0.07327 0.19533 0.51226 0.0
C1291 C 0.06565 0.28466 0.5136 0.0
C1292 C 0.02665 0.24094 0.53962 0.0
C1293 C 0.07289 0.30764 0.51625 0.0
C1294 C 0.01782 0.14111 0.54931 0.0
C1295 C 0.02191 0.16507 0.54899 0.0
C1296 C 0.05984 0.20787 0.51962 0.0
C1297 C 0.05529 0.27294 0.53234 0.0
C1298 C 0.04871 0.24822 0.5302 0.0
C1299 C 0.03274 0.17522 0.52952 0.0
C1300 C 0.03794 0.20047 0.52936 0.0
H1301 H 0.05774 0.31548 0.57338 0.0
H1302 H 0.04474 0.27587 0.56855 0.0
H1303 H 0.08243 0.23657 0.51289 0.0
H1304 H 0.04012 0.12658 0.49555 0.0
H1305 H 0.0469 0.16827 0.49483 0.0
C1306 C 0.58962 0.28151 0.3834 0.0
C1307 C 0.59886 0.26292 0.39745 0.0
C1308 C 0.57913 0.30211 0.39343 0.0
C1309 C 0.57949 0.3362 0.44827 0.0
H1310 H 0.52174 0.3692 0.42267 0.0
C1311 C 0.53344 0.41748 0.49432 0.0
C1312 C 0.52444 0.43609 0.48022 0.0
C1313 C 0.54135 0.3959 0.48445 0.0
C1314 C 0.53806 0.36038 0.42992 0.0
H1315 H 0.6029 0.25106 0.43312 0.0
H1316 H 0.58485 0.28682 0.45048 0.0
H1317 H 0.53749 0.3327 0.4047 0.0
H1318 H 0.51659 0.44642 0.44458 0.0
H1319 H 0.5307 0.40917 0.42746 0.0
H1320 H 0.58038 0.36394 0.47325 0.0
C1321 C 0.58618 0.28574 0.43173 0.0
C1322 C 0.54707 0.3394 0.4196 0.0
C1323 C 0.59655 0.26519 0.42173 0.0
C1324 C 0.52332 0.43248 0.45604 0.0
C1325 C 0.5313 0.41099 0.44618 0.0
C1326 C 0.57057 0.35721 0.45851 0.0
C1327 C 0.57766 0.30463 0.41776 0.0
C1328 C 0.5679 0.327 0.42865 0.0
C1329 C 0.54054 0.39238 0.4602 0.0
C1330 C 0.54972 0.36965 0.44951 0.0
H1331 H 0.59124 0.28048 0.36466 0.0
H1332 H 0.5729 0.31636 0.38214 0.0
H1333 H 0.59583 0.32737 0.45549 0.0
H1334 H 0.53448 0.41958 0.513 0.0
H1335 H 0.54798 0.38192 0.49588 0.0
loop_
_geom_bond_atom_site_label_1
_geom_bond_atom_site_label_2
_geom_bond_distance
_geom_bond_site_symmetry_2
_ccdc_geom_bond_type
C0 C1 1.391 . S
C0 C4 1.391 . S
C0 H42 0.948 . S
C1 C0 1.391 . S
C1 C2 1.391 . S
C2 C1 1.391 . S
C2 H58 0.947 . S
C2 C59 1.392 . S
C3 C4 1.391 . S
C3 C7 1.397 . S
C3 C59 1.419 . S
C4 C0 1.391 . S
C4 C3 1.391 . S
C4 C5 1.399 . S
C5 C4 1.399 . S
C5 C8 1.396 . S
C5 C17 1.453 . S
C5 C18 1.684 . S
H6 C30 0.948 . S
C7 C3 1.397 . S
C7 C8 1.394 . S
C7 C26 1.723 . S
C8 C5 1.396 . S
C8 C7 1.394 . S
C8 C38 1.723 . S
H9 C32 0.947 . S
H10 C33 0.948 . S
H11 C39 0.982 . S
H12 C40 0.979 . S
H13 C40 0.980 . S
H14 C40 0.983 . S
H15 C39 0.979 . S
H16 C39 0.977 . S
C17 C5 1.453 . S
C17 H46 0.982 . S
C17 H47 0.979 . S
C17 H48 0.977 . S
C18 C5 1.684 . S
C18 H43 0.979 . S
C18 H44 0.980 . S
C18 H45 0.983 . S
C19 C20 1.391 . S
C19 C24 1.391 . S
C19 H49 0.948 . S
C20 C19 1.391 . S
C20 C21 1.391 . S
C21 C20 1.391 . S
C21 C22 1.392 . S
C21 H50 0.947 . S
C22 C21 1.392 . S
C22 C23 1.419 . S
C22 H51 0.948 . S
C23 C22 1.419 . S
C23 C24 1.391 . S
C23 C27 1.397 . S
C24 C19 1.391 . S
C24 C23 1.391 . S
C24 C25 1.399 . S
C25 C24 1.399 . S
C25 C26 1.396 . S
C25 C28 1.453 . S
C25 C29 1.684 . S
C26 C7 1.723 . S
C26 C25 1.396 . S
C26 C27 1.394 . S
C27 C23 1.397 . S
C27 C26 1.394 . S
C27 C37 1.723 . S
C28 C25 1.453 . S
C28 H52 0.982 . S
C28 H53 0.979 . S
C28 H54 0.977 . S
C29 C25 1.684 . S
C29 H55 0.979 . S
C29 H56 0.980 . S
C29 H57 0.983 . S
C30 H6 0.948 . S
C30 C31 1.391 . S
C30 C35 1.391 . S
C31 C30 1.391 . S
C31 C32 1.391 . S
C32 H9 0.947 . S
C32 C31 1.391 . S
C32 C33 1.392 . S
C33 H10 0.948 . S
C33 C32 1.392 . S
C33 C34 1.419 . S
C34 C33 1.419 . S
C34 C35 1.391 . S
C34 C38 1.397 . S
C35 C30 1.391 . S
C35 C34 1.391 . S
C35 C36 1.399 . S
C36 C35 1.399 . S
C36 C37 1.396 . S
C36 C39 1.453 . S
C36 C40 1.684 . S
C37 C27 1.723 . S
C37 C36 1.396 . S
C37 C38 1.394 . S
C38 C8 1.723 . S
C38 C34 1.397 . S
C38 C37 1.394 . S
C39 H11 0.982 . S
C39 H15 0.979 . S
C39 H16 0.977 . S
C39 C36 1.453 . S
C40 H12 0.979 . S
C40 H13 0.980 . S
C40 H14 0.983 . S
C40 C36 1.684 . S
H41 C59 0.948 . S
H42 C0 0.948 . S
H43 C18 0.979 . S
H44 C18 0.980 . S
H45 C18 0.983 . S
H46 C17 0.982 . S
H47 C17 0.979 . S
H48 C17 0.977 . S
H49 C19 0.948 . S
H50 C21 0.947 . S
H51 C22 0.948 . S
H52 C28 0.982 . S
H53 C28 0.979 . S
H54 C28 0.977 . S
H55 C29 0.979 . S
H56 C29 0.980 . S
H57 C29 0.983 . S
H58 C2 0.947 . S
C59 C2 1.392 . S
C59 C3 1.419 . S
C59 H41 0.948 . S
C60 C61 1.391 . S
C60 C64 1.391 . S
C60 H102 0.948 . S
C61 C60 1.391 . S
C61 C62 1.391 . S
C62 C61 1.391 . S
C62 H118 0.947 . S
C62 C119 1.392 . S
C63 C64 1.391 . S
C63 C67 1.397 . S
C63 C119 1.419 . S
C64 C60 1.391 . S
C64 C63 1.391 . S
C64 C65 1.399 . S
C65 C64 1.399 . S
C65 C68 1.396 . S
C65 C77 1.453 . S
C65 C78 1.684 . S
H66 C90 0.948 . S
C67 C63 1.397 . S
C67 C68 1.394 . S
C67 C86 1.723 . S
C68 C65 1.396 . S
C68 C67 1.394 . S
C68 C98 1.723 . S
H69 C92 0.947 . S
H70 C93 0.948 . S
H71 C99 0.982 . S
H72 C100 0.979 . S
H73 C100 0.980 . S
H74 C100 0.983 . S
H75 C99 0.979 . S
H76 C99 0.977 . S
C77 C65 1.453 . S
C77 H106 0.982 . S
C77 H107 0.979 . S
C77 H108 0.977 . S
C78 C65 1.684 . S
C78 H103 0.979 . S
C78 H104 0.980 . S
C78 H105 0.983 . S
C79 C80 1.391 . S
C79 C84 1.391 . S
C79 H109 0.948 . S
C80 C79 1.391 . S
C80 C81 1.391 . S
C81 C80 1.391 . S
C81 C82 1.392 . S
C81 H110 0.947 . S
C82 C81 1.392 . S
C82 C83 1.419 . S
C82 H111 0.948 . S
C83 C82 1.419 . S
C83 C84 1.391 . S
C83 C87 1.397 . S
C84 C79 1.391 . S
C84 C83 1.391 . S
C84 C85 1.399 . S
C85 C84 1.399 . S
C85 C86 1.396 . S
C85 C88 1.453 . S
C85 C89 1.684 . S
C86 C67 1.723 . S
C86 C85 1.396 . S
C86 C87 1.394 . S
C87 C83 1.397 . S
C87 C86 1.394 . S
C87 C97 1.723 . S
C88 C85 1.453 . S
C88 H112 0.982 . S
C88 H113 0.979 . S
C88 H114 0.977 . S
C89 C85 1.684 . S
C89 H115 0.979 . S
C89 H116 0.980 . S
C89 H117 0.983 . S
C90 H66 0.948 . S
C90 C91 1.391 . S
C90 C95 1.391 . S
C91 C90 1.391 . S
C91 C92 1.391 . S
C92 H69 0.947 . S
C92 C91 1.391 . S
C92 C93 1.392 . S
C93 H70 0.948 . S
C93 C92 1.392 . S
C93 C94 1.419 . S
C94 C93 1.419 . S
C94 C95 1.391 . S
C94 C98 1.397 . S
C95 C90 1.391 . S
C95 C94 1.391 . S
C95 C96 1.399 . S
C96 C95 1.399 . S
C96 C97 1.396 . S
C96 C99 1.453 . S
C96 C100 1.684 . S
C97 C87 1.723 . S
C97 C96 1.396 . S
C97 C98 1.394 . S
C98 C68 1.723 . S
C98 C94 1.397 . S
C98 C97 1.394 . S
C99 H71 0.982 . S
C99 H75 0.979 . S
C99 H76 0.977 . S
C99 C96 1.453 . S
C100 H72 0.979 . S
C100 H73 0.980 . S
C100 H74 0.983 . S
C100 C96 1.684 . S
H101 C119 0.948 . S
H102 C60 0.948 . S
H103 C78 0.979 . S
H104 C78 0.980 . S
H105 C78 0.983 . S
H106 C77 0.982 . S
H107 C77 0.979 . S
H108 C77 0.977 . S
H109 C79 0.948 . S
H110 C81 0.947 . S
H111 C82 0.948 . S
H112 C88 0.982 . S
H113 C88 0.979 . S
H114 C88 0.977 . S
H115 C89 0.979 . S
H116 C89 0.980 . S
H117 C89 0.983 . S
H118 C62 0.947 . S
C119 C62 1.392 . S
C119 C63 1.419 . S
C119 H101 0.948 . S
C120 C121 1.391 . S
C120 C124 1.391 . S
C120 H162 0.948 . S
C121 C120 1.391 . S
C121 C122 1.391 . S
C122 C121 1.391 . S
C122 H178 0.947 . S
C122 C179 1.392 . S
C123 C124 1.391 . S
C123 C127 1.397 . S
C123 C179 1.419 . S
C124 C120 1.391 . S
C124 C123 1.391 . S
C124 C125 1.399 . S
C125 C124 1.399 . S
C125 C128 1.396 . S
C125 C137 1.453 . S
C125 C138 1.684 . S
H126 C150 0.948 . S
C127 C123 1.397 . S
C127 C128 1.394 . S
C127 C146 1.723 . S
C128 C125 1.396 . S
C128 C127 1.394 . S
C128 C158 1.723 . S
H129 C152 0.947 . S
H130 C153 0.948 . S
H131 C159 0.982 . S
H132 C160 0.979 . S
H133 C160 0.980 . S
H134 C160 0.983 . S
H135 C159 0.979 . S
H136 C159 0.977 . S
C137 C125 1.453 . S
C137 H166 0.982 . S
C137 H167 0.979 . S
C137 H168 0.977 . S
C138 C125 1.684 . S
C138 H163 0.979 . S
C138 H164 0.980 . S
C138 H165 0.983 . S
C139 C140 1.391 . S
C139 C144 1.391 . S
C139 H169 0.948 . S
C140 C139 1.391 . S
C140 C141 1.391 . S
C141 C140 1.391 . S
C141 C142 1.392 . S
C141 H170 0.947 . S
C142 C141 1.392 . S
C142 C143 1.419 . S
C142 H171 0.948 . S
C143 C142 1.419 . S
C143 C144 1.391 . S
C143 C147 1.397 . S
C144 C139 1.391 . S
C144 C143 1.391 . S
C144 C145 1.399 . S
C145 C144 1.399 . S
C145 C146 1.396 . S
C145 C148 1.453 . S
C145 C149 1.684 . S
C146 C127 1.723 . S
C146 C145 1.396 . S
C146 C147 1.394 . S
C147 C143 1.397 . S
C147 C146 1.394 . S
C147 C157 1.723 . S
C148 C145 1.453 . S
C148 H172 0.982 . S
C148 H173 0.979 . S
C148 H174 0.977 . S
C149 C145 1.684 . S
C149 H175 0.979 . S
C149 H176 0.980 . S
C149 H177 0.983 . S
C150 H126 0.948 . S
C150 C151 1.391 . S
C150 C155 1.391 . S
C151 C150 1.391 . S
C151 C152 1.391 . S
C152 H129 0.947 . S
C152 C151 1.391 . S
C152 C153 1.392 . S
C153 H130 0.948 . S
C153 C152 1.392 . S
C153 C154 1.419 . S
C154 C153 1.419 . S
C154 C155 1.391 . S
C154 C158 1.397 . S
C155 C150 1.391 . S
C155 C154 1.391 . S
C155 C156 1.399 . S
C156 C155 1.399 . S
C156 C157 1.396 . S
C156 C159 1.453 . S
C156 C160 1.684 . S
C157 C147 1.723 . S
C157 C156 1.396 . S
C157 C158 1.394 . S
C158 C128 1.723 . S
C158 C154 1.397 . S
C158 C157 1.394 . S
C159 H131 0.982 . S
C159 H135 0.979 . S
C159 H136 0.977 . S
C159 C156 1.453 . S
C160 H132 0.979 . S
C160 H133 0.980 . S
C160 H134 0.983 . S
C160 C156 1.684 . S
H161 C179 0.948 . S
H162 C120 0.948 . S
H163 C138 0.979 . S
H164 C138 0.980 . S
H165 C138 0.983 . S
H166 C137 0.982 . S
H167 C137 0.979 . S
H168 C137 0.977 . S
H169 C139 0.948 . S
H170 C141 0.947 . S
H171 C142 0.948 . S
H172 C148 0.982 . S
H173 C148 0.979 . S
H174 C148 0.977 . S
H175 C149 0.979 . S
H176 C149 0.980 . S
H177 C149 0.983 . S
H178 C122 0.947 . S
C179 C122 1.392 . S
C179 C123 1.419 . S
C179 H161 0.948 . S
C180 C181 1.391 . S
C180 C184 1.391 . S
C180 H222 0.948 . S
C181 C180 1.391 . S
C181 C182 1.391 . S
C182 C181 1.391 . S
C182 H238 0.947 . S
C182 C239 1.392 . S
C183 C184 1.391 . S
C183 C187 1.397 . S
C183 C239 1.419 . S
C184 C180 1.391 . S
C184 C183 1.391 . S
C184 C185 1.399 . S
C185 C184 1.399 . S
C185 C188 1.396 . S
C185 C197 1.453 . S
C185 C198 1.684 . S
H186 C210 0.948 . S
C187 C183 1.397 . S
C187 C188 1.394 . S
C187 C206 1.723 . S
C188 C185 1.396 . S
C188 C187 1.394 . S
C188 C218 1.723 . S
H189 C212 0.947 . S
H190 C213 0.948 . S
H191 C219 0.982 . S
H192 C220 0.979 . S
H193 C220 0.980 . S
H194 C220 0.983 . S
H195 C219 0.979 . S
H196 C219 0.977 . S
C197 C185 1.453 . S
C197 H226 0.982 . S
C197 H227 0.979 . S
C197 H228 0.977 . S
C198 C185 1.684 . S
C198 H223 0.979 . S
C198 H224 0.980 . S
C198 H225 0.983 . S
C199 C200 1.391 . S
C199 C204 1.391 . S
C199 H229 0.948 . S
C200 C199 1.391 . S
C200 C201 1.391 . S
C201 C200 1.391 . S
C201 C202 1.392 . S
C201 H230 0.947 . S
C202 C201 1.392 . S
C202 C203 1.419 . S
C202 H231 0.948 . S
C203 C202 1.419 . S
C203 C204 1.391 . S
C203 C207 1.397 . S
C204 C199 1.391 . S
C204 C203 1.391 . S
C204 C205 1.399 . S
C205 C204 1.399 . S
C205 C206 1.396 . S
C205 C208 1.453 . S
C205 C209 1.684 . S
C206 C187 1.723 . S
C206 C205 1.396 . S
C206 C207 1.394 . S
C207 C203 1.397 . S
C207 C206 1.394 . S
C207 C217 1.723 . S
C208 C205 1.453 . S
C208 H232 0.982 . S
C208 H233 0.979 . S
C208 H234 0.977 . S
C209 C205 1.684 . S
C209 H235 0.979 . S
C209 H236 0.980 . S
C209 H237 0.983 . S
C210 H186 0.948 . S
C210 C211 1.391 . S
C210 C215 1.391 . S
C211 C210 1.391 . S
C211 C212 1.391 . S
C212 H189 0.947 . S
C212 C211 1.391 . S
C212 C213 1.392 . S
C213 H190 0.948 . S
C213 C212 1.392 . S
C213 C214 1.419 . S
C214 C213 1.419 . S
C214 C215 1.391 . S
C214 C218 1.397 . S
C215 C210 1.391 . S
C215 C214 1.391 . S
C215 C216 1.399 . S
C216 C215 1.399 . S
C216 C217 1.396 . S
C216 C219 1.453 . S
C216 C220 1.684 . S
C217 C207 1.723 . S
C217 C216 1.396 . S
C217 C218 1.394 . S
C218 C188 1.723 . S
C218 C214 1.397 . S
C218 C217 1.394 . S
C219 H191 0.982 . S
C219 H195 0.979 . S
C219 H196 0.977 . S
C219 C216 1.453 . S
C220 H192 0.979 . S
C220 H193 0.980 . S
C220 H194 0.983 . S
C220 C216 1.684 . S
H221 C239 0.948 . S
H222 C180 0.948 . S
H223 C198 0.979 . S
H224 C198 0.980 . S
H225 C198 0.983 . S
H226 C197 0.982 . S
H227 C197 0.979 . S
H228 C197 0.977 . S
H229 C199 0.948 . S
H230 C201 0.947 . S
H231 C202 0.948 . S
H232 C208 0.982 . S
H233 C208 0.979 . S
H234 C208 0.977 . S
H235 C209 0.979 . S
H236 C209 0.980 . S
H237 C209 0.983 . S
H238 C182 0.947 . S
C239 C182 1.392 . S
C239 C183 1.419 . S
C239 H221 0.948 . S
C240 C241 1.391 . S
C240 C244 1.391 . S
C240 H282 0.948 . S
C241 C240 1.391 . S
C241 C242 1.391 . S
C242 C241 1.391 . S
C242 H298 0.947 . S
C242 C299 1.392 . S
C243 C244 1.391 . S
C243 C247 1.397 . S
C243 C299 1.419 . S
C244 C240 1.391 . S
C244 C243 1.391 . S
C244 C245 1.399 . S
C245 C244 1.399 . S
C245 C248 1.396 . S
C245 C257 1.453 . S
C245 C258 1.684 . S
H246 C270 0.948 . S
C247 C243 1.397 . S
C247 C248 1.394 . S
C247 C266 1.723 . S
C248 C245 1.396 . S
C248 C247 1.394 . S
C248 C278 1.723 . S
H249 C272 0.947 . S
H250 C273 0.948 . S
H251 C279 0.982 . S
H252 C280 0.979 . S
H253 C280 0.980 . S
H254 C280 0.983 . S
H255 C279 0.979 . S
H256 C279 0.977 . S
C257 C245 1.453 . S
C257 H286 0.982 . S
C257 H287 0.979 . S
C257 H288 0.977 . S
C258 C245 1.684 . S
C258 H283 0.979 . S
C258 H284 0.980 . S
C258 H285 0.983 . S
C259 C260 1.391 . S
C259 C264 1.391 . S
C259 H289 0.948 . S
C260 C259 1.391 . S
C260 C261 1.391 . S
C261 C260 1.391 . S
C261 C262 1.392 . S
C261 H290 0.947 . S
C262 C261 1.392 . S
C262 C263 1.419 . S
C262 H291 0.948 . S
C263 C262 1.419 . S
C263 C264 1.391 . S
C263 C267 1.397 . S
C264 C259 1.391 . S
C264 C263 1.391 . S
C264 C265 1.399 . S
C265 C264 1.399 . S
C265 C266 1.396 . S
C265 C268 1.453 . S
C265 C269 1.684 . S
C266 C247 1.723 . S
C266 C265 1.396 . S
C266 C267 1.394 . S
C267 C263 1.397 . S
C267 C266 1.394 . S
C267 C277 1.723 . S
C268 C265 1.453 . S
C268 H292 0.982 . S
C268 H293 0.979 . S
C268 H294 0.977 . S
C269 C265 1.684 . S
C269 H295 0.979 . S
C269 H296 0.980 . S
C269 H297 0.983 . S
C270 H246 0.948 . S
C270 C271 1.391 . S
C270 C275 1.391 . S
C271 C270 1.391 . S
C271 C272 1.391 . S
C272 H249 0.947 . S
C272 C271 1.391 . S
C272 C273 1.392 . S
C273 H250 0.948 . S
C273 C272 1.392 . S
C273 C274 1.419 . S
C274 C273 1.419 . S
C274 C275 1.391 . S
C274 C278 1.397 . S
C275 C270 1.391 . S
C275 C274 1.391 . S
C275 C276 1.399 . S
C276 C275 1.399 . S
C276 C277 1.396 . S
C276 C279 1.453 . S
C276 C280 1.684 . S
C277 C267 1.723 . S
C277 C276 1.396 . S
C277 C278 1.394 . S
C278 C248 1.723 . S
C278 C274 1.397 . S
C278 C277 1.394 . S
C279 H251 0.982 . S
C279 H255 0.979 . S
C279 H256 0.977 . S
C279 C276 1.453 . S
C280 H252 0.979 . S
C280 H253 0.980 . S
C280 H254 0.983 . S
C280 C276 1.684 . S
H281 C299 0.948 . S
H282 C240 0.948 . S
H283 C258 0.979 . S
H284 C258 0.980 . S
H285 C258 0.983 . S
H286 C257 0.982 . S
H287 C257 0.979 . S
H288 C257 0.977 . S
H289 C259 0.948 . S
H290 C261 0.947 . S
H291 C262 0.948 . S
H292 C268 0.982 . S
H293 C268 0.979 . S
H294 C268 0.977 . S
H295 C269 0.979 . S
H296 C269 0.980 . S
H297 C269 0.983 . S
H298 C242 0.947 . S
C299 C242 1.392 . S
C299 C243 1.419 . S
C299 H281 0.948 . S
C300 C301 1.391 . S
C300 C304 1.391 . S
C300 H342 0.948 . S
C301 C300 1.391 . S
C301 C302 1.391 . S
C302 C301 1.391 . S
C302 H358 0.947 . S
C302 C359 1.392 . S
C303 C304 1.391 . S
C303 C307 1.397 . S
C303 C359 1.419 . S
C304 C300 1.391 . S
C304 C303 1.391 . S
C304 C305 1.399 . S
C305 C304 1.399 . S
C305 C308 1.396 . S
C305 C317 1.453 . S
C305 C318 1.684 . S
H306 C330 0.948 . S
C307 C303 1.397 . S
C307 C308 1.394 . S
C307 C326 1.723 . S
C308 C305 1.396 . S
C308 C307 1.394 . S
C308 C338 1.723 . S
H309 C332 0.947 . S
H310 C333 0.948 . S
H311 C339 0.982 . S
H312 C340 0.979 . S
H313 C340 0.980 . S
H314 C340 0.983 . S
H315 C339 0.979 . S
H316 C339 0.977 . S
C317 C305 1.453 . S
C317 H346 0.982 . S
C317 H347 0.979 . S
C317 H348 0.977 . S
C318 C305 1.684 . S
C318 H343 0.979 . S
C318 H344 0.980 . S
C318 H345 0.983 . S
C319 C320 1.391 . S
C319 C324 1.391 . S
C319 H349 0.948 . S
C320 C319 1.391 . S
C320 C321 1.391 . S
C321 C320 1.391 . S
C321 C322 1.392 . S
C321 H350 0.947 . S
C322 C321 1.392 . S
C322 C323 1.419 . S
C322 H351 0.948 . S
C323 C322 1.419 . S
C323 C324 1.391 . S
C323 C327 1.397 . S
C324 C319 1.391 . S
C324 C323 1.391 . S
C324 C325 1.399 . S
C325 C324 1.399 . S
C325 C326 1.396 . S
C325 C328 1.453 . S
C325 C329 1.684 . S
C326 C307 1.723 . S
C326 C325 1.396 . S
C326 C327 1.394 . S
C327 C323 1.397 . S
C327 C326 1.394 . S
C327 C337 1.723 . S
C328 C325 1.453 . S
C328 H352 0.982 . S
C328 H353 0.979 . S
C328 H354 0.977 . S
C329 C325 1.684 . S
C329 H355 0.979 . S
C329 H356 0.980 . S
C329 H357 0.983 . S
C330 H306 0.948 . S
C330 C331 1.391 . S
C330 C335 1.391 . S
C331 C330 1.391 . S
C331 C332 1.391 . S
C332 H309 0.947 . S
C332 C331 1.391 . S
C332 C333 1.392 . S
C333 H310 0.948 . S
C333 C332 1.392 . S
C333 C334 1.419 . S
C334 C333 1.419 . S
C334 C335 1.391 . S
C334 C338 1.397 . S
C335 C330 1.391 . S
C335 C334 1.391 . S
C335 C336 1.399 . S
C336 C335 1.399 . S
C336 C337 1.396 . S
C336 C339 1.453 . S
C336 C340 1.684 . S
C337 C327 1.723 . S
C337 C336 1.396 . S
C337 C338 1.394 . S
C338 C308 1.723 . S
C338 C334 1.397 . S
C338 C337 1.394 . S
C339 H311 0.982 . S
C339 H315 0.979 . S
C339 H316 0.977 . S
C339 C336 1.453 . S
C340 H312 0.979 . S
C340 H313 0.980 . S
C340 H314 0.983 . S
C340 C336 1.684 . S
H341 C359 0.948 . S
H342 C300 0.948 . S
H343 C318 0.979 . S
H344 C318 0.980 . S
H345 C318 0.983 . S
H346 C317 0.982 . S
H347 C317 0.979 . S
H348 C317 0.977 . S
H349 C319 0.948 . S
H350 C321 0.947 . S
H351 C322 0.948 . S
H352 C328 0.982 . S
H353 C328 0.979 . S
H354 C328 0.977 . S
H355 C329 0.979 . S
H356 C329 0.980 . S
H357 C329 0.983 . S
H358 C302 0.947 . S
C359 C302 1.392 . S
C359 C303 1.419 . S
C359 H341 0.948 . S
C360 C361 1.391 . S
C360 C364 1.391 . S
C360 H402 0.948 . S
C361 C360 1.391 . S
C361 C362 1.391 . S
C362 C361 1.391 . S
C362 H418 0.947 . S
C362 C419 1.392 . S
C363 C364 1.391 . S
C363 C367 1.397 . S
C363 C419 1.419 . S
C364 C360 1.391 . S
C364 C363 1.391 . S
C364 C365 1.399 . S
C365 C364 1.399 . S
C365 C368 1.396 . S
C365 C377 1.453 . S
C365 C378 1.684 . S
H366 C390 0.948 . S
C367 C363 1.397 . S
C367 C368 1.394 . S
C367 C386 1.723 . S
C368 C365 1.396 . S
C368 C367 1.394 . S
C368 C398 1.723 . S
H369 C392 0.947 . S
H370 C393 0.948 . S
H371 C399 0.982 . S
H372 C400 0.979 . S
H373 C400 0.980 . S
H374 C400 0.983 . S
H375 C399 0.979 . S
H376 C399 0.977 . S
C377 C365 1.453 . S
C377 H406 0.982 . S
C377 H407 0.979 . S
C377 H408 0.977 . S
C378 C365 1.684 . S
C378 H403 0.979 . S
C378 H404 0.980 . S
C378 H405 0.983 . S
C379 C380 1.391 . S
C379 C384 1.391 . S
C379 H409 0.948 . S
C380 C379 1.391 . S
C380 C381 1.391 . S
C381 C380 1.391 . S
C381 C382 1.392 . S
C381 H410 0.947 . S
C382 C381 1.392 . S
C382 C383 1.419 . S
C382 H411 0.948 . S
C383 C382 1.419 . S
C383 C384 1.391 . S
C383 C387 1.397 . S
C384 C379 1.391 . S
C384 C383 1.391 . S
C384 C385 1.399 . S
C385 C384 1.399 . S
C385 C386 1.396 . S
C385 C388 1.453 . S
C385 C389 1.684 . S
C386 C367 1.723 . S
C386 C385 1.396 . S
C386 C387 1.394 . S
C387 C383 1.397 . S
C387 C386 1.394 . S
C387 C397 1.723 . S
C388 C385 1.453 . S
C388 H412 0.982 . S
C388 H413 0.979 . S
C388 H414 0.977 . S
C389 C385 1.684 . S
C389 H415 0.979 . S
C389 H416 0.980 . S
C389 H417 0.983 . S
C390 H366 0.948 . S
C390 C391 1.391 . S
C390 C395 1.391 . S
C391 C390 1.391 . S
C391 C392 1.391 . S
C392 H369 0.947 . S
C392 C391 1.391 . S
C392 C393 1.392 . S
C393 H370 0.948 . S
C393 C392 1.392 . S
C393 C394 1.419 . S
C394 C393 1.419 . S
C394 C395 1.391 . S
C394 C398 1.397 . S
C395 C390 1.391 . S
C395 C394 1.391 . S
C395 C396 1.399 . S
C396 C395 1.399 . S
C396 C397 1.396 . S
C396 C399 1.453 . S
C396 C400 1.684 . S
C397 C387 1.723 . S
C397 C396 1.396 . S
C397 C398 1.394 . S
C398 C368 1.723 . S
C398 C394 1.397 . S
C398 C397 1.394 . S
C399 H371 0.982 . S
C399 H375 0.979 . S
C399 H376 0.977 . S
C399 C396 1.453 . S
C400 H372 0.979 . S
C400 H373 0.980 . S
C400 H374 0.983 . S
C400 C396 1.684 . S
H401 C419 0.948 . S
H402 C360 0.948 . S
H403 C378 0.979 . S
H404 C378 0.980 . S
H405 C378 0.983 . S
H406 C377 0.982 . S
H407 C377 0.979 . S
H408 C377 0.977 . S
H409 C379 0.948 . S
H410 C381 0.947 . S
H411 C382 0.948 . S
H412 C388 0.982 . S
H413 C388 0.979 . S
H414 C388 0.977 . S
H415 C389 0.979 . S
H416 C389 0.980 . S
H417 C389 0.983 . S
H418 C362 0.947 . S
C419 C362 1.392 . S
C419 C363 1.419 . S
C419 H401 0.948 . S
C420 C421 1.391 . S
C420 C424 1.391 . S
C420 H462 0.948 . S
C421 C420 1.391 . S
C421 C422 1.391 . S
C422 C421 1.391 . S
C422 H478 0.947 . S
C422 C479 1.392 . S
C423 C424 1.391 . S
C423 C427 1.397 . S
C423 C479 1.419 . S
C424 C420 1.391 . S
C424 C423 1.391 . S
C424 C425 1.399 . S
C425 C424 1.399 . S
C425 C428 1.396 . S
C425 C437 1.453 . S
C425 C438 1.684 . S
H426 C450 0.948 . S
C427 C423 1.397 . S
C427 C428 1.394 . S
C427 C446 1.723 . S
C428 C425 1.396 . S
C428 C427 1.394 . S
C428 C458 1.723 . S
H429 C452 0.947 . S
H430 C453 0.948 . S
H431 C459 0.982 . S
H432 C460 0.979 . S
H433 C460 0.980 . S
H434 C460 0.983 . S
H435 C459 0.979 . S
H436 C459 0.977 . S
C437 C425 1.453 . S
C437 H466 0.982 . S
C437 H467 0.979 . S
C437 H468 0.977 . S
C438 C425 1.684 . S
C438 H463 0.979 . S
C438 H464 0.980 . S
C438 H465 0.983 . S
C439 C440 1.391 . S
C439 C444 1.391 . S
C439 H469 0.948 . S
C440 C439 1.391 . S
C440 C441 1.391 . S
C441 C440 1.391 . S
C441 C442 1.392 . S
C441 H470 0.947 . S
C442 C441 1.392 . S
C442 C443 1.419 . S
C442 H471 0.948 . S
C443 C442 1.419 . S
C443 C444 1.391 . S
C443 C447 1.397 . S
C444 C439 1.391 . S
C444 C443 1.391 . S
C444 C445 1.399 . S
C445 C444 1.399 . S
C445 C446 1.396 . S
C445 C448 1.453 . S
C445 C449 1.684 . S
C446 C427 1.723 . S
C446 C445 1.396 . S
C446 C447 1.394 . S
C447 C443 1.397 . S
C447 C446 1.394 . S
C447 C457 1.723 . S
C448 C445 1.453 . S
C448 H472 0.982 . S
C448 H473 0.979 . S
C448 H474 0.977 . S
C449 C445 1.684 . S
C449 H475 0.979 . S
C449 H476 0.980 . S
C449 H477 0.983 . S
C450 H426 0.948 . S
C450 C451 1.391 . S
C450 C455 1.391 . S
C451 C450 1.391 . S
C451 C452 1.391 . S
C452 H429 0.947 . S
C452 C451 1.391 . S
C452 C453 1.392 . S
C453 H430 0.948 . S
C453 C452 1.392 . S
C453 C454 1.419 . S
C454 C453 1.419 . S
C454 C455 1.391 . S
C454 C458 1.397 . S
C455 C450 1.391 . S
C455 C454 1.391 . S
C455 C456 1.399 . S
C456 C455 1.399 . S
C456 C457 1.396 . S
C456 C459 1.453 . S
C456 C460 1.684 . S
C457 C447 1.723 . S
C457 C456 1.396 . S
C457 C458 1.394 . S
C458 C428 1.723 . S
C458 C454 1.397 . S
C458 C457 1.394 . S
C459 H431 0.982 . S
C459 H435 0.979 . S
C459 H436 0.977 . S
C459 C456 1.453 . S
C460 H432 0.979 . S
C460 H433 0.980 . S
C460 H434 0.983 . S
C460 C456 1.684 . S
H461 C479 0.948 . S
H462 C420 0.948 . S
H463 C438 0.979 . S
H464 C438 0.980 . S
H465 C438 0.983 . S
H466 C437 0.982 . S
H467 C437 0.979 . S
H468 C437 0.977 . S
H469 C439 0.948 . S
H470 C441 0.947 . S
H471 C442 0.948 . S
H472 C448 0.982 . S
H473 C448 0.979 . S
H474 C448 0.977 . S
H475 C449 0.979 . S
H476 C449 0.980 . S
H477 C449 0.983 . S
H478 C422 0.947 . S
C479 C422 1.392 . S
C479 C423 1.419 . S
C479 H461 0.948 . S
C480 O496 1.251 . S
C480 O498 1.254 1_545 S
N481 C482 1.333 . S
N481 C486 1.307 . S
N481 Zn487 2.020 . S
C482 N481 1.333 . S
C482 C483 1.379 . S
C482 H500 0.952 . S
C483 C482 1.379 . S
C483 C484 1.390 . S
C483 H510 0.949 . S
C484 C483 1.390 . S
C484 C485 1.357 . S
C485 C484 1.357 . S
C485 C486 1.370 . S
C485 H511 0.950 . S
C486 N481 1.307 . S
C486 C485 1.370 . S
C486 H504 0.948 1_455 S
Zn487 N481 2.020 . S
Zn487 O496 2.039 . S
Zn487 O502 2.034 . S
Zn487 O506 2.025 1_455 S
Zn487 O508 2.024 1_455 S
C488 O507 1.246 1_545 S
C488 O508 1.249 . S
N489 C490 1.307 . S
N489 C491 1.333 . S
N489 Zn495 2.020 . S
C490 N489 1.307 . S
C490 C494 1.370 . S
C490 H501 0.948 1_655 S
C491 N489 1.333 . S
C491 C492 1.379 . S
C491 H499 0.952 . S
C492 C491 1.379 . S
C492 C493 1.390 . S
C492 H512 0.949 . S
C493 C492 1.390 . S
C493 C494 1.357 . S
C494 C490 1.370 . S
C494 C493 1.357 . S
C494 H513 0.950 . S
Zn495 N489 2.020 . S
Zn495 O498 2.025 1_655 S
Zn495 O503 2.024 1_655 S
Zn495 O505 2.039 . S
Zn495 O507 2.034 . S
O496 C480 1.251 . S
O496 Zn487 2.039 . S
C497 O502 1.246 1_565 S
C497 O503 1.249 . S
O498 C480 1.254 1_565 S
O498 Zn495 2.025 1_455 S
H499 C491 0.952 . S
H500 C482 0.952 . S
H501 C490 0.948 1_455 S
O502 Zn487 2.034 . S
O502 C497 1.246 1_545 S
O503 Zn495 2.024 1_455 S
O503 C497 1.249 . S
H504 C486 0.948 1_655 S
O505 Zn495 2.039 . S
O505 C509 1.251 . S
O506 Zn487 2.025 1_655 S
O506 C509 1.254 1_545 S
O507 C488 1.246 1_565 S
O507 Zn495 2.034 . S
O508 Zn487 2.024 1_655 S
O508 C488 1.249 . S
C509 O505 1.251 . S
C509 O506 1.254 1_565 S
H510 C483 0.949 . S
H511 C485 0.950 . S
H512 C492 0.949 . S
H513 C494 0.950 . S
C514 O530 1.251 1_565 S
C514 O532 1.254 . S
N515 C516 1.333 . S
N515 C520 1.307 . S
N515 Zn521 2.020 . S
C516 N515 1.333 . S
C516 C517 1.379 . S
C516 H534 0.952 . S
C517 C516 1.379 . S
C517 C518 1.390 . S
C517 H544 0.949 . S
C518 C517 1.390 . S
C518 C519 1.357 . S
C519 C518 1.357 . S
C519 C520 1.370 . S
C519 H545 0.950 . S
C520 N515 1.307 . S
C520 C519 1.370 . S
C520 H538 0.948 . S
Zn521 N515 2.020 . S
Zn521 O530 2.039 . S
Zn521 O536 2.034 1_556 S
Zn521 O540 2.025 1_556 S
Zn521 O542 2.024 . S
C522 O541 1.246 . S
C522 O542 1.249 1_565 S
N523 C524 1.307 . S
N523 C525 1.333 . S
N523 Zn529 2.020 . S
C524 N523 1.307 . S
C524 C528 1.370 . S
C524 H535 0.948 . S
C525 N523 1.333 . S
C525 C526 1.379 . S
C525 H533 0.952 . S
C526 C525 1.379 . S
C526 C527 1.390 . S
C526 H546 0.949 . S
C527 C526 1.390 . S
C527 C528 1.357 . S
C528 C524 1.370 . S
C528 C527 1.357 . S
C528 H547 0.950 . S
Zn529 N523 2.020 . S
Zn529 O532 2.025 1_554 S
Zn529 O537 2.024 . S
Zn529 O539 2.039 . S
Zn529 O541 2.034 1_554 S
O530 C514 1.251 1_545 S
O530 Zn521 2.039 . S
C531 O536 1.246 . S
C531 O537 1.249 1_545 S
O532 C514 1.254 . S
O532 Zn529 2.025 1_556 S
H533 C525 0.952 . S
H534 C516 0.952 . S
H535 C524 0.948 . S
O536 Zn521 2.034 1_554 S
O536 C531 1.246 . S
O537 Zn529 2.024 . S
O537 C531 1.249 1_565 S
H538 C520 0.948 . S
O539 Zn529 2.039 . S
O539 C543 1.251 1_565 S
O540 Zn521 2.025 1_554 S
O540 C543 1.254 . S
O541 C522 1.246 . S
O541 Zn529 2.034 1_556 S
O542 Zn521 2.024 . S
O542 C522 1.249 1_545 S
C543 O539 1.251 1_545 S
C543 O540 1.254 . S
H544 C517 0.949 . S
H545 C519 0.950 . S
H546 C526 0.949 . S
H547 C528 0.950 . S
C548 O564 1.251 . S
C548 O566 1.254 . S
N549 C550 1.333 . S
N549 C554 1.307 . S
N549 Zn555 2.020 . S
C550 N549 1.333 . S
C550 C551 1.379 . S
C550 H568 0.952 . S
C551 C550 1.379 . S
C551 C552 1.390 . S
C551 H578 0.949 . S
C552 C551 1.390 . S
C552 C553 1.357 . S
C553 C552 1.357 . S
C553 C554 1.370 . S
C553 H579 0.950 . S
C554 N549 1.307 . S
C554 C553 1.370 . S
C554 H572 0.948 . S
Zn555 N549 2.020 . S
Zn555 O564 2.039 . S
Zn555 O570 2.034 . S
Zn555 O574 2.025 . S
Zn555 O576 2.024 . S
C556 O575 1.246 . S
C556 O576 1.249 . S
N557 C558 1.307 . S
N557 C559 1.333 . S
N557 Zn563 2.020 . S
C558 N557 1.307 . S
C558 C562 1.370 . S
C558 H569 0.948 . S
C559 N557 1.333 . S
C559 C560 1.379 . S
C559 H567 0.952 . S
C560 C559 1.379 . S
C560 C561 1.390 . S
C560 H580 0.949 . S
C561 C560 1.390 . S
C561 C562 1.357 . S
C562 C558 1.370 . S
C562 C561 1.357 . S
C562 H581 0.950 . S
Zn563 N557 2.020 . S
Zn563 O566 2.025 . S
Zn563 O571 2.024 . S
Zn563 O573 2.039 . S
Zn563 O575 2.034 . S
O564 C548 1.251 . S
O564 Zn555 2.039 . S
C565 O570 1.246 . S
C565 O571 1.249 . S
O566 C548 1.254 . S
O566 Zn563 2.025 . S
H567 C559 0.952 . S
H568 C550 0.952 . S
H569 C558 0.948 . S
O570 Zn555 2.034 . S
O570 C565 1.246 . S
O571 Zn563 2.024 . S
O571 C565 1.249 . S
H572 C554 0.948 . S
O573 Zn563 2.039 . S
O573 C577 1.251 . S
O574 Zn555 2.025 . S
O574 C577 1.254 . S
O575 C556 1.246 . S
O575 Zn563 2.034 . S
O576 Zn555 2.024 . S
O576 C556 1.249 . S
C577 O573 1.251 . S
C577 O574 1.254 . S
H578 C551 0.949 . S
H579 C553 0.950 . S
H580 C560 0.949 . S
H581 C562 0.950 . S
C582 O598 1.251 1_556 S
C582 O600 1.254 . S
N583 C584 1.333 . S
N583 C588 1.307 . S
N583 Zn589 2.020 . S
C584 N583 1.333 . S
C584 C585 1.379 . S
C584 H602 0.952 . S
C585 C584 1.379 . S
C585 C586 1.390 . S
C585 H612 0.949 . S
C586 C585 1.390 . S
C586 C587 1.357 . S
C587 C586 1.357 . S
C587 C588 1.370 . S
C587 H613 0.950 . S
C588 N583 1.307 . S
C588 C587 1.370 . S
C588 H606 0.948 . S
Zn589 N583 2.020 . S
Zn589 O598 2.039 . S
Zn589 O604 2.034 1_655 S
Zn589 O608 2.025 1_655 S
Zn589 O610 2.024 . S
C590 O609 1.246 . S
C590 O610 1.249 1_556 S
N591 C592 1.307 . S
N591 C593 1.333 . S
N591 Zn597 2.020 . S
C592 N591 1.307 . S
C592 C596 1.370 . S
C592 H603 0.948 . S
C593 N591 1.333 . S
C593 C594 1.379 . S
C593 H601 0.952 . S
C594 C593 1.379 . S
C594 C595 1.390 . S
C594 H614 0.949 . S
C595 C594 1.390 . S
C595 C596 1.357 . S
C596 C592 1.370 . S
C596 C595 1.357 . S
C596 H615 0.950 . S
Zn597 N591 2.020 . S
Zn597 O600 2.025 1_455 S
Zn597 O605 2.024 . S
Zn597 O607 2.039 . S
Zn597 O609 2.034 1_455 S
O598 C582 1.251 1_554 S
O598 Zn589 2.039 . S
C599 O604 1.246 . S
C599 O605 1.249 1_554 S
O600 C582 1.254 . S
O600 Zn597 2.025 1_655 S
H601 C593 0.952 . S
H602 C584 0.952 . S
H603 C592 0.948 . S
O604 Zn589 2.034 1_455 S
O604 C599 1.246 . S
O605 Zn597 2.024 . S
O605 C599 1.249 1_556 S
H606 C588 0.948 . S
O607 Zn597 2.039 . S
O607 C611 1.251 1_556 S
O608 Zn589 2.025 1_455 S
O608 C611 1.254 . S
O609 C590 1.246 . S
O609 Zn597 2.034 1_655 S
O610 Zn589 2.024 . S
O610 C590 1.249 1_554 S
C611 O607 1.251 1_554 S
C611 O608 1.254 . S
H612 C585 0.949 . S
H613 C587 0.950 . S
H614 C594 0.949 . S
H615 C596 0.950 . S
C616 C617 1.349 . S
C616 C618 1.327 . S
C616 H641 0.950 . S
C617 C616 1.349 . S
C617 C633 1.349 . S
C618 C616 1.327 . S
C618 C637 1.429 . S
C618 H642 0.950 . S
C619 C636 1.574 . S
C619 C638 1.368 . S
C619 H643 0.949 . S
H620 C624 0.949 . S
C621 C622 1.349 . S
C621 C623 1.327 . S
C621 H644 0.950 . S
C622 C621 1.349 . S
C622 C634 1.349 . S
C623 C621 1.327 . S
C623 C639 1.429 . S
C623 H645 0.950 . S
C624 H620 0.949 . S
C624 C632 1.574 . S
C624 C640 1.368 . S
H625 C633 0.950 . S
H626 C631 0.950 . S
H627 C632 0.949 . S
H628 C634 0.950 1_565 S
H629 C635 0.950 . S
H630 C636 0.949 . S
C631 H626 0.950 . S
C631 C633 1.327 . S
C631 C637 1.429 . S
C632 C624 1.574 . S
C632 H627 0.949 . S
C632 C638 1.368 . S
C633 C617 1.349 . S
C633 H625 0.950 . S
C633 C631 1.327 . S
C634 C622 1.349 . S
C634 H628 0.950 1_545 S
C634 C635 1.327 . S
C635 H629 0.950 . S
C635 C634 1.327 . S
C635 C639 1.429 . S
C636 C619 1.574 . S
C636 H630 0.949 . S
C636 C640 1.368 . S
C637 C618 1.429 . S
C637 C631 1.429 . S
C637 C638 1.523 . S
C638 C619 1.368 . S
C638 C632 1.368 . S
C638 C637 1.523 . S
C639 C623 1.429 . S
C639 C635 1.429 . S
C639 C640 1.523 . S
C640 C624 1.368 . S
C640 C636 1.368 . S
C640 C639 1.523 . S
H641 C616 0.950 . S
H642 C618 0.950 . S
H643 C619 0.949 . S
H644 C621 0.950 . S
H645 C623 0.950 . S
C646 C647 1.349 . S
C646 C648 1.327 . S
C646 H671 0.950 . S
C647 C646 1.349 . S
C647 C663 1.349 . S
C648 C646 1.327 . S
C648 C667 1.429 . S
C648 H672 0.950 . S
C649 C666 1.574 . S
C649 C668 1.368 . S
C649 H673 0.949 . S
H650 C654 0.949 . S
C651 C652 1.349 . S
C651 C653 1.327 . S
C651 H674 0.950 . S
C652 C651 1.349 . S
C652 C664 1.349 . S
C653 C651 1.327 . S
C653 C669 1.429 . S
C653 H675 0.950 . S
C654 H650 0.949 . S
C654 C662 1.574 . S
C654 C670 1.368 . S
H655 C663 0.950 . S
H656 C661 0.950 . S
H657 C662 0.949 . S
H658 C664 0.950 1_545 S
H659 C665 0.950 . S
H660 C666 0.949 . S
C661 H656 0.950 . S
C661 C663 1.327 . S
C661 C667 1.429 . S
C662 C654 1.574 . S
C662 H657 0.949 . S
C662 C668 1.368 . S
C663 C647 1.349 . S
C663 H655 0.950 . S
C663 C661 1.327 . S
C664 C652 1.349 . S
C664 H658 0.950 1_565 S
C664 C665 1.327 . S
C665 H659 0.950 . S
C665 C664 1.327 . S
C665 C669 1.429 . S
C666 C649 1.574 . S
C666 H660 0.949 . S
C666 C670 1.368 . S
C667 C648 1.429 . S
C667 C661 1.429 . S
C667 C668 1.523 . S
C668 C649 1.368 . S
C668 C662 1.368 . S
C668 C667 1.523 . S
C669 C653 1.429 . S
C669 C665 1.429 . S
C669 C670 1.523 . S
C670 C654 1.368 . S
C670 C666 1.368 . S
C670 C669 1.523 . S
H671 C646 0.950 . S
H672 C648 0.950 . S
H673 C649 0.949 . S
H674 C651 0.950 . S
H675 C653 0.950 . S
C676 C677 1.349 . S
C676 C678 1.327 . S
C676 H701 0.950 . S
C677 C676 1.349 . S
C677 C693 1.349 . S
C678 C676 1.327 . S
C678 C697 1.429 . S
C678 H702 0.950 . S
C679 C696 1.574 . S
C679 C698 1.368 . S
C679 H703 0.949 . S
H680 C684 0.949 . S
C681 C682 1.349 . S
C681 C683 1.327 . S
C681 H704 0.950 . S
C682 C681 1.349 . S
C682 C694 1.349 . S
C683 C681 1.327 . S
C683 C699 1.429 . S
C683 H705 0.950 . S
C684 H680 0.949 . S
C684 C692 1.574 . S
C684 C700 1.368 . S
H685 C693 0.950 . S
H686 C691 0.950 . S
H687 C692 0.949 . S
H688 C694 0.950 . S
H689 C695 0.950 . S
H690 C696 0.949 . S
C691 H686 0.950 . S
C691 C693 1.327 . S
C691 C697 1.429 . S
C692 C684 1.574 . S
C692 H687 0.949 . S
C692 C698 1.368 . S
C693 C677 1.349 . S
C693 H685 0.950 . S
C693 C691 1.327 . S
C694 C682 1.349 . S
C694 H688 0.950 . S
C694 C695 1.327 . S
C695 H689 0.950 . S
C695 C694 1.327 . S
C695 C699 1.429 . S
C696 C679 1.574 . S
C696 H690 0.949 . S
C696 C700 1.368 . S
C697 C678 1.429 . S
C697 C691 1.429 . S
C697 C698 1.523 . S
C698 C679 1.368 . S
C698 C692 1.368 . S
C698 C697 1.523 . S
C699 C683 1.429 . S
C699 C695 1.429 . S
C699 C700 1.523 . S
C700 C684 1.368 . S
C700 C696 1.368 . S
C700 C699 1.523 . S
H701 C676 0.950 . S
H702 C678 0.950 . S
H703 C679 0.949 . S
H704 C681 0.950 . S
H705 C683 0.950 . S
C706 C707 1.349 . S
C706 C708 1.327 . S
C706 H731 0.950 . S
C707 C706 1.349 . S
C707 C723 1.349 . S
C708 C706 1.327 . S
C708 C727 1.429 . S
C708 H732 0.950 . S
C709 C726 1.574 . S
C709 C728 1.368 . S
C709 H733 0.949 . S
H710 C714 0.949 . S
C711 C712 1.349 . S
C711 C713 1.327 . S
C711 H734 0.950 . S
C712 C711 1.349 . S
C712 C724 1.349 . S
C713 C711 1.327 . S
C713 C729 1.429 . S
C713 H735 0.950 . S
C714 H710 0.949 . S
C714 C722 1.574 . S
C714 C730 1.368 . S
H715 C723 0.950 . S
H716 C721 0.950 . S
H717 C722 0.949 . S
H718 C724 0.950 . S
H719 C725 0.950 . S
H720 C726 0.949 . S
C721 H716 0.950 . S
C721 C723 1.327 . S
C721 C727 1.429 . S
C722 C714 1.574 . S
C722 H717 0.949 . S
C722 C728 1.368 . S
C723 C707 1.349 . S
C723 H715 0.950 . S
C723 C721 1.327 . S
C724 C712 1.349 . S
C724 H718 0.950 . S
C724 C725 1.327 . S
C725 H719 0.950 . S
C725 C724 1.327 . S
C725 C729 1.429 . S
C726 C709 1.574 . S
C726 H720 0.949 . S
C726 C730 1.368 . S
C727 C708 1.429 . S
C727 C721 1.429 . S
C727 C728 1.523 . S
C728 C709 1.368 . S
C728 C722 1.368 . S
C728 C727 1.523 . S
C729 C713 1.429 . S
C729 C725 1.429 . S
C729 C730 1.523 . S
C730 C714 1.368 . S
C730 C726 1.368 . S
C730 C729 1.523 . S
H731 C706 0.950 . S
H732 C708 0.950 . S
H733 C709 0.949 . S
H734 C711 0.950 . S
H735 C713 0.950 . S
C736 C737 1.349 . S
C736 C738 1.327 . S
C736 H761 0.950 . S
C737 C736 1.349 . S
C737 C753 1.349 . S
C738 C736 1.327 . S
C738 C757 1.429 . S
C738 H762 0.950 . S
C739 C756 1.574 . S
C739 C758 1.368 . S
C739 H763 0.949 . S
H740 C744 0.949 . S
C741 C742 1.349 . S
C741 C743 1.327 . S
C741 H764 0.950 1_545 S
C742 C741 1.349 . S
C742 C754 1.349 . S
C743 C741 1.327 . S
C743 C759 1.429 . S
C743 H765 0.950 . S
C744 H740 0.949 . S
C744 C752 1.574 . S
C744 C760 1.368 . S
H745 C753 0.950 . S
H746 C751 0.950 . S
H747 C752 0.949 . S
H748 C754 0.950 . S
H749 C755 0.950 . S
H750 C756 0.949 . S
C751 H746 0.950 . S
C751 C753 1.327 . S
C751 C757 1.429 . S
C752 C744 1.574 . S
C752 H747 0.949 . S
C752 C758 1.368 . S
C753 C737 1.349 . S
C753 H745 0.950 . S
C753 C751 1.327 . S
C754 C742 1.349 . S
C754 H748 0.950 . S
C754 C755 1.327 . S
C755 H749 0.950 . S
C755 C754 1.327 . S
C755 C759 1.429 . S
C756 C739 1.574 . S
C756 H750 0.949 . S
C756 C760 1.368 . S
C757 C738 1.429 . S
C757 C751 1.429 . S
C757 C758 1.523 . S
C758 C739 1.368 . S
C758 C752 1.368 . S
C758 C757 1.523 . S
C759 C743 1.429 . S
C759 C755 1.429 . S
C759 C760 1.523 . S
C760 C744 1.368 . S
C760 C756 1.368 . S
C760 C759 1.523 . S
H761 C736 0.950 . S
H762 C738 0.950 . S
H763 C739 0.949 . S
H764 C741 0.950 1_565 S
H765 C743 0.950 . S
C766 C767 1.349 . S
C766 C768 1.327 . S
C766 H791 0.950 . S
C767 C766 1.349 . S
C767 C783 1.349 . S
C768 C766 1.327 . S
C768 C787 1.429 . S
C768 H792 0.950 . S
C769 C786 1.574 . S
C769 C788 1.368 . S
C769 H793 0.949 . S
H770 C774 0.949 . S
C771 C772 1.349 . S
C771 C773 1.327 . S
C771 H794 0.950 1_565 S
C772 C771 1.349 . S
C772 C784 1.349 . S
C773 C771 1.327 . S
C773 C789 1.429 . S
C773 H795 0.950 . S
C774 H770 0.949 . S
C774 C782 1.574 . S
C774 C790 1.368 . S
H775 C783 0.950 . S
H776 C781 0.950 . S
H777 C782 0.949 . S
H778 C784 0.950 . S
H779 C785 0.950 . S
H780 C786 0.949 . S
C781 H776 0.950 . S
C781 C783 1.327 . S
C781 C787 1.429 . S
C782 C774 1.574 . S
C782 H777 0.949 . S
C782 C788 1.368 . S
C783 C767 1.349 . S
C783 H775 0.950 . S
C783 C781 1.327 . S
C784 C772 1.349 . S
C784 H778 0.950 . S
C784 C785 1.327 . S
C785 H779 0.950 . S
C785 C784 1.327 . S
C785 C789 1.429 . S
C786 C769 1.574 . S
C786 H780 0.949 . S
C786 C790 1.368 . S
C787 C768 1.429 . S
C787 C781 1.429 . S
C787 C788 1.523 . S
C788 C769 1.368 . S
C788 C782 1.368 . S
C788 C787 1.523 . S
C789 C773 1.429 . S
C789 C785 1.429 . S
C789 C790 1.523 . S
C790 C774 1.368 . S
C790 C786 1.368 . S
C790 C789 1.523 . S
H791 C766 0.950 . S
H792 C768 0.950 . S
H793 C769 0.949 . S
H794 C771 0.950 1_545 S
H795 C773 0.950 . S
C796 C797 1.349 . S
C796 C798 1.327 . S
C796 H821 0.950 . S
C797 C796 1.349 . S
C797 C813 1.349 . S
C798 C796 1.327 . S
C798 C817 1.429 . S
C798 H822 0.950 . S
C799 C816 1.574 . S
C799 C818 1.368 . S
C799 H823 0.949 . S
H800 C804 0.949 . S
C801 C802 1.349 . S
C801 C803 1.327 . S
C801 H824 0.950 . S
C802 C801 1.349 . S
C802 C814 1.349 . S
C803 C801 1.327 . S
C803 C819 1.429 . S
C803 H825 0.950 . S
C804 H800 0.949 . S
C804 C812 1.574 . S
C804 C820 1.368 . S
H805 C813 0.950 . S
H806 C811 0.950 . S
H807 C812 0.949 . S
H808 C814 0.950 . S
H809 C815 0.950 . S
H810 C816 0.949 . S
C811 H806 0.950 . S
C811 C813 1.327 . S
C811 C817 1.429 . S
C812 C804 1.574 . S
C812 H807 0.949 . S
C812 C818 1.368 . S
C813 C797 1.349 . S
C813 H805 0.950 . S
C813 C811 1.327 . S
C814 C802 1.349 . S
C814 H808 0.950 . S
C814 C815 1.327 . S
C815 H809 0.950 . S
C815 C814 1.327 . S
C815 C819 1.429 . S
C816 C799 1.574 . S
C816 H810 0.949 . S
C816 C820 1.368 . S
C817 C798 1.429 . S
C817 C811 1.429 . S
C817 C818 1.523 . S
C818 C799 1.368 . S
C818 C812 1.368 . S
C818 C817 1.523 . S
C819 C803 1.429 . S
C819 C815 1.429 . S
C819 C820 1.523 . S
C820 C804 1.368 . S
C820 C816 1.368 . S
C820 C819 1.523 . S
H821 C796 0.950 . S
H822 C798 0.950 . S
H823 C799 0.949 . S
H824 C801 0.950 . S
H825 C803 0.950 . S
C826 C827 1.349 . S
C826 C828 1.327 . S
C826 H851 0.950 . S
C827 C826 1.349 . S
C827 C843 1.349 . S
C828 C826 1.327 . S
C828 C847 1.429 . S
C828 H852 0.950 . S
C829 C846 1.574 . S
C829 C848 1.368 . S
C829 H853 0.949 . S
H830 C834 0.949 . S
C831 C832 1.349 . S
C831 C833 1.327 . S
C831 H854 0.950 . S
C832 C831 1.349 . S
C832 C844 1.349 . S
C833 C831 1.327 . S
C833 C849 1.429 . S
C833 H855 0.950 . S
C834 H830 0.949 . S
C834 C842 1.574 . S
C834 C850 1.368 . S
H835 C843 0.950 . S
H836 C841 0.950 . S
H837 C842 0.949 . S
H838 C844 0.950 . S
H839 C845 0.950 . S
H840 C846 0.949 . S
C841 H836 0.950 . S
C841 C843 1.327 . S
C841 C847 1.429 . S
C842 C834 1.574 . S
C842 H837 0.949 . S
C842 C848 1.368 . S
C843 C827 1.349 . S
C843 H835 0.950 . S
C843 C841 1.327 . S
C844 C832 1.349 . S
C844 H838 0.950 . S
C844 C845 1.327 . S
C845 H839 0.950 . S
C845 C844 1.327 . S
C845 C849 1.429 . S
C846 C829 1.574 . S
C846 H840 0.949 . S
C846 C850 1.368 . S
C847 C828 1.429 . S
C847 C841 1.429 . S
C847 C848 1.523 . S
C848 C829 1.368 . S
C848 C842 1.368 . S
C848 C847 1.523 . S
C849 C833 1.429 . S
C849 C845 1.429 . S
C849 C850 1.523 . S
C850 C834 1.368 . S
C850 C846 1.368 . S
C850 C849 1.523 . S
H851 C826 0.950 . S
H852 C828 0.950 . S
H853 C829 0.949 . S
H854 C831 0.950 . S
H855 C833 0.950 . S
C856 C857 1.349 . S
C856 C858 1.327 . S
C856 H881 0.950 . S
C857 C856 1.349 . S
C857 C873 1.349 . S
C858 C856 1.327 . S
C858 C877 1.429 . S
C858 H882 0.950 . S
C859 C876 1.574 . S
C859 C878 1.368 . S
C859 H883 0.949 . S
H860 C864 0.949 . S
C861 C862 1.349 . S
C861 C863 1.327 . S
C861 H884 0.950 . S
C862 C861 1.349 . S
C862 C874 1.349 . S
C863 C861 1.327 . S
C863 C879 1.429 . S
C863 H885 0.950 . S
C864 H860 0.949 . S
C864 C872 1.574 . S
C864 C880 1.368 . S
H865 C873 0.950 . S
H866 C871 0.950 . S
H867 C872 0.949 . S
H868 C874 0.950 1_556 S
H869 C875 0.950 . S
H870 C876 0.949 . S
C871 H866 0.950 . S
C871 C873 1.327 . S
C871 C877 1.429 . S
C872 C864 1.574 . S
C872 H867 0.949 . S
C872 C878 1.368 . S
C873 C857 1.349 . S
C873 H865 0.950 . S
C873 C871 1.327 . S
C874 C862 1.349 . S
C874 H868 0.950 1_554 S
C874 C875 1.327 . S
C875 H869 0.950 . S
C875 C874 1.327 . S
C875 C879 1.429 . S
C876 C859 1.574 . S
C876 H870 0.949 . S
C876 C880 1.368 . S
C877 C858 1.429 . S
C877 C871 1.429 . S
C877 C878 1.523 . S
C878 C859 1.368 . S
C878 C872 1.368 . S
C878 C877 1.523 . S
C879 C863 1.429 . S
C879 C875 1.429 . S
C879 C880 1.523 . S
C880 C864 1.368 . S
C880 C876 1.368 . S
C880 C879 1.523 . S
H881 C856 0.950 . S
H882 C858 0.950 . S
H883 C859 0.949 . S
H884 C861 0.950 . S
H885 C863 0.950 . S
C886 C887 1.349 . S
C886 C888 1.327 . S
C886 H911 0.950 . S
C887 C886 1.349 . S
C887 C903 1.349 . S
C888 C886 1.327 . S
C888 C907 1.429 . S
C888 H912 0.950 . S
C889 C906 1.574 . S
C889 C908 1.368 . S
C889 H913 0.949 . S
H890 C894 0.949 . S
C891 C892 1.349 . S
C891 C893 1.327 . S
C891 H914 0.950 . S
C892 C891 1.349 . S
C892 C904 1.349 . S
C893 C891 1.327 . S
C893 C909 1.429 . S
C893 H915 0.950 . S
C894 H890 0.949 . S
C894 C902 1.574 . S
C894 C910 1.368 . S
H895 C903 0.950 . S
H896 C901 0.950 . S
H897 C902 0.949 . S
H898 C904 0.950 . S
H899 C905 0.950 . S
H900 C906 0.949 . S
C901 H896 0.950 . S
C901 C903 1.327 . S
C901 C907 1.429 . S
C902 C894 1.574 . S
C902 H897 0.949 . S
C902 C908 1.368 . S
C903 C887 1.349 . S
C903 H895 0.950 . S
C903 C901 1.327 . S
C904 C892 1.349 . S
C904 H898 0.950 . S
C904 C905 1.327 . S
C905 H899 0.950 . S
C905 C904 1.327 . S
C905 C909 1.429 . S
C906 C889 1.574 . S
C906 H900 0.949 . S
C906 C910 1.368 . S
C907 C888 1.429 . S
C907 C901 1.429 . S
C907 C908 1.523 . S
C908 C889 1.368 . S
C908 C902 1.368 . S
C908 C907 1.523 . S
C909 C893 1.429 . S
C909 C905 1.429 . S
C909 C910 1.523 . S
C910 C894 1.368 . S
C910 C906 1.368 . S
C910 C909 1.523 . S
H911 C886 0.950 . S
H912 C888 0.950 . S
H913 C889 0.949 . S
H914 C891 0.950 . S
H915 C893 0.950 . S
C916 C917 1.349 . S
C916 C918 1.327 . S
C916 H941 0.950 . S
C917 C916 1.349 . S
C917 C933 1.349 . S
C918 C916 1.327 . S
C918 C937 1.429 . S
C918 H942 0.950 . S
C919 C936 1.574 . S
C919 C938 1.368 . S
C919 H943 0.949 . S
H920 C924 0.949 . S
C921 C922 1.349 . S
C921 C923 1.327 . S
C921 H944 0.950 . S
C922 C921 1.349 . S
C922 C934 1.349 . S
C923 C921 1.327 . S
C923 C939 1.429 . S
C923 H945 0.950 . S
C924 H920 0.949 . S
C924 C932 1.574 . S
C924 C940 1.368 . S
H925 C933 0.950 . S
H926 C931 0.950 . S
H927 C932 0.949 . S
H928 C934 0.950 . S
H929 C935 0.950 . S
H930 C936 0.949 . S
C931 H926 0.950 . S
C931 C933 1.327 . S
C931 C937 1.429 . S
C932 C924 1.574 . S
C932 H927 0.949 . S
C932 C938 1.368 . S
C933 C917 1.349 . S
C933 H925 0.950 . S
C933 C931 1.327 . S
C934 C922 1.349 . S
C934 H928 0.950 . S
C934 C935 1.327 . S
C935 H929 0.950 . S
C935 C934 1.327 . S
C935 C939 1.429 . S
C936 C919 1.574 . S
C936 H930 0.949 . S
C936 C940 1.368 . S
C937 C918 1.429 . S
C937 C931 1.429 . S
C937 C938 1.523 . S
C938 C919 1.368 . S
C938 C932 1.368 . S
C938 C937 1.523 . S
C939 C923 1.429 . S
C939 C935 1.429 . S
C939 C940 1.523 . S
C940 C924 1.368 . S
C940 C936 1.368 . S
C940 C939 1.523 . S
H941 C916 0.950 . S
H942 C918 0.950 . S
H943 C919 0.949 . S
H944 C921 0.950 . S
H945 C923 0.950 . S
C946 C947 1.349 . S
C946 C948 1.327 . S
C946 H971 0.950 . S
C947 C946 1.349 . S
C947 C963 1.349 . S
C948 C946 1.327 . S
C948 C967 1.429 . S
C948 H972 0.950 . S
C949 C966 1.574 . S
C949 C968 1.368 . S
C949 H973 0.949 . S
H950 C954 0.949 . S
C951 C952 1.349 . S
C951 C953 1.327 . S
C951 H974 0.950 . S
C952 C951 1.349 . S
C952 C964 1.349 . S
C953 C951 1.327 . S
C953 C969 1.429 . S
C953 H975 0.950 . S
C954 H950 0.949 . S
C954 C962 1.574 . S
C954 C970 1.368 . S
H955 C963 0.950 . S
H956 C961 0.950 . S
H957 C962 0.949 . S
H958 C964 0.950 . S
H959 C965 0.950 . S
H960 C966 0.949 . S
C961 H956 0.950 . S
C961 C963 1.327 . S
C961 C967 1.429 . S
C962 C954 1.574 . S
C962 H957 0.949 . S
C962 C968 1.368 . S
C963 C947 1.349 . S
C963 H955 0.950 . S
C963 C961 1.327 . S
C964 C952 1.349 . S
C964 H958 0.950 . S
C964 C965 1.327 . S
C965 H959 0.950 . S
C965 C964 1.327 . S
C965 C969 1.429 . S
C966 C949 1.574 . S
C966 H960 0.949 . S
C966 C970 1.368 . S
C967 C948 1.429 . S
C967 C961 1.429 . S
C967 C968 1.523 . S
C968 C949 1.368 . S
C968 C962 1.368 . S
C968 C967 1.523 . S
C969 C953 1.429 . S
C969 C965 1.429 . S
C969 C970 1.523 . S
C970 C954 1.368 . S
C970 C966 1.368 . S
C970 C969 1.523 . S
H971 C946 0.950 . S
H972 C948 0.950 . S
H973 C949 0.949 . S
H974 C951 0.950 . S
H975 C953 0.950 . S
C976 C977 1.349 . S
C976 C978 1.327 . S
C976 H1001 0.950 . S
C977 C976 1.349 . S
C977 C993 1.349 . S
C978 C976 1.327 . S
C978 C997 1.429 . S
C978 H1002 0.950 . S
C979 C996 1.574 . S
C979 C998 1.368 . S
C979 H1003 0.949 . S
H980 C984 0.949 . S
C981 C982 1.349 . S
C981 C983 1.327 . S
C981 H1004 0.950 1_565 S
C982 C981 1.349 . S
C982 C994 1.349 . S
C983 C981 1.327 . S
C983 C999 1.429 . S
C983 H1005 0.950 . S
C984 H980 0.949 . S
C984 C992 1.574 . S
C984 C1000 1.368 . S
H985 C993 0.950 . S
H986 C991 0.950 . S
H987 C992 0.949 . S
H988 C994 0.950 . S
H989 C995 0.950 . S
H990 C996 0.949 . S
C991 H986 0.950 . S
C991 C993 1.327 . S
C991 C997 1.429 . S
C992 C984 1.574 . S
C992 H987 0.949 . S
C992 C998 1.368 . S
C993 C977 1.349 . S
C993 H985 0.950 . S
C993 C991 1.327 . S
C994 C982 1.349 . S
C994 H988 0.950 . S
C994 C995 1.327 . S
C995 H989 0.950 . S
C995 C994 1.327 . S
C995 C999 1.429 . S
C996 C979 1.574 . S
C996 H990 0.949 . S
C996 C1000 1.368 . S
C997 C978 1.429 . S
C997 C991 1.429 . S
C997 C998 1.523 . S
C998 C979 1.368 . S
C998 C992 1.368 . S
C998 C997 1.523 . S
C999 C983 1.429 . S
C999 C995 1.429 . S
C999 C1000 1.523 . S
C1000 C984 1.368 . S
C1000 C996 1.368 . S
C1000 C999 1.523 . S
H1001 C976 0.950 . S
H1002 C978 0.950 . S
H1003 C979 0.949 . S
H1004 C981 0.950 1_545 S
H1005 C983 0.950 . S
C1006 C1007 1.349 . S
C1006 C1008 1.327 . S
C1006 H1031 0.950 . S
C1007 C1006 1.349 . S
C1007 C1023 1.349 . S
C1008 C1006 1.327 . S
C1008 C1027 1.429 . S
C1008 H1032 0.950 . S
C1009 C1026 1.574 . S
C1009 C1028 1.368 . S
C1009 H1033 0.949 . S
H1010 C1014 0.949 . S
C1011 C1012 1.349 . S
C1011 C1013 1.327 . S
C1011 H1034 0.950 . S
C1012 C1011 1.349 . S
C1012 C1024 1.349 . S
C1013 C1011 1.327 . S
C1013 C1029 1.429 . S
C1013 H1035 0.950 . S
C1014 H1010 0.949 . S
C1014 C1022 1.574 . S
C1014 C1030 1.368 . S
H1015 C1023 0.950 . S
H1016 C1021 0.950 . S
H1017 C1022 0.949 . S
H1018 C1024 0.943 1_565 S
H1019 C1025 0.950 . S
H1020 C1026 0.949 . S
C1021 H1016 0.950 . S
C1021 C1023 1.327 . S
C1021 C1027 1.429 . S
C1022 C1014 1.574 . S
C1022 H1017 0.949 . S
C1022 C1028 1.368 . S
C1023 C1007 1.349 . S
C1023 H1015 0.950 . S
C1023 C1021 1.327 . S
C1024 C1012 1.349 . S
C1024 H1018 0.943 1_545 S
C1024 C1025 1.327 . S
C1025 H1019 0.950 . S
C1025 C1024 1.327 . S
C1025 C1029 1.429 . S
C1026 C1009 1.574 . S
C1026 H1020 0.949 . S
C1026 C1030 1.368 . S
C1027 C1008 1.429 . S
C1027 C1021 1.429 . S
C1027 C1028 1.523 . S
C1028 C1009 1.368 . S
C1028 C1022 1.368 . S
C1028 C1027 1.523 . S
C1029 C1013 1.429 . S
C1029 C1025 1.429 . S
C1029 C1030 1.523 . S
C1030 C1014 1.368 . S
C1030 C1026 1.368 . S
C1030 C1029 1.523 . S
H1031 C1006 0.950 . S
H1032 C1008 0.950 . S
H1033 C1009 0.949 . S
H1034 C1011 0.950 . S
H1035 C1013 0.950 . S
C1036 C1037 1.349 . S
C1036 C1038 1.327 . S
C1036 H1061 0.950 . S
C1037 C1036 1.349 . S
C1037 C1053 1.349 . S
C1038 C1036 1.327 . S
C1038 C1057 1.429 . S
C1038 H1062 0.950 . S
C1039 C1056 1.574 . S
C1039 C1058 1.368 . S
C1039 H1063 0.949 . S
H1040 C1044 0.949 . S
C1041 C1042 1.349 . S
C1041 C1043 1.327 . S
C1041 H1064 0.950 . S
C1042 C1041 1.349 . S
C1042 C1054 1.349 . S
C1043 C1041 1.327 . S
C1043 C1059 1.429 . S
C1043 H1065 0.950 . S
C1044 H1040 0.949 . S
C1044 C1052 1.574 . S
C1044 C1060 1.368 . S
H1045 C1053 0.950 . S
H1046 C1051 0.950 . S
H1047 C1052 0.949 . S
H1048 C1054 0.950 . S
H1049 C1055 0.950 . S
H1050 C1056 0.949 . S
C1051 H1046 0.950 . S
C1051 C1053 1.327 . S
C1051 C1057 1.429 . S
C1052 C1044 1.574 . S
C1052 H1047 0.949 . S
C1052 C1058 1.368 . S
C1053 C1037 1.349 . S
C1053 H1045 0.950 . S
C1053 C1051 1.327 . S
C1054 C1042 1.349 . S
C1054 H1048 0.950 . S
C1054 C1055 1.327 . S
C1055 H1049 0.950 . S
C1055 C1054 1.327 . S
C1055 C1059 1.429 . S
C1056 C1039 1.574 . S
C1056 H1050 0.949 . S
C1056 C1060 1.368 . S
C1057 C1038 1.429 . S
C1057 C1051 1.429 . S
C1057 C1058 1.523 . S
C1058 C1039 1.368 . S
C1058 C1052 1.368 . S
C1058 C1057 1.523 . S
C1059 C1043 1.429 . S
C1059 C1055 1.429 . S
C1059 C1060 1.523 . S
C1060 C1044 1.368 . S
C1060 C1056 1.368 . S
C1060 C1059 1.523 . S
H1061 C1036 0.950 . S
H1062 C1038 0.950 . S
H1063 C1039 0.949 . S
H1064 C1041 0.950 . S
H1065 C1043 0.950 . S
C1066 C1067 1.349 . S
C1066 C1068 1.327 . S
C1066 H1091 0.950 . S
C1067 C1066 1.349 . S
C1067 C1083 1.349 . S
C1068 C1066 1.327 . S
C1068 C1087 1.429 . S
C1068 H1092 0.950 . S
C1069 C1086 1.574 . S
C1069 C1088 1.368 . S
C1069 H1093 0.949 . S
H1070 C1074 0.949 . S
C1071 C1072 1.349 . S
C1071 C1073 1.327 . S
C1071 H1094 0.950 . S
C1072 C1071 1.349 . S
C1072 C1084 1.349 . S
C1073 C1071 1.327 . S
C1073 C1089 1.429 . S
C1073 H1095 0.950 . S
C1074 H1070 0.949 . S
C1074 C1082 1.574 . S
C1074 C1090 1.368 . S
H1075 C1083 0.950 . S
H1076 C1081 0.950 . S
H1077 C1082 0.949 . S
H1078 C1084 0.950 . S
H1079 C1085 0.950 . S
H1080 C1086 0.949 . S
C1081 H1076 0.950 . S
C1081 C1083 1.327 . S
C1081 C1087 1.429 . S
C1082 C1074 1.574 . S
C1082 H1077 0.949 . S
C1082 C1088 1.368 . S
C1083 C1067 1.349 . S
C1083 H1075 0.950 . S
C1083 C1081 1.327 . S
C1084 C1072 1.349 . S
C1084 H1078 0.950 . S
C1084 C1085 1.327 . S
C1085 H1079 0.950 . S
C1085 C1084 1.327 . S
C1085 C1089 1.429 . S
C1086 C1069 1.574 . S
C1086 H1080 0.949 . S
C1086 C1090 1.368 . S
C1087 C1068 1.429 . S
C1087 C1081 1.429 . S
C1087 C1088 1.523 . S
C1088 C1069 1.368 . S
C1088 C1082 1.368 . S
C1088 C1087 1.523 . S
C1089 C1073 1.429 . S
C1089 C1085 1.429 . S
C1089 C1090 1.523 . S
C1090 C1074 1.368 . S
C1090 C1086 1.368 . S
C1090 C1089 1.523 . S
H1091 C1066 0.950 . S
H1092 C1068 0.950 . S
H1093 C1069 0.949 . S
H1094 C1071 0.950 . S
H1095 C1073 0.950 . S
C1096 C1097 1.349 . S
C1096 C1098 1.327 . S
C1096 H1121 0.950 . S
C1097 C1096 1.349 . S
C1097 C1113 1.349 . S
C1098 C1096 1.327 . S
C1098 C1117 1.429 . S
C1098 H1122 0.950 . S
C1099 C1116 1.574 . S
C1099 C1118 1.368 . S
C1099 H1123 0.949 . S
H1100 C1104 0.949 . S
C1101 C1102 1.349 . S
C1101 C1103 1.327 . S
C1101 H1124 0.950 1_556 S
C1102 C1101 1.349 . S
C1102 C1114 1.349 . S
C1103 C1101 1.327 . S
C1103 C1119 1.429 . S
C1103 H1125 0.950 . S
C1104 H1100 0.949 . S
C1104 C1112 1.574 . S
C1104 C1120 1.368 . S
H1105 C1113 0.950 . S
H1106 C1111 0.950 . S
H1107 C1112 0.949 . S
H1108 C1114 0.950 . S
H1109 C1115 0.950 . S
H1110 C1116 0.949 . S
C1111 H1106 0.950 . S
C1111 C1113 1.327 . S
C1111 C1117 1.429 . S
C1112 C1104 1.574 . S
C1112 H1107 0.949 . S
C1112 C1118 1.368 . S
C1113 C1097 1.349 . S
C1113 H1105 0.950 . S
C1113 C1111 1.327 . S
C1114 C1102 1.349 . S
C1114 H1108 0.950 . S
C1114 C1115 1.327 . S
C1115 H1109 0.950 . S
C1115 C1114 1.327 . S
C1115 C1119 1.429 . S
C1116 C1099 1.574 . S
C1116 H1110 0.949 . S
C1116 C1120 1.368 . S
C1117 C1098 1.429 . S
C1117 C1111 1.429 . S
C1117 C1118 1.523 . S
C1118 C1099 1.368 . S
C1118 C1112 1.368 . S
C1118 C1117 1.523 . S
C1119 C1103 1.429 . S
C1119 C1115 1.429 . S
C1119 C1120 1.523 . S
C1120 C1104 1.368 . S
C1120 C1116 1.368 . S
C1120 C1119 1.523 . S
H1121 C1096 0.950 . S
H1122 C1098 0.950 . S
H1123 C1099 0.949 . S
H1124 C1101 0.950 1_554 S
H1125 C1103 0.950 . S
C1126 C1127 1.349 . S
C1126 C1128 1.327 . S
C1126 H1151 0.950 . S
C1127 C1126 1.349 . S
C1127 C1143 1.349 . S
C1128 C1126 1.327 . S
C1128 C1147 1.429 . S
C1128 H1152 0.950 . S
C1129 C1146 1.574 . S
C1129 C1148 1.368 . S
C1129 H1153 0.949 . S
H1130 C1134 0.949 . S
C1131 C1132 1.349 . S
C1131 C1133 1.327 . S
C1131 H1154 0.950 1_545 S
C1132 C1131 1.349 . S
C1132 C1144 1.349 . S
C1133 C1131 1.327 . S
C1133 C1149 1.429 . S
C1133 H1155 0.950 . S
C1134 H1130 0.949 . S
C1134 C1142 1.574 . S
C1134 C1150 1.368 . S
H1135 C1143 0.950 . S
H1136 C1141 0.950 . S
H1137 C1142 0.949 . S
H1138 C1144 0.950 . S
H1139 C1145 0.950 . S
H1140 C1146 0.949 . S
C1141 H1136 0.950 . S
C1141 C1143 1.327 . S
C1141 C1147 1.429 . S
C1142 C1134 1.574 . S
C1142 H1137 0.949 . S
C1142 C1148 1.368 . S
C1143 C1127 1.349 . S
C1143 H1135 0.950 . S
C1143 C1141 1.327 . S
C1144 C1132 1.349 . S
C1144 H1138 0.950 . S
C1144 C1145 1.327 . S
C1145 H1139 0.950 . S
C1145 C1144 1.327 . S
C1145 C1149 1.429 . S
C1146 C1129 1.574 . S
C1146 H1140 0.949 . S
C1146 C1150 1.368 . S
C1147 C1128 1.429 . S
C1147 C1141 1.429 . S
C1147 C1148 1.523 . S
C1148 C1129 1.368 . S
C1148 C1142 1.368 . S
C1148 C1147 1.523 . S
C1149 C1133 1.429 . S
C1149 C1145 1.429 . S
C1149 C1150 1.523 . S
C1150 C1134 1.368 . S
C1150 C1146 1.368 . S
C1150 C1149 1.523 . S
H1151 C1126 0.950 . S
H1152 C1128 0.950 . S
H1153 C1129 0.949 . S
H1154 C1131 0.950 1_565 S
H1155 C1133 0.950 . S
C1156 C1157 1.349 . S
C1156 C1158 1.327 . S
C1156 H1181 0.950 . S
C1157 C1156 1.349 . S
C1157 C1173 1.349 . S
C1158 C1156 1.327 . S
C1158 C1177 1.429 . S
C1158 H1182 0.950 . S
C1159 C1176 1.574 . S
C1159 C1178 1.368 . S
C1159 H1183 0.949 . S
H1160 C1164 0.949 . S
C1161 C1162 1.349 . S
C1161 C1163 1.327 . S
C1161 H1184 0.950 1_554 S
C1162 C1161 1.349 . S
C1162 C1174 1.349 . S
C1163 C1161 1.327 . S
C1163 C1179 1.429 . S
C1163 H1185 0.924 1_554 S
C1164 H1160 0.949 . S
C1164 C1172 1.574 . S
C1164 C1180 1.368 . S
H1165 C1173 0.950 . S
H1166 C1171 0.950 . S
H1167 C1172 0.949 . S
H1168 C1174 0.950 . S
H1169 C1175 0.950 . S
H1170 C1176 0.949 . S
C1171 H1166 0.950 . S
C1171 C1173 1.327 . S
C1171 C1177 1.429 . S
C1172 C1164 1.574 . S
C1172 H1167 0.949 . S
C1172 C1178 1.368 . S
C1173 C1157 1.349 . S
C1173 H1165 0.950 . S
C1173 C1171 1.327 . S
C1174 C1162 1.349 . S
C1174 H1168 0.950 . S
C1174 C1175 1.327 . S
C1175 H1169 0.950 . S
C1175 C1174 1.327 . S
C1175 C1179 1.429 . S
C1176 C1159 1.574 . S
C1176 H1170 0.949 . S
C1176 C1180 1.368 . S
C1177 C1158 1.429 . S
C1177 C1171 1.429 . S
C1177 C1178 1.523 . S
C1178 C1159 1.368 . S
C1178 C1172 1.368 . S
C1178 C1177 1.523 . S
C1179 C1163 1.429 . S
C1179 C1175 1.429 . S
C1179 C1180 1.523 . S
C1180 C1164 1.368 . S
C1180 C1176 1.368 . S
C1180 C1179 1.523 . S
H1181 C1156 0.950 . S
H1182 C1158 0.950 . S
H1183 C1159 0.949 . S
H1184 C1161 0.950 1_556 S
H1185 C1163 0.924 1_556 S
C1186 C1187 1.349 . S
C1186 C1188 1.327 . S
C1186 H1211 0.950 . S
C1187 C1186 1.349 . S
C1187 C1203 1.349 . S
C1188 C1186 1.327 . S
C1188 C1207 1.429 . S
C1188 H1212 0.950 . S
C1189 C1206 1.574 . S
C1189 C1208 1.368 . S
C1189 H1213 0.949 . S
H1190 C1194 0.949 . S
C1191 C1192 1.349 . S
C1191 C1193 1.327 . S
C1191 H1214 0.950 . S
C1192 C1191 1.349 . S
C1192 C1204 1.349 . S
C1193 C1191 1.327 . S
C1193 C1209 1.429 . S
C1193 H1215 0.950 . S
C1194 H1190 0.949 . S
C1194 C1202 1.574 . S
C1194 C1210 1.368 . S
H1195 C1203 0.950 . S
H1196 C1201 0.950 . S
H1197 C1202 0.949 . S
H1198 C1204 0.950 . S
H1199 C1205 0.950 . S
H1200 C1206 0.949 . S
C1201 H1196 0.950 . S
C1201 C1203 1.327 . S
C1201 C1207 1.429 . S
C1202 C1194 1.574 . S
C1202 H1197 0.949 . S
C1202 C1208 1.368 . S
C1203 C1187 1.349 . S
C1203 H1195 0.950 . S
C1203 C1201 1.327 . S
C1204 C1192 1.349 . S
C1204 H1198 0.950 . S
C1204 C1205 1.327 . S
C1205 H1199 0.950 . S
C1205 C1204 1.327 . S
C1205 C1209 1.429 . S
C1206 C1189 1.574 . S
C1206 H1200 0.949 . S
C1206 C1210 1.368 . S
C1207 C1188 1.429 . S
C1207 C1201 1.429 . S
C1207 C1208 1.523 . S
C1208 C1189 1.368 . S
C1208 C1202 1.368 . S
C1208 C1207 1.523 . S
C1209 C1193 1.429 . S
C1209 C1205 1.429 . S
C1209 C1210 1.523 . S
C1210 C1194 1.368 . S
C1210 C1206 1.368 . S
C1210 C1209 1.523 . S
H1211 C1186 0.950 . S
H1212 C1188 0.950 . S
H1213 C1189 0.949 . S
H1214 C1191 0.950 . S
H1215 C1193 0.950 . S
C1216 C1217 1.349 . S
C1216 C1218 1.327 . S
C1216 H1241 0.950 . S
C1217 C1216 1.349 . S
C1217 C1233 1.349 . S
C1218 C1216 1.327 . S
C1218 C1237 1.429 . S
C1218 H1242 0.950 . S
C1219 C1236 1.574 . S
C1219 C1238 1.368 . S
C1219 H1243 0.949 . S
H1220 C1224 0.949 . S
C1221 C1222 1.349 . S
C1221 C1223 1.327 . S
C1221 H1244 0.950 1_655 S
C1222 C1221 1.349 . S
C1222 C1234 1.349 . S
C1223 C1221 1.327 . S
C1223 C1239 1.429 . S
C1223 H1245 0.950 . S
C1224 H1220 0.949 . S
C1224 C1232 1.574 . S
C1224 C1240 1.368 . S
H1225 C1233 0.950 . S
H1226 C1231 0.950 . S
H1227 C1232 0.949 . S
H1228 C1234 0.950 . S
H1229 C1235 0.950 . S
H1230 C1236 0.949 . S
C1231 H1226 0.950 . S
C1231 C1233 1.327 . S
C1231 C1237 1.429 . S
C1232 C1224 1.574 . S
C1232 H1227 0.949 . S
C1232 C1238 1.368 . S
C1233 C1217 1.349 . S
C1233 H1225 0.950 . S
C1233 C1231 1.327 . S
C1234 C1222 1.349 . S
C1234 H1228 0.950 . S
C1234 C1235 1.327 . S
C1235 H1229 0.950 . S
C1235 C1234 1.327 . S
C1235 C1239 1.429 . S
C1236 C1219 1.574 . S
C1236 H1230 0.949 . S
C1236 C1240 1.368 . S
C1237 C1218 1.429 . S
C1237 C1231 1.429 . S
C1237 C1238 1.523 . S
C1238 C1219 1.368 . S
C1238 C1232 1.368 . S
C1238 C1237 1.523 . S
C1239 C1223 1.429 . S
C1239 C1235 1.429 . S
C1239 C1240 1.523 . S
C1240 C1224 1.368 . S
C1240 C1236 1.368 . S
C1240 C1239 1.523 . S
H1241 C1216 0.950 . S
H1242 C1218 0.950 . S
H1243 C1219 0.949 . S
H1244 C1221 0.950 1_455 S
H1245 C1223 0.950 . S
C1246 C1247 1.349 . S
C1246 C1248 1.327 . S
C1246 H1271 0.950 . S
C1247 C1246 1.349 . S
C1247 C1263 1.349 . S
C1248 C1246 1.327 . S
C1248 C1267 1.429 . S
C1248 H1272 0.950 . S
C1249 C1266 1.574 . S
C1249 C1268 1.368 . S
C1249 H1273 0.949 . S
H1250 C1254 0.949 . S
C1251 C1252 1.349 . S
C1251 C1253 1.327 . S
C1251 H1274 0.950 . S
C1252 C1251 1.349 . S
C1252 C1264 1.349 . S
C1253 C1251 1.327 . S
C1253 C1269 1.429 . S
C1253 H1275 0.950 . S
C1254 H1250 0.949 . S
C1254 C1262 1.574 . S
C1254 C1270 1.368 . S
H1255 C1263 0.950 . S
H1256 C1261 0.950 . S
H1257 C1262 0.949 . S
H1258 C1264 0.950 . S
H1259 C1265 0.950 . S
H1260 C1266 0.949 . S
C1261 H1256 0.950 . S
C1261 C1263 1.327 . S
C1261 C1267 1.429 . S
C1262 C1254 1.574 . S
C1262 H1257 0.949 . S
C1262 C1268 1.368 . S
C1263 C1247 1.349 . S
C1263 H1255 0.950 . S
C1263 C1261 1.327 . S
C1264 C1252 1.349 . S
C1264 H1258 0.950 . S
C1264 C1265 1.327 . S
C1265 H1259 0.950 . S
C1265 C1264 1.327 . S
C1265 C1269 1.429 . S
C1266 C1249 1.574 . S
C1266 H1260 0.949 . S
C1266 C1270 1.368 . S
C1267 C1248 1.429 . S
C1267 C1261 1.429 . S
C1267 C1268 1.523 . S
C1268 C1249 1.368 . S
C1268 C1262 1.368 . S
C1268 C1267 1.523 . S
C1269 C1253 1.429 . S
C1269 C1265 1.429 . S
C1269 C1270 1.523 . S
C1270 C1254 1.368 . S
C1270 C1266 1.368 . S
C1270 C1269 1.523 . S
H1271 C1246 0.950 . S
H1272 C1248 0.950 . S
H1273 C1249 0.949 . S
H1274 C1251 0.950 . S
H1275 C1253 0.950 . S
C1276 C1277 1.349 . S
C1276 C1278 1.327 . S
C1276 H1301 0.950 . S
C1277 C1276 1.349 . S
C1277 C1293 1.349 . S
C1278 C1276 1.327 . S
C1278 C1297 1.429 . S
C1278 H1302 0.950 . S
C1279 C1296 1.574 . S
C1279 C1298 1.368 . S
C1279 H1303 0.949 . S
H1280 C1284 0.949 . S
C1281 C1282 1.349 . S
C1281 C1283 1.327 . S
C1281 H1304 0.950 . S
C1282 C1281 1.349 . S
C1282 C1294 1.349 . S
C1283 C1281 1.327 . S
C1283 C1299 1.429 . S
C1283 H1305 0.950 . S
C1284 H1280 0.949 . S
C1284 C1292 1.574 . S
C1284 C1300 1.368 . S
H1285 C1293 0.950 . S
H1286 C1291 0.950 . S
H1287 C1292 0.949 . S
H1288 C1294 0.950 . S
H1289 C1295 0.950 . S
H1290 C1296 0.949 . S
C1291 H1286 0.950 . S
C1291 C1293 1.327 . S
C1291 C1297 1.429 . S
C1292 C1284 1.574 . S
C1292 H1287 0.949 . S
C1292 C1298 1.368 . S
C1293 C1277 1.349 . S
C1293 H1285 0.950 . S
C1293 C1291 1.327 . S
C1294 C1282 1.349 . S
C1294 H1288 0.950 . S
C1294 C1295 1.327 . S
C1295 H1289 0.950 . S
C1295 C1294 1.327 . S
C1295 C1299 1.429 . S
C1296 C1279 1.574 . S
C1296 H1290 0.949 . S
C1296 C1300 1.368 . S
C1297 C1278 1.429 . S
C1297 C1291 1.429 . S
C1297 C1298 1.523 . S
C1298 C1279 1.368 . S
C1298 C1292 1.368 . S
C1298 C1297 1.523 . S
C1299 C1283 1.429 . S
C1299 C1295 1.429 . S
C1299 C1300 1.523 . S
C1300 C1284 1.368 . S
C1300 C1296 1.368 . S
C1300 C1299 1.523 . S
H1301 C1276 0.950 . S
H1302 C1278 0.950 . S
H1303 C1279 0.949 . S
H1304 C1281 0.950 . S
H1305 C1283 0.950 . S
C1306 C1307 1.349 . S
C1306 C1308 1.327 . S
C1306 H1331 0.950 . S
C1307 C1306 1.349 . S
C1307 C1323 1.349 . S
C1308 C1306 1.327 . S
C1308 C1327 1.429 . S
C1308 H1332 0.950 . S
C1309 C1326 1.574 . S
C1309 C1328 1.368 . S
C1309 H1333 0.949 . S
H1310 C1314 0.949 . S
C1311 C1312 1.349 . S
C1311 C1313 1.327 . S
C1311 H1334 0.950 . S
C1312 C1311 1.349 . S
C1312 C1324 1.349 . S
C1313 C1311 1.327 . S
C1313 C1329 1.429 . S
C1313 H1335 0.950 . S
C1314 H1310 0.949 . S
C1314 C1322 1.574 . S
C1314 C1330 1.368 . S
H1315 C1323 0.950 . S
H1316 C1321 0.950 . S
H1317 C1322 0.949 . S
H1318 C1324 0.950 . S
H1319 C1325 0.950 . S
H1320 C1326 0.949 . S
C1321 H1316 0.950 . S
C1321 C1323 1.327 . S
C1321 C1327 1.429 . S
C1322 C1314 1.574 . S
C1322 H1317 0.949 . S
C1322 C1328 1.368 . S
C1323 C1307 1.349 . S
C1323 H1315 0.950 . S
C1323 C1321 1.327 . S
C1324 C1312 1.349 . S
C1324 H1318 0.950 . S
C1324 C1325 1.327 . S
C1325 H1319 0.950 . S
C1325 C1324 1.327 . S
C1325 C1329 1.429 . S
C1326 C1309 1.574 . S
C1326 H1320 0.949 . S
C1326 C1330 1.368 . S
C1327 C1308 1.429 . S
C1327 C1321 1.429 . S
C1327 C1328 1.523 . S
C1328 C1309 1.368 . S
C1328 C1322 1.368 . S
C1328 C1327 1.523 . S
C1329 C1313 1.429 . S
C1329 C1325 1.429 . S
C1329 C1330 1.523 . S
C1330 C1314 1.368 . S
C1330 C1326 1.368 . S
C1330 C1329 1.523 . S
H1331 C1306 0.950 . S
H1332 C1308 0.950 . S
H1333 C1309 0.949 . S
H1334 C1311 0.950 . S
H1335 C1313 0.950 . S
C617 C1 2.309 . S
C622 C480 2.326 . S
C647 C80 2.227 . S
C652 C522 2.291 . S
C682 C552 0.975 . S
C677 C140 0.955 . S
C707 C211 1.004 . S
C712 C586 1.042 . S
C742 C543 1.875 . S
C737 C31 1.859 . S
C772 C497 1.872 . S
C767 C61 1.815 . S
C802 C590 1.358 . S
C797 C151 1.309 . S
C832 C556 1.419 . S
C827 C200 1.357 . S
C857 C20 2.193 . S
C862 C611 2.221 . S
C892 C518 1.115 . S
C887 C121 1.067 . S
C917 C181 1.089 . S
C922 C493 1.128 . S
C947 C91 2.119 . S
C952 C577 2.191 . S
C982 C509 2.329 . S
C977 C260 2.305 . S
C1007 C320 2.227 . S
C1012 C531 2.288 . S
C1037 C361 0.975 . S
C1042 C561 0.975 . S
C1067 C451 1.004 . S
C1072 C595 1.039 . S
C1097 C271 1.850 . S
C1102 C514 1.876 . S
C1132 C488 1.872 . S
C1127 C301 1.821 . S
C1162 C599 1.358 . S
C1157 C380 1.339 . S
C1192 C565 1.419 . S
C1187 C440 1.357 . S
C1217 C241 2.208 . S
C1222 C582 2.223 . S
C1252 C527 1.115 . S
C1247 C391 1.103 . S
C1282 C484 1.122 . S
C1277 C421 1.082 . S
C1307 C331 2.119 . S
C1312 C548 2.191 . S
