# Generated by pormake.
# Topology ssb, (4,4)-cn, num edge types: 1
# Building blocks:
#     Node 0, Type 0, BuildingBlock: NAHDIM_clean_linker_0, # of connection points: 4
#     Node 1, Type 0, BuildingBlock: NAHDIM_clean_linker_0, # of connection points: 4
#     Node 2, Type 0, BuildingBlock: NAHDIM_clean_linker_0, # of connection points: 4
#     Node 3, Type 0, BuildingBlock: NAHDIM_clean_linker_0, # of connection points: 4
#     Node 4, Type 0, BuildingBlock: NAHDIM_clean_linker_0, # of connection points: 4
#     Node 5, Type 0, BuildingBlock: NAHDIM_clean_linker_0, # of connection points: 4
#     Node 6, Type 0, BuildingBlock: NAHDIM_clean_linker_0, # of connection points: 4
#     Node 7, Type 0, BuildingBlock: NAHDIM_clean_linker_0, # of connection points: 4
#     Node 8, Type 1, BuildingBlock: KOZSID_clean_sbu_0, # of connection points: 4
#     Node 9, Type 1, BuildingBlock: KOZSID_clean_sbu_0, # of connection points: 4
#     Node 10, Type 1, BuildingBlock: KOZSID_clean_sbu_0, # of connection points: 4
#     Node 11, Type 1, BuildingBlock: KOZSID_clean_sbu_0, # of connection points: 4
#     Node 12, Type 1, BuildingBlock: KOZSID_clean_sbu_0, # of connection points: 4
#     Node 13, Type 1, BuildingBlock: KOZSID_clean_sbu_0, # of connection points: 4
#     Node 14, Type 1, BuildingBlock: KOZSID_clean_sbu_0, # of connection points: 4
#     Node 15, Type 1, BuildingBlock: KOZSID_clean_sbu_0, # of connection points: 4
#     Edge 16, Type (0, 1), BuildingBlock: OJICUG_clean_linker_0, # of connection points: 2
#     Edge 17, Type (0, 1), BuildingBlock: OJICUG_clean_linker_0, # of connection points: 2
#     Edge 18, Type (0, 1), BuildingBlock: OJICUG_clean_linker_0, # of connection points: 2
#     Edge 19, Type (0, 1), BuildingBlock: OJICUG_clean_linker_0, # of connection points: 2
#     Edge 20, Type (0, 1), BuildingBlock: OJICUG_clean_linker_0, # of connection points: 2
#     Edge 21, Type (0, 1), BuildingBlock: OJICUG_clean_linker_0, # of connection points: 2
#     Edge 22, Type (0, 1), BuildingBlock: OJICUG_clean_linker_0, # of connection points: 2
#     Edge 23, Type (0, 1), BuildingBlock: OJICUG_clean_linker_0, # of connection points: 2
#     Edge 24, Type (0, 1), BuildingBlock: OJICUG_clean_linker_0, # of connection points: 2
#     Edge 25, Type (0, 1), BuildingBlock: OJICUG_clean_linker_0, # of connection points: 2
#     Edge 26, Type (0, 1), BuildingBlock: OJICUG_clean_linker_0, # of connection points: 2
#     Edge 27, Type (0, 1), BuildingBlock: OJICUG_clean_linker_0, # of connection points: 2
#     Edge 28, Type (0, 1), BuildingBlock: OJICUG_clean_linker_0, # of connection points: 2
#     Edge 29, Type (0, 1), BuildingBlock: OJICUG_clean_linker_0, # of connection points: 2
#     Edge 30, Type (0, 1), BuildingBlock: OJICUG_clean_linker_0, # of connection points: 2
#     Edge 31, Type (0, 1), BuildingBlock: OJICUG_clean_linker_0, # of connection points: 2
#     Edge 32, Type (0, 1), BuildingBlock: OJICUG_clean_linker_0, # of connection points: 2
#     Edge 33, Type (0, 1), BuildingBlock: OJICUG_clean_linker_0, # of connection points: 2
#     Edge 34, Type (0, 1), BuildingBlock: OJICUG_clean_linker_0, # of connection points: 2
#     Edge 35, Type (0, 1), BuildingBlock: OJICUG_clean_linker_0, # of connection points: 2
#     Edge 36, Type (0, 1), BuildingBlock: OJICUG_clean_linker_0, # of connection points: 2
#     Edge 37, Type (0, 1), BuildingBlock: OJICUG_clean_linker_0, # of connection points: 2
#     Edge 38, Type (0, 1), BuildingBlock: OJICUG_clean_linker_0, # of connection points: 2
#     Edge 39, Type (0, 1), BuildingBlock: OJICUG_clean_linker_0, # of connection points: 2
#     Edge 40, Type (0, 1), BuildingBlock: OJICUG_clean_linker_0, # of connection points: 2
#     Edge 41, Type (0, 1), BuildingBlock: OJICUG_clean_linker_0, # of connection points: 2
#     Edge 42, Type (0, 1), BuildingBlock: OJICUG_clean_linker_0, # of connection points: 2
#     Edge 43, Type (0, 1), BuildingBlock: OJICUG_clean_linker_0, # of connection points: 2
#     Edge 44, Type (0, 1), BuildingBlock: OJICUG_clean_linker_0, # of connection points: 2
#     Edge 45, Type (0, 1), BuildingBlock: OJICUG_clean_linker_0, # of connection points: 2
#     Edge 46, Type (0, 1), BuildingBlock: OJICUG_clean_linker_0, # of connection points: 2
#     Edge 47, Type (0, 1), BuildingBlock: OJICUG_clean_linker_0, # of connection points: 2
# Relax obj value: 0.005
# Max RMSD: 0.054
# Mean RMSD: 0.033
data_MOF--net-ssb--node1-KOZSID_clean_sbu_0--node2-NAHDIM_clean_linker_0--edge1-OJICUG_clean_linker_0
_symmetry_space_group_name_H-M    P1
_symmetry_Int_Tables_number       1
_symmetry_cell_setting            triclinic
loop_
_symmetry_equiv_pos_as_xyz
'x, y, z'
_cell_length_a     59.215222
_cell_length_b     58.918381
_cell_length_c     43.210105
_cell_angle_alpha  92.430993
_cell_angle_beta   94.932113
_cell_angle_gamma 90.002781
loop_
_atom_site_label
_atom_site_type_symbol
_atom_site_fract_x
_atom_site_fract_y
_atom_site_fract_z
_atom_type_partial_charge
C0 C 0.32822 0.11053 0.35565 0.0
C1 C 0.31357 0.11862 0.38156 0.0
C2 C 0.29022 0.14774 0.35653 0.0
C3 C 0.30003 0.16743 0.37149 0.0
C4 C 0.29865 0.18833 0.35702 0.0
C5 C 0.28708 0.18958 0.32711 0.0
C6 C 0.27591 0.17009 0.31289 0.0
C7 C 0.27745 0.14942 0.32799 0.0
C8 C 0.31026 0.20891 0.37318 0.0
C9 C 0.26321 0.17091 0.28117 0.0
C10 C 0.41474 0.25376 0.2162 0.0
C11 C 0.40671 0.23005 0.20358 0.0
C12 C 0.3669 0.22924 0.21666 0.0
C13 C 0.34452 0.22803 0.20368 0.0
C14 C 0.32638 0.22802 0.22243 0.0
C15 C 0.33077 0.23045 0.25515 0.0
C16 C 0.35346 0.23144 0.26856 0.0
C17 C 0.37132 0.23025 0.24918 0.0
C18 C 0.30259 0.22536 0.207 0.0
C19 C 0.35894 0.23384 0.30333 0.0
C20 C 0.25167 0.3604 0.21566 0.0
C21 C 0.24367 0.33928 0.20278 0.0
C22 C 0.2427 0.32036 0.2213 0.0
C23 C 0.24965 0.3226 0.25345 0.0
C24 C 0.25725 0.34393 0.26664 0.0
C25 C 0.25799 0.3626 0.24756 0.0
C26 C 0.23397 0.29801 0.20655 0.0
C27 C 0.26461 0.34694 0.30085 0.0
C28 C 0.14197 0.22655 0.37718 0.0
C29 C 0.14191 0.25226 0.3844 0.0
C30 C 0.16164 0.26983 0.34465 0.0
C31 C 0.16335 0.26516 0.31303 0.0
C32 C 0.18358 0.26938 0.29957 0.0
C33 C 0.20228 0.27894 0.31827 0.0
C34 C 0.2001 0.28515 0.34983 0.0
C35 C 0.17973 0.28054 0.36273 0.0
C36 C 0.18515 0.26311 0.26561 0.0
C37 C 0.21947 0.29612 0.37004 0.0
C38 C 0.28912 0.2104 0.30932 0.0
C39 C 0.3078 0.21186 0.29185 0.0
C40 C 0.31164 0.2311 0.27523 0.0
C41 C 0.2966 0.24971 0.27632 0.0
C42 C 0.3005 0.26982 0.26113 0.0
C43 C 0.2848 0.28741 0.26054 0.0
C44 C 0.26466 0.2856 0.27528 0.0
C45 C 0.24797 0.3028 0.27333 0.0
C46 C 0.22818 0.30045 0.28838 0.0
C47 C 0.22443 0.28124 0.30513 0.0
C48 C 0.2409 0.26387 0.30739 0.0
C49 C 0.23764 0.24429 0.32409 0.0
C50 C 0.25362 0.22694 0.32532 0.0
C51 C 0.27324 0.22832 0.30941 0.0
C52 C 0.27701 0.24805 0.29278 0.0
C53 C 0.26096 0.26596 0.29208 0.0
C54 C 0.28475 0.38022 0.1679 0.0
C55 C 0.25889 0.37921 0.16798 0.0
O56 O 0.29308 0.12693 0.36874 0.0
O57 O 0.14242 0.26367 0.3571 0.0
O58 O 0.25297 0.37906 0.19834 0.0
O59 O 0.38343 0.22961 0.19678 0.0
H60 H 0.32342 0.13225 0.39523 0.0
H61 H 0.33324 0.12531 0.34262 0.0
H62 H 0.31878 0.09839 0.33892 0.0
H63 H 0.34391 0.10228 0.36567 0.0
H64 H 0.30891 0.16657 0.39435 0.0
H65 H 0.26956 0.13423 0.3169 0.0
H66 H 0.32475 0.2139 0.36021 0.0
H67 H 0.31672 0.20572 0.39751 0.0
H68 H 0.29833 0.22346 0.37332 0.0
H69 H 0.25421 0.15471 0.27414 0.0
H70 H 0.27527 0.17448 0.26367 0.0
H71 H 0.25067 0.18493 0.28095 0.0
H72 H 0.41168 0.2172 0.22105 0.0
H73 H 0.43352 0.25413 0.22034 0.0
H74 H 0.40771 0.25836 0.23855 0.0
H75 H 0.40935 0.26691 0.19945 0.0
H76 H 0.34131 0.22688 0.17858 0.0
H77 H 0.38856 0.23035 0.25966 0.0
H78 H 0.29441 0.24227 0.20573 0.0
H79 H 0.29215 0.21437 0.22046 0.0
H80 H 0.30254 0.21794 0.18292 0.0
H81 H 0.37691 0.23874 0.30962 0.0
H82 H 0.35582 0.21737 0.3138 0.0
H83 H 0.34785 0.24675 0.31373 0.0
H84 H 0.25341 0.36335 0.15471 0.0
H85 H 0.23757 0.33745 0.17852 0.0
H86 H 0.26381 0.37901 0.25743 0.0
H87 H 0.24753 0.28503 0.2088 0.0
H88 H 0.22828 0.29928 0.18151 0.0
H89 H 0.21956 0.29193 0.21883 0.0
H90 H 0.27143 0.36424 0.3072 0.0
H91 H 0.27782 0.33425 0.30753 0.0
H92 H 0.24995 0.34388 0.31453 0.0
H93 H 0.1574 0.25587 0.4003 0.0
H94 H 0.13948 0.21719 0.39842 0.0
H95 H 0.15856 0.22146 0.3689 0.0
H96 H 0.12855 0.22152 0.35862 0.0
H97 H 0.14906 0.25736 0.29918 0.0
H98 H 0.178 0.28526 0.3869 0.0
H99 H 0.19937 0.2511 0.26293 0.0
H100 H 0.18877 0.27858 0.25306 0.0
H101 H 0.16928 0.25519 0.25451 0.0
H102 H 0.21445 0.30172 0.39334 0.0
H103 H 0.22592 0.31102 0.35854 0.0
H104 H 0.23362 0.28383 0.37313 0.0
H105 H 0.31943 0.19765 0.29094 0.0
H106 H 0.31565 0.27206 0.2492 0.0
H107 H 0.28852 0.30234 0.2481 0.0
H108 H 0.21521 0.31345 0.28625 0.0
H109 H 0.22264 0.24209 0.33633 0.0
H110 H 0.25022 0.21223 0.3384 0.0
H111 H 0.29189 0.39501 0.18229 0.0
H112 H 0.28965 0.38142 0.14376 0.0
H113 H 0.29231 0.36452 0.17763 0.0
C114 C 0.66354 0.19196 0.08932 0.0
C115 C 0.64709 0.19722 0.11432 0.0
C116 C 0.66721 0.21894 0.15814 0.0
C117 C 0.66556 0.23862 0.17694 0.0
C118 C 0.67946 0.24203 0.20471 0.0
C119 C 0.69629 0.22579 0.21304 0.0
C120 C 0.6981 0.20578 0.19405 0.0
C121 C 0.68324 0.20236 0.16713 0.0
C122 C 0.67622 0.26315 0.22486 0.0
C123 C 0.71598 0.18814 0.20179 0.0
C124 C 0.73534 0.1171 0.40859 0.0
C125 C 0.74118 0.13577 0.38844 0.0
C126 C 0.72459 0.16755 0.36043 0.0
C127 C 0.74197 0.16864 0.34028 0.0
C128 C 0.74209 0.18546 0.31837 0.0
C129 C 0.72501 0.20229 0.31734 0.0
C130 C 0.70761 0.2015 0.3378 0.0
C131 C 0.7075 0.18393 0.35884 0.0
C132 C 0.76042 0.1849 0.29604 0.0
C133 C 0.68915 0.21914 0.3374 0.0
C134 C 0.84018 0.29932 0.38037 0.0
C135 C 0.84351 0.28019 0.36087 0.0
C136 C 0.8291 0.27578 0.33373 0.0
C137 C 0.81087 0.29069 0.32622 0.0
C138 C 0.80786 0.31028 0.34553 0.0
C139 C 0.8228 0.3145 0.37217 0.0
C140 C 0.83338 0.25522 0.31304 0.0
C141 C 0.78874 0.32665 0.33816 0.0
C142 C 0.76848 0.32732 0.07995 0.0
C143 C 0.7718 0.34078 0.1111 0.0
C144 C 0.79093 0.32533 0.15773 0.0
C145 C 0.80463 0.3069 0.16597 0.0
C146 C 0.8036 0.29709 0.19485 0.0
C147 C 0.78879 0.30634 0.21606 0.0
C148 C 0.77628 0.32616 0.20881 0.0
C149 C 0.77747 0.33547 0.17965 0.0
C150 C 0.8174 0.27614 0.20203 0.0
C151 C 0.76086 0.33684 0.23131 0.0
C152 C 0.7124 0.23004 0.24104 0.0
C153 C 0.71017 0.21709 0.26699 0.0
C154 C 0.72508 0.21994 0.29377 0.0
C155 C 0.74178 0.23723 0.29564 0.0
C156 C 0.7559 0.24179 0.32307 0.0
C157 C 0.77307 0.25803 0.32416 0.0
C158 C 0.77703 0.27006 0.29769 0.0
C159 C 0.79505 0.28593 0.29808 0.0
C160 C 0.79844 0.29755 0.27127 0.0
C161 C 0.78431 0.29377 0.24394 0.0
C162 C 0.76626 0.27797 0.24309 0.0
C163 C 0.75193 0.27357 0.2158 0.0
C164 C 0.7343 0.25794 0.21507 0.0
C165 C 0.73026 0.24606 0.2416 0.0
C166 C 0.74473 0.24995 0.2692 0.0
C167 C 0.76263 0.26608 0.27005 0.0
C168 C 0.84391 0.29207 0.45542 0.0
C169 C 0.85975 0.28834 0.42935 0.0
O170 O 0.65345 0.21699 0.13131 0.0
O171 O 0.79066 0.33256 0.12829 0.0
O172 O 0.85382 0.30386 0.40679 0.0
O173 O 0.72376 0.15092 0.38131 0.0
H174 H 0.64748 0.18257 0.12984 0.0
H175 H 0.68023 0.18657 0.1001 0.0
H176 H 0.66644 0.20714 0.0758 0.0
H177 H 0.65677 0.1779 0.07321 0.0
H178 H 0.65307 0.25127 0.16992 0.0
H179 H 0.68466 0.18696 0.15296 0.0
H180 H 0.67759 0.25916 0.24984 0.0
H181 H 0.65951 0.27118 0.21897 0.0
H182 H 0.68964 0.2757 0.22139 0.0
H183 H 0.71748 0.1755 0.18227 0.0
H184 H 0.71156 0.17895 0.22235 0.0
H185 H 0.73276 0.19637 0.20777 0.0
H186 H 0.75755 0.14465 0.39579 0.0
H187 H 0.73814 0.08788 0.38003 0.0
H188 H 0.71907 0.12219 0.4187 0.0
H189 H 0.74627 0.12022 0.431 0.0
H190 H 0.75541 0.1562 0.34107 0.0
H191 H 0.69413 0.18303 0.37438 0.0
H192 H 0.77297 0.19856 0.30297 0.0
H193 H 0.75315 0.18788 0.272 0.0
H194 H 0.76957 0.16844 0.29588 0.0
H195 H 0.67883 0.21808 0.35758 0.0
H196 H 0.67776 0.21666 0.31574 0.0
H197 H 0.6966 0.23645 0.33749 0.0
H198 H 0.85711 0.27058 0.41992 0.0
H199 H 0.85756 0.26893 0.36659 0.0
H200 H 0.82065 0.32942 0.38717 0.0
H201 H 0.81936 0.24279 0.31372 0.0
H202 H 0.8496 0.2467 0.32032 0.0
H203 H 0.83374 0.26019 0.28858 0.0
H204 H 0.78759 0.34004 0.35685 0.0
H205 H 0.77236 0.31733 0.33467 0.0
H206 H 0.79135 0.33498 0.31617 0.0
H207 H 0.75611 0.33787 0.1229 0.0
H208 H 0.75371 0.33397 0.0655 0.0
H209 H 0.76518 0.30918 0.08408 0.0
H210 H 0.78381 0.32826 0.06694 0.0
H211 H 0.8153 0.2995 0.14907 0.0
H212 H 0.76759 0.3504 0.17381 0.0
H213 H 0.80585 0.26154 0.20417 0.0
H214 H 0.82763 0.27879 0.22466 0.0
H215 H 0.82894 0.2717 0.18376 0.0
H216 H 0.75443 0.35364 0.22386 0.0
H217 H 0.76995 0.33896 0.25483 0.0
H218 H 0.74614 0.32544 0.23312 0.0
H219 H 0.69722 0.20398 0.26584 0.0
H220 H 0.75377 0.2328 0.34399 0.0
H221 H 0.78341 0.26081 0.3459 0.0
H222 H 0.81231 0.30963 0.27163 0.0
H223 H 0.75418 0.28209 0.19457 0.0
H224 H 0.72401 0.25516 0.1933 0.0
H225 H 0.84803 0.30829 0.46878 0.0
H226 H 0.84502 0.27772 0.47132 0.0
H227 H 0.82604 0.29283 0.44531 0.0
C228 C 0.75124 0.89867 0.3643 0.0
C229 C 0.72526 0.90022 0.36174 0.0
C230 C 0.71543 0.85988 0.34964 0.0
C231 C 0.70841 0.84 0.36255 0.0
C232 C 0.70784 0.81911 0.34563 0.0
C233 C 0.71446 0.81815 0.31494 0.0
C234 C 0.72143 0.83822 0.30157 0.0
C235 C 0.72176 0.85892 0.31898 0.0
C236 C 0.7001 0.79807 0.36048 0.0
C237 C 0.72841 0.83779 0.26877 0.0
C238 C 0.59623 0.7214 0.14992 0.0
C239 C 0.60722 0.74489 0.15536 0.0
C240 C 0.62824 0.75696 0.20427 0.0
C241 C 0.64531 0.76948 0.19203 0.0
C242 C 0.66563 0.7747 0.21 0.0
C243 C 0.66878 0.76733 0.2408 0.0
C244 C 0.65117 0.75566 0.25364 0.0
C245 C 0.63099 0.75078 0.23518 0.0
C246 C 0.68386 0.7878 0.19602 0.0
C247 C 0.6539 0.74795 0.2866 0.0
C248 C 0.76718 0.65441 0.1877 0.0
C249 C 0.77054 0.67664 0.17824 0.0
C250 C 0.76972 0.6954 0.19928 0.0
C251 C 0.76525 0.69196 0.23039 0.0
C252 C 0.76183 0.66966 0.24001 0.0
C253 C 0.76297 0.65118 0.21855 0.0
C254 C 0.77384 0.71891 0.1883 0.0
C255 C 0.75702 0.66537 0.27299 0.0
C256 C 0.87736 0.78932 0.40226 0.0
C257 C 0.87141 0.76424 0.39537 0.0
C258 C 0.84915 0.75306 0.34644 0.0
C259 C 0.84564 0.75966 0.31576 0.0
C260 C 0.82577 0.75358 0.29731 0.0
C261 C 0.80918 0.74035 0.30992 0.0
C262 C 0.81315 0.73255 0.34041 0.0
C263 C 0.83322 0.73889 0.35838 0.0
C264 C 0.82223 0.76178 0.26464 0.0
C265 C 0.79599 0.71791 0.35414 0.0
C266 C 0.71317 0.79636 0.29631 0.0
C267 C 0.69296 0.79129 0.27829 0.0
C268 C 0.69066 0.77147 0.2594 0.0
C269 C 0.70899 0.75617 0.25814 0.0
C270 C 0.7073 0.7362 0.23899 0.0
C271 C 0.72563 0.72152 0.23741 0.0
C272 C 0.74629 0.72615 0.25508 0.0
C273 C 0.76523 0.71166 0.25309 0.0
C274 C 0.78529 0.71651 0.27166 0.0
C275 C 0.78717 0.73574 0.29177 0.0
C276 C 0.76867 0.75075 0.29349 0.0
C277 C 0.77027 0.77062 0.31287 0.0
C278 C 0.75213 0.78557 0.31387 0.0
C279 C 0.73163 0.78114 0.29576 0.0
C280 C 0.72955 0.76104 0.27643 0.0
C281 C 0.74814 0.74591 0.27512 0.0
C282 C 0.74513 0.64206 0.12052 0.0
C283 C 0.76832 0.63527 0.13597 0.0
O284 O 0.71586 0.87943 0.36765 0.0
O285 O 0.86825 0.76051 0.3634 0.0
O286 O 0.76779 0.63572 0.16806 0.0
O287 O 0.60899 0.75045 0.18694 0.0
H288 H 0.71896 0.90533 0.33806 0.0
H289 H 0.75705 0.88605 0.34698 0.0
H290 H 0.75771 0.89351 0.38787 0.0
H291 H 0.75881 0.91536 0.35987 0.0
H292 H 0.70345 0.8409 0.38614 0.0
H293 H 0.72693 0.87417 0.3084 0.0
H294 H 0.68491 0.79085 0.34666 0.0
H295 H 0.69587 0.80158 0.38477 0.0
H296 H 0.7136 0.78499 0.36047 0.0
H297 H 0.73411 0.85471 0.26201 0.0
H298 H 0.71392 0.83202 0.2523 0.0
H299 H 0.74239 0.82545 0.26638 0.0
H300 H 0.62429 0.74351 0.14641 0.0
H301 H 0.59476 0.71638 0.12474 0.0
H302 H 0.57908 0.72132 0.15853 0.0
H303 H 0.60684 0.70861 0.1625 0.0
H304 H 0.6428 0.77518 0.16848 0.0
H305 H 0.6175 0.74147 0.2445 0.0
H306 H 0.68851 0.80322 0.21088 0.0
H307 H 0.67846 0.79303 0.17212 0.0
H308 H 0.6993 0.77718 0.1952 0.0
H309 H 0.63854 0.73912 0.29314 0.0
H310 H 0.65753 0.76283 0.30291 0.0
H311 H 0.66856 0.73625 0.28942 0.0
H312 H 0.78155 0.64723 0.12966 0.0
H313 H 0.77394 0.6796 0.15456 0.0
H314 H 0.76042 0.63403 0.22575 0.0
H315 H 0.75833 0.72932 0.18991 0.0
H316 H 0.77846 0.71864 0.1639 0.0
H317 H 0.78767 0.72742 0.20351 0.0
H318 H 0.75293 0.64726 0.27619 0.0
H319 H 0.74263 0.67606 0.27967 0.0
H320 H 0.77206 0.67027 0.28901 0.0
H321 H 0.85565 0.76092 0.40671 0.0
H322 H 0.87952 0.79316 0.42774 0.0
H323 H 0.86347 0.80012 0.39214 0.0
H324 H 0.89327 0.79374 0.39195 0.0
H325 H 0.8583 0.77016 0.30659 0.0
H326 H 0.83636 0.73264 0.38154 0.0
H327 H 0.80707 0.77288 0.26253 0.0
H328 H 0.81901 0.74707 0.24792 0.0
H329 H 0.83706 0.77144 0.258 0.0
H330 H 0.80206 0.71231 0.37764 0.0
H331 H 0.792 0.70267 0.33862 0.0
H332 H 0.78 0.72755 0.35586 0.0
H333 H 0.67885 0.80301 0.27881 0.0
H334 H 0.69184 0.73178 0.22481 0.0
H335 H 0.72343 0.70648 0.22214 0.0
H336 H 0.79981 0.70542 0.26997 0.0
H337 H 0.78563 0.77494 0.32734 0.0
H338 H 0.75438 0.80066 0.32903 0.0
H339 H 0.73175 0.63021 0.12659 0.0
H340 H 0.74546 0.64172 0.09483 0.0
H341 H 0.74058 0.65952 0.1283 0.0
C342 C 0.32916 0.82041 0.07692 0.0
C343 C 0.34783 0.81616 0.10296 0.0
C344 C 0.33145 0.79374 0.14235 0.0
C345 C 0.33451 0.77385 0.15863 0.0
C346 C 0.32219 0.76979 0.18414 0.0
C347 C 0.30553 0.78558 0.19255 0.0
C348 C 0.30242 0.80587 0.17625 0.0
C349 C 0.31572 0.80993 0.15171 0.0
C350 C 0.32685 0.74846 0.20177 0.0
C351 C 0.28487 0.8232 0.18444 0.0
C352 C 0.33744 0.8758 0.35144 0.0
C353 C 0.31218 0.8773 0.35651 0.0
C354 C 0.29671 0.83965 0.34433 0.0
C355 C 0.27949 0.8438 0.32095 0.0
C356 C 0.27319 0.82713 0.29764 0.0
C357 C 0.28436 0.80588 0.29783 0.0
C358 C 0.30067 0.80115 0.3226 0.0
C359 C 0.3065 0.81811 0.34579 0.0
C360 C 0.25525 0.83256 0.27211 0.0
C361 C 0.31256 0.77854 0.32382 0.0
C362 C 0.15655 0.72216 0.31594 0.0
C363 C 0.15782 0.74076 0.29678 0.0
C364 C 0.17484 0.74208 0.27633 0.0
C365 C 0.19138 0.72476 0.27556 0.0
C366 C 0.19032 0.70612 0.29495 0.0
C367 C 0.17276 0.70499 0.31471 0.0
C368 C 0.17497 0.76196 0.25536 0.0
C369 C 0.20771 0.68742 0.29476 0.0
C370 C 0.19912 0.66825 0.03154 0.0
C371 C 0.20829 0.66144 0.06406 0.0
C372 C 0.20069 0.6813 0.11294 0.0
C373 C 0.18764 0.69935 0.12322 0.0
C374 C 0.19369 0.71121 0.15154 0.0
C375 C 0.21282 0.70415 0.17066 0.0
C376 C 0.22563 0.68524 0.16087 0.0
C377 C 0.21963 0.67422 0.13182 0.0
C378 C 0.17961 0.73133 0.16086 0.0
C379 C 0.24554 0.67657 0.18112 0.0
C380 C 0.29092 0.78064 0.21772 0.0
C381 C 0.29469 0.79293 0.24606 0.0
C382 C 0.2809 0.78993 0.27025 0.0
C383 C 0.26343 0.77342 0.26673 0.0
C384 C 0.24962 0.76949 0.29083 0.0
C385 C 0.23208 0.75361 0.28676 0.0
C386 C 0.22758 0.74121 0.25832 0.0
C387 C 0.2091 0.72591 0.2534 0.0
C388 C 0.20551 0.71334 0.22525 0.0
C389 C 0.21914 0.71649 0.20093 0.0
C390 C 0.23713 0.73245 0.20493 0.0
C391 C 0.25037 0.73708 0.18045 0.0
C392 C 0.26791 0.75288 0.18454 0.0
C393 C 0.27299 0.76466 0.21331 0.0
C394 C 0.25948 0.76073 0.2381 0.0
C395 C 0.24156 0.74459 0.23391 0.0
C396 C 0.13597 0.75461 0.36606 0.0
C397 C 0.12445 0.73645 0.34355 0.0
O398 O 0.34363 0.79628 0.11747 0.0
O399 O 0.19411 0.67075 0.0851 0.0
O400 O 0.14009 0.72009 0.3358 0.0
O401 O 0.30455 0.85639 0.36507 0.0
H402 H 0.34829 0.83088 0.12007 0.0
H403 H 0.31274 0.82387 0.08666 0.0
H404 H 0.32677 0.80543 0.0605 0.0
H405 H 0.33356 0.83541 0.06387 0.0
H406 H 0.34683 0.76154 0.15141 0.0
H407 H 0.31333 0.82554 0.13963 0.0
H408 H 0.3269 0.7521 0.2272 0.0
H409 H 0.34336 0.74075 0.19685 0.0
H410 H 0.31331 0.73579 0.19483 0.0
H411 H 0.28193 0.836 0.16639 0.0
H412 H 0.29072 0.83224 0.20674 0.0
H413 H 0.26849 0.81476 0.18756 0.0
H414 H 0.30326 0.88206 0.33399 0.0
H415 H 0.34744 0.87 0.37256 0.0
H416 H 0.33997 0.86347 0.33188 0.0
H417 H 0.34394 0.89263 0.3455 0.0
H418 H 0.27126 0.86021 0.32061 0.0
H419 H 0.31951 0.81496 0.36431 0.0
H420 H 0.26302 0.83305 0.24967 0.0
H421 H 0.24697 0.84917 0.27656 0.0
H422 H 0.24207 0.81905 0.26962 0.0
H423 H 0.32333 0.77676 0.34592 0.0
H424 H 0.32341 0.77667 0.30415 0.0
H425 H 0.2999 0.76453 0.32114 0.0
H426 H 0.11704 0.74451 0.32222 0.0
H427 H 0.14558 0.75433 0.29731 0.0
H428 H 0.1717 0.69071 0.32954 0.0
H429 H 0.18948 0.77331 0.2632 0.0
H430 H 0.15916 0.77209 0.25552 0.0
H431 H 0.17709 0.75598 0.23107 0.0
H432 H 0.20595 0.67539 0.31354 0.0
H433 H 0.22507 0.69479 0.29751 0.0
H434 H 0.20577 0.67778 0.27204 0.0
H435 H 0.22567 0.66878 0.06861 0.0
H436 H 0.21078 0.66286 0.01384 0.0
H437 H 0.19746 0.68702 0.03114 0.0
H438 H 0.18216 0.66049 0.02511 0.0
H439 H 0.1729 0.70447 0.10856 0.0
H440 H 0.22942 0.65982 0.12421 0.0
H441 H 0.19069 0.74591 0.1693 0.0
H442 H 0.16952 0.7267 0.18017 0.0
H443 H 0.16772 0.73682 0.14133 0.0
H444 H 0.25146 0.65978 0.17243 0.0
H445 H 0.24098 0.67508 0.20535 0.0
H446 H 0.25982 0.68882 0.18169 0.0
H447 H 0.30816 0.80553 0.249 0.0
H448 H 0.25223 0.77869 0.31309 0.0
H449 H 0.22197 0.75124 0.3061 0.0
H450 H 0.19119 0.70174 0.22165 0.0
H451 H 0.24725 0.72862 0.15776 0.0
H452 H 0.27738 0.7558 0.16474 0.0
H453 H 0.14337 0.74679 0.38759 0.0
H454 H 0.12354 0.76777 0.3724 0.0
H455 H 0.14977 0.76316 0.35514 0.0
C456 C 0.1406 0.72245 0.59978 0.0
C457 C 0.13002 0.70616 0.62145 0.0
C458 C 0.14879 0.72068 0.67136 0.0
C459 C 0.14599 0.73525 0.69708 0.0
C460 C 0.16431 0.74097 0.71875 0.0
C461 C 0.18588 0.73164 0.71461 0.0
C462 C 0.18889 0.7169 0.68861 0.0
C463 C 0.1703 0.71151 0.66727 0.0
C464 C 0.16062 0.75686 0.74613 0.0
C465 C 0.21172 0.70664 0.68355 0.0
C466 C 0.21589 0.61689 0.89168 0.0
C467 C 0.21605 0.6318 0.86466 0.0
C468 C 0.22442 0.67065 0.85202 0.0
C469 C 0.23069 0.66553 0.82188 0.0
C470 C 0.23261 0.68267 0.80073 0.0
C471 C 0.22732 0.70537 0.80939 0.0
C472 C 0.22127 0.71067 0.83987 0.0
C473 C 0.22045 0.69326 0.86103 0.0
C474 C 0.23952 0.67622 0.7687 0.0
C475 C 0.21482 0.7345 0.84973 0.0
C476 C 0.35596 0.7916 0.83321 0.0
C477 C 0.35434 0.77831 0.80526 0.0
C478 C 0.33406 0.7771 0.78601 0.0
C479 C 0.31514 0.78983 0.79442 0.0
C480 C 0.31678 0.80361 0.82212 0.0
C481 C 0.3372 0.80422 0.84125 0.0
C482 C 0.33285 0.76213 0.75667 0.0
C483 C 0.29694 0.81754 0.83153 0.0
C484 C 0.30516 0.85561 0.5937 0.0
C485 C 0.28395 0.86694 0.6056 0.0
C486 C 0.27868 0.84974 0.65581 0.0
C487 C 0.28776 0.82784 0.65294 0.0
C488 C 0.28471 0.81171 0.67524 0.0
C489 C 0.27246 0.81765 0.70109 0.0
C490 C 0.26254 0.83941 0.70342 0.0
C491 C 0.266 0.85525 0.68089 0.0
C492 C 0.29598 0.78884 0.6722 0.0
C493 C 0.2492 0.84628 0.7305 0.0
C494 C 0.20497 0.73595 0.73855 0.0
C495 C 0.20707 0.7215 0.76338 0.0
C496 C 0.22573 0.72282 0.78543 0.0
C497 C 0.24274 0.73938 0.78299 0.0
C498 C 0.26212 0.74083 0.80415 0.0
C499 C 0.27875 0.75714 0.80142 0.0
C500 C 0.27674 0.77247 0.77724 0.0
C501 C 0.29376 0.78878 0.77392 0.0
C502 C 0.29143 0.80352 0.7494 0.0
C503 C 0.27264 0.80227 0.72749 0.0
C504 C 0.2554 0.78608 0.73035 0.0
C505 C 0.23637 0.78416 0.70861 0.0
C506 C 0.2197 0.76787 0.71136 0.0
C507 C 0.22149 0.75288 0.73594 0.0
C508 C 0.24045 0.7546 0.75828 0.0
C509 C 0.25745 0.77118 0.75543 0.0
C510 C 0.39136 0.75538 0.8582 0.0
C511 C 0.39483 0.7803 0.85044 0.0
O512 O 0.13035 0.71608 0.65115 0.0
O513 O 0.28439 0.86682 0.63779 0.0
O514 O 0.37506 0.79255 0.85315 0.0
O515 O 0.2218 0.65426 0.8727 0.0
H516 H 0.13956 0.6899 0.62208 0.0
H517 H 0.14076 0.71459 0.57597 0.0
H518 H 0.15839 0.72661 0.60822 0.0
H519 H 0.13084 0.73855 0.59852 0.0
H520 H 0.12934 0.74224 0.70001 0.0
H521 H 0.17275 0.70005 0.64765 0.0
H522 H 0.16366 0.74765 0.76798 0.0
H523 H 0.14318 0.76391 0.74488 0.0
H524 H 0.17297 0.77113 0.74728 0.0
H525 H 0.21125 0.69546 0.66214 0.0
H526 H 0.21767 0.69654 0.70375 0.0
H527 H 0.22434 0.72036 0.6818 0.0
H528 H 0.20089 0.63026 0.84745 0.0
H529 H 0.24196 0.59361 0.88449 0.0
H530 H 0.19767 0.61155 0.89212 0.0
H531 H 0.21593 0.62849 0.91311 0.0
H532 H 0.23408 0.64819 0.81455 0.0
H533 H 0.21572 0.6971 0.88435 0.0
H534 H 0.25068 0.6894 0.76037 0.0
H535 H 0.2241 0.67467 0.75223 0.0
H536 H 0.2485 0.65966 0.76824 0.0
H537 H 0.20848 0.73538 0.87321 0.0
H538 H 0.20149 0.74109 0.83278 0.0
H539 H 0.22978 0.74587 0.85003 0.0
H540 H 0.39992 0.78108 0.82631 0.0
H541 H 0.36869 0.76865 0.79825 0.0
H542 H 0.33858 0.81452 0.86272 0.0
H543 H 0.31848 0.74999 0.75644 0.0
H544 H 0.34868 0.75234 0.75425 0.0
H545 H 0.3297 0.77277 0.73619 0.0
H546 H 0.30103 0.82766 0.85359 0.0
H547 H 0.28239 0.80616 0.83443 0.0
H548 H 0.29149 0.82928 0.81289 0.0
H549 H 0.26852 0.8578 0.59505 0.0
H550 H 0.30879 0.86186 0.57072 0.0
H551 H 0.3025 0.83707 0.58986 0.0
H552 H 0.32026 0.85899 0.61036 0.0
H553 H 0.29846 0.82353 0.63471 0.0
H554 H 0.25934 0.87231 0.68323 0.0
H555 H 0.28461 0.77506 0.67837 0.0
H556 H 0.31149 0.78867 0.68853 0.0
H557 H 0.30098 0.78517 0.6483 0.0
H558 H 0.24152 0.86338 0.72805 0.0
H559 H 0.2605 0.84636 0.75238 0.0
H560 H 0.2355 0.83371 0.73257 0.0
H561 H 0.19429 0.70849 0.76498 0.0
H562 H 0.26464 0.72935 0.82304 0.0
H563 H 0.29328 0.75751 0.81846 0.0
H564 H 0.30478 0.81576 0.74684 0.0
H565 H 0.23421 0.7952 0.68917 0.0
H566 H 0.20542 0.76711 0.69394 0.0
H567 H 0.40743 0.74578 0.8568 0.0
H568 H 0.3858 0.75425 0.88201 0.0
H569 H 0.37832 0.74698 0.84165 0.0
C570 C 0.26987 0.40617 0.85903 0.0
C571 C 0.24446 0.40877 0.86281 0.0
C572 C 0.23049 0.36921 0.855 0.0
C573 C 0.22259 0.35074 0.87026 0.0
C574 C 0.21752 0.32988 0.85432 0.0
C575 C 0.22064 0.32742 0.82228 0.0
C576 C 0.22833 0.34611 0.80651 0.0
C577 C 0.23305 0.36689 0.82296 0.0
C578 C 0.20903 0.3104 0.87177 0.0
C579 C 0.23175 0.34404 0.7723 0.0
C580 C 0.07709 0.31417 0.73377 0.0
C581 C 0.0903 0.30362 0.70777 0.0
C582 C 0.12158 0.28085 0.72879 0.0
C583 C 0.13958 0.28902 0.71331 0.0
C584 C 0.16196 0.28815 0.72685 0.0
C585 C 0.16635 0.27896 0.7565 0.0
C586 C 0.14832 0.26964 0.7714 0.0
C587 C 0.12612 0.27045 0.75709 0.0
C588 C 0.18085 0.29764 0.70989 0.0
C589 C 0.15239 0.25962 0.80294 0.0
C590 C 0.23938 0.14602 0.72629 0.0
C591 C 0.24755 0.16374 0.70955 0.0
C592 C 0.25305 0.18496 0.72431 0.0
C593 C 0.25021 0.18847 0.75635 0.0
C594 C 0.24263 0.1704 0.7734 0.0
C595 C 0.23756 0.1493 0.75815 0.0
C596 C 0.26178 0.20368 0.70571 0.0
C597 C 0.23964 0.17345 0.80766 0.0
C598 C 0.36851 0.28215 0.90409 0.0
C599 C 0.37049 0.25622 0.90364 0.0
C600 C 0.34641 0.24371 0.85719 0.0
C601 C 0.34395 0.24858 0.82572 0.0
C602 C 0.32299 0.24574 0.80813 0.0
C603 C 0.30419 0.23742 0.82235 0.0
C604 C 0.30681 0.23159 0.85388 0.0
C605 C 0.3279 0.23474 0.87097 0.0
C606 C 0.32081 0.25196 0.7745 0.0
C607 C 0.28725 0.22208 0.86953 0.0
C608 C 0.21614 0.3052 0.80535 0.0
C609 C 0.1948 0.30159 0.78949 0.0
C610 C 0.18936 0.28109 0.77305 0.0
C611 C 0.20564 0.26352 0.77247 0.0
C612 C 0.20079 0.24266 0.75627 0.0
C613 C 0.2169 0.22543 0.75612 0.0
C614 C 0.23854 0.22848 0.77194 0.0
C615 C 0.25501 0.21105 0.77208 0.0
C616 C 0.27628 0.21461 0.78824 0.0
C617 C 0.28166 0.23517 0.80451 0.0
C618 C 0.26549 0.25285 0.80452 0.0
C619 C 0.2704 0.27379 0.82051 0.0
C620 C 0.25432 0.29099 0.82068 0.0
C621 C 0.23266 0.28789 0.805 0.0
C622 C 0.22737 0.26696 0.78856 0.0
C623 C 0.24384 0.24944 0.78825 0.0
C624 C 0.20232 0.10738 0.68313 0.0
C625 C 0.22388 0.12155 0.68241 0.0
O626 O 0.23557 0.38867 0.87227 0.0
O627 O 0.36693 0.24746 0.87328 0.0
O628 O 0.23329 0.1255 0.71265 0.0
O629 O 0.0997 0.28321 0.71715 0.0
H630 H 0.23545 0.41345 0.84033 0.0
H631 H 0.27281 0.393 0.84073 0.0
H632 H 0.27912 0.40114 0.88115 0.0
H633 H 0.27702 0.42246 0.85212 0.0
H634 H 0.22054 0.35271 0.89491 0.0
H635 H 0.23886 0.38106 0.81064 0.0
H636 H 0.19284 0.30377 0.85989 0.0
H637 H 0.20628 0.31543 0.89623 0.0
H638 H 0.2215 0.29632 0.87181 0.0
H639 H 0.23868 0.35987 0.76362 0.0
H640 H 0.21532 0.34 0.75885 0.0
H641 H 0.24353 0.32985 0.76781 0.0
H642 H 0.10376 0.31626 0.70428 0.0
H643 H 0.06772 0.32946 0.72568 0.0
H644 H 0.08911 0.31943 0.75397 0.0
H645 H 0.06501 0.30177 0.74186 0.0
H646 H 0.13609 0.29632 0.69082 0.0
H647 H 0.1121 0.26388 0.7686 0.0
H648 H 0.19499 0.28529 0.70943 0.0
H649 H 0.18757 0.31337 0.72246 0.0
H650 H 0.17507 0.30177 0.68564 0.0
H651 H 0.13663 0.2527 0.81119 0.0
H652 H 0.15947 0.27286 0.82014 0.0
H653 H 0.16507 0.24578 0.80203 0.0
H654 H 0.21864 0.13781 0.67168 0.0
H655 H 0.24983 0.16098 0.68508 0.0
H656 H 0.23157 0.13537 0.77091 0.0
H657 H 0.24959 0.21799 0.70507 0.0
H658 H 0.26429 0.19787 0.68145 0.0
H659 H 0.27815 0.21027 0.71709 0.0
H660 H 0.23244 0.15807 0.8172 0.0
H661 H 0.22828 0.18807 0.81179 0.0
H662 H 0.25629 0.17733 0.8206 0.0
H663 H 0.35755 0.24974 0.91819 0.0
H664 H 0.37172 0.28938 0.92824 0.0
H665 H 0.35115 0.28705 0.89505 0.0
H666 H 0.38084 0.28957 0.88932 0.0
H667 H 0.35842 0.25515 0.81514 0.0
H668 H 0.32984 0.22978 0.89485 0.0
H669 H 0.30794 0.26553 0.77107 0.0
H670 H 0.31481 0.23699 0.75955 0.0
H671 H 0.33709 0.25799 0.76674 0.0
H672 H 0.29208 0.21811 0.89411 0.0
H673 H 0.28085 0.20633 0.85669 0.0
H674 H 0.27312 0.23448 0.86889 0.0
H675 H 0.18223 0.31499 0.78989 0.0
H676 H 0.18444 0.2394 0.74364 0.0
H677 H 0.21216 0.20968 0.74341 0.0
H678 H 0.28872 0.20108 0.78851 0.0
H679 H 0.28675 0.27713 0.8331 0.0
H680 H 0.25908 0.30674 0.83338 0.0
H681 H 0.19411 0.10425 0.65922 0.0
H682 H 0.19013 0.11663 0.69719 0.0
H683 H 0.20625 0.09079 0.69366 0.0
C684 C 0.85439 0.34751 0.6314 0.0
C685 C 0.8641 0.32569 0.64511 0.0
C686 C 0.83524 0.3029 0.66486 0.0
C687 C 0.84555 0.29268 0.69106 0.0
C688 C 0.83277 0.28695 0.71551 0.0
C689 C 0.80933 0.29201 0.71374 0.0
C690 C 0.79894 0.30233 0.6871 0.0
C691 C 0.81202 0.3072 0.66264 0.0
C692 C 0.84432 0.27567 0.74328 0.0
C693 C 0.77415 0.30866 0.68463 0.0
C694 C 0.79659 0.41387 0.90045 0.0
C695 C 0.79588 0.39812 0.87233 0.0
C696 C 0.79248 0.35763 0.85746 0.0
C697 C 0.78115 0.36058 0.82794 0.0
C698 C 0.77703 0.34214 0.80661 0.0
C699 C 0.7853 0.32033 0.81422 0.0
C700 C 0.79688 0.31727 0.84382 0.0
C701 C 0.7998 0.33588 0.86532 0.0
C702 C 0.76423 0.3462 0.77557 0.0
C703 C 0.80675 0.29456 0.85247 0.0
C704 C 0.67403 0.22341 0.85726 0.0
C705 C 0.66784 0.23744 0.83253 0.0
C706 C 0.68204 0.23984 0.8085 0.0
C707 C 0.70278 0.22787 0.80928 0.0
C708 C 0.70865 0.21308 0.83362 0.0
C709 C 0.69403 0.21087 0.85722 0.0
C710 C 0.67498 0.25523 0.78238 0.0
C711 C 0.7305 0.19986 0.83489 0.0
C712 C 0.7416 0.16809 0.58515 0.0
C713 C 0.7362 0.15156 0.61002 0.0
C714 C 0.72077 0.17289 0.65276 0.0
C715 C 0.70757 0.19239 0.65545 0.0
C716 C 0.71023 0.20687 0.68216 0.0
C717 C 0.72619 0.20136 0.70698 0.0
C718 C 0.73874 0.18099 0.70505 0.0
C719 C 0.73589 0.16694 0.67792 0.0
C720 C 0.69633 0.22829 0.68365 0.0
C721 C 0.75536 0.17427 0.73149 0.0
C722 C 0.79581 0.2875 0.74022 0.0
C723 C 0.7977 0.30297 0.76569 0.0
C724 C 0.78365 0.30155 0.78995 0.0
C725 C 0.76743 0.28379 0.78911 0.0
C726 C 0.75261 0.28199 0.81262 0.0
C727 C 0.73673 0.26444 0.81146 0.0
C728 C 0.73469 0.24835 0.78634 0.0
C729 C 0.71829 0.23075 0.78456 0.0
C730 C 0.71618 0.21555 0.75874 0.0
C731 C 0.73018 0.21726 0.73452 0.0
C732 C 0.74708 0.23435 0.73624 0.0
C733 C 0.76175 0.23624 0.71256 0.0
C734 C 0.77804 0.25334 0.71415 0.0
C735 C 0.78004 0.26944 0.73921 0.0
C736 C 0.76572 0.26765 0.76365 0.0
C737 C 0.74923 0.25003 0.76217 0.0
C738 C 0.66724 0.24526 0.9273 0.0
C739 C 0.65207 0.23986 0.8974 0.0
O740 O 0.84758 0.30892 0.64159 0.0
O741 O 0.7184 0.16009 0.62579 0.0
O742 O 0.66099 0.22158 0.88134 0.0
O743 O 0.79666 0.37521 0.87876 0.0
H744 H 0.86927 0.3294 0.67026 0.0
H745 H 0.83939 0.35299 0.64354 0.0
H746 H 0.84906 0.34468 0.60623 0.0
H747 H 0.86721 0.36137 0.63441 0.0
H748 H 0.86357 0.28921 0.69226 0.0
H749 H 0.80435 0.31508 0.64212 0.0
H750 H 0.84506 0.28772 0.7638 0.0
H751 H 0.86186 0.27029 0.73935 0.0
H752 H 0.83444 0.26058 0.74885 0.0
H753 H 0.76961 0.31957 0.6647 0.0
H754 H 0.76975 0.31776 0.70632 0.0
H755 H 0.76365 0.29301 0.68144 0.0
H756 H 0.80752 0.40252 0.85449 0.0
H757 H 0.81297 0.42355 0.90033 0.0
H758 H 0.80257 0.40354 0.92092 0.0
H759 H 0.76471 0.4298 0.89635 0.0
H760 H 0.77539 0.3772 0.8212 0.0
H761 H 0.80853 0.33368 0.88807 0.0
H762 H 0.77644 0.34695 0.75752 0.0
H763 H 0.75471 0.36244 0.7759 0.0
H764 H 0.75212 0.33211 0.76869 0.0
H765 H 0.81762 0.29569 0.87476 0.0
H766 H 0.817 0.28767 0.83388 0.0
H767 H 0.79285 0.2823 0.85481 0.0
H768 H 0.65183 0.2554 0.8836 0.0
H769 H 0.65184 0.2464 0.83188 0.0
H770 H 0.69844 0.19982 0.87621 0.0
H771 H 0.6876 0.26913 0.78194 0.0
H772 H 0.65803 0.26287 0.78473 0.0
H773 H 0.67461 0.24552 0.75975 0.0
H774 H 0.73278 0.18935 0.85568 0.0
H775 H 0.74508 0.21175 0.83521 0.0
H776 H 0.73078 0.18854 0.81371 0.0
H777 H 0.75201 0.15051 0.62578 0.0
H778 H 0.75455 0.16075 0.57051 0.0
H779 H 0.7485 0.18417 0.5966 0.0
H780 H 0.72608 0.17231 0.57025 0.0
H781 H 0.69564 0.19659 0.63611 0.0
H782 H 0.74537 0.15127 0.67649 0.0
H783 H 0.70775 0.24331 0.687 0.0
H784 H 0.68603 0.22811 0.70393 0.0
H785 H 0.68479 0.23026 0.66226 0.0
H786 H 0.76291 0.15731 0.7271 0.0
H787 H 0.74676 0.17406 0.75333 0.0
H788 H 0.76922 0.18705 0.7351 0.0
H789 H 0.8097 0.31692 0.76604 0.0
H790 H 0.75316 0.2941 0.83222 0.0
H791 H 0.72589 0.26381 0.83034 0.0
H792 H 0.70331 0.20234 0.75733 0.0
H793 H 0.76082 0.22453 0.6925 0.0
H794 H 0.78892 0.25392 0.6953 0.0
H795 H 0.6688 0.23027 0.94209 0.0
H796 H 0.66017 0.25972 0.94071 0.0
H797 H 0.68445 0.2501 0.92144 0.0
C798 C 0.78064 0.60308 0.81108 0.0
C799 C 0.78815 0.61772 0.84029 0.0
C800 C 0.77821 0.65617 0.82836 0.0
C801 C 0.79372 0.67195 0.84283 0.0
C802 C 0.79756 0.69264 0.82915 0.0
C803 C 0.78577 0.69734 0.80021 0.0
C804 C 0.77025 0.68119 0.78543 0.0
C805 C 0.76639 0.66089 0.80002 0.0
C806 C 0.81405 0.70955 0.84571 0.0
C807 C 0.75768 0.68542 0.75434 0.0
C808 C 0.91674 0.77148 0.69885 0.0
C809 C 0.90872 0.74789 0.68586 0.0
C810 C 0.86873 0.74539 0.69741 0.0
C811 C 0.84654 0.74322 0.68383 0.0
C812 C 0.82822 0.74119 0.70203 0.0
C813 C 0.83217 0.74216 0.73485 0.0
C814 C 0.85463 0.74409 0.74884 0.0
C815 C 0.87272 0.74535 0.72998 0.0
C816 C 0.80463 0.73821 0.68609 0.0
C817 C 0.85952 0.7451 0.78374 0.0
C818 C 0.76625 0.87975 0.72516 0.0
C819 C 0.75625 0.86171 0.70659 0.0
C820 C 0.75149 0.84101 0.71965 0.0
C821 C 0.7571 0.83831 0.7518 0.0
C822 C 0.76657 0.85673 0.77065 0.0
C823 C 0.77074 0.87734 0.75707 0.0
C824 C 0.74058 0.82199 0.6991 0.0
C825 C 0.77263 0.85451 0.80503 0.0
C826 C 0.64082 0.74228 0.85789 0.0
C827 C 0.64614 0.76533 0.87465 0.0
C828 C 0.66757 0.78553 0.83931 0.0
C829 C 0.66716 0.78373 0.80697 0.0
C830 C 0.68706 0.78642 0.7921 0.0
C831 C 0.70762 0.79169 0.81016 0.0
C832 C 0.70782 0.79474 0.84285 0.0
C833 C 0.68775 0.79142 0.85714 0.0
C834 C 0.68622 0.78319 0.75718 0.0
C835 C 0.72926 0.80123 0.86266 0.0
C836 C 0.78942 0.7193 0.78569 0.0
C837 C 0.80815 0.7213 0.76835 0.0
C838 C 0.81274 0.74159 0.75441 0.0
C839 C 0.79848 0.7606 0.75817 0.0
C840 C 0.80315 0.78159 0.7457 0.0
C841 C 0.78854 0.79992 0.74846 0.0
C842 C 0.76862 0.79794 0.76369 0.0
C843 C 0.75324 0.81621 0.76572 0.0
C844 C 0.73368 0.8137 0.78117 0.0
C845 C 0.729 0.79337 0.79487 0.0
C846 C 0.74419 0.77492 0.79321 0.0
C847 C 0.74005 0.75426 0.80692 0.0
C848 C 0.75505 0.73618 0.80504 0.0
C849 C 0.77447 0.73784 0.78867 0.0
C850 C 0.77901 0.75854 0.77478 0.0
C851 C 0.76397 0.77717 0.77731 0.0
C852 C 0.80002 0.91754 0.68705 0.0
C853 C 0.77895 0.90234 0.68386 0.0
O854 O 0.77421 0.63652 0.84203 0.0
O855 O 0.64824 0.78161 0.85284 0.0
O856 O 0.77171 0.89972 0.71314 0.0
O857 O 0.88552 0.74777 0.67816 0.0
H858 H 0.80601 0.62331 0.83875 0.0
H859 H 0.78205 0.61295 0.79001 0.0
H860 H 0.76275 0.5975 0.81161 0.0
H861 H 0.79161 0.58786 0.80931 0.0
H862 H 0.80261 0.66809 0.86496 0.0
H863 H 0.75431 0.64851 0.78923 0.0
H864 H 0.82852 0.71197 0.83145 0.0
H865 H 0.82073 0.70396 0.86896 0.0
H866 H 0.80567 0.72628 0.84857 0.0
H867 H 0.74811 0.67019 0.74446 0.0
H868 H 0.76974 0.69055 0.73759 0.0
H869 H 0.74554 0.69957 0.757 0.0
H870 H 0.91313 0.73522 0.70377 0.0
H871 H 0.93548 0.7717 0.70365 0.0
H872 H 0.90923 0.77592 0.72093 0.0
H873 H 0.91174 0.78479 0.68217 0.0
H874 H 0.84362 0.74306 0.65871 0.0
H875 H 0.88979 0.74663 0.74097 0.0
H876 H 0.79517 0.75437 0.6883 0.0
H877 H 0.79522 0.7249 0.69719 0.0
H878 H 0.80492 0.73351 0.66095 0.0
H879 H 0.87751 0.74943 0.79103 0.0
H880 H 0.85569 0.72835 0.7929 0.0
H881 H 0.8485 0.7579 0.79451 0.0
H882 H 0.78418 0.88568 0.67361 0.0
H883 H 0.75201 0.86382 0.682 0.0
H884 H 0.77817 0.89152 0.77121 0.0
H885 H 0.75279 0.80781 0.69717 0.0
H886 H 0.73519 0.82753 0.67534 0.0
H887 H 0.72557 0.81532 0.70957 0.0
H888 H 0.78119 0.86996 0.81605 0.0
H889 H 0.78395 0.83969 0.80894 0.0
H890 H 0.75701 0.85142 0.81673 0.0
H891 H 0.66229 0.76379 0.88963 0.0
H892 H 0.63922 0.72893 0.87499 0.0
H893 H 0.65475 0.73735 0.84333 0.0
H894 H 0.62477 0.74311 0.84263 0.0
H895 H 0.65132 0.77947 0.79351 0.0
H896 H 0.68774 0.79352 0.88217 0.0
H897 H 0.69867 0.77008 0.75078 0.0
H898 H 0.69101 0.79931 0.747 0.0
H899 H 0.66912 0.77798 0.74669 0.0
H900 H 0.72607 0.80532 0.88724 0.0
H901 H 0.73732 0.81616 0.85317 0.0
H902 H 0.74148 0.78696 0.86212 0.0
H903 H 0.81919 0.7068 0.76546 0.0
H904 H 0.81815 0.78409 0.73356 0.0
H905 H 0.79297 0.8156 0.73825 0.0
H906 H 0.72189 0.82774 0.78246 0.0
H907 H 0.72519 0.75181 0.81934 0.0
H908 H 0.75105 0.72078 0.81624 0.0
H909 H 0.8066 0.91956 0.664 0.0
H910 H 0.81353 0.90973 0.70254 0.0
H911 H 0.79604 0.93459 0.69719 0.0
C912 C 0.03359 0.31496 0.57018 0.0
C913 C 0.04403 0.33575 0.57831 0.0
C914 C 0.0402 0.34913 0.55317 0.0
C915 C 0.02746 0.33598 0.53123 0.0
N916 N 0.02284 0.31527 0.54127 0.0
Co917 Co 0.00461 0.29129 0.51735 0.0
N918 N 0.99075 0.31343 0.48828 0.0
C919 C -0.00125 0.3342 0.48341 0.0
C920 C 0.98448 0.3459 0.46298 0.0
C921 C 0.96647 0.33152 0.45466 0.0
C922 C 0.97086 0.31178 0.47046 0.0
N923 N 0.98664 0.26742 0.49308 0.0
C924 C 0.96731 0.26961 0.47458 0.0
C925 C 0.95962 0.24869 0.46207 0.0
C926 C 0.97486 0.23284 0.47352 0.0
C927 C 0.99093 0.24501 0.49226 0.0
N928 N 0.01823 0.26894 0.5463 0.0
C929 C 0.01913 0.24631 0.54055 0.0
C930 C 0.03032 0.23519 0.56456 0.0
C931 C 0.03703 0.25189 0.58654 0.0
C932 C 0.02949 0.27237 0.57471 0.0
N933 N 0.97995 0.29634 0.54392 0.0
C934 C 0.94319 0.3039 0.57927 0.0
C935 C 0.94979 0.28175 0.57132 0.0
C936 C 0.96841 0.27834 0.55392 0.0
C937 C 0.9555 0.32215 0.56954 0.0
C938 C 0.97369 0.31802 0.55171 0.0
N939 N 0.02933 0.28629 0.49077 0.0
C940 C 0.06901 0.28041 0.48575 0.0
C941 C 0.06507 0.27837 0.4533 0.0
C942 C 0.04274 0.28055 0.44003 0.0
C943 C 0.02512 0.28438 0.45916 0.0
C944 C 0.05105 0.28456 0.50392 0.0
H945 H 0.00806 0.28572 0.4484 0.0
H946 H 0.0548 0.28614 0.52874 0.0
H947 H 0.97329 0.26114 0.5482 0.0
H948 H 0.98248 0.3324 0.54383 0.0
C949 C 0.01638 0.34369 0.50361 0.0
C950 C 0.03562 0.29479 0.58925 0.0
C951 C 0.95652 0.2914 0.46799 0.0
C952 C 0.00677 0.23603 0.51444 0.0
H953 H 0.05351 0.3408 0.60002 0.0
H954 H 0.04532 0.36665 0.55162 0.0
H955 H 0.98619 0.36331 0.45647 0.0
H956 H 0.95175 0.33533 0.43922 0.0
H957 H 0.9445 0.2453 0.44664 0.0
H958 H 0.97358 0.21457 0.47006 0.0
H959 H 0.0329 0.21708 0.5662 0.0
H960 H 0.04683 0.24931 0.60842 0.0
H961 H 0.94072 0.26722 0.57863 0.0
H962 H 0.95074 0.33952 0.57502 0.0
H963 H 0.0858 0.27838 0.49729 0.0
H964 H 0.03883 0.27941 0.41507 0.0
C965 C 0.69782 0.0486 0.5555 0.0
C966 C 0.67794 0.05803 0.56496 0.0
C967 C 0.6608 0.04309 0.5548 0.0
C968 C 0.67117 0.02541 0.53985 0.0
N969 N 0.6937 0.0284 0.54003 0.0
Co970 Co 0.71521 0.00745 0.52109 0.0
N971 N 0.69054 0.99241 0.49381 0.0
C972 C 0.66827 0.99334 0.49791 0.0
C973 C 0.65523 0.98091 0.47544 0.0
C974 C 0.67028 0.97142 0.45622 0.0
C975 C 0.69174 0.97862 0.46811 0.0
N976 N 0.73682 0.98625 0.50266 0.0
C977 C 0.73417 0.97301 0.47629 0.0
C978 C 0.75363 0.96038 0.47229 0.0
C979 C 0.76871 0.9657 0.49741 0.0
C980 C 0.75776 0.98128 0.51523 0.0
N981 N 0.73989 0.0226 0.54825 0.0
C982 C 0.76057 0.01404 0.55596 0.0
C983 C 0.77419 0.02884 0.57453 0.0
C984 C 0.76117 0.0478 0.57883 0.0
C985 C 0.74017 0.04338 0.56281 0.0
N986 N 0.71135 0.98573 0.55319 0.0
C987 C 0.7206 0.9539 0.59859 0.0
C988 C 0.71922 0.97714 0.60684 0.0
C989 C 0.71419 0.99273 0.58383 0.0
C990 C 0.71404 0.94686 0.56771 0.0
C991 C 0.70958 0.96304 0.54536 0.0
N992 N 0.71955 0.02908 0.48915 0.0
C993 C 0.745 0.04816 0.45846 0.0
C994 C 0.72714 0.0607 0.44435 0.0
C995 C 0.70524 0.05687 0.45324 0.0
C996 C 0.70177 0.04081 0.47537 0.0
C997 C 0.74093 0.03282 0.48093 0.0
H998 H 0.68475 0.03799 0.48152 0.0
H999 H 0.75522 0.02393 0.49165 0.0
H1000 H 0.71466 0.01057 0.59055 0.0
H1001 H 0.70657 0.95712 0.52142 0.0
C1002 C 0.66019 0.00843 0.52038 0.0
C1003 C 0.72044 0.05847 0.5629 0.0
C1004 C 0.7129 0.97034 0.45634 0.0
C1005 C 0.7678 0.99428 0.54065 0.0
H1006 H 0.67606 0.07402 0.57774 0.0
H1007 H 0.64284 0.0454 0.55677 0.0
H1008 H 0.63695 0.97938 0.47284 0.0
H1009 H 0.66601 0.9602 0.43607 0.0
H1010 H 0.75654 0.94835 0.45344 0.0
H1011 H 0.78587 0.95953 0.50158 0.0
H1012 H 0.79181 0.02662 0.58268 0.0
H1013 H 0.76669 0.06307 0.5921 0.0
H1014 H 0.72385 0.98357 0.63036 0.0
H1015 H 0.71387 0.92906 0.56037 0.0
H1016 H 0.76216 0.04963 0.4523 0.0
H1017 H 0.69079 0.06618 0.44356 0.0
C1018 C 0.04056 0.72401 0.54131 0.0
C1019 C 0.05613 0.7416 0.54849 0.0
C1020 C 0.05162 0.75774 0.52703 0.0
C1021 C 0.03371 0.74926 0.50789 0.0
N1022 N 0.02644 0.72889 0.5162 0.0
Co1023 Co 0.00213 0.71025 0.49322 0.0
N1024 N 0.98986 0.73699 0.47123 0.0
C1025 C 0.001 0.75643 0.4674 0.0
C1026 C 0.98793 0.7719 0.45116 0.0
C1027 C 0.96732 0.76145 0.44425 0.0
C1028 C 0.96908 0.74008 0.45667 0.0
N1029 N 0.97777 0.69186 0.46992 0.0
C1030 C 0.95803 0.69879 0.45526 0.0
C1031 C 0.94554 0.68046 0.44182 0.0
C1032 C 0.95806 0.66137 0.44846 0.0
C1033 C 0.97741 0.66913 0.46548 0.0
N1034 N 0.01448 0.6834 0.51502 0.0
C1035 C 0.00991 0.66149 0.50651 0.0
C1036 C 0.02064 0.64659 0.52638 0.0
C1037 C 0.03298 0.65993 0.54847 0.0
C1038 C 0.02922 0.68234 0.54066 0.0
N1039 N 0.98245 0.71662 0.52646 0.0
C1040 C 0.95627 0.72575 0.57631 0.0
C1041 C 0.9581 0.70357 0.56385 0.0
C1042 C 0.97109 0.6994 0.53872 0.0
C1043 C 0.96744 0.74331 0.56294 0.0
C1044 C 0.98054 0.73837 0.53821 0.0
N1045 N 0.02208 0.70408 0.46015 0.0
C1046 C 0.06016 0.69994 0.44566 0.0
C1047 C 0.05307 0.7049 0.41494 0.0
C1048 C 0.02975 0.70731 0.40679 0.0
C1049 C 0.01453 0.70679 0.42975 0.0
C1050 C 0.04443 0.69942 0.46775 0.0
H1051 H 0.99683 0.70984 0.42319 0.0
H1052 H 0.05071 0.69669 0.49139 0.0
H1053 H 0.97217 0.6822 0.52947 0.0
H1054 H 0.98941 0.75214 0.52887 0.0
C1055 C 0.02177 0.76103 0.48431 0.0
C1056 C 0.04192 0.70181 0.55584 0.0
C1057 C 0.95139 0.72259 0.45257 0.0
C1058 C 0.9931 0.65578 0.48258 0.0
H1059 H 0.06993 0.74252 0.56657 0.0
H1060 H 0.06025 0.77383 0.52576 0.0
H1061 H 0.99245 0.78908 0.44619 0.0
H1062 H 0.95274 0.76874 0.43155 0.0
H1063 H 0.92912 0.68086 0.42876 0.0
H1064 H 0.95311 0.6439 0.44284 0.0
H1065 H 0.01923 0.62825 0.52543 0.0
H1066 H 0.04387 0.65385 0.56774 0.0
H1067 H 0.9495 0.68957 0.57338 0.0
H1068 H 0.96658 0.76067 0.57207 0.0
H1069 H 0.07793 0.69801 0.45328 0.0
H1070 H 0.02338 0.71055 0.38315 0.0
C1071 C 0.31006 0.97134 0.56683 0.0
C1072 C 0.3294 0.9641 0.58413 0.0
C1073 C 0.34543 0.98079 0.58325 0.0
C1074 C 0.33521 0.99711 0.56518 0.0
N1075 N 0.31377 0.99166 0.55461 0.0
Co1076 Co 0.29354 0.00928 0.5256 0.0
N1077 N 0.3194 0.02661 0.51205 0.0
C1078 C 0.34039 0.02804 0.52676 0.0
C1079 C 0.35498 0.04073 0.51149 0.0
C1080 C 0.34232 0.04803 0.48583 0.0
C1081 C 0.32051 0.03957 0.48706 0.0
N1082 N 0.27309 0.02701 0.49698 0.0
C1083 C 0.27794 0.04049 0.47379 0.0
C1084 C 0.25843 0.05081 0.4609 0.0
C1085 C 0.2409 0.04369 0.47685 0.0
C1086 C 0.25058 0.0295 0.49855 0.0
N1087 N 0.26776 0.99191 0.53911 0.0
C1088 C 0.24586 0.99817 0.53654 0.0
C1089 C 0.23193 0.98275 0.5485 0.0
C1090 C 0.24601 0.96578 0.55927 0.0
C1091 C 0.26778 0.97182 0.55312 0.0
N1092 N 0.2899 0.03226 0.55879 0.0
C1093 C 0.27674 0.06471 0.60289 0.0
C1094 C 0.27802 0.04163 0.60959 0.0
C1095 C 0.28483 0.02576 0.58739 0.0
C1096 C 0.28398 0.0713 0.57453 0.0
C1097 C 0.29044 0.05486 0.55284 0.0
N1098 N 0.29692 0.98619 0.49255 0.0
C1099 C 0.27989 0.96072 0.45217 0.0
C1100 C 0.3009 0.9505 0.44856 0.0
C1101 C 0.31996 0.95885 0.46697 0.0
C1102 C 0.31765 0.97683 0.48858 0.0
C1103 C 0.27824 0.97843 0.47437 0.0
H1104 H 0.33259 0.9829 0.50243 0.0
H1105 H 0.26176 0.98555 0.47723 0.0
H1106 H 0.28485 0.00807 0.59282 0.0
H1107 H 0.29489 0.06042 0.53073 0.0
C1108 C 0.34657 0.01458 0.55197 0.0
C1109 C 0.28825 0.95913 0.56294 0.0
C1110 C 0.30091 0.04615 0.4661 0.0
C1111 C 0.23884 0.01624 0.51809 0.0
H1112 H 0.33203 0.94828 0.59566 0.0
H1113 H 0.36291 0.98031 0.59285 0.0
H1114 H 0.37286 0.04373 0.51771 0.0
H1115 H 0.3484 0.05865 0.46847 0.0
H1116 H 0.25705 0.06275 0.44249 0.0
H1117 H 0.22318 0.0481 0.4728 0.0
H1118 H 0.21365 0.9833 0.54832 0.0
H1119 H 0.24088 0.95078 0.57053 0.0
H1120 H 0.2726 0.03559 0.63108 0.0
H1121 H 0.28393 0.08898 0.56861 0.0
H1122 H 0.26473 0.95471 0.43844 0.0
H1123 H 0.33658 0.95163 0.46453 0.0
C1124 C 0.53733 0.81167 0.06382 0.0
C1125 C 0.54738 0.83138 0.07721 0.0
C1126 C 0.53975 0.84869 0.05908 0.0
C1127 C 0.52558 0.83857 0.03573 0.0
N1128 N 0.52341 0.81587 0.03811 0.0
Co1129 Co 0.50609 0.79412 0.00789 0.0
N1130 N 0.49562 0.8194 0.9804 0.0
C1131 C 0.50028 0.84182 0.98522 0.0
C1132 C 0.48951 0.85516 0.96329 0.0
C1133 C 0.47692 0.84043 0.94356 0.0
C1134 C 0.48082 0.81891 0.95464 0.0
N1135 N 0.48949 0.77222 0.97729 0.0
C1136 C 0.47624 0.77618 0.95101 0.0
C1137 C 0.468 0.75609 0.93615 0.0
C1138 C 0.47612 0.73885 0.95391 0.0
C1139 C 0.48881 0.74931 0.97844 0.0
N1140 N 0.51572 0.76891 0.03582 0.0
C1141 C 0.51014 0.74663 0.03172 0.0
C1142 C 0.51905 0.73346 0.05505 0.0
C1143 C 0.53128 0.74812 0.07516 0.0
C1144 C 0.52915 0.7695 0.06277 0.0
N1145 N 0.47843 0.79835 0.03023 0.0
C1146 C 0.43679 0.80467 0.05642 0.0
C1147 C 0.44427 0.78295 0.04798 0.0
C1148 C 0.46484 0.78023 0.03487 0.0
C1149 C 0.45107 0.82308 0.05275 0.0
C1150 C 0.47175 0.81953 0.04002 0.0
N1151 N 0.53371 0.78991 0.98527 0.0
C1152 C 0.56151 0.76526 0.96358 0.0
C1153 C 0.57194 0.78372 0.95145 0.0
C1154 C 0.56325 0.80537 0.9569 0.0
C1155 C 0.54442 0.80809 0.97406 0.0
C1156 C 0.54248 0.76869 0.9801 0.0
H1157 H 0.53887 0.82507 0.97784 0.0
H1158 H 0.53511 0.75384 0.98819 0.0
H1159 H 0.46919 0.76331 0.02819 0.0
H1160 H 0.48181 0.83424 0.03773 0.0
C1161 C 0.51444 0.84979 0.01097 0.0
C1162 C 0.54184 0.78931 0.07593 0.0
C1163 C 0.46971 0.79857 0.94042 0.0
C1164 C 0.4982 0.7383 0.00438 0.0
H1165 H 0.55919 0.83296 0.09775 0.0
H1166 H 0.54429 0.86649 0.06225 0.0
H1167 H 0.49039 0.87345 0.96213 0.0
H1168 H 0.46587 0.84497 0.92352 0.0
H1169 H 0.4567 0.75411 0.91516 0.0
H1170 H 0.47248 0.7209 0.95006 0.0
H1171 H 0.51753 0.71525 0.05667 0.0
H1172 H 0.54131 0.7434 0.09601 0.0
H1173 H 0.43425 0.76799 0.0512 0.0
H1174 H 0.44614 0.84029 0.05883 0.0
H1175 H 0.56767 0.74815 0.9597 0.0
H1176 H 0.57105 0.82018 0.94817 0.0
C1177 C 0.19365 0.54806 0.0547 0.0
C1178 C 0.17138 0.55265 0.06051 0.0
C1179 C 0.15867 0.53433 0.04842 0.0
C1180 C 0.17377 0.51969 0.03575 0.0
N1181 N 0.19512 0.52771 0.03933 0.0
Co1182 Co 0.22199 0.51346 0.02257 0.0
N1183 N 0.20287 0.4949 0.99124 0.0
C1184 C 0.18069 0.49026 0.99245 0.0
C1185 C 0.17199 0.47645 0.96794 0.0
C1186 C 0.18988 0.4719 0.95052 0.0
C1187 C 0.20861 0.48327 0.96542 0.0
N1188 N 0.24908 0.49937 0.00608 0.0
C1189 C 0.25106 0.48746 0.97898 0.0
C1190 C 0.27333 0.48059 0.97674 0.0
C1191 C 0.28545 0.48798 0.00377 0.0
C1192 C 0.27005 0.49908 0.02093 0.0
N1193 N 0.24083 0.53192 0.0541 0.0
C1194 C 0.26238 0.52787 0.06472 0.0
C1195 C 0.27087 0.54441 0.08603 0.0
C1196 C 0.25351 0.55972 0.0887 0.0
C1197 C 0.23547 0.55158 0.06878 0.0
N1198 N 0.22113 0.48903 0.05177 0.0
C1199 C 0.22588 0.45404 0.0938 0.0
C1200 C 0.22701 0.44958 0.06189 0.0
C1201 C 0.22454 0.46716 0.04143 0.0
C1202 C 0.22135 0.47637 0.1041 0.0
C1203 C 0.21887 0.4936 0.08265 0.0
N1204 N 0.22317 0.53766 0.99324 0.0
C1205 C 0.24511 0.56446 0.9678 0.0
C1206 C 0.22614 0.56968 0.94791 0.0
C1207 C 0.20543 0.55921 0.95183 0.0
C1208 C 0.20424 0.54344 0.97492 0.0
C1209 C 0.24332 0.54828 0.9901 0.0
H1210 H 0.18813 0.53552 0.97747 0.0
H1211 H 0.25842 0.54395 0.00429 0.0
H1212 H 0.22631 0.46304 0.01728 0.0
H1213 H 0.21583 0.51074 0.09113 0.0
C1214 C 0.16807 0.50168 0.01428 0.0
C1215 C 0.2134 0.56262 0.06416 0.0
C1216 C 0.23193 0.48017 0.95675 0.0
C1217 C 0.27518 0.51192 0.04881 0.0
H1218 H 0.16472 0.56764 0.07165 0.0
H1219 H 0.14041 0.53268 0.04712 0.0
H1220 H 0.15463 0.47074 0.96293 0.0
H1221 H 0.18929 0.461 0.92967 0.0
H1222 H 0.28004 0.47083 0.95785 0.0
H1223 H 0.30343 0.48595 0.00983 0.0
H1224 H 0.28802 0.54599 0.09677 0.0
H1225 H 0.25412 0.57525 0.10305 0.0
H1226 H 0.23083 0.43276 0.05273 0.0
H1227 H 0.22006 0.48057 0.12852 0.0
H1228 H 0.26152 0.57191 0.96524 0.0
H1229 H 0.19033 0.56299 0.937 0.0
C1230 C 0.47335 0.25308 0.97592 0.0
C1231 C 0.46816 0.27579 0.97176 0.0
C1232 C 0.48306 0.28817 0.99159 0.0
C1233 C 0.49647 0.2724 0.00661 0.0
N1234 N 0.49117 0.25065 0.99736 0.0
Co1235 Co 0.50622 0.22234 0.0133 0.0
N1236 N 0.52698 0.24047 0.04399 0.0
C1237 C 0.52647 0.26315 0.05021 0.0
C1238 C 0.54278 0.27063 0.07278 0.0
C1239 C 0.55461 0.25165 0.08114 0.0
C1240 C 0.54489 0.23366 0.06294 0.0
N1241 N 0.5219 0.19413 0.02842 0.0
C1242 C 0.54095 0.19185 0.0478 0.0
C1243 C 0.5473 0.16923 0.04991 0.0
C1244 C 0.53179 0.1568 0.03117 0.0
C1245 C 0.51704 0.17245 0.01849 0.0
N1246 N 0.48496 0.20419 0.98323 0.0
C1247 C 0.48398 0.18132 0.97925 0.0
C1248 C 0.46687 0.17368 0.95798 0.0
C1249 C 0.45601 0.19281 0.94809 0.0
C1250 C 0.4672 0.21105 0.964 0.0
N1251 N 0.5285 0.22438 0.98184 0.0
C1252 C 0.56454 0.22672 0.94367 0.0
C1253 C 0.5524 0.2065 0.94525 0.0
C1254 C 0.53432 0.20578 0.96411 0.0
C1255 C 0.55766 0.24589 0.96039 0.0
C1256 C 0.53981 0.24435 0.97909 0.0
N1257 N 0.48414 0.22039 0.04528 0.0
C1258 C 0.46311 0.19863 0.07962 0.0
C1259 C 0.45528 0.21856 0.0936 0.0
C1260 C 0.46168 0.23928 0.08266 0.0
C1261 C 0.47601 0.23981 0.05888 0.0
C1262 C 0.47718 0.19992 0.05527 0.0
H1263 H 0.4804 0.25625 0.05235 0.0
H1264 H 0.48227 0.18416 0.04507 0.0
H1265 H 0.52566 0.18993 0.96464 0.0
H1266 H 0.53605 0.25943 0.99196 0.0
C1267 C 0.51244 0.27727 0.03181 0.0
C1268 C 0.45981 0.23447 0.96076 0.0
C1269 C 0.55414 0.21071 0.06311 0.0
C1270 C 0.4992 0.16747 0.99603 0.0
H1271 H 0.45453 0.28267 0.9567 0.0
H1272 H 0.48347 0.30644 0.9955 0.0
H1273 H 0.54629 0.28796 0.08117 0.0
H1274 H 0.56921 0.25118 0.098 0.0
H1275 H 0.56195 0.16232 0.06288 0.0
H1276 H 0.53173 0.1386 0.02651 0.0
H1277 H 0.46261 0.15626 0.95085 0.0
H1278 H 0.44132 0.19331 0.9314 0.0
H1279 H 0.55699 0.19127 0.93235 0.0
H1280 H 0.56667 0.26188 0.96027 0.0
H1281 H 0.45829 0.18218 0.08728 0.0
H1282 H 0.45614 0.25517 0.09302 0.0
C1283 C 0.75857 0.53585 0.06448 0.0
C1284 C 0.73747 0.5438 0.07168 0.0
C1285 C 0.72167 0.53149 0.05332 0.0
C1286 C 0.7339 0.51689 0.03587 0.0
N1287 N 0.75661 0.51884 0.04222 0.0
Co1288 Co 0.78063 0.50188 0.02074 0.0
N1289 N 0.75725 0.48545 0.9916 0.0
C1290 C 0.73446 0.4877 0.99084 0.0
C1291 C 0.72274 0.47442 0.96817 0.0
C1292 C 0.73895 0.4628 0.95364 0.0
C1293 C 0.75976 0.46956 0.96855 0.0
N1294 N 0.80463 0.48497 -0.00089 0.0
C1295 C 0.80265 0.46923 0.97513 0.0
C1296 C 0.82366 0.46154 0.96737 0.0
C1297 C 0.8395 0.47275 0.9872 0.0
C1298 C 0.82733 0.48658 0.00588 0.0
N1299 N 0.80394 0.5183 0.04999 0.0
C1300 C 0.8267 0.51556 0.05148 0.0
C1301 C 0.83834 0.52966 0.07335 0.0
C1302 C 0.82208 0.5424 0.08635 0.0
C1303 C 0.80141 0.53536 0.07149 0.0
N1304 N 0.77952 0.47684 0.05001 0.0
C1305 C 0.77837 0.43558 0.0806 0.0
C1306 C 0.79884 0.44694 0.0783 0.0
C1307 C 0.79902 0.46737 0.06308 0.0
C1308 C 0.75835 0.44637 0.06984 0.0
C1309 C 0.75932 0.46698 0.05519 0.0
N1310 N 0.78184 0.52658 0.99108 0.0
C1311 C 0.80365 0.55189 0.96249 0.0
C1312 C 0.78407 0.55914 0.94531 0.0
C1313 C 0.76325 0.55038 0.95243 0.0
C1314 C 0.76252 0.53449 0.97544 0.0
C1315 C 0.80217 0.53566 0.98486 0.0
H1316 H 0.74615 0.52857 0.97981 0.0
H1317 H 0.81777 0.53056 0.99656 0.0
H1318 H 0.81522 0.4747 0.06132 0.0
H1319 H 0.7435 0.47411 0.04717 0.0
C1320 C 0.72455 0.50239 0.01183 0.0
C1321 C 0.77993 0.54594 0.07791 0.0
C1322 C 0.78133 0.46047 0.95985 0.0
C1323 C 0.83666 0.50083 0.03039 0.0
H1324 H 0.73371 0.55753 0.0878 0.0
H1325 H 0.70345 0.53353 0.05203 0.0
H1326 H 0.70456 0.47333 0.96285 0.0
H1327 H 0.73573 0.45075 0.93417 0.0
H1328 H 0.82714 0.44889 0.94953 0.0
H1329 H 0.85773 0.47083 0.98815 0.0
H1330 H 0.85651 0.53098 0.07858 0.0
H1331 H 0.82508 0.55571 0.10428 0.0
H1332 H 0.8148 0.43983 0.08738 0.0
H1333 H 0.74196 0.43852 0.0712 0.0
H1334 H 0.82018 0.55855 0.95869 0.0
H1335 H 0.74752 0.55522 0.93983 0.0
C1336 C 0.12443 0.27526 0.42662 0.0
C1337 C 0.1215 0.25991 0.40084 0.0
H1338 H 0.10898 0.2937 0.46272 0.0
C1339 C 0.09946 0.2525 0.39044 0.0
H1340 H 0.14109 0.28192 0.43449 0.0
C1341 C 0.08105 0.25883 0.40704 0.0
C1342 C 0.08417 0.27325 0.43387 0.0
H1343 H 0.09644 0.24139 0.36993 0.0
H1344 H 0.06452 0.25182 0.39931 0.0
C1345 C 0.10601 0.28191 0.44287 0.0
C1346 C 0.76702 0.10369 0.38551 0.0
C1347 C 0.74207 0.11789 0.36601 0.0
H1348 H 0.77459 0.07875 0.43022 0.0
C1349 C 0.71282 0.10596 0.36405 0.0
H1350 H 0.78407 0.10995 0.38425 0.0
C1351 C 0.70799 0.08693 0.39446 0.0
C1352 C 0.73148 0.07713 0.42029 0.0
H1353 H 0.69888 0.11313 0.34986 0.0
H1354 H 0.6909 0.08115 0.39657 0.0
C1355 C 0.76061 0.08488 0.41522 0.0
C1356 C 0.89234 0.74606 0.44123 0.0
C1357 C 0.89033 0.74949 0.40909 0.0
H1358 H 0.91354 0.73456 0.48029 0.0
C1359 C 0.90755 0.74139 0.39102 0.0
H1360 H 0.87944 0.75237 0.45569 0.0
C1361 C 0.92666 0.73083 0.40499 0.0
C1362 C 0.92911 0.72867 0.43726 0.0
H1363 H 0.90679 0.74403 0.36631 0.0
H1364 H 0.94021 0.72566 0.39091 0.0
C1365 C 0.91168 0.73584 0.45526 0.0
C1366 C 0.29562 0.91508 0.373 0.0
C1367 C 0.30802 0.89555 0.38113 0.0
H1368 H 0.28366 0.94773 0.38796 0.0
C1369 C 0.3174 0.89388 0.41197 0.0
H1370 H 0.28821 0.91688 0.34943 0.0
C1371 C 0.31504 0.91168 0.43392 0.0
C1372 C 0.30294 0.93135 0.42558 0.0
H1373 H 0.32689 0.87895 0.41893 0.0
H1374 H 0.32262 0.91007 0.45744 0.0
C1375 C 0.29299 0.93273 0.39503 0.0
C1376 C 0.08717 0.71126 0.62152 0.0
C1377 C 0.10588 0.70077 0.60879 0.0
H1378 H 0.05166 0.71876 0.61506 0.0
C1379 C 0.10216 0.68717 0.58132 0.0
H1380 H 0.08932 0.72192 0.64259 0.0
C1381 C 0.08071 0.68591 0.56531 0.0
C1382 C 0.06243 0.69766 0.57698 0.0
H1383 H 0.11623 0.6789 0.57105 0.0
H1384 H 0.07878 0.67709 0.54271 0.0
C1385 C 0.06554 0.70938 0.60593 0.0
C1386 C 0.23881 0.1119 0.63061 0.0
C1387 C 0.24034 0.10914 0.66282 0.0
H1388 H 0.24885 0.10007 0.58652 0.0
C1389 C 0.2553 0.09279 0.67556 0.0
H1390 H 0.22712 0.12409 0.62014 0.0
C1391 C 0.26809 0.07918 0.65636 0.0
C1392 C 0.26587 0.0813 0.62392 0.0
H1393 H 0.25662 0.09004 0.70028 0.0
H1394 H 0.27927 0.06659 0.6669 0.0
C1395 C 0.2514 0.09818 0.61139 0.0
C1396 C 0.90597 0.32812 0.63925 0.0
C1397 C 0.88482 0.31837 0.62915 0.0
H1398 H 0.94107 0.33105 0.63142 0.0
C1399 C 0.88313 0.30339 0.60279 0.0
H1400 H 0.90764 0.33999 0.65917 0.0
C1401 C 0.90228 0.2981 0.58715 0.0
C1402 C 0.92331 0.30813 0.59711 0.0
H1403 H 0.86697 0.29601 0.59398 0.0
H1404 H 0.90052 0.28677 0.56666 0.0
C1405 C 0.92501 0.32311 0.62334 0.0
C1406 C 0.76085 0.90882 0.63017 0.0
C1407 C 0.76064 0.91279 0.66238 0.0
H1408 H 0.74865 0.91863 0.58494 0.0
C1409 C 0.74527 0.92868 0.6736 0.0
H1410 H 0.77276 0.89692 0.62092 0.0
C1411 C 0.73096 0.9409 0.65293 0.0
C1412 C 0.7321 0.93788 0.62061 0.0
H1413 H 0.74488 0.93229 0.69833 0.0
H1414 H 0.71965 0.95333 0.66235 0.0
C1415 C 0.74682 0.92121 0.60955 0.0
C1416 C 0.93564 0.72318 0.65669 0.0
C1417 C 0.92041 0.74147 0.65694 0.0
H1418 H 0.9588 0.70376 0.63078 0.0
C1419 C 0.91642 0.75397 0.62999 0.0
H1420 H 0.93902 0.71323 0.67708 0.0
C1421 C 0.92788 0.7487 0.6037 0.0
C1422 C 0.9433 0.7306 0.60362 0.0
H1423 H 0.90458 0.76799 0.62941 0.0
H1424 H 0.92467 0.75876 0.58339 0.0
C1425 C 0.94687 0.7177 0.6302 0.0
C1426 C 0.27606 0.89605 0.5645 0.0
C1427 C 0.28287 0.89139 0.5956 0.0
H1428 H 0.27288 0.92118 0.52976 0.0
C1429 C 0.29063 0.9095 0.61614 0.0
H1430 H 0.27015 0.88245 0.54814 0.0
C1431 C 0.29162 0.93157 0.60578 0.0
C1432 C 0.286 0.93589 0.5744 0.0
H1433 H 0.29621 0.90669 0.64018 0.0
H1434 H 0.29727 0.94522 0.62222 0.0
C1435 C 0.27771 0.91809 0.55398 0.0
C1436 C 0.05308 0.29292 0.67561 0.0
C1437 C 0.07592 0.29998 0.67712 0.0
H1438 H 0.02229 0.28637 0.64644 0.0
C1439 C 0.08574 0.30347 0.64921 0.0
H1440 H 0.04513 0.28913 0.6964 0.0
C1441 C 0.07275 0.30136 0.6207 0.0
C1442 C 0.0496 0.29599 0.61952 0.0
H1443 H 0.10344 0.30817 0.64949 0.0
H1444 H 0.08068 0.3043 0.59954 0.0
C1445 C 0.03998 0.29121 0.64704 0.0
C1446 C 0.73383 0.10955 0.61752 0.0
C1447 C 0.73052 0.1276 0.59737 0.0
H1448 H 0.73289 0.07349 0.62252 0.0
C1449 C 0.72175 0.1227 0.56639 0.0
H1450 H 0.73983 0.11281 0.6417 0.0
C1451 C 0.71819 0.1002 0.5554 0.0
C1452 C 0.7229 0.08228 0.57521 0.0
H1453 H 0.71808 0.13603 0.55031 0.0
H1454 H 0.71217 0.09674 0.53126 0.0
C1455 C 0.72994 0.08712 0.60661 0.0
C1456 C 0.8933 0.28544 0.47077 0.0
C1457 C 0.88485 0.2908 0.4404 0.0
H1458 H 0.92253 0.28205 0.50316 0.0
C1459 C 0.90057 0.29621 0.41908 0.0
H1460 H 0.88218 0.2803 0.48778 0.0
C1461 C 0.92384 0.29698 0.42808 0.0
C1462 C 0.93192 0.2922 0.45854 0.0
H1463 H 0.89491 0.29949 0.39519 0.0
H1464 H 0.93555 0.30074 0.41105 0.0
C1465 C 0.91652 0.28631 0.47972 0.0
C1466 C 0.71859 0.94134 0.37776 0.0
C1467 C 0.71827 0.91828 0.38508 0.0
H1468 H 0.71694 0.97607 0.39484 0.0
C1469 C 0.71411 0.91269 0.41543 0.0
H1470 H 0.72216 0.94612 0.35474 0.0
C1471 C 0.71077 0.92973 0.43799 0.0
C1472 C 0.71204 0.95267 0.43086 0.0
H1473 H 0.71423 0.89518 0.42211 0.0
H1474 H 0.7084 0.92507 0.46149 0.0
C1475 C 0.71558 0.95842 0.40054 0.0
C1476 C 0.0838 0.73626 0.3564 0.0
C1477 C 0.10512 0.72574 0.35851 0.0
H1478 H 0.05075 0.73802 0.37244 0.0
C1479 C 0.10857 0.70691 0.37726 0.0
H1480 H 0.08082 0.75105 0.34255 0.0
C1481 C 0.09116 0.6991 0.394 0.0
C1482 C 0.07011 0.71028 0.39294 0.0
H1483 H 0.12491 0.69863 0.37971 0.0
H1484 H 0.09446 0.68476 0.40856 0.0
C1485 C 0.06651 0.72864 0.37337 0.0
C1486 C 0.30098 0.07833 0.3918 0.0
C1487 C 0.30933 0.09976 0.40321 0.0
H1488 H 0.29232 0.04433 0.40289 0.0
C1489 C 0.31372 0.10361 0.43549 0.0
H1490 H 0.29673 0.07502 0.36716 0.0
C1491 C 0.31076 0.08626 0.45577 0.0
C1492 C 0.30365 0.06457 0.44421 0.0
H1493 H 0.31964 0.12005 0.44508 0.0
H1494 H 0.31424 0.08969 0.48056 0.0
C1495 C 0.29839 0.06081 0.41214 0.0
C1496 C 0.62772 0.76266 0.92484 0.0
C1497 C 0.62753 0.77171 0.89524 0.0
H1498 H 0.61029 0.75947 0.9659 0.0
C1499 C 0.60903 0.7851 0.88453 0.0
H1500 H 0.6416 0.75201 0.93342 0.0
C1501 C 0.5913 0.78957 0.90322 0.0
C1502 C 0.59143 0.78025 0.9326 0.0
H1503 H 0.60807 0.7919 0.86156 0.0
H1504 H 0.57713 0.79972 0.89432 0.0
C1505 C 0.60982 0.76681 0.9433 0.0
C1506 C 0.25447 0.62382 0.89331 0.0
C1507 C 0.23461 0.61823 0.85799 0.0
H1508 H 0.25796 0.61127 0.94837 0.0
C1509 C 0.21865 0.59111 0.8502 0.0
H1510 H 0.2653 0.63868 0.89606 0.0
C1511 C 0.21423 0.5758 0.88429 0.0
C1512 C 0.22854 0.58431 0.92159 0.0
H1513 H 0.20879 0.5873 0.82834 0.0
H1514 H 0.20322 0.56108 0.8822 0.0
C1515 C 0.24887 0.60738 0.926 0.0
C1516 C 0.39639 0.24189 0.94818 0.0
C1517 C 0.39369 0.24938 0.91762 0.0
H1518 H 0.41962 0.23114 0.98558 0.0
C1519 C 0.413 0.25169 0.90113 0.0
H1520 H 0.38187 0.24023 0.96157 0.0
C1521 C 0.43453 0.24657 0.91496 0.0
C1522 C 0.43704 0.23919 0.94548 0.0
H1523 H 0.41143 0.2577 0.8777 0.0
H1524 H 0.44923 0.2486 0.90204 0.0
C1525 C 0.41788 0.23674 0.96194 0.0
C1526 C 0.78159 0.4365 0.86132 0.0
C1527 C 0.7738 0.40658 0.86777 0.0
H1528 H 0.79375 0.47094 0.89491 0.0
C1529 C 0.76126 0.39779 0.90353 0.0
H1530 H 0.78681 0.44172 0.83931 0.0
C1531 C 0.7677 0.41656 0.93706 0.0
C1532 C 0.78108 0.44373 0.93339 0.0
H1533 H 0.75461 0.38088 0.90565 0.0
H1534 H 0.76269 0.41189 0.95942 0.0
C1535 C 0.78728 0.45388 0.8963 0.0
C1536 C 0.60487 0.19038 0.11407 0.0
C1537 C 0.62298 0.20017 0.10023 0.0
H1538 H 0.56879 0.18634 0.11341 0.0
C1539 C 0.61808 0.21419 0.07493 0.0
H1540 H 0.60804 0.18012 0.13419 0.0
C1541 C 0.59574 0.21733 0.06279 0.0
C1542 C 0.57781 0.20709 0.07622 0.0
H1543 H 0.63145 0.22281 0.06448 0.0
H1544 H 0.59242 0.22787 0.04296 0.0
C1545 C 0.58247 0.19392 0.10227 0.0
C1546 C 0.78425 0.6093 0.09531 0.0
C1547 C 0.77432 0.61172 0.12369 0.0
H1548 H 0.79385 0.58645 0.05872 0.0
C1549 C 0.76779 0.59205 0.1381 0.0
H1550 H 0.78913 0.62415 0.08348 0.0
C1551 C 0.77081 0.57053 0.12411 0.0
C1552 C 0.77976 0.56834 0.0951 0.0
H1553 H 0.75974 0.59331 0.15967 0.0
H1554 H 0.7652 0.55564 0.13522 0.0
C1555 C 0.78695 0.58781 0.08116 0.0
C1556 C 0.37445 0.7968 0.06748 0.0
C1557 C 0.37073 0.81393 0.09008 0.0
H1558 H 0.39772 0.78104 0.03838 0.0
C1559 C 0.38893 0.82799 0.10176 0.0
H1560 H 0.36089 0.78538 0.05848 0.0
C1561 C 0.41038 0.82504 0.09096 0.0
C1562 C 0.41405 0.808 0.06812 0.0
H1563 H 0.38665 0.84109 0.11957 0.0
H1564 H 0.42413 0.83585 0.10094 0.0
C1565 C 0.39573 0.79407 0.05636 0.0
C1566 C 0.23253 0.39512 0.12512 0.0
C1567 C 0.24776 0.3991 0.15156 0.0
H1568 H 0.213 0.40936 0.08686 0.0
C1569 C 0.2532 0.42167 0.16131 0.0
H1570 H 0.2276 0.37797 0.11737 0.0
C1571 C 0.2451 0.43974 0.14348 0.0
C1572 C 0.23113 0.43559 0.1158 0.0
H1573 H 0.26451 0.42529 0.18198 0.0
H1574 H 0.25077 0.4568 0.15054 0.0
C1575 C 0.22424 0.41313 0.10756 0.0
C1576 C 0.43658 0.20992 0.17378 0.0
C1577 C 0.41769 0.22437 0.1739 0.0
H1578 H 0.46316 0.19635 0.14771 0.0
C1579 C 0.41013 0.23507 0.14645 0.0
H1580 H 0.44285 0.20163 0.1947 0.0
C1581 C 0.42166 0.23208 0.11983 0.0
C1582 C 0.44104 0.21837 0.12003 0.0
H1583 H 0.39571 0.2464 0.14593 0.0
H1584 H 0.41587 0.24112 0.09933 0.0
C1585 C 0.44809 0.20681 0.14694 0.0
C1586 C 0.79342 0.37366 0.09173 0.0
C1587 C 0.77473 0.36584 0.10618 0.0
H1588 H 0.80899 0.40152 0.07174 0.0
C1589 C 0.75821 0.38147 0.11464 0.0
H1590 H 0.80648 0.36198 0.08518 0.0
C1591 C 0.75987 0.40433 0.10766 0.0
C1592 C 0.77798 0.412 0.09173 0.0
H1593 H 0.74374 0.37593 0.12613 0.0
H1594 H 0.74675 0.41588 0.11432 0.0
C1595 C 0.79494 0.39642 0.08437 0.0
C1596 C 0.57333 0.77111 0.14932 0.0
C1597 C 0.59313 0.76223 0.13766 0.0
H1598 H 0.54155 0.78771 0.13854 0.0
C1599 C 0.59768 0.76675 0.10714 0.0
H1600 H 0.56926 0.76763 0.17262 0.0
C1601 C 0.58187 0.77827 0.08782 0.0
C1602 C 0.56132 0.78537 0.09877 0.0
H1603 H 0.6127 0.75993 0.09755 0.0
H1604 H 0.58478 0.77982 0.06358 0.0
C1605 C 0.55756 0.78272 0.12999 0.0
C1606 C 0.22434 0.62375 0.04667 0.0
C1607 C 0.20975 0.63572 0.06551 0.0
H1608 H 0.23632 0.59132 0.03101 0.0
C1609 C 0.19692 0.62337 0.08512 0.0
H1610 H 0.23483 0.63273 0.03186 0.0
C1611 C 0.19838 0.59967 0.0853 0.0
C1612 C 0.21206 0.58779 0.06521 0.0
H1613 H 0.18585 0.63191 0.10049 0.0
H1614 H 0.18902 0.59072 0.10145 0.0
C1615 C 0.2253 0.60008 0.04629 0.0
C1616 C 0.43581 0.7916 0.86322 0.0
C1617 C 0.41366 0.79048 0.87252 0.0
H1618 H 0.47117 0.79577 0.87787 0.0
C1619 C 0.41002 0.79573 0.90377 0.0
H1620 H 0.43911 0.78737 0.8394 0.0
C1621 C 0.42834 0.80049 0.92562 0.0
C1622 C 0.45048 0.80014 0.9165 0.0
H1623 H 0.39318 0.79471 0.9116 0.0
H1624 H 0.42539 0.80289 0.94995 0.0
C1625 C 0.4541 0.79649 0.88508 0.0
C1626 C 0.23501 0.44953 0.87827 0.0
C1627 C 0.24103 0.42746 0.88709 0.0
H1628 H 0.22737 0.48367 0.89369 0.0
C1629 C 0.2448 0.42322 0.9189 0.0
H1630 H 0.23231 0.45332 0.85393 0.0
C1631 C 0.24202 0.44046 0.94136 0.0
C1632 C 0.23587 0.46239 0.9325 0.0
H1633 H 0.2498 0.4065 0.92639 0.0
H1634 H 0.24457 0.43667 0.96574 0.0
C1635 C 0.23232 0.46685 0.90085 0.0
C1636 C 0.61094 0.25053 0.8996 0.0
C1637 C 0.62821 0.23448 0.90486 0.0
H1638 H 0.57694 0.26026 0.90679 0.0
C1639 C 0.62342 0.21445 0.91967 0.0
H1640 H 0.61413 0.26608 0.88816 0.0
C1641 C 0.60214 0.21117 0.93057 0.0
C1642 C 0.58531 0.22789 0.92689 0.0
H1643 H 0.63648 0.20183 0.92405 0.0
H1644 H 0.59934 0.1962 0.94347 0.0
C1645 C 0.58969 0.24722 0.91035 0.0
C1646 C 0.76884 0.60471 0.88715 0.0
C1647 C 0.78744 0.60384 0.86894 0.0
H1648 H 0.75363 0.59216 0.92617 0.0
C1649 C 0.80499 0.58846 0.87633 0.0
H1650 H 0.75483 0.61611 0.88188 0.0
C1651 C 0.80398 0.57418 0.90116 0.0
C1652 C 0.78546 0.57505 0.91955 0.0
H1653 H 0.81931 0.58715 0.86235 0.0
H1654 H 0.81751 0.56204 0.90533 0.0
C1655 C 0.76802 0.5907 0.91238 0.0
loop_
_geom_bond_atom_site_label_1
_geom_bond_atom_site_label_2
_geom_bond_distance
_geom_bond_site_symmetry_2
_ccdc_geom_bond_type
C0 C1 1.560 . S
C0 H61 0.959 . S
C0 H62 0.959 . S
C0 H63 0.960 . S
C1 C0 1.560 . S
C1 O56 1.426 . S
C1 H60 0.980 . S
C2 C3 1.407 . S
C2 C7 1.418 . S
C2 O56 1.334 . S
C3 C2 1.407 . S
C3 C4 1.360 . S
C3 H64 0.929 . S
C4 C3 1.360 . S
C4 C5 1.401 . S
C4 C8 1.527 . S
C5 C4 1.401 . S
C5 C6 1.405 . S
C5 C38 1.587 . S
C6 C5 1.405 . S
C6 C7 1.332 . S
C6 C9 1.496 . S
C7 C2 1.418 . S
C7 C6 1.332 . S
C7 H65 0.929 . S
C8 C4 1.527 . S
C8 H66 0.959 . S
C8 H67 0.961 . S
C8 H68 0.961 . S
C9 C6 1.496 . S
C9 H69 0.960 . S
C9 H70 0.960 . S
C9 H71 0.961 . S
C10 C11 1.517 . S
C10 H73 0.961 . S
C10 H74 0.960 . S
C10 H75 0.959 . S
C11 C10 1.517 . S
C11 O59 1.468 . S
C11 H72 0.980 . S
C12 C13 1.349 . S
C12 C17 1.367 . S
C12 O59 1.408 . S
C13 C12 1.349 . S
C13 C14 1.407 . S
C13 H76 0.930 . S
C14 C13 1.407 . S
C14 C15 1.449 . S
C14 C18 1.535 . S
C15 C14 1.449 . S
C15 C16 1.384 . S
C15 C40 1.553 . S
C16 C15 1.384 . S
C16 C17 1.364 . S
C16 C19 1.450 . S
C17 C12 1.367 . S
C17 C16 1.364 . S
C17 H77 0.931 . S
C18 C14 1.535 . S
C18 H78 0.959 . S
C18 H79 0.961 . S
C18 H80 0.959 . S
C19 C16 1.450 . S
C19 H81 0.960 . S
C19 H82 0.960 . S
C19 H83 0.960 . S
C20 C21 1.309 . S
C20 C25 1.304 . S
C20 O58 1.435 . S
C21 C20 1.309 . S
C21 C22 1.476 . S
C21 H85 0.930 . S
C22 C21 1.476 . S
C22 C23 1.400 . S
C22 C26 1.567 . S
C23 C22 1.400 . S
C23 C24 1.373 . S
C23 C45 1.432 . S
C24 C23 1.373 . S
C24 C25 1.339 . S
C24 C27 1.530 . S
C25 C20 1.304 . S
C25 C24 1.339 . S
C25 H86 0.930 . S
C26 C22 1.567 . S
C26 H87 0.961 . S
C26 H88 0.960 . S
C26 H89 0.958 . S
C27 C24 1.530 . S
C27 H90 0.961 . S
C27 H91 0.960 . S
C27 H92 0.960 . S
C28 C29 1.530 . S
C28 H94 0.961 . S
C28 H95 0.961 . S
C28 H96 0.959 . S
C29 C28 1.530 . S
C29 O57 1.412 . S
C29 H93 0.980 . S
C30 C31 1.288 . S
C30 C35 1.377 . S
C30 O57 1.393 . S
C31 C30 1.288 . S
C31 C32 1.369 . S
C31 H97 0.932 . S
C32 C31 1.369 . S
C32 C33 1.398 . S
C32 C36 1.527 . S
C33 C32 1.398 . S
C33 C34 1.380 . S
C33 C47 1.497 . S
C34 C33 1.380 . S
C34 C35 1.383 . S
C34 C37 1.603 . S
C35 C30 1.377 . S
C35 C34 1.383 . S
C35 H98 0.929 . S
C36 C32 1.527 . S
C36 H99 0.961 . S
C36 H100 0.959 . S
C36 H101 0.959 . S
C37 C34 1.603 . S
C37 H102 0.960 . S
C37 H103 0.962 . S
C37 H104 0.961 . S
C38 C5 1.587 . S
C38 C39 1.360 . S
C38 C51 1.412 . S
C39 C38 1.360 . S
C39 C40 1.365 . S
C39 H105 0.929 . S
C40 C15 1.553 . S
C40 C39 1.365 . S
C40 C41 1.404 . S
C41 C40 1.404 . S
C41 C42 1.395 . S
C41 C52 1.451 . S
C42 C41 1.395 . S
C42 C43 1.322 . S
C42 H106 0.930 . S
C43 C42 1.322 . S
C43 C44 1.459 . S
C43 H107 0.929 . S
C44 C43 1.459 . S
C44 C45 1.445 . S
C44 C53 1.395 . S
C45 C23 1.432 . S
C45 C44 1.445 . S
C45 C46 1.370 . S
C46 C45 1.370 . S
C46 C47 1.438 . S
C46 H108 0.930 . S
C47 C33 1.497 . S
C47 C46 1.438 . S
C47 C48 1.360 . S
C48 C47 1.360 . S
C48 C49 1.401 . S
C48 C53 1.446 . S
C49 C48 1.401 . S
C49 C50 1.347 . S
C49 H109 0.929 . S
C50 C49 1.347 . S
C50 C51 1.455 . S
C50 H110 0.930 . S
C51 C38 1.412 . S
C51 C50 1.455 . S
C51 C52 1.331 . S
C52 C41 1.451 . S
C52 C51 1.331 . S
C52 C53 1.497 . S
C53 C44 1.395 . S
C53 C48 1.446 . S
C53 C52 1.497 . S
C54 C55 1.582 . S
C54 H111 0.962 . S
C54 H112 0.959 . S
C54 H113 0.958 . S
C55 C54 1.582 . S
C55 O58 1.458 . S
C55 H84 0.980 . S
O56 C1 1.426 . S
O56 C2 1.334 . S
O57 C29 1.412 . S
O57 C30 1.393 . S
O58 C20 1.435 . S
O58 C55 1.458 . S
O59 C11 1.468 . S
O59 C12 1.408 . S
H60 C1 0.980 . S
H61 C0 0.959 . S
H62 C0 0.959 . S
H63 C0 0.960 . S
H64 C3 0.929 . S
H65 C7 0.929 . S
H66 C8 0.959 . S
H67 C8 0.961 . S
H68 C8 0.961 . S
H69 C9 0.960 . S
H70 C9 0.960 . S
H71 C9 0.961 . S
H72 C11 0.980 . S
H73 C10 0.961 . S
H74 C10 0.960 . S
H75 C10 0.959 . S
H76 C13 0.930 . S
H77 C17 0.931 . S
H78 C18 0.959 . S
H79 C18 0.961 . S
H80 C18 0.959 . S
H81 C19 0.960 . S
H82 C19 0.960 . S
H83 C19 0.960 . S
H84 C55 0.980 . S
H85 C21 0.930 . S
H86 C25 0.930 . S
H87 C26 0.961 . S
H88 C26 0.960 . S
H89 C26 0.958 . S
H90 C27 0.961 . S
H91 C27 0.960 . S
H92 C27 0.960 . S
H93 C29 0.980 . S
H94 C28 0.961 . S
H95 C28 0.961 . S
H96 C28 0.959 . S
H97 C31 0.932 . S
H98 C35 0.929 . S
H99 C36 0.961 . S
H100 C36 0.959 . S
H101 C36 0.959 . S
H102 C37 0.960 . S
H103 C37 0.962 . S
H104 C37 0.961 . S
H105 C39 0.929 . S
H106 C42 0.930 . S
H107 C43 0.929 . S
H108 C46 0.930 . S
H109 C49 0.929 . S
H110 C50 0.930 . S
H111 C54 0.962 . S
H112 C54 0.959 . S
H113 C54 0.958 . S
C114 C115 1.560 . S
C114 H175 0.959 . S
C114 H176 0.959 . S
C114 H177 0.960 . S
C115 C114 1.560 . S
C115 O170 1.426 . S
C115 H174 0.980 . S
C116 C117 1.407 . S
C116 C121 1.418 . S
C116 O170 1.334 . S
C117 C116 1.407 . S
C117 C118 1.360 . S
C117 H178 0.929 . S
C118 C117 1.360 . S
C118 C119 1.401 . S
C118 C122 1.527 . S
C119 C118 1.401 . S
C119 C120 1.405 . S
C119 C152 1.587 . S
C120 C119 1.405 . S
C120 C121 1.332 . S
C120 C123 1.496 . S
C121 C116 1.418 . S
C121 C120 1.332 . S
C121 H179 0.929 . S
C122 C118 1.527 . S
C122 H180 0.959 . S
C122 H181 0.961 . S
C122 H182 0.961 . S
C123 C120 1.496 . S
C123 H183 0.960 . S
C123 H184 0.960 . S
C123 H185 0.961 . S
C124 C125 1.517 . S
C124 H187 0.961 . S
C124 H188 0.960 . S
C124 H189 0.959 . S
C125 C124 1.517 . S
C125 O173 1.468 . S
C125 H186 0.980 . S
C126 C127 1.349 . S
C126 C131 1.367 . S
C126 O173 1.408 . S
C127 C126 1.349 . S
C127 C128 1.407 . S
C127 H190 0.930 . S
C128 C127 1.407 . S
C128 C129 1.449 . S
C128 C132 1.535 . S
C129 C128 1.449 . S
C129 C130 1.384 . S
C129 C154 1.553 . S
C130 C129 1.384 . S
C130 C131 1.364 . S
C130 C133 1.450 . S
C131 C126 1.367 . S
C131 C130 1.364 . S
C131 H191 0.931 . S
C132 C128 1.535 . S
C132 H192 0.959 . S
C132 H193 0.961 . S
C132 H194 0.959 . S
C133 C130 1.450 . S
C133 H195 0.960 . S
C133 H196 0.960 . S
C133 H197 0.960 . S
C134 C135 1.309 . S
C134 C139 1.304 . S
C134 O172 1.435 . S
C135 C134 1.309 . S
C135 C136 1.476 . S
C135 H199 0.930 . S
C136 C135 1.476 . S
C136 C137 1.400 . S
C136 C140 1.567 . S
C137 C136 1.400 . S
C137 C138 1.373 . S
C137 C159 1.432 . S
C138 C137 1.373 . S
C138 C139 1.339 . S
C138 C141 1.530 . S
C139 C134 1.304 . S
C139 C138 1.339 . S
C139 H200 0.930 . S
C140 C136 1.567 . S
C140 H201 0.961 . S
C140 H202 0.960 . S
C140 H203 0.958 . S
C141 C138 1.530 . S
C141 H204 0.961 . S
C141 H205 0.960 . S
C141 H206 0.960 . S
C142 C143 1.530 . S
C142 H208 0.961 . S
C142 H209 0.961 . S
C142 H210 0.959 . S
C143 C142 1.530 . S
C143 O171 1.412 . S
C143 H207 0.980 . S
C144 C145 1.288 . S
C144 C149 1.377 . S
C144 O171 1.393 . S
C145 C144 1.288 . S
C145 C146 1.369 . S
C145 H211 0.932 . S
C146 C145 1.369 . S
C146 C147 1.398 . S
C146 C150 1.527 . S
C147 C146 1.398 . S
C147 C148 1.380 . S
C147 C161 1.497 . S
C148 C147 1.380 . S
C148 C149 1.383 . S
C148 C151 1.603 . S
C149 C144 1.377 . S
C149 C148 1.383 . S
C149 H212 0.929 . S
C150 C146 1.527 . S
C150 H213 0.961 . S
C150 H214 0.959 . S
C150 H215 0.959 . S
C151 C148 1.603 . S
C151 H216 0.960 . S
C151 H217 0.962 . S
C151 H218 0.961 . S
C152 C119 1.587 . S
C152 C153 1.360 . S
C152 C165 1.412 . S
C153 C152 1.360 . S
C153 C154 1.365 . S
C153 H219 0.929 . S
C154 C129 1.553 . S
C154 C153 1.365 . S
C154 C155 1.404 . S
C155 C154 1.404 . S
C155 C156 1.395 . S
C155 C166 1.451 . S
C156 C155 1.395 . S
C156 C157 1.322 . S
C156 H220 0.930 . S
C157 C156 1.322 . S
C157 C158 1.459 . S
C157 H221 0.929 . S
C158 C157 1.459 . S
C158 C159 1.445 . S
C158 C167 1.395 . S
C159 C137 1.432 . S
C159 C158 1.445 . S
C159 C160 1.370 . S
C160 C159 1.370 . S
C160 C161 1.438 . S
C160 H222 0.930 . S
C161 C147 1.497 . S
C161 C160 1.438 . S
C161 C162 1.360 . S
C162 C161 1.360 . S
C162 C163 1.401 . S
C162 C167 1.446 . S
C163 C162 1.401 . S
C163 C164 1.347 . S
C163 H223 0.929 . S
C164 C163 1.347 . S
C164 C165 1.455 . S
C164 H224 0.930 . S
C165 C152 1.412 . S
C165 C164 1.455 . S
C165 C166 1.331 . S
C166 C155 1.451 . S
C166 C165 1.331 . S
C166 C167 1.497 . S
C167 C158 1.395 . S
C167 C162 1.446 . S
C167 C166 1.497 . S
C168 C169 1.582 . S
C168 H225 0.962 . S
C168 H226 0.959 . S
C168 H227 0.958 . S
C169 C168 1.582 . S
C169 O172 1.458 . S
C169 H198 0.980 . S
O170 C115 1.426 . S
O170 C116 1.334 . S
O171 C143 1.412 . S
O171 C144 1.393 . S
O172 C134 1.435 . S
O172 C169 1.458 . S
O173 C125 1.468 . S
O173 C126 1.408 . S
H174 C115 0.980 . S
H175 C114 0.959 . S
H176 C114 0.959 . S
H177 C114 0.960 . S
H178 C117 0.929 . S
H179 C121 0.929 . S
H180 C122 0.959 . S
H181 C122 0.961 . S
H182 C122 0.961 . S
H183 C123 0.960 . S
H184 C123 0.960 . S
H185 C123 0.961 . S
H186 C125 0.980 . S
H187 C124 0.961 . S
H188 C124 0.960 . S
H189 C124 0.959 . S
H190 C127 0.930 . S
H191 C131 0.931 . S
H192 C132 0.959 . S
H193 C132 0.961 . S
H194 C132 0.959 . S
H195 C133 0.960 . S
H196 C133 0.960 . S
H197 C133 0.960 . S
H198 C169 0.980 . S
H199 C135 0.930 . S
H200 C139 0.930 . S
H201 C140 0.961 . S
H202 C140 0.960 . S
H203 C140 0.958 . S
H204 C141 0.961 . S
H205 C141 0.960 . S
H206 C141 0.960 . S
H207 C143 0.980 . S
H208 C142 0.961 . S
H209 C142 0.961 . S
H210 C142 0.959 . S
H211 C145 0.932 . S
H212 C149 0.929 . S
H213 C150 0.961 . S
H214 C150 0.959 . S
H215 C150 0.959 . S
H216 C151 0.960 . S
H217 C151 0.962 . S
H218 C151 0.961 . S
H219 C153 0.929 . S
H220 C156 0.930 . S
H221 C157 0.929 . S
H222 C160 0.930 . S
H223 C163 0.929 . S
H224 C164 0.930 . S
H225 C168 0.962 . S
H226 C168 0.959 . S
H227 C168 0.958 . S
C228 C229 1.560 . S
C228 H289 0.959 . S
C228 H290 0.959 . S
C228 H291 0.960 . S
C229 C228 1.560 . S
C229 O284 1.426 . S
C229 H288 0.980 . S
C230 C231 1.407 . S
C230 C235 1.418 . S
C230 O284 1.334 . S
C231 C230 1.407 . S
C231 C232 1.360 . S
C231 H292 0.929 . S
C232 C231 1.360 . S
C232 C233 1.401 . S
C232 C236 1.527 . S
C233 C232 1.401 . S
C233 C234 1.405 . S
C233 C266 1.587 . S
C234 C233 1.405 . S
C234 C235 1.332 . S
C234 C237 1.496 . S
C235 C230 1.418 . S
C235 C234 1.332 . S
C235 H293 0.929 . S
C236 C232 1.527 . S
C236 H294 0.959 . S
C236 H295 0.961 . S
C236 H296 0.961 . S
C237 C234 1.496 . S
C237 H297 0.960 . S
C237 H298 0.960 . S
C237 H299 0.961 . S
C238 C239 1.517 . S
C238 H301 0.961 . S
C238 H302 0.960 . S
C238 H303 0.959 . S
C239 C238 1.517 . S
C239 O287 1.468 . S
C239 H300 0.980 . S
C240 C241 1.349 . S
C240 C245 1.367 . S
C240 O287 1.408 . S
C241 C240 1.349 . S
C241 C242 1.407 . S
C241 H304 0.930 . S
C242 C241 1.407 . S
C242 C243 1.449 . S
C242 C246 1.535 . S
C243 C242 1.449 . S
C243 C244 1.384 . S
C243 C268 1.553 . S
C244 C243 1.384 . S
C244 C245 1.364 . S
C244 C247 1.450 . S
C245 C240 1.367 . S
C245 C244 1.364 . S
C245 H305 0.931 . S
C246 C242 1.535 . S
C246 H306 0.959 . S
C246 H307 0.961 . S
C246 H308 0.959 . S
C247 C244 1.450 . S
C247 H309 0.960 . S
C247 H310 0.960 . S
C247 H311 0.960 . S
C248 C249 1.309 . S
C248 C253 1.304 . S
C248 O286 1.435 . S
C249 C248 1.309 . S
C249 C250 1.476 . S
C249 H313 0.930 . S
C250 C249 1.476 . S
C250 C251 1.400 . S
C250 C254 1.567 . S
C251 C250 1.400 . S
C251 C252 1.373 . S
C251 C273 1.432 . S
C252 C251 1.373 . S
C252 C253 1.339 . S
C252 C255 1.530 . S
C253 C248 1.304 . S
C253 C252 1.339 . S
C253 H314 0.930 . S
C254 C250 1.567 . S
C254 H315 0.961 . S
C254 H316 0.960 . S
C254 H317 0.958 . S
C255 C252 1.530 . S
C255 H318 0.961 . S
C255 H319 0.960 . S
C255 H320 0.960 . S
C256 C257 1.530 . S
C256 H322 0.961 . S
C256 H323 0.961 . S
C256 H324 0.959 . S
C257 C256 1.530 . S
C257 O285 1.412 . S
C257 H321 0.980 . S
C258 C259 1.288 . S
C258 C263 1.377 . S
C258 O285 1.393 . S
C259 C258 1.288 . S
C259 C260 1.369 . S
C259 H325 0.932 . S
C260 C259 1.369 . S
C260 C261 1.398 . S
C260 C264 1.527 . S
C261 C260 1.398 . S
C261 C262 1.380 . S
C261 C275 1.497 . S
C262 C261 1.380 . S
C262 C263 1.383 . S
C262 C265 1.603 . S
C263 C258 1.377 . S
C263 C262 1.383 . S
C263 H326 0.929 . S
C264 C260 1.527 . S
C264 H327 0.961 . S
C264 H328 0.959 . S
C264 H329 0.959 . S
C265 C262 1.603 . S
C265 H330 0.960 . S
C265 H331 0.962 . S
C265 H332 0.961 . S
C266 C233 1.587 . S
C266 C267 1.360 . S
C266 C279 1.412 . S
C267 C266 1.360 . S
C267 C268 1.365 . S
C267 H333 0.929 . S
C268 C243 1.553 . S
C268 C267 1.365 . S
C268 C269 1.404 . S
C269 C268 1.404 . S
C269 C270 1.395 . S
C269 C280 1.451 . S
C270 C269 1.395 . S
C270 C271 1.322 . S
C270 H334 0.930 . S
C271 C270 1.322 . S
C271 C272 1.459 . S
C271 H335 0.929 . S
C272 C271 1.459 . S
C272 C273 1.445 . S
C272 C281 1.395 . S
C273 C251 1.432 . S
C273 C272 1.445 . S
C273 C274 1.370 . S
C274 C273 1.370 . S
C274 C275 1.438 . S
C274 H336 0.930 . S
C275 C261 1.497 . S
C275 C274 1.438 . S
C275 C276 1.360 . S
C276 C275 1.360 . S
C276 C277 1.401 . S
C276 C281 1.446 . S
C277 C276 1.401 . S
C277 C278 1.347 . S
C277 H337 0.929 . S
C278 C277 1.347 . S
C278 C279 1.455 . S
C278 H338 0.930 . S
C279 C266 1.412 . S
C279 C278 1.455 . S
C279 C280 1.331 . S
C280 C269 1.451 . S
C280 C279 1.331 . S
C280 C281 1.497 . S
C281 C272 1.395 . S
C281 C276 1.446 . S
C281 C280 1.497 . S
C282 C283 1.582 . S
C282 H339 0.962 . S
C282 H340 0.959 . S
C282 H341 0.958 . S
C283 C282 1.582 . S
C283 O286 1.458 . S
C283 H312 0.980 . S
O284 C229 1.426 . S
O284 C230 1.334 . S
O285 C257 1.412 . S
O285 C258 1.393 . S
O286 C248 1.435 . S
O286 C283 1.458 . S
O287 C239 1.468 . S
O287 C240 1.408 . S
H288 C229 0.980 . S
H289 C228 0.959 . S
H290 C228 0.959 . S
H291 C228 0.960 . S
H292 C231 0.929 . S
H293 C235 0.929 . S
H294 C236 0.959 . S
H295 C236 0.961 . S
H296 C236 0.961 . S
H297 C237 0.960 . S
H298 C237 0.960 . S
H299 C237 0.961 . S
H300 C239 0.980 . S
H301 C238 0.961 . S
H302 C238 0.960 . S
H303 C238 0.959 . S
H304 C241 0.930 . S
H305 C245 0.931 . S
H306 C246 0.959 . S
H307 C246 0.961 . S
H308 C246 0.959 . S
H309 C247 0.960 . S
H310 C247 0.960 . S
H311 C247 0.960 . S
H312 C283 0.980 . S
H313 C249 0.930 . S
H314 C253 0.930 . S
H315 C254 0.961 . S
H316 C254 0.960 . S
H317 C254 0.958 . S
H318 C255 0.961 . S
H319 C255 0.960 . S
H320 C255 0.960 . S
H321 C257 0.980 . S
H322 C256 0.961 . S
H323 C256 0.961 . S
H324 C256 0.959 . S
H325 C259 0.932 . S
H326 C263 0.929 . S
H327 C264 0.961 . S
H328 C264 0.959 . S
H329 C264 0.959 . S
H330 C265 0.960 . S
H331 C265 0.962 . S
H332 C265 0.961 . S
H333 C267 0.929 . S
H334 C270 0.930 . S
H335 C271 0.929 . S
H336 C274 0.930 . S
H337 C277 0.929 . S
H338 C278 0.930 . S
H339 C282 0.962 . S
H340 C282 0.959 . S
H341 C282 0.958 . S
C342 C343 1.560 . S
C342 H403 0.959 . S
C342 H404 0.959 . S
C342 H405 0.960 . S
C343 C342 1.560 . S
C343 O398 1.426 . S
C343 H402 0.980 . S
C344 C345 1.407 . S
C344 C349 1.418 . S
C344 O398 1.334 . S
C345 C344 1.407 . S
C345 C346 1.360 . S
C345 H406 0.929 . S
C346 C345 1.360 . S
C346 C347 1.401 . S
C346 C350 1.527 . S
C347 C346 1.401 . S
C347 C348 1.405 . S
C347 C380 1.587 . S
C348 C347 1.405 . S
C348 C349 1.332 . S
C348 C351 1.496 . S
C349 C344 1.418 . S
C349 C348 1.332 . S
C349 H407 0.929 . S
C350 C346 1.527 . S
C350 H408 0.959 . S
C350 H409 0.961 . S
C350 H410 0.961 . S
C351 C348 1.496 . S
C351 H411 0.960 . S
C351 H412 0.960 . S
C351 H413 0.961 . S
C352 C353 1.517 . S
C352 H415 0.961 . S
C352 H416 0.960 . S
C352 H417 0.959 . S
C353 C352 1.517 . S
C353 O401 1.468 . S
C353 H414 0.980 . S
C354 C355 1.349 . S
C354 C359 1.367 . S
C354 O401 1.408 . S
C355 C354 1.349 . S
C355 C356 1.407 . S
C355 H418 0.930 . S
C356 C355 1.407 . S
C356 C357 1.449 . S
C356 C360 1.535 . S
C357 C356 1.449 . S
C357 C358 1.384 . S
C357 C382 1.553 . S
C358 C357 1.384 . S
C358 C359 1.364 . S
C358 C361 1.450 . S
C359 C354 1.367 . S
C359 C358 1.364 . S
C359 H419 0.931 . S
C360 C356 1.535 . S
C360 H420 0.959 . S
C360 H421 0.961 . S
C360 H422 0.959 . S
C361 C358 1.450 . S
C361 H423 0.960 . S
C361 H424 0.960 . S
C361 H425 0.960 . S
C362 C363 1.309 . S
C362 C367 1.304 . S
C362 O400 1.435 . S
C363 C362 1.309 . S
C363 C364 1.476 . S
C363 H427 0.930 . S
C364 C363 1.476 . S
C364 C365 1.400 . S
C364 C368 1.567 . S
C365 C364 1.400 . S
C365 C366 1.373 . S
C365 C387 1.432 . S
C366 C365 1.373 . S
C366 C367 1.339 . S
C366 C369 1.530 . S
C367 C362 1.304 . S
C367 C366 1.339 . S
C367 H428 0.930 . S
C368 C364 1.567 . S
C368 H429 0.961 . S
C368 H430 0.960 . S
C368 H431 0.958 . S
C369 C366 1.530 . S
C369 H432 0.961 . S
C369 H433 0.960 . S
C369 H434 0.960 . S
C370 C371 1.530 . S
C370 H436 0.961 . S
C370 H437 0.961 . S
C370 H438 0.959 . S
C371 C370 1.530 . S
C371 O399 1.412 . S
C371 H435 0.980 . S
C372 C373 1.288 . S
C372 C377 1.377 . S
C372 O399 1.393 . S
C373 C372 1.288 . S
C373 C374 1.369 . S
C373 H439 0.932 . S
C374 C373 1.369 . S
C374 C375 1.398 . S
C374 C378 1.527 . S
C375 C374 1.398 . S
C375 C376 1.380 . S
C375 C389 1.497 . S
C376 C375 1.380 . S
C376 C377 1.383 . S
C376 C379 1.603 . S
C377 C372 1.377 . S
C377 C376 1.383 . S
C377 H440 0.929 . S
C378 C374 1.527 . S
C378 H441 0.961 . S
C378 H442 0.959 . S
C378 H443 0.959 . S
C379 C376 1.603 . S
C379 H444 0.960 . S
C379 H445 0.962 . S
C379 H446 0.961 . S
C380 C347 1.587 . S
C380 C381 1.360 . S
C380 C393 1.412 . S
C381 C380 1.360 . S
C381 C382 1.365 . S
C381 H447 0.929 . S
C382 C357 1.553 . S
C382 C381 1.365 . S
C382 C383 1.404 . S
C383 C382 1.404 . S
C383 C384 1.395 . S
C383 C394 1.451 . S
C384 C383 1.395 . S
C384 C385 1.322 . S
C384 H448 0.930 . S
C385 C384 1.322 . S
C385 C386 1.459 . S
C385 H449 0.929 . S
C386 C385 1.459 . S
C386 C387 1.445 . S
C386 C395 1.395 . S
C387 C365 1.432 . S
C387 C386 1.445 . S
C387 C388 1.370 . S
C388 C387 1.370 . S
C388 C389 1.438 . S
C388 H450 0.930 . S
C389 C375 1.497 . S
C389 C388 1.438 . S
C389 C390 1.360 . S
C390 C389 1.360 . S
C390 C391 1.401 . S
C390 C395 1.446 . S
C391 C390 1.401 . S
C391 C392 1.347 . S
C391 H451 0.929 . S
C392 C391 1.347 . S
C392 C393 1.455 . S
C392 H452 0.930 . S
C393 C380 1.412 . S
C393 C392 1.455 . S
C393 C394 1.331 . S
C394 C383 1.451 . S
C394 C393 1.331 . S
C394 C395 1.497 . S
C395 C386 1.395 . S
C395 C390 1.446 . S
C395 C394 1.497 . S
C396 C397 1.582 . S
C396 H453 0.962 . S
C396 H454 0.959 . S
C396 H455 0.958 . S
C397 C396 1.582 . S
C397 O400 1.458 . S
C397 H426 0.980 . S
O398 C343 1.426 . S
O398 C344 1.334 . S
O399 C371 1.412 . S
O399 C372 1.393 . S
O400 C362 1.435 . S
O400 C397 1.458 . S
O401 C353 1.468 . S
O401 C354 1.408 . S
H402 C343 0.980 . S
H403 C342 0.959 . S
H404 C342 0.959 . S
H405 C342 0.960 . S
H406 C345 0.929 . S
H407 C349 0.929 . S
H408 C350 0.959 . S
H409 C350 0.961 . S
H410 C350 0.961 . S
H411 C351 0.960 . S
H412 C351 0.960 . S
H413 C351 0.961 . S
H414 C353 0.980 . S
H415 C352 0.961 . S
H416 C352 0.960 . S
H417 C352 0.959 . S
H418 C355 0.930 . S
H419 C359 0.931 . S
H420 C360 0.959 . S
H421 C360 0.961 . S
H422 C360 0.959 . S
H423 C361 0.960 . S
H424 C361 0.960 . S
H425 C361 0.960 . S
H426 C397 0.980 . S
H427 C363 0.930 . S
H428 C367 0.930 . S
H429 C368 0.961 . S
H430 C368 0.960 . S
H431 C368 0.958 . S
H432 C369 0.961 . S
H433 C369 0.960 . S
H434 C369 0.960 . S
H435 C371 0.980 . S
H436 C370 0.961 . S
H437 C370 0.961 . S
H438 C370 0.959 . S
H439 C373 0.932 . S
H440 C377 0.929 . S
H441 C378 0.961 . S
H442 C378 0.959 . S
H443 C378 0.959 . S
H444 C379 0.960 . S
H445 C379 0.962 . S
H446 C379 0.961 . S
H447 C381 0.929 . S
H448 C384 0.930 . S
H449 C385 0.929 . S
H450 C388 0.930 . S
H451 C391 0.929 . S
H452 C392 0.930 . S
H453 C396 0.962 . S
H454 C396 0.959 . S
H455 C396 0.958 . S
C456 C457 1.560 . S
C456 H517 0.959 . S
C456 H518 0.959 . S
C456 H519 0.960 . S
C457 C456 1.560 . S
C457 O512 1.426 . S
C457 H516 0.980 . S
C458 C459 1.407 . S
C458 C463 1.418 . S
C458 O512 1.334 . S
C459 C458 1.407 . S
C459 C460 1.360 . S
C459 H520 0.929 . S
C460 C459 1.360 . S
C460 C461 1.401 . S
C460 C464 1.527 . S
C461 C460 1.401 . S
C461 C462 1.405 . S
C461 C494 1.587 . S
C462 C461 1.405 . S
C462 C463 1.332 . S
C462 C465 1.496 . S
C463 C458 1.418 . S
C463 C462 1.332 . S
C463 H521 0.929 . S
C464 C460 1.527 . S
C464 H522 0.959 . S
C464 H523 0.961 . S
C464 H524 0.961 . S
C465 C462 1.496 . S
C465 H525 0.960 . S
C465 H526 0.960 . S
C465 H527 0.961 . S
C466 C467 1.517 . S
C466 H529 0.961 . S
C466 H530 0.960 . S
C466 H531 0.959 . S
C467 C466 1.517 . S
C467 O515 1.468 . S
C467 H528 0.980 . S
C468 C469 1.349 . S
C468 C473 1.367 . S
C468 O515 1.408 . S
C469 C468 1.349 . S
C469 C470 1.407 . S
C469 H532 0.930 . S
C470 C469 1.407 . S
C470 C471 1.449 . S
C470 C474 1.535 . S
C471 C470 1.449 . S
C471 C472 1.384 . S
C471 C496 1.553 . S
C472 C471 1.384 . S
C472 C473 1.364 . S
C472 C475 1.450 . S
C473 C468 1.367 . S
C473 C472 1.364 . S
C473 H533 0.931 . S
C474 C470 1.535 . S
C474 H534 0.959 . S
C474 H535 0.961 . S
C474 H536 0.959 . S
C475 C472 1.450 . S
C475 H537 0.960 . S
C475 H538 0.960 . S
C475 H539 0.960 . S
C476 C477 1.309 . S
C476 C481 1.304 . S
C476 O514 1.435 . S
C477 C476 1.309 . S
C477 C478 1.476 . S
C477 H541 0.930 . S
C478 C477 1.476 . S
C478 C479 1.400 . S
C478 C482 1.567 . S
C479 C478 1.400 . S
C479 C480 1.373 . S
C479 C501 1.432 . S
C480 C479 1.373 . S
C480 C481 1.339 . S
C480 C483 1.530 . S
C481 C476 1.304 . S
C481 C480 1.339 . S
C481 H542 0.930 . S
C482 C478 1.567 . S
C482 H543 0.961 . S
C482 H544 0.960 . S
C482 H545 0.958 . S
C483 C480 1.530 . S
C483 H546 0.961 . S
C483 H547 0.960 . S
C483 H548 0.960 . S
C484 C485 1.530 . S
C484 H550 0.961 . S
C484 H551 0.961 . S
C484 H552 0.959 . S
C485 C484 1.530 . S
C485 O513 1.412 . S
C485 H549 0.980 . S
C486 C487 1.288 . S
C486 C491 1.377 . S
C486 O513 1.393 . S
C487 C486 1.288 . S
C487 C488 1.369 . S
C487 H553 0.932 . S
C488 C487 1.369 . S
C488 C489 1.398 . S
C488 C492 1.527 . S
C489 C488 1.398 . S
C489 C490 1.380 . S
C489 C503 1.497 . S
C490 C489 1.380 . S
C490 C491 1.383 . S
C490 C493 1.603 . S
C491 C486 1.377 . S
C491 C490 1.383 . S
C491 H554 0.929 . S
C492 C488 1.527 . S
C492 H555 0.961 . S
C492 H556 0.959 . S
C492 H557 0.959 . S
C493 C490 1.603 . S
C493 H558 0.960 . S
C493 H559 0.962 . S
C493 H560 0.961 . S
C494 C461 1.587 . S
C494 C495 1.360 . S
C494 C507 1.412 . S
C495 C494 1.360 . S
C495 C496 1.365 . S
C495 H561 0.929 . S
C496 C471 1.553 . S
C496 C495 1.365 . S
C496 C497 1.404 . S
C497 C496 1.404 . S
C497 C498 1.395 . S
C497 C508 1.451 . S
C498 C497 1.395 . S
C498 C499 1.322 . S
C498 H562 0.930 . S
C499 C498 1.322 . S
C499 C500 1.459 . S
C499 H563 0.929 . S
C500 C499 1.459 . S
C500 C501 1.445 . S
C500 C509 1.395 . S
C501 C479 1.432 . S
C501 C500 1.445 . S
C501 C502 1.370 . S
C502 C501 1.370 . S
C502 C503 1.438 . S
C502 H564 0.930 . S
C503 C489 1.497 . S
C503 C502 1.438 . S
C503 C504 1.360 . S
C504 C503 1.360 . S
C504 C505 1.401 . S
C504 C509 1.446 . S
C505 C504 1.401 . S
C505 C506 1.347 . S
C505 H565 0.929 . S
C506 C505 1.347 . S
C506 C507 1.455 . S
C506 H566 0.930 . S
C507 C494 1.412 . S
C507 C506 1.455 . S
C507 C508 1.331 . S
C508 C497 1.451 . S
C508 C507 1.331 . S
C508 C509 1.497 . S
C509 C500 1.395 . S
C509 C504 1.446 . S
C509 C508 1.497 . S
C510 C511 1.582 . S
C510 H567 0.962 . S
C510 H568 0.959 . S
C510 H569 0.958 . S
C511 C510 1.582 . S
C511 O514 1.458 . S
C511 H540 0.980 . S
O512 C457 1.426 . S
O512 C458 1.334 . S
O513 C485 1.412 . S
O513 C486 1.393 . S
O514 C476 1.435 . S
O514 C511 1.458 . S
O515 C467 1.468 . S
O515 C468 1.408 . S
H516 C457 0.980 . S
H517 C456 0.959 . S
H518 C456 0.959 . S
H519 C456 0.960 . S
H520 C459 0.929 . S
H521 C463 0.929 . S
H522 C464 0.959 . S
H523 C464 0.961 . S
H524 C464 0.961 . S
H525 C465 0.960 . S
H526 C465 0.960 . S
H527 C465 0.961 . S
H528 C467 0.980 . S
H529 C466 0.961 . S
H530 C466 0.960 . S
H531 C466 0.959 . S
H532 C469 0.930 . S
H533 C473 0.931 . S
H534 C474 0.959 . S
H535 C474 0.961 . S
H536 C474 0.959 . S
H537 C475 0.960 . S
H538 C475 0.960 . S
H539 C475 0.960 . S
H540 C511 0.980 . S
H541 C477 0.930 . S
H542 C481 0.930 . S
H543 C482 0.961 . S
H544 C482 0.960 . S
H545 C482 0.958 . S
H546 C483 0.961 . S
H547 C483 0.960 . S
H548 C483 0.960 . S
H549 C485 0.980 . S
H550 C484 0.961 . S
H551 C484 0.961 . S
H552 C484 0.959 . S
H553 C487 0.932 . S
H554 C491 0.929 . S
H555 C492 0.961 . S
H556 C492 0.959 . S
H557 C492 0.959 . S
H558 C493 0.960 . S
H559 C493 0.962 . S
H560 C493 0.961 . S
H561 C495 0.929 . S
H562 C498 0.930 . S
H563 C499 0.929 . S
H564 C502 0.930 . S
H565 C505 0.929 . S
H566 C506 0.930 . S
H567 C510 0.962 . S
H568 C510 0.959 . S
H569 C510 0.958 . S
C570 C571 1.560 . S
C570 H631 0.959 . S
C570 H632 0.959 . S
C570 H633 0.960 . S
C571 C570 1.560 . S
C571 O626 1.426 . S
C571 H630 0.980 . S
C572 C573 1.407 . S
C572 C577 1.418 . S
C572 O626 1.334 . S
C573 C572 1.407 . S
C573 C574 1.360 . S
C573 H634 0.929 . S
C574 C573 1.360 . S
C574 C575 1.401 . S
C574 C578 1.527 . S
C575 C574 1.401 . S
C575 C576 1.405 . S
C575 C608 1.587 . S
C576 C575 1.405 . S
C576 C577 1.332 . S
C576 C579 1.496 . S
C577 C572 1.418 . S
C577 C576 1.332 . S
C577 H635 0.929 . S
C578 C574 1.527 . S
C578 H636 0.959 . S
C578 H637 0.961 . S
C578 H638 0.961 . S
C579 C576 1.496 . S
C579 H639 0.960 . S
C579 H640 0.960 . S
C579 H641 0.961 . S
C580 C581 1.517 . S
C580 H643 0.961 . S
C580 H644 0.960 . S
C580 H645 0.959 . S
C581 C580 1.517 . S
C581 O629 1.468 . S
C581 H642 0.980 . S
C582 C583 1.349 . S
C582 C587 1.367 . S
C582 O629 1.408 . S
C583 C582 1.349 . S
C583 C584 1.407 . S
C583 H646 0.930 . S
C584 C583 1.407 . S
C584 C585 1.449 . S
C584 C588 1.535 . S
C585 C584 1.449 . S
C585 C586 1.384 . S
C585 C610 1.553 . S
C586 C585 1.384 . S
C586 C587 1.364 . S
C586 C589 1.450 . S
C587 C582 1.367 . S
C587 C586 1.364 . S
C587 H647 0.931 . S
C588 C584 1.535 . S
C588 H648 0.959 . S
C588 H649 0.961 . S
C588 H650 0.959 . S
C589 C586 1.450 . S
C589 H651 0.960 . S
C589 H652 0.960 . S
C589 H653 0.960 . S
C590 C591 1.309 . S
C590 C595 1.304 . S
C590 O628 1.435 . S
C591 C590 1.309 . S
C591 C592 1.476 . S
C591 H655 0.930 . S
C592 C591 1.476 . S
C592 C593 1.400 . S
C592 C596 1.567 . S
C593 C592 1.400 . S
C593 C594 1.373 . S
C593 C615 1.432 . S
C594 C593 1.373 . S
C594 C595 1.339 . S
C594 C597 1.530 . S
C595 C590 1.304 . S
C595 C594 1.339 . S
C595 H656 0.930 . S
C596 C592 1.567 . S
C596 H657 0.961 . S
C596 H658 0.960 . S
C596 H659 0.958 . S
C597 C594 1.530 . S
C597 H660 0.961 . S
C597 H661 0.960 . S
C597 H662 0.960 . S
C598 C599 1.530 . S
C598 H664 0.961 . S
C598 H665 0.961 . S
C598 H666 0.959 . S
C599 C598 1.530 . S
C599 O627 1.412 . S
C599 H663 0.980 . S
C600 C601 1.288 . S
C600 C605 1.377 . S
C600 O627 1.393 . S
C601 C600 1.288 . S
C601 C602 1.369 . S
C601 H667 0.932 . S
C602 C601 1.369 . S
C602 C603 1.398 . S
C602 C606 1.527 . S
C603 C602 1.398 . S
C603 C604 1.380 . S
C603 C617 1.497 . S
C604 C603 1.380 . S
C604 C605 1.383 . S
C604 C607 1.603 . S
C605 C600 1.377 . S
C605 C604 1.383 . S
C605 H668 0.929 . S
C606 C602 1.527 . S
C606 H669 0.961 . S
C606 H670 0.959 . S
C606 H671 0.959 . S
C607 C604 1.603 . S
C607 H672 0.960 . S
C607 H673 0.962 . S
C607 H674 0.961 . S
C608 C575 1.587 . S
C608 C609 1.360 . S
C608 C621 1.412 . S
C609 C608 1.360 . S
C609 C610 1.365 . S
C609 H675 0.929 . S
C610 C585 1.553 . S
C610 C609 1.365 . S
C610 C611 1.404 . S
C611 C610 1.404 . S
C611 C612 1.395 . S
C611 C622 1.451 . S
C612 C611 1.395 . S
C612 C613 1.322 . S
C612 H676 0.930 . S
C613 C612 1.322 . S
C613 C614 1.459 . S
C613 H677 0.929 . S
C614 C613 1.459 . S
C614 C615 1.445 . S
C614 C623 1.395 . S
C615 C593 1.432 . S
C615 C614 1.445 . S
C615 C616 1.370 . S
C616 C615 1.370 . S
C616 C617 1.438 . S
C616 H678 0.930 . S
C617 C603 1.497 . S
C617 C616 1.438 . S
C617 C618 1.360 . S
C618 C617 1.360 . S
C618 C619 1.401 . S
C618 C623 1.446 . S
C619 C618 1.401 . S
C619 C620 1.347 . S
C619 H679 0.929 . S
C620 C619 1.347 . S
C620 C621 1.455 . S
C620 H680 0.930 . S
C621 C608 1.412 . S
C621 C620 1.455 . S
C621 C622 1.331 . S
C622 C611 1.451 . S
C622 C621 1.331 . S
C622 C623 1.497 . S
C623 C614 1.395 . S
C623 C618 1.446 . S
C623 C622 1.497 . S
C624 C625 1.582 . S
C624 H681 0.962 . S
C624 H682 0.959 . S
C624 H683 0.958 . S
C625 C624 1.582 . S
C625 O628 1.458 . S
C625 H654 0.980 . S
O626 C571 1.426 . S
O626 C572 1.334 . S
O627 C599 1.412 . S
O627 C600 1.393 . S
O628 C590 1.435 . S
O628 C625 1.458 . S
O629 C581 1.468 . S
O629 C582 1.408 . S
H630 C571 0.980 . S
H631 C570 0.959 . S
H632 C570 0.959 . S
H633 C570 0.960 . S
H634 C573 0.929 . S
H635 C577 0.929 . S
H636 C578 0.959 . S
H637 C578 0.961 . S
H638 C578 0.961 . S
H639 C579 0.960 . S
H640 C579 0.960 . S
H641 C579 0.961 . S
H642 C581 0.980 . S
H643 C580 0.961 . S
H644 C580 0.960 . S
H645 C580 0.959 . S
H646 C583 0.930 . S
H647 C587 0.931 . S
H648 C588 0.959 . S
H649 C588 0.961 . S
H650 C588 0.959 . S
H651 C589 0.960 . S
H652 C589 0.960 . S
H653 C589 0.960 . S
H654 C625 0.980 . S
H655 C591 0.930 . S
H656 C595 0.930 . S
H657 C596 0.961 . S
H658 C596 0.960 . S
H659 C596 0.958 . S
H660 C597 0.961 . S
H661 C597 0.960 . S
H662 C597 0.960 . S
H663 C599 0.980 . S
H664 C598 0.961 . S
H665 C598 0.961 . S
H666 C598 0.959 . S
H667 C601 0.932 . S
H668 C605 0.929 . S
H669 C606 0.961 . S
H670 C606 0.959 . S
H671 C606 0.959 . S
H672 C607 0.960 . S
H673 C607 0.962 . S
H674 C607 0.961 . S
H675 C609 0.929 . S
H676 C612 0.930 . S
H677 C613 0.929 . S
H678 C616 0.930 . S
H679 C619 0.929 . S
H680 C620 0.930 . S
H681 C624 0.962 . S
H682 C624 0.959 . S
H683 C624 0.958 . S
C684 C685 1.560 . S
C684 H745 0.959 . S
C684 H746 0.959 . S
C684 H747 0.960 . S
C685 C684 1.560 . S
C685 O740 1.426 . S
C685 H744 0.980 . S
C686 C687 1.407 . S
C686 C691 1.418 . S
C686 O740 1.334 . S
C687 C686 1.407 . S
C687 C688 1.360 . S
C687 H748 0.929 . S
C688 C687 1.360 . S
C688 C689 1.401 . S
C688 C692 1.527 . S
C689 C688 1.401 . S
C689 C690 1.405 . S
C689 C722 1.587 . S
C690 C689 1.405 . S
C690 C691 1.332 . S
C690 C693 1.496 . S
C691 C686 1.418 . S
C691 C690 1.332 . S
C691 H749 0.929 . S
C692 C688 1.527 . S
C692 H750 0.959 . S
C692 H751 0.961 . S
C692 H752 0.961 . S
C693 C690 1.496 . S
C693 H753 0.960 . S
C693 H754 0.960 . S
C693 H755 0.961 . S
C694 C695 1.517 . S
C694 H757 0.961 . S
C694 H758 0.960 . S
C694 H759 0.959 . S
C695 C694 1.517 . S
C695 O743 1.468 . S
C695 H756 0.980 . S
C696 C697 1.349 . S
C696 C701 1.367 . S
C696 O743 1.408 . S
C697 C696 1.349 . S
C697 C698 1.407 . S
C697 H760 0.930 . S
C698 C697 1.407 . S
C698 C699 1.449 . S
C698 C702 1.535 . S
C699 C698 1.449 . S
C699 C700 1.384 . S
C699 C724 1.553 . S
C700 C699 1.384 . S
C700 C701 1.364 . S
C700 C703 1.450 . S
C701 C696 1.367 . S
C701 C700 1.364 . S
C701 H761 0.931 . S
C702 C698 1.535 . S
C702 H762 0.959 . S
C702 H763 0.961 . S
C702 H764 0.959 . S
C703 C700 1.450 . S
C703 H765 0.960 . S
C703 H766 0.960 . S
C703 H767 0.960 . S
C704 C705 1.309 . S
C704 C709 1.304 . S
C704 O742 1.435 . S
C705 C704 1.309 . S
C705 C706 1.476 . S
C705 H769 0.930 . S
C706 C705 1.476 . S
C706 C707 1.400 . S
C706 C710 1.567 . S
C707 C706 1.400 . S
C707 C708 1.373 . S
C707 C729 1.432 . S
C708 C707 1.373 . S
C708 C709 1.339 . S
C708 C711 1.530 . S
C709 C704 1.304 . S
C709 C708 1.339 . S
C709 H770 0.930 . S
C710 C706 1.567 . S
C710 H771 0.961 . S
C710 H772 0.960 . S
C710 H773 0.958 . S
C711 C708 1.530 . S
C711 H774 0.961 . S
C711 H775 0.960 . S
C711 H776 0.960 . S
C712 C713 1.530 . S
C712 H778 0.961 . S
C712 H779 0.961 . S
C712 H780 0.959 . S
C713 C712 1.530 . S
C713 O741 1.412 . S
C713 H777 0.980 . S
C714 C715 1.288 . S
C714 C719 1.377 . S
C714 O741 1.393 . S
C715 C714 1.288 . S
C715 C716 1.369 . S
C715 H781 0.932 . S
C716 C715 1.369 . S
C716 C717 1.398 . S
C716 C720 1.527 . S
C717 C716 1.398 . S
C717 C718 1.380 . S
C717 C731 1.497 . S
C718 C717 1.380 . S
C718 C719 1.383 . S
C718 C721 1.603 . S
C719 C714 1.377 . S
C719 C718 1.383 . S
C719 H782 0.929 . S
C720 C716 1.527 . S
C720 H783 0.961 . S
C720 H784 0.959 . S
C720 H785 0.959 . S
C721 C718 1.603 . S
C721 H786 0.960 . S
C721 H787 0.962 . S
C721 H788 0.961 . S
C722 C689 1.587 . S
C722 C723 1.360 . S
C722 C735 1.412 . S
C723 C722 1.360 . S
C723 C724 1.365 . S
C723 H789 0.929 . S
C724 C699 1.553 . S
C724 C723 1.365 . S
C724 C725 1.404 . S
C725 C724 1.404 . S
C725 C726 1.395 . S
C725 C736 1.451 . S
C726 C725 1.395 . S
C726 C727 1.322 . S
C726 H790 0.930 . S
C727 C726 1.322 . S
C727 C728 1.459 . S
C727 H791 0.929 . S
C728 C727 1.459 . S
C728 C729 1.445 . S
C728 C737 1.395 . S
C729 C707 1.432 . S
C729 C728 1.445 . S
C729 C730 1.370 . S
C730 C729 1.370 . S
C730 C731 1.438 . S
C730 H792 0.930 . S
C731 C717 1.497 . S
C731 C730 1.438 . S
C731 C732 1.360 . S
C732 C731 1.360 . S
C732 C733 1.401 . S
C732 C737 1.446 . S
C733 C732 1.401 . S
C733 C734 1.347 . S
C733 H793 0.929 . S
C734 C733 1.347 . S
C734 C735 1.455 . S
C734 H794 0.930 . S
C735 C722 1.412 . S
C735 C734 1.455 . S
C735 C736 1.331 . S
C736 C725 1.451 . S
C736 C735 1.331 . S
C736 C737 1.497 . S
C737 C728 1.395 . S
C737 C732 1.446 . S
C737 C736 1.497 . S
C738 C739 1.582 . S
C738 H795 0.962 . S
C738 H796 0.959 . S
C738 H797 0.958 . S
C739 C738 1.582 . S
C739 O742 1.458 . S
C739 H768 0.980 . S
O740 C685 1.426 . S
O740 C686 1.334 . S
O741 C713 1.412 . S
O741 C714 1.393 . S
O742 C704 1.435 . S
O742 C739 1.458 . S
O743 C695 1.468 . S
O743 C696 1.408 . S
H744 C685 0.980 . S
H745 C684 0.959 . S
H746 C684 0.959 . S
H747 C684 0.960 . S
H748 C687 0.929 . S
H749 C691 0.929 . S
H750 C692 0.959 . S
H751 C692 0.961 . S
H752 C692 0.961 . S
H753 C693 0.960 . S
H754 C693 0.960 . S
H755 C693 0.961 . S
H756 C695 0.980 . S
H757 C694 0.961 . S
H758 C694 0.960 . S
H759 C694 0.959 . S
H760 C697 0.930 . S
H761 C701 0.931 . S
H762 C702 0.959 . S
H763 C702 0.961 . S
H764 C702 0.959 . S
H765 C703 0.960 . S
H766 C703 0.960 . S
H767 C703 0.960 . S
H768 C739 0.980 . S
H769 C705 0.930 . S
H770 C709 0.930 . S
H771 C710 0.961 . S
H772 C710 0.960 . S
H773 C710 0.958 . S
H774 C711 0.961 . S
H775 C711 0.960 . S
H776 C711 0.960 . S
H777 C713 0.980 . S
H778 C712 0.961 . S
H779 C712 0.961 . S
H780 C712 0.959 . S
H781 C715 0.932 . S
H782 C719 0.929 . S
H783 C720 0.961 . S
H784 C720 0.959 . S
H785 C720 0.959 . S
H786 C721 0.960 . S
H787 C721 0.962 . S
H788 C721 0.961 . S
H789 C723 0.929 . S
H790 C726 0.930 . S
H791 C727 0.929 . S
H792 C730 0.930 . S
H793 C733 0.929 . S
H794 C734 0.930 . S
H795 C738 0.962 . S
H796 C738 0.959 . S
H797 C738 0.958 . S
C798 C799 1.560 . S
C798 H859 0.959 . S
C798 H860 0.959 . S
C798 H861 0.960 . S
C799 C798 1.560 . S
C799 O854 1.426 . S
C799 H858 0.980 . S
C800 C801 1.407 . S
C800 C805 1.418 . S
C800 O854 1.334 . S
C801 C800 1.407 . S
C801 C802 1.360 . S
C801 H862 0.929 . S
C802 C801 1.360 . S
C802 C803 1.401 . S
C802 C806 1.527 . S
C803 C802 1.401 . S
C803 C804 1.405 . S
C803 C836 1.587 . S
C804 C803 1.405 . S
C804 C805 1.332 . S
C804 C807 1.496 . S
C805 C800 1.418 . S
C805 C804 1.332 . S
C805 H863 0.929 . S
C806 C802 1.527 . S
C806 H864 0.959 . S
C806 H865 0.961 . S
C806 H866 0.961 . S
C807 C804 1.496 . S
C807 H867 0.960 . S
C807 H868 0.960 . S
C807 H869 0.961 . S
C808 C809 1.517 . S
C808 H871 0.961 . S
C808 H872 0.960 . S
C808 H873 0.959 . S
C809 C808 1.517 . S
C809 O857 1.468 . S
C809 H870 0.980 . S
C810 C811 1.349 . S
C810 C815 1.367 . S
C810 O857 1.408 . S
C811 C810 1.349 . S
C811 C812 1.407 . S
C811 H874 0.930 . S
C812 C811 1.407 . S
C812 C813 1.449 . S
C812 C816 1.535 . S
C813 C812 1.449 . S
C813 C814 1.384 . S
C813 C838 1.553 . S
C814 C813 1.384 . S
C814 C815 1.364 . S
C814 C817 1.450 . S
C815 C810 1.367 . S
C815 C814 1.364 . S
C815 H875 0.931 . S
C816 C812 1.535 . S
C816 H876 0.959 . S
C816 H877 0.961 . S
C816 H878 0.959 . S
C817 C814 1.450 . S
C817 H879 0.960 . S
C817 H880 0.960 . S
C817 H881 0.960 . S
C818 C819 1.309 . S
C818 C823 1.304 . S
C818 O856 1.435 . S
C819 C818 1.309 . S
C819 C820 1.476 . S
C819 H883 0.930 . S
C820 C819 1.476 . S
C820 C821 1.400 . S
C820 C824 1.567 . S
C821 C820 1.400 . S
C821 C822 1.373 . S
C821 C843 1.432 . S
C822 C821 1.373 . S
C822 C823 1.339 . S
C822 C825 1.530 . S
C823 C818 1.304 . S
C823 C822 1.339 . S
C823 H884 0.930 . S
C824 C820 1.567 . S
C824 H885 0.961 . S
C824 H886 0.960 . S
C824 H887 0.958 . S
C825 C822 1.530 . S
C825 H888 0.961 . S
C825 H889 0.960 . S
C825 H890 0.960 . S
C826 C827 1.530 . S
C826 H892 0.961 . S
C826 H893 0.961 . S
C826 H894 0.959 . S
C827 C826 1.530 . S
C827 O855 1.412 . S
C827 H891 0.980 . S
C828 C829 1.288 . S
C828 C833 1.377 . S
C828 O855 1.393 . S
C829 C828 1.288 . S
C829 C830 1.369 . S
C829 H895 0.932 . S
C830 C829 1.369 . S
C830 C831 1.398 . S
C830 C834 1.527 . S
C831 C830 1.398 . S
C831 C832 1.380 . S
C831 C845 1.497 . S
C832 C831 1.380 . S
C832 C833 1.383 . S
C832 C835 1.603 . S
C833 C828 1.377 . S
C833 C832 1.383 . S
C833 H896 0.929 . S
C834 C830 1.527 . S
C834 H897 0.961 . S
C834 H898 0.959 . S
C834 H899 0.959 . S
C835 C832 1.603 . S
C835 H900 0.960 . S
C835 H901 0.962 . S
C835 H902 0.961 . S
C836 C803 1.587 . S
C836 C837 1.360 . S
C836 C849 1.412 . S
C837 C836 1.360 . S
C837 C838 1.365 . S
C837 H903 0.929 . S
C838 C813 1.553 . S
C838 C837 1.365 . S
C838 C839 1.404 . S
C839 C838 1.404 . S
C839 C840 1.395 . S
C839 C850 1.451 . S
C840 C839 1.395 . S
C840 C841 1.322 . S
C840 H904 0.930 . S
C841 C840 1.322 . S
C841 C842 1.459 . S
C841 H905 0.929 . S
C842 C841 1.459 . S
C842 C843 1.445 . S
C842 C851 1.395 . S
C843 C821 1.432 . S
C843 C842 1.445 . S
C843 C844 1.370 . S
C844 C843 1.370 . S
C844 C845 1.438 . S
C844 H906 0.930 . S
C845 C831 1.497 . S
C845 C844 1.438 . S
C845 C846 1.360 . S
C846 C845 1.360 . S
C846 C847 1.401 . S
C846 C851 1.446 . S
C847 C846 1.401 . S
C847 C848 1.347 . S
C847 H907 0.929 . S
C848 C847 1.347 . S
C848 C849 1.455 . S
C848 H908 0.930 . S
C849 C836 1.412 . S
C849 C848 1.455 . S
C849 C850 1.331 . S
C850 C839 1.451 . S
C850 C849 1.331 . S
C850 C851 1.497 . S
C851 C842 1.395 . S
C851 C846 1.446 . S
C851 C850 1.497 . S
C852 C853 1.582 . S
C852 H909 0.962 . S
C852 H910 0.959 . S
C852 H911 0.958 . S
C853 C852 1.582 . S
C853 O856 1.458 . S
C853 H882 0.980 . S
O854 C799 1.426 . S
O854 C800 1.334 . S
O855 C827 1.412 . S
O855 C828 1.393 . S
O856 C818 1.435 . S
O856 C853 1.458 . S
O857 C809 1.468 . S
O857 C810 1.408 . S
H858 C799 0.980 . S
H859 C798 0.959 . S
H860 C798 0.959 . S
H861 C798 0.960 . S
H862 C801 0.929 . S
H863 C805 0.929 . S
H864 C806 0.959 . S
H865 C806 0.961 . S
H866 C806 0.961 . S
H867 C807 0.960 . S
H868 C807 0.960 . S
H869 C807 0.961 . S
H870 C809 0.980 . S
H871 C808 0.961 . S
H872 C808 0.960 . S
H873 C808 0.959 . S
H874 C811 0.930 . S
H875 C815 0.931 . S
H876 C816 0.959 . S
H877 C816 0.961 . S
H878 C816 0.959 . S
H879 C817 0.960 . S
H880 C817 0.960 . S
H881 C817 0.960 . S
H882 C853 0.980 . S
H883 C819 0.930 . S
H884 C823 0.930 . S
H885 C824 0.961 . S
H886 C824 0.960 . S
H887 C824 0.958 . S
H888 C825 0.961 . S
H889 C825 0.960 . S
H890 C825 0.960 . S
H891 C827 0.980 . S
H892 C826 0.961 . S
H893 C826 0.961 . S
H894 C826 0.959 . S
H895 C829 0.932 . S
H896 C833 0.929 . S
H897 C834 0.961 . S
H898 C834 0.959 . S
H899 C834 0.959 . S
H900 C835 0.960 . S
H901 C835 0.962 . S
H902 C835 0.961 . S
H903 C837 0.929 . S
H904 C840 0.930 . S
H905 C841 0.929 . S
H906 C844 0.930 . S
H907 C847 0.929 . S
H908 C848 0.930 . S
H909 C852 0.962 . S
H910 C852 0.959 . S
H911 C852 0.958 . S
C912 C913 1.443 . S
C912 N916 1.376 . S
C912 C950 1.389 . S
C913 C912 1.443 . S
C913 C914 1.340 . S
C913 H953 0.951 . S
C914 C913 1.340 . S
C914 C915 1.439 . S
C914 H954 0.950 . S
C915 C914 1.439 . S
C915 N916 1.374 . S
C915 C949 1.395 . S
N916 C912 1.376 . S
N916 C915 1.374 . S
N916 Co917 2.008 . S
Co917 N916 2.008 . S
Co917 N918 1.995 1_455 S
Co917 N923 2.008 1_455 S
Co917 N928 1.995 . S
Co917 N933 2.282 1_455 S
Co917 N939 2.282 . S
N918 Co917 1.995 1_655 S
N918 C919 1.376 . S
N918 C922 1.383 . S
C919 N918 1.376 . S
C919 C920 1.446 . S
C919 C949 1.391 1_655 S
C920 C919 1.446 . S
C920 C921 1.339 . S
C920 H955 0.949 . S
C921 C920 1.339 . S
C921 C922 1.439 . S
C921 H956 0.950 . S
C922 N918 1.383 . S
C922 C921 1.439 . S
C922 C951 1.392 . S
N923 Co917 2.008 1_655 S
N923 C924 1.376 . S
N923 C927 1.374 . S
C924 N923 1.376 . S
C924 C925 1.443 . S
C924 C951 1.389 . S
C925 C924 1.443 . S
C925 C926 1.340 . S
C925 H957 0.951 . S
C926 C925 1.340 . S
C926 C927 1.439 . S
C926 H958 0.950 . S
C927 N923 1.374 . S
C927 C926 1.439 . S
C927 C952 1.395 1_655 S
N928 Co917 1.995 . S
N928 C929 1.376 . S
N928 C932 1.383 . S
C929 N928 1.376 . S
C929 C930 1.446 . S
C929 C952 1.391 . S
C930 C929 1.446 . S
C930 C931 1.339 . S
C930 H959 0.949 . S
C931 C930 1.339 . S
C931 C932 1.439 . S
C931 H960 0.950 . S
C932 N928 1.383 . S
C932 C931 1.439 . S
C932 C950 1.392 . S
N933 Co917 2.282 1_655 S
N933 C936 1.332 . S
N933 C938 1.332 . S
C934 C935 1.386 . S
C934 C937 1.388 . S
C935 C934 1.386 . S
C935 C936 1.382 . S
C935 H961 0.950 . S
C936 N933 1.332 . S
C936 C935 1.382 . S
C936 H947 0.952 . S
C937 C934 1.388 . S
C937 C938 1.382 . S
C937 H962 0.950 . S
C938 N933 1.332 . S
C938 C937 1.382 . S
C938 H948 0.948 . S
N939 Co917 2.282 . S
N939 C943 1.332 . S
N939 C944 1.332 . S
C940 C941 1.388 . S
C940 C944 1.382 . S
C940 H963 0.950 . S
C941 C940 1.388 . S
C941 C942 1.386 . S
C942 C941 1.386 . S
C942 C943 1.382 . S
C942 H964 0.950 . S
C943 N939 1.332 . S
C943 C942 1.382 . S
C943 H945 0.952 . S
C944 N939 1.332 . S
C944 C940 1.382 . S
C944 H946 0.948 . S
H945 C943 0.952 . S
H946 C944 0.948 . S
H947 C936 0.952 . S
H948 C938 0.948 . S
C949 C915 1.395 . S
C949 C919 1.391 1_455 S
C950 C912 1.389 . S
C950 C932 1.392 . S
C951 C922 1.392 . S
C951 C924 1.389 . S
C952 C927 1.395 1_455 S
C952 C929 1.391 . S
H953 C913 0.951 . S
H954 C914 0.950 . S
H955 C920 0.949 . S
H956 C921 0.950 . S
H957 C925 0.951 . S
H958 C926 0.950 . S
H959 C930 0.949 . S
H960 C931 0.950 . S
H961 C935 0.950 . S
H962 C937 0.950 . S
H963 C940 0.950 . S
H964 C942 0.950 . S
C965 C966 1.443 . S
C965 N969 1.376 . S
C965 C1003 1.389 . S
C966 C965 1.443 . S
C966 C967 1.340 . S
C966 H1006 0.951 . S
C967 C966 1.340 . S
C967 C968 1.439 . S
C967 H1007 0.950 . S
C968 C967 1.439 . S
C968 N969 1.374 . S
C968 C1002 1.395 . S
N969 C965 1.376 . S
N969 C968 1.374 . S
N969 Co970 2.008 . S
Co970 N969 2.008 . S
Co970 N971 1.995 1_545 S
Co970 N976 2.008 1_545 S
Co970 N981 1.995 . S
Co970 N986 2.282 1_545 S
Co970 N992 2.282 . S
N971 Co970 1.995 1_565 S
N971 C972 1.376 . S
N971 C975 1.383 . S
C972 N971 1.376 . S
C972 C973 1.446 . S
C972 C1002 1.391 1_565 S
C973 C972 1.446 . S
C973 C974 1.339 . S
C973 H1008 0.949 . S
C974 C973 1.339 . S
C974 C975 1.439 . S
C974 H1009 0.950 . S
C975 N971 1.383 . S
C975 C974 1.439 . S
C975 C1004 1.392 . S
N976 Co970 2.008 1_565 S
N976 C977 1.376 . S
N976 C980 1.374 . S
C977 N976 1.376 . S
C977 C978 1.443 . S
C977 C1004 1.389 . S
C978 C977 1.443 . S
C978 C979 1.340 . S
C978 H1010 0.951 . S
C979 C978 1.340 . S
C979 C980 1.439 . S
C979 H1011 0.950 . S
C980 N976 1.374 . S
C980 C979 1.439 . S
C980 C1005 1.395 1_565 S
N981 Co970 1.995 . S
N981 C982 1.376 . S
N981 C985 1.383 . S
C982 N981 1.376 . S
C982 C983 1.446 . S
C982 C1005 1.391 . S
C983 C982 1.446 . S
C983 C984 1.339 . S
C983 H1012 0.949 . S
C984 C983 1.339 . S
C984 C985 1.439 . S
C984 H1013 0.950 . S
C985 N981 1.383 . S
C985 C984 1.439 . S
C985 C1003 1.392 . S
N986 Co970 2.282 1_565 S
N986 C989 1.332 . S
N986 C991 1.332 . S
C987 C988 1.386 . S
C987 C990 1.388 . S
C988 C987 1.386 . S
C988 C989 1.382 . S
C988 H1014 0.950 . S
C989 N986 1.332 . S
C989 C988 1.382 . S
C989 H1000 0.952 . S
C990 C987 1.388 . S
C990 C991 1.382 . S
C990 H1015 0.950 . S
C991 N986 1.332 . S
C991 C990 1.382 . S
C991 H1001 0.948 . S
N992 Co970 2.282 . S
N992 C996 1.332 . S
N992 C997 1.332 . S
C993 C994 1.388 . S
C993 C997 1.382 . S
C993 H1016 0.950 . S
C994 C993 1.388 . S
C994 C995 1.386 . S
C995 C994 1.386 . S
C995 C996 1.382 . S
C995 H1017 0.950 . S
C996 N992 1.332 . S
C996 C995 1.382 . S
C996 H998 0.952 . S
C997 N992 1.332 . S
C997 C993 1.382 . S
C997 H999 0.948 . S
H998 C996 0.952 . S
H999 C997 0.948 . S
H1000 C989 0.952 . S
H1001 C991 0.948 . S
C1002 C968 1.395 . S
C1002 C972 1.391 1_545 S
C1003 C965 1.389 . S
C1003 C985 1.392 . S
C1004 C975 1.392 . S
C1004 C977 1.389 . S
C1005 C980 1.395 1_545 S
C1005 C982 1.391 . S
H1006 C966 0.951 . S
H1007 C967 0.950 . S
H1008 C973 0.949 . S
H1009 C974 0.950 . S
H1010 C978 0.951 . S
H1011 C979 0.950 . S
H1012 C983 0.949 . S
H1013 C984 0.950 . S
H1014 C988 0.950 . S
H1015 C990 0.950 . S
H1016 C993 0.950 . S
H1017 C995 0.950 . S
C1018 C1019 1.443 . S
C1018 N1022 1.376 . S
C1018 C1056 1.389 . S
C1019 C1018 1.443 . S
C1019 C1020 1.340 . S
C1019 H1059 0.951 . S
C1020 C1019 1.340 . S
C1020 C1021 1.439 . S
C1020 H1060 0.950 . S
C1021 C1020 1.439 . S
C1021 N1022 1.374 . S
C1021 C1055 1.395 . S
N1022 C1018 1.376 . S
N1022 C1021 1.374 . S
N1022 Co1023 2.008 . S
Co1023 N1022 2.008 . S
Co1023 N1024 1.995 1_455 S
Co1023 N1029 2.008 1_455 S
Co1023 N1034 1.995 . S
Co1023 N1039 2.282 1_455 S
Co1023 N1045 2.282 . S
N1024 Co1023 1.995 1_655 S
N1024 C1025 1.376 . S
N1024 C1028 1.383 . S
C1025 N1024 1.376 . S
C1025 C1026 1.446 . S
C1025 C1055 1.391 1_655 S
C1026 C1025 1.446 . S
C1026 C1027 1.339 . S
C1026 H1061 0.949 . S
C1027 C1026 1.339 . S
C1027 C1028 1.439 . S
C1027 H1062 0.950 . S
C1028 N1024 1.383 . S
C1028 C1027 1.439 . S
C1028 C1057 1.392 . S
N1029 Co1023 2.008 1_655 S
N1029 C1030 1.376 . S
N1029 C1033 1.374 . S
C1030 N1029 1.376 . S
C1030 C1031 1.443 . S
C1030 C1057 1.389 . S
C1031 C1030 1.443 . S
C1031 C1032 1.340 . S
C1031 H1063 0.951 . S
C1032 C1031 1.340 . S
C1032 C1033 1.439 . S
C1032 H1064 0.950 . S
C1033 N1029 1.374 . S
C1033 C1032 1.439 . S
C1033 C1058 1.398 1_655 S
N1034 Co1023 1.995 . S
N1034 C1035 1.376 . S
N1034 C1038 1.383 . S
C1035 N1034 1.376 . S
C1035 C1036 1.446 . S
C1035 C1058 1.388 . S
C1036 C1035 1.446 . S
C1036 C1037 1.339 . S
C1036 H1065 0.949 . S
C1037 C1036 1.339 . S
C1037 C1038 1.439 . S
C1037 H1066 0.950 . S
C1038 N1034 1.383 . S
C1038 C1037 1.439 . S
C1038 C1056 1.392 . S
N1039 Co1023 2.282 1_655 S
N1039 C1042 1.332 . S
N1039 C1044 1.332 . S
C1040 C1041 1.386 . S
C1040 C1043 1.388 . S
C1041 C1040 1.386 . S
C1041 C1042 1.382 . S
C1041 H1067 0.950 . S
C1042 N1039 1.332 . S
C1042 C1041 1.382 . S
C1042 H1053 0.952 . S
C1043 C1040 1.388 . S
C1043 C1044 1.382 . S
C1043 H1068 0.950 . S
C1044 N1039 1.332 . S
C1044 C1043 1.382 . S
C1044 H1054 0.948 . S
N1045 Co1023 2.282 . S
N1045 C1049 1.332 . S
N1045 C1050 1.332 . S
C1046 C1047 1.388 . S
C1046 C1050 1.382 . S
C1046 H1069 0.950 . S
C1047 C1046 1.388 . S
C1047 C1048 1.386 . S
C1048 C1047 1.386 . S
C1048 C1049 1.382 . S
C1048 H1070 0.950 . S
C1049 N1045 1.332 . S
C1049 C1048 1.382 . S
C1049 H1051 0.952 . S
C1050 N1045 1.332 . S
C1050 C1046 1.382 . S
C1050 H1052 0.948 . S
H1051 C1049 0.952 . S
H1052 C1050 0.948 . S
H1053 C1042 0.952 . S
H1054 C1044 0.948 . S
C1055 C1021 1.395 . S
C1055 C1025 1.391 1_455 S
C1056 C1018 1.389 . S
C1056 C1038 1.392 . S
C1057 C1028 1.392 . S
C1057 C1030 1.389 . S
C1058 C1033 1.398 1_455 S
C1058 C1035 1.388 . S
H1059 C1019 0.951 . S
H1060 C1020 0.950 . S
H1061 C1026 0.949 . S
H1062 C1027 0.950 . S
H1063 C1031 0.951 . S
H1064 C1032 0.950 . S
H1065 C1036 0.949 . S
H1066 C1037 0.950 . S
H1067 C1041 0.950 . S
H1068 C1043 0.950 . S
H1069 C1046 0.950 . S
H1070 C1048 0.950 . S
C1071 C1072 1.443 . S
C1071 N1075 1.376 . S
C1071 C1109 1.389 . S
C1072 C1071 1.443 . S
C1072 C1073 1.340 . S
C1072 H1112 0.951 . S
C1073 C1072 1.340 . S
C1073 C1074 1.439 . S
C1073 H1113 0.950 . S
C1074 C1073 1.439 . S
C1074 N1075 1.374 . S
C1074 C1108 1.395 1_565 S
N1075 C1071 1.376 . S
N1075 C1074 1.374 . S
N1075 Co1076 2.008 1_565 S
Co1076 N1075 2.008 1_545 S
Co1076 N1077 1.995 . S
Co1076 N1082 2.008 . S
Co1076 N1087 1.995 1_545 S
Co1076 N1092 2.282 . S
Co1076 N1098 2.282 1_545 S
N1077 Co1076 1.995 . S
N1077 C1078 1.376 . S
N1077 C1081 1.383 . S
C1078 N1077 1.376 . S
C1078 C1079 1.446 . S
C1078 C1108 1.391 . S
C1079 C1078 1.446 . S
C1079 C1080 1.339 . S
C1079 H1114 0.949 . S
C1080 C1079 1.339 . S
C1080 C1081 1.439 . S
C1080 H1115 0.950 . S
C1081 N1077 1.383 . S
C1081 C1080 1.439 . S
C1081 C1110 1.392 . S
N1082 Co1076 2.008 . S
N1082 C1083 1.376 . S
N1082 C1086 1.374 . S
C1083 N1082 1.376 . S
C1083 C1084 1.443 . S
C1083 C1110 1.389 . S
C1084 C1083 1.443 . S
C1084 C1085 1.340 . S
C1084 H1116 0.951 . S
C1085 C1084 1.340 . S
C1085 C1086 1.439 . S
C1085 H1117 0.950 . S
C1086 N1082 1.374 . S
C1086 C1085 1.439 . S
C1086 C1111 1.395 . S
N1087 Co1076 1.995 1_565 S
N1087 C1088 1.376 . S
N1087 C1091 1.383 . S
C1088 N1087 1.376 . S
C1088 C1089 1.446 . S
C1088 C1111 1.391 1_565 S
C1089 C1088 1.446 . S
C1089 C1090 1.339 . S
C1089 H1118 0.949 . S
C1090 C1089 1.339 . S
C1090 C1091 1.439 . S
C1090 H1119 0.950 . S
C1091 N1087 1.383 . S
C1091 C1090 1.439 . S
C1091 C1109 1.392 . S
N1092 Co1076 2.282 . S
N1092 C1095 1.332 . S
N1092 C1097 1.332 . S
C1093 C1094 1.386 . S
C1093 C1096 1.388 . S
C1094 C1093 1.386 . S
C1094 C1095 1.382 . S
C1094 H1120 0.950 . S
C1095 N1092 1.332 . S
C1095 C1094 1.382 . S
C1095 H1106 0.952 . S
C1096 C1093 1.388 . S
C1096 C1097 1.382 . S
C1096 H1121 0.950 . S
C1097 N1092 1.332 . S
C1097 C1096 1.382 . S
C1097 H1107 0.948 . S
N1098 Co1076 2.282 1_565 S
N1098 C1102 1.332 . S
N1098 C1103 1.332 . S
C1099 C1100 1.388 . S
C1099 C1103 1.382 . S
C1099 H1122 0.950 . S
C1100 C1099 1.388 . S
C1100 C1101 1.386 . S
C1101 C1100 1.386 . S
C1101 C1102 1.382 . S
C1101 H1123 0.950 . S
C1102 N1098 1.332 . S
C1102 C1101 1.382 . S
C1102 H1104 0.952 . S
C1103 N1098 1.332 . S
C1103 C1099 1.382 . S
C1103 H1105 0.948 . S
H1104 C1102 0.952 . S
H1105 C1103 0.948 . S
H1106 C1095 0.952 . S
H1107 C1097 0.948 . S
C1108 C1074 1.395 1_545 S
C1108 C1078 1.391 . S
C1109 C1071 1.389 . S
C1109 C1091 1.392 . S
C1110 C1081 1.392 . S
C1110 C1083 1.389 . S
C1111 C1086 1.395 . S
C1111 C1088 1.391 1_545 S
H1112 C1072 0.951 . S
H1113 C1073 0.950 . S
H1114 C1079 0.949 . S
H1115 C1080 0.950 . S
H1116 C1084 0.951 . S
H1117 C1085 0.950 . S
H1118 C1089 0.949 . S
H1119 C1090 0.950 . S
H1120 C1094 0.950 . S
H1121 C1096 0.950 . S
H1122 C1099 0.950 . S
H1123 C1101 0.950 . S
C1124 C1125 1.443 . S
C1124 N1128 1.376 . S
C1124 C1162 1.389 . S
C1125 C1124 1.443 . S
C1125 C1126 1.340 . S
C1125 H1165 0.951 . S
C1126 C1125 1.340 . S
C1126 C1127 1.439 . S
C1126 H1166 0.950 . S
C1127 C1126 1.439 . S
C1127 N1128 1.374 . S
C1127 C1161 1.383 1_554 S
N1128 C1124 1.376 . S
N1128 C1127 1.374 . S
N1128 Co1129 2.012 . S
Co1129 N1128 2.012 . S
Co1129 N1130 1.990 1_554 S
Co1129 N1135 2.004 1_554 S
Co1129 N1140 1.999 . S
Co1129 N1145 2.289 . S
Co1129 N1151 2.276 1_554 S
N1130 Co1129 1.990 1_556 S
N1130 C1131 1.376 . S
N1130 C1134 1.383 . S
C1131 N1130 1.376 . S
C1131 C1132 1.446 . S
C1131 C1161 1.403 . S
C1132 C1131 1.446 . S
C1132 C1133 1.339 . S
C1132 H1167 0.949 . S
C1133 C1132 1.339 . S
C1133 C1134 1.439 . S
C1133 H1168 0.950 . S
C1134 N1130 1.383 . S
C1134 C1133 1.439 . S
C1134 C1163 1.392 . S
N1135 Co1129 2.004 1_556 S
N1135 C1136 1.376 . S
N1135 C1139 1.374 . S
C1136 N1135 1.376 . S
C1136 C1137 1.443 . S
C1136 C1163 1.389 . S
C1137 C1136 1.443 . S
C1137 C1138 1.340 . S
C1137 H1169 0.951 . S
C1138 C1137 1.340 . S
C1138 C1139 1.439 . S
C1138 H1170 0.950 . S
C1139 N1135 1.374 . S
C1139 C1138 1.439 . S
C1139 C1164 1.395 1_556 S
N1140 Co1129 1.999 . S
N1140 C1141 1.376 . S
N1140 C1144 1.383 . S
C1141 N1140 1.376 . S
C1141 C1142 1.446 . S
C1141 C1164 1.391 . S
C1142 C1141 1.446 . S
C1142 C1143 1.339 . S
C1142 H1171 0.949 . S
C1143 C1142 1.339 . S
C1143 C1144 1.439 . S
C1143 H1172 0.950 . S
C1144 N1140 1.383 . S
C1144 C1143 1.439 . S
C1144 C1162 1.392 . S
N1145 Co1129 2.289 . S
N1145 C1148 1.332 . S
N1145 C1150 1.332 . S
C1146 C1147 1.386 . S
C1146 C1149 1.388 . S
C1147 C1146 1.386 . S
C1147 C1148 1.382 . S
C1147 H1173 0.950 . S
C1148 N1145 1.332 . S
C1148 C1147 1.382 . S
C1148 H1159 0.952 . S
C1149 C1146 1.388 . S
C1149 C1150 1.382 . S
C1149 H1174 0.950 . S
C1150 N1145 1.332 . S
C1150 C1149 1.382 . S
C1150 H1160 0.948 . S
N1151 Co1129 2.276 1_556 S
N1151 C1155 1.332 . S
N1151 C1156 1.332 . S
C1152 C1153 1.388 . S
C1152 C1156 1.382 . S
C1152 H1175 0.950 . S
C1153 C1152 1.388 . S
C1153 C1154 1.386 . S
C1154 C1153 1.386 . S
C1154 C1155 1.382 . S
C1154 H1176 0.950 . S
C1155 N1151 1.332 . S
C1155 C1154 1.382 . S
C1155 H1157 0.952 . S
C1156 N1151 1.332 . S
C1156 C1152 1.382 . S
C1156 H1158 0.948 . S
H1157 C1155 0.952 . S
H1158 C1156 0.948 . S
H1159 C1148 0.952 . S
H1160 C1150 0.948 . S
C1161 C1127 1.383 1_556 S
C1161 C1131 1.403 . S
C1162 C1124 1.389 . S
C1162 C1144 1.392 . S
C1163 C1134 1.392 . S
C1163 C1136 1.389 . S
C1164 C1139 1.395 1_554 S
C1164 C1141 1.391 . S
H1165 C1125 0.951 . S
H1166 C1126 0.950 . S
H1167 C1132 0.949 . S
H1168 C1133 0.950 . S
H1169 C1137 0.951 . S
H1170 C1138 0.950 . S
H1171 C1142 0.949 . S
H1172 C1143 0.950 . S
H1173 C1147 0.950 . S
H1174 C1149 0.950 . S
H1175 C1152 0.950 . S
H1176 C1154 0.950 . S
C1177 C1178 1.443 . S
C1177 N1181 1.376 . S
C1177 C1215 1.389 . S
C1178 C1177 1.443 . S
C1178 C1179 1.340 . S
C1178 H1218 0.951 . S
C1179 C1178 1.340 . S
C1179 C1180 1.439 . S
C1179 H1219 0.950 . S
C1180 C1179 1.439 . S
C1180 N1181 1.374 . S
C1180 C1214 1.395 . S
N1181 C1177 1.376 . S
N1181 C1180 1.374 . S
N1181 Co1182 2.008 . S
Co1182 N1181 2.008 . S
Co1182 N1183 1.995 1_554 S
Co1182 N1188 2.007 . S
Co1182 N1193 1.995 . S
Co1182 N1198 2.282 . S
Co1182 N1204 2.282 1_554 S
N1183 Co1182 1.995 1_556 S
N1183 C1184 1.376 . S
N1183 C1187 1.383 . S
C1184 N1183 1.376 . S
C1184 C1185 1.446 . S
C1184 C1214 1.391 1_556 S
C1185 C1184 1.446 . S
C1185 C1186 1.339 . S
C1185 H1220 0.949 . S
C1186 C1185 1.339 . S
C1186 C1187 1.439 . S
C1186 H1221 0.950 . S
C1187 N1183 1.383 . S
C1187 C1186 1.439 . S
C1187 C1216 1.392 . S
N1188 Co1182 2.007 . S
N1188 C1189 1.378 1_554 S
N1188 C1192 1.373 . S
C1189 N1188 1.378 1_556 S
C1189 C1190 1.443 . S
C1189 C1216 1.389 . S
C1190 C1189 1.443 . S
C1190 C1191 1.340 . S
C1190 H1222 0.951 . S
C1191 C1190 1.340 . S
C1191 C1192 1.439 1_556 S
C1191 H1223 0.950 . S
C1192 N1188 1.373 . S
C1192 C1191 1.439 1_554 S
C1192 C1217 1.395 . S
N1193 Co1182 1.995 . S
N1193 C1194 1.376 . S
N1193 C1197 1.383 . S
C1194 N1193 1.376 . S
C1194 C1195 1.446 . S
C1194 C1217 1.391 . S
C1195 C1194 1.446 . S
C1195 C1196 1.339 . S
C1195 H1224 0.949 . S
C1196 C1195 1.339 . S
C1196 C1197 1.439 . S
C1196 H1225 0.950 . S
C1197 N1193 1.383 . S
C1197 C1196 1.439 . S
C1197 C1215 1.392 . S
N1198 Co1182 2.282 . S
N1198 C1201 1.332 . S
N1198 C1203 1.332 . S
C1199 C1200 1.386 . S
C1199 C1202 1.388 . S
C1200 C1199 1.386 . S
C1200 C1201 1.382 . S
C1200 H1226 0.950 . S
C1201 N1198 1.332 . S
C1201 C1200 1.382 . S
C1201 H1212 0.952 . S
C1202 C1199 1.388 . S
C1202 C1203 1.382 . S
C1202 H1227 0.950 . S
C1203 N1198 1.332 . S
C1203 C1202 1.382 . S
C1203 H1213 0.948 . S
N1204 Co1182 2.282 1_556 S
N1204 C1208 1.332 . S
N1204 C1209 1.332 . S
C1205 C1206 1.388 . S
C1205 C1209 1.382 . S
C1205 H1228 0.950 . S
C1206 C1205 1.388 . S
C1206 C1207 1.386 . S
C1207 C1206 1.386 . S
C1207 C1208 1.382 . S
C1207 H1229 0.950 . S
C1208 N1204 1.332 . S
C1208 C1207 1.382 . S
C1208 H1210 0.952 . S
C1209 N1204 1.332 . S
C1209 C1205 1.382 . S
C1209 H1211 0.948 . S
H1210 C1208 0.952 . S
H1211 C1209 0.948 . S
H1212 C1201 0.952 . S
H1213 C1203 0.948 . S
C1214 C1180 1.395 . S
C1214 C1184 1.391 1_554 S
C1215 C1177 1.389 . S
C1215 C1197 1.392 . S
C1216 C1187 1.392 . S
C1216 C1189 1.389 . S
C1217 C1192 1.395 . S
C1217 C1194 1.391 . S
H1218 C1178 0.951 . S
H1219 C1179 0.950 . S
H1220 C1185 0.949 . S
H1221 C1186 0.950 . S
H1222 C1190 0.951 . S
H1223 C1191 0.950 . S
H1224 C1195 0.949 . S
H1225 C1196 0.950 . S
H1226 C1200 0.950 . S
H1227 C1202 0.950 . S
H1228 C1205 0.950 . S
H1229 C1207 0.950 . S
C1230 C1231 1.443 . S
C1230 N1234 1.373 1_556 S
C1230 C1268 1.389 . S
C1231 C1230 1.443 . S
C1231 C1232 1.340 . S
C1231 H1271 0.951 . S
C1232 C1231 1.340 . S
C1232 C1233 1.439 1_556 S
C1232 H1272 0.950 . S
C1233 C1232 1.439 1_554 S
C1233 N1234 1.375 . S
C1233 C1267 1.395 . S
N1234 C1230 1.373 1_554 S
N1234 C1233 1.375 . S
N1234 Co1235 2.011 . S
Co1235 N1234 2.011 . S
Co1235 N1236 1.995 . S
Co1235 N1241 2.008 . S
Co1235 N1246 1.995 1_554 S
Co1235 N1251 2.282 1_554 S
Co1235 N1257 2.282 . S
N1236 Co1235 1.995 . S
N1236 C1237 1.376 . S
N1236 C1240 1.383 . S
C1237 N1236 1.376 . S
C1237 C1238 1.446 . S
C1237 C1267 1.391 . S
C1238 C1237 1.446 . S
C1238 C1239 1.339 . S
C1238 H1273 0.949 . S
C1239 C1238 1.339 . S
C1239 C1240 1.439 . S
C1239 H1274 0.950 . S
C1240 N1236 1.383 . S
C1240 C1239 1.439 . S
C1240 C1269 1.392 . S
N1241 Co1235 2.008 . S
N1241 C1242 1.376 . S
N1241 C1245 1.374 . S
C1242 N1241 1.376 . S
C1242 C1243 1.443 . S
C1242 C1269 1.389 . S
C1243 C1242 1.443 . S
C1243 C1244 1.340 . S
C1243 H1275 0.951 . S
C1244 C1243 1.340 . S
C1244 C1245 1.439 . S
C1244 H1276 0.950 . S
C1245 N1241 1.374 . S
C1245 C1244 1.439 . S
C1245 C1270 1.395 . S
N1246 Co1235 1.995 1_556 S
N1246 C1247 1.376 . S
N1246 C1250 1.383 . S
C1247 N1246 1.376 . S
C1247 C1248 1.446 . S
C1247 C1270 1.391 1_556 S
C1248 C1247 1.446 . S
C1248 C1249 1.339 . S
C1248 H1277 0.949 . S
C1249 C1248 1.339 . S
C1249 C1250 1.439 . S
C1249 H1278 0.950 . S
C1250 N1246 1.383 . S
C1250 C1249 1.439 . S
C1250 C1268 1.392 . S
N1251 Co1235 2.282 1_556 S
N1251 C1254 1.332 . S
N1251 C1256 1.332 . S
C1252 C1253 1.386 . S
C1252 C1255 1.388 . S
C1253 C1252 1.386 . S
C1253 C1254 1.382 . S
C1253 H1279 0.950 . S
C1254 N1251 1.332 . S
C1254 C1253 1.382 . S
C1254 H1265 0.952 . S
C1255 C1252 1.388 . S
C1255 C1256 1.382 . S
C1255 H1280 0.950 . S
C1256 N1251 1.332 . S
C1256 C1255 1.382 . S
C1256 H1266 0.948 . S
N1257 Co1235 2.282 . S
N1257 C1261 1.332 . S
N1257 C1262 1.332 . S
C1258 C1259 1.388 . S
C1258 C1262 1.382 . S
C1258 H1281 0.950 . S
C1259 C1258 1.388 . S
C1259 C1260 1.386 . S
C1260 C1259 1.386 . S
C1260 C1261 1.382 . S
C1260 H1282 0.950 . S
C1261 N1257 1.332 . S
C1261 C1260 1.382 . S
C1261 H1263 0.952 . S
C1262 N1257 1.332 . S
C1262 C1258 1.382 . S
C1262 H1264 0.948 . S
H1263 C1261 0.952 . S
H1264 C1262 0.948 . S
H1265 C1254 0.952 . S
H1266 C1256 0.948 . S
C1267 C1233 1.395 . S
C1267 C1237 1.391 . S
C1268 C1230 1.389 . S
C1268 C1250 1.392 . S
C1269 C1240 1.392 . S
C1269 C1242 1.389 . S
C1270 C1245 1.395 . S
C1270 C1247 1.391 1_554 S
H1271 C1231 0.951 . S
H1272 C1232 0.950 . S
H1273 C1238 0.949 . S
H1274 C1239 0.950 . S
H1275 C1243 0.951 . S
H1276 C1244 0.950 . S
H1277 C1248 0.949 . S
H1278 C1249 0.950 . S
H1279 C1253 0.950 . S
H1280 C1255 0.950 . S
H1281 C1258 0.950 . S
H1282 C1260 0.950 . S
C1283 C1284 1.443 . S
C1283 N1287 1.376 . S
C1283 C1321 1.389 . S
C1284 C1283 1.443 . S
C1284 C1285 1.340 . S
C1284 H1324 0.951 . S
C1285 C1284 1.340 . S
C1285 C1286 1.439 . S
C1285 H1325 0.950 . S
C1286 C1285 1.439 . S
C1286 N1287 1.374 . S
C1286 C1320 1.395 . S
N1287 C1283 1.376 . S
N1287 C1286 1.374 . S
N1287 Co1288 2.008 . S
Co1288 N1287 2.008 . S
Co1288 N1289 1.995 1_554 S
Co1288 N1294 2.008 . S
Co1288 N1299 1.995 . S
Co1288 N1304 2.282 . S
Co1288 N1310 2.282 1_554 S
N1289 Co1288 1.995 1_556 S
N1289 C1290 1.376 . S
N1289 C1293 1.383 . S
C1290 N1289 1.376 . S
C1290 C1291 1.446 . S
C1290 C1320 1.391 1_556 S
C1291 C1290 1.446 . S
C1291 C1292 1.339 . S
C1291 H1326 0.949 . S
C1292 C1291 1.339 . S
C1292 C1293 1.439 . S
C1292 H1327 0.950 . S
C1293 N1289 1.383 . S
C1293 C1292 1.439 . S
C1293 C1322 1.392 . S
N1294 Co1288 2.008 . S
N1294 C1295 1.376 1_554 S
N1294 C1298 1.374 . S
C1295 N1294 1.376 1_556 S
C1295 C1296 1.443 . S
C1295 C1322 1.389 . S
C1296 C1295 1.443 . S
C1296 C1297 1.340 . S
C1296 H1328 0.951 . S
C1297 C1296 1.340 . S
C1297 C1298 1.439 1_556 S
C1297 H1329 0.950 . S
C1298 N1294 1.374 . S
C1298 C1297 1.439 1_554 S
C1298 C1323 1.395 . S
N1299 Co1288 1.995 . S
N1299 C1300 1.376 . S
N1299 C1303 1.383 . S
C1300 N1299 1.376 . S
C1300 C1301 1.446 . S
C1300 C1323 1.391 . S
C1301 C1300 1.446 . S
C1301 C1302 1.339 . S
C1301 H1330 0.949 . S
C1302 C1301 1.339 . S
C1302 C1303 1.439 . S
C1302 H1331 0.950 . S
C1303 N1299 1.383 . S
C1303 C1302 1.439 . S
C1303 C1321 1.392 . S
N1304 Co1288 2.282 . S
N1304 C1307 1.332 . S
N1304 C1309 1.332 . S
C1305 C1306 1.386 . S
C1305 C1308 1.388 . S
C1306 C1305 1.386 . S
C1306 C1307 1.382 . S
C1306 H1332 0.950 . S
C1307 N1304 1.332 . S
C1307 C1306 1.382 . S
C1307 H1318 0.952 . S
C1308 C1305 1.388 . S
C1308 C1309 1.382 . S
C1308 H1333 0.950 . S
C1309 N1304 1.332 . S
C1309 C1308 1.382 . S
C1309 H1319 0.948 . S
N1310 Co1288 2.282 1_556 S
N1310 C1314 1.332 . S
N1310 C1315 1.332 . S
C1311 C1312 1.388 . S
C1311 C1315 1.382 . S
C1311 H1334 0.950 . S
C1312 C1311 1.388 . S
C1312 C1313 1.386 . S
C1313 C1312 1.386 . S
C1313 C1314 1.382 . S
C1313 H1335 0.950 . S
C1314 N1310 1.332 . S
C1314 C1313 1.382 . S
C1314 H1316 0.952 . S
C1315 N1310 1.332 . S
C1315 C1311 1.382 . S
C1315 H1317 0.948 . S
H1316 C1314 0.952 . S
H1317 C1315 0.948 . S
H1318 C1307 0.952 . S
H1319 C1309 0.948 . S
C1320 C1286 1.395 . S
C1320 C1290 1.391 1_554 S
C1321 C1283 1.389 . S
C1321 C1303 1.392 . S
C1322 C1293 1.392 . S
C1322 C1295 1.389 . S
C1323 C1298 1.395 . S
C1323 C1300 1.391 . S
H1324 C1284 0.951 . S
H1325 C1285 0.950 . S
H1326 C1291 0.949 . S
H1327 C1292 0.950 . S
H1328 C1296 0.951 . S
H1329 C1297 0.950 . S
H1330 C1301 0.949 . S
H1331 C1302 0.950 . S
H1332 C1306 0.950 . S
H1333 C1308 0.950 . S
H1334 C1311 0.950 . S
H1335 C1313 0.950 . S
C1336 C1337 1.387 . S
C1336 H1340 0.950 . S
C1336 C1345 1.390 . S
C1337 C1336 1.387 . S
C1337 C1339 1.387 . S
H1338 C1345 0.950 . S
C1339 C1337 1.387 . S
C1339 C1341 1.390 . S
C1339 H1343 0.950 . S
H1340 C1336 0.950 . S
C1341 C1339 1.390 . S
C1341 C1342 1.387 . S
C1341 H1344 0.950 . S
C1342 C1341 1.387 . S
C1342 C1345 1.387 . S
H1343 C1339 0.950 . S
H1344 C1341 0.950 . S
C1345 C1336 1.390 . S
C1345 H1338 0.950 . S
C1345 C1342 1.387 . S
C1346 C1347 1.387 . S
C1346 H1350 0.950 . S
C1346 C1355 1.390 . S
C1347 C1346 1.387 . S
C1347 C1349 1.387 . S
H1348 C1355 0.950 . S
C1349 C1347 1.387 . S
C1349 C1351 1.390 . S
C1349 H1353 0.950 . S
H1350 C1346 0.950 . S
C1351 C1349 1.390 . S
C1351 C1352 1.387 . S
C1351 H1354 0.950 . S
C1352 C1351 1.387 . S
C1352 C1355 1.387 . S
H1353 C1349 0.950 . S
H1354 C1351 0.950 . S
C1355 C1346 1.390 . S
C1355 H1348 0.950 . S
C1355 C1352 1.387 . S
C1356 C1357 1.387 . S
C1356 H1360 0.950 . S
C1356 C1365 1.390 . S
C1357 C1356 1.387 . S
C1357 C1359 1.387 . S
H1358 C1365 0.950 . S
C1359 C1357 1.387 . S
C1359 C1361 1.390 . S
C1359 H1363 0.950 . S
H1360 C1356 0.950 . S
C1361 C1359 1.390 . S
C1361 C1362 1.387 . S
C1361 H1364 0.950 . S
C1362 C1361 1.387 . S
C1362 C1365 1.387 . S
H1363 C1359 0.950 . S
H1364 C1361 0.950 . S
C1365 C1356 1.390 . S
C1365 H1358 0.950 . S
C1365 C1362 1.387 . S
C1366 C1367 1.387 . S
C1366 H1370 0.950 . S
C1366 C1375 1.390 . S
C1367 C1366 1.387 . S
C1367 C1369 1.387 . S
H1368 C1375 0.950 . S
C1369 C1367 1.387 . S
C1369 C1371 1.390 . S
C1369 H1373 0.950 . S
H1370 C1366 0.950 . S
C1371 C1369 1.390 . S
C1371 C1372 1.387 . S
C1371 H1374 0.950 . S
C1372 C1371 1.387 . S
C1372 C1375 1.387 . S
H1373 C1369 0.950 . S
H1374 C1371 0.950 . S
C1375 C1366 1.390 . S
C1375 H1368 0.950 . S
C1375 C1372 1.387 . S
C1376 C1377 1.387 . S
C1376 H1380 0.950 . S
C1376 C1385 1.390 . S
C1377 C1376 1.387 . S
C1377 C1379 1.387 . S
H1378 C1385 0.950 . S
C1379 C1377 1.387 . S
C1379 C1381 1.390 . S
C1379 H1383 0.950 . S
H1380 C1376 0.950 . S
C1381 C1379 1.390 . S
C1381 C1382 1.387 . S
C1381 H1384 0.950 . S
C1382 C1381 1.387 . S
C1382 C1385 1.387 . S
H1383 C1379 0.950 . S
H1384 C1381 0.950 . S
C1385 C1376 1.390 . S
C1385 H1378 0.950 . S
C1385 C1382 1.387 . S
C1386 C1387 1.387 . S
C1386 H1390 0.950 . S
C1386 C1395 1.390 . S
C1387 C1386 1.387 . S
C1387 C1389 1.387 . S
H1388 C1395 0.950 . S
C1389 C1387 1.387 . S
C1389 C1391 1.390 . S
C1389 H1393 0.950 . S
H1390 C1386 0.950 . S
C1391 C1389 1.390 . S
C1391 C1392 1.387 . S
C1391 H1394 0.950 . S
C1392 C1391 1.387 . S
C1392 C1395 1.387 . S
H1393 C1389 0.950 . S
H1394 C1391 0.950 . S
C1395 C1386 1.390 . S
C1395 H1388 0.950 . S
C1395 C1392 1.387 . S
C1396 C1397 1.387 . S
C1396 H1400 0.950 . S
C1396 C1405 1.390 . S
C1397 C1396 1.387 . S
C1397 C1399 1.387 . S
H1398 C1405 0.950 . S
C1399 C1397 1.387 . S
C1399 C1401 1.390 . S
C1399 H1403 0.950 . S
H1400 C1396 0.950 . S
C1401 C1399 1.390 . S
C1401 C1402 1.387 . S
C1401 H1404 0.950 . S
C1402 C1401 1.387 . S
C1402 C1405 1.387 . S
H1403 C1399 0.950 . S
H1404 C1401 0.950 . S
C1405 C1396 1.390 . S
C1405 H1398 0.950 . S
C1405 C1402 1.387 . S
C1406 C1407 1.387 . S
C1406 H1410 0.950 . S
C1406 C1415 1.390 . S
C1407 C1406 1.387 . S
C1407 C1409 1.387 . S
H1408 C1415 0.950 . S
C1409 C1407 1.387 . S
C1409 C1411 1.390 . S
C1409 H1413 0.950 . S
H1410 C1406 0.950 . S
C1411 C1409 1.390 . S
C1411 C1412 1.387 . S
C1411 H1414 0.950 . S
C1412 C1411 1.387 . S
C1412 C1415 1.387 . S
H1413 C1409 0.950 . S
H1414 C1411 0.950 . S
C1415 C1406 1.390 . S
C1415 H1408 0.950 . S
C1415 C1412 1.387 . S
C1416 C1417 1.387 . S
C1416 H1420 0.950 . S
C1416 C1425 1.390 . S
C1417 C1416 1.387 . S
C1417 C1419 1.387 . S
H1418 C1425 0.950 . S
C1419 C1417 1.387 . S
C1419 C1421 1.390 . S
C1419 H1423 0.950 . S
H1420 C1416 0.950 . S
C1421 C1419 1.390 . S
C1421 C1422 1.387 . S
C1421 H1424 0.950 . S
C1422 C1421 1.387 . S
C1422 C1425 1.387 . S
H1423 C1419 0.950 . S
H1424 C1421 0.950 . S
C1425 C1416 1.390 . S
C1425 H1418 0.950 . S
C1425 C1422 1.387 . S
C1426 C1427 1.387 . S
C1426 H1430 0.950 . S
C1426 C1435 1.390 . S
C1427 C1426 1.387 . S
C1427 C1429 1.387 . S
H1428 C1435 0.950 . S
C1429 C1427 1.387 . S
C1429 C1431 1.390 . S
C1429 H1433 0.950 . S
H1430 C1426 0.950 . S
C1431 C1429 1.390 . S
C1431 C1432 1.387 . S
C1431 H1434 0.950 . S
C1432 C1431 1.387 . S
C1432 C1435 1.387 . S
H1433 C1429 0.950 . S
H1434 C1431 0.950 . S
C1435 C1426 1.390 . S
C1435 H1428 0.950 . S
C1435 C1432 1.387 . S
C1436 C1437 1.387 . S
C1436 H1440 0.950 . S
C1436 C1445 1.390 . S
C1437 C1436 1.387 . S
C1437 C1439 1.387 . S
H1438 C1445 0.950 . S
C1439 C1437 1.387 . S
C1439 C1441 1.390 . S
C1439 H1443 0.950 . S
H1440 C1436 0.950 . S
C1441 C1439 1.390 . S
C1441 C1442 1.387 . S
C1441 H1444 0.950 . S
C1442 C1441 1.387 . S
C1442 C1445 1.387 . S
H1443 C1439 0.950 . S
H1444 C1441 0.950 . S
C1445 C1436 1.390 . S
C1445 H1438 0.950 . S
C1445 C1442 1.387 . S
C1446 C1447 1.387 . S
C1446 H1450 0.950 . S
C1446 C1455 1.390 . S
C1447 C1446 1.387 . S
C1447 C1449 1.387 . S
H1448 C1455 0.950 . S
C1449 C1447 1.387 . S
C1449 C1451 1.390 . S
C1449 H1453 0.950 . S
H1450 C1446 0.950 . S
C1451 C1449 1.390 . S
C1451 C1452 1.387 . S
C1451 H1454 0.950 . S
C1452 C1451 1.387 . S
C1452 C1455 1.387 . S
H1453 C1449 0.950 . S
H1454 C1451 0.950 . S
C1455 C1446 1.390 . S
C1455 H1448 0.950 . S
C1455 C1452 1.387 . S
C1456 C1457 1.387 . S
C1456 H1460 0.950 . S
C1456 C1465 1.390 . S
C1457 C1456 1.387 . S
C1457 C1459 1.387 . S
H1458 C1465 0.950 . S
C1459 C1457 1.387 . S
C1459 C1461 1.390 . S
C1459 H1463 0.950 . S
H1460 C1456 0.950 . S
C1461 C1459 1.390 . S
C1461 C1462 1.387 . S
C1461 H1464 0.950 . S
C1462 C1461 1.387 . S
C1462 C1465 1.387 . S
H1463 C1459 0.950 . S
H1464 C1461 0.950 . S
C1465 C1456 1.390 . S
C1465 H1458 0.950 . S
C1465 C1462 1.387 . S
C1466 C1467 1.387 . S
C1466 H1470 0.950 . S
C1466 C1475 1.390 . S
C1467 C1466 1.387 . S
C1467 C1469 1.387 . S
H1468 C1475 0.950 . S
C1469 C1467 1.387 . S
C1469 C1471 1.390 . S
C1469 H1473 0.950 . S
H1470 C1466 0.950 . S
C1471 C1469 1.390 . S
C1471 C1472 1.387 . S
C1471 H1474 0.950 . S
C1472 C1471 1.387 . S
C1472 C1475 1.387 . S
H1473 C1469 0.950 . S
H1474 C1471 0.950 . S
C1475 C1466 1.390 . S
C1475 H1468 0.950 . S
C1475 C1472 1.387 . S
C1476 C1477 1.387 . S
C1476 H1480 0.950 . S
C1476 C1485 1.390 . S
C1477 C1476 1.387 . S
C1477 C1479 1.387 . S
H1478 C1485 0.950 . S
C1479 C1477 1.387 . S
C1479 C1481 1.390 . S
C1479 H1483 0.950 . S
H1480 C1476 0.950 . S
C1481 C1479 1.390 . S
C1481 C1482 1.387 . S
C1481 H1484 0.950 . S
C1482 C1481 1.387 . S
C1482 C1485 1.387 . S
H1483 C1479 0.950 . S
H1484 C1481 0.950 . S
C1485 C1476 1.390 . S
C1485 H1478 0.950 . S
C1485 C1482 1.387 . S
C1486 C1487 1.387 . S
C1486 H1490 0.950 . S
C1486 C1495 1.390 . S
C1487 C1486 1.387 . S
C1487 C1489 1.387 . S
H1488 C1495 0.950 . S
C1489 C1487 1.387 . S
C1489 C1491 1.390 . S
C1489 H1493 0.950 . S
H1490 C1486 0.950 . S
C1491 C1489 1.390 . S
C1491 C1492 1.387 . S
C1491 H1494 0.950 . S
C1492 C1491 1.387 . S
C1492 C1495 1.387 . S
H1493 C1489 0.950 . S
H1494 C1491 0.950 . S
C1495 C1486 1.390 . S
C1495 H1488 0.950 . S
C1495 C1492 1.387 . S
C1496 C1497 1.387 . S
C1496 H1500 0.950 . S
C1496 C1505 1.390 . S
C1497 C1496 1.387 . S
C1497 C1499 1.387 . S
H1498 C1505 0.950 . S
C1499 C1497 1.387 . S
C1499 C1501 1.390 . S
C1499 H1503 0.950 . S
H1500 C1496 0.950 . S
C1501 C1499 1.390 . S
C1501 C1502 1.387 . S
C1501 H1504 0.950 . S
C1502 C1501 1.387 . S
C1502 C1505 1.387 . S
H1503 C1499 0.950 . S
H1504 C1501 0.950 . S
C1505 C1496 1.390 . S
C1505 H1498 0.950 . S
C1505 C1502 1.387 . S
C1506 C1507 1.387 . S
C1506 H1510 0.950 . S
C1506 C1515 1.390 . S
C1507 C1506 1.387 . S
C1507 C1509 1.387 . S
H1508 C1515 0.950 . S
C1509 C1507 1.387 . S
C1509 C1511 1.390 . S
C1509 H1513 0.950 . S
H1510 C1506 0.950 . S
C1511 C1509 1.390 . S
C1511 C1512 1.387 . S
C1511 H1514 0.950 . S
C1512 C1511 1.387 . S
C1512 C1515 1.387 . S
H1513 C1509 0.950 . S
H1514 C1511 0.950 . S
C1515 C1506 1.390 . S
C1515 H1508 0.950 . S
C1515 C1512 1.387 . S
C1516 C1517 1.387 . S
C1516 H1520 0.950 . S
C1516 C1525 1.390 . S
C1517 C1516 1.387 . S
C1517 C1519 1.387 . S
H1518 C1525 0.950 . S
C1519 C1517 1.387 . S
C1519 C1521 1.390 . S
C1519 H1523 0.950 . S
H1520 C1516 0.950 . S
C1521 C1519 1.390 . S
C1521 C1522 1.387 . S
C1521 H1524 0.950 . S
C1522 C1521 1.387 . S
C1522 C1525 1.387 . S
H1523 C1519 0.950 . S
H1524 C1521 0.950 . S
C1525 C1516 1.390 . S
C1525 H1518 0.950 . S
C1525 C1522 1.387 . S
C1526 C1527 1.387 . S
C1526 H1530 0.950 . S
C1526 C1535 1.390 . S
C1527 C1526 1.387 . S
C1527 C1529 1.387 . S
H1528 C1535 0.950 . S
C1529 C1527 1.387 . S
C1529 C1531 1.390 . S
C1529 H1533 0.950 . S
H1530 C1526 0.950 . S
C1531 C1529 1.390 . S
C1531 C1532 1.387 . S
C1531 H1534 0.950 . S
C1532 C1531 1.387 . S
C1532 C1535 1.387 . S
H1533 C1529 0.950 . S
H1534 C1531 0.950 . S
C1535 C1526 1.390 . S
C1535 H1528 0.950 . S
C1535 C1532 1.387 . S
C1536 C1537 1.387 . S
C1536 H1540 0.950 . S
C1536 C1545 1.390 . S
C1537 C1536 1.387 . S
C1537 C1539 1.387 . S
H1538 C1545 0.950 . S
C1539 C1537 1.387 . S
C1539 C1541 1.390 . S
C1539 H1543 0.950 . S
H1540 C1536 0.950 . S
C1541 C1539 1.390 . S
C1541 C1542 1.387 . S
C1541 H1544 0.950 . S
C1542 C1541 1.387 . S
C1542 C1545 1.387 . S
H1543 C1539 0.950 . S
H1544 C1541 0.950 . S
C1545 C1536 1.390 . S
C1545 H1538 0.950 . S
C1545 C1542 1.387 . S
C1546 C1547 1.387 . S
C1546 H1550 0.950 . S
C1546 C1555 1.390 . S
C1547 C1546 1.387 . S
C1547 C1549 1.387 . S
H1548 C1555 0.950 . S
C1549 C1547 1.387 . S
C1549 C1551 1.390 . S
C1549 H1553 0.950 . S
H1550 C1546 0.950 . S
C1551 C1549 1.390 . S
C1551 C1552 1.387 . S
C1551 H1554 0.950 . S
C1552 C1551 1.387 . S
C1552 C1555 1.387 . S
H1553 C1549 0.950 . S
H1554 C1551 0.950 . S
C1555 C1546 1.390 . S
C1555 H1548 0.950 . S
C1555 C1552 1.387 . S
C1556 C1557 1.387 . S
C1556 H1560 0.950 . S
C1556 C1565 1.390 . S
C1557 C1556 1.387 . S
C1557 C1559 1.387 . S
H1558 C1565 0.950 . S
C1559 C1557 1.387 . S
C1559 C1561 1.390 . S
C1559 H1563 0.950 . S
H1560 C1556 0.950 . S
C1561 C1559 1.390 . S
C1561 C1562 1.387 . S
C1561 H1564 0.950 . S
C1562 C1561 1.387 . S
C1562 C1565 1.387 . S
H1563 C1559 0.950 . S
H1564 C1561 0.950 . S
C1565 C1556 1.390 . S
C1565 H1558 0.950 . S
C1565 C1562 1.387 . S
C1566 C1567 1.387 . S
C1566 H1570 0.950 . S
C1566 C1575 1.390 . S
C1567 C1566 1.387 . S
C1567 C1569 1.387 . S
H1568 C1575 0.950 . S
C1569 C1567 1.387 . S
C1569 C1571 1.390 . S
C1569 H1573 0.950 . S
H1570 C1566 0.950 . S
C1571 C1569 1.390 . S
C1571 C1572 1.387 . S
C1571 H1574 0.950 . S
C1572 C1571 1.387 . S
C1572 C1575 1.387 . S
H1573 C1569 0.950 . S
H1574 C1571 0.950 . S
C1575 C1566 1.390 . S
C1575 H1568 0.950 . S
C1575 C1572 1.387 . S
C1576 C1577 1.387 . S
C1576 H1580 0.950 . S
C1576 C1585 1.390 . S
C1577 C1576 1.387 . S
C1577 C1579 1.387 . S
H1578 C1585 0.950 . S
C1579 C1577 1.387 . S
C1579 C1581 1.390 . S
C1579 H1583 0.950 . S
H1580 C1576 0.950 . S
C1581 C1579 1.390 . S
C1581 C1582 1.387 . S
C1581 H1584 0.950 . S
C1582 C1581 1.387 . S
C1582 C1585 1.387 . S
H1583 C1579 0.950 . S
H1584 C1581 0.950 . S
C1585 C1576 1.390 . S
C1585 H1578 0.950 . S
C1585 C1582 1.387 . S
C1586 C1587 1.387 . S
C1586 H1590 0.950 . S
C1586 C1595 1.390 . S
C1587 C1586 1.387 . S
C1587 C1589 1.387 . S
H1588 C1595 0.950 . S
C1589 C1587 1.387 . S
C1589 C1591 1.390 . S
C1589 H1593 0.950 . S
H1590 C1586 0.950 . S
C1591 C1589 1.390 . S
C1591 C1592 1.387 . S
C1591 H1594 0.950 . S
C1592 C1591 1.387 . S
C1592 C1595 1.387 . S
H1593 C1589 0.950 . S
H1594 C1591 0.950 . S
C1595 C1586 1.390 . S
C1595 H1588 0.950 . S
C1595 C1592 1.387 . S
C1596 C1597 1.387 . S
C1596 H1600 0.950 . S
C1596 C1605 1.390 . S
C1597 C1596 1.387 . S
C1597 C1599 1.387 . S
H1598 C1605 0.950 . S
C1599 C1597 1.387 . S
C1599 C1601 1.390 . S
C1599 H1603 0.950 . S
H1600 C1596 0.950 . S
C1601 C1599 1.390 . S
C1601 C1602 1.387 . S
C1601 H1604 0.950 . S
C1602 C1601 1.387 . S
C1602 C1605 1.387 . S
H1603 C1599 0.950 . S
H1604 C1601 0.950 . S
C1605 C1596 1.390 . S
C1605 H1598 0.950 . S
C1605 C1602 1.387 . S
C1606 C1607 1.387 . S
C1606 H1610 0.950 . S
C1606 C1615 1.390 . S
C1607 C1606 1.387 . S
C1607 C1609 1.387 . S
H1608 C1615 0.950 . S
C1609 C1607 1.387 . S
C1609 C1611 1.390 . S
C1609 H1613 0.950 . S
H1610 C1606 0.950 . S
C1611 C1609 1.390 . S
C1611 C1612 1.387 . S
C1611 H1614 0.950 . S
C1612 C1611 1.387 . S
C1612 C1615 1.387 . S
H1613 C1609 0.950 . S
H1614 C1611 0.950 . S
C1615 C1606 1.390 . S
C1615 H1608 0.950 . S
C1615 C1612 1.387 . S
C1616 C1617 1.387 . S
C1616 H1620 0.950 . S
C1616 C1625 1.390 . S
C1617 C1616 1.387 . S
C1617 C1619 1.387 . S
H1618 C1625 0.950 . S
C1619 C1617 1.387 . S
C1619 C1621 1.390 . S
C1619 H1623 0.950 . S
H1620 C1616 0.950 . S
C1621 C1619 1.390 . S
C1621 C1622 1.387 . S
C1621 H1624 0.950 . S
C1622 C1621 1.387 . S
C1622 C1625 1.387 . S
H1623 C1619 0.950 . S
H1624 C1621 0.950 . S
C1625 C1616 1.390 . S
C1625 H1618 0.950 . S
C1625 C1622 1.387 . S
C1626 C1627 1.387 . S
C1626 H1630 0.950 . S
C1626 C1635 1.390 . S
C1627 C1626 1.387 . S
C1627 C1629 1.387 . S
H1628 C1635 0.950 . S
C1629 C1627 1.387 . S
C1629 C1631 1.390 . S
C1629 H1633 0.950 . S
H1630 C1626 0.950 . S
C1631 C1629 1.390 . S
C1631 C1632 1.387 . S
C1631 H1634 0.950 . S
C1632 C1631 1.387 . S
C1632 C1635 1.387 . S
H1633 C1629 0.950 . S
H1634 C1631 0.950 . S
C1635 C1626 1.390 . S
C1635 H1628 0.950 . S
C1635 C1632 1.387 . S
C1636 C1637 1.387 . S
C1636 H1640 0.950 . S
C1636 C1645 1.390 . S
C1637 C1636 1.387 . S
C1637 C1639 1.387 . S
H1638 C1645 0.950 . S
C1639 C1637 1.387 . S
C1639 C1641 1.390 . S
C1639 H1643 0.950 . S
H1640 C1636 0.950 . S
C1641 C1639 1.390 . S
C1641 C1642 1.387 . S
C1641 H1644 0.950 . S
C1642 C1641 1.387 . S
C1642 C1645 1.387 . S
H1643 C1639 0.950 . S
H1644 C1641 0.950 . S
C1645 C1636 1.390 . S
C1645 H1638 0.950 . S
C1645 C1642 1.387 . S
C1646 C1647 1.387 . S
C1646 H1650 0.950 . S
C1646 C1655 1.390 . S
C1647 C1646 1.387 . S
C1647 C1649 1.387 . S
H1648 C1655 0.950 . S
C1649 C1647 1.387 . S
C1649 C1651 1.390 . S
C1649 H1653 0.950 . S
H1650 C1646 0.950 . S
C1651 C1649 1.390 . S
C1651 C1652 1.387 . S
C1651 H1654 0.950 . S
C1652 C1651 1.387 . S
C1652 C1655 1.387 . S
H1653 C1649 0.950 . S
H1654 C1651 0.950 . S
C1655 C1646 1.390 . S
C1655 H1648 0.950 . S
C1655 C1652 1.387 . S
C1342 C941 1.468 . S
C1337 C29 1.190 . S
C1352 C994 1.518 . S
C1347 C125 0.720 . S
C1362 C1057 1.572 . S
C1357 C257 1.273 . S
C1372 C1100 1.441 . S
C1367 C353 0.689 . S
C1377 C457 1.154 . S
C1382 C1056 1.524 . S
C1392 C1093 1.526 . S
C1387 C625 1.315 . S
C1402 C934 1.448 . S
C1397 C685 1.114 . S
C1412 C987 1.384 . S
C1407 C853 1.163 . S
C1422 C1040 1.664 . S
C1417 C809 1.128 . S
C1432 C1109 1.776 . S
C1427 C485 1.493 . S
C1442 C950 1.756 . S
C1437 C581 1.152 . S
C1452 C1003 1.694 . S
C1447 C713 1.377 . S
C1462 C951 1.717 . S
C1457 C169 1.259 . S
C1472 C1004 1.746 . S
C1467 C229 1.354 . S
C1482 C1047 1.633 . S
C1477 C397 1.158 . S
C1492 C1110 1.656 . S
C1487 C1 1.300 . S
C1502 C1153 1.439 . S
C1497 C827 1.138 . S
C1507 C467 0.997 . S
C1512 C1206 1.856 . S
C1517 C599 1.331 . S
C1522 C1268 1.602 . S
C1527 C695 0.997 . S
C1532 C1322 1.830 . S
C1537 C115 1.153 . S
C1542 C1269 1.492 . S
C1547 C283 1.615 . S
C1552 C1321 1.922 . S
C1557 C343 1.118 . S
C1562 C1146 1.479 . S
C1572 C1199 1.741 . S
C1567 C55 1.435 . S
C1582 C1259 1.613 . S
C1577 C11 1.090 . S
C1587 C143 1.096 . S
C1592 C1305 1.320 . S
C1597 C239 1.187 . S
C1602 C1162 1.817 . S
C1607 C371 1.087 . S
C1612 C1215 1.299 . S
C1622 C1163 1.654 . S
C1617 C511 1.199 . S
C1632 C1216 1.369 . S
C1627 C571 1.017 . S
C1637 C739 1.212 . S
C1642 C1252 1.671 . S
C1652 C1312 1.220 . S
C1647 C799 0.992 . S
