# Generated by pormake.
# Topology zzz, (3,6)-cn, num edge types: 1
# Building blocks:
#     Node 0, Type 0, BuildingBlock: VETTIZ_charged_linker_0, # of connection points: 3
#     Node 1, Type 0, BuildingBlock: VETTIZ_charged_linker_0, # of connection points: 3
#     Node 2, Type 0, BuildingBlock: VETTIZ_charged_linker_0, # of connection points: 3
#     Node 3, Type 0, BuildingBlock: VETTIZ_charged_linker_0, # of connection points: 3
#     Node 4, Type 0, BuildingBlock: VETTIZ_charged_linker_0, # of connection points: 3
#     Node 5, Type 0, BuildingBlock: VETTIZ_charged_linker_0, # of connection points: 3
#     Node 6, Type 0, BuildingBlock: VETTIZ_charged_linker_0, # of connection points: 3
#     Node 7, Type 0, BuildingBlock: VETTIZ_charged_linker_0, # of connection points: 3
#     Node 8, Type 1, BuildingBlock: JUFBIX_clean_sbu_0, # of connection points: 6
#     Node 9, Type 1, BuildingBlock: JUFBIX_clean_sbu_0, # of connection points: 6
#     Node 10, Type 1, BuildingBlock: JUFBIX_clean_sbu_0, # of connection points: 6
#     Node 11, Type 1, BuildingBlock: JUFBIX_clean_sbu_0, # of connection points: 6
#     Edge 12, Type (0, 1), BuildingBlock: EZIPEK_clean_linker_0, # of connection points: 2
#     Edge 13, Type (0, 1), BuildingBlock: EZIPEK_clean_linker_0, # of connection points: 2
#     Edge 14, Type (0, 1), BuildingBlock: EZIPEK_clean_linker_0, # of connection points: 2
#     Edge 15, Type (0, 1), BuildingBlock: EZIPEK_clean_linker_0, # of connection points: 2
#     Edge 16, Type (0, 1), BuildingBlock: EZIPEK_clean_linker_0, # of connection points: 2
#     Edge 17, Type (0, 1), BuildingBlock: EZIPEK_clean_linker_0, # of connection points: 2
#     Edge 18, Type (0, 1), BuildingBlock: EZIPEK_clean_linker_0, # of connection points: 2
#     Edge 19, Type (0, 1), BuildingBlock: EZIPEK_clean_linker_0, # of connection points: 2
#     Edge 20, Type (0, 1), BuildingBlock: EZIPEK_clean_linker_0, # of connection points: 2
#     Edge 21, Type (0, 1), BuildingBlock: EZIPEK_clean_linker_0, # of connection points: 2
#     Edge 22, Type (0, 1), BuildingBlock: EZIPEK_clean_linker_0, # of connection points: 2
#     Edge 23, Type (0, 1), BuildingBlock: EZIPEK_clean_linker_0, # of connection points: 2
#     Edge 24, Type (0, 1), BuildingBlock: EZIPEK_clean_linker_0, # of connection points: 2
#     Edge 25, Type (0, 1), BuildingBlock: EZIPEK_clean_linker_0, # of connection points: 2
#     Edge 26, Type (0, 1), BuildingBlock: EZIPEK_clean_linker_0, # of connection points: 2
#     Edge 27, Type (0, 1), BuildingBlock: EZIPEK_clean_linker_0, # of connection points: 2
#     Edge 28, Type (0, 1), BuildingBlock: EZIPEK_clean_linker_0, # of connection points: 2
#     Edge 29, Type (0, 1), BuildingBlock: EZIPEK_clean_linker_0, # of connection points: 2
#     Edge 30, Type (0, 1), BuildingBlock: EZIPEK_clean_linker_0, # of connection points: 2
#     Edge 31, Type (0, 1), BuildingBlock: EZIPEK_clean_linker_0, # of connection points: 2
#     Edge 32, Type (0, 1), BuildingBlock: EZIPEK_clean_linker_0, # of connection points: 2
#     Edge 33, Type (0, 1), BuildingBlock: EZIPEK_clean_linker_0, # of connection points: 2
#     Edge 34, Type (0, 1), BuildingBlock: EZIPEK_clean_linker_0, # of connection points: 2
#     Edge 35, Type (0, 1), BuildingBlock: EZIPEK_clean_linker_0, # of connection points: 2
# Relax obj value: 0.289
# Max RMSD: 0.234
# Mean RMSD: 0.189
data_MOF--net-zzz--node1-JUFBIX_clean_sbu_0--node2-VETTIZ_charged_linker_0--edge1-EZIPEK_clean_linker_0
_symmetry_space_group_name_H-M    P1
_symmetry_Int_Tables_number       1
_symmetry_cell_setting            triclinic
loop_
_symmetry_equiv_pos_as_xyz
'x, y, z'
_cell_length_a     44.756171
_cell_length_b     45.613162
_cell_length_c     17.767203
_cell_angle_alpha  80.569759
_cell_angle_beta   90.147117
_cell_angle_gamma 85.975791
loop_
_atom_site_label
_atom_site_type_symbol
_atom_site_fract_x
_atom_site_fract_y
_atom_site_fract_z
_atom_type_partial_charge
C0 C 0.81131 0.57653 0.51129 0.0
C1 C 0.83876 0.58797 0.53012 0.0
C2 C 0.84841 0.61363 0.48404 0.0
C3 C 0.81083 0.60961 0.3914 0.0
C4 C 0.79689 0.58883 0.44081 0.0
C5 C 0.76888 0.58047 0.4017 0.0
H6 H 0.69776 0.58962 0.04987 0.0
C7 C 0.79926 0.61059 0.3153 0.0
C8 C 0.77253 0.59636 0.31893 0.0
H9 H 0.66449 0.54795 0.26573 0.0
H10 H 0.70773 0.56291 0.3316 0.0
H11 H 0.73299 0.64752 0.09271 0.0
H12 H 0.74843 0.56206 0.0515 0.0
H13 H 0.78396 0.56271 0.09538 0.0
H14 H 0.77329 0.58712 1.00694 0.0
H15 H 0.73197 0.62984 0.00925 0.0
H16 H 0.76636 0.64259 0.04 0.0
C17 C 0.74119 0.59344 0.43955 0.0
C18 C 0.76951 0.54641 0.40691 0.0
C19 C 0.87373 0.57613 0.13723 0.0
C20 C 0.87231 0.57388 0.05956 0.0
C21 C 0.84923 0.59054 0.01339 0.0
C22 C 0.82578 0.60575 0.0469 0.0
C23 C 0.82581 0.60399 0.1263 0.0
C24 C 0.85101 0.59263 0.16838 0.0
C25 C 0.84934 0.59858 0.2486 0.0
C26 C 0.81673 0.61143 0.24948 0.0
C27 C 0.80247 0.61149 0.17919 0.0
C28 C 0.87255 0.62117 0.25917 0.0
C29 C 0.85548 0.56896 0.30465 0.0
C30 C 0.69929 0.58442 0.11158 0.0
C31 C 0.6774 0.56825 0.15257 0.0
C32 C 0.68078 0.56093 0.23286 0.0
C33 C 0.70581 0.56951 0.27089 0.0
C34 C 0.72814 0.58457 0.22793 0.0
C35 C 0.72488 0.5909 0.14922 0.0
C36 C 0.75277 0.60141 0.11026 0.0
C37 C 0.77215 0.60408 0.17876 0.0
C38 C 0.75767 0.59448 0.24834 0.0
C39 C 0.74565 0.63204 0.06001 0.0
C40 C 0.76548 0.57723 0.06393 0.0
H41 H 0.84249 0.64352 0.37718 0.0
H42 H 0.80287 0.55748 0.54719 0.0
H43 H 0.79106 0.5377 0.38513 0.0
H44 H 0.75129 0.53976 0.37266 0.0
H45 H 0.76714 0.53543 0.46698 0.0
H46 H 0.74289 0.61759 0.44046 0.0
H47 H 0.73938 0.58198 0.49941 0.0
H48 H 0.72022 0.59136 0.40889 0.0
H49 H 0.892 0.56479 0.17301 0.0
H50 H 0.84867 0.59054 0.95243 0.0
H51 H 0.80824 0.61818 0.01122 0.0
H52 H 0.89378 0.61635 0.22967 0.0
H53 H 0.87905 0.61989 0.3198 0.0
H54 H 0.8639 0.64431 0.23565 0.0
H55 H 0.83847 0.55301 0.29716 0.0
H56 H 0.85525 0.57263 0.3645 0.0
H57 H 0.87804 0.55835 0.29636 0.0
H58 H 0.86853 0.62344 0.49889 0.0
C59 C 0.83423 0.62472 0.41434 0.0
C60 C 0.08315 0.86336 0.03882 0.0
C61 C 0.09163 0.89071 0.05519 0.0
C62 C 0.10423 0.89205 0.12713 0.0
C63 C 0.08923 0.84264 0.17235 0.0
C64 C 0.08261 0.83924 0.09871 0.0
C65 C 0.07235 0.80882 0.09534 0.0
H66 H 0.98943 0.70149 0.21868 0.0
C67 C 0.07742 0.81795 0.22464 0.0
C68 C 0.07066 0.79638 0.18096 0.0
H69 H 0.06163 0.69935 0.05726 0.0
H70 H 0.08441 0.73832 0.11166 0.0
H71 H 0.04184 0.71457 0.35875 0.0
H72 H 0.97881 0.77888 0.22171 0.0
H73 H 0.97599 0.77721 0.32252 0.0
H74 H 0.96595 0.74619 0.27996 0.0
H75 H 1.00218 0.71041 0.36469 0.0
H76 H 0.01919 0.73723 0.4116 0.0
C77 C 0.09605 0.7922 0.05158 0.0
C78 C 0.04124 0.81159 0.05582 0.0
C79 C 0.02862 0.8511 0.45525 0.0
C80 C 0.00622 0.84089 0.50556 0.0
C81 C 0.99478 0.81318 0.49908 0.0
C82 C 0.00468 0.79704 0.44068 0.0
C83 C 0.0266 0.80843 0.38909 0.0
C84 C 0.03829 0.83495 0.39833 0.0
C85 C 0.06182 0.84423 0.34163 0.0
C86 C 0.06241 0.81913 0.29476 0.0
C87 C 0.0416 0.79793 0.32198 0.0
C88 C 0.09178 0.84418 0.38532 0.0
C89 C 0.05122 0.87522 0.29519 0.0
C90 C 0.0092 0.71061 0.19189 0.0
C91 C 0.02258 0.69873 0.12953 0.0
C92 C 0.04983 0.70935 0.10099 0.0
C93 C 0.06225 0.73271 0.12858 0.0
C94 C 0.0464 0.747 0.18109 0.0
C95 C 0.02207 0.73484 0.21774 0.0
C96 C 0.01441 0.75006 0.28661 0.0
C97 C 0.03733 0.77405 0.28009 0.0
C98 C 0.05427 0.77244 0.21439 0.0
C99 C 0.01953 0.72688 0.3597 0.0
C100 C 0.98196 0.76386 0.27757 0.0
H101 H 0.11233 0.86954 0.24104 0.0
H102 H 0.07446 0.86177 0.98283 0.0
H103 H 0.02475 0.82485 0.08571 0.0
H104 H 0.03272 0.78936 0.05559 0.0
H105 H 0.04234 0.82255 0.99538 0.0
H106 H 0.10644 0.80769 1.00579 0.0
H107 H 0.08589 0.77589 0.02125 0.0
H108 H 0.11436 0.78091 0.09049 0.0
H109 H 0.03834 0.87189 0.45947 0.0
H110 H 0.97789 0.80434 0.53827 0.0
H111 H 0.99495 0.77645 0.43737 0.0
H112 H 0.09427 0.82512 0.43332 0.0
H113 H 0.093 0.86507 0.40944 0.0
H114 H 0.11141 0.84142 0.34892 0.0
H115 H 0.03962 0.87273 0.24161 0.0
H116 H 0.06981 0.88991 0.2824 0.0
H117 H 0.035 0.88819 0.32631 0.0
H118 H 0.11172 0.91282 0.13972 0.0
C119 C 0.10355 0.86762 0.18597 0.0
C120 C 0.84944 1.00309 0.1588 0.0
C121 C 0.86261 0.99369 0.09298 0.0
C122 C 0.84828 0.97302 0.05723 0.0
C123 C 0.80622 0.97615 0.13958 0.0
C124 C 0.82095 0.99343 0.18201 0.0
C125 C 0.80251 0.99838 0.25188 0.0
H126 H 0.67177 0.96389 0.44589 0.0
C127 C 0.77746 0.96996 0.17295 0.0
C128 C 0.77518 0.9805 0.2427 0.0
H129 H 0.73301 0.02577 0.50261 0.0
H130 H 0.76673 0.01371 0.40062 0.0
H131 H 0.66119 0.98833 0.31407 0.0
H132 H 0.71601 0.91238 0.38738 0.0
H133 H 0.69885 0.90701 0.30159 0.0
H134 H 0.67597 0.91824 0.37689 0.0
H135 H 0.65264 0.95657 0.27684 0.0
H136 H 0.67411 0.9851 0.22281 0.0
C137 C 0.79361 0.03193 0.24547 0.0
C138 C 0.82068 0.9857 0.32499 0.0
C139 C 0.68669 0.97131 0.00926 0.0
C140 C 0.65694 0.96839 0.0337 0.0
C141 C 0.65176 0.95003 0.10389 0.0
C142 C 0.67551 0.93793 0.15221 0.0
C143 C 0.70384 0.94764 0.1349 0.0
C144 C 0.71003 0.96128 0.06222 0.0
C145 C 0.74259 0.9674 0.0551 0.0
C146 C 0.75271 0.95949 0.1393 0.0
C147 C 0.72873 0.95077 0.18556 0.0
C148 C 0.74582 1.00062 0.02317 0.0
C149 C 0.75735 0.94698 1.00238 0.0
C150 C 0.69288 0.97426 0.43802 0.0
C151 C 0.69977 0.9955 0.48191 0.0
C152 C 0.72717 1.0092 0.46897 0.0
C153 C 0.74643 1.00247 0.40949 0.0
C154 C 0.73757 0.98273 0.36149 0.0
C155 C 0.7108 0.96952 0.37654 0.0
C156 C 0.70057 0.95451 0.31381 0.0
C157 C 0.7268 0.95833 0.26003 0.0
C158 C 0.749 0.97462 0.28782 0.0
C159 C 0.67076 0.97172 0.27983 0.0
C160 C 0.69745 0.92126 0.34635 0.0
H161 H 0.81157 0.94559 0.05915 0.0
H162 H 0.8608 0.0176 0.19007 0.0
H163 H 0.8285 0.96204 0.32467 0.0
H164 H 0.80719 0.98642 0.37672 0.0
H165 H 0.84065 0.99852 0.32942 0.0
H166 H 0.78314 0.04081 0.18872 0.0
H167 H 0.81363 0.04444 0.25208 0.0
H168 H 0.77718 0.03668 0.28881 0.0
H169 H 0.69128 0.98377 0.95375 0.0
H170 H 0.62925 0.94627 0.1236 0.0
H171 H 0.67078 0.92393 0.20477 0.0
H172 H 0.73381 0.01515 0.0595 0.0
H173 H 0.73662 1.00651 0.96409 0.0
H174 H 0.76972 1.00569 0.02103 0.0
H175 H 0.74174 0.94413 0.95569 0.0
H176 H 0.76407 0.92448 0.03468 0.0
H177 H 0.77697 0.95682 0.97284 0.0
H178 H 0.85872 0.96406 0.01007 0.0
C179 C 0.82061 0.96349 0.08213 0.0
C180 C 0.5129 0.70805 0.46008 0.0
C181 C 0.52648 0.67848 0.48171 0.0
C182 C 0.54584 0.66662 0.43001 0.0
C183 C 0.52961 0.70711 0.33201 0.0
C184 C 0.51632 0.72279 0.38376 0.0
C185 C 0.50507 0.75387 0.34219 0.0
H186 H 0.47846 0.84032 0.98599 0.0
C187 C 0.52205 0.72204 0.25554 0.0
C188 C 0.51307 0.75184 0.25815 0.0
H189 H 0.51993 0.87343 0.17119 0.0
H190 H 0.52329 0.82275 0.24682 0.0
H191 H 0.52369 0.79347 0.98745 0.0
H192 H 0.43756 0.78168 0.09431 0.0
H193 H 0.44504 0.7576 0.02651 0.0
H194 H 0.44257 0.79699 0.99562 0.0
H195 H 0.49114 0.78844 0.93302 0.0
H196 H 0.5143 0.75716 0.98284 0.0
C197 C 0.52143 0.77774 0.37432 0.0
C198 C 0.47096 0.75863 0.35102 0.0
C199 C 0.47236 0.65494 0.10179 0.0
C200 C 0.46548 0.65757 0.0238 0.0
C201 C 0.46737 0.68532 0.97633 0.0
C202 C 0.47663 0.70987 1.00644 0.0
C203 C 0.48544 0.7061 0.08373 0.0
C204 C 0.48476 0.67848 0.12867 0.0
C205 C 0.50113 0.6765 0.20332 0.0
C206 C 0.5107 0.70832 0.19672 0.0
C207 C 0.499 0.7259 0.12981 0.0
C208 C 0.52786 0.65272 0.208 0.0
C209 C 0.47893 0.66886 0.2687 0.0
C210 C 0.48656 0.83716 0.04451 0.0
C211 C 0.49775 0.86095 0.07374 0.0
C212 C 0.5101 0.85559 0.14865 0.0
C213 C 0.51137 0.82669 0.19308 0.0
C214 C 0.49956 0.80323 0.163 0.0
C215 C 0.48844 0.80862 0.0886 0.0
C216 C 0.48445 0.78037 0.05789 0.0
C217 C 0.49608 0.75728 0.12454 0.0
C218 C 0.50311 0.77045 0.18822 0.0
C219 C 0.50417 0.77973 0.98627 0.0
C220 C 0.45064 0.7789 0.04246 0.0
H221 H 0.56216 0.67173 0.31517 0.0
H222 H 0.49893 0.71836 0.49947 0.0
H223 H 0.45934 0.74063 0.33037 0.0
H224 H 0.4624 0.7803 0.31728 0.0
H225 H 0.46517 0.75865 0.4118 0.0
H226 H 0.54492 0.77821 0.35427 0.0
H227 H 0.52186 0.77313 0.43774 0.0
H228 H 0.50963 0.80005 0.35775 0.0
H229 H 0.47155 0.63367 0.13898 0.0
H230 H 0.4627 0.68768 0.9157 0.0
H231 H 0.47787 0.73046 0.96788 0.0
H232 H 0.52279 0.63371 0.17957 0.0
H233 H 0.53325 0.64231 0.26763 0.0
H234 H 0.54807 0.66239 0.18072 0.0
H235 H 0.46052 0.68668 0.26649 0.0
H236 H 0.49037 0.66617 0.32474 0.0
H237 H 0.46895 0.64747 0.26548 0.0
H238 H 0.55763 0.64489 0.44611 0.0
C239 C 0.54767 0.68111 0.35492 0.0
C240 C 0.30191 0.48194 0.3667 0.0
C241 C 0.31513 0.47375 0.44112 0.0
C242 C 0.30252 0.45164 0.49388 0.0
C243 C 0.26063 0.45282 0.40947 0.0
C244 C 0.27458 0.46985 0.35119 0.0
C245 C 0.25488 0.47402 0.27878 0.0
H246 H 0.11228 0.45611 0.14387 0.0
C247 C 0.23038 0.44926 0.38714 0.0
C248 C 0.22647 0.45878 0.30877 0.0
H249 H 0.18345 0.49535 0.00911 0.0
H250 H 0.21765 0.48366 0.12028 0.0
H251 H 0.15082 0.40009 0.26436 0.0
H252 H 0.12887 0.48688 0.33025 0.0
H253 H 0.10175 0.45884 0.33582 0.0
H254 H 0.10743 0.4822 0.24963 0.0
H255 H 0.11238 0.41504 0.2584 0.0
H256 H 0.13128 0.40489 0.34929 0.0
C257 C 0.27111 0.45775 0.21963 0.0
C258 C 0.24816 0.50752 0.24962 0.0
C259 C 0.14946 0.48803 0.54263 0.0
C260 C 0.11848 0.48474 0.54442 0.0
C261 C 0.10703 0.46117 0.51314 0.0
C262 C 0.12558 0.44427 0.47042 0.0
C263 C 0.15533 0.45131 0.46001 0.0
C264 C 0.1677 0.46959 0.50383 0.0
C265 C 0.20107 0.46853 0.49704 0.0
C266 C 0.20549 0.449 0.43478 0.0
C267 C 0.17781 0.44329 0.40593 0.0
C268 C 0.21532 0.45433 0.57478 0.0
C269 C 0.21108 0.50036 0.4714 0.0
C270 C 0.13547 0.46146 0.13779 0.0
C271 C 0.14535 0.47611 0.06818 0.0
C272 C 0.1755 0.48357 0.06235 0.0
C273 C 0.19514 0.47704 0.12668 0.0
C274 C 0.18417 0.46373 0.1975 0.0
C275 C 0.15454 0.45656 0.20168 0.0
C276 C 0.14462 0.44675 0.28161 0.0
C277 C 0.17379 0.44703 0.32537 0.0
C278 C 0.19737 0.45673 0.27615 0.0
C279 C 0.13409 0.41493 0.28895 0.0
C280 C 0.11956 0.46975 0.30091 0.0
H281 H 0.26511 0.42478 0.51968 0.0
H282 H 0.31166 0.49816 0.32426 0.0
H283 H 0.23871 0.51884 0.29605 0.0
H284 H 0.23169 0.51161 0.20203 0.0
H285 H 0.26894 0.51811 0.2295 0.0
H286 H 0.27771 0.43424 0.24499 0.0
H287 H 0.29174 0.46877 0.20012 0.0
H288 H 0.25684 0.45721 0.16925 0.0
H289 H 0.15899 0.50506 0.56906 0.0
H290 H 0.08346 0.45728 0.51752 0.0
H291 H 0.11634 0.42717 0.44421 0.0
H292 H 0.20378 0.46346 0.62218 0.0
H293 H 0.239 0.45952 0.5789 0.0
H294 H 0.21385 0.42977 0.58502 0.0
H295 H 0.19991 0.51082 0.41662 0.0
H296 H 0.2356 0.50009 0.46334 0.0
H297 H 0.20564 0.51473 0.51498 0.0
H298 H 0.31275 0.44432 0.54978 0.0
C299 C 0.27519 0.44103 0.47803 0.0
C300 C 0.95736 0.19578 0.53622 0.0
C301 C 0.93281 0.17976 0.52231 0.0
C302 C 0.91346 0.19048 0.45974 0.0
C303 C 0.94922 0.22581 0.41252 0.0
C304 C 0.96494 0.21928 0.4805 0.0
C305 C 0.99091 0.23846 0.48207 0.0
H306 H 1.00015 0.37432 0.35638 0.0
C307 C 0.96595 0.24606 0.3593 0.0
C308 C 0.98955 0.25516 0.40006 0.0
H309 H 0.04671 0.32327 0.55479 0.0
H310 H 0.04576 0.27826 0.49672 0.0
H311 H 0.04503 0.32475 0.22277 0.0
H312 H 0.95343 0.32634 0.30562 0.0
H313 H 0.96012 0.33086 0.20451 0.0
H314 H 0.96741 0.36034 0.25643 0.0
H315 H 0.02302 0.35985 0.21288 0.0
H316 H 0.01382 0.33244 0.15615 0.0
C317 C 0.02023 0.21852 0.49857 0.0
C318 C 0.98447 0.25871 0.54282 0.0
C319 C 0.98358 0.21974 0.10361 0.0
C320 C 0.00759 0.22567 0.0541 0.0
C321 C 0.0241 0.25063 0.06087 0.0
C322 C 0.0178 0.26785 0.1194 0.0
C323 C 0.99423 0.26064 0.16957 0.0
C324 C 0.97774 0.23676 0.16161 0.0
C325 C 0.95601 0.23027 0.22553 0.0
C326 C 0.96608 0.25106 0.27861 0.0
C327 C 0.98567 0.27134 0.24151 0.0
C328 C 0.95963 0.19674 0.26082 0.0
C329 C 0.92422 0.23966 0.19271 0.0
C330 C 0.01072 0.35368 0.38676 0.0
C331 C 0.02163 0.35189 0.46292 0.0
C332 C 0.03678 0.32492 0.49844 0.0
C333 C 0.03564 0.29897 0.46645 0.0
C334 C 0.01987 0.30037 0.39809 0.0
C335 C 0.0117 0.32733 0.35369 0.0
C336 C 1.00092 0.32222 0.27571 0.0
C337 C 1.00268 0.28797 0.28522 0.0
C338 C 0.00841 0.2766 0.36273 0.0
C339 C 0.02199 0.33555 0.21318 0.0
C340 C 0.96855 0.33575 0.25969 0.0
H341 H 0.90702 0.22184 0.35631 0.0
H342 H 0.97178 0.18838 0.58573 0.0
H343 H 0.96904 0.27827 0.51965 0.0
H344 H 0.00508 0.26638 0.565 0.0
H345 H 0.97384 0.24646 0.59393 0.0
H346 H 0.02186 0.2012 0.4611 0.0
H347 H 0.02132 0.20718 0.55894 0.0
H348 H 0.04014 0.23156 0.48773 0.0
H349 H 0.97034 0.20117 0.09871 0.0
H350 H 0.04264 0.25587 0.02318 0.0
H351 H 0.03181 0.28556 0.12665 0.0
H352 H 0.98072 0.19149 0.29505 0.0
H353 H 0.96001 0.18206 0.21693 0.0
H354 H 0.94051 0.18976 0.2966 0.0
H355 H 0.91837 0.22549 0.15032 0.0
H356 H 0.9227 0.26327 0.16367 0.0
H357 H 0.90703 0.23771 0.23717 0.0
H358 H 0.894 0.17874 0.44974 0.0
C359 C 0.9214 0.2143 0.40503 0.0
C360 C 0.29003 0.07051 0.1423 0.0
C361 C 0.3132 0.09051 0.12581 0.0
C362 C 0.31144 0.1166 0.15988 0.0
C363 C 0.27428 0.09575 0.24589 0.0
C364 C 0.26918 0.07513 0.20013 0.0
C365 C 0.24275 0.05771 0.231 0.0
H366 H 0.15635 0.03037 0.55524 0.0
C367 C 0.25896 0.08798 0.31817 0.0
C368 C 0.23542 0.07048 0.30454 0.0
H369 H 0.1151 0.07357 0.34256 0.0
H370 H 0.16533 0.07532 0.28197 0.0
H371 H 0.20112 0.98778 0.51619 0.0
H372 H 0.2105 0.07466 0.55435 0.0
H373 H 0.23763 0.04695 0.60197 0.0
H374 H 0.19902 0.04167 0.61431 0.0
H375 H 0.22818 0.99326 0.58454 0.0
H376 H 0.23918 0.991 0.488 0.0
C377 C 0.25211 0.02408 0.24814 0.0
C378 C 0.21631 0.06403 0.17408 0.0
C379 C 0.33519 0.06595 0.53478 0.0
C380 C 0.33978 0.04009 0.58935 0.0
C381 C 0.31719 0.02014 0.60371 0.0
C382 C 0.29039 0.02562 0.56163 0.0
C383 C 0.28616 0.05152 0.50705 0.0
C384 C 0.30865 0.07067 0.4918 0.0
C385 C 0.30326 0.09181 0.41754 0.0
C386 C 0.27375 0.08157 0.39088 0.0
C387 C 0.26357 0.05937 0.4469 0.0
C388 C 0.32974 0.08727 0.36419 0.0
C389 C 0.29938 0.12401 0.43327 0.0
C390 C 0.15793 0.03965 0.49535 0.0
C391 C 0.13215 0.05168 0.45367 0.0
C392 C 0.13481 0.06397 0.37552 0.0
C393 C 0.16328 0.06461 0.3405 0.0
C394 C 0.18875 0.05249 0.38412 0.0
C395 C 0.18585 0.04094 0.46066 0.0
C396 C 0.21553 0.03414 0.50157 0.0
C397 C 0.23591 0.04753 0.43863 0.0
C398 C 0.22093 0.05477 0.36837 0.0
C399 C 0.22141 0.99984 0.5236 0.0
C400 C 0.21574 0.05029 0.57181 0.0
H401 H 0.29352 0.13738 0.25234 0.0
H402 H 0.28939 0.05108 0.11478 0.0
H403 H 0.2089 0.08815 0.16382 0.0
H404 H 0.19709 0.05123 0.19628 0.0
H405 H 0.22283 0.0574 0.11859 0.0
H406 H 0.27145 0.01961 0.28882 0.0
H407 H 0.25861 0.01552 0.19501 0.0
H408 H 0.23328 1.01141 0.27378 0.0
H409 H 0.3528 0.08111 0.52292 0.0
H410 H 0.32079 0.99997 0.64526 0.0
H411 H 0.27437 1.00908 0.56979 0.0
H412 H 0.32667 0.06777 0.33551 0.0
H413 H 0.35167 0.08311 0.39451 0.0
H414 H 0.33261 0.10756 0.32236 0.0
H415 H 0.3206 0.13069 0.45592 0.0
H416 H 0.28154 0.12628 0.47583 0.0
H417 H 0.29296 0.13973 0.3804 0.0
H418 H 0.32743 0.13332 0.14527 0.0
C419 C 0.29237 0.11897 0.22141 0.0
C420 C 0.48094 0.3477 0.14199 0.0
C421 C 0.47998 0.379 0.11476 0.0
C422 C 0.48733 0.39808 0.16496 0.0
C423 C 0.50031 0.35613 0.26392 0.0
C424 C 0.49089 0.33671 0.2184 0.0
C425 C 0.49407 0.30465 0.26183 0.0
H426 H 0.52881 0.21791 0.61463 0.0
C427 C 0.51273 0.33895 0.33577 0.0
C428 C 0.50882 0.30852 0.33776 0.0
H429 H 0.49613 0.18518 0.41788 0.0
H430 H 0.49758 0.23506 0.34147 0.0
H431 H 0.5795 0.24625 0.52409 0.0
H432 H 0.49595 0.28564 0.59277 0.0
H433 H 0.52633 0.3047 0.61995 0.0
H434 H 0.52476 0.26596 0.65614 0.0
H435 H 0.57624 0.25901 0.61397 0.0
H436 H 0.5861 0.28346 0.52825 0.0
C437 C 0.51451 0.28529 0.21713 0.0
C438 C 0.46258 0.29325 0.27368 0.0
C439 C 0.55653 0.39758 0.51942 0.0
C440 C 0.5681 0.38973 0.59351 0.0
C441 C 0.57718 0.3597 0.62128 0.0
C442 C 0.56996 0.33736 0.57977 0.0
C443 C 0.55421 0.34557 0.50982 0.0
C444 C 0.54955 0.37531 0.47921 0.0
C445 C 0.53302 0.38053 0.40486 0.0
C446 C 0.52813 0.34887 0.39522 0.0
C447 C 0.53955 0.32856 0.45772 0.0
C448 C 0.55418 0.39593 0.34366 0.0
C449 C 0.50282 0.39854 0.41548 0.0
C450 C 0.52153 0.22138 0.55544 0.0
C451 C 0.5116 0.19763 0.52346 0.0
C452 C 0.50325 0.20319 0.44491 0.0
C453 C 0.50396 0.23208 0.40071 0.0
C454 C 0.51393 0.25555 0.43457 0.0
C455 C 0.52353 0.24933 0.51019 0.0
C456 C 0.53784 0.27477 0.53539 0.0
C457 C 0.53304 0.29834 0.46517 0.0
C458 C 0.51833 0.28771 0.40538 0.0
C459 C 0.57161 0.26552 0.5518 0.0
C460 C 0.52048 0.28332 0.60489 0.0
H461 H 0.50344 0.40328 0.27129 0.0
H462 H 0.47502 0.33249 0.10452 0.0
H463 H 0.44796 0.30882 0.3019 0.0
H464 H 0.46305 0.27117 0.31002 0.0
H465 H 0.45205 0.29155 0.21799 0.0
H466 H 0.53588 0.29588 0.203 0.0
H467 H 0.50347 0.2825 0.16291 0.0
H468 H 0.52031 0.26296 0.25048 0.0
H469 H 0.54984 0.42063 0.49636 0.0
H470 H 0.587 0.3534 0.67791 0.0
H471 H 0.57511 0.31467 0.60591 0.0
H472 H 0.57819 0.39003 0.35951 0.0
H473 H 0.55055 0.42057 0.33648 0.0
H474 H 0.5518 0.38878 0.28754 0.0
H475 H 0.49529 0.3944 0.47573 0.0
H476 H 0.48399 0.39197 0.38285 0.0
H477 H 0.50483 0.42289 0.3995 0.0
H478 H 0.48656 0.42197 0.14588 0.0
C479 C 0.49746 0.38697 0.23836 0.0
Co480 Co 0.00924 0.04916 0.81173 0.0
C481 C 0.96017 0.02099 0.88855 0.0
Co482 Co 0.98978 0.01328 0.75729 0.0
C483 C 0.01917 0.10913 0.85294 0.0
C484 C 0.03187 0.07204 0.93971 0.0
N485 N 0.02238 0.07875 0.86624 0.0
N486 N 0.0258 0.12116 0.91579 0.0
C487 C 0.03398 0.09767 0.96974 0.0
H488 H 0.01053 0.12211 0.79987 0.0
H489 H 0.03523 0.04979 0.9718 0.0
C490 C 0.03842 0.04108 0.67925 0.0
N491 N 0.9766 0.98352 0.70338 0.0
C492 C 0.9837 0.95356 0.71332 0.0
C493 C 0.96316 0.9896 0.63381 0.0
N494 N 0.97598 0.94128 0.65184 0.0
C495 C 0.96283 0.96406 0.60247 0.0
C496 C 0.96388 0.06993 0.7068 0.0
O497 O 0.03891 0.05659 0.73316 0.0
O498 O 0.01886 0.02206 0.68042 0.0
O499 O 0.96257 0.04263 0.70143 0.0
O500 O 0.98219 0.0776 0.75349 0.0
O501 O 0.96052 1.00549 0.83481 0.0
H502 H 0.9557 1.01154 0.60459 0.0
H503 H 0.996 0.94126 0.76238 0.0
O504 O 0.97931 0.04044 0.88867 0.0
O505 O 0.03639 0.02005 0.86797 0.0
O506 O 0.01754 0.98486 0.81535 0.0
C507 C 0.03606 0.99284 0.86112 0.0
H508 H 0.0399 0.09895 0.02819 0.0
H509 H 0.95478 0.96255 0.5458 0.0
Co510 Co 0.49265 0.03788 0.84651 0.0
C511 C 0.50069 0.97487 0.86679 0.0
Co512 Co 0.51726 0.0201 0.7534 0.0
C513 C 0.44029 0.06416 0.9208 0.0
C514 C 0.47196 0.03743 0.99797 0.0
N515 N 0.46804 0.04969 0.9239 0.0
N516 N 0.42665 0.0604 0.98948 0.0
C517 C 0.44675 0.04367 0.03778 0.0
H518 H 0.42975 0.07612 0.86905 0.0
H519 H 0.49123 0.02319 0.02104 0.0
C520 C 0.50885 0.08279 0.72935 0.0
N521 N 0.54292 1.00713 0.68033 0.0
C522 C 0.57019 0.01754 0.66326 0.0
C523 C 0.54171 0.98374 0.64306 0.0
N524 N 0.58607 1.00149 0.61774 0.0
C525 C 0.56825 0.98021 0.60458 0.0
C526 C 0.45763 0.02745 0.72488 0.0
O527 O 0.4944 0.07891 0.79207 0.0
O528 O 0.52195 0.06031 0.70648 0.0
O529 O 0.48197 0.02059 0.6923 0.0
O530 O 0.4585 0.03399 0.79132 0.0
O531 O 0.51186 0.97946 0.80033 0.0
H532 H 0.52334 0.9694 0.64641 0.0
H533 H 0.57887 0.03579 0.68656 0.0
O534 O 0.49119 0.99735 0.89607 0.0
O535 O 0.52802 0.0407 0.90425 0.0
O536 O 0.55139 0.01954 0.81666 0.0
C537 C 0.55188 0.02889 0.87993 0.0
H538 H 0.4432 0.0361 0.0979 0.0
H539 H 0.57438 0.96285 0.57146 0.0
Co540 Co 0.51676 0.52469 0.8213 0.0
C541 C 0.48012 0.47639 0.87456 0.0
Co542 Co 0.47327 0.52488 0.75995 0.0
C543 C 0.56589 0.54047 0.91864 0.0
C544 C 0.56712 0.49456 0.90596 0.0
N545 N 0.55183 0.52111 0.88252 0.0
N546 N 0.58909 0.52671 0.96352 0.0
C547 C 0.58969 0.49788 0.95555 0.0
H548 H 0.55904 0.56397 0.9132 0.0
H549 H 0.56187 0.47378 0.88914 0.0
C550 C 0.50981 0.57305 0.70621 0.0
N551 N 0.43823 0.52878 0.69841 0.0
C552 C 0.42425 0.50933 0.66244 0.0
C553 C 0.42363 0.55547 0.67235 0.0
N554 N 0.40199 0.52314 0.61455 0.0
C555 C 0.40176 0.55214 0.62079 0.0
C556 C 0.4696 0.55627 0.87943 0.0
O557 O 0.52945 0.55988 0.75492 0.0
O558 O 0.48506 0.56129 0.70219 0.0
O559 O 0.45353 0.54718 0.83003 0.0
O560 O 0.49758 0.54899 0.88269 0.0
O561 O 0.46217 0.48799 0.82003 0.0
H562 H 0.42905 0.57638 0.68833 0.0
H563 H 0.43051 0.48569 0.66993 0.0
O564 O 0.50344 0.48972 0.88575 0.0
O565 O 0.53531 0.49994 0.75907 0.0
O566 O 0.49377 0.50247 0.69153 0.0
C567 C 0.52066 0.49191 0.70575 0.0
H568 H 0.60553 0.48044 0.98358 0.0
H569 H 0.38656 0.56966 0.59044 0.0
Co570 Co 0.99487 0.55316 0.80138 0.0
C571 C 0.03947 0.51013 0.87321 0.0
Co572 Co 0.99027 0.5065 0.78184 0.0
C573 C 0.99721 0.59569 0.90718 0.0
C574 C 1.00128 0.61685 0.79129 0.0
N575 N 0.99781 0.5901 0.83435 0.0
N576 N 1.00056 0.62465 0.91111 0.0
C577 C 1.00304 0.63803 0.83817 0.0
H578 H 0.99473 0.57883 0.95674 0.0
H579 H 1.00259 0.62072 0.72973 0.0
C580 C 0.94548 0.54939 0.71173 0.0
N581 N 0.98646 0.46987 0.74728 0.0
C582 C 0.00496 0.4548 0.70366 0.0
C583 C 0.95987 0.45801 0.74293 0.0
N584 N 0.99054 0.43467 0.67117 0.0
C585 C 0.96224 0.43676 0.69633 0.0
C586 C 0.95878 0.51732 0.90311 0.0
O587 O 0.95963 0.56823 0.74082 0.0
O588 O 0.95587 0.52238 0.7211 0.0
O589 O 0.96466 0.49607 0.86607 0.0
O590 O 0.97036 0.54194 0.88353 0.0
O591 O 0.02488 0.49126 0.84499 0.0
H592 H 0.93935 0.46588 0.7673 0.0
H593 H 0.028 0.45968 0.69225 0.0
O594 O 0.0298 0.53749 0.86069 0.0
O595 O 0.01987 0.56375 0.71794 0.0
O596 O 0.01574 0.51765 0.69958 0.0
C597 C 0.02701 0.54258 0.6817 0.0
H598 H 0.00603 0.66147 0.8202 0.0
H599 H 0.94423 0.42425 0.68029 0.0
C600 C 0.0918 0.02301 0.52104 0.0
C601 C 0.10315 0.05104 0.49569 0.0
C602 C 0.06711 0.07357 0.57798 0.0
C603 C 0.06016 0.04469 0.61442 0.0
N604 N 0.06968 0.99101 0.62426 0.0
N605 N 0.10319 0.10322 0.50425 0.0
C606 C 0.07321 0.01913 0.58631 0.0
C607 C 0.09108 0.07647 0.52489 0.0
N608 N 0.09915 0.99991 0.48281 0.0
N609 N 0.05004 0.0982 0.59111 0.0
H610 H 0.12009 0.10641 0.46406 0.0
H611 H 0.09774 0.12164 0.53062 0.0
H612 H 0.0313 0.09702 0.62592 0.0
H613 H 0.05239 0.11945 0.56069 0.0
H614 H 0.08927 0.97965 0.49352 0.0
H615 H 0.11276 1.00224 0.43486 0.0
H616 H 0.0815 0.97209 0.61089 0.0
H617 H 0.05748 0.98639 0.67394 0.0
C618 C 0.48481 0.15133 0.5797 0.0
C619 C 0.51111 0.16728 0.57318 0.0
C620 C 0.53416 0.12987 0.67766 0.0
C621 C 0.50901 0.11261 0.67838 0.0
N622 N 0.46618 0.10242 0.60652 0.0
N623 N 0.5641 0.16574 0.60208 0.0
C624 C 0.48595 0.12199 0.62261 0.0
C625 C 0.53678 0.15483 0.61836 0.0
N626 N 0.45835 0.16426 0.54769 0.0
N627 N 0.55565 0.12246 0.73343 0.0
H628 H 0.56742 0.18239 0.55576 0.0
H629 H 0.58392 0.15591 0.6288 0.0
H630 H 0.55427 0.10436 0.77719 0.0
H631 H 0.57314 0.1358 0.73996 0.0
H632 H 0.4382 0.15413 0.55679 0.0
H633 H 0.45589 0.18621 0.51946 0.0
H634 H 0.45041 0.1076 0.56215 0.0
H635 H 0.4682 0.08001 0.6309 0.0
C636 C 0.36946 0.48372 0.46338 0.0
C637 C 0.3384 0.49074 0.4724 0.0
C638 C 0.34989 0.51543 0.58073 0.0
C639 C 0.38098 0.51048 0.56873 0.0
N640 N 0.42048 0.49497 0.48912 0.0
N641 N 0.29975 0.51986 0.52684 0.0
C642 C 0.39086 0.49602 0.50723 0.0
C643 C 0.32894 0.5089 0.52677 0.0
N644 N 0.37843 0.46471 0.41462 0.0
N645 N 0.34033 0.52498 0.64613 0.0
H646 H 0.28402 0.51595 0.48689 0.0
H647 H 0.29202 0.53529 0.56081 0.0
H648 H 0.35511 0.52827 0.68899 0.0
H649 H 0.31792 0.52637 0.66166 0.0
H650 H 0.40047 0.45605 0.41158 0.0
H651 H 0.36333 0.45639 0.38 0.0
H652 H 0.42878 0.48722 0.44076 0.0
H653 H 0.43644 0.50421 0.51922 0.0
C654 C 0.99686 0.36614 0.57991 0.0
C655 C 0.01316 0.37504 0.51237 0.0
C656 C 0.01421 0.42512 0.54787 0.0
C657 C 1.00145 0.41457 0.61988 0.0
N658 N 0.98894 0.37233 0.71094 0.0
N659 N 0.04159 0.41221 0.43814 0.0
C660 C 0.99543 0.3842 0.63773 0.0
C661 C 0.02314 0.40436 0.498 0.0
N662 N 0.98161 0.34092 0.58784 0.0
N663 N 0.01646 0.45494 0.52531 0.0
H664 H 0.04849 0.3976 0.40111 0.0
H665 H 0.05185 0.43227 0.42899 0.0
H666 H 0.00914 0.47076 0.55856 0.0
H667 H 0.02307 0.46414 0.47086 0.0
H668 H 0.96744 0.33485 0.63335 0.0
H669 H 0.98024 0.32812 0.54458 0.0
H670 H 0.98677 0.34964 0.7285 0.0
H671 H 0.9893 0.38463 0.75554 0.0
C672 C 0.89226 0.03272 0.0142 0.0
C673 C 0.89143 1.00402 0.05897 0.0
C674 C 0.93716 0.98716 0.99719 0.0
C675 C 0.93807 0.0159 0.95194 0.0
N676 N 0.92113 0.06827 0.93439 0.0
N677 N 0.91766 0.95723 0.10982 0.0
C678 C 0.91732 0.03946 0.96647 0.0
C679 C 0.91557 0.9824 0.05598 0.0
N680 N 0.86821 0.05299 0.0131 0.0
N681 N 0.95646 0.96414 0.98325 0.0
H682 H 0.90221 0.95356 0.15372 0.0
H683 H 0.93606 0.9417 0.11567 0.0
H684 H 0.97355 0.96669 0.94354 0.0
H685 H 0.95451 0.94205 1.00807 0.0
H686 H 0.86565 0.07268 0.9739 0.0
H687 H 0.84975 0.04928 0.0481 0.0
H688 H 0.90863 0.08643 0.94985 0.0
H689 H 0.93831 0.07449 0.8972 0.0
C690 C 0.52416 0.89532 0.97261 0.0
C691 C 0.49918 0.89028 0.02134 0.0
C692 C 0.47356 0.93726 0.95696 0.0
C693 C 0.49955 0.94408 0.9132 0.0
N694 N 0.54922 0.92837 0.87482 0.0
N695 N 0.45169 0.90775 0.06658 0.0
C696 C 0.52468 0.9226 0.91917 0.0
C697 C 0.47437 0.91165 0.0153 0.0
N698 N 0.54791 0.87436 0.98017 0.0
N699 N 0.44729 0.95423 0.93908 0.0
H700 H 0.45121 0.88903 0.10897 0.0
H701 H 0.43469 0.9241 0.07135 0.0
H702 H 0.44508 0.97174 0.89315 0.0
H703 H 0.42684 0.94893 0.96354 0.0
H704 H 0.56776 0.87634 0.95026 0.0
H705 H 0.54826 0.85448 0.01879 0.0
H706 H 0.56676 0.91284 0.86864 0.0
H707 H 0.55295 0.94917 0.84414 0.0
C708 C 0.66252 0.53934 0.0508 0.0
C709 C 0.65359 0.5563 0.10841 0.0
C710 C 0.601 0.55177 0.07384 0.0
C711 C 0.61033 0.5391 0.00921 0.0
N712 N 0.65046 0.52687 0.92761 0.0
N713 N 0.61355 0.58288 0.16606 0.0
C714 C 0.6413 0.53478 0.99516 0.0
C715 C 0.62255 0.56372 0.11768 0.0
N716 N 0.69103 0.52648 0.05096 0.0
N717 N 0.57188 0.55095 0.0958 0.0
H718 H 0.62856 0.59248 0.19797 0.0
H719 H 0.59136 0.59117 0.16919 0.0
H720 H 0.55597 0.54142 0.06638 0.0
H721 H 0.56436 0.55716 0.14681 0.0
H722 H 0.69791 0.51191 0.01387 0.0
H723 H 0.70669 0.52754 0.09383 0.0
H724 H 0.67284 0.52589 0.91152 0.0
H725 H 0.63538 0.52455 0.88446 0.0
C726 C 0.9858 0.68232 0.03859 0.0
C727 C 0.00994 0.67497 0.09202 0.0
C728 C 0.02537 0.63127 0.03265 0.0
C729 C 1.00164 0.63895 0.97828 0.0
N730 N 0.95434 0.66594 0.94389 0.0
N731 N 0.04641 0.63776 0.15465 0.0
C732 C 0.98019 0.66259 0.98628 0.0
C733 C 0.02739 0.64761 0.09421 0.0
N734 N 0.9694 0.70894 0.03448 0.0
N735 N 0.04726 0.60996 0.02238 0.0
H736 H 0.04808 0.64949 0.20012 0.0
H737 H 0.05803 0.61687 0.16325 0.0
H738 H 0.04726 0.59844 0.97637 0.0
H739 H 0.06673 0.60549 0.05567 0.0
H740 H 0.95402 0.7172 0.99073 0.0
H741 H 0.97232 0.72359 0.07273 0.0
H742 H 0.93651 0.68106 0.95135 0.0
H743 H 0.94968 0.65137 0.90647 0.0
C744 C 0.91938 0.14174 0.6328 0.0
C745 C 0.93274 0.14854 0.56052 0.0
C746 C 0.95831 0.09865 0.57513 0.0
C747 C 0.94797 0.09334 0.65122 0.0
N748 N 0.91225 0.1044 0.74466 0.0
N749 N 0.96351 0.13413 0.45929 0.0
C750 C 0.92636 0.11328 0.67759 0.0
C751 C 0.95108 0.12681 0.52968 0.0
N752 N 0.90131 0.16306 0.65949 0.0
N753 N 0.97543 0.07699 0.54689 0.0
H754 H 0.9579 0.15405 0.42271 0.0
H755 H 0.98035 0.12125 0.43731 0.0
H756 H 0.98254 0.0566 0.57918 0.0
H757 H 0.98115 0.07806 0.48989 0.0
H758 H 0.89313 0.16091 0.71472 0.0
H759 H 0.89508 0.18363 0.62612 0.0
H760 H 0.89515 0.11698 0.76667 0.0
H761 H 0.91602 0.08284 0.77496 0.0
C762 C 0.39023 1.01196 0.60957 0.0
C763 C 0.369 0.03402 0.62891 0.0
C764 C 0.40725 0.05429 0.69777 0.0
C765 C 0.42796 0.03019 0.68662 0.0
N766 N 0.43631 0.98207 0.6465 0.0
N767 N 0.35525 0.07085 0.70777 0.0
C768 C 0.41876 1.00782 0.64645 0.0
C769 C 0.37686 0.05337 0.67859 0.0
N770 N 0.3836 0.99562 0.55456 0.0
N771 N 0.4166 0.07895 0.72287 0.0
H772 H 0.3325 0.07051 0.69519 0.0
H773 H 0.35967 0.08319 0.75052 0.0
H774 H 0.43884 0.08178 0.73495 0.0
H775 H 0.4026 0.09813 0.72387 0.0
H776 H 0.3995 0.98157 0.53277 0.0
H777 H 0.36292 0.99793 0.52628 0.0
H778 H 0.42909 0.964 0.62414 0.0
H779 H 0.45677 0.97743 0.67559 0.0
C780 C 0.57717 0.43949 0.62522 0.0
C781 C 0.56296 0.41249 0.64335 0.0
C782 C 0.519 0.43884 0.68782 0.0
C783 C 0.53338 0.46603 0.67297 0.0
N784 N 0.57742 0.49201 0.63422 0.0
N785 N 0.52578 0.38531 0.71768 0.0
C786 C 0.56305 0.46621 0.64431 0.0
C787 C 0.53575 0.41182 0.68339 0.0
N788 N 0.6035 0.43951 0.58654 0.0
N789 N 0.4894 0.4383 0.70647 0.0
H790 H 0.53769 0.36491 0.7179 0.0
H791 H 0.50764 0.38386 0.75444 0.0
H792 H 0.47749 0.41937 0.70828 0.0
H793 H 0.47563 0.45683 0.71339 0.0
H794 H 0.61356 0.45875 0.56304 0.0
H795 H 0.61479 0.41978 0.57608 0.0
H796 H 0.6001 0.49297 0.62205 0.0
H797 H 0.56671 0.51255 0.64029 0.0
C798 C 0.07396 0.52194 0.52543 0.0
C799 C 0.09777 0.50708 0.57343 0.0
C800 C 0.08129 0.53551 0.67275 0.0
C801 C 0.05358 0.54286 0.63361 0.0
N802 N 0.02353 0.54543 0.52064 0.0
N803 N 0.12335 0.4989 0.69634 0.0
C804 C 0.05014 0.53728 0.5585 0.0
C805 C 0.10172 0.51411 0.64771 0.0
N806 N 0.07443 0.52187 0.44857 0.0
N807 N 0.08706 0.54763 0.73613 0.0
H808 H 0.13651 0.4806 0.68394 0.0
H809 H 0.12634 0.50246 0.75215 0.0
H810 H 0.07225 0.56359 0.75452 0.0
H811 H 0.10765 0.54449 0.7648 0.0
H812 H 0.05862 0.53413 0.41067 0.0
H813 H 0.09241 0.51222 0.42182 0.0
H814 H 0.01813 0.53865 0.46935 0.0
H815 H 0.00649 0.55813 0.5431 0.0
C816 C 0.09384 0.92974 0.93753 0.0
C817 C 0.07975 0.91856 1.00662 0.0
C818 C 0.04277 0.96119 0.98805 0.0
C819 C 0.05393 0.97001 0.91412 0.0
N820 N 0.09101 0.96501 0.81861 0.0
N821 N 0.03727 0.92038 0.09023 0.0
C822 C 0.07985 0.95495 0.8888 0.0
C823 C 0.05338 0.93351 0.03024 0.0
N824 N 0.12063 0.9165 0.91957 0.0
N825 N 0.02215 0.9793 0.01848 0.0
H826 H 0.04338 0.89941 0.12115 0.0
H827 H 0.01612 0.92882 0.10411 0.0
H828 H 0.01337 0.99973 0.98912 0.0
H829 H 0.01577 0.97528 0.0754 0.0
H830 H 0.1334 0.92476 0.87307 0.0
H831 H 0.13105 0.8979 0.95429 0.0
H832 H 0.10766 0.95343 0.79221 0.0
H833 H 0.0831 0.98525 0.78629 0.0
C834 C 0.63026 0.0171 0.96707 0.0
C835 C 0.63097 0.98552 0.99055 0.0
C836 C 0.5772 0.9881 0.97025 0.0
C837 C 0.57747 0.01769 0.93162 0.0
N838 N 0.60562 0.05984 0.88543 0.0
N839 N 0.60531 0.94052 0.99232 0.0
C840 C 0.60453 0.03204 0.92697 0.0
C841 C 0.60448 0.97084 0.98462 0.0
N842 N 0.6527 0.03319 0.98737 0.0
N843 N 0.55108 0.97678 0.99575 0.0
H844 H 0.6254 0.92725 0.99577 0.0
H845 H 0.58626 0.929 0.98828 0.0
H846 H 0.53123 0.9902 0.99325 0.0
H847 H 0.55029 0.95581 0.0292 0.0
H848 H 0.65162 0.0564 0.97601 0.0
H849 H 0.67051 0.02393 0.02331 0.0
H850 H 0.62562 0.07005 0.87404 0.0
H851 H 0.58659 0.07176 0.85933 0.0
C852 C 0.48272 0.60527 0.01245 0.0
C853 C 0.46167 0.62995 0.99144 0.0
C854 C 0.4368 0.60159 0.90637 0.0
C855 C 0.45799 0.57704 0.93068 0.0
N856 N 0.48908 0.55177 0.03554 0.0
N857 N 0.41337 0.64817 0.935 0.0
C858 C 0.47622 0.57757 0.99505 0.0
C859 C 0.43691 0.62714 0.94341 0.0
N860 N 0.51018 0.6086 0.04227 0.0
N861 N 0.41712 0.60099 0.84801 0.0
H862 H 0.41244 0.66647 0.96348 0.0
H863 H 0.39364 0.64593 0.90586 0.0
H864 H 0.41325 0.58165 0.82682 0.0
H865 H 0.40451 0.61989 0.82104 0.0
H866 H 0.52657 0.59103 0.05333 0.0
H867 H 0.51795 0.62938 0.04552 0.0
H868 H 0.50155 0.55142 0.08543 0.0
H869 H 0.4843 0.53096 0.02313 0.0
C870 C 0.92543 0.55373 0.04483 0.0
C871 C 0.89441 0.55326 0.02846 0.0
C872 C 0.90607 0.51534 0.94785 0.0
C873 C 0.93683 0.51642 0.96488 0.0
N874 N 0.97317 0.52493 0.05633 0.0
N875 N 0.85522 0.52485 0.98821 0.0
C876 C 0.94523 0.531 0.02469 0.0
C877 C 0.88458 0.53124 0.98749 0.0
N878 N 0.93643 0.57695 0.07322 0.0
N879 N 0.89742 0.5006 0.89153 0.0
H880 H 0.83915 0.53464 0.02054 0.0
H881 H 0.84761 0.50744 0.96372 0.0
H882 H 0.91241 0.48705 0.86549 0.0
H883 H 0.87559 0.50262 0.86974 0.0
H884 H 0.95932 0.57888 0.08024 0.0
H885 H 0.92311 0.59589 0.08097 0.0
H886 H 0.98025 0.53436 0.1024 0.0
H887 H 0.98764 0.50805 0.04058 0.0
C888 C 0.99283 0.19678 0.95125 0.0
C889 C 0.01554 0.20392 1.00014 0.0
C890 C 0.048 0.16291 0.96314 0.0
C891 C 0.02321 0.15185 0.92971 0.0
N892 N 0.97027 0.15746 0.89955 0.0
N893 N 0.06451 0.19032 0.05913 0.0
C894 C 0.9952 0.16883 0.92442 0.0
C895 C 0.04335 0.18641 1.00682 0.0
N896 N 0.96876 0.21666 0.93126 0.0
N897 N 0.07606 0.15037 0.95405 0.0
H898 H 0.06188 0.20612 0.09514 0.0
H899 H 0.08363 0.17592 0.07176 0.0
H900 H 0.07986 0.13343 0.92145 0.0
H901 H 0.09543 0.1589 0.97159 0.0
H902 H 0.95271 0.21385 0.89093 0.0
H903 H 0.96674 0.23739 0.94913 0.0
H904 H 0.94876 0.16752 0.90251 0.0
H905 H 0.97059 0.13673 0.88229 0.0
C906 C 0.36988 0.08583 0.12001 0.0
C907 C 0.34181 0.083 0.08478 0.0
C908 C 0.37011 0.06531 0.97948 0.0
C909 C 0.3975 0.07198 0.01195 0.0
N910 N 0.42094 0.09845 0.09947 0.0
N911 N 0.31601 0.07586 0.97033 0.0
C912 C 0.39635 0.08584 0.07717 0.0
C913 C 0.34208 0.07448 0.01107 0.0
N914 N 0.37188 0.08582 0.19645 0.0
N915 N 0.37068 0.04913 0.92134 0.0
H916 H 0.29551 0.08341 0.99053 0.0
H917 H 0.31532 0.07236 0.91386 0.0
H918 H 0.39053 0.04143 0.89837 0.0
H919 H 0.35151 0.04131 0.90045 0.0
H920 H 0.39219 0.08583 0.22537 0.0
H921 H 0.35385 0.08097 0.2316 0.0
H922 H 0.4205 0.11057 0.14448 0.0
H923 H 0.44045 0.09961 0.06734 0.0
C924 C 0.50013 0.39832 0.98672 0.0
C925 C 0.47477 0.39391 0.0336 0.0
C926 C 0.4497 0.44063 0.96483 0.0
C927 C 0.47607 0.44631 0.92176 0.0
N928 N 0.52304 0.42651 0.87733 0.0
N929 N 0.42272 0.40533 0.0531 0.0
C930 C 0.50012 0.42372 0.92795 0.0
C931 C 0.4485 0.41315 0.01672 0.0
N932 N 0.52517 0.37934 1.00256 0.0
N933 N 0.42678 0.46228 0.96077 0.0
H934 H 0.42198 0.38543 0.09148 0.0
H935 H 0.40193 0.41681 0.04038 0.0
H936 H 0.42696 0.48274 0.92482 0.0
H937 H 0.40837 0.46086 0.99651 0.0
H938 H 0.54603 0.38341 0.97895 0.0
H939 H 0.52523 0.35975 0.04223 0.0
H940 H 0.53943 0.40956 0.8728 0.0
H941 H 0.52436 0.44506 0.83526 0.0
C942 C 0.11527 0.47038 0.95069 0.0
C943 C 0.12196 0.48735 1.00794 0.0
C944 C 0.07349 0.51594 0.98324 0.0
C945 C 0.06767 0.50114 0.9205 0.0
N946 N 0.087 0.46806 0.83543 0.0
N947 N 0.11066 0.53092 0.06574 0.0
C948 C 0.08966 0.47934 0.90161 0.0
C949 C 0.10219 0.5118 0.01924 0.0
N950 N 0.13307 0.44539 0.94413 0.0
N951 N 0.051 0.53222 0.01288 0.0
H952 H 0.13147 0.52842 0.0936 0.0
H953 H 0.09837 0.55082 0.07023 0.0
H954 H 0.02894 0.53391 0.99344 0.0
H955 H 0.05338 0.54091 0.0631 0.0
H956 H 0.12748 0.42997 0.91016 0.0
H957 H 0.15262 0.43915 0.97665 0.0
H958 H 0.10336 0.45372 0.81647 0.0
H959 H 0.07027 0.47555 0.79462 0.0
C960 C 0.01768 0.87045 0.60887 0.0
C961 C 0.99577 0.86039 0.5628 0.0
C962 C 0.95906 0.89683 0.60506 0.0
C963 C 0.98244 0.91133 0.63462 0.0
N964 N 0.03574 0.91324 0.65407 0.0
N965 N 0.94504 0.86676 0.51222 0.0
C966 C 0.01223 0.89824 0.63516 0.0
C967 C 0.96608 0.87393 0.56062 0.0
N968 N 0.04405 0.85371 0.62584 0.0
N969 N 0.93004 0.90529 0.61907 0.0
H970 H 0.94914 0.85083 0.47705 0.0
H971 H 0.92417 0.87845 0.50245 0.0
H972 H 0.92452 0.92151 0.65288 0.0
H973 H 0.91197 0.89405 0.60438 0.0
H974 H 0.05991 0.85873 0.66396 0.0
H975 H 0.04839 0.83314 0.60798 0.0
H976 H 0.05802 0.90585 0.64766 0.0
H977 H 0.03329 0.93446 0.66844 0.0
C978 C 0.65252 0.02634 0.49872 0.0
C979 C 0.67525 1.00481 0.53232 0.0
C980 C 0.64045 0.98682 0.63408 0.0
C981 C 0.61668 1.0048 0.59321 0.0
N982 N 0.59932 0.04224 0.48864 0.0
N983 N 0.69196 0.96564 0.63388 0.0
C984 C 0.62265 0.02515 0.52676 0.0
C985 C 0.66964 0.98576 0.60163 0.0
N986 N 0.65956 0.04742 0.4388 0.0
N987 N 0.63484 0.97079 0.70384 0.0
H988 H 0.71375 0.9656 0.61296 0.0
H989 H 0.68891 0.94868 0.67942 0.0
H990 H 0.61357 0.97109 0.72776 0.0
H991 H 0.65136 0.95895 0.74021 0.0
H992 H 0.64488 0.06515 0.41439 0.0
H993 H 0.68119 0.04857 0.41735 0.0
H994 H 0.60111 0.0555 0.43558 0.0
H995 H 0.57746 0.04196 0.50889 0.0
C996 C 0.5339 0.65161 0.61917 0.0
C997 C 0.51741 0.65668 0.54934 0.0
C998 C 0.50082 0.6061 0.5784 0.0
C999 C 0.51458 0.60159 0.65222 0.0
N1000 N 0.53814 0.6245 0.74877 0.0
N1001 N 0.4771 0.64217 0.47725 0.0
C1002 C 0.52947 0.62561 0.67458 0.0
C1003 C 0.498 0.63509 0.53449 0.0
N1004 N 0.55407 0.67134 0.63217 0.0
N1005 N 0.49221 0.58247 0.5473 0.0
H1006 H 0.4736 0.6638 0.44717 0.0
H1007 H 0.46104 0.62775 0.46698 0.0
H1008 H 0.49703 0.56038 0.57287 0.0
H1009 H 0.48408 0.58467 0.49146 0.0
H1010 H 0.56916 0.66729 0.67809 0.0
H1011 H 0.55661 0.69104 0.59427 0.0
H1012 H 0.54667 0.64248 0.76888 0.0
H1013 H 0.53395 0.60695 0.79188 0.0
C1014 C 0.8655 0.58268 0.65754 0.0
C1015 C 0.86091 0.57182 0.58835 0.0
C1016 C 0.91198 0.548 0.59828 0.0
C1017 C 0.91643 0.55786 0.66911 0.0
N1018 N 0.89399 0.57745 0.77597 0.0
N1019 N 0.87634 0.53675 0.50608 0.0
C1020 C 0.89217 0.57315 0.70181 0.0
C1021 C 0.883 0.55185 0.56355 0.0
N1022 N 0.84465 0.60268 0.67996 0.0
N1023 N 0.93578 0.53652 0.56158 0.0
H1024 H 0.85508 0.53851 0.48102 0.0
H1025 H 0.8907 0.52001 0.48966 0.0
H1026 H 0.95771 0.53472 0.58263 0.0
H1027 H 0.93433 0.53182 0.50632 0.0
H1028 H 0.84822 0.61422 0.72479 0.0
H1029 H 0.82426 0.60867 0.65091 0.0
H1030 H 0.87592 0.58577 0.8049 0.0
H1031 H 0.91258 0.57001 0.81112 0.0
loop_
_geom_bond_atom_site_label_1
_geom_bond_atom_site_label_2
_geom_bond_distance
_geom_bond_site_symmetry_2
_ccdc_geom_bond_type
C0 C1 1.391 . S
C0 C4 1.391 . S
C0 H42 0.948 . S
C1 C0 1.391 . S
C1 C2 1.391 . S
C2 C1 1.391 . S
C2 H58 0.947 . S
C2 C59 1.392 . S
C3 C4 1.391 . S
C3 C7 1.397 . S
C3 C59 1.419 . S
C4 C0 1.391 . S
C4 C3 1.391 . S
C4 C5 1.399 . S
C5 C4 1.399 . S
C5 C8 1.396 . S
C5 C17 1.453 . S
C5 C18 1.684 . S
H6 C30 0.948 1_556 S
C7 C3 1.397 . S
C7 C8 1.394 . S
C7 C26 1.723 . S
C8 C5 1.396 . S
C8 C7 1.394 . S
C8 C38 1.723 . S
H9 C32 0.947 . S
H10 C33 0.948 . S
H11 C39 0.982 . S
H12 C40 0.979 . S
H13 C40 0.980 . S
H14 C40 0.983 . S
H15 C39 0.979 . S
H16 C39 0.977 . S
C17 C5 1.453 . S
C17 H46 0.982 . S
C17 H47 0.979 . S
C17 H48 0.977 . S
C18 C5 1.684 . S
C18 H43 0.979 . S
C18 H44 0.980 . S
C18 H45 0.983 . S
C19 C20 1.391 . S
C19 C24 1.391 1_556 S
C19 H49 0.948 1_556 S
C20 C19 1.391 . S
C20 C21 1.391 . S
C21 C20 1.391 . S
C21 C22 1.392 . S
C21 H50 0.947 . S
C22 C21 1.392 . S
C22 C23 1.419 1_556 S
C22 H51 0.948 . S
C23 C22 1.419 1_554 S
C23 C24 1.391 . S
C23 C27 1.397 . S
C24 C19 1.391 1_554 S
C24 C23 1.391 . S
C24 C25 1.399 . S
C25 C24 1.399 . S
C25 C26 1.396 . S
C25 C28 1.453 . S
C25 C29 1.684 . S
C26 C7 1.723 . S
C26 C25 1.396 . S
C26 C27 1.394 . S
C27 C23 1.397 . S
C27 C26 1.394 . S
C27 C37 1.723 . S
C28 C25 1.453 . S
C28 H52 0.982 . S
C28 H53 0.979 . S
C28 H54 0.977 . S
C29 C25 1.684 . S
C29 H55 0.979 . S
C29 H56 0.980 . S
C29 H57 0.983 . S
C30 H6 0.948 1_554 S
C30 C31 1.391 . S
C30 C35 1.391 . S
C31 C30 1.391 . S
C31 C32 1.391 . S
C32 H9 0.947 . S
C32 C31 1.391 . S
C32 C33 1.392 . S
C33 H10 0.948 . S
C33 C32 1.392 . S
C33 C34 1.419 . S
C34 C33 1.419 . S
C34 C35 1.391 . S
C34 C38 1.397 . S
C35 C30 1.391 . S
C35 C34 1.391 . S
C35 C36 1.399 . S
C36 C35 1.399 . S
C36 C37 1.396 . S
C36 C39 1.453 1_554 S
C36 C40 1.684 1_554 S
C37 C27 1.723 . S
C37 C36 1.396 . S
C37 C38 1.394 . S
C38 C8 1.723 . S
C38 C34 1.397 . S
C38 C37 1.394 . S
C39 H11 0.982 . S
C39 H15 0.979 . S
C39 H16 0.977 . S
C39 C36 1.453 1_556 S
C40 H12 0.979 . S
C40 H13 0.980 . S
C40 H14 0.983 . S
C40 C36 1.684 1_556 S
H41 C59 0.948 . S
H42 C0 0.948 . S
H43 C18 0.979 . S
H44 C18 0.980 . S
H45 C18 0.983 . S
H46 C17 0.982 . S
H47 C17 0.979 . S
H48 C17 0.977 . S
H49 C19 0.948 1_554 S
H50 C21 0.947 . S
H51 C22 0.948 . S
H52 C28 0.982 . S
H53 C28 0.979 . S
H54 C28 0.977 . S
H55 C29 0.979 . S
H56 C29 0.980 . S
H57 C29 0.983 . S
H58 C2 0.947 . S
C59 C2 1.392 . S
C59 C3 1.419 . S
C59 H41 0.948 . S
C60 C61 1.391 . S
C60 C64 1.391 . S
C60 H102 0.948 . S
C61 C60 1.391 . S
C61 C62 1.391 . S
C62 C61 1.391 . S
C62 H118 0.947 . S
C62 C119 1.392 1_556 S
C63 C64 1.391 1_554 S
C63 C67 1.397 1_655 S
C63 C119 1.419 . S
C64 C60 1.391 . S
C64 C63 1.391 1_556 S
C64 C65 1.399 . S
C65 C64 1.399 . S
C65 C68 1.396 1_656 S
C65 C77 1.453 1_655 S
C65 C78 1.684 . S
H66 C90 0.948 . S
C67 C63 1.397 1_455 S
C67 C68 1.394 . S
C67 C86 1.723 . S
C68 C65 1.396 1_454 S
C68 C67 1.394 . S
C68 C98 1.723 . S
H69 C92 0.947 . S
H70 C93 0.948 1_556 S
H71 C99 0.982 . S
H72 C100 0.979 . S
H73 C100 0.980 . S
H74 C100 0.983 . S
H75 C99 0.979 . S
H76 C99 0.977 . S
C77 C65 1.453 1_455 S
C77 H106 0.982 . S
C77 H107 0.979 . S
C77 H108 0.977 . S
C78 C65 1.684 . S
C78 H103 0.979 . S
C78 H104 0.980 . S
C78 H105 0.983 . S
C79 C80 1.391 . S
C79 C84 1.391 . S
C79 H109 0.948 . S
C80 C79 1.391 . S
C80 C81 1.391 . S
C81 C80 1.391 . S
C81 C82 1.392 . S
C81 H110 0.947 . S
C82 C81 1.392 . S
C82 C83 1.419 . S
C82 H111 0.948 . S
C83 C82 1.419 . S
C83 C84 1.391 . S
C83 C87 1.397 1_655 S
C84 C79 1.391 . S
C84 C83 1.391 . S
C84 C85 1.399 . S
C85 C84 1.399 . S
C85 C86 1.396 1_655 S
C85 C88 1.453 1_655 S
C85 C89 1.684 . S
C86 C67 1.723 . S
C86 C85 1.396 1_455 S
C86 C87 1.394 . S
C87 C83 1.397 1_455 S
C87 C86 1.394 . S
C87 C97 1.723 . S
C88 C85 1.453 1_455 S
C88 H112 0.982 . S
C88 H113 0.979 . S
C88 H114 0.977 . S
C89 C85 1.684 . S
C89 H115 0.979 . S
C89 H116 0.980 . S
C89 H117 0.983 . S
C90 H66 0.948 . S
C90 C91 1.391 . S
C90 C95 1.391 . S
C91 C90 1.391 . S
C91 C92 1.391 1_554 S
C92 H69 0.947 . S
C92 C91 1.391 1_556 S
C92 C93 1.392 1_556 S
C93 H70 0.948 1_554 S
C93 C92 1.392 1_554 S
C93 C94 1.419 . S
C94 C93 1.419 . S
C94 C95 1.391 . S
C94 C98 1.397 1_655 S
C95 C90 1.391 . S
C95 C94 1.391 . S
C95 C96 1.399 . S
C96 C95 1.399 . S
C96 C97 1.396 1_655 S
C96 C99 1.453 1_655 S
C96 C100 1.684 . S
C97 C87 1.723 . S
C97 C96 1.396 1_455 S
C97 C98 1.394 . S
C98 C68 1.723 . S
C98 C94 1.397 1_455 S
C98 C97 1.394 . S
C99 H71 0.982 . S
C99 H75 0.979 . S
C99 H76 0.977 . S
C99 C96 1.453 1_455 S
C100 H72 0.979 . S
C100 H73 0.980 . S
C100 H74 0.983 . S
C100 C96 1.684 . S
H101 C119 0.948 . S
H102 C60 0.948 . S
H103 C78 0.979 . S
H104 C78 0.980 . S
H105 C78 0.983 . S
H106 C77 0.982 . S
H107 C77 0.979 . S
H108 C77 0.977 . S
H109 C79 0.948 . S
H110 C81 0.947 . S
H111 C82 0.948 . S
H112 C88 0.982 . S
H113 C88 0.979 . S
H114 C88 0.977 . S
H115 C89 0.979 . S
H116 C89 0.980 . S
H117 C89 0.983 . S
H118 C62 0.947 . S
C119 C62 1.392 1_554 S
C119 C63 1.419 . S
C119 H101 0.948 . S
C120 C121 1.391 . S
C120 C124 1.391 . S
C120 H162 0.948 . S
C121 C120 1.391 . S
C121 C122 1.391 1_554 S
C122 C121 1.391 1_556 S
C122 H178 0.947 . S
C122 C179 1.392 . S
C123 C124 1.391 . S
C123 C127 1.397 . S
C123 C179 1.419 1_554 S
C124 C120 1.391 . S
C124 C123 1.391 . S
C124 C125 1.399 . S
C125 C124 1.399 . S
C125 C128 1.396 . S
C125 C137 1.453 . S
C125 C138 1.684 . S
H126 C150 0.948 . S
C127 C123 1.397 . S
C127 C128 1.394 . S
C127 C146 1.723 . S
C128 C125 1.396 . S
C128 C127 1.394 . S
C128 C158 1.723 . S
H129 C152 0.947 . S
H130 C153 0.948 . S
H131 C159 0.982 . S
H132 C160 0.979 . S
H133 C160 0.980 . S
H134 C160 0.983 . S
H135 C159 0.979 . S
H136 C159 0.977 . S
C137 C125 1.453 . S
C137 H166 0.982 . S
C137 H167 0.979 . S
C137 H168 0.977 . S
C138 C125 1.684 . S
C138 H163 0.979 . S
C138 H164 0.980 . S
C138 H165 0.983 . S
C139 C140 1.391 . S
C139 C144 1.391 . S
C139 H169 0.948 . S
C140 C139 1.391 . S
C140 C141 1.391 . S
C141 C140 1.391 . S
C141 C142 1.392 1_556 S
C141 H170 0.947 . S
C142 C141 1.392 1_554 S
C142 C143 1.419 . S
C142 H171 0.948 . S
C143 C142 1.419 . S
C143 C144 1.391 1_554 S
C143 C147 1.397 . S
C144 C139 1.391 . S
C144 C143 1.391 1_556 S
C144 C145 1.399 . S
C145 C144 1.399 . S
C145 C146 1.396 1_556 S
C145 C148 1.453 . S
C145 C149 1.684 . S
C146 C127 1.723 . S
C146 C145 1.396 1_554 S
C146 C147 1.394 . S
C147 C143 1.397 . S
C147 C146 1.394 . S
C147 C157 1.723 . S
C148 C145 1.453 . S
C148 H172 0.982 . S
C148 H173 0.979 . S
C148 H174 0.977 . S
C149 C145 1.684 . S
C149 H175 0.979 . S
C149 H176 0.980 . S
C149 H177 0.983 . S
C150 H126 0.948 . S
C150 C151 1.391 . S
C150 C155 1.391 . S
C151 C150 1.391 . S
C151 C152 1.391 . S
C152 H129 0.947 . S
C152 C151 1.391 . S
C152 C153 1.392 . S
C153 H130 0.948 . S
C153 C152 1.392 . S
C153 C154 1.419 . S
C154 C153 1.419 . S
C154 C155 1.391 . S
C154 C158 1.397 . S
C155 C150 1.391 . S
C155 C154 1.391 . S
C155 C156 1.399 . S
C156 C155 1.399 . S
C156 C157 1.396 . S
C156 C159 1.453 . S
C156 C160 1.684 . S
C157 C147 1.723 . S
C157 C156 1.396 . S
C157 C158 1.394 . S
C158 C128 1.723 . S
C158 C154 1.397 . S
C158 C157 1.394 . S
C159 H131 0.982 . S
C159 H135 0.979 . S
C159 H136 0.977 . S
C159 C156 1.453 . S
C160 H132 0.979 . S
C160 H133 0.980 . S
C160 H134 0.983 . S
C160 C156 1.684 . S
H161 C179 0.948 . S
H162 C120 0.948 . S
H163 C138 0.979 . S
H164 C138 0.980 . S
H165 C138 0.983 . S
H166 C137 0.982 . S
H167 C137 0.979 . S
H168 C137 0.977 . S
H169 C139 0.948 . S
H170 C141 0.947 . S
H171 C142 0.948 . S
H172 C148 0.982 . S
H173 C148 0.979 . S
H174 C148 0.977 . S
H175 C149 0.979 . S
H176 C149 0.980 . S
H177 C149 0.983 . S
H178 C122 0.947 . S
C179 C122 1.392 . S
C179 C123 1.419 1_556 S
C179 H161 0.948 . S
C180 C181 1.391 . S
C180 C184 1.391 . S
C180 H222 0.948 . S
C181 C180 1.391 . S
C181 C182 1.391 . S
C182 C181 1.391 . S
C182 H238 0.947 . S
C182 C239 1.392 . S
C183 C184 1.391 . S
C183 C187 1.397 . S
C183 C239 1.419 . S
C184 C180 1.391 . S
C184 C183 1.391 . S
C184 C185 1.399 . S
C185 C184 1.399 . S
C185 C188 1.396 . S
C185 C197 1.453 . S
C185 C198 1.684 . S
H186 C210 0.948 1_556 S
C187 C183 1.397 . S
C187 C188 1.394 . S
C187 C206 1.723 . S
C188 C185 1.396 . S
C188 C187 1.394 . S
C188 C218 1.723 . S
H189 C212 0.947 . S
H190 C213 0.948 . S
H191 C219 0.982 . S
H192 C220 0.979 . S
H193 C220 0.980 . S
H194 C220 0.983 . S
H195 C219 0.979 . S
H196 C219 0.977 . S
C197 C185 1.453 . S
C197 H226 0.982 . S
C197 H227 0.979 . S
C197 H228 0.977 . S
C198 C185 1.684 . S
C198 H223 0.979 . S
C198 H224 0.980 . S
C198 H225 0.983 . S
C199 C200 1.391 . S
C199 C204 1.391 1_556 S
C199 H229 0.948 1_556 S
C200 C199 1.391 . S
C200 C201 1.391 . S
C201 C200 1.391 . S
C201 C202 1.392 . S
C201 H230 0.947 . S
C202 C201 1.392 . S
C202 C203 1.419 1_556 S
C202 H231 0.948 . S
C203 C202 1.419 1_554 S
C203 C204 1.391 . S
C203 C207 1.397 . S
C204 C199 1.391 1_554 S
C204 C203 1.391 . S
C204 C205 1.399 . S
C205 C204 1.399 . S
C205 C206 1.396 . S
C205 C208 1.453 . S
C205 C209 1.684 . S
C206 C187 1.723 . S
C206 C205 1.396 . S
C206 C207 1.394 . S
C207 C203 1.397 . S
C207 C206 1.394 . S
C207 C217 1.723 . S
C208 C205 1.453 . S
C208 H232 0.982 . S
C208 H233 0.979 . S
C208 H234 0.977 . S
C209 C205 1.684 . S
C209 H235 0.979 . S
C209 H236 0.980 . S
C209 H237 0.983 . S
C210 H186 0.948 1_554 S
C210 C211 1.391 . S
C210 C215 1.391 . S
C211 C210 1.391 . S
C211 C212 1.391 . S
C212 H189 0.947 . S
C212 C211 1.391 . S
C212 C213 1.392 . S
C213 H190 0.948 . S
C213 C212 1.392 . S
C213 C214 1.419 . S
C214 C213 1.419 . S
C214 C215 1.391 . S
C214 C218 1.397 . S
C215 C210 1.391 . S
C215 C214 1.391 . S
C215 C216 1.393 1_554 S
C216 C215 1.393 1_556 S
C216 C217 1.390 1_556 S
C216 C219 1.461 . S
C216 C220 1.693 . S
C217 C207 1.723 . S
C217 C216 1.390 1_554 S
C217 C218 1.394 . S
C218 C188 1.723 . S
C218 C214 1.397 . S
C218 C217 1.394 . S
C219 H191 0.982 . S
C219 H195 0.979 . S
C219 H196 0.977 . S
C219 C216 1.461 . S
C220 H192 0.979 . S
C220 H193 0.980 . S
C220 H194 0.983 . S
C220 C216 1.693 . S
H221 C239 0.948 . S
H222 C180 0.948 . S
H223 C198 0.979 . S
H224 C198 0.980 . S
H225 C198 0.983 . S
H226 C197 0.982 . S
H227 C197 0.979 . S
H228 C197 0.977 . S
H229 C199 0.948 1_554 S
H230 C201 0.947 . S
H231 C202 0.948 . S
H232 C208 0.982 . S
H233 C208 0.979 . S
H234 C208 0.977 . S
H235 C209 0.979 . S
H236 C209 0.980 . S
H237 C209 0.983 . S
H238 C182 0.947 . S
C239 C182 1.392 . S
C239 C183 1.419 . S
C239 H221 0.948 . S
C240 C241 1.391 . S
C240 C244 1.391 . S
C240 H282 0.948 . S
C241 C240 1.391 . S
C241 C242 1.391 . S
C242 C241 1.391 . S
C242 H298 0.947 . S
C242 C299 1.392 . S
C243 C244 1.391 . S
C243 C247 1.397 . S
C243 C299 1.419 . S
C244 C240 1.391 . S
C244 C243 1.391 . S
C244 C245 1.399 . S
C245 C244 1.399 . S
C245 C248 1.396 . S
C245 C257 1.453 . S
C245 C258 1.684 . S
H246 C270 0.948 . S
C247 C243 1.397 . S
C247 C248 1.394 . S
C247 C266 1.723 . S
C248 C245 1.396 . S
C248 C247 1.394 . S
C248 C278 1.723 . S
H249 C272 0.947 . S
H250 C273 0.948 . S
H251 C279 0.982 . S
H252 C280 0.979 . S
H253 C280 0.980 . S
H254 C280 0.983 . S
H255 C279 0.979 . S
H256 C279 0.977 . S
C257 C245 1.453 . S
C257 H286 0.982 . S
C257 H287 0.979 . S
C257 H288 0.977 . S
C258 C245 1.684 . S
C258 H283 0.979 . S
C258 H284 0.980 . S
C258 H285 0.983 . S
C259 C260 1.391 . S
C259 C264 1.391 . S
C259 H289 0.948 . S
C260 C259 1.391 . S
C260 C261 1.391 . S
C261 C260 1.391 . S
C261 C262 1.392 . S
C261 H290 0.947 . S
C262 C261 1.392 . S
C262 C263 1.419 . S
C262 H291 0.948 . S
C263 C262 1.419 . S
C263 C264 1.391 . S
C263 C267 1.397 . S
C264 C259 1.391 . S
C264 C263 1.391 . S
C264 C265 1.399 . S
C265 C264 1.399 . S
C265 C266 1.396 . S
C265 C268 1.453 . S
C265 C269 1.684 . S
C266 C247 1.723 . S
C266 C265 1.396 . S
C266 C267 1.394 . S
C267 C263 1.397 . S
C267 C266 1.394 . S
C267 C277 1.723 . S
C268 C265 1.453 . S
C268 H292 0.982 . S
C268 H293 0.979 . S
C268 H294 0.977 . S
C269 C265 1.684 . S
C269 H295 0.979 . S
C269 H296 0.980 . S
C269 H297 0.983 . S
C270 H246 0.948 . S
C270 C271 1.391 . S
C270 C275 1.391 . S
C271 C270 1.391 . S
C271 C272 1.391 . S
C272 H249 0.947 . S
C272 C271 1.391 . S
C272 C273 1.392 . S
C273 H250 0.948 . S
C273 C272 1.392 . S
C273 C274 1.419 . S
C274 C273 1.419 . S
C274 C275 1.391 . S
C274 C278 1.397 . S
C275 C270 1.391 . S
C275 C274 1.391 . S
C275 C276 1.399 . S
C276 C275 1.399 . S
C276 C277 1.396 . S
C276 C279 1.453 . S
C276 C280 1.684 . S
C277 C267 1.723 . S
C277 C276 1.396 . S
C277 C278 1.394 . S
C278 C248 1.723 . S
C278 C274 1.397 . S
C278 C277 1.394 . S
C279 H251 0.982 . S
C279 H255 0.979 . S
C279 H256 0.977 . S
C279 C276 1.453 . S
C280 H252 0.979 . S
C280 H253 0.980 . S
C280 H254 0.983 . S
C280 C276 1.684 . S
H281 C299 0.948 . S
H282 C240 0.948 . S
H283 C258 0.979 . S
H284 C258 0.980 . S
H285 C258 0.983 . S
H286 C257 0.982 . S
H287 C257 0.979 . S
H288 C257 0.977 . S
H289 C259 0.948 . S
H290 C261 0.947 . S
H291 C262 0.948 . S
H292 C268 0.982 . S
H293 C268 0.979 . S
H294 C268 0.977 . S
H295 C269 0.979 . S
H296 C269 0.980 . S
H297 C269 0.983 . S
H298 C242 0.947 . S
C299 C242 1.392 . S
C299 C243 1.419 . S
C299 H281 0.948 . S
C300 C301 1.391 . S
C300 C304 1.391 . S
C300 H342 0.948 . S
C301 C300 1.391 . S
C301 C302 1.391 . S
C302 C301 1.391 . S
C302 H358 0.947 . S
C302 C359 1.392 . S
C303 C304 1.391 . S
C303 C307 1.396 1_655 S
C303 C359 1.419 . S
C304 C300 1.391 . S
C304 C303 1.391 . S
C304 C305 1.399 . S
C305 C304 1.399 . S
C305 C308 1.396 1_655 S
C305 C317 1.453 1_655 S
C305 C318 1.684 . S
H306 C330 0.948 . S
C307 C303 1.396 1_455 S
C307 C308 1.395 . S
C307 C326 1.723 . S
C308 C305 1.396 1_455 S
C308 C307 1.395 . S
C308 C338 1.723 . S
H309 C332 0.947 . S
H310 C333 0.948 . S
H311 C339 0.982 . S
H312 C340 0.979 . S
H313 C340 0.980 . S
H314 C340 0.983 . S
H315 C339 0.979 . S
H316 C339 0.977 . S
C317 C305 1.453 1_455 S
C317 H346 0.982 . S
C317 H347 0.979 . S
C317 H348 0.977 . S
C318 C305 1.684 . S
C318 H343 0.979 . S
C318 H344 0.980 . S
C318 H345 0.983 . S
C319 C320 1.391 . S
C319 C324 1.391 . S
C319 H349 0.948 . S
C320 C319 1.391 . S
C320 C321 1.391 . S
C321 C320 1.391 . S
C321 C322 1.392 . S
C321 H350 0.947 . S
C322 C321 1.392 . S
C322 C323 1.419 . S
C322 H351 0.948 . S
C323 C322 1.419 . S
C323 C324 1.391 . S
C323 C327 1.396 1_655 S
C324 C319 1.391 . S
C324 C323 1.391 . S
C324 C325 1.399 . S
C325 C324 1.399 . S
C325 C326 1.396 1_655 S
C325 C328 1.453 1_655 S
C325 C329 1.684 . S
C326 C307 1.723 . S
C326 C325 1.396 1_455 S
C326 C327 1.394 . S
C327 C323 1.396 1_455 S
C327 C326 1.394 . S
C327 C337 1.724 . S
C328 C325 1.453 1_455 S
C328 H352 0.982 . S
C328 H353 0.979 . S
C328 H354 0.977 . S
C329 C325 1.684 . S
C329 H355 0.979 . S
C329 H356 0.980 . S
C329 H357 0.983 . S
C330 H306 0.948 . S
C330 C331 1.391 . S
C330 C335 1.391 . S
C331 C330 1.391 . S
C331 C332 1.391 . S
C332 H309 0.947 . S
C332 C331 1.391 . S
C332 C333 1.392 . S
C333 H310 0.948 . S
C333 C332 1.392 . S
C333 C334 1.419 . S
C334 C333 1.419 . S
C334 C335 1.391 . S
C334 C338 1.397 1_655 S
C335 C330 1.391 . S
C335 C334 1.391 . S
C335 C336 1.399 . S
C336 C335 1.399 . S
C336 C337 1.396 1_655 S
C336 C339 1.453 1_655 S
C336 C340 1.684 . S
C337 C327 1.724 . S
C337 C336 1.396 1_455 S
C337 C338 1.395 . S
C338 C308 1.723 . S
C338 C334 1.397 1_455 S
C338 C337 1.395 . S
C339 H311 0.982 . S
C339 H315 0.979 . S
C339 H316 0.977 . S
C339 C336 1.453 1_455 S
C340 H312 0.979 . S
C340 H313 0.980 . S
C340 H314 0.983 . S
C340 C336 1.684 . S
H341 C359 0.948 . S
H342 C300 0.948 . S
H343 C318 0.979 . S
H344 C318 0.980 . S
H345 C318 0.983 . S
H346 C317 0.982 . S
H347 C317 0.979 . S
H348 C317 0.977 . S
H349 C319 0.948 . S
H350 C321 0.947 . S
H351 C322 0.948 . S
H352 C328 0.982 . S
H353 C328 0.979 . S
H354 C328 0.977 . S
H355 C329 0.979 . S
H356 C329 0.980 . S
H357 C329 0.983 . S
H358 C302 0.947 . S
C359 C302 1.392 . S
C359 C303 1.419 . S
C359 H341 0.948 . S
C360 C361 1.391 . S
C360 C364 1.391 . S
C360 H402 0.948 . S
C361 C360 1.391 . S
C361 C362 1.391 . S
C362 C361 1.391 . S
C362 H418 0.947 . S
C362 C419 1.392 . S
C363 C364 1.391 . S
C363 C367 1.397 . S
C363 C419 1.419 . S
C364 C360 1.391 . S
C364 C363 1.391 . S
C364 C365 1.399 . S
C365 C364 1.399 . S
C365 C368 1.396 . S
C365 C377 1.453 . S
C365 C378 1.684 . S
H366 C390 0.948 . S
C367 C363 1.397 . S
C367 C368 1.394 . S
C367 C386 1.723 . S
C368 C365 1.396 . S
C368 C367 1.394 . S
C368 C398 1.723 . S
H369 C392 0.947 . S
H370 C393 0.948 . S
H371 C399 0.982 . S
H372 C400 0.979 . S
H373 C400 0.980 . S
H374 C400 0.983 . S
H375 C399 0.979 . S
H376 C399 0.977 . S
C377 C365 1.453 . S
C377 H406 0.982 . S
C377 H407 0.979 . S
C377 H408 0.977 . S
C378 C365 1.684 . S
C378 H403 0.979 . S
C378 H404 0.980 . S
C378 H405 0.983 . S
C379 C380 1.391 . S
C379 C384 1.391 . S
C379 H409 0.948 . S
C380 C379 1.391 . S
C380 C381 1.391 . S
C381 C380 1.391 . S
C381 C382 1.392 . S
C381 H410 0.947 . S
C382 C381 1.392 . S
C382 C383 1.419 . S
C382 H411 0.948 . S
C383 C382 1.419 . S
C383 C384 1.391 . S
C383 C387 1.397 . S
C384 C379 1.391 . S
C384 C383 1.391 . S
C384 C385 1.399 . S
C385 C384 1.399 . S
C385 C386 1.396 . S
C385 C388 1.453 . S
C385 C389 1.684 . S
C386 C367 1.723 . S
C386 C385 1.396 . S
C386 C387 1.394 . S
C387 C383 1.397 . S
C387 C386 1.394 . S
C387 C397 1.723 . S
C388 C385 1.453 . S
C388 H412 0.982 . S
C388 H413 0.979 . S
C388 H414 0.977 . S
C389 C385 1.684 . S
C389 H415 0.979 . S
C389 H416 0.980 . S
C389 H417 0.983 . S
C390 H366 0.948 . S
C390 C391 1.391 . S
C390 C395 1.391 . S
C391 C390 1.391 . S
C391 C392 1.391 . S
C392 H369 0.947 . S
C392 C391 1.391 . S
C392 C393 1.392 . S
C393 H370 0.948 . S
C393 C392 1.392 . S
C393 C394 1.419 . S
C394 C393 1.419 . S
C394 C395 1.391 . S
C394 C398 1.397 . S
C395 C390 1.391 . S
C395 C394 1.391 . S
C395 C396 1.399 . S
C396 C395 1.399 . S
C396 C397 1.396 . S
C396 C399 1.453 . S
C396 C400 1.684 . S
C397 C387 1.723 . S
C397 C396 1.396 . S
C397 C398 1.394 . S
C398 C368 1.723 . S
C398 C394 1.397 . S
C398 C397 1.394 . S
C399 H371 0.982 . S
C399 H375 0.979 . S
C399 H376 0.977 . S
C399 C396 1.453 . S
C400 H372 0.979 . S
C400 H373 0.980 . S
C400 H374 0.983 . S
C400 C396 1.684 . S
H401 C419 0.948 . S
H402 C360 0.948 . S
H403 C378 0.979 . S
H404 C378 0.980 . S
H405 C378 0.983 . S
H406 C377 0.982 . S
H407 C377 0.979 . S
H408 C377 0.977 . S
H409 C379 0.948 . S
H410 C381 0.947 . S
H411 C382 0.948 . S
H412 C388 0.982 . S
H413 C388 0.979 . S
H414 C388 0.977 . S
H415 C389 0.979 . S
H416 C389 0.980 . S
H417 C389 0.983 . S
H418 C362 0.947 . S
C419 C362 1.392 . S
C419 C363 1.419 . S
C419 H401 0.948 . S
C420 C421 1.391 . S
C420 C424 1.391 . S
C420 H462 0.948 . S
C421 C420 1.391 . S
C421 C422 1.391 . S
C422 C421 1.391 . S
C422 H478 0.947 . S
C422 C479 1.392 . S
C423 C424 1.391 . S
C423 C427 1.397 . S
C423 C479 1.419 . S
C424 C420 1.391 . S
C424 C423 1.391 . S
C424 C425 1.399 . S
C425 C424 1.399 . S
C425 C428 1.396 . S
C425 C437 1.453 . S
C425 C438 1.684 . S
H426 C450 0.948 . S
C427 C423 1.397 . S
C427 C428 1.394 . S
C427 C446 1.723 . S
C428 C425 1.396 . S
C428 C427 1.394 . S
C428 C458 1.723 . S
H429 C452 0.947 . S
H430 C453 0.948 . S
H431 C459 0.982 . S
H432 C460 0.979 . S
H433 C460 0.980 . S
H434 C460 0.983 . S
H435 C459 0.979 . S
H436 C459 0.977 . S
C437 C425 1.453 . S
C437 H466 0.982 . S
C437 H467 0.979 . S
C437 H468 0.977 . S
C438 C425 1.684 . S
C438 H463 0.979 . S
C438 H464 0.980 . S
C438 H465 0.983 . S
C439 C440 1.391 . S
C439 C444 1.391 . S
C439 H469 0.948 . S
C440 C439 1.391 . S
C440 C441 1.391 . S
C441 C440 1.391 . S
C441 C442 1.392 . S
C441 H470 0.947 . S
C442 C441 1.392 . S
C442 C443 1.419 . S
C442 H471 0.948 . S
C443 C442 1.419 . S
C443 C444 1.391 . S
C443 C447 1.397 . S
C444 C439 1.391 . S
C444 C443 1.391 . S
C444 C445 1.399 . S
C445 C444 1.399 . S
C445 C446 1.396 . S
C445 C448 1.453 . S
C445 C449 1.684 . S
C446 C427 1.723 . S
C446 C445 1.396 . S
C446 C447 1.394 . S
C447 C443 1.397 . S
C447 C446 1.394 . S
C447 C457 1.723 . S
C448 C445 1.453 . S
C448 H472 0.982 . S
C448 H473 0.979 . S
C448 H474 0.977 . S
C449 C445 1.684 . S
C449 H475 0.979 . S
C449 H476 0.980 . S
C449 H477 0.983 . S
C450 H426 0.948 . S
C450 C451 1.391 . S
C450 C455 1.391 . S
C451 C450 1.391 . S
C451 C452 1.391 . S
C452 H429 0.947 . S
C452 C451 1.391 . S
C452 C453 1.392 . S
C453 H430 0.948 . S
C453 C452 1.392 . S
C453 C454 1.419 . S
C454 C453 1.419 . S
C454 C455 1.391 . S
C454 C458 1.397 . S
C455 C450 1.391 . S
C455 C454 1.391 . S
C455 C456 1.399 . S
C456 C455 1.399 . S
C456 C457 1.396 . S
C456 C459 1.453 . S
C456 C460 1.684 . S
C457 C447 1.723 . S
C457 C456 1.396 . S
C457 C458 1.394 . S
C458 C428 1.723 . S
C458 C454 1.397 . S
C458 C457 1.394 . S
C459 H431 0.982 . S
C459 H435 0.979 . S
C459 H436 0.977 . S
C459 C456 1.453 . S
C460 H432 0.979 . S
C460 H433 0.980 . S
C460 H434 0.983 . S
C460 C456 1.684 . S
H461 C479 0.948 . S
H462 C420 0.948 . S
H463 C438 0.979 . S
H464 C438 0.980 . S
H465 C438 0.983 . S
H466 C437 0.982 . S
H467 C437 0.979 . S
H468 C437 0.977 . S
H469 C439 0.948 . S
H470 C441 0.947 . S
H471 C442 0.948 . S
H472 C448 0.982 . S
H473 C448 0.979 . S
H474 C448 0.977 . S
H475 C449 0.979 . S
H476 C449 0.980 . S
H477 C449 0.983 . S
H478 C422 0.947 . S
C479 C422 1.392 . S
C479 C423 1.419 . S
C479 H461 0.948 . S
Co480 N485 2.057 . S
Co480 O497 2.021 . S
Co480 O500 2.062 1_455 S
Co480 O504 2.117 1_455 S
Co480 O505 2.020 1_545 S
C481 O501 1.259 1_545 S
C481 O504 1.258 . S
Co482 N491 2.036 1_545 S
Co482 O498 2.127 1_655 S
Co482 O499 2.057 . S
Co482 O501 2.016 1_545 S
Co482 O506 2.033 1_645 S
C483 N485 1.316 . S
C483 N486 1.347 1_556 S
C483 H488 0.931 . S
C484 N485 1.375 1_655 S
C484 C487 1.350 1_556 S
C484 H489 0.930 . S
N485 Co480 2.057 . S
N485 C483 1.316 . S
N485 C484 1.375 1_455 S
N486 C483 1.347 1_554 S
N486 C487 1.373 1_455 S
C487 C484 1.350 1_554 S
C487 N486 1.373 1_655 S
C487 H508 0.931 . S
H488 C483 0.931 . S
H489 C484 0.930 . S
C490 O497 1.259 . S
C490 O498 1.258 . S
N491 Co482 2.036 1_565 S
N491 C492 1.344 . S
N491 C493 1.343 1_655 S
C492 N491 1.344 . S
C492 N494 1.347 . S
C492 H503 0.931 . S
C493 N491 1.343 1_455 S
C493 C495 1.350 . S
C493 H502 0.930 . S
N494 C492 1.347 . S
N494 C495 1.373 1_655 S
C495 C493 1.350 . S
C495 N494 1.373 1_455 S
C495 H509 0.931 . S
C496 O499 1.256 . S
C496 O500 1.255 . S
O497 Co480 2.021 . S
O497 C490 1.259 . S
O498 Co482 2.127 1_455 S
O498 C490 1.258 . S
O499 Co482 2.057 . S
O499 C496 1.256 . S
O500 Co480 2.062 1_655 S
O500 C496 1.255 . S
O501 C481 1.259 1_565 S
O501 Co482 2.016 1_565 S
H502 C493 0.930 . S
H503 C492 0.931 . S
O504 Co480 2.117 1_655 S
O504 C481 1.258 . S
O505 Co480 2.020 1_565 S
O505 C507 1.256 . S
O506 Co482 2.033 1_465 S
O506 C507 1.255 . S
C507 O505 1.256 . S
C507 O506 1.255 . S
H508 C487 0.931 . S
H509 C495 0.931 . S
Co510 N515 2.057 . S
Co510 O527 2.021 . S
Co510 O530 2.062 . S
Co510 O534 2.117 1_545 S
Co510 O535 2.020 . S
C511 O531 1.259 . S
C511 O534 1.258 . S
Co512 N521 2.057 . S
Co512 O528 2.117 . S
Co512 O529 2.020 . S
Co512 O531 2.021 1_545 S
Co512 O536 2.062 1_545 S
C513 N515 1.316 . S
C513 N516 1.347 1_556 S
C513 H518 0.931 . S
C514 N515 1.375 . S
C514 C517 1.350 1_556 S
C514 H519 0.930 1_545 S
N515 Co510 2.057 . S
N515 C513 1.316 . S
N515 C514 1.375 . S
N516 C513 1.347 1_554 S
N516 C517 1.373 . S
C517 C514 1.350 1_554 S
C517 N516 1.373 . S
C517 H538 0.931 . S
H518 C513 0.931 . S
H519 C514 0.930 1_565 S
C520 O527 1.259 . S
C520 O528 1.258 . S
N521 Co512 2.057 . S
N521 C522 1.316 1_545 S
N521 C523 1.375 . S
C522 N521 1.316 1_565 S
C522 N524 1.347 . S
C522 H533 0.931 . S
C523 N521 1.375 . S
C523 C525 1.350 . S
C523 H532 0.930 . S
N524 C522 1.347 . S
N524 C525 1.373 1_565 S
C525 C523 1.350 . S
C525 N524 1.373 1_545 S
C525 H539 0.931 . S
C526 O529 1.256 . S
C526 O530 1.255 . S
O527 Co510 2.021 . S
O527 C520 1.259 . S
O528 Co512 2.117 . S
O528 C520 1.258 . S
O529 Co512 2.020 . S
O529 C526 1.256 . S
O530 Co510 2.062 . S
O530 C526 1.255 . S
O531 C511 1.259 . S
O531 Co512 2.021 1_565 S
H532 C523 0.930 . S
H533 C522 0.931 . S
O534 Co510 2.117 1_565 S
O534 C511 1.258 . S
O535 Co510 2.020 . S
O535 C537 1.256 . S
O536 Co512 2.062 1_565 S
O536 C537 1.255 1_565 S
C537 O535 1.256 . S
C537 O536 1.255 1_545 S
H538 C517 0.931 . S
H539 C525 0.931 . S
Co540 N545 2.057 . S
Co540 O557 2.021 . S
Co540 O560 2.062 . S
Co540 O564 2.117 . S
Co540 O565 2.020 . S
C541 O561 1.259 . S
C541 O564 1.258 . S
Co542 N551 2.057 . S
Co542 O558 2.117 . S
Co542 O559 2.020 . S
Co542 O561 2.021 . S
Co542 O566 2.062 . S
C543 N545 1.316 . S
C543 N546 1.347 . S
C543 H548 0.931 . S
C544 N545 1.375 . S
C544 C547 1.350 . S
C544 H549 0.930 . S
N545 Co540 2.057 . S
N545 C543 1.316 . S
N545 C544 1.375 . S
N546 C543 1.347 . S
N546 C547 1.373 . S
C547 C544 1.350 . S
C547 N546 1.373 . S
C547 H568 0.931 . S
H548 C543 0.931 . S
H549 C544 0.930 . S
C550 O557 1.259 . S
C550 O558 1.258 . S
N551 Co542 2.057 . S
N551 C552 1.316 . S
N551 C553 1.375 . S
C552 N551 1.316 . S
C552 N554 1.347 . S
C552 H563 0.931 . S
C553 N551 1.375 . S
C553 C555 1.350 . S
C553 H562 0.930 . S
N554 C552 1.347 . S
N554 C555 1.373 . S
C555 C553 1.350 . S
C555 N554 1.373 . S
C555 H569 0.931 . S
C556 O559 1.256 . S
C556 O560 1.255 . S
O557 Co540 2.021 . S
O557 C550 1.259 . S
O558 Co542 2.117 . S
O558 C550 1.258 . S
O559 Co542 2.020 . S
O559 C556 1.256 . S
O560 Co540 2.062 . S
O560 C556 1.255 . S
O561 C541 1.259 . S
O561 Co542 2.021 . S
H562 C553 0.930 . S
H563 C552 0.931 . S
O564 Co540 2.117 . S
O564 C541 1.258 . S
O565 Co540 2.020 . S
O565 C567 1.256 . S
O566 Co542 2.062 . S
O566 C567 1.255 . S
C567 O565 1.256 . S
C567 O566 1.255 . S
H568 C547 0.931 . S
H569 C555 0.931 . S
Co570 N575 2.057 . S
Co570 O587 2.021 1_455 S
Co570 O590 2.062 1_455 S
Co570 O594 2.117 . S
Co570 O595 2.020 . S
C571 O591 1.259 . S
C571 O594 1.258 . S
Co572 N581 2.057 . S
Co572 O588 2.117 . S
Co572 O589 2.020 . S
Co572 O591 2.021 1_655 S
Co572 O596 2.062 1_655 S
C573 N575 1.316 . S
C573 N576 1.347 . S
C573 H578 0.931 1_455 S
C574 N575 1.375 . S
C574 C577 1.350 . S
C574 H579 0.930 . S
N575 Co570 2.057 . S
N575 C573 1.316 . S
N575 C574 1.375 . S
N576 C573 1.347 . S
N576 C577 1.373 . S
C577 C574 1.350 . S
C577 N576 1.373 . S
C577 H598 0.931 . S
H578 C573 0.931 1_655 S
H579 C574 0.930 . S
C580 O587 1.259 . S
C580 O588 1.258 . S
N581 Co572 2.057 . S
N581 C582 1.316 . S
N581 C583 1.375 . S
C582 N581 1.316 . S
C582 N584 1.347 . S
C582 H593 0.931 1_655 S
C583 N581 1.375 . S
C583 C585 1.350 . S
C583 H592 0.930 . S
N584 C582 1.347 . S
N584 C585 1.373 . S
C585 C583 1.350 . S
C585 N584 1.373 . S
C585 H599 0.931 . S
C586 O589 1.256 . S
C586 O590 1.255 . S
O587 Co570 2.021 1_655 S
O587 C580 1.259 . S
O588 Co572 2.117 . S
O588 C580 1.258 . S
O589 Co572 2.020 . S
O589 C586 1.256 . S
O590 Co570 2.062 1_655 S
O590 C586 1.255 . S
O591 C571 1.259 . S
O591 Co572 2.021 1_455 S
H592 C583 0.930 . S
H593 C582 0.931 1_455 S
O594 Co570 2.117 . S
O594 C571 1.258 . S
O595 Co570 2.020 . S
O595 C597 1.256 . S
O596 Co572 2.062 1_455 S
O596 C597 1.255 . S
C597 O595 1.256 . S
C597 O596 1.255 . S
H598 C577 0.931 . S
H599 C585 0.931 . S
C600 C601 1.363 . S
C600 C606 1.379 . S
C600 N608 1.356 . S
C601 C600 1.363 . S
C601 C607 1.363 . S
C602 C603 1.363 . S
C602 C607 1.379 . S
C602 N609 1.356 . S
C603 C602 1.363 . S
C603 C606 1.363 . S
N604 C606 1.356 . S
N604 H616 0.984 . S
N604 H617 0.985 . S
N605 C607 1.356 . S
N605 H610 0.984 . S
N605 H611 0.985 . S
C606 C600 1.379 . S
C606 C603 1.363 . S
C606 N604 1.356 . S
C607 C601 1.363 . S
C607 C602 1.379 . S
C607 N605 1.356 . S
N608 C600 1.356 . S
N608 H614 0.984 . S
N608 H615 0.984 . S
N609 C602 1.356 . S
N609 H612 0.984 . S
N609 H613 0.985 . S
H610 N605 0.984 . S
H611 N605 0.985 . S
H612 N609 0.984 . S
H613 N609 0.985 . S
H614 N608 0.984 . S
H615 N608 0.984 . S
H616 N604 0.984 . S
H617 N604 0.985 . S
C618 C619 1.363 . S
C618 C624 1.379 . S
C618 N626 1.356 . S
C619 C618 1.363 . S
C619 C625 1.363 . S
C620 C621 1.363 . S
C620 C625 1.379 . S
C620 N627 1.356 . S
C621 C620 1.363 . S
C621 C624 1.363 . S
N622 C624 1.356 . S
N622 H634 0.984 . S
N622 H635 0.985 . S
N623 C625 1.356 . S
N623 H628 0.984 . S
N623 H629 0.985 . S
C624 C618 1.379 . S
C624 C621 1.363 . S
C624 N622 1.356 . S
C625 C619 1.363 . S
C625 C620 1.379 . S
C625 N623 1.356 . S
N626 C618 1.356 . S
N626 H632 0.984 . S
N626 H633 0.984 . S
N627 C620 1.356 . S
N627 H630 0.984 . S
N627 H631 0.985 . S
H628 N623 0.984 . S
H629 N623 0.985 . S
H630 N627 0.984 . S
H631 N627 0.985 . S
H632 N626 0.984 . S
H633 N626 0.984 . S
H634 N622 0.984 . S
H635 N622 0.985 . S
C636 C637 1.363 . S
C636 C642 1.379 . S
C636 N644 1.356 . S
C637 C636 1.363 . S
C637 C643 1.363 . S
C638 C639 1.363 . S
C638 C643 1.379 . S
C638 N645 1.356 . S
C639 C638 1.363 . S
C639 C642 1.363 . S
N640 C642 1.356 . S
N640 H652 0.984 . S
N640 H653 0.985 . S
N641 C643 1.356 . S
N641 H646 0.984 . S
N641 H647 0.985 . S
C642 C636 1.379 . S
C642 C639 1.363 . S
C642 N640 1.356 . S
C643 C637 1.363 . S
C643 C638 1.379 . S
C643 N641 1.356 . S
N644 C636 1.356 . S
N644 H650 0.984 . S
N644 H651 0.984 . S
N645 C638 1.356 . S
N645 H648 0.984 . S
N645 H649 0.985 . S
H646 N641 0.984 . S
H647 N641 0.985 . S
H648 N645 0.984 . S
H649 N645 0.985 . S
H650 N644 0.984 . S
H651 N644 0.984 . S
H652 N640 0.984 . S
H653 N640 0.985 . S
C654 C655 1.363 . S
C654 C660 1.379 . S
C654 N662 1.356 . S
C655 C654 1.363 . S
C655 C661 1.363 1_655 S
C656 C657 1.363 1_455 S
C656 C661 1.379 . S
C656 N663 1.356 . S
C657 C656 1.363 1_655 S
C657 C660 1.363 . S
N658 C660 1.356 . S
N658 H670 0.984 . S
N658 H671 0.985 . S
N659 C661 1.356 . S
N659 H664 0.984 . S
N659 H665 0.985 . S
C660 C654 1.379 . S
C660 C657 1.363 . S
C660 N658 1.356 . S
C661 C655 1.363 1_455 S
C661 C656 1.379 . S
C661 N659 1.356 . S
N662 C654 1.356 . S
N662 H668 0.984 . S
N662 H669 0.984 . S
N663 C656 1.356 . S
N663 H666 0.984 . S
N663 H667 0.985 . S
H664 N659 0.984 . S
H665 N659 0.985 . S
H666 N663 0.984 . S
H667 N663 0.985 . S
H668 N662 0.984 . S
H669 N662 0.984 . S
H670 N658 0.984 . S
H671 N658 0.985 . S
C672 C673 1.363 . S
C672 C678 1.379 . S
C672 N680 1.356 1_556 S
C673 C672 1.363 . S
C673 C679 1.363 . S
C674 C675 1.363 . S
C674 C679 1.379 . S
C674 N681 1.356 . S
C675 C674 1.363 . S
C675 C678 1.363 . S
N676 C678 1.356 . S
N676 H688 0.986 1_556 S
N676 H689 0.985 1_565 S
N677 C679 1.356 . S
N677 H682 0.984 . S
N677 H683 0.985 . S
C678 C672 1.379 . S
C678 C675 1.363 . S
C678 N676 1.356 . S
C679 C673 1.363 . S
C679 C674 1.379 . S
C679 N677 1.356 . S
N680 C672 1.356 1_554 S
N680 H686 0.984 . S
N680 H687 0.984 . S
N681 C674 1.356 . S
N681 H684 0.986 . S
N681 H685 0.985 . S
H682 N677 0.984 . S
H683 N677 0.985 . S
H684 N681 0.986 . S
H685 N681 0.985 . S
H686 N680 0.984 . S
H687 N680 0.984 . S
H688 N676 0.986 1_554 S
H689 N676 0.985 1_545 S
C690 C691 1.363 . S
C690 C696 1.379 . S
C690 N698 1.356 . S
C691 C690 1.363 . S
C691 C697 1.363 . S
C692 C693 1.363 . S
C692 C697 1.379 . S
C692 N699 1.356 . S
C693 C692 1.363 . S
C693 C696 1.363 . S
N694 C696 1.356 . S
N694 H706 0.984 . S
N694 H707 0.985 . S
N695 C697 1.356 1_554 S
N695 H700 0.984 . S
N695 H701 0.985 . S
C696 C690 1.379 . S
C696 C693 1.363 . S
C696 N694 1.356 . S
C697 C691 1.363 . S
C697 C692 1.379 . S
C697 N695 1.356 1_556 S
N698 C690 1.356 . S
N698 H704 0.984 . S
N698 H705 0.984 . S
N699 C692 1.356 . S
N699 H702 0.984 . S
N699 H703 0.985 . S
H700 N695 0.984 . S
H701 N695 0.985 . S
H702 N699 0.984 . S
H703 N699 0.985 . S
H704 N698 0.984 . S
H705 N698 0.984 . S
H706 N694 0.984 . S
H707 N694 0.985 . S
C708 C709 1.363 1_556 S
C708 C714 1.379 . S
C708 N716 1.356 1_556 S
C709 C708 1.363 1_554 S
C709 C715 1.363 1_554 S
C710 C711 1.363 . S
C710 C715 1.379 . S
C710 N717 1.356 . S
C711 C710 1.363 . S
C711 C714 1.363 . S
N712 C714 1.356 . S
N712 H724 0.984 . S
N712 H725 0.985 . S
N713 C715 1.356 1_554 S
N713 H718 0.984 . S
N713 H719 0.985 . S
C714 C708 1.379 . S
C714 C711 1.363 . S
C714 N712 1.356 . S
C715 C709 1.363 1_556 S
C715 C710 1.379 . S
C715 N713 1.356 1_556 S
N716 C708 1.356 1_554 S
N716 H722 0.984 1_554 S
N716 H723 0.984 . S
N717 C710 1.356 . S
N717 H720 0.984 . S
N717 H721 0.985 . S
H718 N713 0.984 . S
H719 N713 0.985 . S
H720 N717 0.984 . S
H721 N717 0.985 . S
H722 N716 0.984 1_556 S
H723 N716 0.984 . S
H724 N712 0.984 . S
H725 N712 0.985 . S
C726 C727 1.363 1_656 S
C726 C732 1.379 1_655 S
C726 N734 1.356 . S
C727 C726 1.363 1_454 S
C727 C733 1.363 . S
C728 C729 1.363 . S
C728 C733 1.379 1_556 S
C728 N735 1.356 . S
C729 C728 1.363 . S
C729 C732 1.363 . S
N730 C732 1.356 1_655 S
N730 H742 0.984 . S
N730 H743 0.985 1_655 S
N731 C733 1.356 . S
N731 H736 0.984 . S
N731 H737 0.985 . S
C732 C726 1.379 1_455 S
C732 C729 1.363 . S
C732 N730 1.356 1_455 S
C733 C727 1.363 . S
C733 C728 1.379 1_554 S
C733 N731 1.356 . S
N734 C726 1.356 . S
N734 H740 0.984 . S
N734 H741 0.984 1_556 S
N735 C728 1.356 . S
N735 H738 0.984 . S
N735 H739 0.985 . S
H736 N731 0.984 . S
H737 N731 0.985 . S
H738 N735 0.984 . S
H739 N735 0.985 . S
H740 N734 0.984 . S
H741 N734 0.984 1_554 S
H742 N730 0.984 . S
H743 N730 0.985 1_455 S
C744 C745 1.363 1_655 S
C744 C750 1.379 . S
C744 N752 1.356 . S
C745 C744 1.363 1_455 S
C745 C751 1.363 . S
C746 C747 1.363 1_455 S
C746 C751 1.379 . S
C746 N753 1.356 . S
C747 C746 1.363 1_655 S
C747 C750 1.363 . S
N748 C750 1.356 . S
N748 H760 0.984 . S
N748 H761 0.985 . S
N749 C751 1.356 . S
N749 H754 0.984 . S
N749 H755 0.985 . S
C750 C744 1.379 . S
C750 C747 1.363 . S
C750 N748 1.356 . S
C751 C745 1.363 . S
C751 C746 1.379 . S
C751 N749 1.356 . S
N752 C744 1.356 . S
N752 H758 0.984 . S
N752 H759 0.984 . S
N753 C746 1.356 . S
N753 H756 0.984 . S
N753 H757 0.985 . S
H754 N749 0.984 . S
H755 N749 0.985 . S
H756 N753 0.984 . S
H757 N753 0.985 . S
H758 N752 0.984 . S
H759 N752 0.984 . S
H760 N748 0.984 . S
H761 N748 0.985 . S
C762 C763 1.363 . S
C762 C768 1.379 . S
C762 N770 1.356 . S
C763 C762 1.363 . S
C763 C769 1.363 . S
C764 C765 1.363 . S
C764 C769 1.379 . S
C764 N771 1.356 . S
C765 C764 1.363 . S
C765 C768 1.363 . S
N766 C768 1.356 . S
N766 H778 0.984 . S
N766 H779 0.985 . S
N767 C769 1.356 . S
N767 H772 0.984 . S
N767 H773 0.985 . S
C768 C762 1.379 . S
C768 C765 1.363 . S
C768 N766 1.356 . S
C769 C763 1.363 . S
C769 C764 1.379 . S
C769 N767 1.356 . S
N770 C762 1.356 . S
N770 H776 0.984 . S
N770 H777 0.984 . S
N771 C764 1.356 . S
N771 H774 0.984 . S
N771 H775 0.985 . S
H772 N767 0.984 . S
H773 N767 0.985 . S
H774 N771 0.984 . S
H775 N771 0.985 . S
H776 N770 0.984 . S
H777 N770 0.984 . S
H778 N766 0.984 . S
H779 N766 0.985 . S
C780 C781 1.363 . S
C780 C786 1.379 . S
C780 N788 1.356 . S
C781 C780 1.363 . S
C781 C787 1.363 . S
C782 C783 1.363 . S
C782 C787 1.379 . S
C782 N789 1.356 . S
C783 C782 1.363 . S
C783 C786 1.363 . S
N784 C786 1.356 . S
N784 H796 0.984 . S
N784 H797 0.985 . S
N785 C787 1.356 . S
N785 H790 0.984 . S
N785 H791 0.985 . S
C786 C780 1.379 . S
C786 C783 1.363 . S
C786 N784 1.356 . S
C787 C781 1.363 . S
C787 C782 1.379 . S
C787 N785 1.356 . S
N788 C780 1.356 . S
N788 H794 0.984 . S
N788 H795 0.984 . S
N789 C782 1.356 . S
N789 H792 0.984 . S
N789 H793 0.985 . S
H790 N785 0.984 . S
H791 N785 0.985 . S
H792 N789 0.984 . S
H793 N789 0.985 . S
H794 N788 0.984 . S
H795 N788 0.984 . S
H796 N784 0.984 . S
H797 N784 0.985 . S
C798 C799 1.363 . S
C798 C804 1.379 . S
C798 N806 1.356 . S
C799 C798 1.363 . S
C799 C805 1.363 . S
C800 C801 1.363 . S
C800 C805 1.379 . S
C800 N807 1.356 . S
C801 C800 1.363 . S
C801 C804 1.363 . S
N802 C804 1.356 . S
N802 H814 0.984 . S
N802 H815 0.985 . S
N803 C805 1.356 . S
N803 H808 0.984 . S
N803 H809 0.985 . S
C804 C798 1.379 . S
C804 C801 1.363 . S
C804 N802 1.356 . S
C805 C799 1.363 . S
C805 C800 1.379 . S
C805 N803 1.356 . S
N806 C798 1.356 . S
N806 H812 0.984 . S
N806 H813 0.984 . S
N807 C800 1.356 . S
N807 H810 0.984 . S
N807 H811 0.985 . S
H808 N803 0.984 . S
H809 N803 0.985 . S
H810 N807 0.984 . S
H811 N807 0.985 . S
H812 N806 0.984 . S
H813 N806 0.984 . S
H814 N802 0.984 . S
H815 N802 0.985 . S
C816 C817 1.363 1_455 S
C816 C822 1.379 . S
C816 N824 1.356 . S
C817 C816 1.363 1_655 S
C817 C823 1.363 . S
C818 C819 1.363 1_655 S
C818 C823 1.379 . S
C818 N825 1.356 . S
C819 C818 1.363 1_455 S
C819 C822 1.363 . S
N820 C822 1.356 . S
N820 H832 0.984 . S
N820 H833 0.985 . S
N821 C823 1.356 . S
N821 H826 0.984 . S
N821 H827 0.985 . S
C822 C816 1.379 . S
C822 C819 1.363 . S
C822 N820 1.356 . S
C823 C817 1.363 . S
C823 C818 1.379 . S
C823 N821 1.356 . S
N824 C816 1.356 . S
N824 H830 0.984 . S
N824 H831 0.984 . S
N825 C818 1.356 . S
N825 H828 0.984 1_655 S
N825 H829 0.985 1_556 S
H826 N821 0.984 . S
H827 N821 0.985 . S
H828 N825 0.984 1_455 S
H829 N825 0.985 1_554 S
H830 N824 0.984 . S
H831 N824 0.984 . S
H832 N820 0.984 . S
H833 N820 0.985 . S
C834 C835 1.363 . S
C834 C840 1.379 . S
C834 N842 1.356 . S
C835 C834 1.363 . S
C835 C841 1.363 . S
C836 C837 1.363 . S
C836 C841 1.379 . S
C836 N843 1.356 . S
C837 C836 1.363 . S
C837 C840 1.363 . S
N838 C840 1.356 1_545 S
N838 H850 0.984 . S
N838 H851 0.985 . S
N839 C841 1.356 . S
N839 H844 0.984 . S
N839 H845 0.985 . S
C840 C834 1.379 . S
C840 C837 1.363 . S
C840 N838 1.356 1_565 S
C841 C835 1.363 . S
C841 C836 1.379 . S
C841 N839 1.356 . S
N842 C834 1.356 . S
N842 H848 0.984 . S
N842 H849 0.984 . S
N843 C836 1.356 . S
N843 H846 0.984 . S
N843 H847 0.985 . S
H844 N839 0.984 . S
H845 N839 0.985 . S
H846 N843 0.984 . S
H847 N843 0.985 . S
H848 N842 0.984 . S
H849 N842 0.984 . S
H850 N838 0.984 . S
H851 N838 0.985 . S
C852 C853 1.363 . S
C852 C858 1.379 . S
C852 N860 1.356 . S
C853 C852 1.363 . S
C853 C859 1.363 . S
C854 C855 1.363 . S
C854 C859 1.379 . S
C854 N861 1.356 . S
C855 C854 1.363 . S
C855 C858 1.363 . S
N856 C858 1.356 . S
N856 H868 0.984 1_556 S
N856 H869 0.985 . S
N857 C859 1.356 . S
N857 H862 0.984 . S
N857 H863 0.985 . S
C858 C852 1.379 . S
C858 C855 1.363 . S
C858 N856 1.356 . S
C859 C853 1.363 . S
C859 C854 1.379 . S
C859 N857 1.356 . S
N860 C852 1.356 . S
N860 H866 0.984 1_556 S
N860 H867 0.984 . S
N861 C854 1.356 . S
N861 H864 0.984 . S
N861 H865 0.985 . S
H862 N857 0.984 . S
H863 N857 0.985 . S
H864 N861 0.984 . S
H865 N861 0.985 . S
H866 N860 0.984 1_554 S
H867 N860 0.984 . S
H868 N856 0.984 1_554 S
H869 N856 0.985 . S
C870 C871 1.363 . S
C870 C876 1.379 . S
C870 N878 1.356 . S
C871 C870 1.363 . S
C871 C877 1.363 . S
C872 C873 1.363 . S
C872 C877 1.379 . S
C872 N879 1.356 . S
C873 C872 1.363 . S
C873 C876 1.363 . S
N874 C876 1.356 . S
N874 H886 0.984 1_556 S
N874 H887 0.985 . S
N875 C877 1.356 . S
N875 H880 0.984 . S
N875 H881 0.985 . S
C876 C870 1.379 . S
C876 C873 1.363 . S
C876 N874 1.356 . S
C877 C871 1.363 . S
C877 C872 1.379 . S
C877 N875 1.356 . S
N878 C870 1.356 . S
N878 H884 0.984 1_556 S
N878 H885 0.984 . S
N879 C872 1.356 . S
N879 H882 0.984 . S
N879 H883 0.985 . S
H880 N875 0.984 . S
H881 N875 0.985 . S
H882 N879 0.984 . S
H883 N879 0.985 . S
H884 N878 0.984 1_554 S
H885 N878 0.984 . S
H886 N874 0.984 1_554 S
H887 N874 0.985 . S
C888 C889 1.363 1_655 S
C888 C894 1.379 . S
C888 N896 1.356 1_554 S
C889 C888 1.363 1_455 S
C889 C895 1.363 . S
C890 C891 1.363 . S
C890 C895 1.379 . S
C890 N897 1.356 . S
C891 C890 1.363 . S
C891 C894 1.363 1_455 S
N892 C894 1.356 1_556 S
N892 H904 0.984 . S
N892 H905 0.985 . S
N893 C895 1.356 . S
N893 H898 0.984 . S
N893 H899 0.985 . S
C894 C888 1.379 . S
C894 C891 1.363 1_655 S
C894 N892 1.356 1_554 S
C895 C889 1.363 . S
C895 C890 1.379 . S
C895 N893 1.356 . S
N896 C888 1.356 1_556 S
N896 H902 0.984 . S
N896 H903 0.984 1_556 S
N897 C890 1.356 . S
N897 H900 0.984 . S
N897 H901 0.985 . S
H898 N893 0.984 . S
H899 N893 0.985 . S
H900 N897 0.984 . S
H901 N897 0.985 . S
H902 N896 0.984 . S
H903 N896 0.984 1_554 S
H904 N892 0.984 . S
H905 N892 0.985 . S
C906 C907 1.363 . S
C906 C912 1.379 . S
C906 N914 1.356 . S
C907 C906 1.363 . S
C907 C913 1.363 . S
C908 C909 1.363 . S
C908 C913 1.379 . S
C908 N915 1.356 1_554 S
C909 C908 1.363 . S
C909 C912 1.363 . S
N910 C912 1.356 . S
N910 H922 0.984 . S
N910 H923 0.985 . S
N911 C913 1.356 . S
N911 H916 0.984 . S
N911 H917 0.985 1_554 S
C912 C906 1.379 . S
C912 C909 1.363 . S
C912 N910 1.356 . S
C913 C907 1.363 . S
C913 C908 1.379 . S
C913 N911 1.356 . S
N914 C906 1.356 . S
N914 H920 0.984 . S
N914 H921 0.984 . S
N915 C908 1.356 1_556 S
N915 H918 0.984 . S
N915 H919 0.985 . S
H916 N911 0.984 . S
H917 N911 0.985 1_556 S
H918 N915 0.984 . S
H919 N915 0.985 . S
H920 N914 0.984 . S
H921 N914 0.984 . S
H922 N910 0.984 . S
H923 N910 0.985 . S
C924 C925 1.363 . S
C924 C930 1.379 1_554 S
C924 N932 1.356 1_554 S
C925 C924 1.363 . S
C925 C931 1.363 . S
C926 C927 1.363 1_554 S
C926 C931 1.379 . S
C926 N933 1.356 . S
C927 C926 1.363 1_556 S
C927 C930 1.363 . S
N928 C930 1.356 . S
N928 H940 0.984 . S
N928 H941 0.985 . S
N929 C931 1.356 . S
N929 H934 0.984 . S
N929 H935 0.985 . S
C930 C924 1.379 1_556 S
C930 C927 1.363 . S
C930 N928 1.356 . S
C931 C925 1.363 . S
C931 C926 1.379 . S
C931 N929 1.356 . S
N932 C924 1.356 1_556 S
N932 H938 0.984 . S
N932 H939 0.985 1_556 S
N933 C926 1.356 . S
N933 H936 0.984 1_554 S
N933 H937 0.985 . S
H934 N929 0.984 . S
H935 N929 0.985 . S
H936 N933 0.984 1_556 S
H937 N933 0.985 . S
H938 N932 0.984 . S
H939 N932 0.985 1_554 S
H940 N928 0.984 . S
H941 N928 0.985 . S
C942 C943 1.363 . S
C942 C948 1.379 . S
C942 N950 1.356 . S
C943 C942 1.363 . S
C943 C949 1.363 1_554 S
C944 C945 1.363 . S
C944 C949 1.379 . S
C944 N951 1.356 . S
C945 C944 1.363 . S
C945 C948 1.363 1_556 S
N946 C948 1.356 . S
N946 H958 0.984 . S
N946 H959 0.985 . S
N947 C949 1.356 . S
N947 H952 0.984 1_556 S
N947 H953 0.985 . S
C948 C942 1.379 . S
C948 C945 1.363 1_554 S
C948 N946 1.356 . S
C949 C943 1.363 1_556 S
C949 C944 1.379 . S
C949 N947 1.356 . S
N950 C942 1.356 . S
N950 H956 0.984 . S
N950 H957 0.984 . S
N951 C944 1.356 . S
N951 H954 0.984 . S
N951 H955 0.985 . S
H952 N947 0.984 1_554 S
H953 N947 0.985 . S
H954 N951 0.984 . S
H955 N951 0.985 . S
H956 N950 0.984 . S
H957 N950 0.984 . S
H958 N946 0.984 . S
H959 N946 0.985 . S
C960 C961 1.363 1_455 S
C960 C966 1.379 . S
C960 N968 1.356 . S
C961 C960 1.363 1_655 S
C961 C967 1.363 . S
C962 C963 1.363 . S
C962 C967 1.379 . S
C962 N969 1.356 . S
C963 C962 1.363 . S
C963 C966 1.363 1_655 S
N964 C966 1.356 . S
N964 H976 0.984 . S
N964 H977 0.985 . S
N965 C967 1.356 . S
N965 H970 0.984 . S
N965 H971 0.985 . S
C966 C960 1.379 . S
C966 C963 1.363 1_455 S
C966 N964 1.356 . S
C967 C961 1.363 . S
C967 C962 1.379 . S
C967 N965 1.356 . S
N968 C960 1.356 . S
N968 H974 0.984 . S
N968 H975 0.984 . S
N969 C962 1.356 . S
N969 H972 0.984 . S
N969 H973 0.985 . S
H970 N965 0.984 . S
H971 N965 0.985 . S
H972 N969 0.984 . S
H973 N969 0.985 . S
H974 N968 0.984 . S
H975 N968 0.984 . S
H976 N964 0.984 . S
H977 N964 0.985 . S
C978 C979 1.363 . S
C978 C984 1.379 . S
C978 N986 1.356 . S
C979 C978 1.363 . S
C979 C985 1.363 . S
C980 C981 1.363 . S
C980 C985 1.379 . S
C980 N987 1.356 . S
C981 C980 1.363 . S
C981 C984 1.363 . S
N982 C984 1.356 1_545 S
N982 H994 0.984 . S
N982 H995 0.985 . S
N983 C985 1.356 . S
N983 H988 0.984 . S
N983 H989 0.985 . S
C984 C978 1.379 . S
C984 C981 1.363 . S
C984 N982 1.356 1_565 S
C985 C979 1.363 . S
C985 C980 1.379 . S
C985 N983 1.356 . S
N986 C978 1.356 . S
N986 H992 0.984 1_565 S
N986 H993 0.984 . S
N987 C980 1.356 . S
N987 H990 0.984 . S
N987 H991 0.985 . S
H988 N983 0.984 . S
H989 N983 0.985 . S
H990 N987 0.984 . S
H991 N987 0.985 . S
H992 N986 0.984 1_545 S
H993 N986 0.984 . S
H994 N982 0.984 . S
H995 N982 0.985 . S
C996 C997 1.363 . S
C996 C1002 1.379 . S
C996 N1004 1.356 . S
C997 C996 1.363 . S
C997 C1003 1.363 . S
C998 C999 1.363 . S
C998 C1003 1.379 . S
C998 N1005 1.356 . S
C999 C998 1.363 . S
C999 C1002 1.363 . S
N1000 C1002 1.356 . S
N1000 H1012 0.984 . S
N1000 H1013 0.985 . S
N1001 C1003 1.356 . S
N1001 H1006 0.984 . S
N1001 H1007 0.985 . S
C1002 C996 1.379 . S
C1002 C999 1.363 . S
C1002 N1000 1.356 . S
C1003 C997 1.363 . S
C1003 C998 1.379 . S
C1003 N1001 1.356 . S
N1004 C996 1.356 . S
N1004 H1010 0.984 . S
N1004 H1011 0.984 . S
N1005 C998 1.356 . S
N1005 H1008 0.984 . S
N1005 H1009 0.985 . S
H1006 N1001 0.984 . S
H1007 N1001 0.985 . S
H1008 N1005 0.984 . S
H1009 N1005 0.985 . S
H1010 N1004 0.984 . S
H1011 N1004 0.984 . S
H1012 N1000 0.984 . S
H1013 N1000 0.985 . S
C1014 C1015 1.363 . S
C1014 C1020 1.379 . S
C1014 N1022 1.356 . S
C1015 C1014 1.363 . S
C1015 C1021 1.363 . S
C1016 C1017 1.363 . S
C1016 C1021 1.379 . S
C1016 N1023 1.356 . S
C1017 C1016 1.363 . S
C1017 C1020 1.363 . S
N1018 C1020 1.356 . S
N1018 H1030 0.984 . S
N1018 H1031 0.985 . S
N1019 C1021 1.356 . S
N1019 H1024 0.984 . S
N1019 H1025 0.985 . S
C1020 C1014 1.379 . S
C1020 C1017 1.363 . S
C1020 N1018 1.356 . S
C1021 C1015 1.363 . S
C1021 C1016 1.379 . S
C1021 N1019 1.356 . S
N1022 C1014 1.356 . S
N1022 H1028 0.984 . S
N1022 H1029 0.984 . S
N1023 C1016 1.356 . S
N1023 H1026 0.984 . S
N1023 H1027 0.985 . S
H1024 N1019 0.984 . S
H1025 N1019 0.985 . S
H1026 N1023 0.984 . S
H1027 N1023 0.985 . S
H1028 N1022 0.984 . S
H1029 N1022 0.984 . S
H1030 N1018 0.984 . S
H1031 N1018 0.985 . S
C601 C391 2.014 . S
C603 C490 1.970 . S
C621 C520 1.816 . S
C619 C451 1.805 . S
C639 N554 1.889 . S
C637 C241 1.655 . S
C657 N584 1.494 . S
C655 C331 1.415 . S
C675 C481 1.974 1_565 S
C673 C121 1.897 1_556 S
C691 C211 1.829 1_556 S
C693 C511 1.816 . S
C709 C31 1.853 . S
C711 N546 1.889 . S
C727 C91 1.448 1_455 S
C729 N576 1.496 . S
C747 C496 0.660 . S
C745 C301 0.833 1_455 S
C765 C526 1.211 . S
C763 C380 1.216 . S
C783 C567 0.957 . S
C781 C440 0.960 . S
C799 C260 0.954 . S
C801 C597 1.094 . S
C817 C61 0.793 . S
C819 C507 0.657 . S
C837 C537 1.211 1_565 S
C835 C140 1.063 . S
C855 C556 0.957 . S
C853 C200 0.969 . S
C871 C20 0.980 . S
C873 C586 1.099 . S
C889 C320 1.800 1_455 S
C891 N486 1.817 . S
C907 C361 1.711 . S
C909 N516 1.973 . S
C927 C541 2.014 . S
C925 C421 1.734 . S
C945 C571 2.224 . S
C943 C271 2.095 . S
C961 C80 1.778 . S
C963 N494 1.819 . S
C981 N524 1.973 . S
C979 C151 1.947 . S
C999 C550 2.014 . S
C997 C181 1.783 . S
C1015 C1 1.884 . S
C1017 C580 2.227 . S
