# Generated by pormake.
# Topology tsx, (6,3)-cn, num edge types: 1
# Building blocks:
#     Node 0, Type 0, BuildingBlock: JUFBIX_clean_sbu_0, # of connection points: 6
#     Node 1, Type 0, BuildingBlock: JUFBIX_clean_sbu_0, # of connection points: 6
#     Node 2, Type 1, BuildingBlock: CUQRIR_clean_linker_1, # of connection points: 3
#     Node 3, Type 1, BuildingBlock: CUQRIR_clean_linker_1, # of connection points: 3
#     Node 4, Type 1, BuildingBlock: CUQRIR_clean_linker_1, # of connection points: 3
#     Node 5, Type 1, BuildingBlock: CUQRIR_clean_linker_1, # of connection points: 3
#     Edge 6, Type (0, 1), BuildingBlock: FUNLAD_clean_linker_1, # of connection points: 2
#     Edge 7, Type (0, 1), BuildingBlock: FUNLAD_clean_linker_1, # of connection points: 2
#     Edge 8, Type (0, 1), BuildingBlock: FUNLAD_clean_linker_1, # of connection points: 2
#     Edge 9, Type (0, 1), BuildingBlock: FUNLAD_clean_linker_1, # of connection points: 2
#     Edge 10, Type (0, 1), BuildingBlock: FUNLAD_clean_linker_1, # of connection points: 2
#     Edge 11, Type (0, 1), BuildingBlock: FUNLAD_clean_linker_1, # of connection points: 2
#     Edge 12, Type (0, 1), BuildingBlock: FUNLAD_clean_linker_1, # of connection points: 2
#     Edge 13, Type (0, 1), BuildingBlock: FUNLAD_clean_linker_1, # of connection points: 2
#     Edge 14, Type (0, 1), BuildingBlock: FUNLAD_clean_linker_1, # of connection points: 2
#     Edge 15, Type (0, 1), BuildingBlock: FUNLAD_clean_linker_1, # of connection points: 2
#     Edge 16, Type (0, 1), BuildingBlock: FUNLAD_clean_linker_1, # of connection points: 2
#     Edge 17, Type (0, 1), BuildingBlock: FUNLAD_clean_linker_1, # of connection points: 2
# Relax obj value: 0.138
# Max RMSD: 0.159
# Mean RMSD: 0.146
data_MOF--net-tsx--node1-JUFBIX_clean_sbu_0--node2-CUQRIR_clean_linker_1--edge1-FUNLAD_clean_linker_1
_symmetry_space_group_name_H-M    P1
_symmetry_Int_Tables_number       1
_symmetry_cell_setting            triclinic
loop_
_symmetry_equiv_pos_as_xyz
'x, y, z'
_cell_length_a     19.140539
_cell_length_b     22.813109
_cell_length_c     32.668461
_cell_angle_alpha  81.588899
_cell_angle_beta   90.278545
_cell_angle_gamma 99.98527
loop_
_atom_site_label
_atom_site_type_symbol
_atom_site_fract_x
_atom_site_fract_y
_atom_site_fract_z
_atom_type_partial_charge
Co0 Co 0.11136 0.03941 0.00654 0.0
C1 C 0.06539 0.07668 0.9276 0.0
Co2 Co 0.02845 0.09637 0.00534 0.0
C3 C 0.18343 0.94578 0.98482 0.0
C4 C 0.23829 0.99488 0.02984 0.0
N5 N 0.17955 0.99095 0.00673 0.0
N6 N 0.24226 0.92148 -0.00663 0.0
C7 C 0.2769 0.95232 0.02177 0.0
H8 H 0.14409 0.93119 0.9628 0.0
H9 H 0.25239 0.02699 0.0511 0.0
C10 C 0.07689 0.05842 0.08421 0.0
N11 N 0.96298 0.14757 0.00695 0.0
C12 C 0.90558 0.1561 0.98396 0.0
C13 C 0.96866 0.18928 0.03269 0.0
N14 N 0.87614 0.20188 -0.00573 0.0
C15 C 0.9155 0.2223 0.02521 0.0
C16 C 0.97204 0.97577 0.01367 0.0
O17 O 0.11575 0.03213 0.06449 0.0
O18 O 0.03445 0.08872 0.06453 0.0
O19 O 0.95537 0.02784 0.01102 0.0
O20 O 0.03714 0.97062 0.01176 0.0
O21 O 1.02393 0.10291 0.94608 0.0
H22 H 1.00994 0.19619 0.0551 0.0
H23 H 0.88694 0.13046 0.95945 0.0
O24 O 0.10707 0.04687 0.94847 0.0
O25 O 0.18436 0.10874 0.00172 0.0
O26 O 0.10168 0.16437 -4e-05 0.0
C27 C 0.16687 0.16026 -0.00055 0.0
H28 H 0.32678 0.9454 0.03563 0.0
H29 H 0.90687 0.25858 0.04144 0.0
Co30 Co 0.58306 0.47147 0.50609 0.0
C31 C 0.56333 0.51089 0.42422 0.0
Co32 Co 0.48831 0.5157 0.49604 0.0
C33 C 0.68353 0.39061 0.49986 0.0
C34 C 0.71649 0.45426 0.54131 0.0
N35 N 0.66358 0.4367 0.51592 0.0
N36 N 0.74693 0.37921 0.5142 0.0
C37 C 0.76796 0.41938 0.53997 0.0
H38 H 0.65285 0.36683 0.47756 0.0
H39 H 0.71775 0.49035 0.55956 0.0
C40 C 0.51013 0.47568 0.57796 0.0
N41 N 0.40723 0.55101 0.48717 0.0
C42 C 0.40091 0.6069 0.46861 0.0
C43 C 0.34093 0.52546 0.50074 0.0
N44 N 0.33344 0.61696 0.46999 0.0
C45 C 0.2956 0.56564 0.49025 0.0
C46 C 0.46036 0.39091 0.49748 0.0
O47 O 0.56335 0.45917 0.56304 0.0
O48 O 0.46942 0.5026 0.55404 0.0
O49 O 0.43343 0.43859 0.49231 0.0
O50 O 0.52679 0.39475 0.5026 0.0
O51 O 0.50922 0.52834 0.43784 0.0
H52 H 0.32664 0.48094 0.51828 0.0
H53 H 0.44521 0.64013 0.45505 0.0
O54 O 0.60244 0.48397 0.44913 0.0
O55 O 0.63806 0.54891 0.50997 0.0
O56 O 0.54395 0.59185 0.50094 0.0
C57 C 0.60999 0.59588 0.50726 0.0
H58 H 0.81701 0.42294 0.55682 0.0
H59 H 0.23974 0.55808 0.49845 0.0
C60 C 0.99818 0.98677 0.43812 0.0
N61 N 0.05425 0.97351 0.41855 0.0
N62 N 0.99797 0.04667 0.43141 0.0
C63 C 0.94076 0.9412 0.46153 0.0
C64 C 0.05466 0.06901 0.40554 0.0
N65 N 0.08843 0.02433 0.39714 0.0
C66 C 0.07236 0.13337 0.3847 0.0
H67 H 0.91975 0.9605 0.48714 0.0
H68 H 0.96006 0.89924 0.4742 0.0
H69 H 0.8969 0.92988 0.44017 0.0
H70 H 0.09386 0.16251 0.40777 0.0
H71 H 1.02396 0.14877 0.37165 0.0
H72 H 0.11319 0.13955 0.35993 0.0
C73 C 0.03255 0.99214 0.57349 0.0
N74 N 0.0489 0.03735 0.59669 0.0
N75 N 0.97269 0.95386 0.58831 0.0
C76 C 0.07067 0.98832 0.53419 0.0
C77 C 0.95366 0.97685 0.62172 0.0
N78 N 0.99936 0.02754 0.62646 0.0
C79 C 0.89413 0.94725 0.65185 0.0
H80 H 0.12524 0.98027 0.54092 0.0
H81 H 0.07304 0.03112 0.51283 0.0
H82 H 0.04415 0.95091 0.5188 0.0
H83 H 0.90417 0.95974 0.68314 0.0
H84 H 0.88652 0.89756 0.65425 0.0
H85 H 0.84435 0.96241 0.64089 0.0
C86 C 0.5624 0.57179 0.93408 0.0
N87 N 0.57844 0.52972 0.91228 0.0
N88 N 0.52532 0.60936 0.91066 0.0
C89 C 0.58217 0.57507 0.9784 0.0
C90 C 0.52211 0.59025 0.87328 0.0
N91 N 0.55366 0.54121 0.87444 0.0
C92 C 0.49781 0.62501 0.83449 0.0
H93 H 0.6393 0.57291 0.9823 0.0
H94 H 0.5517 0.53563 -0.00149 0.0
H95 H 0.57175 0.61684 0.98867 0.0
H96 H 0.50146 0.67326 0.83731 0.0
H97 H 0.44174 0.60611 0.82896 0.0
H98 H 0.53022 0.62214 0.80713 0.0
C99 C 0.48108 0.61404 0.05873 0.0
N100 N 0.53118 0.63831 0.08352 0.0
N101 N 0.4598 0.55484 0.07229 0.0
C102 C 0.4483 0.6487 0.02361 0.0
C103 C 0.49651 0.54467 0.10741 0.0
N104 N 0.54003 0.59567 0.11437 0.0
C105 C 0.47972 0.48862 0.13882 0.0
H106 H 0.39985 0.66184 0.03536 0.0
H107 H 0.43225 0.61967 -0.00037 0.0
H108 H 0.48476 0.69023 0.01028 0.0
H109 H 0.47334 0.44761 0.12382 0.0
H110 H 0.42929 0.48902 0.15528 0.0
H111 H 0.5219 0.48609 0.16184 0.0
H112 H 0.27677 0.20885 0.00267 0.0
C113 C 0.22152 0.21424 5e-05 0.0
H114 H 0.14829 0.27361 0.00094 0.0
H115 H 0.34202 0.42875 0.1168 0.0
H116 H 0.25538 0.36927 0.16671 0.0
H117 H 0.16733 0.28635 0.14683 0.0
H118 H 0.16614 0.26229 0.07699 0.0
C119 C 0.20364 0.26827 0.0018 0.0
C120 C 0.25624 0.31906 0.01282 0.0
C121 C 0.25549 0.33316 0.05362 0.0
C122 C 0.30615 0.38102 0.065 0.0
C123 C 0.30501 0.3931 0.10629 0.0
C124 C 0.25533 0.35926 0.13533 0.0
C125 C 0.20576 0.31262 0.12414 0.0
C126 C 0.20565 0.2994 0.08387 0.0
H127 H 0.35286 0.52775 0.0499 0.0
C128 C 0.40405 0.51421 0.05613 0.0
H129 H 0.46792 0.44905 0.05142 0.0
H130 H 0.26787 0.30637 0.93137 0.0
H131 H 0.35238 0.36773 0.8806 0.0
H132 H 0.43958 0.45145 0.89996 0.0
H133 H 0.44404 0.47373 0.9706 0.0
C134 C 0.41513 0.46041 0.04831 0.0
C135 C 0.35731 0.41482 0.03542 0.0
C136 C 0.35661 0.40174 -0.0057 0.0
C137 C 0.30592 0.35376 0.98297 0.0
C138 C 0.30563 0.34207 0.94161 0.0
C139 C 0.35377 0.37701 0.91217 0.0
C140 C 0.40307 0.42407 0.92314 0.0
C141 C 0.40503 0.43634 0.96373 0.0
H142 H 0.22986 0.85521 0.95078 0.0
C143 C 0.26308 0.87366 0.97455 0.0
H144 H 0.35791 0.87027 0.00779 0.0
H145 H 0.31968 0.60399 0.94736 0.0
H146 H 0.21691 0.57709 -0.00651 0.0
H147 H 0.17247 0.65401 0.02693 0.0
H148 H 0.23044 0.7584 0.01418 0.0
C149 C 0.32261 0.85178 0.98506 0.0
C150 C 0.34642 0.80553 0.96349 0.0
C151 C 0.31136 0.74479 0.97101 0.0
C152 C 0.33753 0.70036 0.95208 0.0
C153 C 0.30204 0.63981 0.96058 0.0
C154 C 0.24303 0.62362 0.98719 0.0
C155 C 0.21803 0.66692 0.00602 0.0
C156 C 0.25166 0.7268 -0.00175 0.0
H157 H 0.52759 0.68714 0.94268 0.0
C158 C 0.49709 0.65903 0.92254 0.0
H159 H 0.39933 0.63822 0.8935 0.0
H160 H 0.42411 0.91841 0.94146 0.0
H161 H 0.52525 0.94595 0.89383 0.0
H162 H 0.56776 0.86951 0.85894 0.0
H163 H 0.51029 0.76502 0.87211 0.0
C164 C 0.43192 0.66883 0.91127 0.0
C165 C 0.39974 0.71662 0.9266 0.0
C166 C 0.43246 0.7779 0.9174 0.0
C167 C 0.40656 0.8222 0.9365 0.0
C168 C 0.4414 0.88287 0.92767 0.0
C169 C 0.49933 0.89938 0.90025 0.0
C170 C 0.5233 0.85636 0.88064 0.0
C171 C 0.49022 0.79636 0.8888 0.0
H172 H 0.93448 0.87763 0.0248 0.0
C173 C 0.91726 0.92103 0.02165 0.0
H174 H 0.82967 0.96579 0.02433 0.0
H175 H 0.61899 0.72421 -0.00324 0.0
H176 H 0.62066 0.78064 0.928 0.0
H177 H 0.69932 0.87875 0.91016 0.0
H178 H 0.77975 0.91956 0.96075 0.0
C179 C 0.84835 0.92303 0.02789 0.0
C180 C 0.79573 0.86688 0.0401 0.0
C181 C 0.74625 0.84532 0.01103 0.0
C182 C 0.69822 0.7901 0.02196 0.0
C183 C 0.65371 0.76733 0.99106 0.0
C184 C 0.65446 0.79914 0.95125 0.0
C185 C 0.69921 0.85416 0.94113 0.0
C186 C 0.74498 0.87708 0.97048 0.0
H187 H 0.55307 0.73592 0.06406 0.0
C188 C 0.57627 0.69636 0.07486 0.0
H189 H 0.66939 0.65973 0.08458 0.0
H190 H 0.8799 0.89791 0.10437 0.0
H191 H 0.88208 0.83951 0.17246 0.0
H192 H 0.80161 0.7422 0.1907 0.0
H193 H 0.71854 0.7031 0.14102 0.0
C194 C 0.64722 0.70019 0.07493 0.0
C195 C 0.69779 0.75775 0.06262 0.0
C196 C 0.74835 0.7789 0.09141 0.0
C197 C 0.79629 0.83407 0.08046 0.0
C198 C 0.84373 0.85545 0.11058 0.0
C199 C 0.84529 0.82254 0.1499 0.0
C200 C 0.79992 0.76787 0.1602 0.0
C201 C 0.75206 0.74609 0.13143 0.0
H202 H 0.78003 0.19738 0.9574 0.0
C203 C 0.81639 0.22519 0.97532 0.0
H204 H 0.84262 0.3094 -0.00379 0.0
H205 H 0.63619 0.39786 0.84803 0.0
H206 H 0.71362 0.36666 0.8 0.0
H207 H 0.80714 0.3093 0.82549 0.0
H208 H 0.82304 0.28213 0.89896 0.0
C209 C 0.80613 0.28126 0.97869 0.0
C210 C 0.74371 0.30714 0.9621 0.0
C211 C 0.7358 0.3229 0.91885 0.0
C212 C 0.6835 0.3578 0.90409 0.0
C213 C 0.67612 0.3727 0.86086 0.0
C214 C 0.72004 0.35485 0.83295 0.0
C215 C 0.77254 0.32242 0.84732 0.0
C216 C 0.78083 0.30678 0.8897 0.0
H217 H 0.66049 0.49141 0.9482 0.0
C218 C 0.61723 0.48225 0.92709 0.0
H219 H 0.55496 0.41528 0.89747 0.0
H220 H 0.73801 0.27748 0.04647 0.0
H221 H 0.6579 0.3069 0.09402 0.0
H222 H 0.56802 0.36803 0.06806 0.0
H223 H 0.558 0.40028 -0.0056 0.0
C224 C 0.59923 0.42631 0.91745 0.0
C225 C 0.6418 0.37906 0.93252 0.0
C226 C 0.64566 0.35924 0.97548 0.0
C227 C 0.69689 0.32349 0.9903 0.0
C228 C 0.70043 0.30515 0.03351 0.0
C229 C 0.65452 0.32145 0.06112 0.0
C230 C 0.60396 0.3559 0.04652 0.0
C231 C 0.59915 0.37452 0.00422 0.0
H232 H 0.62346 0.68914 0.52036 0.0
C233 C 0.6521 0.65405 0.51424 0.0
H234 H 0.7521 0.62886 0.5089 0.0
H235 H 0.7987 0.92912 0.51258 0.0
H236 H 0.72908 0.93525 0.45056 0.0
H237 H 0.67901 0.84369 0.42118 0.0
H238 H 0.69659 0.74537 0.4545 0.0
C239 C 0.7235 0.66412 0.51468 0.0
C240 C 0.76464 0.72036 0.52734 0.0
C241 C 0.75719 0.77787 0.50621 0.0
C242 C 0.78957 0.83094 0.52182 0.0
C243 C 0.77719 0.88739 0.50155 0.0
C244 C 0.73722 0.89162 0.46585 0.0
C245 C 0.70887 0.84009 0.44939 0.0
C246 C 0.71872 0.78382 0.46912 0.0
H247 H 0.9732 0.87224 0.5605 0.0
C248 C 0.9397 0.8997 0.57281 0.0
H249 H 0.83475 0.9127 0.58104 0.0
H250 H 0.79373 0.61757 0.57413 0.0
H251 H 0.86803 0.61172 0.63409 0.0
H252 H 0.92588 0.70366 0.66038 0.0
H253 H 0.91005 0.80185 0.62673 0.0
C254 C 0.86874 0.88307 0.57218 0.0
C255 C 0.83413 0.8269 0.55661 0.0
C256 C 0.84375 0.76943 0.57691 0.0
C257 C 0.80929 0.71623 0.56213 0.0
C258 C 0.81894 0.65956 0.58352 0.0
C259 C 0.86134 0.65543 0.61821 0.0
C260 C 0.89394 0.70717 0.63298 0.0
C261 C 0.88496 0.76349 0.61297 0.0
H262 H 0.84379 0.34241 0.51059 0.0
C263 C 0.78731 0.33533 0.5043 0.0
H264 H 0.70114 0.27598 0.48418 0.0
H265 H 0.89896 0.15089 0.38167 0.0
H266 H 0.82653 0.19323 0.32829 0.0
H267 H 0.74158 0.2569 0.34441 0.0
H268 H 0.72881 0.27861 0.41413 0.0
C269 C 0.75746 0.28432 0.4904 0.0
C270 C 0.8015 0.23911 0.48208 0.0
C271 C 0.80711 0.22554 0.44136 0.0
C272 C 0.8559 0.18843 0.43214 0.0
C273 C 0.86223 0.17779 0.39078 0.0
C274 C 0.82104 0.20208 0.35968 0.0
C275 C 0.77325 0.23795 0.36874 0.0
C276 C 0.76638 0.24995 0.40897 0.0
H277 H 0.8873 0.05388 0.44236 0.0
C278 C 0.94203 0.07678 0.44261 0.0
H279 H 1.01032 0.15244 0.45835 0.0
H280 H 0.79179 0.24412 0.56515 0.0
H281 H 0.86489 0.20251 0.61875 0.0
H282 H 0.95477 0.14414 0.60199 0.0
H283 H 0.97032 0.12422 0.53198 0.0
C284 C 0.95594 0.13188 0.45381 0.0
C285 C 0.8988 0.1647 0.46381 0.0
C286 C 0.89078 0.17606 0.50488 0.0
C287 C 0.84092 0.21203 0.51421 0.0
C288 C 0.83135 0.21978 0.55593 0.0
C289 C 0.87235 0.19553 0.58711 0.0
C290 C 0.92275 0.16227 0.57772 0.0
C291 C 0.93154 0.15178 0.53729 0.0
H292 H 0.43894 0.29143 0.50485 0.0
C293 C 0.41416 0.33113 0.50303 0.0
H294 H 0.32001 0.36412 0.51274 0.0
H295 H 0.18729 0.07933 0.4984 0.0
H296 H 0.22118 0.10462 0.42586 0.0
H297 H 0.29102 0.20397 0.39871 0.0
H298 H 0.32807 0.27815 0.44426 0.0
C299 C 0.3443 0.32468 0.51171 0.0
C300 C 0.30097 0.26485 0.52751 0.0
C301 C 0.2791 0.22223 0.50048 0.0
C302 C 0.23696 0.16556 0.51599 0.0
C303 C 0.21732 0.12354 0.48828 0.0
C304 C 0.23691 0.13739 0.44652 0.0
C305 C 0.2764 0.19325 0.43126 0.0
C306 C 0.29751 0.23532 0.45778 0.0
H307 H 0.08198 0.1349 0.58992 0.0
C308 C 0.09921 0.09286 0.58661 0.0
H309 H 0.18552 0.05289 0.57186 0.0
H310 H 0.33595 0.33561 0.58797 0.0
H311 H 0.30378 0.30962 0.66086 0.0
H312 H 0.23264 0.21082 0.68795 0.0
H313 H 0.19209 0.13788 0.64215 0.0
C314 C 0.16621 0.09438 0.5735 0.0
C315 C 0.21457 0.15233 0.55828 0.0
C316 C 0.23823 0.19444 0.58553 0.0
C317 C 0.2808 0.25091 0.57005 0.0
C318 C 0.30353 0.29209 0.59798 0.0
C319 C 0.28565 0.2777 0.63997 0.0
C320 C 0.24541 0.22214 0.65519 0.0
C321 C 0.22196 0.18083 0.62848 0.0
H322 H 0.34914 0.71372 0.44815 0.0
C323 C 0.30962 0.67327 0.45626 0.0
H324 H 0.20004 0.6377 0.46241 0.0
H325 H 0.09882 0.87258 0.49888 0.0
H326 H 0.07937 0.8097 0.56561 0.0
H327 H 0.12198 0.71275 0.57853 0.0
H328 H 0.18449 0.67841 0.52483 0.0
C329 C 0.2402 0.6775 0.45428 0.0
C330 C 0.21502 0.73651 0.44576 0.0
C331 C 0.1778 0.75578 0.4774 0.0
C332 C 0.15265 0.81152 0.46987 0.0
C333 C 0.11773 0.83027 0.50253 0.0
C334 C 0.10652 0.79468 0.54113 0.0
C335 C 0.13052 0.74013 0.5484 0.0
C336 C 0.16611 0.72085 0.51716 0.0
H337 H 0.0326 0.87511 0.42323 0.0
C338 C 0.07382 0.91485 0.42017 0.0
H339 H 0.18368 0.94733 0.42184 0.0
H340 H 0.27696 0.71038 0.37675 0.0
H341 H 0.29338 0.77248 0.30944 0.0
H342 H 0.25101 0.86961 0.29679 0.0
H343 H 0.19194 0.9052 0.35142 0.0
C344 C 0.14214 0.90806 0.42326 0.0
C345 C 0.16385 0.84772 0.43048 0.0
C346 C 0.19979 0.82802 0.39863 0.0
C347 C 0.22497 0.77222 0.40612 0.0
C348 C 0.25834 0.75292 0.37316 0.0
C349 C 0.26772 0.78799 0.33426 0.0
C350 C 0.24386 0.84267 0.32712 0.0
C351 C 0.2102 0.86265 0.35878 0.0
H352 H 0.04938 0.07982 0.14515 0.0
C353 C 0.08213 0.05522 0.1294 0.0
H354 H 0.15858 0.99765 0.13629 0.0
H355 H 0.18435 0.12992 0.30571 0.0
H356 H 0.24605 0.2173 0.26022 0.0
H357 H 0.25755 0.21536 0.18523 0.0
H358 H 0.20654 0.12645 0.15528 0.0
C359 C 0.12671 0.0238 0.15126 0.0
C360 C 0.13106 0.02187 0.19676 0.0
C361 C 0.16224 0.07381 0.21367 0.0
C362 C 0.15589 0.07488 0.25684 0.0
C363 C 0.18649 0.12742 0.27302 0.0
C364 C 0.22255 0.17756 0.24727 0.0
C365 C 0.229 0.17649 0.20504 0.0
C366 C 0.1993 0.12531 0.18824 0.0
H367 H 0.17944 0.01646 0.35877 0.0
C368 C 0.12557 0.02542 0.35873 0.0
H369 H 0.03442 0.03637 0.32472 0.0
H370 H 0.0775 0.91166 0.175 0.0
H371 H 1.02335 0.82235 0.2215 0.0
H372 H 1.0132 0.82434 0.29658 0.0
H373 H 0.05669 0.91589 0.32556 0.0
C374 C 0.08971 0.03116 0.32343 0.0
C375 C 0.11809 0.02421 0.28267 0.0
C376 C 0.09416 0.97019 0.26645 0.0
C377 C 0.10072 0.96891 0.22332 0.0
C378 C 0.07422 0.9149 0.20763 0.0
C379 C 0.04308 0.86337 0.23397 0.0
C380 C 0.03724 0.86452 0.27624 0.0
C381 C 0.06209 0.91728 0.29245 0.0
H382 H 0.10297 0.05371 0.86987 0.0
C383 C 0.06566 0.07776 0.88244 0.0
H384 H 0.98388 0.12857 0.86782 0.0
H385 H 0.08243 0.18318 0.67682 0.0
H386 H 0.10416 0.28377 0.69593 0.0
H387 H 0.08865 0.299 0.76839 0.0
H388 H 0.05066 0.21386 0.82216 0.0
C389 C 1.02078 0.10299 0.85665 0.0
C390 C 1.02146 0.09525 0.81206 0.0
C391 C 0.04338 0.14551 0.7811 0.0
C392 C 0.05325 0.13675 0.73936 0.0
C393 C 0.07478 0.18754 0.70897 0.0
C394 C 0.08734 0.24539 0.71954 0.0
C395 C 0.07863 0.25395 0.76035 0.0
C396 C 0.05692 0.20475 0.79092 0.0
H397 H 0.94714 0.06854 0.6711 0.0
C398 C 0.99809 0.06055 0.66068 0.0
H399 H 0.10281 0.05412 0.67774 0.0
H400 H 0.96299 0.99058 0.86145 0.0
H401 H 0.94367 0.89017 0.84255 0.0
H402 H 0.97262 0.87413 0.77195 0.0
H403 H 1.01941 0.95847 0.71971 0.0
C404 C 0.05356 0.06767 0.6857 0.0
C405 C 0.04257 0.07781 0.72895 0.0
C406 C 1.01912 0.02766 0.75971 0.0
C407 C 1.006 0.03658 0.8009 0.0
C408 C 0.97732 0.98607 0.83022 0.0
C409 C 0.96533 0.92823 0.81968 0.0
C410 C 0.98138 0.91922 0.77992 0.0
C411 C 1.00796 0.96813 0.75017 0.0
H412 H 0.46123 0.49153 0.63526 0.0
C413 C 0.49935 0.46807 0.62292 0.0
H414 H 0.58045 0.41611 0.63688 0.0
H415 H 0.62651 0.58701 0.77961 0.0
H416 H 0.71071 0.64487 0.72843 0.0
H417 H 0.72246 0.61284 0.66033 0.0
H418 H 0.64891 0.52243 0.64322 0.0
C419 C 0.54097 0.43876 0.64862 0.0
C420 C 0.54464 0.44819 0.69232 0.0
C421 C 0.59142 0.49862 0.70291 0.0
C422 C 0.58608 0.51569 0.74268 0.0
C423 C 0.62929 0.56972 0.75085 0.0
C424 C 0.67802 0.60399 0.72143 0.0
C425 C 0.68463 0.58604 0.68309 0.0
C426 C 0.64188 0.53413 0.67369 0.0
H427 H 0.62145 0.50194 0.83652 0.0
C428 C 0.56893 0.51283 0.83984 0.0
H429 H 0.4662 0.50806 0.8165 0.0
H430 H 0.45401 0.34513 0.68222 0.0
H431 H 0.37322 0.282 0.73459 0.0
H432 H 0.36821 0.30773 0.80525 0.0
H433 H 0.44319 0.39698 0.82377 0.0
C434 C 0.52021 0.50179 0.8112 0.0
C435 C 0.53593 0.47996 0.77229 0.0
C436 C 0.49373 0.42646 0.76256 0.0
C437 C 0.49748 0.41095 0.72224 0.0
C438 C 0.45306 0.35861 0.71262 0.0
C439 C 0.40673 0.32201 0.74237 0.0
C440 C 0.40385 0.33653 0.78213 0.0
C441 C 0.44678 0.38805 0.7923 0.0
H442 H 0.63323 0.51048 0.37133 0.0
C443 C 0.58337 0.52245 0.38011 0.0
H444 H 0.49416 0.56003 0.35892 0.0
H445 H 0.6332 0.70064 0.19113 0.0
H446 H 0.61972 0.78272 0.22829 0.0
H447 H 0.5825 0.76276 0.30197 0.0
H448 H 0.55869 0.66078 0.33871 0.0
C449 C 0.54307 0.54604 0.3507 0.0
C450 C 0.56721 0.5577 0.30658 0.0
C451 C 0.58113 0.61762 0.2857 0.0
C452 C 0.60249 0.62916 0.24327 0.0
C453 C 0.61616 0.68942 0.22317 0.0
C454 C 0.60885 0.73693 0.24422 0.0
C455 C 0.58793 0.72569 0.28568 0.0
C456 C 0.57424 0.66686 0.30636 0.0
H457 H 0.51819 0.62624 0.17169 0.0
C458 C 0.5574 0.60881 0.15518 0.0
H459 H 0.64885 0.57003 0.15893 0.0
H460 H 0.53986 0.43647 0.33609 0.0
H461 H 0.56525 0.35618 0.30087 0.0
H462 H 0.61573 0.3778 0.22985 0.0
H463 H 0.63912 0.47952 0.19343 0.0
C464 C 0.61175 0.58929 0.17562 0.0
C465 C 0.61015 0.58077 0.22181 0.0
C466 C 0.60323 0.52158 0.24387 0.0
C467 C 0.57838 0.50956 0.28571 0.0
C468 C 0.56311 0.44892 0.3053 0.0
C469 C 0.57662 0.40212 0.28524 0.0
C470 C 0.60473 0.41426 0.24522 0.0
C471 C 0.61762 0.47307 0.22458 0.0
loop_
_geom_bond_atom_site_label_1
_geom_bond_atom_site_label_2
_geom_bond_distance
_geom_bond_site_symmetry_2
_ccdc_geom_bond_type
Co0 N5 2.057 . S
Co0 O17 2.021 . S
Co0 O20 2.062 1_455 S
Co0 O24 2.117 1_564 S
Co0 O25 2.020 1_565 S
C1 O21 1.259 1_455 S
C1 O24 1.258 . S
Co2 N11 2.057 . S
Co2 O18 2.120 . S
Co2 O19 2.020 1_545 S
Co2 O21 2.021 1_554 S
Co2 O26 2.062 1_654 S
C3 N5 1.316 . S
C3 N6 1.347 . S
C3 H8 0.931 . S
C4 N5 1.375 1_556 S
C4 C7 1.350 . S
C4 H9 0.930 . S
N5 Co0 2.057 . S
N5 C3 1.316 . S
N5 C4 1.375 1_554 S
N6 C3 1.347 . S
N6 C7 1.373 1_554 S
C7 C4 1.350 . S
C7 N6 1.373 1_556 S
C7 H28 0.931 . S
H8 C3 0.931 . S
H9 C4 0.930 . S
C10 O17 1.259 1_545 S
C10 O18 1.250 1_455 S
N11 Co2 2.057 . S
N11 C12 1.316 1_554 S
N11 C13 1.375 . S
C12 N11 1.316 1_556 S
C12 N14 1.347 1_556 S
C12 H23 0.931 . S
C13 N11 1.375 . S
C13 C15 1.350 . S
C13 H22 0.930 . S
N14 C12 1.347 1_554 S
N14 C15 1.373 . S
C15 C13 1.350 . S
C15 N14 1.373 . S
C15 H29 0.931 . S
C16 O19 1.256 . S
C16 O20 1.255 . S
O17 Co0 2.021 . S
O17 C10 1.259 1_565 S
O18 Co2 2.120 . S
O18 C10 1.250 1_655 S
O19 Co2 2.020 1_565 S
O19 C16 1.256 . S
O20 Co0 2.062 1_655 S
O20 C16 1.255 . S
O21 C1 1.259 1_655 S
O21 Co2 2.021 1_556 S
H22 C13 0.930 . S
H23 C12 0.931 . S
O24 Co0 2.117 1_546 S
O24 C1 1.258 . S
O25 Co0 2.020 1_545 S
O25 C27 1.256 . S
O26 Co2 2.062 1_456 S
O26 C27 1.254 1_556 S
C27 O25 1.256 . S
C27 O26 1.254 1_554 S
H28 C7 0.931 . S
H29 C15 0.931 . S
Co30 N35 2.057 . S
Co30 O47 2.021 . S
Co30 O50 2.062 . S
Co30 O54 2.117 . S
Co30 O55 2.020 . S
C31 O51 1.259 . S
C31 O54 1.258 . S
Co32 N41 2.057 . S
Co32 O48 2.117 . S
Co32 O49 2.020 . S
Co32 O51 2.021 . S
Co32 O56 2.062 . S
C33 N35 1.316 . S
C33 N36 1.347 . S
C33 H38 0.931 . S
C34 N35 1.375 . S
C34 C37 1.350 . S
C34 H39 0.930 . S
N35 Co30 2.057 . S
N35 C33 1.316 . S
N35 C34 1.375 . S
N36 C33 1.347 . S
N36 C37 1.373 . S
C37 C34 1.350 . S
C37 N36 1.373 . S
C37 H58 0.931 . S
H38 C33 0.931 . S
H39 C34 0.930 . S
C40 O47 1.259 . S
C40 O48 1.258 . S
N41 Co32 2.057 . S
N41 C42 1.316 . S
N41 C43 1.375 . S
C42 N41 1.316 . S
C42 N44 1.347 . S
C42 H53 0.931 . S
C43 N41 1.375 . S
C43 C45 1.350 . S
C43 H52 0.930 . S
N44 C42 1.347 . S
N44 C45 1.373 . S
C45 C43 1.350 . S
C45 N44 1.373 . S
C45 H59 0.931 . S
C46 O49 1.256 . S
C46 O50 1.255 . S
O47 Co30 2.021 . S
O47 C40 1.259 . S
O48 Co32 2.117 . S
O48 C40 1.258 . S
O49 Co32 2.020 . S
O49 C46 1.256 . S
O50 Co30 2.062 . S
O50 C46 1.255 . S
O51 C31 1.259 . S
O51 Co32 2.021 . S
H52 C43 0.930 . S
H53 C42 0.931 . S
O54 Co30 2.117 . S
O54 C31 1.258 . S
O55 Co30 2.020 . S
O55 C57 1.256 . S
O56 Co32 2.062 . S
O56 C57 1.255 . S
C57 O55 1.256 . S
C57 O56 1.255 . S
H58 C37 0.931 . S
H59 C45 0.931 . S
C60 N61 1.317 1_545 S
C60 N62 1.348 1_455 S
C60 C63 1.485 1_545 S
N61 C60 1.317 1_565 S
N61 N65 1.369 1_565 S
N62 C60 1.348 1_655 S
N62 C64 1.346 . S
C63 C60 1.485 1_565 S
C63 H67 0.960 1_455 S
C63 H68 0.961 1_565 S
C63 H69 0.960 . S
C64 N62 1.346 . S
C64 N65 1.311 1_655 S
C64 C66 1.486 . S
N65 N61 1.369 1_545 S
N65 C64 1.311 1_455 S
C66 C64 1.486 . S
C66 H70 0.960 . S
C66 H71 0.960 . S
C66 H72 0.959 . S
H67 C63 0.960 1_655 S
H68 C63 0.961 1_545 S
H69 C63 0.960 . S
H70 C66 0.960 . S
H71 C66 0.960 . S
H72 C66 0.959 . S
C73 N74 1.317 . S
C73 N75 1.348 1_445 S
C73 C76 1.485 . S
N74 C73 1.317 . S
N74 N78 1.370 . S
N75 C73 1.348 1_665 S
N75 C77 1.346 . S
C76 C73 1.485 . S
C76 H80 0.960 1_455 S
C76 H81 0.961 . S
C76 H82 0.960 . S
C77 N75 1.346 . S
C77 N78 1.307 1_665 S
C77 C79 1.486 . S
N78 N74 1.370 . S
N78 C77 1.307 1_445 S
C79 C77 1.486 . S
C79 H83 0.960 . S
C79 H84 0.960 . S
C79 H85 0.959 . S
H80 C76 0.960 1_655 S
H81 C76 0.961 . S
H82 C76 0.960 . S
H83 C79 0.960 . S
H84 C79 0.960 . S
H85 C79 0.959 . S
C86 N87 1.317 . S
C86 N88 1.348 . S
C86 C89 1.485 1_556 S
N87 C86 1.317 . S
N87 N91 1.370 . S
N88 C86 1.348 . S
N88 C90 1.346 . S
C89 C86 1.485 1_554 S
C89 H93 0.960 . S
C89 H94 0.961 . S
C89 H95 0.960 . S
C90 N88 1.346 . S
C90 N91 1.307 . S
C90 C92 1.486 . S
N91 N87 1.370 . S
N91 C90 1.307 . S
C92 C90 1.486 . S
C92 H96 0.960 . S
C92 H97 0.960 . S
C92 H98 0.959 . S
H93 C89 0.960 . S
H94 C89 0.961 . S
H95 C89 0.960 . S
H96 C92 0.960 . S
H97 C92 0.960 . S
H98 C92 0.959 . S
C99 N100 1.317 . S
C99 N101 1.348 . S
C99 C102 1.485 1_554 S
N100 C99 1.317 . S
N100 N104 1.370 . S
N101 C99 1.348 . S
N101 C103 1.346 . S
C102 C99 1.485 1_556 S
C102 H106 0.960 . S
C102 H107 0.961 . S
C102 H108 0.960 . S
C103 N101 1.346 . S
C103 N104 1.307 . S
C103 C105 1.486 . S
N104 N100 1.370 . S
N104 C103 1.307 . S
C105 C103 1.486 . S
C105 H109 0.960 . S
C105 H110 0.960 . S
C105 H111 0.959 . S
H106 C102 0.960 . S
H107 C102 0.961 . S
H108 C102 0.960 . S
H109 C105 0.960 . S
H110 C105 0.960 . S
H111 C105 0.959 . S
H112 C113 0.951 . S
C113 H112 0.951 . S
C113 C119 1.266 . S
H114 C119 0.941 1_556 S
H115 C123 0.949 . S
H116 C124 0.950 . S
H117 C125 0.951 . S
H118 C126 0.951 . S
C119 C113 1.266 . S
C119 H114 0.941 1_554 S
C119 C120 1.486 . S
C120 C119 1.486 . S
C120 C121 1.397 . S
C120 C137 1.394 1_554 S
C121 C120 1.397 . S
C121 C122 1.438 . S
C121 C126 1.429 . S
C122 C121 1.438 . S
C122 C123 1.428 . S
C122 C135 1.394 . S
C123 H115 0.949 . S
C123 C122 1.428 . S
C123 C124 1.345 . S
C124 H116 0.950 . S
C124 C123 1.345 . S
C124 C125 1.424 . S
C125 H117 0.951 . S
C125 C124 1.424 . S
C125 C126 1.347 . S
C126 H118 0.951 . S
C126 C121 1.429 . S
C126 C125 1.347 . S
H127 C128 0.951 . S
C128 H127 0.951 . S
C128 C134 1.265 . S
H129 C134 0.950 . S
H130 C138 0.949 . S
H131 C139 0.950 . S
H132 C140 0.951 . S
H133 C141 0.951 . S
C134 C128 1.265 . S
C134 H129 0.950 . S
C134 C135 1.478 . S
C135 C122 1.394 . S
C135 C134 1.478 . S
C135 C136 1.396 . S
C136 C135 1.396 . S
C136 C137 1.438 1_554 S
C136 C141 1.430 1_554 S
C137 C120 1.394 1_556 S
C137 C136 1.438 1_556 S
C137 C138 1.428 . S
C138 H130 0.949 . S
C138 C137 1.428 . S
C138 C139 1.345 . S
C139 H131 0.950 . S
C139 C138 1.345 . S
C139 C140 1.424 . S
C140 H132 0.951 . S
C140 C139 1.424 . S
C140 C141 1.347 . S
C141 H133 0.951 . S
C141 C136 1.430 1_556 S
C141 C140 1.347 . S
H142 C143 0.951 . S
C143 H142 0.951 . S
C143 C149 1.265 . S
H144 C149 0.950 . S
H145 C153 0.949 . S
H146 C154 0.950 . S
H147 C155 0.951 . S
H148 C156 0.951 . S
C149 C143 1.265 . S
C149 H144 0.950 . S
C149 C150 1.478 . S
C150 C149 1.478 . S
C150 C151 1.397 . S
C150 C167 1.394 1_554 S
C151 C150 1.397 . S
C151 C152 1.438 . S
C151 C156 1.429 . S
C152 C151 1.438 . S
C152 C153 1.428 . S
C152 C165 1.394 1_554 S
C153 H145 0.949 . S
C153 C152 1.428 . S
C153 C154 1.345 . S
C154 H146 0.950 . S
C154 C153 1.345 . S
C154 C155 1.424 . S
C155 H147 0.951 . S
C155 C154 1.424 . S
C155 C156 1.347 . S
C156 H148 0.951 . S
C156 C151 1.429 . S
C156 C155 1.347 . S
H157 C158 0.951 . S
C158 H157 0.951 . S
C158 C164 1.265 . S
H159 C164 0.950 . S
H160 C168 0.949 . S
H161 C169 0.950 . S
H162 C170 0.951 . S
H163 C171 0.951 . S
C164 C158 1.265 . S
C164 H159 0.950 . S
C164 C165 1.478 . S
C165 C152 1.394 1_556 S
C165 C164 1.478 . S
C165 C166 1.397 . S
C166 C165 1.397 . S
C166 C167 1.438 . S
C166 C171 1.429 . S
C167 C150 1.394 1_556 S
C167 C166 1.438 . S
C167 C168 1.428 . S
C168 H160 0.949 . S
C168 C167 1.428 . S
C168 C169 1.345 . S
C169 H161 0.950 . S
C169 C168 1.345 . S
C169 C170 1.424 . S
C170 H162 0.951 . S
C170 C169 1.424 . S
C170 C171 1.347 . S
C171 H163 0.951 . S
C171 C166 1.429 . S
C171 C170 1.347 . S
H172 C173 0.951 . S
C173 H172 0.951 . S
C173 C179 1.265 . S
H174 C179 0.950 . S
H175 C183 0.949 . S
H176 C184 0.950 . S
H177 C185 0.951 . S
H178 C186 0.951 . S
C179 C173 1.265 . S
C179 H174 0.950 . S
C179 C180 1.478 . S
C180 C179 1.478 . S
C180 C181 1.397 1_554 S
C180 C197 1.394 . S
C181 C180 1.397 1_556 S
C181 C182 1.438 1_556 S
C181 C186 1.429 . S
C182 C181 1.438 1_554 S
C182 C183 1.428 1_554 S
C182 C195 1.394 . S
C183 H175 0.949 . S
C183 C182 1.428 1_556 S
C183 C184 1.345 . S
C184 H176 0.950 . S
C184 C183 1.345 . S
C184 C185 1.424 . S
C185 H177 0.951 . S
C185 C184 1.424 . S
C185 C186 1.347 . S
C186 H178 0.951 . S
C186 C181 1.429 . S
C186 C185 1.347 . S
H187 C188 0.951 . S
C188 H187 0.951 . S
C188 C194 1.265 . S
H189 C194 0.950 . S
H190 C198 0.949 . S
H191 C199 0.950 . S
H192 C200 0.951 . S
H193 C201 0.951 . S
C194 C188 1.265 . S
C194 H189 0.950 . S
C194 C195 1.478 . S
C195 C182 1.394 . S
C195 C194 1.478 . S
C195 C196 1.397 . S
C196 C195 1.397 . S
C196 C197 1.438 . S
C196 C201 1.429 . S
C197 C180 1.394 . S
C197 C196 1.438 . S
C197 C198 1.428 . S
C198 H190 0.949 . S
C198 C197 1.428 . S
C198 C199 1.345 . S
C199 H191 0.950 . S
C199 C198 1.345 . S
C199 C200 1.424 . S
C200 H192 0.951 . S
C200 C199 1.424 . S
C200 C201 1.347 . S
C201 H193 0.951 . S
C201 C196 1.429 . S
C201 C200 1.347 . S
H202 C203 0.951 1_554 S
C203 H202 0.951 1_556 S
C203 C209 1.265 . S
H204 C209 0.950 . S
H205 C213 0.949 . S
H206 C214 0.950 . S
H207 C215 0.951 . S
H208 C216 0.951 . S
C209 C203 1.265 . S
C209 H204 0.950 . S
C209 C210 1.478 . S
C210 C209 1.478 . S
C210 C211 1.397 . S
C210 C227 1.394 1_556 S
C211 C210 1.397 . S
C211 C212 1.438 . S
C211 C216 1.429 . S
C212 C211 1.438 . S
C212 C213 1.428 . S
C212 C225 1.394 . S
C213 H205 0.949 . S
C213 C212 1.428 . S
C213 C214 1.345 . S
C214 H206 0.950 . S
C214 C213 1.345 . S
C214 C215 1.424 . S
C215 H207 0.951 . S
C215 C214 1.424 . S
C215 C216 1.347 . S
C216 H208 0.951 . S
C216 C211 1.429 . S
C216 C215 1.347 . S
H217 C218 0.951 . S
C218 H217 0.951 . S
C218 C224 1.265 . S
H219 C224 0.950 . S
H220 C228 0.949 . S
H221 C229 0.950 . S
H222 C230 0.951 . S
H223 C231 0.951 . S
C224 C218 1.265 . S
C224 H219 0.950 . S
C224 C225 1.478 . S
C225 C212 1.394 . S
C225 C224 1.478 . S
C225 C226 1.397 1_556 S
C226 C225 1.397 1_554 S
C226 C227 1.438 . S
C226 C231 1.429 . S
C227 C210 1.394 1_554 S
C227 C226 1.438 . S
C227 C228 1.428 . S
C228 H220 0.949 . S
C228 C227 1.428 . S
C228 C229 1.345 . S
C229 H221 0.950 . S
C229 C228 1.345 . S
C229 C230 1.424 . S
C230 H222 0.951 . S
C230 C229 1.424 . S
C230 C231 1.347 . S
C231 H223 0.951 . S
C231 C226 1.429 . S
C231 C230 1.347 . S
H232 C233 0.951 . S
C233 H232 0.951 . S
C233 C239 1.265 . S
H234 C239 0.950 . S
H235 C243 0.949 . S
H236 C244 0.950 . S
H237 C245 0.951 . S
H238 C246 0.951 . S
C239 C233 1.265 . S
C239 H234 0.950 . S
C239 C240 1.478 . S
C240 C239 1.478 . S
C240 C241 1.397 . S
C240 C257 1.394 . S
C241 C240 1.397 . S
C241 C242 1.438 . S
C241 C246 1.429 . S
C242 C241 1.438 . S
C242 C243 1.428 . S
C242 C255 1.394 . S
C243 H235 0.949 . S
C243 C242 1.428 . S
C243 C244 1.345 . S
C244 H236 0.950 . S
C244 C243 1.345 . S
C244 C245 1.424 . S
C245 H237 0.951 . S
C245 C244 1.424 . S
C245 C246 1.347 . S
C246 H238 0.951 . S
C246 C241 1.429 . S
C246 C245 1.347 . S
H247 C248 0.951 . S
C248 H247 0.951 . S
C248 C254 1.265 . S
H249 C254 0.950 . S
H250 C258 0.949 . S
H251 C259 0.950 . S
H252 C260 0.951 . S
H253 C261 0.951 . S
C254 C248 1.265 . S
C254 H249 0.950 . S
C254 C255 1.478 . S
C255 C242 1.394 . S
C255 C254 1.478 . S
C255 C256 1.397 . S
C256 C255 1.397 . S
C256 C257 1.438 . S
C256 C261 1.429 . S
C257 C240 1.394 . S
C257 C256 1.438 . S
C257 C258 1.428 . S
C258 H250 0.949 . S
C258 C257 1.428 . S
C258 C259 1.345 . S
C259 H251 0.950 . S
C259 C258 1.345 . S
C259 C260 1.424 . S
C260 H252 0.951 . S
C260 C259 1.424 . S
C260 C261 1.347 . S
C261 H253 0.951 . S
C261 C256 1.429 . S
C261 C260 1.347 . S
H262 C263 0.951 . S
C263 H262 0.951 . S
C263 C269 1.265 . S
H264 C269 0.950 . S
H265 C273 0.949 . S
H266 C274 0.950 . S
H267 C275 0.951 . S
H268 C276 0.951 . S
C269 C263 1.265 . S
C269 H264 0.950 . S
C269 C270 1.478 . S
C270 C269 1.478 . S
C270 C271 1.397 . S
C270 C287 1.394 . S
C271 C270 1.397 . S
C271 C272 1.438 . S
C271 C276 1.429 . S
C272 C271 1.438 . S
C272 C273 1.428 . S
C272 C285 1.394 . S
C273 H265 0.949 . S
C273 C272 1.428 . S
C273 C274 1.345 . S
C274 H266 0.950 . S
C274 C273 1.345 . S
C274 C275 1.424 . S
C275 H267 0.951 . S
C275 C274 1.424 . S
C275 C276 1.347 . S
C276 H268 0.951 . S
C276 C271 1.429 . S
C276 C275 1.347 . S
H277 C278 0.951 . S
C278 H277 0.951 . S
C278 C284 1.265 . S
H279 C284 0.950 . S
H280 C288 0.949 . S
H281 C289 0.950 . S
H282 C290 0.951 . S
H283 C291 0.951 . S
C284 C278 1.265 . S
C284 H279 0.950 . S
C284 C285 1.478 . S
C285 C272 1.394 . S
C285 C284 1.478 . S
C285 C286 1.397 . S
C286 C285 1.397 . S
C286 C287 1.438 . S
C286 C291 1.429 . S
C287 C270 1.394 . S
C287 C286 1.438 . S
C287 C288 1.428 . S
C288 H280 0.949 . S
C288 C287 1.428 . S
C288 C289 1.345 . S
C289 H281 0.950 . S
C289 C288 1.345 . S
C289 C290 1.424 . S
C290 H282 0.951 . S
C290 C289 1.424 . S
C290 C291 1.347 . S
C291 H283 0.951 . S
C291 C286 1.429 . S
C291 C290 1.347 . S
H292 C293 0.951 . S
C293 H292 0.951 . S
C293 C299 1.265 . S
H294 C299 0.950 . S
H295 C303 0.949 . S
H296 C304 0.950 . S
H297 C305 0.951 . S
H298 C306 0.951 . S
C299 C293 1.265 . S
C299 H294 0.950 . S
C299 C300 1.478 . S
C300 C299 1.478 . S
C300 C301 1.397 . S
C300 C317 1.394 . S
C301 C300 1.397 . S
C301 C302 1.438 . S
C301 C306 1.429 . S
C302 C301 1.438 . S
C302 C303 1.428 . S
C302 C315 1.394 . S
C303 H295 0.949 . S
C303 C302 1.428 . S
C303 C304 1.345 . S
C304 H296 0.950 . S
C304 C303 1.345 . S
C304 C305 1.424 . S
C305 H297 0.951 . S
C305 C304 1.424 . S
C305 C306 1.347 . S
C306 H298 0.951 . S
C306 C301 1.429 . S
C306 C305 1.347 . S
H307 C308 0.951 . S
C308 H307 0.951 . S
C308 C314 1.265 . S
H309 C314 0.950 . S
H310 C318 0.949 . S
H311 C319 0.950 . S
H312 C320 0.951 . S
H313 C321 0.951 . S
C314 C308 1.265 . S
C314 H309 0.950 . S
C314 C315 1.478 . S
C315 C302 1.394 . S
C315 C314 1.478 . S
C315 C316 1.397 . S
C316 C315 1.397 . S
C316 C317 1.438 . S
C316 C321 1.429 . S
C317 C300 1.394 . S
C317 C316 1.438 . S
C317 C318 1.428 . S
C318 H310 0.949 . S
C318 C317 1.428 . S
C318 C319 1.345 . S
C319 H311 0.950 . S
C319 C318 1.345 . S
C319 C320 1.424 . S
C320 H312 0.951 . S
C320 C319 1.424 . S
C320 C321 1.347 . S
C321 H313 0.951 . S
C321 C316 1.429 . S
C321 C320 1.347 . S
H322 C323 0.951 . S
C323 H322 0.951 . S
C323 C329 1.265 . S
H324 C329 0.950 . S
H325 C333 0.949 . S
H326 C334 0.950 . S
H327 C335 0.951 . S
H328 C336 0.951 . S
C329 C323 1.265 . S
C329 H324 0.950 . S
C329 C330 1.478 . S
C330 C329 1.478 . S
C330 C331 1.397 . S
C330 C347 1.394 . S
C331 C330 1.397 . S
C331 C332 1.438 . S
C331 C336 1.429 . S
C332 C331 1.438 . S
C332 C333 1.428 . S
C332 C345 1.394 . S
C333 H325 0.949 . S
C333 C332 1.428 . S
C333 C334 1.345 . S
C334 H326 0.950 . S
C334 C333 1.345 . S
C334 C335 1.424 . S
C335 H327 0.951 . S
C335 C334 1.424 . S
C335 C336 1.347 . S
C336 H328 0.951 . S
C336 C331 1.429 . S
C336 C335 1.347 . S
H337 C338 0.951 . S
C338 H337 0.951 . S
C338 C344 1.265 . S
H339 C344 0.950 . S
H340 C348 0.949 . S
H341 C349 0.950 . S
H342 C350 0.951 . S
H343 C351 0.951 . S
C344 C338 1.265 . S
C344 H339 0.950 . S
C344 C345 1.478 . S
C345 C332 1.394 . S
C345 C344 1.478 . S
C345 C346 1.397 . S
C346 C345 1.397 . S
C346 C347 1.438 . S
C346 C351 1.429 . S
C347 C330 1.394 . S
C347 C346 1.438 . S
C347 C348 1.428 . S
C348 H340 0.949 . S
C348 C347 1.428 . S
C348 C349 1.345 . S
C349 H341 0.950 . S
C349 C348 1.345 . S
C349 C350 1.424 . S
C350 H342 0.951 . S
C350 C349 1.424 . S
C350 C351 1.347 . S
C351 H343 0.951 . S
C351 C346 1.429 . S
C351 C350 1.347 . S
H352 C353 0.951 1_665 S
C353 H352 0.951 1_445 S
C353 C359 1.265 . S
H354 C359 0.950 . S
H355 C363 0.949 . S
H356 C364 0.950 . S
H357 C365 0.951 . S
H358 C366 0.951 . S
C359 C353 1.265 . S
C359 H354 0.950 . S
C359 C360 1.478 . S
C360 C359 1.478 . S
C360 C361 1.397 . S
C360 C377 1.396 1_545 S
C361 C360 1.397 . S
C361 C362 1.438 . S
C361 C366 1.429 . S
C362 C361 1.438 . S
C362 C363 1.428 . S
C362 C375 1.401 1_545 S
C363 H355 0.949 . S
C363 C362 1.428 . S
C363 C364 1.345 . S
C364 H356 0.950 . S
C364 C363 1.345 . S
C364 C365 1.424 . S
C365 H357 0.951 . S
C365 C364 1.424 . S
C365 C366 1.347 . S
C366 H358 0.951 . S
C366 C361 1.429 . S
C366 C365 1.347 . S
H367 C368 0.951 1_545 S
C368 H367 0.951 1_565 S
C368 C374 1.265 1_455 S
H369 C374 0.950 . S
H370 C378 0.949 . S
H371 C379 0.950 . S
H372 C380 0.951 . S
H373 C381 0.951 . S
C374 C368 1.265 1_655 S
C374 H369 0.950 . S
C374 C375 1.473 1_655 S
C375 C362 1.401 1_565 S
C375 C374 1.473 1_455 S
C375 C376 1.395 1_455 S
C376 C375 1.395 1_655 S
C376 C377 1.436 1_655 S
C376 C381 1.429 . S
C377 C360 1.396 1_565 S
C377 C376 1.436 1_455 S
C377 C378 1.427 1_455 S
C378 H370 0.949 . S
C378 C377 1.427 1_655 S
C378 C379 1.345 . S
C379 H371 0.950 . S
C379 C378 1.345 . S
C379 C380 1.424 . S
C380 H372 0.951 . S
C380 C379 1.424 . S
C380 C381 1.347 . S
C381 H373 0.951 . S
C381 C376 1.429 . S
C381 C380 1.347 . S
H382 C383 0.951 . S
C383 H382 0.951 . S
C383 C389 1.265 1_455 S
H384 C389 0.950 . S
H385 C393 0.949 1_455 S
H386 C394 0.950 . S
H387 C395 0.951 . S
H388 C396 0.951 . S
C389 C383 1.265 1_655 S
C389 H384 0.950 . S
C389 C390 1.478 1_655 S
C390 C389 1.478 1_455 S
C390 C391 1.397 1_455 S
C390 C407 1.394 1_545 S
C391 C390 1.397 1_655 S
C391 C392 1.438 1_655 S
C391 C396 1.429 . S
C392 C391 1.438 1_455 S
C392 C393 1.428 1_455 S
C392 C405 1.394 . S
C393 H385 0.949 1_655 S
C393 C392 1.428 1_655 S
C393 C394 1.345 . S
C394 H386 0.950 . S
C394 C393 1.345 . S
C394 C395 1.424 . S
C395 H387 0.951 . S
C395 C394 1.424 . S
C395 C396 1.347 . S
C396 H388 0.951 . S
C396 C391 1.429 . S
C396 C395 1.347 . S
H397 C398 0.951 1_655 S
C398 H397 0.951 1_455 S
C398 C404 1.265 . S
H399 C404 0.950 . S
H400 C408 0.949 . S
H401 C409 0.950 . S
H402 C410 0.951 . S
H403 C411 0.951 . S
C404 C398 1.265 . S
C404 H399 0.950 . S
C404 C405 1.478 . S
C405 C392 1.394 . S
C405 C404 1.478 . S
C405 C406 1.383 1_545 S
C406 C405 1.383 1_565 S
C406 C407 1.435 . S
C406 C411 1.446 . S
C407 C390 1.394 1_565 S
C407 C406 1.435 . S
C407 C408 1.428 . S
C408 H400 0.949 . S
C408 C407 1.428 . S
C408 C409 1.345 . S
C409 H401 0.950 . S
C409 C408 1.345 . S
C409 C410 1.424 . S
C410 H402 0.951 . S
C410 C409 1.424 . S
C410 C411 1.347 . S
C411 H403 0.951 . S
C411 C406 1.446 . S
C411 C410 1.347 . S
H412 C413 0.951 . S
C413 H412 0.951 . S
C413 C419 1.265 . S
H414 C419 0.950 . S
H415 C423 0.949 . S
H416 C424 0.950 . S
H417 C425 0.951 . S
H418 C426 0.951 . S
C419 C413 1.265 . S
C419 H414 0.950 . S
C419 C420 1.478 . S
C420 C419 1.478 . S
C420 C421 1.397 . S
C420 C437 1.394 . S
C421 C420 1.397 . S
C421 C422 1.438 . S
C421 C426 1.429 . S
C422 C421 1.438 . S
C422 C423 1.428 . S
C422 C435 1.394 . S
C423 H415 0.949 . S
C423 C422 1.428 . S
C423 C424 1.345 . S
C424 H416 0.950 . S
C424 C423 1.345 . S
C424 C425 1.424 . S
C425 H417 0.951 . S
C425 C424 1.424 . S
C425 C426 1.347 . S
C426 H418 0.951 . S
C426 C421 1.429 . S
C426 C425 1.347 . S
H427 C428 0.951 . S
C428 H427 0.951 . S
C428 C434 1.265 . S
H429 C434 0.950 . S
H430 C438 0.949 . S
H431 C439 0.950 . S
H432 C440 0.951 . S
H433 C441 0.951 . S
C434 C428 1.265 . S
C434 H429 0.950 . S
C434 C435 1.478 . S
C435 C422 1.394 . S
C435 C434 1.478 . S
C435 C436 1.397 . S
C436 C435 1.397 . S
C436 C437 1.438 . S
C436 C441 1.429 . S
C437 C420 1.394 . S
C437 C436 1.438 . S
C437 C438 1.428 . S
C438 H430 0.949 . S
C438 C437 1.428 . S
C438 C439 1.345 . S
C439 H431 0.950 . S
C439 C438 1.345 . S
C439 C440 1.424 . S
C440 H432 0.951 . S
C440 C439 1.424 . S
C440 C441 1.347 . S
C441 H433 0.951 . S
C441 C436 1.429 . S
C441 C440 1.347 . S
H442 C443 0.951 . S
C443 H442 0.951 . S
C443 C449 1.265 . S
H444 C449 0.950 . S
H445 C453 0.949 . S
H446 C454 0.950 . S
H447 C455 0.951 . S
H448 C456 0.951 . S
C449 C443 1.265 . S
C449 H444 0.950 . S
C449 C450 1.478 . S
C450 C449 1.478 . S
C450 C451 1.397 . S
C450 C467 1.394 . S
C451 C450 1.397 . S
C451 C452 1.438 . S
C451 C456 1.429 . S
C452 C451 1.438 . S
C452 C453 1.428 . S
C452 C465 1.394 . S
C453 H445 0.949 . S
C453 C452 1.428 . S
C453 C454 1.345 . S
C454 H446 0.950 . S
C454 C453 1.345 . S
C454 C455 1.424 . S
C455 H447 0.951 . S
C455 C454 1.424 . S
C455 C456 1.347 . S
C456 H448 0.951 . S
C456 C451 1.429 . S
C456 C455 1.347 . S
H457 C458 0.951 . S
C458 H457 0.951 . S
C458 C464 1.265 . S
H459 C464 0.950 . S
H460 C468 0.949 . S
H461 C469 0.950 . S
H462 C470 0.951 . S
H463 C471 0.951 . S
C464 C458 1.265 . S
C464 H459 0.950 . S
C464 C465 1.478 . S
C465 C452 1.394 . S
C465 C464 1.478 . S
C465 C466 1.397 . S
C466 C465 1.397 . S
C466 C467 1.438 . S
C466 C471 1.429 . S
C467 C450 1.394 . S
C467 C466 1.438 . S
C467 C468 1.428 . S
C468 H460 0.949 . S
C468 C467 1.428 . S
C468 C469 1.345 . S
C469 H461 0.950 . S
C469 C468 1.345 . S
C469 C470 1.424 . S
C470 H462 0.951 . S
C470 C469 1.424 . S
C470 C471 1.347 . S
C471 H463 0.951 . S
C471 C466 1.429 . S
C471 C470 1.347 . S
C128 N101 1.393 . S
C113 C27 1.385 . S
C143 N6 1.308 . S
C158 N88 1.373 . S
C173 C16 1.475 . S
C188 N100 1.483 . S
C203 N14 1.380 1_556 S
C218 N87 1.426 . S
C233 C57 1.370 . S
C248 N75 1.381 . S
C263 N36 1.303 . S
C278 N62 1.382 . S
C308 N74 1.483 . S
C293 C46 1.477 . S
C338 N61 1.456 . S
C323 N44 1.437 . S
C353 C10 1.471 . S
C368 N65 1.455 1_565 S
C383 C1 1.560 . S
C398 N78 1.511 . S
C428 N91 1.456 . S
C413 C40 1.471 . S
C443 C31 1.560 . S
C458 N104 1.513 . S
