# Generated by pormake.
# Topology pyr, (3,6)-cn, num edge types: 1
# Building blocks:
#     Node 0, Type 0, BuildingBlock: QEWDON_clean_linker_0, # of connection points: 3
#     Node 1, Type 0, BuildingBlock: QEWDON_clean_linker_0, # of connection points: 3
#     Node 2, Type 0, BuildingBlock: QEWDON_clean_linker_0, # of connection points: 3
#     Node 3, Type 0, BuildingBlock: QEWDON_clean_linker_0, # of connection points: 3
#     Node 4, Type 0, BuildingBlock: QEWDON_clean_linker_0, # of connection points: 3
#     Node 5, Type 0, BuildingBlock: QEWDON_clean_linker_0, # of connection points: 3
#     Node 6, Type 0, BuildingBlock: QEWDON_clean_linker_0, # of connection points: 3
#     Node 7, Type 0, BuildingBlock: QEWDON_clean_linker_0, # of connection points: 3
#     Node 8, Type 1, BuildingBlock: FUNLAD_clean_sbu_0, # of connection points: 6
#     Node 9, Type 1, BuildingBlock: FUNLAD_clean_sbu_0, # of connection points: 6
#     Node 10, Type 1, BuildingBlock: FUNLAD_clean_sbu_0, # of connection points: 6
#     Node 11, Type 1, BuildingBlock: FUNLAD_clean_sbu_0, # of connection points: 6
#     Edge 12, Type (0, 1), BuildingBlock: OJICUG_clean_linker_0, # of connection points: 2
#     Edge 13, Type (0, 1), BuildingBlock: OJICUG_clean_linker_0, # of connection points: 2
#     Edge 14, Type (0, 1), BuildingBlock: OJICUG_clean_linker_0, # of connection points: 2
#     Edge 15, Type (0, 1), BuildingBlock: OJICUG_clean_linker_0, # of connection points: 2
#     Edge 16, Type (0, 1), BuildingBlock: OJICUG_clean_linker_0, # of connection points: 2
#     Edge 17, Type (0, 1), BuildingBlock: OJICUG_clean_linker_0, # of connection points: 2
#     Edge 18, Type (0, 1), BuildingBlock: OJICUG_clean_linker_0, # of connection points: 2
#     Edge 19, Type (0, 1), BuildingBlock: OJICUG_clean_linker_0, # of connection points: 2
#     Edge 20, Type (0, 1), BuildingBlock: OJICUG_clean_linker_0, # of connection points: 2
#     Edge 21, Type (0, 1), BuildingBlock: OJICUG_clean_linker_0, # of connection points: 2
#     Edge 22, Type (0, 1), BuildingBlock: OJICUG_clean_linker_0, # of connection points: 2
#     Edge 23, Type (0, 1), BuildingBlock: OJICUG_clean_linker_0, # of connection points: 2
#     Edge 24, Type (0, 1), BuildingBlock: OJICUG_clean_linker_0, # of connection points: 2
#     Edge 25, Type (0, 1), BuildingBlock: OJICUG_clean_linker_0, # of connection points: 2
#     Edge 26, Type (0, 1), BuildingBlock: OJICUG_clean_linker_0, # of connection points: 2
#     Edge 27, Type (0, 1), BuildingBlock: OJICUG_clean_linker_0, # of connection points: 2
#     Edge 28, Type (0, 1), BuildingBlock: OJICUG_clean_linker_0, # of connection points: 2
#     Edge 29, Type (0, 1), BuildingBlock: OJICUG_clean_linker_0, # of connection points: 2
#     Edge 30, Type (0, 1), BuildingBlock: OJICUG_clean_linker_0, # of connection points: 2
#     Edge 31, Type (0, 1), BuildingBlock: OJICUG_clean_linker_0, # of connection points: 2
#     Edge 32, Type (0, 1), BuildingBlock: OJICUG_clean_linker_0, # of connection points: 2
#     Edge 33, Type (0, 1), BuildingBlock: OJICUG_clean_linker_0, # of connection points: 2
#     Edge 34, Type (0, 1), BuildingBlock: OJICUG_clean_linker_0, # of connection points: 2
#     Edge 35, Type (0, 1), BuildingBlock: OJICUG_clean_linker_0, # of connection points: 2
# Relax obj value: 0.348
# Max RMSD: 0.301
# Mean RMSD: 0.190
data_MOF--net-pry--node1-FUNLAD_clean_sbu_0--node2-QEWDON_clean_linker_0--edge1-OJICUG_clean_linker_0
_symmetry_space_group_name_H-M    P1
_symmetry_Int_Tables_number       1
_symmetry_cell_setting            triclinic
loop_
_symmetry_equiv_pos_as_xyz
'x, y, z'
_cell_length_a     25.44672
_cell_length_b     27.438122
_cell_length_c     28.729027
_cell_angle_alpha  89.607785
_cell_angle_beta   90.411575
_cell_angle_gamma 88.281816
loop_
_atom_site_label
_atom_site_type_symbol
_atom_site_fract_x
_atom_site_fract_y
_atom_site_fract_z
_atom_type_partial_charge
H0 H 0.23595 0.26893 0.20691 0.0
C1 C 0.2187 0.24964 0.23574 0.0
C2 C 0.24006 0.20374 0.25048 0.0
C3 C 0.1771 0.27276 0.25971 0.0
H4 H 0.23277 0.14583 0.30187 0.0
C5 C 0.21632 0.18017 0.28888 0.0
C6 C 0.17368 0.20236 0.313 0.0
C7 C 0.15471 0.24863 0.2978 0.0
C8 C 0.16558 0.32603 0.2529 0.0
H9 H 0.1233 0.26705 0.31672 0.0
C10 C 0.14011 0.34654 0.21276 0.0
C11 C 0.12888 0.3976 0.21022 0.0
C12 C 0.18092 0.35705 0.28889 0.0
H13 H 0.2008 0.34237 0.31964 0.0
C14 C 0.17125 0.40711 0.28578 0.0
H15 H 0.12774 0.32308 0.18483 0.0
C16 C 0.14538 0.42718 0.24704 0.0
H17 H 0.13809 0.46629 0.24586 0.0
H18 H 0.18356 0.4305 0.31376 0.0
H19 H 0.3664 0.9919 0.88038 0.0
C20 C 0.3891 0.96423 0.86187 0.0
C21 C 0.43934 0.94985 0.87842 0.0
C22 C 0.36671 0.94228 0.82285 0.0
H23 H 0.50544 0.89899 0.86779 0.0
C24 C 0.4672 0.91145 0.85496 0.0
C25 C 0.44568 0.8902 0.81405 0.0
C26 C 0.39556 0.90655 0.79867 0.0
C27 C 0.31085 0.95264 0.81041 0.0
H28 H 0.37736 0.88919 0.76909 0.0
C29 C 0.29543 0.96491 0.76445 0.0
C30 C 0.24179 0.97121 0.75301 0.0
C31 C 0.27217 0.94742 0.84462 0.0
H32 H 0.28305 0.93755 0.88005 0.0
C33 C 0.21903 0.95347 0.83318 0.0
H34 H 0.32489 0.96943 0.73781 0.0
C35 C 0.20383 0.96506 0.78763 0.0
H36 H 0.16235 0.97007 0.77951 0.0
H37 H 0.1895 0.94903 0.85969 0.0
H38 H 0.67374 0.61816 1.06662 0.0
C39 C 0.66821 0.57956 0.07226 0.0
C40 C 0.7092 0.54556 1.06279 0.0
C41 C 0.61859 0.56409 0.08537 0.0
H42 H 0.73084 0.46882 1.06021 0.0
C43 C 0.69951 0.49541 1.06673 0.0
C44 C 0.64946 0.47949 0.07941 0.0
C45 C 0.60964 0.51428 0.08916 0.0
C46 C 0.57339 0.59891 0.08473 0.0
H47 H 0.57019 0.50283 0.09676 0.0
C48 C 0.53318 0.5911 1.05254 0.0
C49 C 0.49441 0.62719 1.0429 0.0
C50 C 0.57326 0.64231 0.11012 0.0
H51 H 0.60456 0.64927 0.13472 0.0
C52 C 0.53342 0.6777 0.10247 0.0
H53 H 0.53598 0.55881 1.03104 0.0
C54 C 0.49454 0.67053 1.06861 0.0
H55 H 0.46615 0.69956 1.06085 0.0
H56 H 0.53414 0.71165 0.12134 0.0
H57 H 0.91364 0.68075 0.48833 0.0
C58 C 0.89517 0.67095 0.52061 0.0
C59 C 0.8965 0.70508 0.55629 0.0
C60 C 0.86629 0.62827 0.52442 0.0
H61 H 0.87011 0.72341 0.62492 0.0
C62 C 0.87072 0.69586 0.59805 0.0
C63 C 0.84069 0.65399 0.60305 0.0
C64 C 0.84086 0.61926 0.56697 0.0
C65 C 0.85447 0.60012 0.48104 0.0
H66 H 0.81715 0.58748 0.57065 0.0
C67 C 0.88631 0.60517 0.44126 0.0
C68 C 0.86644 0.59597 0.39673 0.0
C69 C 0.80638 0.57628 0.47568 0.0
H70 H 0.77983 0.57143 0.50439 0.0
C71 C 0.78953 0.5613 0.43181 0.0
H72 H 0.92472 0.62073 0.44393 0.0
C73 C 0.81841 0.57256 0.39231 0.0
H74 H 0.80261 0.56424 0.35826 0.0
H75 H 0.75217 0.54381 0.42809 0.0
H76 H 0.87489 0.89407 0.93252 0.0
C77 C 0.89316 0.91165 0.9031 0.0
C78 C 0.94284 0.89472 0.88798 0.0
C79 C 0.86485 0.94846 0.87906 0.0
H80 H 1.00227 0.90337 0.8346 0.0
C81 C 0.96438 0.91626 0.84722 0.0
C82 C 0.93708 0.95555 0.82371 0.0
C83 C 0.88734 0.97066 0.84019 0.0
C84 C 0.8094 0.95989 0.89169 0.0
H85 H 0.8651 0.99917 0.82174 0.0
C86 C 0.79485 0.96966 0.93811 0.0
C87 C 0.74149 0.97666 0.94961 0.0
C88 C 0.77011 0.95798 0.85715 0.0
H89 H 0.78021 0.94999 0.82138 0.0
C90 C 0.71728 0.96481 0.86864 0.0
H91 H 0.82472 0.97162 0.96506 0.0
C92 C 0.70296 0.97385 0.91459 0.0
H93 H 0.66171 0.97944 0.92275 0.0
H94 H 0.6873 0.9629 0.84185 0.0
H95 H 0.71391 0.24956 0.51076 0.0
C96 C 0.70213 0.23684 0.47674 0.0
C97 C 0.7346 0.20256 0.45283 0.0
C98 C 0.65236 0.25165 0.45888 0.0
H99 H 0.74037 0.15776 0.39092 0.0
C100 C 0.7162 0.18379 0.41 0.0
C101 C 0.66699 0.19875 0.39102 0.0
C102 C 0.63598 0.23313 0.41554 0.0
C103 C 0.61311 0.27869 0.48857 0.0
H104 H 0.59739 0.24368 0.40199 0.0
C105 C 0.62274 0.32413 0.51025 0.0
C106 C 0.58353 0.34686 0.53855 0.0
C107 C 0.56438 0.25707 0.49578 0.0
H108 H 0.55596 0.22222 0.48031 0.0
C109 C 0.52615 0.27934 0.52347 0.0
H110 H 0.65999 0.34144 0.50523 0.0
C111 C 0.53557 0.32367 0.54467 0.0
H112 H 0.50488 0.34024 0.56581 0.0
H113 H 0.48894 0.26204 0.52861 0.0
H114 H 0.4696 0.6538 0.19595 0.0
C115 C 0.43221 0.65171 0.17789 0.0
C116 C 0.41189 0.69279 0.15415 0.0
C117 C 0.40247 0.60973 0.18278 0.0
H118 H 0.3481 0.72071 0.11085 0.0
C119 C 0.3649 0.68909 0.12894 0.0
C120 C 0.33686 0.64593 0.12967 0.0
C121 C 0.35551 0.6062 0.15696 0.0
C122 C 0.41564 0.5754 0.22169 0.0
H123 H 0.33128 0.57467 0.16115 0.0
C124 C 0.4328 0.5945 0.26434 0.0
C125 C 0.44404 0.56446 0.30301 0.0
C126 C 0.40931 0.52496 0.21807 0.0
H127 H 0.39599 0.50919 0.18577 0.0
C128 C 0.42065 0.49445 0.25632 0.0
H129 H 0.43727 0.63342 0.26756 0.0
C130 C 0.43794 0.51392 0.29853 0.0
H131 H 0.44566 0.4895 0.32771 0.0
H132 H 0.4158 0.45554 0.25333 0.0
H133 H 0.19407 0.61687 0.58772 0.0
C134 C 0.18765 0.57845 0.58201 0.0
C135 C 0.22864 0.54404 0.59041 0.0
C136 C 0.13669 0.56319 0.57289 0.0
H137 H 0.24956 0.46737 0.59571 0.0
C138 C 0.21829 0.49402 0.58825 0.0
C139 C 0.16723 0.47845 0.57854 0.0
C140 C 0.12721 0.51348 0.56945 0.0
C141 C 0.09216 0.59521 0.58574 0.0
H142 H 0.08682 0.50238 0.5659 0.0
C143 C 0.07168 0.58856 0.63016 0.0
C144 C 0.02993 0.61777 0.6462 0.0
C145 C 0.07065 0.63154 0.55635 0.0
H146 H 0.08633 0.6371 0.52184 0.0
C147 C 0.02847 0.6609 0.57195 0.0
H148 H 0.09008 0.56133 0.6531 0.0
C149 C 1.0083 0.65429 0.61688 0.0
H150 H 0.9764 0.67756 0.62907 0.0
H151 H 1.012 0.68912 0.54933 0.0
C152 C 0.07932 0.11831 0.48047 0.0
N153 N 0.062 0.18983 0.60738 0.0
C154 C 0.11429 0.19855 0.60355 0.0
C155 C 0.13254 0.24553 0.6074 0.0
C156 C 0.09656 0.28427 0.61356 0.0
C157 C 0.04324 0.2746 0.61993 0.0
C158 C 0.02671 0.22652 0.61728 0.0
Zn159 Zn 0.03865 0.12406 0.58255 0.0
C160 C 0.93577 0.1302 0.53216 0.0
N161 N 1.00451 0.98939 0.52159 0.0
C162 C 0.04106 0.95443 0.50986 0.0
C163 C 0.95305 0.97872 0.52731 0.0
C164 C 0.93713 0.93104 0.52409 0.0
C165 C 0.97477 0.89405 0.51634 0.0
C166 C 0.02698 0.90573 0.50772 0.0
Zn167 Zn 0.02605 0.05444 0.54676 0.0
O168 O 0.07408 0.14463 0.51664 0.0
C169 C 0.12552 0.04761 0.5989 0.0
O170 O 0.06217 0.07517 0.48176 0.0
H171 H 0.92484 1.00625 0.53851 0.0
H172 H 0.14188 0.17006 0.59345 0.0
H173 H 0.08177 0.96366 0.50573 0.0
O174 O 0.11054 0.09113 0.60717 0.0
O175 O 0.09804 1.02226 0.57179 0.0
H176 H 0.98533 0.21919 0.61976 0.0
O177 O 0.99293 1.03242 0.61275 0.0
O178 O 1.00488 0.10127 0.64886 0.0
O179 O 0.95244 0.0874 0.52228 0.0
O180 O 0.96412 0.15604 0.55835 0.0
C181 C 0.99116 0.05682 0.65027 0.0
H182 H 0.17378 0.25198 0.60145 0.0
H183 H 1.0145 0.30407 0.62452 0.0
H184 H 0.89666 0.92268 0.5315 0.0
H185 H 0.05674 0.87742 0.50183 0.0
C186 C 0.62633 0.04503 0.10482 0.0
N187 N 0.55839 0.18491 0.09225 0.0
C188 C 0.6098 0.19655 0.0974 0.0
C189 C 0.62593 0.24344 0.08774 0.0
C190 C 0.58859 0.27909 0.07412 0.0
C191 C 0.53613 0.26627 1.06746 0.0
C192 C 0.52183 0.21829 0.07628 0.0
Zn193 Zn 0.53787 0.1193 0.11931 0.0
C194 C 0.49162 0.05039 1.05184 0.0
N195 N 0.50677 0.98379 0.18168 0.0
C196 C 0.54371 0.9504 0.19702 0.0
C197 C 0.45651 0.97109 0.17254 0.0
C198 C 0.44283 0.92269 0.17461 0.0
C199 C 0.48131 0.88701 0.18571 0.0
C200 C 0.5316 0.90107 0.19943 0.0
Zn201 Zn 0.52611 0.04929 0.15537 0.0
O202 O 0.61075 0.08855 0.09651 0.0
C203 C 0.57795 0.11537 0.2214 0.0
O204 O 0.59903 1.0187 0.13128 0.0
H205 H 0.42802 0.99768 0.1592 0.0
H206 H 0.63812 0.17046 0.11186 0.0
H207 H 0.58354 0.96133 0.20362 0.0
O208 O 0.5722 0.14183 0.18499 0.0
O209 O 0.5622 0.0717 0.22016 0.0
H210 H 0.48115 0.2085 0.07285 0.0
O211 O 0.45123 0.08064 0.17873 0.0
O212 O 0.46312 0.14947 0.14206 0.0
O213 O 0.49338 1.02594 0.08963 0.0
O214 O 0.50485 0.09493 1.05304 0.0
C215 C 0.43473 0.12356 0.16815 0.0
H216 H 0.66647 0.25262 0.09411 0.0
H217 H 0.50636 0.29345 1.0574 0.0
H218 H 0.40351 0.91285 0.16427 0.0
H219 H 0.56207 0.87408 0.20821 0.0
C220 C 0.56144 0.53379 0.63091 0.0
N221 N 0.52883 0.58145 0.76798 0.0
C222 C 0.48658 0.55539 0.78125 0.0
C223 C 0.46684 0.55998 0.82642 0.0
C224 C 0.49138 0.59132 0.85758 0.0
C225 C 0.53874 0.6123 0.84465 0.0
C226 C 0.55674 0.60707 0.79948 0.0
Zn227 Zn 0.53506 0.60596 0.7012 0.0
C228 C 0.64113 0.64249 0.67854 0.0
N229 N 0.53872 0.67121 0.56698 0.0
C230 C 0.49318 0.68957 0.54789 0.0
C231 C 0.57732 0.65155 0.53978 0.0
C232 C 0.56753 0.64271 0.49278 0.0
C233 C 0.51738 0.65366 0.47391 0.0
C234 C 0.48127 0.68049 0.5013 0.0
Zn235 Zn 0.53653 0.64646 0.63428 0.0
O236 O 0.55206 0.53522 0.67436 0.0
C237 C 0.4309 0.60859 0.65275 0.0
O238 O 0.55813 0.57351 0.60755 0.0
H239 H 0.61324 0.637 0.55555 0.0
H240 H 0.46504 0.53487 0.75585 0.0
H241 H 0.46306 0.70533 0.57003 0.0
O242 O 0.45252 0.59448 0.69064 0.0
O243 O 0.45763 0.63172 0.62363 0.0
H244 H 0.58952 0.62831 0.78855 0.0
O245 O 0.51552 0.71811 0.66292 0.0
O246 O 0.51848 0.67806 0.72899 0.0
O247 O 0.61504 0.66088 0.64463 0.0
O248 O 0.61847 0.61602 0.70837 0.0
C249 C 0.51213 0.71837 0.70729 0.0
H250 H 0.43094 0.54218 0.8357 0.0
H251 H 0.56003 0.63517 0.86842 0.0
H252 H 0.5975 0.62382 0.47262 0.0
H253 H 0.44215 0.69015 0.48867 0.0
C254 C 1.00538 0.72134 0.99706 0.0
N255 N 0.98949 0.66373 0.1359 0.0
C256 C 1.01017 0.69603 0.1664 0.0
C257 C 0.99367 0.6964 0.21317 0.0
C258 C 0.95533 0.66371 0.2275 0.0
C259 C 0.93473 0.63168 0.19531 0.0
C260 C 0.95278 0.63174 0.15021 0.0
Zn261 Zn 1.01363 0.64768 1.06903 0.0
C262 C 0.91828 0.60871 1.02236 0.0
N263 N 0.04754 0.58716 0.93814 0.0
C264 C 0.07681 0.61824 0.91285 0.0
C265 C 1.01655 0.55415 0.9171 0.0
C266 C 1.00929 0.5556 0.86889 0.0
C267 C 0.03475 0.59097 0.84244 0.0
C268 C 0.07117 0.62058 0.86469 0.0
Zn269 Zn 0.03205 0.60759 1.00448 0.0
O270 O 1.00302 0.72075 1.04148 0.0
C271 C 0.12637 0.64542 1.05576 0.0
O272 O 1.01486 0.68115 0.97622 0.0
H273 H 0.99358 0.52976 0.93788 0.0
H274 H 0.04052 0.72009 0.15505 0.0
H275 H 0.10062 0.64465 0.93024 0.0
O276 O 0.09144 0.6598 0.08433 0.0
O277 O 0.11288 0.62475 1.01803 0.0
H278 H 0.93871 0.60384 0.12747 0.0
O279 O 0.05027 0.53594 1.03201 0.0
O280 O 0.0261 0.57359 0.09547 0.0
O281 O 0.95053 0.58827 0.99468 0.0
O282 O 0.93571 0.63689 1.05281 0.0
C283 C 0.04248 0.53474 0.07565 0.0
H284 H 1.01086 0.72119 0.23774 0.0
H285 H 0.90619 0.60512 0.2055 0.0
H286 H 0.98127 0.53168 0.8531 0.0
H287 H 0.09308 0.64717 0.84541 0.0
C288 C 0.14009 0.2083 0.39563 0.0
C289 C 0.15117 0.17958 0.3562 0.0
H290 H 0.1096 0.21193 0.46487 0.0
C291 C 0.13943 0.1297 0.35845 0.0
H292 H 0.14927 0.24659 0.39581 0.0
C293 C 0.11616 0.10961 0.39846 0.0
C294 C 0.10461 0.13867 0.43762 0.0
H295 H 0.14721 0.10639 0.32887 0.0
H296 H 0.10712 0.07129 0.39864 0.0
C297 C 0.11744 0.18823 0.43557 0.0
C298 C 0.45931 1.02642 0.92324 0.0
C299 C 0.45945 0.97496 0.92128 0.0
H300 H 0.46924 0.09047 0.96497 0.0
C301 C 0.47099 0.94883 0.96252 0.0
H302 H 0.45005 0.04783 0.89228 0.0
C303 C 0.48058 0.97339 1.00461 0.0
C304 C 0.47963 1.02493 1.00677 0.0
H305 H 0.47055 0.90937 0.96268 0.0
H306 H 0.48873 0.95176 1.03565 0.0
C307 C 0.46979 0.05099 0.96511 0.0
C308 C 0.4685 0.66211 0.96625 0.0
C309 C 0.46499 0.62361 0.99838 0.0
H310 H 0.4789 0.68154 0.89492 0.0
C311 C 0.4511 0.57738 0.98194 0.0
H312 H 0.47787 0.69846 0.97747 0.0
C313 C 0.45399 0.5672 0.93442 0.0
C314 C 0.46852 0.60382 0.90324 0.0
H315 H 0.44619 0.5474 1.00611 0.0
H316 H 0.45095 0.52982 0.92304 0.0
C317 C 0.47015 0.6522 0.91883 0.0
C318 C 0.94619 0.61301 0.34833 0.0
C319 C 0.89166 0.61781 0.35551 0.0
H320 H 1.01003 0.62568 0.30161 0.0
C321 C 0.86089 0.64603 0.32405 0.0
H322 H 0.97087 0.59193 0.37238 0.0
C323 C 0.88344 0.66632 0.28464 0.0
C324 C 0.9372 0.65875 0.27578 0.0
H325 H 0.81906 0.65163 0.32946 0.0
H326 H 0.85823 0.68517 0.25936 0.0
C327 C 0.96877 0.63311 0.30849 0.0
C328 C 0.29955 0.13182 0.22587 0.0
C329 C 0.28935 0.18262 0.22805 0.0
H330 H 0.35279 0.0735 0.20571 0.0
C331 C 0.32767 0.21335 0.20939 0.0
H332 H 0.27129 0.10655 0.23902 0.0
C333 C 0.37382 0.19419 0.18908 0.0
C334 C 0.38412 0.14362 0.18759 0.0
H335 H 0.32296 0.25259 0.2113 0.0
H336 H 0.40219 0.21923 0.1756 0.0
C337 C 0.34634 0.11269 0.20634 0.0
C338 C 0.23132 1.03462 0.69089 0.0
C339 C 0.2241 0.98656 0.70592 0.0
H340 H 0.20572 0.09189 0.64414 0.0
C341 C 0.19174 0.95636 0.67976 0.0
H342 H 0.25574 0.05861 0.71088 0.0
C343 C 0.16391 0.97498 0.64107 0.0
C344 C 0.16698 1.02449 0.62875 0.0
H345 H 0.18542 0.91924 0.69104 0.0
H346 H 0.13641 0.95176 0.62359 0.0
C347 C 0.20267 0.05358 0.65278 0.0
C348 C 0.79284 0.53773 1.01562 0.0
C349 C 0.76156 0.56299 1.04848 0.0
H350 H 0.86727 0.53271 0.98061 0.0
C351 C 0.78074 0.60564 1.06821 0.0
H352 H 0.77886 0.50523 0.99901 0.0
C353 C 0.83001 0.62205 1.05649 0.0
C354 C 0.86247 0.59573 1.02553 0.0
H355 H 0.75847 0.62576 0.09411 0.0
H356 H 0.84361 0.65444 0.07364 0.0
C357 C 0.84305 0.55389 1.00435 0.0
C358 C 0.76765 0.6956 0.646 0.0
C359 C 0.7986 0.65297 0.6387 0.0
H360 H 0.69269 0.72539 0.66586 0.0
C361 C 0.78158 0.6086 0.65739 0.0
H362 H 0.77887 0.73045 0.63194 0.0
C363 C 0.73156 0.60596 0.67716 0.0
C364 C 0.69827 0.64763 0.67822 0.0
H365 H 0.80486 0.57528 0.65296 0.0
H366 H 0.7169 0.57059 0.6866 0.0
C367 C 0.71791 0.69285 0.66541 0.0
C368 C 0.11863 0.42376 0.12558 0.0
C369 C 0.09886 0.42223 0.1712 0.0
H370 H 0.11593 0.46036 1.05889 0.0
C371 C 0.0553 0.45279 0.182 0.0
H372 H 0.15256 0.40119 0.11635 0.0
C373 C 0.03488 0.48681 0.14963 0.0
C374 C 0.05699 0.49117 0.10514 0.0
H375 H 0.03913 0.45258 0.21679 0.0
H376 H 1.00333 0.51154 0.1604 0.0
C377 C 0.09772 0.45782 0.09274 0.0
C378 C 0.65668 0.39558 1.04473 0.0
C379 C 0.63662 0.42705 0.07926 0.0
H380 H 0.65673 0.32351 1.01591 0.0
C381 C 0.6007 0.40897 0.11167 0.0
H382 H 0.68383 0.40841 1.01885 0.0
C383 C 0.58379 0.36131 0.10864 0.0
C384 C 0.6034 0.33037 0.07392 0.0
H385 H 0.58539 0.4317 0.13941 0.0
H386 H 0.5562 0.34822 0.13407 0.0
C387 C 0.6406 0.34738 1.04245 0.0
C388 C 0.95238 0.77559 0.57741 0.0
C389 C 0.91805 0.75336 0.54619 0.0
H390 H 0.99944 0.83754 0.59083 0.0
C391 C 0.90429 0.77729 0.50412 0.0
H392 H 0.96276 0.75858 0.61038 0.0
C393 C 0.9249 0.82225 0.49323 0.0
C394 C 0.95988 0.84373 0.52401 0.0
H395 H 0.87669 0.76164 0.47998 0.0
H396 H 0.91267 0.84079 0.46135 0.0
C397 C 0.97372 0.82031 0.56606 0.0
C398 C 0.4726 0.85022 0.73827 0.0
C399 C 0.47184 0.84901 0.78747 0.0
H400 H 0.48567 0.81097 0.67459 0.0
C401 C 0.48806 0.80531 0.80981 0.0
H402 H 0.46027 0.88317 0.71974 0.0
C403 C 0.50202 0.76355 0.78376 0.0
C404 C 0.50063 0.76421 0.73448 0.0
H405 H 0.48728 0.8026 0.84743 0.0
H406 H 0.51271 0.73025 0.80244 0.0
C407 C 0.48693 0.80864 0.71222 0.0
C408 C 0.95732 1.03241 0.77846 0.0
C409 C 0.95731 0.98092 0.7809 0.0
H410 H 0.96791 0.09662 0.73637 0.0
C411 C 0.96928 0.95497 0.74013 0.0
H412 H 0.94787 0.05371 0.80905 0.0
C413 C 0.97939 0.97971 0.69803 0.0
C414 C 0.97859 1.03126 0.69537 0.0
H415 H 0.96883 0.91551 0.7403 0.0
H416 H 0.98787 0.95818 0.66738 0.0
C417 C 0.96834 0.05715 0.73659 0.0
C418 C 0.64545 0.12612 0.34067 0.0
C419 C 0.64636 0.17703 0.34678 0.0
H420 H 0.62244 0.06666 0.29719 0.0
C421 C 0.62514 0.20712 0.31104 0.0
H422 H 0.661 0.10182 0.36762 0.0
C423 C 0.60384 0.18704 0.27041 0.0
C424 C 0.6019 0.13614 0.2646 0.0
H425 H 0.6252 0.24641 0.31445 0.0
H426 H 0.58803 0.21157 0.24377 0.0
C427 C 0.62301 0.10595 0.3004 0.0
C428 C 0.44296 0.63311 0.36085 0.0
C429 C 0.46233 0.58672 0.34731 0.0
H430 H 0.4469 0.69167 0.40913 0.0
C431 C 0.50078 0.56305 0.37537 0.0
H432 H 0.41244 0.65223 0.3409 0.0
C433 C 0.51931 0.58516 0.41578 0.0
C434 C 0.50052 0.63195 0.42889 0.0
H435 H 0.51703 0.52758 0.36598 0.0
H436 H 0.54763 0.56489 0.43718 0.0
C437 C 0.46229 0.65565 0.4006 0.0
C438 C 1.01094 0.56559 0.71497 0.0
C439 C 1.01488 0.6125 0.69547 0.0
H440 H 1.0159 0.5217 0.77664 0.0
C441 C 1.01668 0.65284 0.725 0.0
H442 H 1.009 0.53391 0.69277 0.0
C443 C 0.02024 0.64591 0.7731 0.0
C444 C 0.02238 0.59851 0.79235 0.0
H445 H 1.01973 0.68936 0.71087 0.0
H446 H 0.02376 0.6776 0.79505 0.0
C447 C 1.01502 0.55859 0.76298 0.0
C448 C 0.69241 0.95776 1.0221 0.0
C449 C 0.72468 0.98926 0.99729 0.0
H450 H 0.63725 0.95037 0.07746 0.0
C451 C 0.73219 0.0364 1.01416 0.0
H452 H 0.6858 0.92135 1.00937 0.0
C453 C 0.70382 0.05337 1.05267 0.0
C454 C 0.66808 1.02317 0.07526 0.0
H455 H 0.75651 0.0614 0.99524 0.0
H456 H 0.70697 0.09119 1.06262 0.0
C457 C 0.66485 0.97437 1.06118 0.0
C458 C 0.81886 0.21535 0.49928 0.0
C459 C 0.7863 0.18437 0.47362 0.0
H460 H 0.891 0.22302 0.53774 0.0
C461 C 0.8035 0.13542 0.4683 0.0
H462 H 0.80758 0.25335 0.50396 0.0
C463 C 0.85157 0.1182 0.48734 0.0
C464 C 0.88418 0.14916 0.51271 0.0
H465 H 0.77946 0.10986 0.44989 0.0
H466 H 0.86303 0.08028 0.48225 0.0
C467 C 0.867 0.19799 0.51858 0.0
C468 C 0.24706 0.68287 0.12074 0.0
C469 C 0.28391 0.64623 0.10833 0.0
H470 H 0.16856 0.71164 0.1131 0.0
C471 C 0.26988 0.61109 0.07559 0.0
H472 H 0.25697 0.71026 0.14608 0.0
C473 C 0.21927 0.6124 1.05594 0.0
C474 C 0.182 0.64833 0.06957 0.0
H475 H 0.29793 0.58272 1.06541 0.0
H476 H 0.20865 0.58421 1.03171 0.0
C477 C 0.1966 0.68376 0.10177 0.0
C478 C 0.30444 0.53967 0.64679 0.0
C479 C 0.28027 0.56072 0.60697 0.0
H480 H 0.37072 0.53911 0.69336 0.0
C481 C 0.30449 0.59939 0.58429 0.0
H482 H 0.28601 0.51041 0.66549 0.0
C483 C 0.35256 0.61595 0.60033 0.0
C484 C 0.37727 0.59448 0.6397 0.0
H485 H 0.2866 0.61635 0.55366 0.0
H486 H 0.37077 0.64517 0.58137 0.0
C487 C 0.35245 0.55656 0.66316 0.0
C488 C 0.98478 0.80938 0.89325 0.0
C489 C 0.96864 0.85302 0.91505 0.0
H490 H 1.00856 0.73395 0.90161 0.0
C491 C 0.969 0.85378 0.96424 0.0
H492 H 0.98441 0.80704 0.85564 0.0
C493 C 0.9823 0.81183 0.99074 0.0
C494 C 0.99573 0.76745 0.96905 0.0
H495 H 0.95693 0.88669 0.98239 0.0
H496 H 0.98045 0.8139 1.02833 0.0
C497 C 0.99804 0.76723 0.91983 0.0
C498 C 0.4572 0.75361 0.20434 0.0
C499 C 0.43582 0.74094 0.16074 0.0
H500 H 0.48901 0.81019 0.24637 0.0
C501 C 0.4339 0.77595 0.12485 0.0
H502 H 0.45837 0.72799 0.23318 0.0
C503 C 0.45084 0.82285 0.13282 0.0
C504 C 0.46995 0.8358 0.17682 0.0
H505 H 0.41835 0.7676 0.09077 0.0
H506 H 0.44782 0.84951 0.10484 0.0
C507 C 0.4745 0.80065 0.21218 0.0
C508 C 0.11316 0.4069 0.55747 0.0
C509 C 0.15273 0.42689 0.58527 0.0
H510 H 0.06325 0.34663 0.54597 0.0
C511 C 0.17367 0.39923 0.62287 0.0
H512 H 0.09675 0.42685 0.52785 0.0
C513 C 0.15484 0.35301 0.63274 0.0
C514 C 0.11406 0.33422 0.60586 0.0
H515 H 0.20341 0.41378 0.64557 0.0
H516 H 0.17163 0.33215 0.66165 0.0
C517 C 0.09364 0.36127 0.568 0.0
C518 C 0.58282 0.39733 0.61093 0.0
C519 C 0.58984 0.39465 0.56245 0.0
H520 H 0.56867 0.44256 0.67031 0.0
C521 C 0.5917 0.4385 0.53695 0.0
H522 H 0.5805 0.3642 0.63146 0.0
C523 C 0.58409 0.4838 0.55921 0.0
C524 C 0.57451 0.48628 0.60751 0.0
H525 H 0.59593 0.43766 0.49948 0.0
H526 H 0.58388 0.51678 0.53825 0.0
C527 C 0.57551 0.44237 0.63314 0.0
loop_
_geom_bond_atom_site_label_1
_geom_bond_atom_site_label_2
_geom_bond_distance
_geom_bond_site_symmetry_2
_ccdc_geom_bond_type
H0 C1 0.949 . S
C1 H0 0.949 . S
C1 C2 1.395 . S
C1 C3 1.391 . S
C2 C1 1.395 . S
C2 C5 1.390 . S
C3 C1 1.391 . S
C3 C7 1.387 . S
C3 C8 1.491 . S
H4 C5 0.950 . S
C5 C2 1.390 . S
C5 H4 0.950 . S
C5 C6 1.378 . S
C6 C5 1.378 . S
C6 C7 1.409 . S
C7 C3 1.387 . S
C7 C6 1.409 . S
C7 H9 0.951 . S
C8 C3 1.491 . S
C8 C10 1.382 . S
C8 C12 1.404 . S
H9 C7 0.951 . S
C10 C8 1.382 . S
C10 C11 1.390 . S
C10 H15 0.949 . S
C11 C10 1.390 . S
C11 C16 1.399 . S
C12 C8 1.404 . S
C12 H13 0.950 . S
C12 C14 1.375 . S
H13 C12 0.950 . S
C14 C12 1.375 . S
C14 C16 1.382 . S
C14 H18 0.950 . S
H15 C10 0.949 . S
C16 C11 1.399 . S
C16 C14 1.382 . S
C16 H17 0.952 . S
H17 C16 0.952 . S
H18 C14 0.950 . S
H19 C20 0.949 . S
C20 H19 0.949 . S
C20 C21 1.395 . S
C20 C22 1.391 . S
C21 C20 1.395 . S
C21 C24 1.390 . S
C22 C20 1.391 . S
C22 C26 1.387 . S
C22 C27 1.491 . S
H23 C24 0.950 . S
C24 C21 1.390 . S
C24 H23 0.950 . S
C24 C25 1.378 . S
C25 C24 1.378 . S
C25 C26 1.409 . S
C26 C22 1.387 . S
C26 C25 1.409 . S
C26 H28 0.951 . S
C27 C22 1.491 . S
C27 C29 1.382 . S
C27 C31 1.404 . S
H28 C26 0.951 . S
C29 C27 1.382 . S
C29 C30 1.390 . S
C29 H34 0.949 1_565 S
C30 C29 1.390 . S
C30 C35 1.399 . S
C31 C27 1.404 . S
C31 H32 0.950 . S
C31 C33 1.375 . S
H32 C31 0.950 . S
C33 C31 1.375 . S
C33 C35 1.382 . S
C33 H37 0.950 . S
H34 C29 0.949 1_545 S
C35 C30 1.399 . S
C35 C33 1.382 . S
C35 H36 0.952 . S
H36 C35 0.952 . S
H37 C33 0.950 . S
H38 C39 0.949 . S
C39 H38 0.949 . S
C39 C40 1.395 . S
C39 C41 1.391 . S
C40 C39 1.395 . S
C40 C43 1.390 1_556 S
C41 C39 1.391 . S
C41 C45 1.387 . S
C41 C46 1.491 . S
H42 C43 0.950 . S
C43 C40 1.390 1_554 S
C43 H42 0.950 . S
C43 C44 1.378 1_554 S
C44 C43 1.378 1_556 S
C44 C45 1.409 . S
C45 C41 1.387 . S
C45 C44 1.409 . S
C45 H47 0.951 . S
C46 C41 1.491 . S
C46 C48 1.382 . S
C46 C50 1.404 . S
H47 C45 0.951 . S
C48 C46 1.382 . S
C48 C49 1.390 . S
C48 H53 0.949 . S
C49 C48 1.390 . S
C49 C54 1.399 . S
C50 C46 1.404 . S
C50 H51 0.950 . S
C50 C52 1.375 . S
H51 C50 0.950 . S
C52 C50 1.375 . S
C52 C54 1.382 . S
C52 H56 0.950 . S
H53 C48 0.949 . S
C54 C49 1.399 . S
C54 C52 1.382 . S
C54 H55 0.952 . S
H55 C54 0.952 . S
H56 C52 0.950 . S
H57 C58 0.949 . S
C58 H57 0.949 . S
C58 C59 1.395 . S
C58 C60 1.391 . S
C59 C58 1.395 . S
C59 C62 1.390 . S
C60 C58 1.391 . S
C60 C64 1.387 . S
C60 C65 1.491 . S
H61 C62 0.950 . S
C62 C59 1.390 . S
C62 H61 0.950 . S
C62 C63 1.378 . S
C63 C62 1.378 . S
C63 C64 1.409 . S
C64 C60 1.387 . S
C64 C63 1.409 . S
C64 H66 0.951 . S
C65 C60 1.491 . S
C65 C67 1.382 . S
C65 C69 1.404 . S
H66 C64 0.951 . S
C67 C65 1.382 . S
C67 C68 1.390 . S
C67 H72 0.949 . S
C68 C67 1.390 . S
C68 C73 1.399 . S
C69 C65 1.404 . S
C69 H70 0.950 . S
C69 C71 1.375 . S
H70 C69 0.950 . S
C71 C69 1.375 . S
C71 C73 1.382 . S
C71 H75 0.950 . S
H72 C67 0.949 . S
C73 C68 1.399 . S
C73 C71 1.382 . S
C73 H74 0.952 . S
H74 C73 0.952 . S
H75 C71 0.950 . S
H76 C77 0.949 . S
C77 H76 0.949 . S
C77 C78 1.395 . S
C77 C79 1.391 . S
C78 C77 1.395 . S
C78 C81 1.390 . S
C79 C77 1.391 . S
C79 C83 1.387 . S
C79 C84 1.491 . S
H80 C81 0.950 . S
C81 C78 1.390 . S
C81 H80 0.950 . S
C81 C82 1.378 . S
C82 C81 1.378 . S
C82 C83 1.409 . S
C83 C79 1.387 . S
C83 C82 1.409 . S
C83 H85 0.951 . S
C84 C79 1.491 . S
C84 C86 1.382 . S
C84 C88 1.404 . S
H85 C83 0.951 . S
C86 C84 1.382 . S
C86 C87 1.390 . S
C86 H91 0.949 . S
C87 C86 1.390 . S
C87 C92 1.399 . S
C88 C84 1.404 . S
C88 H89 0.950 . S
C88 C90 1.375 . S
H89 C88 0.950 . S
C90 C88 1.375 . S
C90 C92 1.382 . S
C90 H94 0.950 . S
H91 C86 0.949 . S
C92 C87 1.399 . S
C92 C90 1.382 . S
C92 H93 0.952 1_565 S
H93 C92 0.952 1_545 S
H94 C90 0.950 . S
H95 C96 0.949 . S
C96 H95 0.949 . S
C96 C97 1.395 . S
C96 C98 1.391 . S
C97 C96 1.395 . S
C97 C100 1.390 . S
C98 C96 1.391 . S
C98 C102 1.387 . S
C98 C103 1.491 . S
H99 C100 0.950 . S
C100 C97 1.390 . S
C100 H99 0.950 . S
C100 C101 1.378 . S
C101 C100 1.378 . S
C101 C102 1.409 . S
C102 C98 1.387 . S
C102 C101 1.409 . S
C102 H104 0.951 . S
C103 C98 1.491 . S
C103 C105 1.382 . S
C103 C107 1.404 . S
H104 C102 0.951 . S
C105 C103 1.382 . S
C105 C106 1.390 . S
C105 H110 0.949 . S
C106 C105 1.390 . S
C106 C111 1.399 . S
C107 C103 1.404 . S
C107 H108 0.950 . S
C107 C109 1.375 . S
H108 C107 0.950 . S
C109 C107 1.375 . S
C109 C111 1.382 . S
C109 H113 0.950 . S
H110 C105 0.949 . S
C111 C106 1.399 . S
C111 C109 1.382 . S
C111 H112 0.952 . S
H112 C111 0.952 . S
H113 C109 0.950 . S
H114 C115 0.949 . S
C115 H114 0.949 . S
C115 C116 1.395 . S
C115 C117 1.391 . S
C116 C115 1.395 . S
C116 C119 1.390 . S
C117 C115 1.391 . S
C117 C121 1.387 . S
C117 C122 1.491 . S
H118 C119 0.950 . S
C119 C116 1.390 . S
C119 H118 0.950 . S
C119 C120 1.378 . S
C120 C119 1.378 . S
C120 C121 1.409 . S
C121 C117 1.387 . S
C121 C120 1.409 . S
C121 H123 0.951 . S
C122 C117 1.491 . S
C122 C124 1.382 . S
C122 C126 1.404 . S
H123 C121 0.951 . S
C124 C122 1.382 . S
C124 C125 1.390 . S
C124 H129 0.949 . S
C125 C124 1.390 . S
C125 C130 1.399 . S
C126 C122 1.404 . S
C126 H127 0.950 . S
C126 C128 1.375 . S
H127 C126 0.950 . S
C128 C126 1.375 . S
C128 C130 1.382 . S
C128 H132 0.950 . S
H129 C124 0.949 . S
C130 C125 1.399 . S
C130 C128 1.382 . S
C130 H131 0.952 . S
H131 C130 0.952 . S
H132 C128 0.950 . S
H133 C134 0.949 . S
C134 H133 0.949 . S
C134 C135 1.395 . S
C134 C136 1.391 . S
C135 C134 1.395 . S
C135 C138 1.390 . S
C136 C134 1.391 . S
C136 C140 1.387 . S
C136 C141 1.491 . S
H137 C138 0.950 . S
C138 C135 1.390 . S
C138 H137 0.950 . S
C138 C139 1.378 . S
C139 C138 1.378 . S
C139 C140 1.409 . S
C140 C136 1.387 . S
C140 C139 1.409 . S
C140 H142 0.951 . S
C141 C136 1.491 . S
C141 C143 1.382 . S
C141 C145 1.404 . S
H142 C140 0.951 . S
C143 C141 1.382 . S
C143 C144 1.390 . S
C143 H148 0.949 . S
C144 C143 1.390 . S
C144 C149 1.399 . S
C145 C141 1.404 . S
C145 H146 0.950 . S
C145 C147 1.375 . S
H146 C145 0.950 . S
C147 C145 1.375 . S
C147 C149 1.382 . S
C147 H151 0.950 . S
H148 C143 0.949 . S
C149 C144 1.399 . S
C149 C147 1.382 . S
C149 H150 0.952 . S
H150 C149 0.952 . S
H151 C147 0.950 . S
C152 O168 1.251 . S
C152 O170 1.254 . S
N153 C154 1.333 . S
N153 C158 1.307 . S
N153 Zn159 2.020 . S
C154 N153 1.333 . S
C154 C155 1.379 . S
C154 H172 0.952 . S
C155 C154 1.379 . S
C155 C156 1.390 . S
C155 H182 0.949 . S
C156 C155 1.390 . S
C156 C157 1.357 . S
C157 C156 1.357 . S
C157 C158 1.370 . S
C157 H183 0.950 . S
C158 N153 1.307 . S
C158 C157 1.370 . S
C158 H176 0.948 1_455 S
Zn159 N153 2.020 . S
Zn159 O168 2.039 . S
Zn159 O174 2.034 . S
Zn159 O178 2.025 1_455 S
Zn159 O180 2.024 1_455 S
C160 O179 1.246 . S
C160 O180 1.249 . S
N161 C162 1.307 . S
N161 C163 1.333 . S
N161 Zn167 2.020 1_565 S
C162 N161 1.307 . S
C162 C166 1.370 . S
C162 H173 0.948 1_655 S
C163 N161 1.333 . S
C163 C164 1.379 . S
C163 H171 0.952 . S
C164 C163 1.379 . S
C164 C165 1.390 . S
C164 H184 0.949 . S
C165 C164 1.390 . S
C165 C166 1.357 . S
C166 C162 1.370 . S
C166 C165 1.357 . S
C166 H185 0.950 . S
Zn167 N161 2.020 1_545 S
Zn167 O170 2.025 1_655 S
Zn167 O175 2.020 1_645 S
Zn167 O177 2.039 . S
Zn167 O179 2.034 . S
O168 C152 1.251 . S
O168 Zn159 2.039 . S
C169 O174 1.246 . S
C169 O175 1.238 1_545 S
O170 C152 1.254 . S
O170 Zn167 2.025 1_455 S
H171 C163 0.952 . S
H172 C154 0.952 . S
H173 C162 0.948 1_455 S
O174 Zn159 2.034 . S
O174 C169 1.246 . S
O175 Zn167 2.020 1_465 S
O175 C169 1.238 1_565 S
H176 C158 0.948 1_655 S
O177 Zn167 2.039 . S
O177 C181 1.251 . S
O178 Zn159 2.025 1_655 S
O178 C181 1.254 . S
O179 C160 1.246 . S
O179 Zn167 2.034 . S
O180 Zn159 2.024 1_655 S
O180 C160 1.249 . S
C181 O177 1.251 . S
C181 O178 1.254 . S
H182 C155 0.949 . S
H183 C157 0.950 . S
H184 C164 0.949 . S
H185 C166 0.950 . S
C186 O202 1.251 . S
C186 O204 1.254 1_545 S
N187 C188 1.333 . S
N187 C192 1.307 . S
N187 Zn193 2.020 . S
C188 N187 1.333 . S
C188 C189 1.379 . S
C188 H206 0.952 . S
C189 C188 1.379 . S
C189 C190 1.390 1_554 S
C189 H216 0.949 . S
C190 C189 1.390 1_556 S
C190 C191 1.357 . S
C191 C190 1.357 . S
C191 C192 1.370 1_556 S
C191 H217 0.950 . S
C192 N187 1.307 . S
C192 C191 1.370 1_554 S
C192 H210 0.948 . S
Zn193 N187 2.020 . S
Zn193 O202 2.039 . S
Zn193 O208 2.034 . S
Zn193 O212 2.025 . S
Zn193 O214 2.024 1_554 S
C194 O213 1.246 1_556 S
C194 O214 1.249 . S
N195 C196 1.307 . S
N195 C197 1.333 . S
N195 Zn201 2.020 1_565 S
C196 N195 1.307 . S
C196 C200 1.370 . S
C196 H207 0.948 . S
C197 N195 1.333 . S
C197 C198 1.379 . S
C197 H205 0.952 . S
C198 C197 1.379 . S
C198 C199 1.390 . S
C198 H218 0.949 . S
C199 C198 1.390 . S
C199 C200 1.357 . S
C200 C196 1.370 . S
C200 C199 1.357 . S
C200 H219 0.950 . S
Zn201 N195 2.020 1_545 S
Zn201 O204 2.025 1_545 S
Zn201 O209 2.024 . S
Zn201 O211 2.039 . S
Zn201 O213 2.034 . S
O202 C186 1.251 . S
O202 Zn193 2.039 . S
C203 O208 1.246 . S
C203 O209 1.249 . S
O204 C186 1.254 1_565 S
O204 Zn201 2.025 1_565 S
H205 C197 0.952 . S
H206 C188 0.952 . S
H207 C196 0.948 . S
O208 Zn193 2.034 . S
O208 C203 1.246 . S
O209 Zn201 2.024 . S
O209 C203 1.249 . S
H210 C192 0.948 . S
O211 Zn201 2.039 . S
O211 C215 1.251 . S
O212 Zn193 2.025 . S
O212 C215 1.254 . S
O213 C194 1.246 1_554 S
O213 Zn201 2.034 . S
O214 Zn193 2.024 1_556 S
O214 C194 1.249 . S
C215 O211 1.251 . S
C215 O212 1.254 . S
H216 C189 0.949 . S
H217 C191 0.950 . S
H218 C198 0.949 . S
H219 C200 0.950 . S
C220 O236 1.251 . S
C220 O238 1.254 . S
N221 C222 1.333 . S
N221 C226 1.307 . S
N221 Zn227 2.020 . S
C222 N221 1.333 . S
C222 C223 1.379 . S
C222 H240 0.952 . S
C223 C222 1.379 . S
C223 C224 1.390 . S
C223 H250 0.949 . S
C224 C223 1.390 . S
C224 C225 1.357 . S
C225 C224 1.357 . S
C225 C226 1.370 . S
C225 H251 0.950 . S
C226 N221 1.307 . S
C226 C225 1.370 . S
C226 H244 0.948 . S
Zn227 N221 2.020 . S
Zn227 O236 2.039 . S
Zn227 O242 2.034 . S
Zn227 O246 2.025 . S
Zn227 O248 2.024 . S
C228 O247 1.246 . S
C228 O248 1.249 . S
N229 C230 1.307 . S
N229 C231 1.333 . S
N229 Zn235 2.020 . S
C230 N229 1.307 . S
C230 C234 1.370 . S
C230 H241 0.948 . S
C231 N229 1.333 . S
C231 C232 1.379 . S
C231 H239 0.952 . S
C232 C231 1.379 . S
C232 C233 1.390 . S
C232 H252 0.949 . S
C233 C232 1.390 . S
C233 C234 1.357 . S
C234 C230 1.370 . S
C234 C233 1.357 . S
C234 H253 0.950 . S
Zn235 N229 2.020 . S
Zn235 O238 2.025 . S
Zn235 O243 2.024 . S
Zn235 O245 2.039 . S
Zn235 O247 2.034 . S
O236 C220 1.251 . S
O236 Zn227 2.039 . S
C237 O242 1.246 . S
C237 O243 1.249 . S
O238 C220 1.254 . S
O238 Zn235 2.025 . S
H239 C231 0.952 . S
H240 C222 0.952 . S
H241 C230 0.948 . S
O242 Zn227 2.034 . S
O242 C237 1.246 . S
O243 Zn235 2.024 . S
O243 C237 1.249 . S
H244 C226 0.948 . S
O245 Zn235 2.039 . S
O245 C249 1.251 . S
O246 Zn227 2.025 . S
O246 C249 1.254 . S
O247 C228 1.246 . S
O247 Zn235 2.034 . S
O248 Zn227 2.024 . S
O248 C228 1.249 . S
C249 O245 1.251 . S
C249 O246 1.254 . S
H250 C223 0.949 . S
H251 C225 0.950 . S
H252 C232 0.949 . S
H253 C234 0.950 . S
C254 O270 1.251 1_556 S
C254 O272 1.254 1_655 S
N255 C256 1.333 . S
N255 C260 1.307 . S
N255 Zn261 2.020 . S
C256 N255 1.333 . S
C256 C257 1.379 . S
C256 H274 0.952 . S
C257 C256 1.379 . S
C257 C258 1.390 . S
C257 H284 0.949 . S
C258 C257 1.390 . S
C258 C259 1.357 . S
C259 C258 1.357 . S
C259 C260 1.370 . S
C259 H285 0.950 . S
C260 N255 1.307 . S
C260 C259 1.370 . S
C260 H278 0.948 . S
Zn261 N255 2.020 . S
Zn261 O270 2.039 . S
Zn261 O276 2.034 1_655 S
Zn261 O280 2.025 1_655 S
Zn261 O282 2.024 . S
C262 O281 1.246 . S
C262 O282 1.249 1_556 S
N263 C264 1.307 . S
N263 C265 1.333 . S
N263 Zn269 2.020 . S
C264 N263 1.307 . S
C264 C268 1.370 . S
C264 H275 0.948 . S
C265 N263 1.333 . S
C265 C266 1.379 . S
C265 H273 0.952 . S
C266 C265 1.379 . S
C266 C267 1.390 . S
C266 H286 0.949 . S
C267 C266 1.390 . S
C267 C268 1.357 . S
C268 C264 1.370 . S
C268 C267 1.357 . S
C268 H287 0.950 . S
Zn269 N263 2.020 . S
Zn269 O272 2.025 . S
Zn269 O277 2.034 . S
Zn269 O279 2.039 . S
Zn269 O281 2.034 1_455 S
O270 C254 1.251 1_554 S
O270 Zn261 2.039 . S
C271 O276 1.246 . S
C271 O277 1.228 1_554 S
O272 C254 1.254 1_455 S
O272 Zn269 2.025 . S
H273 C265 0.952 . S
H274 C256 0.952 . S
H275 C264 0.948 . S
O276 Zn261 2.034 1_455 S
O276 C271 1.246 . S
O277 Zn269 2.034 . S
O277 C271 1.228 1_556 S
H278 C260 0.948 . S
O279 Zn269 2.039 . S
O279 C283 1.251 1_556 S
O280 Zn261 2.025 1_455 S
O280 C283 1.254 . S
O281 C262 1.246 . S
O281 Zn269 2.034 1_655 S
O282 Zn261 2.024 . S
O282 C262 1.249 1_554 S
C283 O279 1.251 1_554 S
C283 O280 1.254 . S
H284 C257 0.949 . S
H285 C259 0.950 . S
H286 C266 0.949 . S
H287 C268 0.950 . S
C288 C289 1.387 . S
C288 H292 0.950 . S
C288 C297 1.390 . S
C289 C288 1.387 . S
C289 C291 1.387 . S
H290 C297 0.950 . S
C291 C289 1.387 . S
C291 C293 1.390 . S
C291 H295 0.950 . S
H292 C288 0.950 . S
C293 C291 1.390 . S
C293 C294 1.387 . S
C293 H296 0.950 . S
C294 C293 1.387 . S
C294 C297 1.387 . S
H295 C291 0.950 . S
H296 C293 0.950 . S
C297 C288 1.390 . S
C297 H290 0.950 . S
C297 C294 1.387 . S
C298 C299 1.387 . S
C298 H302 0.950 1_565 S
C298 C307 1.390 1_565 S
C299 C298 1.387 . S
C299 C301 1.387 . S
H300 C307 0.950 . S
C301 C299 1.387 . S
C301 C303 1.390 . S
C301 H305 0.950 . S
H302 C298 0.950 1_545 S
C303 C301 1.390 . S
C303 C304 1.387 1_565 S
C303 H306 0.950 . S
C304 C303 1.387 1_545 S
C304 C307 1.387 . S
H305 C301 0.950 . S
H306 C303 0.950 . S
C307 C298 1.390 1_545 S
C307 H300 0.950 . S
C307 C304 1.387 . S
C308 C309 1.387 . S
C308 H312 0.950 . S
C308 C317 1.390 . S
C309 C308 1.387 . S
C309 C311 1.387 . S
H310 C317 0.950 . S
C311 C309 1.387 . S
C311 C313 1.390 . S
C311 H315 0.950 . S
H312 C308 0.950 . S
C313 C311 1.390 . S
C313 C314 1.387 . S
C313 H316 0.950 . S
C314 C313 1.387 . S
C314 C317 1.387 . S
H315 C311 0.950 . S
H316 C313 0.950 . S
C317 C308 1.390 . S
C317 H310 0.950 . S
C317 C314 1.387 . S
C318 C319 1.387 . S
C318 H322 0.950 . S
C318 C327 1.390 . S
C319 C318 1.387 . S
C319 C321 1.387 . S
H320 C327 0.950 . S
C321 C319 1.387 . S
C321 C323 1.390 . S
C321 H325 0.950 . S
H322 C318 0.950 . S
C323 C321 1.390 . S
C323 C324 1.387 . S
C323 H326 0.950 . S
C324 C323 1.387 . S
C324 C327 1.387 . S
H325 C321 0.950 . S
H326 C323 0.950 . S
C327 C318 1.390 . S
C327 H320 0.950 . S
C327 C324 1.387 . S
C328 C329 1.387 . S
C328 H332 0.950 . S
C328 C337 1.390 . S
C329 C328 1.387 . S
C329 C331 1.387 . S
H330 C337 0.950 . S
C331 C329 1.387 . S
C331 C333 1.390 . S
C331 H335 0.950 . S
H332 C328 0.950 . S
C333 C331 1.390 . S
C333 C334 1.387 . S
C333 H336 0.950 . S
C334 C333 1.387 . S
C334 C337 1.387 . S
H335 C331 0.950 . S
H336 C333 0.950 . S
C337 C328 1.390 . S
C337 H330 0.950 . S
C337 C334 1.387 . S
C338 C339 1.387 1_565 S
C338 H342 0.950 . S
C338 C347 1.390 . S
C339 C338 1.387 1_545 S
C339 C341 1.387 . S
H340 C347 0.950 . S
C341 C339 1.387 . S
C341 C343 1.390 . S
C341 H345 0.950 . S
H342 C338 0.950 . S
C343 C341 1.390 . S
C343 C344 1.387 . S
C343 H346 0.950 . S
C344 C343 1.387 . S
C344 C347 1.387 1_545 S
H345 C341 0.950 . S
H346 C343 0.950 . S
C347 C338 1.390 . S
C347 H340 0.950 . S
C347 C344 1.387 1_565 S
C348 C349 1.387 . S
C348 H352 0.950 . S
C348 C357 1.390 . S
C349 C348 1.387 . S
C349 C351 1.387 1_556 S
H350 C357 0.950 . S
C351 C349 1.387 1_554 S
C351 C353 1.390 . S
C351 H355 0.950 . S
H352 C348 0.950 . S
C353 C351 1.390 . S
C353 C354 1.387 1_554 S
C353 H356 0.950 . S
C354 C353 1.387 1_556 S
C354 C357 1.387 . S
H355 C351 0.950 . S
H356 C353 0.950 . S
C357 C348 1.390 . S
C357 H350 0.950 . S
C357 C354 1.387 . S
C358 C359 1.387 . S
C358 H362 0.950 . S
C358 C367 1.390 . S
C359 C358 1.387 . S
C359 C361 1.387 . S
H360 C367 0.950 . S
C361 C359 1.387 . S
C361 C363 1.390 . S
C361 H365 0.950 . S
H362 C358 0.950 . S
C363 C361 1.390 . S
C363 C364 1.387 . S
C363 H366 0.950 . S
C364 C363 1.387 . S
C364 C367 1.387 . S
H365 C361 0.950 . S
H366 C363 0.950 . S
C367 C358 1.390 . S
C367 H360 0.950 . S
C367 C364 1.387 . S
C368 C369 1.387 . S
C368 H372 0.950 . S
C368 C377 1.390 . S
C369 C368 1.387 . S
C369 C371 1.387 . S
H370 C377 0.950 1_556 S
C371 C369 1.387 . S
C371 C373 1.390 . S
C371 H375 0.950 . S
H372 C368 0.950 . S
C373 C371 1.390 . S
C373 C374 1.387 . S
C373 H376 0.950 . S
C374 C373 1.387 . S
C374 C377 1.387 . S
H375 C371 0.950 . S
H376 C373 0.950 . S
C377 C368 1.390 . S
C377 H370 0.950 1_554 S
C377 C374 1.387 . S
C378 C379 1.387 1_556 S
C378 H382 0.950 . S
C378 C387 1.390 . S
C379 C378 1.387 1_554 S
C379 C381 1.387 . S
H380 C387 0.950 . S
C381 C379 1.387 . S
C381 C383 1.390 . S
C381 H385 0.950 . S
H382 C378 0.950 . S
C383 C381 1.390 . S
C383 C384 1.387 1_554 S
C383 H386 0.950 . S
C384 C383 1.387 1_556 S
C384 C387 1.387 . S
H385 C381 0.950 . S
H386 C383 0.950 . S
C387 C378 1.390 . S
C387 H380 0.950 . S
C387 C384 1.387 . S
C388 C389 1.387 . S
C388 H392 0.950 . S
C388 C397 1.390 . S
C389 C388 1.387 . S
C389 C391 1.387 . S
H390 C397 0.950 . S
C391 C389 1.387 . S
C391 C393 1.390 . S
C391 H395 0.950 . S
H392 C388 0.950 . S
C393 C391 1.390 . S
C393 C394 1.387 . S
C393 H396 0.950 . S
C394 C393 1.387 . S
C394 C397 1.387 . S
H395 C391 0.950 . S
H396 C393 0.950 . S
C397 C388 1.390 . S
C397 H390 0.950 . S
C397 C394 1.387 . S
C398 C399 1.387 . S
C398 H402 0.950 . S
C398 C407 1.390 . S
C399 C398 1.387 . S
C399 C401 1.387 . S
H400 C407 0.950 . S
C401 C399 1.387 . S
C401 C403 1.390 . S
C401 H405 0.950 . S
H402 C398 0.950 . S
C403 C401 1.390 . S
C403 C404 1.387 . S
C403 H406 0.950 . S
C404 C403 1.387 . S
C404 C407 1.387 . S
H405 C401 0.950 . S
H406 C403 0.950 . S
C407 C398 1.390 . S
C407 H400 0.950 . S
C407 C404 1.387 . S
C408 C409 1.387 1_545 S
C408 H412 0.950 . S
C408 C417 1.390 . S
C409 C408 1.387 1_565 S
C409 C411 1.387 . S
H410 C417 0.950 . S
C411 C409 1.387 . S
C411 C413 1.390 . S
C411 H415 0.950 . S
H412 C408 0.950 . S
C413 C411 1.390 . S
C413 C414 1.387 1_565 S
C413 H416 0.950 . S
C414 C413 1.387 1_545 S
C414 C417 1.387 . S
H415 C411 0.950 . S
H416 C413 0.950 . S
C417 C408 1.390 . S
C417 H410 0.950 . S
C417 C414 1.387 . S
C418 C419 1.387 . S
C418 H422 0.950 . S
C418 C427 1.390 . S
C419 C418 1.387 . S
C419 C421 1.387 . S
H420 C427 0.950 . S
C421 C419 1.387 . S
C421 C423 1.390 . S
C421 H425 0.950 . S
H422 C418 0.950 . S
C423 C421 1.390 . S
C423 C424 1.387 . S
C423 H426 0.950 . S
C424 C423 1.387 . S
C424 C427 1.387 . S
H425 C421 0.950 . S
H426 C423 0.950 . S
C427 C418 1.390 . S
C427 H420 0.950 . S
C427 C424 1.387 . S
C428 C429 1.387 . S
C428 H432 0.950 . S
C428 C437 1.390 . S
C429 C428 1.387 . S
C429 C431 1.387 . S
H430 C437 0.950 . S
C431 C429 1.387 . S
C431 C433 1.390 . S
C431 H435 0.950 . S
H432 C428 0.950 . S
C433 C431 1.390 . S
C433 C434 1.387 . S
C433 H436 0.950 . S
C434 C433 1.387 . S
C434 C437 1.387 . S
H435 C431 0.950 . S
H436 C433 0.950 . S
C437 C428 1.390 . S
C437 H430 0.950 . S
C437 C434 1.387 . S
C438 C439 1.387 . S
C438 H442 0.950 . S
C438 C447 1.390 . S
C439 C438 1.387 . S
C439 C441 1.387 . S
H440 C447 0.950 . S
C441 C439 1.387 . S
C441 C443 1.390 . S
C441 H445 0.950 . S
H442 C438 0.950 . S
C443 C441 1.390 . S
C443 C444 1.387 . S
C443 H446 0.950 . S
C444 C443 1.387 . S
C444 C447 1.387 . S
H445 C441 0.950 . S
H446 C443 0.950 . S
C447 C438 1.390 . S
C447 H440 0.950 . S
C447 C444 1.387 . S
C448 C449 1.378 1_565 S
C448 H452 0.950 1_556 S
C448 C457 1.390 1_556 S
C449 C448 1.378 1_545 S
C449 C451 1.402 . S
H450 C457 0.950 . S
C451 C449 1.402 . S
C451 C453 1.390 . S
C451 H455 0.950 . S
H452 C448 0.950 1_554 S
C453 C451 1.390 . S
C453 C454 1.387 1_556 S
C453 H456 0.950 . S
C454 C453 1.387 1_554 S
C454 C457 1.387 1_545 S
H455 C451 0.950 . S
H456 C453 0.950 . S
C457 C448 1.390 1_554 S
C457 H450 0.950 . S
C457 C454 1.387 1_565 S
C458 C459 1.387 . S
C458 H462 0.950 . S
C458 C467 1.390 . S
C459 C458 1.387 . S
C459 C461 1.387 . S
H460 C467 0.950 . S
C461 C459 1.387 . S
C461 C463 1.390 . S
C461 H465 0.950 . S
H462 C458 0.950 . S
C463 C461 1.390 . S
C463 C464 1.387 . S
C463 H466 0.950 . S
C464 C463 1.387 . S
C464 C467 1.387 . S
H465 C461 0.950 . S
H466 C463 0.950 . S
C467 C458 1.390 . S
C467 H460 0.950 . S
C467 C464 1.387 . S
C468 C469 1.387 . S
C468 H472 0.950 . S
C468 C477 1.390 . S
C469 C468 1.387 . S
C469 C471 1.387 . S
H470 C477 0.950 . S
C471 C469 1.387 . S
C471 C473 1.390 . S
C471 H475 0.950 . S
H472 C468 0.950 . S
C473 C471 1.390 . S
C473 C474 1.387 . S
C473 H476 0.950 . S
C474 C473 1.387 . S
C474 C477 1.387 . S
H475 C471 0.950 . S
H476 C473 0.950 . S
C477 C468 1.390 . S
C477 H470 0.950 . S
C477 C474 1.387 . S
C478 C479 1.387 . S
C478 H482 0.950 . S
C478 C487 1.390 . S
C479 C478 1.387 . S
C479 C481 1.387 . S
H480 C487 0.950 . S
C481 C479 1.387 . S
C481 C483 1.390 . S
C481 H485 0.950 . S
H482 C478 0.950 . S
C483 C481 1.390 . S
C483 C484 1.387 . S
C483 H486 0.950 . S
C484 C483 1.387 . S
C484 C487 1.387 . S
H485 C481 0.950 . S
H486 C483 0.950 . S
C487 C478 1.390 . S
C487 H480 0.950 . S
C487 C484 1.387 . S
C488 C489 1.387 . S
C488 H492 0.950 . S
C488 C497 1.390 . S
C489 C488 1.387 . S
C489 C491 1.387 . S
H490 C497 0.950 1_455 S
C491 C489 1.387 . S
C491 C493 1.390 . S
C491 H495 0.950 . S
H492 C488 0.950 . S
C493 C491 1.390 . S
C493 C494 1.387 . S
C493 H496 0.925 1_556 S
C494 C493 1.387 . S
C494 C497 1.387 . S
H495 C491 0.950 . S
H496 C493 0.925 1_554 S
C497 C488 1.390 . S
C497 H490 0.950 1_655 S
C497 C494 1.387 . S
C498 C499 1.387 . S
C498 H502 0.950 . S
C498 C507 1.390 . S
C499 C498 1.387 . S
C499 C501 1.387 . S
H500 C507 0.950 . S
C501 C499 1.387 . S
C501 C503 1.390 . S
C501 H505 0.950 . S
H502 C498 0.950 . S
C503 C501 1.390 . S
C503 C504 1.387 . S
C503 H506 0.950 . S
C504 C503 1.387 . S
C504 C507 1.387 . S
H505 C501 0.950 . S
H506 C503 0.950 . S
C507 C498 1.390 . S
C507 H500 0.950 . S
C507 C504 1.387 . S
C508 C509 1.387 . S
C508 H512 0.950 . S
C508 C517 1.390 . S
C509 C508 1.387 . S
C509 C511 1.387 . S
H510 C517 0.950 . S
C511 C509 1.387 . S
C511 C513 1.390 . S
C511 H515 0.950 . S
H512 C508 0.950 . S
C513 C511 1.390 . S
C513 C514 1.387 . S
C513 H516 0.950 . S
C514 C513 1.387 . S
C514 C517 1.387 . S
H515 C511 0.950 . S
H516 C513 0.950 . S
C517 C508 1.390 . S
C517 H510 0.950 . S
C517 C514 1.387 . S
C518 C519 1.387 . S
C518 H522 0.950 . S
C518 C527 1.390 . S
C519 C518 1.387 . S
C519 C521 1.387 . S
H520 C527 0.950 . S
C521 C519 1.387 . S
C521 C523 1.390 . S
C521 H525 0.950 . S
H522 C518 0.950 . S
C523 C521 1.390 . S
C523 C524 1.387 . S
C523 H526 0.950 . S
C524 C523 1.387 . S
C524 C527 1.387 . S
H525 C521 0.950 . S
H526 C523 0.950 . S
C527 C518 1.390 . S
C527 H520 0.950 . S
C527 C524 1.387 . S
C289 C6 2.593 . S
C294 C152 2.618 . S
C299 C21 2.829 . S
C304 C194 2.840 . S
C314 C224 0.722 . S
C309 C49 0.723 . S
C319 C68 0.945 . S
C324 C258 1.024 . S
C334 C215 2.425 . S
C329 C2 2.409 . S
C344 C169 1.688 . S
C339 C30 1.432 1_545 S
C354 C262 1.102 . S
C349 C40 1.105 . S
C364 C228 1.064 . S
C359 C63 1.040 . S
C369 C11 1.969 . S
C374 C283 2.196 . S
C384 C190 1.367 . S
C379 C44 1.328 1_554 S
C389 C59 1.011 . S
C394 C165 1.022 . S
C399 C25 2.469 . S
C404 C249 2.502 . S
C414 C181 2.769 . S
C409 C82 2.741 . S
C419 C101 2.560 . S
C424 C203 2.576 . S
C429 C125 1.010 . S
C434 C233 0.975 . S
C439 C144 0.766 . S
C444 C267 0.808 . S
C449 C87 1.506 1_545 S
C454 C186 1.668 . S
C464 C160 2.400 . S
C459 C97 2.387 . S
C474 C271 0.987 . S
C469 C120 0.971 . S
C484 C237 1.204 . S
C479 C135 1.196 . S
C489 C78 2.580 . S
C494 C254 2.578 . S
C504 C199 0.993 . S
C499 C116 0.995 . S
C514 C156 1.359 . S
C509 C139 1.297 . S
C519 C106 2.058 . S
C524 C220 2.172 . S
