# Generated by pormake.
# Topology tsx, (6,3)-cn, num edge types: 1
# Building blocks:
#     Node 0, Type 0, BuildingBlock: LEVNOQ01_clean_sbu_1, # of connection points: 6
#     Node 1, Type 0, BuildingBlock: LEVNOQ01_clean_sbu_1, # of connection points: 6
#     Node 2, Type 1, BuildingBlock: CUQRIR_clean_linker_1, # of connection points: 3
#     Node 3, Type 1, BuildingBlock: CUQRIR_clean_linker_1, # of connection points: 3
#     Node 4, Type 1, BuildingBlock: CUQRIR_clean_linker_1, # of connection points: 3
#     Node 5, Type 1, BuildingBlock: CUQRIR_clean_linker_1, # of connection points: 3
#     Edge 6, Type (0, 1), BuildingBlock: CIFDUS_clean_linker_0, # of connection points: 2
#     Edge 7, Type (0, 1), BuildingBlock: CIFDUS_clean_linker_0, # of connection points: 2
#     Edge 8, Type (0, 1), BuildingBlock: CIFDUS_clean_linker_0, # of connection points: 2
#     Edge 9, Type (0, 1), BuildingBlock: CIFDUS_clean_linker_0, # of connection points: 2
#     Edge 10, Type (0, 1), BuildingBlock: CIFDUS_clean_linker_0, # of connection points: 2
#     Edge 11, Type (0, 1), BuildingBlock: CIFDUS_clean_linker_0, # of connection points: 2
#     Edge 12, Type (0, 1), BuildingBlock: CIFDUS_clean_linker_0, # of connection points: 2
#     Edge 13, Type (0, 1), BuildingBlock: CIFDUS_clean_linker_0, # of connection points: 2
#     Edge 14, Type (0, 1), BuildingBlock: CIFDUS_clean_linker_0, # of connection points: 2
#     Edge 15, Type (0, 1), BuildingBlock: CIFDUS_clean_linker_0, # of connection points: 2
#     Edge 16, Type (0, 1), BuildingBlock: CIFDUS_clean_linker_0, # of connection points: 2
#     Edge 17, Type (0, 1), BuildingBlock: CIFDUS_clean_linker_0, # of connection points: 2
# Relax obj value: 0.162
# Max RMSD: 0.175
# Mean RMSD: 0.162
data_MOF--net-tsx--node1-LEVNOQ01_clean_sbu_1--node2-CUQRIR_clean_linker_1--edge1-CIFDUS_clean_linker_0
_symmetry_space_group_name_H-M    P1
_symmetry_Int_Tables_number       1
_symmetry_cell_setting            triclinic
loop_
_symmetry_equiv_pos_as_xyz
'x, y, z'
_cell_length_a     14.724714
_cell_length_b     17.657239
_cell_length_c     29.463395
_cell_angle_alpha  85.612731
_cell_angle_beta   91.296059
_cell_angle_gamma 90.809912
loop_
_atom_site_label
_atom_site_type_symbol
_atom_site_fract_x
_atom_site_fract_y
_atom_site_fract_z
_atom_type_partial_charge
O0 O 0.25111 0.09084 0.0814 0.0
Mg1 Mg 0.28579 0.11761 0.01297 0.0
O2 O 0.10843 0.0768 0.05892 0.0
Mg3 Mg 0.10994 0.09175 -0.0202 0.0
O4 O 0.20928 0.20061 -0.0236 0.0
O5 O 0.35221 0.21625 0.00369 0.0
O6 O 0.11973 0.11474 0.89989 0.0
O7 O 0.99143 0.17603 -0.02449 0.0
Mg8 Mg 0.01203 0.01914 0.92839 0.0
O9 O 1.00564 0.98683 -0.0051 0.0
O10 O 0.12393 0.99588 0.88766 0.0
O11 O 0.93261 0.11958 0.91656 0.0
O12 O 0.93443 0.92466 0.94022 0.0
C13 C 0.29931 0.98526 -0.03095 0.0
C14 C 0.16895 0.07613 0.09061 0.0
C15 C 0.28145 0.24324 -0.01807 0.0
C16 C 0.13997 0.06381 0.8738 0.0
C17 C 0.93263 0.17343 0.94293 0.0
C18 C 0.95082 0.93317 -0.01729 0.0
O19 O 0.35412 0.03692 -0.02086 0.0
O20 O 0.21448 0.99496 -0.02714 0.0
O21 O 0.65789 0.47088 0.56345 0.0
Mg22 Mg 0.69489 0.53223 0.50163 0.0
O23 O 0.51719 0.50661 0.55027 0.0
Mg24 Mg 0.54347 0.53305 0.47321 0.0
O25 O 0.6442 0.63852 0.48855 0.0
O26 O 0.78113 0.61355 0.52051 0.0
O27 O 0.58985 0.56983 0.39815 0.0
O28 O 0.43514 0.63008 0.46713 0.0
Mg29 Mg 0.45649 0.4929 0.40733 0.0
O30 O 0.42404 0.43988 0.46824 0.0
O31 O 0.56909 0.46151 0.36944 0.0
O32 O 0.39949 0.60365 0.397 0.0
O33 O 0.35122 0.42021 0.40201 0.0
C34 C 0.71651 0.41766 0.45354 0.0
C35 C 0.57794 0.47742 0.57749 0.0
C36 C 0.72066 0.66202 0.50605 0.0
C37 C 0.60631 0.52635 0.36696 0.0
C38 C 0.39131 0.64591 0.42961 0.0
C39 C 0.35867 0.40819 0.44563 0.0
O40 O 0.76316 0.47789 0.45202 0.0
O41 O 0.63657 0.41989 0.46935 0.0
C42 C 0.93911 0.96464 0.39986 0.0
N43 N 0.98444 0.93215 0.36688 0.0
N44 N 0.8791 0.01676 0.3815 0.0
C45 C 0.949 0.94239 0.4497 0.0
C46 C 0.88859 0.01378 0.33618 0.0
N47 N 0.9513 0.96212 0.32726 0.0
C48 C 0.84409 0.06773 0.30058 0.0
H49 H 0.88592 0.95529 0.46696 0.0
H50 H 1.00625 0.9746 0.46427 0.0
H51 H 0.96317 0.88084 0.45568 0.0
H52 H 0.89531 0.11007 0.28736 0.0
H53 H 0.78671 0.09788 0.31461 0.0
H54 H 0.81843 0.03647 0.27158 0.0
C55 C 0.94734 0.11456 0.55597 0.0
N56 N 0.99671 0.15726 0.58403 0.0
N57 N 0.895 0.06251 0.57987 0.0
C58 C 0.96222 0.1144 0.50583 0.0
C59 C 0.91332 0.07669 0.62364 0.0
N60 N 0.97545 0.13341 0.62628 0.0
C61 C 0.88065 0.02704 0.66393 0.0
H62 H 0.95569 0.17247 0.48927 0.0
H63 H 0.91141 0.07754 0.49015 0.0
H64 H 0.0318 0.09448 0.49996 0.0
H65 H 0.93016 0.98094 0.67218 0.0
H66 H 0.8138 1.00077 0.65597 0.0
H67 H 0.87512 0.06044 0.69415 0.0
C68 C 0.61565 0.59277 0.89863 0.0
N69 N 0.6371 0.53595 0.8728 0.0
N70 N 0.55531 0.63983 0.87639 0.0
C71 C 0.65228 0.60151 0.94595 0.0
C72 C 0.5401 0.60966 0.83608 0.0
N73 N 0.5891 0.54545 0.83396 0.0
C74 C 0.48738 0.64894 0.79682 0.0
H75 H 0.66598 0.54528 0.96407 0.0
H76 H 0.60395 0.63237 -0.03431 0.0
H77 H 0.71678 0.63464 0.94385 0.0
H78 H 0.52204 0.6434 0.76422 0.0
H79 H 0.479 0.71021 0.80134 0.0
H80 H 0.41889 0.62234 0.79464 0.0
C81 C 0.50069 0.65827 0.05463 0.0
N82 N 0.57349 0.65975 0.08357 0.0
N83 N 0.44294 0.60026 0.06704 0.0
C84 C 0.48468 0.71422 0.01457 0.0
C85 C 0.48388 0.56612 0.10469 0.0
N86 N 0.56361 0.60129 0.11407 0.0
C87 C 0.44827 0.49567 0.131 0.0
H88 H 0.4515 0.68567 -0.0136 0.0
H89 H 0.54871 0.74249 0.00312 0.0
H90 H 0.43782 0.7584 0.02456 0.0
H91 H 0.47809 0.44499 0.11729 0.0
H92 H 0.37347 0.49069 0.12821 0.0
H93 H 0.46724 0.49571 0.16764 0.0
H94 H 0.17949 0.35173 0.01481 0.0
H95 H 0.39606 0.31683 0.92322 0.0
H96 H 0.45801 0.44308 0.93431 0.0
H97 H 0.47594 0.54143 -0.01147 0.0
H98 H 0.2648 0.57504 0.08295 0.0
H99 H 0.17424 0.47213 0.05241 0.0
C100 C 0.23686 0.37382 -0.00479 0.0
C101 C 0.28379 0.32518 -0.0314 0.0
C102 C 0.27492 0.44508 0.00381 0.0
C103 C 0.35887 0.35365 0.94378 0.0
C104 C 0.39526 0.42534 0.95078 0.0
C105 C 0.40805 0.52872 0.00063 0.0
C106 C 0.37754 0.56387 0.03853 0.0
C107 C 0.3579 0.46861 -0.0165 0.0
C108 C 0.28967 0.54741 0.05419 0.0
C109 C 0.23843 0.48829 0.03694 0.0
H110 H 0.47388 0.9515 0.95229 0.0
H111 H 0.19929 0.86384 0.94286 0.0
H112 H 0.25434 0.75103 0.90968 0.0
H113 H 0.3817 0.67497 0.8858 0.0
H114 H 0.65542 0.76022 0.89845 0.0
H115 H 0.59985 0.87732 0.92722 0.0
C116 C 0.42595 0.90781 0.94298 0.0
C117 C 0.33271 0.91598 0.95022 0.0
C118 C 0.45794 0.84322 0.92401 0.0
C119 C 0.27154 0.85885 0.93782 0.0
C120 C 0.30282 0.79447 0.91865 0.0
C121 C 0.42836 0.71997 0.89445 0.0
C122 C 0.52197 0.70983 0.89063 0.0
C123 C 0.39585 0.78596 0.91176 0.0
C124 C 0.58305 0.7674 0.90188 0.0
C125 C 0.55129 0.83402 0.91813 0.0
H126 H 0.92466 0.78135 -0.01102 0.0
H127 H 0.85166 0.98527 0.05004 0.0
H128 H 0.72849 0.91653 0.09076 0.0
H129 H 0.62798 0.80174 0.0995 0.0
H130 H 0.70979 0.59644 0.04334 0.0
H131 H 0.84381 0.66142 0.0103 0.0
C132 C 0.88343 0.80993 0.01234 0.0
C133 C 0.89633 0.88799 0.01646 0.0
C134 C 0.81359 0.76997 0.03578 0.0
C135 C 0.84301 0.92488 0.04674 0.0
C136 C 0.77203 0.88582 0.06958 0.0
C137 C 0.67675 0.77144 0.08093 0.0
C138 C 0.65936 0.69534 0.0727 0.0
C139 C 0.75454 0.809 0.06297 0.0
C140 C 0.72247 0.6555 0.04919 0.0
C141 C 0.7986 0.69259 0.0304 0.0
H142 H 0.95843 0.32583 0.94274 0.0
H143 H 0.75581 0.15343 0.9202 0.0
H144 H 0.6454 0.25082 0.89512 0.0
H145 H 0.60759 0.38581 0.87754 0.0
H146 H 0.81252 0.55745 0.8956 0.0
H147 H 0.92141 0.46043 0.92388 0.0
C148 C 0.88961 0.31002 0.93306 0.0
C149 C 0.86455 0.23308 0.93378 0.0
C150 C 0.82751 0.3662 0.91715 0.0
C151 C 0.77602 0.21269 0.92013 0.0
C152 C 0.71314 0.26819 0.90554 0.0
C153 C 0.67649 0.40122 0.88727 0.0
C154 C 0.70257 0.47789 0.88492 0.0
C155 C 0.73846 0.34509 0.90328 0.0
C156 C 0.7915 0.49831 0.89773 0.0
C157 C 0.85342 0.44304 0.9139 0.0
H158 H 0.87754 0.72384 0.53503 0.0
H159 H 0.6036 0.78321 0.49261 0.0
H160 H 0.633 0.91465 0.51149 0.0
H161 H 0.73712 1.01181 0.54352 0.0
H162 H 1.00892 0.94715 0.58521 0.0
H163 H 0.97957 0.81784 0.56399 0.0
C164 C 0.82384 0.76523 0.52973 0.0
C165 C 0.73828 0.74342 0.51268 0.0
C166 C 0.84067 0.83948 0.54133 0.0
C167 C 0.67019 0.79845 0.50566 0.0
C168 C 0.68679 0.87345 0.51677 0.0
C169 C 0.78913 0.96888 0.54781 0.0
C170 C 0.87485 0.98777 0.56599 0.0
C171 C 0.77154 0.89441 0.53527 0.0
C172 C 0.94268 0.93274 0.57136 0.0
C173 C 0.92585 0.85923 0.55929 0.0
H174 H 0.65235 0.2696 0.46541 0.0
H175 H 0.87417 0.40662 0.40918 0.0
H176 H 0.94603 0.29416 0.38496 0.0
H177 H 0.94518 0.15734 0.37702 0.0
H178 H 0.7275 0.01683 0.43202 0.0
H179 H 0.65537 0.12905 0.46007 0.0
C180 C 0.71619 0.27469 0.44774 0.0
C181 C 0.75713 0.34695 0.43891 0.0
C182 C 0.75824 0.20896 0.43387 0.0
C183 C 0.84056 0.35219 0.41638 0.0
C184 C 0.88205 0.28776 0.40244 0.0
C185 C 0.88233 0.1517 0.39555 0.0
C186 C 0.84156 0.0797 0.40279 0.0
C187 C 0.84138 0.21613 0.41069 0.0
C188 C 0.76001 0.07207 0.42653 0.0
C189 C 0.71879 0.1362 0.4422 0.0
H190 H 0.36682 0.3028 0.51854 0.0
H191 H 0.18111 0.42959 0.42757 0.0
H192 H 0.05176 0.37191 0.468 0.0
H193 H 0.99094 0.28158 0.52715 0.0
H194 H 0.1741 0.13626 0.60793 0.0
H195 H 0.30447 0.20685 0.5759 0.0
C196 C 0.29793 0.31742 0.50778 0.0
C197 C 0.28309 0.36964 0.47009 0.0
C198 C 0.22348 0.28187 0.53018 0.0
C199 C 0.1938 0.38846 0.45615 0.0
C200 C 0.11988 0.3561 0.47944 0.0
C201 C 0.0596 0.26599 0.53778 0.0
C202 C 0.0729 0.2052 0.57052 0.0
C203 C 0.1339 0.30228 0.51621 0.0
C204 C 0.16188 0.18489 0.5842 0.0
C205 C 0.23657 0.22422 0.56508 0.0
H206 H 0.25106 0.65792 0.36904 0.0
H207 H 0.37959 0.77412 0.47743 0.0
H208 H 0.26662 0.87548 0.46623 0.0
H209 H 0.13117 0.93082 0.42479 0.0
H210 H 0.99755 0.80653 0.32153 0.0
H211 H 0.11465 0.70953 0.33045 0.0
C212 C 0.25508 0.70559 0.39017 0.0
C213 C 0.32447 0.70864 0.42383 0.0
C214 C 0.18921 0.7624 0.38412 0.0
C215 C 0.32717 0.77032 0.45129 0.0
C216 C 0.26261 0.82828 0.4448 0.0
C217 C 0.12685 0.88183 0.40487 0.0
C218 C 0.05521 0.87576 0.37257 0.0
C219 C 0.19308 0.82477 0.41136 0.0
C220 C 0.05239 0.81303 0.34606 0.0
C221 C 0.11894 0.75729 0.35146 0.0
H222 H 0.02581 0.9891 0.12027 0.0
H223 H 0.2593 0.11364 0.16747 0.0
H224 H 0.21917 0.07916 0.24643 0.0
H225 H 0.11035 0.0221 0.30196 0.0
H226 H 0.87753 0.89851 0.25519 0.0
H227 H 0.92549 0.92189 0.17601 0.0
C228 C 0.06774 1.00873 0.14789 0.0
C229 C 0.14443 0.05489 0.13818 0.0
C230 C 0.04504 0.98781 0.19315 0.0
C231 C 0.19943 0.07856 0.17418 0.0
C232 C 0.17677 0.05869 0.2193 0.0
C233 C 0.07237 0.99846 0.2743 0.0
C234 C 0.99143 0.95837 0.28365 0.0
C235 C 0.0992 0.01411 0.22917 0.0
C236 C 0.94072 0.9288 0.24811 0.0
C237 C 0.96751 0.94303 0.20309 0.0
H238 H 0.08579 0.19142 0.82398 0.0
H239 H 0.21533 0.97588 0.81351 0.0
H240 H 0.18898 0.98655 0.73121 0.0
H241 H 0.10002 0.04311 0.66627 0.0
H242 H 0.96131 0.25317 0.6767 0.0
H243 H 0.02014 0.25966 0.75516 0.0
C244 C 0.11113 0.14818 0.80345 0.0
C245 C 0.15094 0.08226 0.82466 0.0
C246 C 0.0922 0.15317 0.75644 0.0
C247 C 0.18351 0.02661 0.79781 0.0
C248 C 0.1679 0.03243 0.75087 0.0
C249 C 0.08582 0.09142 0.68551 0.0
C250 C 0.02709 0.14762 0.66659 0.0
C251 C 0.11787 0.09322 0.7304 0.0
C252 C 1.00714 0.20987 0.69112 0.0
C253 C 0.04022 0.21308 0.73583 0.0
H254 H 0.70536 0.4602 0.64455 0.0
H255 H 0.41491 0.46631 0.62152 0.0
H256 H 0.39283 0.47 0.70355 0.0
H257 H 0.45786 0.49277 0.77944 0.0
H258 H 0.7483 0.51196 0.79694 0.0
H259 H 0.76915 0.47312 0.72036 0.0
C260 C 0.63692 0.46065 0.65739 0.0
C261 C 0.56182 0.46384 0.62688 0.0
C262 C 0.62516 0.46713 0.70393 0.0
C263 C 0.47381 0.4645 0.64426 0.0
C264 C 0.46128 0.46682 0.69112 0.0
C265 C 0.52554 0.48734 0.76645 0.0
C266 C 0.60137 0.50561 0.79365 0.0
C267 C 0.53666 0.47152 0.72094 0.0
C268 C 0.68893 0.49708 0.77708 0.0
C269 C 0.70078 0.47618 0.73292 0.0
H270 H 0.66963 0.44841 0.29856 0.0
H271 H 0.62345 0.67555 0.33681 0.0
H272 H 0.63 0.72449 0.25736 0.0
H273 H 0.60587 0.69588 0.1774 0.0
H274 H 0.64789 0.46935 0.13892 0.0
H275 H 0.68853 0.42687 0.21777 0.0
C276 C 0.66404 0.50894 0.28958 0.0
C277 C 0.64261 0.55784 0.32312 0.0
C278 C 0.66576 0.53649 0.24369 0.0
C279 C 0.63812 0.63644 0.31142 0.0
C280 C 0.64126 0.66451 0.26591 0.0
C281 C 0.62823 0.63825 0.18619 0.0
C282 C 0.62103 0.58485 0.15348 0.0
C283 C 0.64867 0.61422 0.23167 0.0
C284 C 0.65105 0.51048 0.16437 0.0
C285 C 0.67346 0.48626 0.20937 0.0
loop_
_geom_bond_atom_site_label_1
_geom_bond_atom_site_label_2
_geom_bond_distance
_geom_bond_site_symmetry_2
_ccdc_geom_bond_type
O0 Mg1 1.990 . S
O0 C14 1.253 . S
Mg1 O0 1.990 . S
Mg1 O4 2.180 . S
Mg1 O5 2.117 . S
Mg1 O19 2.030 1_545 S
O2 Mg3 2.084 . S
O2 C14 1.260 . S
Mg3 O2 2.084 . S
Mg3 O4 2.101 . S
Mg3 O6 2.067 1_554 S
Mg3 O7 2.073 . S
Mg3 O9 2.096 1_444 S
Mg3 O20 2.078 1_544 S
O4 Mg1 2.180 . S
O4 Mg3 2.101 . S
O4 C15 1.279 . S
O5 Mg1 2.117 . S
O5 C15 1.250 . S
O6 Mg3 2.067 1_556 S
O6 C16 1.264 . S
O7 Mg3 2.073 . S
O7 C17 1.260 1_454 S
Mg8 O9 2.180 1_545 S
Mg8 O10 2.030 . S
Mg8 O11 1.990 . S
Mg8 O12 2.117 1_545 S
O9 Mg3 2.096 1_666 S
O9 Mg8 2.180 1_565 S
O9 C18 1.279 1_556 S
O10 Mg8 2.030 . S
O10 C16 1.248 1_655 S
O11 Mg8 1.990 . S
O11 C17 1.253 . S
O12 Mg8 2.117 1_565 S
O12 C18 1.250 1_556 S
C13 O19 1.248 . S
C13 O20 1.264 1_554 S
C14 O0 1.253 . S
C14 O2 1.260 . S
C15 O4 1.279 . S
C15 O5 1.250 . S
C16 O6 1.264 . S
C16 O10 1.248 1_455 S
C17 O7 1.260 1_656 S
C17 O11 1.253 . S
C18 O9 1.279 1_554 S
C18 O12 1.250 1_554 S
O19 Mg1 2.030 1_565 S
O19 C13 1.248 . S
O20 Mg3 2.078 1_566 S
O20 C13 1.264 1_556 S
O21 Mg22 1.990 . S
O21 C35 1.253 . S
Mg22 O21 1.990 . S
Mg22 O25 2.180 . S
Mg22 O26 2.117 . S
Mg22 O40 2.030 . S
O23 Mg24 2.072 . S
O23 C35 1.260 . S
Mg24 O23 2.072 . S
Mg24 O25 2.099 . S
Mg24 O27 2.079 . S
Mg24 O28 2.072 . S
Mg24 O30 2.099 . S
Mg24 O41 2.079 . S
O25 Mg22 2.180 . S
O25 Mg24 2.099 . S
O25 C36 1.279 . S
O26 Mg22 2.117 . S
O26 C36 1.250 . S
O27 Mg24 2.079 . S
O27 C37 1.264 . S
O28 Mg24 2.072 . S
O28 C38 1.260 . S
Mg29 O30 2.180 . S
Mg29 O31 2.030 . S
Mg29 O32 1.990 . S
Mg29 O33 2.117 . S
O30 Mg24 2.099 . S
O30 Mg29 2.180 . S
O30 C39 1.279 . S
O31 Mg29 2.030 . S
O31 C37 1.248 . S
O32 Mg29 1.990 . S
O32 C38 1.253 . S
O33 Mg29 2.117 . S
O33 C39 1.250 . S
C34 O40 1.248 . S
C34 O41 1.264 . S
C35 O21 1.253 . S
C35 O23 1.260 . S
C36 O25 1.279 . S
C36 O26 1.250 . S
C37 O27 1.264 . S
C37 O31 1.248 . S
C38 O28 1.260 . S
C38 O32 1.253 . S
C39 O30 1.279 . S
C39 O33 1.250 . S
O40 Mg22 2.030 . S
O40 C34 1.248 . S
O41 Mg24 2.079 . S
O41 C34 1.264 . S
C42 N43 1.317 1_545 S
C42 N44 1.348 1_455 S
C42 C45 1.483 1_545 S
N43 C42 1.317 1_565 S
N43 N47 1.370 1_565 S
N44 C42 1.348 1_655 S
N44 C46 1.346 . S
C45 C42 1.483 1_565 S
C45 H49 0.968 . S
C45 H50 0.950 1_565 S
C45 H51 0.966 . S
C46 N44 1.346 . S
C46 N47 1.307 1_655 S
C46 C48 1.486 . S
N47 N43 1.370 1_545 S
N47 C46 1.307 1_455 S
C48 C46 1.486 . S
C48 H52 0.960 . S
C48 H53 0.960 . S
C48 H54 0.959 . S
H49 C45 0.968 . S
H50 C45 0.950 1_545 S
H51 C45 0.966 . S
H52 C48 0.960 . S
H53 C48 0.960 . S
H54 C48 0.959 . S
C55 N56 1.317 . S
C55 N57 1.348 1_455 S
C55 C58 1.485 . S
N56 C55 1.317 . S
N56 N60 1.370 . S
N57 C55 1.348 1_655 S
N57 C59 1.346 . S
C58 C55 1.485 . S
C58 H62 0.960 1_455 S
C58 H63 0.961 . S
C58 H64 0.960 . S
C59 N57 1.346 . S
C59 N60 1.307 1_655 S
C59 C61 1.491 . S
N60 N56 1.370 . S
N60 C59 1.307 1_455 S
C61 C59 1.491 . S
C61 H65 0.951 1_545 S
C61 H66 0.960 1_545 S
C61 H67 0.963 . S
H62 C58 0.960 1_655 S
H63 C58 0.961 . S
H64 C58 0.960 . S
H65 C61 0.951 1_565 S
H66 C61 0.960 1_565 S
H67 C61 0.963 . S
C68 N69 1.317 . S
C68 N70 1.348 . S
C68 C71 1.485 1_556 S
N69 C68 1.317 . S
N69 N73 1.370 . S
N70 C68 1.348 . S
N70 C72 1.346 . S
C71 C68 1.485 1_554 S
C71 H75 0.960 . S
C71 H76 0.961 . S
C71 H77 0.960 . S
C72 N70 1.346 . S
C72 N73 1.307 . S
C72 C74 1.486 . S
N73 N69 1.370 . S
N73 C72 1.307 . S
C74 C72 1.486 . S
C74 H78 0.960 . S
C74 H79 0.960 . S
C74 H80 0.959 . S
H75 C71 0.960 . S
H76 C71 0.961 . S
H77 C71 0.960 . S
H78 C74 0.960 . S
H79 C74 0.960 . S
H80 C74 0.959 . S
C81 N82 1.317 . S
C81 N83 1.348 . S
C81 C84 1.485 1_554 S
N82 C81 1.317 . S
N82 N86 1.370 . S
N83 C81 1.348 . S
N83 C85 1.346 . S
C84 C81 1.485 1_556 S
C84 H88 0.960 . S
C84 H89 0.961 . S
C84 H90 0.960 . S
C85 N83 1.346 . S
C85 N86 1.307 . S
C85 C87 1.486 . S
N86 N82 1.370 . S
N86 C85 1.307 . S
C87 C85 1.486 . S
C87 H91 0.960 . S
C87 H92 0.960 . S
C87 H93 0.959 . S
H88 C84 0.960 . S
H89 C84 0.961 . S
H90 C84 0.960 . S
H91 C87 0.960 . S
H92 C87 0.960 . S
H93 C87 0.959 . S
H94 C100 0.930 . S
H95 C103 0.930 . S
H96 C104 0.930 . S
H97 C105 0.933 . S
H98 C108 0.930 . S
H99 C109 0.930 . S
C100 H94 0.930 . S
C100 C101 1.355 . S
C100 C102 1.415 . S
C101 C100 1.355 . S
C101 C103 1.419 1_554 S
C102 C100 1.415 . S
C102 C107 1.425 . S
C102 C109 1.409 . S
C103 H95 0.930 . S
C103 C101 1.419 1_556 S
C103 C104 1.362 . S
C104 H96 0.930 . S
C104 C103 1.362 . S
C104 C107 1.409 1_556 S
C105 H97 0.933 . S
C105 C106 1.355 . S
C105 C107 1.415 . S
C106 C105 1.355 . S
C106 C108 1.419 . S
C107 C102 1.425 . S
C107 C104 1.409 1_554 S
C107 C105 1.415 . S
C108 H98 0.930 . S
C108 C106 1.419 . S
C108 C109 1.362 . S
C109 H99 0.930 . S
C109 C102 1.409 . S
C109 C108 1.362 . S
H110 C116 0.930 . S
H111 C119 0.930 . S
H112 C120 0.930 . S
H113 C121 0.930 . S
H114 C124 0.930 . S
H115 C125 0.930 . S
C116 H110 0.930 . S
C116 C117 1.355 1_556 S
C116 C118 1.415 . S
C117 C116 1.355 1_554 S
C117 C119 1.419 . S
C118 C116 1.415 . S
C118 C123 1.425 1_556 S
C118 C125 1.409 . S
C119 H111 0.930 . S
C119 C117 1.419 . S
C119 C120 1.362 . S
C120 H112 0.930 . S
C120 C119 1.362 . S
C120 C123 1.409 . S
C121 H113 0.930 . S
C121 C122 1.355 1_554 S
C121 C123 1.415 . S
C122 C121 1.355 1_556 S
C122 C124 1.419 . S
C123 C118 1.425 1_554 S
C123 C120 1.409 . S
C123 C121 1.415 . S
C124 H114 0.930 . S
C124 C122 1.419 . S
C124 C125 1.362 . S
C125 H115 0.930 . S
C125 C118 1.409 . S
C125 C124 1.362 . S
H126 C132 0.930 1_556 S
H127 C135 0.930 . S
H128 C136 0.930 . S
H129 C137 0.930 . S
H130 C140 0.930 1_556 S
H131 C141 0.930 . S
C132 H126 0.930 1_554 S
C132 C133 1.355 . S
C132 C134 1.415 . S
C133 C132 1.355 . S
C133 C135 1.419 . S
C134 C132 1.415 . S
C134 C139 1.425 . S
C134 C141 1.409 1_554 S
C135 H127 0.930 . S
C135 C133 1.419 . S
C135 C136 1.362 . S
C136 H128 0.930 . S
C136 C135 1.362 . S
C136 C139 1.409 . S
C137 H129 0.930 . S
C137 C138 1.355 . S
C137 C139 1.415 . S
C138 C137 1.355 . S
C138 C140 1.419 . S
C139 C134 1.425 . S
C139 C136 1.409 . S
C139 C137 1.415 . S
C140 H130 0.930 1_554 S
C140 C138 1.419 . S
C140 C141 1.362 1_554 S
C141 H131 0.930 . S
C141 C134 1.409 1_556 S
C141 C140 1.362 1_556 S
H142 C148 0.930 . S
H143 C151 0.930 . S
H144 C152 0.930 . S
H145 C153 0.930 . S
H146 C156 0.930 . S
H147 C157 0.930 . S
C148 H142 0.930 . S
C148 C149 1.355 . S
C148 C150 1.415 . S
C149 C148 1.355 . S
C149 C151 1.419 1_556 S
C150 C148 1.415 . S
C150 C155 1.425 . S
C150 C157 1.409 . S
C151 H143 0.930 . S
C151 C149 1.419 1_554 S
C151 C152 1.362 . S
C152 H144 0.930 . S
C152 C151 1.362 . S
C152 C155 1.409 1_554 S
C153 H145 0.930 . S
C153 C154 1.355 . S
C153 C155 1.415 . S
C154 C153 1.355 . S
C154 C156 1.419 . S
C155 C150 1.425 . S
C155 C152 1.409 1_556 S
C155 C153 1.415 . S
C156 H146 0.930 . S
C156 C154 1.419 . S
C156 C157 1.362 . S
C157 H147 0.930 . S
C157 C150 1.409 . S
C157 C156 1.362 . S
H158 C164 0.930 . S
H159 C167 0.930 . S
H160 C168 0.930 . S
H161 C169 0.930 1_545 S
H162 C172 0.930 1_455 S
H163 C173 0.930 . S
C164 H158 0.930 . S
C164 C165 1.355 . S
C164 C166 1.415 . S
C165 C164 1.355 . S
C165 C167 1.419 . S
C166 C164 1.415 . S
C166 C171 1.425 . S
C166 C173 1.409 . S
C167 H159 0.930 . S
C167 C165 1.419 . S
C167 C168 1.362 . S
C168 H160 0.930 . S
C168 C167 1.362 . S
C168 C171 1.409 . S
C169 H161 0.930 1_565 S
C169 C170 1.355 . S
C169 C171 1.415 . S
C170 C169 1.355 . S
C170 C172 1.419 . S
C171 C166 1.425 . S
C171 C168 1.409 . S
C171 C169 1.415 . S
C172 H162 0.930 1_655 S
C172 C170 1.419 . S
C172 C173 1.362 . S
C173 H163 0.930 . S
C173 C166 1.409 . S
C173 C172 1.362 . S
H174 C180 0.930 . S
H175 C183 0.930 . S
H176 C184 0.930 . S
H177 C185 0.930 1_455 S
H178 C188 0.930 . S
H179 C189 0.930 . S
C180 H174 0.930 . S
C180 C181 1.355 . S
C180 C182 1.415 . S
C181 C180 1.355 . S
C181 C183 1.419 . S
C182 C180 1.415 . S
C182 C187 1.425 . S
C182 C189 1.409 . S
C183 H175 0.930 . S
C183 C181 1.419 . S
C183 C184 1.362 . S
C184 H176 0.930 . S
C184 C183 1.362 . S
C184 C187 1.409 . S
C185 H177 0.930 1_655 S
C185 C186 1.355 . S
C185 C187 1.415 . S
C186 C185 1.355 . S
C186 C188 1.419 . S
C187 C182 1.425 . S
C187 C184 1.409 . S
C187 C185 1.415 . S
C188 H178 0.930 . S
C188 C186 1.419 . S
C188 C189 1.362 . S
C189 H179 0.930 . S
C189 C182 1.409 . S
C189 C188 1.362 . S
H190 C196 0.930 . S
H191 C199 0.930 . S
H192 C200 0.930 . S
H193 C201 0.930 . S
H194 C204 0.930 . S
H195 C205 0.930 . S
C196 H190 0.930 . S
C196 C197 1.355 . S
C196 C198 1.415 . S
C197 C196 1.355 . S
C197 C199 1.419 . S
C198 C196 1.415 . S
C198 C203 1.425 . S
C198 C205 1.409 . S
C199 H191 0.930 . S
C199 C197 1.419 . S
C199 C200 1.362 . S
C200 H192 0.930 . S
C200 C199 1.362 . S
C200 C203 1.409 . S
C201 H193 0.930 . S
C201 C202 1.355 . S
C201 C203 1.415 . S
C202 C201 1.355 . S
C202 C204 1.419 . S
C203 C198 1.425 . S
C203 C200 1.409 . S
C203 C201 1.415 . S
C204 H194 0.930 . S
C204 C202 1.419 . S
C204 C205 1.362 . S
C205 H195 0.930 . S
C205 C198 1.409 . S
C205 C204 1.362 . S
H206 C212 0.930 . S
H207 C215 0.930 . S
H208 C216 0.930 . S
H209 C217 0.930 . S
H210 C220 0.930 . S
H211 C221 0.930 . S
C212 H206 0.930 . S
C212 C213 1.355 . S
C212 C214 1.415 . S
C213 C212 1.355 . S
C213 C215 1.419 . S
C214 C212 1.415 . S
C214 C219 1.425 . S
C214 C221 1.409 . S
C215 H207 0.930 . S
C215 C213 1.419 . S
C215 C216 1.362 . S
C216 H208 0.930 . S
C216 C215 1.362 . S
C216 C219 1.409 . S
C217 H209 0.930 . S
C217 C218 1.355 . S
C217 C219 1.415 . S
C218 C217 1.355 . S
C218 C220 1.419 . S
C219 C214 1.425 . S
C219 C216 1.409 . S
C219 C217 1.415 . S
C220 H210 0.930 . S
C220 C218 1.419 . S
C220 C221 1.362 . S
C221 H211 0.930 . S
C221 C214 1.409 . S
C221 C220 1.362 . S
H222 C228 0.930 . S
H223 C231 0.930 1_655 S
H224 C232 0.930 1_655 S
H225 C233 0.930 . S
H226 C236 0.930 . S
H227 C237 0.930 . S
C228 H222 0.930 . S
C228 C229 1.355 1_565 S
C228 C230 1.415 . S
C229 C228 1.355 1_545 S
C229 C231 1.419 . S
C230 C228 1.415 . S
C230 C235 1.425 1_565 S
C230 C237 1.409 . S
C231 H223 0.930 1_455 S
C231 C229 1.419 . S
C231 C232 1.362 . S
C232 H224 0.930 1_455 S
C232 C231 1.362 . S
C232 C235 1.409 . S
C233 H225 0.930 . S
C233 C234 1.355 1_545 S
C233 C235 1.415 . S
C234 C233 1.355 1_565 S
C234 C236 1.419 . S
C235 C230 1.425 1_545 S
C235 C232 1.409 . S
C235 C233 1.415 . S
C236 H226 0.930 . S
C236 C234 1.419 . S
C236 C237 1.362 . S
C237 H227 0.930 . S
C237 C230 1.409 . S
C237 C236 1.362 . S
H238 C244 0.930 . S
H239 C247 0.930 1_565 S
H240 C248 0.935 . S
H241 C249 0.930 . S
H242 C252 0.930 . S
H243 C253 0.930 . S
C244 H238 0.930 . S
C244 C245 1.355 . S
C244 C246 1.415 . S
C245 C244 1.355 . S
C245 C247 1.419 . S
C246 C244 1.415 . S
C246 C251 1.425 . S
C246 C253 1.409 . S
C247 H239 0.930 1_545 S
C247 C245 1.419 . S
C247 C248 1.361 1_545 S
C248 H240 0.935 . S
C248 C247 1.361 1_565 S
C248 C251 1.405 1_565 S
C249 H241 0.930 . S
C249 C250 1.355 . S
C249 C251 1.415 . S
C250 C249 1.355 . S
C250 C252 1.419 . S
C251 C246 1.425 . S
C251 C248 1.405 1_545 S
C251 C249 1.415 . S
C252 H242 0.930 . S
C252 C250 1.419 . S
C252 C253 1.362 . S
C253 H243 0.930 . S
C253 C246 1.409 . S
C253 C252 1.362 . S
H254 C260 0.930 . S
H255 C263 0.930 . S
H256 C264 0.930 . S
H257 C265 0.930 . S
H258 C268 0.930 . S
H259 C269 0.930 . S
C260 H254 0.930 . S
C260 C261 1.355 . S
C260 C262 1.415 . S
C261 C260 1.355 . S
C261 C263 1.419 . S
C262 C260 1.415 . S
C262 C267 1.425 . S
C262 C269 1.409 . S
C263 H255 0.930 . S
C263 C261 1.419 . S
C263 C264 1.362 . S
C264 H256 0.930 . S
C264 C263 1.362 . S
C264 C267 1.409 . S
C265 H257 0.930 . S
C265 C266 1.355 . S
C265 C267 1.415 . S
C266 C265 1.355 . S
C266 C268 1.419 . S
C267 C262 1.425 . S
C267 C264 1.409 . S
C267 C265 1.415 . S
C268 H258 0.930 . S
C268 C266 1.419 . S
C268 C269 1.362 . S
C269 H259 0.930 . S
C269 C262 1.409 . S
C269 C268 1.362 . S
H270 C276 0.930 . S
H271 C279 0.930 . S
H272 C280 0.930 . S
H273 C281 0.930 . S
H274 C284 0.930 . S
H275 C285 0.930 . S
C276 H270 0.930 . S
C276 C277 1.355 . S
C276 C278 1.415 . S
C277 C276 1.355 . S
C277 C279 1.419 . S
C278 C276 1.415 . S
C278 C283 1.425 . S
C278 C285 1.409 . S
C279 H271 0.930 . S
C279 C277 1.419 . S
C279 C280 1.362 . S
C280 H272 0.930 . S
C280 C279 1.362 . S
C280 C283 1.409 . S
C281 H273 0.930 . S
C281 C282 1.355 . S
C281 C283 1.415 . S
C282 C281 1.355 . S
C282 C284 1.419 . S
C283 C278 1.425 . S
C283 C280 1.409 . S
C283 C281 1.415 . S
C284 H274 0.930 . S
C284 C282 1.419 . S
C284 C285 1.362 . S
C285 H275 0.930 . S
C285 C278 1.409 . S
C285 C284 1.362 . S
C106 N83 1.393 . S
C101 C15 1.251 . S
C117 C13 1.453 . S
C122 N70 1.419 . S
C133 C18 1.309 . S
C138 N82 1.519 . S
C149 C17 1.388 . S
C154 N69 1.473 . S
C165 C36 1.285 . S
C170 N57 1.383 1_565 S
C181 C34 1.435 . S
C186 N44 1.445 . S
C202 N56 1.530 . S
C197 C39 1.263 . S
C218 N43 1.483 . S
C213 C38 1.405 . S
C229 C14 1.544 . S
C234 N47 1.599 1_565 S
C245 C16 1.392 . S
C250 N60 1.470 . S
C266 N73 1.549 . S
C261 C35 1.547 . S
C277 C37 1.407 . S
C282 N86 1.419 . S
