# Generated by pormake.
# Topology pth, (4,4)-cn, num edge types: 1
# Building blocks:
#     Node 0, Type 0, BuildingBlock: QUQFOY_clean_sbu_1, # of connection points: 4
#     Node 1, Type 0, BuildingBlock: QUQFOY_clean_sbu_1, # of connection points: 4
#     Node 2, Type 0, BuildingBlock: QUQFOY_clean_sbu_1, # of connection points: 4
#     Node 3, Type 1, BuildingBlock: NAWXER_clean_linker_0, # of connection points: 4
#     Node 4, Type 1, BuildingBlock: NAWXER_clean_linker_0, # of connection points: 4
#     Node 5, Type 1, BuildingBlock: NAWXER_clean_linker_0, # of connection points: 4
#     Edge 6, Type (0, 1), BuildingBlock: FUNLAD_clean_linker_0, # of connection points: 2
#     Edge 7, Type (0, 1), BuildingBlock: FUNLAD_clean_linker_0, # of connection points: 2
#     Edge 8, Type (0, 1), BuildingBlock: FUNLAD_clean_linker_0, # of connection points: 2
#     Edge 9, Type (0, 1), BuildingBlock: FUNLAD_clean_linker_0, # of connection points: 2
#     Edge 10, Type (0, 1), BuildingBlock: FUNLAD_clean_linker_0, # of connection points: 2
#     Edge 11, Type (0, 1), BuildingBlock: FUNLAD_clean_linker_0, # of connection points: 2
#     Edge 12, Type (0, 1), BuildingBlock: FUNLAD_clean_linker_0, # of connection points: 2
#     Edge 13, Type (0, 1), BuildingBlock: FUNLAD_clean_linker_0, # of connection points: 2
#     Edge 14, Type (0, 1), BuildingBlock: FUNLAD_clean_linker_0, # of connection points: 2
#     Edge 15, Type (0, 1), BuildingBlock: FUNLAD_clean_linker_0, # of connection points: 2
#     Edge 16, Type (0, 1), BuildingBlock: FUNLAD_clean_linker_0, # of connection points: 2
#     Edge 17, Type (0, 1), BuildingBlock: FUNLAD_clean_linker_0, # of connection points: 2
# Relax obj value: 0.022
# Max RMSD: 0.123
# Mean RMSD: 0.073
data_MOF--net-pth--node1-QUQFOY_clean_sbu_1--node2-NAWXER_clean_linker_0--edge1-FUNLAD_clean_linker_0
_symmetry_space_group_name_H-M    P1
_symmetry_Int_Tables_number       1
_symmetry_cell_setting            triclinic
loop_
_symmetry_equiv_pos_as_xyz
'x, y, z'
_cell_length_a     31.892771
_cell_length_b     34.247384
_cell_length_c     76.575683
_cell_angle_alpha  89.988556
_cell_angle_beta   89.959085
_cell_angle_gamma 120.05681
loop_
_atom_site_label
_atom_site_type_symbol
_atom_site_fract_x
_atom_site_fract_y
_atom_site_fract_z
_atom_type_partial_charge
O0 O 0.02188 0.06937 0.04337 0.0
Cd1 Cd 0.96659 0.02637 0.05974 0.0
Cd2 Cd 0.0174 0.98443 0.06012 0.0
O3 O 0.07039 0.04201 0.04802 0.0
O4 O 0.93698 0.06206 0.06811 0.0
O5 O 0.975 0.0384 0.08556 0.0
C6 C 0.95295 0.06109 0.08348 0.0
C7 C 0.03409 0.95188 0.08388 0.0
C8 C 0.06233 0.0713 0.04105 0.0
C9 C 0.9199 0.93722 0.04254 0.0
O10 O 0.9605 0.93944 0.04482 0.0
O11 O 0.91238 0.96751 0.04885 0.0
O12 O 0.04849 0.94986 0.06834 0.0
O13 O 0.01198 0.97446 0.0861 0.0
O14 O 0.95723 0.03699 0.40049 0.0
Cd15 Cd 0.01898 0.05566 0.38605 0.0
Cd16 Cd 0.97762 0.96395 0.38458 0.0
O17 O 0.91788 0.96408 0.39492 0.0
O18 O 0.04245 0.12039 0.38109 0.0
O19 O 0.01866 0.06874 0.36035 0.0
C20 C 0.03362 0.11005 0.36481 0.0
C21 C 0.96827 0.91236 0.36279 0.0
C22 C 0.91933 0.99847 0.40182 0.0
C23 C 0.07122 0.01726 0.4048 0.0
O24 O 0.03421 0.97928 0.40141 0.0
O25 O 0.07495 0.05331 0.3986 0.0
O26 O 0.95413 0.89972 0.3786 0.0
O27 O 0.98618 0.95457 0.35908 0.0
O28 O 0.92376 0.9715 0.71307 0.0
Cd29 Cd 0.97355 0.96404 0.72771 0.0
Cd30 Cd 0.01998 0.05378 0.72671 0.0
O31 O 0.95679 0.04515 0.71583 0.0
O32 O 0.93716 0.90102 0.73669 0.0
O33 O 0.966 0.96095 0.75383 0.0
C34 C 0.94137 0.9176 0.75213 0.0
C35 C 0.05642 0.10165 0.75044 0.0
C36 C 0.92274 0.0076 0.71029 0.0
C37 C 0.06576 0.00808 0.70759 0.0
O38 O 0.06516 0.04444 0.71019 0.0
O39 O 0.03404 0.97149 0.71469 0.0
O40 O 0.05769 0.11734 0.73502 0.0
O41 O 0.03305 0.05838 0.75252 0.0
C42 C 0.97341 0.36444 0.25093 0.0
C43 C 0.01718 0.37505 0.25921 0.0
C44 C 0.9694 0.39728 0.24142 0.0
C45 C 0.00896 0.44134 0.24017 0.0
C46 C 0.05662 0.41927 0.25801 0.0
C47 C 0.05235 0.45226 0.24871 0.0
C48 C 0.00553 0.47605 0.22984 0.0
C49 C 0.01044 0.3778 0.19155 0.0
C50 C 0.96788 0.35491 0.18152 0.0
C51 C 0.01954 0.41549 0.20152 0.0
C52 C 0.98615 0.43086 0.20171 0.0
C53 C 0.93453 0.37043 0.18185 0.0
C54 C 0.94379 0.40819 0.19172 0.0
C55 C 0.99542 0.47127 0.21177 0.0
C56 C 0.04532 0.65976 0.1922 0.0
C57 C 0.0111 0.65065 0.17896 0.0
C58 C 0.04196 0.62502 0.20275 0.0
C59 C 0.00396 0.58048 0.20045 0.0
C60 C 0.97331 0.60595 0.17659 0.0
C61 C 0.96995 0.5712 0.18717 0.0
C62 C 0.00099 0.54332 0.2113 0.0
C63 C 0.97053 0.62885 0.24671 0.0
C64 C 0.00551 0.65202 0.25967 0.0
C65 C 0.97102 0.59447 0.2371 0.0
C66 C 0.00698 0.58292 0.24 0.0
C67 C 0.04078 0.63966 0.2629 0.0
C68 C 0.04138 0.6053 0.25318 0.0
C69 C 0.00755 0.54662 0.22962 0.0
H70 H 0.9425 0.33059 0.25163 0.0
H71 H 0.93546 0.38831 0.23502 0.0
H72 H 0.09057 0.42844 0.26443 0.0
H73 H 0.0832 0.48613 0.24794 0.0
H74 H 0.03729 0.36728 0.19138 0.0
H75 H 0.05302 0.43308 0.20883 0.0
H76 H 0.90103 0.35328 0.17454 0.0
H77 H 0.91757 0.4195 0.19168 0.0
H78 H 0.07546 0.69358 0.19414 0.0
H79 H 0.0696 0.63291 0.21253 0.0
H80 H 0.94615 0.59783 0.1666 0.0
H81 H 0.94053 0.53708 0.18506 0.0
H82 H 0.94217 0.63674 0.2442 0.0
H83 H 0.94295 0.57665 0.22746 0.0
H84 H 0.06829 0.65695 0.27277 0.0
H85 H 0.06913 0.59665 0.25578 0.0
N86 N 0.01073 0.51334 0.23816 0.0
N87 N 0.99403 0.50529 0.20315 0.0
C88 C 0.64838 0.0283 0.52468 0.0
C89 C 0.63442 0.99248 0.51282 0.0
C90 C 0.6146 0.02892 0.53615 0.0
C91 C 0.56629 0.99361 0.53605 0.0
C92 C 0.58607 0.95699 0.51291 0.0
C93 C 0.55231 0.95774 0.52432 0.0
C94 C 0.52923 0.99549 0.54705 0.0
C95 C 0.62852 0.98224 0.58579 0.0
C96 C 0.65009 0.01763 0.59798 0.0
C97 C 0.59198 0.9786 0.57467 0.0
C98 C 0.57666 0.01052 0.57544 0.0
C99 C 0.63509 0.04983 0.59852 0.0
C100 C 0.5986 0.04615 0.58743 0.0
C101 C 0.53489 0.00497 0.56509 0.0
C102 C 0.33734 0.96658 0.58764 0.0
C103 C 0.35222 0.99631 0.60191 0.0
C104 C 0.3713 0.96887 0.57549 0.0
C105 C 0.42054 1.00179 0.57715 0.0
C106 C 0.40123 0.02943 0.60347 0.0
C107 C 0.43498 0.0322 0.5912 0.0
C108 C 0.4582 1.0016 0.56582 0.0
C109 C 0.36529 0.02349 0.52687 0.0
C110 C 0.34411 0.99019 0.51386 0.0
C111 C 0.39957 0.02378 0.53833 0.0
C112 C 0.41303 0.9906 0.53706 0.0
C113 C 0.35724 0.95672 0.5128 0.0
C114 C 0.39149 0.95709 0.52422 0.0
C115 C 0.45311 0.99321 0.54765 0.0
H116 H 0.68506 0.05661 0.52474 0.0
H117 H 0.62596 0.05764 0.54472 0.0
H118 H 0.57421 0.92863 0.50411 0.0
H119 H 0.51513 0.9303 0.52395 0.0
H120 H 0.63948 0.95704 0.585 0.0
H121 H 0.57479 0.95013 0.56585 0.0
H122 H 0.65039 0.07708 0.60793 0.0
H123 H 0.58694 0.07086 0.5884 0.0
H124 H 0.29979 0.94038 0.5863 0.0
H125 H 0.35921 0.94376 0.56526 0.0
H126 H 0.41352 0.05294 0.61429 0.0
H127 H 0.4727 0.05765 0.5929 0.0
H128 H 0.35574 0.0496 0.52806 0.0
H129 H 0.41658 0.05072 0.54782 0.0
H130 H 0.34225 0.93104 0.50276 0.0
H131 H 0.4018 0.93152 0.52284 0.0
N132 N 0.48863 0.99005 0.53907 0.0
N133 N 0.49912 0.00751 0.57372 0.0
C134 C 0.3814 0.34377 0.87034 0.0
C135 C 0.35604 0.35505 0.85822 0.0
C136 C 0.41901 0.37723 0.88026 0.0
C137 C 0.43159 0.42266 0.87849 0.0
C138 C 0.36939 0.4007 0.85624 0.0
C139 C 0.40689 0.43413 0.86622 0.0
C140 C 0.47137 0.45853 0.88892 0.0
C141 C 0.35873 0.37046 0.92931 0.0
C142 C 0.37549 0.34958 0.94102 0.0
C143 C 0.39083 0.40409 0.91788 0.0
C144 C 0.44018 0.41728 0.91793 0.0
C145 C 0.42484 0.36246 0.94075 0.0
C146 C 0.45687 0.3962 0.92944 0.0
C147 C 0.47559 0.45537 0.90716 0.0
C148 C 0.62974 0.64151 0.92739 0.0
C149 C 0.65135 0.6304 0.94105 0.0
C150 C 0.59727 0.60818 0.91599 0.0
C151 C 0.58608 0.56318 0.91798 0.0
C152 C 0.64035 0.58541 0.9429 0.0
C153 C 0.60788 0.55215 0.93154 0.0
C154 C 0.54839 0.52674 0.90715 0.0
C155 C 0.66973 0.60919 0.87026 0.0
C156 C 0.65888 0.63123 0.85704 0.0
C157 C 0.63296 0.57649 0.88069 0.0
C158 C 0.58456 0.56534 0.87823 0.0
C159 C 0.61039 0.62 0.85458 0.0
C160 C 0.57353 0.58709 0.865 0.0
C161 C 0.54534 0.52935 0.88883 0.0
H162 H 0.372 0.30899 0.87228 0.0
H163 H 0.43844 0.36754 0.88923 0.0
H164 H 0.35133 0.41074 0.84679 0.0
H165 H 0.4164 0.46901 0.86444 0.0
H166 H 0.3211 0.36185 0.92934 0.0
H167 H 0.37738 0.42063 0.90938 0.0
H168 H 0.43887 0.34658 0.94934 0.0
H169 H 0.49487 0.40602 0.92971 0.0
H170 H 0.63767 0.67592 0.92558 0.0
H171 H 0.57997 0.6174 0.90593 0.0
H172 H 0.65578 0.57561 0.95345 0.0
H173 H 0.59931 0.51757 0.93347 0.0
H174 H 0.70671 0.61719 0.87254 0.0
H175 H 0.64235 0.55938 0.8905 0.0
H176 H 0.60078 0.63589 0.84433 0.0
H177 H 0.5364 0.57864 0.86272 0.0
N178 N 0.50655 0.49543 0.88043 0.0
N179 N 0.51375 0.48962 0.91552 0.0
C180 C 0.9278 0.11472 0.09474 0.0
C181 C 0.94918 0.08813 0.09784 0.0
C182 C 0.92879 0.14433 0.10747 0.0
C183 C 0.9508 0.14781 0.12379 0.0
C184 C 0.97102 0.12025 0.12704 0.0
C185 C 0.97016 0.09066 0.11423 0.0
C186 C 0.95661 0.18189 0.13716 0.0
C187 C 0.93139 0.20387 0.13701 0.0
C188 C 0.9412 0.24181 0.14892 0.0
C189 C 0.92859 0.27357 0.14329 0.0
C190 C 0.93752 0.31022 0.1538 0.0
C191 C 0.9587 0.31576 0.17038 0.0
H192 H 0.97118 0.22261 0.17057 0.0
C193 C 0.97085 0.28365 0.17615 0.0
C194 C 0.96219 0.24703 0.16554 0.0
H195 H 0.98637 0.2864 0.18897 0.0
H196 H 0.91162 0.11387 0.08221 0.0
H197 H 0.91389 0.1655 0.10402 0.0
H198 H 0.98846 0.12228 0.13941 0.0
H199 H 0.98712 0.07075 0.11702 0.0
H200 H 0.98413 0.19018 0.14707 0.0
H201 H 0.90372 0.19568 0.1272 0.0
H202 H 0.91239 0.27044 0.13056 0.0
H203 H 0.92838 0.33459 0.14878 0.0
C204 C 0.88203 0.03105 0.42148 0.0
C205 C 0.87819 0.99361 0.41247 0.0
C206 C 0.84532 0.0262 0.43273 0.0
C207 C 0.80384 0.98372 0.43529 0.0
C208 C 0.79888 0.94669 0.42571 0.0
C209 C 0.83585 0.95146 0.4145 0.0
C210 C 0.76528 0.97742 0.44776 0.0
C211 C 0.77508 1.00189 0.46253 0.0
C212 C 0.73763 0.99685 0.4753 0.0
C213 C 0.75167 0.01084 0.49259 0.0
C214 C 0.71811 0.00869 0.50484 0.0
C215 C 0.66973 0.99295 0.50001 0.0
H216 H 0.67725 0.97102 0.45713 0.0
C217 C 0.65564 0.97886 0.48268 0.0
C218 C 0.68918 0.9808 0.47045 0.0
H219 H 0.61894 0.96749 0.47841 0.0
H220 H 0.91387 0.06414 0.42009 0.0
H221 H 0.84956 0.05583 0.4394 0.0
H222 H 0.76692 0.91374 0.42727 0.0
H223 H 0.83158 0.92199 0.40767 0.0
H224 H 0.72865 0.95037 0.44517 0.0
H225 H 0.81256 0.02566 0.46583 0.0
H226 H 0.78882 0.02353 0.49666 0.0
H227 H 0.73009 0.01933 0.51812 0.0
C228 C 0.88972 0.84067 0.76484 0.0
C229 C 0.91553 0.88771 0.7671 0.0
C230 C 0.86082 0.81229 0.77826 0.0
C231 C 0.85721 0.8303 0.79434 0.0
C232 C 0.88383 0.87727 0.79672 0.0
C233 C 0.91293 0.90571 0.78329 0.0
C234 C 0.82333 0.80139 0.80831 0.0
C235 C 0.80794 0.75702 0.80991 0.0
C236 C 0.77095 0.72688 0.82283 0.0
C237 C 0.76929 0.68652 0.82754 0.0
C238 C 0.7334 0.65589 0.83882 0.0
C239 C 0.69787 0.66465 0.8455 0.0
H240 H 0.73468 0.76593 0.8259 0.0
C241 C 0.69941 0.70503 0.84079 0.0
C242 C 0.73554 0.73585 0.82958 0.0
H243 H 0.67262 0.71279 0.84577 0.0
H244 H 0.89063 0.8257 0.75249 0.0
H245 H 0.83992 0.77649 0.77564 0.0
H246 H 0.88149 0.89211 0.80892 0.0
H247 H 0.93214 0.94183 0.78542 0.0
H248 H 0.81124 0.81754 0.81765 0.0
H249 H 0.82365 0.74191 0.80165 0.0
H250 H 0.79568 0.67844 0.82237 0.0
H251 H 0.73281 0.62478 0.84197 0.0
C252 C 0.06371 0.90174 0.0954 0.0
C253 C 0.03931 0.92579 0.09829 0.0
C254 C 0.06356 0.87239 0.10808 0.0
C255 C 0.03858 0.86608 0.12393 0.0
C256 C 0.01663 0.89211 0.12724 0.0
C257 C 0.01679 0.92156 0.11452 0.0
C258 C 0.03417 0.83218 0.13706 0.0
C259 C 0.03367 0.79388 0.1325 0.0
C260 C 0.02696 0.75783 0.14497 0.0
C261 C 0.0133 0.7149 0.13828 0.0
C262 C 0.0076 0.68009 0.14931 0.0
C263 C 0.01574 0.68742 0.16735 0.0
H264 H 0.04686 0.79804 0.16873 0.0
C265 C 0.02952 0.73041 0.17409 0.0
C266 C 0.03519 0.76529 0.16304 0.0
H267 H 0.03587 0.73711 0.18795 0.0
H268 H 0.08204 0.9047 0.08313 0.0
H269 H 0.0827 0.85443 0.10534 0.0
H270 H 0.99779 0.88844 0.13944 0.0
H271 H 0.99787 0.9398 0.11718 0.0
H272 H 0.02756 0.8375 0.15051 0.0
H273 H 0.03581 0.78723 0.11876 0.0
H274 H 0.00712 0.70821 0.12441 0.0
H275 H 0.99778 0.64766 0.14363 0.0
C276 C 0.10157 0.97952 0.42496 0.0
C277 C 0.10849 0.01917 0.41688 0.0
C278 C 0.13455 0.98103 0.43728 0.0
C279 C 0.17588 0.02229 0.44168 0.0
C280 C 0.18302 0.0619 0.43349 0.0
C281 C 0.14978 0.06041 0.42119 0.0
C282 C 0.21083 0.02559 0.45531 0.0
C283 C 0.2152 0.99016 0.46053 0.0
C284 C 0.24801 0.99205 0.47472 0.0
C285 C 0.23857 0.95138 0.48257 0.0
C286 C 0.26901 0.95091 0.49555 0.0
C287 C 0.30996 0.99116 0.50092 0.0
H288 H 0.29827 0.06448 0.47421 0.0
C289 C 0.31931 0.03201 0.4932 0.0
C290 C 0.28879 0.03251 0.4802 0.0
H291 H 0.35111 0.0635 0.49682 0.0
H292 H 0.06992 0.94718 0.42212 0.0
H293 H 0.12635 0.94979 0.44362 0.0
H294 H 0.21427 0.09421 0.4367 0.0
H295 H 0.15611 0.09163 0.41527 0.0
H296 H 0.23319 0.05841 0.46125 0.0
H297 H 0.19318 0.95753 0.45442 0.0
H298 H 0.20747 0.9197 0.47863 0.0
H299 H 0.26051 0.91892 0.50135 0.0
C300 C 0.0918 0.11611 0.78062 0.0
C301 C 0.08324 0.13257 0.76501 0.0
C302 C 0.12105 0.14597 0.79367 0.0
C303 C 0.14211 0.19289 0.79136 0.0
C304 C 0.13164 0.20908 0.77611 0.0
C305 C 0.1029 0.17933 0.76301 0.0
C306 C 0.17548 0.226 0.80441 0.0
C307 C 0.20481 0.21821 0.81469 0.0
C308 C 0.24222 0.25311 0.82628 0.0
C309 C 0.28364 0.25045 0.83033 0.0
C310 C 0.32041 0.28334 0.8407 0.0
C311 C 0.31638 0.3195 0.84747 0.0
H312 H 0.20552 0.29115 0.83103 0.0
C313 C 0.27431 0.32154 0.84379 0.0
C314 C 0.2376 0.28872 0.83335 0.0
H315 H 0.26947 0.3483 0.84913 0.0
H316 H 0.07691 0.08023 0.78259 0.0
H317 H 0.12711 0.1322 0.8055 0.0
H318 H 0.14694 0.245 0.77408 0.0
H319 H 0.0967 0.19309 0.7512 0.0
H320 H 0.17915 0.25928 0.8043 0.0
H321 H 0.2044 0.18641 0.81352 0.0
H322 H 0.28806 0.22329 0.82514 0.0
H323 H 0.35246 0.28087 0.8431 0.0
C324 C 0.88694 0.04597 0.69299 0.0
C325 C 0.8835 0.00605 0.69946 0.0
C326 C 0.85228 0.04417 0.68134 0.0
C327 C 0.81341 1.00233 0.67596 0.0
C328 C 0.80875 0.96262 0.68309 0.0
C329 C 0.84357 0.96438 0.69461 0.0
C330 C 0.77713 0.99869 0.66295 0.0
C331 C 0.78752 0.02914 0.65011 0.0
C332 C 0.75213 0.02486 0.63654 0.0
C333 C 0.7597 0.06387 0.62777 0.0
C334 C 0.72709 0.06151 0.61506 0.0
C335 C 0.68634 0.01991 0.61072 0.0
H336 H 0.70567 0.95187 0.6378 0.0
C337 C 0.67946 0.98065 0.61913 0.0
C338 C 0.71203 0.98301 0.63185 0.0
H339 H 0.64832 0.94809 0.61613 0.0
H340 H 0.91705 0.07863 0.69657 0.0
H341 H 0.85612 0.07557 0.67661 0.0
H342 H 0.7788 0.93 0.67934 0.0
H343 H 0.83959 0.93299 0.69947 0.0
H344 H 0.74141 0.9689 0.66369 0.0
H345 H 0.82341 0.05877 0.64944 0.0
H346 H 0.79065 0.09645 0.63091 0.0
H347 H 0.73381 0.09228 0.60862 0.0
C348 C 0.89239 0.86871 0.02393 0.0
C349 C 0.88257 0.90047 0.03169 0.0
C350 C 0.85898 0.83578 0.01269 0.0
C351 C 0.81448 0.8334 0.00907 0.0
C352 C 0.80447 0.8649 0.01695 0.0
C353 C 0.83805 0.89801 0.02819 0.0
C354 C 0.77906 0.80029 0.99645 0.0
C355 C 0.77741 0.7613 0.99225 0.0
C356 C 0.74459 0.72903 0.97885 0.0
C357 C 0.75598 0.69742 0.97201 0.0
C358 C 0.72622 0.66596 0.95957 0.0
C359 C 0.68407 0.66516 0.95371 0.0
H360 H 0.69127 0.75103 0.97822 0.0
C361 C 0.67254 0.69676 0.96051 0.0
C362 C 0.70233 0.72827 0.973 0.0
H363 H 0.63977 0.69639 0.95652 0.0
H364 H 0.92651 0.86985 0.02618 0.0
H365 H 0.86916 0.81339 0.00649 0.0
H366 H 0.7707 0.86412 0.01429 0.0
H367 H 0.82941 0.92208 0.03388 0.0
H368 H 0.75413 0.80903 0.99039 0.0
H369 H 0.80201 0.75258 0.99861 0.0
H370 H 0.78822 0.69713 0.97627 0.0
H371 H 0.73634 0.64233 0.95447 0.0
C372 C 0.99113 0.89402 0.33377 0.0
C373 C 0.96684 0.8796 0.34985 0.0
C374 C 0.99413 0.86324 0.32251 0.0
C375 C 0.97242 0.81725 0.32708 0.0
C376 C 0.94698 0.80289 0.34292 0.0
C377 C 0.94417 0.83358 0.35415 0.0
C378 C 0.97747 0.78343 0.31641 0.0
C379 C 0.99259 0.78951 0.29967 0.0
C380 C 0.99739 0.75468 0.28967 0.0
C381 C 0.99186 0.75283 0.27145 0.0
C382 C 0.99499 0.71985 0.26171 0.0
C383 C 0.00435 0.6883 0.26995 0.0
H384 H 0.0143 0.72517 0.3118 0.0
C385 C 0.01145 0.69104 0.28811 0.0
C386 C 0.00811 0.72389 0.29787 0.0
H387 H 0.01869 0.66724 0.29486 0.0
H388 H 0.00931 0.92934 0.33015 0.0
H389 H 0.01487 0.87611 0.31062 0.0
H390 H 0.92989 0.7678 0.34682 0.0
H391 H 0.92508 0.82126 0.36642 0.0
H392 H 0.96688 0.75132 0.32265 0.0
H393 H -0.0007 0.81966 0.29268 0.0
H394 H 0.98431 0.77651 0.26476 0.0
H395 H 0.99018 0.71913 0.24769 0.0
C396 C 0.10688 0.96996 0.69338 0.0
C397 C 0.1013 0.00798 0.69516 0.0
C398 C 0.13797 0.96907 0.68067 0.0
C399 C 0.16376 0.00611 0.66942 0.0
C400 C 0.15837 0.04408 0.67129 0.0
C401 C 0.12791 0.04524 0.68411 0.0
C402 C 0.19477 0.00559 0.65508 0.0
C403 C 0.2194 0.98327 0.65606 0.0
C404 C 0.25225 0.98544 0.64191 0.0
C405 C 0.29524 0.98601 0.64629 0.0
C406 C 0.32773 0.98968 0.63327 0.0
C407 C 0.31726 0.99177 0.61559 0.0
H408 H 0.20789 0.98531 0.62038 0.0
C409 C 0.27349 0.98968 0.61113 0.0
C410 C 0.24136 0.98681 0.62418 0.0
H411 H 0.26456 0.99104 0.59758 0.0
H412 H 0.08669 0.94063 0.70162 0.0
H413 H 0.14053 0.93887 0.67933 0.0
H414 H 0.17768 0.07295 0.66274 0.0
H415 H 0.12427 0.07496 0.68502 0.0
H416 H 0.19984 0.02671 0.64377 0.0
H417 H 0.21856 0.96592 0.66805 0.0
H418 H 0.30418 0.98456 0.65983 0.0
H419 H 0.36097 0.9906 0.63701 0.0
C420 C 0.14371 0.10906 0.02635 0.0
C421 C 0.09882 0.1063 0.02936 0.0
C422 C 0.17668 0.14032 0.01442 0.0
C423 C 0.16541 0.16958 0.00529 0.0
C424 C 0.12073 0.16697 0.0084 0.0
C425 C 0.08793 0.13593 0.02036 0.0
C426 C 0.19812 0.20175 0.99187 0.0
C427 C 0.24643 0.21897 0.99181 0.0
C428 C 0.27867 0.25187 0.9785 0.0
C429 C 0.3265 0.28327 0.98309 0.0
C430 C 0.35777 0.31498 0.97097 0.0
C431 C 0.34211 0.31555 0.95384 0.0
H432 H 0.22684 0.22731 0.95715 0.0
C433 C 0.2944 0.28353 0.94915 0.0
C434 C 0.263 0.25199 0.96133 0.0
H435 H 0.28147 0.2824 0.93598 0.0
H436 H 0.15307 0.0865 0.03296 0.0
H437 H 0.2102 0.14046 0.01205 0.0
H438 H 0.11102 0.18891 1.00149 0.0
H439 H 0.05362 0.13467 0.02229 0.0
H440 H 0.18187 0.21333 0.9822 0.0
H441 H 0.26349 0.21102 0.00242 0.0
H442 H 0.33953 0.28376 0.9962 0.0
H443 H 0.39403 0.33951 0.97513 0.0
C444 C 0.02983 0.13438 0.33409 0.0
C445 C 0.03672 0.14395 0.35206 0.0
C446 C 0.02804 0.16516 0.32246 0.0
C447 C 0.03267 0.20584 0.32867 0.0
C448 C 0.04044 0.2156 0.34654 0.0
C449 C 0.04293 0.1853 0.35808 0.0
C450 C 0.02613 0.23737 0.31722 0.0
C451 C 0.0377 0.24344 0.30015 0.0
C452 C 0.03125 0.27614 0.28939 0.0
C453 C 0.06569 0.30153 0.27656 0.0
C454 C 0.06121 0.33375 0.26676 0.0
C455 C 0.02152 0.34031 0.26932 0.0
H456 H 0.96334 0.26238 0.30126 0.0
C457 C 0.98624 0.31385 0.28176 0.0
C458 C 0.99114 0.28223 0.29176 0.0
H459 H 0.95528 0.31823 0.28398 0.0
H460 H 0.02467 0.10271 0.32907 0.0
H461 H 0.02111 0.15621 0.30879 0.0
H462 H 0.04395 0.2466 0.35167 0.0
H463 H 0.04807 0.19372 0.37184 0.0
H464 H 0.01334 0.25809 0.32339 0.0
H465 H 0.05517 0.22645 0.29421 0.0
H466 H 0.09665 0.29714 0.27439 0.0
H467 H 0.08863 0.35338 0.2571 0.0
loop_
_geom_bond_atom_site_label_1
_geom_bond_atom_site_label_2
_geom_bond_distance
_geom_bond_site_symmetry_2
_ccdc_geom_bond_type
O0 Cd1 2.223 1_455 S
O0 C8 1.315 . S
Cd1 O0 2.223 1_655 S
Cd1 O4 2.297 . S
Cd1 O5 2.439 . S
Cd1 O11 2.240 1_545 S
Cd2 O3 2.240 1_565 S
Cd2 O10 2.223 1_455 S
Cd2 O12 2.297 . S
Cd2 O13 2.439 . S
O3 Cd2 2.240 1_545 S
O3 C8 1.279 . S
O4 Cd1 2.297 . S
O4 C6 1.247 . S
O5 Cd1 2.439 . S
O5 C6 1.208 . S
C6 O4 1.247 . S
C6 O5 1.208 . S
C7 O12 1.247 . S
C7 O13 1.208 . S
C8 O0 1.315 . S
C8 O3 1.279 . S
C9 O10 1.315 . S
C9 O11 1.279 . S
O10 Cd2 2.223 1_655 S
O10 C9 1.315 . S
O11 Cd1 2.240 1_565 S
O11 C9 1.279 . S
O12 Cd2 2.297 . S
O12 C7 1.247 . S
O13 Cd2 2.439 . S
O13 C7 1.208 . S
O14 Cd15 2.223 1_655 S
O14 C22 1.315 . S
Cd15 O14 2.223 1_455 S
Cd15 O18 2.297 . S
Cd15 O19 2.439 . S
Cd15 O25 2.240 . S
Cd16 O17 2.240 . S
Cd16 O24 2.223 1_655 S
Cd16 O26 2.297 . S
Cd16 O27 2.439 . S
O17 Cd16 2.240 . S
O17 C22 1.279 1_565 S
O18 Cd15 2.297 . S
O18 C20 1.247 . S
O19 Cd15 2.439 . S
O19 C20 1.208 . S
C20 O18 1.247 . S
C20 O19 1.208 . S
C21 O26 1.247 . S
C21 O27 1.208 . S
C22 O14 1.315 . S
C22 O17 1.279 1_545 S
C23 O24 1.315 . S
C23 O25 1.279 1_565 S
O24 Cd16 2.223 1_455 S
O24 C23 1.315 . S
O25 Cd15 2.240 . S
O25 C23 1.279 1_545 S
O26 Cd16 2.297 . S
O26 C21 1.247 . S
O27 Cd16 2.439 . S
O27 C21 1.208 . S
O28 Cd29 2.223 . S
O28 C36 1.315 . S
Cd29 O28 2.223 . S
Cd29 O32 2.297 . S
Cd29 O33 2.439 . S
Cd29 O39 2.240 1_655 S
Cd30 O31 2.240 1_455 S
Cd30 O38 2.223 . S
Cd30 O40 2.297 . S
Cd30 O41 2.439 . S
O31 Cd30 2.240 1_655 S
O31 C36 1.279 1_545 S
O32 Cd29 2.297 . S
O32 C34 1.247 . S
O33 Cd29 2.439 . S
O33 C34 1.208 . S
C34 O32 1.247 . S
C34 O33 1.208 . S
C35 O40 1.247 . S
C35 O41 1.208 . S
C36 O28 1.315 . S
C36 O31 1.279 1_565 S
C37 O38 1.315 . S
C37 O39 1.279 1_545 S
O38 Cd30 2.223 . S
O38 C37 1.315 . S
O39 Cd29 2.240 1_455 S
O39 C37 1.279 1_565 S
O40 Cd30 2.297 . S
O40 C35 1.247 . S
O41 Cd30 2.439 . S
O41 C35 1.208 . S
C42 C43 1.384 1_655 S
C42 C44 1.384 . S
C42 H70 0.931 . S
C43 C42 1.384 1_455 S
C43 C46 1.382 . S
C44 C42 1.384 . S
C44 C45 1.381 1_655 S
C44 H71 0.930 . S
C45 C44 1.381 1_455 S
C45 C47 1.381 . S
C45 C48 1.487 . S
C46 C43 1.382 . S
C46 C47 1.387 . S
C46 H72 0.930 . S
C47 C45 1.381 . S
C47 C46 1.387 . S
C47 H73 0.931 . S
C48 C45 1.487 . S
C48 C55 1.399 1_455 S
C48 N86 1.343 . S
C49 C50 1.384 1_455 S
C49 C51 1.384 . S
C49 H74 0.931 . S
C50 C49 1.384 1_655 S
C50 C53 1.382 . S
C51 C49 1.384 . S
C51 C52 1.381 1_455 S
C51 H75 0.930 . S
C52 C51 1.381 1_655 S
C52 C54 1.381 . S
C52 C55 1.487 . S
C53 C50 1.382 . S
C53 C54 1.387 . S
C53 H76 0.930 . S
C54 C52 1.381 . S
C54 C53 1.387 . S
C54 H77 0.931 . S
C55 C48 1.399 1_655 S
C55 C52 1.487 . S
C55 N87 1.343 . S
C56 C57 1.384 1_455 S
C56 C58 1.384 . S
C56 H78 0.931 . S
C57 C56 1.384 1_655 S
C57 C60 1.382 . S
C58 C56 1.384 . S
C58 C59 1.381 1_455 S
C58 H79 0.930 . S
C59 C58 1.381 1_655 S
C59 C61 1.381 . S
C59 C62 1.487 . S
C60 C57 1.382 . S
C60 C61 1.387 . S
C60 H80 0.930 . S
C61 C59 1.381 . S
C61 C60 1.387 . S
C61 H81 0.931 . S
C62 C59 1.487 . S
C62 C69 1.399 1_655 S
C62 N87 1.343 . S
C63 C64 1.384 1_655 S
C63 C65 1.384 . S
C63 H82 0.931 . S
C64 C63 1.384 1_455 S
C64 C67 1.382 . S
C65 C63 1.384 . S
C65 C66 1.381 1_655 S
C65 H83 0.930 . S
C66 C65 1.381 1_455 S
C66 C68 1.381 . S
C66 C69 1.487 . S
C67 C64 1.382 . S
C67 C68 1.387 . S
C67 H84 0.930 . S
C68 C66 1.381 . S
C68 C67 1.387 . S
C68 H85 0.931 . S
C69 C62 1.399 1_455 S
C69 C66 1.487 . S
C69 N86 1.343 . S
H70 C42 0.931 . S
H71 C44 0.930 . S
H72 C46 0.930 . S
H73 C47 0.931 . S
H74 C49 0.931 . S
H75 C51 0.930 . S
H76 C53 0.930 . S
H77 C54 0.931 . S
H78 C56 0.931 . S
H79 C58 0.930 . S
H80 C60 0.930 . S
H81 C61 0.931 . S
H82 C63 0.931 . S
H83 C65 0.930 . S
H84 C67 0.930 . S
H85 C68 0.931 . S
N86 C48 1.343 . S
N86 C69 1.343 . S
N87 C55 1.343 . S
N87 C62 1.343 . S
C88 C89 1.384 1_545 S
C88 C90 1.384 . S
C88 H116 0.931 . S
C89 C88 1.384 1_565 S
C89 C92 1.382 . S
C90 C88 1.384 . S
C90 C91 1.381 1_545 S
C90 H117 0.930 . S
C91 C90 1.381 1_565 S
C91 C93 1.381 . S
C91 C94 1.487 . S
C92 C89 1.382 . S
C92 C93 1.387 . S
C92 H118 0.930 . S
C93 C91 1.381 . S
C93 C92 1.387 . S
C93 H119 0.931 . S
C94 C91 1.487 . S
C94 C101 1.399 1_565 S
C94 N132 1.343 . S
C95 C96 1.384 1_565 S
C95 C97 1.384 . S
C95 H120 0.931 . S
C96 C95 1.384 1_545 S
C96 C99 1.382 . S
C97 C95 1.384 . S
C97 C98 1.381 1_565 S
C97 H121 0.930 . S
C98 C97 1.381 1_545 S
C98 C100 1.381 . S
C98 C101 1.487 . S
C99 C96 1.382 . S
C99 C100 1.387 . S
C99 H122 0.930 . S
C100 C98 1.381 . S
C100 C99 1.387 . S
C100 H123 0.931 . S
C101 C94 1.399 1_545 S
C101 C98 1.487 . S
C101 N133 1.343 . S
C102 C103 1.384 1_565 S
C102 C104 1.384 . S
C102 H124 0.931 . S
C103 C102 1.384 1_545 S
C103 C106 1.382 . S
C104 C102 1.384 . S
C104 C105 1.381 1_565 S
C104 H125 0.930 . S
C105 C104 1.381 1_545 S
C105 C107 1.381 . S
C105 C108 1.487 . S
C106 C103 1.382 . S
C106 C107 1.387 . S
C106 H126 0.930 . S
C107 C105 1.381 . S
C107 C106 1.387 . S
C107 H127 0.931 . S
C108 C105 1.487 . S
C108 C115 1.399 1_545 S
C108 N133 1.343 . S
C109 C110 1.384 1_545 S
C109 C111 1.384 . S
C109 H128 0.931 . S
C110 C109 1.384 1_565 S
C110 C113 1.382 . S
C111 C109 1.384 . S
C111 C112 1.381 1_545 S
C111 H129 0.930 . S
C112 C111 1.381 1_565 S
C112 C114 1.381 . S
C112 C115 1.487 . S
C113 C110 1.382 . S
C113 C114 1.387 . S
C113 H130 0.930 . S
C114 C112 1.381 . S
C114 C113 1.387 . S
C114 H131 0.931 . S
C115 C108 1.399 1_565 S
C115 C112 1.487 . S
C115 N132 1.343 . S
H116 C88 0.931 . S
H117 C90 0.930 . S
H118 C92 0.930 . S
H119 C93 0.931 . S
H120 C95 0.931 . S
H121 C97 0.930 . S
H122 C99 0.930 . S
H123 C100 0.931 . S
H124 C102 0.931 . S
H125 C104 0.930 . S
H126 C106 0.930 . S
H127 C107 0.931 . S
H128 C109 0.931 . S
H129 C111 0.930 . S
H130 C113 0.930 . S
H131 C114 0.931 . S
N132 C94 1.343 . S
N132 C115 1.343 . S
N133 C101 1.343 . S
N133 C108 1.343 . S
C134 C135 1.384 . S
C134 C136 1.384 . S
C134 H162 0.931 . S
C135 C134 1.384 . S
C135 C138 1.382 . S
C136 C134 1.384 . S
C136 C137 1.381 . S
C136 H163 0.930 . S
C137 C136 1.381 . S
C137 C139 1.381 . S
C137 C140 1.487 . S
C138 C135 1.382 . S
C138 C139 1.387 . S
C138 H164 0.930 . S
C139 C137 1.381 . S
C139 C138 1.387 . S
C139 H165 0.931 . S
C140 C137 1.487 . S
C140 C147 1.399 . S
C140 N178 1.343 . S
C141 C142 1.384 . S
C141 C143 1.384 . S
C141 H166 0.931 . S
C142 C141 1.384 . S
C142 C145 1.382 . S
C143 C141 1.384 . S
C143 C144 1.381 . S
C143 H167 0.930 . S
C144 C143 1.381 . S
C144 C146 1.381 . S
C144 C147 1.487 . S
C145 C142 1.382 . S
C145 C146 1.387 . S
C145 H168 0.930 . S
C146 C144 1.381 . S
C146 C145 1.387 . S
C146 H169 0.931 . S
C147 C140 1.399 . S
C147 C144 1.487 . S
C147 N179 1.343 . S
C148 C149 1.384 . S
C148 C150 1.384 . S
C148 H170 0.931 . S
C149 C148 1.384 . S
C149 C152 1.382 . S
C150 C148 1.384 . S
C150 C151 1.381 . S
C150 H171 0.930 . S
C151 C150 1.381 . S
C151 C153 1.381 . S
C151 C154 1.487 . S
C152 C149 1.382 . S
C152 C153 1.387 . S
C152 H172 0.930 . S
C153 C151 1.381 . S
C153 C152 1.387 . S
C153 H173 0.931 . S
C154 C151 1.487 . S
C154 C161 1.399 . S
C154 N179 1.343 . S
C155 C156 1.384 . S
C155 C157 1.384 . S
C155 H174 0.931 . S
C156 C155 1.384 . S
C156 C159 1.382 . S
C157 C155 1.384 . S
C157 C158 1.381 . S
C157 H175 0.930 . S
C158 C157 1.381 . S
C158 C160 1.381 . S
C158 C161 1.487 . S
C159 C156 1.382 . S
C159 C160 1.387 . S
C159 H176 0.930 . S
C160 C158 1.381 . S
C160 C159 1.387 . S
C160 H177 0.931 . S
C161 C154 1.399 . S
C161 C158 1.487 . S
C161 N178 1.343 . S
H162 C134 0.931 . S
H163 C136 0.930 . S
H164 C138 0.930 . S
H165 C139 0.931 . S
H166 C141 0.931 . S
H167 C143 0.930 . S
H168 C145 0.930 . S
H169 C146 0.931 . S
H170 C148 0.931 . S
H171 C150 0.930 . S
H172 C152 0.930 . S
H173 C153 0.931 . S
H174 C155 0.931 . S
H175 C157 0.930 . S
H176 C159 0.930 . S
H177 C160 0.931 . S
N178 C140 1.343 . S
N178 C161 1.343 . S
N179 C147 1.343 . S
N179 C154 1.343 . S
C180 C181 1.379 1_655 S
C180 C182 1.383 . S
C180 H196 0.951 . S
C181 C180 1.379 1_455 S
C181 C185 1.386 . S
C182 C180 1.383 . S
C182 C183 1.402 . S
C182 H197 0.951 . S
C183 C182 1.402 . S
C183 C184 1.375 1_655 S
C183 C186 1.473 . S
C184 C183 1.375 1_455 S
C184 C185 1.367 . S
C184 H198 0.951 . S
C185 C181 1.386 . S
C185 C184 1.367 . S
C185 H199 0.950 . S
C186 C183 1.473 . S
C186 C187 1.318 . S
C186 H200 0.936 1_655 S
C187 C186 1.318 . S
C187 C188 1.479 . S
C187 H201 0.950 . S
C188 C187 1.479 . S
C188 C189 1.375 . S
C188 C194 1.404 1_655 S
C189 C188 1.375 . S
C189 C190 1.369 . S
C189 H202 0.950 . S
C190 C189 1.369 . S
C190 C191 1.392 . S
C190 H203 0.951 . S
C191 C190 1.392 . S
C191 C193 1.384 1_655 S
H192 C194 0.949 . S
C193 C191 1.384 1_455 S
C193 C194 1.385 . S
C193 H195 0.950 . S
C194 C188 1.404 1_455 S
C194 H192 0.949 . S
C194 C193 1.385 . S
H195 C193 0.950 . S
H196 C180 0.951 . S
H197 C182 0.951 . S
H198 C184 0.951 . S
H199 C185 0.950 . S
H200 C186 0.936 1_455 S
H201 C187 0.950 . S
H202 C189 0.950 . S
H203 C190 0.951 . S
C204 C205 1.386 . S
C204 C206 1.383 . S
C204 H220 0.951 1_545 S
C205 C204 1.386 . S
C205 C209 1.383 . S
C206 C204 1.383 . S
C206 C207 1.402 . S
C206 H221 0.951 . S
C207 C206 1.402 . S
C207 C208 1.375 . S
C207 C210 1.481 . S
C208 C207 1.375 . S
C208 C209 1.367 . S
C208 H222 0.951 . S
C209 C205 1.383 . S
C209 C208 1.367 . S
C209 H223 0.950 . S
C210 C207 1.481 . S
C210 C211 1.297 . S
C210 H224 0.950 . S
C211 C210 1.297 . S
C211 C212 1.479 . S
C211 H225 0.950 . S
C212 C211 1.479 . S
C212 C213 1.375 . S
C212 C218 1.404 . S
C213 C212 1.375 . S
C213 C214 1.363 . S
C213 H226 0.950 . S
C214 C213 1.363 . S
C214 C215 1.403 . S
C214 H227 0.945 1_545 S
C215 C214 1.403 . S
C215 C217 1.384 . S
H216 C218 0.949 . S
C217 C215 1.384 . S
C217 C218 1.385 . S
C217 H219 0.950 . S
C218 C212 1.404 . S
C218 H216 0.949 . S
C218 C217 1.385 . S
H219 C217 0.950 . S
H220 C204 0.951 1_565 S
H221 C206 0.951 . S
H222 C208 0.951 . S
H223 C209 0.950 . S
H224 C210 0.950 . S
H225 C211 0.950 . S
H226 C213 0.950 . S
H227 C214 0.945 1_565 S
C228 C229 1.386 . S
C228 C230 1.383 . S
C228 H244 0.951 . S
C229 C228 1.386 . S
C229 C233 1.383 . S
C230 C228 1.383 . S
C230 C231 1.402 . S
C230 H245 0.951 . S
C231 C230 1.402 . S
C231 C232 1.375 . S
C231 C234 1.481 . S
C232 C231 1.375 . S
C232 C233 1.367 . S
C232 H246 0.951 . S
C233 C229 1.383 . S
C233 C232 1.367 . S
C233 H247 0.950 . S
C234 C231 1.481 . S
C234 C235 1.297 . S
C234 H248 0.950 . S
C235 C234 1.297 . S
C235 C236 1.479 . S
C235 H249 0.950 . S
C236 C235 1.479 . S
C236 C237 1.375 . S
C236 C242 1.404 . S
C237 C236 1.375 . S
C237 C238 1.369 . S
C237 H250 0.950 . S
C238 C237 1.369 . S
C238 C239 1.392 . S
C238 H251 0.951 . S
C239 C238 1.392 . S
C239 C241 1.384 . S
H240 C242 0.949 . S
C241 C239 1.384 . S
C241 C242 1.385 . S
C241 H243 0.950 . S
C242 C236 1.404 . S
C242 H240 0.949 . S
C242 C241 1.385 . S
H243 C241 0.950 . S
H244 C228 0.951 . S
H245 C230 0.951 . S
H246 C232 0.951 . S
H247 C233 0.950 . S
H248 C234 0.950 . S
H249 C235 0.950 . S
H250 C237 0.950 . S
H251 C238 0.951 . S
C252 C253 1.386 1_655 S
C252 C254 1.383 . S
C252 H268 0.951 . S
C253 C252 1.386 1_455 S
C253 C257 1.383 . S
C254 C252 1.383 . S
C254 C255 1.402 1_655 S
C254 H269 0.951 . S
C255 C254 1.402 1_455 S
C255 C256 1.375 . S
C255 C258 1.481 . S
C256 C255 1.375 . S
C256 C257 1.367 . S
C256 H270 0.951 . S
C257 C253 1.383 . S
C257 C256 1.367 . S
C257 H271 0.950 . S
C258 C255 1.481 . S
C258 C259 1.297 . S
C258 H272 0.950 . S
C259 C258 1.297 . S
C259 C260 1.479 . S
C259 H273 0.950 . S
C260 C259 1.479 . S
C260 C261 1.375 1_455 S
C260 C266 1.404 . S
C261 C260 1.375 1_655 S
C261 C262 1.369 . S
C261 H274 0.950 . S
C262 C261 1.369 . S
C262 C263 1.392 1_655 S
C262 H275 0.951 . S
C263 C262 1.392 1_455 S
C263 C265 1.384 . S
H264 C266 0.949 . S
C265 C263 1.384 . S
C265 C266 1.385 . S
C265 H267 0.950 . S
C266 C260 1.404 . S
C266 H264 0.949 . S
C266 C265 1.385 . S
H267 C265 0.950 . S
H268 C252 0.951 . S
H269 C254 0.951 . S
H270 C256 0.951 . S
H271 C257 0.950 . S
H272 C258 0.950 . S
H273 C259 0.950 . S
H274 C261 0.950 . S
H275 C262 0.951 . S
C276 C277 1.393 . S
C276 C278 1.383 . S
C276 H292 0.951 . S
C277 C276 1.393 . S
C277 C281 1.378 1_565 S
C278 C276 1.383 . S
C278 C279 1.402 1_565 S
C278 H293 0.951 . S
C279 C278 1.402 1_545 S
C279 C280 1.375 . S
C279 C282 1.481 . S
C280 C279 1.375 . S
C280 C281 1.367 . S
C280 H294 0.951 . S
C281 C277 1.378 1_545 S
C281 C280 1.367 . S
C281 H295 0.950 . S
C282 C279 1.481 . S
C282 C283 1.297 1_545 S
C282 H296 0.950 . S
C283 C282 1.297 1_565 S
C283 C284 1.479 . S
C283 H297 0.950 . S
C284 C283 1.479 . S
C284 C285 1.375 . S
C284 C290 1.404 1_565 S
C285 C284 1.375 . S
C285 C286 1.369 . S
C285 H298 0.950 . S
C286 C285 1.369 . S
C286 C287 1.392 . S
C286 H299 0.951 . S
C287 C286 1.392 . S
C287 C289 1.384 1_565 S
H288 C290 0.949 . S
C289 C287 1.384 1_545 S
C289 C290 1.385 . S
C289 H291 0.950 . S
C290 C284 1.404 1_545 S
C290 H288 0.949 . S
C290 C289 1.385 . S
H291 C289 0.950 . S
H292 C276 0.951 . S
H293 C278 0.951 . S
H294 C280 0.951 . S
H295 C281 0.950 . S
H296 C282 0.950 . S
H297 C283 0.950 . S
H298 C285 0.950 . S
H299 C286 0.951 . S
C300 C301 1.386 . S
C300 C302 1.383 . S
C300 H316 0.951 . S
C301 C300 1.386 . S
C301 C305 1.383 . S
C302 C300 1.383 . S
C302 C303 1.402 . S
C302 H317 0.951 . S
C303 C302 1.402 . S
C303 C304 1.375 . S
C303 C306 1.481 . S
C304 C303 1.375 . S
C304 C305 1.367 . S
C304 H318 0.951 . S
C305 C301 1.383 . S
C305 C304 1.367 . S
C305 H319 0.950 . S
C306 C303 1.481 . S
C306 C307 1.297 . S
C306 H320 0.950 . S
C307 C306 1.297 . S
C307 C308 1.479 . S
C307 H321 0.950 . S
C308 C307 1.479 . S
C308 C309 1.375 . S
C308 C314 1.404 . S
C309 C308 1.375 . S
C309 C310 1.369 . S
C309 H322 0.950 . S
C310 C309 1.369 . S
C310 C311 1.392 . S
C310 H323 0.951 . S
C311 C310 1.392 . S
C311 C313 1.384 . S
H312 C314 0.949 . S
C313 C311 1.384 . S
C313 C314 1.385 . S
C313 H315 0.950 . S
C314 C308 1.404 . S
C314 H312 0.949 . S
C314 C313 1.385 . S
H315 C313 0.950 . S
H316 C300 0.951 . S
H317 C302 0.951 . S
H318 C304 0.951 . S
H319 C305 0.950 . S
H320 C306 0.950 . S
H321 C307 0.950 . S
H322 C309 0.950 . S
H323 C310 0.951 . S
C324 C325 1.386 1_545 S
C324 C326 1.383 . S
C324 H340 0.951 . S
C325 C324 1.386 1_565 S
C325 C329 1.383 . S
C326 C324 1.383 . S
C326 C327 1.402 1_545 S
C326 H341 0.951 . S
C327 C326 1.402 1_565 S
C327 C328 1.375 . S
C327 C330 1.481 . S
C328 C327 1.375 . S
C328 C329 1.367 . S
C328 H342 0.951 . S
C329 C325 1.383 . S
C329 C328 1.367 . S
C329 H343 0.950 . S
C330 C327 1.481 . S
C330 C331 1.297 1_565 S
C330 H344 0.950 . S
C331 C330 1.297 1_545 S
C331 C332 1.479 1_545 S
C331 H345 0.950 . S
C332 C331 1.479 1_565 S
C332 C333 1.375 1_565 S
C332 C338 1.404 . S
C333 C332 1.375 1_545 S
C333 C334 1.369 . S
C333 H346 0.950 . S
C334 C333 1.369 . S
C334 C335 1.392 1_545 S
C334 H347 0.951 . S
C335 C334 1.392 1_565 S
C335 C337 1.384 . S
H336 C338 0.949 . S
C337 C335 1.384 . S
C337 C338 1.385 . S
C337 H339 0.950 . S
C338 C332 1.404 . S
C338 H336 0.949 . S
C338 C337 1.385 . S
H339 C337 0.950 . S
H340 C324 0.951 . S
H341 C326 0.951 . S
H342 C328 0.951 . S
H343 C329 0.950 . S
H344 C330 0.950 . S
H345 C331 0.950 . S
H346 C333 0.950 . S
H347 C334 0.951 . S
C348 C349 1.386 . S
C348 C350 1.383 . S
C348 H364 0.951 . S
C349 C348 1.386 . S
C349 C353 1.383 . S
C350 C348 1.383 . S
C350 C351 1.389 1_554 S
C350 H365 0.951 . S
C351 C350 1.389 1_556 S
C351 C352 1.377 . S
C351 C354 1.492 . S
C352 C351 1.377 . S
C352 C353 1.367 1_556 S
C352 H366 0.951 . S
C353 C349 1.383 . S
C353 C352 1.367 1_554 S
C353 H367 0.950 . S
C354 C351 1.492 . S
C354 C355 1.297 . S
C354 H368 0.950 . S
C355 C354 1.297 . S
C355 C356 1.479 . S
C355 H369 0.950 . S
C356 C355 1.479 . S
C356 C357 1.375 . S
C356 C362 1.404 . S
C357 C356 1.375 . S
C357 C358 1.369 . S
C357 H370 0.950 . S
C358 C357 1.369 . S
C358 C359 1.392 . S
C358 H371 0.951 . S
C359 C358 1.392 . S
C359 C361 1.384 . S
H360 C362 0.949 . S
C361 C359 1.384 . S
C361 C362 1.385 . S
C361 H363 0.950 . S
C362 C356 1.404 . S
C362 H360 0.949 . S
C362 C361 1.385 . S
H363 C361 0.950 . S
H364 C348 0.951 . S
H365 C350 0.951 . S
H366 C352 0.951 . S
H367 C353 0.950 . S
H368 C354 0.950 . S
H369 C355 0.950 . S
H370 C357 0.950 . S
H371 C358 0.951 . S
C372 C373 1.386 1_655 S
C372 C374 1.386 . S
C372 H388 0.951 . S
C373 C372 1.386 1_455 S
C373 C377 1.383 . S
C374 C372 1.386 . S
C374 C375 1.396 1_655 S
C374 H389 0.952 . S
C375 C374 1.396 1_455 S
C375 C376 1.375 . S
C375 C378 1.481 . S
C376 C375 1.375 . S
C376 C377 1.367 . S
C376 H390 0.951 . S
C377 C373 1.383 . S
C377 C376 1.367 . S
C377 H391 0.950 . S
C378 C375 1.481 . S
C378 C379 1.297 . S
C378 H392 0.950 . S
C379 C378 1.297 . S
C379 C380 1.479 . S
C379 H393 0.950 . S
C380 C379 1.479 . S
C380 C381 1.375 1_455 S
C380 C386 1.404 . S
C381 C380 1.375 1_655 S
C381 C382 1.369 . S
C381 H394 0.950 . S
C382 C381 1.369 . S
C382 C383 1.392 1_655 S
C382 H395 0.951 . S
C383 C382 1.392 1_455 S
C383 C385 1.384 . S
H384 C386 0.949 . S
C385 C383 1.384 . S
C385 C386 1.385 . S
C385 H387 0.950 . S
C386 C380 1.404 . S
C386 H384 0.949 . S
C386 C385 1.385 . S
H387 C385 0.950 . S
H388 C372 0.951 . S
H389 C374 0.952 . S
H390 C376 0.951 . S
H391 C377 0.950 . S
H392 C378 0.950 . S
H393 C379 0.950 . S
H394 C381 0.950 . S
H395 C382 0.951 . S
C396 C397 1.386 . S
C396 C398 1.383 1_545 S
C396 H412 0.951 . S
C397 C396 1.386 . S
C397 C401 1.383 1_545 S
C398 C396 1.383 1_565 S
C398 C399 1.402 . S
C398 H413 0.951 . S
C399 C398 1.402 . S
C399 C400 1.375 . S
C399 C402 1.481 . S
C400 C399 1.375 . S
C400 C401 1.367 . S
C400 H414 0.951 . S
C401 C397 1.383 1_565 S
C401 C400 1.367 . S
C401 H415 0.950 . S
C402 C399 1.481 . S
C402 C403 1.297 . S
C402 H416 0.950 . S
C403 C402 1.297 . S
C403 C404 1.479 . S
C403 H417 0.950 . S
C404 C403 1.479 . S
C404 C405 1.375 . S
C404 C410 1.404 . S
C405 C404 1.375 . S
C405 C406 1.369 . S
C405 H418 0.950 . S
C406 C405 1.369 . S
C406 C407 1.392 . S
C406 H419 0.951 1_565 S
C407 C406 1.392 . S
C407 C409 1.384 . S
H408 C410 0.949 . S
C409 C407 1.384 . S
C409 C410 1.385 . S
C409 H411 0.950 . S
C410 C404 1.404 . S
C410 H408 0.949 . S
C410 C409 1.385 . S
H411 C409 0.950 . S
H412 C396 0.951 . S
H413 C398 0.951 . S
H414 C400 0.951 . S
H415 C401 0.950 . S
H416 C402 0.950 . S
H417 C403 0.950 . S
H418 C405 0.950 . S
H419 C406 0.951 1_545 S
C420 C421 1.386 . S
C420 C422 1.383 . S
C420 H436 0.951 . S
C421 C420 1.386 . S
C421 C425 1.383 . S
C422 C420 1.383 . S
C422 C423 1.402 1_554 S
C422 H437 0.951 . S
C423 C422 1.402 1_556 S
C423 C424 1.375 . S
C423 C426 1.481 . S
C424 C423 1.375 . S
C424 C425 1.367 1_556 S
C424 H438 0.951 . S
C425 C421 1.383 . S
C425 C424 1.367 1_554 S
C425 H439 0.963 . S
C426 C423 1.481 . S
C426 C427 1.297 . S
C426 H440 0.950 . S
C427 C426 1.297 . S
C427 C428 1.479 . S
C427 H441 0.950 . S
C428 C427 1.479 . S
C428 C429 1.375 . S
C428 C434 1.404 . S
C429 C428 1.375 . S
C429 C430 1.369 . S
C429 H442 0.950 . S
C430 C429 1.369 . S
C430 C431 1.392 . S
C430 H443 0.951 . S
C431 C430 1.392 . S
C431 C433 1.384 . S
H432 C434 0.949 . S
C433 C431 1.384 . S
C433 C434 1.385 . S
C433 H435 0.950 . S
C434 C428 1.404 . S
C434 H432 0.949 . S
C434 C433 1.385 . S
H435 C433 0.950 . S
H436 C420 0.951 . S
H437 C422 0.951 . S
H438 C424 0.951 . S
H439 C425 0.963 . S
H440 C426 0.950 . S
H441 C427 0.950 . S
H442 C429 0.950 . S
H443 C430 0.951 . S
C444 C445 1.386 1_455 S
C444 C446 1.383 . S
C444 H460 0.951 . S
C445 C444 1.386 1_655 S
C445 C449 1.383 . S
C446 C444 1.383 . S
C446 C447 1.402 1_455 S
C446 H461 0.951 . S
C447 C446 1.402 1_655 S
C447 C448 1.375 . S
C447 C450 1.481 . S
C448 C447 1.375 . S
C448 C449 1.367 . S
C448 H462 0.951 . S
C449 C445 1.383 . S
C449 C448 1.367 . S
C449 H463 0.950 . S
C450 C447 1.481 . S
C450 C451 1.297 . S
C450 H464 0.950 . S
C451 C450 1.297 . S
C451 C452 1.479 . S
C451 H465 0.950 1_655 S
C452 C451 1.479 . S
C452 C453 1.375 1_655 S
C452 C458 1.404 . S
C453 C452 1.375 1_455 S
C453 C454 1.369 . S
C453 H466 0.950 . S
C454 C453 1.369 . S
C454 C455 1.392 1_455 S
C454 H467 0.951 . S
C455 C454 1.392 1_655 S
C455 C457 1.384 . S
H456 C458 0.949 . S
C457 C455 1.384 . S
C457 C458 1.385 . S
C457 H459 0.950 . S
C458 C452 1.404 . S
C458 H456 0.949 . S
C458 C457 1.385 . S
H459 C457 0.950 . S
H460 C444 0.951 . S
H461 C446 0.951 . S
H462 C448 0.951 . S
H463 C449 0.950 . S
H464 C450 0.950 . S
H465 C451 0.950 1_455 S
H466 C453 0.950 . S
H467 C454 0.951 . S
C191 C50 1.468 . S
C181 C6 1.472 1_455 S
C205 C22 1.564 . S
C215 C89 1.602 1_545 S
C229 C34 1.252 . S
C239 C156 1.244 . S
C253 C7 1.453 . S
C263 C57 1.483 1_455 S
C287 C110 1.597 . S
C277 C23 1.585 . S
C301 C35 1.205 . S
C311 C135 1.241 . S
C335 C96 1.595 1_565 S
C325 C36 1.576 . S
C349 C9 1.831 . S
C359 C149 1.848 . S
C383 C64 1.464 . S
C373 C21 1.464 1_455 S
C407 C103 1.601 1_565 S
C397 C37 1.597 . S
C431 C142 1.836 . S
C421 C8 1.824 . S
C445 C20 1.469 1_655 S
C455 C43 1.466 1_655 S
