# Generated by pormake.
# Topology llj, (12,3)-cn, num edge types: 1
# Building blocks:
#     Node 0, Type 0, BuildingBlock: QEWDON_clean_sbu_0, # of connection points: 12
#     Node 1, Type 0, BuildingBlock: QEWDON_clean_sbu_0, # of connection points: 12
#     Node 2, Type 1, BuildingBlock: VETTIZ_charged_linker_0, # of connection points: 3
#     Node 3, Type 1, BuildingBlock: VETTIZ_charged_linker_0, # of connection points: 3
#     Node 4, Type 1, BuildingBlock: VETTIZ_charged_linker_0, # of connection points: 3
#     Node 5, Type 1, BuildingBlock: VETTIZ_charged_linker_0, # of connection points: 3
#     Node 6, Type 1, BuildingBlock: VETTIZ_charged_linker_0, # of connection points: 3
#     Node 7, Type 1, BuildingBlock: VETTIZ_charged_linker_0, # of connection points: 3
#     Node 8, Type 1, BuildingBlock: VETTIZ_charged_linker_0, # of connection points: 3
#     Node 9, Type 1, BuildingBlock: VETTIZ_charged_linker_0, # of connection points: 3
#     Edge 10, Type (0, 1), BuildingBlock: MIFKUJ_clean_linker_0, # of connection points: 2
#     Edge 11, Type (0, 1), BuildingBlock: MIFKUJ_clean_linker_0, # of connection points: 2
#     Edge 12, Type (0, 1), BuildingBlock: MIFKUJ_clean_linker_0, # of connection points: 2
#     Edge 13, Type (0, 1), BuildingBlock: MIFKUJ_clean_linker_0, # of connection points: 2
#     Edge 14, Type (0, 1), BuildingBlock: MIFKUJ_clean_linker_0, # of connection points: 2
#     Edge 15, Type (0, 1), BuildingBlock: MIFKUJ_clean_linker_0, # of connection points: 2
#     Edge 16, Type (0, 1), BuildingBlock: MIFKUJ_clean_linker_0, # of connection points: 2
#     Edge 17, Type (0, 1), BuildingBlock: MIFKUJ_clean_linker_0, # of connection points: 2
#     Edge 18, Type (0, 1), BuildingBlock: MIFKUJ_clean_linker_0, # of connection points: 2
#     Edge 19, Type (0, 1), BuildingBlock: MIFKUJ_clean_linker_0, # of connection points: 2
#     Edge 20, Type (0, 1), BuildingBlock: MIFKUJ_clean_linker_0, # of connection points: 2
#     Edge 21, Type (0, 1), BuildingBlock: MIFKUJ_clean_linker_0, # of connection points: 2
#     Edge 22, Type (0, 1), BuildingBlock: MIFKUJ_clean_linker_0, # of connection points: 2
#     Edge 23, Type (0, 1), BuildingBlock: MIFKUJ_clean_linker_0, # of connection points: 2
#     Edge 24, Type (0, 1), BuildingBlock: MIFKUJ_clean_linker_0, # of connection points: 2
#     Edge 25, Type (0, 1), BuildingBlock: MIFKUJ_clean_linker_0, # of connection points: 2
#     Edge 26, Type (0, 1), BuildingBlock: MIFKUJ_clean_linker_0, # of connection points: 2
#     Edge 27, Type (0, 1), BuildingBlock: MIFKUJ_clean_linker_0, # of connection points: 2
#     Edge 28, Type (0, 1), BuildingBlock: MIFKUJ_clean_linker_0, # of connection points: 2
#     Edge 29, Type (0, 1), BuildingBlock: MIFKUJ_clean_linker_0, # of connection points: 2
#     Edge 30, Type (0, 1), BuildingBlock: MIFKUJ_clean_linker_0, # of connection points: 2
#     Edge 31, Type (0, 1), BuildingBlock: MIFKUJ_clean_linker_0, # of connection points: 2
#     Edge 32, Type (0, 1), BuildingBlock: MIFKUJ_clean_linker_0, # of connection points: 2
#     Edge 33, Type (0, 1), BuildingBlock: MIFKUJ_clean_linker_0, # of connection points: 2
# Relax obj value: 0.012
# Max RMSD: 0.055
# Mean RMSD: 0.051
data_MOF--net-llj--node1-QEWDON_clean_sbu_0--node2-VETTIZ_charged_linker_0--edge1-MIFKUJ_clean_linker_0
_symmetry_space_group_name_H-M    P1
_symmetry_Int_Tables_number       1
_symmetry_cell_setting            triclinic
loop_
_symmetry_equiv_pos_as_xyz
'x, y, z'
_cell_length_a     54.759493
_cell_length_b     54.76917
_cell_length_c     38.539338
_cell_angle_alpha  90.004706
_cell_angle_beta   90.027474
_cell_angle_gamma 90.068295
loop_
_atom_site_label
_atom_site_type_symbol
_atom_site_fract_x
_atom_site_fract_y
_atom_site_fract_z
_atom_type_partial_charge
Zn0 Zn 0.95172 0.04719 0.97661 0.0
Zn1 Zn 0.95524 0.04397 0.05991 0.0
O2 O 0.97458 0.03963 0.0164 0.0
H3 H 0.98878 0.02935 0.01382 0.0
C4 C 0.95201 0.98747 0.92424 0.0
O5 O 0.97427 0.99316 0.93408 0.0
Zn6 Zn 0.04149 0.95825 0.05989 0.0
Zn7 Zn 0.04094 0.9512 0.97781 0.0
O8 O 0.01919 0.95767 0.01901 0.0
H9 H 0.00416 0.96677 0.01727 0.0
Zn10 Zn 0.95448 0.95291 0.98207 0.0
O11 O 0.95775 0.97657 0.02175 0.0
Zn12 Zn 0.95558 0.95626 0.0641 0.0
H13 H 0.9663 0.99191 0.01968 0.0
Zn14 Zn 0.04489 0.04201 0.96843 0.0
O15 O 0.03864 0.02202 0.01132 0.0
H16 H 0.02873 0.00742 0.01113 0.0
Zn17 Zn 0.04227 0.04533 0.05073 0.0
C18 C 0.06375 0.00156 0.92934 0.0
O19 O 0.0659 0.99304 0.96105 0.0
O20 O 0.92249 0.06798 0.99209 0.0
O21 O 0.92558 0.06546 0.04958 0.0
O22 O 0.07214 0.93299 0.99222 0.0
O23 O 0.07276 0.93982 0.04915 0.0
O24 O 0.93615 0.92172 0.99636 0.0
O25 O 0.93656 0.92515 0.05386 0.0
C26 C 0.999 0.06095 0.09266 0.0
O27 O 0.06591 0.07202 0.97918 0.0
O28 O 0.06243 0.07485 0.03654 0.0
O29 O 0.02327 0.93974 0.93316 0.0
C30 C 0.915 0.07357 0.02235 0.0
O31 O 0.96809 0.05696 0.93026 0.0
C32 C 0.00249 0.93946 0.10146 0.0
O33 O 0.9407 0.97025 0.93936 0.0
C34 C 0.0821 0.9304 0.0219 0.0
O35 O 0.05456 0.0226 0.92483 0.0
C36 C 0.93774 0.9985 0.10107 0.0
O37 O 0.97602 0.06006 0.09694 0.0
O38 O 0.0079 0.05275 0.06469 0.0
C39 C 0.93022 0.91385 0.02631 0.0
O40 O 0.0256 0.94072 0.09988 0.0
O41 O 0.99036 0.95016 0.07786 0.0
C42 C 0.05917 0.00566 0.09197 0.0
O43 O 0.93845 0.97532 0.10145 0.0
O44 O 0.94754 0.00956 0.0756 0.0
C45 C 0.07094 0.0826 0.00773 0.0
O46 O 0.06004 0.02876 0.08992 0.0
O47 O 0.04684 0.99394 0.06963 0.0
C48 C 0.00453 0.92634 0.93729 0.0
O49 O 0.99755 0.92085 0.96896 0.0
C50 C 0.9903 0.06367 0.93073 0.0
O51 O 0.00205 0.064 0.96043 0.0
Zn52 Zn 0.44912 0.54887 0.48843 0.0
Zn53 Zn 0.45244 0.5513 0.56972 0.0
O54 O 0.47343 0.55024 0.52786 0.0
H55 H 0.49006 0.5446 0.5258 0.0
C56 C 0.43656 0.50089 0.44702 0.0
O57 O 0.42567 0.50282 0.47728 0.0
Zn58 Zn 0.54102 0.45078 0.57342 0.0
Zn59 Zn 0.54623 0.44733 0.49091 0.0
O60 O 0.52219 0.45259 0.52952 0.0
H61 H 0.50593 0.45893 0.52604 0.0
Zn62 Zn 0.46054 0.46567 0.48787 0.0
O63 O 0.4638 0.48605 0.53112 0.0
Zn64 Zn 0.4563 0.46352 0.57037 0.0
H65 H 0.47326 0.50089 0.53206 0.0
Zn66 Zn 0.53071 0.53011 0.49062 0.0
O67 O 0.52652 0.51308 0.53663 0.0
H68 H 0.51522 0.49983 0.54021 0.0
Zn69 Zn 0.53521 0.5374 0.57292 0.0
C70 C 0.55695 0.4939 0.45456 0.0
O71 O 0.56781 0.49458 0.48497 0.0
O72 O 0.41741 0.56704 0.50099 0.0
O73 O 0.4218 0.5702 0.55826 0.0
O74 O 0.57674 0.42926 0.50823 0.0
O75 O 0.57213 0.43161 0.56561 0.0
O76 O 0.43608 0.43778 0.49569 0.0
O77 O 0.43373 0.43623 0.55339 0.0
C78 C 0.49334 0.56461 0.60977 0.0
O79 O 0.55507 0.5584 0.49501 0.0
O80 O 0.55797 0.56321 0.55229 0.0
O81 O 0.53 0.4351 0.44577 0.0
C82 C 0.41006 0.57476 0.53039 0.0
O83 O 0.46485 0.55776 0.44144 0.0
C84 C 0.49763 0.43732 0.60835 0.0
O85 O 0.45389 0.48569 0.44371 0.0
C86 C 0.58391 0.42436 0.53894 0.0
O87 O 0.53856 0.50752 0.44944 0.0
C88 C 0.4381 0.50516 0.6073 0.0
O89 O 0.47053 0.56855 0.6084 0.0
O90 O 0.50256 0.55037 0.58744 0.0
C91 C 0.42724 0.42864 0.52336 0.0
O92 O 0.52048 0.43352 0.60927 0.0
O93 O 0.4893 0.45167 0.58543 0.0
C94 C 0.55426 0.49746 0.61241 0.0
O95 O 0.43963 0.48207 0.60907 0.0
O96 O 0.44692 0.51596 0.5811 0.0
C97 C 0.56425 0.569 0.52138 0.0
O98 O 0.55205 0.52053 0.61285 0.0
O99 O 0.54616 0.4858 0.58647 0.0
C100 C 0.5092 0.4251 0.44929 0.0
O101 O 0.49983 0.42297 0.4805 0.0
C102 C 0.48313 0.57198 0.44368 0.0
O103 O 0.49012 0.5796 0.47444 0.0
C104 C 0.39907 0.29695 0.91302 0.0
C105 C 0.41564 0.31651 0.91146 0.0
C106 C 0.42733 0.32446 0.94195 0.0
C107 C 0.40507 0.29436 0.97528 0.0
C108 C 0.39392 0.28628 0.94522 0.0
C109 C 0.37528 0.26668 0.95219 0.0
H110 H 0.3091 0.20291 0.06925 0.0
C111 C 0.39477 0.28046 0.00458 0.0
C112 C 0.37733 0.26418 0.99135 0.0
H113 H 0.30068 0.20513 0.95764 0.0
H114 H 0.3369 0.22977 0.95274 0.0
H115 H 0.36857 0.19772 0.06954 0.0
H116 H 0.32014 0.25939 0.07802 0.0
H117 H 0.34285 0.26209 0.11008 0.0
H118 H 0.32262 0.23627 0.11088 0.0
H119 H 0.35245 0.20436 0.10894 0.0
H120 H 0.38173 0.21807 0.09945 0.0
C121 C 0.38351 0.24312 0.93335 0.0
C122 C 0.3499 0.2764 0.94073 0.0
C123 C 0.42017 0.30237 0.1269 0.0
C124 C 0.41346 0.29355 0.15978 0.0
C125 C 0.39752 0.27333 0.16189 0.0
C126 C 0.38782 0.26269 0.13177 0.0
C127 C 0.39403 0.27241 0.09919 0.0
C128 C 0.41046 0.29149 0.09721 0.0
C129 C 0.41548 0.29919 0.06055 0.0
C130 C 0.399 0.28185 0.04078 0.0
C131 C 0.38621 0.26644 0.06349 0.0
C132 C 0.44286 0.29443 0.05281 0.0
C133 C 0.40736 0.3262 0.05649 0.0
C134 C 0.31507 0.2087 0.04375 0.0
C135 C 0.3018 0.20223 0.01387 0.0
C136 C 0.31057 0.20967 0.98111 0.0
C137 C 0.33149 0.22424 0.97831 0.0
C138 C 0.34367 0.23175 0.00856 0.0
C139 C 0.33576 0.22353 0.04054 0.0
C140 C 0.35065 0.23383 0.06991 0.0
C141 C 0.36827 0.25018 0.0503 0.0
C142 C 0.36404 0.24892 0.01438 0.0
C143 C 0.36399 0.2125 0.08824 0.0
C144 C 0.33331 0.2486 0.09376 0.0
H145 H 0.4316 0.32043 0.99613 0.0
H146 H 0.38965 0.29072 0.88991 0.0
H147 H 0.34886 0.29661 0.94327 0.0
H148 H 0.33481 0.26959 0.95709 0.0
H149 H 0.34606 0.27178 0.9132 0.0
H150 H 0.40362 0.2407 0.93556 0.0
H151 H 0.3789 0.24388 0.9053 0.0
H152 H 0.37551 0.22641 0.94468 0.0
H153 H 0.43213 0.31801 0.12413 0.0
H154 H 0.39242 0.26581 0.18685 0.0
H155 H 0.37556 0.24757 0.13503 0.0
H156 H 0.44958 0.27813 0.06715 0.0
H157 H 0.45432 0.31023 0.06073 0.0
H158 H 0.44637 0.29021 0.02522 0.0
H159 H 0.39118 0.3302 0.07299 0.0
H160 H 0.40139 0.33077 0.02991 0.0
H161 H 0.42217 0.33894 0.06433 0.0
H162 H 0.44033 0.33938 0.94111 0.0
C163 C 0.42227 0.31338 0.97381 0.0
C164 C 0.70587 0.40945 0.91567 0.0
C165 C 0.69128 0.43058 0.91354 0.0
C166 C 0.68774 0.44472 0.94373 0.0
C167 C 0.70968 0.41492 0.97792 0.0
C168 C 0.71502 0.40211 0.94801 0.0
C169 C 0.73046 0.37994 0.95526 0.0
H170 H 0.7756 0.30015 0.0728 0.0
C171 C 0.71949 0.40118 0.00769 0.0
C172 C 0.73215 0.38089 0.99462 0.0
H173 H 0.78475 0.29878 0.96145 0.0
H174 H 0.76349 0.33737 0.95657 0.0
H175 H 0.78814 0.35774 0.08174 0.0
H176 H 0.72125 0.31706 0.07292 0.0
H177 H 0.71575 0.34015 0.10336 0.0
H178 H 0.7389 0.31758 0.11213 0.0
H179 H 0.77647 0.33901 0.11618 0.0
H180 H 0.76746 0.37054 0.11147 0.0
C181 C 0.75571 0.38361 0.93782 0.0
C182 C 0.7164 0.35709 0.94251 0.0
C183 C 0.69154 0.42307 0.12937 0.0
C184 C 0.69432 0.41145 0.16168 0.0
C185 C 0.71005 0.39114 0.16416 0.0
C186 C 0.722 0.38203 0.13477 0.0
C187 C 0.718 0.3931 0.10238 0.0
C188 C 0.70335 0.41353 0.10018 0.0
C189 C 0.70072 0.42255 0.0635 0.0
C190 C 0.71592 0.40385 0.04399 0.0
C191 C 0.72586 0.38661 0.06691 0.0
C192 C 0.71187 0.44854 0.06116 0.0
C193 C 0.67328 0.42111 0.05377 0.0
C194 C 0.77297 0.30817 0.04737 0.0
C195 C 0.78155 0.29637 0.01743 0.0
C196 C 0.77827 0.30759 0.98486 0.0
C197 C 0.76586 0.32991 0.98208 0.0
C198 C 0.7567 0.34111 0.01221 0.0
C199 C 0.76082 0.33048 0.04419 0.0
C200 C 0.75028 0.34516 0.07348 0.0
C201 C 0.73918 0.36642 0.05383 0.0
C202 C 0.74265 0.36377 0.01792 0.0
C203 C 0.77154 0.3535 0.09727 0.0
C204 C 0.73062 0.32929 0.09176 0.0
H205 H 0.69305 0.44828 0.9979 0.0
H206 H 0.70928 0.39828 0.89302 0.0
H207 H 0.69697 0.35792 0.95088 0.0
H208 H 0.72364 0.33988 0.9531 0.0
H209 H 0.71671 0.35588 0.91374 0.0
H210 H 0.76024 0.40332 0.93496 0.0
H211 H 0.75616 0.37532 0.91152 0.0
H212 H 0.77082 0.37603 0.95355 0.0
H213 H 0.67998 0.43899 0.12666 0.0
H214 H 0.71244 0.38168 0.18859 0.0
H215 H 0.73331 0.36625 0.13829 0.0
H216 H 0.72608 0.45148 0.08138 0.0
H217 H 0.69768 0.4628 0.06473 0.0
H218 H 0.72145 0.4517 0.03627 0.0
H219 H 0.6653 0.40347 0.06253 0.0
H220 H 0.66981 0.42192 0.02568 0.0
H221 H 0.66284 0.43606 0.06637 0.0
H222 H 0.67746 0.46159 0.94274 0.0
C223 C 0.69687 0.43702 0.9758 0.0
C224 C 0.58938 0.70876 0.13777 0.0
C225 C 0.56812 0.69422 0.13864 0.0
C226 C 0.55451 0.6913 0.10778 0.0
C227 C 0.58518 0.7135 0.07558 0.0
C228 C 0.59729 0.71851 0.10613 0.0
C229 C 0.61921 0.73463 0.10049 0.0
H230 H 0.70203 0.78124 0.98949 0.0
C231 C 0.59941 0.72397 0.04683 0.0
C232 C 0.619 0.73703 0.06117 0.0
H233 H 0.698 0.79123 0.1008 0.0
H234 H 0.65984 0.76937 0.10216 0.0
H235 H 0.68261 0.72539 0.98787 0.0
H236 H 0.64593 0.79442 0.97542 0.0
H237 H 0.63196 0.77371 0.94679 0.0
H238 H 0.66384 0.78131 0.94119 0.0
H239 H 0.68793 0.74551 0.95184 0.0
H240 H 0.66343 0.7237 0.9513 0.0
C241 C 0.6421 0.72088 0.11365 0.0
C242 C 0.61461 0.75945 0.11878 0.0
C243 C 0.58311 0.69371 0.92495 0.0
C244 C 0.59467 0.69788 0.8931 0.0
C245 C 0.61342 0.71539 0.89087 0.0
C246 C 0.62141 0.72777 0.92068 0.0
C247 C 0.61046 0.72251 0.95285 0.0
C248 C 0.59113 0.7063 0.95434 0.0
C249 C 0.58092 0.70368 0.99027 0.0
C250 C 0.59801 0.72027 0.01049 0.0
C251 C 0.61549 0.73094 0.98855 0.0
C252 C 0.58349 0.67655 0.00107 0.0
C253 C 0.55424 0.71324 0.9903 0.0
C254 C 0.69283 0.77906 0.01416 0.0
C255 C 0.70339 0.7877 0.04516 0.0
C256 C 0.6907 0.78425 0.07664 0.0
C257 C 0.66842 0.7717 0.0774 0.0
C258 C 0.65864 0.76244 0.04641 0.0
C259 C 0.67046 0.76672 0.01537 0.0
C260 C 0.65686 0.75618 0.98491 0.0
C261 C 0.63495 0.74482 0.00291 0.0
C262 C 0.63642 0.74816 0.03898 0.0
C263 C 0.67346 0.73674 0.96776 0.0
C264 C 0.64932 0.77736 0.96052 0.0
H265 H 0.55214 0.69743 0.05368 0.0
H266 H 0.6002 0.71188 0.16084 0.0
H267 H 0.59482 0.76271 0.1234 0.0
H268 H 0.62061 0.77514 0.10275 0.0
H269 H 0.62392 0.76028 0.14437 0.0
H270 H 0.64216 0.70178 0.10383 0.0
H271 H 0.64242 0.72019 0.14246 0.0
H272 H 0.65938 0.72911 0.10484 0.0
H273 H 0.56823 0.68073 0.92694 0.0
H274 H 0.62233 0.71895 0.86628 0.0
H275 H 0.63611 0.74057 0.91767 0.0
H276 H 0.60236 0.66994 0.99593 0.0
H277 H 0.57064 0.66486 0.98616 0.0
H278 H 0.58009 0.67329 0.02881 0.0
H279 H 0.55039 0.72512 0.96752 0.0
H280 H 0.55037 0.72491 0.01316 0.0
H281 H 0.5409 0.69795 0.9896 0.0
H282 H 0.53742 0.68134 0.1077 0.0
C283 C 0.56295 0.70081 0.07634 0.0
C284 C 0.29407 0.59242 0.13899 0.0
C285 C 0.31083 0.57295 0.13889 0.0
C286 C 0.31629 0.56131 0.10719 0.0
C287 C 0.29125 0.59047 0.07624 0.0
C288 C 0.2845 0.60081 0.10747 0.0
C289 C 0.26746 0.6221 0.10269 0.0
H290 H 0.22029 0.70714 0.99558 0.0
C291 C 0.28054 0.60524 0.04808 0.0
C292 C 0.26636 0.62367 0.06335 0.0
H293 H 0.207 0.6984 0.10569 0.0
H294 H 0.23101 0.66155 0.10577 0.0
H295 H 0.27508 0.69245 0.99481 0.0
H296 H 0.21017 0.64971 0.97792 0.0
H297 H 0.23187 0.64023 0.94718 0.0
H298 H 0.22127 0.67141 0.94678 0.0
H299 H 0.25757 0.69451 0.95555 0.0
H300 H 0.28152 0.67225 0.96072 0.0
C301 C 0.27953 0.645 0.11894 0.0
C302 C 0.24235 0.61535 0.11863 0.0
C303 C 0.3081 0.59073 0.92421 0.0
C304 C 0.30511 0.60403 0.89326 0.0
C305 C 0.2894 0.62442 0.8932 0.0
C306 C 0.27754 0.63185 0.92366 0.0
C307 C 0.28161 0.61894 0.95466 0.0
C308 C 0.29649 0.59862 0.95446 0.0
C309 C 0.29985 0.58789 0.99002 0.0
C310 C 0.28432 0.60502 0.01165 0.0
C311 C 0.27368 0.62312 0.99081 0.0
C312 C 0.32739 0.58962 -0.00067 0.0
C313 C 0.28938 0.5616 0.98986 0.0
C314 C 0.2221 0.69721 0.01973 0.0
C315 C 0.21186 0.70609 0.05076 0.0
C316 C 0.21514 0.69247 0.08153 0.0
C317 C 0.22894 0.67092 0.08152 0.0
C318 C 0.23956 0.66278 0.05046 0.0
C319 C 0.23548 0.67551 0.0201 0.0
C320 C 0.24719 0.66355 0.98923 0.0
C321 C 0.25914 0.64161 0.00615 0.0
C322 C 0.25503 0.64154 0.04211 0.0
C323 C 0.26625 0.68153 0.97392 0.0
C324 C 0.22672 0.6559 0.96365 0.0
H325 H 0.31187 0.56064 0.05262 0.0
H326 H 0.28937 0.60171 0.16285 0.0
H327 H 0.23953 0.59523 0.11935 0.0
H328 H 0.22689 0.62238 0.10305 0.0
H329 H 0.24071 0.6222 0.14566 0.0
H330 H 0.29903 0.64628 0.11108 0.0
H331 H 0.27884 0.64419 0.14773 0.0
H332 H 0.27103 0.66225 0.11062 0.0
H333 H 0.31965 0.57471 0.92517 0.0
H334 H 0.28685 0.63514 0.86988 0.0
H335 H 0.26618 0.64775 0.92206 0.0
H336 H 0.33577 0.60633 0.98798 0.0
H337 H 0.33761 0.57364 0.98917 0.0
H338 H 0.33085 0.59128 0.02741 0.0
H339 H 0.27296 0.56037 0.97293 0.0
H340 H 0.28303 0.55563 0.01573 0.0
H341 H 0.30302 0.54832 0.97995 0.0
H342 H 0.32854 0.54581 0.10645 0.0
C343 C 0.30654 0.56991 0.07594 0.0
C344 C 0.89444 0.78919 0.39665 0.0
C345 C 0.91468 0.80488 0.39374 0.0
C346 C 0.92743 0.81173 0.42402 0.0
C347 C 0.89878 0.78898 0.45932 0.0
C348 C 0.88686 0.78148 0.42957 0.0
C349 C 0.86518 0.76553 0.43739 0.0
H350 H 0.79018 0.71374 0.55582 0.0
C351 C 0.8852 0.77932 0.48943 0.0
C352 C 0.86556 0.76546 0.47679 0.0
H353 H 0.78688 0.70872 0.44376 0.0
H354 H 0.82296 0.7334 0.43904 0.0
H355 H 0.85064 0.70964 0.56358 0.0
H356 H 0.79994 0.76953 0.55748 0.0
H357 H 0.82387 0.77923 0.58443 0.0
H358 H 0.80521 0.75358 0.59742 0.0
H359 H 0.82796 0.71609 0.59598 0.0
H360 H 0.85725 0.73095 0.5967 0.0
C361 C 0.87018 0.73982 0.42215 0.0
C362 C 0.84205 0.77823 0.42284 0.0
C363 C 0.91011 0.80502 0.61074 0.0
C364 C 0.89902 0.80259 0.64352 0.0
C365 C 0.87768 0.78816 0.64624 0.0
C366 C 0.8675 0.77678 0.61696 0.0
C367 C 0.87845 0.78013 0.58435 0.0
C368 C 0.89935 0.79414 0.5817 0.0
C369 C 0.90747 0.79742 0.54476 0.0
C370 C 0.88809 0.7829 0.52565 0.0
C371 C 0.87131 0.77254 0.54894 0.0
C372 C 0.93308 0.78577 0.54079 0.0
C373 C 0.90639 0.82508 0.536 0.0
C374 C 0.79713 0.71802 0.53023 0.0
C375 C 0.7856 0.70897 0.50015 0.0
C376 C 0.79555 0.71491 0.46744 0.0
C377 C 0.81646 0.72948 0.46469 0.0
C378 C 0.82755 0.73856 0.4949 0.0
C379 C 0.81793 0.73278 0.527 0.0
C380 C 0.83183 0.74471 0.55618 0.0
C381 C 0.85172 0.75804 0.53625 0.0
C382 C 0.849 0.75443 0.50038 0.0
C383 C 0.84246 0.7244 0.57963 0.0
C384 C 0.81443 0.7626 0.57517 0.0
H385 H 0.92986 0.81 0.47879 0.0
H386 H 0.88449 0.7833 0.37383 0.0
H387 H 0.84321 0.79836 0.4264 0.0
H388 H 0.82513 0.77279 0.43634 0.0
H389 H 0.83989 0.77461 0.39465 0.0
H390 H 0.89002 0.73544 0.4228 0.0
H391 H 0.86409 0.73861 0.39471 0.0
H392 H 0.86147 0.72505 0.43728 0.0
H393 H 0.92669 0.81552 0.60736 0.0
H394 H 0.86834 0.78614 0.67082 0.0
H395 H 0.8512 0.76623 0.62073 0.0
H396 H 0.93439 0.76861 0.55614 0.0
H397 H 0.94759 0.79833 0.55016 0.0
H398 H 0.9372 0.78034 0.51381 0.0
H399 H 0.89194 0.83446 0.55128 0.0
H400 H 0.90145 0.8287 0.50871 0.0
H401 H 0.92401 0.83425 0.54193 0.0
H402 H 0.94297 0.82394 0.42255 0.0
C403 C 0.91964 0.8038 0.45673 0.0
C404 C 0.20598 0.90826 0.39508 0.0
C405 C 0.18619 0.92453 0.39392 0.0
C406 C 0.17736 0.93479 0.42494 0.0
C407 C 0.20665 0.91125 0.45792 0.0
C408 C 0.21576 0.90171 0.42735 0.0
C409 C 0.2352 0.88283 0.43372 0.0
H410 H 0.29166 0.80806 0.54727 0.0
C411 C 0.21934 0.89925 0.48705 0.0
C412 C 0.23615 0.88261 0.47313 0.0
H413 H 0.29884 0.80948 0.43552 0.0
H414 H 0.27392 0.84577 0.43292 0.0
H415 H 0.29807 0.86723 0.55736 0.0
H416 H 0.23618 0.81896 0.55058 0.0
H417 H 0.23062 0.83958 0.58457 0.0
H418 H 0.25651 0.8195 0.58714 0.0
H419 H 0.28876 0.84844 0.59313 0.0
H420 H 0.27606 0.87851 0.58633 0.0
C421 C 0.25941 0.89215 0.41774 0.0
C422 C 0.22602 0.85822 0.41865 0.0
C423 C 0.19217 0.91678 0.61029 0.0
C424 C 0.19892 0.90706 0.64263 0.0
C425 C 0.21831 0.8902 0.64429 0.0
C426 C 0.2302 0.8825 0.61401 0.0
C427 C 0.22254 0.89166 0.58171 0.0
C428 C 0.20416 0.90887 0.58035 0.0
C429 C 0.19831 0.91655 0.54387 0.0
C430 C 0.21617 0.90101 0.52349 0.0
C431 C 0.23013 0.88633 0.54573 0.0
C432 C 0.20412 0.94413 0.54035 0.0
C433 C 0.17133 0.90958 0.53627 0.0
C434 C 0.28834 0.81645 0.52227 0.0
C435 C 0.29698 0.80568 0.49152 0.0
C436 C 0.29198 0.81712 0.45953 0.0
C437 C 0.27751 0.83819 0.45807 0.0
C438 C 0.26773 0.84779 0.48888 0.0
C439 C 0.27384 0.83739 0.52035 0.0
C440 C 0.26185 0.85002 0.55046 0.0
C441 C 0.24691 0.86925 0.53176 0.0
C442 C 0.25022 0.8677 0.49568 0.0
C443 C 0.2821 0.86157 0.57331 0.0
C444 C 0.24551 0.83117 0.56951 0.0
H445 H 0.17987 0.93662 0.47962 0.0
H446 H 0.2129 0.89996 0.37154 0.0
H447 H 0.20603 0.85606 0.42288 0.0
H448 H 0.23424 0.84213 0.43121 0.0
H449 H 0.2294 0.85717 0.39027 0.0
H450 H 0.261 0.91233 0.42037 0.0
H451 H 0.26048 0.88769 0.38966 0.0
H452 H 0.27571 0.88482 0.43105 0.0
H453 H 0.17763 0.9301 0.60821 0.0
H454 H 0.2238 0.8824 0.66891 0.0
H455 H 0.24449 0.86928 0.61686 0.0
H456 H 0.22074 0.94902 0.55547 0.0
H457 H 0.18882 0.95545 0.55027 0.0
H458 H 0.20828 0.94963 0.51342 0.0
H459 H 0.16571 0.89316 0.55129 0.0
H460 H 0.16814 0.90444 0.50893 0.0
H461 H 0.15874 0.92465 0.54338 0.0
H462 H 0.16225 0.94755 0.42442 0.0
C463 C 0.18762 0.92841 0.4569 0.0
C464 C 0.09739 0.20413 0.62578 0.0
C465 C 0.07897 0.1862 0.6274 0.0
C466 C 0.06876 0.1774 0.5962 0.0
C467 C 0.09625 0.20284 0.56281 0.0
C468 C 0.10571 0.21215 0.59331 0.0
C469 C 0.12585 0.23033 0.58678 0.0
H470 H 0.20358 0.28369 0.47311 0.0
C471 C 0.11006 0.21351 0.53361 0.0
C472 C 0.12738 0.22975 0.54741 0.0
H473 H 0.19928 0.29467 0.58408 0.0
H474 H 0.16444 0.26773 0.58705 0.0
H475 H 0.19583 0.22822 0.47378 0.0
H476 H 0.14352 0.28597 0.45965 0.0
H477 H 0.13754 0.26322 0.4285 0.0
H478 H 0.16661 0.2787 0.42825 0.0
H479 H 0.193 0.24424 0.43338 0.0
H480 H 0.17465 0.21771 0.44309 0.0
C481 C 0.14946 0.22057 0.60404 0.0
C482 C 0.1174 0.25556 0.60039 0.0
C483 C 0.09433 0.18283 0.41139 0.0
C484 C 0.10619 0.18665 0.37944 0.0
C485 C 0.1254 0.20382 0.37788 0.0
C486 C 0.13294 0.21651 0.40766 0.0
C487 C 0.12135 0.21187 0.43953 0.0
C488 C 0.10232 0.19533 0.44092 0.0
C489 C 0.09286 0.19177 0.47717 0.0
C490 C 0.10934 0.20894 0.49737 0.0
C491 C 0.12588 0.22076 0.4752 0.0
C492 C 0.09687 0.16463 0.48736 0.0
C493 C 0.06588 0.20023 0.47812 0.0
C494 C 0.1949 0.28065 0.49798 0.0
C495 C 0.20432 0.29127 0.52842 0.0
C496 C 0.19264 0.28644 0.56032 0.0
C497 C 0.17235 0.27085 0.56198 0.0
C498 C 0.16365 0.2598 0.53147 0.0
C499 C 0.17466 0.2651 0.5001 0.0
C500 C 0.16305 0.25164 0.47035 0.0
C501 C 0.14325 0.23739 0.48902 0.0
C502 C 0.1438 0.24209 0.52486 0.0
C503 C 0.18253 0.23464 0.45396 0.0
C504 C 0.15218 0.27073 0.44507 0.0
H505 H 0.06893 0.17795 0.54132 0.0
H506 H 0.10538 0.21153 0.64924 0.0
H507 H 0.0973 0.25777 0.59749 0.0
H508 H 0.12533 0.27092 0.58559 0.0
H509 H 0.12186 0.25782 0.62832 0.0
H510 H 0.15112 0.20051 0.60015 0.0
H511 H 0.14938 0.22409 0.63242 0.0
H512 H 0.16628 0.22837 0.59287 0.0
H513 H 0.07924 0.17014 0.41362 0.0
H514 H 0.13509 0.20703 0.35383 0.0
H515 H 0.14783 0.22909 0.40482 0.0
H516 H 0.11315 0.15689 0.47408 0.0
H517 H 0.08089 0.15323 0.48007 0.0
H518 H 0.10074 0.16213 0.51525 0.0
H519 H 0.0632 0.21667 0.46159 0.0
H520 H 0.05986 0.20583 0.50429 0.0
H521 H 0.05348 0.18572 0.4683 0.0
H522 H 0.05476 0.16342 0.59656 0.0
C523 C 0.0772 0.18569 0.56403 0.0
C524 C 0.80799 0.10416 0.63315 0.0
C525 C 0.82859 0.08894 0.63376 0.0
C526 C 0.8374 0.07901 0.60248 0.0
C527 C 0.80559 0.09988 0.57058 0.0
C528 C 0.79689 0.10947 0.60135 0.0
C529 C 0.77566 0.12639 0.59582 0.0
H530 H 0.7036 0.18836 0.48459 0.0
C531 C 0.79046 0.10962 0.54211 0.0
C532 C 0.77291 0.12515 0.55667 0.0
H533 H 0.70852 0.19534 0.59629 0.0
H534 H 0.73607 0.16134 0.5985 0.0
H535 H 0.75867 0.18491 0.47295 0.0
H536 H 0.70565 0.12711 0.48197 0.0
H537 H 0.72572 0.1194 0.44808 0.0
H538 H 0.70738 0.14667 0.44468 0.0
H539 H 0.73736 0.17802 0.43891 0.0
H540 H 0.76634 0.16265 0.44216 0.0
C541 C 0.78323 0.15225 0.60849 0.0
C542 C 0.75316 0.1155 0.61461 0.0
C543 C 0.81107 0.08781 0.41783 0.0
C544 C 0.80131 0.09491 0.38568 0.0
C545 C 0.78068 0.11026 0.38496 0.0
C546 C 0.77014 0.11865 0.41589 0.0
C547 C 0.78053 0.11186 0.44784 0.0
C548 C 0.80047 0.09644 0.44838 0.0
C549 C 0.80932 0.0913 0.48452 0.0
C550 C 0.79148 0.10629 0.50566 0.0
C551 C 0.77473 0.11837 0.4841 0.0
C552 C 0.83587 0.10099 0.48774 0.0
C553 C 0.80641 0.06358 0.49147 0.0
C554 C 0.71049 0.1825 0.50957 0.0
C555 C 0.70393 0.1948 0.54024 0.0
C556 C 0.71298 0.18616 0.57223 0.0
C557 C 0.72932 0.16657 0.57346 0.0
C558 C 0.73703 0.15567 0.54239 0.0
C559 C 0.72723 0.16327 0.51119 0.0
C560 C 0.7385 0.15039 0.48067 0.0
C561 C 0.75709 0.13428 0.49874 0.0
C562 C 0.75608 0.13745 0.53485 0.0
C563 C 0.75077 0.16984 0.45714 0.0
C564 C 0.71836 0.13516 0.46256 0.0
H565 H 0.83355 0.07622 0.548 0.0
H566 H 0.801 0.11223 0.65681 0.0
H567 H 0.75247 0.09534 0.6112 0.0
H568 H 0.73565 0.12228 0.60416 0.0
H569 H 0.75388 0.11931 0.64291 0.0
H570 H 0.80334 0.15496 0.60684 0.0
H571 H 0.77781 0.15525 0.63593 0.0
H572 H 0.77556 0.16702 0.59229 0.0
H573 H 0.82712 0.0763 0.41926 0.0
H574 H 0.77269 0.11573 0.36046 0.0
H575 H 0.75453 0.13038 0.41372 0.0
H576 H 0.83873 0.11735 0.47109 0.0
H577 H 0.84931 0.08695 0.47958 0.0
H578 H 0.84045 0.10728 0.51418 0.0
H579 H 0.78952 0.0564 0.47902 0.0
H580 H 0.80433 0.0592 0.51929 0.0
H581 H 0.8221 0.05317 0.48082 0.0
H582 H 0.85308 0.06696 0.60251 0.0
C583 C 0.82595 0.0843 0.57092 0.0
H584 H 0.08604 0.1112 0.06227 0.0
H585 H 0.12369 0.13543 0.06495 0.0
H586 H 0.13812 0.11932 0.9575 0.0
H587 H 0.10029 0.09601 0.95389 0.0
H588 H 0.17498 0.10368 0.01413 0.0
H589 H 0.12842 0.17115 0.96634 0.0
H590 H 0.09389 0.19997 0.96617 0.0
H591 H 0.11566 0.22688 0.0662 0.0
H592 H 0.15013 0.19788 0.06719 0.0
H593 H 0.28326 0.16638 0.9717 0.0
H594 H 0.24252 0.14835 0.97371 0.0
H595 H 0.2259 0.1905 0.06529 0.0
H596 H 0.26614 0.20958 0.0624 0.0
H597 H 0.18928 0.19298 0.02179 0.0
H598 H 0.2368 0.12853 0.06967 0.0
H599 H 0.27047 0.09881 0.07355 0.0
H600 H 0.2465 0.06496 0.97896 0.0
H601 H 0.21287 0.09471 0.97423 0.0
C602 C 0.09686 0.11339 0.03894 0.0
C603 C 0.0903 0.10143 0.00797 0.0
C604 C 0.11837 0.1271 0.04062 0.0
C605 C 0.13369 0.12868 0.01159 0.0
C606 C 0.12649 0.11808 0.98018 0.0
C607 C 0.1048 0.10485 0.97821 0.0
C608 C 0.15833 0.13925 0.01472 0.0
C609 C 0.17824 0.12321 0.01545 0.0
C610 C 0.16223 0.1646 0.01773 0.0
C611 C 0.14167 0.18216 0.01703 0.0
C612 C 0.1257 0.18303 0.98846 0.0
C613 C 0.10617 0.19944 0.98818 0.0
C614 C 0.10253 0.2152 0.01621 0.0
C615 C 0.11847 0.21463 0.04454 0.0
C616 C 0.13802 0.19822 0.04496 0.0
C617 C 0.27094 0.17185 0.99224 0.0
C618 C 0.27799 0.18942 0.01689 0.0
C619 C 0.24773 0.16133 0.99358 0.0
C620 C 0.23124 0.1679 0.01987 0.0
C621 C 0.23835 0.18513 0.04483 0.0
C622 C 0.26149 0.19579 0.04336 0.0
C623 C 0.20627 0.15743 0.02047 0.0
C624 C 0.1862 0.17343 0.02065 0.0
C625 C 0.20219 0.13193 0.01875 0.0
C626 C 0.22243 0.11401 0.02144 0.0
C627 C 0.23882 0.11488 0.04953 0.0
C628 C 0.25788 0.098 0.05192 0.0
C629 C 0.26065 0.08004 0.02647 0.0
C630 C 0.24434 0.0789 -0.00137 0.0
C631 C 0.22526 0.09575 0.9961 0.0
H632 H 0.27542 0.06699 0.02837 0.0
H633 H 0.0874 0.2279 0.01595 0.0
H634 H 0.89861 0.09553 0.0819 0.0
H635 H 0.87152 0.13088 0.08602 0.0
H636 H 0.86113 0.12967 0.97508 0.0
H637 H 0.88787 0.0943 0.97066 0.0
H638 H 0.88042 0.17493 0.05727 0.0
H639 H 0.80574 0.15308 0.95519 0.0
H640 H 0.78338 0.11732 0.93263 0.0
H641 H 0.79442 0.07976 0.02916 0.0
H642 H 0.81656 0.11541 0.05247 0.0
H643 H 0.82428 0.28128 0.9878 0.0
H644 H 0.84379 0.24117 0.99354 0.0
H645 H 0.78469 0.21686 0.05899 0.0
H646 H 0.76515 0.25688 0.05341 0.0
H647 H 0.79737 0.18322 0.00705 0.0
H648 H 0.83525 0.23057 0.09677 0.0
H649 H 0.85717 0.26595 0.12125 0.0
H650 H 0.91827 0.25153 0.05456 0.0
H651 H 0.89655 0.21627 0.02928 0.0
C652 C 0.89015 0.10246 0.05839 0.0
C653 C 0.89557 0.09217 0.02586 0.0
C654 C 0.87478 0.12273 0.06087 0.0
C655 C 0.86434 0.13289 0.0309 0.0
C656 C 0.86879 0.12196 -0.00139 0.0
C657 C 0.88417 0.10175 0.99608 0.0
C658 C 0.85043 0.15602 0.03288 0.0
C659 C 0.86219 0.1767 0.0465 0.0
C660 C 0.82661 0.15827 0.01902 0.0
C661 C 0.81297 0.13687 0.00547 0.0
C662 C 0.80328 0.13724 0.97167 0.0
C663 C 0.79068 0.11698 0.95874 0.0
C664 C 0.78754 0.09626 0.97942 0.0
C665 C 0.79694 0.09579 0.01312 0.0
C666 C 0.80955 0.11601 0.02619 0.0
C667 C 0.81544 0.26731 0.00326 0.0
C668 C 0.79329 0.27214 0.02027 0.0
C669 C 0.82663 0.24452 0.00667 0.0
C670 C 0.81571 0.22618 0.02686 0.0
C671 C 0.79339 0.23082 0.04337 0.0
C672 C 0.78236 0.25368 0.04032 0.0
C673 C 0.82759 0.20211 0.03074 0.0
C674 C 0.8155 0.18134 0.01809 0.0
C675 C 0.85103 0.19972 0.04574 0.0
C676 C 0.86417 0.2209 0.06091 0.0
C677 C 0.85327 0.23507 0.0871 0.0
C678 C 0.86568 0.25508 0.10116 0.0
C679 C 0.88908 0.26102 0.08941 0.0
C680 C 0.90014 0.24692 0.06361 0.0
C681 C 0.88779 0.22691 0.04943 0.0
H682 H 0.89866 0.27651 0.10034 0.0
H683 H 0.77779 0.08059 0.96935 0.0
H684 H 0.90417 0.89302 0.9737 0.0
H685 H 0.86806 0.8673 0.97946 0.0
H686 H 0.87924 0.86317 0.09 0.0
H687 H 0.91533 0.88943 0.08478 0.0
H688 H 0.86067 0.81669 0.04767 0.0
H689 H 0.8447 0.90205 0.07692 0.0
H690 H 0.84786 0.94624 0.06547 0.0
H691 H 0.81182 0.93657 0.96743 0.0
H692 H 0.80883 0.89222 0.97809 0.0
H693 H 0.73999 0.78343 0.09335 0.0
H694 H 0.78033 0.80223 0.09221 0.0
H695 H 0.76331 0.83614 0.99408 0.0
H696 H 0.7223 0.81881 0.99619 0.0
H697 H 0.78612 0.86713 0.03244 0.0
H698 H 0.79994 0.78367 0.00128 0.0
H699 H 0.79768 0.73895 0.00797 0.0
H700 H 0.83813 0.7436 0.10323 0.0
H701 H 0.84035 0.78842 0.09734 0.0
C702 C 0.89943 0.88617 -0.00081 0.0
C703 C 0.91241 0.89363 0.02888 0.0
C704 C 0.87877 0.87146 0.00237 0.0
C705 C 0.87098 0.86366 0.03515 0.0
C706 C 0.88508 0.86911 0.0645 0.0
C707 C 0.90562 0.88416 0.06145 0.0
C708 C 0.8465 0.85277 0.03896 0.0
C709 C 0.8443 0.82765 0.04491 0.0
C710 C 0.82534 0.86713 0.03433 0.0
C711 C 0.82679 0.89381 0.02813 0.0
C712 C 0.83766 0.90932 0.05278 0.0
C713 C 0.83938 0.9344 0.04647 0.0
C714 C 0.83011 0.9442 0.0157 0.0
C715 C 0.81903 0.92895 0.99123 0.0
C716 C 0.8173 0.90385 0.9974 0.0
C717 C 0.74461 0.79524 0.0718 0.0
C718 C 0.72783 0.79954 0.0448 0.0
C719 C 0.76787 0.80567 0.07093 0.0
C720 C 0.77505 0.8202 0.04272 0.0
C721 C 0.75824 0.82485 0.01602 0.0
C722 C 0.73486 0.81471 0.01709 0.0
C723 C 0.79998 0.83078 0.04113 0.0
C724 C 0.80235 0.85598 0.03548 0.0
C725 C 0.82126 0.81636 0.04554 0.0
C726 C 0.8201 0.78941 0.04905 0.0
C727 C 0.8082 0.77517 0.02378 0.0
C728 C 0.80695 0.74981 0.02741 0.0
C729 C 0.81769 0.73845 0.05605 0.0
C730 C 0.82978 0.75243 0.08108 0.0
C731 C 0.83106 0.77781 0.0776 0.0
H732 H 0.8167 0.71881 0.05882 0.0
H733 H 0.83146 0.96362 0.01085 0.0
H734 H 0.10632 0.91713 0.08137 0.0
H735 H 0.13212 0.88109 0.08902 0.0
H736 H 0.12874 0.86695 0.97908 0.0
H737 H 0.10321 0.90291 0.97098 0.0
H738 H 0.11065 0.82879 0.023 0.0
H739 H 0.1806 0.88297 0.01277 0.0
H740 H 0.2059 0.91825 0.02988 0.0
H741 H 0.21454 0.88806 0.13195 0.0
H742 H 0.18882 0.85291 0.11574 0.0
H743 H 0.18256 0.72512 -0.00036 0.0
H744 H 0.16352 0.76507 0.99795 0.0
H745 H 0.18941 0.77996 0.10162 0.0
H746 H 0.21061 0.74084 0.10226 0.0
H747 H 0.19526 0.81837 0.06641 0.0
H748 H 0.12735 0.76579 0.08188 0.0
H749 H 0.09995 0.7308 0.07141 0.0
H750 H 0.08426 0.75766 0.96914 0.0
H751 H 0.11183 0.79266 0.97881 0.0
C752 C 0.11162 0.90677 0.05866 0.0
C753 C 0.10234 0.91269 0.02562 0.0
C754 C 0.12636 0.88618 0.06312 0.0
C755 C 0.13203 0.87129 0.03465 0.0
C756 C 0.12437 0.87819 0.00136 0.0
C757 C 0.10982 0.89881 0.99682 0.0
C758 C 0.14337 0.84711 0.03982 0.0
C759 C 0.12927 0.82643 0.03205 0.0
C760 C 0.16713 0.84421 0.05344 0.0
C761 C 0.18254 0.86543 0.06314 0.0
C762 C 0.18764 0.884 0.03899 0.0
C763 C 0.20209 0.90397 0.04853 0.0
C764 C 0.21171 0.90548 0.08205 0.0
C765 C 0.20696 0.88697 0.10608 0.0
C766 C 0.19246 0.86701 0.09672 0.0
C767 C 0.18455 0.73693 0.02199 0.0
C768 C 0.19833 0.72965 0.05102 0.0
C769 C 0.17322 0.7597 0.02121 0.0
C770 C 0.1746 0.77544 0.04991 0.0
C771 C 0.18798 0.76812 0.07918 0.0
C772 C 0.19983 0.74554 0.07968 0.0
C773 C 0.16276 0.79982 0.04871 0.0
C774 C 0.17661 0.82057 0.05746 0.0
C775 C 0.13842 0.80282 0.03698 0.0
C776 C 0.12183 0.78176 0.03099 0.0
C777 C 0.1182 0.76415 0.05706 0.0
C778 C 0.10261 0.74433 0.05128 0.0
C779 C 0.09042 0.74198 0.0196 0.0
C780 C 0.09374 0.75949 0.99366 0.0
C781 C 0.10932 0.77934 -0.00071 0.0
H782 H 0.07835 0.72662 0.01518 0.0
H783 H 0.22292 0.92093 0.08937 0.0
H784 H 0.58321 0.60182 0.56752 0.0
H785 H 0.62059 0.6263 0.56043 0.0
H786 H 0.62935 0.59881 0.45672 0.0
H787 H 0.59219 0.57437 0.46316 0.0
H788 H 0.67196 0.59509 0.50459 0.0
H789 H 0.61336 0.65318 0.46029 0.0
H790 H 0.57516 0.67687 0.46329 0.0
H791 H 0.59971 0.71123 0.55722 0.0
H792 H 0.63797 0.68752 0.55497 0.0
H793 H 0.77204 0.67015 0.45936 0.0
H794 H 0.73382 0.64742 0.46087 0.0
H795 H 0.7102 0.68977 0.54909 0.0
H796 H 0.74765 0.71383 0.54618 0.0
H797 H 0.67421 0.68564 0.50713 0.0
H798 H 0.73065 0.62894 0.55554 0.0
H799 H 0.76796 0.60393 0.55933 0.0
H800 H 0.74734 0.56558 0.46663 0.0
H801 H 0.71005 0.59062 0.46201 0.0
C802 C 0.59292 0.60125 0.54308 0.0
C803 C 0.58476 0.58618 0.51598 0.0
C804 C 0.6141 0.61524 0.53913 0.0
C805 C 0.62747 0.61433 0.5082 0.0
C806 C 0.61919 0.59972 0.4808 0.0
C807 C 0.59786 0.58593 0.48451 0.0
C808 C 0.65063 0.62803 0.50527 0.0
C809 C 0.67256 0.6149 0.50446 0.0
C810 C 0.6512 0.65379 0.50661 0.0
C811 C 0.62845 0.66845 0.50759 0.0
C812 C 0.61056 0.66568 0.48169 0.0
C813 C 0.58891 0.67914 0.48322 0.0
C814 C 0.585 0.69552 0.51045 0.0
C815 C 0.60278 0.69856 0.53611 0.0
C816 C 0.62447 0.68516 0.53468 0.0
C817 C 0.75865 0.67486 0.4789 0.0
C818 C 0.76299 0.69395 0.50258 0.0
C819 C 0.73689 0.66156 0.48003 0.0
C820 C 0.7192 0.66663 0.50538 0.0
C821 C 0.72358 0.68547 0.52931 0.0
C822 C 0.74518 0.69903 0.52788 0.0
C823 C 0.69588 0.65276 0.50635 0.0
C824 C 0.67381 0.66584 0.50696 0.0
C825 C 0.69521 0.62688 0.50565 0.0
C826 C 0.71769 0.61186 0.50821 0.0
C827 C 0.73418 0.61533 0.53578 0.0
C828 C 0.7553 0.60112 0.53812 0.0
C829 C 0.76005 0.58323 0.51318 0.0
C830 C 0.74365 0.57948 0.48589 0.0
C831 C 0.72251 0.59367 0.48341 0.0
H832 H 0.77641 0.57223 0.51504 0.0
H833 H 0.5682 0.70589 0.51164 0.0
H834 H 0.37432 0.58245 0.482 0.0
H835 H 0.34916 0.6191 0.47647 0.0
H836 H 0.37784 0.64604 0.57356 0.0
H837 H 0.40181 0.60894 0.5802 0.0
H838 H 0.33379 0.66214 0.56593 0.0
H839 H 0.40546 0.6588 0.49249 0.0
H840 H 0.43162 0.63989 0.44783 0.0
H841 H 0.37343 0.64533 0.37351 0.0
H842 H 0.34684 0.66401 0.41787 0.0
H843 H 0.33097 0.7896 0.53848 0.0
H844 H 0.34652 0.74801 0.54506 0.0
H845 H 0.30614 0.72557 0.45438 0.0
H846 H 0.29012 0.76693 0.44795 0.0
H847 H 0.3531 0.70636 0.45686 0.0
H848 H 0.28306 0.7142 0.53163 0.0
H849 H 0.25857 0.73355 0.5777 0.0
H850 H 0.31615 0.72086 0.65116 0.0
H851 H 0.34117 0.70179 0.60538 0.0
C852 C 0.37461 0.59584 0.50269 0.0
C853 C 0.39036 0.59307 0.53121 0.0
C854 C 0.36039 0.61685 0.49938 0.0
C855 C 0.36235 0.63571 0.52395 0.0
C856 C 0.37621 0.63186 0.55409 0.0
C857 C 0.38994 0.6106 0.55785 0.0
C858 C 0.35234 0.66033 0.51671 0.0
C859 C 0.33812 0.67184 0.54217 0.0
C860 C 0.35783 0.67296 0.48554 0.0
C861 C 0.37409 0.66255 0.45856 0.0
C862 C 0.39825 0.65591 0.46663 0.0
C863 C 0.41313 0.6452 0.4414 0.0
C864 C 0.40414 0.64129 0.40791 0.0
C865 C 0.38033 0.6483 0.39949 0.0
C866 C 0.36536 0.65896 0.42465 0.0
C867 C 0.32547 0.77583 0.51987 0.0
C868 C 0.30917 0.78153 0.49284 0.0
C869 C 0.33438 0.75212 0.52364 0.0
C870 C 0.32713 0.73371 0.50051 0.0
C871 C 0.31187 0.73956 0.47252 0.0
C872 C 0.30288 0.76325 0.46878 0.0
C873 C 0.33479 0.70815 0.5062 0.0
C874 C 0.34861 0.69654 0.48047 0.0
C875 C 0.32924 0.69559 0.53731 0.0
C876 C 0.31407 0.70676 0.56499 0.0
C877 C 0.29057 0.71569 0.55755 0.0
C878 C 0.27659 0.7266 0.58362 0.0
C879 C 0.28582 0.72849 0.61732 0.0
C880 C 0.30904 0.71941 0.62504 0.0
C881 C 0.32312 0.70854 0.59904 0.0
H882 H 0.27497 0.73694 0.63747 0.0
H883 H 0.41562 0.63287 0.38846 0.0
H884 H 0.39744 0.42157 0.46756 0.0
H885 H 0.36009 0.39713 0.46512 0.0
H886 H 0.373 0.37173 0.56905 0.0
H887 H 0.41034 0.3966 0.57244 0.0
H888 H 0.35683 0.33462 0.51842 0.0
H889 H 0.33628 0.41435 0.56495 0.0
H890 H 0.33596 0.45936 0.56352 0.0
H891 H 0.29748 0.45789 0.46641 0.0
H892 H 0.29782 0.4128 0.46713 0.0
H893 H 0.24284 0.29059 0.57352 0.0
H894 H 0.28101 0.31347 0.56955 0.0
H895 H 0.25569 0.34804 0.47563 0.0
H896 H 0.21702 0.32576 0.48007 0.0
H897 H 0.27861 0.38039 0.51678 0.0
H898 H 0.29559 0.30146 0.47133 0.0
H899 H 0.2965 0.25647 0.47018 0.0
H900 H 0.34234 0.25591 0.56061 0.0
H901 H 0.34139 0.30092 0.56263 0.0
C902 C 0.39263 0.41047 0.48981 0.0
C903 C 0.4068 0.41109 0.52032 0.0
C904 C 0.37124 0.3966 0.48834 0.0
C905 C 0.36389 0.38281 0.51711 0.0
C906 C 0.37861 0.38232 0.54682 0.0
C907 C 0.39979 0.39654 0.54865 0.0
C908 C 0.34008 0.3701 0.51718 0.0
C909 C 0.33969 0.34455 0.51835 0.0
C910 C 0.31784 0.38318 0.51616 0.0
C911 C 0.3173 0.41024 0.51591 0.0
C912 C 0.32791 0.42363 0.54318 0.0
C913 C 0.32768 0.44915 0.54253 0.0
C914 C 0.31675 0.46148 0.51485 0.0
C915 C 0.30595 0.44831 0.48783 0.0
C916 C 0.30613 0.42277 0.48836 0.0
C917 C 0.24519 0.30335 0.55232 0.0
C918 C 0.22691 0.30629 0.52704 0.0
C919 C 0.26714 0.31622 0.54987 0.0
C920 C 0.27136 0.33215 0.52196 0.0
C921 C 0.25288 0.33572 0.49725 0.0
C922 C 0.23088 0.32285 0.4997 0.0
C923 C 0.29523 0.34474 0.51841 0.0
C924 C 0.29567 0.37033 0.51659 0.0
C925 C 0.31754 0.33165 0.51844 0.0
C926 C 0.31822 0.30457 0.51732 0.0
C927 C 0.3057 0.29175 0.49115 0.0
C928 C 0.30625 0.26624 0.49031 0.0
C929 C 0.31942 0.25334 0.51535 0.0
C930 C 0.33212 0.26593 0.54125 0.0
C931 C 0.33159 0.29144 0.54224 0.0
H932 H 0.31983 0.23359 0.51465 0.0
H933 H 0.31661 0.48124 0.51438 0.0
H934 H 0.61782 0.41005 0.49112 0.0
H935 H 0.64211 0.37272 0.4932 0.0
H936 H 0.61749 0.35938 0.59785 0.0
H937 H 0.59389 0.39707 0.59647 0.0
H938 H 0.66199 0.34204 0.58991 0.0
H939 H 0.58625 0.33623 0.52827 0.0
H940 H 0.55559 0.34789 0.48442 0.0
H941 H 0.60675 0.33234 0.40298 0.0
H942 H 0.63785 0.32094 0.4464 0.0
H943 H 0.66953 0.21197 0.58614 0.0
H944 H 0.65127 0.25273 0.5872 0.0
H945 H 0.68815 0.27077 0.49178 0.0
H946 H 0.70735 0.23071 0.49117 0.0
H947 H 0.63761 0.28531 0.49548 0.0
H948 H 0.71294 0.28947 0.56133 0.0
H949 H 0.74105 0.27633 0.60769 0.0
H950 H 0.6868 0.29303 0.6845 0.0
H951 H 0.6582 0.30588 0.63851 0.0
C952 C 0.61817 0.39955 0.51494 0.0
C953 C 0.60353 0.40619 0.54335 0.0
C954 C 0.63194 0.37816 0.51602 0.0
C955 C 0.63086 0.36288 0.54523 0.0
C956 C 0.61833 0.37077 0.5749 0.0
C957 C 0.60485 0.39236 0.57405 0.0
C958 C 0.64042 0.33765 0.54353 0.0
C959 C 0.65652 0.32959 0.56942 0.0
C960 C 0.6332 0.32138 0.51681 0.0
C961 C 0.61446 0.32798 0.4906 0.0
C962 C 0.59101 0.33545 0.50101 0.0
C963 C 0.57355 0.342 0.47624 0.0
C964 C 0.57924 0.34092 0.44094 0.0
C965 C 0.60238 0.33321 0.43034 0.0
C966 C 0.61993 0.32669 0.45501 0.0
C967 C 0.67378 0.22459 0.56537 0.0
C968 C 0.69004 0.21804 0.53868 0.0
C969 C 0.66324 0.24779 0.56597 0.0
C970 C 0.66861 0.26469 0.53973 0.0
C971 C 0.68381 0.25788 0.5122 0.0
C972 C 0.6946 0.23485 0.5118 0.0
C973 C 0.65928 0.28988 0.54162 0.0
C974 C 0.64313 0.29785 0.51584 0.0
C975 C 0.66606 0.30586 0.56879 0.0
C976 C 0.68334 0.29838 0.59645 0.0
C977 C 0.70693 0.29013 0.58808 0.0
C978 C 0.72296 0.28277 0.61429 0.0
C979 C 0.71569 0.28378 0.64901 0.0
C980 C 0.69239 0.29222 0.65759 0.0
C981 C 0.67626 0.29955 0.63146 0.0
H982 H 0.72813 0.27807 0.66927 0.0
H983 H 0.5657 0.34601 0.4218 0.0
H984 H 0.03493 0.09486 0.08726 0.0
H985 H 0.05748 0.11409 0.13478 0.0
H986 H 0.02139 0.06633 0.2079 0.0
H987 H 0.99765 0.04846 0.16053 0.0
H988 H 0.01875 0.10801 0.23139 0.0
H989 H 0.08562 0.06413 0.18111 0.0
H990 H 0.11411 0.05096 0.13549 0.0
H991 H 0.13944 0.12466 0.12344 0.0
H992 H 0.1106 0.13846 0.16838 0.0
H993 H 0.09162 0.13879 0.37666 0.0
H994 H 0.07708 0.11602 0.32634 0.0
H995 H 0.09088 0.17827 0.26082 0.0
H996 H 0.10439 0.20179 0.31135 0.0
H997 H 0.10678 0.12919 0.23409 0.0
H998 H 0.03744 0.17252 0.28096 0.0
H999 H 0.00901 0.18534 0.32705 0.0
H1000 H 0.98928 0.11055 0.34537 0.0
H1001 H 0.01795 0.09724 0.29978 0.0
C1002 C 0.03226 0.08825 0.11347 0.0
C1003 C 0.01476 0.07022 0.12046 0.0
C1004 C 0.04522 0.09913 0.14064 0.0
C1005 C 0.04146 0.0915 0.17509 0.0
C1006 C 0.02462 0.07265 0.18167 0.0
C1007 C 0.01112 0.06237 0.15467 0.0
C1008 C 0.05318 0.10457 0.20458 0.0
C1009 C 0.0381 0.11217 0.23202 0.0
C1010 C 0.07837 0.11072 0.20526 0.0
C1011 C 0.09571 0.10238 0.17806 0.0
C1012 C 0.09706 0.0776 0.16858 0.0
C1013 C 0.11326 0.07002 0.14273 0.0
C1014 C 0.12844 0.08698 0.12636 0.0
C1015 C 0.12753 0.11156 0.13593 0.0
C1016 C 0.11124 0.11928 0.1616 0.0
C1017 C 0.09135 0.14783 0.35169 0.0
C1018 C 0.09886 0.17232 0.34827 0.0
C1019 C 0.0833 0.13465 0.3229 0.0
C1020 C 0.0829 0.14552 0.29001 0.0
C1021 C 0.09123 0.16957 0.28606 0.0
C1022 C 0.09898 0.18294 0.31498 0.0
C1023 C 0.07226 0.13218 0.26029 0.0
C1024 C 0.08749 0.12469 0.23306 0.0
C1025 C 0.04726 0.12589 0.25973 0.0
C1026 C 0.03012 0.13386 0.28731 0.0
C1027 C 0.02728 0.15878 0.29512 0.0
C1028 C 0.01107 0.16615 0.32108 0.0
C1029 C 0.99742 0.14877 0.33922 0.0
C1030 C -8e-05 0.12399 0.33137 0.0
C1031 C 0.01615 0.11652 0.30547 0.0
H1032 H 0.98485 0.1545 0.35929 0.0
H1033 H 0.14098 0.08107 0.10635 0.0
H1034 H 0.92763 0.04758 0.10757 0.0
H1035 H 0.90376 0.06731 0.15306 0.0
H1036 H 0.8981 0.99849 0.20701 0.0
H1037 H 0.92092 0.9786 0.16097 0.0
H1038 H 0.85501 0.01888 0.20178 0.0
H1039 H 0.93588 0.04603 0.23526 0.0
H1040 H 0.97559 0.06604 0.22494 0.0
H1041 H 0.93913 0.13353 0.20212 0.0
H1042 H 0.89917 0.11385 0.21206 0.0
H1043 H 0.81805 0.04935 0.37028 0.0
H1044 H 0.84058 0.03658 0.3188 0.0
H1045 H 0.83388 0.10907 0.27602 0.0
H1046 H 0.81181 0.12221 0.32814 0.0
H1047 H 0.88061 0.09108 0.27055 0.0
H1048 H 0.79971 0.06394 0.24323 0.0
H1049 H 0.76042 0.04319 0.25378 0.0
H1050 H 0.79761 0.97469 0.26535 0.0
H1051 H 0.83717 0.99509 0.25535 0.0
C1052 C 0.9213 0.03669 0.12897 0.0
C1053 C 0.92577 0.01147 0.13009 0.0
C1054 C 0.90783 0.04803 0.15521 0.0
C1055 C 0.8991 0.03435 0.18341 0.0
C1056 C 0.90445 0.00936 0.1853 0.0
C1057 C 0.91757 0.99803 0.15893 0.0
C1058 C 0.8834 0.04551 0.21029 0.0
C1059 C 0.86072 0.03453 0.21704 0.0
C1060 C 0.8905 0.06645 0.2293 0.0
C1061 C 0.91453 0.07841 0.22404 0.0
C1062 C 0.93633 0.06511 0.22786 0.0
C1063 C 0.95889 0.0764 0.2221 0.0
C1064 C 0.95988 0.10101 0.21269 0.0
C1065 C 0.93833 0.11445 0.20932 0.0
C1066 C 0.91573 0.10325 0.21508 0.0
C1067 C 0.82136 0.06258 0.34992 0.0
C1068 C 0.81319 0.08677 0.3532 0.0
C1069 C 0.83408 0.05523 0.32044 0.0
C1070 C 0.8387 0.07185 0.29352 0.0
C1071 C 0.83042 0.09598 0.29651 0.0
C1072 C 0.81763 0.10337 0.32608 0.0
C1073 C 0.85264 0.0639 0.2627 0.0
C1074 C 0.87485 0.07556 0.25507 0.0
C1075 C 0.84523 0.04345 0.24294 0.0
C1076 C 0.82143 0.03109 0.24875 0.0
C1077 C 0.79953 0.04448 0.24825 0.0
C1078 C 0.77721 0.03278 0.2541 0.0
C1079 C 0.77652 0.00765 0.26028 0.0
C1080 C 0.79816 0.99416 0.26056 0.0
C1081 C 0.82054 0.00578 0.25476 0.0
H1082 H 0.75922 0.99862 0.26481 0.0
H1083 H 0.97732 0.1097 0.20802 0.0
H1084 H 0.02531 0.91455 0.15314 0.0
H1085 H 0.00691 0.88969 0.19851 0.0
H1086 H 0.93513 0.90716 0.15979 0.0
H1087 H 0.95344 0.93225 0.11439 0.0
H1088 H 0.93823 0.91047 0.23095 0.0
H1089 H 0.95746 0.85238 0.1433 0.0
H1090 H 0.98327 0.8318 0.09986 0.0
H1091 H 0.03313 0.80978 0.17994 0.0
H1092 H 0.00781 0.83054 0.22385 0.0
H1093 H 0.88453 0.82279 0.34334 0.0
H1094 H 0.89625 0.8432 0.28941 0.0
H1095 H 0.97227 0.83174 0.31383 0.0
H1096 H 0.96068 0.81072 0.36735 0.0
H1097 H 0.96266 0.82379 0.24523 0.0
H1098 H 0.94516 0.88548 0.33154 0.0
H1099 H 0.91958 0.90668 0.37468 0.0
H1100 H 0.86615 0.92214 0.29612 0.0
H1101 H 0.89127 0.90068 0.25261 0.0
C1102 C 0.00558 0.91319 0.15415 0.0
C1103 C 0.99083 0.92532 0.12974 0.0
C1104 C 0.99512 0.89885 0.18007 0.0
C1105 C 0.96969 0.89628 0.18213 0.0
C1106 C 0.95482 0.90881 0.15846 0.0
C1107 C 0.96533 0.92314 0.13241 0.0
C1108 C 0.95883 0.88065 0.20937 0.0
C1109 C 0.94315 0.89138 0.23371 0.0
C1110 C 0.96559 0.85586 0.21312 0.0
C1111 C 0.98081 0.84318 0.18685 0.0
C1112 C 0.97402 0.8433 0.15164 0.0
C1113 C 0.98855 0.83158 0.12693 0.0
C1114 C 0.00985 0.81953 0.13713 0.0
C1115 C 0.01663 0.81913 0.17208 0.0
C1116 C 0.00218 0.83085 0.1969 0.0
C1117 C 0.90373 0.82419 0.33689 0.0
C1118 C 0.92171 0.81528 0.35967 0.0
C1119 C 0.91039 0.83604 0.30623 0.0
C1120 C 0.93512 0.83926 0.29791 0.0
C1121 C 0.95308 0.82951 0.31987 0.0
C1122 C 0.94644 0.81769 0.35054 0.0
C1123 C 0.94244 0.85373 0.26719 0.0
C1124 C 0.95746 0.84278 0.24219 0.0
C1125 C 0.93503 0.8783 0.26278 0.0
C1126 C 0.91994 0.89121 0.28893 0.0
C1127 C 0.92785 0.8932 0.32354 0.0
C1128 C 0.91345 0.9053 0.34804 0.0
C1129 C 0.89121 0.91568 0.33818 0.0
C1130 C 0.88335 0.91404 0.30375 0.0
C1131 C 0.89766 0.90192 0.27916 0.0
H1132 H 0.8801 0.92505 0.35718 0.0
H1133 H 0.02108 0.81047 0.11795 0.0
H1134 H 0.04115 0.97436 0.14004 0.0
H1135 H 0.06328 0.95629 0.18911 0.0
H1136 H 0.12924 0.99265 0.15594 0.0
H1137 H 0.10719 0.01016 0.1064 0.0
H1138 H 0.13648 0.94365 0.17815 0.0
H1139 H 0.09807 0.01883 0.21831 0.0
H1140 H 0.06304 0.04642 0.22768 0.0
H1141 H 0.02582 0.99039 0.28479 0.0
H1142 H 0.06068 0.96251 0.27607 0.0
H1143 H 0.20634 0.94138 0.33375 0.0
H1144 H 0.18491 0.95176 0.27988 0.0
H1145 H 0.11675 0.92857 0.32571 0.0
H1146 H 0.13801 0.9193 0.3799 0.0
H1147 H 0.10974 0.96913 0.29567 0.0
H1148 H 0.1484 0.89467 0.26035 0.0
H1149 H 0.18235 0.86587 0.25093 0.0
H1150 H 0.21756 0.9176 0.18377 0.0
H1151 H 0.18389 0.94675 0.19292 0.0
C1152 C 0.06054 0.97771 0.14267 0.0
C1153 C 0.07271 0.99313 0.11939 0.0
C1154 C 0.07306 0.96774 0.17086 0.0
C1155 C 0.09784 0.97325 0.17608 0.0
C1156 C 0.11015 0.98813 0.15219 0.0
C1157 C 0.09759 0.99818 0.12414 0.0
C1158 C 0.1106 0.96472 0.20754 0.0
C1159 C 0.13085 0.94931 0.20391 0.0
C1160 C 0.10276 0.97173 0.24099 0.0
C1161 C 0.08187 0.98853 0.2463 0.0
C1162 C 0.08235 0.01236 0.2327 0.0
C1163 C 0.06256 0.02805 0.23791 0.0
C1164 C 0.04217 0.02011 0.25655 0.0
C1165 C 0.04161 0.9965 0.27028 0.0
C1166 C 0.06141 0.98078 0.26535 0.0
C1167 C 0.18681 0.93843 0.33207 0.0
C1168 C 0.17372 0.92975 0.36083 0.0
C1169 C 0.1746 0.94417 0.30128 0.0
C1170 C 0.14921 0.94067 0.29854 0.0
C1171 C 0.13629 0.93151 0.32719 0.0
C1172 C 0.14841 0.92623 0.3581 0.0
C1173 C 0.13583 0.94781 0.26663 0.0
C1174 C 0.11542 0.96315 0.27008 0.0
C1175 C 0.14341 0.94047 0.23306 0.0
C1176 C 0.16372 0.92298 0.22758 0.0
C1177 C 0.16346 0.89996 0.24376 0.0
C1178 C 0.18262 0.88354 0.23838 0.0
C1179 C 0.2021 0.8899 0.21677 0.0
C1180 C 0.20244 0.91268 0.20045 0.0
C1181 C 0.1833 0.92913 0.20567 0.0
H1182 H 0.21692 0.87716 0.21262 0.0
H1183 H 0.02686 0.03229 0.26048 0.0
H1184 H 0.08482 0.95637 0.93013 0.0
H1185 H 0.10728 0.93669 0.88298 0.0
H1186 H 0.08946 0.99664 0.815 0.0
H1187 H 0.06707 0.01652 0.86192 0.0
H1188 H 0.09604 0.9216 0.81587 0.0
H1189 H 0.14124 0.01175 0.77159 0.0
H1190 H 0.15246 0.05179 0.79632 0.0
H1191 H 0.15909 0.01948 0.8974 0.0
H1192 H 0.14825 0.97922 0.87319 0.0
H1193 H 0.14959 0.91135 0.64967 0.0
H1194 H 0.12678 0.92385 0.70106 0.0
H1195 H 0.19408 0.93005 0.75869 0.0
H1196 H 0.21716 0.91818 0.70691 0.0
H1197 H 0.16557 0.96921 0.76823 0.0
H1198 H 0.15582 0.8827 0.77334 0.0
H1199 H 0.14575 0.84165 0.75128 0.0
H1200 H 0.07163 0.86394 0.73367 0.0
H1201 H 0.08133 0.90525 0.75514 0.0
C1202 C 0.08542 0.96522 0.90503 0.0
C1203 C 0.07449 0.98816 0.89987 0.0
C1204 C 0.09818 0.9539 0.87812 0.0
C1205 C 0.10031 0.96544 0.8458 0.0
C1206 C 0.08827 0.98766 0.83999 0.0
C1207 C 0.07546 0.99895 0.8668 0.0
C1208 C 0.11644 0.95515 0.81883 0.0
C1209 C 0.11125 0.93194 0.80538 0.0
C1210 C 0.13662 0.96849 0.80592 0.0
C1211 C 0.14373 0.99253 0.82059 0.0
C1212 C 0.14522 0.01318 0.79905 0.0
C1213 C 0.15148 0.03592 0.81299 0.0
C1214 C 0.15641 0.03819 0.84842 0.0
C1215 C 0.15519 0.01771 0.86997 0.0
C1216 C 0.14896 0.99494 0.85616 0.0
C1217 C 0.15956 0.9155 0.67323 0.0
C1218 C 0.18518 0.91393 0.67424 0.0
C1219 C 0.14648 0.92237 0.70267 0.0
C1220 C 0.15873 0.92761 0.73374 0.0
C1221 C 0.1843 0.92596 0.73494 0.0
C1222 C 0.19743 0.91906 0.70546 0.0
C1223 C 0.14484 0.93584 0.76449 0.0
C1224 C 0.15045 0.95874 0.77871 0.0
C1225 C 0.1253 0.92202 0.77842 0.0
C1226 C 0.11936 0.89715 0.7656 0.0
C1227 C 0.13742 0.87891 0.76451 0.0
C1228 C 0.13177 0.85558 0.75215 0.0
C1229 C 0.10808 0.8502 0.74101 0.0
C1230 C 0.08997 0.86813 0.74228 0.0
C1231 C 0.09553 0.89151 0.75458 0.0
H1232 H 0.10374 0.83213 0.73145 0.0
H1233 H 0.16122 0.05581 0.85917 0.0
H1234 H 0.03815 0.07667 0.92184 0.0
H1235 H 0.05676 0.09517 0.87062 0.0
H1236 H 0.98784 0.09041 0.81668 0.0
H1237 H 0.96943 0.07124 0.86745 0.0
H1238 H 0.02223 0.08165 0.77348 0.0
H1239 H 0.00902 0.14457 0.85993 0.0
H1240 H 0.01374 0.16283 0.91808 0.0
H1241 H 0.09164 0.16394 0.90539 0.0
H1242 H 0.08738 0.14551 0.8472 0.0
H1243 H 0.03269 0.17421 0.64827 0.0
H1244 H 0.02073 0.15233 0.70084 0.0
H1245 H 0.09558 0.15234 0.73565 0.0
H1246 H 0.10783 0.17388 0.68278 0.0
H1247 H 0.0623 0.16227 0.78883 0.0
H1248 H 0.07419 0.10266 0.69913 0.0
H1249 H 0.0684 0.08459 0.6411 0.0
H1250 H 0.99146 0.0776 0.66023 0.0
H1251 H 0.99673 0.096 0.71819 0.0
C1252 C 0.02702 0.07938 0.89899 0.0
C1253 C 0.00218 0.07285 0.89887 0.0
C1254 C 0.03765 0.09009 0.86976 0.0
C1255 C 0.02349 0.09494 0.84015 0.0
C1256 C 0.99905 0.08719 0.83938 0.0
C1257 C 0.98852 0.07625 0.86843 0.0
C1258 C 0.03363 0.10891 0.81043 0.0
C1259 C 0.03079 0.09937 0.77687 0.0
C1260 C 0.04535 0.13181 0.81482 0.0
C1261 C 0.04789 0.1435 0.84936 0.0
C1262 C 0.02715 0.14867 0.86958 0.0
C1263 C 0.02975 0.15904 0.90253 0.0
C1264 C 0.05298 0.1645 0.91544 0.0
C1265 C 0.07367 0.1597 0.89534 0.0
C1266 C 0.07117 0.14933 0.86236 0.0
C1267 C 0.04663 0.16959 0.6671 0.0
C1268 C 0.07126 0.17556 0.66114 0.0
C1269 C 0.03975 0.15715 0.69716 0.0
C1270 C 0.05735 0.1504 0.72182 0.0
C1271 C 0.08175 0.15735 0.71685 0.0
C1272 C 0.08868 0.16976 0.6867 0.0
C1273 C 0.05032 0.13521 0.75201 0.0
C1274 C 0.05385 0.14449 0.78556 0.0
C1275 C 0.03902 0.11216 0.74764 0.0
C1276 C 0.03583 0.10091 0.71289 0.0
C1277 C 0.05601 0.09744 0.69086 0.0
C1278 C 0.05282 0.08712 0.658 0.0
C1279 C 0.02957 0.08 0.64696 0.0
C1280 C 0.00946 0.08314 0.6688 0.0
C1281 C 0.01254 0.0935 0.70167 0.0
H1282 H 0.02715 0.072 0.6215 0.0
H1283 H 0.05496 0.17246 0.94099 0.0
H1284 H 0.97195 0.01693 0.87425 0.0
H1285 H 0.94992 0.03966 0.82912 0.0
H1286 H 0.88136 0.01394 0.87044 0.0
H1287 H 0.90308 0.99103 0.91495 0.0
H1288 H 0.88517 0.00559 0.8025 0.0
H1289 H 0.89786 0.0708 0.88045 0.0
H1290 H 0.91921 0.10019 0.9181 0.0
H1291 H 0.95657 0.1299 0.82977 0.0
H1292 H 0.93626 0.09998 0.79164 0.0
H1293 H 0.80742 0.07424 0.69418 0.0
H1294 H 0.82805 0.06195 0.74782 0.0
H1295 H 0.89785 0.07854 0.70161 0.0
H1296 H 0.87732 0.09086 0.64785 0.0
H1297 H 0.89195 0.09368 0.77408 0.0
H1298 H 0.88217 0.02339 0.69866 0.0
H1299 H 0.85842 0.99502 0.66212 0.0
H1300 H 0.81303 0.97678 0.7492 0.0
H1301 H 0.83631 0.00535 0.78613 0.0
C1302 C 0.95218 0.01634 0.8738 0.0
C1303 C 0.93922 0.00202 0.89778 0.0
C1304 C 0.93965 0.02947 0.8483 0.0
C1305 C 0.91405 0.02864 0.84679 0.0
C1306 C 0.90113 0.01484 0.87127 0.0
C1307 C 0.91358 0.00167 0.89654 0.0
C1308 C 0.90073 0.04015 0.81779 0.0
C1309 C 0.88651 0.02492 0.79661 0.0
C1310 C 0.90267 0.06535 0.81 0.0
C1311 C 0.91573 0.08279 0.83313 0.0
C1312 C 0.91098 0.08323 0.86904 0.0
C1313 C 0.92284 0.10008 0.8905 0.0
C1314 C 0.93923 0.1169 0.87634 0.0
C1315 C 0.94382 0.11688 0.84069 0.0
C1316 C 0.93224 0.09988 0.81916 0.0
C1317 C 0.82713 0.07561 0.6957 0.0
C1318 C 0.84085 0.08325 0.6669 0.0
C1319 C 0.83885 0.0686 0.72624 0.0
C1320 C 0.86441 0.06931 0.72844 0.0
C1321 C 0.8781 0.07796 0.70029 0.0
C1322 C 0.8664 0.08473 0.6696 0.0
C1323 C 0.87694 0.05898 0.75893 0.0
C1324 C 0.89088 0.07438 0.78024 0.0
C1325 C 0.87472 0.03396 0.76718 0.0
C1326 C 0.86078 0.01672 0.74503 0.0
C1327 C 0.86698 0.0135 0.70992 0.0
C1328 C 0.85364 0.99735 0.68916 0.0
C1329 C 0.83418 0.98416 0.7033 0.0
C1330 C 0.82808 0.98705 0.73826 0.0
C1331 C 0.84134 0.00321 0.75912 0.0
H1332 H 0.82388 0.97166 0.68719 0.0
H1333 H 0.94839 0.12994 0.89298 0.0
H1334 H 0.01205 0.93621 0.86844 0.0
H1335 H 0.99243 0.91654 0.81861 0.0
H1336 H 0.94862 0.87285 0.88786 0.0
H1337 H 0.96795 0.89248 0.93779 0.0
H1338 H 0.97382 0.84599 0.8358 0.0
H1339 H 0.92185 0.91794 0.84539 0.0
H1340 H 0.91447 0.96228 0.84765 0.0
H1341 H 0.94903 0.97109 0.74847 0.0
H1342 H 0.95666 0.92674 0.74561 0.0
H1343 H 0.89835 0.78857 0.71233 0.0
H1344 H 0.91414 0.81084 0.76213 0.0
H1345 H 0.94056 0.86772 0.69427 0.0
H1346 H 0.92247 0.84705 0.64493 0.0
H1347 H 0.92452 0.88846 0.74635 0.0
H1348 H 0.97856 0.82096 0.7334 0.0
H1349 H 0.99098 0.77789 0.72759 0.0
H1350 H 0.96051 0.76195 0.8277 0.0
H1351 H 0.94762 0.80488 0.83393 0.0
C1352 C 0.9981 0.92256 0.87306 0.0
C1353 C 0.99167 0.91578 0.90706 0.0
C1354 C 0.98687 0.91141 0.84458 0.0
C1355 C 0.9691 0.89328 0.84964 0.0
C1356 C 0.96235 0.88679 0.88349 0.0
C1357 C 0.97339 0.89806 0.91196 0.0
C1358 C 0.95831 0.88023 0.81969 0.0
C1359 C 0.96274 0.85513 0.81642 0.0
C1360 C 0.9448 0.89246 0.79377 0.0
C1361 C 0.94002 0.91907 0.79544 0.0
C1362 C 0.92802 0.92935 0.82417 0.0
C1363 C 0.92378 0.9545 0.82554 0.0
C1364 C 0.93143 0.96952 0.79833 0.0
C1365 C 0.94317 0.95943 0.76956 0.0
C1366 C 0.9474 0.93429 0.76801 0.0
C1367 C 0.90711 0.80601 0.70791 0.0
C1368 C 0.90922 0.81575 0.67423 0.0
C1369 C 0.91658 0.81857 0.73651 0.0
C1370 C 0.92913 0.84075 0.73205 0.0
C1371 C 0.93111 0.85059 0.69855 0.0
C1372 C 0.92106 0.83842 0.67011 0.0
C1373 C 0.93992 0.85394 0.76219 0.0
C1374 C 0.93556 0.87913 0.76559 0.0
C1375 C 0.95424 0.84193 0.78763 0.0
C1376 C 0.9619 0.81608 0.78396 0.0
C1377 C 0.97434 0.80823 0.75406 0.0
C1378 C 0.98149 0.78385 0.75071 0.0
C1379 C 0.97648 0.76718 0.77721 0.0
C1380 C 0.96435 0.77487 0.80717 0.0
C1381 C 0.95713 0.79923 0.81064 0.0
H1382 H 0.98204 0.74831 0.77458 0.0
H1383 H 0.92825 0.98897 0.79941 0.0
H1384 H 0.49383 0.61278 0.62453 0.0
H1385 H 0.5163 0.63334 0.67116 0.0
H1386 H 0.54772 0.56448 0.70207 0.0
H1387 H 0.52516 0.54391 0.65526 0.0
H1388 H 0.52455 0.59197 0.75647 0.0
H1389 H 0.58997 0.6041 0.67292 0.0
H1390 H 0.60862 0.61596 0.61745 0.0
H1391 H 0.57472 0.68656 0.62402 0.0
H1392 H 0.55655 0.67525 0.68046 0.0
H1393 H 0.59598 0.64867 0.88714 0.0
H1394 H 0.58262 0.62387 0.83782 0.0
H1395 H 0.56267 0.68947 0.78244 0.0
H1396 H 0.57729 0.71427 0.83121 0.0
H1397 H 0.58309 0.66021 0.74013 0.0
H1398 H 0.52016 0.65046 0.82556 0.0
H1399 H 0.50286 0.64031 0.88283 0.0
H1400 H 0.52819 0.56649 0.87257 0.0
H1401 H 0.54592 0.57629 0.81541 0.0
C1402 C 0.50589 0.60218 0.64094 0.0
C1403 C 0.50835 0.57694 0.63601 0.0
C1404 C 0.51875 0.61389 0.6674 0.0
C1405 C 0.53392 0.60046 0.68967 0.0
C1406 C 0.5364 0.57519 0.68477 0.0
C1407 C 0.52379 0.56352 0.65789 0.0
C1408 C 0.5455 0.61275 0.71959 0.0
C1409 C 0.53773 0.60659 0.75311 0.0
C1410 C 0.56199 0.63227 0.715 0.0
C1411 C 0.57176 0.63876 0.68053 0.0
C1412 C 0.58634 0.62206 0.66234 0.0
C1413 C 0.59693 0.62876 0.63081 0.0
C1414 C 0.59264 0.65196 0.61691 0.0
C1415 C 0.57795 0.66858 0.63475 0.0
C1416 C 0.56767 0.66211 0.66663 0.0
C1417 C 0.58885 0.65768 0.86426 0.0
C1418 C 0.58752 0.68325 0.86273 0.0
C1419 C 0.58105 0.64355 0.83626 0.0
C1420 C 0.57111 0.65476 0.8067 0.0
C1421 C 0.5702 0.6804 0.80501 0.0
C1422 C 0.57851 0.69456 0.83275 0.0
C1423 C 0.56188 0.63986 0.77735 0.0
C1424 C 0.57005 0.64551 0.74383 0.0
C1425 C 0.54538 0.62015 0.78207 0.0
C1426 C 0.53466 0.6142 0.81639 0.0
C1427 C 0.52222 0.63212 0.83564 0.0
C1428 C 0.5123 0.62642 0.86806 0.0
C1429 C 0.5145 0.6028 0.88139 0.0
C1430 C 0.52656 0.5848 0.86226 0.0
C1431 C 0.53654 0.59041 0.82984 0.0
H1432 H 0.5068 0.59842 0.90649 0.0
H1433 H 0.60077 0.65718 0.59247 0.0
H1434 H 0.40327 0.53988 0.60152 0.0
H1435 H 0.38138 0.56026 0.64862 0.0
H1436 H 0.42498 0.521 0.72354 0.0
H1437 H 0.44623 0.50007 0.67622 0.0
H1438 H 0.38027 0.51807 0.74104 0.0
H1439 H 0.43166 0.58429 0.70558 0.0
H1440 H 0.45009 0.6132 0.66411 0.0
H1441 H 0.37925 0.64266 0.64121 0.0
H1442 H 0.36033 0.61358 0.68204 0.0
H1443 H 0.35213 0.5875 0.89001 0.0
H1444 H 0.37449 0.57372 0.83901 0.0
H1445 H 0.31335 0.59247 0.77384 0.0
H1446 H 0.29015 0.60531 0.82508 0.0
H1447 H 0.36535 0.60719 0.75046 0.0
H1448 H 0.315 0.53891 0.78677 0.0
H1449 H 0.29842 0.51008 0.82991 0.0
H1450 H 0.37093 0.48528 0.85345 0.0
H1451 H 0.38796 0.51429 0.81083 0.0
C1452 C 0.40855 0.53621 0.62806 0.0
C1453 C 0.42662 0.5189 0.63548 0.0
C1454 C 0.39602 0.54775 0.65496 0.0
C1455 C 0.40177 0.54245 0.68969 0.0
C1456 C 0.42023 0.5254 0.69698 0.0
C1457 C 0.4324 0.51352 0.67006 0.0
C1458 C 0.38751 0.55339 0.71842 0.0
C1459 C 0.37735 0.53761 0.74323 0.0
C1460 C 0.38315 0.57884 0.72092 0.0
C1461 C 0.39454 0.5966 0.69669 0.0
C1462 C 0.41999 0.59682 0.69153 0.0
C1463 C 0.43053 0.61324 0.66814 0.0
C1464 C 0.41585 0.62973 0.64999 0.0
C1465 C 0.3906 0.62986 0.65526 0.0
C1466 C 0.37995 0.61341 0.67853 0.0
C1467 C 0.34323 0.58848 0.86495 0.0
C1468 C 0.31913 0.59713 0.86177 0.0
C1469 C 0.35619 0.58088 0.83582 0.0
C1470 C 0.34548 0.58208 0.80288 0.0
C1471 C 0.32187 0.59158 0.79919 0.0
C1472 C 0.3087 0.59891 0.82847 0.0
C1473 C 0.35857 0.57183 0.77282 0.0
C1474 C 0.36839 0.5877 0.74793 0.0
C1475 C 0.36299 0.54651 0.7704 0.0
C1476 C 0.35276 0.52895 0.79588 0.0
C1477 C 0.32742 0.52748 0.80139 0.0
C1478 C 0.31794 0.51108 0.8257 0.0
C1479 C 0.33362 0.49591 0.84448 0.0
C1480 C 0.35881 0.49707 0.83893 0.0
C1481 C 0.36838 0.51348 0.81468 0.0
H1482 H 0.32624 0.48321 0.86329 0.0
H1483 H 0.42402 0.64241 0.63185 0.0
H1484 H 0.49466 0.38899 0.62156 0.0
H1485 H 0.47324 0.36936 0.66995 0.0
H1486 H 0.44494 0.43932 0.70193 0.0
H1487 H 0.46637 0.45892 0.65338 0.0
H1488 H 0.47203 0.41425 0.75284 0.0
H1489 H 0.40334 0.39854 0.67825 0.0
H1490 H 0.38082 0.38388 0.6271 0.0
H1491 H 0.40989 0.3118 0.64207 0.0
H1492 H 0.43234 0.32606 0.6938 0.0
H1493 H 0.4122 0.36515 0.89923 0.0
H1494 H 0.42074 0.38675 0.84505 0.0
H1495 H 0.43858 0.31828 0.79566 0.0
H1496 H 0.42905 0.29655 0.84961 0.0
H1497 H 0.41366 0.34491 0.75299 0.0
H1498 H 0.48321 0.35937 0.82576 0.0
H1499 H 0.50507 0.37237 0.87858 0.0
H1500 H 0.47751 0.44522 0.86615 0.0
H1501 H 0.45519 0.43256 0.81348 0.0
C1502 C 0.48327 0.39999 0.63841 0.0
C1503 C 0.48168 0.42531 0.63365 0.0
C1504 C 0.47099 0.3888 0.66586 0.0
C1505 C 0.45735 0.40289 0.68925 0.0
C1506 C 0.45513 0.42814 0.68384 0.0
C1507 C 0.46713 0.43927 0.65601 0.0
C1508 C 0.4484 0.39168 0.72171 0.0
C1509 C 0.45886 0.39942 0.75305 0.0
C1510 C 0.43202 0.37177 0.72166 0.0
C1511 C 0.41966 0.36342 0.68963 0.0
C1512 C 0.40515 0.37964 0.67037 0.0
C1513 C 0.3923 0.37134 0.64135 0.0
C1514 C 0.39403 0.3469 0.63113 0.0
C1515 C 0.4086 0.33072 0.64997 0.0
C1516 C 0.42129 0.33887 0.67923 0.0
C1517 C 0.41794 0.35478 0.87673 0.0
C1518 C 0.42022 0.32929 0.87846 0.0
C1519 C 0.42289 0.3671 0.84588 0.0
C1520 C 0.4308 0.35419 0.8165 0.0
C1521 C 0.43257 0.32862 0.81804 0.0
C1522 C 0.42718 0.31623 0.84877 0.0
C1523 C 0.4374 0.36734 0.78425 0.0
C1524 C 0.42665 0.35989 0.75294 0.0
C1525 C 0.4539 0.38728 0.78426 0.0
C1526 C 0.46732 0.39495 0.8159 0.0
C1527 C 0.48166 0.37811 0.83444 0.0
C1528 C 0.49415 0.38543 0.86433 0.0
C1529 C 0.49262 0.40959 0.87577 0.0
C1530 C 0.47864 0.4265 0.85729 0.0
C1531 C 0.46608 0.41927 0.82741 0.0
H1532 H 0.50232 0.41522 0.89891 0.0
H1533 H 0.38398 0.3404 0.60879 0.0
H1534 H 0.54274 0.5027 0.68007 0.0
H1535 H 0.56615 0.48805 0.72989 0.0
H1536 H 0.61648 0.45193 0.66059 0.0
H1537 H 0.592 0.46537 0.61079 0.0
H1538 H 0.61274 0.4263 0.71635 0.0
H1539 H 0.62658 0.51121 0.69448 0.0
H1540 H 0.61486 0.55414 0.68469 0.0
H1541 H 0.58308 0.55736 0.78636 0.0
H1542 H 0.59417 0.5143 0.79656 0.0
H1543 H 0.70782 0.42618 0.8462 0.0
H1544 H 0.68531 0.43527 0.79276 0.0
H1545 H 0.62357 0.45911 0.85323 0.0
H1546 H 0.64531 0.44927 0.90647 0.0
H1547 H 0.63664 0.4914 0.79933 0.0
H1548 H 0.622 0.40505 0.81852 0.0
H1549 H 0.63458 0.36224 0.82685 0.0
H1550 H 0.67064 0.3629 0.72793 0.0
H1551 H 0.6586 0.40589 0.71927 0.0
C1552 C 0.55847 0.49112 0.67567 0.0
C1553 C 0.56573 0.48511 0.64188 0.0
C1554 C 0.57197 0.48296 0.70403 0.0
C1555 C 0.5936 0.46965 0.69894 0.0
C1556 C 0.6 0.46238 0.66516 0.0
C1557 C 0.58601 0.46994 0.63676 0.0
C1558 C 0.61013 0.46462 0.72861 0.0
C1559 C 0.61826 0.44063 0.73416 0.0
C1560 C 0.61734 0.48332 0.75198 0.0
C1561 C 0.61108 0.50943 0.74619 0.0
C1562 C 0.61699 0.52102 0.7147 0.0
C1563 C 0.61044 0.54539 0.70907 0.0
C1564 C 0.5982 0.55845 0.73488 0.0
C1565 C 0.59252 0.5472 0.76639 0.0
C1566 C 0.59896 0.52282 0.77212 0.0
C1567 C 0.68939 0.43319 0.84815 0.0
C1568 C 0.67847 0.4371 0.88076 0.0
C1569 C 0.67662 0.43847 0.81759 0.0
C1570 C 0.65281 0.44783 0.81916 0.0
C1571 C 0.64201 0.45206 0.85153 0.0
C1572 C 0.6546 0.44658 0.88198 0.0
C1573 C 0.63879 0.4531 0.78723 0.0
C1574 C 0.63125 0.47719 0.78124 0.0
C1575 C 0.63247 0.43461 0.76323 0.0
C1576 C 0.63967 0.40878 0.76845 0.0
C1577 C 0.63283 0.39615 0.7987 0.0
C1578 C 0.63982 0.37184 0.80346 0.0
C1579 C 0.65348 0.35988 0.77799 0.0
C1580 C 0.66012 0.3722 0.74768 0.0
C1581 C 0.65321 0.39654 0.74283 0.0
H1582 H 0.65886 0.34105 0.78171 0.0
H1583 H 0.59312 0.5773 0.73048 0.0
H1584 H 0.59862 0.46671 0.45594 0.0
H1585 H 0.62021 0.44933 0.40638 0.0
H1586 H 0.56201 0.4722 0.33836 0.0
H1587 H 0.54018 0.48972 0.38786 0.0
H1588 H 0.58195 0.42598 0.32137 0.0
H1589 H 0.60848 0.50813 0.34511 0.0
H1590 H 0.62377 0.54141 0.38238 0.0
H1591 H 0.68883 0.50033 0.40364 0.0
H1592 H 0.67372 0.46662 0.36691 0.0
H1593 H 0.64675 0.42662 0.16271 0.0
H1594 H 0.62239 0.43843 0.21289 0.0
H1595 H 0.68397 0.42492 0.28005 0.0
H1596 H 0.7089 0.41426 0.2297 0.0
H1597 H 0.66182 0.4657 0.29805 0.0
H1598 H 0.63597 0.38395 0.27211 0.0
H1599 H 0.62024 0.35055 0.23545 0.0
H1600 H 0.5538 0.39038 0.21853 0.0
H1601 H 0.5693 0.42421 0.25465 0.0
C1602 C 0.5902 0.46776 0.43054 0.0
C1603 C 0.56794 0.48005 0.42566 0.0
C1604 C 0.60258 0.45781 0.40228 0.0
C1605 C 0.59289 0.45995 0.36873 0.0
C1606 C 0.56983 0.47056 0.36408 0.0
C1607 C 0.55745 0.48063 0.39235 0.0
C1608 C 0.6078 0.45308 0.33832 0.0
C1609 C 0.59931 0.43477 0.31598 0.0
C1610 C 0.63058 0.46438 0.3318 0.0
C1611 C 0.63985 0.48475 0.35355 0.0
C1612 C 0.62596 0.50612 0.35795 0.0
C1613 C 0.6346 0.52507 0.37895 0.0
C1614 C 0.65723 0.52296 0.39545 0.0
C1615 C 0.67129 0.50192 0.39089 0.0
C1616 C 0.6627 0.48289 0.36997 0.0
C1617 C 0.65528 0.42654 0.18806 0.0
C1618 C 0.67981 0.41948 0.19216 0.0
C1619 C 0.64119 0.43296 0.21681 0.0
C1620 C 0.65121 0.4321 0.25029 0.0
C1621 C 0.67581 0.42552 0.25445 0.0
C1622 C 0.68998 0.41926 0.22567 0.0
C1623 C 0.63614 0.43837 0.28096 0.0
C1624 C 0.64455 0.45672 0.30339 0.0
C1625 C 0.61329 0.42708 0.28749 0.0
C1626 C 0.60391 0.40673 0.2658 0.0
C1627 C 0.6181 0.38568 0.26033 0.0
C1628 C 0.6092 0.36665 0.23968 0.0
C1629 C 0.58606 0.36837 0.22459 0.0
C1630 C 0.57174 0.38909 0.23018 0.0
C1631 C 0.58056 0.40819 0.25076 0.0
H1632 H 0.57921 0.35361 0.20862 0.0
H1633 H 0.66389 0.53765 0.4117 0.0
H1634 H 0.52212 0.60279 0.4408 0.0
H1635 H 0.54006 0.62143 0.38926 0.0
H1636 H 0.49033 0.5809 0.32424 0.0
H1637 H 0.47209 0.56208 0.37578 0.0
H1638 H 0.54123 0.58436 0.29977 0.0
H1639 H 0.47441 0.63592 0.34245 0.0
H1640 H 0.45377 0.65923 0.38868 0.0
H1641 H 0.51822 0.70267 0.40356 0.0
H1642 H 0.53931 0.67953 0.35752 0.0
H1643 H 0.54552 0.64963 0.14422 0.0
H1644 H 0.53361 0.6282 0.19648 0.0
H1645 H 0.56465 0.68587 0.25892 0.0
H1646 H 0.57413 0.70889 0.20664 0.0
H1647 H 0.52607 0.67326 0.28735 0.0
H1648 H 0.593 0.62709 0.24508 0.0
H1649 H 0.61794 0.60412 0.20304 0.0
H1650 H 0.56081 0.55087 0.1924 0.0
H1651 H 0.53536 0.57371 0.23401 0.0
C1652 C 0.5151 0.59763 0.41555 0.0
C1653 C 0.49544 0.58124 0.41233 0.0
C1654 C 0.52543 0.60827 0.38619 0.0
C1655 C 0.5163 0.60267 0.35317 0.0
C1656 C 0.49755 0.58539 0.34964 0.0
C1657 C 0.4871 0.57477 0.37906 0.0
C1658 C 0.52506 0.61627 0.32263 0.0
C1659 C 0.53778 0.60374 0.29667 0.0
C1660 C 0.52136 0.6417 0.31964 0.0
C1661 C 0.50847 0.6559 0.34675 0.0
C1662 C 0.4842 0.65037 0.3557 0.0
C1663 C 0.47242 0.66355 0.38184 0.0
C1664 C 0.48468 0.68234 0.39913 0.0
C1665 C 0.50874 0.68809 0.39018 0.0
C1666 C 0.52059 0.675 0.36401 0.0
C1667 C 0.54934 0.65819 0.16895 0.0
C1668 C 0.56078 0.68119 0.17091 0.0
C1669 C 0.54301 0.64552 0.19897 0.0
C1670 C 0.54883 0.65503 0.23175 0.0
C1671 C 0.56014 0.678 0.23393 0.0
C1672 C 0.56584 0.69105 0.20387 0.0
C1673 C 0.54224 0.64141 0.2637 0.0
C1674 C 0.52984 0.65392 0.29014 0.0
C1675 C 0.54694 0.61607 0.26754 0.0
C1676 C 0.56218 0.60225 0.24246 0.0
C1677 C 0.58568 0.61058 0.23358 0.0
C1678 C 0.59992 0.59757 0.20986 0.0
C1679 C 0.59095 0.57608 0.195 0.0
C1680 C 0.56773 0.56753 0.2039 0.0
C1681 C 0.5534 0.58049 0.22759 0.0
H1682 H 0.602 0.56603 0.17664 0.0
H1683 H 0.47552 0.69248 0.4194 0.0
H1684 H 0.39531 0.52857 0.44379 0.0
H1685 H 0.37561 0.54457 0.39171 0.0
H1686 H 0.43574 0.51902 0.32935 0.0
H1687 H 0.45555 0.50259 0.38134 0.0
H1688 H 0.41509 0.56694 0.31008 0.0
H1689 H 0.39173 0.48306 0.33215 0.0
H1690 H 0.37703 0.44986 0.37 0.0
H1691 H 0.31015 0.48883 0.38752 0.0
H1692 H 0.32465 0.52246 0.35012 0.0
H1693 H 0.35889 0.56054 0.14583 0.0
H1694 H 0.381 0.55088 0.19893 0.0
H1695 H 0.31515 0.56136 0.2585 0.0
H1696 H 0.29252 0.56988 0.20512 0.0
H1697 H 0.33881 0.52238 0.28059 0.0
H1698 H 0.36043 0.60509 0.25531 0.0
H1699 H 0.37549 0.63946 0.21997 0.0
H1700 H 0.44533 0.60455 0.21027 0.0
H1701 H 0.43056 0.56975 0.24509 0.0
C1702 C 0.40456 0.52665 0.4191 0.0
C1703 C 0.42674 0.51387 0.41652 0.0
C1704 C 0.39329 0.53585 0.38943 0.0
C1705 C 0.40412 0.53261 0.35681 0.0
C1706 C 0.42713 0.52156 0.35439 0.0
C1707 C 0.43832 0.51209 0.38406 0.0
C1708 C 0.39023 0.53844 0.32509 0.0
C1709 C 0.39856 0.5571 0.30328 0.0
C1710 C 0.36842 0.52584 0.31694 0.0
C1711 C 0.35937 0.50536 0.33862 0.0
C1712 C 0.37396 0.48461 0.34424 0.0
C1713 C 0.36565 0.46571 0.36559 0.0
C1714 C 0.34269 0.46727 0.38124 0.0
C1715 C 0.32794 0.48767 0.37541 0.0
C1716 C 0.33618 0.50664 0.35411 0.0
C1717 C 0.34895 0.56036 0.17011 0.0
C1718 C 0.32389 0.56596 0.17118 0.0
C1719 C 0.36173 0.55519 0.20054 0.0
C1720 C 0.34984 0.55587 0.23275 0.0
C1721 C 0.32473 0.56093 0.23392 0.0
C1722 C 0.31186 0.56595 0.20342 0.0
C1723 C 0.3636 0.55101 0.26514 0.0
C1724 C 0.35527 0.5324 0.2872 0.0
C1725 C 0.38536 0.56379 0.27354 0.0
C1726 C 0.39429 0.58468 0.25252 0.0
C1727 C 0.37893 0.60463 0.24538 0.0
C1728 C 0.38743 0.62421 0.22548 0.0
C1729 C 0.41133 0.62416 0.21279 0.0
C1730 C 0.4268 0.60454 0.22005 0.0
C1731 C 0.41838 0.58489 0.23989 0.0
H1732 H 0.41787 0.63935 0.19741 0.0
H1733 H 0.3363 0.45265 0.39784 0.0
H1734 H 0.52444 0.42366 0.38176 0.0
H1735 H 0.50407 0.40353 0.3331 0.0
H1736 H 0.44415 0.38342 0.40001 0.0
H1737 H 0.46447 0.40324 0.44887 0.0
H1738 H 0.46031 0.34497 0.36446 0.0
H1739 H 0.4347 0.42523 0.3382 0.0
H1740 H 0.43855 0.46957 0.3291 0.0
H1741 H 0.48681 0.45712 0.24312 0.0
H1742 H 0.48346 0.41261 0.25195 0.0
H1743 H 0.38813 0.30246 0.21981 0.0
H1744 H 0.40175 0.32604 0.27014 0.0
H1745 H 0.47143 0.33827 0.22108 0.0
H1746 H 0.45854 0.31377 0.1714 0.0
H1747 H 0.44603 0.38191 0.24864 0.0
H1748 H 0.47172 0.29987 0.28052 0.0
H1749 H 0.4647 0.25603 0.2912 0.0
H1750 H 0.4114 0.27349 0.36901 0.0
H1751 H 0.41786 0.31747 0.35841 0.0
C1752 C 0.50682 0.41516 0.38604 0.0
C1753 C 0.49617 0.41481 0.41919 0.0
C1754 C 0.49514 0.40379 0.35819 0.0
C1755 C 0.47258 0.39207 0.36301 0.0
C1756 C 0.46159 0.39231 0.39584 0.0
C1757 C 0.47324 0.40365 0.42369 0.0
C1758 C 0.46134 0.37814 0.33431 0.0
C1759 C 0.45677 0.35317 0.33933 0.0
C1760 C 0.45689 0.38882 0.30152 0.0
C1761 C 0.45899 0.41557 0.29593 0.0
C1762 C 0.44629 0.43193 0.31751 0.0
C1763 C 0.44835 0.45711 0.31237 0.0
C1764 C 0.46297 0.46618 0.28561 0.0
C1765 C 0.4755 0.45007 0.26386 0.0
C1766 C 0.4735 0.42485 0.26888 0.0
C1767 C 0.40654 0.30969 0.21998 0.0
C1768 C 0.42221 0.30626 0.19146 0.0
C1769 C 0.41416 0.32337 0.24858 0.0
C1770 C 0.43745 0.334 0.24898 0.0
C1771 C 0.45326 0.3304 0.22091 0.0
C1772 C 0.44582 0.31645 0.19255 0.0
C1773 C 0.44549 0.3488 0.2788 0.0
C1774 C 0.44941 0.37388 0.27393 0.0
C1775 C 0.44887 0.33835 0.31193 0.0
C1776 C 0.44506 0.31193 0.31838 0.0
C1777 C 0.45833 0.29436 0.29967 0.0
C1778 C 0.45449 0.26948 0.30576 0.0
C1779 C 0.43756 0.26198 0.33069 0.0
C1780 C 0.42448 0.27933 0.34966 0.0
C1781 C 0.42823 0.30423 0.34364 0.0
H1782 H 0.43461 0.24271 0.33538 0.0
H1783 H 0.46454 0.48569 0.28168 0.0
loop_
_geom_bond_atom_site_label_1
_geom_bond_atom_site_label_2
_geom_bond_distance
_geom_bond_site_symmetry_2
_ccdc_geom_bond_type
Zn0 O2 1.933 1_556 S
Zn0 O20 1.985 . S
Zn0 O31 1.955 . S
Zn1 O2 1.911 . S
Zn1 O21 1.970 . S
Zn1 O37 1.945 . S
Zn1 O44 1.981 . S
O2 Zn0 1.933 1_554 S
O2 Zn1 1.911 . S
O2 H3 0.841 1_655 S
H3 O2 0.841 1_455 S
C4 O5 1.246 . S
C4 O33 1.276 1_545 S
O5 C4 1.246 . S
Zn6 O8 1.911 . S
Zn6 O23 1.970 . S
Zn6 O40 1.945 . S
Zn6 O47 1.981 . S
Zn7 O8 1.933 1_556 S
Zn7 O22 1.985 . S
Zn7 O29 1.955 . S
O8 Zn6 1.911 . S
O8 Zn7 1.933 1_554 S
O8 H9 0.841 1_455 S
H9 O8 0.841 1_655 S
Zn10 O11 1.933 1_556 S
Zn10 O24 1.985 . S
Zn10 O33 1.955 . S
O11 Zn10 1.933 1_554 S
O11 Zn12 1.911 . S
O11 H13 0.841 1_565 S
Zn12 O11 1.911 . S
Zn12 O25 1.970 . S
Zn12 O41 1.981 . S
Zn12 O43 1.945 . S
H13 O11 0.841 1_545 S
Zn14 O15 1.933 1_556 S
Zn14 O27 1.985 . S
Zn14 O35 1.955 . S
O15 Zn14 1.933 1_554 S
O15 H16 0.841 1_545 S
O15 Zn17 1.911 . S
H16 O15 0.841 1_565 S
Zn17 O15 1.911 . S
Zn17 O28 1.970 . S
Zn17 O38 1.981 . S
Zn17 O46 1.945 . S
C18 O19 1.246 . S
C18 O35 1.276 1_565 S
O19 C18 1.246 . S
O20 Zn0 1.985 . S
O20 C30 1.245 1_556 S
O21 Zn1 1.970 . S
O21 C30 1.263 . S
O22 Zn7 1.985 . S
O22 C34 1.245 1_556 S
O23 Zn6 1.970 . S
O23 C34 1.263 . S
O24 Zn10 1.985 . S
O24 C39 1.245 1_556 S
O25 Zn12 1.970 . S
O25 C39 1.263 . S
C26 O37 1.262 1_455 S
C26 O38 1.245 . S
O27 Zn14 1.985 . S
O27 C45 1.245 1_556 S
O28 Zn17 1.970 . S
O28 C45 1.263 . S
O29 Zn7 1.955 . S
O29 C48 1.276 1_455 S
C30 O20 1.245 1_554 S
C30 O21 1.263 . S
O31 Zn0 1.955 . S
O31 C50 1.276 1_655 S
C32 O40 1.262 1_655 S
C32 O41 1.245 . S
O33 C4 1.276 1_565 S
O33 Zn10 1.955 . S
C34 O22 1.245 1_554 S
C34 O23 1.263 . S
O35 Zn14 1.955 . S
O35 C18 1.276 1_545 S
C36 O43 1.262 1_545 S
C36 O44 1.245 . S
O37 Zn1 1.945 . S
O37 C26 1.262 1_655 S
O38 Zn17 1.981 . S
O38 C26 1.245 . S
C39 O24 1.245 1_554 S
C39 O25 1.263 . S
O40 Zn6 1.945 . S
O40 C32 1.262 1_455 S
O41 Zn12 1.981 . S
O41 C32 1.245 . S
C42 O46 1.262 1_565 S
C42 O47 1.245 . S
O43 Zn12 1.945 . S
O43 C36 1.262 1_565 S
O44 Zn1 1.981 . S
O44 C36 1.245 . S
C45 O27 1.245 1_554 S
C45 O28 1.263 . S
O46 Zn17 1.945 . S
O46 C42 1.262 1_545 S
O47 Zn6 1.981 . S
O47 C42 1.245 . S
C48 O29 1.276 1_655 S
C48 O49 1.246 . S
O49 C48 1.246 . S
C50 O31 1.276 1_455 S
C50 O51 1.246 . S
O51 C50 1.246 . S
Zn52 O54 1.933 . S
Zn52 O72 1.985 . S
Zn52 O83 1.955 . S
Zn53 O54 1.911 . S
Zn53 O73 1.970 . S
Zn53 O89 1.945 . S
Zn53 O96 1.981 . S
O54 Zn52 1.933 . S
O54 Zn53 1.911 . S
O54 H55 0.841 . S
H55 O54 0.841 . S
C56 O57 1.246 . S
C56 O85 1.276 . S
O57 C56 1.246 . S
Zn58 O60 1.911 . S
Zn58 O75 1.970 . S
Zn58 O92 1.945 . S
Zn58 O99 1.981 . S
Zn59 O60 1.933 . S
Zn59 O74 1.985 . S
Zn59 O81 1.955 . S
O60 Zn58 1.911 . S
O60 Zn59 1.933 . S
O60 H61 0.841 . S
H61 O60 0.841 . S
Zn62 O63 1.933 . S
Zn62 O76 1.985 . S
Zn62 O85 1.955 . S
O63 Zn62 1.933 . S
O63 Zn64 1.911 . S
O63 H65 0.841 . S
Zn64 O63 1.911 . S
Zn64 O77 1.970 . S
Zn64 O93 1.981 . S
Zn64 O95 1.945 . S
H65 O63 0.841 . S
Zn66 O67 1.933 . S
Zn66 O79 1.985 . S
Zn66 O87 1.955 . S
O67 Zn66 1.933 . S
O67 H68 0.841 . S
O67 Zn69 1.911 . S
H68 O67 0.841 . S
Zn69 O67 1.911 . S
Zn69 O80 1.970 . S
Zn69 O90 1.981 . S
Zn69 O98 1.945 . S
C70 O71 1.246 . S
C70 O87 1.276 . S
O71 C70 1.246 . S
O72 Zn52 1.985 . S
O72 C82 1.245 . S
O73 Zn53 1.970 . S
O73 C82 1.263 . S
O74 Zn59 1.985 . S
O74 C86 1.245 . S
O75 Zn58 1.970 . S
O75 C86 1.263 . S
O76 Zn62 1.985 . S
O76 C91 1.245 . S
O77 Zn64 1.970 . S
O77 C91 1.263 . S
C78 O89 1.262 . S
C78 O90 1.245 . S
O79 Zn66 1.985 . S
O79 C97 1.245 . S
O80 Zn69 1.970 . S
O80 C97 1.263 . S
O81 Zn59 1.955 . S
O81 C100 1.276 . S
C82 O72 1.245 . S
C82 O73 1.263 . S
O83 Zn52 1.955 . S
O83 C102 1.276 . S
C84 O92 1.262 . S
C84 O93 1.245 . S
O85 C56 1.276 . S
O85 Zn62 1.955 . S
C86 O74 1.245 . S
C86 O75 1.263 . S
O87 Zn66 1.955 . S
O87 C70 1.276 . S
C88 O95 1.262 . S
C88 O96 1.245 . S
O89 Zn53 1.945 . S
O89 C78 1.262 . S
O90 Zn69 1.981 . S
O90 C78 1.245 . S
C91 O76 1.245 . S
C91 O77 1.263 . S
O92 Zn58 1.945 . S
O92 C84 1.262 . S
O93 Zn64 1.981 . S
O93 C84 1.245 . S
C94 O98 1.262 . S
C94 O99 1.245 . S
O95 Zn64 1.945 . S
O95 C88 1.262 . S
O96 Zn53 1.981 . S
O96 C88 1.245 . S
C97 O79 1.245 . S
C97 O80 1.263 . S
O98 Zn69 1.945 . S
O98 C94 1.262 . S
O99 Zn58 1.981 . S
O99 C94 1.245 . S
C100 O81 1.276 . S
C100 O101 1.246 . S
O101 C100 1.246 . S
C102 O83 1.276 . S
C102 O103 1.246 . S
O103 C102 1.246 . S
C104 C105 1.391 . S
C104 C108 1.391 . S
C104 H146 0.948 . S
C105 C104 1.391 . S
C105 C106 1.391 . S
C106 C105 1.391 . S
C106 H162 0.947 . S
C106 C163 1.392 . S
C107 C108 1.391 . S
C107 C111 1.397 . S
C107 C163 1.419 . S
C108 C104 1.391 . S
C108 C107 1.391 . S
C108 C109 1.399 . S
C109 C108 1.399 . S
C109 C112 1.396 . S
C109 C121 1.453 . S
C109 C122 1.684 . S
H110 C134 0.948 . S
C111 C107 1.397 . S
C111 C112 1.394 . S
C111 C130 1.723 1_556 S
C112 C109 1.396 . S
C112 C111 1.394 . S
C112 C142 1.723 1_556 S
H113 C136 0.947 . S
H114 C137 0.948 . S
H115 C143 0.982 . S
H116 C144 0.979 . S
H117 C144 0.980 . S
H118 C144 0.983 . S
H119 C143 0.979 . S
H120 C143 0.977 . S
C121 C109 1.453 . S
C121 H150 0.982 . S
C121 H151 0.979 . S
C121 H152 0.977 . S
C122 C109 1.684 . S
C122 H147 0.979 . S
C122 H148 0.980 . S
C122 H149 0.983 . S
C123 C124 1.391 . S
C123 C128 1.391 . S
C123 H153 0.948 . S
C124 C123 1.391 . S
C124 C125 1.391 . S
C125 C124 1.391 . S
C125 C126 1.392 . S
C125 H154 0.947 . S
C126 C125 1.392 . S
C126 C127 1.419 . S
C126 H155 0.948 . S
C127 C126 1.419 . S
C127 C128 1.391 . S
C127 C131 1.397 . S
C128 C123 1.391 . S
C128 C127 1.391 . S
C128 C129 1.399 . S
C129 C128 1.399 . S
C129 C130 1.396 . S
C129 C132 1.453 . S
C129 C133 1.684 . S
C130 C111 1.723 1_554 S
C130 C129 1.396 . S
C130 C131 1.394 . S
C131 C127 1.397 . S
C131 C130 1.394 . S
C131 C141 1.723 . S
C132 C129 1.453 . S
C132 H156 0.982 . S
C132 H157 0.979 . S
C132 H158 0.977 . S
C133 C129 1.684 . S
C133 H159 0.979 . S
C133 H160 0.980 . S
C133 H161 0.983 . S
C134 H110 0.948 . S
C134 C135 1.391 . S
C134 C139 1.391 . S
C135 C134 1.391 . S
C135 C136 1.391 1_554 S
C136 H113 0.947 . S
C136 C135 1.391 1_556 S
C136 C137 1.392 . S
C137 H114 0.948 . S
C137 C136 1.392 . S
C137 C138 1.419 1_556 S
C138 C137 1.419 1_554 S
C138 C139 1.391 . S
C138 C142 1.397 . S
C139 C134 1.391 . S
C139 C138 1.391 . S
C139 C140 1.399 . S
C140 C139 1.399 . S
C140 C141 1.396 . S
C140 C143 1.453 . S
C140 C144 1.684 . S
C141 C131 1.723 . S
C141 C140 1.396 . S
C141 C142 1.394 . S
C142 C112 1.723 1_554 S
C142 C138 1.397 . S
C142 C141 1.394 . S
C143 H115 0.982 . S
C143 H119 0.979 . S
C143 H120 0.977 . S
C143 C140 1.453 . S
C144 H116 0.979 . S
C144 H117 0.980 . S
C144 H118 0.983 . S
C144 C140 1.684 . S
H145 C163 0.948 . S
H146 C104 0.948 . S
H147 C122 0.979 . S
H148 C122 0.980 . S
H149 C122 0.983 . S
H150 C121 0.982 . S
H151 C121 0.979 . S
H152 C121 0.977 . S
H153 C123 0.948 . S
H154 C125 0.947 . S
H155 C126 0.948 . S
H156 C132 0.982 . S
H157 C132 0.979 . S
H158 C132 0.977 . S
H159 C133 0.979 . S
H160 C133 0.980 . S
H161 C133 0.983 . S
H162 C106 0.947 . S
C163 C106 1.392 . S
C163 C107 1.419 . S
C163 H145 0.948 . S
C164 C165 1.391 . S
C164 C168 1.391 . S
C164 H206 0.948 . S
C165 C164 1.391 . S
C165 C166 1.391 . S
C166 C165 1.391 . S
C166 H222 0.947 . S
C166 C223 1.392 . S
C167 C168 1.391 . S
C167 C171 1.397 . S
C167 C223 1.419 . S
C168 C164 1.391 . S
C168 C167 1.391 . S
C168 C169 1.399 . S
C169 C168 1.399 . S
C169 C172 1.396 . S
C169 C181 1.453 . S
C169 C182 1.684 . S
H170 C194 0.948 . S
C171 C167 1.397 . S
C171 C172 1.394 . S
C171 C190 1.723 1_556 S
C172 C169 1.396 . S
C172 C171 1.394 . S
C172 C202 1.723 1_556 S
H173 C196 0.947 . S
H174 C197 0.948 . S
H175 C203 0.982 . S
H176 C204 0.979 . S
H177 C204 0.980 . S
H178 C204 0.983 . S
H179 C203 0.979 . S
H180 C203 0.977 . S
C181 C169 1.453 . S
C181 H210 0.982 . S
C181 H211 0.979 . S
C181 H212 0.977 . S
C182 C169 1.684 . S
C182 H207 0.979 . S
C182 H208 0.980 . S
C182 H209 0.983 . S
C183 C184 1.391 . S
C183 C188 1.391 . S
C183 H213 0.948 . S
C184 C183 1.391 . S
C184 C185 1.391 . S
C185 C184 1.391 . S
C185 C186 1.392 . S
C185 H214 0.947 . S
C186 C185 1.392 . S
C186 C187 1.419 . S
C186 H215 0.948 . S
C187 C186 1.419 . S
C187 C188 1.391 . S
C187 C191 1.397 . S
C188 C183 1.391 . S
C188 C187 1.391 . S
C188 C189 1.399 . S
C189 C188 1.399 . S
C189 C190 1.396 . S
C189 C192 1.453 . S
C189 C193 1.684 . S
C190 C171 1.723 1_554 S
C190 C189 1.396 . S
C190 C191 1.394 . S
C191 C187 1.397 . S
C191 C190 1.394 . S
C191 C201 1.723 . S
C192 C189 1.453 . S
C192 H216 0.982 . S
C192 H217 0.979 . S
C192 H218 0.977 . S
C193 C189 1.684 . S
C193 H219 0.979 . S
C193 H220 0.980 . S
C193 H221 0.983 . S
C194 H170 0.948 . S
C194 C195 1.391 . S
C194 C199 1.391 . S
C195 C194 1.391 . S
C195 C196 1.391 1_554 S
C196 H173 0.947 . S
C196 C195 1.391 1_556 S
C196 C197 1.392 . S
C197 H174 0.948 . S
C197 C196 1.392 . S
C197 C198 1.419 1_556 S
C198 C197 1.419 1_554 S
C198 C199 1.391 . S
C198 C202 1.397 . S
C199 C194 1.391 . S
C199 C198 1.391 . S
C199 C200 1.399 . S
C200 C199 1.399 . S
C200 C201 1.396 . S
C200 C203 1.453 . S
C200 C204 1.684 . S
C201 C191 1.723 . S
C201 C200 1.396 . S
C201 C202 1.394 . S
C202 C172 1.723 1_554 S
C202 C198 1.397 . S
C202 C201 1.394 . S
C203 H175 0.982 . S
C203 H179 0.979 . S
C203 H180 0.977 . S
C203 C200 1.453 . S
C204 H176 0.979 . S
C204 H177 0.980 . S
C204 H178 0.983 . S
C204 C200 1.684 . S
H205 C223 0.948 . S
H206 C164 0.948 . S
H207 C182 0.979 . S
H208 C182 0.980 . S
H209 C182 0.983 . S
H210 C181 0.982 . S
H211 C181 0.979 . S
H212 C181 0.977 . S
H213 C183 0.948 . S
H214 C185 0.947 . S
H215 C186 0.948 . S
H216 C192 0.982 . S
H217 C192 0.979 . S
H218 C192 0.977 . S
H219 C193 0.979 . S
H220 C193 0.980 . S
H221 C193 0.983 . S
H222 C166 0.947 . S
C223 C166 1.392 . S
C223 C167 1.419 . S
C223 H205 0.948 . S
C224 C225 1.391 . S
C224 C228 1.391 . S
C224 H266 0.948 . S
C225 C224 1.391 . S
C225 C226 1.391 . S
C226 C225 1.391 . S
C226 H282 0.947 . S
C226 C283 1.392 . S
C227 C228 1.391 . S
C227 C231 1.397 . S
C227 C283 1.419 . S
C228 C224 1.391 . S
C228 C227 1.391 . S
C228 C229 1.399 . S
C229 C228 1.399 . S
C229 C232 1.396 . S
C229 C241 1.453 . S
C229 C242 1.684 . S
H230 C254 0.948 . S
C231 C227 1.397 . S
C231 C232 1.394 . S
C231 C250 1.723 . S
C232 C229 1.396 . S
C232 C231 1.394 . S
C232 C262 1.723 . S
H233 C256 0.947 . S
H234 C257 0.948 . S
H235 C263 0.982 . S
H236 C264 0.979 . S
H237 C264 0.980 . S
H238 C264 0.983 . S
H239 C263 0.979 . S
H240 C263 0.977 . S
C241 C229 1.453 . S
C241 H270 0.982 . S
C241 H271 0.979 . S
C241 H272 0.977 . S
C242 C229 1.684 . S
C242 H267 0.979 . S
C242 H268 0.980 . S
C242 H269 0.983 . S
C243 C244 1.391 . S
C243 C248 1.391 . S
C243 H273 0.948 . S
C244 C243 1.391 . S
C244 C245 1.391 . S
C245 C244 1.391 . S
C245 C246 1.392 . S
C245 H274 0.947 . S
C246 C245 1.392 . S
C246 C247 1.419 . S
C246 H275 0.948 . S
C247 C246 1.419 . S
C247 C248 1.391 . S
C247 C251 1.397 . S
C248 C243 1.391 . S
C248 C247 1.391 . S
C248 C249 1.399 . S
C249 C248 1.399 . S
C249 C250 1.396 1_556 S
C249 C252 1.453 1_556 S
C249 C253 1.684 1_556 S
C250 C231 1.723 . S
C250 C249 1.396 1_554 S
C250 C251 1.394 1_554 S
C251 C247 1.397 . S
C251 C250 1.394 1_556 S
C251 C261 1.723 . S
C252 C249 1.453 1_554 S
C252 H276 0.982 1_554 S
C252 H277 0.979 1_554 S
C252 H278 0.977 . S
C253 C249 1.684 1_554 S
C253 H279 0.983 . S
C253 H280 0.980 . S
C253 H281 0.983 1_554 S
C254 H230 0.948 . S
C254 C255 1.391 1_556 S
C254 C259 1.391 1_556 S
C255 C254 1.391 1_554 S
C255 C256 1.391 . S
C256 H233 0.947 . S
C256 C255 1.391 . S
C256 C257 1.392 . S
C257 H234 0.948 . S
C257 C256 1.392 . S
C257 C258 1.419 . S
C258 C257 1.419 . S
C258 C259 1.391 . S
C258 C262 1.397 . S
C259 C254 1.391 1_554 S
C259 C258 1.391 . S
C259 C260 1.399 1_554 S
C260 C259 1.399 1_556 S
C260 C261 1.396 . S
C260 C263 1.453 . S
C260 C264 1.684 . S
C261 C251 1.723 . S
C261 C260 1.396 . S
C261 C262 1.394 1_556 S
C262 C232 1.723 . S
C262 C258 1.397 . S
C262 C261 1.394 1_554 S
C263 H235 0.982 . S
C263 H239 0.979 . S
C263 H240 0.977 . S
C263 C260 1.453 . S
C264 H236 0.979 . S
C264 H237 0.980 . S
C264 H238 0.983 . S
C264 C260 1.684 . S
H265 C283 0.948 . S
H266 C224 0.948 . S
H267 C242 0.979 . S
H268 C242 0.980 . S
H269 C242 0.983 . S
H270 C241 0.982 . S
H271 C241 0.979 . S
H272 C241 0.977 . S
H273 C243 0.948 . S
H274 C245 0.947 . S
H275 C246 0.948 . S
H276 C252 0.982 1_556 S
H277 C252 0.979 1_556 S
H278 C252 0.977 . S
H279 C253 0.983 . S
H280 C253 0.980 . S
H281 C253 0.983 1_556 S
H282 C226 0.947 . S
C283 C226 1.392 . S
C283 C227 1.419 . S
C283 H265 0.948 . S
C284 C285 1.391 . S
C284 C288 1.391 . S
C284 H326 0.948 . S
C285 C284 1.391 . S
C285 C286 1.391 . S
C286 C285 1.391 . S
C286 H342 0.947 . S
C286 C343 1.392 . S
C287 C288 1.391 . S
C287 C291 1.397 . S
C287 C343 1.419 . S
C288 C284 1.391 . S
C288 C287 1.391 . S
C288 C289 1.399 . S
C289 C288 1.399 . S
C289 C292 1.396 . S
C289 C301 1.453 . S
C289 C302 1.684 . S
H290 C314 0.948 . S
C291 C287 1.397 . S
C291 C292 1.394 . S
C291 C310 1.723 . S
C292 C289 1.396 . S
C292 C291 1.394 . S
C292 C322 1.723 . S
H293 C316 0.947 . S
H294 C317 0.948 . S
H295 C323 0.982 . S
H296 C324 0.979 . S
H297 C324 0.980 . S
H298 C324 0.983 . S
H299 C323 0.979 . S
H300 C323 0.977 . S
C301 C289 1.453 . S
C301 H330 0.982 . S
C301 H331 0.979 . S
C301 H332 0.977 . S
C302 C289 1.684 . S
C302 H327 0.979 . S
C302 H328 0.980 . S
C302 H329 0.983 . S
C303 C304 1.391 . S
C303 C308 1.391 . S
C303 H333 0.948 . S
C304 C303 1.391 . S
C304 C305 1.391 . S
C305 C304 1.391 . S
C305 C306 1.392 . S
C305 H334 0.947 . S
C306 C305 1.392 . S
C306 C307 1.419 . S
C306 H335 0.948 . S
C307 C306 1.419 . S
C307 C308 1.391 . S
C307 C311 1.397 . S
C308 C303 1.391 . S
C308 C307 1.391 . S
C308 C309 1.399 . S
C309 C308 1.399 . S
C309 C310 1.396 1_556 S
C309 C312 1.453 1_556 S
C309 C313 1.684 1_556 S
C310 C291 1.723 . S
C310 C309 1.396 1_554 S
C310 C311 1.394 1_554 S
C311 C307 1.397 . S
C311 C310 1.394 1_556 S
C311 C321 1.723 . S
C312 C309 1.453 1_554 S
C312 H336 0.982 1_554 S
C312 H337 0.979 1_554 S
C312 H338 0.977 . S
C313 C309 1.684 1_554 S
C313 H339 0.983 . S
C313 H340 0.980 . S
C313 H341 0.983 1_554 S
C314 H290 0.948 . S
C314 C315 1.391 1_556 S
C314 C319 1.391 1_556 S
C315 C314 1.391 1_554 S
C315 C316 1.391 . S
C316 H293 0.947 . S
C316 C315 1.391 . S
C316 C317 1.392 . S
C317 H294 0.948 . S
C317 C316 1.392 . S
C317 C318 1.419 . S
C318 C317 1.419 . S
C318 C319 1.391 . S
C318 C322 1.397 . S
C319 C314 1.391 1_554 S
C319 C318 1.391 . S
C319 C320 1.399 1_554 S
C320 C319 1.399 1_556 S
C320 C321 1.396 . S
C320 C323 1.453 . S
C320 C324 1.684 . S
C321 C311 1.723 . S
C321 C320 1.396 . S
C321 C322 1.394 1_556 S
C322 C292 1.723 . S
C322 C318 1.397 . S
C322 C321 1.394 1_554 S
C323 H295 0.982 . S
C323 H299 0.979 . S
C323 H300 0.977 . S
C323 C320 1.453 . S
C324 H296 0.979 . S
C324 H297 0.980 . S
C324 H298 0.983 . S
C324 C320 1.684 . S
H325 C343 0.948 . S
H326 C284 0.948 . S
H327 C302 0.979 . S
H328 C302 0.980 . S
H329 C302 0.983 . S
H330 C301 0.982 . S
H331 C301 0.979 . S
H332 C301 0.977 . S
H333 C303 0.948 . S
H334 C305 0.947 . S
H335 C306 0.948 . S
H336 C312 0.982 1_556 S
H337 C312 0.979 1_556 S
H338 C312 0.977 . S
H339 C313 0.983 . S
H340 C313 0.980 . S
H341 C313 0.983 1_556 S
H342 C286 0.947 . S
C343 C286 1.392 . S
C343 C287 1.419 . S
C343 H325 0.948 . S
C344 C345 1.391 . S
C344 C348 1.391 . S
C344 H386 0.948 . S
C345 C344 1.391 . S
C345 C346 1.391 . S
C346 C345 1.391 . S
C346 H402 0.947 . S
C346 C403 1.392 . S
C347 C348 1.391 . S
C347 C351 1.397 . S
C347 C403 1.419 . S
C348 C344 1.391 . S
C348 C347 1.391 . S
C348 C349 1.399 . S
C349 C348 1.399 . S
C349 C352 1.396 . S
C349 C361 1.453 . S
C349 C362 1.684 . S
H350 C374 0.948 . S
C351 C347 1.397 . S
C351 C352 1.394 . S
C351 C370 1.723 . S
C352 C349 1.396 . S
C352 C351 1.394 . S
C352 C382 1.723 . S
H353 C376 0.947 . S
H354 C377 0.948 . S
H355 C383 0.982 . S
H356 C384 0.979 . S
H357 C384 0.980 . S
H358 C384 0.983 . S
H359 C383 0.979 . S
H360 C383 0.977 . S
C361 C349 1.453 . S
C361 H390 0.982 . S
C361 H391 0.979 . S
C361 H392 0.977 . S
C362 C349 1.684 . S
C362 H387 0.979 . S
C362 H388 0.980 . S
C362 H389 0.983 . S
C363 C364 1.391 . S
C363 C368 1.391 . S
C363 H393 0.948 . S
C364 C363 1.391 . S
C364 C365 1.391 . S
C365 C364 1.391 . S
C365 C366 1.392 . S
C365 H394 0.947 . S
C366 C365 1.392 . S
C366 C367 1.419 . S
C366 H395 0.948 . S
C367 C366 1.419 . S
C367 C368 1.391 . S
C367 C371 1.397 . S
C368 C363 1.391 . S
C368 C367 1.391 . S
C368 C369 1.399 . S
C369 C368 1.399 . S
C369 C370 1.396 . S
C369 C372 1.453 . S
C369 C373 1.684 . S
C370 C351 1.723 . S
C370 C369 1.396 . S
C370 C371 1.394 . S
C371 C367 1.397 . S
C371 C370 1.394 . S
C371 C381 1.723 . S
C372 C369 1.453 . S
C372 H396 0.982 . S
C372 H397 0.979 . S
C372 H398 0.977 . S
C373 C369 1.684 . S
C373 H399 0.979 . S
C373 H400 0.980 . S
C373 H401 0.983 . S
C374 H350 0.948 . S
C374 C375 1.391 . S
C374 C379 1.391 . S
C375 C374 1.391 . S
C375 C376 1.391 . S
C376 H353 0.947 . S
C376 C375 1.391 . S
C376 C377 1.392 . S
C377 H354 0.948 . S
C377 C376 1.392 . S
C377 C378 1.419 . S
C378 C377 1.419 . S
C378 C379 1.391 . S
C378 C382 1.397 . S
C379 C374 1.391 . S
C379 C378 1.391 . S
C379 C380 1.399 . S
C380 C379 1.399 . S
C380 C381 1.396 . S
C380 C383 1.453 . S
C380 C384 1.684 . S
C381 C371 1.723 . S
C381 C380 1.396 . S
C381 C382 1.394 . S
C382 C352 1.723 . S
C382 C378 1.397 . S
C382 C381 1.394 . S
C383 H355 0.982 . S
C383 H359 0.979 . S
C383 H360 0.977 . S
C383 C380 1.453 . S
C384 H356 0.979 . S
C384 H357 0.980 . S
C384 H358 0.983 . S
C384 C380 1.684 . S
H385 C403 0.948 . S
H386 C344 0.948 . S
H387 C362 0.979 . S
H388 C362 0.980 . S
H389 C362 0.983 . S
H390 C361 0.982 . S
H391 C361 0.979 . S
H392 C361 0.977 . S
H393 C363 0.948 . S
H394 C365 0.947 . S
H395 C366 0.948 . S
H396 C372 0.982 . S
H397 C372 0.979 . S
H398 C372 0.977 . S
H399 C373 0.979 . S
H400 C373 0.980 . S
H401 C373 0.983 . S
H402 C346 0.947 . S
C403 C346 1.392 . S
C403 C347 1.419 . S
C403 H385 0.948 . S
C404 C405 1.391 . S
C404 C408 1.391 . S
C404 H446 0.948 . S
C405 C404 1.391 . S
C405 C406 1.391 . S
C406 C405 1.391 . S
C406 H462 0.947 . S
C406 C463 1.392 . S
C407 C408 1.391 . S
C407 C411 1.397 . S
C407 C463 1.419 . S
C408 C404 1.391 . S
C408 C407 1.391 . S
C408 C409 1.399 . S
C409 C408 1.399 . S
C409 C412 1.396 . S
C409 C421 1.453 . S
C409 C422 1.684 . S
H410 C434 0.948 . S
C411 C407 1.397 . S
C411 C412 1.394 . S
C411 C430 1.723 . S
C412 C409 1.396 . S
C412 C411 1.394 . S
C412 C442 1.723 . S
H413 C436 0.947 . S
H414 C437 0.948 . S
H415 C443 0.982 . S
H416 C444 0.979 . S
H417 C444 0.980 . S
H418 C444 0.983 . S
H419 C443 0.979 . S
H420 C443 0.977 . S
C421 C409 1.453 . S
C421 H450 0.982 . S
C421 H451 0.979 . S
C421 H452 0.977 . S
C422 C409 1.684 . S
C422 H447 0.979 . S
C422 H448 0.980 . S
C422 H449 0.983 . S
C423 C424 1.391 . S
C423 C428 1.391 . S
C423 H453 0.948 . S
C424 C423 1.391 . S
C424 C425 1.391 . S
C425 C424 1.391 . S
C425 C426 1.392 . S
C425 H454 0.947 . S
C426 C425 1.392 . S
C426 C427 1.419 . S
C426 H455 0.948 . S
C427 C426 1.419 . S
C427 C428 1.391 . S
C427 C431 1.397 . S
C428 C423 1.391 . S
C428 C427 1.391 . S
C428 C429 1.399 . S
C429 C428 1.399 . S
C429 C430 1.396 . S
C429 C432 1.453 . S
C429 C433 1.684 . S
C430 C411 1.723 . S
C430 C429 1.396 . S
C430 C431 1.394 . S
C431 C427 1.397 . S
C431 C430 1.394 . S
C431 C441 1.723 . S
C432 C429 1.453 . S
C432 H456 0.982 . S
C432 H457 0.979 . S
C432 H458 0.977 . S
C433 C429 1.684 . S
C433 H459 0.979 . S
C433 H460 0.980 . S
C433 H461 0.983 . S
C434 H410 0.948 . S
C434 C435 1.391 . S
C434 C439 1.391 . S
C435 C434 1.391 . S
C435 C436 1.391 . S
C436 H413 0.947 . S
C436 C435 1.391 . S
C436 C437 1.392 . S
C437 H414 0.948 . S
C437 C436 1.392 . S
C437 C438 1.419 . S
C438 C437 1.419 . S
C438 C439 1.391 . S
C438 C442 1.397 . S
C439 C434 1.391 . S
C439 C438 1.391 . S
C439 C440 1.399 . S
C440 C439 1.399 . S
C440 C441 1.396 . S
C440 C443 1.453 . S
C440 C444 1.684 . S
C441 C431 1.723 . S
C441 C440 1.396 . S
C441 C442 1.394 . S
C442 C412 1.723 . S
C442 C438 1.397 . S
C442 C441 1.394 . S
C443 H415 0.982 . S
C443 H419 0.979 . S
C443 H420 0.977 . S
C443 C440 1.453 . S
C444 H416 0.979 . S
C444 H417 0.980 . S
C444 H418 0.983 . S
C444 C440 1.684 . S
H445 C463 0.948 . S
H446 C404 0.948 . S
H447 C422 0.979 . S
H448 C422 0.980 . S
H449 C422 0.983 . S
H450 C421 0.982 . S
H451 C421 0.979 . S
H452 C421 0.977 . S
H453 C423 0.948 . S
H454 C425 0.947 . S
H455 C426 0.948 . S
H456 C432 0.982 . S
H457 C432 0.979 . S
H458 C432 0.977 . S
H459 C433 0.979 . S
H460 C433 0.980 . S
H461 C433 0.983 . S
H462 C406 0.947 . S
C463 C406 1.392 . S
C463 C407 1.419 . S
C463 H445 0.948 . S
C464 C465 1.391 . S
C464 C468 1.391 . S
C464 H506 0.948 . S
C465 C464 1.391 . S
C465 C466 1.391 . S
C466 C465 1.391 . S
C466 H522 0.947 . S
C466 C523 1.392 . S
C467 C468 1.391 . S
C467 C471 1.397 . S
C467 C523 1.419 . S
C468 C464 1.391 . S
C468 C467 1.391 . S
C468 C469 1.399 . S
C469 C468 1.399 . S
C469 C472 1.396 . S
C469 C481 1.453 . S
C469 C482 1.684 . S
H470 C494 0.948 . S
C471 C467 1.397 . S
C471 C472 1.394 . S
C471 C490 1.723 . S
C472 C469 1.396 . S
C472 C471 1.394 . S
C472 C502 1.723 . S
H473 C496 0.947 . S
H474 C497 0.948 . S
H475 C503 0.982 . S
H476 C504 0.979 . S
H477 C504 0.980 . S
H478 C504 0.983 . S
H479 C503 0.979 . S
H480 C503 0.977 . S
C481 C469 1.453 . S
C481 H510 0.982 . S
C481 H511 0.979 . S
C481 H512 0.977 . S
C482 C469 1.684 . S
C482 H507 0.979 . S
C482 H508 0.980 . S
C482 H509 0.983 . S
C483 C484 1.391 . S
C483 C488 1.391 . S
C483 H513 0.948 . S
C484 C483 1.391 . S
C484 C485 1.391 . S
C485 C484 1.391 . S
C485 C486 1.392 . S
C485 H514 0.947 . S
C486 C485 1.392 . S
C486 C487 1.419 . S
C486 H515 0.948 . S
C487 C486 1.419 . S
C487 C488 1.391 . S
C487 C491 1.397 . S
C488 C483 1.391 . S
C488 C487 1.391 . S
C488 C489 1.399 . S
C489 C488 1.399 . S
C489 C490 1.396 . S
C489 C492 1.453 . S
C489 C493 1.684 . S
C490 C471 1.723 . S
C490 C489 1.396 . S
C490 C491 1.394 . S
C491 C487 1.397 . S
C491 C490 1.394 . S
C491 C501 1.723 . S
C492 C489 1.453 . S
C492 H516 0.982 . S
C492 H517 0.979 . S
C492 H518 0.977 . S
C493 C489 1.684 . S
C493 H519 0.979 . S
C493 H520 0.980 . S
C493 H521 0.983 . S
C494 H470 0.948 . S
C494 C495 1.391 . S
C494 C499 1.391 . S
C495 C494 1.391 . S
C495 C496 1.391 . S
C496 H473 0.947 . S
C496 C495 1.391 . S
C496 C497 1.392 . S
C497 H474 0.948 . S
C497 C496 1.392 . S
C497 C498 1.419 . S
C498 C497 1.419 . S
C498 C499 1.391 . S
C498 C502 1.397 . S
C499 C494 1.391 . S
C499 C498 1.391 . S
C499 C500 1.399 . S
C500 C499 1.399 . S
C500 C501 1.396 . S
C500 C503 1.453 . S
C500 C504 1.684 . S
C501 C491 1.723 . S
C501 C500 1.396 . S
C501 C502 1.394 . S
C502 C472 1.723 . S
C502 C498 1.397 . S
C502 C501 1.394 . S
C503 H475 0.982 . S
C503 H479 0.979 . S
C503 H480 0.977 . S
C503 C500 1.453 . S
C504 H476 0.979 . S
C504 H477 0.980 . S
C504 H478 0.983 . S
C504 C500 1.684 . S
H505 C523 0.948 . S
H506 C464 0.948 . S
H507 C482 0.979 . S
H508 C482 0.980 . S
H509 C482 0.983 . S
H510 C481 0.982 . S
H511 C481 0.979 . S
H512 C481 0.977 . S
H513 C483 0.948 . S
H514 C485 0.947 . S
H515 C486 0.948 . S
H516 C492 0.982 . S
H517 C492 0.979 . S
H518 C492 0.977 . S
H519 C493 0.979 . S
H520 C493 0.980 . S
H521 C493 0.983 . S
H522 C466 0.947 . S
C523 C466 1.392 . S
C523 C467 1.419 . S
C523 H505 0.948 . S
C524 C525 1.391 . S
C524 C528 1.391 . S
C524 H566 0.948 . S
C525 C524 1.391 . S
C525 C526 1.391 . S
C526 C525 1.391 . S
C526 H582 0.947 . S
C526 C583 1.392 . S
C527 C528 1.391 . S
C527 C531 1.397 . S
C527 C583 1.419 . S
C528 C524 1.391 . S
C528 C527 1.391 . S
C528 C529 1.399 . S
C529 C528 1.399 . S
C529 C532 1.396 . S
C529 C541 1.453 . S
C529 C542 1.684 . S
H530 C554 0.948 . S
C531 C527 1.397 . S
C531 C532 1.394 . S
C531 C550 1.723 . S
C532 C529 1.396 . S
C532 C531 1.394 . S
C532 C562 1.723 . S
H533 C556 0.947 . S
H534 C557 0.948 . S
H535 C563 0.982 . S
H536 C564 0.979 . S
H537 C564 0.980 . S
H538 C564 0.983 . S
H539 C563 0.979 . S
H540 C563 0.977 . S
C541 C529 1.453 . S
C541 H570 0.982 . S
C541 H571 0.979 . S
C541 H572 0.977 . S
C542 C529 1.684 . S
C542 H567 0.979 . S
C542 H568 0.980 . S
C542 H569 0.983 . S
C543 C544 1.391 . S
C543 C548 1.391 . S
C543 H573 0.948 . S
C544 C543 1.391 . S
C544 C545 1.391 . S
C545 C544 1.391 . S
C545 C546 1.392 . S
C545 H574 0.947 . S
C546 C545 1.392 . S
C546 C547 1.419 . S
C546 H575 0.948 . S
C547 C546 1.419 . S
C547 C548 1.391 . S
C547 C551 1.397 . S
C548 C543 1.391 . S
C548 C547 1.391 . S
C548 C549 1.399 . S
C549 C548 1.399 . S
C549 C550 1.396 . S
C549 C552 1.453 . S
C549 C553 1.684 . S
C550 C531 1.723 . S
C550 C549 1.396 . S
C550 C551 1.394 . S
C551 C547 1.397 . S
C551 C550 1.394 . S
C551 C561 1.723 . S
C552 C549 1.453 . S
C552 H576 0.982 . S
C552 H577 0.979 . S
C552 H578 0.977 . S
C553 C549 1.684 . S
C553 H579 0.979 . S
C553 H580 0.980 . S
C553 H581 0.983 . S
C554 H530 0.948 . S
C554 C555 1.391 . S
C554 C559 1.391 . S
C555 C554 1.391 . S
C555 C556 1.391 . S
C556 H533 0.947 . S
C556 C555 1.391 . S
C556 C557 1.392 . S
C557 H534 0.948 . S
C557 C556 1.392 . S
C557 C558 1.419 . S
C558 C557 1.419 . S
C558 C559 1.391 . S
C558 C562 1.397 . S
C559 C554 1.391 . S
C559 C558 1.391 . S
C559 C560 1.399 . S
C560 C559 1.399 . S
C560 C561 1.396 . S
C560 C563 1.453 . S
C560 C564 1.684 . S
C561 C551 1.723 . S
C561 C560 1.396 . S
C561 C562 1.394 . S
C562 C532 1.723 . S
C562 C558 1.397 . S
C562 C561 1.394 . S
C563 H535 0.982 . S
C563 H539 0.979 . S
C563 H540 0.977 . S
C563 C560 1.453 . S
C564 H536 0.979 . S
C564 H537 0.980 . S
C564 H538 0.983 . S
C564 C560 1.684 . S
H565 C583 0.948 . S
H566 C524 0.948 . S
H567 C542 0.979 . S
H568 C542 0.980 . S
H569 C542 0.983 . S
H570 C541 0.982 . S
H571 C541 0.979 . S
H572 C541 0.977 . S
H573 C543 0.948 . S
H574 C545 0.947 . S
H575 C546 0.948 . S
H576 C552 0.982 . S
H577 C552 0.979 . S
H578 C552 0.977 . S
H579 C553 0.979 . S
H580 C553 0.980 . S
H581 C553 0.983 . S
H582 C526 0.947 . S
C583 C526 1.392 . S
C583 C527 1.419 . S
C583 H565 0.948 . S
H584 C602 0.951 . S
H585 C604 0.951 . S
H586 C606 0.957 . S
H587 C607 0.950 . S
H588 C609 0.950 . S
H589 C612 0.950 . S
H590 C613 0.950 . S
H591 C615 0.950 . S
H592 C616 0.950 . S
H593 C617 0.952 . S
H594 C619 0.951 . S
H595 C621 0.950 . S
H596 C622 0.950 . S
H597 C624 0.950 . S
H598 C627 0.950 . S
H599 C628 0.950 . S
H600 C630 0.950 . S
H601 C631 0.950 . S
C602 H584 0.951 . S
C602 C603 1.366 . S
C602 C604 1.388 . S
C603 C602 1.366 . S
C603 C607 1.385 . S
C604 H585 0.951 . S
C604 C602 1.388 . S
C604 C605 1.366 . S
C605 C604 1.366 . S
C605 C606 1.414 . S
C605 C608 1.499 . S
C606 H586 0.957 . S
C606 C605 1.414 . S
C606 C607 1.374 . S
C607 H587 0.950 . S
C607 C603 1.385 . S
C607 C606 1.374 . S
C608 C605 1.499 . S
C608 C609 1.373 . S
C608 C610 1.389 . S
C609 H588 0.950 . S
C609 C608 1.373 . S
C609 C625 1.377 . S
C610 C608 1.389 . S
C610 C611 1.524 1_554 S
C610 C624 1.377 . S
C611 C610 1.524 1_556 S
C611 C612 1.397 . S
C611 C616 1.363 1_556 S
C612 H589 0.950 . S
C612 C611 1.397 . S
C612 C613 1.334 . S
C613 H590 0.950 . S
C613 C612 1.334 . S
C613 C614 1.287 . S
C614 C613 1.287 . S
C614 C615 1.524 . S
C614 H633 0.913 . S
C615 H591 0.950 . S
C615 C614 1.524 . S
C615 C616 1.415 1_556 S
C616 H592 0.950 . S
C616 C611 1.363 1_554 S
C616 C615 1.415 1_554 S
C617 H593 0.952 . S
C617 C618 1.366 . S
C617 C619 1.388 . S
C618 C617 1.366 . S
C618 C622 1.385 . S
C619 H594 0.951 . S
C619 C617 1.388 . S
C619 C620 1.366 . S
C620 C619 1.366 . S
C620 C621 1.414 . S
C620 C623 1.499 . S
C621 H595 0.950 . S
C621 C620 1.414 . S
C621 C622 1.374 . S
C622 H596 0.950 . S
C622 C618 1.385 . S
C622 C621 1.374 . S
C623 C620 1.499 . S
C623 C624 1.373 . S
C623 C625 1.389 . S
C624 H597 0.950 . S
C624 C610 1.377 . S
C624 C623 1.373 . S
C625 C609 1.377 . S
C625 C623 1.389 . S
C625 C626 1.524 . S
C626 C625 1.524 . S
C626 C627 1.397 . S
C626 C631 1.363 . S
C627 H598 0.950 . S
C627 C626 1.397 . S
C627 C628 1.334 . S
C628 H599 0.950 . S
C628 C627 1.334 . S
C628 C629 1.287 . S
C629 C628 1.287 . S
C629 C630 1.524 . S
C629 H632 0.999 . S
C630 H600 0.950 . S
C630 C629 1.524 . S
C630 C631 1.415 . S
C631 H601 0.950 . S
C631 C626 1.363 . S
C631 C630 1.415 . S
H632 C629 0.999 . S
H633 C614 0.913 . S
H634 C652 0.951 . S
H635 C654 0.951 . S
H636 C656 0.950 . S
H637 C657 0.950 . S
H638 C659 0.950 . S
H639 C662 0.950 . S
H640 C663 0.950 . S
H641 C665 0.950 . S
H642 C666 0.950 . S
H643 C667 0.951 . S
H644 C669 0.951 . S
H645 C671 0.950 . S
H646 C672 0.950 . S
H647 C674 0.951 . S
H648 C677 0.950 . S
H649 C678 0.950 . S
H650 C680 0.950 . S
H651 C681 0.950 . S
C652 H634 0.951 . S
C652 C653 1.366 . S
C652 C654 1.388 . S
C653 C652 1.366 . S
C653 C657 1.385 . S
C654 H635 0.951 . S
C654 C652 1.388 . S
C654 C655 1.366 . S
C655 C654 1.366 . S
C655 C656 1.414 . S
C655 C658 1.499 . S
C656 H636 0.950 . S
C656 C655 1.414 . S
C656 C657 1.374 . S
C657 H637 0.950 . S
C657 C653 1.385 . S
C657 C656 1.374 . S
C658 C655 1.499 . S
C658 C659 1.373 . S
C658 C660 1.389 1_554 S
C659 H638 0.950 . S
C659 C658 1.373 . S
C659 C675 1.377 . S
C660 C658 1.389 1_556 S
C660 C661 1.524 . S
C660 C674 1.377 . S
C661 C660 1.524 . S
C661 C662 1.397 . S
C661 C666 1.363 . S
C662 H639 0.950 . S
C662 C661 1.397 . S
C662 C663 1.334 . S
C663 H640 0.950 . S
C663 C662 1.334 . S
C663 C664 1.287 . S
C664 C663 1.287 . S
C664 C665 1.524 . S
C664 H683 0.913 . S
C665 H641 0.950 . S
C665 C664 1.524 . S
C665 C666 1.415 . S
C666 H642 0.950 . S
C666 C661 1.363 . S
C666 C665 1.415 . S
C667 H643 0.951 . S
C667 C668 1.366 . S
C667 C669 1.388 . S
C668 C667 1.366 . S
C668 C672 1.385 . S
C669 H644 0.951 . S
C669 C667 1.388 . S
C669 C670 1.366 . S
C670 C669 1.366 . S
C670 C671 1.414 . S
C670 C673 1.499 . S
C671 H645 0.950 . S
C671 C670 1.414 . S
C671 C672 1.374 . S
C672 H646 0.950 . S
C672 C668 1.385 . S
C672 C671 1.374 . S
C673 C670 1.499 . S
C673 C674 1.373 1_554 S
C673 C675 1.389 . S
C674 H647 0.951 . S
C674 C660 1.377 . S
C674 C673 1.373 1_556 S
C675 C659 1.377 . S
C675 C673 1.389 . S
C675 C676 1.524 . S
C676 C675 1.524 . S
C676 C677 1.397 . S
C676 C681 1.363 . S
C677 H648 0.950 . S
C677 C676 1.397 . S
C677 C678 1.334 . S
C678 H649 0.950 . S
C678 C677 1.334 . S
C678 C679 1.287 . S
C679 C678 1.287 . S
C679 C680 1.524 . S
C679 H682 0.999 . S
C680 H650 0.950 . S
C680 C679 1.524 . S
C680 C681 1.415 . S
C681 H651 0.950 . S
C681 C676 1.363 . S
C681 C680 1.415 . S
H682 C679 0.999 . S
H683 C664 0.913 . S
H684 C702 0.967 . S
H685 C704 0.957 . S
H686 C706 0.950 . S
H687 C707 0.950 . S
H688 C709 0.950 . S
H689 C712 0.950 . S
H690 C713 0.950 . S
H691 C715 0.950 . S
H692 C716 0.950 . S
H693 C717 0.951 . S
H694 C719 0.951 . S
H695 C721 0.950 . S
H696 C722 0.950 . S
H697 C724 0.950 . S
H698 C727 0.950 . S
H699 C728 0.950 . S
H700 C730 0.950 . S
H701 C731 0.950 . S
C702 H684 0.967 . S
C702 C703 1.350 1_556 S
C702 C704 1.388 . S
C703 C702 1.350 1_554 S
C703 C707 1.385 . S
C704 H685 0.957 . S
C704 C702 1.388 . S
C704 C705 1.359 1_556 S
C705 C704 1.359 1_554 S
C705 C706 1.414 . S
C705 C708 1.499 . S
C706 H686 0.950 . S
C706 C705 1.414 . S
C706 C707 1.374 . S
C707 H687 0.950 . S
C707 C703 1.385 . S
C707 C706 1.374 . S
C708 C705 1.499 . S
C708 C709 1.373 . S
C708 C710 1.389 . S
C709 H688 0.950 . S
C709 C708 1.373 . S
C709 C725 1.377 . S
C710 C708 1.389 . S
C710 C711 1.524 . S
C710 C724 1.377 . S
C711 C710 1.524 . S
C711 C712 1.397 . S
C711 C716 1.363 1_554 S
C712 H689 0.950 . S
C712 C711 1.397 . S
C712 C713 1.334 . S
C713 H690 0.950 . S
C713 C712 1.334 . S
C713 C714 1.287 . S
C714 C713 1.287 . S
C714 C715 1.524 1_554 S
C714 H733 0.913 1_565 S
C715 H691 0.950 . S
C715 C714 1.524 1_556 S
C715 C716 1.415 . S
C716 H692 0.950 . S
C716 C711 1.363 1_556 S
C716 C715 1.415 . S
C717 H693 0.951 . S
C717 C718 1.366 . S
C717 C719 1.388 . S
C718 C717 1.366 . S
C718 C722 1.385 1_554 S
C719 H694 0.951 . S
C719 C717 1.388 . S
C719 C720 1.366 . S
C720 C719 1.366 . S
C720 C721 1.414 1_554 S
C720 C723 1.499 . S
C721 H695 0.950 . S
C721 C720 1.414 1_556 S
C721 C722 1.374 . S
C722 H696 0.950 . S
C722 C718 1.385 1_556 S
C722 C721 1.374 . S
C723 C720 1.499 . S
C723 C724 1.373 . S
C723 C725 1.389 . S
C724 H697 0.950 . S
C724 C710 1.377 . S
C724 C723 1.373 . S
C725 C709 1.377 . S
C725 C723 1.389 . S
C725 C726 1.524 . S
C726 C725 1.524 . S
C726 C727 1.397 1_554 S
C726 C731 1.363 . S
C727 H698 0.950 . S
C727 C726 1.397 1_556 S
C727 C728 1.334 . S
C728 H699 0.950 . S
C728 C727 1.334 . S
C728 C729 1.287 1_556 S
C729 C728 1.287 1_554 S
C729 C730 1.524 . S
C729 H732 0.999 . S
C730 H700 0.950 . S
C730 C729 1.524 . S
C730 C731 1.415 . S
C731 H701 0.950 . S
C731 C726 1.363 . S
C731 C730 1.415 . S
H732 C729 0.999 . S
H733 C714 0.913 1_545 S
H734 C752 0.951 . S
H735 C754 0.951 . S
H736 C756 0.950 . S
H737 C757 0.950 . S
H738 C759 0.950 . S
H739 C762 0.950 1_556 S
H740 C763 0.950 1_556 S
H741 C765 0.950 . S
H742 C766 0.950 . S
H743 C767 0.951 . S
H744 C769 0.951 . S
H745 C771 0.950 . S
H746 C772 0.950 . S
H747 C774 0.950 . S
H748 C777 0.950 . S
H749 C778 0.950 . S
H750 C780 0.950 . S
H751 C781 0.950 . S
C752 H734 0.951 . S
C752 C753 1.366 . S
C752 C754 1.388 . S
C753 C752 1.366 . S
C753 C757 1.385 1_554 S
C754 H735 0.951 . S
C754 C752 1.388 . S
C754 C755 1.366 . S
C755 C754 1.366 . S
C755 C756 1.414 1_554 S
C755 C758 1.499 . S
C756 H736 0.950 . S
C756 C755 1.414 1_556 S
C756 C757 1.374 . S
C757 H737 0.950 . S
C757 C753 1.385 1_556 S
C757 C756 1.374 . S
C758 C755 1.499 . S
C758 C759 1.373 . S
C758 C760 1.389 . S
C759 H738 0.950 . S
C759 C758 1.373 . S
C759 C775 1.377 . S
C760 C758 1.389 . S
C760 C761 1.524 . S
C760 C774 1.377 . S
C761 C760 1.524 . S
C761 C762 1.397 . S
C761 C766 1.363 . S
C762 H739 0.950 1_554 S
C762 C761 1.397 . S
C762 C763 1.334 . S
C763 H740 0.950 1_554 S
C763 C762 1.334 . S
C763 C764 1.287 . S
C764 C763 1.287 . S
C764 C765 1.524 . S
C764 H783 0.913 . S
C765 H741 0.950 . S
C765 C764 1.524 . S
C765 C766 1.415 . S
C766 H742 0.950 . S
C766 C761 1.363 . S
C766 C765 1.415 . S
C767 H743 0.951 . S
C767 C768 1.366 1_556 S
C767 C769 1.388 . S
C768 C767 1.366 1_554 S
C768 C772 1.385 . S
C769 H744 0.951 . S
C769 C767 1.388 . S
C769 C770 1.366 1_556 S
C770 C769 1.366 1_554 S
C770 C771 1.414 . S
C770 C773 1.499 . S
C771 H745 0.950 . S
C771 C770 1.414 . S
C771 C772 1.374 . S
C772 H746 0.950 . S
C772 C768 1.385 . S
C772 C771 1.374 . S
C773 C770 1.499 . S
C773 C774 1.373 . S
C773 C775 1.389 . S
C774 H747 0.950 . S
C774 C760 1.377 . S
C774 C773 1.373 . S
C775 C759 1.377 . S
C775 C773 1.389 . S
C775 C776 1.524 . S
C776 C775 1.524 . S
C776 C777 1.397 . S
C776 C781 1.363 1_554 S
C777 H748 0.950 . S
C777 C776 1.397 . S
C777 C778 1.334 . S
C778 H749 0.950 . S
C778 C777 1.334 . S
C778 C779 1.287 . S
C779 C778 1.287 . S
C779 C780 1.524 1_554 S
C779 H782 0.999 . S
C780 H750 0.950 . S
C780 C779 1.524 1_556 S
C780 C781 1.415 . S
C781 H751 0.950 . S
C781 C776 1.363 1_556 S
C781 C780 1.415 . S
H782 C779 0.999 . S
H783 C764 0.913 . S
H784 C802 0.951 . S
H785 C804 0.951 . S
H786 C806 0.950 . S
H787 C807 0.950 . S
H788 C809 0.950 . S
H789 C812 0.950 . S
H790 C813 0.950 . S
H791 C815 0.950 . S
H792 C816 0.950 . S
H793 C817 0.951 . S
H794 C819 0.951 . S
H795 C821 0.950 . S
H796 C822 0.950 . S
H797 C824 0.950 . S
H798 C827 0.950 . S
H799 C828 0.950 . S
H800 C830 0.950 . S
H801 C831 0.950 . S
C802 H784 0.951 . S
C802 C803 1.366 . S
C802 C804 1.388 . S
C803 C802 1.366 . S
C803 C807 1.385 . S
C804 H785 0.951 . S
C804 C802 1.388 . S
C804 C805 1.366 . S
C805 C804 1.366 . S
C805 C806 1.414 . S
C805 C808 1.499 . S
C806 H786 0.950 . S
C806 C805 1.414 . S
C806 C807 1.374 . S
C807 H787 0.950 . S
C807 C803 1.385 . S
C807 C806 1.374 . S
C808 C805 1.499 . S
C808 C809 1.373 . S
C808 C810 1.389 . S
C809 H788 0.950 . S
C809 C808 1.373 . S
C809 C825 1.377 . S
C810 C808 1.389 . S
C810 C811 1.524 . S
C810 C824 1.377 . S
C811 C810 1.524 . S
C811 C812 1.397 . S
C811 C816 1.363 . S
C812 H789 0.950 . S
C812 C811 1.397 . S
C812 C813 1.334 . S
C813 H790 0.950 . S
C813 C812 1.334 . S
C813 C814 1.287 . S
C814 C813 1.287 . S
C814 C815 1.524 . S
C814 H833 0.913 . S
C815 H791 0.950 . S
C815 C814 1.524 . S
C815 C816 1.415 . S
C816 H792 0.950 . S
C816 C811 1.363 . S
C816 C815 1.415 . S
C817 H793 0.951 . S
C817 C818 1.366 . S
C817 C819 1.388 . S
C818 C817 1.366 . S
C818 C822 1.385 . S
C819 H794 0.951 . S
C819 C817 1.388 . S
C819 C820 1.366 . S
C820 C819 1.366 . S
C820 C821 1.414 . S
C820 C823 1.499 . S
C821 H795 0.950 . S
C821 C820 1.414 . S
C821 C822 1.374 . S
C822 H796 0.950 . S
C822 C818 1.385 . S
C822 C821 1.374 . S
C823 C820 1.499 . S
C823 C824 1.373 . S
C823 C825 1.389 . S
C824 H797 0.950 . S
C824 C810 1.377 . S
C824 C823 1.373 . S
C825 C809 1.377 . S
C825 C823 1.389 . S
C825 C826 1.524 . S
C826 C825 1.524 . S
C826 C827 1.397 . S
C826 C831 1.363 . S
C827 H798 0.950 . S
C827 C826 1.397 . S
C827 C828 1.334 . S
C828 H799 0.950 . S
C828 C827 1.334 . S
C828 C829 1.287 . S
C829 C828 1.287 . S
C829 C830 1.524 . S
C829 H832 0.999 . S
C830 H800 0.950 . S
C830 C829 1.524 . S
C830 C831 1.415 . S
C831 H801 0.950 . S
C831 C826 1.363 . S
C831 C830 1.415 . S
H832 C829 0.999 . S
H833 C814 0.913 . S
H834 C852 0.951 . S
H835 C854 0.951 . S
H836 C856 0.950 . S
H837 C857 0.950 . S
H838 C859 0.950 . S
H839 C862 0.950 . S
H840 C863 0.950 . S
H841 C865 0.950 . S
H842 C866 0.950 . S
H843 C867 0.951 . S
H844 C869 0.951 . S
H845 C871 0.950 . S
H846 C872 0.950 . S
H847 C874 0.950 . S
H848 C877 0.950 . S
H849 C878 0.950 . S
H850 C880 0.950 . S
H851 C881 0.950 . S
C852 H834 0.951 . S
C852 C853 1.366 . S
C852 C854 1.388 . S
C853 C852 1.366 . S
C853 C857 1.385 . S
C854 H835 0.951 . S
C854 C852 1.388 . S
C854 C855 1.366 . S
C855 C854 1.366 . S
C855 C856 1.414 . S
C855 C858 1.499 . S
C856 H836 0.950 . S
C856 C855 1.414 . S
C856 C857 1.374 . S
C857 H837 0.950 . S
C857 C853 1.385 . S
C857 C856 1.374 . S
C858 C855 1.499 . S
C858 C859 1.373 . S
C858 C860 1.389 . S
C859 H838 0.950 . S
C859 C858 1.373 . S
C859 C875 1.377 . S
C860 C858 1.389 . S
C860 C861 1.524 . S
C860 C874 1.377 . S
C861 C860 1.524 . S
C861 C862 1.397 . S
C861 C866 1.363 . S
C862 H839 0.950 . S
C862 C861 1.397 . S
C862 C863 1.334 . S
C863 H840 0.950 . S
C863 C862 1.334 . S
C863 C864 1.287 . S
C864 C863 1.287 . S
C864 C865 1.524 . S
C864 H883 0.913 . S
C865 H841 0.950 . S
C865 C864 1.524 . S
C865 C866 1.415 . S
C866 H842 0.950 . S
C866 C861 1.363 . S
C866 C865 1.415 . S
C867 H843 0.951 . S
C867 C868 1.366 . S
C867 C869 1.388 . S
C868 C867 1.366 . S
C868 C872 1.385 . S
C869 H844 0.951 . S
C869 C867 1.388 . S
C869 C870 1.366 . S
C870 C869 1.366 . S
C870 C871 1.414 . S
C870 C873 1.499 . S
C871 H845 0.950 . S
C871 C870 1.414 . S
C871 C872 1.374 . S
C872 H846 0.950 . S
C872 C868 1.385 . S
C872 C871 1.374 . S
C873 C870 1.499 . S
C873 C874 1.373 . S
C873 C875 1.389 . S
C874 H847 0.950 . S
C874 C860 1.377 . S
C874 C873 1.373 . S
C875 C859 1.377 . S
C875 C873 1.389 . S
C875 C876 1.524 . S
C876 C875 1.524 . S
C876 C877 1.397 . S
C876 C881 1.363 . S
C877 H848 0.950 . S
C877 C876 1.397 . S
C877 C878 1.334 . S
C878 H849 0.950 . S
C878 C877 1.334 . S
C878 C879 1.287 . S
C879 C878 1.287 . S
C879 C880 1.524 . S
C879 H882 0.999 . S
C880 H850 0.950 . S
C880 C879 1.524 . S
C880 C881 1.415 . S
C881 H851 0.950 . S
C881 C876 1.363 . S
C881 C880 1.415 . S
H882 C879 0.999 . S
H883 C864 0.913 . S
H884 C902 0.951 . S
H885 C904 0.951 . S
H886 C906 0.950 . S
H887 C907 0.950 . S
H888 C909 0.950 . S
H889 C912 0.950 . S
H890 C913 0.950 . S
H891 C915 0.950 . S
H892 C916 0.950 . S
H893 C917 0.951 . S
H894 C919 0.951 . S
H895 C921 0.950 . S
H896 C922 0.950 . S
H897 C924 0.950 . S
H898 C927 0.950 . S
H899 C928 0.950 . S
H900 C930 0.950 . S
H901 C931 0.950 . S
C902 H884 0.951 . S
C902 C903 1.366 . S
C902 C904 1.388 . S
C903 C902 1.366 . S
C903 C907 1.385 . S
C904 H885 0.951 . S
C904 C902 1.388 . S
C904 C905 1.366 . S
C905 C904 1.366 . S
C905 C906 1.414 . S
C905 C908 1.499 . S
C906 H886 0.950 . S
C906 C905 1.414 . S
C906 C907 1.374 . S
C907 H887 0.950 . S
C907 C903 1.385 . S
C907 C906 1.374 . S
C908 C905 1.499 . S
C908 C909 1.373 . S
C908 C910 1.389 . S
C909 H888 0.950 . S
C909 C908 1.373 . S
C909 C925 1.377 . S
C910 C908 1.389 . S
C910 C911 1.524 . S
C910 C924 1.377 . S
C911 C910 1.524 . S
C911 C912 1.397 . S
C911 C916 1.363 . S
C912 H889 0.950 . S
C912 C911 1.397 . S
C912 C913 1.334 . S
C913 H890 0.950 . S
C913 C912 1.334 . S
C913 C914 1.287 . S
C914 C913 1.287 . S
C914 C915 1.524 . S
C914 H933 0.913 . S
C915 H891 0.950 . S
C915 C914 1.524 . S
C915 C916 1.415 . S
C916 H892 0.950 . S
C916 C911 1.363 . S
C916 C915 1.415 . S
C917 H893 0.951 . S
C917 C918 1.366 . S
C917 C919 1.388 . S
C918 C917 1.366 . S
C918 C922 1.385 . S
C919 H894 0.951 . S
C919 C917 1.388 . S
C919 C920 1.366 . S
C920 C919 1.366 . S
C920 C921 1.414 . S
C920 C923 1.499 . S
C921 H895 0.950 . S
C921 C920 1.414 . S
C921 C922 1.374 . S
C922 H896 0.950 . S
C922 C918 1.385 . S
C922 C921 1.374 . S
C923 C920 1.499 . S
C923 C924 1.373 . S
C923 C925 1.389 . S
C924 H897 0.950 . S
C924 C910 1.377 . S
C924 C923 1.373 . S
C925 C909 1.377 . S
C925 C923 1.389 . S
C925 C926 1.524 . S
C926 C925 1.524 . S
C926 C927 1.397 . S
C926 C931 1.363 . S
C927 H898 0.950 . S
C927 C926 1.397 . S
C927 C928 1.334 . S
C928 H899 0.950 . S
C928 C927 1.334 . S
C928 C929 1.287 . S
C929 C928 1.287 . S
C929 C930 1.524 . S
C929 H932 0.999 . S
C930 H900 0.950 . S
C930 C929 1.524 . S
C930 C931 1.415 . S
C931 H901 0.950 . S
C931 C926 1.363 . S
C931 C930 1.415 . S
H932 C929 0.999 . S
H933 C914 0.913 . S
H934 C952 0.951 . S
H935 C954 0.951 . S
H936 C956 0.950 . S
H937 C957 0.950 . S
H938 C959 0.950 . S
H939 C962 0.950 . S
H940 C963 0.950 . S
H941 C965 0.950 . S
H942 C966 0.950 . S
H943 C967 0.951 . S
H944 C969 0.951 . S
H945 C971 0.950 . S
H946 C972 0.950 . S
H947 C974 0.950 . S
H948 C977 0.950 . S
H949 C978 0.950 . S
H950 C980 0.950 . S
H951 C981 0.950 . S
C952 H934 0.951 . S
C952 C953 1.366 . S
C952 C954 1.388 . S
C953 C952 1.366 . S
C953 C957 1.385 . S
C954 H935 0.951 . S
C954 C952 1.388 . S
C954 C955 1.366 . S
C955 C954 1.366 . S
C955 C956 1.414 . S
C955 C958 1.499 . S
C956 H936 0.950 . S
C956 C955 1.414 . S
C956 C957 1.374 . S
C957 H937 0.950 . S
C957 C953 1.385 . S
C957 C956 1.374 . S
C958 C955 1.499 . S
C958 C959 1.373 . S
C958 C960 1.389 . S
C959 H938 0.950 . S
C959 C958 1.373 . S
C959 C975 1.377 . S
C960 C958 1.389 . S
C960 C961 1.524 . S
C960 C974 1.377 . S
C961 C960 1.524 . S
C961 C962 1.397 . S
C961 C966 1.363 . S
C962 H939 0.950 . S
C962 C961 1.397 . S
C962 C963 1.334 . S
C963 H940 0.950 . S
C963 C962 1.334 . S
C963 C964 1.287 . S
C964 C963 1.287 . S
C964 C965 1.524 . S
C964 H983 0.913 . S
C965 H941 0.950 . S
C965 C964 1.524 . S
C965 C966 1.415 . S
C966 H942 0.950 . S
C966 C961 1.363 . S
C966 C965 1.415 . S
C967 H943 0.951 . S
C967 C968 1.366 . S
C967 C969 1.388 . S
C968 C967 1.366 . S
C968 C972 1.385 . S
C969 H944 0.951 . S
C969 C967 1.388 . S
C969 C970 1.366 . S
C970 C969 1.366 . S
C970 C971 1.414 . S
C970 C973 1.499 . S
C971 H945 0.950 . S
C971 C970 1.414 . S
C971 C972 1.374 . S
C972 H946 0.950 . S
C972 C968 1.385 . S
C972 C971 1.374 . S
C973 C970 1.499 . S
C973 C974 1.373 . S
C973 C975 1.389 . S
C974 H947 0.950 . S
C974 C960 1.377 . S
C974 C973 1.373 . S
C975 C959 1.377 . S
C975 C973 1.389 . S
C975 C976 1.524 . S
C976 C975 1.524 . S
C976 C977 1.397 . S
C976 C981 1.363 . S
C977 H948 0.950 . S
C977 C976 1.397 . S
C977 C978 1.334 . S
C978 H949 0.950 . S
C978 C977 1.334 . S
C978 C979 1.287 . S
C979 C978 1.287 . S
C979 C980 1.524 . S
C979 H982 0.999 . S
C980 H950 0.950 . S
C980 C979 1.524 . S
C980 C981 1.415 . S
C981 H951 0.950 . S
C981 C976 1.363 . S
C981 C980 1.415 . S
H982 C979 0.999 . S
H983 C964 0.913 . S
H984 C1002 0.951 . S
H985 C1004 0.951 . S
H986 C1006 0.950 . S
H987 C1007 0.950 . S
H988 C1009 0.950 . S
H989 C1012 0.950 . S
H990 C1013 0.950 . S
H991 C1015 0.950 . S
H992 C1016 0.950 . S
H993 C1017 0.951 . S
H994 C1019 0.951 . S
H995 C1021 0.950 . S
H996 C1022 0.950 . S
H997 C1024 0.950 . S
H998 C1027 0.943 1_455 S
H999 C1028 0.950 . S
H1000 C1030 0.950 . S
H1001 C1031 0.967 . S
C1002 H984 0.951 . S
C1002 C1003 1.366 . S
C1002 C1004 1.388 . S
C1003 C1002 1.366 . S
C1003 C1007 1.385 . S
C1004 H985 0.951 . S
C1004 C1002 1.388 . S
C1004 C1005 1.366 . S
C1005 C1004 1.366 . S
C1005 C1006 1.414 . S
C1005 C1008 1.499 . S
C1006 H986 0.950 . S
C1006 C1005 1.414 . S
C1006 C1007 1.374 . S
C1007 H987 0.950 . S
C1007 C1003 1.385 . S
C1007 C1006 1.374 . S
C1008 C1005 1.499 . S
C1008 C1009 1.373 . S
C1008 C1010 1.389 . S
C1009 H988 0.950 . S
C1009 C1008 1.373 . S
C1009 C1025 1.377 . S
C1010 C1008 1.389 . S
C1010 C1011 1.524 . S
C1010 C1024 1.377 . S
C1011 C1010 1.524 . S
C1011 C1012 1.397 . S
C1011 C1016 1.363 . S
C1012 H989 0.950 . S
C1012 C1011 1.397 . S
C1012 C1013 1.334 . S
C1013 H990 0.950 . S
C1013 C1012 1.334 . S
C1013 C1014 1.287 . S
C1014 C1013 1.287 . S
C1014 C1015 1.524 . S
C1014 H1033 0.913 . S
C1015 H991 0.950 . S
C1015 C1014 1.524 . S
C1015 C1016 1.415 . S
C1016 H992 0.950 . S
C1016 C1011 1.363 . S
C1016 C1015 1.415 . S
C1017 H993 0.951 . S
C1017 C1018 1.366 . S
C1017 C1019 1.388 . S
C1018 C1017 1.366 . S
C1018 C1022 1.385 . S
C1019 H994 0.951 . S
C1019 C1017 1.388 . S
C1019 C1020 1.366 . S
C1020 C1019 1.366 . S
C1020 C1021 1.414 . S
C1020 C1023 1.499 . S
C1021 H995 0.950 . S
C1021 C1020 1.414 . S
C1021 C1022 1.374 . S
C1022 H996 0.950 . S
C1022 C1018 1.385 . S
C1022 C1021 1.374 . S
C1023 C1020 1.499 . S
C1023 C1024 1.373 . S
C1023 C1025 1.389 . S
C1024 H997 0.950 . S
C1024 C1010 1.377 . S
C1024 C1023 1.373 . S
C1025 C1009 1.377 . S
C1025 C1023 1.389 . S
C1025 C1026 1.524 . S
C1026 C1025 1.524 . S
C1026 C1027 1.389 1_455 S
C1026 C1031 1.378 . S
C1027 H998 0.943 1_655 S
C1027 C1026 1.389 1_655 S
C1027 C1028 1.348 . S
C1028 H999 0.950 . S
C1028 C1027 1.348 . S
C1028 C1029 1.287 . S
C1029 C1028 1.287 . S
C1029 C1030 1.524 . S
C1029 H1032 0.999 . S
C1030 H1000 0.950 . S
C1030 C1029 1.524 . S
C1030 C1031 1.385 1_655 S
C1031 H1001 0.967 . S
C1031 C1026 1.378 . S
C1031 C1030 1.385 1_455 S
H1032 C1029 0.999 . S
H1033 C1014 0.913 . S
H1034 C1052 0.951 . S
H1035 C1054 0.951 . S
H1036 C1056 0.950 . S
H1037 C1057 0.951 . S
H1038 C1059 0.950 . S
H1039 C1062 0.950 . S
H1040 C1063 0.950 . S
H1041 C1065 0.950 . S
H1042 C1066 0.950 . S
H1043 C1067 0.951 . S
H1044 C1069 0.951 . S
H1045 C1071 0.950 . S
H1046 C1072 0.950 . S
H1047 C1074 0.950 . S
H1048 C1077 0.950 . S
H1049 C1078 0.950 . S
H1050 C1080 0.950 . S
H1051 C1081 0.950 . S
C1052 H1034 0.951 . S
C1052 C1053 1.366 . S
C1052 C1054 1.388 . S
C1053 C1052 1.366 . S
C1053 C1057 1.385 . S
C1054 H1035 0.951 . S
C1054 C1052 1.388 . S
C1054 C1055 1.366 . S
C1055 C1054 1.366 . S
C1055 C1056 1.414 . S
C1055 C1058 1.499 . S
C1056 H1036 0.950 . S
C1056 C1055 1.414 . S
C1056 C1057 1.374 . S
C1057 H1037 0.951 . S
C1057 C1053 1.385 . S
C1057 C1056 1.374 . S
C1058 C1055 1.499 . S
C1058 C1059 1.373 . S
C1058 C1060 1.389 . S
C1059 H1038 0.950 . S
C1059 C1058 1.373 . S
C1059 C1075 1.377 . S
C1060 C1058 1.389 . S
C1060 C1061 1.524 . S
C1060 C1074 1.377 . S
C1061 C1060 1.524 . S
C1061 C1062 1.397 . S
C1061 C1066 1.363 . S
C1062 H1039 0.950 . S
C1062 C1061 1.397 . S
C1062 C1063 1.334 . S
C1063 H1040 0.950 . S
C1063 C1062 1.334 . S
C1063 C1064 1.287 . S
C1064 C1063 1.287 . S
C1064 C1065 1.524 . S
C1064 H1083 0.913 . S
C1065 H1041 0.950 . S
C1065 C1064 1.524 . S
C1065 C1066 1.415 . S
C1066 H1042 0.950 . S
C1066 C1061 1.363 . S
C1066 C1065 1.415 . S
C1067 H1043 0.951 . S
C1067 C1068 1.366 . S
C1067 C1069 1.388 . S
C1068 C1067 1.366 . S
C1068 C1072 1.385 . S
C1069 H1044 0.951 . S
C1069 C1067 1.388 . S
C1069 C1070 1.366 . S
C1070 C1069 1.366 . S
C1070 C1071 1.414 . S
C1070 C1073 1.499 . S
C1071 H1045 0.950 . S
C1071 C1070 1.414 . S
C1071 C1072 1.374 . S
C1072 H1046 0.950 . S
C1072 C1068 1.385 . S
C1072 C1071 1.374 . S
C1073 C1070 1.499 . S
C1073 C1074 1.373 . S
C1073 C1075 1.389 . S
C1074 H1047 0.950 . S
C1074 C1060 1.377 . S
C1074 C1073 1.373 . S
C1075 C1059 1.377 . S
C1075 C1073 1.389 . S
C1075 C1076 1.524 . S
C1076 C1075 1.524 . S
C1076 C1077 1.397 . S
C1076 C1081 1.363 1_545 S
C1077 H1048 0.950 . S
C1077 C1076 1.397 . S
C1077 C1078 1.334 1_545 S
C1078 H1049 0.950 . S
C1078 C1077 1.334 1_565 S
C1078 C1079 1.287 . S
C1079 C1078 1.287 . S
C1079 C1080 1.524 . S
C1079 H1082 0.999 . S
C1080 H1050 0.950 . S
C1080 C1079 1.524 . S
C1080 C1081 1.415 . S
C1081 H1051 0.950 . S
C1081 C1076 1.363 1_565 S
C1081 C1080 1.415 . S
H1082 C1079 0.999 . S
H1083 C1064 0.913 . S
H1084 C1102 0.951 1_455 S
H1085 C1104 0.963 . S
H1086 C1106 0.950 . S
H1087 C1107 0.950 . S
H1088 C1109 0.950 . S
H1089 C1112 0.950 . S
H1090 C1113 0.950 . S
H1091 C1115 0.950 . S
H1092 C1116 0.950 . S
H1093 C1117 0.951 . S
H1094 C1119 0.951 . S
H1095 C1121 0.950 . S
H1096 C1122 0.950 . S
H1097 C1124 0.950 . S
H1098 C1127 0.950 . S
H1099 C1128 0.950 . S
H1100 C1130 0.950 . S
H1101 C1131 0.950 . S
C1102 H1084 0.951 1_655 S
C1102 C1103 1.366 . S
C1102 C1104 1.388 . S
C1103 C1102 1.366 . S
C1103 C1107 1.385 . S
C1104 H1085 0.963 . S
C1104 C1102 1.388 . S
C1104 C1105 1.366 . S
C1105 C1104 1.366 . S
C1105 C1106 1.414 . S
C1105 C1108 1.499 . S
C1106 H1086 0.950 . S
C1106 C1105 1.414 . S
C1106 C1107 1.374 . S
C1107 H1087 0.950 . S
C1107 C1103 1.385 . S
C1107 C1106 1.374 . S
C1108 C1105 1.499 . S
C1108 C1109 1.373 . S
C1108 C1110 1.389 . S
C1109 H1088 0.950 . S
C1109 C1108 1.373 . S
C1109 C1125 1.377 . S
C1110 C1108 1.389 . S
C1110 C1111 1.524 . S
C1110 C1124 1.377 . S
C1111 C1110 1.524 . S
C1111 C1112 1.397 . S
C1111 C1116 1.363 1_655 S
C1112 H1089 0.950 . S
C1112 C1111 1.397 . S
C1112 C1113 1.334 . S
C1113 H1090 0.950 . S
C1113 C1112 1.334 . S
C1113 C1114 1.287 1_655 S
C1114 C1113 1.287 1_455 S
C1114 C1115 1.524 . S
C1114 H1133 0.913 . S
C1115 H1091 0.950 . S
C1115 C1114 1.524 . S
C1115 C1116 1.415 . S
C1116 H1092 0.950 . S
C1116 C1111 1.363 1_455 S
C1116 C1115 1.415 . S
C1117 H1093 0.951 . S
C1117 C1118 1.366 . S
C1117 C1119 1.388 . S
C1118 C1117 1.366 . S
C1118 C1122 1.385 . S
C1119 H1094 0.951 . S
C1119 C1117 1.388 . S
C1119 C1120 1.366 . S
C1120 C1119 1.366 . S
C1120 C1121 1.414 . S
C1120 C1123 1.499 . S
C1121 H1095 0.950 . S
C1121 C1120 1.414 . S
C1121 C1122 1.374 . S
C1122 H1096 0.950 . S
C1122 C1118 1.385 . S
C1122 C1121 1.374 . S
C1123 C1120 1.499 . S
C1123 C1124 1.373 . S
C1123 C1125 1.389 . S
C1124 H1097 0.950 . S
C1124 C1110 1.377 . S
C1124 C1123 1.373 . S
C1125 C1109 1.377 . S
C1125 C1123 1.389 . S
C1125 C1126 1.524 . S
C1126 C1125 1.524 . S
C1126 C1127 1.397 . S
C1126 C1131 1.363 . S
C1127 H1098 0.950 . S
C1127 C1126 1.397 . S
C1127 C1128 1.334 . S
C1128 H1099 0.950 . S
C1128 C1127 1.334 . S
C1128 C1129 1.287 . S
C1129 C1128 1.287 . S
C1129 C1130 1.524 . S
C1129 H1132 0.999 . S
C1130 H1100 0.950 . S
C1130 C1129 1.524 . S
C1130 C1131 1.415 . S
C1131 H1101 0.950 . S
C1131 C1126 1.363 . S
C1131 C1130 1.415 . S
H1132 C1129 0.999 . S
H1133 C1114 0.913 . S
H1134 C1152 0.951 . S
H1135 C1154 0.951 . S
H1136 C1156 0.950 . S
H1137 C1157 0.950 . S
H1138 C1159 0.950 . S
H1139 C1162 0.950 . S
H1140 C1163 0.950 . S
H1141 C1165 0.950 . S
H1142 C1166 0.950 . S
H1143 C1167 0.951 . S
H1144 C1169 0.951 . S
H1145 C1171 0.950 . S
H1146 C1172 0.950 . S
H1147 C1174 0.950 . S
H1148 C1177 0.950 . S
H1149 C1178 0.950 . S
H1150 C1180 0.950 . S
H1151 C1181 0.950 . S
C1152 H1134 0.951 . S
C1152 C1153 1.366 . S
C1152 C1154 1.388 . S
C1153 C1152 1.366 . S
C1153 C1157 1.385 . S
C1154 H1135 0.951 . S
C1154 C1152 1.388 . S
C1154 C1155 1.366 . S
C1155 C1154 1.366 . S
C1155 C1156 1.414 . S
C1155 C1158 1.499 . S
C1156 H1136 0.950 . S
C1156 C1155 1.414 . S
C1156 C1157 1.374 . S
C1157 H1137 0.950 . S
C1157 C1153 1.385 . S
C1157 C1156 1.374 . S
C1158 C1155 1.499 . S
C1158 C1159 1.373 . S
C1158 C1160 1.389 . S
C1159 H1138 0.950 . S
C1159 C1158 1.373 . S
C1159 C1175 1.377 . S
C1160 C1158 1.389 . S
C1160 C1161 1.524 . S
C1160 C1174 1.377 . S
C1161 C1160 1.524 . S
C1161 C1162 1.397 1_565 S
C1161 C1166 1.363 . S
C1162 H1139 0.950 . S
C1162 C1161 1.397 1_545 S
C1162 C1163 1.334 . S
C1163 H1140 0.950 . S
C1163 C1162 1.334 . S
C1163 C1164 1.287 . S
C1164 C1163 1.287 . S
C1164 C1165 1.524 1_545 S
C1164 H1183 0.913 . S
C1165 H1141 0.950 . S
C1165 C1164 1.524 1_565 S
C1165 C1166 1.415 . S
C1166 H1142 0.950 . S
C1166 C1161 1.363 . S
C1166 C1165 1.415 . S
C1167 H1143 0.951 . S
C1167 C1168 1.366 . S
C1167 C1169 1.388 . S
C1168 C1167 1.366 . S
C1168 C1172 1.385 . S
C1169 H1144 0.951 . S
C1169 C1167 1.388 . S
C1169 C1170 1.366 . S
C1170 C1169 1.366 . S
C1170 C1171 1.414 . S
C1170 C1173 1.499 . S
C1171 H1145 0.950 . S
C1171 C1170 1.414 . S
C1171 C1172 1.374 . S
C1172 H1146 0.950 . S
C1172 C1168 1.385 . S
C1172 C1171 1.374 . S
C1173 C1170 1.499 . S
C1173 C1174 1.373 . S
C1173 C1175 1.389 . S
C1174 H1147 0.950 . S
C1174 C1160 1.377 . S
C1174 C1173 1.373 . S
C1175 C1159 1.377 . S
C1175 C1173 1.389 . S
C1175 C1176 1.524 . S
C1176 C1175 1.524 . S
C1176 C1177 1.397 . S
C1176 C1181 1.363 . S
C1177 H1148 0.950 . S
C1177 C1176 1.397 . S
C1177 C1178 1.334 . S
C1178 H1149 0.950 . S
C1178 C1177 1.334 . S
C1178 C1179 1.287 . S
C1179 C1178 1.287 . S
C1179 C1180 1.524 . S
C1179 H1182 0.999 . S
C1180 H1150 0.950 . S
C1180 C1179 1.524 . S
C1180 C1181 1.415 . S
C1181 H1151 0.950 . S
C1181 C1176 1.363 . S
C1181 C1180 1.415 . S
H1182 C1179 0.999 . S
H1183 C1164 0.913 . S
H1184 C1202 0.951 . S
H1185 C1204 0.951 . S
H1186 C1206 0.950 . S
H1187 C1207 0.950 . S
H1188 C1209 0.950 . S
H1189 C1212 0.950 . S
H1190 C1213 0.950 . S
H1191 C1215 0.950 . S
H1192 C1216 0.950 1_565 S
H1193 C1217 0.951 . S
H1194 C1219 0.951 . S
H1195 C1221 0.950 . S
H1196 C1222 0.950 . S
H1197 C1224 0.950 . S
H1198 C1227 0.950 . S
H1199 C1228 0.950 . S
H1200 C1230 0.950 . S
H1201 C1231 0.950 . S
C1202 H1184 0.951 . S
C1202 C1203 1.366 . S
C1202 C1204 1.388 . S
C1203 C1202 1.366 . S
C1203 C1207 1.385 . S
C1204 H1185 0.951 . S
C1204 C1202 1.388 . S
C1204 C1205 1.366 . S
C1205 C1204 1.366 . S
C1205 C1206 1.414 . S
C1205 C1208 1.499 . S
C1206 H1186 0.950 . S
C1206 C1205 1.414 . S
C1206 C1207 1.374 . S
C1207 H1187 0.950 . S
C1207 C1203 1.385 . S
C1207 C1206 1.374 . S
C1208 C1205 1.499 . S
C1208 C1209 1.373 . S
C1208 C1210 1.389 . S
C1209 H1188 0.950 . S
C1209 C1208 1.373 . S
C1209 C1225 1.377 . S
C1210 C1208 1.389 . S
C1210 C1211 1.524 . S
C1210 C1224 1.377 . S
C1211 C1210 1.524 . S
C1211 C1212 1.397 1_565 S
C1211 C1216 1.363 1_565 S
C1212 H1189 0.950 . S
C1212 C1211 1.397 1_545 S
C1212 C1213 1.334 . S
C1213 H1190 0.950 . S
C1213 C1212 1.334 . S
C1213 C1214 1.287 . S
C1214 C1213 1.287 . S
C1214 C1215 1.524 . S
C1214 H1233 0.913 . S
C1215 H1191 0.950 . S
C1215 C1214 1.524 . S
C1215 C1216 1.415 . S
C1216 H1192 0.950 1_545 S
C1216 C1211 1.363 1_545 S
C1216 C1215 1.415 . S
C1217 H1193 0.951 . S
C1217 C1218 1.366 . S
C1217 C1219 1.388 . S
C1218 C1217 1.366 . S
C1218 C1222 1.385 . S
C1219 H1194 0.951 . S
C1219 C1217 1.388 . S
C1219 C1220 1.366 . S
C1220 C1219 1.366 . S
C1220 C1221 1.414 . S
C1220 C1223 1.499 . S
C1221 H1195 0.950 . S
C1221 C1220 1.414 . S
C1221 C1222 1.374 . S
C1222 H1196 0.950 . S
C1222 C1218 1.385 . S
C1222 C1221 1.374 . S
C1223 C1220 1.499 . S
C1223 C1224 1.373 . S
C1223 C1225 1.389 . S
C1224 H1197 0.950 . S
C1224 C1210 1.377 . S
C1224 C1223 1.373 . S
C1225 C1209 1.377 . S
C1225 C1223 1.389 . S
C1225 C1226 1.524 . S
C1226 C1225 1.524 . S
C1226 C1227 1.397 . S
C1226 C1231 1.363 . S
C1227 H1198 0.950 . S
C1227 C1226 1.397 . S
C1227 C1228 1.334 . S
C1228 H1199 0.950 . S
C1228 C1227 1.334 . S
C1228 C1229 1.287 . S
C1229 C1228 1.287 . S
C1229 C1230 1.524 . S
C1229 H1232 0.999 . S
C1230 H1200 0.950 . S
C1230 C1229 1.524 . S
C1230 C1231 1.415 . S
C1231 H1201 0.950 . S
C1231 C1226 1.363 . S
C1231 C1230 1.415 . S
H1232 C1229 0.999 . S
H1233 C1214 0.913 . S
H1234 C1252 0.951 . S
H1235 C1254 0.951 . S
H1236 C1256 0.973 . S
H1237 C1257 0.950 1_655 S
H1238 C1259 0.950 . S
H1239 C1262 0.950 . S
H1240 C1263 0.950 . S
H1241 C1265 0.950 . S
H1242 C1266 0.950 . S
H1243 C1267 0.951 . S
H1244 C1269 0.951 . S
H1245 C1271 0.950 . S
H1246 C1272 0.950 . S
H1247 C1274 0.950 . S
H1248 C1277 0.950 . S
H1249 C1278 0.950 . S
H1250 C1280 0.950 . S
H1251 C1281 0.950 1_655 S
C1252 H1234 0.951 . S
C1252 C1253 1.366 . S
C1252 C1254 1.388 . S
C1253 C1252 1.366 . S
C1253 C1257 1.385 . S
C1254 H1235 0.951 . S
C1254 C1252 1.388 . S
C1254 C1255 1.366 . S
C1255 C1254 1.366 . S
C1255 C1256 1.414 . S
C1255 C1258 1.499 . S
C1256 H1236 0.973 . S
C1256 C1255 1.414 . S
C1256 C1257 1.374 . S
C1257 H1237 0.950 1_455 S
C1257 C1253 1.385 . S
C1257 C1256 1.374 . S
C1258 C1255 1.499 . S
C1258 C1259 1.373 . S
C1258 C1260 1.389 . S
C1259 H1238 0.950 . S
C1259 C1258 1.373 . S
C1259 C1275 1.377 . S
C1260 C1258 1.389 . S
C1260 C1261 1.524 . S
C1260 C1274 1.377 . S
C1261 C1260 1.524 . S
C1261 C1262 1.397 . S
C1261 C1266 1.363 . S
C1262 H1239 0.950 . S
C1262 C1261 1.397 . S
C1262 C1263 1.334 . S
C1263 H1240 0.950 . S
C1263 C1262 1.334 . S
C1263 C1264 1.287 . S
C1264 C1263 1.287 . S
C1264 C1265 1.524 . S
C1264 H1283 0.913 . S
C1265 H1241 0.950 . S
C1265 C1264 1.524 . S
C1265 C1266 1.415 . S
C1266 H1242 0.950 . S
C1266 C1261 1.363 . S
C1266 C1265 1.415 . S
C1267 H1243 0.951 . S
C1267 C1268 1.366 . S
C1267 C1269 1.388 . S
C1268 C1267 1.366 . S
C1268 C1272 1.385 . S
C1269 H1244 0.951 . S
C1269 C1267 1.388 . S
C1269 C1270 1.366 . S
C1270 C1269 1.366 . S
C1270 C1271 1.414 . S
C1270 C1273 1.499 . S
C1271 H1245 0.950 . S
C1271 C1270 1.414 . S
C1271 C1272 1.374 . S
C1272 H1246 0.950 . S
C1272 C1268 1.385 . S
C1272 C1271 1.374 . S
C1273 C1270 1.499 . S
C1273 C1274 1.373 . S
C1273 C1275 1.389 . S
C1274 H1247 0.950 . S
C1274 C1260 1.377 . S
C1274 C1273 1.373 . S
C1275 C1259 1.377 . S
C1275 C1273 1.389 . S
C1275 C1276 1.524 . S
C1276 C1275 1.524 . S
C1276 C1277 1.397 . S
C1276 C1281 1.363 . S
C1277 H1248 0.950 . S
C1277 C1276 1.397 . S
C1277 C1278 1.334 . S
C1278 H1249 0.950 . S
C1278 C1277 1.334 . S
C1278 C1279 1.287 . S
C1279 C1278 1.287 . S
C1279 C1280 1.524 1_455 S
C1279 H1282 0.999 . S
C1280 H1250 0.950 . S
C1280 C1279 1.524 1_655 S
C1280 C1281 1.415 1_655 S
C1281 H1251 0.950 1_455 S
C1281 C1276 1.363 . S
C1281 C1280 1.415 1_455 S
H1282 C1279 0.999 . S
H1283 C1264 0.913 . S
H1284 C1302 0.951 . S
H1285 C1304 0.951 . S
H1286 C1306 0.950 . S
H1287 C1307 0.950 . S
H1288 C1309 0.950 . S
H1289 C1312 0.950 . S
H1290 C1313 0.950 . S
H1291 C1315 0.950 . S
H1292 C1316 0.950 . S
H1293 C1317 0.951 . S
H1294 C1319 0.951 . S
H1295 C1321 0.950 . S
H1296 C1322 0.950 . S
H1297 C1324 0.950 . S
H1298 C1327 0.950 . S
H1299 C1328 0.950 . S
H1300 C1330 0.950 . S
H1301 C1331 0.950 . S
C1302 H1284 0.951 . S
C1302 C1303 1.366 . S
C1302 C1304 1.388 . S
C1303 C1302 1.366 . S
C1303 C1307 1.385 . S
C1304 H1285 0.951 . S
C1304 C1302 1.388 . S
C1304 C1305 1.366 . S
C1305 C1304 1.366 . S
C1305 C1306 1.414 . S
C1305 C1308 1.499 . S
C1306 H1286 0.950 . S
C1306 C1305 1.414 . S
C1306 C1307 1.374 . S
C1307 H1287 0.950 . S
C1307 C1303 1.385 . S
C1307 C1306 1.374 . S
C1308 C1305 1.499 . S
C1308 C1309 1.373 . S
C1308 C1310 1.389 . S
C1309 H1288 0.950 . S
C1309 C1308 1.373 . S
C1309 C1325 1.377 . S
C1310 C1308 1.389 . S
C1310 C1311 1.524 . S
C1310 C1324 1.377 . S
C1311 C1310 1.524 . S
C1311 C1312 1.397 . S
C1311 C1316 1.363 . S
C1312 H1289 0.950 . S
C1312 C1311 1.397 . S
C1312 C1313 1.334 . S
C1313 H1290 0.950 . S
C1313 C1312 1.334 . S
C1313 C1314 1.287 . S
C1314 C1313 1.287 . S
C1314 C1315 1.524 . S
C1314 H1333 0.913 . S
C1315 H1291 0.950 . S
C1315 C1314 1.524 . S
C1315 C1316 1.415 . S
C1316 H1292 0.950 . S
C1316 C1311 1.363 . S
C1316 C1315 1.415 . S
C1317 H1293 0.951 . S
C1317 C1318 1.366 . S
C1317 C1319 1.388 . S
C1318 C1317 1.366 . S
C1318 C1322 1.385 . S
C1319 H1294 0.951 . S
C1319 C1317 1.388 . S
C1319 C1320 1.366 . S
C1320 C1319 1.366 . S
C1320 C1321 1.414 . S
C1320 C1323 1.499 . S
C1321 H1295 0.950 . S
C1321 C1320 1.414 . S
C1321 C1322 1.374 . S
C1322 H1296 0.950 . S
C1322 C1318 1.385 . S
C1322 C1321 1.374 . S
C1323 C1320 1.499 . S
C1323 C1324 1.373 . S
C1323 C1325 1.389 . S
C1324 H1297 0.950 . S
C1324 C1310 1.377 . S
C1324 C1323 1.373 . S
C1325 C1309 1.377 . S
C1325 C1323 1.389 . S
C1325 C1326 1.524 . S
C1326 C1325 1.524 . S
C1326 C1327 1.397 . S
C1326 C1331 1.363 1_545 S
C1327 H1298 0.950 . S
C1327 C1326 1.397 . S
C1327 C1328 1.334 1_545 S
C1328 H1299 0.950 . S
C1328 C1327 1.334 1_565 S
C1328 C1329 1.287 . S
C1329 C1328 1.287 . S
C1329 C1330 1.524 . S
C1329 H1332 0.999 . S
C1330 H1300 0.950 . S
C1330 C1329 1.524 . S
C1330 C1331 1.415 . S
C1331 H1301 0.950 . S
C1331 C1326 1.363 1_565 S
C1331 C1330 1.415 . S
H1332 C1329 0.999 . S
H1333 C1314 0.913 . S
H1334 C1352 0.951 . S
H1335 C1354 0.951 . S
H1336 C1356 0.950 . S
H1337 C1357 0.950 . S
H1338 C1359 0.950 . S
H1339 C1362 0.950 . S
H1340 C1363 0.950 . S
H1341 C1365 0.950 . S
H1342 C1366 0.950 . S
H1343 C1367 0.951 . S
H1344 C1369 0.951 . S
H1345 C1371 0.950 . S
H1346 C1372 0.950 . S
H1347 C1374 0.950 . S
H1348 C1377 0.950 . S
H1349 C1378 0.950 1_455 S
H1350 C1380 0.950 . S
H1351 C1381 0.950 . S
C1352 H1334 0.951 . S
C1352 C1353 1.366 . S
C1352 C1354 1.388 . S
C1353 C1352 1.366 . S
C1353 C1357 1.385 . S
C1354 H1335 0.951 . S
C1354 C1352 1.388 . S
C1354 C1355 1.366 . S
C1355 C1354 1.366 . S
C1355 C1356 1.414 . S
C1355 C1358 1.499 . S
C1356 H1336 0.950 . S
C1356 C1355 1.414 . S
C1356 C1357 1.374 . S
C1357 H1337 0.950 . S
C1357 C1353 1.385 . S
C1357 C1356 1.374 . S
C1358 C1355 1.499 . S
C1358 C1359 1.373 . S
C1358 C1360 1.389 . S
C1359 H1338 0.950 . S
C1359 C1358 1.373 . S
C1359 C1375 1.377 . S
C1360 C1358 1.389 . S
C1360 C1361 1.524 . S
C1360 C1374 1.377 . S
C1361 C1360 1.524 . S
C1361 C1362 1.397 . S
C1361 C1366 1.363 . S
C1362 H1339 0.950 . S
C1362 C1361 1.397 . S
C1362 C1363 1.334 . S
C1363 H1340 0.950 . S
C1363 C1362 1.334 . S
C1363 C1364 1.287 . S
C1364 C1363 1.287 . S
C1364 C1365 1.524 . S
C1364 H1383 0.913 . S
C1365 H1341 0.950 . S
C1365 C1364 1.524 . S
C1365 C1366 1.415 . S
C1366 H1342 0.950 . S
C1366 C1361 1.363 . S
C1366 C1365 1.415 . S
C1367 H1343 0.951 . S
C1367 C1368 1.366 . S
C1367 C1369 1.388 . S
C1368 C1367 1.366 . S
C1368 C1372 1.385 . S
C1369 H1344 0.951 . S
C1369 C1367 1.388 . S
C1369 C1370 1.366 . S
C1370 C1369 1.366 . S
C1370 C1371 1.414 . S
C1370 C1373 1.499 . S
C1371 H1345 0.950 . S
C1371 C1370 1.414 . S
C1371 C1372 1.374 . S
C1372 H1346 0.950 . S
C1372 C1368 1.385 . S
C1372 C1371 1.374 . S
C1373 C1370 1.499 . S
C1373 C1374 1.373 . S
C1373 C1375 1.389 . S
C1374 H1347 0.950 . S
C1374 C1360 1.377 . S
C1374 C1373 1.373 . S
C1375 C1359 1.377 . S
C1375 C1373 1.389 . S
C1375 C1376 1.524 . S
C1376 C1375 1.524 . S
C1376 C1377 1.397 . S
C1376 C1381 1.363 . S
C1377 H1348 0.950 . S
C1377 C1376 1.397 . S
C1377 C1378 1.334 . S
C1378 H1349 0.950 1_655 S
C1378 C1377 1.334 . S
C1378 C1379 1.287 . S
C1379 C1378 1.287 . S
C1379 C1380 1.524 . S
C1379 H1382 0.999 . S
C1380 H1350 0.950 . S
C1380 C1379 1.524 . S
C1380 C1381 1.415 . S
C1381 H1351 0.950 . S
C1381 C1376 1.363 . S
C1381 C1380 1.415 . S
H1382 C1379 0.999 . S
H1383 C1364 0.913 . S
H1384 C1402 0.951 . S
H1385 C1404 0.951 . S
H1386 C1406 0.950 . S
H1387 C1407 0.950 . S
H1388 C1409 0.950 . S
H1389 C1412 0.950 . S
H1390 C1413 0.950 . S
H1391 C1415 0.950 . S
H1392 C1416 0.950 . S
H1393 C1417 0.951 . S
H1394 C1419 0.951 . S
H1395 C1421 0.950 . S
H1396 C1422 0.950 . S
H1397 C1424 0.950 . S
H1398 C1427 0.950 . S
H1399 C1428 0.950 . S
H1400 C1430 0.950 . S
H1401 C1431 0.950 . S
C1402 H1384 0.951 . S
C1402 C1403 1.366 . S
C1402 C1404 1.388 . S
C1403 C1402 1.366 . S
C1403 C1407 1.385 . S
C1404 H1385 0.951 . S
C1404 C1402 1.388 . S
C1404 C1405 1.366 . S
C1405 C1404 1.366 . S
C1405 C1406 1.414 . S
C1405 C1408 1.499 . S
C1406 H1386 0.950 . S
C1406 C1405 1.414 . S
C1406 C1407 1.374 . S
C1407 H1387 0.950 . S
C1407 C1403 1.385 . S
C1407 C1406 1.374 . S
C1408 C1405 1.499 . S
C1408 C1409 1.373 . S
C1408 C1410 1.389 . S
C1409 H1388 0.950 . S
C1409 C1408 1.373 . S
C1409 C1425 1.377 . S
C1410 C1408 1.389 . S
C1410 C1411 1.524 . S
C1410 C1424 1.377 . S
C1411 C1410 1.524 . S
C1411 C1412 1.397 . S
C1411 C1416 1.363 . S
C1412 H1389 0.950 . S
C1412 C1411 1.397 . S
C1412 C1413 1.334 . S
C1413 H1390 0.950 . S
C1413 C1412 1.334 . S
C1413 C1414 1.287 . S
C1414 C1413 1.287 . S
C1414 C1415 1.524 . S
C1414 H1433 0.913 . S
C1415 H1391 0.950 . S
C1415 C1414 1.524 . S
C1415 C1416 1.415 . S
C1416 H1392 0.950 . S
C1416 C1411 1.363 . S
C1416 C1415 1.415 . S
C1417 H1393 0.951 . S
C1417 C1418 1.366 . S
C1417 C1419 1.388 . S
C1418 C1417 1.366 . S
C1418 C1422 1.385 . S
C1419 H1394 0.951 . S
C1419 C1417 1.388 . S
C1419 C1420 1.366 . S
C1420 C1419 1.366 . S
C1420 C1421 1.414 . S
C1420 C1423 1.499 . S
C1421 H1395 0.950 . S
C1421 C1420 1.414 . S
C1421 C1422 1.374 . S
C1422 H1396 0.950 . S
C1422 C1418 1.385 . S
C1422 C1421 1.374 . S
C1423 C1420 1.499 . S
C1423 C1424 1.373 . S
C1423 C1425 1.389 . S
C1424 H1397 0.950 . S
C1424 C1410 1.377 . S
C1424 C1423 1.373 . S
C1425 C1409 1.377 . S
C1425 C1423 1.389 . S
C1425 C1426 1.524 . S
C1426 C1425 1.524 . S
C1426 C1427 1.397 . S
C1426 C1431 1.363 . S
C1427 H1398 0.950 . S
C1427 C1426 1.397 . S
C1427 C1428 1.334 . S
C1428 H1399 0.950 . S
C1428 C1427 1.334 . S
C1428 C1429 1.287 . S
C1429 C1428 1.287 . S
C1429 C1430 1.524 . S
C1429 H1432 0.999 . S
C1430 H1400 0.950 . S
C1430 C1429 1.524 . S
C1430 C1431 1.415 . S
C1431 H1401 0.950 . S
C1431 C1426 1.363 . S
C1431 C1430 1.415 . S
H1432 C1429 0.999 . S
H1433 C1414 0.913 . S
H1434 C1452 0.951 . S
H1435 C1454 0.951 . S
H1436 C1456 0.950 . S
H1437 C1457 0.950 . S
H1438 C1459 0.950 . S
H1439 C1462 0.950 . S
H1440 C1463 0.950 . S
H1441 C1465 0.950 . S
H1442 C1466 0.950 . S
H1443 C1467 0.951 . S
H1444 C1469 0.951 . S
H1445 C1471 0.950 . S
H1446 C1472 0.950 . S
H1447 C1474 0.950 . S
H1448 C1477 0.950 . S
H1449 C1478 0.950 . S
H1450 C1480 0.950 . S
H1451 C1481 0.950 . S
C1452 H1434 0.951 . S
C1452 C1453 1.366 . S
C1452 C1454 1.388 . S
C1453 C1452 1.366 . S
C1453 C1457 1.385 . S
C1454 H1435 0.951 . S
C1454 C1452 1.388 . S
C1454 C1455 1.366 . S
C1455 C1454 1.366 . S
C1455 C1456 1.414 . S
C1455 C1458 1.499 . S
C1456 H1436 0.950 . S
C1456 C1455 1.414 . S
C1456 C1457 1.374 . S
C1457 H1437 0.950 . S
C1457 C1453 1.385 . S
C1457 C1456 1.374 . S
C1458 C1455 1.499 . S
C1458 C1459 1.373 . S
C1458 C1460 1.389 . S
C1459 H1438 0.950 . S
C1459 C1458 1.373 . S
C1459 C1475 1.377 . S
C1460 C1458 1.389 . S
C1460 C1461 1.524 . S
C1460 C1474 1.377 . S
C1461 C1460 1.524 . S
C1461 C1462 1.397 . S
C1461 C1466 1.363 . S
C1462 H1439 0.950 . S
C1462 C1461 1.397 . S
C1462 C1463 1.334 . S
C1463 H1440 0.950 . S
C1463 C1462 1.334 . S
C1463 C1464 1.287 . S
C1464 C1463 1.287 . S
C1464 C1465 1.524 . S
C1464 H1483 0.913 . S
C1465 H1441 0.950 . S
C1465 C1464 1.524 . S
C1465 C1466 1.415 . S
C1466 H1442 0.950 . S
C1466 C1461 1.363 . S
C1466 C1465 1.415 . S
C1467 H1443 0.951 . S
C1467 C1468 1.366 . S
C1467 C1469 1.388 . S
C1468 C1467 1.366 . S
C1468 C1472 1.385 . S
C1469 H1444 0.951 . S
C1469 C1467 1.388 . S
C1469 C1470 1.366 . S
C1470 C1469 1.366 . S
C1470 C1471 1.414 . S
C1470 C1473 1.499 . S
C1471 H1445 0.950 . S
C1471 C1470 1.414 . S
C1471 C1472 1.374 . S
C1472 H1446 0.950 . S
C1472 C1468 1.385 . S
C1472 C1471 1.374 . S
C1473 C1470 1.499 . S
C1473 C1474 1.373 . S
C1473 C1475 1.389 . S
C1474 H1447 0.950 . S
C1474 C1460 1.377 . S
C1474 C1473 1.373 . S
C1475 C1459 1.377 . S
C1475 C1473 1.389 . S
C1475 C1476 1.524 . S
C1476 C1475 1.524 . S
C1476 C1477 1.397 . S
C1476 C1481 1.363 . S
C1477 H1448 0.950 . S
C1477 C1476 1.397 . S
C1477 C1478 1.334 . S
C1478 H1449 0.950 . S
C1478 C1477 1.334 . S
C1478 C1479 1.287 . S
C1479 C1478 1.287 . S
C1479 C1480 1.524 . S
C1479 H1482 0.999 . S
C1480 H1450 0.950 . S
C1480 C1479 1.524 . S
C1480 C1481 1.415 . S
C1481 H1451 0.950 . S
C1481 C1476 1.363 . S
C1481 C1480 1.415 . S
H1482 C1479 0.999 . S
H1483 C1464 0.913 . S
H1484 C1502 0.951 . S
H1485 C1504 0.951 . S
H1486 C1506 0.950 . S
H1487 C1507 0.950 . S
H1488 C1509 0.950 . S
H1489 C1512 0.950 . S
H1490 C1513 0.950 . S
H1491 C1515 0.950 . S
H1492 C1516 0.950 . S
H1493 C1517 0.951 . S
H1494 C1519 0.951 . S
H1495 C1521 0.950 . S
H1496 C1522 0.950 . S
H1497 C1524 0.950 . S
H1498 C1527 0.950 . S
H1499 C1528 0.950 . S
H1500 C1530 0.950 . S
H1501 C1531 0.950 . S
C1502 H1484 0.951 . S
C1502 C1503 1.366 . S
C1502 C1504 1.388 . S
C1503 C1502 1.366 . S
C1503 C1507 1.385 . S
C1504 H1485 0.951 . S
C1504 C1502 1.388 . S
C1504 C1505 1.366 . S
C1505 C1504 1.366 . S
C1505 C1506 1.414 . S
C1505 C1508 1.499 . S
C1506 H1486 0.950 . S
C1506 C1505 1.414 . S
C1506 C1507 1.374 . S
C1507 H1487 0.950 . S
C1507 C1503 1.385 . S
C1507 C1506 1.374 . S
C1508 C1505 1.499 . S
C1508 C1509 1.373 . S
C1508 C1510 1.389 . S
C1509 H1488 0.950 . S
C1509 C1508 1.373 . S
C1509 C1525 1.377 . S
C1510 C1508 1.389 . S
C1510 C1511 1.524 . S
C1510 C1524 1.377 . S
C1511 C1510 1.524 . S
C1511 C1512 1.397 . S
C1511 C1516 1.363 . S
C1512 H1489 0.950 . S
C1512 C1511 1.397 . S
C1512 C1513 1.334 . S
C1513 H1490 0.950 . S
C1513 C1512 1.334 . S
C1513 C1514 1.287 . S
C1514 C1513 1.287 . S
C1514 C1515 1.524 . S
C1514 H1533 0.913 . S
C1515 H1491 0.950 . S
C1515 C1514 1.524 . S
C1515 C1516 1.415 . S
C1516 H1492 0.950 . S
C1516 C1511 1.363 . S
C1516 C1515 1.415 . S
C1517 H1493 0.951 . S
C1517 C1518 1.366 . S
C1517 C1519 1.388 . S
C1518 C1517 1.366 . S
C1518 C1522 1.385 . S
C1519 H1494 0.951 . S
C1519 C1517 1.388 . S
C1519 C1520 1.366 . S
C1520 C1519 1.366 . S
C1520 C1521 1.414 . S
C1520 C1523 1.499 . S
C1521 H1495 0.950 . S
C1521 C1520 1.414 . S
C1521 C1522 1.374 . S
C1522 H1496 0.950 . S
C1522 C1518 1.385 . S
C1522 C1521 1.374 . S
C1523 C1520 1.499 . S
C1523 C1524 1.373 . S
C1523 C1525 1.389 . S
C1524 H1497 0.950 . S
C1524 C1510 1.377 . S
C1524 C1523 1.373 . S
C1525 C1509 1.377 . S
C1525 C1523 1.389 . S
C1525 C1526 1.524 . S
C1526 C1525 1.524 . S
C1526 C1527 1.397 . S
C1526 C1531 1.363 . S
C1527 H1498 0.950 . S
C1527 C1526 1.397 . S
C1527 C1528 1.334 . S
C1528 H1499 0.950 . S
C1528 C1527 1.334 . S
C1528 C1529 1.287 . S
C1529 C1528 1.287 . S
C1529 C1530 1.524 . S
C1529 H1532 0.999 . S
C1530 H1500 0.950 . S
C1530 C1529 1.524 . S
C1530 C1531 1.415 . S
C1531 H1501 0.950 . S
C1531 C1526 1.363 . S
C1531 C1530 1.415 . S
H1532 C1529 0.999 . S
H1533 C1514 0.913 . S
H1534 C1552 0.951 . S
H1535 C1554 0.951 . S
H1536 C1556 0.950 . S
H1537 C1557 0.950 . S
H1538 C1559 0.950 . S
H1539 C1562 0.950 . S
H1540 C1563 0.950 . S
H1541 C1565 0.950 . S
H1542 C1566 0.950 . S
H1543 C1567 0.951 . S
H1544 C1569 0.951 . S
H1545 C1571 0.950 . S
H1546 C1572 0.950 . S
H1547 C1574 0.950 . S
H1548 C1577 0.950 . S
H1549 C1578 0.950 . S
H1550 C1580 0.950 . S
H1551 C1581 0.950 . S
C1552 H1534 0.951 . S
C1552 C1553 1.366 . S
C1552 C1554 1.388 . S
C1553 C1552 1.366 . S
C1553 C1557 1.385 . S
C1554 H1535 0.951 . S
C1554 C1552 1.388 . S
C1554 C1555 1.366 . S
C1555 C1554 1.366 . S
C1555 C1556 1.414 . S
C1555 C1558 1.499 . S
C1556 H1536 0.950 . S
C1556 C1555 1.414 . S
C1556 C1557 1.374 . S
C1557 H1537 0.950 . S
C1557 C1553 1.385 . S
C1557 C1556 1.374 . S
C1558 C1555 1.499 . S
C1558 C1559 1.373 . S
C1558 C1560 1.389 . S
C1559 H1538 0.950 . S
C1559 C1558 1.373 . S
C1559 C1575 1.377 . S
C1560 C1558 1.389 . S
C1560 C1561 1.524 . S
C1560 C1574 1.377 . S
C1561 C1560 1.524 . S
C1561 C1562 1.397 . S
C1561 C1566 1.363 . S
C1562 H1539 0.950 . S
C1562 C1561 1.397 . S
C1562 C1563 1.334 . S
C1563 H1540 0.950 . S
C1563 C1562 1.334 . S
C1563 C1564 1.287 . S
C1564 C1563 1.287 . S
C1564 C1565 1.524 . S
C1564 H1583 0.913 . S
C1565 H1541 0.950 . S
C1565 C1564 1.524 . S
C1565 C1566 1.415 . S
C1566 H1542 0.950 . S
C1566 C1561 1.363 . S
C1566 C1565 1.415 . S
C1567 H1543 0.951 . S
C1567 C1568 1.366 . S
C1567 C1569 1.388 . S
C1568 C1567 1.366 . S
C1568 C1572 1.385 . S
C1569 H1544 0.951 . S
C1569 C1567 1.388 . S
C1569 C1570 1.366 . S
C1570 C1569 1.366 . S
C1570 C1571 1.414 . S
C1570 C1573 1.499 . S
C1571 H1545 0.950 . S
C1571 C1570 1.414 . S
C1571 C1572 1.374 . S
C1572 H1546 0.950 . S
C1572 C1568 1.385 . S
C1572 C1571 1.374 . S
C1573 C1570 1.499 . S
C1573 C1574 1.373 . S
C1573 C1575 1.389 . S
C1574 H1547 0.950 . S
C1574 C1560 1.377 . S
C1574 C1573 1.373 . S
C1575 C1559 1.377 . S
C1575 C1573 1.389 . S
C1575 C1576 1.524 . S
C1576 C1575 1.524 . S
C1576 C1577 1.397 . S
C1576 C1581 1.363 . S
C1577 H1548 0.950 . S
C1577 C1576 1.397 . S
C1577 C1578 1.334 . S
C1578 H1549 0.950 . S
C1578 C1577 1.334 . S
C1578 C1579 1.287 . S
C1579 C1578 1.287 . S
C1579 C1580 1.524 . S
C1579 H1582 0.999 . S
C1580 H1550 0.950 . S
C1580 C1579 1.524 . S
C1580 C1581 1.415 . S
C1581 H1551 0.950 . S
C1581 C1576 1.363 . S
C1581 C1580 1.415 . S
H1582 C1579 0.999 . S
H1583 C1564 0.913 . S
H1584 C1602 0.951 . S
H1585 C1604 0.951 . S
H1586 C1606 0.950 . S
H1587 C1607 0.950 . S
H1588 C1609 0.950 . S
H1589 C1612 0.950 . S
H1590 C1613 0.950 . S
H1591 C1615 0.950 . S
H1592 C1616 0.950 . S
H1593 C1617 0.951 . S
H1594 C1619 0.951 . S
H1595 C1621 0.950 . S
H1596 C1622 0.950 . S
H1597 C1624 0.950 . S
H1598 C1627 0.950 . S
H1599 C1628 0.950 . S
H1600 C1630 0.950 . S
H1601 C1631 0.950 . S
C1602 H1584 0.951 . S
C1602 C1603 1.366 . S
C1602 C1604 1.388 . S
C1603 C1602 1.366 . S
C1603 C1607 1.385 . S
C1604 H1585 0.951 . S
C1604 C1602 1.388 . S
C1604 C1605 1.366 . S
C1605 C1604 1.366 . S
C1605 C1606 1.414 . S
C1605 C1608 1.499 . S
C1606 H1586 0.950 . S
C1606 C1605 1.414 . S
C1606 C1607 1.374 . S
C1607 H1587 0.950 . S
C1607 C1603 1.385 . S
C1607 C1606 1.374 . S
C1608 C1605 1.499 . S
C1608 C1609 1.373 . S
C1608 C1610 1.389 . S
C1609 H1588 0.950 . S
C1609 C1608 1.373 . S
C1609 C1625 1.377 . S
C1610 C1608 1.389 . S
C1610 C1611 1.524 . S
C1610 C1624 1.377 . S
C1611 C1610 1.524 . S
C1611 C1612 1.397 . S
C1611 C1616 1.363 . S
C1612 H1589 0.950 . S
C1612 C1611 1.397 . S
C1612 C1613 1.334 . S
C1613 H1590 0.950 . S
C1613 C1612 1.334 . S
C1613 C1614 1.287 . S
C1614 C1613 1.287 . S
C1614 C1615 1.524 . S
C1614 H1633 0.913 . S
C1615 H1591 0.950 . S
C1615 C1614 1.524 . S
C1615 C1616 1.415 . S
C1616 H1592 0.950 . S
C1616 C1611 1.363 . S
C1616 C1615 1.415 . S
C1617 H1593 0.951 . S
C1617 C1618 1.366 . S
C1617 C1619 1.388 . S
C1618 C1617 1.366 . S
C1618 C1622 1.385 . S
C1619 H1594 0.951 . S
C1619 C1617 1.388 . S
C1619 C1620 1.366 . S
C1620 C1619 1.366 . S
C1620 C1621 1.414 . S
C1620 C1623 1.499 . S
C1621 H1595 0.950 . S
C1621 C1620 1.414 . S
C1621 C1622 1.374 . S
C1622 H1596 0.950 . S
C1622 C1618 1.385 . S
C1622 C1621 1.374 . S
C1623 C1620 1.499 . S
C1623 C1624 1.373 . S
C1623 C1625 1.389 . S
C1624 H1597 0.950 . S
C1624 C1610 1.377 . S
C1624 C1623 1.373 . S
C1625 C1609 1.377 . S
C1625 C1623 1.389 . S
C1625 C1626 1.524 . S
C1626 C1625 1.524 . S
C1626 C1627 1.397 . S
C1626 C1631 1.363 . S
C1627 H1598 0.950 . S
C1627 C1626 1.397 . S
C1627 C1628 1.334 . S
C1628 H1599 0.950 . S
C1628 C1627 1.334 . S
C1628 C1629 1.287 . S
C1629 C1628 1.287 . S
C1629 C1630 1.524 . S
C1629 H1632 0.999 . S
C1630 H1600 0.950 . S
C1630 C1629 1.524 . S
C1630 C1631 1.415 . S
C1631 H1601 0.950 . S
C1631 C1626 1.363 . S
C1631 C1630 1.415 . S
H1632 C1629 0.999 . S
H1633 C1614 0.913 . S
H1634 C1652 0.951 . S
H1635 C1654 0.951 . S
H1636 C1656 0.950 . S
H1637 C1657 0.950 . S
H1638 C1659 0.950 . S
H1639 C1662 0.950 . S
H1640 C1663 0.950 . S
H1641 C1665 0.950 . S
H1642 C1666 0.950 . S
H1643 C1667 0.951 . S
H1644 C1669 0.951 . S
H1645 C1671 0.950 . S
H1646 C1672 0.950 . S
H1647 C1674 0.950 . S
H1648 C1677 0.950 . S
H1649 C1678 0.950 . S
H1650 C1680 0.950 . S
H1651 C1681 0.950 . S
C1652 H1634 0.951 . S
C1652 C1653 1.366 . S
C1652 C1654 1.388 . S
C1653 C1652 1.366 . S
C1653 C1657 1.385 . S
C1654 H1635 0.951 . S
C1654 C1652 1.388 . S
C1654 C1655 1.366 . S
C1655 C1654 1.366 . S
C1655 C1656 1.414 . S
C1655 C1658 1.499 . S
C1656 H1636 0.950 . S
C1656 C1655 1.414 . S
C1656 C1657 1.374 . S
C1657 H1637 0.950 . S
C1657 C1653 1.385 . S
C1657 C1656 1.374 . S
C1658 C1655 1.499 . S
C1658 C1659 1.373 . S
C1658 C1660 1.389 . S
C1659 H1638 0.950 . S
C1659 C1658 1.373 . S
C1659 C1675 1.377 . S
C1660 C1658 1.389 . S
C1660 C1661 1.524 . S
C1660 C1674 1.377 . S
C1661 C1660 1.524 . S
C1661 C1662 1.397 . S
C1661 C1666 1.363 . S
C1662 H1639 0.950 . S
C1662 C1661 1.397 . S
C1662 C1663 1.334 . S
C1663 H1640 0.950 . S
C1663 C1662 1.334 . S
C1663 C1664 1.287 . S
C1664 C1663 1.287 . S
C1664 C1665 1.524 . S
C1664 H1683 0.913 . S
C1665 H1641 0.950 . S
C1665 C1664 1.524 . S
C1665 C1666 1.415 . S
C1666 H1642 0.950 . S
C1666 C1661 1.363 . S
C1666 C1665 1.415 . S
C1667 H1643 0.951 . S
C1667 C1668 1.366 . S
C1667 C1669 1.388 . S
C1668 C1667 1.366 . S
C1668 C1672 1.385 . S
C1669 H1644 0.951 . S
C1669 C1667 1.388 . S
C1669 C1670 1.366 . S
C1670 C1669 1.366 . S
C1670 C1671 1.414 . S
C1670 C1673 1.499 . S
C1671 H1645 0.950 . S
C1671 C1670 1.414 . S
C1671 C1672 1.374 . S
C1672 H1646 0.950 . S
C1672 C1668 1.385 . S
C1672 C1671 1.374 . S
C1673 C1670 1.499 . S
C1673 C1674 1.373 . S
C1673 C1675 1.389 . S
C1674 H1647 0.950 . S
C1674 C1660 1.377 . S
C1674 C1673 1.373 . S
C1675 C1659 1.377 . S
C1675 C1673 1.389 . S
C1675 C1676 1.524 . S
C1676 C1675 1.524 . S
C1676 C1677 1.397 . S
C1676 C1681 1.363 . S
C1677 H1648 0.950 . S
C1677 C1676 1.397 . S
C1677 C1678 1.334 . S
C1678 H1649 0.950 . S
C1678 C1677 1.334 . S
C1678 C1679 1.287 . S
C1679 C1678 1.287 . S
C1679 C1680 1.524 . S
C1679 H1682 0.999 . S
C1680 H1650 0.950 . S
C1680 C1679 1.524 . S
C1680 C1681 1.415 . S
C1681 H1651 0.950 . S
C1681 C1676 1.363 . S
C1681 C1680 1.415 . S
H1682 C1679 0.999 . S
H1683 C1664 0.913 . S
H1684 C1702 0.951 . S
H1685 C1704 0.951 . S
H1686 C1706 0.950 . S
H1687 C1707 0.950 . S
H1688 C1709 0.950 . S
H1689 C1712 0.950 . S
H1690 C1713 0.950 . S
H1691 C1715 0.950 . S
H1692 C1716 0.950 . S
H1693 C1717 0.951 . S
H1694 C1719 0.951 . S
H1695 C1721 0.950 . S
H1696 C1722 0.950 . S
H1697 C1724 0.950 . S
H1698 C1727 0.950 . S
H1699 C1728 0.950 . S
H1700 C1730 0.950 . S
H1701 C1731 0.950 . S
C1702 H1684 0.951 . S
C1702 C1703 1.366 . S
C1702 C1704 1.388 . S
C1703 C1702 1.366 . S
C1703 C1707 1.385 . S
C1704 H1685 0.951 . S
C1704 C1702 1.388 . S
C1704 C1705 1.366 . S
C1705 C1704 1.366 . S
C1705 C1706 1.414 . S
C1705 C1708 1.499 . S
C1706 H1686 0.950 . S
C1706 C1705 1.414 . S
C1706 C1707 1.374 . S
C1707 H1687 0.950 . S
C1707 C1703 1.385 . S
C1707 C1706 1.374 . S
C1708 C1705 1.499 . S
C1708 C1709 1.373 . S
C1708 C1710 1.389 . S
C1709 H1688 0.950 . S
C1709 C1708 1.373 . S
C1709 C1725 1.377 . S
C1710 C1708 1.389 . S
C1710 C1711 1.524 . S
C1710 C1724 1.377 . S
C1711 C1710 1.524 . S
C1711 C1712 1.397 . S
C1711 C1716 1.363 . S
C1712 H1689 0.950 . S
C1712 C1711 1.397 . S
C1712 C1713 1.334 . S
C1713 H1690 0.950 . S
C1713 C1712 1.334 . S
C1713 C1714 1.287 . S
C1714 C1713 1.287 . S
C1714 C1715 1.524 . S
C1714 H1733 0.913 . S
C1715 H1691 0.950 . S
C1715 C1714 1.524 . S
C1715 C1716 1.415 . S
C1716 H1692 0.950 . S
C1716 C1711 1.363 . S
C1716 C1715 1.415 . S
C1717 H1693 0.951 . S
C1717 C1718 1.366 . S
C1717 C1719 1.388 . S
C1718 C1717 1.366 . S
C1718 C1722 1.385 . S
C1719 H1694 0.951 . S
C1719 C1717 1.388 . S
C1719 C1720 1.366 . S
C1720 C1719 1.366 . S
C1720 C1721 1.414 . S
C1720 C1723 1.499 . S
C1721 H1695 0.950 . S
C1721 C1720 1.414 . S
C1721 C1722 1.374 . S
C1722 H1696 0.950 . S
C1722 C1718 1.385 . S
C1722 C1721 1.374 . S
C1723 C1720 1.499 . S
C1723 C1724 1.373 . S
C1723 C1725 1.389 . S
C1724 H1697 0.950 . S
C1724 C1710 1.377 . S
C1724 C1723 1.373 . S
C1725 C1709 1.377 . S
C1725 C1723 1.389 . S
C1725 C1726 1.524 . S
C1726 C1725 1.524 . S
C1726 C1727 1.397 . S
C1726 C1731 1.363 . S
C1727 H1698 0.950 . S
C1727 C1726 1.397 . S
C1727 C1728 1.334 . S
C1728 H1699 0.950 . S
C1728 C1727 1.334 . S
C1728 C1729 1.287 . S
C1729 C1728 1.287 . S
C1729 C1730 1.524 . S
C1729 H1732 0.999 . S
C1730 H1700 0.950 . S
C1730 C1729 1.524 . S
C1730 C1731 1.415 . S
C1731 H1701 0.950 . S
C1731 C1726 1.363 . S
C1731 C1730 1.415 . S
H1732 C1729 0.999 . S
H1733 C1714 0.913 . S
H1734 C1752 0.951 . S
H1735 C1754 0.951 . S
H1736 C1756 0.950 . S
H1737 C1757 0.950 . S
H1738 C1759 0.950 . S
H1739 C1762 0.950 . S
H1740 C1763 0.950 . S
H1741 C1765 0.950 . S
H1742 C1766 0.950 . S
H1743 C1767 0.951 . S
H1744 C1769 0.951 . S
H1745 C1771 0.950 . S
H1746 C1772 0.950 . S
H1747 C1774 0.950 . S
H1748 C1777 0.950 . S
H1749 C1778 0.950 . S
H1750 C1780 0.950 . S
H1751 C1781 0.950 . S
C1752 H1734 0.951 . S
C1752 C1753 1.366 . S
C1752 C1754 1.388 . S
C1753 C1752 1.366 . S
C1753 C1757 1.385 . S
C1754 H1735 0.951 . S
C1754 C1752 1.388 . S
C1754 C1755 1.366 . S
C1755 C1754 1.366 . S
C1755 C1756 1.414 . S
C1755 C1758 1.499 . S
C1756 H1736 0.950 . S
C1756 C1755 1.414 . S
C1756 C1757 1.374 . S
C1757 H1737 0.950 . S
C1757 C1753 1.385 . S
C1757 C1756 1.374 . S
C1758 C1755 1.499 . S
C1758 C1759 1.373 . S
C1758 C1760 1.389 . S
C1759 H1738 0.950 . S
C1759 C1758 1.373 . S
C1759 C1775 1.377 . S
C1760 C1758 1.389 . S
C1760 C1761 1.524 . S
C1760 C1774 1.377 . S
C1761 C1760 1.524 . S
C1761 C1762 1.397 . S
C1761 C1766 1.363 . S
C1762 H1739 0.950 . S
C1762 C1761 1.397 . S
C1762 C1763 1.334 . S
C1763 H1740 0.950 . S
C1763 C1762 1.334 . S
C1763 C1764 1.287 . S
C1764 C1763 1.287 . S
C1764 C1765 1.524 . S
C1764 H1783 0.913 . S
C1765 H1741 0.950 . S
C1765 C1764 1.524 . S
C1765 C1766 1.415 . S
C1766 H1742 0.950 . S
C1766 C1761 1.363 . S
C1766 C1765 1.415 . S
C1767 H1743 0.951 . S
C1767 C1768 1.366 . S
C1767 C1769 1.388 . S
C1768 C1767 1.366 . S
C1768 C1772 1.385 . S
C1769 H1744 0.951 . S
C1769 C1767 1.388 . S
C1769 C1770 1.366 . S
C1770 C1769 1.366 . S
C1770 C1771 1.414 . S
C1770 C1773 1.499 . S
C1771 H1745 0.950 . S
C1771 C1770 1.414 . S
C1771 C1772 1.374 . S
C1772 H1746 0.950 . S
C1772 C1768 1.385 . S
C1772 C1771 1.374 . S
C1773 C1770 1.499 . S
C1773 C1774 1.373 . S
C1773 C1775 1.389 . S
C1774 H1747 0.950 . S
C1774 C1760 1.377 . S
C1774 C1773 1.373 . S
C1775 C1759 1.377 . S
C1775 C1773 1.389 . S
C1775 C1776 1.524 . S
C1776 C1775 1.524 . S
C1776 C1777 1.397 . S
C1776 C1781 1.363 . S
C1777 H1748 0.950 . S
C1777 C1776 1.397 . S
C1777 C1778 1.334 . S
C1778 H1749 0.950 . S
C1778 C1777 1.334 . S
C1778 C1779 1.287 . S
C1779 C1778 1.287 . S
C1779 C1780 1.524 . S
C1779 H1782 0.999 . S
C1780 H1750 0.950 . S
C1780 C1779 1.524 . S
C1780 C1781 1.415 . S
C1781 H1751 0.950 . S
C1781 C1776 1.363 . S
C1781 C1780 1.415 . S
H1782 C1779 0.999 . S
H1783 C1764 0.913 . S
C603 C45 1.633 . S
C618 C135 1.588 . S
C653 C30 1.633 . S
C668 C195 1.594 . S
C703 C39 1.633 . S
C718 C255 1.648 . S
C768 C315 1.641 . S
C753 C34 1.633 . S
C803 C97 1.633 . S
C818 C375 1.595 . S
C868 C435 1.595 . S
C853 C82 1.633 . S
C918 C495 1.640 . S
C903 C91 1.633 . S
C968 C555 1.641 . S
C953 C86 1.633 . S
C1018 C484 1.534 . S
C1003 C26 1.471 . S
C1068 C544 1.534 . S
C1053 C36 1.475 . S
C1118 C345 1.460 . S
C1103 C32 1.480 . S
C1168 C405 1.459 . S
C1153 C42 1.475 . S
C1203 C18 1.563 . S
C1218 C424 1.590 . S
C1268 C465 1.607 . S
C1253 C50 1.559 . S
C1303 C4 1.562 . S
C1318 C525 1.609 . S
C1353 C48 1.562 . S
C1368 C364 1.595 . S
C1418 C244 1.534 . S
C1403 C78 1.475 . S
C1453 C88 1.475 . S
C1468 C304 1.534 . S
C1518 C105 1.460 . S
C1503 C84 1.475 . S
C1568 C165 1.459 . S
C1553 C94 1.476 . S
C1618 C184 1.591 . S
C1603 C70 1.563 . S
C1668 C225 1.607 . S
C1653 C102 1.563 . S
C1703 C56 1.563 . S
C1718 C285 1.607 . S
C1753 C100 1.562 . S
C1768 C124 1.590 . S
