# Generated by pormake.
# Topology ctn, (3,4)-cn, num edge types: 1
# Building blocks:
#     Node 0, Type 0, BuildingBlock: BETDIP_clean_linker_0, # of connection points: 3
#     Node 1, Type 0, BuildingBlock: BETDIP_clean_linker_0, # of connection points: 3
#     Node 2, Type 0, BuildingBlock: BETDIP_clean_linker_0, # of connection points: 3
#     Node 3, Type 0, BuildingBlock: BETDIP_clean_linker_0, # of connection points: 3
#     Node 4, Type 0, BuildingBlock: BETDIP_clean_linker_0, # of connection points: 3
#     Node 5, Type 0, BuildingBlock: BETDIP_clean_linker_0, # of connection points: 3
#     Node 6, Type 0, BuildingBlock: BETDIP_clean_linker_0, # of connection points: 3
#     Node 7, Type 0, BuildingBlock: BETDIP_clean_linker_0, # of connection points: 3
#     Node 8, Type 0, BuildingBlock: BETDIP_clean_linker_0, # of connection points: 3
#     Node 9, Type 0, BuildingBlock: BETDIP_clean_linker_0, # of connection points: 3
#     Node 10, Type 0, BuildingBlock: BETDIP_clean_linker_0, # of connection points: 3
#     Node 11, Type 0, BuildingBlock: BETDIP_clean_linker_0, # of connection points: 3
#     Node 12, Type 0, BuildingBlock: BETDIP_clean_linker_0, # of connection points: 3
#     Node 13, Type 0, BuildingBlock: BETDIP_clean_linker_0, # of connection points: 3
#     Node 14, Type 0, BuildingBlock: BETDIP_clean_linker_0, # of connection points: 3
#     Node 15, Type 0, BuildingBlock: BETDIP_clean_linker_0, # of connection points: 3
#     Node 16, Type 1, BuildingBlock: UXUYUI_clean_sbu_0, # of connection points: 4
#     Node 17, Type 1, BuildingBlock: UXUYUI_clean_sbu_0, # of connection points: 4
#     Node 18, Type 1, BuildingBlock: UXUYUI_clean_sbu_0, # of connection points: 4
#     Node 19, Type 1, BuildingBlock: UXUYUI_clean_sbu_0, # of connection points: 4
#     Node 20, Type 1, BuildingBlock: UXUYUI_clean_sbu_0, # of connection points: 4
#     Node 21, Type 1, BuildingBlock: UXUYUI_clean_sbu_0, # of connection points: 4
#     Node 22, Type 1, BuildingBlock: UXUYUI_clean_sbu_0, # of connection points: 4
#     Node 23, Type 1, BuildingBlock: UXUYUI_clean_sbu_0, # of connection points: 4
#     Node 24, Type 1, BuildingBlock: UXUYUI_clean_sbu_0, # of connection points: 4
#     Node 25, Type 1, BuildingBlock: UXUYUI_clean_sbu_0, # of connection points: 4
#     Node 26, Type 1, BuildingBlock: UXUYUI_clean_sbu_0, # of connection points: 4
#     Node 27, Type 1, BuildingBlock: UXUYUI_clean_sbu_0, # of connection points: 4
#     Edge 28, Type (0, 1), None
#     Edge 29, Type (0, 1), None
#     Edge 30, Type (0, 1), None
#     Edge 31, Type (0, 1), None
#     Edge 32, Type (0, 1), None
#     Edge 33, Type (0, 1), None
#     Edge 34, Type (0, 1), None
#     Edge 35, Type (0, 1), None
#     Edge 36, Type (0, 1), None
#     Edge 37, Type (0, 1), None
#     Edge 38, Type (0, 1), None
#     Edge 39, Type (0, 1), None
#     Edge 40, Type (0, 1), None
#     Edge 41, Type (0, 1), None
#     Edge 42, Type (0, 1), None
#     Edge 43, Type (0, 1), None
#     Edge 44, Type (0, 1), None
#     Edge 45, Type (0, 1), None
#     Edge 46, Type (0, 1), None
#     Edge 47, Type (0, 1), None
#     Edge 48, Type (0, 1), None
#     Edge 49, Type (0, 1), None
#     Edge 50, Type (0, 1), None
#     Edge 51, Type (0, 1), None
#     Edge 52, Type (0, 1), None
#     Edge 53, Type (0, 1), None
#     Edge 54, Type (0, 1), None
#     Edge 55, Type (0, 1), None
#     Edge 56, Type (0, 1), None
#     Edge 57, Type (0, 1), None
#     Edge 58, Type (0, 1), None
#     Edge 59, Type (0, 1), None
#     Edge 60, Type (0, 1), None
#     Edge 61, Type (0, 1), None
#     Edge 62, Type (0, 1), None
#     Edge 63, Type (0, 1), None
#     Edge 64, Type (0, 1), None
#     Edge 65, Type (0, 1), None
#     Edge 66, Type (0, 1), None
#     Edge 67, Type (0, 1), None
#     Edge 68, Type (0, 1), None
#     Edge 69, Type (0, 1), None
#     Edge 70, Type (0, 1), None
#     Edge 71, Type (0, 1), None
#     Edge 72, Type (0, 1), None
#     Edge 73, Type (0, 1), None
#     Edge 74, Type (0, 1), None
#     Edge 75, Type (0, 1), None
# Relax obj value: 0.076
# Max RMSD: 0.193
# Mean RMSD: 0.116
data_MOF--net-ctn--node1-UXUYUI_clean_sbu_0--node2-BETDIP_clean_linker_0--edge1-none
_symmetry_space_group_name_H-M    P1
_symmetry_Int_Tables_number       1
_symmetry_cell_setting            triclinic
loop_
_symmetry_equiv_pos_as_xyz
'x, y, z'
_cell_length_a     34.71919
_cell_length_b     34.998482
_cell_length_c     38.911833
_cell_angle_alpha  93.786034
_cell_angle_beta   94.068637
_cell_angle_gamma 92.274688
loop_
_atom_site_label
_atom_site_type_symbol
_atom_site_fract_x
_atom_site_fract_y
_atom_site_fract_z
_atom_type_partial_charge
H0 H 0.04187 0.07928 0.08427 0.0
H1 H 0.12789 0.03114 0.02296 0.0
H2 H 0.09678 0.97596 0.11284 0.0
H3 H 0.10528 0.06614 0.98295 0.0
C4 C 0.09039 0.08979 0.99459 0.0
C5 C 0.06156 0.0566 0.07946 0.0
C6 C 0.06579 0.02728 0.10243 0.0
C7 C 0.08279 0.05776 0.05033 0.0
C8 C 0.11001 0.02995 0.04453 0.0
C9 C 0.11527 1.00046 0.06688 0.0
C10 C 0.09281 0.99885 0.09568 0.0
N11 N 0.07652 0.0879 0.02801 0.0
H12 H 0.27868 0.67712 0.19272 0.0
H13 H 0.38521 0.73822 0.22613 0.0
H14 H 0.33663 0.65734 0.29125 0.0
H15 H 0.36758 0.77881 0.18899 0.0
C16 C 0.34666 0.76495 0.16965 0.0
C17 C 0.30224 0.68307 0.21236 0.0
C18 C 0.30323 0.66428 0.24326 0.0
C19 C 0.33097 0.7103 0.20636 0.0
C20 C 0.36266 0.71745 0.23067 0.0
C21 C 0.36538 0.69811 0.26123 0.0
C22 C 0.33526 0.67178 0.26747 0.0
N23 N 0.32645 0.73025 0.17579 0.0
H24 H 0.94161 0.51043 1.00753 0.0
H25 H 0.02833 0.4644 0.07454 0.0
H26 H 0.98005 0.57208 0.10442 0.0
H27 H 1.00191 0.40843 0.04928 0.0
C28 C 0.9986 0.41544 0.02248 0.0
C29 C 0.95962 0.51291 0.03158 0.0
C30 C 0.95716 0.54477 0.05518 0.0
C31 C 0.98458 0.48372 0.03865 0.0
C32 C 1.00866 0.48684 0.06926 0.0
C33 C 1.00775 0.5186 0.0932 0.0
C34 C 0.98158 0.54763 0.08607 0.0
N35 N 0.98557 0.45191 0.01412 0.0
H36 H 0.71768 0.78089 0.18583 0.0
H37 H 0.76285 0.87103 0.25938 0.0
H38 H 0.8207 0.84648 0.16699 0.0
H39 H 0.72831 0.84179 0.29574 0.0
C40 C 0.70482 0.82481 0.28158 0.0
C41 C 0.73961 0.80326 0.19362 0.0
C42 C 0.76998 0.81045 0.17251 0.0
C43 C 0.73715 0.8242 0.22519 0.0
C44 C 0.76464 0.85425 0.23529 0.0
C45 C 0.79485 0.86276 0.2143 0.0
C46 C 0.79729 0.84051 0.18305 0.0
N47 N 0.70667 0.81384 0.24591 0.0
H48 H 0.04576 0.95451 0.43914 0.0
H49 H 0.13541 1.00297 0.51238 0.0
H50 H 0.10908 0.05775 0.41839 0.0
H51 H 0.10154 0.97226 0.54998 0.0
C52 C 0.08817 0.94667 0.53605 0.0
C53 C 0.06771 0.97697 0.44659 0.0
C54 C 0.0741 1.00677 0.42485 0.0
C55 C 0.08884 0.97586 0.47841 0.0
C56 C 0.11842 1.00397 0.4881 0.0
C57 C 0.12626 0.03354 0.46639 0.0
C58 C 0.10367 0.03478 0.43497 0.0
N59 N 0.07941 0.94588 0.49977 0.0
H60 H 0.24336 0.77857 0.82676 0.0
H61 H 0.2845 0.68914 0.76035 0.0
H62 H 0.34138 0.71567 0.86164 0.0
H63 H 0.23425 0.69855 0.72505 0.0
C64 C 0.21858 0.72275 0.73458 0.0
C65 C 0.26406 0.75669 0.82229 0.0
C66 C 0.29292 0.7504 0.84809 0.0
C67 C 0.26051 0.73481 0.79094 0.0
C68 C 0.28649 0.70589 0.7848 0.0
C69 C 0.31585 0.6986 0.81005 0.0
C70 C 0.319 0.72104 0.84191 0.0
N71 N 0.22997 0.74304 0.76673 0.0
H72 H 1.01019 0.6236 0.47792 0.0
H73 H 0.95109 0.51527 0.44888 0.0
H74 H 0.9227 0.58042 0.54043 0.0
H75 H 1.00636 0.50302 0.42451 0.0
C76 C 1.01553 0.53007 0.41484 0.0
C77 C 0.98834 0.60201 0.48273 0.0
C78 C 0.96663 0.60658 0.51171 0.0
C79 C 0.98371 0.56889 0.46059 0.0
C80 C 0.95612 0.54026 0.46677 0.0
C81 C 0.93413 0.54403 0.49564 0.0
C82 C 0.9394 0.5774 0.51798 0.0
N83 N 1.00739 0.56535 0.4324 0.0
H84 H 0.79468 0.85649 0.7648 0.0
H85 H 0.84611 0.77669 0.83076 0.0
H86 H 0.74223 0.83184 0.85829 0.0
H87 H 0.90091 0.79773 0.80534 0.0
C88 C 0.89 0.80006 0.77873 0.0
C89 C 0.79427 0.84125 0.78818 0.0
C90 C 0.76544 0.84789 0.81096 0.0
C91 C 0.82337 0.81615 0.79532 0.0
C92 C 0.82333 0.79612 0.8254 0.0
C93 C 0.79391 0.80083 0.84839 0.0
C94 C 0.76489 0.82719 0.84093 0.0
N95 N 0.85174 0.81137 0.77109 0.0
H96 H 0.29468 0.35649 0.26481 0.0
H97 H 0.34611 0.27669 0.33077 0.0
H98 H 0.24223 0.33184 0.3583 0.0
H99 H 0.40091 0.29774 0.30534 0.0
C100 C 0.39 0.30006 0.27873 0.0
C101 C 0.29427 0.34125 0.28818 0.0
C102 C 0.26544 0.3479 0.31096 0.0
C103 C 0.32337 0.31615 0.29532 0.0
C104 C 0.32333 0.29612 0.3254 0.0
C105 C 0.29391 0.30083 0.34839 0.0
C106 C 0.26489 0.32719 0.34093 0.0
N107 N 0.35174 0.31138 0.27109 0.0
H108 H 0.44161 1.01043 0.50753 0.0
H109 H 0.52833 0.9644 0.57454 0.0
H110 H 0.48004 0.07208 0.60443 0.0
H111 H 0.50191 0.90843 0.54928 0.0
C112 C 0.4986 0.91544 0.52248 0.0
C113 C 0.45961 1.01291 0.53158 0.0
C114 C 0.45716 0.04477 0.55518 0.0
C115 C 0.48458 0.98372 0.53865 0.0
C116 C 0.50865 0.98683 0.56926 0.0
C117 C 0.50775 0.0186 0.59321 0.0
C118 C 0.48158 0.04763 0.58607 0.0
N119 N 0.48557 0.95191 0.51412 0.0
H120 H 0.21768 0.28089 0.68583 0.0
H121 H 0.26285 0.37103 0.75938 0.0
H122 H 0.3207 0.34648 0.66699 0.0
H123 H 0.22831 0.34179 0.79574 0.0
C124 C 0.20482 0.32481 0.78158 0.0
C125 C 0.23961 0.30326 0.69362 0.0
C126 C 0.26998 0.31045 0.67251 0.0
C127 C 0.23715 0.3242 0.72519 0.0
C128 C 0.26464 0.35425 0.73529 0.0
C129 C 0.29485 0.36276 0.7143 0.0
C130 C 0.29729 0.34051 0.68305 0.0
N131 N 0.20667 0.31384 0.74591 0.0
H132 H 0.77868 0.17712 0.69272 0.0
H133 H 0.88521 0.23821 0.72614 0.0
H134 H 0.83663 0.15734 0.79125 0.0
H135 H 0.86758 0.27881 0.68899 0.0
C136 C 0.84666 0.26495 0.66965 0.0
C137 C 0.80224 0.18307 0.71236 0.0
C138 C 0.80323 0.16428 0.74326 0.0
C139 C 0.83097 0.2103 0.70636 0.0
C140 C 0.86266 0.21745 0.73067 0.0
C141 C 0.86538 0.19811 0.76123 0.0
C142 C 0.83526 0.17177 0.76747 0.0
N143 N 0.82645 0.23025 0.67579 0.0
H144 H 0.54188 0.57928 0.58427 0.0
H145 H 0.62789 0.53115 0.52296 0.0
H146 H 0.59678 0.47596 0.61283 0.0
H147 H 0.60528 0.56615 0.48295 0.0
C148 C 0.59039 0.5898 0.49459 0.0
C149 C 0.56156 0.55661 0.57946 0.0
C150 C 0.56579 0.52728 0.60243 0.0
C151 C 0.58279 0.55776 0.55033 0.0
C152 C 0.61001 0.52996 0.54453 0.0
C153 C 0.61527 0.50047 0.56688 0.0
C154 C 0.59281 0.49886 0.59568 0.0
N155 N 0.57653 0.5879 0.52801 0.0
H156 H 0.54576 0.45451 0.93914 0.0
H157 H 0.63541 0.50296 0.01237 0.0
H158 H 0.60908 0.55775 0.91839 0.0
H159 H 0.60154 0.47226 0.04998 0.0
C160 C 0.58817 0.44667 0.03605 0.0
C161 C 0.56771 0.47697 0.94659 0.0
C162 C 0.5741 0.50677 0.92485 0.0
C163 C 0.58884 0.47585 0.97841 0.0
C164 C 0.61842 0.50397 0.9881 0.0
C165 C 0.62626 0.53354 0.96639 0.0
C166 C 0.60368 0.53478 0.93496 0.0
N167 N 0.57941 0.44587 0.99977 0.0
H168 H 0.74336 0.27857 0.32677 0.0
H169 H 0.78449 0.18914 0.26036 0.0
H170 H 0.84137 0.21567 0.36164 0.0
H171 H 0.73425 0.19855 0.22505 0.0
C172 C 0.71857 0.22275 0.23459 0.0
C173 C 0.76405 0.25669 0.32229 0.0
C174 C 0.79292 0.2504 0.3481 0.0
C175 C 0.76051 0.23481 0.29095 0.0
C176 C 0.78648 0.20589 0.2848 0.0
C177 C 0.81585 0.1986 0.31005 0.0
C178 C 0.819 0.22104 0.34192 0.0
N179 N 0.72996 0.24303 0.26674 0.0
H180 H 0.51019 0.1236 0.97792 0.0
H181 H 0.45109 0.01527 0.94888 0.0
H182 H 0.4227 0.08042 0.04042 0.0
H183 H 0.50636 1.00302 0.92452 0.0
C184 C 0.51554 0.03007 0.91484 0.0
C185 C 0.48834 0.10201 0.98273 0.0
C186 C 0.46663 0.10658 1.01171 0.0
C187 C 0.48371 0.06889 0.96059 0.0
C188 C 0.45612 0.04026 0.96677 0.0
C189 C 0.43412 0.04403 0.99564 0.0
C190 C 0.43939 0.0774 0.01798 0.0
N191 N 0.50739 0.06535 0.9324 0.0
Li192 Li 0.31618 0.9116 0.01203 0.0
Li193 Li 0.29825 0.85599 0.04516 0.0
Li194 Li 0.28495 0.85486 0.98294 0.0
Li195 Li 0.24738 0.89836 0.02283 0.0
C196 C 0.35726 0.83315 0.99322 0.0
N197 N 0.39809 0.77856 0.95839 0.0
C198 C 0.36216 0.7973 1.00638 0.0
C199 C 0.37346 0.84134 0.9625 0.0
C200 C 0.38286 0.77009 0.98837 0.0
C201 C 0.39387 0.81332 0.94521 0.0
C202 C 0.30227 0.92926 0.0875 0.0
C203 C 0.28646 0.95393 0.14391 0.0
N204 N 0.32387 0.96658 0.1512 0.0
C205 C 0.34052 0.94273 0.09551 0.0
C206 C 0.27495 0.93508 0.11184 0.0
C207 C 0.35089 0.96142 0.12787 0.0
C208 C 0.34261 0.9898 0.0156 0.0
N209 N 0.35306 0.95298 1.00991 0.0
C210 C 0.41654 0.97421 0.99793 0.0
C211 C 0.38938 0.94474 1.00192 0.0
C212 C 0.40627 1.01257 1.00232 0.0
C213 C 0.36894 0.02026 1.01188 0.0
H214 H 0.31356 0.99544 0.02227 0.0
H215 H 0.39715 0.91526 0.9983 0.0
C216 C 0.29695 0.79145 0.08556 0.0
N217 N 0.31384 0.82674 0.0828 0.0
C218 C 0.30746 0.77029 0.11362 0.0
C219 C 0.35391 0.8213 0.13456 0.0
C220 C 0.34249 0.84144 0.1061 0.0
C221 C 0.33595 0.78552 0.13874 0.0
H222 H 0.2753 0.77967 0.066 0.0
H223 H 0.35661 0.86874 0.10255 0.0
C224 C 0.27671 0.94061 0.95998 0.0
N225 N 0.2921 1.00538 0.9254 0.0
C226 C 0.25277 0.9717 0.96245 0.0
C227 C 0.30811 0.94225 0.93944 0.0
C228 C 0.2611 1.00423 0.94488 0.0
C229 C 0.31554 0.97531 0.92233 0.0
C230 C 0.21995 0.82571 0.03749 0.0
C231 C 0.19272 0.79792 0.02255 0.0
C232 C 0.21803 0.83913 0.07192 0.0
C233 C 0.16391 0.78402 0.04237 0.0
C234 C 0.18882 0.82452 0.0909 0.0
N235 N 0.16257 0.7975 0.07585 0.0
C236 C 0.28869 0.78255 0.94304 0.0
C237 C 0.28626 0.8373 0.91048 0.0
C238 C 0.29334 0.75883 0.91317 0.0
N239 N 0.28532 0.82108 0.9412 0.0
C240 C 0.29066 0.81475 0.88013 0.0
C241 C 0.29404 0.77489 0.88108 0.0
H242 H 0.28823 0.77025 0.9678 0.0
H243 H 0.28375 0.86784 0.90949 0.0
C244 C 0.21199 0.96307 0.04649 0.0
N245 N 0.2027 0.92574 0.03626 0.0
C246 C 0.18402 0.98727 0.05821 0.0
C247 C 0.13699 0.93419 0.04992 0.0
C248 C 0.16604 0.91085 0.038 0.0
C249 C 0.1459 0.97306 0.05984 0.0
H250 H 0.24134 0.97419 0.04524 0.0
H251 H 0.15916 0.88106 0.02994 0.0
O252 O 0.33646 0.85992 1.01017 0.0
O253 O 0.2914 0.91152 0.05567 0.0
O254 O 0.26936 0.90876 0.9775 0.0
O255 O 0.248 0.83991 0.01823 0.0
H256 H 0.34988 0.7904 0.03007 0.0
H257 H 0.36986 0.86882 0.95182 0.0
H258 H 0.38669 0.74217 0.99818 0.0
H259 H 0.40623 0.81916 0.92125 0.0
H260 H 0.26561 0.95858 0.16297 0.0
H261 H 0.36213 0.93837 0.07712 0.0
H262 H 0.24509 0.92535 0.10606 0.0
H263 H 0.38043 0.97179 0.13444 0.0
H264 H 0.44527 0.96703 0.99127 0.0
H265 H 0.35984 0.04941 0.0154 0.0
H266 H 0.29325 0.7425 0.11564 0.0
H267 H 0.37636 0.83367 0.15323 0.0
H268 H 0.22794 0.97071 0.97766 0.0
H269 H 0.32703 0.91855 0.93729 0.0
H270 H 0.2429 0.02856 0.9467 0.0
H271 H 0.34003 0.97712 0.90671 0.0
H272 H 0.1938 0.7873 0.99588 0.0
H273 H 0.239 0.86042 0.08388 0.0
H274 H 0.1426 0.76255 0.03114 0.0
H275 H 0.18703 0.83464 0.11758 0.0
H276 H 0.2952 0.72821 0.915 0.0
H277 H 0.29092 0.82837 0.85594 0.0
H278 H 0.19193 0.01717 0.06527 0.0
H279 H 0.10771 0.92242 0.05022 0.0
Li280 Li 0.11659 0.52246 0.29169 0.0
Li281 Li 0.16056 0.47782 0.26772 0.0
Li282 Li 0.16871 0.54756 0.26153 0.0
Li283 Li 0.11434 0.51401 0.22802 0.0
C284 C 0.17584 0.52132 0.33852 0.0
N285 N 0.18047 0.52494 0.40982 0.0
C286 C 0.1678 0.48851 0.35582 0.0
C287 C 0.18669 0.55586 0.35744 0.0
C288 C 0.17017 0.49096 0.39189 0.0
C289 C 0.18876 0.55713 0.39349 0.0
C290 C 0.08931 0.44085 0.24435 0.0
C291 C 0.09488 0.39184 0.1986 0.0
N292 N 0.06255 0.37332 0.20811 0.0
C293 C 0.05613 0.42135 0.25363 0.0
C294 C 0.10888 0.42602 0.21658 0.0
C295 C 0.04307 0.38724 0.23501 0.0
C296 C 0.07592 0.56191 0.34405 0.0
N297 N 0.08526 0.52743 0.32955 0.0
C298 C 0.0495 0.49436 0.36958 0.0
C299 C 0.07248 0.49398 0.34161 0.0
C300 C 0.03961 0.5295 0.38512 0.0
C301 C 0.053 0.56364 0.37208 0.0
H302 H 0.08611 0.58807 0.33398 0.0
H303 H 0.08046 0.46697 0.32961 0.0
C304 C 0.22781 0.44236 0.28527 0.0
N305 N 0.18931 0.43388 0.27934 0.0
C306 C 0.25269 0.41489 0.2969 0.0
C307 C 0.19789 0.37039 0.29788 0.0
C308 C 0.17385 0.3989 0.28594 0.0
C309 C 0.23795 0.37824 0.3031 0.0
H310 H 0.23915 0.47085 0.28137 0.0
H311 H 0.14294 0.39319 0.28235 0.0
C312 C 0.11087 0.60052 0.26014 0.0
N313 N 0.10628 0.67933 0.26454 0.0
C314 C 0.09139 0.61871 0.23355 0.0
C315 C 0.12823 0.62245 0.28882 0.0
C316 C 0.08932 0.65858 0.2363 0.0
C317 C 0.12554 0.66223 0.29061 0.0
C318 C 0.19674 0.51917 0.20402 0.0
C319 C 0.18659 0.54805 0.18237 0.0
C320 C 0.23432 0.50619 0.20522 0.0
C321 C 0.21439 0.56376 0.1625 0.0
C322 C 0.2613 0.52264 0.18496 0.0
N323 N 0.25087 0.55087 0.16423 0.0
C324 C 0.24477 0.57974 0.27293 0.0
C325 C 0.20232 0.61813 0.2414 0.0
C326 C 0.27614 0.60486 0.26849 0.0
N327 N 0.20879 0.58659 0.25919 0.0
C328 C 0.23246 0.64445 0.2372 0.0
C329 C 0.27031 0.63769 0.25008 0.0
H330 H 0.24934 0.55395 0.28627 0.0
H331 H 0.17403 0.6224 0.22935 0.0
C332 C 0.04469 0.52753 0.18811 0.0
N333 N 0.08098 0.51447 0.18626 0.0
C334 C 0.02054 0.53049 0.15799 0.0
C335 C 0.07177 0.50695 0.12466 0.0
C336 C 0.09473 0.5042 0.15532 0.0
C337 C 0.03386 0.51981 0.12561 0.0
H338 H 0.03452 0.53584 0.21305 0.0
H339 H 0.12368 0.49407 0.1544 0.0
O340 O 0.17304 0.51965 0.30323 0.0
O341 O 0.10225 0.4743 0.26245 0.0
O342 O 0.11358 0.56157 0.2576 0.0
O343 O 0.17019 0.50426 0.22441 0.0
H344 H 0.1593 0.46156 0.34156 0.0
H345 H 0.19357 0.58137 0.34443 0.0
H346 H 0.16372 0.46587 0.40563 0.0
H347 H 0.197 0.58369 0.40848 0.0
H348 H 0.10974 0.38002 0.1771 0.0
H349 H 0.04061 0.43249 0.27502 0.0
H350 H 0.13464 0.4405 0.20897 0.0
H351 H 0.01744 0.37184 0.24194 0.0
H352 H 0.03967 0.46748 0.37901 0.0
H353 H 0.04592 0.59138 0.38332 0.0
H354 H 0.2834 0.42213 0.30078 0.0
H355 H 0.18549 0.34238 0.30219 0.0
H356 H 0.0782 0.60227 0.21095 0.0
H357 H 0.14402 0.6089 0.30928 0.0
H358 H 0.07432 0.67303 0.21593 0.0
H359 H 0.1389 0.67953 0.31265 0.0
H360 H 0.15776 0.55882 0.1815 0.0
H361 H 0.24262 0.48372 0.22164 0.0
H362 H 0.20703 0.58639 0.14589 0.0
H363 H 0.29054 0.51298 0.18574 0.0
H364 H 0.30471 0.5979 0.27845 0.0
H365 H 0.22602 0.6696 0.22346 0.0
H366 H 0.99148 0.54009 0.1601 0.0
H367 H 0.08363 0.49885 0.10037 0.0
Li368 Li 0.76084 0.65415 1.00269 0.0
Li369 Li 0.78989 0.70569 0.04076 0.0
Li370 Li 0.79722 0.70518 0.97831 0.0
Li371 Li 0.83044 0.65784 0.01555 0.0
C372 C 0.71527 0.71786 0.01626 0.0
N373 N 0.64697 0.73608 0.04447 0.0
C374 C 0.7012 0.69633 0.04207 0.0
C375 C 0.69465 0.74865 1.00483 0.0
C376 C 0.66662 0.706 0.056 0.0
C377 C 0.66015 0.7574 0.0194 0.0
C378 C 0.80653 0.64181 0.07875 0.0
C379 C 0.85558 0.65519 0.12552 0.0
N380 N 0.84188 0.62443 0.14129 0.0
C381 C 0.79299 0.6103 0.09535 0.0
C382 C 0.83814 0.66444 0.09387 0.0
C383 C 0.81122 0.602 0.12699 0.0
C384 C 0.72269 0.58125 1.0013 0.0
N385 N 0.71782 0.618 0.99314 0.0
C386 C 0.65366 0.60158 0.96878 0.0
C387 C 0.68418 0.62854 0.97714 0.0
C388 C 0.65791 0.56316 0.97641 0.0
C389 C 0.69307 0.55323 0.99304 0.0
H390 H 0.74997 0.57358 0.01357 0.0
H391 H 0.6812 0.65779 0.97038 0.0
C392 C 0.79345 0.77622 0.08164 0.0
N393 N 0.78293 0.73835 0.08112 0.0
C394 C 0.78895 0.80055 0.11097 0.0
C395 C 0.76311 0.74636 0.13864 0.0
C396 C 0.76743 0.72334 0.10865 0.0
C397 C 0.77388 0.78566 0.14025 0.0
H398 H 0.8053 0.78752 0.05921 0.0
H399 H 0.7586 0.69332 0.10752 0.0
C400 C 0.7831 0.62481 0.94384 0.0
N401 N 0.74294 0.57558 0.89418 0.0
C402 C 0.79279 0.58649 0.93976 0.0
C403 C 0.75319 0.63818 0.9225 0.0
C404 C 0.77209 0.56203 0.91454 0.0
C405 C 0.73318 0.61282 0.89759 0.0
C406 C 0.87288 0.72583 1.0051 0.0
C407 C 0.88511 0.70582 0.97583 0.0
C408 C 0.89604 0.75622 0.02141 0.0
C409 C 0.92037 0.71666 0.96333 0.0
C410 C 0.93114 0.76616 1.00814 0.0
N411 N 0.94247 0.74635 0.97961 0.0
C412 C 0.78544 0.77241 0.94091 0.0
C413 C 0.80918 0.72003 0.90846 0.0
C414 C 0.78335 0.79406 0.91174 0.0
N415 N 0.79825 0.7361 0.9388 0.0
C416 C 0.80719 0.74042 0.87868 0.0
C417 C 0.79435 0.77818 0.87991 0.0
H418 H 0.77656 0.78451 0.96526 0.0
H419 H 0.81887 0.69102 0.90719 0.0
C420 C 0.86333 0.58793 0.02487 0.0
N421 N 0.87346 0.62593 0.0265 0.0
C422 C 0.89013 0.56132 0.03483 0.0
C423 C 0.93746 0.61327 0.0495 0.0
C424 C 0.90961 0.63907 0.03898 0.0
C425 C 0.92792 0.5737 0.04712 0.0
H426 H 0.83399 0.57833 0.01647 0.0
H427 H 0.91674 0.66952 0.04132 0.0
O428 O 0.74929 0.70928 1.00244 0.0
O429 O 0.78945 0.64968 0.04739 0.0
O430 O 0.80218 0.64899 0.96906 0.0
O431 O 0.83858 0.71581 0.01807 0.0
H432 H 0.71677 0.67241 0.05126 0.0
H433 H 0.70522 0.76563 0.98492 0.0
H434 H 0.6554 0.6896 0.07599 0.0
H435 H 0.64387 0.78116 1.0108 0.0
H436 H 0.88007 0.67242 0.13751 0.0
H437 H 0.7687 0.59238 0.08383 0.0
H438 H 0.8492 0.68879 0.08127 0.0
H439 H 0.80105 0.57769 0.14014 0.0
H440 H 0.62703 0.61084 0.95645 0.0
H441 H 0.69805 0.52394 0.9989 0.0
H442 H 0.79698 0.8307 0.11052 0.0
H443 H 0.75201 0.73315 0.16052 0.0
H444 H 0.81599 0.5757 0.95587 0.0
H445 H 0.74502 0.66766 0.92559 0.0
H446 H 0.77918 0.53226 0.91117 0.0
H447 H 0.70975 0.6227 0.88111 0.0
H448 H 0.86779 0.68209 0.96292 0.0
H449 H 0.88698 0.77193 0.04415 0.0
H450 H 0.93021 0.70143 0.94072 0.0
H451 H 0.94937 0.78962 0.02053 0.0
H452 H 0.77369 0.82307 0.91427 0.0
H453 H 0.81526 0.72636 0.8548 0.0
H454 H 0.88122 0.5312 0.03315 0.0
H455 H 0.96623 0.62404 0.05884 0.0
Li456 Li 0.92057 0.06563 0.26813 0.0
Li457 Li 0.96771 0.02406 0.29291 0.0
Li458 Li 0.96745 0.03187 0.23059 0.0
Li459 Li 0.91532 0.99665 0.25453 0.0
C460 C 0.99021 0.10604 0.2576 0.0
N461 N 1.01303 0.17464 0.23227 0.0
C462 C 0.02183 0.12779 0.27375 0.0
C463 C 0.97017 0.11917 0.22855 0.0
C464 C 0.03292 0.1624 0.26057 0.0
C465 C 0.98218 0.15392 0.21614 0.0
C466 C 0.90421 0.04133 0.33111 0.0
C467 C 0.86519 0.0462 0.37992 0.0
N468 N 0.88872 0.07592 0.39422 0.0
C469 C 0.92799 0.07197 0.34625 0.0
C470 C 0.87252 0.02836 0.34801 0.0
C471 C 0.91968 0.08905 0.37818 0.0
C472 C 0.85166 0.10277 0.2777 0.0
N473 N 0.89058 0.10978 0.27999 0.0
C474 C 0.88273 0.17334 0.30527 0.0
C475 C 0.90645 0.14411 0.29394 0.0
C476 C 0.84236 0.16714 0.30213 0.0
C477 C 0.82701 0.13114 0.28833 0.0
H478 H 0.83976 0.07475 0.26815 0.0
H479 H 0.93751 0.14872 0.29684 0.0
C480 C 0.03881 0.02778 0.33344 0.0
N481 N 1.0008 0.01677 0.33306 0.0
C482 C 0.06358 0.02407 0.36287 0.0
C483 C 1.00954 0.9978 0.39085 0.0
C484 C 0.98607 1.00134 0.36074 0.0
C485 C 0.04896 1.00933 0.39238 0.0
H486 H 0.04982 0.03961 0.31089 0.0
H487 H 0.95589 0.99225 0.35972 0.0
C488 C 0.88592 0.02043 0.196 0.0
N489 N 0.83498 0.98252 0.14617 0.0
C490 C 0.89848 0.9908 0.17425 0.0
C491 C 0.84753 0.03098 0.19224 0.0
C492 C 0.87227 0.97193 0.14927 0.0
C493 C 0.8222 1.01142 0.16692 0.0
C494 C 0.9789 0.95022 0.26842 0.0
C495 C 1.0099 0.92964 0.25729 0.0
C496 C 0.95689 0.93624 0.29397 0.0
C497 C 0.01835 0.89525 0.27189 0.0
C498 C 0.96627 0.90176 0.30794 0.0
N499 N 0.99655 0.88214 0.29671 0.0
C500 C 0.03539 0.01924 0.19431 0.0
C501 C 0.98328 0.04302 0.16078 0.0
C502 C 0.05765 0.01672 0.16554 0.0
N503 N 0.99895 0.03231 0.19148 0.0
C504 C 1.00425 0.04056 0.13137 0.0
C505 C 0.04223 0.02755 0.13337 0.0
H506 H 0.04716 1.01056 0.21894 0.0
H507 H 0.95416 0.05296 0.15896 0.0
C508 C 0.84134 0.95841 0.25129 0.0
N509 N 0.87868 0.95418 0.24392 0.0
C510 C 0.81345 0.9289 0.24196 0.0
C511 C 0.86313 0.89094 0.21831 0.0
C512 C 0.88989 0.92133 0.22765 0.0
C513 C 0.82414 0.8945 0.22512 0.0
H514 H 0.83309 0.98509 0.26378 0.0
H515 H 0.91956 0.91886 0.2214 0.0
O516 O 0.97912 0.07219 0.27044 0.0
O517 O 0.91122 0.02451 0.29955 0.0
O518 O 0.91093 0.03842 0.22128 0.0
O519 O 0.9706 0.98414 0.25458 0.0
H520 H 0.03759 0.11801 0.2963 0.0
H521 H 0.94554 0.10293 0.21573 0.0
H522 H 0.05733 0.17954 0.27283 0.0
H523 H 0.96693 0.16444 0.19371 0.0
H524 H 0.84075 0.03646 0.3933 0.0
H525 H 0.95254 0.08254 0.33348 0.0
H526 H 0.85374 1.0048 0.33651 0.0
H527 H 0.93781 0.11279 0.39018 0.0
H528 H 0.89574 0.2007 0.31566 0.0
H529 H 0.79608 0.12496 0.28582 0.0
H530 H 0.09383 0.03262 0.36237 0.0
H531 H 0.99654 0.98688 0.41291 0.0
H532 H 0.92799 0.98195 0.1771 0.0
H533 H 0.83736 0.05397 0.20867 0.0
H534 H 0.88151 0.94872 0.13247 0.0
H535 H 0.79237 0.01919 0.1638 0.0
H536 H 0.02726 0.94015 0.23758 0.0
H537 H 0.93282 0.9518 0.30295 0.0
H538 H 0.04226 0.879 0.26352 0.0
H539 H 0.9495 0.8906 0.32774 0.0
H540 H 0.08682 1.00698 0.16867 0.0
H541 H 0.99053 0.04853 0.1072 0.0
H542 H 0.7837 0.93338 0.24725 0.0
H543 H 0.87304 0.86492 0.20589 0.0
Li544 Li 0.28989 0.20569 0.54076 0.0
Li545 Li 0.26084 0.15415 0.50269 0.0
Li546 Li 0.33043 0.15784 0.51555 0.0
Li547 Li 0.29722 0.20518 0.47831 0.0
C548 C 0.30653 0.14181 0.57875 0.0
N549 N 0.34187 0.12441 0.64129 0.0
C550 C 0.29299 0.11029 0.59535 0.0
C551 C 0.33814 0.16444 0.59387 0.0
C552 C 0.31122 0.10199 0.62698 0.0
C553 C 0.35558 0.15518 0.62552 0.0
C554 C 0.21527 0.21786 0.51626 0.0
C555 C 0.16015 0.2574 0.5194 0.0
N556 N 0.14697 0.23608 0.54447 0.0
C557 C 0.2012 0.19634 0.54207 0.0
C558 C 0.19465 0.24866 0.50483 0.0
C559 C 0.16662 0.206 0.556 0.0
C560 C 0.29345 0.27622 0.58164 0.0
N561 N 0.28294 0.23835 0.58112 0.0
C562 C 0.26311 0.24636 0.63864 0.0
C563 C 0.26743 0.22334 0.60865 0.0
C564 C 0.27388 0.28566 0.64025 0.0
C565 C 0.28895 0.30055 0.61097 0.0
H566 H 0.3053 0.28752 0.55922 0.0
H567 H 0.2586 0.19332 0.60753 0.0
C568 C 0.22269 0.08125 0.5013 0.0
N569 N 0.21782 0.118 0.49314 0.0
C570 C 0.19306 0.05323 0.49304 0.0
C571 C 0.15366 0.10158 0.46878 0.0
C572 C 0.18418 0.12854 0.47714 0.0
C573 C 0.15791 0.06316 0.47641 0.0
H574 H 0.24997 0.07358 0.51357 0.0
H575 H 0.1812 0.15779 0.47038 0.0
C576 C 0.37288 0.22582 0.5051 0.0
N577 N 0.44247 0.24634 0.47961 0.0
C578 C 0.38511 0.20582 0.47583 0.0
C579 C 0.39604 0.25622 0.52141 0.0
C580 C 0.42038 0.21666 0.46333 0.0
C581 C 0.43114 0.26616 0.50814 0.0
C582 C 0.2831 0.12481 0.44384 0.0
C583 C 0.29278 0.08649 0.43975 0.0
C584 C 0.25319 0.13818 0.4225 0.0
C585 C 0.27208 0.06203 0.41454 0.0
C586 C 0.23318 0.11282 0.39759 0.0
N587 N 0.24294 0.07558 0.39418 0.0
C588 C 0.36333 0.08793 0.52487 0.0
C589 C 0.40961 0.13907 0.53898 0.0
C590 C 0.39013 0.06132 0.53483 0.0
N591 N 0.37346 0.12593 0.5265 0.0
C592 C 0.43746 0.11327 0.54951 0.0
C593 C 0.42792 0.0737 0.54712 0.0
H594 H 0.33399 0.07833 0.51647 0.0
H595 H 0.41674 0.16952 0.54132 0.0
C596 C 0.28544 0.27241 0.44092 0.0
N597 N 0.29825 0.2361 0.4388 0.0
C598 C 0.28335 0.29406 0.41174 0.0
C599 C 0.30719 0.24042 0.37869 0.0
C600 C 0.30919 0.22003 0.40846 0.0
C601 C 0.29435 0.27818 0.37991 0.0
H602 H 0.27656 0.28451 0.46526 0.0
H603 H 0.31888 0.19102 0.40719 0.0
O604 O 0.28945 0.14968 0.54739 0.0
O605 O 0.24929 0.20928 0.50244 0.0
O606 O 0.33858 0.21581 0.51807 0.0
O607 O 0.30218 0.14899 0.46907 0.0
H608 H 0.2687 0.09237 0.58382 0.0
H609 H 0.3492 0.18879 0.58127 0.0
H610 H 0.30105 0.07767 0.64013 0.0
H611 H 0.38007 0.17241 0.63752 0.0
H612 H 0.14387 0.28116 0.5108 0.0
H613 H 0.21677 0.17241 0.55126 0.0
H614 H 0.20522 0.26563 0.48492 0.0
H615 H 0.1554 0.1896 0.57599 0.0
H616 H 0.25201 0.23315 0.66052 0.0
H617 H 0.29698 0.3307 0.61052 0.0
H618 H 0.19805 0.02394 0.4989 0.0
H619 H 0.12703 0.11084 0.45645 0.0
H620 H 0.36779 0.18208 0.46292 0.0
H621 H 0.38698 0.27192 0.54415 0.0
H622 H 0.43021 0.20143 0.44072 0.0
H623 H 0.44938 0.28962 0.52053 0.0
H624 H 0.31598 0.0757 0.45587 0.0
H625 H 0.24502 0.16766 0.4256 0.0
H626 H 0.27917 0.03226 0.41117 0.0
H627 H 0.20975 0.1227 0.38111 0.0
H628 H 0.38122 0.0312 0.53315 0.0
H629 H 0.46623 0.12404 0.55884 0.0
H630 H 0.27369 0.32307 0.41427 0.0
H631 H 0.31526 0.22636 0.3548 0.0
Li632 Li 0.46771 0.52406 0.79291 0.0
Li633 Li 0.42057 0.56563 0.76812 0.0
Li634 Li 0.41532 0.49665 0.75453 0.0
Li635 Li 0.46746 0.53187 0.73059 0.0
C636 C 0.40421 0.54133 0.83111 0.0
N637 N 0.38871 0.57593 0.89421 0.0
C638 C 0.42799 0.57197 0.84625 0.0
C639 C 0.37252 0.52836 0.848 0.0
C640 C 0.41968 0.58905 0.87818 0.0
C641 C 0.36519 0.5462 0.87992 0.0
C642 C 0.49021 0.60604 0.7576 0.0
C643 C 0.48218 0.65392 0.71614 0.0
N644 N 0.51304 0.67463 0.73227 0.0
C645 C 0.52184 0.62778 0.77374 0.0
C646 C 0.47017 0.61918 0.72855 0.0
C647 C 0.53293 0.66239 0.76056 0.0
C648 C 0.53881 0.52778 0.83344 0.0
N649 N 0.5008 0.51677 0.83306 0.0
C650 C 0.50954 0.4978 0.89085 0.0
C651 C 0.48608 0.50134 0.86074 0.0
C652 C 0.54896 0.50933 0.89238 0.0
C653 C 0.56358 0.52407 0.86286 0.0
H654 H 0.54982 0.53961 0.81089 0.0
H655 H 0.45589 0.49225 0.85972 0.0
C656 C 0.35166 0.60277 0.77769 0.0
N657 N 0.39058 0.60978 0.77999 0.0
C658 C 0.32701 0.63114 0.78833 0.0
C659 C 0.38273 0.67334 0.80527 0.0
C660 C 0.40646 0.64411 0.79394 0.0
C661 C 0.34237 0.66715 0.80213 0.0
H662 H 0.33976 0.57476 0.76815 0.0
H663 H 0.43751 0.64872 0.79684 0.0
C664 C 0.4789 0.45022 0.76842 0.0
N665 N 0.49655 0.38214 0.79671 0.0
C666 C 0.5099 0.42964 0.75729 0.0
C667 C 0.45689 0.43624 0.79397 0.0
C668 C 0.51835 0.39525 0.7719 0.0
C669 C 0.46627 0.40176 0.80795 0.0
C670 C 0.38592 0.52043 0.696 0.0
C671 C 0.39849 0.4908 0.67424 0.0
C672 C 0.34754 0.53098 0.69223 0.0
C673 C 0.37227 0.47193 0.64926 0.0
C674 C 0.32221 0.51141 0.66692 0.0
N675 N 0.33499 0.48252 0.64617 0.0
C676 C 0.34134 0.45841 0.75129 0.0
C677 C 0.38989 0.42133 0.72765 0.0
C678 C 0.31345 0.4289 0.74196 0.0
N679 N 0.37868 0.45418 0.74392 0.0
C680 C 0.36314 0.39094 0.71831 0.0
C681 C 0.32414 0.3945 0.72512 0.0
H682 H 0.33309 0.48509 0.76378 0.0
H683 H 0.41956 0.41886 0.7214 0.0
C684 C 0.5354 0.51924 0.69431 0.0
N685 N 0.49895 0.53231 0.69148 0.0
C686 C 0.55766 0.51672 0.66554 0.0
C687 C 0.50425 0.54056 0.63137 0.0
C688 C 0.48328 0.54302 0.66078 0.0
C689 C 0.54223 0.52755 0.63337 0.0
H690 H 0.54716 0.51056 0.71894 0.0
H691 H 0.45416 0.55296 0.65896 0.0
O692 O 0.41123 0.52451 0.79955 0.0
O693 O 0.47912 0.57219 0.77044 0.0
O694 O 0.47061 0.48414 0.75458 0.0
O695 O 0.41094 0.53842 0.72128 0.0
H696 H 0.45254 0.58254 0.83348 0.0
H697 H 0.35374 0.5048 0.8365 0.0
H698 H 0.43781 0.61279 0.89018 0.0
H699 H 0.34075 0.53646 0.8933 0.0
H700 H 0.46693 0.66444 0.69371 0.0
H701 H 0.53761 0.61801 0.79629 0.0
H702 H 0.44554 0.60294 0.71574 0.0
H703 H 0.55734 0.67953 0.77282 0.0
H704 H 0.49654 0.48688 0.91291 0.0
H705 H 0.59383 0.53262 0.86237 0.0
H706 H 0.29608 0.62496 0.78582 0.0
H707 H 0.39574 0.7007 0.81566 0.0
H708 H 0.52726 0.44015 0.73758 0.0
H709 H 0.43282 0.4518 0.80295 0.0
H710 H 0.54226 0.379 0.76352 0.0
H711 H 0.44949 0.39061 0.82774 0.0
H712 H 0.42799 0.48195 0.6771 0.0
H713 H 0.33736 0.55397 0.70866 0.0
H714 H 0.38152 0.44872 0.63247 0.0
H715 H 0.29238 0.51918 0.66379 0.0
H716 H 0.28371 0.43338 0.74725 0.0
H717 H 0.37305 0.36492 0.70589 0.0
H718 H 0.58682 0.50698 0.66866 0.0
H719 H 0.49053 0.54854 0.6072 0.0
Li720 Li 0.81618 0.4116 0.51203 0.0
Li721 Li 0.79826 0.35599 0.54516 0.0
Li722 Li 0.78495 0.35486 0.48294 0.0
Li723 Li 0.74738 0.39836 0.52283 0.0
C724 C 0.85726 0.33314 0.49322 0.0
N725 N 0.89809 0.27856 0.45839 0.0
C726 C 0.86216 0.2973 0.50638 0.0
C727 C 0.87347 0.34133 0.4625 0.0
C728 C 0.88286 0.27009 0.48838 0.0
C729 C 0.89387 0.31331 0.44521 0.0
C730 C 0.80227 0.42926 0.5875 0.0
C731 C 0.78646 0.45393 0.64391 0.0
N732 N 0.82388 0.46659 0.6512 0.0
C733 C 0.84052 0.44273 0.59551 0.0
C734 C 0.77495 0.43509 0.61184 0.0
C735 C 0.85089 0.46142 0.62787 0.0
C736 C 0.84262 0.4898 0.5156 0.0
N737 N 0.85306 0.45298 0.50991 0.0
C738 C 0.91654 0.47421 0.49793 0.0
C739 C 0.88938 0.44474 0.50192 0.0
C740 C 0.90627 0.51257 0.50232 0.0
C741 C 0.86894 0.52026 0.51188 0.0
H742 H 0.81356 0.49544 0.52227 0.0
H743 H 0.89715 0.41526 0.4983 0.0
C744 C 0.79695 0.29145 0.58556 0.0
N745 N 0.81384 0.32674 0.5828 0.0
C746 C 0.80746 0.27029 0.61363 0.0
C747 C 0.85391 0.3213 0.63457 0.0
C748 C 0.84249 0.34144 0.6061 0.0
C749 C 0.83595 0.28552 0.63875 0.0
H750 H 0.7753 0.27967 0.566 0.0
H751 H 0.85661 0.36874 0.60256 0.0
C752 C 0.77671 0.44061 0.45998 0.0
N753 N 0.7921 0.50538 0.4254 0.0
C754 C 0.75278 0.4717 0.46245 0.0
C755 C 0.80812 0.44225 0.43944 0.0
C756 C 0.76111 0.50423 0.44487 0.0
C757 C 0.81554 0.47531 0.42233 0.0
C758 C 0.71995 0.32571 0.53749 0.0
C759 C 0.69272 0.29793 0.52255 0.0
C760 C 0.71804 0.33914 0.57192 0.0
C761 C 0.66391 0.28403 0.54238 0.0
C762 C 0.68883 0.32452 0.5909 0.0
N763 N 0.66257 0.29751 0.57585 0.0
C764 C 0.78869 0.28255 0.44305 0.0
C765 C 0.78626 0.33729 0.41048 0.0
C766 C 0.79334 0.25883 0.41318 0.0
N767 N 0.78532 0.32107 0.4412 0.0
C768 C 0.79066 0.31475 0.38013 0.0
C769 C 0.79404 0.27489 0.38108 0.0
H770 H 0.78823 0.27025 0.46781 0.0
H771 H 0.78375 0.36784 0.40949 0.0
C772 C 0.71199 0.46307 0.54649 0.0
N773 N 0.70271 0.42574 0.53626 0.0
C774 C 0.68402 0.48727 0.55821 0.0
C775 C 0.63699 0.4342 0.54992 0.0
C776 C 0.66604 0.41085 0.538 0.0
C777 C 0.6459 0.47306 0.55984 0.0
H778 H 0.74134 0.47419 0.54523 0.0
H779 H 0.65916 0.38106 0.52995 0.0
O780 O 0.83646 0.35992 0.51018 0.0
O781 O 0.7914 0.41152 0.55567 0.0
O782 O 0.76936 0.40876 0.4775 0.0
O783 O 0.748 0.33991 0.51823 0.0
H784 H 0.84988 0.2904 0.53008 0.0
H785 H 0.86986 0.36882 0.45182 0.0
H786 H 0.88669 0.24217 0.49818 0.0
H787 H 0.90624 0.31916 0.42126 0.0
H788 H 0.76561 0.45859 0.66297 0.0
H789 H 0.86214 0.43837 0.57712 0.0
H790 H 0.7451 0.42536 0.60606 0.0
H791 H 0.88044 0.47179 0.63444 0.0
H792 H 0.94527 0.46703 0.49126 0.0
H793 H 0.85984 0.54941 0.5154 0.0
H794 H 0.79325 0.2425 0.61564 0.0
H795 H 0.87636 0.33367 0.65323 0.0
H796 H 0.72794 0.47071 0.47766 0.0
H797 H 0.82703 0.41855 0.43729 0.0
H798 H 0.74291 0.52856 0.4467 0.0
H799 H 0.84003 0.47712 0.40671 0.0
H800 H 0.6938 0.2873 0.49588 0.0
H801 H 0.73901 0.36043 0.58388 0.0
H802 H 0.6426 0.26255 0.53115 0.0
H803 H 0.68703 0.33465 0.61759 0.0
H804 H 0.7952 0.22821 0.41501 0.0
H805 H 0.79092 0.32836 0.35594 0.0
H806 H 0.69193 0.51717 0.56527 0.0
H807 H 0.60771 0.42242 0.55022 0.0
Li808 Li 0.66056 0.97782 0.76772 0.0
Li809 Li 0.61659 0.02246 0.79169 0.0
Li810 Li 0.61434 0.01401 0.72802 0.0
Li811 Li 0.66871 0.04756 0.76154 0.0
C812 C 0.58931 0.94085 0.74436 0.0
N813 N 0.56255 0.87331 0.70812 0.0
C814 C 0.55614 0.92135 0.75364 0.0
C815 C 0.60887 0.92602 0.71658 0.0
C816 C 0.54308 0.88723 0.73502 0.0
C817 C 0.59487 0.89184 0.69861 0.0
C818 C 0.67584 0.02132 0.83853 0.0
C819 C 0.68876 0.05714 0.89349 0.0
N820 N 0.68048 0.02495 0.90982 0.0
C821 C 0.66781 0.98851 0.85583 0.0
C822 C 0.68668 0.05586 0.85744 0.0
C823 C 0.67018 0.99097 0.8919 0.0
C824 C 0.72781 0.94236 0.78526 0.0
N825 N 0.68931 0.93388 0.77934 0.0
C826 C 0.69789 0.8704 0.79789 0.0
C827 C 0.67385 0.89891 0.78594 0.0
C828 C 0.73795 0.87824 0.8031 0.0
C829 C 0.7527 0.91489 0.79689 0.0
H830 H 0.73915 0.97085 0.78137 0.0
H831 H 0.64294 0.89319 0.78235 0.0
C832 C 0.57592 0.06191 0.84404 0.0
N833 N 0.58526 0.02743 0.82956 0.0
C834 C 0.553 0.06364 0.87208 0.0
C835 C 0.54951 0.99436 0.86959 0.0
C836 C 0.57249 0.99398 0.84162 0.0
C837 C 0.53961 0.0295 0.88513 0.0
H838 H 0.5861 0.08807 0.83397 0.0
H839 H 0.58047 0.96697 0.82962 0.0
C840 C 0.69673 0.01917 0.70402 0.0
N841 N 0.75086 0.05087 0.66423 0.0
C842 C 0.68658 0.04805 0.68237 0.0
C843 C 0.73432 1.00619 0.70522 0.0
C844 C 0.71438 0.06377 0.6625 0.0
C845 C 0.76129 0.02264 0.68495 0.0
C846 C 0.61087 0.10052 0.76013 0.0
C847 C 0.5914 0.11871 0.73355 0.0
C848 C 0.62822 0.12245 0.78882 0.0
C849 C 0.58933 0.15857 0.73629 0.0
C850 C 0.62553 0.16224 0.7906 0.0
N851 N 0.60628 0.17933 0.76452 0.0
C852 C 0.54469 0.02753 0.68811 0.0
C853 C 0.59473 1.0042 0.65532 0.0
C854 C 0.52054 0.03049 0.65799 0.0
N855 N 0.58098 0.01447 0.68626 0.0
C856 C 0.57177 1.00695 0.62467 0.0
C857 C 0.53386 0.01981 0.62562 0.0
H858 H 0.53452 0.03583 0.71305 0.0
H859 H 0.62368 0.99407 0.65441 0.0
C860 C 0.74477 0.07974 0.77293 0.0
N861 N 0.70879 0.08659 0.75919 0.0
C862 C 0.77614 0.10486 0.76849 0.0
C863 C 0.73246 0.14445 0.7372 0.0
C864 C 0.70232 0.11813 0.7414 0.0
C865 C 0.77031 0.13769 0.75008 0.0
H866 H 0.74934 0.05395 0.78627 0.0
H867 H 0.67403 0.1224 0.72935 0.0
O868 O 0.60225 0.9743 0.76245 0.0
O869 O 0.67304 0.01965 0.80324 0.0
O870 O 0.67019 1.00426 0.72441 0.0
O871 O 0.61358 0.06157 0.7576 0.0
H872 H 0.54062 0.93248 0.77503 0.0
H873 H 0.63463 0.9405 0.70897 0.0
H874 H 0.51745 0.87183 0.74195 0.0
H875 H 0.60974 0.88003 0.6771 0.0
H876 H 0.69699 0.0837 0.90848 0.0
H877 H 0.65931 0.96156 0.84156 0.0
H878 H 0.69356 0.08137 0.84442 0.0
H879 H 0.66373 0.96588 0.90564 0.0
H880 H 0.6855 0.84238 0.8022 0.0
H881 H 0.7834 0.92213 0.80077 0.0
H882 H 0.54591 0.09138 0.88332 0.0
H883 H 0.53969 0.96748 0.87903 0.0
H884 H 0.65776 0.05882 0.6815 0.0
H885 H 0.74262 0.98372 0.72164 0.0
H886 H 0.70702 0.08639 0.64589 0.0
H887 H 0.79054 1.01299 0.68573 0.0
H888 H 0.57821 0.10227 0.71094 0.0
H889 H 0.64401 0.10891 0.80928 0.0
H890 H 0.57433 0.17302 0.71592 0.0
H891 H 0.63889 0.17954 0.81265 0.0
H892 H 0.49148 0.04009 0.66011 0.0
H893 H 0.58363 0.99885 0.60037 0.0
H894 H 0.80471 0.0979 0.77845 0.0
H895 H 0.72602 0.1696 0.72346 0.0
Li896 Li 0.07278 0.26754 0.86593 0.0
Li897 Li 0.03427 0.29035 0.91285 0.0
Li898 Li 0.05246 0.22468 0.90636 0.0
Li899 Li 1.0058 0.24523 0.8645 0.0
C900 C 0.11773 0.2564 0.93314 0.0
N901 N 0.1783 0.22304 0.96807 0.0
C902 C 0.12269 0.26106 0.96914 0.0
C903 C 0.14363 0.23489 0.91488 0.0
C904 C 0.15348 0.24392 0.98634 0.0
C905 C 0.17407 0.21825 0.93301 0.0
C906 C 0.03832 0.32691 0.84299 0.0
C907 C 0.04207 0.35346 0.78764 0.0
N908 N 0.06691 0.38184 0.80251 0.0
C909 C 0.06375 0.35643 0.85776 0.0
C910 C 0.02726 0.32544 0.80768 0.0
C911 C 0.07793 0.38389 0.83685 0.0
C912 C 0.11277 0.27335 0.80452 0.0
N913 N 0.11358 0.28369 0.83888 0.0
C914 C 0.17268 0.32054 0.83648 0.0
C915 C 0.1427 0.3068 0.85502 0.0
C916 C 0.17269 0.31044 0.80102 0.0
C917 C 0.14223 0.28653 0.78492 0.0
H918 H 0.08907 0.25515 0.79233 0.0
H919 H 0.14241 0.3149 0.8823 0.0
C920 C 0.02759 0.32279 0.97913 0.0
N921 N 0.02398 0.33057 0.94535 0.0
C922 C 0.01928 0.3504 1.00471 0.0
C923 C 1.00291 0.39329 0.96017 0.0
C924 C 1.01154 0.36478 0.93541 0.0
C925 C 1.00688 0.38613 0.99531 0.0
H926 H 0.03647 0.29489 0.98611 0.0
H927 H 1.00783 0.36977 0.90829 0.0
C928 C 0.03861 0.17763 0.8462 0.0
N929 N 1.01227 0.1032 0.82699 0.0
C930 C 1.00924 0.16044 0.8635 0.0
C931 C 0.05451 0.15697 0.81912 0.0
C932 C 0.99634 0.12279 0.8534 0.0
C933 C 0.04083 0.11937 0.8098 0.0
C934 C 0.96588 0.25312 0.92558 0.0
C935 C 0.9478 0.23232 0.94982 0.0
C936 C 0.94792 0.28461 0.91222 0.0
C937 C 0.91188 0.24323 0.96018 0.0
C938 C 0.91203 0.29462 0.92328 0.0
N939 N 0.8949 0.27389 0.94681 0.0
C940 C 0.05274 0.18312 0.96526 0.0
C941 C 0.08765 0.1545 0.92083 0.0
C942 C 0.06064 0.15305 0.98615 0.0
N943 N 0.066 0.18311 0.93323 0.0
C944 C 0.09612 0.12379 0.9408 0.0
C945 C 0.08233 0.12276 0.97377 0.0
H946 H 0.0359 0.20651 0.9745 0.0
H947 H 0.0982 0.15546 0.8954 0.0
C948 C 0.9666 0.22675 0.80014 0.0
N949 N 0.96103 0.22916 0.8344 0.0
C950 C 0.93608 0.21543 0.77587 0.0
C951 C 0.89463 0.20827 0.8225 0.0
C952 C 0.92619 0.21896 0.84588 0.0
C953 C 0.89912 0.20686 0.78686 0.0
H954 H 0.99495 0.23347 0.7917 0.0
H955 H 0.9225 0.21898 0.87311 0.0
O956 O 0.08717 0.27202 0.91585 0.0
O957 O 0.02502 0.29916 0.8629 0.0
O958 O 0.05167 0.21459 0.85527 0.0
O959 O 1.00145 0.24317 0.91585 0.0
H960 H 0.10291 0.27756 0.98368 0.0
H961 H 0.1399 0.23056 0.88703 0.0
H962 H 0.1576 0.24717 0.01421 0.0
H963 H 0.19419 0.20134 0.91923 0.0
H964 H 0.03386 0.35261 0.76025 0.0
H965 H 0.07304 0.35767 0.88498 0.0
H966 H 1.00757 0.30286 0.79584 0.0
H967 H 0.09787 0.40671 0.84788 0.0
H968 H 0.19562 0.33897 0.84976 0.0
H969 H 0.14111 0.27809 0.75758 0.0
H970 H 0.02241 0.34384 0.03157 0.0
H971 H 0.99315 0.42043 0.95186 0.0
H972 H 0.99647 0.17588 0.88448 0.0
H973 H 0.07719 0.16992 0.80542 0.0
H974 H 0.97365 0.10916 0.86656 0.0
H975 H 0.05289 0.10305 0.78888 0.0
H976 H 0.96139 0.20799 0.96051 0.0
H977 H 0.96135 0.30108 0.89343 0.0
H978 H 0.89753 0.22734 0.97889 0.0
H979 H 0.89779 0.31886 0.91313 0.0
H980 H 0.04959 0.15345 1.01149 0.0
H981 H 0.11312 0.10099 0.93052 0.0
H982 H 0.94148 0.2135 0.74877 0.0
H983 H 0.86687 0.20198 0.83238 0.0
Li984 Li 0.57278 0.76754 0.36593 0.0
Li985 Li 0.53427 0.79035 0.41285 0.0
Li986 Li 0.55246 0.72468 0.40636 0.0
Li987 Li 0.5058 0.74523 0.3645 0.0
C988 C 0.61773 0.75641 0.43314 0.0
N989 N 0.6783 0.72304 0.46807 0.0
C990 C 0.62269 0.76106 0.46914 0.0
C991 C 0.64363 0.73489 0.41487 0.0
C992 C 0.65348 0.74392 0.48634 0.0
C993 C 0.67407 0.71825 0.43301 0.0
C994 C 0.53832 0.82691 0.34299 0.0
C995 C 0.54207 0.85347 0.28764 0.0
N996 N 0.56691 0.88184 0.30251 0.0
C997 C 0.56375 0.85643 0.35776 0.0
C998 C 0.52726 0.82544 0.30768 0.0
C999 C 0.57793 0.8839 0.33685 0.0
C1000 C 0.61277 0.77335 0.30452 0.0
N1001 N 0.61358 0.78369 0.33888 0.0
C1002 C 0.67268 0.82055 0.33648 0.0
C1003 C 0.6427 0.8068 0.35502 0.0
C1004 C 0.67269 0.81044 0.30102 0.0
C1005 C 0.64223 0.78653 0.28492 0.0
H1006 H 0.58907 0.75515 0.29233 0.0
H1007 H 0.64241 0.8149 0.3823 0.0
C1008 C 0.52759 0.82279 0.47913 0.0
N1009 N 0.52398 0.83057 0.44535 0.0
C1010 C 0.51928 0.8504 0.50471 0.0
C1011 C 0.50291 0.89329 0.46017 0.0
C1012 C 0.51154 0.86478 0.43541 0.0
C1013 C 0.50688 0.88613 0.49531 0.0
H1014 H 0.53647 0.79489 0.48611 0.0
H1015 H 0.50783 0.86977 0.40829 0.0
C1016 C 0.53861 0.67763 0.3462 0.0
N1017 N 0.51227 0.60321 0.32699 0.0
C1018 C 0.50924 0.66044 0.3635 0.0
C1019 C 0.55451 0.65697 0.31912 0.0
C1020 C 0.49634 0.6228 0.3534 0.0
C1021 C 0.54083 0.61937 0.3098 0.0
C1022 C 0.46588 0.75312 0.42558 0.0
C1023 C 0.4478 0.73232 0.44982 0.0
C1024 C 0.44792 0.78461 0.41222 0.0
C1025 C 0.41188 0.74323 0.46018 0.0
C1026 C 0.41203 0.79462 0.42328 0.0
N1027 N 0.3949 0.77389 0.44681 0.0
C1028 C 0.55274 0.68312 0.46526 0.0
C1029 C 0.58765 0.6545 0.42083 0.0
C1030 C 0.56064 0.65305 0.48615 0.0
N1031 N 0.566 0.68312 0.43323 0.0
C1032 C 0.59612 0.62379 0.4408 0.0
C1033 C 0.58233 0.62276 0.47377 0.0
H1034 H 0.5359 0.70651 0.4745 0.0
H1035 H 0.5982 0.65546 0.3954 0.0
C1036 C 0.4666 0.72675 0.30014 0.0
N1037 N 0.46103 0.72916 0.3344 0.0
C1038 C 0.43608 0.71543 0.27587 0.0
C1039 C 0.39463 0.70827 0.3225 0.0
C1040 C 0.42619 0.71896 0.34588 0.0
C1041 C 0.39912 0.70687 0.28686 0.0
H1042 H 0.49495 0.73347 0.2917 0.0
H1043 H 0.4225 0.71899 0.37311 0.0
O1044 O 0.58716 0.77202 0.41585 0.0
O1045 O 0.52502 0.79916 0.3629 0.0
O1046 O 0.55167 0.71459 0.35527 0.0
O1047 O 0.50145 0.74317 0.41585 0.0
H1048 H 0.60291 0.77756 0.48368 0.0
H1049 H 0.6399 0.73057 0.38702 0.0
H1050 H 0.65761 0.74718 0.51421 0.0
H1051 H 0.69419 0.70134 0.41923 0.0
H1052 H 0.53386 0.85261 0.26025 0.0
H1053 H 0.57303 0.85767 0.38498 0.0
H1054 H 0.50757 0.80286 0.29584 0.0
H1055 H 0.59787 0.90671 0.34788 0.0
H1056 H 0.69561 0.83897 0.34975 0.0
H1057 H 0.64111 0.77809 0.25758 0.0
H1058 H 0.52241 0.84384 0.53157 0.0
H1059 H 0.49315 0.92043 0.45186 0.0
H1060 H 0.49646 0.67588 0.38448 0.0
H1061 H 0.57718 0.66992 0.30542 0.0
H1062 H 0.47365 0.60916 0.36656 0.0
H1063 H 0.55289 0.60305 0.28888 0.0
H1064 H 0.46139 0.70799 0.46051 0.0
H1065 H 0.46135 0.80108 0.39343 0.0
H1066 H 0.39753 0.72734 0.47889 0.0
H1067 H 0.39779 0.81886 0.41313 0.0
H1068 H 0.54959 0.65345 0.51149 0.0
H1069 H 0.61312 0.60099 0.43052 0.0
H1070 H 0.44148 0.7135 0.24877 0.0
H1071 H 0.36687 0.70199 0.33238 0.0
Li1072 Li 0.0386 0.81112 0.61978 0.0
Li1073 Li 1.00252 0.78167 0.66425 0.0
Li1074 Li 0.06847 0.76536 0.65665 0.0
Li1075 Li 1.01502 0.74443 0.61403 0.0
C1076 C 0.04048 0.85147 0.68487 0.0
N1077 N 0.02121 0.92262 0.71205 0.0
C1078 C 1.00636 0.86778 0.67281 0.0
C1079 C 0.06472 0.87144 0.71081 0.0
C1080 C 0.99716 0.90374 0.68687 0.0
C1081 C 0.0545 0.90735 0.72419 0.0
C1082 C 0.95353 0.78082 0.59263 0.0
C1083 C 0.89743 0.73995 0.57354 0.0
N1084 N 0.89328 0.75885 0.54416 0.0
C1085 C 0.94835 0.80018 0.56247 0.0
C1086 C 0.92753 0.75081 0.59843 0.0
C1087 C 0.91785 0.78852 0.5382 0.0
C1088 C 0.04631 0.85096 0.55962 0.0
N1089 N 0.05185 0.85485 0.59466 0.0
C1090 C 0.08165 0.91738 0.59208 0.0
C1091 C 0.06978 0.88704 0.61098 0.0
C1092 C 0.07554 0.91445 0.55601 0.0
C1093 C 0.05769 0.88067 0.53967 0.0
H1094 H 0.03377 0.8244 0.54709 0.0
H1095 H 0.07593 0.88905 0.63857 0.0
C1096 C 0.98153 0.79162 0.73267 0.0
N1097 N 0.96731 0.78977 0.69908 0.0
C1098 C 0.95654 0.79466 0.75918 0.0
C1099 C 0.90298 0.79569 0.71604 0.0
C1100 C 0.92895 0.79217 0.69036 0.0
C1101 C 0.91676 0.79662 0.75094 0.0
H1102 H 1.01228 0.79011 0.7388 0.0
H1103 H 0.91848 0.7911 0.6635 0.0
C1104 C 0.10253 0.77722 0.59547 0.0
N1105 N 0.17366 0.801 0.57497 0.0
C1106 C 0.11595 0.76115 0.56499 0.0
C1107 C 0.12526 0.80542 0.61554 0.0
C1108 C 0.15201 0.77355 0.55507 0.0
C1109 C 0.16114 0.81705 0.60473 0.0
C1110 C 1.01055 0.71396 0.69001 0.0
C1111 C 0.03467 0.71269 0.72022 0.0
C1112 C 0.97244 0.69918 0.68905 0.0
C1113 C 0.02007 0.69728 0.74912 0.0
C1114 C 0.95889 0.68407 0.7185 0.0
N1115 N 0.98278 0.68347 0.74769 0.0
C1116 C 0.12788 0.77282 0.70863 0.0
C1117 C 0.13591 0.72266 0.66605 0.0
C1118 C 0.16183 0.76404 0.72705 0.0
N1119 N 0.11562 0.75211 0.6789 0.0
C1120 C 0.17019 0.7128 0.68372 0.0
C1121 C 0.18329 0.73351 0.71473 0.0
H1122 H 0.11081 0.79571 0.71834 0.0
H1123 H 0.12528 0.7067 0.64228 0.0
C1124 C 0.99387 0.70793 0.54787 0.0
N1125 N 0.99704 0.70298 0.58226 0.0
C1126 C 0.98237 0.67708 0.52432 0.0
C1127 C 0.97747 0.63674 0.57208 0.0
C1128 C 0.98892 0.6684 0.59468 0.0
C1129 C 0.97458 0.64072 0.53633 0.0
H1130 H 1.00073 0.73576 0.53875 0.0
H1131 H 0.99225 0.66514 0.62212 0.0
O1132 O 0.0501 0.81609 0.67177 0.0
O1133 O 0.98356 0.79153 0.6165 0.0
O1134 O 0.0671 0.76557 0.60525 0.0
O1135 O 0.02417 0.72953 0.66159 0.0
H1136 H 0.98711 0.85305 0.65281 0.0
H1137 H 0.09129 0.85949 0.72044 0.0
H1138 H 0.97088 0.91663 0.67776 0.0
H1139 H 0.07306 0.9231 0.74422 0.0
H1140 H 0.8774 0.71648 0.57757 0.0
H1141 H 0.96745 0.82414 0.55792 0.0
H1142 H 0.93087 0.73574 0.62171 0.0
H1143 H 0.91364 0.80315 0.51468 0.0
H1144 H 0.09584 0.94276 0.60555 0.0
H1145 H 0.05295 0.87697 0.51183 0.0
H1146 H 0.96817 0.79558 0.78582 0.0
H1147 H 0.87247 0.79724 0.70857 0.0
H1148 H 0.09861 0.73938 0.54913 0.0
H1149 H 0.1153 0.81834 0.63913 0.0
H1150 H 0.16276 0.76136 0.53152 0.0
H1151 H 0.179 0.83887 0.61998 0.0
H1152 H 0.06425 0.72373 0.72151 0.0
H1153 H 0.95338 0.6996 0.66592 0.0
H1154 H 0.03837 0.69637 0.77271 0.0
H1155 H 0.92938 0.67285 0.71816 0.0
H1156 H 0.17076 0.78078 0.75088 0.0
H1157 H 0.18603 0.68908 0.67351 0.0
H1158 H 0.98017 0.6815 0.49698 0.0
H1159 H 0.97246 0.60917 0.58245 0.0
Li1160 Li 0.53859 0.31112 0.11978 0.0
Li1161 Li 0.50252 0.28167 0.16425 0.0
Li1162 Li 0.56847 0.26536 0.15665 0.0
Li1163 Li 0.51501 0.24444 0.11403 0.0
C1164 C 0.54048 0.35147 0.18487 0.0
N1165 N 0.52122 0.42262 0.21205 0.0
C1166 C 0.50636 0.36778 0.17281 0.0
C1167 C 0.56472 0.37144 0.21081 0.0
C1168 C 0.49716 0.40374 0.18688 0.0
C1169 C 0.55451 0.40735 0.22419 0.0
C1170 C 0.45353 0.28083 0.09262 0.0
C1171 C 0.39743 0.23996 0.07354 0.0
N1172 N 0.39328 0.25885 0.04416 0.0
C1173 C 0.44835 0.30018 0.06247 0.0
C1174 C 0.42753 0.25082 0.09843 0.0
C1175 C 0.41785 0.28853 0.0382 0.0
C1176 C 0.54631 0.35096 0.05962 0.0
N1177 N 0.55186 0.35485 0.09466 0.0
C1178 C 0.58165 0.41738 0.09208 0.0
C1179 C 0.56978 0.38704 0.11098 0.0
C1180 C 0.57555 0.41445 0.05601 0.0
C1181 C 0.55769 0.38067 0.03967 0.0
H1182 H 0.53377 0.3244 0.04709 0.0
H1183 H 0.57593 0.38905 0.13857 0.0
C1184 C 0.48153 0.29163 0.23267 0.0
N1185 N 0.46731 0.28977 0.19908 0.0
C1186 C 0.45654 0.29466 0.25918 0.0
C1187 C 0.40298 0.2957 0.21604 0.0
C1188 C 0.42895 0.29218 0.19036 0.0
C1189 C 0.41676 0.29662 0.25094 0.0
H1190 H 0.51228 0.29011 0.2388 0.0
H1191 H 0.41848 0.2911 0.1635 0.0
C1192 C 0.60253 0.27722 0.09547 0.0
N1193 N 0.67366 0.301 0.07498 0.0
C1194 C 0.61595 0.26115 0.06499 0.0
C1195 C 0.62526 0.30542 0.11554 0.0
C1196 C 0.65201 0.27354 0.05507 0.0
C1197 C 0.66114 0.31704 0.10473 0.0
C1198 C 0.51054 0.21396 0.19001 0.0
C1199 C 0.53466 0.21269 0.22022 0.0
C1200 C 0.47243 0.19918 0.18904 0.0
C1201 C 0.52006 0.19727 0.24912 0.0
C1202 C 0.45888 0.18408 0.2185 0.0
N1203 N 0.48277 0.18347 0.24769 0.0
C1204 C 0.62787 0.27282 0.20864 0.0
C1205 C 0.63591 0.22266 0.16605 0.0
C1206 C 0.66182 0.26404 0.22706 0.0
N1207 N 0.61561 0.25211 0.1789 0.0
C1208 C 0.67018 0.2128 0.18372 0.0
C1209 C 0.68328 0.23351 0.21473 0.0
H1210 H 0.6108 0.2957 0.21834 0.0
H1211 H 0.62528 0.2067 0.14228 0.0
C1212 C 0.49386 0.20794 0.04787 0.0
N1213 N 0.49704 0.20298 0.08227 0.0
C1214 C 0.48236 0.17708 0.02432 0.0
C1215 C 0.47747 0.13675 0.07208 0.0
C1216 C 0.48891 0.1684 0.09468 0.0
C1217 C 0.47457 0.14072 0.03633 0.0
H1218 H 0.50073 0.23576 0.03875 0.0
H1219 H 0.49225 0.16514 0.12212 0.0
O1220 O 0.5501 0.31609 0.17177 0.0
O1221 O 0.48356 0.29153 0.1165 0.0
O1222 O 0.5671 0.26557 0.10525 0.0
O1223 O 0.52417 0.22953 0.16159 0.0
H1224 H 0.48711 0.35305 0.15282 0.0
H1225 H 0.59129 0.35949 0.22044 0.0
H1226 H 0.47088 0.41664 0.17776 0.0
H1227 H 0.57307 0.4231 0.24422 0.0
H1228 H 0.3774 0.21649 0.07757 0.0
H1229 H 0.46745 0.32414 0.05792 0.0
H1230 H 0.43086 0.23574 0.12171 0.0
H1231 H 0.41365 0.30316 0.01468 0.0
H1232 H 0.59584 0.44276 0.10555 0.0
H1233 H 0.55295 0.37697 1.01183 0.0
H1234 H 0.46817 0.29558 0.28582 0.0
H1235 H 0.37247 0.29725 0.20858 0.0
H1236 H 0.59861 0.23938 0.04914 0.0
H1237 H 0.6153 0.31834 0.13913 0.0
H1238 H 0.66276 0.26136 0.03152 0.0
H1239 H 0.679 0.33886 0.11998 0.0
H1240 H 0.56424 0.22373 0.22151 0.0
H1241 H 0.45337 0.1996 0.16591 0.0
H1242 H 0.53836 0.19637 0.27271 0.0
H1243 H 0.42937 0.17285 0.21816 0.0
H1244 H 0.67075 0.28077 0.25089 0.0
H1245 H 0.68603 0.18908 0.1735 0.0
H1246 H 0.48016 0.1815 0.99698 0.0
H1247 H 0.47246 0.10917 0.08245 0.0
loop_
_geom_bond_atom_site_label_1
_geom_bond_atom_site_label_2
_geom_bond_distance
_geom_bond_site_symmetry_2
_ccdc_geom_bond_type
H0 C5 0.958 . S
H1 C8 0.930 1_556 S
H2 C10 0.947 . S
H3 C4 1.016 . S
C4 H3 1.016 . S
C4 N11 1.298 . S
C5 H0 0.958 . S
C5 C6 1.397 . S
C5 C7 1.361 . S
C6 C5 1.397 . S
C6 C10 1.376 1_545 S
C7 C5 1.361 . S
C7 C8 1.393 . S
C7 N11 1.400 1_554 S
C8 H1 0.930 1_554 S
C8 C7 1.393 . S
C8 C9 1.399 . S
C9 C8 1.399 . S
C9 C10 1.379 1_545 S
C10 H2 0.947 . S
C10 C6 1.376 1_565 S
C10 C9 1.379 1_565 S
N11 C4 1.298 . S
N11 C7 1.400 1_556 S
H12 C17 0.930 . S
H13 C20 0.930 . S
H14 C22 0.930 . S
H15 C16 1.016 . S
C16 H15 1.016 . S
C16 N23 1.286 . S
C17 H12 0.930 . S
C17 C18 1.397 . S
C17 C19 1.361 . S
C18 C17 1.397 . S
C18 C22 1.390 . S
C19 C17 1.361 . S
C19 C20 1.393 . S
C19 N23 1.413 . S
C20 H13 0.930 . S
C20 C19 1.393 . S
C20 C21 1.399 . S
C21 C20 1.399 . S
C21 C22 1.381 . S
C22 H14 0.930 . S
C22 C18 1.390 . S
C22 C21 1.381 . S
N23 C16 1.286 . S
N23 C19 1.413 . S
H24 C29 0.945 . S
H25 C32 0.930 1_455 S
H26 C34 0.930 . S
H27 C28 1.016 1_454 S
C28 H27 1.016 1_656 S
C28 N35 1.286 . S
C29 H24 0.945 . S
C29 C30 1.397 . S
C29 C31 1.361 . S
C30 C29 1.397 . S
C30 C34 1.390 . S
C31 C29 1.361 . S
C31 C32 1.393 . S
C31 N35 1.413 1_554 S
C32 H25 0.930 1_655 S
C32 C31 1.393 . S
C32 C33 1.399 1_655 S
C33 C32 1.399 1_455 S
C33 C34 1.381 1_455 S
C34 H26 0.930 . S
C34 C30 1.390 . S
C34 C33 1.381 1_655 S
N35 C28 1.286 . S
N35 C31 1.413 1_556 S
H36 C41 0.930 . S
H37 C44 0.930 . S
H38 C46 0.930 . S
H39 C40 1.016 . S
C40 H39 1.016 . S
C40 N47 1.286 . S
C41 H36 0.930 . S
C41 C42 1.397 . S
C41 C43 1.361 . S
C42 C41 1.397 . S
C42 C46 1.390 . S
C43 C41 1.361 . S
C43 C44 1.393 . S
C43 N47 1.413 . S
C44 H37 0.930 . S
C44 C43 1.393 . S
C44 C45 1.399 . S
C45 C44 1.399 . S
C45 C46 1.381 . S
C46 H38 0.930 . S
C46 C42 1.390 . S
C46 C45 1.381 . S
N47 C40 1.286 . S
N47 C43 1.413 . S
H48 C53 0.930 . S
H49 C56 0.930 . S
H50 C58 0.930 . S
H51 C52 1.016 . S
C52 H51 1.016 . S
C52 N59 1.286 . S
C53 H48 0.930 . S
C53 C54 1.397 1_565 S
C53 C55 1.361 . S
C54 C53 1.397 1_545 S
C54 C58 1.390 . S
C55 C53 1.361 . S
C55 C56 1.393 . S
C55 N59 1.413 . S
C56 H49 0.930 . S
C56 C55 1.393 . S
C56 C57 1.399 1_565 S
C57 C56 1.399 1_545 S
C57 C58 1.381 . S
C58 H50 0.930 . S
C58 C54 1.390 . S
C58 C57 1.381 . S
N59 C52 1.286 . S
N59 C55 1.413 . S
H60 C65 0.930 . S
H61 C68 0.930 . S
H62 C70 0.930 . S
H63 C64 1.016 . S
C64 H63 1.016 . S
C64 N71 1.286 . S
C65 H60 0.930 . S
C65 C66 1.397 . S
C65 C67 1.361 . S
C66 C65 1.397 . S
C66 C70 1.390 . S
C67 C65 1.361 . S
C67 C68 1.393 . S
C67 N71 1.413 . S
C68 H61 0.930 . S
C68 C67 1.393 . S
C68 C69 1.399 . S
C69 C68 1.399 . S
C69 C70 1.381 . S
C70 H62 0.930 . S
C70 C66 1.390 . S
C70 C69 1.381 . S
N71 C64 1.286 . S
N71 C67 1.413 . S
H72 C77 0.930 . S
H73 C80 0.930 . S
H74 C82 0.930 . S
H75 C76 1.016 . S
C76 H75 1.016 . S
C76 N83 1.286 . S
C77 H72 0.930 . S
C77 C78 1.397 1_455 S
C77 C79 1.361 1_455 S
C78 C77 1.397 1_655 S
C78 C82 1.390 . S
C79 C77 1.361 1_655 S
C79 C80 1.393 . S
C79 N83 1.413 1_655 S
C80 H73 0.930 . S
C80 C79 1.393 . S
C80 C81 1.399 . S
C81 C80 1.399 . S
C81 C82 1.381 . S
C82 H74 0.930 . S
C82 C78 1.390 . S
C82 C81 1.381 . S
N83 C76 1.286 . S
N83 C79 1.413 1_455 S
H84 C89 0.930 . S
H85 C92 0.930 . S
H86 C94 0.930 . S
H87 C88 1.016 . S
C88 H87 1.016 . S
C88 N95 1.286 . S
C89 H84 0.930 . S
C89 C90 1.397 . S
C89 C91 1.361 . S
C90 C89 1.397 . S
C90 C94 1.390 . S
C91 C89 1.361 . S
C91 C92 1.393 . S
C91 N95 1.413 . S
C92 H85 0.930 . S
C92 C91 1.393 . S
C92 C93 1.399 . S
C93 C92 1.399 . S
C93 C94 1.381 . S
C94 H86 0.930 . S
C94 C90 1.390 . S
C94 C93 1.381 . S
N95 C88 1.286 . S
N95 C91 1.413 . S
H96 C101 0.930 . S
H97 C104 0.930 . S
H98 C106 0.930 . S
H99 C100 1.016 . S
C100 H99 1.016 . S
C100 N107 1.286 . S
C101 H96 0.930 . S
C101 C102 1.397 . S
C101 C103 1.361 . S
C102 C101 1.397 . S
C102 C106 1.390 . S
C103 C101 1.361 . S
C103 C104 1.393 . S
C103 N107 1.413 . S
C104 H97 0.930 . S
C104 C103 1.393 . S
C104 C105 1.399 . S
C105 C104 1.399 . S
C105 C106 1.381 . S
C106 H98 0.930 . S
C106 C102 1.390 . S
C106 C105 1.381 . S
N107 C100 1.286 . S
N107 C103 1.413 . S
H108 C113 0.930 . S
H109 C116 0.930 . S
H110 C118 0.930 . S
H111 C112 1.016 . S
C112 H111 1.016 . S
C112 N119 1.286 . S
C113 H108 0.930 . S
C113 C114 1.397 1_565 S
C113 C115 1.361 . S
C114 C113 1.397 1_545 S
C114 C118 1.390 . S
C115 C113 1.361 . S
C115 C116 1.393 . S
C115 N119 1.413 . S
C116 H109 0.930 . S
C116 C115 1.393 . S
C116 C117 1.399 . S
C117 C116 1.399 . S
C117 C118 1.381 1_565 S
C118 H110 0.930 . S
C118 C114 1.390 . S
C118 C117 1.381 1_545 S
N119 C112 1.286 . S
N119 C115 1.413 . S
H120 C125 0.930 . S
H121 C128 0.930 . S
H122 C130 0.930 . S
H123 C124 1.016 . S
C124 H123 1.016 . S
C124 N131 1.286 . S
C125 H120 0.930 . S
C125 C126 1.397 . S
C125 C127 1.361 . S
C126 C125 1.397 . S
C126 C130 1.390 . S
C127 C125 1.361 . S
C127 C128 1.393 . S
C127 N131 1.413 . S
C128 H121 0.930 . S
C128 C127 1.393 . S
C128 C129 1.399 . S
C129 C128 1.399 . S
C129 C130 1.381 . S
C130 H122 0.930 . S
C130 C126 1.390 . S
C130 C129 1.381 . S
N131 C124 1.286 . S
N131 C127 1.413 . S
H132 C137 0.930 . S
H133 C140 0.930 . S
H134 C142 0.930 . S
H135 C136 1.016 . S
C136 H135 1.016 . S
C136 N143 1.286 . S
C137 H132 0.930 . S
C137 C138 1.397 . S
C137 C139 1.361 . S
C138 C137 1.397 . S
C138 C142 1.390 . S
C139 C137 1.361 . S
C139 C140 1.393 . S
C139 N143 1.413 . S
C140 H133 0.930 . S
C140 C139 1.393 . S
C140 C141 1.399 . S
C141 C140 1.399 . S
C141 C142 1.381 . S
C142 H134 0.930 . S
C142 C138 1.390 . S
C142 C141 1.381 . S
N143 C136 1.286 . S
N143 C139 1.413 . S
H144 C149 0.930 . S
H145 C152 0.930 . S
H146 C154 0.930 . S
H147 C148 1.016 . S
C148 H147 1.016 . S
C148 N155 1.286 . S
C149 H144 0.930 . S
C149 C150 1.397 . S
C149 C151 1.361 . S
C150 C149 1.397 . S
C150 C154 1.390 . S
C151 C149 1.361 . S
C151 C152 1.393 . S
C151 N155 1.413 . S
C152 H145 0.930 . S
C152 C151 1.393 . S
C152 C153 1.399 . S
C153 C152 1.399 . S
C153 C154 1.381 . S
C154 H146 0.930 . S
C154 C150 1.390 . S
C154 C153 1.381 . S
N155 C148 1.286 . S
N155 C151 1.413 . S
H156 C161 0.930 . S
H157 C164 0.930 1_554 S
H158 C166 0.930 . S
H159 C160 1.016 . S
C160 H159 1.016 . S
C160 N167 1.286 . S
C161 H156 0.930 . S
C161 C162 1.397 . S
C161 C163 1.361 . S
C162 C161 1.397 . S
C162 C166 1.390 . S
C163 C161 1.361 . S
C163 C164 1.393 . S
C163 N167 1.413 1_556 S
C164 H157 0.930 1_556 S
C164 C163 1.393 . S
C164 C165 1.399 . S
C165 C164 1.399 . S
C165 C166 1.381 . S
C166 H158 0.930 . S
C166 C162 1.390 . S
C166 C165 1.381 . S
N167 C160 1.286 . S
N167 C163 1.413 1_554 S
H168 C173 0.930 . S
H169 C176 0.930 . S
H170 C178 0.930 . S
H171 C172 1.016 . S
C172 H171 1.016 . S
C172 N179 1.286 . S
C173 H168 0.930 . S
C173 C174 1.397 . S
C173 C175 1.361 . S
C174 C173 1.397 . S
C174 C178 1.390 . S
C175 C173 1.361 . S
C175 C176 1.393 . S
C175 N179 1.413 . S
C176 H169 0.930 . S
C176 C175 1.393 . S
C176 C177 1.399 . S
C177 C176 1.399 . S
C177 C178 1.381 . S
C178 H170 0.930 . S
C178 C174 1.390 . S
C178 C177 1.381 . S
N179 C172 1.286 . S
N179 C175 1.413 . S
H180 C185 0.930 . S
H181 C188 0.930 1_565 S
H182 C190 0.930 . S
H183 C184 1.016 1_565 S
C184 H183 1.016 1_545 S
C184 N191 1.286 . S
C185 H180 0.930 . S
C185 C186 1.397 1_556 S
C185 C187 1.361 . S
C186 C185 1.397 1_554 S
C186 C190 1.390 . S
C187 C185 1.361 . S
C187 C188 1.393 . S
C187 N191 1.413 . S
C188 H181 0.930 1_545 S
C188 C187 1.393 . S
C188 C189 1.399 . S
C189 C188 1.399 . S
C189 C190 1.381 1_556 S
C190 H182 0.930 . S
C190 C186 1.390 . S
C190 C189 1.381 1_554 S
N191 C184 1.286 . S
N191 C187 1.413 . S
Li192 N209 1.990 . S
Li192 O252 1.956 . S
Li192 O253 1.970 . S
Li192 O254 1.961 1_554 S
Li193 N217 1.990 . S
Li193 O252 1.970 . S
Li193 O253 1.956 . S
Li193 O255 1.961 . S
Li194 N239 1.990 . S
Li194 O252 1.961 1_556 S
Li194 O254 1.956 . S
Li194 O255 1.970 1_556 S
Li195 N245 1.990 . S
Li195 O253 1.961 . S
Li195 O254 1.970 1_554 S
Li195 O255 1.956 . S
C196 C198 1.348 . S
C196 C199 1.356 1_554 S
C196 O252 1.325 . S
N197 C200 1.314 1_556 S
N197 C201 1.279 . S
C198 C196 1.348 . S
C198 C200 1.353 . S
C198 H256 0.929 . S
C199 C196 1.356 1_556 S
C199 C201 1.358 . S
C199 H257 0.930 . S
C200 N197 1.314 1_554 S
C200 C198 1.353 . S
C200 H258 0.930 . S
C201 N197 1.279 . S
C201 C199 1.358 . S
C201 H259 0.930 . S
C202 C205 1.348 . S
C202 C206 1.356 . S
C202 O253 1.325 . S
C203 N204 1.279 . S
C203 C206 1.358 . S
C203 H260 0.930 . S
N204 C203 1.279 . S
N204 C207 1.314 . S
C205 C202 1.348 . S
C205 C207 1.353 . S
C205 H261 0.929 . S
C206 C202 1.356 . S
C206 C203 1.358 . S
C206 H262 0.930 . S
C207 N204 1.314 . S
C207 C205 1.353 . S
C207 H263 0.930 . S
C208 N209 1.310 1_556 S
C208 C213 1.361 . S
C208 H214 0.932 . S
N209 Li192 1.990 . S
N209 C208 1.310 1_554 S
N209 C211 1.279 . S
C210 C211 1.358 . S
C210 C212 1.356 . S
C210 H264 0.930 . S
C211 N209 1.279 . S
C211 C210 1.358 . S
C211 H215 0.930 . S
C212 C210 1.356 . S
C212 C213 1.351 1_554 S
C213 C208 1.361 . S
C213 C212 1.351 1_556 S
C213 H265 0.921 1_565 S
H214 C208 0.932 . S
H215 C211 0.930 . S
C216 N217 1.314 . S
C216 C218 1.353 . S
C216 H222 0.930 . S
N217 Li193 1.990 . S
N217 C216 1.314 . S
N217 C220 1.279 . S
C218 C216 1.353 . S
C218 C221 1.348 . S
C218 H266 0.929 . S
C219 C220 1.358 . S
C219 C221 1.356 . S
C219 H267 0.930 . S
C220 N217 1.279 . S
C220 C219 1.358 . S
C220 H223 0.930 . S
C221 C218 1.348 . S
C221 C219 1.356 . S
H222 C216 0.930 . S
H223 C220 0.930 . S
C224 C226 1.348 . S
C224 C227 1.356 . S
C224 O254 1.325 . S
N225 C228 1.314 . S
N225 C229 1.279 . S
C226 C224 1.348 . S
C226 C228 1.353 . S
C226 H268 0.929 . S
C227 C224 1.356 . S
C227 C229 1.358 . S
C227 H269 0.930 . S
C228 N225 1.314 . S
C228 C226 1.353 . S
C228 H270 0.930 . S
C229 N225 1.279 . S
C229 C227 1.358 . S
C229 H271 0.930 . S
C230 C231 1.348 1_554 S
C230 C232 1.356 . S
C230 O255 1.325 . S
C231 C230 1.348 1_556 S
C231 C233 1.353 . S
C231 H272 0.929 . S
C232 C230 1.356 . S
C232 C234 1.358 . S
C232 H273 0.930 . S
C233 C231 1.353 . S
C233 N235 1.314 1_556 S
C233 H274 0.930 . S
C234 C232 1.358 . S
C234 N235 1.279 . S
C234 H275 0.930 . S
N235 C233 1.314 1_554 S
N235 C234 1.279 . S
C236 C238 1.353 . S
C236 N239 1.314 . S
C236 H242 0.930 . S
C237 N239 1.279 . S
C237 C240 1.358 . S
C237 H243 0.930 . S
C238 C236 1.353 . S
C238 C241 1.348 . S
C238 H276 0.929 . S
N239 Li194 1.990 . S
N239 C236 1.314 . S
N239 C237 1.279 . S
C240 C237 1.358 . S
C240 C241 1.356 . S
C240 H277 0.930 . S
C241 C238 1.348 . S
C241 C240 1.356 . S
H242 C236 0.930 . S
H243 C237 0.930 . S
C244 N245 1.314 . S
C244 C246 1.353 . S
C244 H250 0.930 . S
N245 Li195 1.990 . S
N245 C244 1.314 . S
N245 C248 1.279 . S
C246 C244 1.353 . S
C246 C249 1.348 . S
C246 H278 0.929 1_565 S
C247 C248 1.358 . S
C247 C249 1.356 . S
C247 H279 0.930 . S
C248 N245 1.279 . S
C248 C247 1.358 . S
C248 H251 0.930 . S
C249 C246 1.348 . S
C249 C247 1.356 . S
H250 C244 0.930 . S
H251 C248 0.930 . S
O252 Li192 1.956 . S
O252 Li193 1.970 . S
O252 Li194 1.961 1_554 S
O252 C196 1.325 . S
O253 Li192 1.970 . S
O253 Li193 1.956 . S
O253 Li195 1.961 . S
O253 C202 1.325 . S
O254 Li192 1.961 1_556 S
O254 Li194 1.956 . S
O254 Li195 1.970 1_556 S
O254 C224 1.325 . S
O255 Li193 1.961 . S
O255 Li194 1.970 1_554 S
O255 Li195 1.956 . S
O255 C230 1.325 . S
H256 C198 0.929 . S
H257 C199 0.930 . S
H258 C200 0.930 . S
H259 C201 0.930 . S
H260 C203 0.930 . S
H261 C205 0.929 . S
H262 C206 0.930 . S
H263 C207 0.930 . S
H264 C210 0.930 . S
H265 C213 0.921 1_545 S
H266 C218 0.929 . S
H267 C219 0.930 . S
H268 C226 0.929 . S
H269 C227 0.930 . S
H270 C228 0.930 . S
H271 C229 0.930 . S
H272 C231 0.929 . S
H273 C232 0.930 . S
H274 C233 0.930 . S
H275 C234 0.930 . S
H276 C238 0.929 . S
H277 C240 0.930 . S
H278 C246 0.929 1_545 S
H279 C247 0.930 . S
Li280 N297 1.990 . S
Li280 O340 1.956 . S
Li280 O341 1.970 . S
Li280 O342 1.961 . S
Li281 N305 1.990 . S
Li281 O340 1.970 . S
Li281 O341 1.956 . S
Li281 O343 1.961 . S
Li282 N327 1.990 . S
Li282 O340 1.961 . S
Li282 O342 1.956 . S
Li282 O343 1.970 . S
Li283 N333 1.990 . S
Li283 O341 1.961 . S
Li283 O342 1.970 . S
Li283 O343 1.956 . S
C284 C286 1.348 . S
C284 C287 1.356 . S
C284 O340 1.325 . S
N285 C288 1.314 . S
N285 C289 1.279 . S
C286 C284 1.348 . S
C286 C288 1.353 . S
C286 H344 0.929 . S
C287 C284 1.356 . S
C287 C289 1.358 . S
C287 H345 0.930 . S
C288 N285 1.314 . S
C288 C286 1.353 . S
C288 H346 0.930 . S
C289 N285 1.279 . S
C289 C287 1.358 . S
C289 H347 0.930 . S
C290 C293 1.348 . S
C290 C294 1.356 . S
C290 O341 1.325 . S
C291 N292 1.279 . S
C291 C294 1.358 . S
C291 H348 0.930 . S
N292 C291 1.279 . S
N292 C295 1.314 . S
C293 C290 1.348 . S
C293 C295 1.353 . S
C293 H349 0.929 . S
C294 C290 1.356 . S
C294 C291 1.358 . S
C294 H350 0.930 . S
C295 N292 1.314 . S
C295 C293 1.353 . S
C295 H351 0.930 . S
C296 N297 1.314 . S
C296 C301 1.353 . S
C296 H302 0.930 . S
N297 Li280 1.990 . S
N297 C296 1.314 . S
N297 C299 1.279 . S
C298 C299 1.358 . S
C298 C300 1.356 . S
C298 H352 0.930 . S
C299 N297 1.279 . S
C299 C298 1.358 . S
C299 H303 0.930 . S
C300 C298 1.356 . S
C300 C301 1.348 . S
C301 C296 1.353 . S
C301 C300 1.348 . S
C301 H353 0.929 1_455 S
H302 C296 0.930 . S
H303 C299 0.930 . S
C304 N305 1.314 . S
C304 C306 1.353 . S
C304 H310 0.930 . S
N305 Li281 1.990 . S
N305 C304 1.314 . S
N305 C308 1.279 . S
C306 C304 1.353 . S
C306 C309 1.348 . S
C306 H354 0.929 . S
C307 C308 1.358 . S
C307 C309 1.356 . S
C307 H355 0.930 . S
C308 N305 1.279 . S
C308 C307 1.358 . S
C308 H311 0.930 . S
C309 C306 1.348 . S
C309 C307 1.356 . S
H310 C304 0.930 . S
H311 C308 0.930 . S
C312 C314 1.348 . S
C312 C315 1.356 . S
C312 O342 1.325 . S
N313 C316 1.314 . S
N313 C317 1.279 . S
C314 C312 1.348 . S
C314 C316 1.353 . S
C314 H356 0.929 . S
C315 C312 1.356 . S
C315 C317 1.358 . S
C315 H357 0.930 . S
C316 N313 1.314 . S
C316 C314 1.353 . S
C316 H358 0.930 . S
C317 N313 1.279 . S
C317 C315 1.358 . S
C317 H359 0.930 . S
C318 C319 1.348 . S
C318 C320 1.356 . S
C318 O343 1.325 . S
C319 C318 1.348 . S
C319 C321 1.353 . S
C319 H360 0.929 . S
C320 C318 1.356 . S
C320 C322 1.358 . S
C320 H361 0.930 . S
C321 C319 1.353 . S
C321 N323 1.314 . S
C321 H362 0.930 . S
C322 C320 1.358 . S
C322 N323 1.279 . S
C322 H363 0.930 . S
N323 C321 1.314 . S
N323 C322 1.279 . S
C324 C326 1.353 . S
C324 N327 1.314 . S
C324 H330 0.930 . S
C325 N327 1.279 . S
C325 C328 1.358 . S
C325 H331 0.930 . S
C326 C324 1.353 . S
C326 C329 1.348 . S
C326 H364 0.929 . S
N327 Li282 1.990 . S
N327 C324 1.314 . S
N327 C325 1.279 . S
C328 C325 1.358 . S
C328 C329 1.356 . S
C328 H365 0.930 . S
C329 C326 1.348 . S
C329 C328 1.356 . S
H330 C324 0.930 . S
H331 C325 0.930 . S
C332 N333 1.314 . S
C332 C334 1.353 . S
C332 H338 0.930 . S
N333 Li283 1.990 . S
N333 C332 1.314 . S
N333 C336 1.279 . S
C334 C332 1.353 . S
C334 C337 1.348 . S
C334 H366 0.929 1_455 S
C335 C336 1.358 . S
C335 C337 1.356 . S
C335 H367 0.930 . S
C336 N333 1.279 . S
C336 C335 1.358 . S
C336 H339 0.930 . S
C337 C334 1.348 . S
C337 C335 1.356 . S
H338 C332 0.930 . S
H339 C336 0.930 . S
O340 Li280 1.956 . S
O340 Li281 1.970 . S
O340 Li282 1.961 . S
O340 C284 1.325 . S
O341 Li280 1.970 . S
O341 Li281 1.956 . S
O341 Li283 1.961 . S
O341 C290 1.325 . S
O342 Li280 1.961 . S
O342 Li282 1.956 . S
O342 Li283 1.970 . S
O342 C312 1.325 . S
O343 Li281 1.961 . S
O343 Li282 1.970 . S
O343 Li283 1.956 . S
O343 C318 1.325 . S
H344 C286 0.929 . S
H345 C287 0.930 . S
H346 C288 0.930 . S
H347 C289 0.930 . S
H348 C291 0.930 . S
H349 C293 0.929 . S
H350 C294 0.930 . S
H351 C295 0.930 . S
H352 C298 0.930 . S
H353 C301 0.929 1_655 S
H354 C306 0.929 . S
H355 C307 0.930 . S
H356 C314 0.929 . S
H357 C315 0.930 . S
H358 C316 0.930 . S
H359 C317 0.930 . S
H360 C319 0.929 . S
H361 C320 0.930 . S
H362 C321 0.930 . S
H363 C322 0.930 . S
H364 C326 0.929 . S
H365 C328 0.930 . S
H366 C334 0.929 1_655 S
H367 C335 0.930 . S
Li368 N385 1.990 . S
Li368 O428 1.956 . S
Li368 O429 1.970 1_556 S
Li368 O430 1.961 . S
Li369 N393 1.990 . S
Li369 O428 1.970 1_554 S
Li369 O429 1.956 . S
Li369 O431 1.961 . S
Li370 N415 1.990 . S
Li370 O428 1.961 . S
Li370 O430 1.956 . S
Li370 O431 1.970 1_556 S
Li371 N421 1.990 . S
Li371 O429 1.961 . S
Li371 O430 1.970 1_554 S
Li371 O431 1.956 . S
C372 C374 1.348 1_556 S
C372 C375 1.356 . S
C372 O428 1.325 . S
N373 C376 1.314 1_556 S
N373 C377 1.279 . S
C374 C372 1.348 1_554 S
C374 C376 1.353 . S
C374 H432 0.929 . S
C375 C372 1.356 . S
C375 C377 1.358 . S
C375 H433 0.930 . S
C376 N373 1.314 1_554 S
C376 C374 1.353 . S
C376 H434 0.930 . S
C377 N373 1.279 . S
C377 C375 1.358 . S
C377 H435 0.930 . S
C378 C381 1.348 . S
C378 C382 1.356 . S
C378 O429 1.325 . S
C379 N380 1.279 . S
C379 C382 1.358 . S
C379 H436 0.930 . S
N380 C379 1.279 . S
N380 C383 1.314 . S
C381 C378 1.348 . S
C381 C383 1.353 . S
C381 H437 0.929 . S
C382 C378 1.356 . S
C382 C379 1.358 . S
C382 H438 0.930 . S
C383 N380 1.314 . S
C383 C381 1.353 . S
C383 H439 0.930 . S
C384 N385 1.314 . S
C384 C389 1.353 . S
C384 H390 0.930 . S
N385 Li368 1.990 . S
N385 C384 1.314 . S
N385 C387 1.279 . S
C386 C387 1.358 . S
C386 C388 1.356 . S
C386 H440 0.930 . S
C387 N385 1.279 . S
C387 C386 1.358 . S
C387 H391 0.930 . S
C388 C386 1.356 . S
C388 C389 1.348 . S
C389 C384 1.353 . S
C389 C388 1.348 . S
C389 H441 0.929 . S
H390 C384 0.930 . S
H391 C387 0.930 . S
C392 N393 1.314 . S
C392 C394 1.353 . S
C392 H398 0.930 . S
N393 Li369 1.990 . S
N393 C392 1.314 . S
N393 C396 1.279 . S
C394 C392 1.353 . S
C394 C397 1.348 . S
C394 H442 0.929 . S
C395 C396 1.358 . S
C395 C397 1.356 . S
C395 H443 0.930 . S
C396 N393 1.279 . S
C396 C395 1.358 . S
C396 H399 0.930 . S
C397 C394 1.348 . S
C397 C395 1.356 . S
H398 C392 0.930 . S
H399 C396 0.930 . S
C400 C402 1.348 . S
C400 C403 1.356 . S
C400 O430 1.325 . S
N401 C404 1.314 . S
N401 C405 1.279 . S
C402 C400 1.348 . S
C402 C404 1.353 . S
C402 H444 0.929 . S
C403 C400 1.356 . S
C403 C405 1.358 . S
C403 H445 0.930 . S
C404 N401 1.314 . S
C404 C402 1.353 . S
C404 H446 0.930 . S
C405 N401 1.279 . S
C405 C403 1.358 . S
C405 H447 0.930 . S
C406 C407 1.348 1_554 S
C406 C408 1.356 . S
C406 O431 1.325 . S
C407 C406 1.348 1_556 S
C407 C409 1.353 . S
C407 H448 0.929 . S
C408 C406 1.356 . S
C408 C410 1.358 . S
C408 H449 0.930 . S
C409 C407 1.353 . S
C409 N411 1.314 1_556 S
C409 H450 0.930 . S
C410 C408 1.358 . S
C410 N411 1.279 . S
C410 H451 0.930 . S
N411 C409 1.314 1_554 S
N411 C410 1.279 . S
C412 C414 1.353 . S
C412 N415 1.314 . S
C412 H418 0.930 . S
C413 N415 1.279 . S
C413 C416 1.358 . S
C413 H419 0.930 . S
C414 C412 1.353 . S
C414 C417 1.348 . S
C414 H452 0.929 . S
N415 Li370 1.990 . S
N415 C412 1.314 . S
N415 C413 1.279 . S
C416 C413 1.358 . S
C416 C417 1.356 . S
C416 H453 0.930 . S
C417 C414 1.348 . S
C417 C416 1.356 . S
H418 C412 0.930 . S
H419 C413 0.930 . S
C420 N421 1.314 . S
C420 C422 1.353 . S
C420 H426 0.930 . S
N421 Li371 1.990 . S
N421 C420 1.314 . S
N421 C424 1.279 . S
C422 C420 1.353 . S
C422 C425 1.348 . S
C422 H454 0.929 . S
C423 C424 1.358 . S
C423 C425 1.356 . S
C423 H455 0.930 . S
C424 N421 1.279 . S
C424 C423 1.358 . S
C424 H427 0.930 . S
C425 C422 1.348 . S
C425 C423 1.356 . S
H426 C420 0.930 . S
H427 C424 0.930 . S
O428 Li368 1.956 . S
O428 Li369 1.970 1_556 S
O428 Li370 1.961 . S
O428 C372 1.325 . S
O429 Li368 1.970 1_554 S
O429 Li369 1.956 . S
O429 Li371 1.961 . S
O429 C378 1.325 . S
O430 Li368 1.961 . S
O430 Li370 1.956 . S
O430 Li371 1.970 1_556 S
O430 C400 1.325 . S
O431 Li369 1.961 . S
O431 Li370 1.970 1_554 S
O431 Li371 1.956 . S
O431 C406 1.325 . S
H432 C374 0.929 . S
H433 C375 0.930 . S
H434 C376 0.930 . S
H435 C377 0.930 . S
H436 C379 0.930 . S
H437 C381 0.929 . S
H438 C382 0.930 . S
H439 C383 0.930 . S
H440 C386 0.930 . S
H441 C389 0.929 . S
H442 C394 0.929 . S
H443 C395 0.930 . S
H444 C402 0.929 . S
H445 C403 0.930 . S
H446 C404 0.930 . S
H447 C405 0.930 . S
H448 C407 0.929 . S
H449 C408 0.930 . S
H450 C409 0.930 . S
H451 C410 0.930 . S
H452 C414 0.929 . S
H453 C416 0.930 . S
H454 C422 0.929 . S
H455 C423 0.930 . S
Li456 N473 1.990 . S
Li456 O516 1.956 . S
Li456 O517 1.970 . S
Li456 O518 1.961 . S
Li457 N481 1.990 . S
Li457 O516 1.970 . S
Li457 O517 1.956 . S
Li457 O519 1.961 1_545 S
Li458 N503 1.990 . S
Li458 O516 1.961 . S
Li458 O518 1.956 . S
Li458 O519 1.970 1_545 S
Li459 N509 1.990 . S
Li459 O517 1.961 1_565 S
Li459 O518 1.970 1_565 S
Li459 O519 1.956 . S
C460 C462 1.348 1_655 S
C460 C463 1.356 . S
C460 O516 1.325 . S
N461 C464 1.314 . S
N461 C465 1.279 . S
C462 C460 1.348 1_455 S
C462 C464 1.353 . S
C462 H520 0.932 . S
C463 C460 1.356 . S
C463 C465 1.358 1_655 S
C463 H521 0.930 . S
C464 N461 1.314 . S
C464 C462 1.353 . S
C464 H522 0.930 . S
C465 N461 1.279 . S
C465 C463 1.358 1_455 S
C465 H523 0.930 . S
C466 C469 1.348 . S
C466 C470 1.356 1_545 S
C466 O517 1.325 . S
C467 N468 1.279 1_565 S
C467 C470 1.358 . S
C467 H524 0.930 . S
N468 C467 1.279 1_545 S
N468 C471 1.314 . S
C469 C466 1.348 . S
C469 C471 1.353 . S
C469 H525 0.929 . S
C470 C466 1.356 1_565 S
C470 C467 1.358 . S
C470 H526 0.930 . S
C471 N468 1.314 . S
C471 C469 1.353 . S
C471 H527 0.930 . S
C472 N473 1.314 . S
C472 C477 1.353 . S
C472 H478 0.930 . S
N473 Li456 1.990 . S
N473 C472 1.314 . S
N473 C475 1.279 . S
C474 C475 1.358 . S
C474 C476 1.356 . S
C474 H528 0.930 . S
C475 N473 1.279 . S
C475 C474 1.358 . S
C475 H479 0.930 . S
C476 C474 1.356 . S
C476 C477 1.348 . S
C477 C472 1.353 . S
C477 C476 1.348 . S
C477 H529 0.929 . S
H478 C472 0.930 . S
H479 C475 0.930 . S
C480 N481 1.314 1_455 S
C480 C482 1.353 . S
C480 H486 0.928 1_545 S
N481 Li457 1.990 . S
N481 C480 1.314 1_655 S
N481 C484 1.279 . S
C482 C480 1.353 . S
C482 C485 1.348 . S
C482 H530 0.929 1_545 S
C483 C484 1.358 1_455 S
C483 C485 1.356 . S
C483 H531 0.930 1_455 S
C484 N481 1.279 . S
C484 C483 1.358 1_655 S
C484 H487 0.930 . S
C485 C482 1.348 . S
C485 C483 1.356 . S
H486 C480 0.928 1_565 S
H487 C484 0.930 . S
C488 C490 1.348 1_545 S
C488 C491 1.356 . S
C488 O518 1.325 . S
N489 C492 1.314 . S
N489 C493 1.279 . S
C490 C488 1.348 1_565 S
C490 C492 1.353 1_565 S
C490 H532 0.929 . S
C491 C488 1.356 . S
C491 C493 1.358 . S
C491 H533 0.930 . S
C492 N489 1.314 . S
C492 C490 1.353 1_545 S
C492 H534 0.930 1_545 S
C493 N489 1.279 . S
C493 C491 1.358 . S
C493 H535 0.930 . S
C494 C495 1.348 . S
C494 C496 1.356 . S
C494 O519 1.325 . S
C495 C494 1.348 . S
C495 C497 1.353 1_655 S
C495 H536 0.929 . S
C496 C494 1.356 . S
C496 C498 1.358 1_655 S
C496 H537 0.930 . S
C497 C495 1.353 1_455 S
C497 N499 1.314 . S
C497 H538 0.930 . S
C498 C496 1.358 1_455 S
C498 N499 1.279 . S
C498 H539 0.930 . S
N499 C497 1.314 . S
N499 C498 1.279 . S
C500 C502 1.353 . S
C500 N503 1.314 1_455 S
C500 H506 0.930 . S
C501 N503 1.279 . S
C501 C504 1.358 . S
C501 H507 0.930 . S
C502 C500 1.353 . S
C502 C505 1.348 . S
C502 H540 0.929 . S
N503 Li458 1.990 . S
N503 C500 1.314 1_655 S
N503 C501 1.279 . S
C504 C501 1.358 . S
C504 C505 1.356 1_655 S
C504 H541 0.930 . S
C505 C502 1.348 . S
C505 C504 1.356 1_455 S
H506 C500 0.930 . S
H507 C501 0.930 . S
C508 N509 1.314 . S
C508 C510 1.353 . S
C508 H514 0.930 . S
N509 Li459 1.990 . S
N509 C508 1.314 . S
N509 C512 1.279 . S
C510 C508 1.353 . S
C510 C513 1.348 . S
C510 H542 0.929 . S
C511 C512 1.358 . S
C511 C513 1.356 . S
C511 H543 0.930 . S
C512 N509 1.279 . S
C512 C511 1.358 . S
C512 H515 0.930 . S
C513 C510 1.348 . S
C513 C511 1.356 . S
H514 C508 0.930 . S
H515 C512 0.930 . S
O516 Li456 1.956 . S
O516 Li457 1.970 . S
O516 Li458 1.961 . S
O516 C460 1.325 . S
O517 Li456 1.970 . S
O517 Li457 1.956 . S
O517 Li459 1.961 1_545 S
O517 C466 1.325 . S
O518 Li456 1.961 . S
O518 Li458 1.956 . S
O518 Li459 1.970 1_545 S
O518 C488 1.325 . S
O519 Li457 1.961 1_565 S
O519 Li458 1.970 1_565 S
O519 Li459 1.956 . S
O519 C494 1.325 . S
H520 C462 0.932 . S
H521 C463 0.930 . S
H522 C464 0.930 . S
H523 C465 0.930 . S
H524 C467 0.930 . S
H525 C469 0.929 . S
H526 C470 0.930 . S
H527 C471 0.930 . S
H528 C474 0.930 . S
H529 C477 0.929 . S
H530 C482 0.929 1_565 S
H531 C483 0.930 1_655 S
H532 C490 0.929 . S
H533 C491 0.930 . S
H534 C492 0.930 1_565 S
H535 C493 0.930 . S
H536 C495 0.929 . S
H537 C496 0.930 . S
H538 C497 0.930 . S
H539 C498 0.930 . S
H540 C502 0.929 . S
H541 C504 0.930 . S
H542 C510 0.929 . S
H543 C511 0.930 . S
Li544 N561 1.990 . S
Li544 O604 1.956 . S
Li544 O605 1.970 . S
Li544 O606 1.961 . S
Li545 N569 1.990 . S
Li545 O604 1.970 . S
Li545 O605 1.956 . S
Li545 O607 1.961 . S
Li546 N591 1.990 . S
Li546 O604 1.961 . S
Li546 O606 1.956 . S
Li546 O607 1.970 . S
Li547 N597 1.990 . S
Li547 O605 1.961 . S
Li547 O606 1.970 . S
Li547 O607 1.956 . S
C548 C550 1.348 . S
C548 C551 1.356 . S
C548 O604 1.325 . S
N549 C552 1.314 . S
N549 C553 1.279 . S
C550 C548 1.348 . S
C550 C552 1.353 . S
C550 H608 0.929 . S
C551 C548 1.356 . S
C551 C553 1.358 . S
C551 H609 0.930 . S
C552 N549 1.314 . S
C552 C550 1.353 . S
C552 H610 0.930 . S
C553 N549 1.279 . S
C553 C551 1.358 . S
C553 H611 0.930 . S
C554 C557 1.348 . S
C554 C558 1.356 . S
C554 O605 1.325 . S
C555 N556 1.279 . S
C555 C558 1.358 . S
C555 H612 0.930 . S
N556 C555 1.279 . S
N556 C559 1.314 . S
C557 C554 1.348 . S
C557 C559 1.353 . S
C557 H613 0.929 . S
C558 C554 1.356 . S
C558 C555 1.358 . S
C558 H614 0.930 . S
C559 N556 1.314 . S
C559 C557 1.353 . S
C559 H615 0.930 . S
C560 N561 1.314 . S
C560 C565 1.353 . S
C560 H566 0.930 . S
N561 Li544 1.990 . S
N561 C560 1.314 . S
N561 C563 1.279 . S
C562 C563 1.358 . S
C562 C564 1.356 . S
C562 H616 0.930 . S
C563 N561 1.279 . S
C563 C562 1.358 . S
C563 H567 0.930 . S
C564 C562 1.356 . S
C564 C565 1.348 . S
C565 C560 1.353 . S
C565 C564 1.348 . S
C565 H617 0.929 . S
H566 C560 0.930 . S
H567 C563 0.930 . S
C568 N569 1.314 . S
C568 C570 1.353 . S
C568 H574 0.930 . S
N569 Li545 1.990 . S
N569 C568 1.314 . S
N569 C572 1.279 . S
C570 C568 1.353 . S
C570 C573 1.348 . S
C570 H618 0.929 . S
C571 C572 1.358 . S
C571 C573 1.356 . S
C571 H619 0.930 . S
C572 N569 1.279 . S
C572 C571 1.358 . S
C572 H575 0.930 . S
C573 C570 1.348 . S
C573 C571 1.356 . S
H574 C568 0.930 . S
H575 C572 0.930 . S
C576 C578 1.348 . S
C576 C579 1.356 . S
C576 O606 1.325 . S
N577 C580 1.314 . S
N577 C581 1.279 . S
C578 C576 1.348 . S
C578 C580 1.353 . S
C578 H620 0.929 . S
C579 C576 1.356 . S
C579 C581 1.358 . S
C579 H621 0.930 . S
C580 N577 1.314 . S
C580 C578 1.353 . S
C580 H622 0.930 . S
C581 N577 1.279 . S
C581 C579 1.358 . S
C581 H623 0.930 . S
C582 C583 1.348 . S
C582 C584 1.356 . S
C582 O607 1.325 . S
C583 C582 1.348 . S
C583 C585 1.353 . S
C583 H624 0.929 . S
C584 C582 1.356 . S
C584 C586 1.358 . S
C584 H625 0.930 . S
C585 C583 1.353 . S
C585 N587 1.314 . S
C585 H626 0.930 . S
C586 C584 1.358 . S
C586 N587 1.279 . S
C586 H627 0.930 . S
N587 C585 1.314 . S
N587 C586 1.279 . S
C588 C590 1.353 . S
C588 N591 1.314 . S
C588 H594 0.930 . S
C589 N591 1.279 . S
C589 C592 1.358 . S
C589 H595 0.930 . S
C590 C588 1.353 . S
C590 C593 1.348 . S
C590 H628 0.929 . S
N591 Li546 1.990 . S
N591 C588 1.314 . S
N591 C589 1.279 . S
C592 C589 1.358 . S
C592 C593 1.356 . S
C592 H629 0.930 . S
C593 C590 1.348 . S
C593 C592 1.356 . S
H594 C588 0.930 . S
H595 C589 0.930 . S
C596 N597 1.314 . S
C596 C598 1.353 . S
C596 H602 0.930 . S
N597 Li547 1.990 . S
N597 C596 1.314 . S
N597 C600 1.279 . S
C598 C596 1.353 . S
C598 C601 1.348 . S
C598 H630 0.929 . S
C599 C600 1.358 . S
C599 C601 1.356 . S
C599 H631 0.930 . S
C600 N597 1.279 . S
C600 C599 1.358 . S
C600 H603 0.930 . S
C601 C598 1.348 . S
C601 C599 1.356 . S
H602 C596 0.930 . S
H603 C600 0.930 . S
O604 Li544 1.956 . S
O604 Li545 1.970 . S
O604 Li546 1.961 . S
O604 C548 1.325 . S
O605 Li544 1.970 . S
O605 Li545 1.956 . S
O605 Li547 1.961 . S
O605 C554 1.325 . S
O606 Li544 1.961 . S
O606 Li546 1.956 . S
O606 Li547 1.970 . S
O606 C576 1.325 . S
O607 Li545 1.961 . S
O607 Li546 1.970 . S
O607 Li547 1.956 . S
O607 C582 1.325 . S
H608 C550 0.929 . S
H609 C551 0.930 . S
H610 C552 0.930 . S
H611 C553 0.930 . S
H612 C555 0.930 . S
H613 C557 0.929 . S
H614 C558 0.930 . S
H615 C559 0.930 . S
H616 C562 0.930 . S
H617 C565 0.929 . S
H618 C570 0.929 . S
H619 C571 0.930 . S
H620 C578 0.929 . S
H621 C579 0.930 . S
H622 C580 0.930 . S
H623 C581 0.930 . S
H624 C583 0.929 . S
H625 C584 0.930 . S
H626 C585 0.930 . S
H627 C586 0.930 . S
H628 C590 0.929 . S
H629 C592 0.930 . S
H630 C598 0.929 . S
H631 C599 0.930 . S
Li632 N649 1.990 . S
Li632 O692 1.956 . S
Li632 O693 1.970 . S
Li632 O694 1.961 . S
Li633 N657 1.990 . S
Li633 O692 1.970 . S
Li633 O693 1.956 . S
Li633 O695 1.961 . S
Li634 N679 1.990 . S
Li634 O692 1.961 . S
Li634 O694 1.956 . S
Li634 O695 1.970 . S
Li635 N685 1.990 . S
Li635 O693 1.961 . S
Li635 O694 1.970 . S
Li635 O695 1.956 . S
C636 C638 1.348 . S
C636 C639 1.356 . S
C636 O692 1.325 . S
N637 C640 1.314 . S
N637 C641 1.279 . S
C638 C636 1.348 . S
C638 C640 1.353 . S
C638 H696 0.929 . S
C639 C636 1.356 . S
C639 C641 1.358 . S
C639 H697 0.930 . S
C640 N637 1.314 . S
C640 C638 1.353 . S
C640 H698 0.930 . S
C641 N637 1.279 . S
C641 C639 1.358 . S
C641 H699 0.930 . S
C642 C645 1.348 . S
C642 C646 1.356 . S
C642 O693 1.325 . S
C643 N644 1.279 . S
C643 C646 1.358 . S
C643 H700 0.930 . S
N644 C643 1.279 . S
N644 C647 1.314 . S
C645 C642 1.348 . S
C645 C647 1.353 . S
C645 H701 0.929 . S
C646 C642 1.356 . S
C646 C643 1.358 . S
C646 H702 0.930 . S
C647 N644 1.314 . S
C647 C645 1.353 . S
C647 H703 0.930 . S
C648 N649 1.314 . S
C648 C653 1.353 . S
C648 H654 0.930 . S
N649 Li632 1.990 . S
N649 C648 1.314 . S
N649 C651 1.279 . S
C650 C651 1.358 . S
C650 C652 1.356 . S
C650 H704 0.930 . S
C651 N649 1.279 . S
C651 C650 1.358 . S
C651 H655 0.930 . S
C652 C650 1.356 . S
C652 C653 1.348 . S
C653 C648 1.353 . S
C653 C652 1.348 . S
C653 H705 0.929 . S
H654 C648 0.930 . S
H655 C651 0.930 . S
C656 N657 1.314 . S
C656 C658 1.353 . S
C656 H662 0.930 . S
N657 Li633 1.990 . S
N657 C656 1.314 . S
N657 C660 1.279 . S
C658 C656 1.353 . S
C658 C661 1.348 . S
C658 H706 0.929 . S
C659 C660 1.358 . S
C659 C661 1.356 . S
C659 H707 0.930 . S
C660 N657 1.279 . S
C660 C659 1.358 . S
C660 H663 0.930 . S
C661 C658 1.348 . S
C661 C659 1.356 . S
H662 C656 0.930 . S
H663 C660 0.930 . S
C664 C666 1.348 . S
C664 C667 1.356 . S
C664 O694 1.325 . S
N665 C668 1.314 . S
N665 C669 1.279 . S
C666 C664 1.348 . S
C666 C668 1.353 . S
C666 H708 0.929 . S
C667 C664 1.356 . S
C667 C669 1.358 . S
C667 H709 0.930 . S
C668 N665 1.314 . S
C668 C666 1.353 . S
C668 H710 0.930 . S
C669 N665 1.279 . S
C669 C667 1.358 . S
C669 H711 0.930 . S
C670 C671 1.348 . S
C670 C672 1.356 . S
C670 O695 1.325 . S
C671 C670 1.348 . S
C671 C673 1.353 . S
C671 H712 0.929 . S
C672 C670 1.356 . S
C672 C674 1.358 . S
C672 H713 0.930 . S
C673 C671 1.353 . S
C673 N675 1.314 . S
C673 H714 0.930 . S
C674 C672 1.358 . S
C674 N675 1.279 . S
C674 H715 0.930 . S
N675 C673 1.314 . S
N675 C674 1.279 . S
C676 C678 1.353 . S
C676 N679 1.314 . S
C676 H682 0.930 . S
C677 N679 1.279 . S
C677 C680 1.358 . S
C677 H683 0.930 . S
C678 C676 1.353 . S
C678 C681 1.348 . S
C678 H716 0.929 . S
N679 Li634 1.990 . S
N679 C676 1.314 . S
N679 C677 1.279 . S
C680 C677 1.358 . S
C680 C681 1.356 . S
C680 H717 0.930 . S
C681 C678 1.348 . S
C681 C680 1.356 . S
H682 C676 0.930 . S
H683 C677 0.930 . S
C684 N685 1.314 . S
C684 C686 1.353 . S
C684 H690 0.930 . S
N685 Li635 1.990 . S
N685 C684 1.314 . S
N685 C688 1.279 . S
C686 C684 1.353 . S
C686 C689 1.348 . S
C686 H718 0.929 . S
C687 C688 1.358 . S
C687 C689 1.356 . S
C687 H719 0.930 . S
C688 N685 1.279 . S
C688 C687 1.358 . S
C688 H691 0.930 . S
C689 C686 1.348 . S
C689 C687 1.356 . S
H690 C684 0.930 . S
H691 C688 0.930 . S
O692 Li632 1.956 . S
O692 Li633 1.970 . S
O692 Li634 1.961 . S
O692 C636 1.325 . S
O693 Li632 1.970 . S
O693 Li633 1.956 . S
O693 Li635 1.961 . S
O693 C642 1.325 . S
O694 Li632 1.961 . S
O694 Li634 1.956 . S
O694 Li635 1.970 . S
O694 C664 1.325 . S
O695 Li633 1.961 . S
O695 Li634 1.970 . S
O695 Li635 1.956 . S
O695 C670 1.325 . S
H696 C638 0.929 . S
H697 C639 0.930 . S
H698 C640 0.930 . S
H699 C641 0.930 . S
H700 C643 0.930 . S
H701 C645 0.929 . S
H702 C646 0.930 . S
H703 C647 0.930 . S
H704 C650 0.930 . S
H705 C653 0.929 . S
H706 C658 0.929 . S
H707 C659 0.930 . S
H708 C666 0.929 . S
H709 C667 0.930 . S
H710 C668 0.930 . S
H711 C669 0.930 . S
H712 C671 0.929 . S
H713 C672 0.930 . S
H714 C673 0.930 . S
H715 C674 0.930 . S
H716 C678 0.929 . S
H717 C680 0.930 . S
H718 C686 0.929 . S
H719 C687 0.930 . S
Li720 N737 1.990 . S
Li720 O780 1.956 . S
Li720 O781 1.970 . S
Li720 O782 1.961 . S
Li721 N745 1.990 . S
Li721 O780 1.970 . S
Li721 O781 1.956 . S
Li721 O783 1.961 . S
Li722 N767 1.990 . S
Li722 O780 1.961 . S
Li722 O782 1.956 . S
Li722 O783 1.970 . S
Li723 N773 1.990 . S
Li723 O781 1.961 . S
Li723 O782 1.970 . S
Li723 O783 1.956 . S
C724 C726 1.348 . S
C724 C727 1.356 . S
C724 O780 1.325 . S
N725 C728 1.314 . S
N725 C729 1.279 . S
C726 C724 1.348 . S
C726 C728 1.353 . S
C726 H784 0.929 . S
C727 C724 1.356 . S
C727 C729 1.358 . S
C727 H785 0.930 . S
C728 N725 1.314 . S
C728 C726 1.353 . S
C728 H786 0.930 . S
C729 N725 1.279 . S
C729 C727 1.358 . S
C729 H787 0.930 . S
C730 C733 1.348 . S
C730 C734 1.356 . S
C730 O781 1.325 . S
C731 N732 1.279 . S
C731 C734 1.358 . S
C731 H788 0.930 . S
N732 C731 1.279 . S
N732 C735 1.314 . S
C733 C730 1.348 . S
C733 C735 1.353 . S
C733 H789 0.929 . S
C734 C730 1.356 . S
C734 C731 1.358 . S
C734 H790 0.930 . S
C735 N732 1.314 . S
C735 C733 1.353 . S
C735 H791 0.930 . S
C736 N737 1.314 . S
C736 C741 1.353 . S
C736 H742 0.930 . S
N737 Li720 1.990 . S
N737 C736 1.314 . S
N737 C739 1.279 . S
C738 C739 1.358 . S
C738 C740 1.356 . S
C738 H792 0.930 . S
C739 N737 1.279 . S
C739 C738 1.358 . S
C739 H743 0.930 . S
C740 C738 1.356 . S
C740 C741 1.348 . S
C741 C736 1.353 . S
C741 C740 1.348 . S
C741 H793 0.929 . S
H742 C736 0.930 . S
H743 C739 0.930 . S
C744 N745 1.314 . S
C744 C746 1.353 . S
C744 H750 0.930 . S
N745 Li721 1.990 . S
N745 C744 1.314 . S
N745 C748 1.279 . S
C746 C744 1.353 . S
C746 C749 1.348 . S
C746 H794 0.929 . S
C747 C748 1.358 . S
C747 C749 1.356 . S
C747 H795 0.930 . S
C748 N745 1.279 . S
C748 C747 1.358 . S
C748 H751 0.930 . S
C749 C746 1.348 . S
C749 C747 1.356 . S
H750 C744 0.930 . S
H751 C748 0.930 . S
C752 C754 1.348 . S
C752 C755 1.356 . S
C752 O782 1.325 . S
N753 C756 1.314 . S
N753 C757 1.279 . S
C754 C752 1.348 . S
C754 C756 1.353 . S
C754 H796 0.929 . S
C755 C752 1.356 . S
C755 C757 1.358 . S
C755 H797 0.930 . S
C756 N753 1.314 . S
C756 C754 1.353 . S
C756 H798 0.930 . S
C757 N753 1.279 . S
C757 C755 1.358 . S
C757 H799 0.930 . S
C758 C759 1.348 . S
C758 C760 1.356 . S
C758 O783 1.325 . S
C759 C758 1.348 . S
C759 C761 1.353 . S
C759 H800 0.929 . S
C760 C758 1.356 . S
C760 C762 1.358 . S
C760 H801 0.930 . S
C761 C759 1.353 . S
C761 N763 1.314 . S
C761 H802 0.930 . S
C762 C760 1.358 . S
C762 N763 1.279 . S
C762 H803 0.930 . S
N763 C761 1.314 . S
N763 C762 1.279 . S
C764 C766 1.353 . S
C764 N767 1.314 . S
C764 H770 0.930 . S
C765 N767 1.279 . S
C765 C768 1.358 . S
C765 H771 0.930 . S
C766 C764 1.353 . S
C766 C769 1.348 . S
C766 H804 0.929 . S
N767 Li722 1.990 . S
N767 C764 1.314 . S
N767 C765 1.279 . S
C768 C765 1.358 . S
C768 C769 1.356 . S
C768 H805 0.930 . S
C769 C766 1.348 . S
C769 C768 1.356 . S
H770 C764 0.930 . S
H771 C765 0.930 . S
C772 N773 1.314 . S
C772 C774 1.353 . S
C772 H778 0.930 . S
N773 Li723 1.990 . S
N773 C772 1.314 . S
N773 C776 1.279 . S
C774 C772 1.353 . S
C774 C777 1.348 . S
C774 H806 0.929 . S
C775 C776 1.358 . S
C775 C777 1.356 . S
C775 H807 0.930 . S
C776 N773 1.279 . S
C776 C775 1.358 . S
C776 H779 0.930 . S
C777 C774 1.348 . S
C777 C775 1.356 . S
H778 C772 0.930 . S
H779 C776 0.930 . S
O780 Li720 1.956 . S
O780 Li721 1.970 . S
O780 Li722 1.961 . S
O780 C724 1.325 . S
O781 Li720 1.970 . S
O781 Li721 1.956 . S
O781 Li723 1.961 . S
O781 C730 1.325 . S
O782 Li720 1.961 . S
O782 Li722 1.956 . S
O782 Li723 1.970 . S
O782 C752 1.325 . S
O783 Li721 1.961 . S
O783 Li722 1.970 . S
O783 Li723 1.956 . S
O783 C758 1.325 . S
H784 C726 0.929 . S
H785 C727 0.930 . S
H786 C728 0.930 . S
H787 C729 0.930 . S
H788 C731 0.930 . S
H789 C733 0.929 . S
H790 C734 0.930 . S
H791 C735 0.930 . S
H792 C738 0.930 . S
H793 C741 0.929 . S
H794 C746 0.929 . S
H795 C747 0.930 . S
H796 C754 0.929 . S
H797 C755 0.930 . S
H798 C756 0.930 . S
H799 C757 0.930 . S
H800 C759 0.929 . S
H801 C760 0.930 . S
H802 C761 0.930 . S
H803 C762 0.930 . S
H804 C766 0.929 . S
H805 C768 0.930 . S
H806 C774 0.929 . S
H807 C775 0.930 . S
Li808 N825 1.990 . S
Li808 O868 1.956 . S
Li808 O869 1.970 1_565 S
Li808 O870 1.961 . S
Li809 N833 1.990 . S
Li809 O868 1.970 1_545 S
Li809 O869 1.956 . S
Li809 O871 1.961 . S
Li810 N855 1.990 . S
Li810 O868 1.961 . S
Li810 O870 1.956 . S
Li810 O871 1.970 1_565 S
Li811 N861 1.990 . S
Li811 O869 1.961 . S
Li811 O870 1.970 1_545 S
Li811 O871 1.956 . S
C812 C814 1.348 . S
C812 C815 1.356 . S
C812 O868 1.325 . S
N813 C816 1.314 . S
N813 C817 1.279 . S
C814 C812 1.348 . S
C814 C816 1.353 . S
C814 H872 0.929 . S
C815 C812 1.356 . S
C815 C817 1.358 . S
C815 H873 0.930 . S
C816 N813 1.314 . S
C816 C814 1.353 . S
C816 H874 0.930 . S
C817 N813 1.279 . S
C817 C815 1.358 . S
C817 H875 0.930 . S
C818 C821 1.348 1_545 S
C818 C822 1.356 . S
C818 O869 1.325 . S
C819 N820 1.279 . S
C819 C822 1.358 . S
C819 H876 0.930 . S
N820 C819 1.279 . S
N820 C823 1.314 1_545 S
C821 C818 1.348 1_565 S
C821 C823 1.353 . S
C821 H877 0.929 . S
C822 C818 1.356 . S
C822 C819 1.358 . S
C822 H878 0.930 . S
C823 N820 1.314 1_565 S
C823 C821 1.353 . S
C823 H879 0.930 . S
C824 N825 1.314 . S
C824 C829 1.353 . S
C824 H830 0.930 . S
N825 Li808 1.990 . S
N825 C824 1.314 . S
N825 C827 1.279 . S
C826 C827 1.358 . S
C826 C828 1.356 . S
C826 H880 0.930 . S
C827 N825 1.279 . S
C827 C826 1.358 . S
C827 H831 0.930 . S
C828 C826 1.356 . S
C828 C829 1.348 . S
C829 C824 1.353 . S
C829 C828 1.348 . S
C829 H881 0.929 . S
H830 C824 0.930 . S
H831 C827 0.930 . S
C832 N833 1.314 . S
C832 C834 1.353 . S
C832 H838 0.930 . S
N833 Li809 1.990 . S
N833 C832 1.314 . S
N833 C836 1.279 . S
C834 C832 1.353 . S
C834 C837 1.348 . S
C834 H882 0.929 . S
C835 C836 1.358 . S
C835 C837 1.356 . S
C835 H883 0.930 . S
C836 N833 1.279 . S
C836 C835 1.358 . S
C836 H839 0.930 . S
C837 C834 1.348 . S
C837 C835 1.356 . S
H838 C832 0.930 . S
H839 C836 0.930 . S
C840 C842 1.348 1_565 S
C840 C843 1.356 . S
C840 O870 1.325 . S
N841 C844 1.314 1_565 S
N841 C845 1.279 . S
C842 C840 1.348 1_545 S
C842 C844 1.353 . S
C842 H884 0.929 . S
C843 C840 1.356 . S
C843 C845 1.358 . S
C843 H885 0.930 . S
C844 N841 1.314 1_545 S
C844 C842 1.353 . S
C844 H886 0.930 . S
C845 N841 1.279 . S
C845 C843 1.358 . S
C845 H887 0.930 . S
C846 C847 1.348 . S
C846 C848 1.356 . S
C846 O871 1.325 . S
C847 C846 1.348 . S
C847 C849 1.353 . S
C847 H888 0.929 . S
C848 C846 1.356 . S
C848 C850 1.358 . S
C848 H889 0.930 . S
C849 C847 1.353 . S
C849 N851 1.314 . S
C849 H890 0.930 . S
C850 C848 1.358 . S
C850 N851 1.279 . S
C850 H891 0.930 . S
N851 C849 1.314 . S
N851 C850 1.279 . S
C852 C854 1.353 . S
C852 N855 1.314 . S
C852 H858 0.930 . S
C853 N855 1.279 . S
C853 C856 1.358 . S
C853 H859 0.930 . S
C854 C852 1.353 . S
C854 C857 1.348 . S
C854 H892 0.929 . S
N855 Li810 1.990 . S
N855 C852 1.314 . S
N855 C853 1.279 . S
C856 C853 1.358 . S
C856 C857 1.356 . S
C856 H893 0.930 . S
C857 C854 1.348 . S
C857 C856 1.356 . S
H858 C852 0.930 . S
H859 C853 0.930 . S
C860 N861 1.314 . S
C860 C862 1.353 . S
C860 H866 0.930 . S
N861 Li811 1.990 . S
N861 C860 1.314 . S
N861 C864 1.279 . S
C862 C860 1.353 . S
C862 C865 1.348 . S
C862 H894 0.929 . S
C863 C864 1.358 . S
C863 C865 1.356 . S
C863 H895 0.930 . S
C864 N861 1.279 . S
C864 C863 1.358 . S
C864 H867 0.930 . S
C865 C862 1.348 . S
C865 C863 1.356 . S
H866 C860 0.930 . S
H867 C864 0.930 . S
O868 Li808 1.956 . S
O868 Li809 1.970 1_565 S
O868 Li810 1.961 . S
O868 C812 1.325 . S
O869 Li808 1.970 1_545 S
O869 Li809 1.956 . S
O869 Li811 1.961 . S
O869 C818 1.325 . S
O870 Li808 1.961 . S
O870 Li810 1.956 . S
O870 Li811 1.970 1_565 S
O870 C840 1.325 . S
O871 Li809 1.961 . S
O871 Li810 1.970 1_545 S
O871 Li811 1.956 . S
O871 C846 1.325 . S
H872 C814 0.929 . S
H873 C815 0.930 . S
H874 C816 0.930 . S
H875 C817 0.930 . S
H876 C819 0.930 . S
H877 C821 0.929 . S
H878 C822 0.930 . S
H879 C823 0.930 . S
H880 C826 0.930 . S
H881 C829 0.929 . S
H882 C834 0.929 . S
H883 C835 0.930 . S
H884 C842 0.929 . S
H885 C843 0.930 . S
H886 C844 0.930 . S
H887 C845 0.930 . S
H888 C847 0.929 . S
H889 C848 0.930 . S
H890 C849 0.930 . S
H891 C850 0.930 . S
H892 C854 0.929 . S
H893 C856 0.930 . S
H894 C862 0.929 . S
H895 C863 0.930 . S
Li896 N913 1.990 . S
Li896 O956 1.956 . S
Li896 O957 1.970 . S
Li896 O958 1.961 . S
Li897 N921 1.990 1_455 S
Li897 O956 1.970 . S
Li897 O957 1.956 . S
Li897 O959 1.961 1_455 S
Li898 N943 1.990 . S
Li898 O956 1.961 . S
Li898 O958 1.956 . S
Li898 O959 1.970 1_455 S
Li899 N949 1.990 . S
Li899 O957 1.961 1_655 S
Li899 O958 1.970 1_655 S
Li899 O959 1.956 . S
C900 C902 1.348 . S
C900 C903 1.356 . S
C900 O956 1.325 . S
N901 C904 1.314 . S
N901 C905 1.279 . S
C902 C900 1.348 . S
C902 C904 1.353 . S
C902 H960 0.929 . S
C903 C900 1.356 . S
C903 C905 1.358 . S
C903 H961 0.930 . S
C904 N901 1.314 . S
C904 C902 1.353 . S
C904 H962 0.930 . S
C905 N901 1.279 . S
C905 C903 1.358 . S
C905 H963 0.930 . S
C906 C909 1.348 1_655 S
C906 C910 1.356 . S
C906 O957 1.325 1_655 S
C907 N908 1.279 . S
C907 C910 1.358 . S
C907 H964 0.930 . S
N908 C907 1.279 . S
N908 C911 1.314 1_655 S
C909 C906 1.348 1_455 S
C909 C911 1.353 . S
C909 H965 0.929 . S
C910 C906 1.356 . S
C910 C907 1.358 . S
C910 H966 0.930 . S
C911 N908 1.314 1_455 S
C911 C909 1.353 . S
C911 H967 0.930 . S
C912 N913 1.314 . S
C912 C917 1.353 . S
C912 H918 0.930 . S
N913 Li896 1.990 . S
N913 C912 1.314 . S
N913 C915 1.279 . S
C914 C915 1.358 . S
C914 C916 1.356 . S
C914 H968 0.930 . S
C915 N913 1.279 . S
C915 C914 1.358 . S
C915 H919 0.930 . S
C916 C914 1.356 . S
C916 C917 1.348 . S
C917 C912 1.353 . S
C917 C916 1.348 . S
C917 H969 0.929 . S
H918 C912 0.930 . S
H919 C915 0.930 . S
C920 N921 1.314 . S
C920 C922 1.353 . S
C920 H926 0.930 . S
N921 Li897 1.990 1_655 S
N921 C920 1.314 . S
N921 C924 1.280 . S
C922 C920 1.353 . S
C922 C925 1.348 . S
C922 H970 0.929 . S
C923 C924 1.361 . S
C923 C925 1.356 . S
C923 H971 0.930 . S
C924 N921 1.280 . S
C924 C923 1.361 . S
C924 H927 0.926 1_655 S
C925 C922 1.348 . S
C925 C923 1.356 . S
H926 C920 0.930 . S
H927 C924 0.926 1_455 S
C928 C930 1.348 1_455 S
C928 C931 1.356 . S
C928 O958 1.325 . S
N929 C932 1.314 1_455 S
N929 C933 1.279 . S
C930 C928 1.348 1_655 S
C930 C932 1.353 . S
C930 H972 0.929 . S
C931 C928 1.356 . S
C931 C933 1.358 . S
C931 H973 0.930 . S
C932 N929 1.314 1_655 S
C932 C930 1.353 . S
C932 H974 0.930 . S
C933 N929 1.279 . S
C933 C931 1.358 . S
C933 H975 0.930 . S
C934 C935 1.348 . S
C934 C936 1.356 . S
C934 O959 1.325 . S
C935 C934 1.348 . S
C935 C937 1.353 . S
C935 H976 0.929 . S
C936 C934 1.356 . S
C936 C938 1.358 . S
C936 H977 0.930 . S
C937 C935 1.353 . S
C937 N939 1.314 . S
C937 H978 0.930 . S
C938 C936 1.358 . S
C938 N939 1.279 . S
C938 H979 0.930 . S
N939 C937 1.314 . S
N939 C938 1.279 . S
C940 C942 1.353 . S
C940 N943 1.314 . S
C940 H946 0.930 . S
C941 N943 1.279 . S
C941 C944 1.358 . S
C941 H947 0.930 . S
C942 C940 1.353 . S
C942 C945 1.348 . S
C942 H980 0.929 . S
N943 Li898 1.990 . S
N943 C940 1.314 . S
N943 C941 1.279 . S
C944 C941 1.358 . S
C944 C945 1.356 . S
C944 H981 0.930 . S
C945 C942 1.348 . S
C945 C944 1.356 . S
H946 C940 0.930 . S
H947 C941 0.930 . S
C948 N949 1.314 . S
C948 C950 1.353 . S
C948 H954 0.930 . S
N949 Li899 1.990 . S
N949 C948 1.314 . S
N949 C952 1.279 . S
C950 C948 1.353 . S
C950 C953 1.348 . S
C950 H982 0.929 . S
C951 C952 1.358 . S
C951 C953 1.356 . S
C951 H983 0.930 . S
C952 N949 1.279 . S
C952 C951 1.358 . S
C952 H955 0.930 . S
C953 C950 1.348 . S
C953 C951 1.356 . S
H954 C948 0.930 . S
H955 C952 0.930 . S
O956 Li896 1.956 . S
O956 Li897 1.970 . S
O956 Li898 1.961 . S
O956 C900 1.325 . S
O957 Li896 1.970 . S
O957 Li897 1.956 . S
O957 Li899 1.961 1_455 S
O957 C906 1.325 1_455 S
O958 Li896 1.961 . S
O958 Li898 1.956 . S
O958 Li899 1.970 1_455 S
O958 C928 1.325 . S
O959 Li897 1.961 1_655 S
O959 Li898 1.970 1_655 S
O959 Li899 1.956 . S
O959 C934 1.325 . S
H960 C902 0.929 . S
H961 C903 0.930 . S
H962 C904 0.930 . S
H963 C905 0.930 . S
H964 C907 0.930 . S
H965 C909 0.929 . S
H966 C910 0.930 . S
H967 C911 0.930 . S
H968 C914 0.930 . S
H969 C917 0.929 . S
H970 C922 0.929 . S
H971 C923 0.930 . S
H972 C930 0.929 . S
H973 C931 0.930 . S
H974 C932 0.930 . S
H975 C933 0.930 . S
H976 C935 0.929 . S
H977 C936 0.930 . S
H978 C937 0.930 . S
H979 C938 0.930 . S
H980 C942 0.929 . S
H981 C944 0.930 . S
H982 C950 0.929 . S
H983 C951 0.930 . S
Li984 N1001 1.990 . S
Li984 O1044 1.956 . S
Li984 O1045 1.970 . S
Li984 O1046 1.961 . S
Li985 N1009 1.990 . S
Li985 O1044 1.970 . S
Li985 O1045 1.956 . S
Li985 O1047 1.961 . S
Li986 N1031 1.990 . S
Li986 O1044 1.961 . S
Li986 O1046 1.956 . S
Li986 O1047 1.970 . S
Li987 N1037 1.990 . S
Li987 O1045 1.961 . S
Li987 O1046 1.970 . S
Li987 O1047 1.956 . S
C988 C990 1.348 . S
C988 C991 1.356 . S
C988 O1044 1.325 . S
N989 C992 1.314 . S
N989 C993 1.279 . S
C990 C988 1.348 . S
C990 C992 1.353 . S
C990 H1048 0.929 . S
C991 C988 1.356 . S
C991 C993 1.358 . S
C991 H1049 0.930 . S
C992 N989 1.314 . S
C992 C990 1.353 . S
C992 H1050 0.930 . S
C993 N989 1.279 . S
C993 C991 1.358 . S
C993 H1051 0.930 . S
C994 C997 1.348 . S
C994 C998 1.356 . S
C994 O1045 1.325 . S
C995 N996 1.279 . S
C995 C998 1.358 . S
C995 H1052 0.930 . S
N996 C995 1.279 . S
N996 C999 1.314 . S
C997 C994 1.348 . S
C997 C999 1.353 . S
C997 H1053 0.929 . S
C998 C994 1.356 . S
C998 C995 1.358 . S
C998 H1054 0.930 . S
C999 N996 1.314 . S
C999 C997 1.353 . S
C999 H1055 0.930 . S
C1000 N1001 1.314 . S
C1000 C1005 1.353 . S
C1000 H1006 0.930 . S
N1001 Li984 1.990 . S
N1001 C1000 1.314 . S
N1001 C1003 1.279 . S
C1002 C1003 1.358 . S
C1002 C1004 1.356 . S
C1002 H1056 0.930 . S
C1003 N1001 1.279 . S
C1003 C1002 1.358 . S
C1003 H1007 0.930 . S
C1004 C1002 1.356 . S
C1004 C1005 1.348 . S
C1005 C1000 1.353 . S
C1005 C1004 1.348 . S
C1005 H1057 0.929 . S
H1006 C1000 0.930 . S
H1007 C1003 0.930 . S
C1008 N1009 1.314 . S
C1008 C1010 1.353 . S
C1008 H1014 0.930 . S
N1009 Li985 1.990 . S
N1009 C1008 1.314 . S
N1009 C1012 1.279 . S
C1010 C1008 1.353 . S
C1010 C1013 1.348 . S
C1010 H1058 0.929 . S
C1011 C1012 1.358 . S
C1011 C1013 1.356 . S
C1011 H1059 0.930 . S
C1012 N1009 1.279 . S
C1012 C1011 1.358 . S
C1012 H1015 0.930 . S
C1013 C1010 1.348 . S
C1013 C1011 1.356 . S
H1014 C1008 0.930 . S
H1015 C1012 0.930 . S
C1016 C1018 1.348 . S
C1016 C1019 1.356 . S
C1016 O1046 1.325 . S
N1017 C1020 1.314 . S
N1017 C1021 1.279 . S
C1018 C1016 1.348 . S
C1018 C1020 1.353 . S
C1018 H1060 0.929 . S
C1019 C1016 1.356 . S
C1019 C1021 1.358 . S
C1019 H1061 0.930 . S
C1020 N1017 1.314 . S
C1020 C1018 1.353 . S
C1020 H1062 0.930 . S
C1021 N1017 1.279 . S
C1021 C1019 1.358 . S
C1021 H1063 0.930 . S
C1022 C1023 1.348 . S
C1022 C1024 1.356 . S
C1022 O1047 1.325 . S
C1023 C1022 1.348 . S
C1023 C1025 1.353 . S
C1023 H1064 0.929 . S
C1024 C1022 1.356 . S
C1024 C1026 1.358 . S
C1024 H1065 0.930 . S
C1025 C1023 1.353 . S
C1025 N1027 1.314 . S
C1025 H1066 0.930 . S
C1026 C1024 1.358 . S
C1026 N1027 1.279 . S
C1026 H1067 0.930 . S
N1027 C1025 1.314 . S
N1027 C1026 1.279 . S
C1028 C1030 1.353 . S
C1028 N1031 1.314 . S
C1028 H1034 0.930 . S
C1029 N1031 1.279 . S
C1029 C1032 1.358 . S
C1029 H1035 0.930 . S
C1030 C1028 1.353 . S
C1030 C1033 1.348 . S
C1030 H1068 0.929 . S
N1031 Li986 1.990 . S
N1031 C1028 1.314 . S
N1031 C1029 1.279 . S
C1032 C1029 1.358 . S
C1032 C1033 1.356 . S
C1032 H1069 0.930 . S
C1033 C1030 1.348 . S
C1033 C1032 1.356 . S
H1034 C1028 0.930 . S
H1035 C1029 0.930 . S
C1036 N1037 1.314 . S
C1036 C1038 1.353 . S
C1036 H1042 0.930 . S
N1037 Li987 1.990 . S
N1037 C1036 1.314 . S
N1037 C1040 1.279 . S
C1038 C1036 1.353 . S
C1038 C1041 1.348 . S
C1038 H1070 0.929 . S
C1039 C1040 1.358 . S
C1039 C1041 1.356 . S
C1039 H1071 0.930 . S
C1040 N1037 1.279 . S
C1040 C1039 1.358 . S
C1040 H1043 0.930 . S
C1041 C1038 1.348 . S
C1041 C1039 1.356 . S
H1042 C1036 0.930 . S
H1043 C1040 0.930 . S
O1044 Li984 1.956 . S
O1044 Li985 1.970 . S
O1044 Li986 1.961 . S
O1044 C988 1.325 . S
O1045 Li984 1.970 . S
O1045 Li985 1.956 . S
O1045 Li987 1.961 . S
O1045 C994 1.325 . S
O1046 Li984 1.961 . S
O1046 Li986 1.956 . S
O1046 Li987 1.970 . S
O1046 C1016 1.325 . S
O1047 Li985 1.961 . S
O1047 Li986 1.970 . S
O1047 Li987 1.956 . S
O1047 C1022 1.325 . S
H1048 C990 0.929 . S
H1049 C991 0.930 . S
H1050 C992 0.930 . S
H1051 C993 0.930 . S
H1052 C995 0.930 . S
H1053 C997 0.929 . S
H1054 C998 0.930 . S
H1055 C999 0.930 . S
H1056 C1002 0.930 . S
H1057 C1005 0.929 . S
H1058 C1010 0.929 . S
H1059 C1011 0.930 . S
H1060 C1018 0.929 . S
H1061 C1019 0.930 . S
H1062 C1020 0.930 . S
H1063 C1021 0.930 . S
H1064 C1023 0.929 . S
H1065 C1024 0.930 . S
H1066 C1025 0.930 . S
H1067 C1026 0.930 . S
H1068 C1030 0.929 . S
H1069 C1032 0.930 . S
H1070 C1038 0.929 . S
H1071 C1039 0.930 . S
Li1072 N1089 1.990 . S
Li1072 O1132 1.956 . S
Li1072 O1133 1.970 1_455 S
Li1072 O1134 1.961 . S
Li1073 N1097 1.990 . S
Li1073 O1132 1.970 1_655 S
Li1073 O1133 1.956 . S
Li1073 O1135 1.961 1_655 S
Li1074 N1119 1.990 . S
Li1074 O1132 1.961 . S
Li1074 O1134 1.956 . S
Li1074 O1135 1.970 . S
Li1075 N1125 1.990 1_455 S
Li1075 O1133 1.961 1_455 S
Li1075 O1134 1.970 . S
Li1075 O1135 1.956 . S
C1076 C1078 1.360 . S
C1076 C1079 1.356 . S
C1076 O1132 1.325 . S
N1077 C1080 1.314 . S
N1077 C1081 1.279 . S
C1078 C1076 1.360 . S
C1078 C1080 1.355 . S
C1078 H1136 0.915 1_455 S
C1079 C1076 1.356 . S
C1079 C1081 1.358 . S
C1079 H1137 0.930 . S
C1080 N1077 1.314 . S
C1080 C1078 1.355 . S
C1080 H1138 0.930 1_455 S
C1081 N1077 1.279 . S
C1081 C1079 1.358 . S
C1081 H1139 0.930 . S
C1082 C1085 1.348 . S
C1082 C1086 1.356 . S
C1082 O1133 1.325 . S
C1083 N1084 1.279 . S
C1083 C1086 1.358 . S
C1083 H1140 0.930 . S
N1084 C1083 1.279 . S
N1084 C1087 1.314 . S
C1085 C1082 1.348 . S
C1085 C1087 1.353 . S
C1085 H1141 0.929 . S
C1086 C1082 1.356 . S
C1086 C1083 1.358 . S
C1086 H1142 0.930 . S
C1087 N1084 1.314 . S
C1087 C1085 1.353 . S
C1087 H1143 0.930 . S
C1088 N1089 1.314 . S
C1088 C1093 1.353 . S
C1088 H1094 0.930 . S
N1089 Li1072 1.990 . S
N1089 C1088 1.314 . S
N1089 C1091 1.279 . S
C1090 C1091 1.358 . S
C1090 C1092 1.356 . S
C1090 H1144 0.930 . S
C1091 N1089 1.279 . S
C1091 C1090 1.358 . S
C1091 H1095 0.930 . S
C1092 C1090 1.356 . S
C1092 C1093 1.348 . S
C1093 C1088 1.353 . S
C1093 C1092 1.348 . S
C1093 H1145 0.929 . S
H1094 C1088 0.930 . S
H1095 C1091 0.930 . S
C1096 N1097 1.314 . S
C1096 C1098 1.353 . S
C1096 H1102 0.930 . S
N1097 Li1073 1.990 . S
N1097 C1096 1.314 . S
N1097 C1100 1.279 . S
C1098 C1096 1.353 . S
C1098 C1101 1.348 . S
C1098 H1146 0.929 . S
C1099 C1100 1.358 . S
C1099 C1101 1.356 . S
C1099 H1147 0.930 . S
C1100 N1097 1.279 . S
C1100 C1099 1.358 . S
C1100 H1103 0.930 . S
C1101 C1098 1.348 . S
C1101 C1099 1.356 . S
H1102 C1096 0.930 . S
H1103 C1100 0.930 . S
C1104 C1106 1.348 . S
C1104 C1107 1.356 . S
C1104 O1134 1.325 . S
N1105 C1108 1.314 . S
N1105 C1109 1.279 . S
C1106 C1104 1.348 . S
C1106 C1108 1.353 . S
C1106 H1148 0.929 . S
C1107 C1104 1.356 . S
C1107 C1109 1.358 . S
C1107 H1149 0.930 . S
C1108 N1105 1.314 . S
C1108 C1106 1.353 . S
C1108 H1150 0.930 . S
C1109 N1105 1.279 . S
C1109 C1107 1.358 . S
C1109 H1151 0.930 . S
C1110 C1111 1.348 . S
C1110 C1112 1.356 1_455 S
C1110 O1135 1.325 . S
C1111 C1110 1.348 . S
C1111 C1113 1.353 . S
C1111 H1152 0.929 . S
C1112 C1110 1.356 1_655 S
C1112 C1114 1.358 . S
C1112 H1153 0.930 . S
C1113 C1111 1.353 . S
C1113 N1115 1.314 1_455 S
C1113 H1154 0.930 . S
C1114 C1112 1.358 . S
C1114 N1115 1.279 . S
C1114 H1155 0.930 . S
N1115 C1113 1.314 1_655 S
N1115 C1114 1.279 . S
C1116 C1118 1.353 . S
C1116 N1119 1.314 . S
C1116 H1122 0.930 . S
C1117 N1119 1.279 . S
C1117 C1120 1.358 . S
C1117 H1123 0.930 . S
C1118 C1116 1.353 . S
C1118 C1121 1.348 . S
C1118 H1156 0.929 . S
N1119 Li1074 1.990 . S
N1119 C1116 1.314 . S
N1119 C1117 1.279 . S
C1120 C1117 1.358 . S
C1120 C1121 1.356 . S
C1120 H1157 0.930 . S
C1121 C1118 1.348 . S
C1121 C1120 1.356 . S
H1122 C1116 0.930 . S
H1123 C1117 0.930 . S
C1124 N1125 1.314 . S
C1124 C1126 1.353 . S
C1124 H1130 0.930 . S
N1125 Li1075 1.990 1_655 S
N1125 C1124 1.314 . S
N1125 C1128 1.279 . S
C1126 C1124 1.353 . S
C1126 C1129 1.348 . S
C1126 H1158 0.929 . S
C1127 C1128 1.358 . S
C1127 C1129 1.356 . S
C1127 H1159 0.930 . S
C1128 N1125 1.279 . S
C1128 C1127 1.358 . S
C1128 H1131 0.930 1_655 S
C1129 C1126 1.348 . S
C1129 C1127 1.356 . S
H1130 C1124 0.930 . S
H1131 C1128 0.930 1_455 S
O1132 Li1072 1.956 . S
O1132 Li1073 1.970 1_455 S
O1132 Li1074 1.961 . S
O1132 C1076 1.325 . S
O1133 Li1072 1.970 1_655 S
O1133 Li1073 1.956 . S
O1133 Li1075 1.961 1_655 S
O1133 C1082 1.325 . S
O1134 Li1072 1.961 . S
O1134 Li1074 1.956 . S
O1134 Li1075 1.970 . S
O1134 C1104 1.325 . S
O1135 Li1073 1.961 1_455 S
O1135 Li1074 1.970 . S
O1135 Li1075 1.956 . S
O1135 C1110 1.325 . S
H1136 C1078 0.915 1_655 S
H1137 C1079 0.930 . S
H1138 C1080 0.930 1_655 S
H1139 C1081 0.930 . S
H1140 C1083 0.930 . S
H1141 C1085 0.929 . S
H1142 C1086 0.930 . S
H1143 C1087 0.930 . S
H1144 C1090 0.930 . S
H1145 C1093 0.929 . S
H1146 C1098 0.929 . S
H1147 C1099 0.930 . S
H1148 C1106 0.929 . S
H1149 C1107 0.930 . S
H1150 C1108 0.930 . S
H1151 C1109 0.930 . S
H1152 C1111 0.929 . S
H1153 C1112 0.930 . S
H1154 C1113 0.930 . S
H1155 C1114 0.930 . S
H1156 C1118 0.929 . S
H1157 C1120 0.930 . S
H1158 C1126 0.929 . S
H1159 C1127 0.930 . S
Li1160 N1177 1.990 . S
Li1160 O1220 1.956 . S
Li1160 O1221 1.970 . S
Li1160 O1222 1.961 . S
Li1161 N1185 1.990 . S
Li1161 O1220 1.970 . S
Li1161 O1221 1.956 . S
Li1161 O1223 1.961 . S
Li1162 N1207 1.990 . S
Li1162 O1220 1.961 . S
Li1162 O1222 1.956 . S
Li1162 O1223 1.970 . S
Li1163 N1213 1.990 . S
Li1163 O1221 1.961 . S
Li1163 O1222 1.970 . S
Li1163 O1223 1.956 . S
C1164 C1166 1.348 . S
C1164 C1167 1.356 . S
C1164 O1220 1.325 . S
N1165 C1168 1.314 . S
N1165 C1169 1.279 . S
C1166 C1164 1.348 . S
C1166 C1168 1.353 . S
C1166 H1224 0.929 . S
C1167 C1164 1.356 . S
C1167 C1169 1.358 . S
C1167 H1225 0.930 . S
C1168 N1165 1.314 . S
C1168 C1166 1.353 . S
C1168 H1226 0.930 . S
C1169 N1165 1.279 . S
C1169 C1167 1.358 . S
C1169 H1227 0.930 . S
C1170 C1173 1.348 . S
C1170 C1174 1.356 . S
C1170 O1221 1.325 . S
C1171 N1172 1.279 . S
C1171 C1174 1.358 . S
C1171 H1228 0.930 . S
N1172 C1171 1.279 . S
N1172 C1175 1.314 . S
C1173 C1170 1.348 . S
C1173 C1175 1.353 . S
C1173 H1229 0.929 . S
C1174 C1170 1.356 . S
C1174 C1171 1.358 . S
C1174 H1230 0.930 . S
C1175 N1172 1.314 . S
C1175 C1173 1.353 . S
C1175 H1231 0.930 . S
C1176 N1177 1.314 . S
C1176 C1181 1.353 . S
C1176 H1182 0.930 . S
N1177 Li1160 1.990 . S
N1177 C1176 1.314 . S
N1177 C1179 1.279 . S
C1178 C1179 1.358 . S
C1178 C1180 1.356 . S
C1178 H1232 0.930 . S
C1179 N1177 1.279 . S
C1179 C1178 1.358 . S
C1179 H1183 0.930 . S
C1180 C1178 1.356 . S
C1180 C1181 1.348 . S
C1181 C1176 1.353 . S
C1181 C1180 1.348 . S
C1181 H1233 0.929 . S
H1182 C1176 0.930 . S
H1183 C1179 0.930 . S
C1184 N1185 1.314 . S
C1184 C1186 1.353 . S
C1184 H1190 0.930 . S
N1185 Li1161 1.990 . S
N1185 C1184 1.314 . S
N1185 C1188 1.279 . S
C1186 C1184 1.353 . S
C1186 C1189 1.348 . S
C1186 H1234 0.929 . S
C1187 C1188 1.358 . S
C1187 C1189 1.356 . S
C1187 H1235 0.930 . S
C1188 N1185 1.279 . S
C1188 C1187 1.358 . S
C1188 H1191 0.930 . S
C1189 C1186 1.348 . S
C1189 C1187 1.356 . S
H1190 C1184 0.930 . S
H1191 C1188 0.930 . S
C1192 C1194 1.348 . S
C1192 C1195 1.356 . S
C1192 O1222 1.325 . S
N1193 C1196 1.314 . S
N1193 C1197 1.279 . S
C1194 C1192 1.348 . S
C1194 C1196 1.353 . S
C1194 H1236 0.929 . S
C1195 C1192 1.356 . S
C1195 C1197 1.358 . S
C1195 H1237 0.930 . S
C1196 N1193 1.314 . S
C1196 C1194 1.353 . S
C1196 H1238 0.930 . S
C1197 N1193 1.279 . S
C1197 C1195 1.358 . S
C1197 H1239 0.930 . S
C1198 C1199 1.348 . S
C1198 C1200 1.356 . S
C1198 O1223 1.325 . S
C1199 C1198 1.348 . S
C1199 C1201 1.353 . S
C1199 H1240 0.929 . S
C1200 C1198 1.356 . S
C1200 C1202 1.358 . S
C1200 H1241 0.930 . S
C1201 C1199 1.353 . S
C1201 N1203 1.314 . S
C1201 H1242 0.930 . S
C1202 C1200 1.358 . S
C1202 N1203 1.279 . S
C1202 H1243 0.930 . S
N1203 C1201 1.314 . S
N1203 C1202 1.279 . S
C1204 C1206 1.353 . S
C1204 N1207 1.314 . S
C1204 H1210 0.930 . S
C1205 N1207 1.279 . S
C1205 C1208 1.358 . S
C1205 H1211 0.930 . S
C1206 C1204 1.353 . S
C1206 C1209 1.348 . S
C1206 H1244 0.929 . S
N1207 Li1162 1.990 . S
N1207 C1204 1.314 . S
N1207 C1205 1.279 . S
C1208 C1205 1.358 . S
C1208 C1209 1.356 . S
C1208 H1245 0.930 . S
C1209 C1206 1.348 . S
C1209 C1208 1.356 . S
H1210 C1204 0.930 . S
H1211 C1205 0.930 . S
C1212 N1213 1.314 . S
C1212 C1214 1.353 . S
C1212 H1218 0.930 . S
N1213 Li1163 1.990 . S
N1213 C1212 1.314 . S
N1213 C1216 1.279 . S
C1214 C1212 1.353 . S
C1214 C1217 1.348 . S
C1214 H1246 0.929 1_554 S
C1215 C1216 1.358 . S
C1215 C1217 1.356 . S
C1215 H1247 0.930 . S
C1216 N1213 1.279 . S
C1216 C1215 1.358 . S
C1216 H1219 0.930 . S
C1217 C1214 1.348 . S
C1217 C1215 1.356 . S
H1218 C1212 0.930 . S
H1219 C1216 0.930 . S
O1220 Li1160 1.956 . S
O1220 Li1161 1.970 . S
O1220 Li1162 1.961 . S
O1220 C1164 1.325 . S
O1221 Li1160 1.970 . S
O1221 Li1161 1.956 . S
O1221 Li1163 1.961 . S
O1221 C1170 1.325 . S
O1222 Li1160 1.961 . S
O1222 Li1162 1.956 . S
O1222 Li1163 1.970 . S
O1222 C1192 1.325 . S
O1223 Li1161 1.961 . S
O1223 Li1162 1.970 . S
O1223 Li1163 1.956 . S
O1223 C1198 1.325 . S
H1224 C1166 0.929 . S
H1225 C1167 0.930 . S
H1226 C1168 0.930 . S
H1227 C1169 0.930 . S
H1228 C1171 0.930 . S
H1229 C1173 0.929 . S
H1230 C1174 0.930 . S
H1231 C1175 0.930 . S
H1232 C1178 0.930 . S
H1233 C1181 0.929 . S
H1234 C1186 0.929 . S
H1235 C1187 0.930 . S
H1236 C1194 0.929 . S
H1237 C1195 0.930 . S
H1238 C1196 0.930 . S
H1239 C1197 0.930 . S
H1240 C1199 0.929 . S
H1241 C1200 0.930 . S
H1242 C1201 0.930 . S
H1243 C1202 0.930 . S
H1244 C1206 0.929 . S
H1245 C1208 0.930 . S
H1246 C1214 0.929 1_556 S
H1247 C1215 0.930 . S
C241 C66 2.142 . S
C300 C76 1.184 . S
C93 C417 2.288 . S
C485 C54 1.730 . S
C564 C126 1.743 . S
C689 C150 2.276 . S
C136 C749 1.091 . S
C857 C117 2.225 . S
C141 C953 1.283 . S
C1013 C112 1.305 . S
C124 C916 1.622 . S
C1033 C148 1.301 . S
C88 C1101 1.374 . S
C52 C1092 1.676 . S
C64 C1121 1.173 . S
C78 C1129 1.114 . S
C45 C513 1.861 . S
C177 C476 2.205 . S
C212 C189 1.424 1_564 S
C309 C102 1.781 . S
C57 C573 1.885 . S
C865 C138 1.497 . S
C593 C114 2.143 . S
C777 C153 1.943 . S
C769 C174 2.142 . S
C184 C837 1.183 . S
C105 C601 2.287 . S
C652 C162 1.730 . S
C42 C397 1.743 . S
C505 C6 2.277 . S
C221 C16 1.091 . S
C337 C33 2.225 . S
C21 C1041 1.284 . S
C28 C925 1.305 . S
C40 C1004 1.622 . S
C4 C945 1.301 . S
C1189 C100 1.374 . S
C1180 C160 1.677 . S
C1209 C172 1.173 . S
C186 C1217 1.114 . S
C129 C681 1.862 . S
C661 C69 2.205 . S
C740 C81 1.424 . S
C828 C90 1.781 . S
C165 C388 1.885 . S
C329 C18 1.496 . S
C30 C425 2.143 . S
C249 C9 1.943 1_565 S
