# Generated by pormake.
# Topology sqc, (4,8)-cn, num edge types: 1
# Building blocks:
#     Node 0, Type 0, BuildingBlock: NAHDIM_clean_linker_0, # of connection points: 4
#     Node 1, Type 0, BuildingBlock: NAHDIM_clean_linker_0, # of connection points: 4
#     Node 2, Type 0, BuildingBlock: NAHDIM_clean_linker_0, # of connection points: 4
#     Node 3, Type 0, BuildingBlock: NAHDIM_clean_linker_0, # of connection points: 4
#     Node 4, Type 0, BuildingBlock: NAHDIM_clean_linker_0, # of connection points: 4
#     Node 5, Type 0, BuildingBlock: NAHDIM_clean_linker_0, # of connection points: 4
#     Node 6, Type 0, BuildingBlock: NAHDIM_clean_linker_0, # of connection points: 4
#     Node 7, Type 0, BuildingBlock: NAHDIM_clean_linker_0, # of connection points: 4
#     Node 8, Type 1, BuildingBlock: VETTIZ_charged_sbu_0, # of connection points: 8
#     Node 9, Type 1, BuildingBlock: VETTIZ_charged_sbu_0, # of connection points: 8
#     Node 10, Type 1, BuildingBlock: VETTIZ_charged_sbu_0, # of connection points: 8
#     Node 11, Type 1, BuildingBlock: VETTIZ_charged_sbu_0, # of connection points: 8
#     Edge 12, Type (0, 1), BuildingBlock: UVAHIK_clean_linker_0, # of connection points: 2
#     Edge 13, Type (0, 1), BuildingBlock: UVAHIK_clean_linker_0, # of connection points: 2
#     Edge 14, Type (0, 1), BuildingBlock: UVAHIK_clean_linker_0, # of connection points: 2
#     Edge 15, Type (0, 1), BuildingBlock: UVAHIK_clean_linker_0, # of connection points: 2
#     Edge 16, Type (0, 1), BuildingBlock: UVAHIK_clean_linker_0, # of connection points: 2
#     Edge 17, Type (0, 1), BuildingBlock: UVAHIK_clean_linker_0, # of connection points: 2
#     Edge 18, Type (0, 1), BuildingBlock: UVAHIK_clean_linker_0, # of connection points: 2
#     Edge 19, Type (0, 1), BuildingBlock: UVAHIK_clean_linker_0, # of connection points: 2
#     Edge 20, Type (0, 1), BuildingBlock: UVAHIK_clean_linker_0, # of connection points: 2
#     Edge 21, Type (0, 1), BuildingBlock: UVAHIK_clean_linker_0, # of connection points: 2
#     Edge 22, Type (0, 1), BuildingBlock: UVAHIK_clean_linker_0, # of connection points: 2
#     Edge 23, Type (0, 1), BuildingBlock: UVAHIK_clean_linker_0, # of connection points: 2
#     Edge 24, Type (0, 1), BuildingBlock: UVAHIK_clean_linker_0, # of connection points: 2
#     Edge 25, Type (0, 1), BuildingBlock: UVAHIK_clean_linker_0, # of connection points: 2
#     Edge 26, Type (0, 1), BuildingBlock: UVAHIK_clean_linker_0, # of connection points: 2
#     Edge 27, Type (0, 1), BuildingBlock: UVAHIK_clean_linker_0, # of connection points: 2
#     Edge 28, Type (0, 1), BuildingBlock: UVAHIK_clean_linker_0, # of connection points: 2
#     Edge 29, Type (0, 1), BuildingBlock: UVAHIK_clean_linker_0, # of connection points: 2
#     Edge 30, Type (0, 1), BuildingBlock: UVAHIK_clean_linker_0, # of connection points: 2
#     Edge 31, Type (0, 1), BuildingBlock: UVAHIK_clean_linker_0, # of connection points: 2
#     Edge 32, Type (0, 1), BuildingBlock: UVAHIK_clean_linker_0, # of connection points: 2
#     Edge 33, Type (0, 1), BuildingBlock: UVAHIK_clean_linker_0, # of connection points: 2
#     Edge 34, Type (0, 1), BuildingBlock: UVAHIK_clean_linker_0, # of connection points: 2
#     Edge 35, Type (0, 1), BuildingBlock: UVAHIK_clean_linker_0, # of connection points: 2
#     Edge 36, Type (0, 1), BuildingBlock: UVAHIK_clean_linker_0, # of connection points: 2
#     Edge 37, Type (0, 1), BuildingBlock: UVAHIK_clean_linker_0, # of connection points: 2
#     Edge 38, Type (0, 1), BuildingBlock: UVAHIK_clean_linker_0, # of connection points: 2
#     Edge 39, Type (0, 1), BuildingBlock: UVAHIK_clean_linker_0, # of connection points: 2
#     Edge 40, Type (0, 1), BuildingBlock: UVAHIK_clean_linker_0, # of connection points: 2
#     Edge 41, Type (0, 1), BuildingBlock: UVAHIK_clean_linker_0, # of connection points: 2
#     Edge 42, Type (0, 1), BuildingBlock: UVAHIK_clean_linker_0, # of connection points: 2
#     Edge 43, Type (0, 1), BuildingBlock: UVAHIK_clean_linker_0, # of connection points: 2
# Relax obj value: 0.110
# Max RMSD: 0.261
# Mean RMSD: 0.120
data_MOF--net-sqc--node1-VETTIZ_charged_sbu_0--node2-NAHDIM_clean_linker_0--edge1-UVAHIK_clean_linker_0
_symmetry_space_group_name_H-M    P1
_symmetry_Int_Tables_number       1
_symmetry_cell_setting            triclinic
loop_
_symmetry_equiv_pos_as_xyz
'x, y, z'
_cell_length_a     37.7791
_cell_length_b     37.745784
_cell_length_c     122.5614
_cell_angle_alpha  89.628998
_cell_angle_beta   89.631477
_cell_angle_gamma 90.015449
loop_
_atom_site_label
_atom_site_type_symbol
_atom_site_fract_x
_atom_site_fract_y
_atom_site_fract_z
_atom_type_partial_charge
C0 C 0.88196 0.90983 0.45289 0.0
C1 C 0.85798 0.90941 0.46302 0.0
C2 C 0.88825 0.9504 0.47497 0.0
C3 C 0.90153 0.92699 0.48288 0.0
C4 C 0.93166 0.93569 0.4889 0.0
C5 C 0.94859 0.96862 0.48703 0.0
C6 C 0.93418 0.99305 0.47947 0.0
C7 C 0.90385 0.9837 0.47359 0.0
C8 C 0.94594 0.90934 0.49708 0.0
C9 C 0.95142 0.02852 0.47741 0.0
C10 C 0.116 0.91703 0.44566 0.0
C11 C 0.14908 0.93222 0.45111 0.0
C12 C 0.12829 0.93529 0.46995 0.0
C13 C 0.11846 0.97115 0.4703 0.0
C14 C 0.09336 0.98304 0.47791 0.0
C15 C 0.0779 0.95859 0.48532 0.0
C16 C 0.08944 0.92294 0.48545 0.0
C17 C 0.11487 0.91182 0.4778 0.0
C18 C 0.0823 0.02146 0.47776 0.0
C19 C 0.07367 0.8963 0.49331 0.0
C20 C 0.15577 0.02157 0.55098 0.0
C21 C 0.14672 0.0504 0.54428 0.0
C22 C 0.11345 0.05202 0.53926 0.0
C23 C 0.08899 0.02406 0.54093 0.0
C24 C 0.09756 0.99576 0.54807 0.0
C25 C 0.13077 0.99517 0.55313 0.0
C26 C 0.10466 0.08323 0.53202 0.0
C27 C 0.07198 0.96572 0.55016 0.0
C28 C 0.81912 0.04459 0.54007 0.0
C29 C 0.82861 0.0483 0.55216 0.0
C30 C 0.89215 0.05943 0.54994 0.0
C31 C 0.91476 0.08616 0.54614 0.0
C32 C 0.94801 0.07799 0.54164 0.0
C33 C 0.95912 0.04224 0.54123 0.0
C34 C 0.93745 0.01536 0.54582 0.0
C35 C 0.90401 0.02417 0.55002 0.0
C36 C 0.97055 0.10731 0.53688 0.0
C37 C 0.94902 0.97708 0.54589 0.0
C38 C 0.98273 0.97617 0.49242 0.0
C39 C 0.01358 0.9658 0.48702 0.0
C40 C 0.04669 0.96937 0.49187 0.0
C41 C 0.04928 0.98321 0.50252 0.0
C42 C 0.08201 0.98589 0.50783 0.0
C43 C 0.08406 0.99891 0.51841 0.0
C44 C 0.05351 0.01037 0.52401 0.0
C45 C 0.05521 0.02338 0.53481 0.0
C46 C 0.02426 0.03432 0.54014 0.0
C47 C 0.99141 0.0324 0.53499 0.0
C48 C 0.98919 0.01954 0.5242 0.0
C49 C 0.95649 0.01726 0.5188 0.0
C50 C 0.9543 0.00313 0.50838 0.0
C51 C 0.98477 0.9913 0.50289 0.0
C52 C 0.01815 0.99442 0.50803 0.0
C53 C 0.02032 0.00832 0.51873 0.0
C54 C 0.23591 0.98751 0.54733 0.0
C55 C 0.22012 0.02364 0.55015 0.0
O56 O 0.8608 0.94138 0.46847 0.0
O57 O 0.85901 0.06862 0.55325 0.0
O58 O 0.18819 0.01873 0.5556 0.0
O59 O 0.14992 0.92234 0.46203 0.0
H60 H 0.86651 0.88711 0.46835 0.0
H61 H 0.91004 0.91282 0.45535 0.0
H62 H 0.87496 0.93225 0.44739 0.0
H63 H 0.87938 0.88458 0.44835 0.0
H64 H 0.88849 0.90187 0.48436 0.0
H65 H 0.893 0.00179 0.46758 0.0
H66 H 0.97305 0.90117 0.49461 0.0
H67 H 0.92911 0.88529 0.4978 0.0
H68 H 0.94783 0.92189 0.50522 0.0
H69 H 0.93569 0.04547 0.4718 0.0
H70 H 0.97812 0.02448 0.47378 0.0
H71 H 0.95496 0.04268 0.48524 0.0
H72 H 0.14809 0.96151 0.45029 0.0
H73 H 0.11593 0.92378 0.43682 0.0
H74 H 0.09181 0.92851 0.44943 0.0
H75 H 0.11494 0.88776 0.44664 0.0
H76 H 0.13 0.98998 0.46463 0.0
H77 H 0.1231 0.88433 0.47758 0.0
H78 H 0.08376 0.03258 0.48611 0.0
H79 H 0.05437 0.0235 0.47506 0.0
H80 H 0.09906 0.03777 0.4722 0.0
H81 H 0.08749 0.87035 0.49299 0.0
H82 H 0.04534 0.89214 0.49133 0.0
H83 H 0.07489 0.90659 0.50177 0.0
H84 H 0.21615 0.0381 0.5423 0.0
H85 H 0.16556 0.07169 0.54301 0.0
H86 H 0.13785 0.97341 0.5585 0.0
H87 H 0.10327 0.0744 0.52341 0.0
H88 H 0.12471 0.10467 0.53257 0.0
H89 H 0.07831 0.09413 0.53426 0.0
H90 H 0.08334 0.94485 0.55553 0.0
H91 H 0.0642 0.95352 0.54231 0.0
H92 H 0.04757 0.97614 0.55408 0.0
H93 H 0.83286 0.02154 0.55574 0.0
H94 H 0.79441 0.02893 0.53917 0.0
H95 H 0.8406 0.03059 0.53562 0.0
H96 H 0.81534 0.07111 0.53626 0.0
H97 H 0.90556 0.11335 0.54626 0.0
H98 H 0.88735 0.00333 0.55329 0.0
H99 H 0.97481 0.10265 0.52803 0.0
H100 H 0.99692 0.10725 0.54082 0.0
H101 H 0.9583 0.13382 0.53795 0.0
H102 H 0.93213 0.96044 0.55133 0.0
H103 H 0.97695 0.97483 0.54859 0.0
H104 H 0.94746 0.96638 0.5375 0.0
H105 H 0.01176 0.95445 0.47892 0.0
H106 H 0.10633 0.97753 0.50389 0.0
H107 H 0.10994 0.99989 0.52213 0.0
H108 H 0.02568 0.04378 0.54846 0.0
H109 H 0.9321 0.02607 0.52258 0.0
H110 H 0.92841 0.00163 0.50467 0.0
H111 H 0.24013 0.97141 0.55483 0.0
H112 H 0.26161 0.99087 0.54298 0.0
H113 H 0.21758 0.97292 0.54191 0.0
C114 C 0.10353 0.88829 0.81008 0.0
C115 C 0.14168 0.89947 0.80759 0.0
C116 C 0.16453 0.87218 0.7911 0.0
C117 C 0.19853 0.86158 0.79424 0.0
C118 C 0.21629 0.83447 0.78864 0.0
C119 C 0.19947 0.81754 0.77979 0.0
C120 C 0.16505 0.82822 0.77665 0.0
C121 C 0.14831 0.85598 0.78223 0.0
C122 C 0.25308 0.82403 0.79213 0.0
C123 C 0.14592 0.8103 0.76742 0.0
C124 C 0.17703 0.53073 0.79013 0.0
C125 C 0.18358 0.56214 0.78298 0.0
C126 C 0.21429 0.61916 0.7835 0.0
C127 C 0.19511 0.6342 0.77484 0.0
C128 C 0.2009 0.66937 0.77156 0.0
C129 C 0.22684 0.68986 0.77692 0.0
C130 C 0.24616 0.67492 0.78565 0.0
C131 C 0.23956 0.63969 0.78884 0.0
C132 C 0.17937 0.68454 0.76229 0.0
C133 C 0.27402 0.69605 0.79149 0.0
C134 C 0.36945 0.66515 0.72037 0.0
C135 C 0.33274 0.66521 0.71896 0.0
C136 C 0.31216 0.69391 0.72253 0.0
C137 C 0.32877 0.72256 0.72789 0.0
C138 C 0.36609 0.72303 0.72893 0.0
C139 C 0.38605 0.6944 0.72501 0.0
C140 C 0.27262 0.69304 0.72091 0.0
C141 C 0.38472 0.75314 0.73455 0.0
C142 C 0.20589 0.98387 0.71799 0.0
C143 C 0.24255 0.96928 0.71512 0.0
C144 C 0.25201 0.90511 0.71552 0.0
C145 C 0.23236 0.87406 0.71443 0.0
C146 C 0.24292 0.84253 0.71956 0.0
C147 C 0.27436 0.84203 0.72579 0.0
C148 C 0.29567 0.87278 0.72632 0.0
C149 C 0.28431 0.90409 0.72115 0.0
C150 C 0.21979 0.81007 0.71867 0.0
C151 C 0.32977 0.87277 0.73265 0.0
C152 C 0.21807 0.78887 0.77381 0.0
C153 C 0.21691 0.75457 0.7782 0.0
C154 C 0.23419 0.72648 0.77303 0.0
C155 C 0.25452 0.7329 0.76351 0.0
C156 C 0.27455 0.70587 0.75862 0.0
C157 C 0.29293 0.71194 0.74892 0.0
C158 C 0.29075 0.74484 0.74349 0.0
C159 C 0.30709 0.75051 0.7332 0.0
C160 C 0.30247 0.78288 0.72775 0.0
C161 C 0.28284 0.81027 0.73249 0.0
C162 C 0.26844 0.80586 0.74309 0.0
C163 C 0.25053 0.83361 0.7484 0.0
C164 C 0.23522 0.82855 0.75865 0.0
C165 C 0.2358 0.79511 0.76377 0.0
C166 C 0.25421 0.76699 0.75864 0.0
C167 C 0.27143 0.77267 0.74845 0.0
C168 C 0.41233 0.60555 0.73284 0.0
C169 C 0.38753 0.60458 0.72301 0.0
O170 O 0.14713 0.89842 0.79639 0.0
O171 O 0.23898 0.93534 0.71102 0.0
O172 O 0.38909 0.63669 0.71747 0.0
O173 O 0.20896 0.58522 0.78696 0.0
H174 H 0.15949 0.88042 0.81185 0.0
H175 H 0.09881 0.86113 0.80697 0.0
H176 H 0.08455 0.90669 0.8061 0.0
H177 H 0.09854 0.88812 0.81903 0.0
H178 H 0.21135 0.87488 0.80095 0.0
H179 H 0.1221 0.86464 0.77986 0.0
H180 H 0.25286 0.79619 0.79511 0.0
H181 H 0.26334 0.84124 0.79872 0.0
H182 H 0.2715 0.82546 0.78505 0.0
H183 H 0.11784 0.81881 0.76687 0.0
H184 H 0.14676 0.78108 0.76851 0.0
H185 H 0.15933 0.81672 0.75958 0.0
H186 H 0.18724 0.55625 0.77414 0.0
H187 H 0.12465 0.53779 0.79553 0.0
H188 H 0.20013 0.52893 0.79588 0.0
H189 H 0.1855 0.5073 0.7851 0.0
H190 H 0.17557 0.61867 0.77057 0.0
H191 H 0.2542 0.62794 0.79552 0.0
H192 H 0.19682 0.68908 0.7551 0.0
H193 H 0.16792 0.71051 0.76465 0.0
H194 H 0.15751 0.66664 0.75985 0.0
H195 H 0.28752 0.68028 0.79792 0.0
H196 H 0.26165 0.71963 0.79531 0.0
H197 H 0.29414 0.70576 0.78554 0.0
H198 H 0.36006 0.59982 0.72607 0.0
H199 H 0.32027 0.64261 0.71516 0.0
H200 H 0.41455 0.69405 0.72594 0.0
H201 H 0.25931 0.68744 0.72884 0.0
H202 H 0.26465 0.67229 0.71503 0.0
H203 H 0.26302 0.71915 0.71794 0.0
H204 H 0.41383 0.7492 0.73487 0.0
H205 H 0.3744 0.75585 0.74301 0.0
H206 H 0.37919 0.77837 0.73017 0.0
H207 H 0.25767 0.96909 0.72289 0.0
H208 H 0.20812 0.01136 0.7211 0.0
H209 H 0.19352 0.96715 0.72445 0.0
H210 H 0.18831 0.98383 0.71075 0.0
H211 H 0.20789 0.87497 0.70987 0.0
H212 H 0.3006 0.92764 0.72156 0.0
H213 H 0.20917 0.80286 0.72686 0.0
H214 H 0.23571 0.78732 0.71571 0.0
H215 H 0.1972 0.81427 0.71305 0.0
H216 H 0.3447 0.89794 0.73162 0.0
H217 H 0.34678 0.85041 0.72997 0.0
H218 H 0.32386 0.86875 0.74146 0.0
H219 H 0.20158 0.74951 0.78556 0.0
H220 H 0.27633 0.67973 0.76227 0.0
H221 H 0.30804 0.69014 0.74559 0.0
H222 H 0.31369 0.78655 0.71965 0.0
H223 H 0.24827 0.85964 0.74471 0.0
H224 H 0.22202 0.85094 0.76235 0.0
H225 H 0.44002 0.6107 0.73015 0.0
H226 H 0.41132 0.57998 0.73738 0.0
H227 H 0.40405 0.62689 0.73851 0.0
C228 C 0.65431 0.95896 0.07745 0.0
C229 C 0.65826 0.94361 0.06599 0.0
C230 C 0.62115 0.96917 0.05177 0.0
C231 C 0.61041 0.93829 0.04641 0.0
C232 C 0.58055 0.93856 0.03965 0.0
C233 C 0.56123 0.97035 0.03825 0.0
C234 C 0.57237 0.00161 0.04355 0.0
C235 C 0.60259 0.00067 0.05012 0.0
C236 C 0.56974 0.905 0.03394 0.0
C237 C 0.55228 0.03594 0.0423 0.0
C238 C 0.2835 0.95149 0.0628 0.0
C239 C 0.31528 0.9668 0.05734 0.0
C240 C 0.36724 0.94785 0.04684 0.0
C241 C 0.38018 0.98226 0.04491 0.0
C242 C 0.41233 0.98767 0.03935 0.0
C243 C 0.43168 0.95813 0.03548 0.0
C244 C 0.41852 0.9235 0.03728 0.0
C245 C 0.38643 0.91884 0.04296 0.0
C246 C 0.42568 0.02504 0.03765 0.0
C247 C 0.43835 0.8915 0.0332 0.0
C248 C 0.37295 0.04118 0.97023 0.0
C249 C 0.38499 0.06244 0.97884 0.0
C250 C 0.41736 0.05547 0.98394 0.0
C251 C 0.43787 0.02609 0.98057 0.0
C252 C 0.42608 0.00475 0.97188 0.0
C253 C 0.39382 0.01274 0.96678 0.0
C254 C 0.4292 0.07925 0.99309 0.0
C255 C 0.44726 0.97318 0.96813 0.0
C256 C 0.69652 0.10751 0.98896 0.0
C257 C 0.69245 0.08944 0.97787 0.0
C258 C 0.62913 0.07912 0.97697 0.0
C259 C 0.60091 0.09878 0.98111 0.0
C260 C 0.56982 0.08206 0.98474 0.0
C261 C 0.56652 0.04481 0.98377 0.0
C262 C 0.59445 0.025 0.97904 0.0
C263 C 0.62575 0.04238 0.97581 0.0
C264 C 0.54071 0.10427 0.9897 0.0
C265 C 0.59134 0.98551 0.97749 0.0
C266 C 0.52963 0.97113 0.03114 0.0
C267 C 0.49699 0.96172 0.03574 0.0
C268 C 0.46585 0.96376 0.02967 0.0
C269 C 0.46733 0.97445 0.0186 0.0
C270 C 0.43669 0.97568 0.01217 0.0
C271 C 0.438 0.98859 0.00152 0.0
C272 C 0.46992 0.00113 0.99694 0.0
C273 C 0.47089 0.01722 0.9865 0.0
C274 C 0.50305 0.02935 0.98217 0.0
C275 C 0.5344 0.02678 0.98814 0.0
C276 C 0.53386 0.01105 0.99866 0.0
C277 C 0.5647 0.00857 0.00499 0.0
C278 C 0.5636 0.99445 0.0155 0.0
C279 C 0.53144 0.98321 0.02021 0.0
C280 C 0.50015 0.98493 0.01393 0.0
C281 C 0.50142 0.9985 0.0031 0.0
C282 C 0.29382 0.0611 0.97733 0.0
C283 C 0.31661 0.07269 0.96754 0.0
O284 O 0.64964 0.96963 0.05843 0.0
O285 O 0.65894 0.0964 0.97385 0.0
O286 O 0.34152 0.04688 0.9651 0.0
O287 O 0.33666 0.94152 0.05243 0.0
H288 H 0.63972 0.92073 0.06549 0.0
H289 H 0.62663 0.96797 0.07876 0.0
H290 H 0.67232 0.98195 0.07852 0.0
H291 H 0.66049 0.9385 0.08372 0.0
H292 H 0.6256 0.91415 0.04737 0.0
H293 H 0.61145 0.02442 0.05422 0.0
H294 H 0.54278 0.89709 0.03668 0.0
H295 H 0.58824 0.88275 0.03557 0.0
H296 H 0.56865 0.90979 0.02499 0.0
H297 H 0.56295 0.05719 0.04759 0.0
H298 H 0.52392 0.03177 0.04437 0.0
H299 H 0.55373 0.04507 0.03369 0.0
H300 H 0.33033 0.98604 0.06239 0.0
H301 H 0.2871 0.95728 0.07173 0.0
H302 H 0.28848 0.92218 0.06373 0.0
H303 H 0.24128 0.97196 0.05376 0.0
H304 H 0.36544 0.00503 0.04773 0.0
H305 H 0.3762 0.89241 0.04445 0.0
H306 H 0.42554 0.03164 0.02882 0.0
H307 H 0.45341 0.02729 0.04052 0.0
H308 H 0.40923 0.04487 0.04202 0.0
H309 H 0.42352 0.86648 0.03466 0.0
H310 H 0.46431 0.88966 0.03736 0.0
H311 H 0.4437 0.89435 0.02431 0.0
H312 H 0.33013 0.09791 0.9696 0.0
H313 H 0.36938 0.08443 0.98176 0.0
H314 H 0.38446 0.99645 0.96014 0.0
H315 H 0.42575 0.06516 0.001 0.0
H316 H 0.4137 0.10424 0.99342 0.0
H317 H 0.45766 0.086 0.99218 0.0
H318 H 0.43383 0.95841 0.96152 0.0
H319 H 0.45182 0.95489 0.97511 0.0
H320 H 0.47356 0.98212 0.9651 0.0
H321 H 0.6962 0.0604 0.97899 0.0
H322 H 0.72291 0.10177 0.9925 0.0
H323 H 0.67608 0.09745 0.99475 0.0
H324 H 0.69332 0.13666 0.98809 0.0
H325 H 0.60376 0.12726 0.98179 0.0
H326 H 0.64736 0.02744 0.97226 0.0
H327 H 0.53173 0.09258 0.99758 0.0
H328 H 0.51772 0.10474 0.98411 0.0
H329 H 0.54926 0.13202 0.99112 0.0
H330 H 0.61305 0.97486 0.97231 0.0
H331 H 0.56556 0.97893 0.97369 0.0
H332 H 0.59224 0.97201 0.98555 0.0
H333 H 0.49564 0.95382 0.04426 0.0
H334 H 0.41128 0.96704 0.01534 0.0
H335 H 0.41351 0.98922 0.99698 0.0
H336 H 0.50339 0.04261 0.97429 0.0
H337 H 0.59006 0.01772 0.00194 0.0
H338 H 0.5882 0.99323 0.01997 0.0
H339 H 0.27324 0.08135 0.97907 0.0
H340 H 0.31041 0.05804 0.98472 0.0
H341 H 0.2807 0.03532 0.97573 0.0
C342 C 0.14829 0.14471 0.19259 0.0
C343 C 0.17272 0.11864 0.19851 0.0
C344 C 0.18342 0.14294 0.21652 0.0
C345 C 0.22019 0.14807 0.21605 0.0
C346 C 0.23656 0.17347 0.22262 0.0
C347 C 0.21576 0.19371 0.22992 0.0
C348 C 0.17902 0.18706 0.23089 0.0
C349 C 0.16333 0.16146 0.22421 0.0
C350 C 0.27595 0.1794 0.22153 0.0
C351 C 0.15627 0.20774 0.23874 0.0
C352 C 0.28931 0.44626 0.20469 0.0
C353 C 0.25154 0.43135 0.20463 0.0
C354 C 0.24335 0.38801 0.21945 0.0
C355 C 0.22209 0.38043 0.22852 0.0
C356 C 0.22271 0.34692 0.23352 0.0
C357 C 0.24606 0.3207 0.22949 0.0
C358 C 0.26784 0.32819 0.22033 0.0
C359 C 0.26615 0.36174 0.21536 0.0
C360 C 0.19864 0.33971 0.24315 0.0
C361 C 0.29331 0.30093 0.21591 0.0
C362 C 0.37534 0.36547 0.28345 0.0
C363 C 0.3412 0.35803 0.2874 0.0
C364 C 0.32528 0.32514 0.28541 0.0
C365 C 0.34398 0.29932 0.27936 0.0
C366 C 0.3796 0.30565 0.27626 0.0
C367 C 0.39497 0.33872 0.27844 0.0
C368 C 0.28763 0.31888 0.28912 0.0
C369 C 0.40048 0.27847 0.26996 0.0
C370 C 0.2503 0.03727 0.29104 0.0
C371 C 0.28853 0.04505 0.29429 0.0
C372 C 0.29527 0.10944 0.29352 0.0
C373 C 0.27463 0.13851 0.2965 0.0
C374 C 0.27772 0.171 0.29095 0.0
C375 C 0.30286 0.17461 0.2824 0.0
C376 C 0.32523 0.1458 0.27975 0.0
C377 C 0.3211 0.11339 0.28531 0.0
C378 C 0.25366 0.20124 0.29408 0.0
C379 C 0.35316 0.14916 0.27095 0.0
C380 C 0.23208 0.22374 0.23578 0.0
C381 C 0.23117 0.25698 0.2307 0.0
C382 C 0.2487 0.28597 0.23516 0.0
C383 C 0.26824 0.28174 0.24487 0.0
C384 C 0.28781 0.3099 0.24922 0.0
C385 C 0.30646 0.30574 0.25886 0.0
C386 C 0.30613 0.27328 0.26459 0.0
C387 C 0.32441 0.26915 0.27455 0.0
C388 C 0.32338 0.23667 0.28009 0.0
C389 C 0.30443 0.20794 0.27591 0.0
C390 C 0.28626 0.21151 0.26588 0.0
C391 C 0.26716 0.18314 0.26138 0.0
C392 C 0.24963 0.18693 0.25147 0.0
C393 C 0.24983 0.21945 0.24583 0.0
C394 C 0.26831 0.24853 0.25032 0.0
C395 C 0.28699 0.24439 0.26026 0.0
C396 C 0.38179 0.43695 0.26869 0.0
C397 C 0.37214 0.42898 0.28062 0.0
O398 O 0.16667 0.12046 0.20967 0.0
O399 O 0.29033 0.07839 0.29896 0.0
O400 O 0.38939 0.39847 0.28405 0.0
O401 O 0.24139 0.42107 0.21505 0.0
H402 H 0.2003 0.12654 0.19642 0.0
H403 H 0.15457 0.17222 0.1951 0.0
H404 H 0.12008 0.13933 0.19461 0.0
H405 H 0.15214 0.1428 0.18361 0.0
H406 H 0.23616 0.13239 0.21054 0.0
H407 H 0.13506 0.15674 0.22467 0.0
H408 H 0.28113 0.20703 0.2188 0.0
H409 H 0.28849 0.16099 0.21563 0.0
H410 H 0.28872 0.17582 0.2296 0.0
H411 H 0.12877 0.19739 0.2392 0.0
H412 H 0.15538 0.23593 0.23612 0.0
H413 H 0.16802 0.20687 0.24702 0.0
H414 H 0.25125 0.40823 0.19903 0.0
H415 H 0.29662 0.4564 0.19645 0.0
H416 H 0.30841 0.42517 0.20695 0.0
H417 H 0.29191 0.46801 0.21069 0.0
H418 H 0.20468 0.40089 0.23163 0.0
H419 H 0.28319 0.36735 0.20844 0.0
H420 H 0.21469 0.33761 0.25068 0.0
H421 H 0.1846 0.31412 0.2421 0.0
H422 H 0.17872 0.36104 0.24431 0.0
H423 H 0.31032 0.31174 0.20925 0.0
H424 H 0.27821 0.27806 0.2127 0.0
H425 H 0.31052 0.29087 0.22256 0.0
H426 H 0.3429 0.42529 0.28085 0.0
H427 H 0.32664 0.37827 0.29175 0.0
H428 H 0.42164 0.34453 0.27564 0.0
H429 H 0.2699 0.31951 0.28193 0.0
H430 H 0.27851 0.33927 0.295 0.0
H431 H 0.28512 0.29231 0.29299 0.0
H432 H 0.42888 0.28575 0.26919 0.0
H433 H 0.38926 0.27596 0.26165 0.0
H434 H 0.39833 0.25216 0.27402 0.0
H435 H 0.30524 0.04376 0.2868 0.0
H436 H 0.24836 0.01061 0.2873 0.0
H437 H 0.24129 0.05722 0.28496 0.0
H438 H 0.23246 0.03839 0.29827 0.0
H439 H 0.2553 0.13533 0.30301 0.0
H440 H 0.3384 0.09147 0.28334 0.0
H441 H 0.23882 0.21062 0.28682 0.0
H442 H 0.26979 0.22377 0.29703 0.0
H443 H 0.23442 0.19363 0.30057 0.0
H444 H 0.37099 0.12578 0.2707 0.0
H445 H 0.36931 0.17333 0.27226 0.0
H446 H 0.34019 0.15197 0.26289 0.0
H447 H 0.21698 0.26022 0.22308 0.0
H448 H 0.28902 0.33553 0.24522 0.0
H449 H 0.32099 0.32847 0.26177 0.0
H450 H 0.33712 0.23383 0.28779 0.0
H451 H 0.26571 0.15759 0.26541 0.0
H452 H 0.23557 0.16419 0.24835 0.0
H453 H 0.36951 0.46229 0.26602 0.0
H454 H 0.37167 0.41543 0.26341 0.0
H455 H 0.41091 0.43863 0.26753 0.0
C456 C 0.59556 0.41647 0.30263 0.0
C457 C 0.63583 0.42013 0.30192 0.0
C458 C 0.66564 0.39127 0.28697 0.0
C459 C 0.69913 0.3834 0.29114 0.0
C460 C 0.71856 0.35447 0.28718 0.0
C461 C 0.70369 0.33262 0.27904 0.0
C462 C 0.66982 0.34076 0.27479 0.0
C463 C 0.65155 0.37057 0.27866 0.0
C464 C 0.7547 0.34696 0.29182 0.0
C465 C 0.65254 0.31756 0.26636 0.0
C466 C 0.67533 0.13733 0.32496 0.0
C467 C 0.68065 0.12112 0.31364 0.0
C468 C 0.72164 0.15377 0.30196 0.0
C469 C 0.70108 0.15677 0.2925 0.0
C470 C 0.70733 0.18406 0.28492 0.0
C471 C 0.73511 0.2084 0.28675 0.0
C472 C 0.75718 0.20416 0.29595 0.0
C473 C 0.75027 0.17662 0.30342 0.0
C474 C 0.68374 0.1874 0.27507 0.0
C475 C 0.78743 0.22927 0.29802 0.0
C476 C 0.87905 0.14144 0.23224 0.0
C477 C 0.84236 0.14011 0.23067 0.0
C478 C 0.82123 0.1701 0.23256 0.0
C479 C 0.83717 0.20167 0.23635 0.0
C480 C 0.87436 0.20318 0.23765 0.0
C481 C 0.89488 0.17313 0.23538 0.0
C482 C 0.78189 0.16794 0.23062 0.0
C483 C 0.89242 0.23635 0.2416 0.0
C484 C 0.73894 0.45789 0.21699 0.0
C485 C 0.77638 0.4473 0.21337 0.0
C486 C 0.78303 0.38335 0.21413 0.0
C487 C 0.76009 0.35461 0.21305 0.0
C488 C 0.76466 0.32374 0.21932 0.0
C489 C 0.79326 0.32158 0.2267 0.0
C490 C 0.81812 0.34955 0.22719 0.0
C491 C 0.8128 0.38017 0.22086 0.0
C492 C 0.73797 0.29416 0.21848 0.0
C493 C 0.84941 0.34767 0.23476 0.0
C494 C 0.72289 0.30042 0.27538 0.0
C495 C 0.72187 0.27063 0.2822 0.0
C496 C 0.73956 0.23945 0.2794 0.0
C497 C 0.75929 0.23783 0.26959 0.0
C498 C 0.77857 0.20738 0.26675 0.0
C499 C 0.79744 0.20588 0.25698 0.0
C500 C 0.79694 0.23439 0.24952 0.0
C501 C 0.81505 0.23271 0.23938 0.0
C502 C 0.81333 0.26135 0.23209 0.0
C503 C 0.79473 0.29215 0.23477 0.0
C504 C 0.77745 0.29473 0.245 0.0
C505 C 0.75965 0.32586 0.24812 0.0
C506 C 0.74247 0.32809 0.25816 0.0
C507 C 0.74152 0.29895 0.26535 0.0
C508 C 0.75967 0.26746 0.26243 0.0
C509 C 0.77804 0.26552 0.25231 0.0
C510 C 0.92104 0.07384 0.24413 0.0
C511 C 0.89442 0.07939 0.23491 0.0
O512 O 0.64621 0.41825 0.29107 0.0
O513 O 0.77555 0.41391 0.20873 0.0
O514 O 0.89992 0.11284 0.23046 0.0
O515 O 0.71431 0.12934 0.30982 0.0
H516 H 0.64734 0.39766 0.30668 0.0
H517 H 0.58733 0.39067 0.29915 0.0
H518 H 0.58241 0.43809 0.29799 0.0
H519 H 0.58658 0.41738 0.31128 0.0
H520 H 0.70993 0.39992 0.2975 0.0
H521 H 0.62557 0.37705 0.27552 0.0
H522 H 0.75338 0.32272 0.29698 0.0
H523 H 0.76451 0.36914 0.29689 0.0
H524 H 0.77405 0.34198 0.28514 0.0
H525 H 0.62439 0.3248 0.26502 0.0
H526 H 0.65386 0.28931 0.26891 0.0
H527 H 0.66692 0.32021 0.25848 0.0
H528 H 0.65987 0.13317 0.3084 0.0
H529 H 0.64893 0.12996 0.32832 0.0
H530 H 0.67672 0.16667 0.32433 0.0
H531 H 0.69616 0.12833 0.3307 0.0
H532 H 0.67998 0.13796 0.29107 0.0
H533 H 0.76641 0.17361 0.31064 0.0
H534 H 0.67021 0.21351 0.27514 0.0
H535 H 0.66336 0.1662 0.2748 0.0
H536 H 0.7 0.18619 0.2675 0.0
H537 H 0.80381 0.22078 0.30506 0.0
H538 H 0.77678 0.25613 0.29968 0.0
H539 H 0.80459 0.23126 0.29065 0.0
H540 H 0.86733 0.07714 0.23849 0.0
H541 H 0.83038 0.11577 0.22785 0.0
H542 H 0.92336 0.17391 0.23636 0.0
H543 H 0.7677 0.16747 0.23857 0.0
H544 H 0.77453 0.14376 0.22603 0.0
H545 H 0.77269 0.19161 0.22601 0.0
H546 H 0.92107 0.23215 0.24313 0.0
H547 H 0.87965 0.24569 0.24925 0.0
H548 H 0.88955 0.25765 0.23538 0.0
H549 H 0.7925 0.44738 0.22094 0.0
H550 H 0.73861 0.48575 0.21986 0.0
H551 H 0.73021 0.4405 0.22384 0.0
H552 H 0.71968 0.45484 0.21026 0.0
H553 H 0.73761 0.3571 0.20764 0.0
H554 H 0.83159 0.40178 0.22129 0.0
H555 H 0.72302 0.29182 0.22628 0.0
H556 H 0.75176 0.26858 0.21711 0.0
H557 H 0.71886 0.29868 0.21176 0.0
H558 H 0.86783 0.37033 0.23357 0.0
H559 H 0.86413 0.3226 0.23344 0.0
H560 H 0.8399 0.34763 0.24335 0.0
H561 H 0.70681 0.27162 0.28976 0.0
H562 H 0.77942 0.18444 0.27209 0.0
H563 H 0.81202 0.18184 0.25529 0.0
H564 H 0.8269 0.25979 0.22428 0.0
H565 H 0.75888 0.349 0.24287 0.0
H566 H 0.7295 0.35281 0.26015 0.0
H567 H 0.94857 0.0745 0.24088 0.0
H568 H 0.91645 0.0481 0.24835 0.0
H569 H 0.91805 0.09523 0.25026 0.0
C570 C 0.57666 0.65598 0.70639 0.0
C571 C 0.61272 0.63781 0.70727 0.0
C572 C 0.64905 0.65988 0.72193 0.0
C573 C 0.68294 0.66073 0.71722 0.0
C574 C 0.70863 0.68457 0.72096 0.0
C575 C 0.69991 0.70838 0.72945 0.0
C576 C 0.66584 0.70694 0.73435 0.0
C577 C 0.64107 0.68209 0.73065 0.0
C578 C 0.74487 0.68467 0.71571 0.0
C579 C 0.65515 0.7323 0.74326 0.0
C580 C 0.80647 0.89616 0.68154 0.0
C581 C 0.77018 0.90277 0.68684 0.0
C582 C 0.76761 0.8781 0.70514 0.0
C583 C 0.73903 0.87938 0.71243 0.0
C584 C 0.73314 0.8519 0.72002 0.0
C585 C 0.75677 0.82283 0.72039 0.0
C586 C 0.78598 0.82173 0.7131 0.0
C587 C 0.7912 0.84955 0.70561 0.0
C588 C 0.70194 0.85403 0.72773 0.0
C589 C 0.81198 0.79138 0.71334 0.0
C590 C 0.87033 0.89044 0.77761 0.0
C591 C 0.83549 0.88281 0.78089 0.0
C592 C 0.82033 0.84967 0.77875 0.0
C593 C 0.84057 0.82359 0.77329 0.0
C594 C 0.87655 0.83029 0.77074 0.0
C595 C 0.89108 0.86369 0.77302 0.0
C596 C 0.7822 0.84304 0.78188 0.0
C597 C 0.899 0.80286 0.7651 0.0
C598 C 0.75198 0.56882 0.79526 0.0
C599 C 0.79205 0.57456 0.79576 0.0
C600 C 0.80052 0.63785 0.79284 0.0
C601 C 0.78068 0.66764 0.79568 0.0
C602 C 0.78087 0.69818 0.78906 0.0
C603 C 0.80241 0.69921 0.77957 0.0
C604 C 0.82383 0.6696 0.77694 0.0
C605 C 0.82241 0.63909 0.78356 0.0
C606 C 0.75779 0.72917 0.79218 0.0
C607 C 0.84824 0.67017 0.76715 0.0
C608 C 0.72546 0.73628 0.73271 0.0
C609 C 0.72944 0.76567 0.72578 0.0
C610 C 0.75161 0.79383 0.72851 0.0
C611 C 0.76948 0.7934 0.73861 0.0
C612 C 0.79027 0.82224 0.74191 0.0
C613 C 0.80756 0.82173 0.75188 0.0
C614 C 0.80539 0.79203 0.75886 0.0
C615 C 0.82273 0.79144 0.76905 0.0
C616 C 0.82151 0.76088 0.77556 0.0
C617 C 0.80229 0.73103 0.77232 0.0
C618 C 0.78316 0.73191 0.76241 0.0
C619 C 0.76196 0.70324 0.75915 0.0
C620 C 0.74316 0.7045 0.74942 0.0
C621 C 0.74485 0.73444 0.74254 0.0
C622 C 0.76648 0.76339 0.74558 0.0
C623 C 0.78513 0.76238 0.75561 0.0
C624 C 0.8784 0.96452 0.7639 0.0
C625 C 0.86741 0.95447 0.77557 0.0
O626 O 0.62354 0.63814 0.71806 0.0
O627 O 0.79886 0.60867 0.79935 0.0
O628 O 0.88434 0.92338 0.77865 0.0
O629 O 0.77304 0.90541 0.69808 0.0
H630 H 0.6315 0.65323 0.70203 0.0
H631 H 0.57882 0.6839 0.70912 0.0
H632 H 0.55664 0.64227 0.71159 0.0
H633 H 0.56751 0.656 0.69779 0.0
H634 H 0.68916 0.64279 0.71062 0.0
H635 H 0.61483 0.68091 0.73426 0.0
H636 H 0.74776 0.70868 0.7105 0.0
H637 H 0.74927 0.66098 0.71054 0.0
H638 H 0.76574 0.68564 0.72204 0.0
H639 H 0.62646 0.73055 0.74524 0.0
H640 H 0.66144 0.75997 0.74079 0.0
H641 H 0.6703 0.72626 0.75076 0.0
H642 H 0.75264 0.88003 0.68476 0.0
H643 H 0.80499 0.89985 0.67255 0.0
H644 H 0.81519 0.86854 0.68302 0.0
H645 H 0.82664 0.91459 0.68483 0.0
H646 H 0.72127 0.90189 0.7121 0.0
H647 H 0.81416 0.8493 0.70032 0.0
H648 H 0.7113 0.85281 0.73629 0.0
H649 H 0.68426 0.83094 0.72646 0.0
H650 H 0.6864 0.87873 0.72656 0.0
H651 H 0.83204 0.79335 0.7067 0.0
H652 H 0.7977 0.7658 0.71259 0.0
H653 H 0.8259 0.79103 0.72129 0.0
H654 H 0.83819 0.95082 0.77539 0.0
H655 H 0.81994 0.9029 0.78498 0.0
H656 H 0.91823 0.86961 0.77075 0.0
H657 H 0.76602 0.84076 0.77438 0.0
H658 H 0.77109 0.86464 0.78698 0.0
H659 H 0.77982 0.81762 0.78643 0.0
H660 H 0.92722 0.81098 0.76448 0.0
H661 H 0.88875 0.79847 0.75674 0.0
H662 H 0.89729 0.77722 0.76957 0.0
H663 H 0.80313 0.57069 0.78742 0.0
H664 H 0.74589 0.54177 0.79228 0.0
H665 H 0.73999 0.58828 0.78954 0.0
H666 H 0.73978 0.57234 0.80346 0.0
H667 H 0.76432 0.66655 0.80297 0.0
H668 H 0.83886 0.61649 0.7816 0.0
H669 H 0.74177 0.73791 0.78509 0.0
H670 H 0.77479 0.75175 0.7946 0.0
H671 H 0.73968 0.72269 0.79909 0.0
H672 H 0.86656 0.64715 0.76707 0.0
H673 H 0.8641 0.69496 0.76701 0.0
H674 H 0.83231 0.66964 0.75957 0.0
H675 H 0.71513 0.7666 0.71814 0.0
H676 H 0.79307 0.84575 0.73687 0.0
H677 H 0.8229 0.84489 0.754 0.0
H678 H 0.83532 0.76049 0.78329 0.0
H679 H 0.75946 0.67957 0.76413 0.0
H680 H 0.7273 0.68166 0.74732 0.0
H681 H 0.86635 0.99025 0.7615 0.0
H682 H 0.86901 0.94393 0.75816 0.0
H683 H 0.90763 0.96645 0.76309 0.0
C684 C 0.65525 0.67658 0.04875 0.0
C685 C 0.66021 0.63653 0.04992 0.0
C686 C 0.63183 0.603 0.03573 0.0
C687 C 0.61898 0.57294 0.0412 0.0
C688 C 0.58934 0.55468 0.0373 0.0
C689 C 0.57198 0.56717 0.02781 0.0
C690 C 0.58517 0.59746 0.02224 0.0
C691 C 0.61546 0.61462 0.02618 0.0
C692 C 0.57639 0.5222 0.04336 0.0
C693 C 0.567 0.61198 0.01223 0.0
C694 C 0.28375 0.60022 0.04554 0.0
C695 C 0.31389 0.5899 0.03835 0.0
C696 C 0.37547 0.57046 0.03966 0.0
C697 C 0.385 0.58042 0.02897 0.0
C698 C 0.41836 0.57178 0.02468 0.0
C699 C 0.44224 0.55155 0.03104 0.0
C700 C 0.43291 0.54185 0.04186 0.0
C701 C 0.39977 0.55191 0.04607 0.0
C702 C 0.42778 0.58401 0.01326 0.0
C703 C 0.45764 0.52037 0.0489 0.0
C704 C 0.38249 0.38061 0.98697 0.0
C705 C 0.38841 0.41358 0.98191 0.0
C706 C 0.42067 0.43147 0.98323 0.0
C707 C 0.44743 0.41604 0.98974 0.0
C708 C 0.44227 0.38184 0.99428 0.0
C709 C 0.40989 0.36438 0.99273 0.0
C710 C 0.42573 0.46739 0.97797 0.0
C711 C 0.47043 0.36441 0.00114 0.0
C712 C 0.70562 0.49258 0.96978 0.0
C713 C 0.69843 0.45367 0.96711 0.0
C714 C 0.63447 0.44822 0.96883 0.0
C715 C 0.60593 0.46954 0.96585 0.0
C716 C 0.57483 0.47017 0.97216 0.0
C717 C 0.57209 0.44817 0.98152 0.0
C718 C 0.6001 0.42487 0.98419 0.0
C719 C 0.63113 0.42522 0.97783 0.0
C720 C 0.54534 0.4951 0.96901 0.0
C721 C 0.59753 0.4003 0.99392 0.0
C722 C 0.53964 0.54888 0.02392 0.0
C723 C 0.50741 0.55693 0.02901 0.0
C724 C 0.47621 0.53945 0.02615 0.0
C725 C 0.47725 0.51246 0.01821 0.0
C726 C 0.44696 0.49249 0.01572 0.0
C727 C 0.44776 0.46722 0.00752 0.0
C728 C 0.47873 0.46131 0.00136 0.0
C729 C 0.47932 0.43691 0.99264 0.0
C730 C 0.51025 0.43256 0.98646 0.0
C731 C 0.541 0.45153 0.9889 0.0
C732 C 0.5413 0.47494 0.99788 0.0
C733 C 0.57218 0.49332 0.00084 0.0
C734 C 0.572 0.51672 0.00957 0.0
C735 C 0.54062 0.52381 0.01539 0.0
C736 C 0.50928 0.50546 0.01256 0.0
C737 C 0.50983 0.4804 0.00397 0.0
C738 C 0.30216 0.36949 0.99888 0.0
C739 C 0.31809 0.38042 0.98784 0.0
O740 O 0.65976 0.62136 0.03965 0.0
O741 O 0.66471 0.45023 0.96284 0.0
O742 O 0.35066 0.364 0.98649 0.0
O743 O 0.3433 0.57827 0.04407 0.0
H744 H 0.63775 0.62633 0.055 0.0
H745 H 0.62957 0.68228 0.04474 0.0
H746 H 0.67686 0.68833 0.04371 0.0
H747 H 0.65509 0.68932 0.0569 0.0
H748 H 0.63226 0.56384 0.04851 0.0
H749 H 0.62581 0.63787 0.02202 0.0
H750 H 0.55003 0.52771 0.04702 0.0
H751 H 0.5947 0.51403 0.04997 0.0
H752 H 0.57324 0.4998 0.03762 0.0
H753 H 0.57855 0.63761 0.00948 0.0
H754 H 0.53835 0.61582 0.01393 0.0
H755 H 0.56937 0.59271 0.00547 0.0
H756 H 0.30698 0.57218 0.03143 0.0
H757 H 0.27825 0.65465 0.0426 0.0
H758 H 0.28941 0.58892 0.05388 0.0
H759 H 0.2622 0.58058 0.04369 0.0
H760 H 0.36664 0.59509 0.02393 0.0
H761 H 0.39231 0.54458 0.05433 0.0
H762 H 0.42537 0.56142 0.00756 0.0
H763 H 0.45553 0.59367 0.01287 0.0
H764 H 0.40999 0.6055 0.01038 0.0
H765 H 0.44489 0.51166 0.05666 0.0
H766 H 0.48122 0.53659 0.05088 0.0
H767 H 0.46699 0.49663 0.04441 0.0
H768 H 0.32106 0.40975 0.98816 0.0
H769 H 0.36774 0.42545 0.97702 0.0
H770 H 0.40527 0.33859 0.9964 0.0
H771 H 0.42626 0.488 0.98439 0.0
H772 H 0.40421 0.4739 0.97216 0.0
H773 H 0.4515 0.46843 0.97357 0.0
H774 H 0.46269 0.33736 0.00387 0.0
H775 H 0.47567 0.38083 0.00844 0.0
H776 H 0.49552 0.36267 0.99641 0.0
H777 H 0.70088 0.4381 0.9748 0.0
H778 H 0.7328 0.49572 0.97305 0.0
H779 H 0.68651 0.50183 0.97607 0.0
H780 H 0.70275 0.5095 0.96239 0.0
H781 H 0.60861 0.48669 0.95876 0.0
H782 H 0.6526 0.40743 0.97986 0.0
H783 H 0.5401 0.51387 0.97577 0.0
H784 H 0.52066 0.47982 0.96764 0.0
H785 H 0.55164 0.51053 0.96149 0.0
H786 H 0.62004 0.38141 0.99429 0.0
H787 H 0.57238 0.38509 0.99365 0.0
H788 H 0.59719 0.41612 0.00152 0.0
H789 H 0.50655 0.57728 0.03522 0.0
H790 H 0.42224 0.4962 0.02008 0.0
H791 H 0.42356 0.4528 0.00597 0.0
H792 H 0.51027 0.41455 0.9796 0.0
H793 H 0.59693 0.48969 0.9965 0.0
H794 H 0.59662 0.52981 0.01154 0.0
H795 H 0.27549 0.38145 -5e-05 0.0
H796 H 0.31939 0.37905 0.00556 0.0
H797 H 0.29996 0.34023 -0.00039 0.0
C798 C 0.92279 0.61545 0.44017 0.0
C799 C 0.89509 0.59502 0.44687 0.0
C800 C 0.92073 0.58715 0.46489 0.0
C801 C 0.92346 0.55011 0.46545 0.0
C802 C 0.94823 0.53384 0.47233 0.0
C803 C 0.97045 0.55507 0.47886 0.0
C804 C 0.96654 0.59234 0.47871 0.0
C805 C 0.9414 0.60792 0.47177 0.0
C806 C 0.95114 0.49396 0.47248 0.0
C807 C 0.98947 0.61565 0.48568 0.0
C808 C 0.24743 0.46218 0.47188 0.0
C809 C 0.22602 0.4965 0.47131 0.0
C810 C 0.1611 0.49778 0.47057 0.0
C811 C 0.15546 0.52713 0.47734 0.0
C812 C 0.12186 0.53379 0.48185 0.0
C813 C 0.09342 0.5107 0.47948 0.0
C814 C 0.09864 0.48229 0.47218 0.0
C815 C 0.13244 0.47641 0.46774 0.0
C816 C 0.11691 0.56495 0.48935 0.0
C817 C 0.06878 0.45751 0.46935 0.0
C818 C 0.11932 0.39219 0.54027 0.0
C819 C 0.12159 0.42908 0.54143 0.0
C820 C 0.09382 0.45109 0.538 0.0
C821 C 0.06354 0.43582 0.53317 0.0
C822 C 0.06041 0.39851 0.53259 0.0
C823 C 0.08826 0.37713 0.5363 0.0
C824 C 0.09744 0.4907 0.53914 0.0
C825 C 0.02832 0.38131 0.52762 0.0
C826 C 0.80012 0.54941 0.54952 0.0
C827 C 0.82176 0.51528 0.5504 0.0
C828 C 0.88583 0.51346 0.54709 0.0
C829 C 0.91559 0.53537 0.54729 0.0
C830 C 0.94622 0.52693 0.54133 0.0
C831 C 0.94711 0.49551 0.5351 0.0
C832 C 0.91757 0.47247 0.53519 0.0
C833 C 0.88724 0.48156 0.54124 0.0
C834 C 0.97752 0.55175 0.54158 0.0
C835 C 0.91804 0.43838 0.52883 0.0
C836 C 0.99906 0.53818 0.4853 0.0
C837 C 0.0318 0.53319 0.48013 0.0
C838 C 0.05906 0.51471 0.48529 0.0
C839 C 0.0535 0.50022 0.49583 0.0
C840 C 0.07961 0.47963 0.50097 0.0
C841 C 0.074 0.46556 0.51134 0.0
C842 C 0.0424 0.47222 0.5171 0.0
C843 C 0.03686 0.45872 0.52777 0.0
C844 C 0.0055 0.46649 0.53336 0.0
C845 C 0.979 0.48694 0.5285 0.0
C846 C 0.98356 0.49971 0.51769 0.0
C847 C 0.95694 0.51926 0.51239 0.0
C848 C 0.96177 0.53164 0.50174 0.0
C849 C 0.99369 0.5256 0.49609 0.0
C850 C 0.02096 0.50627 0.50132 0.0
C851 C 0.01563 0.49274 0.51205 0.0
C852 C 0.19866 0.34746 0.53428 0.0
C853 C 0.18215 0.37817 0.5406 0.0
O854 O 0.8984 0.60349 0.45782 0.0
O855 O 0.85657 0.52391 0.55271 0.0
O856 O 0.14685 0.37053 0.54269 0.0
O857 O 0.19357 0.48922 0.46658 0.0
H858 H 0.90011 0.56637 0.44554 0.0
H859 H 0.94979 0.6074 0.44273 0.0
H860 H 0.92003 0.64446 0.4414 0.0
H861 H 0.91992 0.60953 0.43135 0.0
H862 H 0.90624 0.53382 0.46056 0.0
H863 H 0.93859 0.63648 0.47143 0.0
H864 H 0.97786 0.48597 0.46959 0.0
H865 H 0.93102 0.48115 0.46724 0.0
H866 H 0.94792 0.48388 0.48096 0.0
H867 H 0.98214 0.64408 0.48499 0.0
H868 H 0.01761 0.61254 0.4832 0.0
H869 H 0.9872 0.6073 0.49436 0.0
H870 H 0.22256 0.50568 0.47986 0.0
H871 H 0.27346 0.46698 0.47578 0.0
H872 H 0.2519 0.45129 0.46358 0.0
H873 H 0.23284 0.44215 0.47684 0.0
H874 H 0.17716 0.54484 0.47915 0.0
H875 H 0.13695 0.45427 0.46232 0.0
H876 H 0.09358 0.58078 0.48679 0.0
H877 H 0.14054 0.58247 0.48948 0.0
H878 H 0.11172 0.55519 0.49777 0.0
H879 H 0.07723 0.43651 0.46358 0.0
H880 H 0.04681 0.47278 0.46561 0.0
H881 H 0.05829 0.44476 0.47689 0.0
H882 H 0.1846 0.402 0.53522 0.0
H883 H 0.14519 0.44066 0.5449 0.0
H884 H 0.08662 0.34856 0.53563 0.0
H885 H 0.10225 0.50273 0.53098 0.0
H886 H 0.11972 0.49803 0.54455 0.0
H887 H 0.07258 0.50222 0.54245 0.0
H888 H 0.03012 0.35193 0.52767 0.0
H889 H 0.02521 0.39058 0.51906 0.0
H890 H 0.00419 0.38927 0.5322 0.0
H891 H 0.81973 0.50226 0.5423 0.0
H892 H 0.77201 0.54321 0.54772 0.0
H893 H 0.81079 0.5662 0.54278 0.0
H894 H 0.80139 0.56474 0.55722 0.0
H895 H 0.91446 0.55959 0.55198 0.0
H896 H 0.86491 0.46359 0.54145 0.0
H897 H 0.98311 0.56188 0.53322 0.0
H898 H 0.0014 0.53722 0.54437 0.0
H899 H 0.97297 0.57467 0.54705 0.0
H900 H 0.89278 0.42348 0.52962 0.0
H901 H 0.93998 0.42129 0.53175 0.0
H902 H 0.92305 0.44419 0.52006 0.0
H903 H 0.03594 0.54338 0.47192 0.0
H904 H 0.10462 0.47387 0.497 0.0
H905 H 0.095 0.44965 0.5148 0.0
H906 H 0.00169 0.45653 0.54161 0.0
H907 H 0.93195 0.52496 0.51638 0.0
H908 H 0.94033 0.54634 0.49803 0.0
H909 H 0.19661 0.32232 0.53901 0.0
H910 H 0.227 0.35301 0.53248 0.0
H911 H 0.18464 0.34403 0.52641 0.0
Fe912 Fe 0.00238 0.75654 0.14371 0.0
O913 O 0.03046 0.73445 0.13171 0.0
Fe914 Fe 0.92553 0.78374 0.13101 0.0
Fe915 Fe 0.08237 0.7325 0.13193 0.0
O916 O 0.97722 0.78121 0.13163 0.0
O917 O 0.97739 0.78141 0.13059 0.0
O918 O 0.03066 0.73467 0.13064 0.0
Fe919 Fe 0.00567 0.75969 0.11851 0.0
C920 C 0.0691 0.79622 0.14686 0.0
O921 O 0.03209 0.72644 0.15493 0.0
O922 O 0.07183 0.69601 0.14404 0.0
O923 O 0.97088 0.71788 0.11715 0.0
O924 O 0.91904 0.74583 0.11924 0.0
O925 O 0.91711 0.74462 0.14276 0.0
O926 O 0.96794 0.71505 0.14328 0.0
O927 O 0.07655 0.70007 0.11851 0.0
O928 O 0.03935 0.73319 0.10753 0.0
C929 C 0.93491 0.7169 0.14506 0.0
O930 O 0.9752 0.78922 0.10742 0.0
O931 O 0.93464 0.81881 0.11826 0.0
O932 O 0.03655 0.79799 0.14454 0.0
O933 O 0.08795 0.76942 0.14436 0.0
C934 C 0.05396 0.70049 0.15301 0.0
C935 C 0.06286 0.70835 0.10912 0.0
C936 C 0.07403 0.7996 0.11779 0.0
O937 O 0.09136 0.77231 0.12076 0.0
O938 O 0.04055 0.80172 0.11889 0.0
C939 C 0.93741 0.71953 0.11605 0.0
O940 O 0.93344 0.81787 0.14382 0.0
O941 O 0.97018 0.78449 0.15481 0.0
C942 C 0.95133 0.8136 0.10908 0.0
C943 C 0.94926 0.81137 0.15301 0.0
Fe944 Fe 0.51261 0.75141 0.39371 0.0
O945 O 0.49781 0.72089 0.38134 0.0
Fe946 Fe 0.52723 0.83308 0.3813 0.0
Fe947 Fe 0.50496 0.66941 0.38135 0.0
O948 O 0.5342 0.78161 0.38202 0.0
O949 O 0.53458 0.78158 0.38093 0.0
O950 O 0.49828 0.72082 0.38027 0.0
Fe951 Fe 0.51946 0.75111 0.36849 0.0
C952 C 0.5639 0.6922 0.39688 0.0
O953 O 0.48648 0.71576 0.40442 0.0
O954 O 0.46582 0.67205 0.39301 0.0
O955 O 0.47217 0.77786 0.36697 0.0
O956 O 0.49139 0.83345 0.3688 0.0
O957 O 0.48521 0.83353 0.39222 0.0
O958 O 0.46564 0.77796 0.39275 0.0
O959 O 0.47338 0.67091 0.36763 0.0
O960 O 0.50023 0.71455 0.35708 0.0
C961 C 0.46101 0.81087 0.39424 0.0
O962 O 0.54427 0.78756 0.35786 0.0
O963 O 0.56575 0.83113 0.36926 0.0
O964 O 0.55944 0.72502 0.39512 0.0
O965 O 0.54093 0.66922 0.39412 0.0
C966 C 0.46521 0.68966 0.40208 0.0
C967 C 0.47938 0.68727 0.35842 0.0
C968 C 0.57084 0.69091 0.36797 0.0
O969 O 0.54694 0.66871 0.37066 0.0
O970 O 0.56688 0.72422 0.369 0.0
C971 C 0.46827 0.81114 0.3658 0.0
O972 O 0.55897 0.83135 0.39483 0.0
O973 O 0.53249 0.78733 0.40526 0.0
C974 C 0.56455 0.81464 0.35998 0.0
C975 C 0.55358 0.81445 0.40396 0.0
Fe976 Fe 0.51343 0.2344 0.65759 0.0
O977 O 0.51462 0.24055 0.64165 0.0
Fe978 Fe 0.47197 0.26697 0.63445 0.0
Fe979 Fe 0.55364 0.26565 0.63371 0.0
O980 O 0.5112 0.24068 0.6417 0.0
O981 O 0.51094 0.29179 0.62642 0.0
O982 O 0.5143 0.2918 0.62641 0.0
Fe983 Fe 0.51141 0.29887 0.61059 0.0
C984 C 0.55783 0.30145 0.65556 0.0
O985 O 0.55431 0.2003 0.65397 0.0
O986 O 0.58989 0.23373 0.64241 0.0
O987 O 0.47237 0.2618 0.60775 0.0
O988 O 0.46874 0.22833 0.62277 0.0
O989 O 0.43594 0.23635 0.64382 0.0
O990 O 0.47206 0.20078 0.65441 0.0
O991 O 0.55374 0.22713 0.62198 0.0
O992 O 0.54883 0.26074 0.60703 0.0
C993 C 0.44211 0.2083 0.6498 0.0
O994 O 0.47028 0.33308 0.61431 0.0
O995 O 0.43581 0.29828 0.62573 0.0
O996 O 0.55158 0.27242 0.66058 0.0
O997 O 0.5551 0.30442 0.64527 0.0
C998 C 0.58362 0.2063 0.64867 0.0
C999 C 0.55811 0.23213 0.61179 0.0
C1000 C 0.58424 0.32335 0.61791 0.0
O1001 O 0.58942 0.29624 0.62437 0.0
O1002 O 0.554 0.33183 0.61357 0.0
C1003 C 0.46307 0.23338 0.61266 0.0
O1004 O 0.47401 0.30597 0.64602 0.0
O1005 O 0.47533 0.27231 0.66095 0.0
C1006 C 0.44037 0.32487 0.61901 0.0
C1007 C 0.47125 0.30226 0.6563 0.0
Fe1008 Fe 0.01289 0.25886 0.89198 0.0
O1009 O 0.99094 0.23423 0.87939 0.0
Fe1010 Fe 0.03816 0.34008 0.88116 0.0
Fe1011 Fe 0.98935 0.18239 0.8786 0.0
O1012 O 0.03702 0.28817 0.88059 0.0
O1013 O 0.03716 0.28835 0.87957 0.0
O1014 O 0.99116 0.23437 0.87833 0.0
Fe1015 Fe 0.0163 0.26289 0.86685 0.0
C1016 C 0.05309 0.19174 0.89348 0.0
O1017 O 0.98342 0.2254 0.90246 0.0
O1018 O 0.95218 0.18947 0.89076 0.0
O1019 O 0.97393 0.29725 0.86608 0.0
O1020 O 0.0004 0.34902 0.86945 0.0
O1021 O 0.99891 0.34422 0.89302 0.0
O1022 O 0.97074 0.29264 0.89246 0.0
O1023 O 0.95771 0.19131 0.86513 0.0
O1024 O 0.99097 0.2316 0.85508 0.0
C1025 C 0.97166 0.3252 0.89491 0.0
O1026 O 0.04569 0.29692 0.85659 0.0
O1027 O 0.0736 0.33561 0.86831 0.0
O1028 O 0.05482 0.22489 0.89184 0.0
O1029 O 0.02554 0.17402 0.89106 0.0
C1030 C 0.95715 0.20435 0.90016 0.0
C1031 C 0.9665 0.20733 0.85607 0.0
C1032 C 0.05745 0.19511 0.86531 0.0
O1033 O 0.03019 0.17665 0.86763 0.0
O1034 O 0.05875 0.22855 0.86661 0.0
C1035 C 0.97483 0.33098 0.86566 0.0
O1036 O 0.07204 0.32985 0.89392 0.0
O1037 O 0.04058 0.28792 0.9038 0.0
C1038 C 0.06893 0.32148 0.85876 0.0
C1039 C 0.06596 0.31115 0.90268 0.0
C1040 C 0.19251 0.88345 0.44626 0.0
C1041 C 0.18208 0.91911 0.4454 0.0
C1042 C 0.22229 0.87125 0.4406 0.0
C1043 C 0.30524 0.90166 0.42792 0.0
H1044 H 0.3001 0.81425 0.41155 0.0
C1045 C 0.41827 0.85887 0.39924 0.0
C1046 C 0.42742 0.82281 0.39925 0.0
C1047 C 0.38749 0.87031 0.40452 0.0
C1048 C 0.30213 0.83849 0.41618 0.0
H1049 H 0.19436 0.96978 0.43785 0.0
H1050 H 0.24656 0.94856 0.42806 0.0
H1051 H 0.24853 0.8344 0.42187 0.0
H1052 H 0.41116 0.77035 0.40467 0.0
H1053 H 0.35802 0.79039 0.41407 0.0
H1054 H 0.35888 0.90562 0.42243 0.0
C1055 C 0.2319 0.93016 0.43319 0.0
C1056 C 0.27257 0.85001 0.42208 0.0
C1057 C 0.20202 0.94227 0.43877 0.0
C1058 C 0.40479 0.79833 0.40446 0.0
C1059 C 0.37419 0.80981 0.40982 0.0
C1060 C 0.33485 0.89003 0.4221 0.0
C1061 C 0.24229 0.89452 0.43402 0.0
C1062 C 0.27382 0.88178 0.42797 0.0
C1063 C 0.36534 0.84598 0.41 0.0
C1064 C 0.33364 0.85838 0.41612 0.0
H1065 H 0.17747 0.86503 0.45127 0.0
H1066 H 0.22987 0.8437 0.44144 0.0
H1067 H 0.30708 0.92601 0.43251 0.0
H1068 H 0.43496 0.87833 0.3952 0.0
H1069 H 0.38109 0.89826 0.4043 0.0
C1070 C 0.24764 0.99591 0.69611 0.0
C1071 C 0.26084 0.99274 0.70678 0.0
C1072 C 0.26405 0.01846 0.68852 0.0
C1073 C 0.34928 0.0608 0.68247 0.0
H1074 H 0.2951 0.12615 0.6646 0.0
C1075 C 0.42045 0.14672 0.65128 0.0
C1076 C 0.41329 0.18307 0.65204 0.0
C1077 C 0.39746 0.12198 0.65595 0.0
C1078 C 0.31051 0.10797 0.66952 0.0
H1079 H 0.3015 0.01056 0.71785 0.0
H1080 H 0.33041 0.04963 0.70458 0.0
H1081 H 0.26434 0.08596 0.6773 0.0
H1082 H 0.37547 0.22226 0.6575 0.0
H1083 H 0.33517 0.17883 0.66592 0.0
H1084 H 0.3954 0.08302 0.675 0.0
C1085 C 0.30743 0.03464 0.70207 0.0
C1086 C 0.29294 0.08486 0.67673 0.0
C1087 C 0.29087 0.01236 0.70968 0.0
C1088 C 0.38131 0.19428 0.65676 0.0
C1089 C 0.35835 0.16942 0.66158 0.0
C1090 C 0.36674 0.0836 0.67525 0.0
C1091 C 0.29419 0.03795 0.69142 0.0
C1092 C 0.31225 0.06135 0.68337 0.0
C1093 C 0.36712 0.13315 0.66165 0.0
C1094 C 0.34764 0.10761 0.66874 0.0
H1095 H 0.22456 0.98098 0.69366 0.0
H1096 H 0.25349 0.02024 0.68034 0.0
H1097 H 0.36485 0.04274 0.6874 0.0
H1098 H 0.4449 0.13753 0.64759 0.0
H1099 H 0.40447 0.09418 0.65561 0.0
C1100 C 0.27509 0.0518 0.95265 0.0
C1101 C 0.29358 0.07954 0.95769 0.0
C1102 C 0.25177 0.0589 0.94409 0.0
C1103 C 0.22893 0.12639 0.92339 0.0
H1104 H 0.13317 0.09039 0.92633 0.0
C1105 C 0.11133 0.19456 0.90299 0.0
C1106 C 0.08306 0.17416 0.89906 0.0
C1107 C 0.13896 0.17867 0.90869 0.0
C1108 C 0.15994 0.10011 0.92524 0.0
H1109 H 0.3027 0.13625 0.95755 0.0
H1110 H 0.26247 0.14855 0.94256 0.0
H1111 H 0.17886 0.06986 0.93886 0.0
H1112 H 0.06223 0.12078 0.89779 0.0
H1113 H 0.11093 0.09288 0.9077 0.0
H1114 H 0.21005 0.15713 0.90992 0.0
C1115 C 0.26607 0.12133 0.94518 0.0
C1116 C 0.1861 0.08836 0.93243 0.0
C1117 C 0.289 0.11431 0.9538 0.0
C1118 C 0.08349 0.13729 0.90077 0.0
C1119 C 0.11132 0.12132 0.90647 0.0
C1120 C 0.2029 0.13796 0.91617 0.0
C1121 C 0.2469 0.09379 0.94032 0.0
C1122 C 0.22059 0.10216 0.93176 0.0
C1123 C 0.13925 0.1419 0.91056 0.0
C1124 C 0.16785 0.12577 0.91721 0.0
H1125 H 0.2782 0.02475 0.95549 0.0
H1126 H 0.23742 0.03717 0.94044 0.0
H1127 H 0.25547 0.13701 0.92258 0.0
H1128 H 0.11188 0.22305 0.90187 0.0
H1129 H 0.15964 0.19546 0.9119 0.0
C1130 C 0.19256 0.06361 0.18849 0.0
C1131 C 0.1665 0.08123 0.19462 0.0
C1132 C 0.18617 0.02982 0.18436 0.0
C1133 C 0.12476 0.95282 0.18669 0.0
H1134 H 0.15634 0.93425 0.15709 0.0
C1135 C 0.062 0.84752 0.15937 0.0
C1136 C 0.08445 0.82556 0.1532 0.0
C1137 C 0.0757 0.87576 0.16526 0.0
C1138 C 0.14785 0.93885 0.16542 0.0
H1139 H 0.1136 0.07707 0.20142 0.0
H1140 H 0.10187 0.01858 0.19393 0.0
H1141 H 0.1731 0.98947 0.16588 0.0
H1142 H 0.1389 0.81591 0.14841 0.0
H1143 H 0.16293 0.86617 0.15861 0.0
H1144 H 0.09817 0.90276 0.18598 0.0
C1145 C 0.1276 0.03043 0.19249 0.0
C1146 C 0.15747 0.97046 0.17049 0.0
C1147 C 0.13413 0.06408 0.19671 0.0
C1148 C 0.12102 0.83235 0.15311 0.0
C1149 C 0.13471 0.8611 0.1589 0.0
C1150 C 0.11484 0.92142 0.18158 0.0
C1151 C 0.15342 0.01299 0.18617 0.0
C1152 C 0.14558 0.97811 0.18113 0.0
C1153 C 0.11211 0.88303 0.16503 0.0
C1154 C 0.12584 0.91439 0.17084 0.0
H1155 H 0.21782 0.07614 0.18679 0.0
H1156 H 0.20689 0.01697 0.17969 0.0
H1157 H 0.11576 0.95743 0.19497 0.0
H1158 H 0.03369 0.84289 0.15967 0.0
H1159 H 0.05762 0.89246 0.16981 0.0
C1160 C 0.24934 0.03602 0.56833 0.0
C1161 C 0.24541 0.04432 0.5572 0.0
C1162 C 0.27416 0.05397 0.57465 0.0
C1163 C 0.35624 0.10679 0.57227 0.0
H1164 H 0.33155 0.13881 0.60133 0.0
C1165 C 0.43805 0.21069 0.59519 0.0
C1166 C 0.44225 0.20693 0.60653 0.0
C1167 C 0.41606 0.18778 0.58946 0.0
C1168 C 0.33906 0.12955 0.5933 0.0
H1169 H 0.26479 0.07735 0.54394 0.0
H1170 H 0.30774 0.10911 0.555 0.0
H1171 H 0.2885 0.10538 0.59079 0.0
H1172 H 0.4273 0.17533 0.62069 0.0
H1173 H 0.389 0.13508 0.61062 0.0
H1174 H 0.40661 0.13131 0.57471 0.0
C1175 C 0.2918 0.08861 0.55883 0.0
C1176 C 0.31437 0.11045 0.58725 0.0
C1177 C 0.26699 0.0707 0.55252 0.0
C1178 C 0.42467 0.179 0.61196 0.0
C1179 C 0.40251 0.1561 0.60621 0.0
C1180 C 0.38091 0.12586 0.57831 0.0
C1181 C 0.29579 0.08037 0.56996 0.0
C1182 C 0.32252 0.09924 0.57661 0.0
C1183 C 0.39766 0.16051 0.59491 0.0
C1184 C 0.37246 0.13785 0.58884 0.0
H1185 H 0.23347 0.01534 0.57209 0.0
H1186 H 0.27689 0.04668 0.58317 0.0
H1187 H 0.36362 0.09791 0.56418 0.0
H1188 H 0.45121 0.23183 0.59073 0.0
H1189 H 0.41262 0.19218 0.58079 0.0
C1190 C 0.14307 0.96678 0.80556 0.0
C1191 C 0.14842 0.93628 0.81199 0.0
C1192 C 0.14556 0.00052 0.81016 0.0
C1193 C 0.17139 0.04814 0.83574 0.0
H1194 H 0.09703 0.11276 0.8269 0.0
C1195 C 0.09824 0.14409 0.86387 0.0
C1196 C 0.08648 0.17668 0.8597 0.0
C1197 C 0.11794 0.12118 0.85733 0.0
C1198 C 0.11853 0.09547 0.82931 0.0
H1199 H 0.16024 0.91726 0.82825 0.0
H1200 H 0.16329 0.97574 0.83638 0.0
H1201 H 0.10747 0.0593 0.81648 0.0
H1202 H 0.08763 0.21211 0.84575 0.0
H1203 H 0.12168 0.17154 0.83415 0.0
H1204 H 0.18034 0.08341 0.84911 0.0
C1205 C 0.15863 0.97396 0.8277 0.0
C1206 C 0.12459 0.06468 0.82332 0.0
C1207 C 0.15665 0.94032 0.82306 0.0
C1208 C 0.0969 0.18726 0.84916 0.0
C1209 C 0.11606 0.16397 0.84252 0.0
C1210 C 0.16496 0.07873 0.84183 0.0
C1211 C 0.15259 0.00456 0.82135 0.0
C1212 C 0.15034 0.03999 0.82665 0.0
C1213 C 0.12555 0.13016 0.84642 0.0
C1214 C 0.13777 0.10216 0.83885 0.0
H1215 H 0.13619 0.96461 0.79703 0.0
H1216 H 0.14119 0.0234 0.80497 0.0
H1217 H 0.19206 0.03027 0.83841 0.0
H1218 H 0.09021 0.13538 0.87196 0.0
H1219 H 0.12458 0.09522 0.86053 0.0
C1220 C 0.26746 0.01029 0.06038 0.0
C1221 C 0.28989 0.98124 0.05026 0.0
C1222 C 0.23433 0.98844 0.06864 0.0
C1223 C 0.19921 0.88884 0.07471 0.0
H1224 H 0.12965 0.94149 0.09148 0.0
C1225 C 0.07599 0.85173 0.10485 0.0
C1226 C 0.09359 0.82738 0.11166 0.0
C1227 C 0.09533 0.87352 0.09767 0.0
C1228 C 0.14884 0.92652 0.0868 0.0
H1229 H 0.28094 0.92559 0.03815 0.0
H1230 H 0.22602 0.8946 0.05169 0.0
H1231 H 0.1668 0.97242 0.07796 0.0
H1232 H 0.14528 0.80899 0.1169 0.0
H1233 H 0.17859 0.84668 0.10442 0.0
H1234 H 0.18179 0.84308 0.08361 0.0
C1235 C 0.23602 0.9207 0.05355 0.0
C1236 C 0.17026 0.94419 0.07914 0.0
C1237 C 0.26914 0.94032 0.04479 0.0
C1238 C 0.13081 0.82698 0.11165 0.0
C1239 C 0.14997 0.84849 0.10448 0.0
C1240 C 0.17821 0.87133 0.08243 0.0
C1241 C 0.22002 0.94393 0.06549 0.0
C1242 C 0.19575 0.92546 0.07308 0.0
C1243 C 0.13245 0.87111 0.09718 0.0
C1244 C 0.15312 0.89002 0.08864 0.0
H1245 H 0.27869 0.03535 0.06283 0.0
H1246 H 0.22387 0.0018 0.07574 0.0
H1247 H 0.21895 0.87376 0.0703 0.0
H1248 H 0.04735 0.85268 0.10466 0.0
H1249 H 0.08124 0.89088 0.09212 0.0
C1250 C 0.31888 0.98688 0.29855 0.0
C1251 C 0.30134 0.01731 0.30232 0.0
C1252 C 0.33063 0.961 0.30589 0.0
C1253 C 0.35866 0.95109 0.33412 0.0
H1254 H 0.34918 0.8502 0.32907 0.0
C1255 C 0.41868 0.8536 0.3644 0.0
C1256 C 0.4376 0.82524 0.35991 0.0
C1257 C 0.39513 0.87303 0.35801 0.0
C1258 C 0.35226 0.87827 0.33057 0.0
H1259 H 0.28018 0.04327 0.31669 0.0
H1260 H 0.30144 0.99847 0.32954 0.0
H1261 H 0.32213 0.89248 0.31641 0.0
H1262 H 0.44587 0.79355 0.34548 0.0
H1263 H 0.40566 0.82828 0.33409 0.0
H1264 H 0.38998 0.9375 0.34791 0.0
C1265 C 0.30658 0.99495 0.32091 0.0
C1266 C 0.33671 0.90244 0.32333 0.0
C1267 C 0.29454 0.02063 0.31356 0.0
C1268 C 0.43111 0.81512 0.34912 0.0
C1269 C 0.40807 0.83509 0.34262 0.0
C1270 C 0.37449 0.92706 0.34127 0.0
C1271 C 0.32504 0.96504 0.31716 0.0
C1272 C 0.33992 0.93909 0.32502 0.0
C1273 C 0.39085 0.86516 0.34688 0.0
C1274 C 0.37166 0.89029 0.33959 0.0
H1275 H 0.32379 0.98331 0.28991 0.0
H1276 H 0.3449 0.93829 0.30277 0.0
H1277 H 0.3621 0.97918 0.33553 0.0
H1278 H 0.4233 0.86171 0.37274 0.0
H1279 H 0.38151 0.89524 0.36168 0.0
C1280 C 0.79554 0.1023 0.55921 0.0
C1281 C 0.79812 0.06531 0.55824 0.0
C1282 C 0.76677 0.11757 0.56463 0.0
C1283 C 0.69422 0.09616 0.58415 0.0
H1284 H 0.65825 0.18698 0.57433 0.0
C1285 C 0.60286 0.1834 0.61068 0.0
C1286 C 0.57865 0.20599 0.60546 0.0
C1287 C 0.62621 0.16271 0.60454 0.0
C1288 C 0.66748 0.16132 0.5771 0.0
H1289 H 0.77153 0.01553 0.56155 0.0
H1290 H 0.72079 0.04216 0.57078 0.0
H1291 H 0.70515 0.15828 0.56408 0.0
H1292 H 0.55799 0.22262 0.58978 0.0
H1293 H 0.59775 0.18558 0.57908 0.0
H1294 H 0.65581 0.09881 0.59702 0.0
C1295 C 0.74167 0.05933 0.56776 0.0
C1296 C 0.6949 0.14513 0.57131 0.0
C1297 C 0.77065 0.04405 0.56244 0.0
C1298 C 0.57673 0.20581 0.59402 0.0
C1299 C 0.59971 0.18478 0.58789 0.0
C1300 C 0.66651 0.11221 0.58989 0.0
C1301 C 0.73946 0.09628 0.56898 0.0
C1302 C 0.70899 0.11259 0.57484 0.0
C1303 C 0.62552 0.16382 0.59306 0.0
C1304 C 0.65308 0.14523 0.58652 0.0
H1305 H 0.81586 0.11947 0.55583 0.0
H1306 H 0.76619 0.14609 0.5655 0.0
H1307 H 0.70457 0.07125 0.58717 0.0
H1308 H 0.60508 0.18307 0.61949 0.0
H1309 H 0.64589 0.14719 0.60882 0.0
C1310 C 0.64829 0.06541 0.3081 0.0
C1311 C 0.67574 0.08135 0.31399 0.0
C1312 C 0.6413 0.02924 0.30928 0.0
C1313 C 0.67523 0.94528 0.32204 0.0
H1314 H 0.57516 0.92611 0.32603 0.0
C1315 C 0.61691 0.84857 0.35328 0.0
C1316 C 0.58523 0.83073 0.35098 0.0
C1317 C 0.63263 0.87064 0.34547 0.0
C1318 C 0.60317 0.93061 0.32469 0.0
H1319 H 0.71913 0.07145 0.32506 0.0
H1320 H 0.70599 0.00882 0.32758 0.0
H1321 H 0.59381 0.98251 0.3184 0.0
H1322 H 0.54655 0.81974 0.33847 0.0
H1323 H 0.57381 0.85904 0.32481 0.0
H1324 H 0.68428 0.89405 0.32917 0.0
C1325 C 0.6901 0.0239 0.32189 0.0
C1326 C 0.61397 0.96308 0.32029 0.0
C1327 C 0.6974 0.05997 0.32058 0.0
C1328 C 0.57103 0.83314 0.34044 0.0
C1329 C 0.5865 0.85573 0.33266 0.0
C1330 C 0.66439 0.91291 0.32657 0.0
C1331 C 0.66134 0.00823 0.31648 0.0
C1332 C 0.65017 0.97137 0.31926 0.0
C1333 C 0.6167 0.8757 0.33526 0.0
C1334 C 0.62827 0.90577 0.32826 0.0
H1335 H 0.63158 0.08114 0.3028 0.0
H1336 H 0.61952 0.01796 0.30477 0.0
H1337 H 0.70331 0.95036 0.32112 0.0
H1338 H 0.6285 0.84698 0.36133 0.0
H1339 H 0.65572 0.88584 0.34775 0.0
C1340 C 0.72256 0.95376 0.06047 0.0
C1341 C 0.69578 0.93075 0.06423 0.0
C1342 C 0.75797 0.94293 0.06042 0.0
C1343 C 0.81665 0.86437 0.06572 0.0
H1344 H 0.87787 0.93518 0.07842 0.0
C1345 C 0.9391 0.82053 0.08909 0.0
C1346 C 0.93881 0.83469 0.09967 0.0
C1347 C 0.91923 0.83655 0.0808 0.0
C1348 C 0.86128 0.9151 0.07479 0.0
H1349 H 0.68499 0.87843 0.07074 0.0
H1350 H 0.7465 0.85988 0.07104 0.0
H1351 H 0.8211 0.95283 0.07106 0.0
H1352 H 0.92104 0.87876 0.10954 0.0
H1353 H 0.88636 0.9062 0.09532 0.0
H1354 H 0.85531 0.82615 0.07048 0.0
C1355 C 0.74039 0.88579 0.06772 0.0
C1356 C 0.82876 0.92529 0.07043 0.0
C1357 C 0.70504 0.89646 0.06764 0.0
C1358 C 0.92138 0.86695 0.10151 0.0
C1359 C 0.90171 0.88293 0.09327 0.0
C1360 C 0.84896 0.85411 0.07023 0.0
C1361 C 0.76746 0.90916 0.06436 0.0
C1362 C 0.8052 0.89976 0.06636 0.0
C1363 C 0.89897 0.86705 0.08295 0.0
C1364 C 0.87075 0.87912 0.07537 0.0
H1365 H 0.71632 0.98053 0.05791 0.0
H1366 H 0.778 0.9615 0.05765 0.0
H1367 H 0.79969 0.84415 0.06233 0.0
H1368 H 0.95243 0.79573 0.08741 0.0
H1369 H 0.91818 0.82397 0.07289 0.0
C1370 C 0.84917 0.99893 0.78992 0.0
C1371 C 0.87613 0.9837 0.78353 0.0
C1372 C 0.85679 0.02635 0.79714 0.0
C1373 C 0.91947 0.09786 0.80236 0.0
H1374 H 0.88735 0.08979 0.83237 0.0
C1375 C 0.97237 0.18709 0.83681 0.0
C1376 C 0.95096 0.19271 0.84604 0.0
C1377 C 0.96049 0.16566 0.82832 0.0
C1378 C 0.89588 0.09307 0.82397 0.0
H1379 H 0.93245 0.98446 0.78001 0.0
H1380 H 0.94559 0.03313 0.79245 0.0
H1381 H 0.87237 0.04372 0.81943 0.0
H1382 H 0.89934 0.18309 0.85324 0.0
H1383 H 0.87772 0.14749 0.83817 0.0
H1384 H 0.94255 0.14745 0.80681 0.0
C1385 C 0.91853 0.02397 0.79176 0.0
C1386 C 0.88747 0.06641 0.81658 0.0
C1387 C 0.91101 0.99614 0.78466 0.0
C1388 C 0.91646 0.17893 0.84624 0.0
C1389 C 0.90429 0.15815 0.83765 0.0
C1390 C 0.92744 0.12489 0.80972 0.0
C1391 C 0.89147 0.03934 0.79806 0.0
C1392 C 0.89949 0.06835 0.80574 0.0
C1393 C 0.92669 0.14989 0.8288 0.0
C1394 C 0.91605 0.1227 0.82066 0.0
H1395 H 0.82211 0.98971 0.7893 0.0
H1396 H 0.83546 0.03775 0.80191 0.0
H1397 H 0.92872 0.10015 0.794 0.0
H1398 H 0.99927 0.19703 0.83652 0.0
H1399 H 0.97869 0.15979 0.82172 0.0
C1400 C 0.79979 0.93063 0.45514 0.0
C1401 C 0.82003 0.90317 0.45973 0.0
C1402 C 0.76595 0.92385 0.45114 0.0
C1403 C 0.69309 0.85787 0.45098 0.0
H1404 H 0.67623 0.89648 0.4221 0.0
C1405 C 0.5886 0.80317 0.42093 0.0
C1406 C 0.574 0.82705 0.41338 0.0
C1407 C 0.61388 0.81482 0.42841 0.0
C1408 C 0.68001 0.88603 0.43026 0.0
H1409 H 0.82082 0.84717 0.46372 0.0
H1410 H 0.76179 0.83521 0.45665 0.0
H1411 H 0.72937 0.913 0.43178 0.0
H1412 H 0.57103 0.88225 0.40849 0.0
H1413 H 0.61372 0.90279 0.42179 0.0
H1414 H 0.64381 0.83027 0.4493 0.0
C1415 C 0.77172 0.86213 0.45638 0.0
C1416 C 0.7106 0.89551 0.43581 0.0
C1417 C 0.80555 0.86892 0.46037 0.0
C1418 C 0.5825 0.86316 0.41408 0.0
C1419 C 0.60711 0.87487 0.42166 0.0
C1420 C 0.66226 0.84843 0.44542 0.0
C1421 C 0.75179 0.88939 0.45156 0.0
C1422 C 0.7177 0.8813 0.44617 0.0
C1423 C 0.62437 0.85064 0.42855 0.0
C1424 C 0.65553 0.86221 0.43495 0.0
H1425 H 0.8105 0.95718 0.45443 0.0
H1426 H 0.75111 0.94545 0.44754 0.0
H1427 H 0.69776 0.8467 0.459 0.0
H1428 H 0.58225 0.77523 0.42059 0.0
H1429 H 0.62666 0.79543 0.43361 0.0
C1430 C 0.9117 0.05837 0.21578 0.0
C1431 C 0.89861 0.05079 0.22633 0.0
C1432 C 0.91589 0.03134 0.20814 0.0
C1433 C 0.9352 0.93881 0.20513 0.0
H1434 H 0.88693 0.9452 0.17738 0.0
C1435 C 0.94461 0.82709 0.17288 0.0
C1436 C 0.94367 0.83726 0.16185 0.0
C1437 C 0.93826 0.85205 0.18108 0.0
C1438 C 0.90118 0.94318 0.185 0.0
H1439 H 0.87971 0.00885 0.23704 0.0
H1440 H 0.88846 0.96138 0.22375 0.0
H1441 H 0.87819 0.99134 0.19093 0.0
H1442 H 0.93719 0.88172 0.15075 0.0
H1443 H 0.92796 0.92524 0.16491 0.0
H1444 H 0.9596 0.89165 0.19911 0.0
C1445 C 0.89503 0.98836 0.22145 0.0
C1446 C 0.89586 0.96953 0.19277 0.0
C1447 C 0.89002 0.01549 0.22902 0.0
C1448 C 0.93735 0.87292 0.15918 0.0
C1449 C 0.93179 0.8979 0.16734 0.0
C1450 C 0.94118 0.91277 0.19726 0.0
C1451 C 0.90789 0.99613 0.21095 0.0
C1452 C 0.9129 0.96763 0.20288 0.0
C1453 C 0.93158 0.88782 0.17841 0.0
C1454 C 0.92442 0.91471 0.18703 0.0
H1455 H 0.9188 0.0851 0.21338 0.0
H1456 H 0.92598 0.03784 0.20008 0.0
H1457 H 0.94875 0.93698 0.21288 0.0
H1458 H 0.94941 0.79974 0.17515 0.0
H1459 H 0.93798 0.84309 0.18949 0.0
C1460 C 0.75615 0.09244 0.97146 0.0
C1461 C 0.72069 0.1027 0.96997 0.0
C1462 C 0.78276 0.10492 0.96445 0.0
C1463 C 0.79914 0.13062 0.93686 0.0
H1464 H 0.87743 0.18811 0.94687 0.0
C1465 C 0.89503 0.19349 0.90603 0.0
C1466 C 0.93088 0.19642 0.90877 0.0
C1467 C 0.86994 0.18395 0.9139 0.0
C1468 C 0.85613 0.1716 0.94394 0.0
H1469 H 0.68569 0.13491 0.95995 0.0
H1470 H 0.73199 0.15512 0.94744 0.0
H1471 H 0.83319 0.16645 0.95997 0.0
H1472 H 0.96876 0.19239 0.92189 0.0
H1473 H 0.9252 0.17383 0.93562 0.0
H1474 H 0.82225 0.13399 0.92099 0.0
C1475 C 0.73899 0.13767 0.95414 0.0
C1476 C 0.83074 0.15943 0.95145 0.0
C1477 C 0.71251 0.12591 0.9613 0.0
C1478 C 0.94118 0.19037 0.9196 0.0
C1479 C 0.91613 0.17992 0.92746 0.0
C1480 C 0.82482 0.14205 0.92941 0.0
C1481 C 0.77427 0.12733 0.95568 0.0
C1482 C 0.80189 0.13921 0.94792 0.0
C1483 C 0.88017 0.17611 0.92467 0.0
C1484 C 0.85346 0.16315 0.93279 0.0
H1485 H 0.76324 0.07477 0.9781 0.0
H1486 H 0.80985 0.09655 0.96573 0.0
H1487 H 0.77725 0.11468 0.93401 0.0
H1488 H 0.88635 0.19865 0.89776 0.0
H1489 H 0.84247 0.1826 0.91148 0.0
C1490 C 0.72492 0.93554 0.67542 0.0
C1491 C 0.75438 0.93671 0.68233 0.0
C1492 C 0.71148 0.96661 0.67077 0.0
C1493 C 0.71124 0.06437 0.67368 0.0
H1494 H 0.67243 0.06065 0.64449 0.0
C1495 C 0.64536 0.18617 0.65297 0.0
C1496 C 0.61073 0.17849 0.64965 0.0
C1497 C 0.66866 0.15851 0.65564 0.0
C1498 C 0.68337 0.06213 0.65263 0.0
H1499 H 0.79291 0.9713 0.68979 0.0
H1500 H 0.76989 0.02561 0.68151 0.0
H1501 H 0.70149 0.00852 0.65214 0.0
H1502 H 0.57378 0.13654 0.64587 0.0
H1503 H 0.61446 0.08853 0.6502 0.0
H1504 H 0.6926 0.118 0.67416 0.0
C1505 C 0.75674 0.00077 0.67982 0.0
C1506 C 0.69975 0.03219 0.65706 0.0
C1507 C 0.77002 0.96969 0.68454 0.0
C1508 C 0.60041 0.14304 0.64842 0.0
C1509 C 0.62374 0.11559 0.65085 0.0
C1510 C 0.69508 0.09445 0.66921 0.0
C1511 C 0.7274 0.99962 0.67282 0.0
C1512 C 0.71305 0.03259 0.66775 0.0
C1513 C 0.65779 0.12295 0.65476 0.0
C1514 C 0.68018 0.09333 0.65874 0.0
H1515 H 0.71233 0.91053 0.67356 0.0
H1516 H 0.6884 0.96472 0.66561 0.0
H1517 H 0.72091 0.06563 0.68197 0.0
H1518 H 0.65372 0.21337 0.65405 0.0
H1519 H 0.69483 0.16486 0.65861 0.0
C1520 C 0.75423 0.41984 0.96253 0.0
C1521 C 0.72549 0.44036 0.95897 0.0
C1522 C 0.77984 0.40817 0.95511 0.0
C1523 C 0.81754 0.36936 0.93691 0.0
H1524 H 0.85369 0.43234 0.91432 0.0
C1525 C 0.91154 0.31914 0.90343 0.0
C1526 C 0.94119 0.34034 0.90096 0.0
C1527 C 0.88393 0.33225 0.90985 0.0
C1528 C 0.84396 0.4145 0.92061 0.0
H1529 H 0.70166 0.46589 0.94493 0.0
H1530 H 0.74619 0.44504 0.9319 0.0
H1531 H 0.80865 0.45361 0.92708 0.0
H1532 H 0.9644 0.39245 0.90301 0.0
H1533 H 0.91624 0.41523 0.91432 0.0
H1534 H 0.85332 0.33054 0.93065 0.0
C1535 C 0.74892 0.43797 0.94044 0.0
C1536 C 0.81791 0.42656 0.92785 0.0
C1537 C 0.72328 0.44963 0.94786 0.0
C1538 C 0.942 0.37539 0.90477 0.0
C1539 C 0.91431 0.38851 0.91121 0.0
C1540 C 0.84349 0.35732 0.92968 0.0
C1541 C 0.77741 0.41698 0.94398 0.0
C1542 C 0.80454 0.40415 0.93612 0.0
C1543 C 0.88524 0.36688 0.91396 0.0
C1544 C 0.85707 0.37975 0.92146 0.0
H1545 H 0.75696 0.4129 0.97107 0.0
H1546 H 0.80182 0.39263 0.95814 0.0
H1547 H 0.80752 0.3513 0.9431 0.0
H1548 H 0.90984 0.29208 0.90058 0.0
H1549 H 0.86161 0.31512 0.91165 0.0
C1550 C 0.77345 0.4863 0.19631 0.0
C1551 C 0.79249 0.47351 0.20534 0.0
C1552 C 0.78842 0.51154 0.18927 0.0
C1553 C 0.8618 0.57737 0.18808 0.0
H1554 H 0.83891 0.58094 0.15728 0.0
C1555 C 0.93836 0.66373 0.15721 0.0
C1556 C 0.91773 0.68717 0.15095 0.0
C1557 C 0.92238 0.6369 0.16337 0.0
C1558 C 0.8453 0.58028 0.16588 0.0
H1559 H 0.84332 0.47447 0.21341 0.0
H1560 H 0.86998 0.51727 0.20091 0.0
H1561 H 0.8134 0.53434 0.16883 0.0
H1562 H 0.86432 0.70004 0.14592 0.0
H1563 H 0.83635 0.65225 0.15658 0.0
H1564 H 0.89462 0.62263 0.18499 0.0
C1565 C 0.84278 0.50945 0.19959 0.0
C1566 C 0.83062 0.55372 0.17253 0.0
C1567 C 0.8276 0.48471 0.20673 0.0
C1568 C 0.88083 0.6825 0.15072 0.0
C1569 C 0.86487 0.65514 0.15675 0.0
C1570 C 0.87689 0.60344 0.18141 0.0
C1571 C 0.82315 0.52381 0.1909 0.0
C1572 C 0.83873 0.55188 0.18372 0.0
C1573 C 0.88552 0.63252 0.16326 0.0
C1574 C 0.86882 0.60511 0.17026 0.0
H1575 H 0.74676 0.47734 0.19477 0.0
H1576 H 0.77239 0.52193 0.1827 0.0
H1577 H 0.868 0.5775 0.19669 0.0
H1578 H 0.96686 0.66663 0.1576 0.0
H1579 H 0.93886 0.6196 0.16827 0.0
C1580 C 0.84376 0.63776 0.4446 0.0
C1581 C 0.85817 0.60386 0.44298 0.0
C1582 C 0.81081 0.64663 0.44024 0.0
C1583 C 0.72805 0.60897 0.42959 0.0
H1584 H 0.7221 0.69751 0.4135 0.0
C1585 C 0.6069 0.64519 0.40292 0.0
C1586 C 0.59646 0.68091 0.40261 0.0
C1587 C 0.63822 0.63517 0.40816 0.0
C1588 C 0.72302 0.67294 0.4181 0.0
H1589 H 0.84912 0.55255 0.43566 0.0
H1590 H 0.79136 0.56793 0.42814 0.0
H1591 H 0.77704 0.68154 0.42253 0.0
H1592 H 0.61057 0.73401 0.40771 0.0
H1593 H 0.66401 0.71652 0.41713 0.0
H1594 H 0.67388 0.60052 0.42529 0.0
C1595 C 0.80549 0.58755 0.43283 0.0
C1596 C 0.7546 0.66379 0.42326 0.0
C1597 C 0.83857 0.57879 0.43711 0.0
C1598 C 0.61779 0.70626 0.40776 0.0
C1599 C 0.64873 0.69624 0.4131 0.0
C1600 C 0.69628 0.61829 0.42451 0.0
C1601 C 0.79148 0.62171 0.43422 0.0
C1602 C 0.75749 0.6317 0.42904 0.0
C1603 C 0.65961 0.66063 0.41329 0.0
C1604 C 0.69336 0.65041 0.41869 0.0
H1605 H 0.85832 0.65758 0.44909 0.0
H1606 H 0.80049 0.67306 0.44152 0.0
H1607 H 0.72945 0.58417 0.43406 0.0
H1608 H 0.59121 0.62504 0.39896 0.0
H1609 H 0.64599 0.60757 0.408 0.0
C1610 C 0.59357 0.57354 0.70932 0.0
C1611 C 0.61053 0.60019 0.70315 0.0
C1612 C 0.58934 0.53949 0.70506 0.0
C1613 C 0.62368 0.47993 0.68354 0.0
H1614 H 0.53327 0.43218 0.68689 0.0
C1615 C 0.58295 0.36255 0.65676 0.0
C1616 C 0.56673 0.33337 0.66191 0.0
C1617 C 0.5893 0.39364 0.66252 0.0
C1618 C 0.5588 0.445 0.68601 0.0
H1619 H 0.63581 0.61225 0.68765 0.0
H1620 H 0.62847 0.55302 0.68022 0.0
H1621 H 0.54281 0.48922 0.69574 0.0
H1622 H 0.54381 0.31415 0.67711 0.0
H1623 H 0.5548 0.36875 0.68719 0.0
H1624 H 0.6394 0.43612 0.67364 0.0
C1625 C 0.61904 0.55811 0.68842 0.0
C1626 C 0.5643 0.47763 0.69109 0.0
C1627 C 0.62318 0.59209 0.69266 0.0
C1628 C 0.55691 0.33598 0.67296 0.0
C1629 C 0.56283 0.36733 0.6787 0.0
C1630 C 0.61813 0.44746 0.67845 0.0
C1631 C 0.60193 0.53143 0.69454 0.0
C1632 C 0.59668 0.49568 0.68979 0.0
C1633 C 0.57918 0.39644 0.67354 0.0
C1634 C 0.58553 0.42985 0.67952 0.0
H1635 H 0.58318 0.57923 0.71738 0.0
H1636 H 0.57626 0.51948 0.71001 0.0
H1637 H 0.64914 0.49278 0.68255 0.0
H1638 H 0.59059 0.36145 0.64823 0.0
H1639 H 0.60152 0.4158 0.65829 0.0
C1640 C 0.69463 0.62456 0.0671 0.0
C1641 C 0.69463 0.62858 0.05571 0.0
C1642 C 0.72641 0.62194 0.0728 0.0
C1643 C 0.81956 0.6492 0.07032 0.0
H1644 H 0.82628 0.60027 0.09815 0.0
C1645 C 0.9326 0.67974 0.0999 0.0
C1646 C 0.91881 0.692 0.10985 0.0
C1647 C 0.91107 0.66055 0.09278 0.0
C1648 C 0.82498 0.61376 0.09033 0.0
H1649 H 0.72801 0.6327 0.04131 0.0
H1650 H 0.78372 0.6272 0.05123 0.0
H1651 H 0.77681 0.58762 0.08605 0.0
H1652 H 0.8732 0.69141 0.12064 0.0
H1653 H 0.83599 0.65731 0.10839 0.0
H1654 H 0.86712 0.67614 0.07477 0.0
C1655 C 0.75908 0.62627 0.05579 0.0
C1656 C 0.79654 0.60672 0.08343 0.0
C1657 C 0.72719 0.62909 0.05008 0.0
C1658 C 0.88436 0.68225 0.11299 0.0
C1659 C 0.86315 0.66258 0.106 0.0
C1660 C 0.84816 0.65597 0.07717 0.0
C1661 C 0.75911 0.62339 0.06725 0.0
C1662 C 0.79268 0.62545 0.07354 0.0
C1663 C 0.87575 0.65279 0.09563 0.0
C1664 C 0.85041 0.63935 0.08744 0.0
H1665 H 0.66997 0.62475 0.07166 0.0
H1666 H 0.72525 0.62056 0.08162 0.0
H1667 H 0.81741 0.66441 0.06283 0.0
H1668 H 0.95903 0.68719 0.09728 0.0
H1669 H 0.92147 0.65319 0.08486 0.0
C1670 C 0.64525 0.48684 0.30111 0.0
C1671 C 0.64739 0.45474 0.30695 0.0
C1672 C 0.65133 0.51913 0.30633 0.0
C1673 C 0.68257 0.5587 0.33256 0.0
H1674 H 0.60951 0.62812 0.32662 0.0
C1675 C 0.61533 0.64402 0.3646 0.0
C1676 C 0.60095 0.67696 0.36165 0.0
C1677 C 0.63503 0.62456 0.35707 0.0
C1678 C 0.63079 0.60961 0.32822 0.0
H1679 H 0.65779 0.43127 0.32276 0.0
H1680 H 0.66765 0.4873 0.33193 0.0
H1681 H 0.61683 0.57804 0.31452 0.0
H1682 H 0.59839 0.71699 0.34895 0.0
H1683 H 0.63271 0.6827 0.33567 0.0
H1684 H 0.69463 0.58924 0.34675 0.0
C1685 C 0.66244 0.48775 0.32325 0.0
C1686 C 0.63499 0.58073 0.32126 0.0
C1687 C 0.65656 0.45556 0.31802 0.0
C1688 C 0.6095 0.69175 0.35143 0.0
C1689 C 0.62882 0.67199 0.34381 0.0
C1690 C 0.67817 0.58749 0.33957 0.0
C1691 C 0.65917 0.52003 0.31754 0.0
C1692 C 0.65996 0.55414 0.32359 0.0
C1693 C 0.64025 0.63747 0.34639 0.0
C1694 C 0.6513 0.61249 0.3377 0.0
H1695 H 0.63776 0.48703 0.29259 0.0
H1696 H 0.64887 0.54343 0.30165 0.0
H1697 H 0.70263 0.53916 0.33445 0.0
H1698 H 0.60896 0.63209 0.37244 0.0
H1699 H 0.64323 0.59801 0.35931 0.0
C1700 C 0.81015 0.50041 0.57032 0.0
C1701 C 0.80661 0.49151 0.55926 0.0
C1702 C 0.79271 0.48067 0.57842 0.0
C1703 C 0.7306 0.4523 0.59183 0.0
H1704 H 0.71878 0.35041 0.59024 0.0
C1705 C 0.61067 0.37834 0.60979 0.0
C1706 C 0.61538 0.34445 0.61437 0.0
C1707 C 0.63913 0.39645 0.60505 0.0
C1708 C 0.72225 0.3788 0.59092 0.0
H1709 H 0.78279 0.4546 0.54802 0.0
H1710 H 0.75237 0.42005 0.56214 0.0
H1711 H 0.76059 0.38014 0.57796 0.0
H1712 H 0.65413 0.30369 0.618 0.0
H1713 H 0.70393 0.33542 0.60964 0.0
H1714 H 0.69161 0.45108 0.60459 0.0
C1715 C 0.76893 0.442 0.56458 0.0
C1716 C 0.74591 0.39585 0.58381 0.0
C1717 C 0.7862 0.46185 0.55649 0.0
C1718 C 0.6496 0.32978 0.61456 0.0
C1719 C 0.67807 0.34781 0.6097 0.0
C1720 C 0.7068 0.43528 0.59889 0.0
C1721 C 0.77144 0.45158 0.57562 0.0
C1722 C 0.74977 0.43289 0.58402 0.0
C1723 C 0.67296 0.38103 0.6047 0.0
C1724 C 0.70177 0.39844 0.59834 0.0
H1725 H 0.82561 0.52326 0.57267 0.0
H1726 H 0.79539 0.48852 0.58686 0.0
H1727 H 0.73275 0.48089 0.59216 0.0
H1728 H 0.58472 0.3905 0.60956 0.0
H1729 H 0.63422 0.42186 0.60118 0.0
C1730 C 0.81666 0.51338 0.79934 0.0
C1731 C 0.80859 0.54728 0.80332 0.0
C1732 C 0.83024 0.4872 0.80626 0.0
C1733 C 0.84125 0.46417 0.83575 0.0
H1734 H 0.91329 0.40061 0.82457 0.0
C1735 C 0.93904 0.38559 0.8626 0.0
C1736 C 0.94698 0.3505 0.85971 0.0
C1737 C 0.91689 0.40631 0.85609 0.0
C1738 C 0.89279 0.4178 0.82777 0.0
H1739 H 0.80718 0.57979 0.81784 0.0
H1740 H 0.83246 0.53485 0.8298 0.0
H1741 H 0.88644 0.44404 0.81241 0.0
H1742 H 0.93692 0.3091 0.84796 0.0
H1743 H 0.89851 0.34572 0.83641 0.0
H1744 H 0.84906 0.43875 0.85125 0.0
C1745 C 0.82785 0.52816 0.82135 0.0
C1746 C 0.87731 0.44275 0.82079 0.0
C1747 C 0.81382 0.55421 0.81445 0.0
C1748 C 0.93109 0.33601 0.85041 0.0
C1749 C 0.90937 0.35701 0.84377 0.0
C1750 C 0.8571 0.43952 0.84275 0.0
C1751 C 0.83624 0.49425 0.81736 0.0
C1752 C 0.85156 0.46656 0.8247 0.0
C1753 C 0.90263 0.39257 0.84645 0.0
C1754 C 0.88325 0.4163 0.83885 0.0
H1755 H 0.81206 0.50704 0.79086 0.0
H1756 H 0.83557 0.46125 0.80291 0.0
H1757 H 0.82097 0.48142 0.83903 0.0
H1758 H 0.95085 0.3974 0.86975 0.0
H1759 H 0.91235 0.43366 0.85833 0.0
C1760 C 0.27036 0.62863 0.02926 0.0
C1761 C 0.31437 0.62634 0.03596 0.0
C1762 C 0.23347 0.63312 0.03852 0.0
C1763 C 0.21348 0.63866 0.07143 0.0
H1764 H 0.12376 0.6725 0.06026 0.0
C1765 C 0.09681 0.6589 0.10055 0.0
C1766 C 0.07919 0.69149 0.09946 0.0
C1767 C 0.11881 0.64653 0.09222 0.0
C1768 C 0.14862 0.66302 0.06351 0.0
H1769 H 0.34946 0.64707 0.05296 0.0
H1770 H 0.28788 0.65641 0.06672 0.0
H1771 H 0.17325 0.66329 0.04776 0.0
H1772 H 0.06888 0.73549 0.08848 0.0
H1773 H 0.10785 0.71436 0.07403 0.0
H1774 H 0.18964 0.64011 0.08725 0.0
C1775 C 0.2845 0.64924 0.05827 0.0
C1776 C 0.17694 0.65732 0.05632 0.0
C1777 C 0.32304 0.64529 0.04966 0.0
C1778 C 0.08195 0.71017 0.08954 0.0
C1779 C 0.10434 0.698 0.08124 0.0
C1780 C 0.18531 0.64447 0.07862 0.0
C1781 C 0.2406 0.64199 0.05284 0.0
C1782 C 0.20982 0.64563 0.06024 0.0
C1783 C 0.12408 0.6667 0.08266 0.0
C1784 C 0.15263 0.65718 0.07478 0.0
H1785 H 0.26651 0.62007 0.02095 0.0
H1786 H 0.20693 0.62986 0.03544 0.0
H1787 H 0.23818 0.62892 0.07471 0.0
H1788 H 0.09483 0.64367 0.10806 0.0
H1789 H 0.13283 0.62182 0.09346 0.0
C1790 C 0.12595 0.53304 0.77979 0.0
C1791 C 0.14904 0.5709 0.78628 0.0
C1792 C 0.12559 0.49291 0.78778 0.0
C1793 C 0.16246 0.45267 0.81638 0.0
H1794 H 0.07811 0.39492 0.81382 0.0
C1795 C 0.11148 0.36666 0.85146 0.0
C1796 C 0.0889 0.33776 0.84953 0.0
C1797 C 0.12511 0.38667 0.84282 0.0
C1798 C 0.10241 0.40994 0.81447 0.0
H1799 H 0.16482 0.59846 0.80506 0.0
H1800 H 0.16017 0.53243 0.81714 0.0
H1801 H 0.0882 0.44341 0.80103 0.0
H1802 H 0.06583 0.30525 0.83688 0.0
H1803 H 0.09067 0.3396 0.82174 0.0
H1804 H 0.17684 0.41944 0.82981 0.0
C1805 C 0.15347 0.53313 0.80858 0.0
C1806 C 0.10807 0.43792 0.80714 0.0
C1807 C 0.15467 0.57468 0.80132 0.0
C1808 C 0.08274 0.32761 0.83869 0.0
C1809 C 0.09677 0.34751 0.83 0.0
C1810 C 0.15725 0.42424 0.82356 0.0
C1811 C 0.14032 0.49291 0.80177 0.0
C1812 C 0.13747 0.4602 0.8083 0.0
C1813 C 0.11703 0.37812 0.83197 0.0
C1814 C 0.1264 0.40337 0.82299 0.0
H1815 H 0.12017 0.53272 0.77116 0.0
H1816 H 0.1164 0.4686 0.78413 0.0
H1817 H 0.18569 0.4692 0.81729 0.0
H1818 H 0.11718 0.37525 0.85968 0.0
H1819 H 0.14019 0.41017 0.84475 0.0
C1820 C 0.22679 0.41146 0.55186 0.0
C1821 C 0.20184 0.38401 0.55114 0.0
C1822 C 0.24827 0.4144 0.56105 0.0
C1823 C 0.26142 0.38167 0.58945 0.0
H1824 H 0.36077 0.39265 0.58211 0.0
C1825 C 0.37507 0.32753 0.61577 0.0
C1826 C 0.4085 0.3438 0.61509 0.0
C1827 C 0.34655 0.34102 0.60985 0.0
C1828 C 0.33313 0.39042 0.5844 0.0
H1829 H 0.1792 0.33859 0.55951 0.0
H1830 H 0.21699 0.34338 0.57552 0.0
H1831 H 0.31662 0.40027 0.56804 0.0
H1832 H 0.43714 0.38923 0.60864 0.0
H1833 H 0.38717 0.41325 0.59855 0.0
H1834 H 0.27826 0.3706 0.60579 0.0
C1835 C 0.21951 0.3631 0.56911 0.0
C1836 C 0.30773 0.39474 0.5763 0.0
C1837 C 0.19798 0.36021 0.55993 0.0
C1838 C 0.41189 0.37571 0.6092 0.0
C1839 C 0.38329 0.38937 0.60336 0.0
C1840 C 0.2869 0.37743 0.5976 0.0
C1841 C 0.24546 0.38975 0.56966 0.0
C1842 C 0.27165 0.38963 0.57866 0.0
C1843 C 0.35077 0.37126 0.60319 0.0
C1844 C 0.32314 0.38096 0.59511 0.0
H1845 H 0.23039 0.43006 0.54518 0.0
H1846 H 0.26772 0.43545 0.56128 0.0
H1847 H 0.23376 0.37804 0.59155 0.0
H1848 H 0.37148 0.3029 0.62023 0.0
H1849 H 0.32198 0.32624 0.60989 0.0
C1850 C 0.41685 0.47189 0.28856 0.0
C1851 C 0.38179 0.45948 0.28799 0.0
C1852 C 0.42536 0.50035 0.2953 0.0
C1853 C 0.39787 0.54359 0.32027 0.0
H1854 H 0.45195 0.62434 0.30974 0.0
C1855 C 0.42947 0.65684 0.34926 0.0
C1856 C 0.46374 0.67101 0.34869 0.0
C1857 C 0.41675 0.63563 0.34088 0.0
C1858 C 0.43715 0.60185 0.31285 0.0
H1859 H 0.3285 0.46641 0.29429 0.0
H1860 H 0.34363 0.51557 0.30627 0.0
H1861 H 0.43627 0.5769 0.29716 0.0
H1862 H 0.5112 0.67552 0.3388 0.0
H1863 H 0.48972 0.63721 0.32431 0.0
H1864 H 0.3999 0.56709 0.33601 0.0
C1865 C 0.36429 0.50364 0.30135 0.0
C1866 C 0.42811 0.57477 0.30563 0.0
C1867 C 0.35566 0.47558 0.29449 0.0
C1868 C 0.48449 0.66515 0.33935 0.0
C1869 C 0.47209 0.64319 0.33105 0.0
C1870 C 0.40734 0.57026 0.32751 0.0
C1871 C 0.39917 0.51637 0.30178 0.0
C1872 C 0.40839 0.54543 0.30929 0.0
C1873 C 0.43844 0.62724 0.33187 0.0
C1874 C 0.4271 0.59982 0.32392 0.0
H1875 H 0.43767 0.45956 0.28381 0.0
H1876 H 0.45257 0.50935 0.29564 0.0
H1877 H 0.38307 0.52099 0.32333 0.0
H1878 H 0.41289 0.66129 0.35637 0.0
H1879 H 0.39029 0.62485 0.34165 0.0
C1880 C 0.2801 0.39732 0.97171 0.0
C1881 C 0.29377 0.37072 0.97855 0.0
C1882 C 0.25655 0.38881 0.96338 0.0
C1883 C 0.19041 0.32354 0.95552 0.0
H1884 H 0.20301 0.36351 0.92655 0.0
C1885 C 0.09733 0.28948 0.91947 0.0
C1886 C 0.09013 0.31679 0.91196 0.0
C1887 C 0.12253 0.29434 0.92767 0.0
C1888 C 0.19873 0.3525 0.93463 0.0
H1889 H 0.2945 0.31419 0.98178 0.0
H1890 H 0.25254 0.29941 0.96735 0.0
H1891 H 0.2468 0.37526 0.94055 0.0
H1892 H 0.10245 0.37108 0.90746 0.0
H1893 H 0.14508 0.38002 0.9219 0.0
H1894 H 0.14178 0.30165 0.94973 0.0
C1895 C 0.25996 0.32684 0.96851 0.0
C1896 C 0.22399 0.35911 0.94263 0.0
C1897 C 0.28395 0.33529 0.97674 0.0
C1898 C 0.10774 0.34935 0.91303 0.0
C1899 C 0.13245 0.35437 0.92128 0.0
C1900 C 0.16484 0.31726 0.94755 0.0
C1901 C 0.24593 0.35356 0.96178 0.0
C1902 C 0.21995 0.34496 0.95317 0.0
C1903 C 0.14071 0.32677 0.92859 0.0
C1904 C 0.16849 0.33199 0.93702 0.0
H1905 H 0.28734 0.4248 0.97286 0.0
H1906 H 0.24601 0.40995 0.95834 0.0
H1907 H 0.18653 0.31253 0.96363 0.0
H1908 H 0.08437 0.26399 0.91879 0.0
H1909 H 0.1284 0.27237 0.93308 0.0
C1910 C 0.42239 0.57901 0.70701 0.0
C1911 C 0.39779 0.57433 0.71557 0.0
C1912 C 0.43271 0.55029 0.70057 0.0
C1913 C 0.44079 0.45372 0.70086 0.0
H1914 H 0.43424 0.46073 0.66937 0.0
C1915 C 0.44916 0.33044 0.67348 0.0
C1916 C 0.46451 0.33383 0.66307 0.0
C1917 C 0.44358 0.36031 0.67995 0.0
C1918 C 0.43692 0.45842 0.67814 0.0
H1919 H 0.36617 0.5357 0.72442 0.0
H1920 H 0.38447 0.48544 0.71322 0.0
H1921 H 0.42042 0.51216 0.68055 0.0
H1922 H 0.48752 0.37088 0.65144 0.0
H1923 H 0.47891 0.42282 0.66284 0.0
H1924 H 0.45783 0.40028 0.69853 0.0
C1925 C 0.3953 0.51141 0.71141 0.0
C1926 C 0.42883 0.48791 0.68453 0.0
C1927 C 0.38461 0.54017 0.71774 0.0
C1928 C 0.47485 0.36757 0.65934 0.0
C1929 C 0.46987 0.39736 0.66588 0.0
C1930 C 0.44937 0.42437 0.69447 0.0
C1931 C 0.41935 0.51621 0.70274 0.0
C1932 C 0.43016 0.48566 0.69595 0.0
C1933 C 0.45384 0.3942 0.67624 0.0
C1934 C 0.44699 0.42613 0.68303 0.0
H1935 H 0.43377 0.60482 0.70532 0.0
H1936 H 0.45162 0.55458 0.69401 0.0
H1937 H 0.44252 0.45146 0.70966 0.0
H1938 H 0.44099 0.30474 0.67657 0.0
H1939 H 0.43063 0.35681 0.68779 0.0
C1940 C 0.24358 0.52502 0.45327 0.0
C1941 C 0.24614 0.52399 0.46469 0.0
C1942 C 0.2654 0.54743 0.44711 0.0
C1943 C 0.32725 0.62388 0.44849 0.0
H1944 H 0.36548 0.58107 0.42227 0.0
C1945 C 0.44282 0.68194 0.42142 0.0
C1946 C 0.43797 0.67846 0.41011 0.0
C1947 C 0.41828 0.66691 0.42877 0.0
C1948 C 0.35482 0.59357 0.42952 0.0
H1949 H 0.2736 0.5455 0.47861 0.0
H1950 H 0.3123 0.58438 0.46783 0.0
H1951 H 0.32441 0.54776 0.43365 0.0
H1952 H 0.4021 0.65954 0.39766 0.0
H1953 H 0.35968 0.63396 0.41035 0.0
H1954 H 0.35844 0.6697 0.44427 0.0
C1955 C 0.29276 0.56854 0.46366 0.0
C1956 C 0.33113 0.5745 0.43602 0.0
C1957 C 0.27069 0.54625 0.46983 0.0
C1958 C 0.40714 0.66188 0.40632 0.0
C1959 C 0.38278 0.64717 0.41359 0.0
C1960 C 0.35123 0.64304 0.44195 0.0
C1961 C 0.29084 0.56884 0.4522 0.0
C1962 C 0.31661 0.58953 0.4455 0.0
C1963 C 0.38861 0.64841 0.42487 0.0
C1964 C 0.36479 0.62819 0.4323 0.0
H1965 H 0.2253 0.50784 0.44905 0.0
H1966 H 0.2628 0.54743 0.43832 0.0
H1967 H 0.31651 0.63622 0.45574 0.0
H1968 H 0.46625 0.69477 0.42456 0.0
H1969 H 0.42333 0.66835 0.43744 0.0
C1970 C 0.20332 0.45057 0.19166 0.0
C1971 C 0.2253 0.45852 0.20051 0.0
C1972 C 0.17872 0.47529 0.1879 0.0
C1973 C 0.13282 0.55957 0.19507 0.0
H1974 H 0.12394 0.56725 0.16367 0.0
C1975 C 0.07731 0.68081 0.17102 0.0
C1976 C 0.05908 0.67319 0.16139 0.0
C1977 C 0.09088 0.65313 0.17741 0.0
C1978 C 0.12561 0.56509 0.17247 0.0
H1979 H 0.23726 0.49789 0.21276 0.0
H1980 H 0.19564 0.54183 0.20584 0.0
H1981 H 0.1619 0.52205 0.17139 0.0
H1982 H 0.03771 0.63162 0.15131 0.0
H1983 H 0.06045 0.58333 0.16258 0.0
H1984 H 0.09736 0.60397 0.19599 0.0
C1985 C 0.19706 0.51632 0.20188 0.0
C1986 C 0.1474 0.53908 0.17691 0.0
C1987 C 0.22135 0.49136 0.20573 0.0
C1988 C 0.05181 0.63791 0.15872 0.0
C1989 C 0.06502 0.61038 0.16512 0.0
C1990 C 0.11116 0.58596 0.19059 0.0
C1991 C 0.17567 0.50871 0.19284 0.0
C1992 C 0.15137 0.53594 0.18827 0.0
C1993 C 0.08624 0.6177 0.1742 0.0
C1994 C 0.10735 0.58889 0.17923 0.0
H1995 H 0.20513 0.42516 0.18764 0.0
H1996 H 0.16207 0.46813 0.1811 0.0
H1997 H 0.13495 0.55766 0.20386 0.0
H1998 H 0.08348 0.70795 0.17311 0.0
H1999 H 0.10723 0.65951 0.18436 0.0
loop_
_geom_bond_atom_site_label_1
_geom_bond_atom_site_label_2
_geom_bond_distance
_geom_bond_site_symmetry_2
_ccdc_geom_bond_type
C0 C1 1.560 . S
C0 H61 0.959 . S
C0 H62 0.959 . S
C0 H63 0.960 . S
C1 C0 1.560 . S
C1 O56 1.426 . S
C1 H60 0.980 . S
C2 C3 1.407 . S
C2 C7 1.418 . S
C2 O56 1.334 . S
C3 C2 1.407 . S
C3 C4 1.360 . S
C3 H64 0.929 . S
C4 C3 1.360 . S
C4 C5 1.401 . S
C4 C8 1.527 . S
C5 C4 1.401 . S
C5 C6 1.405 . S
C5 C38 1.587 . S
C6 C5 1.405 . S
C6 C7 1.332 . S
C6 C9 1.496 1_565 S
C7 C2 1.418 . S
C7 C6 1.332 . S
C7 H65 0.929 1_565 S
C8 C4 1.527 . S
C8 H66 0.959 . S
C8 H67 0.961 . S
C8 H68 0.961 . S
C9 C6 1.496 1_545 S
C9 H69 0.960 . S
C9 H70 0.960 . S
C9 H71 0.961 . S
C10 C11 1.517 . S
C10 H73 0.961 . S
C10 H74 0.960 . S
C10 H75 0.959 . S
C11 C10 1.517 . S
C11 O59 1.468 . S
C11 H72 0.980 . S
C12 C13 1.349 . S
C12 C17 1.367 . S
C12 O59 1.408 . S
C13 C12 1.349 . S
C13 C14 1.407 . S
C13 H76 0.930 . S
C14 C13 1.407 . S
C14 C15 1.449 . S
C14 C18 1.535 . S
C15 C14 1.449 . S
C15 C16 1.384 . S
C15 C40 1.553 . S
C16 C15 1.384 . S
C16 C17 1.364 . S
C16 C19 1.450 . S
C17 C12 1.367 . S
C17 C16 1.364 . S
C17 H77 0.931 . S
C18 C14 1.535 . S
C18 H78 0.959 . S
C18 H79 0.961 . S
C18 H80 0.959 1_565 S
C19 C16 1.450 . S
C19 H81 0.960 . S
C19 H82 0.960 . S
C19 H83 0.960 . S
C20 C21 1.309 . S
C20 C25 1.304 . S
C20 O58 1.435 . S
C21 C20 1.309 . S
C21 C22 1.476 . S
C21 H85 0.930 . S
C22 C21 1.476 . S
C22 C23 1.400 . S
C22 C26 1.567 . S
C23 C22 1.400 . S
C23 C24 1.373 . S
C23 C45 1.432 . S
C24 C23 1.373 . S
C24 C25 1.339 . S
C24 C27 1.530 1_545 S
C25 C20 1.304 . S
C25 C24 1.339 . S
C25 H86 0.930 . S
C26 C22 1.567 . S
C26 H87 0.961 . S
C26 H88 0.960 . S
C26 H89 0.958 . S
C27 C24 1.530 1_565 S
C27 H90 0.961 . S
C27 H91 0.960 . S
C27 H92 0.960 . S
C28 C29 1.530 . S
C28 H94 0.961 . S
C28 H95 0.961 . S
C28 H96 0.959 . S
C29 C28 1.530 . S
C29 O57 1.412 . S
C29 H93 0.980 . S
C30 C31 1.288 . S
C30 C35 1.377 . S
C30 O57 1.393 . S
C31 C30 1.288 . S
C31 C32 1.369 . S
C31 H97 0.932 . S
C32 C31 1.369 . S
C32 C33 1.398 . S
C32 C36 1.527 . S
C33 C32 1.398 . S
C33 C34 1.380 . S
C33 C47 1.497 . S
C34 C33 1.380 . S
C34 C35 1.383 . S
C34 C37 1.603 . S
C35 C30 1.377 . S
C35 C34 1.383 . S
C35 H98 0.929 . S
C36 C32 1.527 . S
C36 H99 0.961 . S
C36 H100 0.959 . S
C36 H101 0.959 . S
C37 C34 1.603 . S
C37 H102 0.960 . S
C37 H103 0.962 . S
C37 H104 0.961 1_545 S
C38 C5 1.587 . S
C38 C39 1.360 1_655 S
C38 C51 1.412 . S
C39 C38 1.360 1_455 S
C39 C40 1.365 . S
C39 H105 0.929 . S
C40 C15 1.553 . S
C40 C39 1.365 . S
C40 C41 1.404 . S
C41 C40 1.404 . S
C41 C42 1.395 . S
C41 C52 1.451 . S
C42 C41 1.395 . S
C42 C43 1.322 . S
C42 H106 0.930 . S
C43 C42 1.322 . S
C43 C44 1.459 1_565 S
C43 H107 0.928 1_565 S
C44 C43 1.459 1_545 S
C44 C45 1.445 . S
C44 C53 1.395 . S
C45 C23 1.432 . S
C45 C44 1.445 . S
C45 C46 1.370 . S
C46 C45 1.370 . S
C46 C47 1.438 1_455 S
C46 H108 0.930 . S
C47 C33 1.497 . S
C47 C46 1.438 1_655 S
C47 C48 1.360 . S
C48 C47 1.360 . S
C48 C49 1.401 . S
C48 C53 1.446 1_655 S
C49 C48 1.401 . S
C49 C50 1.347 1_545 S
C49 H109 0.929 . S
C50 C49 1.347 1_565 S
C50 C51 1.455 . S
C50 H110 0.930 . S
C51 C38 1.412 . S
C51 C50 1.455 . S
C51 C52 1.331 1_655 S
C52 C41 1.451 . S
C52 C51 1.331 1_455 S
C52 C53 1.497 1_565 S
C53 C44 1.395 . S
C53 C48 1.446 1_455 S
C53 C52 1.497 1_545 S
C54 C55 1.582 . S
C54 H111 0.962 . S
C54 H112 0.959 . S
C54 H113 0.958 . S
C55 C54 1.582 . S
C55 O58 1.458 . S
C55 H84 0.980 . S
O56 C1 1.426 . S
O56 C2 1.334 . S
O57 C29 1.412 . S
O57 C30 1.393 . S
O58 C20 1.435 . S
O58 C55 1.458 . S
O59 C11 1.468 . S
O59 C12 1.408 . S
H60 C1 0.980 . S
H61 C0 0.959 . S
H62 C0 0.959 . S
H63 C0 0.960 . S
H64 C3 0.929 . S
H65 C7 0.929 1_545 S
H66 C8 0.959 . S
H67 C8 0.961 . S
H68 C8 0.961 . S
H69 C9 0.960 . S
H70 C9 0.960 . S
H71 C9 0.961 . S
H72 C11 0.980 . S
H73 C10 0.961 . S
H74 C10 0.960 . S
H75 C10 0.959 . S
H76 C13 0.930 . S
H77 C17 0.931 . S
H78 C18 0.959 . S
H79 C18 0.961 . S
H80 C18 0.959 1_545 S
H81 C19 0.960 . S
H82 C19 0.960 . S
H83 C19 0.960 . S
H84 C55 0.980 . S
H85 C21 0.930 . S
H86 C25 0.930 . S
H87 C26 0.961 . S
H88 C26 0.960 . S
H89 C26 0.958 . S
H90 C27 0.961 . S
H91 C27 0.960 . S
H92 C27 0.960 . S
H93 C29 0.980 . S
H94 C28 0.961 . S
H95 C28 0.961 . S
H96 C28 0.959 . S
H97 C31 0.932 . S
H98 C35 0.929 . S
H99 C36 0.961 . S
H100 C36 0.959 . S
H101 C36 0.959 . S
H102 C37 0.960 . S
H103 C37 0.962 . S
H104 C37 0.961 1_565 S
H105 C39 0.929 . S
H106 C42 0.930 . S
H107 C43 0.928 1_545 S
H108 C46 0.930 . S
H109 C49 0.929 . S
H110 C50 0.930 . S
H111 C54 0.962 . S
H112 C54 0.959 . S
H113 C54 0.958 . S
C114 C115 1.560 . S
C114 H175 0.959 . S
C114 H176 0.959 . S
C114 H177 0.960 . S
C115 C114 1.560 . S
C115 O170 1.426 . S
C115 H174 0.980 . S
C116 C117 1.407 . S
C116 C121 1.418 . S
C116 O170 1.334 . S
C117 C116 1.407 . S
C117 C118 1.360 . S
C117 H178 0.929 . S
C118 C117 1.360 . S
C118 C119 1.401 . S
C118 C122 1.527 . S
C119 C118 1.401 . S
C119 C120 1.405 . S
C119 C152 1.587 . S
C120 C119 1.405 . S
C120 C121 1.332 . S
C120 C123 1.496 . S
C121 C116 1.418 . S
C121 C120 1.332 . S
C121 H179 0.929 . S
C122 C118 1.527 . S
C122 H180 0.959 . S
C122 H181 0.961 . S
C122 H182 0.961 . S
C123 C120 1.496 . S
C123 H183 0.960 . S
C123 H184 0.960 . S
C123 H185 0.961 . S
C124 C125 1.517 . S
C124 H187 0.961 . S
C124 H188 0.960 . S
C124 H189 0.959 . S
C125 C124 1.517 . S
C125 O173 1.468 . S
C125 H186 0.980 . S
C126 C127 1.349 . S
C126 C131 1.367 . S
C126 O173 1.408 . S
C127 C126 1.349 . S
C127 C128 1.407 . S
C127 H190 0.930 . S
C128 C127 1.407 . S
C128 C129 1.449 . S
C128 C132 1.535 . S
C129 C128 1.449 . S
C129 C130 1.384 . S
C129 C154 1.553 . S
C130 C129 1.384 . S
C130 C131 1.364 . S
C130 C133 1.450 . S
C131 C126 1.367 . S
C131 C130 1.364 . S
C131 H191 0.931 . S
C132 C128 1.535 . S
C132 H192 0.959 . S
C132 H193 0.961 . S
C132 H194 0.959 . S
C133 C130 1.450 . S
C133 H195 0.960 . S
C133 H196 0.960 . S
C133 H197 0.960 . S
C134 C135 1.309 . S
C134 C139 1.304 . S
C134 O172 1.435 . S
C135 C134 1.309 . S
C135 C136 1.476 . S
C135 H199 0.930 . S
C136 C135 1.476 . S
C136 C137 1.400 . S
C136 C140 1.567 . S
C137 C136 1.400 . S
C137 C138 1.373 . S
C137 C159 1.432 . S
C138 C137 1.373 . S
C138 C139 1.339 . S
C138 C141 1.530 . S
C139 C134 1.304 . S
C139 C138 1.339 . S
C139 H200 0.930 . S
C140 C136 1.567 . S
C140 H201 0.961 . S
C140 H202 0.960 . S
C140 H203 0.958 . S
C141 C138 1.530 . S
C141 H204 0.961 . S
C141 H205 0.960 . S
C141 H206 0.960 . S
C142 C143 1.530 . S
C142 H208 0.961 . S
C142 H209 0.961 . S
C142 H210 0.959 . S
C143 C142 1.530 . S
C143 O171 1.412 . S
C143 H207 0.980 . S
C144 C145 1.288 . S
C144 C149 1.377 . S
C144 O171 1.393 . S
C145 C144 1.288 . S
C145 C146 1.369 . S
C145 H211 0.932 . S
C146 C145 1.369 . S
C146 C147 1.398 . S
C146 C150 1.527 . S
C147 C146 1.398 . S
C147 C148 1.380 . S
C147 C161 1.497 . S
C148 C147 1.380 . S
C148 C149 1.383 . S
C148 C151 1.603 . S
C149 C144 1.377 . S
C149 C148 1.383 . S
C149 H212 0.929 . S
C150 C146 1.527 . S
C150 H213 0.961 . S
C150 H214 0.959 . S
C150 H215 0.959 . S
C151 C148 1.603 . S
C151 H216 0.960 . S
C151 H217 0.962 . S
C151 H218 0.961 . S
C152 C119 1.587 . S
C152 C153 1.360 . S
C152 C165 1.412 . S
C153 C152 1.360 . S
C153 C154 1.365 . S
C153 H219 0.929 . S
C154 C129 1.553 . S
C154 C153 1.365 . S
C154 C155 1.404 . S
C155 C154 1.404 . S
C155 C156 1.395 . S
C155 C166 1.451 . S
C156 C155 1.395 . S
C156 C157 1.322 . S
C156 H220 0.930 . S
C157 C156 1.322 . S
C157 C158 1.459 . S
C157 H221 0.929 . S
C158 C157 1.459 . S
C158 C159 1.445 . S
C158 C167 1.395 . S
C159 C137 1.432 . S
C159 C158 1.445 . S
C159 C160 1.370 . S
C160 C159 1.370 . S
C160 C161 1.438 . S
C160 H222 0.930 . S
C161 C147 1.497 . S
C161 C160 1.438 . S
C161 C162 1.360 . S
C162 C161 1.360 . S
C162 C163 1.401 . S
C162 C167 1.446 . S
C163 C162 1.401 . S
C163 C164 1.347 . S
C163 H223 0.929 . S
C164 C163 1.347 . S
C164 C165 1.455 . S
C164 H224 0.930 . S
C165 C152 1.412 . S
C165 C164 1.455 . S
C165 C166 1.331 . S
C166 C155 1.451 . S
C166 C165 1.331 . S
C166 C167 1.497 . S
C167 C158 1.395 . S
C167 C162 1.446 . S
C167 C166 1.497 . S
C168 C169 1.582 . S
C168 H225 0.962 . S
C168 H226 0.959 . S
C168 H227 0.958 . S
C169 C168 1.582 . S
C169 O172 1.458 . S
C169 H198 0.980 . S
O170 C115 1.426 . S
O170 C116 1.334 . S
O171 C143 1.412 . S
O171 C144 1.393 . S
O172 C134 1.435 . S
O172 C169 1.458 . S
O173 C125 1.468 . S
O173 C126 1.408 . S
H174 C115 0.980 . S
H175 C114 0.959 . S
H176 C114 0.959 . S
H177 C114 0.960 . S
H178 C117 0.929 . S
H179 C121 0.929 . S
H180 C122 0.959 . S
H181 C122 0.961 . S
H182 C122 0.961 . S
H183 C123 0.960 . S
H184 C123 0.960 . S
H185 C123 0.961 . S
H186 C125 0.980 . S
H187 C124 0.961 . S
H188 C124 0.960 . S
H189 C124 0.959 . S
H190 C127 0.930 . S
H191 C131 0.931 . S
H192 C132 0.959 . S
H193 C132 0.961 . S
H194 C132 0.959 . S
H195 C133 0.960 . S
H196 C133 0.960 . S
H197 C133 0.960 . S
H198 C169 0.980 . S
H199 C135 0.930 . S
H200 C139 0.930 . S
H201 C140 0.961 . S
H202 C140 0.960 . S
H203 C140 0.958 . S
H204 C141 0.961 . S
H205 C141 0.960 . S
H206 C141 0.960 . S
H207 C143 0.980 . S
H208 C142 0.961 . S
H209 C142 0.961 . S
H210 C142 0.959 . S
H211 C145 0.932 . S
H212 C149 0.929 . S
H213 C150 0.961 . S
H214 C150 0.959 . S
H215 C150 0.959 . S
H216 C151 0.960 . S
H217 C151 0.962 . S
H218 C151 0.961 . S
H219 C153 0.929 . S
H220 C156 0.930 . S
H221 C157 0.929 . S
H222 C160 0.930 . S
H223 C163 0.929 . S
H224 C164 0.930 . S
H225 C168 0.962 . S
H226 C168 0.959 . S
H227 C168 0.958 . S
C228 C229 1.560 . S
C228 H289 0.959 . S
C228 H290 0.959 . S
C228 H291 0.960 . S
C229 C228 1.560 . S
C229 O284 1.426 . S
C229 H288 0.980 . S
C230 C231 1.407 . S
C230 C235 1.418 . S
C230 O284 1.334 . S
C231 C230 1.407 . S
C231 C232 1.360 . S
C231 H292 0.929 . S
C232 C231 1.360 . S
C232 C233 1.401 . S
C232 C236 1.527 . S
C233 C232 1.401 . S
C233 C234 1.405 . S
C233 C266 1.587 . S
C234 C233 1.405 . S
C234 C235 1.332 . S
C234 C237 1.496 1_565 S
C235 C230 1.418 . S
C235 C234 1.332 . S
C235 H293 0.929 . S
C236 C232 1.527 . S
C236 H294 0.959 . S
C236 H295 0.961 . S
C236 H296 0.961 . S
C237 C234 1.496 1_545 S
C237 H297 0.960 . S
C237 H298 0.960 1_545 S
C237 H299 0.961 . S
C238 C239 1.517 . S
C238 H301 0.961 . S
C238 H302 0.960 . S
C238 H303 0.959 . S
C239 C238 1.517 . S
C239 O287 1.468 . S
C239 H300 0.980 . S
C240 C241 1.349 . S
C240 C245 1.367 . S
C240 O287 1.408 . S
C241 C240 1.349 . S
C241 C242 1.407 . S
C241 H304 0.930 . S
C242 C241 1.407 . S
C242 C243 1.449 . S
C242 C246 1.535 . S
C243 C242 1.449 . S
C243 C244 1.384 . S
C243 C268 1.553 . S
C244 C243 1.384 . S
C244 C245 1.364 . S
C244 C247 1.450 . S
C245 C240 1.367 . S
C245 C244 1.364 . S
C245 H305 0.931 . S
C246 C242 1.535 . S
C246 H306 0.959 . S
C246 H307 0.961 . S
C246 H308 0.959 . S
C247 C244 1.450 . S
C247 H309 0.960 . S
C247 H310 0.960 . S
C247 H311 0.960 . S
C248 C249 1.309 . S
C248 C253 1.304 . S
C248 O286 1.435 . S
C249 C248 1.309 . S
C249 C250 1.476 . S
C249 H313 0.930 . S
C250 C249 1.476 . S
C250 C251 1.400 . S
C250 C254 1.567 . S
C251 C250 1.400 . S
C251 C252 1.373 . S
C251 C273 1.432 . S
C252 C251 1.373 . S
C252 C253 1.339 . S
C252 C255 1.530 1_545 S
C253 C248 1.304 . S
C253 C252 1.339 . S
C253 H314 0.922 1_545 S
C254 C250 1.567 . S
C254 H315 0.961 . S
C254 H316 0.960 . S
C254 H317 0.958 . S
C255 C252 1.530 1_565 S
C255 H318 0.961 . S
C255 H319 0.960 . S
C255 H320 0.960 . S
C256 C257 1.530 . S
C256 H322 0.961 . S
C256 H323 0.961 . S
C256 H324 0.959 . S
C257 C256 1.530 . S
C257 O285 1.412 . S
C257 H321 0.980 . S
C258 C259 1.288 . S
C258 C263 1.377 . S
C258 O285 1.393 . S
C259 C258 1.288 . S
C259 C260 1.369 . S
C259 H325 0.932 . S
C260 C259 1.369 . S
C260 C261 1.398 . S
C260 C264 1.527 . S
C261 C260 1.398 . S
C261 C262 1.380 . S
C261 C275 1.497 . S
C262 C261 1.380 . S
C262 C263 1.383 . S
C262 C265 1.603 1_545 S
C263 C258 1.377 . S
C263 C262 1.383 . S
C263 H326 0.929 . S
C264 C260 1.527 . S
C264 H327 0.968 . S
C264 H328 0.959 . S
C264 H329 0.959 . S
C265 C262 1.603 1_565 S
C265 H330 0.960 . S
C265 H331 0.962 . S
C265 H332 0.961 . S
C266 C233 1.587 . S
C266 C267 1.360 . S
C266 C279 1.412 . S
C267 C266 1.360 . S
C267 C268 1.365 . S
C267 H333 0.929 . S
C268 C243 1.553 . S
C268 C267 1.365 . S
C268 C269 1.404 . S
C269 C268 1.404 . S
C269 C270 1.395 . S
C269 C280 1.451 . S
C270 C269 1.395 . S
C270 C271 1.242 1_554 S
C270 H334 0.930 . S
C271 C270 1.242 1_556 S
C271 C272 1.497 . S
C271 H335 0.979 . S
C272 C271 1.497 . S
C272 C273 1.445 1_565 S
C272 C281 1.405 . S
C273 C251 1.432 . S
C273 C272 1.445 1_545 S
C273 C274 1.370 . S
C274 C273 1.370 . S
C274 C275 1.438 . S
C274 H336 0.930 . S
C275 C261 1.497 . S
C275 C274 1.438 . S
C275 C276 1.360 . S
C276 C275 1.360 . S
C276 C277 1.401 1_556 S
C276 C281 1.453 1_545 S
C277 C276 1.401 1_554 S
C277 C278 1.347 1_545 S
C277 H337 0.902 1_554 S
C278 C277 1.347 1_565 S
C278 C279 1.455 . S
C278 H338 0.930 . S
C279 C266 1.412 . S
C279 C278 1.455 . S
C279 C280 1.331 . S
C280 C269 1.451 . S
C280 C279 1.331 . S
C280 C281 1.479 1_554 S
C281 C272 1.405 . S
C281 C276 1.453 1_565 S
C281 C280 1.479 1_556 S
C282 C283 1.582 . S
C282 H339 0.962 . S
C282 H340 0.959 . S
C282 H341 0.958 . S
C283 C282 1.582 . S
C283 O286 1.458 . S
C283 H312 0.980 . S
O284 C229 1.426 . S
O284 C230 1.334 . S
O285 C257 1.412 . S
O285 C258 1.393 . S
O286 C248 1.435 . S
O286 C283 1.458 . S
O287 C239 1.468 . S
O287 C240 1.408 . S
H288 C229 0.980 . S
H289 C228 0.959 . S
H290 C228 0.959 . S
H291 C228 0.960 . S
H292 C231 0.929 . S
H293 C235 0.929 . S
H294 C236 0.959 . S
H295 C236 0.961 . S
H296 C236 0.961 . S
H297 C237 0.960 . S
H298 C237 0.960 1_565 S
H299 C237 0.961 . S
H300 C239 0.980 . S
H301 C238 0.961 . S
H302 C238 0.960 . S
H303 C238 0.959 . S
H304 C241 0.930 . S
H305 C245 0.931 . S
H306 C246 0.959 . S
H307 C246 0.961 . S
H308 C246 0.959 . S
H309 C247 0.960 . S
H310 C247 0.960 . S
H311 C247 0.960 . S
H312 C283 0.980 . S
H313 C249 0.930 . S
H314 C253 0.922 1_565 S
H315 C254 0.961 . S
H316 C254 0.960 . S
H317 C254 0.958 . S
H318 C255 0.961 . S
H319 C255 0.960 . S
H320 C255 0.960 . S
H321 C257 0.980 . S
H322 C256 0.961 . S
H323 C256 0.961 . S
H324 C256 0.959 . S
H325 C259 0.932 . S
H326 C263 0.929 . S
H327 C264 0.968 . S
H328 C264 0.959 . S
H329 C264 0.959 . S
H330 C265 0.960 . S
H331 C265 0.962 . S
H332 C265 0.961 . S
H333 C267 0.929 . S
H334 C270 0.930 . S
H335 C271 0.979 . S
H336 C274 0.930 . S
H337 C277 0.902 1_556 S
H338 C278 0.930 . S
H339 C282 0.962 . S
H340 C282 0.959 . S
H341 C282 0.958 . S
C342 C343 1.560 . S
C342 H403 0.959 . S
C342 H404 0.959 . S
C342 H405 0.960 . S
C343 C342 1.560 . S
C343 O398 1.426 . S
C343 H402 0.980 . S
C344 C345 1.407 . S
C344 C349 1.418 . S
C344 O398 1.334 . S
C345 C344 1.407 . S
C345 C346 1.360 . S
C345 H406 0.929 . S
C346 C345 1.360 . S
C346 C347 1.401 . S
C346 C350 1.527 . S
C347 C346 1.401 . S
C347 C348 1.405 . S
C347 C380 1.587 . S
C348 C347 1.405 . S
C348 C349 1.332 . S
C348 C351 1.496 . S
C349 C344 1.418 . S
C349 C348 1.332 . S
C349 H407 0.929 . S
C350 C346 1.527 . S
C350 H408 0.959 . S
C350 H409 0.961 . S
C350 H410 0.961 . S
C351 C348 1.496 . S
C351 H411 0.960 . S
C351 H412 0.960 . S
C351 H413 0.961 . S
C352 C353 1.517 . S
C352 H415 0.961 . S
C352 H416 0.960 . S
C352 H417 0.959 . S
C353 C352 1.517 . S
C353 O401 1.468 . S
C353 H414 0.980 . S
C354 C355 1.349 . S
C354 C359 1.367 . S
C354 O401 1.408 . S
C355 C354 1.349 . S
C355 C356 1.407 . S
C355 H418 0.930 . S
C356 C355 1.407 . S
C356 C357 1.449 . S
C356 C360 1.535 . S
C357 C356 1.449 . S
C357 C358 1.384 . S
C357 C382 1.553 . S
C358 C357 1.384 . S
C358 C359 1.364 . S
C358 C361 1.450 . S
C359 C354 1.367 . S
C359 C358 1.364 . S
C359 H419 0.931 . S
C360 C356 1.535 . S
C360 H420 0.959 . S
C360 H421 0.961 . S
C360 H422 0.959 . S
C361 C358 1.450 . S
C361 H423 0.960 . S
C361 H424 0.960 . S
C361 H425 0.960 . S
C362 C363 1.309 . S
C362 C367 1.304 . S
C362 O400 1.435 . S
C363 C362 1.309 . S
C363 C364 1.476 . S
C363 H427 0.930 . S
C364 C363 1.476 . S
C364 C365 1.400 . S
C364 C368 1.567 . S
C365 C364 1.400 . S
C365 C366 1.373 . S
C365 C387 1.432 . S
C366 C365 1.373 . S
C366 C367 1.339 . S
C366 C369 1.530 . S
C367 C362 1.304 . S
C367 C366 1.339 . S
C367 H428 0.930 . S
C368 C364 1.567 . S
C368 H429 0.961 . S
C368 H430 0.960 . S
C368 H431 0.958 . S
C369 C366 1.530 . S
C369 H432 0.961 . S
C369 H433 0.960 . S
C369 H434 0.960 . S
C370 C371 1.530 . S
C370 H436 0.961 . S
C370 H437 0.961 . S
C370 H438 0.959 . S
C371 C370 1.530 . S
C371 O399 1.412 . S
C371 H435 0.980 . S
C372 C373 1.288 . S
C372 C377 1.377 . S
C372 O399 1.393 . S
C373 C372 1.288 . S
C373 C374 1.369 . S
C373 H439 0.932 . S
C374 C373 1.369 . S
C374 C375 1.398 . S
C374 C378 1.527 . S
C375 C374 1.398 . S
C375 C376 1.380 . S
C375 C389 1.497 . S
C376 C375 1.380 . S
C376 C377 1.383 . S
C376 C379 1.603 . S
C377 C372 1.377 . S
C377 C376 1.383 . S
C377 H440 0.929 . S
C378 C374 1.527 . S
C378 H441 0.961 . S
C378 H442 0.959 . S
C378 H443 0.959 . S
C379 C376 1.603 . S
C379 H444 0.960 . S
C379 H445 0.962 . S
C379 H446 0.961 . S
C380 C347 1.587 . S
C380 C381 1.360 . S
C380 C393 1.412 . S
C381 C380 1.360 . S
C381 C382 1.365 . S
C381 H447 0.929 . S
C382 C357 1.553 . S
C382 C381 1.365 . S
C382 C383 1.404 . S
C383 C382 1.404 . S
C383 C384 1.395 . S
C383 C394 1.451 . S
C384 C383 1.395 . S
C384 C385 1.322 . S
C384 H448 0.930 . S
C385 C384 1.322 . S
C385 C386 1.459 . S
C385 H449 0.929 . S
C386 C385 1.459 . S
C386 C387 1.445 . S
C386 C395 1.395 . S
C387 C365 1.432 . S
C387 C386 1.445 . S
C387 C388 1.370 . S
C388 C387 1.370 . S
C388 C389 1.438 . S
C388 H450 0.930 . S
C389 C375 1.497 . S
C389 C388 1.438 . S
C389 C390 1.360 . S
C390 C389 1.360 . S
C390 C391 1.401 . S
C390 C395 1.446 . S
C391 C390 1.401 . S
C391 C392 1.347 . S
C391 H451 0.929 . S
C392 C391 1.347 . S
C392 C393 1.455 . S
C392 H452 0.930 . S
C393 C380 1.412 . S
C393 C392 1.455 . S
C393 C394 1.331 . S
C394 C383 1.451 . S
C394 C393 1.331 . S
C394 C395 1.497 . S
C395 C386 1.395 . S
C395 C390 1.446 . S
C395 C394 1.497 . S
C396 C397 1.582 . S
C396 H453 0.962 . S
C396 H454 0.959 . S
C396 H455 0.958 . S
C397 C396 1.582 . S
C397 O400 1.458 . S
C397 H426 0.980 . S
O398 C343 1.426 . S
O398 C344 1.334 . S
O399 C371 1.412 . S
O399 C372 1.393 . S
O400 C362 1.435 . S
O400 C397 1.458 . S
O401 C353 1.468 . S
O401 C354 1.408 . S
H402 C343 0.980 . S
H403 C342 0.959 . S
H404 C342 0.959 . S
H405 C342 0.960 . S
H406 C345 0.929 . S
H407 C349 0.929 . S
H408 C350 0.959 . S
H409 C350 0.961 . S
H410 C350 0.961 . S
H411 C351 0.960 . S
H412 C351 0.960 . S
H413 C351 0.961 . S
H414 C353 0.980 . S
H415 C352 0.961 . S
H416 C352 0.960 . S
H417 C352 0.959 . S
H418 C355 0.930 . S
H419 C359 0.931 . S
H420 C360 0.959 . S
H421 C360 0.961 . S
H422 C360 0.959 . S
H423 C361 0.960 . S
H424 C361 0.960 . S
H425 C361 0.960 . S
H426 C397 0.980 . S
H427 C363 0.930 . S
H428 C367 0.930 . S
H429 C368 0.961 . S
H430 C368 0.960 . S
H431 C368 0.958 . S
H432 C369 0.961 . S
H433 C369 0.960 . S
H434 C369 0.960 . S
H435 C371 0.980 . S
H436 C370 0.961 . S
H437 C370 0.961 . S
H438 C370 0.959 . S
H439 C373 0.932 . S
H440 C377 0.929 . S
H441 C378 0.961 . S
H442 C378 0.959 . S
H443 C378 0.959 . S
H444 C379 0.960 . S
H445 C379 0.962 . S
H446 C379 0.961 . S
H447 C381 0.929 . S
H448 C384 0.930 . S
H449 C385 0.929 . S
H450 C388 0.930 . S
H451 C391 0.929 . S
H452 C392 0.930 . S
H453 C396 0.962 . S
H454 C396 0.959 . S
H455 C396 0.958 . S
C456 C457 1.560 . S
C456 H517 0.959 . S
C456 H518 0.959 . S
C456 H519 0.960 . S
C457 C456 1.560 . S
C457 O512 1.426 . S
C457 H516 0.980 . S
C458 C459 1.407 . S
C458 C463 1.418 . S
C458 O512 1.334 . S
C459 C458 1.407 . S
C459 C460 1.360 . S
C459 H520 0.929 . S
C460 C459 1.360 . S
C460 C461 1.401 . S
C460 C464 1.527 . S
C461 C460 1.401 . S
C461 C462 1.405 . S
C461 C494 1.587 . S
C462 C461 1.405 . S
C462 C463 1.332 . S
C462 C465 1.496 . S
C463 C458 1.418 . S
C463 C462 1.332 . S
C463 H521 0.929 . S
C464 C460 1.527 . S
C464 H522 0.959 . S
C464 H523 0.961 . S
C464 H524 0.961 . S
C465 C462 1.496 . S
C465 H525 0.960 . S
C465 H526 0.960 . S
C465 H527 0.961 . S
C466 C467 1.517 . S
C466 H529 0.961 . S
C466 H530 0.960 . S
C466 H531 0.959 . S
C467 C466 1.517 . S
C467 O515 1.468 . S
C467 H528 0.980 . S
C468 C469 1.349 . S
C468 C473 1.367 . S
C468 O515 1.408 . S
C469 C468 1.349 . S
C469 C470 1.407 . S
C469 H532 0.930 . S
C470 C469 1.407 . S
C470 C471 1.449 . S
C470 C474 1.535 . S
C471 C470 1.449 . S
C471 C472 1.384 . S
C471 C496 1.553 . S
C472 C471 1.384 . S
C472 C473 1.364 . S
C472 C475 1.450 . S
C473 C468 1.367 . S
C473 C472 1.364 . S
C473 H533 0.931 . S
C474 C470 1.535 . S
C474 H534 0.959 . S
C474 H535 0.961 . S
C474 H536 0.959 . S
C475 C472 1.450 . S
C475 H537 0.960 . S
C475 H538 0.960 . S
C475 H539 0.960 . S
C476 C477 1.309 . S
C476 C481 1.304 . S
C476 O514 1.435 . S
C477 C476 1.309 . S
C477 C478 1.476 . S
C477 H541 0.930 . S
C478 C477 1.476 . S
C478 C479 1.400 . S
C478 C482 1.567 . S
C479 C478 1.400 . S
C479 C480 1.373 . S
C479 C501 1.432 . S
C480 C479 1.373 . S
C480 C481 1.339 . S
C480 C483 1.530 . S
C481 C476 1.304 . S
C481 C480 1.339 . S
C481 H542 0.930 . S
C482 C478 1.567 . S
C482 H543 0.961 . S
C482 H544 0.960 . S
C482 H545 0.958 . S
C483 C480 1.530 . S
C483 H546 0.961 . S
C483 H547 0.960 . S
C483 H548 0.960 . S
C484 C485 1.530 . S
C484 H550 0.961 . S
C484 H551 0.961 . S
C484 H552 0.959 . S
C485 C484 1.530 . S
C485 O513 1.412 . S
C485 H549 0.980 . S
C486 C487 1.288 . S
C486 C491 1.377 . S
C486 O513 1.393 . S
C487 C486 1.288 . S
C487 C488 1.369 . S
C487 H553 0.932 . S
C488 C487 1.369 . S
C488 C489 1.398 . S
C488 C492 1.527 . S
C489 C488 1.398 . S
C489 C490 1.380 . S
C489 C503 1.497 . S
C490 C489 1.380 . S
C490 C491 1.383 . S
C490 C493 1.603 . S
C491 C486 1.377 . S
C491 C490 1.383 . S
C491 H554 0.929 . S
C492 C488 1.527 . S
C492 H555 0.961 . S
C492 H556 0.959 . S
C492 H557 0.959 . S
C493 C490 1.603 . S
C493 H558 0.960 . S
C493 H559 0.962 . S
C493 H560 0.961 . S
C494 C461 1.587 . S
C494 C495 1.360 . S
C494 C507 1.412 . S
C495 C494 1.360 . S
C495 C496 1.365 . S
C495 H561 0.929 . S
C496 C471 1.553 . S
C496 C495 1.365 . S
C496 C497 1.404 . S
C497 C496 1.404 . S
C497 C498 1.395 . S
C497 C508 1.451 . S
C498 C497 1.395 . S
C498 C499 1.322 . S
C498 H562 0.930 . S
C499 C498 1.322 . S
C499 C500 1.459 . S
C499 H563 0.929 . S
C500 C499 1.459 . S
C500 C501 1.445 . S
C500 C509 1.395 . S
C501 C479 1.432 . S
C501 C500 1.445 . S
C501 C502 1.370 . S
C502 C501 1.370 . S
C502 C503 1.438 . S
C502 H564 0.930 . S
C503 C489 1.497 . S
C503 C502 1.438 . S
C503 C504 1.360 . S
C504 C503 1.360 . S
C504 C505 1.401 . S
C504 C509 1.446 . S
C505 C504 1.401 . S
C505 C506 1.347 . S
C505 H565 0.929 . S
C506 C505 1.347 . S
C506 C507 1.455 . S
C506 H566 0.930 . S
C507 C494 1.412 . S
C507 C506 1.455 . S
C507 C508 1.331 . S
C508 C497 1.451 . S
C508 C507 1.331 . S
C508 C509 1.497 . S
C509 C500 1.395 . S
C509 C504 1.446 . S
C509 C508 1.497 . S
C510 C511 1.582 . S
C510 H567 0.962 . S
C510 H568 0.959 . S
C510 H569 0.958 . S
C511 C510 1.582 . S
C511 O514 1.458 . S
C511 H540 0.980 . S
O512 C457 1.426 . S
O512 C458 1.334 . S
O513 C485 1.412 . S
O513 C486 1.393 . S
O514 C476 1.435 . S
O514 C511 1.458 . S
O515 C467 1.468 . S
O515 C468 1.408 . S
H516 C457 0.980 . S
H517 C456 0.959 . S
H518 C456 0.959 . S
H519 C456 0.960 . S
H520 C459 0.929 . S
H521 C463 0.929 . S
H522 C464 0.959 . S
H523 C464 0.961 . S
H524 C464 0.961 . S
H525 C465 0.960 . S
H526 C465 0.960 . S
H527 C465 0.961 . S
H528 C467 0.980 . S
H529 C466 0.961 . S
H530 C466 0.960 . S
H531 C466 0.959 . S
H532 C469 0.930 . S
H533 C473 0.931 . S
H534 C474 0.959 . S
H535 C474 0.961 . S
H536 C474 0.959 . S
H537 C475 0.960 . S
H538 C475 0.960 . S
H539 C475 0.960 . S
H540 C511 0.980 . S
H541 C477 0.930 . S
H542 C481 0.930 . S
H543 C482 0.961 . S
H544 C482 0.960 . S
H545 C482 0.958 . S
H546 C483 0.961 . S
H547 C483 0.960 . S
H548 C483 0.960 . S
H549 C485 0.980 . S
H550 C484 0.961 . S
H551 C484 0.961 . S
H552 C484 0.959 . S
H553 C487 0.932 . S
H554 C491 0.929 . S
H555 C492 0.961 . S
H556 C492 0.959 . S
H557 C492 0.959 . S
H558 C493 0.960 . S
H559 C493 0.962 . S
H560 C493 0.961 . S
H561 C495 0.929 . S
H562 C498 0.930 . S
H563 C499 0.929 . S
H564 C502 0.930 . S
H565 C505 0.929 . S
H566 C506 0.930 . S
H567 C510 0.962 . S
H568 C510 0.959 . S
H569 C510 0.958 . S
C570 C571 1.560 . S
C570 H631 0.959 . S
C570 H632 0.959 . S
C570 H633 0.960 . S
C571 C570 1.560 . S
C571 O626 1.426 . S
C571 H630 0.980 . S
C572 C573 1.407 . S
C572 C577 1.418 . S
C572 O626 1.334 . S
C573 C572 1.407 . S
C573 C574 1.360 . S
C573 H634 0.929 . S
C574 C573 1.360 . S
C574 C575 1.401 . S
C574 C578 1.527 . S
C575 C574 1.401 . S
C575 C576 1.405 . S
C575 C608 1.587 . S
C576 C575 1.405 . S
C576 C577 1.332 . S
C576 C579 1.496 . S
C577 C572 1.418 . S
C577 C576 1.332 . S
C577 H635 0.929 . S
C578 C574 1.527 . S
C578 H636 0.959 . S
C578 H637 0.961 . S
C578 H638 0.961 . S
C579 C576 1.496 . S
C579 H639 0.960 . S
C579 H640 0.960 . S
C579 H641 0.961 . S
C580 C581 1.517 . S
C580 H643 0.961 . S
C580 H644 0.960 . S
C580 H645 0.959 . S
C581 C580 1.517 . S
C581 O629 1.468 . S
C581 H642 0.980 . S
C582 C583 1.349 . S
C582 C587 1.367 . S
C582 O629 1.408 . S
C583 C582 1.349 . S
C583 C584 1.407 . S
C583 H646 0.930 . S
C584 C583 1.407 . S
C584 C585 1.449 . S
C584 C588 1.535 . S
C585 C584 1.449 . S
C585 C586 1.384 . S
C585 C610 1.553 . S
C586 C585 1.384 . S
C586 C587 1.364 . S
C586 C589 1.450 . S
C587 C582 1.367 . S
C587 C586 1.364 . S
C587 H647 0.931 . S
C588 C584 1.535 . S
C588 H648 0.959 . S
C588 H649 0.961 . S
C588 H650 0.959 . S
C589 C586 1.450 . S
C589 H651 0.960 . S
C589 H652 0.960 . S
C589 H653 0.960 . S
C590 C591 1.309 . S
C590 C595 1.304 . S
C590 O628 1.435 . S
C591 C590 1.309 . S
C591 C592 1.476 . S
C591 H655 0.930 . S
C592 C591 1.476 . S
C592 C593 1.400 . S
C592 C596 1.567 . S
C593 C592 1.400 . S
C593 C594 1.373 . S
C593 C615 1.432 . S
C594 C593 1.373 . S
C594 C595 1.339 . S
C594 C597 1.530 . S
C595 C590 1.304 . S
C595 C594 1.339 . S
C595 H656 0.930 . S
C596 C592 1.567 . S
C596 H657 0.961 . S
C596 H658 0.960 . S
C596 H659 0.958 . S
C597 C594 1.530 . S
C597 H660 0.961 . S
C597 H661 0.960 . S
C597 H662 0.960 . S
C598 C599 1.530 . S
C598 H664 0.961 . S
C598 H665 0.961 . S
C598 H666 0.959 . S
C599 C598 1.530 . S
C599 O627 1.412 . S
C599 H663 0.980 . S
C600 C601 1.288 . S
C600 C605 1.377 . S
C600 O627 1.393 . S
C601 C600 1.288 . S
C601 C602 1.369 . S
C601 H667 0.932 . S
C602 C601 1.369 . S
C602 C603 1.398 . S
C602 C606 1.527 . S
C603 C602 1.398 . S
C603 C604 1.380 . S
C603 C617 1.497 . S
C604 C603 1.380 . S
C604 C605 1.383 . S
C604 C607 1.603 . S
C605 C600 1.377 . S
C605 C604 1.383 . S
C605 H668 0.929 . S
C606 C602 1.527 . S
C606 H669 0.961 . S
C606 H670 0.959 . S
C606 H671 0.959 . S
C607 C604 1.603 . S
C607 H672 0.960 . S
C607 H673 0.962 . S
C607 H674 0.961 . S
C608 C575 1.587 . S
C608 C609 1.360 . S
C608 C621 1.412 . S
C609 C608 1.360 . S
C609 C610 1.365 . S
C609 H675 0.929 . S
C610 C585 1.553 . S
C610 C609 1.365 . S
C610 C611 1.404 . S
C611 C610 1.404 . S
C611 C612 1.395 . S
C611 C622 1.451 . S
C612 C611 1.395 . S
C612 C613 1.322 . S
C612 H676 0.930 . S
C613 C612 1.322 . S
C613 C614 1.459 . S
C613 H677 0.929 . S
C614 C613 1.459 . S
C614 C615 1.445 . S
C614 C623 1.395 . S
C615 C593 1.432 . S
C615 C614 1.445 . S
C615 C616 1.370 . S
C616 C615 1.370 . S
C616 C617 1.438 . S
C616 H678 0.930 . S
C617 C603 1.497 . S
C617 C616 1.438 . S
C617 C618 1.360 . S
C618 C617 1.360 . S
C618 C619 1.401 . S
C618 C623 1.446 . S
C619 C618 1.401 . S
C619 C620 1.347 . S
C619 H679 0.929 . S
C620 C619 1.347 . S
C620 C621 1.455 . S
C620 H680 0.930 . S
C621 C608 1.412 . S
C621 C620 1.455 . S
C621 C622 1.331 . S
C622 C611 1.451 . S
C622 C621 1.331 . S
C622 C623 1.497 . S
C623 C614 1.395 . S
C623 C618 1.446 . S
C623 C622 1.497 . S
C624 C625 1.582 . S
C624 H681 0.962 . S
C624 H682 0.959 . S
C624 H683 0.958 . S
C625 C624 1.582 . S
C625 O628 1.458 . S
C625 H654 0.980 . S
O626 C571 1.426 . S
O626 C572 1.334 . S
O627 C599 1.412 . S
O627 C600 1.393 . S
O628 C590 1.435 . S
O628 C625 1.458 . S
O629 C581 1.468 . S
O629 C582 1.408 . S
H630 C571 0.980 . S
H631 C570 0.959 . S
H632 C570 0.959 . S
H633 C570 0.960 . S
H634 C573 0.929 . S
H635 C577 0.929 . S
H636 C578 0.959 . S
H637 C578 0.961 . S
H638 C578 0.961 . S
H639 C579 0.960 . S
H640 C579 0.960 . S
H641 C579 0.961 . S
H642 C581 0.980 . S
H643 C580 0.961 . S
H644 C580 0.960 . S
H645 C580 0.959 . S
H646 C583 0.930 . S
H647 C587 0.931 . S
H648 C588 0.959 . S
H649 C588 0.961 . S
H650 C588 0.959 . S
H651 C589 0.960 . S
H652 C589 0.960 . S
H653 C589 0.960 . S
H654 C625 0.980 . S
H655 C591 0.930 . S
H656 C595 0.930 . S
H657 C596 0.961 . S
H658 C596 0.960 . S
H659 C596 0.958 . S
H660 C597 0.961 . S
H661 C597 0.960 . S
H662 C597 0.960 . S
H663 C599 0.980 . S
H664 C598 0.961 . S
H665 C598 0.961 . S
H666 C598 0.959 . S
H667 C601 0.932 . S
H668 C605 0.929 . S
H669 C606 0.961 . S
H670 C606 0.959 . S
H671 C606 0.959 . S
H672 C607 0.960 . S
H673 C607 0.962 . S
H674 C607 0.961 . S
H675 C609 0.929 . S
H676 C612 0.930 . S
H677 C613 0.929 . S
H678 C616 0.930 . S
H679 C619 0.929 . S
H680 C620 0.930 . S
H681 C624 0.962 . S
H682 C624 0.959 . S
H683 C624 0.958 . S
C684 C685 1.560 . S
C684 H745 0.959 . S
C684 H746 0.959 . S
C684 H747 0.960 . S
C685 C684 1.560 . S
C685 O740 1.426 . S
C685 H744 0.980 . S
C686 C687 1.407 . S
C686 C691 1.418 . S
C686 O740 1.334 . S
C687 C686 1.407 . S
C687 C688 1.360 . S
C687 H748 0.929 . S
C688 C687 1.360 . S
C688 C689 1.401 . S
C688 C692 1.527 . S
C689 C688 1.401 . S
C689 C690 1.405 . S
C689 C722 1.587 . S
C690 C689 1.405 . S
C690 C691 1.332 . S
C690 C693 1.496 . S
C691 C686 1.418 . S
C691 C690 1.332 . S
C691 H749 0.929 . S
C692 C688 1.527 . S
C692 H750 0.959 . S
C692 H751 0.961 . S
C692 H752 0.961 . S
C693 C690 1.496 . S
C693 H753 0.960 . S
C693 H754 0.960 . S
C693 H755 0.961 . S
C694 C695 1.517 . S
C694 H757 0.961 . S
C694 H758 0.960 . S
C694 H759 0.959 . S
C695 C694 1.517 . S
C695 O743 1.468 . S
C695 H756 0.980 . S
C696 C697 1.349 . S
C696 C701 1.367 . S
C696 O743 1.408 . S
C697 C696 1.349 . S
C697 C698 1.407 . S
C697 H760 0.930 . S
C698 C697 1.407 . S
C698 C699 1.449 . S
C698 C702 1.535 . S
C699 C698 1.449 . S
C699 C700 1.384 . S
C699 C724 1.553 . S
C700 C699 1.384 . S
C700 C701 1.364 . S
C700 C703 1.450 . S
C701 C696 1.367 . S
C701 C700 1.364 . S
C701 H761 0.931 . S
C702 C698 1.535 . S
C702 H762 0.959 . S
C702 H763 0.961 . S
C702 H764 0.959 . S
C703 C700 1.450 . S
C703 H765 0.960 . S
C703 H766 0.960 . S
C703 H767 0.960 . S
C704 C705 1.309 . S
C704 C709 1.304 . S
C704 O742 1.435 . S
C705 C704 1.309 . S
C705 C706 1.476 . S
C705 H769 0.930 . S
C706 C705 1.476 . S
C706 C707 1.400 . S
C706 C710 1.567 . S
C707 C706 1.400 . S
C707 C708 1.373 . S
C707 C729 1.432 . S
C708 C707 1.373 . S
C708 C709 1.339 . S
C708 C711 1.530 . S
C709 C704 1.304 . S
C709 C708 1.339 . S
C709 H770 0.930 . S
C710 C706 1.567 . S
C710 H771 0.961 . S
C710 H772 0.960 . S
C710 H773 0.958 . S
C711 C708 1.530 . S
C711 H774 0.961 . S
C711 H775 0.960 1_556 S
C711 H776 0.960 . S
C712 C713 1.530 . S
C712 H778 0.961 . S
C712 H779 0.961 . S
C712 H780 0.959 . S
C713 C712 1.530 . S
C713 O741 1.412 . S
C713 H777 0.980 . S
C714 C715 1.288 . S
C714 C719 1.377 . S
C714 O741 1.393 . S
C715 C714 1.288 . S
C715 C716 1.369 . S
C715 H781 0.932 . S
C716 C715 1.369 . S
C716 C717 1.398 . S
C716 C720 1.527 . S
C717 C716 1.398 . S
C717 C718 1.380 . S
C717 C731 1.497 . S
C718 C717 1.380 . S
C718 C719 1.383 . S
C718 C721 1.603 . S
C719 C714 1.377 . S
C719 C718 1.383 . S
C719 H782 0.929 . S
C720 C716 1.527 . S
C720 H783 0.961 . S
C720 H784 0.959 . S
C720 H785 0.959 . S
C721 C718 1.603 . S
C721 H786 0.960 . S
C721 H787 0.962 . S
C721 H788 1.044 . S
C722 C689 1.587 . S
C722 C723 1.360 . S
C722 C735 1.412 . S
C723 C722 1.360 . S
C723 C724 1.365 . S
C723 H789 0.929 . S
C724 C699 1.553 . S
C724 C723 1.365 . S
C724 C725 1.404 . S
C725 C724 1.404 . S
C725 C726 1.395 . S
C725 C736 1.451 . S
C726 C725 1.395 . S
C726 C727 1.322 . S
C726 H790 0.930 . S
C727 C726 1.322 . S
C727 C728 1.459 . S
C727 H791 0.929 . S
C728 C727 1.459 . S
C728 C729 1.445 1_554 S
C728 C737 1.395 . S
C729 C707 1.432 . S
C729 C728 1.445 1_556 S
C729 C730 1.370 . S
C730 C729 1.370 . S
C730 C731 1.438 . S
C730 H792 0.930 . S
C731 C717 1.497 . S
C731 C730 1.438 . S
C731 C732 1.388 . S
C732 C731 1.388 . S
C732 C733 1.389 1_556 S
C732 C737 1.430 1_556 S
C733 C732 1.389 1_554 S
C733 C734 1.347 . S
C733 H793 0.934 1_554 S
C734 C733 1.347 . S
C734 C735 1.455 . S
C734 H794 0.930 . S
C735 C722 1.412 . S
C735 C734 1.455 . S
C735 C736 1.331 . S
C736 C725 1.451 . S
C736 C735 1.331 . S
C736 C737 1.497 . S
C737 C728 1.395 . S
C737 C732 1.430 1_554 S
C737 C736 1.497 . S
C738 C739 1.582 . S
C738 H795 0.962 . S
C738 H796 0.959 . S
C738 H797 0.958 . S
C739 C738 1.582 . S
C739 O742 1.458 . S
C739 H768 0.980 . S
O740 C685 1.426 . S
O740 C686 1.334 . S
O741 C713 1.412 . S
O741 C714 1.393 . S
O742 C704 1.435 . S
O742 C739 1.458 . S
O743 C695 1.468 . S
O743 C696 1.408 . S
H744 C685 0.980 . S
H745 C684 0.959 . S
H746 C684 0.959 . S
H747 C684 0.960 . S
H748 C687 0.929 . S
H749 C691 0.929 . S
H750 C692 0.959 . S
H751 C692 0.961 . S
H752 C692 0.961 . S
H753 C693 0.960 . S
H754 C693 0.960 . S
H755 C693 0.961 . S
H756 C695 0.980 . S
H757 C694 0.961 . S
H758 C694 0.960 . S
H759 C694 0.959 . S
H760 C697 0.930 . S
H761 C701 0.931 . S
H762 C702 0.959 . S
H763 C702 0.961 . S
H764 C702 0.959 . S
H765 C703 0.960 . S
H766 C703 0.960 . S
H767 C703 0.960 . S
H768 C739 0.980 . S
H769 C705 0.930 . S
H770 C709 0.930 . S
H771 C710 0.961 . S
H772 C710 0.960 . S
H773 C710 0.958 . S
H774 C711 0.961 . S
H775 C711 0.960 1_554 S
H776 C711 0.960 . S
H777 C713 0.980 . S
H778 C712 0.961 . S
H779 C712 0.961 . S
H780 C712 0.959 . S
H781 C715 0.932 . S
H782 C719 0.929 . S
H783 C720 0.961 . S
H784 C720 0.959 . S
H785 C720 0.959 . S
H786 C721 0.960 . S
H787 C721 0.962 . S
H788 C721 1.044 . S
H789 C723 0.929 . S
H790 C726 0.930 . S
H791 C727 0.929 . S
H792 C730 0.930 . S
H793 C733 0.934 1_556 S
H794 C734 0.930 . S
H795 C738 0.962 . S
H796 C738 0.959 . S
H797 C738 0.958 . S
C798 C799 1.560 . S
C798 H859 0.959 . S
C798 H860 0.959 . S
C798 H861 0.960 . S
C799 C798 1.560 . S
C799 O854 1.426 . S
C799 H858 0.980 . S
C800 C801 1.407 . S
C800 C805 1.418 . S
C800 O854 1.334 . S
C801 C800 1.407 . S
C801 C802 1.360 . S
C801 H862 0.929 . S
C802 C801 1.360 . S
C802 C803 1.401 . S
C802 C806 1.527 . S
C803 C802 1.401 . S
C803 C804 1.405 . S
C803 C836 1.587 . S
C804 C803 1.405 . S
C804 C805 1.332 . S
C804 C807 1.496 . S
C805 C800 1.418 . S
C805 C804 1.332 . S
C805 H863 0.929 . S
C806 C802 1.527 . S
C806 H864 0.959 . S
C806 H865 0.961 . S
C806 H866 0.961 . S
C807 C804 1.496 . S
C807 H867 0.960 . S
C807 H868 0.960 . S
C807 H869 0.961 . S
C808 C809 1.517 . S
C808 H871 0.961 . S
C808 H872 0.960 . S
C808 H873 0.959 . S
C809 C808 1.517 . S
C809 O857 1.468 . S
C809 H870 0.980 . S
C810 C811 1.349 . S
C810 C815 1.367 . S
C810 O857 1.408 . S
C811 C810 1.349 . S
C811 C812 1.407 . S
C811 H874 0.930 . S
C812 C811 1.407 . S
C812 C813 1.449 . S
C812 C816 1.535 . S
C813 C812 1.449 . S
C813 C814 1.384 . S
C813 C838 1.553 . S
C814 C813 1.384 . S
C814 C815 1.364 . S
C814 C817 1.450 . S
C815 C810 1.367 . S
C815 C814 1.364 . S
C815 H875 0.931 . S
C816 C812 1.535 . S
C816 H876 0.959 . S
C816 H877 0.961 . S
C816 H878 0.959 . S
C817 C814 1.450 . S
C817 H879 0.960 . S
C817 H880 0.960 . S
C817 H881 0.960 . S
C818 C819 1.309 . S
C818 C823 1.304 . S
C818 O856 1.435 . S
C819 C818 1.309 . S
C819 C820 1.476 . S
C819 H883 0.930 . S
C820 C819 1.476 . S
C820 C821 1.400 . S
C820 C824 1.567 . S
C821 C820 1.400 . S
C821 C822 1.373 . S
C821 C843 1.432 . S
C822 C821 1.373 . S
C822 C823 1.339 . S
C822 C825 1.530 . S
C823 C818 1.304 . S
C823 C822 1.339 . S
C823 H884 0.930 . S
C824 C820 1.567 . S
C824 H885 0.961 . S
C824 H886 0.960 . S
C824 H887 0.958 . S
C825 C822 1.530 . S
C825 H888 0.961 . S
C825 H889 0.960 . S
C825 H890 0.960 . S
C826 C827 1.530 . S
C826 H892 0.961 . S
C826 H893 0.961 . S
C826 H894 0.959 . S
C827 C826 1.530 . S
C827 O855 1.412 . S
C827 H891 0.980 . S
C828 C829 1.288 . S
C828 C833 1.377 . S
C828 O855 1.393 . S
C829 C828 1.288 . S
C829 C830 1.369 . S
C829 H895 0.932 . S
C830 C829 1.369 . S
C830 C831 1.398 . S
C830 C834 1.527 . S
C831 C830 1.398 . S
C831 C832 1.380 . S
C831 C845 1.497 . S
C832 C831 1.380 . S
C832 C833 1.383 . S
C832 C835 1.603 . S
C833 C828 1.377 . S
C833 C832 1.383 . S
C833 H896 0.929 . S
C834 C830 1.527 . S
C834 H897 0.961 . S
C834 H898 0.959 . S
C834 H899 0.959 . S
C835 C832 1.603 . S
C835 H900 0.960 . S
C835 H901 0.962 . S
C835 H902 0.961 . S
C836 C803 1.587 . S
C836 C837 1.360 1_655 S
C836 C849 1.412 . S
C837 C836 1.360 1_455 S
C837 C838 1.365 . S
C837 H903 0.929 . S
C838 C813 1.553 . S
C838 C837 1.365 . S
C838 C839 1.404 . S
C839 C838 1.404 . S
C839 C840 1.395 . S
C839 C850 1.451 . S
C840 C839 1.395 . S
C840 C841 1.322 . S
C840 H904 0.930 . S
C841 C840 1.322 . S
C841 C842 1.459 . S
C841 H905 0.929 . S
C842 C841 1.459 . S
C842 C843 1.445 . S
C842 C851 1.395 . S
C843 C821 1.432 . S
C843 C842 1.445 . S
C843 C844 1.370 . S
C844 C843 1.370 . S
C844 C845 1.438 1_455 S
C844 H906 0.930 . S
C845 C831 1.497 . S
C845 C844 1.438 1_655 S
C845 C846 1.360 . S
C846 C845 1.360 . S
C846 C847 1.401 . S
C846 C851 1.446 1_655 S
C847 C846 1.401 . S
C847 C848 1.347 . S
C847 H907 0.929 . S
C848 C847 1.347 . S
C848 C849 1.455 . S
C848 H908 0.930 . S
C849 C836 1.412 . S
C849 C848 1.455 . S
C849 C850 1.331 1_655 S
C850 C839 1.451 . S
C850 C849 1.331 1_455 S
C850 C851 1.497 . S
C851 C842 1.395 . S
C851 C846 1.446 1_455 S
C851 C850 1.497 . S
C852 C853 1.582 . S
C852 H909 0.962 . S
C852 H910 0.959 . S
C852 H911 0.958 . S
C853 C852 1.582 . S
C853 O856 1.458 . S
C853 H882 0.980 . S
O854 C799 1.426 . S
O854 C800 1.334 . S
O855 C827 1.412 . S
O855 C828 1.393 . S
O856 C818 1.435 . S
O856 C853 1.458 . S
O857 C809 1.468 . S
O857 C810 1.408 . S
H858 C799 0.980 . S
H859 C798 0.959 . S
H860 C798 0.959 . S
H861 C798 0.960 . S
H862 C801 0.929 . S
H863 C805 0.929 . S
H864 C806 0.959 . S
H865 C806 0.961 . S
H866 C806 0.961 . S
H867 C807 0.960 . S
H868 C807 0.960 . S
H869 C807 0.961 . S
H870 C809 0.980 . S
H871 C808 0.961 . S
H872 C808 0.960 . S
H873 C808 0.959 . S
H874 C811 0.930 . S
H875 C815 0.931 . S
H876 C816 0.959 . S
H877 C816 0.961 . S
H878 C816 0.959 . S
H879 C817 0.960 . S
H880 C817 0.960 . S
H881 C817 0.960 . S
H882 C853 0.980 . S
H883 C819 0.930 . S
H884 C823 0.930 . S
H885 C824 0.961 . S
H886 C824 0.960 . S
H887 C824 0.958 . S
H888 C825 0.961 . S
H889 C825 0.960 . S
H890 C825 0.960 . S
H891 C827 0.980 . S
H892 C826 0.961 . S
H893 C826 0.961 . S
H894 C826 0.959 . S
H895 C829 0.932 . S
H896 C833 0.929 . S
H897 C834 0.961 . S
H898 C834 0.959 . S
H899 C834 0.959 . S
H900 C835 0.960 . S
H901 C835 0.962 . S
H902 C835 0.961 . S
H903 C837 0.929 . S
H904 C840 0.930 . S
H905 C841 0.929 . S
H906 C844 0.930 . S
H907 C847 0.929 . S
H908 C848 0.930 . S
H909 C852 0.962 . S
H910 C852 0.959 . S
H911 C852 0.958 . S
Fe912 O913 1.886 . S
Fe912 O916 1.715 1_455 S
Fe912 O921 2.077 . S
Fe912 O926 1.935 1_455 S
Fe912 O932 2.077 . S
Fe912 O941 1.935 1_455 S
O913 Fe912 1.886 . S
O913 Fe915 1.715 . S
Fe914 O916 1.886 . S
Fe914 O917 1.715 . S
Fe914 O924 1.935 . S
Fe914 O925 2.077 . S
Fe914 O931 1.935 . S
Fe914 O940 2.077 . S
Fe915 O913 1.715 . S
Fe915 O918 1.886 . S
Fe915 O922 1.935 . S
Fe915 O927 2.077 . S
Fe915 O933 1.935 . S
Fe915 O937 2.077 . S
O916 Fe912 1.715 1_655 S
O916 Fe914 1.886 . S
O917 Fe914 1.715 . S
O917 Fe919 1.886 1_655 S
O918 Fe915 1.886 . S
O918 Fe919 1.715 . S
Fe919 O917 1.886 1_455 S
Fe919 O918 1.715 . S
Fe919 O923 2.077 1_455 S
Fe919 O928 1.935 . S
Fe919 O930 2.077 1_455 S
Fe919 O938 1.935 . S
C920 O932 1.381 . S
C920 O933 1.421 . S
O921 Fe912 2.077 . S
O921 C934 1.381 . S
O922 Fe915 1.935 . S
O922 C934 1.421 . S
O923 Fe919 2.077 1_655 S
O923 C939 1.381 . S
O924 Fe914 1.935 . S
O924 C939 1.421 . S
O925 Fe914 2.077 . S
O925 C929 1.381 . S
O926 Fe912 1.935 1_655 S
O926 C929 1.421 . S
O927 Fe915 2.077 . S
O927 C935 1.381 . S
O928 Fe919 1.935 . S
O928 C935 1.421 . S
C929 O925 1.381 . S
C929 O926 1.421 . S
O930 Fe919 2.077 1_655 S
O930 C942 1.381 . S
O931 Fe914 1.935 . S
O931 C942 1.421 . S
O932 Fe912 2.077 . S
O932 C920 1.381 . S
O933 Fe915 1.935 . S
O933 C920 1.421 . S
C934 O921 1.381 . S
C934 O922 1.421 . S
C935 O927 1.381 . S
C935 O928 1.421 . S
C936 O937 1.381 . S
C936 O938 1.421 . S
O937 Fe915 2.077 . S
O937 C936 1.381 . S
O938 Fe919 1.935 . S
O938 C936 1.421 . S
C939 O923 1.381 . S
C939 O924 1.421 . S
O940 Fe914 2.077 . S
O940 C943 1.381 . S
O941 Fe912 1.935 1_655 S
O941 C943 1.421 . S
C942 O930 1.381 . S
C942 O931 1.421 . S
C943 O940 1.381 . S
C943 O941 1.421 . S
Fe944 O945 1.886 . S
Fe944 O948 1.715 . S
Fe944 O953 2.077 . S
Fe944 O958 1.935 . S
Fe944 O964 2.077 . S
Fe944 O973 1.935 . S
O945 Fe944 1.886 . S
O945 Fe947 1.715 . S
Fe946 O948 1.886 . S
Fe946 O949 1.715 . S
Fe946 O956 1.935 . S
Fe946 O957 2.077 . S
Fe946 O963 1.935 . S
Fe946 O972 2.077 . S
Fe947 O945 1.715 . S
Fe947 O950 1.886 . S
Fe947 O954 1.935 . S
Fe947 O959 2.077 . S
Fe947 O965 1.935 . S
Fe947 O969 2.077 . S
O948 Fe944 1.715 . S
O948 Fe946 1.886 . S
O949 Fe946 1.715 . S
O949 Fe951 1.886 . S
O950 Fe947 1.886 . S
O950 Fe951 1.715 . S
Fe951 O949 1.886 . S
Fe951 O950 1.715 . S
Fe951 O955 2.077 . S
Fe951 O960 1.935 . S
Fe951 O962 2.077 . S
Fe951 O970 1.935 . S
C952 O964 1.381 . S
C952 O965 1.421 . S
O953 Fe944 2.077 . S
O953 C966 1.381 . S
O954 Fe947 1.935 . S
O954 C966 1.421 . S
O955 Fe951 2.077 . S
O955 C971 1.381 . S
O956 Fe946 1.935 . S
O956 C971 1.421 . S
O957 Fe946 2.077 . S
O957 C961 1.381 . S
O958 Fe944 1.935 . S
O958 C961 1.421 . S
O959 Fe947 2.077 . S
O959 C967 1.381 . S
O960 Fe951 1.935 . S
O960 C967 1.421 . S
C961 O957 1.381 . S
C961 O958 1.421 . S
O962 Fe951 2.077 . S
O962 C974 1.381 . S
O963 Fe946 1.935 . S
O963 C974 1.421 . S
O964 Fe944 2.077 . S
O964 C952 1.381 . S
O965 Fe947 1.935 . S
O965 C952 1.421 . S
C966 O953 1.381 . S
C966 O954 1.421 . S
C967 O959 1.381 . S
C967 O960 1.421 . S
C968 O969 1.381 . S
C968 O970 1.421 . S
O969 Fe947 2.077 . S
O969 C968 1.381 . S
O970 Fe951 1.935 . S
O970 C968 1.421 . S
C971 O955 1.381 . S
C971 O956 1.421 . S
O972 Fe946 2.077 . S
O972 C975 1.381 . S
O973 Fe944 1.935 . S
O973 C975 1.421 . S
C974 O962 1.381 . S
C974 O963 1.421 . S
C975 O972 1.381 . S
C975 O973 1.421 . S
Fe976 O977 1.886 . S
Fe976 O980 1.715 . S
Fe976 O985 2.077 . S
Fe976 O990 1.935 . S
Fe976 O996 2.077 . S
Fe976 O1005 1.935 . S
O977 Fe976 1.886 . S
O977 Fe979 1.715 . S
Fe978 O980 1.886 . S
Fe978 O981 1.715 . S
Fe978 O988 1.935 . S
Fe978 O989 2.077 . S
Fe978 O995 1.935 . S
Fe978 O1004 2.077 . S
Fe979 O977 1.715 . S
Fe979 O982 1.886 . S
Fe979 O986 1.935 . S
Fe979 O991 2.077 . S
Fe979 O997 1.935 . S
Fe979 O1001 2.077 . S
O980 Fe976 1.715 . S
O980 Fe978 1.886 . S
O981 Fe978 1.715 . S
O981 Fe983 1.886 . S
O982 Fe979 1.886 . S
O982 Fe983 1.715 . S
Fe983 O981 1.886 . S
Fe983 O982 1.715 . S
Fe983 O987 2.077 . S
Fe983 O992 1.935 . S
Fe983 O994 2.077 . S
Fe983 O1002 1.935 . S
C984 O996 1.381 . S
C984 O997 1.421 . S
O985 Fe976 2.077 . S
O985 C998 1.381 . S
O986 Fe979 1.935 . S
O986 C998 1.421 . S
O987 Fe983 2.077 . S
O987 C1003 1.381 . S
O988 Fe978 1.935 . S
O988 C1003 1.421 . S
O989 Fe978 2.077 . S
O989 C993 1.381 . S
O990 Fe976 1.935 . S
O990 C993 1.421 . S
O991 Fe979 2.077 . S
O991 C999 1.381 . S
O992 Fe983 1.935 . S
O992 C999 1.421 . S
C993 O989 1.381 . S
C993 O990 1.421 . S
O994 Fe983 2.077 . S
O994 C1006 1.381 . S
O995 Fe978 1.935 . S
O995 C1006 1.421 . S
O996 Fe976 2.077 . S
O996 C984 1.381 . S
O997 Fe979 1.935 . S
O997 C984 1.421 . S
C998 O985 1.381 . S
C998 O986 1.421 . S
C999 O991 1.381 . S
C999 O992 1.421 . S
C1000 O1001 1.381 . S
C1000 O1002 1.421 . S
O1001 Fe979 2.077 . S
O1001 C1000 1.381 . S
O1002 Fe983 1.935 . S
O1002 C1000 1.421 . S
C1003 O987 1.381 . S
C1003 O988 1.421 . S
O1004 Fe978 2.077 . S
O1004 C1007 1.381 . S
O1005 Fe976 1.935 . S
O1005 C1007 1.421 . S
C1006 O994 1.381 . S
C1006 O995 1.421 . S
C1007 O1004 1.381 . S
C1007 O1005 1.421 . S
Fe1008 O1009 1.886 . S
Fe1008 O1012 1.715 . S
Fe1008 O1017 2.077 1_455 S
Fe1008 O1022 1.935 1_455 S
Fe1008 O1028 2.077 . S
Fe1008 O1037 1.935 . S
O1009 Fe1008 1.886 . S
O1009 Fe1011 1.715 . S
Fe1010 O1012 1.886 . S
Fe1010 O1013 1.715 . S
Fe1010 O1020 1.935 1_455 S
Fe1010 O1021 2.077 1_455 S
Fe1010 O1027 1.935 . S
Fe1010 O1036 2.077 . S
Fe1011 O1009 1.715 . S
Fe1011 O1014 1.886 . S
Fe1011 O1018 1.935 1_455 S
Fe1011 O1023 2.077 1_455 S
Fe1011 O1029 1.935 . S
Fe1011 O1033 2.077 . S
O1012 Fe1008 1.715 . S
O1012 Fe1010 1.886 . S
O1013 Fe1010 1.715 . S
O1013 Fe1015 1.886 . S
O1014 Fe1011 1.886 . S
O1014 Fe1015 1.715 . S
Fe1015 O1013 1.886 . S
Fe1015 O1014 1.715 . S
Fe1015 O1019 2.077 1_455 S
Fe1015 O1024 1.935 1_455 S
Fe1015 O1026 2.077 . S
Fe1015 O1034 1.935 . S
C1016 O1028 1.381 . S
C1016 O1029 1.421 . S
O1017 Fe1008 2.077 1_655 S
O1017 C1030 1.381 . S
O1018 Fe1011 1.935 1_655 S
O1018 C1030 1.421 . S
O1019 Fe1015 2.077 1_655 S
O1019 C1035 1.381 . S
O1020 Fe1010 1.935 1_655 S
O1020 C1035 1.421 . S
O1021 Fe1010 2.077 1_655 S
O1021 C1025 1.381 . S
O1022 Fe1008 1.935 1_655 S
O1022 C1025 1.421 . S
O1023 Fe1011 2.077 1_655 S
O1023 C1031 1.381 . S
O1024 Fe1015 1.935 1_655 S
O1024 C1031 1.421 . S
C1025 O1021 1.381 . S
C1025 O1022 1.421 . S
O1026 Fe1015 2.077 . S
O1026 C1038 1.381 . S
O1027 Fe1010 1.935 . S
O1027 C1038 1.421 . S
O1028 Fe1008 2.077 . S
O1028 C1016 1.381 . S
O1029 Fe1011 1.935 . S
O1029 C1016 1.421 . S
C1030 O1017 1.381 . S
C1030 O1018 1.421 . S
C1031 O1023 1.381 . S
C1031 O1024 1.421 . S
C1032 O1033 1.381 . S
C1032 O1034 1.421 . S
O1033 Fe1011 2.077 . S
O1033 C1032 1.381 . S
O1034 Fe1015 1.935 . S
O1034 C1032 1.421 . S
C1035 O1019 1.381 . S
C1035 O1020 1.421 . S
O1036 Fe1010 2.077 . S
O1036 C1039 1.381 . S
O1037 Fe1008 1.935 . S
O1037 C1039 1.421 . S
C1038 O1026 1.381 . S
C1038 O1027 1.421 . S
C1039 O1036 1.381 . S
C1039 O1037 1.421 . S
C1040 C1041 1.349 . S
C1040 C1042 1.327 . S
C1040 H1065 0.950 . S
C1041 C1040 1.349 . S
C1041 C1057 1.349 . S
C1042 C1040 1.327 . S
C1042 C1061 1.429 . S
C1042 H1066 0.950 . S
C1043 C1060 1.574 . S
C1043 C1062 1.368 . S
C1043 H1067 0.949 . S
H1044 C1048 0.949 . S
C1045 C1046 1.349 . S
C1045 C1047 1.327 . S
C1045 H1068 0.950 . S
C1046 C1045 1.349 . S
C1046 C1058 1.349 . S
C1047 C1045 1.327 . S
C1047 C1063 1.429 . S
C1047 H1069 0.950 . S
C1048 H1044 0.949 . S
C1048 C1056 1.574 . S
C1048 C1064 1.368 . S
H1049 C1057 0.950 . S
H1050 C1055 0.950 . S
H1051 C1056 0.949 . S
H1052 C1058 0.950 . S
H1053 C1059 0.950 . S
H1054 C1060 0.949 . S
C1055 H1050 0.950 . S
C1055 C1057 1.327 . S
C1055 C1061 1.429 . S
C1056 C1048 1.574 . S
C1056 H1051 0.949 . S
C1056 C1062 1.368 . S
C1057 C1041 1.349 . S
C1057 H1049 0.950 . S
C1057 C1055 1.327 . S
C1058 C1046 1.349 . S
C1058 H1052 0.950 . S
C1058 C1059 1.327 . S
C1059 H1053 0.950 . S
C1059 C1058 1.327 . S
C1059 C1063 1.429 . S
C1060 C1043 1.574 . S
C1060 H1054 0.949 . S
C1060 C1064 1.368 . S
C1061 C1042 1.429 . S
C1061 C1055 1.429 . S
C1061 C1062 1.523 . S
C1062 C1043 1.368 . S
C1062 C1056 1.368 . S
C1062 C1061 1.523 . S
C1063 C1047 1.429 . S
C1063 C1059 1.429 . S
C1063 C1064 1.523 . S
C1064 C1048 1.368 . S
C1064 C1060 1.368 . S
C1064 C1063 1.523 . S
H1065 C1040 0.950 . S
H1066 C1042 0.950 . S
H1067 C1043 0.949 . S
H1068 C1045 0.950 . S
H1069 C1047 0.950 . S
C1070 C1071 1.349 . S
C1070 C1072 1.327 . S
C1070 H1095 0.950 . S
C1071 C1070 1.349 . S
C1071 C1087 1.349 . S
C1072 C1070 1.327 . S
C1072 C1091 1.429 1_565 S
C1072 H1096 0.950 . S
C1073 C1090 1.574 . S
C1073 C1092 1.368 . S
C1073 H1097 0.949 . S
H1074 C1078 0.949 . S
C1075 C1076 1.349 . S
C1075 C1077 1.327 . S
C1075 H1098 0.950 . S
C1076 C1075 1.349 . S
C1076 C1088 1.349 . S
C1077 C1075 1.327 . S
C1077 C1093 1.429 . S
C1077 H1099 0.950 . S
C1078 H1074 0.949 . S
C1078 C1086 1.574 . S
C1078 C1094 1.368 . S
H1079 C1087 0.950 . S
H1080 C1085 0.950 . S
H1081 C1086 0.949 . S
H1082 C1088 0.950 . S
H1083 C1089 0.950 . S
H1084 C1090 0.949 . S
C1085 H1080 0.950 . S
C1085 C1087 1.327 . S
C1085 C1091 1.429 1_565 S
C1086 C1078 1.574 . S
C1086 H1081 0.949 . S
C1086 C1092 1.368 . S
C1087 C1071 1.349 . S
C1087 H1079 0.950 . S
C1087 C1085 1.327 . S
C1088 C1076 1.349 . S
C1088 H1082 0.950 . S
C1088 C1089 1.327 . S
C1089 H1083 0.950 . S
C1089 C1088 1.327 . S
C1089 C1093 1.429 . S
C1090 C1073 1.574 . S
C1090 H1084 0.949 . S
C1090 C1094 1.368 . S
C1091 C1072 1.429 1_545 S
C1091 C1085 1.429 1_545 S
C1091 C1092 1.523 . S
C1092 C1073 1.368 . S
C1092 C1086 1.368 . S
C1092 C1091 1.523 . S
C1093 C1077 1.429 . S
C1093 C1089 1.429 . S
C1093 C1094 1.523 . S
C1094 C1078 1.368 . S
C1094 C1090 1.368 . S
C1094 C1093 1.523 . S
H1095 C1070 0.950 . S
H1096 C1072 0.950 . S
H1097 C1073 0.949 . S
H1098 C1075 0.950 . S
H1099 C1077 0.950 . S
C1100 C1101 1.349 . S
C1100 C1102 1.327 . S
C1100 H1125 0.950 . S
C1101 C1100 1.349 . S
C1101 C1117 1.349 . S
C1102 C1100 1.327 . S
C1102 C1121 1.429 . S
C1102 H1126 0.950 . S
C1103 C1120 1.574 . S
C1103 C1122 1.368 . S
C1103 H1127 0.949 . S
H1104 C1108 0.949 . S
C1105 C1106 1.349 . S
C1105 C1107 1.327 . S
C1105 H1128 0.950 . S
C1106 C1105 1.349 . S
C1106 C1118 1.349 . S
C1107 C1105 1.327 . S
C1107 C1123 1.429 . S
C1107 H1129 0.950 . S
C1108 H1104 0.949 . S
C1108 C1116 1.574 . S
C1108 C1124 1.368 . S
H1109 C1117 0.950 . S
H1110 C1115 0.950 . S
H1111 C1116 0.949 . S
H1112 C1118 0.950 . S
H1113 C1119 0.950 . S
H1114 C1120 0.949 . S
C1115 H1110 0.950 . S
C1115 C1117 1.327 . S
C1115 C1121 1.429 . S
C1116 C1108 1.574 . S
C1116 H1111 0.949 . S
C1116 C1122 1.368 . S
C1117 C1101 1.349 . S
C1117 H1109 0.950 . S
C1117 C1115 1.327 . S
C1118 C1106 1.349 . S
C1118 H1112 0.950 . S
C1118 C1119 1.327 . S
C1119 H1113 0.950 . S
C1119 C1118 1.327 . S
C1119 C1123 1.429 . S
C1120 C1103 1.574 . S
C1120 H1114 0.949 . S
C1120 C1124 1.368 . S
C1121 C1102 1.429 . S
C1121 C1115 1.429 . S
C1121 C1122 1.523 . S
C1122 C1103 1.368 . S
C1122 C1116 1.368 . S
C1122 C1121 1.523 . S
C1123 C1107 1.429 . S
C1123 C1119 1.429 . S
C1123 C1124 1.523 . S
C1124 C1108 1.368 . S
C1124 C1120 1.368 . S
C1124 C1123 1.523 . S
H1125 C1100 0.950 . S
H1126 C1102 0.950 . S
H1127 C1103 0.949 . S
H1128 C1105 0.950 . S
H1129 C1107 0.950 . S
C1130 C1131 1.349 . S
C1130 C1132 1.327 . S
C1130 H1155 0.950 . S
C1131 C1130 1.349 . S
C1131 C1147 1.349 . S
C1132 C1130 1.327 . S
C1132 C1151 1.429 . S
C1132 H1156 0.950 . S
C1133 C1150 1.574 . S
C1133 C1152 1.368 . S
C1133 H1157 0.949 . S
H1134 C1138 0.949 . S
C1135 C1136 1.349 . S
C1135 C1137 1.327 . S
C1135 H1158 0.950 . S
C1136 C1135 1.349 . S
C1136 C1148 1.349 . S
C1137 C1135 1.327 . S
C1137 C1153 1.429 . S
C1137 H1159 0.950 . S
C1138 H1134 0.949 . S
C1138 C1146 1.574 . S
C1138 C1154 1.368 . S
H1139 C1147 0.950 . S
H1140 C1145 0.950 1_565 S
H1141 C1146 0.949 1_545 S
H1142 C1148 0.950 . S
H1143 C1149 0.950 . S
H1144 C1150 0.949 . S
C1145 H1140 0.950 1_545 S
C1145 C1147 1.327 . S
C1145 C1151 1.429 . S
C1146 C1138 1.574 . S
C1146 H1141 0.949 1_565 S
C1146 C1152 1.368 . S
C1147 C1131 1.349 . S
C1147 H1139 0.950 . S
C1147 C1145 1.327 . S
C1148 C1136 1.349 . S
C1148 H1142 0.950 . S
C1148 C1149 1.327 . S
C1149 H1143 0.950 . S
C1149 C1148 1.327 . S
C1149 C1153 1.429 . S
C1150 C1133 1.574 . S
C1150 H1144 0.949 . S
C1150 C1154 1.368 . S
C1151 C1132 1.429 . S
C1151 C1145 1.429 . S
C1151 C1152 1.523 1_545 S
C1152 C1133 1.368 . S
C1152 C1146 1.368 . S
C1152 C1151 1.523 1_565 S
C1153 C1137 1.429 . S
C1153 C1149 1.429 . S
C1153 C1154 1.523 . S
C1154 C1138 1.368 . S
C1154 C1150 1.368 . S
C1154 C1153 1.523 . S
H1155 C1130 0.950 . S
H1156 C1132 0.950 . S
H1157 C1133 0.949 . S
H1158 C1135 0.950 . S
H1159 C1137 0.950 . S
C1160 C1161 1.349 . S
C1160 C1162 1.327 . S
C1160 H1185 0.950 . S
C1161 C1160 1.349 . S
C1161 C1177 1.349 . S
C1162 C1160 1.327 . S
C1162 C1181 1.429 . S
C1162 H1186 0.950 . S
C1163 C1180 1.574 . S
C1163 C1182 1.368 . S
C1163 H1187 0.949 . S
H1164 C1168 0.949 . S
C1165 C1166 1.349 . S
C1165 C1167 1.327 . S
C1165 H1188 0.950 . S
C1166 C1165 1.349 . S
C1166 C1178 1.349 . S
C1167 C1165 1.327 . S
C1167 C1183 1.429 . S
C1167 H1189 0.950 . S
C1168 H1164 0.949 . S
C1168 C1176 1.574 . S
C1168 C1184 1.368 . S
H1169 C1177 0.950 . S
H1170 C1175 0.950 . S
H1171 C1176 0.949 . S
H1172 C1178 0.950 . S
H1173 C1179 0.950 . S
H1174 C1180 0.949 . S
C1175 H1170 0.950 . S
C1175 C1177 1.327 . S
C1175 C1181 1.429 . S
C1176 C1168 1.574 . S
C1176 H1171 0.949 . S
C1176 C1182 1.368 . S
C1177 C1161 1.349 . S
C1177 H1169 0.950 . S
C1177 C1175 1.327 . S
C1178 C1166 1.349 . S
C1178 H1172 0.950 . S
C1178 C1179 1.327 . S
C1179 H1173 0.950 . S
C1179 C1178 1.327 . S
C1179 C1183 1.429 . S
C1180 C1163 1.574 . S
C1180 H1174 0.949 . S
C1180 C1184 1.368 . S
C1181 C1162 1.429 . S
C1181 C1175 1.429 . S
C1181 C1182 1.523 . S
C1182 C1163 1.368 . S
C1182 C1176 1.368 . S
C1182 C1181 1.523 . S
C1183 C1167 1.429 . S
C1183 C1179 1.429 . S
C1183 C1184 1.523 . S
C1184 C1168 1.368 . S
C1184 C1180 1.368 . S
C1184 C1183 1.523 . S
H1185 C1160 0.950 . S
H1186 C1162 0.950 . S
H1187 C1163 0.949 . S
H1188 C1165 0.950 . S
H1189 C1167 0.950 . S
C1190 C1191 1.349 . S
C1190 C1192 1.327 . S
C1190 H1215 0.950 . S
C1191 C1190 1.349 . S
C1191 C1207 1.349 . S
C1192 C1190 1.327 . S
C1192 C1211 1.429 1_565 S
C1192 H1216 0.950 1_565 S
C1193 C1210 1.574 . S
C1193 C1212 1.368 . S
C1193 H1217 0.949 . S
H1194 C1198 0.949 . S
C1195 C1196 1.349 . S
C1195 C1197 1.327 . S
C1195 H1218 0.950 . S
C1196 C1195 1.349 . S
C1196 C1208 1.349 . S
C1197 C1195 1.327 . S
C1197 C1213 1.429 . S
C1197 H1219 0.950 . S
C1198 H1194 0.949 . S
C1198 C1206 1.574 . S
C1198 C1214 1.368 . S
H1199 C1207 0.950 . S
H1200 C1205 0.950 . S
H1201 C1206 0.949 . S
H1202 C1208 0.950 . S
H1203 C1209 0.950 . S
H1204 C1210 0.949 . S
C1205 H1200 0.950 . S
C1205 C1207 1.327 . S
C1205 C1211 1.429 1_565 S
C1206 C1198 1.574 . S
C1206 H1201 0.949 . S
C1206 C1212 1.368 . S
C1207 C1191 1.349 . S
C1207 H1199 0.950 . S
C1207 C1205 1.327 . S
C1208 C1196 1.349 . S
C1208 H1202 0.950 . S
C1208 C1209 1.327 . S
C1209 H1203 0.950 . S
C1209 C1208 1.327 . S
C1209 C1213 1.429 . S
C1210 C1193 1.574 . S
C1210 H1204 0.949 . S
C1210 C1214 1.368 . S
C1211 C1192 1.429 1_545 S
C1211 C1205 1.429 1_545 S
C1211 C1212 1.523 . S
C1212 C1193 1.368 . S
C1212 C1206 1.368 . S
C1212 C1211 1.523 . S
C1213 C1197 1.429 . S
C1213 C1209 1.429 . S
C1213 C1214 1.523 . S
C1214 C1198 1.368 . S
C1214 C1210 1.368 . S
C1214 C1213 1.523 . S
H1215 C1190 0.950 . S
H1216 C1192 0.950 1_545 S
H1217 C1193 0.949 . S
H1218 C1195 0.950 . S
H1219 C1197 0.950 . S
C1220 C1221 1.349 . S
C1220 C1222 1.327 . S
C1220 H1245 0.950 . S
C1221 C1220 1.349 . S
C1221 C1237 1.349 . S
C1222 C1220 1.327 . S
C1222 C1241 1.429 . S
C1222 H1246 0.950 . S
C1223 C1240 1.574 . S
C1223 C1242 1.368 . S
C1223 H1247 0.949 . S
H1224 C1228 0.949 . S
C1225 C1226 1.349 . S
C1225 C1227 1.327 . S
C1225 H1248 0.950 . S
C1226 C1225 1.349 . S
C1226 C1238 1.349 . S
C1227 C1225 1.327 . S
C1227 C1243 1.429 . S
C1227 H1249 0.950 . S
C1228 H1224 0.949 . S
C1228 C1236 1.574 . S
C1228 C1244 1.368 . S
H1229 C1237 0.950 . S
H1230 C1235 0.950 . S
H1231 C1236 0.949 . S
H1232 C1238 0.950 . S
H1233 C1239 0.950 . S
H1234 C1240 0.949 . S
C1235 H1230 0.950 . S
C1235 C1237 1.327 . S
C1235 C1241 1.429 . S
C1236 C1228 1.574 . S
C1236 H1231 0.949 . S
C1236 C1242 1.368 . S
C1237 C1221 1.349 . S
C1237 H1229 0.950 . S
C1237 C1235 1.327 . S
C1238 C1226 1.349 . S
C1238 H1232 0.950 . S
C1238 C1239 1.327 . S
C1239 H1233 0.950 . S
C1239 C1238 1.327 . S
C1239 C1243 1.429 . S
C1240 C1223 1.574 . S
C1240 H1234 0.949 . S
C1240 C1244 1.368 . S
C1241 C1222 1.429 . S
C1241 C1235 1.429 . S
C1241 C1242 1.523 . S
C1242 C1223 1.368 . S
C1242 C1236 1.368 . S
C1242 C1241 1.523 . S
C1243 C1227 1.429 . S
C1243 C1239 1.429 . S
C1243 C1244 1.523 . S
C1244 C1228 1.368 . S
C1244 C1240 1.368 . S
C1244 C1243 1.523 . S
H1245 C1220 0.950 . S
H1246 C1222 0.950 . S
H1247 C1223 0.949 . S
H1248 C1225 0.950 . S
H1249 C1227 0.950 . S
C1250 C1251 1.349 . S
C1250 C1252 1.327 . S
C1250 H1275 0.950 . S
C1251 C1250 1.349 . S
C1251 C1267 1.349 . S
C1252 C1250 1.327 . S
C1252 C1271 1.429 . S
C1252 H1276 0.950 1_545 S
C1253 C1270 1.574 . S
C1253 C1272 1.368 . S
C1253 H1277 0.949 1_565 S
H1254 C1258 0.949 . S
C1255 C1256 1.349 . S
C1255 C1257 1.327 . S
C1255 H1278 0.950 . S
C1256 C1255 1.349 . S
C1256 C1268 1.349 . S
C1257 C1255 1.327 . S
C1257 C1273 1.429 . S
C1257 H1279 0.950 . S
C1258 H1254 0.949 . S
C1258 C1266 1.574 . S
C1258 C1274 1.368 . S
H1259 C1267 0.950 . S
H1260 C1265 0.950 . S
H1261 C1266 0.949 . S
H1262 C1268 0.950 . S
H1263 C1269 0.950 . S
H1264 C1270 0.949 . S
C1265 H1260 0.950 . S
C1265 C1267 1.327 . S
C1265 C1271 1.429 . S
C1266 C1258 1.574 . S
C1266 H1261 0.949 . S
C1266 C1272 1.368 . S
C1267 C1251 1.349 . S
C1267 H1259 0.950 . S
C1267 C1265 1.327 . S
C1268 C1256 1.349 . S
C1268 H1262 0.950 . S
C1268 C1269 1.327 . S
C1269 H1263 0.950 . S
C1269 C1268 1.327 . S
C1269 C1273 1.429 . S
C1270 C1253 1.574 . S
C1270 H1264 0.949 . S
C1270 C1274 1.368 . S
C1271 C1252 1.429 . S
C1271 C1265 1.429 . S
C1271 C1272 1.523 1_545 S
C1272 C1253 1.368 . S
C1272 C1266 1.368 . S
C1272 C1271 1.523 1_565 S
C1273 C1257 1.429 . S
C1273 C1269 1.429 . S
C1273 C1274 1.523 . S
C1274 C1258 1.368 . S
C1274 C1270 1.368 . S
C1274 C1273 1.523 . S
H1275 C1250 0.950 . S
H1276 C1252 0.950 1_565 S
H1277 C1253 0.949 1_545 S
H1278 C1255 0.950 . S
H1279 C1257 0.950 . S
C1280 C1281 1.349 . S
C1280 C1282 1.327 . S
C1280 H1305 0.950 . S
C1281 C1280 1.349 . S
C1281 C1297 1.349 . S
C1282 C1280 1.327 . S
C1282 C1301 1.429 . S
C1282 H1306 0.950 . S
C1283 C1300 1.574 . S
C1283 C1302 1.368 . S
C1283 H1307 0.949 . S
H1284 C1288 0.949 . S
C1285 C1286 1.349 . S
C1285 C1287 1.327 . S
C1285 H1308 0.950 . S
C1286 C1285 1.349 . S
C1286 C1298 1.349 . S
C1287 C1285 1.327 . S
C1287 C1303 1.429 . S
C1287 H1309 0.950 . S
C1288 H1284 0.949 . S
C1288 C1296 1.574 . S
C1288 C1304 1.368 . S
H1289 C1297 0.950 . S
H1290 C1295 0.950 . S
H1291 C1296 0.949 . S
H1292 C1298 0.950 . S
H1293 C1299 0.950 . S
H1294 C1300 0.949 . S
C1295 H1290 0.950 . S
C1295 C1297 1.327 . S
C1295 C1301 1.429 . S
C1296 C1288 1.574 . S
C1296 H1291 0.949 . S
C1296 C1302 1.368 . S
C1297 C1281 1.349 . S
C1297 H1289 0.950 . S
C1297 C1295 1.327 . S
C1298 C1286 1.349 . S
C1298 H1292 0.950 . S
C1298 C1299 1.327 . S
C1299 H1293 0.950 . S
C1299 C1298 1.327 . S
C1299 C1303 1.429 . S
C1300 C1283 1.574 . S
C1300 H1294 0.949 . S
C1300 C1304 1.368 . S
C1301 C1282 1.429 . S
C1301 C1295 1.429 . S
C1301 C1302 1.523 . S
C1302 C1283 1.368 . S
C1302 C1296 1.368 . S
C1302 C1301 1.523 . S
C1303 C1287 1.429 . S
C1303 C1299 1.429 . S
C1303 C1304 1.523 . S
C1304 C1288 1.368 . S
C1304 C1300 1.368 . S
C1304 C1303 1.523 . S
H1305 C1280 0.950 . S
H1306 C1282 0.950 . S
H1307 C1283 0.949 . S
H1308 C1285 0.950 . S
H1309 C1287 0.950 . S
C1310 C1311 1.349 . S
C1310 C1312 1.327 . S
C1310 H1335 0.950 . S
C1311 C1310 1.349 . S
C1311 C1327 1.349 . S
C1312 C1310 1.327 . S
C1312 C1331 1.429 . S
C1312 H1336 0.950 . S
C1313 C1330 1.574 . S
C1313 C1332 1.368 . S
C1313 H1337 0.949 . S
H1314 C1318 0.949 . S
C1315 C1316 1.349 . S
C1315 C1317 1.327 . S
C1315 H1338 0.950 . S
C1316 C1315 1.349 . S
C1316 C1328 1.349 . S
C1317 C1315 1.327 . S
C1317 C1333 1.429 . S
C1317 H1339 0.950 . S
C1318 H1314 0.949 . S
C1318 C1326 1.574 . S
C1318 C1334 1.368 . S
H1319 C1327 0.950 . S
H1320 C1325 0.950 1_565 S
H1321 C1326 0.949 1_545 S
H1322 C1328 0.950 . S
H1323 C1329 0.950 . S
H1324 C1330 0.949 . S
C1325 H1320 0.950 1_545 S
C1325 C1327 1.327 . S
C1325 C1331 1.429 . S
C1326 C1318 1.574 . S
C1326 H1321 0.949 1_565 S
C1326 C1332 1.368 . S
C1327 C1311 1.349 . S
C1327 H1319 0.950 . S
C1327 C1325 1.327 . S
C1328 C1316 1.349 . S
C1328 H1322 0.950 . S
C1328 C1329 1.327 . S
C1329 H1323 0.950 . S
C1329 C1328 1.327 . S
C1329 C1333 1.429 . S
C1330 C1313 1.574 . S
C1330 H1324 0.949 . S
C1330 C1334 1.368 . S
C1331 C1312 1.429 . S
C1331 C1325 1.429 . S
C1331 C1332 1.523 1_545 S
C1332 C1313 1.368 . S
C1332 C1326 1.368 . S
C1332 C1331 1.523 1_565 S
C1333 C1317 1.429 . S
C1333 C1329 1.429 . S
C1333 C1334 1.523 . S
C1334 C1318 1.368 . S
C1334 C1330 1.368 . S
C1334 C1333 1.523 . S
H1335 C1310 0.950 . S
H1336 C1312 0.950 . S
H1337 C1313 0.949 . S
H1338 C1315 0.950 . S
H1339 C1317 0.950 . S
C1340 C1341 1.349 . S
C1340 C1342 1.327 . S
C1340 H1365 0.950 . S
C1341 C1340 1.349 . S
C1341 C1357 1.349 . S
C1342 C1340 1.327 . S
C1342 C1361 1.429 . S
C1342 H1366 0.950 . S
C1343 C1360 1.574 . S
C1343 C1362 1.368 . S
C1343 H1367 0.949 . S
H1344 C1348 0.949 . S
C1345 C1346 1.349 . S
C1345 C1347 1.327 . S
C1345 H1368 0.950 . S
C1346 C1345 1.349 . S
C1346 C1358 1.349 . S
C1347 C1345 1.327 . S
C1347 C1363 1.429 . S
C1347 H1369 0.950 . S
C1348 H1344 0.949 . S
C1348 C1356 1.574 . S
C1348 C1364 1.368 . S
H1349 C1357 0.950 . S
H1350 C1355 0.950 . S
H1351 C1356 0.949 . S
H1352 C1358 0.950 . S
H1353 C1359 0.950 . S
H1354 C1360 0.949 . S
C1355 H1350 0.950 . S
C1355 C1357 1.327 . S
C1355 C1361 1.429 . S
C1356 C1348 1.574 . S
C1356 H1351 0.949 . S
C1356 C1362 1.368 . S
C1357 C1341 1.349 . S
C1357 H1349 0.950 . S
C1357 C1355 1.327 . S
C1358 C1346 1.349 . S
C1358 H1352 0.950 . S
C1358 C1359 1.327 . S
C1359 H1353 0.950 . S
C1359 C1358 1.327 . S
C1359 C1363 1.429 . S
C1360 C1343 1.574 . S
C1360 H1354 0.949 . S
C1360 C1364 1.368 . S
C1361 C1342 1.429 . S
C1361 C1355 1.429 . S
C1361 C1362 1.523 . S
C1362 C1343 1.368 . S
C1362 C1356 1.368 . S
C1362 C1361 1.523 . S
C1363 C1347 1.429 . S
C1363 C1359 1.429 . S
C1363 C1364 1.523 . S
C1364 C1348 1.368 . S
C1364 C1360 1.368 . S
C1364 C1363 1.523 . S
H1365 C1340 0.950 . S
H1366 C1342 0.950 . S
H1367 C1343 0.949 . S
H1368 C1345 0.950 . S
H1369 C1347 0.950 . S
C1370 C1371 1.349 . S
C1370 C1372 1.314 1_565 S
C1370 H1395 0.950 . S
C1371 C1370 1.349 . S
C1371 C1387 1.349 . S
C1372 C1370 1.314 1_545 S
C1372 C1391 1.433 . S
C1372 H1396 0.959 . S
C1373 C1390 1.574 . S
C1373 C1392 1.368 . S
C1373 H1397 0.949 . S
H1374 C1378 0.949 . S
C1375 C1376 1.349 . S
C1375 C1377 1.327 . S
C1375 H1398 0.950 . S
C1376 C1375 1.349 . S
C1376 C1388 1.349 . S
C1377 C1375 1.327 . S
C1377 C1393 1.429 . S
C1377 H1399 0.950 . S
C1378 H1374 0.949 . S
C1378 C1386 1.574 . S
C1378 C1394 1.368 . S
H1379 C1387 0.950 . S
H1380 C1385 0.950 . S
H1381 C1386 0.949 . S
H1382 C1388 0.950 . S
H1383 C1389 0.950 . S
H1384 C1390 0.949 . S
C1385 H1380 0.950 . S
C1385 C1387 1.327 . S
C1385 C1391 1.429 1_565 S
C1386 C1378 1.574 . S
C1386 H1381 0.949 . S
C1386 C1392 1.368 . S
C1387 C1371 1.349 . S
C1387 H1379 0.950 . S
C1387 C1385 1.327 . S
C1388 C1376 1.349 . S
C1388 H1382 0.950 . S
C1388 C1389 1.327 . S
C1389 H1383 0.950 . S
C1389 C1388 1.327 . S
C1389 C1393 1.429 . S
C1390 C1373 1.574 . S
C1390 H1384 0.949 . S
C1390 C1394 1.368 . S
C1391 C1372 1.433 . S
C1391 C1385 1.429 1_545 S
C1391 C1392 1.523 . S
C1392 C1373 1.368 . S
C1392 C1386 1.368 . S
C1392 C1391 1.523 . S
C1393 C1377 1.429 . S
C1393 C1389 1.429 . S
C1393 C1394 1.523 . S
C1394 C1378 1.368 . S
C1394 C1390 1.368 . S
C1394 C1393 1.523 . S
H1395 C1370 0.950 . S
H1396 C1372 0.959 . S
H1397 C1373 0.949 . S
H1398 C1375 0.950 . S
H1399 C1377 0.950 . S
C1400 C1401 1.349 . S
C1400 C1402 1.327 . S
C1400 H1425 0.950 . S
C1401 C1400 1.349 . S
C1401 C1417 1.349 . S
C1402 C1400 1.327 . S
C1402 C1421 1.429 . S
C1402 H1426 0.950 . S
C1403 C1420 1.574 . S
C1403 C1422 1.368 . S
C1403 H1427 0.949 . S
H1404 C1408 0.949 . S
C1405 C1406 1.349 . S
C1405 C1407 1.327 . S
C1405 H1428 0.950 . S
C1406 C1405 1.349 . S
C1406 C1418 1.349 . S
C1407 C1405 1.327 . S
C1407 C1423 1.429 . S
C1407 H1429 0.950 . S
C1408 H1404 0.949 . S
C1408 C1416 1.574 . S
C1408 C1424 1.368 . S
H1409 C1417 0.950 . S
H1410 C1415 0.950 . S
H1411 C1416 0.949 . S
H1412 C1418 0.950 . S
H1413 C1419 0.950 . S
H1414 C1420 0.949 . S
C1415 H1410 0.950 . S
C1415 C1417 1.327 . S
C1415 C1421 1.429 . S
C1416 C1408 1.574 . S
C1416 H1411 0.949 . S
C1416 C1422 1.368 . S
C1417 C1401 1.349 . S
C1417 H1409 0.950 . S
C1417 C1415 1.327 . S
C1418 C1406 1.349 . S
C1418 H1412 0.950 . S
C1418 C1419 1.327 . S
C1419 H1413 0.950 . S
C1419 C1418 1.327 . S
C1419 C1423 1.429 . S
C1420 C1403 1.574 . S
C1420 H1414 0.949 . S
C1420 C1424 1.368 . S
C1421 C1402 1.429 . S
C1421 C1415 1.429 . S
C1421 C1422 1.523 . S
C1422 C1403 1.368 . S
C1422 C1416 1.368 . S
C1422 C1421 1.523 . S
C1423 C1407 1.429 . S
C1423 C1419 1.429 . S
C1423 C1424 1.523 . S
C1424 C1408 1.368 . S
C1424 C1420 1.368 . S
C1424 C1423 1.523 . S
H1425 C1400 0.950 . S
H1426 C1402 0.950 . S
H1427 C1403 0.949 . S
H1428 C1405 0.950 . S
H1429 C1407 0.950 . S
C1430 C1431 1.349 . S
C1430 C1432 1.327 . S
C1430 H1455 0.950 . S
C1431 C1430 1.349 . S
C1431 C1447 1.349 . S
C1432 C1430 1.327 . S
C1432 C1451 1.429 . S
C1432 H1456 0.950 . S
C1433 C1450 1.574 . S
C1433 C1452 1.368 . S
C1433 H1457 0.949 . S
H1434 C1438 0.949 . S
C1435 C1436 1.349 . S
C1435 C1437 1.327 . S
C1435 H1458 0.950 . S
C1436 C1435 1.349 . S
C1436 C1448 1.349 . S
C1437 C1435 1.327 . S
C1437 C1453 1.429 . S
C1437 H1459 0.950 . S
C1438 H1434 0.949 . S
C1438 C1446 1.574 . S
C1438 C1454 1.368 . S
H1439 C1447 0.950 . S
H1440 C1445 0.950 1_565 S
H1441 C1446 0.949 1_545 S
H1442 C1448 0.950 . S
H1443 C1449 0.950 . S
H1444 C1450 0.949 . S
C1445 H1440 0.950 1_545 S
C1445 C1447 1.327 . S
C1445 C1451 1.429 . S
C1446 C1438 1.574 . S
C1446 H1441 0.949 1_565 S
C1446 C1452 1.368 . S
C1447 C1431 1.349 . S
C1447 H1439 0.950 . S
C1447 C1445 1.327 . S
C1448 C1436 1.349 . S
C1448 H1442 0.950 . S
C1448 C1449 1.327 . S
C1449 H1443 0.950 . S
C1449 C1448 1.327 . S
C1449 C1453 1.429 . S
C1450 C1433 1.574 . S
C1450 H1444 0.949 . S
C1450 C1454 1.368 . S
C1451 C1432 1.429 . S
C1451 C1445 1.429 . S
C1451 C1452 1.523 1_545 S
C1452 C1433 1.368 . S
C1452 C1446 1.368 . S
C1452 C1451 1.523 1_565 S
C1453 C1437 1.429 . S
C1453 C1449 1.429 . S
C1453 C1454 1.523 . S
C1454 C1438 1.368 . S
C1454 C1450 1.368 . S
C1454 C1453 1.523 . S
H1455 C1430 0.950 . S
H1456 C1432 0.950 . S
H1457 C1433 0.949 . S
H1458 C1435 0.950 . S
H1459 C1437 0.950 . S
C1460 C1461 1.349 . S
C1460 C1462 1.327 . S
C1460 H1485 0.950 . S
C1461 C1460 1.349 . S
C1461 C1477 1.349 . S
C1462 C1460 1.327 . S
C1462 C1481 1.429 . S
C1462 H1486 0.950 . S
C1463 C1480 1.574 . S
C1463 C1482 1.368 . S
C1463 H1487 0.949 . S
H1464 C1468 0.949 . S
C1465 C1466 1.349 . S
C1465 C1467 1.327 . S
C1465 H1488 0.950 . S
C1466 C1465 1.349 . S
C1466 C1478 1.349 . S
C1467 C1465 1.327 . S
C1467 C1483 1.429 . S
C1467 H1489 0.950 . S
C1468 H1464 0.949 . S
C1468 C1476 1.574 . S
C1468 C1484 1.368 . S
H1469 C1477 0.950 . S
H1470 C1475 0.950 . S
H1471 C1476 0.949 . S
H1472 C1478 0.950 . S
H1473 C1479 0.950 . S
H1474 C1480 0.949 . S
C1475 H1470 0.950 . S
C1475 C1477 1.327 . S
C1475 C1481 1.429 . S
C1476 C1468 1.574 . S
C1476 H1471 0.949 . S
C1476 C1482 1.368 . S
C1477 C1461 1.349 . S
C1477 H1469 0.950 . S
C1477 C1475 1.327 . S
C1478 C1466 1.349 . S
C1478 H1472 0.950 . S
C1478 C1479 1.327 . S
C1479 H1473 0.950 . S
C1479 C1478 1.327 . S
C1479 C1483 1.429 . S
C1480 C1463 1.574 . S
C1480 H1474 0.949 . S
C1480 C1484 1.368 . S
C1481 C1462 1.429 . S
C1481 C1475 1.429 . S
C1481 C1482 1.523 . S
C1482 C1463 1.368 . S
C1482 C1476 1.368 . S
C1482 C1481 1.523 . S
C1483 C1467 1.429 . S
C1483 C1479 1.429 . S
C1483 C1484 1.523 . S
C1484 C1468 1.368 . S
C1484 C1480 1.368 . S
C1484 C1483 1.523 . S
H1485 C1460 0.950 . S
H1486 C1462 0.950 . S
H1487 C1463 0.949 . S
H1488 C1465 0.950 . S
H1489 C1467 0.950 . S
C1490 C1491 1.349 . S
C1490 C1492 1.327 . S
C1490 H1515 0.950 . S
C1491 C1490 1.349 . S
C1491 C1507 1.349 . S
C1492 C1490 1.327 . S
C1492 C1511 1.429 1_565 S
C1492 H1516 0.950 . S
C1493 C1510 1.574 . S
C1493 C1512 1.368 . S
C1493 H1517 0.949 . S
H1494 C1498 0.949 . S
C1495 C1496 1.349 . S
C1495 C1497 1.327 . S
C1495 H1518 0.950 . S
C1496 C1495 1.349 . S
C1496 C1508 1.349 . S
C1497 C1495 1.327 . S
C1497 C1513 1.429 . S
C1497 H1519 0.950 . S
C1498 H1494 0.949 . S
C1498 C1506 1.574 . S
C1498 C1514 1.368 . S
H1499 C1507 0.950 . S
H1500 C1505 0.950 . S
H1501 C1506 0.949 . S
H1502 C1508 0.950 . S
H1503 C1509 0.950 . S
H1504 C1510 0.949 . S
C1505 H1500 0.950 . S
C1505 C1507 1.327 1_545 S
C1505 C1511 1.429 . S
C1506 C1498 1.574 . S
C1506 H1501 0.949 . S
C1506 C1512 1.368 . S
C1507 C1491 1.349 . S
C1507 H1499 0.950 . S
C1507 C1505 1.327 1_565 S
C1508 C1496 1.349 . S
C1508 H1502 0.950 . S
C1508 C1509 1.327 . S
C1509 H1503 0.950 . S
C1509 C1508 1.327 . S
C1509 C1513 1.429 . S
C1510 C1493 1.574 . S
C1510 H1504 0.949 . S
C1510 C1514 1.368 . S
C1511 C1492 1.429 1_545 S
C1511 C1505 1.429 . S
C1511 C1512 1.523 . S
C1512 C1493 1.368 . S
C1512 C1506 1.368 . S
C1512 C1511 1.523 . S
C1513 C1497 1.429 . S
C1513 C1509 1.429 . S
C1513 C1514 1.523 . S
C1514 C1498 1.368 . S
C1514 C1510 1.368 . S
C1514 C1513 1.523 . S
H1515 C1490 0.950 . S
H1516 C1492 0.950 . S
H1517 C1493 0.949 . S
H1518 C1495 0.950 . S
H1519 C1497 0.950 . S
C1520 C1521 1.349 . S
C1520 C1522 1.327 . S
C1520 H1545 0.950 . S
C1521 C1520 1.349 . S
C1521 C1537 1.349 . S
C1522 C1520 1.327 . S
C1522 C1541 1.429 . S
C1522 H1546 0.950 . S
C1523 C1540 1.574 . S
C1523 C1542 1.368 . S
C1523 H1547 0.949 . S
H1524 C1528 0.949 . S
C1525 C1526 1.349 . S
C1525 C1527 1.327 . S
C1525 H1548 0.950 . S
C1526 C1525 1.349 . S
C1526 C1538 1.349 . S
C1527 C1525 1.327 . S
C1527 C1543 1.429 . S
C1527 H1549 0.950 . S
C1528 H1524 0.949 . S
C1528 C1536 1.574 . S
C1528 C1544 1.368 . S
H1529 C1537 0.950 . S
H1530 C1535 0.950 . S
H1531 C1536 0.949 . S
H1532 C1538 0.950 . S
H1533 C1539 0.950 . S
H1534 C1540 0.949 . S
C1535 H1530 0.950 . S
C1535 C1537 1.327 . S
C1535 C1541 1.429 . S
C1536 C1528 1.574 . S
C1536 H1531 0.949 . S
C1536 C1542 1.368 . S
C1537 C1521 1.349 . S
C1537 H1529 0.950 . S
C1537 C1535 1.327 . S
C1538 C1526 1.349 . S
C1538 H1532 0.950 . S
C1538 C1539 1.327 . S
C1539 H1533 0.950 . S
C1539 C1538 1.327 . S
C1539 C1543 1.429 . S
C1540 C1523 1.574 . S
C1540 H1534 0.949 . S
C1540 C1544 1.368 . S
C1541 C1522 1.429 . S
C1541 C1535 1.429 . S
C1541 C1542 1.523 . S
C1542 C1523 1.368 . S
C1542 C1536 1.368 . S
C1542 C1541 1.523 . S
C1543 C1527 1.429 . S
C1543 C1539 1.429 . S
C1543 C1544 1.523 . S
C1544 C1528 1.368 . S
C1544 C1540 1.368 . S
C1544 C1543 1.523 . S
H1545 C1520 0.950 . S
H1546 C1522 0.950 . S
H1547 C1523 0.949 . S
H1548 C1525 0.950 . S
H1549 C1527 0.950 . S
C1550 C1551 1.349 . S
C1550 C1552 1.327 . S
C1550 H1575 0.950 . S
C1551 C1550 1.349 . S
C1551 C1567 1.349 . S
C1552 C1550 1.327 . S
C1552 C1571 1.429 . S
C1552 H1576 0.950 . S
C1553 C1570 1.574 . S
C1553 C1572 1.368 . S
C1553 H1577 0.949 . S
H1554 C1558 0.949 . S
C1555 C1556 1.349 . S
C1555 C1557 1.327 . S
C1555 H1578 0.950 . S
C1556 C1555 1.349 . S
C1556 C1568 1.349 . S
C1557 C1555 1.327 . S
C1557 C1573 1.429 . S
C1557 H1579 0.950 . S
C1558 H1554 0.949 . S
C1558 C1566 1.574 . S
C1558 C1574 1.368 . S
H1559 C1567 0.950 . S
H1560 C1565 0.950 . S
H1561 C1566 0.949 . S
H1562 C1568 0.950 . S
H1563 C1569 0.950 . S
H1564 C1570 0.949 . S
C1565 H1560 0.950 . S
C1565 C1567 1.327 . S
C1565 C1571 1.429 . S
C1566 C1558 1.574 . S
C1566 H1561 0.949 . S
C1566 C1572 1.368 . S
C1567 C1551 1.349 . S
C1567 H1559 0.950 . S
C1567 C1565 1.327 . S
C1568 C1556 1.349 . S
C1568 H1562 0.950 . S
C1568 C1569 1.327 . S
C1569 H1563 0.950 . S
C1569 C1568 1.327 . S
C1569 C1573 1.429 . S
C1570 C1553 1.574 . S
C1570 H1564 0.949 . S
C1570 C1574 1.368 . S
C1571 C1552 1.429 . S
C1571 C1565 1.429 . S
C1571 C1572 1.523 . S
C1572 C1553 1.368 . S
C1572 C1566 1.368 . S
C1572 C1571 1.523 . S
C1573 C1557 1.429 . S
C1573 C1569 1.429 . S
C1573 C1574 1.523 . S
C1574 C1558 1.368 . S
C1574 C1570 1.368 . S
C1574 C1573 1.523 . S
H1575 C1550 0.950 . S
H1576 C1552 0.950 . S
H1577 C1553 0.949 . S
H1578 C1555 0.950 . S
H1579 C1557 0.950 . S
C1580 C1581 1.349 . S
C1580 C1582 1.327 . S
C1580 H1605 0.950 . S
C1581 C1580 1.349 . S
C1581 C1597 1.349 . S
C1582 C1580 1.327 . S
C1582 C1601 1.429 . S
C1582 H1606 0.950 . S
C1583 C1600 1.574 . S
C1583 C1602 1.368 . S
C1583 H1607 0.949 . S
H1584 C1588 0.949 . S
C1585 C1586 1.349 . S
C1585 C1587 1.327 . S
C1585 H1608 0.950 . S
C1586 C1585 1.349 . S
C1586 C1598 1.349 . S
C1587 C1585 1.327 . S
C1587 C1603 1.429 . S
C1587 H1609 0.950 . S
C1588 H1584 0.949 . S
C1588 C1596 1.574 . S
C1588 C1604 1.368 . S
H1589 C1597 0.950 . S
H1590 C1595 0.950 . S
H1591 C1596 0.949 . S
H1592 C1598 0.950 . S
H1593 C1599 0.950 . S
H1594 C1600 0.949 . S
C1595 H1590 0.950 . S
C1595 C1597 1.327 . S
C1595 C1601 1.429 . S
C1596 C1588 1.574 . S
C1596 H1591 0.949 . S
C1596 C1602 1.368 . S
C1597 C1581 1.349 . S
C1597 H1589 0.950 . S
C1597 C1595 1.327 . S
C1598 C1586 1.349 . S
C1598 H1592 0.950 . S
C1598 C1599 1.327 . S
C1599 H1593 0.950 . S
C1599 C1598 1.327 . S
C1599 C1603 1.429 . S
C1600 C1583 1.574 . S
C1600 H1594 0.949 . S
C1600 C1604 1.368 . S
C1601 C1582 1.429 . S
C1601 C1595 1.429 . S
C1601 C1602 1.523 . S
C1602 C1583 1.368 . S
C1602 C1596 1.368 . S
C1602 C1601 1.523 . S
C1603 C1587 1.429 . S
C1603 C1599 1.429 . S
C1603 C1604 1.523 . S
C1604 C1588 1.368 . S
C1604 C1600 1.368 . S
C1604 C1603 1.523 . S
H1605 C1580 0.950 . S
H1606 C1582 0.950 . S
H1607 C1583 0.949 . S
H1608 C1585 0.950 . S
H1609 C1587 0.950 . S
C1610 C1611 1.349 . S
C1610 C1612 1.327 . S
C1610 H1635 0.950 . S
C1611 C1610 1.349 . S
C1611 C1627 1.349 . S
C1612 C1610 1.327 . S
C1612 C1631 1.429 . S
C1612 H1636 0.950 . S
C1613 C1630 1.574 . S
C1613 C1632 1.368 . S
C1613 H1637 0.949 . S
H1614 C1618 0.949 . S
C1615 C1616 1.349 . S
C1615 C1617 1.327 . S
C1615 H1638 0.950 . S
C1616 C1615 1.349 . S
C1616 C1628 1.349 . S
C1617 C1615 1.327 . S
C1617 C1633 1.429 . S
C1617 H1639 0.950 . S
C1618 H1614 0.949 . S
C1618 C1626 1.574 . S
C1618 C1634 1.368 . S
H1619 C1627 0.950 . S
H1620 C1625 0.950 . S
H1621 C1626 0.949 . S
H1622 C1628 0.950 . S
H1623 C1629 0.950 . S
H1624 C1630 0.949 . S
C1625 H1620 0.950 . S
C1625 C1627 1.327 . S
C1625 C1631 1.429 . S
C1626 C1618 1.574 . S
C1626 H1621 0.949 . S
C1626 C1632 1.368 . S
C1627 C1611 1.349 . S
C1627 H1619 0.950 . S
C1627 C1625 1.327 . S
C1628 C1616 1.349 . S
C1628 H1622 0.950 . S
C1628 C1629 1.327 . S
C1629 H1623 0.950 . S
C1629 C1628 1.327 . S
C1629 C1633 1.429 . S
C1630 C1613 1.574 . S
C1630 H1624 0.949 . S
C1630 C1634 1.368 . S
C1631 C1612 1.429 . S
C1631 C1625 1.429 . S
C1631 C1632 1.523 . S
C1632 C1613 1.368 . S
C1632 C1626 1.368 . S
C1632 C1631 1.523 . S
C1633 C1617 1.429 . S
C1633 C1629 1.429 . S
C1633 C1634 1.523 . S
C1634 C1618 1.368 . S
C1634 C1630 1.368 . S
C1634 C1633 1.523 . S
H1635 C1610 0.950 . S
H1636 C1612 0.950 . S
H1637 C1613 0.949 . S
H1638 C1615 0.950 . S
H1639 C1617 0.950 . S
C1640 C1641 1.349 . S
C1640 C1642 1.327 . S
C1640 H1665 0.950 . S
C1641 C1640 1.349 . S
C1641 C1657 1.349 . S
C1642 C1640 1.327 . S
C1642 C1661 1.429 . S
C1642 H1666 0.950 . S
C1643 C1660 1.574 . S
C1643 C1662 1.368 . S
C1643 H1667 0.949 . S
H1644 C1648 0.949 . S
C1645 C1646 1.349 . S
C1645 C1647 1.327 . S
C1645 H1668 0.950 . S
C1646 C1645 1.349 . S
C1646 C1658 1.349 . S
C1647 C1645 1.327 . S
C1647 C1663 1.429 . S
C1647 H1669 0.950 . S
C1648 H1644 0.949 . S
C1648 C1656 1.574 . S
C1648 C1664 1.368 . S
H1649 C1657 0.950 . S
H1650 C1655 0.950 . S
H1651 C1656 0.949 . S
H1652 C1658 0.950 . S
H1653 C1659 0.950 . S
H1654 C1660 0.949 . S
C1655 H1650 0.950 . S
C1655 C1657 1.327 . S
C1655 C1661 1.429 . S
C1656 C1648 1.574 . S
C1656 H1651 0.949 . S
C1656 C1662 1.368 . S
C1657 C1641 1.349 . S
C1657 H1649 0.950 . S
C1657 C1655 1.327 . S
C1658 C1646 1.349 . S
C1658 H1652 0.950 . S
C1658 C1659 1.327 . S
C1659 H1653 0.950 . S
C1659 C1658 1.327 . S
C1659 C1663 1.429 . S
C1660 C1643 1.574 . S
C1660 H1654 0.949 . S
C1660 C1664 1.368 . S
C1661 C1642 1.429 . S
C1661 C1655 1.429 . S
C1661 C1662 1.523 . S
C1662 C1643 1.368 . S
C1662 C1656 1.368 . S
C1662 C1661 1.523 . S
C1663 C1647 1.429 . S
C1663 C1659 1.429 . S
C1663 C1664 1.523 . S
C1664 C1648 1.368 . S
C1664 C1660 1.368 . S
C1664 C1663 1.523 . S
H1665 C1640 0.950 . S
H1666 C1642 0.950 . S
H1667 C1643 0.949 . S
H1668 C1645 0.950 . S
H1669 C1647 0.950 . S
C1670 C1671 1.349 . S
C1670 C1672 1.327 . S
C1670 H1695 0.950 . S
C1671 C1670 1.349 . S
C1671 C1687 1.349 . S
C1672 C1670 1.327 . S
C1672 C1691 1.429 . S
C1672 H1696 0.950 . S
C1673 C1690 1.574 . S
C1673 C1692 1.368 . S
C1673 H1697 0.949 . S
H1674 C1678 0.949 . S
C1675 C1676 1.349 . S
C1675 C1677 1.327 . S
C1675 H1698 0.950 . S
C1676 C1675 1.349 . S
C1676 C1688 1.349 . S
C1677 C1675 1.327 . S
C1677 C1693 1.429 . S
C1677 H1699 0.950 . S
C1678 H1674 0.949 . S
C1678 C1686 1.574 . S
C1678 C1694 1.368 . S
H1679 C1687 0.950 . S
H1680 C1685 0.950 . S
H1681 C1686 0.949 . S
H1682 C1688 0.950 . S
H1683 C1689 0.950 . S
H1684 C1690 0.949 . S
C1685 H1680 0.950 . S
C1685 C1687 1.327 . S
C1685 C1691 1.429 . S
C1686 C1678 1.574 . S
C1686 H1681 0.949 . S
C1686 C1692 1.368 . S
C1687 C1671 1.349 . S
C1687 H1679 0.950 . S
C1687 C1685 1.327 . S
C1688 C1676 1.349 . S
C1688 H1682 0.950 . S
C1688 C1689 1.327 . S
C1689 H1683 0.950 . S
C1689 C1688 1.327 . S
C1689 C1693 1.429 . S
C1690 C1673 1.574 . S
C1690 H1684 0.949 . S
C1690 C1694 1.368 . S
C1691 C1672 1.429 . S
C1691 C1685 1.429 . S
C1691 C1692 1.523 . S
C1692 C1673 1.368 . S
C1692 C1686 1.368 . S
C1692 C1691 1.523 . S
C1693 C1677 1.429 . S
C1693 C1689 1.429 . S
C1693 C1694 1.523 . S
C1694 C1678 1.368 . S
C1694 C1690 1.368 . S
C1694 C1693 1.523 . S
H1695 C1670 0.950 . S
H1696 C1672 0.950 . S
H1697 C1673 0.949 . S
H1698 C1675 0.950 . S
H1699 C1677 0.950 . S
C1700 C1701 1.349 . S
C1700 C1702 1.327 . S
C1700 H1725 0.950 . S
C1701 C1700 1.349 . S
C1701 C1717 1.349 . S
C1702 C1700 1.327 . S
C1702 C1721 1.429 . S
C1702 H1726 0.950 . S
C1703 C1720 1.574 . S
C1703 C1722 1.368 . S
C1703 H1727 0.949 . S
H1704 C1708 0.949 . S
C1705 C1706 1.349 . S
C1705 C1707 1.327 . S
C1705 H1728 0.950 . S
C1706 C1705 1.349 . S
C1706 C1718 1.349 . S
C1707 C1705 1.327 . S
C1707 C1723 1.429 . S
C1707 H1729 0.950 . S
C1708 H1704 0.949 . S
C1708 C1716 1.574 . S
C1708 C1724 1.368 . S
H1709 C1717 0.950 . S
H1710 C1715 0.950 . S
H1711 C1716 0.949 . S
H1712 C1718 0.950 . S
H1713 C1719 0.950 . S
H1714 C1720 0.949 . S
C1715 H1710 0.950 . S
C1715 C1717 1.327 . S
C1715 C1721 1.429 . S
C1716 C1708 1.574 . S
C1716 H1711 0.949 . S
C1716 C1722 1.368 . S
C1717 C1701 1.349 . S
C1717 H1709 0.950 . S
C1717 C1715 1.327 . S
C1718 C1706 1.349 . S
C1718 H1712 0.950 . S
C1718 C1719 1.327 . S
C1719 H1713 0.950 . S
C1719 C1718 1.327 . S
C1719 C1723 1.429 . S
C1720 C1703 1.574 . S
C1720 H1714 0.949 . S
C1720 C1724 1.368 . S
C1721 C1702 1.429 . S
C1721 C1715 1.429 . S
C1721 C1722 1.523 . S
C1722 C1703 1.368 . S
C1722 C1716 1.368 . S
C1722 C1721 1.523 . S
C1723 C1707 1.429 . S
C1723 C1719 1.429 . S
C1723 C1724 1.523 . S
C1724 C1708 1.368 . S
C1724 C1720 1.368 . S
C1724 C1723 1.523 . S
H1725 C1700 0.950 . S
H1726 C1702 0.950 . S
H1727 C1703 0.949 . S
H1728 C1705 0.950 . S
H1729 C1707 0.950 . S
C1730 C1731 1.349 . S
C1730 C1732 1.327 . S
C1730 H1755 0.950 . S
C1731 C1730 1.349 . S
C1731 C1747 1.349 . S
C1732 C1730 1.327 . S
C1732 C1751 1.429 . S
C1732 H1756 0.950 . S
C1733 C1750 1.574 . S
C1733 C1752 1.368 . S
C1733 H1757 0.949 . S
H1734 C1738 0.949 . S
C1735 C1736 1.349 . S
C1735 C1737 1.327 . S
C1735 H1758 0.950 . S
C1736 C1735 1.349 . S
C1736 C1748 1.349 . S
C1737 C1735 1.327 . S
C1737 C1753 1.429 . S
C1737 H1759 0.950 . S
C1738 H1734 0.949 . S
C1738 C1746 1.574 . S
C1738 C1754 1.368 . S
H1739 C1747 0.950 . S
H1740 C1745 0.950 . S
H1741 C1746 0.949 . S
H1742 C1748 0.950 . S
H1743 C1749 0.950 . S
H1744 C1750 0.949 . S
C1745 H1740 0.950 . S
C1745 C1747 1.327 . S
C1745 C1751 1.429 . S
C1746 C1738 1.574 . S
C1746 H1741 0.949 . S
C1746 C1752 1.368 . S
C1747 C1731 1.349 . S
C1747 H1739 0.950 . S
C1747 C1745 1.327 . S
C1748 C1736 1.349 . S
C1748 H1742 0.950 . S
C1748 C1749 1.327 . S
C1749 H1743 0.950 . S
C1749 C1748 1.327 . S
C1749 C1753 1.429 . S
C1750 C1733 1.574 . S
C1750 H1744 0.949 . S
C1750 C1754 1.368 . S
C1751 C1732 1.429 . S
C1751 C1745 1.429 . S
C1751 C1752 1.523 . S
C1752 C1733 1.368 . S
C1752 C1746 1.368 . S
C1752 C1751 1.523 . S
C1753 C1737 1.429 . S
C1753 C1749 1.429 . S
C1753 C1754 1.523 . S
C1754 C1738 1.368 . S
C1754 C1750 1.368 . S
C1754 C1753 1.523 . S
H1755 C1730 0.950 . S
H1756 C1732 0.950 . S
H1757 C1733 0.949 . S
H1758 C1735 0.950 . S
H1759 C1737 0.950 . S
C1760 C1761 1.349 . S
C1760 C1762 1.327 . S
C1760 H1785 0.950 . S
C1761 C1760 1.349 . S
C1761 C1777 1.349 . S
C1762 C1760 1.327 . S
C1762 C1781 1.429 . S
C1762 H1786 0.950 . S
C1763 C1780 1.574 . S
C1763 C1782 1.368 . S
C1763 H1787 0.949 . S
H1764 C1768 0.949 . S
C1765 C1766 1.349 . S
C1765 C1767 1.327 . S
C1765 H1788 0.950 . S
C1766 C1765 1.349 . S
C1766 C1778 1.349 . S
C1767 C1765 1.327 . S
C1767 C1783 1.429 . S
C1767 H1789 0.950 . S
C1768 H1764 0.949 . S
C1768 C1776 1.574 . S
C1768 C1784 1.368 . S
H1769 C1777 0.950 . S
H1770 C1775 0.950 . S
H1771 C1776 0.949 . S
H1772 C1778 0.950 . S
H1773 C1779 0.950 . S
H1774 C1780 0.949 . S
C1775 H1770 0.950 . S
C1775 C1777 1.327 . S
C1775 C1781 1.429 . S
C1776 C1768 1.574 . S
C1776 H1771 0.949 . S
C1776 C1782 1.368 . S
C1777 C1761 1.349 . S
C1777 H1769 0.950 . S
C1777 C1775 1.327 . S
C1778 C1766 1.349 . S
C1778 H1772 0.950 . S
C1778 C1779 1.327 . S
C1779 H1773 0.950 . S
C1779 C1778 1.327 . S
C1779 C1783 1.429 . S
C1780 C1763 1.574 . S
C1780 H1774 0.949 . S
C1780 C1784 1.368 . S
C1781 C1762 1.429 . S
C1781 C1775 1.429 . S
C1781 C1782 1.523 . S
C1782 C1763 1.368 . S
C1782 C1776 1.368 . S
C1782 C1781 1.523 . S
C1783 C1767 1.429 . S
C1783 C1779 1.429 . S
C1783 C1784 1.523 . S
C1784 C1768 1.368 . S
C1784 C1780 1.368 . S
C1784 C1783 1.523 . S
H1785 C1760 0.950 . S
H1786 C1762 0.950 . S
H1787 C1763 0.949 . S
H1788 C1765 0.950 . S
H1789 C1767 0.950 . S
C1790 C1791 1.349 . S
C1790 C1792 1.327 . S
C1790 H1815 0.950 . S
C1791 C1790 1.349 . S
C1791 C1807 1.349 . S
C1792 C1790 1.327 . S
C1792 C1811 1.429 . S
C1792 H1816 0.950 . S
C1793 C1810 1.574 . S
C1793 C1812 1.368 . S
C1793 H1817 0.949 . S
H1794 C1798 0.949 . S
C1795 C1796 1.349 . S
C1795 C1797 1.327 . S
C1795 H1818 0.950 . S
C1796 C1795 1.349 . S
C1796 C1808 1.349 . S
C1797 C1795 1.327 . S
C1797 C1813 1.429 . S
C1797 H1819 0.950 . S
C1798 H1794 0.949 . S
C1798 C1806 1.574 . S
C1798 C1814 1.368 . S
H1799 C1807 0.950 . S
H1800 C1805 0.950 . S
H1801 C1806 0.949 . S
H1802 C1808 0.950 . S
H1803 C1809 0.950 . S
H1804 C1810 0.949 . S
C1805 H1800 0.950 . S
C1805 C1807 1.327 . S
C1805 C1811 1.429 . S
C1806 C1798 1.574 . S
C1806 H1801 0.949 . S
C1806 C1812 1.368 . S
C1807 C1791 1.349 . S
C1807 H1799 0.950 . S
C1807 C1805 1.327 . S
C1808 C1796 1.349 . S
C1808 H1802 0.950 . S
C1808 C1809 1.327 . S
C1809 H1803 0.950 . S
C1809 C1808 1.327 . S
C1809 C1813 1.429 . S
C1810 C1793 1.574 . S
C1810 H1804 0.949 . S
C1810 C1814 1.368 . S
C1811 C1792 1.429 . S
C1811 C1805 1.429 . S
C1811 C1812 1.523 . S
C1812 C1793 1.368 . S
C1812 C1806 1.368 . S
C1812 C1811 1.523 . S
C1813 C1797 1.429 . S
C1813 C1809 1.429 . S
C1813 C1814 1.523 . S
C1814 C1798 1.368 . S
C1814 C1810 1.368 . S
C1814 C1813 1.523 . S
H1815 C1790 0.950 . S
H1816 C1792 0.950 . S
H1817 C1793 0.949 . S
H1818 C1795 0.950 . S
H1819 C1797 0.950 . S
C1820 C1821 1.349 . S
C1820 C1822 1.327 . S
C1820 H1845 0.950 . S
C1821 C1820 1.349 . S
C1821 C1837 1.349 . S
C1822 C1820 1.327 . S
C1822 C1841 1.429 . S
C1822 H1846 0.950 . S
C1823 C1840 1.574 . S
C1823 C1842 1.368 . S
C1823 H1847 0.949 . S
H1824 C1828 0.949 . S
C1825 C1826 1.349 . S
C1825 C1827 1.327 . S
C1825 H1848 0.950 . S
C1826 C1825 1.349 . S
C1826 C1838 1.349 . S
C1827 C1825 1.327 . S
C1827 C1843 1.429 . S
C1827 H1849 0.950 . S
C1828 H1824 0.949 . S
C1828 C1836 1.574 . S
C1828 C1844 1.368 . S
H1829 C1837 0.950 . S
H1830 C1835 0.950 . S
H1831 C1836 0.949 . S
H1832 C1838 0.950 . S
H1833 C1839 0.950 . S
H1834 C1840 0.949 . S
C1835 H1830 0.950 . S
C1835 C1837 1.327 . S
C1835 C1841 1.429 . S
C1836 C1828 1.574 . S
C1836 H1831 0.949 . S
C1836 C1842 1.368 . S
C1837 C1821 1.349 . S
C1837 H1829 0.950 . S
C1837 C1835 1.327 . S
C1838 C1826 1.349 . S
C1838 H1832 0.950 . S
C1838 C1839 1.327 . S
C1839 H1833 0.950 . S
C1839 C1838 1.327 . S
C1839 C1843 1.429 . S
C1840 C1823 1.574 . S
C1840 H1834 0.949 . S
C1840 C1844 1.368 . S
C1841 C1822 1.429 . S
C1841 C1835 1.429 . S
C1841 C1842 1.523 . S
C1842 C1823 1.368 . S
C1842 C1836 1.368 . S
C1842 C1841 1.523 . S
C1843 C1827 1.429 . S
C1843 C1839 1.429 . S
C1843 C1844 1.523 . S
C1844 C1828 1.368 . S
C1844 C1840 1.368 . S
C1844 C1843 1.523 . S
H1845 C1820 0.950 . S
H1846 C1822 0.950 . S
H1847 C1823 0.949 . S
H1848 C1825 0.950 . S
H1849 C1827 0.950 . S
C1850 C1851 1.349 . S
C1850 C1852 1.327 . S
C1850 H1875 0.950 . S
C1851 C1850 1.349 . S
C1851 C1867 1.349 . S
C1852 C1850 1.327 . S
C1852 C1871 1.429 . S
C1852 H1876 0.950 . S
C1853 C1870 1.574 . S
C1853 C1872 1.368 . S
C1853 H1877 0.949 . S
H1854 C1858 0.949 . S
C1855 C1856 1.349 . S
C1855 C1857 1.327 . S
C1855 H1878 0.950 . S
C1856 C1855 1.349 . S
C1856 C1868 1.349 . S
C1857 C1855 1.327 . S
C1857 C1873 1.429 . S
C1857 H1879 0.950 . S
C1858 H1854 0.949 . S
C1858 C1866 1.574 . S
C1858 C1874 1.368 . S
H1859 C1867 0.950 . S
H1860 C1865 0.950 . S
H1861 C1866 0.949 . S
H1862 C1868 0.950 . S
H1863 C1869 0.950 . S
H1864 C1870 0.949 . S
C1865 H1860 0.950 . S
C1865 C1867 1.327 . S
C1865 C1871 1.429 . S
C1866 C1858 1.574 . S
C1866 H1861 0.949 . S
C1866 C1872 1.368 . S
C1867 C1851 1.349 . S
C1867 H1859 0.950 . S
C1867 C1865 1.327 . S
C1868 C1856 1.349 . S
C1868 H1862 0.950 . S
C1868 C1869 1.327 . S
C1869 H1863 0.950 . S
C1869 C1868 1.327 . S
C1869 C1873 1.429 . S
C1870 C1853 1.574 . S
C1870 H1864 0.949 . S
C1870 C1874 1.368 . S
C1871 C1852 1.429 . S
C1871 C1865 1.429 . S
C1871 C1872 1.523 . S
C1872 C1853 1.368 . S
C1872 C1866 1.368 . S
C1872 C1871 1.523 . S
C1873 C1857 1.429 . S
C1873 C1869 1.429 . S
C1873 C1874 1.523 . S
C1874 C1858 1.368 . S
C1874 C1870 1.368 . S
C1874 C1873 1.523 . S
H1875 C1850 0.950 . S
H1876 C1852 0.950 . S
H1877 C1853 0.949 . S
H1878 C1855 0.950 . S
H1879 C1857 0.950 . S
C1880 C1881 1.349 . S
C1880 C1882 1.327 . S
C1880 H1905 0.950 . S
C1881 C1880 1.349 . S
C1881 C1897 1.349 . S
C1882 C1880 1.327 . S
C1882 C1901 1.429 . S
C1882 H1906 0.950 . S
C1883 C1900 1.574 . S
C1883 C1902 1.368 . S
C1883 H1907 0.949 . S
H1884 C1888 0.949 . S
C1885 C1886 1.349 . S
C1885 C1887 1.327 . S
C1885 H1908 0.950 . S
C1886 C1885 1.349 . S
C1886 C1898 1.349 . S
C1887 C1885 1.327 . S
C1887 C1903 1.429 . S
C1887 H1909 0.950 . S
C1888 H1884 0.949 . S
C1888 C1896 1.574 . S
C1888 C1904 1.368 . S
H1889 C1897 0.950 . S
H1890 C1895 0.950 . S
H1891 C1896 0.949 . S
H1892 C1898 0.950 . S
H1893 C1899 0.950 . S
H1894 C1900 0.949 . S
C1895 H1890 0.950 . S
C1895 C1897 1.327 . S
C1895 C1901 1.429 . S
C1896 C1888 1.574 . S
C1896 H1891 0.949 . S
C1896 C1902 1.368 . S
C1897 C1881 1.349 . S
C1897 H1889 0.950 . S
C1897 C1895 1.327 . S
C1898 C1886 1.349 . S
C1898 H1892 0.950 . S
C1898 C1899 1.327 . S
C1899 H1893 0.950 . S
C1899 C1898 1.327 . S
C1899 C1903 1.429 . S
C1900 C1883 1.574 . S
C1900 H1894 0.949 . S
C1900 C1904 1.368 . S
C1901 C1882 1.429 . S
C1901 C1895 1.429 . S
C1901 C1902 1.523 . S
C1902 C1883 1.368 . S
C1902 C1896 1.368 . S
C1902 C1901 1.523 . S
C1903 C1887 1.429 . S
C1903 C1899 1.429 . S
C1903 C1904 1.523 . S
C1904 C1888 1.368 . S
C1904 C1900 1.368 . S
C1904 C1903 1.523 . S
H1905 C1880 0.950 . S
H1906 C1882 0.950 . S
H1907 C1883 0.949 . S
H1908 C1885 0.950 . S
H1909 C1887 0.950 . S
C1910 C1911 1.349 . S
C1910 C1912 1.327 . S
C1910 H1935 0.950 . S
C1911 C1910 1.349 . S
C1911 C1927 1.349 . S
C1912 C1910 1.327 . S
C1912 C1931 1.429 . S
C1912 H1936 0.950 . S
C1913 C1930 1.574 . S
C1913 C1932 1.368 . S
C1913 H1937 0.949 . S
H1914 C1918 0.949 . S
C1915 C1916 1.349 . S
C1915 C1917 1.327 . S
C1915 H1938 0.950 . S
C1916 C1915 1.349 . S
C1916 C1928 1.349 . S
C1917 C1915 1.327 . S
C1917 C1933 1.429 . S
C1917 H1939 0.950 . S
C1918 H1914 0.949 . S
C1918 C1926 1.574 . S
C1918 C1934 1.368 . S
H1919 C1927 0.950 . S
H1920 C1925 0.950 . S
H1921 C1926 0.949 . S
H1922 C1928 0.950 . S
H1923 C1929 0.950 . S
H1924 C1930 0.949 . S
C1925 H1920 0.950 . S
C1925 C1927 1.327 . S
C1925 C1931 1.429 . S
C1926 C1918 1.574 . S
C1926 H1921 0.949 . S
C1926 C1932 1.368 . S
C1927 C1911 1.349 . S
C1927 H1919 0.950 . S
C1927 C1925 1.327 . S
C1928 C1916 1.349 . S
C1928 H1922 0.950 . S
C1928 C1929 1.327 . S
C1929 H1923 0.950 . S
C1929 C1928 1.327 . S
C1929 C1933 1.429 . S
C1930 C1913 1.574 . S
C1930 H1924 0.949 . S
C1930 C1934 1.368 . S
C1931 C1912 1.429 . S
C1931 C1925 1.429 . S
C1931 C1932 1.523 . S
C1932 C1913 1.368 . S
C1932 C1926 1.368 . S
C1932 C1931 1.523 . S
C1933 C1917 1.429 . S
C1933 C1929 1.429 . S
C1933 C1934 1.523 . S
C1934 C1918 1.368 . S
C1934 C1930 1.368 . S
C1934 C1933 1.523 . S
H1935 C1910 0.950 . S
H1936 C1912 0.950 . S
H1937 C1913 0.949 . S
H1938 C1915 0.950 . S
H1939 C1917 0.950 . S
C1940 C1941 1.349 . S
C1940 C1942 1.327 . S
C1940 H1965 0.950 . S
C1941 C1940 1.349 . S
C1941 C1957 1.349 . S
C1942 C1940 1.327 . S
C1942 C1961 1.429 . S
C1942 H1966 0.950 . S
C1943 C1960 1.574 . S
C1943 C1962 1.368 . S
C1943 H1967 0.949 . S
H1944 C1948 0.949 . S
C1945 C1946 1.349 . S
C1945 C1947 1.327 . S
C1945 H1968 0.950 . S
C1946 C1945 1.349 . S
C1946 C1958 1.349 . S
C1947 C1945 1.327 . S
C1947 C1963 1.429 . S
C1947 H1969 0.950 . S
C1948 H1944 0.949 . S
C1948 C1956 1.574 . S
C1948 C1964 1.368 . S
H1949 C1957 0.950 . S
H1950 C1955 0.950 . S
H1951 C1956 0.949 . S
H1952 C1958 0.950 . S
H1953 C1959 0.950 . S
H1954 C1960 0.949 . S
C1955 H1950 0.950 . S
C1955 C1957 1.327 . S
C1955 C1961 1.429 . S
C1956 C1948 1.574 . S
C1956 H1951 0.949 . S
C1956 C1962 1.368 . S
C1957 C1941 1.349 . S
C1957 H1949 0.950 . S
C1957 C1955 1.327 . S
C1958 C1946 1.349 . S
C1958 H1952 0.950 . S
C1958 C1959 1.327 . S
C1959 H1953 0.950 . S
C1959 C1958 1.327 . S
C1959 C1963 1.429 . S
C1960 C1943 1.574 . S
C1960 H1954 0.949 . S
C1960 C1964 1.368 . S
C1961 C1942 1.429 . S
C1961 C1955 1.429 . S
C1961 C1962 1.523 . S
C1962 C1943 1.368 . S
C1962 C1956 1.368 . S
C1962 C1961 1.523 . S
C1963 C1947 1.429 . S
C1963 C1959 1.429 . S
C1963 C1964 1.523 . S
C1964 C1948 1.368 . S
C1964 C1960 1.368 . S
C1964 C1963 1.523 . S
H1965 C1940 0.950 . S
H1966 C1942 0.950 . S
H1967 C1943 0.949 . S
H1968 C1945 0.950 . S
H1969 C1947 0.950 . S
C1970 C1971 1.349 . S
C1970 C1972 1.327 . S
C1970 H1995 0.950 . S
C1971 C1970 1.349 . S
C1971 C1987 1.349 . S
C1972 C1970 1.327 . S
C1972 C1991 1.429 . S
C1972 H1996 0.950 . S
C1973 C1990 1.574 . S
C1973 C1992 1.368 . S
C1973 H1997 0.949 . S
H1974 C1978 0.949 . S
C1975 C1976 1.349 . S
C1975 C1977 1.327 . S
C1975 H1998 0.950 . S
C1976 C1975 1.349 . S
C1976 C1988 1.349 . S
C1977 C1975 1.327 . S
C1977 C1993 1.429 . S
C1977 H1999 0.950 . S
C1978 H1974 0.949 . S
C1978 C1986 1.574 . S
C1978 C1994 1.368 . S
H1979 C1987 0.950 . S
H1980 C1985 0.950 . S
H1981 C1986 0.949 . S
H1982 C1988 0.950 . S
H1983 C1989 0.950 . S
H1984 C1990 0.949 . S
C1985 H1980 0.950 . S
C1985 C1987 1.327 . S
C1985 C1991 1.429 . S
C1986 C1978 1.574 . S
C1986 H1981 0.949 . S
C1986 C1992 1.368 . S
C1987 C1971 1.349 . S
C1987 H1979 0.950 . S
C1987 C1985 1.327 . S
C1988 C1976 1.349 . S
C1988 H1982 0.950 . S
C1988 C1989 1.327 . S
C1989 H1983 0.950 . S
C1989 C1988 1.327 . S
C1989 C1993 1.429 . S
C1990 C1973 1.574 . S
C1990 H1984 0.949 . S
C1990 C1994 1.368 . S
C1991 C1972 1.429 . S
C1991 C1985 1.429 . S
C1991 C1992 1.523 . S
C1992 C1973 1.368 . S
C1992 C1986 1.368 . S
C1992 C1991 1.523 . S
C1993 C1977 1.429 . S
C1993 C1989 1.429 . S
C1993 C1994 1.523 . S
C1994 C1978 1.368 . S
C1994 C1990 1.368 . S
C1994 C1993 1.523 . S
H1995 C1970 0.950 . S
H1996 C1972 0.950 . S
H1997 C1973 0.949 . S
H1998 C1975 0.950 . S
H1999 C1977 0.950 . S
C1046 C961 1.496 . S
C1041 C11 0.944 . S
C1071 C143 1.136 . S
C1076 C993 1.407 . S
C1101 C283 1.139 . S
C1106 C1016 1.561 . S
C1136 C920 1.344 . S
C1131 C343 1.075 . S
C1166 C1003 1.405 . S
C1161 C55 1.101 . S
C1196 C1032 1.185 . S
C1191 C115 1.048 . S
C1226 C936 1.345 . S
C1221 C239 0.927 . S
C1256 C971 1.269 . S
C1251 C371 1.105 . S
C1281 C29 1.126 . S
C1286 C999 1.252 . S
C1311 C467 0.846 . S
C1316 C974 1.318 . S
C1341 C229 0.984 . S
C1346 C942 1.154 . S
C1376 C1031 1.384 . S
C1371 C625 1.143 . S
C1406 C975 1.301 . S
C1401 C1 1.031 . S
C1431 C511 1.156 . S
C1436 C943 1.522 . S
C1461 C257 1.143 . S
C1466 C1030 1.396 . S
C1496 C998 1.483 . S
C1491 C581 0.893 . S
C1521 C713 1.142 . S
C1526 C1025 1.414 . S
C1551 C485 1.125 . S
C1556 C929 1.393 . S
C1581 C799 1.058 . S
C1586 C952 1.320 . S
C1611 C571 1.060 . S
C1616 C984 1.322 . S
C1646 C939 1.183 . S
C1641 C685 1.053 . S
C1671 C457 1.039 . S
C1676 C968 1.172 . S
C1701 C827 1.089 . S
C1706 C1000 1.261 . S
C1736 C1035 1.250 . S
C1731 C599 1.089 . S
C1761 C695 0.854 . S
C1766 C935 1.340 . S
C1791 C125 0.854 . S
C1796 C1038 1.333 . S
C1821 C853 1.142 . S
C1826 C1006 1.376 . S
C1856 C967 1.404 . S
C1851 C397 1.160 . S
C1886 C1039 1.540 . S
C1881 C739 1.173 . S
C1916 C1007 1.536 . S
C1911 C169 1.168 . S
C1946 C966 1.481 . S
C1941 C809 0.894 . S
C1976 C934 1.505 . S
C1971 C353 0.905 . S
