# Generated by pormake.
# Topology pto, (3,4)-cn, num edge types: 1
# Building blocks:
#     Node 0, Type 0, BuildingBlock: OLANEW_clean_sbu_2, # of connection points: 3
#     Node 1, Type 0, BuildingBlock: OLANEW_clean_sbu_2, # of connection points: 3
#     Node 2, Type 0, BuildingBlock: OLANEW_clean_sbu_2, # of connection points: 3
#     Node 3, Type 0, BuildingBlock: OLANEW_clean_sbu_2, # of connection points: 3
#     Node 4, Type 0, BuildingBlock: OLANEW_clean_sbu_2, # of connection points: 3
#     Node 5, Type 0, BuildingBlock: OLANEW_clean_sbu_2, # of connection points: 3
#     Node 6, Type 0, BuildingBlock: OLANEW_clean_sbu_2, # of connection points: 3
#     Node 7, Type 0, BuildingBlock: OLANEW_clean_sbu_2, # of connection points: 3
#     Node 8, Type 1, BuildingBlock: GIZVER_clean_linker_0, # of connection points: 4
#     Node 9, Type 1, BuildingBlock: GIZVER_clean_linker_0, # of connection points: 4
#     Node 10, Type 1, BuildingBlock: GIZVER_clean_linker_0, # of connection points: 4
#     Node 11, Type 1, BuildingBlock: GIZVER_clean_linker_0, # of connection points: 4
#     Node 12, Type 1, BuildingBlock: GIZVER_clean_linker_0, # of connection points: 4
#     Node 13, Type 1, BuildingBlock: GIZVER_clean_linker_0, # of connection points: 4
#     Edge 14, Type (0, 1), BuildingBlock: XIVTED_clean_linker_0, # of connection points: 2
#     Edge 15, Type (0, 1), BuildingBlock: XIVTED_clean_linker_0, # of connection points: 2
#     Edge 16, Type (0, 1), BuildingBlock: XIVTED_clean_linker_0, # of connection points: 2
#     Edge 17, Type (0, 1), BuildingBlock: XIVTED_clean_linker_0, # of connection points: 2
#     Edge 18, Type (0, 1), BuildingBlock: XIVTED_clean_linker_0, # of connection points: 2
#     Edge 19, Type (0, 1), BuildingBlock: XIVTED_clean_linker_0, # of connection points: 2
#     Edge 20, Type (0, 1), BuildingBlock: XIVTED_clean_linker_0, # of connection points: 2
#     Edge 21, Type (0, 1), BuildingBlock: XIVTED_clean_linker_0, # of connection points: 2
#     Edge 22, Type (0, 1), BuildingBlock: XIVTED_clean_linker_0, # of connection points: 2
#     Edge 23, Type (0, 1), BuildingBlock: XIVTED_clean_linker_0, # of connection points: 2
#     Edge 24, Type (0, 1), BuildingBlock: XIVTED_clean_linker_0, # of connection points: 2
#     Edge 25, Type (0, 1), BuildingBlock: XIVTED_clean_linker_0, # of connection points: 2
#     Edge 26, Type (0, 1), BuildingBlock: XIVTED_clean_linker_0, # of connection points: 2
#     Edge 27, Type (0, 1), BuildingBlock: XIVTED_clean_linker_0, # of connection points: 2
#     Edge 28, Type (0, 1), BuildingBlock: XIVTED_clean_linker_0, # of connection points: 2
#     Edge 29, Type (0, 1), BuildingBlock: XIVTED_clean_linker_0, # of connection points: 2
#     Edge 30, Type (0, 1), BuildingBlock: XIVTED_clean_linker_0, # of connection points: 2
#     Edge 31, Type (0, 1), BuildingBlock: XIVTED_clean_linker_0, # of connection points: 2
#     Edge 32, Type (0, 1), BuildingBlock: XIVTED_clean_linker_0, # of connection points: 2
#     Edge 33, Type (0, 1), BuildingBlock: XIVTED_clean_linker_0, # of connection points: 2
#     Edge 34, Type (0, 1), BuildingBlock: XIVTED_clean_linker_0, # of connection points: 2
#     Edge 35, Type (0, 1), BuildingBlock: XIVTED_clean_linker_0, # of connection points: 2
#     Edge 36, Type (0, 1), BuildingBlock: XIVTED_clean_linker_0, # of connection points: 2
#     Edge 37, Type (0, 1), BuildingBlock: XIVTED_clean_linker_0, # of connection points: 2
# Relax obj value: 0.017
# Max RMSD: 0.161
# Mean RMSD: 0.073
data_MOF--net-pto--node1-OLANEW_clean_sbu_2--node2-GIZVER_clean_linker_0--edge1-XIVTED_clean_linker_0
_symmetry_space_group_name_H-M    P1
_symmetry_Int_Tables_number       1
_symmetry_cell_setting            triclinic
loop_
_symmetry_equiv_pos_as_xyz
'x, y, z'
_cell_length_a     52.325623
_cell_length_b     44.412311
_cell_length_c     31.570777
_cell_angle_alpha  94.178285
_cell_angle_beta   90.130893
_cell_angle_gamma 100.22302
loop_
_atom_site_label
_atom_site_type_symbol
_atom_site_fract_x
_atom_site_fract_y
_atom_site_fract_z
_atom_type_partial_charge
O0 O 0.3282 0.38846 0.16514 0.0
Cd1 Cd 0.28462 0.35791 0.16678 0.0
O2 O 0.31829 0.42775 0.20423 0.0
Cd3 Cd 0.27665 0.40945 0.20627 0.0
O4 O 0.235 0.41055 0.20781 0.0
C5 C 0.22181 0.40802 0.17346 0.0
O6 O 0.23321 0.40284 0.13729 0.0
C7 C 0.33505 0.41484 0.18443 0.0
C8 C 0.28408 0.31902 0.23206 0.0
O9 O 0.28932 0.3101 0.19405 0.0
O10 O 0.27834 0.34584 0.23866 0.0
O11 O 0.33893 0.91617 0.91849 0.0
Cd12 Cd 0.31447 0.95765 0.9337 0.0
O13 O 0.30292 0.88578 0.89744 0.0
Cd14 Cd 0.27598 0.84462 0.87333 0.0
O15 O 0.24192 0.80949 0.85682 0.0
C16 C 0.22713 0.79922 0.88634 0.0
O17 O 0.23311 0.80959 0.92582 0.0
C18 C 0.32731 0.88977 0.90426 0.0
C19 C 0.31298 0.99175 0.86353 0.0
O20 O 0.33129 0.99901 0.89144 0.0
O21 O 0.29527 0.9685 0.86908 0.0
O22 O 0.79837 0.7816 0.17645 0.0
Cd23 Cd 0.78671 0.73265 0.13446 0.0
O24 O 0.78848 0.75864 0.23528 0.0
Cd25 Cd 0.76293 0.71916 0.20322 0.0
O26 O 0.72384 0.69683 0.18178 0.0
C27 C 0.70519 0.70309 0.20457 0.0
O28 O 0.71061 0.72087 0.23972 0.0
C29 C 0.79861 0.78231 0.21677 0.0
C30 C 0.8271 0.69943 0.14074 0.0
O31 O 0.80864 0.69722 0.16756 0.0
O32 O 0.82629 0.71698 0.11047 0.0
O33 O 0.82207 0.35514 0.79011 0.0
Cd34 Cd 0.78104 0.32277 0.76682 0.0
O35 O 0.80401 0.39265 0.81929 0.0
Cd36 Cd 0.76331 0.37294 0.80506 0.0
O37 O 0.72262 0.3786 0.80818 0.0
C38 C 0.7176 0.40452 0.79964 0.0
O39 O 0.73654 0.4253 0.78692 0.0
C40 C 0.8242 0.38144 0.80994 0.0
C41 C 0.7907 0.26897 0.72364 0.0
O42 O 0.79315 0.29416 0.70547 0.0
O43 O 0.7833 0.2689 0.7623 0.0
O44 O 0.78995 0.79014 0.70527 0.0
Cd45 Cd 0.78336 0.7448 0.74625 0.0
O46 O 0.78024 0.82221 0.75665 0.0
Cd47 Cd 0.76093 0.78424 0.79163 0.0
O48 O 0.72345 0.75915 0.81073 0.0
C49 C 0.70379 0.77001 0.79939 0.0
O50 O 0.7075 0.79438 0.77739 0.0
C51 C 0.78851 0.81734 0.71944 0.0
C52 C 0.82943 0.72185 0.75515 0.0
O53 O 0.81484 0.7144 0.72203 0.0
O54 O 0.8223 0.74018 0.78418 0.0
O55 O 0.80275 0.33169 0.21637 0.0
Cd56 Cd 0.75972 0.29941 0.21897 0.0
O57 O 0.79427 0.34392 0.15221 0.0
Cd58 Cd 0.75226 0.3297 0.15727 0.0
O59 O 0.71298 0.34032 0.15772 0.0
C60 C 0.70933 0.36452 0.17918 0.0
O61 O 0.72872 0.38074 0.20193 0.0
C62 C 0.81032 0.34438 0.18266 0.0
C63 C 0.76206 0.24504 0.25664 0.0
O64 O 0.76735 0.24758 0.21731 0.0
O65 O 0.75554 0.26808 0.278 0.0
O66 O 0.31404 0.43947 0.85998 0.0
Cd67 Cd 0.27129 0.40777 0.84058 0.0
O68 O 0.3194 0.47041 0.80803 0.0
Cd69 Cd 0.28788 0.43925 0.77486 0.0
O70 O 0.27782 0.39213 0.7475 0.0
C71 C 0.29253 0.37435 0.75947 0.0
O72 O 0.31117 0.38533 0.78732 0.0
C73 C 0.32726 0.46213 0.84269 0.0
C74 C 0.22831 0.43733 0.83766 0.0
O75 O 0.23655 0.42994 0.87305 0.0
O76 O 0.24062 0.4313 0.804 0.0
O77 O 0.36144 0.76606 0.35576 0.0
Cd78 Cd 0.35008 0.78969 0.42348 0.0
O79 O 0.32089 0.76053 0.33467 0.0
Cd80 Cd 0.28658 0.74584 0.29327 0.0
O81 O 0.24788 0.7276 0.26628 0.0
C82 C 0.22906 0.72276 0.29175 0.0
O83 O 0.2336 0.72946 0.33262 0.0
C84 C 0.34417 0.75731 0.327 0.0
C85 C 0.34484 0.85067 0.41739 0.0
O86 O 0.36702 0.84349 0.42467 0.0
O87 O 0.3251 0.82897 0.41269 0.0
H88 H 0.99336 0.4922 0.13025 0.0
H89 H 0.99387 0.58865 0.12159 0.0
H90 H 0.92868 0.53196 0.1758 0.0
H91 H 0.02151 0.52391 0.0778 0.0
H92 H 0.02565 0.56478 0.0837 0.0
H93 H 0.04597 0.49644 0.12166 0.0
H94 H 0.1049 0.54857 0.20593 0.0
H95 H 0.0496 0.59381 0.14729 0.0
C96 C 0.98437 0.51221 0.13671 0.0
C97 C 0.96 0.50908 0.15597 0.0
C98 C 0.99687 0.54099 0.12477 0.0
C99 C 0.98454 0.5666 0.13166 0.0
C100 C 0.95992 0.56364 0.1503 0.0
C101 C 0.94811 0.53487 0.16304 0.0
C102 C 0.02229 0.5438 0.10163 0.0
C103 C 0.04474 0.54482 0.1321 0.0
C104 C 0.05466 0.51798 0.13848 0.0
C105 C 0.0763 0.5191 0.16537 0.0
C106 C 0.08749 0.54719 0.18662 0.0
C107 C 0.07813 0.57418 0.18013 0.0
C108 C 0.05666 0.57292 0.15296 0.0
H109 H 0.05901 0.63236 0.78258 0.0
H110 H 0.05966 0.53528 0.77067 0.0
H111 H 0.11794 0.59604 0.8469 0.0
H112 H 0.03671 0.59756 0.72159 0.0
H113 H 0.03289 0.5569 0.72308 0.0
H114 H 0.00441 0.62396 0.75223 0.0
H115 H 0.93986 0.57337 0.8153 0.0
H116 H 0.00562 0.53107 0.78186 0.0
C117 C 0.0672 0.61285 0.79128 0.0
C118 C 0.08928 0.61752 0.81792 0.0
C119 C 0.05616 0.58315 0.77463 0.0
C120 C 0.0676 0.55808 0.78452 0.0
C121 C 0.0898 0.56252 0.81098 0.0
C122 C 0.10011 0.59223 0.82814 0.0
C123 C 0.03374 0.57865 0.74332 0.0
C124 C 0.0082 0.57789 0.76573 0.0
C125 C 0.99552 0.60336 0.76674 0.0
C126 C 0.97098 0.60193 0.78521 0.0
C127 C 0.95938 0.57497 0.80314 0.0
C128 C 0.97153 0.54915 0.80184 0.0
C129 C 0.99615 0.55092 0.7835 0.0
H130 H 0.33845 0.17096 0.45119 0.0
H131 H 0.33619 0.17462 0.58774 0.0
H132 H 0.29299 0.22939 0.51966 0.0
H133 H 0.36733 0.1459 0.48878 0.0
H134 H 0.37242 0.15556 0.5444 0.0
H135 H 0.3461 0.09508 0.46522 0.0
H136 H 0.31391 0.03234 0.55663 0.0
H137 H 0.3417 0.12674 0.59682 0.0
C138 C 0.3307 0.17908 0.48082 0.0
C139 C 0.31491 0.20161 0.48088 0.0
C140 C 0.33803 0.16863 0.51933 0.0
C141 C 0.32942 0.18104 0.5579 0.0
C142 C 0.31278 0.20258 0.55826 0.0
C143 C 0.30524 0.21211 0.51956 0.0
C144 C 0.3572 0.14684 0.51967 0.0
C145 C 0.34415 0.11499 0.52951 0.0
C146 C 0.34002 0.09087 0.49738 0.0
C147 C 0.329 0.06101 0.50708 0.0
C148 C 0.32145 0.0556 0.54883 0.0
C149 C 0.3259 0.07918 0.58138 0.0
C150 C 0.33743 0.10877 0.57152 0.0
H151 H 0.47227 0.7577 0.95753 0.0
H152 H 0.46527 0.72912 0.08447 0.0
H153 H 0.39673 0.72947 0.00967 0.0
H154 H 0.50689 0.77423 0.01022 0.0
H155 H 0.50396 0.76203 0.06246 0.0
H156 H 0.52029 0.74087 0.95122 0.0
H157 H 0.5744 0.68674 0.99333 0.0
H158 H 0.5199 0.71696 0.08073 0.0
C159 C 0.46014 0.74783 0.98257 0.0
C160 C 0.43294 0.74416 0.97866 0.0
C161 C 0.47188 0.74191 0.02047 0.0
C162 C 0.45615 0.73131 0.05426 0.0
C163 C 0.42893 0.72717 0.05082 0.0
C164 C 0.41765 0.73207 0.01207 0.0
C165 C 0.50049 0.75375 0.02844 0.0
C166 C 0.51734 0.73021 0.0167 0.0
C167 C 0.52725 0.72809 0.97543 0.0
C168 C 0.54779 0.71215 0.96651 0.0
C169 C 0.55726 0.69692 -0.001 0.0
C170 C 0.5475 0.69845 0.04035 0.0
C171 C 0.52701 0.71457 0.04866 0.0
H172 H 0.82512 0.06209 0.40577 0.0
H173 H 0.84509 0.07445 0.53912 0.0
H174 H 0.78931 0.12293 0.48929 0.0
H175 H 0.86674 0.05012 0.4343 0.0
H176 H 0.87185 0.04994 0.49028 0.0
H177 H 0.85391 0.00154 0.3975 0.0
H178 H 0.81966 0.92361 0.46338 0.0
H179 H 0.83451 0.01296 0.52995 0.0
C180 C 0.82213 0.07202 0.43736 0.0
C181 C 0.8049 0.09291 0.44324 0.0
C182 C 0.83644 0.0649 0.47192 0.0
C183 C 0.83337 0.07878 0.51263 0.0
C184 C 0.81587 0.09913 0.51896 0.0
C185 C 0.80152 0.10568 0.48442 0.0
C186 C 0.85674 0.04488 0.46466 0.0
C187 C 0.84492 0.01126 0.46357 0.0
C188 C 0.84562 0.99206 0.42612 0.0
C189 C 0.83687 0.96035 0.42631 0.0
C190 C 0.82634 0.94817 0.46339 0.0
C191 C 0.82506 0.96686 0.50073 0.0
C192 C 0.83474 0.99843 0.5009 0.0
H193 H 0.52628 0.54221 0.96636 0.0
H194 H 0.53002 0.52588 0.0992 0.0
H195 H 0.45661 0.5274 0.0392 0.0
H196 H 0.56813 0.55571 0.00583 0.0
H197 H 0.56961 0.55152 0.06161 0.0
H198 H 0.57186 0.513 0.95458 0.0
H199 H 0.59659 0.43428 0.00152 0.0
H200 H 0.57088 0.50085 0.08886 0.0
C201 C 0.51684 0.53867 0.99658 0.0
C202 C 0.48979 0.53609 -0.00096 0.0
C203 C 0.53164 0.53613 0.03309 0.0
C204 C 0.51895 0.52938 0.07149 0.0
C205 C 0.49189 0.52663 0.07382 0.0
C206 C 0.47766 0.53091 0.03789 0.0
C207 C 0.56081 0.54027 0.03106 0.0
C208 C 0.56949 0.50978 0.02251 0.0
C209 C 0.5745 0.49926 0.98071 0.0
C210 C 0.58407 0.47178 0.97283 0.0
C211 C 0.58778 0.45453 0.00707 0.0
C212 C 0.58323 0.46477 0.04894 0.0
C213 C 0.5739 0.4924 0.05651 0.0
H214 H 0.19312 0.42224 0.24227 0.0
H215 H 0.0889 0.48108 0.09956 0.0
H216 H 0.18975 0.41017 0.10533 0.0
H217 H 0.09516 0.49733 0.23586 0.0
H218 H 0.11972 0.44575 0.10218 0.0
H219 H 0.15195 0.44085 0.24143 0.0
C220 C 0.18358 0.42312 0.21202 0.0
C221 C 0.19516 0.41508 0.17376 0.0
C222 C 0.114 0.4566 0.13161 0.0
C223 C 0.14799 0.43657 0.17257 0.0
C224 C 0.09619 0.47655 0.13016 0.0
C225 C 0.08972 0.49245 0.16751 0.0
C226 C 0.12545 0.45263 0.17068 0.0
C227 C 0.09998 0.48591 0.20624 0.0
C228 C 0.16003 0.43377 0.21157 0.0
C229 C 0.18172 0.41644 0.13559 0.0
N230 N 0.1176 0.46686 0.20676 0.0
N231 N 0.15903 0.42738 0.13593 0.0
H232 H 0.20556 0.77794 0.80825 0.0
H233 H 0.10699 0.64062 0.89727 0.0
H234 H 0.19524 0.76685 0.9422 0.0
H235 H 0.10473 0.66467 0.76762 0.0
H236 H 0.13774 0.6882 0.91517 0.0
H237 H 0.16777 0.73752 0.79291 0.0
C238 C 0.1953 0.76708 0.83445 0.0
C239 C 0.20372 0.77562 0.87656 0.0
C240 C 0.1302 0.68337 0.88296 0.0
C241 C 0.16044 0.72931 0.85922 0.0
C242 C 0.11263 0.65628 0.8728 0.0
C243 C 0.10342 0.64876 0.83093 0.0
C244 C 0.13898 0.70281 0.85083 0.0
C245 C 0.11127 0.66975 0.80035 0.0
C246 C 0.17364 0.74411 0.82568 0.0
C247 C 0.18954 0.76092 0.90924 0.0
N248 N 0.12893 0.69562 0.81075 0.0
N249 N 0.16875 0.73829 0.89986 0.0
H250 H 0.83636 0.66431 0.20487 0.0
H251 H 0.95555 0.60406 0.09002 0.0
H252 H 0.86722 0.69558 0.08591 0.0
H253 H 0.92961 0.58106 0.2152 0.0
H254 H 0.92546 0.64033 0.08976 0.0
H255 H 0.87164 0.63541 0.21038 0.0
C256 C 0.85058 0.66514 0.1799 0.0
C257 C 0.84871 0.68226 0.14473 0.0
C258 C 0.92655 0.6276 0.11749 0.0
C259 C 0.88928 0.64917 0.15086 0.0
C260 C 0.94393 0.60707 0.11783 0.0
C261 C 0.94498 0.58926 0.15256 0.0
C262 C 0.91 0.63025 0.15203 0.0
C263 C 0.92914 0.5939 0.18743 0.0
C264 C 0.8708 0.6487 0.18314 0.0
C265 C 0.86782 0.68261 0.1135 0.0
N266 N 0.91215 0.61368 0.1861 0.0
N267 N 0.88721 0.66616 0.11717 0.0
H268 H 0.87092 0.37396 0.77519 0.0
H269 H 0.94147 0.53897 0.87214 0.0
H270 H 0.83649 0.43242 0.86498 0.0
H271 H 0.96702 0.49216 0.75982 0.0
H272 H 0.90924 0.49327 0.88312 0.0
H273 H 0.91198 0.41048 0.78242 0.0
C274 C 0.87211 0.39416 0.79702 0.0
C275 C 0.85012 0.40042 0.819 0.0
C276 C 0.92221 0.49281 0.85649 0.0
C277 C 0.89697 0.44214 0.82742 0.0
C278 C 0.94062 0.51886 0.85023 0.0
C279 C 0.95662 0.5196 0.81455 0.0
C280 C 0.91974 0.46728 0.82685 0.0
C281 C 0.95505 0.49267 0.78768 0.0
C282 C 0.89553 0.41502 0.80101 0.0
C283 C 0.85283 0.42691 0.84691 0.0
N284 N 0.9366 0.46775 0.79398 0.0
N285 N 0.87573 0.44691 0.85002 0.0
H286 H 0.27971 0.33463 0.31644 0.0
H287 H 0.30347 0.17591 0.39895 0.0
H288 H 0.2933 0.25982 0.2292 0.0
H289 H 0.31715 0.26272 0.47381 0.0
H290 H 0.29458 0.20302 0.33665 0.0
H291 H 0.28662 0.30466 0.37561 0.0
C292 C 0.28395 0.31178 0.30969 0.0
C293 C 0.28609 0.2998 0.2678 0.0
C294 C 0.29949 0.21595 0.36687 0.0
C295 C 0.29418 0.26532 0.33559 0.0
C296 C 0.30464 0.20056 0.40229 0.0
C297 C 0.31051 0.21695 0.44188 0.0
C298 C 0.30011 0.2478 0.37138 0.0
C299 C 0.31186 0.24891 0.44437 0.0
C300 C 0.28804 0.29472 0.34352 0.0
C301 C 0.29161 0.26998 0.26106 0.0
N302 N 0.30652 0.26316 0.40981 0.0
N303 N 0.29552 0.25371 0.29468 0.0
H304 H 0.31032 0.82752 0.90779 0.0
H305 H 0.45171 0.79923 0.94596 0.0
H306 H 0.37886 0.89462 0.8883 0.0
H307 H 0.38531 0.72566 0.93762 0.0
H308 H 0.42632 0.83148 0.91186 0.0
H309 H 0.3372 0.78786 0.90756 0.0
C310 C 0.33085 0.83381 0.90207 0.0
C311 C 0.34229 0.86449 0.89794 0.0
C312 C 0.41737 0.80808 0.91664 0.0
C313 C 0.3734 0.8193 0.89905 0.0
C314 C 0.43206 0.78935 0.93575 0.0
C315 C 0.42053 0.75974 0.94589 0.0
C316 C 0.39081 0.79745 0.90825 0.0
C317 C 0.3948 0.74867 0.93185 0.0
C318 C 0.34629 0.81113 0.9023 0.0
C319 C 0.36923 0.87132 0.89206 0.0
N320 N 0.38059 0.76778 0.91484 0.0
N321 N 0.38388 0.84902 0.89336 0.0
H322 H 0.80483 0.84174 0.19432 0.0
H323 H 0.86 0.91034 0.4242 0.0
H324 H 0.81755 0.78755 0.29783 0.0
H325 H 0.81878 0.96107 0.34451 0.0
H326 H 0.85577 0.8687 0.36837 0.0
H327 H 0.81993 0.88861 0.24055 0.0
C328 C 0.81113 0.83972 0.22654 0.0
C329 C 0.80976 0.81076 0.24247 0.0
C330 C 0.84795 0.88909 0.36278 0.0
C331 C 0.82727 0.86396 0.29488 0.0
C332 C 0.85045 0.91288 0.3945 0.0
C333 C 0.83933 0.93886 0.38907 0.0
C334 C 0.83423 0.89123 0.32524 0.0
C335 C 0.8275 0.94129 0.34986 0.0
C336 C 0.81963 0.86641 0.25281 0.0
C337 C 0.81805 0.80939 0.28441 0.0
N338 N 0.8249 0.91747 0.31946 0.0
N339 N 0.82643 0.83559 0.30912 0.0
H340 H 0.67362 0.36739 0.82545 0.0
H341 H 0.61489 0.50879 0.92053 0.0
H342 H 0.70339 0.46086 0.79819 0.0
H343 H 0.57805 0.41474 0.93059 0.0
H344 H 0.64235 0.49177 0.86458 0.0
H345 H 0.63441 0.38366 0.85366 0.0
C346 C 0.67176 0.39126 0.82481 0.0
C347 C 0.69206 0.41288 0.81018 0.0
C348 C 0.62785 0.47487 0.87827 0.0
C349 C 0.64729 0.43178 0.84285 0.0
C350 C 0.61194 0.48465 0.90998 0.0
C351 C 0.59451 0.46308 0.93086 0.0
C352 C 0.62649 0.44329 0.86779 0.0
C353 C 0.59168 0.43206 0.91596 0.0
C354 C 0.64931 0.40056 0.84086 0.0
C355 C 0.68841 0.44344 0.80968 0.0
N356 N 0.60792 0.42302 0.88604 0.0
N357 N 0.66669 0.45207 0.8265 0.0
H358 H 0.34863 0.04072 0.84108 0.0
H359 H 0.28314 0.04326 0.61257 0.0
H360 H 0.27693 0.9821 0.79875 0.0
H361 H 0.35722 0.0978 0.65156 0.0
H362 H 0.27781 0.02553 0.68402 0.0
H363 H 0.34947 0.06655 0.77523 0.0
C364 C 0.33296 0.03342 0.81808 0.0
C365 C 0.31279 0.00902 0.82527 0.0
C366 C 0.29511 0.04163 0.67711 0.0
C367 C 0.31366 0.03848 0.7498 0.0
C368 C 0.29817 0.05172 0.63632 0.0
C369 C 0.32075 0.07182 0.626 0.0
C370 C 0.31485 0.05158 0.70782 0.0
C371 C 0.33943 0.08244 0.65817 0.0
C372 C 0.33345 0.04819 0.78048 0.0
C373 C 0.29296 0.00065 0.79443 0.0
N374 N 0.33618 0.07193 0.69751 0.0
N375 N 0.29398 0.01522 0.75794 0.0
H376 H 0.66199 0.72147 0.23875 0.0
H377 H 0.57042 0.64724 0.04188 0.0
H378 H 0.68612 0.66412 0.13559 0.0
H379 H 0.56038 0.72881 0.11842 0.0
H380 H 0.60579 0.64123 0.08968 0.0
H381 H 0.61823 0.71226 0.20773 0.0
C382 C 0.65803 0.70655 0.20992 0.0
C383 C 0.67791 0.69399 0.18931 0.0
C384 C 0.59541 0.66002 0.09644 0.0
C385 C 0.62776 0.68326 0.15387 0.0
C386 C 0.57519 0.66347 0.06927 0.0
C387 C 0.56275 0.68902 0.07545 0.0
C388 C 0.60302 0.68205 0.13034 0.0
C389 C 0.56935 0.70882 0.11211 0.0
C390 C 0.63303 0.70134 0.19226 0.0
C391 C 0.6715 0.67464 0.15222 0.0
N392 N 0.5893 0.7052 0.13776 0.0
N393 N 0.64702 0.6701 0.13544 0.0
H394 H 0.76867 0.20924 0.73378 0.0
H395 H 0.85534 0.13986 0.5574 0.0
H396 H 0.82575 0.26514 0.66091 0.0
H397 H 0.77436 0.10165 0.57058 0.0
H398 H 0.85133 0.17933 0.61443 0.0
H399 H 0.77696 0.16335 0.69116 0.0
C400 C 0.78314 0.21177 0.7092 0.0
C401 C 0.79639 0.24094 0.70044 0.0
C402 C 0.83463 0.16183 0.60546 0.0
C403 C 0.80635 0.18889 0.65286 0.0
C404 C 0.83697 0.13922 0.57336 0.0
C405 C 0.81515 0.11759 0.55961 0.0
C406 C 0.81041 0.16244 0.62419 0.0
C407 C 0.79159 0.11799 0.58059 0.0
C408 C 0.7878 0.18569 0.685 0.0
C409 C 0.81492 0.24307 0.66828 0.0
N410 N 0.78977 0.14023 0.61184 0.0
N411 N 0.81943 0.21737 0.64572 0.0
H412 H 0.37765 0.39151 0.15665 0.0
H413 H 0.4586 0.55383 0.12329 0.0
H414 H 0.3544 0.47537 0.20704 0.0
H415 H 0.49032 0.47085 0.10451 0.0
H416 H 0.42344 0.52659 0.16439 0.0
H417 H 0.4212 0.42008 0.14576 0.0
C418 C 0.38176 0.41589 0.1658 0.0
C419 C 0.3622 0.43116 0.18208 0.0
C420 C 0.43849 0.51448 0.15246 0.0
C421 C 0.41205 0.46407 0.16953 0.0
C422 C 0.45866 0.53014 0.12938 0.0
C423 C 0.47723 0.51445 0.11057 0.0
C424 C 0.43658 0.48277 0.15572 0.0
C425 C 0.47637 0.48371 0.11874 0.0
C426 C 0.40671 0.43218 0.15983 0.0
C427 C 0.36878 0.4627 0.19395 0.0
N428 N 0.45597 0.46861 0.13984 0.0
N429 N 0.39302 0.4782 0.18676 0.0
H430 H 0.85859 0.72211 0.82745 0.0
H431 H 0.96065 0.62922 0.71386 0.0
H432 H 0.85509 0.69257 0.69394 0.0
H433 H 0.94563 0.6299 0.84811 0.0
H434 H 0.92885 0.66302 0.70627 0.0
H435 H 0.89691 0.69817 0.83539 0.0
C436 C 0.866 0.71083 0.79974 0.0
C437 C 0.85349 0.7091 0.76003 0.0
C438 C 0.9328 0.65611 0.73748 0.0
C439 C 0.89742 0.68199 0.76886 0.0
C440 C 0.95112 0.63712 0.74188 0.0
C441 C 0.95568 0.62675 0.78165 0.0
C442 C 0.91917 0.66501 0.77318 0.0
C443 C 0.94253 0.6373 0.81686 0.0
C444 C 0.88783 0.69714 0.80434 0.0
C445 C 0.86397 0.6942 0.72522 0.0
N446 N 0.92478 0.65574 0.81179 0.0
N447 N 0.88531 0.6812 0.73045 0.0
H448 H 0.83684 0.36017 0.11087 0.0
H449 H 0.93734 0.491 0.22994 0.0
H450 H 0.8445 0.36845 0.24753 0.0
H451 H 0.94769 0.45873 0.10013 0.0
H452 H 0.90496 0.44478 0.23842 0.0
H453 H 0.87855 0.39458 0.10653 0.0
C454 C 0.84747 0.36895 0.13997 0.0
C455 C 0.83706 0.3617 0.17964 0.0
C456 C 0.91472 0.44744 0.20836 0.0
C457 C 0.88468 0.40144 0.17493 0.0
C458 C 0.93318 0.47376 0.20357 0.0
C459 C 0.94506 0.4786 0.16427 0.0
C460 C 0.90767 0.42622 0.17328 0.0
C461 C 0.93901 0.45572 0.13098 0.0
C462 C 0.87134 0.38849 0.13746 0.0
C463 C 0.85177 0.37353 0.21629 0.0
N464 N 0.92034 0.43077 0.13598 0.0
N465 N 0.87463 0.39329 0.2131 0.0
H466 H 0.20093 0.4592 0.90356 0.0
H467 H 0.10294 0.52121 0.75006 0.0
H468 H 0.20285 0.44903 0.76664 0.0
H469 H 0.11107 0.54752 0.88433 0.0
H470 H 0.13401 0.4867 0.75746 0.0
H471 H 0.16331 0.48474 0.89858 0.0
C472 C 0.1934 0.46223 0.87247 0.0
C473 C 0.2052 0.4522 0.83546 0.0
C474 C 0.12876 0.49974 0.78542 0.0
C475 C 0.16206 0.48113 0.82955 0.0
C476 C 0.11079 0.51918 0.78129 0.0
C477 C 0.10454 0.5374 0.8166 0.0
C478 C 0.14051 0.49844 0.82516 0.0
C479 C 0.1156 0.53412 0.85621 0.0
C480 C 0.17192 0.47678 0.86966 0.0
C481 C 0.19453 0.45662 0.79602 0.0
N482 N 0.13321 0.51524 0.85937 0.0
N483 N 0.17363 0.4708 0.79412 0.0
H484 H 0.18705 0.70057 0.33894 0.0
H485 H 0.10075 0.62283 0.13722 0.0
H486 H 0.2114 0.70997 0.20927 0.0
H487 H 0.09111 0.59142 0.26314 0.0
H488 H 0.13451 0.66537 0.16511 0.0
H489 H 0.14549 0.67072 0.31294 0.0
C490 C 0.18358 0.69667 0.30498 0.0
C491 C 0.20291 0.70742 0.27623 0.0
C492 C 0.12461 0.64953 0.18676 0.0
C493 C 0.15528 0.6734 0.24635 0.0
C494 C 0.10519 0.62551 0.17097 0.0
C495 C 0.09328 0.60369 0.19801 0.0
C496 C 0.13192 0.65173 0.22988 0.0
C497 C 0.09995 0.60782 0.24135 0.0
C498 C 0.15984 0.6796 0.2902 0.0
C499 C 0.19719 0.7018 0.23258 0.0
N500 N 0.119 0.63121 0.25591 0.0
N501 N 0.17395 0.68499 0.21895 0.0
H502 H 0.80458 0.87897 0.74104 0.0
H503 H 0.78109 0.92458 0.50788 0.0
H504 H 0.78407 0.81322 0.63353 0.0
H505 H 0.84672 0.97473 0.58126 0.0
H506 H 0.77096 0.89059 0.56528 0.0
H507 H 0.81105 0.92048 0.69212 0.0
C508 C 0.8015 0.87331 0.70724 0.0
C509 C 0.79397 0.84265 0.69116 0.0
C510 C 0.78731 0.90938 0.56906 0.0
C511 C 0.80035 0.88967 0.63597 0.0
C512 C 0.79306 0.92881 0.53649 0.0
C513 C 0.81512 0.95204 0.53948 0.0
C514 C 0.80348 0.91342 0.60519 0.0
C515 C 0.82962 0.95696 0.57765 0.0
C516 C 0.80515 0.89691 0.67957 0.0
C517 C 0.79014 0.83648 0.64721 0.0
N518 N 0.82374 0.93746 0.60903 0.0
N519 N 0.79311 0.8598 0.62122 0.0
H520 H 0.69819 0.41977 0.21075 0.0
H521 H 0.57379 0.40323 0.05938 0.0
H522 H 0.66506 0.33715 0.13497 0.0
H523 H 0.61465 0.4895 0.11665 0.0
H524 H 0.59951 0.37624 0.10331 0.0
H525 H 0.66092 0.44268 0.19207 0.0
C526 C 0.68289 0.40623 0.19073 0.0
C527 C 0.68501 0.37667 0.17373 0.0
C528 C 0.60248 0.40106 0.107 0.0
C529 C 0.64229 0.40283 0.15227 0.0
C530 C 0.5877 0.41645 0.08212 0.0
C531 C 0.59242 0.44863 0.08393 0.0
C532 C 0.62223 0.41798 0.13369 0.0
C533 C 0.61045 0.46467 0.11419 0.0
C534 C 0.66162 0.41937 0.18007 0.0
C535 C 0.66446 0.36017 0.14828 0.0
N536 N 0.62509 0.44919 0.1373 0.0
N537 N 0.64412 0.37361 0.13792 0.0
H538 H 0.25568 0.34321 0.70261 0.0
H539 H 0.34417 0.22379 0.62767 0.0
H540 H 0.32562 0.33418 0.76961 0.0
H541 H 0.26597 0.21859 0.58014 0.0
H542 H 0.33548 0.25976 0.68561 0.0
H543 H 0.25678 0.2943 0.66244 0.0
C544 C 0.27109 0.33077 0.70923 0.0
C545 C 0.29083 0.34305 0.73898 0.0
C546 C 0.32004 0.25033 0.66298 0.0
C547 C 0.29232 0.28719 0.69297 0.0
C548 C 0.32493 0.22954 0.63001 0.0
C549 C 0.30591 0.21856 0.5985 0.0
C550 C 0.2961 0.26053 0.66412 0.0
C551 C 0.28142 0.22712 0.60312 0.0
C552 C 0.27167 0.30279 0.68639 0.0
C553 C 0.31017 0.32578 0.7466 0.0
N554 N 0.27737 0.24806 0.63479 0.0
N555 N 0.31066 0.29897 0.72327 0.0
H556 H 0.323 0.76204 0.24886 0.0
H557 H 0.43422 0.69386 0.12021 0.0
H558 H 0.38363 0.72581 0.30994 0.0
H559 H 0.38681 0.75413 0.0709 0.0
H560 H 0.41011 0.69481 0.18678 0.0
H561 H 0.33984 0.74738 0.17982 0.0
C562 C 0.33937 0.75017 0.24778 0.0
C563 C 0.35179 0.7449 0.28518 0.0
C564 C 0.40481 0.70735 0.16093 0.0
C565 C 0.3717 0.72891 0.20626 0.0
C566 C 0.4186 0.70691 0.123 0.0
C567 C 0.4126 0.72379 0.0895 0.0
C568 C 0.3848 0.72463 0.16528 0.0
C569 C 0.39193 0.74007 0.09502 0.0
C570 C 0.34921 0.74217 0.20833 0.0
C571 C 0.37355 0.73039 0.28178 0.0
N572 N 0.37893 0.74014 0.13209 0.0
N573 N 0.38294 0.72306 0.24299 0.0
H574 H 0.7893 0.20006 0.22986 0.0
H575 H 0.75611 0.10695 0.436 0.0
H576 H 0.73985 0.22574 0.33037 0.0
H577 H 0.8275 0.10803 0.36739 0.0
H578 H 0.7419 0.13922 0.38437 0.0
H579 H 0.79569 0.15576 0.26823 0.0
C580 C 0.77952 0.19615 0.25969 0.0
C581 C 0.76425 0.21676 0.27726 0.0
C582 C 0.76047 0.13191 0.38028 0.0
C583 C 0.77117 0.16609 0.32073 0.0
C584 C 0.7686 0.11349 0.40966 0.0
C585 C 0.7933 0.10529 0.40662 0.0
C586 C 0.777 0.14197 0.3473 0.0
C587 C 0.80835 0.11379 0.37116 0.0
C588 C 0.78321 0.17094 0.28151 0.0
C589 C 0.75203 0.21062 0.31597 0.0
N590 N 0.80011 0.13204 0.34316 0.0
N591 N 0.75579 0.18588 0.33645 0.0
H592 H 0.36016 0.43402 0.88531 0.0
H593 H 0.45671 0.57384 0.97752 0.0
H594 H 0.35356 0.5214 0.839 0.0
H595 H 0.4829 0.48978 0.93745 0.0
H596 H 0.41841 0.5582 0.93044 0.0
H597 H 0.40392 0.45572 0.91168 0.0
C598 C 0.36787 0.45788 0.88101 0.0
C599 C 0.35318 0.47605 0.86029 0.0
C600 C 0.43303 0.54374 0.93087 0.0
C601 C 0.40324 0.50095 0.89038 0.0
C602 C 0.45491 0.55274 0.95736 0.0
C603 C 0.47295 0.5331 0.96091 0.0
C604 C 0.42893 0.51454 0.9092 0.0
C605 C 0.46953 0.50564 0.93511 0.0
C606 C 0.39295 0.4701 0.89553 0.0
C607 C 0.3643 0.50672 0.85498 0.0
N608 N 0.44752 0.49674 0.91116 0.0
N609 N 0.38862 0.51845 0.87062 0.0
H610 H 0.38324 0.90134 0.41754 0.0
H611 H 0.2881 0.01519 0.48467 0.0
H612 H 0.29984 0.87411 0.41603 0.0
H613 H 0.36943 0.04535 0.4615 0.0
H614 H 0.29092 0.96484 0.45001 0.0
H615 H 0.37807 0.95504 0.42504 0.0
C616 C 0.36382 0.90666 0.41834 0.0
C617 C 0.34194 0.88318 0.41683 0.0
C618 C 0.30804 0.98264 0.45154 0.0
C619 C 0.33587 0.94466 0.42567 0.0
C620 C 0.30638 0.01139 0.47114 0.0
C621 C 0.32861 0.03427 0.47612 0.0
C622 C 0.33224 0.97657 0.43763 0.0
C623 C 0.35184 0.02829 0.45817 0.0
C624 C 0.36088 0.93736 0.42245 0.0
C625 C 0.31726 0.89145 0.41751 0.0
N626 N 0.3532 0.99979 0.44048 0.0
N627 N 0.3149 0.92149 0.42254 0.0
H628 H 0.68739 0.71558 0.8354 0.0
H629 H 0.56021 0.76441 0.92382 0.0
H630 H 0.66 0.79529 0.79533 0.0
H631 H 0.57174 0.67034 0.92013 0.0
H632 H 0.59464 0.77501 0.87254 0.0
H633 H 0.64444 0.69752 0.8642 0.0
C634 C 0.6723 0.72914 0.83233 0.0
C635 C 0.67739 0.75718 0.81343 0.0
C636 C 0.58929 0.75188 0.88227 0.0
C637 C 0.62831 0.73677 0.84646 0.0
C638 C 0.56935 0.74566 0.91134 0.0
C639 C 0.56327 0.71651 0.92712 0.0
C640 C 0.60362 0.72899 0.86945 0.0
C641 C 0.57623 0.69339 0.90982 0.0
C642 C 0.64774 0.71874 0.84852 0.0
C643 C 0.65701 0.77366 0.80994 0.0
N644 N 0.59622 0.70029 0.88274 0.0
N645 N 0.63351 0.76346 0.82691 0.0
loop_
_geom_bond_atom_site_label_1
_geom_bond_atom_site_label_2
_geom_bond_distance
_geom_bond_site_symmetry_2
_ccdc_geom_bond_type
O0 Cd1 2.300 . S
O0 C7 1.275 . S
Cd1 O0 2.300 . S
Cd1 O9 2.381 . S
Cd1 O10 2.378 . S
O2 Cd3 2.385 . S
O2 C7 1.255 . S
Cd3 O2 2.385 . S
Cd3 O4 2.317 . S
O4 Cd3 2.317 . S
O4 C5 1.232 . S
C5 O4 1.232 . S
C5 O6 1.218 . S
O6 C5 1.218 . S
C7 O0 1.275 . S
C7 O2 1.255 . S
C8 O9 1.258 . S
C8 O10 1.256 . S
O9 Cd1 2.381 . S
O9 C8 1.258 . S
O10 Cd1 2.378 . S
O10 C8 1.256 . S
O11 Cd12 2.300 . S
O11 C18 1.275 . S
Cd12 O11 2.300 . S
Cd12 O20 2.381 . S
Cd12 O21 2.378 . S
O13 Cd14 2.385 . S
O13 C18 1.255 . S
Cd14 O13 2.385 . S
Cd14 O15 2.317 . S
O15 Cd14 2.317 . S
O15 C16 1.232 . S
C16 O15 1.232 . S
C16 O17 1.218 . S
O17 C16 1.218 . S
C18 O11 1.275 . S
C18 O13 1.255 . S
C19 O20 1.258 . S
C19 O21 1.256 . S
O20 Cd12 2.381 . S
O20 C19 1.258 . S
O21 Cd12 2.378 . S
O21 C19 1.256 . S
O22 Cd23 2.300 . S
O22 C29 1.275 . S
Cd23 O22 2.300 . S
Cd23 O31 2.381 . S
Cd23 O32 2.378 . S
O24 Cd25 2.385 . S
O24 C29 1.255 . S
Cd25 O24 2.385 . S
Cd25 O26 2.317 . S
O26 Cd25 2.317 . S
O26 C27 1.232 . S
C27 O26 1.232 . S
C27 O28 1.218 . S
O28 C27 1.218 . S
C29 O22 1.275 . S
C29 O24 1.255 . S
C30 O31 1.258 . S
C30 O32 1.256 . S
O31 Cd23 2.381 . S
O31 C30 1.258 . S
O32 Cd23 2.378 . S
O32 C30 1.256 . S
O33 Cd34 2.300 . S
O33 C40 1.275 . S
Cd34 O33 2.300 . S
Cd34 O42 2.381 . S
Cd34 O43 2.378 . S
O35 Cd36 2.385 . S
O35 C40 1.255 . S
Cd36 O35 2.385 . S
Cd36 O37 2.317 . S
O37 Cd36 2.317 . S
O37 C38 1.232 . S
C38 O37 1.232 . S
C38 O39 1.218 . S
O39 C38 1.218 . S
C40 O33 1.275 . S
C40 O35 1.255 . S
C41 O42 1.258 . S
C41 O43 1.256 . S
O42 Cd34 2.381 . S
O42 C41 1.258 . S
O43 Cd34 2.378 . S
O43 C41 1.256 . S
O44 Cd45 2.300 . S
O44 C51 1.275 . S
Cd45 O44 2.300 . S
Cd45 O53 2.381 . S
Cd45 O54 2.378 . S
O46 Cd47 2.385 . S
O46 C51 1.255 . S
Cd47 O46 2.385 . S
Cd47 O48 2.317 . S
O48 Cd47 2.317 . S
O48 C49 1.232 . S
C49 O48 1.232 . S
C49 O50 1.218 . S
O50 C49 1.218 . S
C51 O44 1.275 . S
C51 O46 1.255 . S
C52 O53 1.258 . S
C52 O54 1.256 . S
O53 Cd45 2.381 . S
O53 C52 1.258 . S
O54 Cd45 2.378 . S
O54 C52 1.256 . S
O55 Cd56 2.300 . S
O55 C62 1.275 . S
Cd56 O55 2.300 . S
Cd56 O64 2.381 . S
Cd56 O65 2.378 . S
O57 Cd58 2.385 . S
O57 C62 1.255 . S
Cd58 O57 2.385 . S
Cd58 O59 2.317 . S
O59 Cd58 2.317 . S
O59 C60 1.232 . S
C60 O59 1.232 . S
C60 O61 1.218 . S
O61 C60 1.218 . S
C62 O55 1.275 . S
C62 O57 1.255 . S
C63 O64 1.258 . S
C63 O65 1.256 . S
O64 Cd56 2.381 . S
O64 C63 1.258 . S
O65 Cd56 2.378 . S
O65 C63 1.256 . S
O66 Cd67 2.300 . S
O66 C73 1.275 . S
Cd67 O66 2.300 . S
Cd67 O75 2.381 . S
Cd67 O76 2.378 . S
O68 Cd69 2.385 . S
O68 C73 1.255 . S
Cd69 O68 2.385 . S
Cd69 O70 2.317 . S
O70 Cd69 2.317 . S
O70 C71 1.232 . S
C71 O70 1.232 . S
C71 O72 1.218 . S
O72 C71 1.218 . S
C73 O66 1.275 . S
C73 O68 1.255 . S
C74 O75 1.258 . S
C74 O76 1.256 . S
O75 Cd67 2.381 . S
O75 C74 1.258 . S
O76 Cd67 2.378 . S
O76 C74 1.256 . S
O77 Cd78 2.300 . S
O77 C84 1.275 . S
Cd78 O77 2.300 . S
Cd78 O86 2.381 . S
Cd78 O87 2.378 . S
O79 Cd80 2.385 . S
O79 C84 1.255 . S
Cd80 O79 2.385 . S
Cd80 O81 2.317 . S
O81 Cd80 2.317 . S
O81 C82 1.232 . S
C82 O81 1.232 . S
C82 O83 1.218 . S
O83 C82 1.218 . S
C84 O77 1.275 . S
C84 O79 1.255 . S
C85 O86 1.258 . S
C85 O87 1.256 . S
O86 Cd78 2.381 . S
O86 C85 1.258 . S
O87 Cd78 2.378 . S
O87 C85 1.256 . S
H88 C96 0.930 . S
H89 C99 0.930 . S
H90 C101 0.930 . S
H91 C102 0.970 . S
H92 C102 0.970 . S
H93 C104 0.930 . S
H94 C106 0.930 . S
H95 C108 0.930 . S
C96 H88 0.930 . S
C96 C97 1.382 1_455 S
C96 C98 1.426 . S
C97 C96 1.382 1_655 S
C97 C101 1.389 . S
C98 C96 1.426 . S
C98 C99 1.375 . S
C98 C102 1.532 . S
C99 H89 0.930 . S
C99 C98 1.375 . S
C99 C100 1.416 1_455 S
C100 C99 1.416 1_655 S
C100 C101 1.371 . S
C101 H90 0.930 . S
C101 C97 1.389 . S
C101 C100 1.371 . S
C102 H91 0.970 . S
C102 H92 0.970 . S
C102 C98 1.532 . S
C102 C103 1.499 . S
C103 C102 1.499 . S
C103 C104 1.370 . S
C103 C108 1.415 . S
C104 H93 0.930 . S
C104 C103 1.370 . S
C104 C105 1.407 . S
C105 C104 1.407 . S
C105 C106 1.365 . S
C106 H94 0.930 . S
C106 C105 1.365 . S
C106 C107 1.393 . S
C107 C106 1.393 . S
C107 C108 1.387 . S
C108 H95 0.930 . S
C108 C103 1.415 . S
C108 C107 1.387 . S
H109 C117 0.930 . S
H110 C120 0.930 . S
H111 C122 0.930 . S
H112 C123 0.970 . S
H113 C123 0.970 . S
H114 C125 0.930 . S
H115 C127 0.930 . S
H116 C129 0.930 . S
C117 H109 0.930 . S
C117 C118 1.382 . S
C117 C119 1.426 . S
C118 C117 1.382 . S
C118 C122 1.389 . S
C119 C117 1.426 . S
C119 C120 1.375 . S
C119 C123 1.532 . S
C120 H110 0.930 . S
C120 C119 1.375 . S
C120 C121 1.416 . S
C121 C120 1.416 . S
C121 C122 1.371 . S
C122 H111 0.930 . S
C122 C118 1.389 . S
C122 C121 1.371 . S
C123 H112 0.970 . S
C123 H113 0.970 . S
C123 C119 1.532 . S
C123 C124 1.499 1_455 S
C124 C123 1.499 1_655 S
C124 C125 1.370 . S
C124 C129 1.415 . S
C125 H114 0.930 . S
C125 C124 1.370 . S
C125 C126 1.407 . S
C126 C125 1.407 . S
C126 C127 1.365 . S
C127 H115 0.930 . S
C127 C126 1.365 . S
C127 C128 1.393 . S
C128 C127 1.393 . S
C128 C129 1.387 . S
C129 H116 0.930 . S
C129 C124 1.415 . S
C129 C128 1.387 . S
H130 C138 0.930 . S
H131 C141 0.930 . S
H132 C143 0.930 . S
H133 C144 0.970 . S
H134 C144 0.970 . S
H135 C146 0.930 . S
H136 C148 0.930 . S
H137 C150 0.930 . S
C138 H130 0.930 . S
C138 C139 1.382 . S
C138 C140 1.426 . S
C139 C138 1.382 . S
C139 C143 1.389 . S
C140 C138 1.426 . S
C140 C141 1.375 . S
C140 C144 1.532 . S
C141 H131 0.930 . S
C141 C140 1.375 . S
C141 C142 1.416 . S
C142 C141 1.416 . S
C142 C143 1.371 . S
C143 H132 0.930 . S
C143 C139 1.389 . S
C143 C142 1.371 . S
C144 H133 0.970 . S
C144 H134 0.970 . S
C144 C140 1.532 . S
C144 C145 1.499 . S
C145 C144 1.499 . S
C145 C146 1.370 . S
C145 C150 1.415 . S
C146 H135 0.930 . S
C146 C145 1.370 . S
C146 C147 1.407 . S
C147 C146 1.407 . S
C147 C148 1.365 . S
C148 H136 0.930 . S
C148 C147 1.365 . S
C148 C149 1.393 . S
C149 C148 1.393 . S
C149 C150 1.387 . S
C150 H137 0.930 . S
C150 C145 1.415 . S
C150 C149 1.387 . S
H151 C159 0.930 . S
H152 C162 0.930 . S
H153 C164 0.930 . S
H154 C165 0.970 1_556 S
H155 C165 0.970 . S
H156 C167 0.930 . S
H157 C169 0.930 . S
H158 C171 0.930 . S
C159 H151 0.930 . S
C159 C160 1.382 . S
C159 C161 1.426 1_556 S
C160 C159 1.382 . S
C160 C164 1.389 1_556 S
C161 C159 1.426 1_554 S
C161 C162 1.375 . S
C161 C165 1.532 . S
C162 H152 0.930 . S
C162 C161 1.375 . S
C162 C163 1.416 . S
C163 C162 1.416 . S
C163 C164 1.371 . S
C164 H153 0.930 . S
C164 C160 1.389 1_554 S
C164 C163 1.371 . S
C165 H154 0.970 1_554 S
C165 H155 0.970 . S
C165 C161 1.532 . S
C165 C166 1.499 . S
C166 C165 1.499 . S
C166 C167 1.370 1_554 S
C166 C171 1.415 . S
C167 H156 0.930 . S
C167 C166 1.370 1_556 S
C167 C168 1.407 . S
C168 C167 1.407 . S
C168 C169 1.365 . S
C169 H157 0.930 . S
C169 C168 1.365 . S
C169 C170 1.393 1_556 S
C170 C169 1.393 1_554 S
C170 C171 1.387 . S
C171 H158 0.930 . S
C171 C166 1.415 . S
C171 C170 1.387 . S
H172 C180 0.930 . S
H173 C183 0.930 . S
H174 C185 0.930 . S
H175 C186 0.970 . S
H176 C186 0.970 . S
H177 C188 0.930 . S
H178 C190 0.930 . S
H179 C192 0.930 . S
C180 H172 0.930 . S
C180 C181 1.382 . S
C180 C182 1.426 . S
C181 C180 1.382 . S
C181 C185 1.389 . S
C182 C180 1.426 . S
C182 C183 1.375 . S
C182 C186 1.532 . S
C183 H173 0.930 . S
C183 C182 1.375 . S
C183 C184 1.416 . S
C184 C183 1.416 . S
C184 C185 1.371 . S
C185 H174 0.930 . S
C185 C181 1.389 . S
C185 C184 1.371 . S
C186 H175 0.970 . S
C186 H176 0.970 . S
C186 C182 1.532 . S
C186 C187 1.499 1_545 S
C187 C186 1.499 1_565 S
C187 C188 1.370 . S
C187 C192 1.415 . S
C188 H177 0.930 . S
C188 C187 1.370 . S
C188 C189 1.407 . S
C189 C188 1.407 . S
C189 C190 1.365 . S
C190 H178 0.930 . S
C190 C189 1.365 . S
C190 C191 1.393 . S
C191 C190 1.393 . S
C191 C192 1.387 . S
C192 H179 0.930 . S
C192 C187 1.415 . S
C192 C191 1.387 . S
H193 C201 0.930 . S
H194 C204 0.930 . S
H195 C206 0.930 . S
H196 C207 0.970 . S
H197 C207 0.970 . S
H198 C209 0.930 . S
H199 C211 0.930 . S
H200 C213 0.930 . S
C201 H193 0.930 . S
C201 C202 1.382 . S
C201 C203 1.426 1_556 S
C202 C201 1.382 . S
C202 C206 1.389 1_556 S
C203 C201 1.426 1_554 S
C203 C204 1.375 . S
C203 C207 1.532 . S
C204 H194 0.930 . S
C204 C203 1.375 . S
C204 C205 1.416 . S
C205 C204 1.416 . S
C205 C206 1.371 . S
C206 H195 0.930 . S
C206 C202 1.389 1_554 S
C206 C205 1.371 . S
C207 H196 0.970 . S
C207 H197 0.970 . S
C207 C203 1.532 . S
C207 C208 1.499 . S
C208 C207 1.499 . S
C208 C209 1.370 1_554 S
C208 C213 1.415 . S
C209 H198 0.930 . S
C209 C208 1.370 1_556 S
C209 C210 1.407 . S
C210 C209 1.407 . S
C210 C211 1.365 1_556 S
C211 H199 0.930 . S
C211 C210 1.365 1_554 S
C211 C212 1.393 . S
C212 C211 1.393 . S
C212 C213 1.387 . S
C213 H200 0.930 . S
C213 C208 1.415 . S
C213 C212 1.387 . S
H214 C220 0.930 . S
H215 C224 0.930 . S
H216 C229 0.929 . S
H217 C227 0.929 . S
H218 C222 0.929 . S
H219 C228 0.929 . S
C220 H214 0.930 . S
C220 C221 1.367 . S
C220 C228 1.378 . S
C221 C220 1.367 . S
C221 C229 1.433 . S
C222 H218 0.929 . S
C222 C224 1.378 . S
C222 C226 1.350 . S
C223 C226 1.463 . S
C223 C228 1.350 . S
C223 N231 1.427 . S
C224 H215 0.930 . S
C224 C222 1.378 . S
C224 C225 1.367 . S
C225 C224 1.367 . S
C225 C227 1.433 . S
C226 C222 1.350 . S
C226 C223 1.463 . S
C226 N230 1.427 . S
C227 H217 0.929 . S
C227 C225 1.433 . S
C227 N230 1.384 . S
C228 H219 0.929 . S
C228 C220 1.378 . S
C228 C223 1.350 . S
C229 H216 0.929 . S
C229 C221 1.433 . S
C229 N231 1.384 . S
N230 C226 1.427 . S
N230 C227 1.384 . S
N231 C223 1.427 . S
N231 C229 1.384 . S
H232 C238 0.930 . S
H233 C242 0.930 . S
H234 C247 0.929 . S
H235 C245 0.929 . S
H236 C240 0.929 . S
H237 C246 0.929 . S
C238 H232 0.930 . S
C238 C239 1.367 . S
C238 C246 1.378 . S
C239 C238 1.367 . S
C239 C247 1.433 . S
C240 H236 0.929 . S
C240 C242 1.378 . S
C240 C244 1.350 . S
C241 C244 1.463 . S
C241 C246 1.350 . S
C241 N249 1.427 . S
C242 H233 0.930 . S
C242 C240 1.378 . S
C242 C243 1.367 . S
C243 C242 1.367 . S
C243 C245 1.433 . S
C244 C240 1.350 . S
C244 C241 1.463 . S
C244 N248 1.427 . S
C245 H235 0.929 . S
C245 C243 1.433 . S
C245 N248 1.384 . S
C246 H237 0.929 . S
C246 C238 1.378 . S
C246 C241 1.350 . S
C247 H234 0.929 . S
C247 C239 1.433 . S
C247 N249 1.384 . S
N248 C244 1.427 . S
N248 C245 1.384 . S
N249 C241 1.427 . S
N249 C247 1.384 . S
H250 C256 0.930 . S
H251 C260 0.930 . S
H252 C265 0.929 . S
H253 C263 0.929 . S
H254 C258 0.929 . S
H255 C264 0.929 . S
C256 H250 0.930 . S
C256 C257 1.367 . S
C256 C264 1.378 . S
C257 C256 1.367 . S
C257 C265 1.433 . S
C258 H254 0.929 . S
C258 C260 1.378 . S
C258 C262 1.350 . S
C259 C262 1.463 . S
C259 C264 1.350 . S
C259 N267 1.427 . S
C260 H251 0.930 . S
C260 C258 1.378 . S
C260 C261 1.367 . S
C261 C260 1.367 . S
C261 C263 1.433 . S
C262 C258 1.350 . S
C262 C259 1.463 . S
C262 N266 1.427 . S
C263 H253 0.929 . S
C263 C261 1.433 . S
C263 N266 1.384 . S
C264 H255 0.929 . S
C264 C256 1.378 . S
C264 C259 1.350 . S
C265 H252 0.929 . S
C265 C257 1.433 . S
C265 N267 1.384 . S
N266 C262 1.427 . S
N266 C263 1.384 . S
N267 C259 1.427 . S
N267 C265 1.384 . S
H268 C274 0.930 . S
H269 C278 0.930 . S
H270 C283 0.929 . S
H271 C281 0.929 . S
H272 C276 0.929 . S
H273 C282 0.929 . S
C274 H268 0.930 . S
C274 C275 1.367 . S
C274 C282 1.378 . S
C275 C274 1.367 . S
C275 C283 1.433 . S
C276 H272 0.929 . S
C276 C278 1.378 . S
C276 C280 1.350 . S
C277 C280 1.463 . S
C277 C282 1.350 . S
C277 N285 1.427 . S
C278 H269 0.930 . S
C278 C276 1.378 . S
C278 C279 1.367 . S
C279 C278 1.367 . S
C279 C281 1.433 . S
C280 C276 1.350 . S
C280 C277 1.463 . S
C280 N284 1.427 . S
C281 H271 0.929 . S
C281 C279 1.433 . S
C281 N284 1.384 . S
C282 H273 0.929 . S
C282 C274 1.378 . S
C282 C277 1.350 . S
C283 H270 0.929 . S
C283 C275 1.433 . S
C283 N285 1.384 . S
N284 C280 1.427 . S
N284 C281 1.384 . S
N285 C277 1.427 . S
N285 C283 1.384 . S
H286 C292 0.930 . S
H287 C296 0.930 . S
H288 C301 0.929 . S
H289 C299 0.929 . S
H290 C294 0.929 . S
H291 C300 0.929 . S
C292 H286 0.930 . S
C292 C293 1.367 . S
C292 C300 1.378 . S
C293 C292 1.367 . S
C293 C301 1.433 . S
C294 H290 0.929 . S
C294 C296 1.378 . S
C294 C298 1.350 . S
C295 C298 1.463 . S
C295 C300 1.350 . S
C295 N303 1.427 . S
C296 H287 0.930 . S
C296 C294 1.378 . S
C296 C297 1.367 . S
C297 C296 1.367 . S
C297 C299 1.433 . S
C298 C294 1.350 . S
C298 C295 1.463 . S
C298 N302 1.427 . S
C299 H289 0.929 . S
C299 C297 1.433 . S
C299 N302 1.384 . S
C300 H291 0.929 . S
C300 C292 1.378 . S
C300 C295 1.350 . S
C301 H288 0.929 . S
C301 C293 1.433 . S
C301 N303 1.384 . S
N302 C298 1.427 . S
N302 C299 1.384 . S
N303 C295 1.427 . S
N303 C301 1.384 . S
H304 C310 0.930 . S
H305 C314 0.930 . S
H306 C319 0.929 . S
H307 C317 0.929 . S
H308 C312 0.929 . S
H309 C318 0.929 . S
C310 H304 0.930 . S
C310 C311 1.367 . S
C310 C318 1.378 . S
C311 C310 1.367 . S
C311 C319 1.433 . S
C312 H308 0.929 . S
C312 C314 1.378 . S
C312 C316 1.350 . S
C313 C316 1.463 . S
C313 C318 1.350 . S
C313 N321 1.427 . S
C314 H305 0.930 . S
C314 C312 1.378 . S
C314 C315 1.367 . S
C315 C314 1.367 . S
C315 C317 1.433 . S
C316 C312 1.350 . S
C316 C313 1.463 . S
C316 N320 1.427 . S
C317 H307 0.929 . S
C317 C315 1.433 . S
C317 N320 1.384 . S
C318 H309 0.929 . S
C318 C310 1.378 . S
C318 C313 1.350 . S
C319 H306 0.929 . S
C319 C311 1.433 . S
C319 N321 1.384 . S
N320 C316 1.427 . S
N320 C317 1.384 . S
N321 C313 1.427 . S
N321 C319 1.384 . S
H322 C328 0.930 . S
H323 C332 0.930 . S
H324 C337 0.929 . S
H325 C335 0.929 . S
H326 C330 0.929 . S
H327 C336 0.929 . S
C328 H322 0.930 . S
C328 C329 1.367 . S
C328 C336 1.378 . S
C329 C328 1.367 . S
C329 C337 1.433 . S
C330 H326 0.929 . S
C330 C332 1.378 . S
C330 C334 1.350 . S
C331 C334 1.463 . S
C331 C336 1.350 . S
C331 N339 1.427 . S
C332 H323 0.930 . S
C332 C330 1.378 . S
C332 C333 1.367 . S
C333 C332 1.367 . S
C333 C335 1.433 . S
C334 C330 1.350 . S
C334 C331 1.463 . S
C334 N338 1.427 . S
C335 H325 0.929 . S
C335 C333 1.433 . S
C335 N338 1.384 . S
C336 H327 0.929 . S
C336 C328 1.378 . S
C336 C331 1.350 . S
C337 H324 0.929 . S
C337 C329 1.433 . S
C337 N339 1.384 . S
N338 C334 1.427 . S
N338 C335 1.384 . S
N339 C331 1.427 . S
N339 C337 1.384 . S
H340 C346 0.930 . S
H341 C350 0.930 . S
H342 C355 0.929 . S
H343 C353 0.929 . S
H344 C348 0.929 . S
H345 C354 0.929 . S
C346 H340 0.930 . S
C346 C347 1.367 . S
C346 C354 1.378 . S
C347 C346 1.367 . S
C347 C355 1.433 . S
C348 H344 0.929 . S
C348 C350 1.378 . S
C348 C352 1.350 . S
C349 C352 1.463 . S
C349 C354 1.350 . S
C349 N357 1.427 . S
C350 H341 0.930 . S
C350 C348 1.378 . S
C350 C351 1.367 . S
C351 C350 1.367 . S
C351 C353 1.433 . S
C352 C348 1.350 . S
C352 C349 1.463 . S
C352 N356 1.427 . S
C353 H343 0.929 . S
C353 C351 1.433 . S
C353 N356 1.384 . S
C354 H345 0.929 . S
C354 C346 1.378 . S
C354 C349 1.350 . S
C355 H342 0.929 . S
C355 C347 1.433 . S
C355 N357 1.384 . S
N356 C352 1.427 . S
N356 C353 1.384 . S
N357 C349 1.427 . S
N357 C355 1.384 . S
H358 C364 0.930 . S
H359 C368 0.930 . S
H360 C373 0.929 . S
H361 C371 0.929 . S
H362 C366 0.929 1_565 S
H363 C372 0.929 . S
C364 H358 0.930 . S
C364 C365 1.367 . S
C364 C372 1.378 . S
C365 C364 1.367 . S
C365 C373 1.433 . S
C366 H362 0.929 1_545 S
C366 C368 1.378 . S
C366 C370 1.350 . S
C367 C370 1.463 1_565 S
C367 C372 1.350 . S
C367 N375 1.427 . S
C368 H359 0.930 . S
C368 C366 1.378 . S
C368 C369 1.367 . S
C369 C368 1.367 . S
C369 C371 1.433 . S
C370 C366 1.350 . S
C370 C367 1.463 1_545 S
C370 N374 1.427 . S
C371 H361 0.929 . S
C371 C369 1.433 . S
C371 N374 1.384 . S
C372 H363 0.929 . S
C372 C364 1.378 . S
C372 C367 1.350 . S
C373 H360 0.929 . S
C373 C365 1.433 . S
C373 N375 1.384 . S
N374 C370 1.427 . S
N374 C371 1.384 . S
N375 C367 1.427 . S
N375 C373 1.384 . S
H376 C382 0.930 . S
H377 C386 0.930 . S
H378 C391 0.929 . S
H379 C389 0.929 . S
H380 C384 0.929 . S
H381 C390 0.929 . S
C382 H376 0.930 . S
C382 C383 1.367 . S
C382 C390 1.378 . S
C383 C382 1.367 . S
C383 C391 1.433 . S
C384 H380 0.929 . S
C384 C386 1.378 . S
C384 C388 1.350 . S
C385 C388 1.463 . S
C385 C390 1.350 . S
C385 N393 1.427 . S
C386 H377 0.930 . S
C386 C384 1.378 . S
C386 C387 1.367 . S
C387 C386 1.367 . S
C387 C389 1.433 . S
C388 C384 1.350 . S
C388 C385 1.463 . S
C388 N392 1.427 . S
C389 H379 0.929 . S
C389 C387 1.433 . S
C389 N392 1.384 . S
C390 H381 0.929 . S
C390 C382 1.378 . S
C390 C385 1.350 . S
C391 H378 0.929 . S
C391 C383 1.433 . S
C391 N393 1.384 . S
N392 C388 1.427 . S
N392 C389 1.384 . S
N393 C385 1.427 . S
N393 C391 1.384 . S
H394 C400 0.930 . S
H395 C404 0.930 . S
H396 C409 0.929 . S
H397 C407 0.929 . S
H398 C402 0.929 . S
H399 C408 0.929 . S
C400 H394 0.930 . S
C400 C401 1.367 . S
C400 C408 1.378 . S
C401 C400 1.367 . S
C401 C409 1.433 . S
C402 H398 0.929 . S
C402 C404 1.378 . S
C402 C406 1.350 . S
C403 C406 1.463 . S
C403 C408 1.350 . S
C403 N411 1.427 . S
C404 H395 0.930 . S
C404 C402 1.378 . S
C404 C405 1.367 . S
C405 C404 1.367 . S
C405 C407 1.433 . S
C406 C402 1.350 . S
C406 C403 1.463 . S
C406 N410 1.427 . S
C407 H397 0.929 . S
C407 C405 1.433 . S
C407 N410 1.384 . S
C408 H399 0.929 . S
C408 C400 1.378 . S
C408 C403 1.350 . S
C409 H396 0.929 . S
C409 C401 1.433 . S
C409 N411 1.384 . S
N410 C406 1.427 . S
N410 C407 1.384 . S
N411 C403 1.427 . S
N411 C409 1.384 . S
H412 C418 0.930 . S
H413 C422 0.930 . S
H414 C427 0.929 . S
H415 C425 0.929 . S
H416 C420 0.929 . S
H417 C426 0.929 . S
C418 H412 0.930 . S
C418 C419 1.367 . S
C418 C426 1.378 . S
C419 C418 1.367 . S
C419 C427 1.433 . S
C420 H416 0.929 . S
C420 C422 1.378 . S
C420 C424 1.350 . S
C421 C424 1.463 . S
C421 C426 1.350 . S
C421 N429 1.427 . S
C422 H413 0.930 . S
C422 C420 1.378 . S
C422 C423 1.367 . S
C423 C422 1.367 . S
C423 C425 1.433 . S
C424 C420 1.350 . S
C424 C421 1.463 . S
C424 N428 1.427 . S
C425 H415 0.929 . S
C425 C423 1.433 . S
C425 N428 1.384 . S
C426 H417 0.929 . S
C426 C418 1.378 . S
C426 C421 1.350 . S
C427 H414 0.929 . S
C427 C419 1.433 . S
C427 N429 1.384 . S
N428 C424 1.427 . S
N428 C425 1.384 . S
N429 C421 1.427 . S
N429 C427 1.384 . S
H430 C436 0.930 . S
H431 C440 0.930 . S
H432 C445 0.929 . S
H433 C443 0.929 . S
H434 C438 0.929 . S
H435 C444 0.929 . S
C436 H430 0.930 . S
C436 C437 1.367 . S
C436 C444 1.378 . S
C437 C436 1.367 . S
C437 C445 1.433 . S
C438 H434 0.929 . S
C438 C440 1.378 . S
C438 C442 1.350 . S
C439 C442 1.463 . S
C439 C444 1.350 . S
C439 N447 1.427 . S
C440 H431 0.930 . S
C440 C438 1.378 . S
C440 C441 1.367 . S
C441 C440 1.367 . S
C441 C443 1.433 . S
C442 C438 1.350 . S
C442 C439 1.463 . S
C442 N446 1.427 . S
C443 H433 0.929 . S
C443 C441 1.433 . S
C443 N446 1.384 . S
C444 H435 0.929 . S
C444 C436 1.378 . S
C444 C439 1.350 . S
C445 H432 0.929 . S
C445 C437 1.433 . S
C445 N447 1.384 . S
N446 C442 1.427 . S
N446 C443 1.384 . S
N447 C439 1.427 . S
N447 C445 1.384 . S
H448 C454 0.930 . S
H449 C458 0.930 . S
H450 C463 0.929 . S
H451 C461 0.929 . S
H452 C456 0.929 . S
H453 C462 0.929 . S
C454 H448 0.930 . S
C454 C455 1.367 . S
C454 C462 1.378 . S
C455 C454 1.367 . S
C455 C463 1.433 . S
C456 H452 0.929 . S
C456 C458 1.378 . S
C456 C460 1.350 . S
C457 C460 1.463 . S
C457 C462 1.350 . S
C457 N465 1.427 . S
C458 H449 0.930 . S
C458 C456 1.378 . S
C458 C459 1.367 . S
C459 C458 1.367 . S
C459 C461 1.433 . S
C460 C456 1.350 . S
C460 C457 1.463 . S
C460 N464 1.427 . S
C461 H451 0.929 . S
C461 C459 1.433 . S
C461 N464 1.384 . S
C462 H453 0.929 . S
C462 C454 1.378 . S
C462 C457 1.350 . S
C463 H450 0.929 . S
C463 C455 1.433 . S
C463 N465 1.384 . S
N464 C460 1.427 . S
N464 C461 1.384 . S
N465 C457 1.427 . S
N465 C463 1.384 . S
H466 C472 0.930 . S
H467 C476 0.930 . S
H468 C481 0.929 . S
H469 C479 0.929 . S
H470 C474 0.929 . S
H471 C480 0.929 . S
C472 H466 0.930 . S
C472 C473 1.367 . S
C472 C480 1.378 . S
C473 C472 1.367 . S
C473 C481 1.433 . S
C474 H470 0.929 . S
C474 C476 1.378 . S
C474 C478 1.350 . S
C475 C478 1.463 . S
C475 C480 1.350 . S
C475 N483 1.427 . S
C476 H467 0.930 . S
C476 C474 1.378 . S
C476 C477 1.367 . S
C477 C476 1.367 . S
C477 C479 1.433 . S
C478 C474 1.350 . S
C478 C475 1.463 . S
C478 N482 1.427 . S
C479 H469 0.929 . S
C479 C477 1.433 . S
C479 N482 1.384 . S
C480 H471 0.929 . S
C480 C472 1.378 . S
C480 C475 1.350 . S
C481 H468 0.929 . S
C481 C473 1.433 . S
C481 N483 1.384 . S
N482 C478 1.427 . S
N482 C479 1.384 . S
N483 C475 1.427 . S
N483 C481 1.384 . S
H484 C490 0.930 . S
H485 C494 0.930 . S
H486 C499 0.929 . S
H487 C497 0.929 . S
H488 C492 0.929 . S
H489 C498 0.929 . S
C490 H484 0.930 . S
C490 C491 1.367 . S
C490 C498 1.378 . S
C491 C490 1.367 . S
C491 C499 1.433 . S
C492 H488 0.929 . S
C492 C494 1.378 . S
C492 C496 1.350 . S
C493 C496 1.463 . S
C493 C498 1.350 . S
C493 N501 1.427 . S
C494 H485 0.930 . S
C494 C492 1.378 . S
C494 C495 1.367 . S
C495 C494 1.367 . S
C495 C497 1.433 . S
C496 C492 1.350 . S
C496 C493 1.463 . S
C496 N500 1.427 . S
C497 H487 0.929 . S
C497 C495 1.433 . S
C497 N500 1.384 . S
C498 H489 0.929 . S
C498 C490 1.378 . S
C498 C493 1.350 . S
C499 H486 0.929 . S
C499 C491 1.433 . S
C499 N501 1.384 . S
N500 C496 1.427 . S
N500 C497 1.384 . S
N501 C493 1.427 . S
N501 C499 1.384 . S
H502 C508 0.930 . S
H503 C512 0.930 . S
H504 C517 0.929 . S
H505 C515 0.929 . S
H506 C510 0.929 . S
H507 C516 0.929 . S
C508 H502 0.930 . S
C508 C509 1.367 . S
C508 C516 1.378 . S
C509 C508 1.367 . S
C509 C517 1.433 . S
C510 H506 0.929 . S
C510 C512 1.378 . S
C510 C514 1.350 . S
C511 C514 1.463 . S
C511 C516 1.350 . S
C511 N519 1.427 . S
C512 H503 0.930 . S
C512 C510 1.378 . S
C512 C513 1.367 . S
C513 C512 1.367 . S
C513 C515 1.433 . S
C514 C510 1.350 . S
C514 C511 1.463 . S
C514 N518 1.427 . S
C515 H505 0.929 . S
C515 C513 1.433 . S
C515 N518 1.384 . S
C516 H507 0.929 . S
C516 C508 1.378 . S
C516 C511 1.350 . S
C517 H504 0.929 . S
C517 C509 1.433 . S
C517 N519 1.384 . S
N518 C514 1.427 . S
N518 C515 1.384 . S
N519 C511 1.427 . S
N519 C517 1.384 . S
H520 C526 0.930 . S
H521 C530 0.930 . S
H522 C535 0.929 . S
H523 C533 0.929 . S
H524 C528 0.929 . S
H525 C534 0.929 . S
C526 H520 0.930 . S
C526 C527 1.367 . S
C526 C534 1.378 . S
C527 C526 1.367 . S
C527 C535 1.433 . S
C528 H524 0.929 . S
C528 C530 1.378 . S
C528 C532 1.350 . S
C529 C532 1.463 . S
C529 C534 1.350 . S
C529 N537 1.427 . S
C530 H521 0.930 . S
C530 C528 1.378 . S
C530 C531 1.367 . S
C531 C530 1.367 . S
C531 C533 1.433 . S
C532 C528 1.350 . S
C532 C529 1.463 . S
C532 N536 1.427 . S
C533 H523 0.929 . S
C533 C531 1.433 . S
C533 N536 1.384 . S
C534 H525 0.929 . S
C534 C526 1.378 . S
C534 C529 1.350 . S
C535 H522 0.929 . S
C535 C527 1.433 . S
C535 N537 1.384 . S
N536 C532 1.427 . S
N536 C533 1.384 . S
N537 C529 1.427 . S
N537 C535 1.384 . S
H538 C544 0.930 . S
H539 C548 0.930 . S
H540 C553 0.929 . S
H541 C551 0.929 . S
H542 C546 0.929 . S
H543 C552 0.929 . S
C544 H538 0.930 . S
C544 C545 1.367 . S
C544 C552 1.378 . S
C545 C544 1.367 . S
C545 C553 1.433 . S
C546 H542 0.929 . S
C546 C548 1.378 . S
C546 C550 1.350 . S
C547 C550 1.463 . S
C547 C552 1.350 . S
C547 N555 1.427 . S
C548 H539 0.930 . S
C548 C546 1.378 . S
C548 C549 1.367 . S
C549 C548 1.367 . S
C549 C551 1.433 . S
C550 C546 1.350 . S
C550 C547 1.463 . S
C550 N554 1.427 . S
C551 H541 0.929 . S
C551 C549 1.433 . S
C551 N554 1.384 . S
C552 H543 0.929 . S
C552 C544 1.378 . S
C552 C547 1.350 . S
C553 H540 0.929 . S
C553 C545 1.433 . S
C553 N555 1.384 . S
N554 C550 1.427 . S
N554 C551 1.384 . S
N555 C547 1.427 . S
N555 C553 1.384 . S
H556 C562 0.930 . S
H557 C566 0.930 . S
H558 C571 0.929 . S
H559 C569 0.929 . S
H560 C564 0.929 . S
H561 C570 0.929 . S
C562 H556 0.930 . S
C562 C563 1.367 . S
C562 C570 1.378 . S
C563 C562 1.367 . S
C563 C571 1.433 . S
C564 H560 0.929 . S
C564 C566 1.378 . S
C564 C568 1.350 . S
C565 C568 1.463 . S
C565 C570 1.350 . S
C565 N573 1.427 . S
C566 H557 0.930 . S
C566 C564 1.378 . S
C566 C567 1.367 . S
C567 C566 1.367 . S
C567 C569 1.433 . S
C568 C564 1.350 . S
C568 C565 1.463 . S
C568 N572 1.427 . S
C569 H559 0.929 . S
C569 C567 1.433 . S
C569 N572 1.384 . S
C570 H561 0.929 . S
C570 C562 1.378 . S
C570 C565 1.350 . S
C571 H558 0.929 . S
C571 C563 1.433 . S
C571 N573 1.384 . S
N572 C568 1.427 . S
N572 C569 1.384 . S
N573 C565 1.427 . S
N573 C571 1.384 . S
H574 C580 0.930 . S
H575 C584 0.930 . S
H576 C589 0.929 . S
H577 C587 0.929 . S
H578 C582 0.929 . S
H579 C588 0.929 . S
C580 H574 0.930 . S
C580 C581 1.367 . S
C580 C588 1.378 . S
C581 C580 1.367 . S
C581 C589 1.433 . S
C582 H578 0.929 . S
C582 C584 1.378 . S
C582 C586 1.350 . S
C583 C586 1.463 . S
C583 C588 1.350 . S
C583 N591 1.427 . S
C584 H575 0.930 . S
C584 C582 1.378 . S
C584 C585 1.367 . S
C585 C584 1.367 . S
C585 C587 1.433 . S
C586 C582 1.350 . S
C586 C583 1.463 . S
C586 N590 1.427 . S
C587 H577 0.929 . S
C587 C585 1.433 . S
C587 N590 1.384 . S
C588 H579 0.929 . S
C588 C580 1.378 . S
C588 C583 1.350 . S
C589 H576 0.929 . S
C589 C581 1.433 . S
C589 N591 1.384 . S
N590 C586 1.427 . S
N590 C587 1.384 . S
N591 C583 1.427 . S
N591 C589 1.384 . S
H592 C598 0.930 . S
H593 C602 0.930 . S
H594 C607 0.929 . S
H595 C605 0.929 . S
H596 C600 0.929 . S
H597 C606 0.929 . S
C598 H592 0.930 . S
C598 C599 1.367 . S
C598 C606 1.378 . S
C599 C598 1.367 . S
C599 C607 1.433 . S
C600 H596 0.929 . S
C600 C602 1.378 . S
C600 C604 1.350 . S
C601 C604 1.463 . S
C601 C606 1.350 . S
C601 N609 1.427 . S
C602 H593 0.930 . S
C602 C600 1.378 . S
C602 C603 1.367 . S
C603 C602 1.367 . S
C603 C605 1.433 . S
C604 C600 1.350 . S
C604 C601 1.463 . S
C604 N608 1.427 . S
C605 H595 0.929 . S
C605 C603 1.433 . S
C605 N608 1.384 . S
C606 H597 0.929 . S
C606 C598 1.378 . S
C606 C601 1.350 . S
C607 H594 0.929 . S
C607 C599 1.433 . S
C607 N609 1.384 . S
N608 C604 1.427 . S
N608 C605 1.384 . S
N609 C601 1.427 . S
N609 C607 1.384 . S
H610 C616 0.930 . S
H611 C620 0.930 . S
H612 C625 0.929 . S
H613 C623 0.929 . S
H614 C618 0.929 . S
H615 C624 0.929 . S
C616 H610 0.930 . S
C616 C617 1.367 . S
C616 C624 1.378 . S
C617 C616 1.367 . S
C617 C625 1.433 . S
C618 H614 0.929 . S
C618 C620 1.378 . S
C618 C622 1.350 1_545 S
C619 C622 1.463 . S
C619 C624 1.350 . S
C619 N627 1.427 . S
C620 H611 0.930 . S
C620 C618 1.378 . S
C620 C621 1.367 . S
C621 C620 1.367 . S
C621 C623 1.433 . S
C622 C618 1.350 1_565 S
C622 C619 1.463 . S
C622 N626 1.427 1_565 S
C623 H613 0.929 . S
C623 C621 1.433 . S
C623 N626 1.384 . S
C624 H615 0.929 . S
C624 C616 1.378 . S
C624 C619 1.350 . S
C625 H612 0.929 . S
C625 C617 1.433 . S
C625 N627 1.384 . S
N626 C622 1.427 1_545 S
N626 C623 1.384 . S
N627 C619 1.427 . S
N627 C625 1.384 . S
H628 C634 0.930 . S
H629 C638 0.930 . S
H630 C643 0.929 . S
H631 C641 0.929 . S
H632 C636 0.929 . S
H633 C642 0.929 . S
C634 H628 0.930 . S
C634 C635 1.367 . S
C634 C642 1.378 . S
C635 C634 1.367 . S
C635 C643 1.433 . S
C636 H632 0.929 . S
C636 C638 1.378 . S
C636 C640 1.350 . S
C637 C640 1.463 . S
C637 C642 1.350 . S
C637 N645 1.427 . S
C638 H629 0.930 . S
C638 C636 1.378 . S
C638 C639 1.367 . S
C639 C638 1.367 . S
C639 C641 1.433 . S
C640 C636 1.350 . S
C640 C637 1.463 . S
C640 N644 1.427 . S
C641 H631 0.929 . S
C641 C639 1.433 . S
C641 N644 1.384 . S
C642 H633 0.929 . S
C642 C634 1.378 . S
C642 C637 1.350 . S
C643 H630 0.929 . S
C643 C635 1.433 . S
C643 N645 1.384 . S
N644 C640 1.427 . S
N644 C641 1.384 . S
N645 C637 1.427 . S
N645 C643 1.384 . S
C225 C105 1.765 . S
C221 C5 1.759 . S
C243 C118 1.391 . S
C239 C16 1.290 . S
C261 C100 1.653 . S
C257 C30 1.731 . S
C279 C128 1.598 . S
C275 C40 1.658 . S
C297 C139 1.436 . S
C293 C8 1.505 . S
C315 C160 1.292 . S
C311 C18 1.370 . S
C329 C29 1.694 . S
C333 C189 1.612 . S
C351 C210 1.640 . S
C347 C38 1.503 . S
C369 C149 1.377 . S
C365 C19 1.416 . S
C383 C27 1.418 . S
C387 C170 1.482 . S
C405 C184 1.475 . S
C401 C41 1.586 . S
C423 C205 1.817 . S
C419 C7 1.807 . S
C437 C52 1.660 . S
C441 C126 1.521 . S
C459 C97 1.866 . S
C455 C62 1.905 . S
C473 C74 1.637 . S
C477 C121 1.411 . S
C491 C82 1.300 . S
C495 C107 1.538 . S
C513 C191 1.735 . S
C509 C51 1.706 . S
C531 C212 1.876 . S
C527 C60 1.677 . S
C549 C142 1.371 . S
C545 C71 1.353 . S
C563 C84 1.488 . S
C567 C163 1.425 . S
C585 C181 1.641 . S
C581 C63 1.716 . S
C603 C202 1.625 . S
C599 C73 1.657 . S
C621 C147 1.471 . S
C617 C85 1.530 . S
C635 C49 1.358 . S
C639 C168 1.476 . S
