# Generated by pormake.
# Topology rtl, (3,6)-cn, num edge types: 1
# Building blocks:
#     Node 0, Type 0, BuildingBlock: MIDCAF_clean_linker_0, # of connection points: 3
#     Node 1, Type 0, BuildingBlock: MIDCAF_clean_linker_0, # of connection points: 3
#     Node 2, Type 0, BuildingBlock: MIDCAF_clean_linker_0, # of connection points: 3
#     Node 3, Type 0, BuildingBlock: MIDCAF_clean_linker_0, # of connection points: 3
#     Node 4, Type 1, BuildingBlock: CIFDUS_clean_sbu_1, # of connection points: 6
#     Node 5, Type 1, BuildingBlock: CIFDUS_clean_sbu_1, # of connection points: 6
#     Edge 6, Type (0, 1), BuildingBlock: FUNLAD_clean_linker_1, # of connection points: 2
#     Edge 7, Type (0, 1), BuildingBlock: FUNLAD_clean_linker_1, # of connection points: 2
#     Edge 8, Type (0, 1), BuildingBlock: FUNLAD_clean_linker_1, # of connection points: 2
#     Edge 9, Type (0, 1), BuildingBlock: FUNLAD_clean_linker_1, # of connection points: 2
#     Edge 10, Type (0, 1), BuildingBlock: FUNLAD_clean_linker_1, # of connection points: 2
#     Edge 11, Type (0, 1), BuildingBlock: FUNLAD_clean_linker_1, # of connection points: 2
#     Edge 12, Type (0, 1), BuildingBlock: FUNLAD_clean_linker_1, # of connection points: 2
#     Edge 13, Type (0, 1), BuildingBlock: FUNLAD_clean_linker_1, # of connection points: 2
#     Edge 14, Type (0, 1), BuildingBlock: FUNLAD_clean_linker_1, # of connection points: 2
#     Edge 15, Type (0, 1), BuildingBlock: FUNLAD_clean_linker_1, # of connection points: 2
#     Edge 16, Type (0, 1), BuildingBlock: FUNLAD_clean_linker_1, # of connection points: 2
#     Edge 17, Type (0, 1), BuildingBlock: FUNLAD_clean_linker_1, # of connection points: 2
# Relax obj value: 0.029
# Max RMSD: 0.064
# Mean RMSD: 0.049
data_MOF--net-rtl--node1-CIFDUS_clean_sbu_1--node2-MIDCAF_clean_linker_0--edge1-FUNLAD_clean_linker_1
_symmetry_space_group_name_H-M    P1
_symmetry_Int_Tables_number       1
_symmetry_cell_setting            triclinic
loop_
_symmetry_equiv_pos_as_xyz
'x, y, z'
_cell_length_a     38.31756
_cell_length_b     43.74925
_cell_length_c     30.552512
_cell_angle_alpha  89.823629
_cell_angle_beta   98.427981
_cell_angle_gamma 90.029077
loop_
_atom_site_label
_atom_site_type_symbol
_atom_site_fract_x
_atom_site_fract_y
_atom_site_fract_z
_atom_type_partial_charge
C0 C 0.15959 0.90462 0.18053 0.0
C1 C 0.17513 0.89892 0.22431 0.0
C2 C 0.20451 0.87929 0.23192 0.0
C3 C 0.21789 0.86574 0.19641 0.0
H4 H 0.28365 0.79619 0.16671 0.0
H5 H 0.32884 0.75676 0.17923 0.0
H6 H 0.33933 0.75885 0.04036 0.0
H7 H 0.29435 0.79839 0.0278 0.0
H8 H 0.24281 0.8444 0.96162 0.0
H9 H 0.21601 0.85779 0.88628 0.0
H10 H 0.11984 0.88322 0.93483 0.0
H11 H 0.1466 0.87035 0.00997 0.0
H12 H 0.16011 0.89609 0.11184 0.0
H13 H 0.1368 0.91946 0.17366 0.0
H14 H 0.21679 0.87362 0.26509 0.0
H15 H 0.24035 0.85057 0.20351 0.0
N16 N 0.24321 0.83654 0.12211 0.0
N17 N 0.24101 0.82968 0.04562 0.0
N18 N 0.20097 0.86271 0.07253 0.0
C19 C 0.25595 0.82298 0.08774 0.0
C20 C 0.21341 0.84943 0.03776 0.0
C21 C 0.21586 0.85657 0.11481 0.0
C22 C 0.28497 0.80027 0.09609 0.0
C23 C 0.29567 0.78834 0.13883 0.0
C24 C 0.32147 0.76547 0.14599 0.0
C25 C 0.33721 0.75415 0.11051 0.0
C26 C 0.32749 0.76696 0.06828 0.0
C27 C 0.30158 0.78957 0.06105 0.0
C28 C 0.19684 0.85631 0.99181 0.0
C29 C 0.21582 0.85255 0.95614 0.0
C30 C 0.20053 0.86018 0.91304 0.0
C31 C 0.16566 0.8709 0.90451 0.0
C32 C 0.14646 0.87423 0.94006 0.0
C33 C 0.16197 0.8672 0.98326 0.0
C34 C 0.20218 0.87139 0.15254 0.0
C35 C 0.17298 0.89115 0.14508 0.0
C36 C 0.6556 0.64199 0.4479 0.0
C37 C 0.65933 0.66037 0.4112 0.0
C38 C 0.67823 0.68797 0.41803 0.0
C39 C 0.69337 0.69667 0.46085 0.0
H40 H 0.76221 0.76 0.53421 0.0
H41 H 0.80655 0.79997 0.54755 0.0
H42 H 0.8342 0.76892 0.68249 0.0
H43 H 0.7899 0.72867 0.6692 0.0
H44 H 0.73849 0.68282 0.7086 0.0
H45 H 0.71923 0.65603 0.7705 0.0
H46 H 0.6463 0.60282 0.67973 0.0
H47 H 0.66528 0.62984 0.61767 0.0
H48 H 0.6669 0.6357 0.51773 0.0
H49 H 0.64139 0.62053 0.44363 0.0
H50 H 0.68227 0.70243 0.39041 0.0
H51 H 0.70815 0.71783 0.46506 0.0
N52 N 0.7301 0.70951 0.55048 0.0
N53 N 0.73719 0.69947 0.62689 0.0
N54 N 0.69815 0.66998 0.5782 0.0
C55 C 0.74576 0.71616 0.59237 0.0
C56 C 0.71334 0.67638 0.62012 0.0
C57 C 0.70627 0.6863 0.54316 0.0
C58 C 0.77225 0.7411 0.60061 0.0
C59 C 0.77749 0.76178 0.56686 0.0
C60 C 0.80273 0.78502 0.57473 0.0
C61 C 0.82339 0.78811 0.6166 0.0
C62 C 0.81838 0.76732 0.65014 0.0
C63 C 0.79294 0.74426 0.64242 0.0
C64 C 0.70339 0.65868 0.65799 0.0
C65 C 0.71863 0.66517 0.70173 0.0
C66 C 0.70776 0.64949 0.7374 0.0
C67 C 0.68144 0.62684 0.73008 0.0
C68 C 0.66675 0.62002 0.6864 0.0
C69 C 0.67763 0.6356 0.6508 0.0
C70 C 0.6897 0.67805 0.4976 0.0
C71 C 0.6703 0.65076 0.49048 0.0
C72 C 0.86326 0.12964 0.89957 0.0
C73 C 0.84783 0.13542 0.85579 0.0
C74 C 0.82053 0.15714 0.84788 0.0
C75 C 0.8089 0.17252 0.88314 0.0
H76 H 0.77711 0.2666 0.93338 0.0
H77 H 0.73805 0.3114 0.92377 0.0
H78 H 0.67716 0.27409 0.01935 0.0
H79 H 0.71722 0.23008 0.03073 0.0
H80 H 0.78078 0.19275 0.11618 0.0
H81 H 0.80488 0.1766 0.19151 0.0
H82 H 0.90154 0.1492 0.14587 0.0
H83 H 0.87744 0.16467 0.07082 0.0
H84 H 0.86413 0.13972 0.96809 0.0
H85 H 0.88455 0.11325 0.90662 0.0
H86 H 0.80859 0.16293 0.8146 0.0
H87 H 0.7879 0.18914 0.87584 0.0
N88 N 0.78762 0.20551 0.95707 0.0
N89 N 0.78757 0.21083 0.03359 0.0
N90 N 0.8244 0.17465 0.00697 0.0
C91 C 0.77535 0.21956 0.99136 0.0
C92 C 0.81247 0.18858 0.04161 0.0
C93 C 0.81184 0.18271 0.96459 0.0
C94 C 0.75009 0.24504 0.98285 0.0
C95 C 0.75513 0.26787 0.95192 0.0
C96 C 0.73288 0.29338 0.94636 0.0
C97 C 0.70444 0.29572 0.97023 0.0
C98 C 0.69862 0.27238 0.99999 0.0
C99 C 0.7216 0.24743 0.00673 0.0
C100 C 0.82719 0.17994 0.08755 0.0
C101 C 0.80729 0.18353 0.12237 0.0
C102 C 0.82103 0.17434 0.16541 0.0
C103 C 0.85529 0.1623 0.17471 0.0
C104 C 0.8754 0.15916 0.14003 0.0
C105 C 0.86139 0.16768 0.09689 0.0
C106 C 0.82427 0.16659 0.92706 0.0
C107 C 0.85155 0.14488 0.9348 0.0
C108 C 0.3687 0.38283 0.64796 0.0
C109 C 0.34926 0.37768 0.68291 0.0
C110 C 0.31569 0.3643 0.67362 0.0
C111 C 0.30201 0.35575 0.63035 0.0
H112 H 0.2285 0.29628 0.5544 0.0
H113 H 0.19241 0.25063 0.54233 0.0
H114 H 0.22042 0.24179 0.41104 0.0
H115 H 0.25656 0.28794 0.42303 0.0
H116 H 0.28186 0.35358 0.38332 0.0
H117 H 0.30238 0.38012 0.32213 0.0
H118 H 0.37311 0.43415 0.4144 0.0
H119 H 0.35285 0.4073 0.4759 0.0
H120 H 0.3702 0.3795 0.57836 0.0
H121 H 0.39427 0.39384 0.65383 0.0
H122 H 0.30003 0.36047 0.69991 0.0
H123 H 0.27604 0.34545 0.62422 0.0
N124 N 0.28257 0.3302 0.54091 0.0
N125 N 0.28068 0.33774 0.46449 0.0
N126 N 0.31706 0.36855 0.51468 0.0
C127 C 0.26977 0.32217 0.4986 0.0
C128 C 0.30408 0.36115 0.47222 0.0
C129 C 0.3064 0.35325 0.54918 0.0
C130 C 0.24548 0.29578 0.48976 0.0
C131 C 0.22659 0.28491 0.52269 0.0
C132 C 0.20548 0.25883 0.51548 0.0
C133 C 0.203 0.24281 0.47522 0.0
C134 C 0.22152 0.25388 0.44212 0.0
C135 C 0.24219 0.2803 0.44905 0.0
C136 C 0.31568 0.37817 0.43472 0.0
C137 C 0.30158 0.37129 0.39069 0.0
C138 C 0.31314 0.38685 0.35539 0.0
C139 C 0.33907 0.40978 0.36333 0.0
C140 C 0.35293 0.41677 0.40726 0.0
C141 C 0.34132 0.4013 0.44253 0.0
C142 C 0.32121 0.36131 0.59529 0.0
C143 C 0.35471 0.37495 0.6046 0.0
O144 O 0.9874 0.04404 0.48863 0.0
Mn145 Mn 0.0058 0.01225 0.53843 0.0
O146 O 0.95389 0.01813 0.43436 0.0
Mn147 Mn 0.96623 0.97941 0.45568 0.0
O148 O 0.02448 0.98054 0.58847 0.0
O149 O 0.0421 0.04261 0.56288 0.0
Mn150 Mn 0.04725 0.0448 0.62075 0.0
O151 O 0.97045 0.02995 0.57777 0.0
O152 O 0.06143 0.00605 0.63991 0.0
O153 O 0.04154 0.99461 0.49944 0.0
O154 O 0.01043 0.9662 0.44592 0.0
O155 O 0.07823 0.07301 0.60195 0.0
O156 O 0.00294 0.05629 0.63277 0.0
C157 C 0.94419 0.96206 0.51153 0.0
C158 C 0.96684 0.043 0.45136 0.0
C159 C 0.04701 0.98136 0.62419 0.0
C160 C 0.0652 0.06381 0.56278 0.0
C161 C 0.97332 0.04702 0.61232 0.0
C162 C 0.0396 0.97645 0.46617 0.0
O163 O 0.96916 0.98192 0.51357 0.0
O164 O 0.93251 0.953 0.47186 0.0
O165 O 0.53148 0.55297 0.09456 0.0
Mn166 Mn 0.50975 0.52087 0.04725 0.0
O167 O 0.56478 0.52731 0.14945 0.0
Mn168 Mn 0.5478 0.48891 0.13221 0.0
O169 O 0.48792 0.48946 0.99871 0.0
O170 O 0.47651 0.55275 0.02125 0.0
Mn171 Mn 0.47146 0.5552 0.96354 0.0
O172 O 0.54643 0.53467 0.00686 0.0
O173 O 0.45428 0.51691 0.94568 0.0
O174 O 0.47285 0.50704 0.08754 0.0
O175 O 0.50274 0.48049 0.14446 0.0
O176 O 0.44349 0.58569 0.98362 0.0
O177 O 0.51686 0.56324 0.95184 0.0
C178 C 0.56461 0.46616 0.07607 0.0
C179 C 0.55307 0.55221 0.131 0.0
C180 C 0.46596 0.49145 0.96252 0.0
C181 C 0.45571 0.57541 0.02258 0.0
C182 C 0.54536 0.55163 0.97221 0.0
C183 C 0.47404 0.49091 0.12302 0.0
O184 O 0.54336 0.48894 0.07405 0.0
O185 O 0.57661 0.45798 0.11621 0.0
H186 H 0.19524 0.19569 0.44908 0.0
C187 C 0.1845 0.2129 0.46901 0.0
H188 H 0.14559 0.22244 0.50933 0.0
H189 H 0.08246 0.08914 0.43488 0.0
H190 H 0.06455 0.11537 0.36494 0.0
H191 H 0.08366 0.16836 0.35377 0.0
H192 H 0.12105 0.19541 0.41236 0.0
C193 C 0.15697 0.20556 0.48961 0.0
C194 C 0.14632 0.17317 0.49452 0.0
C195 C 0.12431 0.15783 0.46014 0.0
C196 C 0.11261 0.12749 0.46694 0.0
C197 C 0.09127 0.11245 0.43178 0.0
C198 C 0.081 0.12718 0.39145 0.0
C199 C 0.09181 0.15701 0.38514 0.0
C200 C 0.11325 0.17227 0.41896 0.0
H201 H 0.05471 0.09676 0.50901 0.0
C202 C 0.07367 0.07971 0.52332 0.0
H203 H 0.12615 0.06529 0.53357 0.0
H204 H 0.19075 0.19529 0.56583 0.0
H205 H 0.20809 0.16968 0.6359 0.0
H206 H 0.18611 0.11801 0.64914 0.0
H207 H 0.14713 0.09166 0.59257 0.0
C208 C 0.10773 0.08243 0.51824 0.0
C209 C 0.12245 0.11284 0.50841 0.0
C210 C 0.14531 0.12802 0.54243 0.0
C211 C 0.15737 0.15808 0.53528 0.0
C212 C 0.18032 0.17263 0.56964 0.0
C213 C 0.19059 0.15818 0.61009 0.0
C214 C 0.17828 0.12909 0.6175 0.0
C215 C 0.15588 0.11413 0.58436 0.0
H216 H 0.37763 0.72476 0.08781 0.0
C217 C 0.36288 0.72845 0.11521 0.0
H218 H 0.34973 0.70869 0.17413 0.0
H219 H 0.37239 0.58194 0.07968 0.0
H220 H 0.31138 0.57794 0.09323 0.0
H221 H 0.28375 0.61987 0.12983 0.0
H222 H 0.31679 0.66594 0.15315 0.0
C223 C 0.36563 0.70726 0.14763 0.0
C224 C 0.385 0.67838 0.14187 0.0
C225 C 0.36561 0.65129 0.13031 0.0
C226 C 0.38136 0.62722 0.10901 0.0
C227 C 0.36123 0.6009 0.09565 0.0
C228 C 0.3264 0.59833 0.10338 0.0
C229 C 0.31085 0.62194 0.12402 0.0
C230 C 0.33005 0.64827 0.13718 0.0
H231 H 0.45893 0.58028 0.09558 0.0
C232 C 0.44743 0.58948 0.06364 0.0
H233 H 0.41442 0.62269 0.02887 0.0
H234 H 0.43193 0.72254 0.1738 0.0
H235 H 0.49467 0.72381 0.16722 0.0
H236 H 0.52189 0.68204 0.12976 0.0
H237 H 0.48671 0.63871 0.09883 0.0
C238 C 0.42619 0.61398 0.06103 0.0
C239 C 0.41625 0.63035 0.09975 0.0
C240 C 0.43735 0.65491 0.11834 0.0
C241 C 0.42164 0.67905 0.13958 0.0
C242 C 0.44281 0.70388 0.15689 0.0
C243 C 0.47869 0.70478 0.15342 0.0
C244 C 0.49402 0.68126 0.1323 0.0
C245 C 0.47363 0.6566 0.11462 0.0
H246 H 0.87414 0.80662 0.65069 0.0
C247 C 0.85177 0.81149 0.62538 0.0
H248 H 0.82814 0.84452 0.57982 0.0
H249 H 0.91691 0.9594 0.64176 0.0
H250 H 0.86674 0.96863 0.6807 0.0
H251 H 0.82318 0.92788 0.68729 0.0
H252 H 0.82939 0.87769 0.65503 0.0
C253 C 0.85124 0.83799 0.6029 0.0
C254 C 0.88146 0.85976 0.60851 0.0
C255 C 0.87769 0.88867 0.62807 0.0
C256 C 0.90265 0.91221 0.62416 0.0
C257 C 0.89821 0.94101 0.64345 0.0
C258 C 0.86975 0.94648 0.666 0.0
C259 C 0.84521 0.92352 0.66969 0.0
C260 C 0.84897 0.8949 0.65094 0.0
H261 H 0.90065 0.94633 0.54355 0.0
C262 C 0.92908 0.94973 0.54924 0.0
H263 H 0.97705 0.93401 0.58412 0.0
H264 H 0.89917 0.80572 0.57174 0.0
H265 H 0.95134 0.79594 0.53798 0.0
H266 H 0.99546 0.83645 0.5334 0.0
H267 H 0.98745 0.88703 0.56234 0.0
C268 C 0.94849 0.9332 0.58096 0.0
C269 C 0.931 0.90692 0.60023 0.0
C270 C 0.93731 0.8769 0.58577 0.0
C271 C 0.91217 0.85337 0.58921 0.0
C272 C 0.91767 0.82429 0.5711 0.0
C273 C 0.94751 0.81837 0.55139 0.0
C274 C 0.97232 0.84118 0.54875 0.0
C275 C 0.96732 0.87018 0.56542 0.0
H276 H 0.69728 0.34515 0.97833 0.0
C277 C 0.68342 0.32407 0.96819 0.0
H278 H 0.63482 0.30249 0.94867 0.0
H279 H 0.55509 0.38659 0.06893 0.0
H280 H 0.53883 0.33525 0.0888 0.0
H281 H 0.56271 0.29019 0.05496 0.0
H282 H 0.60253 0.29604 1.00109 0.0
C283 C 0.64803 0.32379 0.95902 0.0
C284 C 0.62681 0.35038 0.97071 0.0
C285 C 0.60291 0.34621 1.00161 0.0
C286 C 0.5896 0.37209 0.02178 0.0
C287 C 0.56636 0.36757 0.05324 0.0
C288 C 0.55671 0.33828 0.06479 0.0
C289 C 0.57012 0.31293 0.04569 0.0
C290 C 0.59305 0.31667 0.01464 0.0
H291 H 0.55603 0.45158 0.00559 0.0
C292 C 0.57233 0.44854 0.03752 0.0
H293 H 0.61266 0.42358 0.07613 0.0
H294 H 0.66158 0.36621 0.90204 0.0
H295 H 0.67479 0.41791 0.8795 0.0
H296 H 0.65458 0.46269 0.91791 0.0
H297 H 0.62031 0.45611 0.97834 0.0
C298 C 0.59716 0.42664 0.04364 0.0
C299 C 0.6005 0.40185 0.01152 0.0
C300 C 0.62051 0.40617 0.97665 0.0
C301 C 0.63319 0.38033 0.95558 0.0
C302 C 0.65249 0.38514 0.9201 0.0
C303 C 0.65998 0.41462 0.90672 0.0
C304 C 0.64852 0.43985 0.92828 0.0
C305 C 0.62902 0.4358 0.96295 0.0
H306 H 0.13153 0.92077 0.25243 0.0
C307 C 0.15848 0.91248 0.26074 0.0
H308 H 0.2011 0.90741 0.31313 0.0
H309 H 0.08058 0.00279 0.37722 0.0
H310 H 0.10054 0.03889 0.32583 0.0
H311 H 0.14612 0.02435 0.28047 0.0
H312 H 0.17162 0.97335 0.28586 0.0
C313 C 0.17424 0.91509 0.30295 0.0
C314 C 0.15379 0.92639 0.33749 0.0
C315 C 0.14036 0.95665 0.33542 0.0
C316 C 0.11489 0.96529 0.36253 0.0
C317 C 0.10047 0.99514 0.35804 0.0
C318 C 0.11169 0.0161 0.32862 0.0
C319 C 0.13729 0.0079 0.30302 0.0
C320 C 0.15155 0.97854 0.30622 0.0
H321 H 0.0972 0.97855 0.46411 0.0
C322 C 0.07249 0.96836 0.44898 0.0
H323 H 0.04756 0.93938 0.39856 0.0
H324 H 0.17877 0.86828 0.35483 0.0
H325 H 0.16194 0.83339 0.41002 0.0
H326 H 0.11866 0.8488 0.45816 0.0
H327 H 0.09187 0.89929 0.45129 0.0
C328 C 0.07195 0.95015 0.41353 0.0
C329 C 0.10373 0.94386 0.3925 0.0
C330 C 0.11974 0.91466 0.39761 0.0
C331 C 0.14489 0.90589 0.37012 0.0
C332 C 0.15967 0.8762 0.37502 0.0
C333 C 0.15024 0.85595 0.40658 0.0
C334 C 0.12585 0.86462 0.43366 0.0
C335 C 0.11061 0.89358 0.42931 0.0
H336 H 0.6404 0.60131 0.7585 0.0
C337 C 0.66638 0.61163 0.7667 0.0
H338 H 0.70795 0.62036 0.81911 0.0
H339 H 0.59565 0.62662 0.95319 0.0
H340 H 0.61927 0.67828 0.95711 0.0
H341 H 0.66283 0.69422 0.90952 0.0
H342 H 0.68311 0.65868 0.85787 0.0
C343 C 0.68199 0.61062 0.80912 0.0
C344 C 0.66193 0.59918 0.8441 0.0
C345 C 0.65107 0.62011 0.87475 0.0
C346 C 0.62573 0.61104 0.90187 0.0
C347 C 0.61459 0.63253 0.93151 0.0
C348 C 0.62801 0.66217 0.93418 0.0
C349 C 0.65256 0.67113 0.90741 0.0
C350 C 0.66397 0.65048 0.87789 0.0
H351 H 0.60301 0.54762 0.97105 0.0
C352 C 0.57861 0.55758 0.95444 0.0
H353 H 0.55482 0.58519 0.90145 0.0
H354 H 0.68388 0.55177 0.79698 0.0
H355 H 0.66188 0.49953 0.79511 0.0
H356 H 0.61625 0.48425 0.84009 0.0
H357 H 0.59269 0.52087 0.88763 0.0
C358 C 0.57891 0.57455 0.91772 0.0
C359 C 0.61146 0.58114 0.89836 0.0
C360 C 0.62484 0.55937 0.87085 0.0
C361 C 0.65045 0.56835 0.84402 0.0
C362 C 0.6637 0.54622 0.81707 0.0
C363 C 0.65145 0.51619 0.8159 0.0
C364 C 0.62579 0.50757 0.84129 0.0
C365 C 0.61249 0.52883 0.86844 0.0
H366 H 0.84966 0.13964 0.23807 0.0
C367 C 0.86848 0.15075 0.21983 0.0
H368 H 0.92133 0.16434 0.22049 0.0
H369 H 0.90117 0.11086 0.4235 0.0
H370 H 0.86094 0.1534 0.42746 0.0
H371 H 0.84709 0.18915 0.36468 0.0
H372 H 0.87283 0.18229 0.29725 0.0
C373 C 0.90259 0.15265 0.23815 0.0
C374 C 0.91632 0.1357 0.27962 0.0
C375 C 0.90231 0.14092 0.31951 0.0
C376 C 0.91121 0.12093 0.35631 0.0
C377 C 0.89553 0.12563 0.39487 0.0
C378 C 0.87252 0.14997 0.39758 0.0
C379 C 0.86466 0.17007 0.36219 0.0
C380 C 0.87936 0.16575 0.32356 0.0
H381 H 0.97393 0.09216 0.43587 0.0
C382 C 0.95961 0.07143 0.42507 0.0
H383 H 0.92403 0.05017 0.37493 0.0
H384 H 0.95226 0.12172 0.21064 0.0
H385 H 0.99649 0.08233 0.20997 0.0
H386 H 0.01377 0.04941 0.27525 0.0
H387 H 0.98648 0.0556 0.34154 0.0
C388 C 0.93775 0.07107 0.38629 0.0
C389 C 0.935 0.09651 0.35366 0.0
C390 C 0.95197 0.09343 0.31575 0.0
C391 C 0.94249 0.11286 0.27851 0.0
C392 C 0.95876 0.10812 0.24029 0.0
C393 C 0.98421 0.08547 0.23937 0.0
C394 C 0.99389 0.0669 0.27607 0.0
C395 C 0.97795 0.07063 0.31383 0.0
H396 H 0.34317 0.39809 0.74752 0.0
C397 C 0.36229 0.38844 0.72844 0.0
H398 H 0.4157 0.37731 0.72763 0.0
H399 H 0.47701 0.4851 0.85193 0.0
H400 H 0.50114 0.49549 0.78431 0.0
H401 H 0.48363 0.46437 0.7175 0.0
H402 H 0.44222 0.42266 0.71792 0.0
C403 C 0.3966 0.38753 0.74617 0.0
C404 C 0.40997 0.40392 0.78813 0.0
C405 C 0.43448 0.42818 0.78721 0.0
C406 C 0.4441 0.44652 0.82543 0.0
C407 C 0.4684 0.47075 0.8236 0.0
C408 C 0.48255 0.47691 0.78505 0.0
C409 C 0.47274 0.45936 0.74749 0.0
C410 C 0.44894 0.43535 0.74828 0.0
H411 H 0.47092 0.4425 0.94485 0.0
C412 C 0.45619 0.46343 0.93631 0.0
H413 H 0.41814 0.48587 0.89026 0.0
H414 H 0.36936 0.35489 0.80462 0.0
H415 H 0.34642 0.34408 0.87308 0.0
H416 H 0.36066 0.37769 0.93797 0.0
H417 H 0.39848 0.42209 0.93503 0.0
C418 C 0.43232 0.46473 0.89925 0.0
C419 C 0.42897 0.44088 0.86432 0.0
C420 C 0.40661 0.41533 0.86638 0.0
C421 C 0.39751 0.39651 0.82844 0.0
C422 C 0.376 0.37057 0.83188 0.0
C423 C 0.36291 0.36399 0.87107 0.0
C424 C 0.37098 0.38289 0.90765 0.0
C425 C 0.3926 0.40831 0.90553 0.0
H426 H 0.64075 0.62404 0.3636 0.0
C427 C 0.64519 0.64858 0.36651 0.0
H428 H 0.63862 0.69058 0.33116 0.0
H429 H 0.64704 0.57709 0.18641 0.0
H430 H 0.71027 0.58061 0.21047 0.0
H431 H 0.73438 0.61673 0.26913 0.0
H432 H 0.69537 0.64952 0.30415 0.0
C433 C 0.63684 0.66583 0.32992 0.0
C434 C 0.62343 0.65057 0.28713 0.0
C435 C 0.64653 0.63225 0.26621 0.0
C436 C 0.63263 0.61154 0.23238 0.0
C437 C 0.65627 0.59298 0.21268 0.0
C438 C 0.69257 0.5949 0.226 0.0
C439 C 0.70615 0.61523 0.25903 0.0
C440 C 0.68352 0.63377 0.27901 0.0
H441 H 0.55848 0.60281 0.13575 0.0
C442 C 0.56448 0.58135 0.15326 0.0
H443 H 0.58793 0.55985 0.21215 0.0
H444 H 0.57322 0.68753 0.31353 0.0
H445 H 0.51022 0.68638 0.2865 0.0
H446 H 0.48568 0.64963 0.229 0.0
H447 H 0.52375 0.61406 0.19785 0.0
C448 C 0.58156 0.5814 0.19506 0.0
C449 C 0.59567 0.60924 0.21939 0.0
C450 C 0.57286 0.63007 0.23676 0.0
C451 C 0.58693 0.65101 0.27047 0.0
C452 C 0.56372 0.67113 0.2881 0.0
C453 C 0.52761 0.67069 0.27288 0.0
C454 C 0.51379 0.65 0.24047 0.0
C455 C 0.53599 0.62972 0.22274 0.0
H456 H 0.88898 0.11031 0.82715 0.0
C457 C 0.86245 0.11965 0.81948 0.0
H458 H 0.8186 0.12483 0.76883 0.0
H459 H 0.92313 0.12343 0.62459 0.0
H460 H 0.89848 0.17467 0.61549 0.0
H461 H 0.85745 0.19345 0.66453 0.0
H462 H 0.84078 0.1612 0.72288 0.0
C463 C 0.84521 0.11623 0.77812 0.0
C464 C 0.8637 0.10282 0.7431 0.0
C465 C 0.8724 0.12178 0.70859 0.0
C466 C 0.89622 0.11107 0.68052 0.0
C467 C 0.90536 0.13065 0.64702 0.0
C468 C 0.89133 0.16002 0.64138 0.0
C469 C 0.8682 0.17058 0.66898 0.0
C470 C 0.85885 0.15184 0.70235 0.0
H471 H 0.91568 0.04655 0.61481 0.0
C472 C 0.94091 0.05563 0.63024 0.0
H473 H 0.96741 0.0832 0.68139 0.0
H474 H 0.84542 0.05844 0.79867 0.0
H475 H 0.86821 0.00649 0.80564 0.0
H476 H 0.91104 0.98843 0.75849 0.0
H477 H 0.93099 0.02199 0.70379 0.0
C478 C 0.94244 0.07358 0.66611 0.0
C479 C 0.91105 0.08149 0.68694 0.0
C480 C 0.89966 0.06149 0.71854 0.0
C481 C 0.87563 0.0721 0.7464 0.0
C482 C 0.86438 0.05168 0.77753 0.0
C483 C 0.87709 0.02181 0.78166 0.0
C484 C 0.90117 0.01163 0.75508 0.0
C485 C 0.91245 0.03114 0.72385 0.0
H486 H 0.37991 0.43619 0.33572 0.0
C487 C 0.35425 0.42537 0.32709 0.0
H488 H 0.31323 0.41622 0.27413 0.0
H489 H 0.42361 0.5202 0.20661 0.0
H490 H 0.39817 0.5555 0.25437 0.0
H491 H 0.35359 0.53801 0.29954 0.0
H492 H 0.33443 0.48494 0.29751 0.0
C493 C 0.33889 0.42641 0.28454 0.0
C494 C 0.35868 0.43884 0.24993 0.0
C495 C 0.36857 0.47009 0.25023 0.0
C496 C 0.39365 0.48032 0.2234 0.0
C497 C 0.40433 0.51131 0.22588 0.0
C498 C 0.38992 0.53181 0.25314 0.0
C499 C 0.36485 0.52195 0.27862 0.0
C500 C 0.35423 0.49146 0.27736 0.0
H501 H 0.41607 0.49331 0.12302 0.0
C502 C 0.44071 0.4842 0.14028 0.0
H503 H 0.46505 0.45737 0.19385 0.0
H504 H 0.34048 0.37872 0.23566 0.0
H505 H 0.36251 0.34445 0.1837 0.0
H506 H 0.40524 0.36248 0.13626 0.0
H507 H 0.42625 0.41499 0.14061 0.0
C508 C 0.44066 0.46722 0.17707 0.0
C509 C 0.40816 0.45933 0.19578 0.0
C510 C 0.39541 0.42892 0.19204 0.0
C511 C 0.37056 0.41864 0.2191 0.0
C512 C 0.35919 0.38782 0.21571 0.0
C513 C 0.37162 0.3679 0.18601 0.0
C514 C 0.39571 0.37804 0.15933 0.0
C515 C 0.40763 0.40815 0.16225 0.0
H516 H 0.16902 0.89114 0.83888 0.0
C517 C 0.15096 0.88088 0.85904 0.0
H518 H 0.09837 0.86766 0.86177 0.0
H519 H 0.03192 0.97237 0.7332 0.0
H520 H 0.00712 0.98256 0.80038 0.0
H521 H 0.0255 0.95231 0.86811 0.0
H522 H 0.06846 0.91167 0.86908 0.0
C523 C 0.11654 0.87843 0.84233 0.0
C524 C 0.10181 0.89355 0.79969 0.0
C525 C 0.07623 0.91701 0.79975 0.0
C526 C 0.06601 0.93481 0.76096 0.0
C527 C 0.04088 0.95844 0.76198 0.0
C528 C 0.02638 0.96447 0.80026 0.0
C529 C 0.03668 0.9474 0.83835 0.0
C530 C 0.06137 0.92403 0.83837 0.0
H531 H 0.03812 0.93305 0.64297 0.0
C532 C 0.05447 0.95315 0.65098 0.0
H533 H 0.09481 0.97365 0.696 0.0
H534 H 0.14406 0.84539 0.78478 0.0
H535 H 0.16732 0.83455 0.71661 0.0
H536 H 0.15179 0.86719 0.6506 0.0
H537 H 0.11237 0.91064 0.65215 0.0
C538 C 0.0788 0.95341 0.68762 0.0
C539 C 0.08158 0.92938 0.72242 0.0
C540 C 0.10469 0.90433 0.7211 0.0
C541 C 0.11444 0.88606 0.7596 0.0
C542 C 0.13686 0.86065 0.757 0.0
C543 C 0.15014 0.85405 0.71799 0.0
C544 C 0.14135 0.87241 0.68079 0.0
C545 C 0.11886 0.8973 0.68212 0.0
loop_
_geom_bond_atom_site_label_1
_geom_bond_atom_site_label_2
_geom_bond_distance
_geom_bond_site_symmetry_2
_ccdc_geom_bond_type
C0 C1 1.384 . S
C0 H13 0.947 . S
C0 C35 1.382 . S
C1 C0 1.384 . S
C1 C2 1.378 . S
C2 C1 1.378 . S
C2 C3 1.378 . S
C2 H14 0.952 . S
C3 C2 1.378 . S
C3 H15 0.950 . S
C3 C34 1.383 . S
H4 C23 0.947 . S
H5 C24 0.946 . S
H6 C26 0.953 . S
H7 C27 0.945 . S
H8 C29 0.952 . S
H9 C30 0.949 . S
H10 C32 0.950 . S
H11 C33 0.948 . S
H12 C35 0.951 . S
H13 C0 0.947 . S
H14 C2 0.952 . S
H15 C3 0.950 . S
N16 C19 1.382 . S
N16 C21 1.363 . S
N17 C19 1.371 . S
N17 C20 1.372 . S
N18 C20 1.361 . S
N18 C21 1.377 . S
C19 N16 1.382 . S
C19 N17 1.371 . S
C19 C22 1.480 . S
C20 N17 1.372 . S
C20 N18 1.361 . S
C20 C28 1.457 . S
C21 N16 1.363 . S
C21 N18 1.377 . S
C21 C34 1.479 . S
C22 C19 1.480 . S
C22 C23 1.383 . S
C22 C27 1.385 . S
C23 H4 0.947 . S
C23 C22 1.383 . S
C23 C24 1.388 . S
C24 H5 0.946 . S
C24 C23 1.388 . S
C24 C25 1.384 . S
C25 C24 1.384 . S
C25 C26 1.377 . S
C26 H6 0.953 . S
C26 C25 1.377 . S
C26 C27 1.369 . S
C27 H7 0.945 . S
C27 C22 1.385 . S
C27 C26 1.369 . S
C28 C20 1.457 . S
C28 C29 1.372 1_554 S
C28 C33 1.364 . S
C29 H8 0.952 . S
C29 C28 1.372 1_556 S
C29 C30 1.389 . S
C30 H9 0.949 . S
C30 C29 1.389 . S
C30 C31 1.387 . S
C31 C30 1.387 . S
C31 C32 1.372 . S
C32 H10 0.950 . S
C32 C31 1.372 . S
C32 C33 1.379 1_556 S
C33 H11 0.948 . S
C33 C28 1.364 . S
C33 C32 1.379 1_554 S
C34 C3 1.383 . S
C34 C21 1.479 . S
C34 C35 1.398 . S
C35 C0 1.382 . S
C35 H12 0.951 . S
C35 C34 1.398 . S
C36 C37 1.384 . S
C36 H49 0.947 . S
C36 C71 1.382 . S
C37 C36 1.384 . S
C37 C38 1.378 . S
C38 C37 1.378 . S
C38 C39 1.378 . S
C38 H50 0.952 . S
C39 C38 1.378 . S
C39 H51 0.950 . S
C39 C70 1.383 . S
H40 C59 0.947 . S
H41 C60 0.946 . S
H42 C62 0.953 . S
H43 C63 0.945 . S
H44 C65 0.952 . S
H45 C66 0.949 . S
H46 C68 0.950 . S
H47 C69 0.948 . S
H48 C71 0.951 . S
H49 C36 0.947 . S
H50 C38 0.952 . S
H51 C39 0.950 . S
N52 C55 1.382 . S
N52 C57 1.363 . S
N53 C55 1.371 . S
N53 C56 1.372 . S
N54 C56 1.361 . S
N54 C57 1.377 . S
C55 N52 1.382 . S
C55 N53 1.371 . S
C55 C58 1.480 . S
C56 N53 1.372 . S
C56 N54 1.361 . S
C56 C64 1.457 . S
C57 N52 1.363 . S
C57 N54 1.377 . S
C57 C70 1.479 . S
C58 C55 1.480 . S
C58 C59 1.383 . S
C58 C63 1.385 . S
C59 H40 0.947 . S
C59 C58 1.383 . S
C59 C60 1.388 . S
C60 H41 0.946 . S
C60 C59 1.388 . S
C60 C61 1.384 . S
C61 C60 1.384 . S
C61 C62 1.377 . S
C62 H42 0.953 . S
C62 C61 1.377 . S
C62 C63 1.369 . S
C63 H43 0.945 . S
C63 C58 1.385 . S
C63 C62 1.369 . S
C64 C56 1.457 . S
C64 C65 1.372 . S
C64 C69 1.364 . S
C65 H44 0.952 . S
C65 C64 1.372 . S
C65 C66 1.389 . S
C66 H45 0.949 . S
C66 C65 1.389 . S
C66 C67 1.387 . S
C67 C66 1.387 . S
C67 C68 1.372 . S
C68 H46 0.950 . S
C68 C67 1.372 . S
C68 C69 1.379 . S
C69 H47 0.948 . S
C69 C64 1.364 . S
C69 C68 1.379 . S
C70 C39 1.383 . S
C70 C57 1.479 . S
C70 C71 1.398 . S
C71 C36 1.382 . S
C71 H48 0.951 . S
C71 C70 1.398 . S
C72 C73 1.384 . S
C72 H85 0.947 . S
C72 C107 1.382 . S
C73 C72 1.384 . S
C73 C74 1.378 . S
C74 C73 1.378 . S
C74 C75 1.378 . S
C74 H86 0.952 . S
C75 C74 1.378 . S
C75 H87 0.950 . S
C75 C106 1.383 . S
H76 C95 0.947 . S
H77 C96 0.946 . S
H78 C98 0.953 . S
H79 C99 0.945 . S
H80 C101 0.952 . S
H81 C102 0.949 . S
H82 C104 0.950 . S
H83 C105 0.948 . S
H84 C107 0.951 . S
H85 C72 0.947 . S
H86 C74 0.952 . S
H87 C75 0.950 . S
N88 C91 1.382 1_556 S
N88 C93 1.363 . S
N89 C91 1.371 . S
N89 C92 1.372 . S
N90 C92 1.361 . S
N90 C93 1.377 1_554 S
C91 N88 1.382 1_554 S
C91 N89 1.371 . S
C91 C94 1.480 1_554 S
C92 N89 1.372 . S
C92 N90 1.361 . S
C92 C100 1.457 . S
C93 N88 1.363 . S
C93 N90 1.377 1_556 S
C93 C106 1.479 . S
C94 C91 1.480 1_556 S
C94 C95 1.384 . S
C94 C99 1.384 1_556 S
C95 H76 0.947 . S
C95 C94 1.384 . S
C95 C96 1.388 . S
C96 H77 0.946 . S
C96 C95 1.388 . S
C96 C97 1.384 . S
C97 C96 1.384 . S
C97 C98 1.377 1_556 S
C98 H78 0.953 . S
C98 C97 1.377 1_554 S
C98 C99 1.369 . S
C99 H79 0.945 . S
C99 C94 1.384 1_554 S
C99 C98 1.369 . S
C100 C92 1.457 . S
C100 C101 1.372 . S
C100 C105 1.364 . S
C101 H80 0.952 . S
C101 C100 1.372 . S
C101 C102 1.389 . S
C102 H81 0.949 . S
C102 C101 1.389 . S
C102 C103 1.387 . S
C103 C102 1.387 . S
C103 C104 1.372 . S
C104 H82 0.950 . S
C104 C103 1.372 . S
C104 C105 1.379 . S
C105 H83 0.948 . S
C105 C100 1.364 . S
C105 C104 1.379 . S
C106 C75 1.383 . S
C106 C93 1.479 . S
C106 C107 1.398 . S
C107 C72 1.382 . S
C107 H84 0.951 . S
C107 C106 1.398 . S
C108 C109 1.384 . S
C108 H121 0.947 . S
C108 C143 1.382 . S
C109 C108 1.384 . S
C109 C110 1.378 . S
C110 C109 1.378 . S
C110 C111 1.378 . S
C110 H122 0.952 . S
C111 C110 1.378 . S
C111 H123 0.950 . S
C111 C142 1.383 . S
H112 C131 0.947 . S
H113 C132 0.946 . S
H114 C134 0.953 . S
H115 C135 0.945 . S
H116 C137 0.952 . S
H117 C138 0.949 . S
H118 C140 0.950 . S
H119 C141 0.948 . S
H120 C143 0.951 . S
H121 C108 0.947 . S
H122 C110 0.952 . S
H123 C111 0.950 . S
N124 C127 1.382 . S
N124 C129 1.363 . S
N125 C127 1.371 . S
N125 C128 1.372 . S
N126 C128 1.361 . S
N126 C129 1.377 . S
C127 N124 1.382 . S
C127 N125 1.371 . S
C127 C130 1.480 . S
C128 N125 1.372 . S
C128 N126 1.361 . S
C128 C136 1.457 . S
C129 N124 1.363 . S
C129 N126 1.377 . S
C129 C142 1.479 . S
C130 C127 1.480 . S
C130 C131 1.383 . S
C130 C135 1.385 . S
C131 H112 0.947 . S
C131 C130 1.383 . S
C131 C132 1.388 . S
C132 H113 0.946 . S
C132 C131 1.388 . S
C132 C133 1.384 . S
C133 C132 1.384 . S
C133 C134 1.377 . S
C134 H114 0.953 . S
C134 C133 1.377 . S
C134 C135 1.369 . S
C135 H115 0.945 . S
C135 C130 1.385 . S
C135 C134 1.369 . S
C136 C128 1.457 . S
C136 C137 1.372 . S
C136 C141 1.364 . S
C137 H116 0.952 . S
C137 C136 1.372 . S
C137 C138 1.389 . S
C138 H117 0.949 . S
C138 C137 1.389 . S
C138 C139 1.387 . S
C139 C138 1.387 . S
C139 C140 1.372 . S
C140 H118 0.950 . S
C140 C139 1.372 . S
C140 C141 1.379 . S
C141 H119 0.948 . S
C141 C136 1.364 . S
C141 C140 1.379 . S
C142 C111 1.383 . S
C142 C129 1.479 . S
C142 C143 1.398 . S
C143 C108 1.382 . S
C143 H120 0.951 . S
C143 C142 1.398 . S
O144 Mn145 2.163 1_655 S
O144 C158 1.244 . S
Mn145 O144 2.163 1_455 S
Mn145 O148 2.160 1_545 S
Mn145 O149 2.221 . S
Mn145 O151 2.163 1_455 S
Mn145 O153 2.160 1_545 S
Mn145 O163 2.221 1_445 S
O146 Mn147 2.087 1_545 S
O146 C158 1.256 . S
Mn147 O146 2.087 1_565 S
Mn147 O154 2.089 1_655 S
Mn147 O163 2.290 . S
Mn147 O164 2.251 . S
O148 Mn145 2.160 1_565 S
O148 C159 1.239 . S
O149 Mn145 2.221 . S
O149 Mn150 2.290 . S
O149 C160 1.278 . S
Mn150 O149 2.290 . S
Mn150 O152 2.089 . S
Mn150 O155 2.251 . S
Mn150 O156 2.087 1_455 S
O151 Mn145 2.163 1_655 S
O151 C161 1.244 . S
O152 Mn150 2.089 . S
O152 C159 1.256 1_545 S
O153 Mn145 2.160 1_565 S
O153 C162 1.239 . S
O154 Mn147 2.089 1_455 S
O154 C162 1.256 . S
O155 Mn150 2.251 . S
O155 C160 1.241 . S
O156 Mn150 2.087 1_655 S
O156 C161 1.256 . S
C157 O163 1.278 . S
C157 O164 1.241 . S
C158 O144 1.244 . S
C158 O146 1.256 . S
C159 O148 1.239 . S
C159 O152 1.256 1_565 S
C160 O149 1.278 . S
C160 O155 1.241 . S
C161 O151 1.244 . S
C161 O156 1.256 . S
C162 O153 1.239 . S
C162 O154 1.256 . S
O163 Mn145 2.221 1_665 S
O163 Mn147 2.290 . S
O163 C157 1.278 . S
O164 Mn147 2.251 . S
O164 C157 1.241 . S
O165 Mn166 2.163 . S
O165 C179 1.244 . S
Mn166 O165 2.163 . S
Mn166 O169 2.160 1_554 S
Mn166 O170 2.221 . S
Mn166 O172 2.163 1_554 S
Mn166 O174 2.160 . S
Mn166 O184 2.221 . S
O167 Mn168 2.087 . S
O167 C179 1.256 . S
Mn168 O167 2.087 . S
Mn168 O175 2.089 . S
Mn168 O184 2.290 . S
Mn168 O185 2.251 . S
O169 Mn166 2.160 1_556 S
O169 C180 1.239 . S
O170 Mn166 2.221 . S
O170 Mn171 2.290 1_554 S
O170 C181 1.278 . S
Mn171 O170 2.290 1_556 S
Mn171 O173 2.089 . S
Mn171 O176 2.251 1_556 S
Mn171 O177 2.087 . S
O172 Mn166 2.163 1_556 S
O172 C182 1.244 . S
O173 Mn171 2.089 . S
O173 C180 1.256 . S
O174 Mn166 2.160 . S
O174 C183 1.239 . S
O175 Mn168 2.089 . S
O175 C183 1.256 . S
O176 Mn171 2.251 1_554 S
O176 C181 1.241 . S
O177 Mn171 2.087 . S
O177 C182 1.256 . S
C178 O184 1.278 . S
C178 O185 1.241 . S
C179 O165 1.244 . S
C179 O167 1.256 . S
C180 O169 1.239 . S
C180 O173 1.256 . S
C181 O170 1.278 . S
C181 O176 1.241 . S
C182 O172 1.244 . S
C182 O177 1.256 . S
C183 O174 1.239 . S
C183 O175 1.256 . S
O184 Mn166 2.221 . S
O184 Mn168 2.290 . S
O184 C178 1.278 . S
O185 Mn168 2.251 . S
O185 C178 1.241 . S
H186 C187 0.951 . S
C187 H186 0.951 . S
C187 C193 1.265 . S
H188 C193 0.950 . S
H189 C197 0.949 . S
H190 C198 0.950 1_655 S
H191 C199 0.951 1_655 S
H192 C200 0.951 . S
C193 C187 1.265 . S
C193 H188 0.950 . S
C193 C194 1.478 . S
C194 C193 1.478 . S
C194 C195 1.397 . S
C194 C211 1.394 . S
C195 C194 1.397 . S
C195 C196 1.438 . S
C195 C200 1.429 . S
C196 C195 1.438 . S
C196 C197 1.428 . S
C196 C209 1.394 . S
C197 H189 0.949 . S
C197 C196 1.428 . S
C197 C198 1.345 . S
C198 H190 0.950 1_455 S
C198 C197 1.345 . S
C198 C199 1.424 . S
C199 H191 0.951 1_455 S
C199 C198 1.424 . S
C199 C200 1.347 . S
C200 H192 0.951 . S
C200 C195 1.429 . S
C200 C199 1.347 . S
H201 C202 0.951 . S
C202 H201 0.951 . S
C202 C208 1.265 . S
H203 C208 0.950 . S
H204 C212 0.949 . S
H205 C213 0.950 . S
H206 C214 0.951 . S
H207 C215 0.951 . S
C208 C202 1.265 . S
C208 H203 0.950 . S
C208 C209 1.478 . S
C209 C196 1.394 . S
C209 C208 1.478 . S
C209 C210 1.397 . S
C210 C209 1.397 . S
C210 C211 1.438 . S
C210 C215 1.429 . S
C211 C194 1.394 . S
C211 C210 1.438 . S
C211 C212 1.428 . S
C212 H204 0.949 . S
C212 C211 1.428 . S
C212 C213 1.345 . S
C213 H205 0.950 . S
C213 C212 1.345 . S
C213 C214 1.424 . S
C214 H206 0.951 . S
C214 C213 1.424 . S
C214 C215 1.347 . S
C215 H207 0.951 . S
C215 C210 1.429 . S
C215 C214 1.347 . S
H216 C217 0.951 . S
C217 H216 0.951 . S
C217 C223 1.265 . S
H218 C223 0.950 . S
H219 C227 0.949 . S
H220 C228 0.950 . S
H221 C229 0.951 . S
H222 C230 0.951 . S
C223 C217 1.265 . S
C223 H218 0.950 . S
C223 C224 1.478 . S
C224 C223 1.478 . S
C224 C225 1.397 . S
C224 C241 1.394 . S
C225 C224 1.397 . S
C225 C226 1.438 . S
C225 C230 1.429 . S
C226 C225 1.438 . S
C226 C227 1.428 . S
C226 C239 1.394 . S
C227 H219 0.949 . S
C227 C226 1.428 . S
C227 C228 1.345 . S
C228 H220 0.950 . S
C228 C227 1.345 . S
C228 C229 1.424 . S
C229 H221 0.951 . S
C229 C228 1.424 . S
C229 C230 1.347 . S
C230 H222 0.951 . S
C230 C225 1.429 . S
C230 C229 1.347 . S
H231 C232 0.951 . S
C232 H231 0.951 . S
C232 C238 1.265 . S
H233 C238 0.950 . S
H234 C242 0.949 . S
H235 C243 0.950 . S
H236 C244 0.951 . S
H237 C245 0.951 . S
C238 C232 1.265 . S
C238 H233 0.950 . S
C238 C239 1.478 . S
C239 C226 1.394 . S
C239 C238 1.478 . S
C239 C240 1.397 . S
C240 C239 1.397 . S
C240 C241 1.438 . S
C240 C245 1.429 1_554 S
C241 C224 1.394 . S
C241 C240 1.438 . S
C241 C242 1.428 . S
C242 H234 0.949 . S
C242 C241 1.428 . S
C242 C243 1.345 1_554 S
C243 H235 0.950 . S
C243 C242 1.345 1_556 S
C243 C244 1.424 . S
C244 H236 0.951 . S
C244 C243 1.424 . S
C244 C245 1.347 . S
C245 H237 0.951 . S
C245 C240 1.429 1_556 S
C245 C244 1.347 . S
H246 C247 0.951 . S
C247 H246 0.951 . S
C247 C253 1.265 . S
H248 C253 0.950 . S
H249 C257 0.949 . S
H250 C258 0.950 . S
H251 C259 0.951 . S
H252 C260 0.951 . S
C253 C247 1.265 . S
C253 H248 0.950 . S
C253 C254 1.478 . S
C254 C253 1.478 . S
C254 C255 1.397 . S
C254 C271 1.394 . S
C255 C254 1.397 . S
C255 C256 1.438 . S
C255 C260 1.429 . S
C256 C255 1.438 . S
C256 C257 1.428 . S
C256 C269 1.394 . S
C257 H249 0.949 . S
C257 C256 1.428 . S
C257 C258 1.345 . S
C258 H250 0.950 . S
C258 C257 1.345 . S
C258 C259 1.424 . S
C259 H251 0.951 . S
C259 C258 1.424 . S
C259 C260 1.347 . S
C260 H252 0.951 . S
C260 C255 1.429 . S
C260 C259 1.347 . S
H261 C262 0.951 . S
C262 H261 0.951 . S
C262 C268 1.265 . S
H263 C268 0.950 . S
H264 C272 0.949 . S
H265 C273 0.950 . S
H266 C274 0.951 . S
H267 C275 0.951 . S
C268 C262 1.265 . S
C268 H263 0.950 . S
C268 C269 1.478 . S
C269 C256 1.394 . S
C269 C268 1.478 . S
C269 C270 1.397 . S
C270 C269 1.397 . S
C270 C271 1.438 . S
C270 C275 1.429 . S
C271 C254 1.394 . S
C271 C270 1.438 . S
C271 C272 1.428 . S
C272 H264 0.949 . S
C272 C271 1.428 . S
C272 C273 1.345 . S
C273 H265 0.950 . S
C273 C272 1.345 . S
C273 C274 1.424 . S
C274 H266 0.951 . S
C274 C273 1.424 . S
C274 C275 1.347 . S
C275 H267 0.951 . S
C275 C270 1.429 . S
C275 C274 1.347 . S
H276 C277 0.951 . S
C277 H276 0.951 . S
C277 C283 1.260 1_556 S
H278 C283 0.953 . S
H279 C287 0.949 . S
H280 C288 0.950 . S
H281 C289 0.951 . S
H282 C290 0.951 . S
C283 C277 1.260 1_554 S
C283 H278 0.953 . S
C283 C284 1.481 . S
C284 C283 1.481 . S
C284 C285 1.397 . S
C284 C301 1.394 1_554 S
C285 C284 1.397 . S
C285 C286 1.438 . S
C285 C290 1.429 . S
C286 C285 1.438 . S
C286 C287 1.428 . S
C286 C299 1.394 . S
C287 H279 0.949 . S
C287 C286 1.428 . S
C287 C288 1.345 . S
C288 H280 0.950 . S
C288 C287 1.345 . S
C288 C289 1.424 . S
C289 H281 0.951 . S
C289 C288 1.424 . S
C289 C290 1.347 . S
C290 H282 0.951 . S
C290 C285 1.429 . S
C290 C289 1.347 . S
H291 C292 0.951 . S
C292 H291 0.951 . S
C292 C298 1.265 . S
H293 C298 0.950 . S
H294 C302 0.949 . S
H295 C303 0.950 . S
H296 C304 0.951 . S
H297 C305 0.951 . S
C298 C292 1.265 . S
C298 H293 0.950 . S
C298 C299 1.478 . S
C299 C286 1.394 . S
C299 C298 1.478 . S
C299 C300 1.397 1_554 S
C300 C299 1.397 1_556 S
C300 C301 1.438 . S
C300 C305 1.429 . S
C301 C284 1.394 1_556 S
C301 C300 1.438 . S
C301 C302 1.428 . S
C302 H294 0.949 . S
C302 C301 1.428 . S
C302 C303 1.345 . S
C303 H295 0.950 . S
C303 C302 1.345 . S
C303 C304 1.424 . S
C304 H296 0.951 . S
C304 C303 1.424 . S
C304 C305 1.347 . S
C305 H297 0.951 . S
C305 C300 1.429 . S
C305 C304 1.347 . S
H306 C307 0.951 . S
C307 H306 0.951 . S
C307 C313 1.265 . S
H308 C313 0.950 . S
H309 C317 0.949 . S
H310 C318 0.950 . S
H311 C319 0.951 . S
H312 C320 0.951 . S
C313 C307 1.265 . S
C313 H308 0.950 . S
C313 C314 1.478 . S
C314 C313 1.478 . S
C314 C315 1.397 . S
C314 C331 1.394 . S
C315 C314 1.397 . S
C315 C316 1.438 . S
C315 C320 1.429 1_565 S
C316 C315 1.438 . S
C316 C317 1.428 1_565 S
C316 C329 1.394 . S
C317 H309 0.949 . S
C317 C316 1.428 1_545 S
C317 C318 1.345 . S
C318 H310 0.950 . S
C318 C317 1.345 . S
C318 C319 1.424 . S
C319 H311 0.951 . S
C319 C318 1.424 . S
C319 C320 1.347 . S
C320 H312 0.951 . S
C320 C315 1.429 1_545 S
C320 C319 1.347 . S
H321 C322 0.951 . S
C322 H321 0.951 . S
C322 C328 1.265 . S
H323 C328 0.950 . S
H324 C332 0.949 . S
H325 C333 0.950 . S
H326 C334 0.951 . S
H327 C335 0.951 . S
C328 C322 1.265 . S
C328 H323 0.950 . S
C328 C329 1.478 . S
C329 C316 1.394 . S
C329 C328 1.478 . S
C329 C330 1.397 . S
C330 C329 1.397 . S
C330 C331 1.438 . S
C330 C335 1.429 . S
C331 C314 1.394 . S
C331 C330 1.438 . S
C331 C332 1.428 . S
C332 H324 0.949 . S
C332 C331 1.428 . S
C332 C333 1.345 . S
C333 H325 0.950 . S
C333 C332 1.345 . S
C333 C334 1.424 . S
C334 H326 0.951 . S
C334 C333 1.424 . S
C334 C335 1.347 . S
C335 H327 0.951 . S
C335 C330 1.429 . S
C335 C334 1.347 . S
H336 C337 0.951 . S
C337 H336 0.951 . S
C337 C343 1.265 . S
H338 C343 0.950 . S
H339 C347 0.949 . S
H340 C348 0.950 . S
H341 C349 0.951 . S
H342 C350 0.951 . S
C343 C337 1.265 . S
C343 H338 0.950 . S
C343 C344 1.478 . S
C344 C343 1.478 . S
C344 C345 1.397 . S
C344 C361 1.394 . S
C345 C344 1.397 . S
C345 C346 1.438 . S
C345 C350 1.429 . S
C346 C345 1.438 . S
C346 C347 1.428 . S
C346 C359 1.394 . S
C347 H339 0.949 . S
C347 C346 1.428 . S
C347 C348 1.345 . S
C348 H340 0.950 . S
C348 C347 1.345 . S
C348 C349 1.424 . S
C349 H341 0.951 . S
C349 C348 1.424 . S
C349 C350 1.347 . S
C350 H342 0.951 . S
C350 C345 1.429 . S
C350 C349 1.347 . S
H351 C352 0.951 . S
C352 H351 0.951 . S
C352 C358 1.265 . S
H353 C358 0.950 . S
H354 C362 0.949 . S
H355 C363 0.950 . S
H356 C364 0.951 . S
H357 C365 0.951 . S
C358 C352 1.265 . S
C358 H353 0.950 . S
C358 C359 1.478 . S
C359 C346 1.394 . S
C359 C358 1.478 . S
C359 C360 1.397 . S
C360 C359 1.397 . S
C360 C361 1.438 . S
C360 C365 1.429 . S
C361 C344 1.394 . S
C361 C360 1.438 . S
C361 C362 1.428 . S
C362 H354 0.949 . S
C362 C361 1.428 . S
C362 C363 1.345 . S
C363 H355 0.950 . S
C363 C362 1.345 . S
C363 C364 1.424 . S
C364 H356 0.951 . S
C364 C363 1.424 . S
C364 C365 1.347 . S
C365 H357 0.951 . S
C365 C360 1.429 . S
C365 C364 1.347 . S
H366 C367 0.951 . S
C367 H366 0.951 . S
C367 C373 1.265 . S
H368 C373 0.950 . S
H369 C377 0.949 . S
H370 C378 0.950 . S
H371 C379 0.951 . S
H372 C380 0.951 . S
C373 C367 1.265 . S
C373 H368 0.950 . S
C373 C374 1.478 . S
C374 C373 1.478 . S
C374 C375 1.397 . S
C374 C391 1.394 . S
C375 C374 1.397 . S
C375 C376 1.438 . S
C375 C380 1.429 . S
C376 C375 1.438 . S
C376 C377 1.428 . S
C376 C389 1.394 . S
C377 H369 0.949 . S
C377 C376 1.428 . S
C377 C378 1.345 . S
C378 H370 0.950 . S
C378 C377 1.345 . S
C378 C379 1.424 . S
C379 H371 0.951 . S
C379 C378 1.424 . S
C379 C380 1.347 . S
C380 H372 0.951 . S
C380 C375 1.429 . S
C380 C379 1.347 . S
H381 C382 0.951 . S
C382 H381 0.951 . S
C382 C388 1.265 . S
H383 C388 0.950 . S
H384 C392 0.949 . S
H385 C393 0.950 . S
H386 C394 0.951 . S
H387 C395 0.947 1_565 S
C388 C382 1.265 . S
C388 H383 0.950 . S
C388 C389 1.478 . S
C389 C376 1.394 . S
C389 C388 1.478 . S
C389 C390 1.397 . S
C390 C389 1.397 . S
C390 C391 1.438 . S
C390 C395 1.429 . S
C391 C374 1.394 . S
C391 C390 1.438 . S
C391 C392 1.428 . S
C392 H384 0.949 . S
C392 C391 1.428 . S
C392 C393 1.345 1_545 S
C393 H385 0.950 . S
C393 C392 1.345 1_565 S
C393 C394 1.424 . S
C394 H386 0.951 . S
C394 C393 1.424 . S
C394 C395 1.347 1_565 S
C395 H387 0.947 1_545 S
C395 C390 1.429 . S
C395 C394 1.347 1_545 S
H396 C397 0.951 . S
C397 H396 0.951 . S
C397 C403 1.265 . S
H398 C403 0.950 . S
H399 C407 0.949 . S
H400 C408 0.950 . S
H401 C409 0.951 . S
H402 C410 0.951 . S
C403 C397 1.265 . S
C403 H398 0.950 . S
C403 C404 1.478 . S
C404 C403 1.478 . S
C404 C405 1.397 . S
C404 C421 1.394 . S
C405 C404 1.397 . S
C405 C406 1.438 . S
C405 C410 1.429 . S
C406 C405 1.438 . S
C406 C407 1.428 . S
C406 C419 1.394 . S
C407 H399 0.949 . S
C407 C406 1.428 . S
C407 C408 1.345 . S
C408 H400 0.950 . S
C408 C407 1.345 . S
C408 C409 1.424 . S
C409 H401 0.951 . S
C409 C408 1.424 . S
C409 C410 1.347 . S
C410 H402 0.951 . S
C410 C405 1.429 . S
C410 C409 1.347 . S
H411 C412 0.951 . S
C412 H411 0.951 . S
C412 C418 1.265 . S
H413 C418 0.950 . S
H414 C422 0.949 . S
H415 C423 0.950 . S
H416 C424 0.951 . S
H417 C425 0.951 . S
C418 C412 1.265 . S
C418 H413 0.950 . S
C418 C419 1.478 . S
C419 C406 1.394 . S
C419 C418 1.478 . S
C419 C420 1.397 . S
C420 C419 1.397 . S
C420 C421 1.438 . S
C420 C425 1.429 . S
C421 C404 1.394 . S
C421 C420 1.438 . S
C421 C422 1.428 . S
C422 H414 0.949 . S
C422 C421 1.428 . S
C422 C423 1.345 . S
C423 H415 0.950 . S
C423 C422 1.345 . S
C423 C424 1.424 . S
C424 H416 0.951 . S
C424 C423 1.424 . S
C424 C425 1.347 . S
C425 H417 0.951 . S
C425 C420 1.429 . S
C425 C424 1.347 . S
H426 C427 0.951 . S
C427 H426 0.951 . S
C427 C433 1.265 . S
H428 C433 0.950 . S
H429 C437 0.949 . S
H430 C438 0.950 . S
H431 C439 0.951 . S
H432 C440 0.951 . S
C433 C427 1.265 . S
C433 H428 0.950 . S
C433 C434 1.478 . S
C434 C433 1.478 . S
C434 C435 1.397 . S
C434 C451 1.394 . S
C435 C434 1.397 . S
C435 C436 1.438 . S
C435 C440 1.429 . S
C436 C435 1.438 . S
C436 C437 1.428 . S
C436 C449 1.394 . S
C437 H429 0.949 . S
C437 C436 1.428 . S
C437 C438 1.345 . S
C438 H430 0.950 . S
C438 C437 1.345 . S
C438 C439 1.424 . S
C439 H431 0.951 . S
C439 C438 1.424 . S
C439 C440 1.347 . S
C440 H432 0.951 . S
C440 C435 1.429 . S
C440 C439 1.347 . S
H441 C442 0.951 . S
C442 H441 0.951 . S
C442 C448 1.265 . S
H443 C448 0.950 . S
H444 C452 0.949 . S
H445 C453 0.950 . S
H446 C454 0.951 . S
H447 C455 0.951 . S
C448 C442 1.265 . S
C448 H443 0.950 . S
C448 C449 1.478 . S
C449 C436 1.394 . S
C449 C448 1.478 . S
C449 C450 1.397 . S
C450 C449 1.397 . S
C450 C451 1.438 . S
C450 C455 1.429 . S
C451 C434 1.394 . S
C451 C450 1.438 . S
C451 C452 1.428 . S
C452 H444 0.949 . S
C452 C451 1.428 . S
C452 C453 1.345 . S
C453 H445 0.950 . S
C453 C452 1.345 . S
C453 C454 1.424 . S
C454 H446 0.951 . S
C454 C453 1.424 . S
C454 C455 1.347 . S
C455 H447 0.951 . S
C455 C450 1.429 . S
C455 C454 1.347 . S
H456 C457 0.951 . S
C457 H456 0.951 . S
C457 C463 1.265 . S
H458 C463 0.950 . S
H459 C467 0.949 . S
H460 C468 0.950 . S
H461 C469 0.951 . S
H462 C470 0.951 . S
C463 C457 1.265 . S
C463 H458 0.950 . S
C463 C464 1.478 . S
C464 C463 1.478 . S
C464 C465 1.397 . S
C464 C481 1.394 . S
C465 C464 1.397 . S
C465 C466 1.438 . S
C465 C470 1.429 . S
C466 C465 1.438 . S
C466 C467 1.428 . S
C466 C479 1.394 . S
C467 H459 0.949 . S
C467 C466 1.428 . S
C467 C468 1.345 . S
C468 H460 0.950 . S
C468 C467 1.345 . S
C468 C469 1.424 . S
C469 H461 0.951 . S
C469 C468 1.424 . S
C469 C470 1.347 . S
C470 H462 0.951 . S
C470 C465 1.429 . S
C470 C469 1.347 . S
H471 C472 0.951 . S
C472 H471 0.951 . S
C472 C478 1.265 . S
H473 C478 0.950 . S
H474 C482 0.949 . S
H475 C483 0.950 1_565 S
H476 C484 0.951 . S
H477 C485 0.951 . S
C478 C472 1.265 . S
C478 H473 0.950 . S
C478 C479 1.478 . S
C479 C466 1.394 . S
C479 C478 1.478 . S
C479 C480 1.397 . S
C480 C479 1.397 . S
C480 C481 1.438 . S
C480 C485 1.429 . S
C481 C464 1.394 . S
C481 C480 1.438 . S
C481 C482 1.428 . S
C482 H474 0.949 . S
C482 C481 1.428 . S
C482 C483 1.345 . S
C483 H475 0.950 1_545 S
C483 C482 1.345 . S
C483 C484 1.424 1_545 S
C484 H476 0.951 . S
C484 C483 1.424 1_565 S
C484 C485 1.347 1_565 S
C485 H477 0.951 . S
C485 C480 1.429 . S
C485 C484 1.347 1_545 S
H486 C487 0.951 . S
C487 H486 0.951 . S
C487 C493 1.265 . S
H488 C493 0.950 . S
H489 C497 0.949 . S
H490 C498 0.950 . S
H491 C499 0.951 . S
H492 C500 0.951 . S
C493 C487 1.265 . S
C493 H488 0.950 . S
C493 C494 1.478 . S
C494 C493 1.478 . S
C494 C495 1.397 . S
C494 C511 1.394 . S
C495 C494 1.397 . S
C495 C496 1.438 . S
C495 C500 1.429 . S
C496 C495 1.438 . S
C496 C497 1.428 . S
C496 C509 1.394 . S
C497 H489 0.949 . S
C497 C496 1.428 . S
C497 C498 1.345 . S
C498 H490 0.950 . S
C498 C497 1.345 . S
C498 C499 1.424 . S
C499 H491 0.951 . S
C499 C498 1.424 . S
C499 C500 1.347 . S
C500 H492 0.951 . S
C500 C495 1.429 . S
C500 C499 1.347 . S
H501 C502 0.951 . S
C502 H501 0.951 . S
C502 C508 1.265 . S
H503 C508 0.950 . S
H504 C512 0.949 . S
H505 C513 0.950 . S
H506 C514 0.951 . S
H507 C515 0.951 . S
C508 C502 1.265 . S
C508 H503 0.950 . S
C508 C509 1.478 . S
C509 C496 1.394 . S
C509 C508 1.478 . S
C509 C510 1.397 . S
C510 C509 1.397 . S
C510 C511 1.438 . S
C510 C515 1.429 . S
C511 C494 1.394 . S
C511 C510 1.438 . S
C511 C512 1.428 . S
C512 H504 0.949 . S
C512 C511 1.428 . S
C512 C513 1.345 . S
C513 H505 0.950 . S
C513 C512 1.345 . S
C513 C514 1.424 . S
C514 H506 0.951 . S
C514 C513 1.424 . S
C514 C515 1.347 . S
C515 H507 0.951 . S
C515 C510 1.429 . S
C515 C514 1.347 . S
H516 C517 0.951 . S
C517 H516 0.951 . S
C517 C523 1.265 . S
H518 C523 0.950 . S
H519 C527 0.949 . S
H520 C528 0.950 . S
H521 C529 0.951 . S
H522 C530 0.951 . S
C523 C517 1.265 . S
C523 H518 0.950 . S
C523 C524 1.478 . S
C524 C523 1.478 . S
C524 C525 1.397 . S
C524 C541 1.394 . S
C525 C524 1.397 . S
C525 C526 1.438 . S
C525 C530 1.429 1_565 S
C526 C525 1.438 . S
C526 C527 1.428 1_565 S
C526 C539 1.394 . S
C527 H519 0.949 . S
C527 C526 1.428 1_545 S
C527 C528 1.345 . S
C528 H520 0.950 . S
C528 C527 1.345 . S
C528 C529 1.424 . S
C529 H521 0.951 . S
C529 C528 1.424 . S
C529 C530 1.347 . S
C530 H522 0.951 . S
C530 C525 1.429 1_545 S
C530 C529 1.347 . S
H531 C532 0.951 . S
C532 H531 0.951 . S
C532 C538 1.265 . S
H533 C538 0.950 . S
H534 C542 0.949 . S
H535 C543 0.950 . S
H536 C544 0.951 . S
H537 C545 0.951 . S
C538 C532 1.265 . S
C538 H533 0.950 . S
C538 C539 1.478 . S
C539 C526 1.394 . S
C539 C538 1.478 . S
C539 C540 1.397 . S
C540 C539 1.397 . S
C540 C541 1.438 . S
C540 C545 1.429 . S
C541 C524 1.394 . S
C541 C540 1.438 . S
C541 C542 1.428 . S
C542 H534 0.949 . S
C542 C541 1.428 . S
C542 C543 1.345 . S
C543 H535 0.950 . S
C543 C542 1.345 . S
C543 C544 1.424 . S
C544 H536 0.951 . S
C544 C543 1.424 . S
C544 C545 1.347 . S
C545 H537 0.951 . S
C545 C540 1.429 . S
C545 C544 1.347 . S
C202 C160 1.298 . S
C187 C133 1.446 . S
C217 C25 1.489 . S
C232 C181 1.363 . S
C247 C61 1.697 . S
C262 C157 1.479 . S
C277 C97 1.605 . S
C292 C178 1.459 . S
C322 C162 1.651 . S
C307 C1 1.614 . S
C352 C182 1.585 . S
C337 C67 1.574 . S
C367 C103 1.576 . S
C382 C158 1.522 . S
C397 C109 1.614 . S
C412 C180 1.551 . S
C442 C179 1.494 . S
C427 C37 1.567 . S
C472 C161 1.592 . S
C457 C73 1.551 . S
C502 C183 1.655 . S
C487 C139 1.548 . S
C517 C31 1.637 . S
C532 C159 1.531 . S
