# Generated by pormake.
# Topology zzz, (3,6)-cn, num edge types: 1
# Building blocks:
#     Node 0, Type 0, BuildingBlock: BETDAH_clean_linker_0, # of connection points: 3
#     Node 1, Type 0, BuildingBlock: BETDAH_clean_linker_0, # of connection points: 3
#     Node 2, Type 0, BuildingBlock: BETDAH_clean_linker_0, # of connection points: 3
#     Node 3, Type 0, BuildingBlock: BETDAH_clean_linker_0, # of connection points: 3
#     Node 4, Type 0, BuildingBlock: BETDAH_clean_linker_0, # of connection points: 3
#     Node 5, Type 0, BuildingBlock: BETDAH_clean_linker_0, # of connection points: 3
#     Node 6, Type 0, BuildingBlock: BETDAH_clean_linker_0, # of connection points: 3
#     Node 7, Type 0, BuildingBlock: BETDAH_clean_linker_0, # of connection points: 3
#     Node 8, Type 1, BuildingBlock: KUMBOL_clean_sbu_1, # of connection points: 6
#     Node 9, Type 1, BuildingBlock: KUMBOL_clean_sbu_1, # of connection points: 6
#     Node 10, Type 1, BuildingBlock: KUMBOL_clean_sbu_1, # of connection points: 6
#     Node 11, Type 1, BuildingBlock: KUMBOL_clean_sbu_1, # of connection points: 6
#     Edge 12, Type (0, 1), BuildingBlock: AJUNOK_clean_linker_0, # of connection points: 2
#     Edge 13, Type (0, 1), BuildingBlock: AJUNOK_clean_linker_0, # of connection points: 2
#     Edge 14, Type (0, 1), BuildingBlock: AJUNOK_clean_linker_0, # of connection points: 2
#     Edge 15, Type (0, 1), BuildingBlock: AJUNOK_clean_linker_0, # of connection points: 2
#     Edge 16, Type (0, 1), BuildingBlock: AJUNOK_clean_linker_0, # of connection points: 2
#     Edge 17, Type (0, 1), BuildingBlock: AJUNOK_clean_linker_0, # of connection points: 2
#     Edge 18, Type (0, 1), BuildingBlock: AJUNOK_clean_linker_0, # of connection points: 2
#     Edge 19, Type (0, 1), BuildingBlock: AJUNOK_clean_linker_0, # of connection points: 2
#     Edge 20, Type (0, 1), BuildingBlock: AJUNOK_clean_linker_0, # of connection points: 2
#     Edge 21, Type (0, 1), BuildingBlock: AJUNOK_clean_linker_0, # of connection points: 2
#     Edge 22, Type (0, 1), BuildingBlock: AJUNOK_clean_linker_0, # of connection points: 2
#     Edge 23, Type (0, 1), BuildingBlock: AJUNOK_clean_linker_0, # of connection points: 2
#     Edge 24, Type (0, 1), BuildingBlock: AJUNOK_clean_linker_0, # of connection points: 2
#     Edge 25, Type (0, 1), BuildingBlock: AJUNOK_clean_linker_0, # of connection points: 2
#     Edge 26, Type (0, 1), BuildingBlock: AJUNOK_clean_linker_0, # of connection points: 2
#     Edge 27, Type (0, 1), BuildingBlock: AJUNOK_clean_linker_0, # of connection points: 2
#     Edge 28, Type (0, 1), BuildingBlock: AJUNOK_clean_linker_0, # of connection points: 2
#     Edge 29, Type (0, 1), BuildingBlock: AJUNOK_clean_linker_0, # of connection points: 2
#     Edge 30, Type (0, 1), BuildingBlock: AJUNOK_clean_linker_0, # of connection points: 2
#     Edge 31, Type (0, 1), BuildingBlock: AJUNOK_clean_linker_0, # of connection points: 2
#     Edge 32, Type (0, 1), BuildingBlock: AJUNOK_clean_linker_0, # of connection points: 2
#     Edge 33, Type (0, 1), BuildingBlock: AJUNOK_clean_linker_0, # of connection points: 2
#     Edge 34, Type (0, 1), BuildingBlock: AJUNOK_clean_linker_0, # of connection points: 2
#     Edge 35, Type (0, 1), BuildingBlock: AJUNOK_clean_linker_0, # of connection points: 2
# Relax obj value: 0.242
# Max RMSD: 0.126
# Mean RMSD: 0.086
data_MOF--net-zzz--node1-KUMBOL_clean_sbu_1--node2-BETDAH_clean_linker_0--edge1-AJUNOK_clean_linker_0
_symmetry_space_group_name_H-M    P1
_symmetry_Int_Tables_number       1
_symmetry_cell_setting            triclinic
loop_
_symmetry_equiv_pos_as_xyz
'x, y, z'
_cell_length_a     36.492886
_cell_length_b     36.637236
_cell_length_c     11.658665
_cell_angle_alpha  89.512887
_cell_angle_beta   90.803256
_cell_angle_gamma 90.367553
loop_
_atom_site_label
_atom_site_type_symbol
_atom_site_fract_x
_atom_site_fract_y
_atom_site_fract_z
_atom_type_partial_charge
H0 H 0.86061 0.4988 0.33597 0.0
H1 H 0.75636 0.52498 0.18613 0.0
H2 H 0.7935 0.58015 0.49391 0.0
C3 C 0.83526 0.51402 0.34041 0.0
C4 C 0.83065 0.53909 0.42922 0.0
C5 C 0.80859 0.50896 0.25425 0.0
C6 C 0.77641 0.52927 0.25414 0.0
C7 C 0.77029 0.55513 0.33966 0.0
C8 C 0.79783 0.56026 0.4274 0.0
N9 N 0.73698 0.576 0.33756 0.0
C10 C 0.70839 0.57248 0.25486 0.0
H11 H 0.0852 0.86995 0.32307 0.0
H12 H 0.06051 0.76634 0.1746 0.0
H13 H 1.00172 0.80177 0.47363 0.0
C14 C 0.07012 0.84438 0.32769 0.0
C15 C 0.04414 0.83927 0.4139 0.0
C16 C 0.07646 0.81798 0.24421 0.0
C17 C 0.0556 0.78596 0.24155 0.0
C18 C 0.02833 0.77949 0.32293 0.0
C19 C 1.02253 0.80648 0.40978 0.0
N20 N 1.00673 0.74643 0.31747 0.0
C21 C 1.01075 0.71824 0.23587 0.0
H22 H 0.70797 0.97735 0.38647 0.0
H23 H 0.80898 0.98724 0.20195 0.0
H24 H 0.78448 0.06159 0.47548 0.0
C25 C 0.73503 0.98933 0.37689 0.0
C26 C 0.74335 1.01992 0.44249 0.0
C27 C 0.75756 0.97827 0.28665 0.0
C28 C 0.79199 0.99517 0.27287 0.0
C29 C 0.80268 1.02461 0.34297 0.0
C30 C 0.77765 0.0375 0.42621 0.0
N31 N 0.83688 0.04336 0.32642 0.0
C32 C 0.86338 0.03617 0.24269 0.0
H33 H 0.48746 0.72054 0.3065 0.0
H34 H 0.50819 0.82614 0.16545 0.0
H35 H 0.55997 0.79497 0.48697 0.0
C36 C 0.50055 0.74696 0.31683 0.0
C37 C 0.52357 0.75353 0.41247 0.0
C38 C 0.49477 0.77319 0.23039 0.0
C39 C 0.51287 0.80664 0.2344 0.0
C40 C 0.53694 0.81485 0.32515 0.0
C41 C 0.54207 0.78827 0.4154 0.0
N42 N 0.556 0.84938 0.32541 0.0
C43 C 0.55282 0.87648 0.23836 0.0
H44 H 0.2138 0.52765 0.22419 0.0
H45 H 0.32638 0.51482 0.31723 0.0
H46 H 0.29576 0.53463 0.96247 0.0
C47 C 0.24187 0.5248 0.19741 0.0
C48 C 0.25019 0.52933 0.08082 0.0
C49 C 0.2694 0.51979 0.28134 0.0
C50 C 0.30587 0.51832 0.25002 0.0
C51 C 0.31633 0.5248 0.13697 0.0
C52 C 0.28817 0.52949 0.05061 0.0
N53 N 0.35477 0.52888 0.11311 0.0
C54 C 0.38245 0.53049 0.19975 0.0
H55 H 0.98292 0.22287 0.1605 0.0
H56 H 1.0039 0.32674 0.30723 0.0
H57 H 0.06349 0.29432 1.00765 0.0
C58 C 0.99707 0.24893 0.15518 0.0
C59 C 1.02248 0.25513 0.06773 0.0
C60 C 0.98976 0.27516 0.23802 0.0
C61 C 1.0096 0.30762 0.24072 0.0
C62 C 0.03664 0.31528 0.16025 0.0
C63 C 0.04309 0.28872 0.07207 0.0
N64 N 0.05692 0.34923 0.16802 0.0
C65 C 0.05264 0.37634 0.25379 0.0
H66 H 0.3597 0.99596 0.18361 0.0
H67 H 0.25181 1.01405 0.30287 0.0
H68 H 0.29104 0.07541 1.01059 0.0
C69 C 0.33381 1.0097 0.16983 0.0
C70 C 0.32974 0.03543 0.08035 0.0
C71 C 0.30539 1.00073 0.24458 0.0
C72 C 0.27294 1.02052 0.24149 0.0
C73 C 0.26792 0.04846 0.15958 0.0
C74 C 0.29601 0.05518 0.07689 0.0
N75 N 0.235 0.06975 0.15856 0.0
C76 C 0.20593 0.06612 0.23677 0.0
H77 H 0.54334 0.37855 0.22102 0.0
H78 H 0.51978 0.26954 0.33062 0.0
H79 H 0.52476 0.29517 0.96876 0.0
C80 C 0.53615 0.35081 0.19823 0.0
C81 C 0.53295 0.34152 0.08172 0.0
C82 C 0.53187 0.32487 0.28682 0.0
C83 C 0.52351 0.28882 0.26084 0.0
C84 C 0.52205 0.27702 0.14737 0.0
C85 C 0.52593 0.30377 0.05689 0.0
N86 N 0.51831 0.23848 0.12536 0.0
C87 C 0.5191 0.21068 0.21126 0.0
C88 C 0.13054 0.10803 0.89583 0.0
C89 C 0.11728 0.12671 0.09464 0.0
C90 C 0.1101 0.10402 0.99685 0.0
C91 C 0.13931 0.15844 0.07021 0.0
C92 C 0.15633 0.13642 0.88466 0.0
C93 C 0.15942 0.16226 0.97031 0.0
N94 N 0.12408 0.08506 0.80622 0.0
C95 C 0.14538 0.08657 0.71075 0.0
C96 C 0.17682 0.1394 0.78442 0.0
C97 C 0.17179 0.11388 0.69791 0.0
Gd98 Gd 0.98974 0.05467 0.64075 0.0
Gd99 Gd 0.07817 0.04111 0.83264 0.0
N100 N 0.08282 0.07873 0.99708 0.0
C101 C 0.10238 0.11663 0.21092 0.0
C102 C 0.0619 0.07478 0.09109 0.0
C103 C 0.06964 0.09386 0.19185 0.0
H104 H 0.03996 0.05517 0.09282 0.0
H105 H 0.05057 0.08715 0.25913 0.0
H106 H 0.02802 0.03824 0.38161 0.0
H107 H 0.14323 0.06601 0.64611 0.0
H108 H 1.01607 1.00646 0.21532 0.0
H109 H 0.13017 0.13248 0.40642 0.0
H110 H 0.14278 0.18115 0.12705 0.0
H111 H 0.9233 0.03288 0.82648 0.0
H112 H 0.19683 0.1611 0.77355 0.0
H113 H 0.18826 0.11516 0.62145 0.0
H114 H 0.92016 0.9164 0.34851 0.0
H115 H 0.17722 0.18584 0.9599 0.0
H116 H 0.86689 0.93908 0.70127 0.0
H117 H 0.87656 0.98539 0.85164 0.0
N118 N 0.94237 1.01238 0.66791 0.0
C119 C 0.93541 0.98923 0.57908 0.0
C120 C 0.92072 1.01206 0.76271 0.0
C121 C 0.88775 0.95996 0.69029 0.0
C122 C 0.89336 0.98571 0.77582 0.0
C123 C 0.90862 0.96181 0.5906 0.0
H124 H 0.88585 0.91313 0.5159 0.0
N125 N 0.98403 1.01678 0.4771 0.0
C126 C 0.95593 0.99239 0.47785 0.0
C127 C 0.96312 0.97922 0.26386 0.0
C128 C 0.9479 0.96984 0.38034 0.0
C129 C 1.00521 1.01964 0.38326 0.0
C130 C 0.99674 1.00067 0.2827 0.0
O131 O 0.06284 0.10098 0.7919 0.0
O132 O 1.00046 0.10042 0.77034 0.0
O133 O 0.97769 0.10117 0.52807 0.0
O134 O 0.93387 0.0685 0.59782 0.0
O135 O 1.02385 1.02469 0.91996 0.0
O136 O 0.9818 0.06266 0.83193 0.0
O137 O 1.00445 0.99473 0.6799 0.0
O138 O 0.06678 0.99451 0.70651 0.0
O139 O 0.09188 0.99676 0.95178 0.0
O140 O 0.13461 0.02722 0.86742 0.0
O141 O 0.04422 0.06996 0.55296 0.0
O142 O 0.08639 0.03225 0.64177 0.0
C143 C 0.03108 0.11772 0.79943 0.0
C144 C 0.99227 0.04233 0.92018 0.0
C145 C 0.9221 0.13102 0.57791 0.0
C146 C 0.91134 0.196 0.55502 0.0
C147 C 0.8723 0.16035 0.67906 0.0
C148 C 0.89232 0.12902 0.65371 0.0
C149 C 0.88164 0.19392 0.6293 0.0
C150 C 0.93135 0.16468 0.5296 0.0
C151 C 0.9424 0.0982 0.54384 0.0
C152 C 0.92468 0.93898 0.40519 0.0
C153 C 0.90458 0.93597 0.50533 0.0
H154 H 0.93451 0.96431 0.06886 0.0
C155 C 0.03608 0.97763 0.67581 0.0
C156 C 0.07575 0.05222 0.55289 0.0
C157 C 0.14655 0.96516 0.90149 0.0
C158 C 0.15487 0.89988 0.92906 0.0
C159 C 0.19758 0.93395 0.81253 0.0
C160 C 0.178 0.96595 0.8325 0.0
C161 C 0.18624 0.90089 0.86151 0.0
C162 C 0.13521 0.93189 0.94882 0.0
C163 C 0.12685 0.99898 0.92991 0.0
H164 H 0.8494 0.15853 0.73688 0.0
H165 H 0.88422 0.10331 0.69261 0.0
H166 H 0.86577 0.21798 0.64797 0.0
H167 H 0.95373 0.16649 0.46938 0.0
H168 H 0.2218 0.93487 0.76002 0.0
H169 H 0.18779 0.99129 0.79504 0.0
H170 H 0.20191 0.87636 0.84751 0.0
H171 H 0.11159 0.93094 1.00431 0.0
C172 C 0.55438 0.92619 0.68612 0.0
C173 C 0.50677 0.89323 0.78844 0.0
C174 C 0.51979 0.92551 0.73558 0.0
C175 C 0.52955 0.86257 0.79684 0.0
C176 C 0.57689 0.89505 0.6918 0.0
C177 C 0.56448 0.86347 0.7487 0.0
N178 N 0.56579 0.95723 0.63156 0.0
C179 C 0.59862 0.95822 0.5769 0.0
C180 C 0.61108 0.89642 0.63896 0.0
C181 C 0.62186 0.92805 0.58064 0.0
Gd182 Gd 0.55075 0.08238 0.85291 0.0
Gd183 Gd 0.5242 1.00608 0.63116 0.0
N184 N 0.49824 0.95572 0.72709 0.0
C185 C 0.47066 0.8922 0.82705 0.0
C186 C 0.46197 0.95324 0.75241 0.0
C187 C 0.44788 0.922 0.80603 0.0
H188 H 0.44338 0.97479 0.7284 0.0
H189 H 0.41925 0.92067 0.82887 0.0
H190 H 0.63217 0.1069 0.7455 0.0
H191 H 0.60677 0.98187 0.52824 0.0
H192 H 0.66443 0.16263 0.68492 0.0
H193 H 0.4596 0.8679 0.86774 0.0
H194 H 0.52005 0.83773 0.83811 0.0
H195 H 0.47122 0.11168 0.9705 0.0
H196 H 0.62911 0.87303 0.64118 0.0
H197 H 0.64795 0.92914 0.53764 0.0
H198 H 0.57748 0.25815 0.74418 0.0
H199 H 0.58146 0.83934 0.75424 0.0
H200 H 0.46257 0.22616 0.91 0.0
H201 H 0.43696 0.1685 0.9862 0.0
N202 N 0.516 0.13576 0.88121 0.0
C203 C 0.53137 0.16761 0.84456 0.0
C204 C 0.48277 0.13607 0.93361 0.0
C205 C 0.47781 0.20105 0.90159 0.0
C206 C 0.46318 0.16853 0.94403 0.0
C207 C 0.51253 0.201 0.85263 0.0
H208 H 0.51438 0.2589 0.81439 0.0
N209 N 0.58288 0.13415 0.78728 0.0
C210 C 0.56618 0.16689 0.79909 0.0
C211 C 0.6194 0.19792 0.72359 0.0
C212 C 0.58366 0.19963 0.76492 0.0
C213 C 0.6179 0.13246 0.74808 0.0
C214 C 0.6366 0.16419 0.71534 0.0
O215 O 0.55643 0.99127 0.79455 0.0
O216 O 0.53059 0.0279 0.92394 0.0
O217 O 0.60226 0.08401 0.94515 0.0
O218 O 0.55215 0.0941 0.03626 0.0
O219 O 0.47408 0.03229 0.71582 0.0
O220 O 0.49363 0.05988 0.88357 0.0
O221 O 0.53248 0.10703 0.68024 0.0
O222 O 0.53007 0.06161 0.54154 0.0
O223 O 0.47731 1.00405 0.51669 0.0
O224 O 0.52482 0.97156 0.47937 0.0
O225 O 0.59567 0.04961 0.76434 0.0
O226 O 0.57509 0.03792 0.58204 0.0
C227 C 0.54502 0.99641 0.89886 0.0
C228 C 0.46727 0.048 0.81503 0.0
C229 C 0.59501 0.05292 0.12004 0.0
C230 C 0.63081 0.99748 0.15767 0.0
C231 C 0.58619 1.01867 0.29571 0.0
C232 C 0.57784 0.04862 0.22585 0.0
C233 C 0.61314 0.99392 0.26405 0.0
C234 C 0.61979 1.02609 0.08422 0.0
C235 C 0.5864 0.08434 0.0443 0.0
C236 C 0.5648 0.23279 0.77152 0.0
C237 C 0.52902 0.23332 0.81287 0.0
H238 H 0.63412 0.22242 0.69904 0.0
C239 C 0.52882 0.09634 0.5725 0.0
C240 C 0.60196 0.04613 0.65374 0.0
C241 C 0.46578 0.94361 0.46315 0.0
C242 C 0.40321 0.91982 0.4683 0.0
C243 C 0.45461 0.87873 0.4939 0.0
C244 C 0.47912 0.90807 0.48172 0.0
C245 C 0.41671 0.8845 0.48729 0.0
C246 C 0.42796 0.94891 0.45511 0.0
C247 C 0.48991 0.97621 0.46124 0.0
H248 H 0.5727 1.01545 0.37683 0.0
H249 H 0.55803 0.06832 0.2543 0.0
H250 H 0.62118 0.97336 0.3261 0.0
H251 H 0.63159 0.02816 0.99984 0.0
H252 H 0.46505 0.85146 0.50832 0.0
H253 H 0.50827 0.90296 0.48784 0.0
H254 H 0.39808 0.86152 0.49545 0.0
H255 H 0.41766 0.97612 0.43704 0.0
C256 C 0.47124 0.47986 0.97444 0.0
C257 C 0.50791 0.46871 0.14628 0.0
C258 C 0.49945 0.49045 0.04894 0.0
C259 C 0.48828 0.43624 0.16614 0.0
C260 C 0.45067 0.4479 0.99653 0.0
C261 C 0.4596 0.42599 0.09204 0.0
N262 N 0.46433 0.50047 0.879 0.0
C263 C 0.43634 0.49159 0.80491 0.0
C264 C 0.42186 0.43874 0.92137 0.0
C265 C 0.41463 0.46072 0.82533 0.0
Gd266 Gd 0.58146 0.54154 0.64445 0.0
Gd267 Gd 0.50091 0.55293 0.85616 0.0
N268 N 0.51755 0.52252 0.02912 0.0
C269 C 0.53482 0.48098 0.22353 0.0
C270 C 0.53962 0.53682 0.11346 0.0
C271 C 0.55003 0.51564 0.20857 0.0
H272 H 0.54932 0.56464 0.10903 0.0
H273 H 0.56928 0.52633 0.27134 0.0
H274 H 0.52825 0.56667 0.41312 0.0
H275 H 0.43077 0.50859 0.73051 0.0
H276 H 0.52823 0.6133 0.26281 0.0
H277 H 0.54247 0.46486 0.29839 0.0
H278 H 0.49399 0.41969 0.24141 0.0
H279 H 0.65763 0.55832 0.80377 0.0
H280 H 0.40527 0.41457 0.9361 0.0
H281 H 0.39248 0.45376 0.76665 0.0
H282 H 0.64053 0.67884 0.32366 0.0
H283 H 0.44432 0.40118 0.10987 0.0
H284 H 0.71658 0.64548 0.6441 0.0
H285 H 0.71059 0.60004 0.80075 0.0
N286 N 0.63173 0.5819 0.6564 0.0
C287 C 0.63472 0.60641 0.56852 0.0
C288 C 0.65867 0.57933 0.7387 0.0
C289 C 0.6927 0.62778 0.64655 0.0
C290 C 0.68929 0.60237 0.73557 0.0
C291 C 0.66534 0.63003 0.56156 0.0
H292 H 0.6908 0.67387 0.4648 0.0
N293 N 0.57728 0.58543 0.49513 0.0
C294 C 0.60667 0.60845 0.48635 0.0
C295 C 0.57953 0.63694 0.31786 0.0
C296 C 0.60846 0.63481 0.39745 0.0
C297 C 0.54994 0.58642 0.41392 0.0
C298 C 0.55028 0.61251 0.32586 0.0
O299 O 0.5122 0.4956 0.78565 0.0
O300 O 0.57402 0.49463 0.77531 0.0
O301 O 0.58812 0.50509 0.50089 0.0
O302 O 0.63536 0.52185 0.60115 0.0
O303 O 0.55825 0.57439 0.91171 0.0
O304 O 0.59567 0.53225 0.83154 0.0
O305 O 0.56862 0.60065 0.69369 0.0
O306 O 0.50692 0.59954 0.72494 0.0
O307 O 0.48479 0.59616 0.97197 0.0
O308 O 0.44377 0.56172 0.89407 0.0
O309 O 0.5241 0.52483 0.57152 0.0
O310 O 0.48204 0.5585 0.67185 0.0
C311 C 0.54305 0.47768 0.79939 0.0
C312 C 0.5895 0.55619 0.91178 0.0
C313 C 0.63548 0.46284 0.53177 0.0
C314 C 0.61924 0.39922 0.56474 0.0
C315 C 0.67853 0.41606 0.48299 0.0
C316 C 0.66902 0.45277 0.48574 0.0
C317 C 0.65347 0.38938 0.51819 0.0
C318 C 0.61275 0.43647 0.58157 0.0
C319 C 0.62303 0.50047 0.52181 0.0
C320 C 0.6389 0.65828 0.39072 0.0
C321 C 0.66751 0.65552 0.47135 0.0
H322 H 0.57974 0.657 0.24905 0.0
C323 C 0.53666 0.61717 0.69176 0.0
C324 C 0.49102 0.53964 0.581 0.0
C325 C 0.42894 0.6237 0.91061 0.0
C326 C 0.42018 0.68936 0.91356 0.0
C327 C 0.38009 0.6519 0.79651 0.0
C328 C 0.3991 0.6207 0.83298 0.0
C329 C 0.39046 0.68631 0.83711 0.0
C330 C 0.43906 0.65815 0.95038 0.0
C331 C 0.44996 0.59147 0.94984 0.0
H332 H 0.70425 0.40809 0.44571 0.0
H333 H 0.68733 0.47312 0.4497 0.0
H334 H 0.66037 0.36151 0.49954 0.0
H335 H 0.58792 0.44524 0.622 0.0
H336 H 0.35716 0.64934 0.73713 0.0
H337 H 0.39044 0.59438 0.80034 0.0
H338 H 0.37539 0.71029 0.80968 0.0
H339 H 0.46161 0.66085 1.01152 0.0
C340 C 0.10117 0.47728 1.0096 0.0
C341 C 0.11139 0.51529 0.17649 0.0
C342 C 0.09058 0.50638 0.07757 0.0
C343 C 0.14287 0.49525 0.20471 0.0
C344 C 0.13242 0.45658 0.03939 0.0
C345 C 0.15335 0.46592 0.13679 0.0
N346 N 0.08166 0.47 0.91204 0.0
C347 C 0.09077 0.44135 0.84363 0.0
C348 C 0.14214 0.42749 0.96908 0.0
C349 C 0.12113 0.41976 0.87111 0.0
Gd350 Gd 0.05144 0.58389 0.65477 0.0
Gd351 Gd 0.03046 0.50719 0.87585 0.0
N352 N 0.0596 0.52526 0.04922 0.0
C353 C 0.09957 0.54363 0.24601 0.0
C354 C 0.04553 0.54926 0.12607 0.0
C355 C 0.06617 0.5603 0.22162 0.0
H356 H 1.01824 0.55994 0.1157 0.0
H357 H 0.05601 0.58121 0.2776 0.0
H358 H 1.01745 0.5327 0.43476 0.0
H359 H 0.07458 0.43544 0.76757 0.0
H360 H 0.97094 0.53788 0.28262 0.0
H361 H 0.11523 0.5517 0.32131 0.0
H362 H 0.15872 0.50179 0.28081 0.0
H363 H 0.05105 0.66455 0.79081 0.0
H364 H 0.16593 0.41098 0.98932 0.0
H365 H 0.12843 0.3973 0.81641 0.0
H366 H 0.92183 0.65773 0.32762 0.0
H367 H 0.17762 0.45058 0.16056 0.0
H368 H 0.97084 0.73266 0.62739 0.0
H369 H 1.01781 0.72281 0.77927 0.0
N370 N 1.02216 0.64085 0.64977 0.0
C371 C 0.99712 0.64605 0.56378 0.0
C372 C 0.02991 0.66805 0.72606 0.0
C373 C 0.98515 0.70686 0.63255 0.0
C374 C 1.01152 0.70135 0.71872 0.0
C375 C 0.9776 0.67907 0.55389 0.0
H376 H 0.93524 0.70817 0.45927 0.0
N377 N 1.00862 0.58585 0.50118 0.0
C378 C 0.99039 0.61793 0.4867 0.0
C379 C 0.95637 0.59282 0.32591 0.0
C380 C 0.9634 0.62203 0.39966 0.0
C381 C 1.00225 0.55757 0.42777 0.0
C382 C 0.97597 0.56053 0.33986 0.0
O383 O 0.08928 0.51531 0.80964 0.0
O384 O 0.09283 0.57642 0.80245 0.0
O385 O 0.09484 0.57765 0.53223 0.0
O386 O 0.08126 0.63151 0.59245 0.0
O387 O 1.00947 0.56532 0.91684 0.0
O388 O 0.0557 0.59944 0.84155 0.0
O389 O 0.98994 0.5751 0.68364 0.0
O390 O 0.98417 0.51543 0.74371 0.0
O391 O 0.98704 0.4922 0.99448 0.0
O392 O 1.01856 0.45055 0.91412 0.0
O393 O 0.06162 0.52508 0.58892 0.0
O394 O 1.02497 0.48632 0.69515 0.0
C395 C 0.10877 0.54514 0.82556 0.0
C396 C 0.02851 0.59624 0.91313 0.0
C397 C 0.14333 0.61436 0.59919 0.0
C398 C 0.20128 0.58364 0.63536 0.0
C399 C 0.18417 0.63473 0.75317 0.0
C400 C 0.15119 0.63799 0.69119 0.0
C401 C 0.20912 0.6074 0.72617 0.0
C402 C 0.16912 0.58832 0.57008 0.0
C403 C 0.10627 0.61114 0.54814 0.0
C404 C 0.94344 0.65457 0.39141 0.0
C405 C 0.95079 0.68316 0.46731 0.0
H406 H 0.93576 0.59483 0.25844 0.0
C407 C 0.97017 0.54508 0.6954 0.0
C408 C 0.04464 0.49317 0.60368 0.0
C409 C 0.95632 0.43707 0.94076 0.0
C410 C 0.89015 0.42984 0.94994 0.0
C411 C 0.92582 0.38542 0.84863 0.0
C412 C 0.9579 0.40484 0.87581 0.0
C413 C 0.8919 0.39766 0.88661 0.0
C414 C 0.92226 0.4493 0.97689 0.0
C415 C 0.98992 0.45744 0.97366 0.0
H416 H 0.19002 0.65291 0.82388 0.0
H417 H 0.13151 0.65814 0.71765 0.0
H418 H 0.23441 0.60492 0.77527 0.0
H419 H 0.16356 0.5709 0.49693 0.0
H420 H 0.92732 0.36063 0.79912 0.0
H421 H 0.98386 0.39446 0.84668 0.0
H422 H 0.86728 0.38211 0.86724 0.0
H423 H 0.92064 0.47363 0.02897 0.0
C424 C 0.16207 0.0322 0.36803 0.0
C425 C 0.17342 0.06449 0.31002 0.0
C426 C 0.13004 0.02856 0.43856 0.0
C427 C 0.1021 0.05528 0.45367 0.0
H428 H 0.17966 1.00858 0.36285 0.0
H429 H 0.12741 1.00308 0.48563 0.0
S430 S 0.10844 0.17196 0.31334 0.0
N431 N 0.15664 0.13751 0.27589 0.0
N432 N 0.08061 0.12532 0.38963 0.0
C433 C 0.10607 0.0868 0.38798 0.0
C434 C 0.15024 0.09385 0.3189 0.0
C435 C 0.53984 0.18751 0.40545 0.0
C436 C 0.5207 0.18172 0.30134 0.0
C437 C 0.54206 0.16016 0.492 0.0
C438 C 0.52553 0.1254 0.47917 0.0
H439 H 0.55348 0.21338 0.42029 0.0
H440 H 0.55771 0.16613 0.56849 0.0
S441 S 0.4711 0.09635 0.22399 0.0
N442 N 0.48391 0.13856 0.19237 0.0
N443 N 0.48865 0.08738 0.35235 0.0
C444 C 0.5063 0.11931 0.37518 0.0
C445 C 0.50371 0.14732 0.28752 0.0
C446 C 0.43806 0.50745 0.30853 0.0
C447 C 0.40961 0.53302 0.29521 0.0
C448 C 0.46425 0.50961 0.39976 0.0
C449 C 0.46292 0.53728 0.48331 0.0
H450 H 0.43969 0.48535 0.24835 0.0
H451 H 0.48527 0.48898 0.40624 0.0
S452 S 0.39212 0.61013 0.4903 0.0
N453 N 0.38097 0.58626 0.37533 0.0
N454 N 0.42889 0.5904 0.54611 0.0
C455 C 0.43382 0.56261 0.47157 0.0
C456 C 0.40759 0.56049 0.37811 0.0
C457 C 0.0749 0.43542 0.34294 0.0
C458 C 0.04992 0.40578 0.3411 0.0
C459 C 0.07305 0.46364 0.42598 0.0
C460 C 0.04622 0.46355 0.51246 0.0
H461 H 0.09629 0.43664 0.27983 0.0
H462 H 0.09324 0.48539 0.42347 0.0
S463 S 0.97353 0.39242 0.545 0.0
N464 N 0.99692 0.37893 0.4332 0.0
N465 N 0.99354 0.43052 0.58782 0.0
C466 C 1.02101 0.43395 0.51081 0.0
C467 C 1.0228 0.40557 0.42594 0.0
C468 C 0.90776 0.06619 0.10687 0.0
C469 C 0.89475 0.03458 0.16501 0.0
C470 C 0.93971 0.06821 0.0359 0.0
C471 C 0.9662 0.04017 1.02031 0.0
H472 H 0.89166 0.09083 0.11301 0.0
H473 H 0.94356 0.0936 0.98921 0.0
S474 S 0.95448 0.92403 0.16225 0.0
N475 N 0.90793 0.96073 0.19957 0.0
N476 N 0.98436 0.96923 0.08515 0.0
C477 C 0.96074 1.00888 0.08625 0.0
C478 C 0.9163 1.004 0.15583 0.0
C479 C 0.57702 0.9107 0.06644 0.0
C480 C 0.55 0.90589 0.15071 0.0
C481 C 0.57534 0.9398 0.98543 0.0
C482 C 0.54685 0.96578 0.98624 0.0
H483 H 0.59971 0.89186 0.06293 0.0
H484 H 0.59683 0.94224 0.92262 0.0
S485 S 0.46678 0.96255 0.17802 0.0
N486 N 0.49172 0.92724 0.21985 0.0
N487 N 0.48987 0.9828 0.0746 0.0
C488 C 0.5195 0.96076 0.06887 0.0
C489 C 0.52068 0.93063 0.14885 0.0
C490 C 0.6653 0.5346 0.13486 0.0
C491 C 0.67788 0.56916 0.17051 0.0
C492 C 0.63656 0.53081 0.05287 0.0
C493 C 0.61834 0.56135 1.00464 0.0
H494 H 0.67806 0.5102 0.16963 0.0
H495 H 0.62845 0.50358 0.02713 0.0
S496 S 0.64219 0.65797 0.06344 0.0
N497 N 0.67103 0.63462 0.14597 0.0
N498 N 0.61631 0.62745 0.9966 0.0
C499 C 0.63052 0.59604 0.04029 0.0
C500 C 0.66039 0.59993 0.12177 0.0
C501 C 0.04907 0.67531 0.12171 0.0
C502 C 1.01429 0.68761 0.15427 0.0
C503 C 0.05314 0.64596 0.04469 0.0
C504 C 1.02274 0.62661 0.99856 0.0
H505 H 0.07346 0.68867 0.15535 0.0
H506 H 0.08054 0.63823 0.02148 0.0
S507 S 0.92551 0.64948 0.04965 0.0
N508 N 0.94868 0.67964 0.12707 0.0
N509 N 0.95639 0.62343 0.98886 0.0
C510 C 0.98779 0.63866 0.03063 0.0
C511 C 0.9836 0.66931 0.1065 0.0
C512 C 0.9747 0.26572 0.44323 0.0
C513 C 0.96298 0.26681 0.32792 0.0
C514 C 0.95401 0.24711 0.52537 0.0
C515 C 0.92113 0.22955 0.49383 0.0
H516 H 1.00165 0.27584 0.46761 0.0
H517 H 0.96584 0.24273 0.61016 0.0
S518 S 0.87502 0.23194 0.20939 0.0
N519 N 0.91363 0.2549 0.19101 0.0
N520 N 0.87478 0.21962 0.34603 0.0
C521 C 0.90685 0.23485 0.38288 0.0
C522 C 0.92793 0.25354 0.29923 0.0
C523 C 0.32322 0.98006 0.4395 0.0
C524 C 0.31202 0.9709 0.32778 0.0
C525 C 0.34867 0.95828 0.49904 0.0
C526 C 0.364 0.92748 0.44655 0.0
H527 H 0.31656 1.00655 0.47395 0.0
H528 H 0.36068 0.96872 0.57785 0.0
S529 S 0.33393 0.88647 0.17181 0.0
N530 N 0.30997 0.9244 0.18095 0.0
N531 N 0.35887 0.88406 0.29094 0.0
C532 C 0.34755 0.91457 0.34525 0.0
C533 C 0.32124 0.93639 0.28573 0.0
C534 C 0.53061 0.36827 0.44849 0.0
C535 C 0.54227 0.33487 0.40527 0.0
C536 C 0.55258 0.38721 0.52679 0.0
C537 C 0.58724 0.37332 0.56136 0.0
H538 H 0.50712 0.38196 0.41047 0.0
H539 H 0.54448 0.41494 0.54327 0.0
S540 S 0.61746 0.27799 0.52524 0.0
N541 N 0.58195 0.28247 0.43724 0.0
N542 N 0.62124 0.31713 0.59372 0.0
C543 C 0.59278 0.33577 0.54555 0.0
C544 C 0.57106 0.31678 0.46294 0.0
C545 C 0.27757 0.5556 0.45837 0.0
C546 C 0.2611 0.52555 0.40289 0.0
C547 C 0.26129 0.57114 0.55361 0.0
C548 C 0.22804 0.55715 0.59413 0.0
H549 H 0.30043 0.56997 0.41993 0.0
H550 H 0.27171 0.59719 0.58359 0.0
S551 S 0.18255 0.47087 0.50612 0.0
N552 N 0.21647 0.47631 0.41491 0.0
N553 N 0.18553 0.50572 0.59479 0.0
C554 C 0.21571 0.52304 0.55377 0.0
C555 C 0.23211 0.50736 0.45632 0.0
C556 C 0.08969 0.8304 0.03947 0.0
C557 C 0.10273 0.82651 0.15285 0.0
C558 C 0.1097 0.85054 0.95906 0.0
C559 C 0.14334 0.86676 0.99004 0.0
H560 H 0.06228 0.8213 1.0163 0.0
H561 H 0.09712 0.85667 0.8764 0.0
S562 S 0.19228 0.85826 0.26888 0.0
N563 N 0.1536 0.83534 0.28669 0.0
N564 N 0.19127 0.87327 0.13484 0.0
C565 C 0.15864 0.85915 0.09837 0.0
C566 C 0.13823 0.83893 0.18034 0.0
C567 C 0.73074 0.98527 0.09914 0.0
C568 C 0.73866 0.96043 0.18814 0.0
C569 C 0.69433 0.99519 0.07785 0.0
C570 C 0.66522 0.97688 0.13356 0.0
H571 H 0.75191 1.00365 0.06845 0.0
H572 H 0.69013 1.02024 0.03007 0.0
S573 S 0.67472 0.89003 0.29693 0.0
N574 N 0.71724 0.90471 0.27967 0.0
N575 N 0.64817 0.91991 0.22966 0.0
C576 C 0.67375 0.94342 0.18813 0.0
C577 C 0.71112 0.93469 0.21308 0.0
C578 C 0.43459 0.75319 0.15129 0.0
C579 C 0.471 0.76395 0.13183 0.0
C580 C 0.41485 0.73363 0.06835 0.0
C581 C 0.4313 0.72408 0.96486 0.0
H582 H 0.42256 0.75703 0.23476 0.0
H583 H 0.38848 0.72209 0.09103 0.0
S584 S 0.52337 0.75146 0.86531 0.0
N585 N 0.52068 0.76864 0.99554 0.0
N586 N 0.48351 0.73124 0.83993 0.0
C587 C 0.46588 0.7386 0.93896 0.0
C588 C 0.48592 0.75868 0.02297 0.0
C589 C 0.82644 0.44781 0.185 0.0
C590 C 0.81658 0.48404 0.15953 0.0
C591 C 0.84582 0.4272 0.10602 0.0
C592 C 0.85604 0.44253 1.00044 0.0
H593 H 0.8222 0.43664 0.27019 0.0
H594 H 0.85663 0.40098 0.13317 0.0
S595 S 0.83095 0.53352 0.88525 0.0
N596 N 0.81342 0.53226 1.01518 0.0
N597 N 0.85035 0.49341 0.86712 0.0
C598 C 0.8424 0.47689 0.96865 0.0
C599 C 0.82251 0.49781 0.04858 0.0
C600 C 0.05924 0.20921 0.94791 0.0
C601 C 1.02554 0.22502 0.97771 0.0
C602 C 0.06082 0.17607 0.88478 0.0
C603 C 0.02906 0.15595 0.85197 0.0
H604 H 0.08463 0.22169 0.97723 0.0
H605 H 0.08734 0.16591 0.86294 0.0
S606 S 0.93381 0.18892 0.89006 0.0
N607 N 0.95949 0.2208 0.95023 0.0
N608 N 0.96254 0.15814 0.84247 0.0
C609 C 0.9953 0.17297 0.87442 0.0
C610 C 0.99363 0.20724 0.93445 0.0
C611 C 0.38543 1.00956 0.97953 0.0
C612 C 0.36154 0.03949 0.99569 0.0
C613 C 0.41873 1.01283 0.92116 0.0
C614 C 0.42928 0.04508 0.86493 0.0
H615 H 0.37923 0.98291 1.01505 0.0
H616 H 0.43684 0.9898 0.92361 0.0
S617 S 0.37461 0.13021 0.85517 0.0
N618 N 0.35051 0.10264 0.93836 0.0
N619 N 0.41081 0.1068 0.81568 0.0
C620 C 0.40456 0.07453 0.87014 0.0
C621 C 0.37121 0.07204 0.93641 0.0
C622 C 0.56638 0.39912 1.01099 0.0
C623 C 0.53867 0.37227 0.99273 0.0
C624 C 0.56861 0.43178 0.94505 0.0
C625 C 0.54309 0.44005 0.85689 0.0
H626 H 0.5862 0.39546 0.08003 0.0
H627 H 0.58959 0.45158 0.96735 0.0
S628 S 0.46908 0.37717 0.75742 0.0
N629 N 0.48776 0.35516 0.8677 0.0
N630 N 0.49197 0.41605 0.74476 0.0
C631 C 0.51677 0.41258 0.83195 0.0
C632 C 0.51465 0.37899 0.89883 0.0
C633 C 0.20537 0.51043 0.91968 0.0
C634 C 0.21814 0.53686 0.99856 0.0
C635 C 0.17071 0.51361 0.86256 0.0
C636 C 0.14704 0.54348 0.88014 0.0
H637 H 0.22134 0.48606 0.90657 0.0
H638 H 0.16184 0.49174 0.80674 0.0
S639 S 0.16708 0.62016 0.07809 0.0
N640 N 0.20367 0.59406 0.09035 0.0
N641 N 0.13986 0.60008 0.98322 0.0
C642 C 0.16004 0.57047 0.95634 0.0
C643 C 0.19499 0.56711 1.01517 0.0
C644 C 1.00737 0.88679 0.52595 0.0
C645 C 0.04097 0.8698 0.50198 0.0
C646 C 1.0059 0.92016 0.58755 0.0
C647 C 0.0378 0.93922 0.62501 0.0
H648 H 0.98206 0.87509 0.49295 0.0
H649 H 0.97938 0.93134 0.60417 0.0
S650 S 0.13243 0.90302 0.60262 0.0
N651 N 0.10668 0.87193 0.53855 0.0
N652 N 0.10402 0.93484 0.64531 0.0
C653 C 0.07132 0.92105 0.60832 0.0
C654 C 0.0728 0.88664 0.54911 0.0
C655 C 0.6851 0.05577 0.45715 0.0
C656 C 0.71246 0.03464 0.51244 0.0
C657 C 0.65003 0.06035 0.50504 0.0
C658 C 0.64068 0.04429 0.61111 0.0
H659 H 0.69003 0.06687 0.37228 0.0
H660 H 0.62966 0.07571 0.45681 0.0
S661 S 0.7012 0.98439 0.78702 0.0
N662 N 0.72677 0.99616 0.67676 0.0
N663 N 0.66177 1.00569 0.76855 0.0
C664 C 0.66805 1.02394 0.6688 0.0
C665 C 0.70355 1.01881 0.61899 0.0
C666 C 0.49682 0.69905 0.52299 0.0
C667 C 0.52711 0.72268 0.50235 0.0
C668 C 0.49991 0.66623 0.587 0.0
C669 C 0.53336 0.65495 0.63693 0.0
H670 H 0.47012 0.70538 0.48674 0.0
H671 H 0.47586 0.64898 0.59424 0.0
S672 S 0.61863 0.71115 0.64145 0.0
N673 N 0.59052 0.73466 0.5572 0.0
N674 N 0.59567 0.67436 0.68217 0.0
C675 C 0.56302 0.67992 0.62782 0.0
C676 C 0.56004 0.71331 0.5605 0.0
C677 C 0.88036 0.57508 0.53905 0.0
C678 C 0.86156 0.54197 0.51813 0.0
C679 C 0.91418 0.57608 0.60126 0.0
C680 C 0.93151 0.54402 0.64363 0.0
H681 H 0.86984 0.60024 0.50246 0.0
H682 H 0.9273 0.60232 0.61356 0.0
S683 S 0.89094 0.45082 0.62652 0.0
N684 N 0.86086 0.47682 0.55829 0.0
N685 N 0.92411 0.4785 0.66969 0.0
C686 C 0.91166 0.51112 0.62947 0.0
C687 C 0.87707 0.51018 0.56809 0.0
loop_
_geom_bond_atom_site_label_1
_geom_bond_atom_site_label_2
_geom_bond_distance
_geom_bond_site_symmetry_2
_ccdc_geom_bond_type
H0 C3 0.929 . S
H1 C6 0.929 . S
H2 C8 0.930 . S
C3 H0 0.929 . S
C3 C4 1.398 . S
C3 C5 1.396 . S
C4 C3 1.398 . S
C4 C8 1.407 . S
C5 C3 1.396 . S
C5 C6 1.394 . S
C6 H1 0.929 . S
C6 C5 1.394 . S
C6 C7 1.382 . S
C7 C6 1.382 . S
C7 C8 1.392 . S
C7 N9 1.420 . S
C8 H2 0.930 . S
C8 C4 1.407 . S
C8 C7 1.392 . S
N9 C7 1.420 . S
N9 C10 1.244 . S
C10 N9 1.244 . S
H11 C14 0.929 . S
H12 C17 0.929 . S
H13 C19 0.930 . S
C14 H11 0.929 . S
C14 C15 1.398 . S
C14 C16 1.396 . S
C15 C14 1.398 . S
C15 C19 1.407 . S
C16 C14 1.396 . S
C16 C17 1.394 . S
C17 H12 0.929 . S
C17 C16 1.394 . S
C17 C18 1.382 . S
C18 C17 1.382 . S
C18 C19 1.392 . S
C18 N20 1.420 . S
C19 H13 0.930 . S
C19 C15 1.407 . S
C19 C18 1.392 . S
N20 C18 1.420 . S
N20 C21 1.244 . S
C21 N20 1.244 . S
H22 C25 0.929 . S
H23 C28 0.929 . S
H24 C30 0.930 . S
C25 H22 0.929 . S
C25 C26 1.398 . S
C25 C27 1.396 . S
C26 C25 1.398 . S
C26 C30 1.407 . S
C27 C25 1.396 . S
C27 C28 1.394 . S
C28 H23 0.929 . S
C28 C27 1.394 . S
C28 C29 1.382 . S
C29 C28 1.382 . S
C29 C30 1.392 . S
C29 N31 1.420 1_565 S
C30 H24 0.930 . S
C30 C26 1.407 . S
C30 C29 1.392 . S
N31 C29 1.420 1_545 S
N31 C32 1.244 1_545 S
C32 N31 1.244 1_565 S
H33 C36 0.929 . S
H34 C39 0.929 . S
H35 C41 0.930 . S
C36 H33 0.929 . S
C36 C37 1.398 . S
C36 C38 1.396 . S
C37 C36 1.398 . S
C37 C41 1.407 . S
C38 C36 1.396 . S
C38 C39 1.394 . S
C39 H34 0.929 . S
C39 C38 1.394 . S
C39 C40 1.382 . S
C40 C39 1.382 . S
C40 C41 1.392 . S
C40 N42 1.420 . S
C41 H35 0.930 . S
C41 C37 1.407 . S
C41 C40 1.392 . S
N42 C40 1.420 . S
N42 C43 1.244 . S
C43 N42 1.244 . S
H44 C47 0.929 . S
H45 C50 0.929 . S
H46 C52 0.930 . S
C47 H44 0.929 . S
C47 C48 1.398 1_554 S
C47 C49 1.396 . S
C48 C47 1.398 1_556 S
C48 C52 1.407 . S
C49 C47 1.396 . S
C49 C50 1.394 . S
C50 H45 0.929 . S
C50 C49 1.394 . S
C50 C51 1.382 . S
C51 C50 1.382 . S
C51 C52 1.392 1_554 S
C51 N53 1.420 . S
C52 H46 0.930 . S
C52 C48 1.407 . S
C52 C51 1.392 1_556 S
N53 C51 1.420 . S
N53 C54 1.244 . S
C54 N53 1.244 . S
H55 C58 0.929 . S
H56 C61 0.929 . S
H57 C63 0.930 . S
C58 H55 0.929 . S
C58 C59 1.398 1_554 S
C58 C60 1.396 . S
C59 C58 1.398 1_556 S
C59 C63 1.407 . S
C60 C58 1.396 . S
C60 C61 1.394 . S
C61 H56 0.929 . S
C61 C60 1.394 . S
C61 C62 1.382 . S
C62 C61 1.382 . S
C62 C63 1.392 1_554 S
C62 N64 1.420 . S
C63 H57 0.930 . S
C63 C59 1.407 . S
C63 C62 1.392 1_556 S
N64 C62 1.420 . S
N64 C65 1.244 . S
C65 N64 1.244 . S
H66 C69 0.929 . S
H67 C72 0.929 . S
H68 C74 0.930 . S
C69 H66 0.929 . S
C69 C70 1.398 1_554 S
C69 C71 1.396 . S
C70 C69 1.398 1_556 S
C70 C74 1.407 . S
C71 C69 1.396 . S
C71 C72 1.394 . S
C72 H67 0.929 . S
C72 C71 1.394 . S
C72 C73 1.382 . S
C73 C72 1.382 . S
C73 C74 1.392 1_554 S
C73 N75 1.420 . S
C74 H68 0.930 . S
C74 C70 1.407 . S
C74 C73 1.392 1_556 S
N75 C73 1.420 . S
N75 C76 1.244 . S
C76 N75 1.244 . S
H77 C80 0.929 . S
H78 C83 0.929 . S
H79 C85 0.930 . S
C80 H77 0.929 . S
C80 C81 1.398 1_554 S
C80 C82 1.396 . S
C81 C80 1.398 1_556 S
C81 C85 1.407 . S
C82 C80 1.396 . S
C82 C83 1.394 . S
C83 H78 0.929 . S
C83 C82 1.394 . S
C83 C84 1.382 . S
C84 C83 1.382 . S
C84 C85 1.392 1_554 S
C84 N86 1.420 . S
C85 H79 0.930 . S
C85 C81 1.407 . S
C85 C84 1.392 1_556 S
N86 C84 1.420 . S
N86 C87 1.244 . S
C87 N86 1.244 . S
C88 C90 1.422 . S
C88 C92 1.415 . S
C88 N94 1.369 1_554 S
C89 C90 1.421 . S
C89 C91 1.417 . S
C89 C101 1.422 . S
C90 C88 1.422 . S
C90 C89 1.421 . S
C90 N100 1.359 . S
C91 C89 1.417 . S
C91 C93 1.329 . S
C91 H110 0.930 . S
C92 C88 1.415 . S
C92 C93 1.437 . S
C92 C96 1.413 1_554 S
C93 C91 1.329 . S
C93 C92 1.437 . S
C93 H115 0.929 . S
N94 C88 1.369 1_556 S
N94 C95 1.338 . S
N94 Gd99 2.622 1_545 S
C95 N94 1.338 . S
C95 C97 1.378 . S
C95 H107 0.929 1_545 S
C96 C92 1.413 1_556 S
C96 C97 1.348 . S
C96 H112 0.931 . S
C97 C95 1.378 . S
C97 C96 1.348 . S
C97 H113 0.930 . S
Gd98 N118 2.622 . S
Gd98 N125 2.570 . S
Gd98 O132 2.353 1_655 S
Gd98 O133 2.468 . S
Gd98 O134 2.427 . S
Gd98 O136 2.388 . S
Gd98 O137 2.386 1_545 S
Gd98 O141 2.307 1_655 S
Gd98 C151 2.805 . S
Gd99 N94 2.622 1_565 S
Gd99 N100 2.570 1_566 S
Gd99 O131 2.386 1_565 S
Gd99 O135 2.307 1_465 S
Gd99 O138 2.353 . S
Gd99 O139 2.468 . S
Gd99 O140 2.427 . S
Gd99 O142 2.388 . S
Gd99 C163 2.805 . S
N100 C90 1.359 . S
N100 Gd99 2.570 1_544 S
N100 C102 1.343 . S
C101 C89 1.422 . S
C101 C103 1.321 . S
C101 H109 0.931 . S
C102 N100 1.343 . S
C102 C103 1.390 . S
C102 H104 0.952 . S
C103 C101 1.321 . S
C103 C102 1.390 . S
C103 H105 0.930 . S
H104 C102 0.952 . S
H105 C103 0.930 . S
H106 C129 0.931 1_455 S
H107 C95 0.929 1_565 S
H108 C130 0.930 1_455 S
H109 C101 0.931 . S
H110 C91 0.930 . S
H111 C120 0.929 . S
H112 C96 0.931 . S
H113 C97 0.930 . S
H114 C152 0.930 . S
H115 C93 0.929 . S
H116 C121 0.931 . S
H117 C122 0.930 . S
N118 Gd98 2.622 . S
N118 C119 1.369 1_545 S
N118 C120 1.338 . S
C119 N118 1.369 1_565 S
C119 C123 1.415 . S
C119 C126 1.422 . S
C120 H111 0.929 . S
C120 N118 1.338 . S
C120 C122 1.378 . S
C121 H116 0.931 . S
C121 C122 1.348 1_565 S
C121 C123 1.413 . S
C122 H117 0.930 . S
C122 C120 1.378 . S
C122 C121 1.348 1_545 S
C123 C119 1.415 . S
C123 C121 1.413 . S
C123 C153 1.437 . S
H124 C153 0.929 . S
N125 Gd98 2.570 . S
N125 C126 1.359 1_545 S
N125 C129 1.343 . S
C126 C119 1.422 . S
C126 N125 1.359 1_565 S
C126 C128 1.421 . S
C127 C128 1.422 . S
C127 C130 1.321 . S
C127 H154 0.931 . S
C128 C126 1.421 . S
C128 C127 1.422 . S
C128 C152 1.417 . S
C129 H106 0.931 1_655 S
C129 N125 1.343 . S
C129 C130 1.390 1_545 S
C130 H108 0.930 1_655 S
C130 C127 1.321 . S
C130 C129 1.390 1_565 S
O131 Gd99 2.386 1_545 S
O131 C143 1.265 . S
O132 Gd98 2.353 1_455 S
O132 C143 1.242 . S
O133 Gd98 2.468 . S
O133 C151 1.263 . S
O134 Gd98 2.427 . S
O134 C151 1.252 . S
O135 Gd99 2.307 1_645 S
O135 C144 1.261 . S
O136 Gd98 2.388 . S
O136 C144 1.252 . S
O137 Gd98 2.386 1_565 S
O137 C155 1.265 . S
O138 Gd99 2.353 . S
O138 C155 1.242 1_455 S
O139 Gd99 2.468 . S
O139 C163 1.263 . S
O140 Gd99 2.427 . S
O140 C163 1.252 . S
O141 Gd98 2.307 1_455 S
O141 C156 1.261 . S
O142 Gd99 2.388 . S
O142 C156 1.252 1_565 S
C143 O131 1.265 . S
C143 O132 1.242 . S
C144 O135 1.261 . S
C144 O136 1.252 . S
C145 C148 1.394 . S
C145 C150 1.370 . S
C145 C151 1.500 . S
C146 C149 1.383 . S
C146 C150 1.395 . S
C147 C148 1.396 . S
C147 C149 1.365 . S
C147 H164 0.929 . S
C148 C145 1.394 . S
C148 C147 1.396 . S
C148 H165 0.930 . S
C149 C146 1.383 . S
C149 C147 1.365 . S
C149 H166 0.931 . S
C150 C145 1.370 . S
C150 C146 1.395 . S
C150 H167 0.930 1_655 S
C151 Gd98 2.805 . S
C151 O133 1.263 . S
C151 O134 1.252 . S
C151 C145 1.500 . S
C152 H114 0.930 . S
C152 C128 1.417 . S
C152 C153 1.329 . S
C153 C123 1.437 . S
C153 H124 0.929 . S
C153 C152 1.329 . S
H154 C127 0.931 . S
C155 O137 1.265 . S
C155 O138 1.242 1_655 S
C156 O141 1.261 . S
C156 O142 1.252 1_545 S
C157 C160 1.394 . S
C157 C162 1.370 . S
C157 C163 1.500 1_554 S
C158 C161 1.383 . S
C158 C162 1.395 . S
C159 C160 1.396 . S
C159 C161 1.365 . S
C159 H168 0.929 . S
C160 C157 1.394 . S
C160 C159 1.396 . S
C160 H169 0.930 1_554 S
C161 C158 1.383 . S
C161 C159 1.365 . S
C161 H170 0.931 . S
C162 C157 1.370 . S
C162 C158 1.395 . S
C162 H171 0.930 . S
C163 Gd99 2.805 . S
C163 O139 1.263 . S
C163 O140 1.252 . S
C163 C157 1.500 1_556 S
H164 C147 0.929 . S
H165 C148 0.930 . S
H166 C149 0.931 . S
H167 C150 0.930 1_455 S
H168 C159 0.929 . S
H169 C160 0.930 1_556 S
H170 C161 0.931 . S
H171 C162 0.930 . S
C172 C174 1.422 . S
C172 C176 1.415 . S
C172 N178 1.369 . S
C173 C174 1.421 . S
C173 C175 1.417 . S
C173 C185 1.422 . S
C174 C172 1.422 . S
C174 C173 1.421 . S
C174 N184 1.359 . S
C175 C173 1.417 . S
C175 C177 1.329 . S
C175 H194 0.930 . S
C176 C172 1.415 . S
C176 C177 1.437 . S
C176 C180 1.413 . S
C177 C175 1.329 . S
C177 C176 1.437 . S
C177 H199 0.929 . S
N178 C172 1.369 . S
N178 C179 1.338 . S
N178 Gd183 2.622 . S
C179 N178 1.338 . S
C179 C181 1.378 . S
C179 H191 0.929 . S
C180 C176 1.413 . S
C180 C181 1.348 . S
C180 H196 0.931 . S
C181 C179 1.378 . S
C181 C180 1.348 . S
C181 H197 0.930 . S
Gd182 N202 2.622 . S
Gd182 N209 2.570 . S
Gd182 O216 2.353 1_545 S
Gd182 O217 2.468 . S
Gd182 O218 2.427 1_556 S
Gd182 O220 2.388 . S
Gd182 O221 2.386 . S
Gd182 O225 2.307 . S
Gd182 C235 2.805 1_556 S
Gd183 N178 2.622 . S
Gd183 N184 2.570 . S
Gd183 O215 2.386 . S
Gd183 O219 2.307 1_565 S
Gd183 O222 2.353 1_565 S
Gd183 O223 2.468 . S
Gd183 O224 2.427 . S
Gd183 O226 2.388 . S
Gd183 C247 2.805 . S
N184 C174 1.359 . S
N184 Gd183 2.570 . S
N184 C186 1.343 . S
C185 C173 1.422 . S
C185 C187 1.321 . S
C185 H193 0.931 . S
C186 N184 1.343 . S
C186 C187 1.390 . S
C186 H188 0.931 . S
C187 C185 1.321 . S
C187 C186 1.390 . S
C187 H189 0.930 . S
H188 C186 0.931 . S
H189 C187 0.930 . S
H190 C213 0.931 . S
H191 C179 0.929 . S
H192 C214 0.930 . S
H193 C185 0.931 . S
H194 C175 0.930 . S
H195 C204 0.929 1_554 S
H196 C180 0.931 . S
H197 C181 0.930 . S
H198 C236 0.930 . S
H199 C177 0.929 . S
H200 C205 0.931 1_554 S
H201 C206 0.930 . S
N202 Gd182 2.622 . S
N202 C203 1.369 . S
N202 C204 1.338 . S
C203 N202 1.369 . S
C203 C207 1.415 . S
C203 C210 1.422 . S
C204 H195 0.929 1_556 S
C204 N202 1.338 . S
C204 C206 1.378 1_556 S
C205 H200 0.931 1_556 S
C205 C206 1.348 1_556 S
C205 C207 1.413 . S
C206 H201 0.930 . S
C206 C204 1.378 1_554 S
C206 C205 1.348 1_554 S
C207 C203 1.415 . S
C207 C205 1.413 . S
C207 C237 1.437 . S
H208 C237 0.929 . S
N209 Gd182 2.570 . S
N209 C210 1.359 . S
N209 C213 1.343 . S
C210 C203 1.422 . S
C210 N209 1.359 . S
C210 C212 1.421 . S
C211 C212 1.422 . S
C211 C214 1.321 . S
C211 H238 0.931 . S
C212 C210 1.421 . S
C212 C211 1.422 . S
C212 C236 1.417 . S
C213 H190 0.931 . S
C213 N209 1.343 . S
C213 C214 1.390 . S
C214 H192 0.930 . S
C214 C211 1.321 . S
C214 C213 1.390 . S
O215 Gd183 2.386 . S
O215 C227 1.265 . S
O216 Gd182 2.353 1_565 S
O216 C227 1.242 . S
O217 Gd182 2.468 . S
O217 C235 1.263 1_556 S
O218 Gd182 2.427 1_554 S
O218 C235 1.252 . S
O219 Gd183 2.307 1_545 S
O219 C228 1.261 . S
O220 Gd182 2.388 . S
O220 C228 1.252 . S
O221 Gd182 2.386 . S
O221 C239 1.265 . S
O222 Gd183 2.353 1_545 S
O222 C239 1.242 . S
O223 Gd183 2.468 . S
O223 C247 1.263 . S
O224 Gd183 2.427 . S
O224 C247 1.252 . S
O225 Gd182 2.307 . S
O225 C240 1.262 . S
O226 Gd183 2.388 . S
O226 C240 1.251 1_565 S
C227 O215 1.265 . S
C227 O216 1.242 . S
C228 O219 1.261 . S
C228 O220 1.252 . S
C229 C232 1.394 . S
C229 C234 1.370 . S
C229 C235 1.500 . S
C230 C233 1.383 . S
C230 C234 1.395 . S
C231 C232 1.396 . S
C231 C233 1.365 . S
C231 H248 0.929 . S
C232 C229 1.394 . S
C232 C231 1.396 . S
C232 H249 0.930 . S
C233 C230 1.383 . S
C233 C231 1.365 . S
C233 H250 0.931 . S
C234 C229 1.370 . S
C234 C230 1.395 . S
C234 H251 0.930 . S
C235 Gd182 2.805 1_554 S
C235 O217 1.263 1_554 S
C235 O218 1.252 . S
C235 C229 1.500 . S
C236 H198 0.930 . S
C236 C212 1.417 . S
C236 C237 1.329 . S
C237 C207 1.437 . S
C237 H208 0.929 . S
C237 C236 1.329 . S
H238 C211 0.931 . S
C239 O221 1.265 . S
C239 O222 1.242 . S
C240 O225 1.262 . S
C240 O226 1.251 1_545 S
C241 C244 1.394 . S
C241 C246 1.370 . S
C241 C247 1.500 . S
C242 C245 1.383 . S
C242 C246 1.395 . S
C243 C244 1.396 . S
C243 C245 1.365 . S
C243 H252 0.929 . S
C244 C241 1.394 . S
C244 C243 1.396 . S
C244 H253 0.930 . S
C245 C242 1.383 . S
C245 C243 1.365 . S
C245 H254 0.931 . S
C246 C241 1.370 . S
C246 C242 1.395 . S
C246 H255 0.930 1_565 S
C247 Gd183 2.805 . S
C247 O223 1.263 . S
C247 O224 1.252 . S
C247 C241 1.500 . S
H248 C231 0.929 . S
H249 C232 0.930 . S
H250 C233 0.931 . S
H251 C234 0.930 . S
H252 C243 0.929 . S
H253 C244 0.930 . S
H254 C245 0.931 . S
H255 C246 0.930 1_545 S
C256 C258 1.422 . S
C256 C260 1.415 . S
C256 N262 1.369 1_554 S
C257 C258 1.421 . S
C257 C259 1.417 . S
C257 C269 1.422 . S
C258 C256 1.422 . S
C258 C257 1.421 . S
C258 N268 1.359 . S
C259 C257 1.417 . S
C259 C261 1.329 . S
C259 H278 0.930 . S
C260 C256 1.415 . S
C260 C261 1.437 . S
C260 C264 1.413 1_554 S
C261 C259 1.329 . S
C261 C260 1.437 . S
C261 H283 0.929 . S
N262 C256 1.369 1_556 S
N262 C263 1.338 . S
N262 Gd267 2.622 . S
C263 N262 1.338 . S
C263 C265 1.378 . S
C263 H275 0.929 . S
C264 C260 1.413 1_556 S
C264 C265 1.348 . S
C264 H280 0.931 . S
C265 C263 1.378 . S
C265 C264 1.348 . S
C265 H281 0.930 . S
Gd266 N286 2.622 . S
Gd266 N293 2.570 . S
Gd266 O300 2.353 . S
Gd266 O301 2.468 . S
Gd266 O302 2.427 . S
Gd266 O304 2.388 . S
Gd266 O305 2.386 . S
Gd266 O309 2.307 . S
Gd266 C319 2.805 . S
Gd267 N262 2.622 . S
Gd267 N268 2.570 1_556 S
Gd267 O299 2.386 . S
Gd267 O303 2.307 . S
Gd267 O306 2.353 . S
Gd267 O307 2.468 . S
Gd267 O308 2.427 . S
Gd267 O310 2.388 . S
Gd267 C331 2.805 . S
N268 C258 1.359 . S
N268 Gd267 2.570 1_554 S
N268 C270 1.343 . S
C269 C257 1.422 . S
C269 C271 1.321 . S
C269 H277 0.931 . S
C270 N268 1.343 . S
C270 C271 1.390 . S
C270 H272 0.931 . S
C271 C269 1.321 . S
C271 C270 1.390 . S
C271 H273 0.930 . S
H272 C270 0.931 . S
H273 C271 0.930 . S
H274 C297 0.931 . S
H275 C263 0.929 . S
H276 C298 0.930 . S
H277 C269 0.931 . S
H278 C259 0.930 . S
H279 C288 0.929 . S
H280 C264 0.931 . S
H281 C265 0.930 . S
H282 C320 0.930 . S
H283 C261 0.929 . S
H284 C289 0.931 . S
H285 C290 0.930 . S
N286 Gd266 2.622 . S
N286 C287 1.369 . S
N286 C288 1.338 . S
C287 N286 1.369 . S
C287 C291 1.415 . S
C287 C294 1.422 . S
C288 H279 0.929 . S
C288 N286 1.338 . S
C288 C290 1.378 . S
C289 H284 0.931 . S
C289 C290 1.348 . S
C289 C291 1.413 . S
C290 H285 0.930 . S
C290 C288 1.378 . S
C290 C289 1.348 . S
C291 C287 1.415 . S
C291 C289 1.413 . S
C291 C321 1.437 . S
H292 C321 0.929 . S
N293 Gd266 2.570 . S
N293 C294 1.359 . S
N293 C297 1.343 . S
C294 C287 1.422 . S
C294 N293 1.359 . S
C294 C296 1.421 . S
C295 C296 1.422 . S
C295 C298 1.321 . S
C295 H322 0.931 . S
C296 C294 1.421 . S
C296 C295 1.422 . S
C296 C320 1.417 . S
C297 H274 0.931 . S
C297 N293 1.343 . S
C297 C298 1.390 . S
C298 H276 0.930 . S
C298 C295 1.321 . S
C298 C297 1.390 . S
O299 Gd267 2.386 . S
O299 C311 1.265 . S
O300 Gd266 2.353 . S
O300 C311 1.242 . S
O301 Gd266 2.468 . S
O301 C319 1.263 . S
O302 Gd266 2.427 . S
O302 C319 1.252 . S
O303 Gd267 2.307 . S
O303 C312 1.261 . S
O304 Gd266 2.388 . S
O304 C312 1.252 . S
O305 Gd266 2.386 . S
O305 C323 1.265 . S
O306 Gd267 2.353 . S
O306 C323 1.242 . S
O307 Gd267 2.468 . S
O307 C331 1.263 . S
O308 Gd267 2.427 . S
O308 C331 1.252 . S
O309 Gd266 2.307 . S
O309 C324 1.261 . S
O310 Gd267 2.388 . S
O310 C324 1.252 . S
C311 O299 1.265 . S
C311 O300 1.242 . S
C312 O303 1.261 . S
C312 O304 1.252 . S
C313 C316 1.394 . S
C313 C318 1.370 . S
C313 C319 1.500 . S
C314 C317 1.383 . S
C314 C318 1.395 . S
C315 C316 1.396 . S
C315 C317 1.365 . S
C315 H332 0.929 . S
C316 C313 1.394 . S
C316 C315 1.396 . S
C316 H333 0.930 . S
C317 C314 1.383 . S
C317 C315 1.365 . S
C317 H334 0.931 . S
C318 C313 1.370 . S
C318 C314 1.395 . S
C318 H335 0.930 . S
C319 Gd266 2.805 . S
C319 O301 1.263 . S
C319 O302 1.252 . S
C319 C313 1.500 . S
C320 H282 0.930 . S
C320 C296 1.417 . S
C320 C321 1.329 . S
C321 C291 1.437 . S
C321 H292 0.929 . S
C321 C320 1.329 . S
H322 C295 0.931 . S
C323 O305 1.265 . S
C323 O306 1.242 . S
C324 O309 1.261 . S
C324 O310 1.252 . S
C325 C328 1.394 . S
C325 C330 1.370 . S
C325 C331 1.500 1_554 S
C326 C329 1.383 . S
C326 C330 1.395 . S
C327 C328 1.396 . S
C327 C329 1.365 . S
C327 H336 0.929 . S
C328 C325 1.394 . S
C328 C327 1.396 . S
C328 H337 0.930 1_554 S
C329 C326 1.383 . S
C329 C327 1.365 . S
C329 H338 0.931 . S
C330 C325 1.370 . S
C330 C326 1.395 . S
C330 H339 0.930 . S
C331 Gd267 2.805 . S
C331 O307 1.263 . S
C331 O308 1.252 . S
C331 C325 1.500 1_556 S
H332 C315 0.929 . S
H333 C316 0.930 . S
H334 C317 0.931 . S
H335 C318 0.930 . S
H336 C327 0.929 . S
H337 C328 0.930 1_556 S
H338 C329 0.931 . S
H339 C330 0.930 . S
C340 C342 1.422 . S
C340 C344 1.415 . S
C340 N346 1.369 1_554 S
C341 C342 1.421 . S
C341 C343 1.417 . S
C341 C353 1.422 . S
C342 C340 1.422 . S
C342 C341 1.421 . S
C342 N352 1.359 . S
C343 C341 1.417 . S
C343 C345 1.329 . S
C343 H362 0.930 . S
C344 C340 1.415 . S
C344 C345 1.437 . S
C344 C348 1.413 1_554 S
C345 C343 1.329 . S
C345 C344 1.437 . S
C345 H367 0.929 . S
N346 C340 1.369 1_556 S
N346 C347 1.339 . S
N346 Gd351 2.622 1_455 S
C347 N346 1.339 . S
C347 C349 1.382 . S
C347 H359 0.923 1_455 S
C348 C344 1.413 1_556 S
C348 C349 1.348 . S
C348 H364 0.931 . S
C349 C347 1.382 . S
C349 C348 1.348 . S
C349 H365 0.930 . S
Gd350 N370 2.622 . S
Gd350 N377 2.570 . S
Gd350 O384 2.353 . S
Gd350 O385 2.468 . S
Gd350 O386 2.427 . S
Gd350 O388 2.388 . S
Gd350 O389 2.386 1_455 S
Gd350 O393 2.307 . S
Gd350 C403 2.805 . S
Gd351 N346 2.622 1_655 S
Gd351 N352 2.570 1_656 S
Gd351 O383 2.386 1_655 S
Gd351 O387 2.307 1_655 S
Gd351 O390 2.353 . S
Gd351 O391 2.468 . S
Gd351 O392 2.427 . S
Gd351 O394 2.388 . S
Gd351 C415 2.805 . S
N352 C342 1.359 . S
N352 Gd351 2.570 1_454 S
N352 C354 1.343 . S
C353 C341 1.422 . S
C353 C355 1.321 . S
C353 H361 0.931 . S
C354 N352 1.343 . S
C354 C355 1.390 . S
C354 H356 0.931 . S
C355 C353 1.321 . S
C355 C354 1.390 . S
C355 H357 0.930 . S
H356 C354 0.931 . S
H357 C355 0.930 . S
H358 C381 0.931 . S
H359 C347 0.923 1_655 S
H360 C382 0.930 . S
H361 C353 0.931 . S
H362 C343 0.930 . S
H363 C372 0.929 . S
H364 C348 0.931 . S
H365 C349 0.930 . S
H366 C404 0.930 . S
H367 C345 0.929 . S
H368 C373 0.931 . S
H369 C374 0.930 . S
N370 Gd350 2.622 . S
N370 C371 1.369 1_455 S
N370 C372 1.338 . S
C371 N370 1.369 1_655 S
C371 C375 1.415 . S
C371 C378 1.422 . S
C372 H363 0.929 . S
C372 N370 1.338 . S
C372 C374 1.378 . S
C373 H368 0.931 . S
C373 C374 1.348 1_655 S
C373 C375 1.413 . S
C374 H369 0.930 . S
C374 C372 1.378 . S
C374 C373 1.348 1_455 S
C375 C371 1.415 . S
C375 C373 1.413 . S
C375 C405 1.437 . S
H376 C405 0.929 . S
N377 Gd350 2.570 . S
N377 C378 1.359 1_455 S
N377 C381 1.343 . S
C378 C371 1.422 . S
C378 N377 1.359 1_655 S
C378 C380 1.421 . S
C379 C380 1.422 . S
C379 C382 1.321 . S
C379 H406 0.931 . S
C380 C378 1.421 . S
C380 C379 1.422 . S
C380 C404 1.417 . S
C381 H358 0.931 . S
C381 N377 1.343 . S
C381 C382 1.390 1_455 S
C382 H360 0.930 . S
C382 C379 1.321 . S
C382 C381 1.390 1_655 S
O383 Gd351 2.386 1_455 S
O383 C395 1.265 . S
O384 Gd350 2.353 . S
O384 C395 1.242 . S
O385 Gd350 2.468 . S
O385 C403 1.263 . S
O386 Gd350 2.427 . S
O386 C403 1.252 . S
O387 Gd351 2.307 1_455 S
O387 C396 1.261 . S
O388 Gd350 2.388 . S
O388 C396 1.252 . S
O389 Gd350 2.386 1_655 S
O389 C407 1.265 . S
O390 Gd351 2.353 . S
O390 C407 1.242 . S
O391 Gd351 2.468 . S
O391 C415 1.263 . S
O392 Gd351 2.427 . S
O392 C415 1.252 . S
O393 Gd350 2.307 . S
O393 C408 1.261 . S
O394 Gd351 2.388 . S
O394 C408 1.252 1_655 S
C395 O383 1.265 . S
C395 O384 1.242 . S
C396 O387 1.261 . S
C396 O388 1.252 . S
C397 C400 1.394 . S
C397 C402 1.370 . S
C397 C403 1.500 . S
C398 C401 1.383 . S
C398 C402 1.395 . S
C399 C400 1.396 . S
C399 C401 1.365 . S
C399 H416 0.929 . S
C400 C397 1.394 . S
C400 C399 1.396 . S
C400 H417 0.930 . S
C401 C398 1.383 . S
C401 C399 1.365 . S
C401 H418 0.931 . S
C402 C397 1.370 . S
C402 C398 1.395 . S
C402 H419 0.930 . S
C403 Gd350 2.805 . S
C403 O385 1.263 . S
C403 O386 1.252 . S
C403 C397 1.500 . S
C404 H366 0.930 . S
C404 C380 1.417 . S
C404 C405 1.329 . S
C405 C375 1.437 . S
C405 H376 0.929 . S
C405 C404 1.329 . S
H406 C379 0.931 . S
C407 O389 1.265 . S
C407 O390 1.242 . S
C408 O393 1.261 . S
C408 O394 1.252 1_455 S
C409 C412 1.394 . S
C409 C414 1.370 . S
C409 C415 1.500 1_554 S
C410 C413 1.383 . S
C410 C414 1.395 . S
C411 C412 1.396 . S
C411 C413 1.365 . S
C411 H420 0.929 . S
C412 C409 1.394 . S
C412 C411 1.396 . S
C412 H421 0.930 1_554 S
C413 C410 1.383 . S
C413 C411 1.365 . S
C413 H422 0.931 . S
C414 C409 1.370 . S
C414 C410 1.395 . S
C414 H423 0.930 . S
C415 Gd351 2.805 . S
C415 O391 1.263 . S
C415 O392 1.252 . S
C415 C409 1.500 1_556 S
H416 C399 0.929 . S
H417 C400 0.930 . S
H418 C401 0.931 . S
H419 C402 0.930 . S
H420 C411 0.929 . S
H421 C412 0.930 1_556 S
H422 C413 0.931 . S
H423 C414 0.930 . S
C424 C425 1.369 . S
C424 C426 1.419 . S
C424 H428 0.930 . S
C425 C424 1.369 . S
C425 C434 1.429 . S
C426 C424 1.419 . S
C426 C427 1.363 . S
C426 H429 0.929 . S
C427 C426 1.363 . S
C427 C433 1.428 . S
H428 C424 0.930 . S
H429 C426 0.929 . S
S430 N431 1.613 . S
S430 N432 1.610 . S
N431 S430 1.613 . S
N431 C434 1.350 . S
N432 S430 1.610 . S
N432 C433 1.351 . S
C433 C427 1.428 . S
C433 N432 1.351 . S
C433 C434 1.434 . S
C434 C425 1.429 . S
C434 N431 1.350 . S
C434 C433 1.434 . S
C435 C436 1.369 . S
C435 C437 1.419 . S
C435 H439 0.930 . S
C436 C435 1.369 . S
C436 C445 1.429 . S
C437 C435 1.419 . S
C437 C438 1.363 . S
C437 H440 0.929 . S
C438 C437 1.363 . S
C438 C444 1.428 . S
H439 C435 0.930 . S
H440 C437 0.929 . S
S441 N442 1.613 . S
S441 N443 1.610 . S
N442 S441 1.613 . S
N442 C445 1.350 . S
N443 S441 1.610 . S
N443 C444 1.351 . S
C444 C438 1.428 . S
C444 N443 1.351 . S
C444 C445 1.434 . S
C445 C436 1.429 . S
C445 N442 1.350 . S
C445 C444 1.434 . S
C446 C447 1.369 . S
C446 C448 1.419 . S
C446 H450 0.930 . S
C447 C446 1.369 . S
C447 C456 1.429 . S
C448 C446 1.419 . S
C448 C449 1.363 . S
C448 H451 0.929 . S
C449 C448 1.363 . S
C449 C455 1.428 . S
H450 C446 0.930 . S
H451 C448 0.929 . S
S452 N453 1.613 . S
S452 N454 1.610 . S
N453 S452 1.613 . S
N453 C456 1.350 . S
N454 S452 1.610 . S
N454 C455 1.351 . S
C455 C449 1.428 . S
C455 N454 1.351 . S
C455 C456 1.434 . S
C456 C447 1.429 . S
C456 N453 1.350 . S
C456 C455 1.434 . S
C457 C458 1.369 . S
C457 C459 1.419 . S
C457 H461 0.930 . S
C458 C457 1.369 . S
C458 C467 1.429 . S
C459 C457 1.419 . S
C459 C460 1.363 . S
C459 H462 0.929 . S
C460 C459 1.363 . S
C460 C466 1.428 . S
H461 C457 0.930 . S
H462 C459 0.929 . S
S463 N464 1.613 1_655 S
S463 N465 1.610 . S
N464 S463 1.613 1_455 S
N464 C467 1.350 . S
N465 S463 1.610 . S
N465 C466 1.351 1_655 S
C466 C460 1.428 . S
C466 N465 1.351 1_455 S
C466 C467 1.434 . S
C467 C458 1.429 . S
C467 N464 1.350 . S
C467 C466 1.434 . S
C468 C469 1.369 1_545 S
C468 C470 1.419 . S
C468 H472 0.930 . S
C469 C468 1.369 1_565 S
C469 C478 1.429 . S
C470 C468 1.419 . S
C470 C471 1.353 1_545 S
C470 H473 0.929 1_554 S
C471 C470 1.353 1_565 S
C471 C477 1.442 . S
H472 C468 0.930 . S
H473 C470 0.929 1_556 S
S474 N475 1.613 . S
S474 N476 1.610 . S
N475 S474 1.613 . S
N475 C478 1.350 . S
N476 S474 1.610 . S
N476 C477 1.351 . S
C477 C471 1.442 . S
C477 N476 1.351 . S
C477 C478 1.434 . S
C478 C469 1.429 . S
C478 N475 1.350 . S
C478 C477 1.434 . S
C479 C480 1.369 . S
C479 C481 1.419 . S
C479 H483 0.930 . S
C480 C479 1.369 . S
C480 C489 1.429 . S
C481 C479 1.419 . S
C481 C482 1.363 . S
C481 H484 0.929 . S
C482 C481 1.363 . S
C482 C488 1.428 . S
H483 C479 0.930 . S
H484 C481 0.929 . S
S485 N486 1.613 . S
S485 N487 1.610 . S
N486 S485 1.613 . S
N486 C489 1.350 . S
N487 S485 1.610 . S
N487 C488 1.351 . S
C488 C482 1.428 . S
C488 N487 1.351 . S
C488 C489 1.434 . S
C489 C480 1.429 . S
C489 N486 1.350 . S
C489 C488 1.434 . S
C490 C491 1.369 . S
C490 C492 1.419 . S
C490 H494 0.930 . S
C491 C490 1.369 . S
C491 C500 1.429 . S
C492 C490 1.419 . S
C492 C493 1.363 . S
C492 H495 0.929 . S
C493 C492 1.363 . S
C493 C499 1.428 . S
H494 C490 0.930 . S
H495 C492 0.929 . S
S496 N497 1.613 . S
S496 N498 1.610 1_554 S
N497 S496 1.613 . S
N497 C500 1.350 . S
N498 S496 1.610 1_556 S
N498 C499 1.351 1_556 S
C499 C493 1.428 . S
C499 N498 1.351 1_554 S
C499 C500 1.434 . S
C500 C491 1.429 . S
C500 N497 1.350 . S
C500 C499 1.434 . S
C501 C502 1.377 . S
C501 C503 1.416 1_655 S
C501 H505 0.925 1_655 S
C502 C501 1.377 . S
C502 C511 1.429 . S
C503 C501 1.416 1_455 S
C503 C504 1.363 1_455 S
C503 H506 0.929 . S
C504 C503 1.363 1_655 S
C504 C510 1.428 . S
H505 C501 0.925 1_455 S
H506 C503 0.929 . S
S507 N508 1.613 1_556 S
S507 N509 1.610 . S
N508 S507 1.613 1_554 S
N508 C511 1.350 . S
N509 S507 1.610 . S
N509 C510 1.351 1_556 S
C510 C504 1.428 . S
C510 N509 1.351 1_554 S
C510 C511 1.434 . S
C511 C502 1.429 . S
C511 N508 1.350 . S
C511 C510 1.434 . S
C512 C513 1.369 . S
C512 C514 1.419 1_455 S
C512 H516 0.930 1_455 S
C513 C512 1.369 . S
C513 C522 1.429 . S
C514 C512 1.419 1_655 S
C514 C515 1.363 . S
C514 H517 0.929 . S
C515 C514 1.363 . S
C515 C521 1.428 1_655 S
H516 C512 0.930 1_655 S
H517 C514 0.929 . S
S518 N519 1.613 . S
S518 N520 1.610 . S
N519 S518 1.613 . S
N519 C522 1.350 . S
N520 S518 1.610 . S
N520 C521 1.351 . S
C521 C515 1.428 1_455 S
C521 N520 1.351 . S
C521 C522 1.434 . S
C522 C513 1.429 . S
C522 N519 1.350 . S
C522 C521 1.434 . S
C523 C524 1.369 . S
C523 C525 1.419 . S
C523 H527 0.930 . S
C524 C523 1.369 . S
C524 C533 1.461 . S
C525 C523 1.419 . S
C525 C526 1.386 . S
C525 H528 0.929 . S
C526 C525 1.386 . S
C526 C532 1.418 1_545 S
H527 C523 0.930 . S
H528 C525 0.929 . S
S529 N530 1.613 . S
S529 N531 1.610 . S
N530 S529 1.613 . S
N530 C533 1.330 1_565 S
N531 S529 1.610 . S
N531 C532 1.351 . S
C532 C526 1.418 1_565 S
C532 N531 1.351 . S
C532 C533 1.418 1_565 S
C533 C524 1.461 . S
C533 N530 1.330 1_545 S
C533 C532 1.418 1_545 S
C534 C535 1.369 . S
C534 C536 1.419 . S
C534 H538 0.930 . S
C535 C534 1.369 . S
C535 C544 1.429 . S
C536 C534 1.419 . S
C536 C537 1.363 . S
C536 H539 0.929 . S
C537 C536 1.363 . S
C537 C543 1.428 . S
H538 C534 0.930 . S
H539 C536 0.929 . S
S540 N541 1.613 . S
S540 N542 1.610 . S
N541 S540 1.613 . S
N541 C544 1.350 . S
N542 S540 1.610 . S
N542 C543 1.351 . S
C543 C537 1.428 . S
C543 N542 1.351 . S
C543 C544 1.434 . S
C544 C535 1.429 . S
C544 N541 1.350 . S
C544 C543 1.434 . S
C545 C546 1.369 . S
C545 C547 1.419 . S
C545 H549 0.930 . S
C546 C545 1.369 . S
C546 C555 1.429 . S
C547 C545 1.419 . S
C547 C548 1.363 . S
C547 H550 0.929 . S
C548 C547 1.363 . S
C548 C554 1.428 . S
H549 C545 0.930 . S
H550 C547 0.929 . S
S551 N552 1.613 . S
S551 N553 1.610 . S
N552 S551 1.613 . S
N552 C555 1.350 . S
N553 S551 1.610 . S
N553 C554 1.351 . S
C554 C548 1.428 . S
C554 N553 1.351 . S
C554 C555 1.434 . S
C555 C546 1.429 . S
C555 N552 1.350 . S
C555 C554 1.434 . S
C556 C557 1.369 . S
C556 C558 1.419 . S
C556 H560 0.930 . S
C557 C556 1.369 . S
C557 C566 1.429 1_655 S
C558 C556 1.419 . S
C558 C559 1.363 1_655 S
C558 H561 0.929 . S
C559 C558 1.363 1_455 S
C559 C565 1.428 . S
H560 C556 0.930 . S
H561 C558 0.929 . S
S562 N563 1.613 . S
S562 N564 1.610 . S
N563 S562 1.613 . S
N563 C566 1.350 . S
N564 S562 1.610 . S
N564 C565 1.351 . S
C565 C559 1.428 . S
C565 N564 1.351 . S
C565 C566 1.434 . S
C566 C557 1.429 1_455 S
C566 N563 1.350 . S
C566 C565 1.434 . S
C567 C568 1.369 1_545 S
C567 C569 1.419 . S
C567 H571 0.930 . S
C568 C567 1.369 1_565 S
C568 C577 1.429 . S
C569 C567 1.419 . S
C569 C570 1.363 . S
C569 H572 0.929 . S
C570 C569 1.363 . S
C570 C576 1.428 1_545 S
H571 C567 0.930 . S
H572 C569 0.929 . S
S573 N574 1.613 . S
S573 N575 1.610 . S
N574 S573 1.613 . S
N574 C577 1.350 . S
N575 S573 1.610 . S
N575 C576 1.351 . S
C576 C570 1.428 1_565 S
C576 N575 1.351 . S
C576 C577 1.434 . S
C577 C568 1.429 . S
C577 N574 1.350 . S
C577 C576 1.434 . S
C578 C579 1.369 . S
C578 C580 1.419 . S
C578 H582 0.930 . S
C579 C578 1.369 . S
C579 C588 1.429 . S
C580 C578 1.419 . S
C580 C581 1.363 . S
C580 H583 0.929 . S
C581 C580 1.363 . S
C581 C587 1.428 . S
H582 C578 0.930 . S
H583 C580 0.929 . S
S584 N585 1.613 . S
S584 N586 1.610 . S
N585 S584 1.613 . S
N585 C588 1.350 . S
N586 S584 1.610 . S
N586 C587 1.351 . S
C587 C581 1.428 . S
C587 N586 1.351 . S
C587 C588 1.434 . S
C588 C579 1.429 . S
C588 N585 1.350 . S
C588 C587 1.434 . S
C589 C590 1.369 . S
C589 C591 1.419 . S
C589 H593 0.930 . S
C590 C589 1.369 . S
C590 C599 1.429 . S
C591 C589 1.419 . S
C591 C592 1.363 . S
C591 H594 0.929 . S
C592 C591 1.363 . S
C592 C598 1.428 . S
H593 C589 0.930 . S
H594 C591 0.929 . S
S595 N596 1.613 1_556 S
S595 N597 1.610 1_556 S
N596 S595 1.613 1_554 S
N596 C599 1.350 . S
N597 S595 1.610 1_554 S
N597 C598 1.351 . S
C598 C592 1.428 . S
C598 N597 1.351 . S
C598 C599 1.434 . S
C599 C590 1.429 . S
C599 N596 1.350 . S
C599 C598 1.434 . S
C600 C601 1.369 . S
C600 C602 1.419 . S
C600 H604 0.930 . S
C601 C600 1.369 . S
C601 C610 1.429 . S
C602 C600 1.419 . S
C602 C603 1.363 . S
C602 H605 0.929 . S
C603 C602 1.363 . S
C603 C609 1.428 . S
H604 C600 0.930 . S
H605 C602 0.929 . S
S606 N607 1.613 . S
S606 N608 1.610 . S
N607 S606 1.613 . S
N607 C610 1.350 1_554 S
N608 S606 1.610 . S
N608 C609 1.351 1_554 S
C609 C603 1.428 . S
C609 N608 1.351 1_556 S
C609 C610 1.434 . S
C610 C601 1.429 . S
C610 N607 1.350 1_556 S
C610 C609 1.434 . S
C611 C612 1.369 . S
C611 C613 1.419 . S
C611 H615 0.930 1_545 S
C612 C611 1.369 . S
C612 C621 1.429 . S
C613 C611 1.419 . S
C613 C614 1.363 . S
C613 H616 0.929 1_545 S
C614 C613 1.363 . S
C614 C620 1.428 . S
H615 C611 0.930 1_565 S
H616 C613 0.929 1_565 S
S617 N618 1.613 . S
S617 N619 1.610 . S
N618 S617 1.613 . S
N618 C621 1.350 . S
N619 S617 1.610 . S
N619 C620 1.351 . S
C620 C614 1.428 . S
C620 N619 1.351 . S
C620 C621 1.434 . S
C621 C612 1.429 . S
C621 N618 1.350 . S
C621 C620 1.434 . S
C622 C623 1.369 . S
C622 C624 1.419 . S
C622 H626 0.930 . S
C623 C622 1.369 . S
C623 C632 1.429 . S
C624 C622 1.419 . S
C624 C625 1.363 . S
C624 H627 0.929 . S
C625 C624 1.363 . S
C625 C631 1.428 . S
H626 C622 0.930 . S
H627 C624 0.929 . S
S628 N629 1.613 . S
S628 N630 1.610 . S
N629 S628 1.613 . S
N629 C632 1.350 1_554 S
N630 S628 1.610 . S
N630 C631 1.351 1_554 S
C631 C625 1.428 . S
C631 N630 1.351 1_556 S
C631 C632 1.434 . S
C632 C623 1.429 . S
C632 N629 1.350 1_556 S
C632 C631 1.434 . S
C633 C634 1.369 . S
C633 C635 1.419 . S
C633 H637 0.930 . S
C634 C633 1.369 . S
C634 C643 1.429 . S
C635 C633 1.419 . S
C635 C636 1.363 . S
C635 H638 0.929 . S
C636 C635 1.363 . S
C636 C642 1.428 . S
H637 C633 0.930 . S
H638 C635 0.929 . S
S639 N640 1.613 . S
S639 N641 1.610 . S
N640 S639 1.613 . S
N640 C643 1.350 . S
N641 S639 1.610 . S
N641 C642 1.351 . S
C642 C636 1.428 . S
C642 N641 1.351 . S
C642 C643 1.434 . S
C643 C634 1.429 . S
C643 N640 1.350 . S
C643 C642 1.434 . S
C644 C645 1.369 . S
C644 C646 1.419 . S
C644 H648 0.930 . S
C645 C644 1.369 . S
C645 C654 1.429 1_655 S
C646 C644 1.419 . S
C646 C647 1.363 . S
C646 H649 0.929 . S
C647 C646 1.363 . S
C647 C653 1.428 1_655 S
H648 C644 0.930 . S
H649 C646 0.929 . S
S650 N651 1.613 . S
S650 N652 1.610 . S
N651 S650 1.613 . S
N651 C654 1.350 . S
N652 S650 1.610 . S
N652 C653 1.351 . S
C653 C647 1.428 1_455 S
C653 N652 1.351 . S
C653 C654 1.434 . S
C654 C645 1.429 1_455 S
C654 N651 1.350 . S
C654 C653 1.434 . S
C655 C656 1.369 1_545 S
C655 C657 1.419 . S
C655 H659 0.930 . S
C656 C655 1.369 1_565 S
C656 C665 1.429 . S
C657 C655 1.419 . S
C657 C658 1.363 1_545 S
C657 H660 0.929 . S
C658 C657 1.363 1_565 S
C658 C664 1.428 . S
H659 C655 0.930 . S
H660 C657 0.929 . S
S661 N662 1.613 . S
S661 N663 1.610 . S
N662 S661 1.613 . S
N662 C665 1.350 . S
N663 S661 1.610 . S
N663 C664 1.351 . S
C664 C658 1.428 . S
C664 N663 1.351 . S
C664 C665 1.434 . S
C665 C656 1.429 . S
C665 N662 1.350 . S
C665 C664 1.434 . S
C666 C667 1.369 . S
C666 C668 1.419 . S
C666 H670 0.930 . S
C667 C666 1.369 . S
C667 C676 1.429 . S
C668 C666 1.419 . S
C668 C669 1.363 . S
C668 H671 0.929 . S
C669 C668 1.363 . S
C669 C675 1.428 . S
H670 C666 0.930 . S
H671 C668 0.929 . S
S672 N673 1.613 . S
S672 N674 1.610 . S
N673 S672 1.613 . S
N673 C676 1.350 . S
N674 S672 1.610 . S
N674 C675 1.351 . S
C675 C669 1.428 . S
C675 N674 1.351 . S
C675 C676 1.434 . S
C676 C667 1.429 . S
C676 N673 1.350 . S
C676 C675 1.434 . S
C677 C678 1.369 . S
C677 C679 1.419 . S
C677 H681 0.930 . S
C678 C677 1.369 . S
C678 C687 1.429 . S
C679 C677 1.419 . S
C679 C680 1.363 . S
C679 H682 0.929 . S
C680 C679 1.363 . S
C680 C686 1.428 . S
H681 C677 0.930 . S
H682 C679 0.929 . S
S683 N684 1.613 . S
S683 N685 1.610 . S
N684 S683 1.613 . S
N684 C687 1.350 . S
N685 S683 1.610 . S
N685 C686 1.351 . S
C686 C680 1.428 . S
C686 N685 1.351 . S
C686 C687 1.434 . S
C687 C678 1.429 . S
C687 N684 1.350 . S
C687 C686 1.434 . S
C425 C76 1.974 . S
C427 C156 2.174 . S
C438 C239 2.179 . S
C436 C87 1.976 . S
C449 C324 2.174 . S
C447 C54 1.964 . S
C460 C408 2.159 . S
C458 C65 1.963 . S
C471 C144 2.167 1_564 S
C469 C32 1.980 . S
C480 C43 1.979 . S
C482 C227 2.179 1_554 S
C491 C10 1.970 . S
C493 C312 2.176 1_554 S
C502 C21 1.958 . S
C504 C396 2.163 1_654 S
C515 C146 0.766 . S
C513 C60 0.757 . S
C526 C242 0.742 1_545 S
C524 C71 0.740 . S
C537 C314 0.762 . S
C535 C82 0.771 . S
C546 C49 0.750 . S
C548 C398 0.753 . S
C557 C16 0.749 . S
C559 C158 0.761 . S
C570 C230 0.742 . S
C568 C27 0.753 . S
C581 C326 0.765 . S
C579 C38 0.775 . S
C590 C5 0.754 . S
C592 C410 0.742 . S
C601 C59 2.017 . S
C603 C143 2.289 . S
C612 C70 2.030 . S
C614 C228 2.332 . S
C625 C311 2.305 . S
C623 C81 2.033 . S
C636 C395 2.307 . S
C634 C48 2.044 . S
C645 C15 2.025 . S
C647 C155 2.286 . S
C658 C240 2.332 1_565 S
C656 C26 2.019 . S
C669 C323 2.305 . S
C667 C37 2.027 . S
C678 C4 2.033 . S
C680 C407 2.309 . S
