# Generated by pormake.
# Topology zzz, (3,6)-cn, num edge types: 1
# Building blocks:
#     Node 0, Type 0, BuildingBlock: KAKCAD_clean_linker_0, # of connection points: 3
#     Node 1, Type 0, BuildingBlock: KAKCAD_clean_linker_0, # of connection points: 3
#     Node 2, Type 0, BuildingBlock: KAKCAD_clean_linker_0, # of connection points: 3
#     Node 3, Type 0, BuildingBlock: KAKCAD_clean_linker_0, # of connection points: 3
#     Node 4, Type 0, BuildingBlock: KAKCAD_clean_linker_0, # of connection points: 3
#     Node 5, Type 0, BuildingBlock: KAKCAD_clean_linker_0, # of connection points: 3
#     Node 6, Type 0, BuildingBlock: KAKCAD_clean_linker_0, # of connection points: 3
#     Node 7, Type 0, BuildingBlock: KAKCAD_clean_linker_0, # of connection points: 3
#     Node 8, Type 1, BuildingBlock: CUKXOW_clean_sbu_0, # of connection points: 6
#     Node 9, Type 1, BuildingBlock: CUKXOW_clean_sbu_0, # of connection points: 6
#     Node 10, Type 1, BuildingBlock: CUKXOW_clean_sbu_0, # of connection points: 6
#     Node 11, Type 1, BuildingBlock: CUKXOW_clean_sbu_0, # of connection points: 6
#     Edge 12, Type (0, 1), BuildingBlock: EZIPEK_clean_linker_0, # of connection points: 2
#     Edge 13, Type (0, 1), BuildingBlock: EZIPEK_clean_linker_0, # of connection points: 2
#     Edge 14, Type (0, 1), BuildingBlock: EZIPEK_clean_linker_0, # of connection points: 2
#     Edge 15, Type (0, 1), BuildingBlock: EZIPEK_clean_linker_0, # of connection points: 2
#     Edge 16, Type (0, 1), BuildingBlock: EZIPEK_clean_linker_0, # of connection points: 2
#     Edge 17, Type (0, 1), BuildingBlock: EZIPEK_clean_linker_0, # of connection points: 2
#     Edge 18, Type (0, 1), BuildingBlock: EZIPEK_clean_linker_0, # of connection points: 2
#     Edge 19, Type (0, 1), BuildingBlock: EZIPEK_clean_linker_0, # of connection points: 2
#     Edge 20, Type (0, 1), BuildingBlock: EZIPEK_clean_linker_0, # of connection points: 2
#     Edge 21, Type (0, 1), BuildingBlock: EZIPEK_clean_linker_0, # of connection points: 2
#     Edge 22, Type (0, 1), BuildingBlock: EZIPEK_clean_linker_0, # of connection points: 2
#     Edge 23, Type (0, 1), BuildingBlock: EZIPEK_clean_linker_0, # of connection points: 2
#     Edge 24, Type (0, 1), BuildingBlock: EZIPEK_clean_linker_0, # of connection points: 2
#     Edge 25, Type (0, 1), BuildingBlock: EZIPEK_clean_linker_0, # of connection points: 2
#     Edge 26, Type (0, 1), BuildingBlock: EZIPEK_clean_linker_0, # of connection points: 2
#     Edge 27, Type (0, 1), BuildingBlock: EZIPEK_clean_linker_0, # of connection points: 2
#     Edge 28, Type (0, 1), BuildingBlock: EZIPEK_clean_linker_0, # of connection points: 2
#     Edge 29, Type (0, 1), BuildingBlock: EZIPEK_clean_linker_0, # of connection points: 2
#     Edge 30, Type (0, 1), BuildingBlock: EZIPEK_clean_linker_0, # of connection points: 2
#     Edge 31, Type (0, 1), BuildingBlock: EZIPEK_clean_linker_0, # of connection points: 2
#     Edge 32, Type (0, 1), BuildingBlock: EZIPEK_clean_linker_0, # of connection points: 2
#     Edge 33, Type (0, 1), BuildingBlock: EZIPEK_clean_linker_0, # of connection points: 2
#     Edge 34, Type (0, 1), BuildingBlock: EZIPEK_clean_linker_0, # of connection points: 2
#     Edge 35, Type (0, 1), BuildingBlock: EZIPEK_clean_linker_0, # of connection points: 2
# Relax obj value: 0.209
# Max RMSD: 0.228
# Mean RMSD: 0.185
data_MOF--net-zzz--node1-CUKXOW_clean_sbu_0--node2-KAKCAD_clean_linker_0--edge1-EZIPEK_clean_linker_0
_symmetry_space_group_name_H-M    P1
_symmetry_Int_Tables_number       1
_symmetry_cell_setting            triclinic
loop_
_symmetry_equiv_pos_as_xyz
'x, y, z'
_cell_length_a     45.654429
_cell_length_b     45.187999
_cell_length_c     16.201774
_cell_angle_alpha  92.988514
_cell_angle_beta   87.809558
_cell_angle_gamma 95.709322
loop_
_atom_site_label
_atom_site_type_symbol
_atom_site_fract_x
_atom_site_fract_y
_atom_site_fract_z
_atom_type_partial_charge
C0 C 0.84442 0.46667 0.88128 0.0
C1 C 0.86311 0.44508 0.89803 0.0
C2 C 0.81705 0.46697 0.9225 0.0
C3 C 0.80844 0.44598 0.98181 0.0
C4 C 0.82595 0.42268 0.99234 0.0
C5 C 0.85312 0.4221 0.95007 0.0
C6 C 0.78487 0.45201 0.04329 0.0
C7 C 0.7569 0.45711 0.019 0.0
C8 C 0.73551 0.46622 0.07736 0.0
C9 C 0.74324 0.47176 0.161 0.0
C10 C 0.77153 0.46647 0.18554 0.0
C11 C 0.79181 0.4562 0.12649 0.0
C12 C 0.78228 0.47326 0.2702 0.0
C13 C 0.79212 0.50278 0.29431 0.0
C14 C 0.79143 0.44999 0.31426 0.0
C15 C 0.81219 0.45593 0.37579 0.0
C16 C 0.82421 0.48522 0.39406 0.0
C17 C 0.70566 0.46996 0.04772 0.0
C18 C 0.69277 0.44885 0.98956 0.0
C19 C 0.69127 0.49553 0.06942 0.0
C20 C 0.66543 0.50059 0.02995 0.0
C21 C 0.65394 0.48027 0.96781 0.0
C22 C 0.66742 0.45407 0.94968 0.0
C23 C 0.81297 0.50874 0.35592 0.0
H24 H 0.85208 0.48479 0.84221 0.0
H25 H 0.80399 0.48527 0.91405 0.0
H26 H 0.81964 0.4063 0.0379 0.0
H27 H 0.8675 0.40549 0.9641 0.0
H28 H 0.75198 0.45439 0.95393 0.0
H29 H 0.8139 0.45316 0.14483 0.0
H30 H 0.72743 0.47962 0.20646 0.0
H31 H 0.78598 0.52102 0.25993 0.0
H32 H 0.78466 0.42704 0.29557 0.0
H33 H 0.82065 0.43749 0.40425 0.0
H34 H 0.7029 0.42861 0.97272 0.0
H35 H 0.70067 0.5122 0.11386 0.0
H36 H 0.82209 0.53148 0.36895 0.0
H37 H 0.65865 0.43789 0.90297 0.0
H38 H 0.65508 0.52079 0.04545 0.0
C39 C 0.92634 0.8473 0.94036 0.0
C40 C 0.95675 0.84751 0.92281 0.0
C41 C 0.91061 0.82249 0.97452 0.0
C42 C 0.92498 0.79736 0.9897 0.0
C43 C 0.95493 0.79688 0.96654 0.0
C44 C 0.97075 0.82187 0.93407 0.0
C45 C 0.91074 0.77388 0.04207 0.0
C46 C 0.9133 0.74391 0.02 0.0
C47 C 0.90808 0.72224 0.07898 0.0
C48 C 0.89985 0.73051 0.16059 0.0
C49 C 0.89643 0.76047 0.18297 0.0
C50 C 0.90108 0.78184 0.12252 0.0
C51 C 0.89573 0.77126 0.27078 0.0
C52 C 0.87819 0.79413 0.29658 0.0
C53 C 0.91824 0.76469 0.32173 0.0
C54 C 0.92586 0.7834 0.39046 0.0
C55 C 0.91085 0.80862 0.40918 0.0
C56 C 0.91796 0.69279 0.05823 0.0
C57 C 0.89987 0.67094 0.01473 0.0
C58 C 0.94758 0.68869 0.06902 0.0
C59 C 0.9595 0.66377 0.03266 0.0
C60 C 0.94184 0.6425 0.98586 0.0
C61 C 0.9117 0.64565 0.97945 0.0
C62 C 0.88572 0.81274 0.36564 0.0
H63 H 0.91521 0.86697 0.93217 0.0
H64 H 0.8876 0.82339 0.99252 0.0
H65 H 0.96663 0.77796 0.97902 0.0
H66 H 0.99422 0.82172 0.92148 0.0
H67 H 0.92188 0.73776 0.95877 0.0
H68 H 0.90093 0.80527 0.14076 0.0
H69 H 0.89809 0.71409 0.20746 0.0
H70 H 0.86069 0.79954 0.25839 0.0
H71 H 0.93226 0.74736 0.30307 0.0
H72 H 0.94538 0.78005 0.42341 0.0
H73 H 0.87709 0.67412 0.00482 0.0
H74 H 0.96188 0.70569 0.10133 0.0
H75 H 0.87399 0.8322 0.37932 0.0
H76 H 0.89782 0.6294 0.94336 0.0
H77 H 0.98279 0.66171 0.03795 0.0
C78 C 0.64263 0.00232 0.90708 0.0
C79 C 0.6439 0.03342 0.90385 0.0
C80 C 0.66525 0.98933 0.94274 0.0
C81 C 0.68959 0.00732 0.97345 0.0
C82 C 0.69177 0.0382 0.96505 0.0
C83 C 0.66884 0.05125 0.93149 0.0
C84 C 0.70853 0.99567 0.03238 0.0
C85 C 0.73837 0.99373 0.01455 0.0
C86 C 0.75741 0.98836 0.07727 0.0
C87 C 0.74624 0.9867 0.15992 0.0
C88 C 0.71601 0.98909 0.17751 0.0
C89 C 0.69735 0.99211 0.11259 0.0
C90 C 0.70292 0.99238 0.26215 0.0
C91 C 0.69882 0.96837 0.31443 0.0
C92 C 0.68789 0.01766 0.28137 0.0
C93 C 0.66674 0.01769 0.34538 0.0
C94 C 0.66091 0.99296 0.39441 0.0
C95 C 0.78895 0.98641 0.05382 0.0
C96 C 0.79622 0.96924 0.98246 0.0
C97 C 0.81148 0.0044 0.09431 0.0
C98 C 0.84047 0.00631 0.06119 0.0
C99 C 0.84712 0.99037 0.98709 0.0
C100 C 0.82492 0.9713 0.94934 0.0
C101 C 0.67825 0.9689 0.38132 0.0
H102 H 0.62332 0.98832 0.88675 0.0
H103 H 0.66294 0.96556 0.95093 0.0
H104 H 0.71008 0.0524 0.99065 0.0
H105 H 0.66992 0.07528 0.93047 0.0
H106 H 0.74691 0.99744 0.95216 0.0
H107 H 0.67415 0.99438 0.1258 0.0
H108 H 0.76087 0.98429 0.2097 0.0
H109 H 0.70991 0.94853 0.30032 0.0
H110 H 0.69065 0.03646 0.24193 0.0
H111 H 0.654 0.03667 0.35449 0.0
H112 H 0.77938 0.95498 0.95038 0.0
H113 H 0.80644 0.01804 0.14899 0.0
H114 H 0.6745 0.9498 0.41942 0.0
H115 H 0.82969 0.95849 0.89286 0.0
H116 H 0.85746 0.02086 0.09172 0.0
C117 C 0.57835 0.71019 0.41194 0.0
C118 C 0.59638 0.68745 0.42397 0.0
C119 C 0.58614 0.73079 0.35138 0.0
C120 C 0.61195 0.72869 0.30235 0.0
C121 C 0.63164 0.70828 0.32196 0.0
C122 C 0.62387 0.68772 0.38235 0.0
C123 C 0.61383 0.7406 0.21884 0.0
C124 C 0.61232 0.77089 0.20543 0.0
C125 C 0.61101 0.78032 0.12425 0.0
C126 C 0.60976 0.75912 0.05733 0.0
C127 C 0.61018 0.72877 0.0707 0.0
C128 C 0.61302 0.71993 0.15122 0.0
C129 C 0.60359 0.70556 0.00408 0.0
C130 C 0.57845 0.70592 0.95755 0.0
C131 C 0.61912 0.68031 0.99728 0.0
C132 C 0.609 0.65536 0.94817 0.0
C133 C 0.58336 0.65495 0.90131 0.0
C134 C 0.60823 0.81179 0.10802 0.0
C135 C 0.58326 0.82534 0.1376 0.0
C136 C 0.62831 0.82688 0.05314 0.0
C137 C 0.62259 0.85429 0.02429 0.0
C138 C 0.59632 0.86656 0.04828 0.0
C139 C 0.57723 0.85249 0.10747 0.0
C140 C 0.56824 0.68097 0.90836 0.0
H141 H 0.557 0.71019 0.44356 0.0
H142 H 0.57047 0.74609 0.33678 0.0
H143 H 0.65161 0.70621 0.28464 0.0
H144 H 0.63801 0.67031 0.39088 0.0
H145 H 0.61197 0.7869 0.25756 0.0
H146 H 0.61219 0.69638 0.16232 0.0
H147 H 0.60724 0.76614 0.9952 0.0
H148 H 0.56532 0.72466 0.96402 0.0
H149 H 0.6383 0.67919 0.03396 0.0
H150 H 0.62089 0.63624 0.953 0.0
H151 H 0.56739 0.81395 0.17945 0.0
H152 H 0.64769 0.81677 0.02958 0.0
H153 H 0.5472 0.68187 0.88093 0.0
H154 H 0.55684 0.86161 0.12653 0.0
H155 H 0.63756 0.86484 0.97869 0.0
C156 C 0.17098 0.59919 0.5101 0.0
C157 C 0.14521 0.58471 0.47646 0.0
C158 C 0.19712 0.6021 0.46152 0.0
C159 C 0.19778 0.59019 0.37928 0.0
C160 C 0.1711 0.5777 0.34518 0.0
C161 C 0.14518 0.57531 0.39296 0.0
C162 C 0.22605 0.58655 0.33206 0.0
C163 C 0.25088 0.57908 0.37207 0.0
C164 C 0.27464 0.56776 0.32677 0.0
C165 C 0.27284 0.56303 0.24017 0.0
C166 C 0.24848 0.57135 0.19944 0.0
C167 C 0.2264 0.58484 0.24542 0.0
C168 C 0.24137 0.56047 0.11397 0.0
C169 C 0.23259 0.58054 0.05842 0.0
C170 C 0.23352 0.52983 0.09898 0.0
C171 C 0.21386 0.51988 0.03687 0.0
C172 C 0.20212 0.54045 0.98863 0.0
C173 C 0.30029 0.55934 0.37135 0.0
C174 C 0.29598 0.54464 0.44608 0.0
C175 C 0.32926 0.56716 0.34187 0.0
C176 C 0.35332 0.56119 0.38734 0.0
C177 C 0.34881 0.54719 0.46278 0.0
C178 C 0.32 0.53866 0.49134 0.0
C179 C 0.21307 0.57058 0.99611 0.0
H180 H 0.1713 0.6064 0.57489 0.0
H181 H 0.21702 0.61231 0.48962 0.0
H182 H 0.17033 0.56746 0.28333 0.0
H183 H 0.12551 0.5638 0.3664 0.0
H184 H 0.25124 0.58076 0.43891 0.0
H185 H 0.20766 0.59107 0.21353 0.0
H186 H 0.28967 0.552 0.20515 0.0
H187 H 0.23805 0.60427 0.06928 0.0
H188 H 0.23959 0.51396 0.14163 0.0
H189 H 0.20558 0.49656 0.03214 0.0
H190 H 0.27399 0.53778 0.46979 0.0
H191 H 0.3333 0.57861 0.28484 0.0
H192 H 0.2042 0.58678 0.95953 0.0
H193 H 0.31614 0.52754 0.54895 0.0
H194 H 0.37546 0.56776 0.3642 0.0
C195 C 0.05649 0.15653 0.52201 0.0
C196 C 0.06063 0.12843 0.48465 0.0
C197 C 0.06602 0.18247 0.48092 0.0
C198 C 0.08165 0.18094 0.40405 0.0
C199 C 0.08926 0.15282 0.37365 0.0
C200 C 0.07786 0.12698 0.41125 0.0
C201 C 0.08685 0.20736 0.35087 0.0
C202 C 0.08646 0.2368 0.38381 0.0
C203 C 0.08585 0.26065 0.33145 0.0
C204 C 0.08753 0.25543 0.24519 0.0
C205 C 0.08971 0.2266 0.21177 0.0
C206 C 0.08877 0.20289 0.26428 0.0
C207 C 0.08893 0.21922 0.12225 0.0
C208 C 0.06152 0.21595 0.08476 0.0
C209 C 0.11271 0.20591 0.08357 0.0
C210 C 0.10814 0.18627 0.0148 0.0
C211 C 0.07969 0.17966 0.98501 0.0
C212 C 0.07984 0.29024 0.36722 0.0
C213 C 0.09661 0.30404 0.43192 0.0
C214 C 0.05558 0.30367 0.34096 0.0
C215 C 0.04762 0.32998 0.38052 0.0
C216 C 0.06408 0.3435 0.44604 0.0
C217 C 0.08895 0.3307 0.47055 0.0
C218 C 0.05688 0.19611 0.01639 0.0
H219 H 0.04404 0.15829 0.58006 0.0
H220 H 0.05962 0.20333 0.50798 0.0
H221 H 0.10301 0.15028 0.31841 0.0
H222 H 0.08211 0.10569 0.38174 0.0
H223 H 0.08507 0.24128 0.45001 0.0
H224 H 0.08758 0.18067 0.23565 0.0
H225 H 0.08656 0.27355 0.20441 0.0
H226 H 0.04283 0.22568 0.11445 0.0
H227 H 0.1339 0.20787 0.11239 0.0
H228 H 0.12589 0.17358 0.99157 0.0
H229 H 0.11538 0.29401 0.45313 0.0
H230 H 0.04211 0.29321 0.29192 0.0
H231 H 0.03475 0.19107 0.99428 0.0
H232 H 0.10191 0.34094 0.52093 0.0
H233 H 0.02834 0.33956 0.36101 0.0
C234 C 0.35237 0.95996 0.47999 0.0
C235 C 0.37635 0.98188 0.48372 0.0
C236 C 0.32831 0.9639 0.43255 0.0
C237 C 0.32817 0.98968 0.38786 0.0
C238 C 0.35191 0.01194 0.39375 0.0
C239 C 0.3758 0.0081 0.44171 0.0
C240 C 0.30459 0.9923 0.32973 0.0
C241 C 0.2749 0.98666 0.3535 0.0
C242 C 0.2526 0.98859 0.29687 0.0
C243 C 0.2605 0.9962 0.21481 0.0
C244 C 0.2905 0.00149 0.1909 0.0
C245 C 0.31213 -0.0004 0.2487 0.0
C246 C 0.30137 0.00831 0.10645 0.0
C247 C 0.30911 0.98463 0.05292 0.0
C248 C 0.31502 0.03708 0.09436 0.0
C249 C 0.33873 0.04139 0.03775 0.0
C250 C 0.34887 0.01704 0.99185 0.0
C251 C 0.2215 0.98293 0.32684 0.0
C252 C 0.21318 0.95803 0.37408 0.0
C253 C 0.20141 0.00428 0.32011 0.0
C254 C 0.17435 0.00174 0.36468 0.0
C255 C 0.1672 0.97786 0.41643 0.0
C256 C 0.18637 0.95558 0.41855 0.0
C257 C 0.3327 0.98899 0.99551 0.0
H258 H 0.35257 0.93966 0.5126 0.0
H259 H 0.31037 0.94635 0.42827 0.0
H260 H 0.35215 0.0321 0.36024 0.0
H261 H 0.39405 0.02531 0.44507 0.0
H262 H 0.26915 0.98132 0.41694 0.0
H263 H 0.33521 0.00322 0.22959 0.0
H264 H 0.24366 0.99762 0.17025 0.0
H265 H 0.29939 0.96215 0.06243 0.0
H266 H 0.30988 0.05552 0.13607 0.0
H267 H 0.35084 0.06322 0.03536 0.0
H268 H 0.22814 0.94113 0.37983 0.0
H269 H 0.20736 0.02377 0.28464 0.0
H270 H 0.34017 0.96998 0.96024 0.0
H271 H 0.1811 0.93687 0.4575 0.0
H272 H 0.15968 0.01906 0.36205 0.0
C273 C 0.38526 0.32196 0.00922 0.0
C274 C 0.41319 0.33176 0.97609 0.0
C275 C 0.38213 0.29789 0.06091 0.0
C276 C 0.40675 0.28317 0.0782 0.0
C277 C 0.43334 0.28994 0.03381 0.0
C278 C 0.43666 0.31434 0.98382 0.0
C279 C 0.40896 0.27303 0.16228 0.0
C280 C 0.40764 0.24298 0.18129 0.0
C281 C 0.41279 0.2356 0.2626 0.0
C282 C 0.42026 0.25839 0.3231 0.0
C283 C 0.42254 0.28839 0.3032 0.0
C284 C 0.41629 0.2953 0.22314 0.0
C285 C 0.43393 0.31286 0.36169 0.0
C286 C 0.45855 0.31 0.40932 0.0
C287 C 0.4224 0.34062 0.36233 0.0
C288 C 0.4361 0.36529 0.4054 0.0
C289 C 0.46117 0.36265 0.45067 0.0
C290 C 0.41301 0.20435 0.28479 0.0
C291 C 0.39439 0.19331 0.34945 0.0
C292 C 0.43516 0.18734 0.25172 0.0
C293 C 0.44033 0.16097 0.2879 0.0
C294 C 0.42317 0.15121 0.35684 0.0
C295 C 0.39921 0.16671 0.38464 0.0
C296 C 0.47194 0.33472 0.45411 0.0
H297 H 0.36677 0.33482 0.00253 0.0
H298 H 0.36154 0.29333 0.09554 0.0
H299 H 0.4527 0.27919 0.04713 0.0
H300 H 0.45828 0.32124 0.95746 0.0
H301 H 0.403 0.22563 0.13354 0.0
H302 H 0.41893 0.31833 0.20586 0.0
H303 H 0.42515 0.25266 0.38492 0.0
H304 H 0.46813 0.28903 0.4095 0.0
H305 H 0.40312 0.34346 0.32768 0.0
H306 H 0.42712 0.38656 0.40358 0.0
H307 H 0.37726 0.2062 0.37596 0.0
H308 H 0.44991 0.19564 0.20235 0.0
H309 H 0.49097 0.33223 0.49013 0.0
H310 H 0.38582 0.15954 0.43793 0.0
H311 H 0.45898 0.14936 0.26594 0.0
Tb312 Tb 0.99425 0.96195 0.64885 0.0
C313 C 0.06343 0.97498 0.63252 0.0
Tb314 Tb 0.02545 0.01209 0.76379 0.0
O315 O 0.00371 0.98947 0.54191 0.0
O316 O 0.99851 0.0088 0.66072 0.0
O317 O 0.04013 0.95544 0.61921 0.0
C318 C 0.04835 0.06581 0.81637 0.0
O319 O 0.06119 0.00044 0.67702 0.0
C320 C 0.01679 0.95994 0.82782 0.0
C321 C 0.95723 0.99255 0.79485 0.0
O322 O 0.05719 0.04078 0.83668 0.0
O323 O 0.02677 0.0606 0.76622 0.0
O324 O 0.0228 0.98459 0.87178 0.0
O325 O 0.02088 0.96564 0.75264 0.0
O326 O 0.98034 0.01155 0.81539 0.0
O327 O 0.95774 0.97262 0.73183 0.0
C328 C 0.96591 0.91212 0.58586 0.0
O329 O 0.96626 0.93821 0.55578 0.0
O330 O 0.98171 0.91398 0.65101 0.0
C331 C 0.00591 0.01419 0.58691 0.0
Tb332 Tb 0.50121 0.03633 0.65622 0.0
C333 C 0.55767 0.00383 0.60947 0.0
Tb334 Tb 0.51965 0.99037 0.77533 0.0
O335 O 0.53683 0.0691 0.69691 0.0
O336 O 0.51868 0.03715 0.77556 0.0
O337 O 0.53586 0.01721 0.57987 0.0
C338 C 0.54646 0.957 0.87509 0.0
O339 O 0.55701 0.99413 0.68566 0.0
C340 C 0.47983 0.97082 0.6682 0.0
C341 C 0.46323 0.02391 0.82387 0.0
O342 O 0.52371 0.94823 0.83168 0.0
O343 O 0.55422 0.98491 0.8631 0.0
O344 O 0.48292 0.95839 0.73712 0.0
O345 O 0.50132 0.99007 0.65798 0.0
O346 O 0.48428 0.00871 0.85115 0.0
O347 O 0.46432 0.03313 0.747 0.0
C348 C 0.47334 0.06698 0.55228 0.0
O349 O 0.49825 0.07565 0.58578 0.0
O350 O 0.46393 0.04073 0.57697 0.0
C351 C 0.53898 0.05796 0.76826 0.0
Tb352 Tb 0.52056 0.5329 0.64888 0.0
C353 C 0.45087 0.52653 0.64599 0.0
Tb354 Tb 0.4833 0.49568 0.7887 0.0
O355 O 0.52022 0.49541 0.55408 0.0
O356 O 0.501 0.49027 0.66876 0.0
O357 O 0.47616 0.53825 0.61236 0.0
C358 C 0.45687 0.44686 0.85691 0.0
O359 O 0.4485 0.51016 0.71278 0.0
C360 C 0.50672 0.54916 0.83431 0.0
C361 C 0.55339 0.49815 0.77481 0.0
O362 O 0.44408 0.47076 0.84466 0.0
O363 O 0.4843 0.45125 0.83368 0.0
O364 O 0.49729 0.52936 0.88768 0.0
O365 O 0.49871 0.53922 0.76434 0.0
O366 O 0.52799 0.48305 0.7961 0.0
O367 O 0.55431 0.52241 0.73149 0.0
C368 C 0.54761 0.58096 0.58157 0.0
O369 O 0.55725 0.55478 0.57636 0.0
O370 O 0.52263 0.57989 0.62254 0.0
C371 C 0.50556 0.47617 0.60151 0.0
Tb372 Tb 0.98491 0.50106 0.64635 0.0
C373 C 0.02649 0.44918 0.61868 0.0
Tb374 Tb 0.03781 0.49924 0.76401 0.0
O375 O 0.01592 0.51664 0.54662 0.0
O376 O 0.02584 0.52588 0.67009 0.0
O377 O 1.00091 0.45898 0.602 0.0
C378 C 0.0916 0.50709 0.82638 0.0
O379 O 0.04477 0.46219 0.67507 0.0
C380 C 0.98696 0.47271 0.81514 0.0
C381 C 0.99347 0.54708 0.79922 0.0
O382 O 0.06745 0.49812 0.86658 0.0
O383 O 0.08553 0.51109 0.75033 0.0
O384 O 0.00845 0.48113 0.8643 0.0
O385 O 0.99669 0.47573 0.74232 0.0
O386 O 0.02159 0.54197 0.80023 0.0
O387 O 0.97412 0.53047 0.75269 0.0
C388 C 0.93242 0.49921 0.57654 0.0
O389 O 0.95222 0.52195 0.57896 0.0
O390 O 0.94208 0.47761 0.61413 0.0
C391 C 0.03615 0.52724 0.59739 0.0
C392 C 0.11639 0.95555 0.45608 0.0
C393 C 0.14076 0.9766 0.47336 0.0
C394 C 0.11813 0.98894 0.6093 0.0
C395 C 0.09236 0.97028 0.58796 0.0
N396 N 0.07562 0.92422 0.51364 0.0
N397 N 0.16503 0.01427 0.56513 0.0
C398 C 0.09373 0.95017 0.51763 0.0
C399 C 0.14173 0.99353 0.5498 0.0
N400 N 0.11454 0.94111 0.37994 0.0
N401 N 0.12123 -0.00035 0.68928 0.0
H402 H 0.18346 0.01723 0.52533 0.0
H403 H 0.16531 0.02996 0.61454 0.0
H404 H 0.1062 0.993 0.73649 0.0
H405 H 0.14026 0.01155 0.71135 0.0
H406 H 0.0957 0.92808 0.36055 0.0
H407 H 0.13078 0.94441 0.33334 0.0
H408 H 0.07693 0.90798 0.46598 0.0
H409 H 0.06313 0.91634 0.56446 0.0
C410 C 0.44593 0.13758 0.48592 0.0
C411 C 0.43349 0.12837 0.40867 0.0
C412 C 0.44572 0.07739 0.42615 0.0
C413 C 0.45659 0.08654 0.50537 0.0
N414 N 0.45806 0.12271 0.62044 0.0
N415 N 0.4162 0.08867 0.31218 0.0
C416 C 0.45392 0.11583 0.53825 0.0
C417 C 0.43167 0.09793 0.38089 0.0
N418 N 0.4515 0.16718 0.50798 0.0
N419 N 0.45003 0.04974 0.39251 0.0
H420 H 0.4059 0.10327 0.2777 0.0
H421 H 0.41151 0.06635 0.29357 0.0
H422 H 0.46004 0.03409 0.42387 0.0
H423 H 0.4454 0.04296 0.33159 0.0
H424 H 0.46345 0.17492 0.5596 0.0
H425 H 0.44688 0.18416 0.47076 0.0
H426 H 0.45356 0.14302 0.64914 0.0
H427 H 0.46263 0.10699 0.66186 0.0
C428 C 0.39094 0.51726 0.48661 0.0
C429 C 0.37432 0.54123 0.51186 0.0
C430 C 0.40531 0.55263 0.63248 0.0
C431 C 0.42367 0.53064 0.60246 0.0
N432 N 0.43615 0.49401 0.49654 0.0
N433 N 0.36723 0.58407 0.60281 0.0
C434 C 0.41708 0.5135 0.52824 0.0
C435 C 0.38183 0.55949 0.5835 0.0
N436 N 0.3812 0.49753 0.42438 0.0
N437 N 0.41026 0.56682 0.70798 0.0
H438 H 0.34987 0.58971 0.56865 0.0
H439 H 0.37363 0.60012 0.64872 0.0
H440 H 0.42771 0.56287 0.74429 0.0
H441 H 0.39593 0.5808 0.73753 0.0
H442 H 0.3904 0.4777 0.4092 0.0
H443 H 0.36224 0.49966 0.3921 0.0
H444 H 0.43451 0.4835 0.43795 0.0
H445 H 0.45494 0.48979 0.52655 0.0
C446 C 0.0439 0.36922 0.57396 0.0
C447 C 0.05451 0.37058 0.49062 0.0
C448 C 0.04193 0.42191 0.48768 0.0
C449 C 0.03492 0.42179 0.57386 0.0
N450 N 0.03223 0.39626 0.70188 0.0
N451 N 0.06889 0.3998 0.37272 0.0
C452 C 0.03698 0.39576 0.61799 0.0
C453 C 0.05495 0.39737 0.44862 0.0
N454 N 0.03906 0.34235 0.60983 0.0
N455 N 0.03596 0.44521 0.44262 0.0
H456 H 0.07926 0.38249 0.34277 0.0
H457 H 0.07269 0.41982 0.34318 0.0
H458 H 0.02685 0.46394 0.46838 0.0
H459 H 0.03769 0.44482 0.37828 0.0
H460 H 0.02834 0.33958 0.66721 0.0
H461 H 0.04316 0.32226 0.5791 0.0
H462 H 0.03699 0.37911 0.73819 0.0
H463 H 0.02535 0.41459 0.73633 0.0
C464 C 0.89317 0.96781 0.94219 0.0
C465 C 0.87716 0.99307 0.94716 0.0
C466 C 0.9152 0.01947 0.85888 0.0
C467 C 0.9294 0.99284 0.84634 0.0
N468 N 0.92717 0.93943 0.86309 0.0
N469 N 0.87056 0.04191 0.90213 0.0
C470 C 0.91702 0.96636 0.884 0.0
C471 C 0.88768 0.0188 0.90407 0.0
N472 N 0.88593 0.9453 0.99471 0.0
N473 N 0.92744 0.0452 0.82552 0.0
H474 H 0.85039 0.04232 0.9344 0.0
H475 H 0.8752 0.05973 0.86397 0.0
H476 H 0.94551 0.04609 0.78414 0.0
H477 H 0.92039 0.06601 0.84157 0.0
H478 H 0.89885 0.92779 0.00029 0.0
H479 H 0.86875 0.94581 0.039 0.0
H480 H 0.91612 0.9193 0.88047 0.0
H481 H 0.94527 0.93648 0.82393 0.0
C482 C 0.57887 0.88627 0.9188 0.0
C483 C 0.58666 0.89145 0.00272 0.0
C484 C 0.56984 0.94143 0.00305 0.0
C485 C 0.56346 0.93652 0.9181 0.0
N486 N 0.57099 0.90834 0.78981 0.0
N487 N 0.59554 0.92594 0.11967 0.0
C488 C 0.57084 0.9102 0.87433 0.0
C489 C 0.58409 0.91975 0.0433 0.0
N490 N 0.57754 0.85818 0.88246 0.0
N491 N 0.56092 0.96589 0.04626 0.0
H492 H 0.60603 0.91047 0.15051 0.0
H493 H 0.59692 0.94706 0.14906 0.0
H494 H 0.55013 0.98193 0.01892 0.0
H495 H 0.5622 0.96913 0.11018 0.0
H496 H 0.56891 0.85284 0.82434 0.0
H497 H 0.58224 0.83958 0.91309 0.0
H498 H 0.57894 0.89072 0.75458 0.0
H499 H 0.56642 0.92596 0.75476 0.0
C500 C 0.63179 0.50606 0.85402 0.0
C501 C 0.62818 0.48587 0.9189 0.0
C502 C 0.57983 0.46662 0.86784 0.0
C503 C 0.58125 0.48978 0.8113 0.0
N504 N 0.61431 0.52019 0.72361 0.0
N505 N 0.59701 0.44992 0.99514 0.0
C506 C 0.60883 0.50666 0.79688 0.0
C507 C 0.60165 0.46707 0.92798 0.0
N508 N 0.65719 0.52465 0.84688 0.0
N509 N 0.55978 0.44227 0.85803 0.0
H510 H 0.6124 0.44989 0.04114 0.0
H511 H 0.57679 0.43813 0.00919 0.0
H512 H 0.54736 0.43825 0.80521 0.0
H513 H 0.55915 0.42377 0.89409 0.0
H514 H 0.65975 0.54247 0.80819 0.0
H515 H 0.67521 0.52365 0.88386 0.0
H516 H 0.63442 0.53147 0.70649 0.0
H517 H 0.6003 0.51616 0.6741 0.0
C518 C 0.96908 0.59689 0.97947 0.0
C519 C 0.95571 0.6185 0.93771 0.0
C520 C 0.96884 0.59443 0.80428 0.0
C521 C 0.9834 0.57351 0.84626 0.0
N522 N 0.00553 0.5617 0.97303 0.0
N523 N 0.94981 0.64268 0.8108 0.0
C524 C 0.98624 0.57691 0.9335 0.0
C525 C 0.95748 0.61865 0.85011 0.0
N526 N 0.96445 0.59461 0.06286 0.0
N527 N 0.96625 0.59158 0.72037 0.0
H528 H 0.94223 0.66132 0.84212 0.0
H529 H 0.95365 0.64553 0.74781 0.0
H530 H 0.97716 0.57653 0.68267 0.0
H531 H 0.9523 0.60346 0.68836 0.0
H532 H 0.97101 0.57711 0.09489 0.0
H533 H 0.95148 0.60848 0.09862 0.0
H534 H 0.01048 0.56614 0.03497 0.0
H535 H 0.01856 0.54652 0.94338 0.0
C536 C 0.01534 0.096 0.53537 0.0
C537 C 0.04633 0.10027 0.51888 0.0
C538 C 0.04883 0.04695 0.52894 0.0
C539 C 0.01916 0.04346 0.55903 0.0
N540 N 0.97513 0.06638 0.60271 0.0
N541 N 0.0933 0.08043 0.52782 0.0
C542 C 0.00285 0.06865 0.56733 0.0
C543 C 0.06333 0.07593 0.52474 0.0
N544 N 0.99741 0.1167 0.51446 0.0
N545 N 0.06305 0.02308 0.50083 0.0
H546 H 0.10462 0.10167 0.52978 0.0
H547 H 0.10626 0.06332 0.53835 0.0
H548 H 0.05257 0.00163 0.49457 0.0
H549 H 0.08417 0.02533 0.47353 0.0
H550 H 0.9745 0.11312 0.51863 0.0
H551 H 0.00497 0.13581 0.48383 0.0
H552 H 0.96376 0.08492 0.61798 0.0
H553 H 0.96429 0.04633 0.62158 0.0
C554 C 0.40061 0.97961 0.61829 0.0
C555 C 0.40237 0.97716 0.53099 0.0
C556 C 0.45428 0.96816 0.53386 0.0
C557 C 0.45226 0.96922 0.6218 0.0
N558 N 0.42061 0.96812 0.7467 0.0
N559 N 0.42859 0.96376 0.40483 0.0
C560 C 0.42457 0.97232 0.66387 0.0
C561 C 0.42857 0.96991 0.48843 0.0
N562 N 0.37648 0.9902 0.65786 0.0
N563 N 0.48084 0.9655 0.4936 0.0
H564 H 0.41015 0.96491 0.36945 0.0
H565 H 0.44601 0.95522 0.37128 0.0
H566 H 0.49951 0.96074 0.52344 0.0
H567 H 0.48469 0.96907 0.43098 0.0
H568 H 0.37547 0.99599 0.72087 0.0
H569 H 0.3584 0.99585 0.62673 0.0
H570 H 0.39999 0.96677 0.77685 0.0
H571 H 0.43684 0.96318 0.78528 0.0
C572 C 0.503 0.4027 0.47609 0.0
C573 C 0.47464 0.38915 0.49834 0.0
C574 C 0.46726 0.43065 0.5971 0.0
C575 C 0.49596 0.44428 0.57656 0.0
N576 N 0.5442 0.43771 0.51667 0.0
N577 N 0.43319 0.38599 0.59485 0.0
C578 C 0.51477 0.42857 0.5221 0.0
C579 C 0.4578 0.40191 0.56323 0.0
N580 N 0.51817 0.3918 0.40874 0.0
N581 N 0.4487 0.44498 0.64882 0.0
H582 H 0.42621 0.36432 0.57379 0.0
H583 H 0.42132 0.39294 0.64728 0.0
H584 H 0.45658 0.46158 0.69013 0.0
H585 H 0.42601 0.43938 0.65291 0.0
H586 H 0.53743 0.40281 0.38426 0.0
H587 H 0.51023 0.37307 0.373 0.0
H588 H 0.55941 0.42563 0.48353 0.0
H589 H 0.55388 0.45541 0.55335 0.0
C590 C 0.09479 0.58975 0.54047 0.0
C591 C 0.11972 0.57351 0.52903 0.0
C592 C 0.08982 0.52747 0.55867 0.0
C593 C 0.06483 0.54346 0.57376 0.0
N594 N 0.04439 0.59066 0.59348 0.0
N595 N 0.14292 0.52926 0.55251 0.0
C596 C 0.06764 0.57498 0.56991 0.0
C597 C 0.11786 0.5432 0.54777 0.0
N598 N 0.09688 0.61884 0.52003 0.0
N599 N 0.08661 0.49723 0.54875 0.0
H600 H 0.16392 0.54027 0.54389 0.0
H601 H 0.14289 0.50784 0.5735 0.0
H602 H 0.06603 0.48539 0.54765 0.0
H603 H 0.10379 0.4845 0.53074 0.0
H604 H 0.0788 0.63107 0.51768 0.0
H605 H 0.11686 0.63033 0.50181 0.0
H606 H 0.04593 0.61381 0.59978 0.0
H607 H 0.0239 0.58038 0.61182 0.0
C608 C 0.97597 0.90011 0.96058 0.0
C609 C 0.97451 0.87562 0.90212 0.0
C610 C 0.00933 0.90423 0.81179 0.0
C611 C 0.00486 0.93067 0.85994 0.0
N612 N 0.97941 0.95339 0.9788 0.0
N613 N 0.98742 0.85554 0.76601 0.0
C614 C 0.98743 0.92861 0.93496 0.0
C615 C 0.99059 0.87792 0.82591 0.0
N616 N 0.96672 0.8962 0.04087 0.0
N617 N 0.03217 0.90379 0.75497 0.0
H618 H 0.97328 0.83619 0.77323 0.0
H619 H 0.99673 0.85758 0.70655 0.0
H620 H 0.04808 0.92182 0.74865 0.0
H621 H 0.03736 0.88441 0.7223 0.0
H622 H 0.97006 0.91285 0.0875 0.0
H623 H 0.95879 0.8755 0.06266 0.0
H624 H 0.96414 0.95223 0.0283 0.0
H625 H 0.98447 0.97506 0.96103 0.0
C626 C 0.59154 0.0439 0.93126 0.0
C627 C 0.61763 0.04731 0.88045 0.0
C628 C 0.59225 0.07551 0.78625 0.0
C629 C 0.56519 0.06312 0.82064 0.0
N630 N 0.53844 0.04588 0.94193 0.0
N631 N 0.64369 0.06863 0.76137 0.0
C632 C 0.56464 0.05079 0.89909 0.0
C633 C 0.61847 0.06432 0.80914 0.0
N634 N 0.59283 0.03473 0.01002 0.0
N635 N 0.59288 0.0985 0.7347 0.0
H636 H 0.66312 0.05966 0.77389 0.0
H637 H 0.64476 0.07949 0.70609 0.0
H638 H 0.57402 0.10878 0.72382 0.0
H639 H 0.61236 0.10972 0.71223 0.0
H640 H 0.57512 0.03375 0.05242 0.0
H641 H 0.61249 0.0303 0.03555 0.0
H642 H 0.53551 0.03391 0.99524 0.0
H643 H 0.51948 0.05451 0.92353 0.0
C644 C 0.57765 0.59828 0.87419 0.0
C645 C 0.56947 0.62665 0.85729 0.0
C646 C 0.52198 0.60291 0.81091 0.0
C647 C 0.52758 0.57623 0.84792 0.0
N648 N 0.56155 0.54953 0.92066 0.0
N649 N 0.5436 0.64906 0.75468 0.0
C650 C 0.55554 0.57422 0.88194 0.0
C651 C 0.54434 0.62714 0.80911 0.0
N652 N 0.60645 0.59285 0.86578 0.0
N653 N 0.49483 0.6058 0.78138 0.0
H654 H 0.56147 0.66511 0.74683 0.0
H655 H 0.52737 0.64905 0.71118 0.0
H656 H 0.47744 0.58904 0.78425 0.0
H657 H 0.48886 0.6258 0.7611 0.0
H658 H 0.61341 0.57172 0.87019 0.0
H659 H 0.62232 0.60855 0.84121 0.0
H660 H 0.58119 0.54865 0.95098 0.0
H661 H 0.54641 0.53104 0.92833 0.0
C662 C 0.9126 0.46945 0.93304 0.0
C663 C 0.89495 0.4507 0.87796 0.0
C664 C 0.93855 0.44201 0.79136 0.0
C665 C 0.9556 0.46409 0.8399 0.0
N666 N 0.95644 0.50283 0.94971 0.0
N667 N 0.88981 0.42201 0.74917 0.0
C668 C 0.94208 0.47874 0.90923 0.0
C669 C 0.90751 0.43786 0.8053 0.0
N670 N 0.9013 0.47837 0.00874 0.0
N671 N 0.95207 0.42383 0.73514 0.0
H672 H 0.86705 0.41798 0.75878 0.0
H673 H 0.89736 0.41506 0.69053 0.0
H674 H 0.97486 0.42458 0.72724 0.0
H675 H 0.94096 0.40574 0.70331 0.0
H676 H 0.91429 0.48883 0.05534 0.0
H677 H 0.87944 0.47316 0.0281 0.0
H678 H 0.94613 0.51659 0.99291 0.0
H679 H 0.97779 0.5111 0.93486 0.0
C680 C 0.06294 0.12549 0.98659 0.0
C681 C 0.07215 0.15071 0.93986 0.0
C682 C 0.06803 0.11968 0.81134 0.0
C683 C 0.05679 0.09508 0.85809 0.0
N684 N 0.03682 0.07634 0.98761 0.0
N685 N 0.08041 0.17326 0.80862 0.0
C686 C 0.0525 0.0984 0.94504 0.0
C687 C 0.0738 0.14825 0.85228 0.0
N688 N 0.06454 0.12726 0.07093 0.0
N689 N 0.07406 0.11546 0.72851 0.0
H690 H 0.08543 0.19428 0.83725 0.0
H691 H 0.07905 0.17359 0.7447 0.0
H692 H 0.07023 0.09477 0.69719 0.0
H693 H 0.08479 0.13173 0.69195 0.0
H694 H 0.06171 0.10868 0.10693 0.0
H695 H 0.07101 0.14686 0.10498 0.0
H696 H 0.0301 0.07897 0.04949 0.0
H697 H 0.02772 0.05642 0.95954 0.0
C698 C 0.40306 0.0108 0.99171 0.0
C699 C 0.37877 0.02035 0.95122 0.0
C700 C 0.41265 0.04274 0.84593 0.0
C701 C 0.43613 0.02867 0.87763 0.0
N702 N 0.45602 0.01468 0.004 0.0
N703 N 0.35993 0.04358 0.83655 0.0
C704 C 0.43211 0.01677 0.9572 0.0
C705 C 0.38345 0.03592 0.87758 0.0
N706 N 0.39841 0.99597 0.06325 0.0
N707 N 0.41863 0.06514 0.79252 0.0
H708 H 0.3382 0.03905 0.8581 0.0
H709 H 0.36185 0.05192 0.77762 0.0
H710 H 0.44002 0.07467 0.78049 0.0
H711 H 0.40263 0.07756 0.77157 0.0
H712 H 0.41437 0.98477 0.08923 0.0
H713 H 0.37804 0.99326 0.09465 0.0
H714 H 0.45471 0.00811 0.06474 0.0
H715 H 0.47698 0.02417 0.98725 0.0
C716 C 0.43076 0.36391 0.86006 0.0
C717 C 0.41934 0.36178 0.94191 0.0
C718 C 0.42658 0.41633 0.9614 0.0
C719 C 0.44243 0.41784 0.88434 0.0
N720 N 0.46454 0.39102 0.7676 0.0
N721 N 0.4113 0.38585 0.07674 0.0
C722 C 0.44592 0.3911 0.83559 0.0
C723 C 0.41816 0.38798 0.99421 0.0
N724 N 0.42698 0.3399 0.80531 0.0
N725 N 0.42048 0.44181 0.00506 0.0
H726 H 0.40618 0.36568 0.10477 0.0
H727 H 0.41345 0.40399 0.11921 0.0
H728 H 0.42807 0.46307 0.98695 0.0
H729 H 0.4061 0.44182 0.05658 0.0
H730 H 0.43232 0.34107 0.74235 0.0
H731 H 0.4156 0.31971 0.82134 0.0
H732 H 0.47034 0.3715 0.73691 0.0
H733 H 0.47619 0.40995 0.74519 0.0
C734 C 0.17432 0.5165 0.86624 0.0
C735 C 0.17421 0.53177 0.94496 0.0
C736 C 0.12101 0.53448 0.93883 0.0
C737 C 0.12038 0.51613 0.86496 0.0
N738 N 0.14599 0.48665 0.76249 0.0
N739 N 0.14659 0.55011 0.06389 0.0
C740 C 0.14696 0.50643 0.82932 0.0
C741 C 0.14729 0.53919 0.98354 0.0
N742 N 0.20055 0.51209 0.82632 0.0
N743 N 0.09704 0.54894 0.96403 0.0
H744 H 0.16526 0.55398 0.09951 0.0
H745 H 0.12705 0.55268 0.0977 0.0
H746 H 0.07788 0.54777 0.93053 0.0
H747 H 0.0974 0.56491 0.01285 0.0
H748 H 0.20228 0.50397 0.76518 0.0
H749 H 0.22082 0.51872 0.85257 0.0
H750 H 0.16419 0.47644 0.73884 0.0
H751 H 0.12644 0.47849 0.73446 0.0
C752 C 0.91993 0.83808 0.54367 0.0
C753 C 0.92571 0.83412 0.45744 0.0
C754 C 0.96188 0.8779 0.46096 0.0
C755 C 0.95331 0.88415 0.54445 0.0
N756 N 0.92331 0.87162 0.6659 0.0
N757 N 0.94974 0.8518 0.33103 0.0
C758 C 0.9323 0.86447 0.5865 0.0
C759 C 0.94601 0.85447 0.41524 0.0
N760 N 0.90288 0.8165 0.58433 0.0
N761 N 0.9862 0.89339 0.42651 0.0
H762 H 0.93954 0.83433 0.29463 0.0
H763 H 0.96129 0.86816 0.29627 0.0
H764 H 0.99926 0.90996 0.45908 0.0
H765 H 0.99537 0.8877 0.36871 0.0
H766 H 0.9002 0.81646 0.6484 0.0
H767 H 0.89299 0.79736 0.55393 0.0
H768 H 0.90597 0.85982 0.69725 0.0
H769 H 0.93196 0.89065 0.69922 0.0
C770 C 0.63481 0.01736 0.51445 0.0
C771 C 0.63582 0.9928 0.45661 0.0
C772 C 0.58684 0.97292 0.50863 0.0
C773 C 0.58427 -0.00015 0.55604 0.0
N774 N 0.60358 0.05052 0.58803 0.0
N775 N 0.60949 0.94987 0.38749 0.0
C776 C 0.60763 0.02288 0.55451 0.0
C777 C 0.61103 0.97105 0.45091 0.0
N778 N 0.65993 0.03525 0.53202 0.0
N779 N 0.56623 0.94921 0.51831 0.0
H780 H 0.62584 0.94845 0.34126 0.0
H781 H 0.5906 0.93553 0.37612 0.0
H782 H 0.54814 0.94998 0.55943 0.0
H783 H 0.56856 0.92813 0.49103 0.0
H784 H 0.66071 0.05212 0.57845 0.0
H785 H 0.68051 0.0311 0.50626 0.0
H786 H 0.6188 0.06896 0.57948 0.0
H787 H 0.58364 0.05557 0.61574 0.0
C788 C 0.59334 0.65431 0.5451 0.0
C789 C 0.5841 0.66019 0.46549 0.0
C790 C 0.55054 0.6143 0.46325 0.0
C791 C 0.5612 0.60746 0.54023 0.0
N792 N 0.59546 0.61801 0.64979 0.0
N793 N 0.55865 0.64301 0.34113 0.0
C794 C 0.5835 0.62658 0.57978 0.0
C795 C 0.56398 0.63942 0.42239 0.0
N796 N 0.61081 0.67558 0.58823 0.0
N797 N 0.52725 0.59701 0.42961 0.0
H798 H 0.56811 0.66095 0.30819 0.0
H799 H 0.54689 0.62687 0.30393 0.0
H800 H 0.51764 0.57758 0.45561 0.0
H801 H 0.51612 0.60299 0.37904 0.0
H802 H 0.61586 0.67404 0.64987 0.0
H803 H 0.61851 0.69596 0.56402 0.0
H804 H 0.61365 0.62958 0.67761 0.0
H805 H 0.58837 0.59806 0.67726 0.0
C806 C 0.87931 0.49502 0.39885 0.0
C807 C 0.85167 0.49054 0.4421 0.0
C808 C 0.87698 0.49068 0.57351 0.0
C809 C 0.90452 0.49706 0.53084 0.0
N810 N 0.93195 0.50839 0.40393 0.0
N811 N 0.82352 0.48786 0.57045 0.0
C812 C 0.90564 0.50042 0.44395 0.0
C813 C 0.85033 0.48935 0.52949 0.0
N814 N 0.88055 0.49243 0.31423 0.0
N815 N 0.87629 0.48573 0.65613 0.0
H816 H 0.8037 0.48669 0.53988 0.0
H817 H 0.82084 0.49002 0.63449 0.0
H818 H 0.89496 0.48871 0.69192 0.0
H819 H 0.85752 0.4771 0.68849 0.0
H820 H 0.90005 0.4917 0.27908 0.0
H821 H 0.86193 0.48854 0.27845 0.0
H822 H 0.93369 0.51532 0.34351 0.0
H823 H 0.95221 0.50969 0.43204 0.0
loop_
_geom_bond_atom_site_label_1
_geom_bond_atom_site_label_2
_geom_bond_distance
_geom_bond_site_symmetry_2
_ccdc_geom_bond_type
C0 C1 1.386 . S
C0 C2 1.397 . S
C0 H24 0.931 . S
C1 C0 1.386 . S
C1 C5 1.397 . S
C2 C0 1.397 . S
C2 C3 1.384 . S
C2 H25 0.930 . S
C3 C2 1.384 . S
C3 C4 1.377 . S
C3 C6 1.481 . S
C4 C3 1.377 . S
C4 C5 1.389 . S
C4 H26 0.929 . S
C5 C1 1.397 . S
C5 C4 1.389 . S
C5 H27 0.931 . S
C6 C3 1.481 . S
C6 C7 1.387 . S
C6 C11 1.390 1_556 S
C7 C6 1.387 . S
C7 C8 1.401 1_556 S
C7 H28 0.930 . S
C8 C7 1.401 1_554 S
C8 C9 1.376 . S
C8 C17 1.511 . S
C9 C8 1.376 . S
C9 C10 1.392 . S
C9 H30 0.931 . S
C10 C9 1.392 . S
C10 C11 1.361 . S
C10 C12 1.500 . S
C11 C6 1.390 1_554 S
C11 C10 1.361 . S
C11 H29 0.931 . S
C12 C10 1.500 . S
C12 C13 1.371 . S
C12 C14 1.365 . S
C13 C12 1.371 . S
C13 C23 1.386 . S
C13 H31 0.931 . S
C14 C12 1.365 . S
C14 C15 1.409 . S
C14 H32 0.929 . S
C15 C14 1.409 . S
C15 C16 1.380 . S
C15 H33 0.930 . S
C16 C15 1.380 . S
C16 C23 1.357 . S
C17 C8 1.511 . S
C17 C18 1.341 1_554 S
C17 C19 1.371 . S
C18 C17 1.341 1_556 S
C18 C22 1.394 . S
C18 H34 0.930 . S
C19 C17 1.371 . S
C19 C20 1.392 . S
C19 H35 0.931 . S
C20 C19 1.392 . S
C20 C21 1.331 1_554 S
C20 H38 0.932 . S
C21 C20 1.331 1_556 S
C21 C22 1.336 . S
C22 C18 1.394 . S
C22 C21 1.336 . S
C22 H37 0.929 . S
C23 C13 1.386 . S
C23 C16 1.357 . S
C23 H36 0.928 . S
H24 C0 0.931 . S
H25 C2 0.930 . S
H26 C4 0.929 . S
H27 C5 0.931 . S
H28 C7 0.930 . S
H29 C11 0.931 . S
H30 C9 0.931 . S
H31 C13 0.931 . S
H32 C14 0.929 . S
H33 C15 0.930 . S
H34 C18 0.930 . S
H35 C19 0.931 . S
H36 C23 0.928 . S
H37 C22 0.929 . S
H38 C20 0.932 . S
C39 C40 1.386 . S
C39 C41 1.397 . S
C39 H63 0.931 . S
C40 C39 1.386 . S
C40 C44 1.397 . S
C41 C39 1.397 . S
C41 C42 1.384 . S
C41 H64 0.930 . S
C42 C41 1.384 . S
C42 C43 1.377 . S
C42 C45 1.481 . S
C43 C42 1.377 . S
C43 C44 1.389 . S
C43 H65 0.929 . S
C44 C40 1.397 . S
C44 C43 1.389 . S
C44 H66 0.931 . S
C45 C42 1.481 . S
C45 C46 1.387 . S
C45 C50 1.390 1_556 S
C46 C45 1.387 . S
C46 C47 1.401 1_556 S
C46 H67 0.930 . S
C47 C46 1.401 1_554 S
C47 C48 1.376 . S
C47 C56 1.511 1_554 S
C48 C47 1.376 . S
C48 C49 1.392 . S
C48 H69 0.931 . S
C49 C48 1.392 . S
C49 C50 1.361 . S
C49 C51 1.500 . S
C50 C45 1.390 1_554 S
C50 C49 1.361 . S
C50 H68 0.931 . S
C51 C49 1.500 . S
C51 C52 1.371 . S
C51 C53 1.365 . S
C52 C51 1.371 . S
C52 C62 1.386 . S
C52 H70 0.931 . S
C53 C51 1.365 . S
C53 C54 1.409 . S
C53 H71 0.929 . S
C54 C53 1.409 . S
C54 C55 1.380 . S
C54 H72 0.930 . S
C55 C54 1.380 . S
C55 C62 1.357 . S
C56 C47 1.511 1_556 S
C56 C57 1.341 . S
C56 C58 1.371 1_556 S
C57 C56 1.341 . S
C57 C61 1.394 . S
C57 H73 0.930 . S
C58 C56 1.371 1_554 S
C58 C59 1.392 . S
C58 H74 0.931 . S
C59 C58 1.392 . S
C59 C60 1.331 1_554 S
C59 H77 0.932 . S
C60 C59 1.331 1_556 S
C60 C61 1.336 . S
C61 C57 1.394 . S
C61 C60 1.336 . S
C61 H76 0.929 . S
C62 C52 1.386 . S
C62 C55 1.357 . S
C62 H75 0.928 . S
H63 C39 0.931 . S
H64 C41 0.930 . S
H65 C43 0.929 . S
H66 C44 0.931 . S
H67 C46 0.930 . S
H68 C50 0.931 . S
H69 C48 0.931 . S
H70 C52 0.931 . S
H71 C53 0.929 . S
H72 C54 0.930 . S
H73 C57 0.930 . S
H74 C58 0.931 . S
H75 C62 0.928 . S
H76 C61 0.929 . S
H77 C59 0.932 . S
C78 C79 1.395 . S
C78 C80 1.397 . S
C78 H102 0.931 . S
C79 C78 1.395 . S
C79 C83 1.389 1_565 S
C80 C78 1.397 . S
C80 C81 1.388 . S
C80 H103 0.930 . S
C81 C80 1.388 . S
C81 C82 1.372 1_565 S
C81 C84 1.478 1_556 S
C82 C81 1.372 1_545 S
C82 C83 1.389 . S
C82 H104 0.929 1_556 S
C83 C79 1.389 1_545 S
C83 C82 1.389 . S
C83 H105 0.931 . S
C84 C81 1.478 1_554 S
C84 C85 1.391 . S
C84 C89 1.391 . S
C85 C84 1.391 . S
C85 C86 1.399 . S
C85 H106 0.930 1_554 S
C86 C85 1.399 . S
C86 C87 1.377 . S
C86 C95 1.516 . S
C87 C86 1.377 . S
C87 C88 1.393 . S
C87 H108 0.931 . S
C88 C87 1.393 . S
C88 C89 1.362 . S
C88 C90 1.500 1_565 S
C89 C84 1.391 . S
C89 C88 1.362 . S
C89 H107 0.930 . S
C90 C88 1.500 1_545 S
C90 C91 1.359 1_545 S
C90 C92 1.378 . S
C91 C90 1.359 1_565 S
C91 C101 1.386 . S
C91 H109 0.931 . S
C92 C90 1.378 . S
C92 C93 1.409 . S
C92 H110 0.929 . S
C93 C92 1.409 . S
C93 C94 1.380 . S
C93 H111 0.930 . S
C94 C93 1.380 . S
C94 C101 1.357 1_545 S
C95 C86 1.516 . S
C95 C96 1.341 1_554 S
C95 C97 1.371 1_565 S
C96 C95 1.341 1_556 S
C96 C100 1.394 . S
C96 H112 0.930 . S
C97 C95 1.371 1_545 S
C97 C98 1.392 . S
C97 H113 0.931 . S
C98 C97 1.392 . S
C98 C99 1.323 1_545 S
C98 H116 0.932 . S
C99 C98 1.323 1_565 S
C99 C100 1.342 1_554 S
C100 C96 1.394 . S
C100 C99 1.342 1_556 S
C100 H115 0.929 . S
C101 C91 1.386 . S
C101 C94 1.357 1_565 S
C101 H114 0.928 . S
H102 C78 0.931 . S
H103 C80 0.930 . S
H104 C82 0.929 1_554 S
H105 C83 0.931 . S
H106 C85 0.930 1_556 S
H107 C89 0.930 . S
H108 C87 0.931 . S
H109 C91 0.931 . S
H110 C92 0.929 . S
H111 C93 0.930 . S
H112 C96 0.930 . S
H113 C97 0.931 . S
H114 C101 0.928 . S
H115 C100 0.929 . S
H116 C98 0.932 . S
C117 C118 1.386 . S
C117 C119 1.397 . S
C117 H141 0.931 . S
C118 C117 1.386 . S
C118 C122 1.397 . S
C119 C117 1.397 . S
C119 C120 1.384 . S
C119 H142 0.930 . S
C120 C119 1.384 . S
C120 C121 1.377 . S
C120 C123 1.481 . S
C121 C120 1.377 . S
C121 C122 1.389 . S
C121 H143 0.929 . S
C122 C118 1.397 . S
C122 C121 1.389 . S
C122 H144 0.931 . S
C123 C120 1.481 . S
C123 C124 1.387 . S
C123 C128 1.390 . S
C124 C123 1.387 . S
C124 C125 1.401 . S
C124 H145 0.930 . S
C125 C124 1.401 . S
C125 C126 1.379 . S
C125 C134 1.511 . S
C126 C125 1.379 . S
C126 C127 1.393 . S
C126 H147 0.927 1_554 S
C127 C126 1.393 . S
C127 C128 1.361 . S
C127 C129 1.500 1_554 S
C128 C123 1.390 . S
C128 C127 1.361 . S
C128 H146 0.931 . S
C129 C127 1.500 1_556 S
C129 C130 1.371 . S
C129 C131 1.365 . S
C130 C129 1.371 . S
C130 C140 1.386 . S
C130 H148 0.931 . S
C131 C129 1.365 . S
C131 C132 1.409 . S
C131 H149 0.929 1_556 S
C132 C131 1.409 . S
C132 C133 1.380 . S
C132 H150 0.930 . S
C133 C132 1.380 . S
C133 C140 1.357 . S
C134 C125 1.511 . S
C134 C135 1.341 . S
C134 C136 1.371 1_554 S
C135 C134 1.341 . S
C135 C139 1.394 . S
C135 H151 0.930 . S
C136 C134 1.371 1_556 S
C136 C137 1.392 . S
C136 H152 0.931 . S
C137 C136 1.392 . S
C137 C138 1.331 1_556 S
C137 H155 0.932 . S
C138 C137 1.331 1_554 S
C138 C139 1.336 . S
C139 C135 1.394 . S
C139 C138 1.336 . S
C139 H154 0.929 . S
C140 C130 1.386 . S
C140 C133 1.357 . S
C140 H153 0.928 . S
H141 C117 0.931 . S
H142 C119 0.930 . S
H143 C121 0.929 . S
H144 C122 0.931 . S
H145 C124 0.930 . S
H146 C128 0.931 . S
H147 C126 0.927 1_556 S
H148 C130 0.931 . S
H149 C131 0.929 1_554 S
H150 C132 0.930 . S
H151 C135 0.930 . S
H152 C136 0.931 . S
H153 C140 0.928 . S
H154 C139 0.929 . S
H155 C137 0.932 . S
C156 C157 1.386 . S
C156 C158 1.397 . S
C156 H180 0.931 . S
C157 C156 1.386 . S
C157 C161 1.397 . S
C158 C156 1.397 . S
C158 C159 1.384 . S
C158 H181 0.930 . S
C159 C158 1.384 . S
C159 C160 1.377 . S
C159 C162 1.481 . S
C160 C159 1.377 . S
C160 C161 1.389 . S
C160 H182 0.929 . S
C161 C157 1.397 . S
C161 C160 1.389 . S
C161 H183 0.931 . S
C162 C159 1.481 . S
C162 C163 1.387 . S
C162 C167 1.390 . S
C163 C162 1.387 . S
C163 C164 1.401 . S
C163 H184 0.930 . S
C164 C163 1.401 . S
C164 C165 1.376 . S
C164 C173 1.511 . S
C165 C164 1.376 . S
C165 C166 1.392 . S
C165 H186 0.931 . S
C166 C165 1.392 . S
C166 C167 1.361 . S
C166 C168 1.500 . S
C167 C162 1.390 . S
C167 C166 1.361 . S
C167 H185 0.931 . S
C168 C166 1.500 . S
C168 C169 1.371 . S
C168 C170 1.365 . S
C169 C168 1.371 . S
C169 C179 1.386 . S
C169 H187 0.931 . S
C170 C168 1.365 . S
C170 C171 1.409 . S
C170 H188 0.929 . S
C171 C170 1.409 . S
C171 C172 1.380 . S
C171 H189 0.930 . S
C172 C171 1.380 . S
C172 C179 1.357 . S
C173 C164 1.511 . S
C173 C174 1.341 . S
C173 C175 1.371 . S
C174 C173 1.341 . S
C174 C178 1.394 . S
C174 H190 0.930 . S
C175 C173 1.371 . S
C175 C176 1.392 . S
C175 H191 0.931 . S
C176 C175 1.392 . S
C176 C177 1.331 . S
C176 H194 0.932 . S
C177 C176 1.331 . S
C177 C178 1.336 . S
C178 C174 1.394 . S
C178 C177 1.336 . S
C178 H193 0.929 . S
C179 C169 1.386 . S
C179 C172 1.357 . S
C179 H192 0.928 1_554 S
H180 C156 0.931 . S
H181 C158 0.930 . S
H182 C160 0.929 . S
H183 C161 0.931 . S
H184 C163 0.930 . S
H185 C167 0.931 . S
H186 C165 0.931 . S
H187 C169 0.931 . S
H188 C170 0.929 . S
H189 C171 0.930 . S
H190 C174 0.930 . S
H191 C175 0.931 . S
H192 C179 0.928 1_556 S
H193 C178 0.929 . S
H194 C176 0.932 . S
C195 C196 1.386 . S
C195 C197 1.397 . S
C195 H219 0.931 . S
C196 C195 1.386 . S
C196 C200 1.397 . S
C197 C195 1.397 . S
C197 C198 1.384 . S
C197 H220 0.930 . S
C198 C197 1.384 . S
C198 C199 1.377 . S
C198 C201 1.481 . S
C199 C198 1.377 . S
C199 C200 1.389 . S
C199 H221 0.929 . S
C200 C196 1.397 . S
C200 C199 1.389 . S
C200 H222 0.931 . S
C201 C198 1.481 . S
C201 C202 1.387 . S
C201 C206 1.390 . S
C202 C201 1.387 . S
C202 C203 1.401 . S
C202 H223 0.930 . S
C203 C202 1.401 . S
C203 C204 1.376 . S
C203 C212 1.511 . S
C204 C203 1.376 . S
C204 C205 1.392 . S
C204 H225 0.931 . S
C205 C204 1.392 . S
C205 C206 1.361 . S
C205 C207 1.500 . S
C206 C201 1.390 . S
C206 C205 1.361 . S
C206 H224 0.931 . S
C207 C205 1.500 . S
C207 C208 1.371 . S
C207 C209 1.365 . S
C208 C207 1.371 . S
C208 C218 1.386 . S
C208 H226 0.931 . S
C209 C207 1.365 . S
C209 C210 1.409 . S
C209 H227 0.929 . S
C210 C209 1.409 . S
C210 C211 1.380 . S
C210 H228 0.930 . S
C211 C210 1.380 . S
C211 C218 1.357 . S
C212 C203 1.511 . S
C212 C213 1.341 . S
C212 C214 1.371 . S
C213 C212 1.341 . S
C213 C217 1.394 . S
C213 H229 0.930 . S
C214 C212 1.371 . S
C214 C215 1.392 . S
C214 H230 0.931 . S
C215 C214 1.392 . S
C215 C216 1.331 . S
C215 H233 0.932 . S
C216 C215 1.331 . S
C216 C217 1.336 . S
C217 C213 1.394 . S
C217 C216 1.336 . S
C217 H232 0.929 . S
C218 C208 1.386 . S
C218 C211 1.357 . S
C218 H231 0.928 . S
H219 C195 0.931 . S
H220 C197 0.930 . S
H221 C199 0.929 . S
H222 C200 0.931 . S
H223 C202 0.930 . S
H224 C206 0.931 . S
H225 C204 0.931 . S
H226 C208 0.931 . S
H227 C209 0.929 . S
H228 C210 0.930 . S
H229 C213 0.930 . S
H230 C214 0.931 . S
H231 C218 0.928 . S
H232 C217 0.929 . S
H233 C215 0.932 . S
C234 C235 1.386 1_565 S
C234 C236 1.397 . S
C234 H258 0.931 . S
C235 C234 1.386 1_545 S
C235 C239 1.397 . S
C236 C234 1.397 . S
C236 C237 1.384 1_565 S
C236 H259 0.930 . S
C237 C236 1.384 1_545 S
C237 C238 1.377 . S
C237 C240 1.481 . S
C238 C237 1.377 . S
C238 C239 1.389 . S
C238 H260 0.929 . S
C239 C235 1.397 . S
C239 C238 1.389 . S
C239 H261 0.931 . S
C240 C237 1.481 . S
C240 C241 1.387 . S
C240 C245 1.390 . S
C241 C240 1.387 . S
C241 C242 1.401 . S
C241 H262 0.930 . S
C242 C241 1.401 . S
C242 C243 1.376 . S
C242 C251 1.511 . S
C243 C242 1.376 . S
C243 C244 1.392 . S
C243 H264 0.931 . S
C244 C243 1.392 . S
C244 C245 1.361 . S
C244 C246 1.500 . S
C245 C240 1.390 . S
C245 C244 1.361 . S
C245 H263 0.931 . S
C246 C244 1.500 . S
C246 C247 1.371 1_545 S
C246 C248 1.365 . S
C247 C246 1.371 1_565 S
C247 C257 1.386 1_554 S
C247 H265 0.931 . S
C248 C246 1.365 . S
C248 C249 1.409 . S
C248 H266 0.929 . S
C249 C248 1.409 . S
C249 C250 1.380 1_554 S
C249 H267 0.930 . S
C250 C249 1.380 1_556 S
C250 C257 1.357 1_545 S
C251 C242 1.511 . S
C251 C252 1.341 1_545 S
C251 C253 1.371 . S
C252 C251 1.341 1_565 S
C252 C256 1.394 . S
C252 H268 0.930 . S
C253 C251 1.371 . S
C253 C254 1.392 . S
C253 H269 0.931 . S
C254 C253 1.392 . S
C254 C255 1.331 . S
C254 H272 0.932 . S
C255 C254 1.331 . S
C255 C256 1.336 1_545 S
C256 C252 1.394 . S
C256 C255 1.336 1_565 S
C256 H271 0.929 . S
C257 C247 1.386 1_556 S
C257 C250 1.357 1_565 S
C257 H270 0.928 . S
H258 C234 0.931 . S
H259 C236 0.930 . S
H260 C238 0.929 . S
H261 C239 0.931 . S
H262 C241 0.930 . S
H263 C245 0.931 . S
H264 C243 0.931 . S
H265 C247 0.931 . S
H266 C248 0.929 . S
H267 C249 0.930 . S
H268 C252 0.930 . S
H269 C253 0.931 . S
H270 C257 0.928 . S
H271 C256 0.929 . S
H272 C254 0.932 . S
C273 C274 1.386 1_554 S
C273 C275 1.397 . S
C273 H297 0.931 1_554 S
C274 C273 1.386 1_556 S
C274 C278 1.397 1_556 S
C275 C273 1.397 . S
C275 C276 1.384 . S
C275 H298 0.930 . S
C276 C275 1.384 . S
C276 C277 1.377 . S
C276 C279 1.481 . S
C277 C276 1.377 . S
C277 C278 1.389 . S
C277 H299 0.929 . S
C278 C274 1.397 1_554 S
C278 C277 1.389 . S
C278 H300 0.931 . S
C279 C276 1.481 . S
C279 C280 1.387 . S
C279 C284 1.390 . S
C280 C279 1.387 . S
C280 C281 1.401 . S
C280 H301 0.930 . S
C281 C280 1.401 . S
C281 C282 1.376 . S
C281 C290 1.511 . S
C282 C281 1.376 . S
C282 C283 1.392 . S
C282 H303 0.931 . S
C283 C282 1.392 . S
C283 C284 1.361 . S
C283 C285 1.500 . S
C284 C279 1.390 . S
C284 C283 1.361 . S
C284 H302 0.931 . S
C285 C283 1.500 . S
C285 C286 1.371 . S
C285 C287 1.365 . S
C286 C285 1.371 . S
C286 C296 1.386 . S
C286 H304 0.931 . S
C287 C285 1.365 . S
C287 C288 1.409 . S
C287 H305 0.929 . S
C288 C287 1.409 . S
C288 C289 1.380 . S
C288 H306 0.930 . S
C289 C288 1.380 . S
C289 C296 1.357 . S
C290 C281 1.511 . S
C290 C291 1.341 . S
C290 C292 1.371 . S
C291 C290 1.341 . S
C291 C295 1.394 . S
C291 H307 0.930 . S
C292 C290 1.371 . S
C292 C293 1.392 . S
C292 H308 0.931 . S
C293 C292 1.392 . S
C293 C294 1.331 . S
C293 H311 0.932 . S
C294 C293 1.331 . S
C294 C295 1.336 . S
C295 C291 1.394 . S
C295 C294 1.336 . S
C295 H310 0.929 . S
C296 C286 1.386 . S
C296 C289 1.357 . S
C296 H309 0.928 . S
H297 C273 0.931 1_556 S
H298 C275 0.930 . S
H299 C277 0.929 . S
H300 C278 0.931 . S
H301 C280 0.930 . S
H302 C284 0.931 . S
H303 C282 0.931 . S
H304 C286 0.931 . S
H305 C287 0.929 . S
H306 C288 0.930 . S
H307 C291 0.930 . S
H308 C292 0.931 . S
H309 C296 0.928 . S
H310 C295 0.929 . S
H311 C293 0.932 . S
Tb312 O315 2.453 1_665 S
Tb312 O316 2.596 1_665 S
Tb312 O317 2.374 1_655 S
Tb312 O325 2.343 . S
Tb312 O327 2.353 1_565 S
Tb312 O329 2.427 . S
Tb312 O330 2.513 . S
C313 O317 1.251 . S
C313 O319 1.263 . S
Tb314 O316 2.343 . S
Tb314 O319 2.353 1_545 S
Tb314 O322 2.427 . S
Tb314 O323 2.513 . S
Tb314 O324 2.453 1_545 S
Tb314 O325 2.596 1_445 S
Tb314 O326 2.374 1_455 S
O315 Tb312 2.453 1_445 S
O315 C331 1.245 . S
O316 Tb312 2.596 1_445 S
O316 Tb314 2.343 . S
O316 C331 1.259 . S
O317 Tb312 2.374 1_455 S
O317 C313 1.251 . S
C318 O322 1.275 . S
C318 O323 1.246 . S
O319 C313 1.263 . S
O319 Tb314 2.353 1_565 S
C320 O324 1.245 1_655 S
C320 O325 1.259 . S
C321 O326 1.250 . S
C321 O327 1.263 . S
O322 Tb314 2.427 . S
O322 C318 1.275 . S
O323 Tb314 2.513 . S
O323 C318 1.246 . S
O324 Tb314 2.453 1_565 S
O324 C320 1.245 1_455 S
O325 Tb312 2.343 . S
O325 Tb314 2.596 1_665 S
O325 C320 1.259 . S
O326 Tb314 2.374 1_655 S
O326 C321 1.250 . S
O327 Tb312 2.353 1_545 S
O327 C321 1.263 . S
C328 O329 1.275 . S
C328 O330 1.246 . S
O329 Tb312 2.427 . S
O329 C328 1.275 . S
O330 Tb312 2.513 . S
O330 C328 1.246 . S
C331 O315 1.245 . S
C331 O316 1.259 . S
Tb332 O335 2.453 . S
Tb332 O336 2.596 1_545 S
Tb332 O337 2.374 . S
Tb332 O345 2.343 . S
Tb332 O347 2.353 . S
Tb332 O349 2.427 . S
Tb332 O350 2.513 . S
C333 O337 1.251 . S
C333 O339 1.263 1_545 S
Tb334 O336 2.343 . S
Tb334 O339 2.353 . S
Tb334 O342 2.427 . S
Tb334 O343 2.513 . S
Tb334 O344 2.453 . S
Tb334 O345 2.596 1_565 S
Tb334 O346 2.374 . S
O335 Tb332 2.453 . S
O335 C351 1.245 . S
O336 Tb332 2.596 1_565 S
O336 Tb334 2.343 . S
O336 C351 1.259 1_565 S
O337 Tb332 2.374 . S
O337 C333 1.251 . S
C338 O342 1.275 . S
C338 O343 1.246 . S
O339 C333 1.263 1_565 S
O339 Tb334 2.353 . S
C340 O344 1.245 . S
C340 O345 1.259 1_565 S
C341 O346 1.250 1_545 S
C341 O347 1.263 . S
O342 Tb334 2.427 . S
O342 C338 1.275 . S
O343 Tb334 2.513 . S
O343 C338 1.246 . S
O344 Tb334 2.453 . S
O344 C340 1.245 . S
O345 Tb332 2.343 . S
O345 Tb334 2.596 1_545 S
O345 C340 1.259 1_545 S
O346 Tb334 2.374 . S
O346 C341 1.250 1_565 S
O347 Tb332 2.353 . S
O347 C341 1.263 . S
C348 O349 1.275 . S
C348 O350 1.246 . S
O349 Tb332 2.427 . S
O349 C348 1.275 . S
O350 Tb332 2.513 . S
O350 C348 1.246 . S
C351 O335 1.245 . S
C351 O336 1.259 1_545 S
Tb352 O355 2.453 . S
Tb352 O356 2.596 . S
Tb352 O357 2.374 . S
Tb352 O365 2.343 . S
Tb352 O367 2.353 . S
Tb352 O369 2.427 . S
Tb352 O370 2.513 . S
C353 O357 1.251 . S
C353 O359 1.263 . S
Tb354 O356 2.343 . S
Tb354 O359 2.353 . S
Tb354 O362 2.427 . S
Tb354 O363 2.513 . S
Tb354 O364 2.453 . S
Tb354 O365 2.596 . S
Tb354 O366 2.374 . S
O355 Tb352 2.453 . S
O355 C371 1.245 . S
O356 Tb352 2.596 . S
O356 Tb354 2.343 . S
O356 C371 1.259 . S
O357 Tb352 2.374 . S
O357 C353 1.251 . S
C358 O362 1.275 . S
C358 O363 1.246 . S
O359 C353 1.263 . S
O359 Tb354 2.353 . S
C360 O364 1.245 . S
C360 O365 1.259 . S
C361 O366 1.250 . S
C361 O367 1.263 . S
O362 Tb354 2.427 . S
O362 C358 1.275 . S
O363 Tb354 2.513 . S
O363 C358 1.246 . S
O364 Tb354 2.453 . S
O364 C360 1.245 . S
O365 Tb352 2.343 . S
O365 Tb354 2.596 . S
O365 C360 1.259 . S
O366 Tb354 2.374 . S
O366 C361 1.250 . S
O367 Tb352 2.353 . S
O367 C361 1.263 . S
C368 O369 1.275 . S
C368 O370 1.246 . S
O369 Tb352 2.427 . S
O369 C368 1.275 . S
O370 Tb352 2.513 . S
O370 C368 1.246 . S
C371 O355 1.245 . S
C371 O356 1.259 . S
Tb372 O375 2.453 1_655 S
Tb372 O376 2.596 1_655 S
Tb372 O377 2.374 1_655 S
Tb372 O385 2.343 . S
Tb372 O387 2.353 . S
Tb372 O389 2.427 . S
Tb372 O390 2.513 . S
C373 O377 1.251 . S
C373 O379 1.263 . S
Tb374 O376 2.343 . S
Tb374 O379 2.353 . S
Tb374 O382 2.427 . S
Tb374 O383 2.513 . S
Tb374 O384 2.453 1_455 S
Tb374 O385 2.596 1_455 S
Tb374 O386 2.374 . S
O375 Tb372 2.453 1_455 S
O375 C391 1.245 . S
O376 Tb372 2.596 1_455 S
O376 Tb374 2.343 . S
O376 C391 1.259 . S
O377 Tb372 2.374 1_455 S
O377 C373 1.251 . S
C378 O382 1.275 . S
C378 O383 1.246 . S
O379 C373 1.263 . S
O379 Tb374 2.353 . S
C380 O384 1.245 . S
C380 O385 1.259 . S
C381 O386 1.250 1_655 S
C381 O387 1.263 . S
O382 Tb374 2.427 . S
O382 C378 1.275 . S
O383 Tb374 2.513 . S
O383 C378 1.246 . S
O384 Tb374 2.453 1_655 S
O384 C380 1.245 . S
O385 Tb372 2.343 . S
O385 Tb374 2.596 1_655 S
O385 C380 1.259 . S
O386 Tb374 2.374 . S
O386 C381 1.250 1_455 S
O387 Tb372 2.353 . S
O387 C381 1.263 . S
C388 O389 1.275 . S
C388 O390 1.246 . S
O389 Tb372 2.427 . S
O389 C388 1.275 . S
O390 Tb372 2.513 . S
O390 C388 1.246 . S
C391 O375 1.245 . S
C391 O376 1.259 . S
C392 C393 1.363 1_565 S
C392 C398 1.379 . S
C392 N400 1.356 . S
C393 C392 1.363 1_545 S
C393 C399 1.363 . S
C394 C395 1.374 . S
C394 C399 1.379 . S
C394 N401 1.356 . S
C395 C394 1.374 . S
C395 C398 1.354 1_545 S
N396 C398 1.356 . S
N396 H408 0.984 . S
N396 H409 0.985 . S
N397 C399 1.356 . S
N397 H402 0.984 . S
N397 H403 0.985 . S
C398 C392 1.379 . S
C398 C395 1.354 1_565 S
C398 N396 1.356 . S
C399 C393 1.363 . S
C399 C394 1.379 . S
C399 N397 1.356 . S
N400 C392 1.356 . S
N400 H406 0.984 . S
N400 H407 0.984 . S
N401 C394 1.356 . S
N401 H404 0.984 . S
N401 H405 0.985 . S
H402 N397 0.984 . S
H403 N397 0.985 . S
H404 N401 0.984 . S
H405 N401 0.985 . S
H406 N400 0.984 . S
H407 N400 0.984 . S
H408 N396 0.984 . S
H409 N396 0.985 . S
C410 C411 1.363 . S
C410 C416 1.379 . S
C410 N418 1.356 . S
C411 C410 1.363 . S
C411 C417 1.363 . S
C412 C413 1.363 . S
C412 C417 1.379 . S
C412 N419 1.356 . S
C413 C412 1.363 . S
C413 C416 1.363 . S
N414 C416 1.356 . S
N414 H426 0.984 . S
N414 H427 0.985 . S
N415 C417 1.356 . S
N415 H420 0.984 . S
N415 H421 0.985 . S
C416 C410 1.379 . S
C416 C413 1.363 . S
C416 N414 1.356 . S
C417 C411 1.363 . S
C417 C412 1.379 . S
C417 N415 1.356 . S
N418 C410 1.356 . S
N418 H424 0.984 . S
N418 H425 0.984 . S
N419 C412 1.356 . S
N419 H422 0.984 . S
N419 H423 0.985 . S
H420 N415 0.984 . S
H421 N415 0.985 . S
H422 N419 0.984 . S
H423 N419 0.985 . S
H424 N418 0.984 . S
H425 N418 0.984 . S
H426 N414 0.984 . S
H427 N414 0.985 . S
C428 C429 1.363 . S
C428 C434 1.379 . S
C428 N436 1.356 . S
C429 C428 1.363 . S
C429 C435 1.363 . S
C430 C431 1.363 . S
C430 C435 1.379 . S
C430 N437 1.356 . S
C431 C430 1.363 . S
C431 C434 1.363 . S
N432 C434 1.356 . S
N432 H444 0.984 . S
N432 H445 0.985 . S
N433 C435 1.356 . S
N433 H438 0.984 . S
N433 H439 0.985 . S
C434 C428 1.379 . S
C434 C431 1.363 . S
C434 N432 1.356 . S
C435 C429 1.363 . S
C435 C430 1.379 . S
C435 N433 1.356 . S
N436 C428 1.356 . S
N436 H442 0.984 . S
N436 H443 0.984 . S
N437 C430 1.356 . S
N437 H440 0.984 . S
N437 H441 0.985 . S
H438 N433 0.984 . S
H439 N433 0.985 . S
H440 N437 0.984 . S
H441 N437 0.985 . S
H442 N436 0.984 . S
H443 N436 0.984 . S
H444 N432 0.984 . S
H445 N432 0.985 . S
C446 C447 1.363 . S
C446 C452 1.379 . S
C446 N454 1.356 . S
C447 C446 1.363 . S
C447 C453 1.363 . S
C448 C449 1.363 . S
C448 C453 1.379 . S
C448 N455 1.356 . S
C449 C448 1.363 . S
C449 C452 1.363 . S
N450 C452 1.356 . S
N450 H462 0.984 . S
N450 H463 0.985 . S
N451 C453 1.356 . S
N451 H456 0.984 . S
N451 H457 0.985 . S
C452 C446 1.379 . S
C452 C449 1.363 . S
C452 N450 1.356 . S
C453 C447 1.363 . S
C453 C448 1.379 . S
C453 N451 1.356 . S
N454 C446 1.356 . S
N454 H460 0.984 . S
N454 H461 0.984 . S
N455 C448 1.356 . S
N455 H458 0.984 . S
N455 H459 0.985 . S
H456 N451 0.984 . S
H457 N451 0.985 . S
H458 N455 0.984 . S
H459 N455 0.985 . S
H460 N454 0.984 . S
H461 N454 0.984 . S
H462 N450 0.984 . S
H463 N450 0.985 . S
C464 C465 1.363 1_565 S
C464 C470 1.379 . S
C464 N472 1.356 . S
C465 C464 1.363 1_545 S
C465 C471 1.363 . S
C466 C467 1.363 . S
C466 C471 1.379 . S
C466 N473 1.356 . S
C467 C466 1.363 . S
C467 C470 1.363 1_545 S
N468 C470 1.356 . S
N468 H480 0.984 . S
N468 H481 0.985 . S
N469 C471 1.356 1_554 S
N469 H474 0.984 . S
N469 H475 0.985 . S
C470 C464 1.379 . S
C470 C467 1.363 1_565 S
C470 N468 1.356 . S
C471 C465 1.363 . S
C471 C466 1.379 . S
C471 N469 1.356 1_556 S
N472 C464 1.356 . S
N472 H478 0.984 . S
N472 H479 0.984 . S
N473 C466 1.356 . S
N473 H476 0.984 . S
N473 H477 0.985 . S
H474 N469 0.984 . S
H475 N469 0.985 . S
H476 N473 0.984 . S
H477 N473 0.985 . S
H478 N472 0.984 . S
H479 N472 0.984 . S
H480 N468 0.984 . S
H481 N468 0.985 . S
C482 C483 1.363 . S
C482 C488 1.379 . S
C482 N490 1.356 . S
C483 C482 1.363 . S
C483 C489 1.363 . S
C484 C485 1.363 . S
C484 C489 1.379 . S
C484 N491 1.356 . S
C485 C484 1.363 . S
C485 C488 1.363 . S
N486 C488 1.356 . S
N486 H498 0.984 . S
N486 H499 0.985 . S
N487 C489 1.356 1_554 S
N487 H492 0.984 . S
N487 H493 0.985 . S
C488 C482 1.379 . S
C488 C485 1.363 . S
C488 N486 1.356 . S
C489 C483 1.363 . S
C489 C484 1.379 . S
C489 N487 1.356 1_556 S
N490 C482 1.356 . S
N490 H496 0.984 . S
N490 H497 0.984 . S
N491 C484 1.356 . S
N491 H494 0.984 . S
N491 H495 0.985 1_556 S
H492 N487 0.984 . S
H493 N487 0.985 . S
H494 N491 0.984 . S
H495 N491 0.985 1_554 S
H496 N490 0.984 . S
H497 N490 0.984 . S
H498 N486 0.984 . S
H499 N486 0.985 . S
C500 C501 1.363 . S
C500 C506 1.379 . S
C500 N508 1.356 . S
C501 C500 1.363 . S
C501 C507 1.363 . S
C502 C503 1.363 . S
C502 C507 1.379 . S
C502 N509 1.356 . S
C503 C502 1.363 . S
C503 C506 1.363 . S
N504 C506 1.356 . S
N504 H516 0.984 . S
N504 H517 0.985 . S
N505 C507 1.356 . S
N505 H510 0.984 1_556 S
N505 H511 0.985 1_556 S
C506 C500 1.379 . S
C506 C503 1.363 . S
C506 N504 1.356 . S
C507 C501 1.363 . S
C507 C502 1.379 . S
C507 N505 1.356 . S
N508 C500 1.356 . S
N508 H514 0.984 . S
N508 H515 0.984 . S
N509 C502 1.356 . S
N509 H512 0.984 . S
N509 H513 0.985 . S
H510 N505 0.984 1_554 S
H511 N505 0.985 1_554 S
H512 N509 0.984 . S
H513 N509 0.985 . S
H514 N508 0.984 . S
H515 N508 0.984 . S
H516 N504 0.984 . S
H517 N504 0.985 . S
C518 C519 1.363 . S
C518 C524 1.379 . S
C518 N526 1.356 1_556 S
C519 C518 1.363 . S
C519 C525 1.363 . S
C520 C521 1.363 . S
C520 C525 1.379 . S
C520 N527 1.356 . S
C521 C520 1.363 . S
C521 C524 1.363 . S
N522 C524 1.356 . S
N522 H534 0.984 . S
N522 H535 0.985 . S
N523 C525 1.356 . S
N523 H528 0.984 . S
N523 H529 0.985 . S
C524 C518 1.379 . S
C524 C521 1.363 . S
C524 N522 1.356 . S
C525 C519 1.363 . S
C525 C520 1.379 . S
C525 N523 1.356 . S
N526 C518 1.356 1_554 S
N526 H532 0.984 . S
N526 H533 0.984 . S
N527 C520 1.356 . S
N527 H530 0.984 . S
N527 H531 0.985 . S
H528 N523 0.984 . S
H529 N523 0.985 . S
H530 N527 0.984 . S
H531 N527 0.985 . S
H532 N526 0.984 . S
H533 N526 0.984 . S
H534 N522 0.984 . S
H535 N522 0.985 . S
C536 C537 1.363 . S
C536 C542 1.379 . S
C536 N544 1.356 . S
C537 C536 1.363 . S
C537 C543 1.363 . S
C538 C539 1.363 . S
C538 C543 1.379 . S
C538 N545 1.356 . S
C539 C538 1.363 . S
C539 C542 1.363 . S
N540 C542 1.356 . S
N540 H552 0.984 . S
N540 H553 0.985 . S
N541 C543 1.356 . S
N541 H546 0.984 . S
N541 H547 0.985 . S
C542 C536 1.379 . S
C542 C539 1.363 . S
C542 N540 1.356 . S
C543 C537 1.363 . S
C543 C538 1.379 . S
C543 N541 1.356 . S
N544 C536 1.356 . S
N544 H550 0.984 . S
N544 H551 0.984 . S
N545 C538 1.356 . S
N545 H548 0.984 . S
N545 H549 0.985 . S
H546 N541 0.984 . S
H547 N541 0.985 . S
H548 N545 0.984 . S
H549 N545 0.985 . S
H550 N544 0.984 . S
H551 N544 0.984 . S
H552 N540 0.984 . S
H553 N540 0.985 . S
C554 C555 1.363 . S
C554 C560 1.379 . S
C554 N562 1.356 . S
C555 C554 1.363 . S
C555 C561 1.363 1_545 S
C556 C557 1.363 1_565 S
C556 C561 1.379 . S
C556 N563 1.356 . S
C557 C556 1.363 1_545 S
C557 C560 1.363 . S
N558 C560 1.356 . S
N558 H570 0.984 . S
N558 H571 0.985 . S
N559 C561 1.356 . S
N559 H564 0.984 . S
N559 H565 0.985 . S
C560 C554 1.379 . S
C560 C557 1.363 . S
C560 N558 1.356 . S
C561 C555 1.363 1_565 S
C561 C556 1.379 . S
C561 N559 1.356 . S
N562 C554 1.356 . S
N562 H568 0.984 . S
N562 H569 0.984 . S
N563 C556 1.356 . S
N563 H566 0.984 . S
N563 H567 0.985 . S
H564 N559 0.984 . S
H565 N559 0.985 . S
H566 N563 0.984 . S
H567 N563 0.985 . S
H568 N562 0.984 . S
H569 N562 0.984 . S
H570 N558 0.984 . S
H571 N558 0.985 . S
C572 C573 1.363 . S
C572 C578 1.379 . S
C572 N580 1.356 . S
C573 C572 1.363 . S
C573 C579 1.363 . S
C574 C575 1.363 . S
C574 C579 1.379 . S
C574 N581 1.356 . S
C575 C574 1.363 . S
C575 C578 1.363 . S
N576 C578 1.356 . S
N576 H588 0.984 . S
N576 H589 0.985 . S
N577 C579 1.356 . S
N577 H582 0.984 . S
N577 H583 0.985 . S
C578 C572 1.379 . S
C578 C575 1.363 . S
C578 N576 1.356 . S
C579 C573 1.363 . S
C579 C574 1.379 . S
C579 N577 1.356 . S
N580 C572 1.356 . S
N580 H586 0.984 . S
N580 H587 0.984 . S
N581 C574 1.356 . S
N581 H584 0.984 . S
N581 H585 0.985 . S
H582 N577 0.984 . S
H583 N577 0.985 . S
H584 N581 0.984 . S
H585 N581 0.985 . S
H586 N580 0.984 . S
H587 N580 0.984 . S
H588 N576 0.984 . S
H589 N576 0.985 . S
C590 C591 1.363 . S
C590 C596 1.379 . S
C590 N598 1.356 . S
C591 C590 1.363 . S
C591 C597 1.363 . S
C592 C593 1.363 . S
C592 C597 1.379 . S
C592 N599 1.356 . S
C593 C592 1.363 . S
C593 C596 1.363 . S
N594 C596 1.356 . S
N594 H606 0.984 . S
N594 H607 0.985 . S
N595 C597 1.356 . S
N595 H600 0.984 . S
N595 H601 0.985 . S
C596 C590 1.379 . S
C596 C593 1.363 . S
C596 N594 1.356 . S
C597 C591 1.363 . S
C597 C592 1.379 . S
C597 N595 1.356 . S
N598 C590 1.356 . S
N598 H604 0.984 . S
N598 H605 0.984 . S
N599 C592 1.356 . S
N599 H602 0.984 . S
N599 H603 0.985 . S
H600 N595 0.984 . S
H601 N595 0.985 . S
H602 N599 0.984 . S
H603 N599 0.985 . S
H604 N598 0.984 . S
H605 N598 0.984 . S
H606 N594 0.984 . S
H607 N594 0.985 . S
C608 C609 1.363 . S
C608 C614 1.379 . S
C608 N616 1.356 . S
C609 C608 1.363 . S
C609 C615 1.363 . S
C610 C611 1.363 . S
C610 C615 1.379 . S
C610 N617 1.356 . S
C611 C610 1.363 . S
C611 C614 1.363 . S
N612 C614 1.356 . S
N612 H624 0.984 . S
N612 H625 0.985 . S
N613 C615 1.356 . S
N613 H618 0.984 . S
N613 H619 0.985 . S
C614 C608 1.379 . S
C614 C611 1.363 . S
C614 N612 1.356 . S
C615 C609 1.363 . S
C615 C610 1.379 . S
C615 N613 1.356 . S
N616 C608 1.356 . S
N616 H622 0.984 . S
N616 H623 0.984 . S
N617 C610 1.356 . S
N617 H620 0.984 . S
N617 H621 0.985 . S
H618 N613 0.984 . S
H619 N613 0.985 . S
H620 N617 0.984 . S
H621 N617 0.985 . S
H622 N616 0.984 . S
H623 N616 0.984 . S
H624 N612 0.984 . S
H625 N612 0.985 . S
C626 C627 1.362 1_565 S
C626 C632 1.376 1_565 S
C626 N634 1.356 . S
C627 C626 1.362 1_545 S
C627 C633 1.368 . S
C628 C629 1.363 . S
C628 C633 1.379 . S
C628 N635 1.356 . S
C629 C628 1.363 . S
C629 C632 1.366 . S
N630 C632 1.358 1_565 S
N630 H642 0.995 . S
N630 H643 0.976 1_565 S
N631 C633 1.356 . S
N631 H636 0.984 . S
N631 H637 0.985 . S
C632 C626 1.376 1_545 S
C632 C629 1.366 . S
C632 N630 1.358 1_545 S
C633 C627 1.368 . S
C633 C628 1.379 . S
C633 N631 1.356 . S
N634 C626 1.356 . S
N634 H640 0.984 1_556 S
N634 H641 0.984 . S
N635 C628 1.356 . S
N635 H638 0.984 . S
N635 H639 0.985 . S
H636 N631 0.984 . S
H637 N631 0.985 . S
H638 N635 0.984 . S
H639 N635 0.985 . S
H640 N634 0.984 1_554 S
H641 N634 0.984 . S
H642 N630 0.995 . S
H643 N630 0.976 1_545 S
C644 C645 1.363 . S
C644 C650 1.379 . S
C644 N652 1.356 . S
C645 C644 1.363 . S
C645 C651 1.363 . S
C646 C647 1.363 . S
C646 C651 1.379 . S
C646 N653 1.356 . S
C647 C646 1.363 . S
C647 C650 1.363 . S
N648 C650 1.356 . S
N648 H660 0.984 . S
N648 H661 0.985 . S
N649 C651 1.356 . S
N649 H654 0.984 . S
N649 H655 0.985 . S
C650 C644 1.379 . S
C650 C647 1.363 . S
C650 N648 1.356 . S
C651 C645 1.363 . S
C651 C646 1.379 . S
C651 N649 1.356 . S
N652 C644 1.356 . S
N652 H658 0.984 . S
N652 H659 0.984 . S
N653 C646 1.356 . S
N653 H656 0.984 . S
N653 H657 0.985 . S
H654 N649 0.984 . S
H655 N649 0.985 . S
H656 N653 0.984 . S
H657 N653 0.985 . S
H658 N652 0.984 . S
H659 N652 0.984 . S
H660 N648 0.984 . S
H661 N648 0.985 . S
C662 C663 1.363 . S
C662 C668 1.379 . S
C662 N670 1.356 . S
C663 C662 1.363 . S
C663 C669 1.363 . S
C664 C665 1.363 . S
C664 C669 1.379 . S
C664 N671 1.356 . S
C665 C664 1.363 . S
C665 C668 1.363 . S
N666 C668 1.356 . S
N666 H678 0.984 . S
N666 H679 0.985 . S
N667 C669 1.356 . S
N667 H672 0.984 . S
N667 H673 0.985 . S
C668 C662 1.379 . S
C668 C665 1.363 . S
C668 N666 1.356 . S
C669 C663 1.363 . S
C669 C664 1.379 . S
C669 N667 1.356 . S
N670 C662 1.356 . S
N670 H676 0.984 . S
N670 H677 0.984 . S
N671 C664 1.356 . S
N671 H674 0.984 . S
N671 H675 0.985 . S
H672 N667 0.984 . S
H673 N667 0.985 . S
H674 N671 0.984 . S
H675 N671 0.985 . S
H676 N670 0.984 . S
H677 N670 0.984 . S
H678 N666 0.984 . S
H679 N666 0.985 . S
C680 C681 1.363 . S
C680 C686 1.379 . S
C680 N688 1.356 . S
C681 C680 1.363 . S
C681 C687 1.363 . S
C682 C683 1.363 . S
C682 C687 1.379 . S
C682 N689 1.356 . S
C683 C682 1.363 . S
C683 C686 1.363 . S
N684 C686 1.356 . S
N684 H696 0.984 . S
N684 H697 0.985 . S
N685 C687 1.356 1_554 S
N685 H690 0.984 . S
N685 H691 0.985 . S
C686 C680 1.379 . S
C686 C683 1.363 . S
C686 N684 1.356 . S
C687 C681 1.363 . S
C687 C682 1.379 . S
C687 N685 1.356 1_556 S
N688 C680 1.356 . S
N688 H694 0.984 . S
N688 H695 0.984 . S
N689 C682 1.356 . S
N689 H692 0.984 . S
N689 H693 0.985 . S
H690 N685 0.984 . S
H691 N685 0.985 . S
H692 N689 0.984 . S
H693 N689 0.985 . S
H694 N688 0.984 . S
H695 N688 0.984 . S
H696 N684 0.984 . S
H697 N684 0.985 . S
C698 C699 1.363 1_565 S
C698 C704 1.379 . S
C698 N706 1.356 . S
C699 C698 1.363 1_545 S
C699 C705 1.363 . S
C700 C701 1.363 . S
C700 C705 1.379 . S
C700 N707 1.356 . S
C701 C700 1.363 . S
C701 C704 1.363 1_545 S
N702 C704 1.356 . S
N702 H714 0.984 . S
N702 H715 0.985 . S
N703 C705 1.356 . S
N703 H708 0.984 . S
N703 H709 0.985 . S
C704 C698 1.379 . S
C704 C701 1.363 1_565 S
C704 N702 1.356 . S
C705 C699 1.363 . S
C705 C700 1.379 . S
C705 N703 1.356 . S
N706 C698 1.356 . S
N706 H712 0.984 1_556 S
N706 H713 0.984 . S
N707 C700 1.356 . S
N707 H710 0.984 . S
N707 H711 0.985 . S
H708 N703 0.984 . S
H709 N703 0.985 . S
H710 N707 0.984 . S
H711 N707 0.985 . S
H712 N706 0.984 1_554 S
H713 N706 0.984 . S
H714 N702 0.984 . S
H715 N702 0.985 . S
C716 C717 1.363 . S
C716 C722 1.379 . S
C716 N724 1.356 . S
C717 C716 1.363 . S
C717 C723 1.363 . S
C718 C719 1.363 . S
C718 C723 1.379 . S
C718 N725 1.356 . S
C719 C718 1.363 . S
C719 C722 1.363 . S
N720 C722 1.356 . S
N720 H732 0.984 . S
N720 H733 0.985 . S
N721 C723 1.356 1_554 S
N721 H726 0.984 . S
N721 H727 0.985 . S
C722 C716 1.379 . S
C722 C719 1.363 . S
C722 N720 1.356 . S
C723 C717 1.363 . S
C723 C718 1.379 . S
C723 N721 1.356 1_556 S
N724 C716 1.356 . S
N724 H730 0.984 . S
N724 H731 0.984 . S
N725 C718 1.356 . S
N725 H728 0.984 . S
N725 H729 0.985 1_556 S
H726 N721 0.984 . S
H727 N721 0.985 . S
H728 N725 0.984 . S
H729 N725 0.985 1_554 S
H730 N724 0.984 . S
H731 N724 0.984 . S
H732 N720 0.984 . S
H733 N720 0.985 . S
C734 C735 1.363 . S
C734 C740 1.379 . S
C734 N742 1.356 . S
C735 C734 1.363 . S
C735 C741 1.363 . S
C736 C737 1.363 . S
C736 C741 1.379 . S
C736 N743 1.356 . S
C737 C736 1.363 . S
C737 C740 1.363 . S
N738 C740 1.356 . S
N738 H750 0.984 . S
N738 H751 0.985 . S
N739 C741 1.356 . S
N739 H744 0.984 . S
N739 H745 0.985 . S
C740 C734 1.379 . S
C740 C737 1.363 . S
C740 N738 1.356 . S
C741 C735 1.363 . S
C741 C736 1.379 . S
C741 N739 1.356 . S
N742 C734 1.356 . S
N742 H748 0.984 . S
N742 H749 0.984 . S
N743 C736 1.356 . S
N743 H746 0.984 . S
N743 H747 0.985 . S
H744 N739 0.984 . S
H745 N739 0.985 . S
H746 N743 0.984 . S
H747 N743 0.985 . S
H748 N742 0.984 . S
H749 N742 0.984 . S
H750 N738 0.984 . S
H751 N738 0.985 . S
C752 C753 1.363 . S
C752 C758 1.379 . S
C752 N760 1.356 . S
C753 C752 1.363 . S
C753 C759 1.363 . S
C754 C755 1.363 . S
C754 C759 1.379 . S
C754 N761 1.356 . S
C755 C754 1.363 . S
C755 C758 1.363 . S
N756 C758 1.356 . S
N756 H768 0.984 . S
N756 H769 0.985 . S
N757 C759 1.356 . S
N757 H762 0.984 . S
N757 H763 0.985 . S
C758 C752 1.379 . S
C758 C755 1.363 . S
C758 N756 1.356 . S
C759 C753 1.363 . S
C759 C754 1.379 . S
C759 N757 1.356 . S
N760 C752 1.356 . S
N760 H766 0.984 . S
N760 H767 0.984 . S
N761 C754 1.356 . S
N761 H764 0.984 . S
N761 H765 0.985 . S
H762 N757 0.984 . S
H763 N757 0.985 . S
H764 N761 0.984 . S
H765 N761 0.985 . S
H766 N760 0.984 . S
H767 N760 0.984 . S
H768 N756 0.984 . S
H769 N756 0.985 . S
C770 C771 1.374 . S
C770 C776 1.379 . S
C770 N778 1.356 . S
C771 C770 1.374 . S
C771 C777 1.354 1_545 S
C772 C773 1.363 1_565 S
C772 C777 1.379 . S
C772 N779 1.356 . S
C773 C772 1.363 1_545 S
C773 C776 1.363 . S
N774 C776 1.356 . S
N774 H786 0.984 . S
N774 H787 0.985 . S
N775 C777 1.356 . S
N775 H780 0.984 . S
N775 H781 0.985 . S
C776 C770 1.379 . S
C776 C773 1.363 . S
C776 N774 1.356 . S
C777 C771 1.354 1_565 S
C777 C772 1.379 . S
C777 N775 1.356 . S
N778 C770 1.356 . S
N778 H784 0.984 . S
N778 H785 0.984 . S
N779 C772 1.356 . S
N779 H782 0.984 . S
N779 H783 0.985 . S
H780 N775 0.984 . S
H781 N775 0.985 . S
H782 N779 0.984 . S
H783 N779 0.985 . S
H784 N778 0.984 . S
H785 N778 0.984 . S
H786 N774 0.984 . S
H787 N774 0.985 . S
C788 C789 1.363 . S
C788 C794 1.379 . S
C788 N796 1.356 . S
C789 C788 1.363 . S
C789 C795 1.363 . S
C790 C791 1.363 . S
C790 C795 1.379 . S
C790 N797 1.356 . S
C791 C790 1.363 . S
C791 C794 1.363 . S
N792 C794 1.356 . S
N792 H804 0.984 . S
N792 H805 0.985 . S
N793 C795 1.356 . S
N793 H798 0.984 . S
N793 H799 0.985 . S
C794 C788 1.379 . S
C794 C791 1.363 . S
C794 N792 1.356 . S
C795 C789 1.363 . S
C795 C790 1.379 . S
C795 N793 1.356 . S
N796 C788 1.356 . S
N796 H802 0.984 . S
N796 H803 0.984 . S
N797 C790 1.356 . S
N797 H800 0.984 . S
N797 H801 0.985 . S
H798 N793 0.984 . S
H799 N793 0.985 . S
H800 N797 0.984 . S
H801 N797 0.985 . S
H802 N796 0.984 . S
H803 N796 0.984 . S
H804 N792 0.984 . S
H805 N792 0.985 . S
C806 C807 1.363 . S
C806 C812 1.379 . S
C806 N814 1.356 . S
C807 C806 1.363 . S
C807 C813 1.363 . S
C808 C809 1.363 . S
C808 C813 1.379 . S
C808 N815 1.356 . S
C809 C808 1.363 . S
C809 C812 1.363 . S
N810 C812 1.356 . S
N810 H822 0.984 . S
N810 H823 0.985 . S
N811 C813 1.356 . S
N811 H816 0.984 . S
N811 H817 0.985 . S
C812 C806 1.379 . S
C812 C809 1.363 . S
C812 N810 1.356 . S
C813 C807 1.363 . S
C813 C808 1.379 . S
C813 N811 1.356 . S
N814 C806 1.356 . S
N814 H820 0.984 . S
N814 H821 0.984 . S
N815 C808 1.356 . S
N815 H818 0.984 . S
N815 H819 0.985 . S
H816 N811 0.984 . S
H817 N811 0.985 . S
H818 N815 0.984 . S
H819 N815 0.985 . S
H820 N814 0.984 . S
H821 N814 0.984 . S
H822 N810 0.984 . S
H823 N810 0.985 . S
C393 C255 1.611 . S
C395 C313 1.642 1_545 S
C413 C348 2.365 . S
C411 C294 2.133 . S
C431 C353 1.533 . S
C429 C177 1.528 . S
C449 C373 2.101 . S
C447 C216 1.909 . S
C467 C321 1.643 . S
C465 C99 1.614 1_546 S
C483 C138 2.100 1_556 S
C485 C338 2.365 . S
C501 C21 1.515 . S
C503 C361 1.532 . S
C519 C60 1.941 . S
C521 C381 2.101 . S
C539 C331 1.985 . S
C537 C196 1.669 . S
C557 C340 0.979 1_545 S
C555 C235 0.955 . S
C575 C371 2.074 . S
C573 C289 1.758 . S
C591 C157 1.138 . S
C593 C391 1.220 . S
C609 C40 1.686 . S
C611 C320 1.985 . S
C629 C351 0.979 . S
C627 C79 0.952 1_545 S
C647 C360 2.074 . S
C645 C133 1.770 . S
C663 C1 1.133 . S
C665 C380 1.220 . S
C681 C211 2.066 1_556 S
C683 C318 2.304 . S
C699 C250 1.880 . S
C701 C341 2.126 . S
C719 C358 2.508 . S
C717 C274 2.206 . S
C737 C378 2.224 . S
C735 C172 1.985 1_556 S
C753 C55 2.059 . S
C755 C328 2.303 . S
C773 C333 2.127 . S
C771 C94 1.879 . S
C791 C368 2.507 . S
C789 C118 2.193 . S
C807 C16 1.989 . S
C809 C388 2.223 . S
