# Generated by pormake.
# Topology llk, (3,12)-cn, num edge types: 1
# Building blocks:
#     Node 0, Type 0, BuildingBlock: BELTOD_clean_linker_0, # of connection points: 3
#     Node 1, Type 0, BuildingBlock: BELTOD_clean_linker_0, # of connection points: 3
#     Node 2, Type 0, BuildingBlock: BELTOD_clean_linker_0, # of connection points: 3
#     Node 3, Type 0, BuildingBlock: BELTOD_clean_linker_0, # of connection points: 3
#     Node 4, Type 0, BuildingBlock: BELTOD_clean_linker_0, # of connection points: 3
#     Node 5, Type 0, BuildingBlock: BELTOD_clean_linker_0, # of connection points: 3
#     Node 6, Type 0, BuildingBlock: BELTOD_clean_linker_0, # of connection points: 3
#     Node 7, Type 0, BuildingBlock: BELTOD_clean_linker_0, # of connection points: 3
#     Node 8, Type 0, BuildingBlock: BELTOD_clean_linker_0, # of connection points: 3
#     Node 9, Type 0, BuildingBlock: BELTOD_clean_linker_0, # of connection points: 3
#     Node 10, Type 0, BuildingBlock: BELTOD_clean_linker_0, # of connection points: 3
#     Node 11, Type 0, BuildingBlock: BELTOD_clean_linker_0, # of connection points: 3
#     Node 12, Type 0, BuildingBlock: BELTOD_clean_linker_0, # of connection points: 3
#     Node 13, Type 0, BuildingBlock: BELTOD_clean_linker_0, # of connection points: 3
#     Node 14, Type 0, BuildingBlock: BELTOD_clean_linker_0, # of connection points: 3
#     Node 15, Type 0, BuildingBlock: BELTOD_clean_linker_0, # of connection points: 3
#     Node 16, Type 0, BuildingBlock: BELTOD_clean_linker_0, # of connection points: 3
#     Node 17, Type 0, BuildingBlock: BELTOD_clean_linker_0, # of connection points: 3
#     Node 18, Type 0, BuildingBlock: BELTOD_clean_linker_0, # of connection points: 3
#     Node 19, Type 0, BuildingBlock: BELTOD_clean_linker_0, # of connection points: 3
#     Node 20, Type 0, BuildingBlock: BELTOD_clean_linker_0, # of connection points: 3
#     Node 21, Type 0, BuildingBlock: BELTOD_clean_linker_0, # of connection points: 3
#     Node 22, Type 0, BuildingBlock: BELTOD_clean_linker_0, # of connection points: 3
#     Node 23, Type 0, BuildingBlock: BELTOD_clean_linker_0, # of connection points: 3
#     Node 24, Type 1, BuildingBlock: EZIPEK_clean_sbu_0, # of connection points: 12
#     Node 25, Type 1, BuildingBlock: EZIPEK_clean_sbu_0, # of connection points: 12
#     Node 26, Type 1, BuildingBlock: EZIPEK_clean_sbu_0, # of connection points: 12
#     Node 27, Type 1, BuildingBlock: EZIPEK_clean_sbu_0, # of connection points: 12
#     Node 28, Type 1, BuildingBlock: EZIPEK_clean_sbu_0, # of connection points: 12
#     Node 29, Type 1, BuildingBlock: EZIPEK_clean_sbu_0, # of connection points: 12
#     Edge 30, Type (0, 1), BuildingBlock: CIFDUS_clean_linker_0, # of connection points: 2
#     Edge 31, Type (0, 1), BuildingBlock: CIFDUS_clean_linker_0, # of connection points: 2
#     Edge 32, Type (0, 1), BuildingBlock: CIFDUS_clean_linker_0, # of connection points: 2
#     Edge 33, Type (0, 1), BuildingBlock: CIFDUS_clean_linker_0, # of connection points: 2
#     Edge 34, Type (0, 1), BuildingBlock: CIFDUS_clean_linker_0, # of connection points: 2
#     Edge 35, Type (0, 1), BuildingBlock: CIFDUS_clean_linker_0, # of connection points: 2
#     Edge 36, Type (0, 1), BuildingBlock: CIFDUS_clean_linker_0, # of connection points: 2
#     Edge 37, Type (0, 1), BuildingBlock: CIFDUS_clean_linker_0, # of connection points: 2
#     Edge 38, Type (0, 1), BuildingBlock: CIFDUS_clean_linker_0, # of connection points: 2
#     Edge 39, Type (0, 1), BuildingBlock: CIFDUS_clean_linker_0, # of connection points: 2
#     Edge 40, Type (0, 1), BuildingBlock: CIFDUS_clean_linker_0, # of connection points: 2
#     Edge 41, Type (0, 1), BuildingBlock: CIFDUS_clean_linker_0, # of connection points: 2
#     Edge 42, Type (0, 1), BuildingBlock: CIFDUS_clean_linker_0, # of connection points: 2
#     Edge 43, Type (0, 1), BuildingBlock: CIFDUS_clean_linker_0, # of connection points: 2
#     Edge 44, Type (0, 1), BuildingBlock: CIFDUS_clean_linker_0, # of connection points: 2
#     Edge 45, Type (0, 1), BuildingBlock: CIFDUS_clean_linker_0, # of connection points: 2
#     Edge 46, Type (0, 1), BuildingBlock: CIFDUS_clean_linker_0, # of connection points: 2
#     Edge 47, Type (0, 1), BuildingBlock: CIFDUS_clean_linker_0, # of connection points: 2
#     Edge 48, Type (0, 1), BuildingBlock: CIFDUS_clean_linker_0, # of connection points: 2
#     Edge 49, Type (0, 1), BuildingBlock: CIFDUS_clean_linker_0, # of connection points: 2
#     Edge 50, Type (0, 1), BuildingBlock: CIFDUS_clean_linker_0, # of connection points: 2
#     Edge 51, Type (0, 1), BuildingBlock: CIFDUS_clean_linker_0, # of connection points: 2
#     Edge 52, Type (0, 1), BuildingBlock: CIFDUS_clean_linker_0, # of connection points: 2
#     Edge 53, Type (0, 1), BuildingBlock: CIFDUS_clean_linker_0, # of connection points: 2
#     Edge 54, Type (0, 1), BuildingBlock: CIFDUS_clean_linker_0, # of connection points: 2
#     Edge 55, Type (0, 1), BuildingBlock: CIFDUS_clean_linker_0, # of connection points: 2
#     Edge 56, Type (0, 1), BuildingBlock: CIFDUS_clean_linker_0, # of connection points: 2
#     Edge 57, Type (0, 1), BuildingBlock: CIFDUS_clean_linker_0, # of connection points: 2
#     Edge 58, Type (0, 1), BuildingBlock: CIFDUS_clean_linker_0, # of connection points: 2
#     Edge 59, Type (0, 1), BuildingBlock: CIFDUS_clean_linker_0, # of connection points: 2
#     Edge 60, Type (0, 1), BuildingBlock: CIFDUS_clean_linker_0, # of connection points: 2
#     Edge 61, Type (0, 1), BuildingBlock: CIFDUS_clean_linker_0, # of connection points: 2
#     Edge 62, Type (0, 1), BuildingBlock: CIFDUS_clean_linker_0, # of connection points: 2
#     Edge 63, Type (0, 1), BuildingBlock: CIFDUS_clean_linker_0, # of connection points: 2
#     Edge 64, Type (0, 1), BuildingBlock: CIFDUS_clean_linker_0, # of connection points: 2
#     Edge 65, Type (0, 1), BuildingBlock: CIFDUS_clean_linker_0, # of connection points: 2
#     Edge 66, Type (0, 1), BuildingBlock: CIFDUS_clean_linker_0, # of connection points: 2
#     Edge 67, Type (0, 1), BuildingBlock: CIFDUS_clean_linker_0, # of connection points: 2
#     Edge 68, Type (0, 1), BuildingBlock: CIFDUS_clean_linker_0, # of connection points: 2
#     Edge 69, Type (0, 1), BuildingBlock: CIFDUS_clean_linker_0, # of connection points: 2
#     Edge 70, Type (0, 1), BuildingBlock: CIFDUS_clean_linker_0, # of connection points: 2
#     Edge 71, Type (0, 1), BuildingBlock: CIFDUS_clean_linker_0, # of connection points: 2
#     Edge 72, Type (0, 1), BuildingBlock: CIFDUS_clean_linker_0, # of connection points: 2
#     Edge 73, Type (0, 1), BuildingBlock: CIFDUS_clean_linker_0, # of connection points: 2
#     Edge 74, Type (0, 1), BuildingBlock: CIFDUS_clean_linker_0, # of connection points: 2
#     Edge 75, Type (0, 1), BuildingBlock: CIFDUS_clean_linker_0, # of connection points: 2
#     Edge 76, Type (0, 1), BuildingBlock: CIFDUS_clean_linker_0, # of connection points: 2
#     Edge 77, Type (0, 1), BuildingBlock: CIFDUS_clean_linker_0, # of connection points: 2
#     Edge 78, Type (0, 1), BuildingBlock: CIFDUS_clean_linker_0, # of connection points: 2
#     Edge 79, Type (0, 1), BuildingBlock: CIFDUS_clean_linker_0, # of connection points: 2
#     Edge 80, Type (0, 1), BuildingBlock: CIFDUS_clean_linker_0, # of connection points: 2
#     Edge 81, Type (0, 1), BuildingBlock: CIFDUS_clean_linker_0, # of connection points: 2
#     Edge 82, Type (0, 1), BuildingBlock: CIFDUS_clean_linker_0, # of connection points: 2
#     Edge 83, Type (0, 1), BuildingBlock: CIFDUS_clean_linker_0, # of connection points: 2
#     Edge 84, Type (0, 1), BuildingBlock: CIFDUS_clean_linker_0, # of connection points: 2
#     Edge 85, Type (0, 1), BuildingBlock: CIFDUS_clean_linker_0, # of connection points: 2
#     Edge 86, Type (0, 1), BuildingBlock: CIFDUS_clean_linker_0, # of connection points: 2
#     Edge 87, Type (0, 1), BuildingBlock: CIFDUS_clean_linker_0, # of connection points: 2
#     Edge 88, Type (0, 1), BuildingBlock: CIFDUS_clean_linker_0, # of connection points: 2
#     Edge 89, Type (0, 1), BuildingBlock: CIFDUS_clean_linker_0, # of connection points: 2
#     Edge 90, Type (0, 1), BuildingBlock: CIFDUS_clean_linker_0, # of connection points: 2
#     Edge 91, Type (0, 1), BuildingBlock: CIFDUS_clean_linker_0, # of connection points: 2
#     Edge 92, Type (0, 1), BuildingBlock: CIFDUS_clean_linker_0, # of connection points: 2
#     Edge 93, Type (0, 1), BuildingBlock: CIFDUS_clean_linker_0, # of connection points: 2
#     Edge 94, Type (0, 1), BuildingBlock: CIFDUS_clean_linker_0, # of connection points: 2
#     Edge 95, Type (0, 1), BuildingBlock: CIFDUS_clean_linker_0, # of connection points: 2
#     Edge 96, Type (0, 1), BuildingBlock: CIFDUS_clean_linker_0, # of connection points: 2
#     Edge 97, Type (0, 1), BuildingBlock: CIFDUS_clean_linker_0, # of connection points: 2
#     Edge 98, Type (0, 1), BuildingBlock: CIFDUS_clean_linker_0, # of connection points: 2
#     Edge 99, Type (0, 1), BuildingBlock: CIFDUS_clean_linker_0, # of connection points: 2
#     Edge 100, Type (0, 1), BuildingBlock: CIFDUS_clean_linker_0, # of connection points: 2
#     Edge 101, Type (0, 1), BuildingBlock: CIFDUS_clean_linker_0, # of connection points: 2
# Relax obj value: 0.096
# Max RMSD: 0.146
# Mean RMSD: 0.122
data_MOF--net-llk--node1-EZIPEK_clean_sbu_0--node2-BELTOD_clean_linker_0--edge1-CIFDUS_clean_linker_0
_symmetry_space_group_name_H-M    P1
_symmetry_Int_Tables_number       1
_symmetry_cell_setting            triclinic
loop_
_symmetry_equiv_pos_as_xyz
'x, y, z'
_cell_length_a     47.382893
_cell_length_b     47.519644
_cell_length_c     47.341172
_cell_angle_alpha  89.962578
_cell_angle_beta   89.911298
_cell_angle_gamma 90.063846
loop_
_atom_site_label
_atom_site_type_symbol
_atom_site_fract_x
_atom_site_fract_y
_atom_site_fract_z
_atom_type_partial_charge
P0 P 0.94884 0.24976 0.25633 0.0
H1 H 0.94401 0.24871 0.19476 0.0
H2 H 0.96255 0.28018 0.15851 0.0
H3 H 0.0174 0.31875 0.22015 0.0
H4 H 0.99882 0.28685 0.25646 0.0
H5 H 0.9209 0.19832 0.27413 0.0
H6 H 0.93327 0.16458 0.31079 0.0
H7 H 0.01778 0.19816 0.31351 0.0
H8 H 0.00512 0.23266 0.27682 0.0
H9 H 0.93728 0.31019 0.25556 0.0
H10 H 0.95067 0.24597 0.31879 0.0
O11 O 0.91664 0.24342 0.24356 0.0
H12 H 0.93952 0.34626 0.29234 0.0
H13 H 0.95375 0.28162 0.35498 0.0
C14 C 0.96971 0.26561 0.22844 0.0
C15 C 0.96065 0.26329 0.20037 0.0
C16 C 0.97126 0.28144 0.1796 0.0
C17 C 0.9911 0.3024 0.18651 0.0
C18 C 1.00174 0.30321 0.21425 0.0
C19 C 0.99137 0.28474 0.23495 0.0
C20 C 0.96217 0.21789 0.27234 0.0
C21 C 0.94249 0.19778 0.28156 0.0
C22 C 0.94944 0.17866 0.30284 0.0
C23 C 0.97633 0.17905 0.31519 0.0
C24 C 0.99691 0.19742 0.30424 0.0
C25 C 0.9898 0.2169 0.28304 0.0
C26 C 0.94508 0.27544 0.28408 0.0
C27 C 0.94058 0.30379 0.27727 0.0
C28 C 0.94195 0.32438 0.29827 0.0
C29 C 0.94743 0.3168 0.32645 0.0
C30 C 0.94956 0.28818 0.33347 0.0
C31 C 0.94818 0.26768 0.31252 0.0
P32 P 0.75652 0.95409 0.25637 0.0
H33 H 0.74893 0.94078 0.19658 0.0
H34 H 0.71382 0.95727 0.16302 0.0
H35 H 0.6923 0.02554 0.2192 0.0
H36 H 0.7278 0.009 0.25277 0.0
H37 H 0.80229 0.92381 0.28286 0.0
H38 H 0.83899 0.93825 0.31557 0.0
H39 H 0.81783 0.02537 0.30089 0.0
H40 H 0.78122 0.01064 0.26713 0.0
H41 H 0.707 0.91862 0.26707 0.0
H42 H 0.74564 0.99244 0.3034 0.0
O43 O 0.76114 0.92078 0.24617 0.0
H44 H 0.66722 0.9235 0.29994 0.0
H45 H 0.70619 0.99812 0.33477 0.0
C46 C 0.74091 0.97339 0.22744 0.0
C47 C 0.73751 0.95993 0.20132 0.0
C48 C 0.71722 0.96935 0.18211 0.0
C49 C 0.69978 0.99239 0.18869 0.0
C50 C 0.70498 0.00738 0.21377 0.0
C51 C 0.72557 0.9981 0.23285 0.0
C52 C 0.78909 0.96611 0.27224 0.0
C53 C 0.80618 0.94609 0.28566 0.0
C54 C 0.82715 0.95438 0.30459 0.0
C55 C 0.83118 0.98294 0.31102 0.0
C56 C 0.81506 1.00318 0.29647 0.0
C57 C 0.79438 0.99481 0.27694 0.0
C58 C 0.72983 0.95458 0.28334 0.0
C59 C 0.70726 0.93549 0.28244 0.0
C60 C 0.68438 0.93854 0.30092 0.0
C61 C 0.68366 0.96103 0.32021 0.0
C62 C 0.70637 0.98003 0.32086 0.0
C63 C 0.72919 0.97676 0.30277 0.0
P64 P 0.06547 0.75945 0.24902 0.0
H65 H 0.07959 0.76071 0.18875 0.0
H66 H 0.06275 0.73154 0.14993 0.0
H67 H 0.99322 0.70311 0.20168 0.0
H68 H 0.01016 0.73263 0.24055 0.0
H69 H 0.09722 0.80191 0.27925 0.0
H70 H 0.0834 0.83859 0.31243 0.0
H71 H 0.99577 0.82332 0.29316 0.0
H72 H 0.00977 0.78579 0.26004 0.0
H73 H 0.06901 0.69859 0.24184 0.0
H74 H 0.05732 0.75669 0.31097 0.0
O75 O 0.09948 0.76271 0.24039 0.0
H76 H 0.06005 0.65926 0.27363 0.0
H77 H 0.05007 0.71755 0.34307 0.0
C78 C 0.04636 0.74867 0.21774 0.0
C79 C 0.0601 0.74912 0.19147 0.0
C80 C 0.05047 0.73226 0.16923 0.0
C81 C 0.02698 0.71448 0.1729 0.0
C82 C 0.01168 0.71617 0.19836 0.0
C83 C 0.02113 0.73337 0.22048 0.0
C84 C 0.05458 0.79146 0.26659 0.0
C85 C 0.07503 0.80689 0.28141 0.0
C86 C 0.06712 0.82766 0.3007 0.0
C87 C 0.03854 0.83365 0.30552 0.0
C88 C 0.01798 0.81917 0.28972 0.0
C89 C 0.02595 0.79791 0.27064 0.0
C90 C 0.06287 0.73068 0.27371 0.0
C91 C 0.06477 0.70291 0.2639 0.0
C92 C 0.0599 0.68038 0.2822 0.0
C93 C 0.0538 0.68521 0.31088 0.0
C94 C 0.05376 0.71307 0.32095 0.0
C95 C 0.05815 0.73558 0.30253 0.0
P96 P 0.25296 0.96007 0.25303 0.0
H97 H 0.19151 0.95953 0.24906 0.0
H98 H 0.15514 0.97534 0.28196 0.0
H99 H 0.21821 0.02036 0.32986 0.0
H100 H 0.25449 0.00435 0.29693 0.0
H101 H 0.27859 0.92666 0.20974 0.0
H102 H 0.31384 0.93878 0.17522 0.0
H103 H 0.2939 0.02698 0.18576 0.0
H104 H 0.25884 0.01426 0.22189 0.0
H105 H 0.27063 0.9255 0.30114 0.0
H106 H 0.30349 0.99606 0.25376 0.0
O107 O 0.24111 0.92702 0.2513 0.0
H108 H 0.31249 0.92725 0.33176 0.0
H109 H 0.34517 0.99684 0.28308 0.0
C110 C 0.22583 0.98046 0.27053 0.0
C111 C 0.19741 0.97358 0.26607 0.0
C112 C 0.17659 0.98257 0.28508 0.0
C113 C 0.18377 0.9987 0.30899 0.0
C114 C 0.21199 0.00742 0.31209 0.0
C115 C 0.23278 0.9985 0.29299 0.0
C116 C 0.26583 0.96947 0.21837 0.0
C117 C 0.28068 0.94857 0.20375 0.0
C118 C 0.30122 0.95567 0.1839 0.0
C119 C 0.30732 0.98401 0.17776 0.0
C120 C 0.29029 0.00494 0.19033 0.0
C121 C 0.26966 0.99771 0.2105 0.0
C122 C 0.28416 0.96009 0.27461 0.0
C123 C 0.287 0.94085 0.29686 0.0
C124 C 0.31086 0.94175 0.31417 0.0
C125 C 0.33217 0.96172 0.30911 0.0
C126 C 0.32939 0.98071 0.28673 0.0
C127 C 0.30539 0.9802 0.26994 0.0
P128 P 0.96277 0.74747 0.7585 0.0
H129 H 0.93121 0.72059 0.80282 0.0
H130 H 0.94534 0.69072 0.84203 0.0
H131 H 0.03229 0.71428 0.82882 0.0
H132 H 0.01795 0.74427 0.78868 0.0
H133 H 0.95313 0.80802 0.75311 0.0
H134 H 0.9673 0.84117 0.7165 0.0
H135 H 0.02748 0.78076 0.68461 0.0
H136 H 0.0129 0.74747 0.72132 0.0
H137 H 0.93339 0.73463 0.70611 0.0
H138 H 0.99489 0.69434 0.75982 0.0
O139 O 0.92919 0.75777 0.76115 0.0
H140 H 0.93743 0.69565 0.67247 0.0
H141 H 0.99884 0.65576 0.72659 0.0
C142 C 0.97342 0.73518 0.79305 0.0
C143 C 0.95324 0.72032 0.80887 0.0
C144 C 0.96135 0.70287 0.8311 0.0
C145 C 0.9899 0.6999 0.83822 0.0
C146 C 0.0101 0.71627 0.82375 0.0
C147 C 1.00192 0.73364 0.80107 0.0
C148 C 0.98169 0.77507 0.73994 0.0
C149 C 0.97008 0.80219 0.73891 0.0
C150 C 0.97818 0.82119 0.71774 0.0
C151 C 0.99818 0.81352 0.69707 0.0
C152 C 0.01155 0.78718 0.6997 0.0
C153 C 0.00349 0.76822 0.72101 0.0
C154 C 0.96336 0.71722 0.73575 0.0
C155 C 0.94731 0.71722 0.71094 0.0
C156 C 0.94975 0.69508 0.69172 0.0
C157 C 0.96834 0.67268 0.69709 0.0
C158 C 0.98398 0.67251 0.7222 0.0
C159 C 0.9817 0.69471 0.74124 0.0
P160 P 0.25611 0.94971 0.75807 0.0
H161 H 0.26187 0.94337 0.81927 0.0
H162 H 0.29831 0.96014 0.85139 0.0
H163 H 0.32982 0.01592 0.78647 0.0
H164 H 0.29339 0.99879 0.75428 0.0
H165 H 0.20165 0.92794 0.74058 0.0
H166 H 0.16708 0.94583 0.70728 0.0
H167 H 0.21004 0.02603 0.70574 0.0
H168 H 0.24474 0.00789 0.73952 0.0
H169 H 0.31272 0.92582 0.75878 0.0
H170 H 0.25607 0.96062 0.69655 0.0
O171 O 0.2467 0.91867 0.77168 0.0
H172 H 0.35152 0.92867 0.72475 0.0
H173 H 0.29443 0.96536 0.6637 0.0
C174 C 0.27491 0.96973 0.78434 0.0
C175 C 0.27593 0.95993 0.81222 0.0
C176 C 0.29689 0.96953 0.83059 0.0
C177 C 0.31727 0.98905 0.82131 0.0
C178 C 0.31471 1.00055 0.79408 0.0
C179 C 0.29359 0.99107 0.7758 0.0
C180 C 0.22563 0.96664 0.7429 0.0
C181 C 0.20305 0.94975 0.73411 0.0
C182 C 0.18331 0.96 0.71485 0.0
C183 C 0.18595 0.98729 0.70365 0.0
C184 C 0.20762 0.00483 0.71381 0.0
C185 C 0.22722 0.99461 0.73345 0.0
C186 C 0.28162 0.94365 0.73056 0.0
C187 C 0.30849 0.93357 0.73768 0.0
C188 C 0.33072 0.9356 0.71835 0.0
C189 C 0.32633 0.9478 0.69164 0.0
C190 C 0.29878 0.95567 0.68393 0.0
C191 C 0.27663 0.95331 0.70307 0.0
P192 P 0.04396 0.26033 0.75277 0.0
H193 H 0.05885 0.26397 0.81266 0.0
H194 H 0.04529 0.29773 0.84871 0.0
H195 H 0.9778 0.32746 0.79522 0.0
H196 H 0.99202 0.29377 0.75877 0.0
H197 H 0.05865 0.20123 0.74387 0.0
H198 H 0.04358 0.16754 0.70832 0.0
H199 H 0.97574 0.22302 0.68399 0.0
H200 H 0.9909 0.25686 0.72014 0.0
H201 H 0.05776 0.32013 0.75961 0.0
H202 H 0.04543 0.26228 0.69046 0.0
O203 O 0.07572 0.24906 0.76295 0.0
H204 H 0.05781 0.35942 0.72649 0.0
H205 H 0.04314 0.30119 0.65776 0.0
C206 C 0.02647 0.27618 0.78289 0.0
C207 C 0.04048 0.27698 0.80897 0.0
C208 C 0.03269 0.2965 0.82969 0.0
C209 C 0.01069 0.31578 0.82482 0.0
C210 C 0.99518 0.31334 0.79954 0.0
C211 C 1.00296 0.29367 0.77883 0.0
C212 C 0.026 0.23173 0.73478 0.0
C213 C 0.03991 0.20586 0.73169 0.0
C214 C 0.0313 0.18655 0.71114 0.0
C215 C 0.00869 0.19272 0.69294 0.0
C216 C 0.99347 0.21778 0.6974 0.0
C217 C 1.00183 0.23694 0.71841 0.0
C218 C 0.04977 0.28837 0.72778 0.0
C219 C 0.05484 0.31584 0.73735 0.0
C220 C 0.05471 0.33835 0.71838 0.0
C221 C 0.04957 0.3337 0.68949 0.0
C222 C 0.04706 0.30581 0.67979 0.0
C223 C 0.04776 0.28336 0.6987 0.0
P224 P 0.7484 0.05628 0.74368 0.0
H225 H 0.74383 0.0605 0.80522 0.0
H226 H 0.70749 0.04475 0.83807 0.0
H227 H 0.66853 0.99619 0.77159 0.0
H228 H 0.705 0.01228 0.73864 0.0
H229 H 0.81012 0.05518 0.74019 0.0
H230 H 0.84174 0.0365 0.70412 0.0
H231 H 0.77194 0.99236 0.6658 0.0
H232 H 0.74033 0.0109 0.70226 0.0
H233 H 0.69009 0.07703 0.74826 0.0
H234 H 0.75435 0.07188 0.68377 0.0
O235 O 0.76603 0.08223 0.75957 0.0
H236 H 0.65425 0.0836 0.71196 0.0
H237 H 0.71859 0.0772 0.64744 0.0
C238 C 0.7273 0.03752 0.76943 0.0
C239 C 0.72803 0.04578 0.79783 0.0
C240 C 0.70711 0.03676 0.81666 0.0
C241 C 0.68487 0.01941 0.80741 0.0
C242 C 0.68515 0.00981 0.7793 0.0
C243 C 0.70628 0.01866 0.76054 0.0
C244 C 0.77279 0.03452 0.724 0.0
C245 C 0.80171 0.04068 0.72471 0.0
C246 C 0.81981 0.03003 0.70395 0.0
C247 C 0.80924 0.01327 0.68187 0.0
C248 C 0.78062 0.00546 0.68237 0.0
C249 C 0.76261 0.01574 0.70348 0.0
C250 C 0.72454 0.07184 0.71856 0.0
C251 C 0.6966 0.07765 0.72634 0.0
C252 C 0.6761 0.08142 0.70557 0.0
C253 C 0.68343 0.07962 0.67683 0.0
C254 C 0.71212 0.07822 0.66937 0.0
C255 C 0.73261 0.07476 0.6902 0.0
P256 P 0.25531 0.25136 0.9647 0.0
H257 H 0.26426 0.19317 0.94681 0.0
H258 H 0.29944 0.15903 0.96128 0.0
H259 H 0.31811 0.20911 0.03505 0.0
H260 H 0.28272 0.2435 0.02027 0.0
H261 H 0.20607 0.27166 0.93441 0.0
H262 H 0.16596 0.30048 0.94825 0.0
H263 H 0.19194 0.29556 0.03533 0.0
H264 H 0.23159 0.26485 0.02159 0.0
H265 H 0.3017 0.26677 0.92675 0.0
H266 H 0.26953 0.2934 0.00772 0.0
O267 O 0.25113 0.24294 0.9307 0.0
H268 H 0.34113 0.2997 0.93162 0.0
H269 H 0.30904 0.32484 0.01335 0.0
C270 C 0.27094 0.22126 0.98217 0.0
C271 C 0.27511 0.19647 0.96664 0.0
C272 C 0.29545 0.17685 0.97496 0.0
C273 C 0.31217 0.18155 0.99906 0.0
C274 C 0.30612 0.20514 0.01601 0.0
C275 C 0.28556 0.2247 0.00773 0.0
C276 C 0.22208 0.26597 0.97691 0.0
C277 C 0.20284 0.27583 0.95665 0.0
C278 C 0.17991 0.29255 0.96452 0.0
C279 C 0.17606 0.30049 0.99277 0.0
C280 C 0.19463 0.28987 0.01334 0.0
C281 C 0.21721 0.2723 0.0055 0.0
C282 C 0.28206 0.27818 0.96644 0.0
C283 C 0.30281 0.27995 0.94536 0.0
C284 C 0.32559 0.29846 0.94837 0.0
C285 C 0.32817 0.31509 0.97279 0.0
C286 C 0.30739 0.31298 0.99389 0.0
C287 C 0.28456 0.29487 0.99067 0.0
P288 P 0.25107 0.76089 0.96441 0.0
H289 H 0.19463 0.75248 0.94115 0.0
H290 H 0.15619 0.72113 0.95441 0.0
H291 H 0.19951 0.70028 0.03172 0.0
H292 H 0.23799 0.73271 0.01866 0.0
H293 H 0.24896 0.82224 0.95868 0.0
H294 H 0.28176 0.85863 0.97434 0.0
H295 H 0.32333 0.79828 0.02827 0.0
H296 H 0.29001 0.76194 0.01283 0.0
H297 H 0.25295 0.69905 0.97352 0.0
H298 H 0.30921 0.76471 0.94497 0.0
O299 O 0.24382 0.7731 0.93216 0.0
H300 H 0.29216 0.66708 0.97768 0.0
H301 H 0.34874 0.73182 0.94699 0.0
C302 C 0.21933 0.74504 0.97887 0.0
C303 C 0.19561 0.742 0.96143 0.0
C304 C 0.17359 0.72389 0.96897 0.0
C305 C 0.17497 0.70793 0.99393 0.0
C306 C 0.198 0.71211 0.01223 0.0
C307 C 0.21979 0.73091 0.00497 0.0
C308 C 0.26716 0.78923 0.98428 0.0
C309 C 0.26443 0.81699 0.97464 0.0
C310 C 0.28337 0.83781 0.98353 0.0
C311 C 0.30557 0.83121 1.00211 0.0
C312 C 0.3068 0.8039 0.01353 0.0
C313 C 0.28751 0.7832 0.00498 0.0
C314 C 0.27827 0.73476 0.96017 0.0
C315 C 0.27367 0.70668 0.9679 0.0
C316 C 0.29627 0.68807 0.96977 0.0
C317 C 0.32385 0.69694 0.96313 0.0
C318 C 0.32795 0.72449 0.95306 0.0
C319 C 0.30532 0.74322 0.95158 0.0
P320 P 0.75812 0.25494 0.96937 0.0
H321 H 0.81881 0.24907 0.96 0.0
H322 H 0.85846 0.2781 0.97528 0.0
H323 H 0.80427 0.31994 0.03544 0.0
H324 H 0.76465 0.29099 0.01987 0.0
H325 H 0.72508 0.21762 0.935 0.0
H326 H 0.69354 0.17881 0.94633 0.0
H327 H 0.72359 0.17912 0.03231 0.0
H328 H 0.75538 0.21872 0.02079 0.0
H329 H 0.7412 0.30551 0.93847 0.0
H330 H 0.71262 0.25868 0.01124 0.0
O331 O 0.76686 0.2551 0.93519 0.0
H332 H 0.70163 0.33811 0.94424 0.0
H333 H 0.67319 0.29102 0.01702 0.0
C334 C 0.78857 0.26799 0.98844 0.0
C335 C 0.81562 0.26382 0.97714 0.0
C336 C 0.83836 0.28059 0.98588 0.0
C337 C 0.8345 0.30191 0.00618 0.0
C338 C 0.80788 0.30426 0.01925 0.0
C339 C 0.78519 0.28741 0.01054 0.0
C340 C 0.7431 0.22076 0.97687 0.0
C341 C 0.72573 0.20883 0.9561 0.0
C342 C 0.70732 0.18687 0.96268 0.0
C343 C 0.70579 0.17619 0.99027 0.0
C344 C 0.72439 0.18695 0.01084 0.0
C345 C 0.74275 0.20934 0.00424 0.0
C346 C 0.72946 0.27929 0.97397 0.0
C347 C 0.72637 0.30214 0.95556 0.0
C348 C 0.70385 0.32079 0.95896 0.0
C349 C 0.68419 0.31685 0.98091 0.0
C350 C 0.68768 0.29419 0.99958 0.0
C351 C 0.71026 0.2757 0.99627 0.0
P352 P 0.76169 0.75241 0.05626 0.0
H353 H 0.82156 0.75759 0.07039 0.0
H354 H 0.86176 0.7288 0.05619 0.0
H355 H 0.81228 0.69321 0.98856 0.0
H356 H 0.77224 0.72235 1.00257 0.0
H357 H 0.72649 0.78796 0.09053 0.0
H358 H 0.69039 0.82222 0.07876 0.0
H359 H 0.71763 0.82144 0.99177 0.0
H360 H 0.75432 0.78657 0.0038 0.0
H361 H 0.7482 0.7006 0.0872 0.0
H362 H 0.72018 0.74292 0.01162 0.0
O363 O 0.7692 0.753 0.09071 0.0
H364 H 0.71409 0.66281 0.07845 0.0
H365 H 0.68675 0.70538 1.00258 0.0
C366 C 0.79356 0.74183 0.03798 0.0
C367 C 0.8196 0.74445 0.05182 0.0
C368 C 0.84263 0.7278 0.04374 0.0
C369 C 0.84 0.70812 0.0217 0.0
C370 C 0.81478 0.70766 0.00606 0.0
C371 C 0.79187 0.72458 0.01396 0.0
C372 C 0.74349 0.78489 0.04817 0.0
C373 C 0.72561 0.79582 0.06908 0.0
C374 C 0.70461 0.81519 0.06227 0.0
C375 C 0.70087 0.82416 0.03429 0.0
C376 C 0.72008 0.81488 0.01354 0.0
C377 C 0.7412 0.79518 0.02042 0.0
C378 C 0.73615 0.72501 0.05055 0.0
C379 C 0.73458 0.70192 0.0689 0.0
C380 C 0.7153 0.68024 0.06374 0.0
C381 C 0.69752 0.68133 0.03999 0.0
C382 C 0.69962 0.70428 0.02143 0.0
C383 C 0.71877 0.72586 0.02665 0.0
P384 P 0.45277 0.75439 0.74803 0.0
H385 H 0.43908 0.7526 0.68776 0.0
H386 H 0.45461 0.78236 0.64865 0.0
H387 H 0.52078 0.81655 0.70108 0.0
H388 H 0.50524 0.78647 0.74016 0.0
H389 H 0.42391 0.70141 0.76026 0.0
H390 H 0.4369 0.66107 0.78918 0.0
H391 H 0.52128 0.69415 0.79775 0.0
H392 H 0.50839 0.73442 0.76766 0.0
H393 H 0.43873 0.81389 0.74679 0.0
H394 H 0.47233 0.75518 0.80764 0.0
O395 O 0.41857 0.75128 0.7402 0.0
H396 H 0.44682 0.85248 0.77991 0.0
H397 H 0.48241 0.79339 0.83958 0.0
C398 C 0.47071 0.76759 0.71703 0.0
C399 C 0.45753 0.76576 0.6906 0.0
C400 C 0.46641 0.78289 0.66822 0.0
C401 C 0.48857 0.80227 0.67195 0.0
C402 C 0.5033 0.80223 0.69773 0.0
C403 C 0.49461 0.78481 0.71999 0.0
C404 C 0.46515 0.72107 0.7618 0.0
C405 C 0.4455 0.69968 0.76746 0.0
C406 C 0.45291 0.67658 0.78414 0.0
C407 C 0.47999 0.67465 0.79599 0.0
C408 C 0.50019 0.69525 0.78902 0.0
C409 C 0.49294 0.71806 0.77161 0.0
C410 C 0.45551 0.78167 0.77433 0.0
C411 C 0.44787 0.80928 0.76723 0.0
C412 C 0.45283 0.83137 0.78606 0.0
C413 C 0.46564 0.8262 0.81234 0.0
C414 C 0.47229 0.79828 0.81969 0.0
C415 C 0.46692 0.77624 0.80106 0.0
P416 P 0.25042 0.45908 0.75049 0.0
H417 H 0.24417 0.44529 0.69063 0.0
H418 H 0.20981 0.46157 0.65621 0.0
H419 H 0.18794 0.53084 0.711 0.0
H420 H 0.22269 0.51447 0.74546 0.0
H421 H 0.288 0.42826 0.78654 0.0
H422 H 0.32627 0.44199 0.81784 0.0
H423 H 0.32196 0.52697 0.78593 0.0
H424 H 0.28292 0.51296 0.75435 0.0
H425 H 0.20032 0.4246 0.76167 0.0
H426 H 0.24004 0.49864 0.79628 0.0
O427 O 0.25407 0.42549 0.74082 0.0
H428 H 0.16166 0.42936 0.79582 0.0
H429 H 0.20141 0.50412 0.82944 0.0
C430 C 0.2359 0.47837 0.72092 0.0
C431 C 0.23286 0.46461 0.69489 0.0
C432 C 0.21297 0.47392 0.67517 0.0
C433 C 0.19558 0.49718 0.68109 0.0
C434 C 0.20053 0.51249 0.70604 0.0
C435 C 0.22071 0.50331 0.72565 0.0
C436 C 0.28294 0.46941 0.76761 0.0
C437 C 0.29567 0.44973 0.78562 0.0
C438 C 0.31736 0.45767 0.80384 0.0
C439 C 0.32696 0.4856 0.8046 0.0
C440 C 0.31504 0.50524 0.78572 0.0
C441 C 0.2929 0.49725 0.76755 0.0
C442 C 0.22347 0.46072 0.77709 0.0
C443 C 0.2009 0.44163 0.77684 0.0
C444 C 0.17867 0.4446 0.79608 0.0
C445 C 0.17862 0.46696 0.81553 0.0
C446 C 0.20114 0.48623 0.81528 0.0
C447 C 0.22334 0.4831 0.7963 0.0
P448 P 0.54646 0.25833 0.75566 0.0
H449 H 0.57614 0.21839 0.72118 0.0
H450 H 0.56239 0.18853 0.6818 0.0
H451 H 0.48072 0.2286 0.67956 0.0
H452 H 0.49474 0.25876 0.7197 0.0
H453 H 0.56222 0.31766 0.75045 0.0
H454 H 0.54807 0.35847 0.77831 0.0
H455 H 0.47899 0.31066 0.81371 0.0
H456 H 0.49312 0.26991 0.78559 0.0
H457 H 0.50319 0.2155 0.7658 0.0
H458 H 0.57689 0.24776 0.80824 0.0
O459 O 0.58101 0.26504 0.75371 0.0
H460 H 0.49424 0.1837 0.8052 0.0
H461 H 0.56861 0.21529 0.8475 0.0
C462 C 0.53669 0.2412 0.72305 0.0
C463 C 0.55547 0.22132 0.7119 0.0
C464 C 0.5475 0.20402 0.68952 0.0
C465 C 0.52043 0.20608 0.67771 0.0
C466 C 0.50179 0.2267 0.68818 0.0
C467 C 0.50978 0.24398 0.71098 0.0
C468 C 0.5291 0.29049 0.76627 0.0
C469 C 0.54341 0.31619 0.7634 0.0
C470 C 0.53533 0.33957 0.77947 0.0
C471 C 0.5128 0.33761 0.79877 0.0
C472 C 0.49683 0.31264 0.7995 0.0
C473 C 0.50477 0.28936 0.7832 0.0
C474 C 0.54114 0.23343 0.78378 0.0
C475 C 0.51777 0.21535 0.78337 0.0
C476 C 0.51267 0.19717 0.80597 0.0
C477 C 0.53084 0.19676 0.82943 0.0
C478 C 0.55408 0.21521 0.82987 0.0
C479 C 0.55906 0.23353 0.80729 0.0
P480 P 0.76099 0.46104 0.75536 0.0
H481 H 0.70002 0.45178 0.7588 0.0
H482 H 0.66557 0.46717 0.79377 0.0
H483 H 0.72538 0.528 0.8256 0.0
H484 H 0.75992 0.51225 0.79055 0.0
H485 H 0.789 0.42816 0.71276 0.0
H486 H 0.81835 0.44075 0.67248 0.0
H487 H 0.79432 0.52776 0.68202 0.0
H488 H 0.76484 0.51496 0.72318 0.0
H489 H 0.77101 0.43487 0.81002 0.0
H490 H 0.81526 0.49151 0.75397 0.0
O491 O 0.7506 0.42751 0.75364 0.0
H492 H 0.80946 0.43907 0.84436 0.0
H493 H 0.85336 0.49566 0.78792 0.0
C494 C 0.73275 0.48057 0.77214 0.0
C495 C 0.70545 0.46912 0.77259 0.0
C496 C 0.68571 0.47793 0.7928 0.0
C497 C 0.69283 0.49845 0.81304 0.0
C498 C 0.71937 0.51168 0.81083 0.0
C499 C 0.73905 0.50294 0.79047 0.0
C500 C 0.77416 0.4705 0.72071 0.0
C501 C 0.78914 0.44986 0.70574 0.0
C502 C 0.80627 0.4571 0.68288 0.0
C503 C 0.80887 0.48524 0.67429 0.0
C504 C 0.7926 0.50586 0.68817 0.0
C505 C 0.77556 0.49857 0.71148 0.0
C506 C 0.79048 0.46233 0.77918 0.0
C507 C 0.78913 0.44783 0.80492 0.0
C508 C 0.81095 0.4504 0.82456 0.0
C509 C 0.83443 0.46755 0.81866 0.0
C510 C 0.83576 0.4819 0.79278 0.0
C511 C 0.81387 0.4795 0.77331 0.0
P512 P 0.46342 0.25986 0.25265 0.0
H513 H 0.44614 0.26063 0.31205 0.0
H514 H 0.45807 0.23033 0.35184 0.0
H515 H 0.52517 0.19292 0.30282 0.0
H516 H 0.51313 0.22364 0.26291 0.0
H517 H 0.44301 0.31804 0.252 0.0
H518 H 0.45643 0.35832 0.22315 0.0
H519 H 0.53096 0.31408 0.19529 0.0
H520 H 0.51747 0.27361 0.22472 0.0
H521 H 0.45867 0.19827 0.25117 0.0
H522 H 0.46644 0.26584 0.19068 0.0
O523 O 0.42932 0.26583 0.25917 0.0
H524 H 0.46199 0.16404 0.21298 0.0
H525 H 0.47102 0.23183 0.1527 0.0
C526 C 0.47842 0.24418 0.28425 0.0
C527 C 0.46392 0.24648 0.31001 0.0
C528 C 0.47078 0.22902 0.33285 0.0
C529 C 0.49227 0.20873 0.33045 0.0
C530 C 0.50813 0.2079 0.30525 0.0
C531 C 0.50148 0.22571 0.28249 0.0
C532 C 0.47905 0.29257 0.24039 0.0
C533 C 0.46276 0.31721 0.24051 0.0
C534 C 0.47044 0.34034 0.22384 0.0
C535 C 0.49452 0.33929 0.20645 0.0
C536 C 0.51205 0.31541 0.20809 0.0
C537 C 0.50457 0.29241 0.22523 0.0
C538 C 0.4642 0.23466 0.22413 0.0
C539 C 0.46172 0.2058 0.2298 0.0
C540 C 0.46359 0.1862 0.2079 0.0
C541 C 0.46753 0.19515 0.17983 0.0
C542 C 0.4682 0.22416 0.17406 0.0
C543 C 0.46612 0.2437 0.19596 0.0
P544 P 0.74811 0.55989 0.25541 0.0
H545 H 0.68827 0.57505 0.25368 0.0
H546 H 0.6502 0.55994 0.22255 0.0
H547 H 0.70274 0.49284 0.19081 0.0
H548 H 0.7408 0.50778 0.22263 0.0
H549 H 0.74998 0.5762 0.31503 0.0
H550 H 0.77971 0.56058 0.35394 0.0
H551 H 0.80968 0.49141 0.30297 0.0
H552 H 0.77969 0.50728 0.26389 0.0
H553 H 0.74577 0.5631 0.19346 0.0
H554 H 0.81002 0.56393 0.25797 0.0
O555 O 0.73948 0.59293 0.26367 0.0
H556 H 0.78187 0.55905 0.15725 0.0
H557 H 0.84646 0.56138 0.22166 0.0
C558 C 0.71753 0.54275 0.24032 0.0
C559 C 0.69138 0.55652 0.24076 0.0
C560 C 0.6696 0.54791 0.22282 0.0
C561 C 0.67365 0.5255 0.20385 0.0
C562 C 0.69917 0.51043 0.20491 0.0
C563 C 0.72078 0.51873 0.22333 0.0
C564 C 0.76275 0.54306 0.28641 0.0
C565 C 0.76228 0.5572 0.3124 0.0
C566 C 0.77936 0.54821 0.33474 0.0
C567 C 0.79744 0.52496 0.33148 0.0
C568 C 0.79634 0.50965 0.30603 0.0
C569 C 0.77895 0.5185 0.28378 0.0
C570 C 0.77508 0.56193 0.22856 0.0
C571 C 0.76766 0.56236 0.19991 0.0
C572 C 0.78843 0.56052 0.17909 0.0
C573 C 0.81712 0.55915 0.18654 0.0
C574 C 0.82454 0.56132 0.21523 0.0
C575 C 0.80368 0.56283 0.23604 0.0
P576 P 0.54963 0.75191 0.26257 0.0
H577 H 0.56234 0.7482 0.32299 0.0
H578 H 0.54823 0.77862 0.362 0.0
H579 H 0.483 0.81486 0.3099 0.0
H580 H 0.49696 0.78404 0.27098 0.0
H581 H 0.57949 0.71889 0.22158 0.0
H582 H 0.56554 0.68226 0.18852 0.0
H583 H 0.48243 0.68007 0.22586 0.0
H584 H 0.4966 0.71762 0.25914 0.0
H585 H 0.58311 0.80324 0.2551 0.0
H586 H 0.51013 0.76441 0.21711 0.0
O587 O 0.58352 0.74786 0.27126 0.0
H588 H 0.57866 0.84322 0.2226 0.0
H589 H 0.50519 0.8042 0.18527 0.0
C590 C 0.53106 0.764 0.29378 0.0
C591 C 0.54427 0.76185 0.3202 0.0
C592 C 0.53626 0.77946 0.34255 0.0
C593 C 0.51493 0.79973 0.33887 0.0
C594 C 0.49994 0.79994 0.31323 0.0
C595 C 0.50774 0.78204 0.29101 0.0
C596 C 0.53933 0.72061 0.24331 0.0
C597 C 0.55841 0.71018 0.22322 0.0
C598 C 0.55032 0.68943 0.20402 0.0
C599 C 0.52284 0.67842 0.20438 0.0
C600 C 0.50382 0.68812 0.22516 0.0
C601 C 0.51191 0.70939 0.2443 0.0
C602 C 0.54755 0.78047 0.23782 0.0
C603 C 0.56635 0.80319 0.23958 0.0
C604 C 0.56358 0.82613 0.22127 0.0
C605 C 0.54179 0.82667 0.20116 0.0
C606 C 0.52263 0.80409 0.20004 0.0
C607 C 0.52548 0.78124 0.2182 0.0
P608 P 0.26381 0.56258 0.26004 0.0
H609 H 0.26411 0.57055 0.32138 0.0
H610 H 0.23178 0.55335 0.35771 0.0
H611 H 0.19624 0.49448 0.2981 0.0
H612 H 0.22903 0.51147 0.26186 0.0
H613 H 0.31783 0.58898 0.24677 0.0
H614 H 0.35718 0.57448 0.21703 0.0
H615 H 0.31957 0.49229 0.2075 0.0
H616 H 0.28028 0.50672 0.23831 0.0
H617 H 0.20607 0.58283 0.26279 0.0
H618 H 0.26039 0.54552 0.19988 0.0
O619 O 0.26957 0.59536 0.27131 0.0
H620 H 0.16564 0.57693 0.23128 0.0
H621 H 0.22034 0.53799 0.16941 0.0
C622 C 0.2488 0.54256 0.2888 0.0
C623 C 0.25013 0.55323 0.31635 0.0
C624 C 0.2315 0.54345 0.33711 0.0
C625 C 0.21107 0.52296 0.33056 0.0
C626 C 0.21142 0.51062 0.30359 0.0
C627 C 0.2304 0.52011 0.28298 0.0
C628 C 0.29608 0.54892 0.2449 0.0
C629 C 0.31837 0.56752 0.23916 0.0
C630 C 0.3409 0.55923 0.22202 0.0
C631 C 0.34133 0.53233 0.20976 0.0
C632 C 0.31967 0.5132 0.21658 0.0
C633 C 0.2974 0.52132 0.23439 0.0
C634 C 0.23622 0.56422 0.23399 0.0
C635 C 0.20938 0.57372 0.24208 0.0
C636 C 0.18623 0.56996 0.22423 0.0
C637 C 0.1896 0.5566 0.19796 0.0
C638 C 0.21687 0.54856 0.18936 0.0
C639 C 0.23996 0.55258 0.20708 0.0
P640 P 0.75377 0.75934 0.45817 0.0
H641 H 0.76599 0.70341 0.4367 0.0
H642 H 0.80044 0.6686 0.45111 0.0
H643 H 0.81369 0.71363 0.52922 0.0
H644 H 0.77877 0.74885 0.51438 0.0
H645 H 0.69206 0.76366 0.4578 0.0
H646 H 0.66074 0.80117 0.47377 0.0
H647 H 0.72997 0.83978 0.51857 0.0
H648 H 0.76123 0.80187 0.50277 0.0
H649 H 0.81616 0.75659 0.46311 0.0
H650 H 0.75366 0.81488 0.43197 0.0
O651 O 0.73777 0.74955 0.42836 0.0
H652 H 0.85071 0.7935 0.46433 0.0
H653 H 0.78931 0.85204 0.43084 0.0
C654 C 0.7694 0.72866 0.47456 0.0
C655 C 0.77527 0.70528 0.45749 0.0
C656 C 0.79526 0.68533 0.46575 0.0
C657 C 0.81017 0.68838 0.49123 0.0
C658 C 0.80284 0.7108 0.5093 0.0
C659 C 0.78247 0.73068 0.5011 0.0
C660 C 0.7291 0.77999 0.47883 0.0
C661 C 0.70034 0.77958 0.47189 0.0
C662 C 0.68242 0.8012 0.48097 0.0
C663 C 0.69296 0.82381 0.49702 0.0
C664 C 0.7213 0.82295 0.50583 0.0
C665 C 0.73911 0.80105 0.49708 0.0
C666 C 0.7818 0.78324 0.44878 0.0
C667 C 0.80983 0.7772 0.45595 0.0
C668 C 0.83 0.79849 0.45613 0.0
C669 C 0.82272 0.82612 0.4484 0.0
C670 C 0.79542 0.83124 0.43788 0.0
C671 C 0.77509 0.80993 0.43817 0.0
P672 P 0.75875 0.25292 0.45392 0.0
H673 H 0.69793 0.24789 0.44459 0.0
H674 H 0.66419 0.21243 0.46004 0.0
H675 H 0.72469 0.18136 0.52069 0.0
H676 H 0.75865 0.21688 0.50468 0.0
H677 H 0.78329 0.29941 0.42335 0.0
H678 H 0.81383 0.33796 0.43807 0.0
H679 H 0.79628 0.31883 0.52537 0.0
H680 H 0.76587 0.27927 0.51046 0.0
H681 H 0.76464 0.19566 0.43311 0.0
H682 H 0.81801 0.2575 0.47341 0.0
O683 O 0.74773 0.25677 0.42066 0.0
H684 H 0.80311 0.1613 0.43579 0.0
H685 H 0.85587 0.22356 0.47616 0.0
C686 C 0.73098 0.235 0.47325 0.0
C687 C 0.7037 0.2341 0.46186 0.0
C688 C 0.68434 0.21362 0.47073 0.0
C689 C 0.69179 0.19353 0.49131 0.0
C690 C 0.71839 0.19602 0.50436 0.0
C691 C 0.73772 0.21666 0.49551 0.0
C692 C 0.77166 0.28676 0.46576 0.0
C693 C 0.78501 0.30401 0.44568 0.0
C694 C 0.8028 0.32587 0.45407 0.0
C695 C 0.80751 0.33119 0.48279 0.0
C696 C 0.79284 0.31515 0.50307 0.0
C697 C 0.77522 0.29281 0.49459 0.0
C698 C 0.78828 0.22916 0.45301 0.0
C699 C 0.78465 0.20197 0.44217 0.0
C700 C 0.80653 0.18236 0.44383 0.0
C701 C 0.83243 0.18983 0.45619 0.0
C702 C 0.83627 0.21735 0.46619 0.0
C703 C 0.81438 0.23681 0.46472 0.0
P704 P 0.25971 0.7526 0.45314 0.0
H705 H 0.31992 0.74973 0.43978 0.0
H706 H 0.35914 0.77971 0.45445 0.0
H707 H 0.30705 0.81518 0.52032 0.0
H708 H 0.26792 0.78504 0.50561 0.0
H709 H 0.22523 0.71587 0.41949 0.0
H710 H 0.19274 0.67829 0.43223 0.0
H711 H 0.22699 0.67697 0.51662 0.0
H712 H 0.25973 0.71527 0.50367 0.0
H713 H 0.2476 0.80908 0.43199 0.0
H714 H 0.21071 0.75065 0.49148 0.0
O715 O 0.26653 0.75411 0.41856 0.0
H716 H 0.20969 0.84278 0.4424 0.0
H717 H 0.17313 0.78368 0.50136 0.0
C718 C 0.29079 0.76534 0.47127 0.0
C719 C 0.3172 0.76319 0.45804 0.0
C720 C 0.33964 0.7805 0.4664 0.0
C721 C 0.33605 0.80038 0.48815 0.0
C722 C 0.31033 0.80059 0.50306 0.0
C723 C 0.28798 0.78308 0.49482 0.0
C724 C 0.24534 0.71812 0.46045 0.0
C725 C 0.22666 0.70686 0.44045 0.0
C726 C 0.20767 0.68566 0.44789 0.0
C727 C 0.20693 0.67508 0.47554 0.0
C728 C 0.22709 0.68479 0.49512 0.0
C729 C 0.24606 0.70638 0.48768 0.0
C730 C 0.23159 0.77699 0.46024 0.0
C731 C 0.23127 0.80336 0.44697 0.0
C732 C 0.20979 0.82259 0.45303 0.0
C733 C 0.18839 0.81554 0.47237 0.0
C734 C 0.18908 0.78934 0.48593 0.0
C735 C 0.21065 0.77037 0.48016 0.0
P736 P 0.2578 0.25886 0.55018 0.0
H737 H 0.31858 0.26316 0.56 0.0
H738 H 0.35717 0.23306 0.5443 0.0
H739 H 0.30236 0.19533 0.48213 0.0
H740 H 0.26384 0.2258 0.49771 0.0
H741 H 0.22223 0.29602 0.58209 0.0
H742 H 0.1859 0.32943 0.56834 0.0
H743 H 0.2123 0.32281 0.48137 0.0
H744 H 0.24899 0.28861 0.49534 0.0
H745 H 0.24937 0.20893 0.58563 0.0
H746 H 0.21169 0.24588 0.51146 0.0
O747 O 0.26787 0.26324 0.58368 0.0
H748 H 0.21614 0.16943 0.58262 0.0
H749 H 0.17922 0.20665 0.50799 0.0
C750 C 0.28807 0.2465 0.53044 0.0
C751 C 0.31506 0.24921 0.54227 0.0
C752 C 0.33716 0.23182 0.53333 0.0
C753 C 0.33266 0.21126 0.51241 0.0
C754 C 0.30633 0.21049 0.49873 0.0
C755 C 0.28432 0.22816 0.50748 0.0
C756 C 0.23874 0.29014 0.53985 0.0
C757 C 0.22104 0.3024 0.56015 0.0
C758 C 0.19998 0.32128 0.55226 0.0
C759 C 0.19611 0.32846 0.52379 0.0
C760 C 0.21496 0.31766 0.50349 0.0
C761 C 0.23605 0.29836 0.51146 0.0
C762 C 0.23243 0.23077 0.54931 0.0
C763 C 0.23376 0.20874 0.56895 0.0
C764 C 0.21499 0.18608 0.56703 0.0
C765 C 0.19485 0.18513 0.54526 0.0
C766 C 0.19396 0.20712 0.52545 0.0
C767 C 0.21257 0.22967 0.52745 0.0
C768 C 0.00766 0.93471 0.57819 0.0
C769 C 0.01991 0.93335 0.44068 0.0
C770 C 0.99958 0.06981 0.57654 0.0
C771 C 0.00968 0.0693 0.43849 0.0
C772 C 0.93581 0.06504 0.49874 0.0
C773 C 0.94613 0.92937 0.49646 0.0
C774 C 0.07129 0.07508 0.51571 0.0
C775 C 0.0818 0.93917 0.51017 0.0
C776 C 0.08218 0.0069 0.44455 0.0
C777 C 0.94674 0.99576 0.43369 0.0
C778 C 0.07003 0.00361 0.58219 0.0
C779 C 0.93515 0.99579 0.57118 0.0
Eu780 Eu 0.01233 0.94835 0.50899 0.0
O781 O 0.98777 0.97541 0.48204 0.0
O782 O 0.03345 0.97877 0.53505 0.0
Eu783 Eu 0.95492 0.99822 0.50357 0.0
Eu784 Eu 0.06204 0.0059 0.51226 0.0
O785 O 0.98253 0.97469 0.53106 0.0
O786 O 0.03729 0.97859 0.4858 0.0
Eu787 Eu 0.00384 1.00204 0.56007 0.0
Eu788 Eu 0.01317 1.00154 0.45519 0.0
O789 O 0.97906 0.02579 0.5305 0.0
O790 O 0.98401 0.02495 0.48092 0.0
O791 O 0.03398 0.029 0.48484 0.0
O792 O 0.02948 0.02875 0.53412 0.0
Eu793 Eu 0.00459 0.0556 0.50744 0.0
O794 O 0.01032 0.92498 0.55169 0.0
O795 O 0.01901 0.92487 0.46761 0.0
O796 O 1.00021 0.07924 0.54979 0.0
O797 O 0.00621 0.07859 0.46497 0.0
O798 O 0.92884 0.03784 0.49965 0.0
O799 O 0.93539 0.95529 0.4978 0.0
O800 O 0.08187 0.04904 0.51657 0.0
O801 O 0.08851 0.96643 0.51113 0.0
O802 O 0.05606 0.00418 0.43447 0.0
O803 O 0.97428 0.99705 0.42802 0.0
O804 O 0.04244 1.00335 0.58751 0.0
O805 O 0.96138 0.99843 0.58086 0.0
O806 O 0.04421 0.08172 0.51176 0.0
O807 O 0.96176 0.07562 0.50163 0.0
O808 O 0.05568 0.92858 0.51036 0.0
O809 O 0.9731 0.92242 0.50069 0.0
O810 O 0.01772 0.95997 0.43186 0.0
O811 O 0.01271 0.04247 0.43083 0.0
O812 O 0.00495 0.96176 0.58499 0.0
O813 O 1.00043 0.04278 0.58397 0.0
O814 O 0.92788 0.9955 0.54382 0.0
O815 O 0.93516 0.99673 0.45949 0.0
O816 O 0.08177 0.00468 0.55644 0.0
O817 O 0.08891 0.00829 0.47201 0.0
C818 C 0.51642 0.93326 0.07347 0.0
C819 C 0.50374 0.06955 0.07396 0.0
C820 C 0.50267 0.9324 0.93772 0.0
C821 C 0.50441 0.06926 0.93623 0.0
C822 C 0.57397 1.00278 0.93426 0.0
C823 C 0.57959 0.00479 0.07017 0.0
C824 C 0.43619 1.00049 0.94029 0.0
C825 C 0.44158 0.99388 0.0755 0.0
C826 C 0.4344 0.06467 0.00664 0.0
C827 C 0.57201 0.07376 0.00291 0.0
C828 C 0.4431 0.92955 0.00843 0.0
C829 C 0.58068 0.93813 1.00257 0.0
Eu830 Eu 0.50993 1.00153 0.05949 0.0
O831 O 0.53173 0.02834 0.02958 0.0
O832 O 0.48578 0.97494 0.03169 0.0
Eu833 Eu 0.56008 0.0049 0.00295 0.0
Eu834 Eu 0.45555 0.99821 0.00741 0.0
O835 O 0.53479 0.97826 0.02939 0.0
O836 O 0.48248 0.02517 0.0318 0.0
Eu837 Eu 0.51105 0.94809 0.00532 0.0
Eu838 Eu 0.50413 0.05513 0.00518 0.0
O839 O 0.53321 0.97755 0.97863 0.0
O840 O 0.5295 0.02792 0.97893 0.0
O841 O 0.48068 0.02486 0.9808 0.0
O842 O 0.48373 0.97479 0.98101 0.0
Eu843 Eu 0.50564 1.001 0.9511 0.0
O844 O 0.51509 0.95986 0.08261 0.0
O845 O 0.50719 0.04303 0.08267 0.0
O846 O 0.50194 0.95898 0.92843 0.0
O847 O 0.50504 0.04245 0.92783 0.0
O848 O 0.58245 0.00535 0.96096 0.0
O849 O 0.58578 0.00548 0.04274 0.0
O850 O 0.42986 0.99826 0.9676 0.0
O851 O 0.43299 0.99449 0.04881 0.0
O852 O 0.46035 0.07581 0.00494 0.0
O853 O 0.54473 0.08102 0.00399 0.0
O854 O 0.47037 0.92211 0.00823 0.0
O855 O 0.55456 0.92735 0.00361 0.0
O856 O 0.46237 1.00189 0.92964 0.0
O857 O 0.54704 1.00068 0.92591 0.0
O858 O 0.46835 0.99648 0.08434 0.0
O859 O 0.5534 0.00383 0.08096 0.0
O860 O 0.50201 0.07817 0.04712 0.0
O861 O 0.50369 0.07818 0.96303 0.0
O862 O 0.51498 0.92501 0.0466 0.0
O863 O 0.50706 0.92435 0.96435 0.0
O864 O 0.58688 0.96552 1.00205 0.0
O865 O 0.58178 0.04744 1.00242 0.0
O866 O 0.43368 0.95596 0.0076 0.0
O867 O 0.42874 0.03728 0.00863 0.0
C868 C 0.00925 0.43765 0.08668 0.0
C869 C 0.0058 0.43024 0.94998 0.0
C870 C 0.00933 0.57507 0.07897 0.0
C871 C 0.00555 0.56763 0.94192 0.0
C872 C 0.93975 0.57196 0.01193 0.0
C873 C 0.93858 0.43505 0.01963 0.0
C874 C 0.0766 0.57105 0.00933 0.0
C875 C 0.07565 0.43388 0.01614 0.0
C876 C 0.07441 0.49691 0.94446 0.0
C877 C 0.93744 0.49657 0.94848 0.0
C878 C 0.07838 0.51253 0.07947 0.0
C879 C 0.94183 0.51049 0.08453 0.0
Eu880 Eu 0.00733 0.44972 0.01758 0.0
O881 O 0.98212 0.47697 0.99162 0.0
O882 O 0.03381 0.47871 0.04065 0.0
Eu883 Eu 0.95453 0.50341 0.01599 0.0
Eu884 Eu 0.0609 0.5025 0.01277 0.0
O885 O 0.98308 0.47941 0.04201 0.0
O886 O 0.03165 0.47644 0.99009 0.0
Eu887 Eu 0.00955 0.50558 0.06817 0.0
Eu888 Eu 0.00631 0.49976 0.96062 0.0
O889 O 0.98411 0.52914 0.03869 0.0
O890 O 0.98212 0.52672 0.98826 0.0
O891 O 0.03237 0.52645 0.98671 0.0
O892 O 0.03315 0.52871 0.03699 0.0
Eu893 Eu 0.00808 0.55616 0.01115 0.0
O894 O 0.00808 0.42815 0.06019 0.0
O895 O 0.00634 0.42378 0.97745 0.0
O896 O 0.00914 0.58202 0.05159 0.0
O897 O 0.0074 0.57757 0.96825 0.0
O898 O 0.93106 0.54517 0.01312 0.0
O899 O 0.93046 0.46202 0.0195 0.0
O900 O 0.08502 0.54415 0.00978 0.0
O901 O 0.08444 0.46067 0.01545 0.0
O902 O 0.04748 0.49702 0.9361 0.0
O903 O 0.96396 0.49653 0.93891 0.0
O904 O 0.0521 0.51136 0.08975 0.0
O905 O 0.96866 0.50837 0.09276 0.0
O906 O 0.04976 0.57955 0.00968 0.0
O907 O 0.96669 0.58022 0.01126 0.0
O908 O 0.04869 0.42564 0.01672 0.0
O909 O 0.96538 0.42627 0.01894 0.0
O910 O 0.00561 0.45643 0.93946 0.0
O911 O 0.00457 0.54035 0.93483 0.0
O912 O 0.01024 0.46487 0.0941 0.0
O913 O 0.00926 0.54875 0.08908 0.0
O914 O 0.93247 0.50928 0.05798 0.0
O915 O 0.92968 0.4993 0.97545 0.0
O916 O 0.08571 0.5085 0.05263 0.0
O917 O 0.0833 0.49896 0.97106 0.0
C918 C 0.50771 0.44082 0.07112 0.0
C919 C 0.50432 0.57766 0.06962 0.0
C920 C 0.5029 0.43956 0.93332 0.0
C921 C 0.50062 0.57616 0.93174 0.0
C922 C 0.56925 0.51033 0.9294 0.0
C923 C 0.57432 0.51066 0.06765 0.0
C924 C 0.43269 0.50367 0.93558 0.0
C925 C 0.43763 0.50873 0.07279 0.0
C926 C 0.43298 0.57366 0.99647 0.0
C927 C 0.56957 0.57913 1.00246 0.0
C928 C 0.43766 0.43848 0.00398 0.0
C929 C 0.57475 0.44332 0.99741 0.0
Eu930 Eu 0.50542 0.50913 0.0549 0.0
O931 O 0.52836 0.53443 0.0249 0.0
O932 O 0.48045 0.48262 0.02787 0.0
Eu933 Eu 0.55707 0.51061 0.99911 0.0
Eu934 Eu 0.45067 0.50675 0.00366 0.0
O935 O 0.53057 0.48476 0.02573 0.0
O936 O 0.47847 0.53352 0.02754 0.0
Eu937 Eu 0.50571 0.45504 1.00201 0.0
Eu938 Eu 0.50182 0.5621 1.0008 0.0
O939 O 0.52855 0.48423 0.97559 0.0
O940 O 0.52704 0.53454 0.97479 0.0
O941 O 0.4771 0.53237 0.9772 0.0
O942 O 0.47893 0.4825 0.97781 0.0
Eu943 Eu 0.50158 0.50805 0.94793 0.0
O944 O 0.50673 0.46775 0.07928 0.0
O945 O 0.50574 0.55095 0.07841 0.0
O946 O 0.50178 0.46629 0.9246 0.0
O947 O 0.49952 0.54923 0.92373 0.0
O948 O 0.57928 0.51168 0.95586 0.0
O949 O 0.58214 0.51059 0.04042 0.0
O950 O 0.42548 0.50281 0.96291 0.0
O951 O 0.42814 0.50801 0.0462 0.0
O952 O 0.45928 0.58378 0.99764 0.0
O953 O 0.54253 0.58691 1.002 0.0
O954 O 0.46459 0.43029 1.00224 0.0
O955 O 0.54841 0.43336 0.9994 0.0
O956 O 0.45902 0.50632 0.92576 0.0
O957 O 0.54198 0.50874 0.92263 0.0
O958 O 0.46478 0.5091 0.08027 0.0
O959 O 0.54771 0.51032 0.07692 0.0
O960 O 0.50219 0.58591 0.04264 0.0
O961 O 0.50221 0.58513 0.9585 0.0
O962 O 0.50781 0.43202 0.04425 0.0
O963 O 0.50446 0.43125 0.96029 0.0
O964 O 0.58201 0.47042 0.99716 0.0
O965 O 0.57907 0.55274 1.00104 0.0
O966 O 0.42865 0.46497 0.00555 0.0
O967 O 0.42563 0.54671 0.9991 0.0
C968 C 0.01739 0.43853 0.56219 0.0
C969 C 1.00109 0.4402 0.4262 0.0
C970 C 0.99998 0.57426 0.56472 0.0
C971 C 1.003 0.5762 0.42818 0.0
C972 C 0.93134 0.57031 0.49725 0.0
C973 C 0.94022 0.43446 0.49731 0.0
C974 C 0.06945 0.57893 0.49404 0.0
C975 C 0.07746 0.44331 0.49127 0.0
C976 C 0.07145 0.51012 0.42492 0.0
C977 C 0.93394 0.50578 0.42964 0.0
C978 C 0.07668 0.5095 0.56079 0.0
C979 C 0.93918 0.50052 0.56698 0.0
Eu980 Eu 0.00796 0.4537 0.49459 0.0
O981 O 0.98073 0.48116 0.47112 0.0
O982 O 0.03172 0.48352 0.51902 0.0
Eu983 Eu 0.95169 0.50347 0.49779 0.0
Eu984 Eu 0.0575 0.51026 0.49343 0.0
O985 O 0.98236 0.47986 0.5217 0.0
O986 O 0.03054 0.4835 0.46865 0.0
Eu987 Eu 0.00714 0.50639 0.54935 0.0
Eu988 Eu 1.00317 0.50782 0.4419 0.0
O989 O 0.97945 0.53 0.52201 0.0
O990 O 0.97741 0.53066 0.47173 0.0
O991 O 0.02708 0.53403 0.46994 0.0
O992 O 0.02913 0.53363 0.52022 0.0
Eu993 Eu 1.00125 0.56051 0.49624 0.0
O994 O 0.01503 0.43021 0.53539 0.0
O995 O 0.00364 0.43108 0.45276 0.0
O996 O 0.99949 0.5831 0.53799 0.0
O997 O 1.00038 0.58451 0.45497 0.0
O998 O 0.92532 0.54291 0.49837 0.0
O999 O 0.9302 0.46071 0.49775 0.0
O1000 O 0.0791 0.5526 0.49356 0.0
O1001 O 0.08394 0.47064 0.49178 0.0
O1002 O 0.04446 0.50818 0.41677 0.0
O1003 O 0.96045 0.5081 0.42014 0.0
O1004 O 0.05036 0.5091 0.5713 0.0
O1005 O 0.96642 0.50092 0.5744 0.0
O1006 O 0.04215 0.58633 0.49498 0.0
O1007 O 0.95744 0.58127 0.49644 0.0
O1008 O 0.05126 0.43273 0.4917 0.0
O1009 O 0.9676 0.42752 0.49675 0.0
O1010 O 1.00134 0.46696 0.41775 0.0
O1011 O 0.0045 0.54966 0.41914 0.0
O1012 O 0.01437 0.46482 0.57168 0.0
O1013 O 1.00282 0.54757 0.5732 0.0
O1014 O 0.92948 0.50208 0.54051 0.0
O1015 O 0.92646 0.50335 0.45681 0.0
O1016 O 0.0831 0.50991 0.53339 0.0
O1017 O 0.08015 0.51179 0.4516 0.0
C1018 C 0.50188 0.93875 0.57328 0.0
C1019 C 0.50436 0.93772 0.43653 0.0
C1020 C 0.49907 0.07561 0.57272 0.0
C1021 C 0.50243 0.07516 0.43483 0.0
C1022 C 0.43165 0.07473 0.50251 0.0
C1023 C 0.43432 0.93753 0.50244 0.0
C1024 C 0.56812 0.07775 0.50425 0.0
C1025 C 0.57088 0.93987 0.50992 0.0
C1026 C 0.57243 1.00334 0.439 0.0
C1027 C 0.43519 1.00199 0.43472 0.0
C1028 C 0.56628 0.01671 0.57499 0.0
C1029 C 0.43101 0.99849 0.56992 0.0
Eu1030 Eu 0.5025 0.95411 0.50485 0.0
O1031 O 0.47798 0.9819 0.47893 0.0
O1032 O 0.52654 0.98266 0.53095 0.0
Eu1033 Eu 0.44828 0.00643 0.50286 0.0
Eu1034 Eu 0.55505 0.00845 0.50643 0.0
O1035 O 0.47616 0.98199 0.52867 0.0
O1036 O 0.52792 0.98277 0.48048 0.0
Eu1037 Eu 0.49941 0.00715 0.55798 0.0
Eu1038 Eu 0.50337 0.00661 0.45064 0.0
O1039 O 0.47462 0.03233 0.52919 0.0
O1040 O 0.47667 0.03162 0.47784 0.0
O1041 O 0.52688 0.0325 0.47986 0.0
O1042 O 0.52435 0.03225 0.52959 0.0
Eu1043 Eu 0.50009 0.06046 0.50387 0.0
O1044 O 0.50132 0.93039 0.54638 0.0
O1045 O 0.50412 0.92975 0.4636 0.0
O1046 O 0.50028 0.0843 0.54582 0.0
O1047 O 0.50088 0.08384 0.4617 0.0
O1048 O 0.42352 0.04772 0.50269 0.0
O1049 O 0.42536 0.96423 0.50171 0.0
O1050 O 0.57788 0.05123 0.50433 0.0
O1051 O 0.57956 0.96678 0.5105 0.0
O1052 O 0.54609 0.00385 0.42894 0.0
O1053 O 0.46214 1.00274 0.42628 0.0
O1054 O 0.53962 0.01243 0.58294 0.0
O1055 O 0.45725 1.00083 0.57992 0.0
O1056 O 0.5409 0.08488 0.50447 0.0
O1057 O 0.45838 0.08354 0.50281 0.0
O1058 O 0.54415 0.93154 0.50722 0.0
O1059 O 0.46133 0.92958 0.50369 0.0
O1060 O 0.50416 0.96445 0.42755 0.0
O1061 O 0.50365 0.04822 0.42661 0.0
O1062 O 0.50215 0.96558 0.58187 0.0
O1063 O 0.49725 0.0488 0.58113 0.0
O1064 O 0.42344 1.00148 0.54301 0.0
O1065 O 0.4262 0.00415 0.46125 0.0
O1066 O 0.57615 0.01585 0.54859 0.0
O1067 O 0.57976 0.00536 0.46607 0.0
H1068 H 0.13921 0.18773 0.53281 0.0
H1069 H 0.20591 0.12896 0.55179 0.0
H1070 H 0.17343 0.0896 0.5445 0.0
H1071 H 0.1266 0.07209 0.53124 0.0
H1072 H 0.06047 0.13138 0.51093 0.0
H1073 H 0.09257 0.17035 0.51969 0.0
C1074 C 0.14671 0.1663 0.53517 0.0
C1075 C 0.17493 0.16125 0.54265 0.0
C1076 C 0.12815 0.14389 0.53045 0.0
C1077 C 0.18419 0.1334 0.54628 0.0
C1078 C 0.16571 0.1109 0.54188 0.0
C1079 C 0.11917 0.0935 0.52857 0.0
C1080 C 0.09113 0.09867 0.52029 0.0
C1081 C 0.13772 0.11592 0.53368 0.0
C1082 C 0.08191 0.12664 0.51723 0.0
C1083 C 0.10024 0.14902 0.52228 0.0
H1084 H 0.82635 0.1368 0.47625 0.0
H1085 H 0.88879 0.19584 0.44614 0.0
H1086 H 0.92638 0.16251 0.45736 0.0
H1087 H 0.94138 0.11727 0.47664 0.0
H1088 H 0.87902 0.05771 0.50613 0.0
H1089 H 0.84136 0.09067 0.49409 0.0
C1090 C 0.84816 0.14215 0.47173 0.0
C1091 C 0.85486 0.16868 0.46042 0.0
C1092 C 0.8696 0.12299 0.47836 0.0
C1093 C 0.88321 0.17558 0.45507 0.0
C1094 C 0.90466 0.15658 0.46146 0.0
C1095 C 0.91958 0.11154 0.48067 0.0
C1096 C 0.91302 0.08521 0.49253 0.0
C1097 C 0.8981 0.13039 0.47344 0.0
C1098 C 0.88462 0.07791 0.49709 0.0
C1099 C 0.86309 0.09671 0.49019 0.0
H1100 H 0.88037 0.82628 0.44521 0.0
H1101 H 0.80927 0.87902 0.46688 0.0
H1102 H 0.8412 0.91546 0.48345 0.0
H1103 H 0.8889 0.93123 0.49467 0.0
H1104 H 0.95992 0.87716 0.47652 0.0
H1105 H 0.92812 0.84174 0.45715 0.0
C1106 C 0.87176 0.84563 0.45372 0.0
C1107 C 0.84235 0.84969 0.45475 0.0
C1108 C 0.89015 0.86601 0.46457 0.0
C1109 C 0.83175 0.87534 0.4652 0.0
C1110 C 0.85 0.8961 0.47516 0.0
C1111 C 0.89749 0.91167 0.4866 0.0
C1112 C 0.92675 0.90685 0.48723 0.0
C1113 C 0.87917 0.89142 0.47544 0.0
C1114 C 0.93744 0.88132 0.47668 0.0
C1115 C 0.91931 0.86115 0.46532 0.0
H1116 H 0.1932 0.87051 0.48662 0.0
H1117 H 0.13218 0.80455 0.47278 0.0
H1118 H 0.09382 0.8367 0.48488 0.0
H1119 H 0.0778 0.88338 0.49859 0.0
H1120 H 0.13864 0.9498 0.51242 0.0
H1121 H 0.17699 0.91744 0.50136 0.0
C1122 C 0.17146 0.86334 0.48609 0.0
C1123 C 0.16538 0.83538 0.47877 0.0
C1124 C 0.14959 0.88184 0.49328 0.0
C1125 C 0.13725 0.82605 0.4785 0.0
C1126 C 0.11537 0.84437 0.4854 0.0
C1127 C 0.09942 0.89083 0.49953 0.0
C1128 C 0.10523 0.91903 0.50637 0.0
C1129 C 0.12133 0.87227 0.49287 0.0
C1130 C 0.13347 0.92821 0.50724 0.0
C1131 C 0.15545 0.90976 0.50081 0.0
H1132 H 0.49787 0.14673 0.18187 0.0
H1133 H 0.44665 0.19692 0.12584 0.0
H1134 H 0.45474 0.16332 0.08769 0.0
H1135 H 0.47554 0.11915 0.07054 0.0
H1136 H 0.52467 0.06791 0.12748 0.0
H1137 H 0.51788 0.10234 0.16511 0.0
C1138 C 0.48813 0.15017 0.16144 0.0
C1139 C 0.47165 0.17432 0.15679 0.0
C1140 C 0.49253 0.13059 0.13974 0.0
C1141 C 0.45972 0.17869 0.12995 0.0
C1142 C 0.46422 0.15942 0.10814 0.0
C1143 C 0.48498 0.11567 0.09111 0.0
C1144 C 0.50068 0.09109 0.0962 0.0
C1145 C 0.4806 0.13531 0.1128 0.0
C1146 C 0.51241 0.08663 0.12307 0.0
C1147 C 0.50856 0.1063 0.14459 0.0
H1148 H 0.86366 0.52597 0.19093 0.0
H1149 H 0.8196 0.58033 0.13265 0.0
H1150 H 0.85349 0.5687 0.09563 0.0
H1151 H 0.89553 0.54308 0.07979 0.0
H1152 H 0.94156 0.49151 0.13887 0.0
H1153 H 0.90711 0.50241 0.17586 0.0
C1154 C 0.8617 0.53573 0.17031 0.0
C1155 C 0.83898 0.55392 0.16463 0.0
C1156 C 0.88151 0.52933 0.14926 0.0
C1157 C 0.83657 0.56589 0.13755 0.0
C1158 C 0.85601 0.55935 0.11637 0.0
C1159 C 0.89783 0.53404 0.10072 0.0
C1160 C 0.92073 0.51625 0.10661 0.0
C1161 C 0.8784 0.54093 0.12195 0.0
C1162 C 0.92397 0.50519 0.13391 0.0
C1163 C 0.90433 0.51143 0.15501 0.0
H1164 H 0.53079 0.82296 0.14545 0.0
H1165 H 0.54686 0.8833 0.21152 0.0
H1166 H 0.54045 0.92195 0.17785 0.0
H1167 H 0.52925 0.93835 0.12965 0.0
H1168 H 0.51219 0.8768 0.06457 0.0
H1169 H 0.51951 0.83897 0.09809 0.0
C1170 C 0.53262 0.84458 0.15259 0.0
C1171 C 0.53904 0.85028 0.18093 0.0
C1172 C 0.52856 0.8665 0.13334 0.0
C1173 C 0.54208 0.87838 0.18971 0.0
C1174 C 0.53823 0.90046 0.17054 0.0
C1175 C 0.52699 0.91668 0.12284 0.0
C1176 C 0.52015 0.91059 0.09456 0.0
C1177 C 0.53127 0.89475 0.1423 0.0
C1178 C 0.51752 0.8823 0.08611 0.0
C1179 C 0.5217 0.86053 0.10527 0.0
H1180 H 0.18646 0.55862 0.1408 0.0
H1181 H 0.13701 0.53874 0.21483 0.0
H1182 H 0.0978 0.52381 0.1849 0.0
H1183 H 0.07839 0.51432 0.13741 0.0
H1184 H 0.13029 0.53154 0.06415 0.0
H1185 H 0.16789 0.54854 0.09419 0.0
C1186 C 0.16725 0.55076 0.15049 0.0
C1187 C 0.16485 0.54969 0.18002 0.0
C1188 C 0.14527 0.54126 0.13327 0.0
C1189 C 0.1394 0.54017 0.19213 0.0
C1190 C 0.11704 0.53131 0.17503 0.0
C1191 C 0.09797 0.52167 0.12806 0.0
C1192 C 0.10146 0.52129 0.09855 0.0
C1193 C 0.11988 0.5314 0.14553 0.0
C1194 C 0.12699 0.53105 0.0868 0.0
C1195 C 0.14856 0.54106 0.10394 0.0
H1196 H 0.4628 0.82605 0.86971 0.0
H1197 H 0.48439 0.87935 0.79897 0.0
H1198 H 0.49747 0.91712 0.83134 0.0
H1199 H 0.50397 0.93458 0.87997 0.0
H1200 H 0.48517 0.8793 0.95009 0.0
H1201 H 0.47089 0.84249 0.9176 0.0
C1202 C 0.47076 0.84573 0.86125 0.0
C1203 C 0.47263 0.84969 0.83188 0.0
C1204 C 0.47914 0.86698 0.8799 0.0
C1205 C 0.48226 0.87575 0.82146 0.0
C1206 C 0.49005 0.89731 0.83997 0.0
C1207 C 0.49688 0.91444 0.88812 0.0
C1208 C 0.49587 0.90975 0.91744 0.0
C1209 C 0.48875 0.89309 0.86926 0.0
C1210 C 0.4866 0.88348 0.92763 0.0
C1211 C 0.47819 0.86239 0.90908 0.0
H1212 H 0.18342 0.48165 0.87039 0.0
H1213 H 0.12167 0.45993 0.80713 0.0
H1214 H 0.08366 0.46756 0.84136 0.0
H1215 H 0.06818 0.48116 0.88922 0.0
H1216 H 0.13095 0.50451 0.9512 0.0
H1217 H 0.16825 0.49619 0.91712 0.0
C1218 C 0.16164 0.4789 0.86392 0.0
C1219 C 0.15539 0.47042 0.83623 0.0
C1220 C 0.14003 0.48384 0.8834 0.0
C1221 C 0.12707 0.46621 0.82844 0.0
C1222 C 0.10533 0.4708 0.84791 0.0
C1223 C 0.08999 0.48465 0.89521 0.0
C1224 C 0.09663 0.4934 0.92281 0.0
C1225 C 0.11158 0.47979 0.87544 0.0
C1226 C 0.12508 0.49763 0.93021 0.0
C1227 C 0.14653 0.49287 0.91073 0.0
H1228 H 0.51403 0.14231 0.8257 0.0
H1229 H 0.53647 0.2063 0.88632 0.0
H1230 H 0.5293 0.17282 0.92491 0.0
H1231 H 0.51764 0.12501 0.94125 0.0
H1232 H 0.49456 0.06163 0.88002 0.0
H1233 H 0.5004 0.09553 0.84198 0.0
C1234 C 0.51694 0.14912 0.84736 0.0
C1235 C 0.52579 0.17678 0.85306 0.0
C1236 C 0.51258 0.1299 0.86939 0.0
C1237 C 0.53002 0.18502 0.88128 0.0
C1238 C 0.52575 0.16595 0.90338 0.0
C1239 C 0.51355 0.11868 0.91963 0.0
C1240 C 0.50577 0.09073 0.9136 0.0
C1241 C 0.51715 0.13827 0.89767 0.0
C1242 C 0.50079 0.08291 0.88538 0.0
C1243 C 0.50411 0.10228 0.86352 0.0
H1244 H 0.82825 0.47817 0.87453 0.0
H1245 H 0.89126 0.46601 0.80982 0.0
H1246 H 0.92871 0.47454 0.84422 0.0
H1247 H 0.94336 0.48552 0.89238 0.0
H1248 H 0.88028 0.49767 0.95732 0.0
H1249 H 0.84302 0.48896 0.923 0.0
C1250 C 0.8502 0.47707 0.86808 0.0
C1251 C 0.85705 0.47141 0.83977 0.0
C1252 C 0.87156 0.48213 0.8879 0.0
C1253 C 0.88552 0.47053 0.83151 0.0
C1254 C 0.90691 0.47535 0.85114 0.0
C1255 C 0.9215 0.48642 0.89912 0.0
C1256 C 0.91475 0.49233 0.92746 0.0
C1257 C 0.90014 0.4813 0.87935 0.0
C1258 C 0.88621 0.49321 0.93567 0.0
C1259 C 0.86482 0.48818 0.91607 0.0
H1260 H 0.64341 0.68743 0.02273 0.0
H1261 H 0.70527 0.62448 0.04453 0.0
H1262 H 0.67127 0.58724 0.03396 0.0
H1263 H 0.62419 0.57278 0.01854 0.0
H1264 H 0.56243 0.63591 0.99644 0.0
H1265 H 0.59658 0.67297 0.00657 0.0
C1266 C 0.64955 0.66555 0.0249 0.0
C1267 C 0.67681 0.6587 0.03432 0.0
C1268 C 0.63005 0.64434 0.01854 0.0
C1269 C 0.68429 0.63028 0.0376 0.0
C1270 C 0.66495 0.60901 0.03135 0.0
C1271 C 0.61823 0.59461 0.01559 0.0
C1272 C 0.5908 0.60152 0.0066 0.0
C1273 C 0.63782 0.61582 0.02174 0.0
C1274 C 0.58338 0.62997 0.00333 0.0
C1275 C 0.60287 0.65119 0.00916 0.0
H1276 H 0.32602 0.64023 0.95562 0.0
H1277 H 0.37648 0.7109 0.98288 0.0
H1278 H 0.415 0.67917 0.99508 0.0
H1279 H 0.43353 0.63103 1.00014 0.0
H1280 H 0.38094 0.56064 0.97613 0.0
H1281 H 0.34375 0.59263 0.9617 0.0
C1282 C 0.34528 0.64878 0.96452 0.0
C1283 C 0.34818 0.67795 0.96837 0.0
C1284 C 0.36687 0.63041 0.97258 0.0
C1285 C 0.37371 0.68858 0.97921 0.0
C1286 C 0.39568 0.67042 0.98655 0.0
C1287 C 0.41389 0.62271 0.99185 0.0
C1288 C 0.41003 0.59347 0.98948 0.0
C1289 C 0.39234 0.64125 0.98367 0.0
C1290 C 0.38443 0.58303 0.97865 0.0
C1291 C 0.36315 0.60131 0.97013 0.0
H1292 H 0.32675 0.36716 0.99575 0.0
H1293 H 0.38384 0.30702 0.95835 0.0
H1294 H 0.42333 0.33939 0.96582 0.0
H1295 H 0.44137 0.38516 0.98275 0.0
H1296 H 0.3835 0.44364 0.0219 0.0
H1297 H 0.34476 0.41092 0.01487 0.0
C1298 C 0.34787 0.36083 0.98962 0.0
C1299 C 0.35229 0.33466 0.97661 0.0
C1300 C 0.37042 0.37912 0.99456 0.0
C1301 C 0.37975 0.32722 0.9681 0.0
C1302 C 0.40239 0.34559 0.97261 0.0
C1303 C 0.42037 0.39052 0.99013 0.0
C1304 C 0.41535 0.41687 1.00268 0.0
C1305 C 0.39796 0.37162 0.98587 0.0
C1306 C 0.38795 0.42362 0.01192 0.0
C1307 C 0.36572 0.40495 0.00789 0.0
H1308 H 0.68649 0.37366 0.97964 0.0
H1309 H 0.62881 0.30432 0.99108 0.0
H1310 H 0.5897 0.33727 0.99774 0.0
H1311 H 0.57199 0.38585 0.99978 0.0
H1312 H 0.63048 0.45488 0.98824 0.0
H1313 H 0.66902 0.42191 0.98204 0.0
C1314 C 0.6653 0.36578 0.98333 0.0
C1315 C 0.66046 0.33669 0.98472 0.0
C1316 C 0.64305 0.38476 0.98718 0.0
C1317 C 0.63303 0.32671 0.99008 0.0
C1318 C 0.61068 0.3455 0.9938 0.0
C1319 C 0.59315 0.39372 0.99595 0.0
C1320 C 0.59814 0.42288 0.9945 0.0
C1321 C 0.61545 0.37461 0.99236 0.0
C1322 C 0.62582 0.4326 0.98958 0.0
C1323 C 0.648 0.41375 0.98594 0.0
H1324 H 0.97743 0.68014 0.64137 0.0
H1325 H 0.9706 0.61583 0.70533 0.0
H1326 H 0.98089 0.57955 0.67012 0.0
H1327 H 0.99151 0.56634 0.62117 0.0
H1328 H 0.99843 0.63127 0.55747 0.0
H1329 H 0.98837 0.66705 0.59269 0.0
C1330 C 0.97783 0.65813 0.64749 0.0
C1331 C 0.97304 0.65056 0.67573 0.0
C1332 C 0.98394 0.63755 0.62728 0.0
C1333 C 0.97425 0.62208 0.68362 0.0
C1334 C 0.98013 0.60138 0.66354 0.0
C1335 C 0.99103 0.58831 0.61497 0.0
C1336 C 0.99572 0.59598 0.58665 0.0
C1337 C 0.98509 0.60891 0.63532 0.0
C1338 C 0.99486 0.62462 0.57907 0.0
C1339 C 0.98905 0.64518 0.59918 0.0
H1340 H 0.3275 0.94614 0.63425 0.0
H1341 H 0.37931 0.96597 0.70655 0.0
H1342 H 0.41652 0.98319 0.67535 0.0
H1343 H 0.43317 0.99529 0.62756 0.0
H1344 H 0.37874 0.97907 0.55612 0.0
H1345 H 0.34329 0.95915 0.58722 0.0
C1346 C 0.34678 0.95446 0.64331 0.0
C1347 C 0.35038 0.95487 0.67275 0.0
C1348 C 0.36745 0.96565 0.62543 0.0
C1349 C 0.37599 0.96494 0.68395 0.0
C1350 C 0.39717 0.97522 0.66614 0.0
C1351 C 0.41348 0.98761 0.61882 0.0
C1352 C 0.40867 0.98898 0.58954 0.0
C1353 C 0.3929 0.97617 0.63686 0.0
C1354 C 0.38301 0.97875 0.57859 0.0
C1355 C 0.36272 0.96705 0.59632 0.0
H1356 H 0.06402 0.3374 0.6338 0.0
H1357 H 0.02343 0.38393 0.70088 0.0
H1358 H 0.01104 0.42105 0.66771 0.0
H1359 H 0.00885 0.43889 0.61904 0.0
H1360 H 0.04537 0.38978 0.55155 0.0
H1361 H 0.06119 0.35461 0.58538 0.0
C1362 C 0.05223 0.35548 0.64123 0.0
C1363 C 0.04464 0.35763 0.66987 0.0
C1364 C 0.04394 0.37612 0.62185 0.0
C1365 C 0.03005 0.38176 0.6791 0.0
C1366 C 0.02258 0.4029 0.66006 0.0
C1367 C 0.02026 0.42048 0.61177 0.0
C1368 C 0.02576 0.41688 0.58283 0.0
C1369 C 0.02897 0.40006 0.6313 0.0
C1370 C 0.04052 0.39289 0.57369 0.0
C1371 C 0.04976 0.37283 0.59303 0.0
H1372 H 0.63815 0.04555 0.68237 0.0
H1373 H 0.68024 0.09993 0.62254 0.0
H1374 H 0.64819 0.0841 0.58529 0.0
H1375 H 0.6094 0.05349 0.56961 0.0
H1376 H 0.56647 1.00061 0.63015 0.0
H1377 H 0.5978 0.01736 0.66754 0.0
C1378 C 0.6399 0.05458 0.6614 0.0
C1379 C 0.6615 0.074 0.65528 0.0
C1380 C 0.62161 0.0453 0.6402 0.0
C1381 C 0.66387 0.08486 0.62775 0.0
C1382 C 0.64563 0.07576 0.60646 0.0
C1383 C 0.60716 0.04541 0.59094 0.0
C1384 C 0.5861 0.02547 0.59714 0.0
C1385 C 0.62479 0.05559 0.61237 0.0
C1386 C 0.58277 0.01577 0.62494 0.0
C1387 C 0.60056 0.02541 0.64628 0.0
H1388 H 0.97886 0.36404 0.32 0.0
H1389 H 0.92994 0.31786 0.38157 0.0
H1390 H 0.94399 0.35112 0.41827 0.0
H1391 H 0.97039 0.39301 0.43278 0.0
H1392 H 0.01701 0.4408 0.37085 0.0
H1393 H 0.00359 0.4071 0.33413 0.0
C1394 C 0.97083 0.36153 0.34132 0.0
C1395 C 0.9534 0.33851 0.34805 0.0
C1396 C 0.97886 0.38076 0.36223 0.0
C1397 C 0.94362 0.33526 0.37592 0.0
C1398 C 0.95163 0.35424 0.3969 0.0
C1399 C 0.9779 0.3958 0.41132 0.0
C1400 C 0.99497 0.41898 0.4045 0.0
C1401 C 0.96947 0.37686 0.39032 0.0
C1402 C 0.00399 0.4229 0.37652 0.0
C1403 C 0.99625 0.40375 0.35557 0.0
H1404 H 0.68525 0.97814 0.37456 0.0
H1405 H 0.62719 0.95428 0.3086 0.0
H1406 H 0.58728 0.96585 0.33935 0.0
H1407 H 0.56916 0.98407 0.3847 0.0
H1408 H 0.6285 0.0107 0.4487 0.0
H1409 H 0.66764 0.99775 0.41835 0.0
C1410 C 0.66389 0.97576 0.36669 0.0
C1411 C 0.65925 0.9656 0.33925 0.0
C1412 C 0.64126 0.98338 0.38395 0.0
C1413 C 0.63138 0.96181 0.32976 0.0
C1414 C 0.60856 0.96874 0.3472 0.0
C1415 C 0.59064 0.9874 0.39185 0.0
C1416 C 0.59579 0.99831 0.41899 0.0
C1417 C 0.61329 0.97987 0.37424 0.0
C1418 C 0.62381 1.00221 0.428 0.0
C1419 C 0.64629 0.99474 0.41071 0.0
H1420 H 0.01453 0.68453 0.35288 0.0
H1421 H 0.07687 0.63227 0.31186 0.0
H1422 H 0.06446 0.59315 0.34287 0.0
H1423 H 0.03742 0.57443 0.3829 0.0
H1424 H 0.97842 0.62798 0.42677 0.0
H1425 H 0.9883 0.66622 0.3935 0.0
C1426 C 0.02574 0.66475 0.35092 0.0
C1427 C 0.04666 0.66146 0.33003 0.0
C1428 C 0.01905 0.64259 0.36928 0.0
C1429 C 0.06041 0.63536 0.32745 0.0
C1430 C 0.05345 0.613 0.34528 0.0
C1431 C 0.02643 0.59436 0.38488 0.0
C1432 C 0.007 0.59842 0.40694 0.0
C1433 C 0.03289 0.61642 0.36632 0.0
C1434 C 0.99338 0.62446 0.4098 0.0
C1435 C 0.99907 0.64628 0.39087 0.0
H1436 H 0.32701 0.9723 0.36417 0.0
H1437 H 0.38876 0.96163 0.29822 0.0
H1438 H 0.42673 0.97396 0.33124 0.0
H1439 H 0.44178 0.98876 0.37882 0.0
H1440 H 0.37835 1.0019 0.44335 0.0
H1441 H 0.34166 0.98792 0.41079 0.0
C1442 C 0.34887 0.97219 0.35726 0.0
C1443 C 0.35538 0.96563 0.32923 0.0
C1444 C 0.37019 0.98018 0.37593 0.0
C1445 C 0.38355 0.96631 0.32001 0.0
C1446 C 0.40512 0.97353 0.33876 0.0
C1447 C 0.41993 0.98884 0.38568 0.0
C1448 C 0.41303 0.99633 0.41357 0.0
C1449 C 0.39862 0.98083 0.36674 0.0
C1450 C 0.38451 0.9962 0.42207 0.0
C1451 C 0.36337 0.98809 0.4035 0.0
H1452 H 0.01618 0.13862 0.32457 0.0
H1453 H 0.94749 0.18278 0.36442 0.0
H1454 H 0.95335 0.15468 0.40733 0.0
H1455 H 0.97628 0.11556 0.43267 0.0
H1456 H 0.04244 0.0688 0.3914 0.0
H1457 H 0.0396 0.0998 0.35026 0.0
C1458 C 1.00274 0.14215 0.34279 0.0
C1459 C 0.98141 0.16262 0.34139 0.0
C1460 C 0.00578 0.12539 0.36719 0.0
C1461 C 0.96393 0.16695 0.36501 0.0
C1462 C 0.9673 0.15094 0.38956 0.0
C1463 C 0.99034 0.1125 0.41484 0.0
C1464 C 0.00963 0.09006 0.41512 0.0
C1465 C 0.98793 0.12984 0.3908 0.0
C1466 C 0.02738 0.08596 0.39164 0.0
C1467 C 0.02575 0.10365 0.36808 0.0
H1468 H 0.8848 0.96483 0.31987 0.0
H1469 H 0.82052 0.01834 0.35533 0.0
H1470 H 0.85001 0.02677 0.39697 0.0
H1471 H 0.89374 0.01724 0.42433 0.0
H1472 H 0.95821 0.9649 0.38722 0.0
H1473 H 0.92898 0.95739 0.34562 0.0
C1474 C 0.87734 0.97848 0.33664 0.0
C1475 C 0.85051 0.9909 0.3345 0.0
C1476 C 0.89436 0.98317 0.36048 0.0
C1477 C 0.84123 0.00877 0.3563 0.0
C1478 C 0.85799 0.01337 0.38025 0.0
C1479 C 0.90125 0.00415 0.40713 0.0
C1480 C 0.92806 0.99153 0.40895 0.0
C1481 C 0.88448 1.00037 0.38278 0.0
C1482 C 0.93771 0.97493 0.38633 0.0
C1483 C 0.92101 0.97061 0.3625 0.0
H1484 H 0.05453 0.8327 0.36041 0.0
H1485 H 0.00467 0.88006 0.30107 0.0
H1486 H 0.9944 0.91524 0.33762 0.0
H1487 H 1.00115 0.93328 0.38616 0.0
H1488 H 0.04893 0.88416 0.44599 0.0
H1489 H 0.05852 0.84897 0.40963 0.0
C1490 C 0.04136 0.85072 0.35556 0.0
C1491 C 0.03058 0.85399 0.32805 0.0
C1492 C 0.03529 0.87056 0.37675 0.0
C1493 C 0.01318 0.87714 0.3221 0.0
C1494 C 0.00743 0.89727 0.34295 0.0
C1495 C 0.01359 0.91483 0.39123 0.0
C1496 C 0.02444 0.91147 0.41875 0.0
C1497 C 0.01861 0.89435 0.37029 0.0
C1498 C 0.04023 0.88725 0.42506 0.0
C1499 C 0.04582 0.86714 0.40424 0.0
H1500 H 0.19056 0.99662 0.36645 0.0
H1501 H 0.12835 0.01361 0.30215 0.0
H1502 H 0.09203 0.01865 0.3384 0.0
H1503 H 0.07737 0.01612 0.38793 0.0
H1504 H 0.13918 0.99922 0.45267 0.0
H1505 H 0.17624 0.99687 0.41668 0.0
C1506 C 0.16917 1.00194 0.36035 0.0
C1507 C 0.16229 0.00457 0.33144 0.0
C1508 C 0.14825 0.00475 0.38139 0.0
C1509 C 0.13428 0.01105 0.32408 0.0
C1510 C 0.11347 0.01404 0.34485 0.0
C1511 C 0.09894 0.01198 0.39432 0.0
C1512 C 0.1053 0.00763 0.42312 0.0
C1513 C 0.12011 0.01049 0.37351 0.0
C1514 C 0.13354 1.00269 0.43078 0.0
C1515 C 0.15477 1.00123 0.41015 0.0
H1516 H 1.00222 0.87087 0.69558 0.0
H1517 H 0.00517 0.79794 0.64152 0.0
H1518 H 0.00931 0.82831 0.59998 0.0
H1519 H 0.00963 0.87619 0.57851 0.0
H1520 H 0.00571 0.94832 0.63407 0.0
H1521 H 0.00401 0.91779 0.67479 0.0
C1522 C 0.0037 0.86153 0.67474 0.0
C1523 C 0.00328 0.83206 0.6719 0.0
C1524 C 0.00565 0.8791 0.65085 0.0
C1525 C 0.00578 0.82051 0.64458 0.0
C1526 C 0.00789 0.83792 0.62068 0.0
C1527 C 0.00848 0.88523 0.5995 0.0
C1528 C 0.00756 0.91476 0.60273 0.0
C1529 C 0.00749 0.86735 0.62347 0.0
C1530 C 0.00623 0.92584 0.63038 0.0
C1531 C 0.0053 0.90834 0.654 0.0
H1532 H 0.1294 0.98021 0.69896 0.0
H1533 H 0.20147 0.01356 0.65445 0.0
H1534 H 0.17218 0.02228 0.61277 0.0
H1535 H 0.12626 0.01758 0.58791 0.0
H1536 H 0.05499 0.9834 0.63363 0.0
H1537 H 0.0838 0.97759 0.67542 0.0
C1538 C 0.13867 0.98951 0.68018 0.0
C1539 C 0.16756 0.99609 0.6798 0.0
C1540 C 0.12187 0.99405 0.65625 0.0
C1541 C 0.17919 0.00854 0.65542 0.0
C1542 C 0.1625 0.01326 0.63146 0.0
C1543 C 0.11709 0.00891 0.60703 0.0
C1544 C 0.08844 1.00099 0.60743 0.0
C1545 C 0.13386 0.00563 0.63143 0.0
C1546 C 0.07687 0.98996 0.63255 0.0
C1547 C 0.09335 0.98651 0.65661 0.0
H1548 H 0.00574 0.13559 0.69258 0.0
H1549 H 0.99869 0.20762 0.63774 0.0
H1550 H 0.99436 0.17653 0.59665 0.0
H1551 H 0.99543 0.12827 0.57588 0.0
H1552 H 1.00239 0.05717 0.63259 0.0
H1553 H 0.00409 0.08835 0.67269 0.0
C1554 C 1.00314 0.14453 0.67165 0.0
C1555 C 1.00268 0.17391 0.66834 0.0
C1556 C 1.00087 0.12658 0.64815 0.0
C1557 C 0.99887 0.18506 0.64103 0.0
C1558 C 0.99663 0.16726 0.61744 0.0
C1559 C 0.99715 0.1196 0.59699 0.0
C1560 C 0.99892 0.09015 0.60071 0.0
C1561 C 0.99803 0.13788 0.62064 0.0
C1562 C 1.00102 0.07955 0.62852 0.0
C1563 C 1.00202 0.09743 0.65178 0.0
H1564 H 0.86267 0.99277 0.68282 0.0
H1565 H 0.79703 0.01887 0.62567 0.0
H1566 H 0.82931 0.01373 0.58554 0.0
H1567 H 0.87787 0.00591 0.56723 0.0
H1568 H 0.94277 0.9797 0.62562 0.0
H1569 H 0.90928 0.98081 0.66431 0.0
C1570 C 0.85538 0.99708 0.66154 0.0
C1571 C 0.82759 0.00634 0.65729 0.0
C1572 C 0.87408 0.99434 0.63866 0.0
C1573 C 0.8183 0.01151 0.62953 0.0
C1574 C 0.83683 0.00878 0.60657 0.0
C1575 C 0.88454 1.00007 0.58834 0.0
C1576 C 0.91303 0.9933 0.5934 0.0
C1577 C 0.86501 1.00079 0.61092 0.0
C1578 C 0.9212 0.98564 0.62098 0.0
C1579 C 0.90201 0.98615 0.64328 0.0
H1580 H 0.3291 0.95519 0.13282 0.0
H1581 H 0.34398 0.0288 0.18409 0.0
H1582 H 0.38808 0.03767 0.15872 0.0
H1583 H 0.42303 0.02414 0.12157 0.0
H1584 H 0.40805 0.94887 0.07302 0.0
H1585 H 0.36434 0.94027 0.09872 0.0
C1586 C 0.34205 0.973 0.13889 0.0
C1587 C 0.33294 0.99117 0.16054 0.0
C1588 C 0.36791 0.97736 0.12504 0.0
C1589 C 0.34994 0.01461 0.16723 0.0
C1590 C 0.37549 0.01951 0.15299 0.0
C1591 C 0.41049 0.00553 0.11728 0.0
C1592 C 0.41889 0.98693 0.09574 0.0
C1593 C 0.38488 1.00087 0.13197 0.0
C1594 C 0.40212 0.96326 0.08977 0.0
C1595 C 0.37698 0.95848 0.10424 0.0
H1596 H 0.99527 0.35928 0.19444 0.0
H1597 H 0.00382 0.29502 0.13065 0.0
H1598 H 0.01132 0.33108 0.09464 0.0
H1599 H 0.01294 0.38063 0.08078 0.0
H1600 H 0.00386 0.4454 0.14411 0.0
H1601 H 0.99952 0.40934 0.18074 0.0
C1602 C 0.9993 0.35314 0.17275 0.0
C1603 C 0.99887 0.32438 0.1653 0.0
C1604 C 0.00334 0.37409 0.152 0.0
C1605 C 0.00372 0.31692 0.13697 0.0
C1606 C 0.00805 0.33756 0.11635 0.0
C1607 C 0.01013 0.38704 0.10258 0.0
C1608 C 0.00855 0.4159 0.10947 0.0
C1609 C 0.00742 0.3662 0.12353 0.0
C1610 C 0.00514 0.42348 0.138 0.0
C1611 C 1.00259 0.40281 0.15903 0.0
H1612 H 0.69758 0.99451 0.13137 0.0
H1613 H 0.64572 0.00437 0.20557 0.0
H1614 H 0.60379 0.00985 0.17593 0.0
H1615 H 0.58134 0.00917 0.1285 0.0
H1616 H 0.63471 0.99876 0.05502 0.0
H1617 H 0.67597 0.99593 0.08472 0.0
C1618 C 0.67712 0.99794 0.14107 0.0
C1619 C 0.67487 0.99894 0.17063 0.0
C1620 C 0.65309 1.00075 0.12397 0.0
C1621 C 0.64818 0.00382 0.18283 0.0
C1622 C 0.6241 0.00669 0.16588 0.0
C1623 C 0.60198 0.00638 0.119 0.0
C1624 C 0.60451 0.00413 0.08941 0.0
C1625 C 0.6262 0.00478 0.13635 0.0
C1626 C 0.63167 1.00065 0.07762 0.0
C1627 C 0.65555 0.99897 0.09462 0.0
H1628 H 0.01552 0.6592 0.18259 0.0
H1629 H 0.02513 0.71955 0.11519 0.0
H1630 H 0.01971 0.68201 0.08023 0.0
H1631 H 0.0144 0.63173 0.06885 0.0
H1632 H 0.00581 0.57139 0.13667 0.0
H1633 H 0.00849 0.60924 0.17123 0.0
C1634 C 0.01588 0.66425 0.16025 0.0
C1635 C 0.0206 0.69224 0.15157 0.0
C1636 C 0.01318 0.64248 0.14027 0.0
C1637 C 0.02163 0.69822 0.12248 0.0
C1638 C 0.01854 0.67674 0.10248 0.0
C1639 C 0.01295 0.62677 0.09117 0.0
C1640 C 0.01001 0.59851 0.09994 0.0
C1641 C 0.0147 0.64871 0.11112 0.0
C1642 C 0.00821 0.59277 0.12908 0.0
C1643 C 0.0097 0.61447 0.14897 0.0
H1644 H 0.31872 0.99931 0.87773 0.0
H1645 H 0.37254 0.99169 0.80462 0.0
H1646 H 0.41436 0.99596 0.83451 0.0
H1647 H 0.43572 0.99845 0.88212 0.0
H1648 H 0.38074 0.00525 0.9548 0.0
H1649 H 0.33971 0.0044 0.92447 0.0
C1650 C 0.3396 0.99869 0.86833 0.0
C1651 C 0.34245 0.99508 0.83904 0.0
C1652 C 0.36353 1.00068 0.88564 0.0
C1653 C 0.36969 0.99476 0.82711 0.0
C1654 C 0.39366 0.99693 0.84423 0.0
C1655 C 0.41479 0.99991 0.8913 0.0
C1656 C 0.4116 1.00149 0.92084 0.0
C1657 C 0.39086 0.99939 0.87364 0.0
C1658 C 0.38415 0.00357 0.93224 0.0
C1659 C 0.36047 1.00319 0.91489 0.0
H1660 H 0.01248 0.31518 0.88266 0.0
H1661 H 0.99873 0.37082 0.81196 0.0
H1662 H 0.99524 0.41088 0.84403 0.0
H1663 H 0.99842 0.43073 0.89221 0.0
H1664 H 0.01332 0.37458 0.96246 0.0
H1665 H 0.01444 0.33462 0.93056 0.0
C1666 C 0.00874 0.33605 0.8742 0.0
C1667 C 0.00589 0.33976 0.84481 0.0
C1668 C 0.00722 0.35917 0.89274 0.0
C1669 C 1.0006 0.36705 0.83444 0.0
C1670 C 0.99888 0.39013 0.85279 0.0
C1671 C 1.00189 0.40978 0.90059 0.0
C1672 C 0.00585 0.40599 0.92988 0.0
C1673 C 1.00252 0.38653 0.882 0.0
C1674 C 0.01014 0.37847 0.94015 0.0
C1675 C 0.01082 0.35542 0.92187 0.0
H1676 H 0.68669 0.00487 0.86295 0.0
H1677 H 0.62836 0.02054 0.79496 0.0
H1678 H 0.58855 0.01528 0.82753 0.0
H1679 H 0.57038 0.00942 0.8764 0.0
H1680 H 0.62994 0.99443 0.94382 0.0
H1681 H 0.66878 0.99651 0.91059 0.0
C1682 C 0.66527 0.00709 0.85523 0.0
C1683 C 0.66061 0.01324 0.82657 0.0
C1684 C 0.64252 0.00443 0.87411 0.0
C1685 C 0.63263 0.01555 0.81686 0.0
C1686 C 0.60981 0.01277 0.83555 0.0
C1687 C 0.59181 0.00639 0.88377 0.0
C1688 C 0.59699 1.0022 0.91278 0.0
C1689 C 0.61449 0.00766 0.86438 0.0
C1690 C 0.62506 0.99819 0.9218 0.0
C1691 C 0.64747 0.99926 0.90275 0.0
H1692 H 0.9776 0.64442 0.83644 0.0
H1693 H 0.02053 0.70649 0.88688 0.0
H1694 H 0.02989 0.67088 0.92335 0.0
H1695 H 0.02355 0.62247 0.9418 0.0
H1696 H 0.98198 0.56033 0.88989 0.0
H1697 H 0.97454 0.59549 0.85308 0.0
C1698 C 0.98915 0.65006 0.85539 0.0
C1699 C 0.99814 0.67806 0.85917 0.0
C1700 C 0.99459 0.62947 0.87601 0.0
C1701 C 0.01343 0.68507 0.88355 0.0
C1702 C 0.01864 0.66474 0.90441 0.0
C1703 C 0.01296 0.61658 0.92238 0.0
C1704 C 1.00315 0.58874 0.91879 0.0
C1705 C 0.00896 0.63694 0.90105 0.0
C1706 C 0.98983 0.58148 0.89329 0.0
C1707 C 0.98545 0.60164 0.87222 0.0
H1708 H 0.18237 0.35309 0.01442 0.0
H1709 H 0.11951 0.29428 0.98555 0.0
H1710 H 0.08264 0.32988 0.99162 0.0
H1711 H 0.06874 0.37848 1.00243 0.0
H1712 H 0.13205 0.43846 0.02843 0.0
H1713 H 0.16817 0.40185 0.02611 0.0
C1714 C 0.16049 0.34802 0.00999 0.0
C1715 C 0.15353 0.32103 0.99992 0.0
C1716 C 0.13955 0.36893 0.01268 0.0
C1717 C 0.12525 0.31484 0.99358 0.0
C1718 C 0.10423 0.33524 0.99692 0.0
C1719 C 0.09037 0.38357 0.00787 0.0
C1720 C 0.09753 0.41133 0.01564 0.0
C1721 C 0.11118 0.36249 0.00604 0.0
C1722 C 0.12584 0.41741 0.02225 0.0
C1723 C 0.14656 0.39643 0.021 0.0
H1724 H 0.18317 0.65254 0.00701 0.0
H1725 H 0.11781 0.71386 0.99239 0.0
H1726 H 0.08181 0.67717 0.99638 0.0
H1727 H 0.06897 0.62757 1.0019 0.0
H1728 H 0.13413 0.56549 0.01518 0.0
H1729 H 0.17 0.60248 0.01376 0.0
C1730 C 0.16101 0.65788 0.00517 0.0
C1731 C 0.15318 0.68595 0.99954 0.0
C1732 C 0.14038 0.63648 0.0069 0.0
C1733 C 0.12439 0.69246 0.99669 0.0
C1734 C 0.1038 0.67146 0.99891 0.0
C1735 C 0.09098 0.62198 0.00459 0.0
C1736 C 0.09866 0.59355 0.00853 0.0
C1737 C 0.11156 0.64335 0.00361 0.0
C1738 C 0.12744 0.58703 0.01191 0.0
C1739 C 0.14803 0.60824 0.01119 0.0
H1740 H 0.31596 0.12448 0.99405 0.0
H1741 H 0.36508 0.19757 0.01645 0.0
H1742 H 0.40725 0.16834 0.02119 0.0
H1743 H 0.43091 0.12188 0.01674 0.0
H1744 H 0.38074 0.04957 0.99334 0.0
H1745 H 0.33885 0.07862 0.99079 0.0
C1746 C 0.33587 0.13409 0.99995 0.0
C1747 C 0.33719 0.16326 0.0048 0.0
C1748 C 0.36016 0.11725 1.0022 0.0
C1749 C 0.36321 0.17514 0.01292 0.0
C1750 C 0.38748 0.15845 0.01535 0.0
C1751 C 0.41083 0.11253 0.01105 0.0
C1752 C 0.40925 0.08346 0.0053 0.0
C1753 C 0.38634 0.12947 0.00967 0.0
C1754 C 0.38285 0.07176 0.99814 0.0
C1755 C 0.35869 0.08839 0.9966 0.0
H1756 H 0.82903 0.35871 0.01286 0.0
H1757 H 0.8916 0.29283 0.01136 0.0
H1758 H 0.92912 0.32789 0.01612 0.0
H1759 H 0.94433 0.37746 0.01888 0.0
H1760 H 0.8813 0.4431 0.02028 0.0
H1761 H 0.84403 0.4079 0.01782 0.0
C1762 C 0.85082 0.35189 0.01412 0.0
C1763 C 0.85733 0.32302 0.01175 0.0
C1764 C 0.87235 0.3722 0.01672 0.0
C1765 C 0.88586 0.31484 0.01284 0.0
C1766 C 0.90737 0.33491 0.01564 0.0
C1767 C 0.92247 0.38416 0.01883 0.0
C1768 C 0.91589 0.41314 0.0197 0.0
C1769 C 0.9009 0.36371 0.01725 0.0
C1770 C 0.88727 0.42113 0.0196 0.0
C1771 C 0.86581 0.40094 0.01816 0.0
H1772 H 0.69803 0.87418 0.00555 0.0
H1773 H 0.64647 0.81179 0.04702 0.0
H1774 H 0.60439 0.84032 0.03911 0.0
H1775 H 0.58246 0.88438 0.02306 0.0
H1776 H 0.63421 0.94797 0.98345 0.0
H1777 H 0.6756 0.91777 0.98779 0.0
C1778 C 0.67751 0.86678 0.01252 0.0
C1779 C 0.67541 0.84101 0.027 0.0
C1780 C 0.65334 0.88362 0.00836 0.0
C1781 C 0.64868 0.83171 0.03609 0.0
C1782 C 0.62458 0.848 0.03153 0.0
C1783 C 0.6027 0.89148 0.01502 0.0
C1784 C 0.60511 0.91847 0.003 0.0
C1785 C 0.62667 0.8742 0.01809 0.0
C1786 C 0.63167 0.92739 0.993 0.0
C1787 C 0.65544 0.9101 0.99544 0.0
H1788 H 0.83264 0.65178 0.01449 0.0
H1789 H 0.89741 0.71539 0.01958 0.0
H1790 H 0.93387 0.67907 0.0163 0.0
H1791 H 0.94732 0.62915 0.01373 0.0
H1792 H 0.88223 0.56551 0.0098 0.0
H1793 H 0.84608 0.60195 0.01074 0.0
C1794 C 0.85473 0.65777 0.01438 0.0
C1795 C 0.86224 0.68635 0.01711 0.0
C1796 C 0.87558 0.63672 0.01291 0.0
C1797 C 0.89102 0.6936 0.01758 0.0
C1798 C 0.91188 0.67281 0.01571 0.0
C1799 C 0.92526 0.62314 0.01292 0.0
C1800 C 0.91772 0.5944 0.0117 0.0
C1801 C 0.90442 0.64427 0.01368 0.0
C1802 C 0.88887 0.5873 0.01079 0.0
C1803 C 0.86808 0.60819 0.0113 0.0
H1804 H 0.36263 0.82286 1.00101 0.0
H1805 H 0.29973 0.88694 0.01499 0.0
H1806 H 0.33675 0.92251 0.01933 0.0
H1807 H 0.38651 0.93585 0.01683 0.0
H1808 H 0.44992 0.87235 1.00176 0.0
H1809 H 0.41318 0.83613 1.00052 0.0
C1810 C 0.35707 0.84454 0.00549 0.0
C1811 C 0.32837 0.8522 0.00766 0.0
C1812 C 0.37853 0.86503 0.00756 0.0
C1813 C 0.32156 0.88048 0.01301 0.0
C1814 C 0.34274 0.90084 0.01551 0.0
C1815 C 0.39248 0.91411 0.0133 0.0
C1816 C 0.42113 0.90702 0.00919 0.0
C1817 C 0.37125 0.89344 0.01236 0.0
C1818 C 0.42817 0.87857 0.00498 0.0
C1819 C 0.40711 0.85781 0.0042 0.0
H1820 H 0.64978 0.17949 0.97929 0.0
H1821 H 0.71221 0.12555 0.01722 0.0
H1822 H 0.67617 0.08926 0.0252 0.0
H1823 H 0.62727 0.07211 0.0192 0.0
H1824 H 0.56474 0.12703 0.9825 0.0
H1825 H 0.6004 0.16369 0.97628 0.0
C1826 C 0.65545 0.15978 0.98937 0.0
C1827 C 0.68368 0.15504 0.99738 0.0
C1828 C 0.6346 0.13919 0.99402 0.0
C1829 C 0.69065 0.12967 0.01088 0.0
C1830 C 0.67006 0.1089 0.01531 0.0
C1831 C 0.62142 0.09214 0.00993 0.0
C1832 C 0.59333 0.0967 1.00116 0.0
C1833 C 0.64204 0.11329 0.00662 0.0
C1834 C 0.58609 0.12294 0.98955 0.0
C1835 C 0.60652 0.1439 0.98586 0.0
H1836 H 0.50025 0.68147 0.84924 0.0
H1837 H 0.47192 0.61809 0.79067 0.0
H1838 H 0.47669 0.58192 0.82719 0.0
H1839 H 0.48668 0.56872 0.87627 0.0
H1840 H 0.51293 0.63248 0.9357 0.0
H1841 H 0.51111 0.668 0.89844 0.0
C1842 C 0.49561 0.65964 0.84441 0.0
C1843 C 0.48598 0.65239 0.81724 0.0
C1844 C 0.4977 0.63908 0.86576 0.0
C1845 C 0.47945 0.62414 0.8114 0.0
C1846 C 0.48209 0.60349 0.83229 0.0
C1847 C 0.4922 0.59033 0.88115 0.0
C1848 C 0.49991 0.59778 0.90892 0.0
C1849 C 0.49082 0.61077 0.85966 0.0
C1850 C 0.50675 0.62603 0.91466 0.0
C1851 C 0.50581 0.64641 0.8933 0.0
H1852 H 0.32605 0.47462 0.86076 0.0
H1853 H 0.37617 0.51513 0.79648 0.0
H1854 H 0.41328 0.52483 0.83131 0.0
H1855 H 0.43234 0.51969 0.87981 0.0
H1856 H 0.38086 0.48011 0.94391 0.0
H1857 H 0.34359 0.47214 0.90943 0.0
C1858 C 0.3451 0.48563 0.85439 0.0
C1859 C 0.34849 0.49388 0.826 0.0
C1860 C 0.36619 0.49117 0.87451 0.0
C1861 C 0.37304 0.50859 0.81819 0.0
C1862 C 0.39431 0.51399 0.83808 0.0
C1863 C 0.41294 0.50937 0.88625 0.0
C1864 C 0.4096 0.50037 0.9145 0.0
C1865 C 0.39129 0.50504 0.86626 0.0
C1866 C 0.38411 0.48736 0.92245 0.0
C1867 C 0.36274 0.48269 0.90268 0.0
H1868 H 0.50392 0.33146 0.85518 0.0
H1869 H 0.51212 0.39473 0.79032 0.0
H1870 H 0.50911 0.43181 0.82607 0.0
H1871 H 0.50612 0.44614 0.8759 0.0
H1872 H 0.49875 0.38248 0.94074 0.0
H1873 H 0.4993 0.3458 0.9048 0.0
C1874 C 0.50451 0.35337 0.84878 0.0
C1875 C 0.5081 0.36027 0.82004 0.0
C1876 C 0.50317 0.37455 0.86949 0.0
C1877 C 0.50947 0.38881 0.81226 0.0
C1878 C 0.50776 0.41002 0.83271 0.0
C1879 C 0.50449 0.42428 0.88226 0.0
C1880 C 0.50253 0.41727 0.91118 0.0
C1881 C 0.50497 0.40313 0.86144 0.0
C1882 C 0.50048 0.38869 0.91879 0.0
C1883 C 0.50073 0.3676 0.8982 0.0
H1884 H 0.63527 0.5029 0.81312 0.0
H1885 H 0.70724 0.50607 0.86868 0.0
H1886 H 0.67597 0.51099 0.90947 0.0
H1887 H 0.6277 0.51194 0.92987 0.0
H1888 H 0.55627 0.50805 0.87327 0.0
H1889 H 0.58768 0.50555 0.833 0.0
C1890 C 0.64418 0.50467 0.83413 0.0
C1891 C 0.67367 0.50407 0.83762 0.0
C1892 C 0.62606 0.50714 0.85761 0.0
C1893 C 0.68468 0.50684 0.86512 0.0
C1894 C 0.66676 0.5094 0.88859 0.0
C1895 C 0.61898 0.51068 0.90876 0.0
C1896 C 0.58943 0.51005 0.90503 0.0
C1897 C 0.63733 0.50923 0.88518 0.0
C1898 C 0.57876 0.50848 0.87725 0.0
C1899 C 0.59677 0.50705 0.85395 0.0
H1900 H 0.50838 0.33327 0.15079 0.0
H1901 H 0.49135 0.3964 0.21392 0.0
H1902 H 0.49478 0.43332 0.17804 0.0
H1903 H 0.50042 0.44756 0.1283 0.0
H1904 H 0.51638 0.38407 0.06501 0.0
H1905 H 0.51572 0.34769 0.10131 0.0
C1906 C 0.50593 0.35515 0.1568 0.0
C1907 C 0.49968 0.36198 0.18512 0.0
C1908 C 0.50749 0.37629 0.13592 0.0
C1909 C 0.49603 0.39047 0.19233 0.0
C1910 C 0.49798 0.41162 0.17178 0.0
C1911 C 0.50394 0.42582 0.12237 0.0
C1912 C 0.50833 0.41879 0.09371 0.0
C1913 C 0.50331 0.40477 0.14342 0.0
C1914 C 0.51276 0.39033 0.08671 0.0
C1915 C 0.51244 0.36939 0.10753 0.0
H1916 H 0.68186 0.51856 0.14723 0.0
H1917 H 0.6168 0.51979 0.21102 0.0
H1918 H 0.58064 0.51453 0.17463 0.0
H1919 H 0.56739 0.51159 0.12489 0.0
H1920 H 0.63204 0.51168 0.06043 0.0
H1921 H 0.66842 0.51431 0.09691 0.0
C1922 C 0.65978 0.51721 0.15315 0.0
C1923 C 0.65204 0.51947 0.18184 0.0
C1924 C 0.63902 0.51466 0.132 0.0
C1925 C 0.62331 0.5182 0.18913 0.0
C1926 C 0.60263 0.51521 0.16832 0.0
C1927 C 0.5894 0.51207 0.11862 0.0
C1928 C 0.59678 0.51148 0.08973 0.0
C1929 C 0.61022 0.5138 0.13968 0.0
C1930 C 0.62556 0.51213 0.08237 0.0
C1931 C 0.64645 0.51363 0.10327 0.0
H1932 H 0.52966 0.68282 0.14763 0.0
H1933 H 0.49726 0.62706 0.21177 0.0
H1934 H 0.48798 0.59101 0.17581 0.0
H1935 H 0.49153 0.5745 0.1262 0.0
H1936 H 0.52271 0.63154 0.0623 0.0
H1937 H 0.52998 0.66777 0.098 0.0
C1938 C 0.52044 0.6628 0.15372 0.0
C1939 C 0.5144 0.65753 0.18239 0.0
C1940 C 0.51508 0.64231 0.13293 0.0
C1941 C 0.50205 0.63167 0.18987 0.0
C1942 C 0.4969 0.611 0.16931 0.0
C1943 C 0.4998 0.5949 0.12007 0.0
C1944 C 0.50667 0.60013 0.09149 0.0
C1945 C 0.50372 0.61593 0.14079 0.0
C1946 C 0.51707 0.62685 0.08399 0.0
C1947 C 0.52137 0.64762 0.10445 0.0
H1948 H 0.33324 0.51204 0.1567 0.0
H1949 H 0.39838 0.53836 0.21441 0.0
H1950 H 0.43404 0.53229 0.17748 0.0
H1951 H 0.44632 0.52199 0.12821 0.0
H1952 H 0.38089 0.49759 0.06969 0.0
H1953 H 0.34583 0.50043 0.10744 0.0
C1954 C 0.35532 0.51593 0.16127 0.0
C1955 C 0.36321 0.52546 0.18829 0.0
C1956 C 0.37562 0.51305 0.1397 0.0
C1957 C 0.39182 0.531 0.19379 0.0
C1958 C 0.41219 0.52759 0.17266 0.0
C1959 C 0.42445 0.51706 0.12366 0.0
C1960 C 0.41637 0.50964 0.09599 0.0
C1961 C 0.40428 0.51904 0.14542 0.0
C1962 C 0.3878 0.50356 0.09065 0.0
C1963 C 0.36768 0.50509 0.11229 0.0
H1964 H 0.86436 0.47215 0.6741 0.0
H1965 H 0.80098 0.51502 0.62522 0.0
H1966 H 0.8356 0.52367 0.58748 0.0
H1967 H 0.88377 0.51735 0.56775 0.0
H1968 H 0.94718 0.47609 0.61837 0.0
H1969 H 0.91276 0.46851 0.65594 0.0
C1970 C 0.85817 0.48346 0.65518 0.0
C1971 C 0.8301 0.4927 0.65228 0.0
C1972 C 0.87821 0.48853 0.63383 0.0
C1973 C 0.82246 0.50773 0.62792 0.0
C1974 C 0.84222 0.51253 0.60631 0.0
C1975 C 0.89004 0.50672 0.58702 0.0
C1976 C 0.91807 0.49716 0.59007 0.0
C1977 C 0.87012 0.50275 0.6089 0.0
C1978 C 0.92587 0.48377 0.61539 0.0
C1979 C 0.90615 0.47933 0.63691 0.0
H1980 H 0.49615 0.85844 0.68002 0.0
H1981 H 0.49292 0.79531 0.61468 0.0
H1982 H 0.49763 0.83184 0.57853 0.0
H1983 H 0.5006 0.88172 0.56548 0.0
H1984 H 0.50277 0.94504 0.63094 0.0
H1985 H 0.50077 0.90836 0.66695 0.0
C1986 C 0.49699 0.85262 0.65789 0.0
C1987 C 0.49429 0.82413 0.65008 0.0
C1988 C 0.4993 0.87379 0.6372 0.0
C1989 C 0.49483 0.81705 0.62126 0.0
C1990 C 0.49753 0.83795 0.60059 0.0
C1991 C 0.50076 0.88764 0.5876 0.0
C1992 C 0.50174 0.91631 0.59531 0.0
C1993 C 0.49939 0.86642 0.6083 0.0
C1994 C 0.50196 0.92328 0.6242 0.0
C1995 C 0.50082 0.90227 0.6449 0.0
H1996 H 0.19388 0.49774 0.62356 0.0
H1997 H 0.14149 0.5105 0.69695 0.0
H1998 H 0.10001 0.5161 0.66674 0.0
H1999 H 0.07801 0.51492 0.61909 0.0
H2000 H 0.13179 0.50168 0.54641 0.0
H2001 H 0.1727 0.49848 0.57663 0.0
C2002 C 0.17341 0.50181 0.63298 0.0
C2003 C 0.17093 0.50362 0.66252 0.0
C2004 C 0.14959 0.50471 0.61554 0.0
C2005 C 0.1442 0.50932 0.67426 0.0
C2006 C 0.12035 0.51227 0.65699 0.0
C2007 C 0.09866 0.51142 0.60987 0.0
C2008 C 0.10141 0.50853 0.58033 0.0
C2009 C 0.12267 0.50962 0.62753 0.0
C2010 C 0.12859 0.50412 0.56893 0.0
C2011 C 0.15227 0.50222 0.58624 0.0
H2012 H 0.5247 0.14956 0.68044 0.0
H2013 H 0.49677 0.21634 0.62569 0.0
H2014 H 0.48697 0.18196 0.58815 0.0
H2015 H 0.48876 0.13272 0.57026 0.0
H2016 H 0.51614 0.06669 0.62671 0.0
H2017 H 0.52377 0.1009 0.66397 0.0
C2018 C 0.51638 0.15658 0.66029 0.0
C2019 C 0.51174 0.18544 0.65571 0.0
C2020 C 0.51081 0.13678 0.63902 0.0
C2021 C 0.50048 0.19421 0.62971 0.0
C2022 C 0.49505 0.17457 0.60822 0.0
C2023 C 0.49625 0.12583 0.59076 0.0
C2024 C 0.50181 0.09703 0.59551 0.0
C2025 C 0.5005 0.14577 0.61249 0.0
C2026 C 0.51137 0.08856 0.62234 0.0
C2027 C 0.51591 0.10816 0.64375 0.0
H2028 H 0.85294 0.51242 0.32361 0.0
H2029 H 0.79058 0.52382 0.38905 0.0
H2030 H 0.82697 0.51803 0.42519 0.0
H2031 H 0.87696 0.51187 0.43819 0.0
H2032 H 0.93919 0.5012 0.37226 0.0
H2033 H 0.9024 0.50431 0.33656 0.0
C2034 C 0.84718 0.5131 0.34578 0.0
C2035 C 0.81899 0.51849 0.35353 0.0
C2036 C 0.86828 0.51008 0.36646 0.0
C2037 C 0.81211 0.51988 0.38243 0.0
C2038 C 0.83293 0.51654 0.40313 0.0
C2039 C 0.88252 0.50999 0.41604 0.0
C2040 C 0.91101 0.50642 0.40811 0.0
C2041 C 0.86118 0.51201 0.3954 0.0
C2042 C 0.9176 0.50417 0.37918 0.0
C2043 C 0.89652 0.50589 0.35864 0.0
H2044 H 0.50881 0.85618 0.33045 0.0
H2045 H 0.51149 0.79356 0.39638 0.0
H2046 H 0.50807 0.8305 0.4322 0.0
H2047 H 0.50586 0.88061 0.44487 0.0
H2048 H 0.50395 0.94334 0.37877 0.0
H2049 H 0.50537 0.90634 0.34313 0.0
C2050 C 0.50817 0.85056 0.35264 0.0
C2051 C 0.51029 0.82203 0.36064 0.0
C2052 C 0.50656 0.87198 0.37317 0.0
C2053 C 0.51002 0.81528 0.38957 0.0
C2054 C 0.50806 0.83642 0.41008 0.0
C2055 C 0.5057 0.88633 0.42269 0.0
C2056 C 0.50489 0.91497 0.41474 0.0
C2057 C 0.50664 0.86487 0.40215 0.0
C2058 C 0.50465 0.92164 0.38575 0.0
C2059 C 0.50543 0.90043 0.36524 0.0
H2060 H 0.15455 0.52071 0.32033 0.0
H2061 H 0.21601 0.5116 0.38684 0.0
H2062 H 0.17815 0.50578 0.42148 0.0
H2063 H 0.12803 0.50546 0.43314 0.0
H2064 H 0.06592 0.51586 0.36726 0.0
H2065 H 0.10368 0.5187 0.33202 0.0
C2066 C 0.15962 0.51696 0.34234 0.0
C2067 C 0.18809 0.51652 0.35101 0.0
C2068 C 0.13768 0.51407 0.36224 0.0
C2069 C 0.19432 0.51215 0.37967 0.0
C2070 C 0.17267 0.50884 0.39946 0.0
C2071 C 0.12256 0.50834 0.41109 0.0
C2072 C 0.094 0.51063 0.403 0.0
C2073 C 0.14432 0.51019 0.39104 0.0
C2074 C 0.08761 0.51403 0.3742 0.0
C2075 C 0.10923 0.51571 0.35401 0.0
H2076 H 0.50067 0.15207 0.32502 0.0
H2077 H 0.493 0.21738 0.38777 0.0
H2078 H 0.49589 0.18223 0.42539 0.0
H2079 H 0.49899 0.13269 0.4406 0.0
H2080 H 0.50622 0.06742 0.37751 0.0
H2081 H 0.50532 0.10273 0.34023 0.0
C2082 C 0.50009 0.1587 0.34692 0.0
C2083 C 0.49662 0.18746 0.35342 0.0
C2084 C 0.5015 0.13829 0.36854 0.0
C2085 C 0.49541 0.19546 0.38203 0.0
C2086 C 0.49711 0.17532 0.40361 0.0
C2087 C 0.50047 0.12609 0.41873 0.0
C2088 C 0.50257 0.09717 0.41215 0.0
C2089 C 0.49982 0.14661 0.39714 0.0
C2090 C 0.50449 0.08934 0.38351 0.0
C2091 C 0.504 0.1096 0.36202 0.0
H2092 H 0.63814 0.82523 0.51435 0.0
H2093 H 0.70739 0.8794 0.49111 0.0
H2094 H 0.67664 0.92062 0.49468 0.0
H2095 H 0.6287 0.94105 0.50106 0.0
H2096 H 0.56018 0.88561 0.52452 0.0
H2097 H 0.59181 0.84563 0.52408 0.0
C2098 C 0.64655 0.84607 0.5102 0.0
C2099 C 0.67501 0.84911 0.50235 0.0
C2100 C 0.62872 0.86966 0.51209 0.0
C2101 C 0.68562 0.87638 0.49744 0.0
C2102 C 0.66797 0.90001 0.49927 0.0
C2103 C 0.62079 0.92029 0.5064 0.0
C2104 C 0.59185 0.91656 0.51233 0.0
C2105 C 0.63928 0.8969 0.50613 0.0
C2106 C 0.58213 0.88934 0.51929 0.0
C2107 C 0.60026 0.86627 0.51916 0.0
H2108 H 0.63426 0.19331 0.49553 0.0
H2109 H 0.70633 0.13816 0.50023 0.0
H2110 H 0.67504 0.09754 0.50563 0.0
H2111 H 0.62667 0.07714 0.50639 0.0
H2112 H 0.55537 0.13357 0.50029 0.0
H2113 H 0.58679 0.17356 0.49766 0.0
C2114 C 0.64322 0.17243 0.49766 0.0
C2115 C 0.67272 0.16902 0.49733 0.0
C2116 C 0.62512 0.14906 0.50025 0.0
C2117 C 0.68376 0.14168 0.50072 0.0
C2118 C 0.66583 0.1183 0.50354 0.0
C2119 C 0.618 0.09815 0.50452 0.0
C2120 C 0.58846 0.10189 0.50339 0.0
C2121 C 0.63638 0.12164 0.50293 0.0
C2122 C 0.57785 0.12955 0.50116 0.0
C2123 C 0.59586 0.15272 0.49964 0.0
H2124 H 0.81391 0.63174 0.48314 0.0
H2125 H 0.86215 0.70293 0.5124 0.0
H2126 H 0.90402 0.67315 0.51708 0.0
H2127 H 0.92773 0.62687 0.51061 0.0
H2128 H 0.87835 0.55655 0.48049 0.0
H2129 H 0.83671 0.58601 0.47797 0.0
C2130 C 0.83356 0.64079 0.49057 0.0
C2131 C 0.83476 0.6696 0.49731 0.0
C2132 C 0.85765 0.62368 0.49279 0.0
C2133 C 0.8604 0.68077 0.50737 0.0
C2134 C 0.8845 0.66379 0.50977 0.0
C2135 C 0.90787 0.61805 0.50346 0.0
C2136 C 0.90642 0.5894 0.49582 0.0
C2137 C 0.88353 0.63523 0.50214 0.0
C2138 C 0.88031 0.57837 0.48679 0.0
C2139 C 0.85632 0.59525 0.48526 0.0
H2140 H 0.32805 0.85658 0.49632 0.0
H2141 H 0.39354 0.79383 0.4909 0.0
H2142 H 0.42955 0.83049 0.49531 0.0
H2143 H 0.44248 0.8805 0.4991 0.0
H2144 H 0.37672 0.94325 0.50401 0.0
H2145 H 0.34095 0.90644 0.50163 0.0
C2146 C 0.35019 0.85083 0.4966 0.0
C2147 C 0.358 0.82238 0.49337 0.0
C2148 C 0.37081 0.87208 0.49886 0.0
C2149 C 0.38687 0.8155 0.49318 0.0
C2150 C 0.40749 0.83648 0.49573 0.0
C2151 C 0.42035 0.88623 0.49977 0.0
C2152 C 0.41251 0.91484 0.50162 0.0
C2153 C 0.39972 0.86489 0.49827 0.0
C2154 C 0.38359 0.92158 0.50243 0.0
C2155 C 0.36301 0.90047 0.50112 0.0
H2156 H 0.19417 0.37842 0.49511 0.0
H2157 H 0.14149 0.316 0.53506 0.0
H2158 H 0.09966 0.34479 0.52642 0.0
H2159 H 0.07838 0.38909 0.51032 0.0
H2160 H 0.13132 0.45303 0.47298 0.0
H2161 H 0.17239 0.42238 0.47745 0.0
C2162 C 0.17345 0.37105 0.50151 0.0
C2163 C 0.17088 0.34519 0.51572 0.0
C2164 C 0.14948 0.38808 0.49706 0.0
C2165 C 0.14396 0.33594 0.5242 0.0
C2166 C 0.12004 0.35238 0.51927 0.0
C2167 C 0.09881 0.3962 0.50285 0.0
C2168 C 0.10167 0.4234 0.49145 0.0
C2169 C 0.12257 0.37871 0.50613 0.0
C2170 C 0.12846 0.43229 0.48206 0.0
C2171 C 0.15203 0.41475 0.48459 0.0
H2172 H 0.32459 0.15466 0.50739 0.0
H2173 H 0.38972 0.21816 0.50614 0.0
H2174 H 0.42581 0.18163 0.50226 0.0
H2175 H 0.43899 0.13181 0.5013 0.0
H2176 H 0.37397 0.068 0.50322 0.0
H2177 H 0.3378 0.10456 0.50451 0.0
C2178 C 0.34665 0.16054 0.50574 0.0
C2179 C 0.35439 0.18919 0.50701 0.0
C2180 C 0.36735 0.13936 0.50386 0.0
C2181 C 0.38315 0.19633 0.5054 0.0
C2182 C 0.40381 0.17543 0.50317 0.0
C2183 C 0.41693 0.12573 0.50191 0.0
C2184 C 0.4094 0.09696 0.50232 0.0
C2185 C 0.39618 0.14687 0.50279 0.0
C2186 C 0.38057 0.08983 0.50299 0.0
C2187 C 0.3598 0.11077 0.50371 0.0
H2188 H 0.86351 0.32813 0.47272 0.0
H2189 H 0.80027 0.38103 0.51068 0.0
H2190 H 0.83591 0.41763 0.51935 0.0
H2191 H 0.8847 0.43542 0.51361 0.0
H2192 H 0.94823 0.38094 0.47783 0.0
H2193 H 0.91299 0.34416 0.47091 0.0
C2194 C 0.85768 0.3476 0.48316 0.0
C2195 C 0.82937 0.35206 0.49097 0.0
C2196 C 0.87832 0.36829 0.48828 0.0
C2197 C 0.82197 0.3772 0.5046 0.0
C2198 C 0.84232 0.39812 0.50941 0.0
C2199 C 0.89089 0.41544 0.50445 0.0
C2200 C 0.91913 0.41121 0.49588 0.0
C2201 C 0.87051 0.39406 0.50096 0.0
C2202 C 0.92674 0.38496 0.48447 0.0
C2203 C 0.90654 0.36386 0.48046 0.0
H2204 H 0.15066 0.68113 0.4668 0.0
H2205 H 0.21183 0.62468 0.50315 0.0
H2206 H 0.17434 0.59054 0.51346 0.0
H2207 H 0.12467 0.57575 0.50958 0.0
H2208 H 0.06331 0.63269 0.47403 0.0
H2209 H 0.10036 0.66776 0.46617 0.0
C2210 C 0.15574 0.66135 0.47703 0.0
C2211 C 0.18404 0.65524 0.48388 0.0
C2212 C 0.13407 0.64196 0.483 0.0
C2213 C 0.19026 0.62982 0.49765 0.0
C2214 C 0.16884 0.61029 0.50343 0.0
C2215 C 0.11932 0.5959 0.50025 0.0
C2216 C 0.0912 0.60146 0.49219 0.0
C2217 C 0.14074 0.61598 0.49582 0.0
C2218 C 0.08467 0.62785 0.48053 0.0
C2219 C 0.10591 0.64786 0.47587 0.0
loop_
_geom_bond_atom_site_label_1
_geom_bond_atom_site_label_2
_geom_bond_distance
_geom_bond_site_symmetry_2
_ccdc_geom_bond_type
P0 O11 1.490 . S
P0 C14 1.812 . S
P0 C20 1.803 . S
P0 C26 1.819 . S
H1 C15 0.941 . S
H2 C16 0.939 . S
H3 C18 0.940 . S
H4 C19 0.940 . S
H5 C21 0.939 . S
H6 C22 0.942 . S
H7 C24 0.940 . S
H8 C25 0.939 . S
H9 C27 0.941 . S
H10 C31 0.939 1_455 S
O11 P0 1.490 . S
H12 C28 0.939 . S
H13 C30 0.940 . S
C14 P0 1.812 . S
C14 C15 1.389 . S
C14 C19 1.391 1_655 S
C15 H1 0.941 . S
C15 C14 1.389 . S
C15 C16 1.397 . S
C16 H2 0.939 . S
C16 C15 1.397 . S
C16 C17 1.378 . S
C17 C16 1.378 . S
C17 C18 1.378 1_655 S
C18 H3 0.940 . S
C18 C17 1.378 1_455 S
C18 C19 1.396 . S
C19 H4 0.940 . S
C19 C14 1.391 1_455 S
C19 C18 1.396 . S
C20 P0 1.803 . S
C20 C21 1.378 . S
C20 C25 1.400 1_655 S
C21 H5 0.939 . S
C21 C20 1.378 . S
C21 C22 1.361 . S
C22 H6 0.942 . S
C22 C21 1.361 . S
C22 C23 1.369 . S
C23 C22 1.369 . S
C23 C24 1.404 1_655 S
C24 H7 0.940 . S
C24 C23 1.404 1_455 S
C24 C25 1.389 . S
C25 H8 0.939 . S
C25 C20 1.400 1_455 S
C25 C24 1.389 . S
C26 P0 1.819 . S
C26 C27 1.391 . S
C26 C31 1.391 . S
C27 H9 0.941 . S
C27 C26 1.391 . S
C27 C28 1.396 . S
C28 H12 0.939 . S
C28 C27 1.396 . S
C28 C29 1.397 . S
C29 C28 1.397 . S
C29 C30 1.385 1_655 S
C30 H13 0.940 . S
C30 C29 1.385 1_455 S
C30 C31 1.388 1_455 S
C31 H10 0.939 1_655 S
C31 C26 1.391 . S
C31 C30 1.388 1_655 S
P32 O43 1.490 . S
P32 C46 1.812 . S
P32 C52 1.803 . S
P32 C58 1.819 . S
H33 C47 0.941 . S
H34 C48 0.939 . S
H35 C50 0.940 . S
H36 C51 0.940 . S
H37 C53 0.939 . S
H38 C54 0.942 . S
H39 C56 0.940 . S
H40 C57 0.939 . S
H41 C59 0.941 . S
H42 C63 0.939 1_545 S
O43 P32 1.490 . S
H44 C60 0.939 . S
H45 C62 0.940 . S
C46 P32 1.812 . S
C46 C47 1.389 . S
C46 C51 1.391 1_565 S
C47 H33 0.941 . S
C47 C46 1.389 . S
C47 C48 1.397 . S
C48 H34 0.939 . S
C48 C47 1.397 . S
C48 C49 1.378 . S
C49 C48 1.378 . S
C49 C50 1.378 1_565 S
C50 H35 0.940 . S
C50 C49 1.378 1_545 S
C50 C51 1.396 . S
C51 H36 0.940 . S
C51 C46 1.391 1_545 S
C51 C50 1.396 . S
C52 P32 1.803 . S
C52 C53 1.378 . S
C52 C57 1.400 1_565 S
C53 H37 0.939 . S
C53 C52 1.378 . S
C53 C54 1.361 . S
C54 H38 0.942 . S
C54 C53 1.361 . S
C54 C55 1.369 . S
C55 C54 1.369 . S
C55 C56 1.404 1_565 S
C56 H39 0.940 . S
C56 C55 1.404 1_545 S
C56 C57 1.389 . S
C57 H40 0.939 . S
C57 C52 1.400 1_545 S
C57 C56 1.389 . S
C58 P32 1.819 . S
C58 C59 1.391 . S
C58 C63 1.391 . S
C59 H41 0.941 . S
C59 C58 1.391 . S
C59 C60 1.396 . S
C60 H44 0.939 . S
C60 C59 1.396 . S
C60 C61 1.397 . S
C61 C60 1.397 . S
C61 C62 1.385 1_565 S
C62 H45 0.940 . S
C62 C61 1.385 1_545 S
C62 C63 1.388 1_545 S
C63 H42 0.939 1_565 S
C63 C58 1.391 . S
C63 C62 1.388 1_565 S
P64 O75 1.490 . S
P64 C78 1.812 . S
P64 C84 1.803 . S
P64 C90 1.819 . S
H65 C79 0.941 . S
H66 C80 0.939 . S
H67 C82 0.940 . S
H68 C83 0.940 1_655 S
H69 C85 0.939 . S
H70 C86 0.942 . S
H71 C88 0.940 . S
H72 C89 0.939 1_655 S
H73 C91 0.941 . S
H74 C95 0.939 . S
O75 P64 1.490 . S
H76 C92 0.939 . S
H77 C94 0.940 . S
C78 P64 1.812 . S
C78 C79 1.389 . S
C78 C83 1.391 . S
C79 H65 0.941 . S
C79 C78 1.389 . S
C79 C80 1.397 . S
C80 H66 0.939 . S
C80 C79 1.397 . S
C80 C81 1.378 . S
C81 C80 1.378 . S
C81 C82 1.378 1_455 S
C82 H67 0.940 . S
C82 C81 1.378 1_655 S
C82 C83 1.396 1_655 S
C83 H68 0.940 1_455 S
C83 C78 1.391 . S
C83 C82 1.396 1_455 S
C84 P64 1.803 . S
C84 C85 1.378 . S
C84 C89 1.400 . S
C85 H69 0.939 . S
C85 C84 1.378 . S
C85 C86 1.361 . S
C86 H70 0.942 . S
C86 C85 1.361 . S
C86 C87 1.369 . S
C87 C86 1.369 . S
C87 C88 1.404 1_455 S
C88 H71 0.940 . S
C88 C87 1.404 1_655 S
C88 C89 1.389 1_655 S
C89 H72 0.939 1_455 S
C89 C84 1.400 . S
C89 C88 1.389 1_455 S
C90 P64 1.819 . S
C90 C91 1.391 . S
C90 C95 1.391 . S
C91 H73 0.941 . S
C91 C90 1.391 . S
C91 C92 1.396 . S
C92 H76 0.939 . S
C92 C91 1.396 . S
C92 C93 1.397 . S
C93 C92 1.397 . S
C93 C94 1.385 1_455 S
C94 H77 0.940 . S
C94 C93 1.385 1_655 S
C94 C95 1.388 1_655 S
C95 H74 0.939 . S
C95 C90 1.391 . S
C95 C94 1.388 1_455 S
P96 O107 1.490 . S
P96 C110 1.812 . S
P96 C116 1.803 . S
P96 C122 1.819 . S
H97 C111 0.941 . S
H98 C112 0.939 . S
H99 C114 0.940 . S
H100 C115 0.940 . S
H101 C117 0.939 . S
H102 C118 0.942 . S
H103 C120 0.940 . S
H104 C121 0.939 . S
H105 C123 0.941 . S
H106 C127 0.939 1_545 S
O107 P96 1.490 . S
H108 C124 0.939 . S
H109 C126 0.940 . S
C110 P96 1.812 . S
C110 C111 1.389 . S
C110 C115 1.391 1_565 S
C111 H97 0.941 . S
C111 C110 1.389 . S
C111 C112 1.397 . S
C112 H98 0.939 . S
C112 C111 1.397 . S
C112 C113 1.378 . S
C113 C112 1.378 . S
C113 C114 1.378 1_565 S
C114 H99 0.940 . S
C114 C113 1.378 1_545 S
C114 C115 1.396 . S
C115 H100 0.940 . S
C115 C110 1.391 1_545 S
C115 C114 1.396 . S
C116 P96 1.803 . S
C116 C117 1.378 . S
C116 C121 1.400 1_565 S
C117 H101 0.939 . S
C117 C116 1.378 . S
C117 C118 1.361 . S
C118 H102 0.942 . S
C118 C117 1.361 . S
C118 C119 1.369 . S
C119 C118 1.369 . S
C119 C120 1.404 1_565 S
C120 H103 0.940 . S
C120 C119 1.404 1_545 S
C120 C121 1.389 . S
C121 H104 0.939 . S
C121 C116 1.400 1_545 S
C121 C120 1.389 . S
C122 P96 1.819 . S
C122 C123 1.391 . S
C122 C127 1.391 . S
C123 H105 0.941 . S
C123 C122 1.391 . S
C123 C124 1.396 . S
C124 H108 0.939 . S
C124 C123 1.396 . S
C124 C125 1.397 . S
C125 C124 1.397 . S
C125 C126 1.385 1_565 S
C126 H109 0.940 . S
C126 C125 1.385 1_545 S
C126 C127 1.388 1_545 S
C127 H106 0.939 1_565 S
C127 C122 1.391 . S
C127 C126 1.388 1_565 S
P128 O139 1.490 . S
P128 C142 1.812 . S
P128 C148 1.803 . S
P128 C154 1.819 . S
H129 C143 0.941 . S
H130 C144 0.939 . S
H131 C146 0.940 . S
H132 C147 0.940 . S
H133 C149 0.939 . S
H134 C150 0.942 . S
H135 C152 0.940 . S
H136 C153 0.939 . S
H137 C155 0.941 . S
H138 C159 0.939 1_455 S
O139 P128 1.490 . S
H140 C156 0.939 . S
H141 C158 0.940 . S
C142 P128 1.812 . S
C142 C143 1.389 . S
C142 C147 1.391 1_655 S
C143 H129 0.941 . S
C143 C142 1.389 . S
C143 C144 1.397 . S
C144 H130 0.939 . S
C144 C143 1.397 . S
C144 C145 1.378 . S
C145 C144 1.378 . S
C145 C146 1.378 1_655 S
C146 H131 0.940 . S
C146 C145 1.378 1_455 S
C146 C147 1.396 . S
C147 H132 0.940 . S
C147 C142 1.391 1_455 S
C147 C146 1.396 . S
C148 P128 1.803 . S
C148 C149 1.378 . S
C148 C153 1.400 1_655 S
C149 H133 0.939 . S
C149 C148 1.378 . S
C149 C150 1.361 . S
C150 H134 0.942 . S
C150 C149 1.361 . S
C150 C151 1.369 . S
C151 C150 1.369 . S
C151 C152 1.404 1_655 S
C152 H135 0.940 . S
C152 C151 1.404 1_455 S
C152 C153 1.389 . S
C153 H136 0.939 . S
C153 C148 1.400 1_455 S
C153 C152 1.389 . S
C154 P128 1.819 . S
C154 C155 1.391 . S
C154 C159 1.391 . S
C155 H137 0.941 . S
C155 C154 1.391 . S
C155 C156 1.396 . S
C156 H140 0.939 . S
C156 C155 1.396 . S
C156 C157 1.397 . S
C157 C156 1.397 . S
C157 C158 1.385 1_655 S
C158 H141 0.940 . S
C158 C157 1.385 1_455 S
C158 C159 1.388 1_455 S
C159 H138 0.939 1_655 S
C159 C154 1.391 . S
C159 C158 1.388 1_655 S
P160 O171 1.490 . S
P160 C174 1.812 . S
P160 C180 1.803 . S
P160 C186 1.819 . S
H161 C175 0.941 . S
H162 C176 0.939 . S
H163 C178 0.940 . S
H164 C179 0.940 . S
H165 C181 0.939 . S
H166 C182 0.942 . S
H167 C184 0.940 . S
H168 C185 0.939 . S
H169 C187 0.941 . S
H170 C191 0.939 1_545 S
O171 P160 1.490 . S
H172 C188 0.939 . S
H173 C190 0.940 . S
C174 P160 1.812 . S
C174 C175 1.389 . S
C174 C179 1.391 1_565 S
C175 H161 0.941 . S
C175 C174 1.389 . S
C175 C176 1.397 . S
C176 H162 0.939 . S
C176 C175 1.397 . S
C176 C177 1.378 . S
C177 C176 1.378 . S
C177 C178 1.378 1_565 S
C178 H163 0.940 . S
C178 C177 1.378 1_545 S
C178 C179 1.396 . S
C179 H164 0.940 . S
C179 C174 1.391 1_545 S
C179 C178 1.396 . S
C180 P160 1.803 . S
C180 C181 1.378 . S
C180 C185 1.400 1_565 S
C181 H165 0.939 . S
C181 C180 1.378 . S
C181 C182 1.361 . S
C182 H166 0.942 . S
C182 C181 1.361 . S
C182 C183 1.369 . S
C183 C182 1.369 . S
C183 C184 1.404 1_565 S
C184 H167 0.940 . S
C184 C183 1.404 1_545 S
C184 C185 1.389 . S
C185 H168 0.939 . S
C185 C180 1.400 1_545 S
C185 C184 1.389 . S
C186 P160 1.819 . S
C186 C187 1.391 . S
C186 C191 1.391 . S
C187 H169 0.941 . S
C187 C186 1.391 . S
C187 C188 1.396 . S
C188 H172 0.939 . S
C188 C187 1.396 . S
C188 C189 1.397 . S
C189 C188 1.397 . S
C189 C190 1.385 1_565 S
C190 H173 0.940 . S
C190 C189 1.385 1_545 S
C190 C191 1.388 1_545 S
C191 H170 0.939 1_565 S
C191 C186 1.391 . S
C191 C190 1.388 1_565 S
P192 O203 1.490 . S
P192 C206 1.812 . S
P192 C212 1.803 . S
P192 C218 1.819 . S
H193 C207 0.941 . S
H194 C208 0.939 . S
H195 C210 0.940 . S
H196 C211 0.940 1_655 S
H197 C213 0.939 . S
H198 C214 0.942 . S
H199 C216 0.940 . S
H200 C217 0.939 1_655 S
H201 C219 0.941 . S
H202 C223 0.939 . S
O203 P192 1.490 . S
H204 C220 0.939 . S
H205 C222 0.940 . S
C206 P192 1.812 . S
C206 C207 1.389 . S
C206 C211 1.391 . S
C207 H193 0.941 . S
C207 C206 1.389 . S
C207 C208 1.397 . S
C208 H194 0.939 . S
C208 C207 1.397 . S
C208 C209 1.378 . S
C209 C208 1.378 . S
C209 C210 1.378 1_455 S
C210 H195 0.940 . S
C210 C209 1.378 1_655 S
C210 C211 1.396 1_655 S
C211 H196 0.940 1_455 S
C211 C206 1.391 . S
C211 C210 1.396 1_455 S
C212 P192 1.803 . S
C212 C213 1.378 . S
C212 C217 1.400 . S
C213 H197 0.939 . S
C213 C212 1.378 . S
C213 C214 1.361 . S
C214 H198 0.942 . S
C214 C213 1.361 . S
C214 C215 1.369 . S
C215 C214 1.369 . S
C215 C216 1.404 1_455 S
C216 H199 0.940 . S
C216 C215 1.404 1_655 S
C216 C217 1.389 1_655 S
C217 H200 0.939 1_455 S
C217 C212 1.400 . S
C217 C216 1.389 1_455 S
C218 P192 1.819 . S
C218 C219 1.391 . S
C218 C223 1.391 . S
C219 H201 0.941 . S
C219 C218 1.391 . S
C219 C220 1.396 . S
C220 H204 0.939 . S
C220 C219 1.396 . S
C220 C221 1.397 . S
C221 C220 1.397 . S
C221 C222 1.385 1_455 S
C222 H205 0.940 . S
C222 C221 1.385 1_655 S
C222 C223 1.388 1_655 S
C223 H202 0.939 . S
C223 C218 1.391 . S
C223 C222 1.388 1_455 S
P224 O235 1.490 . S
P224 C238 1.812 . S
P224 C244 1.803 . S
P224 C250 1.819 . S
H225 C239 0.941 . S
H226 C240 0.939 . S
H227 C242 0.940 . S
H228 C243 0.918 1_565 S
H229 C245 0.939 . S
H230 C246 0.942 . S
H231 C248 0.940 . S
H232 C249 0.928 1_565 S
H233 C251 0.941 . S
H234 C255 0.948 . S
O235 P224 1.490 . S
H236 C252 0.939 . S
H237 C254 0.940 . S
C238 P224 1.812 . S
C238 C239 1.389 . S
C238 C243 1.427 . S
C239 H225 0.941 . S
C239 C238 1.389 . S
C239 C240 1.397 . S
C240 H226 0.939 . S
C240 C239 1.397 . S
C240 C241 1.378 . S
C241 C240 1.378 . S
C241 C242 1.378 1_545 S
C242 H227 0.940 . S
C242 C241 1.378 1_565 S
C242 C243 1.384 1_565 S
C243 H228 0.918 1_545 S
C243 C238 1.427 . S
C243 C242 1.384 1_545 S
C244 P224 1.803 . S
C244 C245 1.378 . S
C244 C249 1.418 . S
C245 H229 0.939 . S
C245 C244 1.378 . S
C245 C246 1.361 . S
C246 H230 0.942 . S
C246 C245 1.361 . S
C246 C247 1.369 . S
C247 C246 1.369 . S
C247 C248 1.404 1_545 S
C248 H231 0.940 . S
C248 C247 1.404 1_565 S
C248 C249 1.382 1_565 S
C249 H232 0.928 1_545 S
C249 C244 1.418 . S
C249 C248 1.382 1_545 S
C250 P224 1.819 . S
C250 C251 1.391 . S
C250 C255 1.391 . S
C251 H233 0.941 . S
C251 C250 1.391 . S
C251 C252 1.396 . S
C252 H236 0.939 . S
C252 C251 1.396 . S
C252 C253 1.397 . S
C253 C252 1.397 . S
C253 C254 1.385 1_545 S
C254 H237 0.940 . S
C254 C253 1.385 1_565 S
C254 C255 1.388 1_565 S
C255 H234 0.948 . S
C255 C250 1.391 . S
C255 C254 1.388 1_545 S
P256 O267 1.490 . S
P256 C270 1.812 . S
P256 C276 1.803 . S
P256 C282 1.819 . S
H257 C271 0.941 . S
H258 C272 0.939 . S
H259 C274 0.940 . S
H260 C275 0.957 . S
H261 C277 0.939 . S
H262 C278 0.942 . S
H263 C280 0.940 . S
H264 C281 0.939 . S
H265 C283 0.941 . S
H266 C287 0.939 1_554 S
O267 P256 1.490 . S
H268 C284 0.939 . S
H269 C286 0.940 . S
C270 P256 1.812 . S
C270 C271 1.389 . S
C270 C275 1.365 1_556 S
C271 H257 0.941 . S
C271 C270 1.389 . S
C271 C272 1.397 . S
C272 H258 0.939 . S
C272 C271 1.397 . S
C272 C273 1.378 . S
C273 C272 1.378 . S
C273 C274 1.378 1_556 S
C274 H259 0.940 . S
C274 C273 1.378 1_554 S
C274 C275 1.407 . S
C275 H260 0.957 . S
C275 C270 1.365 1_554 S
C275 C274 1.407 . S
C276 P256 1.803 . S
C276 C277 1.378 . S
C276 C281 1.400 1_556 S
C277 H261 0.939 . S
C277 C276 1.378 . S
C277 C278 1.361 . S
C278 H262 0.942 . S
C278 C277 1.361 . S
C278 C279 1.369 . S
C279 C278 1.369 . S
C279 C280 1.404 1_556 S
C280 H263 0.940 . S
C280 C279 1.404 1_554 S
C280 C281 1.389 . S
C281 H264 0.939 . S
C281 C276 1.400 1_554 S
C281 C280 1.389 . S
C282 P256 1.819 . S
C282 C283 1.391 . S
C282 C287 1.391 . S
C283 H265 0.941 . S
C283 C282 1.391 . S
C283 C284 1.396 . S
C284 H268 0.939 . S
C284 C283 1.396 . S
C284 C285 1.397 . S
C285 C284 1.397 . S
C285 C286 1.385 1_556 S
C286 H269 0.940 . S
C286 C285 1.385 1_554 S
C286 C287 1.388 1_554 S
C287 H266 0.939 1_556 S
C287 C282 1.391 . S
C287 C286 1.388 1_556 S
P288 O299 1.490 . S
P288 C302 1.812 . S
P288 C308 1.803 . S
P288 C314 1.819 . S
H289 C303 0.941 . S
H290 C304 0.939 . S
H291 C306 0.940 . S
H292 C307 0.958 . S
H293 C309 0.939 . S
H294 C310 0.942 . S
H295 C312 0.940 . S
H296 C313 0.939 . S
H297 C315 0.941 . S
H298 C319 0.939 1_554 S
O299 P288 1.490 . S
H300 C316 0.939 . S
H301 C318 0.940 . S
C302 P288 1.812 . S
C302 C303 1.389 . S
C302 C307 1.363 1_556 S
C303 H289 0.941 . S
C303 C302 1.389 . S
C303 C304 1.397 . S
C304 H290 0.939 . S
C304 C303 1.397 . S
C304 C305 1.378 . S
C305 C304 1.378 . S
C305 C306 1.378 1_556 S
C306 H291 0.940 . S
C306 C305 1.378 1_554 S
C306 C307 1.407 . S
C307 H292 0.958 . S
C307 C302 1.363 1_554 S
C307 C306 1.407 . S
C308 P288 1.803 . S
C308 C309 1.378 . S
C308 C313 1.400 1_556 S
C309 H293 0.939 . S
C309 C308 1.378 . S
C309 C310 1.361 . S
C310 H294 0.942 . S
C310 C309 1.361 . S
C310 C311 1.369 . S
C311 C310 1.369 . S
C311 C312 1.404 1_556 S
C312 H295 0.940 . S
C312 C311 1.404 1_554 S
C312 C313 1.389 . S
C313 H296 0.939 . S
C313 C308 1.400 1_554 S
C313 C312 1.389 . S
C314 P288 1.819 . S
C314 C315 1.391 . S
C314 C319 1.391 . S
C315 H297 0.941 . S
C315 C314 1.391 . S
C315 C316 1.396 . S
C316 H300 0.939 . S
C316 C315 1.396 . S
C316 C317 1.397 . S
C317 C316 1.397 . S
C317 C318 1.385 1_556 S
C318 H301 0.940 . S
C318 C317 1.385 1_554 S
C318 C319 1.388 1_554 S
C319 H298 0.939 1_556 S
C319 C314 1.391 . S
C319 C318 1.388 1_556 S
P320 O331 1.490 . S
P320 C334 1.812 . S
P320 C340 1.803 . S
P320 C346 1.819 . S
H321 C335 0.941 . S
H322 C336 0.939 . S
H323 C338 0.940 . S
H324 C339 0.955 . S
H325 C341 0.939 . S
H326 C342 0.942 . S
H327 C344 0.940 . S
H328 C345 0.963 . S
H329 C347 0.941 . S
H330 C351 0.926 1_554 S
O331 P320 1.490 . S
H332 C348 0.939 . S
H333 C350 0.940 . S
C334 P320 1.812 . S
C334 C335 1.389 . S
C334 C339 1.367 1_556 S
C335 H321 0.941 . S
C335 C334 1.389 . S
C335 C336 1.397 . S
C336 H322 0.939 . S
C336 C335 1.397 . S
C336 C337 1.378 . S
C337 C336 1.378 . S
C337 C338 1.378 1_556 S
C338 H323 0.940 . S
C338 C337 1.378 1_554 S
C338 C339 1.406 . S
C339 H324 0.955 . S
C339 C334 1.367 1_554 S
C339 C338 1.406 . S
C340 P320 1.803 . S
C340 C341 1.378 . S
C340 C345 1.362 1_556 S
C341 H325 0.939 . S
C341 C340 1.378 . S
C341 C342 1.361 . S
C342 H326 0.942 . S
C342 C341 1.361 . S
C342 C343 1.369 . S
C343 C342 1.369 . S
C343 C344 1.404 1_556 S
C344 H327 0.940 . S
C344 C343 1.404 1_554 S
C344 C345 1.404 . S
C345 H328 0.963 . S
C345 C340 1.362 1_554 S
C345 C344 1.404 . S
C346 P320 1.819 . S
C346 C347 1.391 . S
C346 C351 1.391 . S
C347 H329 0.941 . S
C347 C346 1.391 . S
C347 C348 1.396 . S
C348 H332 0.939 . S
C348 C347 1.396 . S
C348 C349 1.397 . S
C349 C348 1.397 . S
C349 C350 1.385 1_556 S
C350 H333 0.940 . S
C350 C349 1.385 1_554 S
C350 C351 1.388 1_554 S
C351 H330 0.926 1_556 S
C351 C346 1.391 . S
C351 C350 1.388 1_556 S
P352 O363 1.490 . S
P352 C366 1.812 . S
P352 C372 1.803 . S
P352 C378 1.819 . S
H353 C367 0.941 . S
H354 C368 0.939 . S
H355 C370 0.940 . S
H356 C371 0.940 . S
H357 C373 0.939 . S
H358 C374 0.942 . S
H359 C376 0.940 . S
H360 C377 0.950 . S
H361 C379 0.941 . S
H362 C383 0.935 1_556 S
O363 P352 1.490 . S
H364 C380 0.939 . S
H365 C382 0.940 . S
C366 P352 1.812 . S
C366 C367 1.389 . S
C366 C371 1.392 1_554 S
C367 H353 0.941 . S
C367 C366 1.389 . S
C367 C368 1.397 . S
C368 H354 0.939 . S
C368 C367 1.397 . S
C368 C369 1.378 . S
C369 C368 1.378 . S
C369 C370 1.378 1_554 S
C370 H355 0.940 . S
C370 C369 1.378 1_556 S
C370 C371 1.396 . S
C371 H356 0.940 . S
C371 C366 1.392 1_556 S
C371 C370 1.396 . S
C372 P352 1.803 . S
C372 C373 1.378 . S
C372 C377 1.383 1_554 S
C373 H357 0.939 . S
C373 C372 1.378 . S
C373 C374 1.361 . S
C374 H358 0.942 . S
C374 C373 1.361 . S
C374 C375 1.369 . S
C375 C374 1.369 . S
C375 C376 1.404 1_554 S
C376 H359 0.940 . S
C376 C375 1.404 1_556 S
C376 C377 1.396 . S
C377 H360 0.950 . S
C377 C372 1.383 1_556 S
C377 C376 1.396 . S
C378 P352 1.819 . S
C378 C379 1.391 . S
C378 C383 1.391 . S
C379 H361 0.941 . S
C379 C378 1.391 . S
C379 C380 1.396 . S
C380 H364 0.939 . S
C380 C379 1.396 . S
C380 C381 1.397 . S
C381 C380 1.397 . S
C381 C382 1.385 1_554 S
C382 H365 0.940 . S
C382 C381 1.385 1_556 S
C382 C383 1.388 1_556 S
C383 H362 0.935 1_554 S
C383 C378 1.391 . S
C383 C382 1.388 1_554 S
P384 O395 1.490 . S
P384 C398 1.812 . S
P384 C404 1.803 . S
P384 C410 1.819 . S
H385 C399 0.941 . S
H386 C400 0.939 . S
H387 C402 0.940 . S
H388 C403 0.940 . S
H389 C405 0.939 . S
H390 C406 0.942 . S
H391 C408 0.940 . S
H392 C409 0.939 . S
H393 C411 0.941 . S
H394 C415 0.939 . S
O395 P384 1.490 . S
H396 C412 0.939 . S
H397 C414 0.940 . S
C398 P384 1.812 . S
C398 C399 1.389 . S
C398 C403 1.391 . S
C399 H385 0.941 . S
C399 C398 1.389 . S
C399 C400 1.397 . S
C400 H386 0.939 . S
C400 C399 1.397 . S
C400 C401 1.378 . S
C401 C400 1.378 . S
C401 C402 1.378 . S
C402 H387 0.940 . S
C402 C401 1.378 . S
C402 C403 1.396 . S
C403 H388 0.940 . S
C403 C398 1.391 . S
C403 C402 1.396 . S
C404 P384 1.803 . S
C404 C405 1.378 . S
C404 C409 1.400 . S
C405 H389 0.939 . S
C405 C404 1.378 . S
C405 C406 1.361 . S
C406 H390 0.942 . S
C406 C405 1.361 . S
C406 C407 1.369 . S
C407 C406 1.369 . S
C407 C408 1.404 . S
C408 H391 0.940 . S
C408 C407 1.404 . S
C408 C409 1.389 . S
C409 H392 0.939 . S
C409 C404 1.400 . S
C409 C408 1.389 . S
C410 P384 1.819 . S
C410 C411 1.391 . S
C410 C415 1.391 . S
C411 H393 0.941 . S
C411 C410 1.391 . S
C411 C412 1.396 . S
C412 H396 0.939 . S
C412 C411 1.396 . S
C412 C413 1.397 . S
C413 C412 1.397 . S
C413 C414 1.385 . S
C414 H397 0.940 . S
C414 C413 1.385 . S
C414 C415 1.388 . S
C415 H394 0.939 . S
C415 C410 1.391 . S
C415 C414 1.388 . S
P416 O427 1.490 . S
P416 C430 1.812 . S
P416 C436 1.803 . S
P416 C442 1.819 . S
H417 C431 0.941 . S
H418 C432 0.939 . S
H419 C434 0.940 . S
H420 C435 0.940 . S
H421 C437 0.939 . S
H422 C438 0.942 . S
H423 C440 0.940 . S
H424 C441 0.939 . S
H425 C443 0.941 . S
H426 C447 0.939 . S
O427 P416 1.490 . S
H428 C444 0.939 . S
H429 C446 0.940 . S
C430 P416 1.812 . S
C430 C431 1.389 . S
C430 C435 1.391 . S
C431 H417 0.941 . S
C431 C430 1.389 . S
C431 C432 1.397 . S
C432 H418 0.939 . S
C432 C431 1.397 . S
C432 C433 1.378 . S
C433 C432 1.378 . S
C433 C434 1.378 . S
C434 H419 0.940 . S
C434 C433 1.378 . S
C434 C435 1.396 . S
C435 H420 0.940 . S
C435 C430 1.391 . S
C435 C434 1.396 . S
C436 P416 1.803 . S
C436 C437 1.378 . S
C436 C441 1.400 . S
C437 H421 0.939 . S
C437 C436 1.378 . S
C437 C438 1.361 . S
C438 H422 0.942 . S
C438 C437 1.361 . S
C438 C439 1.369 . S
C439 C438 1.369 . S
C439 C440 1.404 . S
C440 H423 0.940 . S
C440 C439 1.404 . S
C440 C441 1.389 . S
C441 H424 0.939 . S
C441 C436 1.400 . S
C441 C440 1.389 . S
C442 P416 1.819 . S
C442 C443 1.391 . S
C442 C447 1.391 . S
C443 H425 0.941 . S
C443 C442 1.391 . S
C443 C444 1.396 . S
C444 H428 0.939 . S
C444 C443 1.396 . S
C444 C445 1.397 . S
C445 C444 1.397 . S
C445 C446 1.385 . S
C446 H429 0.940 . S
C446 C445 1.385 . S
C446 C447 1.388 . S
C447 H426 0.939 . S
C447 C442 1.391 . S
C447 C446 1.388 . S
P448 O459 1.490 . S
P448 C462 1.812 . S
P448 C468 1.803 . S
P448 C474 1.819 . S
H449 C463 0.941 . S
H450 C464 0.939 . S
H451 C466 0.940 . S
H452 C467 0.940 . S
H453 C469 0.939 . S
H454 C470 0.942 . S
H455 C472 0.940 . S
H456 C473 0.939 . S
H457 C475 0.941 . S
H458 C479 0.939 . S
O459 P448 1.490 . S
H460 C476 0.939 . S
H461 C478 0.940 . S
C462 P448 1.812 . S
C462 C463 1.389 . S
C462 C467 1.391 . S
C463 H449 0.941 . S
C463 C462 1.389 . S
C463 C464 1.397 . S
C464 H450 0.939 . S
C464 C463 1.397 . S
C464 C465 1.378 . S
C465 C464 1.378 . S
C465 C466 1.378 . S
C466 H451 0.940 . S
C466 C465 1.378 . S
C466 C467 1.396 . S
C467 H452 0.940 . S
C467 C462 1.391 . S
C467 C466 1.396 . S
C468 P448 1.803 . S
C468 C469 1.378 . S
C468 C473 1.400 . S
C469 H453 0.939 . S
C469 C468 1.378 . S
C469 C470 1.361 . S
C470 H454 0.942 . S
C470 C469 1.361 . S
C470 C471 1.369 . S
C471 C470 1.369 . S
C471 C472 1.404 . S
C472 H455 0.940 . S
C472 C471 1.404 . S
C472 C473 1.389 . S
C473 H456 0.939 . S
C473 C468 1.400 . S
C473 C472 1.389 . S
C474 P448 1.819 . S
C474 C475 1.391 . S
C474 C479 1.391 . S
C475 H457 0.941 . S
C475 C474 1.391 . S
C475 C476 1.396 . S
C476 H460 0.939 . S
C476 C475 1.396 . S
C476 C477 1.397 . S
C477 C476 1.397 . S
C477 C478 1.385 . S
C478 H461 0.940 . S
C478 C477 1.385 . S
C478 C479 1.388 . S
C479 H458 0.939 . S
C479 C474 1.391 . S
C479 C478 1.388 . S
P480 O491 1.490 . S
P480 C494 1.812 . S
P480 C500 1.803 . S
P480 C506 1.819 . S
H481 C495 0.941 . S
H482 C496 0.939 . S
H483 C498 0.940 . S
H484 C499 0.940 . S
H485 C501 0.939 . S
H486 C502 0.942 . S
H487 C504 0.940 . S
H488 C505 0.939 . S
H489 C507 0.941 . S
H490 C511 0.939 . S
O491 P480 1.490 . S
H492 C508 0.939 . S
H493 C510 0.940 . S
C494 P480 1.812 . S
C494 C495 1.389 . S
C494 C499 1.391 . S
C495 H481 0.941 . S
C495 C494 1.389 . S
C495 C496 1.397 . S
C496 H482 0.939 . S
C496 C495 1.397 . S
C496 C497 1.378 . S
C497 C496 1.378 . S
C497 C498 1.378 . S
C498 H483 0.940 . S
C498 C497 1.378 . S
C498 C499 1.396 . S
C499 H484 0.940 . S
C499 C494 1.391 . S
C499 C498 1.396 . S
C500 P480 1.803 . S
C500 C501 1.378 . S
C500 C505 1.400 . S
C501 H485 0.939 . S
C501 C500 1.378 . S
C501 C502 1.361 . S
C502 H486 0.942 . S
C502 C501 1.361 . S
C502 C503 1.369 . S
C503 C502 1.369 . S
C503 C504 1.404 . S
C504 H487 0.940 . S
C504 C503 1.404 . S
C504 C505 1.389 . S
C505 H488 0.939 . S
C505 C500 1.400 . S
C505 C504 1.389 . S
C506 P480 1.819 . S
C506 C507 1.391 . S
C506 C511 1.391 . S
C507 H489 0.941 . S
C507 C506 1.391 . S
C507 C508 1.396 . S
C508 H492 0.939 . S
C508 C507 1.396 . S
C508 C509 1.397 . S
C509 C508 1.397 . S
C509 C510 1.385 . S
C510 H493 0.940 . S
C510 C509 1.385 . S
C510 C511 1.388 . S
C511 H490 0.939 . S
C511 C506 1.391 . S
C511 C510 1.388 . S
P512 O523 1.490 . S
P512 C526 1.812 . S
P512 C532 1.803 . S
P512 C538 1.819 . S
H513 C527 0.941 . S
H514 C528 0.939 . S
H515 C530 0.940 . S
H516 C531 0.940 . S
H517 C533 0.939 . S
H518 C534 0.942 . S
H519 C536 0.940 . S
H520 C537 0.939 . S
H521 C539 0.941 . S
H522 C543 0.939 . S
O523 P512 1.490 . S
H524 C540 0.939 . S
H525 C542 0.940 . S
C526 P512 1.812 . S
C526 C527 1.389 . S
C526 C531 1.391 . S
C527 H513 0.941 . S
C527 C526 1.389 . S
C527 C528 1.397 . S
C528 H514 0.939 . S
C528 C527 1.397 . S
C528 C529 1.378 . S
C529 C528 1.378 . S
C529 C530 1.378 . S
C530 H515 0.940 . S
C530 C529 1.378 . S
C530 C531 1.396 . S
C531 H516 0.940 . S
C531 C526 1.391 . S
C531 C530 1.396 . S
C532 P512 1.803 . S
C532 C533 1.378 . S
C532 C537 1.400 . S
C533 H517 0.939 . S
C533 C532 1.378 . S
C533 C534 1.361 . S
C534 H518 0.942 . S
C534 C533 1.361 . S
C534 C535 1.369 . S
C535 C534 1.369 . S
C535 C536 1.404 . S
C536 H519 0.940 . S
C536 C535 1.404 . S
C536 C537 1.389 . S
C537 H520 0.939 . S
C537 C532 1.400 . S
C537 C536 1.389 . S
C538 P512 1.819 . S
C538 C539 1.391 . S
C538 C543 1.391 . S
C539 H521 0.941 . S
C539 C538 1.391 . S
C539 C540 1.396 . S
C540 H524 0.939 . S
C540 C539 1.396 . S
C540 C541 1.397 . S
C541 C540 1.397 . S
C541 C542 1.385 . S
C542 H525 0.940 . S
C542 C541 1.385 . S
C542 C543 1.388 . S
C543 H522 0.939 . S
C543 C538 1.391 . S
C543 C542 1.388 . S
P544 O555 1.490 . S
P544 C558 1.812 . S
P544 C564 1.803 . S
P544 C570 1.819 . S
H545 C559 0.941 . S
H546 C560 0.939 . S
H547 C562 0.940 . S
H548 C563 0.940 . S
H549 C565 0.939 . S
H550 C566 0.942 . S
H551 C568 0.940 . S
H552 C569 0.939 . S
H553 C571 0.941 . S
H554 C575 0.939 . S
O555 P544 1.490 . S
H556 C572 0.939 . S
H557 C574 0.940 . S
C558 P544 1.812 . S
C558 C559 1.389 . S
C558 C563 1.391 . S
C559 H545 0.941 . S
C559 C558 1.389 . S
C559 C560 1.397 . S
C560 H546 0.939 . S
C560 C559 1.397 . S
C560 C561 1.378 . S
C561 C560 1.378 . S
C561 C562 1.378 . S
C562 H547 0.940 . S
C562 C561 1.378 . S
C562 C563 1.396 . S
C563 H548 0.940 . S
C563 C558 1.391 . S
C563 C562 1.396 . S
C564 P544 1.803 . S
C564 C565 1.378 . S
C564 C569 1.400 . S
C565 H549 0.939 . S
C565 C564 1.378 . S
C565 C566 1.361 . S
C566 H550 0.942 . S
C566 C565 1.361 . S
C566 C567 1.369 . S
C567 C566 1.369 . S
C567 C568 1.404 . S
C568 H551 0.940 . S
C568 C567 1.404 . S
C568 C569 1.389 . S
C569 H552 0.939 . S
C569 C564 1.400 . S
C569 C568 1.389 . S
C570 P544 1.819 . S
C570 C571 1.391 . S
C570 C575 1.391 . S
C571 H553 0.941 . S
C571 C570 1.391 . S
C571 C572 1.396 . S
C572 H556 0.939 . S
C572 C571 1.396 . S
C572 C573 1.397 . S
C573 C572 1.397 . S
C573 C574 1.385 . S
C574 H557 0.940 . S
C574 C573 1.385 . S
C574 C575 1.388 . S
C575 H554 0.939 . S
C575 C570 1.391 . S
C575 C574 1.388 . S
P576 O587 1.490 . S
P576 C590 1.812 . S
P576 C596 1.803 . S
P576 C602 1.819 . S
H577 C591 0.941 . S
H578 C592 0.939 . S
H579 C594 0.940 . S
H580 C595 0.940 . S
H581 C597 0.939 . S
H582 C598 0.942 . S
H583 C600 0.940 . S
H584 C601 0.939 . S
H585 C603 0.941 . S
H586 C607 0.939 . S
O587 P576 1.490 . S
H588 C604 0.939 . S
H589 C606 0.940 . S
C590 P576 1.812 . S
C590 C591 1.389 . S
C590 C595 1.391 . S
C591 H577 0.941 . S
C591 C590 1.389 . S
C591 C592 1.397 . S
C592 H578 0.939 . S
C592 C591 1.397 . S
C592 C593 1.378 . S
C593 C592 1.378 . S
C593 C594 1.378 . S
C594 H579 0.940 . S
C594 C593 1.378 . S
C594 C595 1.396 . S
C595 H580 0.940 . S
C595 C590 1.391 . S
C595 C594 1.396 . S
C596 P576 1.803 . S
C596 C597 1.378 . S
C596 C601 1.400 . S
C597 H581 0.939 . S
C597 C596 1.378 . S
C597 C598 1.361 . S
C598 H582 0.942 . S
C598 C597 1.361 . S
C598 C599 1.369 . S
C599 C598 1.369 . S
C599 C600 1.404 . S
C600 H583 0.940 . S
C600 C599 1.404 . S
C600 C601 1.389 . S
C601 H584 0.939 . S
C601 C596 1.400 . S
C601 C600 1.389 . S
C602 P576 1.819 . S
C602 C603 1.391 . S
C602 C607 1.391 . S
C603 H585 0.941 . S
C603 C602 1.391 . S
C603 C604 1.396 . S
C604 H588 0.939 . S
C604 C603 1.396 . S
C604 C605 1.397 . S
C605 C604 1.397 . S
C605 C606 1.385 . S
C606 H589 0.940 . S
C606 C605 1.385 . S
C606 C607 1.388 . S
C607 H586 0.939 . S
C607 C602 1.391 . S
C607 C606 1.388 . S
P608 O619 1.490 . S
P608 C622 1.812 . S
P608 C628 1.803 . S
P608 C634 1.819 . S
H609 C623 0.941 . S
H610 C624 0.939 . S
H611 C626 0.940 . S
H612 C627 0.940 . S
H613 C629 0.939 . S
H614 C630 0.942 . S
H615 C632 0.940 . S
H616 C633 0.939 . S
H617 C635 0.941 . S
H618 C639 0.939 . S
O619 P608 1.490 . S
H620 C636 0.939 . S
H621 C638 0.940 . S
C622 P608 1.812 . S
C622 C623 1.389 . S
C622 C627 1.391 . S
C623 H609 0.941 . S
C623 C622 1.389 . S
C623 C624 1.397 . S
C624 H610 0.939 . S
C624 C623 1.397 . S
C624 C625 1.378 . S
C625 C624 1.378 . S
C625 C626 1.378 . S
C626 H611 0.940 . S
C626 C625 1.378 . S
C626 C627 1.396 . S
C627 H612 0.940 . S
C627 C622 1.391 . S
C627 C626 1.396 . S
C628 P608 1.803 . S
C628 C629 1.378 . S
C628 C633 1.400 . S
C629 H613 0.939 . S
C629 C628 1.378 . S
C629 C630 1.361 . S
C630 H614 0.942 . S
C630 C629 1.361 . S
C630 C631 1.369 . S
C631 C630 1.369 . S
C631 C632 1.404 . S
C632 H615 0.940 . S
C632 C631 1.404 . S
C632 C633 1.389 . S
C633 H616 0.939 . S
C633 C628 1.400 . S
C633 C632 1.389 . S
C634 P608 1.819 . S
C634 C635 1.391 . S
C634 C639 1.391 . S
C635 H617 0.941 . S
C635 C634 1.391 . S
C635 C636 1.396 . S
C636 H620 0.939 . S
C636 C635 1.396 . S
C636 C637 1.397 . S
C637 C636 1.397 . S
C637 C638 1.385 . S
C638 H621 0.940 . S
C638 C637 1.385 . S
C638 C639 1.388 . S
C639 H618 0.939 . S
C639 C634 1.391 . S
C639 C638 1.388 . S
P640 O651 1.490 . S
P640 C654 1.812 . S
P640 C660 1.803 . S
P640 C666 1.819 . S
H641 C655 0.941 . S
H642 C656 0.939 . S
H643 C658 0.940 . S
H644 C659 0.940 . S
H645 C661 0.939 . S
H646 C662 0.942 . S
H647 C664 0.940 . S
H648 C665 0.939 . S
H649 C667 0.941 . S
H650 C671 0.939 . S
O651 P640 1.490 . S
H652 C668 0.939 . S
H653 C670 0.940 . S
C654 P640 1.812 . S
C654 C655 1.389 . S
C654 C659 1.391 . S
C655 H641 0.941 . S
C655 C654 1.389 . S
C655 C656 1.397 . S
C656 H642 0.939 . S
C656 C655 1.397 . S
C656 C657 1.378 . S
C657 C656 1.378 . S
C657 C658 1.378 . S
C658 H643 0.940 . S
C658 C657 1.378 . S
C658 C659 1.396 . S
C659 H644 0.940 . S
C659 C654 1.391 . S
C659 C658 1.396 . S
C660 P640 1.803 . S
C660 C661 1.378 . S
C660 C665 1.400 . S
C661 H645 0.939 . S
C661 C660 1.378 . S
C661 C662 1.361 . S
C662 H646 0.942 . S
C662 C661 1.361 . S
C662 C663 1.369 . S
C663 C662 1.369 . S
C663 C664 1.404 . S
C664 H647 0.940 . S
C664 C663 1.404 . S
C664 C665 1.389 . S
C665 H648 0.939 . S
C665 C660 1.400 . S
C665 C664 1.389 . S
C666 P640 1.819 . S
C666 C667 1.391 . S
C666 C671 1.391 . S
C667 H649 0.941 . S
C667 C666 1.391 . S
C667 C668 1.396 . S
C668 H652 0.939 . S
C668 C667 1.396 . S
C668 C669 1.397 . S
C669 C668 1.397 . S
C669 C670 1.385 . S
C670 H653 0.940 . S
C670 C669 1.385 . S
C670 C671 1.388 . S
C671 H650 0.939 . S
C671 C666 1.391 . S
C671 C670 1.388 . S
P672 O683 1.490 . S
P672 C686 1.812 . S
P672 C692 1.803 . S
P672 C698 1.819 . S
H673 C687 0.941 . S
H674 C688 0.939 . S
H675 C690 0.940 . S
H676 C691 0.940 . S
H677 C693 0.939 . S
H678 C694 0.942 . S
H679 C696 0.940 . S
H680 C697 0.939 . S
H681 C699 0.941 . S
H682 C703 0.939 . S
O683 P672 1.490 . S
H684 C700 0.939 . S
H685 C702 0.940 . S
C686 P672 1.812 . S
C686 C687 1.389 . S
C686 C691 1.391 . S
C687 H673 0.941 . S
C687 C686 1.389 . S
C687 C688 1.397 . S
C688 H674 0.939 . S
C688 C687 1.397 . S
C688 C689 1.378 . S
C689 C688 1.378 . S
C689 C690 1.378 . S
C690 H675 0.940 . S
C690 C689 1.378 . S
C690 C691 1.396 . S
C691 H676 0.940 . S
C691 C686 1.391 . S
C691 C690 1.396 . S
C692 P672 1.803 . S
C692 C693 1.378 . S
C692 C697 1.400 . S
C693 H677 0.939 . S
C693 C692 1.378 . S
C693 C694 1.361 . S
C694 H678 0.942 . S
C694 C693 1.361 . S
C694 C695 1.369 . S
C695 C694 1.369 . S
C695 C696 1.404 . S
C696 H679 0.940 . S
C696 C695 1.404 . S
C696 C697 1.389 . S
C697 H680 0.939 . S
C697 C692 1.400 . S
C697 C696 1.389 . S
C698 P672 1.819 . S
C698 C699 1.391 . S
C698 C703 1.391 . S
C699 H681 0.941 . S
C699 C698 1.391 . S
C699 C700 1.396 . S
C700 H684 0.939 . S
C700 C699 1.396 . S
C700 C701 1.397 . S
C701 C700 1.397 . S
C701 C702 1.385 . S
C702 H685 0.940 . S
C702 C701 1.385 . S
C702 C703 1.388 . S
C703 H682 0.939 . S
C703 C698 1.391 . S
C703 C702 1.388 . S
P704 O715 1.490 . S
P704 C718 1.812 . S
P704 C724 1.803 . S
P704 C730 1.819 . S
H705 C719 0.941 . S
H706 C720 0.939 . S
H707 C722 0.940 . S
H708 C723 0.940 . S
H709 C725 0.939 . S
H710 C726 0.942 . S
H711 C728 0.940 . S
H712 C729 0.939 . S
H713 C731 0.941 . S
H714 C735 0.939 . S
O715 P704 1.490 . S
H716 C732 0.939 . S
H717 C734 0.940 . S
C718 P704 1.812 . S
C718 C719 1.389 . S
C718 C723 1.391 . S
C719 H705 0.941 . S
C719 C718 1.389 . S
C719 C720 1.397 . S
C720 H706 0.939 . S
C720 C719 1.397 . S
C720 C721 1.378 . S
C721 C720 1.378 . S
C721 C722 1.378 . S
C722 H707 0.940 . S
C722 C721 1.378 . S
C722 C723 1.396 . S
C723 H708 0.940 . S
C723 C718 1.391 . S
C723 C722 1.396 . S
C724 P704 1.803 . S
C724 C725 1.378 . S
C724 C729 1.400 . S
C725 H709 0.939 . S
C725 C724 1.378 . S
C725 C726 1.361 . S
C726 H710 0.942 . S
C726 C725 1.361 . S
C726 C727 1.369 . S
C727 C726 1.369 . S
C727 C728 1.404 . S
C728 H711 0.940 . S
C728 C727 1.404 . S
C728 C729 1.389 . S
C729 H712 0.939 . S
C729 C724 1.400 . S
C729 C728 1.389 . S
C730 P704 1.819 . S
C730 C731 1.391 . S
C730 C735 1.391 . S
C731 H713 0.941 . S
C731 C730 1.391 . S
C731 C732 1.396 . S
C732 H716 0.939 . S
C732 C731 1.396 . S
C732 C733 1.397 . S
C733 C732 1.397 . S
C733 C734 1.385 . S
C734 H717 0.940 . S
C734 C733 1.385 . S
C734 C735 1.388 . S
C735 H714 0.939 . S
C735 C730 1.391 . S
C735 C734 1.388 . S
P736 O747 1.490 . S
P736 C750 1.812 . S
P736 C756 1.803 . S
P736 C762 1.819 . S
H737 C751 0.941 . S
H738 C752 0.939 . S
H739 C754 0.940 . S
H740 C755 0.940 . S
H741 C757 0.939 . S
H742 C758 0.942 . S
H743 C760 0.940 . S
H744 C761 0.939 . S
H745 C763 0.941 . S
H746 C767 0.939 . S
O747 P736 1.490 . S
H748 C764 0.939 . S
H749 C766 0.940 . S
C750 P736 1.812 . S
C750 C751 1.389 . S
C750 C755 1.391 . S
C751 H737 0.941 . S
C751 C750 1.389 . S
C751 C752 1.397 . S
C752 H738 0.939 . S
C752 C751 1.397 . S
C752 C753 1.378 . S
C753 C752 1.378 . S
C753 C754 1.378 . S
C754 H739 0.940 . S
C754 C753 1.378 . S
C754 C755 1.396 . S
C755 H740 0.940 . S
C755 C750 1.391 . S
C755 C754 1.396 . S
C756 P736 1.803 . S
C756 C757 1.378 . S
C756 C761 1.400 . S
C757 H741 0.939 . S
C757 C756 1.378 . S
C757 C758 1.361 . S
C758 H742 0.942 . S
C758 C757 1.361 . S
C758 C759 1.369 . S
C759 C758 1.369 . S
C759 C760 1.404 . S
C760 H743 0.940 . S
C760 C759 1.404 . S
C760 C761 1.389 . S
C761 H744 0.939 . S
C761 C756 1.400 . S
C761 C760 1.389 . S
C762 P736 1.819 . S
C762 C763 1.391 . S
C762 C767 1.391 . S
C763 H745 0.941 . S
C763 C762 1.391 . S
C763 C764 1.396 . S
C764 H748 0.939 . S
C764 C763 1.396 . S
C764 C765 1.397 . S
C765 C764 1.397 . S
C765 C766 1.385 . S
C766 H749 0.940 . S
C766 C765 1.385 . S
C766 C767 1.388 . S
C767 H746 0.939 . S
C767 C762 1.391 . S
C767 C766 1.388 . S
C768 O794 1.283 . S
C768 O812 1.283 . S
C769 O795 1.283 . S
C769 O810 1.283 . S
C770 O796 1.283 . S
C770 O813 1.283 . S
C771 O797 1.283 . S
C771 O811 1.283 . S
C772 O798 1.283 . S
C772 O807 1.283 . S
C773 O799 1.283 . S
C773 O809 1.283 . S
C774 O800 1.283 . S
C774 O806 1.283 . S
C775 O801 1.283 . S
C775 O808 1.283 . S
C776 O802 1.283 . S
C776 O817 1.283 . S
C777 O803 1.283 . S
C777 O815 1.283 . S
C778 O804 1.283 . S
C778 O816 1.283 . S
C779 O805 1.283 . S
C779 O814 1.283 . S
Eu780 O781 2.370 1_455 S
Eu780 O782 2.370 . S
Eu780 O785 2.370 1_455 S
Eu780 O786 2.370 . S
Eu780 O794 2.363 . S
Eu780 O795 2.363 . S
Eu780 O808 2.363 . S
Eu780 O809 2.363 1_455 S
O781 Eu780 2.370 1_655 S
O781 Eu783 2.349 1_565 S
O781 Eu788 2.348 1_665 S
O782 Eu780 2.370 . S
O782 Eu784 2.347 1_565 S
O782 Eu787 2.348 1_565 S
Eu783 O781 2.349 1_545 S
Eu783 O785 2.349 1_545 S
Eu783 O789 2.392 . S
Eu783 O790 2.392 . S
Eu783 O798 2.399 . S
Eu783 O799 2.327 1_545 S
Eu783 O814 2.363 . S
Eu783 O815 2.363 . S
Eu784 O782 2.347 1_545 S
Eu784 O786 2.347 1_545 S
Eu784 O791 2.393 . S
Eu784 O792 2.393 . S
Eu784 O800 2.402 . S
Eu784 O801 2.324 1_545 S
Eu784 O816 2.363 . S
Eu784 O817 2.363 . S
O785 Eu780 2.370 1_655 S
O785 Eu783 2.349 1_565 S
O785 Eu787 2.348 1_665 S
O786 Eu780 2.370 . S
O786 Eu784 2.347 1_565 S
O786 Eu788 2.348 1_565 S
Eu787 O782 2.348 1_545 S
Eu787 O785 2.348 1_445 S
Eu787 O789 2.392 1_455 S
Eu787 O792 2.392 . S
Eu787 O804 2.363 . S
Eu787 O805 2.363 1_455 S
Eu787 O812 2.326 1_545 S
Eu787 O813 2.400 . S
Eu788 O781 2.348 1_445 S
Eu788 O786 2.348 1_545 S
Eu788 O790 2.392 1_455 S
Eu788 O791 2.392 . S
Eu788 O802 2.363 . S
Eu788 O803 2.363 1_455 S
Eu788 O810 2.326 1_545 S
Eu788 O811 2.400 . S
O789 Eu783 2.392 . S
O789 Eu787 2.392 1_655 S
O789 Eu793 2.370 1_655 S
O790 Eu783 2.392 . S
O790 Eu788 2.392 1_655 S
O790 Eu793 2.370 1_655 S
O791 Eu784 2.393 . S
O791 Eu788 2.392 . S
O791 Eu793 2.370 . S
O792 Eu784 2.393 . S
O792 Eu787 2.392 . S
O792 Eu793 2.370 . S
Eu793 O789 2.370 1_455 S
Eu793 O790 2.370 1_455 S
Eu793 O791 2.370 . S
Eu793 O792 2.370 . S
Eu793 O796 2.363 . S
Eu793 O797 2.363 . S
Eu793 O806 2.363 . S
Eu793 O807 2.363 1_455 S
O794 C768 1.283 . S
O794 Eu780 2.363 . S
O795 C769 1.283 . S
O795 Eu780 2.363 . S
O796 C770 1.283 . S
O796 Eu793 2.363 . S
O797 C771 1.283 . S
O797 Eu793 2.363 . S
O798 C772 1.283 . S
O798 Eu783 2.399 . S
O799 C773 1.283 . S
O799 Eu783 2.327 1_565 S
O800 C774 1.283 . S
O800 Eu784 2.402 . S
O801 C775 1.283 . S
O801 Eu784 2.324 1_565 S
O802 C776 1.283 . S
O802 Eu788 2.363 . S
O803 C777 1.283 . S
O803 Eu788 2.363 1_655 S
O804 C778 1.283 . S
O804 Eu787 2.363 . S
O805 C779 1.283 . S
O805 Eu787 2.363 1_655 S
O806 C774 1.283 . S
O806 Eu793 2.363 . S
O807 C772 1.283 . S
O807 Eu793 2.363 1_655 S
O808 C775 1.283 . S
O808 Eu780 2.363 . S
O809 C773 1.283 . S
O809 Eu780 2.363 1_655 S
O810 C769 1.283 . S
O810 Eu788 2.326 1_565 S
O811 C771 1.283 . S
O811 Eu788 2.400 . S
O812 C768 1.283 . S
O812 Eu787 2.326 1_565 S
O813 C770 1.283 . S
O813 Eu787 2.400 . S
O814 C779 1.283 . S
O814 Eu783 2.363 . S
O815 C777 1.283 . S
O815 Eu783 2.363 . S
O816 C778 1.283 . S
O816 Eu784 2.363 . S
O817 C776 1.283 . S
O817 Eu784 2.363 . S
C818 O844 1.283 . S
C818 O862 1.283 . S
C819 O845 1.283 . S
C819 O860 1.283 . S
C820 O846 1.283 . S
C820 O863 1.283 . S
C821 O847 1.283 . S
C821 O861 1.283 . S
C822 O848 1.283 . S
C822 O857 1.283 . S
C823 O849 1.283 . S
C823 O859 1.283 . S
C824 O850 1.283 . S
C824 O856 1.283 . S
C825 O851 1.283 . S
C825 O858 1.283 . S
C826 O852 1.283 . S
C826 O867 1.283 . S
C827 O853 1.283 . S
C827 O865 1.283 . S
C828 O854 1.283 . S
C828 O866 1.283 . S
C829 O855 1.283 . S
C829 O864 1.283 . S
Eu830 O831 2.370 . S
Eu830 O832 2.370 1_545 S
Eu830 O835 2.370 1_545 S
Eu830 O836 2.370 . S
Eu830 O844 2.363 1_545 S
Eu830 O845 2.363 . S
Eu830 O858 2.363 . S
Eu830 O859 2.363 . S
O831 Eu830 2.370 . S
O831 Eu833 2.370 . S
O831 Eu838 2.370 . S
O832 Eu830 2.370 1_565 S
O832 Eu834 2.370 1_565 S
O832 Eu837 2.370 . S
Eu833 O831 2.370 . S
Eu833 O835 2.370 1_545 S
Eu833 O839 2.370 1_544 S
Eu833 O840 2.370 1_554 S
Eu833 O848 2.363 1_554 S
Eu833 O849 2.363 . S
Eu833 O864 2.363 1_545 S
Eu833 O865 2.363 . S
Eu834 O832 2.370 1_545 S
Eu834 O836 2.370 . S
Eu834 O841 2.370 1_554 S
Eu834 O842 2.370 1_544 S
Eu834 O850 2.363 1_554 S
Eu834 O851 2.363 . S
Eu834 O866 2.363 1_545 S
Eu834 O867 2.363 . S
O835 Eu830 2.370 1_565 S
O835 Eu833 2.370 1_565 S
O835 Eu837 2.370 . S
O836 Eu830 2.370 . S
O836 Eu834 2.370 . S
O836 Eu838 2.370 . S
Eu837 O832 2.370 . S
Eu837 O835 2.370 . S
Eu837 O839 2.370 1_554 S
Eu837 O842 2.370 1_554 S
Eu837 O854 2.363 . S
Eu837 O855 2.363 . S
Eu837 O862 2.363 . S
Eu837 O863 2.363 1_554 S
Eu838 O831 2.370 . S
Eu838 O836 2.370 . S
Eu838 O840 2.370 1_554 S
Eu838 O841 2.370 1_554 S
Eu838 O852 2.363 . S
Eu838 O853 2.363 . S
Eu838 O860 2.363 . S
Eu838 O861 2.363 1_554 S
O839 Eu833 2.370 1_566 S
O839 Eu837 2.370 1_556 S
O839 Eu843 2.370 1_565 S
O840 Eu833 2.370 1_556 S
O840 Eu838 2.370 1_556 S
O840 Eu843 2.370 . S
O841 Eu834 2.370 1_556 S
O841 Eu838 2.370 1_556 S
O841 Eu843 2.370 . S
O842 Eu834 2.370 1_566 S
O842 Eu837 2.370 1_556 S
O842 Eu843 2.370 1_565 S
Eu843 O839 2.370 1_545 S
Eu843 O840 2.370 . S
Eu843 O841 2.370 . S
Eu843 O842 2.370 1_545 S
Eu843 O846 2.363 1_545 S
Eu843 O847 2.363 . S
Eu843 O856 2.363 . S
Eu843 O857 2.363 . S
O844 C818 1.283 . S
O844 Eu830 2.363 1_565 S
O845 C819 1.283 . S
O845 Eu830 2.363 . S
O846 C820 1.283 . S
O846 Eu843 2.363 1_565 S
O847 C821 1.283 . S
O847 Eu843 2.363 . S
O848 C822 1.283 . S
O848 Eu833 2.363 1_556 S
O849 C823 1.283 . S
O849 Eu833 2.363 . S
O850 C824 1.283 . S
O850 Eu834 2.363 1_556 S
O851 C825 1.283 . S
O851 Eu834 2.363 . S
O852 C826 1.283 . S
O852 Eu838 2.363 . S
O853 C827 1.283 . S
O853 Eu838 2.363 . S
O854 C828 1.283 . S
O854 Eu837 2.363 . S
O855 C829 1.283 . S
O855 Eu837 2.363 . S
O856 C824 1.283 . S
O856 Eu843 2.363 . S
O857 C822 1.283 . S
O857 Eu843 2.363 . S
O858 C825 1.283 . S
O858 Eu830 2.363 . S
O859 C823 1.283 . S
O859 Eu830 2.363 . S
O860 C819 1.283 . S
O860 Eu838 2.363 . S
O861 C821 1.283 . S
O861 Eu838 2.363 1_556 S
O862 C818 1.283 . S
O862 Eu837 2.363 . S
O863 C820 1.283 . S
O863 Eu837 2.363 1_556 S
O864 C829 1.283 . S
O864 Eu833 2.363 1_565 S
O865 C827 1.283 . S
O865 Eu833 2.363 . S
O866 C828 1.283 . S
O866 Eu834 2.363 1_565 S
O867 C826 1.283 . S
O867 Eu834 2.363 . S
C868 O894 1.283 . S
C868 O912 1.283 . S
C869 O895 1.283 . S
C869 O910 1.283 . S
C870 O896 1.283 . S
C870 O913 1.283 . S
C871 O897 1.283 . S
C871 O911 1.283 . S
C872 O898 1.283 . S
C872 O907 1.283 . S
C873 O899 1.283 . S
C873 O909 1.283 . S
C874 O900 1.283 . S
C874 O906 1.283 . S
C875 O901 1.283 . S
C875 O908 1.283 . S
C876 O902 1.283 . S
C876 O917 1.283 . S
C877 O903 1.283 . S
C877 O915 1.283 . S
C878 O904 1.283 . S
C878 O916 1.283 . S
C879 O905 1.283 . S
C879 O914 1.283 . S
Eu880 O881 2.362 1_454 S
Eu880 O882 2.378 . S
Eu880 O885 2.378 1_455 S
Eu880 O886 2.362 1_554 S
Eu880 O894 2.376 . S
Eu880 O895 2.350 1_554 S
Eu880 O908 2.363 . S
Eu880 O909 2.363 1_455 S
O881 Eu880 2.362 1_656 S
O881 Eu883 2.363 1_556 S
O881 Eu888 2.370 1_655 S
O882 Eu880 2.378 . S
O882 Eu884 2.378 . S
O882 Eu887 2.370 . S
Eu883 O881 2.363 1_554 S
Eu883 O885 2.378 . S
Eu883 O889 2.378 . S
Eu883 O890 2.363 1_554 S
Eu883 O898 2.363 . S
Eu883 O899 2.363 . S
Eu883 O914 2.376 . S
Eu883 O915 2.350 1_554 S
Eu884 O882 2.378 . S
Eu884 O886 2.362 1_554 S
Eu884 O891 2.362 1_554 S
Eu884 O892 2.378 . S
Eu884 O900 2.363 . S
Eu884 O901 2.363 . S
Eu884 O916 2.376 . S
Eu884 O917 2.350 1_554 S
O885 Eu880 2.378 1_655 S
O885 Eu883 2.378 . S
O885 Eu887 2.370 1_655 S
O886 Eu880 2.362 1_556 S
O886 Eu884 2.362 1_556 S
O886 Eu888 2.370 . S
Eu887 O882 2.370 . S
Eu887 O885 2.370 1_455 S
Eu887 O889 2.370 1_455 S
Eu887 O892 2.370 . S
Eu887 O904 2.363 . S
Eu887 O905 2.363 1_455 S
Eu887 O912 2.363 . S
Eu887 O913 2.363 . S
Eu888 O881 2.370 1_455 S
Eu888 O886 2.370 . S
Eu888 O890 2.370 1_455 S
Eu888 O891 2.370 . S
Eu888 O902 2.363 . S
Eu888 O903 2.363 1_455 S
Eu888 O910 2.363 . S
Eu888 O911 2.363 . S
O889 Eu883 2.378 . S
O889 Eu887 2.370 1_655 S
O889 Eu893 2.378 1_655 S
O890 Eu883 2.363 1_556 S
O890 Eu888 2.370 1_655 S
O890 Eu893 2.362 1_656 S
O891 Eu884 2.362 1_556 S
O891 Eu888 2.370 . S
O891 Eu893 2.362 1_556 S
O892 Eu884 2.378 . S
O892 Eu887 2.370 . S
O892 Eu893 2.378 . S
Eu893 O889 2.378 1_455 S
Eu893 O890 2.362 1_454 S
Eu893 O891 2.362 1_554 S
Eu893 O892 2.378 . S
Eu893 O896 2.376 . S
Eu893 O897 2.350 1_554 S
Eu893 O906 2.363 . S
Eu893 O907 2.363 1_455 S
O894 C868 1.283 . S
O894 Eu880 2.376 . S
O895 C869 1.283 . S
O895 Eu880 2.350 1_556 S
O896 C870 1.283 . S
O896 Eu893 2.376 . S
O897 C871 1.283 . S
O897 Eu893 2.350 1_556 S
O898 C872 1.283 . S
O898 Eu883 2.363 . S
O899 C873 1.283 . S
O899 Eu883 2.363 . S
O900 C874 1.283 . S
O900 Eu884 2.363 . S
O901 C875 1.283 . S
O901 Eu884 2.363 . S
O902 C876 1.283 . S
O902 Eu888 2.363 . S
O903 C877 1.283 . S
O903 Eu888 2.363 1_655 S
O904 C878 1.283 . S
O904 Eu887 2.363 . S
O905 C879 1.283 . S
O905 Eu887 2.363 1_655 S
O906 C874 1.283 . S
O906 Eu893 2.363 . S
O907 C872 1.283 . S
O907 Eu893 2.363 1_655 S
O908 C875 1.283 . S
O908 Eu880 2.363 . S
O909 C873 1.283 . S
O909 Eu880 2.363 1_655 S
O910 C869 1.283 . S
O910 Eu888 2.363 . S
O911 C871 1.283 . S
O911 Eu888 2.363 . S
O912 C868 1.283 . S
O912 Eu887 2.363 . S
O913 C870 1.283 . S
O913 Eu887 2.363 . S
O914 C879 1.283 . S
O914 Eu883 2.376 . S
O915 C877 1.283 . S
O915 Eu883 2.350 1_556 S
O916 C878 1.283 . S
O916 Eu884 2.376 . S
O917 C876 1.283 . S
O917 Eu884 2.350 1_556 S
C918 O944 1.283 . S
C918 O962 1.283 . S
C919 O945 1.283 . S
C919 O960 1.283 . S
C920 O946 1.283 . S
C920 O963 1.283 . S
C921 O947 1.283 . S
C921 O961 1.283 . S
C922 O948 1.283 . S
C922 O957 1.283 . S
C923 O949 1.283 . S
C923 O959 1.283 . S
C924 O950 1.283 . S
C924 O956 1.283 . S
C925 O951 1.283 . S
C925 O958 1.283 . S
C926 O952 1.283 . S
C926 O967 1.283 . S
C927 O953 1.283 . S
C927 O965 1.283 . S
C928 O954 1.283 . S
C928 O966 1.283 . S
C929 O955 1.283 . S
C929 O964 1.283 . S
Eu930 O931 2.370 . S
Eu930 O932 2.370 . S
Eu930 O935 2.370 . S
Eu930 O936 2.370 . S
Eu930 O944 2.363 . S
Eu930 O945 2.363 . S
Eu930 O958 2.363 . S
Eu930 O959 2.363 . S
O931 Eu930 2.370 . S
O931 Eu933 2.380 . S
O931 Eu938 2.380 . S
O932 Eu930 2.370 . S
O932 Eu934 2.380 . S
O932 Eu937 2.380 . S
Eu933 O931 2.380 . S
Eu933 O935 2.380 . S
Eu933 O939 2.360 1_554 S
Eu933 O940 2.360 1_554 S
Eu933 O948 2.346 1_554 S
Eu933 O949 2.380 . S
Eu933 O964 2.363 . S
Eu933 O965 2.363 . S
Eu934 O932 2.380 . S
Eu934 O936 2.380 . S
Eu934 O941 2.360 1_554 S
Eu934 O942 2.360 1_554 S
Eu934 O950 2.347 1_554 S
Eu934 O951 2.379 . S
Eu934 O966 2.363 . S
Eu934 O967 2.363 . S
O935 Eu930 2.370 . S
O935 Eu933 2.380 . S
O935 Eu937 2.380 . S
O936 Eu930 2.370 . S
O936 Eu934 2.380 . S
O936 Eu938 2.380 . S
Eu937 O932 2.380 . S
Eu937 O935 2.380 . S
Eu937 O939 2.360 1_554 S
Eu937 O942 2.360 1_554 S
Eu937 O954 2.363 . S
Eu937 O955 2.363 . S
Eu937 O962 2.379 . S
Eu937 O963 2.346 1_554 S
Eu938 O931 2.380 . S
Eu938 O936 2.380 . S
Eu938 O940 2.360 1_554 S
Eu938 O941 2.360 1_554 S
Eu938 O952 2.363 . S
Eu938 O953 2.363 . S
Eu938 O960 2.379 . S
Eu938 O961 2.346 1_554 S
O939 Eu933 2.360 1_556 S
O939 Eu937 2.360 1_556 S
O939 Eu943 2.370 . S
O940 Eu933 2.360 1_556 S
O940 Eu938 2.360 1_556 S
O940 Eu943 2.370 . S
O941 Eu934 2.360 1_556 S
O941 Eu938 2.360 1_556 S
O941 Eu943 2.370 . S
O942 Eu934 2.360 1_556 S
O942 Eu937 2.360 1_556 S
O942 Eu943 2.370 . S
Eu943 O939 2.370 . S
Eu943 O940 2.370 . S
Eu943 O941 2.370 . S
Eu943 O942 2.370 . S
Eu943 O946 2.363 . S
Eu943 O947 2.363 . S
Eu943 O956 2.363 . S
Eu943 O957 2.363 . S
O944 C918 1.283 . S
O944 Eu930 2.363 . S
O945 C919 1.283 . S
O945 Eu930 2.363 . S
O946 C920 1.283 . S
O946 Eu943 2.363 . S
O947 C921 1.283 . S
O947 Eu943 2.363 . S
O948 C922 1.283 . S
O948 Eu933 2.346 1_556 S
O949 C923 1.283 . S
O949 Eu933 2.380 . S
O950 C924 1.283 . S
O950 Eu934 2.347 1_556 S
O951 C925 1.283 . S
O951 Eu934 2.379 . S
O952 C926 1.283 . S
O952 Eu938 2.363 . S
O953 C927 1.283 . S
O953 Eu938 2.363 . S
O954 C928 1.283 . S
O954 Eu937 2.363 . S
O955 C929 1.283 . S
O955 Eu937 2.363 . S
O956 C924 1.283 . S
O956 Eu943 2.363 . S
O957 C922 1.283 . S
O957 Eu943 2.363 . S
O958 C925 1.283 . S
O958 Eu930 2.363 . S
O959 C923 1.283 . S
O959 Eu930 2.363 . S
O960 C919 1.283 . S
O960 Eu938 2.379 . S
O961 C921 1.283 . S
O961 Eu938 2.346 1_556 S
O962 C918 1.283 . S
O962 Eu937 2.379 . S
O963 C920 1.283 . S
O963 Eu937 2.346 1_556 S
O964 C929 1.283 . S
O964 Eu933 2.363 . S
O965 C927 1.283 . S
O965 Eu933 2.363 . S
O966 C928 1.283 . S
O966 Eu934 2.363 . S
O967 C926 1.283 . S
O967 Eu934 2.363 . S
C968 O994 1.283 . S
C968 O1012 1.283 . S
C969 O995 1.283 . S
C969 O1010 1.283 . S
C970 O996 1.283 . S
C970 O1013 1.283 . S
C971 O997 1.283 . S
C971 O1011 1.283 . S
C972 O998 1.283 . S
C972 O1007 1.283 . S
C973 O999 1.283 . S
C973 O1009 1.283 . S
C974 O1000 1.283 . S
C974 O1006 1.283 . S
C975 O1001 1.283 . S
C975 O1008 1.283 . S
C976 O1002 1.283 . S
C976 O1017 1.283 . S
C977 O1003 1.283 . S
C977 O1015 1.283 . S
C978 O1004 1.283 . S
C978 O1016 1.283 . S
C979 O1005 1.283 . S
C979 O1014 1.283 . S
Eu980 O981 2.370 1_455 S
Eu980 O982 2.370 . S
Eu980 O985 2.370 1_455 S
Eu980 O986 2.370 . S
Eu980 O994 2.363 . S
Eu980 O995 2.363 . S
Eu980 O1008 2.363 . S
Eu980 O1009 2.363 1_455 S
O981 Eu980 2.370 1_655 S
O981 Eu983 2.370 . S
O981 Eu988 2.370 1_655 S
O982 Eu980 2.370 . S
O982 Eu984 2.370 . S
O982 Eu987 2.370 . S
Eu983 O981 2.370 . S
Eu983 O985 2.370 . S
Eu983 O989 2.370 . S
Eu983 O990 2.370 . S
Eu983 O998 2.363 . S
Eu983 O999 2.363 . S
Eu983 O1014 2.363 . S
Eu983 O1015 2.363 . S
Eu984 O982 2.370 . S
Eu984 O986 2.370 . S
Eu984 O991 2.370 . S
Eu984 O992 2.370 . S
Eu984 O1000 2.363 . S
Eu984 O1001 2.363 . S
Eu984 O1016 2.363 . S
Eu984 O1017 2.363 . S
O985 Eu980 2.370 1_655 S
O985 Eu983 2.370 . S
O985 Eu987 2.370 1_655 S
O986 Eu980 2.370 . S
O986 Eu984 2.370 . S
O986 Eu988 2.370 . S
Eu987 O982 2.370 . S
Eu987 O985 2.370 1_455 S
Eu987 O989 2.370 1_455 S
Eu987 O992 2.370 . S
Eu987 O1004 2.363 . S
Eu987 O1005 2.363 1_455 S
Eu987 O1012 2.363 . S
Eu987 O1013 2.363 . S
Eu988 O981 2.370 1_455 S
Eu988 O986 2.370 . S
Eu988 O990 2.370 1_455 S
Eu988 O991 2.370 . S
Eu988 O1002 2.363 . S
Eu988 O1003 2.363 1_455 S
Eu988 O1010 2.363 . S
Eu988 O1011 2.363 . S
O989 Eu983 2.370 . S
O989 Eu987 2.370 1_655 S
O989 Eu993 2.370 1_655 S
O990 Eu983 2.370 . S
O990 Eu988 2.370 1_655 S
O990 Eu993 2.370 1_655 S
O991 Eu984 2.370 . S
O991 Eu988 2.370 . S
O991 Eu993 2.370 . S
O992 Eu984 2.370 . S
O992 Eu987 2.370 . S
O992 Eu993 2.370 . S
Eu993 O989 2.370 1_455 S
Eu993 O990 2.370 1_455 S
Eu993 O991 2.370 . S
Eu993 O992 2.370 . S
Eu993 O996 2.363 . S
Eu993 O997 2.363 . S
Eu993 O1006 2.363 . S
Eu993 O1007 2.363 1_455 S
O994 C968 1.283 . S
O994 Eu980 2.363 . S
O995 C969 1.283 . S
O995 Eu980 2.363 . S
O996 C970 1.283 . S
O996 Eu993 2.363 . S
O997 C971 1.283 . S
O997 Eu993 2.363 . S
O998 C972 1.283 . S
O998 Eu983 2.363 . S
O999 C973 1.283 . S
O999 Eu983 2.363 . S
O1000 C974 1.283 . S
O1000 Eu984 2.363 . S
O1001 C975 1.283 . S
O1001 Eu984 2.363 . S
O1002 C976 1.283 . S
O1002 Eu988 2.363 . S
O1003 C977 1.283 . S
O1003 Eu988 2.363 1_655 S
O1004 C978 1.283 . S
O1004 Eu987 2.363 . S
O1005 C979 1.283 . S
O1005 Eu987 2.363 1_655 S
O1006 C974 1.283 . S
O1006 Eu993 2.363 . S
O1007 C972 1.283 . S
O1007 Eu993 2.363 1_655 S
O1008 C975 1.283 . S
O1008 Eu980 2.363 . S
O1009 C973 1.283 . S
O1009 Eu980 2.363 1_655 S
O1010 C969 1.283 . S
O1010 Eu988 2.363 . S
O1011 C971 1.283 . S
O1011 Eu988 2.363 . S
O1012 C968 1.283 . S
O1012 Eu987 2.363 . S
O1013 C970 1.283 . S
O1013 Eu987 2.363 . S
O1014 C979 1.283 . S
O1014 Eu983 2.363 . S
O1015 C977 1.283 . S
O1015 Eu983 2.363 . S
O1016 C978 1.283 . S
O1016 Eu984 2.363 . S
O1017 C976 1.283 . S
O1017 Eu984 2.363 . S
C1018 O1044 1.283 . S
C1018 O1062 1.283 . S
C1019 O1045 1.283 . S
C1019 O1060 1.283 . S
C1020 O1046 1.283 . S
C1020 O1063 1.283 . S
C1021 O1047 1.283 . S
C1021 O1061 1.283 . S
C1022 O1048 1.283 . S
C1022 O1057 1.283 . S
C1023 O1049 1.283 . S
C1023 O1059 1.283 . S
C1024 O1050 1.283 . S
C1024 O1056 1.283 . S
C1025 O1051 1.283 . S
C1025 O1058 1.283 . S
C1026 O1052 1.283 . S
C1026 O1067 1.283 . S
C1027 O1053 1.283 . S
C1027 O1065 1.283 . S
C1028 O1054 1.283 . S
C1028 O1066 1.283 . S
C1029 O1055 1.283 . S
C1029 O1064 1.283 . S
Eu1030 O1031 2.370 . S
Eu1030 O1032 2.370 . S
Eu1030 O1035 2.370 . S
Eu1030 O1036 2.370 . S
Eu1030 O1044 2.363 . S
Eu1030 O1045 2.363 . S
Eu1030 O1058 2.363 . S
Eu1030 O1059 2.363 . S
O1031 Eu1030 2.370 . S
O1031 Eu1033 2.370 1_565 S
O1031 Eu1038 2.370 1_565 S
O1032 Eu1030 2.370 . S
O1032 Eu1034 2.370 1_565 S
O1032 Eu1037 2.370 1_565 S
Eu1033 O1031 2.370 1_545 S
Eu1033 O1035 2.370 1_545 S
Eu1033 O1039 2.370 . S
Eu1033 O1040 2.370 . S
Eu1033 O1048 2.363 . S
Eu1033 O1049 2.363 1_545 S
Eu1033 O1064 2.363 . S
Eu1033 O1065 2.363 . S
Eu1034 O1032 2.370 1_545 S
Eu1034 O1036 2.370 1_545 S
Eu1034 O1041 2.370 . S
Eu1034 O1042 2.370 . S
Eu1034 O1050 2.363 . S
Eu1034 O1051 2.363 1_545 S
Eu1034 O1066 2.363 . S
Eu1034 O1067 2.363 . S
O1035 Eu1030 2.370 . S
O1035 Eu1033 2.370 1_565 S
O1035 Eu1037 2.370 1_565 S
O1036 Eu1030 2.370 . S
O1036 Eu1034 2.370 1_565 S
O1036 Eu1038 2.370 1_565 S
Eu1037 O1032 2.370 1_545 S
Eu1037 O1035 2.370 1_545 S
Eu1037 O1039 2.370 . S
Eu1037 O1042 2.370 . S
Eu1037 O1054 2.363 . S
Eu1037 O1055 2.363 . S
Eu1037 O1062 2.363 1_545 S
Eu1037 O1063 2.363 . S
Eu1038 O1031 2.370 1_545 S
Eu1038 O1036 2.370 1_545 S
Eu1038 O1040 2.370 . S
Eu1038 O1041 2.370 . S
Eu1038 O1052 2.363 . S
Eu1038 O1053 2.363 . S
Eu1038 O1060 2.363 1_545 S
Eu1038 O1061 2.363 . S
O1039 Eu1033 2.370 . S
O1039 Eu1037 2.370 . S
O1039 Eu1043 2.370 . S
O1040 Eu1033 2.370 . S
O1040 Eu1038 2.370 . S
O1040 Eu1043 2.370 . S
O1041 Eu1034 2.370 . S
O1041 Eu1038 2.370 . S
O1041 Eu1043 2.370 . S
O1042 Eu1034 2.370 . S
O1042 Eu1037 2.370 . S
O1042 Eu1043 2.370 . S
Eu1043 O1039 2.370 . S
Eu1043 O1040 2.370 . S
Eu1043 O1041 2.370 . S
Eu1043 O1042 2.370 . S
Eu1043 O1046 2.363 . S
Eu1043 O1047 2.363 . S
Eu1043 O1056 2.363 . S
Eu1043 O1057 2.363 . S
O1044 C1018 1.283 . S
O1044 Eu1030 2.363 . S
O1045 C1019 1.283 . S
O1045 Eu1030 2.363 . S
O1046 C1020 1.283 . S
O1046 Eu1043 2.363 . S
O1047 C1021 1.283 . S
O1047 Eu1043 2.363 . S
O1048 C1022 1.283 . S
O1048 Eu1033 2.363 . S
O1049 C1023 1.283 . S
O1049 Eu1033 2.363 1_565 S
O1050 C1024 1.283 . S
O1050 Eu1034 2.363 . S
O1051 C1025 1.283 . S
O1051 Eu1034 2.363 1_565 S
O1052 C1026 1.283 . S
O1052 Eu1038 2.363 . S
O1053 C1027 1.283 . S
O1053 Eu1038 2.363 . S
O1054 C1028 1.283 . S
O1054 Eu1037 2.363 . S
O1055 C1029 1.283 . S
O1055 Eu1037 2.363 . S
O1056 C1024 1.283 . S
O1056 Eu1043 2.363 . S
O1057 C1022 1.283 . S
O1057 Eu1043 2.363 . S
O1058 C1025 1.283 . S
O1058 Eu1030 2.363 . S
O1059 C1023 1.283 . S
O1059 Eu1030 2.363 . S
O1060 C1019 1.283 . S
O1060 Eu1038 2.363 1_565 S
O1061 C1021 1.283 . S
O1061 Eu1038 2.363 . S
O1062 C1018 1.283 . S
O1062 Eu1037 2.363 1_565 S
O1063 C1020 1.283 . S
O1063 Eu1037 2.363 . S
O1064 C1029 1.283 . S
O1064 Eu1033 2.363 . S
O1065 C1027 1.283 . S
O1065 Eu1033 2.363 . S
O1066 C1028 1.283 . S
O1066 Eu1034 2.363 . S
O1067 C1026 1.283 . S
O1067 Eu1034 2.363 . S
H1068 C1074 0.930 . S
H1069 C1077 0.930 . S
H1070 C1078 0.930 . S
H1071 C1079 0.930 . S
H1072 C1082 0.930 . S
H1073 C1083 0.930 . S
C1074 H1068 0.930 . S
C1074 C1075 1.355 . S
C1074 C1076 1.415 . S
C1075 C1074 1.355 . S
C1075 C1077 1.419 . S
C1076 C1074 1.415 . S
C1076 C1081 1.425 . S
C1076 C1083 1.409 . S
C1077 H1069 0.930 . S
C1077 C1075 1.419 . S
C1077 C1078 1.362 . S
C1078 H1070 0.930 . S
C1078 C1077 1.362 . S
C1078 C1081 1.409 . S
C1079 H1071 0.930 . S
C1079 C1080 1.355 . S
C1079 C1081 1.415 . S
C1080 C1079 1.355 . S
C1080 C1082 1.419 . S
C1081 C1076 1.425 . S
C1081 C1078 1.409 . S
C1081 C1079 1.415 . S
C1082 H1072 0.930 . S
C1082 C1080 1.419 . S
C1082 C1083 1.362 . S
C1083 H1073 0.930 . S
C1083 C1076 1.409 . S
C1083 C1082 1.362 . S
H1084 C1090 0.930 . S
H1085 C1093 0.930 . S
H1086 C1094 0.930 . S
H1087 C1095 0.930 . S
H1088 C1098 0.930 . S
H1089 C1099 0.930 . S
C1090 H1084 0.930 . S
C1090 C1091 1.355 . S
C1090 C1092 1.415 . S
C1091 C1090 1.355 . S
C1091 C1093 1.419 . S
C1092 C1090 1.415 . S
C1092 C1097 1.425 . S
C1092 C1099 1.409 . S
C1093 H1085 0.930 . S
C1093 C1091 1.419 . S
C1093 C1094 1.362 . S
C1094 H1086 0.930 . S
C1094 C1093 1.362 . S
C1094 C1097 1.409 . S
C1095 H1087 0.930 . S
C1095 C1096 1.355 . S
C1095 C1097 1.415 . S
C1096 C1095 1.355 . S
C1096 C1098 1.419 . S
C1097 C1092 1.425 . S
C1097 C1094 1.409 . S
C1097 C1095 1.415 . S
C1098 H1088 0.930 . S
C1098 C1096 1.419 . S
C1098 C1099 1.362 . S
C1099 H1089 0.930 . S
C1099 C1092 1.409 . S
C1099 C1098 1.362 . S
H1100 C1106 0.930 . S
H1101 C1109 0.930 . S
H1102 C1110 0.930 . S
H1103 C1111 0.930 . S
H1104 C1114 0.930 . S
H1105 C1115 0.930 . S
C1106 H1100 0.930 . S
C1106 C1107 1.355 . S
C1106 C1108 1.415 . S
C1107 C1106 1.355 . S
C1107 C1109 1.419 . S
C1108 C1106 1.415 . S
C1108 C1113 1.425 . S
C1108 C1115 1.409 . S
C1109 H1101 0.930 . S
C1109 C1107 1.419 . S
C1109 C1110 1.362 . S
C1110 H1102 0.930 . S
C1110 C1109 1.362 . S
C1110 C1113 1.409 . S
C1111 H1103 0.930 . S
C1111 C1112 1.355 . S
C1111 C1113 1.415 . S
C1112 C1111 1.355 . S
C1112 C1114 1.419 . S
C1113 C1108 1.425 . S
C1113 C1110 1.409 . S
C1113 C1111 1.415 . S
C1114 H1104 0.930 . S
C1114 C1112 1.419 . S
C1114 C1115 1.362 . S
C1115 H1105 0.930 . S
C1115 C1108 1.409 . S
C1115 C1114 1.362 . S
H1116 C1122 0.930 . S
H1117 C1125 0.930 . S
H1118 C1126 0.930 . S
H1119 C1127 0.930 . S
H1120 C1130 0.930 . S
H1121 C1131 0.930 . S
C1122 H1116 0.930 . S
C1122 C1123 1.355 . S
C1122 C1124 1.415 . S
C1123 C1122 1.355 . S
C1123 C1125 1.419 . S
C1124 C1122 1.415 . S
C1124 C1129 1.425 . S
C1124 C1131 1.409 . S
C1125 H1117 0.930 . S
C1125 C1123 1.419 . S
C1125 C1126 1.362 . S
C1126 H1118 0.930 . S
C1126 C1125 1.362 . S
C1126 C1129 1.409 . S
C1127 H1119 0.930 . S
C1127 C1128 1.355 . S
C1127 C1129 1.415 . S
C1128 C1127 1.355 . S
C1128 C1130 1.419 . S
C1129 C1124 1.425 . S
C1129 C1126 1.409 . S
C1129 C1127 1.415 . S
C1130 H1120 0.930 . S
C1130 C1128 1.419 . S
C1130 C1131 1.362 . S
C1131 H1121 0.930 . S
C1131 C1124 1.409 . S
C1131 C1130 1.362 . S
H1132 C1138 0.930 . S
H1133 C1141 0.930 . S
H1134 C1142 0.930 . S
H1135 C1143 0.930 . S
H1136 C1146 0.930 . S
H1137 C1147 0.930 . S
C1138 H1132 0.930 . S
C1138 C1139 1.355 . S
C1138 C1140 1.415 . S
C1139 C1138 1.355 . S
C1139 C1141 1.419 . S
C1140 C1138 1.415 . S
C1140 C1145 1.425 . S
C1140 C1147 1.409 . S
C1141 H1133 0.930 . S
C1141 C1139 1.419 . S
C1141 C1142 1.362 . S
C1142 H1134 0.930 . S
C1142 C1141 1.362 . S
C1142 C1145 1.409 . S
C1143 H1135 0.930 . S
C1143 C1144 1.355 . S
C1143 C1145 1.415 . S
C1144 C1143 1.355 . S
C1144 C1146 1.419 . S
C1145 C1140 1.425 . S
C1145 C1142 1.409 . S
C1145 C1143 1.415 . S
C1146 H1136 0.930 . S
C1146 C1144 1.419 . S
C1146 C1147 1.362 . S
C1147 H1137 0.930 . S
C1147 C1140 1.409 . S
C1147 C1146 1.362 . S
H1148 C1154 0.930 . S
H1149 C1157 0.930 . S
H1150 C1158 0.930 . S
H1151 C1159 0.930 . S
H1152 C1162 0.930 . S
H1153 C1163 0.930 . S
C1154 H1148 0.930 . S
C1154 C1155 1.355 . S
C1154 C1156 1.415 . S
C1155 C1154 1.355 . S
C1155 C1157 1.419 . S
C1156 C1154 1.415 . S
C1156 C1161 1.425 . S
C1156 C1163 1.409 . S
C1157 H1149 0.930 . S
C1157 C1155 1.419 . S
C1157 C1158 1.362 . S
C1158 H1150 0.930 . S
C1158 C1157 1.362 . S
C1158 C1161 1.409 . S
C1159 H1151 0.930 . S
C1159 C1160 1.355 . S
C1159 C1161 1.415 . S
C1160 C1159 1.355 . S
C1160 C1162 1.419 . S
C1161 C1156 1.425 . S
C1161 C1158 1.409 . S
C1161 C1159 1.415 . S
C1162 H1152 0.930 . S
C1162 C1160 1.419 . S
C1162 C1163 1.362 . S
C1163 H1153 0.930 . S
C1163 C1156 1.409 . S
C1163 C1162 1.362 . S
H1164 C1170 0.930 . S
H1165 C1173 0.930 . S
H1166 C1174 0.930 . S
H1167 C1175 0.930 . S
H1168 C1178 0.930 . S
H1169 C1179 0.930 . S
C1170 H1164 0.930 . S
C1170 C1171 1.355 . S
C1170 C1172 1.415 . S
C1171 C1170 1.355 . S
C1171 C1173 1.419 . S
C1172 C1170 1.415 . S
C1172 C1177 1.425 . S
C1172 C1179 1.409 . S
C1173 H1165 0.930 . S
C1173 C1171 1.419 . S
C1173 C1174 1.362 . S
C1174 H1166 0.930 . S
C1174 C1173 1.362 . S
C1174 C1177 1.409 . S
C1175 H1167 0.930 . S
C1175 C1176 1.355 . S
C1175 C1177 1.415 . S
C1176 C1175 1.355 . S
C1176 C1178 1.419 . S
C1177 C1172 1.425 . S
C1177 C1174 1.409 . S
C1177 C1175 1.415 . S
C1178 H1168 0.930 . S
C1178 C1176 1.419 . S
C1178 C1179 1.362 . S
C1179 H1169 0.930 . S
C1179 C1172 1.409 . S
C1179 C1178 1.362 . S
H1180 C1186 0.930 . S
H1181 C1189 0.930 . S
H1182 C1190 0.930 . S
H1183 C1191 0.930 . S
H1184 C1194 0.930 . S
H1185 C1195 0.930 . S
C1186 H1180 0.930 . S
C1186 C1187 1.355 . S
C1186 C1188 1.415 . S
C1187 C1186 1.355 . S
C1187 C1189 1.419 . S
C1188 C1186 1.415 . S
C1188 C1193 1.425 . S
C1188 C1195 1.409 . S
C1189 H1181 0.930 . S
C1189 C1187 1.419 . S
C1189 C1190 1.362 . S
C1190 H1182 0.930 . S
C1190 C1189 1.362 . S
C1190 C1193 1.409 . S
C1191 H1183 0.930 . S
C1191 C1192 1.355 . S
C1191 C1193 1.415 . S
C1192 C1191 1.355 . S
C1192 C1194 1.419 . S
C1193 C1188 1.425 . S
C1193 C1190 1.409 . S
C1193 C1191 1.415 . S
C1194 H1184 0.930 . S
C1194 C1192 1.419 . S
C1194 C1195 1.362 . S
C1195 H1185 0.930 . S
C1195 C1188 1.409 . S
C1195 C1194 1.362 . S
H1196 C1202 0.930 . S
H1197 C1205 0.930 . S
H1198 C1206 0.930 . S
H1199 C1207 0.930 . S
H1200 C1210 0.930 . S
H1201 C1211 0.930 . S
C1202 H1196 0.930 . S
C1202 C1203 1.355 . S
C1202 C1204 1.415 . S
C1203 C1202 1.355 . S
C1203 C1205 1.419 . S
C1204 C1202 1.415 . S
C1204 C1209 1.425 . S
C1204 C1211 1.409 . S
C1205 H1197 0.930 . S
C1205 C1203 1.419 . S
C1205 C1206 1.362 . S
C1206 H1198 0.930 . S
C1206 C1205 1.362 . S
C1206 C1209 1.409 . S
C1207 H1199 0.930 . S
C1207 C1208 1.355 . S
C1207 C1209 1.415 . S
C1208 C1207 1.355 . S
C1208 C1210 1.419 . S
C1209 C1204 1.425 . S
C1209 C1206 1.409 . S
C1209 C1207 1.415 . S
C1210 H1200 0.930 . S
C1210 C1208 1.419 . S
C1210 C1211 1.362 . S
C1211 H1201 0.930 . S
C1211 C1204 1.409 . S
C1211 C1210 1.362 . S
H1212 C1218 0.930 . S
H1213 C1221 0.930 . S
H1214 C1222 0.930 . S
H1215 C1223 0.930 . S
H1216 C1226 0.930 . S
H1217 C1227 0.930 . S
C1218 H1212 0.930 . S
C1218 C1219 1.355 . S
C1218 C1220 1.415 . S
C1219 C1218 1.355 . S
C1219 C1221 1.419 . S
C1220 C1218 1.415 . S
C1220 C1225 1.425 . S
C1220 C1227 1.409 . S
C1221 H1213 0.930 . S
C1221 C1219 1.419 . S
C1221 C1222 1.362 . S
C1222 H1214 0.930 . S
C1222 C1221 1.362 . S
C1222 C1225 1.409 . S
C1223 H1215 0.930 . S
C1223 C1224 1.355 . S
C1223 C1225 1.415 . S
C1224 C1223 1.355 . S
C1224 C1226 1.419 . S
C1225 C1220 1.425 . S
C1225 C1222 1.409 . S
C1225 C1223 1.415 . S
C1226 H1216 0.930 . S
C1226 C1224 1.419 . S
C1226 C1227 1.362 . S
C1227 H1217 0.930 . S
C1227 C1220 1.409 . S
C1227 C1226 1.362 . S
H1228 C1234 0.930 . S
H1229 C1237 0.930 . S
H1230 C1238 0.930 . S
H1231 C1239 0.930 . S
H1232 C1242 0.930 . S
H1233 C1243 0.930 . S
C1234 H1228 0.930 . S
C1234 C1235 1.355 . S
C1234 C1236 1.415 . S
C1235 C1234 1.355 . S
C1235 C1237 1.419 . S
C1236 C1234 1.415 . S
C1236 C1241 1.425 . S
C1236 C1243 1.409 . S
C1237 H1229 0.930 . S
C1237 C1235 1.419 . S
C1237 C1238 1.362 . S
C1238 H1230 0.930 . S
C1238 C1237 1.362 . S
C1238 C1241 1.409 . S
C1239 H1231 0.930 . S
C1239 C1240 1.355 . S
C1239 C1241 1.415 . S
C1240 C1239 1.355 . S
C1240 C1242 1.419 . S
C1241 C1236 1.425 . S
C1241 C1238 1.409 . S
C1241 C1239 1.415 . S
C1242 H1232 0.930 . S
C1242 C1240 1.419 . S
C1242 C1243 1.362 . S
C1243 H1233 0.930 . S
C1243 C1236 1.409 . S
C1243 C1242 1.362 . S
H1244 C1250 0.930 . S
H1245 C1253 0.930 . S
H1246 C1254 0.930 . S
H1247 C1255 0.930 . S
H1248 C1258 0.930 . S
H1249 C1259 0.930 . S
C1250 H1244 0.930 . S
C1250 C1251 1.355 . S
C1250 C1252 1.415 . S
C1251 C1250 1.355 . S
C1251 C1253 1.419 . S
C1252 C1250 1.415 . S
C1252 C1257 1.425 . S
C1252 C1259 1.409 . S
C1253 H1245 0.930 . S
C1253 C1251 1.419 . S
C1253 C1254 1.362 . S
C1254 H1246 0.930 . S
C1254 C1253 1.362 . S
C1254 C1257 1.409 . S
C1255 H1247 0.930 . S
C1255 C1256 1.355 . S
C1255 C1257 1.415 . S
C1256 C1255 1.355 . S
C1256 C1258 1.419 . S
C1257 C1252 1.425 . S
C1257 C1254 1.409 . S
C1257 C1255 1.415 . S
C1258 H1248 0.930 . S
C1258 C1256 1.419 . S
C1258 C1259 1.362 . S
C1259 H1249 0.930 . S
C1259 C1252 1.409 . S
C1259 C1258 1.362 . S
H1260 C1266 0.930 . S
H1261 C1269 0.930 . S
H1262 C1270 0.930 . S
H1263 C1271 0.930 . S
H1264 C1274 0.930 . S
H1265 C1275 0.930 . S
C1266 H1260 0.930 . S
C1266 C1267 1.355 1_556 S
C1266 C1268 1.415 . S
C1267 C1266 1.355 1_554 S
C1267 C1269 1.419 . S
C1268 C1266 1.415 . S
C1268 C1273 1.425 1_556 S
C1268 C1275 1.409 . S
C1269 H1261 0.930 . S
C1269 C1267 1.419 . S
C1269 C1270 1.362 . S
C1270 H1262 0.930 . S
C1270 C1269 1.362 . S
C1270 C1273 1.409 . S
C1271 H1263 0.930 . S
C1271 C1272 1.349 1_554 S
C1271 C1273 1.415 . S
C1272 C1271 1.349 1_556 S
C1272 C1274 1.428 . S
C1273 C1268 1.425 1_554 S
C1273 C1270 1.409 . S
C1273 C1271 1.415 . S
C1274 H1264 0.930 . S
C1274 C1272 1.428 . S
C1274 C1275 1.362 . S
C1275 H1265 0.930 . S
C1275 C1268 1.409 . S
C1275 C1274 1.362 . S
H1276 C1282 0.930 . S
H1277 C1285 0.930 . S
H1278 C1286 0.930 . S
H1279 C1287 0.930 . S
H1280 C1290 0.930 . S
H1281 C1291 0.930 . S
C1282 H1276 0.930 . S
C1282 C1283 1.355 1_556 S
C1282 C1284 1.415 . S
C1283 C1282 1.355 1_554 S
C1283 C1285 1.419 . S
C1284 C1282 1.415 . S
C1284 C1289 1.425 1_556 S
C1284 C1291 1.409 . S
C1285 H1277 0.930 . S
C1285 C1283 1.419 . S
C1285 C1286 1.362 . S
C1286 H1278 0.930 . S
C1286 C1285 1.362 . S
C1286 C1289 1.409 . S
C1287 H1279 0.930 . S
C1287 C1288 1.355 1_554 S
C1287 C1289 1.415 . S
C1288 C1287 1.355 1_556 S
C1288 C1290 1.419 . S
C1289 C1284 1.425 1_554 S
C1289 C1286 1.409 . S
C1289 C1287 1.415 . S
C1290 H1280 0.930 . S
C1290 C1288 1.419 . S
C1290 C1291 1.362 . S
C1291 H1281 0.930 . S
C1291 C1284 1.409 . S
C1291 C1290 1.362 . S
H1292 C1298 0.930 . S
H1293 C1301 0.930 . S
H1294 C1302 0.930 . S
H1295 C1303 0.930 . S
H1296 C1306 0.930 . S
H1297 C1307 0.930 . S
C1298 H1292 0.930 . S
C1298 C1299 1.355 1_554 S
C1298 C1300 1.415 . S
C1299 C1298 1.355 1_556 S
C1299 C1301 1.419 . S
C1300 C1298 1.415 . S
C1300 C1305 1.425 1_554 S
C1300 C1307 1.409 . S
C1301 H1293 0.930 . S
C1301 C1299 1.419 . S
C1301 C1302 1.362 . S
C1302 H1294 0.930 . S
C1302 C1301 1.362 . S
C1302 C1305 1.409 . S
C1303 H1295 0.930 . S
C1303 C1304 1.355 1_556 S
C1303 C1305 1.415 . S
C1304 C1303 1.355 1_554 S
C1304 C1306 1.419 . S
C1305 C1300 1.425 1_556 S
C1305 C1302 1.409 . S
C1305 C1303 1.415 . S
C1306 H1296 0.930 . S
C1306 C1304 1.419 . S
C1306 C1307 1.362 . S
C1307 H1297 0.930 . S
C1307 C1300 1.409 . S
C1307 C1306 1.362 . S
H1308 C1314 0.930 . S
H1309 C1317 0.930 . S
H1310 C1318 0.930 . S
H1311 C1319 0.930 . S
H1312 C1322 0.930 . S
H1313 C1323 0.930 . S
C1314 H1308 0.930 . S
C1314 C1315 1.359 . S
C1314 C1316 1.415 . S
C1315 C1314 1.359 . S
C1315 C1317 1.414 1_554 S
C1316 C1314 1.415 . S
C1316 C1321 1.425 1_554 S
C1316 C1323 1.409 . S
C1317 H1309 0.930 . S
C1317 C1315 1.414 1_556 S
C1317 C1318 1.362 . S
C1318 H1310 0.930 . S
C1318 C1317 1.362 . S
C1318 C1321 1.409 . S
C1319 H1311 0.930 . S
C1319 C1320 1.355 . S
C1319 C1321 1.415 . S
C1320 C1319 1.355 . S
C1320 C1322 1.419 1_556 S
C1321 C1316 1.425 1_556 S
C1321 C1318 1.409 . S
C1321 C1319 1.415 . S
C1322 H1312 0.930 . S
C1322 C1320 1.419 1_554 S
C1322 C1323 1.362 . S
C1323 H1313 0.930 . S
C1323 C1316 1.409 . S
C1323 C1322 1.362 . S
H1324 C1330 0.930 . S
H1325 C1333 0.930 . S
H1326 C1334 0.930 . S
H1327 C1335 0.930 . S
H1328 C1338 0.930 . S
H1329 C1339 0.930 . S
C1330 H1324 0.930 . S
C1330 C1331 1.355 1_655 S
C1330 C1332 1.415 . S
C1331 C1330 1.355 1_455 S
C1331 C1333 1.419 . S
C1332 C1330 1.415 . S
C1332 C1337 1.425 1_655 S
C1332 C1339 1.409 . S
C1333 H1325 0.930 . S
C1333 C1331 1.419 . S
C1333 C1334 1.362 . S
C1334 H1326 0.930 . S
C1334 C1333 1.362 . S
C1334 C1337 1.409 . S
C1335 H1327 0.930 . S
C1335 C1336 1.362 . S
C1335 C1337 1.415 . S
C1336 C1335 1.362 . S
C1336 C1338 1.410 1_455 S
C1337 C1332 1.425 1_455 S
C1337 C1334 1.409 . S
C1337 C1335 1.415 . S
C1338 H1328 0.930 . S
C1338 C1336 1.410 1_655 S
C1338 C1339 1.362 . S
C1339 H1329 0.930 . S
C1339 C1332 1.409 . S
C1339 C1338 1.362 . S
H1340 C1346 0.930 . S
H1341 C1349 0.930 . S
H1342 C1350 0.930 . S
H1343 C1351 0.930 . S
H1344 C1354 0.930 . S
H1345 C1355 0.930 . S
C1346 H1340 0.930 . S
C1346 C1347 1.355 1_545 S
C1346 C1348 1.415 . S
C1347 C1346 1.355 1_565 S
C1347 C1349 1.419 . S
C1348 C1346 1.415 . S
C1348 C1353 1.425 1_545 S
C1348 C1355 1.409 . S
C1349 H1341 0.930 . S
C1349 C1347 1.419 . S
C1349 C1350 1.362 . S
C1350 H1342 0.930 . S
C1350 C1349 1.362 . S
C1350 C1353 1.409 . S
C1351 H1343 0.930 . S
C1351 C1352 1.355 1_565 S
C1351 C1353 1.415 . S
C1352 C1351 1.355 1_545 S
C1352 C1354 1.419 . S
C1353 C1348 1.425 1_565 S
C1353 C1350 1.409 . S
C1353 C1351 1.415 . S
C1354 H1344 0.930 . S
C1354 C1352 1.419 . S
C1354 C1355 1.362 . S
C1355 H1345 0.930 . S
C1355 C1348 1.409 . S
C1355 C1354 1.362 . S
H1356 C1362 0.930 . S
H1357 C1365 0.930 . S
H1358 C1366 0.930 . S
H1359 C1367 0.930 . S
H1360 C1370 0.930 . S
H1361 C1371 0.930 . S
C1362 H1356 0.930 . S
C1362 C1363 1.355 . S
C1362 C1364 1.415 . S
C1363 C1362 1.355 . S
C1363 C1365 1.419 1_455 S
C1364 C1362 1.415 . S
C1364 C1369 1.425 1_455 S
C1364 C1371 1.409 . S
C1365 H1357 0.930 . S
C1365 C1363 1.419 1_655 S
C1365 C1366 1.362 . S
C1366 H1358 0.930 . S
C1366 C1365 1.362 . S
C1366 C1369 1.409 . S
C1367 H1359 0.930 . S
C1367 C1368 1.355 1_655 S
C1367 C1369 1.415 . S
C1368 C1367 1.355 1_455 S
C1368 C1370 1.419 . S
C1369 C1364 1.425 1_655 S
C1369 C1366 1.409 . S
C1369 C1367 1.415 . S
C1370 H1360 0.930 . S
C1370 C1368 1.419 . S
C1370 C1371 1.362 . S
C1371 H1361 0.930 . S
C1371 C1364 1.409 . S
C1371 C1370 1.362 . S
H1372 C1378 0.930 . S
H1373 C1381 0.930 . S
H1374 C1382 0.930 . S
H1375 C1383 0.929 1_565 S
H1376 C1386 0.930 . S
H1377 C1387 0.930 . S
C1378 H1372 0.930 . S
C1378 C1379 1.355 . S
C1378 C1380 1.415 . S
C1379 C1378 1.355 . S
C1379 C1381 1.419 1_545 S
C1380 C1378 1.415 . S
C1380 C1385 1.425 1_545 S
C1380 C1387 1.409 . S
C1381 H1373 0.930 . S
C1381 C1379 1.419 1_565 S
C1381 C1382 1.362 . S
C1382 H1374 0.930 . S
C1382 C1381 1.362 . S
C1382 C1385 1.409 . S
C1383 H1375 0.929 1_545 S
C1383 C1384 1.355 . S
C1383 C1385 1.415 1_545 S
C1384 C1383 1.355 . S
C1384 C1386 1.419 . S
C1385 C1380 1.425 1_565 S
C1385 C1382 1.409 . S
C1385 C1383 1.415 1_565 S
C1386 H1376 0.930 . S
C1386 C1384 1.419 . S
C1386 C1387 1.362 . S
C1387 H1377 0.930 . S
C1387 C1380 1.409 . S
C1387 C1386 1.362 . S
H1388 C1394 0.930 . S
H1389 C1397 0.930 . S
H1390 C1398 0.930 . S
H1391 C1399 0.930 . S
H1392 C1402 0.930 . S
H1393 C1403 0.930 . S
C1394 H1388 0.930 . S
C1394 C1395 1.355 1_655 S
C1394 C1396 1.415 . S
C1395 C1394 1.355 1_455 S
C1395 C1397 1.419 . S
C1396 C1394 1.415 . S
C1396 C1401 1.425 1_655 S
C1396 C1403 1.409 . S
C1397 H1389 0.930 . S
C1397 C1395 1.419 . S
C1397 C1398 1.362 . S
C1398 H1390 0.930 . S
C1398 C1397 1.362 . S
C1398 C1401 1.409 . S
C1399 H1391 0.930 . S
C1399 C1400 1.361 . S
C1399 C1401 1.415 . S
C1400 C1399 1.361 . S
C1400 C1402 1.412 1_455 S
C1401 C1396 1.425 1_455 S
C1401 C1398 1.409 . S
C1401 C1399 1.415 . S
C1402 H1392 0.930 . S
C1402 C1400 1.412 1_655 S
C1402 C1403 1.362 . S
C1403 H1393 0.930 . S
C1403 C1396 1.409 . S
C1403 C1402 1.362 . S
H1404 C1410 0.930 . S
H1405 C1413 0.930 . S
H1406 C1414 0.930 . S
H1407 C1415 0.931 . S
H1408 C1418 0.930 . S
H1409 C1419 0.930 . S
C1410 H1404 0.930 . S
C1410 C1411 1.355 1_545 S
C1410 C1412 1.415 . S
C1411 C1410 1.355 1_565 S
C1411 C1413 1.419 . S
C1412 C1410 1.415 . S
C1412 C1417 1.422 1_545 S
C1412 C1419 1.409 . S
C1413 H1405 0.930 . S
C1413 C1411 1.419 . S
C1413 C1414 1.362 . S
C1414 H1406 0.930 . S
C1414 C1413 1.362 . S
C1414 C1417 1.413 . S
C1415 H1407 0.931 . S
C1415 C1416 1.353 1_565 S
C1415 C1417 1.415 . S
C1416 C1415 1.353 1_545 S
C1416 C1418 1.419 . S
C1417 C1412 1.422 1_565 S
C1417 C1414 1.413 . S
C1417 C1415 1.415 . S
C1418 H1408 0.930 . S
C1418 C1416 1.419 . S
C1418 C1419 1.362 . S
C1419 H1409 0.930 . S
C1419 C1412 1.409 . S
C1419 C1418 1.362 . S
H1420 C1426 0.930 . S
H1421 C1429 0.930 . S
H1422 C1430 0.930 . S
H1423 C1431 0.930 . S
H1424 C1434 0.930 . S
H1425 C1435 0.930 . S
C1426 H1420 0.930 . S
C1426 C1427 1.355 1_655 S
C1426 C1428 1.415 . S
C1427 C1426 1.355 1_455 S
C1427 C1429 1.419 . S
C1428 C1426 1.415 . S
C1428 C1433 1.425 1_655 S
C1428 C1435 1.409 . S
C1429 H1421 0.930 . S
C1429 C1427 1.419 . S
C1429 C1430 1.362 . S
C1430 H1422 0.930 . S
C1430 C1429 1.362 . S
C1430 C1433 1.409 . S
C1431 H1423 0.930 . S
C1431 C1432 1.350 1_455 S
C1431 C1433 1.415 . S
C1432 C1431 1.350 1_655 S
C1432 C1434 1.424 . S
C1433 C1428 1.425 1_455 S
C1433 C1430 1.409 . S
C1433 C1431 1.415 . S
C1434 H1424 0.930 . S
C1434 C1432 1.424 . S
C1434 C1435 1.362 . S
C1435 H1425 0.930 . S
C1435 C1428 1.409 . S
C1435 C1434 1.362 . S
H1436 C1442 0.929 . S
H1437 C1445 0.930 . S
H1438 C1446 0.930 . S
H1439 C1447 0.930 . S
H1440 C1450 0.930 . S
H1441 C1451 0.930 . S
C1442 H1436 0.929 . S
C1442 C1443 1.355 1_565 S
C1442 C1444 1.415 . S
C1443 C1442 1.355 1_545 S
C1443 C1445 1.419 . S
C1444 C1442 1.415 . S
C1444 C1449 1.424 1_565 S
C1444 C1451 1.411 . S
C1445 H1437 0.930 . S
C1445 C1443 1.419 . S
C1445 C1446 1.362 . S
C1446 H1438 0.930 . S
C1446 C1445 1.362 . S
C1446 C1449 1.409 . S
C1447 H1439 0.930 . S
C1447 C1448 1.355 . S
C1447 C1449 1.415 . S
C1448 C1447 1.355 . S
C1448 C1450 1.419 1_545 S
C1449 C1444 1.424 1_545 S
C1449 C1446 1.409 . S
C1449 C1447 1.415 . S
C1450 H1440 0.930 . S
C1450 C1448 1.419 1_565 S
C1450 C1451 1.362 . S
C1451 H1441 0.930 . S
C1451 C1444 1.411 . S
C1451 C1450 1.362 . S
H1452 C1458 0.930 . S
H1453 C1461 0.930 . S
H1454 C1462 0.930 . S
H1455 C1463 0.930 . S
H1456 C1466 0.930 . S
H1457 C1467 0.930 . S
C1458 H1452 0.930 . S
C1458 C1459 1.347 1_455 S
C1458 C1460 1.415 . S
C1459 C1458 1.347 1_655 S
C1459 C1461 1.429 . S
C1460 C1458 1.415 . S
C1460 C1465 1.425 1_455 S
C1460 C1467 1.409 . S
C1461 H1453 0.930 . S
C1461 C1459 1.429 . S
C1461 C1462 1.362 . S
C1462 H1454 0.930 . S
C1462 C1461 1.362 . S
C1462 C1465 1.409 . S
C1463 H1455 0.930 . S
C1463 C1464 1.355 1_655 S
C1463 C1465 1.415 . S
C1464 C1463 1.355 1_455 S
C1464 C1466 1.419 . S
C1465 C1460 1.425 1_655 S
C1465 C1462 1.409 . S
C1465 C1463 1.415 . S
C1466 H1456 0.930 . S
C1466 C1464 1.419 . S
C1466 C1467 1.362 . S
C1467 H1457 0.930 . S
C1467 C1460 1.409 . S
C1467 C1466 1.362 . S
H1468 C1474 0.930 . S
H1469 C1477 0.930 . S
H1470 C1478 0.930 . S
H1471 C1479 0.930 . S
H1472 C1482 0.930 . S
H1473 C1483 0.930 . S
C1474 H1468 0.930 . S
C1474 C1475 1.355 1_565 S
C1474 C1476 1.415 . S
C1475 C1474 1.355 1_545 S
C1475 C1477 1.419 . S
C1476 C1474 1.415 . S
C1476 C1481 1.425 1_565 S
C1476 C1483 1.409 . S
C1477 H1469 0.930 . S
C1477 C1475 1.419 . S
C1477 C1478 1.362 . S
C1478 H1470 0.930 . S
C1478 C1477 1.362 . S
C1478 C1481 1.409 . S
C1479 H1471 0.930 . S
C1479 C1480 1.365 . S
C1479 C1481 1.415 . S
C1480 C1479 1.365 . S
C1480 C1482 1.407 1_545 S
C1481 C1476 1.425 1_545 S
C1481 C1478 1.409 . S
C1481 C1479 1.415 . S
C1482 H1472 0.930 . S
C1482 C1480 1.407 1_565 S
C1482 C1483 1.362 . S
C1483 H1473 0.930 . S
C1483 C1476 1.409 . S
C1483 C1482 1.362 . S
H1484 C1490 0.930 . S
H1485 C1493 0.930 . S
H1486 C1494 0.930 . S
H1487 C1495 0.930 . S
H1488 C1498 0.930 . S
H1489 C1499 0.930 . S
C1490 H1484 0.930 . S
C1490 C1491 1.364 . S
C1490 C1492 1.415 . S
C1491 C1490 1.364 . S
C1491 C1493 1.409 1_455 S
C1492 C1490 1.415 . S
C1492 C1497 1.417 1_455 S
C1492 C1499 1.409 . S
C1493 H1485 0.930 . S
C1493 C1491 1.409 1_655 S
C1493 C1494 1.362 . S
C1494 H1486 0.930 . S
C1494 C1493 1.362 . S
C1494 C1497 1.418 . S
C1495 H1487 0.930 . S
C1495 C1496 1.355 1_655 S
C1495 C1497 1.415 . S
C1496 C1495 1.355 1_455 S
C1496 C1498 1.419 . S
C1497 C1492 1.417 1_655 S
C1497 C1494 1.418 . S
C1497 C1495 1.415 . S
C1498 H1488 0.930 . S
C1498 C1496 1.419 . S
C1498 C1499 1.362 . S
C1499 H1489 0.930 . S
C1499 C1492 1.409 . S
C1499 C1498 1.362 . S
H1500 C1506 0.930 . S
H1501 C1509 0.930 . S
H1502 C1510 0.930 . S
H1503 C1511 0.930 . S
H1504 C1514 0.930 . S
H1505 C1515 0.930 . S
C1506 H1500 0.930 . S
C1506 C1507 1.355 1_565 S
C1506 C1508 1.415 . S
C1507 C1506 1.355 1_545 S
C1507 C1509 1.419 . S
C1508 C1506 1.415 . S
C1508 C1513 1.425 1_565 S
C1508 C1515 1.409 . S
C1509 H1501 0.930 . S
C1509 C1507 1.419 . S
C1509 C1510 1.362 . S
C1510 H1502 0.930 . S
C1510 C1509 1.362 . S
C1510 C1513 1.409 . S
C1511 H1503 0.930 . S
C1511 C1512 1.355 1_545 S
C1511 C1513 1.415 . S
C1512 C1511 1.355 1_565 S
C1512 C1514 1.419 . S
C1513 C1508 1.425 1_545 S
C1513 C1510 1.409 . S
C1513 C1511 1.415 . S
C1514 H1504 0.930 . S
C1514 C1512 1.419 . S
C1514 C1515 1.362 . S
C1515 H1505 0.930 . S
C1515 C1508 1.409 . S
C1515 C1514 1.362 . S
H1516 C1522 0.930 . S
H1517 C1525 0.930 . S
H1518 C1526 0.930 . S
H1519 C1527 0.930 . S
H1520 C1530 0.930 . S
H1521 C1531 0.930 . S
C1522 H1516 0.930 . S
C1522 C1523 1.355 1_655 S
C1522 C1524 1.415 . S
C1523 C1522 1.355 1_455 S
C1523 C1525 1.419 . S
C1524 C1522 1.415 . S
C1524 C1529 1.425 1_655 S
C1524 C1531 1.409 . S
C1525 H1517 0.930 . S
C1525 C1523 1.419 . S
C1525 C1526 1.362 . S
C1526 H1518 0.930 . S
C1526 C1525 1.362 . S
C1526 C1529 1.409 . S
C1527 H1519 0.930 . S
C1527 C1528 1.365 . S
C1527 C1529 1.415 . S
C1528 C1527 1.365 . S
C1528 C1530 1.407 1_455 S
C1529 C1524 1.425 1_455 S
C1529 C1526 1.409 . S
C1529 C1527 1.415 . S
C1530 H1520 0.930 . S
C1530 C1528 1.407 1_655 S
C1530 C1531 1.362 . S
C1531 H1521 0.930 . S
C1531 C1524 1.409 . S
C1531 C1530 1.362 . S
H1532 C1538 0.930 . S
H1533 C1541 0.930 . S
H1534 C1542 0.930 . S
H1535 C1543 0.930 . S
H1536 C1546 0.930 . S
H1537 C1547 0.930 . S
C1538 H1532 0.930 . S
C1538 C1539 1.355 1_565 S
C1538 C1540 1.415 . S
C1539 C1538 1.355 1_545 S
C1539 C1541 1.419 . S
C1540 C1538 1.415 . S
C1540 C1545 1.425 1_565 S
C1540 C1547 1.409 . S
C1541 H1533 0.930 . S
C1541 C1539 1.419 . S
C1541 C1542 1.362 . S
C1542 H1534 0.930 . S
C1542 C1541 1.362 . S
C1542 C1545 1.409 . S
C1543 H1535 0.930 . S
C1543 C1544 1.357 1_545 S
C1543 C1545 1.415 . S
C1544 C1543 1.357 1_565 S
C1544 C1546 1.416 . S
C1545 C1540 1.425 1_545 S
C1545 C1542 1.409 . S
C1545 C1543 1.415 . S
C1546 H1536 0.930 . S
C1546 C1544 1.416 . S
C1546 C1547 1.362 . S
C1547 H1537 0.930 . S
C1547 C1540 1.409 . S
C1547 C1546 1.362 . S
H1548 C1554 0.930 . S
H1549 C1557 0.930 . S
H1550 C1558 0.929 . S
H1551 C1559 0.928 1_655 S
H1552 C1562 0.930 . S
H1553 C1563 0.930 . S
C1554 H1548 0.930 . S
C1554 C1555 1.355 . S
C1554 C1556 1.415 . S
C1555 C1554 1.355 . S
C1555 C1557 1.419 . S
C1556 C1554 1.415 . S
C1556 C1561 1.425 . S
C1556 C1563 1.409 . S
C1557 H1549 0.930 . S
C1557 C1555 1.419 . S
C1557 C1558 1.363 . S
C1558 H1550 0.929 . S
C1558 C1557 1.363 . S
C1558 C1561 1.411 . S
C1559 H1551 0.928 1_455 S
C1559 C1560 1.356 . S
C1559 C1561 1.416 . S
C1560 C1559 1.356 . S
C1560 C1562 1.419 . S
C1561 C1556 1.425 . S
C1561 C1558 1.411 . S
C1561 C1559 1.416 . S
C1562 H1552 0.930 . S
C1562 C1560 1.419 . S
C1562 C1563 1.362 . S
C1563 H1553 0.930 . S
C1563 C1556 1.409 . S
C1563 C1562 1.362 . S
H1564 C1570 0.930 . S
H1565 C1573 0.930 . S
H1566 C1574 0.930 . S
H1567 C1575 0.930 . S
H1568 C1578 0.930 . S
H1569 C1579 0.930 . S
C1570 H1564 0.930 . S
C1570 C1571 1.355 1_565 S
C1570 C1572 1.415 . S
C1571 C1570 1.355 1_545 S
C1571 C1573 1.419 . S
C1572 C1570 1.415 . S
C1572 C1577 1.425 1_565 S
C1572 C1579 1.409 . S
C1573 H1565 0.930 . S
C1573 C1571 1.419 . S
C1573 C1574 1.362 . S
C1574 H1566 0.930 . S
C1574 C1573 1.362 . S
C1574 C1577 1.409 . S
C1575 H1567 0.930 . S
C1575 C1576 1.355 1_545 S
C1575 C1577 1.415 . S
C1576 C1575 1.355 1_565 S
C1576 C1578 1.419 . S
C1577 C1572 1.425 1_545 S
C1577 C1574 1.409 . S
C1577 C1575 1.415 . S
C1578 H1568 0.930 . S
C1578 C1576 1.419 . S
C1578 C1579 1.362 . S
C1579 H1569 0.930 . S
C1579 C1572 1.409 . S
C1579 C1578 1.362 . S
H1580 C1586 0.930 . S
H1581 C1589 0.930 . S
H1582 C1590 0.930 . S
H1583 C1591 0.930 . S
H1584 C1594 0.930 . S
H1585 C1595 0.930 . S
C1586 H1580 0.930 . S
C1586 C1587 1.355 1_565 S
C1586 C1588 1.415 . S
C1587 C1586 1.355 1_545 S
C1587 C1589 1.419 . S
C1588 C1586 1.415 . S
C1588 C1593 1.425 1_565 S
C1588 C1595 1.409 . S
C1589 H1581 0.930 . S
C1589 C1587 1.419 . S
C1589 C1590 1.362 . S
C1590 H1582 0.930 . S
C1590 C1589 1.362 . S
C1590 C1593 1.409 . S
C1591 H1583 0.930 . S
C1591 C1592 1.355 1_545 S
C1591 C1593 1.415 . S
C1592 C1591 1.355 1_565 S
C1592 C1594 1.419 . S
C1593 C1588 1.425 1_545 S
C1593 C1590 1.409 . S
C1593 C1591 1.415 . S
C1594 H1584 0.930 . S
C1594 C1592 1.419 . S
C1594 C1595 1.362 . S
C1595 H1585 0.930 . S
C1595 C1588 1.409 . S
C1595 C1594 1.362 . S
H1596 C1602 0.930 . S
H1597 C1605 0.930 . S
H1598 C1606 0.930 . S
H1599 C1607 0.930 . S
H1600 C1610 0.930 . S
H1601 C1611 0.930 . S
C1602 H1596 0.930 . S
C1602 C1603 1.357 . S
C1602 C1604 1.415 . S
C1603 C1602 1.357 . S
C1603 C1605 1.416 1_455 S
C1604 C1602 1.415 . S
C1604 C1609 1.419 1_455 S
C1604 C1611 1.409 . S
C1605 H1597 0.930 . S
C1605 C1603 1.416 1_655 S
C1605 C1606 1.362 . S
C1606 H1598 0.930 . S
C1606 C1605 1.362 . S
C1606 C1609 1.416 . S
C1607 H1599 0.930 . S
C1607 C1608 1.355 1_655 S
C1607 C1609 1.415 . S
C1608 C1607 1.355 1_455 S
C1608 C1610 1.419 . S
C1609 C1604 1.419 1_655 S
C1609 C1606 1.416 . S
C1609 C1607 1.415 . S
C1610 H1600 0.930 . S
C1610 C1608 1.419 . S
C1610 C1611 1.362 . S
C1611 H1601 0.930 . S
C1611 C1604 1.409 . S
C1611 C1610 1.362 . S
H1612 C1618 0.930 . S
H1613 C1621 0.931 . S
H1614 C1622 0.930 . S
H1615 C1623 0.930 . S
H1616 C1626 0.930 . S
H1617 C1627 0.930 . S
C1618 H1612 0.930 . S
C1618 C1619 1.355 . S
C1618 C1620 1.415 . S
C1619 C1618 1.355 . S
C1619 C1621 1.419 . S
C1620 C1618 1.415 . S
C1620 C1625 1.427 . S
C1620 C1627 1.409 . S
C1621 H1613 0.931 . S
C1621 C1619 1.419 . S
C1621 C1622 1.363 . S
C1622 H1614 0.930 . S
C1622 C1621 1.363 . S
C1622 C1625 1.409 . S
C1623 H1615 0.930 . S
C1623 C1624 1.354 1_565 S
C1623 C1625 1.414 1_565 S
C1624 C1623 1.354 1_545 S
C1624 C1626 1.421 . S
C1625 C1620 1.427 . S
C1625 C1622 1.409 . S
C1625 C1623 1.414 1_545 S
C1626 H1616 0.930 . S
C1626 C1624 1.421 . S
C1626 C1627 1.362 . S
C1627 H1617 0.930 . S
C1627 C1620 1.409 . S
C1627 C1626 1.362 . S
H1628 C1634 0.930 . S
H1629 C1637 0.930 . S
H1630 C1638 0.930 . S
H1631 C1639 0.930 . S
H1632 C1642 0.930 . S
H1633 C1643 0.930 . S
C1634 H1628 0.930 . S
C1634 C1635 1.340 1_455 S
C1634 C1636 1.415 . S
C1635 C1634 1.340 1_655 S
C1635 C1637 1.437 . S
C1636 C1634 1.415 . S
C1636 C1641 1.425 1_455 S
C1636 C1643 1.409 . S
C1637 H1629 0.930 . S
C1637 C1635 1.437 . S
C1637 C1638 1.362 . S
C1638 H1630 0.930 . S
C1638 C1637 1.362 . S
C1638 C1641 1.409 . S
C1639 H1631 0.930 . S
C1639 C1640 1.355 1_655 S
C1639 C1641 1.415 . S
C1640 C1639 1.355 1_455 S
C1640 C1642 1.419 . S
C1641 C1636 1.425 1_655 S
C1641 C1638 1.409 . S
C1641 C1639 1.415 . S
C1642 H1632 0.930 . S
C1642 C1640 1.419 . S
C1642 C1643 1.362 . S
C1643 H1633 0.930 . S
C1643 C1636 1.409 . S
C1643 C1642 1.362 . S
H1644 C1650 0.930 . S
H1645 C1653 0.934 . S
H1646 C1654 0.930 . S
H1647 C1655 0.930 . S
H1648 C1658 0.930 . S
H1649 C1659 0.930 . S
C1650 H1644 0.930 . S
C1650 C1651 1.355 . S
C1650 C1652 1.415 . S
C1651 C1650 1.355 . S
C1651 C1653 1.415 1_545 S
C1652 C1650 1.415 . S
C1652 C1657 1.426 1_545 S
C1652 C1659 1.409 . S
C1653 H1645 0.934 . S
C1653 C1651 1.415 1_565 S
C1653 C1654 1.364 . S
C1654 H1646 0.930 . S
C1654 C1653 1.364 . S
C1654 C1657 1.409 . S
C1655 H1647 0.930 . S
C1655 C1656 1.352 1_565 S
C1655 C1657 1.414 . S
C1656 C1655 1.352 1_545 S
C1656 C1658 1.424 . S
C1657 C1652 1.426 1_565 S
C1657 C1654 1.409 . S
C1657 C1655 1.414 . S
C1658 H1648 0.930 . S
C1658 C1656 1.424 . S
C1658 C1659 1.362 . S
C1659 H1649 0.930 . S
C1659 C1652 1.409 . S
C1659 C1658 1.362 . S
H1660 C1666 0.930 . S
H1661 C1669 0.930 . S
H1662 C1670 0.930 . S
H1663 C1671 0.930 . S
H1664 C1674 0.930 . S
H1665 C1675 0.930 . S
C1666 H1660 0.930 . S
C1666 C1667 1.351 1_455 S
C1666 C1668 1.415 . S
C1667 C1666 1.351 1_655 S
C1667 C1669 1.424 . S
C1668 C1666 1.415 . S
C1668 C1673 1.425 1_455 S
C1668 C1675 1.409 . S
C1669 H1661 0.930 . S
C1669 C1667 1.424 . S
C1669 C1670 1.362 . S
C1670 H1662 0.930 . S
C1670 C1669 1.362 . S
C1670 C1673 1.409 . S
C1671 H1663 0.930 . S
C1671 C1672 1.355 1_655 S
C1671 C1673 1.415 . S
C1672 C1671 1.355 1_455 S
C1672 C1674 1.419 . S
C1673 C1668 1.425 1_655 S
C1673 C1670 1.409 . S
C1673 C1671 1.415 . S
C1674 H1664 0.930 . S
C1674 C1672 1.419 . S
C1674 C1675 1.362 . S
C1675 H1665 0.930 . S
C1675 C1668 1.409 . S
C1675 C1674 1.362 . S
H1676 C1682 0.932 . S
H1677 C1685 0.930 . S
H1678 C1686 0.930 . S
H1679 C1687 0.930 . S
H1680 C1690 0.929 1_565 S
H1681 C1691 0.930 1_565 S
C1682 H1676 0.932 . S
C1682 C1683 1.353 1_565 S
C1682 C1684 1.413 1_565 S
C1683 C1682 1.353 1_545 S
C1683 C1685 1.421 . S
C1684 C1682 1.413 1_545 S
C1684 C1689 1.427 . S
C1684 C1691 1.409 . S
C1685 H1677 0.930 . S
C1685 C1683 1.421 . S
C1685 C1686 1.362 . S
C1686 H1678 0.930 . S
C1686 C1685 1.362 . S
C1686 C1689 1.409 . S
C1687 H1679 0.930 . S
C1687 C1688 1.355 . S
C1687 C1689 1.415 . S
C1688 C1687 1.355 . S
C1688 C1690 1.421 . S
C1689 C1684 1.427 . S
C1689 C1686 1.409 . S
C1689 C1687 1.415 . S
C1690 H1680 0.929 1_545 S
C1690 C1688 1.421 . S
C1690 C1691 1.362 . S
C1691 H1681 0.930 1_545 S
C1691 C1684 1.409 . S
C1691 C1690 1.362 . S
H1692 C1698 0.930 . S
H1693 C1701 0.930 . S
H1694 C1702 0.930 . S
H1695 C1703 0.930 . S
H1696 C1706 0.930 . S
H1697 C1707 0.930 . S
C1698 H1692 0.930 . S
C1698 C1699 1.355 1_655 S
C1698 C1700 1.415 . S
C1699 C1698 1.355 1_455 S
C1699 C1701 1.419 . S
C1700 C1698 1.415 . S
C1700 C1705 1.425 1_655 S
C1700 C1707 1.409 . S
C1701 H1693 0.930 . S
C1701 C1699 1.419 . S
C1701 C1702 1.362 . S
C1702 H1694 0.930 . S
C1702 C1701 1.362 . S
C1702 C1705 1.409 . S
C1703 H1695 0.930 . S
C1703 C1704 1.325 1_455 S
C1703 C1705 1.415 . S
C1704 C1703 1.325 1_655 S
C1704 C1706 1.456 . S
C1705 C1700 1.425 1_455 S
C1705 C1702 1.409 . S
C1705 C1703 1.415 . S
C1706 H1696 0.930 . S
C1706 C1704 1.456 . S
C1706 C1707 1.362 . S
C1707 H1697 0.930 . S
C1707 C1700 1.409 . S
C1707 C1706 1.362 . S
H1708 C1714 0.930 . S
H1709 C1717 0.930 . S
H1710 C1718 0.930 . S
H1711 C1719 0.930 . S
H1712 C1722 0.930 . S
H1713 C1723 0.930 . S
C1714 H1708 0.930 . S
C1714 C1715 1.358 . S
C1714 C1716 1.415 . S
C1715 C1714 1.358 . S
C1715 C1717 1.416 1_554 S
C1716 C1714 1.415 . S
C1716 C1721 1.425 1_554 S
C1716 C1723 1.409 . S
C1717 H1709 0.930 . S
C1717 C1715 1.416 1_556 S
C1717 C1718 1.362 . S
C1718 H1710 0.930 . S
C1718 C1717 1.362 . S
C1718 C1721 1.409 . S
C1719 H1711 0.930 . S
C1719 C1720 1.350 1_556 S
C1719 C1721 1.415 . S
C1720 C1719 1.350 1_554 S
C1720 C1722 1.425 . S
C1721 C1716 1.425 1_556 S
C1721 C1718 1.409 . S
C1721 C1719 1.415 . S
C1722 H1712 0.930 . S
C1722 C1720 1.425 . S
C1722 C1723 1.362 . S
C1723 H1713 0.930 . S
C1723 C1716 1.409 . S
C1723 C1722 1.362 . S
H1724 C1730 0.930 . S
H1725 C1733 0.930 . S
H1726 C1734 0.930 . S
H1727 C1735 0.930 . S
H1728 C1738 0.930 . S
H1729 C1739 0.930 . S
C1730 H1724 0.930 . S
C1730 C1731 1.355 1_556 S
C1730 C1732 1.415 . S
C1731 C1730 1.355 1_554 S
C1731 C1733 1.419 . S
C1732 C1730 1.415 . S
C1732 C1737 1.425 1_556 S
C1732 C1739 1.409 . S
C1733 H1725 0.930 . S
C1733 C1731 1.419 . S
C1733 C1734 1.362 . S
C1734 H1726 0.930 . S
C1734 C1733 1.362 . S
C1734 C1737 1.409 . S
C1735 H1727 0.930 . S
C1735 C1736 1.345 1_554 S
C1735 C1737 1.415 . S
C1736 C1735 1.345 1_556 S
C1736 C1738 1.431 . S
C1737 C1732 1.425 1_554 S
C1737 C1734 1.409 . S
C1737 C1735 1.415 . S
C1738 H1728 0.930 . S
C1738 C1736 1.431 . S
C1738 C1739 1.362 . S
C1739 H1729 0.930 . S
C1739 C1732 1.409 . S
C1739 C1738 1.362 . S
H1740 C1746 0.930 . S
H1741 C1749 0.930 . S
H1742 C1750 0.930 . S
H1743 C1751 0.930 . S
H1744 C1754 0.930 . S
H1745 C1755 0.930 . S
C1746 H1740 0.930 . S
C1746 C1747 1.355 1_556 S
C1746 C1748 1.415 . S
C1747 C1746 1.355 1_554 S
C1747 C1749 1.419 . S
C1748 C1746 1.415 . S
C1748 C1753 1.425 1_556 S
C1748 C1755 1.409 . S
C1749 H1741 0.930 . S
C1749 C1747 1.419 . S
C1749 C1750 1.362 . S
C1750 H1742 0.930 . S
C1750 C1749 1.362 . S
C1750 C1753 1.409 . S
C1751 H1743 0.930 . S
C1751 C1752 1.355 1_554 S
C1751 C1753 1.415 . S
C1752 C1751 1.355 1_556 S
C1752 C1754 1.419 . S
C1753 C1748 1.425 1_554 S
C1753 C1750 1.409 . S
C1753 C1751 1.415 . S
C1754 H1744 0.930 . S
C1754 C1752 1.419 . S
C1754 C1755 1.362 . S
C1755 H1745 0.930 . S
C1755 C1748 1.409 . S
C1755 C1754 1.362 . S
H1756 C1762 0.930 . S
H1757 C1765 0.930 . S
H1758 C1766 0.930 . S
H1759 C1767 0.933 . S
H1760 C1770 0.930 . S
H1761 C1771 0.930 . S
C1762 H1756 0.930 . S
C1762 C1763 1.352 1_554 S
C1762 C1764 1.415 . S
C1763 C1762 1.352 1_556 S
C1763 C1765 1.424 . S
C1764 C1762 1.415 . S
C1764 C1769 1.425 1_554 S
C1764 C1771 1.409 . S
C1765 H1757 0.930 . S
C1765 C1763 1.424 . S
C1765 C1766 1.362 . S
C1766 H1758 0.930 . S
C1766 C1765 1.362 . S
C1766 C1769 1.409 . S
C1767 H1759 0.933 . S
C1767 C1768 1.352 1_556 S
C1767 C1769 1.416 . S
C1768 C1767 1.352 1_554 S
C1768 C1770 1.419 . S
C1769 C1764 1.425 1_556 S
C1769 C1766 1.409 . S
C1769 C1767 1.416 . S
C1770 H1760 0.930 . S
C1770 C1768 1.419 . S
C1770 C1771 1.362 . S
C1771 H1761 0.930 . S
C1771 C1764 1.409 . S
C1771 C1770 1.362 . S
H1772 C1778 0.930 . S
H1773 C1781 0.930 . S
H1774 C1782 0.930 . S
H1775 C1783 0.930 . S
H1776 C1786 0.930 . S
H1777 C1787 0.930 . S
C1778 H1772 0.930 . S
C1778 C1779 1.355 1_556 S
C1778 C1780 1.415 . S
C1779 C1778 1.355 1_554 S
C1779 C1781 1.419 . S
C1780 C1778 1.415 . S
C1780 C1785 1.425 1_556 S
C1780 C1787 1.409 . S
C1781 H1773 0.930 . S
C1781 C1779 1.419 . S
C1781 C1782 1.362 . S
C1782 H1774 0.930 . S
C1782 C1781 1.362 . S
C1782 C1785 1.409 . S
C1783 H1775 0.930 . S
C1783 C1784 1.355 1_554 S
C1783 C1785 1.415 . S
C1784 C1783 1.355 1_556 S
C1784 C1786 1.419 . S
C1785 C1780 1.425 1_554 S
C1785 C1782 1.409 . S
C1785 C1783 1.415 . S
C1786 H1776 0.930 . S
C1786 C1784 1.419 . S
C1786 C1787 1.362 . S
C1787 H1777 0.930 . S
C1787 C1780 1.409 . S
C1787 C1786 1.362 . S
H1788 C1794 0.930 . S
H1789 C1797 0.930 . S
H1790 C1798 0.930 . S
H1791 C1799 0.930 . S
H1792 C1802 0.930 . S
H1793 C1803 0.930 . S
C1794 H1788 0.930 . S
C1794 C1795 1.355 1_556 S
C1794 C1796 1.415 . S
C1795 C1794 1.355 1_554 S
C1795 C1797 1.419 . S
C1796 C1794 1.415 . S
C1796 C1801 1.425 1_556 S
C1796 C1803 1.409 . S
C1797 H1789 0.930 . S
C1797 C1795 1.419 . S
C1797 C1798 1.362 . S
C1798 H1790 0.930 . S
C1798 C1797 1.362 . S
C1798 C1801 1.409 . S
C1799 H1791 0.930 . S
C1799 C1800 1.355 1_554 S
C1799 C1801 1.415 . S
C1800 C1799 1.355 1_556 S
C1800 C1802 1.419 . S
C1801 C1796 1.425 1_554 S
C1801 C1798 1.409 . S
C1801 C1799 1.415 . S
C1802 H1792 0.930 . S
C1802 C1800 1.419 . S
C1802 C1803 1.362 . S
C1803 H1793 0.930 . S
C1803 C1796 1.409 . S
C1803 C1802 1.362 . S
H1804 C1810 0.930 . S
H1805 C1813 0.930 . S
H1806 C1814 0.930 . S
H1807 C1815 0.930 . S
H1808 C1818 0.930 . S
H1809 C1819 0.930 . S
C1810 H1804 0.930 . S
C1810 C1811 1.355 1_554 S
C1810 C1812 1.415 . S
C1811 C1810 1.355 1_556 S
C1811 C1813 1.419 . S
C1812 C1810 1.415 . S
C1812 C1817 1.425 1_554 S
C1812 C1819 1.409 . S
C1813 H1805 0.930 . S
C1813 C1811 1.419 . S
C1813 C1814 1.362 . S
C1814 H1806 0.930 . S
C1814 C1813 1.362 . S
C1814 C1817 1.409 . S
C1815 H1807 0.930 . S
C1815 C1816 1.355 1_556 S
C1815 C1817 1.415 . S
C1816 C1815 1.355 1_554 S
C1816 C1818 1.419 . S
C1817 C1812 1.425 1_556 S
C1817 C1814 1.409 . S
C1817 C1815 1.415 . S
C1818 H1808 0.930 . S
C1818 C1816 1.419 . S
C1818 C1819 1.362 . S
C1819 H1809 0.930 . S
C1819 C1812 1.409 . S
C1819 C1818 1.362 . S
H1820 C1826 0.930 . S
H1821 C1829 0.930 . S
H1822 C1830 0.930 . S
H1823 C1831 0.930 . S
H1824 C1834 0.930 . S
H1825 C1835 0.930 . S
C1826 H1820 0.930 . S
C1826 C1827 1.355 1_556 S
C1826 C1828 1.415 . S
C1827 C1826 1.355 1_554 S
C1827 C1829 1.419 . S
C1828 C1826 1.415 . S
C1828 C1833 1.425 1_556 S
C1828 C1835 1.409 . S
C1829 H1821 0.930 . S
C1829 C1827 1.419 . S
C1829 C1830 1.362 . S
C1830 H1822 0.930 . S
C1830 C1829 1.362 . S
C1830 C1833 1.409 . S
C1831 H1823 0.930 . S
C1831 C1832 1.355 1_554 S
C1831 C1833 1.415 . S
C1832 C1831 1.355 1_556 S
C1832 C1834 1.419 . S
C1833 C1828 1.425 1_554 S
C1833 C1830 1.409 . S
C1833 C1831 1.415 . S
C1834 H1824 0.930 . S
C1834 C1832 1.419 . S
C1834 C1835 1.362 . S
C1835 H1825 0.930 . S
C1835 C1828 1.409 . S
C1835 C1834 1.362 . S
H1836 C1842 0.930 . S
H1837 C1845 0.930 . S
H1838 C1846 0.930 . S
H1839 C1847 0.930 . S
H1840 C1850 0.930 . S
H1841 C1851 0.930 . S
C1842 H1836 0.930 . S
C1842 C1843 1.355 . S
C1842 C1844 1.415 . S
C1843 C1842 1.355 . S
C1843 C1845 1.419 . S
C1844 C1842 1.415 . S
C1844 C1849 1.425 . S
C1844 C1851 1.409 . S
C1845 H1837 0.930 . S
C1845 C1843 1.419 . S
C1845 C1846 1.362 . S
C1846 H1838 0.930 . S
C1846 C1845 1.362 . S
C1846 C1849 1.409 . S
C1847 H1839 0.930 . S
C1847 C1848 1.355 . S
C1847 C1849 1.415 . S
C1848 C1847 1.355 . S
C1848 C1850 1.419 . S
C1849 C1844 1.425 . S
C1849 C1846 1.409 . S
C1849 C1847 1.415 . S
C1850 H1840 0.930 . S
C1850 C1848 1.419 . S
C1850 C1851 1.362 . S
C1851 H1841 0.930 . S
C1851 C1844 1.409 . S
C1851 C1850 1.362 . S
H1852 C1858 0.930 . S
H1853 C1861 0.930 . S
H1854 C1862 0.930 . S
H1855 C1863 0.930 . S
H1856 C1866 0.930 . S
H1857 C1867 0.930 . S
C1858 H1852 0.930 . S
C1858 C1859 1.355 . S
C1858 C1860 1.415 . S
C1859 C1858 1.355 . S
C1859 C1861 1.419 . S
C1860 C1858 1.415 . S
C1860 C1865 1.425 . S
C1860 C1867 1.409 . S
C1861 H1853 0.930 . S
C1861 C1859 1.419 . S
C1861 C1862 1.362 . S
C1862 H1854 0.930 . S
C1862 C1861 1.362 . S
C1862 C1865 1.409 . S
C1863 H1855 0.930 . S
C1863 C1864 1.355 . S
C1863 C1865 1.415 . S
C1864 C1863 1.355 . S
C1864 C1866 1.419 . S
C1865 C1860 1.425 . S
C1865 C1862 1.409 . S
C1865 C1863 1.415 . S
C1866 H1856 0.930 . S
C1866 C1864 1.419 . S
C1866 C1867 1.362 . S
C1867 H1857 0.930 . S
C1867 C1860 1.409 . S
C1867 C1866 1.362 . S
H1868 C1874 0.930 . S
H1869 C1877 0.930 . S
H1870 C1878 0.930 . S
H1871 C1879 0.930 . S
H1872 C1882 0.930 . S
H1873 C1883 0.930 . S
C1874 H1868 0.930 . S
C1874 C1875 1.355 . S
C1874 C1876 1.415 . S
C1875 C1874 1.355 . S
C1875 C1877 1.419 . S
C1876 C1874 1.415 . S
C1876 C1881 1.425 . S
C1876 C1883 1.409 . S
C1877 H1869 0.930 . S
C1877 C1875 1.419 . S
C1877 C1878 1.362 . S
C1878 H1870 0.930 . S
C1878 C1877 1.362 . S
C1878 C1881 1.409 . S
C1879 H1871 0.930 . S
C1879 C1880 1.355 . S
C1879 C1881 1.415 . S
C1880 C1879 1.355 . S
C1880 C1882 1.419 . S
C1881 C1876 1.425 . S
C1881 C1878 1.409 . S
C1881 C1879 1.415 . S
C1882 H1872 0.930 . S
C1882 C1880 1.419 . S
C1882 C1883 1.362 . S
C1883 H1873 0.930 . S
C1883 C1876 1.409 . S
C1883 C1882 1.362 . S
H1884 C1890 0.930 . S
H1885 C1893 0.930 . S
H1886 C1894 0.930 . S
H1887 C1895 0.930 . S
H1888 C1898 0.930 . S
H1889 C1899 0.930 . S
C1890 H1884 0.930 . S
C1890 C1891 1.355 . S
C1890 C1892 1.415 . S
C1891 C1890 1.355 . S
C1891 C1893 1.419 . S
C1892 C1890 1.415 . S
C1892 C1897 1.425 . S
C1892 C1899 1.409 . S
C1893 H1885 0.930 . S
C1893 C1891 1.419 . S
C1893 C1894 1.362 . S
C1894 H1886 0.930 . S
C1894 C1893 1.362 . S
C1894 C1897 1.409 . S
C1895 H1887 0.930 . S
C1895 C1896 1.355 . S
C1895 C1897 1.415 . S
C1896 C1895 1.355 . S
C1896 C1898 1.419 . S
C1897 C1892 1.425 . S
C1897 C1894 1.409 . S
C1897 C1895 1.415 . S
C1898 H1888 0.930 . S
C1898 C1896 1.419 . S
C1898 C1899 1.362 . S
C1899 H1889 0.930 . S
C1899 C1892 1.409 . S
C1899 C1898 1.362 . S
H1900 C1906 0.930 . S
H1901 C1909 0.930 . S
H1902 C1910 0.930 . S
H1903 C1911 0.930 . S
H1904 C1914 0.930 . S
H1905 C1915 0.930 . S
C1906 H1900 0.930 . S
C1906 C1907 1.355 . S
C1906 C1908 1.415 . S
C1907 C1906 1.355 . S
C1907 C1909 1.419 . S
C1908 C1906 1.415 . S
C1908 C1913 1.425 . S
C1908 C1915 1.409 . S
C1909 H1901 0.930 . S
C1909 C1907 1.419 . S
C1909 C1910 1.362 . S
C1910 H1902 0.930 . S
C1910 C1909 1.362 . S
C1910 C1913 1.409 . S
C1911 H1903 0.930 . S
C1911 C1912 1.355 . S
C1911 C1913 1.415 . S
C1912 C1911 1.355 . S
C1912 C1914 1.419 . S
C1913 C1908 1.425 . S
C1913 C1910 1.409 . S
C1913 C1911 1.415 . S
C1914 H1904 0.930 . S
C1914 C1912 1.419 . S
C1914 C1915 1.362 . S
C1915 H1905 0.930 . S
C1915 C1908 1.409 . S
C1915 C1914 1.362 . S
H1916 C1922 0.930 . S
H1917 C1925 0.930 . S
H1918 C1926 0.930 . S
H1919 C1927 0.930 . S
H1920 C1930 0.930 . S
H1921 C1931 0.930 . S
C1922 H1916 0.930 . S
C1922 C1923 1.355 . S
C1922 C1924 1.415 . S
C1923 C1922 1.355 . S
C1923 C1925 1.419 . S
C1924 C1922 1.415 . S
C1924 C1929 1.425 . S
C1924 C1931 1.409 . S
C1925 H1917 0.930 . S
C1925 C1923 1.419 . S
C1925 C1926 1.362 . S
C1926 H1918 0.930 . S
C1926 C1925 1.362 . S
C1926 C1929 1.409 . S
C1927 H1919 0.930 . S
C1927 C1928 1.355 . S
C1927 C1929 1.415 . S
C1928 C1927 1.355 . S
C1928 C1930 1.419 . S
C1929 C1924 1.425 . S
C1929 C1926 1.409 . S
C1929 C1927 1.415 . S
C1930 H1920 0.930 . S
C1930 C1928 1.419 . S
C1930 C1931 1.362 . S
C1931 H1921 0.930 . S
C1931 C1924 1.409 . S
C1931 C1930 1.362 . S
H1932 C1938 0.930 . S
H1933 C1941 0.930 . S
H1934 C1942 0.930 . S
H1935 C1943 0.930 . S
H1936 C1946 0.930 . S
H1937 C1947 0.930 . S
C1938 H1932 0.930 . S
C1938 C1939 1.355 . S
C1938 C1940 1.415 . S
C1939 C1938 1.355 . S
C1939 C1941 1.419 . S
C1940 C1938 1.415 . S
C1940 C1945 1.425 . S
C1940 C1947 1.409 . S
C1941 H1933 0.930 . S
C1941 C1939 1.419 . S
C1941 C1942 1.362 . S
C1942 H1934 0.930 . S
C1942 C1941 1.362 . S
C1942 C1945 1.409 . S
C1943 H1935 0.930 . S
C1943 C1944 1.355 . S
C1943 C1945 1.415 . S
C1944 C1943 1.355 . S
C1944 C1946 1.419 . S
C1945 C1940 1.425 . S
C1945 C1942 1.409 . S
C1945 C1943 1.415 . S
C1946 H1936 0.930 . S
C1946 C1944 1.419 . S
C1946 C1947 1.362 . S
C1947 H1937 0.930 . S
C1947 C1940 1.409 . S
C1947 C1946 1.362 . S
H1948 C1954 0.930 . S
H1949 C1957 0.930 . S
H1950 C1958 0.930 . S
H1951 C1959 0.930 . S
H1952 C1962 0.930 . S
H1953 C1963 0.930 . S
C1954 H1948 0.930 . S
C1954 C1955 1.355 . S
C1954 C1956 1.415 . S
C1955 C1954 1.355 . S
C1955 C1957 1.419 . S
C1956 C1954 1.415 . S
C1956 C1961 1.425 . S
C1956 C1963 1.409 . S
C1957 H1949 0.930 . S
C1957 C1955 1.419 . S
C1957 C1958 1.362 . S
C1958 H1950 0.930 . S
C1958 C1957 1.362 . S
C1958 C1961 1.409 . S
C1959 H1951 0.930 . S
C1959 C1960 1.355 . S
C1959 C1961 1.415 . S
C1960 C1959 1.355 . S
C1960 C1962 1.419 . S
C1961 C1956 1.425 . S
C1961 C1958 1.409 . S
C1961 C1959 1.415 . S
C1962 H1952 0.930 . S
C1962 C1960 1.419 . S
C1962 C1963 1.362 . S
C1963 H1953 0.930 . S
C1963 C1956 1.409 . S
C1963 C1962 1.362 . S
H1964 C1970 0.930 . S
H1965 C1973 0.930 . S
H1966 C1974 0.930 . S
H1967 C1975 0.930 . S
H1968 C1978 0.930 . S
H1969 C1979 0.930 . S
C1970 H1964 0.930 . S
C1970 C1971 1.355 . S
C1970 C1972 1.415 . S
C1971 C1970 1.355 . S
C1971 C1973 1.419 . S
C1972 C1970 1.415 . S
C1972 C1977 1.425 . S
C1972 C1979 1.409 . S
C1973 H1965 0.930 . S
C1973 C1971 1.419 . S
C1973 C1974 1.362 . S
C1974 H1966 0.930 . S
C1974 C1973 1.362 . S
C1974 C1977 1.409 . S
C1975 H1967 0.930 . S
C1975 C1976 1.355 . S
C1975 C1977 1.415 . S
C1976 C1975 1.355 . S
C1976 C1978 1.419 . S
C1977 C1972 1.425 . S
C1977 C1974 1.409 . S
C1977 C1975 1.415 . S
C1978 H1968 0.930 . S
C1978 C1976 1.419 . S
C1978 C1979 1.362 . S
C1979 H1969 0.930 . S
C1979 C1972 1.409 . S
C1979 C1978 1.362 . S
H1980 C1986 0.930 . S
H1981 C1989 0.930 . S
H1982 C1990 0.930 . S
H1983 C1991 0.930 . S
H1984 C1994 0.930 . S
H1985 C1995 0.930 . S
C1986 H1980 0.930 . S
C1986 C1987 1.355 . S
C1986 C1988 1.415 . S
C1987 C1986 1.355 . S
C1987 C1989 1.419 . S
C1988 C1986 1.415 . S
C1988 C1993 1.425 . S
C1988 C1995 1.409 . S
C1989 H1981 0.930 . S
C1989 C1987 1.419 . S
C1989 C1990 1.362 . S
C1990 H1982 0.930 . S
C1990 C1989 1.362 . S
C1990 C1993 1.409 . S
C1991 H1983 0.930 . S
C1991 C1992 1.355 . S
C1991 C1993 1.415 . S
C1992 C1991 1.355 . S
C1992 C1994 1.419 . S
C1993 C1988 1.425 . S
C1993 C1990 1.409 . S
C1993 C1991 1.415 . S
C1994 H1984 0.930 . S
C1994 C1992 1.419 . S
C1994 C1995 1.362 . S
C1995 H1985 0.930 . S
C1995 C1988 1.409 . S
C1995 C1994 1.362 . S
H1996 C2002 0.930 . S
H1997 C2005 0.930 . S
H1998 C2006 0.930 . S
H1999 C2007 0.930 . S
H2000 C2010 0.930 . S
H2001 C2011 0.930 . S
C2002 H1996 0.930 . S
C2002 C2003 1.355 . S
C2002 C2004 1.415 . S
C2003 C2002 1.355 . S
C2003 C2005 1.419 . S
C2004 C2002 1.415 . S
C2004 C2009 1.425 . S
C2004 C2011 1.409 . S
C2005 H1997 0.930 . S
C2005 C2003 1.419 . S
C2005 C2006 1.362 . S
C2006 H1998 0.930 . S
C2006 C2005 1.362 . S
C2006 C2009 1.409 . S
C2007 H1999 0.930 . S
C2007 C2008 1.355 . S
C2007 C2009 1.415 . S
C2008 C2007 1.355 . S
C2008 C2010 1.419 . S
C2009 C2004 1.425 . S
C2009 C2006 1.409 . S
C2009 C2007 1.415 . S
C2010 H2000 0.930 . S
C2010 C2008 1.419 . S
C2010 C2011 1.362 . S
C2011 H2001 0.930 . S
C2011 C2004 1.409 . S
C2011 C2010 1.362 . S
H2012 C2018 0.930 . S
H2013 C2021 0.930 . S
H2014 C2022 0.930 . S
H2015 C2023 0.930 . S
H2016 C2026 0.930 . S
H2017 C2027 0.930 . S
C2018 H2012 0.930 . S
C2018 C2019 1.355 . S
C2018 C2020 1.415 . S
C2019 C2018 1.355 . S
C2019 C2021 1.419 . S
C2020 C2018 1.415 . S
C2020 C2025 1.425 . S
C2020 C2027 1.409 . S
C2021 H2013 0.930 . S
C2021 C2019 1.419 . S
C2021 C2022 1.362 . S
C2022 H2014 0.930 . S
C2022 C2021 1.362 . S
C2022 C2025 1.409 . S
C2023 H2015 0.930 . S
C2023 C2024 1.355 . S
C2023 C2025 1.415 . S
C2024 C2023 1.355 . S
C2024 C2026 1.419 . S
C2025 C2020 1.425 . S
C2025 C2022 1.409 . S
C2025 C2023 1.415 . S
C2026 H2016 0.930 . S
C2026 C2024 1.419 . S
C2026 C2027 1.362 . S
C2027 H2017 0.930 . S
C2027 C2020 1.409 . S
C2027 C2026 1.362 . S
H2028 C2034 0.930 . S
H2029 C2037 0.930 . S
H2030 C2038 0.930 . S
H2031 C2039 0.930 . S
H2032 C2042 0.930 . S
H2033 C2043 0.930 . S
C2034 H2028 0.930 . S
C2034 C2035 1.355 . S
C2034 C2036 1.415 . S
C2035 C2034 1.355 . S
C2035 C2037 1.419 . S
C2036 C2034 1.415 . S
C2036 C2041 1.425 . S
C2036 C2043 1.409 . S
C2037 H2029 0.930 . S
C2037 C2035 1.419 . S
C2037 C2038 1.362 . S
C2038 H2030 0.930 . S
C2038 C2037 1.362 . S
C2038 C2041 1.409 . S
C2039 H2031 0.930 . S
C2039 C2040 1.355 . S
C2039 C2041 1.415 . S
C2040 C2039 1.355 . S
C2040 C2042 1.419 . S
C2041 C2036 1.425 . S
C2041 C2038 1.409 . S
C2041 C2039 1.415 . S
C2042 H2032 0.930 . S
C2042 C2040 1.419 . S
C2042 C2043 1.362 . S
C2043 H2033 0.930 . S
C2043 C2036 1.409 . S
C2043 C2042 1.362 . S
H2044 C2050 0.930 . S
H2045 C2053 0.930 . S
H2046 C2054 0.930 . S
H2047 C2055 0.930 . S
H2048 C2058 0.930 . S
H2049 C2059 0.930 . S
C2050 H2044 0.930 . S
C2050 C2051 1.355 . S
C2050 C2052 1.415 . S
C2051 C2050 1.355 . S
C2051 C2053 1.419 . S
C2052 C2050 1.415 . S
C2052 C2057 1.425 . S
C2052 C2059 1.409 . S
C2053 H2045 0.930 . S
C2053 C2051 1.419 . S
C2053 C2054 1.362 . S
C2054 H2046 0.930 . S
C2054 C2053 1.362 . S
C2054 C2057 1.409 . S
C2055 H2047 0.930 . S
C2055 C2056 1.355 . S
C2055 C2057 1.415 . S
C2056 C2055 1.355 . S
C2056 C2058 1.419 . S
C2057 C2052 1.425 . S
C2057 C2054 1.409 . S
C2057 C2055 1.415 . S
C2058 H2048 0.930 . S
C2058 C2056 1.419 . S
C2058 C2059 1.362 . S
C2059 H2049 0.930 . S
C2059 C2052 1.409 . S
C2059 C2058 1.362 . S
H2060 C2066 0.930 . S
H2061 C2069 0.930 . S
H2062 C2070 0.930 . S
H2063 C2071 0.930 . S
H2064 C2074 0.930 . S
H2065 C2075 0.930 . S
C2066 H2060 0.930 . S
C2066 C2067 1.355 . S
C2066 C2068 1.415 . S
C2067 C2066 1.355 . S
C2067 C2069 1.419 . S
C2068 C2066 1.415 . S
C2068 C2073 1.425 . S
C2068 C2075 1.409 . S
C2069 H2061 0.930 . S
C2069 C2067 1.419 . S
C2069 C2070 1.362 . S
C2070 H2062 0.930 . S
C2070 C2069 1.362 . S
C2070 C2073 1.409 . S
C2071 H2063 0.930 . S
C2071 C2072 1.355 . S
C2071 C2073 1.415 . S
C2072 C2071 1.355 . S
C2072 C2074 1.419 . S
C2073 C2068 1.425 . S
C2073 C2070 1.409 . S
C2073 C2071 1.415 . S
C2074 H2064 0.930 . S
C2074 C2072 1.419 . S
C2074 C2075 1.362 . S
C2075 H2065 0.930 . S
C2075 C2068 1.409 . S
C2075 C2074 1.362 . S
H2076 C2082 0.930 . S
H2077 C2085 0.930 . S
H2078 C2086 0.930 . S
H2079 C2087 0.930 . S
H2080 C2090 0.930 . S
H2081 C2091 0.930 . S
C2082 H2076 0.930 . S
C2082 C2083 1.355 . S
C2082 C2084 1.415 . S
C2083 C2082 1.355 . S
C2083 C2085 1.419 . S
C2084 C2082 1.415 . S
C2084 C2089 1.425 . S
C2084 C2091 1.409 . S
C2085 H2077 0.930 . S
C2085 C2083 1.419 . S
C2085 C2086 1.362 . S
C2086 H2078 0.930 . S
C2086 C2085 1.362 . S
C2086 C2089 1.409 . S
C2087 H2079 0.930 . S
C2087 C2088 1.355 . S
C2087 C2089 1.415 . S
C2088 C2087 1.355 . S
C2088 C2090 1.419 . S
C2089 C2084 1.425 . S
C2089 C2086 1.409 . S
C2089 C2087 1.415 . S
C2090 H2080 0.930 . S
C2090 C2088 1.419 . S
C2090 C2091 1.362 . S
C2091 H2081 0.930 . S
C2091 C2084 1.409 . S
C2091 C2090 1.362 . S
H2092 C2098 0.930 . S
H2093 C2101 0.930 . S
H2094 C2102 0.930 . S
H2095 C2103 0.930 . S
H2096 C2106 0.930 . S
H2097 C2107 0.930 . S
C2098 H2092 0.930 . S
C2098 C2099 1.355 . S
C2098 C2100 1.415 . S
C2099 C2098 1.355 . S
C2099 C2101 1.419 . S
C2100 C2098 1.415 . S
C2100 C2105 1.425 . S
C2100 C2107 1.409 . S
C2101 H2093 0.930 . S
C2101 C2099 1.419 . S
C2101 C2102 1.362 . S
C2102 H2094 0.930 . S
C2102 C2101 1.362 . S
C2102 C2105 1.409 . S
C2103 H2095 0.930 . S
C2103 C2104 1.355 . S
C2103 C2105 1.415 . S
C2104 C2103 1.355 . S
C2104 C2106 1.419 . S
C2105 C2100 1.425 . S
C2105 C2102 1.409 . S
C2105 C2103 1.415 . S
C2106 H2096 0.930 . S
C2106 C2104 1.419 . S
C2106 C2107 1.362 . S
C2107 H2097 0.930 . S
C2107 C2100 1.409 . S
C2107 C2106 1.362 . S
H2108 C2114 0.930 . S
H2109 C2117 0.930 . S
H2110 C2118 0.930 . S
H2111 C2119 0.930 . S
H2112 C2122 0.930 . S
H2113 C2123 0.930 . S
C2114 H2108 0.930 . S
C2114 C2115 1.355 . S
C2114 C2116 1.415 . S
C2115 C2114 1.355 . S
C2115 C2117 1.419 . S
C2116 C2114 1.415 . S
C2116 C2121 1.425 . S
C2116 C2123 1.409 . S
C2117 H2109 0.930 . S
C2117 C2115 1.419 . S
C2117 C2118 1.362 . S
C2118 H2110 0.930 . S
C2118 C2117 1.362 . S
C2118 C2121 1.409 . S
C2119 H2111 0.930 . S
C2119 C2120 1.355 . S
C2119 C2121 1.415 . S
C2120 C2119 1.355 . S
C2120 C2122 1.419 . S
C2121 C2116 1.425 . S
C2121 C2118 1.409 . S
C2121 C2119 1.415 . S
C2122 H2112 0.930 . S
C2122 C2120 1.419 . S
C2122 C2123 1.362 . S
C2123 H2113 0.930 . S
C2123 C2116 1.409 . S
C2123 C2122 1.362 . S
H2124 C2130 0.930 . S
H2125 C2133 0.930 . S
H2126 C2134 0.930 . S
H2127 C2135 0.930 . S
H2128 C2138 0.930 . S
H2129 C2139 0.930 . S
C2130 H2124 0.930 . S
C2130 C2131 1.355 . S
C2130 C2132 1.415 . S
C2131 C2130 1.355 . S
C2131 C2133 1.419 . S
C2132 C2130 1.415 . S
C2132 C2137 1.425 . S
C2132 C2139 1.409 . S
C2133 H2125 0.930 . S
C2133 C2131 1.419 . S
C2133 C2134 1.362 . S
C2134 H2126 0.930 . S
C2134 C2133 1.362 . S
C2134 C2137 1.409 . S
C2135 H2127 0.930 . S
C2135 C2136 1.355 . S
C2135 C2137 1.415 . S
C2136 C2135 1.355 . S
C2136 C2138 1.419 . S
C2137 C2132 1.425 . S
C2137 C2134 1.409 . S
C2137 C2135 1.415 . S
C2138 H2128 0.930 . S
C2138 C2136 1.419 . S
C2138 C2139 1.362 . S
C2139 H2129 0.930 . S
C2139 C2132 1.409 . S
C2139 C2138 1.362 . S
H2140 C2146 0.930 . S
H2141 C2149 0.930 . S
H2142 C2150 0.930 . S
H2143 C2151 0.930 . S
H2144 C2154 0.930 . S
H2145 C2155 0.930 . S
C2146 H2140 0.930 . S
C2146 C2147 1.355 . S
C2146 C2148 1.415 . S
C2147 C2146 1.355 . S
C2147 C2149 1.419 . S
C2148 C2146 1.415 . S
C2148 C2153 1.425 . S
C2148 C2155 1.409 . S
C2149 H2141 0.930 . S
C2149 C2147 1.419 . S
C2149 C2150 1.362 . S
C2150 H2142 0.930 . S
C2150 C2149 1.362 . S
C2150 C2153 1.409 . S
C2151 H2143 0.930 . S
C2151 C2152 1.355 . S
C2151 C2153 1.415 . S
C2152 C2151 1.355 . S
C2152 C2154 1.419 . S
C2153 C2148 1.425 . S
C2153 C2150 1.409 . S
C2153 C2151 1.415 . S
C2154 H2144 0.930 . S
C2154 C2152 1.419 . S
C2154 C2155 1.362 . S
C2155 H2145 0.930 . S
C2155 C2148 1.409 . S
C2155 C2154 1.362 . S
H2156 C2162 0.930 . S
H2157 C2165 0.930 . S
H2158 C2166 0.930 . S
H2159 C2167 0.930 . S
H2160 C2170 0.930 . S
H2161 C2171 0.930 . S
C2162 H2156 0.930 . S
C2162 C2163 1.355 . S
C2162 C2164 1.415 . S
C2163 C2162 1.355 . S
C2163 C2165 1.419 . S
C2164 C2162 1.415 . S
C2164 C2169 1.425 . S
C2164 C2171 1.409 . S
C2165 H2157 0.930 . S
C2165 C2163 1.419 . S
C2165 C2166 1.362 . S
C2166 H2158 0.930 . S
C2166 C2165 1.362 . S
C2166 C2169 1.409 . S
C2167 H2159 0.930 . S
C2167 C2168 1.355 . S
C2167 C2169 1.415 . S
C2168 C2167 1.355 . S
C2168 C2170 1.419 . S
C2169 C2164 1.425 . S
C2169 C2166 1.409 . S
C2169 C2167 1.415 . S
C2170 H2160 0.930 . S
C2170 C2168 1.419 . S
C2170 C2171 1.362 . S
C2171 H2161 0.930 . S
C2171 C2164 1.409 . S
C2171 C2170 1.362 . S
H2172 C2178 0.930 . S
H2173 C2181 0.930 . S
H2174 C2182 0.930 . S
H2175 C2183 0.930 . S
H2176 C2186 0.930 . S
H2177 C2187 0.930 . S
C2178 H2172 0.930 . S
C2178 C2179 1.355 . S
C2178 C2180 1.415 . S
C2179 C2178 1.355 . S
C2179 C2181 1.419 . S
C2180 C2178 1.415 . S
C2180 C2185 1.425 . S
C2180 C2187 1.409 . S
C2181 H2173 0.930 . S
C2181 C2179 1.419 . S
C2181 C2182 1.362 . S
C2182 H2174 0.930 . S
C2182 C2181 1.362 . S
C2182 C2185 1.409 . S
C2183 H2175 0.930 . S
C2183 C2184 1.355 . S
C2183 C2185 1.415 . S
C2184 C2183 1.355 . S
C2184 C2186 1.419 . S
C2185 C2180 1.425 . S
C2185 C2182 1.409 . S
C2185 C2183 1.415 . S
C2186 H2176 0.930 . S
C2186 C2184 1.419 . S
C2186 C2187 1.362 . S
C2187 H2177 0.930 . S
C2187 C2180 1.409 . S
C2187 C2186 1.362 . S
H2188 C2194 0.930 . S
H2189 C2197 0.930 . S
H2190 C2198 0.930 . S
H2191 C2199 0.930 . S
H2192 C2202 0.930 . S
H2193 C2203 0.930 . S
C2194 H2188 0.930 . S
C2194 C2195 1.355 . S
C2194 C2196 1.415 . S
C2195 C2194 1.355 . S
C2195 C2197 1.419 . S
C2196 C2194 1.415 . S
C2196 C2201 1.425 . S
C2196 C2203 1.409 . S
C2197 H2189 0.930 . S
C2197 C2195 1.419 . S
C2197 C2198 1.362 . S
C2198 H2190 0.930 . S
C2198 C2197 1.362 . S
C2198 C2201 1.409 . S
C2199 H2191 0.930 . S
C2199 C2200 1.355 . S
C2199 C2201 1.415 . S
C2200 C2199 1.355 . S
C2200 C2202 1.419 . S
C2201 C2196 1.425 . S
C2201 C2198 1.409 . S
C2201 C2199 1.415 . S
C2202 H2192 0.930 . S
C2202 C2200 1.419 . S
C2202 C2203 1.362 . S
C2203 H2193 0.930 . S
C2203 C2196 1.409 . S
C2203 C2202 1.362 . S
H2204 C2210 0.930 . S
H2205 C2213 0.930 . S
H2206 C2214 0.930 . S
H2207 C2215 0.930 . S
H2208 C2218 0.930 . S
H2209 C2219 0.930 . S
C2210 H2204 0.930 . S
C2210 C2211 1.355 . S
C2210 C2212 1.415 . S
C2211 C2210 1.355 . S
C2211 C2213 1.419 . S
C2212 C2210 1.415 . S
C2212 C2217 1.425 . S
C2212 C2219 1.409 . S
C2213 H2205 0.930 . S
C2213 C2211 1.419 . S
C2213 C2214 1.362 . S
C2214 H2206 0.930 . S
C2214 C2213 1.362 . S
C2214 C2217 1.409 . S
C2215 H2207 0.930 . S
C2215 C2216 1.355 . S
C2215 C2217 1.415 . S
C2216 C2215 1.355 . S
C2216 C2218 1.419 . S
C2217 C2212 1.425 . S
C2217 C2214 1.409 . S
C2217 C2215 1.415 . S
C2218 H2208 0.930 . S
C2218 C2216 1.419 . S
C2218 C2219 1.362 . S
C2219 H2209 0.930 . S
C2219 C2212 1.409 . S
C2219 C2218 1.362 . S
C1080 C774 1.171 . S
C1075 C765 1.183 . S
C1091 C701 1.188 . S
C1096 C772 1.186 . S
C1112 C773 1.179 . S
C1107 C669 1.190 . S
C1123 C733 1.146 . S
C1128 C775 1.162 . S
C1144 C819 1.170 . S
C1139 C541 1.159 . S
C1160 C879 1.153 . S
C1155 C573 1.093 . S
C1171 C605 1.174 . S
C1176 C818 1.180 . S
C1192 C878 1.180 . S
C1187 C637 1.175 . S
C1203 C413 1.156 . S
C1208 C820 1.172 . S
C1224 C876 1.179 . S
C1219 C445 1.141 . S
C1235 C477 1.168 . S
C1240 C821 1.162 . S
C1251 C509 1.150 . S
C1256 C877 1.151 . S
C1272 C927 1.163 1_556 S
C1267 C381 1.131 . S
C1283 C317 1.198 1_554 S
C1288 C926 1.190 1_556 S
C1299 C285 1.133 . S
C1304 C928 1.185 . S
C1320 C929 1.155 1_556 S
C1315 C349 1.121 1_554 S
C1331 C157 1.176 1_455 S
C1336 C970 1.168 . S
C1347 C189 1.104 . S
C1352 C1029 1.153 . S
C1363 C221 1.174 . S
C1368 C968 1.176 . S
C1379 C253 1.152 . S
C1384 C1028 1.167 . S
C1400 C969 1.177 . S
C1395 C29 1.171 1_455 S
C1416 C1026 1.179 . S
C1411 C61 1.146 . S
C1427 C93 1.108 . S
C1432 C971 1.167 1_655 S
C1448 C1027 1.162 . S
C1443 C125 1.147 1_545 S
C1464 C771 1.802 . S
C1459 C23 1.666 . S
C1475 C55 1.638 1_545 S
C1480 C777 1.777 . S
C1491 C87 1.729 . S
C1496 C769 1.807 . S
C1507 C113 1.694 1_545 S
C1512 C776 1.773 1_565 S
C1523 C151 1.687 1_455 S
C1528 C768 1.792 . S
C1544 C778 1.765 1_565 S
C1539 C183 1.635 1_545 S
C1555 C215 1.645 . S
C1560 C770 1.789 . S
C1576 C779 1.781 1_565 S
C1571 C247 1.640 . S
C1592 C825 1.776 1_565 S
C1587 C119 1.670 1_545 S
C1603 C17 1.707 1_455 S
C1608 C868 1.801 . S
C1624 C823 1.771 . S
C1619 C49 1.657 1_545 S
C1640 C870 1.794 . S
C1635 C81 1.719 1_655 S
C1651 C177 1.646 1_545 S
C1656 C824 1.762 . S
C1672 C869 1.780 . S
C1667 C209 1.683 1_655 S
C1688 C822 1.767 . S
C1683 C241 1.659 . S
C1704 C871 1.793 1_655 S
C1699 C145 1.723 1_455 S
C1720 C875 1.821 . S
C1715 C279 1.724 1_554 S
C1731 C305 1.745 1_554 S
C1736 C874 1.818 1_556 S
C1752 C826 1.790 1_556 S
C1747 C273 1.684 1_554 S
C1768 C873 1.799 . S
C1763 C337 1.712 . S
C1779 C375 1.643 . S
C1784 C829 1.790 1_556 S
C1795 C369 1.689 . S
C1800 C872 1.796 1_556 S
C1816 C828 1.818 . S
C1811 C311 1.702 . S
C1832 C827 1.803 1_556 S
C1827 C343 1.712 1_554 S
C1848 C921 1.815 . S
C1843 C407 1.712 . S
C1864 C924 1.800 . S
C1859 C439 1.714 . S
C1875 C471 1.718 . S
C1880 C920 1.808 . S
C1896 C922 1.762 . S
C1891 C497 1.646 . S
C1912 C918 1.804 . S
C1907 C535 1.682 . S
C1923 C561 1.708 . S
C1928 C923 1.789 . S
C1939 C599 1.725 . S
C1944 C919 1.816 . S
C1960 C925 1.805 . S
C1955 C631 1.706 . S
C1976 C979 1.792 . S
C1971 C503 1.704 . S
C1987 C401 1.702 . S
C1992 C1018 1.797 . S
C2008 C978 1.769 . S
C2003 C433 1.660 . S
C2024 C1020 1.795 . S
C2019 C465 1.724 . S
C2040 C977 1.793 . S
C2035 C567 1.703 . S
C2051 C593 1.733 . S
C2056 C1019 1.805 . S
C2072 C976 1.791 . S
C2067 C625 1.690 . S
C2088 C1021 1.804 . S
C2083 C529 1.717 . S
C2104 C1025 1.789 . S
C2099 C663 1.656 . S
C2115 C689 1.664 . S
C2120 C1024 1.790 . S
C2136 C972 1.789 . S
C2131 C657 1.675 . S
C2147 C721 1.728 . S
C2152 C1023 1.801 . S
C2168 C975 1.790 . S
C2163 C759 1.643 . S
C2184 C1022 1.806 . S
C2179 C753 1.720 . S
C2200 C973 1.822 . S
C2195 C695 1.734 . S
C2211 C727 1.725 . S
C2216 C974 1.813 . S
