# Generated by pormake.
# Topology zzz, (3,6)-cn, num edge types: 1
# Building blocks:
#     Node 0, Type 0, BuildingBlock: ESEHIV_clean_linker_0, # of connection points: 3
#     Node 1, Type 0, BuildingBlock: ESEHIV_clean_linker_0, # of connection points: 3
#     Node 2, Type 0, BuildingBlock: ESEHIV_clean_linker_0, # of connection points: 3
#     Node 3, Type 0, BuildingBlock: ESEHIV_clean_linker_0, # of connection points: 3
#     Node 4, Type 0, BuildingBlock: ESEHIV_clean_linker_0, # of connection points: 3
#     Node 5, Type 0, BuildingBlock: ESEHIV_clean_linker_0, # of connection points: 3
#     Node 6, Type 0, BuildingBlock: ESEHIV_clean_linker_0, # of connection points: 3
#     Node 7, Type 0, BuildingBlock: ESEHIV_clean_linker_0, # of connection points: 3
#     Node 8, Type 1, BuildingBlock: BETGAK_clean_sbu_0, # of connection points: 6
#     Node 9, Type 1, BuildingBlock: BETGAK_clean_sbu_0, # of connection points: 6
#     Node 10, Type 1, BuildingBlock: BETGAK_clean_sbu_0, # of connection points: 6
#     Node 11, Type 1, BuildingBlock: BETGAK_clean_sbu_0, # of connection points: 6
#     Edge 12, Type (0, 1), BuildingBlock: AJUNOK_clean_linker_0, # of connection points: 2
#     Edge 13, Type (0, 1), BuildingBlock: AJUNOK_clean_linker_0, # of connection points: 2
#     Edge 14, Type (0, 1), BuildingBlock: AJUNOK_clean_linker_0, # of connection points: 2
#     Edge 15, Type (0, 1), BuildingBlock: AJUNOK_clean_linker_0, # of connection points: 2
#     Edge 16, Type (0, 1), BuildingBlock: AJUNOK_clean_linker_0, # of connection points: 2
#     Edge 17, Type (0, 1), BuildingBlock: AJUNOK_clean_linker_0, # of connection points: 2
#     Edge 18, Type (0, 1), BuildingBlock: AJUNOK_clean_linker_0, # of connection points: 2
#     Edge 19, Type (0, 1), BuildingBlock: AJUNOK_clean_linker_0, # of connection points: 2
#     Edge 20, Type (0, 1), BuildingBlock: AJUNOK_clean_linker_0, # of connection points: 2
#     Edge 21, Type (0, 1), BuildingBlock: AJUNOK_clean_linker_0, # of connection points: 2
#     Edge 22, Type (0, 1), BuildingBlock: AJUNOK_clean_linker_0, # of connection points: 2
#     Edge 23, Type (0, 1), BuildingBlock: AJUNOK_clean_linker_0, # of connection points: 2
#     Edge 24, Type (0, 1), BuildingBlock: AJUNOK_clean_linker_0, # of connection points: 2
#     Edge 25, Type (0, 1), BuildingBlock: AJUNOK_clean_linker_0, # of connection points: 2
#     Edge 26, Type (0, 1), BuildingBlock: AJUNOK_clean_linker_0, # of connection points: 2
#     Edge 27, Type (0, 1), BuildingBlock: AJUNOK_clean_linker_0, # of connection points: 2
#     Edge 28, Type (0, 1), BuildingBlock: AJUNOK_clean_linker_0, # of connection points: 2
#     Edge 29, Type (0, 1), BuildingBlock: AJUNOK_clean_linker_0, # of connection points: 2
#     Edge 30, Type (0, 1), BuildingBlock: AJUNOK_clean_linker_0, # of connection points: 2
#     Edge 31, Type (0, 1), BuildingBlock: AJUNOK_clean_linker_0, # of connection points: 2
#     Edge 32, Type (0, 1), BuildingBlock: AJUNOK_clean_linker_0, # of connection points: 2
#     Edge 33, Type (0, 1), BuildingBlock: AJUNOK_clean_linker_0, # of connection points: 2
#     Edge 34, Type (0, 1), BuildingBlock: AJUNOK_clean_linker_0, # of connection points: 2
#     Edge 35, Type (0, 1), BuildingBlock: AJUNOK_clean_linker_0, # of connection points: 2
# Relax obj value: 0.638
# Max RMSD: 0.273
# Mean RMSD: 0.252
data_MOF--net-zzz--node1-BETGAK_clean_sbu_0--node2-ESEHIV_clean_linker_0--edge1-AJUNOK_clean_linker_0
_symmetry_space_group_name_H-M    P1
_symmetry_Int_Tables_number       1
_symmetry_cell_setting            triclinic
loop_
_symmetry_equiv_pos_as_xyz
'x, y, z'
_cell_length_a     32.142015
_cell_length_b     32.130499
_cell_length_c     10.510795
_cell_angle_alpha  89.913031
_cell_angle_beta   89.85874
_cell_angle_gamma 89.656811
loop_
_atom_site_label
_atom_site_type_symbol
_atom_site_fract_x
_atom_site_fract_y
_atom_site_fract_z
_atom_type_partial_charge
H0 H 0.82539 0.46214 0.4317 0.0
H1 H 0.70659 0.46381 0.24445 0.0
H2 H 0.76144 0.57785 0.37505 0.0
C3 C 0.79754 0.47823 0.40054 0.0
C4 C 0.79543 0.52108 0.42344 0.0
C5 C 0.76724 0.45721 0.32881 0.0
C6 C 0.73173 0.47958 0.29165 0.0
C7 C 0.72961 0.52308 0.30173 0.0
C8 C 0.76211 0.54426 0.36752 0.0
H9 H 0.10459 0.83838 0.37147 0.0
H10 H 0.11221 0.71657 0.20589 0.0
H11 H 0.99942 0.75701 0.39373 0.0
C12 C 0.09125 0.80805 0.35371 0.0
C13 C 0.05099 0.80077 0.39914 0.0
C14 C 0.11336 0.7785 0.28098 0.0
C15 C 0.09487 0.73999 0.25756 0.0
C16 C 0.05354 0.73166 0.29345 0.0
C17 C 0.03128 0.76259 0.36511 0.0
H18 H 0.73904 0.09017 0.43586 0.0
H19 H 0.85588 0.08937 0.23668 0.0
H20 H 0.80302 0.97488 0.37624 0.0
C21 C 0.76716 0.07439 0.40555 0.0
C22 C 0.76897 1.03152 0.42601 0.0
C23 C 0.79769 0.09576 0.33579 0.0
C24 C 0.83229 0.07339 0.29166 0.0
C25 C 0.83471 1.02992 0.30266 0.0
C26 C 0.80245 1.0085 0.36988 0.0
H27 H 0.4638 0.74622 0.44106 0.0
H28 H 0.58055 0.80673 0.38136 0.0
H29 H 0.46679 0.86339 0.24557 0.0
C30 C 0.48043 0.77368 0.41052 0.0
C31 C 0.45963 0.80551 0.34372 0.0
C32 C 0.52342 0.7738 0.42893 0.0
C33 C 0.54695 0.80702 0.37461 0.0
C34 C 0.5261 0.84036 0.30965 0.0
C35 C 0.48261 0.83923 0.29917 0.0
H36 H 0.2353 0.60586 0.22462 0.0
H37 H 0.35343 0.60164 0.41493 0.0
H38 H 0.30557 0.49186 0.23259 0.0
C39 C 0.26375 0.58951 0.24939 0.0
C40 C 0.26856 0.54844 0.20705 0.0
C41 C 0.29289 0.60844 0.33013 0.0
C42 C 0.32935 0.5866 0.36015 0.0
C43 C 0.33379 0.54415 0.33219 0.0
C44 C 0.30309 0.52472 0.25406 0.0
H45 H 0.94355 0.24132 0.23203 0.0
H46 H 0.95348 0.35555 0.43709 0.0
H47 H 0.05672 0.3128 0.20598 0.0
C48 C 0.96124 0.26906 0.25401 0.0
C49 C 1.00167 0.27308 0.20512 0.0
C50 C 0.94419 0.29865 0.33729 0.0
C51 C 0.967 0.33366 0.36993 0.0
C52 C 1.00726 0.34024 0.32276 0.0
C53 C 1.0253 0.30903 0.24124 0.0
H54 H 0.32149 0.94894 0.2236 0.0
H55 H 0.2066 0.95994 0.42683 0.0
H56 H 0.25132 0.06373 0.20332 0.0
C57 C 0.29394 0.9671 0.24684 0.0
C58 C 0.29021 1.00767 0.19855 0.0
C59 C 0.26423 0.95032 0.33008 0.0
C60 C 0.22924 0.97356 0.36257 0.0
C61 C 0.22344 1.01432 0.31814 0.0
C62 C 0.2548 0.03208 0.23723 0.0
H63 H 0.61423 0.32576 0.20998 0.0
H64 H 0.5014 0.25366 0.20724 0.0
H65 H 0.60809 0.21328 0.42627 0.0
C66 C 0.59719 0.29802 0.23676 0.0
C67 C 0.61547 0.26967 0.32134 0.0
C68 C 0.55623 0.29346 0.19428 0.0
C69 C 0.53329 0.25781 0.23726 0.0
C70 C 0.55273 0.22727 0.31819 0.0
C71 C 0.59351 0.23461 0.35962 0.0
La72 La 0.05617 1.02778 0.85985 0.0
La73 La 0.99148 0.04884 0.71336 0.0
C74 C 0.11499 0.9961 0.98667 0.0
C75 C 0.14511 0.96237 0.9627 0.0
C76 C 0.18427 0.96265 1.02087 0.0
C77 C 0.20707 0.92556 1.03189 0.0
C78 C 0.18999 0.88792 0.98845 0.0
C79 C 0.15531 0.89024 0.90669 0.0
C80 C 0.13314 0.92725 0.89409 0.0
C81 C 0.08265 0.05963 0.63699 0.0
C82 C 1.02111 0.95796 0.67211 0.0
C83 C 0.93869 0.08277 0.5692 0.0
C84 C 0.90883 0.11715 0.56474 0.0
C85 C 0.89894 0.13324 0.4456 0.0
C86 C 0.87447 0.16875 0.43516 0.0
C87 C 0.8601 0.18992 0.54478 0.0
C88 C 0.86688 0.17115 0.66447 0.0
C89 C 0.89141 0.13505 0.67451 0.0
C90 C 0.96306 1.01151 0.92146 0.0
C91 C 1.02395 0.11631 0.91614 0.0
O92 O 0.11894 1.02919 0.91684 0.0
O93 O 0.07603 0.98511 0.9983 0.0
O94 O 0.09347 0.07206 0.74843 0.0
O95 O 0.05382 0.03364 0.65429 0.0
O96 O 0.03941 0.96507 0.7828 0.0
O97 O 1.00455 0.9902 0.6126 0.0
O98 O 0.93031 0.05201 0.64551 0.0
O99 O 0.97815 0.09237 0.56933 0.0
O100 O 0.95182 1.00392 0.80648 0.0
O101 O 0.99203 0.0385 0.91806 0.0
O102 O 1.00556 0.11021 0.80486 0.0
O103 O 0.04214 0.08404 0.97027 0.0
H104 H 0.19537 0.99044 0.0674 0.0
H105 H 0.23512 0.92536 0.08827 0.0
H106 H 0.14126 0.86278 0.86676 0.0
H107 H 0.10445 0.92709 0.84139 0.0
H108 H 0.9121 0.11957 0.36015 0.0
H109 H 0.87074 0.1815 0.34057 0.0
H110 H 0.85629 0.1863 0.75074 0.0
H111 H 0.89853 0.12248 0.76771 0.0
La112 La 0.53784 0.05976 0.86161 0.0
La113 La 0.51588 0.9945 0.71206 0.0
C114 C 0.56979 0.11635 0.99608 0.0
C115 C 0.61081 0.13588 1.00351 0.0
C116 C 0.61453 0.17815 0.03566 0.0
C117 C 0.65356 0.19449 0.06634 0.0
C118 C 0.68901 0.16877 0.06204 0.0
C119 C 0.68525 0.12779 1.01682 0.0
C120 C 0.64657 0.1115 0.98856 0.0
C121 C 0.50673 0.08632 0.63915 0.0
C122 C 0.60753 1.0196 0.67959 0.0
C123 C 0.48432 0.94408 0.55746 0.0
C124 C 0.44904 0.91596 0.54298 0.0
C125 C 0.42797 0.91689 0.42736 0.0
C126 C 0.39249 0.89335 0.41065 0.0
C127 C 0.37654 0.86869 0.51059 0.0
C128 C 0.39949 0.86546 0.62401 0.0
C129 C 0.43563 0.88906 0.64029 0.0
C130 C 0.55106 0.96635 0.9253 0.0
C131 C 0.44709 1.03006 0.90933 0.0
O132 O 0.5493 0.12338 0.89198 0.0
O133 O 0.56772 0.07726 1.0302 0.0
O134 O 0.49389 0.09771 0.75033 0.0
O135 O 0.53235 0.0568 0.6572 0.0
O136 O 0.60044 0.03857 0.78996 0.0
O137 O 0.57531 1.00524 0.61688 0.0
O138 O 0.51272 0.93385 0.64014 0.0
O139 O 0.47586 0.98395 0.55807 0.0
O140 O 0.55865 0.9534 0.81163 0.0
O141 O 0.52481 0.99612 0.9171 0.0
O142 O 0.45418 1.00807 0.80426 0.0
O143 O 0.47824 0.0509 0.95914 0.0
H144 H 0.58706 0.19756 0.04605 0.0
H145 H 0.65568 0.22612 0.1009 0.0
H146 H 0.71176 0.10684 1.01505 0.0
H147 H 0.64437 0.07896 0.96412 0.0
H148 H 0.43818 0.93705 0.35071 0.0
H149 H 0.37597 0.89727 0.32181 0.0
H150 H 0.38808 0.84685 0.70253 0.0
H151 H 0.45194 0.88762 0.73025 0.0
La152 La 0.5048 0.54628 0.89233 0.0
La153 La 0.56201 0.52048 0.71828 0.0
C154 C 0.45786 0.58434 0.04649 0.0
C155 C 0.43383 0.62333 0.05083 0.0
C156 C 0.39167 0.62296 0.08698 0.0
C157 C 0.37023 0.66042 0.10854 0.0
C158 C 0.39084 0.69855 0.09393 0.0
C159 C 0.43214 0.6984 0.04816 0.0
C160 C 0.45334 0.66129 1.02766 0.0
C161 C 0.46723 0.51336 0.69047 0.0
C162 C 0.53752 0.61254 0.68772 0.0
C163 C 0.60512 0.48751 0.54437 0.0
C164 C 0.63714 0.45569 0.52377 0.0
C165 C 0.66702 0.44554 0.61628 0.0
C166 C 0.6943 0.412 0.59623 0.0
C167 C 0.69149 0.38809 0.48477 0.0
C168 C 0.66414 0.40147 0.3879 0.0
C169 C 0.63711 0.43465 0.40785 0.0
C170 C 0.59994 0.55131 0.92547 0.0
C171 C 0.53127 0.4532 0.92499 0.0
O172 O 0.44487 0.55618 0.96765 0.0
O173 O 0.49849 0.58674 0.04786 0.0
O174 O 0.45901 0.50508 0.80769 0.0
O175 O 0.49792 0.53812 0.68841 0.0
O176 O 0.52394 0.60709 0.80569 0.0
O177 O 0.54746 0.57915 0.62219 0.0
O178 O 0.61621 0.52041 0.60768 0.0
O179 O 0.56809 0.47455 0.57683 0.0
O180 O 0.60977 0.55849 0.80869 0.0
O181 O 0.56849 0.52768 0.92409 0.0
O182 O 0.54833 0.45929 0.81113 0.0
O183 O 0.5161 0.4859 0.98645 0.0
H184 H 0.37594 0.59376 0.1042 0.0
H185 H 0.33851 0.65957 0.14321 0.0
H186 H 0.44958 0.72697 0.03841 0.0
H187 H 0.48579 0.6624 1.00104 0.0
H188 H 0.66792 0.46212 0.70589 0.0
H189 H 0.71516 0.40259 0.67153 0.0
H190 H 0.66072 0.38415 0.30034 0.0
H191 H 0.61482 0.44272 0.33441 0.0
La192 La 1.02314 0.5027 0.86971 0.0
La193 La 0.04423 0.57046 0.73789 0.0
C194 C 0.99026 0.44501 0.99747 0.0
C195 C 0.95167 0.42111 0.99005 0.0
C196 C 0.95051 0.38022 0.03634 0.0
C197 C 0.91224 0.3614 0.06125 0.0
C198 C 0.87497 0.38329 0.03896 0.0
C199 C 0.87677 0.42172 0.97463 0.0
C200 C 0.91479 0.44051 0.95125 0.0
C201 C 0.05424 0.47949 0.64373 0.0
C202 C 0.95433 0.54391 0.68717 0.0
C203 C 0.07527 0.631 0.61763 0.0
C204 C 0.11046 0.65888 0.63992 0.0
C205 C 0.11354 0.69665 0.57418 0.0
C206 C 0.15221 0.7161 0.56207 0.0
C207 C 0.18809 0.69708 0.61344 0.0
C208 C 0.18229 0.66432 0.70165 0.0
C209 C 0.14377 0.6455 0.71452 0.0
C210 C 1.01277 0.59243 0.96472 0.0
C211 C 0.11367 0.52857 0.91773 0.0
O212 O 1.01718 0.4386 0.90712 0.0
O213 O 0.98614 0.48457 1.02386 0.0
O214 O 0.06638 0.4661 0.75336 0.0
O215 O 1.02898 0.5093 0.66468 0.0
O216 O 0.96092 0.52321 0.79476 0.0
O217 O 0.98673 0.56097 0.63168 0.0
O218 O 0.04428 0.63457 0.69638 0.0
O219 O 0.08479 0.59197 0.59624 0.0
O220 O 1.00026 0.60578 0.85574 0.0
O221 O 0.0388 0.56355 0.94232 0.0
O222 O 0.10678 0.55017 0.81189 0.0
O223 O 0.08162 0.51049 0.97197 0.0
H224 H 0.97895 0.36432 0.06325 0.0
H225 H 0.91195 0.33154 0.10801 0.0
H226 H 0.84894 0.43991 0.95628 0.0
H227 H 0.91501 0.47178 0.91381 0.0
H228 H 0.08699 0.70908 0.5238 0.0
H229 H 0.1547 0.74308 0.50094 0.0
H230 H 0.20789 0.64898 0.74878 0.0
H231 H 0.1413 0.61799 0.77295 0.0
C232 C 0.1867 0.06806 0.45623 0.0
C233 C 0.18439 0.03574 0.36597 0.0
C234 C 0.15261 0.07784 0.53726 0.0
C235 C 0.11464 0.05573 0.53194 0.0
H236 H 0.21609 0.08353 0.47187 0.0
H237 H 0.15701 0.10118 0.61012 0.0
S238 S 0.09149 0.97006 0.30731 0.0
N239 N 0.13974 0.98329 0.27304 0.0
N240 N 0.07639 1.00208 0.42106 0.0
C241 C 0.11104 1.02557 0.4358 0.0
C242 C 0.14558 1.01556 0.35421 0.0
C243 C 0.49847 0.18974 0.45341 0.0
C244 C 0.53281 0.18797 0.3697 0.0
C245 C 0.48826 0.15571 0.53405 0.0
C246 C 0.51172 0.11821 0.53422 0.0
H247 H 0.48137 0.21868 0.46406 0.0
H248 H 0.46318 0.15973 0.60199 0.0
S249 S 0.60307 0.09641 0.3278 0.0
N250 N 0.58895 0.14426 0.28977 0.0
N251 N 0.56903 0.08089 0.43515 0.0
C252 C 0.5441 0.11508 0.44439 0.0
C253 C 0.55476 0.14965 0.36411 0.0
C254 C 0.35871 0.51532 0.5395 0.0
C255 C 0.36669 0.52185 0.40887 0.0
C256 C 0.39119 0.51043 0.62864 0.0
C257 C 0.43343 0.51246 0.59195 0.0
H258 H 0.32704 0.5173 0.57476 0.0
H259 H 0.38297 0.50759 0.72825 0.0
S260 S 0.47181 0.52086 0.26267 0.0
N261 N 0.42067 0.52438 0.24716 0.0
N262 N 0.48129 0.51545 0.41555 0.0
C263 C 0.44188 0.51584 0.46169 0.0
C264 C 0.40878 0.52049 0.37027 0.0
C265 C 0.06223 0.37717 0.45428 0.0
C266 C 1.02817 0.37944 0.37027 0.0
C267 C 0.07257 0.41094 0.53513 0.0
C268 C 0.04943 0.44865 0.53596 0.0
H269 H 0.07883 0.34797 0.46554 0.0
H270 H 0.09735 0.40639 0.60349 0.0
S271 S 0.95936 0.47195 0.3271 0.0
N272 N 0.97307 0.42403 0.28856 0.0
N273 N 0.99297 0.48686 0.43603 0.0
C274 C 1.01749 0.4524 0.44531 0.0
C275 C 1.00682 0.41811 0.364 0.0
C276 C 0.85812 1.00155 0.093 0.0
C277 C 0.86768 1.00976 0.22117 0.0
C278 C 0.88936 0.99989 0.9984 0.0
C279 C 0.93171 1.00719 1.02688 0.0
H280 H 0.82587 0.99986 0.06368 0.0
H281 H 0.87969 0.99545 0.90076 0.0
S282 S 0.97441 1.02276 0.34811 0.0
N283 N 0.92367 1.01943 0.3723 0.0
N284 N 0.98187 1.01748 0.19392 0.0
C285 C 0.94203 1.01236 0.15499 0.0
C286 C 0.91028 1.01335 0.25183 0.0
C287 C 0.53335 0.91609 0.25154 0.0
C288 C 0.5468 0.87446 0.23433 0.0
C289 C 0.53699 0.94649 0.15506 0.0
C290 C 0.55487 0.93685 0.03647 0.0
H291 H 0.51648 0.9243 0.33644 0.0
H292 H 0.52347 0.97701 0.17104 0.0
S293 S 0.60111 0.83425 0.9482 0.0
N294 N 0.58257 0.82671 0.09302 0.0
N295 N 0.59139 0.88353 0.91385 0.0
C296 C 0.57225 0.89642 1.0224 0.0
C297 C 0.5679 0.86541 0.12051 0.0
C298 C 0.65376 0.53427 0.24827 0.0
C299 C 0.69592 0.54368 0.22374 0.0
C300 C 0.62253 0.53855 0.15433 0.0
C301 C 0.6319 0.55283 1.03075 0.0
H302 H 0.6454 0.52085 0.33869 0.0
H303 H 0.59117 0.5288 0.17716 0.0
S304 S 0.73696 0.58508 0.9193 0.0
N305 N 0.74464 0.57013 0.06781 0.0
N306 N 0.68664 0.57969 0.89303 0.0
C307 C 0.6735 0.56518 1.0077 0.0
C308 C 0.70521 0.56035 0.10334 0.0
C309 C 1.00115 0.69334 0.15732 0.0
C310 C 0.03507 0.6918 0.2419 0.0
C311 C 0.99209 0.65968 0.07509 0.0
C312 C 1.0164 0.62278 0.07363 0.0
H313 H 0.98357 0.72201 0.14688 0.0
H314 H 0.96735 0.66373 1.00632 0.0
S315 S 0.10548 0.60055 0.28734 0.0
N316 N 0.09054 0.64807 0.32654 0.0
N317 N 0.07312 0.58543 0.17515 0.0
C318 C 0.04803 0.61946 0.16536 0.0
C319 C 0.05741 0.65369 0.24833 0.0
C320 C 0.90709 0.28587 0.54078 0.0
C321 C 0.90561 0.28905 0.40735 0.0
C322 C 0.87876 0.2604 0.60523 0.0
C323 C 0.85126 0.23553 0.53466 0.0
H324 H 0.93307 0.2985 0.59317 0.0
H325 H 0.885 0.25344 0.70415 0.0
S326 S 0.81754 0.25635 0.20533 0.0
N327 N 0.8623 0.28081 0.21971 0.0
N328 N 0.80724 0.23693 0.34747 0.0
C329 C 0.84025 0.25107 0.41424 0.0
C330 C 0.8698 0.27496 0.34551 0.0
C331 C 0.28918 0.87679 0.3258 0.0
C332 C 0.27326 0.91059 0.3957 0.0
C333 C 0.31605 0.84814 0.38375 0.0
C334 C 0.33186 0.85716 0.50556 0.0
H335 H 0.2854 0.87561 0.22346 0.0
H336 H 0.33257 0.82707 0.32156 0.0
S337 S 0.27994 0.92361 0.74536 0.0
N338 N 0.25897 0.93748 0.60831 0.0
N339 N 0.3124 0.88508 0.71217 0.0
C340 C 0.3061 0.8812 0.58498 0.0
C341 C 0.27736 0.90954 0.52882 0.0
C342 C 0.68775 0.29717 0.31102 0.0
C343 C 0.65478 0.28124 0.38429 0.0
C344 C 0.71449 0.32682 0.36318 0.0
C345 C 0.70513 0.34383 0.48346 0.0
H346 H 0.68934 0.29108 0.20975 0.0
H347 H 0.73449 0.3434 0.29827 0.0
S348 S 0.64167 0.29334 0.73267 0.0
N349 N 0.62867 0.26972 0.59926 0.0
N350 N 0.67867 0.32647 0.69361 0.0
C351 C 0.68271 0.31829 0.56735 0.0
C352 C 0.65566 0.28774 0.5164 0.0
C353 C 0.25418 0.67644 0.33933 0.0
C354 C 0.281 0.64753 0.39868 0.0
C355 C 0.22831 0.70238 0.41187 0.0
C356 C 0.22904 0.70038 0.54601 0.0
H357 H 0.24958 0.6757 0.2373 0.0
H358 H 0.20368 0.71863 0.36199 0.0
S359 S 0.31219 0.6521 0.73997 0.0
N360 N 0.31798 0.63169 0.5969 0.0
N361 N 0.27386 0.68623 0.72684 0.0
C362 C 0.26454 0.68228 0.60129 0.0
C363 C 0.28887 0.6533 0.52994 0.0
C364 C 0.17713 0.82253 0.27191 0.0
C365 C 0.15282 0.79126 0.21591 0.0
C366 C 0.19735 0.85182 0.19587 0.0
C367 C 0.19672 0.84868 0.06213 0.0
H368 H 0.17498 0.8286 0.3731 0.0
H369 H 0.20696 0.88016 0.24206 0.0
S370 S 0.16164 0.75758 0.87813 0.0
N371 N 0.1439 0.7495 1.02342 0.0
N372 N 0.18873 0.80095 0.88533 0.0
C373 C 0.18447 0.81035 1.01075 0.0
C374 C 0.1606 0.78225 0.08632 0.0
C375 C 0.79476 0.14467 0.15091 0.0
C376 C 0.78727 0.13758 0.28164 0.0
C377 C 0.76549 0.16611 0.07696 0.0
C378 C 0.72754 0.17895 0.13137 0.0
H379 H 0.81916 0.12824 0.10043 0.0
H380 H 0.76877 0.16493 0.97436 0.0
S381 S 0.70628 0.18907 0.47668 0.0
N382 N 0.75126 0.16419 0.46861 0.0
N383 N 0.69232 0.19788 0.32789 0.0
C384 C 0.72543 0.18169 0.26451 0.0
C385 C 0.7566 0.16235 0.34034 0.0
C386 C 0.40899 0.80446 0.16393 0.0
C387 C 0.4169 0.79774 0.29449 0.0
C388 C 0.38642 0.7751 0.09444 0.0
C389 C 0.37496 0.73744 0.15313 0.0
H390 H 0.42576 0.82776 0.11037 0.0
H391 H 0.38734 0.77715 0.99152 0.0
S392 S 0.36375 0.72205 0.50069 0.0
N393 N 0.39011 0.76561 0.48649 0.0
N394 N 0.35383 0.70639 0.35423 0.0
C395 C 0.37107 0.7378 0.28633 0.0
C396 C 0.39135 0.7692 0.35775 0.0
C397 C 0.81062 0.39211 0.32479 0.0
C398 C 0.77828 0.41593 0.26989 0.0
C399 C 0.84089 0.37357 0.24731 0.0
C400 C 0.83695 0.3744 0.11411 0.0
H401 H 0.81679 0.39388 0.42586 0.0
H402 H 0.87005 0.36463 0.29117 0.0
S403 S 0.7431 0.40478 0.93419 0.0
N404 N 0.73428 0.42136 0.08022 0.0
N405 N 0.7887 0.38099 0.93875 0.0
C406 C 0.798 0.38511 0.06414 0.0
C407 C 0.76873 0.40713 0.14119 0.0
C408 C 0.03452 0.20141 0.17629 0.0
C409 C 1.01678 0.23752 0.12133 0.0
C410 C 0.0378 0.16319 0.10872 0.0
C411 C 1.02281 0.15858 0.98282 0.0
H412 H 0.04411 0.20209 0.27498 0.0
H413 H 0.05091 0.13656 0.15789 0.0
S414 S 0.97449 0.24388 0.7937 0.0
N415 N 0.98476 0.26601 0.93171 0.0
N416 N 0.99082 0.19521 0.8054 0.0
C417 C 1.00599 0.19486 0.92585 0.0
C418 C 1.00291 0.23377 0.99462 0.0
C419 C 0.33342 1.00121 0.99675 0.0
C420 C 0.32555 1.02207 0.11296 0.0
C421 C 0.37169 1.00499 0.92991 0.0
C422 C 0.4048 1.02941 0.97641 0.0
H423 H 0.31027 0.98008 0.96001 0.0
H424 H 0.37578 0.9873 0.8431 0.0
S425 S 0.40077 0.09043 0.27768 0.0
N426 N 0.35461 0.06822 0.27093 0.0
N427 N 0.42585 0.07565 0.14787 0.0
C428 C 0.39688 0.05129 0.09134 0.0
C429 C 0.35772 0.04753 0.15868 0.0
C430 C 0.55929 0.33781 0.99462 0.0
C431 C 0.53984 0.32895 0.11249 0.0
C432 C 0.55513 0.37699 0.93308 0.0
C433 C 0.53178 0.41006 0.98679 0.0
H434 H 0.57991 0.31481 0.9528 0.0
H435 H 0.57196 0.38184 0.84496 0.0
S436 S 0.47296 0.40288 0.29178 0.0
N437 N 0.49523 0.35665 0.27811 0.0
N438 N 0.48671 0.42934 0.16366 0.0
C439 C 0.51079 0.40094 0.10228 0.0
C440 C 0.51499 0.36091 0.1645 0.0
C441 C 0.19651 0.51841 0.18191 0.0
C442 C 0.23372 0.53213 0.12465 0.0
C443 C 0.15877 0.51572 0.11299 0.0
C444 C 0.1558 0.52755 0.98344 0.0
H445 H 0.19596 0.512 0.28311 0.0
H446 H 0.13114 0.50615 0.16415 0.0
S447 S 0.24504 0.562 0.78494 0.0
N448 N 0.26554 0.55523 0.92758 0.0
N449 N 0.1953 0.55005 0.79858 0.0
C450 C 0.19325 0.53954 0.92358 0.0
C451 C 0.23179 0.54196 0.9938 0.0
C452 C 1.01852 0.87257 0.41301 0.0
C453 C 0.03171 0.83591 0.47569 0.0
C454 C 1.01337 0.91088 0.47815 0.0
C455 C 1.02209 0.91516 0.60937 0.0
H456 H 1.0145 0.87223 0.31072 0.0
H457 H 1.0044 0.9379 0.42301 0.0
S458 S 0.05406 0.82776 0.82116 0.0
N459 N 0.05109 0.80606 0.67908 0.0
N460 N 0.04087 0.87715 0.80147 0.0
C461 C 0.03329 0.87816 0.6745 0.0
C462 C 0.03833 0.83905 0.60793 0.0
C463 C 0.69496 1.00595 0.42969 0.0
C464 C 0.73199 1.01407 0.49678 0.0
C465 C 0.65553 1.00625 0.49049 0.0
C466 C 0.65076 1.01564 0.62139 0.0
H467 H 0.69611 1.00232 0.32728 0.0
H468 H 0.62829 1.00113 0.43226 0.0
S469 S 0.73834 0.0353 0.84316 0.0
N470 N 0.76131 1.02909 0.70369 0.0
N471 N 0.68804 1.02916 0.8177 0.0
C472 C 0.68781 1.02157 0.69077 0.0
C473 C 0.72796 1.02094 0.62881 0.0
C474 C 0.54624 0.69846 0.43074 0.0
C475 C 0.54046 0.73609 0.49789 0.0
C476 C 0.54662 0.65927 0.4931 0.0
C477 C 0.54047 0.65537 0.62607 0.0
H478 H 0.54769 0.69909 0.32777 0.0
H479 H 0.54989 0.63161 0.43509 0.0
S480 S 0.52645 0.74455 0.84748 0.0
N481 N 0.53006 0.76674 0.70605 0.0
N482 N 0.53164 0.69401 0.82297 0.0
C483 C 0.53658 0.69297 0.69481 0.0
C484 C 0.5363 0.73284 0.63112 0.0
C485 C 0.83734 0.52628 0.62515 0.0
C486 C 0.83147 0.53884 0.49745 0.0
C487 C 0.87628 0.52958 0.6869 0.0
C488 C 0.9118 0.54517 0.62404 0.0
H489 H 0.81205 0.51138 0.67572 0.0
H490 H 0.87871 0.51849 0.78374 0.0
S491 S 0.91303 0.58429 0.29015 0.0
N492 N 0.86458 0.56887 0.31183 0.0
N493 N 0.93712 0.57591 0.42655 0.0
C494 C 0.9058 0.55983 0.49801 0.0
C495 C 0.86603 0.55637 0.43526 0.0
loop_
_geom_bond_atom_site_label_1
_geom_bond_atom_site_label_2
_geom_bond_distance
_geom_bond_site_symmetry_2
_ccdc_geom_bond_type
H0 C3 0.931 . S
H1 C6 0.928 . S
H2 C8 0.930 . S
C3 H0 0.931 . S
C3 C4 1.413 . S
C3 C5 1.360 . S
C4 C3 1.413 . S
C4 C8 1.429 . S
C5 C3 1.360 . S
C5 C6 1.372 . S
C6 H1 0.928 . S
C6 C5 1.372 . S
C6 C7 1.404 . S
C7 C6 1.404 . S
C7 C8 1.391 . S
C8 H2 0.930 . S
C8 C4 1.429 . S
C8 C7 1.391 . S
H9 C12 0.931 . S
H10 C15 0.928 . S
H11 C17 0.930 . S
C12 H9 0.931 . S
C12 C13 1.413 . S
C12 C14 1.360 . S
C13 C12 1.413 . S
C13 C17 1.429 1_655 S
C14 C12 1.360 . S
C14 C15 1.372 . S
C15 H10 0.928 . S
C15 C14 1.372 . S
C15 C16 1.404 . S
C16 C15 1.404 . S
C16 C17 1.390 1_655 S
C17 H11 0.930 . S
C17 C13 1.429 1_455 S
C17 C16 1.390 1_455 S
H18 C21 0.931 . S
H19 C24 0.928 . S
H20 C26 0.930 . S
C21 H18 0.931 . S
C21 C22 1.413 . S
C21 C23 1.360 . S
C22 C21 1.413 . S
C22 C26 1.429 1_565 S
C23 C21 1.360 . S
C23 C24 1.372 . S
C24 H19 0.928 . S
C24 C23 1.372 . S
C24 C25 1.404 . S
C25 C24 1.404 . S
C25 C26 1.390 1_565 S
C26 H20 0.930 . S
C26 C22 1.429 1_545 S
C26 C25 1.390 1_545 S
H27 C30 0.931 . S
H28 C33 0.928 . S
H29 C35 0.930 . S
C30 H27 0.931 . S
C30 C31 1.413 . S
C30 C32 1.360 . S
C31 C30 1.413 . S
C31 C35 1.429 . S
C32 C30 1.360 . S
C32 C33 1.372 . S
C33 H28 0.928 . S
C33 C32 1.372 . S
C33 C34 1.404 . S
C34 C33 1.404 . S
C34 C35 1.391 . S
C35 H29 0.930 . S
C35 C31 1.429 . S
C35 C34 1.391 . S
H36 C39 0.931 1_556 S
H37 C42 0.928 . S
H38 C44 0.930 . S
C39 H36 0.931 1_554 S
C39 C40 1.413 1_554 S
C39 C41 1.360 . S
C40 C39 1.413 1_556 S
C40 C44 1.429 . S
C41 C39 1.360 . S
C41 C42 1.372 . S
C42 H37 0.928 . S
C42 C41 1.372 . S
C42 C43 1.404 . S
C43 C42 1.404 . S
C43 C44 1.391 1_554 S
C44 H38 0.930 . S
C44 C40 1.429 . S
C44 C43 1.391 1_556 S
H45 C48 0.932 . S
H46 C51 0.928 . S
H47 C53 0.930 . S
C48 H45 0.932 . S
C48 C49 1.413 1_554 S
C48 C50 1.360 . S
C49 C48 1.413 1_556 S
C49 C53 1.429 1_655 S
C50 C48 1.360 . S
C50 C51 1.372 . S
C51 H46 0.928 . S
C51 C50 1.372 . S
C51 C52 1.404 . S
C52 C51 1.404 . S
C52 C53 1.391 1_654 S
C53 H47 0.930 . S
C53 C49 1.429 1_455 S
C53 C52 1.391 1_456 S
H54 C57 0.931 1_556 S
H55 C60 0.928 . S
H56 C62 0.930 . S
C57 H54 0.931 1_554 S
C57 C58 1.413 1_554 S
C57 C59 1.360 . S
C58 C57 1.413 1_556 S
C58 C62 1.429 1_565 S
C59 C57 1.360 . S
C59 C60 1.372 . S
C60 H55 0.928 . S
C60 C59 1.372 . S
C60 C61 1.404 . S
C61 C60 1.404 . S
C61 C62 1.391 1_564 S
C62 H56 0.930 . S
C62 C58 1.429 1_545 S
C62 C61 1.391 1_546 S
H63 C66 0.931 1_556 S
H64 C69 0.928 . S
H65 C71 0.930 . S
C66 H63 0.931 1_554 S
C66 C67 1.413 . S
C66 C68 1.360 1_554 S
C67 C66 1.413 . S
C67 C71 1.429 . S
C68 C66 1.360 1_556 S
C68 C69 1.372 . S
C69 H64 0.928 . S
C69 C68 1.372 . S
C69 C70 1.404 1_556 S
C70 C69 1.404 1_554 S
C70 C71 1.391 . S
C71 H65 0.930 . S
C71 C67 1.429 . S
C71 C70 1.391 . S
La72 C74 2.928 1_556 S
La72 O92 2.521 . S
La72 O93 2.628 1_556 S
La72 O94 2.554 . S
La72 O95 2.757 1_565 S
La72 O96 2.470 . S
La72 O101 2.482 1_455 S
La72 O103 2.503 1_565 S
La73 C83 2.928 . S
La73 O95 2.482 1_655 S
La73 O97 2.503 1_545 S
La73 O98 2.521 . S
La73 O99 2.628 . S
La73 O100 2.554 . S
La73 O101 2.757 1_545 S
La73 O102 2.470 . S
C74 La72 2.928 1_554 S
C74 C75 1.503 . S
C74 O92 1.261 1_554 S
C74 O93 1.243 . S
C75 C74 1.503 . S
C75 C76 1.394 . S
C75 C80 1.373 . S
C76 C75 1.394 . S
C76 C77 1.380 . S
C76 H104 0.930 . S
C77 C76 1.380 . S
C77 C78 1.376 . S
C77 H105 0.930 . S
C78 C77 1.376 . S
C78 C79 1.370 . S
C79 C78 1.370 . S
C79 C80 1.396 . S
C79 H106 0.929 . S
C80 C75 1.373 . S
C80 C79 1.396 . S
C80 H107 0.929 . S
C81 O94 1.240 . S
C81 O95 1.289 1_565 S
C82 O96 1.258 1_655 S
C82 O97 1.256 . S
C83 La73 2.928 . S
C83 C84 1.503 . S
C83 O98 1.261 . S
C83 O99 1.243 . S
C84 C83 1.503 . S
C84 C85 1.394 . S
C84 C89 1.373 . S
C85 C84 1.394 . S
C85 C86 1.380 . S
C85 H108 0.930 . S
C86 C85 1.380 . S
C86 C87 1.376 . S
C86 H109 0.930 . S
C87 C86 1.376 . S
C87 C88 1.370 . S
C88 C87 1.370 . S
C88 C89 1.396 . S
C88 H110 0.929 . S
C89 C84 1.373 . S
C89 C88 1.396 . S
C89 H111 0.929 . S
C90 O100 1.240 . S
C90 O101 1.289 1_545 S
C91 O102 1.258 1_455 S
C91 O103 1.256 . S
O92 La72 2.521 . S
O92 C74 1.261 1_556 S
O93 La72 2.628 1_554 S
O93 C74 1.243 . S
O94 La72 2.554 . S
O94 C81 1.240 . S
O95 La72 2.757 1_545 S
O95 La73 2.482 1_455 S
O95 C81 1.289 1_545 S
O96 La72 2.470 . S
O96 C82 1.258 1_455 S
O97 La73 2.503 1_565 S
O97 C82 1.256 . S
O98 La73 2.521 . S
O98 C83 1.261 . S
O99 La73 2.628 . S
O99 C83 1.243 . S
O100 La73 2.554 . S
O100 C90 1.240 . S
O101 La72 2.482 1_655 S
O101 La73 2.757 1_565 S
O101 C90 1.289 1_565 S
O102 La73 2.470 . S
O102 C91 1.258 1_655 S
O103 La72 2.503 1_545 S
O103 C91 1.256 . S
H104 C76 0.930 . S
H105 C77 0.930 . S
H106 C79 0.929 . S
H107 C80 0.929 . S
H108 C85 0.930 . S
H109 C86 0.930 . S
H110 C88 0.929 . S
H111 C89 0.929 . S
La112 C114 2.928 1_556 S
La112 O132 2.521 . S
La112 O133 2.628 1_556 S
La112 O134 2.554 . S
La112 O135 2.757 . S
La112 O136 2.470 . S
La112 O141 2.482 1_545 S
La112 O143 2.503 . S
La113 C123 2.928 . S
La113 O135 2.482 1_565 S
La113 O137 2.503 . S
La113 O138 2.521 . S
La113 O139 2.628 . S
La113 O140 2.554 . S
La113 O141 2.757 . S
La113 O142 2.470 . S
C114 La112 2.928 1_554 S
C114 C115 1.503 . S
C114 O132 1.261 1_554 S
C114 O133 1.243 . S
C115 C114 1.503 . S
C115 C116 1.394 . S
C115 C120 1.373 . S
C116 C115 1.394 . S
C116 C117 1.380 . S
C116 H144 0.930 . S
C117 C116 1.380 . S
C117 C118 1.376 . S
C117 H145 0.930 . S
C118 C117 1.376 . S
C118 C119 1.370 . S
C119 C118 1.370 . S
C119 C120 1.396 . S
C119 H146 0.929 . S
C120 C115 1.373 . S
C120 C119 1.396 . S
C120 H147 0.952 . S
C121 O134 1.240 . S
C121 O135 1.289 . S
C122 O136 1.258 1_565 S
C122 O137 1.256 . S
C123 La113 2.928 . S
C123 C124 1.503 . S
C123 O138 1.261 . S
C123 O139 1.243 . S
C124 C123 1.503 . S
C124 C125 1.394 . S
C124 C129 1.373 . S
C125 C124 1.394 . S
C125 C126 1.380 . S
C125 H148 0.930 . S
C126 C125 1.380 . S
C126 C127 1.376 . S
C126 H149 0.930 . S
C127 C126 1.376 . S
C127 C128 1.370 . S
C128 C127 1.370 . S
C128 C129 1.396 . S
C128 H150 0.929 . S
C129 C124 1.373 . S
C129 C128 1.396 . S
C129 H151 0.946 . S
C130 O140 1.240 . S
C130 O141 1.289 . S
C131 O142 1.258 1_545 S
C131 O143 1.256 . S
O132 La112 2.521 . S
O132 C114 1.261 1_556 S
O133 La112 2.628 1_554 S
O133 C114 1.243 . S
O134 La112 2.554 . S
O134 C121 1.240 . S
O135 La112 2.757 . S
O135 La113 2.482 1_545 S
O135 C121 1.289 . S
O136 La112 2.470 . S
O136 C122 1.258 1_545 S
O137 La113 2.503 . S
O137 C122 1.256 . S
O138 La113 2.521 . S
O138 C123 1.261 . S
O139 La113 2.628 . S
O139 C123 1.243 . S
O140 La113 2.554 . S
O140 C130 1.240 . S
O141 La112 2.482 1_565 S
O141 La113 2.757 . S
O141 C130 1.289 . S
O142 La113 2.470 . S
O142 C131 1.258 1_565 S
O143 La112 2.503 . S
O143 C131 1.256 . S
H144 C116 0.930 . S
H145 C117 0.930 . S
H146 C119 0.929 . S
H147 C120 0.952 . S
H148 C125 0.930 . S
H149 C126 0.930 . S
H150 C128 0.929 . S
H151 C129 0.946 . S
La152 C154 2.928 1_556 S
La152 O172 2.521 . S
La152 O173 2.628 1_556 S
La152 O174 2.554 . S
La152 O175 2.757 . S
La152 O176 2.470 . S
La152 O181 2.482 . S
La152 O183 2.503 . S
La153 C163 2.928 . S
La153 O175 2.482 . S
La153 O177 2.503 . S
La153 O178 2.521 . S
La153 O179 2.628 . S
La153 O180 2.554 . S
La153 O181 2.757 . S
La153 O182 2.470 . S
C154 La152 2.928 1_554 S
C154 C155 1.503 . S
C154 O172 1.261 1_554 S
C154 O173 1.243 . S
C155 C154 1.503 . S
C155 C156 1.394 . S
C155 C160 1.373 . S
C156 C155 1.394 . S
C156 C157 1.380 . S
C156 H184 0.930 . S
C157 C156 1.380 . S
C157 C158 1.376 . S
C157 H185 0.930 . S
C158 C157 1.376 . S
C158 C159 1.370 . S
C159 C158 1.370 . S
C159 C160 1.396 . S
C159 H186 0.929 . S
C160 C155 1.373 . S
C160 C159 1.396 . S
C160 H187 0.929 . S
C161 O174 1.240 . S
C161 O175 1.289 . S
C162 O176 1.258 . S
C162 O177 1.256 . S
C163 La153 2.928 . S
C163 C164 1.503 . S
C163 O178 1.261 . S
C163 O179 1.243 . S
C164 C163 1.503 . S
C164 C165 1.394 . S
C164 C169 1.373 . S
C165 C164 1.394 . S
C165 C166 1.380 . S
C165 H188 0.930 . S
C166 C165 1.380 . S
C166 C167 1.376 . S
C166 H189 0.930 . S
C167 C166 1.376 . S
C167 C168 1.370 . S
C168 C167 1.370 . S
C168 C169 1.396 . S
C168 H190 0.929 . S
C169 C164 1.373 . S
C169 C168 1.396 . S
C169 H191 0.929 . S
C170 O180 1.240 . S
C170 O181 1.289 . S
C171 O182 1.258 . S
C171 O183 1.256 . S
O172 La152 2.521 . S
O172 C154 1.261 1_556 S
O173 La152 2.628 1_554 S
O173 C154 1.243 . S
O174 La152 2.554 . S
O174 C161 1.240 . S
O175 La152 2.757 . S
O175 La153 2.482 . S
O175 C161 1.289 . S
O176 La152 2.470 . S
O176 C162 1.258 . S
O177 La153 2.503 . S
O177 C162 1.256 . S
O178 La153 2.521 . S
O178 C163 1.261 . S
O179 La153 2.628 . S
O179 C163 1.243 . S
O180 La153 2.554 . S
O180 C170 1.240 . S
O181 La152 2.482 . S
O181 La153 2.757 . S
O181 C170 1.289 . S
O182 La153 2.470 . S
O182 C171 1.258 . S
O183 La152 2.503 . S
O183 C171 1.256 . S
H184 C156 0.930 . S
H185 C157 0.930 . S
H186 C159 0.929 . S
H187 C160 0.929 . S
H188 C165 0.930 . S
H189 C166 0.930 . S
H190 C168 0.929 . S
H191 C169 0.929 . S
La192 C194 2.928 1_556 S
La192 O212 2.521 . S
La192 O213 2.628 1_556 S
La192 O214 2.554 . S
La192 O215 2.757 1_655 S
La192 O216 2.470 . S
La192 O221 2.482 . S
La192 O223 2.503 1_655 S
La193 C203 2.928 . S
La193 O215 2.482 . S
La193 O217 2.503 1_455 S
La193 O218 2.521 . S
La193 O219 2.628 . S
La193 O220 2.554 . S
La193 O221 2.757 1_455 S
La193 O222 2.470 . S
C194 La192 2.928 1_554 S
C194 C195 1.503 . S
C194 O212 1.261 1_554 S
C194 O213 1.243 . S
C195 C194 1.503 . S
C195 C196 1.394 . S
C195 C200 1.373 . S
C196 C195 1.394 . S
C196 C197 1.380 . S
C196 H224 0.930 . S
C197 C196 1.380 . S
C197 C198 1.376 . S
C197 H225 0.930 . S
C198 C197 1.376 . S
C198 C199 1.370 . S
C199 C198 1.370 . S
C199 C200 1.396 . S
C199 H226 0.929 . S
C200 C195 1.373 . S
C200 C199 1.396 . S
C200 H227 0.929 . S
C201 O214 1.240 1_455 S
C201 O215 1.289 . S
C202 O216 1.258 . S
C202 O217 1.256 . S
C203 La193 2.928 . S
C203 C204 1.503 . S
C203 O218 1.261 . S
C203 O219 1.243 . S
C204 C203 1.503 . S
C204 C205 1.394 . S
C204 C209 1.373 . S
C205 C204 1.394 . S
C205 C206 1.380 . S
C205 H228 0.930 . S
C206 C205 1.380 . S
C206 C207 1.376 . S
C206 H229 0.930 . S
C207 C206 1.376 . S
C207 C208 1.370 . S
C208 C207 1.370 . S
C208 C209 1.396 . S
C208 H230 0.929 . S
C209 C204 1.373 . S
C209 C208 1.396 . S
C209 H231 0.929 . S
C210 O220 1.240 . S
C210 O221 1.289 1_455 S
C211 O222 1.258 . S
C211 O223 1.256 . S
O212 La192 2.521 . S
O212 C194 1.261 1_556 S
O213 La192 2.628 1_554 S
O213 C194 1.243 . S
O214 La192 2.554 . S
O214 C201 1.240 1_655 S
O215 La192 2.757 1_455 S
O215 La193 2.482 . S
O215 C201 1.289 . S
O216 La192 2.470 . S
O216 C202 1.258 . S
O217 La193 2.503 1_655 S
O217 C202 1.256 . S
O218 La193 2.521 . S
O218 C203 1.261 . S
O219 La193 2.628 . S
O219 C203 1.243 . S
O220 La193 2.554 . S
O220 C210 1.240 . S
O221 La192 2.482 . S
O221 La193 2.757 1_655 S
O221 C210 1.289 1_655 S
O222 La193 2.470 . S
O222 C211 1.258 . S
O223 La192 2.503 1_455 S
O223 C211 1.256 . S
H224 C196 0.930 . S
H225 C197 0.930 . S
H226 C199 0.929 . S
H227 C200 0.929 . S
H228 C205 0.930 . S
H229 C206 0.930 . S
H230 C208 0.929 . S
H231 C209 0.929 . S
C232 C233 1.364 1_545 S
C232 C234 1.419 . S
C232 H236 0.930 . S
C233 C232 1.364 1_565 S
C233 C242 1.433 . S
C234 C232 1.419 . S
C234 C235 1.365 1_545 S
C234 H237 0.929 . S
C235 C234 1.365 1_565 S
C235 C241 1.426 . S
H236 C232 0.930 . S
H237 C234 0.929 . S
S238 N239 1.613 . S
S238 N240 1.610 . S
N239 S238 1.613 . S
N239 C242 1.350 . S
N240 S238 1.610 . S
N240 C241 1.351 . S
C241 C235 1.426 . S
C241 N240 1.351 . S
C241 C242 1.434 . S
C242 C233 1.433 . S
C242 N239 1.350 . S
C242 C241 1.434 . S
C243 C244 1.369 . S
C243 C245 1.419 . S
C243 H247 0.930 . S
C244 C243 1.369 . S
C244 C253 1.429 . S
C245 C243 1.419 . S
C245 C246 1.363 . S
C245 H248 0.929 . S
C246 C245 1.363 . S
C246 C252 1.428 . S
H247 C243 0.930 . S
H248 C245 0.929 . S
S249 N250 1.613 . S
S249 N251 1.610 . S
N250 S249 1.613 . S
N250 C253 1.350 . S
N251 S249 1.610 . S
N251 C252 1.351 . S
C252 C246 1.428 . S
C252 N251 1.351 . S
C252 C253 1.434 . S
C253 C244 1.429 . S
C253 N250 1.350 . S
C253 C252 1.434 . S
C254 C255 1.369 . S
C254 C256 1.419 . S
C254 H258 0.930 . S
C255 C254 1.369 . S
C255 C264 1.429 . S
C256 C254 1.419 . S
C256 C257 1.363 . S
C256 H259 0.929 . S
C257 C256 1.363 . S
C257 C263 1.428 . S
H258 C254 0.930 . S
H259 C256 0.929 . S
S260 N261 1.613 . S
S260 N262 1.610 . S
N261 S260 1.613 . S
N261 C264 1.350 . S
N262 S260 1.610 . S
N262 C263 1.351 . S
C263 C257 1.428 . S
C263 N262 1.351 . S
C263 C264 1.434 . S
C264 C255 1.429 . S
C264 N261 1.350 . S
C264 C263 1.434 . S
C265 C266 1.384 . S
C265 C267 1.419 . S
C265 H269 0.930 . S
C266 C265 1.384 . S
C266 C275 1.414 1_455 S
C267 C265 1.419 . S
C267 C268 1.363 . S
C267 H270 0.929 . S
C268 C267 1.363 . S
C268 C274 1.428 1_455 S
H269 C265 0.930 . S
H270 C267 0.929 . S
S271 N272 1.613 . S
S271 N273 1.610 . S
N272 S271 1.613 . S
N272 C275 1.350 . S
N273 S271 1.610 . S
N273 C274 1.351 . S
C274 C268 1.428 1_655 S
C274 N273 1.351 . S
C274 C275 1.434 . S
C275 C266 1.414 1_655 S
C275 N272 1.350 . S
C275 C274 1.434 . S
C276 C277 1.366 1_565 S
C276 C278 1.419 . S
C276 H280 0.930 . S
C277 C276 1.366 1_545 S
C277 C286 1.431 . S
C278 C276 1.419 . S
C278 C279 1.363 1_565 S
C278 H281 0.929 . S
C279 C278 1.363 1_545 S
C279 C285 1.428 . S
H280 C276 0.930 . S
H281 C278 0.929 . S
S282 N283 1.613 . S
S282 N284 1.610 . S
N283 S282 1.613 . S
N283 C286 1.350 . S
N284 S282 1.610 . S
N284 C285 1.351 . S
C285 C279 1.428 . S
C285 N284 1.351 . S
C285 C286 1.434 . S
C286 C277 1.431 . S
C286 N283 1.350 . S
C286 C285 1.434 . S
C287 C288 1.369 . S
C287 C289 1.419 . S
C287 H291 0.930 . S
C288 C287 1.369 . S
C288 C297 1.429 . S
C289 C287 1.419 . S
C289 C290 1.363 . S
C289 H292 0.929 . S
C290 C289 1.363 . S
C290 C296 1.428 . S
H291 C287 0.930 . S
H292 C289 0.929 . S
S293 N294 1.613 . S
S293 N295 1.610 . S
N294 S293 1.613 . S
N294 C297 1.350 . S
N295 S293 1.610 . S
N295 C296 1.351 . S
C296 C290 1.428 . S
C296 N295 1.351 . S
C296 C297 1.434 . S
C297 C288 1.429 . S
C297 N294 1.350 . S
C297 C296 1.434 . S
C298 C299 1.369 . S
C298 C300 1.419 . S
C298 H302 0.930 . S
C299 C298 1.369 . S
C299 C308 1.429 . S
C300 C298 1.419 . S
C300 C301 1.363 . S
C300 H303 0.929 . S
C301 C300 1.363 . S
C301 C307 1.428 . S
H302 C298 0.930 . S
H303 C300 0.929 . S
S304 N305 1.613 . S
S304 N306 1.610 . S
N305 S304 1.613 . S
N305 C308 1.350 . S
N306 S304 1.610 . S
N306 C307 1.351 . S
C307 C301 1.428 . S
C307 N306 1.351 . S
C307 C308 1.434 . S
C308 C299 1.429 . S
C308 N305 1.350 . S
C308 C307 1.434 . S
C309 C310 1.384 . S
C309 C311 1.419 . S
C309 H313 0.930 . S
C310 C309 1.384 . S
C310 C319 1.415 1_655 S
C311 C309 1.419 . S
C311 C312 1.363 . S
C311 H314 0.929 . S
C312 C311 1.363 . S
C312 C318 1.428 1_655 S
H313 C309 0.930 . S
H314 C311 0.929 . S
S315 N316 1.613 . S
S315 N317 1.610 . S
N316 S315 1.613 . S
N316 C319 1.350 . S
N317 S315 1.610 . S
N317 C318 1.351 . S
C318 C312 1.428 1_455 S
C318 N317 1.351 . S
C318 C319 1.434 . S
C319 C310 1.415 1_455 S
C319 N316 1.350 . S
C319 C318 1.434 . S
C320 C321 1.369 . S
C320 C322 1.419 . S
C320 H324 0.930 1_655 S
C321 C320 1.369 . S
C321 C330 1.429 . S
C322 C320 1.419 . S
C322 C323 1.363 . S
C322 H325 0.929 . S
C323 C322 1.363 . S
C323 C329 1.428 . S
H324 C320 0.930 1_455 S
H325 C322 0.929 . S
S326 N327 1.613 . S
S326 N328 1.610 . S
N327 S326 1.613 . S
N327 C330 1.350 . S
N328 S326 1.610 . S
N328 C329 1.351 . S
C329 C323 1.428 . S
C329 N328 1.351 . S
C329 C330 1.434 . S
C330 C321 1.429 . S
C330 N327 1.350 . S
C330 C329 1.434 . S
C331 C332 1.369 . S
C331 C333 1.419 . S
C331 H335 0.930 . S
C332 C331 1.369 . S
C332 C341 1.429 . S
C333 C331 1.419 . S
C333 C334 1.363 . S
C333 H336 0.929 . S
C334 C333 1.363 . S
C334 C340 1.428 . S
H335 C331 0.930 . S
H336 C333 0.929 . S
S337 N338 1.613 . S
S337 N339 1.610 1_545 S
N338 S337 1.613 . S
N338 C341 1.350 1_545 S
N339 S337 1.610 1_565 S
N339 C340 1.351 . S
C340 C334 1.428 . S
C340 N339 1.351 . S
C340 C341 1.434 . S
C341 C332 1.429 . S
C341 N338 1.350 1_565 S
C341 C340 1.434 . S
C342 C343 1.369 . S
C342 C344 1.419 . S
C342 H346 0.930 . S
C343 C342 1.369 . S
C343 C352 1.429 . S
C344 C342 1.419 . S
C344 C345 1.363 . S
C344 H347 0.929 . S
C345 C344 1.363 . S
C345 C351 1.428 . S
H346 C342 0.930 . S
H347 C344 0.929 . S
S348 N349 1.613 . S
S348 N350 1.610 . S
N349 S348 1.613 . S
N349 C352 1.350 . S
N350 S348 1.610 . S
N350 C351 1.351 . S
C351 C345 1.428 . S
C351 N350 1.351 . S
C351 C352 1.434 . S
C352 C343 1.429 . S
C352 N349 1.350 . S
C352 C351 1.434 . S
C353 C354 1.369 . S
C353 C355 1.419 . S
C353 H357 0.930 . S
C354 C353 1.369 . S
C354 C363 1.429 . S
C355 C353 1.419 . S
C355 C356 1.363 . S
C355 H358 0.929 . S
C356 C355 1.363 . S
C356 C362 1.428 . S
H357 C353 0.930 . S
H358 C355 0.929 . S
S359 N360 1.613 . S
S359 N361 1.610 . S
N360 S359 1.613 . S
N360 C363 1.350 . S
N361 S359 1.610 . S
N361 C362 1.351 . S
C362 C356 1.428 . S
C362 N361 1.351 . S
C362 C363 1.434 . S
C363 C354 1.429 . S
C363 N360 1.350 . S
C363 C362 1.434 . S
C364 C365 1.369 . S
C364 C366 1.419 . S
C364 H368 0.930 . S
C365 C364 1.369 . S
C365 C374 1.429 . S
C366 C364 1.419 . S
C366 C367 1.363 . S
C366 H369 0.929 . S
C367 C366 1.363 . S
C367 C373 1.428 . S
H368 C364 0.930 . S
H369 C366 0.929 . S
S370 N371 1.613 . S
S370 N372 1.610 . S
N371 S370 1.613 . S
N371 C374 1.350 . S
N372 S370 1.610 . S
N372 C373 1.351 . S
C373 C367 1.428 . S
C373 N372 1.351 . S
C373 C374 1.434 . S
C374 C365 1.429 . S
C374 N371 1.350 . S
C374 C373 1.434 . S
C375 C376 1.373 . S
C375 C377 1.437 . S
C375 H379 0.908 1_545 S
C376 C375 1.373 . S
C376 C385 1.429 . S
C377 C375 1.437 . S
C377 C378 1.363 . S
C377 H380 0.929 . S
C378 C377 1.363 . S
C378 C384 1.428 . S
H379 C375 0.908 1_565 S
H380 C377 0.929 . S
S381 N382 1.613 . S
S381 N383 1.610 . S
N382 S381 1.613 . S
N382 C385 1.350 . S
N383 S381 1.610 . S
N383 C384 1.351 . S
C384 C378 1.428 . S
C384 N383 1.351 . S
C384 C385 1.434 . S
C385 C376 1.429 . S
C385 N382 1.350 . S
C385 C384 1.434 . S
C386 C387 1.369 . S
C386 C388 1.419 . S
C386 H390 0.930 . S
C387 C386 1.369 . S
C387 C396 1.429 . S
C388 C386 1.419 . S
C388 C389 1.363 . S
C388 H391 0.929 . S
C389 C388 1.363 . S
C389 C395 1.428 . S
H390 C386 0.930 . S
H391 C388 0.929 . S
S392 N393 1.613 . S
S392 N394 1.610 . S
N393 S392 1.613 . S
N393 C396 1.350 . S
N394 S392 1.610 . S
N394 C395 1.351 . S
C395 C389 1.428 . S
C395 N394 1.351 . S
C395 C396 1.434 . S
C396 C387 1.429 . S
C396 N393 1.350 . S
C396 C395 1.434 . S
C397 C398 1.369 . S
C397 C399 1.419 . S
C397 H401 0.930 . S
C398 C397 1.369 . S
C398 C407 1.429 . S
C399 C397 1.419 . S
C399 C400 1.363 . S
C399 H402 0.929 . S
C400 C399 1.363 . S
C400 C406 1.428 . S
H401 C397 0.930 . S
H402 C399 0.929 . S
S403 N404 1.613 . S
S403 N405 1.610 . S
N404 S403 1.613 . S
N404 C407 1.350 . S
N405 S403 1.610 . S
N405 C406 1.351 . S
C406 C400 1.428 . S
C406 N405 1.351 . S
C406 C407 1.434 . S
C407 C398 1.429 . S
C407 N404 1.350 . S
C407 C406 1.434 . S
C408 C409 1.369 . S
C408 C410 1.419 . S
C408 H412 0.930 . S
C409 C408 1.369 . S
C409 C418 1.429 1_455 S
C410 C408 1.419 . S
C410 C411 1.363 . S
C410 H413 0.929 . S
C411 C410 1.363 . S
C411 C417 1.428 . S
H412 C408 0.930 . S
H413 C410 0.929 . S
S414 N415 1.613 . S
S414 N416 1.610 . S
N415 S414 1.613 . S
N415 C418 1.350 1_554 S
N416 S414 1.610 . S
N416 C417 1.351 1_654 S
C417 C411 1.428 . S
C417 N416 1.351 1_456 S
C417 C418 1.434 1_455 S
C418 C409 1.429 1_655 S
C418 N415 1.350 1_556 S
C418 C417 1.434 1_655 S
C419 C420 1.369 1_565 S
C419 C421 1.419 . S
C419 H423 0.930 . S
C420 C419 1.369 1_545 S
C420 C429 1.429 . S
C421 C419 1.419 . S
C421 C422 1.363 1_565 S
C421 H424 0.929 . S
C422 C421 1.363 1_545 S
C422 C428 1.428 . S
H423 C419 0.930 . S
H424 C421 0.929 . S
S425 N426 1.613 . S
S425 N427 1.610 . S
N426 S425 1.613 . S
N426 C429 1.350 . S
N427 S425 1.610 . S
N427 C428 1.351 . S
C428 C422 1.428 . S
C428 N427 1.351 . S
C428 C429 1.434 . S
C429 C420 1.429 . S
C429 N426 1.350 . S
C429 C428 1.434 . S
C430 C431 1.369 . S
C430 C432 1.419 . S
C430 H434 0.930 . S
C431 C430 1.369 . S
C431 C440 1.429 . S
C432 C430 1.419 . S
C432 C433 1.363 . S
C432 H435 0.929 . S
C433 C432 1.363 . S
C433 C439 1.428 . S
H434 C430 0.930 . S
H435 C432 0.929 . S
S436 N437 1.613 . S
S436 N438 1.610 . S
N437 S436 1.613 . S
N437 C440 1.350 1_554 S
N438 S436 1.610 . S
N438 C439 1.351 1_554 S
C439 C433 1.428 . S
C439 N438 1.351 1_556 S
C439 C440 1.434 . S
C440 C431 1.429 . S
C440 N437 1.350 1_556 S
C440 C439 1.434 . S
C441 C442 1.369 . S
C441 C443 1.419 . S
C441 H445 0.930 1_556 S
C442 C441 1.369 . S
C442 C451 1.429 . S
C443 C441 1.419 . S
C443 C444 1.363 . S
C443 H446 0.929 1_556 S
C444 C443 1.363 . S
C444 C450 1.428 . S
H445 C441 0.930 1_554 S
H446 C443 0.929 1_554 S
S447 N448 1.613 . S
S447 N449 1.610 . S
N448 S447 1.613 . S
N448 C451 1.350 . S
N449 S447 1.610 . S
N449 C450 1.351 . S
C450 C444 1.428 . S
C450 N449 1.351 . S
C450 C451 1.434 . S
C451 C442 1.429 . S
C451 N448 1.350 . S
C451 C450 1.434 . S
C452 C453 1.369 . S
C452 C454 1.419 . S
C452 H456 0.930 . S
C453 C452 1.369 . S
C453 C462 1.429 1_655 S
C454 C452 1.419 . S
C454 C455 1.363 . S
C454 H457 0.929 . S
C455 C454 1.363 . S
C455 C461 1.428 1_655 S
H456 C452 0.930 . S
H457 C454 0.929 . S
S458 N459 1.613 . S
S458 N460 1.610 . S
N459 S458 1.613 . S
N459 C462 1.350 . S
N460 S458 1.610 . S
N460 C461 1.351 . S
C461 C455 1.428 1_455 S
C461 N460 1.351 . S
C461 C462 1.434 . S
C462 C453 1.429 1_455 S
C462 N459 1.350 . S
C462 C461 1.434 . S
C463 C464 1.369 . S
C463 C465 1.419 . S
C463 H467 0.930 . S
C464 C463 1.369 . S
C464 C473 1.429 1_565 S
C465 C463 1.419 . S
C465 C466 1.363 . S
C465 H468 0.929 . S
C466 C465 1.363 . S
C466 C472 1.428 1_565 S
H467 C463 0.930 . S
H468 C465 0.929 . S
S469 N470 1.613 . S
S469 N471 1.610 . S
N470 S469 1.613 . S
N470 C473 1.350 . S
N471 S469 1.610 . S
N471 C472 1.351 . S
C472 C466 1.428 1_545 S
C472 N471 1.351 . S
C472 C473 1.434 . S
C473 C464 1.429 1_545 S
C473 N470 1.350 . S
C473 C472 1.434 . S
C474 C475 1.369 . S
C474 C476 1.419 . S
C474 H478 0.930 . S
C475 C474 1.369 . S
C475 C484 1.429 . S
C476 C474 1.419 . S
C476 C477 1.363 . S
C476 H479 0.929 . S
C477 C476 1.363 . S
C477 C483 1.428 . S
H478 C474 0.930 . S
H479 C476 0.929 . S
S480 N481 1.613 . S
S480 N482 1.610 . S
N481 S480 1.613 . S
N481 C484 1.350 . S
N482 S480 1.610 . S
N482 C483 1.351 . S
C483 C477 1.428 . S
C483 N482 1.351 . S
C483 C484 1.434 . S
C484 C475 1.429 . S
C484 N481 1.350 . S
C484 C483 1.434 . S
C485 C486 1.369 . S
C485 C487 1.419 . S
C485 H489 0.930 . S
C486 C485 1.369 . S
C486 C495 1.429 . S
C487 C485 1.419 . S
C487 C488 1.363 . S
C487 H490 0.929 . S
C488 C487 1.363 . S
C488 C494 1.428 . S
H489 C485 0.930 . S
H490 C487 0.929 . S
S491 N492 1.613 . S
S491 N493 1.610 . S
N492 S491 1.613 . S
N492 C495 1.350 . S
N493 S491 1.610 . S
N493 C494 1.351 . S
C494 C488 1.428 . S
C494 N493 1.351 . S
C494 C495 1.434 . S
C495 C486 1.429 . S
C495 N492 1.350 . S
C495 C494 1.434 . S
C233 C61 1.991 . S
C235 C81 2.261 . S
C246 C121 2.286 . S
C244 C70 2.040 . S
C257 C161 2.298 . S
C255 C43 2.043 . S
C268 C201 2.278 . S
C266 C52 2.016 1_455 S
C279 C90 2.262 1_554 S
C277 C25 1.999 1_545 S
C288 C34 2.046 . S
C290 C130 2.288 1_554 S
C299 C7 2.031 . S
C301 C170 2.299 1_554 S
C310 C16 2.007 . S
C312 C210 2.279 1_654 S
C323 C87 0.907 . S
C321 C50 0.942 . S
C334 C127 0.877 . S
C332 C59 0.927 . S
C345 C167 0.858 . S
C343 C67 0.919 . S
C354 C41 0.936 . S
C356 C207 0.866 . S
C365 C14 0.945 1_455 S
C367 C78 0.910 . S
C378 C118 0.893 . S
C376 C23 0.916 1_545 S
C389 C158 0.859 . S
C387 C31 0.913 . S
C398 C5 0.925 . S
C400 C198 0.891 . S
C409 C49 2.305 1_455 S
C411 C91 2.601 . S
C420 C58 2.260 1_545 S
C422 C131 2.548 . S
C433 C171 2.532 . S
C431 C68 2.237 . S
C444 C211 2.585 . S
C442 C40 2.297 . S
C453 C13 2.314 . S
C455 C82 2.608 . S
C466 C122 2.544 . S
C464 C22 2.255 . S
C477 C162 2.529 . S
C475 C32 2.252 . S
C486 C4 2.287 . S
C488 C202 2.590 . S
