# Generated by pormake.
# Topology ctn, (3,4)-cn, num edge types: 1
# Building blocks:
#     Node 0, Type 0, BuildingBlock: ESEHIV_clean_linker_0, # of connection points: 3
#     Node 1, Type 0, BuildingBlock: ESEHIV_clean_linker_0, # of connection points: 3
#     Node 2, Type 0, BuildingBlock: ESEHIV_clean_linker_0, # of connection points: 3
#     Node 3, Type 0, BuildingBlock: ESEHIV_clean_linker_0, # of connection points: 3
#     Node 4, Type 0, BuildingBlock: ESEHIV_clean_linker_0, # of connection points: 3
#     Node 5, Type 0, BuildingBlock: ESEHIV_clean_linker_0, # of connection points: 3
#     Node 6, Type 0, BuildingBlock: ESEHIV_clean_linker_0, # of connection points: 3
#     Node 7, Type 0, BuildingBlock: ESEHIV_clean_linker_0, # of connection points: 3
#     Node 8, Type 0, BuildingBlock: ESEHIV_clean_linker_0, # of connection points: 3
#     Node 9, Type 0, BuildingBlock: ESEHIV_clean_linker_0, # of connection points: 3
#     Node 10, Type 0, BuildingBlock: ESEHIV_clean_linker_0, # of connection points: 3
#     Node 11, Type 0, BuildingBlock: ESEHIV_clean_linker_0, # of connection points: 3
#     Node 12, Type 0, BuildingBlock: ESEHIV_clean_linker_0, # of connection points: 3
#     Node 13, Type 0, BuildingBlock: ESEHIV_clean_linker_0, # of connection points: 3
#     Node 14, Type 0, BuildingBlock: ESEHIV_clean_linker_0, # of connection points: 3
#     Node 15, Type 0, BuildingBlock: ESEHIV_clean_linker_0, # of connection points: 3
#     Node 16, Type 1, BuildingBlock: TATPOV_clean_sbu_0, # of connection points: 4
#     Node 17, Type 1, BuildingBlock: TATPOV_clean_sbu_0, # of connection points: 4
#     Node 18, Type 1, BuildingBlock: TATPOV_clean_sbu_0, # of connection points: 4
#     Node 19, Type 1, BuildingBlock: TATPOV_clean_sbu_0, # of connection points: 4
#     Node 20, Type 1, BuildingBlock: TATPOV_clean_sbu_0, # of connection points: 4
#     Node 21, Type 1, BuildingBlock: TATPOV_clean_sbu_0, # of connection points: 4
#     Node 22, Type 1, BuildingBlock: TATPOV_clean_sbu_0, # of connection points: 4
#     Node 23, Type 1, BuildingBlock: TATPOV_clean_sbu_0, # of connection points: 4
#     Node 24, Type 1, BuildingBlock: TATPOV_clean_sbu_0, # of connection points: 4
#     Node 25, Type 1, BuildingBlock: TATPOV_clean_sbu_0, # of connection points: 4
#     Node 26, Type 1, BuildingBlock: TATPOV_clean_sbu_0, # of connection points: 4
#     Node 27, Type 1, BuildingBlock: TATPOV_clean_sbu_0, # of connection points: 4
#     Edge 28, Type (0, 1), BuildingBlock: AJUNOK_clean_linker_0, # of connection points: 2
#     Edge 29, Type (0, 1), BuildingBlock: AJUNOK_clean_linker_0, # of connection points: 2
#     Edge 30, Type (0, 1), BuildingBlock: AJUNOK_clean_linker_0, # of connection points: 2
#     Edge 31, Type (0, 1), BuildingBlock: AJUNOK_clean_linker_0, # of connection points: 2
#     Edge 32, Type (0, 1), BuildingBlock: AJUNOK_clean_linker_0, # of connection points: 2
#     Edge 33, Type (0, 1), BuildingBlock: AJUNOK_clean_linker_0, # of connection points: 2
#     Edge 34, Type (0, 1), BuildingBlock: AJUNOK_clean_linker_0, # of connection points: 2
#     Edge 35, Type (0, 1), BuildingBlock: AJUNOK_clean_linker_0, # of connection points: 2
#     Edge 36, Type (0, 1), BuildingBlock: AJUNOK_clean_linker_0, # of connection points: 2
#     Edge 37, Type (0, 1), BuildingBlock: AJUNOK_clean_linker_0, # of connection points: 2
#     Edge 38, Type (0, 1), BuildingBlock: AJUNOK_clean_linker_0, # of connection points: 2
#     Edge 39, Type (0, 1), BuildingBlock: AJUNOK_clean_linker_0, # of connection points: 2
#     Edge 40, Type (0, 1), BuildingBlock: AJUNOK_clean_linker_0, # of connection points: 2
#     Edge 41, Type (0, 1), BuildingBlock: AJUNOK_clean_linker_0, # of connection points: 2
#     Edge 42, Type (0, 1), BuildingBlock: AJUNOK_clean_linker_0, # of connection points: 2
#     Edge 43, Type (0, 1), BuildingBlock: AJUNOK_clean_linker_0, # of connection points: 2
#     Edge 44, Type (0, 1), BuildingBlock: AJUNOK_clean_linker_0, # of connection points: 2
#     Edge 45, Type (0, 1), BuildingBlock: AJUNOK_clean_linker_0, # of connection points: 2
#     Edge 46, Type (0, 1), BuildingBlock: AJUNOK_clean_linker_0, # of connection points: 2
#     Edge 47, Type (0, 1), BuildingBlock: AJUNOK_clean_linker_0, # of connection points: 2
#     Edge 48, Type (0, 1), BuildingBlock: AJUNOK_clean_linker_0, # of connection points: 2
#     Edge 49, Type (0, 1), BuildingBlock: AJUNOK_clean_linker_0, # of connection points: 2
#     Edge 50, Type (0, 1), BuildingBlock: AJUNOK_clean_linker_0, # of connection points: 2
#     Edge 51, Type (0, 1), BuildingBlock: AJUNOK_clean_linker_0, # of connection points: 2
#     Edge 52, Type (0, 1), BuildingBlock: AJUNOK_clean_linker_0, # of connection points: 2
#     Edge 53, Type (0, 1), BuildingBlock: AJUNOK_clean_linker_0, # of connection points: 2
#     Edge 54, Type (0, 1), BuildingBlock: AJUNOK_clean_linker_0, # of connection points: 2
#     Edge 55, Type (0, 1), BuildingBlock: AJUNOK_clean_linker_0, # of connection points: 2
#     Edge 56, Type (0, 1), BuildingBlock: AJUNOK_clean_linker_0, # of connection points: 2
#     Edge 57, Type (0, 1), BuildingBlock: AJUNOK_clean_linker_0, # of connection points: 2
#     Edge 58, Type (0, 1), BuildingBlock: AJUNOK_clean_linker_0, # of connection points: 2
#     Edge 59, Type (0, 1), BuildingBlock: AJUNOK_clean_linker_0, # of connection points: 2
#     Edge 60, Type (0, 1), BuildingBlock: AJUNOK_clean_linker_0, # of connection points: 2
#     Edge 61, Type (0, 1), BuildingBlock: AJUNOK_clean_linker_0, # of connection points: 2
#     Edge 62, Type (0, 1), BuildingBlock: AJUNOK_clean_linker_0, # of connection points: 2
#     Edge 63, Type (0, 1), BuildingBlock: AJUNOK_clean_linker_0, # of connection points: 2
#     Edge 64, Type (0, 1), BuildingBlock: AJUNOK_clean_linker_0, # of connection points: 2
#     Edge 65, Type (0, 1), BuildingBlock: AJUNOK_clean_linker_0, # of connection points: 2
#     Edge 66, Type (0, 1), BuildingBlock: AJUNOK_clean_linker_0, # of connection points: 2
#     Edge 67, Type (0, 1), BuildingBlock: AJUNOK_clean_linker_0, # of connection points: 2
#     Edge 68, Type (0, 1), BuildingBlock: AJUNOK_clean_linker_0, # of connection points: 2
#     Edge 69, Type (0, 1), BuildingBlock: AJUNOK_clean_linker_0, # of connection points: 2
#     Edge 70, Type (0, 1), BuildingBlock: AJUNOK_clean_linker_0, # of connection points: 2
#     Edge 71, Type (0, 1), BuildingBlock: AJUNOK_clean_linker_0, # of connection points: 2
#     Edge 72, Type (0, 1), BuildingBlock: AJUNOK_clean_linker_0, # of connection points: 2
#     Edge 73, Type (0, 1), BuildingBlock: AJUNOK_clean_linker_0, # of connection points: 2
#     Edge 74, Type (0, 1), BuildingBlock: AJUNOK_clean_linker_0, # of connection points: 2
#     Edge 75, Type (0, 1), BuildingBlock: AJUNOK_clean_linker_0, # of connection points: 2
# Relax obj value: 0.003
# Max RMSD: 0.045
# Mean RMSD: 0.021
data_MOF--net-ctn--node1-TATPOV_clean_sbu_0--node2-ESEHIV_clean_linker_0--edge1-AJUNOK_clean_linker_0
_symmetry_space_group_name_H-M    P1
_symmetry_Int_Tables_number       1
_symmetry_cell_setting            triclinic
loop_
_symmetry_equiv_pos_as_xyz
'x, y, z'
_cell_length_a     36.79827
_cell_length_b     36.803509
_cell_length_c     36.723728
_cell_angle_alpha  91.43203
_cell_angle_beta   91.714214
_cell_angle_gamma 91.593262
loop_
_atom_site_label
_atom_site_type_symbol
_atom_site_fract_x
_atom_site_fract_y
_atom_site_fract_z
_atom_type_partial_charge
H0 H 0.99213 0.08128 0.03186 0.0
H1 H 0.03751 0.98086 0.06627 0.0
H2 H 0.08404 0.03795 0.97729 0.0
C3 C 0.01185 0.06019 0.02864 0.0
C4 C 0.03818 0.06338 0.00182 0.0
C5 C 0.01162 0.03071 0.05226 0.0
C6 C 0.03762 0.00373 0.04825 0.0
C7 C 0.0639 0.00611 0.02131 0.0
C8 C 0.0641 0.03615 0.99835 0.0
H9 H 0.27745 0.67738 0.28777 0.0
H10 H 0.30905 0.76075 0.21387 0.0
H11 H 0.21058 0.69769 0.19248 0.0
C12 C 0.27241 0.69238 0.26319 0.0
C13 C 0.24071 0.68452 0.24166 0.0
C14 C 0.29727 0.71991 0.25345 0.0
C15 C 0.28977 0.73993 0.2221 0.0
C16 C 0.25854 0.73215 0.20017 0.0
C17 C 0.23422 0.70432 0.20995 0.0
H18 H 0.9716 0.486 0.10338 0.0
H19 H 0.04042 0.40013 0.06758 0.0
H20 H 0.9591 0.44092 0.99433 0.0
C21 C 0.98014 0.4676 0.082 0.0
C22 C 0.96175 0.4665 0.04794 0.0
C23 C 0.00891 0.44416 0.08908 0.0
C24 C 0.01852 0.41855 0.06222 0.0
C25 C 1.00058 0.41755 0.02802 0.0
C26 C 0.97259 0.44167 0.02102 0.0
H27 H 0.69141 0.71617 0.20485 0.0
H28 H 0.78417 0.78258 0.17624 0.0
H29 H 0.71026 0.82148 0.25581 0.0
C30 C 0.70846 0.74049 0.20905 0.0
C31 C 0.69755 0.76801 0.23313 0.0
C32 C 0.73992 0.74536 0.18856 0.0
C33 C 0.76034 0.77829 0.19242 0.0
C34 C 0.74945 0.80619 0.21609 0.0
C35 C 0.71854 0.80038 0.23692 0.0
H36 H 0.99628 0.95657 0.44584 0.0
H37 H 0.07174 0.03294 0.40058 0.0
H38 H 0.10217 0.97453 0.49661 0.0
C39 C 0.02264 0.97057 0.44688 0.0
C40 C 0.04807 0.96271 0.47456 0.0
C41 C 0.03074 0.99591 0.42025 0.0
C42 C 0.06535 0.013 0.42082 0.0
C43 C 0.0914 0.0051 0.4482 0.0
C44 C 0.0824 0.98024 0.4752 0.0
H45 H 0.18637 0.7922 0.78589 0.0
H46 H 0.26812 0.71502 0.81261 0.0
H47 H 0.20103 0.69854 0.71565 0.0
C48 C 0.2007 0.76766 0.7793 0.0
C49 C 0.19019 0.74676 0.74797 0.0
C50 C 0.22915 0.75678 0.80253 0.0
C51 C 0.24714 0.72454 0.79411 0.0
C52 C 0.23694 0.70336 0.76298 0.0
C53 C 0.20868 0.71476 0.73986 0.0
H54 H 0.90291 0.56558 0.53417 0.0
H55 H 0.99813 0.59365 0.47412 0.0
H56 H 0.94656 0.48781 0.45944 0.0
C57 C 0.92284 0.55855 0.51421 0.0
C58 C 0.92202 0.5236 0.49811 0.0
C59 C 0.95048 0.58385 0.50573 0.0
C60 C 0.97664 0.57426 0.48036 0.0
C61 C 0.97539 0.53968 0.46341 0.0
C62 C 0.94789 0.51463 0.47243 0.0
H63 H 0.79497 0.81499 0.88274 0.0
H64 H 0.8269 0.87121 0.78729 0.0
H65 H 0.88426 0.77708 0.82067 0.0
C66 C 0.81405 0.81892 0.86116 0.0
C67 C 0.84147 0.7937 0.85583 0.0
C68 C 0.8087 0.84711 0.83667 0.0
C69 C 0.83189 0.85061 0.80729 0.0
C70 C 0.85884 0.82516 0.80111 0.0
C71 C 0.86422 0.79744 0.82604 0.0
H72 H 0.2916 0.31507 0.38298 0.0
H73 H 0.32293 0.37574 0.29004 0.0
H74 H 0.38387 0.28331 0.32196 0.0
C75 C 0.31088 0.32054 0.36189 0.0
C76 C 0.33909 0.29645 0.35601 0.0
C77 C 0.30455 0.34886 0.33783 0.0
C78 C 0.32851 0.35477 0.30949 0.0
C79 C 0.35685 0.33087 0.30327 0.0
C80 C 0.36287 0.30263 0.32746 0.0
H81 H 0.47963 0.99296 0.60724 0.0
H82 H 0.53703 0.89666 0.57646 0.0
H83 H 0.46373 0.94517 0.49994 0.0
C84 C 0.48562 0.97194 0.58728 0.0
C85 C 0.46947 0.97264 0.55228 0.0
C86 C 0.50975 0.94433 0.59641 0.0
C87 C 0.5176 0.91734 0.57008 0.0
C88 C 0.50134 0.91789 0.53507 0.0
C89 C 0.47697 0.94521 0.52674 0.0
H90 H 0.17631 0.2206 0.68412 0.0
H91 H 0.27213 0.28667 0.66617 0.0
H92 H 0.20198 0.31336 0.75427 0.0
C93 C 0.1942 0.24361 0.69183 0.0
C94 C 0.18608 0.26567 0.72199 0.0
C95 C 0.22503 0.25123 0.67141 0.0
C96 C 0.24819 0.28097 0.68178 0.0
C97 C 0.24007 0.3038 0.71157 0.0
C98 C 0.20913 0.29555 0.73179 0.0
H99 H 0.77226 0.18143 0.78727 0.0
H100 H 0.80117 0.26451 0.71213 0.0
H101 H 0.7052 0.19746 0.69103 0.0
C102 C 0.76655 0.19598 0.76253 0.0
C103 C 0.73536 0.1865 0.74084 0.0
C104 C 0.79014 0.2245 0.75271 0.0
C105 C 0.78243 0.24334 0.72068 0.0
C106 C 0.75185 0.23379 0.69845 0.0
C107 C 0.72841 0.20537 0.70863 0.0
H108 H 0.48301 0.57749 0.53571 0.0
H109 H 0.53676 0.48386 0.57658 0.0
H110 H 0.56991 0.53077 0.47617 0.0
C111 C 0.50367 0.55724 0.53311 0.0
C112 C 0.52644 0.55769 0.50304 0.0
C113 C 0.50684 0.53043 0.55953 0.0
C114 C 0.53339 0.50393 0.55574 0.0
C115 C 0.55657 0.50402 0.52594 0.0
C116 C 0.55249 0.53071 0.49945 0.0
H117 H 0.49054 0.46075 0.94334 0.0
H118 H 0.56428 0.54071 0.90128 0.0
H119 H 0.59399 0.48278 0.99788 0.0
C120 C 0.51637 0.47571 0.94536 0.0
C121 C 0.54124 0.46865 0.97379 0.0
C122 C 0.52427 0.50172 0.91931 0.0
C123 C 0.55806 0.52042 0.92124 0.0
C124 C 0.58327 0.51384 0.94978 0.0
C125 C 0.57466 0.4879 0.9759 0.0
H126 H 0.68613 0.28925 0.27444 0.0
H127 H 0.7682 0.21452 0.30713 0.0
H128 H 0.70797 0.19597 0.20622 0.0
C129 C 0.70124 0.26488 0.26934 0.0
C130 C 0.69409 0.24421 0.23704 0.0
C131 C 0.72783 0.25438 0.29493 0.0
C132 C 0.7481 0.22338 0.28732 0.0
C133 C 0.74124 0.20243 0.25529 0.0
C134 C 0.71409 0.21285 0.23036 0.0
H135 H 0.41211 0.06872 0.04287 0.0
H136 H 0.50805 0.09544 0.98303 0.0
H137 H 0.45746 0.98898 0.9715 0.0
C138 C 0.43256 0.06115 0.02366 0.0
C139 C 0.43208 0.02577 0.00861 0.0
C140 C 0.46023 0.08636 0.01485 0.0
C141 C 0.48689 0.07606 0.99022 0.0
C142 C 0.48637 0.04076 0.97495 0.0
C143 C 0.45861 0.01606 0.98394 0.0
Zn144 Zn 0.30882 0.83174 0.00909 0.0
Zn145 Zn 0.25144 0.87229 0.0123 0.0
O146 O 0.24621 0.83852 0.05701 0.0
O147 O 0.29054 0.80036 0.0487 0.0
O148 O 0.20861 0.90614 0.01459 0.0
O149 O 0.34245 0.87446 0.02092 0.0
O150 O 0.29503 0.90927 0.0172 0.0
C151 C 0.26338 0.81033 0.06631 0.0
C152 C 0.26732 0.82674 0.94277 0.0
O153 O 0.24567 0.84619 0.96102 0.0
O154 O 0.29734 0.8178 0.95706 0.0
C155 C 0.17528 0.89602 0.01148 0.0
O156 O 0.16716 0.86123 0.00661 0.0
C157 C 0.32927 0.90584 0.02157 0.0
Zn158 Zn 0.09012 0.42527 0.30612 0.0
Zn159 Zn 0.12645 0.48803 0.29386 0.0
O160 O 0.09299 0.50315 0.33519 0.0
O161 O 0.06499 0.45109 0.34659 0.0
O162 O 0.1564 0.53328 0.28392 0.0
O163 O 0.13667 0.4007 0.31753 0.0
O164 O 0.16614 0.4523 0.30862 0.0
C165 C 0.07051 0.48469 0.35352 0.0
C166 C 0.07797 0.45004 0.23357 0.0
O167 O 0.09936 0.47601 0.24494 0.0
O168 O 0.06965 0.42459 0.25462 0.0
C169 C 0.1427 0.56349 0.2759 0.0
O170 O 0.10713 0.56582 0.27411 0.0
C171 C 0.16629 0.41889 0.31698 0.0
Zn172 Zn 0.80358 0.58314 0.93672 0.0
Zn173 Zn 0.79267 0.62002 0.99953 0.0
O174 O 0.83236 0.5849 0.01549 0.0
O175 O 0.83775 0.55177 0.96511 0.0
O176 O 0.78307 0.65083 0.04419 0.0
O177 O 0.82174 0.62921 0.91375 0.0
O178 O 0.80987 0.65887 0.96447 0.0
C179 C 0.84649 0.55862 0.99824 0.0
C180 C 0.72987 0.57715 0.95851 0.0
O181 O 0.74262 0.59576 0.986 0.0
O182 O 0.75042 0.56896 0.9327 0.0
C183 C 0.77405 0.639 0.07496 0.0
O184 O 0.77087 0.60374 0.07923 0.0
C185 C 0.8209 0.65884 0.93196 0.0
Zn186 Zn 0.834 0.0043 0.29664 0.0
Zn187 Zn 0.87583 0.01134 0.23896 0.0
O188 O 0.84398 0.05749 0.23708 0.0
O189 O 0.80763 0.04903 0.28304 0.0
O190 O 0.91044 0.01595 0.19718 0.0
O191 O 0.8782 0.0076 0.33051 0.0
O192 O 0.91247 0.01111 0.2827 0.0
C193 C 0.81751 0.06754 0.25633 0.0
C194 C 0.82441 0.94413 0.24647 0.0
O195 O 0.84769 0.96193 0.22834 0.0
O196 O 0.81425 0.95626 0.27691 0.0
C197 C 0.90186 0.02089 0.16391 0.0
O198 O 0.86736 0.02359 0.15437 0.0
C199 C 0.90947 0.01 0.31713 0.0
Zn200 Zn 0.3117 0.08161 0.43377 0.0
Zn201 Zn 0.29649 0.11749 0.4956 0.0
O202 O 0.33893 0.08576 0.51217 0.0
O203 O 0.35272 0.05808 0.46067 0.0
O204 O 0.28443 0.14561 0.54132 0.0
O205 O 0.3219 0.12872 0.40959 0.0
O206 O 0.31083 0.1582 0.46066 0.0
C207 C 0.35886 0.06432 0.49437 0.0
C208 C 0.23855 0.06788 0.45485 0.0
O209 O 0.24852 0.08948 0.48121 0.0
O210 O 0.26099 0.0594 0.43083 0.0
C211 C 0.25588 0.16427 0.54175 0.0
O212 O 0.23479 0.16446 0.51225 0.0
C213 C 0.31991 0.1584 0.42743 0.0
Zn214 Zn 0.32619 0.50254 0.79994 0.0
Zn215 Zn 0.36456 0.50866 0.74092 0.0
O216 O 0.33345 0.55526 0.74018 0.0
O217 O 0.29668 0.54525 0.78541 0.0
O218 O 0.39387 0.50969 0.69487 0.0
O219 O 0.37162 0.51038 0.83117 0.0
O220 O 0.40443 0.51018 0.78214 0.0
C221 C 0.30659 0.56456 0.75926 0.0
C222 C 0.31569 0.44003 0.75471 0.0
O223 O 0.33547 0.45926 0.73415 0.0
O224 O 0.30862 0.45187 0.78626 0.0
C225 C 0.41578 0.53554 0.68728 0.0
O226 O 0.419 0.564 0.70959 0.0
C227 C 0.40244 0.51178 0.81676 0.0
Zn228 Zn 0.80111 0.32807 0.50385 0.0
Zn229 Zn 0.7435 0.36849 0.50699 0.0
O230 O 0.73886 0.33556 0.55227 0.0
O231 O 0.78328 0.29745 0.54432 0.0
O232 O 0.7011 0.40266 0.5095 0.0
O233 O 0.83471 0.37115 0.51449 0.0
O234 O 0.78699 0.40552 0.51065 0.0
C235 C 0.75625 0.30766 0.562 0.0
C236 C 0.7586 0.32221 0.4379 0.0
O237 O 0.73712 0.34192 0.45605 0.0
O238 O 0.78883 0.31361 0.45202 0.0
C239 C 0.66812 0.39417 0.51556 0.0
O240 O 0.65909 0.35988 0.52042 0.0
C241 C 0.8213 0.40242 0.51463 0.0
Zn242 Zn 0.59492 0.92457 0.8142 0.0
Zn243 Zn 0.62844 0.98805 0.799 0.0
O244 O 0.59732 0.003 0.84231 0.0
O245 O 0.57193 0.95035 0.85618 0.0
O246 O 0.65653 0.03378 0.78689 0.0
O247 O 0.64293 0.90139 0.82303 0.0
O248 O 0.66992 0.95383 0.81212 0.0
C249 C 0.57704 0.9841 0.86256 0.0
C250 C 0.57793 0.94775 0.74176 0.0
O251 O 0.59922 0.9744 0.75156 0.0
O252 O 0.57124 0.92276 0.76387 0.0
C253 C 0.64169 0.06334 0.77853 0.0
O254 O 0.60604 0.06464 0.77771 0.0
C255 C 0.67178 0.92064 0.82088 0.0
Zn256 Zn 0.99553 0.30518 0.82785 0.0
Zn257 Zn 0.00206 0.24559 0.86459 0.0
O258 O 0.04559 0.24454 0.82928 0.0
O259 O 0.03444 0.29073 0.79397 0.0
O260 O 0.00621 0.19911 0.89331 0.0
O261 O 0.00821 0.33577 0.87256 0.0
O262 O 0.00756 0.28628 0.90485 0.0
C263 C 0.0534 0.26377 0.80195 0.0
C264 C 0.93036 0.26273 0.82228 0.0
O265 O 0.94997 0.24054 0.83985 0.0
O266 O 0.94343 0.29362 0.81459 0.0
C267 C 0.03552 0.19142 0.91038 0.0
O268 O 0.06373 0.21391 0.9087 0.0
C269 C 0.01086 0.32081 0.90313 0.0
Zn270 Zn 0.49892 0.80619 0.33444 0.0
Zn271 Zn 0.50816 0.74609 0.36928 0.0
O272 O 0.55242 0.7467 0.33465 0.0
O273 O 0.54141 0.79575 0.30367 0.0
O274 O 0.51475 0.70256 0.40138 0.0
O275 O 0.50669 0.83759 0.37927 0.0
O276 O 0.51066 0.78702 0.40941 0.0
C277 C 0.56108 0.76877 0.30977 0.0
C278 C 0.43691 0.75849 0.325 0.0
O279 O 0.45698 0.73744 0.34349 0.0
O280 O 0.44848 0.79022 0.31817 0.0
C281 C 0.51188 0.66889 0.39288 0.0
O282 O 0.5045 0.65898 0.35877 0.0
C283 C 0.51055 0.82165 0.40918 0.0
Zn284 Zn 0.93379 0.80174 0.58452 0.0
Zn285 Zn 0.99682 0.78783 0.62038 0.0
O286 O 0.01231 0.8306 0.58872 0.0
O287 O 0.96019 0.84344 0.56144 0.0
O288 O 0.0422 0.77347 0.64778 0.0
O289 O 0.91049 0.81025 0.63248 0.0
O290 O 0.96234 0.80081 0.66151 0.0
C291 C 0.99386 0.85008 0.56719 0.0
C292 C 0.95716 0.72992 0.56988 0.0
O293 O 0.98288 0.74072 0.59184 0.0
O294 O 0.93207 0.7513 0.56145 0.0
C295 C 0.06763 0.79528 0.65916 0.0
O296 O 0.06531 0.83004 0.65239 0.0
C297 C 0.92882 0.80857 0.66205 0.0
Zn298 Zn 0.43341 0.30496 0.08763 0.0
Zn299 Zn 0.4969 0.29566 0.12399 0.0
O300 O 0.51003 0.33778 0.09055 0.0
O301 O 0.45733 0.34688 0.06259 0.0
O302 O 0.5428 0.2873 0.15342 0.0
O303 O 0.40883 0.31438 0.13478 0.0
O304 O 0.46109 0.30815 0.16413 0.0
C305 C 0.49066 0.35537 0.0681 0.0
C306 C 0.46139 0.23394 0.07565 0.0
O307 O 0.4867 0.24653 0.09724 0.0
O308 O 0.43511 0.25376 0.06685 0.0
C309 C 0.57261 0.27862 0.13941 0.0
O310 O 0.57414 0.27543 0.10378 0.0
C311 C 0.42724 0.31454 0.16442 0.0
C312 C 0.21189 0.78855 0.86072 0.0
C313 C 0.23899 0.77802 0.83658 0.0
C314 C 0.221 0.80584 0.89448 0.0
C315 C 0.25754 0.81298 0.90533 0.0
H316 H 0.18351 0.78222 0.85407 0.0
H317 H 0.19939 0.81226 0.91276 0.0
S318 S 0.33826 0.79569 0.84969 0.0
N319 N 0.30346 0.77969 0.82418 0.0
N320 N 0.3207 0.81155 0.88755 0.0
C321 C 0.28471 0.80418 0.88061 0.0
C322 C 0.27542 0.78684 0.8463 0.0
C323 C 0.01839 0.49422 0.43985 0.0
C324 C 0.00309 0.52867 0.43706 0.0
C325 C 0.04122 0.48091 0.41325 0.0
C326 C 0.05022 0.50174 0.3831 0.0
H327 H 0.01198 0.47697 0.4624 0.0
H328 H 0.05143 0.45375 0.41601 0.0
S329 S 0.01912 0.5944 0.36379 0.0
N330 N 0.99948 0.5839 0.40216 0.0
N331 N 0.04366 0.55914 0.35263 0.0
C332 C 0.03676 0.53698 0.38079 0.0
C333 C 0.01291 0.55041 0.40769 0.0
C334 C 0.84083 0.72605 0.8582 0.0
C335 C 0.84148 0.75986 0.87695 0.0
C336 C 0.83556 0.69358 0.87651 0.0
C337 C 0.83045 0.69352 0.91434 0.0
H338 H 0.84271 0.72465 0.82882 0.0
H339 H 0.83414 0.66843 0.8605 0.0
S340 S 0.83401 0.77476 0.97663 0.0
N341 N 0.83987 0.79134 0.93579 0.0
N342 N 0.82945 0.73025 0.97043 0.0
C343 C 0.8327 0.72709 0.93373 0.0
C344 C 0.83827 0.76024 0.91499 0.0
C345 C 0.96699 0.01207 0.40455 0.0
C346 C 0.002 0.00436 0.39275 0.0
C347 C 0.93772 0.01498 0.37976 0.0
C348 C 0.94214 0.01038 0.34198 0.0
H349 H 0.96196 0.01491 0.43339 0.0
H350 H 0.9112 0.02009 0.39051 0.0
S351 S 0.02909 0.9922 0.29689 0.0
N352 N 0.0401 0.99391 0.34085 0.0
N353 N 0.98508 0.9998 0.29386 0.0
C354 C 0.97746 0.00438 0.32963 0.0
C355 C 0.00739 0.00132 0.35509 0.0
C356 C 0.26629 0.21329 0.63411 0.0
C357 C 0.23224 0.22895 0.63833 0.0
C358 C 0.27353 0.1921 0.60301 0.0
C359 C 0.24712 0.18617 0.57472 0.0
H360 H 0.28739 0.21718 0.65517 0.0
H361 H 0.30019 0.18059 0.60104 0.0
S362 S 0.1538 0.2223 0.57249 0.0
N363 N 0.17206 0.23784 0.61162 0.0
N364 N 0.18544 0.19812 0.55318 0.0
C365 C 0.21296 0.20194 0.57864 0.0
C366 C 0.20557 0.22327 0.61043 0.0
C367 C 0.48007 0.56314 0.61269 0.0
C368 C 0.48307 0.53095 0.59165 0.0
C369 C 0.45826 0.5643 0.64339 0.0
C370 C 0.43817 0.53343 0.65414 0.0
H371 H 0.49514 0.58755 0.60565 0.0
H372 H 0.45716 0.58973 0.65876 0.0
S373 S 0.4357 0.44269 0.60717 0.0
N374 N 0.46352 0.46769 0.58299 0.0
N375 N 0.42242 0.46969 0.6405 0.0
C376 C 0.44063 0.50112 0.63297 0.0
C377 C 0.46312 0.49991 0.60186 0.0
C378 C 0.74344 0.28978 0.66186 0.0
C379 C 0.74649 0.25177 0.66309 0.0
C380 C 0.7435 0.30773 0.6285 0.0
C381 C 0.74752 0.28825 0.5955 0.0
H382 H 0.74221 0.30579 0.68693 0.0
H383 H 0.74276 0.33714 0.62877 0.0
S384 S 0.7542 0.1883 0.58398 0.0
N385 N 0.75129 0.19518 0.6284 0.0
N386 N 0.75238 0.22888 0.56591 0.0
C387 C 0.74905 0.25016 0.59635 0.0
C388 C 0.74829 0.2319 0.63012 0.0
C389 C 0.54533 0.97597 0.64763 0.0
C390 C 0.52734 0.94433 0.63325 0.0
C391 C 0.5619 0.97673 0.68253 0.0
C392 C 0.56079 0.94596 0.70456 0.0
H393 H 0.54681 1.00029 0.63164 0.0
H394 H 0.57537 0.00177 0.69238 0.0
S395 S 0.5165 0.85641 0.67931 0.0
N396 N 0.50902 0.88165 0.64348 0.0
N397 N 0.54009 0.88274 0.70902 0.0
C398 C 0.54281 0.91409 0.69035 0.0
C399 C 0.52617 0.91334 0.65472 0.0
C400 C 0.84859 0.20694 0.78403 0.0
C401 C 0.82376 0.23394 0.7748 0.0
C402 C 0.88251 0.21611 0.80101 0.0
C403 C 0.89277 0.25261 0.80918 0.0
H404 H 0.8424 0.17871 0.77669 0.0
H405 H 0.90139 0.19466 0.80627 0.0
S406 S 0.835 0.33272 0.79585 0.0
N407 N 0.80998 0.298 0.77902 0.0
N408 N 0.8735 0.31538 0.81048 0.0
C409 C 0.86723 0.27954 0.80196 0.0
C410 C 0.83282 0.27019 0.78487 0.0
C411 C 0.52026 0.90455 0.47193 0.0
C412 C 0.5101 0.89137 0.50584 0.0
C413 C 0.52193 0.88135 0.4414 0.0
C414 C 0.5136 0.84392 0.44345 0.0
H415 H 0.5255 0.93339 0.46863 0.0
H416 H 0.52869 0.89321 0.41567 0.0
S417 S 0.4891 0.79529 0.52703 0.0
N418 N 0.49425 0.8383 0.54067 0.0
N419 N 0.49778 0.79422 0.48313 0.0
C420 C 0.50573 0.82992 0.4778 0.0
C421 C 0.50392 0.85377 0.50905 0.0
C422 C 0.15241 0.2546 0.7793 0.0
C423 C 0.1518 0.25967 0.74142 0.0
C424 C 0.12001 0.25295 0.79862 0.0
C425 C 0.08614 0.25723 0.78072 0.0
H426 H 0.17815 0.25286 0.79417 0.0
H427 H 0.12165 0.25053 0.82796 0.0
S428 S 0.06986 0.26917 0.68165 0.0
N429 N 0.11449 0.26686 0.68655 0.0
N430 N 0.05379 0.26477 0.72287 0.0
C431 C 0.08518 0.26098 0.74271 0.0
C432 C 0.11798 0.26195 0.72304 0.0
C433 C 0.51999 0.57712 0.43808 0.0
C434 C 0.52316 0.58649 0.47544 0.0
C435 C 0.51637 0.60385 0.41166 0.0
C436 C 0.51612 0.64111 0.42148 0.0
H437 H 0.5198 0.54881 0.42921 0.0
H438 H 0.51376 0.59514 0.38329 0.0
S439 S 0.52525 0.67992 0.51593 0.0
N440 N 0.52703 0.63556 0.52097 0.0
N441 N 0.52014 0.68581 0.47168 0.0
C442 C 0.51972 0.65081 0.45888 0.0
C443 C 0.52322 0.62355 0.48572 0.0
C444 C 0.91461 0.82053 0.76382 0.0
C445 C 0.87671 0.82347 0.76555 0.0
C446 C 0.93139 0.81629 0.73022 0.0
C447 C 0.91079 0.81463 0.6972 0.0
H448 H 0.93134 0.82126 0.78863 0.0
H449 H 0.96066 0.81396 0.73022 0.0
S450 S 0.81012 0.81912 0.68756 0.0
N451 N 0.81886 0.82298 0.73181 0.0
N452 N 0.85008 0.81564 0.66879 0.0
C453 C 0.87275 0.81765 0.69875 0.0
C454 C 0.8558 0.82188 0.73288 0.0
C455 C 0.00342 0.93838 0.5181 0.0
C456 C 0.03778 0.93622 0.50255 0.0
C457 C 0.9902 0.91098 0.54019 0.0
C458 C 0.01103 0.88061 0.54817 0.0
H459 H 0.98604 0.96091 0.51217 0.0
H460 H 0.96302 0.91323 0.55045 0.0
S461 S 0.10378 0.86306 0.51654 0.0
N462 N 0.09315 0.90195 0.49801 0.0
N463 N 0.06858 0.85084 0.54078 0.0
C464 C 0.04632 0.87905 0.53472 0.0
C465 C 0.05966 0.9068 0.51163 0.0
C466 C 0.15753 0.79421 0.71299 0.0
C467 C 0.15924 0.75808 0.72436 0.0
C468 C 0.12806 0.80584 0.69162 0.0
C469 C 0.09905 0.7818 0.68081 0.0
H470 H 0.17922 0.81368 0.7206 0.0
H471 H 0.12804 0.83398 0.68368 0.0
S472 S 0.09016 0.68436 0.70446 0.0
N473 N 0.12913 0.69847 0.72408 0.0
N474 N 0.07401 0.71993 0.68353 0.0
C475 C 0.10058 0.74544 0.69192 0.0
C476 C 0.13058 0.73368 0.71375 0.0
C477 C 0.92249 0.64307 0.52093 0.0
C478 C 0.95239 0.62033 0.52352 0.0
C479 C 0.92437 0.67845 0.53594 0.0
C480 C 0.95611 0.69225 0.55447 0.0
H481 H 0.8977 0.63366 0.50657 0.0
H482 H 0.90067 0.69505 0.53297 0.0
S483 S 0.04132 0.64228 0.57013 0.0
N484 N 0.01414 0.61313 0.54684 0.0
N485 N 0.01788 0.67957 0.5753 0.0
C486 C 0.98602 0.66934 0.55779 0.0
C487 C 0.98411 0.63342 0.54223 0.0
C488 C 0.80747 0.84399 0.22418 0.0
C489 C 0.7694 0.84199 0.21849 0.0
C490 C 0.82596 0.87763 0.23079 0.0
C491 C 0.80689 0.91017 0.23183 0.0
H492 H 0.82282 0.81933 0.22524 0.0
H493 H 0.85493 0.878 0.23702 0.0
S494 S 0.70824 0.92039 0.21358 0.0
N495 N 0.71421 0.87615 0.21005 0.0
N496 N 0.74882 0.93888 0.22363 0.0
C497 C 0.76931 0.90872 0.22426 0.0
C498 C 0.75059 0.87475 0.21723 0.0
C499 C 0.79858 0.16769 0.24888 0.0
C500 C 0.76034 0.16788 0.2498 0.0
C501 C 0.81719 0.13481 0.24803 0.0
C502 C 0.7981 0.10125 0.24896 0.0
H503 H 0.81416 0.19312 0.24983 0.0
H504 H 0.84666 0.13572 0.24886 0.0
S505 S 0.69798 0.08708 0.24973 0.0
N506 N 0.70415 0.1317 0.24967 0.0
N507 N 0.73905 0.0701 0.24908 0.0
C508 C 0.75991 0.10115 0.24861 0.0
C509 C 0.74102 0.13444 0.24877 0.0
C510 C 0.36776 0.00162 0.0094 0.0
C511 C 0.40476 0.99787 0.01867 0.0
C512 C 0.34285 0.97225 0.01231 0.0
C513 C 0.35426 0.93823 0.02448 0.0
H514 H 0.35844 0.0267 0.99798 0.0
H515 H 0.31493 0.9757 0.00316 0.0
S516 S 0.44756 0.91693 0.05744 0.0
N517 N 0.45094 0.95942 0.04431 0.0
N518 N 0.40451 0.90432 0.05005 0.0
C519 C 0.39083 0.93521 0.03623 0.0
C520 C 0.41599 0.96501 0.03324 0.0
C521 C 0.26734 0.40475 0.33388 0.0
C522 C 0.26905 0.36684 0.33689 0.0
C523 C 0.23394 0.42151 0.32821 0.0
C524 C 0.20108 0.40091 0.32514 0.0
H525 H 0.29208 0.42145 0.33522 0.0
H526 H 0.23401 0.45077 0.32563 0.0
S527 S 0.1913 0.30032 0.33 0.0
N528 N 0.23534 0.30903 0.33553 0.0
N529 N 0.17267 0.34028 0.3256 0.0
C530 C 0.20251 0.36293 0.32869 0.0
C531 C 0.23645 0.34596 0.33436 0.0
C532 C 0.14268 0.03976 0.48075 0.0
C533 C 0.12826 0.02242 0.44872 0.0
C534 C 0.17814 0.05483 0.48235 0.0
C535 C 0.2007 0.05268 0.45211 0.0
H536 H 0.1264 0.04166 0.50478 0.0
H537 H 0.18807 0.06775 0.50769 0.0
S538 S 0.17534 0.01013 0.36165 0.0
N539 N 0.13884 0.00407 0.38608 0.0
N540 N 0.20543 0.03226 0.38879 0.0
C541 C 0.18634 0.03562 0.41976 0.0
C542 C 0.15015 0.02058 0.41813 0.0
C543 C 0.72539 0.1223 0.76015 0.0
C544 C 0.71082 0.15592 0.75111 0.0
C545 C 0.70283 0.09273 0.76905 0.0
C546 C 0.66471 0.09554 0.76938 0.0
H547 H 0.75449 0.11862 0.75979 0.0
H548 H 0.71552 0.06738 0.77549 0.0
S549 S 0.6132 0.17858 0.74961 0.0
N550 N 0.65616 0.19097 0.74443 0.0
N551 N 0.61358 0.13543 0.76085 0.0
C552 C 0.64982 0.12926 0.76081 0.0
C553 C 0.67288 0.15938 0.75171 0.0
C554 C 0.41299 0.00821 0.56077 0.0
C555 C 0.44467 0.00169 0.54136 0.0
C556 C 0.38585 0.03047 0.54653 0.0
C557 C 0.3896 0.04639 0.51237 0.0
H558 H 0.40827 0.99443 0.58599 0.0
H559 H 0.36099 0.03346 0.56124 0.0
S560 S 0.47025 0.04299 0.45436 0.0
N561 N 0.48046 0.01714 0.4891 0.0
N562 N 0.42925 0.05805 0.46197 0.0
C563 C 0.42226 0.04213 0.49413 0.0
C564 C 0.44989 0.02002 0.50876 0.0
C565 C 0.57691 0.43938 0.5269 0.0
C566 C 0.58543 0.47655 0.5229 0.0
C567 C 0.6037 0.41304 0.52426 0.0
C568 C 0.64021 0.42277 0.51771 0.0
H569 H 0.5492 0.43052 0.5318 0.0
H570 H 0.5956 0.38482 0.52745 0.0
S571 S 0.67691 0.51694 0.50699 0.0
N572 N 0.63312 0.52197 0.51339 0.0
N573 N 0.68339 0.47278 0.50812 0.0
C574 C 0.64909 0.46 0.51391 0.0
C575 C 0.62176 0.48676 0.51655 0.0
C576 C 0.7701 0.28292 0.34272 0.0
C577 C 0.73426 0.27499 0.33009 0.0
C578 C 0.77737 0.29922 0.37709 0.0
C579 C 0.74914 0.3086 0.40032 0.0
H580 H 0.79285 0.27597 0.32609 0.0
H581 H 0.80555 0.30406 0.3857 0.0
S582 S 0.65038 0.29437 0.38007 0.0
N583 N 0.67 0.27813 0.34345 0.0
N584 N 0.6838 0.30966 0.40786 0.0
C585 C 0.71308 0.30208 0.38762 0.0
C586 C 0.70562 0.28507 0.35258 0.0
C587 C 0.52151 0.04932 0.9181 0.0
C588 C 0.5143 0.02909 0.94924 0.0
C589 C 0.54358 0.03554 0.89071 0.0
C590 C 0.55872 0.00102 0.89359 0.0
H591 H 0.50859 0.07507 0.91404 0.0
H592 H 0.54722 0.0511 0.86636 0.0
S593 S 0.5533 0.94051 0.97264 0.0
N594 N 0.52822 0.97539 0.98364 0.0
N595 N 0.56876 0.9491 0.9319 0.0
C596 C 0.5536 0.98173 0.92565 0.0
C597 C 0.53164 0.99588 0.95357 0.0
C598 C 0.33544 0.25952 0.41238 0.0
C599 C 0.33833 0.26104 0.37436 0.0
C600 C 0.33013 0.22619 0.42949 0.0
C601 C 0.32735 0.19321 0.40913 0.0
H602 H 0.33667 0.28434 0.42892 0.0
H603 H 0.32771 0.22639 0.45882 0.0
S604 S 0.33157 0.18292 0.30836 0.0
N605 N 0.33683 0.22701 0.31671 0.0
N606 N 0.32759 0.16451 0.34858 0.0
C607 C 0.33062 0.19447 0.37103 0.0
C608 C 0.3359 0.22833 0.35372 0.0
C609 C 0.46108 0.51866 0.90327 0.0
C610 C 0.49577 0.50977 0.89156 0.0
C611 C 0.43167 0.52072 0.87856 0.0
C612 C 0.43558 0.51383 0.84098 0.0
H613 H 0.45638 0.5229 0.93204 0.0
H614 H 0.40536 0.52674 0.88933 0.0
S615 S 0.52181 0.49219 0.7962 0.0
N616 N 0.5333 0.49619 0.83999 0.0
N617 N 0.47787 0.50013 0.79306 0.0
C618 C 0.47068 0.50678 0.82863 0.0
C619 C 0.5008 0.50474 0.85404 0.0
C620 C 0.75746 0.72822 0.12525 0.0
C621 C 0.74968 0.71752 0.16074 0.0
C622 C 0.76556 0.70266 0.09802 0.0
C623 C 0.76614 0.66521 0.105 0.0
H624 H 0.75663 0.7566 0.1182 0.0
H625 H 0.77098 0.71249 0.0711 0.0
S626 S 0.7495 0.62324 0.19418 0.0
N627 N 0.7445 0.66716 0.20199 0.0
N628 N 0.75926 0.61889 0.15071 0.0
C629 C 0.7588 0.65413 0.14057 0.0
C630 C 0.75063 0.6803 0.16839 0.0
C631 C 0.94709 0.03218 0.07261 0.0
C632 C 0.98425 0.02827 0.08127 0.0
C633 C 0.92076 0.0297 0.09942 0.0
C634 C 0.93051 0.02343 0.1361 0.0
H635 H 0.93822 0.03678 0.04474 0.0
H636 H 0.89252 0.0327 0.09119 0.0
S637 S 0.0247 0.01307 0.1732 0.0
N638 N 0.02972 0.01916 0.12923 0.0
N639 N 0.98054 0.01427 0.17961 0.0
C640 C 0.96776 0.01985 0.14514 0.0
C641 C 0.9945 0.02228 0.11777 0.0
C642 C 0.25131 0.78961 0.16563 0.0
C643 C 0.25323 0.75145 0.16554 0.0
C644 C 0.25138 0.80866 0.1329 0.0
C645 C 0.25424 0.79013 0.09921 0.0
H646 H 0.25097 0.80486 0.19123 0.0
H647 H 0.2516 0.83811 0.13417 0.0
S648 S 0.25771 0.69029 0.08423 0.0
N649 N 0.2557 0.69581 0.12888 0.0
N650 N 0.25685 0.73155 0.06757 0.0
C651 C 0.25462 0.75194 0.09876 0.0
C652 C 0.25385 0.73259 0.13189 0.0
C653 C 0.03031 0.4149 0.14607 0.0
C654 C 0.02833 0.44606 0.12495 0.0
C655 C 0.04675 0.41649 0.18097 0.0
C656 C 0.06226 0.44924 0.19589 0.0
H657 H 0.01831 0.38927 0.13587 0.0
H658 H 0.04713 0.3918 0.1964 0.0
S659 S 0.06575 0.53812 0.15026 0.0
N660 N 0.04422 0.51026 0.12042 0.0
N661 N 0.07549 0.51338 0.18598 0.0
C662 C 0.06125 0.48044 0.17452 0.0
C663 C 0.04413 0.47884 0.1391 0.0
C664 C 0.3416 0.76442 0.2839 0.0
C665 C 0.33139 0.72806 0.27538 0.0
C666 C 0.37519 0.77359 0.30103 0.0
C667 C 0.40011 0.7468 0.31063 0.0
H668 H 0.3237 0.78616 0.27666 0.0
H669 H 0.38187 0.80214 0.30623 0.0
S670 S 0.38608 0.6473 0.2956 0.0
N671 N 0.34854 0.66482 0.27866 0.0
N672 N 0.41161 0.6821 0.31157 0.0
C673 C 0.38973 0.71015 0.30366 0.0
C674 C 0.35542 0.70077 0.28589 0.0
C675 C 0.00201 0.35448 0.00114 0.0
C676 C 0.01053 0.39178 0.99874 0.0
C677 C 0.00423 0.33097 0.97055 0.0
C678 C 0.01488 0.34416 0.93666 0.0
H679 H 0.99163 0.34385 0.02616 0.0
H680 H 0.99563 0.30277 0.97302 0.0
S681 S 0.04536 0.43897 0.91851 0.0
N682 N 0.03371 0.44018 0.96157 0.0
N683 N 0.03837 0.39639 0.90421 0.0
C684 C 0.02596 0.38105 0.93494 0.0
C685 C 0.02361 0.40478 0.96595 0.0
C686 C 0.63725 0.79304 0.24662 0.0
C687 C 0.66218 0.76529 0.25146 0.0
C688 C 0.60446 0.793 0.2648 0.0
C689 C 0.59507 0.76533 0.28901 0.0
H690 H 0.64329 0.81526 0.22874 0.0
H691 H 0.5867 0.81552 0.26021 0.0
S692 S 0.65069 0.68538 0.30994 0.0
N693 N 0.67514 0.70854 0.28094 0.0
N694 N 0.61331 0.70847 0.31569 0.0
C695 C 0.61945 0.73678 0.29344 0.0
C696 C 0.65297 0.73672 0.2745 0.0
C697 C 0.00628 0.106 0.95992 0.0
C698 C 0.03855 0.09542 0.97772 0.0
C699 C 0.0057 0.13664 0.93786 0.0
C700 C 0.03732 0.15824 0.93289 0.0
H701 H 0.98122 0.09037 0.96298 0.0
H702 H 0.98007 0.14359 0.92493 0.0
S703 S 0.12883 0.14239 0.97419 0.0
N704 N 0.10284 0.10912 0.98934 0.0
N705 N 0.10202 0.16647 0.9479 0.0
C706 C 0.06986 0.14779 0.9505 0.0
C707 C 0.07041 0.11648 0.97284 0.0
C708 C 0.4128 0.32822 0.26599 0.0
C709 C 0.37482 0.33027 0.26771 0.0
C710 C 0.42965 0.32388 0.23245 0.0
C711 C 0.40907 0.32115 0.19943 0.0
H712 H 0.42952 0.32951 0.29081 0.0
H713 H 0.45898 0.32211 0.23251 0.0
S714 S 0.30828 0.32347 0.18967 0.0
N715 N 0.31695 0.32812 0.23388 0.0
N716 N 0.34833 0.32061 0.17096 0.0
C717 C 0.37098 0.32352 0.20092 0.0
C718 C 0.35393 0.32787 0.235 0.0
C719 C 0.49622 0.44207 0.01572 0.0
C720 C 0.53121 0.44161 0.00136 0.0
C721 C 0.48395 0.41462 0.03826 0.0
C722 C 0.50636 0.38587 0.04789 0.0
H723 H 0.47776 0.46344 0.00877 0.0
H724 H 0.45638 0.41562 0.04775 0.0
S725 S 0.60095 0.3728 0.01927 0.0
N726 N 0.58862 0.41044 0.99929 0.0
N727 N 0.56577 0.35926 0.04289 0.0
C728 C 0.54206 0.38591 0.03535 0.0
C729 C 0.55446 0.41371 0.01181 0.0
C730 C 0.62982 0.26197 0.22493 0.0
C731 C 0.66417 0.25418 0.21143 0.0
C732 C 0.60066 0.27015 0.20145 0.0
C733 C 0.60457 0.27088 0.16342 0.0
H734 H 0.6252 0.26105 0.2539 0.0
H735 H 0.5747 0.2755 0.21334 0.0
S736 S 0.68981 0.2547 0.11452 0.0
N737 N 0.70111 0.24942 0.15787 0.0
N738 N 0.64626 0.2644 0.11353 0.0
C739 C 0.63902 0.26369 0.14958 0.0
C740 C 0.66878 0.2554 0.1736 0.0
C741 C 0.43024 0.14488 0.0287 0.0
C742 C 0.4612 0.12355 0.03124 0.0
C743 C 0.4307 0.18048 0.04308 0.0
C744 C 0.46205 0.19605 0.06093 0.0
H745 H 0.40561 0.13414 0.01498 0.0
H746 H 0.40614 0.19584 0.0402 0.0
S747 S 0.5499 0.15054 0.07596 0.0
N748 N 0.52373 0.11975 0.05368 0.0
N749 N 0.52478 0.18672 0.08084 0.0
C750 C 0.49312 0.17469 0.06406 0.0
C751 C 0.49266 0.13847 0.04915 0.0
C752 C 0.27174 0.34574 0.75784 0.0
C753 C 0.26268 0.33715 0.72109 0.0
C754 C 0.28979 0.37855 0.76816 0.0
C755 C 0.29994 0.40412 0.74216 0.0
H756 H 0.26429 0.32715 0.77897 0.0
H757 H 0.29544 0.3841 0.79691 0.0
S758 S 0.28313 0.39479 0.64223 0.0
N759 N 0.26539 0.35704 0.65847 0.0
N760 N 0.30035 0.41829 0.67789 0.0
C761 C 0.29223 0.39544 0.70518 0.0
C762 C 0.27339 0.36209 0.69464 0.0
C763 C 0.29165 0.66562 0.75242 0.0
C764 C 0.25386 0.66777 0.75657 0.0
C765 C 0.30847 0.6318 0.7504 0.0
C766 C 0.28808 0.59917 0.75344 0.0
H767 H 0.30838 0.69027 0.75166 0.0
H768 H 0.33779 0.63127 0.74863 0.0
S769 S 0.18818 0.59019 0.76283 0.0
N770 N 0.19643 0.63447 0.76165 0.0
N771 N 0.22803 0.57109 0.75899 0.0
C772 C 0.25017 0.60103 0.75638 0.0
C773 C 0.23304 0.6353 0.75767 0.0
C774 C 0.85817 0.49843 0.50032 0.0
C775 C 0.89543 0.49523 0.50863 0.0
C776 C 0.83378 0.46879 0.50417 0.0
C777 C 0.84599 0.43506 0.51638 0.0
H778 H 0.84819 0.5233 0.48902 0.0
H779 H 0.80558 0.47183 0.49581 0.0
S780 S 0.94041 0.41529 0.54696 0.0
N781 N 0.94283 0.45764 0.5333 0.0
N782 N 0.89738 0.40205 0.54086 0.0
C783 C 0.8829 0.4326 0.52711 0.0
C784 C 0.90754 0.46266 0.52313 0.0
C785 C 0.74127 0.84877 0.83911 0.0
C786 C 0.77474 0.86785 0.83712 0.0
C787 C 0.70836 0.86635 0.83464 0.0
C788 C 0.70742 0.90379 0.82777 0.0
H789 H 0.74039 0.81963 0.84266 0.0
H790 H 0.68346 0.85006 0.83565 0.0
S791 S 0.78778 0.96671 0.82308 0.0
N792 N 0.80523 0.92656 0.83028 0.0
N793 N 0.74321 0.95988 0.82144 0.0
C794 C 0.74076 0.92353 0.82693 0.0
C795 C 0.77441 0.90549 0.83164 0.0
C796 C 0.64159 0.53237 0.92171 0.0
C797 C 0.61916 0.53315 0.95193 0.0
C798 C 0.677 0.54734 0.92402 0.0
C799 C 0.69133 0.56393 0.9566 0.0
H800 H 0.63213 0.51903 0.89641 0.0
H801 H 0.69342 0.54532 0.9001 0.0
S802 S 0.64196 0.57572 0.04266 0.0
N803 N 0.61248 0.5538 0.01468 0.0
N804 N 0.67912 0.58198 0.01922 0.0
C805 C 0.66855 0.56607 0.98667 0.0
C806 C 0.6325 0.55063 0.98431 0.0
C807 C 0.22847 0.62024 0.2597 0.0
C808 C 0.21512 0.6546 0.25148 0.0
C809 C 0.20487 0.59117 0.26774 0.0
C810 C 0.16688 0.59524 0.26798 0.0
H811 H 0.25739 0.61557 0.25925 0.0
H812 H 0.21662 0.5652 0.27348 0.0
S813 S 0.11843 0.68062 0.25053 0.0
N814 N 0.16177 0.69171 0.24576 0.0
N815 N 0.11726 0.63713 0.26054 0.0
C816 C 0.15324 0.62973 0.26037 0.0
C817 C 0.17735 0.65934 0.25217 0.0
C818 C 0.89974 0.47581 0.02087 0.0
C819 C 0.93075 0.49044 0.03997 0.0
C820 C 0.87195 0.49806 0.00878 0.0
C821 C 0.87356 0.5357 0.01606 0.0
H822 H 0.89733 0.44696 0.01435 0.0
H823 H 0.84928 0.48578 0.99296 0.0
S824 S 0.94753 0.58763 0.06647 0.0
N825 N 0.96086 0.54513 0.06635 0.0
N826 N 0.90748 0.58673 0.04484 0.0
C827 C 0.90326 0.5506 0.03678 0.0
C828 C 0.93212 0.52801 0.04851 0.0
C829 C 0.12881 0.98735 0.0173 0.0
C830 C 0.09161 0.97754 0.01772 0.0
C831 C 0.15551 0.96088 0.01529 0.0
C832 C 0.14616 0.92343 0.01331 0.0
H833 H 0.13741 0.01575 0.01917 0.0
H834 H 0.18376 0.96997 0.01537 0.0
S835 S 0.05211 0.88367 0.01156 0.0
N836 N 0.04657 0.92799 0.01461 0.0
N837 N 0.09647 0.8782 0.01089 0.0
C838 C 0.10889 0.91334 0.01314 0.0
C839 C 0.08175 0.94035 0.01537 0.0
loop_
_geom_bond_atom_site_label_1
_geom_bond_atom_site_label_2
_geom_bond_distance
_geom_bond_site_symmetry_2
_ccdc_geom_bond_type
H0 C3 0.931 1_655 S
H1 C6 0.928 1_565 S
H2 C8 0.930 1_556 S
C3 H0 0.931 1_455 S
C3 C4 1.413 . S
C3 C5 1.360 . S
C4 C3 1.413 . S
C4 C8 1.429 . S
C5 C3 1.360 . S
C5 C6 1.372 . S
C6 H1 0.928 1_545 S
C6 C5 1.372 . S
C6 C7 1.404 . S
C7 C6 1.404 . S
C7 C8 1.391 . S
C8 H2 0.930 1_554 S
C8 C4 1.429 . S
C8 C7 1.391 . S
H9 C12 0.931 . S
H10 C15 0.928 . S
H11 C17 0.930 . S
C12 H9 0.931 . S
C12 C13 1.413 . S
C12 C14 1.360 . S
C13 C12 1.413 . S
C13 C17 1.429 . S
C14 C12 1.360 . S
C14 C15 1.372 . S
C15 H10 0.928 . S
C15 C14 1.372 . S
C15 C16 1.404 . S
C16 C15 1.404 . S
C16 C17 1.391 . S
C17 H11 0.930 . S
C17 C13 1.429 . S
C17 C16 1.391 . S
H18 C21 0.931 . S
H19 C24 0.928 1_455 S
H20 C26 0.930 . S
C21 H18 0.931 . S
C21 C22 1.413 . S
C21 C23 1.360 . S
C22 C21 1.413 . S
C22 C26 1.429 . S
C23 C21 1.360 . S
C23 C24 1.372 . S
C24 H19 0.928 1_655 S
C24 C23 1.372 . S
C24 C25 1.404 . S
C25 C24 1.404 . S
C25 C26 1.391 . S
C26 H20 0.930 . S
C26 C22 1.429 . S
C26 C25 1.391 . S
H27 C30 0.931 . S
H28 C33 0.928 . S
H29 C35 0.930 . S
C30 H27 0.931 . S
C30 C31 1.413 . S
C30 C32 1.360 . S
C31 C30 1.413 . S
C31 C35 1.429 . S
C32 C30 1.360 . S
C32 C33 1.372 . S
C33 H28 0.928 . S
C33 C32 1.372 . S
C33 C34 1.404 . S
C34 C33 1.404 . S
C34 C35 1.391 . S
C35 H29 0.930 . S
C35 C31 1.429 . S
C35 C34 1.391 . S
H36 C39 0.931 . S
H37 C42 0.928 . S
H38 C44 0.930 . S
C39 H36 0.931 . S
C39 C40 1.413 . S
C39 C41 1.360 . S
C40 C39 1.413 . S
C40 C44 1.429 . S
C41 C39 1.360 . S
C41 C42 1.372 . S
C42 H37 0.928 . S
C42 C41 1.372 . S
C42 C43 1.404 . S
C43 C42 1.404 . S
C43 C44 1.391 . S
C44 H38 0.930 . S
C44 C40 1.429 . S
C44 C43 1.391 . S
H45 C48 0.931 . S
H46 C51 0.928 . S
H47 C53 0.930 . S
C48 H45 0.931 . S
C48 C49 1.413 . S
C48 C50 1.360 . S
C49 C48 1.413 . S
C49 C53 1.429 . S
C50 C48 1.360 . S
C50 C51 1.372 . S
C51 H46 0.928 . S
C51 C50 1.372 . S
C51 C52 1.404 . S
C52 C51 1.404 . S
C52 C53 1.391 . S
C53 H47 0.930 . S
C53 C49 1.429 . S
C53 C52 1.391 . S
H54 C57 0.931 . S
H55 C60 0.928 1_455 S
H56 C62 0.930 . S
C57 H54 0.931 . S
C57 C58 1.413 . S
C57 C59 1.360 . S
C58 C57 1.413 . S
C58 C62 1.429 . S
C59 C57 1.360 . S
C59 C60 1.372 . S
C60 H55 0.928 1_655 S
C60 C59 1.372 . S
C60 C61 1.404 . S
C61 C60 1.404 . S
C61 C62 1.391 . S
C62 H56 0.930 . S
C62 C58 1.429 . S
C62 C61 1.391 . S
H63 C66 0.931 . S
H64 C69 0.928 . S
H65 C71 0.930 . S
C66 H63 0.931 . S
C66 C67 1.413 . S
C66 C68 1.360 . S
C67 C66 1.413 . S
C67 C71 1.429 . S
C68 C66 1.360 . S
C68 C69 1.372 . S
C69 H64 0.928 . S
C69 C68 1.372 . S
C69 C70 1.404 . S
C70 C69 1.404 . S
C70 C71 1.391 . S
C71 H65 0.930 . S
C71 C67 1.429 . S
C71 C70 1.391 . S
H72 C75 0.931 . S
H73 C78 0.928 . S
H74 C80 0.930 . S
C75 H72 0.931 . S
C75 C76 1.413 . S
C75 C77 1.360 . S
C76 C75 1.413 . S
C76 C80 1.429 . S
C77 C75 1.360 . S
C77 C78 1.372 . S
C78 H73 0.928 . S
C78 C77 1.372 . S
C78 C79 1.404 . S
C79 C78 1.404 . S
C79 C80 1.391 . S
C80 H74 0.930 . S
C80 C76 1.429 . S
C80 C79 1.391 . S
H81 C84 0.931 1_545 S
H82 C87 0.928 . S
H83 C89 0.930 . S
C84 H81 0.931 1_565 S
C84 C85 1.413 . S
C84 C86 1.360 . S
C85 C84 1.413 . S
C85 C89 1.429 . S
C86 C84 1.360 . S
C86 C87 1.372 . S
C87 H82 0.928 . S
C87 C86 1.372 . S
C87 C88 1.404 . S
C88 C87 1.404 . S
C88 C89 1.391 . S
C89 H83 0.930 . S
C89 C85 1.429 . S
C89 C88 1.391 . S
H90 C93 0.931 . S
H91 C96 0.928 . S
H92 C98 0.930 . S
C93 H90 0.931 . S
C93 C94 1.413 . S
C93 C95 1.360 . S
C94 C93 1.413 . S
C94 C98 1.429 . S
C95 C93 1.360 . S
C95 C96 1.372 . S
C96 H91 0.928 . S
C96 C95 1.372 . S
C96 C97 1.404 . S
C97 C96 1.404 . S
C97 C98 1.391 . S
C98 H92 0.930 . S
C98 C94 1.429 . S
C98 C97 1.391 . S
H99 C102 0.931 . S
H100 C105 0.928 . S
H101 C107 0.930 . S
C102 H99 0.931 . S
C102 C103 1.413 . S
C102 C104 1.360 . S
C103 C102 1.413 . S
C103 C107 1.429 . S
C104 C102 1.360 . S
C104 C105 1.372 . S
C105 H100 0.928 . S
C105 C104 1.372 . S
C105 C106 1.404 . S
C106 C105 1.404 . S
C106 C107 1.391 . S
C107 H101 0.930 . S
C107 C103 1.429 . S
C107 C106 1.391 . S
H108 C111 0.931 . S
H109 C114 0.928 . S
H110 C116 0.930 . S
C111 H108 0.931 . S
C111 C112 1.413 . S
C111 C113 1.360 . S
C112 C111 1.413 . S
C112 C116 1.429 . S
C113 C111 1.360 . S
C113 C114 1.372 . S
C114 H109 0.928 . S
C114 C113 1.372 . S
C114 C115 1.404 . S
C115 C114 1.404 . S
C115 C116 1.391 . S
C116 H110 0.930 . S
C116 C112 1.429 . S
C116 C115 1.391 . S
H117 C120 0.931 . S
H118 C123 0.928 . S
H119 C125 0.930 1_554 S
C120 H117 0.931 . S
C120 C121 1.413 . S
C120 C122 1.360 . S
C121 C120 1.413 . S
C121 C125 1.429 . S
C122 C120 1.360 . S
C122 C123 1.372 . S
C123 H118 0.928 . S
C123 C122 1.372 . S
C123 C124 1.404 . S
C124 C123 1.404 . S
C124 C125 1.391 . S
C125 H119 0.930 1_556 S
C125 C121 1.429 . S
C125 C124 1.391 . S
H126 C129 0.931 . S
H127 C132 0.928 . S
H128 C134 0.930 . S
C129 H126 0.931 . S
C129 C130 1.413 . S
C129 C131 1.360 . S
C130 C129 1.413 . S
C130 C134 1.429 . S
C131 C129 1.360 . S
C131 C132 1.372 . S
C132 H127 0.928 . S
C132 C131 1.372 . S
C132 C133 1.404 . S
C133 C132 1.404 . S
C133 C134 1.391 . S
C134 H128 0.930 . S
C134 C130 1.429 . S
C134 C133 1.391 . S
H135 C138 0.943 . S
H136 C141 0.928 . S
H137 C143 0.930 . S
C138 H135 0.943 . S
C138 C139 1.413 . S
C138 C140 1.360 . S
C139 C138 1.413 . S
C139 C143 1.429 . S
C140 C138 1.360 . S
C140 C141 1.372 . S
C141 H136 0.928 . S
C141 C140 1.372 . S
C141 C142 1.404 . S
C142 C141 1.404 . S
C142 C143 1.391 . S
C143 H137 0.930 . S
C143 C139 1.429 . S
C143 C142 1.391 . S
Zn144 O147 2.031 1_556 S
Zn144 O149 2.049 . S
Zn144 O154 2.067 . S
Zn145 O146 1.962 . S
Zn145 O148 1.986 . S
Zn145 O150 1.996 . S
Zn145 O153 1.943 1_554 S
O146 Zn145 1.962 . S
O146 C151 1.254 . S
O147 Zn144 2.031 1_554 S
O147 C151 1.269 . S
O148 Zn145 1.986 . S
O148 C155 1.262 . S
O149 Zn144 2.049 . S
O149 C157 1.260 . S
O150 Zn145 1.996 . S
O150 C157 1.257 1_554 S
C151 O146 1.254 . S
C151 O147 1.269 . S
C152 O153 1.249 . S
C152 O154 1.270 . S
O153 Zn145 1.943 1_556 S
O153 C152 1.249 . S
O154 Zn144 2.067 . S
O154 C152 1.270 . S
C155 O148 1.262 . S
C155 O156 1.232 . S
O156 C155 1.232 . S
C157 O149 1.260 . S
C157 O150 1.257 1_556 S
Zn158 O161 2.031 . S
Zn158 O163 2.049 . S
Zn158 O168 2.067 . S
Zn159 O160 1.962 . S
Zn159 O162 1.986 . S
Zn159 O164 1.996 . S
Zn159 O167 1.943 . S
O160 Zn159 1.962 . S
O160 C165 1.254 . S
O161 Zn158 2.031 . S
O161 C165 1.269 . S
O162 Zn159 1.986 . S
O162 C169 1.262 . S
O163 Zn158 2.049 . S
O163 C171 1.260 . S
O164 Zn159 1.996 . S
O164 C171 1.257 . S
C165 O160 1.254 . S
C165 O161 1.269 . S
C166 O167 1.249 . S
C166 O168 1.270 . S
O167 Zn159 1.943 . S
O167 C166 1.249 . S
O168 Zn158 2.067 . S
O168 C166 1.270 . S
C169 O162 1.262 . S
C169 O170 1.232 . S
O170 C169 1.232 . S
C171 O163 1.260 . S
C171 O164 1.257 . S
Zn172 O175 2.031 . S
Zn172 O177 2.049 . S
Zn172 O182 2.067 . S
Zn173 O174 1.962 . S
Zn173 O176 1.986 . S
Zn173 O178 1.996 1_554 S
Zn173 O181 1.943 . S
O174 Zn173 1.962 . S
O174 C179 1.254 . S
O175 Zn172 2.031 . S
O175 C179 1.269 1_556 S
O176 Zn173 1.986 . S
O176 C183 1.262 . S
O177 Zn172 2.049 . S
O177 C185 1.260 . S
O178 Zn173 1.996 1_556 S
O178 C185 1.257 . S
C179 O174 1.254 . S
C179 O175 1.269 1_554 S
C180 O181 1.249 1_556 S
C180 O182 1.270 . S
O181 Zn173 1.943 . S
O181 C180 1.249 1_554 S
O182 Zn172 2.067 . S
O182 C180 1.270 . S
C183 O176 1.262 . S
C183 O184 1.232 . S
O184 C183 1.232 . S
C185 O177 1.260 . S
C185 O178 1.257 . S
Zn186 O189 2.030 . S
Zn186 O191 2.050 1_545 S
Zn186 O196 2.069 1_545 S
Zn187 O188 1.962 . S
Zn187 O190 1.986 . S
Zn187 O192 1.996 . S
Zn187 O195 1.943 1_545 S
O188 Zn187 1.962 . S
O188 C193 1.254 . S
O189 Zn186 2.030 . S
O189 C193 1.269 . S
O190 Zn187 1.986 . S
O190 C197 1.262 . S
O191 Zn186 2.050 1_565 S
O191 C199 1.260 . S
O192 Zn187 1.996 . S
O192 C199 1.257 1_545 S
C193 O188 1.254 . S
C193 O189 1.269 . S
C194 O195 1.249 . S
C194 O196 1.270 . S
O195 Zn187 1.943 1_565 S
O195 C194 1.249 . S
O196 Zn186 2.069 1_565 S
O196 C194 1.270 . S
C197 O190 1.262 . S
C197 O198 1.232 . S
O198 C197 1.232 . S
C199 O191 1.260 . S
C199 O192 1.257 1_565 S
Zn200 O203 2.031 . S
Zn200 O205 2.049 . S
Zn200 O210 2.067 . S
Zn201 O202 1.962 . S
Zn201 O204 1.986 . S
Zn201 O206 1.996 . S
Zn201 O209 1.943 . S
O202 Zn201 1.962 . S
O202 C207 1.254 . S
O203 Zn200 2.031 . S
O203 C207 1.269 . S
O204 Zn201 1.986 . S
O204 C211 1.262 . S
O205 Zn200 2.049 . S
O205 C213 1.260 . S
O206 Zn201 1.996 . S
O206 C213 1.257 . S
C207 O202 1.254 . S
C207 O203 1.269 . S
C208 O209 1.249 . S
C208 O210 1.270 . S
O209 Zn201 1.943 . S
O209 C208 1.249 . S
O210 Zn200 2.067 . S
O210 C208 1.270 . S
C211 O204 1.262 . S
C211 O212 1.232 . S
O212 C211 1.232 . S
C213 O205 1.260 . S
C213 O206 1.257 . S
Zn214 O217 2.031 . S
Zn214 O219 2.049 . S
Zn214 O224 2.067 . S
Zn215 O216 1.962 . S
Zn215 O218 1.986 . S
Zn215 O220 1.996 . S
Zn215 O223 1.943 . S
O216 Zn215 1.962 . S
O216 C221 1.254 . S
O217 Zn214 2.031 . S
O217 C221 1.269 . S
O218 Zn215 1.986 . S
O218 C225 1.262 . S
O219 Zn214 2.049 . S
O219 C227 1.260 . S
O220 Zn215 1.996 . S
O220 C227 1.257 . S
C221 O216 1.254 . S
C221 O217 1.269 . S
C222 O223 1.249 . S
C222 O224 1.270 . S
O223 Zn215 1.943 . S
O223 C222 1.249 . S
O224 Zn214 2.067 . S
O224 C222 1.270 . S
C225 O218 1.262 . S
C225 O226 1.232 . S
O226 C225 1.232 . S
C227 O219 1.260 . S
C227 O220 1.257 . S
Zn228 O231 2.031 . S
Zn228 O233 2.049 . S
Zn228 O238 2.067 . S
Zn229 O230 1.962 . S
Zn229 O232 1.986 . S
Zn229 O234 1.996 . S
Zn229 O237 1.943 . S
O230 Zn229 1.962 . S
O230 C235 1.254 . S
O231 Zn228 2.031 . S
O231 C235 1.269 . S
O232 Zn229 1.986 . S
O232 C239 1.262 . S
O233 Zn228 2.049 . S
O233 C241 1.260 . S
O234 Zn229 1.996 . S
O234 C241 1.257 . S
C235 O230 1.254 . S
C235 O231 1.269 . S
C236 O237 1.249 . S
C236 O238 1.270 . S
O237 Zn229 1.943 . S
O237 C236 1.249 . S
O238 Zn228 2.067 . S
O238 C236 1.270 . S
C239 O232 1.262 . S
C239 O240 1.232 . S
O240 C239 1.232 . S
C241 O233 1.260 . S
C241 O234 1.257 . S
Zn242 O245 2.031 . S
Zn242 O247 2.049 . S
Zn242 O252 2.067 . S
Zn243 O244 1.962 . S
Zn243 O246 1.986 . S
Zn243 O248 1.996 1_545 S
Zn243 O251 1.943 . S
O244 Zn243 1.962 . S
O244 C249 1.254 . S
O245 Zn242 2.031 . S
O245 C249 1.269 1_565 S
O246 Zn243 1.986 . S
O246 C253 1.262 . S
O247 Zn242 2.049 . S
O247 C255 1.260 . S
O248 Zn243 1.996 1_565 S
O248 C255 1.257 . S
C249 O244 1.254 . S
C249 O245 1.269 1_545 S
C250 O251 1.249 1_565 S
C250 O252 1.270 . S
O251 Zn243 1.943 . S
O251 C250 1.249 1_545 S
O252 Zn242 2.067 . S
O252 C250 1.270 . S
C253 O246 1.262 . S
C253 O254 1.232 . S
O254 C253 1.232 . S
C255 O247 1.260 . S
C255 O248 1.257 . S
Zn256 O259 2.027 1_655 S
Zn256 O261 2.052 . S
Zn256 O266 2.073 . S
Zn257 O258 1.962 . S
Zn257 O260 1.986 . S
Zn257 O262 1.996 . S
Zn257 O265 1.943 1_455 S
O258 Zn257 1.962 . S
O258 C263 1.254 . S
O259 Zn256 2.027 1_455 S
O259 C263 1.269 . S
O260 Zn257 1.986 . S
O260 C267 1.262 . S
O261 Zn256 2.052 . S
O261 C269 1.260 . S
O262 Zn257 1.996 . S
O262 C269 1.257 1_455 S
C263 O258 1.254 . S
C263 O259 1.269 . S
C264 O265 1.249 . S
C264 O266 1.270 . S
O265 Zn257 1.943 1_655 S
O265 C264 1.249 . S
O266 Zn256 2.073 . S
O266 C264 1.270 . S
C267 O260 1.262 . S
C267 O268 1.232 . S
O268 C267 1.232 . S
C269 O261 1.260 . S
C269 O262 1.257 1_655 S
Zn270 O273 2.031 . S
Zn270 O275 2.049 . S
Zn270 O280 2.067 . S
Zn271 O272 1.962 . S
Zn271 O274 1.986 . S
Zn271 O276 1.996 . S
Zn271 O279 1.943 . S
O272 Zn271 1.962 . S
O272 C277 1.254 . S
O273 Zn270 2.031 . S
O273 C277 1.269 . S
O274 Zn271 1.986 . S
O274 C281 1.262 . S
O275 Zn270 2.049 . S
O275 C283 1.260 . S
O276 Zn271 1.996 . S
O276 C283 1.257 . S
C277 O272 1.254 . S
C277 O273 1.269 . S
C278 O279 1.249 . S
C278 O280 1.270 . S
O279 Zn271 1.943 . S
O279 C278 1.249 . S
O280 Zn270 2.067 . S
O280 C278 1.270 . S
C281 O274 1.262 . S
C281 O282 1.232 . S
O282 C281 1.232 . S
C283 O275 1.260 . S
C283 O276 1.257 . S
Zn284 O287 2.031 . S
Zn284 O289 2.049 . S
Zn284 O294 2.067 . S
Zn285 O286 1.962 . S
Zn285 O288 1.986 . S
Zn285 O290 1.996 1_455 S
Zn285 O293 1.943 . S
O286 Zn285 1.962 . S
O286 C291 1.254 . S
O287 Zn284 2.031 . S
O287 C291 1.269 1_655 S
O288 Zn285 1.986 . S
O288 C295 1.262 . S
O289 Zn284 2.049 . S
O289 C297 1.260 . S
O290 Zn285 1.996 1_655 S
O290 C297 1.257 . S
C291 O286 1.254 . S
C291 O287 1.269 1_455 S
C292 O293 1.249 1_655 S
C292 O294 1.270 . S
O293 Zn285 1.943 . S
O293 C292 1.249 1_455 S
O294 Zn284 2.067 . S
O294 C292 1.270 . S
C295 O288 1.262 . S
C295 O296 1.232 . S
O296 C295 1.232 . S
C297 O289 1.260 . S
C297 O290 1.257 . S
Zn298 O301 2.031 . S
Zn298 O303 2.049 . S
Zn298 O308 2.067 . S
Zn299 O300 1.962 . S
Zn299 O302 1.986 . S
Zn299 O304 1.996 . S
Zn299 O307 1.943 . S
O300 Zn299 1.962 . S
O300 C305 1.254 . S
O301 Zn298 2.031 . S
O301 C305 1.269 . S
O302 Zn299 1.986 . S
O302 C309 1.262 . S
O303 Zn298 2.049 . S
O303 C311 1.260 . S
O304 Zn299 1.996 . S
O304 C311 1.257 . S
C305 O300 1.254 . S
C305 O301 1.269 . S
C306 O307 1.249 . S
C306 O308 1.270 . S
O307 Zn299 1.943 . S
O307 C306 1.249 . S
O308 Zn298 2.067 . S
O308 C306 1.270 . S
C309 O302 1.262 . S
C309 O310 1.232 . S
O310 C309 1.232 . S
C311 O303 1.260 . S
C311 O304 1.257 . S
C312 C313 1.369 . S
C312 C314 1.419 . S
C312 H316 0.930 . S
C313 C312 1.369 . S
C313 C322 1.429 . S
C314 C312 1.419 . S
C314 C315 1.363 . S
C314 H317 0.929 . S
C315 C314 1.363 . S
C315 C321 1.428 . S
H316 C312 0.930 . S
H317 C314 0.929 . S
S318 N319 1.613 . S
S318 N320 1.610 . S
N319 S318 1.613 . S
N319 C322 1.350 . S
N320 S318 1.610 . S
N320 C321 1.351 . S
C321 C315 1.428 . S
C321 N320 1.351 . S
C321 C322 1.434 . S
C322 C313 1.429 . S
C322 N319 1.350 . S
C322 C321 1.434 . S
C323 C324 1.369 . S
C323 C325 1.419 . S
C323 H327 0.930 1_455 S
C324 C323 1.369 . S
C324 C333 1.429 . S
C325 C323 1.419 . S
C325 C326 1.363 . S
C325 H328 0.929 . S
C326 C325 1.363 . S
C326 C332 1.428 . S
H327 C323 0.930 1_655 S
H328 C325 0.929 . S
S329 N330 1.613 . S
S329 N331 1.610 . S
N330 S329 1.613 . S
N330 C333 1.350 . S
N331 S329 1.610 . S
N331 C332 1.351 . S
C332 C326 1.428 . S
C332 N331 1.351 . S
C332 C333 1.434 . S
C333 C324 1.429 . S
C333 N330 1.350 . S
C333 C332 1.434 . S
C334 C335 1.369 . S
C334 C336 1.419 . S
C334 H338 0.930 . S
C335 C334 1.369 . S
C335 C344 1.429 . S
C336 C334 1.419 . S
C336 C337 1.363 . S
C336 H339 0.929 . S
C337 C336 1.363 . S
C337 C343 1.428 . S
H338 C334 0.930 . S
H339 C336 0.929 . S
S340 N341 1.613 . S
S340 N342 1.610 . S
N341 S340 1.613 . S
N341 C344 1.350 . S
N342 S340 1.610 . S
N342 C343 1.351 . S
C343 C337 1.428 . S
C343 N342 1.351 . S
C343 C344 1.434 . S
C344 C335 1.429 . S
C344 N341 1.350 . S
C344 C343 1.434 . S
C345 C346 1.369 1_655 S
C345 C347 1.419 . S
C345 H349 0.930 . S
C346 C345 1.369 1_455 S
C346 C355 1.429 . S
C347 C345 1.419 . S
C347 C348 1.363 . S
C347 H350 0.929 . S
C348 C347 1.363 . S
C348 C354 1.428 1_565 S
H349 C345 0.930 . S
H350 C347 0.929 . S
S351 N352 1.613 . S
S351 N353 1.610 1_455 S
N352 S351 1.613 . S
N352 C355 1.350 1_545 S
N353 S351 1.610 1_655 S
N353 C354 1.351 . S
C354 C348 1.428 1_545 S
C354 N353 1.351 . S
C354 C355 1.434 1_645 S
C355 C346 1.429 . S
C355 N352 1.350 1_565 S
C355 C354 1.434 1_465 S
C356 C357 1.369 . S
C356 C358 1.419 . S
C356 H360 0.930 . S
C357 C356 1.369 . S
C357 C366 1.429 . S
C358 C356 1.419 . S
C358 C359 1.363 . S
C358 H361 0.929 . S
C359 C358 1.363 . S
C359 C365 1.428 . S
H360 C356 0.930 . S
H361 C358 0.929 . S
S362 N363 1.613 . S
S362 N364 1.610 . S
N363 S362 1.613 . S
N363 C366 1.350 . S
N364 S362 1.610 . S
N364 C365 1.351 . S
C365 C359 1.428 . S
C365 N364 1.351 . S
C365 C366 1.434 . S
C366 C357 1.429 . S
C366 N363 1.350 . S
C366 C365 1.434 . S
C367 C368 1.369 . S
C367 C369 1.419 . S
C367 H371 0.930 . S
C368 C367 1.369 . S
C368 C377 1.429 . S
C369 C367 1.419 . S
C369 C370 1.363 . S
C369 H372 0.929 . S
C370 C369 1.363 . S
C370 C376 1.428 . S
H371 C367 0.930 . S
H372 C369 0.929 . S
S373 N374 1.613 . S
S373 N375 1.610 . S
N374 S373 1.613 . S
N374 C377 1.350 . S
N375 S373 1.610 . S
N375 C376 1.351 . S
C376 C370 1.428 . S
C376 N375 1.351 . S
C376 C377 1.434 . S
C377 C368 1.429 . S
C377 N374 1.350 . S
C377 C376 1.434 . S
C378 C379 1.369 . S
C378 C380 1.419 . S
C378 H382 0.930 . S
C379 C378 1.369 . S
C379 C388 1.429 . S
C380 C378 1.419 . S
C380 C381 1.363 . S
C380 H383 0.929 . S
C381 C380 1.363 . S
C381 C387 1.428 . S
H382 C378 0.930 . S
H383 C380 0.929 . S
S384 N385 1.613 . S
S384 N386 1.610 . S
N385 S384 1.613 . S
N385 C388 1.350 . S
N386 S384 1.610 . S
N386 C387 1.351 . S
C387 C381 1.428 . S
C387 N386 1.351 . S
C387 C388 1.434 . S
C388 C379 1.429 . S
C388 N385 1.350 . S
C388 C387 1.434 . S
C389 C390 1.369 . S
C389 C391 1.419 . S
C389 H393 0.930 . S
C390 C389 1.369 . S
C390 C399 1.437 . S
C391 C389 1.419 . S
C391 C392 1.363 . S
C391 H394 0.929 . S
C392 C391 1.363 . S
C392 C398 1.428 1_565 S
H393 C389 0.930 . S
H394 C391 0.929 . S
S395 N396 1.613 . S
S395 N397 1.610 . S
N396 S395 1.613 . S
N396 C399 1.342 1_545 S
N397 S395 1.610 . S
N397 C398 1.351 . S
C398 C392 1.428 1_545 S
C398 N397 1.351 . S
C398 C399 1.433 1_545 S
C399 C390 1.437 . S
C399 N396 1.342 1_565 S
C399 C398 1.433 1_565 S
C400 C401 1.369 . S
C400 C402 1.419 . S
C400 H404 0.930 . S
C401 C400 1.369 . S
C401 C410 1.429 . S
C402 C400 1.419 . S
C402 C403 1.363 . S
C402 H405 0.929 . S
C403 C402 1.363 . S
C403 C409 1.428 . S
H404 C400 0.930 . S
H405 C402 0.929 . S
S406 N407 1.613 . S
S406 N408 1.610 . S
N407 S406 1.613 . S
N407 C410 1.350 . S
N408 S406 1.610 . S
N408 C409 1.351 . S
C409 C403 1.428 . S
C409 N408 1.351 . S
C409 C410 1.434 . S
C410 C401 1.429 . S
C410 N407 1.350 . S
C410 C409 1.434 . S
C411 C412 1.369 . S
C411 C413 1.419 . S
C411 H415 0.930 . S
C412 C411 1.369 . S
C412 C421 1.429 . S
C413 C411 1.419 . S
C413 C414 1.363 . S
C413 H416 0.929 . S
C414 C413 1.363 . S
C414 C420 1.428 . S
H415 C411 0.930 . S
H416 C413 0.929 . S
S417 N418 1.613 . S
S417 N419 1.610 . S
N418 S417 1.613 . S
N418 C421 1.350 . S
N419 S417 1.610 . S
N419 C420 1.351 . S
C420 C414 1.428 . S
C420 N419 1.351 . S
C420 C421 1.434 . S
C421 C412 1.429 . S
C421 N418 1.350 . S
C421 C420 1.434 . S
C422 C423 1.369 . S
C422 C424 1.419 . S
C422 H426 0.930 . S
C423 C422 1.369 . S
C423 C432 1.429 . S
C424 C422 1.419 . S
C424 C425 1.363 . S
C424 H427 0.929 . S
C425 C424 1.363 . S
C425 C431 1.428 . S
H426 C422 0.930 . S
H427 C424 0.929 . S
S428 N429 1.613 . S
S428 N430 1.610 . S
N429 S428 1.613 . S
N429 C432 1.350 . S
N430 S428 1.610 . S
N430 C431 1.351 . S
C431 C425 1.428 . S
C431 N430 1.351 . S
C431 C432 1.434 . S
C432 C423 1.429 . S
C432 N429 1.350 . S
C432 C431 1.434 . S
C433 C434 1.369 . S
C433 C435 1.419 . S
C433 H437 0.930 . S
C434 C433 1.369 . S
C434 C443 1.429 . S
C435 C433 1.419 . S
C435 C436 1.363 . S
C435 H438 0.929 . S
C436 C435 1.363 . S
C436 C442 1.428 . S
H437 C433 0.930 . S
H438 C435 0.929 . S
S439 N440 1.613 . S
S439 N441 1.610 . S
N440 S439 1.613 . S
N440 C443 1.350 . S
N441 S439 1.610 . S
N441 C442 1.351 . S
C442 C436 1.428 . S
C442 N441 1.351 . S
C442 C443 1.434 . S
C443 C434 1.429 . S
C443 N440 1.350 . S
C443 C442 1.434 . S
C444 C445 1.369 . S
C444 C446 1.419 . S
C444 H448 0.930 . S
C445 C444 1.369 . S
C445 C454 1.429 . S
C446 C444 1.419 . S
C446 C447 1.363 . S
C446 H449 0.929 . S
C447 C446 1.363 . S
C447 C453 1.428 . S
H448 C444 0.930 . S
H449 C446 0.929 . S
S450 N451 1.613 . S
S450 N452 1.610 . S
N451 S450 1.613 . S
N451 C454 1.350 . S
N452 S450 1.610 . S
N452 C453 1.351 . S
C453 C447 1.428 . S
C453 N452 1.351 . S
C453 C454 1.434 . S
C454 C445 1.429 . S
C454 N451 1.350 . S
C454 C453 1.434 . S
C455 C456 1.369 . S
C455 C457 1.419 . S
C455 H459 0.930 1_455 S
C456 C455 1.369 . S
C456 C465 1.429 . S
C457 C455 1.419 . S
C457 C458 1.363 . S
C457 H460 0.929 1_455 S
C458 C457 1.363 . S
C458 C464 1.428 . S
H459 C455 0.930 1_655 S
H460 C457 0.929 1_655 S
S461 N462 1.613 . S
S461 N463 1.610 . S
N462 S461 1.613 . S
N462 C465 1.350 . S
N463 S461 1.610 . S
N463 C464 1.351 . S
C464 C458 1.428 . S
C464 N463 1.351 . S
C464 C465 1.434 . S
C465 C456 1.429 . S
C465 N462 1.350 . S
C465 C464 1.434 . S
C466 C467 1.369 . S
C466 C468 1.419 . S
C466 H470 0.930 . S
C467 C466 1.369 . S
C467 C476 1.429 . S
C468 C466 1.419 . S
C468 C469 1.363 . S
C468 H471 0.929 . S
C469 C468 1.363 . S
C469 C475 1.428 . S
H470 C466 0.930 . S
H471 C468 0.929 . S
S472 N473 1.613 . S
S472 N474 1.610 . S
N473 S472 1.613 . S
N473 C476 1.350 . S
N474 S472 1.610 . S
N474 C475 1.351 . S
C475 C469 1.428 . S
C475 N474 1.351 . S
C475 C476 1.434 . S
C476 C467 1.429 . S
C476 N473 1.350 . S
C476 C475 1.434 . S
C477 C478 1.369 . S
C477 C479 1.419 . S
C477 H481 0.930 . S
C478 C477 1.369 . S
C478 C487 1.429 1_655 S
C479 C477 1.419 . S
C479 C480 1.363 . S
C479 H482 0.929 . S
C480 C479 1.363 . S
C480 C486 1.428 1_655 S
H481 C477 0.930 . S
H482 C479 0.929 . S
S483 N484 1.613 . S
S483 N485 1.610 . S
N484 S483 1.613 . S
N484 C487 1.350 . S
N485 S483 1.610 . S
N485 C486 1.351 . S
C486 C480 1.428 1_455 S
C486 N485 1.351 . S
C486 C487 1.434 . S
C487 C478 1.429 1_455 S
C487 N484 1.350 . S
C487 C486 1.434 . S
C488 C489 1.369 . S
C488 C490 1.419 . S
C488 H492 0.930 . S
C489 C488 1.369 . S
C489 C498 1.429 . S
C490 C488 1.419 . S
C490 C491 1.363 . S
C490 H493 0.929 . S
C491 C490 1.363 . S
C491 C497 1.428 . S
H492 C488 0.930 . S
H493 C490 0.929 . S
S494 N495 1.613 . S
S494 N496 1.610 . S
N495 S494 1.613 . S
N495 C498 1.350 . S
N496 S494 1.610 . S
N496 C497 1.351 . S
C497 C491 1.428 . S
C497 N496 1.351 . S
C497 C498 1.434 . S
C498 C489 1.429 . S
C498 N495 1.350 . S
C498 C497 1.434 . S
C499 C500 1.369 . S
C499 C501 1.419 . S
C499 H503 0.930 . S
C500 C499 1.369 . S
C500 C509 1.429 . S
C501 C499 1.419 . S
C501 C502 1.363 . S
C501 H504 0.929 . S
C502 C501 1.363 . S
C502 C508 1.428 . S
H503 C499 0.930 . S
H504 C501 0.929 . S
S505 N506 1.613 . S
S505 N507 1.610 . S
N506 S505 1.613 . S
N506 C509 1.350 . S
N507 S505 1.610 . S
N507 C508 1.351 . S
C508 C502 1.428 . S
C508 N507 1.351 . S
C508 C509 1.434 . S
C509 C500 1.429 . S
C509 N506 1.350 . S
C509 C508 1.434 . S
C510 C511 1.369 . S
C510 C512 1.419 1_545 S
C510 H514 0.930 . S
C511 C510 1.369 . S
C511 C520 1.429 1_545 S
C512 C510 1.419 1_565 S
C512 C513 1.363 . S
C512 H515 0.929 . S
C513 C512 1.363 . S
C513 C519 1.428 . S
H514 C510 0.930 . S
H515 C512 0.929 . S
S516 N517 1.613 . S
S516 N518 1.610 . S
N517 S516 1.613 . S
N517 C520 1.350 . S
N518 S516 1.610 . S
N518 C519 1.351 . S
C519 C513 1.428 . S
C519 N518 1.351 . S
C519 C520 1.434 . S
C520 C511 1.429 1_565 S
C520 N517 1.350 . S
C520 C519 1.434 . S
C521 C522 1.369 . S
C521 C523 1.419 . S
C521 H525 0.930 . S
C522 C521 1.369 . S
C522 C531 1.429 . S
C523 C521 1.419 . S
C523 C524 1.363 . S
C523 H526 0.929 . S
C524 C523 1.363 . S
C524 C530 1.428 . S
H525 C521 0.930 . S
H526 C523 0.929 . S
S527 N528 1.613 . S
S527 N529 1.610 . S
N528 S527 1.613 . S
N528 C531 1.350 . S
N529 S527 1.610 . S
N529 C530 1.351 . S
C530 C524 1.428 . S
C530 N529 1.351 . S
C530 C531 1.434 . S
C531 C522 1.429 . S
C531 N528 1.350 . S
C531 C530 1.434 . S
C532 C533 1.369 . S
C532 C534 1.419 . S
C532 H536 0.930 1_545 S
C533 C532 1.369 . S
C533 C542 1.429 . S
C534 C532 1.419 . S
C534 C535 1.363 . S
C534 H537 0.929 . S
C535 C534 1.363 . S
C535 C541 1.428 . S
H536 C532 0.930 1_565 S
H537 C534 0.929 . S
S538 N539 1.613 . S
S538 N540 1.610 . S
N539 S538 1.613 . S
N539 C542 1.350 . S
N540 S538 1.610 . S
N540 C541 1.351 . S
C541 C535 1.428 . S
C541 N540 1.351 . S
C541 C542 1.434 . S
C542 C533 1.429 . S
C542 N539 1.350 . S
C542 C541 1.434 . S
C543 C544 1.369 . S
C543 C545 1.419 . S
C543 H547 0.930 . S
C544 C543 1.369 . S
C544 C553 1.429 . S
C545 C543 1.419 . S
C545 C546 1.363 . S
C545 H548 0.929 . S
C546 C545 1.363 . S
C546 C552 1.428 . S
H547 C543 0.930 . S
H548 C545 0.929 . S
S549 N550 1.613 . S
S549 N551 1.610 . S
N550 S549 1.613 . S
N550 C553 1.350 . S
N551 S549 1.610 . S
N551 C552 1.351 . S
C552 C546 1.428 . S
C552 N551 1.351 . S
C552 C553 1.434 . S
C553 C544 1.429 . S
C553 N550 1.350 . S
C553 C552 1.434 . S
C554 C555 1.369 . S
C554 C556 1.419 . S
C554 H558 0.930 . S
C555 C554 1.369 . S
C555 C564 1.429 . S
C556 C554 1.419 . S
C556 C557 1.363 . S
C556 H559 0.929 . S
C557 C556 1.363 . S
C557 C563 1.428 . S
H558 C554 0.930 . S
H559 C556 0.929 . S
S560 N561 1.613 . S
S560 N562 1.610 . S
N561 S560 1.613 . S
N561 C564 1.350 . S
N562 S560 1.610 . S
N562 C563 1.351 . S
C563 C557 1.428 . S
C563 N562 1.351 . S
C563 C564 1.434 . S
C564 C555 1.429 . S
C564 N561 1.350 . S
C564 C563 1.434 . S
C565 C566 1.369 . S
C565 C567 1.419 . S
C565 H569 0.930 . S
C566 C565 1.369 . S
C566 C575 1.429 . S
C567 C565 1.419 . S
C567 C568 1.363 . S
C567 H570 0.929 . S
C568 C567 1.363 . S
C568 C574 1.428 . S
H569 C565 0.930 . S
H570 C567 0.929 . S
S571 N572 1.613 . S
S571 N573 1.610 . S
N572 S571 1.613 . S
N572 C575 1.350 . S
N573 S571 1.610 . S
N573 C574 1.351 . S
C574 C568 1.428 . S
C574 N573 1.351 . S
C574 C575 1.434 . S
C575 C566 1.429 . S
C575 N572 1.350 . S
C575 C574 1.434 . S
C576 C577 1.369 . S
C576 C578 1.419 . S
C576 H580 0.930 . S
C577 C576 1.369 . S
C577 C586 1.429 . S
C578 C576 1.419 . S
C578 C579 1.363 . S
C578 H581 0.929 . S
C579 C578 1.363 . S
C579 C585 1.428 . S
H580 C576 0.930 . S
H581 C578 0.929 . S
S582 N583 1.613 . S
S582 N584 1.610 . S
N583 S582 1.613 . S
N583 C586 1.350 . S
N584 S582 1.610 . S
N584 C585 1.351 . S
C585 C579 1.428 . S
C585 N584 1.351 . S
C585 C586 1.434 . S
C586 C577 1.429 . S
C586 N583 1.350 . S
C586 C585 1.434 . S
C587 C588 1.369 . S
C587 C589 1.419 . S
C587 H591 0.930 . S
C588 C587 1.369 . S
C588 C597 1.429 . S
C589 C587 1.419 . S
C589 C590 1.363 . S
C589 H592 0.929 . S
C590 C589 1.363 . S
C590 C596 1.428 . S
H591 C587 0.930 . S
H592 C589 0.929 . S
S593 N594 1.613 . S
S593 N595 1.610 . S
N594 S593 1.613 . S
N594 C597 1.350 1_565 S
N595 S593 1.610 . S
N595 C596 1.351 1_565 S
C596 C590 1.428 . S
C596 N595 1.351 1_545 S
C596 C597 1.434 . S
C597 C588 1.429 . S
C597 N594 1.350 1_545 S
C597 C596 1.434 . S
C598 C599 1.369 . S
C598 C600 1.419 . S
C598 H602 0.930 . S
C599 C598 1.369 . S
C599 C608 1.429 . S
C600 C598 1.419 . S
C600 C601 1.363 . S
C600 H603 0.929 . S
C601 C600 1.363 . S
C601 C607 1.428 . S
H602 C598 0.930 . S
H603 C600 0.929 . S
S604 N605 1.613 . S
S604 N606 1.610 . S
N605 S604 1.613 . S
N605 C608 1.350 . S
N606 S604 1.610 . S
N606 C607 1.351 . S
C607 C601 1.428 . S
C607 N606 1.351 . S
C607 C608 1.434 . S
C608 C599 1.429 . S
C608 N605 1.350 . S
C608 C607 1.434 . S
C609 C610 1.369 . S
C609 C611 1.419 . S
C609 H613 0.930 . S
C610 C609 1.369 . S
C610 C619 1.429 . S
C611 C609 1.419 . S
C611 C612 1.363 . S
C611 H614 0.929 . S
C612 C611 1.363 . S
C612 C618 1.428 . S
H613 C609 0.930 . S
H614 C611 0.929 . S
S615 N616 1.613 . S
S615 N617 1.610 . S
N616 S615 1.613 . S
N616 C619 1.350 . S
N617 S615 1.610 . S
N617 C618 1.351 . S
C618 C612 1.428 . S
C618 N617 1.351 . S
C618 C619 1.434 . S
C619 C610 1.429 . S
C619 N616 1.350 . S
C619 C618 1.434 . S
C620 C621 1.369 . S
C620 C622 1.419 . S
C620 H624 0.930 . S
C621 C620 1.369 . S
C621 C630 1.429 . S
C622 C620 1.419 . S
C622 C623 1.363 . S
C622 H625 0.929 . S
C623 C622 1.363 . S
C623 C629 1.428 . S
H624 C620 0.930 . S
H625 C622 0.929 . S
S626 N627 1.613 . S
S626 N628 1.610 . S
N627 S626 1.613 . S
N627 C630 1.350 . S
N628 S626 1.610 . S
N628 C629 1.351 . S
C629 C623 1.428 . S
C629 N628 1.351 . S
C629 C630 1.434 . S
C630 C621 1.429 . S
C630 N627 1.350 . S
C630 C629 1.434 . S
C631 C632 1.369 . S
C631 C633 1.419 . S
C631 H635 0.930 . S
C632 C631 1.369 . S
C632 C641 1.429 1_655 S
C633 C631 1.419 . S
C633 C634 1.363 . S
C633 H636 0.929 . S
C634 C633 1.363 . S
C634 C640 1.428 . S
H635 C631 0.930 . S
H636 C633 0.929 . S
S637 N638 1.613 . S
S637 N639 1.610 . S
N638 S637 1.613 . S
N638 C641 1.350 1_565 S
N639 S637 1.610 . S
N639 C640 1.351 1_465 S
C640 C634 1.428 . S
C640 N639 1.351 1_645 S
C640 C641 1.434 1_655 S
C641 C632 1.429 1_455 S
C641 N638 1.350 1_545 S
C641 C640 1.434 1_455 S
C642 C643 1.369 . S
C642 C644 1.419 . S
C642 H646 0.930 . S
C643 C642 1.369 . S
C643 C652 1.429 . S
C644 C642 1.419 . S
C644 C645 1.363 . S
C644 H647 0.929 . S
C645 C644 1.363 . S
C645 C651 1.428 . S
H646 C642 0.930 . S
H647 C644 0.929 . S
S648 N649 1.613 . S
S648 N650 1.610 . S
N649 S648 1.613 . S
N649 C652 1.350 . S
N650 S648 1.610 . S
N650 C651 1.351 . S
C651 C645 1.428 . S
C651 N650 1.351 . S
C651 C652 1.434 . S
C652 C643 1.429 . S
C652 N649 1.350 . S
C652 C651 1.434 . S
C653 C654 1.369 1_655 S
C653 C655 1.419 1_655 S
C653 H657 0.930 . S
C654 C653 1.369 1_455 S
C654 C663 1.429 . S
C655 C653 1.419 1_455 S
C655 C656 1.363 . S
C655 H658 0.929 . S
C656 C655 1.363 . S
C656 C662 1.428 . S
H657 C653 0.930 . S
H658 C655 0.929 . S
S659 N660 1.613 . S
S659 N661 1.610 . S
N660 S659 1.613 . S
N660 C663 1.350 . S
N661 S659 1.610 . S
N661 C662 1.351 . S
C662 C656 1.428 . S
C662 N661 1.351 . S
C662 C663 1.434 . S
C663 C654 1.429 . S
C663 N660 1.350 . S
C663 C662 1.434 . S
C664 C665 1.369 . S
C664 C666 1.419 . S
C664 H668 0.930 . S
C665 C664 1.369 . S
C665 C674 1.429 . S
C666 C664 1.419 . S
C666 C667 1.363 . S
C666 H669 0.929 . S
C667 C666 1.363 . S
C667 C673 1.428 . S
H668 C664 0.930 . S
H669 C666 0.929 . S
S670 N671 1.613 . S
S670 N672 1.610 . S
N671 S670 1.613 . S
N671 C674 1.350 . S
N672 S670 1.610 . S
N672 C673 1.351 . S
C673 C667 1.428 . S
C673 N672 1.351 . S
C673 C674 1.434 . S
C674 C665 1.429 . S
C674 N671 1.350 . S
C674 C673 1.434 . S
C675 C676 1.369 . S
C675 C677 1.419 1_554 S
C675 H679 0.930 . S
C676 C675 1.369 . S
C676 C685 1.429 1_554 S
C677 C675 1.419 1_556 S
C677 C678 1.363 . S
C677 H680 0.929 . S
C678 C677 1.363 . S
C678 C684 1.428 . S
H679 C675 0.930 . S
H680 C677 0.929 . S
S681 N682 1.606 1_455 S
S681 N683 1.611 1_455 S
N682 S681 1.606 1_655 S
N682 C685 1.350 . S
N683 S681 1.611 1_655 S
N683 C684 1.358 . S
C684 C678 1.428 . S
C684 N683 1.358 . S
C684 C685 1.434 . S
C685 C676 1.429 1_556 S
C685 N682 1.350 . S
C685 C684 1.434 . S
C686 C687 1.369 . S
C686 C688 1.419 . S
C686 H690 0.930 . S
C687 C686 1.369 . S
C687 C696 1.429 . S
C688 C686 1.419 . S
C688 C689 1.363 . S
C688 H691 0.929 . S
C689 C688 1.363 . S
C689 C695 1.428 . S
H690 C686 0.930 . S
H691 C688 0.929 . S
S692 N693 1.613 . S
S692 N694 1.610 . S
N693 S692 1.613 . S
N693 C696 1.350 . S
N694 S692 1.610 . S
N694 C695 1.351 . S
C695 C689 1.428 . S
C695 N694 1.351 . S
C695 C696 1.434 . S
C696 C687 1.429 . S
C696 N693 1.350 . S
C696 C695 1.434 . S
C697 C698 1.369 1_655 S
C697 C699 1.419 . S
C697 H701 0.930 . S
C698 C697 1.369 1_455 S
C698 C707 1.429 . S
C699 C697 1.419 . S
C699 C700 1.363 1_655 S
C699 H702 0.929 . S
C700 C699 1.363 1_455 S
C700 C706 1.428 . S
H701 C697 0.930 . S
H702 C699 0.929 . S
S703 N704 1.613 . S
S703 N705 1.610 . S
N704 S703 1.613 . S
N704 C707 1.350 . S
N705 S703 1.610 . S
N705 C706 1.351 . S
C706 C700 1.428 . S
C706 N705 1.351 . S
C706 C707 1.434 . S
C707 C698 1.429 . S
C707 N704 1.350 . S
C707 C706 1.434 . S
C708 C709 1.369 . S
C708 C710 1.419 . S
C708 H712 0.930 . S
C709 C708 1.369 . S
C709 C718 1.429 . S
C710 C708 1.419 . S
C710 C711 1.363 . S
C710 H713 0.929 . S
C711 C710 1.363 . S
C711 C717 1.428 . S
H712 C708 0.930 . S
H713 C710 0.929 . S
S714 N715 1.613 . S
S714 N716 1.610 . S
N715 S714 1.613 . S
N715 C718 1.350 . S
N716 S714 1.610 . S
N716 C717 1.351 . S
C717 C711 1.428 . S
C717 N716 1.351 . S
C717 C718 1.434 . S
C718 C709 1.429 . S
C718 N715 1.350 . S
C718 C717 1.434 . S
C719 C720 1.369 . S
C719 C721 1.419 . S
C719 H723 0.930 1_554 S
C720 C719 1.369 . S
C720 C729 1.429 . S
C721 C719 1.419 . S
C721 C722 1.363 . S
C721 H724 0.929 . S
C722 C721 1.363 . S
C722 C728 1.428 . S
H723 C719 0.930 1_556 S
H724 C721 0.929 . S
S725 N726 1.613 . S
S725 N727 1.610 . S
N726 S725 1.613 . S
N726 C729 1.350 . S
N727 S725 1.610 . S
N727 C728 1.351 . S
C728 C722 1.428 . S
C728 N727 1.351 . S
C728 C729 1.434 . S
C729 C720 1.429 . S
C729 N726 1.350 . S
C729 C728 1.434 . S
C730 C731 1.369 . S
C730 C732 1.419 . S
C730 H734 0.930 . S
C731 C730 1.369 . S
C731 C740 1.429 . S
C732 C730 1.419 . S
C732 C733 1.363 . S
C732 H735 0.929 . S
C733 C732 1.363 . S
C733 C739 1.428 . S
H734 C730 0.930 . S
H735 C732 0.929 . S
S736 N737 1.613 . S
S736 N738 1.610 . S
N737 S736 1.613 . S
N737 C740 1.350 . S
N738 S736 1.610 . S
N738 C739 1.351 . S
C739 C733 1.428 . S
C739 N738 1.351 . S
C739 C740 1.434 . S
C740 C731 1.429 . S
C740 N737 1.350 . S
C740 C739 1.434 . S
C741 C742 1.369 . S
C741 C743 1.419 . S
C741 H745 0.930 1_554 S
C742 C741 1.369 . S
C742 C751 1.429 . S
C743 C741 1.419 . S
C743 C744 1.363 . S
C743 H746 0.929 . S
C744 C743 1.363 . S
C744 C750 1.428 . S
H745 C741 0.930 1_556 S
H746 C743 0.929 . S
S747 N748 1.613 . S
S747 N749 1.610 . S
N748 S747 1.613 . S
N748 C751 1.350 . S
N749 S747 1.610 . S
N749 C750 1.351 . S
C750 C744 1.428 . S
C750 N749 1.351 . S
C750 C751 1.434 . S
C751 C742 1.429 . S
C751 N748 1.350 . S
C751 C750 1.434 . S
C752 C753 1.369 . S
C752 C754 1.419 . S
C752 H756 0.930 . S
C753 C752 1.369 . S
C753 C762 1.429 . S
C754 C752 1.419 . S
C754 C755 1.363 . S
C754 H757 0.929 . S
C755 C754 1.363 . S
C755 C761 1.428 . S
H756 C752 0.930 . S
H757 C754 0.929 . S
S758 N759 1.613 . S
S758 N760 1.610 . S
N759 S758 1.613 . S
N759 C762 1.350 . S
N760 S758 1.610 . S
N760 C761 1.351 . S
C761 C755 1.428 . S
C761 N760 1.351 . S
C761 C762 1.434 . S
C762 C753 1.429 . S
C762 N759 1.350 . S
C762 C761 1.434 . S
C763 C764 1.369 . S
C763 C765 1.419 . S
C763 H767 0.930 . S
C764 C763 1.369 . S
C764 C773 1.429 . S
C765 C763 1.419 . S
C765 C766 1.363 . S
C765 H768 0.929 . S
C766 C765 1.363 . S
C766 C772 1.428 . S
H767 C763 0.930 . S
H768 C765 0.929 . S
S769 N770 1.613 . S
S769 N771 1.610 . S
N770 S769 1.613 . S
N770 C773 1.350 . S
N771 S769 1.610 . S
N771 C772 1.351 . S
C772 C766 1.428 . S
C772 N771 1.351 . S
C772 C773 1.434 . S
C773 C764 1.429 . S
C773 N770 1.350 . S
C773 C772 1.434 . S
C774 C775 1.369 . S
C774 C776 1.419 . S
C774 H778 0.930 . S
C775 C774 1.369 . S
C775 C784 1.429 . S
C776 C774 1.419 . S
C776 C777 1.363 . S
C776 H779 0.929 . S
C777 C776 1.363 . S
C777 C783 1.428 . S
H778 C774 0.930 . S
H779 C776 0.929 . S
S780 N781 1.613 . S
S780 N782 1.610 . S
N781 S780 1.613 . S
N781 C784 1.350 . S
N782 S780 1.610 . S
N782 C783 1.351 . S
C783 C777 1.428 . S
C783 N782 1.351 . S
C783 C784 1.434 . S
C784 C775 1.429 . S
C784 N781 1.350 . S
C784 C783 1.434 . S
C785 C786 1.369 . S
C785 C787 1.419 . S
C785 H789 0.930 . S
C786 C785 1.369 . S
C786 C795 1.429 . S
C787 C785 1.419 . S
C787 C788 1.363 . S
C787 H790 0.929 . S
C788 C787 1.363 . S
C788 C794 1.428 . S
H789 C785 0.930 . S
H790 C787 0.929 . S
S791 N792 1.613 . S
S791 N793 1.610 . S
N792 S791 1.613 . S
N792 C795 1.350 . S
N793 S791 1.610 . S
N793 C794 1.351 . S
C794 C788 1.428 . S
C794 N793 1.351 . S
C794 C795 1.434 . S
C795 C786 1.429 . S
C795 N792 1.350 . S
C795 C794 1.434 . S
C796 C797 1.358 1_554 S
C796 C798 1.421 . S
C796 H800 0.939 . S
C797 C796 1.358 1_556 S
C797 C806 1.429 . S
C798 C796 1.421 . S
C798 C799 1.363 1_554 S
C798 H801 0.929 . S
C799 C798 1.363 1_556 S
C799 C805 1.428 . S
H800 C796 0.939 . S
H801 C798 0.929 . S
S802 N803 1.613 . S
S802 N804 1.610 . S
N803 S802 1.613 . S
N803 C806 1.350 . S
N804 S802 1.610 . S
N804 C805 1.351 . S
C805 C799 1.428 . S
C805 N804 1.351 . S
C805 C806 1.434 . S
C806 C797 1.429 . S
C806 N803 1.350 . S
C806 C805 1.434 . S
C807 C808 1.369 . S
C807 C809 1.419 . S
C807 H811 0.930 . S
C808 C807 1.369 . S
C808 C817 1.429 . S
C809 C807 1.419 . S
C809 C810 1.363 . S
C809 H812 0.929 . S
C810 C809 1.363 . S
C810 C816 1.428 . S
H811 C807 0.930 . S
H812 C809 0.929 . S
S813 N814 1.613 . S
S813 N815 1.610 . S
N814 S813 1.613 . S
N814 C817 1.350 . S
N815 S813 1.610 . S
N815 C816 1.351 . S
C816 C810 1.428 . S
C816 N815 1.351 . S
C816 C817 1.434 . S
C817 C808 1.429 . S
C817 N814 1.350 . S
C817 C816 1.434 . S
C818 C819 1.369 . S
C818 C820 1.419 . S
C818 H822 0.930 . S
C819 C818 1.369 . S
C819 C828 1.429 . S
C820 C818 1.419 . S
C820 C821 1.363 . S
C820 H823 0.929 . S
C821 C820 1.363 . S
C821 C827 1.428 . S
H822 C818 0.930 . S
H823 C820 0.929 . S
S824 N825 1.613 . S
S824 N826 1.610 . S
N825 S824 1.613 . S
N825 C828 1.350 . S
N826 S824 1.610 . S
N826 C827 1.351 . S
C827 C821 1.428 . S
C827 N826 1.351 . S
C827 C828 1.434 . S
C828 C819 1.429 . S
C828 N825 1.350 . S
C828 C827 1.434 . S
C829 C830 1.369 1_545 S
C829 C831 1.419 1_545 S
C829 H833 0.930 . S
C830 C829 1.369 1_565 S
C830 C839 1.429 . S
C831 C829 1.419 1_565 S
C831 C832 1.363 . S
C831 H834 0.929 . S
C832 C831 1.363 . S
C832 C838 1.428 . S
H833 C829 0.930 . S
H834 C831 0.929 . S
S835 N836 1.613 . S
S835 N837 1.610 . S
N836 S835 1.613 . S
N836 C839 1.350 . S
N837 S835 1.610 . S
N837 C838 1.351 . S
C838 C832 1.428 . S
C838 N837 1.351 . S
C838 C839 1.434 . S
C839 C830 1.429 . S
C839 N836 1.350 . S
C839 C838 1.434 . S
C315 C152 1.487 . S
C313 C50 1.514 . S
C326 C165 1.483 . S
C324 C61 1.489 1_455 S
C335 C67 1.595 . S
C337 C185 1.494 . S
C348 C199 1.389 . S
C346 C41 1.459 . S
C359 C211 1.499 . S
C357 C95 1.503 . S
C370 C225 1.459 . S
C368 C113 1.460 . S
C379 C106 1.482 . S
C381 C235 1.473 . S
C392 C250 1.512 . S
C390 C86 1.539 . S
C401 C104 1.506 . S
C403 C264 1.480 . S
C414 C283 1.399 . S
C412 C88 1.465 . S
C423 C94 1.501 . S
C425 C263 1.492 . S
C436 C281 1.451 . S
C434 C112 1.451 . S
C445 C70 1.588 . S
C447 C297 1.483 . S
C456 C40 1.497 . S
C458 C291 1.491 . S
C467 C49 1.508 . S
C469 C295 1.503 . S
C478 C59 1.539 . S
C480 C292 1.510 . S
C489 C34 1.505 . S
C491 C194 1.482 . S
C500 C133 1.488 . S
C502 C193 1.478 . S
C513 C157 1.391 . S
C511 C139 1.464 . S
C524 C171 1.487 . S
C522 C77 1.597 . S
C533 C43 1.526 1_545 S
C535 C208 1.492 . S
C546 C253 1.500 . S
C544 C103 1.505 . S
C557 C207 1.498 . S
C555 C85 1.504 1_545 S
C568 C239 1.446 . S
C566 C115 1.446 . S
C579 C236 1.489 . S
C577 C131 1.514 . S
C588 C142 1.488 . S
C590 C249 1.481 . S
C599 C76 1.596 . S
C601 C213 1.493 . S
C612 C227 1.391 . S
C610 C122 1.459 . S
C621 C32 1.502 . S
C623 C183 1.498 . S
C634 C197 1.459 . S
C632 C5 1.459 1_655 S
C645 C151 1.472 . S
C643 C16 1.482 . S
C656 C166 1.507 . S
C654 C23 1.538 1_455 S
C665 C14 1.506 . S
C667 C278 1.482 . S
C676 C25 1.464 . S
C678 C269 1.391 . S
C687 C31 1.501 . S
C689 C277 1.493 . S
C698 C4 1.450 1_556 S
C700 C267 1.449 . S
C711 C311 1.486 . S
C709 C79 1.587 . S
C722 C305 1.491 . S
C720 C121 1.497 1_554 S
C733 C309 1.502 . S
C731 C130 1.507 . S
C742 C140 1.539 1_554 S
C744 C306 1.510 . S
C753 C97 1.505 . S
C755 C222 1.482 . S
C766 C221 1.476 . S
C764 C52 1.488 . S
C777 C241 1.390 . S
C775 C58 1.464 . S
C788 C255 1.488 . S
C786 C68 1.596 . S
C797 C124 1.525 . S
C799 C180 1.492 . S
C810 C169 1.501 . S
C808 C13 1.505 . S
C819 C22 1.504 . S
C821 C179 1.499 . S
C832 C155 1.445 . S
C830 C7 1.447 1_565 S
