# Generated by pormake.
# Topology hwx, (6,3)-cn, num edge types: 1
# Building blocks:
#     Node 0, Type 0, BuildingBlock: OJICUG_clean_sbu_0, # of connection points: 6
#     Node 1, Type 0, BuildingBlock: OJICUG_clean_sbu_0, # of connection points: 6
#     Node 2, Type 0, BuildingBlock: OJICUG_clean_sbu_0, # of connection points: 6
#     Node 3, Type 0, BuildingBlock: OJICUG_clean_sbu_0, # of connection points: 6
#     Node 4, Type 1, BuildingBlock: QEWDON_clean_linker_0, # of connection points: 3
#     Node 5, Type 1, BuildingBlock: QEWDON_clean_linker_0, # of connection points: 3
#     Node 6, Type 1, BuildingBlock: QEWDON_clean_linker_0, # of connection points: 3
#     Node 7, Type 1, BuildingBlock: QEWDON_clean_linker_0, # of connection points: 3
#     Node 8, Type 1, BuildingBlock: QEWDON_clean_linker_0, # of connection points: 3
#     Node 9, Type 1, BuildingBlock: QEWDON_clean_linker_0, # of connection points: 3
#     Node 10, Type 1, BuildingBlock: QEWDON_clean_linker_0, # of connection points: 3
#     Node 11, Type 1, BuildingBlock: QEWDON_clean_linker_0, # of connection points: 3
#     Edge 12, Type (0, 1), BuildingBlock: EZIPEK_clean_linker_0, # of connection points: 2
#     Edge 13, Type (0, 1), BuildingBlock: EZIPEK_clean_linker_0, # of connection points: 2
#     Edge 14, Type (0, 1), BuildingBlock: EZIPEK_clean_linker_0, # of connection points: 2
#     Edge 15, Type (0, 1), BuildingBlock: EZIPEK_clean_linker_0, # of connection points: 2
#     Edge 16, Type (0, 1), BuildingBlock: EZIPEK_clean_linker_0, # of connection points: 2
#     Edge 17, Type (0, 1), BuildingBlock: EZIPEK_clean_linker_0, # of connection points: 2
#     Edge 18, Type (0, 1), BuildingBlock: EZIPEK_clean_linker_0, # of connection points: 2
#     Edge 19, Type (0, 1), BuildingBlock: EZIPEK_clean_linker_0, # of connection points: 2
#     Edge 20, Type (0, 1), BuildingBlock: EZIPEK_clean_linker_0, # of connection points: 2
#     Edge 21, Type (0, 1), BuildingBlock: EZIPEK_clean_linker_0, # of connection points: 2
#     Edge 22, Type (0, 1), BuildingBlock: EZIPEK_clean_linker_0, # of connection points: 2
#     Edge 23, Type (0, 1), BuildingBlock: EZIPEK_clean_linker_0, # of connection points: 2
#     Edge 24, Type (0, 1), BuildingBlock: EZIPEK_clean_linker_0, # of connection points: 2
#     Edge 25, Type (0, 1), BuildingBlock: EZIPEK_clean_linker_0, # of connection points: 2
#     Edge 26, Type (0, 1), BuildingBlock: EZIPEK_clean_linker_0, # of connection points: 2
#     Edge 27, Type (0, 1), BuildingBlock: EZIPEK_clean_linker_0, # of connection points: 2
#     Edge 28, Type (0, 1), BuildingBlock: EZIPEK_clean_linker_0, # of connection points: 2
#     Edge 29, Type (0, 1), BuildingBlock: EZIPEK_clean_linker_0, # of connection points: 2
#     Edge 30, Type (0, 1), BuildingBlock: EZIPEK_clean_linker_0, # of connection points: 2
#     Edge 31, Type (0, 1), BuildingBlock: EZIPEK_clean_linker_0, # of connection points: 2
#     Edge 32, Type (0, 1), BuildingBlock: EZIPEK_clean_linker_0, # of connection points: 2
#     Edge 33, Type (0, 1), BuildingBlock: EZIPEK_clean_linker_0, # of connection points: 2
#     Edge 34, Type (0, 1), BuildingBlock: EZIPEK_clean_linker_0, # of connection points: 2
#     Edge 35, Type (0, 1), BuildingBlock: EZIPEK_clean_linker_0, # of connection points: 2
# Relax obj value: 0.002
# Max RMSD: 0.091
# Mean RMSD: 0.073
data_MOF--net-hwx--node1-OJICUG_clean_sbu_0--node2-QEWDON_clean_linker_0--edge1-EZIPEK_clean_linker_0
_symmetry_space_group_name_H-M    P1
_symmetry_Int_Tables_number       1
_symmetry_cell_setting            triclinic
loop_
_symmetry_equiv_pos_as_xyz
'x, y, z'
_cell_length_a     41.513525
_cell_length_b     41.771016
_cell_length_c     14.918036
_cell_angle_alpha  92.298238
_cell_angle_beta   93.786399
_cell_angle_gamma 90.220106
loop_
_atom_site_label
_atom_site_type_symbol
_atom_site_fract_x
_atom_site_fract_y
_atom_site_fract_z
_atom_type_partial_charge
Sc0 Sc 0.23981 0.23823 0.11037 0.0
Sc1 Sc 0.18017 0.18293 0.02099 0.0
Sc2 Sc 0.22551 0.22692 0.87615 0.0
O3 O 0.21511 0.21609 0.00262 0.0
C4 C 0.23163 0.29582 0.97487 0.0
C5 C 0.16778 0.23576 0.17447 0.0
C6 C 0.14848 0.22057 0.85639 0.0
C7 C 0.23362 0.1662 0.17471 0.0
C8 C 0.29605 0.22523 0.97864 0.0
C9 C 0.21521 0.15121 0.85613 0.0
O10 O 0.23765 0.28503 0.05287 0.0
O11 O 0.15938 0.212 0.12258 0.0
O12 O 0.17528 0.2301 0.83004 0.0
O13 O 0.24686 0.19375 0.1775 0.0
O14 O 0.27733 0.22459 0.90736 0.0
O15 O 0.19738 0.14928 0.92173 0.0
O16 O 0.28606 0.22969 0.05681 0.0
O17 O 0.20938 0.15873 0.12138 0.0
O18 O 0.22739 0.17733 0.83307 0.0
O19 O 0.19577 0.24865 0.17774 0.0
O20 O 0.22451 0.27773 0.9059 0.0
O21 O 0.1463 0.20404 0.92532 0.0
Sc22 Sc 0.27129 0.74128 0.39053 0.0
Sc23 Sc 0.32406 0.68902 0.49892 0.0
Sc24 Sc 0.27768 0.74052 0.6229 0.0
O25 O 0.2912 0.72403 0.50405 0.0
C26 C 0.28145 0.80414 0.52053 0.0
C27 C 0.34179 0.73363 0.34056 0.0
C28 C 0.35481 0.73097 0.65555 0.0
C29 C 0.27678 0.66561 0.34327 0.0
C30 C 0.21093 0.73637 0.5038 0.0
C31 C 0.28258 0.66768 0.65711 0.0
O32 O 0.27048 0.79018 0.44702 0.0
O33 O 0.34403 0.70711 0.37967 0.0
O34 O 0.32709 0.73732 0.68442 0.0
O35 O 0.27132 0.69428 0.31958 0.0
O36 O 0.2272 0.74494 0.57631 0.0
O37 O 0.30887 0.66629 0.61796 0.0
O38 O 0.22368 0.73115 0.42947 0.0
O39 O 0.29091 0.65918 0.41833 0.0
O40 O 0.26514 0.69246 0.65411 0.0
O41 O 0.31806 0.75217 0.34895 0.0
O42 O 0.2885 0.78915 0.59175 0.0
O43 O 0.35849 0.71724 0.57962 0.0
Sc44 Sc 0.78138 0.77773 0.88451 0.0
Sc45 Sc 0.83239 0.83321 0.00689 0.0
Sc46 Sc 0.77996 0.7848 0.11875 0.0
O47 O 0.79775 0.79876 0.00333 0.0
C48 C 0.71676 0.78272 -0.00908 0.0
C49 C 0.7862 0.8503 0.83524 0.0
C50 C 0.78791 0.86091 0.15347 0.0
C51 C 0.85666 0.78619 0.85751 0.0
C52 C 0.7865 0.71794 0.00852 0.0
C53 C 0.85504 0.79168 0.17418 0.0
O54 O 0.73192 0.77563 0.92152 0.0
O55 O 0.81013 0.85577 0.89152 0.0
O56 O 0.77881 0.83335 0.17566 0.0
O57 O 0.82837 0.77671 0.8312 0.0
O58 O 0.77818 0.73447 0.07666 0.0
O59 O 0.8592 0.81433 0.12165 0.0
O60 O 0.79155 0.73052 0.93426 0.0
O61 O 0.86276 0.8046 0.92609 0.0
O62 O 0.82814 0.77726 0.17834 0.0
O63 O 0.77101 0.82367 0.82721 0.0
O64 O 0.73078 0.79045 0.06713 0.0
O65 O 0.8053 0.86519 0.0882 0.0
Sc66 Sc 0.73149 0.28879 0.60847 0.0
Sc67 Sc 0.67479 0.33484 0.48493 0.0
Sc68 Sc 0.72799 0.28375 0.37184 0.0
O69 O 0.71137 0.30231 0.48827 0.0
C70 C 0.79404 0.29468 0.4944 0.0
C71 C 0.72112 0.36392 0.64587 0.0
C72 C 0.71642 0.35746 0.32693 0.0
C73 C 0.65686 0.29123 0.64556 0.0
C74 C 0.73254 0.22242 0.49381 0.0
C75 C 0.65091 0.28555 0.32608 0.0
O76 O 0.78029 0.29484 0.56813 0.0
O77 O 0.70016 0.36709 0.58108 0.0
O78 O 0.73027 0.33063 0.31534 0.0
O79 O 0.68521 0.28054 0.66099 0.0
O80 O 0.73031 0.23486 0.41696 0.0
O81 O 0.6457 0.30624 0.38796 0.0
O82 O 0.73156 0.23898 0.5669 0.0
O83 O 0.64971 0.31149 0.58631 0.0
O84 O 0.6791 0.27507 0.31192 0.0
O85 O 0.73389 0.33719 0.66472 0.0
O86 O 0.7781 0.29031 0.41889 0.0
O87 O 0.69523 0.3623 0.38337 0.0
H88 H 0.26124 0.52113 0.12192 0.0
C89 C 0.25905 0.53406 0.06024 0.0
C90 C 0.25856 0.5676 0.06467 0.0
C91 C 0.261 0.51756 0.97683 0.0
H92 H 0.26006 0.61033 -0.0093 0.0
C93 C 0.2589 0.58434 -0.01413 0.0
C94 C 0.25853 0.56833 0.90153 0.0
C95 C 0.25885 0.53461 0.89709 0.0
C96 C 0.27502 0.48525 0.97609 0.0
H97 H 0.26016 0.52185 0.83274 0.0
C98 C 0.25591 0.45728 0.96798 0.0
C99 C 0.27084 0.4271 0.97325 0.0
C100 C 0.30875 0.48287 -0.01196 0.0
H101 H 0.32372 0.50427 -0.0054 0.0
C102 C 0.32343 0.45304 -0.00732 0.0
H103 H 0.22987 0.45892 0.95849 0.0
C104 C 0.30462 0.42529 -0.01439 0.0
H105 H 0.31645 0.40225 -0.01066 0.0
H106 H 0.34944 0.45142 0.00208 0.0
H107 H 0.98997 0.72575 0.38464 0.0
C108 C 0.97717 0.73055 0.44466 0.0
C109 C 0.94709 0.7462 0.43868 0.0
C110 C 0.98996 0.72033 0.52869 0.0
H111 H 0.90776 0.7645 0.51267 0.0
C112 C 0.93076 0.75219 0.51664 0.0
C113 C 0.94406 0.74344 0.60013 0.0
C114 C 0.97346 0.7274 0.60627 0.0
C115 C 0.01992 0.70143 0.5383 0.0
H116 H 0.98353 0.72056 0.67163 0.0
C117 C 0.04968 0.7138 0.51501 0.0
C118 C 0.0786 0.69799 0.54051 0.0
C119 C 0.01916 0.67226 0.58195 0.0
H120 H 0.99646 0.66232 0.60024 0.0
C121 C 0.04763 0.65617 0.60496 0.0
H122 H 0.05053 0.73634 0.48162 0.0
C123 C 0.07721 0.66917 0.58578 0.0
H124 H 0.09915 0.65667 0.60614 0.0
H125 H 0.04682 0.63391 0.63947 0.0
H126 H 0.78589 0.49536 0.87957 0.0
C127 C 0.77828 0.4832 0.93752 0.0
C128 C 0.76214 0.45366 0.92552 0.0
C129 C 0.78555 0.49639 0.0247 0.0
H130 H 0.74085 0.41457 -0.00961 0.0
C131 C 0.75319 0.43753 0.00025 0.0
C132 C 0.75953 0.45065 0.08733 0.0
C133 C 0.77572 0.48031 0.09964 0.0
C134 C 0.80677 0.5248 0.0372 0.0
H135 H 0.78129 0.49039 0.16699 0.0
C136 C 0.7946 0.55598 0.02771 0.0
C137 C 0.81583 0.5825 0.03519 0.0
C138 C 0.84002 0.52032 0.05471 0.0
H139 H 0.84972 0.49643 0.06175 0.0
C140 C 0.86105 0.54654 0.06179 0.0
H141 H 0.7689 0.55958 0.01468 0.0
C142 C 0.8491 0.57744 0.05181 0.0
H143 H 0.86579 0.59754 0.05797 0.0
H144 H 0.8867 0.5429 0.07493 0.0
H145 H 1.00809 0.25178 0.6076 0.0
C146 C 0.02491 0.25634 0.55695 0.0
C147 C 0.05819 0.2579 0.58152 0.0
C148 C 0.01395 0.25624 0.46555 0.0
H149 H 0.10585 0.262 0.53465 0.0
C150 C 0.08014 0.26204 0.51574 0.0
C151 C 0.06975 0.26132 0.42469 0.0
C152 C 0.03661 0.25877 0.39968 0.0
C153 C 0.98014 0.24684 0.43796 0.0
H154 H 0.02871 0.25652 0.32896 0.0
C155 C 0.95364 0.26439 0.46772 0.0
C156 C 0.92184 0.25424 0.4412 0.0
C157 C 0.97444 0.21906 0.38272 0.0
H158 H 0.99441 0.20495 0.35997 0.0
C159 C 0.94301 0.20884 0.35764 0.0
H160 H 0.95766 0.28596 0.50988 0.0
C161 C 0.91684 0.2263 0.38657 0.0
H162 H 0.89257 0.21823 0.36558 0.0
H163 H 0.93892 0.18734 0.31541 0.0
H164 H 0.75886 1.00112 0.3744 0.0
C165 C 0.75599 0.98702 0.43288 0.0
C166 C 0.75402 0.95355 0.42196 0.0
C167 C 0.76103 1.00147 0.51947 0.0
H168 H 0.7519 0.90904 0.48848 0.0
C169 C 0.75247 0.93497 0.49724 0.0
C170 C 0.75679 0.94895 0.58386 0.0
C171 C 0.76114 0.9823 0.59515 0.0
C172 C 0.77717 0.03308 0.52738 0.0
H173 H 0.76777 0.99277 0.6615 0.0
C174 C 0.75995 0.06199 0.52117 0.0
C175 C 0.77687 0.09126 0.51749 0.0
C176 C 0.81105 0.03367 0.532 0.0
H177 H 0.82462 0.01162 0.5365 0.0
C178 C 0.82772 0.06246 0.5277 0.0
H179 H 0.7338 0.06171 0.51838 0.0
C180 C 0.81081 0.09101 0.51945 0.0
H181 H 0.82429 0.11316 0.51618 0.0
H182 H 0.85384 0.06263 0.53012 0.0
H183 H 0.51737 0.21886 0.08456 0.0
C184 C 0.53062 0.22591 0.02827 0.0
C185 C 0.56088 0.24123 0.04391 0.0
C186 C 0.51808 0.21907 0.93926 0.0
H187 H 0.60121 0.26208 0.98339 0.0
C188 C 0.57803 0.25001 0.9712 0.0
C189 C 0.56558 0.24401 0.88303 0.0
C190 C 0.53566 0.22847 0.86694 0.0
C191 C 0.48782 0.20034 0.91995 0.0
H192 H 0.52615 0.22366 0.79825 0.0
C193 C 0.4579 0.21137 0.94831 0.0
C194 C 0.42926 0.19412 0.92208 0.0
C195 C 0.48882 0.17166 0.86767 0.0
H196 H 0.51153 0.16275 0.8452 0.0
C197 C 0.46063 0.15428 0.84357 0.0
H198 H 0.45674 0.23362 -0.01214 0.0
C199 C 0.431 0.16548 0.87014 0.0
H200 H 0.40929 0.15188 0.84966 0.0
H201 H 0.4617 0.13222 0.8033 0.0
H202 H 0.2748 0.01908 0.64734 0.0
C203 C 0.27112 0.03286 0.58748 0.0
C204 C 0.25371 0.06147 0.59111 0.0
C205 C 0.28646 0.0238 0.50932 0.0
H206 H 0.2353 0.1013 0.51745 0.0
C207 C 0.24914 0.07933 0.5142 0.0
C208 C 0.26484 0.0711 0.43625 0.0
C209 C 0.28409 0.04347 0.43467 0.0
C210 C 0.30822 0.99605 0.51076 0.0
H211 H 0.29743 0.03752 0.37626 0.0
C212 C 0.2959 0.96472 0.51359 0.0
C213 C 0.31709 0.93862 0.5211 0.0
C214 C 0.34171 1.00113 0.51459 0.0
H215 H 0.35153 0.02516 0.51297 0.0
C216 C 0.36276 0.97532 0.52292 0.0
H217 H 0.27003 0.96067 0.50968 0.0
C218 C 0.35059 0.94425 0.52672 0.0
H219 H 0.3673 0.92446 0.53259 0.0
H220 H 0.38859 0.9794 0.52661 0.0
H221 H 0.50078 0.75333 0.90738 0.0
C222 C 0.484 0.75623 0.95967 0.0
C223 C 0.45054 0.75408 0.9369 0.0
C224 C 0.49534 0.75983 0.05104 0.0
H225 H 0.40345 0.75024 -0.01277 0.0
C226 C 0.42897 0.75432 0.00479 0.0
C227 C 0.43979 0.75922 0.09474 0.0
C228 C 0.47272 0.76417 0.11677 0.0
C229 C 0.52981 0.75452 0.0812 0.0
H230 H 0.48082 0.76844 0.18682 0.0
C231 C 0.5556 0.76546 0.03325 0.0
C232 C 0.58769 0.75965 0.06506 0.0
C233 C 0.53692 0.73713 0.15932 0.0
H234 H 0.51795 0.7272 0.19631 0.0
C235 C 0.56863 0.73169 0.19057 0.0
H236 H 0.55094 0.77845 0.97238 0.0
C237 C 0.5939 0.74296 0.14399 0.0
H238 H 0.61849 0.73826 0.16882 0.0
H239 H 0.57361 0.7184 0.2507 0.0
C240 C 0.13851 0.22229 0.30759 0.0
C241 C 0.14492 0.24497 0.24284 0.0
C242 C 0.10274 0.27993 0.2995 0.0
C243 C 0.09425 0.25561 0.35755 0.0
N244 N 0.09924 0.20072 0.4016 0.0
N245 N 0.13034 0.29317 0.16704 0.0
C246 C 0.11079 0.22593 0.35725 0.0
C247 C 0.12636 0.27333 0.23608 0.0
N248 N 0.15927 0.19743 0.32262 0.0
N249 N 0.08872 0.30938 0.30614 0.0
H250 H 0.14729 0.28876 0.11955 0.0
H251 H 0.11534 0.3125 0.15294 0.0
H252 H 0.07095 0.31467 0.35067 0.0
H253 H 0.09626 0.32909 0.27218 0.0
H254 H 0.15765 0.18211 0.37558 0.0
H255 H 0.18002 0.19402 0.28772 0.0
H256 H 0.1085 0.17763 0.39624 0.0
H257 H 0.07822 0.20195 0.43614 0.0
C258 C 0.24945 0.64299 0.77614 0.0
C259 C 0.27249 0.63974 0.70934 0.0
C260 C 0.28474 0.58597 0.7613 0.0
C261 C 0.25961 0.58843 0.82126 0.0
N262 N 0.20975 0.6145 0.85408 0.0
N263 N 0.29946 0.60066 0.61509 0.0
C264 C 0.23873 0.61509 0.816 0.0
C265 C 0.28619 0.60887 0.69403 0.0
N266 N 0.24003 0.67219 0.80937 0.0
N267 N 0.3084 0.56354 0.77062 0.0
H268 H 0.29722 0.61481 0.55909 0.0
H269 H 0.30815 0.5777 0.60143 0.0
H270 H 0.31014 0.5477 0.82276 0.0
H271 H 0.3283 0.5632 0.73136 0.0
H272 H 0.22452 0.67448 0.86149 0.0
H273 H 0.25129 0.6937 0.79723 0.0
H274 H 0.19309 0.63304 0.84745 0.0
H275 H 0.20133 0.59405 0.88342 0.0
C276 C 0.89464 0.74918 0.22048 0.0
C277 C 0.88325 0.78099 0.23142 0.0
C278 C 0.92581 0.79149 0.35033 0.0
C279 C 0.93179 0.75816 0.35356 0.0
N280 N 0.92058 0.70445 0.29333 0.0
N281 N 0.88651 0.83215 0.31278 0.0
C282 C 0.91627 0.73672 0.28814 0.0
C283 C 0.8988 0.80233 0.29698 0.0
N284 N 0.88549 0.73121 0.14453 0.0
N285 N 0.94552 0.81253 0.40061 0.0
H286 H 0.86574 0.84026 0.27817 0.0
H287 H 0.895 0.84751 0.36592 0.0
H288 H 0.96554 0.80492 0.44007 0.0
H289 H 0.94394 0.8373 0.39592 0.0
H290 H 0.89528 0.70884 0.12952 0.0
H291 H 0.87041 0.74004 0.09253 0.0
H292 H 0.9068 0.68769 0.25367 0.0
H293 H 0.9365 0.69437 0.3411 0.0
C294 C 0.70915 0.41262 0.74424 0.0
C295 C 0.73187 0.39268 0.70177 0.0
C296 C 0.77635 0.41952 0.7918 0.0
C297 C 0.75356 0.43866 0.8355 0.0
N298 N 0.70029 0.46085 0.8353 0.0
N299 N 0.7869 0.38472 0.66323 0.0
C300 C 0.72062 0.43781 0.80478 0.0
C301 C 0.76549 0.39864 0.71846 0.0
N302 N 0.6768 0.40622 0.73249 0.0
N303 N 0.80801 0.42004 0.82329 0.0
H304 H 0.77957 0.37017 0.60701 0.0
H305 H 0.81146 0.39025 0.66749 0.0
H306 H 0.81695 0.43579 0.87515 0.0
H307 H 0.82499 0.40371 0.80136 0.0
H308 H 0.65971 0.41743 0.77085 0.0
H309 H 0.66691 0.3881 0.68932 0.0
H310 H 0.67655 0.46337 0.80947 0.0
H311 H 0.7083 0.47945 0.88023 0.0
C312 C 0.61765 0.23985 0.25323 0.0
C313 C 0.62266 0.27338 0.26711 0.0
C314 C 0.57548 0.28264 0.16333 0.0
C315 C 0.57552 0.24996 0.13514 0.0
N316 N 0.59644 0.19675 0.1522 0.0
N317 N 0.60624 0.32738 0.23166 0.0
C318 C 0.59624 0.22821 0.18069 0.0
C319 C 0.60112 0.29504 0.22263 0.0
N320 N 0.63247 0.21928 0.31139 0.0
N321 N 0.55114 0.30189 0.13142 0.0
H322 H 0.62449 0.33798 0.27385 0.0
H323 H 0.59382 0.34382 0.19188 0.0
H324 H 0.53225 0.29316 0.08735 0.0
H325 H 0.5479 0.32534 0.15543 0.0
H326 H 0.62781 0.19473 0.30908 0.0
H327 H 0.64658 0.22743 0.36825 0.0
H328 H 0.61372 0.18052 0.17558 0.0
H329 H 0.58012 0.18732 0.10166 0.0
C330 C 0.20055 0.10388 0.75097 0.0
C331 C 0.22406 0.1216 0.80607 0.0
C332 C 0.26757 0.0933 0.73446 0.0
C333 C 0.24413 0.07624 0.67727 0.0
N334 N 0.18929 0.05847 0.64636 0.0
N335 N 0.27861 0.12603 0.87099 0.0
C336 C 0.21086 0.07913 0.69137 0.0
C337 C 0.25717 0.11377 0.80481 0.0
N338 N 0.16873 0.11204 0.75122 0.0
N339 N 0.29953 0.09187 0.71773 0.0
H340 H 0.27148 0.1409 0.92391 0.0
H341 H 0.30264 0.11896 0.87849 0.0
H342 H 0.30847 0.07703 0.66747 0.0
H343 H 0.31704 0.10701 0.7499 0.0
H344 H 0.15095 0.10263 0.70498 0.0
H345 H 0.16028 0.12975 0.79466 0.0
H346 H 0.16493 0.05746 0.65873 0.0
H347 H 0.19657 0.04024 0.60232 0.0
C348 C 0.39988 0.7327 0.30209 0.0
C349 C 0.3677 0.74298 0.2824 0.0
C350 C 0.38687 0.77271 0.1584 0.0
C351 C 0.41651 0.75603 0.16536 0.0
N352 N 0.44669 0.71243 0.23303 0.0
N353 N 0.3299 0.76663 0.17219 0.0
C354 C 0.42197 0.73387 0.23438 0.0
C355 C 0.36084 0.76159 0.20548 0.0
N356 N 0.40989 0.72279 0.38539 0.0
N357 N 0.38338 0.79878 0.10641 0.0
H358 H 0.30986 0.7554 0.19563 0.0
H359 H 0.32464 0.77834 0.11258 0.0
H360 H 0.40245 0.80819 0.07331 0.0
H361 H 0.36267 0.81287 0.10482 0.0
H362 H 0.43388 0.71695 0.40238 0.0
H363 H 0.39558 0.72475 0.44013 0.0
H364 H 0.44961 0.69456 0.27974 0.0
H365 H 0.46149 0.70973 0.17957 0.0
C366 C 0.74866 0.89329 0.77801 0.0
C367 C 0.7777 0.87572 0.77179 0.0
C368 C 0.79554 0.91199 0.66008 0.0
C369 C 0.76501 0.92718 0.65811 0.0
N370 N 0.71124 0.93107 0.70866 0.0
N371 N 0.82591 0.86428 0.69498 0.0
C372 C 0.74119 0.91759 0.7156 0.0
C373 C 0.80043 0.88404 0.70973 0.0
N374 N 0.72877 0.88736 0.84496 0.0
N375 N 0.81991 0.92443 0.61452 0.0
H376 H 0.82946 0.84279 0.72741 0.0
H377 H 0.84152 0.86738 0.64412 0.0
H378 H 0.81724 0.945 0.57739 0.0
H379 H 0.84359 0.91623 0.62056 0.0
H380 H 0.70894 0.90147 0.85884 0.0
H381 H 0.73348 0.86958 0.89111 0.0
H382 H 0.69167 0.92267 0.74128 0.0
H383 H 0.70554 0.94971 0.66597 0.0
C384 C 0.90349 0.79732 0.76493 0.0
C385 C 0.88366 0.77494 0.80527 0.0
C386 C 0.90763 0.73058 0.72138 0.0
C387 C 0.92727 0.75297 0.68105 0.0
N388 N 0.95076 0.80576 0.68155 0.0
N389 N 0.87352 0.72036 0.84296 0.0
C390 C 0.92753 0.78575 0.70901 0.0
C391 C 0.88789 0.74152 0.7902 0.0
N392 N 0.8981 0.82951 0.775 0.0
N393 N 0.90672 0.69925 0.69111 0.0
H394 H 0.85962 0.72774 0.89572 0.0
H395 H 0.87801 0.69584 0.84051 0.0
H396 H 0.92144 0.69023 0.64212 0.0
H397 H 0.88998 0.68266 0.71046 0.0
H398 H 0.90908 0.84653 0.73779 0.0
H399 H 0.88084 0.83932 0.81537 0.0
H400 H 0.95417 0.82925 0.70654 0.0
H401 H 0.96869 0.79787 0.6402 0.0
C402 C 0.70445 0.39898 0.21158 0.0
C403 C 0.7265 0.38488 0.27479 0.0
C404 C 0.77038 0.4178 0.22503 0.0
C405 C 0.74814 0.43249 0.16323 0.0
N406 N 0.69277 0.44407 0.11773 0.0
N407 N 0.7772 0.38921 0.36292 0.0
C408 C 0.71468 0.42544 0.16361 0.0
C409 C 0.7585 0.39692 0.28826 0.0
N410 N 0.67434 0.38608 0.19371 0.0
N411 N 0.80284 0.42217 0.22043 0.0
H412 H 0.76877 0.37478 0.41203 0.0
H413 H 0.79969 0.39969 0.38028 0.0
H414 H 0.81273 0.4369 0.1745 0.0
H415 H 0.81996 0.40909 0.25759 0.0
H416 H 0.65843 0.39329 0.14152 0.0
H417 H 0.66641 0.36617 0.22594 0.0
H418 H 0.69964 0.46398 0.08322 0.0
H419 H 0.66791 0.44178 0.12167 0.0
C420 C 0.11133 0.26288 0.79517 0.0
C421 C 0.11851 0.22986 0.80421 0.0
C422 C 0.07708 0.21522 0.68495 0.0
C423 C 0.07176 0.24828 0.67098 0.0
N424 N 0.07695 0.30308 0.72401 0.0
N425 N 0.10199 0.17457 0.77722 0.0
C426 C 0.08657 0.27197 0.7306 0.0
C427 C 0.09909 0.20602 0.75613 0.0
N428 N 0.12874 0.28538 0.84722 0.0
N429 N 0.06299 0.19264 0.62579 0.0
H430 H 0.11856 0.16649 0.82642 0.0
H431 H 0.08608 0.15665 0.75144 0.0
H432 H 0.0456 0.19807 0.57521 0.0
H433 H 0.06965 0.16864 0.62346 0.0
H434 H 0.12742 0.30991 0.83818 0.0
H435 H 0.1453 0.27935 0.89946 0.0
H436 H 0.08507 0.32172 0.76819 0.0
H437 H 0.05863 0.3098 0.67728 0.0
C438 C 0.29753 0.61969 0.25152 0.0
C439 C 0.27088 0.63858 0.27667 0.0
C440 C 0.23441 0.60573 0.17425 0.0
C441 C 0.26107 0.58669 0.15074 0.0
N442 N 0.3165 0.57098 0.17988 0.0
N443 N 0.21356 0.64803 0.27025 0.0
C444 C 0.29205 0.59201 0.19441 0.0
C445 C 0.23913 0.63108 0.24057 0.0
N446 N 0.32842 0.6296 0.27634 0.0
N447 N 0.20485 0.60016 0.13019 0.0
H448 H 0.21641 0.66799 0.31415 0.0
H449 H 0.18952 0.64163 0.255 0.0
H450 H 0.2003 0.58047 0.08576 0.0
H451 H 0.18519 0.61535 0.1349 0.0
H452 H 0.34883 0.61911 0.25108 0.0
H453 H 0.3339 0.65037 0.31521 0.0
H454 H 0.33843 0.57142 0.21807 0.0
H455 H 0.3141 0.55122 0.13511 0.0
C456 C 0.39454 0.76948 0.7356 0.0
C457 C 0.3842 0.73745 0.71539 0.0
C458 C 0.42974 0.71775 0.81066 0.0
C459 C 0.43616 0.74948 0.84357 0.0
N460 N 0.4268 0.80604 0.83608 0.0
N461 N 0.39113 0.68064 0.73433 0.0
C462 C 0.41958 0.77557 0.8041 0.0
C463 C 0.40198 0.71138 0.7516 0.0
N464 N 0.38061 0.79386 0.68872 0.0
N465 N 0.44984 0.69372 0.83813 0.0
H466 H 0.37076 0.67485 0.69216 0.0
H467 H 0.40084 0.66092 0.76673 0.0
H468 H 0.4701 0.698 0.88221 0.0
H469 H 0.44835 0.67036 0.81111 0.0
H470 H 0.38888 0.81745 0.69447 0.0
H471 H 0.36213 0.79005 0.63847 0.0
H472 H 0.41315 0.82602 0.81907 0.0
H473 H 0.4462 0.81106 0.88275 0.0
C474 C 0.74581 0.89628 0.21788 0.0
C475 C 0.77889 0.88929 0.2089 0.0
C476 C 0.79452 0.93313 0.31739 0.0
C477 C 0.76159 0.93665 0.33658 0.0
N478 N 0.70562 0.92252 0.30607 0.0
N479 N 0.8352 0.9003 0.25098 0.0
C480 C 0.73709 0.91874 0.28615 0.0
C481 C 0.80339 0.90799 0.25732 0.0
N482 N 0.72289 0.88186 0.15963 0.0
N483 N 0.81755 0.95338 0.35799 0.0
H484 H 0.84321 0.88305 0.20554 0.0
H485 H 0.85384 0.90952 0.29468 0.0
H486 H 0.81298 0.97061 0.40765 0.0
H487 H 0.84102 0.95486 0.33782 0.0
H488 H 0.69853 0.88777 0.157 0.0
H489 H 0.72881 0.86575 0.10816 0.0
H490 H 0.68689 0.90756 0.28004 0.0
H491 H 0.69845 0.94012 0.35214 0.0
C492 C 0.62385 0.24574 0.69641 0.0
C493 C 0.63076 0.2791 0.69852 0.0
C494 C 0.58743 0.28888 0.79969 0.0
C495 C 0.58427 0.25541 0.80903 0.0
N496 N 0.60129 0.20156 0.77271 0.0
N497 N 0.62207 0.33225 0.76176 0.0
C498 C 0.60275 0.23363 0.7585 0.0
C499 C 0.61309 0.30074 0.75195 0.0
N500 N 0.63675 0.22576 0.63354 0.0
N501 N 0.56585 0.30928 0.83678 0.0
H502 H 0.64151 0.34165 0.73058 0.0
H503 H 0.6123 0.34838 0.80747 0.0
H504 H 0.54667 0.30121 0.87196 0.0
H505 H 0.56505 0.33369 0.82518 0.0
H506 H 0.63008 0.20177 0.62308 0.0
H507 H 0.65182 0.23386 0.58582 0.0
H508 H 0.61706 0.18497 0.74582 0.0
H509 H 0.58573 0.19171 0.81645 0.0
C510 C 0.24692 0.10882 0.20861 0.0
C511 C 0.24649 0.14171 0.23758 0.0
C512 C 0.27079 0.1267 0.38349 0.0
C513 C 0.26328 0.09404 0.36193 0.0
N514 N 0.24018 0.05436 0.2534 0.0
N515 N 0.25244 0.18057 0.36365 0.0
C516 C 0.25049 0.08501 0.27397 0.0
C517 C 0.25727 0.15048 0.3278 0.0
N518 N 0.24493 0.10025 0.11908 0.0
N519 N 0.29042 0.13502 0.4579 0.0
H520 H 0.23961 0.19826 0.32981 0.0
H521 H 0.25765 0.18662 0.43157 0.0
H522 H 0.3015 0.11796 0.49872 0.0
H523 H 0.29842 0.15846 0.47254 0.0
H524 H 0.24761 0.07667 0.09522 0.0
H525 H 0.24475 0.11701 0.06906 0.0
H526 H 0.2278 0.04771 0.19238 0.0
H527 H 0.24133 0.03634 0.29975 0.0
C528 C 0.22354 0.35298 0.0288 0.0
C529 C 0.23522 0.33098 0.96345 0.0
C530 C 0.25709 0.37633 0.88674 0.0
C531 C 0.25221 0.39659 0.96266 0.0
N532 N 0.23165 0.40419 0.1094 0.0
N533 N 0.26769 0.32248 0.83438 0.0
C534 C 0.23524 0.3851 0.03429 0.0
C535 C 0.2527 0.34282 0.89227 0.0
N536 N 0.20082 0.34335 0.08433 0.0
N537 N 0.26672 0.38918 0.81001 0.0
H538 H 0.26739 0.29768 0.83717 0.0
H539 H 0.28357 0.33042 0.78866 0.0
H540 H 0.27013 0.41379 0.80461 0.0
H541 H 0.26784 0.37593 0.7496 0.0
H542 H 0.18947 0.35903 0.12807 0.0
H543 H 0.19078 0.32039 0.07917 0.0
H544 H 0.22284 0.39575 0.1679 0.0
H545 H 0.23943 0.42799 0.11529 0.0
C546 C 0.16509 0.6973 0.47905 0.0
C547 C 0.17626 0.72833 0.5085 0.0
C548 C 0.12269 0.74055 0.56056 0.0
C549 C 0.11084 0.71084 0.52108 0.0
N550 N 0.11932 0.66552 0.41996 0.0
N551 N 0.16396 0.7819 0.56176 0.0
C552 C 0.13158 0.69081 0.47248 0.0
C553 C 0.1545 0.75079 0.54437 0.0
N554 N 0.18644 0.67318 0.46409 0.0
N555 N 0.10454 0.75809 0.61753 0.0
H556 H 0.18694 0.79024 0.54971 0.0
H557 H 0.14808 0.79992 0.57997 0.0
H558 H 0.08162 0.75105 0.63384 0.0
H559 H 0.11347 0.77815 0.65508 0.0
H560 H 0.17918 0.64944 0.45073 0.0
H561 H 0.21137 0.67608 0.47508 0.0
H562 H 0.13338 0.65181 0.37773 0.0
H563 H 0.09461 0.66058 0.41141 0.0
C564 C 0.78092 0.66063 0.94535 0.0
C565 C 0.79126 0.68258 0.01726 0.0
C566 C 0.8085 0.63686 0.10707 0.0
C567 C 0.80383 0.61602 0.03017 0.0
N568 N 0.78932 0.60892 0.87131 0.0
N569 N 0.82146 0.69055 0.16186 0.0
C570 C 0.79094 0.62807 0.94789 0.0
C571 C 0.8066 0.67044 0.09729 0.0
N572 N 0.76043 0.67032 0.87638 0.0
N573 N 0.81466 0.62455 0.18994 0.0
H574 H 0.82299 0.71519 0.15645 0.0
H575 H 0.83574 0.68238 0.21624 0.0
H576 H 0.81576 0.59997 0.19976 0.0
H577 H 0.81515 0.63857 0.24944 0.0
H578 H 0.74989 0.6545 0.82707 0.0
H579 H 0.75098 0.69335 0.87387 0.0
H580 H 0.78349 0.61759 0.80776 0.0
H581 H 0.79641 0.585 0.87019 0.0
C582 C 0.85032 0.28444 0.56799 0.0
C583 C 0.83045 0.2958 0.49473 0.0
C584 C 0.87644 0.29133 0.39906 0.0
C585 C 0.89318 0.27323 0.46569 0.0
N586 N 0.89649 0.25225 0.61417 0.0
N587 N 0.82998 0.32401 0.35735 0.0
C588 C 0.88051 0.27015 0.55093 0.0
C589 C 0.84524 0.30352 0.41499 0.0
N590 N 0.84168 0.28931 0.65419 0.0
N591 N 0.88991 0.29553 0.31907 0.0
H592 H 0.8084 0.33506 0.37187 0.0
H593 H 0.83992 0.33278 0.30096 0.0
H594 H 0.91348 0.28865 0.3077 0.0
H595 H 0.87764 0.30478 0.26291 0.0
H596 H 0.85632 0.28323 0.71026 0.0
H597 H 0.82275 0.30422 0.67074 0.0
H598 H 0.88638 0.24564 0.67283 0.0
H599 H 0.91906 0.24218 0.60524 0.0
C600 C 0.72681 0.16359 0.44116 0.0
C601 C 0.74124 0.18782 0.50079 0.0
C602 C 0.76971 0.14613 0.58471 0.0
C603 C 0.76028 0.12291 0.5163 0.0
N604 N 0.73305 0.11089 0.37055 0.0
N605 N 0.78517 0.20124 0.612 0.0
C606 C 0.7395 0.13188 0.44208 0.0
C607 C 0.76499 0.1789 0.56838 0.0
N608 N 0.70061 0.17045 0.38537 0.0
N609 N 0.78374 0.13695 0.66495 0.0
H610 H 0.7859 0.22515 0.59469 0.0
H611 H 0.80436 0.19507 0.65654 0.0
H612 H 0.78687 0.11292 0.67999 0.0
H613 H 0.78881 0.15309 0.71928 0.0
H614 H 0.68744 0.15299 0.34664 0.0
H615 H 0.69009 0.19301 0.38502 0.0
H616 H 0.72084 0.11747 0.31089 0.0
H617 H 0.74225 0.08772 0.36772 0.0
C618 C 0.34588 0.19238 0.01181 0.0
C619 C 0.3311 0.21923 0.97072 0.0
C620 C 0.38169 0.23134 0.90191 0.0
C621 C 0.39687 0.20551 0.94681 0.0
N622 N 0.39575 0.16633 0.06067 0.0
N623 N 0.33711 0.26869 0.89561 0.0
C624 C 0.37965 0.18763 0.0071 0.0
C625 C 0.34968 0.24006 0.92134 0.0
N626 N 0.32744 0.17042 0.05128 0.0
N627 N 0.39724 0.24668 0.83786 0.0
H628 H 0.31418 0.2762 0.9115 0.0
H629 H 0.3505 0.28629 0.86701 0.0
H630 H 0.42075 0.24126 0.82208 0.0
H631 H 0.38597 0.26312 0.79565 0.0
H632 H 0.33631 0.14859 0.07316 0.0
H633 H 0.30254 0.17254 0.055 0.0
H634 H 0.38523 0.15488 0.11229 0.0
H635 H 0.42055 0.16252 0.05929 0.0
C636 C 0.30951 0.85042 0.4559 0.0
C637 C 0.28898 0.83902 0.52024 0.0
C638 C 0.28715 0.89337 0.58887 0.0
C639 C 0.30478 0.90501 0.51825 0.0
N640 N 0.32473 0.89549 0.37122 0.0
N641 N 0.2531 0.85094 0.63776 0.0
C642 C 0.31328 0.8838 0.44733 0.0
C643 C 0.27622 0.86089 0.58387 0.0
N644 N 0.32737 0.82951 0.40737 0.0
N645 N 0.28203 0.91277 0.6624 0.0
H646 H 0.24416 0.82752 0.63478 0.0
H647 H 0.24069 0.86658 0.67913 0.0
H648 H 0.29002 0.93649 0.66923 0.0
H649 H 0.27231 0.90451 0.71988 0.0
H650 H 0.34473 0.83684 0.36499 0.0
H651 H 0.328 0.80515 0.41899 0.0
H652 H 0.32854 0.88101 0.31439 0.0
H653 H 0.32704 0.91996 0.36136 0.0
C654 C 0.66687 0.74831 0.96689 0.0
C655 C 0.68118 0.77904 -0.01454 0.0
C656 C 0.62964 0.80015 0.03192 0.0
C657 C 0.61584 0.76921 0.01604 0.0
N658 N 0.61733 0.71734 0.94112 0.0
N659 N 0.67407 0.8359 0.00672 0.0
C660 C 0.63315 0.7446 0.97311 0.0
C661 C 0.66178 0.8056 0.00844 0.0
N662 N 0.68566 0.72216 0.95085 0.0
N663 N 0.61272 0.8237 0.07374 0.0
H664 H 0.69723 0.8403 -0.01335 0.0
H665 H 0.6604 0.85648 0.016 0.0
H666 H 0.58876 0.82068 0.08891 0.0
H667 H 0.6229 0.84556 0.09704 0.0
H668 H 0.67681 0.69875 0.94701 0.0
H669 H 0.71065 0.72337 0.949 0.0
H670 H 0.628 0.69953 0.90237 0.0
H671 H 0.59253 0.71424 0.9458 0.0
loop_
_geom_bond_atom_site_label_1
_geom_bond_atom_site_label_2
_geom_bond_distance
_geom_bond_site_symmetry_2
_ccdc_geom_bond_type
Sc0 O3 2.025 . S
Sc0 O10 2.105 . S
Sc0 O13 2.105 . S
Sc0 O16 2.105 . S
Sc0 O19 2.105 . S
Sc1 O3 2.025 . S
Sc1 O11 2.108 . S
Sc1 O15 2.102 1_554 S
Sc1 O17 2.108 . S
Sc1 O21 2.102 1_554 S
Sc2 O3 2.025 1_556 S
Sc2 O12 2.105 . S
Sc2 O14 2.105 . S
Sc2 O18 2.105 . S
Sc2 O20 2.105 . S
O3 Sc0 2.025 . S
O3 Sc1 2.025 . S
O3 Sc2 2.025 1_554 S
C4 O10 1.268 . S
C4 O20 1.268 1_554 S
C5 O11 1.268 . S
C5 O19 1.268 . S
C6 O12 1.268 . S
C6 O21 1.268 . S
C7 O13 1.268 . S
C7 O17 1.268 . S
C8 O14 1.268 1_554 S
C8 O16 1.268 . S
C9 O15 1.268 . S
C9 O18 1.268 . S
O10 Sc0 2.105 . S
O10 C4 1.268 . S
O11 Sc1 2.108 . S
O11 C5 1.268 . S
O12 Sc2 2.105 . S
O12 C6 1.268 . S
O13 Sc0 2.105 . S
O13 C7 1.268 . S
O14 Sc2 2.105 . S
O14 C8 1.268 1_556 S
O15 Sc1 2.102 1_556 S
O15 C9 1.268 . S
O16 Sc0 2.105 . S
O16 C8 1.268 . S
O17 Sc1 2.108 . S
O17 C7 1.268 . S
O18 Sc2 2.105 . S
O18 C9 1.268 . S
O19 Sc0 2.105 . S
O19 C5 1.268 . S
O20 Sc2 2.105 . S
O20 C4 1.268 1_556 S
O21 Sc1 2.102 1_556 S
O21 C6 1.268 . S
Sc22 O25 2.025 . S
Sc22 O32 2.105 . S
Sc22 O35 2.105 . S
Sc22 O38 2.105 . S
Sc22 O41 2.105 . S
Sc23 O25 2.025 . S
Sc23 O33 2.105 . S
Sc23 O37 2.105 . S
Sc23 O39 2.105 . S
Sc23 O43 2.105 . S
Sc24 O25 2.025 . S
Sc24 O34 2.105 . S
Sc24 O36 2.105 . S
Sc24 O40 2.105 . S
Sc24 O42 2.105 . S
O25 Sc22 2.025 . S
O25 Sc23 2.025 . S
O25 Sc24 2.025 . S
C26 O32 1.268 . S
C26 O42 1.268 . S
C27 O33 1.268 . S
C27 O41 1.268 . S
C28 O34 1.268 . S
C28 O43 1.268 . S
C29 O35 1.268 . S
C29 O39 1.268 . S
C30 O36 1.268 . S
C30 O38 1.268 . S
C31 O37 1.268 . S
C31 O40 1.268 . S
O32 Sc22 2.105 . S
O32 C26 1.268 . S
O33 Sc23 2.105 . S
O33 C27 1.268 . S
O34 Sc24 2.105 . S
O34 C28 1.268 . S
O35 Sc22 2.105 . S
O35 C29 1.268 . S
O36 Sc24 2.105 . S
O36 C30 1.268 . S
O37 Sc23 2.105 . S
O37 C31 1.268 . S
O38 Sc22 2.105 . S
O38 C30 1.268 . S
O39 Sc23 2.105 . S
O39 C29 1.268 . S
O40 Sc24 2.105 . S
O40 C31 1.268 . S
O41 Sc22 2.105 . S
O41 C27 1.268 . S
O42 Sc24 2.105 . S
O42 C26 1.268 . S
O43 Sc23 2.105 . S
O43 C28 1.268 . S
Sc44 O47 2.025 1_556 S
Sc44 O54 2.105 . S
Sc44 O57 2.105 . S
Sc44 O60 2.105 . S
Sc44 O63 2.105 . S
Sc45 O47 2.025 . S
Sc45 O55 2.105 1_554 S
Sc45 O59 2.105 . S
Sc45 O61 2.105 1_554 S
Sc45 O65 2.105 . S
Sc46 O47 2.025 . S
Sc46 O56 2.105 . S
Sc46 O58 2.105 . S
Sc46 O62 2.105 . S
Sc46 O64 2.105 . S
O47 Sc44 2.025 1_554 S
O47 Sc45 2.025 . S
O47 Sc46 2.025 . S
C48 O54 1.268 1_554 S
C48 O64 1.268 . S
C49 O55 1.268 . S
C49 O63 1.268 . S
C50 O56 1.268 . S
C50 O65 1.268 . S
C51 O57 1.268 . S
C51 O61 1.268 . S
C52 O58 1.268 . S
C52 O60 1.268 1_554 S
C53 O59 1.268 . S
C53 O62 1.268 . S
O54 Sc44 2.105 . S
O54 C48 1.268 1_556 S
O55 Sc45 2.105 1_556 S
O55 C49 1.268 . S
O56 Sc46 2.105 . S
O56 C50 1.268 . S
O57 Sc44 2.105 . S
O57 C51 1.268 . S
O58 Sc46 2.105 . S
O58 C52 1.268 . S
O59 Sc45 2.105 . S
O59 C53 1.268 . S
O60 Sc44 2.105 . S
O60 C52 1.268 1_556 S
O61 Sc45 2.105 1_556 S
O61 C51 1.268 . S
O62 Sc46 2.105 . S
O62 C53 1.268 . S
O63 Sc44 2.105 . S
O63 C49 1.268 . S
O64 Sc46 2.105 . S
O64 C48 1.268 . S
O65 Sc45 2.105 . S
O65 C50 1.268 . S
Sc66 O69 2.025 . S
Sc66 O76 2.105 . S
Sc66 O79 2.105 . S
Sc66 O82 2.105 . S
Sc66 O85 2.105 . S
Sc67 O69 2.025 . S
Sc67 O77 2.105 . S
Sc67 O81 2.105 . S
Sc67 O83 2.105 . S
Sc67 O87 2.105 . S
Sc68 O69 2.025 . S
Sc68 O78 2.105 . S
Sc68 O80 2.105 . S
Sc68 O84 2.105 . S
Sc68 O86 2.105 . S
O69 Sc66 2.025 . S
O69 Sc67 2.025 . S
O69 Sc68 2.025 . S
C70 O76 1.268 . S
C70 O86 1.268 . S
C71 O77 1.268 . S
C71 O85 1.268 . S
C72 O78 1.268 . S
C72 O87 1.268 . S
C73 O79 1.268 . S
C73 O83 1.268 . S
C74 O80 1.268 . S
C74 O82 1.268 . S
C75 O81 1.268 . S
C75 O84 1.268 . S
O76 Sc66 2.105 . S
O76 C70 1.268 . S
O77 Sc67 2.105 . S
O77 C71 1.268 . S
O78 Sc68 2.105 . S
O78 C72 1.268 . S
O79 Sc66 2.105 . S
O79 C73 1.268 . S
O80 Sc68 2.105 . S
O80 C74 1.268 . S
O81 Sc67 2.105 . S
O81 C75 1.268 . S
O82 Sc66 2.105 . S
O82 C74 1.268 . S
O83 Sc67 2.105 . S
O83 C73 1.268 . S
O84 Sc68 2.105 . S
O84 C75 1.268 . S
O85 Sc66 2.105 . S
O85 C71 1.268 . S
O86 Sc68 2.105 . S
O86 C70 1.268 . S
O87 Sc67 2.105 . S
O87 C72 1.268 . S
H88 C89 0.949 . S
C89 H88 0.949 . S
C89 C90 1.395 . S
C89 C91 1.391 1_554 S
C90 C89 1.395 . S
C90 C93 1.390 . S
C91 C89 1.391 1_556 S
C91 C95 1.387 . S
C91 C96 1.491 . S
H92 C93 0.950 . S
C93 C90 1.390 . S
C93 H92 0.950 . S
C93 C94 1.378 1_554 S
C94 C93 1.378 1_556 S
C94 C95 1.409 . S
C95 C91 1.387 . S
C95 C94 1.409 . S
C95 H97 0.951 . S
C96 C91 1.491 . S
C96 C98 1.382 1_556 S
C96 C100 1.404 . S
H97 C95 0.951 . S
C98 C96 1.382 1_554 S
C98 C99 1.390 1_554 S
C98 H103 0.949 . S
C99 C98 1.390 1_556 S
C99 C104 1.399 . S
C100 C96 1.404 . S
C100 H101 0.950 . S
C100 C102 1.375 . S
H101 C100 0.950 . S
C102 C100 1.375 . S
C102 C104 1.382 . S
C102 H106 0.950 . S
H103 C98 0.949 . S
C104 C99 1.399 . S
C104 C102 1.382 . S
C104 H105 0.952 . S
H105 C104 0.952 . S
H106 C102 0.950 . S
H107 C108 0.949 . S
C108 H107 0.949 . S
C108 C109 1.395 . S
C108 C110 1.391 . S
C109 C108 1.395 . S
C109 C112 1.390 . S
C110 C108 1.391 . S
C110 C114 1.387 . S
C110 C115 1.491 1_655 S
H111 C112 0.950 . S
C112 C109 1.390 . S
C112 H111 0.950 . S
C112 C113 1.378 . S
C113 C112 1.378 . S
C113 C114 1.409 . S
C114 C110 1.387 . S
C114 C113 1.409 . S
C114 H116 0.951 . S
C115 C110 1.491 1_455 S
C115 C117 1.382 . S
C115 C119 1.404 . S
H116 C114 0.951 . S
C117 C115 1.382 . S
C117 C118 1.390 . S
C117 H122 0.949 . S
C118 C117 1.390 . S
C118 C123 1.399 . S
C119 C115 1.404 . S
C119 H120 0.950 . S
C119 C121 1.375 . S
H120 C119 0.950 . S
C121 C119 1.375 . S
C121 C123 1.382 . S
C121 H125 0.950 . S
H122 C117 0.949 . S
C123 C118 1.399 . S
C123 C121 1.382 . S
C123 H124 0.952 . S
H124 C123 0.952 . S
H125 C121 0.950 . S
H126 C127 0.949 . S
C127 H126 0.949 . S
C127 C128 1.395 . S
C127 C129 1.391 1_556 S
C128 C127 1.395 . S
C128 C131 1.390 1_556 S
C129 C127 1.391 1_554 S
C129 C133 1.387 . S
C129 C134 1.491 . S
H130 C131 0.950 . S
C131 C128 1.390 1_554 S
C131 H130 0.950 . S
C131 C132 1.378 . S
C132 C131 1.378 . S
C132 C133 1.409 . S
C133 C129 1.387 . S
C133 C132 1.409 . S
C133 H135 0.951 . S
C134 C129 1.491 . S
C134 C136 1.382 . S
C134 C138 1.404 . S
H135 C133 0.951 . S
C136 C134 1.382 . S
C136 C137 1.390 . S
C136 H141 0.949 1_554 S
C137 C136 1.390 . S
C137 C142 1.399 . S
C138 C134 1.404 . S
C138 H139 0.950 . S
C138 C140 1.375 . S
H139 C138 0.950 . S
C140 C138 1.375 . S
C140 C142 1.382 . S
C140 H144 0.950 . S
H141 C136 0.949 1_556 S
C142 C137 1.399 . S
C142 C140 1.382 . S
C142 H143 0.952 . S
H143 C142 0.952 . S
H144 C140 0.950 . S
H145 C146 0.949 . S
C146 H145 0.949 . S
C146 C147 1.395 . S
C146 C148 1.391 . S
C147 C146 1.395 . S
C147 C150 1.390 . S
C148 C146 1.391 . S
C148 C152 1.387 . S
C148 C153 1.491 1_455 S
H149 C150 0.950 . S
C150 C147 1.390 . S
C150 H149 0.950 . S
C150 C151 1.378 . S
C151 C150 1.378 . S
C151 C152 1.409 . S
C152 C148 1.387 . S
C152 C151 1.409 . S
C152 H154 0.951 . S
C153 C148 1.491 1_655 S
C153 C155 1.382 . S
C153 C157 1.404 . S
H154 C152 0.951 . S
C155 C153 1.382 . S
C155 C156 1.390 . S
C155 H160 0.949 . S
C156 C155 1.390 . S
C156 C161 1.399 . S
C157 C153 1.404 . S
C157 H158 0.950 . S
C157 C159 1.375 . S
H158 C157 0.950 . S
C159 C157 1.375 . S
C159 C161 1.382 . S
C159 H163 0.950 . S
H160 C155 0.949 . S
C161 C156 1.399 . S
C161 C159 1.382 . S
C161 H162 0.952 . S
H162 C161 0.952 . S
H163 C159 0.950 . S
H164 C165 0.949 . S
C165 H164 0.949 . S
C165 C166 1.395 . S
C165 C167 1.391 . S
C166 C165 1.395 . S
C166 C169 1.390 . S
C167 C165 1.391 . S
C167 C171 1.387 . S
C167 C172 1.491 1_565 S
H168 C169 0.950 . S
C169 C166 1.390 . S
C169 H168 0.950 . S
C169 C170 1.378 . S
C170 C169 1.378 . S
C170 C171 1.409 . S
C171 C167 1.387 . S
C171 C170 1.409 . S
C171 H173 0.951 . S
C172 C167 1.491 1_545 S
C172 C174 1.382 . S
C172 C176 1.404 . S
H173 C171 0.951 . S
C174 C172 1.382 . S
C174 C175 1.390 . S
C174 H179 0.949 . S
C175 C174 1.390 . S
C175 C180 1.399 . S
C176 C172 1.404 . S
C176 H177 0.950 . S
C176 C178 1.375 . S
H177 C176 0.950 . S
C178 C176 1.375 . S
C178 C180 1.382 . S
C178 H182 0.950 . S
H179 C174 0.949 . S
C180 C175 1.399 . S
C180 C178 1.382 . S
C180 H181 0.952 . S
H181 C180 0.952 . S
H182 C178 0.950 . S
H183 C184 0.949 . S
C184 H183 0.949 . S
C184 C185 1.395 . S
C184 C186 1.391 1_554 S
C185 C184 1.395 . S
C185 C188 1.390 . S
C186 C184 1.391 1_556 S
C186 C190 1.387 . S
C186 C191 1.491 . S
H187 C188 0.950 . S
C188 C185 1.390 . S
C188 H187 0.950 . S
C188 C189 1.378 1_554 S
C189 C188 1.378 1_556 S
C189 C190 1.409 . S
C190 C186 1.387 . S
C190 C189 1.409 . S
C190 H192 0.951 . S
C191 C186 1.491 . S
C191 C193 1.382 1_556 S
C191 C195 1.404 . S
H192 C190 0.951 . S
C193 C191 1.382 1_554 S
C193 C194 1.390 1_554 S
C193 H198 0.949 . S
C194 C193 1.390 1_556 S
C194 C199 1.399 . S
C195 C191 1.404 . S
C195 H196 0.950 . S
C195 C197 1.375 . S
H196 C195 0.950 . S
C197 C195 1.375 . S
C197 C199 1.382 . S
C197 H201 0.950 . S
H198 C193 0.949 . S
C199 C194 1.399 . S
C199 C197 1.382 . S
C199 H200 0.952 . S
H200 C199 0.952 . S
H201 C197 0.950 . S
H202 C203 0.949 . S
C203 H202 0.949 . S
C203 C204 1.395 . S
C203 C205 1.391 . S
C204 C203 1.395 . S
C204 C207 1.390 . S
C205 C203 1.391 . S
C205 C209 1.387 . S
C205 C210 1.491 1_545 S
H206 C207 0.950 . S
C207 C204 1.390 . S
C207 H206 0.950 . S
C207 C208 1.378 . S
C208 C207 1.378 . S
C208 C209 1.409 . S
C209 C205 1.387 . S
C209 C208 1.409 . S
C209 H211 0.951 . S
C210 C205 1.491 1_565 S
C210 C212 1.382 . S
C210 C214 1.404 . S
H211 C209 0.951 . S
C212 C210 1.382 . S
C212 C213 1.390 . S
C212 H217 0.949 . S
C213 C212 1.390 . S
C213 C218 1.399 . S
C214 C210 1.404 . S
C214 H215 0.950 . S
C214 C216 1.375 . S
H215 C214 0.950 . S
C216 C214 1.375 . S
C216 C218 1.382 . S
C216 H220 0.950 . S
H217 C212 0.949 . S
C218 C213 1.399 . S
C218 C216 1.382 . S
C218 H219 0.952 . S
H219 C218 0.952 . S
H220 C216 0.950 . S
H221 C222 0.949 . S
C222 H221 0.949 . S
C222 C223 1.395 . S
C222 C224 1.391 1_556 S
C223 C222 1.395 . S
C223 C226 1.390 1_556 S
C224 C222 1.391 1_554 S
C224 C228 1.387 . S
C224 C229 1.491 . S
H225 C226 0.950 . S
C226 C223 1.390 1_554 S
C226 H225 0.950 . S
C226 C227 1.378 . S
C227 C226 1.378 . S
C227 C228 1.409 . S
C228 C224 1.387 . S
C228 C227 1.409 . S
C228 H230 0.951 . S
C229 C224 1.491 . S
C229 C231 1.382 . S
C229 C233 1.404 . S
H230 C228 0.951 . S
C231 C229 1.382 . S
C231 C232 1.390 . S
C231 H236 0.949 1_554 S
C232 C231 1.390 . S
C232 C237 1.399 . S
C233 C229 1.404 . S
C233 H234 0.950 . S
C233 C235 1.375 . S
H234 C233 0.950 . S
C235 C233 1.375 . S
C235 C237 1.382 . S
C235 H239 0.950 . S
H236 C231 0.949 1_556 S
C237 C232 1.399 . S
C237 C235 1.382 . S
C237 H238 0.952 . S
H238 C237 0.952 . S
H239 C235 0.950 . S
C240 C241 1.363 . S
C240 C246 1.379 . S
C240 N248 1.356 . S
C241 C240 1.363 . S
C241 C247 1.363 . S
C242 C243 1.363 . S
C242 C247 1.379 . S
C242 N249 1.356 . S
C243 C242 1.363 . S
C243 C246 1.363 . S
N244 C246 1.356 . S
N244 H256 0.984 . S
N244 H257 0.985 . S
N245 C247 1.356 . S
N245 H250 0.984 . S
N245 H251 0.985 . S
C246 C240 1.379 . S
C246 C243 1.363 . S
C246 N244 1.356 . S
C247 C241 1.363 . S
C247 C242 1.379 . S
C247 N245 1.356 . S
N248 C240 1.356 . S
N248 H254 0.984 . S
N248 H255 0.984 . S
N249 C242 1.356 . S
N249 H252 0.984 . S
N249 H253 0.985 . S
H250 N245 0.984 . S
H251 N245 0.985 . S
H252 N249 0.984 . S
H253 N249 0.985 . S
H254 N248 0.984 . S
H255 N248 0.984 . S
H256 N244 0.984 . S
H257 N244 0.985 . S
C258 C259 1.363 . S
C258 C264 1.379 . S
C258 N266 1.356 . S
C259 C258 1.363 . S
C259 C265 1.363 . S
C260 C261 1.363 . S
C260 C265 1.379 . S
C260 N267 1.356 . S
C261 C260 1.363 . S
C261 C264 1.363 . S
N262 C264 1.356 . S
N262 H274 0.984 . S
N262 H275 0.985 . S
N263 C265 1.356 . S
N263 H268 0.984 . S
N263 H269 0.985 . S
C264 C258 1.379 . S
C264 C261 1.363 . S
C264 N262 1.356 . S
C265 C259 1.363 . S
C265 C260 1.379 . S
C265 N263 1.356 . S
N266 C258 1.356 . S
N266 H272 0.984 . S
N266 H273 0.984 . S
N267 C260 1.356 . S
N267 H270 0.984 . S
N267 H271 0.985 . S
H268 N263 0.984 . S
H269 N263 0.985 . S
H270 N267 0.984 . S
H271 N267 0.985 . S
H272 N266 0.984 . S
H273 N266 0.984 . S
H274 N262 0.984 . S
H275 N262 0.985 . S
C276 C277 1.363 . S
C276 C282 1.379 . S
C276 N284 1.356 . S
C277 C276 1.363 . S
C277 C283 1.363 . S
C278 C279 1.363 . S
C278 C283 1.379 . S
C278 N285 1.356 . S
C279 C278 1.363 . S
C279 C282 1.363 . S
N280 C282 1.356 . S
N280 H292 0.984 . S
N280 H293 0.985 . S
N281 C283 1.356 . S
N281 H286 0.984 . S
N281 H287 0.985 . S
C282 C276 1.379 . S
C282 C279 1.363 . S
C282 N280 1.356 . S
C283 C277 1.363 . S
C283 C278 1.379 . S
C283 N281 1.356 . S
N284 C276 1.356 . S
N284 H290 0.984 . S
N284 H291 0.984 . S
N285 C278 1.356 . S
N285 H288 0.984 . S
N285 H289 0.985 . S
H286 N281 0.984 . S
H287 N281 0.985 . S
H288 N285 0.984 . S
H289 N285 0.985 . S
H290 N284 0.984 . S
H291 N284 0.984 . S
H292 N280 0.984 . S
H293 N280 0.985 . S
C294 C295 1.363 . S
C294 C300 1.379 . S
C294 N302 1.356 . S
C295 C294 1.363 . S
C295 C301 1.363 . S
C296 C297 1.363 . S
C296 C301 1.379 . S
C296 N303 1.356 . S
C297 C296 1.363 . S
C297 C300 1.363 . S
N298 C300 1.356 . S
N298 H310 0.984 1_556 S
N298 H311 0.985 1_556 S
N299 C301 1.356 . S
N299 H304 0.984 . S
N299 H305 0.985 . S
C300 C294 1.379 . S
C300 C297 1.363 . S
C300 N298 1.356 . S
C301 C295 1.363 . S
C301 C296 1.379 . S
C301 N299 1.356 . S
N302 C294 1.356 . S
N302 H308 0.984 . S
N302 H309 0.984 . S
N303 C296 1.356 . S
N303 H306 0.984 . S
N303 H307 0.985 . S
H304 N299 0.984 . S
H305 N299 0.985 . S
H306 N303 0.984 . S
H307 N303 0.985 . S
H308 N302 0.984 . S
H309 N302 0.984 . S
H310 N298 0.984 1_554 S
H311 N298 0.985 1_554 S
C312 C313 1.363 . S
C312 C318 1.379 . S
C312 N320 1.356 . S
C313 C312 1.363 . S
C313 C319 1.363 . S
C314 C315 1.363 . S
C314 C319 1.379 . S
C314 N321 1.356 . S
C315 C314 1.363 . S
C315 C318 1.363 . S
N316 C318 1.356 . S
N316 H328 0.984 . S
N316 H329 0.985 . S
N317 C319 1.356 . S
N317 H322 0.984 . S
N317 H323 0.985 . S
C318 C312 1.379 . S
C318 C315 1.363 . S
C318 N316 1.356 . S
C319 C313 1.363 . S
C319 C314 1.379 . S
C319 N317 1.356 . S
N320 C312 1.356 . S
N320 H326 0.984 . S
N320 H327 0.984 . S
N321 C314 1.356 . S
N321 H324 0.984 . S
N321 H325 0.985 . S
H322 N317 0.984 . S
H323 N317 0.985 . S
H324 N321 0.984 . S
H325 N321 0.985 . S
H326 N320 0.984 . S
H327 N320 0.984 . S
H328 N316 0.984 . S
H329 N316 0.985 . S
C330 C331 1.363 . S
C330 C336 1.379 . S
C330 N338 1.356 . S
C331 C330 1.363 . S
C331 C337 1.363 . S
C332 C333 1.363 . S
C332 C337 1.379 . S
C332 N339 1.356 . S
C333 C332 1.363 . S
C333 C336 1.363 . S
N334 C336 1.356 . S
N334 H346 0.984 . S
N334 H347 0.985 . S
N335 C337 1.356 . S
N335 H340 0.984 . S
N335 H341 0.985 . S
C336 C330 1.379 . S
C336 C333 1.363 . S
C336 N334 1.356 . S
C337 C331 1.363 . S
C337 C332 1.379 . S
C337 N335 1.356 . S
N338 C330 1.356 . S
N338 H344 0.984 . S
N338 H345 0.984 . S
N339 C332 1.356 . S
N339 H342 0.984 . S
N339 H343 0.985 . S
H340 N335 0.984 . S
H341 N335 0.985 . S
H342 N339 0.984 . S
H343 N339 0.985 . S
H344 N338 0.984 . S
H345 N338 0.984 . S
H346 N334 0.984 . S
H347 N334 0.985 . S
C348 C349 1.363 . S
C348 C354 1.379 . S
C348 N356 1.356 . S
C349 C348 1.363 . S
C349 C355 1.363 . S
C350 C351 1.363 . S
C350 C355 1.379 . S
C350 N357 1.356 . S
C351 C350 1.363 . S
C351 C354 1.363 . S
N352 C354 1.356 . S
N352 H364 0.984 . S
N352 H365 0.985 . S
N353 C355 1.356 . S
N353 H358 0.984 . S
N353 H359 0.985 . S
C354 C348 1.379 . S
C354 C351 1.363 . S
C354 N352 1.356 . S
C355 C349 1.363 . S
C355 C350 1.379 . S
C355 N353 1.356 . S
N356 C348 1.356 . S
N356 H362 0.984 . S
N356 H363 0.984 . S
N357 C350 1.356 . S
N357 H360 0.984 . S
N357 H361 0.985 . S
H358 N353 0.984 . S
H359 N353 0.985 . S
H360 N357 0.984 . S
H361 N357 0.985 . S
H362 N356 0.984 . S
H363 N356 0.984 . S
H364 N352 0.984 . S
H365 N352 0.985 . S
C366 C367 1.363 . S
C366 C372 1.379 . S
C366 N374 1.356 . S
C367 C366 1.363 . S
C367 C373 1.363 . S
C368 C369 1.363 . S
C368 C373 1.379 . S
C368 N375 1.356 . S
C369 C368 1.363 . S
C369 C372 1.363 . S
N370 C372 1.356 . S
N370 H382 0.984 . S
N370 H383 0.985 . S
N371 C373 1.356 . S
N371 H376 0.984 . S
N371 H377 0.985 . S
C372 C366 1.379 . S
C372 C369 1.363 . S
C372 N370 1.356 . S
C373 C367 1.363 . S
C373 C368 1.379 . S
C373 N371 1.356 . S
N374 C366 1.356 . S
N374 H380 0.984 . S
N374 H381 0.984 . S
N375 C368 1.356 . S
N375 H378 0.984 . S
N375 H379 0.985 . S
H376 N371 0.984 . S
H377 N371 0.985 . S
H378 N375 0.984 . S
H379 N375 0.985 . S
H380 N374 0.984 . S
H381 N374 0.984 . S
H382 N370 0.984 . S
H383 N370 0.985 . S
C384 C385 1.363 . S
C384 C390 1.379 . S
C384 N392 1.356 . S
C385 C384 1.363 . S
C385 C391 1.363 . S
C386 C387 1.363 . S
C386 C391 1.379 . S
C386 N393 1.356 . S
C387 C386 1.363 . S
C387 C390 1.363 . S
N388 C390 1.356 . S
N388 H400 0.984 . S
N388 H401 0.985 . S
N389 C391 1.356 . S
N389 H394 0.984 . S
N389 H395 0.985 . S
C390 C384 1.379 . S
C390 C387 1.363 . S
C390 N388 1.356 . S
C391 C385 1.363 . S
C391 C386 1.379 . S
C391 N389 1.356 . S
N392 C384 1.356 . S
N392 H398 0.984 . S
N392 H399 0.984 . S
N393 C386 1.356 . S
N393 H396 0.984 . S
N393 H397 0.985 . S
H394 N389 0.984 . S
H395 N389 0.985 . S
H396 N393 0.984 . S
H397 N393 0.985 . S
H398 N392 0.984 . S
H399 N392 0.984 . S
H400 N388 0.984 . S
H401 N388 0.985 . S
C402 C403 1.363 . S
C402 C408 1.379 . S
C402 N410 1.356 . S
C403 C402 1.363 . S
C403 C409 1.363 . S
C404 C405 1.363 . S
C404 C409 1.379 . S
C404 N411 1.356 . S
C405 C404 1.363 . S
C405 C408 1.363 . S
N406 C408 1.356 . S
N406 H418 0.984 . S
N406 H419 0.985 . S
N407 C409 1.356 . S
N407 H412 0.984 . S
N407 H413 0.985 . S
C408 C402 1.379 . S
C408 C405 1.363 . S
C408 N406 1.356 . S
C409 C403 1.363 . S
C409 C404 1.379 . S
C409 N407 1.356 . S
N410 C402 1.356 . S
N410 H416 0.984 . S
N410 H417 0.984 . S
N411 C404 1.356 . S
N411 H414 0.984 . S
N411 H415 0.985 . S
H412 N407 0.984 . S
H413 N407 0.985 . S
H414 N411 0.984 . S
H415 N411 0.985 . S
H416 N410 0.984 . S
H417 N410 0.984 . S
H418 N406 0.984 . S
H419 N406 0.985 . S
C420 C421 1.363 . S
C420 C426 1.379 . S
C420 N428 1.356 . S
C421 C420 1.363 . S
C421 C427 1.363 . S
C422 C423 1.363 . S
C422 C427 1.379 . S
C422 N429 1.356 . S
C423 C422 1.363 . S
C423 C426 1.363 . S
N424 C426 1.356 . S
N424 H436 0.984 . S
N424 H437 0.985 . S
N425 C427 1.356 . S
N425 H430 0.984 . S
N425 H431 0.985 . S
C426 C420 1.379 . S
C426 C423 1.363 . S
C426 N424 1.356 . S
C427 C421 1.363 . S
C427 C422 1.379 . S
C427 N425 1.356 . S
N428 C420 1.356 . S
N428 H434 0.984 . S
N428 H435 0.984 . S
N429 C422 1.356 . S
N429 H432 0.984 . S
N429 H433 0.985 . S
H430 N425 0.984 . S
H431 N425 0.985 . S
H432 N429 0.984 . S
H433 N429 0.985 . S
H434 N428 0.984 . S
H435 N428 0.984 . S
H436 N424 0.984 . S
H437 N424 0.985 . S
C438 C439 1.363 . S
C438 C444 1.379 . S
C438 N446 1.356 . S
C439 C438 1.363 . S
C439 C445 1.363 . S
C440 C441 1.363 . S
C440 C445 1.379 . S
C440 N447 1.356 . S
C441 C440 1.363 . S
C441 C444 1.363 . S
N442 C444 1.356 . S
N442 H454 0.984 . S
N442 H455 0.985 . S
N443 C445 1.356 . S
N443 H448 0.984 . S
N443 H449 0.985 . S
C444 C438 1.379 . S
C444 C441 1.363 . S
C444 N442 1.356 . S
C445 C439 1.363 . S
C445 C440 1.379 . S
C445 N443 1.356 . S
N446 C438 1.356 . S
N446 H452 0.984 . S
N446 H453 0.984 . S
N447 C440 1.356 . S
N447 H450 0.984 . S
N447 H451 0.985 . S
H448 N443 0.984 . S
H449 N443 0.985 . S
H450 N447 0.984 . S
H451 N447 0.985 . S
H452 N446 0.984 . S
H453 N446 0.984 . S
H454 N442 0.984 . S
H455 N442 0.985 . S
C456 C457 1.363 . S
C456 C462 1.379 . S
C456 N464 1.356 . S
C457 C456 1.363 . S
C457 C463 1.363 . S
C458 C459 1.363 . S
C458 C463 1.379 . S
C458 N465 1.356 . S
C459 C458 1.363 . S
C459 C462 1.363 . S
N460 C462 1.356 . S
N460 H472 0.984 . S
N460 H473 0.985 . S
N461 C463 1.356 . S
N461 H466 0.984 . S
N461 H467 0.985 . S
C462 C456 1.379 . S
C462 C459 1.363 . S
C462 N460 1.356 . S
C463 C457 1.363 . S
C463 C458 1.379 . S
C463 N461 1.356 . S
N464 C456 1.356 . S
N464 H470 0.984 . S
N464 H471 0.984 . S
N465 C458 1.356 . S
N465 H468 0.984 . S
N465 H469 0.985 . S
H466 N461 0.984 . S
H467 N461 0.985 . S
H468 N465 0.984 . S
H469 N465 0.985 . S
H470 N464 0.984 . S
H471 N464 0.984 . S
H472 N460 0.984 . S
H473 N460 0.985 . S
C474 C475 1.363 . S
C474 C480 1.379 . S
C474 N482 1.356 . S
C475 C474 1.363 . S
C475 C481 1.363 . S
C476 C477 1.363 . S
C476 C481 1.379 . S
C476 N483 1.356 . S
C477 C476 1.363 . S
C477 C480 1.363 . S
N478 C480 1.356 . S
N478 H490 0.984 . S
N478 H491 0.985 . S
N479 C481 1.356 . S
N479 H484 0.984 . S
N479 H485 0.985 . S
C480 C474 1.379 . S
C480 C477 1.363 . S
C480 N478 1.356 . S
C481 C475 1.363 . S
C481 C476 1.379 . S
C481 N479 1.356 . S
N482 C474 1.356 . S
N482 H488 0.984 . S
N482 H489 0.984 . S
N483 C476 1.356 . S
N483 H486 0.984 . S
N483 H487 0.985 . S
H484 N479 0.984 . S
H485 N479 0.985 . S
H486 N483 0.984 . S
H487 N483 0.985 . S
H488 N482 0.984 . S
H489 N482 0.984 . S
H490 N478 0.984 . S
H491 N478 0.985 . S
C492 C493 1.363 . S
C492 C498 1.379 . S
C492 N500 1.356 . S
C493 C492 1.363 . S
C493 C499 1.363 . S
C494 C495 1.363 . S
C494 C499 1.379 . S
C494 N501 1.356 . S
C495 C494 1.363 . S
C495 C498 1.363 . S
N496 C498 1.356 . S
N496 H508 0.984 . S
N496 H509 0.985 . S
N497 C499 1.356 . S
N497 H502 0.984 . S
N497 H503 0.985 . S
C498 C492 1.379 . S
C498 C495 1.363 . S
C498 N496 1.356 . S
C499 C493 1.363 . S
C499 C494 1.379 . S
C499 N497 1.356 . S
N500 C492 1.356 . S
N500 H506 0.984 . S
N500 H507 0.984 . S
N501 C494 1.356 . S
N501 H504 0.984 . S
N501 H505 0.985 1_556 S
H502 N497 0.984 . S
H503 N497 0.985 . S
H504 N501 0.984 . S
H505 N501 0.985 1_554 S
H506 N500 0.984 . S
H507 N500 0.984 . S
H508 N496 0.984 . S
H509 N496 0.985 . S
C510 C511 1.363 . S
C510 C516 1.379 . S
C510 N518 1.356 . S
C511 C510 1.363 . S
C511 C517 1.363 . S
C512 C513 1.363 . S
C512 C517 1.379 . S
C512 N519 1.356 . S
C513 C512 1.363 . S
C513 C516 1.363 . S
N514 C516 1.356 . S
N514 H526 0.984 . S
N514 H527 0.985 . S
N515 C517 1.356 . S
N515 H520 0.984 . S
N515 H521 0.985 . S
C516 C510 1.379 . S
C516 C513 1.363 . S
C516 N514 1.356 . S
C517 C511 1.363 . S
C517 C512 1.379 . S
C517 N515 1.356 . S
N518 C510 1.356 . S
N518 H524 0.984 . S
N518 H525 0.984 . S
N519 C512 1.356 . S
N519 H522 0.984 . S
N519 H523 0.985 . S
H520 N515 0.984 . S
H521 N515 0.985 . S
H522 N519 0.984 . S
H523 N519 0.985 . S
H524 N518 0.984 . S
H525 N518 0.984 . S
H526 N514 0.984 . S
H527 N514 0.985 . S
C528 C529 1.363 . S
C528 C534 1.379 . S
C528 N536 1.356 . S
C529 C528 1.363 . S
C529 C535 1.363 1_554 S
C530 C531 1.363 1_556 S
C530 C535 1.379 . S
C530 N537 1.356 . S
C531 C530 1.363 1_554 S
C531 C534 1.363 . S
N532 C534 1.356 . S
N532 H544 0.984 . S
N532 H545 0.985 . S
N533 C535 1.356 . S
N533 H538 0.984 . S
N533 H539 0.985 . S
C534 C528 1.379 . S
C534 C531 1.363 . S
C534 N532 1.356 . S
C535 C529 1.363 1_556 S
C535 C530 1.379 . S
C535 N533 1.356 . S
N536 C528 1.356 . S
N536 H542 0.984 . S
N536 H543 0.984 . S
N537 C530 1.356 . S
N537 H540 0.984 . S
N537 H541 0.985 . S
H538 N533 0.984 . S
H539 N533 0.985 . S
H540 N537 0.984 . S
H541 N537 0.985 . S
H542 N536 0.984 . S
H543 N536 0.984 . S
H544 N532 0.984 . S
H545 N532 0.985 . S
C546 C547 1.363 . S
C546 C552 1.379 . S
C546 N554 1.356 . S
C547 C546 1.363 . S
C547 C553 1.363 . S
C548 C549 1.363 . S
C548 C553 1.379 . S
C548 N555 1.356 . S
C549 C548 1.363 . S
C549 C552 1.363 . S
N550 C552 1.356 . S
N550 H562 0.984 . S
N550 H563 0.985 . S
N551 C553 1.356 . S
N551 H556 0.984 . S
N551 H557 0.985 . S
C552 C546 1.379 . S
C552 C549 1.363 . S
C552 N550 1.356 . S
C553 C547 1.363 . S
C553 C548 1.379 . S
C553 N551 1.356 . S
N554 C546 1.356 . S
N554 H560 0.984 . S
N554 H561 0.984 . S
N555 C548 1.356 . S
N555 H558 0.984 . S
N555 H559 0.985 . S
H556 N551 0.984 . S
H557 N551 0.985 . S
H558 N555 0.984 . S
H559 N555 0.985 . S
H560 N554 0.984 . S
H561 N554 0.984 . S
H562 N550 0.984 . S
H563 N550 0.985 . S
C564 C565 1.363 1_556 S
C564 C570 1.379 . S
C564 N572 1.356 . S
C565 C564 1.363 1_554 S
C565 C571 1.363 . S
C566 C567 1.363 . S
C566 C571 1.379 . S
C566 N573 1.356 . S
C567 C566 1.363 . S
C567 C570 1.363 1_554 S
N568 C570 1.356 . S
N568 H580 0.984 . S
N568 H581 0.985 . S
N569 C571 1.356 . S
N569 H574 0.984 . S
N569 H575 0.985 . S
C570 C564 1.379 . S
C570 C567 1.363 1_556 S
C570 N568 1.356 . S
C571 C565 1.363 . S
C571 C566 1.379 . S
C571 N569 1.356 . S
N572 C564 1.356 . S
N572 H578 0.984 . S
N572 H579 0.984 . S
N573 C566 1.356 . S
N573 H576 0.984 . S
N573 H577 0.985 . S
H574 N569 0.984 . S
H575 N569 0.985 . S
H576 N573 0.984 . S
H577 N573 0.985 . S
H578 N572 0.984 . S
H579 N572 0.984 . S
H580 N568 0.984 . S
H581 N568 0.985 . S
C582 C583 1.363 . S
C582 C588 1.379 . S
C582 N590 1.356 . S
C583 C582 1.363 . S
C583 C589 1.363 . S
C584 C585 1.363 . S
C584 C589 1.379 . S
C584 N591 1.356 . S
C585 C584 1.363 . S
C585 C588 1.363 . S
N586 C588 1.356 . S
N586 H598 0.984 . S
N586 H599 0.985 . S
N587 C589 1.356 . S
N587 H592 0.984 . S
N587 H593 0.985 . S
C588 C582 1.379 . S
C588 C585 1.363 . S
C588 N586 1.356 . S
C589 C583 1.363 . S
C589 C584 1.379 . S
C589 N587 1.356 . S
N590 C582 1.356 . S
N590 H596 0.984 . S
N590 H597 0.984 . S
N591 C584 1.356 . S
N591 H594 0.984 . S
N591 H595 0.985 . S
H592 N587 0.984 . S
H593 N587 0.985 . S
H594 N591 0.984 . S
H595 N591 0.985 . S
H596 N590 0.984 . S
H597 N590 0.984 . S
H598 N586 0.984 . S
H599 N586 0.985 . S
C600 C601 1.363 . S
C600 C606 1.379 . S
C600 N608 1.356 . S
C601 C600 1.363 . S
C601 C607 1.363 . S
C602 C603 1.363 . S
C602 C607 1.379 . S
C602 N609 1.356 . S
C603 C602 1.363 . S
C603 C606 1.363 . S
N604 C606 1.356 . S
N604 H616 0.984 . S
N604 H617 0.985 . S
N605 C607 1.356 . S
N605 H610 0.984 . S
N605 H611 0.985 . S
C606 C600 1.379 . S
C606 C603 1.363 . S
C606 N604 1.356 . S
C607 C601 1.363 . S
C607 C602 1.379 . S
C607 N605 1.356 . S
N608 C600 1.356 . S
N608 H614 0.984 . S
N608 H615 0.984 . S
N609 C602 1.356 . S
N609 H612 0.984 . S
N609 H613 0.985 . S
H610 N605 0.984 . S
H611 N605 0.985 . S
H612 N609 0.984 . S
H613 N609 0.985 . S
H614 N608 0.984 . S
H615 N608 0.984 . S
H616 N604 0.984 . S
H617 N604 0.985 . S
C618 C619 1.363 . S
C618 C624 1.379 . S
C618 N626 1.356 . S
C619 C618 1.363 . S
C619 C625 1.363 . S
C620 C621 1.363 . S
C620 C625 1.379 . S
C620 N627 1.356 . S
C621 C620 1.363 . S
C621 C624 1.363 . S
N622 C624 1.356 . S
N622 H634 0.984 . S
N622 H635 0.985 . S
N623 C625 1.356 1_556 S
N623 H628 0.984 . S
N623 H629 0.985 . S
C624 C618 1.379 . S
C624 C621 1.363 . S
C624 N622 1.356 . S
C625 C619 1.363 . S
C625 C620 1.379 . S
C625 N623 1.356 1_554 S
N626 C618 1.356 . S
N626 H632 0.984 . S
N626 H633 0.984 . S
N627 C620 1.356 . S
N627 H630 0.984 . S
N627 H631 0.985 1_554 S
H628 N623 0.984 . S
H629 N623 0.985 . S
H630 N627 0.984 . S
H631 N627 0.985 1_556 S
H632 N626 0.984 . S
H633 N626 0.984 . S
H634 N622 0.984 . S
H635 N622 0.985 . S
C636 C637 1.363 . S
C636 C642 1.379 . S
C636 N644 1.356 . S
C637 C636 1.363 . S
C637 C643 1.363 . S
C638 C639 1.363 . S
C638 C643 1.379 . S
C638 N645 1.356 . S
C639 C638 1.363 . S
C639 C642 1.363 . S
N640 C642 1.356 . S
N640 H652 0.984 . S
N640 H653 0.985 . S
N641 C643 1.356 . S
N641 H646 0.984 . S
N641 H647 0.985 . S
C642 C636 1.379 . S
C642 C639 1.363 . S
C642 N640 1.356 . S
C643 C637 1.363 . S
C643 C638 1.379 . S
C643 N641 1.356 . S
N644 C636 1.356 . S
N644 H650 0.984 . S
N644 H651 0.984 . S
N645 C638 1.356 . S
N645 H648 0.984 . S
N645 H649 0.985 . S
H646 N641 0.984 . S
H647 N641 0.985 . S
H648 N645 0.984 . S
H649 N645 0.985 . S
H650 N644 0.984 . S
H651 N644 0.984 . S
H652 N640 0.984 . S
H653 N640 0.985 . S
C654 C655 1.363 . S
C654 C660 1.379 . S
C654 N662 1.356 . S
C655 C654 1.363 . S
C655 C661 1.363 . S
C656 C657 1.363 . S
C656 C661 1.379 . S
C656 N663 1.356 . S
C657 C656 1.363 . S
C657 C660 1.363 . S
N658 C660 1.356 1_556 S
N658 H670 0.984 . S
N658 H671 0.985 . S
N659 C661 1.356 . S
N659 H664 0.984 . S
N659 H665 0.985 . S
C660 C654 1.379 . S
C660 C657 1.363 . S
C660 N658 1.356 1_554 S
C661 C655 1.363 . S
C661 C656 1.379 . S
C661 N659 1.356 . S
N662 C654 1.356 . S
N662 H668 0.984 1_554 S
N662 H669 0.984 . S
N663 C656 1.356 . S
N663 H666 0.984 . S
N663 H667 0.985 . S
H664 N659 0.984 . S
H665 N659 0.985 . S
H666 N663 0.984 . S
H667 N663 0.985 . S
H668 N662 0.984 1_556 S
H669 N662 0.984 . S
H670 N658 0.984 . S
H671 N658 0.985 . S
C241 C5 1.473 . S
C243 C151 1.483 . S
C259 C31 1.502 . S
C261 C94 1.503 . S
C279 C109 1.496 . S
C277 C53 1.542 . S
C295 C71 1.511 . S
C297 C128 1.475 . S
C315 C185 1.475 . S
C313 C75 1.511 . S
C333 C204 1.496 . S
C331 C9 1.542 . S
C351 C227 1.504 . S
C349 C27 1.502 . S
C369 C170 1.483 . S
C367 C49 1.473 . S
C385 C51 1.473 . S
C387 C113 1.486 . S
C403 C72 1.502 . S
C405 C132 1.507 . S
C421 C6 1.542 . S
C423 C147 1.495 . S
C441 C90 1.474 . S
C439 C29 1.511 . S
C457 C28 1.511 . S
C459 C223 1.474 . S
C477 C166 1.495 . S
C475 C50 1.542 . S
C495 C189 1.507 . S
C493 C73 1.502 . S
C511 C7 1.473 . S
C513 C208 1.486 . S
C531 C99 1.365 1_554 S
C529 C4 1.516 . S
C549 C118 1.430 . S
C547 C30 1.514 . S
C565 C52 1.516 . S
C567 C137 1.428 . S
C583 C70 1.514 . S
C585 C156 1.368 . S
C603 C175 1.369 . S
C601 C74 1.514 . S
C619 C8 1.516 . S
C621 C194 1.428 1_554 S
C637 C26 1.514 . S
C639 C213 1.431 . S
C655 C48 1.516 . S
C657 C232 1.365 . S
