# Generated by pormake.
# Topology zzz, (3,6)-cn, num edge types: 1
# Building blocks:
#     Node 0, Type 0, BuildingBlock: ESEHIV_clean_linker_0, # of connection points: 3
#     Node 1, Type 0, BuildingBlock: ESEHIV_clean_linker_0, # of connection points: 3
#     Node 2, Type 0, BuildingBlock: ESEHIV_clean_linker_0, # of connection points: 3
#     Node 3, Type 0, BuildingBlock: ESEHIV_clean_linker_0, # of connection points: 3
#     Node 4, Type 0, BuildingBlock: ESEHIV_clean_linker_0, # of connection points: 3
#     Node 5, Type 0, BuildingBlock: ESEHIV_clean_linker_0, # of connection points: 3
#     Node 6, Type 0, BuildingBlock: ESEHIV_clean_linker_0, # of connection points: 3
#     Node 7, Type 0, BuildingBlock: ESEHIV_clean_linker_0, # of connection points: 3
#     Node 8, Type 1, BuildingBlock: BETGAK_clean_sbu_0, # of connection points: 6
#     Node 9, Type 1, BuildingBlock: BETGAK_clean_sbu_0, # of connection points: 6
#     Node 10, Type 1, BuildingBlock: BETGAK_clean_sbu_0, # of connection points: 6
#     Node 11, Type 1, BuildingBlock: BETGAK_clean_sbu_0, # of connection points: 6
#     Edge 12, Type (0, 1), BuildingBlock: ZUJKAS_clean_linker_0, # of connection points: 2
#     Edge 13, Type (0, 1), BuildingBlock: ZUJKAS_clean_linker_0, # of connection points: 2
#     Edge 14, Type (0, 1), BuildingBlock: ZUJKAS_clean_linker_0, # of connection points: 2
#     Edge 15, Type (0, 1), BuildingBlock: ZUJKAS_clean_linker_0, # of connection points: 2
#     Edge 16, Type (0, 1), BuildingBlock: ZUJKAS_clean_linker_0, # of connection points: 2
#     Edge 17, Type (0, 1), BuildingBlock: ZUJKAS_clean_linker_0, # of connection points: 2
#     Edge 18, Type (0, 1), BuildingBlock: ZUJKAS_clean_linker_0, # of connection points: 2
#     Edge 19, Type (0, 1), BuildingBlock: ZUJKAS_clean_linker_0, # of connection points: 2
#     Edge 20, Type (0, 1), BuildingBlock: ZUJKAS_clean_linker_0, # of connection points: 2
#     Edge 21, Type (0, 1), BuildingBlock: ZUJKAS_clean_linker_0, # of connection points: 2
#     Edge 22, Type (0, 1), BuildingBlock: ZUJKAS_clean_linker_0, # of connection points: 2
#     Edge 23, Type (0, 1), BuildingBlock: ZUJKAS_clean_linker_0, # of connection points: 2
#     Edge 24, Type (0, 1), BuildingBlock: ZUJKAS_clean_linker_0, # of connection points: 2
#     Edge 25, Type (0, 1), BuildingBlock: ZUJKAS_clean_linker_0, # of connection points: 2
#     Edge 26, Type (0, 1), BuildingBlock: ZUJKAS_clean_linker_0, # of connection points: 2
#     Edge 27, Type (0, 1), BuildingBlock: ZUJKAS_clean_linker_0, # of connection points: 2
#     Edge 28, Type (0, 1), BuildingBlock: ZUJKAS_clean_linker_0, # of connection points: 2
#     Edge 29, Type (0, 1), BuildingBlock: ZUJKAS_clean_linker_0, # of connection points: 2
#     Edge 30, Type (0, 1), BuildingBlock: ZUJKAS_clean_linker_0, # of connection points: 2
#     Edge 31, Type (0, 1), BuildingBlock: ZUJKAS_clean_linker_0, # of connection points: 2
#     Edge 32, Type (0, 1), BuildingBlock: ZUJKAS_clean_linker_0, # of connection points: 2
#     Edge 33, Type (0, 1), BuildingBlock: ZUJKAS_clean_linker_0, # of connection points: 2
#     Edge 34, Type (0, 1), BuildingBlock: ZUJKAS_clean_linker_0, # of connection points: 2
#     Edge 35, Type (0, 1), BuildingBlock: ZUJKAS_clean_linker_0, # of connection points: 2
# Relax obj value: 0.450
# Max RMSD: 0.268
# Mean RMSD: 0.253
data_MOF--net-zzz--node1-BETGAK_clean_sbu_0--node2-ESEHIV_clean_linker_0--edge1-ZUJKAS_clean_linker_0
_symmetry_space_group_name_H-M    P1
_symmetry_Int_Tables_number       1
_symmetry_cell_setting            triclinic
loop_
_symmetry_equiv_pos_as_xyz
'x, y, z'
_cell_length_a     60.823863
_cell_length_b     60.828142
_cell_length_c     18.697743
_cell_angle_alpha  89.895914
_cell_angle_beta   90.015141
_cell_angle_gamma 89.995993
loop_
_atom_site_label
_atom_site_type_symbol
_atom_site_fract_x
_atom_site_fract_y
_atom_site_fract_z
_atom_type_partial_charge
H0 H 0.78283 0.46837 0.24456 0.0
H1 H 0.72327 0.47405 0.12423 0.0
H2 H 0.73116 0.51128 0.31895 0.0
C3 C 0.76644 0.4752 0.23918 0.0
C4 C 0.7585 0.48994 0.29087 0.0
C5 C 0.75386 0.46946 0.17948 0.0
C6 C 0.73289 0.47832 0.1711 0.0
C7 C 0.7246 0.49352 0.22056 0.0
C8 C 0.73746 0.49951 0.28069 0.0
H9 H 0.03706 0.78548 0.26408 0.0
H10 H 0.03903 0.72739 0.13489 0.0
H11 H 0.99799 0.72928 0.32326 0.0
C12 C 0.03171 0.76875 0.25388 0.0
C13 C 0.01672 0.75886 0.30074 0.0
C14 C 0.03966 0.75763 0.19378 0.0
C15 C 0.03313 0.73591 0.18202 0.0
C16 C 0.01827 0.72535 0.22838 0.0
C17 C 0.00963 0.73708 0.28749 0.0
H18 H 0.7275 0.02059 0.19644 0.0
H19 H 0.79135 0.01229 0.10367 0.0
H20 H 0.78154 0.99814 0.32732 0.0
C21 C 0.74462 0.01594 0.2021 0.0
C22 C 0.75254 0.00915 0.26936 0.0
C23 C 0.75848 0.01723 0.14237 0.0
C24 C 0.78054 0.01143 0.14977 0.0
C25 C 0.78905 1.0046 0.21579 0.0
C26 C 0.77499 1.00319 0.27597 0.0
H27 H 0.48931 0.72932 0.20418 0.0
H28 H 0.51098 0.78452 0.3307 0.0
H29 H 0.49452 0.79308 0.10812 0.0
C30 C 0.49338 0.74662 0.20858 0.0
C31 C 0.49109 0.76024 0.14855 0.0
C32 C 0.50059 0.755 0.27461 0.0
C33 C 0.50569 0.7777 0.28007 0.0
C34 C 0.50287 0.79161 0.2199 0.0
C35 C 0.49601 0.78254 0.15475 0.0
H36 H 0.22697 0.53622 0.15391 0.0
H37 H 0.28515 0.53893 0.28233 0.0
H38 H 0.28501 0.50158 0.0858 0.0
C39 C 0.24398 0.53157 0.16281 0.0
C40 C 0.25447 0.51794 0.11317 0.0
C41 C 0.25494 0.53916 0.22367 0.0
C42 C 0.27695 0.53348 0.23402 0.0
C43 C 0.28828 0.52022 0.18451 0.0
C44 C 0.27674 0.51202 0.12416 0.0
H45 H 0.97682 0.22807 0.16481 0.0
H46 H 0.97657 0.28746 0.28794 0.0
H47 H 0.01541 0.2835 0.09509 0.0
C48 C 0.98231 0.24489 0.1723 0.0
C49 C 0.99661 0.25433 0.12223 0.0
C50 C 0.9752 0.25663 0.23224 0.0
C51 C 0.98193 0.27841 0.24114 0.0
C52 C 0.99645 0.28829 0.1923 0.0
C53 C 1.00411 0.27609 0.13285 0.0
H54 H 0.28422 0.99286 0.22097 0.0
H55 H 0.22129 1.0044 0.31678 0.0
H56 H 0.2305 0.01712 0.09209 0.0
C57 C 0.26725 0.99806 0.21592 0.0
C58 C 0.25928 1.00498 0.14883 0.0
C59 C 0.25369 0.99774 0.27657 0.0
C60 C 0.23184 1.00441 0.26999 0.0
C61 C 0.22329 0.01132 0.20417 0.0
C62 C 0.23705 0.01182 0.14316 0.0
H63 H 0.54397 0.28339 0.17477 0.0
H64 H 0.50216 0.23208 0.09171 0.0
H65 H 0.53501 0.22409 0.29467 0.0
C66 C 0.53678 0.26714 0.17912 0.0
C67 C 0.54117 0.25457 0.24024 0.0
C68 C 0.52299 0.25932 0.1244 0.0
C69 C 0.51311 0.23835 0.13255 0.0
C70 C 0.51762 0.22554 0.19421 0.0
C71 C 0.53179 0.23376 0.24695 0.0
La72 La 0.02021 0.99908 0.76468 0.0
La73 La 0.99092 0.01442 0.65333 0.0
C74 C 0.0423 0.98954 0.87412 0.0
C75 C 0.05861 0.97226 0.88929 0.0
C76 C 0.07669 0.96866 0.84385 0.0
C77 C 0.09055 0.95063 0.85478 0.0
C78 C 0.08646 0.93574 0.9108 0.0
C79 C 0.06877 0.93995 0.95757 0.0
C80 C 0.05512 0.95807 0.94712 0.0
C81 C 0.03966 1.00235 0.63829 0.0
C82 C 1.00247 0.96342 0.66299 0.0
C83 C 0.96856 0.02426 0.54472 0.0
C84 C 0.95236 0.04177 0.53115 0.0
C85 C 0.93553 0.04637 0.58051 0.0
C86 C 0.92202 0.06473 0.57121 0.0
C87 C 0.92523 0.07898 0.51288 0.0
C88 C 0.94154 0.07375 0.46213 0.0
C89 C 0.95488 0.05529 0.47109 0.0
C90 C 0.97175 0.011 0.78031 0.0
C91 C 0.00876 0.05007 0.75481 0.0
O92 O 0.04809 1.00463 0.82797 0.0
O93 O 0.02215 0.98271 0.86357 0.0
O94 O 0.04358 0.98726 0.68525 0.0
O95 O 0.0259 0.01574 0.66397 0.0
O96 O 0.00947 0.9668 0.72887 0.0
O97 O 0.99746 0.98023 0.62097 0.0
O98 O 0.96284 0.0091 0.59073 0.0
O99 O 0.9888 0.0309 0.55462 0.0
O100 O 0.96779 0.02627 0.73403 0.0
O101 O 0.98531 0.99765 0.75363 0.0
O102 O 1.00175 0.0467 0.68895 0.0
O103 O 0.0137 0.03327 0.79683 0.0
H104 H 0.07979 0.97936 0.79861 0.0
H105 H 0.10412 0.94807 0.81825 0.0
H106 H 0.06469 0.92866 1.00037 0.0
H107 H 0.04123 0.96048 0.98258 0.0
H108 H 0.93322 0.03621 0.62755 0.0
H109 H 0.90949 0.0681 0.61083 0.0
H110 H 0.94488 0.08452 0.41727 0.0
H111 H 0.96782 0.0521 0.43265 0.0
La112 La 0.51234 0.0234 0.76586 0.0
La113 La 0.49997 0.99278 0.65943 0.0
C114 C 0.53211 0.04537 0.85965 0.0
C115 C 0.55215 0.05864 0.85369 0.0
C116 C 0.55774 0.06871 0.78847 0.0
C117 C 0.57832 0.07851 0.77961 0.0
C118 C 0.59379 0.07811 0.83546 0.0
C119 C 0.58769 0.06869 0.90156 0.0
C120 C 0.56704 0.05911 0.91055 0.0
C121 C 0.49745 0.04254 0.64735 0.0
C122 C 0.54846 1.0065 0.65384 0.0
C123 C 0.4796 0.97097 0.56692 0.0
C124 C 0.45926 0.95844 0.5767 0.0
C125 C 0.45352 0.9507 0.64508 0.0
C126 C 0.43256 0.94229 0.65793 0.0
C127 C 0.4169 0.94169 0.60278 0.0
C128 C 0.42312 0.94855 0.53356 0.0
C129 C 0.44414 0.95685 0.52071 0.0
C130 C 0.51507 0.97353 0.77747 0.0
C131 C 0.46383 0.00939 0.77112 0.0
O132 O 0.51507 0.05266 0.8244 0.0
O133 O 0.53499 0.02426 0.85064 0.0
O134 O 0.49306 0.0488 0.71166 0.0
O135 O 0.51016 0.02624 0.65078 0.0
O136 O 0.54456 0.01406 0.71903 0.0
O137 O 0.5319 1.00018 0.61326 0.0
O138 O 0.49672 0.96347 0.60136 0.0
O139 O 0.47738 0.99222 0.57449 0.0
O140 O 0.51894 0.96715 0.71293 0.0
O141 O 0.50238 0.98989 0.7747 0.0
O142 O 0.46779 1.00213 0.70575 0.0
O143 O 0.48037 0.01567 0.81191 0.0
H144 H 0.54652 0.06828 0.74345 0.0
H145 H 0.58236 0.08575 0.72831 0.0
H146 H 0.59927 0.06753 0.94536 0.0
H147 H 0.56311 0.05113 0.96082 0.0
H148 H 0.46493 0.95208 0.68941 0.0
H149 H 0.42837 0.93702 0.71159 0.0
H150 H 0.41137 0.94879 0.49006 0.0
H151 H 0.4482 0.96307 0.46799 0.0
La152 La 0.49408 0.51165 0.74647 0.0
La153 La 0.52365 0.49894 0.63668 0.0
C154 C 0.47358 0.53231 0.84173 0.0
C155 C 0.46462 0.5548 0.83844 0.0
C156 C 0.44192 0.55835 0.8462 0.0
C157 C 0.43292 0.57911 0.83236 0.0
C158 C 0.44648 0.59638 0.80919 0.0
C159 C 0.46919 0.59292 0.80308 0.0
C160 C 0.47819 0.57242 0.81827 0.0
C161 C 0.47362 0.49683 0.63068 0.0
C162 C 0.5105 0.54753 0.634 0.0
C163 C 0.54546 0.48053 0.539 0.0
C164 C 0.56076 0.46192 0.53918 0.0
C165 C 0.57476 0.45853 0.4809 0.0
C166 C 0.58863 0.44022 0.47945 0.0
C167 C 0.58851 0.42491 0.53608 0.0
C168 C 0.5752 0.42908 0.59605 0.0
C169 C 0.56155 0.44749 0.59772 0.0
C170 C 0.54376 0.51303 0.7548 0.0
C171 C 0.5064 0.46271 0.7481 0.0
O172 O 0.46421 0.51837 0.79847 0.0
O173 O 0.49502 0.53048 0.84048 0.0
O174 O 0.46804 0.49264 0.69594 0.0
O175 O 0.49018 0.50935 0.63137 0.0
O176 O 0.50464 0.54361 0.70089 0.0
O177 O 0.5151 0.53087 0.5916 0.0
O178 O 0.55219 0.49781 0.57376 0.0
O179 O 0.52494 0.47584 0.55345 0.0
O180 O 0.54975 0.51753 0.69032 0.0
O181 O 0.5273 0.50059 0.75152 0.0
O182 O 0.51371 0.46673 0.68258 0.0
O183 O 0.50046 0.47913 0.78983 0.0
H184 H 0.43112 0.54496 0.86135 0.0
H185 H 0.41539 0.5816 0.8387 0.0
H186 H 0.48006 0.60622 0.78757 0.0
H187 H 0.49577 0.57032 0.8128 0.0
H188 H 0.57465 0.46979 0.43591 0.0
H189 H 0.59895 0.43769 0.43298 0.0
H190 H 0.57444 0.41756 0.6402 0.0
H191 H 0.55118 0.4501 0.64392 0.0
La192 La 0.99727 0.49311 0.7698 0.0
La193 La 0.01277 0.52001 0.65319 0.0
C194 C 0.98612 0.47294 0.88129 0.0
C195 C 0.96724 0.45819 0.89304 0.0
C196 C 0.96272 0.44088 0.84524 0.0
C197 C 0.94256 0.42992 0.84784 0.0
C198 C 0.92657 0.43626 0.89762 0.0
C199 C 0.93166 0.45253 0.94833 0.0
C200 C 0.95186 0.46336 0.94617 0.0
C201 C 0.99992 0.47131 0.64736 0.0
C202 C 0.96184 0.50942 0.66466 0.0
C203 C 0.02222 0.54075 0.54089 0.0
C204 C 0.0391 0.55737 0.52489 0.0
C205 C 0.04248 0.57553 0.57008 0.0
C206 C 0.06034 0.58958 0.55909 0.0
C207 C 0.07528 0.58559 0.50327 0.0
C208 C 0.07122 0.56788 0.45651 0.0
C209 C 0.05326 0.55402 0.46705 0.0
C210 C 0.01001 0.54151 0.7762 0.0
C211 C 0.04848 0.50322 0.75703 0.0
O212 O 1.0013 0.46587 0.83752 0.0
O213 O 0.98102 0.49351 0.86897 0.0
O214 O 0.98479 0.46868 0.69496 0.0
O215 O 0.01361 0.48526 0.67005 0.0
O216 O 0.96521 0.50422 0.73228 0.0
O217 O 0.97868 0.51278 0.62133 0.0
O218 O 1.00665 0.54669 0.58498 0.0
O219 O 0.02961 0.521 0.55507 0.0
O220 O 0.02526 0.54428 0.72912 0.0
O221 O 0.99631 0.52779 0.75242 0.0
O222 O 0.04497 0.50925 0.69012 0.0
O223 O 0.03173 0.49917 0.80032 0.0
H224 H 0.97423 0.43655 0.80338 0.0
H225 H 0.93896 0.41747 0.80815 0.0
H226 H 0.91961 0.45751 0.98779 0.0
H227 H 0.95498 0.47663 0.98344 0.0
H228 H 0.03178 0.57851 0.61534 0.0
H229 H 0.06279 0.60316 0.59558 0.0
H230 H 0.08256 0.5639 0.41383 0.0
H231 H 0.05101 0.54006 0.43185 0.0
H232 H 0.18879 0.9844 0.17779 0.0
H233 H 0.15214 0.98875 0.22968 0.0
H234 H 0.1684 0.05503 0.29164 0.0
H235 H 0.2052 0.05046 0.24058 0.0
H236 H 0.15794 0.0299 0.40488 0.0
H237 H 0.09343 0.01886 0.19953 0.0
H238 H 0.11385 0.9976 0.19657 0.0
H239 H 0.12154 0.02554 0.17691 0.0
C240 C 0.18403 1.00033 0.19848 0.0
C241 C 0.19967 0.01726 0.20366 0.0
C242 C 0.16308 1.00279 0.22874 0.0
C243 C 0.15734 0.02227 0.2646 0.0
C244 C 0.17231 0.03989 0.26403 0.0
H245 H 0.04096 0.0382 0.54745 0.0
H246 H 0.06794 0.04519 0.45147 0.0
C247 C 0.19327 0.0374 0.23387 0.0
C248 C 0.13778 0.02278 0.31299 0.0
H249 H 0.08256 0.01205 0.32203 0.0
C250 C 0.14141 0.02644 0.38629 0.0
C251 C 0.11613 0.01817 0.28929 0.0
C252 C 0.11093 0.01503 0.21115 0.0
C253 C 0.12431 0.02471 0.4365 0.0
C254 C 0.10293 0.0191 0.41325 0.0
C255 C 0.09899 0.01629 0.33981 0.0
C256 C 0.08516 0.01437 0.46575 0.0
C257 C 0.12931 0.02824 0.51468 0.0
C258 C 0.08568 0.99463 0.50451 0.0
C259 C 0.07041 0.99063 0.55885 0.0
C260 C 0.05427 1.00632 0.57597 0.0
C261 C 0.05323 0.02583 0.53554 0.0
C262 C 0.06859 0.02982 0.48072 0.0
H263 H 0.14557 0.03618 0.52284 0.0
H264 H 0.11642 0.03859 0.53984 0.0
H265 H 0.1294 0.01212 0.54259 0.0
H266 H 0.09828 0.98248 0.49378 0.0
H267 H 0.07159 0.97539 0.58864 0.0
H268 H 0.48438 0.21607 0.2852 0.0
H269 H 0.47755 0.18039 0.34177 0.0
H270 H 0.52343 0.14995 0.19669 0.0
H271 H 0.53059 0.18589 0.14101 0.0
H272 H 0.46468 0.13813 0.30496 0.0
H273 H 0.55224 0.13973 0.39027 0.0
H274 H 0.53903 0.16308 0.34913 0.0
H275 H 0.54799 0.14032 0.29527 0.0
C276 C 0.49226 0.20158 0.26342 0.0
C277 C 0.50777 0.20366 0.2081 0.0
C278 C 0.48852 0.18121 0.29622 0.0
C279 C 0.50036 0.16252 0.27478 0.0
C280 C 0.51442 0.1642 0.21521 0.0
H281 H 0.51786 0.03919 0.51677 0.0
H282 H 0.51737 0.06622 0.41888 0.0
C283 C 0.51822 0.18465 0.18248 0.0
C284 C 0.49956 0.14214 0.31947 0.0
H285 H 0.53094 0.1099 0.42968 0.0
C286 C 0.47921 0.13184 0.33169 0.0
C287 C 0.51849 0.13396 0.355 0.0
C288 C 0.54065 0.1449 0.34748 0.0
C289 C 0.47727 0.11378 0.37858 0.0
C290 C 0.4961 0.10592 0.41514 0.0
C291 C 0.51653 0.11582 0.40146 0.0
C292 C 0.49484 0.0885 0.47137 0.0
C293 C 0.45502 0.10329 0.38869 0.0
C294 C 0.48233 0.09195 0.53349 0.0
C295 C 0.48264 0.07661 0.58944 0.0
C296 C 0.49553 0.05747 0.5847 0.0
C297 C 0.50766 0.05373 0.52187 0.0
C298 C 0.50744 0.06918 0.46596 0.0
H299 H 0.44403 0.10656 0.34238 0.0
H300 H 0.45649 0.08524 0.39618 0.0
H301 H 0.44712 0.11029 0.43706 0.0
H302 H 0.47285 0.1069 0.53981 0.0
H303 H 0.4732 0.08 0.63722 0.0
H304 H 0.31982 0.54883 0.22884 0.0
H305 H 0.355 0.54025 0.28254 0.0
H306 H 0.34677 0.47197 0.22616 0.0
H307 H 0.31019 0.48039 0.17717 0.0
H308 H 0.35947 0.47262 0.35294 0.0
H309 H 0.41495 0.53063 0.22053 0.0
H310 H 0.39281 0.54643 0.25651 0.0
H311 H 0.38741 0.52617 0.18801 0.0
C312 C 0.32555 0.53197 0.22688 0.0
C313 C 0.31194 0.51525 0.19952 0.0
C314 C 0.34601 0.52711 0.25681 0.0
C315 C 0.35405 0.50547 0.25786 0.0
C316 C 0.34111 0.48885 0.22619 0.0
H317 H 0.48172 0.49851 0.48608 0.0
H318 H 0.45462 0.49678 0.3885 0.0
C319 C 0.32026 0.49368 0.19734 0.0
C320 C 0.37453 0.50019 0.29934 0.0
H321 H 0.42475 0.52133 0.34465 0.0
C322 C 0.37391 0.48302 0.34977 0.0
C323 C 0.39392 0.51311 0.29473 0.0
C324 C 0.39735 0.5299 0.23629 0.0
C325 C 0.39126 0.47945 0.39834 0.0
C326 C 0.40936 0.49419 0.39961 0.0
C327 C 0.41072 0.51034 0.34586 0.0
C328 C 0.42625 0.49396 0.45822 0.0
C329 C 0.38985 0.45977 0.44739 0.0
C330 C 0.41962 0.49318 0.53024 0.0
C331 C 0.4351 0.49347 0.58553 0.0
C332 C 0.45767 0.49545 0.57072 0.0
C333 C 0.46444 0.49683 0.49901 0.0
C334 C 0.44891 0.49591 0.44329 0.0
H335 H 0.38108 0.44598 0.4209 0.0
H336 H 0.40636 0.4539 0.46398 0.0
H337 H 0.38025 0.46421 0.49573 0.0
H338 H 0.40236 0.49277 0.54414 0.0
H339 H 0.42927 0.4928 0.64024 0.0
H340 H 0.97162 0.3252 0.18643 0.0
H341 H 0.97913 0.36004 0.2468 0.0
H342 H 0.04406 0.33705 0.30168 0.0
H343 H 0.03641 0.30201 0.24116 0.0
H344 H 0.02038 0.34955 0.41859 0.0
H345 H 0.01516 0.41543 0.21523 0.0
H346 H 0.99207 0.39711 0.2114 0.0
H347 H 0.01919 0.3869 0.19183 0.0
C348 C 0.98784 0.32802 0.20852 0.0
C349 C 1.00359 0.31111 0.20792 0.0
C350 C 0.99214 0.34794 0.24321 0.0
C351 C 0.01226 0.35138 0.27838 0.0
C352 C 0.02849 0.33492 0.27441 0.0
H353 H 0.03435 0.46914 0.55122 0.0
H354 H 0.0402 0.441 0.45818 0.0
C355 C 0.02422 0.31499 0.23922 0.0
C356 C 0.01492 0.37056 0.32742 0.0
H357 H 0.00888 0.42644 0.33786 0.0
C358 C 0.0183 0.36638 0.40055 0.0
C359 C 0.01228 0.39261 0.30431 0.0
C360 C 0.00969 0.39833 0.22627 0.0
C361 C 0.01794 0.38341 0.45128 0.0
C362 C 0.01398 0.40526 0.42867 0.0
C363 C 0.01176 0.40967 0.35527 0.0
C364 C 0.01023 0.42321 0.48137 0.0
C365 C 0.0212 0.37784 0.52922 0.0
C366 C 0.99127 0.42282 0.52401 0.0
C367 C 0.98788 0.4388 0.57644 0.0
C368 C 1.0034 0.45557 0.58781 0.0
C369 C 0.02215 0.45638 0.54384 0.0
C370 C 0.0255 0.44034 0.49075 0.0
H371 H 0.02918 0.36155 0.53627 0.0
H372 H 0.03137 0.39053 0.55614 0.0
H373 H 1.00495 0.37733 0.5562 0.0
H374 H 0.97916 0.40993 0.51722 0.0
H375 H 0.97318 0.43777 0.609 0.0
H376 H 0.80999 0.96533 0.20012 0.0
H377 H 0.84731 0.96082 0.15259 0.0
H378 H 0.85816 0.03057 0.17477 0.0
H379 H 0.8214 0.03477 0.22465 0.0
H380 H 0.85805 0.97711 0.0302 0.0
H381 H 0.91819 0.01052 0.2215 0.0
H382 H 0.89043 1.00385 0.24782 0.0
H383 H 0.89663 0.03008 0.20736 0.0
C384 C 0.82091 0.97939 0.19911 0.0
C385 C 0.81302 1.0003 0.21784 0.0
C386 C 0.84215 0.97691 0.17079 0.0
C387 C 0.85582 0.99532 0.16011 0.0
C388 C 0.84843 0.01594 0.18404 0.0
H389 H 0.94476 0.04033 0.84467 0.0
H390 H 0.91903 0.03391 0.94315 0.0
C391 C 0.82734 0.01836 0.21301 0.0
C392 C 0.87586 0.99377 0.11382 0.0
H393 H 0.92867 0.01252 0.0955 0.0
C394 C 0.87365 0.98435 0.04548 0.0
C395 C 0.89634 1.00327 0.13292 0.0
C396 C 0.90058 0.01227 0.20674 0.0
C397 C 0.89076 0.98523 0.99492 0.0
C398 C 0.91068 0.99582 0.01275 0.0
C399 C 0.91333 1.00448 0.08177 0.0
C400 C 0.92798 0.99981 0.95793 0.0
C401 C 0.88709 0.97581 0.92129 0.0
C402 C 0.94189 0.98284 0.93431 0.0
C403 C 0.95682 0.98653 0.87814 0.0
C404 C 0.95782 1.00717 0.84426 0.0
C405 C 0.94429 0.02422 0.86947 0.0
C406 C 0.92962 0.02061 0.92589 0.0
H407 H 0.87024 0.96909 0.91453 0.0
H408 H 0.88988 0.98871 0.88015 0.0
H409 H 0.89912 0.96243 0.91142 0.0
H410 H 0.94088 0.96666 0.95836 0.0
H411 H 0.96705 0.9731 0.8598 0.0
H412 H 0.54111 0.81505 0.23778 0.0
H413 H 0.54739 0.85272 0.19467 0.0
H414 H 0.47814 0.85878 0.14766 0.0
H415 H 0.47186 0.82229 0.19556 0.0
H416 H 0.54507 0.86462 0.06942 0.0
H417 H 0.48648 0.91947 0.20077 0.0
H418 H 0.49186 0.89233 0.23554 0.0
H419 H 0.4709 0.89668 0.1683 0.0
C420 C 0.52713 0.82504 0.2224 0.0
C421 C 0.50596 0.81585 0.22089 0.0
C422 C 0.53073 0.84648 0.19649 0.0
C423 C 0.51326 0.85899 0.16773 0.0
C424 C 0.49192 0.85019 0.17134 0.0
H425 H 0.51962 0.92917 0.77483 0.0
H426 H 0.52108 0.90376 0.87521 0.0
C427 C 0.48829 0.82912 0.1987 0.0
C428 C 0.51746 0.87929 0.1239 0.0
H429 H 0.49397 0.92806 0.07379 0.0
C430 C 0.53417 0.8787 0.07192 0.0
C431 C 0.50384 0.89822 0.12716 0.0
C432 C 0.48749 0.90176 0.18668 0.0
C433 C 0.53659 0.8955 0.02073 0.0
C434 C 0.52112 0.91296 0.01832 0.0
C435 C 0.50547 0.91444 0.07347 0.0
C436 C 0.52012 0.92892 0.9571 0.0
C437 C 0.55584 0.8942 0.96996 0.0
C438 C 0.51774 0.95172 0.9685 0.0
C439 C 0.51602 0.96634 0.91038 0.0
C440 C 0.517 0.95851 0.8398 0.0
C441 C 0.51926 0.93579 0.82851 0.0
C442 C 0.52035 0.9212 0.88625 0.0
H443 H 0.57022 0.88633 0.99625 0.0
H444 H 0.55132 0.88382 0.92348 0.0
H445 H 0.56089 0.9107 0.95049 0.0
H446 H 0.51724 0.95822 0.02234 0.0
H447 H 0.51412 0.98378 0.9206 0.0
H448 H 0.7158 0.52797 0.1334 0.0
H449 H 0.68089 0.5351 0.07267 0.0
H450 H 0.64939 0.48591 0.20371 0.0
H451 H 0.6846 0.47847 0.26333 0.0
H452 H 0.64348 0.47764 0.06537 0.0
H453 H 0.6233 0.56513 0.10948 0.0
H454 H 0.65083 0.56173 0.07709 0.0
H455 H 0.64335 0.55072 0.16322 0.0
C456 C 0.70116 0.51951 0.15166 0.0
C457 C 0.70275 0.50311 0.2044 0.0
C458 C 0.68116 0.52352 0.11668 0.0
C459 C 0.66229 0.51123 0.13385 0.0
C460 C 0.66361 0.49574 0.1897 0.0
H461 H 0.53956 0.49373 0.88693 0.0
H462 H 0.56648 0.49383 0.98494 0.0
C463 C 0.68365 0.49169 0.22452 0.0
C464 C 0.64232 0.51238 0.08721 0.0
H465 H 0.60613 0.54793 0.00766 0.0
C466 C 0.63508 0.49297 0.05386 0.0
C467 C 0.63137 0.53237 0.07139 0.0
C468 C 0.63748 0.55361 0.10776 0.0
C469 C 0.61789 0.49313 1.00343 0.0
C470 C 0.60733 0.5132 0.98628 0.0
C471 C 0.61421 0.53254 0.02067 0.0
C472 C 0.58999 0.51454 0.92989 0.0
C473 C 0.61184 0.47192 0.96654 0.0
C474 C 0.59383 0.52674 0.8673 0.0
C475 C 0.57847 0.52674 0.81144 0.0
C476 C 0.55885 0.51464 0.81706 0.0
C477 C 0.55457 0.50314 0.88088 0.0
C478 C 0.57 0.50309 0.93675 0.0
H479 H 0.6245 0.45898 0.97455 0.0
H480 H 0.59607 0.46575 0.98863 0.0
H481 H 0.6096 0.47459 0.90822 0.0
H482 H 0.60906 0.53577 0.86076 0.0
H483 H 0.58221 0.53584 0.76309 0.0
H484 H 0.04588 0.69098 0.20782 0.0
H485 H 0.03766 0.65628 0.14846 0.0
H486 H 0.96861 0.67251 0.14857 0.0
H487 H 0.97702 0.7079 0.20622 0.0
H488 H 0.0139 0.6202 0.17104 0.0
H489 H 0.97942 0.66544 0.93766 0.0
H490 H 0.99312 0.6793 0.01017 0.0
H491 H 0.96532 0.66979 0.02075 0.0
C492 C 0.02887 0.68695 0.19659 0.0
C493 C 0.01212 0.70224 0.21115 0.0
C494 C 0.02417 0.66709 0.16247 0.0
C495 C 1.00257 0.66192 0.14198 0.0
C496 C 0.9855 0.67634 0.1619 0.0
H497 H 0.97219 0.54953 0.85328 0.0
H498 H 0.9672 0.5771 0.94862 0.0
C499 C 0.99025 0.69641 0.19596 0.0
C500 C 0.99866 0.64227 0.0956 0.0
H501 H 0.98288 0.62721 0.9267 0.0
C502 C 1.00679 0.62172 0.11806 0.0
C503 C 0.98955 0.64414 0.02592 0.0
C504 C 0.98151 0.66585 0.99668 0.0
C505 C 1.00674 0.60337 0.07228 0.0
C506 C 0.99827 0.60547 1.00226 0.0
C507 C 0.98921 0.62563 0.98071 0.0
C508 C 1.00111 0.58782 0.94804 0.0
C509 C 0.01645 0.58197 0.09799 0.0
C510 C 0.02177 0.5847 0.9164 0.0
C511 C 0.02457 0.56928 0.86178 0.0
C512 C 1.00681 0.55647 0.83789 0.0
C513 C 0.98618 0.55913 0.87083 0.0
C514 C 0.98331 0.57487 0.92507 0.0
H515 H 0.01869 0.58173 0.15697 0.0
H516 H 1.00579 0.56796 0.08224 0.0
H517 H 0.03275 0.57953 0.07248 0.0
H518 H 0.03569 0.59458 0.93299 0.0
H519 H 0.04066 0.56757 0.83755 0.0
H520 H 0.93686 0.27065 0.29528 0.0
H521 H 0.91433 0.25033 0.38294 0.0
H522 H 0.96144 0.19729 0.3796 0.0
H523 H 0.98378 0.21736 0.29369 0.0
H524 H 0.89525 0.20866 0.36259 0.0
H525 H 0.951 0.20598 0.59317 0.0
H526 H 0.95331 0.22668 0.52398 0.0
H527 H 0.96648 0.20028 0.51383 0.0
C528 C 0.94245 0.25479 0.31438 0.0
C529 C 0.96193 0.24544 0.28762 0.0
C530 C 0.92962 0.24326 0.36421 0.0
C531 C 0.93646 0.22254 0.38873 0.0
C532 C 0.95612 0.21349 0.36275 0.0
H533 H 0.9105 0.10041 0.39312 0.0
H534 H 0.90249 0.13925 0.38341 0.0
C535 C 0.96874 0.22483 0.31295 0.0
C536 C 0.9226 0.20884 0.43597 0.0
H537 H 0.93125 0.17118 0.56698 0.0
C538 C 0.90258 0.20092 0.40915 0.0
C539 C 0.93149 0.19942 0.49867 0.0
C540 C 0.95163 0.20878 0.53447 0.0
C541 C 0.89327 0.18152 0.43649 0.0
C542 C 0.90478 0.1696 0.48978 0.0
C543 C 0.92264 0.17972 0.52443 0.0
C544 C 0.90249 0.14538 0.49777 0.0
C545 C 0.87206 0.1733 0.40459 0.0
C546 C 0.90468 0.13539 0.56522 0.0
C547 C 0.91035 0.11318 0.57065 0.0
C548 C 0.91362 0.10047 0.50865 0.0
C549 C 0.90873 0.10986 0.44183 0.0
C550 C 0.90357 0.13211 0.43635 0.0
H551 H 0.8604 0.18718 0.39737 0.0
H552 H 0.87532 0.16637 0.35074 0.0
H553 H 0.86418 0.16055 0.43857 0.0
H554 H 0.90389 0.14518 0.61349 0.0
H555 H 0.91397 0.10657 0.62315 0.0
H556 H 0.23346 0.97162 0.37684 0.0
H557 H 0.24856 0.95876 0.4909 0.0
H558 H 0.30891 0.99355 0.44661 0.0
H559 H 0.29356 1.00738 0.33545 0.0
H560 H 0.281 0.93253 0.51255 0.0
H561 H 0.30278 0.00805 0.65208 0.0
H562 H 0.28373 0.00822 0.57787 0.0
H563 H 0.31294 0.01136 0.56298 0.0
C564 C 0.24974 0.97699 0.39247 0.0
C565 C 0.26236 0.9905 0.34698 0.0
C566 C 0.25834 0.96958 0.45759 0.0
C567 C 0.27966 0.97561 0.47839 0.0
C568 C 0.29213 0.98927 0.43324 0.0
H569 H 0.38786 0.91901 0.51944 0.0
H570 H 0.34828 0.92128 0.52575 0.0
C571 C 0.28351 0.9968 0.36871 0.0
C572 C 0.29039 0.96557 0.54167 0.0
H573 H 0.33192 0.97851 0.65511 0.0
C574 C 0.29161 0.94255 0.5458 0.0
C575 C 0.30323 0.97833 0.58897 0.0
C576 C 0.3003 1.00286 0.59571 0.0
C577 C 0.30816 0.93231 0.58612 0.0
C578 C 0.3243 0.9455 0.61966 0.0
C579 C 0.32034 0.96818 0.62664 0.0
C580 C 0.34731 0.93774 0.62878 0.0
C581 C 0.30909 0.90756 0.58782 0.0
C582 C 0.36038 0.94561 0.6852 0.0
C583 C 0.38329 0.94526 0.67977 0.0
C584 C 0.39351 0.93666 0.6183 0.0
C585 C 0.38047 0.92625 0.56655 0.0
C586 C 0.35765 0.92708 0.57114 0.0
H587 H 0.29244 0.9008 0.59842 0.0
H588 H 0.31428 0.90132 0.53468 0.0
H589 H 0.32057 0.90137 0.62944 0.0
H590 H 0.35291 0.95381 0.7304 0.0
H591 H 0.3928 0.95346 0.7208 0.0
H592 H 0.53681 0.29473 0.30036 0.0
H593 H 0.55997 0.31155 0.39123 0.0
H594 H 0.59883 0.25236 0.40502 0.0
H595 H 0.57559 0.23533 0.31226 0.0
H596 H 0.57132 0.29497 0.53785 0.0
H597 H 0.64251 0.30459 0.3533 0.0
H598 H 0.61571 0.29944 0.31553 0.0
H599 H 0.62917 0.27839 0.3667 0.0
C600 C 0.55027 0.28527 0.32263 0.0
C601 C 0.55463 0.26389 0.29867 0.0
C602 C 0.56335 0.29479 0.37501 0.0
C603 C 0.58108 0.28317 0.40466 0.0
C604 C 0.58522 0.26154 0.38259 0.0
H605 H 0.6103 0.40058 0.63892 0.0
H606 H 0.62025 0.36154 0.63067 0.0
C607 C 0.57196 0.25188 0.32994 0.0
C608 C 0.59561 0.29506 0.45452 0.0
H609 H 0.63619 0.33312 0.43646 0.0
C610 C 0.58619 0.30274 0.51813 0.0
C611 C 0.61526 0.30469 0.42925 0.0
C612 C 0.62644 0.29639 0.36259 0.0
C613 C 0.59344 0.32237 0.54943 0.0
C614 C 0.6107 0.33421 0.51614 0.0
C615 C 0.62273 0.32418 0.46101 0.0
C616 C 0.61095 0.35852 0.51941 0.0
C617 C 0.58045 0.33183 0.61092 0.0
C618 C 0.60383 0.37003 0.45855 0.0
C619 C 0.59819 0.39212 0.46297 0.0
C620 C 0.59955 0.40327 0.5285 0.0
C621 C 0.60864 0.39228 0.588 0.0
C622 C 0.61438 0.37002 0.58341 0.0
H623 H 0.56761 0.32032 0.6306 0.0
H624 H 0.59164 0.33565 0.65606 0.0
H625 H 0.57231 0.34733 0.59405 0.0
H626 H 0.60093 0.36149 0.4086 0.0
H627 H 0.59106 0.39988 0.41622 0.0
H628 H 0.2139 0.53178 0.27516 0.0
H629 H 0.19305 0.55418 0.35852 0.0
H630 H 0.24813 0.59835 0.38095 0.0
H631 H 0.26905 0.5762 0.29451 0.0
H632 H 0.20378 0.56574 0.50201 0.0
H633 H 0.19599 0.63896 0.32418 0.0
H634 H 0.20473 0.6129 0.28805 0.0
H635 H 0.22265 0.62794 0.34631 0.0
C636 C 0.22157 0.54635 0.2972 0.0
C637 C 0.24298 0.55241 0.27751 0.0
C638 C 0.20972 0.55902 0.34544 0.0
C639 C 0.21902 0.57797 0.37556 0.0
C640 C 0.24062 0.58388 0.35773 0.0
H641 H 0.10112 0.6014 0.61287 0.0
H642 H 0.1397 0.61197 0.60427 0.0
C643 C 0.25256 0.57115 0.30887 0.0
C644 C 0.20512 0.5914 0.42328 0.0
H645 H 0.16816 0.63321 0.40875 0.0
C646 C 0.19633 0.58095 0.48362 0.0
C647 C 0.19595 0.61146 0.39964 0.0
C648 C 0.20522 0.62361 0.33605 0.0
C649 C 0.17636 0.58784 0.51335 0.0
C650 C 0.16546 0.6063 0.48317 0.0
C651 C 0.17634 0.61889 0.43092 0.0
C652 C 0.14123 0.60865 0.48916 0.0
C653 C 0.16595 0.57347 0.57002 0.0
C654 C 0.1286 0.60615 0.42677 0.0
C655 C 0.10632 0.60109 0.43121 0.0
C656 C 0.09636 0.59787 0.49815 0.0
C657 C 0.10829 0.60335 0.56026 0.0
C658 C 0.13051 0.6091 0.55559 0.0
H659 H 0.17603 0.55873 0.5826 0.0
H660 H 0.16396 0.58298 0.62014 0.0
H661 H 0.14949 0.56777 0.55225 0.0
H662 H 0.1363 0.60614 0.37453 0.0
H663 H 0.09738 0.59797 0.38216 0.0
H664 H 0.07687 0.74262 0.12524 0.0
H665 H 0.09986 0.76299 0.03924 0.0
H666 H 0.05701 0.81915 0.0599 0.0
H667 H 0.03386 0.79894 0.14284 0.0
H668 H 0.06842 0.80657 0.91523 0.0
H669 H 0.1412 0.8157 0.09359 0.0
H670 H 0.12943 0.78906 0.07539 0.0
H671 H 0.11496 0.80812 0.13128 0.0
C672 C 0.07234 0.75926 0.11074 0.0
C673 C 0.05372 0.76932 0.14136 0.0
C674 C 0.08553 0.77086 0.0621 0.0
C675 C 0.08015 0.79257 0.04368 0.0
C676 C 0.06142 0.80239 0.07346 0.0
H677 H 0.09861 0.91383 0.03261 0.0
H678 H 0.10722 0.87503 0.0414 0.0
C679 C 0.04832 0.7909 0.12147 0.0
C680 C 0.09376 0.80601 0.99499 0.0
H681 H 0.13491 0.84367 0.00917 0.0
C682 C 0.08346 0.81432 0.93367 0.0
C683 C 0.1136 0.81555 0.01875 0.0
C684 C 0.1256 0.80673 0.08326 0.0
C685 C 0.09013 0.83428 0.90317 0.0
C686 C 0.10824 0.84566 0.93363 0.0
C687 C 0.12083 0.83517 0.9868 0.0
C688 C 0.11009 0.86993 0.92697 0.0
C689 C 0.07583 0.8442 0.84539 0.0
C690 C 0.11052 0.88053 0.86025 0.0
C691 C 0.10448 0.90268 0.8549 0.0
C692 C 0.09875 0.91467 0.91659 0.0
C693 C 0.10191 0.90483 0.98384 0.0
C694 C 0.10723 0.88264 0.98894 0.0
H695 H 0.06138 0.83376 0.83255 0.0
H696 H 0.06969 0.86058 0.86219 0.0
H697 H 0.08554 0.84621 0.79564 0.0
H698 H 0.11366 0.87132 0.81188 0.0
H699 H 0.10259 0.90974 0.80208 0.0
H700 H 0.71942 1.00726 0.07856 0.0
H701 H 0.70363 0.02394 0.97219 0.0
H702 H 0.76284 0.06181 0.94014 0.0
H703 H 0.77835 0.04596 0.04949 0.0
H704 H 0.72958 0.08774 0.93216 0.0
H705 H 0.70895 0.01796 0.76206 0.0
H706 H 0.69927 0.01094 0.84945 0.0
H707 H 0.72834 0.01528 0.83484 0.0
C708 C 0.72916 0.01902 0.04868 0.0
C709 C 0.75003 0.02542 0.07283 0.0
C710 C 0.72031 0.02823 0.98685 0.0
C711 C 0.73225 0.04377 0.94692 0.0
C712 C 0.75345 0.04964 0.96944 0.0
H713 H 0.61865 0.07292 0.71371 0.0
H714 H 0.65859 0.07465 0.70594 0.0
C715 C 0.7623 0.04051 0.03183 0.0
C716 C 0.72095 0.05597 0.88896 0.0
H717 H 0.6793 0.04677 0.77213 0.0
C718 C 0.71911 0.07891 0.89506 0.0
C719 C 0.70818 0.04492 0.83714 0.0
C720 C 0.71158 0.02094 0.82004 0.0
C721 C 0.70217 0.09029 0.86014 0.0
C722 C 0.68632 0.07823 0.82115 0.0
C723 C 0.69074 0.05611 0.80456 0.0
C724 C 0.6632 0.08586 0.81451 0.0
C725 C 0.70053 0.11483 0.86977 0.0
C726 C 0.65234 0.09355 0.87596 0.0
C727 C 0.62948 0.09344 0.87971 0.0
C728 C 0.61697 0.08486 0.82315 0.0
C729 C 0.62769 0.07954 0.75868 0.0
C730 C 0.65061 0.08033 0.75422 0.0
H731 H 0.71701 0.12245 0.86316 0.0
H732 H 0.689 0.12245 0.83091 0.0
H733 H 0.69499 0.11854 0.925 0.0
H734 H 0.66138 0.09759 0.92402 0.0
H735 H 0.62173 0.09835 0.92932 0.0
H736 H 0.50274 0.72158 0.0854 0.0
H737 H 0.48819 0.70586 0.97568 0.0
H738 H 0.44767 0.76328 0.94344 0.0
H739 H 0.46142 0.7787 0.05573 0.0
H740 H 0.42401 0.72816 0.92569 0.0
H741 H 0.49849 0.71579 0.76776 0.0
H742 H 0.50428 0.7053 0.8552 0.0
H743 H 0.49805 0.73415 0.84369 0.0
C744 C 0.49077 0.73089 0.055 0.0
C745 C 0.48319 0.75132 0.07941 0.0
C746 C 0.48277 0.72211 0.99139 0.0
C747 C 0.46729 0.73369 0.9501 0.0
C748 C 0.45989 0.75425 0.97374 0.0
H749 H 0.4515 0.62273 0.69202 0.0
H750 H 0.44716 0.66272 0.68987 0.0
C751 C 0.4678 0.76303 0.03781 0.0
C752 C 0.4571 0.72268 0.88785 0.0
H753 H 0.47168 0.68443 0.765 0.0
C754 C 0.43429 0.71914 0.88855 0.0
C755 C 0.47007 0.71189 0.83606 0.0
C756 C 0.49404 0.71728 0.82518 0.0
C757 C 0.42491 0.70224 0.84778 0.0
C758 C 0.43888 0.68815 0.8084 0.0
C759 C 0.46088 0.69447 0.79752 0.0
C760 C 0.43326 0.66468 0.79639 0.0
C761 C 0.40043 0.69865 0.85175 0.0
C762 C 0.42538 0.65223 0.85458 0.0
C763 C 0.42738 0.62943 0.85503 0.0
C764 C 0.43777 0.61873 0.79812 0.0
C765 C 0.44354 0.63077 0.73674 0.0
C766 C 0.44105 0.6536 0.73553 0.0
H767 H 0.39172 0.71463 0.84657 0.0
H768 H 0.39449 0.68738 0.80926 0.0
H769 H 0.39608 0.69178 0.90493 0.0
H770 H 0.41991 0.66012 0.90324 0.0
H771 H 0.423 0.62048 0.90312 0.0
H772 H 0.73759 0.4312 0.12223 0.0
H773 H 0.7562 0.40702 0.03496 0.0
H774 H 0.81021 0.45286 0.0239 0.0
H775 H 0.79203 0.47663 0.11047 0.0
H776 H 0.78709 0.42963 0.88014 0.0
H777 H 0.82229 0.37822 0.09713 0.0
H778 H 0.79396 0.38732 0.09661 0.0
H779 H 0.81546 0.40599 0.12202 0.0
C780 C 0.75332 0.43609 0.10018 0.0
C781 C 0.76361 0.45554 0.12329 0.0
C782 C 0.76383 0.42236 0.05059 0.0
C783 C 0.78447 0.42828 0.02331 0.0
C784 C 0.79422 0.44812 0.04442 0.0
H785 H 0.88954 0.46045 0.89002 0.0
H786 H 0.85178 0.44765 0.8915 0.0
C787 C 0.78394 0.46158 0.09408 0.0
C788 C 0.79752 0.41366 0.97728 0.0
H789 H 0.84686 0.38862 1.0015 0.0
C790 C 0.79966 0.41955 0.90513 0.0
C791 C 0.81351 0.39997 0.00914 0.0
C792 C 0.81119 0.39228 0.08543 0.0
C793 C 0.81938 0.41561 0.86858 0.0
C794 C 0.83723 0.40621 0.90627 0.0
C795 C 0.83338 0.39639 0.97308 0.0
C796 C 0.86009 0.41296 0.89029 0.0
C797 C 0.82187 0.42406 0.7932 0.0
C798 C 0.8775 0.39778 0.89014 0.0
C799 C 0.89933 0.4052 0.89019 0.0
C800 C 0.90387 0.42785 0.8921 0.0
C801 C 0.88645 0.4429 0.88965 0.0
C802 C 0.86483 0.43555 0.88891 0.0
H803 H 0.8066 0.42095 0.76219 0.0
H804 H 0.82446 0.44212 0.7943 0.0
H805 H 0.83597 0.41622 0.76542 0.0
H806 H 0.8742 0.38029 0.89263 0.0
H807 H 0.91259 0.39332 0.89178 0.0
H808 H 0.03484 0.23151 0.10411 0.0
H809 H 0.03977 0.19926 0.02676 0.0
H810 H 0.97657 0.21159 0.93023 0.0
H811 H 0.97166 0.24366 0.00767 0.0
H812 H 0.9803 0.17 0.99171 0.0
H813 H 0.05131 0.18638 0.81291 0.0
H814 H 0.05599 0.19215 0.90596 0.0
H815 H 0.03622 0.2081 0.85687 0.0
C816 C 0.02256 0.22795 0.06379 0.0
C817 C 1.0031 0.24038 0.06065 0.0
C818 C 0.02529 0.2094 0.0199 0.0
C819 C 0.00858 0.20296 0.97226 0.0
C820 C 0.98976 0.21623 0.96614 0.0
H821 H 1.00209 0.0893 0.68408 0.0
H822 H 1.00261 0.12654 0.73453 0.0
C823 C 0.98706 0.23472 0.00981 0.0
C824 C 0.00926 0.18107 0.93609 0.0
H825 H 0.03823 0.14948 0.81754 0.0
C826 C 0.99292 0.1656 0.95335 0.0
C827 C 0.02567 0.17525 0.88586 0.0
C828 C 0.04322 0.19136 0.86364 0.0
C829 C 0.99273 0.14448 0.92283 0.0
C830 C 0.00939 0.13847 0.87383 0.0
C831 C 0.02553 0.15403 0.85541 0.0
C832 C 0.01029 0.11598 0.84217 0.0
C833 C 0.97459 0.12872 0.94299 0.0
C834 C 0.01473 0.09766 0.88558 0.0
C835 C 0.01453 0.07638 0.85695 0.0
C836 C 0.00981 0.07287 0.78409 0.0
C837 C 1.00572 0.09132 0.74039 0.0
C838 C 1.00607 0.11265 0.76909 0.0
H839 H 0.96061 0.13724 0.96929 0.0
H840 H 0.96837 0.11994 0.89506 0.0
H841 H 0.98115 0.11626 0.98081 0.0
H842 H 0.01819 0.09981 0.94197 0.0
H843 H 0.0178 0.06265 0.89235 0.0
H844 H 0.26783 0.03808 0.05163 0.0
H845 H 0.29871 0.03997 0.96682 0.0
H846 H 0.31806 0.97427 0.02697 0.0
H847 H 0.28697 0.97204 0.1085 0.0
H848 H 0.34039 0.03989 0.99614 0.0
H849 H 0.32668 0.96963 0.81794 0.0
H850 H 0.30582 0.97894 0.87915 0.0
H851 H 0.32672 0.95983 0.9083 0.0
C852 C 0.27824 0.0238 0.04473 0.0
C853 C 0.27492 1.00494 0.08701 0.0
C854 C 0.29605 0.02494 0.99673 0.0
C855 C 0.31081 1.00719 0.98956 0.0
C856 C 0.30682 0.98804 0.02963 0.0
H857 H 0.45043 0.01563 0.90954 0.0
H858 H 0.41299 0.01576 0.95645 0.0
C859 C 0.28906 0.98686 0.077 0.0
C860 C 0.33153 0.00922 0.94644 0.0
H861 H 0.36505 0.98096 0.83178 0.0
C862 C 0.34557 0.02715 0.95932 0.0
C863 C 0.33836 0.99297 0.89683 0.0
C864 C 0.32344 0.97443 0.87424 0.0
C865 C 0.36648 0.02868 0.92722 0.0
C866 C 0.37414 0.01136 0.88295 0.0
C867 C 0.35963 0.99404 0.86697 0.0
C868 C 0.39717 0.01071 0.85396 0.0
C869 C 0.37996 0.04908 0.94084 0.0
C870 C 0.40118 1.00663 0.78102 0.0
C871 C 0.42275 1.006 0.75418 0.0
C872 C 0.4409 0.00956 0.79958 0.0
C873 C 0.43689 0.01321 0.87267 0.0
C874 C 0.41537 0.0135 0.8996 0.0
H875 H 0.36924 0.06347 0.95188 0.0
H876 H 0.39042 0.04644 0.98872 0.0
H877 H 0.39069 0.05312 0.89462 0.0
H878 H 0.38758 1.00413 0.74447 0.0
H879 H 0.42518 1.00295 0.69773 0.0
H880 H 0.48356 0.27059 0.06056 0.0
H881 H 0.47721 0.30098 0.97609 0.0
H882 H 0.547 0.31351 0.96938 0.0
H883 H 0.55338 0.28255 0.04861 0.0
H884 H 0.48269 0.34171 0.99599 0.0
H885 H 0.53567 0.32288 0.76656 0.0
H886 H 0.5298 0.3026 0.83435 0.0
H887 H 0.55218 0.32183 0.84561 0.0
C888 C 0.49756 0.27928 0.03858 0.0
C889 C 0.51896 0.27414 0.06169 0.0
C890 C 0.49393 0.29687 0.99087 0.0
C891 C 0.51162 0.30967 0.9652 0.0
C892 C 0.53302 0.30376 0.98598 0.0
H893 H 0.50786 0.44955 0.88767 0.0
H894 H 0.50777 0.41216 0.93504 0.0
C895 C 0.53664 0.28609 0.03237 0.0
C896 C 0.50785 0.33049 0.92357 0.0
H897 H 0.5291 0.36188 0.7881 0.0
C898 C 0.49259 0.34588 0.94968 0.0
C899 C 0.52027 0.3361 0.86187 0.0
C900 C 0.53517 0.31981 0.82515 0.0
C901 C 0.49024 0.36687 0.91857 0.0
C902 C 0.50426 0.37325 0.86149 0.0
C903 C 0.51867 0.35745 0.83289 0.0
C904 C 0.50464 0.39624 0.83193 0.0
C905 C 0.47248 0.38179 0.94714 0.0
C906 C 0.5042 0.40011 0.75761 0.0
C907 C 0.50503 0.42162 0.73017 0.0
C908 C 0.50599 0.43981 0.7764 0.0
C909 C 0.50667 0.43595 0.85054 0.0
C910 C 0.50639 0.41447 0.87781 0.0
H911 H 0.45848 0.37211 0.96877 0.0
H912 H 0.47922 0.39171 0.99178 0.0
H913 H 0.46612 0.39305 0.90519 0.0
H914 H 0.50308 0.38647 0.72062 0.0
H915 H 0.50458 0.42401 0.67276 0.0
H916 H 0.24404 0.54133 0.99445 0.0
H917 H 0.21128 0.53583 0.92013 0.0
H918 H 0.19928 0.47383 0.02487 0.0
H919 H 0.23213 0.47936 0.09939 0.0
H920 H 0.18828 0.47686 0.86496 0.0
H921 H 0.15164 0.54179 0.03676 0.0
H922 H 0.17743 0.54846 0.99494 0.0
H923 H 0.17634 0.52716 0.0614 0.0
C924 C 0.23506 0.526 0.99895 0.0
C925 C 0.24093 0.51054 0.0516 0.0
C926 C 0.21615 0.52301 0.95718 0.0
C927 C 0.20264 0.50454 0.96745 0.0
C928 C 0.20946 0.48818 0.01579 0.0
H929 H 0.06172 0.49473 0.89457 0.0
H930 H 0.09913 0.49403 0.94237 0.0
C931 C 0.22839 0.4912 0.05778 0.0
C932 C 0.18023 0.50373 0.9348 0.0
H933 H 0.12963 0.52821 0.94298 0.0
C934 C 0.17546 0.48811 0.8818 0.0
C935 C 0.16337 0.51819 0.95754 0.0
C936 C 0.16726 0.53477 0.01615 0.0
C937 C 0.15439 0.4868 0.85029 0.0
C938 C 0.13766 0.50158 0.87209 0.0
C939 C 0.14242 0.51698 0.92578 0.0
C940 C 0.11494 0.50112 0.84132 0.0
C941 C 0.15006 0.46933 0.79495 0.0
C942 C 0.11118 0.50547 0.76844 0.0
C943 C 0.08969 0.50596 0.74084 0.0
C944 C 0.07143 0.50213 0.78547 0.0
C945 C 0.07529 0.49769 0.85838 0.0
C946 C 0.09674 0.4973 0.88591 0.0
H947 H 0.16274 0.45618 0.79631 0.0
H948 H 0.13364 0.46175 0.8031 0.0
H949 H 0.15031 0.47693 0.74097 0.0
H950 H 0.12485 0.5089 0.73307 0.0
H951 H 0.08741 0.50954 0.68452 0.0
H952 H 0.03934 0.76843 0.42136 0.0
H953 H 0.03366 0.80061 0.49777 0.0
H954 H 0.97286 0.81448 0.38815 0.0
H955 H 0.97857 0.78216 0.31175 0.0
H956 H 0.03209 0.84231 0.43395 0.0
H957 H 0.95769 0.82803 0.59966 0.0
H958 H 0.97313 0.80584 0.55967 0.0
H959 H 0.95466 0.82197 0.50607 0.0
C960 C 0.02421 0.77769 0.41616 0.0
C961 C 0.00911 0.77246 0.36185 0.0
C962 C 0.0211 0.79626 0.45921 0.0
C963 C 1.0028 0.81002 0.44908 0.0
C964 C 0.9869 0.80396 0.39807 0.0
H965 H 0.99425 0.95069 0.52495 0.0
H966 H 0.99385 0.91343 0.47597 0.0
C967 C 0.99006 0.78536 0.35475 0.0
C968 C 1.00201 0.83201 0.4846 0.0
H969 H 0.97176 0.86457 0.59689 0.0
C970 C 0.01894 0.84709 0.46987 0.0
C971 C 0.98489 0.83834 0.53156 0.0
C972 C 0.96661 0.82268 0.55086 0.0
C973 C 0.01905 0.86831 0.49974 0.0
C974 C 1.00174 0.8748 0.54557 0.0
C975 C 0.98497 0.85964 0.56146 0.0
C976 C 1.00086 0.89736 0.57666 0.0
C977 C 0.03777 0.88368 0.48227 0.0
C978 C 1.00465 0.90079 0.64991 0.0
C979 C 1.00504 0.92218 0.67821 0.0
C980 C 1.0014 0.94059 0.63391 0.0
C981 C 0.99714 0.93699 0.56081 0.0
C982 C 0.99692 0.91566 0.53256 0.0
H983 H 0.05183 0.87493 0.45724 0.0
H984 H 0.03192 0.89646 0.44435 0.0
H985 H 0.04365 0.89212 0.53131 0.0
H986 H 0.00774 0.88694 0.68498 0.0
H987 H 0.00832 0.92426 0.73472 0.0
H988 H 0.74442 0.97618 0.36796 0.0
H989 H 0.71329 0.97404 0.45184 0.0
H990 H 0.69296 0.03918 0.38866 0.0
H991 H 0.72436 0.04174 0.30844 0.0
H992 H 0.68544 0.03431 0.52451 0.0
H993 H 0.65231 0.96086 0.38543 0.0
H994 H 0.67887 0.95682 0.42501 0.0
H995 H 0.67568 0.97591 0.35209 0.0
C996 C 0.73361 0.99021 0.37352 0.0
C997 C 0.73671 0.00899 0.33065 0.0
C998 C 0.71557 0.98887 0.42061 0.0
C999 C 0.70018 1.00617 0.42514 0.0
C1000 C 0.70428 0.02546 0.38598 0.0
H1001 H 0.56129 1.00151 0.51456 0.0
H1002 H 0.59856 1.00112 0.46616 0.0
C1003 C 0.72228 0.02688 0.33976 0.0
C1004 C 0.67926 1.00426 0.46732 0.0
H1005 H 0.63154 0.97471 0.48117 0.0
C1006 C 0.67371 0.02118 0.51527 0.0
C1007 C 0.66369 0.98733 0.45488 0.0
C1008 C 0.66777 0.9693 0.40113 0.0
C1009 C 0.65304 0.02201 0.54929 0.0
C1010 C 0.63753 1.00499 0.53727 0.0
C1011 C 0.64332 0.98775 0.49085 0.0
C1012 C 0.61476 1.00537 0.56837 0.0
C1013 C 0.64775 0.04172 0.595 0.0
C1014 C 0.61112 0.00779 0.64233 0.0
C1015 C 0.58966 0.00846 0.6701 0.0
C1016 C 0.5713 1.00614 0.62483 0.0
C1017 C 0.57498 1.0033 0.55114 0.0
C1018 C 0.59638 1.00301 0.52333 0.0
H1019 H 0.65854 0.05592 0.58213 0.0
H1020 H 0.63038 0.04694 0.58811 0.0
H1021 H 0.6504 0.03741 0.65203 0.0
H1022 H 0.62486 0.009 0.67888 0.0
H1023 H 0.58747 0.01047 0.7272 0.0
H1024 H 0.46807 0.72895 0.32654 0.0
H1025 H 0.47181 0.69698 0.40442 0.0
H1026 H 0.54027 0.71247 0.4373 0.0
H1027 H 0.53658 0.74444 0.35714 0.0
H1028 H 0.53599 0.67088 0.39961 0.0
H1029 H 0.47591 0.68583 0.61423 0.0
H1030 H 0.46271 0.68826 0.52891 0.0
H1031 H 0.48426 0.70722 0.55305 0.0
C1032 C 0.48378 0.72593 0.35207 0.0
C1033 C 0.502 0.73932 0.33599 0.0
C1034 C 0.4859 0.70763 0.397 0.0
C1035 C 0.50627 0.70225 0.42784 0.0
C1036 C 0.52431 0.71625 0.41464 0.0
H1037 H 0.513 0.586 0.71002 0.0
H1038 H 0.51339 0.62369 0.66408 0.0
C1039 C 0.52218 0.73467 0.36942 0.0
C1040 C 0.50903 0.68084 0.46679 0.0
H1041 H 0.48517 0.6476 0.59277 0.0
C1042 C 0.52507 0.66596 0.44259 0.0
C1043 C 0.49508 0.6743 0.52381 0.0
C1044 C 0.47871 0.68987 0.55696 0.0
C1045 C 0.52691 0.6446 0.47129 0.0
C1046 C 0.51184 0.63748 0.52443 0.0
C1047 C 0.49647 0.6527 0.55103 0.0
C1048 C 0.51162 0.61436 0.55254 0.0
C1049 C 0.54518 0.63 0.44454 0.0
C1050 C 0.51012 0.59631 0.50573 0.0
C1051 C 0.51001 0.57469 0.53204 0.0
C1052 C 0.5109 0.57051 0.60601 0.0
C1053 C 0.51201 0.58856 0.65288 0.0
C1054 C 0.51233 0.61019 0.62653 0.0
H1055 H 0.55924 0.63985 0.42414 0.0
H1056 H 0.55129 0.61886 0.48726 0.0
H1057 H 0.53898 0.61986 0.39957 0.0
H1058 H 0.50882 0.59892 0.4486 0.0
H1059 H 0.50887 0.56123 0.49436 0.0
H1060 H 0.78083 0.46098 0.37455 0.0
H1061 H 0.81193 0.46848 0.4521 0.0
H1062 H 0.8013 0.53818 0.42625 0.0
H1063 H 0.77068 0.53054 0.3439 0.0
H1064 H 0.84208 0.53074 0.40741 0.0
H1065 H 0.82128 0.48495 0.65151 0.0
H1066 H 0.81971 0.46648 0.57741 0.0
H1067 H 0.80125 0.4897 0.58208 0.0
C1068 C 0.78478 0.47796 0.38645 0.0
C1069 C 0.77328 0.49516 0.35255 0.0
C1070 C 0.80255 0.48226 0.43173 0.0
C1071 C 0.80903 0.50394 0.44656 0.0
C1072 C 0.79671 0.52127 0.41614 0.0
H1073 H 0.92311 0.5156 0.73761 0.0
H1074 H 0.88576 0.51719 0.6884 0.0
C1075 C 0.779 0.51693 0.36968 0.0
C1076 C 0.82994 0.50815 0.48708 0.0
H1077 H 0.86046 0.48979 0.62896 0.0
C1078 C 0.84588 0.52206 0.45661 0.0
C1079 C 0.83508 0.49733 0.55232 0.0
C1080 C 0.81827 0.48401 0.59297 0.0
C1081 C 0.86692 0.52454 0.48714 0.0
C1082 C 0.87275 0.51203 0.54846 0.0
C1083 C 0.85643 0.49904 0.58108 0.0
C1084 C 0.89566 0.51174 0.57852 0.0
C1085 C 0.88253 0.5408 0.4533 0.0
C1086 C 0.91389 0.50785 0.53397 0.0
C1087 C 0.93529 0.50744 0.56185 0.0
C1088 C 0.93904 0.51021 0.63552 0.0
C1089 C 0.92082 0.51346 0.68058 0.0
C1090 C 0.89941 0.51435 0.65239 0.0
H1091 H 0.87341 0.55441 0.4269 0.0
H1092 H 0.89393 0.548 0.49327 0.0
H1093 H 0.8923 0.53238 0.41141 0.0
H1094 H 0.91162 0.50482 0.47743 0.0
H1095 H 0.94888 0.50449 0.52571 0.0
loop_
_geom_bond_atom_site_label_1
_geom_bond_atom_site_label_2
_geom_bond_distance
_geom_bond_site_symmetry_2
_ccdc_geom_bond_type
H0 C3 0.931 . S
H1 C6 0.928 . S
H2 C8 0.930 . S
C3 H0 0.931 . S
C3 C4 1.413 . S
C3 C5 1.360 . S
C4 C3 1.413 . S
C4 C8 1.429 . S
C5 C3 1.360 . S
C5 C6 1.372 . S
C6 H1 0.928 . S
C6 C5 1.372 . S
C6 C7 1.404 . S
C7 C6 1.404 . S
C7 C8 1.391 . S
C8 H2 0.930 . S
C8 C4 1.429 . S
C8 C7 1.391 . S
H9 C12 0.931 . S
H10 C15 0.928 . S
H11 C17 0.930 . S
C12 H9 0.931 . S
C12 C13 1.413 . S
C12 C14 1.360 . S
C13 C12 1.413 . S
C13 C17 1.429 1_655 S
C14 C12 1.360 . S
C14 C15 1.372 . S
C15 H10 0.928 . S
C15 C14 1.372 . S
C15 C16 1.404 . S
C16 C15 1.404 . S
C16 C17 1.390 1_655 S
C17 H11 0.930 . S
C17 C13 1.429 1_455 S
C17 C16 1.390 1_455 S
H18 C21 0.931 . S
H19 C24 0.928 . S
H20 C26 0.930 . S
C21 H18 0.931 . S
C21 C22 1.413 . S
C21 C23 1.360 . S
C22 C21 1.413 . S
C22 C26 1.429 1_565 S
C23 C21 1.360 . S
C23 C24 1.372 . S
C24 H19 0.928 . S
C24 C23 1.372 . S
C24 C25 1.404 . S
C25 C24 1.404 . S
C25 C26 1.390 1_565 S
C26 H20 0.930 . S
C26 C22 1.429 1_545 S
C26 C25 1.390 1_545 S
H27 C30 0.931 . S
H28 C33 0.928 . S
H29 C35 0.930 . S
C30 H27 0.931 . S
C30 C31 1.413 . S
C30 C32 1.360 . S
C31 C30 1.413 . S
C31 C35 1.429 . S
C32 C30 1.360 . S
C32 C33 1.372 . S
C33 H28 0.928 . S
C33 C32 1.372 . S
C33 C34 1.404 . S
C34 C33 1.404 . S
C34 C35 1.391 . S
C35 H29 0.930 . S
C35 C31 1.429 . S
C35 C34 1.391 . S
H36 C39 0.931 . S
H37 C42 0.928 . S
H38 C44 0.930 . S
C39 H36 0.931 . S
C39 C40 1.413 1_554 S
C39 C41 1.360 . S
C40 C39 1.413 1_556 S
C40 C44 1.429 . S
C41 C39 1.360 . S
C41 C42 1.372 . S
C42 H37 0.928 . S
C42 C41 1.372 . S
C42 C43 1.404 . S
C43 C42 1.404 . S
C43 C44 1.391 1_554 S
C44 H38 0.930 . S
C44 C40 1.429 . S
C44 C43 1.391 1_556 S
H45 C48 0.931 . S
H46 C51 0.928 . S
H47 C53 0.930 . S
C48 H45 0.931 . S
C48 C49 1.413 1_554 S
C48 C50 1.360 . S
C49 C48 1.413 1_556 S
C49 C53 1.429 1_655 S
C50 C48 1.360 . S
C50 C51 1.372 . S
C51 H46 0.928 . S
C51 C50 1.372 . S
C51 C52 1.404 . S
C52 C51 1.404 . S
C52 C53 1.391 1_654 S
C53 H47 0.930 . S
C53 C49 1.429 1_455 S
C53 C52 1.391 1_456 S
H54 C57 0.931 . S
H55 C60 0.928 . S
H56 C62 0.930 . S
C57 H54 0.931 . S
C57 C58 1.413 1_554 S
C57 C59 1.360 . S
C58 C57 1.413 1_556 S
C58 C62 1.429 1_565 S
C59 C57 1.360 . S
C59 C60 1.372 . S
C60 H55 0.928 . S
C60 C59 1.372 . S
C60 C61 1.404 . S
C61 C60 1.404 . S
C61 C62 1.391 1_564 S
C62 H56 0.930 . S
C62 C58 1.429 1_545 S
C62 C61 1.391 1_546 S
H63 C66 0.931 . S
H64 C69 0.928 . S
H65 C71 0.930 . S
C66 H63 0.931 . S
C66 C67 1.413 . S
C66 C68 1.360 1_554 S
C67 C66 1.413 . S
C67 C71 1.429 . S
C68 C66 1.360 1_556 S
C68 C69 1.372 . S
C69 H64 0.928 . S
C69 C68 1.372 . S
C69 C70 1.404 1_556 S
C70 C69 1.404 1_554 S
C70 C71 1.391 . S
C71 H65 0.930 . S
C71 C67 1.429 . S
C71 C70 1.391 . S
La72 C74 2.928 . S
La72 O92 2.521 . S
La72 O93 2.628 . S
La72 O94 2.554 . S
La72 O95 2.757 1_565 S
La72 O96 2.470 . S
La72 O101 2.482 1_455 S
La72 O103 2.503 1_565 S
La73 C83 2.928 . S
La73 O95 2.482 1_655 S
La73 O97 2.503 1_545 S
La73 O98 2.521 . S
La73 O99 2.628 . S
La73 O100 2.554 . S
La73 O101 2.757 1_545 S
La73 O102 2.470 . S
C74 La72 2.928 . S
C74 C75 1.503 . S
C74 O92 1.261 . S
C74 O93 1.243 . S
C75 C74 1.503 . S
C75 C76 1.394 . S
C75 C80 1.373 . S
C76 C75 1.394 . S
C76 C77 1.380 . S
C76 H104 0.930 . S
C77 C76 1.380 . S
C77 C78 1.376 . S
C77 H105 0.930 . S
C78 C77 1.376 . S
C78 C79 1.370 . S
C79 C78 1.370 . S
C79 C80 1.396 . S
C79 H106 0.931 1_455 S
C80 C75 1.373 . S
C80 C79 1.396 . S
C80 H107 0.929 1_455 S
C81 O94 1.269 . S
C81 O95 1.272 1_565 S
C82 O96 1.258 1_655 S
C82 O97 1.256 . S
C83 La73 2.928 . S
C83 C84 1.503 . S
C83 O98 1.261 . S
C83 O99 1.243 . S
C84 C83 1.503 . S
C84 C85 1.394 . S
C84 C89 1.373 . S
C85 C84 1.394 . S
C85 C86 1.380 . S
C85 H108 0.930 . S
C86 C85 1.380 . S
C86 C87 1.376 . S
C86 H109 0.930 . S
C87 C86 1.376 . S
C87 C88 1.370 . S
C88 C87 1.370 . S
C88 C89 1.396 . S
C88 H110 0.921 1_655 S
C89 C84 1.373 . S
C89 C88 1.396 . S
C89 H111 0.929 1_655 S
C90 O100 1.240 . S
C90 O101 1.289 1_545 S
C91 O102 1.258 1_455 S
C91 O103 1.256 . S
O92 La72 2.521 . S
O92 C74 1.261 . S
O93 La72 2.628 . S
O93 C74 1.243 . S
O94 La72 2.554 . S
O94 C81 1.269 . S
O95 La72 2.757 1_545 S
O95 La73 2.482 1_455 S
O95 C81 1.272 1_545 S
O96 La72 2.470 . S
O96 C82 1.258 1_455 S
O97 La73 2.503 1_565 S
O97 C82 1.256 . S
O98 La73 2.521 . S
O98 C83 1.261 . S
O99 La73 2.628 . S
O99 C83 1.243 . S
O100 La73 2.554 . S
O100 C90 1.240 . S
O101 La72 2.482 1_655 S
O101 La73 2.757 1_565 S
O101 C90 1.289 1_565 S
O102 La73 2.470 . S
O102 C91 1.258 1_655 S
O103 La72 2.503 1_545 S
O103 C91 1.256 . S
H104 C76 0.930 . S
H105 C77 0.930 . S
H106 C79 0.931 1_655 S
H107 C80 0.929 1_655 S
H108 C85 0.930 . S
H109 C86 0.930 . S
H110 C88 0.921 1_455 S
H111 C89 0.929 1_455 S
La112 C114 2.928 . S
La112 O132 2.521 . S
La112 O133 2.628 . S
La112 O134 2.554 . S
La112 O135 2.757 . S
La112 O136 2.470 . S
La112 O141 2.482 1_545 S
La112 O143 2.503 . S
La113 C123 2.928 . S
La113 O135 2.482 1_565 S
La113 O137 2.503 . S
La113 O138 2.521 . S
La113 O139 2.628 . S
La113 O140 2.554 . S
La113 O141 2.757 . S
La113 O142 2.470 . S
C114 La112 2.928 . S
C114 C115 1.503 . S
C114 O132 1.261 . S
C114 O133 1.243 . S
C115 C114 1.503 . S
C115 C116 1.394 . S
C115 C120 1.373 . S
C116 C115 1.394 . S
C116 C117 1.380 . S
C116 H144 0.930 . S
C117 C116 1.380 . S
C117 C118 1.376 . S
C117 H145 0.930 . S
C118 C117 1.376 . S
C118 C119 1.370 . S
C119 C118 1.370 . S
C119 C120 1.396 . S
C119 H146 0.911 1_545 S
C120 C115 1.373 . S
C120 C119 1.396 . S
C120 H147 0.929 1_545 S
C121 O134 1.240 . S
C121 O135 1.289 . S
C122 O136 1.258 1_565 S
C122 O137 1.256 . S
C123 La113 2.928 . S
C123 C124 1.503 . S
C123 O138 1.261 . S
C123 O139 1.243 . S
C124 C123 1.503 . S
C124 C125 1.394 . S
C124 C129 1.373 . S
C125 C124 1.394 . S
C125 C126 1.380 . S
C125 H148 0.930 . S
C126 C125 1.380 . S
C126 C127 1.376 . S
C126 H149 0.930 . S
C127 C126 1.376 . S
C127 C128 1.370 . S
C128 C127 1.370 . S
C128 C129 1.396 . S
C128 H150 0.901 1_565 S
C129 C124 1.373 . S
C129 C128 1.396 . S
C129 H151 0.929 1_565 S
C130 O140 1.240 . S
C130 O141 1.289 . S
C131 O142 1.258 1_545 S
C131 O143 1.256 . S
O132 La112 2.521 . S
O132 C114 1.261 . S
O133 La112 2.628 . S
O133 C114 1.243 . S
O134 La112 2.554 . S
O134 C121 1.240 . S
O135 La112 2.757 . S
O135 La113 2.482 1_545 S
O135 C121 1.289 . S
O136 La112 2.470 . S
O136 C122 1.258 1_545 S
O137 La113 2.503 . S
O137 C122 1.256 . S
O138 La113 2.521 . S
O138 C123 1.261 . S
O139 La113 2.628 . S
O139 C123 1.243 . S
O140 La113 2.554 . S
O140 C130 1.240 . S
O141 La112 2.482 1_565 S
O141 La113 2.757 . S
O141 C130 1.289 . S
O142 La113 2.470 . S
O142 C131 1.258 1_565 S
O143 La112 2.503 . S
O143 C131 1.256 . S
H144 C116 0.930 . S
H145 C117 0.930 . S
H146 C119 0.911 1_565 S
H147 C120 0.929 1_565 S
H148 C125 0.930 . S
H149 C126 0.930 . S
H150 C128 0.901 1_545 S
H151 C129 0.929 1_545 S
La152 C154 2.928 . S
La152 O172 2.521 . S
La152 O173 2.628 . S
La152 O174 2.554 . S
La152 O175 2.757 . S
La152 O176 2.470 . S
La152 O181 2.482 . S
La152 O183 2.503 . S
La153 C163 2.928 . S
La153 O175 2.482 . S
La153 O177 2.503 . S
La153 O178 2.521 . S
La153 O179 2.628 . S
La153 O180 2.554 . S
La153 O181 2.757 . S
La153 O182 2.470 . S
C154 La152 2.928 . S
C154 C155 1.503 . S
C154 O172 1.261 . S
C154 O173 1.243 . S
C155 C154 1.503 . S
C155 C156 1.394 . S
C155 C160 1.373 . S
C156 C155 1.394 . S
C156 C157 1.380 . S
C156 H184 0.930 . S
C157 C156 1.380 . S
C157 C158 1.376 . S
C157 H185 0.930 . S
C158 C157 1.376 . S
C158 C159 1.370 . S
C159 C158 1.370 . S
C159 C160 1.396 . S
C159 H186 0.929 . S
C160 C155 1.373 . S
C160 C159 1.396 . S
C160 H187 0.929 . S
C161 O174 1.240 . S
C161 O175 1.289 . S
C162 O176 1.258 . S
C162 O177 1.256 . S
C163 La153 2.928 . S
C163 C164 1.503 . S
C163 O178 1.261 . S
C163 O179 1.243 . S
C164 C163 1.503 . S
C164 C165 1.394 . S
C164 C169 1.373 . S
C165 C164 1.394 . S
C165 C166 1.380 . S
C165 H188 0.930 . S
C166 C165 1.380 . S
C166 C167 1.376 . S
C166 H189 0.930 . S
C167 C166 1.376 . S
C167 C168 1.370 . S
C168 C167 1.370 . S
C168 C169 1.396 . S
C168 H190 0.929 . S
C169 C164 1.373 . S
C169 C168 1.396 . S
C169 H191 0.929 . S
C170 O180 1.240 . S
C170 O181 1.289 . S
C171 O182 1.258 . S
C171 O183 1.256 . S
O172 La152 2.521 . S
O172 C154 1.261 . S
O173 La152 2.628 . S
O173 C154 1.243 . S
O174 La152 2.554 . S
O174 C161 1.240 . S
O175 La152 2.757 . S
O175 La153 2.482 . S
O175 C161 1.289 . S
O176 La152 2.470 . S
O176 C162 1.258 . S
O177 La153 2.503 . S
O177 C162 1.256 . S
O178 La153 2.521 . S
O178 C163 1.261 . S
O179 La153 2.628 . S
O179 C163 1.243 . S
O180 La153 2.554 . S
O180 C170 1.240 . S
O181 La152 2.482 . S
O181 La153 2.757 . S
O181 C170 1.289 . S
O182 La153 2.470 . S
O182 C171 1.258 . S
O183 La152 2.503 . S
O183 C171 1.256 . S
H184 C156 0.930 . S
H185 C157 0.930 . S
H186 C159 0.929 . S
H187 C160 0.929 . S
H188 C165 0.930 . S
H189 C166 0.930 . S
H190 C168 0.929 . S
H191 C169 0.929 . S
La192 C194 2.928 . S
La192 O212 2.521 . S
La192 O213 2.628 . S
La192 O214 2.554 . S
La192 O215 2.757 1_655 S
La192 O216 2.470 . S
La192 O221 2.482 . S
La192 O223 2.503 1_655 S
La193 C203 2.928 . S
La193 O215 2.482 . S
La193 O217 2.503 1_455 S
La193 O218 2.521 . S
La193 O219 2.628 . S
La193 O220 2.554 . S
La193 O221 2.757 1_455 S
La193 O222 2.470 . S
C194 La192 2.928 . S
C194 C195 1.503 . S
C194 O212 1.261 . S
C194 O213 1.243 . S
C195 C194 1.503 . S
C195 C196 1.394 . S
C195 C200 1.373 . S
C196 C195 1.394 . S
C196 C197 1.380 . S
C196 H224 0.930 . S
C197 C196 1.380 . S
C197 C198 1.376 . S
C197 H225 0.930 . S
C198 C197 1.376 . S
C198 C199 1.370 . S
C199 C198 1.370 . S
C199 C200 1.396 . S
C199 H226 0.929 . S
C200 C195 1.373 . S
C200 C199 1.396 . S
C200 H227 0.929 . S
C201 O214 1.258 . S
C201 O215 1.279 1_655 S
C202 O216 1.258 . S
C202 O217 1.256 . S
C203 La193 2.928 . S
C203 C204 1.503 . S
C203 O218 1.261 . S
C203 O219 1.243 . S
C204 C203 1.503 . S
C204 C205 1.394 . S
C204 C209 1.373 . S
C205 C204 1.394 . S
C205 C206 1.380 . S
C205 H228 0.930 . S
C206 C205 1.380 . S
C206 C207 1.376 . S
C206 H229 0.930 . S
C207 C206 1.376 . S
C207 C208 1.370 . S
C208 C207 1.370 . S
C208 C209 1.396 . S
C208 H230 0.929 . S
C209 C204 1.373 . S
C209 C208 1.396 . S
C209 H231 0.929 . S
C210 O220 1.264 . S
C210 O221 1.275 1_455 S
C211 O222 1.258 . S
C211 O223 1.256 . S
O212 La192 2.521 . S
O212 C194 1.261 . S
O213 La192 2.628 . S
O213 C194 1.243 . S
O214 La192 2.554 . S
O214 C201 1.258 . S
O215 La192 2.757 1_455 S
O215 La193 2.482 . S
O215 C201 1.279 1_455 S
O216 La192 2.470 . S
O216 C202 1.258 . S
O217 La193 2.503 1_655 S
O217 C202 1.256 . S
O218 La193 2.521 . S
O218 C203 1.261 . S
O219 La193 2.628 . S
O219 C203 1.243 . S
O220 La193 2.554 . S
O220 C210 1.264 . S
O221 La192 2.482 . S
O221 La193 2.757 1_655 S
O221 C210 1.275 1_655 S
O222 La193 2.470 . S
O222 C211 1.258 . S
O223 La192 2.503 1_455 S
O223 C211 1.256 . S
H224 C196 0.930 . S
H225 C197 0.930 . S
H226 C199 0.929 . S
H227 C200 0.929 . S
H228 C205 0.930 . S
H229 C206 0.930 . S
H230 C208 0.929 . S
H231 C209 0.929 . S
H232 C240 0.929 . S
H233 C242 0.930 . S
H234 C244 0.930 . S
H235 C247 0.929 . S
H236 C250 0.930 . S
H237 C252 0.960 . S
H238 C252 0.960 1_565 S
H239 C252 0.960 . S
C240 H232 0.929 . S
C240 C241 1.376 . S
C240 C242 1.384 . S
C241 C240 1.376 . S
C241 C247 1.391 1_565 S
C242 H233 0.930 . S
C242 C240 1.384 . S
C242 C243 1.404 . S
C243 C242 1.404 . S
C243 C244 1.367 1_565 S
C243 C248 1.490 . S
C244 H234 0.930 . S
C244 C243 1.367 1_545 S
C244 C247 1.386 . S
H245 C261 0.930 . S
H246 C262 0.931 . S
C247 H235 0.929 . S
C247 C241 1.391 1_545 S
C247 C244 1.386 . S
C248 C243 1.490 . S
C248 C250 1.405 . S
C248 C251 1.394 1_565 S
H249 C255 0.930 . S
C250 H236 0.930 . S
C250 C248 1.405 . S
C250 C253 1.403 . S
C251 C248 1.394 1_545 S
C251 C252 1.524 . S
C251 C255 1.400 . S
C252 H237 0.960 . S
C252 H238 0.960 1_545 S
C252 H239 0.960 . S
C252 C251 1.524 . S
C253 C250 1.403 . S
C253 C254 1.403 . S
C253 C257 1.495 . S
C254 C253 1.403 . S
C254 C255 1.376 1_565 S
C254 C256 1.477 . S
C255 H249 0.930 . S
C255 C251 1.400 . S
C255 C254 1.376 1_545 S
C256 C254 1.477 . S
C256 C258 1.383 . S
C256 C262 1.381 1_565 S
C257 C253 1.495 . S
C257 H263 0.959 . S
C257 H264 0.961 1_565 S
C257 H265 0.960 . S
C258 C256 1.383 . S
C258 C259 1.394 . S
C258 H266 0.930 . S
C259 C258 1.394 . S
C259 C260 1.383 1_565 S
C259 H267 0.929 . S
C260 C259 1.383 1_545 S
C260 C261 1.377 . S
C261 H245 0.930 . S
C261 C260 1.377 . S
C261 C262 1.379 . S
C262 H246 0.931 . S
C262 C256 1.381 1_545 S
C262 C261 1.379 . S
H263 C257 0.959 . S
H264 C257 0.961 1_545 S
H265 C257 0.960 . S
H266 C258 0.930 . S
H267 C259 0.929 . S
H268 C276 0.929 . S
H269 C278 0.930 . S
H270 C280 0.930 . S
H271 C283 0.929 . S
H272 C286 0.930 . S
H273 C288 0.960 . S
H274 C288 0.960 . S
H275 C288 0.960 . S
C276 H268 0.929 . S
C276 C277 1.377 . S
C276 C278 1.384 . S
C277 C276 1.377 . S
C277 C283 1.390 . S
C278 H269 0.930 . S
C278 C276 1.384 . S
C278 C279 1.372 . S
C279 C278 1.372 . S
C279 C280 1.400 . S
C279 C284 1.490 . S
C280 H270 0.930 . S
C280 C279 1.400 . S
C280 C283 1.386 . S
H281 C297 0.930 . S
H282 C298 0.931 . S
C283 H271 0.929 . S
C283 C277 1.390 . S
C283 C280 1.386 . S
C284 C279 1.490 . S
C284 C286 1.395 . S
C284 C287 1.403 . S
H285 C291 0.930 . S
C286 H272 0.930 . S
C286 C284 1.395 . S
C286 C289 1.403 . S
C287 C284 1.403 . S
C287 C288 1.524 . S
C287 C291 1.400 . S
C288 H273 0.960 . S
C288 H274 0.960 . S
C288 H275 0.960 . S
C288 C287 1.524 . S
C289 C286 1.403 . S
C289 C290 1.392 . S
C289 C293 1.495 . S
C290 C289 1.392 . S
C290 C291 1.385 . S
C290 C292 1.478 . S
C291 H285 0.930 . S
C291 C287 1.400 . S
C291 C290 1.385 . S
C292 C290 1.478 . S
C292 C294 1.381 . S
C292 C298 1.383 . S
C293 C289 1.495 . S
C293 H299 0.959 . S
C293 H300 0.961 . S
C293 H301 0.960 . S
C294 C292 1.381 . S
C294 C295 1.394 . S
C294 H302 0.930 . S
C295 C294 1.394 . S
C295 C296 1.383 . S
C295 H303 0.929 . S
C296 C295 1.383 . S
C296 C297 1.377 . S
C297 H281 0.930 . S
C297 C296 1.377 . S
C297 C298 1.379 . S
C298 H282 0.931 . S
C298 C292 1.383 . S
C298 C297 1.379 . S
H299 C293 0.959 . S
H300 C293 0.961 . S
H301 C293 0.960 . S
H302 C294 0.930 . S
H303 C295 0.929 . S
H304 C312 0.929 . S
H305 C314 0.930 . S
H306 C316 0.930 . S
H307 C319 0.929 . S
H308 C322 0.930 . S
H309 C324 0.960 . S
H310 C324 0.960 . S
H311 C324 0.960 . S
C312 H304 0.929 . S
C312 C313 1.377 . S
C312 C314 1.384 . S
C313 C312 1.377 . S
C313 C319 1.390 . S
C314 H305 0.930 . S
C314 C312 1.384 . S
C314 C315 1.372 . S
C315 C314 1.372 . S
C315 C316 1.400 . S
C315 C320 1.490 . S
C316 H306 0.930 . S
C316 C315 1.400 . S
C316 C319 1.386 . S
H317 C333 0.930 . S
H318 C334 0.931 . S
C319 H307 0.929 . S
C319 C313 1.390 . S
C319 C316 1.386 . S
C320 C315 1.490 . S
C320 C322 1.395 . S
C320 C323 1.403 . S
H321 C327 0.930 . S
C322 H308 0.930 . S
C322 C320 1.395 . S
C322 C325 1.403 . S
C323 C320 1.403 . S
C323 C324 1.524 . S
C323 C327 1.400 . S
C324 H309 0.960 . S
C324 H310 0.960 . S
C324 H311 0.960 . S
C324 C323 1.524 . S
C325 C322 1.403 . S
C325 C326 1.392 . S
C325 C329 1.495 . S
C326 C325 1.392 . S
C326 C327 1.385 . S
C326 C328 1.478 . S
C327 H321 0.930 . S
C327 C323 1.400 . S
C327 C326 1.385 . S
C328 C326 1.478 . S
C328 C330 1.381 . S
C328 C334 1.383 . S
C329 C325 1.495 . S
C329 H335 0.959 . S
C329 H336 0.961 . S
C329 H337 0.960 . S
C330 C328 1.381 . S
C330 C331 1.394 . S
C330 H338 0.930 . S
C331 C330 1.394 . S
C331 C332 1.383 . S
C331 H339 0.929 . S
C332 C331 1.383 . S
C332 C333 1.377 . S
C333 H317 0.930 . S
C333 C332 1.377 . S
C333 C334 1.379 . S
C334 H318 0.931 . S
C334 C328 1.383 . S
C334 C333 1.379 . S
H335 C329 0.959 . S
H336 C329 0.961 . S
H337 C329 0.960 . S
H338 C330 0.930 . S
H339 C331 0.929 . S
H340 C348 0.929 . S
H341 C350 0.930 . S
H342 C352 0.930 . S
H343 C355 0.929 . S
H344 C358 0.930 . S
H345 C360 0.960 . S
H346 C360 0.960 1_655 S
H347 C360 0.960 . S
C348 H340 0.929 . S
C348 C349 1.375 . S
C348 C350 1.384 . S
C349 C348 1.375 . S
C349 C355 1.392 1_655 S
C350 H341 0.930 . S
C350 C348 1.384 . S
C350 C351 1.399 . S
C351 C350 1.399 . S
C351 C352 1.373 1_655 S
C351 C356 1.490 . S
C352 H342 0.930 . S
C352 C351 1.373 1_455 S
C352 C355 1.386 . S
H353 C369 0.930 . S
H354 C370 0.931 . S
C355 H343 0.929 . S
C355 C349 1.392 1_455 S
C355 C352 1.386 . S
C356 C351 1.490 . S
C356 C358 1.401 . S
C356 C359 1.397 1_655 S
H357 C363 0.930 . S
C358 H344 0.930 . S
C358 C356 1.401 . S
C358 C361 1.403 . S
C359 C356 1.397 1_455 S
C359 C360 1.524 . S
C359 C363 1.400 . S
C360 H345 0.960 . S
C360 H346 0.960 1_455 S
C360 H347 0.960 . S
C360 C359 1.524 . S
C361 C358 1.403 . S
C361 C362 1.397 . S
C361 C365 1.495 . S
C362 C361 1.397 . S
C362 C363 1.381 1_655 S
C362 C364 1.477 1_655 S
C363 H357 0.930 . S
C363 C359 1.400 . S
C363 C362 1.381 1_455 S
C364 C362 1.477 1_455 S
C364 C366 1.374 1_455 S
C364 C370 1.390 . S
C365 C361 1.495 . S
C365 H371 0.959 . S
C365 H372 0.961 1_655 S
C365 H373 0.960 . S
C366 C364 1.374 1_655 S
C366 C367 1.394 . S
C366 H374 0.930 . S
C367 C366 1.394 . S
C367 C368 1.383 1_655 S
C367 H375 0.929 . S
C368 C367 1.383 1_455 S
C368 C369 1.377 . S
C369 H353 0.930 . S
C369 C368 1.377 . S
C369 C370 1.379 . S
C370 H354 0.931 . S
C370 C364 1.390 . S
C370 C369 1.379 . S
H371 C365 0.959 . S
H372 C365 0.961 1_455 S
H373 C365 0.960 . S
H374 C366 0.930 . S
H375 C367 0.929 . S
H376 C384 0.929 . S
H377 C386 0.930 . S
H378 C388 0.930 . S
H379 C391 0.929 . S
H380 C394 0.930 . S
H381 C396 0.960 . S
H382 C396 0.960 . S
H383 C396 0.960 . S
C384 H376 0.929 . S
C384 C385 1.383 . S
C384 C386 1.384 . S
C385 C384 1.383 . S
C385 C391 1.384 1_565 S
C386 H377 0.930 . S
C386 C384 1.384 . S
C386 C387 1.372 . S
C387 C386 1.372 . S
C387 C388 1.400 1_565 S
C387 C392 1.490 . S
C388 H378 0.930 . S
C388 C387 1.400 1_545 S
C388 C391 1.386 . S
H389 C405 0.930 . S
H390 C406 0.931 . S
C391 H379 0.929 . S
C391 C385 1.384 1_545 S
C391 C388 1.386 . S
C392 C387 1.490 . S
C392 C394 1.395 . S
C392 C395 1.403 1_565 S
H393 C399 0.930 . S
C394 H380 0.930 . S
C394 C392 1.395 . S
C394 C397 1.403 1_554 S
C395 C392 1.403 1_545 S
C395 C396 1.524 . S
C395 C399 1.400 . S
C396 H381 0.960 . S
C396 H382 0.960 . S
C396 H383 0.960 . S
C396 C395 1.524 . S
C397 C394 1.403 1_556 S
C397 C398 1.392 . S
C397 C401 1.495 . S
C398 C397 1.392 . S
C398 C399 1.385 1_566 S
C398 C400 1.478 . S
C399 H393 0.930 . S
C399 C395 1.400 . S
C399 C398 1.385 1_544 S
C400 C398 1.478 . S
C400 C402 1.381 . S
C400 C406 1.383 1_565 S
C401 C397 1.495 . S
C401 H407 0.959 . S
C401 H408 0.961 . S
C401 H409 0.960 . S
C402 C400 1.381 . S
C402 C403 1.394 . S
C402 H410 0.930 . S
C403 C402 1.394 . S
C403 C404 1.383 . S
C403 H411 0.929 . S
C404 C403 1.383 . S
C404 C405 1.377 1_565 S
C405 H389 0.930 . S
C405 C404 1.377 1_545 S
C405 C406 1.379 . S
C406 H390 0.931 . S
C406 C400 1.383 1_545 S
C406 C405 1.379 . S
H407 C401 0.959 . S
H408 C401 0.961 . S
H409 C401 0.960 . S
H410 C402 0.930 . S
H411 C403 0.929 . S
H412 C420 0.929 . S
H413 C422 0.930 . S
H414 C424 0.930 . S
H415 C427 0.929 . S
H416 C430 0.930 . S
H417 C432 0.960 . S
H418 C432 0.960 . S
H419 C432 0.960 . S
C420 H412 0.929 . S
C420 C421 1.377 . S
C420 C422 1.384 . S
C421 C420 1.377 . S
C421 C427 1.390 . S
C422 H413 0.930 . S
C422 C420 1.384 . S
C422 C423 1.372 . S
C423 C422 1.372 . S
C423 C424 1.400 . S
C423 C428 1.490 . S
C424 H414 0.930 . S
C424 C423 1.400 . S
C424 C427 1.386 . S
H425 C441 0.930 . S
H426 C442 0.931 . S
C427 H415 0.929 . S
C427 C421 1.390 . S
C427 C424 1.386 . S
C428 C423 1.490 . S
C428 C430 1.395 . S
C428 C431 1.403 . S
H429 C435 0.930 1_556 S
C430 H416 0.930 . S
C430 C428 1.395 . S
C430 C433 1.403 . S
C431 C428 1.403 . S
C431 C432 1.524 . S
C431 C435 1.400 . S
C432 H417 0.960 . S
C432 H418 0.960 . S
C432 H419 0.960 . S
C432 C431 1.524 . S
C433 C430 1.403 . S
C433 C434 1.392 . S
C433 C437 1.495 . S
C434 C433 1.392 . S
C434 C435 1.385 . S
C434 C436 1.478 1_554 S
C435 H429 0.930 1_554 S
C435 C431 1.400 . S
C435 C434 1.385 . S
C436 C434 1.478 1_556 S
C436 C438 1.381 . S
C436 C442 1.383 . S
C437 C433 1.495 . S
C437 H443 0.959 . S
C437 H444 0.961 1_554 S
C437 H445 0.960 . S
C438 C436 1.381 . S
C438 C439 1.394 . S
C438 H446 0.941 . S
C439 C438 1.394 . S
C439 C440 1.383 . S
C439 H447 0.929 . S
C440 C439 1.383 . S
C440 C441 1.377 . S
C441 H425 0.930 . S
C441 C440 1.377 . S
C441 C442 1.379 . S
C442 H426 0.931 . S
C442 C436 1.383 . S
C442 C441 1.379 . S
H443 C437 0.959 . S
H444 C437 0.961 1_556 S
H445 C437 0.960 . S
H446 C438 0.941 . S
H447 C439 0.929 . S
H448 C456 0.929 . S
H449 C458 0.930 . S
H450 C460 0.930 . S
H451 C463 0.929 . S
H452 C466 0.930 . S
H453 C468 0.960 . S
H454 C468 0.960 . S
H455 C468 0.960 . S
C456 H448 0.929 . S
C456 C457 1.377 . S
C456 C458 1.384 . S
C457 C456 1.377 . S
C457 C463 1.390 . S
C458 H449 0.930 . S
C458 C456 1.384 . S
C458 C459 1.372 . S
C459 C458 1.372 . S
C459 C460 1.400 . S
C459 C464 1.490 . S
C460 H450 0.930 . S
C460 C459 1.400 . S
C460 C463 1.386 . S
H461 C477 0.930 . S
H462 C478 0.931 . S
C463 H451 0.929 . S
C463 C457 1.390 . S
C463 C460 1.386 . S
C464 C459 1.490 . S
C464 C466 1.395 . S
C464 C467 1.403 . S
H465 C471 0.930 . S
C466 H452 0.930 . S
C466 C464 1.395 . S
C466 C469 1.403 1_554 S
C467 C464 1.403 . S
C467 C468 1.524 . S
C467 C471 1.400 . S
C468 H453 0.960 . S
C468 H454 0.960 . S
C468 H455 0.960 . S
C468 C467 1.524 . S
C469 C466 1.403 1_556 S
C469 C470 1.392 . S
C469 C473 1.495 . S
C470 C469 1.392 . S
C470 C471 1.385 1_556 S
C470 C472 1.478 . S
C471 H465 0.930 . S
C471 C467 1.400 . S
C471 C470 1.385 1_554 S
C472 C470 1.478 . S
C472 C474 1.381 . S
C472 C478 1.383 . S
C473 C469 1.495 . S
C473 H479 0.959 . S
C473 H480 0.961 . S
C473 H481 0.960 . S
C474 C472 1.381 . S
C474 C475 1.394 . S
C474 H482 0.930 . S
C475 C474 1.394 . S
C475 C476 1.383 . S
C475 H483 0.929 . S
C476 C475 1.383 . S
C476 C477 1.377 . S
C477 H461 0.930 . S
C477 C476 1.377 . S
C477 C478 1.379 . S
C478 H462 0.931 . S
C478 C472 1.383 . S
C478 C477 1.379 . S
H479 C473 0.959 . S
H480 C473 0.961 . S
H481 C473 0.960 . S
H482 C474 0.930 . S
H483 C475 0.929 . S
H484 C492 0.929 . S
H485 C494 0.930 . S
H486 C496 0.930 . S
H487 C499 0.929 . S
H488 C502 0.930 . S
H489 C504 0.972 . S
H490 C504 0.960 . S
H491 C504 0.960 . S
C492 H484 0.929 . S
C492 C493 1.378 1_455 S
C492 C494 1.384 . S
C493 C492 1.378 1_655 S
C493 C499 1.389 . S
C494 H485 0.930 . S
C494 C492 1.384 . S
C494 C495 1.394 . S
C495 C494 1.394 . S
C495 C496 1.378 1_455 S
C495 C500 1.490 . S
C496 H486 0.930 . S
C496 C495 1.378 1_655 S
C496 C499 1.386 . S
H497 C513 0.930 . S
H498 C514 0.931 . S
C499 H487 0.929 . S
C499 C493 1.389 . S
C499 C496 1.386 . S
C500 C495 1.490 . S
C500 C502 1.425 . S
C500 C503 1.375 1_455 S
H501 C507 0.930 1_556 S
C502 H488 0.930 . S
C502 C500 1.425 . S
C502 C505 1.403 . S
C503 C500 1.375 1_655 S
C503 C504 1.524 . S
C503 C507 1.400 . S
C504 H489 0.972 . S
C504 H490 0.960 . S
C504 H491 0.960 . S
C504 C503 1.524 . S
C505 C502 1.403 . S
C505 C506 1.392 . S
C505 C509 1.495 . S
C506 C505 1.392 . S
C506 C507 1.385 1_455 S
C506 C508 1.478 1_554 S
C507 H501 0.930 1_554 S
C507 C503 1.400 . S
C507 C506 1.385 1_655 S
C508 C506 1.478 1_556 S
C508 C510 1.381 . S
C508 C514 1.383 1_455 S
C509 C505 1.495 . S
C509 H515 0.959 . S
C509 H516 0.961 . S
C509 H517 0.960 . S
C510 C508 1.381 . S
C510 C511 1.394 . S
C510 H518 0.930 . S
C511 C510 1.394 . S
C511 C512 1.357 1_455 S
C511 H519 0.929 . S
C512 C511 1.357 1_655 S
C512 C513 1.402 . S
C513 H497 0.930 . S
C513 C512 1.402 . S
C513 C514 1.379 . S
C514 H498 0.931 . S
C514 C508 1.383 1_655 S
C514 C513 1.379 . S
H515 C509 0.959 . S
H516 C509 0.961 . S
H517 C509 0.960 . S
H518 C510 0.930 . S
H519 C511 0.929 . S
H520 C528 0.929 . S
H521 C530 0.930 . S
H522 C532 0.930 . S
H523 C535 0.929 . S
H524 C538 0.930 . S
H525 C540 0.960 . S
H526 C540 0.960 . S
H527 C540 0.960 . S
C528 H520 0.929 . S
C528 C529 1.377 1_655 S
C528 C530 1.384 . S
C529 C528 1.377 1_455 S
C529 C535 1.390 . S
C530 H521 0.930 . S
C530 C528 1.384 . S
C530 C531 1.372 . S
C531 C530 1.372 . S
C531 C532 1.400 1_655 S
C531 C536 1.490 . S
C532 H522 0.930 . S
C532 C531 1.400 1_455 S
C532 C535 1.386 . S
H533 C549 0.930 . S
H534 C550 0.931 . S
C535 H523 0.929 . S
C535 C529 1.390 . S
C535 C532 1.386 . S
C536 C531 1.490 . S
C536 C538 1.395 . S
C536 C539 1.392 1_655 S
H537 C543 0.930 1_455 S
C538 H524 0.930 . S
C538 C536 1.395 . S
C538 C541 1.403 . S
C539 C536 1.392 1_455 S
C539 C540 1.539 . S
C539 C543 1.395 1_455 S
C540 H525 0.960 . S
C540 H526 0.960 . S
C540 H527 0.960 . S
C540 C539 1.539 . S
C541 C538 1.403 . S
C541 C542 1.392 . S
C541 C545 1.495 . S
C542 C541 1.392 . S
C542 C543 1.385 . S
C542 C544 1.478 . S
C543 H537 0.930 1_655 S
C543 C539 1.395 1_655 S
C543 C542 1.385 . S
C544 C542 1.478 . S
C544 C546 1.381 . S
C544 C550 1.383 . S
C545 C541 1.495 . S
C545 H551 0.959 . S
C545 H552 0.961 . S
C545 H553 0.960 . S
C546 C544 1.381 . S
C546 C547 1.394 . S
C546 H554 0.930 . S
C547 C546 1.394 . S
C547 C548 1.383 . S
C547 H555 0.929 . S
C548 C547 1.383 . S
C548 C549 1.377 . S
C549 H533 0.930 . S
C549 C548 1.377 . S
C549 C550 1.379 . S
C550 H534 0.931 . S
C550 C544 1.383 . S
C550 C549 1.379 . S
H551 C545 0.959 . S
H552 C545 0.961 . S
H553 C545 0.960 . S
H554 C546 0.930 . S
H555 C547 0.929 . S
H556 C564 0.929 . S
H557 C566 0.930 . S
H558 C568 0.930 . S
H559 C571 0.929 . S
H560 C574 0.930 . S
H561 C576 0.960 . S
H562 C576 0.960 . S
H563 C576 0.960 . S
C564 H556 0.929 . S
C564 C565 1.377 1_565 S
C564 C566 1.384 . S
C565 C564 1.377 1_545 S
C565 C571 1.390 . S
C566 H557 0.930 . S
C566 C564 1.384 . S
C566 C567 1.372 . S
C567 C566 1.372 . S
C567 C568 1.400 1_565 S
C567 C572 1.490 . S
C568 H558 0.930 . S
C568 C567 1.400 1_545 S
C568 C571 1.386 . S
H569 C585 0.930 . S
H570 C586 0.931 . S
C571 H559 0.929 . S
C571 C565 1.390 . S
C571 C568 1.386 . S
C572 C567 1.490 . S
C572 C574 1.395 . S
C572 C575 1.403 1_565 S
H573 C579 0.930 1_545 S
C574 H560 0.930 . S
C574 C572 1.395 . S
C574 C577 1.403 . S
C575 C572 1.403 1_545 S
C575 C576 1.524 . S
C575 C579 1.400 1_545 S
C576 H561 0.960 . S
C576 H562 0.960 . S
C576 H563 0.960 . S
C576 C575 1.524 . S
C577 C574 1.403 . S
C577 C578 1.392 . S
C577 C581 1.495 . S
C578 C577 1.392 . S
C578 C579 1.385 . S
C578 C580 1.478 . S
C579 H573 0.930 1_565 S
C579 C575 1.400 1_565 S
C579 C578 1.385 . S
C580 C578 1.478 . S
C580 C582 1.381 . S
C580 C586 1.383 . S
C581 C577 1.495 . S
C581 H587 0.959 . S
C581 H588 0.961 . S
C581 H589 0.960 . S
C582 C580 1.381 . S
C582 C583 1.394 . S
C582 H590 0.930 . S
C583 C582 1.394 . S
C583 C584 1.383 . S
C583 H591 0.929 . S
C584 C583 1.383 . S
C584 C585 1.377 . S
C585 H569 0.930 . S
C585 C584 1.377 . S
C585 C586 1.379 . S
C586 H570 0.931 . S
C586 C580 1.383 . S
C586 C585 1.379 . S
H587 C581 0.959 . S
H588 C581 0.961 . S
H589 C581 0.960 . S
H590 C582 0.930 . S
H591 C583 0.929 . S
H592 C600 0.929 . S
H593 C602 0.930 . S
H594 C604 0.930 . S
H595 C607 0.929 . S
H596 C610 0.930 . S
H597 C612 0.960 . S
H598 C612 0.960 . S
H599 C612 0.960 . S
C600 H592 0.929 . S
C600 C601 1.377 . S
C600 C602 1.384 . S
C601 C600 1.377 . S
C601 C607 1.390 . S
C602 H593 0.930 . S
C602 C600 1.384 . S
C602 C603 1.372 . S
C603 C602 1.372 . S
C603 C604 1.400 . S
C603 C608 1.490 . S
C604 H594 0.930 . S
C604 C603 1.400 . S
C604 C607 1.386 . S
H605 C621 0.930 . S
H606 C622 0.931 . S
C607 H595 0.929 . S
C607 C601 1.390 . S
C607 C604 1.386 . S
C608 C603 1.490 . S
C608 C610 1.395 . S
C608 C611 1.403 . S
H609 C615 0.930 . S
C610 H596 0.930 . S
C610 C608 1.395 . S
C610 C613 1.403 . S
C611 C608 1.403 . S
C611 C612 1.524 . S
C611 C615 1.400 . S
C612 H597 0.960 . S
C612 H598 0.960 . S
C612 H599 0.960 . S
C612 C611 1.524 . S
C613 C610 1.403 . S
C613 C614 1.392 . S
C613 C617 1.495 . S
C614 C613 1.392 . S
C614 C615 1.385 . S
C614 C616 1.478 . S
C615 H609 0.930 . S
C615 C611 1.400 . S
C615 C614 1.385 . S
C616 C614 1.478 . S
C616 C618 1.381 . S
C616 C622 1.383 . S
C617 C613 1.495 . S
C617 H623 0.959 . S
C617 H624 0.961 . S
C617 H625 0.960 . S
C618 C616 1.381 . S
C618 C619 1.394 . S
C618 H626 0.930 . S
C619 C618 1.394 . S
C619 C620 1.383 . S
C619 H627 0.929 . S
C620 C619 1.383 . S
C620 C621 1.377 . S
C621 H605 0.930 . S
C621 C620 1.377 . S
C621 C622 1.379 . S
C622 H606 0.931 . S
C622 C616 1.383 . S
C622 C621 1.379 . S
H623 C617 0.959 . S
H624 C617 0.961 . S
H625 C617 0.960 . S
H626 C618 0.930 . S
H627 C619 0.929 . S
H628 C636 0.929 . S
H629 C638 0.930 . S
H630 C640 0.930 . S
H631 C643 0.929 . S
H632 C646 0.930 . S
H633 C648 0.960 . S
H634 C648 0.960 . S
H635 C648 0.960 . S
C636 H628 0.929 . S
C636 C637 1.377 . S
C636 C638 1.384 . S
C637 C636 1.377 . S
C637 C643 1.390 . S
C638 H629 0.930 . S
C638 C636 1.384 . S
C638 C639 1.372 . S
C639 C638 1.372 . S
C639 C640 1.400 . S
C639 C644 1.490 . S
C640 H630 0.930 . S
C640 C639 1.400 . S
C640 C643 1.386 . S
H641 C657 0.930 . S
H642 C658 0.931 . S
C643 H631 0.929 . S
C643 C637 1.390 . S
C643 C640 1.386 . S
C644 C639 1.490 . S
C644 C646 1.395 . S
C644 C647 1.403 . S
H645 C651 0.930 . S
C646 H632 0.930 . S
C646 C644 1.395 . S
C646 C649 1.403 . S
C647 C644 1.403 . S
C647 C648 1.524 . S
C647 C651 1.400 . S
C648 H633 0.960 . S
C648 H634 0.960 . S
C648 H635 0.960 . S
C648 C647 1.524 . S
C649 C646 1.403 . S
C649 C650 1.392 . S
C649 C653 1.495 . S
C650 C649 1.392 . S
C650 C651 1.385 . S
C650 C652 1.478 . S
C651 H645 0.930 . S
C651 C647 1.400 . S
C651 C650 1.385 . S
C652 C650 1.478 . S
C652 C654 1.381 . S
C652 C658 1.383 . S
C653 C649 1.495 . S
C653 H659 0.959 . S
C653 H660 0.961 . S
C653 H661 0.960 . S
C654 C652 1.381 . S
C654 C655 1.394 . S
C654 H662 0.930 . S
C655 C654 1.394 . S
C655 C656 1.383 . S
C655 H663 0.929 . S
C656 C655 1.383 . S
C656 C657 1.377 . S
C657 H641 0.930 . S
C657 C656 1.377 . S
C657 C658 1.379 . S
C658 H642 0.931 . S
C658 C652 1.383 . S
C658 C657 1.379 . S
H659 C653 0.959 . S
H660 C653 0.961 . S
H661 C653 0.960 . S
H662 C654 0.930 . S
H663 C655 0.929 . S
H664 C672 0.929 . S
H665 C674 0.930 . S
H666 C676 0.930 . S
H667 C679 0.929 . S
H668 C682 0.930 . S
H669 C684 0.960 . S
H670 C684 0.960 . S
H671 C684 0.960 1_655 S
C672 H664 0.929 . S
C672 C673 1.377 1_455 S
C672 C674 1.384 . S
C673 C672 1.377 1_655 S
C673 C679 1.390 . S
C674 H665 0.930 . S
C674 C672 1.384 . S
C674 C675 1.372 . S
C675 C674 1.372 . S
C675 C676 1.400 1_455 S
C675 C680 1.490 . S
C676 H666 0.930 . S
C676 C675 1.400 1_655 S
C676 C679 1.386 . S
H677 C693 0.930 . S
H678 C694 0.931 1_655 S
C679 H667 0.929 . S
C679 C673 1.390 . S
C679 C676 1.386 . S
C680 C675 1.490 . S
C680 C682 1.395 . S
C680 C683 1.403 . S
H681 C687 0.930 . S
C682 H668 0.930 . S
C682 C680 1.395 . S
C682 C685 1.403 . S
C683 C680 1.403 . S
C683 C684 1.524 . S
C683 C687 1.400 . S
C684 H669 0.960 . S
C684 H670 0.960 . S
C684 H671 0.960 1_455 S
C684 C683 1.524 . S
C685 C682 1.403 . S
C685 C686 1.392 . S
C685 C689 1.495 1_554 S
C686 C685 1.392 . S
C686 C687 1.385 . S
C686 C688 1.478 . S
C687 H681 0.930 . S
C687 C683 1.400 . S
C687 C686 1.385 . S
C688 C686 1.478 . S
C688 C690 1.381 1_554 S
C688 C694 1.382 . S
C689 C685 1.495 1_556 S
C689 H695 0.959 . S
C689 H696 0.961 . S
C689 H697 0.960 . S
C690 C688 1.381 1_556 S
C690 C691 1.394 . S
C690 H698 0.930 1_556 S
C691 C690 1.394 . S
C691 C692 1.383 . S
C691 H699 0.929 . S
C692 C691 1.383 . S
C692 C693 1.377 . S
C693 H677 0.930 . S
C693 C692 1.377 . S
C693 C694 1.380 1_556 S
C694 H678 0.931 1_455 S
C694 C688 1.382 . S
C694 C693 1.380 1_554 S
H695 C689 0.959 . S
H696 C689 0.961 . S
H697 C689 0.960 . S
H698 C690 0.930 1_554 S
H699 C691 0.929 . S
H700 C708 0.929 . S
H701 C710 0.930 . S
H702 C712 0.930 . S
H703 C715 0.929 . S
H704 C718 0.930 . S
H705 C720 0.960 . S
H706 C720 0.960 . S
H707 C720 0.960 . S
C708 H700 0.929 . S
C708 C709 1.377 . S
C708 C710 1.384 . S
C709 C708 1.377 . S
C709 C715 1.390 1_565 S
C710 H701 0.930 . S
C710 C708 1.384 . S
C710 C711 1.372 1_565 S
C711 C710 1.372 1_545 S
C711 C712 1.400 . S
C711 C716 1.490 . S
C712 H702 0.930 . S
C712 C711 1.400 . S
C712 C715 1.386 . S
H713 C729 0.930 . S
H714 C730 0.931 . S
C715 H703 0.929 . S
C715 C709 1.390 1_545 S
C715 C712 1.386 . S
C716 C711 1.490 . S
C716 C718 1.395 . S
C716 C719 1.403 . S
H717 C723 0.930 . S
C718 H704 0.930 . S
C718 C716 1.395 . S
C718 C721 1.403 . S
C719 C716 1.403 . S
C719 C720 1.524 . S
C719 C723 1.400 . S
C720 H705 0.960 . S
C720 H706 0.960 . S
C720 H707 0.960 . S
C720 C719 1.524 . S
C721 C718 1.403 . S
C721 C722 1.392 . S
C721 C725 1.495 . S
C722 C721 1.392 . S
C722 C723 1.385 . S
C722 C724 1.478 . S
C723 H717 0.930 . S
C723 C719 1.400 . S
C723 C722 1.385 . S
C724 C722 1.478 . S
C724 C726 1.381 . S
C724 C730 1.383 . S
C725 C721 1.495 . S
C725 H731 0.959 . S
C725 H732 0.961 . S
C725 H733 0.960 1_545 S
C726 C724 1.381 . S
C726 C727 1.394 1_554 S
C726 H734 0.930 1_545 S
C727 C726 1.394 1_556 S
C727 C728 1.383 . S
C727 H735 0.929 . S
C728 C727 1.383 . S
C728 C729 1.377 . S
C729 H713 0.930 . S
C729 C728 1.377 . S
C729 C730 1.379 1_556 S
C730 H714 0.931 . S
C730 C724 1.383 . S
C730 C729 1.379 1_554 S
H731 C725 0.959 . S
H732 C725 0.961 . S
H733 C725 0.960 1_565 S
H734 C726 0.930 1_565 S
H735 C727 0.929 . S
H736 C744 0.929 . S
H737 C746 0.930 . S
H738 C748 0.930 . S
H739 C751 0.929 . S
H740 C754 0.930 . S
H741 C756 0.960 . S
H742 C756 0.960 . S
H743 C756 0.960 . S
C744 H736 0.929 . S
C744 C745 1.377 . S
C744 C746 1.384 . S
C745 C744 1.377 . S
C745 C751 1.390 . S
C746 H737 0.930 . S
C746 C744 1.384 . S
C746 C747 1.372 . S
C747 C746 1.372 . S
C747 C748 1.400 . S
C747 C752 1.490 . S
C748 H738 0.930 . S
C748 C747 1.400 . S
C748 C751 1.386 . S
H749 C765 0.930 . S
H750 C766 0.931 . S
C751 H739 0.929 . S
C751 C745 1.390 . S
C751 C748 1.386 . S
C752 C747 1.490 . S
C752 C754 1.395 . S
C752 C755 1.403 . S
H753 C759 0.930 . S
C754 H740 0.930 . S
C754 C752 1.395 . S
C754 C757 1.403 . S
C755 C752 1.403 . S
C755 C756 1.524 . S
C755 C759 1.400 . S
C756 H741 0.960 . S
C756 H742 0.960 . S
C756 H743 0.960 . S
C756 C755 1.524 . S
C757 C754 1.403 . S
C757 C758 1.392 . S
C757 C761 1.495 . S
C758 C757 1.392 . S
C758 C759 1.385 . S
C758 C760 1.478 . S
C759 H753 0.930 . S
C759 C755 1.400 . S
C759 C758 1.385 . S
C760 C758 1.478 . S
C760 C762 1.381 . S
C760 C766 1.383 1_554 S
C761 C757 1.495 . S
C761 H767 0.959 . S
C761 H768 0.961 . S
C761 H769 0.960 . S
C762 C760 1.381 . S
C762 C763 1.394 . S
C762 H770 0.930 . S
C763 C762 1.394 . S
C763 C764 1.383 1_554 S
C763 H771 0.929 . S
C764 C763 1.383 1_556 S
C764 C765 1.377 . S
C765 H749 0.930 . S
C765 C764 1.377 . S
C765 C766 1.379 . S
C766 H750 0.931 . S
C766 C760 1.383 1_556 S
C766 C765 1.379 . S
H767 C761 0.959 . S
H768 C761 0.961 . S
H769 C761 0.960 . S
H770 C762 0.930 . S
H771 C763 0.929 . S
H772 C780 0.929 . S
H773 C782 0.930 . S
H774 C784 0.930 . S
H775 C787 0.929 . S
H776 C790 0.930 . S
H777 C792 0.960 . S
H778 C792 0.960 . S
H779 C792 0.960 . S
C780 H772 0.929 . S
C780 C781 1.377 . S
C780 C782 1.384 . S
C781 C780 1.377 . S
C781 C787 1.390 . S
C782 H773 0.930 . S
C782 C780 1.384 . S
C782 C783 1.372 . S
C783 C782 1.372 . S
C783 C784 1.400 . S
C783 C788 1.490 . S
C784 H774 0.930 . S
C784 C783 1.400 . S
C784 C787 1.386 . S
H785 C801 0.930 . S
H786 C802 0.931 . S
C787 H775 0.929 . S
C787 C781 1.390 . S
C787 C784 1.386 . S
C788 C783 1.490 . S
C788 C790 1.395 . S
C788 C791 1.403 . S
H789 C795 0.930 . S
C790 H776 0.930 . S
C790 C788 1.395 . S
C790 C793 1.403 . S
C791 C788 1.403 . S
C791 C792 1.524 . S
C791 C795 1.400 . S
C792 H777 0.960 . S
C792 H778 0.960 . S
C792 H779 0.960 . S
C792 C791 1.524 . S
C793 C790 1.403 . S
C793 C794 1.392 . S
C793 C797 1.495 . S
C794 C793 1.392 . S
C794 C795 1.385 . S
C794 C796 1.478 . S
C795 H789 0.930 . S
C795 C791 1.400 . S
C795 C794 1.385 . S
C796 C794 1.478 . S
C796 C798 1.381 . S
C796 C802 1.383 1_554 S
C797 C793 1.495 . S
C797 H803 0.959 . S
C797 H804 0.961 1_554 S
C797 H805 0.960 . S
C798 C796 1.381 . S
C798 C799 1.394 1_554 S
C798 H806 0.930 . S
C799 C798 1.394 1_556 S
C799 C800 1.383 . S
C799 H807 0.930 . S
C800 C799 1.383 . S
C800 C801 1.377 . S
C801 H785 0.930 . S
C801 C800 1.377 . S
C801 C802 1.379 . S
C802 H786 0.931 . S
C802 C796 1.383 1_556 S
C802 C801 1.379 . S
H803 C797 0.959 . S
H804 C797 0.961 1_556 S
H805 C797 0.960 . S
H806 C798 0.930 . S
H807 C799 0.930 . S
H808 C816 0.929 . S
H809 C818 0.930 . S
H810 C820 0.930 . S
H811 C823 0.929 . S
H812 C826 0.928 1_655 S
H813 C828 0.960 . S
H814 C828 0.960 . S
H815 C828 0.960 . S
C816 H808 0.929 . S
C816 C817 1.377 . S
C816 C818 1.384 . S
C817 C816 1.377 . S
C817 C823 1.390 1_455 S
C818 H809 0.930 . S
C818 C816 1.384 . S
C818 C819 1.372 . S
C819 C818 1.372 . S
C819 C820 1.400 1_455 S
C819 C824 1.490 . S
C820 H810 0.930 . S
C820 C819 1.400 1_655 S
C820 C823 1.386 . S
H821 C837 0.930 . S
H822 C838 0.931 . S
C823 H811 0.929 . S
C823 C817 1.390 1_655 S
C823 C820 1.386 . S
C824 C819 1.490 . S
C824 C826 1.396 . S
C824 C827 1.403 . S
H825 C831 0.930 . S
C826 H812 0.928 1_455 S
C826 C824 1.396 . S
C826 C829 1.403 . S
C827 C824 1.403 . S
C827 C828 1.524 . S
C827 C831 1.400 . S
C828 H813 0.960 . S
C828 H814 0.960 . S
C828 H815 0.960 . S
C828 C827 1.524 . S
C829 C826 1.403 . S
C829 C830 1.401 . S
C829 C833 1.488 1_455 S
C830 C829 1.401 . S
C830 C831 1.385 . S
C830 C832 1.478 . S
C831 H825 0.930 . S
C831 C827 1.400 . S
C831 C830 1.385 . S
C832 C830 1.478 . S
C832 C834 1.381 . S
C832 C838 1.383 1_455 S
C833 C829 1.488 1_655 S
C833 H839 0.959 1_556 S
C833 H840 0.961 . S
C833 H841 0.960 1_655 S
C834 C832 1.381 . S
C834 C835 1.394 . S
C834 H842 0.930 . S
C835 C834 1.394 . S
C835 C836 1.383 . S
C835 H843 0.929 . S
C836 C835 1.383 . S
C836 C837 1.377 1_455 S
C837 H821 0.930 . S
C837 C836 1.377 1_655 S
C837 C838 1.379 . S
C838 H822 0.931 . S
C838 C832 1.383 1_655 S
C838 C837 1.379 . S
H839 C833 0.959 1_554 S
H840 C833 0.961 . S
H841 C833 0.960 1_455 S
H842 C834 0.930 . S
H843 C835 0.929 . S
H844 C852 0.929 . S
H845 C854 0.930 . S
H846 C856 0.930 . S
H847 C859 0.929 1_554 S
H848 C862 0.930 . S
H849 C864 0.960 . S
H850 C864 0.960 . S
H851 C864 0.960 . S
C852 H844 0.929 . S
C852 C853 1.377 . S
C852 C854 1.384 . S
C853 C852 1.377 . S
C853 C859 1.390 1_545 S
C854 H845 0.930 . S
C854 C852 1.384 . S
C854 C855 1.372 . S
C855 C854 1.372 . S
C855 C856 1.400 1_545 S
C855 C860 1.490 . S
C856 H846 0.930 . S
C856 C855 1.400 1_565 S
C856 C859 1.386 . S
H857 C873 0.930 . S
H858 C874 0.931 . S
C859 H847 0.929 1_556 S
C859 C853 1.390 1_565 S
C859 C856 1.386 . S
C860 C855 1.490 . S
C860 C862 1.395 . S
C860 C863 1.403 1_545 S
H861 C867 0.930 . S
C862 H848 0.930 . S
C862 C860 1.395 . S
C862 C865 1.403 . S
C863 C860 1.403 1_565 S
C863 C864 1.524 . S
C863 C867 1.400 . S
C864 H849 0.960 . S
C864 H850 0.960 . S
C864 H851 0.960 . S
C864 C863 1.524 . S
C865 C862 1.403 . S
C865 C866 1.392 . S
C865 C869 1.495 . S
C866 C865 1.392 . S
C866 C867 1.385 1_545 S
C866 C868 1.478 . S
C867 H861 0.930 . S
C867 C863 1.400 . S
C867 C866 1.385 1_565 S
C868 C866 1.478 . S
C868 C870 1.381 . S
C868 C874 1.383 . S
C869 C865 1.495 . S
C869 H875 0.959 . S
C869 H876 0.961 . S
C869 H877 0.960 . S
C870 C868 1.381 . S
C870 C871 1.394 . S
C870 H878 0.930 . S
C871 C870 1.394 . S
C871 C872 1.383 . S
C871 H879 0.929 . S
C872 C871 1.383 . S
C872 C873 1.377 . S
C873 H857 0.930 . S
C873 C872 1.377 . S
C873 C874 1.379 . S
C874 H858 0.931 . S
C874 C868 1.383 . S
C874 C873 1.379 . S
H875 C869 0.959 . S
H876 C869 0.961 . S
H877 C869 0.960 . S
H878 C870 0.930 . S
H879 C871 0.929 . S
H880 C888 0.929 . S
H881 C890 0.930 . S
H882 C892 0.930 . S
H883 C895 0.929 . S
H884 C898 0.930 . S
H885 C900 0.960 . S
H886 C900 0.960 . S
H887 C900 0.960 . S
C888 H880 0.929 . S
C888 C889 1.377 . S
C888 C890 1.384 . S
C889 C888 1.377 . S
C889 C895 1.390 . S
C890 H881 0.930 . S
C890 C888 1.384 . S
C890 C891 1.372 . S
C891 C890 1.372 . S
C891 C892 1.400 . S
C891 C896 1.490 . S
C892 H882 0.930 . S
C892 C891 1.400 . S
C892 C895 1.386 . S
H893 C909 0.930 . S
H894 C910 0.931 . S
C895 H883 0.929 . S
C895 C889 1.390 . S
C895 C892 1.386 . S
C896 C891 1.490 . S
C896 C898 1.395 . S
C896 C899 1.403 . S
H897 C903 0.930 . S
C898 H884 0.930 . S
C898 C896 1.395 . S
C898 C901 1.403 . S
C899 C896 1.403 . S
C899 C900 1.524 . S
C899 C903 1.400 . S
C900 H885 0.960 . S
C900 H886 0.960 . S
C900 H887 0.960 . S
C900 C899 1.524 . S
C901 C898 1.403 . S
C901 C902 1.392 . S
C901 C905 1.495 . S
C902 C901 1.392 . S
C902 C903 1.385 . S
C902 C904 1.478 . S
C903 H897 0.930 . S
C903 C899 1.400 . S
C903 C902 1.385 . S
C904 C902 1.478 . S
C904 C906 1.381 . S
C904 C910 1.383 . S
C905 C901 1.495 . S
C905 H911 0.959 . S
C905 H912 0.961 . S
C905 H913 0.960 . S
C906 C904 1.381 . S
C906 C907 1.394 . S
C906 H914 0.930 . S
C907 C906 1.394 . S
C907 C908 1.383 . S
C907 H915 0.929 . S
C908 C907 1.383 . S
C908 C909 1.377 . S
C909 H893 0.930 . S
C909 C908 1.377 . S
C909 C910 1.379 . S
C910 H894 0.931 . S
C910 C904 1.383 . S
C910 C909 1.379 . S
H911 C905 0.959 . S
H912 C905 0.961 . S
H913 C905 0.960 . S
H914 C906 0.930 . S
H915 C907 0.929 . S
H916 C924 0.929 . S
H917 C926 0.930 . S
H918 C928 0.930 . S
H919 C931 0.929 1_554 S
H920 C934 0.930 . S
H921 C936 0.960 . S
H922 C936 0.960 . S
H923 C936 0.951 1_554 S
C924 H916 0.929 . S
C924 C925 1.377 . S
C924 C926 1.384 . S
C925 C924 1.377 . S
C925 C931 1.390 . S
C926 H917 0.930 . S
C926 C924 1.384 . S
C926 C927 1.372 . S
C927 C926 1.372 . S
C927 C928 1.400 . S
C927 C932 1.490 . S
C928 H918 0.930 . S
C928 C927 1.400 . S
C928 C931 1.386 . S
H929 C945 0.930 . S
H930 C946 0.931 . S
C931 H919 0.929 1_556 S
C931 C925 1.390 . S
C931 C928 1.386 . S
C932 C927 1.490 . S
C932 C934 1.395 . S
C932 C935 1.403 . S
H933 C939 0.930 . S
C934 H920 0.930 . S
C934 C932 1.395 . S
C934 C937 1.403 . S
C935 C932 1.403 . S
C935 C936 1.524 . S
C935 C939 1.400 . S
C936 H921 0.960 . S
C936 H922 0.960 . S
C936 H923 0.951 1_556 S
C936 C935 1.524 . S
C937 C934 1.403 . S
C937 C938 1.392 . S
C937 C941 1.495 . S
C938 C937 1.392 . S
C938 C939 1.385 . S
C938 C940 1.478 . S
C939 H933 0.930 . S
C939 C935 1.400 . S
C939 C938 1.385 . S
C940 C938 1.478 . S
C940 C942 1.381 . S
C940 C946 1.383 . S
C941 C937 1.495 . S
C941 H947 0.959 . S
C941 H948 0.961 . S
C941 H949 0.960 . S
C942 C940 1.381 . S
C942 C943 1.394 . S
C942 H950 0.930 . S
C943 C942 1.394 . S
C943 C944 1.383 . S
C943 H951 0.929 . S
C944 C943 1.383 . S
C944 C945 1.377 . S
C945 H929 0.930 . S
C945 C944 1.377 . S
C945 C946 1.379 . S
C946 H930 0.931 . S
C946 C940 1.383 . S
C946 C945 1.379 . S
H947 C941 0.959 . S
H948 C941 0.961 . S
H949 C941 0.960 . S
H950 C942 0.930 . S
H951 C943 0.929 . S
H952 C960 0.929 . S
H953 C962 0.930 . S
H954 C964 0.930 . S
H955 C967 0.929 . S
H956 C970 0.930 . S
H957 C972 0.960 . S
H958 C972 0.960 . S
H959 C972 0.960 . S
C960 H952 0.929 . S
C960 C961 1.377 1_455 S
C960 C962 1.384 . S
C961 C960 1.377 1_655 S
C961 C967 1.390 . S
C962 H953 0.930 . S
C962 C960 1.384 . S
C962 C963 1.372 1_455 S
C963 C962 1.372 1_655 S
C963 C964 1.400 . S
C963 C968 1.490 . S
C964 H954 0.930 . S
C964 C963 1.400 . S
C964 C967 1.386 . S
H965 C981 0.930 . S
H966 C982 0.931 . S
C967 H955 0.929 . S
C967 C961 1.390 . S
C967 C964 1.386 . S
C968 C963 1.490 . S
C968 C970 1.395 1_655 S
C968 C971 1.403 . S
H969 C975 0.930 . S
C970 H956 0.930 . S
C970 C968 1.395 1_455 S
C970 C973 1.403 . S
C971 C968 1.403 . S
C971 C972 1.524 . S
C971 C975 1.400 . S
C972 H957 0.960 . S
C972 H958 0.960 . S
C972 H959 0.960 . S
C972 C971 1.524 . S
C973 C970 1.403 . S
C973 C974 1.392 1_455 S
C973 C977 1.495 . S
C974 C973 1.392 1_655 S
C974 C975 1.385 . S
C974 C976 1.478 . S
C975 H969 0.930 . S
C975 C971 1.400 . S
C975 C974 1.385 . S
C976 C974 1.478 . S
C976 C978 1.381 1_655 S
C976 C982 1.383 . S
C977 C973 1.495 . S
C977 H983 0.959 . S
C977 H984 0.961 . S
C977 H985 0.960 . S
C978 C976 1.381 1_455 S
C978 C979 1.394 . S
C978 H986 0.930 . S
C979 C978 1.394 . S
C979 C980 1.383 1_455 S
C979 H987 0.929 . S
C980 C979 1.383 1_655 S
C980 C981 1.377 . S
C981 H965 0.930 . S
C981 C980 1.377 . S
C981 C982 1.379 . S
C982 H966 0.931 . S
C982 C976 1.383 . S
C982 C981 1.379 . S
H983 C977 0.959 . S
H984 C977 0.961 . S
H985 C977 0.960 . S
H986 C978 0.930 . S
H987 C979 0.929 . S
H988 C996 0.929 . S
H989 C998 0.930 . S
H990 C1000 0.931 . S
H991 C1003 0.929 . S
H992 C1006 0.930 . S
H993 C1008 0.960 . S
H994 C1008 0.960 . S
H995 C1008 0.960 . S
C996 H988 0.929 . S
C996 C997 1.377 . S
C996 C998 1.384 . S
C997 C996 1.377 . S
C997 C1003 1.390 1_565 S
C998 H989 0.930 . S
C998 C996 1.384 . S
C998 C999 1.372 . S
C999 C998 1.372 . S
C999 C1000 1.398 1_565 S
C999 C1004 1.490 . S
C1000 H990 0.931 . S
C1000 C999 1.398 1_545 S
C1000 C1003 1.386 . S
H1001 C1017 0.927 1_545 S
H1002 C1018 0.922 1_545 S
C1003 H991 0.929 . S
C1003 C997 1.390 1_545 S
C1003 C1000 1.386 . S
C1004 C999 1.490 . S
C1004 C1006 1.395 1_565 S
C1004 C1007 1.403 . S
H1005 C1011 0.930 . S
C1006 H992 0.930 . S
C1006 C1004 1.395 1_545 S
C1006 C1009 1.403 . S
C1007 C1004 1.403 . S
C1007 C1008 1.524 . S
C1007 C1011 1.400 . S
C1008 H993 0.960 . S
C1008 H994 0.960 . S
C1008 H995 0.960 . S
C1008 C1007 1.524 . S
C1009 C1006 1.403 . S
C1009 C1010 1.392 1_545 S
C1009 C1013 1.495 . S
C1010 C1009 1.392 1_565 S
C1010 C1011 1.385 . S
C1010 C1012 1.478 . S
C1011 H1005 0.930 . S
C1011 C1007 1.400 . S
C1011 C1010 1.385 . S
C1012 C1010 1.478 . S
C1012 C1014 1.381 . S
C1012 C1018 1.389 . S
C1013 C1009 1.495 . S
C1013 H1019 0.959 . S
C1013 H1020 0.961 . S
C1013 H1021 0.960 . S
C1014 C1012 1.381 . S
C1014 C1015 1.394 . S
C1014 H1022 0.930 . S
C1015 C1014 1.394 . S
C1015 C1016 1.383 . S
C1015 H1023 0.929 . S
C1016 C1015 1.383 . S
C1016 C1017 1.377 . S
C1017 H1001 0.927 1_565 S
C1017 C1016 1.377 . S
C1017 C1018 1.383 . S
C1018 H1002 0.922 1_565 S
C1018 C1012 1.389 . S
C1018 C1017 1.383 . S
H1019 C1013 0.959 . S
H1020 C1013 0.961 . S
H1021 C1013 0.960 . S
H1022 C1014 0.930 . S
H1023 C1015 0.929 . S
H1024 C1032 0.929 . S
H1025 C1034 0.930 . S
H1026 C1036 0.930 . S
H1027 C1039 0.929 . S
H1028 C1042 0.930 . S
H1029 C1044 0.960 . S
H1030 C1044 0.960 . S
H1031 C1044 0.960 . S
C1032 H1024 0.929 . S
C1032 C1033 1.377 . S
C1032 C1034 1.384 . S
C1033 C1032 1.377 . S
C1033 C1039 1.390 . S
C1034 H1025 0.930 . S
C1034 C1032 1.384 . S
C1034 C1035 1.372 . S
C1035 C1034 1.372 . S
C1035 C1036 1.400 . S
C1035 C1040 1.490 . S
C1036 H1026 0.930 . S
C1036 C1035 1.400 . S
C1036 C1039 1.386 . S
H1037 C1053 0.930 . S
H1038 C1054 0.931 . S
C1039 H1027 0.929 . S
C1039 C1033 1.390 . S
C1039 C1036 1.386 . S
C1040 C1035 1.490 . S
C1040 C1042 1.395 . S
C1040 C1043 1.403 . S
H1041 C1047 0.930 . S
C1042 H1028 0.930 . S
C1042 C1040 1.395 . S
C1042 C1045 1.403 . S
C1043 C1040 1.403 . S
C1043 C1044 1.524 . S
C1043 C1047 1.400 . S
C1044 H1029 0.960 . S
C1044 H1030 0.960 . S
C1044 H1031 0.960 . S
C1044 C1043 1.524 . S
C1045 C1042 1.403 . S
C1045 C1046 1.392 . S
C1045 C1049 1.495 . S
C1046 C1045 1.392 . S
C1046 C1047 1.385 . S
C1046 C1048 1.478 . S
C1047 H1041 0.930 . S
C1047 C1043 1.400 . S
C1047 C1046 1.385 . S
C1048 C1046 1.478 . S
C1048 C1050 1.381 . S
C1048 C1054 1.383 . S
C1049 C1045 1.495 . S
C1049 H1055 0.959 . S
C1049 H1056 0.961 . S
C1049 H1057 0.960 . S
C1050 C1048 1.381 . S
C1050 C1051 1.394 . S
C1050 H1058 0.930 . S
C1051 C1050 1.394 . S
C1051 C1052 1.383 . S
C1051 H1059 0.929 . S
C1052 C1051 1.383 . S
C1052 C1053 1.377 . S
C1053 H1037 0.930 . S
C1053 C1052 1.377 . S
C1053 C1054 1.379 . S
C1054 H1038 0.931 . S
C1054 C1048 1.383 . S
C1054 C1053 1.379 . S
H1055 C1049 0.959 . S
H1056 C1049 0.961 . S
H1057 C1049 0.960 . S
H1058 C1050 0.930 . S
H1059 C1051 0.929 . S
H1060 C1068 0.929 . S
H1061 C1070 0.930 . S
H1062 C1072 0.930 . S
H1063 C1075 0.929 . S
H1064 C1078 0.930 . S
H1065 C1080 0.960 . S
H1066 C1080 0.960 . S
H1067 C1080 0.960 . S
C1068 H1060 0.929 . S
C1068 C1069 1.377 . S
C1068 C1070 1.384 . S
C1069 C1068 1.377 . S
C1069 C1075 1.390 . S
C1070 H1061 0.930 . S
C1070 C1068 1.384 . S
C1070 C1071 1.372 . S
C1071 C1070 1.372 . S
C1071 C1072 1.400 . S
C1071 C1076 1.490 . S
C1072 H1062 0.930 . S
C1072 C1071 1.400 . S
C1072 C1075 1.386 . S
H1073 C1089 0.930 . S
H1074 C1090 0.931 . S
C1075 H1063 0.929 . S
C1075 C1069 1.390 . S
C1075 C1072 1.386 . S
C1076 C1071 1.490 . S
C1076 C1078 1.395 . S
C1076 C1079 1.403 . S
H1077 C1083 0.930 . S
C1078 H1064 0.930 . S
C1078 C1076 1.395 . S
C1078 C1081 1.403 . S
C1079 C1076 1.403 . S
C1079 C1080 1.524 . S
C1079 C1083 1.400 . S
C1080 H1065 0.960 . S
C1080 H1066 0.960 . S
C1080 H1067 0.960 . S
C1080 C1079 1.524 . S
C1081 C1078 1.403 . S
C1081 C1082 1.392 . S
C1081 C1085 1.495 . S
C1082 C1081 1.392 . S
C1082 C1083 1.385 . S
C1082 C1084 1.478 . S
C1083 H1077 0.930 . S
C1083 C1079 1.400 . S
C1083 C1082 1.385 . S
C1084 C1082 1.478 . S
C1084 C1086 1.381 . S
C1084 C1090 1.383 . S
C1085 C1081 1.495 . S
C1085 H1091 0.959 . S
C1085 H1092 0.961 . S
C1085 H1093 0.960 . S
C1086 C1084 1.381 . S
C1086 C1087 1.394 . S
C1086 H1094 0.930 . S
C1087 C1086 1.394 . S
C1087 C1088 1.383 . S
C1087 H1095 0.929 . S
C1088 C1087 1.383 . S
C1088 C1089 1.377 . S
C1089 H1073 0.930 . S
C1089 C1088 1.377 . S
C1089 C1090 1.379 . S
C1090 H1074 0.931 . S
C1090 C1084 1.383 . S
C1090 C1089 1.379 . S
H1091 C1085 0.959 . S
H1092 C1085 0.961 . S
H1093 C1085 0.960 . S
H1094 C1086 0.930 . S
H1095 C1087 0.929 . S
C241 C61 1.654 . S
C260 C81 1.716 1_545 S
C296 C121 1.743 . S
C277 C70 1.657 . S
C332 C161 1.740 . S
C313 C43 1.659 . S
C368 C201 1.728 1_455 S
C349 C52 1.661 . S
C404 C90 1.729 1_565 S
C385 C25 1.660 . S
C421 C34 1.670 . S
C440 C130 1.750 . S
C457 C7 1.661 . S
C476 C170 1.731 . S
C493 C16 1.651 . S
C512 C210 1.735 1_655 S
C548 C87 0.391 . S
C529 C50 0.266 1_455 S
C584 C127 0.408 . S
C565 C59 0.276 1_545 S
C620 C167 0.224 . S
C601 C67 0.230 . S
C637 C41 0.241 . S
C656 C207 0.218 . S
C673 C14 0.232 . S
C692 C78 0.359 . S
C728 C118 0.287 . S
C709 C23 0.265 . S
C764 C158 0.392 . S
C745 C31 0.259 . S
C781 C5 0.226 . S
C800 C198 0.403 . S
C817 C49 1.811 1_455 S
C836 C91 1.953 . S
C853 C58 1.797 1_545 S
C872 C131 1.969 . S
C908 C171 1.957 . S
C889 C68 1.789 . S
C944 C211 1.976 . S
C925 C40 1.794 . S
C961 C13 1.816 . S
C980 C82 1.964 . S
C1016 C122 1.944 . S
C997 C22 1.793 . S
C1052 C162 1.953 . S
C1033 C32 1.781 . S
C1069 C4 1.798 . S
C1088 C202 1.967 . S
