# Generated by pormake.
# Topology rtl, (3,6)-cn, num edge types: 1
# Building blocks:
#     Node 0, Type 0, BuildingBlock: BETDIP_clean_linker_0, # of connection points: 3
#     Node 1, Type 0, BuildingBlock: BETDIP_clean_linker_0, # of connection points: 3
#     Node 2, Type 0, BuildingBlock: BETDIP_clean_linker_0, # of connection points: 3
#     Node 3, Type 0, BuildingBlock: BETDIP_clean_linker_0, # of connection points: 3
#     Node 4, Type 1, BuildingBlock: KUMBUR_clean_sbu_1, # of connection points: 6
#     Node 5, Type 1, BuildingBlock: KUMBUR_clean_sbu_1, # of connection points: 6
#     Edge 6, Type (0, 1), BuildingBlock: UVAHIK_clean_linker_0, # of connection points: 2
#     Edge 7, Type (0, 1), BuildingBlock: UVAHIK_clean_linker_0, # of connection points: 2
#     Edge 8, Type (0, 1), BuildingBlock: UVAHIK_clean_linker_0, # of connection points: 2
#     Edge 9, Type (0, 1), BuildingBlock: UVAHIK_clean_linker_0, # of connection points: 2
#     Edge 10, Type (0, 1), BuildingBlock: UVAHIK_clean_linker_0, # of connection points: 2
#     Edge 11, Type (0, 1), BuildingBlock: UVAHIK_clean_linker_0, # of connection points: 2
#     Edge 12, Type (0, 1), BuildingBlock: UVAHIK_clean_linker_0, # of connection points: 2
#     Edge 13, Type (0, 1), BuildingBlock: UVAHIK_clean_linker_0, # of connection points: 2
#     Edge 14, Type (0, 1), BuildingBlock: UVAHIK_clean_linker_0, # of connection points: 2
#     Edge 15, Type (0, 1), BuildingBlock: UVAHIK_clean_linker_0, # of connection points: 2
#     Edge 16, Type (0, 1), BuildingBlock: UVAHIK_clean_linker_0, # of connection points: 2
#     Edge 17, Type (0, 1), BuildingBlock: UVAHIK_clean_linker_0, # of connection points: 2
# Relax obj value: 0.051
# Max RMSD: 0.207
# Mean RMSD: 0.154
data_MOF--net-rtl--node1-KUMBUR_clean_sbu_1--node2-BETDIP_clean_linker_0--edge1-UVAHIK_clean_linker_0
_symmetry_space_group_name_H-M    P1
_symmetry_Int_Tables_number       1
_symmetry_cell_setting            triclinic
loop_
_symmetry_equiv_pos_as_xyz
'x, y, z'
_cell_length_a     45.398764
_cell_length_b     45.365529
_cell_length_c     34.097545
_cell_angle_alpha  80.7144
_cell_angle_beta   100.00659
_cell_angle_gamma 91.072729
loop_
_atom_site_label
_atom_site_type_symbol
_atom_site_fract_x
_atom_site_fract_y
_atom_site_fract_z
_atom_type_partial_charge
H0 H 0.23866 0.84107 0.95984 0.0
H1 H 0.24826 0.83098 0.08928 0.0
H2 H 0.18953 0.89848 0.01478 0.0
H3 H 0.27498 0.79103 0.09019 0.0
C4 C 0.28062 0.79005 0.06081 0.0
C5 C 0.23301 0.8481 0.98656 0.0
C6 C 0.21253 0.87163 0.9826 0.0
C7 C 0.24623 0.83327 0.02462 0.0
C8 C 0.23866 0.84208 0.05945 0.0
C9 C 0.21849 0.86588 0.05581 0.0
C10 C 0.20579 0.88074 0.01745 0.0
N11 N 0.26687 0.80976 0.02599 0.0
H12 H 0.69518 0.72922 0.67839 0.0
H13 H 0.69884 0.72484 0.55417 0.0
H14 H 0.63818 0.66883 0.61517 0.0
H15 H 0.71045 0.77303 0.55307 0.0
C16 C 0.72601 0.77283 0.58118 0.0
C17 C 0.68734 0.7199 0.65115 0.0
C18 C 0.66502 0.69793 0.65087 0.0
C19 C 0.69896 0.73058 0.61601 0.0
C20 C 0.68922 0.71782 0.58101 0.0
C21 C 0.66715 0.69573 0.58033 0.0
C22 C 0.65486 0.68625 0.61522 0.0
N23 N 0.72068 0.75371 0.61665 0.0
H24 H 0.77852 0.19115 0.96729 0.0
H25 H 0.78479 0.18243 0.09588 0.0
H26 H 0.83988 0.12734 0.04633 0.0
H27 H 0.73305 0.19447 0.07337 0.0
C28 C 0.73594 0.21358 0.0507 0.0
C29 C 0.78844 0.18047 0.99733 0.0
C30 C 0.81016 0.15782 1.00251 0.0
C31 C 0.77865 0.18892 0.0307 0.0
C32 C 0.79152 0.17538 0.06984 0.0
C33 C 0.81344 0.15298 0.07555 0.0
C34 C 0.82242 0.14414 0.04181 0.0
N35 N 0.7565 0.21172 0.02415 0.0
H36 H 0.32498 0.29681 0.38117 0.0
H37 H 0.32941 0.28839 0.50948 0.0
H38 H 0.38191 0.35473 0.44864 0.0
H39 H 0.32364 0.23689 0.49885 0.0
C40 C 0.30399 0.24154 0.47546 0.0
C41 C 0.33415 0.30391 0.40963 0.0
C42 C 0.35436 0.32775 0.41062 0.0
C43 C 0.32561 0.28919 0.44531 0.0
C44 C 0.337 0.29883 0.48218 0.0
C45 C 0.35703 0.32279 0.48365 0.0
C46 C 0.36575 0.33685 0.44772 0.0
N47 N 0.30448 0.26569 0.44332 0.0
Tb48 Tb 0.03222 0.97833 0.50571 0.0
C49 C 0.96219 0.09648 0.48843 0.0
N50 N 0.98818 0.08884 0.51432 0.0
C51 C 0.00726 0.13798 0.49692 0.0
C52 C 0.95798 0.12513 0.46496 0.0
C53 C 0.01047 0.1092 0.51931 0.0
C54 C 0.98096 0.14596 0.46947 0.0
C55 C 0.91318 0.08182 0.4572 0.0
C56 C 0.9402 0.07501 0.48446 0.0
C57 C 0.9089 0.11029 0.43356 0.0
C58 C 0.93124 0.13189 0.43745 0.0
Tb59 Tb 0.99126 0.04116 0.54861 0.0
N60 N 0.94553 0.04735 0.50692 0.0
C61 C 0.89121 0.05988 0.4547 0.0
C62 C 0.92311 0.02687 0.50697 0.0
C63 C 0.89601 0.03247 0.48024 0.0
H64 H 0.03051 0.10349 0.54113 0.0
H65 H 0.87859 0.01584 0.47995 0.0
H66 H 0.98673 0.92022 0.50018 0.0
H67 H 0.14505 0.98863 0.58536 0.0
H68 H 0.92525 0.00671 0.52849 0.0
H69 H 0.87016 0.06418 0.4341 0.0
H70 H 0.09947 0.00605 0.53787 0.0
H71 H 0.02504 0.15402 0.50095 0.0
H72 H 0.88838 0.11584 0.41225 0.0
H73 H 0.92764 0.15373 0.41897 0.0
H74 H 0.98656 0.86753 0.53262 0.0
H75 H 0.9786 0.16822 0.45201 0.0
H76 H 0.14893 0.93649 0.62101 0.0
N77 N 0.02984 0.92891 0.53179 0.0
C78 C 0.05462 0.91725 0.5576 0.0
C79 C 1.00576 0.88133 0.54015 0.0
C80 C 0.05572 0.88714 0.57635 0.0
C81 C 1.00572 0.91134 0.5223 0.0
C82 C 0.0308 0.8692 0.56745 0.0
N83 N 0.0764 0.96504 0.54821 0.0
C84 C 0.1002 0.98364 0.55393 0.0
C85 C 0.10476 0.9247 0.59282 0.0
C86 C 0.07882 0.9358 0.56575 0.0
C87 C 0.12862 0.94412 0.60035 0.0
C88 C 0.12643 0.97362 0.58048 0.0
H89 H 0.03075 0.84595 0.58124 0.0
H90 H 0.08272 0.85294 0.61825 0.0
H91 H 0.12564 0.88582 0.63268 0.0
O92 O 0.05749 0.98978 0.45922 0.0
O93 O 0.03421 0.97336 0.57123 0.0
O94 O 0.03132 0.02052 0.588 0.0
O95 O 0.03595 0.94724 0.46742 0.0
O96 O 0.05021 0.02401 0.49907 0.0
O97 O 0.0393 0.04822 0.55026 0.0
O98 O 0.96112 0.03724 0.58944 0.0
O99 O 0.99486 0.04677 0.48421 0.0
O100 O 0.99139 0.99927 0.46912 0.0
O101 O 0.9929 0.07272 0.58804 0.0
O102 O 0.97785 0.99403 0.56161 0.0
O103 O 0.98425 0.9741 0.50555 0.0
C104 C 0.03988 0.99234 0.59679 0.0
C105 C 0.04153 0.96731 0.4014 0.0
C106 C 0.05264 0.96079 0.33566 0.0
C107 C 0.02247 0.96758 0.31868 0.0
C108 C 0.01168 0.97398 0.38388 0.0
C109 C 1.00228 0.97436 0.34263 0.0
C110 C 0.06197 0.96115 0.37725 0.0
C111 C 0.0552 0.04497 0.5222 0.0
C112 C 0.05141 0.96492 0.44514 0.0
C113 C 0.08149 0.876 0.60345 0.0
C114 C 0.10594 0.89472 0.61165 0.0
C115 C 0.98675 0.02816 0.45867 0.0
C116 C 0.97892 0.05388 0.65071 0.0
C117 C 0.9649 0.05833 0.71545 0.0
C118 C 0.98986 0.04058 0.73519 0.0
C119 C 1.00357 0.03616 0.671 0.0
C120 C 0.95967 0.06504 0.67302 0.0
C121 C 0.00908 0.02965 0.71301 0.0
C122 C 0.97205 0.97359 0.53792 0.0
C123 C 0.97225 0.05962 0.60637 0.0
H124 H 0.01416 0.96698 0.28709 0.0
H125 H 0.9956 0.97828 0.40223 0.0
H126 H 0.97913 0.97933 0.3293 0.0
H127 H 0.08508 0.95641 0.39114 0.0
H128 H 0.99464 0.03535 0.76781 0.0
H129 H 0.01838 0.0272 0.65436 0.0
H130 H 0.94029 0.07833 0.65731 0.0
H131 H 0.02822 0.01597 0.7284 0.0
Tb132 Tb 0.48264 0.49625 0.99695 0.0
C133 C 0.59461 0.57096 0.04306 0.0
N134 N 0.59052 0.54138 0.05457 0.0
C135 C 0.63901 0.53059 0.04133 0.0
C136 C 0.62058 0.58156 0.02825 0.0
C137 C 0.61267 0.52121 0.05549 0.0
C138 C 0.6428 0.56087 0.02704 0.0
C139 C 0.577 0.62159 0.03806 0.0
C140 C 0.57317 0.59053 0.04795 0.0
C141 C 0.60193 0.63238 0.02095 0.0
C142 C 0.62375 0.61238 0.01616 0.0
Tb143 Tb 0.54714 0.52793 0.07728 0.0
N144 N 0.54993 0.57914 0.06563 0.0
C145 C 0.55645 0.6408 0.04745 0.0
C146 C 0.53179 0.59785 0.07862 0.0
C147 C 0.53412 0.62886 0.06863 0.0
H148 H 0.60978 0.49788 0.06666 0.0
H149 H 0.51907 0.64351 0.07799 0.0
H150 H 0.42714 0.54678 0.98354 0.0
H151 H 0.47934 0.37687 0.03956 0.0
H152 H 0.51576 0.58905 0.0973 0.0
H153 H 0.55853 0.66482 0.04033 0.0
H154 H 0.49923 0.42485 0.0094 0.0
H155 H 0.65632 0.5145 0.04135 0.0
H156 H 0.60509 0.65617 0.01271 0.0
H157 H 0.64333 0.62101 0.00413 0.0
H158 H 0.38076 0.55176 0.01002 0.0
H159 H 0.66316 0.56809 0.01598 0.0
H160 H 0.43405 0.37661 0.07099 0.0
N161 N 0.43733 0.50294 0.01604 0.0
C162 C 0.42582 0.47833 0.03619 0.0
C163 C 0.39353 0.53111 0.01838 0.0
C164 C 0.39848 0.47953 0.05018 0.0
C165 C 0.42041 0.52848 0.00438 0.0
C166 C 0.38283 0.5067 0.0422 0.0
N167 N 0.46612 0.45117 0.02487 0.0
C168 C 0.4796 0.42481 0.02329 0.0
C169 C 0.42817 0.42466 0.05744 0.0
C170 C 0.44035 0.45132 0.0399 0.0
C171 C 0.4427 0.39763 0.05783 0.0
C172 C 0.46831 0.39769 0.04018 0.0
H173 H 0.36176 0.50862 0.05243 0.0
H174 H 0.36625 0.45386 0.08135 0.0
H175 H 0.39231 0.40573 0.08771 0.0
O176 O 0.48866 0.47605 0.94714 0.0
O177 O 0.49597 0.47399 0.05989 0.0
O178 O 0.50521 0.51225 0.09597 0.0
O179 O 0.44838 0.49994 0.9463 0.0
O180 O 0.52759 0.47736 1.00207 0.0
O181 O 0.5535 0.48213 0.06634 0.0
O182 O 0.56687 0.54455 0.13037 0.0
O183 O 0.55369 0.52898 0.01464 0.0
O184 O 0.50689 0.53633 0.97552 0.0
O185 O 0.56832 0.49713 0.12648 0.0
O186 O 0.50103 0.5448 0.06883 0.0
O187 O 0.48063 0.544 1.0021 0.0
C188 C 0.49421 0.48579 0.09204 0.0
C189 C 0.44368 0.45746 0.91414 0.0
C190 C 0.43036 0.42359 0.86501 0.0
C191 C 0.40967 0.40971 0.88819 0.0
C192 C 0.42216 0.44378 0.93595 0.0
C193 C 0.40561 0.41983 0.92335 0.0
C194 C 0.44756 0.44742 0.87841 0.0
C195 C 0.54869 0.46901 0.0338 0.0
C196 C 0.46163 0.48246 0.92812 0.0
C197 C 0.38703 0.45333 0.06994 0.0
C198 C 0.4018 0.4259 0.07342 0.0
C199 C 0.536 0.54057 0.98119 0.0
C200 C 0.59239 0.5115 0.18998 0.0
C201 C 0.60798 0.52526 0.25696 0.0
C202 C 0.62373 0.49796 0.26926 0.0
C203 C 0.60808 0.48434 0.20315 0.0
C204 C 0.59253 0.532 0.21694 0.0
C205 C 0.62374 0.47773 0.24251 0.0
C206 C 0.48327 0.55608 0.03519 0.0
C207 C 0.57555 0.51793 0.14843 0.0
H208 H 0.39584 0.39165 0.87839 0.0
H209 H 0.41772 0.45183 0.96242 0.0
H210 H 0.38917 0.40941 0.94051 0.0
H211 H 0.46375 0.4582 0.86104 0.0
H212 H 0.63634 0.49233 0.29952 0.0
H213 H 0.60837 0.46823 0.18297 0.0
H214 H 0.58004 0.55278 0.20709 0.0
H215 H 0.63594 0.45682 0.25234 0.0
C216 C 0.28118 0.19413 0.50321 0.0
C217 C 0.27797 0.22149 0.47689 0.0
C218 C 0.25675 0.17518 0.50612 0.0
C219 C 0.17553 0.17493 0.49444 0.0
H220 H 0.18286 0.09062 0.4893 0.0
C221 C 0.09026 0.0854 0.54365 0.0
C222 C 0.08033 0.06575 0.51623 0.0
C223 C 0.11377 0.10505 0.53752 0.0
C224 C 0.18048 0.11413 0.49068 0.0
H225 H 0.24666 0.25074 0.43315 0.0
H226 H 0.20365 0.21778 0.43889 0.0
H227 H 0.22512 0.12379 0.48018 0.0
H228 H 0.08795 0.05107 0.4612 0.0
H229 H 0.1294 0.08477 0.4513 0.0
H230 H 0.13104 0.16511 0.50571 0.0
C231 C 0.2252 0.21093 0.45696 0.0
C232 C 0.20468 0.13305 0.48567 0.0
C233 C 0.24982 0.22967 0.45352 0.0
C234 C 0.0949 0.06587 0.48297 0.0
C235 C 0.1187 0.08515 0.47725 0.0
C236 C 0.15148 0.15589 0.50015 0.0
C237 C 0.22846 0.18348 0.48328 0.0
C238 C 0.20245 0.16363 0.48749 0.0
C239 C 0.1283 0.10502 0.50434 0.0
C240 C 0.15372 0.12531 0.49829 0.0
H241 H 0.30263 0.18739 0.52165 0.0
H242 H 0.25984 0.15428 0.52688 0.0
H243 H 0.1733 0.19838 0.49625 0.0
H244 H 0.08007 0.08548 0.57008 0.0
H245 H 0.12101 0.11988 0.55918 0.0
C246 C 0.31448 0.74658 0.09123 0.0
C247 C 0.302 0.76684 0.05707 0.0
C248 C 0.33454 0.72441 0.08807 0.0
C249 C 0.35882 0.68294 0.01406 0.0
H250 H 0.42815 0.66329 0.09793 0.0
C251 C 0.45235 0.60132 1.00141 0.0
C252 C 0.46295 0.58088 0.03634 0.0
C253 C 0.43301 0.62463 1.00295 0.0
C254 C 0.40875 0.66834 0.07442 0.0
H255 H 0.30087 0.77996 0.9927 0.0
H256 H 0.33604 0.74154 0.98728 0.0
H257 H 0.39387 0.70274 0.10274 0.0
H258 H 0.4612 0.56832 0.09999 0.0
H259 H 0.42764 0.60889 0.10272 0.0
H260 H 0.37376 0.64844 0.98581 0.0
C261 C 0.33006 0.74245 0.01646 0.0
C262 C 0.38908 0.69093 0.07721 0.0
C263 C 0.31 0.7646 0.01963 0.0
C264 C 0.45376 0.58404 0.07271 0.0
C265 C 0.43457 0.60731 0.07429 0.0
C266 C 0.37855 0.66036 0.01125 0.0
C267 C 0.34255 0.72206 0.05062 0.0
C268 C 0.36377 0.69839 0.0472 0.0
C269 C 0.42402 0.62794 0.03949 0.0
C270 C 0.40362 0.65267 0.04155 0.0
H271 H 0.30861 0.7478 0.1204 0.0
H272 H 0.34344 0.70883 0.11489 0.0
H273 H 0.33934 0.68785 0.99068 0.0
H274 H 0.45916 0.59939 0.97301 0.0
H275 H 0.42544 0.6403 0.97568 0.0
C276 C 0.75782 0.80772 0.54352 0.0
C277 C 0.75206 0.79293 0.58077 0.0
C278 C 0.78201 0.82698 0.54156 0.0
C279 C 0.8541 0.84792 0.60006 0.0
H280 H 0.84416 0.91787 0.51672 0.0
C281 C 0.94223 0.94264 0.58458 0.0
C282 C 0.94835 0.9516 0.54541 0.0
C283 C 0.91892 0.92282 0.59125 0.0
C284 C 0.84733 0.89833 0.53999 0.0
H285 H 0.76714 0.78661 0.64546 0.0
H286 H 0.80919 0.82108 0.64228 0.0
H287 H 0.802 0.88497 0.5249 0.0
H288 H 0.93477 0.94713 0.48251 0.0
H289 H 0.89398 0.91279 0.49408 0.0
H290 H 0.89952 0.86196 0.61539 0.0
C291 C 0.79527 0.81733 0.61439 0.0
C292 C 0.82319 0.87936 0.54464 0.0
C293 C 0.77109 0.7977 0.61628 0.0
C294 C 0.93078 0.94036 0.51308 0.0
C295 C 0.90729 0.92091 0.51966 0.0
C296 C 0.87823 0.86718 0.59567 0.0
C297 C 0.80094 0.83235 0.57694 0.0
C298 C 0.82633 0.85356 0.57423 0.0
C299 C 0.90098 0.91206 0.55875 0.0
C300 C 0.87519 0.89231 0.56513 0.0
H301 H 0.74364 0.80421 0.51565 0.0
H302 H 0.78599 0.83745 0.51212 0.0
H303 H 0.85748 0.82818 0.62294 0.0
H304 H 0.95543 0.95101 0.61004 0.0
H305 H 0.91445 0.9165 0.62165 0.0
C306 C 0.7227 0.26721 0.02246 0.0
C307 C 0.71644 0.2401 0.04574 0.0
C308 C 0.70448 0.29232 0.01914 0.0
C309 C 0.62911 0.31547 0.02619 0.0
H310 H 0.66592 0.39026 0.04839 0.0
C311 C 0.56348 0.42737 1.00042 0.0
C312 C 0.56818 0.44328 0.03313 0.0
C313 C 0.58155 0.40276 1.00032 0.0
C314 C 0.65537 0.36951 0.04209 0.0
H315 H 0.6863 0.21777 0.08341 0.0
H316 H 0.65403 0.26156 0.07692 0.0
H317 H 0.69744 0.34657 0.05085 0.0
H318 H 0.59579 0.44559 0.09139 0.0
H319 H 0.62762 0.40318 0.09054 0.0
H320 H 0.58704 0.33843 0.01741 0.0
C321 C 0.67303 0.26339 0.06137 0.0
C322 C 0.67338 0.34463 0.04322 0.0
C323 C 0.69151 0.23843 0.06521 0.0
C324 C 0.59158 0.43411 0.06551 0.0
C325 C 0.6099 0.40982 0.06507 0.0
C326 C 0.61112 0.34049 0.02443 0.0
C327 C 0.67946 0.29062 0.03853 0.0
C328 C 0.6604 0.31731 0.03565 0.0
C329 C 0.60498 0.39383 0.03259 0.0
C330 C 0.62408 0.36766 0.03275 0.0
H331 H 0.74188 0.26917 0.00727 0.0
H332 H 0.70983 0.31304 1.00122 0.0
H333 H 0.61857 0.2947 0.02002 0.0
H334 H 0.54574 0.43377 0.97493 0.0
H335 H 0.57741 0.39089 0.9748 0.0
C336 C 0.19155 0.85472 0.11412 0.0
C337 C 0.20889 0.87436 0.09167 0.0
C338 C 0.17865 0.8642 0.14437 0.0
C339 C 0.1574 0.93437 0.17669 0.0
H340 H 0.13711 0.87873 0.26652 0.0
C341 C 0.07133 0.96517 0.26951 0.0
C342 C 0.07396 0.95242 0.31042 0.0
C343 C 0.09037 0.95627 0.2454 0.0
C344 C 0.14298 0.89481 0.24208 0.0
H345 H 0.22773 0.91859 0.08398 0.0
H346 H 0.20683 0.93479 0.1384 0.0
H347 H 0.16775 0.86193 0.22276 0.0
H348 H 0.0993 0.92026 0.35786 0.0
H349 H 0.13358 0.90634 0.31674 0.0
H350 H 0.13389 0.96761 0.1971 0.0
C351 C 0.20202 0.91245 0.13188 0.0
C352 C 0.1602 0.88497 0.2164 0.0
C353 C 0.21434 0.90314 0.10104 0.0
C354 C 0.09672 0.93102 0.32672 0.0
C355 C 0.11615 0.92255 0.3028 0.0
C356 C 0.14071 0.94435 0.20283 0.0
C357 C 0.18328 0.89341 0.15326 0.0
C358 C 0.16721 0.90445 0.18285 0.0
C359 C 0.11304 0.93476 0.26164 0.0
C360 C 0.13273 0.92461 0.23547 0.0
H361 H 0.18678 0.83252 0.10693 0.0
H362 H 0.16402 0.84896 0.15947 0.0
H363 H 0.16185 0.95008 0.15099 0.0
H364 H 0.0545 0.98208 0.25588 0.0
H365 H 0.08681 0.96593 0.21377 0.0
C366 C 0.62143 0.68459 0.68615 0.0
C367 C 0.65254 0.68638 0.68778 0.0
C368 C 0.60951 0.67127 0.71981 0.0
C369 C 0.62648 0.61383 0.80806 0.0
H370 H 0.56153 0.64891 0.84574 0.0
C371 C 0.57999 0.55494 0.94714 0.0
C372 C 0.54941 0.55788 0.94805 0.0
C373 C 0.59309 0.57198 0.91694 0.0
C374 C 0.57935 0.63852 0.83529 0.0
H375 H 0.6956 0.67611 0.72598 0.0
H376 H 0.67473 0.65224 0.78484 0.0
H377 H 0.58347 0.67687 0.79068 0.0
H378 H 0.50821 0.58025 0.91676 0.0
H379 H 0.53058 0.60882 0.86265 0.0
H380 H 0.62177 0.57503 0.85107 0.0
C381 C 0.65962 0.66136 0.75753 0.0
C382 C 0.59205 0.6547 0.80391 0.0
C383 C 0.67154 0.67517 0.72403 0.0
C384 C 0.53192 0.57759 0.91713 0.0
C385 C 0.54489 0.59429 0.88635 0.0
C386 C 0.61349 0.59745 0.83894 0.0
C387 C 0.62848 0.65901 0.7556 0.0
C388 C 0.61574 0.6425 0.78999 0.0
C389 C 0.57574 0.59186 0.88593 0.0
C390 C 0.58971 0.60953 0.85307 0.0
H391 H 0.60631 0.69314 0.65857 0.0
H392 H 0.58545 0.66961 0.71739 0.0
H393 H 0.64441 0.60368 0.7975 0.0
H394 H 0.59389 0.53926 0.96968 0.0
H395 H 0.61693 0.56961 0.91819 0.0
C396 C 0.83046 0.1083 0.12746 0.0
C397 C 0.82793 0.13945 0.11667 0.0
C398 C 0.84567 0.09553 0.16545 0.0
C399 C 0.87754 0.11334 0.26755 0.0
H400 H 0.92534 0.04216 0.27402 0.0
C401 C 0.9704 0.07013 0.40235 0.0
C402 C 0.96877 0.03985 0.41896 0.0
C403 C 0.95199 0.08176 0.36615 0.0
C404 C 0.91189 0.06191 0.27265 0.0
H405 H 0.83917 0.18174 0.13689 0.0
H406 H 0.86664 0.15966 0.20269 0.0
H407 H 0.89521 0.06365 0.20979 0.0
H408 H 0.94685 0.99789 0.41047 0.0
H409 H 0.91562 0.01801 0.34607 0.0
H410 H 0.89541 0.11201 0.33034 0.0
C411 C 0.85617 0.1449 0.18248 0.0
C412 C 0.89445 0.07418 0.23593 0.0
C413 C 0.84054 0.15763 0.14471 0.0
C414 C 0.94892 0.02123 0.39811 0.0
C415 C 0.93092 0.03274 0.36146 0.0
C416 C 0.89537 0.10131 0.30412 0.0
C417 C 0.85917 0.11366 0.19328 0.0
C418 C 0.87706 0.10011 0.23281 0.0
C419 C 0.93209 0.06317 0.3454 0.0
C420 C 0.91273 0.07554 0.30694 0.0
H421 H 0.82065 0.09381 0.10644 0.0
H422 H 0.84686 0.07142 0.17291 0.0
H423 H 0.86404 0.13294 0.26664 0.0
H424 H 0.98579 0.08491 0.41748 0.0
H425 H 0.95351 0.10525 0.35414 0.0
C426 C 0.37149 0.36448 0.52337 0.0
C427 C 0.36842 0.33368 0.52236 0.0
C428 C 0.38218 0.37488 0.55952 0.0
C429 C 0.42311 0.35114 0.66376 0.0
H430 H 0.3845 0.42095 0.6852 0.0
C431 C 0.43182 0.38366 0.82238 0.0
C432 C 0.43222 0.41414 0.82579 0.0
C433 C 0.42873 0.37469 0.78457 0.0
C434 C 0.39591 0.40174 0.67944 0.0
H435 H 0.3745 0.28968 0.55877 0.0
H436 H 0.39227 0.30789 0.62217 0.0
H437 H 0.36894 0.40336 0.62115 0.0
H438 H 0.43127 0.45911 0.79241 0.0
H439 H 0.4262 0.44344 0.72626 0.0
H440 H 0.44954 0.3492 0.7227 0.0
C441 C 0.38689 0.32399 0.59478 0.0
C442 C 0.38695 0.39161 0.64267 0.0
C443 C 0.3763 0.31355 0.55851 0.0
C444 C 0.43116 0.43546 0.79076 0.0
C445 C 0.42792 0.42649 0.75287 0.0
C446 C 0.432 0.36124 0.70066 0.0
C447 C 0.38988 0.3548 0.59574 0.0
C448 C 0.40027 0.36605 0.63445 0.0
C449 C 0.42586 0.39602 0.7493 0.0
C450 C 0.41833 0.38653 0.70902 0.0
H451 H 0.36528 0.38067 0.49623 0.0
H452 H 0.3845 0.39874 0.55901 0.0
H453 H 0.43419 0.33169 0.65817 0.0
H454 H 0.43291 0.36671 0.84892 0.0
H455 H 0.42709 0.35106 0.7829 0.0
C456 C 0.62714 0.67723 0.52951 0.0
C457 C 0.65757 0.682 0.54346 0.0
C458 C 0.61829 0.66382 0.49518 0.0
C459 C 0.64571 0.64421 0.40567 0.0
H460 H 0.58345 0.58466 0.40844 0.0
C461 C 0.6113 0.57724 0.27454 0.0
C462 C 0.60786 0.54636 0.28613 0.0
C463 C 0.61341 0.59661 0.303 0.0
C464 C 0.60093 0.60118 0.40718 0.0
H465 H 0.70258 0.67617 0.53261 0.0
H466 H 0.6873 0.65243 0.47327 0.0
H467 H 0.59574 0.61297 0.46386 0.0
H468 H 0.60232 0.5119 0.3363 0.0
H469 H 0.6068 0.54534 0.38589 0.0
H470 H 0.65192 0.63137 0.34998 0.0
C471 C 0.67013 0.65969 0.48811 0.0
C472 C 0.60774 0.61771 0.43878 0.0
C473 C 0.67893 0.67322 0.52225 0.0
C474 C 0.60549 0.53549 0.32647 0.0
C475 C 0.60764 0.55477 0.35484 0.0
C476 C 0.63899 0.62759 0.37416 0.0
C477 C 0.6397 0.65471 0.47417 0.0
C478 C 0.63061 0.63905 0.43882 0.0
C479 C 0.61206 0.58553 0.34366 0.0
C480 C 0.61691 0.60544 0.3749 0.0
H481 H 0.61014 0.68409 0.54496 0.0
H482 H 0.59465 0.66071 0.48502 0.0
H483 H 0.6631 0.66083 0.40432 0.0
H484 H 0.61329 0.58635 0.24374 0.0
H485 H 0.61643 0.62022 0.29322 0.0
C486 C 0.82622 0.17022 0.93478 0.0
C487 C 0.82064 0.14873 0.96721 0.0
C488 C 0.83788 0.16169 0.90288 0.0
C489 C 0.85055 0.09573 0.85547 0.0
H490 H 0.91519 0.14319 0.81819 0.0
C491 C 0.9351 0.05043 0.77154 0.0
C492 C 0.94434 0.06951 0.73928 0.0
C493 C 0.91677 0.06111 0.79515 0.0
C494 C 0.89686 0.12994 0.8278 0.0
H495 H 0.82178 0.10131 0.99066 0.0
H496 H 0.84282 0.08654 0.93578 0.0
H497 H 0.88876 0.16011 0.86699 0.0
H498 H 0.94131 0.11463 0.70611 0.0
H499 H 0.90916 0.13335 0.74749 0.0
H500 H 0.85934 0.06512 0.8171 0.0
C501 C 0.83792 0.10997 0.93466 0.0
C502 C 0.88166 0.13965 0.85575 0.0
C503 C 0.82622 0.11848 0.96644 0.0
C504 C 0.93442 0.09939 0.73067 0.0
C505 C 0.91623 0.11014 0.75452 0.0
C506 C 0.86585 0.08596 0.82768 0.0
C507 C 0.84423 0.13148 0.90269 0.0
C508 C 0.85862 0.12244 0.87039 0.0
C509 C 0.90738 0.09115 0.78718 0.0
C510 C 0.88946 0.10274 0.814 0.0
H511 H 0.82236 0.19374 0.93455 0.0
H512 H 0.84214 0.1788 0.87851 0.0
H513 H 0.83254 0.08221 0.86551 0.0
H514 H 0.94213 0.02721 0.77862 0.0
H515 H 0.91058 0.04599 0.82033 0.0
C516 C 0.36453 0.37474 0.36579 0.0
C517 C 0.36403 0.34339 0.37334 0.0
C518 C 0.37661 0.38976 0.33328 0.0
C519 C 0.40146 0.38074 0.23753 0.0
H520 H 0.45059 0.449 0.25978 0.0
C521 C 0.48017 0.43789 0.13162 0.0
C522 C 0.47954 0.46924 0.12415 0.0
C523 C 0.46507 0.42221 0.16077 0.0
C524 C 0.4367 0.43018 0.25293 0.0
H525 H 0.37481 0.30315 0.352 0.0
H526 H 0.39643 0.32938 0.29528 0.0
H527 H 0.4254 0.4221 0.31193 0.0
H528 H 0.46329 0.50889 0.14173 0.0
H529 H 0.43727 0.48155 0.19319 0.0
H530 H 0.41338 0.38876 0.17854 0.0
C531 C 0.38712 0.3424 0.31424 0.0
C532 C 0.42216 0.41478 0.2828 0.0
C533 C 0.37477 0.32735 0.34671 0.0
C534 C 0.46423 0.4847 0.14705 0.0
C535 C 0.44931 0.46905 0.1764 0.0
C536 C 0.41619 0.39611 0.20765 0.0
C537 C 0.38876 0.3738 0.30765 0.0
C538 C 0.40419 0.38996 0.27547 0.0
C539 C 0.44947 0.43763 0.18348 0.0
C540 C 0.43387 0.42108 0.21502 0.0
H541 H 0.35594 0.38768 0.38548 0.0
H542 H 0.37674 0.41394 0.32854 0.0
H543 H 0.38759 0.36193 0.2307 0.0
H544 H 0.49232 0.42549 0.11485 0.0
H545 H 0.46595 0.39802 0.16592 0.0
C546 C 0.18385 0.86722 0.91427 0.0
C547 C 0.19673 0.8854 0.94223 0.0
C548 C 0.16734 0.87989 0.87712 0.0
C549 C 0.15546 0.94851 0.80331 0.0
H550 H 0.07794 0.91443 0.77 0.0
C551 C 0.07403 1.00108 0.65994 0.0
C552 C 0.05756 0.98133 0.63697 0.0
C553 C 0.09103 0.99034 0.69769 0.0
C554 C 0.0997 0.92399 0.77852 0.0
H555 H 0.20312 0.93109 0.95292 0.0
H556 H 0.17438 0.95334 0.88752 0.0
H557 H 0.10828 0.89373 0.83435 0.0
H558 H 0.04604 0.93487 0.63549 0.0
H559 H 0.07666 0.91602 0.70009 0.0
H560 H 0.14724 0.97835 0.74708 0.0
C561 C 0.17704 0.92928 0.89453 0.0
C562 C 0.11701 0.91216 0.81546 0.0
C563 C 0.1933 0.91657 0.93196 0.0
C564 C 0.05861 0.95066 0.65233 0.0
C565 C 0.07588 0.93989 0.6897 0.0
C566 C 0.13825 0.96018 0.76607 0.0
C567 C 0.1636 0.91101 0.86699 0.0
C568 C 0.14512 0.92418 0.82813 0.0
C569 C 0.09218 0.95959 0.71301 0.0
C570 C 0.11022 0.94792 0.7531 0.0
H571 H 0.18588 0.84312 0.92154 0.0
H572 H 0.15744 0.86531 0.85628 0.0
H573 H 0.17716 0.95805 0.81228 0.0
H574 H 0.07385 0.02483 0.64872 0.0
H575 H 0.10302 0.0062 0.71499 0.0
loop_
_geom_bond_atom_site_label_1
_geom_bond_atom_site_label_2
_geom_bond_distance
_geom_bond_site_symmetry_2
_ccdc_geom_bond_type
H0 C5 0.930 . S
H1 C8 0.930 . S
H2 C10 0.930 . S
H3 C4 1.016 . S
C4 H3 1.016 . S
C4 N11 1.286 . S
C5 H0 0.930 . S
C5 C6 1.397 . S
C5 C7 1.361 1_556 S
C6 C5 1.397 . S
C6 C10 1.390 1_556 S
C7 C5 1.361 1_554 S
C7 C8 1.393 . S
C7 N11 1.413 . S
C8 H1 0.930 . S
C8 C7 1.393 . S
C8 C9 1.399 . S
C9 C8 1.399 . S
C9 C10 1.381 . S
C10 H2 0.930 . S
C10 C6 1.390 1_554 S
C10 C9 1.381 . S
N11 C4 1.286 . S
N11 C7 1.413 . S
H12 C17 0.930 . S
H13 C20 0.930 . S
H14 C22 0.930 . S
H15 C16 1.016 . S
C16 H15 1.016 . S
C16 N23 1.286 . S
C17 H12 0.930 . S
C17 C18 1.397 . S
C17 C19 1.361 . S
C18 C17 1.397 . S
C18 C22 1.390 . S
C19 C17 1.361 . S
C19 C20 1.393 . S
C19 N23 1.413 . S
C20 H13 0.930 . S
C20 C19 1.393 . S
C20 C21 1.399 . S
C21 C20 1.399 . S
C21 C22 1.381 . S
C22 H14 0.930 . S
C22 C18 1.390 . S
C22 C21 1.381 . S
N23 C16 1.286 . S
N23 C19 1.413 . S
H24 C29 0.930 . S
H25 C32 0.930 . S
H26 C34 0.930 . S
H27 C28 1.016 . S
C28 H27 1.016 . S
C28 N35 1.286 . S
C29 H24 0.930 . S
C29 C30 1.397 . S
C29 C31 1.361 1_556 S
C30 C29 1.397 . S
C30 C34 1.390 1_556 S
C31 C29 1.361 1_554 S
C31 C32 1.393 . S
C31 N35 1.413 . S
C32 H25 0.930 . S
C32 C31 1.393 . S
C32 C33 1.399 . S
C33 C32 1.399 . S
C33 C34 1.381 . S
C34 H26 0.930 . S
C34 C30 1.390 1_554 S
C34 C33 1.381 . S
N35 C28 1.286 . S
N35 C31 1.413 . S
H36 C41 0.930 . S
H37 C44 0.930 . S
H38 C46 0.930 . S
H39 C40 1.016 . S
C40 H39 1.016 . S
C40 N47 1.286 . S
C41 H36 0.930 . S
C41 C42 1.397 . S
C41 C43 1.361 . S
C42 C41 1.397 . S
C42 C46 1.390 . S
C43 C41 1.361 . S
C43 C44 1.393 . S
C43 N47 1.413 . S
C44 H37 0.930 . S
C44 C43 1.393 . S
C44 C45 1.399 . S
C45 C44 1.399 . S
C45 C46 1.381 . S
C46 H38 0.930 . S
C46 C42 1.390 . S
C46 C45 1.381 . S
N47 C40 1.286 . S
N47 C43 1.413 . S
Tb48 N77 2.617 . S
Tb48 N83 2.572 . S
Tb48 O92 2.465 . S
Tb48 O93 2.387 . S
Tb48 O95 2.428 . S
Tb48 O96 2.308 1_565 S
Tb48 O100 2.349 1_465 S
Tb48 O103 2.393 1_455 S
Tb48 C112 2.802 . S
C49 N50 1.379 . S
C49 C52 1.416 . S
C49 C56 1.424 . S
N50 C49 1.379 . S
N50 C53 1.334 1_655 S
N50 Tb59 2.617 . S
C51 C53 1.390 . S
C51 C54 1.339 1_455 S
C51 H71 0.930 . S
C52 C49 1.416 . S
C52 C54 1.416 . S
C52 C58 1.448 . S
C53 N50 1.334 1_455 S
C53 C51 1.390 . S
C53 H64 0.930 . S
C54 C51 1.339 1_655 S
C54 C52 1.416 . S
C54 H75 0.930 . S
C55 C56 1.413 . S
C55 C57 1.427 . S
C55 C61 1.416 . S
C56 C49 1.424 . S
C56 C55 1.413 . S
C56 N60 1.361 . S
C57 C55 1.427 . S
C57 C58 1.328 . S
C57 H72 0.929 . S
C58 C52 1.448 . S
C58 C57 1.328 . S
C58 H73 0.930 . S
Tb59 N50 2.617 . S
Tb59 N60 2.572 . S
Tb59 O94 2.349 1_655 S
Tb59 O97 2.393 1_655 S
Tb59 O98 2.465 . S
Tb59 O99 2.387 . S
Tb59 O101 2.428 . S
Tb59 O102 2.308 1_545 S
Tb59 C123 2.802 . S
N60 C56 1.361 . S
N60 Tb59 2.572 . S
N60 C62 1.340 . S
C61 C55 1.416 . S
C61 C63 1.332 . S
C61 H69 0.931 . S
C62 N60 1.340 . S
C62 C63 1.407 . S
C62 H68 0.930 . S
C63 C61 1.332 . S
C63 C62 1.407 . S
C63 H65 0.929 . S
H64 C53 0.930 . S
H65 C63 0.929 . S
H66 C81 0.930 1_655 S
H67 C88 0.929 . S
H68 C62 0.930 . S
H69 C61 0.931 . S
H70 C84 0.930 . S
H71 C51 0.930 . S
H72 C57 0.929 . S
H73 C58 0.930 . S
H74 C79 0.930 1_655 S
H75 C54 0.930 . S
H76 C87 0.931 . S
N77 Tb48 2.617 . S
N77 C78 1.379 . S
N77 C81 1.334 . S
C78 N77 1.379 . S
C78 C80 1.416 . S
C78 C86 1.424 . S
C79 H74 0.930 1_455 S
C79 C81 1.390 . S
C79 C82 1.339 . S
C80 C78 1.416 . S
C80 C82 1.416 . S
C80 C113 1.448 . S
C81 H66 0.930 1_455 S
C81 N77 1.334 . S
C81 C79 1.390 . S
C82 C79 1.339 . S
C82 C80 1.416 . S
C82 H89 0.930 . S
N83 Tb48 2.572 . S
N83 C84 1.340 . S
N83 C86 1.361 . S
C84 H70 0.930 . S
C84 N83 1.340 . S
C84 C88 1.407 . S
C85 C86 1.413 . S
C85 C87 1.416 . S
C85 C114 1.427 . S
C86 C78 1.424 . S
C86 N83 1.361 . S
C86 C85 1.413 . S
C87 H76 0.931 . S
C87 C85 1.416 . S
C87 C88 1.332 . S
C88 H67 0.929 . S
C88 C84 1.407 . S
C88 C87 1.332 . S
H89 C82 0.930 . S
H90 C113 0.930 . S
H91 C114 0.929 . S
O92 Tb48 2.465 . S
O92 C112 1.264 . S
O93 Tb48 2.387 . S
O93 C104 1.264 . S
O94 Tb59 2.349 1_455 S
O94 C104 1.243 1_545 S
O95 Tb48 2.428 . S
O95 C112 1.256 . S
O96 Tb48 2.308 1_545 S
O96 C111 1.266 . S
O97 Tb59 2.393 1_455 S
O97 C111 1.248 . S
O98 Tb59 2.465 . S
O98 C123 1.264 . S
O99 Tb59 2.387 . S
O99 C115 1.264 . S
O100 Tb48 2.349 1_645 S
O100 C115 1.243 . S
O101 Tb59 2.428 . S
O101 C123 1.256 . S
O102 Tb59 2.308 1_565 S
O102 C122 1.266 . S
O103 Tb48 2.393 1_655 S
O103 C122 1.248 . S
C104 O93 1.264 . S
C104 O94 1.243 1_565 S
C105 C108 1.399 . S
C105 C110 1.383 . S
C105 C112 1.496 . S
C106 C107 1.399 . S
C106 C110 1.389 . S
C107 C106 1.399 . S
C107 C109 1.380 . S
C107 H124 0.929 . S
C108 C105 1.399 . S
C108 C109 1.392 . S
C108 H125 0.929 . S
C109 C107 1.380 . S
C109 C108 1.392 . S
C109 H126 0.929 . S
C110 C105 1.383 . S
C110 C106 1.389 . S
C110 H127 0.931 . S
C111 O96 1.266 . S
C111 O97 1.248 . S
C112 Tb48 2.802 . S
C112 O92 1.264 . S
C112 O95 1.256 . S
C112 C105 1.496 . S
C113 C80 1.448 . S
C113 H90 0.930 . S
C113 C114 1.328 . S
C114 C85 1.427 . S
C114 H91 0.929 . S
C114 C113 1.328 . S
C115 O99 1.264 . S
C115 O100 1.243 . S
C116 C119 1.399 . S
C116 C120 1.383 . S
C116 C123 1.496 . S
C117 C118 1.399 . S
C117 C120 1.389 . S
C118 C117 1.399 . S
C118 C121 1.380 . S
C118 H128 0.929 . S
C119 C116 1.399 . S
C119 C121 1.392 . S
C119 H129 0.929 . S
C120 C116 1.383 . S
C120 C117 1.389 . S
C120 H130 0.931 . S
C121 C118 1.380 . S
C121 C119 1.392 . S
C121 H131 0.929 . S
C122 O102 1.266 . S
C122 O103 1.248 . S
C123 Tb59 2.802 . S
C123 O98 1.264 . S
C123 O101 1.256 . S
C123 C116 1.496 . S
H124 C107 0.929 . S
H125 C108 0.929 . S
H126 C109 0.929 . S
H127 C110 0.931 . S
H128 C118 0.929 . S
H129 C119 0.929 . S
H130 C120 0.931 . S
H131 C121 0.929 . S
Tb132 N161 2.619 . S
Tb132 N167 2.572 1_556 S
Tb132 O176 2.465 . S
Tb132 O177 2.387 1_556 S
Tb132 O179 2.428 . S
Tb132 O180 2.308 1_556 S
Tb132 O184 2.349 . S
Tb132 O187 2.393 1_556 S
Tb132 C196 2.802 . S
C133 N134 1.379 . S
C133 C136 1.416 . S
C133 C140 1.424 . S
N134 C133 1.379 . S
N134 C137 1.334 . S
N134 Tb143 2.617 . S
C135 C137 1.390 . S
C135 C138 1.339 . S
C135 H155 0.930 . S
C136 C133 1.416 . S
C136 C138 1.416 . S
C136 C142 1.448 . S
C137 N134 1.334 . S
C137 C135 1.390 . S
C137 H148 0.930 . S
C138 C135 1.339 . S
C138 C136 1.416 . S
C138 H159 0.930 . S
C139 C140 1.413 . S
C139 C141 1.427 . S
C139 C145 1.416 . S
C140 C133 1.424 . S
C140 C139 1.413 . S
C140 N144 1.361 . S
C141 C139 1.427 . S
C141 C142 1.328 . S
C141 H156 0.929 . S
C142 C136 1.448 . S
C142 C141 1.328 . S
C142 H157 0.930 . S
Tb143 N134 2.617 . S
Tb143 N144 2.572 . S
Tb143 O178 2.349 . S
Tb143 O181 2.393 . S
Tb143 O182 2.465 . S
Tb143 O183 2.387 . S
Tb143 O185 2.428 . S
Tb143 O186 2.308 . S
Tb143 C207 2.802 . S
N144 C140 1.361 . S
N144 Tb143 2.572 . S
N144 C146 1.340 . S
C145 C139 1.416 . S
C145 C147 1.332 . S
C145 H153 0.931 . S
C146 N144 1.340 . S
C146 C147 1.407 . S
C146 H152 0.930 . S
C147 C145 1.332 . S
C147 C146 1.407 . S
C147 H149 0.929 . S
H148 C137 0.930 . S
H149 C147 0.929 . S
H150 C165 0.930 . S
H151 C172 0.929 . S
H152 C146 0.930 . S
H153 C145 0.931 . S
H154 C168 0.930 . S
H155 C135 0.930 . S
H156 C141 0.929 . S
H157 C142 0.930 . S
H158 C163 0.930 . S
H159 C138 0.930 . S
H160 C171 0.931 . S
N161 Tb132 2.619 . S
N161 C162 1.377 1_556 S
N161 C165 1.334 . S
C162 N161 1.377 1_554 S
C162 C164 1.416 . S
C162 C170 1.424 . S
C163 H158 0.930 . S
C163 C165 1.398 . S
C163 C166 1.332 1_556 S
C164 C162 1.416 . S
C164 C166 1.416 . S
C164 C197 1.448 . S
C165 H150 0.930 . S
C165 N161 1.334 . S
C165 C163 1.398 . S
C166 C163 1.332 1_554 S
C166 C164 1.416 . S
C166 H173 0.930 . S
N167 Tb132 2.572 1_554 S
N167 C168 1.340 . S
N167 C170 1.361 . S
C168 H154 0.930 . S
C168 N167 1.340 . S
C168 C172 1.407 . S
C169 C170 1.413 . S
C169 C171 1.416 . S
C169 C198 1.427 . S
C170 C162 1.424 . S
C170 N167 1.361 . S
C170 C169 1.413 . S
C171 H160 0.931 . S
C171 C169 1.416 . S
C171 C172 1.332 . S
C172 H151 0.929 . S
C172 C168 1.407 . S
C172 C171 1.332 . S
H173 C166 0.930 . S
H174 C197 0.930 . S
H175 C198 0.929 . S
O176 Tb132 2.465 . S
O176 C196 1.264 . S
O177 Tb132 2.387 1_554 S
O177 C188 1.264 . S
O178 Tb143 2.349 . S
O178 C188 1.243 . S
O179 Tb132 2.428 . S
O179 C196 1.256 . S
O180 Tb132 2.308 1_554 S
O180 C195 1.266 . S
O181 Tb143 2.393 . S
O181 C195 1.248 . S
O182 Tb143 2.465 . S
O182 C207 1.264 . S
O183 Tb143 2.387 . S
O183 C199 1.264 1_554 S
O184 Tb132 2.349 . S
O184 C199 1.243 . S
O185 Tb143 2.428 . S
O185 C207 1.256 . S
O186 Tb143 2.308 . S
O186 C206 1.266 . S
O187 Tb132 2.393 1_554 S
O187 C206 1.248 . S
C188 O177 1.264 . S
C188 O178 1.243 . S
C189 C192 1.399 . S
C189 C194 1.383 . S
C189 C196 1.496 . S
C190 C191 1.399 . S
C190 C194 1.389 . S
C191 C190 1.399 . S
C191 C193 1.380 . S
C191 H208 0.929 . S
C192 C189 1.399 . S
C192 C193 1.392 . S
C192 H209 0.929 . S
C193 C191 1.380 . S
C193 C192 1.392 . S
C193 H210 0.929 . S
C194 C189 1.383 . S
C194 C190 1.389 . S
C194 H211 0.931 . S
C195 O180 1.266 . S
C195 O181 1.248 . S
C196 Tb132 2.802 . S
C196 O176 1.264 . S
C196 O179 1.256 . S
C196 C189 1.496 . S
C197 C164 1.448 . S
C197 H174 0.930 . S
C197 C198 1.328 . S
C198 C169 1.427 . S
C198 H175 0.929 . S
C198 C197 1.328 . S
C199 O183 1.264 1_556 S
C199 O184 1.243 . S
C200 C203 1.399 . S
C200 C204 1.383 . S
C200 C207 1.496 . S
C201 C202 1.399 . S
C201 C204 1.389 . S
C202 C201 1.399 . S
C202 C205 1.380 . S
C202 H212 0.929 . S
C203 C200 1.399 . S
C203 C205 1.392 . S
C203 H213 0.929 . S
C204 C200 1.383 . S
C204 C201 1.389 . S
C204 H214 0.931 . S
C205 C202 1.380 . S
C205 C203 1.392 . S
C205 H215 0.929 . S
C206 O186 1.266 . S
C206 O187 1.248 . S
C207 Tb143 2.802 . S
C207 O182 1.264 . S
C207 O185 1.256 . S
C207 C200 1.496 . S
H208 C191 0.929 . S
H209 C192 0.929 . S
H210 C193 0.929 . S
H211 C194 0.931 . S
H212 C202 0.929 . S
H213 C203 0.929 . S
H214 C204 0.931 . S
H215 C205 0.929 . S
C216 C217 1.349 . S
C216 C218 1.327 . S
C216 H241 0.950 . S
C217 C216 1.349 . S
C217 C233 1.349 . S
C218 C216 1.327 . S
C218 C237 1.429 . S
C218 H242 0.950 . S
C219 C236 1.574 . S
C219 C238 1.368 . S
C219 H243 0.949 . S
H220 C224 0.949 . S
C221 C222 1.349 . S
C221 C223 1.327 . S
C221 H244 0.950 . S
C222 C221 1.349 . S
C222 C234 1.349 . S
C223 C221 1.327 . S
C223 C239 1.429 . S
C223 H245 0.950 . S
C224 H220 0.949 . S
C224 C232 1.574 . S
C224 C240 1.368 . S
H225 C233 0.950 . S
H226 C231 0.950 . S
H227 C232 0.949 . S
H228 C234 0.950 . S
H229 C235 0.950 . S
H230 C236 0.949 . S
C231 H226 0.950 . S
C231 C233 1.327 . S
C231 C237 1.429 . S
C232 C224 1.574 . S
C232 H227 0.949 . S
C232 C238 1.368 . S
C233 C217 1.349 . S
C233 H225 0.950 . S
C233 C231 1.327 . S
C234 C222 1.349 . S
C234 H228 0.950 . S
C234 C235 1.327 . S
C235 H229 0.950 . S
C235 C234 1.327 . S
C235 C239 1.429 . S
C236 C219 1.574 . S
C236 H230 0.949 . S
C236 C240 1.368 . S
C237 C218 1.429 . S
C237 C231 1.429 . S
C237 C238 1.523 . S
C238 C219 1.368 . S
C238 C232 1.368 . S
C238 C237 1.523 . S
C239 C223 1.429 . S
C239 C235 1.429 . S
C239 C240 1.523 . S
C240 C224 1.368 . S
C240 C236 1.368 . S
C240 C239 1.523 . S
H241 C216 0.950 . S
H242 C218 0.950 . S
H243 C219 0.949 . S
H244 C221 0.950 . S
H245 C223 0.950 . S
C246 C247 1.349 . S
C246 C248 1.327 . S
C246 H271 0.950 . S
C247 C246 1.349 . S
C247 C263 1.349 . S
C248 C246 1.327 . S
C248 C267 1.429 . S
C248 H272 0.950 . S
C249 C266 1.574 . S
C249 C268 1.368 . S
C249 H273 0.949 . S
H250 C254 0.949 . S
C251 C252 1.349 . S
C251 C253 1.327 . S
C251 H274 0.950 . S
C252 C251 1.349 . S
C252 C264 1.349 . S
C253 C251 1.327 . S
C253 C269 1.429 . S
C253 H275 0.950 . S
C254 H250 0.949 . S
C254 C262 1.574 . S
C254 C270 1.368 . S
H255 C263 0.950 . S
H256 C261 0.950 . S
H257 C262 0.949 . S
H258 C264 0.950 . S
H259 C265 0.950 . S
H260 C266 0.949 . S
C261 H256 0.950 . S
C261 C263 1.327 . S
C261 C267 1.429 . S
C262 C254 1.574 . S
C262 H257 0.949 . S
C262 C268 1.368 . S
C263 C247 1.349 . S
C263 H255 0.950 . S
C263 C261 1.327 . S
C264 C252 1.349 . S
C264 H258 0.950 . S
C264 C265 1.327 . S
C265 H259 0.950 . S
C265 C264 1.327 . S
C265 C269 1.429 . S
C266 C249 1.574 . S
C266 H260 0.949 . S
C266 C270 1.368 . S
C267 C248 1.429 . S
C267 C261 1.429 . S
C267 C268 1.523 . S
C268 C249 1.368 . S
C268 C262 1.368 . S
C268 C267 1.523 . S
C269 C253 1.429 . S
C269 C265 1.429 . S
C269 C270 1.523 . S
C270 C254 1.368 . S
C270 C266 1.368 . S
C270 C269 1.523 . S
H271 C246 0.950 . S
H272 C248 0.950 . S
H273 C249 0.949 . S
H274 C251 0.950 . S
H275 C253 0.950 . S
C276 C277 1.349 . S
C276 C278 1.327 . S
C276 H301 0.950 . S
C277 C276 1.349 . S
C277 C293 1.349 . S
C278 C276 1.327 . S
C278 C297 1.429 . S
C278 H302 0.950 . S
C279 C296 1.574 . S
C279 C298 1.368 . S
C279 H303 0.949 . S
H280 C284 0.949 . S
C281 C282 1.349 . S
C281 C283 1.327 . S
C281 H304 0.950 . S
C282 C281 1.349 . S
C282 C294 1.349 . S
C283 C281 1.327 . S
C283 C299 1.429 . S
C283 H305 0.950 . S
C284 H280 0.949 . S
C284 C292 1.574 . S
C284 C300 1.368 . S
H285 C293 0.950 . S
H286 C291 0.950 . S
H287 C292 0.949 . S
H288 C294 0.950 . S
H289 C295 0.950 . S
H290 C296 0.949 . S
C291 H286 0.950 . S
C291 C293 1.327 . S
C291 C297 1.429 . S
C292 C284 1.574 . S
C292 H287 0.949 . S
C292 C298 1.368 . S
C293 C277 1.349 . S
C293 H285 0.950 . S
C293 C291 1.327 . S
C294 C282 1.349 . S
C294 H288 0.950 . S
C294 C295 1.327 . S
C295 H289 0.950 . S
C295 C294 1.327 . S
C295 C299 1.429 . S
C296 C279 1.574 . S
C296 H290 0.949 . S
C296 C300 1.368 . S
C297 C278 1.429 . S
C297 C291 1.429 . S
C297 C298 1.523 . S
C298 C279 1.368 . S
C298 C292 1.368 . S
C298 C297 1.523 . S
C299 C283 1.429 . S
C299 C295 1.429 . S
C299 C300 1.523 . S
C300 C284 1.368 . S
C300 C296 1.368 . S
C300 C299 1.523 . S
H301 C276 0.950 . S
H302 C278 0.950 . S
H303 C279 0.949 . S
H304 C281 0.950 . S
H305 C283 0.950 . S
C306 C307 1.349 . S
C306 C308 1.327 . S
C306 H331 0.950 . S
C307 C306 1.349 . S
C307 C323 1.349 . S
C308 C306 1.327 . S
C308 C327 1.429 . S
C308 H332 0.950 . S
C309 C326 1.574 . S
C309 C328 1.368 . S
C309 H333 0.949 1_554 S
H310 C314 0.949 . S
C311 C312 1.349 . S
C311 C313 1.327 . S
C311 H334 0.951 . S
C312 C311 1.349 . S
C312 C324 1.349 . S
C313 C311 1.327 . S
C313 C329 1.429 . S
C313 H335 0.950 1_554 S
C314 H310 0.949 . S
C314 C322 1.574 . S
C314 C330 1.368 . S
H315 C323 0.950 1_556 S
H316 C321 0.950 1_556 S
H317 C322 0.949 . S
H318 C324 0.950 . S
H319 C325 0.950 . S
H320 C326 0.949 1_556 S
C321 H316 0.950 1_554 S
C321 C323 1.327 . S
C321 C327 1.429 . S
C322 C314 1.574 . S
C322 H317 0.949 . S
C322 C328 1.368 . S
C323 C307 1.349 . S
C323 H315 0.950 1_554 S
C323 C321 1.327 . S
C324 C312 1.349 . S
C324 H318 0.950 . S
C324 C325 1.327 . S
C325 H319 0.950 . S
C325 C324 1.327 . S
C325 C329 1.429 . S
C326 C309 1.574 . S
C326 H320 0.949 1_554 S
C326 C330 1.368 . S
C327 C308 1.429 . S
C327 C321 1.429 . S
C327 C328 1.523 . S
C328 C309 1.368 . S
C328 C322 1.368 . S
C328 C327 1.523 . S
C329 C313 1.429 . S
C329 C325 1.429 . S
C329 C330 1.523 . S
C330 C314 1.368 . S
C330 C326 1.368 . S
C330 C329 1.523 . S
H331 C306 0.950 . S
H332 C308 0.950 . S
H333 C309 0.949 1_556 S
H334 C311 0.951 . S
H335 C313 0.950 1_556 S
C336 C337 1.349 . S
C336 C338 1.327 . S
C336 H361 0.950 . S
C337 C336 1.349 . S
C337 C353 1.349 . S
C338 C336 1.327 . S
C338 C357 1.429 . S
C338 H362 0.950 . S
C339 C356 1.574 . S
C339 C358 1.368 . S
C339 H363 0.949 . S
H340 C344 0.949 . S
C341 C342 1.349 . S
C341 C343 1.327 . S
C341 H364 0.950 . S
C342 C341 1.349 . S
C342 C354 1.349 . S
C343 C341 1.327 . S
C343 C359 1.429 . S
C343 H365 0.950 . S
C344 H340 0.949 . S
C344 C352 1.574 . S
C344 C360 1.368 . S
H345 C353 0.950 . S
H346 C351 0.950 . S
H347 C352 0.949 . S
H348 C354 0.950 . S
H349 C355 0.950 . S
H350 C356 0.949 . S
C351 H346 0.950 . S
C351 C353 1.327 . S
C351 C357 1.429 . S
C352 C344 1.574 . S
C352 H347 0.949 . S
C352 C358 1.368 . S
C353 C337 1.349 . S
C353 H345 0.950 . S
C353 C351 1.327 . S
C354 C342 1.349 . S
C354 H348 0.950 . S
C354 C355 1.327 . S
C355 H349 0.950 . S
C355 C354 1.327 . S
C355 C359 1.429 . S
C356 C339 1.574 . S
C356 H350 0.949 . S
C356 C360 1.368 . S
C357 C338 1.429 . S
C357 C351 1.429 . S
C357 C358 1.523 . S
C358 C339 1.368 . S
C358 C352 1.368 . S
C358 C357 1.523 . S
C359 C343 1.429 . S
C359 C355 1.429 . S
C359 C360 1.523 . S
C360 C344 1.368 . S
C360 C356 1.368 . S
C360 C359 1.523 . S
H361 C336 0.950 . S
H362 C338 0.950 . S
H363 C339 0.949 . S
H364 C341 0.950 . S
H365 C343 0.950 . S
C366 C367 1.349 . S
C366 C368 1.327 . S
C366 H391 0.950 . S
C367 C366 1.349 . S
C367 C383 1.349 . S
C368 C366 1.327 . S
C368 C387 1.429 . S
C368 H392 0.950 . S
C369 C386 1.574 . S
C369 C388 1.368 . S
C369 H393 0.949 . S
H370 C374 0.949 . S
C371 C372 1.349 . S
C371 C373 1.327 . S
C371 H394 0.950 . S
C372 C371 1.349 . S
C372 C384 1.349 . S
C373 C371 1.327 . S
C373 C389 1.429 . S
C373 H395 0.950 . S
C374 H370 0.949 . S
C374 C382 1.574 . S
C374 C390 1.368 . S
H375 C383 0.950 . S
H376 C381 0.950 . S
H377 C382 0.949 . S
H378 C384 0.950 . S
H379 C385 0.950 . S
H380 C386 0.949 . S
C381 H376 0.950 . S
C381 C383 1.327 . S
C381 C387 1.429 . S
C382 C374 1.574 . S
C382 H377 0.949 . S
C382 C388 1.368 . S
C383 C367 1.349 . S
C383 H375 0.950 . S
C383 C381 1.327 . S
C384 C372 1.349 . S
C384 H378 0.950 . S
C384 C385 1.327 . S
C385 H379 0.950 . S
C385 C384 1.327 . S
C385 C389 1.429 . S
C386 C369 1.574 . S
C386 H380 0.949 . S
C386 C390 1.368 . S
C387 C368 1.429 . S
C387 C381 1.429 . S
C387 C388 1.523 . S
C388 C369 1.368 . S
C388 C382 1.368 . S
C388 C387 1.523 . S
C389 C373 1.429 . S
C389 C385 1.429 . S
C389 C390 1.523 . S
C390 C374 1.368 . S
C390 C386 1.368 . S
C390 C389 1.523 . S
H391 C366 0.950 . S
H392 C368 0.950 . S
H393 C369 0.949 . S
H394 C371 0.950 . S
H395 C373 0.950 . S
C396 C397 1.349 . S
C396 C398 1.327 . S
C396 H421 0.950 . S
C397 C396 1.349 . S
C397 C413 1.349 . S
C398 C396 1.327 . S
C398 C417 1.429 . S
C398 H422 0.950 . S
C399 C416 1.574 . S
C399 C418 1.368 . S
C399 H423 0.949 . S
H400 C404 0.949 . S
C401 C402 1.349 . S
C401 C403 1.327 . S
C401 H424 0.950 . S
C402 C401 1.349 . S
C402 C414 1.349 . S
C403 C401 1.327 . S
C403 C419 1.429 . S
C403 H425 0.950 . S
C404 H400 0.949 . S
C404 C412 1.574 . S
C404 C420 1.368 . S
H405 C413 0.950 . S
H406 C411 0.950 . S
H407 C412 0.949 . S
H408 C414 0.950 . S
H409 C415 0.950 . S
H410 C416 0.949 . S
C411 H406 0.950 . S
C411 C413 1.327 . S
C411 C417 1.429 . S
C412 C404 1.574 . S
C412 H407 0.949 . S
C412 C418 1.368 . S
C413 C397 1.349 . S
C413 H405 0.950 . S
C413 C411 1.327 . S
C414 C402 1.349 . S
C414 H408 0.950 . S
C414 C415 1.327 . S
C415 H409 0.950 . S
C415 C414 1.327 . S
C415 C419 1.429 . S
C416 C399 1.574 . S
C416 H410 0.949 . S
C416 C420 1.368 . S
C417 C398 1.429 . S
C417 C411 1.429 . S
C417 C418 1.523 . S
C418 C399 1.368 . S
C418 C412 1.368 . S
C418 C417 1.523 . S
C419 C403 1.429 . S
C419 C415 1.429 . S
C419 C420 1.523 . S
C420 C404 1.368 . S
C420 C416 1.368 . S
C420 C419 1.523 . S
H421 C396 0.950 . S
H422 C398 0.950 . S
H423 C399 0.949 . S
H424 C401 0.950 . S
H425 C403 0.950 . S
C426 C427 1.349 . S
C426 C428 1.327 . S
C426 H451 0.950 . S
C427 C426 1.349 . S
C427 C443 1.349 . S
C428 C426 1.327 . S
C428 C447 1.429 . S
C428 H452 0.950 . S
C429 C446 1.574 . S
C429 C448 1.368 . S
C429 H453 0.949 . S
H430 C434 0.949 . S
C431 C432 1.349 . S
C431 C433 1.327 . S
C431 H454 0.950 . S
C432 C431 1.349 . S
C432 C444 1.349 . S
C433 C431 1.327 . S
C433 C449 1.429 . S
C433 H455 0.950 . S
C434 H430 0.949 . S
C434 C442 1.574 . S
C434 C450 1.368 . S
H435 C443 0.950 . S
H436 C441 0.950 . S
H437 C442 0.949 . S
H438 C444 0.950 . S
H439 C445 0.950 . S
H440 C446 0.949 . S
C441 H436 0.950 . S
C441 C443 1.327 . S
C441 C447 1.429 . S
C442 C434 1.574 . S
C442 H437 0.949 . S
C442 C448 1.368 . S
C443 C427 1.349 . S
C443 H435 0.950 . S
C443 C441 1.327 . S
C444 C432 1.349 . S
C444 H438 0.950 . S
C444 C445 1.327 . S
C445 H439 0.950 . S
C445 C444 1.327 . S
C445 C449 1.429 . S
C446 C429 1.574 . S
C446 H440 0.949 . S
C446 C450 1.368 . S
C447 C428 1.429 . S
C447 C441 1.429 . S
C447 C448 1.523 . S
C448 C429 1.368 . S
C448 C442 1.368 . S
C448 C447 1.523 . S
C449 C433 1.429 . S
C449 C445 1.429 . S
C449 C450 1.523 . S
C450 C434 1.368 . S
C450 C446 1.368 . S
C450 C449 1.523 . S
H451 C426 0.950 . S
H452 C428 0.950 . S
H453 C429 0.949 . S
H454 C431 0.950 . S
H455 C433 0.950 . S
C456 C457 1.349 . S
C456 C458 1.327 . S
C456 H481 0.950 . S
C457 C456 1.349 . S
C457 C473 1.349 . S
C458 C456 1.327 . S
C458 C477 1.429 . S
C458 H482 0.950 . S
C459 C476 1.574 . S
C459 C478 1.368 . S
C459 H483 0.949 . S
H460 C464 0.949 . S
C461 C462 1.349 . S
C461 C463 1.327 . S
C461 H484 0.950 . S
C462 C461 1.349 . S
C462 C474 1.349 . S
C463 C461 1.327 . S
C463 C479 1.429 . S
C463 H485 0.950 . S
C464 H460 0.949 . S
C464 C472 1.574 . S
C464 C480 1.368 . S
H465 C473 0.950 . S
H466 C471 0.950 . S
H467 C472 0.949 . S
H468 C474 0.950 . S
H469 C475 0.950 . S
H470 C476 0.949 . S
C471 H466 0.950 . S
C471 C473 1.327 . S
C471 C477 1.429 . S
C472 C464 1.574 . S
C472 H467 0.949 . S
C472 C478 1.368 . S
C473 C457 1.349 . S
C473 H465 0.950 . S
C473 C471 1.327 . S
C474 C462 1.349 . S
C474 H468 0.950 . S
C474 C475 1.327 . S
C475 H469 0.950 . S
C475 C474 1.327 . S
C475 C479 1.429 . S
C476 C459 1.574 . S
C476 H470 0.949 . S
C476 C480 1.368 . S
C477 C458 1.429 . S
C477 C471 1.429 . S
C477 C478 1.523 . S
C478 C459 1.368 . S
C478 C472 1.368 . S
C478 C477 1.523 . S
C479 C463 1.429 . S
C479 C475 1.429 . S
C479 C480 1.523 . S
C480 C464 1.368 . S
C480 C476 1.368 . S
C480 C479 1.523 . S
H481 C456 0.950 . S
H482 C458 0.950 . S
H483 C459 0.949 . S
H484 C461 0.950 . S
H485 C463 0.950 . S
C486 C487 1.349 . S
C486 C488 1.327 . S
C486 H511 0.950 . S
C487 C486 1.349 . S
C487 C503 1.349 . S
C488 C486 1.327 . S
C488 C507 1.429 . S
C488 H512 0.950 . S
C489 C506 1.574 . S
C489 C508 1.368 . S
C489 H513 0.949 . S
H490 C494 0.949 . S
C491 C492 1.349 . S
C491 C493 1.327 . S
C491 H514 0.950 . S
C492 C491 1.349 . S
C492 C504 1.349 . S
C493 C491 1.327 . S
C493 C509 1.429 . S
C493 H515 0.950 . S
C494 H490 0.949 . S
C494 C502 1.574 . S
C494 C510 1.368 . S
H495 C503 0.950 . S
H496 C501 0.950 . S
H497 C502 0.949 . S
H498 C504 0.950 . S
H499 C505 0.950 . S
H500 C506 0.949 . S
C501 H496 0.950 . S
C501 C503 1.327 . S
C501 C507 1.429 . S
C502 C494 1.574 . S
C502 H497 0.949 . S
C502 C508 1.368 . S
C503 C487 1.349 . S
C503 H495 0.950 . S
C503 C501 1.327 . S
C504 C492 1.349 . S
C504 H498 0.950 . S
C504 C505 1.327 . S
C505 H499 0.950 . S
C505 C504 1.327 . S
C505 C509 1.429 . S
C506 C489 1.574 . S
C506 H500 0.949 . S
C506 C510 1.368 . S
C507 C488 1.429 . S
C507 C501 1.429 . S
C507 C508 1.523 . S
C508 C489 1.368 . S
C508 C502 1.368 . S
C508 C507 1.523 . S
C509 C493 1.429 . S
C509 C505 1.429 . S
C509 C510 1.523 . S
C510 C494 1.368 . S
C510 C506 1.368 . S
C510 C509 1.523 . S
H511 C486 0.950 . S
H512 C488 0.950 . S
H513 C489 0.949 . S
H514 C491 0.950 . S
H515 C493 0.950 . S
C516 C517 1.349 . S
C516 C518 1.327 . S
C516 H541 0.950 . S
C517 C516 1.349 . S
C517 C533 1.349 . S
C518 C516 1.327 . S
C518 C537 1.429 . S
C518 H542 0.950 . S
C519 C536 1.574 . S
C519 C538 1.368 . S
C519 H543 0.949 . S
H520 C524 0.949 . S
C521 C522 1.349 . S
C521 C523 1.327 . S
C521 H544 0.950 . S
C522 C521 1.349 . S
C522 C534 1.349 . S
C523 C521 1.327 . S
C523 C539 1.429 . S
C523 H545 0.950 . S
C524 H520 0.949 . S
C524 C532 1.574 . S
C524 C540 1.368 . S
H525 C533 0.950 . S
H526 C531 0.950 . S
H527 C532 0.949 . S
H528 C534 0.950 . S
H529 C535 0.950 . S
H530 C536 0.949 . S
C531 H526 0.950 . S
C531 C533 1.327 . S
C531 C537 1.429 . S
C532 C524 1.574 . S
C532 H527 0.949 . S
C532 C538 1.368 . S
C533 C517 1.349 . S
C533 H525 0.950 . S
C533 C531 1.327 . S
C534 C522 1.349 . S
C534 H528 0.950 . S
C534 C535 1.327 . S
C535 H529 0.950 . S
C535 C534 1.327 . S
C535 C539 1.429 . S
C536 C519 1.574 . S
C536 H530 0.949 . S
C536 C540 1.368 . S
C537 C518 1.429 . S
C537 C531 1.429 . S
C537 C538 1.523 . S
C538 C519 1.368 . S
C538 C532 1.368 . S
C538 C537 1.523 . S
C539 C523 1.429 . S
C539 C535 1.429 . S
C539 C540 1.523 . S
C540 C524 1.368 . S
C540 C536 1.368 . S
C540 C539 1.523 . S
H541 C516 0.950 . S
H542 C518 0.950 . S
H543 C519 0.949 . S
H544 C521 0.950 . S
H545 C523 0.950 . S
C546 C547 1.349 . S
C546 C548 1.327 . S
C546 H571 0.950 . S
C547 C546 1.349 . S
C547 C563 1.349 . S
C548 C546 1.327 . S
C548 C567 1.429 . S
C548 H572 0.950 . S
C549 C566 1.574 . S
C549 C568 1.368 . S
C549 H573 0.949 . S
H550 C554 0.949 . S
C551 C552 1.349 . S
C551 C553 1.327 . S
C551 H574 0.950 1_565 S
C552 C551 1.349 . S
C552 C564 1.349 . S
C553 C551 1.327 . S
C553 C569 1.429 . S
C553 H575 0.950 . S
C554 H550 0.949 . S
C554 C562 1.574 . S
C554 C570 1.368 . S
H555 C563 0.950 . S
H556 C561 0.950 . S
H557 C562 0.949 . S
H558 C564 0.950 . S
H559 C565 0.950 . S
H560 C566 0.949 . S
C561 H556 0.950 . S
C561 C563 1.327 . S
C561 C567 1.429 . S
C562 C554 1.574 . S
C562 H557 0.949 . S
C562 C568 1.368 . S
C563 C547 1.349 . S
C563 H555 0.950 . S
C563 C561 1.327 . S
C564 C552 1.349 . S
C564 H558 0.950 . S
C564 C565 1.327 . S
C565 H559 0.950 . S
C565 C564 1.327 . S
C565 C569 1.429 . S
C566 C549 1.574 . S
C566 H560 0.949 . S
C566 C570 1.368 . S
C567 C548 1.429 . S
C567 C561 1.429 . S
C567 C568 1.523 . S
C568 C549 1.368 . S
C568 C562 1.368 . S
C568 C567 1.523 . S
C569 C553 1.429 . S
C569 C565 1.429 . S
C569 C570 1.523 . S
C570 C554 1.368 . S
C570 C566 1.368 . S
C570 C569 1.523 . S
H571 C546 0.950 . S
H572 C548 0.950 . S
H573 C549 0.949 . S
H574 C551 0.950 1_545 S
H575 C553 0.950 . S
C222 C111 1.679 . S
C217 C40 1.688 . S
C247 C4 1.690 . S
C252 C206 1.669 . S
C277 C16 1.689 . S
C282 C122 1.694 . S
C307 C28 1.660 . S
C312 C195 1.656 . S
C342 C106 1.464 . S
C337 C9 1.632 . S
C372 C199 1.734 . S
C367 C18 1.734 . S
C397 C33 1.654 . S
C402 C115 1.667 . S
C427 C45 1.624 . S
C432 C190 1.457 . S
C462 C201 1.412 . S
C457 C21 1.578 . S
C492 C117 1.411 . S
C487 C30 1.583 . S
C522 C188 1.658 . S
C517 C42 1.649 . S
C547 C6 1.587 . S
C552 C104 1.599 . S
