# Generated by pormake.
# Topology sqc, (4,8)-cn, num edge types: 1
# Building blocks:
#     Node 0, Type 0, BuildingBlock: AZAVOO_clean_linker_0, # of connection points: 4
#     Node 1, Type 0, BuildingBlock: AZAVOO_clean_linker_0, # of connection points: 4
#     Node 2, Type 0, BuildingBlock: AZAVOO_clean_linker_0, # of connection points: 4
#     Node 3, Type 0, BuildingBlock: AZAVOO_clean_linker_0, # of connection points: 4
#     Node 4, Type 0, BuildingBlock: AZAVOO_clean_linker_0, # of connection points: 4
#     Node 5, Type 0, BuildingBlock: AZAVOO_clean_linker_0, # of connection points: 4
#     Node 6, Type 0, BuildingBlock: AZAVOO_clean_linker_0, # of connection points: 4
#     Node 7, Type 0, BuildingBlock: AZAVOO_clean_linker_0, # of connection points: 4
#     Node 8, Type 1, BuildingBlock: TAGTUT_clean_sbu_3, # of connection points: 8
#     Node 9, Type 1, BuildingBlock: TAGTUT_clean_sbu_3, # of connection points: 8
#     Node 10, Type 1, BuildingBlock: TAGTUT_clean_sbu_3, # of connection points: 8
#     Node 11, Type 1, BuildingBlock: TAGTUT_clean_sbu_3, # of connection points: 8
#     Edge 12, Type (0, 1), BuildingBlock: AJUNOK_clean_linker_0, # of connection points: 2
#     Edge 13, Type (0, 1), BuildingBlock: AJUNOK_clean_linker_0, # of connection points: 2
#     Edge 14, Type (0, 1), BuildingBlock: AJUNOK_clean_linker_0, # of connection points: 2
#     Edge 15, Type (0, 1), BuildingBlock: AJUNOK_clean_linker_0, # of connection points: 2
#     Edge 16, Type (0, 1), BuildingBlock: AJUNOK_clean_linker_0, # of connection points: 2
#     Edge 17, Type (0, 1), BuildingBlock: AJUNOK_clean_linker_0, # of connection points: 2
#     Edge 18, Type (0, 1), BuildingBlock: AJUNOK_clean_linker_0, # of connection points: 2
#     Edge 19, Type (0, 1), BuildingBlock: AJUNOK_clean_linker_0, # of connection points: 2
#     Edge 20, Type (0, 1), BuildingBlock: AJUNOK_clean_linker_0, # of connection points: 2
#     Edge 21, Type (0, 1), BuildingBlock: AJUNOK_clean_linker_0, # of connection points: 2
#     Edge 22, Type (0, 1), BuildingBlock: AJUNOK_clean_linker_0, # of connection points: 2
#     Edge 23, Type (0, 1), BuildingBlock: AJUNOK_clean_linker_0, # of connection points: 2
#     Edge 24, Type (0, 1), BuildingBlock: AJUNOK_clean_linker_0, # of connection points: 2
#     Edge 25, Type (0, 1), BuildingBlock: AJUNOK_clean_linker_0, # of connection points: 2
#     Edge 26, Type (0, 1), BuildingBlock: AJUNOK_clean_linker_0, # of connection points: 2
#     Edge 27, Type (0, 1), BuildingBlock: AJUNOK_clean_linker_0, # of connection points: 2
#     Edge 28, Type (0, 1), BuildingBlock: AJUNOK_clean_linker_0, # of connection points: 2
#     Edge 29, Type (0, 1), BuildingBlock: AJUNOK_clean_linker_0, # of connection points: 2
#     Edge 30, Type (0, 1), BuildingBlock: AJUNOK_clean_linker_0, # of connection points: 2
#     Edge 31, Type (0, 1), BuildingBlock: AJUNOK_clean_linker_0, # of connection points: 2
#     Edge 32, Type (0, 1), BuildingBlock: AJUNOK_clean_linker_0, # of connection points: 2
#     Edge 33, Type (0, 1), BuildingBlock: AJUNOK_clean_linker_0, # of connection points: 2
#     Edge 34, Type (0, 1), BuildingBlock: AJUNOK_clean_linker_0, # of connection points: 2
#     Edge 35, Type (0, 1), BuildingBlock: AJUNOK_clean_linker_0, # of connection points: 2
#     Edge 36, Type (0, 1), BuildingBlock: AJUNOK_clean_linker_0, # of connection points: 2
#     Edge 37, Type (0, 1), BuildingBlock: AJUNOK_clean_linker_0, # of connection points: 2
#     Edge 38, Type (0, 1), BuildingBlock: AJUNOK_clean_linker_0, # of connection points: 2
#     Edge 39, Type (0, 1), BuildingBlock: AJUNOK_clean_linker_0, # of connection points: 2
#     Edge 40, Type (0, 1), BuildingBlock: AJUNOK_clean_linker_0, # of connection points: 2
#     Edge 41, Type (0, 1), BuildingBlock: AJUNOK_clean_linker_0, # of connection points: 2
#     Edge 42, Type (0, 1), BuildingBlock: AJUNOK_clean_linker_0, # of connection points: 2
#     Edge 43, Type (0, 1), BuildingBlock: AJUNOK_clean_linker_0, # of connection points: 2
# Relax obj value: 0.181
# Max RMSD: 0.278
# Mean RMSD: 0.228
data_MOF--net-sqc--node1-TAGTUT_clean_sbu_3--node2-AZAVOO_clean_linker_0--edge1-AJUNOK_clean_linker_0
_symmetry_space_group_name_H-M    P1
_symmetry_Int_Tables_number       1
_symmetry_cell_setting            triclinic
loop_
_symmetry_equiv_pos_as_xyz
'x, y, z'
_cell_length_a     20.706313
_cell_length_b     20.724117
_cell_length_c     72.685117
_cell_angle_alpha  91.937969
_cell_angle_beta   89.90325
_cell_angle_gamma 90.757779
loop_
_atom_site_label
_atom_site_type_symbol
_atom_site_fract_x
_atom_site_fract_y
_atom_site_fract_z
_atom_type_partial_charge
H0 H 0.12687 0.30252 0.61419 0.0
H1 H 0.61089 0.89767 0.49299 0.0
H2 H 0.11813 0.20908 0.51836 0.0
H3 H 0.21527 0.24782 0.53469 0.0
H4 H 0.25554 0.05233 0.54959 0.0
H5 H 0.15937 0.01406 0.53287 0.0
H6 H 0.00923 0.22718 0.54336 0.0
H7 H 0.04877 0.277 0.57233 0.0
H8 H 0.09915 0.08833 0.59111 0.0
H9 H 0.05958 0.03938 0.5621 0.0
H10 H 0.87461 0.18412 0.53356 0.0
H11 H 0.78311 0.19357 0.55464 0.0
H12 H 0.81945 0.00177 0.57357 0.0
H13 H 0.91226 0.99366 0.55266 0.0
H14 H 0.84486 0.12263 0.4946 0.0
H15 H 0.73397 0.08954 0.48674 0.0
H16 H 0.76596 0.90446 0.51069 0.0
H17 H 0.87645 0.9384 0.51855 0.0
H18 H 0.94893 0.09372 0.46638 0.0
H19 H 0.87027 0.04433 0.44482 0.0
H20 H 0.89057 0.8627 0.47173 0.0
H21 H 0.9714 0.91108 0.49202 0.0
H22 H 0.13651 0.13473 0.48502 0.0
H23 H 0.23387 0.10325 0.46828 0.0
H24 H 0.18204 0.90213 0.4741 0.0
H25 H 0.08855 0.9343 0.49261 0.0
O26 O 0.10824 0.28183 0.60327 0.0
O27 O 0.12562 0.18332 0.61323 0.0
O28 O 0.63781 0.01055 0.4858 0.0
O29 O 0.65409 0.91244 0.49622 0.0
C30 C 0.06516 0.08887 0.51932 0.0
C31 C 0.01555 0.10056 0.53234 0.0
C32 C 0.95187 0.08123 0.52824 0.0
C33 C 0.93674 0.05199 0.5111 0.0
C34 C 0.98614 0.03905 0.49811 0.0
C35 C 0.05104 0.05612 0.50233 0.0
C36 C 0.13203 0.10878 0.5244 0.0
C37 C 0.14958 0.1744 0.52448 0.0
C38 C 0.20471 0.19647 0.53392 0.0
C39 C 0.24305 0.15318 0.54342 0.0
C40 C 0.22788 0.08675 0.54208 0.0
C41 C 0.17286 0.06471 0.53257 0.0
C42 C 0.03154 0.1298 0.55071 0.0
C43 C 0.02789 0.19673 0.55389 0.0
C44 C 0.0509 0.22502 0.57039 0.0
C45 C 0.07758 0.18665 0.58398 0.0
C46 C 0.07905 0.11927 0.58093 0.0
C47 C 0.05622 0.09115 0.56442 0.0
C48 C 0.90037 0.08894 0.54202 0.0
C49 C 0.86294 0.14454 0.5424 0.0
C50 C 0.80994 0.14912 0.55414 0.0
C51 C 0.79355 0.09791 0.56556 0.0
C52 C 0.8309 0.04178 0.56488 0.0
C53 C 0.88415 0.03742 0.55319 0.0
C54 C 0.8686 0.03271 0.507 0.0
C55 C 0.8276 0.07512 0.4982 0.0
C56 C 0.7644 0.05605 0.49372 0.0
C57 C 0.74121 0.99419 0.49801 0.0
C58 C 0.78231 0.95229 0.50712 0.0
C59 C 0.84535 0.97156 0.51167 0.0
C60 C 0.96666 0.00579 0.48062 0.0
C61 C 0.93914 0.04231 0.46679 0.0
C62 C 0.89233 0.01459 0.45497 0.0
C63 C 0.87203 0.95018 0.45698 0.0
C64 C 0.9047 0.91244 0.46968 0.0
C65 C 0.95226 0.93969 0.48113 0.0
C66 C 0.10466 0.0369 0.48983 0.0
C67 C 0.1461 0.08387 0.48265 0.0
C68 C 0.2015 0.06571 0.47292 0.0
C69 C 0.21532 7e-05 0.46952 0.0
C70 C 0.17312 0.9531 0.47653 0.0
C71 C 0.11875 0.97138 0.48675 0.0
C72 C 0.10506 0.2169 0.60109 0.0
C73 C 0.67457 0.97316 0.49296 0.0
H74 H 0.47374 0.59724 0.66142 0.0
H75 H 0.21269 0.16688 0.78816 0.0
H76 H 0.26275 0.60062 0.75767 0.0
H77 H 0.28626 0.50555 0.7384 0.0
H78 H 0.49063 0.53907 0.74693 0.0
H79 H 0.46638 0.63533 0.76606 0.0
H80 H 0.29966 0.67771 0.72125 0.0
H81 H 0.3556 0.63972 0.69326 0.0
H82 H 0.5372 0.70813 0.71643 0.0
H83 H 0.48074 0.74574 0.74427 0.0
H84 H 0.21933 0.81399 0.73194 0.0
H85 H 0.21476 0.8755 0.70355 0.0
H86 H 0.41653 0.9262 0.71006 0.0
H87 H 0.42072 0.86563 0.73831 0.0
H88 H 0.1713 0.85026 0.77169 0.0
H89 H 0.12511 0.95709 0.77764 0.0
H90 H 0.31736 0.04134 0.77842 0.0
H91 H 0.36284 0.93407 0.7726 0.0
H92 H 0.18731 0.78919 0.80507 0.0
H93 H 0.16145 0.87828 0.82677 0.0
H94 H 0.36154 0.94049 0.82592 0.0
H95 H 0.38719 0.84925 0.80562 0.0
H96 H 0.20994 0.66773 0.79598 0.0
H97 H 0.19365 0.58048 0.81745 0.0
H98 H 0.39977 0.57031 0.82549 0.0
H99 H 0.41589 0.65805 0.80388 0.0
O100 O 0.45233 0.61374 0.67242 0.0
O101 O 0.54289 0.65757 0.6839 0.0
O102 O 0.13178 0.07866 0.78465 0.0
O103 O 0.22955 0.12442 0.78523 0.0
C104 C 0.34901 0.69385 0.76687 0.0
C105 C 0.3531 0.73554 0.75198 0.0
C106 C 0.3242 0.79637 0.75336 0.0
C107 C 0.29818 0.81896 0.77017 0.0
C108 C 0.30093 0.78014 0.78577 0.0
C109 C 0.32305 0.71604 0.78387 0.0
C110 C 0.36286 0.62488 0.76313 0.0
C111 C 0.31242 0.58534 0.75627 0.0
C112 C 0.32602 0.53106 0.74518 0.0
C113 C 0.39031 0.51541 0.741 0.0
C114 C 0.44065 0.55054 0.74983 0.0
C115 C 0.42694 0.60495 0.76093 0.0
C116 C 0.38621 0.7145 0.7347 0.0
C117 C 0.35144 0.68473 0.72016 0.0
C118 C 0.38354 0.66304 0.70423 0.0
C119 C 0.45086 0.67114 0.70257 0.0
C120 C 0.48534 0.70141 0.7172 0.0
C121 C 0.45323 0.72297 0.7331 0.0
C122 C 0.32041 0.83574 0.73699 0.0
C123 C 0.2623 0.83879 0.72718 0.0
C124 C 0.25979 0.87331 0.71106 0.0
C125 C 0.31559 0.90434 0.70466 0.0
C126 C 0.3734 0.9014 0.71463 0.0
C127 C 0.37576 0.86749 0.73075 0.0
C128 C 0.2703 0.8846 0.77177 0.0
C129 C 0.20324 0.89201 0.77296 0.0
C130 C 0.17704 0.95301 0.77641 0.0
C131 C 0.2176 0.00774 0.77861 0.0
C132 C 0.28478 0.00022 0.77686 0.0
C133 C 0.31089 0.93913 0.77343 0.0
C134 C 0.28936 0.81204 0.80399 0.0
C135 C 0.2261 0.81958 0.81058 0.0
C136 C 0.2112 0.87163 0.82258 0.0
C137 C 0.25927 0.91712 0.82801 0.0
C138 C 0.32342 0.90593 0.82251 0.0
C139 C 0.33841 0.85323 0.81094 0.0
C140 C 0.31392 0.67005 0.79873 0.0
C141 C 0.25149 0.64747 0.80262 0.0
C142 C 0.24239 0.59691 0.81455 0.0
C143 C 0.29559 0.56835 0.82285 0.0
C144 C 0.35815 0.5915 0.81915 0.0
C145 C 0.36729 0.64186 0.80704 0.0
C146 C 0.48499 0.64731 0.68576 0.0
C147 C 0.19014 0.07228 0.78297 0.0
H148 H 0.60546 0.86921 0.13418 0.0
H149 H 0.04637 0.25184 0.01176 0.0
H150 H 0.51607 0.96604 0.03325 0.0
H151 H 0.42849 0.93553 0.05387 0.0
H152 H 0.42643 0.13013 0.07709 0.0
H153 H 0.51103 0.16124 0.05555 0.0
H154 H 0.62524 0.93956 0.05713 0.0
H155 H 0.61353 0.89125 0.08724 0.0
H156 H 0.60283 0.0821 0.11294 0.0
H157 H 0.61601 0.12973 0.08275 0.0
H158 H 0.75466 0.96852 0.05182 0.0
H159 H 0.82041 0.94103 0.07836 0.0
H160 H 0.8244 0.14131 0.09674 0.0
H161 H 0.75642 0.16841 0.07037 0.0
H162 H 0.81067 0.02999 0.01615 0.0
H163 H 0.92237 0.05873 0.00842 0.0
H164 H 0.88503 0.25783 0.02427 0.0
H165 H 0.77343 0.22831 0.03188 0.0
H166 H 0.70859 0.04071 0.98704 0.0
H167 H 0.77778 0.07465 0.96185 0.0
H168 H 0.74281 0.27434 0.97726 0.0
H169 H 0.67641 0.23972 0.00312 0.0
H170 H 0.53736 0.00084 0.00218 0.0
H171 H 0.45416 0.00713 0.97825 0.0
H172 H 0.4751 0.21442 0.97968 0.0
H173 H 0.5557 0.20857 0.00429 0.0
O174 O 0.60833 0.88918 0.12237 0.0
O175 O 0.59401 0.98769 0.13465 0.0
O176 O 0.01633 0.13831 0.00412 0.0
O177 O 0.00252 0.23912 0.01471 0.0
C178 C 0.58697 0.07706 0.03688 0.0
C179 C 0.6362 0.06696 0.04981 0.0
C180 C 0.70056 0.08341 0.0457 0.0
C181 C 0.71621 0.1098 0.02871 0.0
C182 C 0.66754 0.11712 0.01535 0.0
C183 C 0.60267 0.10023 0.01935 0.0
C184 C 0.51955 0.06598 0.0428 0.0
C185 C 0.49385 0.00307 0.04192 0.0
C186 C 0.445 0.98536 0.05406 0.0
C187 C 0.42273 0.0299 0.06758 0.0
C188 C 0.44308 0.09469 0.06693 0.0
C189 C 0.491 0.11268 0.0545 0.0
C190 C 0.6211 0.03806 0.0678 0.0
C191 C 0.61956 0.97077 0.06927 0.0
C192 C 0.61331 0.94335 0.08649 0.0
C193 C 0.6075 0.98284 0.10251 0.0
C194 C 0.60723 0.05033 0.10088 0.0
C195 C 0.61437 0.07767 0.08367 0.0
C196 C 0.7512 0.07034 0.05926 0.0
C197 C 0.77057 0.00656 0.06143 0.0
C198 C 0.8071 0.99086 0.07664 0.0
C199 C 0.8257 0.03904 0.08964 0.0
C200 C 0.80954 0.10354 0.08692 0.0
C201 C 0.77177 0.11909 0.07184 0.0
C202 C 0.78431 0.12709 0.02459 0.0
C203 C 0.82692 0.07969 0.018 0.0
C204 C 0.89053 0.0963 0.01355 0.0
C205 C 0.91265 0.1606 0.01576 0.0
C206 C 0.86966 0.20786 0.02248 0.0
C207 C 0.80597 0.19119 0.02684 0.0
C208 C 0.6875 0.13771 -0.00314 0.0
C209 C 0.71379 0.09175 0.98452 0.0
C210 C 0.75359 0.11132 0.97018 0.0
C211 C 0.76717 0.17723 0.96789 0.0
C212 C 0.73475 0.22324 0.97904 0.0
C213 C 0.69576 0.20359 0.99358 0.0
C214 C 0.55219 0.1043 0.00507 0.0
C215 C 0.52311 0.0477 -0.00241 0.0
C216 C 0.47612 0.05119 0.98389 0.0
C217 C 0.45895 0.11125 0.97724 0.0
C218 C 0.48821 0.16775 0.98465 0.0
C219 C 0.53415 0.16439 -0.0014 0.0
C220 C 0.60271 0.95364 0.12083 0.0
C221 C 0.98027 0.17842 0.01114 0.0
H222 H 0.20296 0.12199 0.15545 0.0
H223 H 0.48758 0.74774 0.24827 0.0
H224 H 0.25919 0.2093 0.24752 0.0
H225 H 0.23023 0.0988 0.2386 0.0
H226 H 0.43011 0.04389 0.24378 0.0
H227 H 0.4593 0.15692 0.25133 0.0
H228 H 0.25201 0.3007 0.21798 0.0
H229 H 0.21425 0.23587 0.1913 0.0
H230 H 0.40376 0.1522 0.18561 0.0
H231 H 0.4412 0.21812 0.21215 0.0
H232 H 0.26549 0.42845 0.23602 0.0
H233 H 0.22801 0.50668 0.2142 0.0
H234 H 0.39654 0.47231 0.18045 0.0
H235 H 0.43539 0.3943 0.20287 0.0
H236 H 0.31382 0.4853 0.26779 0.0
H237 H 0.32741 0.60269 0.26909 0.0
H238 H 0.50968 0.58382 0.24041 0.0
H239 H 0.49589 0.46625 0.23945 0.0
H240 H 0.30239 0.37965 0.29114 0.0
H241 H 0.29863 0.45452 0.31795 0.0
H242 H 0.50405 0.48813 0.31329 0.0
H243 H 0.50749 0.41404 0.28609 0.0
H244 H 0.29909 0.24964 0.28928 0.0
H245 H 0.30832 0.17823 0.31534 0.0
H246 H 0.51524 0.1736 0.30767 0.0
H247 H 0.50534 0.24627 0.2818 0.0
O248 O 0.21966 0.14929 0.16545 0.0
O249 O 0.31838 0.109 0.16282 0.0
O250 O 0.38739 0.70834 0.26288 0.0
O251 O 0.48117 0.70134 0.24803 0.0
C252 C 0.37905 0.26072 0.25021 0.0
C253 C 0.37024 0.29776 0.2344 0.0
C254 C 0.37742 0.36551 0.23579 0.0
C255 C 0.39595 0.39583 0.25269 0.0
C256 C 0.40295 0.35879 0.26848 0.0
C257 C 0.3956 0.29129 0.26717 0.0
C258 C 0.36146 0.19121 0.24942 0.0
C259 C 0.29658 0.17318 0.24701 0.0
C260 C 0.28009 0.10965 0.24214 0.0
C261 C 0.32817 0.06263 0.23999 0.0
C262 C 0.39231 0.07945 0.2447 0.0
C263 C 0.40903 0.14372 0.24916 0.0
C264 C 0.34969 0.26502 0.21681 0.0
C265 C 0.2858 0.26971 0.21065 0.0
C266 C 0.26414 0.23202 0.19553 0.0
C267 C 0.30594 0.18873 0.18633 0.0
C268 C 0.37033 0.18514 0.19234 0.0
C269 C 0.39195 0.22299 0.20743 0.0
C270 C 0.35325 0.40624 0.22105 0.0
C271 C 0.29434 0.43753 0.2239 0.0
C272 C 0.27321 0.48226 0.21155 0.0
C273 C 0.31017 0.49586 0.19596 0.0
C274 C 0.36791 0.46267 0.19256 0.0
C275 C 0.38973 0.41815 0.20519 0.0
C276 C 0.40463 0.4672 0.25391 0.0
C277 C 0.35721 0.5065 0.2621 0.0
C278 C 0.36485 0.57361 0.26269 0.0
C279 C 0.4199 0.60266 0.25497 0.0
C280 C 0.46688 0.56305 0.24657 0.0
C281 C 0.45922 0.4959 0.24603 0.0
C282 C 0.40518 0.39191 0.28674 0.0
C283 C 0.34689 0.40171 0.29624 0.0
C284 C 0.34462 0.44447 0.31139 0.0
C285 C 0.40088 0.47673 0.31737 0.0
C286 C 0.4602 0.46335 0.30874 0.0
C287 C 0.46229 0.42127 0.29334 0.0
C288 C 0.40167 0.25269 0.28377 0.0
C289 C 0.34639 0.23383 0.29343 0.0
C290 C 0.35174 0.19296 0.30819 0.0
C291 C 0.4124 0.16979 0.3133 0.0
C292 C 0.46798 0.19096 0.30403 0.0
C293 C 0.46252 0.23212 0.2893 0.0
C294 C 0.28201 0.14663 0.1708 0.0
C295 C 0.42825 0.67394 0.25557 0.0
H296 H 0.0548 0.07016 0.1732 0.0
H297 H 0.65408 0.60062 0.28594 0.0
H298 H 0.79273 0.02793 0.25127 0.0
H299 H 0.86275 0.93973 0.24212 0.0
H300 H 0.02595 0.04207 0.26649 0.0
H301 H 0.95369 0.12896 0.2771 0.0
H302 H 0.82757 0.1184 0.21951 0.0
H303 H 0.90987 0.08874 0.19658 0.0
H304 H 0.05348 0.19583 0.22867 0.0
H305 H 0.97085 0.22455 0.25151 0.0
H306 H 0.73555 0.26442 0.22088 0.0
H307 H 0.75619 0.33959 0.19597 0.0
H308 H 0.93168 0.4048 0.22315 0.0
H309 H 0.91026 0.33069 0.24808 0.0
H310 H 0.64507 0.29531 0.25348 0.0
H311 H 0.59197 0.39963 0.2581 0.0
H312 H 0.76626 0.47867 0.28325 0.0
H313 H 0.81818 0.37395 0.27882 0.0
H314 H 0.62183 0.22881 0.28452 0.0
H315 H 0.5723 0.31064 0.30539 0.0
H316 H 0.75777 0.34846 0.33062 0.0
H317 H 0.80672 0.26751 0.30996 0.0
H318 H 0.69995 0.06046 0.26946 0.0
H319 H 0.67834 0.96251 0.28611 0.0
H320 H 0.7893 0.04163 0.33218 0.0
H321 H 0.81725 0.13594 0.31427 0.0
O322 O 0.0227 0.08325 0.18223 0.0
O323 O 0.09445 0.13937 0.1992 0.0
O324 O 0.58541 0.51617 0.27085 0.0
O325 O 0.67461 0.55969 0.28323 0.0
C326 C 0.83073 0.14456 0.26525 0.0
C327 C 0.84401 0.18907 0.25141 0.0
C328 C 0.80956 0.24694 0.25102 0.0
C329 C 0.76498 0.26238 0.26506 0.0
C330 C 0.75239 0.21818 0.27914 0.0
C331 C 0.7826 0.15749 0.2786 0.0
C332 C 0.86777 0.08416 0.26519 0.0
C333 C 0.84235 0.02935 0.25594 0.0
C334 C 0.88274 0.97921 0.25056 0.0
C335 C 0.94952 0.98422 0.25377 0.0
C336 C 0.97444 0.03694 0.26418 0.0
C337 C 0.9333 0.08625 0.27021 0.0
C338 C 0.89324 0.17405 0.23704 0.0
C339 C 0.87674 0.13578 0.22145 0.0
C340 C 0.92386 0.11885 0.20841 0.0
C341 C 0.98824 0.14011 0.21076 0.0
C342 C 0.00435 0.17887 0.22639 0.0
C343 C 0.95723 0.19558 0.23942 0.0
C344 C 0.82166 0.29223 0.23613 0.0
C345 C 0.7784 0.295 0.22138 0.0
C346 C 0.79026 0.3375 0.20722 0.0
C347 C 0.84573 0.37719 0.20768 0.0
C348 C 0.88914 0.37381 0.22242 0.0
C349 C 0.8769 0.33194 0.23664 0.0
C350 C 0.73524 0.32721 0.26591 0.0
C351 C 0.67179 0.33548 0.25981 0.0
C352 C 0.64157 0.395 0.26252 0.0
C353 C 0.67474 0.44735 0.27121 0.0
C354 C 0.73924 0.43933 0.27662 0.0
C355 C 0.76914 0.3797 0.27403 0.0
C356 C 0.71778 0.24218 0.29578 0.0
C357 C 0.65087 0.25239 0.29521 0.0
C358 C 0.62293 0.29954 0.30688 0.0
C359 C 0.66184 0.33627 0.31918 0.0
C360 C 0.72724 0.3211 0.32102 0.0
C361 C 0.7549 0.27401 0.30949 0.0
C362 C 0.76065 0.10501 0.29058 0.0
C363 C 0.72002 0.05627 0.28312 0.0
C364 C 0.70763 0.00022 0.29271 0.0
C365 C 0.73337 0.99265 0.3104 0.0
C366 C 0.77122 0.04368 0.31826 0.0
C367 C 0.78579 0.09874 0.30828 0.0
C368 C 0.03846 0.12112 0.19708 0.0
C369 C 0.64208 0.50973 0.27499 0.0
H370 H 0.57616 0.8189 0.67182 0.0
H371 H 0.80537 0.4716 0.83719 0.0
H372 H 0.8438 0.9519 0.74315 0.0
H373 H 0.80804 0.03112 0.72109 0.0
H374 H 0.63623 0.06417 0.75355 0.0
H375 H 0.67155 0.98417 0.77532 0.0
H376 H 0.77923 0.82117 0.72776 0.0
H377 H 0.7089 0.81688 0.70067 0.0
H378 H 0.54473 0.86081 0.73553 0.0
H379 H 0.61568 0.86491 0.76248 0.0
H380 H 0.82966 0.6998 0.75193 0.0
H381 H 0.79396 0.59762 0.73744 0.0
H382 H 0.60084 0.62938 0.75821 0.0
H383 H 0.63744 0.73216 0.77288 0.0
H384 H 0.90469 0.70972 0.78399 0.0
H385 H 0.92558 0.6073 0.79854 0.0
H386 H 0.73644 0.61408 0.82379 0.0
H387 H 0.71747 0.71805 0.80984 0.0
H388 H 0.94992 0.81382 0.80002 0.0
H389 H 0.9892 0.75677 0.82641 0.0
H390 H 0.81721 0.8098 0.8568 0.0
H391 H 0.77578 0.86185 0.8296 0.0
H392 H 0.93804 0.93713 0.78879 0.0
H393 H 0.9844 0.02955 0.80647 0.0
H394 H 0.79238 0.09363 0.82042 0.0
H395 H 0.74629 0.00031 0.80323 0.0
O396 O 0.60326 0.82179 0.68266 0.0
O397 O 0.52024 0.84291 0.70124 0.0
O398 O 0.89791 0.51507 0.81981 0.0
O399 O 0.79823 0.51189 0.8312 0.0
C400 C 0.77201 0.90226 0.77071 0.0
C401 C 0.74479 0.84383 0.76347 0.0
C402 C 0.75872 0.78509 0.7717 0.0
C403 C 0.79784 0.78435 0.78745 0.0
C404 C 0.82356 0.84269 0.79509 0.0
C405 C 0.81143 0.9017 0.78659 0.0
C406 C 0.76041 0.96259 0.76088 0.0
C407 C 0.79977 0.97823 0.74589 0.0
C408 C 0.77933 0.02338 0.73331 0.0
C409 C 0.71914 0.05311 0.73555 0.0
C410 C 0.68267 0.04156 0.75147 0.0
C411 C 0.70297 0.99632 0.76398 0.0
C412 C 0.70249 0.84363 0.74701 0.0
C413 C 0.72812 0.83016 0.72947 0.0
C414 C 0.68781 0.82766 0.71405 0.0
C415 C 0.62114 0.83841 0.71593 0.0
C416 C 0.59579 0.85224 0.73359 0.0
C417 C 0.63619 0.85479 0.74899 0.0
C418 C 0.73591 0.72323 0.76324 0.0
C419 C 0.77989 0.68417 0.75357 0.0
C420 C 0.7597 0.62543 0.74561 0.0
C421 C 0.69505 0.605 0.74712 0.0
C422 C 0.65118 0.64375 0.75714 0.0
C423 C 0.67166 0.70252 0.76526 0.0
C424 C 0.8102 0.72188 0.79621 0.0
C425 C 0.86826 0.68942 0.7929 0.0
C426 C 0.87991 0.6308 0.80114 0.0
C427 C 0.83291 0.60279 0.81249 0.0
C428 C 0.77395 0.63464 0.81531 0.0
C429 C 0.76293 0.69396 0.80736 0.0
C430 C 0.85919 0.84005 0.81273 0.0
C431 C 0.92193 0.81546 0.81263 0.0
C432 C 0.94424 0.78261 0.82779 0.0
C433 C 0.90462 0.77566 0.84337 0.0
C434 C 0.8472 0.81116 0.8446 0.0
C435 C 0.82406 0.84231 0.82922 0.0
C436 C 0.83886 0.96226 0.79472 0.0
C437 C 0.90605 0.97168 0.79545 0.0
C438 C 0.93238 0.02415 0.8055 0.0
C439 C 0.8917 0.0681 0.81476 0.0
C440 C 0.82446 0.06044 0.81324 0.0
C441 C 0.79819 0.00749 0.80339 0.0
C442 C 0.57833 0.83467 0.69956 0.0
C443 C 0.8452 0.54063 0.82135 0.0
H444 H 0.47638 0.37159 0.91718 0.0
H445 H 0.91797 0.59173 0.08172 0.0
H446 H 0.40677 0.6379 0.00313 0.0
H447 H 0.315 0.62064 0.98217 0.0
H448 H 0.2964 0.42399 -0.00062 0.0
H449 H 0.38758 0.44167 0.02045 0.0
H450 H 0.52926 0.56187 0.97696 0.0
H451 H 0.5106 0.49757 0.94849 0.0
H452 H 0.47556 0.32866 0.98055 0.0
H453 H 0.49644 0.39289 0.00879 0.0
H454 H 0.66114 0.60528 -0.00332 0.0
H455 H 0.75518 0.56983 0.97884 0.0
H456 H 0.7288 0.37659 -0.00178 0.0
H457 H 0.63526 0.41307 0.01666 0.0
H458 H 0.67761 0.67133 0.02617 0.0
H459 H 0.78709 0.69093 0.0379 0.0
H460 H 0.76803 0.52365 0.07158 0.0
H461 H 0.65919 0.5037 0.05935 0.0
H462 H 0.56808 0.72745 0.04407 0.0
H463 H 0.63863 0.78363 0.06659 0.0
H464 H 0.61804 0.62302 0.10255 0.0
H465 H 0.54805 0.56738 0.08002 0.0
H466 H 0.43206 0.7046 0.04721 0.0
H467 H 0.32834 0.73097 0.06148 0.0
H468 H 0.28338 0.52723 0.06491 0.0
H469 H 0.39001 0.50193 0.05281 0.0
O470 O 0.48536 0.39589 0.92852 0.0
O471 O 0.4587 0.31333 0.94589 0.0
O472 O 0.88512 0.66597 0.05766 0.0
O473 O 0.87549 0.58404 0.0765 0.0
C474 C 0.46891 0.54652 0.02163 0.0
C475 C 0.52288 0.52121 0.01212 0.0
C476 C 0.5855 0.53461 0.01875 0.0
C477 C 0.59434 0.5739 0.03473 0.0
C478 C 0.54028 0.59958 0.04431 0.0
C479 C 0.47716 0.58355 0.03817 0.0
C480 C 0.40443 0.54053 0.01292 0.0
C481 C 0.38122 0.59191 0.00289 0.0
C482 C 0.32874 0.58222 0.99106 0.0
C483 C 0.2993 0.52096 0.98916 0.0
C484 C 0.31808 0.47178 0.00076 0.0
C485 C 0.37055 0.48151 0.01259 0.0
C486 C 0.51376 0.48197 0.99486 0.0
C487 C 0.51803 0.51083 0.97774 0.0
C488 C 0.50719 0.47404 0.96154 0.0
C489 C 0.49108 0.408 0.96226 0.0
C490 C 0.48764 0.37931 0.9795 0.0
C491 C 0.49945 0.41589 -0.00435 0.0
C492 C 0.64223 0.51194 0.00811 0.0
C493 C 0.67642 0.55563 -0.00263 0.0
C494 C 0.73004 0.53545 0.98729 0.0
C495 C 0.74958 0.47093 0.98752 0.0
C496 C 0.71485 0.42676 -0.00192 0.0
C497 C 0.66161 0.44737 0.00848 0.0
C498 C 0.66074 0.58601 0.04188 0.0
C499 C 0.69745 0.63869 0.03595 0.0
C500 C 0.75989 0.64977 0.04269 0.0
C501 C 0.78632 0.60884 0.05569 0.0
C502 C 0.74918 0.55611 0.0616 0.0
C503 C 0.68704 0.54461 0.05465 0.0
C504 C 0.55285 0.64334 0.06045 0.0
C505 C 0.57558 0.70623 0.05731 0.0
C506 C 0.61666 0.73786 0.07003 0.0
C507 C 0.63429 0.70738 0.08619 0.0
C508 C 0.60471 0.64803 0.0903 0.0
C509 C 0.56411 0.61628 0.07752 0.0
C510 C 0.41881 0.60136 0.04899 0.0
C511 C 0.40047 0.66585 0.0515 0.0
C512 C 0.34008 0.68064 0.0591 0.0
C513 C 0.296 0.63113 0.0637 0.0
C514 C 0.3155 0.56668 0.06146 0.0
C515 C 0.37659 0.55212 0.05455 0.0
C516 C 0.47744 0.36936 0.94511 0.0
C517 C 0.852 0.62145 0.06326 0.0
H518 H 0.02261 0.38038 0.63344 0.0
H519 H 0.48275 0.78853 0.51372 0.0
H520 H 0.00944 0.44119 0.5366 0.0
H521 H 0.94252 0.39796 0.56066 0.0
H522 H 0.85976 0.5866 0.5706 0.0
H523 H 0.93335 0.63075 0.54779 0.0
H524 H 0.11639 0.44622 0.56038 0.0
H525 H 0.08818 0.40188 0.59015 0.0
H526 H 0.00998 0.5863 0.60779 0.0
H527 H 0.03793 0.62985 0.57788 0.0
H528 H 0.23385 0.49086 0.53425 0.0
H529 H 0.3178 0.44457 0.55328 0.0
H530 H 0.27621 0.58438 0.59688 0.0
H531 H 0.19299 0.63226 0.57753 0.0
H532 H 0.25577 0.558 0.50456 0.0
H533 H 0.36434 0.59881 0.49753 0.0
H534 H 0.3299 0.76826 0.53224 0.0
H535 H 0.22226 0.72608 0.53962 0.0
H536 H 0.11854 0.54541 0.48194 0.0
H537 H 0.19004 0.56599 0.45604 0.0
H538 H 0.22859 0.75851 0.47828 0.0
H539 H 0.15203 0.73964 0.50319 0.0
H540 H 0.99823 0.48533 0.50158 0.0
H541 H 0.92186 0.47942 0.4758 0.0
H542 H 0.91789 0.68774 0.47576 0.0
H543 H 0.99433 0.69336 0.50147 0.0
O544 O 0.03548 0.3995 0.62202 0.0
O545 O 0.00153 0.49685 0.63106 0.0
O546 O 0.45514 0.68321 0.4986 0.0
O547 O 0.44076 0.77057 0.51669 0.0
C548 C 0.04043 0.56803 0.53533 0.0
C549 C 0.09094 0.56665 0.54837 0.0
C550 C 0.1534 0.58676 0.54354 0.0
C551 C 0.16477 0.61552 0.52662 0.0
C552 C 0.1143 0.61902 0.51356 0.0
C553 C 0.05226 0.59317 0.51773 0.0
C554 C 0.97724 0.53936 0.54064 0.0
C555 C 0.97438 0.47257 0.54327 0.0
C556 C 0.93585 0.4478 0.55724 0.0
C557 C 0.89637 0.48892 0.56805 0.0
C558 C 0.89132 0.55387 0.56306 0.0
C559 C 0.93197 0.57907 0.54959 0.0
C560 C 0.07883 0.54111 0.56698 0.0
C561 C 0.09378 0.47709 0.57077 0.0
C562 C 0.07734 0.45183 0.58776 0.0
C563 C 0.04633 0.49039 0.60131 0.0
C564 C 0.03352 0.5552 0.59763 0.0
C565 C 0.04954 0.58025 0.5806 0.0
C566 C 0.20838 0.56538 0.55449 0.0
C567 C 0.24395 0.51253 0.54773 0.0
C568 C 0.29102 0.48576 0.55858 0.0
C569 C 0.30219 0.51108 0.57637 0.0
C570 C 0.26742 0.56443 0.58313 0.0
C571 C 0.22069 0.59186 0.57215 0.0
C572 C 0.23106 0.63943 0.52246 0.0
C573 C 0.27184 0.60385 0.51064 0.0
C574 C 0.33361 0.62737 0.50658 0.0
C575 C 0.35534 0.68722 0.51408 0.0
C576 C 0.31455 0.72221 0.52613 0.0
C577 C 0.25311 0.69825 0.53039 0.0
C578 C 0.13141 0.64038 0.49478 0.0
C579 C 0.13914 0.59336 0.48065 0.0
C580 C 0.18131 0.60476 0.46607 0.0
C581 C 0.21793 0.66243 0.46579 0.0
C582 C 0.20218 0.71304 0.4783 0.0
C583 C 0.15818 0.70235 0.49255 0.0
C584 C 0.00153 0.58979 0.50343 0.0
C585 C 0.98005 0.52964 0.49618 0.0
C586 C 0.93687 0.5263 0.48143 0.0
C587 C 0.91507 0.58308 0.47363 0.0
C588 C 0.93524 0.64324 0.48126 0.0
C589 C 0.97829 0.64655 0.49602 0.0
C590 C 0.02652 0.46274 0.61906 0.0
C591 C 0.42013 0.71326 0.5093 0.0
C592 C 0.15148 0.66525 0.1562 0.0
C593 C 0.91387 0.59307 0.16425 0.0
C594 C 0.8677 0.74364 0.12874 0.0
Mg595 Mg 0.21622 0.80117 0.14712 0.0
Mg596 Mg 0.14646 0.94154 0.15305 0.0
O597 O 0.13972 0.85718 0.14344 0.0
Mg598 Mg 0.07032 0.7954 0.15067 0.0
O599 O 0.00674 0.72636 0.15684 0.0
Mg600 Mg 0.01239 0.66792 0.13444 0.0
Mg601 Mg 0.92628 0.74162 0.16698 0.0
C602 C 0.99927 0.93485 0.14167 0.0
O603 O 0.05905 0.8377 0.18038 0.0
O604 O 0.27523 0.87902 0.13251 0.0
O605 O 0.95886 0.80587 0.18894 0.0
O606 O 0.24231 0.84928 0.17551 0.0
O607 O 0.22355 0.97328 0.13525 0.0
O608 O 0.17834 0.93399 0.18069 0.0
O609 O 0.07732 0.74737 0.12172 0.0
O610 O 0.18537 0.75607 0.1199 0.0
C611 C 0.13082 0.73797 0.11311 0.0
C612 C 0.26995 0.93882 0.12886 0.0
O613 O 0.99712 0.87256 0.14147 0.0
O614 O 0.95225 0.59176 0.15034 0.0
O615 O 0.04898 0.9681 0.14694 0.0
O616 O 0.91433 0.70796 0.12286 0.0
O617 O 0.8991 0.64534 0.17299 0.0
O618 O 0.86675 0.76818 0.14505 0.0
O619 O 0.14749 0.72619 0.15956 0.0
O620 O 0.10669 0.63372 0.14745 0.0
C621 C 0.22118 0.89519 0.18597 0.0
C622 C 0.01278 0.8353 0.19214 0.0
C623 C 0.67376 0.82393 0.41132 0.0
C624 C 0.7237 0.59662 0.41604 0.0
C625 C 0.60664 0.557 0.36675 0.0
Mg626 Mg 0.5514 0.90345 0.39565 0.0
Mg627 Mg 0.41012 0.836 0.38242 0.0
O628 O 0.49947 0.83098 0.38424 0.0
Mg629 Mg 0.548 0.75713 0.39296 0.0
O630 O 0.60376 0.68669 0.40081 0.0
Mg631 Mg 0.67646 0.69733 0.38305 0.0
Mg632 Mg 0.57922 0.60309 0.40675 0.0
C633 C 0.42683 0.6917 0.36835 0.0
O634 O 0.4755 0.73234 0.41662 0.0
O635 O 0.4944 0.97165 0.37666 0.0
O636 O 0.49024 0.62635 0.421 0.0
O637 O 0.47252 0.91958 0.41856 0.0
O638 O 0.40649 0.91877 0.36574 0.0
O639 O 0.38221 0.86629 0.40939 0.0
O640 O 0.61676 0.7737 0.36813 0.0
O641 O 0.62125 0.88153 0.37264 0.0
C642 C 0.63916 0.82982 0.36409 0.0
C643 C 0.44432 0.96811 0.36621 0.0
O644 O 0.4841 0.69125 0.37497 0.0
O645 O 0.73437 0.63132 0.40201 0.0
O646 O 0.38927 0.74027 0.37027 0.0
O647 O 0.64297 0.60716 0.36491 0.0
O648 O 0.66638 0.58094 0.42104 0.0
O649 O 0.57552 0.54779 0.38157 0.0
O650 O 0.61139 0.82774 0.41164 0.0
O651 O 0.70234 0.78118 0.40133 0.0
C652 C 0.41377 0.9012 0.42114 0.0
C653 C 0.45901 0.67877 0.42399 0.0
C654 C 0.60806 0.17201 0.67167 0.0
C655 C 0.37465 0.0951 0.65363 0.0
C656 C 0.40226 0.21388 0.60677 0.0
Mg657 Mg 0.68956 0.30059 0.65903 0.0
Mg658 Mg 0.61873 0.43323 0.64571 0.0
O659 O 0.62191 0.34372 0.64447 0.0
Mg660 Mg 0.5471 0.28563 0.64853 0.0
O661 O 0.47698 0.22047 0.65188 0.0
Mg662 Mg 0.51286 0.15034 0.63533 0.0
Mg663 Mg 0.39055 0.2419 0.64818 0.0
C664 C 0.49233 0.403 0.62313 0.0
O665 O 0.49673 0.34789 0.6709 0.0
O666 O 0.76343 0.36611 0.6432 0.0
O667 O 0.39048 0.32235 0.66816 0.0
O668 O 0.67732 0.3763 0.68356 0.0
O669 O 0.71 0.45259 0.63358 0.0
O670 O 0.61706 0.45707 0.67392 0.0
O671 O 0.59175 0.22001 0.62646 0.0
O672 O 0.6949 0.22831 0.63532 0.0
C673 C 0.65085 0.20359 0.62489 0.0
C674 C 0.76066 0.41825 0.63409 0.0
O675 O 0.49049 0.34355 0.62758 0.0
O676 O 0.43065 0.08687 0.64637 0.0
O677 O 0.53404 0.44416 0.62942 0.0
O678 O 0.44781 0.17536 0.61061 0.0
O679 O 0.34981 0.15106 0.65583 0.0
O680 O 0.37677 0.25054 0.61916 0.0
O681 O 0.60687 0.23362 0.67005 0.0
O682 O 0.57674 0.1336 0.66053 0.0
C683 C 0.6467 0.42903 0.68665 0.0
C684 C 0.43742 0.35417 0.67585 0.0
C685 C 0.1888 0.39229 0.92593 0.0
C686 C 0.26262 0.16359 0.92372 0.0
C687 C 0.18361 0.14667 0.8698 0.0
Mg688 Mg 0.07349 0.4658 0.90837 0.0
Mg689 Mg 0.94587 0.39853 0.88802 0.0
O690 O 0.03561 0.40037 0.89023 0.0
Mg691 Mg 0.08572 0.32414 0.89815 0.0
O692 O 0.14297 0.2548 0.90643 0.0
Mg693 Mg 0.22614 0.28226 0.89486 0.0
Mg694 Mg 0.12353 0.16721 0.90831 0.0
C695 C 0.98025 0.2673 0.86674 0.0
O696 O 0.00654 0.28372 0.9171 0.0
O697 O 0.01694 0.54379 0.89306 0.0
O698 O 0.02557 0.1769 0.91925 0.0
O699 O 0.98806 0.45404 0.92895 0.0
O700 O 0.93256 0.49523 0.87866 0.0
O701 O 0.91044 0.39383 0.91537 0.0
O702 O 0.16757 0.35987 0.87935 0.0
O703 O 0.15599 0.46516 0.88755 0.0
C704 C 0.18502 0.41971 0.87848 0.0
C705 C 0.96663 0.54574 0.8828 0.0
O706 O 0.03553 0.26426 0.87473 0.0
O707 O 0.27683 0.20984 0.91309 0.0
O708 O 0.93969 0.31252 0.87021 0.0
O709 O 0.21669 0.19914 0.87227 0.0
O710 O 0.20477 0.14143 0.92525 0.0
O711 O 0.14193 0.12767 0.88142 0.0
O712 O 0.12925 0.38577 0.92151 0.0
O713 O 0.23251 0.35841 0.91796 0.0
C714 C 0.9337 0.42379 0.92951 0.0
C715 C 0.99086 0.22707 0.92237 0.0
C716 C 0.31005 0.92732 0.46331 0.0
C717 C 0.27246 0.98035 0.4583 0.0
C718 C 0.36 0.90399 0.4519 0.0
C719 C 0.37477 0.93388 0.43537 0.0
H720 H 0.29963 0.9025 0.47587 0.0
H721 H 0.3853 0.86093 0.45564 0.0
S722 S 0.29189 0.07284 0.41569 0.0
N723 N 0.25381 0.06075 0.43526 0.0
N724 N 0.34941 0.0185 0.41445 0.0
C725 C 0.33958 0.98803 0.43052 0.0
C726 C 0.28808 0.01102 0.44185 0.0
C727 C 0.36079 0.93244 0.67443 0.0
C728 C 0.31445 0.94349 0.68822 0.0
C729 C 0.37493 0.97951 0.66171 0.0
C730 C 0.3438 0.03957 0.66259 0.0
H731 H 0.38975 0.88923 0.67438 0.0
H732 H 0.41438 0.97063 0.65219 0.0
S733 S 0.20863 0.08532 0.69389 0.0
N734 N 0.23003 0.01307 0.70035 0.0
N735 N 0.25598 0.1022 0.67635 0.0
C736 C 0.29168 0.04767 0.67494 0.0
C737 C 0.27726 -0.00061 0.68786 0.0
C738 C 0.34567 0.10012 0.9658 0.0
C739 C 0.41074 0.11575 0.96247 0.0
C740 C 0.298 0.11231 0.95271 0.0
C741 C 0.31411 0.14043 0.9359 0.0
H742 H 0.33125 0.0811 0.97891 0.0
H743 H 0.24802 0.10255 0.95619 0.0
S744 S 0.47993 0.17944 0.91964 0.0
N745 N 0.49023 0.15344 0.94065 0.0
N746 N 0.40135 0.17555 0.91584 0.0
C747 C 0.37991 0.15199 0.93201 0.0
C748 C 0.42808 0.13995 0.94538 0.0
C749 C 0.2516 0.97103 0.23249 0.0
C750 C 0.31198 0.00143 0.22966 0.0
C751 C 0.22428 0.92941 0.21897 0.0
C752 C 0.2575 0.91507 0.20254 0.0
H753 H 0.22265 0.98424 0.24443 0.0
H754 H 0.17502 0.91248 0.22073 0.0
S755 S 0.4205 0.97306 0.1895 0.0
N756 N 0.40667 0.00824 0.20981 0.0
N757 N 0.35645 0.927 0.18504 0.0
C758 C 0.32092 0.93829 0.20054 0.0
C759 C 0.34811 0.98216 0.21401 0.0
C760 C 0.27411 0.22617 0.57004 0.0
C761 C 0.29165 0.17769 0.55704 0.0
C762 C 0.3131 0.24144 0.58533 0.0
C763 C 0.37097 0.20835 0.58836 0.0
H764 H 0.22783 0.24966 0.5691 0.0
H765 H 0.29539 0.27663 0.59542 0.0
S766 S 0.4442 0.08605 0.55636 0.0
N767 N 0.375 0.10366 0.5466 0.0
N768 N 0.4481 0.13117 0.5755 0.0
C769 C 0.39169 0.16367 0.57458 0.0
C770 C 0.35198 0.14845 0.55894 0.0
C771 C 0.18648 0.0126 0.83325 0.0
C772 C 0.24212 0.97836 0.83814 0.0
C773 C 0.16914 0.07012 0.84271 0.0
C774 C 0.20801 0.09641 0.85695 0.0
H775 H 0.15567 0.99456 0.82214 0.0
H776 H 0.1245 0.09333 0.83915 0.0
S777 S 0.35633 0.02559 0.87577 0.0
N778 N 0.33387 0.97453 0.85898 0.0
N779 N 0.30311 0.08416 0.87587 0.0
C780 C 0.26425 0.06384 0.8617 0.0
C781 C 0.28096 0.00454 0.8525 0.0
C782 C 0.3311 0.04154 0.09006 0.0
C783 C 0.38537 0.00747 0.08364 0.0
C784 C 0.29584 0.02099 0.10533 0.0
C785 C 0.31367 0.96566 0.11477 0.0
H786 H 0.31492 0.08356 0.08299 0.0
H787 H 0.25301 0.04748 0.10933 0.0
S788 S 0.45702 0.86428 0.10475 0.0
N789 N 0.45887 0.91937 0.0889 0.0
N790 N 0.39275 0.88051 0.11744 0.0
C791 C 0.36965 0.93292 0.10894 0.0
C792 C 0.40535 0.95379 0.09341 0.0
C793 C 0.46201 0.12701 0.34178 0.0
C794 C 0.41726 0.1199 0.32732 0.0
C795 C 0.46929 0.07848 0.35458 0.0
C796 C 0.43228 0.0209 0.35334 0.0
H797 H 0.49179 0.17029 0.34316 0.0
H798 H 0.50482 0.08597 0.36539 0.0
S799 S 0.31006 0.97835 0.3173 0.0
N800 N 0.33677 0.05077 0.31206 0.0
N801 N 0.34947 0.95987 0.33608 0.0
C802 C 0.3869 0.01369 0.33892 0.0
C803 C 0.37969 0.06306 0.32593 0.0
C804 C 0.76131 0.09516 0.59834 0.0
C805 C 0.74439 0.10756 0.5801 0.0
C806 C 0.72552 0.12073 0.61303 0.0
C807 C 0.67173 0.15945 0.60996 0.0
H808 H 0.80579 0.07079 0.6014 0.0
H809 H 0.7433 0.11469 0.62687 0.0
S810 S 0.59937 0.19407 0.56486 0.0
N811 N 0.6638 0.15086 0.55971 0.0
N812 N 0.59693 0.20046 0.58757 0.0
C813 C 0.64968 0.16575 0.59189 0.0
C814 C 0.68619 0.13954 0.57685 0.0
C815 C 0.65317 0.90789 0.31996 0.0
C816 C 0.7163 0.93419 0.32107 0.0
C817 C 0.63148 0.86186 0.3323 0.0
C818 C 0.67135 0.84147 0.34653 0.0
H819 H 0.61813 0.9268 0.31059 0.0
H820 H 0.58062 0.84869 0.33219 0.0
S821 S 0.84443 0.88255 0.35293 0.0
N822 N 0.82243 0.92477 0.33516 0.0
N823 N 0.77922 0.84231 0.35932 0.0
C824 C 0.73621 0.86156 0.34659 0.0
C825 C 0.75915 0.90723 0.33371 0.0
C826 C 0.92803 0.04474 0.1072 0.0
C827 C 0.86451 0.02137 0.10554 0.0
C828 C 0.96992 0.01934 0.12005 0.0
C829 C 0.94962 0.96956 0.13158 0.0
H830 H 0.94653 0.07999 0.09779 0.0
H831 H 0.01977 0.03592 0.12004 0.0
S832 S 0.78295 0.90455 0.1355 0.0
N833 N 0.77957 0.95451 0.11831 0.0
N834 N 0.85866 0.90674 0.14272 0.0
C835 C 0.88453 0.95002 0.13111 0.0
C836 C 0.84181 0.97601 0.118 0.0
C837 C 0.9032 0.18372 0.82503 0.0
C838 C 0.91885 0.11876 0.82729 0.0
C839 C 0.92434 0.23175 0.83772 0.0
C840 C 0.96159 0.21625 0.85309 0.0
H841 H 0.87394 0.1973 0.81347 0.0
H842 H 0.91112 0.28132 0.83554 0.0
S843 S 0.00933 0.05211 0.86608 0.0
N844 N 0.97055 0.04068 0.84639 0.0
N845 N 0.00926 0.13084 0.87048 0.0
C846 C 0.97709 0.15132 0.85554 0.0
C847 C 0.95593 0.10255 0.84256 0.0
C848 C 0.82367 0.85694 0.43939 0.0
C849 C 0.81777 0.9209 0.44596 0.0
C850 C 0.7745 0.82617 0.4294 0.0
C851 C 0.71727 0.85815 0.42473 0.0
H852 H 0.86732 0.83012 0.44168 0.0
H853 H 0.78276 0.7766 0.42487 0.0
S854 S 0.6749 0.02483 0.43957 0.0
N855 N 0.74743 0.01441 0.44839 0.0
N856 N 0.65577 0.95661 0.42832 0.0
C857 C 0.70929 0.92164 0.43154 0.0
C858 C 0.75955 0.95315 0.44226 0.0
C859 C 0.02472 0.97016 0.22763 0.0
C860 C 0.99175 0.94247 0.24244 0.0
C861 C 0.03846 0.93325 0.21162 0.0
C862 C 0.01989 0.86791 0.21025 0.0
H863 H 0.03284 0.02186 0.22754 0.0
H864 H 0.05737 0.95734 0.19972 0.0
S865 S 0.9496 0.76994 0.2472 0.0
N866 N 0.95358 0.84411 0.25623 0.0
N867 N 0.98019 0.77417 0.22627 0.0
C868 C 0.99584 0.83804 0.22597 0.0
C869 C 0.98184 0.87553 0.24214 0.0
C870 C 0.82744 0.16632 0.93797 0.0
C871 C 0.82072 0.19663 0.9555 0.0
C872 C 0.88229 0.17725 0.9271 0.0
C873 C 0.93162 0.21968 0.93327 0.0
H874 H 0.79072 0.13275 0.93279 0.0
H875 H 0.88647 0.15193 0.91387 0.0
S876 S 0.93943 0.30938 0.97813 0.0
N877 N 0.87 0.2694 0.97865 0.0
N878 N 0.97152 0.2916 0.95781 0.0
C879 C 0.92516 0.25145 0.95048 0.0
C880 C 0.87 0.2396 0.9617 0.0
C881 C 0.72043 0.13927 0.71178 0.0
C882 C 0.68955 0.08645 0.71997 0.0
C883 C 0.69338 0.16828 0.69636 0.0
C884 C 0.63567 0.14407 0.68839 0.0
H885 H 0.76568 0.1581 0.71732 0.0
H886 H 0.71849 0.20872 0.69038 0.0
S887 S 0.536 0.00733 0.70492 0.0
N888 N 0.59808 0.01188 0.71911 0.0
N889 N 0.54759 0.06559 0.69032 0.0
C890 C 0.60435 0.09164 0.69662 0.0
C891 C 0.63124 0.06298 0.71234 0.0
C892 C 0.78918 0.40458 0.96091 0.0
C893 C 0.80242 0.44964 0.97526 0.0
C894 C 0.8337 0.39395 0.94669 0.0
C895 C 0.89317 0.42796 0.94633 0.0
H896 H 0.74255 0.38032 0.96007 0.0
H897 H 0.82003 0.36061 0.93553 0.0
S898 S 0.95424 0.54326 0.9827 0.0
N899 N 0.88113 0.52273 0.9897 0.0
N900 N 0.96573 0.50261 0.96306 0.0
C901 C 0.90885 0.46944 0.96147 0.0
C902 C 0.86316 0.48041 0.9759 0.0
C903 C 0.9162 0.42785 0.1842 0.0
C904 C 0.85688 0.42569 0.19362 0.0
C905 C 0.93241 0.4801 0.17328 0.0
C906 C 0.8902 0.5322 0.1718 0.0
H907 H 0.95133 0.39024 0.18593 0.0
H908 H 0.97994 0.48177 0.16704 0.0
S909 S 0.72656 0.5462 0.19225 0.0
N910 N 0.75375 0.47701 0.19953 0.0
N911 N 0.7844 0.5757 0.17917 0.0
C912 C 0.82919 0.52859 0.18024 0.0
C913 C 0.81243 0.47511 0.19113 0.0
C914 C 0.81359 0.54326 0.45819 0.0
C915 C 0.87106 0.57991 0.45759 0.0
C916 C 0.76789 0.54547 0.44403 0.0
C917 C 0.77817 0.58412 0.42867 0.0
H918 H 0.8025 0.51501 0.47009 0.0
H919 H 0.72298 0.51877 0.44556 0.0
S920 S 0.92593 0.68219 0.41958 0.0
N921 N 0.93935 0.65043 0.43971 0.0
N922 N 0.854 0.65499 0.41304 0.0
C923 C 0.83776 0.61759 0.42739 0.0
C924 C 0.88394 0.61556 0.44188 0.0
C925 C 0.62285 0.56141 0.72267 0.0
C926 C 0.67198 0.5502 0.73533 0.0
C927 C 0.6124 0.51919 0.70765 0.0
C928 C 0.64983 0.46338 0.70482 0.0
H929 H 0.59606 0.60596 0.7234 0.0
H930 H 0.57759 0.53324 0.69751 0.0
S931 S 0.77552 0.40585 0.73644 0.0
N932 N 0.75211 0.4753 0.7459 0.0
N933 N 0.73154 0.39441 0.71764 0.0
C934 C 0.69458 0.44811 0.71849 0.0
C935 C 0.70585 0.49191 0.73376 0.0
C936 C 0.75109 0.73927 0.08838 0.0
C937 C 0.69088 0.73071 0.09712 0.0
C938 C 0.80847 0.74591 0.09861 0.0
C939 C 0.80722 0.74619 0.11793 0.0
H940 H 0.75436 0.73705 0.07353 0.0
H941 H 0.85411 0.74902 0.09137 0.0
S942 S 0.66064 0.73346 0.14733 0.0
N943 N 0.63279 0.72864 0.12607 0.0
N944 N 0.73967 0.74222 0.14541 0.0
C945 C 0.74661 0.74221 0.1268 0.0
C946 C 0.68866 0.73442 0.11638 0.0
C947 C 0.66307 0.45491 0.32571 0.0
C948 C 0.63668 0.39373 0.32921 0.0
C949 C 0.64883 0.50884 0.33707 0.0
C950 C 0.60875 0.50324 0.35262 0.0
H951 H 0.6972 0.46053 0.31457 0.0
H952 H 0.67249 0.55433 0.33419 0.0
S953 S 0.5235 0.35305 0.36656 0.0
N954 N 0.56446 0.33086 0.34796 0.0
N955 N 0.53937 0.43081 0.37002 0.0
C956 C 0.57919 0.44242 0.35558 0.0
C957 C 0.5928 0.38798 0.34371 0.0
C958 C 0.86545 0.5092 0.60125 0.0
C959 C 0.86676 0.46679 0.58561 0.0
C960 C 0.83581 0.49144 0.61772 0.0
C961 C 0.80838 0.42976 0.61949 0.0
H962 H 0.88635 0.55725 0.60072 0.0
H963 H 0.83216 0.52703 0.62893 0.0
S964 S 0.79858 0.29986 0.58328 0.0
N965 N 0.83657 0.35981 0.57327 0.0
N966 N 0.78466 0.32566 0.60462 0.0
C967 C 0.81197 0.38567 0.60442 0.0
C968 C 0.84028 0.40427 0.58742 0.0
C969 C 0.9815 0.71063 0.86179 0.0
C970 C 0.91779 0.72301 0.85629 0.0
C971 C 0.9966 0.65441 0.87104 0.0
C972 C 0.94867 0.60804 0.87495 0.0
H973 H 0.02038 0.74369 0.85843 0.0
H974 H 0.04664 0.64597 0.87443 0.0
S975 S 0.77332 0.62056 0.86567 0.0
N976 N 0.80553 0.68601 0.85692 0.0
N977 N 0.83417 0.58118 0.8744 0.0
C978 C 0.88439 0.62134 0.87045 0.0
C979 C 0.86887 0.67865 0.86115 0.0
C980 C 0.21162 0.61169 0.08774 0.0
C981 C 0.2327 0.64666 0.0725 0.0
C982 C 0.16297 0.63544 0.09941 0.0
C983 C 0.13566 0.69599 0.09663 0.0
H984 H 0.23713 0.56934 0.09191 0.0
H985 H 0.15466 0.61151 0.11225 0.0
S986 S 0.15744 0.79499 0.05564 0.0
N987 N 0.20844 0.73499 0.05244 0.0
N988 N 0.12055 0.78193 0.07536 0.0
C989 C 0.14832 0.72568 0.07996 0.0
C990 C 0.19675 0.70089 0.06776 0.0
C991 C 0.24524 0.4639 0.83207 0.0
C992 C 0.28412 0.51844 0.83656 0.0
C993 C 0.21975 0.42521 0.84589 0.0
C994 C 0.23152 0.44093 0.86454 0.0
H995 H 0.23089 0.45382 0.81793 0.0
H996 H 0.18547 0.38717 0.84204 0.0
S997 S 0.3365 0.57376 0.88319 0.0
N998 N 0.33907 0.58151 0.86067 0.0
N999 N 0.28982 0.51007 0.8866 0.0
C1000 C 0.27491 0.49174 0.86899 0.0
C1001 C 0.30157 0.53034 0.85498 0.0
C1002 C 0.3323 0.44002 0.60165 0.0
C1003 C 0.35098 0.48187 0.58776 0.0
C1004 C 0.37878 0.4121 0.61272 0.0
C1005 C 0.44467 0.42615 0.61022 0.0
H1006 H 0.28164 0.42933 0.604 0.0
H1007 H 0.36305 0.38143 0.62368 0.0
S1008 S 0.51718 0.52988 0.57489 0.0
N1009 N 0.43854 0.53361 0.57139 0.0
N1010 N 0.52634 0.48198 0.59239 0.0
C1011 C 0.46365 0.46689 0.59608 0.0
C1012 C 0.41653 0.49458 0.58475 0.0
C1013 C 0.42217 0.52128 0.34889 0.0
C1014 C 0.39687 0.52929 0.33131 0.0
C1015 C 0.4274 0.57371 0.36145 0.0
C1016 C 0.40703 0.63553 0.35674 0.0
H1017 H 0.43944 0.47461 0.35269 0.0
H1018 H 0.44953 0.56639 0.37469 0.0
S1019 S 0.33268 0.67947 0.31261 0.0
N1020 N 0.34745 0.60155 0.31001 0.0
N1021 N 0.35682 0.70067 0.33364 0.0
C1022 C 0.3778 0.64306 0.33954 0.0
C1023 C 0.37292 0.58966 0.32676 0.0
C1024 C 0.20181 0.4732 0.97311 0.0
C1025 C 0.26319 0.50287 0.97227 0.0
C1026 C 0.17453 0.44215 0.95742 0.0
C1027 C 0.20907 0.43823 0.94074 0.0
H1028 H 0.17641 0.47123 0.98612 0.0
H1029 H 0.12866 0.41693 0.95874 0.0
S1030 S 0.36938 0.51183 0.93133 0.0
N1031 N 0.35517 0.53064 0.95318 0.0
N1032 N 0.30541 0.47012 0.92408 0.0
C1033 C 0.2688 0.47064 0.93961 0.0
C1034 C 0.29557 0.5035 0.95531 0.0
C1035 C 0.44595 0.49191 0.71117 0.0
C1036 C 0.40428 0.47105 0.72515 0.0
C1037 C 0.45569 0.45431 0.69507 0.0
C1038 C 0.42356 0.39484 0.69232 0.0
H1039 H 0.47002 0.53847 0.7125 0.0
H1040 H 0.48766 0.47226 0.68456 0.0
S1041 S 0.31209 0.3165 0.72505 0.0
N1042 N 0.33273 0.38571 0.7355 0.0
N1043 N 0.35026 0.31523 0.70507 0.0
C1044 C 0.38196 0.37308 0.70618 0.0
C1045 C 0.37253 0.41112 0.72265 0.0
C1046 C 0.29556 0.72159 0.4453 0.0
C1047 C 0.27863 0.66576 0.45479 0.0
C1048 C 0.35442 0.72604 0.43573 0.0
C1049 C 0.39913 0.67535 0.43541 0.0
H1050 H 0.26284 0.76193 0.44512 0.0
H1051 H 0.3644 0.7692 0.42831 0.0
S1052 S 0.38048 0.52102 0.45971 0.0
N1053 N 0.31319 0.56014 0.46424 0.0
N1054 N 0.42343 0.56881 0.4466 0.0
C1055 C 0.38336 0.61995 0.44533 0.0
C1056 C 0.32332 0.61511 0.45488 0.0
C1057 C 0.25727 0.52391 0.16675 0.0
C1058 C 0.286 0.54429 0.18343 0.0
C1059 C 0.21734 0.56537 0.15721 0.0
C1060 C 0.20501 0.62847 0.16408 0.0
H1061 H 0.26178 0.4743 0.16177 0.0
H1062 H 0.19311 0.54655 0.14492 0.0
S1063 S 0.27712 0.70669 0.20609 0.0
N1064 N 0.30586 0.63269 0.2055 0.0
N1065 N 0.23112 0.71112 0.18764 0.0
C1066 C 0.23829 0.65093 0.17997 0.0
C1067 C 0.27862 0.60856 0.18967 0.0
loop_
_geom_bond_atom_site_label_1
_geom_bond_atom_site_label_2
_geom_bond_distance
_geom_bond_site_symmetry_2
_ccdc_geom_bond_type
H0 O26 0.856 . S
H1 O29 0.854 . S
H2 C37 0.930 . S
H3 C38 0.930 . S
H4 C40 0.930 1_565 S
H5 C41 0.930 1_565 S
H6 C43 0.931 . S
H7 C44 0.930 . S
H8 C46 0.930 . S
H9 C47 0.929 . S
H10 C49 0.930 . S
H11 C50 0.931 . S
H12 C52 0.930 . S
H13 C53 0.929 1_565 S
H14 C55 0.931 . S
H15 C56 0.930 . S
H16 C58 0.930 . S
H17 C59 0.932 . S
H18 C61 0.930 1_545 S
H19 C62 0.929 . S
H20 C64 0.931 . S
H21 C65 0.930 . S
H22 C67 0.929 . S
H23 C68 0.931 1_545 S
H24 C70 0.930 . S
H25 C71 0.929 . S
O26 H0 0.856 . S
O26 C72 1.300 . S
O27 C72 1.209 . S
O28 C73 1.199 . S
O29 H1 0.854 . S
O29 C73 1.297 . S
C30 C31 1.404 1_455 S
C30 C35 1.397 1_455 S
C30 C36 1.492 . S
C31 C30 1.404 1_655 S
C31 C32 1.396 . S
C31 C42 1.492 . S
C32 C31 1.396 . S
C32 C33 1.397 . S
C32 C48 1.509 . S
C33 C32 1.397 . S
C33 C34 1.412 1_545 S
C33 C54 1.484 1_545 S
C34 C33 1.412 1_565 S
C34 C35 1.389 1_565 S
C34 C60 1.490 . S
C35 C30 1.397 1_655 S
C35 C34 1.389 1_545 S
C35 C66 1.518 1_645 S
C36 C30 1.492 . S
C36 C37 1.363 . S
C36 C41 1.390 . S
C37 H2 0.930 . S
C37 C36 1.363 . S
C37 C38 1.372 . S
C38 H3 0.930 . S
C38 C37 1.372 . S
C38 C39 1.383 . S
C39 C38 1.383 . S
C39 C40 1.395 . S
C40 H4 0.930 1_545 S
C40 C39 1.395 . S
C40 C41 1.362 . S
C41 H5 0.930 1_545 S
C41 C36 1.390 . S
C41 C40 1.362 . S
C42 C31 1.492 . S
C42 C43 1.377 . S
C42 C47 1.397 1_655 S
C43 H6 0.931 . S
C43 C42 1.377 . S
C43 C44 1.376 . S
C44 H7 0.930 . S
C44 C43 1.376 . S
C44 C45 1.376 1_655 S
C45 C44 1.376 1_455 S
C45 C46 1.378 . S
C45 C72 1.486 . S
C46 H8 0.930 . S
C46 C45 1.378 . S
C46 C47 1.376 . S
C47 H9 0.929 . S
C47 C42 1.397 1_455 S
C47 C46 1.376 . S
C48 C32 1.509 . S
C48 C49 1.391 . S
C48 C53 1.386 . S
C49 H10 0.930 . S
C49 C48 1.391 . S
C49 C50 1.375 . S
C50 H11 0.931 . S
C50 C49 1.375 . S
C50 C51 1.375 . S
C51 C50 1.375 . S
C51 C52 1.361 . S
C52 H12 0.930 . S
C52 C51 1.361 . S
C52 C53 1.399 . S
C53 H13 0.929 1_545 S
C53 C48 1.386 . S
C53 C52 1.399 . S
C54 C33 1.484 1_565 S
C54 C55 1.391 1_565 S
C54 C59 1.364 . S
C55 H14 0.931 . S
C55 C54 1.391 1_545 S
C55 C56 1.372 . S
C56 H15 0.930 . S
C56 C55 1.372 . S
C56 C57 1.397 1_545 S
C57 C56 1.397 1_565 S
C57 C58 1.390 . S
C57 C73 1.476 . S
C58 H16 0.930 . S
C58 C57 1.390 . S
C58 C59 1.366 . S
C59 H17 0.932 . S
C59 C54 1.364 . S
C59 C58 1.366 . S
C60 C34 1.490 . S
C60 C61 1.380 . S
C60 C65 1.386 . S
C61 H18 0.930 1_565 S
C61 C60 1.380 . S
C61 C62 1.381 . S
C62 H19 0.929 . S
C62 C61 1.381 . S
C62 C63 1.371 . S
C63 C62 1.371 . S
C63 C64 1.380 . S
C64 H20 0.931 . S
C64 C63 1.380 . S
C64 C65 1.387 . S
C65 H21 0.930 . S
C65 C60 1.386 . S
C65 C64 1.387 . S
C66 C35 1.518 1_465 S
C66 C67 1.377 1_565 S
C66 C71 1.361 . S
C67 H22 0.929 . S
C67 C66 1.377 1_545 S
C67 C68 1.386 1_545 S
C68 H23 0.931 1_565 S
C68 C67 1.386 1_565 S
C68 C69 1.363 . S
C69 C68 1.363 . S
C69 C70 1.385 . S
C70 H24 0.930 . S
C70 C69 1.385 . S
C70 C71 1.396 . S
C71 H25 0.929 . S
C71 C66 1.361 . S
C71 C70 1.396 . S
C72 O26 1.300 . S
C72 O27 1.209 . S
C72 C45 1.486 . S
C73 O28 1.199 . S
C73 O29 1.297 . S
C73 C57 1.476 . S
H74 O100 0.856 . S
H75 O103 0.854 . S
H76 C111 0.930 . S
H77 C112 0.930 . S
H78 C114 0.930 . S
H79 C115 0.930 . S
H80 C117 0.931 . S
H81 C118 0.930 . S
H82 C120 0.930 . S
H83 C121 0.929 . S
H84 C123 0.930 . S
H85 C124 0.931 . S
H86 C126 0.930 . S
H87 C127 0.929 . S
H88 C129 0.931 . S
H89 C130 0.930 . S
H90 C132 0.930 1_545 S
H91 C133 0.932 . S
H92 C135 0.930 . S
H93 C136 0.929 . S
H94 C138 0.931 . S
H95 C139 0.930 . S
H96 C141 0.929 . S
H97 C142 0.931 . S
H98 C144 0.930 . S
H99 C145 0.929 . S
O100 H74 0.856 . S
O100 C146 1.300 . S
O101 C146 1.209 . S
O102 C147 1.199 . S
O103 H75 0.854 . S
O103 C147 1.297 . S
C104 C105 1.404 . S
C104 C109 1.397 . S
C104 C110 1.492 . S
C105 C104 1.404 . S
C105 C106 1.396 . S
C105 C116 1.492 . S
C106 C105 1.396 . S
C106 C107 1.397 . S
C106 C122 1.509 . S
C107 C106 1.397 . S
C107 C108 1.412 . S
C107 C128 1.485 . S
C108 C107 1.412 . S
C108 C109 1.388 . S
C108 C134 1.490 . S
C109 C104 1.397 . S
C109 C108 1.388 . S
C109 C140 1.519 . S
C110 C104 1.492 . S
C110 C111 1.363 . S
C110 C115 1.390 . S
C111 H76 0.930 . S
C111 C110 1.363 . S
C111 C112 1.372 . S
C112 H77 0.930 . S
C112 C111 1.372 . S
C112 C113 1.383 . S
C113 C112 1.383 . S
C113 C114 1.395 . S
C114 H78 0.930 . S
C114 C113 1.395 . S
C114 C115 1.362 . S
C115 H79 0.930 . S
C115 C110 1.390 . S
C115 C114 1.362 . S
C116 C105 1.492 . S
C116 C117 1.377 . S
C116 C121 1.397 . S
C117 H80 0.931 . S
C117 C116 1.377 . S
C117 C118 1.376 . S
C118 H81 0.930 . S
C118 C117 1.376 . S
C118 C119 1.376 . S
C119 C118 1.376 . S
C119 C120 1.378 . S
C119 C146 1.486 . S
C120 H82 0.930 . S
C120 C119 1.378 . S
C120 C121 1.376 . S
C121 H83 0.929 . S
C121 C116 1.397 . S
C121 C120 1.376 . S
C122 C106 1.509 . S
C122 C123 1.391 . S
C122 C127 1.386 . S
C123 H84 0.930 . S
C123 C122 1.391 . S
C123 C124 1.375 . S
C124 H85 0.931 . S
C124 C123 1.375 . S
C124 C125 1.375 . S
C125 C124 1.375 . S
C125 C126 1.361 . S
C126 H86 0.930 . S
C126 C125 1.361 . S
C126 C127 1.399 . S
C127 H87 0.929 . S
C127 C122 1.386 . S
C127 C126 1.399 . S
C128 C107 1.485 . S
C128 C129 1.394 . S
C128 C133 1.360 . S
C129 H88 0.931 . S
C129 C128 1.394 . S
C129 C130 1.372 . S
C130 H89 0.930 . S
C130 C129 1.372 . S
C130 C131 1.397 1_565 S
C131 C130 1.397 1_545 S
C131 C132 1.390 1_545 S
C131 C147 1.476 . S
C132 H90 0.930 1_565 S
C132 C131 1.390 1_565 S
C132 C133 1.366 . S
C133 H91 0.932 . S
C133 C128 1.360 . S
C133 C132 1.366 . S
C134 C108 1.490 . S
C134 C135 1.380 . S
C134 C139 1.386 . S
C135 H92 0.930 . S
C135 C134 1.380 . S
C135 C136 1.381 . S
C136 H93 0.929 . S
C136 C135 1.381 . S
C136 C137 1.371 . S
C137 C136 1.371 . S
C137 C138 1.380 . S
C138 H94 0.931 . S
C138 C137 1.380 . S
C138 C139 1.387 . S
C139 H95 0.930 . S
C139 C134 1.386 . S
C139 C138 1.387 . S
C140 C109 1.519 . S
C140 C141 1.377 . S
C140 C145 1.361 . S
C141 H96 0.929 . S
C141 C140 1.377 . S
C141 C142 1.386 . S
C142 H97 0.931 . S
C142 C141 1.386 . S
C142 C143 1.363 . S
C143 C142 1.363 . S
C143 C144 1.385 . S
C144 H98 0.930 . S
C144 C143 1.385 . S
C144 C145 1.396 . S
C145 H99 0.929 . S
C145 C140 1.361 . S
C145 C144 1.396 . S
C146 O100 1.300 . S
C146 O101 1.209 . S
C146 C119 1.486 . S
C147 O102 1.199 . S
C147 O103 1.297 . S
C147 C131 1.476 . S
H148 O174 0.856 . S
H149 O177 0.854 . S
H150 C185 0.930 . S
H151 C186 0.930 . S
H152 C188 0.930 . S
H153 C189 0.930 . S
H154 C191 0.931 . S
H155 C192 0.930 . S
H156 C194 0.930 . S
H157 C195 0.929 . S
H158 C197 0.930 . S
H159 C198 0.931 . S
H160 C200 0.930 . S
H161 C201 0.929 . S
H162 C203 0.931 . S
H163 C204 0.927 . S
H164 C206 0.930 . S
H165 C207 0.932 . S
H166 C209 0.930 . S
H167 C210 0.929 . S
H168 C212 0.931 . S
H169 C213 0.930 . S
H170 C215 0.929 . S
H171 C216 0.931 . S
H172 C218 0.930 . S
H173 C219 0.929 . S
O174 H148 0.856 . S
O174 C220 1.300 . S
O175 C220 1.209 . S
O176 C221 1.199 . S
O177 H149 0.854 . S
O177 C221 1.297 . S
C178 C179 1.404 . S
C178 C183 1.397 . S
C178 C184 1.492 . S
C179 C178 1.404 . S
C179 C180 1.396 . S
C179 C190 1.492 . S
C180 C179 1.396 . S
C180 C181 1.397 . S
C180 C196 1.509 . S
C181 C180 1.397 . S
C181 C182 1.412 . S
C181 C202 1.485 . S
C182 C181 1.412 . S
C182 C183 1.388 . S
C182 C208 1.490 . S
C183 C178 1.397 . S
C183 C182 1.388 . S
C183 C214 1.519 . S
C184 C178 1.492 . S
C184 C185 1.363 1_545 S
C184 C189 1.390 . S
C185 H150 0.930 . S
C185 C184 1.363 1_565 S
C185 C186 1.372 . S
C186 H151 0.930 . S
C186 C185 1.372 . S
C186 C187 1.383 1_565 S
C187 C186 1.383 1_545 S
C187 C188 1.395 . S
C188 H152 0.930 . S
C188 C187 1.395 . S
C188 C189 1.362 . S
C189 H153 0.930 . S
C189 C184 1.390 . S
C189 C188 1.362 . S
C190 C179 1.492 . S
C190 C191 1.377 1_545 S
C190 C195 1.397 . S
C191 H154 0.931 . S
C191 C190 1.377 1_565 S
C191 C192 1.376 . S
C192 H155 0.930 . S
C192 C191 1.376 . S
C192 C193 1.376 . S
C193 C192 1.376 . S
C193 C194 1.378 1_565 S
C193 C220 1.486 . S
C194 H156 0.930 . S
C194 C193 1.378 1_545 S
C194 C195 1.376 . S
C195 H157 0.929 . S
C195 C190 1.397 . S
C195 C194 1.376 . S
C196 C180 1.509 . S
C196 C197 1.391 1_545 S
C196 C201 1.386 . S
C197 H158 0.930 . S
C197 C196 1.391 1_565 S
C197 C198 1.375 . S
C198 H159 0.931 . S
C198 C197 1.375 . S
C198 C199 1.375 . S
C199 C198 1.375 . S
C199 C200 1.361 1_565 S
C200 H160 0.930 . S
C200 C199 1.361 1_545 S
C200 C201 1.399 . S
C201 H161 0.929 . S
C201 C196 1.386 . S
C201 C200 1.399 . S
C202 C181 1.485 . S
C202 C203 1.394 . S
C202 C207 1.360 . S
C203 H162 0.931 . S
C203 C202 1.394 . S
C203 C204 1.372 . S
C204 H163 0.927 . S
C204 C203 1.372 . S
C204 C205 1.397 . S
C205 C204 1.397 . S
C205 C206 1.390 . S
C205 C221 1.476 1_655 S
C206 H164 0.930 . S
C206 C205 1.390 . S
C206 C207 1.366 . S
C207 H165 0.932 . S
C207 C202 1.360 . S
C207 C206 1.366 . S
C208 C182 1.490 . S
C208 C209 1.380 1_554 S
C208 C213 1.386 . S
C209 H166 0.930 . S
C209 C208 1.380 1_556 S
C209 C210 1.381 . S
C210 H167 0.929 . S
C210 C209 1.381 . S
C210 C211 1.371 . S
C211 C210 1.371 . S
C211 C212 1.380 . S
C212 H168 0.931 . S
C212 C211 1.380 . S
C212 C213 1.387 1_556 S
C213 H169 0.930 . S
C213 C208 1.386 . S
C213 C212 1.387 1_554 S
C214 C183 1.519 . S
C214 C215 1.377 . S
C214 C219 1.361 . S
C215 H170 0.929 . S
C215 C214 1.377 . S
C215 C216 1.386 1_554 S
C216 H171 0.931 . S
C216 C215 1.386 1_556 S
C216 C217 1.363 . S
C217 C216 1.363 . S
C217 C218 1.385 1_556 S
C218 H172 0.930 . S
C218 C217 1.385 1_554 S
C218 C219 1.396 . S
C219 H173 0.929 . S
C219 C214 1.361 . S
C219 C218 1.396 . S
C220 O174 1.300 . S
C220 O175 1.209 . S
C220 C193 1.486 . S
C221 O176 1.199 . S
C221 O177 1.297 . S
C221 C205 1.476 1_455 S
H222 O248 0.856 . S
H223 O251 0.854 . S
H224 C259 0.930 . S
H225 C260 0.930 . S
H226 C262 0.930 . S
H227 C263 0.930 . S
H228 C265 0.931 . S
H229 C266 0.930 . S
H230 C268 0.930 . S
H231 C269 0.929 . S
H232 C271 0.930 . S
H233 C272 0.931 . S
H234 C274 0.930 . S
H235 C275 0.929 . S
H236 C277 0.931 . S
H237 C278 0.930 . S
H238 C280 0.930 . S
H239 C281 0.932 . S
H240 C283 0.930 . S
H241 C284 0.929 . S
H242 C286 0.931 . S
H243 C287 0.930 . S
H244 C289 0.929 . S
H245 C290 0.931 . S
H246 C292 0.930 . S
H247 C293 0.929 . S
O248 H222 0.856 . S
O248 C294 1.300 . S
O249 C294 1.209 . S
O250 C295 1.199 . S
O251 H223 0.854 . S
O251 C295 1.297 . S
C252 C253 1.404 . S
C252 C257 1.397 . S
C252 C258 1.492 . S
C253 C252 1.404 . S
C253 C254 1.396 . S
C253 C264 1.492 . S
C254 C253 1.396 . S
C254 C255 1.397 . S
C254 C270 1.509 . S
C255 C254 1.397 . S
C255 C256 1.412 . S
C255 C276 1.485 . S
C256 C255 1.412 . S
C256 C257 1.388 . S
C256 C282 1.490 . S
C257 C252 1.397 . S
C257 C256 1.388 . S
C257 C288 1.519 . S
C258 C252 1.492 . S
C258 C259 1.363 . S
C258 C263 1.390 . S
C259 H224 0.930 . S
C259 C258 1.363 . S
C259 C260 1.372 . S
C260 H225 0.930 . S
C260 C259 1.372 . S
C260 C261 1.383 . S
C261 C260 1.383 . S
C261 C262 1.395 . S
C262 H226 0.930 . S
C262 C261 1.395 . S
C262 C263 1.362 . S
C263 H227 0.930 . S
C263 C258 1.390 . S
C263 C262 1.362 . S
C264 C253 1.492 . S
C264 C265 1.377 . S
C264 C269 1.397 . S
C265 H228 0.931 . S
C265 C264 1.377 . S
C265 C266 1.376 . S
C266 H229 0.930 . S
C266 C265 1.376 . S
C266 C267 1.376 . S
C267 C266 1.376 . S
C267 C268 1.378 . S
C267 C294 1.486 . S
C268 H230 0.930 . S
C268 C267 1.378 . S
C268 C269 1.376 . S
C269 H231 0.929 . S
C269 C264 1.397 . S
C269 C268 1.376 . S
C270 C254 1.509 . S
C270 C271 1.391 . S
C270 C275 1.386 . S
C271 H232 0.930 . S
C271 C270 1.391 . S
C271 C272 1.375 . S
C272 H233 0.931 . S
C272 C271 1.375 . S
C272 C273 1.375 . S
C273 C272 1.375 . S
C273 C274 1.361 . S
C274 H234 0.930 . S
C274 C273 1.361 . S
C274 C275 1.399 . S
C275 H235 0.929 . S
C275 C270 1.386 . S
C275 C274 1.399 . S
C276 C255 1.485 . S
C276 C277 1.394 . S
C276 C281 1.360 . S
C277 H236 0.931 . S
C277 C276 1.394 . S
C277 C278 1.372 . S
C278 H237 0.930 . S
C278 C277 1.372 . S
C278 C279 1.397 . S
C279 C278 1.397 . S
C279 C280 1.390 . S
C279 C295 1.476 . S
C280 H238 0.930 . S
C280 C279 1.390 . S
C280 C281 1.366 . S
C281 H239 0.932 . S
C281 C276 1.360 . S
C281 C280 1.366 . S
C282 C256 1.490 . S
C282 C283 1.380 . S
C282 C287 1.386 . S
C283 H240 0.930 . S
C283 C282 1.380 . S
C283 C284 1.381 . S
C284 H241 0.929 . S
C284 C283 1.381 . S
C284 C285 1.371 . S
C285 C284 1.371 . S
C285 C286 1.380 . S
C286 H242 0.931 . S
C286 C285 1.380 . S
C286 C287 1.387 . S
C287 H243 0.930 . S
C287 C282 1.386 . S
C287 C286 1.387 . S
C288 C257 1.519 . S
C288 C289 1.377 . S
C288 C293 1.361 . S
C289 H244 0.929 . S
C289 C288 1.377 . S
C289 C290 1.386 . S
C290 H245 0.931 . S
C290 C289 1.386 . S
C290 C291 1.363 . S
C291 C290 1.363 . S
C291 C292 1.385 . S
C292 H246 0.930 . S
C292 C291 1.385 . S
C292 C293 1.396 . S
C293 H247 0.929 . S
C293 C288 1.361 . S
C293 C292 1.396 . S
C294 O248 1.300 . S
C294 O249 1.209 . S
C294 C267 1.486 . S
C295 O250 1.199 . S
C295 O251 1.297 . S
C295 C279 1.476 . S
H296 O322 0.856 1_455 S
H297 O325 0.854 . S
H298 C333 0.930 . S
H299 C334 0.930 . S
H300 C336 0.930 1_565 S
H301 C337 0.930 . S
H302 C339 0.931 . S
H303 C340 0.930 . S
H304 C342 0.930 1_455 S
H305 C343 0.929 . S
H306 C345 0.930 . S
H307 C346 0.931 . S
H308 C348 0.930 1_455 S
H309 C349 0.929 . S
H310 C351 0.931 . S
H311 C352 0.930 . S
H312 C354 0.930 . S
H313 C355 0.932 . S
H314 C357 0.930 . S
H315 C358 0.929 . S
H316 C360 0.931 . S
H317 C361 0.930 . S
H318 C363 0.929 . S
H319 C364 0.931 . S
H320 C366 0.930 . S
H321 C367 0.929 . S
O322 H296 0.856 1_655 S
O322 C368 1.300 1_655 S
O323 C368 1.209 . S
O324 C369 1.199 . S
O325 H297 0.854 . S
O325 C369 1.297 . S
C326 C327 1.404 . S
C326 C331 1.397 . S
C326 C332 1.492 . S
C327 C326 1.404 . S
C327 C328 1.396 . S
C327 C338 1.492 . S
C328 C327 1.396 . S
C328 C329 1.397 . S
C328 C344 1.509 . S
C329 C328 1.397 . S
C329 C330 1.412 . S
C329 C350 1.485 . S
C330 C329 1.412 . S
C330 C331 1.388 . S
C330 C356 1.490 . S
C331 C326 1.397 . S
C331 C330 1.388 . S
C331 C362 1.519 . S
C332 C326 1.492 . S
C332 C333 1.363 . S
C332 C337 1.390 . S
C333 H298 0.930 . S
C333 C332 1.363 . S
C333 C334 1.372 . S
C334 H299 0.930 . S
C334 C333 1.372 . S
C334 C335 1.383 1_545 S
C335 C334 1.383 1_565 S
C335 C336 1.395 1_565 S
C336 H300 0.930 1_545 S
C336 C335 1.395 1_545 S
C336 C337 1.362 . S
C337 H301 0.930 . S
C337 C332 1.390 . S
C337 C336 1.362 . S
C338 C327 1.492 . S
C338 C339 1.377 . S
C338 C343 1.397 . S
C339 H302 0.931 . S
C339 C338 1.377 . S
C339 C340 1.376 . S
C340 H303 0.930 . S
C340 C339 1.376 . S
C340 C341 1.376 . S
C341 C340 1.376 . S
C341 C342 1.378 . S
C341 C368 1.486 1_655 S
C342 H304 0.930 1_655 S
C342 C341 1.378 . S
C342 C343 1.376 . S
C343 H305 0.929 . S
C343 C338 1.397 . S
C343 C342 1.376 . S
C344 C328 1.509 . S
C344 C345 1.391 . S
C344 C349 1.386 . S
C345 H306 0.930 . S
C345 C344 1.391 . S
C345 C346 1.375 . S
C346 H307 0.931 . S
C346 C345 1.375 . S
C346 C347 1.375 . S
C347 C346 1.375 . S
C347 C348 1.361 . S
C348 H308 0.930 1_655 S
C348 C347 1.361 . S
C348 C349 1.399 . S
C349 H309 0.929 . S
C349 C344 1.386 . S
C349 C348 1.399 . S
C350 C329 1.485 . S
C350 C351 1.394 . S
C350 C355 1.360 . S
C351 H310 0.931 . S
C351 C350 1.394 . S
C351 C352 1.372 . S
C352 H311 0.930 . S
C352 C351 1.372 . S
C352 C353 1.397 . S
C353 C352 1.397 . S
C353 C354 1.390 . S
C353 C369 1.476 . S
C354 H312 0.930 . S
C354 C353 1.390 . S
C354 C355 1.366 . S
C355 H313 0.932 . S
C355 C350 1.360 . S
C355 C354 1.366 . S
C356 C330 1.490 . S
C356 C357 1.380 . S
C356 C361 1.386 . S
C357 H314 0.930 . S
C357 C356 1.380 . S
C357 C358 1.381 . S
C358 H315 0.929 . S
C358 C357 1.381 . S
C358 C359 1.371 . S
C359 C358 1.371 . S
C359 C360 1.380 . S
C360 H316 0.931 . S
C360 C359 1.380 . S
C360 C361 1.387 . S
C361 H317 0.930 . S
C361 C356 1.386 . S
C361 C360 1.387 . S
C362 C331 1.519 . S
C362 C363 1.377 . S
C362 C367 1.361 . S
C363 H318 0.929 . S
C363 C362 1.377 . S
C363 C364 1.386 . S
C364 H319 0.931 . S
C364 C363 1.386 . S
C364 C365 1.363 . S
C365 C364 1.363 . S
C365 C366 1.385 . S
C366 H320 0.930 . S
C366 C365 1.385 . S
C366 C367 1.396 . S
C367 H321 0.929 . S
C367 C362 1.361 . S
C367 C366 1.396 . S
C368 O322 1.300 1_455 S
C368 O323 1.209 . S
C368 C341 1.486 1_455 S
C369 O324 1.199 . S
C369 O325 1.297 . S
C369 C353 1.476 . S
H370 O396 0.856 . S
H371 O399 0.854 . S
H372 C407 0.930 . S
H373 C408 0.930 . S
H374 C410 0.930 . S
H375 C411 0.930 . S
H376 C413 0.931 . S
H377 C414 0.930 . S
H378 C416 0.930 . S
H379 C417 0.929 . S
H380 C419 0.930 . S
H381 C420 0.931 . S
H382 C422 0.930 . S
H383 C423 0.929 . S
H384 C425 0.931 . S
H385 C426 0.930 . S
H386 C428 0.930 . S
H387 C429 0.932 . S
H388 C431 0.930 . S
H389 C432 0.929 1_455 S
H390 C434 0.931 . S
H391 C435 0.930 . S
H392 C437 0.929 . S
H393 C438 0.931 . S
H394 C440 0.931 . S
H395 C441 0.929 . S
O396 H370 0.856 . S
O396 C442 1.300 . S
O397 C442 1.209 . S
O398 C443 1.199 . S
O399 H371 0.854 . S
O399 C443 1.297 . S
C400 C401 1.404 . S
C400 C405 1.397 . S
C400 C406 1.492 . S
C401 C400 1.404 . S
C401 C402 1.396 . S
C401 C412 1.492 . S
C402 C401 1.396 . S
C402 C403 1.397 . S
C402 C418 1.509 . S
C403 C402 1.397 . S
C403 C404 1.412 . S
C403 C424 1.485 . S
C404 C403 1.412 . S
C404 C405 1.388 . S
C404 C430 1.490 . S
C405 C400 1.397 . S
C405 C404 1.388 . S
C405 C436 1.519 . S
C406 C400 1.492 . S
C406 C407 1.363 . S
C406 C411 1.390 1_565 S
C407 H372 0.930 . S
C407 C406 1.363 . S
C407 C408 1.372 1_565 S
C408 H373 0.930 . S
C408 C407 1.372 1_545 S
C408 C409 1.383 . S
C409 C408 1.383 . S
C409 C410 1.395 . S
C410 H374 0.930 . S
C410 C409 1.395 . S
C410 C411 1.362 . S
C411 H375 0.930 . S
C411 C406 1.390 1_545 S
C411 C410 1.362 . S
C412 C401 1.492 . S
C412 C413 1.377 . S
C412 C417 1.397 . S
C413 H376 0.931 . S
C413 C412 1.377 . S
C413 C414 1.376 . S
C414 H377 0.930 . S
C414 C413 1.376 . S
C414 C415 1.376 . S
C415 C414 1.376 . S
C415 C416 1.378 . S
C415 C442 1.486 . S
C416 H378 0.930 . S
C416 C415 1.378 . S
C416 C417 1.376 . S
C417 H379 0.929 . S
C417 C412 1.397 . S
C417 C416 1.376 . S
C418 C402 1.509 . S
C418 C419 1.391 . S
C418 C423 1.386 . S
C419 H380 0.930 . S
C419 C418 1.391 . S
C419 C420 1.375 . S
C420 H381 0.931 . S
C420 C419 1.375 . S
C420 C421 1.375 . S
C421 C420 1.375 . S
C421 C422 1.361 . S
C422 H382 0.930 . S
C422 C421 1.361 . S
C422 C423 1.399 . S
C423 H383 0.929 . S
C423 C418 1.386 . S
C423 C422 1.399 . S
C424 C403 1.485 . S
C424 C425 1.394 . S
C424 C429 1.360 . S
C425 H384 0.931 . S
C425 C424 1.394 . S
C425 C426 1.372 . S
C426 H385 0.930 . S
C426 C425 1.372 . S
C426 C427 1.397 . S
C427 C426 1.397 . S
C427 C428 1.390 . S
C427 C443 1.476 . S
C428 H386 0.930 . S
C428 C427 1.390 . S
C428 C429 1.366 . S
C429 H387 0.932 . S
C429 C424 1.360 . S
C429 C428 1.366 . S
C430 C404 1.490 . S
C430 C431 1.380 . S
C430 C435 1.386 . S
C431 H388 0.930 . S
C431 C430 1.380 . S
C431 C432 1.381 . S
C432 H389 0.929 1_655 S
C432 C431 1.381 . S
C432 C433 1.371 . S
C433 C432 1.371 . S
C433 C434 1.380 . S
C434 H390 0.931 . S
C434 C433 1.380 . S
C434 C435 1.387 . S
C435 H391 0.930 . S
C435 C430 1.386 . S
C435 C434 1.387 . S
C436 C405 1.519 . S
C436 C437 1.377 . S
C436 C441 1.361 . S
C437 H392 0.929 . S
C437 C436 1.377 . S
C437 C438 1.386 1_565 S
C438 H393 0.931 . S
C438 C437 1.386 1_545 S
C438 C439 1.363 . S
C439 C438 1.363 . S
C439 C440 1.392 . S
C440 H394 0.931 . S
C440 C439 1.392 . S
C440 C441 1.388 1_545 S
C441 H395 0.929 . S
C441 C436 1.361 . S
C441 C440 1.388 1_565 S
C442 O396 1.300 . S
C442 O397 1.209 . S
C442 C415 1.486 . S
C443 O398 1.199 . S
C443 O399 1.297 . S
C443 C427 1.476 . S
H444 O470 0.856 . S
H445 O473 0.854 . S
H446 C481 0.930 . S
H447 C482 0.930 . S
H448 C484 0.930 . S
H449 C485 0.930 . S
H450 C487 0.931 . S
H451 C488 0.930 . S
H452 C490 0.930 . S
H453 C491 0.929 . S
H454 C493 0.930 . S
H455 C494 0.931 . S
H456 C496 0.930 . S
H457 C497 0.929 1_554 S
H458 C499 0.931 . S
H459 C500 0.930 . S
H460 C502 0.930 . S
H461 C503 0.932 . S
H462 C505 0.930 . S
H463 C506 0.929 . S
H464 C508 0.931 . S
H465 C509 0.930 . S
H466 C511 0.929 . S
H467 C512 0.931 . S
H468 C514 0.930 . S
H469 C515 0.929 . S
O470 H444 0.856 . S
O470 C516 1.300 . S
O471 C516 1.209 . S
O472 C517 1.199 . S
O473 H445 0.854 . S
O473 C517 1.297 . S
C474 C475 1.404 . S
C474 C479 1.397 . S
C474 C480 1.492 . S
C475 C474 1.404 . S
C475 C476 1.396 . S
C475 C486 1.492 1_554 S
C476 C475 1.396 . S
C476 C477 1.397 . S
C476 C492 1.509 1_554 S
C477 C476 1.397 . S
C477 C478 1.412 . S
C477 C498 1.485 . S
C478 C477 1.412 . S
C478 C479 1.388 . S
C478 C504 1.490 . S
C479 C474 1.397 . S
C479 C478 1.388 . S
C479 C510 1.519 . S
C480 C474 1.492 . S
C480 C481 1.363 1_554 S
C480 C485 1.390 . S
C481 H446 0.930 . S
C481 C480 1.363 1_556 S
C481 C482 1.372 . S
C482 H447 0.930 . S
C482 C481 1.372 . S
C482 C483 1.383 . S
C483 C482 1.383 . S
C483 C484 1.395 1_556 S
C484 H448 0.930 . S
C484 C483 1.395 1_554 S
C484 C485 1.362 . S
C485 H449 0.930 . S
C485 C480 1.390 . S
C485 C484 1.362 . S
C486 C475 1.492 1_556 S
C486 C487 1.377 . S
C486 C491 1.397 . S
C487 H450 0.931 . S
C487 C486 1.377 . S
C487 C488 1.376 . S
C488 H451 0.930 . S
C488 C487 1.376 . S
C488 C489 1.376 . S
C489 C488 1.376 . S
C489 C490 1.378 . S
C489 C516 1.486 . S
C490 H452 0.930 . S
C490 C489 1.378 . S
C490 C491 1.376 . S
C491 H453 0.929 . S
C491 C486 1.397 . S
C491 C490 1.376 . S
C492 C476 1.509 1_556 S
C492 C493 1.391 . S
C492 C497 1.386 . S
C493 H454 0.930 . S
C493 C492 1.391 . S
C493 C494 1.375 . S
C494 H455 0.931 . S
C494 C493 1.375 . S
C494 C495 1.375 . S
C495 C494 1.375 . S
C495 C496 1.361 . S
C496 H456 0.930 . S
C496 C495 1.361 . S
C496 C497 1.399 . S
C497 H457 0.929 1_556 S
C497 C492 1.386 . S
C497 C496 1.399 . S
C498 C477 1.485 . S
C498 C499 1.394 . S
C498 C503 1.360 . S
C499 H458 0.931 . S
C499 C498 1.394 . S
C499 C500 1.372 . S
C500 H459 0.930 . S
C500 C499 1.372 . S
C500 C501 1.397 . S
C501 C500 1.397 . S
C501 C502 1.390 . S
C501 C517 1.476 . S
C502 H460 0.930 . S
C502 C501 1.390 . S
C502 C503 1.366 . S
C503 H461 0.932 . S
C503 C498 1.360 . S
C503 C502 1.366 . S
C504 C478 1.490 . S
C504 C505 1.380 . S
C504 C509 1.386 . S
C505 H462 0.930 . S
C505 C504 1.380 . S
C505 C506 1.381 . S
C506 H463 0.929 . S
C506 C505 1.381 . S
C506 C507 1.371 . S
C507 C506 1.371 . S
C507 C508 1.380 . S
C508 H464 0.931 . S
C508 C507 1.380 . S
C508 C509 1.387 . S
C509 H465 0.930 . S
C509 C504 1.386 . S
C509 C508 1.387 . S
C510 C479 1.519 . S
C510 C511 1.377 . S
C510 C515 1.361 . S
C511 H466 0.929 . S
C511 C510 1.377 . S
C511 C512 1.386 . S
C512 H467 0.931 . S
C512 C511 1.386 . S
C512 C513 1.363 . S
C513 C512 1.363 . S
C513 C514 1.385 . S
C514 H468 0.930 . S
C514 C513 1.385 . S
C514 C515 1.396 . S
C515 H469 0.929 . S
C515 C510 1.361 . S
C515 C514 1.396 . S
C516 O470 1.300 . S
C516 O471 1.209 . S
C516 C489 1.486 . S
C517 O472 1.199 . S
C517 O473 1.297 . S
C517 C501 1.476 . S
H518 O544 0.856 . S
H519 O547 0.854 . S
H520 C555 0.930 . S
H521 C556 0.930 . S
H522 C558 0.930 . S
H523 C559 0.930 . S
H524 C561 0.931 . S
H525 C562 0.930 . S
H526 C564 0.930 . S
H527 C565 0.929 . S
H528 C567 0.930 . S
H529 C568 0.931 . S
H530 C570 0.930 . S
H531 C571 0.929 . S
H532 C573 0.931 . S
H533 C574 0.930 . S
H534 C576 0.930 . S
H535 C577 0.932 . S
H536 C579 0.930 . S
H537 C580 0.929 . S
H538 C582 0.931 . S
H539 C583 0.930 . S
H540 C585 0.929 . S
H541 C586 0.931 1_655 S
H542 C588 0.930 . S
H543 C589 0.929 . S
O544 H518 0.856 . S
O544 C590 1.300 . S
O545 C590 1.209 . S
O546 C591 1.199 . S
O547 H519 0.854 . S
O547 C591 1.297 . S
C548 C549 1.404 . S
C548 C553 1.397 . S
C548 C554 1.492 . S
C549 C548 1.404 . S
C549 C550 1.396 . S
C549 C560 1.492 . S
C550 C549 1.396 . S
C550 C551 1.397 . S
C550 C566 1.509 . S
C551 C550 1.397 . S
C551 C552 1.412 . S
C551 C572 1.485 . S
C552 C551 1.412 . S
C552 C553 1.388 . S
C552 C578 1.490 . S
C553 C548 1.397 . S
C553 C552 1.388 . S
C553 C584 1.519 . S
C554 C548 1.492 . S
C554 C555 1.363 . S
C554 C559 1.390 . S
C555 H520 0.930 . S
C555 C554 1.363 . S
C555 C556 1.372 1_455 S
C556 H521 0.930 . S
C556 C555 1.372 1_655 S
C556 C557 1.383 . S
C557 C556 1.383 . S
C557 C558 1.395 . S
C558 H522 0.930 . S
C558 C557 1.395 . S
C558 C559 1.362 1_655 S
C559 H523 0.930 . S
C559 C554 1.390 . S
C559 C558 1.362 1_455 S
C560 C549 1.492 . S
C560 C561 1.377 . S
C560 C565 1.397 . S
C561 H524 0.931 . S
C561 C560 1.377 . S
C561 C562 1.376 . S
C562 H525 0.930 . S
C562 C561 1.376 . S
C562 C563 1.376 . S
C563 C562 1.376 . S
C563 C564 1.378 . S
C563 C590 1.486 . S
C564 H526 0.930 . S
C564 C563 1.378 . S
C564 C565 1.376 . S
C565 H527 0.929 . S
C565 C560 1.397 . S
C565 C564 1.376 . S
C566 C550 1.509 . S
C566 C567 1.391 . S
C566 C571 1.386 . S
C567 H528 0.930 . S
C567 C566 1.391 . S
C567 C568 1.375 . S
C568 H529 0.931 . S
C568 C567 1.375 . S
C568 C569 1.375 . S
C569 C568 1.375 . S
C569 C570 1.361 . S
C570 H530 0.930 . S
C570 C569 1.361 . S
C570 C571 1.399 . S
C571 H531 0.929 . S
C571 C566 1.386 . S
C571 C570 1.399 . S
C572 C551 1.485 . S
C572 C573 1.394 . S
C572 C577 1.360 . S
C573 H532 0.931 . S
C573 C572 1.394 . S
C573 C574 1.372 . S
C574 H533 0.930 . S
C574 C573 1.372 . S
C574 C575 1.397 . S
C575 C574 1.397 . S
C575 C576 1.390 . S
C575 C591 1.476 . S
C576 H534 0.930 . S
C576 C575 1.390 . S
C576 C577 1.366 . S
C577 H535 0.932 . S
C577 C572 1.360 . S
C577 C576 1.366 . S
C578 C552 1.490 . S
C578 C579 1.380 . S
C578 C583 1.386 . S
C579 H536 0.930 . S
C579 C578 1.380 . S
C579 C580 1.381 . S
C580 H537 0.929 . S
C580 C579 1.381 . S
C580 C581 1.371 . S
C581 C580 1.371 . S
C581 C582 1.380 . S
C582 H538 0.931 . S
C582 C581 1.380 . S
C582 C583 1.387 . S
C583 H539 0.930 . S
C583 C578 1.386 . S
C583 C582 1.387 . S
C584 C553 1.519 . S
C584 C585 1.377 . S
C584 C589 1.361 . S
C585 H540 0.929 . S
C585 C584 1.377 . S
C585 C586 1.386 . S
C586 H541 0.931 1_455 S
C586 C585 1.386 . S
C586 C587 1.363 1_455 S
C587 C586 1.363 1_655 S
C587 C588 1.385 1_655 S
C588 H542 0.930 . S
C588 C587 1.385 1_455 S
C588 C589 1.396 . S
C589 H543 0.929 . S
C589 C584 1.361 . S
C589 C588 1.396 . S
C590 O544 1.300 . S
C590 O545 1.209 . S
C590 C563 1.486 . S
C591 O546 1.199 . S
C591 O547 1.297 . S
C591 C575 1.476 . S
C592 O619 1.312 . S
C592 O620 1.208 . S
C593 O614 1.331 . S
C593 O617 1.244 . S
C594 O616 1.264 . S
C594 O618 1.273 . S
Mg595 O597 1.936 . S
Mg595 O604 2.081 . S
Mg595 O606 2.023 . S
Mg595 O610 2.031 . S
Mg595 O619 2.291 . S
Mg596 O597 1.963 . S
Mg596 O607 1.942 . S
Mg596 O608 1.955 . S
Mg596 O615 1.986 . S
O597 Mg595 1.936 . S
O597 Mg596 1.963 . S
O597 Mg598 1.915 . S
Mg598 O597 1.915 . S
Mg598 O599 1.915 1_455 S
Mg598 O603 2.013 . S
Mg598 O609 2.114 . S
Mg598 O613 2.013 1_455 S
Mg598 O619 2.114 . S
O599 Mg598 1.915 1_655 S
O599 Mg600 1.936 1_655 S
O599 Mg601 1.963 . S
Mg600 O599 1.936 1_455 S
Mg600 O609 2.291 . S
Mg600 O614 2.081 1_455 S
Mg600 O616 2.023 1_455 S
Mg600 O620 2.031 . S
Mg601 O599 1.963 . S
Mg601 O605 1.986 . S
Mg601 O617 1.942 . S
Mg601 O618 1.955 . S
C602 O613 1.191 . S
C602 O615 1.307 1_655 S
O603 Mg598 2.013 . S
O603 C622 1.191 1_455 S
O604 Mg595 2.081 . S
O604 C612 1.331 . S
O605 Mg601 1.986 . S
O605 C622 1.307 . S
O606 Mg595 2.023 . S
O606 C621 1.264 . S
O607 Mg596 1.942 . S
O607 C612 1.244 . S
O608 Mg596 1.955 . S
O608 C621 1.273 . S
O609 Mg598 2.114 . S
O609 Mg600 2.291 . S
O609 C611 1.312 . S
O610 Mg595 2.031 . S
O610 C611 1.208 . S
C611 O609 1.312 . S
C611 O610 1.208 . S
C612 O604 1.331 . S
C612 O607 1.244 . S
O613 Mg598 2.013 1_655 S
O613 C602 1.191 . S
O614 C593 1.331 . S
O614 Mg600 2.081 1_655 S
O615 Mg596 1.986 . S
O615 C602 1.307 1_455 S
O616 C594 1.264 . S
O616 Mg600 2.023 1_655 S
O617 C593 1.244 . S
O617 Mg601 1.942 . S
O618 C594 1.273 . S
O618 Mg601 1.955 . S
O619 C592 1.312 . S
O619 Mg595 2.291 . S
O619 Mg598 2.114 . S
O620 C592 1.208 . S
O620 Mg600 2.031 . S
C621 O606 1.264 . S
C621 O608 1.273 . S
C622 O603 1.191 1_655 S
C622 O605 1.307 . S
C623 O650 1.312 . S
C623 O651 1.208 . S
C624 O645 1.331 . S
C624 O648 1.244 . S
C625 O647 1.264 . S
C625 O649 1.273 . S
Mg626 O628 1.936 . S
Mg626 O635 2.081 . S
Mg626 O637 2.023 . S
Mg626 O641 2.031 . S
Mg626 O650 2.291 . S
Mg627 O628 1.963 . S
Mg627 O638 1.942 . S
Mg627 O639 1.955 . S
Mg627 O646 1.986 . S
O628 Mg626 1.936 . S
O628 Mg627 1.963 . S
O628 Mg629 1.915 . S
Mg629 O628 1.915 . S
Mg629 O630 1.915 . S
Mg629 O634 2.013 . S
Mg629 O640 2.114 . S
Mg629 O644 2.013 . S
Mg629 O650 2.114 . S
O630 Mg629 1.915 . S
O630 Mg631 1.936 . S
O630 Mg632 1.963 . S
Mg631 O630 1.936 . S
Mg631 O640 2.291 . S
Mg631 O645 2.081 . S
Mg631 O647 2.023 . S
Mg631 O651 2.031 . S
Mg632 O630 1.963 . S
Mg632 O636 1.986 . S
Mg632 O648 1.942 . S
Mg632 O649 1.955 . S
C633 O644 1.191 . S
C633 O646 1.307 . S
O634 Mg629 2.013 . S
O634 C653 1.191 . S
O635 Mg626 2.081 . S
O635 C643 1.331 . S
O636 Mg632 1.986 . S
O636 C653 1.307 . S
O637 Mg626 2.023 . S
O637 C652 1.264 . S
O638 Mg627 1.942 . S
O638 C643 1.244 . S
O639 Mg627 1.955 . S
O639 C652 1.273 . S
O640 Mg629 2.114 . S
O640 Mg631 2.291 . S
O640 C642 1.312 . S
O641 Mg626 2.031 . S
O641 C642 1.208 . S
C642 O640 1.312 . S
C642 O641 1.208 . S
C643 O635 1.331 . S
C643 O638 1.244 . S
O644 Mg629 2.013 . S
O644 C633 1.191 . S
O645 C624 1.331 . S
O645 Mg631 2.081 . S
O646 Mg627 1.986 . S
O646 C633 1.307 . S
O647 C625 1.264 . S
O647 Mg631 2.023 . S
O648 C624 1.244 . S
O648 Mg632 1.942 . S
O649 C625 1.273 . S
O649 Mg632 1.955 . S
O650 C623 1.312 . S
O650 Mg626 2.291 . S
O650 Mg629 2.114 . S
O651 C623 1.208 . S
O651 Mg631 2.031 . S
C652 O637 1.264 . S
C652 O639 1.273 . S
C653 O634 1.191 . S
C653 O636 1.307 . S
C654 O681 1.312 . S
C654 O682 1.208 . S
C655 O676 1.331 . S
C655 O679 1.244 . S
C656 O678 1.264 . S
C656 O680 1.273 . S
Mg657 O659 1.936 . S
Mg657 O666 2.081 . S
Mg657 O668 2.023 . S
Mg657 O672 2.031 . S
Mg657 O681 2.291 . S
Mg658 O659 1.963 . S
Mg658 O669 1.942 . S
Mg658 O670 1.955 . S
Mg658 O677 1.986 . S
O659 Mg657 1.936 . S
O659 Mg658 1.963 . S
O659 Mg660 1.915 . S
Mg660 O659 1.915 . S
Mg660 O661 1.915 . S
Mg660 O665 2.013 . S
Mg660 O671 2.114 . S
Mg660 O675 2.013 . S
Mg660 O681 2.114 . S
O661 Mg660 1.915 . S
O661 Mg662 1.936 . S
O661 Mg663 1.963 . S
Mg662 O661 1.936 . S
Mg662 O671 2.291 . S
Mg662 O676 2.081 . S
Mg662 O678 2.023 . S
Mg662 O682 2.031 . S
Mg663 O661 1.963 . S
Mg663 O667 1.986 . S
Mg663 O679 1.942 . S
Mg663 O680 1.955 . S
C664 O675 1.191 . S
C664 O677 1.307 . S
O665 Mg660 2.013 . S
O665 C684 1.191 . S
O666 Mg657 2.081 . S
O666 C674 1.331 . S
O667 Mg663 1.986 . S
O667 C684 1.307 . S
O668 Mg657 2.023 . S
O668 C683 1.264 . S
O669 Mg658 1.942 . S
O669 C674 1.244 . S
O670 Mg658 1.955 . S
O670 C683 1.273 . S
O671 Mg660 2.114 . S
O671 Mg662 2.291 . S
O671 C673 1.312 . S
O672 Mg657 2.031 . S
O672 C673 1.208 . S
C673 O671 1.312 . S
C673 O672 1.208 . S
C674 O666 1.331 . S
C674 O669 1.244 . S
O675 Mg660 2.013 . S
O675 C664 1.191 . S
O676 C655 1.331 . S
O676 Mg662 2.081 . S
O677 Mg658 1.986 . S
O677 C664 1.307 . S
O678 C656 1.264 . S
O678 Mg662 2.023 . S
O679 C655 1.244 . S
O679 Mg663 1.942 . S
O680 C656 1.273 . S
O680 Mg663 1.955 . S
O681 C654 1.312 . S
O681 Mg657 2.291 . S
O681 Mg660 2.114 . S
O682 C654 1.208 . S
O682 Mg662 2.031 . S
C683 O668 1.264 . S
C683 O670 1.273 . S
C684 O665 1.191 . S
C684 O667 1.307 . S
C685 O712 1.312 . S
C685 O713 1.208 . S
C686 O707 1.331 . S
C686 O710 1.244 . S
C687 O709 1.264 . S
C687 O711 1.273 . S
Mg688 O690 1.936 1_455 S
Mg688 O697 2.081 1_455 S
Mg688 O699 2.023 1_455 S
Mg688 O703 2.031 . S
Mg688 O712 2.291 . S
Mg689 O690 1.963 . S
Mg689 O700 1.942 . S
Mg689 O701 1.955 . S
Mg689 O708 1.986 . S
O690 Mg688 1.936 1_655 S
O690 Mg689 1.963 . S
O690 Mg691 1.915 1_655 S
Mg691 O690 1.915 1_455 S
Mg691 O692 1.915 . S
Mg691 O696 2.013 1_455 S
Mg691 O702 2.114 . S
Mg691 O706 2.013 . S
Mg691 O712 2.114 . S
O692 Mg691 1.915 . S
O692 Mg693 1.936 . S
O692 Mg694 1.963 . S
Mg693 O692 1.936 . S
Mg693 O702 2.291 . S
Mg693 O707 2.081 . S
Mg693 O709 2.023 . S
Mg693 O713 2.031 . S
Mg694 O692 1.963 . S
Mg694 O698 1.986 . S
Mg694 O710 1.942 . S
Mg694 O711 1.955 . S
C695 O706 1.191 1_655 S
C695 O708 1.307 . S
O696 Mg691 2.013 1_655 S
O696 C715 1.191 . S
O697 Mg688 2.081 1_655 S
O697 C705 1.331 . S
O698 Mg694 1.986 . S
O698 C715 1.307 1_455 S
O699 Mg688 2.023 1_655 S
O699 C714 1.264 . S
O700 Mg689 1.942 . S
O700 C705 1.244 . S
O701 Mg689 1.955 . S
O701 C714 1.273 . S
O702 Mg691 2.114 . S
O702 Mg693 2.291 . S
O702 C704 1.312 . S
O703 Mg688 2.031 . S
O703 C704 1.208 . S
C704 O702 1.312 . S
C704 O703 1.208 . S
C705 O697 1.331 . S
C705 O700 1.244 . S
O706 Mg691 2.013 . S
O706 C695 1.191 1_455 S
O707 C686 1.331 . S
O707 Mg693 2.081 . S
O708 Mg689 1.986 . S
O708 C695 1.307 . S
O709 C687 1.264 . S
O709 Mg693 2.023 . S
O710 C686 1.244 . S
O710 Mg694 1.942 . S
O711 C687 1.273 . S
O711 Mg694 1.955 . S
O712 C685 1.312 . S
O712 Mg688 2.291 . S
O712 Mg691 2.114 . S
O713 C685 1.208 . S
O713 Mg693 2.031 . S
C714 O699 1.264 . S
C714 O701 1.273 . S
C715 O696 1.191 . S
C715 O698 1.307 1_655 S
C716 C717 1.369 . S
C716 C718 1.419 . S
C716 H720 0.930 . S
C717 C716 1.369 . S
C717 C726 1.429 . S
C718 C716 1.419 . S
C718 C719 1.363 . S
C718 H721 0.929 . S
C719 C718 1.363 . S
C719 C725 1.428 . S
H720 C716 0.930 . S
H721 C718 0.929 . S
S722 N723 1.613 . S
S722 N724 1.610 . S
N723 S722 1.613 . S
N723 C726 1.350 . S
N724 S722 1.610 . S
N724 C725 1.351 . S
C725 C719 1.428 . S
C725 N724 1.351 . S
C725 C726 1.434 . S
C726 C717 1.429 . S
C726 N723 1.350 . S
C726 C725 1.434 . S
C727 C728 1.369 . S
C727 C729 1.419 1_565 S
C727 H731 0.930 . S
C728 C727 1.369 . S
C728 C737 1.429 1_565 S
C729 C727 1.419 1_545 S
C729 C730 1.363 . S
C729 H732 0.929 . S
C730 C729 1.363 . S
C730 C736 1.428 . S
H731 C727 0.930 . S
H732 C729 0.929 . S
S733 N734 1.613 . S
S733 N735 1.610 . S
N734 S733 1.613 . S
N734 C737 1.350 . S
N735 S733 1.610 . S
N735 C736 1.351 . S
C736 C730 1.428 . S
C736 N735 1.351 . S
C736 C737 1.434 . S
C737 C728 1.429 1_545 S
C737 N734 1.350 . S
C737 C736 1.434 . S
C738 C739 1.369 . S
C738 C740 1.419 . S
C738 H742 0.930 . S
C739 C738 1.369 . S
C739 C748 1.429 . S
C740 C738 1.419 . S
C740 C741 1.363 . S
C740 H743 0.929 . S
C741 C740 1.363 . S
C741 C747 1.428 . S
H742 C738 0.930 . S
H743 C740 0.929 . S
S744 N745 1.613 . S
S744 N746 1.610 . S
N745 S744 1.613 . S
N745 C748 1.350 . S
N746 S744 1.610 . S
N746 C747 1.351 . S
C747 C741 1.428 . S
C747 N746 1.351 . S
C747 C748 1.434 . S
C748 C739 1.429 . S
C748 N745 1.350 . S
C748 C747 1.434 . S
C749 C750 1.369 . S
C749 C751 1.419 1_545 S
C749 H753 0.928 1_545 S
C750 C749 1.369 . S
C750 C759 1.429 . S
C751 C749 1.419 1_565 S
C751 C752 1.363 . S
C751 H754 0.929 . S
C752 C751 1.363 . S
C752 C758 1.428 1_565 S
H753 C749 0.928 1_565 S
H754 C751 0.929 . S
S755 N756 1.613 . S
S755 N757 1.610 . S
N756 S755 1.613 . S
N756 C759 1.350 . S
N757 S755 1.610 . S
N757 C758 1.351 . S
C758 C752 1.428 1_545 S
C758 N757 1.351 . S
C758 C759 1.434 . S
C759 C750 1.429 . S
C759 N756 1.350 . S
C759 C758 1.434 . S
C760 C761 1.369 . S
C760 C762 1.419 . S
C760 H764 0.930 . S
C761 C760 1.369 . S
C761 C770 1.429 . S
C762 C760 1.419 . S
C762 C763 1.363 . S
C762 H765 0.929 . S
C763 C762 1.363 . S
C763 C769 1.428 . S
H764 C760 0.930 . S
H765 C762 0.929 . S
S766 N767 1.613 . S
S766 N768 1.610 . S
N767 S766 1.613 . S
N767 C770 1.350 . S
N768 S766 1.610 . S
N768 C769 1.351 . S
C769 C763 1.428 . S
C769 N768 1.351 . S
C769 C770 1.434 . S
C770 C761 1.429 . S
C770 N767 1.350 . S
C770 C769 1.434 . S
C771 C772 1.369 . S
C771 C773 1.419 1_565 S
C771 H775 0.930 . S
C772 C771 1.369 . S
C772 C781 1.429 . S
C773 C771 1.419 1_545 S
C773 C774 1.363 . S
C773 H776 0.929 . S
C774 C773 1.363 . S
C774 C780 1.428 . S
H775 C771 0.930 . S
H776 C773 0.929 . S
S777 N778 1.613 . S
S777 N779 1.610 1_565 S
N778 S777 1.613 . S
N778 C781 1.350 . S
N779 S777 1.610 1_545 S
N779 C780 1.351 . S
C780 C774 1.428 . S
C780 N779 1.351 . S
C780 C781 1.434 1_545 S
C781 C772 1.429 . S
C781 N778 1.350 . S
C781 C780 1.434 1_565 S
C782 C783 1.369 1_545 S
C782 C784 1.419 . S
C782 H786 0.930 . S
C783 C782 1.369 1_565 S
C783 C792 1.429 . S
C784 C782 1.419 . S
C784 C785 1.363 1_545 S
C784 H787 0.929 . S
C785 C784 1.363 1_565 S
C785 C791 1.428 . S
H786 C782 0.930 . S
H787 C784 0.929 . S
S788 N789 1.613 . S
S788 N790 1.610 . S
N789 S788 1.613 . S
N789 C792 1.350 . S
N790 S788 1.610 . S
N790 C791 1.351 . S
C791 C785 1.428 . S
C791 N790 1.351 . S
C791 C792 1.434 . S
C792 C783 1.429 . S
C792 N789 1.350 . S
C792 C791 1.434 . S
C793 C794 1.369 . S
C793 C795 1.419 . S
C793 H797 0.930 . S
C794 C793 1.369 . S
C794 C803 1.429 . S
C795 C793 1.419 . S
C795 C796 1.363 . S
C795 H798 0.929 . S
C796 C795 1.363 . S
C796 C802 1.428 . S
H797 C793 0.930 . S
H798 C795 0.929 . S
S799 N800 1.613 . S
S799 N801 1.610 . S
N800 S799 1.613 . S
N800 C803 1.350 . S
N801 S799 1.610 . S
N801 C802 1.351 . S
C802 C796 1.428 . S
C802 N801 1.351 . S
C802 C803 1.434 . S
C803 C794 1.429 . S
C803 N800 1.350 . S
C803 C802 1.434 . S
C804 C805 1.369 . S
C804 C806 1.419 . S
C804 H808 0.930 . S
C805 C804 1.369 . S
C805 C814 1.429 . S
C806 C804 1.419 . S
C806 C807 1.363 . S
C806 H809 0.929 . S
C807 C806 1.363 . S
C807 C813 1.428 . S
H808 C804 0.930 . S
H809 C806 0.929 . S
S810 N811 1.613 . S
S810 N812 1.610 . S
N811 S810 1.613 . S
N811 C814 1.350 . S
N812 S810 1.610 . S
N812 C813 1.351 . S
C813 C807 1.428 . S
C813 N812 1.351 . S
C813 C814 1.434 . S
C814 C805 1.429 . S
C814 N811 1.350 . S
C814 C813 1.434 . S
C815 C816 1.369 . S
C815 C817 1.419 . S
C815 H819 0.930 . S
C816 C815 1.369 . S
C816 C825 1.429 . S
C817 C815 1.419 . S
C817 C818 1.363 . S
C817 H820 0.929 . S
C818 C817 1.363 . S
C818 C824 1.428 . S
H819 C815 0.930 . S
H820 C817 0.929 . S
S821 N822 1.613 . S
S821 N823 1.610 . S
N822 S821 1.613 . S
N822 C825 1.350 . S
N823 S821 1.610 . S
N823 C824 1.351 . S
C824 C818 1.428 . S
C824 N823 1.351 . S
C824 C825 1.434 . S
C825 C816 1.429 . S
C825 N822 1.350 . S
C825 C824 1.434 . S
C826 C827 1.369 . S
C826 C828 1.419 . S
C826 H830 0.930 . S
C827 C826 1.369 . S
C827 C836 1.429 . S
C828 C826 1.419 . S
C828 C829 1.363 . S
C828 H831 0.929 1_655 S
C829 C828 1.363 . S
C829 C835 1.428 . S
H830 C826 0.930 . S
H831 C828 0.929 1_455 S
S832 N833 1.613 . S
S832 N834 1.610 . S
N833 S832 1.613 . S
N833 C836 1.350 . S
N834 S832 1.610 . S
N834 C835 1.351 . S
C835 C829 1.428 . S
C835 N834 1.351 . S
C835 C836 1.434 . S
C836 C827 1.429 . S
C836 N833 1.350 . S
C836 C835 1.434 . S
C837 C838 1.369 . S
C837 C839 1.419 . S
C837 H841 0.930 . S
C838 C837 1.369 . S
C838 C847 1.429 . S
C839 C837 1.419 . S
C839 C840 1.363 . S
C839 H842 0.929 . S
C840 C839 1.363 . S
C840 C846 1.428 . S
H841 C837 0.930 . S
H842 C839 0.929 . S
S843 N844 1.613 1_455 S
S843 N845 1.610 . S
N844 S843 1.613 1_655 S
N844 C847 1.350 . S
N845 S843 1.610 . S
N845 C846 1.351 1_455 S
C846 C840 1.428 . S
C846 N845 1.351 1_655 S
C846 C847 1.434 . S
C847 C838 1.429 . S
C847 N844 1.350 . S
C847 C846 1.434 . S
C848 C849 1.369 . S
C848 C850 1.419 . S
C848 H852 0.930 . S
C849 C848 1.369 . S
C849 C858 1.429 . S
C850 C848 1.419 . S
C850 C851 1.363 . S
C850 H853 0.929 . S
C851 C850 1.363 . S
C851 C857 1.428 . S
H852 C848 0.930 . S
H853 C850 0.929 . S
S854 N855 1.613 1_545 S
S854 N856 1.610 1_545 S
N855 S854 1.613 1_565 S
N855 C858 1.350 . S
N856 S854 1.610 1_565 S
N856 C857 1.351 . S
C857 C851 1.428 . S
C857 N856 1.351 . S
C857 C858 1.434 . S
C858 C849 1.429 . S
C858 N855 1.350 . S
C858 C857 1.434 . S
C859 C860 1.369 . S
C859 C861 1.419 . S
C859 H863 0.930 . S
C860 C859 1.369 . S
C860 C869 1.429 . S
C861 C859 1.419 . S
C861 C862 1.363 . S
C861 H864 0.929 . S
C862 C861 1.363 . S
C862 C868 1.428 . S
H863 C859 0.930 . S
H864 C861 0.929 . S
S865 N866 1.613 1_455 S
S865 N867 1.610 . S
N866 S865 1.613 1_655 S
N866 C869 1.350 . S
N867 S865 1.610 . S
N867 C868 1.351 1_455 S
C868 C862 1.428 . S
C868 N867 1.351 1_655 S
C868 C869 1.434 . S
C869 C860 1.429 . S
C869 N866 1.350 . S
C869 C868 1.434 . S
C870 C871 1.369 . S
C870 C872 1.419 . S
C870 H874 0.930 . S
C871 C870 1.369 . S
C871 C880 1.429 . S
C872 C870 1.419 . S
C872 C873 1.363 . S
C872 H875 0.929 . S
C873 C872 1.363 . S
C873 C879 1.428 . S
H874 C870 0.930 . S
H875 C872 0.929 . S
S876 N877 1.613 . S
S876 N878 1.610 . S
N877 S876 1.613 . S
N877 C880 1.350 . S
N878 S876 1.610 . S
N878 C879 1.351 . S
C879 C873 1.428 . S
C879 N878 1.351 . S
C879 C880 1.434 . S
C880 C871 1.429 . S
C880 N877 1.350 . S
C880 C879 1.434 . S
C881 C882 1.369 . S
C881 C883 1.419 . S
C881 H885 0.930 . S
C882 C881 1.369 . S
C882 C891 1.429 . S
C883 C881 1.419 . S
C883 C884 1.363 . S
C883 H886 0.929 . S
C884 C883 1.363 . S
C884 C890 1.428 . S
H885 C881 0.930 . S
H886 C883 0.929 . S
S887 N888 1.613 . S
S887 N889 1.610 . S
N888 S887 1.613 . S
N888 C891 1.350 . S
N889 S887 1.610 . S
N889 C890 1.351 . S
C890 C884 1.428 . S
C890 N889 1.351 . S
C890 C891 1.434 . S
C891 C882 1.429 . S
C891 N888 1.350 . S
C891 C890 1.434 . S
C892 C893 1.369 . S
C892 C894 1.419 . S
C892 H896 0.930 . S
C893 C892 1.369 . S
C893 C902 1.429 . S
C894 C892 1.419 . S
C894 C895 1.363 . S
C894 H897 0.929 . S
C895 C894 1.363 . S
C895 C901 1.428 . S
H896 C892 0.930 . S
H897 C894 0.929 . S
S898 N899 1.613 . S
S898 N900 1.610 . S
N899 S898 1.613 . S
N899 C902 1.350 . S
N900 S898 1.610 . S
N900 C901 1.351 . S
C901 C895 1.428 . S
C901 N900 1.351 . S
C901 C902 1.434 . S
C902 C893 1.429 . S
C902 N899 1.350 . S
C902 C901 1.434 . S
C903 C904 1.369 . S
C903 C905 1.419 . S
C903 H907 0.930 1_655 S
C904 C903 1.369 . S
C904 C913 1.429 . S
C905 C903 1.419 . S
C905 C906 1.363 . S
C905 H908 0.932 . S
C906 C905 1.363 . S
C906 C912 1.428 . S
H907 C903 0.930 1_455 S
H908 C905 0.932 . S
S909 N910 1.613 . S
S909 N911 1.610 . S
N910 S909 1.613 . S
N910 C913 1.350 . S
N911 S909 1.610 . S
N911 C912 1.351 . S
C912 C906 1.428 . S
C912 N911 1.351 . S
C912 C913 1.434 . S
C913 C904 1.429 . S
C913 N910 1.350 . S
C913 C912 1.434 . S
C914 C915 1.369 . S
C914 C916 1.419 . S
C914 H918 0.930 . S
C915 C914 1.369 . S
C915 C924 1.429 . S
C916 C914 1.419 . S
C916 C917 1.363 . S
C916 H919 0.929 . S
C917 C916 1.363 . S
C917 C923 1.428 . S
H918 C914 0.930 . S
H919 C916 0.929 . S
S920 N921 1.613 . S
S920 N922 1.610 . S
N921 S920 1.613 . S
N921 C924 1.350 . S
N922 S920 1.610 . S
N922 C923 1.351 . S
C923 C917 1.428 . S
C923 N922 1.351 . S
C923 C924 1.434 . S
C924 C915 1.429 . S
C924 N921 1.350 . S
C924 C923 1.434 . S
C925 C926 1.369 . S
C925 C927 1.419 . S
C925 H929 0.930 . S
C926 C925 1.369 . S
C926 C935 1.429 . S
C927 C925 1.419 . S
C927 C928 1.363 . S
C927 H930 0.929 . S
C928 C927 1.363 . S
C928 C934 1.428 . S
H929 C925 0.930 . S
H930 C927 0.929 . S
S931 N932 1.613 . S
S931 N933 1.610 . S
N932 S931 1.613 . S
N932 C935 1.350 . S
N933 S931 1.610 . S
N933 C934 1.351 . S
C934 C928 1.428 . S
C934 N933 1.351 . S
C934 C935 1.434 . S
C935 C926 1.429 . S
C935 N932 1.350 . S
C935 C934 1.434 . S
C936 C937 1.369 . S
C936 C938 1.419 . S
C936 H940 0.930 . S
C937 C936 1.369 . S
C937 C946 1.429 . S
C938 C936 1.419 . S
C938 C939 1.363 . S
C938 H941 0.929 . S
C939 C938 1.363 . S
C939 C945 1.428 . S
H940 C936 0.930 . S
H941 C938 0.929 . S
S942 N943 1.613 . S
S942 N944 1.610 . S
N943 S942 1.613 . S
N943 C946 1.350 . S
N944 S942 1.610 . S
N944 C945 1.351 . S
C945 C939 1.428 . S
C945 N944 1.351 . S
C945 C946 1.434 . S
C946 C937 1.429 . S
C946 N943 1.350 . S
C946 C945 1.434 . S
C947 C948 1.369 . S
C947 C949 1.419 . S
C947 H951 0.930 . S
C948 C947 1.369 . S
C948 C957 1.429 . S
C949 C947 1.419 . S
C949 C950 1.363 . S
C949 H952 0.929 . S
C950 C949 1.363 . S
C950 C956 1.428 . S
H951 C947 0.930 . S
H952 C949 0.929 . S
S953 N954 1.613 . S
S953 N955 1.610 . S
N954 S953 1.613 . S
N954 C957 1.350 . S
N955 S953 1.610 . S
N955 C956 1.351 . S
C956 C950 1.428 . S
C956 N955 1.351 . S
C956 C957 1.434 . S
C957 C948 1.429 . S
C957 N954 1.350 . S
C957 C956 1.434 . S
C958 C959 1.369 . S
C958 C960 1.419 . S
C958 H962 0.930 . S
C959 C958 1.369 . S
C959 C968 1.429 . S
C960 C958 1.419 . S
C960 C961 1.363 . S
C960 H963 0.929 . S
C961 C960 1.363 . S
C961 C967 1.428 . S
H962 C958 0.930 . S
H963 C960 0.929 . S
S964 N965 1.613 . S
S964 N966 1.610 . S
N965 S964 1.613 . S
N965 C968 1.350 . S
N966 S964 1.610 . S
N966 C967 1.351 . S
C967 C961 1.428 . S
C967 N966 1.351 . S
C967 C968 1.434 . S
C968 C959 1.429 . S
C968 N965 1.350 . S
C968 C967 1.434 . S
C969 C970 1.369 1_455 S
C969 C971 1.419 1_455 S
C969 H973 0.930 . S
C970 C969 1.369 1_655 S
C970 C979 1.429 . S
C971 C969 1.419 1_655 S
C971 C972 1.363 . S
C971 H974 0.929 1_655 S
C972 C971 1.363 . S
C972 C978 1.428 . S
H973 C969 0.930 . S
H974 C971 0.929 1_455 S
S975 N976 1.613 . S
S975 N977 1.610 . S
N976 S975 1.613 . S
N976 C979 1.350 . S
N977 S975 1.610 . S
N977 C978 1.351 . S
C978 C972 1.428 . S
C978 N977 1.351 . S
C978 C979 1.434 . S
C979 C970 1.429 . S
C979 N976 1.350 . S
C979 C978 1.434 . S
C980 C981 1.369 . S
C980 C982 1.419 . S
C980 H984 0.930 . S
C981 C980 1.369 . S
C981 C990 1.429 . S
C982 C980 1.419 . S
C982 C983 1.363 . S
C982 H985 0.929 . S
C983 C982 1.363 . S
C983 C989 1.428 . S
H984 C980 0.930 . S
H985 C982 0.929 . S
S986 N987 1.613 . S
S986 N988 1.610 . S
N987 S986 1.613 . S
N987 C990 1.350 . S
N988 S986 1.610 . S
N988 C989 1.351 . S
C989 C983 1.428 . S
C989 N988 1.351 . S
C989 C990 1.434 . S
C990 C981 1.429 . S
C990 N987 1.350 . S
C990 C989 1.434 . S
C991 C992 1.369 . S
C991 C993 1.419 . S
C991 H995 0.930 . S
C992 C991 1.369 . S
C992 C1001 1.429 . S
C993 C991 1.419 . S
C993 C994 1.363 . S
C993 H996 0.929 . S
C994 C993 1.363 . S
C994 C1000 1.428 . S
H995 C991 0.930 . S
H996 C993 0.929 . S
S997 N998 1.613 . S
S997 N999 1.610 . S
N998 S997 1.613 . S
N998 C1001 1.350 . S
N999 S997 1.610 . S
N999 C1000 1.351 . S
C1000 C994 1.428 . S
C1000 N999 1.351 . S
C1000 C1001 1.434 . S
C1001 C992 1.429 . S
C1001 N998 1.350 . S
C1001 C1000 1.434 . S
C1002 C1003 1.369 . S
C1002 C1004 1.419 . S
C1002 H1006 0.930 . S
C1003 C1002 1.369 . S
C1003 C1012 1.429 . S
C1004 C1002 1.419 . S
C1004 C1005 1.363 . S
C1004 H1007 0.929 . S
C1005 C1004 1.363 . S
C1005 C1011 1.428 . S
H1006 C1002 0.930 . S
H1007 C1004 0.929 . S
S1008 N1009 1.613 . S
S1008 N1010 1.610 . S
N1009 S1008 1.613 . S
N1009 C1012 1.350 . S
N1010 S1008 1.610 . S
N1010 C1011 1.351 . S
C1011 C1005 1.428 . S
C1011 N1010 1.351 . S
C1011 C1012 1.434 . S
C1012 C1003 1.429 . S
C1012 N1009 1.350 . S
C1012 C1011 1.434 . S
C1013 C1014 1.369 . S
C1013 C1015 1.419 . S
C1013 H1017 0.930 . S
C1014 C1013 1.369 . S
C1014 C1023 1.429 . S
C1015 C1013 1.419 . S
C1015 C1016 1.363 . S
C1015 H1018 0.929 . S
C1016 C1015 1.363 . S
C1016 C1022 1.428 . S
H1017 C1013 0.930 . S
H1018 C1015 0.929 . S
S1019 N1020 1.613 . S
S1019 N1021 1.610 . S
N1020 S1019 1.613 . S
N1020 C1023 1.350 . S
N1021 S1019 1.610 . S
N1021 C1022 1.351 . S
C1022 C1016 1.428 . S
C1022 N1021 1.351 . S
C1022 C1023 1.434 . S
C1023 C1014 1.429 . S
C1023 N1020 1.350 . S
C1023 C1022 1.434 . S
C1024 C1025 1.369 . S
C1024 C1026 1.419 . S
C1024 H1028 0.930 . S
C1025 C1024 1.369 . S
C1025 C1034 1.429 . S
C1026 C1024 1.419 . S
C1026 C1027 1.363 . S
C1026 H1029 0.929 . S
C1027 C1026 1.363 . S
C1027 C1033 1.428 . S
H1028 C1024 0.930 . S
H1029 C1026 0.929 . S
S1030 N1031 1.613 . S
S1030 N1032 1.610 . S
N1031 S1030 1.613 . S
N1031 C1034 1.350 . S
N1032 S1030 1.610 . S
N1032 C1033 1.351 . S
C1033 C1027 1.428 . S
C1033 N1032 1.351 . S
C1033 C1034 1.434 . S
C1034 C1025 1.429 . S
C1034 N1031 1.350 . S
C1034 C1033 1.434 . S
C1035 C1036 1.369 . S
C1035 C1037 1.419 . S
C1035 H1039 0.930 . S
C1036 C1035 1.369 . S
C1036 C1045 1.429 . S
C1037 C1035 1.419 . S
C1037 C1038 1.363 . S
C1037 H1040 0.929 . S
C1038 C1037 1.363 . S
C1038 C1044 1.428 . S
H1039 C1035 0.930 . S
H1040 C1037 0.929 . S
S1041 N1042 1.613 . S
S1041 N1043 1.610 . S
N1042 S1041 1.613 . S
N1042 C1045 1.350 . S
N1043 S1041 1.610 . S
N1043 C1044 1.351 . S
C1044 C1038 1.428 . S
C1044 N1043 1.351 . S
C1044 C1045 1.434 . S
C1045 C1036 1.429 . S
C1045 N1042 1.350 . S
C1045 C1044 1.434 . S
C1046 C1047 1.369 . S
C1046 C1048 1.419 . S
C1046 H1050 0.930 . S
C1047 C1046 1.369 . S
C1047 C1056 1.429 . S
C1048 C1046 1.419 . S
C1048 C1049 1.363 . S
C1048 H1051 0.929 . S
C1049 C1048 1.363 . S
C1049 C1055 1.428 . S
H1050 C1046 0.930 . S
H1051 C1048 0.929 . S
S1052 N1053 1.613 . S
S1052 N1054 1.610 . S
N1053 S1052 1.613 . S
N1053 C1056 1.350 . S
N1054 S1052 1.610 . S
N1054 C1055 1.351 . S
C1055 C1049 1.428 . S
C1055 N1054 1.351 . S
C1055 C1056 1.434 . S
C1056 C1047 1.429 . S
C1056 N1053 1.350 . S
C1056 C1055 1.434 . S
C1057 C1058 1.369 . S
C1057 C1059 1.419 . S
C1057 H1061 0.930 . S
C1058 C1057 1.369 . S
C1058 C1067 1.429 . S
C1059 C1057 1.419 . S
C1059 C1060 1.363 . S
C1059 H1062 0.929 . S
C1060 C1059 1.363 . S
C1060 C1066 1.428 . S
H1061 C1057 0.930 . S
H1062 C1059 0.929 . S
S1063 N1064 1.613 . S
S1063 N1065 1.610 . S
N1064 S1063 1.613 . S
N1064 C1067 1.350 . S
N1065 S1063 1.610 . S
N1065 C1066 1.351 . S
C1066 C1060 1.428 . S
C1066 N1065 1.351 . S
C1066 C1067 1.434 . S
C1067 C1058 1.429 . S
C1067 N1064 1.350 . S
C1067 C1066 1.434 . S
C719 C652 2.202 . S
C717 C69 2.238 . S
C728 C125 1.184 . S
C730 C655 1.201 . S
C739 C217 2.143 . S
C741 C686 2.126 . S
C752 C621 1.846 . S
C750 C261 1.717 . S
C763 C656 2.137 . S
C761 C39 2.004 . S
C774 C687 2.416 . S
C772 C137 2.300 . S
C785 C612 2.061 . S
C783 C187 1.915 1_565 S
C796 C643 2.348 1_545 S
C794 C291 2.355 . S
C805 C51 0.732 . S
C807 C673 0.744 . S
C816 C365 1.838 1_565 S
C818 C642 1.712 . S
C827 C199 0.690 . S
C829 C602 0.689 . S
C840 C695 1.504 . S
C838 C439 1.510 . S
C851 C623 1.456 . S
C849 C63 1.559 . S
C860 C335 1.452 . S
C862 C622 1.630 . S
C871 C211 1.414 . S
C873 C715 1.509 . S
C884 C654 1.913 . S
C882 C409 1.695 . S
C893 C495 1.280 . S
C895 C714 1.265 . S
C904 C347 1.353 . S
C906 C593 1.369 . S
C915 C587 2.154 . S
C917 C624 2.148 . S
C926 C421 1.210 . S
C928 C683 1.190 . S
C939 C594 2.365 . S
C937 C507 2.249 . S
C948 C359 2.061 . S
C950 C625 2.180 . S
C959 C557 1.899 . S
C961 C674 2.038 . S
C972 C705 2.375 . S
C970 C433 2.215 . S
C981 C513 1.669 . S
C983 C611 1.562 . S
C992 C143 1.635 . S
C994 C704 1.531 . S
C1003 C569 0.697 . S
C1005 C664 0.711 . S
C1016 C633 1.351 . S
C1014 C285 1.259 . S
C1027 C685 1.792 . S
C1025 C483 1.594 . S
C1038 C684 1.851 . S
C1036 C113 1.673 . S
C1049 C653 1.496 . S
C1047 C581 1.397 . S
C1060 C592 0.910 . S
C1058 C273 0.937 . S
