# Generated by pormake.
# Topology zzz, (3,6)-cn, num edge types: 1
# Building blocks:
#     Node 0, Type 0, BuildingBlock: BETDIP_clean_linker_0, # of connection points: 3
#     Node 1, Type 0, BuildingBlock: BETDIP_clean_linker_0, # of connection points: 3
#     Node 2, Type 0, BuildingBlock: BETDIP_clean_linker_0, # of connection points: 3
#     Node 3, Type 0, BuildingBlock: BETDIP_clean_linker_0, # of connection points: 3
#     Node 4, Type 0, BuildingBlock: BETDIP_clean_linker_0, # of connection points: 3
#     Node 5, Type 0, BuildingBlock: BETDIP_clean_linker_0, # of connection points: 3
#     Node 6, Type 0, BuildingBlock: BETDIP_clean_linker_0, # of connection points: 3
#     Node 7, Type 0, BuildingBlock: BETDIP_clean_linker_0, # of connection points: 3
#     Node 8, Type 1, BuildingBlock: KUMBUR_clean_sbu_0, # of connection points: 6
#     Node 9, Type 1, BuildingBlock: KUMBUR_clean_sbu_0, # of connection points: 6
#     Node 10, Type 1, BuildingBlock: KUMBUR_clean_sbu_0, # of connection points: 6
#     Node 11, Type 1, BuildingBlock: KUMBUR_clean_sbu_0, # of connection points: 6
#     Edge 12, Type (0, 1), BuildingBlock: CIFDUS_clean_linker_0, # of connection points: 2
#     Edge 13, Type (0, 1), BuildingBlock: CIFDUS_clean_linker_0, # of connection points: 2
#     Edge 14, Type (0, 1), BuildingBlock: CIFDUS_clean_linker_0, # of connection points: 2
#     Edge 15, Type (0, 1), BuildingBlock: CIFDUS_clean_linker_0, # of connection points: 2
#     Edge 16, Type (0, 1), BuildingBlock: CIFDUS_clean_linker_0, # of connection points: 2
#     Edge 17, Type (0, 1), BuildingBlock: CIFDUS_clean_linker_0, # of connection points: 2
#     Edge 18, Type (0, 1), BuildingBlock: CIFDUS_clean_linker_0, # of connection points: 2
#     Edge 19, Type (0, 1), BuildingBlock: CIFDUS_clean_linker_0, # of connection points: 2
#     Edge 20, Type (0, 1), BuildingBlock: CIFDUS_clean_linker_0, # of connection points: 2
#     Edge 21, Type (0, 1), BuildingBlock: CIFDUS_clean_linker_0, # of connection points: 2
#     Edge 22, Type (0, 1), BuildingBlock: CIFDUS_clean_linker_0, # of connection points: 2
#     Edge 23, Type (0, 1), BuildingBlock: CIFDUS_clean_linker_0, # of connection points: 2
#     Edge 24, Type (0, 1), BuildingBlock: CIFDUS_clean_linker_0, # of connection points: 2
#     Edge 25, Type (0, 1), BuildingBlock: CIFDUS_clean_linker_0, # of connection points: 2
#     Edge 26, Type (0, 1), BuildingBlock: CIFDUS_clean_linker_0, # of connection points: 2
#     Edge 27, Type (0, 1), BuildingBlock: CIFDUS_clean_linker_0, # of connection points: 2
#     Edge 28, Type (0, 1), BuildingBlock: CIFDUS_clean_linker_0, # of connection points: 2
#     Edge 29, Type (0, 1), BuildingBlock: CIFDUS_clean_linker_0, # of connection points: 2
#     Edge 30, Type (0, 1), BuildingBlock: CIFDUS_clean_linker_0, # of connection points: 2
#     Edge 31, Type (0, 1), BuildingBlock: CIFDUS_clean_linker_0, # of connection points: 2
#     Edge 32, Type (0, 1), BuildingBlock: CIFDUS_clean_linker_0, # of connection points: 2
#     Edge 33, Type (0, 1), BuildingBlock: CIFDUS_clean_linker_0, # of connection points: 2
#     Edge 34, Type (0, 1), BuildingBlock: CIFDUS_clean_linker_0, # of connection points: 2
#     Edge 35, Type (0, 1), BuildingBlock: CIFDUS_clean_linker_0, # of connection points: 2
# Relax obj value: 0.198
# Max RMSD: 0.171
# Mean RMSD: 0.117
data_MOF--net-zzz--node1-KUMBUR_clean_sbu_0--node2-BETDIP_clean_linker_0--edge1-CIFDUS_clean_linker_0
_symmetry_space_group_name_H-M    P1
_symmetry_Int_Tables_number       1
_symmetry_cell_setting            triclinic
loop_
_symmetry_equiv_pos_as_xyz
'x, y, z'
_cell_length_a     43.617378
_cell_length_b     43.477082
_cell_length_c     12.646908
_cell_angle_alpha  91.128117
_cell_angle_beta   90.568167
_cell_angle_gamma 90.092502
loop_
_atom_site_label
_atom_site_type_symbol
_atom_site_fract_x
_atom_site_fract_y
_atom_site_fract_z
_atom_type_partial_charge
H0 H 0.77544 0.52509 0.3976 0.0
H1 H 0.76763 0.58307 0.12481 0.0
H2 H 0.85034 0.58314 0.30982 0.0
H3 H 0.71739 0.58578 0.18138 0.0
C4 C 0.71367 0.56111 0.18589 0.0
C5 C 0.78476 0.54263 0.34747 0.0
C6 C 0.81496 0.55399 0.36687 0.0
C7 C 0.7666 0.55436 0.26296 0.0
C8 C 0.77992 0.57583 0.1948 0.0
C9 C 0.80995 0.58641 0.21118 0.0
C10 C 0.82662 0.57612 0.29916 0.0
N11 N 0.73603 0.54318 0.24159 0.0
H12 H 0.04815 0.78841 0.40314 0.0
H13 H 0.9682 0.76493 0.21473 0.0
H14 H 0.98047 0.85683 0.33828 0.0
H15 H 1.00421 0.74198 0.11451 0.0
C16 C 1.01547 0.72836 0.17459 0.0
C17 C 0.02615 0.79451 0.36926 0.0
C18 C 1.01414 0.82465 0.38687 0.0
C19 C 1.00991 0.77272 0.30406 0.0
C20 C 0.98157 0.78159 0.25999 0.0
C21 C 0.97217 0.81246 0.26168 0.0
C22 C 0.98729 0.83295 0.33275 0.0
N23 N 1.02279 0.74316 0.27485 0.0
H24 H 0.77616 0.04288 0.40765 0.0
H25 H 0.80193 0.96999 0.19353 0.0
H26 H 0.71217 0.97096 0.33378 0.0
H27 H 0.85287 0.98495 0.29558 0.0
C28 C 0.84879 1.00651 0.25573 0.0
C29 C 0.77088 1.02109 0.36859 0.0
C30 C 0.74212 1.00681 0.38489 0.0
C31 C 0.79288 1.00714 0.30156 0.0
C32 C 0.78522 0.97969 0.24691 0.0
C33 C 0.75532 0.96737 0.25002 0.0
C34 C 0.73514 0.97984 0.3266 0.0
N35 N 0.82089 1.02265 0.27726 0.0
H36 H 0.53624 0.79184 0.45026 0.0
H37 H 0.57625 0.79751 0.1403 0.0
H38 H 0.58317 0.71406 0.31572 0.0
H39 H 0.58657 0.85623 0.281 0.0
C40 C 0.5634 0.85429 0.2492 0.0
C41 C 0.54961 0.78163 0.38706 0.0
C42 C 0.56039 0.751 0.39542 0.0
C43 C 0.55657 0.79906 0.29617 0.0
C44 C 0.57282 0.78506 0.21268 0.0
C45 C 0.58222 0.75432 0.21836 0.0
C46 C 0.57674 0.73811 0.31127 0.0
N47 N 0.54462 0.82934 0.28249 0.0
H48 H 0.30016 0.50202 0.93913 0.0
H49 H 0.30463 0.50444 0.28148 0.0
H50 H 0.21778 0.49664 0.12186 0.0
H51 H 0.34386 0.55062 0.18698 0.0
C52 C 0.35474 0.52831 0.17619 0.0
C53 C 0.28886 0.50135 1.01488 0.0
C54 C 0.25634 0.49902 1.01912 0.0
C55 C 0.30655 0.50344 0.11058 0.0
C56 C 0.29155 0.50268 0.20828 0.0
C57 C 0.25983 0.49924 0.21208 0.0
C58 C 0.24263 0.4978 0.11803 0.0
N59 N 0.33928 0.50578 0.11092 0.0
H60 H 0.0593 0.28664 1.00447 0.0
H61 H 0.03755 0.30271 0.33352 0.0
H62 H 0.03562 0.21099 0.20476 0.0
H63 H 1.0096 0.34777 0.20957 0.0
C64 C 0.03389 0.35343 0.20897 0.0
C65 C 0.05274 0.27793 0.08061 0.0
C66 C 0.04682 0.24579 0.09184 0.0
C67 C 0.04877 0.29889 0.16807 0.0
C68 C 0.04015 0.28724 0.26591 0.0
C69 C 0.03612 0.25576 0.27893 0.0
C70 C 0.03925 0.23537 0.19274 0.0
N71 N 0.05425 0.33137 0.161 0.0
H72 H 0.29001 0.04348 1.01211 0.0
H73 H 0.26726 0.11687 0.22928 0.0
H74 H 0.35737 0.11158 0.09342 0.0
H75 H 0.21623 0.10487 0.14461 0.0
C76 C 0.21929 0.08181 0.17469 0.0
C77 C 0.29627 0.06477 0.05273 0.0
C78 C 0.32578 0.07769 0.03806 0.0
C79 C 0.27476 0.07941 0.1203 0.0
C80 C 0.28354 0.1064 0.17595 0.0
C81 C 0.31391 0.11749 0.17335 0.0
C82 C 0.33388 0.10399 0.09826 0.0
N83 N 0.24605 0.06494 0.14345 0.0
H84 H 0.52142 0.2705 0.92546 0.0
H85 H 0.47366 0.27799 0.22271 0.0
H86 H 0.47893 0.35562 1.01925 0.0
H87 H 0.52738 0.25455 0.25437 0.0
C88 C 0.51836 0.23459 0.21101 0.0
C89 C 0.50748 0.28359 0.98051 0.0
C90 C 0.50013 0.31476 0.95959 0.0
C91 C 0.49784 0.27007 0.07647 0.0
C92 C 0.48054 0.28783 0.1485 0.0
C93 C 0.47362 0.31863 0.12906 0.0
C94 C 0.48294 0.33141 0.03352 0.0
N95 N 0.5071 0.23971 0.10598 0.0
Tb96 Tb 0.06608 0.03039 0.81505 0.0
C97 C 0.99291 0.98439 0.48761 0.0
C98 C 1.01853 0.98916 0.32056 0.0
C99 C 0.99239 0.94155 0.36115 0.0
C100 C 1.00994 1.00144 0.41974 0.0
C101 C 0.98208 0.95499 0.45633 0.0
C102 C 1.01141 0.95839 0.29467 0.0
C103 C 0.95212 0.95467 0.61557 0.0
N104 N 0.98571 0.99733 0.58243 0.0
C105 C 0.96487 0.98317 0.64557 0.0
C106 C 0.9612 0.94021 0.52139 0.0
Tb107 Tb 1.00787 0.04427 0.6239 0.0
N108 N 1.01585 0.03103 0.44777 0.0
C109 C 1.02461 0.05119 0.37116 0.0
C110 C 0.03277 1.00858 0.24918 0.0
C111 C 0.03462 0.04004 0.27287 0.0
H112 H 0.95786 0.99348 0.71952 0.0
H113 H 0.04421 0.05557 0.21645 0.0
H114 H 1.01928 0.94799 0.22151 0.0
H115 H 0.93585 0.94354 0.66642 0.0
H116 H 0.02678 0.07548 0.3899 0.0
H117 H 0.02758 0.10955 0.12271 0.0
H118 H 0.04086 0.99987 0.1737 0.0
H119 H 0.13693 1.01589 0.73243 0.0
H120 H 1.02318 0.06592 0.99943 0.0
H121 H 0.18817 0.03979 0.74532 0.0
H122 H 0.98557 0.9184 0.33796 0.0
H123 H 0.07535 0.14008 0.13311 0.0
H124 H 0.12959 0.14735 0.07432 0.0
H125 H 0.952 0.91777 0.49976 0.0
H126 H 0.17344 0.12844 0.97085 0.0
N127 N 0.06792 0.07116 0.93483 0.0
C128 C 0.04431 0.07858 1.00116 0.0
C129 C 0.07359 0.12078 0.07781 0.0
C130 C 0.09822 0.11234 1.01386 0.0
C131 C 0.04665 0.10358 0.07225 0.0
C132 C 0.09465 0.08706 0.94288 0.0
H133 H 0.1956 0.08816 0.84879 0.0
N134 N 0.11487 0.05124 0.82282 0.0
C135 C 0.16889 0.0506 0.78434 0.0
C136 C 0.11904 0.07673 0.88452 0.0
C137 C 0.1398 0.03711 0.77746 0.0
C138 C 0.17297 0.07792 0.84245 0.0
C139 C 0.14804 0.09099 0.8954 0.0
O140 O 0.09597 0.99455 0.85394 0.0
O141 O 0.03314 1.00866 0.70512 0.0
O142 O 0.98415 0.03968 0.77579 0.0
O143 O 1.02157 1.02123 0.89021 0.0
O144 O 0.07767 0.99454 0.69775 0.0
O145 O 0.06186 1.00959 0.96368 0.0
O146 O 0.96041 0.05039 0.64624 0.0
O147 O 0.03277 0.06328 0.75974 0.0
O148 O 0.08909 0.05227 0.68134 0.0
O149 O 0.05296 0.04644 0.5461 0.0
O150 O 0.02692 0.09122 0.63516 0.0
O151 O 0.98478 0.07789 0.53687 0.0
C152 C 0.05074 0.98911 0.66027 0.0
C153 C 0.07285 0.9561 0.9497 0.0
C154 C 0.03376 0.91576 0.95114 0.0
C155 C 0.04187 0.94706 0.94933 0.0
C156 C 0.05737 0.8936 0.9506 0.0
C157 C 0.09582 0.9336 0.9499 0.0
C158 C 0.08807 0.90253 0.94952 0.0
C159 C 0.99265 0.02828 0.86766 0.0
C160 C 0.08195 0.9885 0.94063 0.0
C161 C 0.15144 0.11703 0.96198 0.0
C162 C 0.12651 0.12775 1.021 0.0
C163 C 0.0381 0.09051 0.72964 0.0
C164 C 0.94725 0.10291 0.64166 0.0
C165 C 0.96039 0.13156 0.62163 0.0
C166 C 0.95059 0.15835 0.67487 0.0
C167 C 0.92671 0.15648 0.74789 0.0
C168 C 0.92327 0.10133 0.71479 0.0
C169 C 0.91319 0.12798 0.76782 0.0
C170 C 0.08115 0.05242 0.58023 0.0
C171 C 0.95952 0.07484 0.58934 0.0
H172 H 1.02406 0.9642 0.9466 0.0
H173 H 0.05231 0.86929 0.95535 0.0
H174 H 0.11981 0.94011 0.94878 0.0
H175 H 0.10593 0.88527 0.94988 0.0
H176 H 0.97819 0.13321 0.56278 0.0
H177 H 0.91852 0.17694 0.78878 0.0
H178 H 0.9124 0.07955 0.73109 0.0
H179 H 0.89477 0.12654 0.82422 0.0
Tb180 Tb 0.54061 0.06952 0.79556 0.0
C181 C 0.56334 0.94954 0.54596 0.0
C182 C 0.60217 0.96486 0.42296 0.0
C183 C 0.60053 0.91209 0.48181 0.0
C184 C 0.5767 0.97193 0.48723 0.0
C185 C 0.57432 0.91902 0.54129 0.0
C186 C 0.61458 0.93508 0.42319 0.0
C187 C 0.53086 0.90397 0.64471 0.0
N188 N 0.53812 0.95722 0.60181 0.0
C189 C 0.52091 0.93455 0.64648 0.0
C190 C 0.558 0.89623 0.59334 0.0
Tb191 Tb 0.52386 1.00833 0.60712 0.0
N192 N 0.56381 1.00031 0.48921 0.0
C193 C 0.57402 1.02188 0.41979 0.0
C194 C 0.6139 0.98765 0.35851 0.0
C195 C 0.59928 1.01605 0.35512 0.0
H196 H 0.49991 0.94031 0.68702 0.0
H197 H 0.60766 0.03366 0.30339 0.0
H198 H 0.6343 0.92933 0.37526 0.0
H199 H 0.51757 0.88643 0.68309 0.0
H200 H 0.56406 0.04434 0.41546 0.0
H201 H 0.46293 0.04416 0.11812 0.0
H202 H 0.63356 0.9833 0.30882 0.0
H203 H 0.55937 0.13585 0.68981 0.0
H204 H 0.50021 0.0317 0.98367 0.0
H205 H 0.54477 0.1905 0.70657 0.0
H206 H 0.60954 0.88888 0.47813 0.0
H207 H 0.44362 0.09713 0.13992 0.0
H208 H 0.44535 0.15213 0.08536 0.0
H209 H 0.56561 0.87251 0.59149 0.0
H210 H 0.46733 0.19193 0.97309 0.0
N211 N 0.50362 0.07754 0.92403 0.0
C212 C 0.49313 0.05528 0.99042 0.0
C213 C 0.46046 0.09199 0.07982 0.0
C214 C 0.47168 0.11492 1.01482 0.0
C215 C 0.47137 0.06211 0.06784 0.0
C216 C 0.49349 0.1069 0.93707 0.0
H217 H 0.50436 0.20646 0.83193 0.0
N218 N 0.52676 0.12057 0.80183 0.0
C219 C 0.5334 0.1735 0.75383 0.0
C220 C 0.50544 0.12916 0.87354 0.0
C221 C 0.54158 0.14249 0.74462 0.0
C222 C 0.51055 0.1824 0.82437 0.0
C223 C 0.49652 0.16021 0.88633 0.0
O224 O 0.57869 0.09728 0.83306 0.0
O225 O 0.55915 0.03449 0.68958 0.0
O226 O 0.54018 0.98497 0.75015 0.0
O227 O 0.54107 1.02487 0.8771 0.0
O228 O 0.5778 0.07748 0.68356 0.0
O229 O 0.56574 0.06034 0.93445 0.0
O230 O 0.48614 0.98176 0.55625 0.0
O231 O 0.50591 0.04278 0.71526 0.0
O232 O 0.51723 0.09093 0.66027 0.0
O233 O 0.52486 0.05362 0.52865 0.0
O234 O 0.48413 1.00151 0.71136 0.0
O235 O 0.50188 1.01935 0.46359 0.0
C236 C 0.58066 0.0497 0.64897 0.0
C237 C 0.61883 0.06786 0.89999 0.0
C238 C 0.65572 1.02545 0.90025 0.0
C239 C 0.62541 0.03632 0.90828 0.0
C240 C 0.67896 0.04667 0.87489 0.0
C241 C 0.64249 0.08836 0.87595 0.0
C242 C 0.67223 0.07768 0.86157 0.0
C243 C 0.54236 0.9952 0.84952 0.0
C244 C 0.58728 0.07968 0.90944 0.0
C245 C 0.47451 0.16824 0.9622 0.0
C246 C 0.46205 0.1456 0.02622 0.0
C247 C 0.48321 0.02872 0.75262 0.0
C248 C 0.44825 1.01367 0.48818 0.0
C249 C 0.44332 0.04564 0.48441 0.0
C250 C 0.41382 0.05807 0.49823 0.0
C251 C 0.38952 0.03768 0.52033 0.0
C252 C 0.42356 0.99409 0.50907 0.0
C253 C 0.39448 1.00612 0.52634 0.0
C254 C 0.51828 0.0823 0.55907 0.0
C255 C 0.47931 1.00055 0.4814 0.0
H256 H 0.60702 1.02033 0.92225 0.0
H257 H 0.70277 0.03993 0.87026 0.0
H258 H 0.63787 0.11267 0.86728 0.0
H259 H 0.69036 0.09367 0.8431 0.0
H260 H 0.46239 0.06077 0.46996 0.0
H261 H 0.36616 0.04562 0.52821 0.0
H262 H 0.42691 0.96947 0.51393 0.0
H263 H 0.37555 0.99085 0.54252 0.0
Tb264 Tb 0.57047 0.53132 0.58597 0.0
C265 C 0.4493 0.48089 0.74062 0.0
C266 C 0.40871 0.50431 0.63907 0.0
C267 C 0.40233 0.45238 0.70309 0.0
C268 C 0.43846 0.50534 0.68392 0.0
C269 C 0.43105 0.45447 0.75399 0.0
C270 C 0.39118 0.47728 0.64553 0.0
C271 C 0.46923 0.436 0.87687 0.0
N272 N 0.47695 0.48401 0.78919 0.0
C273 C 0.48652 0.46258 0.86061 0.0
C274 C 0.44165 0.4316 0.82159 0.0
Tb275 Tb 0.50434 0.52793 0.75447 0.0
N276 N 0.45597 0.53116 0.68115 0.0
C277 C 0.44336 0.55789 0.64567 0.0
C278 C 0.39691 0.53094 0.59393 0.0
C279 C 0.41404 0.55804 0.59965 0.0
H280 H 0.50815 0.46549 0.90187 0.0
H281 H 0.40469 0.57911 0.56869 0.0
H282 H 0.36849 0.47589 0.61008 0.0
H283 H 0.47733 0.4188 0.93121 0.0
H284 H 0.45565 0.5793 0.65102 0.0
H285 H 0.6648 0.47675 0.79434 0.0
H286 H 0.3742 0.53114 0.55846 0.0
H287 H 0.57111 0.59395 0.43895 0.0
H288 H 0.61535 0.47811 0.70373 0.0
H289 H 0.604 0.63949 0.41563 0.0
H290 H 0.38811 0.43211 0.71105 0.0
H291 H 0.69771 0.52305 0.80348 0.0
H292 H 0.7069 0.57742 0.74846 0.0
H293 H 0.42831 0.41097 0.83416 0.0
H294 H 0.69044 0.62185 0.64451 0.0
N295 N 0.61792 0.52586 0.66597 0.0
C296 C 0.62848 0.49901 0.70801 0.0
C297 C 0.6756 0.52401 0.76389 0.0
C298 C 0.66588 0.55068 0.71383 0.0
C299 C 0.65708 0.49787 0.75894 0.0
C300 C 0.63678 0.55073 0.66396 0.0
H301 H 0.65239 0.64494 0.51811 0.0
N302 N 0.60032 0.57385 0.55479 0.0
C303 C 0.61087 0.6218 0.47003 0.0
C304 C 0.62761 0.57566 0.60634 0.0
C305 C 0.59238 0.59587 0.4831 0.0
C306 C 0.63809 0.62484 0.52828 0.0
C307 C 0.64708 0.60134 0.59592 0.0
O308 O 0.58652 0.53275 0.43036 0.0
O309 O 0.5212 0.52465 0.59509 0.0
O310 O 0.51257 0.4822 0.68328 0.0
O311 O 0.56501 0.48525 0.65929 0.0
O312 O 0.53705 0.54729 0.46772 0.0
O313 O 0.58032 0.48947 0.50673 0.0
O314 O 0.49181 0.52595 0.91356 0.0
O315 O 0.55309 0.53646 0.74259 0.0
O316 O 0.56033 0.57799 0.6477 0.0
O317 O 0.50823 0.57435 0.68327 0.0
O318 O 0.53998 0.51416 0.87197 0.0
O319 O 0.48978 0.56878 0.83103 0.0
C320 C 0.51273 0.53649 0.50908 0.0
C321 C 0.56442 0.49364 0.3278 0.0
C322 C 0.51693 0.47052 0.25947 0.0
C323 C 0.53692 0.47759 0.34442 0.0
C324 C 0.52426 0.48122 0.15841 0.0
C325 C 0.57131 0.50376 0.22633 0.0
C326 C 0.55108 0.49784 0.14263 0.0
C327 C 0.53977 0.46896 0.67753 0.0
C328 C 0.5842 0.50321 0.41715 0.0
C329 C 0.67531 0.60218 0.65028 0.0
C330 C 0.68468 0.57688 0.70933 0.0
C331 C 0.56348 0.52551 0.82676 0.0
C332 C 0.50797 0.56923 1.00892 0.0
C333 C 0.53185 0.58997 0.98825 0.0
C334 C 0.55157 0.60026 0.07015 0.0
C335 C 0.54767 0.58866 0.17235 0.0
C336 C 0.50406 0.55861 0.11189 0.0
C337 C 0.52412 0.56799 0.19258 0.0
C338 C 0.53302 0.59083 0.66023 0.0
C339 C 0.48925 0.5556 0.92284 0.0
H340 H 0.53108 0.47065 0.42351 0.0
H341 H 0.50989 0.47597 0.09032 0.0
H342 H 0.5919 0.51702 0.21256 0.0
H343 H 0.55602 0.5063 0.06525 0.0
H344 H 0.5352 0.59802 0.90865 0.0
H345 H 0.56207 0.59638 0.23786 0.0
H346 H 0.4861 0.54224 0.12911 0.0
H347 H 0.52153 0.55906 0.27095 0.0
Tb348 Tb 0.0405 0.56691 0.63437 0.0
C349 C 0.06807 0.44394 0.80443 0.0
C350 C 0.04486 0.40752 0.68144 0.0
C351 C 0.09219 0.3943 0.77233 0.0
C352 C 0.04529 0.43667 0.73266 0.0
C353 C 0.09103 0.42234 0.82917 0.0
C354 C 0.06916 0.38694 0.698 0.0
C355 C 0.10711 0.45586 0.97382 0.0
N356 N 0.06588 0.47112 0.85777 0.0
C357 C 0.08407 0.47657 0.9456 0.0
C358 C 0.11103 0.42888 0.91388 0.0
Tb359 Tb 0.02736 0.50429 0.80595 0.0
N360 N 1.02181 0.45684 0.72209 0.0
C361 C 0.9955 0.44745 0.6708 0.0
C362 C 1.01917 0.39919 0.6206 0.0
C363 C 0.99401 0.41888 0.61797 0.0
H364 H 0.08158 0.49784 0.98999 0.0
H365 H 0.97341 0.41212 0.57504 0.0
H366 H 0.06948 0.36467 0.658 0.0
H367 H 0.122 0.46088 0.04095 0.0
H368 H 0.97535 0.46163 0.66853 0.0
H369 H 0.11797 0.62569 0.92029 0.0
H370 H 1.01791 0.37706 0.57983 0.0
H371 H 0.97712 0.59373 0.51453 0.0
H372 H 0.09395 0.58131 0.83831 0.0
H373 H 0.95149 0.64304 0.49182 0.0
H374 H 0.10996 0.37761 0.78861 0.0
H375 H 0.09845 0.67766 0.8854 0.0
H376 H 0.05891 0.71049 0.80179 0.0
H377 H 0.12888 0.41283 0.93571 0.0
H378 H 1.01271 0.71501 0.69114 0.0
N379 N 0.0637 0.60642 0.73608 0.0
C380 C 0.08664 0.6033 0.8108 0.0
C381 C 0.08858 0.658 0.8434 0.0
C382 C 0.0635 0.6613 0.77548 0.0
C383 C 0.09979 0.62879 0.86258 0.0
C384 C 0.05123 0.63487 0.72296 0.0
H385 H 0.97233 0.6901 0.57816 0.0
N386 N 1.01218 0.61147 0.61925 0.0
C387 C 0.97188 0.64181 0.54107 0.0
C388 C 1.02462 0.63739 0.66328 0.0
C389 C 0.9866 0.6137 0.55527 0.0
C390 C 0.98377 0.66828 0.58948 0.0
C391 C 1.01047 0.66639 0.65087 0.0
O392 O 1.02227 0.5625 0.48056 0.0
O393 O 0.02959 0.5178 0.64425 0.0
O394 O 0.07802 0.50942 0.77937 0.0
O395 O 0.08716 0.55393 0.68238 0.0
O396 O 0.06461 0.52905 0.55042 0.0
O397 O 0.06021 0.59325 0.51515 0.0
O398 O 1.02138 0.4895 0.96155 0.0
O399 O 1.02508 0.55356 0.78672 0.0
O400 O 0.99112 0.56337 0.66896 0.0
O401 O 0.9846 0.51234 0.71114 0.0
O402 O 0.04006 0.53948 0.92869 0.0
O403 O 0.9826 0.49617 0.86121 0.0
C404 C 0.04833 0.50625 0.57931 0.0
C405 C 0.06034 0.56517 0.35367 0.0
C406 C 0.10187 0.53043 0.30726 0.0
C407 C 0.08992 0.55377 0.37211 0.0
C408 C 0.08531 0.52092 0.21662 0.0
C409 C 0.04452 0.55635 0.26114 0.0
C410 C 0.05711 0.53437 0.19258 0.0
C411 C 0.09691 0.53004 0.73777 0.0
C412 C 0.04358 0.57981 0.44103 0.0
C413 C 1.02328 0.69265 0.69992 0.0
C414 C 0.04968 0.6901 0.76232 0.0
C415 C 0.03325 0.5635 0.87672 0.0
C416 C 0.97909 0.51196 0.04078 0.0
C417 C 0.96654 0.5408 1.01701 0.0
C418 C 0.95573 0.56034 0.09807 0.0
C419 C 0.95882 0.55102 0.20386 0.0
C420 C 0.98165 0.50303 0.14639 0.0
C421 C 0.97174 0.52262 0.22752 0.0
C422 C 0.97334 0.53888 0.67757 0.0
C423 C 0.99197 0.49205 0.95747 0.0
H424 H 0.10228 0.56059 0.44359 0.0
H425 H 0.09425 0.50313 0.1648 0.0
H426 H 1.02186 0.56529 0.24504 0.0
H427 H 0.04443 0.52679 0.12325 0.0
H428 H 0.96458 0.54784 0.93545 0.0
H429 H 0.94998 0.565 0.26846 0.0
H430 H 0.9918 0.48111 0.16607 0.0
H431 H 0.97372 0.51567 0.30896 0.0
H432 H 0.16298 0.10527 0.21281 0.0
H433 H 0.22376 0.03308 0.31161 0.0
H434 H 0.18708 1.01819 0.44765 0.0
H435 H 0.13757 1.02638 0.54142 0.0
H436 H 0.07653 0.09757 0.43628 0.0
H437 H 0.11297 0.11187 0.29979 0.0
C438 C 0.16809 0.08607 0.26349 0.0
C439 C 0.19615 0.07033 0.25159 0.0
C440 C 0.14674 0.07753 0.34103 0.0
C441 C 0.20234 0.04551 0.31814 0.0
C442 C 0.18138 0.0371 0.39653 0.0
C443 C 0.13247 0.04523 0.48939 0.0
C444 C 0.10438 0.0611 0.49996 0.0
C445 C 0.15357 0.05311 0.40956 0.0
C446 C 0.09782 0.08492 0.4298 0.0
C447 C 0.11874 0.09317 0.35181 0.0
H448 H 0.52074 0.17156 0.16384 0.0
H449 H 0.49906 0.23751 0.41076 0.0
H450 H 0.49366 0.19635 0.53726 0.0
H451 H 0.49933 0.14225 0.58313 0.0
H452 H 0.52465 0.07577 0.3425 0.0
H453 H 0.52324 0.11571 0.20932 0.0
C454 C 0.51419 0.17675 0.2447 0.0
C455 C 0.51021 0.20772 0.27753 0.0
C456 C 0.51207 0.15273 0.3192 0.0
C457 C 0.50221 0.21397 0.38326 0.0
C458 C 0.49921 0.1904 0.45604 0.0
C459 C 0.50507 0.13644 0.50216 0.0
C460 C 0.51356 0.10604 0.47524 0.0
C461 C 0.50497 0.15979 0.42595 0.0
C462 C 0.51901 0.09899 0.36759 0.0
C463 C 0.51816 0.12195 0.29066 0.0
H464 H 0.39656 0.5709 0.23442 0.0
H465 H 0.37803 0.47399 0.2558 0.0
H466 H 0.42331 0.46805 0.37149 0.0
H467 H 0.46981 0.49076 0.46317 0.0
H468 H 0.4888 0.58718 0.42618 0.0
H469 H 0.44246 0.59291 0.31958 0.0
C470 C 0.40271 0.54834 0.26295 0.0
C471 C 0.38411 0.52291 0.23528 0.0
C472 C 0.42907 0.54506 0.32714 0.0
C473 C 0.39224 0.49389 0.27396 0.0
C474 C 0.41808 0.49055 0.34074 0.0
C475 C 0.46331 0.51308 0.43353 0.0
C476 C 0.48203 0.53895 0.4573 0.0
C477 C 0.43687 0.51599 0.36775 0.0
C478 C 0.4741 0.56734 0.41366 0.0
C479 C 0.44779 0.57053 0.3511 0.0
H480 H 0.99797 0.40126 0.26718 0.0
H481 H 0.09147 0.37011 0.28793 0.0
H482 H 0.10438 0.41465 0.4031 0.0
H483 H 0.08814 0.46172 0.50601 0.0
H484 H 0.99462 0.49249 0.47919 0.0
H485 H 0.98286 0.44963 0.35716 0.0
C486 C 1.02131 0.40438 0.29578 0.0
C487 C 0.04368 0.38219 0.26852 0.0
C488 C 0.02852 0.43011 0.36165 0.0
C489 C 0.07379 0.38675 0.30661 0.0
C490 C 0.08112 0.41221 0.37319 0.0
C491 C 0.06518 0.45886 0.47364 0.0
C492 C 0.04193 0.4797 0.50507 0.0
C493 C 0.05856 0.43387 0.40273 0.0
C494 C 1.01263 0.47633 0.45919 0.0
C495 C 1.00595 0.45183 0.38889 0.0
H496 H 0.90882 0.99182 0.25409 0.0
H497 H 0.84148 0.04385 0.08254 0.0
H498 H 0.8796 0.05508 0.9464 0.0
H499 H 0.9321 0.04791 0.87222 0.0
H500 H 0.99953 0.99936 0.05524 0.0
H501 H 0.96155 0.98896 0.18956 0.0
C502 C 0.90255 1.00594 0.18749 0.0
C503 C 0.8723 1.01696 0.17873 0.0
C504 C 0.92468 1.01264 0.11056 0.0
C505 C 0.86463 0.03529 0.09196 0.0
C506 C 0.88642 0.04152 1.01363 0.0
C507 C 0.93855 0.0351 0.94146 0.0
C508 C 0.96885 1.02372 0.95131 0.0
C509 C 0.91653 0.02997 1.02127 0.0
C510 C 0.97657 1.00782 0.04349 0.0
C511 C 0.95481 1.00198 0.12111 0.0
H512 H 0.57789 0.91494 0.24791 0.0
H513 H 0.52657 0.84585 0.07345 0.0
H514 H 0.51603 0.88281 0.93311 0.0
H515 H 0.52305 0.93462 0.85784 0.0
H516 H 0.56945 1.00494 0.04341 0.0
H517 H 0.57979 0.96803 0.18154 0.0
C518 C 0.56403 0.90813 0.17989 0.0
C519 C 0.55303 0.87766 0.17138 0.0
C520 C 0.55746 0.92974 0.10082 0.0
C521 C 0.53502 0.8692 0.08272 0.0
C522 C 0.5292 0.89031 1.00202 0.0
C523 C 0.53588 0.94182 0.9273 0.0
C524 C 0.54685 0.97242 0.9363 0.0
C525 C 0.54069 0.92059 1.00944 0.0
C526 C 0.56167 0.98149 0.03125 0.0
C527 C 0.56746 0.96035 0.11126 0.0
H528 H 0.67688 0.59159 0.05215 0.0
H529 H 0.68911 0.50193 0.18524 0.0
H530 H 0.64384 0.48298 0.08592 0.0
H531 H 0.60052 0.49216 0.9593 0.0
H532 H 0.58983 0.58225 0.8277 0.0
H533 H 0.63502 0.60042 0.92522 0.0
C534 C 0.66969 0.56784 0.05956 0.0
C535 C 0.68642 0.54827 0.12658 0.0
C536 C 0.64393 0.55711 1.00141 0.0
C537 C 0.67678 0.51754 0.13453 0.0
C538 C 0.65084 0.50672 0.0776 0.0
C539 C 0.60803 0.51582 0.9528 0.0
C540 C 0.59183 0.53572 0.88503 0.0
C541 C 0.63416 0.52632 1.01075 0.0
C542 C 0.602 0.56625 0.87721 0.0
C543 C 0.62779 0.57675 0.93393 0.0
H544 H 0.9878 0.69669 1.01651 0.0
H545 H 0.05601 0.68554 0.26126 0.0
H546 H 0.06693 0.63322 0.19261 0.0
H547 H 0.05882 0.59157 0.05435 0.0
H548 H 0.98765 0.60311 0.81993 0.0
H549 H 0.97618 0.65403 0.89257 0.0
C550 C 1.00497 0.68278 0.05563 0.0
C551 C 1.02122 0.69528 0.14366 0.0
C552 C 1.01083 0.65278 1.01626 0.0
C553 C 0.04314 0.67669 0.19361 0.0
C554 C 0.04944 0.64676 0.15384 0.0
C555 C 0.04071 0.60523 1.01962 0.0
C556 C 1.02515 0.59393 0.92775 0.0
C557 C 0.03374 0.63468 0.06399 0.0
C558 C 1.00111 0.61161 0.88644 0.0
C559 C 0.99429 0.64075 0.92897 0.0
H560 H 0.98299 0.26449 0.38206 0.0
H561 H 0.07076 0.21969 0.40435 0.0
H562 H 0.0536 0.19134 0.5584 0.0
H563 H 1.01064 0.17181 0.65915 0.0
H564 H 0.9206 0.21061 0.61768 0.0
H565 H 0.94166 0.25003 0.50351 0.0
C566 C 0.99846 0.24912 0.42293 0.0
C567 C 0.02785 0.24373 0.38261 0.0
C568 C 0.98791 0.23191 0.50792 0.0
C569 C 0.04793 0.22378 0.43457 0.0
C570 C 0.03813 0.20765 0.52222 0.0
C571 C 0.99588 0.18956 0.62765 0.0
C572 C 0.96412 0.188 0.6442 0.0
C573 C 1.00771 0.21042 0.55592 0.0
C574 C 0.94513 0.2113 0.60526 0.0
C575 C 0.9571 0.2335 0.53859 0.0
H576 H 0.36919 0.15072 0.19174 0.0
H577 H 0.28904 0.13116 0.37534 0.0
H578 H 0.32083 0.12181 0.52797 0.0
H579 H 0.36836 0.09544 0.57773 0.0
H580 H 0.44473 0.09693 0.36279 0.0
H581 H 0.41961 0.13623 0.26113 0.0
C582 C 0.35851 0.14405 0.2648 0.0
C583 C 0.32712 0.13605 0.26552 0.0
C584 C 0.3772 0.13399 0.34804 0.0
C585 C 0.31349 0.13363 0.36609 0.0
C586 C 0.33181 0.128 0.45486 0.0
C587 C 0.37969 0.10446 0.50897 0.0
C588 C 0.40707 0.09089 0.47297 0.0
C589 C 0.36337 0.12384 0.44162 0.0
C590 C 0.42288 0.10537 0.39061 0.0
C591 C 0.40828 0.1278 0.33073 0.0
H592 H 0.43288 0.36617 0.11897 0.0
H593 H 0.49306 0.31974 0.33569 0.0
H594 H 0.50438 0.36811 0.42674 0.0
H595 H 0.51435 0.42193 0.39212 0.0
H596 H 0.461 0.46889 0.15532 0.0
H597 H 0.43069 0.42251 0.123 0.0
C598 C 0.44741 0.36658 0.18916 0.0
C599 C 0.46387 0.33995 0.21561 0.0
C600 C 0.45659 0.39497 0.23332 0.0
C601 C 0.48104 0.34014 0.31038 0.0
C602 C 0.4881 0.36803 0.36139 0.0
C603 C 0.49524 0.42275 0.33685 0.0
C604 C 0.49121 0.44837 0.27173 0.0
C605 C 0.47883 0.39563 0.31539 0.0
C606 C 0.4658 0.44886 0.20224 0.0
C607 C 0.44826 0.42238 0.18424 0.0
H608 H 0.22219 0.45649 0.29103 0.0
H609 H 0.25809 0.5473 0.35228 0.0
H610 H 0.20828 0.56437 0.41631 0.0
H611 H 0.15315 0.55831 0.38556 0.0
H612 H 0.11625 0.46927 0.29573 0.0
H613 H 0.16732 0.44676 0.30781 0.0
C614 C 0.21936 0.47946 0.32472 0.0
C615 C 0.24283 0.50116 0.31185 0.0
C616 C 0.18989 0.48989 0.34871 0.0
C617 C 0.23984 0.53051 0.35858 0.0
C618 C 0.2111 0.54048 0.3923 0.0
C619 C 0.15607 0.53378 0.37225 0.0
C620 C 0.13127 0.51569 0.33565 0.0
C621 C 0.18554 0.52125 0.37643 0.0
C622 C 0.13533 0.48388 0.31961 0.0
C623 C 0.16444 0.47094 0.32772 0.0
H624 H 0.93951 0.86754 0.2413 0.0
H625 H 0.96259 0.78612 0.05929 0.0
H626 H 0.97604 0.81704 0.91111 0.0
H627 H 1.00384 0.86469 0.87221 0.0
H628 H 0.98968 0.94508 0.06964 0.0
H629 H 0.95094 0.9183 0.16874 0.0
C630 C 0.94701 0.85645 0.16854 0.0
C631 C 0.95492 0.825 0.16813 0.0
C632 C 0.95791 0.87472 0.08666 0.0
C633 C 0.95959 0.8107 0.06811 0.0
C634 C 0.96773 0.82849 0.98214 0.0
C635 C 0.9916 0.87665 0.93488 0.0
C636 C 1.00151 0.90597 0.9695 0.0
C637 C 0.97093 0.8603 0.99664 0.0
C638 C 0.9838 0.92196 0.04494 0.0
C639 C 0.96164 0.90648 0.10252 0.0
H640 H 0.69944 0.93508 0.22559 0.0
H641 H 0.78156 0.9525 0.0501 0.0
H642 H 0.75125 0.96282 0.89449 0.0
H643 H 0.70422 0.98913 0.83725 0.0
H644 H 0.62609 0.98921 0.04475 0.0
H645 H 0.65014 0.95085 0.15242 0.0
C646 C 0.71094 0.94176 0.15412 0.0
C647 C 0.7425 0.94901 0.15656 0.0
C648 C 0.69318 0.95211 0.06901 0.0
C649 C 0.75697 0.95099 0.05722 0.0
C650 C 0.73953 0.95709 0.96671 0.0
C651 C 0.69227 0.9807 0.90566 0.0
C652 C 0.66408 0.99386 0.93562 0.0
C653 C 0.70794 0.96181 0.97656 0.0
C654 C 0.64797 0.98042 1.01932 0.0
C655 C 0.66206 0.95863 0.08303 0.0
H656 H 0.62802 0.71217 0.19697 0.0
H657 H 0.55447 0.75464 0.02381 0.0
H658 H 0.54443 0.70657 0.92823 0.0
H659 H 0.54247 0.651 0.95244 0.0
H660 H 0.6098 0.60745 0.15188 0.0
H661 H 0.6359 0.6566 0.18 0.0
C662 C 0.61082 0.71116 0.13435 0.0
C663 C 0.59069 0.73614 0.12243 0.0
C664 C 0.60285 0.68254 0.08905 0.0
C665 C 0.56959 0.73536 0.03766 0.0
C666 C 0.56333 0.70756 0.98452 0.0
C667 C 0.56363 0.6519 0.99817 0.0
C668 C 0.57341 0.62592 0.05385 0.0
C669 C 0.5775 0.68051 1.01864 0.0
C670 C 0.60111 0.62747 0.11168 0.0
C671 C 0.61611 0.65556 0.12751 0.0
H672 H 0.85008 0.63469 0.22834 0.0
H673 H 0.80937 0.57196 0.99961 0.0
H674 H 0.85753 0.5683 0.9061 0.0
H675 H 0.91205 0.56299 0.94491 0.0
H676 H 0.95382 0.61753 0.19577 0.0
H677 H 0.90549 0.64452 0.22409 0.0
C678 C 0.85146 0.62158 0.15463 0.0
C679 C 0.82715 0.60167 0.12579 0.0
C680 C 0.88021 0.61683 0.10849 0.0
C681 C 0.82824 0.58635 0.02692 0.0
C682 C 0.85612 0.58374 0.97427 0.0
C683 C 0.91115 0.58193 1.0019 0.0
C684 C 0.93567 0.58685 0.07338 0.0
C685 C 0.88277 0.59566 0.02267 0.0
C686 C 0.93456 0.61229 0.14362 0.0
C687 C 0.90685 0.62761 0.1602 0.0
H688 H 1.00418 0.20186 0.03942 0.0
H689 H 0.09298 0.23467 0.94677 0.0
H690 H 0.09845 0.18986 0.82648 0.0
H691 H 0.07907 0.13892 0.75537 0.0
H692 H 0.99024 0.10717 0.85218 0.0
H693 H 0.98364 0.15366 0.96152 0.0
C694 C 1.02465 0.19951 0.99198 0.0
C695 C 0.04816 0.22192 1.003 0.0
C696 C 0.02778 0.1734 0.92428 0.0
C697 C 0.07434 0.21825 0.93978 0.0
C698 C 0.07759 0.19233 0.8716 0.0
C699 C 0.05841 0.14217 0.8012 0.0
C700 C 0.03564 0.11886 0.79869 0.0
C701 C 0.05474 0.16933 0.86469 0.0
C702 C 1.00853 0.12407 0.85538 0.0
C703 C 1.00467 0.15084 0.91751 0.0
H704 H 0.36652 0.10473 0.90404 0.0
H705 H 0.34196 1.0165 0.0284 0.0
H706 H 0.38806 0.99373 0.95028 0.0
H707 H 0.43769 0.99969 0.85796 0.0
H708 H 0.46162 0.08782 0.73234 0.0
H709 H 0.41404 0.10982 0.80067 0.0
C710 C 0.37101 0.0804 0.91316 0.0
C711 C 0.35051 0.06245 0.97275 0.0
C712 C 0.39798 0.06756 0.8696 0.0
C713 C 0.35683 0.0309 0.98232 0.0
C714 C 0.38351 1.01793 0.93862 0.0
C715 C 0.43248 1.02375 0.84574 0.0
C716 C 0.45399 0.04236 0.79363 0.0
C717 C 0.40463 0.03616 0.88417 0.0
C718 C 0.44631 0.07322 0.77563 0.0
C719 C 0.41883 0.08574 0.81392 0.0
H720 H 0.55218 0.34913 0.94808 0.0
H721 H 0.47028 0.32466 0.77362 0.0
H722 H 0.47683 0.36941 0.6612 0.0
H723 H 0.50123 0.42024 0.63219 0.0
H724 H 0.58277 0.44491 0.80955 0.0
H725 H 0.58126 0.39571 0.8995 0.0
C726 C 0.5367 0.35269 0.88183 0.0
C727 C 0.51123 0.33282 0.8676 0.0
C728 C 0.54016 0.37918 0.81936 0.0
C729 C 0.49061 0.33877 0.78425 0.0
C730 C 0.49407 0.3648 0.7211 0.0
C731 C 0.51919 0.41442 0.68821 0.0
C732 C 0.54223 0.43638 0.71334 0.0
C733 C 0.51807 0.38587 0.74061 0.0
C734 C 0.56511 0.42846 0.78701 0.0
C735 C 0.56405 0.40032 0.83953 0.0
H736 H 0.23391 0.54698 0.90374 0.0
H737 H 0.22635 0.44903 0.93868 0.0
H738 H 0.17656 0.44913 0.84802 0.0
H739 H 0.13161 0.47832 0.78089 0.0
H740 H 0.1404 0.57594 0.73815 0.0
H741 H 0.19275 0.57463 0.80648 0.0
C742 C 0.22211 0.52545 0.88673 0.0
C743 C 0.23448 0.49791 0.92645 0.0
C744 C 0.19291 0.52577 0.83588 0.0
C745 C 0.21803 0.47042 0.90664 0.0
C746 C 0.18912 0.47058 0.85647 0.0
C747 C 0.14487 0.49932 0.78722 0.0
C748 C 0.13092 0.52749 0.76029 0.0
C749 C 0.17568 0.49831 0.82475 0.0
C750 C 0.14955 0.55405 0.76233 0.0
C751 C 0.17983 0.55333 0.80109 0.0
H752 H 0.99903 0.85356 0.57385 0.0
H753 H 0.06431 0.85621 0.32127 0.0
H754 H 0.08159 0.90729 0.38263 0.0
H755 H 0.07479 0.95371 0.49937 0.0
H756 H 1.01044 0.95016 0.75446 0.0
H757 H 0.99696 0.89716 0.70387 0.0
C758 C 1.01792 0.86477 0.53484 0.0
C759 C 0.0309 0.85043 0.44434 0.0
C760 C 0.02762 0.89444 0.57045 0.0
C761 C 0.05459 0.86602 0.39282 0.0
C762 C 0.06415 0.89556 0.42713 0.0
C763 C 0.05776 0.9413 0.54367 0.0
C764 C 0.04256 0.9566 0.62792 0.0
C765 C 0.05026 0.91044 0.51415 0.0
C766 C 1.02162 0.93957 0.68706 0.0
C767 C 1.01412 0.90903 0.65861 0.0
H768 H 0.7035 0.97966 0.52608 0.0
H769 H 0.7224 0.06669 0.3823 0.0
H770 H 0.67475 0.08772 0.45416 0.0
H771 H 0.62513 0.07996 0.54359 0.0
H772 H 0.60639 0.9933 0.68925 0.0
H773 H 0.65627 0.9736 0.63133 0.0
C774 C 0.69748 1.00342 0.51194 0.0
C775 C 0.71676 1.0215 0.44828 0.0
C776 C 0.66966 1.01525 0.55227 0.0
C777 C 0.70846 0.05228 0.43166 0.0
C778 C 0.68092 0.06423 0.47179 0.0
C779 C 0.632 0.05675 0.56267 0.0
C780 C 0.61141 0.03766 0.6168 0.0
C781 C 0.66092 0.04569 0.52968 0.0
C782 C 0.62116 1.00804 0.64406 0.0
C783 C 0.64985 0.99688 0.61165 0.0
H784 H 0.50867 0.71767 0.43777 0.0
H785 H 0.60107 0.73452 0.54679 0.0
H786 H 0.60016 0.68709 0.64755 0.0
H787 H 0.57592 0.63683 0.68236 0.0
H788 H 0.48292 0.62042 0.57784 0.0
H789 H 0.48104 0.67131 0.49983 0.0
C790 C 0.52801 0.71174 0.48782 0.0
C791 C 0.55469 0.73018 0.48629 0.0
C792 C 0.52752 0.68386 0.54439 0.0
C793 C 0.57998 0.72135 0.54869 0.0
C794 C 0.57964 0.69386 0.60504 0.0
C795 C 0.55503 0.64459 0.64416 0.0
C796 C 0.52986 0.62421 0.63377 0.0
C797 C 0.55399 0.67429 0.60007 0.0
C798 C 0.50283 0.63512 0.58596 0.0
C799 C 0.50176 0.66439 0.54087 0.0
H800 H 0.8439 0.58651 0.52389 0.0
H801 H 0.83823 0.4955 0.38537 0.0
H802 H 0.88582 0.48112 0.47762 0.0
H803 H 0.93331 0.49712 0.57866 0.0
H804 H 0.93836 0.58941 0.70932 0.0
H805 H 0.88734 0.60042 0.64032 0.0
C806 C 0.85246 0.56315 0.51698 0.0
C807 C 0.83704 0.54202 0.44866 0.0
C808 C 0.88042 0.55546 0.56738 0.0
C809 C 0.849 0.51206 0.43902 0.0
C810 C 0.87662 0.50401 0.4906 0.0
C811 C 0.92291 0.51936 0.59407 0.0
C812 C 0.94005 0.54248 0.6488 0.0
C813 C 0.8932 0.52585 0.55222 0.0
C814 C 0.92611 0.57127 0.66671 0.0
C815 C 0.89677 0.57762 0.62723 0.0
loop_
_geom_bond_atom_site_label_1
_geom_bond_atom_site_label_2
_geom_bond_distance
_geom_bond_site_symmetry_2
_ccdc_geom_bond_type
H0 C5 0.930 . S
H1 C8 0.930 . S
H2 C10 0.930 . S
H3 C4 1.016 . S
C4 H3 1.016 . S
C4 N11 1.286 . S
C5 H0 0.930 . S
C5 C6 1.397 . S
C5 C7 1.361 . S
C6 C5 1.397 . S
C6 C10 1.390 . S
C7 C5 1.361 . S
C7 C8 1.393 . S
C7 N11 1.413 . S
C8 H1 0.930 . S
C8 C7 1.393 . S
C8 C9 1.399 . S
C9 C8 1.399 . S
C9 C10 1.381 . S
C10 H2 0.930 . S
C10 C6 1.390 . S
C10 C9 1.381 . S
N11 C4 1.286 . S
N11 C7 1.413 . S
H12 C17 0.930 . S
H13 C20 0.930 . S
H14 C22 0.930 . S
H15 C16 1.016 . S
C16 H15 1.016 . S
C16 N23 1.286 . S
C17 H12 0.930 . S
C17 C18 1.397 . S
C17 C19 1.361 . S
C18 C17 1.397 . S
C18 C22 1.390 . S
C19 C17 1.361 . S
C19 C20 1.393 . S
C19 N23 1.413 . S
C20 H13 0.930 . S
C20 C19 1.393 . S
C20 C21 1.399 . S
C21 C20 1.399 . S
C21 C22 1.381 . S
C22 H14 0.930 . S
C22 C18 1.390 . S
C22 C21 1.381 . S
N23 C16 1.286 . S
N23 C19 1.413 . S
H24 C29 0.930 . S
H25 C32 0.930 . S
H26 C34 0.930 . S
H27 C28 1.016 . S
C28 H27 1.016 . S
C28 N35 1.286 . S
C29 H24 0.930 . S
C29 C30 1.397 . S
C29 C31 1.361 . S
C30 C29 1.397 . S
C30 C34 1.390 . S
C31 C29 1.361 . S
C31 C32 1.393 . S
C31 N35 1.413 . S
C32 H25 0.930 . S
C32 C31 1.393 . S
C32 C33 1.399 . S
C33 C32 1.399 . S
C33 C34 1.381 . S
C34 H26 0.930 . S
C34 C30 1.390 . S
C34 C33 1.381 . S
N35 C28 1.286 . S
N35 C31 1.413 . S
H36 C41 0.930 . S
H37 C44 0.930 . S
H38 C46 0.930 . S
H39 C40 1.016 . S
C40 H39 1.016 . S
C40 N47 1.286 . S
C41 H36 0.930 . S
C41 C42 1.397 . S
C41 C43 1.361 . S
C42 C41 1.397 . S
C42 C46 1.390 . S
C43 C41 1.361 . S
C43 C44 1.393 . S
C43 N47 1.413 . S
C44 H37 0.930 . S
C44 C43 1.393 . S
C44 C45 1.399 . S
C45 C44 1.399 . S
C45 C46 1.381 . S
C46 H38 0.930 . S
C46 C42 1.390 . S
C46 C45 1.381 . S
N47 C40 1.286 . S
N47 C43 1.413 . S
H48 C53 0.930 . S
H49 C56 0.930 . S
H50 C58 0.930 . S
H51 C52 1.016 . S
C52 H51 1.016 . S
C52 N59 1.286 . S
C53 H48 0.930 . S
C53 C54 1.397 . S
C53 C55 1.361 1_556 S
C54 C53 1.397 . S
C54 C58 1.390 . S
C55 C53 1.361 1_554 S
C55 C56 1.393 . S
C55 N59 1.413 . S
C56 H49 0.930 . S
C56 C55 1.393 . S
C56 C57 1.399 . S
C57 C56 1.399 . S
C57 C58 1.381 1_554 S
C58 H50 0.930 . S
C58 C54 1.390 . S
C58 C57 1.381 1_556 S
N59 C52 1.286 . S
N59 C55 1.413 . S
H60 C65 0.930 . S
H61 C68 0.930 . S
H62 C70 0.930 . S
H63 C64 1.016 . S
C64 H63 1.016 . S
C64 N71 1.286 . S
C65 H60 0.930 . S
C65 C66 1.397 . S
C65 C67 1.361 1_556 S
C66 C65 1.397 . S
C66 C70 1.390 . S
C67 C65 1.361 1_554 S
C67 C68 1.393 . S
C67 N71 1.413 . S
C68 H61 0.930 . S
C68 C67 1.393 . S
C68 C69 1.399 . S
C69 C68 1.399 . S
C69 C70 1.381 1_554 S
C70 H62 0.930 . S
C70 C66 1.390 . S
C70 C69 1.381 1_556 S
N71 C64 1.286 . S
N71 C67 1.413 . S
H72 C77 0.930 . S
H73 C80 0.930 . S
H74 C82 0.930 . S
H75 C76 1.016 . S
C76 H75 1.016 . S
C76 N83 1.286 . S
C77 H72 0.930 . S
C77 C78 1.397 . S
C77 C79 1.361 1_556 S
C78 C77 1.397 . S
C78 C82 1.390 . S
C79 C77 1.361 1_554 S
C79 C80 1.393 . S
C79 N83 1.413 . S
C80 H73 0.930 . S
C80 C79 1.393 . S
C80 C81 1.399 . S
C81 C80 1.399 . S
C81 C82 1.381 1_554 S
C82 H74 0.930 . S
C82 C78 1.390 . S
C82 C81 1.381 1_556 S
N83 C76 1.286 . S
N83 C79 1.413 . S
H84 C89 0.930 . S
H85 C92 0.930 . S
H86 C94 0.930 . S
H87 C88 1.016 . S
C88 H87 1.016 . S
C88 N95 1.286 . S
C89 H84 0.930 . S
C89 C90 1.397 . S
C89 C91 1.361 1_556 S
C90 C89 1.397 . S
C90 C94 1.390 . S
C91 C89 1.361 1_554 S
C91 C92 1.393 . S
C91 N95 1.413 . S
C92 H85 0.930 . S
C92 C91 1.393 . S
C92 C93 1.399 . S
C93 C92 1.399 . S
C93 C94 1.381 1_554 S
C94 H86 0.930 . S
C94 C90 1.390 . S
C94 C93 1.381 1_556 S
N95 C88 1.286 . S
N95 C91 1.413 . S
Tb96 N127 2.660 1_565 S
Tb96 N134 2.600 1_565 S
Tb96 O140 2.546 . S
Tb96 O141 2.610 1_455 S
Tb96 O143 2.320 1_455 S
Tb96 O144 2.552 . S
Tb96 O145 2.413 . S
Tb96 O147 2.362 1_565 S
Tb96 O148 2.421 . S
Tb96 C160 2.833 . S
C97 C100 1.432 1_545 S
C97 C101 1.414 1_545 S
C97 N104 1.359 . S
C98 C100 1.417 . S
C98 C102 1.432 . S
C98 C110 1.410 . S
C99 C101 1.444 . S
C99 C102 1.317 . S
C99 H122 0.929 . S
C100 C97 1.432 1_565 S
C100 C98 1.417 . S
C100 N108 1.360 . S
C101 C97 1.414 1_565 S
C101 C99 1.444 . S
C101 C106 1.385 1_565 S
C102 C98 1.432 . S
C102 C99 1.317 . S
C102 H114 0.930 . S
C103 C105 1.392 . S
C103 C106 1.370 . S
C103 H115 0.931 . S
N104 C97 1.359 . S
N104 C105 1.327 . S
N104 Tb107 2.600 . S
C105 C103 1.392 . S
C105 N104 1.327 . S
C105 H112 0.930 . S
C106 C101 1.385 1_545 S
C106 C103 1.370 . S
C106 H125 0.930 . S
Tb107 N104 2.600 . S
Tb107 N108 2.660 1_545 S
Tb107 O141 2.362 1_545 S
Tb107 O142 2.421 . S
Tb107 O146 2.546 . S
Tb107 O147 2.610 1_655 S
Tb107 O149 2.320 1_655 S
Tb107 O150 2.552 1_655 S
Tb107 O151 2.413 . S
Tb107 C171 2.833 . S
N108 C100 1.360 . S
N108 Tb107 2.660 1_565 S
N108 C109 1.305 1_655 S
C109 N108 1.305 1_455 S
C109 C111 1.407 . S
C109 H116 0.930 . S
C110 C98 1.410 . S
C110 C111 1.345 1_655 S
C110 H118 0.930 . S
C111 C109 1.407 . S
C111 C110 1.345 1_455 S
C111 H113 0.930 . S
H112 C105 0.930 . S
H113 C111 0.930 . S
H114 C102 0.930 . S
H115 C103 0.931 . S
H116 C109 0.930 . S
H117 C131 0.930 1_655 S
H118 C110 0.930 . S
H119 C137 0.930 . S
H120 C128 0.930 1_655 S
H121 C135 0.931 . S
H122 C99 0.929 . S
H123 C129 0.930 . S
H124 C162 0.930 . S
H125 C106 0.930 . S
H126 C161 0.929 . S
N127 Tb96 2.660 1_545 S
N127 C128 1.305 . S
N127 C132 1.360 . S
C128 H120 0.930 1_455 S
C128 N127 1.305 . S
C128 C131 1.407 1_556 S
C129 H123 0.930 . S
C129 C130 1.410 . S
C129 C131 1.345 . S
C130 C129 1.410 . S
C130 C132 1.417 1_554 S
C130 C162 1.432 . S
C131 H117 0.930 1_455 S
C131 C128 1.407 1_554 S
C131 C129 1.345 . S
C132 N127 1.360 . S
C132 C130 1.417 1_556 S
C132 C136 1.432 . S
H133 C138 0.930 . S
N134 Tb96 2.600 1_545 S
N134 C136 1.359 . S
N134 C137 1.327 1_545 S
C135 H121 0.931 . S
C135 C137 1.392 . S
C135 C138 1.370 1_565 S
C136 C132 1.432 . S
C136 N134 1.359 . S
C136 C139 1.414 . S
C137 H119 0.930 . S
C137 N134 1.327 1_565 S
C137 C135 1.392 . S
C138 H133 0.930 . S
C138 C135 1.370 1_545 S
C138 C139 1.385 . S
C139 C136 1.414 . S
C139 C138 1.385 . S
C139 C161 1.444 1_556 S
O140 Tb96 2.546 . S
O140 C160 1.251 . S
O141 Tb96 2.610 1_655 S
O141 Tb107 2.362 1_565 S
O141 C152 1.283 . S
O142 Tb107 2.421 . S
O142 C159 1.262 . S
O143 Tb96 2.320 1_655 S
O143 C159 1.260 1_565 S
O144 Tb96 2.552 . S
O144 C152 1.243 1_455 S
O145 Tb96 2.413 . S
O145 C160 1.256 . S
O146 Tb107 2.546 . S
O146 C171 1.251 . S
O147 Tb96 2.362 1_545 S
O147 Tb107 2.610 1_455 S
O147 C163 1.283 . S
O148 Tb96 2.421 . S
O148 C170 1.262 1_565 S
O149 Tb107 2.320 1_455 S
O149 C170 1.260 . S
O150 Tb107 2.552 1_455 S
O150 C163 1.243 . S
O151 Tb107 2.413 . S
O151 C171 1.256 . S
C152 O141 1.283 . S
C152 O144 1.243 1_655 S
C153 C155 1.382 1_556 S
C153 C157 1.393 . S
C153 C160 1.500 . S
C154 C155 1.400 . S
C154 C156 1.384 . S
C155 C153 1.382 1_554 S
C155 C154 1.400 . S
C155 H172 0.930 . S
C156 C154 1.384 . S
C156 C158 1.392 . S
C156 H173 0.931 . S
C157 C153 1.393 . S
C157 C158 1.401 1_556 S
C157 H174 0.930 . S
C158 C156 1.392 . S
C158 C157 1.401 1_554 S
C158 H175 0.930 . S
C159 O142 1.262 . S
C159 O143 1.260 1_545 S
C160 Tb96 2.833 . S
C160 O140 1.251 . S
C160 O145 1.256 . S
C160 C153 1.500 . S
C161 H126 0.929 . S
C161 C139 1.444 1_554 S
C161 C162 1.317 . S
C162 H124 0.930 . S
C162 C130 1.432 . S
C162 C161 1.317 . S
C163 O147 1.283 . S
C163 O150 1.243 . S
C164 C165 1.382 . S
C164 C168 1.393 . S
C164 C171 1.500 . S
C165 C164 1.382 . S
C165 C166 1.400 . S
C165 H176 0.930 1_655 S
C166 C165 1.400 . S
C166 C167 1.384 . S
C167 C166 1.384 . S
C167 C169 1.392 . S
C167 H177 0.931 . S
C168 C164 1.393 . S
C168 C169 1.401 . S
C168 H178 0.930 . S
C169 C167 1.392 . S
C169 C168 1.401 . S
C169 H179 0.930 . S
C170 O148 1.262 1_545 S
C170 O149 1.260 . S
C171 Tb107 2.833 . S
C171 O146 1.251 . S
C171 O151 1.256 . S
C171 C164 1.500 . S
H172 C155 0.930 . S
H173 C156 0.931 . S
H174 C157 0.930 . S
H175 C158 0.930 . S
H176 C165 0.930 1_455 S
H177 C167 0.931 . S
H178 C168 0.930 . S
H179 C169 0.930 . S
Tb180 N211 2.660 . S
Tb180 N218 2.600 . S
Tb180 O224 2.546 . S
Tb180 O225 2.610 1_545 S
Tb180 O227 2.320 1_545 S
Tb180 O228 2.552 . S
Tb180 O229 2.413 . S
Tb180 O231 2.362 . S
Tb180 O232 2.421 . S
Tb180 C244 2.833 . S
C181 C184 1.432 . S
C181 C185 1.414 . S
C181 N188 1.359 . S
C182 C184 1.417 . S
C182 C186 1.432 . S
C182 C194 1.410 . S
C183 C185 1.444 . S
C183 C186 1.317 . S
C183 H206 0.929 . S
C184 C181 1.432 . S
C184 C182 1.417 . S
C184 N192 1.360 . S
C185 C181 1.414 . S
C185 C183 1.444 . S
C185 C190 1.385 . S
C186 C182 1.432 . S
C186 C183 1.317 . S
C186 H198 0.930 . S
C187 C189 1.392 . S
C187 C190 1.370 . S
C187 H199 0.931 . S
N188 C181 1.359 . S
N188 C189 1.327 . S
N188 Tb191 2.600 . S
C189 C187 1.392 . S
C189 N188 1.327 . S
C189 H196 0.930 . S
C190 C185 1.385 . S
C190 C187 1.370 . S
C190 H209 0.930 . S
Tb191 N188 2.600 . S
Tb191 N192 2.660 . S
Tb191 O225 2.362 . S
Tb191 O226 2.421 . S
Tb191 O230 2.546 . S
Tb191 O231 2.610 1_565 S
Tb191 O233 2.320 1_565 S
Tb191 O234 2.552 1_565 S
Tb191 O235 2.413 . S
Tb191 C255 2.833 . S
N192 C184 1.360 . S
N192 Tb191 2.660 . S
N192 C193 1.305 1_565 S
C193 N192 1.305 1_545 S
C193 C195 1.407 . S
C193 H200 0.930 . S
C194 C182 1.410 . S
C194 C195 1.345 1_565 S
C194 H202 0.930 . S
C195 C193 1.407 . S
C195 C194 1.345 1_545 S
C195 H197 0.930 . S
H196 C189 0.930 . S
H197 C195 0.930 . S
H198 C186 0.930 . S
H199 C187 0.931 . S
H200 C193 0.930 . S
H201 C215 0.930 1_565 S
H202 C194 0.930 . S
H203 C221 0.930 . S
H204 C212 0.930 1_565 S
H205 C219 0.931 . S
H206 C183 0.929 . S
H207 C213 0.930 . S
H208 C246 0.930 . S
H209 C190 0.930 . S
H210 C245 0.929 . S
N211 Tb180 2.660 . S
N211 C212 1.305 . S
N211 C216 1.360 . S
C212 H204 0.930 1_545 S
C212 N211 1.305 . S
C212 C215 1.407 1_556 S
C213 H207 0.930 . S
C213 C214 1.410 . S
C213 C215 1.345 . S
C214 C213 1.410 . S
C214 C216 1.417 1_554 S
C214 C246 1.432 . S
C215 H201 0.930 1_545 S
C215 C212 1.407 1_554 S
C215 C213 1.345 . S
C216 N211 1.360 . S
C216 C214 1.417 1_556 S
C216 C220 1.432 . S
H217 C222 0.930 . S
N218 Tb180 2.600 . S
N218 C220 1.359 . S
N218 C221 1.327 . S
C219 H205 0.931 . S
C219 C221 1.392 . S
C219 C222 1.370 . S
C220 C216 1.432 . S
C220 N218 1.359 . S
C220 C223 1.414 . S
C221 H203 0.930 . S
C221 N218 1.327 . S
C221 C219 1.392 . S
C222 H217 0.930 . S
C222 C219 1.370 . S
C222 C223 1.385 . S
C223 C220 1.414 . S
C223 C222 1.385 . S
C223 C245 1.444 1_556 S
O224 Tb180 2.546 . S
O224 C244 1.251 . S
O225 Tb180 2.610 1_565 S
O225 Tb191 2.362 . S
O225 C236 1.283 . S
O226 Tb191 2.421 . S
O226 C243 1.262 . S
O227 Tb180 2.320 1_565 S
O227 C243 1.260 . S
O228 Tb180 2.552 . S
O228 C236 1.243 1_545 S
O229 Tb180 2.413 . S
O229 C244 1.256 . S
O230 Tb191 2.546 . S
O230 C255 1.251 . S
O231 Tb180 2.362 . S
O231 Tb191 2.610 1_545 S
O231 C247 1.283 . S
O232 Tb180 2.421 . S
O232 C254 1.262 . S
O233 Tb191 2.320 1_545 S
O233 C254 1.260 . S
O234 Tb191 2.552 1_545 S
O234 C247 1.243 . S
O235 Tb191 2.413 . S
O235 C255 1.256 . S
C236 O225 1.283 . S
C236 O228 1.243 1_565 S
C237 C239 1.382 1_556 S
C237 C241 1.393 . S
C237 C244 1.500 . S
C238 C239 1.400 . S
C238 C240 1.384 . S
C239 C237 1.382 1_554 S
C239 C238 1.400 . S
C239 H256 0.930 . S
C240 C238 1.384 . S
C240 C242 1.392 . S
C240 H257 0.931 . S
C241 C237 1.393 . S
C241 C242 1.401 1_556 S
C241 H258 0.930 . S
C242 C240 1.392 . S
C242 C241 1.401 1_554 S
C242 H259 0.930 . S
C243 O226 1.262 . S
C243 O227 1.260 . S
C244 Tb180 2.833 . S
C244 O224 1.251 . S
C244 O229 1.256 . S
C244 C237 1.500 . S
C245 H210 0.929 . S
C245 C223 1.444 1_554 S
C245 C246 1.317 . S
C246 H208 0.930 . S
C246 C214 1.432 . S
C246 C245 1.317 . S
C247 O231 1.283 . S
C247 O234 1.243 . S
C248 C249 1.382 . S
C248 C252 1.393 . S
C248 C255 1.500 . S
C249 C248 1.382 . S
C249 C250 1.400 . S
C249 H260 0.930 1_565 S
C250 C249 1.400 . S
C250 C251 1.384 . S
C251 C250 1.384 . S
C251 C253 1.392 . S
C251 H261 0.931 . S
C252 C248 1.393 . S
C252 C253 1.401 . S
C252 H262 0.930 . S
C253 C251 1.392 . S
C253 C252 1.401 . S
C253 H263 0.930 . S
C254 O232 1.262 . S
C254 O233 1.260 . S
C255 Tb191 2.833 . S
C255 O230 1.251 . S
C255 O235 1.256 . S
C255 C248 1.500 . S
H256 C239 0.930 . S
H257 C240 0.931 . S
H258 C241 0.930 . S
H259 C242 0.930 . S
H260 C249 0.930 1_545 S
H261 C251 0.931 . S
H262 C252 0.930 . S
H263 C253 0.930 . S
Tb264 N295 2.660 . S
Tb264 N302 2.600 . S
Tb264 O308 2.546 . S
Tb264 O309 2.610 . S
Tb264 O311 2.320 . S
Tb264 O312 2.552 . S
Tb264 O313 2.413 . S
Tb264 O315 2.362 . S
Tb264 O316 2.421 . S
Tb264 C328 2.833 . S
C265 C268 1.432 . S
C265 C269 1.414 . S
C265 N272 1.359 . S
C266 C268 1.417 . S
C266 C270 1.432 . S
C266 C278 1.410 . S
C267 C269 1.444 . S
C267 C270 1.317 . S
C267 H290 0.929 . S
C268 C265 1.432 . S
C268 C266 1.417 . S
C268 N276 1.360 . S
C269 C265 1.414 . S
C269 C267 1.444 . S
C269 C274 1.385 . S
C270 C266 1.432 . S
C270 C267 1.317 . S
C270 H282 0.930 . S
C271 C273 1.392 . S
C271 C274 1.370 . S
C271 H283 0.931 1_556 S
N272 C265 1.359 . S
N272 C273 1.327 . S
N272 Tb275 2.600 . S
C273 C271 1.392 . S
C273 N272 1.327 . S
C273 H280 0.930 . S
C274 C269 1.385 . S
C274 C271 1.370 . S
C274 H293 0.930 . S
Tb275 N272 2.600 . S
Tb275 N276 2.660 . S
Tb275 O309 2.362 . S
Tb275 O310 2.421 . S
Tb275 O314 2.546 . S
Tb275 O315 2.610 . S
Tb275 O317 2.320 . S
Tb275 O318 2.552 . S
Tb275 O319 2.413 . S
Tb275 C339 2.833 . S
N276 C268 1.360 . S
N276 Tb275 2.660 . S
N276 C277 1.305 . S
C277 N276 1.305 . S
C277 C279 1.407 . S
C277 H284 0.930 . S
C278 C266 1.410 . S
C278 C279 1.345 . S
C278 H286 0.930 . S
C279 C277 1.407 . S
C279 C278 1.345 . S
C279 H281 0.930 . S
H280 C273 0.930 . S
H281 C279 0.930 . S
H282 C270 0.930 . S
H283 C271 0.931 1_554 S
H284 C277 0.930 . S
H285 C299 0.930 . S
H286 C278 0.930 . S
H287 C305 0.930 . S
H288 C296 0.930 . S
H289 C303 0.931 . S
H290 C267 0.929 . S
H291 C297 0.930 . S
H292 C330 0.930 . S
H293 C274 0.930 . S
H294 C329 0.929 . S
N295 Tb264 2.660 . S
N295 C296 1.305 . S
N295 C300 1.360 . S
C296 H288 0.930 . S
C296 N295 1.305 . S
C296 C299 1.407 . S
C297 H291 0.930 . S
C297 C298 1.410 . S
C297 C299 1.345 . S
C298 C297 1.410 . S
C298 C300 1.417 . S
C298 C330 1.432 . S
C299 H285 0.930 . S
C299 C296 1.407 . S
C299 C297 1.345 . S
C300 N295 1.360 . S
C300 C298 1.417 . S
C300 C304 1.432 . S
H301 C306 0.930 . S
N302 Tb264 2.600 . S
N302 C304 1.359 . S
N302 C305 1.327 . S
C303 H289 0.931 . S
C303 C305 1.392 . S
C303 C306 1.370 . S
C304 C300 1.432 . S
C304 N302 1.359 . S
C304 C307 1.414 . S
C305 H287 0.930 . S
C305 N302 1.327 . S
C305 C303 1.392 . S
C306 H301 0.930 . S
C306 C303 1.370 . S
C306 C307 1.385 . S
C307 C304 1.414 . S
C307 C306 1.385 . S
C307 C329 1.444 . S
O308 Tb264 2.546 . S
O308 C328 1.251 . S
O309 Tb264 2.610 . S
O309 Tb275 2.362 . S
O309 C320 1.283 . S
O310 Tb275 2.421 . S
O310 C327 1.262 . S
O311 Tb264 2.320 . S
O311 C327 1.260 . S
O312 Tb264 2.552 . S
O312 C320 1.243 . S
O313 Tb264 2.413 . S
O313 C328 1.256 . S
O314 Tb275 2.546 . S
O314 C339 1.251 . S
O315 Tb264 2.362 . S
O315 Tb275 2.610 . S
O315 C331 1.283 . S
O316 Tb264 2.421 . S
O316 C338 1.262 . S
O317 Tb275 2.320 . S
O317 C338 1.260 . S
O318 Tb275 2.552 . S
O318 C331 1.243 . S
O319 Tb275 2.413 . S
O319 C339 1.256 . S
C320 O309 1.283 . S
C320 O312 1.243 . S
C321 C323 1.382 . S
C321 C325 1.393 . S
C321 C328 1.500 . S
C322 C323 1.400 . S
C322 C324 1.384 . S
C323 C321 1.382 . S
C323 C322 1.400 . S
C323 H340 0.930 . S
C324 C322 1.384 . S
C324 C326 1.392 . S
C324 H341 0.931 . S
C325 C321 1.393 . S
C325 C326 1.401 . S
C325 H342 0.930 . S
C326 C324 1.392 . S
C326 C325 1.401 . S
C326 H343 0.930 . S
C327 O310 1.262 . S
C327 O311 1.260 . S
C328 Tb264 2.833 . S
C328 O308 1.251 . S
C328 O313 1.256 . S
C328 C321 1.500 . S
C329 H294 0.929 . S
C329 C307 1.444 . S
C329 C330 1.317 . S
C330 H292 0.930 . S
C330 C298 1.432 . S
C330 C329 1.317 . S
C331 O315 1.283 . S
C331 O318 1.243 . S
C332 C333 1.382 . S
C332 C336 1.393 . S
C332 C339 1.500 1_554 S
C333 C332 1.382 . S
C333 C334 1.400 . S
C333 H344 0.930 1_554 S
C334 C333 1.400 . S
C334 C335 1.384 . S
C335 C334 1.384 . S
C335 C337 1.392 . S
C335 H345 0.931 . S
C336 C332 1.393 . S
C336 C337 1.401 . S
C336 H346 0.930 . S
C337 C335 1.392 . S
C337 C336 1.401 . S
C337 H347 0.930 . S
C338 O316 1.262 . S
C338 O317 1.260 . S
C339 Tb275 2.833 . S
C339 O314 1.251 . S
C339 O319 1.256 . S
C339 C332 1.500 1_556 S
H340 C323 0.930 . S
H341 C324 0.931 . S
H342 C325 0.930 . S
H343 C326 0.930 . S
H344 C333 0.930 1_556 S
H345 C335 0.931 . S
H346 C336 0.930 . S
H347 C337 0.930 . S
Tb348 N379 2.660 . S
Tb348 N386 2.600 . S
Tb348 O392 2.546 . S
Tb348 O393 2.610 . S
Tb348 O395 2.320 . S
Tb348 O396 2.552 . S
Tb348 O397 2.413 . S
Tb348 O399 2.362 . S
Tb348 O400 2.421 1_455 S
Tb348 C412 2.833 . S
C349 C352 1.432 . S
C349 C353 1.414 . S
C349 N356 1.359 . S
C350 C352 1.417 . S
C350 C354 1.432 . S
C350 C362 1.410 . S
C351 C353 1.444 . S
C351 C354 1.317 . S
C351 H374 0.929 . S
C352 C349 1.432 . S
C352 C350 1.417 . S
C352 N360 1.360 . S
C353 C349 1.414 . S
C353 C351 1.444 . S
C353 C358 1.385 1_655 S
C354 C350 1.432 . S
C354 C351 1.317 . S
C354 H366 0.930 . S
C355 C357 1.392 . S
C355 C358 1.370 . S
C355 H367 0.931 1_556 S
N356 C349 1.359 . S
N356 C357 1.327 1_655 S
N356 Tb359 2.600 . S
C357 C355 1.392 . S
C357 N356 1.327 1_455 S
C357 H364 0.930 . S
C358 C353 1.385 1_455 S
C358 C355 1.370 . S
C358 H377 0.930 . S
Tb359 N356 2.600 . S
Tb359 N360 2.660 . S
Tb359 O393 2.362 1_655 S
Tb359 O394 2.421 1_655 S
Tb359 O398 2.546 . S
Tb359 O399 2.610 1_655 S
Tb359 O401 2.320 . S
Tb359 O402 2.552 . S
Tb359 O403 2.413 . S
Tb359 C423 2.833 . S
N360 C352 1.360 . S
N360 Tb359 2.660 . S
N360 C361 1.305 . S
C361 N360 1.305 . S
C361 C363 1.407 . S
C361 H368 0.930 . S
C362 C350 1.410 . S
C362 C363 1.345 . S
C362 H370 0.930 . S
C363 C361 1.407 . S
C363 C362 1.345 . S
C363 H365 0.930 . S
H364 C357 0.930 . S
H365 C363 0.930 . S
H366 C354 0.930 . S
H367 C355 0.931 1_554 S
H368 C361 0.930 . S
H369 C383 0.930 . S
H370 C362 0.930 . S
H371 C389 0.930 . S
H372 C380 0.930 . S
H373 C387 0.931 . S
H374 C351 0.929 . S
H375 C381 0.930 . S
H376 C414 0.930 . S
H377 C358 0.930 . S
H378 C413 0.929 . S
N379 Tb348 2.660 . S
N379 C380 1.305 . S
N379 C384 1.360 . S
C380 H372 0.930 . S
C380 N379 1.305 . S
C380 C383 1.407 . S
C381 H375 0.930 . S
C381 C382 1.410 . S
C381 C383 1.345 . S
C382 C381 1.410 . S
C382 C384 1.417 . S
C382 C414 1.432 . S
C383 H369 0.930 . S
C383 C380 1.407 . S
C383 C381 1.345 . S
C384 N379 1.360 . S
C384 C382 1.417 . S
C384 C388 1.432 . S
H385 C390 0.930 . S
N386 Tb348 2.600 . S
N386 C388 1.359 . S
N386 C389 1.327 1_455 S
C387 H373 0.931 . S
C387 C389 1.392 . S
C387 C390 1.370 1_655 S
C388 C384 1.432 . S
C388 N386 1.359 . S
C388 C391 1.414 . S
C389 H371 0.930 . S
C389 N386 1.327 1_655 S
C389 C387 1.392 . S
C390 H385 0.930 . S
C390 C387 1.370 1_455 S
C390 C391 1.385 . S
C391 C388 1.414 . S
C391 C390 1.385 . S
C391 C413 1.444 . S
O392 Tb348 2.546 . S
O392 C412 1.251 . S
O393 Tb348 2.610 . S
O393 Tb359 2.362 1_455 S
O393 C404 1.283 . S
O394 Tb359 2.421 1_455 S
O394 C411 1.262 . S
O395 Tb348 2.320 . S
O395 C411 1.260 . S
O396 Tb348 2.552 . S
O396 C404 1.243 . S
O397 Tb348 2.413 . S
O397 C412 1.256 . S
O398 Tb359 2.546 . S
O398 C423 1.251 . S
O399 Tb348 2.362 . S
O399 Tb359 2.610 1_455 S
O399 C415 1.283 1_455 S
O400 Tb348 2.421 1_655 S
O400 C422 1.262 . S
O401 Tb359 2.320 . S
O401 C422 1.260 . S
O402 Tb359 2.552 . S
O402 C415 1.243 . S
O403 Tb359 2.413 . S
O403 C423 1.256 . S
C404 O393 1.283 . S
C404 O396 1.243 . S
C405 C407 1.382 . S
C405 C409 1.393 . S
C405 C412 1.500 . S
C406 C407 1.400 . S
C406 C408 1.384 . S
C407 C405 1.382 . S
C407 C406 1.400 . S
C407 H424 0.930 . S
C408 C406 1.384 . S
C408 C410 1.392 . S
C408 H425 0.931 . S
C409 C405 1.393 . S
C409 C410 1.401 . S
C409 H426 0.930 . S
C410 C408 1.392 . S
C410 C409 1.401 . S
C410 H427 0.930 . S
C411 O394 1.262 . S
C411 O395 1.260 . S
C412 Tb348 2.833 . S
C412 O392 1.251 . S
C412 O397 1.256 . S
C412 C405 1.500 . S
C413 H378 0.929 . S
C413 C391 1.444 . S
C413 C414 1.317 . S
C414 H376 0.930 . S
C414 C382 1.432 . S
C414 C413 1.317 . S
C415 O399 1.283 1_655 S
C415 O402 1.243 . S
C416 C417 1.382 . S
C416 C420 1.393 . S
C416 C423 1.500 1_554 S
C417 C416 1.382 . S
C417 C418 1.400 . S
C417 H428 0.930 1_554 S
C418 C417 1.400 . S
C418 C419 1.384 . S
C419 C418 1.384 . S
C419 C421 1.392 . S
C419 H429 0.931 . S
C420 C416 1.393 . S
C420 C421 1.401 . S
C420 H430 0.930 . S
C421 C419 1.392 . S
C421 C420 1.401 . S
C421 H431 0.930 . S
C422 O400 1.262 . S
C422 O401 1.260 . S
C423 Tb359 2.833 . S
C423 O398 1.251 . S
C423 O403 1.256 . S
C423 C416 1.500 1_556 S
H424 C407 0.930 . S
H425 C408 0.931 . S
H426 C409 0.930 . S
H427 C410 0.930 . S
H428 C417 0.930 1_556 S
H429 C419 0.931 . S
H430 C420 0.930 . S
H431 C421 0.930 . S
H432 C438 0.930 . S
H433 C441 0.930 . S
H434 C442 0.930 . S
H435 C443 0.930 . S
H436 C446 0.930 . S
H437 C447 0.930 . S
C438 H432 0.930 . S
C438 C439 1.355 . S
C438 C440 1.415 . S
C439 C438 1.355 . S
C439 C441 1.419 . S
C440 C438 1.415 . S
C440 C445 1.425 . S
C440 C447 1.409 . S
C441 H433 0.930 . S
C441 C439 1.419 . S
C441 C442 1.362 . S
C442 H434 0.930 . S
C442 C441 1.362 . S
C442 C445 1.409 . S
C443 H435 0.930 . S
C443 C444 1.355 . S
C443 C445 1.415 . S
C444 C443 1.355 . S
C444 C446 1.419 . S
C445 C440 1.425 . S
C445 C442 1.409 . S
C445 C443 1.415 . S
C446 H436 0.930 . S
C446 C444 1.419 . S
C446 C447 1.362 . S
C447 H437 0.930 . S
C447 C440 1.409 . S
C447 C446 1.362 . S
H448 C454 0.930 . S
H449 C457 0.930 . S
H450 C458 0.930 . S
H451 C459 0.930 . S
H452 C462 0.930 . S
H453 C463 0.930 . S
C454 H448 0.930 . S
C454 C455 1.355 . S
C454 C456 1.415 . S
C455 C454 1.355 . S
C455 C457 1.419 . S
C456 C454 1.415 . S
C456 C461 1.425 . S
C456 C463 1.409 . S
C457 H449 0.930 . S
C457 C455 1.419 . S
C457 C458 1.362 . S
C458 H450 0.930 . S
C458 C457 1.362 . S
C458 C461 1.409 . S
C459 H451 0.930 . S
C459 C460 1.355 . S
C459 C461 1.415 . S
C460 C459 1.355 . S
C460 C462 1.419 . S
C461 C456 1.425 . S
C461 C458 1.409 . S
C461 C459 1.415 . S
C462 H452 0.930 . S
C462 C460 1.419 . S
C462 C463 1.362 . S
C463 H453 0.930 . S
C463 C456 1.409 . S
C463 C462 1.362 . S
H464 C470 0.930 . S
H465 C473 0.930 . S
H466 C474 0.930 . S
H467 C475 0.930 . S
H468 C478 0.930 . S
H469 C479 0.930 . S
C470 H464 0.930 . S
C470 C471 1.355 . S
C470 C472 1.415 . S
C471 C470 1.355 . S
C471 C473 1.419 . S
C472 C470 1.415 . S
C472 C477 1.425 . S
C472 C479 1.409 . S
C473 H465 0.930 . S
C473 C471 1.419 . S
C473 C474 1.362 . S
C474 H466 0.930 . S
C474 C473 1.362 . S
C474 C477 1.409 . S
C475 H467 0.930 . S
C475 C476 1.355 . S
C475 C477 1.415 . S
C476 C475 1.355 . S
C476 C478 1.419 . S
C477 C472 1.425 . S
C477 C474 1.409 . S
C477 C475 1.415 . S
C478 H468 0.930 . S
C478 C476 1.419 . S
C478 C479 1.362 . S
C479 H469 0.930 . S
C479 C472 1.409 . S
C479 C478 1.362 . S
H480 C486 0.930 . S
H481 C489 0.930 . S
H482 C490 0.930 . S
H483 C491 0.930 . S
H484 C494 0.932 . S
H485 C495 0.915 1_655 S
C486 H480 0.930 . S
C486 C487 1.355 . S
C486 C488 1.415 . S
C487 C486 1.355 . S
C487 C489 1.419 . S
C488 C486 1.415 . S
C488 C493 1.425 . S
C488 C495 1.424 . S
C489 H481 0.930 . S
C489 C487 1.419 . S
C489 C490 1.362 . S
C490 H482 0.930 . S
C490 C489 1.362 . S
C490 C493 1.409 . S
C491 H483 0.930 . S
C491 C492 1.355 . S
C491 C493 1.415 . S
C492 C491 1.355 . S
C492 C494 1.417 1_455 S
C493 C488 1.425 . S
C493 C490 1.409 . S
C493 C491 1.415 . S
C494 H484 0.932 . S
C494 C492 1.417 1_655 S
C494 C495 1.362 1_655 S
C495 H485 0.915 1_455 S
C495 C488 1.424 . S
C495 C494 1.362 1_455 S
H496 C502 0.930 . S
H497 C505 0.930 . S
H498 C506 0.930 . S
H499 C507 0.931 1_554 S
H500 C510 0.930 . S
H501 C511 0.930 . S
C502 H496 0.930 . S
C502 C503 1.355 . S
C502 C504 1.415 . S
C503 C502 1.355 . S
C503 C505 1.419 . S
C504 C502 1.415 . S
C504 C509 1.425 . S
C504 C511 1.409 1_554 S
C505 H497 0.930 . S
C505 C503 1.419 . S
C505 C506 1.362 . S
C506 H498 0.930 . S
C506 C505 1.362 . S
C506 C509 1.409 . S
C507 H499 0.931 1_556 S
C507 C508 1.355 . S
C507 C509 1.415 1_556 S
C508 C507 1.355 . S
C508 C510 1.419 . S
C509 C504 1.425 . S
C509 C506 1.409 . S
C509 C507 1.415 1_554 S
C510 H500 0.930 . S
C510 C508 1.419 . S
C510 C511 1.362 . S
C511 H501 0.930 . S
C511 C504 1.409 1_556 S
C511 C510 1.362 . S
H512 C518 0.930 . S
H513 C521 0.930 . S
H514 C522 0.930 1_556 S
H515 C523 0.930 . S
H516 C526 0.930 . S
H517 C527 0.930 . S
C518 H512 0.930 . S
C518 C519 1.355 . S
C518 C520 1.415 . S
C519 C518 1.355 . S
C519 C521 1.419 . S
C520 C518 1.415 . S
C520 C525 1.425 . S
C520 C527 1.409 . S
C521 H513 0.930 . S
C521 C519 1.419 . S
C521 C522 1.362 . S
C522 H514 0.930 1_554 S
C522 C521 1.362 . S
C522 C525 1.409 . S
C523 H515 0.930 . S
C523 C524 1.355 . S
C523 C525 1.415 1_556 S
C524 C523 1.355 . S
C524 C526 1.419 . S
C525 C520 1.425 . S
C525 C522 1.409 . S
C525 C523 1.415 1_554 S
C526 H516 0.930 . S
C526 C524 1.419 . S
C526 C527 1.362 1_556 S
C527 H517 0.930 . S
C527 C520 1.409 . S
C527 C526 1.362 1_554 S
H528 C534 0.930 . S
H529 C537 0.930 . S
H530 C538 0.930 . S
H531 C539 0.930 . S
H532 C542 0.930 . S
H533 C543 0.930 . S
C534 H528 0.930 . S
C534 C535 1.355 . S
C534 C536 1.415 . S
C535 C534 1.355 . S
C535 C537 1.419 . S
C536 C534 1.415 . S
C536 C541 1.425 . S
C536 C543 1.409 1_554 S
C537 H529 0.930 . S
C537 C535 1.419 . S
C537 C538 1.362 . S
C538 H530 0.930 . S
C538 C537 1.362 . S
C538 C541 1.409 . S
C539 H531 0.930 . S
C539 C540 1.355 . S
C539 C541 1.415 1_556 S
C540 C539 1.355 . S
C540 C542 1.419 . S
C541 C536 1.425 . S
C541 C538 1.409 . S
C541 C539 1.415 1_554 S
C542 H532 0.930 . S
C542 C540 1.419 . S
C542 C543 1.362 . S
C543 H533 0.930 . S
C543 C536 1.409 1_556 S
C543 C542 1.362 . S
H544 C550 0.930 . S
H545 C553 0.930 . S
H546 C554 0.930 . S
H547 C555 0.930 . S
H548 C558 0.930 1_455 S
H549 C559 0.930 . S
C550 H544 0.930 . S
C550 C551 1.355 . S
C550 C552 1.415 . S
C551 C550 1.355 . S
C551 C553 1.419 . S
C552 C550 1.415 . S
C552 C557 1.425 . S
C552 C559 1.409 1_554 S
C553 H545 0.930 . S
C553 C551 1.419 . S
C553 C554 1.362 . S
C554 H546 0.930 . S
C554 C553 1.362 . S
C554 C557 1.409 . S
C555 H547 0.930 . S
C555 C556 1.355 . S
C555 C557 1.415 1_556 S
C556 C555 1.355 . S
C556 C558 1.419 . S
C557 C552 1.425 . S
C557 C554 1.409 . S
C557 C555 1.415 1_554 S
C558 H548 0.930 1_655 S
C558 C556 1.419 . S
C558 C559 1.362 . S
C559 H549 0.930 . S
C559 C552 1.409 1_556 S
C559 C558 1.362 . S
H560 C566 0.930 . S
H561 C569 0.930 . S
H562 C570 0.930 . S
H563 C571 0.930 . S
H564 C574 0.930 . S
H565 C575 0.930 . S
C566 H560 0.930 . S
C566 C567 1.355 . S
C566 C568 1.415 . S
C567 C566 1.355 . S
C567 C569 1.419 . S
C568 C566 1.415 . S
C568 C573 1.425 . S
C568 C575 1.409 1_455 S
C569 H561 0.930 . S
C569 C567 1.419 . S
C569 C570 1.362 . S
C570 H562 0.930 . S
C570 C569 1.362 . S
C570 C573 1.409 . S
C571 H563 0.930 . S
C571 C572 1.368 . S
C571 C573 1.415 . S
C572 C571 1.368 . S
C572 C574 1.411 1_455 S
C573 C568 1.425 . S
C573 C570 1.409 . S
C573 C571 1.415 . S
C574 H564 0.930 . S
C574 C572 1.411 1_655 S
C574 C575 1.362 . S
C575 H565 0.930 . S
C575 C568 1.409 1_655 S
C575 C574 1.362 . S
H576 C582 0.930 . S
H577 C585 0.930 . S
H578 C586 0.930 1_565 S
H579 C587 0.930 . S
H580 C590 0.930 . S
H581 C591 0.930 . S
C582 H576 0.930 . S
C582 C583 1.355 . S
C582 C584 1.415 . S
C583 C582 1.355 . S
C583 C585 1.419 . S
C584 C582 1.415 . S
C584 C589 1.425 . S
C584 C591 1.409 . S
C585 H577 0.930 . S
C585 C583 1.419 . S
C585 C586 1.362 . S
C586 H578 0.930 1_545 S
C586 C585 1.362 . S
C586 C589 1.409 . S
C587 H579 0.930 . S
C587 C588 1.355 1_565 S
C587 C589 1.415 1_565 S
C588 C587 1.355 1_545 S
C588 C590 1.419 . S
C589 C584 1.425 . S
C589 C586 1.409 . S
C589 C587 1.415 1_545 S
C590 H580 0.930 . S
C590 C588 1.419 . S
C590 C591 1.362 . S
C591 H581 0.930 . S
C591 C584 1.409 . S
C591 C590 1.362 . S
H592 C598 0.930 . S
H593 C601 0.930 1_556 S
H594 C602 0.930 . S
H595 C603 0.930 . S
H596 C606 0.930 . S
H597 C607 0.930 . S
C598 H592 0.930 . S
C598 C599 1.355 . S
C598 C600 1.415 . S
C599 C598 1.355 . S
C599 C601 1.419 . S
C600 C598 1.415 . S
C600 C605 1.425 . S
C600 C607 1.409 . S
C601 H593 0.930 1_554 S
C601 C599 1.419 . S
C601 C602 1.362 . S
C602 H594 0.930 . S
C602 C601 1.362 . S
C602 C605 1.409 . S
C603 H595 0.930 . S
C603 C604 1.355 . S
C603 C605 1.415 . S
C604 C603 1.355 . S
C604 C606 1.419 . S
C605 C600 1.425 . S
C605 C602 1.409 . S
C605 C603 1.415 . S
C606 H596 0.930 . S
C606 C604 1.419 . S
C606 C607 1.362 . S
C607 H597 0.930 . S
C607 C600 1.409 . S
C607 C606 1.362 . S
H608 C614 0.930 . S
H609 C617 0.930 . S
H610 C618 0.930 . S
H611 C619 0.930 . S
H612 C622 0.930 . S
H613 C623 0.930 . S
C614 H608 0.930 . S
C614 C615 1.355 . S
C614 C616 1.415 . S
C615 C614 1.355 . S
C615 C617 1.419 . S
C616 C614 1.415 . S
C616 C621 1.425 . S
C616 C623 1.409 . S
C617 H609 0.930 . S
C617 C615 1.419 . S
C617 C618 1.362 . S
C618 H610 0.930 . S
C618 C617 1.362 . S
C618 C621 1.409 . S
C619 H611 0.930 . S
C619 C620 1.355 . S
C619 C621 1.415 . S
C620 C619 1.355 . S
C620 C622 1.419 . S
C621 C616 1.425 . S
C621 C618 1.409 . S
C621 C619 1.415 . S
C622 H612 0.930 . S
C622 C620 1.419 . S
C622 C623 1.362 . S
C623 H613 0.930 . S
C623 C616 1.409 . S
C623 C622 1.362 . S
H624 C630 0.930 . S
H625 C633 0.930 . S
H626 C634 0.930 . S
H627 C635 0.930 . S
H628 C638 0.930 . S
H629 C639 0.930 . S
C630 H624 0.930 . S
C630 C631 1.355 . S
C630 C632 1.415 . S
C631 C630 1.355 . S
C631 C633 1.419 . S
C632 C630 1.415 . S
C632 C637 1.431 . S
C632 C639 1.409 . S
C633 H625 0.930 . S
C633 C631 1.419 . S
C633 C634 1.362 1_655 S
C634 H626 0.930 . S
C634 C633 1.362 1_455 S
C634 C637 1.407 1_455 S
C635 H627 0.930 . S
C635 C636 1.355 . S
C635 C637 1.411 1_455 S
C636 C635 1.355 . S
C636 C638 1.419 1_455 S
C637 C632 1.431 . S
C637 C634 1.407 1_655 S
C637 C635 1.411 1_655 S
C638 H628 0.930 . S
C638 C636 1.419 1_655 S
C638 C639 1.362 . S
C639 H629 0.930 . S
C639 C632 1.409 . S
C639 C638 1.362 . S
H640 C646 0.930 . S
H641 C649 0.930 1_545 S
H642 C650 0.930 . S
H643 C651 0.930 . S
H644 C654 0.930 . S
H645 C655 0.930 . S
C646 H640 0.930 . S
C646 C647 1.355 . S
C646 C648 1.415 . S
C647 C646 1.355 . S
C647 C649 1.419 . S
C648 C646 1.415 . S
C648 C653 1.425 1_565 S
C648 C655 1.409 . S
C649 H641 0.930 1_565 S
C649 C647 1.419 . S
C649 C650 1.362 1_565 S
C650 H642 0.930 . S
C650 C649 1.362 1_545 S
C650 C653 1.409 . S
C651 H643 0.930 . S
C651 C652 1.355 . S
C651 C653 1.415 . S
C652 C651 1.355 . S
C652 C654 1.419 1_545 S
C653 C648 1.425 1_545 S
C653 C650 1.409 . S
C653 C651 1.415 . S
C654 H644 0.930 . S
C654 C652 1.419 1_565 S
C654 C655 1.362 . S
C655 H645 0.930 . S
C655 C648 1.409 . S
C655 C654 1.362 . S
H656 C662 0.930 . S
H657 C665 0.930 . S
H658 C666 0.930 . S
H659 C667 0.930 . S
H660 C670 0.930 . S
H661 C671 0.930 . S
C662 H656 0.930 . S
C662 C663 1.355 . S
C662 C664 1.415 . S
C663 C662 1.355 . S
C663 C665 1.419 . S
C664 C662 1.415 . S
C664 C669 1.425 . S
C664 C671 1.409 . S
C665 H657 0.930 . S
C665 C663 1.419 . S
C665 C666 1.362 . S
C666 H658 0.930 . S
C666 C665 1.362 . S
C666 C669 1.409 . S
C667 H659 0.930 . S
C667 C668 1.355 . S
C667 C669 1.415 . S
C668 C667 1.355 . S
C668 C670 1.419 . S
C669 C664 1.425 . S
C669 C666 1.409 . S
C669 C667 1.415 . S
C670 H660 0.930 . S
C670 C668 1.419 . S
C670 C671 1.362 . S
C671 H661 0.930 . S
C671 C664 1.409 . S
C671 C670 1.362 . S
H672 C678 0.930 . S
H673 C681 0.930 . S
H674 C682 0.930 . S
H675 C683 0.930 . S
H676 C686 0.930 . S
H677 C687 0.930 . S
C678 H672 0.930 . S
C678 C679 1.355 . S
C678 C680 1.415 . S
C679 C678 1.355 . S
C679 C681 1.419 . S
C680 C678 1.415 . S
C680 C685 1.425 . S
C680 C687 1.409 . S
C681 H673 0.930 . S
C681 C679 1.419 . S
C681 C682 1.362 . S
C682 H674 0.930 . S
C682 C681 1.362 . S
C682 C685 1.409 . S
C683 H675 0.930 . S
C683 C684 1.355 . S
C683 C685 1.415 . S
C684 C683 1.355 . S
C684 C686 1.419 . S
C685 C680 1.425 . S
C685 C682 1.409 . S
C685 C683 1.415 . S
C686 H676 0.930 . S
C686 C684 1.419 . S
C686 C687 1.362 . S
C687 H677 0.930 . S
C687 C680 1.409 . S
C687 C686 1.362 . S
H688 C694 0.930 . S
H689 C697 0.930 . S
H690 C698 0.930 . S
H691 C699 0.930 . S
H692 C702 0.930 . S
H693 C703 0.930 . S
C694 H688 0.930 . S
C694 C695 1.355 . S
C694 C696 1.415 . S
C695 C694 1.355 . S
C695 C697 1.419 . S
C696 C694 1.415 . S
C696 C701 1.425 . S
C696 C703 1.409 . S
C697 H689 0.930 . S
C697 C695 1.419 . S
C697 C698 1.362 . S
C698 H690 0.930 . S
C698 C697 1.362 . S
C698 C701 1.409 . S
C699 H691 0.930 . S
C699 C700 1.355 . S
C699 C701 1.415 . S
C700 C699 1.355 . S
C700 C702 1.419 . S
C701 C696 1.425 . S
C701 C698 1.409 . S
C701 C699 1.415 . S
C702 H692 0.930 . S
C702 C700 1.419 . S
C702 C703 1.362 . S
C703 H693 0.930 . S
C703 C696 1.409 . S
C703 C702 1.362 . S
H704 C710 0.930 . S
H705 C713 0.930 . S
H706 C714 0.930 1_565 S
H707 C715 0.930 . S
H708 C718 0.930 . S
H709 C719 0.930 . S
C710 H704 0.930 . S
C710 C711 1.355 . S
C710 C712 1.415 . S
C711 C710 1.355 . S
C711 C713 1.419 . S
C712 C710 1.415 . S
C712 C717 1.425 . S
C712 C719 1.409 . S
C713 H705 0.930 . S
C713 C711 1.419 . S
C713 C714 1.362 . S
C714 H706 0.930 1_545 S
C714 C713 1.362 . S
C714 C717 1.409 . S
C715 H707 0.930 . S
C715 C716 1.355 . S
C715 C717 1.415 . S
C716 C715 1.355 . S
C716 C718 1.419 . S
C717 C712 1.425 . S
C717 C714 1.409 . S
C717 C715 1.415 . S
C718 H708 0.930 . S
C718 C716 1.419 . S
C718 C719 1.362 . S
C719 H709 0.930 . S
C719 C712 1.409 . S
C719 C718 1.362 . S
H720 C726 0.930 . S
H721 C729 0.930 . S
H722 C730 0.930 . S
H723 C731 0.930 . S
H724 C734 0.930 . S
H725 C735 0.930 . S
C726 H720 0.930 . S
C726 C727 1.355 . S
C726 C728 1.415 . S
C727 C726 1.355 . S
C727 C729 1.419 . S
C728 C726 1.415 . S
C728 C733 1.425 . S
C728 C735 1.409 . S
C729 H721 0.930 . S
C729 C727 1.419 . S
C729 C730 1.362 . S
C730 H722 0.930 . S
C730 C729 1.362 . S
C730 C733 1.409 . S
C731 H723 0.930 . S
C731 C732 1.355 . S
C731 C733 1.415 . S
C732 C731 1.355 . S
C732 C734 1.419 . S
C733 C728 1.425 . S
C733 C730 1.409 . S
C733 C731 1.415 . S
C734 H724 0.930 . S
C734 C732 1.419 . S
C734 C735 1.362 . S
C735 H725 0.930 . S
C735 C728 1.409 . S
C735 C734 1.362 . S
H736 C742 0.930 . S
H737 C745 0.936 . S
H738 C746 0.930 1_554 S
H739 C747 0.930 . S
H740 C750 0.930 . S
H741 C751 0.930 . S
C742 H736 0.930 . S
C742 C743 1.355 . S
C742 C744 1.415 . S
C743 C742 1.355 . S
C743 C745 1.419 . S
C744 C742 1.415 . S
C744 C749 1.425 . S
C744 C751 1.409 . S
C745 H737 0.936 . S
C745 C743 1.419 . S
C745 C746 1.362 . S
C746 H738 0.930 1_556 S
C746 C745 1.362 . S
C746 C749 1.409 . S
C747 H739 0.930 . S
C747 C748 1.355 . S
C747 C749 1.415 . S
C748 C747 1.355 . S
C748 C750 1.419 . S
C749 C744 1.425 . S
C749 C746 1.409 . S
C749 C747 1.415 . S
C750 H740 0.930 . S
C750 C748 1.419 . S
C750 C751 1.362 . S
C751 H741 0.930 . S
C751 C744 1.409 . S
C751 C750 1.362 . S
H752 C758 0.930 . S
H753 C761 0.930 . S
H754 C762 0.930 . S
H755 C763 0.930 . S
H756 C766 0.930 . S
H757 C767 0.930 . S
C758 H752 0.930 . S
C758 C759 1.355 . S
C758 C760 1.415 . S
C759 C758 1.355 . S
C759 C761 1.419 . S
C760 C758 1.415 . S
C760 C765 1.425 . S
C760 C767 1.409 . S
C761 H753 0.930 . S
C761 C759 1.419 . S
C761 C762 1.362 . S
C762 H754 0.930 . S
C762 C761 1.362 . S
C762 C765 1.409 . S
C763 H755 0.930 . S
C763 C764 1.355 . S
C763 C765 1.415 . S
C764 C763 1.355 . S
C764 C766 1.419 . S
C765 C760 1.425 . S
C765 C762 1.409 . S
C765 C763 1.415 . S
C766 H756 0.930 . S
C766 C764 1.419 . S
C766 C767 1.362 . S
C767 H757 0.930 . S
C767 C760 1.409 . S
C767 C766 1.362 . S
H768 C774 0.930 . S
H769 C777 0.930 . S
H770 C778 0.930 . S
H771 C779 0.930 . S
H772 C782 0.930 . S
H773 C783 0.930 . S
C774 H768 0.930 . S
C774 C775 1.355 . S
C774 C776 1.415 . S
C775 C774 1.355 . S
C775 C777 1.419 . S
C776 C774 1.415 . S
C776 C781 1.425 . S
C776 C783 1.409 . S
C777 H769 0.930 . S
C777 C775 1.419 . S
C777 C778 1.362 . S
C778 H770 0.930 . S
C778 C777 1.362 . S
C778 C781 1.409 . S
C779 H771 0.930 . S
C779 C780 1.355 . S
C779 C781 1.415 . S
C780 C779 1.355 . S
C780 C782 1.419 . S
C781 C776 1.425 . S
C781 C778 1.409 . S
C781 C779 1.415 . S
C782 H772 0.930 . S
C782 C780 1.419 . S
C782 C783 1.362 . S
C783 H773 0.930 . S
C783 C776 1.409 . S
C783 C782 1.362 . S
H784 C790 0.930 . S
H785 C793 0.930 . S
H786 C794 0.930 . S
H787 C795 0.930 . S
H788 C798 0.930 . S
H789 C799 0.930 . S
C790 H784 0.930 . S
C790 C791 1.355 . S
C790 C792 1.415 . S
C791 C790 1.355 . S
C791 C793 1.419 . S
C792 C790 1.415 . S
C792 C797 1.425 . S
C792 C799 1.409 . S
C793 H785 0.930 . S
C793 C791 1.419 . S
C793 C794 1.362 . S
C794 H786 0.930 . S
C794 C793 1.362 . S
C794 C797 1.409 . S
C795 H787 0.930 . S
C795 C796 1.355 . S
C795 C797 1.415 . S
C796 C795 1.355 . S
C796 C798 1.419 . S
C797 C792 1.425 . S
C797 C794 1.409 . S
C797 C795 1.415 . S
C798 H788 0.930 . S
C798 C796 1.419 . S
C798 C799 1.362 . S
C799 H789 0.930 . S
C799 C792 1.409 . S
C799 C798 1.362 . S
H800 C806 0.930 . S
H801 C809 0.930 . S
H802 C810 0.930 . S
H803 C811 0.930 . S
H804 C814 0.930 . S
H805 C815 0.930 . S
C806 H800 0.930 . S
C806 C807 1.355 . S
C806 C808 1.415 . S
C807 C806 1.355 . S
C807 C809 1.419 . S
C808 C806 1.415 . S
C808 C813 1.425 . S
C808 C815 1.409 . S
C809 H801 0.930 . S
C809 C807 1.419 . S
C809 C810 1.362 . S
C810 H802 0.930 . S
C810 C809 1.362 . S
C810 C813 1.409 . S
C811 H803 0.930 . S
C811 C812 1.355 . S
C811 C813 1.415 . S
C812 C811 1.355 . S
C812 C814 1.419 . S
C813 C808 1.425 . S
C813 C810 1.409 . S
C813 C811 1.415 . S
C814 H804 0.930 . S
C814 C812 1.419 . S
C814 C815 1.362 . S
C815 H805 0.930 . S
C815 C808 1.409 . S
C815 C814 1.362 . S
C439 C76 1.833 . S
C444 C170 1.975 . S
C460 C254 1.984 . S
C455 C88 1.852 . S
C476 C320 1.919 . S
C471 C52 1.937 . S
C492 C404 1.961 . S
C487 C64 1.978 . S
C508 C159 2.018 1_565 S
C503 C28 1.932 . S
C519 C40 1.859 . S
C524 C243 1.989 . S
C535 C4 2.015 . S
C540 C331 1.990 . S
C551 C16 2.008 . S
C556 C415 1.984 . S
C572 C166 0.676 1_455 S
C567 C69 0.813 . S
C588 C250 0.744 1_545 S
C583 C81 0.625 . S
C604 C322 0.745 . S
C599 C93 0.595 . S
C615 C57 0.681 . S
C620 C406 0.714 . S
C631 C21 0.679 . S
C636 C154 0.788 . S
C652 C238 0.752 . S
C647 C33 0.682 . S
C668 C334 0.624 . S
C663 C45 0.738 . S
C679 C9 0.733 . S
C684 C418 0.674 . S
C695 C66 2.093 . S
C700 C163 2.133 . S
C711 C78 2.062 . S
C716 C247 2.141 . S
C732 C327 2.154 . S
C727 C90 1.993 . S
C748 C411 2.187 . S
C743 C54 1.930 . S
C759 C18 2.008 . S
C764 C152 2.099 . S
C780 C236 2.073 . S
C775 C30 1.983 . S
C796 C338 2.137 . S
C791 C42 1.947 . S
C807 C6 1.978 . S
C812 C422 2.195 . S
