# Generated by pormake.
# Topology tsx, (6,3)-cn, num edge types: 1
# Building blocks:
#     Node 0, Type 0, BuildingBlock: VOLQOD_clean_sbu_1, # of connection points: 6
#     Node 1, Type 0, BuildingBlock: VOLQOD_clean_sbu_1, # of connection points: 6
#     Node 2, Type 1, BuildingBlock: BETDIP_clean_linker_0, # of connection points: 3
#     Node 3, Type 1, BuildingBlock: BETDIP_clean_linker_0, # of connection points: 3
#     Node 4, Type 1, BuildingBlock: BETDIP_clean_linker_0, # of connection points: 3
#     Node 5, Type 1, BuildingBlock: BETDIP_clean_linker_0, # of connection points: 3
#     Edge 6, Type (0, 1), BuildingBlock: XIVTED_clean_linker_0, # of connection points: 2
#     Edge 7, Type (0, 1), BuildingBlock: XIVTED_clean_linker_0, # of connection points: 2
#     Edge 8, Type (0, 1), BuildingBlock: XIVTED_clean_linker_0, # of connection points: 2
#     Edge 9, Type (0, 1), BuildingBlock: XIVTED_clean_linker_0, # of connection points: 2
#     Edge 10, Type (0, 1), BuildingBlock: XIVTED_clean_linker_0, # of connection points: 2
#     Edge 11, Type (0, 1), BuildingBlock: XIVTED_clean_linker_0, # of connection points: 2
#     Edge 12, Type (0, 1), BuildingBlock: XIVTED_clean_linker_0, # of connection points: 2
#     Edge 13, Type (0, 1), BuildingBlock: XIVTED_clean_linker_0, # of connection points: 2
#     Edge 14, Type (0, 1), BuildingBlock: XIVTED_clean_linker_0, # of connection points: 2
#     Edge 15, Type (0, 1), BuildingBlock: XIVTED_clean_linker_0, # of connection points: 2
#     Edge 16, Type (0, 1), BuildingBlock: XIVTED_clean_linker_0, # of connection points: 2
#     Edge 17, Type (0, 1), BuildingBlock: XIVTED_clean_linker_0, # of connection points: 2
# Relax obj value: 0.057
# Max RMSD: 0.118
# Mean RMSD: 0.105
data_MOF--net-tsx--node1-VOLQOD_clean_sbu_1--node2-BETDIP_clean_linker_0--edge1-XIVTED_clean_linker_0
_symmetry_space_group_name_H-M    P1
_symmetry_Int_Tables_number       1
_symmetry_cell_setting            triclinic
loop_
_symmetry_equiv_pos_as_xyz
'x, y, z'
_cell_length_a     21.341381
_cell_length_b     22.027306
_cell_length_c     37.830551
_cell_angle_alpha  90.408586
_cell_angle_beta   98.568902
_cell_angle_gamma 90.204154
loop_
_atom_site_label
_atom_site_type_symbol
_atom_site_fract_x
_atom_site_fract_y
_atom_site_fract_z
_atom_type_partial_charge
O0 O 0.05477 0.99126 0.08716 0.0
Zn1 Zn 0.07063 0.99141 0.03578 0.0
O2 O 0.99271 0.00656 0.00262 0.0
Zn3 Zn 0.97009 0.93471 0.97269 0.0
Zn4 Zn 0.92504 0.02636 0.03005 0.0
Zn5 Zn 0.00473 0.07464 0.97183 0.0
O6 O 0.96256 0.95426 0.92013 0.0
O7 O -0.00524 0.05011 0.92023 0.0
O8 O 0.11004 0.91211 0.02433 0.0
O9 O 0.03963 0.87292 0.98096 0.0
O10 O 0.88775 0.89785 0.98257 0.0
O11 O 0.85538 0.96451 0.02029 0.0
O12 O 0.8873 0.10856 0.01816 0.0
O13 O 0.13547 0.05658 0.0311 0.0
O14 O 0.94109 0.13986 0.97578 0.0
O15 O 0.09072 0.11141 0.98519 0.0
C16 C 0.0073 0.00819 0.10151 0.0
C17 C 0.97619 0.00147 0.90352 0.0
C18 C 0.84694 0.91598 0.00166 0.0
C19 C 0.09234 0.87014 0.00167 0.0
C20 C 0.89837 0.14797 0.99545 0.0
C21 C 0.13728 0.10026 0.00937 0.0
O22 O 0.95593 0.02488 0.08268 0.0
O23 O 0.56611 0.50416 0.58102 0.0
Zn24 Zn 0.58193 0.49911 0.52988 0.0
O25 O 0.50309 0.50944 0.49668 0.0
Zn26 Zn 0.48822 0.43719 0.46637 0.0
Zn27 Zn 0.43244 0.52 0.52366 0.0
Zn28 Zn 0.50944 0.58098 0.46684 0.0
O29 O 0.48493 0.45824 0.41454 0.0
O30 O 0.50051 0.55797 0.41452 0.0
O31 O 0.62343 0.41868 0.52283 0.0
O32 O 0.55834 0.37677 0.47807 0.0
O33 O 0.40751 0.39441 0.47334 0.0
O34 O 0.3704 0.45024 0.51463 0.0
O35 O 0.3858 0.59758 0.51081 0.0
O36 O 0.64438 0.56508 0.52292 0.0
O37 O 0.44161 0.64199 0.47312 0.0
O38 O 0.59391 0.62274 0.47996 0.0
C39 C 0.51715 0.51615 0.59531 0.0
C40 C 0.49107 0.50747 0.39792 0.0
C41 C 0.36627 0.40422 0.49378 0.0
C42 C 0.60839 0.37494 0.501 0.0
C43 C 0.39566 0.64214 0.4911 0.0
C44 C 0.6428 0.61096 0.50248 0.0
O45 O 0.46333 0.52456 0.57651 0.0
H46 H 0.02359 0.97352 0.47018 0.0
H47 H 0.93033 0.0305 0.36738 0.0
H48 H 0.11524 0.94948 0.37751 0.0
H49 H 0.96494 0.04965 0.48959 0.0
C50 C 0.92141 0.05186 0.47085 0.0
C51 C 0.02391 0.97985 0.4419 0.0
C52 C 0.07565 0.95893 0.42636 0.0
C53 C 0.97232 0.00742 0.42059 0.0
C54 C 0.97154 0.01135 0.38361 0.0
C55 C 0.02291 0.99066 0.36763 0.0
C56 C 0.07521 0.96559 0.38944 0.0
N57 N 0.91982 0.0311 0.43511 0.0
H58 H 0.99109 0.97056 0.53667 0.0
H59 H 0.04031 0.06276 0.63767 0.0
H60 H 0.93422 0.89562 0.63144 0.0
H61 H 0.07857 0.02284 0.52389 0.0
C62 C 0.07701 0.06601 0.53772 0.0
C63 C 0.99095 0.9729 0.56523 0.0
C64 C 0.96078 0.92683 0.58194 0.0
C65 C 0.02009 0.02183 0.58558 0.0
C66 C 0.01751 0.02493 0.62232 0.0
C67 C 0.9876 0.97911 0.63939 0.0
C68 C 0.95941 0.93026 0.61888 0.0
N69 N 0.0513 0.06964 0.57017 0.0
H70 H 0.56463 0.51359 0.96598 0.0
H71 H 0.4796 0.59478 0.86739 0.0
H72 H 0.62647 0.46288 0.86691 0.0
H73 H 0.46775 0.67428 0.90263 0.0
C74 C 0.45455 0.65295 0.92626 0.0
C75 C 0.5624 0.51875 0.93735 0.0
C76 C 0.59862 0.48118 0.91822 0.0
C77 C 0.52166 0.56208 0.91944 0.0
C78 C 0.51501 0.56557 0.88179 0.0
C79 C 0.55185 0.52906 0.8624 0.0
C80 C 0.59538 0.48913 0.88123 0.0
N81 N 0.4848 0.59869 0.93954 0.0
H82 H 0.4661 0.46709 0.02855 0.0
H83 H 0.52244 0.57428 0.12336 0.0
H84 H 0.43776 0.39862 0.13122 0.0
H85 H 0.48656 0.65092 0.08073 0.0
C86 C 0.51369 0.63525 0.06031 0.0
C87 C 0.4702 0.47231 0.05732 0.0
C88 C 0.4498 0.42575 0.07807 0.0
C89 C 0.49459 0.52647 0.07334 0.0
C90 C 0.50112 0.5334 0.11074 0.0
C91 C 0.48205 0.48675 0.13199 0.0
C92 C 0.45583 0.43345 0.11528 0.0
N93 N 0.51391 0.57265 0.05133 0.0
H94 H 0.15762 0.19776 0.96806 0.0
H95 H 0.46453 0.30758 0.0998 0.0
H96 H 0.24447 0.09552 0.05934 0.0
H97 H 0.361 0.41939 0.01801 0.0
H98 H 0.39753 0.22118 0.07759 0.0
H99 H 0.24469 0.27061 0.97852 0.0
C100 C 0.19525 0.19028 0.99015 0.0
C101 C 0.19312 0.14094 0.01325 0.0
C102 C 0.39005 0.26442 0.06421 0.0
C103 C 0.29298 0.22439 0.02534 0.0
C104 C 0.42814 0.31374 0.07691 0.0
C105 C 0.41755 0.37097 0.0611 0.0
C106 C 0.34095 0.27247 0.03556 0.0
C107 C 0.37081 0.37613 0.03102 0.0
C108 C 0.24501 0.23194 0.99607 0.0
C109 C 0.2437 0.13327 0.04112 0.0
N110 N 0.33364 0.32767 0.01952 0.0
N111 N 0.29125 0.17497 0.04662 0.0
H112 H 0.08811 0.79639 0.94314 0.0
H113 H 0.42385 0.64059 0.99402 0.0
H114 H 0.20159 0.83642 0.04506 0.0
H115 H 0.35943 0.71839 0.89081 0.0
H116 H 0.33009 0.68332 0.0162 0.0
H117 H 0.17414 0.7341 0.92717 0.0
C118 C 0.13041 0.79096 0.96256 0.0
C119 C 0.13804 0.82245 0.99532 0.0
C120 C 0.33664 0.69047 0.98869 0.0
C121 C 0.23619 0.75103 0.97709 0.0
C122 C 0.3898 0.66634 0.9761 0.0
C123 C 0.39911 0.67661 0.94069 0.0
C124 C 0.29207 0.723 0.96521 0.0
C125 C 0.3539 0.70999 0.91836 0.0
C126 C 0.17953 0.75572 0.95327 0.0
C127 C 0.1941 0.81352 0.01935 0.0
N128 N 0.30198 0.73163 0.93089 0.0
N129 N 0.24148 0.77886 0.00965 0.0
H130 H 0.74556 0.94499 0.03481 0.0
H131 H 0.59041 0.6143 0.00908 0.0
H132 H 0.81765 0.80239 0.97323 0.0
H133 H 0.52695 0.75529 0.07495 0.0
H134 H 0.66435 0.68643 0.98855 0.0
H135 H 0.65623 0.88016 0.04271 0.0
C136 C 0.74247 0.90014 0.02274 0.0
C137 C 0.78974 0.87884 0.00372 0.0
C138 C 0.63387 0.70174 0.00725 0.0
C139 C 0.68732 0.80409 0.01283 0.0
C140 C 0.59165 0.66061 0.01897 0.0
C141 C 0.55336 0.67891 0.04418 0.0
C142 C 0.63775 0.76133 0.02094 0.0
C143 C 0.55627 0.73944 0.05578 0.0
C144 C 0.69129 0.86311 0.02725 0.0
C145 C 0.78262 0.82053 0.98835 0.0
N146 N 0.59824 0.77839 0.04434 0.0
N147 N 0.73268 0.78493 0.99354 0.0
H148 H 0.82691 0.20186 0.04173 0.0
H149 H 0.60845 0.36689 0.89231 0.0
H150 H 0.87643 0.21624 0.93548 0.0
H151 H 0.67672 0.48033 0.98369 0.0
H152 H 0.68387 0.28901 0.91548 0.0
H153 H 0.75189 0.28647 0.02801 0.0
C154 C 0.82241 0.22307 0.01574 0.0
C155 C 0.85761 0.20194 0.98959 0.0
C156 C 0.68182 0.33084 0.93052 0.0
C157 C 0.77209 0.29661 0.97393 0.0
C158 C 0.63921 0.37543 0.91734 0.0
C159 C 0.6378 0.43108 0.93551 0.0
C160 C 0.72232 0.34103 0.96258 0.0
C161 C 0.67688 0.43835 0.96866 0.0
C162 C 0.78007 0.27122 0.00812 0.0
C163 C 0.85035 0.23105 0.95641 0.0
N164 N 0.71827 0.39371 0.98118 0.0
N165 N 0.80752 0.27619 0.94931 0.0
H166 H 0.65355 0.71992 0.46888 0.0
H167 H 0.97409 0.80626 0.5958 0.0
H168 H 0.75753 0.59803 0.54491 0.0
H169 H 0.87149 0.93195 0.522 0.0
H170 H 0.90475 0.72436 0.56947 0.0
H171 H 0.74086 0.79298 0.48057 0.0
C172 C 0.69495 0.70818 0.48775 0.0
C173 C 0.69771 0.65304 0.50636 0.0
C174 C 0.89776 0.76959 0.5586 0.0
C175 C 0.79776 0.73651 0.51979 0.0
C176 C 0.93744 0.81625 0.57359 0.0
C177 C 0.92774 0.87585 0.56132 0.0
C178 C 0.8474 0.78275 0.53143 0.0
C179 C 0.88022 0.88649 0.53225 0.0
C180 C 0.74481 0.74995 0.49437 0.0
C181 C 0.7528 0.64022 0.53027 0.0
N182 N 0.84097 0.84048 0.51864 0.0
N183 N 0.80027 0.68184 0.53652 0.0
H184 H 0.72037 0.35364 0.54529 0.0
H185 H 0.80153 0.06275 0.43407 0.0
H186 H 0.59298 0.27467 0.45742 0.0
H187 H 0.92348 0.12828 0.52792 0.0
H188 H 0.72129 0.13584 0.44539 0.0
H189 H 0.7924 0.26822 0.54233 0.0
C190 C 0.70729 0.31823 0.52553 0.0
C191 C 0.65073 0.32175 0.50133 0.0
C192 C 0.7653 0.13406 0.46375 0.0
C193 C 0.73303 0.22393 0.49781 0.0
C194 C 0.81119 0.09231 0.45726 0.0
C195 C 0.86946 0.09024 0.47986 0.0
C196 C 0.77798 0.17448 0.49285 0.0
C197 C 0.87915 0.12893 0.50977 0.0
C198 C 0.74842 0.26941 0.52391 0.0
C199 C 0.6362 0.27428 0.47646 0.0
N200 N 0.83413 0.17013 0.51519 0.0
N201 N 0.67726 0.22769 0.47519 0.0
H202 H 0.26876 0.40943 0.53335 0.0
H203 H 0.14953 0.06984 0.48426 0.0
H204 H 0.34674 0.29594 0.45727 0.0
H205 H 0.08118 0.1824 0.56405 0.0
H206 H 0.21338 0.15578 0.46852 0.0
H207 H 0.19086 0.33047 0.53942 0.0
C208 C 0.26926 0.36813 0.51768 0.0
C209 C 0.31491 0.35918 0.49503 0.0
C210 C 0.18407 0.1617 0.48931 0.0
C211 C 0.22579 0.26816 0.50205 0.0
C212 C 0.14769 0.11278 0.49823 0.0
C213 C 0.11098 0.11884 0.52582 0.0
C214 C 0.18336 0.21697 0.50811 0.0
C215 C 0.1096 0.17541 0.54296 0.0
C216 C 0.22471 0.32295 0.52119 0.0
C217 C 0.31277 0.30475 0.47525 0.0
N218 N 0.14562 0.22209 0.53398 0.0
N219 N 0.26933 0.2611 0.47944 0.0
H220 H 0.28554 0.65429 0.51974 0.0
H221 H 0.20283 0.97433 0.42681 0.0
H222 H 0.40782 0.75074 0.45785 0.0
H223 H 0.06755 0.86557 0.47275 0.0
H224 H 0.28619 0.90301 0.44985 0.0
H225 H 0.21257 0.74009 0.51317 0.0
C226 C 0.29731 0.6936 0.50494 0.0
C227 C 0.35257 0.69492 0.4889 0.0
C228 C 0.23848 0.89515 0.45536 0.0
C229 C 0.26937 0.79341 0.48156 0.0
C230 C 0.191 0.93591 0.44232 0.0
C231 C 0.12813 0.92507 0.44733 0.0
C232 C 0.2229 0.84304 0.47342 0.0
C233 C 0.11543 0.87537 0.46817 0.0
C234 C 0.25562 0.74261 0.50129 0.0
C235 C 0.36546 0.74732 0.47029 0.0
N236 N 0.16227 0.83553 0.47998 0.0
N237 N 0.32399 0.79426 0.46697 0.0
H238 H 0.93243 0.06975 0.14207 0.0
H239 H 0.06878 0.90734 0.32361 0.0
H240 H 0.09068 0.94644 0.15045 0.0
H241 H 0.97365 0.08043 0.32141 0.0
H242 H 0.06805 0.91384 0.25927 0.0
H243 H 0.93731 0.06699 0.20701 0.0
C244 C 0.96823 0.04209 0.15757 0.0
C245 C 0.01119 0.00815 0.14083 0.0
C246 C 0.04761 0.95047 0.27296 0.0
C247 C 0.01652 0.00448 0.21502 0.0
C248 C 0.04825 0.94705 0.30977 0.0
C249 C 0.02167 0.9937 0.32823 0.0
C250 C 0.01923 0.00033 0.25421 0.0
C251 C 0.99402 0.04302 0.3084 0.0
C252 C 0.9711 0.04079 0.19461 0.0
C253 C 0.05679 0.97342 0.16227 0.0
N254 N 0.99329 0.04491 0.27244 0.0
N255 N 0.05792 0.97206 0.19828 0.0
H256 H 0.98287 0.09657 0.85801 0.0
H257 H -0.00046 0.88561 0.68747 0.0
H258 H 0.96347 0.90141 0.85943 0.0
H259 H 0.9702 0.07933 0.68057 0.0
H260 H 0.99264 0.8909 0.75119 0.0
H261 H 0.98414 0.09156 0.79361 0.0
C262 C 0.97862 0.05265 0.84478 0.0
C263 C 0.97319 -0.00072 0.8642 0.0
C264 C 0.98755 0.93222 0.73571 0.0
C265 C 0.97514 0.99329 0.79049 0.0
C266 C 0.99125 0.92926 0.69926 0.0
C267 C 0.9852 0.9821 0.67846 0.0
C268 C 0.97832 0.9885 0.75171 0.0
C269 C 0.97597 0.03752 0.69553 0.0
C270 C 0.97927 0.04988 0.80799 0.0
C271 C 0.96762 0.94372 0.84556 0.0
N272 N 0.97292 0.03927 0.73115 0.0
N273 N 0.96917 0.94215 0.80978 0.0
H274 H 0.60004 0.45584 0.64451 0.0
H275 H 0.52217 0.62594 0.81671 0.0
H276 H 0.44735 0.58539 0.63527 0.0
H277 H 0.56134 0.43344 0.81653 0.0
H278 H 0.51188 0.62463 0.7512 0.0
H279 H 0.60701 0.46084 0.70972 0.0
C280 C 0.5683 0.48559 0.65623 0.0
C281 C 0.52282 0.51998 0.63459 0.0
C282 C 0.52284 0.58296 0.76581 0.0
C283 C 0.53133 0.52661 0.7088 0.0
C284 C 0.52842 0.58346 0.80313 0.0
C285 C 0.54363 0.5299 0.82253 0.0
C286 C 0.53386 0.52894 0.74793 0.0
C287 C 0.55177 0.47641 0.80317 0.0
C288 C 0.57213 0.4882 0.69331 0.0
C289 C 0.48268 0.55775 0.65111 0.0
N290 N 0.54755 0.47748 0.76707 0.0
N291 N 0.48816 0.56048 0.68738 0.0
H292 H 0.49233 0.40698 0.35523 0.0
H293 H 0.46049 0.58809 0.17151 0.0
H294 H 0.48686 0.60283 0.35107 0.0
H295 H 0.51704 0.40034 0.18269 0.0
H296 H 0.46418 0.59496 0.23646 0.0
H297 H 0.49306 0.40371 0.29093 0.0
C298 C 0.49103 0.44937 0.3408 0.0
C299 C 0.48954 0.5053 0.35866 0.0
C300 C 0.476 0.55239 0.22462 0.0
C301 C 0.49049 0.50177 0.28479 0.0
C302 C 0.47429 0.54851 0.18758 0.0
C303 C 0.48796 0.49338 0.17151 0.0
C304 C 0.49106 0.5007 0.24566 0.0
C305 C 0.5048 0.44341 0.19373 0.0
C306 C 0.49179 0.44744 0.30406 0.0
C307 C 0.48817 0.55869 0.33844 0.0
N308 N 0.50547 0.44819 0.22956 0.0
N309 N 0.48848 0.55562 0.30253 0.0
loop_
_geom_bond_atom_site_label_1
_geom_bond_atom_site_label_2
_geom_bond_distance
_geom_bond_site_symmetry_2
_ccdc_geom_bond_type
O0 Zn1 1.953 . S
O0 C16 1.225 1_565 S
Zn1 O0 1.953 . S
Zn1 O2 1.949 1_565 S
Zn1 O8 1.919 . S
Zn1 O13 1.924 1_565 S
O2 Zn1 1.949 1_545 S
O2 Zn3 1.923 1_444 S
O2 Zn4 1.950 1_455 S
O2 Zn5 1.945 1_554 S
Zn3 O2 1.923 1_666 S
Zn3 O6 1.933 . S
Zn3 O9 1.941 1_655 S
Zn3 O10 1.965 . S
Zn4 O2 1.950 1_655 S
Zn4 O11 1.938 1_545 S
Zn4 O12 1.906 . S
Zn4 O22 1.953 . S
Zn5 O2 1.945 1_556 S
Zn5 O7 1.932 . S
Zn5 O14 1.977 1_455 S
Zn5 O15 1.910 . S
O6 Zn3 1.933 . S
O6 C17 1.226 1_565 S
O7 Zn5 1.932 . S
O7 C17 1.307 1_455 S
O8 Zn1 1.919 . S
O8 C19 1.253 1_554 S
O9 Zn3 1.941 1_455 S
O9 C19 1.283 . S
O10 Zn3 1.965 . S
O10 C18 1.303 1_556 S
O11 Zn4 1.938 1_565 S
O11 C18 1.247 . S
O12 Zn4 1.906 . S
O12 C20 1.304 1_554 S
O13 Zn1 1.924 1_545 S
O13 C21 1.311 . S
O14 Zn5 1.977 1_655 S
O14 C20 1.272 . S
O15 Zn5 1.910 . S
O15 C21 1.231 1_556 S
C16 O0 1.225 1_545 S
C16 O22 1.298 1_455 S
C17 O6 1.226 1_545 S
C17 O7 1.307 1_655 S
C18 O10 1.303 1_554 S
C18 O11 1.247 . S
C19 O8 1.253 1_556 S
C19 O9 1.283 . S
C20 O12 1.304 1_556 S
C20 O14 1.272 . S
C21 O13 1.311 . S
C21 O15 1.231 1_554 S
O22 Zn4 1.953 . S
O22 C16 1.298 1_655 S
O23 Zn24 1.953 . S
O23 C39 1.225 . S
Zn24 O23 1.953 . S
Zn24 O25 1.949 . S
Zn24 O31 1.919 . S
Zn24 O36 1.924 . S
O25 Zn24 1.949 . S
O25 Zn26 1.923 . S
O25 Zn27 1.950 . S
O25 Zn28 1.945 . S
Zn26 O25 1.923 . S
Zn26 O29 1.933 . S
Zn26 O32 1.941 . S
Zn26 O33 1.965 . S
Zn27 O25 1.950 . S
Zn27 O34 1.938 . S
Zn27 O35 1.906 . S
Zn27 O45 1.953 . S
Zn28 O25 1.945 . S
Zn28 O30 1.932 . S
Zn28 O37 1.977 . S
Zn28 O38 1.910 . S
O29 Zn26 1.933 . S
O29 C40 1.226 . S
O30 Zn28 1.932 . S
O30 C40 1.307 . S
O31 Zn24 1.919 . S
O31 C42 1.253 . S
O32 Zn26 1.941 . S
O32 C42 1.283 . S
O33 Zn26 1.965 . S
O33 C41 1.303 . S
O34 Zn27 1.938 . S
O34 C41 1.247 . S
O35 Zn27 1.906 . S
O35 C43 1.304 . S
O36 Zn24 1.924 . S
O36 C44 1.311 . S
O37 Zn28 1.977 . S
O37 C43 1.272 . S
O38 Zn28 1.910 . S
O38 C44 1.231 . S
C39 O23 1.225 . S
C39 O45 1.298 . S
C40 O29 1.226 . S
C40 O30 1.307 . S
C41 O33 1.303 . S
C41 O34 1.247 . S
C42 O31 1.253 . S
C42 O32 1.283 . S
C43 O35 1.304 . S
C43 O37 1.272 . S
C44 O36 1.311 . S
C44 O38 1.231 . S
O45 Zn27 1.953 . S
O45 C39 1.298 . S
H46 C51 0.930 . S
H47 C54 0.930 . S
H48 C56 0.930 . S
H49 C50 1.016 . S
C50 H49 1.016 . S
C50 N57 1.286 . S
C51 H46 0.930 . S
C51 C52 1.397 . S
C51 C53 1.361 1_465 S
C52 C51 1.397 . S
C52 C56 1.390 . S
C53 C51 1.361 1_645 S
C53 C54 1.393 . S
C53 N57 1.413 . S
C54 H47 0.930 . S
C54 C53 1.393 . S
C54 C55 1.406 1_655 S
C55 C54 1.406 1_455 S
C55 C56 1.371 1_545 S
C56 H48 0.930 . S
C56 C52 1.390 . S
C56 C55 1.371 1_565 S
N57 C50 1.286 . S
N57 C53 1.413 . S
H58 C63 0.930 . S
H59 C66 0.930 . S
H60 C68 0.930 . S
H61 C62 1.016 . S
C62 H61 1.016 . S
C62 N69 1.286 . S
C63 H58 0.930 . S
C63 C64 1.397 . S
C63 C65 1.361 1_665 S
C64 C63 1.397 . S
C64 C68 1.390 . S
C65 C63 1.361 1_445 S
C65 C66 1.393 . S
C65 N69 1.413 . S
C66 H59 0.930 . S
C66 C65 1.393 . S
C66 C67 1.399 1_455 S
C67 C66 1.399 1_655 S
C67 C68 1.381 1_545 S
C68 H60 0.930 . S
C68 C64 1.390 . S
C68 C67 1.381 1_565 S
N69 C62 1.286 . S
N69 C65 1.413 . S
H70 C75 0.930 . S
H71 C78 0.930 . S
H72 C80 0.930 . S
H73 C74 1.016 . S
C74 H73 1.016 . S
C74 N81 1.286 . S
C75 H70 0.930 . S
C75 C76 1.397 . S
C75 C77 1.361 . S
C76 C75 1.397 . S
C76 C80 1.390 . S
C77 C75 1.361 . S
C77 C78 1.393 . S
C77 N81 1.413 . S
C78 H71 0.930 . S
C78 C77 1.393 . S
C78 C79 1.399 . S
C79 C78 1.399 . S
C79 C80 1.381 . S
C80 H72 0.930 . S
C80 C76 1.390 . S
C80 C79 1.381 . S
N81 C74 1.286 . S
N81 C77 1.413 . S
H82 C87 0.930 . S
H83 C90 0.930 . S
H84 C92 0.930 . S
H85 C86 1.016 . S
C86 H85 1.016 . S
C86 N93 1.286 . S
C87 H82 0.930 . S
C87 C88 1.397 . S
C87 C89 1.361 . S
C88 C87 1.397 . S
C88 C92 1.390 . S
C89 C87 1.361 . S
C89 C90 1.393 . S
C89 N93 1.413 . S
C90 H83 0.930 . S
C90 C89 1.393 . S
C90 C91 1.399 . S
C91 C90 1.399 . S
C91 C92 1.381 . S
C92 H84 0.930 . S
C92 C88 1.390 . S
C92 C91 1.381 . S
N93 C86 1.286 . S
N93 C89 1.413 . S
H94 C100 0.930 1_556 S
H95 C104 0.930 . S
H96 C109 0.929 . S
H97 C107 0.929 . S
H98 C102 0.929 . S
H99 C108 0.907 1_556 S
C100 H94 0.930 1_554 S
C100 C101 1.367 . S
C100 C108 1.378 . S
C101 C100 1.367 . S
C101 C109 1.433 . S
C102 H98 0.929 . S
C102 C104 1.378 . S
C102 C106 1.350 . S
C103 C106 1.463 . S
C103 C108 1.350 . S
C103 N111 1.427 . S
C104 H95 0.930 . S
C104 C102 1.378 . S
C104 C105 1.367 . S
C105 C104 1.367 . S
C105 C107 1.433 . S
C106 C102 1.350 . S
C106 C103 1.463 . S
C106 N110 1.427 . S
C107 H97 0.929 . S
C107 C105 1.433 . S
C107 N110 1.384 . S
C108 H99 0.907 1_554 S
C108 C100 1.378 . S
C108 C103 1.350 . S
C109 H96 0.929 . S
C109 C101 1.433 . S
C109 N111 1.384 . S
N110 C106 1.427 . S
N110 C107 1.384 . S
N111 C103 1.427 . S
N111 C109 1.384 . S
H112 C118 0.930 . S
H113 C122 0.947 . S
H114 C127 0.929 . S
H115 C125 0.929 . S
H116 C120 0.929 1_554 S
H117 C126 0.929 . S
C118 H112 0.930 . S
C118 C119 1.367 . S
C118 C126 1.378 . S
C119 C118 1.367 . S
C119 C127 1.433 1_556 S
C120 H116 0.929 1_556 S
C120 C122 1.378 . S
C120 C124 1.350 . S
C121 C124 1.463 . S
C121 C126 1.350 . S
C121 N129 1.427 1_556 S
C122 H113 0.947 . S
C122 C120 1.378 . S
C122 C123 1.367 . S
C123 C122 1.367 . S
C123 C125 1.433 . S
C124 C120 1.350 . S
C124 C121 1.463 . S
C124 N128 1.427 . S
C125 H115 0.929 . S
C125 C123 1.433 . S
C125 N128 1.384 . S
C126 H117 0.929 . S
C126 C118 1.378 . S
C126 C121 1.350 . S
C127 H114 0.929 . S
C127 C119 1.433 1_554 S
C127 N129 1.384 . S
N128 C124 1.427 . S
N128 C125 1.384 . S
N129 C121 1.427 1_554 S
N129 C127 1.384 . S
H130 C136 0.930 . S
H131 C140 0.930 . S
H132 C145 0.929 . S
H133 C143 0.929 . S
H134 C138 0.929 1_556 S
H135 C144 0.929 . S
C136 H130 0.930 . S
C136 C137 1.367 . S
C136 C144 1.378 . S
C137 C136 1.367 . S
C137 C145 1.433 1_554 S
C138 H134 0.929 1_554 S
C138 C140 1.378 . S
C138 C142 1.350 . S
C139 C142 1.463 . S
C139 C144 1.350 . S
C139 N147 1.427 1_554 S
C140 H131 0.930 . S
C140 C138 1.378 . S
C140 C141 1.367 . S
C141 C140 1.367 . S
C141 C143 1.433 . S
C142 C138 1.350 . S
C142 C139 1.463 . S
C142 N146 1.427 . S
C143 H133 0.929 . S
C143 C141 1.433 . S
C143 N146 1.384 . S
C144 H135 0.929 . S
C144 C136 1.378 . S
C144 C139 1.350 . S
C145 H132 0.929 . S
C145 C137 1.433 1_556 S
C145 N147 1.384 . S
N146 C142 1.427 . S
N146 C143 1.384 . S
N147 C139 1.427 1_556 S
N147 C145 1.384 . S
H148 C154 0.930 1_554 S
H149 C158 0.930 . S
H150 C163 0.929 . S
H151 C161 0.929 . S
H152 C156 0.929 . S
H153 C162 0.929 1_554 S
C154 H148 0.930 1_556 S
C154 C155 1.367 . S
C154 C162 1.378 . S
C155 C154 1.367 . S
C155 C163 1.433 . S
C156 H152 0.929 . S
C156 C158 1.378 . S
C156 C160 1.350 . S
C157 C160 1.463 . S
C157 C162 1.350 . S
C157 N165 1.427 . S
C158 H149 0.930 . S
C158 C156 1.378 . S
C158 C159 1.367 . S
C159 C158 1.367 . S
C159 C161 1.433 . S
C160 C156 1.350 . S
C160 C157 1.463 . S
C160 N164 1.427 . S
C161 H151 0.929 . S
C161 C159 1.433 . S
C161 N164 1.384 . S
C162 H153 0.929 1_556 S
C162 C154 1.378 . S
C162 C157 1.350 . S
C163 H150 0.929 . S
C163 C155 1.433 . S
C163 N165 1.384 . S
N164 C160 1.427 . S
N164 C161 1.384 . S
N165 C157 1.427 . S
N165 C163 1.384 . S
H166 C172 0.930 . S
H167 C176 0.930 . S
H168 C181 0.929 . S
H169 C179 0.929 . S
H170 C174 0.929 . S
H171 C180 0.929 . S
C172 H166 0.930 . S
C172 C173 1.367 . S
C172 C180 1.378 . S
C173 C172 1.367 . S
C173 C181 1.433 . S
C174 H170 0.929 . S
C174 C176 1.378 . S
C174 C178 1.350 . S
C175 C178 1.463 . S
C175 C180 1.350 . S
C175 N183 1.427 . S
C176 H167 0.930 . S
C176 C174 1.378 . S
C176 C177 1.367 . S
C177 C176 1.367 . S
C177 C179 1.433 . S
C178 C174 1.350 . S
C178 C175 1.463 . S
C178 N182 1.427 . S
C179 H169 0.929 . S
C179 C177 1.433 . S
C179 N182 1.384 . S
C180 H171 0.929 . S
C180 C172 1.378 . S
C180 C175 1.350 . S
C181 H168 0.929 . S
C181 C173 1.433 . S
C181 N183 1.384 . S
N182 C178 1.427 . S
N182 C179 1.384 . S
N183 C175 1.427 . S
N183 C181 1.384 . S
H184 C190 0.930 . S
H185 C194 0.930 . S
H186 C199 0.929 . S
H187 C197 0.929 . S
H188 C192 0.929 . S
H189 C198 0.929 . S
C190 H184 0.930 . S
C190 C191 1.367 . S
C190 C198 1.378 . S
C191 C190 1.367 . S
C191 C199 1.433 . S
C192 H188 0.929 . S
C192 C194 1.378 . S
C192 C196 1.350 . S
C193 C196 1.463 . S
C193 C198 1.350 . S
C193 N201 1.427 . S
C194 H185 0.930 . S
C194 C192 1.378 . S
C194 C195 1.367 . S
C195 C194 1.367 . S
C195 C197 1.433 . S
C196 C192 1.350 . S
C196 C193 1.463 . S
C196 N200 1.427 . S
C197 H187 0.929 . S
C197 C195 1.433 . S
C197 N200 1.384 . S
C198 H189 0.929 . S
C198 C190 1.378 . S
C198 C193 1.350 . S
C199 H186 0.929 . S
C199 C191 1.433 . S
C199 N201 1.384 . S
N200 C196 1.427 . S
N200 C197 1.384 . S
N201 C193 1.427 . S
N201 C199 1.384 . S
H202 C208 0.930 . S
H203 C212 0.930 . S
H204 C217 0.929 . S
H205 C215 0.929 . S
H206 C210 0.929 . S
H207 C216 0.929 . S
C208 H202 0.930 . S
C208 C209 1.367 . S
C208 C216 1.378 . S
C209 C208 1.367 . S
C209 C217 1.433 . S
C210 H206 0.929 . S
C210 C212 1.378 . S
C210 C214 1.350 . S
C211 C214 1.463 . S
C211 C216 1.350 . S
C211 N219 1.427 . S
C212 H203 0.930 . S
C212 C210 1.378 . S
C212 C213 1.367 . S
C213 C212 1.367 . S
C213 C215 1.433 . S
C214 C210 1.350 . S
C214 C211 1.463 . S
C214 N218 1.427 . S
C215 H205 0.929 . S
C215 C213 1.433 . S
C215 N218 1.384 . S
C216 H207 0.929 . S
C216 C208 1.378 . S
C216 C211 1.350 . S
C217 H204 0.929 . S
C217 C209 1.433 . S
C217 N219 1.384 . S
N218 C214 1.427 . S
N218 C215 1.384 . S
N219 C211 1.427 . S
N219 C217 1.384 . S
H220 C226 0.930 . S
H221 C230 0.930 . S
H222 C235 0.929 . S
H223 C233 0.929 . S
H224 C228 0.929 . S
H225 C234 0.929 . S
C226 H220 0.930 . S
C226 C227 1.367 . S
C226 C234 1.378 . S
C227 C226 1.367 . S
C227 C235 1.433 . S
C228 H224 0.929 . S
C228 C230 1.378 . S
C228 C232 1.350 . S
C229 C232 1.463 . S
C229 C234 1.350 . S
C229 N237 1.427 . S
C230 H221 0.930 . S
C230 C228 1.378 . S
C230 C231 1.367 . S
C231 C230 1.367 . S
C231 C233 1.433 . S
C232 C228 1.350 . S
C232 C229 1.463 . S
C232 N236 1.427 . S
C233 H223 0.929 . S
C233 C231 1.433 . S
C233 N236 1.384 . S
C234 H225 0.929 . S
C234 C226 1.378 . S
C234 C229 1.350 . S
C235 H222 0.929 . S
C235 C227 1.433 . S
C235 N237 1.384 . S
N236 C232 1.427 . S
N236 C233 1.384 . S
N237 C229 1.427 . S
N237 C235 1.384 . S
H238 C244 0.930 1_655 S
H239 C248 0.930 . S
H240 C253 0.929 . S
H241 C251 0.929 . S
H242 C246 0.929 . S
H243 C252 0.928 1_655 S
C244 H238 0.930 1_455 S
C244 C245 1.367 . S
C244 C252 1.378 . S
C245 C244 1.367 . S
C245 C253 1.433 1_545 S
C246 H242 0.929 . S
C246 C248 1.378 . S
C246 C250 1.350 1_565 S
C247 C250 1.463 . S
C247 C252 1.350 . S
C247 N255 1.427 1_545 S
C248 H239 0.930 . S
C248 C246 1.378 . S
C248 C249 1.367 1_565 S
C249 C248 1.367 1_545 S
C249 C251 1.433 1_455 S
C250 C246 1.350 1_545 S
C250 C247 1.463 . S
C250 N254 1.427 1_455 S
C251 H241 0.929 . S
C251 C249 1.433 1_655 S
C251 N254 1.384 . S
C252 H243 0.928 1_455 S
C252 C244 1.378 . S
C252 C247 1.350 . S
C253 H240 0.929 . S
C253 C245 1.433 1_565 S
C253 N255 1.384 . S
N254 C250 1.427 1_655 S
N254 C251 1.384 . S
N255 C247 1.427 1_565 S
N255 C253 1.384 . S
H256 C262 0.930 . S
H257 C266 0.930 . S
H258 C271 0.929 . S
H259 C269 0.929 . S
H260 C264 0.929 . S
H261 C270 0.929 . S
C262 H256 0.930 . S
C262 C263 1.367 1_455 S
C262 C270 1.378 . S
C263 C262 1.367 1_655 S
C263 C271 1.433 1_545 S
C264 H260 0.929 . S
C264 C266 1.378 . S
C264 C268 1.350 1_565 S
C265 C268 1.461 . S
C265 C270 1.347 1_655 S
C265 N273 1.432 1_545 S
C266 H257 0.930 . S
C266 C264 1.378 . S
C266 C267 1.367 1_565 S
C267 C266 1.367 1_545 S
C267 C269 1.433 1_655 S
C268 C264 1.350 1_545 S
C268 C265 1.461 . S
C268 N272 1.427 1_655 S
C269 H259 0.929 . S
C269 C267 1.433 1_455 S
C269 N272 1.384 . S
C270 H261 0.929 . S
C270 C262 1.378 . S
C270 C265 1.347 1_455 S
C271 H258 0.929 . S
C271 C263 1.433 1_565 S
C271 N273 1.384 . S
N272 C268 1.427 1_455 S
N272 C269 1.384 . S
N273 C265 1.432 1_565 S
N273 C271 1.384 . S
H274 C280 0.930 . S
H275 C284 0.930 . S
H276 C289 0.929 . S
H277 C287 0.929 . S
H278 C282 0.929 . S
H279 C288 0.929 . S
C280 H274 0.930 . S
C280 C281 1.367 . S
C280 C288 1.378 . S
C281 C280 1.367 . S
C281 C289 1.433 . S
C282 H278 0.929 . S
C282 C284 1.378 . S
C282 C286 1.350 . S
C283 C286 1.463 . S
C283 C288 1.350 . S
C283 N291 1.427 . S
C284 H275 0.930 . S
C284 C282 1.378 . S
C284 C285 1.367 . S
C285 C284 1.367 . S
C285 C287 1.433 . S
C286 C282 1.350 . S
C286 C283 1.463 . S
C286 N290 1.427 . S
C287 H277 0.929 . S
C287 C285 1.433 . S
C287 N290 1.384 . S
C288 H279 0.929 . S
C288 C280 1.378 . S
C288 C283 1.350 . S
C289 H276 0.929 . S
C289 C281 1.433 . S
C289 N291 1.384 . S
N290 C286 1.427 . S
N290 C287 1.384 . S
N291 C283 1.427 . S
N291 C289 1.384 . S
H292 C298 0.930 . S
H293 C302 0.930 . S
H294 C307 0.929 . S
H295 C305 0.929 . S
H296 C300 0.929 . S
H297 C306 0.929 . S
C298 H292 0.930 . S
C298 C299 1.367 . S
C298 C306 1.378 . S
C299 C298 1.367 . S
C299 C307 1.433 . S
C300 H296 0.929 . S
C300 C302 1.378 . S
C300 C304 1.350 . S
C301 C304 1.463 . S
C301 C306 1.350 . S
C301 N309 1.427 . S
C302 H293 0.930 . S
C302 C300 1.378 . S
C302 C303 1.367 . S
C303 C302 1.367 . S
C303 C305 1.433 . S
C304 C300 1.350 . S
C304 C301 1.463 . S
C304 N308 1.427 . S
C305 H295 0.929 . S
C305 C303 1.433 . S
C305 N308 1.384 . S
C306 H297 0.929 . S
C306 C298 1.378 . S
C306 C301 1.350 . S
C307 H294 0.929 . S
C307 C299 1.433 . S
C307 N309 1.384 . S
N308 C304 1.427 . S
N308 C305 1.384 . S
N309 C301 1.427 . S
N309 C307 1.384 . S
C105 C88 1.517 . S
C101 C21 1.517 . S
C119 C19 1.411 . S
C123 C74 1.391 . S
C137 C18 1.378 . S
C141 C86 1.373 . S
C155 C20 1.500 . S
C159 C76 1.505 . S
C173 C44 1.516 . S
C177 C64 1.517 . S
C191 C42 1.412 . S
C195 C50 1.389 . S
C213 C62 1.370 . S
C209 C41 1.382 . S
C231 C52 1.511 . S
C227 C43 1.508 . S
C245 C16 1.531 . S
C249 C55 1.526 . S
C263 C17 1.494 . S
C267 C67 1.488 . S
C285 C79 1.529 . S
C281 C39 1.531 . S
C299 C40 1.494 . S
C303 C91 1.492 . S
