# Generated by pormake.
# Topology pyr, (3,6)-cn, num edge types: 1
# Building blocks:
#     Node 0, Type 0, BuildingBlock: QEWDON_clean_linker_0, # of connection points: 3
#     Node 1, Type 0, BuildingBlock: QEWDON_clean_linker_0, # of connection points: 3
#     Node 2, Type 0, BuildingBlock: QEWDON_clean_linker_0, # of connection points: 3
#     Node 3, Type 0, BuildingBlock: QEWDON_clean_linker_0, # of connection points: 3
#     Node 4, Type 0, BuildingBlock: QEWDON_clean_linker_0, # of connection points: 3
#     Node 5, Type 0, BuildingBlock: QEWDON_clean_linker_0, # of connection points: 3
#     Node 6, Type 0, BuildingBlock: QEWDON_clean_linker_0, # of connection points: 3
#     Node 7, Type 0, BuildingBlock: QEWDON_clean_linker_0, # of connection points: 3
#     Node 8, Type 1, BuildingBlock: BETFAJ_clean_sbu_0, # of connection points: 6
#     Node 9, Type 1, BuildingBlock: BETFAJ_clean_sbu_0, # of connection points: 6
#     Node 10, Type 1, BuildingBlock: BETFAJ_clean_sbu_0, # of connection points: 6
#     Node 11, Type 1, BuildingBlock: BETFAJ_clean_sbu_0, # of connection points: 6
#     Edge 12, Type (0, 1), BuildingBlock: KIFKEQ_clean_linker_1, # of connection points: 2
#     Edge 13, Type (0, 1), BuildingBlock: KIFKEQ_clean_linker_1, # of connection points: 2
#     Edge 14, Type (0, 1), BuildingBlock: KIFKEQ_clean_linker_1, # of connection points: 2
#     Edge 15, Type (0, 1), BuildingBlock: KIFKEQ_clean_linker_1, # of connection points: 2
#     Edge 16, Type (0, 1), BuildingBlock: KIFKEQ_clean_linker_1, # of connection points: 2
#     Edge 17, Type (0, 1), BuildingBlock: KIFKEQ_clean_linker_1, # of connection points: 2
#     Edge 18, Type (0, 1), BuildingBlock: KIFKEQ_clean_linker_1, # of connection points: 2
#     Edge 19, Type (0, 1), BuildingBlock: KIFKEQ_clean_linker_1, # of connection points: 2
#     Edge 20, Type (0, 1), BuildingBlock: KIFKEQ_clean_linker_1, # of connection points: 2
#     Edge 21, Type (0, 1), BuildingBlock: KIFKEQ_clean_linker_1, # of connection points: 2
#     Edge 22, Type (0, 1), BuildingBlock: KIFKEQ_clean_linker_1, # of connection points: 2
#     Edge 23, Type (0, 1), BuildingBlock: KIFKEQ_clean_linker_1, # of connection points: 2
#     Edge 24, Type (0, 1), BuildingBlock: KIFKEQ_clean_linker_1, # of connection points: 2
#     Edge 25, Type (0, 1), BuildingBlock: KIFKEQ_clean_linker_1, # of connection points: 2
#     Edge 26, Type (0, 1), BuildingBlock: KIFKEQ_clean_linker_1, # of connection points: 2
#     Edge 27, Type (0, 1), BuildingBlock: KIFKEQ_clean_linker_1, # of connection points: 2
#     Edge 28, Type (0, 1), BuildingBlock: KIFKEQ_clean_linker_1, # of connection points: 2
#     Edge 29, Type (0, 1), BuildingBlock: KIFKEQ_clean_linker_1, # of connection points: 2
#     Edge 30, Type (0, 1), BuildingBlock: KIFKEQ_clean_linker_1, # of connection points: 2
#     Edge 31, Type (0, 1), BuildingBlock: KIFKEQ_clean_linker_1, # of connection points: 2
#     Edge 32, Type (0, 1), BuildingBlock: KIFKEQ_clean_linker_1, # of connection points: 2
#     Edge 33, Type (0, 1), BuildingBlock: KIFKEQ_clean_linker_1, # of connection points: 2
#     Edge 34, Type (0, 1), BuildingBlock: KIFKEQ_clean_linker_1, # of connection points: 2
#     Edge 35, Type (0, 1), BuildingBlock: KIFKEQ_clean_linker_1, # of connection points: 2
# Relax obj value: 0.169
# Max RMSD: 0.266
# Mean RMSD: 0.196
data_MOF--net-pyr--node1-BETFAJ_clean_sbu_0--node2-QEWDON_clean_linker_0--edge1-KIFKEQ_clean_linker_1
_symmetry_space_group_name_H-M    P1
_symmetry_Int_Tables_number       1
_symmetry_cell_setting            triclinic
loop_
_symmetry_equiv_pos_as_xyz
'x, y, z'
_cell_length_a     38.928917
_cell_length_b     41.713699
_cell_length_c     39.802265
_cell_angle_alpha  92.119814
_cell_angle_beta   89.489323
_cell_angle_gamma 109.38902
loop_
_atom_site_label
_atom_site_type_symbol
_atom_site_fract_x
_atom_site_fract_y
_atom_site_fract_z
_atom_type_partial_charge
H0 H 0.44591 0.35486 0.21135 0.0
C1 C 0.42669 0.34505 0.23141 0.0
C2 C 0.42214 0.31266 0.24337 0.0
C3 C 0.4057 0.36428 0.24445 0.0
H4 H 0.39271 0.27438 0.27753 0.0
C5 C 0.39656 0.2996 0.26866 0.0
C6 C 0.37471 0.31805 0.2814 0.0
C7 C 0.37983 0.35058 0.2695 0.0
C8 C 0.40937 0.39786 0.23071 0.0
H9 H 0.36295 0.36492 0.27908 0.0
C10 C 0.37816 0.40615 0.22312 0.0
C11 C 0.38123 0.43765 0.20959 0.0
C12 C 0.44392 0.42157 0.22465 0.0
H13 H 0.46841 0.41598 0.23048 0.0
C14 C 0.44716 0.45295 0.21134 0.0
H15 H 0.3514 0.38761 0.22673 0.0
C16 C 0.41607 0.46099 0.20379 0.0
H17 H 0.41929 0.48556 0.19364 0.0
H18 H 0.47388 0.47114 0.20689 0.0
H19 H 0.21541 0.88359 0.75203 0.0
C20 C 0.22711 0.86511 0.74175 0.0
C21 C 0.25589 0.85936 0.75874 0.0
C22 C 0.21375 0.84744 0.7112 0.0
H23 H 0.2927 0.83048 0.75817 0.0
C24 C 0.27058 0.83525 0.74521 0.0
C25 C 0.25806 0.81802 0.71452 0.0
C26 C 0.22968 0.82419 0.69754 0.0
C27 C 0.18365 0.85365 0.6931 0.0
H28 H 0.22035 0.8112 0.67354 0.0
C29 C 0.18423 0.88703 0.68818 0.0
C30 C 0.15572 0.89292 0.67086 0.0
C31 C 0.15432 0.82614 0.68038 0.0
H32 H 0.15319 0.80019 0.684 0.0
C33 C 0.12593 0.83187 0.66324 0.0
H34 H 0.20685 0.90839 0.69777 0.0
C35 C 0.12653 0.86501 0.6585 0.0
H36 H 0.10438 0.86884 0.64478 0.0
H37 H 0.1034 0.81054 0.65355 0.0
H38 H 0.72652 0.47865 0.90863 0.0
C39 C 0.71586 0.45236 0.91574 0.0
C40 C 0.73697 0.4389 0.93614 0.0
C41 C 0.68023 0.4324 0.906 0.0
H42 H 0.73696 0.39573 0.96425 0.0
C43 C 0.7217 0.40526 0.94689 0.0
C44 C 0.68613 0.38481 0.93761 0.0
C45 C 0.66623 0.39852 0.91631 0.0
C46 C 0.65458 0.44799 0.89118 0.0
H47 H 0.63885 0.38328 0.9087 0.0
C48 C 0.66076 0.46509 0.8603 0.0
C49 C 0.63465 0.47887 0.84793 0.0
C50 C 0.62247 0.44516 0.90911 0.0
H51 H 0.61714 0.43258 0.93289 0.0
C52 C 0.5969 0.45848 0.89694 0.0
H53 H 0.68537 0.46759 0.84619 0.0
C54 C 0.60281 0.47506 0.8667 0.0
H55 H 0.58209 0.48477 0.85776 0.0
H56 H 0.57227 0.4559 0.91103 0.0
H57 H 0.92811 0.81035 0.38632 0.0
C58 C 0.90705 0.79235 0.40062 0.0
C59 C 0.90092 0.80043 0.43444 0.0
C60 C 0.88481 0.76188 0.38464 0.0
H61 H 0.86643 0.78402 0.47758 0.0
C62 C 0.87232 0.77738 0.45209 0.0
C63 C 0.84906 0.74743 0.43625 0.0
C64 C 0.85573 0.73981 0.40258 0.0
C65 C 0.88604 0.75687 0.34752 0.0
H66 H 0.83731 0.71734 0.38981 0.0
C67 C 0.90924 0.74121 0.33119 0.0
C68 C 0.908 0.7361 0.29562 0.0
C69 C 0.86184 0.76714 0.32826 0.0
H70 H 0.84376 0.77898 0.34028 0.0
C71 C 0.86025 0.7619 0.29353 0.0
H72 H 0.928 0.73326 0.34598 0.0
C73 C 0.88283 0.74643 0.27739 0.0
H74 H 0.88006 0.74209 0.2504 0.0
H75 H 0.84113 0.76963 0.27901 0.0
H76 H 0.7107 0.78789 0.95546 0.0
C77 C 0.71742 0.80025 0.93166 0.0
C78 C 0.74936 0.80041 0.91479 0.0
C79 C 0.69518 0.81772 0.919 0.0
H80 H 0.7824 0.81734 0.87087 0.0
C81 C 0.75805 0.81723 0.88438 0.0
C82 C 0.73686 0.83551 0.87196 0.0
C83 C 0.70551 0.83583 0.88935 0.0
C84 C 0.66202 0.81808 0.93755 0.0
H85 H 0.68917 0.85002 0.87967 0.0
C86 C 0.65415 0.84853 0.94257 0.0
C87 C 0.6239 0.84916 0.96178 0.0
C88 C 0.63859 0.78809 0.95123 0.0
H89 H 0.6437 0.76423 0.94742 0.0
C90 C 0.60823 0.78858 0.9699 0.0
H91 H 0.67237 0.87202 0.93283 0.0
C92 C 0.60104 0.81896 0.97542 0.0
H93 H 0.57759 0.81892 0.99032 0.0
H94 H 0.59039 0.76537 0.98038 0.0
H95 H 0.76476 0.19005 0.56778 0.0
C96 C 0.75713 0.1906 0.54175 0.0
C97 C 0.77997 0.18534 0.51616 0.0
C98 C 0.72492 0.19703 0.53399 0.0
H99 H 0.78787 0.1827 0.46258 0.0
C100 C 0.77091 0.18757 0.48253 0.0
C101 C 0.73903 0.19413 0.47426 0.0
C102 C 0.71593 0.19845 0.50002 0.0
C103 C 0.70098 0.20263 0.56134 0.0
H104 H 0.69093 0.20285 0.4935 0.0
C105 C 0.68397 0.22731 0.5584 0.0
C106 C 0.66212 0.23351 0.5844 0.0
C107 C 0.69549 0.18391 0.5908 0.0
H108 H 0.70761 0.16426 0.5937 0.0
C109 C 0.67396 0.19018 0.61682 0.0
H110 H 0.68855 0.24256 0.53628 0.0
C111 C 0.65749 0.215 0.61379 0.0
H112 H 0.64079 0.21946 0.63415 0.0
H113 H 0.66999 0.1757 0.63939 0.0
H114 H 0.45578 0.83105 0.25747 0.0
C115 C 0.42841 0.81559 0.24995 0.0
C116 C 0.40929 0.82856 0.22733 0.0
C117 C 0.41375 0.78196 0.26097 0.0
H118 H 0.36079 0.8176 0.19784 0.0
C119 C 0.37466 0.80778 0.21625 0.0
C120 C 0.35832 0.77454 0.22789 0.0
C121 C 0.37833 0.7619 0.25046 0.0
C122 C 0.43843 0.76649 0.27776 0.0
H123 H 0.36714 0.7361 0.25887 0.0
C124 C 0.43092 0.75069 0.3093 0.0
C125 C 0.45622 0.73711 0.32362 0.0
C126 C 0.47086 0.76787 0.26105 0.0
H127 H 0.47718 0.77942 0.23682 0.0
C128 C 0.49537 0.75422 0.27501 0.0
H129 H 0.40614 0.74938 0.32263 0.0
C130 C 0.48818 0.73904 0.30599 0.0
H131 H 0.50783 0.72879 0.31641 0.0
H132 H 0.52015 0.75549 0.26174 0.0
H133 H 0.26138 0.4863 0.77105 0.0
C134 C 0.24565 0.4622 0.75911 0.0
C135 C 0.25446 0.45342 0.72621 0.0
C136 C 0.21782 0.43914 0.77764 0.0
H137 H 0.24082 0.41336 0.68742 0.0
C138 C 0.23373 0.42138 0.71192 0.0
C139 C 0.20547 0.3982 0.72976 0.0
C140 C 0.19797 0.40727 0.76272 0.0
C141 C 0.21471 0.44491 0.81455 0.0
H142 H 0.17724 0.38915 0.77724 0.0
C143 C 0.19955 0.46889 0.82884 0.0
C144 C 0.1981 0.47327 0.86432 0.0
C145 C 0.22778 0.4255 0.83592 0.0
H146 H 0.23943 0.40702 0.82559 0.0
C147 C 0.22641 0.42986 0.87069 0.0
H148 H 0.18922 0.48394 0.81266 0.0
C149 C 0.21184 0.45356 0.88478 0.0
H150 H 0.21092 0.45627 0.91193 0.0
H151 H 0.23671 0.41478 0.88684 0.0
Sm152 Sm 0.06416 0.1129 0.55262 0.0
Sm153 Sm 0.02929 0.084 0.61863 0.0
C154 C 0.07962 0.13388 0.49063 0.0
C155 C 0.10924 0.15837 0.4725 0.0
C156 C 0.10113 0.17306 0.44388 0.0
C157 C 0.12911 0.19465 0.42495 0.0
C158 C 0.16575 0.20175 0.43426 0.0
C159 C 0.17366 0.1878 0.46368 0.0
C160 C 0.14562 0.16638 0.48271 0.0
C161 C 0.10897 0.09354 0.59434 0.0
C162 C 0.08441 0.16447 0.61713 0.0
C163 C 1.00802 0.06319 0.67967 0.0
C164 C 0.97585 0.03821 0.69438 0.0
C165 C 0.95979 1.0057 0.67928 0.0
C166 C 0.9285 0.98281 0.69313 0.0
C167 C 0.91252 0.99223 0.72198 0.0
C168 C 0.9285 1.02489 0.7368 0.0
C169 C 0.95997 0.04762 0.72316 0.0
C170 C 0.98331 0.10041 0.57599 0.0
C171 C 1.01283 1.03163 0.55448 0.0
O172 O 0.06089 0.1465 0.5115 0.0
O173 O 0.08661 0.10776 0.50226 0.0
O174 O 0.07573 0.07819 0.58924 0.0
O175 O 0.12137 0.11827 0.57383 0.0
O176 O 0.08273 0.16269 0.58401 0.0
O177 O 0.07015 0.1371 0.63515 0.0
O178 O 0.02954 0.05134 0.66133 0.0
O179 O 1.00242 0.08944 0.66685 0.0
O180 O 1.01606 0.11822 0.58163 0.0
O181 O 0.97362 0.07363 0.59402 0.0
O182 O 1.01505 0.03361 0.58766 0.0
O183 O 0.02477 0.05924 0.5365 0.0
H184 H 0.07314 0.16736 0.43583 0.0
H185 H 0.12205 0.20546 0.40279 0.0
H186 H 0.20155 0.19244 0.4714 0.0
H187 H 0.1524 0.15541 0.50492 0.0
H188 H 0.97124 0.99804 0.65672 0.0
H189 H 0.91657 0.95787 0.6811 0.0
H190 H 0.91701 0.03265 0.75929 0.0
H191 H 0.97185 0.07266 0.73502 0.0
Sm192 Sm 0.58195 0.1143 0.09867 0.0
Sm193 Sm 0.51268 0.09538 0.06248 0.0
C194 C 0.64808 0.13818 0.12482 0.0
C195 C 0.66176 0.15085 0.15884 0.0
C196 C 0.64875 0.1741 0.17677 0.0
C197 C 0.65917 0.18339 0.21015 0.0
C198 C 0.68241 0.1693 0.22646 0.0
C199 C 0.69603 0.14661 0.20816 0.0
C200 C 0.68585 0.13756 0.17463 0.0
C201 C 0.5281 0.06159 0.1285 0.0
C202 C 0.52097 0.1437 0.12803 0.0
C203 C 0.44964 0.07059 0.0304 0.0
C204 C 0.42699 0.04146 1.00981 0.0
C205 C 0.38903 0.03237 1.01174 0.0
C206 C 0.36683 1.0079 0.98925 0.0
C207 C 0.38232 0.99226 0.9643 0.0
C208 C 0.42043 1.00035 0.96354 0.0
C209 C 0.44258 1.02469 0.98616 0.0
C210 C 0.55926 0.15979 0.04844 0.0
C211 C 0.57199 0.06028 0.03577 0.0
O212 O 0.63339 0.15688 0.10819 0.0
O213 O 0.62972 0.10567 0.12186 0.0
O214 O 0.53377 0.06455 0.09731 0.0
O215 O 0.55109 0.08697 0.14495 0.0
O216 O 0.5562 0.15163 0.12285 0.0
O217 O 0.4978 0.11723 0.11205 0.0
O218 O 0.45329 0.06596 0.06235 0.0
O219 O 0.47958 0.09004 1.0166 0.0
O220 O 0.56844 0.13351 0.04972 0.0
O221 O 0.52511 0.15267 0.05536 0.0
O222 O 0.53797 0.05969 0.03384 0.0
O223 O 0.59534 0.08138 0.05684 0.0
H224 H 0.62989 0.18459 0.1653 0.0
H225 H 0.64864 0.20134 0.22329 0.0
H226 H 0.71355 0.13488 0.22002 0.0
H227 H 0.69592 0.11937 0.16134 0.0
H228 H 0.37656 0.04502 0.02994 0.0
H229 H 0.33759 1.00182 0.9909 0.0
H230 H 0.43333 0.98908 0.94447 0.0
H231 H 0.47189 1.03133 0.98431 0.0
Sm232 Sm 0.54802 0.57624 0.55922 0.0
Sm233 Sm 0.5536 0.63567 0.60169 0.0
C234 C 0.55994 0.526 0.52391 0.0
C235 C 0.56566 0.49366 0.53031 0.0
C236 C 0.59422 0.48619 0.51395 0.0
C237 C 0.60125 0.45632 0.52041 0.0
C238 C 0.5796 0.43312 0.54321 0.0
C239 C 0.55083 0.44067 0.55952 0.0
C240 C 0.54402 0.47077 0.55326 0.0
C241 C 0.48435 0.56972 0.59408 0.0
C242 C 0.58256 0.58074 0.63628 0.0
C243 C 0.54208 0.68647 0.63637 0.0
C244 C 0.51217 0.70032 0.63822 0.0
C245 C 0.47876 0.68275 0.62248 0.0
C246 C 0.44927 0.69447 0.62662 0.0
C247 C 0.45281 0.72387 0.64663 0.0
C248 C 0.4868 0.74203 0.66131 0.0
C249 C 0.51626 0.73027 0.65716 0.0
C250 C 0.61757 0.64205 0.56794 0.0
C251 C 0.51845 0.6304 0.52622 0.0
O252 O 0.586 0.55346 0.53416 0.0
O253 O 0.52739 0.52765 0.5294 0.0
O254 O 0.51614 0.58148 0.60617 0.0
O255 O 0.48534 0.56069 0.56263 0.0
O256 O 0.5758 0.56423 0.60674 0.0
O257 O 0.57501 0.60901 0.64169 0.0
O258 O 0.53451 0.65591 0.64767 0.0
O259 O 0.56021 0.69056 0.60819 0.0
O260 O 0.58603 0.63023 0.5552 0.0
O261 O 0.61596 0.65165 0.59908 0.0
O262 O 0.51583 0.63981 0.55796 0.0
O263 O 0.53572 0.60876 0.51887 0.0
H264 H 0.61143 0.50373 0.49642 0.0
H265 H 0.6241 0.45175 0.50792 0.0
H266 H 0.53339 0.42323 0.57696 0.0
H267 H 0.52198 0.47616 0.56644 0.0
H268 H 0.47521 0.65946 0.60782 0.0
H269 H 0.42337 0.67979 0.61527 0.0
H270 H 0.49046 0.76506 0.67642 0.0
H271 H 0.54198 0.74413 0.66931 0.0
Sm272 Sm 0.05203 0.56858 0.091 0.0
Sm273 Sm 0.0504 0.6398 0.06382 0.0
C274 C 0.07017 0.51315 0.09491 0.0
C275 C 0.09633 0.5022 0.11362 0.0
C276 C 0.09923 0.47014 0.10623 0.0
C277 C 0.12754 0.46122 0.12003 0.0
C278 C 0.15348 0.48434 0.14138 0.0
C279 C 0.14948 0.51596 0.14988 0.0
C280 C 0.12115 0.52486 0.13601 0.0
C281 C 0.02571 0.60399 0.13993 0.0
C282 C 0.1183 0.64062 0.11151 0.0
C283 C 0.03162 0.69304 0.04926 0.0
C284 C 0.99932 0.69905 0.03554 0.0
C285 C 0.98486 0.72152 0.05289 0.0
C286 C 0.95429 0.7277 0.04042 0.0
C287 C 0.93782 0.71172 1.01018 0.0
C288 C 0.95206 0.68889 0.99302 0.0
C289 C 0.9824 0.68243 1.00569 0.0
C290 C 0.08674 0.60559 1.02464 0.0
C291 C 0.97991 0.56832 0.04852 0.0
O292 O 0.08485 0.5371 0.07364 0.0
O293 O 0.04294 0.51763 0.11183 0.0
O294 O 0.03677 0.61223 0.11077 0.0
O295 O 0.0276 0.57388 0.14454 0.0
O296 O 0.10875 0.6072 0.10602 0.0
O297 O 0.0982 0.65857 0.10124 0.0
O298 O 0.02799 0.68057 0.07928 0.0
O299 O 0.05012 0.67974 1.02869 0.0
O300 O 0.05711 0.59223 0.04005 0.0
O301 O 0.09771 0.63859 1.02884 0.0
O302 O 0.99361 0.60202 0.04789 0.0
O303 O 0.99756 0.54973 0.06214 0.0
H304 H 0.08036 0.45243 0.08886 0.0
H305 H 0.1296 0.43651 0.11339 0.0
H306 H 0.16919 0.53445 0.16597 0.0
H307 H 0.11946 0.54989 0.1417 0.0
H308 H 0.99738 0.73447 0.07603 0.0
H309 H 0.94412 0.74567 0.05397 0.0
H310 H 0.93967 0.67601 0.96981 0.0
H311 H 0.99266 0.66457 0.99204 0.0
H312 H 0.35344 0.34743 0.33712 0.0
H313 H 0.32763 0.25292 0.27879 0.0
H314 H 0.30199 0.3215 0.37413 0.0
H315 H 0.2776 0.22673 0.31646 0.0
H316 H 0.16822 0.19918 0.36568 0.0
H317 H 0.21815 0.22941 0.3295 0.0
H318 H 0.28189 0.2785 0.41677 0.0
H319 H 0.23104 0.24945 0.45307 0.0
C320 C 0.3369 0.32112 0.3323 0.0
C321 C 0.3447 0.30221 0.30508 0.0
C322 C 0.30766 0.3062 0.35365 0.0
C323 C 0.2856 0.27211 0.34813 0.0
C324 C 0.29369 0.25319 0.32112 0.0
C325 C 0.32277 0.26808 0.29981 0.0
C326 C 0.19255 0.21694 0.3772 0.0
C327 C 0.19561 0.22185 0.41231 0.0
C328 C 0.22141 0.23391 0.35645 0.0
C329 C 0.25416 0.25605 0.37028 0.0
C330 C 0.25696 0.26172 0.40533 0.0
C331 C 0.22797 0.24479 0.42614 0.0
H332 H 0.32783 0.88719 0.77469 0.0
H333 H 0.22053 0.87674 0.81295 0.0
H334 H 0.35489 0.91643 0.82681 0.0
H335 H 0.24804 0.907 0.86523 0.0
H336 H 0.32378 0.99977 0.93202 0.0
H337 H 0.29022 0.96625 0.88401 0.0
H338 H 0.35571 0.90077 0.88736 0.0
H339 H 0.38885 0.93375 0.93584 0.0
C340 C 0.30996 0.89091 0.79435 0.0
C341 C 0.27196 0.87915 0.78988 0.0
C342 C 0.32551 0.90768 0.8242 0.0
C343 C 0.30351 0.91347 0.85022 0.0
C344 C 0.26557 0.90276 0.84552 0.0
C345 C 0.24989 0.88562 0.81561 0.0
C346 C 0.33046 0.97772 0.9231 0.0
C347 C 0.35923 0.9696 0.93763 0.0
C348 C 0.31126 0.95861 0.89553 0.0
C349 C 0.32066 0.9312 0.8818 0.0
C350 C 0.34834 0.92218 0.89715 0.0
C351 C 0.36735 0.9411 0.92483 0.0
H352 H 0.62738 0.54043 0.83884 0.0
H353 H 0.64919 0.45827 0.78405 0.0
H354 H 0.61921 0.56495 0.78666 0.0
H355 H 0.64283 0.48385 0.73084 0.0
H356 H 0.57896 0.51455 0.64579 0.0
H357 H 0.59842 0.49177 0.69517 0.0
H358 H 0.64195 0.59354 0.7392 0.0
H359 H 0.62064 0.61567 0.69094 0.0
C360 C 0.63147 0.52809 0.81544 0.0
C361 C 0.6388 0.49728 0.81573 0.0
C362 C 0.62697 0.54233 0.78522 0.0
C363 C 0.63009 0.52654 0.75396 0.0
C364 C 0.63953 0.4966 0.75421 0.0
C365 C 0.64384 0.48216 0.78474 0.0
C366 C 0.59289 0.53202 0.666 0.0
C367 C 0.59771 0.56691 0.66456 0.0
C368 C 0.60434 0.51897 0.69436 0.0
C369 C 0.62145 0.54055 0.72187 0.0
C370 C 0.62792 0.57572 0.71933 0.0
C371 C 0.61587 0.58858 0.69139 0.0
H372 H 0.92886 0.68137 0.31282 0.0
H373 H 0.94098 0.75334 0.23473 0.0
H374 H 0.96093 0.65106 0.27784 0.0
H375 H 0.96999 0.722 0.19902 0.0
H376 H 0.04138 0.67294 0.14396 0.0
H377 H 1.01873 0.70634 0.18437 0.0
H378 H 0.95484 0.61392 0.23192 0.0
H379 H 0.97942 0.58106 0.19239 0.0
C380 C 0.93855 0.69092 0.28835 0.0
C381 C 0.93168 0.71963 0.2766 0.0
C382 C 0.95648 0.67315 0.26789 0.0
C383 C 0.96791 0.68347 0.235 0.0
C384 C 0.96225 0.71305 0.22405 0.0
C385 C 0.9449 0.73093 0.24455 0.0
C386 C 0.02235 0.65984 0.16297 0.0
C387 C 1.01175 0.62434 0.16461 0.0
C388 C 1.00915 0.67898 0.18628 0.0
C389 C 0.98431 0.66313 0.21164 0.0
C390 C 0.97419 0.62746 0.21337 0.0
C391 C 0.98802 0.60843 0.19041 0.0
H392 H 0.42531 0.29721 0.17678 0.0
H393 H 0.46092 0.27808 0.27415 0.0
H394 H 0.45036 0.25578 0.15069 0.0
H395 H 0.48638 0.23677 0.24791 0.0
H396 H 0.55863 0.19349 0.17352 0.0
H397 H 0.53701 0.2359 0.20272 0.0
H398 H 0.43112 0.18969 0.15697 0.0
H399 H 0.4523 0.14711 0.12821 0.0
C400 C 0.43913 0.2846 0.19246 0.0
C401 C 0.44129 0.29081 0.22741 0.0
C402 C 0.45311 0.26072 0.17762 0.0
C403 C 0.46999 0.24299 0.19739 0.0
C404 C 0.47352 0.25018 0.23218 0.0
C405 C 0.45895 0.27368 0.24713 0.0
C406 C 0.53061 0.19216 0.17004 0.0
C407 C 0.50716 0.16701 0.14854 0.0
C408 C 0.51831 0.21638 0.18675 0.0
C409 C 0.48259 0.21619 0.18172 0.0
C410 C 0.45893 0.19058 0.1609 0.0
C411 C 0.471 0.16607 0.14469 0.0
H412 H 0.10006 0.91796 0.68025 0.0
H413 H 0.21255 0.94701 0.64937 0.0
H414 H 0.09881 0.97404 0.66739 0.0
H415 H 0.21163 1.00388 0.63708 0.0
H416 H 0.16236 0.07104 0.56911 0.0
H417 H 0.18143 1.02659 0.59353 0.0
H418 H 0.12236 0.03408 0.68429 0.0
H419 H 0.1028 0.07778 0.65935 0.0
C420 C 0.12464 0.93652 0.67099 0.0
C421 C 0.15627 0.92805 0.66554 0.0
C422 C 0.12413 0.96885 0.66405 0.0
C423 C 0.15525 0.99354 0.65144 0.0
C424 C 0.18725 0.98538 0.64674 0.0
C425 C 0.18782 0.95295 0.65393 0.0
C426 C 0.15493 0.06415 0.59481 0.0
C427 C 0.13102 0.07739 0.61243 0.0
C428 C 0.16568 0.03864 0.60879 0.0
C429 C 0.15263 1.02629 0.64053 0.0
C430 C 0.1321 0.0425 0.65947 0.0
C431 C 0.12114 0.06764 0.64538 0.0
H432 H 0.75884 0.50462 0.96237 0.0
H433 H 0.79853 0.42128 0.93943 0.0
H434 H 0.81707 0.53663 0.98905 0.0
H435 H 0.85682 0.45329 0.96543 0.0
H436 H 0.94012 0.50028 0.0477 0.0
H437 H 0.88256 0.47092 1.01941 0.0
H438 H 0.88071 0.56633 0.9822 0.0
H439 H 0.93797 0.59592 1.01138 0.0
C440 C 0.78024 0.49339 0.96242 0.0
C441 C 0.77385 0.46026 0.94887 0.0
C442 C 0.81371 0.51174 0.9778 0.0
C443 C 0.84178 0.49752 0.97993 0.0
C444 C 0.83572 0.46487 0.96518 0.0
C445 C 0.80229 0.44653 0.95001 0.0
C446 C 0.92749 0.51512 0.03359 0.0
C447 C 0.94396 0.55057 0.03191 0.0
C448 C 0.89445 0.49816 1.01704 0.0
C449 C 0.87684 0.51605 0.99808 0.0
C450 C 0.89311 0.55161 0.99672 0.0
C451 C 0.92616 0.56862 1.01342 0.0
H452 H 0.84369 0.72326 0.4998 0.0
H453 H 0.77886 0.72476 0.41297 0.0
H454 H 0.78855 0.69354 0.53063 0.0
H455 H 0.72349 0.6964 0.44402 0.0
H456 H 0.62795 0.62721 0.50155 0.0
H457 H 0.68418 0.64792 0.46901 0.0
H458 H 0.74006 0.70413 0.55724 0.0
H459 H 0.68464 0.68217 0.58966 0.0
C460 C 0.81757 0.71713 0.4873 0.0
C461 C 0.81568 0.72636 0.45395 0.0
C462 C 0.78581 0.7003 0.50504 0.0
C463 C 0.75114 0.69276 0.49016 0.0
C464 C 0.74946 0.7012 0.45638 0.0
C465 C 0.78129 0.71759 0.4385 0.0
C466 C 0.65244 0.64373 0.51394 0.0
C467 C 0.6518 0.65309 0.54815 0.0
C468 C 0.68469 0.65586 0.49525 0.0
C469 C 0.71704 0.67791 0.51027 0.0
C470 C 0.71621 0.68676 0.5447 0.0
C471 C 0.68418 0.67435 0.56336 0.0
H472 H 0.31899 0.42652 0.24657 0.0
H473 H 0.36842 0.46666 0.15271 0.0
H474 H 0.26339 0.43736 0.23088 0.0
H475 H 0.31325 0.47824 0.13742 0.0
H476 H 0.19551 0.45559 0.10422 0.0
H477 H 0.25015 0.44448 0.1217 0.0
H478 H 0.24066 0.48546 0.22127 0.0
H479 H 0.18522 0.49584 0.20396 0.0
C480 C 0.31798 0.43772 0.22263 0.0
C481 C 0.34804 0.44565 0.20082 0.0
C482 C 0.28629 0.4442 0.2138 0.0
C483 C 0.28389 0.45852 0.18286 0.0
C484 C 0.31411 0.46681 0.16126 0.0
C485 C 0.34585 0.46052 0.17016 0.0
C486 C 0.20475 0.4618 0.12998 0.0
C487 C 0.18594 0.47647 0.15275 0.0
C488 C 0.23633 0.45583 0.13987 0.0
C489 C 0.24985 0.4643 0.17279 0.0
C490 C 0.23079 0.47851 0.19577 0.0
C491 C 0.19923 0.48467 0.1858 0.0
H492 H 0.61444 0.35456 0.95573 0.0
H493 H 0.71779 0.33698 0.95447 0.0
H494 H 0.58618 0.30049 0.9812 0.0
H495 H 0.68994 0.28384 0.98288 0.0
H496 H 0.61988 0.17378 1.00782 0.0
H497 H 0.65114 0.22714 0.98016 0.0
H498 H 0.58036 0.27381 0.03137 0.0
H499 H 0.54831 0.22026 0.05715 0.0
C500 C 0.6313 0.33919 0.96063 0.0
C501 C 0.66864 0.35057 0.95262 0.0
C502 C 0.61509 0.30819 0.9761 0.0
C503 C 0.63566 0.28757 0.98486 0.0
C504 C 0.67293 0.29866 0.97651 0.0
C505 C 0.68911 0.32956 0.96052 0.0
C506 C 0.61128 0.19561 1.01319 0.0
C507 C 0.58142 0.19275 0.03438 0.0
C508 C 0.62925 0.22633 0.99741 0.0
C509 C 0.6181 0.25506 1.00286 0.0
C510 C 0.58919 0.25226 1.0254 0.0
C511 C 0.57095 0.22154 0.04059 0.0
H512 H 0.91562 0.86357 0.40861 0.0
H513 H 0.93144 0.81397 0.49745 0.0
H514 H 0.94243 0.91884 0.43727 0.0
H515 H 0.95965 0.8692 0.52593 0.0
H516 H 0.97286 0.9705 0.58094 0.0
H517 H 0.94759 0.91534 0.55162 0.0
H518 H 0.99399 0.96056 0.45851 0.0
H519 H 1.01767 1.01579 0.48761 0.0
C520 C 0.92565 0.86451 0.43405 0.0
C521 C 0.92142 0.83428 0.45066 0.0
C522 C 0.94111 0.89633 0.45063 0.0
C523 C 0.95325 0.89894 0.48425 0.0
C524 C 0.94997 0.86856 0.50043 0.0
C525 C 0.93407 0.83675 0.48397 0.0
C526 C 0.97756 0.96867 0.55418 0.0
C527 C 0.9972 0.99776 0.5367 0.0
C528 C 0.96329 0.93685 0.53729 0.0
C529 C 0.96862 0.93302 0.50244 0.0
C530 C 0.98853 0.96223 0.48511 0.0
C531 C 1.00237 0.99408 0.50191 0.0
H532 H 0.27174 0.76556 0.74347 0.0
H533 H 0.28848 0.82164 0.65236 0.0
H534 H 0.31479 0.73773 0.72406 0.0
H535 H 0.33226 0.79442 0.63311 0.0
H536 H 0.39952 0.72606 0.60297 0.0
H537 H 0.34578 0.74223 0.61617 0.0
H538 H 0.38067 0.76202 0.7199 0.0
H539 H 0.43324 0.74485 0.70705 0.0
C540 C 0.28415 0.77134 0.71897 0.0
C541 C 0.27721 0.79587 0.6995 0.0
C542 C 0.30892 0.75565 0.70795 0.0
C543 C 0.32746 0.76447 0.67741 0.0
C544 C 0.31832 0.78704 0.65671 0.0
C545 C 0.29328 0.80259 0.66767 0.0
C546 C 0.39541 0.73359 0.62862 0.0
C547 C 0.42065 0.73437 0.65395 0.0
C548 C 0.36481 0.74299 0.63611 0.0
C549 C 0.35883 0.75306 0.66911 0.0
C550 C 0.3841 0.75374 0.69435 0.0
C551 C 0.41458 0.74446 0.68688 0.0
H552 H 0.75194 0.90369 0.86954 0.0
H553 H 0.75396 0.81596 0.8098 0.0
H554 H 0.78895 0.94099 0.82768 0.0
H555 H 0.78966 0.85305 0.76693 0.0
H556 H 0.90162 0.92605 0.7351 0.0
H557 H 0.85145 0.8873 0.76552 0.0
H558 H 0.7994 0.96414 0.77366 0.0
H559 H 0.85052 1.00332 0.74397 0.0
C560 C 0.75914 0.89245 0.84672 0.0
C561 C 0.75045 0.85709 0.84288 0.0
C562 C 0.78036 0.91378 0.82266 0.0
C563 C 0.79293 0.90007 0.79413 0.0
C564 C 0.78132 0.8645 0.789 0.0
C565 C 0.76057 0.84323 0.81331 0.0
C566 C 0.87915 0.93443 0.7429 0.0
C567 C 0.88007 0.96773 0.73742 0.0
C568 C 0.85019 0.91215 0.76021 0.0
C569 C 0.82123 0.92252 0.77214 0.0
C570 C 0.82148 0.95546 0.76534 0.0
C571 C 0.8507 0.97789 0.74832 0.0
H572 H 0.78262 0.22918 0.42473 0.0
H573 H 0.67416 0.16068 0.44326 0.0
H574 H 0.76879 0.22697 0.36485 0.0
H575 H 0.66047 0.15754 0.38331 0.0
H576 H 0.63696 0.17674 0.27683 0.0
H577 H 0.65036 0.18732 0.33656 0.0
H578 H 0.76004 0.18739 0.31848 0.0
H579 H 0.74734 0.17899 0.25849 0.0
C580 C 0.75578 0.21369 0.41589 0.0
C581 C 0.72947 0.19501 0.4385 0.0
C582 C 0.7479 0.21227 0.38162 0.0
C583 C 0.71362 0.19184 0.36917 0.0
C584 C 0.68698 0.1739 0.39203 0.0
C585 C 0.69478 0.1756 0.42637 0.0
C586 C 0.66419 0.17974 0.28546 0.0
C587 C 0.69109 0.17701 0.26278 0.0
C588 C 0.67171 0.18533 0.31983 0.0
C589 C 0.70621 0.18804 0.33241 0.0
C590 C 0.73328 0.18584 0.30967 0.0
C591 C 0.72585 0.18052 0.27527 0.0
H592 H 0.43054 0.6696 0.33572 0.0
H593 H 0.4751 0.76804 0.38552 0.0
H594 H 0.43996 0.64244 0.38663 0.0
H595 H 0.48536 0.74121 0.43645 0.0
H596 H 0.48629 0.68034 0.53024 0.0
H597 H 0.46333 0.70495 0.48408 0.0
H598 H 0.49289 0.63773 0.4132 0.0
H599 H 0.51522 0.61305 0.45902 0.0
C600 C 0.44112 0.68534 0.35805 0.0
C601 C 0.45129 0.72089 0.35686 0.0
C602 C 0.44719 0.66986 0.38711 0.0
C603 C 0.46403 0.68953 0.41575 0.0
C604 C 0.4721 0.72507 0.41517 0.0
C605 C 0.46598 0.74054 0.38602 0.0
C606 C 0.48761 0.67063 0.50481 0.0
C607 C 0.50273 0.64464 0.49852 0.0
C608 C 0.47456 0.68489 0.47825 0.0
C609 C 0.47597 0.67337 0.44466 0.0
C610 C 0.49059 0.64699 0.4386 0.0
C611 C 0.50376 0.63293 0.46502 0.0
H612 H 0.23255 0.52623 0.90709 0.0
H613 H 0.12774 0.47377 0.86206 0.0
H614 H 0.20529 0.55884 0.94431 0.0
H615 H 0.10004 0.5066 0.89939 0.0
H616 H 0.05982 0.53866 1.0024 0.0
H617 H 0.08612 0.50942 0.96016 0.0
H618 H 0.17629 0.6022 0.94758 0.0
H619 H 0.15016 0.63116 0.98988 0.0
C620 C 0.20375 0.52235 0.90459 0.0
C621 C 0.18239 0.49772 0.88135 0.0
C622 C 0.18803 0.541 0.92601 0.0
C623 C 0.15031 0.53531 0.92517 0.0
C624 C 0.12908 0.51143 0.90107 0.0
C625 C 0.14499 0.49297 0.87929 0.0
C626 C 0.08531 0.55275 0.99066 0.0
C627 C 0.10297 0.58723 0.99968 0.0
C628 C 0.10024 0.53608 0.96617 0.0
C629 C 0.13338 0.55338 0.95022 0.0
C630 C 0.15096 0.58788 0.95942 0.0
C631 C 0.13592 0.60456 0.98368 0.0
H632 H 0.61698 0.87663 1.02317 0.0
H633 H 0.61605 0.89461 0.91714 0.0
H634 H 0.60679 0.93054 0.0362 0.0
H635 H 0.60488 0.94848 0.93027 0.0
H636 H 0.53394 1.01342 0.98741 0.0
H637 H 0.54827 0.96358 0.96552 0.0
H638 H 0.6483 0.99609 1.02264 0.0
H639 H 0.63477 0.046 0.04398 0.0
C640 C 0.61435 0.89209 1.0027 0.0
C641 C 0.61724 0.8816 0.9692 0.0
C642 C 0.60871 0.9229 1.01012 0.0
C643 C 0.60518 0.94352 0.98419 0.0
C644 C 0.60751 0.9329 0.95062 0.0
C645 C 0.61398 0.9023 0.94317 0.0
C646 C 0.55939 1.01037 0.99467 0.0
C647 C 0.58304 0.03359 1.01767 0.0
C648 C 0.56755 0.9819 0.98211 0.0
C649 C 0.59917 0.97602 0.99276 0.0
C650 C 0.62363 1.00005 1.0143 0.0
C651 C 0.61585 1.02868 1.02639 0.0
H652 H 0.84793 0.20726 0.48774 0.0
H653 H 0.78431 0.14058 0.56269 0.0
H654 H 0.89875 0.18674 0.49807 0.0
H655 H 0.83534 0.12126 0.57393 0.0
H656 H 0.91332 0.0643 0.56103 0.0
H657 H 0.86552 0.0861 0.54435 0.0
H658 H 0.94409 0.18744 0.54145 0.0
H659 H 0.9923 0.16527 0.55745 0.0
C660 C 0.8449 0.1884 0.50654 0.0
C661 C 0.81207 0.17543 0.52432 0.0
C662 C 0.87406 0.17687 0.51261 0.0
C663 C 0.87086 0.1521 0.5365 0.0
C664 C 0.83839 0.13988 0.55487 0.0
C665 C 0.80932 0.15134 0.54881 0.0
C666 C 0.92046 0.09115 0.55636 0.0
C667 C 0.95629 0.11321 0.56092 0.0
C668 C 0.89307 0.10368 0.54708 0.0
C669 C 0.90092 0.13859 0.54236 0.0
C670 C 0.93724 0.16041 0.54497 0.0
C671 C 0.96479 0.14777 0.55413 0.0
H672 H 0.30078 0.79525 0.21073 0.0
H673 H 0.33106 0.70475 0.21479 0.0
H674 H 0.24464 0.76294 0.18297 0.0
H675 H 0.27259 0.67135 0.1903 0.0
H676 H 0.18114 0.62458 0.11354 0.0
H677 H 0.23775 0.65555 0.14298 0.0
H678 H 0.18763 0.72659 0.18453 0.0
H679 H 0.13249 0.69706 0.1529 0.0
C680 C 0.29549 0.76832 0.20598 0.0
C681 C 0.32135 0.75307 0.21467 0.0
C682 C 0.26248 0.74937 0.1905 0.0
C683 C 0.2533 0.71407 0.18399 0.0
C684 C 0.27851 0.69848 0.19398 0.0
C685 C 0.31207 0.71768 0.2088 0.0
C686 C 0.18245 0.64696 0.12888 0.0
C687 C 0.15249 0.65863 0.13047 0.0
C688 C 0.21493 0.66469 0.14616 0.0
C689 C 0.21808 0.69414 0.16632 0.0
C690 C 0.18734 0.70491 0.16862 0.0
C691 C 0.15533 0.68776 0.1506 0.0
H692 H 0.26348 0.46119 0.6577 0.0
H693 H 0.31993 0.49724 0.75187 0.0
H694 H 0.31812 0.49051 0.62739 0.0
H695 H 0.37353 0.52996 0.72146 0.0
H696 H 0.47833 0.55316 0.66024 0.0
H697 H 0.42291 0.52819 0.69223 0.0
H698 H 0.35894 0.5372 0.60687 0.0
H699 H 0.41456 0.55947 0.57439 0.0
C700 C 0.2874 0.47563 0.67214 0.0
C701 C 0.28691 0.47596 0.70757 0.0
C702 C 0.31895 0.49327 0.65452 0.0
C703 C 0.3511 0.51286 0.67156 0.0
C704 C 0.35002 0.51464 0.70703 0.0
C705 C 0.31866 0.49626 0.72469 0.0
C706 C 0.45233 0.54987 0.64846 0.0
C707 C 0.45077 0.55799 0.61471 0.0
C708 C 0.42028 0.53571 0.66693 0.0
C709 C 0.38566 0.53009 0.65247 0.0
C710 C 0.38455 0.53985 0.61898 0.0
C711 C 0.41657 0.55308 0.60027 0.0
H712 H 0.73379 0.74096 0.94908 0.0
H713 H 0.82367 0.82604 0.915 0.0
H714 H 0.77727 0.7165 0.97249 0.0
H715 H 0.86646 0.80095 0.93704 0.0
H716 H 0.93008 0.7279 0.94573 0.0
H717 H 0.88223 0.74665 0.9228 0.0
H718 H 0.82855 0.73409 1.01917 0.0
H719 H 0.87657 0.71523 0.04224 0.0
C720 C 0.76266 0.75445 0.94658 0.0
C721 C 0.77515 0.78522 0.92964 0.0
C722 C 0.78748 0.74038 0.95987 0.0
C723 C 0.82513 0.75664 0.95608 0.0
C724 C 0.83755 0.78752 0.93964 0.0
C725 C 0.81294 0.80177 0.92686 0.0
C726 C 0.90778 0.72863 0.96188 0.0
C727 C 0.90708 0.72025 0.99578 0.0
C728 C 0.88056 0.73955 0.94883 0.0
C729 C 0.85186 0.74195 0.9693 0.0
C730 C 0.85032 0.7323 1.00286 0.0
C731 C 0.87787 0.72179 1.01607 0.0
H732 H 0.42001 0.84515 0.16144 0.0
H733 H 0.43685 0.8898 0.26183 0.0
H734 H 0.44785 0.90104 0.13827 0.0
H735 H 0.46258 0.94629 0.23902 0.0
H736 H 0.53839 0.04107 0.19095 0.0
H737 H 0.51044 0.98554 0.21459 0.0
H738 H 0.44357 0.95219 0.12533 0.0
H739 H 0.47374 1.00725 0.10098 0.0
C740 C 0.42933 0.86713 0.17855 0.0
C741 C 0.42628 0.86306 0.21346 0.0
C742 C 0.44507 0.89944 0.16528 0.0
C743 C 0.45759 0.9289 0.18649 0.0
C744 C 0.45416 0.92459 0.22156 0.0
C745 C 0.43913 0.89212 0.23482 0.0
C746 C 0.51759 1.02187 0.17645 0.0
C747 C 0.50837 1.02859 0.14402 0.0
C748 C 0.50122 0.98984 0.19014 0.0
C749 C 0.47447 0.96365 0.17212 0.0
C750 C 0.46457 0.97097 0.13994 0.0
C751 C 0.48158 1.00281 0.12598 0.0
H752 H 0.17655 0.38238 0.66641 0.0
H753 H 0.19 0.33594 0.75817 0.0
H754 H 0.14682 0.32636 0.64021 0.0
H755 H 0.16147 0.27967 0.73175 0.0
H756 H 0.08098 0.18257 0.6839 0.0
H757 H 0.1082 0.23844 0.71146 0.0
H758 H 0.15728 0.27841 0.61733 0.0
H759 H 0.12877 0.22304 0.58969 0.0
C760 C 0.17328 0.36011 0.68095 0.0
C761 C 0.18566 0.36373 0.71442 0.0
C762 C 0.15642 0.32783 0.66584 0.0
C763 C 0.15182 0.29803 0.68356 0.0
C764 C 0.16388 0.30176 0.71725 0.0
C765 C 0.18036 0.33412 0.73249 0.0
C766 C 0.09764 0.20329 0.66911 0.0
C767 C 0.1025 0.19818 0.63449 0.0
C768 C 0.11349 0.23545 0.68499 0.0
C769 C 0.13501 0.26342 0.66679 0.0
C770 C 0.14029 0.25799 0.63224 0.0
C771 C 0.12412 0.22598 0.61633 0.0
H772 H 0.62032 0.23967 0.53243 0.0
H773 H 0.66538 0.28652 0.62783 0.0
H774 H 0.59568 0.28537 0.52376 0.0
H775 H 0.64218 0.3332 0.61875 0.0
H776 H 0.57599 0.40227 0.60352 0.0
H777 H 0.5907 0.35129 0.61475 0.0
H778 H 0.61815 0.34289 0.51004 0.0
H779 H 0.60102 0.39219 0.49845 0.0
C780 C 0.62488 0.25986 0.55153 0.0
C781 C 0.64483 0.2598 0.58068 0.0
C782 C 0.611 0.28614 0.54653 0.0
C783 C 0.6173 0.31326 0.57035 0.0
C784 C 0.63639 0.31257 0.60005 0.0
C785 C 0.64982 0.28595 0.60525 0.0
C786 C 0.58445 0.38912 0.58278 0.0
C787 C 0.58743 0.40145 0.55008 0.0
C788 C 0.59338 0.36014 0.58931 0.0
C789 C 0.60575 0.34296 0.56335 0.0
C790 C 0.60823 0.35508 0.53061 0.0
C791 C 0.59896 0.38378 0.52403 0.0
loop_
_geom_bond_atom_site_label_1
_geom_bond_atom_site_label_2
_geom_bond_distance
_geom_bond_site_symmetry_2
_ccdc_geom_bond_type
H0 C1 0.949 . S
C1 H0 0.949 . S
C1 C2 1.395 . S
C1 C3 1.391 . S
C2 C1 1.395 . S
C2 C5 1.390 . S
C3 C1 1.391 . S
C3 C7 1.387 . S
C3 C8 1.491 . S
H4 C5 0.950 . S
C5 C2 1.390 . S
C5 H4 0.950 . S
C5 C6 1.378 . S
C6 C5 1.378 . S
C6 C7 1.409 . S
C7 C3 1.387 . S
C7 C6 1.409 . S
C7 H9 0.951 . S
C8 C3 1.491 . S
C8 C10 1.382 . S
C8 C12 1.404 . S
H9 C7 0.951 . S
C10 C8 1.382 . S
C10 C11 1.390 . S
C10 H15 0.949 . S
C11 C10 1.390 . S
C11 C16 1.399 . S
C12 C8 1.404 . S
C12 H13 0.950 . S
C12 C14 1.375 . S
H13 C12 0.950 . S
C14 C12 1.375 . S
C14 C16 1.382 . S
C14 H18 0.950 . S
H15 C10 0.949 . S
C16 C11 1.399 . S
C16 C14 1.382 . S
C16 H17 0.952 . S
H17 C16 0.952 . S
H18 C14 0.950 . S
H19 C20 0.949 . S
C20 H19 0.949 . S
C20 C21 1.395 . S
C20 C22 1.391 . S
C21 C20 1.395 . S
C21 C24 1.390 . S
C22 C20 1.391 . S
C22 C26 1.387 . S
C22 C27 1.491 . S
H23 C24 0.950 . S
C24 C21 1.390 . S
C24 H23 0.950 . S
C24 C25 1.378 . S
C25 C24 1.378 . S
C25 C26 1.409 . S
C26 C22 1.387 . S
C26 C25 1.409 . S
C26 H28 0.951 . S
C27 C22 1.491 . S
C27 C29 1.382 . S
C27 C31 1.404 . S
H28 C26 0.951 . S
C29 C27 1.382 . S
C29 C30 1.390 . S
C29 H34 0.949 . S
C30 C29 1.390 . S
C30 C35 1.399 . S
C31 C27 1.404 . S
C31 H32 0.950 . S
C31 C33 1.375 . S
H32 C31 0.950 . S
C33 C31 1.375 . S
C33 C35 1.382 . S
C33 H37 0.950 . S
H34 C29 0.949 . S
C35 C30 1.399 . S
C35 C33 1.382 . S
C35 H36 0.952 . S
H36 C35 0.952 . S
H37 C33 0.950 . S
H38 C39 0.949 . S
C39 H38 0.949 . S
C39 C40 1.395 . S
C39 C41 1.391 . S
C40 C39 1.395 . S
C40 C43 1.390 . S
C41 C39 1.391 . S
C41 C45 1.387 . S
C41 C46 1.491 . S
H42 C43 0.950 . S
C43 C40 1.390 . S
C43 H42 0.950 . S
C43 C44 1.378 . S
C44 C43 1.378 . S
C44 C45 1.409 . S
C45 C41 1.387 . S
C45 C44 1.409 . S
C45 H47 0.951 . S
C46 C41 1.491 . S
C46 C48 1.382 . S
C46 C50 1.404 . S
H47 C45 0.951 . S
C48 C46 1.382 . S
C48 C49 1.390 . S
C48 H53 0.949 . S
C49 C48 1.390 . S
C49 C54 1.399 . S
C50 C46 1.404 . S
C50 H51 0.950 . S
C50 C52 1.375 . S
H51 C50 0.950 . S
C52 C50 1.375 . S
C52 C54 1.382 . S
C52 H56 0.950 . S
H53 C48 0.949 . S
C54 C49 1.399 . S
C54 C52 1.382 . S
C54 H55 0.952 . S
H55 C54 0.952 . S
H56 C52 0.950 . S
H57 C58 0.949 . S
C58 H57 0.949 . S
C58 C59 1.395 . S
C58 C60 1.391 . S
C59 C58 1.395 . S
C59 C62 1.390 . S
C60 C58 1.391 . S
C60 C64 1.387 . S
C60 C65 1.491 . S
H61 C62 0.950 . S
C62 C59 1.390 . S
C62 H61 0.950 . S
C62 C63 1.378 . S
C63 C62 1.378 . S
C63 C64 1.409 . S
C64 C60 1.387 . S
C64 C63 1.409 . S
C64 H66 0.951 . S
C65 C60 1.491 . S
C65 C67 1.382 . S
C65 C69 1.404 . S
H66 C64 0.951 . S
C67 C65 1.382 . S
C67 C68 1.390 . S
C67 H72 0.949 . S
C68 C67 1.390 . S
C68 C73 1.399 . S
C69 C65 1.404 . S
C69 H70 0.950 . S
C69 C71 1.375 . S
H70 C69 0.950 . S
C71 C69 1.375 . S
C71 C73 1.382 . S
C71 H75 0.950 . S
H72 C67 0.949 . S
C73 C68 1.399 . S
C73 C71 1.382 . S
C73 H74 0.952 . S
H74 C73 0.952 . S
H75 C71 0.950 . S
H76 C77 0.949 . S
C77 H76 0.949 . S
C77 C78 1.395 . S
C77 C79 1.391 . S
C78 C77 1.395 . S
C78 C81 1.390 . S
C79 C77 1.391 . S
C79 C83 1.387 . S
C79 C84 1.491 . S
H80 C81 0.950 . S
C81 C78 1.390 . S
C81 H80 0.950 . S
C81 C82 1.378 . S
C82 C81 1.378 . S
C82 C83 1.409 . S
C83 C79 1.387 . S
C83 C82 1.409 . S
C83 H85 0.951 . S
C84 C79 1.491 . S
C84 C86 1.382 . S
C84 C88 1.404 . S
H85 C83 0.951 . S
C86 C84 1.382 . S
C86 C87 1.390 . S
C86 H91 0.949 . S
C87 C86 1.390 . S
C87 C92 1.399 . S
C88 C84 1.404 . S
C88 H89 0.950 . S
C88 C90 1.375 . S
H89 C88 0.950 . S
C90 C88 1.375 . S
C90 C92 1.382 . S
C90 H94 0.950 . S
H91 C86 0.949 . S
C92 C87 1.399 . S
C92 C90 1.382 . S
C92 H93 0.952 . S
H93 C92 0.952 . S
H94 C90 0.950 . S
H95 C96 0.949 . S
C96 H95 0.949 . S
C96 C97 1.395 . S
C96 C98 1.391 . S
C97 C96 1.395 . S
C97 C100 1.390 . S
C98 C96 1.391 . S
C98 C102 1.387 . S
C98 C103 1.491 . S
H99 C100 0.950 . S
C100 C97 1.390 . S
C100 H99 0.950 . S
C100 C101 1.378 . S
C101 C100 1.378 . S
C101 C102 1.409 . S
C102 C98 1.387 . S
C102 C101 1.409 . S
C102 H104 0.951 . S
C103 C98 1.491 . S
C103 C105 1.382 . S
C103 C107 1.404 . S
H104 C102 0.951 . S
C105 C103 1.382 . S
C105 C106 1.390 . S
C105 H110 0.949 . S
C106 C105 1.390 . S
C106 C111 1.399 . S
C107 C103 1.404 . S
C107 H108 0.950 . S
C107 C109 1.375 . S
H108 C107 0.950 . S
C109 C107 1.375 . S
C109 C111 1.382 . S
C109 H113 0.950 . S
H110 C105 0.949 . S
C111 C106 1.399 . S
C111 C109 1.382 . S
C111 H112 0.952 . S
H112 C111 0.952 . S
H113 C109 0.950 . S
H114 C115 0.949 . S
C115 H114 0.949 . S
C115 C116 1.395 . S
C115 C117 1.391 . S
C116 C115 1.395 . S
C116 C119 1.390 . S
C117 C115 1.391 . S
C117 C121 1.387 . S
C117 C122 1.491 . S
H118 C119 0.950 . S
C119 C116 1.390 . S
C119 H118 0.950 . S
C119 C120 1.378 . S
C120 C119 1.378 . S
C120 C121 1.409 . S
C121 C117 1.387 . S
C121 C120 1.409 . S
C121 H123 0.951 . S
C122 C117 1.491 . S
C122 C124 1.382 . S
C122 C126 1.404 . S
H123 C121 0.951 . S
C124 C122 1.382 . S
C124 C125 1.390 . S
C124 H129 0.949 . S
C125 C124 1.390 . S
C125 C130 1.399 . S
C126 C122 1.404 . S
C126 H127 0.950 . S
C126 C128 1.375 . S
H127 C126 0.950 . S
C128 C126 1.375 . S
C128 C130 1.382 . S
C128 H132 0.950 . S
H129 C124 0.949 . S
C130 C125 1.399 . S
C130 C128 1.382 . S
C130 H131 0.952 . S
H131 C130 0.952 . S
H132 C128 0.950 . S
H133 C134 0.949 . S
C134 H133 0.949 . S
C134 C135 1.395 . S
C134 C136 1.391 . S
C135 C134 1.395 . S
C135 C138 1.390 . S
C136 C134 1.391 . S
C136 C140 1.387 . S
C136 C141 1.491 . S
H137 C138 0.950 . S
C138 C135 1.390 . S
C138 H137 0.950 . S
C138 C139 1.378 . S
C139 C138 1.378 . S
C139 C140 1.409 . S
C140 C136 1.387 . S
C140 C139 1.409 . S
C140 H142 0.951 . S
C141 C136 1.491 . S
C141 C143 1.382 . S
C141 C145 1.404 . S
H142 C140 0.951 . S
C143 C141 1.382 . S
C143 C144 1.390 . S
C143 H148 0.949 . S
C144 C143 1.390 . S
C144 C149 1.399 . S
C145 C141 1.404 . S
C145 H146 0.950 . S
C145 C147 1.375 . S
H146 C145 0.950 . S
C147 C145 1.375 . S
C147 C149 1.382 . S
C147 H151 0.950 . S
H148 C143 0.949 . S
C149 C144 1.399 . S
C149 C147 1.382 . S
C149 H150 0.952 . S
H150 C149 0.952 . S
H151 C147 0.950 . S
Sm152 C154 2.846 . S
Sm152 O172 2.543 . S
Sm152 O173 2.450 . S
Sm152 O174 2.681 . S
Sm152 O175 2.464 . S
Sm152 O176 2.396 . S
Sm152 O180 2.386 1_455 S
Sm152 O183 2.408 1_545 S
Sm153 C163 2.846 1_545 S
Sm153 O174 2.386 1_655 S
Sm153 O177 2.408 1_655 S
Sm153 O178 2.543 1_545 S
Sm153 O179 2.450 1_545 S
Sm153 O180 2.681 . S
Sm153 O181 2.464 . S
Sm153 O182 2.396 1_545 S
C154 Sm152 2.846 . S
C154 C155 1.506 . S
C154 O172 1.261 . S
C154 O173 1.242 . S
C155 C154 1.506 . S
C155 C156 1.358 . S
C155 C160 1.382 . S
C156 C155 1.358 . S
C156 C157 1.385 . S
C156 H184 0.930 . S
C157 C156 1.385 . S
C157 C158 1.395 . S
C157 H185 0.929 . S
C158 C157 1.395 . S
C158 C159 1.335 . S
C159 C158 1.335 . S
C159 C160 1.398 . S
C159 H186 0.930 . S
C160 C155 1.382 . S
C160 C159 1.398 . S
C160 H187 0.929 . S
C161 O174 1.271 . S
C161 O175 1.251 . S
C162 O176 1.252 . S
C162 O177 1.272 . S
C163 Sm153 2.846 1_565 S
C163 C164 1.506 . S
C163 O178 1.261 . S
C163 O179 1.242 . S
C164 C163 1.506 . S
C164 C165 1.358 . S
C164 C169 1.382 . S
C165 C164 1.358 . S
C165 C166 1.385 . S
C165 H188 0.930 . S
C166 C165 1.385 . S
C166 C167 1.395 . S
C166 H189 0.929 . S
C167 C166 1.395 . S
C167 C168 1.335 . S
C168 C167 1.335 . S
C168 C169 1.398 . S
C168 H190 0.930 . S
C169 C164 1.382 . S
C169 C168 1.398 . S
C169 H191 0.929 . S
C170 O180 1.271 . S
C170 O181 1.251 . S
C171 O182 1.252 . S
C171 O183 1.272 1_655 S
O172 Sm152 2.543 . S
O172 C154 1.261 . S
O173 Sm152 2.450 . S
O173 C154 1.242 . S
O174 Sm152 2.681 . S
O174 Sm153 2.386 1_455 S
O174 C161 1.271 . S
O175 Sm152 2.464 . S
O175 C161 1.251 . S
O176 Sm152 2.396 . S
O176 C162 1.252 . S
O177 Sm153 2.408 1_455 S
O177 C162 1.272 . S
O178 Sm153 2.543 1_565 S
O178 C163 1.261 . S
O179 Sm153 2.450 1_565 S
O179 C163 1.242 . S
O180 Sm152 2.386 1_655 S
O180 Sm153 2.681 . S
O180 C170 1.271 . S
O181 Sm153 2.464 . S
O181 C170 1.251 . S
O182 Sm153 2.396 1_565 S
O182 C171 1.252 . S
O183 Sm152 2.408 1_565 S
O183 C171 1.272 1_455 S
H184 C156 0.930 . S
H185 C157 0.929 . S
H186 C159 0.930 . S
H187 C160 0.929 . S
H188 C165 0.930 . S
H189 C166 0.929 . S
H190 C168 0.930 . S
H191 C169 0.929 . S
Sm192 C194 2.846 . S
Sm192 O212 2.543 . S
Sm192 O213 2.450 . S
Sm192 O214 2.673 1_545 S
Sm192 O215 2.464 1_545 S
Sm192 O216 2.396 . S
Sm192 O220 2.386 . S
Sm192 O223 2.408 . S
Sm193 C203 2.846 1_544 S
Sm193 O214 2.367 1_545 S
Sm193 O217 2.408 . S
Sm193 O218 2.543 1_545 S
Sm193 O219 2.450 1_554 S
Sm193 O220 2.681 . S
Sm193 O221 2.464 . S
Sm193 O222 2.396 . S
C194 Sm192 2.846 . S
C194 C195 1.506 . S
C194 O212 1.261 . S
C194 O213 1.242 . S
C195 C194 1.506 . S
C195 C196 1.358 . S
C195 C200 1.382 . S
C196 C195 1.358 . S
C196 C197 1.385 . S
C196 H224 0.930 . S
C197 C196 1.385 . S
C197 C198 1.395 . S
C197 H225 0.929 . S
C198 C197 1.395 . S
C198 C199 1.335 . S
C199 C198 1.335 . S
C199 C200 1.398 . S
C199 H226 0.930 . S
C200 C195 1.382 . S
C200 C199 1.398 . S
C200 H227 0.929 . S
C201 O214 1.288 . S
C201 O215 1.251 . S
C202 O216 1.252 . S
C202 O217 1.272 . S
C203 Sm193 2.846 1_566 S
C203 C204 1.506 . S
C203 O218 1.261 1_556 S
C203 O219 1.242 1_565 S
C204 C203 1.506 . S
C204 C205 1.358 . S
C204 C209 1.382 . S
C205 C204 1.358 . S
C205 C206 1.385 . S
C205 H228 0.930 . S
C206 C205 1.385 . S
C206 C207 1.395 . S
C206 H229 0.929 . S
C207 C206 1.395 . S
C207 C208 1.335 . S
C208 C207 1.335 . S
C208 C209 1.398 . S
C208 H230 0.930 . S
C209 C204 1.382 . S
C209 C208 1.398 . S
C209 H231 0.929 1_565 S
C210 O220 1.271 . S
C210 O221 1.251 . S
C211 O222 1.252 1_565 S
C211 O223 1.272 1_565 S
O212 Sm192 2.543 . S
O212 C194 1.261 . S
O213 Sm192 2.450 . S
O213 C194 1.242 . S
O214 Sm192 2.673 1_565 S
O214 Sm193 2.367 1_565 S
O214 C201 1.288 . S
O215 Sm192 2.464 1_565 S
O215 C201 1.251 . S
O216 Sm192 2.396 . S
O216 C202 1.252 . S
O217 Sm193 2.408 . S
O217 C202 1.272 . S
O218 Sm193 2.543 1_565 S
O218 C203 1.261 1_554 S
O219 Sm193 2.450 1_556 S
O219 C203 1.242 1_545 S
O220 Sm192 2.386 . S
O220 Sm193 2.681 . S
O220 C210 1.271 . S
O221 Sm193 2.464 . S
O221 C210 1.251 . S
O222 Sm193 2.396 . S
O222 C211 1.252 1_545 S
O223 Sm192 2.408 . S
O223 C211 1.272 1_545 S
H224 C196 0.930 . S
H225 C197 0.929 . S
H226 C199 0.930 . S
H227 C200 0.929 . S
H228 C205 0.930 . S
H229 C206 0.929 . S
H230 C208 0.930 . S
H231 C209 0.929 1_545 S
Sm232 C234 2.846 . S
Sm232 O252 2.543 . S
Sm232 O253 2.450 . S
Sm232 O254 2.681 . S
Sm232 O255 2.464 . S
Sm232 O256 2.396 . S
Sm232 O260 2.386 . S
Sm232 O263 2.408 . S
Sm233 C243 2.846 . S
Sm233 O254 2.386 . S
Sm233 O257 2.408 . S
Sm233 O258 2.543 . S
Sm233 O259 2.450 . S
Sm233 O260 2.681 . S
Sm233 O261 2.464 . S
Sm233 O262 2.396 . S
C234 Sm232 2.846 . S
C234 C235 1.506 . S
C234 O252 1.261 . S
C234 O253 1.242 . S
C235 C234 1.506 . S
C235 C236 1.358 . S
C235 C240 1.382 . S
C236 C235 1.358 . S
C236 C237 1.385 . S
C236 H264 0.930 . S
C237 C236 1.385 . S
C237 C238 1.395 . S
C237 H265 0.929 . S
C238 C237 1.395 . S
C238 C239 1.335 . S
C239 C238 1.335 . S
C239 C240 1.398 . S
C239 H266 0.930 . S
C240 C235 1.382 . S
C240 C239 1.398 . S
C240 H267 0.929 . S
C241 O254 1.271 . S
C241 O255 1.251 . S
C242 O256 1.252 . S
C242 O257 1.272 . S
C243 Sm233 2.846 . S
C243 C244 1.506 . S
C243 O258 1.261 . S
C243 O259 1.242 . S
C244 C243 1.506 . S
C244 C245 1.358 . S
C244 C249 1.382 . S
C245 C244 1.358 . S
C245 C246 1.385 . S
C245 H268 0.930 . S
C246 C245 1.385 . S
C246 C247 1.395 . S
C246 H269 0.929 . S
C247 C246 1.395 . S
C247 C248 1.335 . S
C248 C247 1.335 . S
C248 C249 1.398 . S
C248 H270 0.930 . S
C249 C244 1.382 . S
C249 C248 1.398 . S
C249 H271 0.929 . S
C250 O260 1.271 . S
C250 O261 1.251 . S
C251 O262 1.252 . S
C251 O263 1.272 . S
O252 Sm232 2.543 . S
O252 C234 1.261 . S
O253 Sm232 2.450 . S
O253 C234 1.242 . S
O254 Sm232 2.681 . S
O254 Sm233 2.386 . S
O254 C241 1.271 . S
O255 Sm232 2.464 . S
O255 C241 1.251 . S
O256 Sm232 2.396 . S
O256 C242 1.252 . S
O257 Sm233 2.408 . S
O257 C242 1.272 . S
O258 Sm233 2.543 . S
O258 C243 1.261 . S
O259 Sm233 2.450 . S
O259 C243 1.242 . S
O260 Sm232 2.386 . S
O260 Sm233 2.681 . S
O260 C250 1.271 . S
O261 Sm233 2.464 . S
O261 C250 1.251 . S
O262 Sm233 2.396 . S
O262 C251 1.252 . S
O263 Sm232 2.408 . S
O263 C251 1.272 . S
H264 C236 0.930 . S
H265 C237 0.929 . S
H266 C239 0.930 . S
H267 C240 0.929 . S
H268 C245 0.930 . S
H269 C246 0.929 . S
H270 C248 0.930 . S
H271 C249 0.929 . S
Sm272 C274 2.846 . S
Sm272 O292 2.543 . S
Sm272 O293 2.450 . S
Sm272 O294 2.681 . S
Sm272 O295 2.464 . S
Sm272 O296 2.396 . S
Sm272 O300 2.386 1_554 S
Sm272 O303 2.408 1_455 S
Sm273 C283 2.862 1_455 S
Sm273 O294 2.359 1_556 S
Sm273 O297 2.390 1_556 S
Sm273 O298 2.544 1_455 S
Sm273 O299 2.475 . S
Sm273 O300 2.681 . S
Sm273 O301 2.488 . S
Sm273 O302 2.405 1_455 S
C274 Sm272 2.846 . S
C274 C275 1.506 . S
C274 O292 1.261 . S
C274 O293 1.242 . S
C275 C274 1.506 . S
C275 C276 1.358 . S
C275 C280 1.382 . S
C276 C275 1.358 . S
C276 C277 1.385 . S
C276 H304 0.930 . S
C277 C276 1.385 . S
C277 C278 1.395 . S
C277 H305 0.929 . S
C278 C277 1.395 . S
C278 C279 1.335 . S
C279 C278 1.335 . S
C279 C280 1.398 . S
C279 H306 0.930 . S
C280 C275 1.382 . S
C280 C279 1.398 . S
C280 H307 0.929 . S
C281 O294 1.271 . S
C281 O295 1.251 . S
C282 O296 1.252 . S
C282 O297 1.272 . S
C283 Sm273 2.862 1_655 S
C283 C284 1.506 . S
C283 O298 1.261 . S
C283 O299 1.242 1_655 S
C284 C283 1.506 . S
C284 C285 1.358 . S
C284 C289 1.382 . S
C285 C284 1.358 . S
C285 C286 1.385 . S
C285 H308 0.930 . S
C286 C285 1.385 . S
C286 C287 1.395 . S
C286 H309 0.929 . S
C287 C286 1.395 . S
C287 C288 1.335 . S
C288 C287 1.335 . S
C288 C289 1.398 . S
C288 H310 0.930 . S
C289 C284 1.382 . S
C289 C288 1.398 . S
C289 H311 0.929 . S
C290 O300 1.271 . S
C290 O301 1.251 . S
C291 O302 1.252 . S
C291 O303 1.272 1_556 S
O292 Sm272 2.543 . S
O292 C274 1.261 . S
O293 Sm272 2.450 . S
O293 C274 1.242 . S
O294 Sm272 2.681 . S
O294 Sm273 2.359 1_554 S
O294 C281 1.271 . S
O295 Sm272 2.464 . S
O295 C281 1.251 . S
O296 Sm272 2.396 . S
O296 C282 1.252 . S
O297 Sm273 2.390 1_554 S
O297 C282 1.272 . S
O298 Sm273 2.544 1_655 S
O298 C283 1.261 . S
O299 Sm273 2.475 . S
O299 C283 1.242 1_455 S
O300 Sm272 2.386 1_556 S
O300 Sm273 2.681 . S
O300 C290 1.271 . S
O301 Sm273 2.488 . S
O301 C290 1.251 . S
O302 Sm273 2.405 1_655 S
O302 C291 1.252 . S
O303 Sm272 2.408 1_655 S
O303 C291 1.272 1_554 S
H304 C276 0.930 . S
H305 C277 0.929 . S
H306 C279 0.930 . S
H307 C280 0.929 . S
H308 C285 0.930 . S
H309 C286 0.929 . S
H310 C288 0.930 . S
H311 C289 0.929 . S
H312 C320 0.950 . S
H313 C325 0.950 . S
H314 C322 0.950 . S
H315 C324 0.950 . S
H316 C326 0.950 . S
H317 C328 0.950 . S
H318 C330 0.950 . S
H319 C331 0.950 . S
C320 H312 0.950 . S
C320 C321 1.386 . S
C320 C322 1.391 . S
C321 C320 1.386 . S
C321 C325 1.393 . S
C322 H314 0.950 . S
C322 C320 1.391 . S
C322 C323 1.400 . S
C323 C322 1.400 . S
C323 C324 1.398 . S
C323 C329 1.491 . S
C324 H315 0.950 . S
C324 C323 1.398 . S
C324 C325 1.391 . S
C325 H313 0.950 . S
C325 C321 1.393 . S
C325 C324 1.391 . S
C326 H316 0.950 . S
C326 C327 1.386 . S
C326 C328 1.391 . S
C327 C326 1.386 . S
C327 C331 1.393 . S
C328 H317 0.950 . S
C328 C326 1.391 . S
C328 C329 1.400 . S
C329 C323 1.491 . S
C329 C328 1.400 . S
C329 C330 1.398 . S
C330 H318 0.950 . S
C330 C329 1.398 . S
C330 C331 1.391 . S
C331 H319 0.950 . S
C331 C327 1.393 . S
C331 C330 1.391 . S
H332 C340 0.950 . S
H333 C345 0.950 . S
H334 C342 0.950 . S
H335 C344 0.950 . S
H336 C346 0.950 . S
H337 C348 0.950 . S
H338 C350 0.950 . S
H339 C351 0.950 . S
C340 H332 0.950 . S
C340 C341 1.386 . S
C340 C342 1.391 . S
C341 C340 1.386 . S
C341 C345 1.393 . S
C342 H334 0.950 . S
C342 C340 1.391 . S
C342 C343 1.400 . S
C343 C342 1.400 . S
C343 C344 1.398 . S
C343 C349 1.491 . S
C344 H335 0.950 . S
C344 C343 1.398 . S
C344 C345 1.391 . S
C345 H333 0.950 . S
C345 C341 1.393 . S
C345 C344 1.391 . S
C346 H336 0.950 . S
C346 C347 1.386 . S
C346 C348 1.391 . S
C347 C346 1.386 . S
C347 C351 1.393 . S
C348 H337 0.950 . S
C348 C346 1.391 . S
C348 C349 1.400 . S
C349 C343 1.491 . S
C349 C348 1.400 . S
C349 C350 1.398 . S
C350 H338 0.950 . S
C350 C349 1.398 . S
C350 C351 1.391 . S
C351 H339 0.950 . S
C351 C347 1.393 . S
C351 C350 1.391 . S
H352 C360 0.950 . S
H353 C365 0.950 . S
H354 C362 0.950 . S
H355 C364 0.950 . S
H356 C366 0.950 . S
H357 C368 0.950 . S
H358 C370 0.950 . S
H359 C371 0.950 . S
C360 H352 0.950 . S
C360 C361 1.386 . S
C360 C362 1.391 . S
C361 C360 1.386 . S
C361 C365 1.393 . S
C362 H354 0.950 . S
C362 C360 1.391 . S
C362 C363 1.400 . S
C363 C362 1.400 . S
C363 C364 1.398 . S
C363 C369 1.491 . S
C364 H355 0.950 . S
C364 C363 1.398 . S
C364 C365 1.391 . S
C365 H353 0.950 . S
C365 C361 1.393 . S
C365 C364 1.391 . S
C366 H356 0.950 . S
C366 C367 1.386 . S
C366 C368 1.391 . S
C367 C366 1.386 . S
C367 C371 1.393 . S
C368 H357 0.950 . S
C368 C366 1.391 . S
C368 C369 1.400 . S
C369 C363 1.491 . S
C369 C368 1.400 . S
C369 C370 1.398 . S
C370 H358 0.950 . S
C370 C369 1.398 . S
C370 C371 1.391 . S
C371 H359 0.950 . S
C371 C367 1.393 . S
C371 C370 1.391 . S
H372 C380 0.950 . S
H373 C385 0.950 . S
H374 C382 0.950 . S
H375 C384 0.950 . S
H376 C386 0.950 . S
H377 C388 0.950 . S
H378 C390 0.950 . S
H379 C391 0.950 . S
C380 H372 0.950 . S
C380 C381 1.386 . S
C380 C382 1.391 . S
C381 C380 1.386 . S
C381 C385 1.393 . S
C382 H374 0.950 . S
C382 C380 1.391 . S
C382 C383 1.400 . S
C383 C382 1.400 . S
C383 C384 1.398 . S
C383 C389 1.491 . S
C384 H375 0.950 . S
C384 C383 1.398 . S
C384 C385 1.391 . S
C385 H373 0.950 . S
C385 C381 1.393 . S
C385 C384 1.391 . S
C386 H376 0.950 . S
C386 C387 1.386 . S
C386 C388 1.391 . S
C387 C386 1.386 . S
C387 C391 1.393 . S
C388 H377 0.950 . S
C388 C386 1.391 . S
C388 C389 1.400 . S
C389 C383 1.491 . S
C389 C388 1.400 . S
C389 C390 1.398 . S
C390 H378 0.950 . S
C390 C389 1.398 . S
C390 C391 1.391 . S
C391 H379 0.950 . S
C391 C387 1.393 . S
C391 C390 1.391 . S
H392 C400 0.950 . S
H393 C405 0.950 . S
H394 C402 0.950 . S
H395 C404 0.950 . S
H396 C406 0.950 . S
H397 C408 0.950 . S
H398 C410 0.950 . S
H399 C411 0.950 . S
C400 H392 0.950 . S
C400 C401 1.386 . S
C400 C402 1.391 . S
C401 C400 1.386 . S
C401 C405 1.393 . S
C402 H394 0.950 . S
C402 C400 1.391 . S
C402 C403 1.400 . S
C403 C402 1.400 . S
C403 C404 1.398 . S
C403 C409 1.491 . S
C404 H395 0.950 . S
C404 C403 1.398 . S
C404 C405 1.391 . S
C405 H393 0.950 . S
C405 C401 1.393 . S
C405 C404 1.391 . S
C406 H396 0.950 . S
C406 C407 1.386 . S
C406 C408 1.391 . S
C407 C406 1.386 . S
C407 C411 1.393 . S
C408 H397 0.950 . S
C408 C406 1.391 . S
C408 C409 1.400 . S
C409 C403 1.491 . S
C409 C408 1.400 . S
C409 C410 1.398 . S
C410 H398 0.950 . S
C410 C409 1.398 . S
C410 C411 1.391 . S
C411 H399 0.950 . S
C411 C407 1.393 . S
C411 C410 1.391 . S
H412 C420 0.950 . S
H413 C425 0.950 . S
H414 C422 0.950 . S
H415 C424 0.950 . S
H416 C426 0.963 . S
H417 C428 0.950 . S
H418 C430 0.950 . S
H419 C431 0.950 . S
C420 H412 0.950 . S
C420 C421 1.386 . S
C420 C422 1.391 . S
C421 C420 1.386 . S
C421 C425 1.393 . S
C422 H414 0.950 . S
C422 C420 1.391 . S
C422 C423 1.400 . S
C423 C422 1.400 . S
C423 C424 1.398 . S
C423 C429 1.491 . S
C424 H415 0.950 . S
C424 C423 1.398 . S
C424 C425 1.391 . S
C425 H413 0.950 . S
C425 C421 1.393 . S
C425 C424 1.391 . S
C426 H416 0.963 . S
C426 C427 1.399 . S
C426 C428 1.366 1_545 S
C427 C426 1.399 . S
C427 C431 1.393 1_545 S
C428 H417 0.950 . S
C428 C426 1.366 1_565 S
C428 C429 1.400 . S
C429 C423 1.491 . S
C429 C428 1.400 . S
C429 C430 1.398 . S
C430 H418 0.950 . S
C430 C429 1.398 . S
C430 C431 1.391 . S
C431 H419 0.950 . S
C431 C427 1.393 1_565 S
C431 C430 1.391 . S
H432 C440 0.950 . S
H433 C445 0.950 . S
H434 C442 0.950 . S
H435 C444 0.950 . S
H436 C446 0.950 . S
H437 C448 0.950 . S
H438 C450 0.950 . S
H439 C451 0.950 . S
C440 H432 0.950 . S
C440 C441 1.386 . S
C440 C442 1.391 . S
C441 C440 1.386 . S
C441 C445 1.393 . S
C442 H434 0.950 . S
C442 C440 1.391 . S
C442 C443 1.400 . S
C443 C442 1.400 . S
C443 C444 1.398 . S
C443 C449 1.491 . S
C444 H435 0.950 . S
C444 C443 1.398 . S
C444 C445 1.391 . S
C445 H433 0.950 . S
C445 C441 1.393 . S
C445 C444 1.391 . S
C446 H436 0.950 . S
C446 C447 1.386 . S
C446 C448 1.391 . S
C447 C446 1.386 . S
C447 C451 1.393 . S
C448 H437 0.950 . S
C448 C446 1.391 . S
C448 C449 1.400 . S
C449 C443 1.491 . S
C449 C448 1.400 . S
C449 C450 1.398 . S
C450 H438 0.950 . S
C450 C449 1.398 . S
C450 C451 1.391 . S
C451 H439 0.950 . S
C451 C447 1.393 . S
C451 C450 1.391 . S
H452 C460 0.950 . S
H453 C465 0.950 . S
H454 C462 0.950 . S
H455 C464 0.950 . S
H456 C466 0.950 . S
H457 C468 0.950 . S
H458 C470 0.950 . S
H459 C471 0.950 . S
C460 H452 0.950 . S
C460 C461 1.386 . S
C460 C462 1.391 . S
C461 C460 1.386 . S
C461 C465 1.393 . S
C462 H454 0.950 . S
C462 C460 1.391 . S
C462 C463 1.400 . S
C463 C462 1.400 . S
C463 C464 1.398 . S
C463 C469 1.491 . S
C464 H455 0.950 . S
C464 C463 1.398 . S
C464 C465 1.391 . S
C465 H453 0.950 . S
C465 C461 1.393 . S
C465 C464 1.391 . S
C466 H456 0.950 . S
C466 C467 1.386 . S
C466 C468 1.391 . S
C467 C466 1.386 . S
C467 C471 1.393 . S
C468 H457 0.950 . S
C468 C466 1.391 . S
C468 C469 1.400 . S
C469 C463 1.491 . S
C469 C468 1.400 . S
C469 C470 1.398 . S
C470 H458 0.950 . S
C470 C469 1.398 . S
C470 C471 1.391 . S
C471 H459 0.950 . S
C471 C467 1.393 . S
C471 C470 1.391 . S
H472 C480 0.950 . S
H473 C485 0.950 . S
H474 C482 0.950 . S
H475 C484 0.950 . S
H476 C486 0.950 . S
H477 C488 0.950 . S
H478 C490 0.950 . S
H479 C491 0.950 . S
C480 H472 0.950 . S
C480 C481 1.386 . S
C480 C482 1.391 . S
C481 C480 1.386 . S
C481 C485 1.393 . S
C482 H474 0.950 . S
C482 C480 1.391 . S
C482 C483 1.400 . S
C483 C482 1.400 . S
C483 C484 1.398 . S
C483 C489 1.491 . S
C484 H475 0.950 . S
C484 C483 1.398 . S
C484 C485 1.391 . S
C485 H473 0.950 . S
C485 C481 1.393 . S
C485 C484 1.391 . S
C486 H476 0.950 . S
C486 C487 1.386 . S
C486 C488 1.391 . S
C487 C486 1.386 . S
C487 C491 1.393 . S
C488 H477 0.950 . S
C488 C486 1.391 . S
C488 C489 1.400 . S
C489 C483 1.491 . S
C489 C488 1.400 . S
C489 C490 1.398 . S
C490 H478 0.950 . S
C490 C489 1.398 . S
C490 C491 1.391 . S
C491 H479 0.950 . S
C491 C487 1.393 . S
C491 C490 1.391 . S
H492 C500 0.950 . S
H493 C505 0.950 . S
H494 C502 0.950 . S
H495 C504 0.950 . S
H496 C506 0.950 . S
H497 C508 0.950 1_556 S
H498 C510 0.950 . S
H499 C511 0.950 . S
C500 H492 0.950 . S
C500 C501 1.386 . S
C500 C502 1.391 . S
C501 C500 1.386 . S
C501 C505 1.393 . S
C502 H494 0.950 . S
C502 C500 1.391 . S
C502 C503 1.400 . S
C503 C502 1.400 . S
C503 C504 1.398 . S
C503 C509 1.491 . S
C504 H495 0.950 . S
C504 C503 1.398 . S
C504 C505 1.391 . S
C505 H493 0.950 . S
C505 C501 1.393 . S
C505 C504 1.391 . S
C506 H496 0.950 . S
C506 C507 1.386 . S
C506 C508 1.391 . S
C507 C506 1.386 . S
C507 C511 1.393 . S
C508 H497 0.950 1_554 S
C508 C506 1.391 . S
C508 C509 1.400 1_554 S
C509 C503 1.491 . S
C509 C508 1.400 1_556 S
C509 C510 1.398 . S
C510 H498 0.950 . S
C510 C509 1.398 . S
C510 C511 1.391 1_556 S
C511 H499 0.950 . S
C511 C507 1.393 . S
C511 C510 1.391 1_554 S
H512 C520 0.950 . S
H513 C525 0.950 . S
H514 C522 0.950 . S
H515 C524 0.950 . S
H516 C526 0.950 . S
H517 C528 0.950 . S
H518 C530 0.950 . S
H519 C531 0.950 . S
C520 H512 0.950 . S
C520 C521 1.386 . S
C520 C522 1.391 . S
C521 C520 1.386 . S
C521 C525 1.393 . S
C522 H514 0.950 . S
C522 C520 1.391 . S
C522 C523 1.400 . S
C523 C522 1.400 . S
C523 C524 1.398 . S
C523 C529 1.491 . S
C524 H515 0.950 . S
C524 C523 1.398 . S
C524 C525 1.391 . S
C525 H513 0.950 . S
C525 C521 1.393 . S
C525 C524 1.391 . S
C526 H516 0.950 . S
C526 C527 1.386 . S
C526 C528 1.391 . S
C527 C526 1.386 . S
C527 C531 1.393 . S
C528 H517 0.950 . S
C528 C526 1.391 . S
C528 C529 1.400 . S
C529 C523 1.491 . S
C529 C528 1.400 . S
C529 C530 1.398 . S
C530 H518 0.950 . S
C530 C529 1.398 . S
C530 C531 1.391 . S
C531 H519 0.950 . S
C531 C527 1.393 . S
C531 C530 1.391 . S
H532 C540 0.950 . S
H533 C545 0.950 . S
H534 C542 0.950 . S
H535 C544 0.950 . S
H536 C546 0.950 . S
H537 C548 0.950 . S
H538 C550 0.950 . S
H539 C551 0.950 . S
C540 H532 0.950 . S
C540 C541 1.386 . S
C540 C542 1.391 . S
C541 C540 1.386 . S
C541 C545 1.393 . S
C542 H534 0.950 . S
C542 C540 1.391 . S
C542 C543 1.400 . S
C543 C542 1.400 . S
C543 C544 1.398 . S
C543 C549 1.491 . S
C544 H535 0.950 . S
C544 C543 1.398 . S
C544 C545 1.391 . S
C545 H533 0.950 . S
C545 C541 1.393 . S
C545 C544 1.391 . S
C546 H536 0.950 . S
C546 C547 1.386 . S
C546 C548 1.391 . S
C547 C546 1.386 . S
C547 C551 1.393 . S
C548 H537 0.950 . S
C548 C546 1.391 . S
C548 C549 1.400 . S
C549 C543 1.491 . S
C549 C548 1.400 . S
C549 C550 1.398 . S
C550 H538 0.950 . S
C550 C549 1.398 . S
C550 C551 1.391 . S
C551 H539 0.950 . S
C551 C547 1.393 . S
C551 C550 1.391 . S
H552 C560 0.950 . S
H553 C565 0.950 . S
H554 C562 0.950 . S
H555 C564 0.950 . S
H556 C566 0.950 . S
H557 C568 0.950 . S
H558 C570 0.950 . S
H559 C571 0.950 . S
C560 H552 0.950 . S
C560 C561 1.386 . S
C560 C562 1.391 . S
C561 C560 1.386 . S
C561 C565 1.393 . S
C562 H554 0.950 . S
C562 C560 1.391 . S
C562 C563 1.400 . S
C563 C562 1.400 . S
C563 C564 1.398 . S
C563 C569 1.491 . S
C564 H555 0.950 . S
C564 C563 1.398 . S
C564 C565 1.391 . S
C565 H553 0.950 . S
C565 C561 1.393 . S
C565 C564 1.391 . S
C566 H556 0.950 . S
C566 C567 1.386 . S
C566 C568 1.391 . S
C567 C566 1.386 . S
C567 C571 1.393 . S
C568 H557 0.950 . S
C568 C566 1.391 . S
C568 C569 1.400 . S
C569 C563 1.491 . S
C569 C568 1.400 . S
C569 C570 1.398 . S
C570 H558 0.950 . S
C570 C569 1.398 . S
C570 C571 1.391 . S
C571 H559 0.950 . S
C571 C567 1.393 . S
C571 C570 1.391 . S
H572 C580 0.950 . S
H573 C585 0.950 . S
H574 C582 0.950 . S
H575 C584 0.950 . S
H576 C586 0.950 . S
H577 C588 0.950 . S
H578 C590 0.950 . S
H579 C591 0.950 . S
C580 H572 0.950 . S
C580 C581 1.386 . S
C580 C582 1.391 . S
C581 C580 1.386 . S
C581 C585 1.393 . S
C582 H574 0.950 . S
C582 C580 1.391 . S
C582 C583 1.400 . S
C583 C582 1.400 . S
C583 C584 1.398 . S
C583 C589 1.491 . S
C584 H575 0.950 . S
C584 C583 1.398 . S
C584 C585 1.391 . S
C585 H573 0.950 . S
C585 C581 1.393 . S
C585 C584 1.391 . S
C586 H576 0.950 . S
C586 C587 1.386 . S
C586 C588 1.391 . S
C587 C586 1.386 . S
C587 C591 1.393 . S
C588 H577 0.950 . S
C588 C586 1.391 . S
C588 C589 1.400 . S
C589 C583 1.491 . S
C589 C588 1.400 . S
C589 C590 1.398 . S
C590 H578 0.950 . S
C590 C589 1.398 . S
C590 C591 1.391 . S
C591 H579 0.950 . S
C591 C587 1.393 . S
C591 C590 1.391 . S
H592 C600 0.950 . S
H593 C605 0.950 . S
H594 C602 0.950 . S
H595 C604 0.950 . S
H596 C606 0.950 . S
H597 C608 0.950 . S
H598 C610 0.950 . S
H599 C611 0.950 . S
C600 H592 0.950 . S
C600 C601 1.386 . S
C600 C602 1.391 . S
C601 C600 1.386 . S
C601 C605 1.393 . S
C602 H594 0.950 . S
C602 C600 1.391 . S
C602 C603 1.400 . S
C603 C602 1.400 . S
C603 C604 1.398 . S
C603 C609 1.491 . S
C604 H595 0.950 . S
C604 C603 1.398 . S
C604 C605 1.391 . S
C605 H593 0.950 . S
C605 C601 1.393 . S
C605 C604 1.391 . S
C606 H596 0.950 . S
C606 C607 1.386 . S
C606 C608 1.391 . S
C607 C606 1.386 . S
C607 C611 1.393 . S
C608 H597 0.950 . S
C608 C606 1.391 . S
C608 C609 1.400 . S
C609 C603 1.491 . S
C609 C608 1.400 . S
C609 C610 1.398 . S
C610 H598 0.950 . S
C610 C609 1.398 . S
C610 C611 1.391 . S
C611 H599 0.950 . S
C611 C607 1.393 . S
C611 C610 1.391 . S
H612 C620 0.950 . S
H613 C625 0.950 . S
H614 C622 0.950 . S
H615 C624 0.950 . S
H616 C626 0.950 . S
H617 C628 0.950 . S
H618 C630 0.950 . S
H619 C631 0.950 . S
C620 H612 0.950 . S
C620 C621 1.386 . S
C620 C622 1.391 . S
C621 C620 1.386 . S
C621 C625 1.393 . S
C622 H614 0.950 . S
C622 C620 1.391 . S
C622 C623 1.400 . S
C623 C622 1.400 . S
C623 C624 1.398 . S
C623 C629 1.491 . S
C624 H615 0.950 . S
C624 C623 1.398 . S
C624 C625 1.391 . S
C625 H613 0.950 . S
C625 C621 1.393 . S
C625 C624 1.391 . S
C626 H616 0.950 . S
C626 C627 1.386 . S
C626 C628 1.391 . S
C627 C626 1.386 . S
C627 C631 1.393 . S
C628 H617 0.950 . S
C628 C626 1.391 . S
C628 C629 1.400 . S
C629 C623 1.491 . S
C629 C628 1.400 . S
C629 C630 1.398 . S
C630 H618 0.950 . S
C630 C629 1.398 . S
C630 C631 1.391 . S
C631 H619 0.950 . S
C631 C627 1.393 . S
C631 C630 1.391 . S
H632 C640 0.950 . S
H633 C645 0.950 . S
H634 C642 0.950 . S
H635 C644 0.950 . S
H636 C646 0.950 . S
H637 C648 0.950 . S
H638 C650 0.950 . S
H639 C651 0.950 . S
C640 H632 0.950 . S
C640 C641 1.386 . S
C640 C642 1.391 . S
C641 C640 1.386 . S
C641 C645 1.393 . S
C642 H634 0.950 . S
C642 C640 1.391 . S
C642 C643 1.400 . S
C643 C642 1.400 . S
C643 C644 1.398 . S
C643 C649 1.491 . S
C644 H635 0.950 . S
C644 C643 1.398 . S
C644 C645 1.391 . S
C645 H633 0.950 . S
C645 C641 1.393 . S
C645 C644 1.391 . S
C646 H636 0.950 . S
C646 C647 1.386 1_556 S
C646 C648 1.391 . S
C647 C646 1.386 1_554 S
C647 C651 1.393 . S
C648 H637 0.950 . S
C648 C646 1.391 . S
C648 C649 1.400 . S
C649 C643 1.491 . S
C649 C648 1.400 . S
C649 C650 1.398 1_556 S
C650 H638 0.950 . S
C650 C649 1.398 1_554 S
C650 C651 1.391 . S
C651 H639 0.950 . S
C651 C647 1.393 . S
C651 C650 1.391 . S
H652 C660 0.950 . S
H653 C665 0.950 . S
H654 C662 0.950 . S
H655 C664 0.950 . S
H656 C666 0.950 . S
H657 C668 0.950 . S
H658 C670 0.950 . S
H659 C671 0.950 . S
C660 H652 0.950 . S
C660 C661 1.386 . S
C660 C662 1.391 . S
C661 C660 1.386 . S
C661 C665 1.393 . S
C662 H654 0.950 . S
C662 C660 1.391 . S
C662 C663 1.400 . S
C663 C662 1.400 . S
C663 C664 1.398 . S
C663 C669 1.491 . S
C664 H655 0.950 . S
C664 C663 1.398 . S
C664 C665 1.391 . S
C665 H653 0.950 . S
C665 C661 1.393 . S
C665 C664 1.391 . S
C666 H656 0.950 . S
C666 C667 1.386 . S
C666 C668 1.391 . S
C667 C666 1.386 . S
C667 C671 1.393 . S
C668 H657 0.950 . S
C668 C666 1.391 . S
C668 C669 1.400 . S
C669 C663 1.491 . S
C669 C668 1.400 . S
C669 C670 1.398 . S
C670 H658 0.950 . S
C670 C669 1.398 . S
C670 C671 1.391 . S
C671 H659 0.950 . S
C671 C667 1.393 . S
C671 C670 1.391 . S
H672 C680 0.950 . S
H673 C685 0.950 . S
H674 C682 0.950 . S
H675 C684 0.950 . S
H676 C686 0.950 . S
H677 C688 0.950 . S
H678 C690 0.950 . S
H679 C691 0.950 . S
C680 H672 0.950 . S
C680 C681 1.386 . S
C680 C682 1.391 . S
C681 C680 1.386 . S
C681 C685 1.393 . S
C682 H674 0.950 . S
C682 C680 1.391 . S
C682 C683 1.400 . S
C683 C682 1.400 . S
C683 C684 1.398 . S
C683 C689 1.491 . S
C684 H675 0.950 . S
C684 C683 1.398 . S
C684 C685 1.391 . S
C685 H673 0.950 . S
C685 C681 1.393 . S
C685 C684 1.391 . S
C686 H676 0.950 . S
C686 C687 1.386 . S
C686 C688 1.391 . S
C687 C686 1.386 . S
C687 C691 1.393 . S
C688 H677 0.950 . S
C688 C686 1.391 . S
C688 C689 1.400 . S
C689 C683 1.491 . S
C689 C688 1.400 . S
C689 C690 1.398 . S
C690 H678 0.950 . S
C690 C689 1.398 . S
C690 C691 1.391 . S
C691 H679 0.950 . S
C691 C687 1.393 . S
C691 C690 1.391 . S
H692 C700 0.950 . S
H693 C705 0.950 . S
H694 C702 0.950 . S
H695 C704 0.950 . S
H696 C706 0.950 . S
H697 C708 0.950 . S
H698 C710 0.950 . S
H699 C711 0.950 . S
C700 H692 0.950 . S
C700 C701 1.386 . S
C700 C702 1.391 . S
C701 C700 1.386 . S
C701 C705 1.393 . S
C702 H694 0.950 . S
C702 C700 1.391 . S
C702 C703 1.400 . S
C703 C702 1.400 . S
C703 C704 1.398 . S
C703 C709 1.491 . S
C704 H695 0.950 . S
C704 C703 1.398 . S
C704 C705 1.391 . S
C705 H693 0.950 . S
C705 C701 1.393 . S
C705 C704 1.391 . S
C706 H696 0.950 . S
C706 C707 1.386 . S
C706 C708 1.391 . S
C707 C706 1.386 . S
C707 C711 1.393 . S
C708 H697 0.950 . S
C708 C706 1.391 . S
C708 C709 1.400 . S
C709 C703 1.491 . S
C709 C708 1.400 . S
C709 C710 1.398 . S
C710 H698 0.950 . S
C710 C709 1.398 . S
C710 C711 1.391 . S
C711 H699 0.950 . S
C711 C707 1.393 . S
C711 C710 1.391 . S
H712 C720 0.950 . S
H713 C725 0.950 . S
H714 C722 0.950 . S
H715 C724 0.950 . S
H716 C726 0.950 . S
H717 C728 0.950 . S
H718 C730 0.950 . S
H719 C731 0.950 . S
C720 H712 0.950 . S
C720 C721 1.386 . S
C720 C722 1.391 . S
C721 C720 1.386 . S
C721 C725 1.393 . S
C722 H714 0.950 . S
C722 C720 1.391 . S
C722 C723 1.400 . S
C723 C722 1.400 . S
C723 C724 1.398 . S
C723 C729 1.491 . S
C724 H715 0.950 . S
C724 C723 1.398 . S
C724 C725 1.391 . S
C725 H713 0.950 . S
C725 C721 1.393 . S
C725 C724 1.391 . S
C726 H716 0.950 . S
C726 C727 1.386 . S
C726 C728 1.391 . S
C727 C726 1.386 . S
C727 C731 1.393 . S
C728 H717 0.950 . S
C728 C726 1.391 . S
C728 C729 1.400 . S
C729 C723 1.491 . S
C729 C728 1.400 . S
C729 C730 1.398 . S
C730 H718 0.950 . S
C730 C729 1.398 . S
C730 C731 1.391 . S
C731 H719 0.950 . S
C731 C727 1.393 . S
C731 C730 1.391 . S
H732 C740 0.950 . S
H733 C745 0.950 . S
H734 C742 0.950 . S
H735 C744 0.950 . S
H736 C746 0.950 . S
H737 C748 0.950 . S
H738 C750 0.950 . S
H739 C751 0.950 . S
C740 H732 0.950 . S
C740 C741 1.386 . S
C740 C742 1.391 . S
C741 C740 1.386 . S
C741 C745 1.393 . S
C742 H734 0.950 . S
C742 C740 1.391 . S
C742 C743 1.400 . S
C743 C742 1.400 . S
C743 C744 1.398 . S
C743 C749 1.491 . S
C744 H735 0.950 . S
C744 C743 1.398 . S
C744 C745 1.391 . S
C745 H733 0.950 . S
C745 C741 1.393 . S
C745 C744 1.391 . S
C746 H736 0.950 . S
C746 C747 1.386 . S
C746 C748 1.391 . S
C747 C746 1.386 . S
C747 C751 1.393 . S
C748 H737 0.950 . S
C748 C746 1.391 . S
C748 C749 1.400 . S
C749 C743 1.491 . S
C749 C748 1.400 . S
C749 C750 1.398 . S
C750 H738 0.950 . S
C750 C749 1.398 . S
C750 C751 1.391 . S
C751 H739 0.950 . S
C751 C747 1.393 . S
C751 C750 1.391 . S
H752 C760 0.950 . S
H753 C765 0.950 . S
H754 C762 0.950 . S
H755 C764 0.950 . S
H756 C766 0.950 . S
H757 C768 0.950 . S
H758 C770 0.950 . S
H759 C771 0.950 . S
C760 H752 0.950 . S
C760 C761 1.386 . S
C760 C762 1.391 . S
C761 C760 1.386 . S
C761 C765 1.393 . S
C762 H754 0.950 . S
C762 C760 1.391 . S
C762 C763 1.400 . S
C763 C762 1.400 . S
C763 C764 1.398 . S
C763 C769 1.491 . S
C764 H755 0.950 . S
C764 C763 1.398 . S
C764 C765 1.391 . S
C765 H753 0.950 . S
C765 C761 1.393 . S
C765 C764 1.391 . S
C766 H756 0.950 . S
C766 C767 1.386 . S
C766 C768 1.391 . S
C767 C766 1.386 . S
C767 C771 1.393 . S
C768 H757 0.950 . S
C768 C766 1.391 . S
C768 C769 1.400 . S
C769 C763 1.491 . S
C769 C768 1.400 . S
C769 C770 1.398 . S
C770 H758 0.950 . S
C770 C769 1.398 . S
C770 C771 1.391 . S
C771 H759 0.950 . S
C771 C767 1.393 . S
C771 C770 1.391 . S
H772 C780 0.950 . S
H773 C785 0.950 . S
H774 C782 0.950 . S
H775 C784 0.950 . S
H776 C786 0.950 . S
H777 C788 0.950 . S
H778 C790 0.950 . S
H779 C791 0.950 . S
C780 H772 0.950 . S
C780 C781 1.386 . S
C780 C782 1.391 . S
C781 C780 1.386 . S
C781 C785 1.393 . S
C782 H774 0.950 . S
C782 C780 1.391 . S
C782 C783 1.400 . S
C783 C782 1.400 . S
C783 C784 1.398 . S
C783 C789 1.491 . S
C784 H775 0.950 . S
C784 C783 1.398 . S
C784 C785 1.391 . S
C785 H773 0.950 . S
C785 C781 1.393 . S
C785 C784 1.391 . S
C786 H776 0.950 . S
C786 C787 1.386 . S
C786 C788 1.391 . S
C787 C786 1.386 . S
C787 C791 1.393 . S
C788 H777 0.950 . S
C788 C786 1.391 . S
C788 C789 1.400 . S
C789 C783 1.491 . S
C789 C788 1.400 . S
C789 C790 1.398 . S
C790 H778 0.950 . S
C790 C789 1.398 . S
C790 C791 1.391 . S
C791 H779 0.950 . S
C791 C787 1.393 . S
C791 C790 1.391 . S
C321 C6 1.176 . S
C327 C158 1.204 . S
C341 C21 1.475 . S
C347 C207 1.492 . S
C367 C242 1.843 . S
C361 C49 1.823 . S
C381 C68 2.059 . S
C387 C281 2.120 1_655 S
C407 C202 3.016 . S
C401 C2 2.913 . S
C427 C161 0.384 . S
C421 C30 0.484 . S
C447 C291 1.881 . S
C441 C40 1.926 . S
C467 C250 1.525 . S
C461 C63 1.517 . S
C481 C11 1.399 . S
C487 C278 1.560 . S
C507 C210 2.600 . S
C501 C44 2.682 . S
C521 C59 1.956 . S
C527 C171 1.962 . S
C541 C25 1.237 . S
C547 C247 1.225 . S
C567 C167 1.457 . S
C561 C82 1.441 . S
C581 C101 1.233 . S
C587 C198 1.238 . S
C601 C125 2.254 . S
C607 C251 2.377 . S
C621 C144 1.814 . S
C627 C290 1.894 . S
C641 C87 1.888 . S
C647 C211 2.022 . S
C667 C170 1.770 . S
C661 C97 1.824 . S
C687 C282 1.657 . S
C681 C120 1.728 . S
C707 C241 1.521 . S
C701 C135 1.617 . S
C721 C78 1.925 . S
C727 C287 2.029 . S
C747 C201 1.873 . S
C741 C116 1.932 . S
C767 C162 2.639 . S
C761 C139 2.646 . S
C781 C106 0.791 . S
C787 C238 0.908 . S
