# Generated by pormake.
# Topology zzz, (3,6)-cn, num edge types: 1
# Building blocks:
#     Node 0, Type 0, BuildingBlock: BETDIP_clean_linker_0, # of connection points: 3
#     Node 1, Type 0, BuildingBlock: BETDIP_clean_linker_0, # of connection points: 3
#     Node 2, Type 0, BuildingBlock: BETDIP_clean_linker_0, # of connection points: 3
#     Node 3, Type 0, BuildingBlock: BETDIP_clean_linker_0, # of connection points: 3
#     Node 4, Type 0, BuildingBlock: BETDIP_clean_linker_0, # of connection points: 3
#     Node 5, Type 0, BuildingBlock: BETDIP_clean_linker_0, # of connection points: 3
#     Node 6, Type 0, BuildingBlock: BETDIP_clean_linker_0, # of connection points: 3
#     Node 7, Type 0, BuildingBlock: BETDIP_clean_linker_0, # of connection points: 3
#     Node 8, Type 1, BuildingBlock: PAMTUU_clean_sbu_0, # of connection points: 6
#     Node 9, Type 1, BuildingBlock: PAMTUU_clean_sbu_0, # of connection points: 6
#     Node 10, Type 1, BuildingBlock: PAMTUU_clean_sbu_0, # of connection points: 6
#     Node 11, Type 1, BuildingBlock: PAMTUU_clean_sbu_0, # of connection points: 6
#     Edge 12, Type (0, 1), BuildingBlock: AJUNOK_clean_linker_0, # of connection points: 2
#     Edge 13, Type (0, 1), BuildingBlock: AJUNOK_clean_linker_0, # of connection points: 2
#     Edge 14, Type (0, 1), BuildingBlock: AJUNOK_clean_linker_0, # of connection points: 2
#     Edge 15, Type (0, 1), BuildingBlock: AJUNOK_clean_linker_0, # of connection points: 2
#     Edge 16, Type (0, 1), BuildingBlock: AJUNOK_clean_linker_0, # of connection points: 2
#     Edge 17, Type (0, 1), BuildingBlock: AJUNOK_clean_linker_0, # of connection points: 2
#     Edge 18, Type (0, 1), BuildingBlock: AJUNOK_clean_linker_0, # of connection points: 2
#     Edge 19, Type (0, 1), BuildingBlock: AJUNOK_clean_linker_0, # of connection points: 2
#     Edge 20, Type (0, 1), BuildingBlock: AJUNOK_clean_linker_0, # of connection points: 2
#     Edge 21, Type (0, 1), BuildingBlock: AJUNOK_clean_linker_0, # of connection points: 2
#     Edge 22, Type (0, 1), BuildingBlock: AJUNOK_clean_linker_0, # of connection points: 2
#     Edge 23, Type (0, 1), BuildingBlock: AJUNOK_clean_linker_0, # of connection points: 2
#     Edge 24, Type (0, 1), BuildingBlock: AJUNOK_clean_linker_0, # of connection points: 2
#     Edge 25, Type (0, 1), BuildingBlock: AJUNOK_clean_linker_0, # of connection points: 2
#     Edge 26, Type (0, 1), BuildingBlock: AJUNOK_clean_linker_0, # of connection points: 2
#     Edge 27, Type (0, 1), BuildingBlock: AJUNOK_clean_linker_0, # of connection points: 2
#     Edge 28, Type (0, 1), BuildingBlock: AJUNOK_clean_linker_0, # of connection points: 2
#     Edge 29, Type (0, 1), BuildingBlock: AJUNOK_clean_linker_0, # of connection points: 2
#     Edge 30, Type (0, 1), BuildingBlock: AJUNOK_clean_linker_0, # of connection points: 2
#     Edge 31, Type (0, 1), BuildingBlock: AJUNOK_clean_linker_0, # of connection points: 2
#     Edge 32, Type (0, 1), BuildingBlock: AJUNOK_clean_linker_0, # of connection points: 2
#     Edge 33, Type (0, 1), BuildingBlock: AJUNOK_clean_linker_0, # of connection points: 2
#     Edge 34, Type (0, 1), BuildingBlock: AJUNOK_clean_linker_0, # of connection points: 2
#     Edge 35, Type (0, 1), BuildingBlock: AJUNOK_clean_linker_0, # of connection points: 2
# Relax obj value: 0.278
# Max RMSD: 0.250
# Mean RMSD: 0.115
data_MOF--net-zzz--node1-PAMTUU_clean_sbu_0--node2-BETDIP_clean_linker_0--edge1-AJUNOK_clean_linker_0
_symmetry_space_group_name_H-M    P1
_symmetry_Int_Tables_number       1
_symmetry_cell_setting            triclinic
loop_
_symmetry_equiv_pos_as_xyz
'x, y, z'
_cell_length_a     35.711126
_cell_length_b     40.20631
_cell_length_c     11.951028
_cell_angle_alpha  103.62743
_cell_angle_beta   89.844816
_cell_angle_gamma 89.467333
loop_
_atom_site_label
_atom_site_type_symbol
_atom_site_fract_x
_atom_site_fract_y
_atom_site_fract_z
_atom_type_partial_charge
H0 H 0.80197 0.53767 0.60409 0.0
H1 H 0.76858 0.45299 0.32995 0.0
H2 H 0.86954 0.44626 0.51819 0.0
H3 H 0.76975 0.51775 0.26896 0.0
C4 C 0.74463 0.51916 0.32161 0.0
C5 C 0.80594 0.51147 0.55591 0.0
C6 C 0.83804 0.49257 0.57636 0.0
C7 C 0.78021 0.49682 0.4675 0.0
C8 C 0.78711 0.46362 0.40082 0.0
C9 C 0.81922 0.44518 0.41792 0.0
C10 C 0.84352 0.45942 0.50847 0.0
N11 N 0.74917 0.51585 0.43766 0.0
H12 H 1.04407 0.77789 0.61979 0.0
H13 H 0.11432 0.7624 0.31691 0.0
H14 H 0.11662 0.85772 0.56922 0.0
H15 H 1.04652 0.74161 0.26109 0.0
C16 C 1.05139 0.72184 0.30792 0.0
C17 C 0.06601 0.78662 0.5712 0.0
C18 C 0.08002 0.82002 0.60847 0.0
C19 C 0.079 0.7653 0.46672 0.0
C20 C 0.1056 0.77791 0.39997 0.0
C21 C 0.1198 0.81102 0.43797 0.0
C22 C 0.10751 0.83133 0.54318 0.0
N23 N 0.06337 0.73228 0.42432 0.0
H24 H 0.80783 0.03978 0.62163 0.0
H25 H 0.83833 0.95215 0.35193 0.0
H26 H 0.73709 0.95218 0.5479 0.0
H27 H 0.90175 0.97371 0.45626 0.0
C28 C 0.89548 0.9961 0.42318 0.0
C29 C 0.80272 0.01373 0.57462 0.0
C30 C 0.7703 0.99647 0.59932 0.0
C31 C 0.82861 0.99682 0.48853 0.0
C32 C 0.81981 0.96409 0.42186 0.0
C33 C 0.78516 0.94901 0.43427 0.0
C34 C 0.76323 0.96375 0.53201 0.0
N35 N 0.86085 0.01392 0.45807 0.0
H36 H 0.58801 0.80143 0.34421 0.0
H37 H 0.52251 0.76193 0.03788 0.0
H38 H 0.54302 0.7002 0.27855 0.0
H39 H 0.5561 0.80102 0.97291 0.0
C40 C 0.55622 0.82349 0.04406 0.0
C41 C 0.57083 0.78164 0.29226 0.0
C42 C 0.56631 0.7503 0.32435 0.0
C43 C 0.55425 0.78675 0.18983 0.0
C44 C 0.53421 0.75947 0.11895 0.0
C45 C 0.53003 0.72823 0.1515 0.0
C46 C 0.54469 0.72481 0.25604 0.0
N47 N 0.5589 0.81888 0.15898 0.0
H48 H 0.30164 0.50022 0.1831 0.0
H49 H 0.34236 0.58174 0.45635 0.0
H50 H 0.23917 0.59434 0.28683 0.0
H51 H 0.40364 0.5501 0.31892 0.0
C52 C 0.39414 0.53143 0.36509 0.0
C53 C 0.29905 0.52613 0.235 0.0
C54 C 0.2681 0.54699 0.21859 0.0
C55 C 0.32687 0.5392 0.31855 0.0
C56 C 0.32239 0.57237 0.38836 0.0
C57 C 0.29025 0.59188 0.38043 0.0
C58 C 0.26448 0.57966 0.29194 0.0
N59 N 0.35711 0.51824 0.34221 0.0
H60 H 0.07034 0.26575 0.21742 0.0
H61 H 0.98805 0.25657 0.46713 0.0
H62 H 0.97719 0.19865 0.11854 0.0
H63 H 0.06453 0.32656 0.31159 0.0
C64 C 0.05695 0.32701 0.40004 0.0
C65 C 1.04337 0.25617 0.23608 0.0
C66 C 1.02717 0.22836 0.15721 0.0
C67 C 1.02572 0.26919 0.34373 0.0
C68 C 0.9967 0.25032 0.37767 0.0
C69 C 0.98109 0.22237 0.29863 0.0
C70 C 0.99165 0.21754 0.18302 0.0
N71 N 1.03874 0.29835 0.42552 0.0
H72 H 0.30143 0.04334 0.2171 0.0
H73 H 0.27309 0.9581 0.36331 0.0
H74 H 0.3744 0.95539 0.16962 0.0
H75 H 0.21477 0.97416 0.3271 0.0
C76 C 0.21598 1.0012 0.36773 0.0
C77 C 0.30729 0.01789 0.22861 0.0
C78 C 0.34045 1.00019 0.17983 0.0
C79 C 0.2816 1.00221 0.29176 0.0
C80 C 0.29078 0.96969 0.30969 0.0
C81 C 0.32422 0.95296 0.26747 0.0
C82 C 0.34793 0.96784 0.19967 0.0
N83 N 0.24823 0.01966 0.34433 0.0
H84 H 0.51174 0.24723 0.44933 0.0
H85 H 0.58661 0.2828 0.73668 0.0
H86 H 0.56376 0.34521 0.49938 0.0
H87 H 0.55534 0.24486 0.81007 0.0
C88 C 0.55021 0.22284 0.7398 0.0
C89 C 0.53112 0.26596 0.49631 0.0
C90 C 0.53663 0.2968 0.462 0.0
C91 C 0.54964 0.25996 0.5946 0.0
C92 C 0.57304 0.2859 0.65897 0.0
C93 C 0.57868 0.31652 0.62344 0.0
C94 C 0.56123 0.32091 0.52361 0.0
N95 N 0.54373 0.22821 0.62718 0.0
Tb96 Tb 1.01905 0.02588 0.82187 0.0
Tb97 Tb 0.08841 0.02051 0.9943 0.0
C98 C 1.00392 0.01987 0.07919 0.0
C99 C 0.95946 0.06091 0.63143 0.0
C100 C 0.94963 0.11451 0.52065 0.0
C101 C 0.91826 0.09889 0.55621 0.0
C102 C 0.92322 0.0722 0.61221 0.0
C103 C 0.9906 0.07715 0.59779 0.0
C104 C 0.98572 0.1037 0.54314 0.0
C105 C 0.96536 0.03431 0.69487 0.0
O106 O 1.03168 0.07838 0.90686 0.0
O107 O 0.08998 0.07405 0.98388 0.0
O108 O 0.10973 1.00625 0.81836 0.0
O109 O 0.06975 0.03624 0.73014 0.0
O110 O 0.11406 0.02916 0.15676 0.0
O111 O 0.14343 1.00273 1.00399 0.0
O112 O 0.06339 0.96997 0.95479 0.0
O113 O 1.03376 0.97168 0.78603 0.0
O114 O 0.9924 0.01339 0.97189 0.0
O115 O 1.03892 0.02799 0.10648 0.0
C116 C 0.0628 0.09229 0.95311 0.0
O117 O 0.99345 0.0134 0.66012 0.0
O118 O 0.9651 0.04548 0.8063 0.0
C119 C 0.10243 0.0211 0.73417 0.0
C120 C 0.15001 0.97981 0.16546 0.0
C121 C 0.15708 0.91773 0.2332 0.0
C122 C 0.18194 0.92515 0.15188 0.0
C123 C 0.17832 0.95601 0.11777 0.0
C124 C 0.12643 0.9728 0.25121 0.0
C125 C 0.12995 0.94199 0.2846 0.0
C126 C 0.14257 1.00951 0.11577 0.0
C127 C 1.04784 0.95447 0.85724 0.0
H128 H 0.89024 0.10683 0.53879 0.0
H129 H 0.89892 0.06037 0.6403 0.0
H130 H 1.01881 0.06946 0.61434 0.0
H131 H 1.01028 0.11561 0.51673 0.0
H132 H 0.20313 0.90666 0.11203 0.0
H133 H 0.19687 0.96083 0.0516 0.0
H134 H 0.10445 0.99055 0.29003 0.0
H135 H 0.11074 0.93662 0.34831 0.0
Tb136 Tb 0.54109 1.00606 0.76041 0.0
Tb137 Tb 0.56584 0.0386 0.01929 0.0
C138 C 0.55566 0.95904 0.93471 0.0
C139 C 0.50306 0.94538 0.50513 0.0
C140 C 0.44336 0.90211 0.42098 0.0
C141 C 0.46323 0.91863 0.34761 0.0
C142 C 0.49274 0.94029 0.38986 0.0
C143 C 0.48759 0.92486 0.57322 0.0
C144 C 0.45823 0.90275 0.53038 0.0
C145 C 0.52467 0.97574 0.55731 0.0
O146 O 0.491 1.00458 0.86822 0.0
O147 O 0.50548 0.0483 0.02191 0.0
O148 O 0.56174 0.08372 0.94721 0.0
O149 O 0.53514 0.06089 0.77048 0.0
O150 O 0.55919 0.04416 0.19778 0.0
O151 O 0.60647 0.06605 0.12971 0.0
O152 O 0.61561 0.01595 0.91923 0.0
O153 O 0.59704 0.02675 0.75123 0.0
O154 O 0.55919 0.96245 0.8286 0.0
O155 O 0.55174 0.98607 0.01975 0.0
C156 C 0.48085 0.02683 0.96401 0.0
O157 O 0.5051 1.00105 0.61956 0.0
O158 O 0.55572 0.97044 0.60761 0.0
C159 C 0.54737 0.08727 0.84902 0.0
C160 C 0.6196 0.03078 0.25535 0.0
C161 C 0.67231 0.97771 0.2503 0.0
C162 C 0.68402 1.01158 0.25833 0.0
C163 C 0.65799 0.03771 0.25971 0.0
C164 C 0.6078 0.99771 0.25947 0.0
C165 C 0.63389 0.97134 0.256 0.0
C166 C 0.5937 0.05436 0.21533 0.0
C167 C 0.62424 0.02211 0.81917 0.0
H168 H 0.45307 0.91859 0.26226 0.0
H169 H 0.50491 0.95559 0.3358 0.0
H170 H 0.49587 0.92815 0.6623 0.0
H171 H 0.44443 0.88939 0.58746 0.0
H172 H 0.71346 0.01791 0.26151 0.0
H173 H 0.66795 0.06291 0.25738 0.0
H174 H 0.57834 0.99163 0.2581 0.0
H175 H 0.62394 0.94581 0.25349 0.0
Tb176 Tb 0.52564 0.51061 0.97089 0.0
Tb177 Tb 0.58709 0.53266 0.79348 0.0
C178 C 0.50289 0.51533 0.71806 0.0
C179 C 0.48477 0.45589 0.14519 0.0
C180 C 0.49014 0.39367 0.2178 0.0
C181 C 0.45495 0.40789 0.20131 0.0
C182 C 0.45233 0.43874 0.16576 0.0
C183 C 0.51989 0.44161 0.16031 0.0
C184 C 0.52254 0.41102 0.19663 0.0
C185 C 0.48195 0.48706 0.09964 0.0
O186 O 0.54823 0.46407 0.86139 0.0
O187 O 0.6041 0.48043 0.7949 0.0
O188 O 0.61244 0.54351 0.96492 0.0
O189 O 0.58068 0.50635 0.04787 0.0
O190 O 0.61006 0.53168 0.62985 0.0
O191 O 0.63069 0.5664 0.78172 0.0
O192 O 0.54644 0.57373 0.84031 0.0
O193 O 0.5263 0.56667 0.01532 0.0
O194 O 0.49255 0.52062 0.82708 0.0
O195 O 0.53858 0.51246 0.68809 0.0
C196 C 0.58201 0.45687 0.81833 0.0
O197 O 0.50624 0.5111 0.13786 0.0
O198 O 0.4783 0.48145 0.98841 0.0
C199 C 0.60993 0.52568 0.0439 0.0
C200 C 0.62637 0.58815 0.61683 0.0
C201 C 0.61654 0.65043 0.54721 0.0
C202 C 0.65182 0.64108 0.58282 0.0
C203 C 0.65664 0.61027 0.61736 0.0
C204 C 0.59132 0.59701 0.57865 0.0
C205 C 0.58651 0.62774 0.544 0.0
C206 C 0.63062 0.5585 0.66979 0.0
C207 C 0.53204 0.58615 0.94242 0.0
H208 H 0.42941 0.39503 0.21464 0.0
H209 H 0.42493 0.44899 0.15289 0.0
H210 H 0.54538 0.45401 0.1433 0.0
H211 H 0.55012 0.40116 0.20959 0.0
H212 H 0.67543 0.65805 0.58738 0.0
H213 H 0.68379 0.60423 0.64806 0.0
H214 H 0.56734 0.58072 0.57897 0.0
H215 H 0.55906 0.63398 0.51587 0.0
Tb216 Tb 0.0677 0.5391 0.78602 0.0
Tb217 Tb 1.04243 0.50172 0.98562 0.0
C218 C 1.04634 0.58108 0.03403 0.0
C219 C 0.11158 0.60071 0.64061 0.0
C220 C 0.17456 0.6411 0.63111 0.0
C221 C 0.15981 0.63878 0.73829 0.0
C222 C 0.12875 0.61818 0.74291 0.0
C223 C 0.12261 0.6072 0.53575 0.0
C224 C 0.15376 0.62738 0.53089 0.0
C225 C 0.08667 0.57197 0.63951 0.0
O226 O 0.11558 0.54509 0.90446 0.0
O227 O 0.10368 0.49905 0.97912 0.0
O228 O 1.0373 0.46322 0.82571 0.0
O229 O 0.07826 0.48464 0.71362 0.0
O230 O 1.01102 0.49905 0.13194 0.0
O231 O 1.05211 0.46007 0.0594 0.0
O232 O 0.98918 0.51465 0.91039 0.0
O233 O 1.01144 0.52087 0.73607 0.0
O234 O 1.04176 0.57741 0.92324 0.0
O235 O 0.05424 0.55449 0.07594 0.0
C236 C 0.12675 0.52269 0.9624 0.0
O237 O 0.10332 0.54404 0.6514 0.0
O238 O 0.05666 0.57872 0.70294 0.0
C239 C 0.0591 0.45905 0.735 0.0
C240 C 0.99817 0.44259 0.14019 0.0
C241 C 0.93677 0.40153 0.16326 0.0
C242 C 0.94738 0.40574 0.05397 0.0
C243 C 0.97769 0.42648 0.04271 0.0
C244 C 0.99041 0.4354 0.24652 0.0
C245 C 0.95997 0.41506 0.2582 0.0
C246 C 1.02525 0.4692 0.13445 0.0
C247 C 0.98325 0.5179 0.80411 0.0
H248 H 0.1745 0.64987 0.81723 0.0
H249 H 0.12004 0.61375 0.82508 0.0
H250 H 0.10929 0.59419 0.45624 0.0
H251 H 0.16397 0.6286 0.44654 0.0
H252 H 0.93022 0.39563 0.97931 0.0
H253 H 0.98364 0.43166 0.95954 0.0
H254 H 1.00622 0.44748 0.3223 0.0
H255 H 0.95252 0.41314 0.3443 0.0
C256 C 0.19052 0.9923 0.55219 0.0
C257 C 0.19051 1.0121 0.46971 0.0
C258 C 0.16239 0.99594 0.63689 0.0
C259 C 0.13196 0.01898 0.64204 0.0
H260 H 0.21211 0.97297 0.54929 0.0
H261 H 0.16415 0.97964 0.69711 0.0
S262 S 0.11786 0.07619 0.44232 0.0
N263 N 0.15735 0.05552 0.39707 0.0
N264 N 0.10383 0.06198 0.55439 0.0
C265 C 0.13156 0.03909 0.55968 0.0
C266 C 0.16089 0.03575 0.47424 0.0
C267 C 0.54179 0.15818 0.68226 0.0
C268 C 0.54814 0.18835 0.7675 0.0
C269 C 0.54089 0.12585 0.70959 0.0
C270 C 0.54645 0.12217 0.82326 0.0
H271 H 0.53782 0.15942 0.59354 0.0
H272 H 0.53642 0.10347 0.6403 0.0
S273 S 0.56243 0.19367 0.079 0.0
N274 N 0.55886 0.21255 0.97087 0.0
N275 N 0.55724 0.1524 0.02206 0.0
C276 C 0.55228 0.15234 0.90929 0.0
C277 C 0.55308 0.18515 0.88146 0.0
C278 C 0.45927 0.52577 0.43558 0.0
C279 C 0.42052 0.5223 0.45109 0.0
C280 C 0.48542 0.52212 0.51997 0.0
C281 C 0.47413 0.51565 0.62607 0.0
H282 H 0.46953 0.53213 0.3579 0.0
H283 H 0.51474 0.52571 0.5031 0.0
S284 S 0.37567 0.50356 0.70949 0.0
N285 N 0.37209 0.51089 0.57956 0.0
N286 N 0.42086 0.5048 0.73953 0.0
C287 C 0.43535 0.51142 0.64193 0.0
C288 C 0.40871 0.51451 0.55439 0.0
C289 C 0.07068 0.38978 0.45698 0.0
C290 C 0.05957 0.35984 0.48931 0.0
C291 C 0.07128 0.42165 0.53705 0.0
C292 C 0.06055 0.42488 0.65265 0.0
H293 H 0.07834 0.3887 0.3684 0.0
H294 H 0.07934 0.44402 0.5073 0.0
S295 S 1.03201 0.35392 0.78426 0.0
N296 N 1.03971 0.33531 0.64755 0.0
N297 N 1.04065 0.39486 0.79683 0.0
C298 C 1.05032 0.39496 0.68678 0.0
C299 C 1.04989 0.36255 0.60557 0.0
C300 C 0.91289 0.02181 0.25449 0.0
C301 C 0.92354 1.00583 0.34273 0.0
C302 C 0.93888 0.02632 0.16955 0.0
C303 C 0.97686 0.01626 0.17198 0.0
H304 H 0.88401 0.02956 0.24805 0.0
H305 H 0.92917 0.03788 0.10153 0.0
S306 S 1.01912 0.97395 0.38628 0.0
N307 N 0.97468 0.97954 0.42543 0.0
N308 N 1.02353 0.99026 0.27251 0.0
C309 C 0.98795 1.0014 0.26216 0.0
C310 C 0.96134 0.99564 0.34555 0.0
C311 C 0.55336 0.88845 0.10268 0.0
C312 C 0.55661 0.85799 0.01632 0.0
C313 C 0.55289 0.92071 0.07526 0.0
C314 C 0.55613 0.92414 0.9605 0.0
H315 H 0.5507 0.88746 0.19214 0.0
H316 H 0.54965 0.94314 0.14518 0.0
S317 S 0.56447 0.85188 0.70201 0.0
N318 N 0.56229 0.83318 0.81089 0.0
N319 N 0.56205 0.89341 0.75975 0.0
C320 C 0.55928 0.89372 0.87343 0.0
C321 C 0.55939 0.86088 0.90129 0.0
C322 C 0.70874 0.53884 0.16969 0.0
C323 C 0.70803 0.52402 0.26532 0.0
C324 C 0.67676 0.54025 0.10234 0.0
C325 C 0.64232 0.52622 0.12532 0.0
H326 H 0.7347 0.54894 0.14487 0.0
H327 H 0.67961 0.55154 0.02896 0.0
S328 S 0.625 0.48464 0.36747 0.0
N329 N 0.66952 0.49565 0.38179 0.0
N330 N 0.60952 0.4976 0.25448 0.0
C331 C 0.64092 0.51185 0.22259 0.0
C332 C 0.67362 0.51094 0.29266 0.0
C333 C 0.06078 0.65803 0.28823 0.0
C334 C 1.0467 0.68546 0.2455 0.0
C335 C 0.05939 0.62404 0.22153 0.0
C336 C 1.04388 0.61634 0.10995 0.0
H337 H 0.07403 0.66289 0.37186 0.0
H338 H 0.07168 0.60387 0.25613 0.0
S339 S 0.99988 0.67903 0.96464 0.0
N340 N 1.01458 0.70244 0.08887 0.0
N341 N 1.01145 0.63924 0.96482 0.0
C342 C 1.02828 0.64359 0.06917 0.0
C343 C 1.02985 0.67792 0.13656 0.0
C344 C 0.94284 0.2002 0.4442 0.0
C345 C 0.96321 0.19367 0.33954 0.0
C346 C 0.93494 0.17381 0.49967 0.0
C347 C 0.94631 0.14 0.45062 0.0
H348 H 0.93497 0.22612 0.48734 0.0
H349 H 0.92233 0.18024 0.58468 0.0
S350 S 0.99503 0.10726 0.17346 0.0
N351 N 0.99173 0.14885 0.18678 0.0
N352 N 0.97384 0.10014 0.28778 0.0
C353 C 0.96277 0.13242 0.34153 0.0
C354 C 0.97198 0.159 0.2866 0.0
C355 C 0.36039 0.89821 0.23992 0.0
C356 C 0.33938 0.92431 0.31339 0.0
C357 C 0.39168 0.88367 0.28151 0.0
C358 C 0.40289 0.89548 0.39684 0.0
H359 H 0.35618 0.89287 0.14767 0.0
H360 H 0.41059 0.86789 0.21955 0.0
S361 S 0.34636 0.95036 0.63161 0.0
N362 N 0.32373 0.9515 0.51242 0.0
N363 N 0.3823 0.92426 0.59035 0.0
C364 C 0.37657 0.9146 0.47482 0.0
C365 C 0.34476 0.92936 0.43267 0.0
C366 C 0.57565 0.36224 0.80213 0.0
C367 C 0.59474 0.34781 0.6991 0.0
C368 C 0.57474 0.39776 0.84626 0.0
C369 C 0.59302 0.42011 0.7893 0.0
H370 H 0.55753 0.34659 0.841 0.0
H371 H 0.557 0.40787 0.92039 0.0
S372 S 0.65528 0.39406 0.53464 0.0
N373 N 0.63897 0.35767 0.55563 0.0
N374 N 0.63699 0.42459 0.63815 0.0
C375 C 0.61673 0.40565 0.69638 0.0
C376 C 0.61782 0.36937 0.6518 0.0
C377 C 0.25725 0.64762 0.45611 0.0
C378 C 0.27763 0.6198 0.47883 0.0
C379 C 0.22638 0.66136 0.52492 0.0
C380 C 0.21514 0.64721 0.61673 0.0
H381 H 0.26126 0.65491 0.37523 0.0
H382 H 0.20771 0.67862 0.49414 0.0
S383 S 0.27089 0.58694 0.74329 0.0
N384 N 0.29324 0.58833 0.62355 0.0
N385 N 0.23543 0.61404 0.75234 0.0
C386 C 0.24116 0.62618 0.65673 0.0
C387 C 0.27255 0.61225 0.58696 0.0
C388 C 0.1208 0.833 0.26183 0.0
C389 C 0.13987 0.82843 0.35993 0.0
C390 C 0.12899 0.86066 0.21383 0.0
C391 C 0.15705 0.884 0.26075 0.0
H392 H 0.09655 0.81764 0.23041 0.0
H393 H 0.11108 0.8655 0.14631 0.0
S394 S 0.21945 0.87981 0.50341 0.0
N395 N 0.19139 0.84672 0.49212 0.0
N396 N 0.20705 0.89856 0.39989 0.0
C397 C 0.17908 0.87758 0.35011 0.0
C398 C 0.17058 0.84959 0.39976 0.0
C399 C 0.73107 0.91313 0.35273 0.0
C400 C 0.76606 0.92671 0.33163 0.0
C401 C 0.69829 0.92758 0.31835 0.0
C402 C 0.70083 0.95027 0.24509 0.0
H403 H 0.7286 0.8995 0.4205 0.0
H404 H 0.67208 0.92421 0.35985 0.0
S405 S 0.78477 0.96102 0.07501 0.0
N406 N 0.80043 0.94191 0.17412 0.0
N407 N 0.73912 0.96575 0.09668 0.0
C408 C 0.73495 0.95093 0.18703 0.0
C409 C 0.76794 0.93799 0.22871 0.0
C410 C 0.49554 0.67299 0.10823 0.0
C411 C 0.51946 0.69584 0.06995 0.0
C412 C 0.49835 0.63746 0.06317 0.0
C413 C 0.52462 0.62362 0.97659 0.0
H414 H 0.47729 0.6824 0.18168 0.0
H415 H 0.48121 0.62072 0.10043 0.0
S416 S 0.59074 0.67293 0.83875 0.0
N417 N 0.56768 0.70233 0.93407 0.0
N418 N 0.57263 0.636 0.84723 0.0
C419 C 0.54605 0.6465 0.92998 0.0
C420 C 0.54331 0.68254 0.97653 0.0
C421 C 0.83766 0.42395 0.21435 0.0
C422 C 0.83389 0.41702 0.32387 0.0
C423 C 0.86908 0.41221 0.14605 0.0
C424 C 0.89739 0.39336 0.18608 0.0
H425 H 0.82012 0.44312 0.18954 0.0
H426 H 0.87392 0.42302 0.07246 0.0
S427 S 0.88955 0.3537 0.43486 0.0
N428 N 0.85246 0.37919 0.44578 0.0
N429 N 0.91177 0.35687 0.31638 0.0
C430 C 0.88863 0.37901 0.27927 0.0
C431 C 0.85661 0.391 0.34896 0.0
C432 C 0.07603 0.18298 0.12971 0.0
C433 C 1.05018 0.2016 0.07851 0.0
C434 C 0.08316 0.14796 0.08248 0.0
C435 C 0.06471 0.13041 0.9823 0.0
H436 H 0.08702 0.19423 0.21446 0.0
H437 H 0.10015 0.13396 0.13117 0.0
S438 S 1.00313 0.1699 0.79843 0.0
N439 N 1.01273 0.20165 0.90974 0.0
N440 N 1.02608 0.13616 0.82034 0.0
C441 C 1.04321 0.14995 0.92184 0.0
C442 C 1.03622 0.18554 0.9696 0.0
C443 C 0.38078 0.99649 1.0037 0.0
C444 C 0.3704 0.01455 0.11588 0.0
C445 C 0.4154 1.00187 0.95342 0.0
C446 C 0.44181 0.02541 0.01305 0.0
H447 H 0.36283 0.97643 0.95679 0.0
H448 H 0.42213 0.98618 0.86882 0.0
S449 S 0.42757 0.08066 0.30765 0.0
N450 N 0.38883 0.05803 0.28303 0.0
N451 N 0.45343 0.06854 0.18999 0.0
C452 C 0.43087 0.04495 0.1233 0.0
C453 C 0.39545 0.03944 0.17414 0.0
C454 C 0.53141 0.31106 0.27171 0.0
C455 C 0.51382 0.30867 0.37495 0.0
C456 C 0.52148 0.337 0.2159 0.0
C457 C 0.49378 0.36178 0.26171 0.0
H458 H 0.55565 0.2951 0.24062 0.0
H459 H 0.53742 0.33905 0.14061 0.0
S460 S 0.43656 0.36409 0.52335 0.0
N461 N 0.46476 0.33074 0.51364 0.0
N462 N 0.44648 0.37982 0.41112 0.0
C463 C 0.47357 0.35755 0.35877 0.0
C464 C 0.48343 0.33084 0.41446 0.0
C465 C 0.22474 0.55608 0.06142 0.0
C466 C 0.23652 0.53532 0.13537 0.0
C467 C 0.19022 0.55103 1.00273 0.0
C468 C 0.16538 0.52506 0.01554 0.0
H469 H 0.24175 0.57752 0.05278 0.0
H470 H 0.18243 0.56851 0.95006 0.0
S471 S 0.18352 0.46258 0.19559 0.0
N472 N 0.221 0.48699 0.21467 0.0
N473 N 0.15657 0.47709 0.10512 0.0
C474 C 0.17762 0.50315 0.08563 0.0
C475 C 0.21293 0.50833 0.14502 0.0
C476 C 1.03147 0.86439 0.6788 0.0
C477 C 0.06334 0.8466 0.70324 0.0
C478 C 1.02492 0.89876 0.73568 0.0
C479 C 1.04983 0.91644 0.81978 0.0
H480 H 1.01381 0.85295 0.60663 0.0
H481 H 1.00161 0.91222 0.70787 0.0
S482 S 0.13512 0.87962 0.92245 0.0
N483 N 0.11791 0.84782 0.82341 0.0
N484 N 0.10566 0.91207 0.9321 0.0
C485 C 0.07966 0.89773 0.85297 0.0
C486 C 0.08631 0.86284 0.79449 0.0
C487 C 0.72844 0.99781 0.77064 0.0
C488 C 0.73893 1.0125 0.67885 0.0
C489 C 0.69216 1.00258 0.82022 0.0
C490 C 0.66431 0.02154 0.77823 0.0
H491 H 0.74767 0.98053 0.79911 0.0
H492 H 0.68528 0.98953 0.88707 0.0
S493 S 0.67846 0.06845 0.54832 0.0
N494 N 0.71916 0.04923 0.5554 0.0
N495 N 0.65138 0.05805 0.64678 0.0
C496 C 0.67518 0.03803 0.69133 0.0
C497 C 0.71226 0.03357 0.6423 0.0
C498 C 0.56809 0.73155 0.50704 0.0
C499 C 0.58816 0.73916 0.41477 0.0
C500 C 0.57893 0.70423 0.55508 0.0
C501 C 0.61047 0.68362 0.51344 0.0
H502 H 0.54139 0.7441 0.53277 0.0
H503 H 0.56102 0.69776 0.61995 0.0
S504 S 0.67559 0.69637 0.28522 0.0
N505 N 0.64352 0.72673 0.29379 0.0
N506 N 0.66412 0.67559 0.384 0.0
C507 C 0.63307 0.69344 0.43029 0.0
C508 C 0.62199 0.72132 0.38164 0.0
C509 C 0.87862 0.49672 0.75241 0.0
C510 C 0.87047 0.50752 0.65084 0.0
C511 C 0.91434 0.50161 0.80486 0.0
C512 C 0.94398 0.51661 0.75614 0.0
H513 H 0.85777 0.48275 0.78828 0.0
H514 H 0.91927 0.49189 0.88075 0.0
S515 S 0.93691 0.54983 0.49123 0.0
N516 N 0.89482 0.53468 0.50569 0.0
N517 N 0.96147 0.54362 0.60153 0.0
C518 C 0.93564 0.52847 0.65643 0.0
C519 C 0.89919 0.52396 0.60458 0.0
loop_
_geom_bond_atom_site_label_1
_geom_bond_atom_site_label_2
_geom_bond_distance
_geom_bond_site_symmetry_2
_ccdc_geom_bond_type
H0 C5 0.930 . S
H1 C8 0.930 . S
H2 C10 0.930 . S
H3 C4 1.016 . S
C4 H3 1.016 . S
C4 N11 1.286 . S
C5 H0 0.930 . S
C5 C6 1.397 . S
C5 C7 1.361 . S
C6 C5 1.397 . S
C6 C10 1.390 . S
C7 C5 1.361 . S
C7 C8 1.393 . S
C7 N11 1.413 . S
C8 H1 0.930 . S
C8 C7 1.393 . S
C8 C9 1.399 . S
C9 C8 1.399 . S
C9 C10 1.381 . S
C10 H2 0.930 . S
C10 C6 1.390 . S
C10 C9 1.381 . S
N11 C4 1.286 . S
N11 C7 1.413 . S
H12 C17 0.930 . S
H13 C20 0.930 . S
H14 C22 0.930 . S
H15 C16 1.016 . S
C16 H15 1.016 . S
C16 N23 1.286 1_655 S
C17 H12 0.930 . S
C17 C18 1.397 . S
C17 C19 1.361 . S
C18 C17 1.397 . S
C18 C22 1.390 1_455 S
C19 C17 1.361 . S
C19 C20 1.393 . S
C19 N23 1.413 . S
C20 H13 0.930 . S
C20 C19 1.393 . S
C20 C21 1.403 . S
C21 C20 1.403 . S
C21 C22 1.379 1_455 S
C22 H14 0.930 . S
C22 C18 1.390 1_655 S
C22 C21 1.379 1_655 S
N23 C16 1.286 1_455 S
N23 C19 1.413 . S
H24 C29 0.930 . S
H25 C32 0.930 . S
H26 C34 0.930 . S
H27 C28 1.016 . S
C28 H27 1.016 . S
C28 N35 1.286 1_565 S
C29 H24 0.930 . S
C29 C30 1.397 . S
C29 C31 1.361 . S
C30 C29 1.397 . S
C30 C34 1.390 1_545 S
C31 C29 1.361 . S
C31 C32 1.393 . S
C31 N35 1.413 . S
C32 H25 0.930 . S
C32 C31 1.393 . S
C32 C33 1.404 . S
C33 C32 1.404 . S
C33 C34 1.373 1_545 S
C34 H26 0.930 . S
C34 C30 1.390 1_565 S
C34 C33 1.373 1_565 S
N35 C28 1.286 1_545 S
N35 C31 1.413 . S
H36 C41 0.930 . S
H37 C44 0.930 . S
H38 C46 0.930 . S
H39 C40 1.016 . S
C40 H39 1.016 . S
C40 N47 1.286 1_556 S
C41 H36 0.930 . S
C41 C42 1.397 . S
C41 C43 1.361 . S
C42 C41 1.397 . S
C42 C46 1.390 . S
C43 C41 1.361 . S
C43 C44 1.393 1_554 S
C43 N47 1.413 . S
C44 H37 0.930 . S
C44 C43 1.393 1_556 S
C44 C45 1.399 . S
C45 C44 1.399 . S
C45 C46 1.381 1_556 S
C46 H38 0.930 . S
C46 C42 1.390 . S
C46 C45 1.381 1_554 S
N47 C40 1.286 1_554 S
N47 C43 1.413 . S
H48 C53 0.930 . S
H49 C56 0.930 . S
H50 C58 0.930 . S
H51 C52 1.016 . S
C52 H51 1.016 . S
C52 N59 1.286 . S
C53 H48 0.930 . S
C53 C54 1.397 . S
C53 C55 1.361 . S
C54 C53 1.397 . S
C54 C58 1.390 . S
C55 C53 1.361 . S
C55 C56 1.393 . S
C55 N59 1.413 . S
C56 H49 0.930 . S
C56 C55 1.393 . S
C56 C57 1.399 . S
C57 C56 1.399 . S
C57 C58 1.381 . S
C58 H50 0.930 . S
C58 C54 1.390 . S
C58 C57 1.381 . S
N59 C52 1.286 . S
N59 C55 1.413 . S
H60 C65 0.930 . S
H61 C68 0.930 . S
H62 C70 0.930 . S
H63 C64 1.027 . S
C64 H63 1.027 . S
C64 N71 1.272 1_655 S
C65 H60 0.930 . S
C65 C66 1.397 . S
C65 C67 1.361 . S
C66 C65 1.397 . S
C66 C70 1.390 1_455 S
C67 C65 1.361 . S
C67 C68 1.393 . S
C67 N71 1.413 . S
C68 H61 0.930 . S
C68 C67 1.393 . S
C68 C69 1.404 . S
C69 C68 1.404 . S
C69 C70 1.378 1_455 S
C70 H62 0.930 . S
C70 C66 1.390 1_655 S
C70 C69 1.378 1_655 S
N71 C64 1.272 1_455 S
N71 C67 1.413 . S
H72 C77 0.930 . S
H73 C80 0.930 . S
H74 C82 0.930 . S
H75 C76 1.035 . S
C76 H75 1.035 . S
C76 N83 1.265 1_565 S
C77 H72 0.930 . S
C77 C78 1.397 . S
C77 C79 1.361 . S
C78 C77 1.397 . S
C78 C82 1.390 1_545 S
C79 C77 1.361 . S
C79 C80 1.393 . S
C79 N83 1.413 . S
C80 H73 0.930 . S
C80 C79 1.393 . S
C80 C81 1.403 . S
C81 C80 1.403 . S
C81 C82 1.386 1_545 S
C82 H74 0.930 . S
C82 C78 1.390 1_565 S
C82 C81 1.386 1_565 S
N83 C76 1.265 1_545 S
N83 C79 1.413 . S
H84 C89 0.930 . S
H85 C92 0.930 . S
H86 C94 0.930 . S
H87 C88 1.016 . S
C88 H87 1.016 . S
C88 N95 1.286 . S
C89 H84 0.930 . S
C89 C90 1.397 . S
C89 C91 1.361 . S
C90 C89 1.397 . S
C90 C94 1.390 . S
C91 C89 1.361 . S
C91 C92 1.393 . S
C91 N95 1.413 . S
C92 H85 0.930 . S
C92 C91 1.393 . S
C92 C93 1.399 . S
C93 C92 1.399 . S
C93 C94 1.381 . S
C94 H86 0.930 . S
C94 C90 1.390 . S
C94 C93 1.381 . S
N95 C88 1.286 . S
N95 C91 1.413 . S
Tb96 C105 2.764 . S
Tb96 O106 2.325 . S
Tb96 O109 2.303 1_655 S
Tb96 O113 2.322 1_545 S
Tb96 O114 2.349 . S
Tb96 O117 2.415 . S
Tb96 O118 2.399 . S
Tb97 O107 2.322 1_566 S
Tb97 O108 2.349 . S
Tb97 O110 2.415 1_556 S
Tb97 O111 2.399 1_556 S
Tb97 O112 2.325 . S
Tb97 O115 2.303 1_455 S
Tb97 C126 2.764 1_556 S
C98 O114 1.261 . S
C98 O115 1.257 1_545 S
C99 C102 1.358 . S
C99 C103 1.332 . S
C99 C105 1.504 . S
C100 C101 1.373 . S
C100 C104 1.308 . S
C101 C100 1.373 . S
C101 C102 1.429 . S
C101 H128 0.932 . S
C102 C99 1.358 . S
C102 C101 1.429 . S
C102 H129 0.930 . S
C103 C99 1.332 . S
C103 C104 1.394 . S
C103 H130 0.932 1_655 S
C104 C100 1.308 . S
C104 C103 1.394 . S
C104 H131 0.929 . S
C105 Tb96 2.764 . S
C105 C99 1.504 . S
C105 O117 1.239 . S
C105 O118 1.263 . S
O106 Tb96 2.325 . S
O106 C116 1.236 1_655 S
O107 Tb97 2.322 1_544 S
O107 C116 1.257 1_554 S
O108 Tb97 2.349 . S
O108 C119 1.261 . S
O109 Tb96 2.303 1_455 S
O109 C119 1.257 1_545 S
O110 Tb97 2.415 1_554 S
O110 C126 1.239 . S
O111 Tb97 2.399 1_554 S
O111 C126 1.263 . S
O112 Tb97 2.325 . S
O112 C127 1.236 1_455 S
O113 Tb96 2.322 1_565 S
O113 C127 1.257 . S
O114 Tb96 2.349 . S
O114 C98 1.261 . S
O115 Tb97 2.303 1_655 S
O115 C98 1.257 1_565 S
C116 O106 1.236 1_455 S
C116 O107 1.257 1_556 S
O117 Tb96 2.415 . S
O117 C105 1.239 . S
O118 Tb96 2.399 . S
O118 C105 1.263 . S
C119 O108 1.261 . S
C119 O109 1.257 1_565 S
C120 C123 1.358 . S
C120 C124 1.332 . S
C120 C126 1.504 . S
C121 C122 1.373 . S
C121 C125 1.308 . S
C122 C121 1.373 . S
C122 C123 1.429 . S
C122 H132 0.932 . S
C123 C120 1.358 . S
C123 C122 1.429 . S
C123 H133 0.930 . S
C124 C120 1.332 . S
C124 C125 1.394 . S
C124 H134 0.932 1_455 S
C125 C121 1.308 . S
C125 C124 1.394 . S
C125 H135 0.929 . S
C126 Tb97 2.764 1_554 S
C126 O110 1.239 . S
C126 O111 1.263 . S
C126 C120 1.504 . S
C127 O112 1.236 1_655 S
C127 O113 1.257 . S
H128 C101 0.932 . S
H129 C102 0.930 . S
H130 C103 0.932 1_455 S
H131 C104 0.929 . S
H132 C122 0.932 . S
H133 C123 0.930 . S
H134 C124 0.932 1_655 S
H135 C125 0.929 . S
Tb136 C145 2.764 . S
Tb136 O146 2.325 . S
Tb136 O149 2.303 1_565 S
Tb136 O153 2.322 . S
Tb136 O154 2.349 . S
Tb136 O157 2.415 1_565 S
Tb136 O158 2.399 . S
Tb137 O147 2.322 . S
Tb137 O148 2.349 1_554 S
Tb137 O150 2.415 1_545 S
Tb137 O151 2.399 . S
Tb137 O152 2.325 1_554 S
Tb137 O155 2.303 1_544 S
Tb137 C166 2.764 . S
C138 O154 1.261 . S
C138 O155 1.257 . S
C139 C142 1.358 . S
C139 C143 1.332 1_565 S
C139 C145 1.504 . S
C140 C141 1.373 . S
C140 C144 1.308 1_565 S
C141 C140 1.373 . S
C141 C142 1.429 . S
C141 H168 0.932 . S
C142 C139 1.358 . S
C142 C141 1.429 . S
C142 H169 0.930 . S
C143 C139 1.332 1_545 S
C143 C144 1.394 . S
C143 H170 0.932 . S
C144 C140 1.308 1_545 S
C144 C143 1.394 . S
C144 H171 0.929 . S
C145 Tb136 2.764 . S
C145 C139 1.504 . S
C145 O157 1.239 1_565 S
C145 O158 1.263 . S
O146 Tb136 2.325 . S
O146 C156 1.236 1_565 S
O147 Tb137 2.322 . S
O147 C156 1.257 1_554 S
O148 Tb137 2.349 1_556 S
O148 C159 1.261 . S
O149 Tb136 2.303 1_545 S
O149 C159 1.257 . S
O150 Tb137 2.415 1_565 S
O150 C166 1.239 1_565 S
O151 Tb137 2.399 . S
O151 C166 1.263 . S
O152 Tb137 2.325 1_556 S
O152 C167 1.236 1_545 S
O153 Tb136 2.322 . S
O153 C167 1.257 . S
O154 Tb136 2.349 . S
O154 C138 1.261 . S
O155 Tb137 2.303 1_566 S
O155 C138 1.257 . S
C156 O146 1.236 1_545 S
C156 O147 1.257 1_556 S
O157 Tb136 2.415 1_545 S
O157 C145 1.239 1_545 S
O158 Tb136 2.399 . S
O158 C145 1.263 . S
C159 O148 1.261 . S
C159 O149 1.257 . S
C160 C163 1.358 . S
C160 C164 1.332 1_545 S
C160 C166 1.504 . S
C161 C162 1.373 . S
C161 C165 1.308 1_545 S
C162 C161 1.373 . S
C162 C163 1.429 . S
C162 H172 0.932 . S
C163 C160 1.358 . S
C163 C162 1.429 . S
C163 H173 0.930 . S
C164 C160 1.332 1_565 S
C164 C165 1.394 . S
C164 H174 0.932 . S
C165 C161 1.308 1_565 S
C165 C164 1.394 . S
C165 H175 0.929 . S
C166 Tb137 2.764 . S
C166 O150 1.239 1_545 S
C166 O151 1.263 . S
C166 C160 1.504 . S
C167 O152 1.236 1_565 S
C167 O153 1.257 . S
H168 C141 0.932 . S
H169 C142 0.930 . S
H170 C143 0.932 . S
H171 C144 0.929 . S
H172 C162 0.932 . S
H173 C163 0.930 . S
H174 C164 0.932 . S
H175 C165 0.929 . S
Tb176 C185 2.764 . S
Tb176 O186 2.325 1_554 S
Tb176 O189 2.303 1_554 S
Tb176 O193 2.322 1_554 S
Tb176 O194 2.349 1_554 S
Tb176 O197 2.415 . S
Tb176 O198 2.399 . S
Tb177 O187 2.322 . S
Tb177 O188 2.349 . S
Tb177 O190 2.415 . S
Tb177 O191 2.399 . S
Tb177 O192 2.325 . S
Tb177 O195 2.303 . S
Tb177 C206 2.764 . S
C178 O194 1.261 . S
C178 O195 1.257 . S
C179 C182 1.358 . S
C179 C183 1.332 . S
C179 C185 1.504 . S
C180 C181 1.373 . S
C180 C184 1.308 . S
C181 C180 1.373 . S
C181 C182 1.429 . S
C181 H208 0.932 . S
C182 C179 1.358 . S
C182 C181 1.429 . S
C182 H209 0.930 . S
C183 C179 1.332 . S
C183 C184 1.394 . S
C183 H210 0.932 . S
C184 C180 1.308 . S
C184 C183 1.394 . S
C184 H211 0.929 . S
C185 Tb176 2.764 . S
C185 C179 1.504 . S
C185 O197 1.239 . S
C185 O198 1.263 . S
O186 Tb176 2.325 1_556 S
O186 C196 1.236 . S
O187 Tb177 2.322 . S
O187 C196 1.257 . S
O188 Tb177 2.349 . S
O188 C199 1.261 . S
O189 Tb176 2.303 1_556 S
O189 C199 1.257 . S
O190 Tb177 2.415 . S
O190 C206 1.239 . S
O191 Tb177 2.399 . S
O191 C206 1.263 . S
O192 Tb177 2.325 . S
O192 C207 1.236 . S
O193 Tb176 2.322 1_556 S
O193 C207 1.257 . S
O194 Tb176 2.349 1_556 S
O194 C178 1.261 . S
O195 Tb177 2.303 . S
O195 C178 1.257 . S
C196 O186 1.236 . S
C196 O187 1.257 . S
O197 Tb176 2.415 . S
O197 C185 1.239 . S
O198 Tb176 2.399 . S
O198 C185 1.263 . S
C199 O188 1.261 . S
C199 O189 1.257 . S
C200 C203 1.358 . S
C200 C204 1.332 . S
C200 C206 1.504 . S
C201 C202 1.373 . S
C201 C205 1.308 . S
C202 C201 1.373 . S
C202 C203 1.429 . S
C202 H212 0.932 . S
C203 C200 1.358 . S
C203 C202 1.429 . S
C203 H213 0.930 . S
C204 C200 1.332 . S
C204 C205 1.394 . S
C204 H214 0.932 . S
C205 C201 1.308 . S
C205 C204 1.394 . S
C205 H215 0.929 . S
C206 Tb177 2.764 . S
C206 O190 1.239 . S
C206 O191 1.263 . S
C206 C200 1.504 . S
C207 O192 1.236 . S
C207 O193 1.257 . S
H208 C181 0.932 . S
H209 C182 0.930 . S
H210 C183 0.932 . S
H211 C184 0.929 . S
H212 C202 0.932 . S
H213 C203 0.930 . S
H214 C204 0.932 . S
H215 C205 0.929 . S
Tb216 C225 2.764 . S
Tb216 O226 2.325 . S
Tb216 O229 2.303 . S
Tb216 O233 2.322 1_455 S
Tb216 O234 2.349 . S
Tb216 O237 2.415 . S
Tb216 O238 2.399 . S
Tb217 O227 2.322 1_655 S
Tb217 O228 2.349 . S
Tb217 O230 2.415 1_556 S
Tb217 O231 2.399 1_556 S
Tb217 O232 2.325 . S
Tb217 O235 2.303 . S
Tb217 C246 2.764 1_556 S
C218 O234 1.261 . S
C218 O235 1.257 1_455 S
C219 C222 1.358 . S
C219 C223 1.332 . S
C219 C225 1.504 . S
C220 C221 1.373 . S
C220 C224 1.308 . S
C221 C220 1.373 . S
C221 C222 1.429 . S
C221 H248 0.932 . S
C222 C219 1.358 . S
C222 C221 1.429 . S
C222 H249 0.930 . S
C223 C219 1.332 . S
C223 C224 1.394 . S
C223 H250 0.932 . S
C224 C220 1.308 . S
C224 C223 1.394 . S
C224 H251 0.929 . S
C225 Tb216 2.764 . S
C225 C219 1.504 . S
C225 O237 1.239 . S
C225 O238 1.263 . S
O226 Tb216 2.325 . S
O226 C236 1.236 . S
O227 Tb217 2.322 1_455 S
O227 C236 1.257 . S
O228 Tb217 2.349 . S
O228 C239 1.261 . S
O229 Tb216 2.303 . S
O229 C239 1.257 1_455 S
O230 Tb217 2.415 1_554 S
O230 C246 1.239 . S
O231 Tb217 2.399 1_554 S
O231 C246 1.263 . S
O232 Tb217 2.325 . S
O232 C247 1.236 . S
O233 Tb216 2.322 1_655 S
O233 C247 1.257 . S
O234 Tb216 2.349 . S
O234 C218 1.261 . S
O235 Tb217 2.303 . S
O235 C218 1.257 1_655 S
C236 O226 1.236 . S
C236 O227 1.257 . S
O237 Tb216 2.415 . S
O237 C225 1.239 . S
O238 Tb216 2.399 . S
O238 C225 1.263 . S
C239 O228 1.261 . S
C239 O229 1.257 1_655 S
C240 C243 1.358 . S
C240 C244 1.332 . S
C240 C246 1.504 . S
C241 C242 1.373 . S
C241 C245 1.308 . S
C242 C241 1.373 . S
C242 C243 1.429 . S
C242 H252 0.932 . S
C243 C240 1.358 . S
C243 C242 1.429 . S
C243 H253 0.930 . S
C244 C240 1.332 . S
C244 C245 1.394 . S
C244 H254 0.932 . S
C245 C241 1.308 . S
C245 C244 1.394 . S
C245 H255 0.929 . S
C246 Tb217 2.764 1_554 S
C246 O230 1.239 . S
C246 O231 1.263 . S
C246 C240 1.504 . S
C247 O232 1.236 . S
C247 O233 1.257 . S
H248 C221 0.932 . S
H249 C222 0.930 . S
H250 C223 0.932 . S
H251 C224 0.929 . S
H252 C242 0.932 . S
H253 C243 0.930 . S
H254 C244 0.932 . S
H255 C245 0.929 . S
C256 C257 1.369 1_565 S
C256 C258 1.419 . S
C256 H260 0.930 . S
C257 C256 1.369 1_545 S
C257 C266 1.429 . S
C258 C256 1.419 . S
C258 C259 1.363 1_565 S
C258 H261 0.929 . S
C259 C258 1.363 1_545 S
C259 C265 1.428 . S
H260 C256 0.930 . S
H261 C258 0.929 . S
S262 N263 1.613 . S
S262 N264 1.610 . S
N263 S262 1.613 . S
N263 C266 1.350 . S
N264 S262 1.610 . S
N264 C265 1.351 . S
C265 C259 1.428 . S
C265 N264 1.351 . S
C265 C266 1.434 . S
C266 C257 1.429 . S
C266 N263 1.350 . S
C266 C265 1.434 . S
C267 C268 1.369 . S
C267 C269 1.419 . S
C267 H271 0.930 . S
C268 C267 1.369 . S
C268 C277 1.429 . S
C269 C267 1.419 . S
C269 C270 1.363 . S
C269 H272 0.929 . S
C270 C269 1.363 . S
C270 C276 1.428 . S
H271 C267 0.930 . S
H272 C269 0.929 . S
S273 N274 1.613 1_554 S
S273 N275 1.610 . S
N274 S273 1.613 1_556 S
N274 C277 1.350 . S
N275 S273 1.610 . S
N275 C276 1.349 1_554 S
C276 C270 1.428 . S
C276 N275 1.349 1_556 S
C276 C277 1.434 . S
C277 C268 1.429 . S
C277 N274 1.350 . S
C277 C276 1.434 . S
C278 C279 1.369 . S
C278 C280 1.419 . S
C278 H282 0.930 . S
C279 C278 1.369 . S
C279 C288 1.429 . S
C280 C278 1.419 . S
C280 C281 1.363 . S
C280 H283 0.929 . S
C281 C280 1.363 . S
C281 C287 1.428 . S
H282 C278 0.930 . S
H283 C280 0.929 . S
S284 N285 1.613 . S
S284 N286 1.610 . S
N285 S284 1.613 . S
N285 C288 1.350 . S
N286 S284 1.610 . S
N286 C287 1.351 . S
C287 C281 1.428 . S
C287 N286 1.351 . S
C287 C288 1.434 . S
C288 C279 1.429 . S
C288 N285 1.350 . S
C288 C287 1.434 . S
C289 C290 1.368 1_655 S
C289 C291 1.419 . S
C289 H293 0.930 . S
C290 C289 1.368 1_455 S
C290 C299 1.430 . S
C291 C289 1.419 . S
C291 C292 1.355 1_655 S
C291 H294 0.929 . S
C292 C291 1.355 1_455 S
C292 C298 1.436 . S
H293 C289 0.930 . S
H294 C291 0.929 . S
S295 N296 1.613 . S
S295 N297 1.610 . S
N296 S295 1.613 . S
N296 C299 1.350 . S
N297 S295 1.610 . S
N297 C298 1.351 . S
C298 C292 1.436 . S
C298 N297 1.351 . S
C298 C299 1.434 . S
C299 C290 1.430 . S
C299 N296 1.350 . S
C299 C298 1.434 . S
C300 C301 1.370 . S
C300 C302 1.419 . S
C300 H304 0.930 . S
C301 C300 1.370 . S
C301 C310 1.427 1_565 S
C302 C300 1.419 . S
C302 C303 1.363 . S
C302 H305 0.929 . S
C303 C302 1.363 . S
C303 C309 1.428 1_565 S
H304 C300 0.930 . S
H305 C302 0.929 . S
S306 N307 1.613 . S
S306 N308 1.610 . S
N307 S306 1.613 . S
N307 C310 1.350 . S
N308 S306 1.610 . S
N308 C309 1.351 . S
C309 C303 1.428 1_545 S
C309 N308 1.351 . S
C309 C310 1.434 . S
C310 C301 1.427 1_545 S
C310 N307 1.350 . S
C310 C309 1.434 . S
C311 C312 1.369 . S
C311 C313 1.419 . S
C311 H315 0.930 1_556 S
C312 C311 1.369 . S
C312 C321 1.429 . S
C313 C311 1.419 . S
C313 C314 1.363 . S
C313 H316 0.929 1_556 S
C314 C313 1.363 . S
C314 C320 1.428 . S
H315 C311 0.930 1_554 S
H316 C313 0.929 1_554 S
S317 N318 1.613 . S
S317 N319 1.610 . S
N318 S317 1.613 . S
N318 C321 1.350 . S
N319 S317 1.610 . S
N319 C320 1.351 . S
C320 C314 1.428 . S
C320 N319 1.351 . S
C320 C321 1.434 . S
C321 C312 1.429 . S
C321 N318 1.350 . S
C321 C320 1.434 . S
C322 C323 1.369 . S
C322 C324 1.419 . S
C322 H326 0.930 . S
C323 C322 1.369 . S
C323 C332 1.429 . S
C324 C322 1.419 . S
C324 C325 1.363 . S
C324 H327 0.929 . S
C325 C324 1.363 . S
C325 C331 1.428 . S
H326 C322 0.930 . S
H327 C324 0.929 . S
S328 N329 1.613 . S
S328 N330 1.610 . S
N329 S328 1.613 . S
N329 C332 1.350 . S
N330 S328 1.610 . S
N330 C331 1.351 . S
C331 C325 1.428 . S
C331 N330 1.351 . S
C331 C332 1.434 . S
C332 C323 1.429 . S
C332 N329 1.350 . S
C332 C331 1.434 . S
C333 C334 1.372 . S
C333 C335 1.419 . S
C333 H337 0.930 . S
C334 C333 1.372 . S
C334 C343 1.426 1_655 S
C335 C333 1.419 . S
C335 C336 1.374 . S
C335 H338 0.929 . S
C336 C335 1.374 . S
C336 C342 1.419 1_655 S
H337 C333 0.930 . S
H338 C335 0.929 . S
S339 N340 1.613 . S
S339 N341 1.610 . S
N340 S339 1.613 . S
N340 C343 1.350 . S
N341 S339 1.610 . S
N341 C342 1.351 . S
C342 C336 1.419 1_455 S
C342 N341 1.351 . S
C342 C343 1.434 . S
C343 C334 1.426 1_455 S
C343 N340 1.350 . S
C343 C342 1.434 . S
C344 C345 1.369 . S
C344 C346 1.419 . S
C344 H348 0.930 . S
C345 C344 1.369 . S
C345 C354 1.429 . S
C346 C344 1.419 . S
C346 C347 1.363 . S
C346 H349 0.929 . S
C347 C346 1.363 . S
C347 C353 1.428 . S
H348 C344 0.930 . S
H349 C346 0.929 . S
S350 N351 1.613 . S
S350 N352 1.610 . S
N351 S350 1.613 . S
N351 C354 1.350 . S
N352 S350 1.610 . S
N352 C353 1.351 . S
C353 C347 1.428 . S
C353 N352 1.351 . S
C353 C354 1.434 . S
C354 C345 1.429 . S
C354 N351 1.350 . S
C354 C353 1.434 . S
C355 C356 1.369 1_565 S
C355 C357 1.419 . S
C355 H359 0.930 . S
C356 C355 1.369 1_545 S
C356 C365 1.428 . S
C357 C355 1.419 . S
C357 C358 1.363 . S
C357 H360 0.929 . S
C358 C357 1.363 . S
C358 C364 1.428 . S
H359 C355 0.930 . S
H360 C357 0.929 . S
S361 N362 1.613 . S
S361 N363 1.610 1_545 S
N362 S361 1.613 . S
N362 C365 1.360 . S
N363 S361 1.610 1_565 S
N363 C364 1.351 . S
C364 C358 1.428 . S
C364 N363 1.351 . S
C364 C365 1.425 1_565 S
C365 C356 1.428 . S
C365 N362 1.360 . S
C365 C364 1.425 1_545 S
C366 C367 1.369 . S
C366 C368 1.419 . S
C366 H370 0.930 . S
C367 C366 1.369 . S
C367 C376 1.429 . S
C368 C366 1.419 . S
C368 C369 1.363 . S
C368 H371 0.929 . S
C369 C368 1.363 . S
C369 C375 1.428 . S
H370 C366 0.930 . S
H371 C368 0.929 . S
S372 N373 1.613 . S
S372 N374 1.610 . S
N373 S372 1.613 . S
N373 C376 1.350 . S
N374 S372 1.610 . S
N374 C375 1.351 . S
C375 C369 1.428 . S
C375 N374 1.351 . S
C375 C376 1.434 . S
C376 C367 1.429 . S
C376 N373 1.350 . S
C376 C375 1.434 . S
C377 C378 1.369 . S
C377 C379 1.419 . S
C377 H381 0.930 . S
C378 C377 1.369 . S
C378 C387 1.429 . S
C379 C377 1.419 . S
C379 C380 1.363 . S
C379 H382 0.929 . S
C380 C379 1.363 . S
C380 C386 1.428 . S
H381 C377 0.930 . S
H382 C379 0.929 . S
S383 N384 1.613 . S
S383 N385 1.610 . S
N384 S383 1.613 . S
N384 C387 1.350 . S
N385 S383 1.610 . S
N385 C386 1.351 . S
C386 C380 1.428 . S
C386 N385 1.351 . S
C386 C387 1.434 . S
C387 C378 1.429 . S
C387 N384 1.350 . S
C387 C386 1.434 . S
C388 C389 1.369 . S
C388 C390 1.419 . S
C388 H392 0.930 1_455 S
C389 C388 1.369 . S
C389 C398 1.429 . S
C390 C388 1.419 . S
C390 C391 1.363 . S
C390 H393 0.929 . S
C391 C390 1.363 . S
C391 C397 1.428 . S
H392 C388 0.930 1_655 S
H393 C390 0.929 . S
S394 N395 1.613 . S
S394 N396 1.610 . S
N395 S394 1.613 . S
N395 C398 1.350 . S
N396 S394 1.610 . S
N396 C397 1.351 . S
C397 C391 1.428 . S
C397 N396 1.351 . S
C397 C398 1.434 . S
C398 C389 1.429 . S
C398 N395 1.350 . S
C398 C397 1.434 . S
C399 C400 1.369 1_545 S
C399 C401 1.419 . S
C399 H403 0.930 1_545 S
C400 C399 1.369 1_565 S
C400 C409 1.429 1_565 S
C401 C399 1.419 . S
C401 C402 1.363 . S
C401 H404 0.929 . S
C402 C401 1.363 . S
C402 C408 1.428 . S
H403 C399 0.930 1_565 S
H404 C401 0.929 . S
S405 N406 1.613 . S
S405 N407 1.610 . S
N406 S405 1.613 . S
N406 C409 1.350 . S
N407 S405 1.610 . S
N407 C408 1.351 . S
C408 C402 1.428 . S
C408 N407 1.351 . S
C408 C409 1.434 . S
C409 C400 1.429 1_545 S
C409 N406 1.350 . S
C409 C408 1.434 . S
C410 C411 1.369 . S
C410 C412 1.419 . S
C410 H414 0.930 . S
C411 C410 1.369 . S
C411 C420 1.429 . S
C412 C410 1.419 . S
C412 C413 1.363 . S
C412 H415 0.929 . S
C413 C412 1.363 . S
C413 C419 1.428 . S
H414 C410 0.930 . S
H415 C412 0.929 . S
S416 N417 1.613 . S
S416 N418 1.610 . S
N417 S416 1.613 . S
N417 C420 1.350 . S
N418 S416 1.610 . S
N418 C419 1.351 . S
C419 C413 1.428 . S
C419 N418 1.351 . S
C419 C420 1.434 . S
C420 C411 1.429 . S
C420 N417 1.350 . S
C420 C419 1.434 . S
C421 C422 1.369 . S
C421 C423 1.419 . S
C421 H425 0.930 . S
C422 C421 1.369 . S
C422 C431 1.429 . S
C423 C421 1.419 . S
C423 C424 1.363 . S
C423 H426 0.929 . S
C424 C423 1.363 . S
C424 C430 1.428 . S
H425 C421 0.930 . S
H426 C423 0.929 . S
S427 N428 1.613 . S
S427 N429 1.610 . S
N428 S427 1.613 . S
N428 C431 1.350 . S
N429 S427 1.610 . S
N429 C430 1.351 . S
C430 C424 1.428 . S
C430 N429 1.351 . S
C430 C431 1.434 . S
C431 C422 1.429 . S
C431 N428 1.350 . S
C431 C430 1.434 . S
C432 C433 1.369 . S
C432 C434 1.419 . S
C432 H436 0.930 . S
C433 C432 1.369 . S
C433 C442 1.429 1_554 S
C434 C432 1.419 . S
C434 C435 1.363 . S
C434 H437 0.929 . S
C435 C434 1.363 . S
C435 C441 1.428 1_554 S
H436 C432 0.930 . S
H437 C434 0.929 . S
S438 N439 1.613 . S
S438 N440 1.610 1_655 S
N439 S438 1.613 . S
N439 C442 1.350 1_655 S
N440 S438 1.610 1_455 S
N440 C441 1.351 . S
C441 C435 1.428 1_556 S
C441 N440 1.351 . S
C441 C442 1.434 . S
C442 C433 1.429 1_556 S
C442 N439 1.350 1_455 S
C442 C441 1.434 . S
C443 C444 1.369 1_566 S
C443 C445 1.419 . S
C443 H447 0.930 . S
C444 C443 1.369 1_544 S
C444 C453 1.429 . S
C445 C443 1.419 . S
C445 C446 1.363 1_565 S
C445 H448 0.929 . S
C446 C445 1.363 1_545 S
C446 C452 1.428 1_556 S
H447 C443 0.930 . S
H448 C445 0.929 . S
S449 N450 1.613 . S
S449 N451 1.610 . S
N450 S449 1.613 . S
N450 C453 1.350 . S
N451 S449 1.610 . S
N451 C452 1.351 . S
C452 C446 1.428 1_554 S
C452 N451 1.351 . S
C452 C453 1.434 . S
C453 C444 1.429 . S
C453 N450 1.350 . S
C453 C452 1.434 . S
C454 C455 1.369 . S
C454 C456 1.419 . S
C454 H458 0.930 . S
C455 C454 1.369 . S
C455 C464 1.429 . S
C456 C454 1.419 . S
C456 C457 1.363 . S
C456 H459 0.929 . S
C457 C456 1.363 . S
C457 C463 1.428 . S
H458 C454 0.930 . S
H459 C456 0.929 . S
S460 N461 1.613 . S
S460 N462 1.610 . S
N461 S460 1.613 . S
N461 C464 1.350 . S
N462 S460 1.610 . S
N462 C463 1.351 . S
C463 C457 1.428 . S
C463 N462 1.351 . S
C463 C464 1.434 . S
C464 C455 1.429 . S
C464 N461 1.350 . S
C464 C463 1.434 . S
C465 C466 1.369 . S
C465 C467 1.419 . S
C465 H469 0.930 . S
C466 C465 1.369 . S
C466 C475 1.429 1_556 S
C467 C465 1.419 . S
C467 C468 1.363 . S
C467 H470 0.929 . S
C468 C467 1.363 . S
C468 C474 1.428 1_556 S
H469 C465 0.930 . S
H470 C467 0.929 . S
S471 N472 1.613 . S
S471 N473 1.610 . S
N472 S471 1.613 . S
N472 C475 1.350 . S
N473 S471 1.610 . S
N473 C474 1.351 . S
C474 C468 1.428 1_554 S
C474 N473 1.351 . S
C474 C475 1.434 . S
C475 C466 1.429 1_554 S
C475 N472 1.350 . S
C475 C474 1.434 . S
C476 C477 1.369 . S
C476 C478 1.419 . S
C476 H480 0.930 . S
C477 C476 1.369 . S
C477 C486 1.429 1_655 S
C478 C476 1.419 . S
C478 C479 1.363 . S
C478 H481 0.929 . S
C479 C478 1.363 . S
C479 C485 1.428 . S
H480 C476 0.930 . S
H481 C478 0.929 . S
S482 N483 1.613 1_554 S
S482 N484 1.610 1_554 S
N483 S482 1.613 1_556 S
N483 C486 1.350 . S
N484 S482 1.610 1_556 S
N484 C485 1.351 1_455 S
C485 C479 1.428 . S
C485 N484 1.351 1_655 S
C485 C486 1.434 1_655 S
C486 C477 1.429 1_455 S
C486 N483 1.350 . S
C486 C485 1.434 1_455 S
C487 C488 1.369 . S
C487 C489 1.419 . S
C487 H491 0.930 . S
C488 C487 1.369 . S
C488 C497 1.429 1_565 S
C489 C487 1.419 . S
C489 C490 1.363 . S
C489 H492 0.929 . S
C490 C489 1.363 . S
C490 C496 1.428 1_565 S
H491 C487 0.930 . S
H492 C489 0.929 . S
S493 N494 1.613 . S
S493 N495 1.610 . S
N494 S493 1.613 . S
N494 C497 1.350 . S
N495 S493 1.610 . S
N495 C496 1.351 . S
C496 C490 1.428 1_545 S
C496 N495 1.351 . S
C496 C497 1.434 . S
C497 C488 1.429 1_545 S
C497 N494 1.350 . S
C497 C496 1.434 . S
C498 C499 1.369 . S
C498 C500 1.419 . S
C498 H502 0.930 . S
C499 C498 1.369 . S
C499 C508 1.429 . S
C500 C498 1.419 . S
C500 C501 1.363 . S
C500 H503 0.929 . S
C501 C500 1.363 . S
C501 C507 1.428 . S
H502 C498 0.930 . S
H503 C500 0.929 . S
S504 N505 1.613 . S
S504 N506 1.610 . S
N505 S504 1.613 . S
N505 C508 1.350 . S
N506 S504 1.610 . S
N506 C507 1.351 . S
C507 C501 1.428 . S
C507 N506 1.351 . S
C507 C508 1.434 . S
C508 C499 1.429 . S
C508 N505 1.350 . S
C508 C507 1.434 . S
C509 C510 1.369 . S
C509 C511 1.419 . S
C509 H513 0.930 . S
C510 C509 1.369 . S
C510 C519 1.429 . S
C511 C509 1.419 . S
C511 C512 1.363 . S
C511 H514 0.929 . S
C512 C511 1.363 . S
C512 C518 1.428 . S
H513 C509 0.930 . S
H514 C511 0.929 . S
S515 N516 1.613 . S
S515 N517 1.610 . S
N516 S515 1.613 . S
N516 C519 1.350 . S
N517 S515 1.610 . S
N517 C518 1.351 . S
C518 C512 1.428 . S
C518 N517 1.351 . S
C518 C519 1.434 . S
C519 C510 1.429 . S
C519 N516 1.350 . S
C519 C518 1.434 . S
C257 C76 1.998 1_545 S
C259 C119 2.272 1_545 S
C270 C159 1.811 . S
C268 C88 1.795 . S
C281 C178 2.283 . S
C279 C52 1.998 . S
C292 C239 1.573 1_455 S
C290 C64 1.381 1_455 S
C303 C98 2.272 1_564 S
C301 C28 1.998 . S
C312 C40 1.809 . S
C314 C138 1.815 . S
C323 C4 2.014 . S
C325 C199 2.284 1_554 S
C334 C16 1.381 . S
C336 C218 1.574 1_654 S
C347 C100 1.133 . S
C345 C69 1.183 1_655 S
C358 C140 0.585 . S
C356 C81 0.552 . S
C369 C196 1.353 . S
C367 C93 1.191 . S
C378 C57 0.704 . S
C380 C220 0.684 . S
C389 C21 1.184 . S
C391 C121 1.138 . S
C402 C161 0.583 . S
C400 C33 0.581 1_565 S
C413 C207 1.346 . S
C411 C45 1.176 . S
C422 C9 0.689 . S
C424 C241 0.702 . S
C433 C66 1.644 . S
C435 C116 1.853 1_554 S
C444 C78 2.324 . S
C446 C156 2.593 . S
C457 C180 1.639 . S
C455 C90 1.654 . S
C468 C236 2.584 . S
C466 C54 2.321 1_556 S
C477 C18 1.656 1_655 S
C479 C127 1.862 . S
C490 C167 2.591 . S
C488 C30 2.327 1_565 S
C501 C201 1.640 . S
C499 C42 1.675 . S
C510 C6 2.315 . S
C512 C247 2.586 . S
