# Generated by pormake.
# Topology pth, (4,4)-cn, num edge types: 1
# Building blocks:
#     Node 0, Type 0, BuildingBlock: QUQFOY_clean_sbu_1, # of connection points: 4
#     Node 1, Type 0, BuildingBlock: QUQFOY_clean_sbu_1, # of connection points: 4
#     Node 2, Type 0, BuildingBlock: QUQFOY_clean_sbu_1, # of connection points: 4
#     Node 3, Type 1, BuildingBlock: MIFKUJ_clean_linker_1, # of connection points: 4
#     Node 4, Type 1, BuildingBlock: MIFKUJ_clean_linker_1, # of connection points: 4
#     Node 5, Type 1, BuildingBlock: MIFKUJ_clean_linker_1, # of connection points: 4
#     Edge 6, Type (0, 1), BuildingBlock: AJUNOK_clean_linker_0, # of connection points: 2
#     Edge 7, Type (0, 1), BuildingBlock: AJUNOK_clean_linker_0, # of connection points: 2
#     Edge 8, Type (0, 1), BuildingBlock: AJUNOK_clean_linker_0, # of connection points: 2
#     Edge 9, Type (0, 1), BuildingBlock: AJUNOK_clean_linker_0, # of connection points: 2
#     Edge 10, Type (0, 1), BuildingBlock: AJUNOK_clean_linker_0, # of connection points: 2
#     Edge 11, Type (0, 1), BuildingBlock: AJUNOK_clean_linker_0, # of connection points: 2
#     Edge 12, Type (0, 1), BuildingBlock: AJUNOK_clean_linker_0, # of connection points: 2
#     Edge 13, Type (0, 1), BuildingBlock: AJUNOK_clean_linker_0, # of connection points: 2
#     Edge 14, Type (0, 1), BuildingBlock: AJUNOK_clean_linker_0, # of connection points: 2
#     Edge 15, Type (0, 1), BuildingBlock: AJUNOK_clean_linker_0, # of connection points: 2
#     Edge 16, Type (0, 1), BuildingBlock: AJUNOK_clean_linker_0, # of connection points: 2
#     Edge 17, Type (0, 1), BuildingBlock: AJUNOK_clean_linker_0, # of connection points: 2
# Relax obj value: 0.029
# Max RMSD: 0.131
# Mean RMSD: 0.086
data_MOF--net-pth--node1-QUQFOY_clean_sbu_1--node2-MIFKUJ_clean_linker_1--edge1-AJUNOK_clean_linker_0
_symmetry_space_group_name_H-M    P1
_symmetry_Int_Tables_number       1
_symmetry_cell_setting            triclinic
loop_
_symmetry_equiv_pos_as_xyz
'x, y, z'
_cell_length_a     22.666383
_cell_length_b     24.119886
_cell_length_c     50.51666
_cell_angle_alpha  90.152585
_cell_angle_beta   89.829987
_cell_angle_gamma 120.26315
loop_
_atom_site_label
_atom_site_type_symbol
_atom_site_fract_x
_atom_site_fract_y
_atom_site_fract_z
_atom_type_partial_charge
O0 O 0.05554 0.10579 0.02402 0.0
Cd1 Cd 0.97006 0.0458 0.0458 0.0
Cd2 Cd 0.03559 0.97515 0.04483 0.0
O3 O 0.1137 0.05496 0.02646 0.0
O4 O 0.93382 0.10341 0.05467 0.0
O5 O 0.9734 0.06443 0.08486 0.0
C6 C 0.94999 0.10186 0.07898 0.0
C7 C 0.0551 0.91783 0.07749 0.0
C8 C 0.10871 0.1027 0.01903 0.0
C9 C 0.89715 0.91869 0.0187 0.0
O10 O 0.95135 0.91673 0.02256 0.0
O11 O 0.89172 0.96544 0.02743 0.0
O12 O 0.07195 0.91756 0.05314 0.0
O13 O 0.03113 0.95471 0.08375 0.0
O14 O 0.95246 0.05586 0.40423 0.0
Cd15 Cd 0.03275 0.0763 0.37914 0.0
Cd16 Cd 0.96889 0.94901 0.38051 0.0
O17 O 0.88647 0.95342 0.39504 0.0
O18 O 0.06668 0.16804 0.37086 0.0
O19 O 0.02288 0.09177 0.34054 0.0
C20 C 0.04659 0.15126 0.34685 0.0
C21 C 0.95733 0.87403 0.34839 0.0
C22 C 0.89562 1.00402 0.40656 0.0
C23 C 0.10227 0.02394 0.40948 0.0
O24 O 0.04554 0.97189 0.40756 0.0
O25 O 0.1137 0.07276 0.39599 0.0
O26 O 0.93561 0.85726 0.37227 0.0
O27 O 0.98315 0.93388 0.34228 0.0
O28 O 0.90014 0.9594 0.6885 0.0
Cd29 Cd 0.96379 0.94962 0.71485 0.0
Cd30 Cd 0.02955 0.07428 0.71169 0.0
O31 O 0.94036 0.06229 0.69581 0.0
O32 O 0.91024 0.86242 0.73067 0.0
O33 O 0.94342 0.95219 0.75342 0.0
C34 C 0.91051 0.89022 0.75254 0.0
C35 C 0.0903 0.14756 0.7453 0.0
C36 C 0.8965 1.00983 0.68507 0.0
C37 C 0.09339 1.00613 0.68577 0.0
O38 O 0.08893 0.0565 0.6862 0.0
O39 O 0.05214 0.95743 0.69929 0.0
O40 O 0.08873 0.1661 0.72153 0.0
O41 O 0.05368 0.08695 0.75042 0.0
H42 H 0.07574 0.46137 0.15669 0.0
H43 H 0.06009 0.371 0.12932 0.0
H44 H 0.88656 0.24134 0.17684 0.0
H45 H 0.90029 0.33187 0.20363 0.0
H46 H 0.00878 0.51584 0.16357 0.0
H47 H 0.08677 0.41799 0.22065 0.0
H48 H 0.09987 0.34125 0.24806 0.0
H49 H 0.92819 0.31126 0.29578 0.0
H50 H 0.9131 0.38602 0.26781 0.0
H51 H 0.88023 0.53917 0.25309 0.0
H52 H 0.86664 0.61578 0.28047 0.0
H53 H 0.07368 0.76241 0.26211 0.0
H54 H 0.08639 0.68568 0.23407 0.0
H55 H 0.98415 0.50425 0.26124 0.0
H56 H 0.91563 0.609 0.19133 0.0
H57 H 0.93448 0.70032 0.16378 0.0
H58 H 0.13797 0.73885 0.14545 0.0
H59 H 0.1182 0.64681 0.17232 0.0
C60 C 0.98962 0.40368 0.18244 0.0
C61 C 0.03418 0.41363 0.16125 0.0
C62 C 0.02544 0.36204 0.14569 0.0
C63 C 0.97248 0.29942 0.15119 0.0
C64 C 0.92836 0.28912 0.17251 0.0
C65 C 0.93642 0.34086 0.18783 0.0
C66 C 0.99686 0.45898 0.19829 0.0
C67 C 0.00423 0.51328 0.18497 0.0
C68 C 0.99311 0.45717 0.2263 0.0
C69 C -0.00144 0.4077 0.24198 0.0
C70 C 0.05078 0.39384 0.23659 0.0
C71 C 0.05852 0.35023 0.25227 0.0
C72 C 0.0152 0.32085 0.27397 0.0
C73 C 0.96241 0.33378 0.27918 0.0
C74 C 0.954 0.37662 0.26328 0.0
C75 C 0.98437 0.60668 0.24169 0.0
C76 C 0.92258 0.58792 0.25486 0.0
C77 C 0.915 0.63163 0.27057 0.0
C78 C 0.96954 0.69475 0.27382 0.0
C79 C 0.03079 0.71409 0.25995 0.0
C80 C 0.03819 0.67034 0.24402 0.0
C81 C 0.99239 0.55846 0.22633 0.0
C82 C 0.98854 0.50593 0.23984 0.0
C83 C 0.00357 0.56364 0.19873 0.0
C84 C 0.01537 0.62095 0.18366 0.0
C85 C 0.96439 0.63746 0.18149 0.0
C86 C 0.97531 0.6897 0.16586 0.0
C87 C 0.03732 0.72606 0.15215 0.0
C88 C 0.0891 0.71078 0.15525 0.0
C89 C 0.07798 0.65841 0.17065 0.0
H90 H 0.63329 0.10117 0.49677 0.0
H91 H 0.71444 0.09718 0.46604 0.0
H92 H 0.67043 0.91532 0.49917 0.0
H93 H 0.58699 0.91813 0.52922 0.0
H94 H 0.5033 0.02643 0.49785 0.0
H95 H 0.68026 0.08611 0.56044 0.0
H96 H 0.7666 0.08838 0.5901 0.0
H97 H 0.61451 0.90836 0.62436 0.0
H98 H 0.52884 0.905 0.59403 0.0
H99 H 0.32943 0.89632 0.58219 0.0
H100 H 0.24336 0.89493 0.61207 0.0
H101 H 0.34134 0.10148 0.60589 0.0
H102 H 0.42458 0.10173 0.57487 0.0
H103 H 0.48355 0.98448 0.5944 0.0
H104 H 0.31306 0.92211 0.52445 0.0
H105 H 0.23049 0.928 0.49542 0.0
H106 H 0.37675 0.12698 0.47889 0.0
H107 H 0.46042 0.1196 0.5071 0.0
C108 C 0.60418 1.01007 0.51537 0.0
C109 C 0.64116 0.06046 0.49748 0.0
C110 C 0.68761 0.05823 0.47998 0.0
C111 C 0.69797 1.00552 0.47998 0.0
C112 C 0.66232 0.95585 0.49836 0.0
C113 C 0.61553 0.95796 0.51583 0.0
C114 C 0.54966 1.0096 0.53181 0.0
C115 C 0.49997 0.01831 0.51906 0.0
C116 C 0.54402 0.99756 0.55939 0.0
C117 C 0.5981 0.99521 0.57492 0.0
C118 C 0.66581 0.04638 0.5739 0.0
C119 C 0.71484 0.04816 0.59113 0.0
C120 C 0.69681 0.99916 0.60985 0.0
C121 C 0.6297 0.94682 0.61016 0.0
C122 C 0.58077 0.94495 0.59289 0.0
C123 C 0.38279 0.99907 0.57634 0.0
C124 C 0.33156 0.94106 0.58708 0.0
C125 C 0.28315 0.94052 0.60443 0.0
C126 C 0.28642 0.99828 0.61184 0.0
C127 C 0.33726 0.05616 0.60054 0.0
C128 C 0.38483 0.05647 0.58284 0.0
C129 C 0.43797 1.00061 0.56028 0.0
C130 C 0.48762 0.99246 0.57317 0.0
C131 C 0.44451 0.01428 0.533 0.0
C132 C 0.39232 0.02063 0.51811 0.0
C133 C 0.32681 0.96727 0.51494 0.0
C134 C 0.27963 0.97088 0.49843 0.0
C135 C 0.29671 0.02833 0.48517 0.0
C136 C 0.36217 0.08208 0.48879 0.0
C137 C 0.40974 0.07811 0.50501 0.0
H138 H 0.4552 0.39678 0.83402 0.0
H139 H 0.36774 0.31784 0.80434 0.0
H140 H 0.21196 0.33259 0.84763 0.0
H141 H 0.29954 0.41353 0.8767 0.0
H142 H 0.49397 0.51563 0.83876 0.0
H143 H 0.43485 0.3544 0.90921 0.0
H144 H 0.36092 0.26683 0.93924 0.0
H145 H 0.25007 0.36464 0.95778 0.0
H146 H 0.32748 0.45386 0.92931 0.0
H147 H 0.52046 0.64656 0.93676 0.0
H148 H 0.60523 0.73037 0.9657 0.0
H149 H 0.76207 0.69966 0.93223 0.0
H150 H 0.67676 0.61427 0.90408 0.0
H151 H 0.48361 0.52034 0.93668 0.0
H152 H 0.60091 0.70091 0.8766 0.0
H153 H 0.69899 0.78258 0.85191 0.0
H154 H 0.71007 0.63315 0.8087 0.0
H155 H 0.61785 0.55241 0.83545 0.0
C156 C 0.38417 0.41098 0.85779 0.0
C157 C 0.40223 0.38276 0.83733 0.0
C158 C 0.35238 0.33764 0.82044 0.0
C159 C 0.28348 0.31953 0.82381 0.0
C160 C 0.2648 0.34556 0.84486 0.0
C161 C 0.31484 0.39143 0.86157 0.0
C162 C 0.43824 0.4646 0.87359 0.0
C163 C 0.49246 0.51632 0.86022 0.0
C164 C 0.43597 0.46606 0.90148 0.0
C165 C 0.38632 0.41026 0.91713 0.0
C166 C 0.39442 0.35664 0.91977 0.0
C167 C 0.35215 0.30672 0.9369 0.0
C168 C 0.30054 0.30934 0.95143 0.0
C169 C 0.29099 0.36217 0.94778 0.0
C170 C 0.33438 0.41274 0.93119 0.0
C171 C 0.5924 0.62444 0.91819 0.0
C172 C 0.57315 0.65792 0.93568 0.0
C173 C 0.62155 0.70594 0.95208 0.0
C174 C 0.68996 0.72096 0.9514 0.0
C175 C 0.70939 0.68818 0.93352 0.0
C176 C 0.66091 0.63993 0.91723 0.0
C177 C 0.53993 0.57138 0.90191 0.0
C178 C 0.48561 0.51988 0.91521 0.0
C179 C 0.54435 0.56926 0.87395 0.0
C180 C 0.60261 0.62013 0.85847 0.0
C181 C 0.62585 0.6857 0.86243 0.0
C182 C 0.68154 0.73249 0.848 0.0
C183 C 0.71394 0.71478 0.82869 0.0
C184 C 0.6889 0.64905 0.82418 0.0
C185 C 0.63479 0.6025 0.83913 0.0
C186 C 0.94474 0.20042 0.08932 0.0
C187 C 0.94873 0.1473 0.09853 0.0
C188 C 0.9517 0.24884 0.10658 0.0
C189 C 0.96179 0.24564 0.1338 0.0
H190 H 0.93851 0.20601 0.06842 0.0
H191 H 0.94978 0.28949 0.09852 0.0
S192 S 0.97214 0.11561 0.16847 0.0
N193 N 0.96107 0.09353 0.13704 0.0
N194 N 0.97286 0.18441 0.16954 0.0
C195 C 0.96343 0.19194 0.14354 0.0
C196 C 0.9573 0.14285 0.12589 0.0
C197 C 0.85874 0.05727 0.43979 0.0
C198 C 0.84258 1.0028 0.42426 0.0
C199 C 0.81178 0.05743 0.45773 0.0
C200 C 0.74657 1.00325 0.46092 0.0
H201 H 0.90855 0.10018 0.43843 0.0
H202 H 0.82706 0.10022 0.46948 0.0
S203 S 0.67661 0.84963 0.42409 0.0
N204 N 0.7553 0.89368 0.41272 0.0
N205 N 0.66659 0.8946 0.44629 0.0
C206 C 0.72903 0.94869 0.44533 0.0
C207 C 0.77705 0.94839 0.42702 0.0
C208 C 0.81537 0.86045 0.78434 0.0
C209 C 0.86834 0.85154 0.77493 0.0
C210 C 0.76697 0.81725 0.8024 0.0
C211 C 0.77061 0.76425 0.81208 0.0
H212 H 0.80907 0.89898 0.77657 0.0
H213 H 0.72473 0.82396 0.80783 0.0
S214 S 0.9076 0.72726 0.79662 0.0
N215 N 0.92595 0.79019 0.77804 0.0
N216 N 0.83811 0.7113 0.81338 0.0
C217 C 0.82662 0.75785 0.80409 0.0
C218 C 0.87466 0.80089 0.78516 0.0
C219 C 0.03544 0.87095 0.12324 0.0
C220 C 0.05738 0.87278 0.09696 0.0
C221 C 0.03001 0.82408 0.14114 0.0
C222 C 0.04656 0.77742 0.13347 0.0
H223 H 0.02088 0.90509 0.12995 0.0
H224 H 0.01227 0.82408 0.16107 0.0
S225 S 0.10578 0.76024 0.06701 0.0
N226 N 0.09627 0.82346 0.06437 0.0
N227 N 0.08485 0.73526 0.09781 0.0
C228 C 0.06945 0.77919 0.10742 0.0
C229 C 0.0752 0.82687 0.08924 0.0
C230 C 0.22198 0.05829 0.4231 0.0
C231 C 0.15212 0.02831 0.42922 0.0
C232 C 0.26879 0.05917 0.44149 0.0
C233 C 0.24731 0.03109 0.46673 0.0
H234 H 0.24019 0.07935 0.40374 0.0
H235 H 0.32182 0.08046 0.43562 0.0
S236 S 0.07098 0.95573 0.49354 0.0
N237 N 0.06434 0.97505 0.46281 0.0
N238 N 0.15245 0.97909 0.49771 0.0
C239 C 0.17793 1.00394 0.47342 0.0
C240 C 0.13031 1.00199 0.45458 0.0
C241 C 0.13078 0.17566 0.79232 0.0
C242 C 0.13661 0.19382 0.7655 0.0
C243 C 0.17748 0.21705 0.81134 0.0
C244 C 0.23223 0.27741 0.80407 0.0
H245 H 0.0903 0.12889 0.79864 0.0
H246 H 0.17178 0.20116 0.83171 0.0
S247 S 0.26937 0.34946 0.73709 0.0
N248 N 0.2007 0.2781 0.73312 0.0
N249 N 0.28846 0.35473 0.76884 0.0
C250 C 0.23802 0.2967 0.77758 0.0
C251 C 0.19019 0.25522 0.7583 0.0
C252 C 0.80303 0.95217 0.65194 0.0
C253 C 0.84383 1.00784 0.66704 0.0
C254 C 0.75571 0.94979 0.63355 0.0
C255 C 0.74728 1.00297 0.62947 0.0
H256 H 0.80827 0.91016 0.65397 0.0
H257 H 0.7262 0.90625 0.62214 0.0
S258 S 0.83701 0.15851 0.66519 0.0
N259 N 0.86986 0.11657 0.67743 0.0
N260 N 0.78025 0.11154 0.64302 0.0
C261 C 0.78645 0.05846 0.64475 0.0
C262 C 0.83476 0.06101 0.6635 0.0
C263 C 0.79565 0.87796 0.98869 0.0
C264 C 0.84136 0.86654 1.00319 0.0
C265 C 0.74626 0.83045 0.97216 0.0
C266 C 0.74074 0.76986 0.96967 0.0
H267 H 0.79931 0.92448 0.98949 0.0
H268 H 0.71323 0.84172 0.96078 0.0
S269 S 0.84197 0.71295 1.00614 0.0
N270 N 0.8739 0.78819 0.01571 0.0
N271 N 0.78059 0.699 0.985 0.0
C272 C 0.78423 0.75702 0.98489 0.0
C273 C 0.8346 0.8053 1.00157 0.0
C274 C 0.97977 0.84525 0.30305 0.0
C275 C 0.95622 0.82663 0.32917 0.0
C276 C 0.9835 0.80238 0.28516 0.0
C277 C 0.9636 0.73919 0.29268 0.0
H278 H 0.99625 0.89357 0.29639 0.0
H279 H 0.00207 0.81881 0.26528 0.0
S280 S 0.90042 0.66672 0.35888 0.0
N281 N 0.91333 0.7402 0.3616 0.0
N282 N 0.92146 0.66061 0.32817 0.0
C283 C 0.93982 0.71986 0.31866 0.0
C284 C 0.93582 0.76327 0.33684 0.0
C285 C 0.16221 0.03961 0.64432 0.0
C286 C 0.14323 1.00322 0.66775 0.0
C287 C 0.20777 0.03705 0.62632 0.0
C288 C 0.23707 0.9987 0.63118 0.0
H289 H 0.14069 0.06955 0.63954 0.0
H290 H 0.21961 0.06497 0.6083 0.0
S291 S 0.20809 0.898 0.69074 0.0
N292 N 0.15858 0.92917 0.69536 0.0
N293 N 0.24662 0.92619 0.66203 0.0
C294 C 0.21937 0.96279 0.6548 0.0
C295 C 0.17195 0.96464 0.67296 0.0
C296 C 0.18528 0.14203 0.97961 0.0
C297 C 0.16382 0.155 1.00375 0.0
C298 C 0.23048 0.1922 0.96298 0.0
C299 C 0.25646 0.25696 0.97017 0.0
H300 H 0.16459 0.09291 0.97299 0.0
H301 H 0.24324 0.18005 0.94399 0.0
S302 S 0.223 0.31489 0.03355 0.0
N303 N 0.17521 0.23596 0.03517 0.0
N304 N 0.26318 0.33043 1.00482 0.0
C305 C 0.23809 0.27007 0.9951 0.0
C306 C 0.19101 0.21902 1.01166 0.0
C307 C 0.03112 0.1819 0.30092 0.0
C308 C 0.04499 0.19762 0.32795 0.0
C309 C 0.02313 0.22266 0.28329 0.0
C310 C 0.02747 0.27984 0.29222 0.0
H311 H 0.02544 0.1374 0.29336 0.0
H312 H 0.01168 0.20858 0.26272 0.0
S313 S 0.06604 0.3451 0.36043 0.0
N314 N 0.06562 0.27659 0.36231 0.0
N315 N 0.04946 0.35192 0.32921 0.0
C316 C 0.04273 0.29687 0.31893 0.0
C317 C 0.05184 0.25612 0.33678 0.0
loop_
_geom_bond_atom_site_label_1
_geom_bond_atom_site_label_2
_geom_bond_distance
_geom_bond_site_symmetry_2
_ccdc_geom_bond_type
O0 Cd1 2.223 1_456 S
O0 C8 1.316 1_556 S
Cd1 O0 2.223 1_654 S
Cd1 O4 2.297 . S
Cd1 O5 2.439 . S
Cd1 O11 2.240 1_545 S
Cd2 O3 2.240 1_565 S
Cd2 O10 2.223 1_454 S
Cd2 O12 2.297 . S
Cd2 O13 2.439 . S
O3 Cd2 2.240 1_545 S
O3 C8 1.277 . S
O4 Cd1 2.297 . S
O4 C6 1.247 . S
O5 Cd1 2.439 . S
O5 C6 1.208 . S
C6 O4 1.247 . S
C6 O5 1.208 . S
C7 O12 1.247 . S
C7 O13 1.208 . S
C8 O0 1.316 1_554 S
C8 O3 1.277 . S
C9 O10 1.316 1_554 S
C9 O11 1.276 . S
O10 Cd2 2.223 1_656 S
O10 C9 1.316 1_556 S
O11 Cd1 2.240 1_565 S
O11 C9 1.276 . S
O12 Cd2 2.297 . S
O12 C7 1.247 . S
O13 Cd2 2.439 . S
O13 C7 1.208 . S
O14 Cd15 2.223 1_655 S
O14 C22 1.315 . S
Cd15 O14 2.223 1_455 S
Cd15 O18 2.297 . S
Cd15 O19 2.439 . S
Cd15 O25 2.240 . S
Cd16 O17 2.240 . S
Cd16 O24 2.223 1_655 S
Cd16 O26 2.297 . S
Cd16 O27 2.439 . S
O17 Cd16 2.240 . S
O17 C22 1.279 1_565 S
O18 Cd15 2.297 . S
O18 C20 1.247 . S
O19 Cd15 2.439 . S
O19 C20 1.208 . S
C20 O18 1.247 . S
C20 O19 1.208 . S
C21 O26 1.247 . S
C21 O27 1.208 . S
C22 O14 1.315 . S
C22 O17 1.279 1_545 S
C23 O24 1.315 . S
C23 O25 1.279 1_565 S
O24 Cd16 2.223 1_455 S
O24 C23 1.315 . S
O25 Cd15 2.240 . S
O25 C23 1.279 1_545 S
O26 Cd16 2.297 . S
O26 C21 1.247 . S
O27 Cd16 2.439 . S
O27 C21 1.208 . S
O28 Cd29 2.223 . S
O28 C36 1.315 . S
Cd29 O28 2.223 . S
Cd29 O32 2.297 . S
Cd29 O33 2.439 . S
Cd29 O39 2.240 1_655 S
Cd30 O31 2.240 1_455 S
Cd30 O38 2.223 . S
Cd30 O40 2.297 . S
Cd30 O41 2.439 . S
O31 Cd30 2.240 1_655 S
O31 C36 1.279 1_545 S
O32 Cd29 2.297 . S
O32 C34 1.247 . S
O33 Cd29 2.439 . S
O33 C34 1.208 . S
C34 O32 1.247 . S
C34 O33 1.208 . S
C35 O40 1.247 . S
C35 O41 1.208 . S
C36 O28 1.315 . S
C36 O31 1.279 1_565 S
C37 O38 1.315 . S
C37 O39 1.279 1_545 S
O38 Cd30 2.223 . S
O38 C37 1.315 . S
O39 Cd29 2.240 1_455 S
O39 C37 1.279 1_565 S
O40 Cd30 2.297 . S
O40 C35 1.247 . S
O41 Cd30 2.439 . S
O41 C35 1.208 . S
H42 C61 0.949 . S
H43 C62 0.950 . S
H44 C64 0.950 . S
H45 C65 0.950 . S
H46 C67 0.950 . S
H47 C70 0.950 . S
H48 C71 0.950 . S
H49 C73 0.951 . S
H50 C74 0.949 . S
H51 C76 0.949 . S
H52 C77 0.950 . S
H53 C79 0.950 . S
H54 C80 0.950 . S
H55 C82 0.950 . S
H56 C85 0.950 . S
H57 C86 0.950 . S
H58 C88 0.951 . S
H59 C89 0.949 . S
C60 C61 1.376 . S
C60 C65 1.386 1_455 S
C60 C66 1.483 . S
C61 H42 0.949 . S
C61 C60 1.376 . S
C61 C62 1.397 . S
C62 H43 0.950 . S
C62 C61 1.397 . S
C62 C63 1.391 . S
C63 C62 1.391 . S
C63 C64 1.405 1_455 S
C64 H44 0.950 . S
C64 C63 1.405 1_655 S
C64 C65 1.367 . S
C65 H45 0.950 . S
C65 C60 1.386 1_655 S
C65 C64 1.367 . S
C66 C60 1.483 . S
C66 C67 1.382 . S
C66 C68 1.403 1_455 S
C67 H46 0.950 . S
C67 C66 1.382 . S
C67 C83 1.411 . S
C68 C66 1.403 1_655 S
C68 C69 1.489 . S
C68 C82 1.411 . S
C69 C68 1.489 . S
C69 C70 1.383 1_655 S
C69 C74 1.382 . S
C70 H47 0.950 . S
C70 C69 1.383 1_455 S
C70 C71 1.395 . S
C71 H48 0.950 . S
C71 C70 1.395 . S
C71 C72 1.288 1_455 S
C72 C71 1.288 1_655 S
C72 C73 1.392 . S
C73 H49 0.951 . S
C73 C72 1.392 . S
C73 C74 1.392 . S
C74 H50 0.949 . S
C74 C69 1.382 . S
C74 C73 1.392 . S
C75 C76 1.376 . S
C75 C80 1.386 1_655 S
C75 C81 1.483 . S
C76 H51 0.949 . S
C76 C75 1.376 . S
C76 C77 1.397 . S
C77 H52 0.950 . S
C77 C76 1.397 . S
C77 C78 1.391 . S
C78 C77 1.391 . S
C78 C79 1.405 1_655 S
C79 H53 0.950 . S
C79 C78 1.405 1_455 S
C79 C80 1.367 . S
C80 H54 0.950 . S
C80 C75 1.386 1_455 S
C80 C79 1.367 . S
C81 C75 1.483 . S
C81 C82 1.382 . S
C81 C83 1.403 1_655 S
C82 H55 0.950 . S
C82 C68 1.411 . S
C82 C81 1.382 . S
C83 C67 1.411 . S
C83 C81 1.403 1_455 S
C83 C84 1.489 . S
C84 C83 1.489 . S
C84 C85 1.383 1_455 S
C84 C89 1.382 . S
C85 H56 0.950 . S
C85 C84 1.383 1_655 S
C85 C86 1.395 . S
C86 H57 0.950 . S
C86 C85 1.395 . S
C86 C87 1.288 1_655 S
C87 C86 1.288 1_455 S
C87 C88 1.392 . S
C88 H58 0.951 . S
C88 C87 1.392 . S
C88 C89 1.392 . S
C89 H59 0.949 . S
C89 C84 1.382 . S
C89 C88 1.392 . S
H90 C109 0.949 . S
H91 C110 0.950 . S
H92 C112 0.950 . S
H93 C113 0.950 . S
H94 C115 0.950 . S
H95 C118 0.950 . S
H96 C119 0.950 . S
H97 C121 0.951 . S
H98 C122 0.949 . S
H99 C124 0.949 . S
H100 C125 0.950 . S
H101 C127 0.950 . S
H102 C128 0.950 . S
H103 C130 0.950 . S
H104 C133 0.950 . S
H105 C134 0.950 . S
H106 C136 0.951 . S
H107 C137 0.949 . S
C108 C109 1.376 . S
C108 C113 1.386 1_545 S
C108 C114 1.483 . S
C109 H90 0.949 . S
C109 C108 1.376 . S
C109 C110 1.397 . S
C110 H91 0.950 . S
C110 C109 1.397 . S
C110 C111 1.391 . S
C111 C110 1.391 . S
C111 C112 1.405 1_545 S
C112 H92 0.950 . S
C112 C111 1.405 1_565 S
C112 C113 1.367 . S
C113 H93 0.950 . S
C113 C108 1.386 1_565 S
C113 C112 1.367 . S
C114 C108 1.483 . S
C114 C115 1.382 . S
C114 C116 1.403 1_545 S
C115 H94 0.950 . S
C115 C114 1.382 . S
C115 C131 1.411 . S
C116 C114 1.403 1_565 S
C116 C117 1.489 . S
C116 C130 1.411 . S
C117 C116 1.489 . S
C117 C118 1.383 1_565 S
C117 C122 1.382 . S
C118 H95 0.950 . S
C118 C117 1.383 1_545 S
C118 C119 1.395 . S
C119 H96 0.950 . S
C119 C118 1.395 . S
C119 C120 1.288 1_545 S
C120 C119 1.288 1_565 S
C120 C121 1.392 . S
C121 H97 0.951 . S
C121 C120 1.392 . S
C121 C122 1.392 . S
C122 H98 0.949 . S
C122 C117 1.382 . S
C122 C121 1.392 . S
C123 C124 1.376 . S
C123 C128 1.386 1_565 S
C123 C129 1.483 . S
C124 H99 0.949 . S
C124 C123 1.376 . S
C124 C125 1.397 . S
C125 H100 0.950 . S
C125 C124 1.397 . S
C125 C126 1.391 . S
C126 C125 1.391 . S
C126 C127 1.405 1_565 S
C127 H101 0.950 . S
C127 C126 1.405 1_545 S
C127 C128 1.367 . S
C128 H102 0.950 . S
C128 C123 1.386 1_545 S
C128 C127 1.367 . S
C129 C123 1.483 . S
C129 C130 1.382 . S
C129 C131 1.403 1_565 S
C130 H103 0.950 . S
C130 C116 1.411 . S
C130 C129 1.382 . S
C131 C115 1.411 . S
C131 C129 1.403 1_545 S
C131 C132 1.489 . S
C132 C131 1.489 . S
C132 C133 1.383 1_545 S
C132 C137 1.382 . S
C133 H104 0.950 . S
C133 C132 1.383 1_565 S
C133 C134 1.395 . S
C134 H105 0.950 . S
C134 C133 1.395 . S
C134 C135 1.288 1_565 S
C135 C134 1.288 1_545 S
C135 C136 1.392 . S
C136 H106 0.951 . S
C136 C135 1.392 . S
C136 C137 1.392 . S
C137 H107 0.949 . S
C137 C132 1.382 . S
C137 C136 1.392 . S
H138 C157 0.949 . S
H139 C158 0.950 . S
H140 C160 0.950 . S
H141 C161 0.950 . S
H142 C163 0.950 . S
H143 C166 0.950 . S
H144 C167 0.950 . S
H145 C169 0.951 . S
H146 C170 0.949 . S
H147 C172 0.949 . S
H148 C173 0.950 . S
H149 C175 0.950 . S
H150 C176 0.950 . S
H151 C178 0.950 . S
H152 C181 0.950 . S
H153 C182 0.950 . S
H154 C184 0.951 . S
H155 C185 0.949 . S
C156 C157 1.376 . S
C156 C161 1.386 . S
C156 C162 1.483 . S
C157 H138 0.949 . S
C157 C156 1.376 . S
C157 C158 1.397 . S
C158 H139 0.950 . S
C158 C157 1.397 . S
C158 C159 1.391 . S
C159 C158 1.391 . S
C159 C160 1.405 . S
C160 H140 0.950 . S
C160 C159 1.405 . S
C160 C161 1.367 . S
C161 H141 0.950 . S
C161 C156 1.386 . S
C161 C160 1.367 . S
C162 C156 1.483 . S
C162 C163 1.382 . S
C162 C164 1.403 . S
C163 H142 0.950 . S
C163 C162 1.382 . S
C163 C179 1.411 . S
C164 C162 1.403 . S
C164 C165 1.489 . S
C164 C178 1.411 . S
C165 C164 1.489 . S
C165 C166 1.383 . S
C165 C170 1.382 . S
C166 H143 0.950 . S
C166 C165 1.383 . S
C166 C167 1.395 . S
C167 H144 0.950 . S
C167 C166 1.395 . S
C167 C168 1.288 . S
C168 C167 1.288 . S
C168 C169 1.392 . S
C169 H145 0.951 . S
C169 C168 1.392 . S
C169 C170 1.392 . S
C170 H146 0.949 . S
C170 C165 1.382 . S
C170 C169 1.392 . S
C171 C172 1.376 . S
C171 C176 1.386 . S
C171 C177 1.483 . S
C172 H147 0.949 . S
C172 C171 1.376 . S
C172 C173 1.397 . S
C173 H148 0.950 . S
C173 C172 1.397 . S
C173 C174 1.391 . S
C174 C173 1.391 . S
C174 C175 1.405 . S
C175 H149 0.950 . S
C175 C174 1.405 . S
C175 C176 1.367 . S
C176 H150 0.950 . S
C176 C171 1.386 . S
C176 C175 1.367 . S
C177 C171 1.483 . S
C177 C178 1.382 . S
C177 C179 1.403 . S
C178 H151 0.950 . S
C178 C164 1.411 . S
C178 C177 1.382 . S
C179 C163 1.411 . S
C179 C177 1.403 . S
C179 C180 1.489 . S
C180 C179 1.489 . S
C180 C181 1.383 . S
C180 C185 1.382 . S
C181 H152 0.950 . S
C181 C180 1.383 . S
C181 C182 1.395 . S
C182 H153 0.950 . S
C182 C181 1.395 . S
C182 C183 1.288 . S
C183 C182 1.288 . S
C183 C184 1.392 . S
C184 H154 0.951 . S
C184 C183 1.392 . S
C184 C185 1.392 . S
C185 H155 0.949 . S
C185 C180 1.382 . S
C185 C184 1.392 . S
C186 C187 1.374 . S
C186 C188 1.413 . S
C186 H190 0.929 . S
C187 C186 1.374 . S
C187 C196 1.429 1_455 S
C188 C186 1.413 . S
C188 C189 1.363 . S
C188 H191 0.926 1_455 S
C189 C188 1.363 . S
C189 C195 1.438 1_455 S
H190 C186 0.929 . S
H191 C188 0.926 1_655 S
S192 N193 1.613 . S
S192 N194 1.610 . S
N193 S192 1.613 . S
N193 C196 1.350 . S
N194 S192 1.610 . S
N194 C195 1.350 . S
C195 C189 1.438 1_655 S
C195 N194 1.350 . S
C195 C196 1.428 . S
C196 C187 1.429 1_655 S
C196 N193 1.350 . S
C196 C195 1.428 . S
C197 C198 1.369 . S
C197 C199 1.419 . S
C197 H201 0.930 . S
C198 C197 1.369 . S
C198 C207 1.429 1_545 S
C199 C197 1.419 . S
C199 C200 1.363 . S
C199 H202 0.929 . S
C200 C199 1.363 . S
C200 C206 1.428 1_545 S
H201 C197 0.930 . S
H202 C199 0.929 . S
S203 N204 1.613 . S
S203 N205 1.610 . S
N204 S203 1.613 . S
N204 C207 1.350 . S
N205 S203 1.610 . S
N205 C206 1.351 . S
C206 C200 1.428 1_565 S
C206 N205 1.351 . S
C206 C207 1.434 . S
C207 C198 1.429 1_565 S
C207 N204 1.350 . S
C207 C206 1.434 . S
C208 C209 1.369 . S
C208 C210 1.419 . S
C208 H212 0.930 . S
C209 C208 1.369 . S
C209 C218 1.429 . S
C210 C208 1.419 . S
C210 C211 1.363 . S
C210 H213 0.929 . S
C211 C210 1.363 . S
C211 C217 1.428 . S
H212 C208 0.930 . S
H213 C210 0.929 . S
S214 N215 1.613 . S
S214 N216 1.610 . S
N215 S214 1.613 . S
N215 C218 1.350 . S
N216 S214 1.610 . S
N216 C217 1.351 . S
C217 C211 1.428 . S
C217 N216 1.351 . S
C217 C218 1.434 . S
C218 C209 1.429 . S
C218 N215 1.350 . S
C218 C217 1.434 . S
C219 C220 1.367 1_455 S
C219 C221 1.419 . S
C219 H223 0.930 . S
C220 C219 1.367 1_655 S
C220 C229 1.429 . S
C221 C219 1.419 . S
C221 C222 1.363 1_455 S
C221 H224 0.929 . S
C222 C221 1.363 1_655 S
C222 C228 1.428 . S
H223 C219 0.930 . S
H224 C221 0.929 . S
S225 N226 1.613 . S
S225 N227 1.610 . S
N226 S225 1.613 . S
N226 C229 1.350 . S
N227 S225 1.610 . S
N227 C228 1.351 . S
C228 C222 1.428 . S
C228 N227 1.351 . S
C228 C229 1.434 . S
C229 C220 1.429 . S
C229 N226 1.350 . S
C229 C228 1.434 . S
C230 C231 1.369 . S
C230 C232 1.421 1_565 S
C230 H234 0.930 . S
C231 C230 1.369 . S
C231 C240 1.429 . S
C232 C230 1.421 1_545 S
C232 C233 1.363 1_545 S
C232 H235 0.926 . S
C233 C232 1.363 1_565 S
C233 C239 1.428 . S
H234 C230 0.930 . S
H235 C232 0.926 . S
S236 N237 1.614 1_545 S
S236 N238 1.610 . S
N237 S236 1.614 1_565 S
N237 C240 1.352 . S
N238 S236 1.610 . S
N238 C239 1.351 1_545 S
C239 C233 1.428 . S
C239 N238 1.351 1_565 S
C239 C240 1.434 . S
C240 C231 1.429 . S
C240 N237 1.352 . S
C240 C239 1.434 . S
C241 C242 1.369 . S
C241 C243 1.419 . S
C241 H245 0.930 . S
C242 C241 1.369 . S
C242 C251 1.429 . S
C243 C241 1.419 . S
C243 C244 1.363 . S
C243 H246 0.929 . S
C244 C243 1.363 . S
C244 C250 1.428 . S
H245 C241 0.930 . S
H246 C243 0.929 . S
S247 N248 1.613 . S
S247 N249 1.610 . S
N248 S247 1.613 . S
N248 C251 1.350 . S
N249 S247 1.610 . S
N249 C250 1.351 . S
C250 C244 1.428 . S
C250 N249 1.351 . S
C250 C251 1.434 . S
C251 C242 1.429 . S
C251 N248 1.350 . S
C251 C250 1.434 . S
C252 C253 1.369 . S
C252 C254 1.419 . S
C252 H256 0.930 . S
C253 C252 1.369 . S
C253 C262 1.429 1_565 S
C254 C252 1.419 . S
C254 C255 1.380 . S
C254 H257 0.929 . S
C255 C254 1.380 . S
C255 C261 1.419 1_565 S
H256 C252 0.930 . S
H257 C254 0.929 . S
S258 N259 1.613 . S
S258 N260 1.610 . S
N259 S258 1.613 . S
N259 C262 1.350 . S
N260 S258 1.610 . S
N260 C261 1.351 . S
C261 C255 1.419 1_545 S
C261 N260 1.351 . S
C261 C262 1.434 . S
C262 C253 1.429 1_545 S
C262 N259 1.350 . S
C262 C261 1.434 . S
C263 C264 1.369 . S
C263 C265 1.419 . S
C263 H267 0.930 . S
C264 C263 1.369 . S
C264 C273 1.429 . S
C265 C263 1.419 . S
C265 C266 1.363 . S
C265 H268 0.929 . S
C266 C265 1.363 . S
C266 C272 1.428 . S
H267 C263 0.930 . S
H268 C265 0.929 . S
S269 N270 1.613 . S
S269 N271 1.610 . S
N270 S269 1.613 . S
N270 C273 1.350 . S
N271 S269 1.610 . S
N271 C272 1.351 . S
C272 C266 1.428 . S
C272 N271 1.351 . S
C272 C273 1.434 . S
C273 C264 1.429 . S
C273 N270 1.350 . S
C273 C272 1.434 . S
C274 C275 1.369 . S
C274 C276 1.419 . S
C274 H278 0.930 . S
C275 C274 1.369 . S
C275 C284 1.429 1_455 S
C276 C274 1.419 . S
C276 C277 1.363 . S
C276 H279 0.929 . S
C277 C276 1.363 . S
C277 C283 1.428 1_455 S
H278 C274 0.930 . S
H279 C276 0.929 . S
S280 N281 1.613 . S
S280 N282 1.610 . S
N281 S280 1.613 . S
N281 C284 1.350 . S
N282 S280 1.610 . S
N282 C283 1.351 . S
C283 C277 1.428 1_655 S
C283 N282 1.351 . S
C283 C284 1.434 . S
C284 C275 1.429 1_655 S
C284 N281 1.350 . S
C284 C283 1.434 . S
C285 C286 1.369 . S
C285 C287 1.419 . S
C285 H289 0.930 . S
C286 C285 1.369 . S
C286 C295 1.429 . S
C287 C285 1.419 . S
C287 C288 1.363 . S
C287 H290 0.928 . S
C288 C287 1.363 . S
C288 C294 1.428 . S
H289 C285 0.930 . S
H290 C287 0.928 . S
S291 N292 1.613 . S
S291 N293 1.610 . S
N292 S291 1.613 . S
N292 C295 1.350 . S
N293 S291 1.610 . S
N293 C294 1.351 . S
C294 C288 1.428 . S
C294 N293 1.351 . S
C294 C295 1.434 . S
C295 C286 1.429 . S
C295 N292 1.350 . S
C295 C294 1.434 . S
C296 C297 1.369 . S
C296 C298 1.419 . S
C296 H300 0.930 . S
C297 C296 1.369 . S
C297 C306 1.429 . S
C298 C296 1.419 . S
C298 C299 1.363 . S
C298 H301 0.929 . S
C299 C298 1.363 . S
C299 C305 1.428 . S
H300 C296 0.930 . S
H301 C298 0.929 . S
S302 N303 1.613 . S
S302 N304 1.610 1_554 S
N303 S302 1.613 . S
N303 C306 1.350 1_554 S
N304 S302 1.610 1_556 S
N304 C305 1.351 . S
C305 C299 1.428 . S
C305 N304 1.351 . S
C305 C306 1.434 . S
C306 C297 1.429 . S
C306 N303 1.350 1_556 S
C306 C305 1.434 . S
C307 C308 1.369 1_455 S
C307 C309 1.419 . S
C307 H311 0.930 . S
C308 C307 1.369 1_655 S
C308 C317 1.429 . S
C309 C307 1.419 . S
C309 C310 1.352 1_455 S
C309 H312 0.929 . S
C310 C309 1.352 1_655 S
C310 C316 1.432 . S
H311 C307 0.930 . S
H312 C309 0.929 . S
S313 N314 1.613 . S
S313 N315 1.610 . S
N314 S313 1.613 . S
N314 C317 1.350 . S
N315 S313 1.610 . S
N315 C316 1.351 . S
C316 C310 1.432 . S
C316 N315 1.351 . S
C316 C317 1.434 . S
C317 C308 1.429 . S
C317 N314 1.350 . S
C317 C316 1.434 . S
C189 C63 1.493 . S
C187 C6 1.478 1_455 S
C198 C22 1.589 . S
C200 C111 1.611 . S
C209 C34 1.297 . S
C211 C183 1.314 . S
C220 C7 1.476 1_655 S
C222 C87 1.490 1_655 S
C233 C135 1.606 1_565 S
C231 C23 1.590 . S
C242 C35 1.298 . S
C244 C159 1.319 . S
C255 C120 1.595 . S
C253 C36 1.595 . S
C264 C9 1.773 1_556 S
C266 C174 1.811 . S
C277 C78 1.493 1_455 S
C275 C21 1.464 1_455 S
C288 C126 1.612 1_545 S
C286 C37 1.593 . S
C299 C168 1.807 . S
C297 C8 1.770 1_556 S
C308 C20 1.466 1_655 S
C310 C72 1.492 . S
