# Generated by pormake.
# Topology ftw, (4,12)-cn, num edge types: 1
# Building blocks:
#     Node 0, Type 0, BuildingBlock: NAWXER_clean_linker_0, # of connection points: 4
#     Node 1, Type 0, BuildingBlock: NAWXER_clean_linker_0, # of connection points: 4
#     Node 2, Type 0, BuildingBlock: NAWXER_clean_linker_0, # of connection points: 4
#     Node 3, Type 1, BuildingBlock: EZIPEK_clean_sbu_0, # of connection points: 12
#     Edge 4, Type (0, 1), BuildingBlock: XIVTED_clean_linker_0, # of connection points: 2
#     Edge 5, Type (0, 1), BuildingBlock: XIVTED_clean_linker_0, # of connection points: 2
#     Edge 6, Type (0, 1), BuildingBlock: XIVTED_clean_linker_0, # of connection points: 2
#     Edge 7, Type (0, 1), BuildingBlock: XIVTED_clean_linker_0, # of connection points: 2
#     Edge 8, Type (0, 1), BuildingBlock: XIVTED_clean_linker_0, # of connection points: 2
#     Edge 9, Type (0, 1), BuildingBlock: XIVTED_clean_linker_0, # of connection points: 2
#     Edge 10, Type (0, 1), BuildingBlock: XIVTED_clean_linker_0, # of connection points: 2
#     Edge 11, Type (0, 1), BuildingBlock: XIVTED_clean_linker_0, # of connection points: 2
#     Edge 12, Type (0, 1), BuildingBlock: XIVTED_clean_linker_0, # of connection points: 2
#     Edge 13, Type (0, 1), BuildingBlock: XIVTED_clean_linker_0, # of connection points: 2
#     Edge 14, Type (0, 1), BuildingBlock: XIVTED_clean_linker_0, # of connection points: 2
#     Edge 15, Type (0, 1), BuildingBlock: XIVTED_clean_linker_0, # of connection points: 2
# Relax obj value: 0.032
# Max RMSD: 0.131
# Mean RMSD: 0.100
data_MOF--net-ftw--node1-EZIPEK_clean_sbu_0--node2-NAWXER_clean_linker_0--edge1-XIVTED_clean_linker_0
_symmetry_space_group_name_H-M    P1
_symmetry_Int_Tables_number       1
_symmetry_cell_setting            triclinic
loop_
_symmetry_equiv_pos_as_xyz
'x, y, z'
_cell_length_a     28.29697
_cell_length_b     28.917758
_cell_length_c     28.470248
_cell_angle_alpha  90.126289
_cell_angle_beta   90.1879
_cell_angle_gamma 89.967829
loop_
_atom_site_label
_atom_site_type_symbol
_atom_site_fract_x
_atom_site_fract_y
_atom_site_fract_z
_atom_type_partial_charge
C0 C 0.01568 0.66717 0.59501 0.0
C1 C 0.97601 0.67501 0.62358 0.0
C2 C 0.0154 0.63155 0.56153 0.0
C3 C 0.97575 0.60271 0.55671 0.0
C4 C 0.93574 0.64726 0.61734 0.0
C5 C 0.93589 0.61104 0.5847 0.0
C6 C 0.97805 0.56015 0.52782 0.0
C7 C 0.96035 0.6725 0.41756 0.0
C8 C -0.0059 0.67256 0.38132 0.0
C9 C 0.95999 0.63721 0.45128 0.0
C10 C -0.00626 0.60152 0.44978 0.0
C11 C 0.02873 0.63769 0.38092 0.0
C12 C 0.02843 0.6026 0.41459 0.0
C13 C -0.01063 0.55957 0.47956 0.0
C14 C 0.95604 0.36419 0.41838 0.0
C15 C -0.00947 0.36251 0.38285 0.0
C16 C 0.95635 0.39984 0.45191 0.0
C17 C -0.0085 0.43417 0.45088 0.0
C18 C 0.02654 0.39597 0.38305 0.0
C19 C 0.02689 0.43137 0.4165 0.0
C20 C -0.01173 0.47658 0.48026 0.0
C21 C 0.00786 0.36488 0.59109 0.0
C22 C 0.97376 0.36415 0.62701 0.0
C23 C 0.00794 0.4003 0.5575 0.0
C24 C 0.97352 0.43538 0.55875 0.0
C25 C 0.93862 0.39853 0.62726 0.0
C26 C 0.93863 0.43373 0.5937 0.0
C27 C 0.9771 0.47721 0.52869 0.0
H28 H 0.04713 0.68817 0.59909 0.0
H29 H 0.04688 0.62521 0.54093 0.0
H30 H 0.90485 0.65233 0.63913 0.0
H31 H 0.90518 0.5888 0.582 0.0
H32 H 0.93281 0.6985 0.41862 0.0
H33 H 0.93179 0.63664 0.47687 0.0
H34 H 0.05574 0.63706 0.35406 0.0
H35 H 0.05474 0.57545 0.41237 0.0
H36 H 0.92754 0.33923 0.41899 0.0
H37 H 0.92782 0.40175 0.47709 0.0
H38 H 0.05413 0.39528 0.35679 0.0
H39 H 0.05431 0.45746 0.41471 0.0
H40 H 0.03577 0.33927 0.59016 0.0
H41 H 0.03622 0.40135 0.532 0.0
H42 H 0.91136 0.39865 0.65388 0.0
H43 H 0.91183 0.46043 0.59573 0.0
N44 N 0.97233 0.51904 0.55022 0.0
N45 N -0.00601 0.51779 0.45802 0.0
C46 C 0.55913 0.03242 0.66595 0.0
C47 C 0.59829 1.00241 0.66434 0.0
C48 C 0.52755 0.03483 0.62828 0.0
C49 C 0.53339 1.00598 0.58896 0.0
C50 C 0.60316 0.97267 0.62551 0.0
C51 C 0.57092 0.97425 0.58851 0.0
C52 C 0.50528 1.01249 0.54558 0.0
C53 C 0.38797 0.97968 0.64855 0.0
C54 C 0.35953 0.01825 0.65847 0.0
C55 C 0.42155 0.98188 0.61283 0.0
C56 C 0.42646 0.02245 0.58638 0.0
C57 C 0.36556 0.0592 0.63286 0.0
C58 C 0.39841 0.06108 0.59662 0.0
C59 C 0.45671 0.02311 0.5447 0.0
C60 C 0.39415 0.99365 0.35089 0.0
C61 C 0.36505 0.03242 0.34415 0.0
C62 C 0.4269 0.99301 0.3876 0.0
C63 C 0.43045 0.03094 0.41818 0.0
C64 C 0.37016 0.07112 0.37353 0.0
C65 C 0.40228 0.07013 0.41072 0.0
C66 C 0.45873 0.02752 0.46129 0.0
C67 C 0.5652 0.0439 0.34529 0.0
C68 C 0.60265 1.01184 0.34511 0.0
C69 C 0.53323 0.04515 0.3825 0.0
C70 C 0.53704 1.01326 0.41947 0.0
C71 C 0.60598 0.97975 0.38201 0.0
C72 C 0.57339 0.98028 0.41849 0.0
C73 C 0.50725 1.01667 0.46188 0.0
H74 H 0.55363 0.05528 0.69559 0.0
H75 H 0.50018 0.06093 0.6292 0.0
H76 H 0.63315 0.94965 0.6223 0.0
H77 H 0.57654 0.95184 0.55848 0.0
H78 H 0.38377 0.94782 0.66803 0.0
H79 H 0.44243 0.95149 0.60473 0.0
H80 H 0.34362 0.08917 0.63975 0.0
H81 H 0.40147 0.09242 0.57606 0.0
H82 H 0.39067 0.9635 0.3285 0.0
H83 H 0.44786 0.96218 0.39342 0.0
H84 H 0.3477 0.10117 0.36914 0.0
H85 H 0.40432 0.09944 0.43442 0.0
H86 H 0.56106 0.0688 0.31724 0.0
H87 H 0.50682 0.07221 0.383 0.0
H88 H 0.6348 0.95521 0.38394 0.0
H89 H 0.5775 0.95559 0.4468 0.0
N90 N 0.52849 1.00975 0.50406 0.0
N91 N 0.43537 0.03044 0.50267 0.0
C92 C 0.40002 0.36061 0.98316 0.0
C93 C 0.36073 0.36194 0.01349 0.0
C94 C 0.43236 0.39722 0.98191 0.0
C95 C 0.42732 0.43535 0.01221 0.0
C96 C 0.3561 0.40009 0.04394 0.0
C97 C 0.38906 0.43598 0.04351 0.0
C98 C 0.45727 0.4774 0.00795 0.0
C99 C 0.56935 0.3666 0.03262 0.0
C100 C 0.60404 0.36355 0.99741 0.0
C101 C 0.53588 0.40233 0.03194 0.0
C102 C 0.53615 0.43521 0.99567 0.0
C103 C 0.60321 0.39573 0.96051 0.0
C104 C 0.5698 0.4312 0.95978 0.0
C105 C 0.50617 0.47716 0.9976 0.0
C106 C 0.56721 0.67347 0.02279 0.0
C107 C 0.60298 0.67402 0.98856 0.0
C108 C 0.5339 0.6377 0.02369 0.0
C109 C 0.53539 0.6021 0.99003 0.0
C110 C 0.6033 0.63924 0.95401 0.0
C111 C 0.57002 0.60364 0.95487 0.0
C112 C 0.50606 0.55993 0.99486 0.0
C113 C 0.39113 0.66762 0.96844 0.0
C114 C 0.36267 0.67575 0.00798 0.0
C115 C 0.42412 0.63152 0.96851 0.0
C116 C 0.42849 0.60261 0.00784 0.0
C117 C 0.3684 0.64782 0.04789 0.0
C118 C 0.40058 0.61117 0.04755 0.0
C119 C 0.45752 0.56022 0.00573 0.0
H120 H 0.40552 0.33172 0.95959 0.0
H121 H 0.46017 0.39621 0.95594 0.0
H122 H 0.32605 0.40343 0.0671 0.0
H123 H 0.3837 0.46513 0.06688 0.0
H124 H 0.56936 0.34259 0.06177 0.0
H125 H 0.51113 0.40532 0.06072 0.0
H126 H 0.62892 0.39391 0.93246 0.0
H127 H 0.5709 0.45625 0.93155 0.0
H128 H 0.56634 0.69942 0.05026 0.0
H129 H 0.50867 0.63669 0.05218 0.0
H130 H 0.62989 0.63904 0.92673 0.0
H131 H 0.57213 0.57649 0.92866 0.0
H132 H 0.38734 0.68877 0.9373 0.0
H133 H 0.44476 0.62498 0.93721 0.0
H134 H 0.3466 0.65317 0.07863 0.0
H135 H 0.40307 0.58889 0.07802 0.0
N136 N 0.43522 0.51908 0.01177 0.0
N137 N 0.52825 0.51842 0.99127 0.0
C138 C -0.01738 0.12992 0.88908 0.0
C139 C 0.98154 0.12941 0.1189 0.0
C140 C 0.98154 0.90558 0.88839 0.0
C141 C -0.01654 0.90515 0.11783 0.0
C142 C 0.09788 0.90642 0.00477 0.0
C143 C 0.09711 0.12969 0.00359 0.0
C144 C 0.86748 0.90623 1.00222 0.0
C145 C 0.86732 0.12975 0.00423 0.0
C146 C 0.86844 0.01823 0.11616 0.0
C147 C 0.09687 0.02161 0.11658 0.0
C148 C 0.86798 0.01822 0.89052 0.0
C149 C 0.09684 1.01697 0.89096 0.0
Eu150 Eu -0.0177 0.1063 0.00391 0.0
O151 O 0.02378 0.05912 0.04552 0.0
O152 O 0.94087 0.0594 0.96161 0.0
Eu153 Eu 0.07073 1.01805 0.0037 0.0
Eu154 Eu 0.89421 1.01807 0.00341 0.0
O155 O 0.02375 0.05937 0.9619 0.0
O156 O 0.94105 0.0592 0.04554 0.0
Eu157 Eu -0.01761 1.01765 0.91448 0.0
Eu158 Eu -0.0174 1.01732 0.09244 0.0
O159 O 0.0242 0.97619 0.96159 0.0
O160 O 0.02431 0.976 0.04523 0.0
O161 O 0.94101 0.97597 0.04493 0.0
O162 O 0.94108 0.97636 0.96176 0.0
Eu163 Eu -0.01723 0.92905 1.00311 0.0
O164 O -0.0175 0.14452 0.93378 0.0
O165 O 0.98201 0.1442 0.07435 0.0
O166 O -0.01662 0.89079 0.93289 0.0
O167 O -0.01664 0.89057 0.07313 0.0
O168 O 0.11126 0.95064 0.00653 0.0
O169 O 0.11086 0.08564 1.00111 0.0
O170 O 0.85404 0.95048 1.003 0.0
O171 O 0.85382 0.08556 0.00414 0.0
O172 O 0.91297 1.01564 0.13136 0.0
O173 O 0.05241 0.01832 0.13167 0.0
O174 O 0.9125 1.01631 0.87538 0.0
O175 O 0.05225 1.01609 0.87555 0.0
O176 O 0.91222 0.89124 1.002 0.0
O177 O 0.05331 0.89127 1.00234 0.0
O178 O 0.91207 0.14456 0.0039 0.0
O179 O 0.05246 0.14455 0.00609 0.0
O180 O 0.98142 0.08517 0.13233 0.0
O181 O -0.0167 0.94932 0.13163 0.0
O182 O -0.01736 0.08573 0.87524 0.0
O183 O 0.98042 0.94972 0.87477 0.0
O184 O 0.11056 1.01774 0.93569 0.0
O185 O 0.11059 0.02264 0.07194 0.0
O186 O 0.85416 0.01994 0.93511 0.0
O187 O 0.8544 0.02019 0.07157 0.0
H188 H 0.96866 0.2699 0.3888 0.0
H189 H -0.0067 0.22378 0.11169 0.0
H190 H 0.00598 0.37554 0.28877 0.0
H191 H 0.96954 0.11583 0.21356 0.0
H192 H -0.00564 0.28048 0.17558 0.0
H193 H 0.96489 0.21357 0.32452 0.0
C194 C 0.97591 0.28131 0.35334 0.0
C195 C -0.01204 0.32753 0.34433 0.0
C196 C -0.01112 0.24436 0.1839 0.0
C197 C -0.01617 0.26314 0.27044 0.0
C198 C -0.01184 0.21191 0.14736 0.0
C199 C 0.98142 0.16475 0.15702 0.0
C200 C -0.01737 0.22973 0.23054 0.0
C201 C 0.97508 0.15166 0.20417 0.0
C202 C 0.97397 0.24908 0.31665 0.0
C203 C -0.00265 0.34016 0.2976 0.0
N204 N 0.97583 0.18389 0.23902 0.0
N205 N -0.00495 0.30824 0.26252 0.0
H206 H 0.63782 0.0882 0.29945 0.0
H207 H 0.86238 0.96632 0.19563 0.0
H208 H 0.65349 0.93957 0.30741 0.0
H209 H 0.78945 0.07123 0.1158 0.0
H210 H 0.79578 0.96453 0.25095 0.0
H211 H 0.70261 0.09047 0.24318 0.0
C212 C 0.65425 0.05596 0.28913 0.0
C213 C 0.63992 1.01356 0.30852 0.0
C214 C 0.79469 0.98797 0.22133 0.0
C215 C 0.71538 1.01662 0.24589 0.0
C216 C 0.83257 0.98926 0.19019 0.0
C217 C 0.83092 0.01885 0.15138 0.0
C218 C 0.75594 1.01738 0.214 0.0
C219 C 0.7916 0.04775 0.14533 0.0
C220 C 0.69153 0.05749 0.25737 0.0
C221 C 0.66381 0.9732 0.29444 0.0
N222 N 0.75562 0.0466 0.17664 0.0
N223 N 0.70079 0.97579 0.26437 0.0
H224 H 0.97542 0.76581 0.38764 0.0
H225 H -0.00592 0.81054 0.11 0.0
H226 H 0.0075 0.65871 0.28686 0.0
H227 H 0.97397 0.91886 0.21276 0.0
H228 H -0.00393 0.75389 0.17375 0.0
H229 H 0.97156 0.82187 0.32347 0.0
C230 C 0.98152 0.75402 0.35204 0.0
C231 C -0.00796 0.70743 0.3428 0.0
C232 C -0.00878 0.79009 0.18228 0.0
C233 C -0.01218 0.77158 0.26895 0.0
C234 C -0.01002 0.82251 0.14583 0.0
C235 C -0.01601 0.86977 0.15577 0.0
C236 C -0.01377 0.80488 0.2291 0.0
C237 C 0.97892 0.88297 0.2031 0.0
C238 C 0.97953 0.78611 0.31538 0.0
C239 C 5e-05 0.69435 0.29587 0.0
N240 N 0.98015 0.8508 0.23783 0.0
N241 N -0.00229 0.72617 0.2608 0.0
H242 H 0.34571 0.09563 0.27575 0.0
H243 H 0.09886 0.98385 0.2046 0.0
H244 H 0.29682 0.96706 0.3347 0.0
H245 H 0.18061 0.06661 0.10848 0.0
H246 H 0.16478 0.98686 0.26083 0.0
H247 H 0.27862 0.09453 0.22088 0.0
C248 C 0.32087 0.06715 0.27687 0.0
C249 C 0.32669 0.03117 0.30921 0.0
C250 C 0.16806 1.00434 0.22739 0.0
C251 C 0.25005 0.03013 0.24782 0.0
C252 C 0.13051 1.00289 0.19557 0.0
C253 C 0.13464 0.02475 0.15191 0.0
C254 C 0.20933 0.02857 0.21561 0.0
C255 C 0.17635 0.04884 0.14165 0.0
C256 C 0.2828 0.0665 0.24572 0.0
C257 C 0.29367 0.99506 0.3097 0.0
N258 N 0.2121 0.05028 0.1734 0.0
N259 N 0.25643 0.99558 0.27959 0.0
H260 H 0.91222 0.74413 0.64065 0.0
H261 H 0.02034 0.81839 0.88825 0.0
H262 H 0.04196 0.68533 0.69325 0.0
H263 H 0.94023 0.91282 0.80195 0.0
H264 H 0.01978 0.76225 0.82324 0.0
H265 H 0.91323 0.80005 0.70571 0.0
C266 C 0.94093 0.74312 0.66589 0.0
C267 C 0.97722 0.71035 0.66149 0.0
C268 C 0.00235 0.7953 0.8187 0.0
C269 C 0.97812 0.7734 0.73632 0.0
C270 C 0.00239 0.82717 0.85581 0.0
C271 C 0.98041 0.87038 0.85045 0.0
C272 C 0.97925 0.80633 0.7764 0.0
C273 C 0.95792 0.88007 0.8075 0.0
C274 C 0.94155 0.775 0.70287 0.0
C275 C 0.01362 0.71042 0.69516 0.0
N276 N 0.95762 0.84822 0.7723 0.0
N277 N 0.01296 0.74119 0.73142 0.0
H278 H 0.28905 0.9544 0.66418 0.0
H279 H 0.18381 0.05503 0.90124 0.0
H280 H 0.34458 0.07633 0.73214 0.0
H281 H 0.09685 0.98029 0.80198 0.0
H282 H 0.24852 0.05392 0.84505 0.0
H283 H 0.22353 0.95367 0.72059 0.0
C284 C 0.28757 0.98066 0.69134 0.0
C285 C 0.32197 1.01545 0.69389 0.0
C286 C 0.21524 0.0379 0.8355 0.0
C287 C 0.24785 1.01486 0.7578 0.0
C288 C 0.17836 0.03835 0.86754 0.0
C289 C 0.13499 1.01769 0.85611 0.0
C290 C 0.20899 1.01601 0.792 0.0
C291 C 0.12972 0.99685 0.8119 0.0
C292 C 0.25015 0.98047 0.72307 0.0
C293 C 0.31851 0.04907 0.72915 0.0
N294 N 0.16658 0.99618 0.7814 0.0
N295 N 0.28212 0.04784 0.75997 0.0
H296 H -0.00648 0.27113 0.62018 0.0
H297 H 0.97191 0.22443 0.89723 0.0
H298 H 0.95929 0.37717 0.7214 0.0
H299 H -0.00698 0.11663 0.79411 0.0
H300 H 0.97055 0.2814 0.83383 0.0
H301 H -0.00297 0.21457 0.68397 0.0
C302 C -0.01311 0.28258 0.6558 0.0
C303 C 0.97584 0.32902 0.66528 0.0
C304 C 0.97549 0.24525 0.82513 0.0
C305 C 0.97967 0.26431 0.73866 0.0
C306 C 0.97639 0.21264 0.86139 0.0
C307 C -0.01751 0.16543 0.85126 0.0
C308 C 0.98094 0.23074 0.77828 0.0
C309 C -0.01201 0.15248 0.8039 0.0
C310 C -0.01132 0.25021 0.69222 0.0
C311 C 0.96717 0.34166 0.71221 0.0
N312 N -0.01289 0.18485 0.76934 0.0
N313 N 0.96932 0.30959 0.74704 0.0
H314 H 0.62897 0.07865 0.71366 0.0
H315 H 0.86314 0.96671 0.81031 0.0
H316 H 0.65505 0.93201 0.69764 0.0
H317 H 0.78676 0.06789 0.89184 0.0
H318 H 0.79567 0.96198 0.75578 0.0
H319 H 0.69471 0.08295 0.76889 0.0
C320 C 0.64784 0.04716 0.72206 0.0
C321 C 0.63605 1.00479 0.70071 0.0
C322 C 0.794 0.98527 0.78559 0.0
C323 C 0.71277 1.01037 0.76227 0.0
C324 C 0.83242 0.98829 0.81626 0.0
C325 C 0.83012 1.01769 0.85534 0.0
C326 C 0.75395 1.01274 0.79368 0.0
C327 C 0.78954 0.04466 0.86208 0.0
C328 C 0.68571 0.0499 0.75324 0.0
C329 C 0.6632 0.96563 0.71227 0.0
N330 N 0.75302 0.04182 0.83128 0.0
N331 N 0.70068 0.96947 0.74191 0.0
H332 H 0.33156 0.30919 0.93758 0.0
H333 H 0.10026 0.21043 0.05363 0.0
H334 H 0.3035 0.33056 0.08534 0.0
H335 H 0.18007 0.12817 0.95525 0.0
H336 H 0.16583 0.26617 0.05676 0.0
H337 H 0.26824 0.25203 0.93517 0.0
C338 C 0.31275 0.30178 0.96971 0.0
C339 C 0.32343 0.32527 0.01181 0.0
C340 C 0.16876 0.23591 0.03447 0.0
C341 C 0.24924 0.26105 0.00829 0.0
C342 C 0.13138 0.20439 0.03239 0.0
C343 C 0.13495 0.16475 0.00418 0.0
C344 C 0.20924 0.22824 0.00716 0.0
C345 C 0.17615 0.15824 0.97764 0.0
C346 C 0.27623 0.26936 0.96803 0.0
C347 C 0.29626 0.31455 0.05173 0.0
N348 N 0.21159 0.18991 0.97941 0.0
N349 N 0.26015 0.28366 0.04885 0.0
H350 H 0.34691 0.74502 0.07151 0.0
H351 H 0.09791 0.81974 0.96549 0.0
H352 H 0.29273 0.68664 0.9427 0.0
H353 H 0.18489 0.91388 0.04571 0.0
H354 H 0.16324 0.76377 0.96544 0.0
H355 H 0.28194 0.80137 0.07101 0.0
C356 C 0.32136 0.74425 0.04309 0.0
C357 C 0.32518 0.71147 0.00694 0.0
C358 C 0.16787 0.79673 0.983 0.0
C359 C 0.2506 0.77489 0.00661 0.0
C360 C 0.13059 0.82848 0.98333 0.0
C361 C 0.13608 0.87152 0.00554 0.0
C362 C 0.21045 0.80776 0.00592 0.0
C363 C 0.1793 0.88123 0.02785 0.0
C364 C 0.28446 0.77634 0.04276 0.0
C365 C 0.29121 0.71176 0.97092 0.0
N366 N 0.21472 0.84948 0.02776 0.0
N367 N 0.25503 0.74274 0.97185 0.0
H368 H 0.59737 0.27157 0.02077 0.0
H369 H 0.87509 0.22386 0.99252 0.0
H370 H 0.69829 0.37591 0.98052 0.0
H371 H 0.77224 0.11626 0.017 0.0
H372 H 0.81125 0.28076 0.99231 0.0
H373 H 0.66158 0.2148 0.02414 0.0
C374 C 0.63303 0.28256 0.01281 0.0
C375 C 0.64239 0.32848 1.00003 0.0
C376 C 0.80269 0.24468 0.99773 0.0
C377 C 0.71603 0.26376 0.00369 0.0
C378 C 0.83919 0.21212 0.99796 0.0
C379 C 0.82919 0.16503 0.00463 0.0
C380 C 0.75579 0.2302 0.00444 0.0
C381 C 0.78181 0.15206 0.01143 0.0
C382 C 0.66964 0.25012 0.01451 0.0
C383 C 0.68928 0.34072 0.98976 0.0
N384 N 0.74696 0.18442 0.01117 0.0
N385 N 0.72428 0.30862 0.99184 0.0
H386 H 0.59597 0.76715 0.00691 0.0
H387 H 0.87517 0.81189 0.99102 0.0
H388 H 0.69777 0.6605 0.97506 0.0
H389 H 0.772 0.92037 0.01079 0.0
H390 H 0.81096 0.75547 0.98787 0.0
H391 H 0.66039 0.82345 0.01128 0.0
C392 C 0.63185 0.75556 1.0009 0.0
C393 C 0.6414 0.70906 0.99037 0.0
C394 C 0.80243 0.79165 0.9929 0.0
C395 C 0.71537 0.77332 0.99523 0.0
C396 C 0.83914 0.82394 0.99482 0.0
C397 C 0.82919 0.87113 1.0011 0.0
C398 C 0.75537 0.80653 0.99747 0.0
C399 C 0.78161 0.88448 0.00571 0.0
C400 C 0.66862 0.78774 1.00321 0.0
C401 C 0.68861 0.69611 0.98252 0.0
N402 N 0.7466 0.8524 0.00382 0.0
N403 N 0.72377 0.728 0.9852 0.0
loop_
_geom_bond_atom_site_label_1
_geom_bond_atom_site_label_2
_geom_bond_distance
_geom_bond_site_symmetry_2
_ccdc_geom_bond_type
C0 C1 1.384 1_455 S
C0 C2 1.384 . S
C0 H28 0.931 . S
C1 C0 1.384 1_655 S
C1 C4 1.382 . S
C2 C0 1.384 . S
C2 C3 1.381 1_455 S
C2 H29 0.930 . S
C3 C2 1.381 1_655 S
C3 C5 1.381 . S
C3 C6 1.487 . S
C4 C1 1.382 . S
C4 C5 1.387 . S
C4 H30 0.930 . S
C5 C3 1.381 . S
C5 C4 1.387 . S
C5 H31 0.931 . S
C6 C3 1.487 . S
C6 C13 1.399 1_655 S
C6 N44 1.343 . S
C7 C8 1.384 1_655 S
C7 C9 1.384 . S
C7 H32 0.931 . S
C8 C7 1.384 1_455 S
C8 C11 1.382 . S
C9 C7 1.384 . S
C9 C10 1.381 1_655 S
C9 H33 0.930 . S
C10 C9 1.381 1_455 S
C10 C12 1.381 . S
C10 C13 1.487 . S
C11 C8 1.382 . S
C11 C12 1.387 . S
C11 H34 0.930 . S
C12 C10 1.381 . S
C12 C11 1.387 . S
C12 H35 0.931 . S
C13 C6 1.399 1_455 S
C13 C10 1.487 . S
C13 N45 1.343 . S
C14 C15 1.384 1_655 S
C14 C16 1.384 . S
C14 H36 0.931 . S
C15 C14 1.384 1_455 S
C15 C18 1.382 . S
C16 C14 1.384 . S
C16 C17 1.381 1_655 S
C16 H37 0.930 . S
C17 C16 1.381 1_455 S
C17 C19 1.381 . S
C17 C20 1.487 . S
C18 C15 1.382 . S
C18 C19 1.387 . S
C18 H38 0.930 . S
C19 C17 1.381 . S
C19 C18 1.387 . S
C19 H39 0.931 . S
C20 C17 1.487 . S
C20 C27 1.399 1_455 S
C20 N45 1.343 . S
C21 C22 1.384 1_455 S
C21 C23 1.384 . S
C21 H40 0.931 . S
C22 C21 1.384 1_655 S
C22 C25 1.382 . S
C23 C21 1.384 . S
C23 C24 1.381 1_455 S
C23 H41 0.930 . S
C24 C23 1.381 1_655 S
C24 C26 1.381 . S
C24 C27 1.487 . S
C25 C22 1.382 . S
C25 C26 1.387 . S
C25 H42 0.930 . S
C26 C24 1.381 . S
C26 C25 1.387 . S
C26 H43 0.931 . S
C27 C20 1.399 1_655 S
C27 C24 1.487 . S
C27 N44 1.343 . S
H28 C0 0.931 . S
H29 C2 0.930 . S
H30 C4 0.930 . S
H31 C5 0.931 . S
H32 C7 0.931 . S
H33 C9 0.930 . S
H34 C11 0.930 . S
H35 C12 0.931 . S
H36 C14 0.931 . S
H37 C16 0.930 . S
H38 C18 0.930 . S
H39 C19 0.931 . S
H40 C21 0.931 . S
H41 C23 0.930 . S
H42 C25 0.930 . S
H43 C26 0.931 . S
N44 C6 1.343 . S
N44 C27 1.343 . S
N45 C13 1.343 . S
N45 C20 1.343 . S
C46 C47 1.384 1_545 S
C46 C48 1.384 . S
C46 H74 0.931 . S
C47 C46 1.384 1_565 S
C47 C50 1.382 . S
C48 C46 1.384 . S
C48 C49 1.381 1_545 S
C48 H75 0.930 . S
C49 C48 1.381 1_565 S
C49 C51 1.381 . S
C49 C52 1.487 . S
C50 C47 1.382 . S
C50 C51 1.387 . S
C50 H76 0.930 . S
C51 C49 1.381 . S
C51 C50 1.387 . S
C51 H77 0.931 . S
C52 C49 1.487 . S
C52 C59 1.399 1_565 S
C52 N90 1.343 . S
C53 C54 1.384 1_565 S
C53 C55 1.384 . S
C53 H78 0.931 . S
C54 C53 1.384 1_545 S
C54 C57 1.382 . S
C55 C53 1.384 . S
C55 C56 1.381 1_565 S
C55 H79 0.930 . S
C56 C55 1.381 1_545 S
C56 C58 1.381 . S
C56 C59 1.487 . S
C57 C54 1.382 . S
C57 C58 1.387 . S
C57 H80 0.930 . S
C58 C56 1.381 . S
C58 C57 1.387 . S
C58 H81 0.931 . S
C59 C52 1.399 1_545 S
C59 C56 1.487 . S
C59 N91 1.343 . S
C60 C61 1.384 1_565 S
C60 C62 1.384 . S
C60 H82 0.931 . S
C61 C60 1.384 1_545 S
C61 C64 1.382 . S
C62 C60 1.384 . S
C62 C63 1.381 1_565 S
C62 H83 0.930 . S
C63 C62 1.381 1_545 S
C63 C65 1.381 . S
C63 C66 1.487 . S
C64 C61 1.382 . S
C64 C65 1.387 . S
C64 H84 0.930 . S
C65 C63 1.381 . S
C65 C64 1.387 . S
C65 H85 0.931 . S
C66 C63 1.487 . S
C66 C73 1.399 1_545 S
C66 N91 1.343 . S
C67 C68 1.384 1_545 S
C67 C69 1.384 . S
C67 H86 0.931 . S
C68 C67 1.384 1_565 S
C68 C71 1.382 . S
C69 C67 1.384 . S
C69 C70 1.381 1_545 S
C69 H87 0.930 . S
C70 C69 1.381 1_565 S
C70 C72 1.381 . S
C70 C73 1.487 . S
C71 C68 1.382 . S
C71 C72 1.387 . S
C71 H88 0.930 . S
C72 C70 1.381 . S
C72 C71 1.387 . S
C72 H89 0.931 . S
C73 C66 1.399 1_565 S
C73 C70 1.487 . S
C73 N90 1.343 . S
H74 C46 0.931 . S
H75 C48 0.930 . S
H76 C50 0.930 . S
H77 C51 0.931 . S
H78 C53 0.931 . S
H79 C55 0.930 . S
H80 C57 0.930 . S
H81 C58 0.931 . S
H82 C60 0.931 . S
H83 C62 0.930 . S
H84 C64 0.930 . S
H85 C65 0.931 . S
H86 C67 0.931 . S
H87 C69 0.930 . S
H88 C71 0.930 . S
H89 C72 0.931 . S
N90 C52 1.343 . S
N90 C73 1.343 . S
N91 C59 1.343 . S
N91 C66 1.343 . S
C92 C93 1.384 1_556 S
C92 C94 1.384 . S
C92 H120 0.931 . S
C93 C92 1.384 1_554 S
C93 C96 1.382 . S
C94 C92 1.384 . S
C94 C95 1.381 1_556 S
C94 H121 0.930 . S
C95 C94 1.381 1_554 S
C95 C97 1.381 . S
C95 C98 1.487 . S
C96 C93 1.382 . S
C96 C97 1.387 . S
C96 H122 0.930 . S
C97 C95 1.381 . S
C97 C96 1.387 . S
C97 H123 0.931 . S
C98 C95 1.487 . S
C98 C105 1.399 1_554 S
C98 N136 1.343 . S
C99 C100 1.384 1_554 S
C99 C101 1.384 . S
C99 H124 0.931 . S
C100 C99 1.384 1_556 S
C100 C103 1.382 . S
C101 C99 1.384 . S
C101 C102 1.381 1_554 S
C101 H125 0.930 . S
C102 C101 1.381 1_556 S
C102 C104 1.381 . S
C102 C105 1.487 . S
C103 C100 1.382 . S
C103 C104 1.387 . S
C103 H126 0.930 . S
C104 C102 1.381 . S
C104 C103 1.387 . S
C104 H127 0.931 . S
C105 C98 1.399 1_556 S
C105 C102 1.487 . S
C105 N137 1.343 . S
C106 C107 1.384 1_554 S
C106 C108 1.384 . S
C106 H128 0.931 . S
C107 C106 1.384 1_556 S
C107 C110 1.382 . S
C108 C106 1.384 . S
C108 C109 1.381 1_554 S
C108 H129 0.930 . S
C109 C108 1.381 1_556 S
C109 C111 1.381 . S
C109 C112 1.487 . S
C110 C107 1.382 . S
C110 C111 1.387 . S
C110 H130 0.930 . S
C111 C109 1.381 . S
C111 C110 1.387 . S
C111 H131 0.931 . S
C112 C109 1.487 . S
C112 C119 1.399 1_556 S
C112 N137 1.343 . S
C113 C114 1.384 1_556 S
C113 C115 1.384 . S
C113 H132 0.931 . S
C114 C113 1.384 1_554 S
C114 C117 1.382 . S
C115 C113 1.384 . S
C115 C116 1.381 1_556 S
C115 H133 0.930 . S
C116 C115 1.381 1_554 S
C116 C118 1.381 . S
C116 C119 1.487 . S
C117 C114 1.382 . S
C117 C118 1.387 . S
C117 H134 0.930 . S
C118 C116 1.381 . S
C118 C117 1.387 . S
C118 H135 0.931 . S
C119 C112 1.399 1_554 S
C119 C116 1.487 . S
C119 N136 1.343 . S
H120 C92 0.931 . S
H121 C94 0.930 . S
H122 C96 0.930 . S
H123 C97 0.931 . S
H124 C99 0.931 . S
H125 C101 0.930 . S
H126 C103 0.930 . S
H127 C104 0.931 . S
H128 C106 0.931 . S
H129 C108 0.930 . S
H130 C110 0.930 . S
H131 C111 0.931 . S
H132 C113 0.931 . S
H133 C115 0.930 . S
H134 C117 0.930 . S
H135 C118 0.931 . S
N136 C98 1.343 . S
N136 C119 1.343 . S
N137 C105 1.343 . S
N137 C112 1.343 . S
C138 O164 1.283 . S
C138 O182 1.283 . S
C139 O165 1.283 . S
C139 O180 1.283 . S
C140 O166 1.283 . S
C140 O183 1.283 . S
C141 O167 1.283 . S
C141 O181 1.283 . S
C142 O168 1.283 . S
C142 O177 1.283 . S
C143 O169 1.283 . S
C143 O179 1.283 . S
C144 O170 1.283 . S
C144 O176 1.283 . S
C145 O171 1.283 . S
C145 O178 1.283 . S
C146 O172 1.283 . S
C146 O187 1.283 . S
C147 O173 1.283 . S
C147 O185 1.283 . S
C148 O174 1.283 . S
C148 O186 1.283 . S
C149 O175 1.283 . S
C149 O184 1.283 . S
Eu150 O151 2.370 . S
Eu150 O152 2.370 1_454 S
Eu150 O155 2.370 1_554 S
Eu150 O156 2.370 1_455 S
Eu150 O164 2.363 1_554 S
Eu150 O165 2.363 . S
Eu150 O178 2.363 1_455 S
Eu150 O179 2.363 . S
O151 Eu150 2.370 . S
O151 Eu153 2.370 . S
O151 Eu158 2.370 . S
O152 Eu150 2.370 1_656 S
O152 Eu154 2.370 1_556 S
O152 Eu157 2.370 1_655 S
Eu153 O151 2.370 . S
Eu153 O155 2.370 1_554 S
Eu153 O159 2.370 1_544 S
Eu153 O160 2.370 1_545 S
Eu153 O168 2.363 1_545 S
Eu153 O169 2.363 . S
Eu153 O184 2.363 1_554 S
Eu153 O185 2.363 . S
Eu154 O152 2.370 1_554 S
Eu154 O156 2.370 . S
Eu154 O161 2.370 1_545 S
Eu154 O162 2.370 1_544 S
Eu154 O170 2.363 1_545 S
Eu154 O171 2.363 . S
Eu154 O186 2.363 1_554 S
Eu154 O187 2.363 . S
O155 Eu150 2.370 1_556 S
O155 Eu153 2.370 1_556 S
O155 Eu157 2.370 . S
O156 Eu150 2.370 1_655 S
O156 Eu154 2.370 . S
O156 Eu158 2.370 1_655 S
Eu157 O152 2.370 1_455 S
Eu157 O155 2.370 . S
Eu157 O159 2.370 1_545 S
Eu157 O162 2.370 1_445 S
Eu157 O174 2.363 1_455 S
Eu157 O175 2.363 . S
Eu157 O182 2.363 . S
Eu157 O183 2.363 1_545 S
Eu158 O151 2.370 . S
Eu158 O156 2.370 1_455 S
Eu158 O160 2.370 1_545 S
Eu158 O161 2.370 1_445 S
Eu158 O172 2.363 1_455 S
Eu158 O173 2.363 . S
Eu158 O180 2.363 . S
Eu158 O181 2.363 1_545 S
O159 Eu153 2.370 1_566 S
O159 Eu157 2.370 1_565 S
O159 Eu163 2.370 1_556 S
O160 Eu153 2.370 1_565 S
O160 Eu158 2.370 1_565 S
O160 Eu163 2.370 . S
O161 Eu154 2.370 1_565 S
O161 Eu158 2.370 1_665 S
O161 Eu163 2.370 1_655 S
O162 Eu154 2.370 1_566 S
O162 Eu157 2.370 1_665 S
O162 Eu163 2.370 1_656 S
Eu163 O159 2.370 1_554 S
Eu163 O160 2.370 . S
Eu163 O161 2.370 1_455 S
Eu163 O162 2.370 1_454 S
Eu163 O166 2.363 1_554 S
Eu163 O167 2.363 . S
Eu163 O176 2.363 1_455 S
Eu163 O177 2.363 . S
O164 C138 1.283 . S
O164 Eu150 2.363 1_556 S
O165 C139 1.283 . S
O165 Eu150 2.363 . S
O166 C140 1.283 . S
O166 Eu163 2.363 1_556 S
O167 C141 1.283 . S
O167 Eu163 2.363 . S
O168 C142 1.283 . S
O168 Eu153 2.363 1_565 S
O169 C143 1.283 . S
O169 Eu153 2.363 . S
O170 C144 1.283 . S
O170 Eu154 2.363 1_565 S
O171 C145 1.283 . S
O171 Eu154 2.363 . S
O172 C146 1.283 . S
O172 Eu158 2.363 1_655 S
O173 C147 1.283 . S
O173 Eu158 2.363 . S
O174 C148 1.283 . S
O174 Eu157 2.363 1_655 S
O175 C149 1.283 . S
O175 Eu157 2.363 . S
O176 C144 1.283 . S
O176 Eu163 2.363 1_655 S
O177 C142 1.283 . S
O177 Eu163 2.363 . S
O178 C145 1.283 . S
O178 Eu150 2.363 1_655 S
O179 C143 1.283 . S
O179 Eu150 2.363 . S
O180 C139 1.283 . S
O180 Eu158 2.363 . S
O181 C141 1.283 . S
O181 Eu158 2.363 1_565 S
O182 C138 1.283 . S
O182 Eu157 2.363 . S
O183 C140 1.283 . S
O183 Eu157 2.363 1_565 S
O184 C149 1.283 . S
O184 Eu153 2.363 1_556 S
O185 C147 1.283 . S
O185 Eu153 2.363 . S
O186 C148 1.283 . S
O186 Eu154 2.363 1_556 S
O187 C146 1.283 . S
O187 Eu154 2.363 . S
H188 C194 0.930 . S
H189 C198 0.930 . S
H190 C203 0.929 . S
H191 C201 0.929 . S
H192 C196 0.929 . S
H193 C202 0.929 . S
C194 H188 0.930 . S
C194 C195 1.367 . S
C194 C202 1.378 . S
C195 C194 1.367 . S
C195 C203 1.433 1_655 S
C196 H192 0.929 . S
C196 C198 1.378 . S
C196 C200 1.352 . S
C197 C200 1.462 1_655 S
C197 C202 1.351 . S
C197 N205 1.426 1_655 S
C198 H189 0.930 . S
C198 C196 1.378 . S
C198 C199 1.368 . S
C199 C198 1.368 . S
C199 C201 1.432 1_455 S
C200 C196 1.352 . S
C200 C197 1.462 1_455 S
C200 N204 1.425 1_455 S
C201 H191 0.929 . S
C201 C199 1.432 1_655 S
C201 N204 1.384 . S
C202 H193 0.929 . S
C202 C194 1.378 . S
C202 C197 1.351 . S
C203 H190 0.929 . S
C203 C195 1.433 1_455 S
C203 N205 1.384 . S
N204 C200 1.425 1_655 S
N204 C201 1.384 . S
N205 C197 1.426 1_455 S
N205 C203 1.384 . S
H206 C212 0.930 . S
H207 C216 0.930 . S
H208 C221 0.929 . S
H209 C219 0.929 . S
H210 C214 0.929 . S
H211 C220 0.929 . S
C212 H206 0.930 . S
C212 C213 1.367 . S
C212 C220 1.378 . S
C213 C212 1.367 . S
C213 C221 1.433 1_545 S
C214 H210 0.929 . S
C214 C216 1.378 . S
C214 C218 1.350 . S
C215 C218 1.463 1_545 S
C215 C220 1.350 . S
C215 N223 1.427 1_545 S
C216 H207 0.930 . S
C216 C214 1.378 . S
C216 C217 1.386 . S
C217 C216 1.386 . S
C217 C219 1.414 1_565 S
C218 C214 1.350 . S
C218 C215 1.463 1_565 S
C218 N222 1.427 1_565 S
C219 H209 0.929 . S
C219 C217 1.414 1_545 S
C219 N222 1.384 . S
C220 H211 0.929 . S
C220 C212 1.378 . S
C220 C215 1.350 . S
C221 H208 0.929 . S
C221 C213 1.433 1_565 S
C221 N223 1.384 . S
N222 C218 1.427 1_545 S
N222 C219 1.384 . S
N223 C215 1.427 1_565 S
N223 C221 1.384 . S
H224 C230 0.930 . S
H225 C234 0.930 . S
H226 C239 0.929 . S
H227 C237 0.929 . S
H228 C232 0.929 . S
H229 C238 0.929 . S
C230 H224 0.930 . S
C230 C231 1.367 1_655 S
C230 C238 1.378 . S
C231 C230 1.367 1_455 S
C231 C239 1.433 . S
C232 H228 0.929 . S
C232 C234 1.378 . S
C232 C236 1.350 . S
C233 C236 1.463 1_655 S
C233 C238 1.350 . S
C233 N241 1.427 1_655 S
C234 H225 0.930 . S
C234 C232 1.378 . S
C234 C235 1.367 . S
C235 C234 1.367 . S
C235 C237 1.433 1_455 S
C236 C232 1.350 . S
C236 C233 1.463 1_455 S
C236 N240 1.427 1_455 S
C237 H227 0.929 . S
C237 C235 1.433 1_655 S
C237 N240 1.384 . S
C238 H229 0.929 . S
C238 C230 1.378 . S
C238 C233 1.350 . S
C239 H226 0.929 . S
C239 C231 1.433 . S
C239 N241 1.384 . S
N240 C236 1.427 1_655 S
N240 C237 1.384 . S
N241 C233 1.427 1_455 S
N241 C239 1.384 . S
H242 C248 0.930 . S
H243 C252 0.930 . S
H244 C257 0.929 . S
H245 C255 0.929 . S
H246 C250 0.929 . S
H247 C256 0.929 . S
C248 H242 0.930 . S
C248 C249 1.367 . S
C248 C256 1.378 . S
C249 C248 1.367 . S
C249 C257 1.433 1_545 S
C250 H246 0.929 . S
C250 C252 1.378 . S
C250 C254 1.350 . S
C251 C254 1.463 1_545 S
C251 C256 1.350 . S
C251 N259 1.427 1_545 S
C252 H243 0.930 . S
C252 C250 1.378 . S
C252 C253 1.386 . S
C253 C252 1.386 . S
C253 C255 1.414 1_565 S
C254 C250 1.350 . S
C254 C251 1.463 1_565 S
C254 N258 1.427 1_565 S
C255 H245 0.929 . S
C255 C253 1.414 1_545 S
C255 N258 1.384 . S
C256 H247 0.929 . S
C256 C248 1.378 . S
C256 C251 1.350 . S
C257 H244 0.929 . S
C257 C249 1.433 1_565 S
C257 N259 1.384 . S
N258 C254 1.427 1_545 S
N258 C255 1.384 . S
N259 C251 1.427 1_565 S
N259 C257 1.384 . S
H260 C266 0.930 . S
H261 C270 0.930 . S
H262 C275 0.929 . S
H263 C273 0.929 . S
H264 C268 0.929 . S
H265 C274 0.929 . S
C266 H260 0.930 . S
C266 C267 1.383 . S
C266 C274 1.378 . S
C267 C266 1.383 . S
C267 C275 1.417 1_655 S
C268 H264 0.929 . S
C268 C270 1.378 . S
C268 C272 1.350 . S
C269 C272 1.463 1_655 S
C269 C274 1.350 . S
C269 N277 1.427 1_655 S
C270 H261 0.930 . S
C270 C268 1.378 . S
C270 C271 1.367 . S
C271 C270 1.367 . S
C271 C273 1.433 1_455 S
C272 C268 1.350 . S
C272 C269 1.463 1_455 S
C272 N276 1.427 1_455 S
C273 H263 0.929 . S
C273 C271 1.433 1_655 S
C273 N276 1.384 . S
C274 H265 0.929 . S
C274 C266 1.378 . S
C274 C269 1.350 . S
C275 H262 0.929 . S
C275 C267 1.417 1_455 S
C275 N277 1.384 . S
N276 C272 1.427 1_655 S
N276 C273 1.384 . S
N277 C269 1.427 1_455 S
N277 C275 1.384 . S
H278 C284 0.930 . S
H279 C288 0.930 . S
H280 C293 0.929 . S
H281 C291 0.929 . S
H282 C286 0.929 . S
H283 C292 0.929 . S
C284 H278 0.930 . S
C284 C285 1.375 . S
C284 C292 1.378 . S
C285 C284 1.375 . S
C285 C293 1.425 1_565 S
C286 H282 0.929 . S
C286 C288 1.378 . S
C286 C290 1.350 . S
C287 C290 1.462 1_565 S
C287 C292 1.363 . S
C287 N295 1.414 1_565 S
C288 H279 0.930 . S
C288 C286 1.378 . S
C288 C289 1.378 . S
C289 C288 1.378 . S
C289 C291 1.422 1_545 S
C290 C286 1.350 . S
C290 C287 1.462 1_545 S
C290 N294 1.427 1_545 S
C291 H281 0.929 . S
C291 C289 1.422 1_565 S
C291 N294 1.384 . S
C292 H283 0.929 . S
C292 C284 1.378 . S
C292 C287 1.363 . S
C293 H280 0.929 . S
C293 C285 1.425 1_545 S
C293 N295 1.384 . S
N294 C290 1.427 1_565 S
N294 C291 1.384 . S
N295 C287 1.414 1_545 S
N295 C293 1.384 . S
H296 C302 0.930 . S
H297 C306 0.930 . S
H298 C311 0.929 . S
H299 C309 0.929 . S
H300 C304 0.929 . S
H301 C310 0.929 . S
C302 H296 0.930 . S
C302 C303 1.374 . S
C302 C310 1.378 . S
C303 C302 1.374 . S
C303 C311 1.426 1_655 S
C304 H300 0.929 . S
C304 C306 1.378 . S
C304 C308 1.350 . S
C305 C308 1.462 1_655 S
C305 C310 1.362 . S
C305 N313 1.415 1_655 S
C306 H297 0.930 . S
C306 C304 1.378 . S
C306 C307 1.377 . S
C307 C306 1.377 . S
C307 C309 1.423 1_455 S
C308 C304 1.350 . S
C308 C305 1.462 1_455 S
C308 N312 1.427 1_455 S
C309 H299 0.929 . S
C309 C307 1.423 1_655 S
C309 N312 1.384 . S
C310 H301 0.929 . S
C310 C302 1.378 . S
C310 C305 1.362 . S
C311 H298 0.929 . S
C311 C303 1.426 1_455 S
C311 N313 1.384 . S
N312 C308 1.427 1_655 S
N312 C309 1.384 . S
N313 C305 1.415 1_455 S
N313 C311 1.384 . S
H314 C320 0.930 . S
H315 C324 0.930 . S
H316 C329 0.929 . S
H317 C327 0.929 . S
H318 C322 0.929 . S
H319 C328 0.929 . S
C320 H314 0.930 . S
C320 C321 1.383 . S
C320 C328 1.378 . S
C321 C320 1.383 . S
C321 C329 1.417 1_545 S
C322 H318 0.929 . S
C322 C324 1.378 . S
C322 C326 1.350 . S
C323 C326 1.463 1_545 S
C323 C328 1.350 . S
C323 N331 1.427 1_545 S
C324 H315 0.930 . S
C324 C322 1.378 . S
C324 C325 1.379 . S
C325 C324 1.379 . S
C325 C327 1.421 1_565 S
C326 C322 1.350 . S
C326 C323 1.463 1_565 S
C326 N330 1.427 1_565 S
C327 H317 0.929 . S
C327 C325 1.421 1_545 S
C327 N330 1.384 . S
C328 H319 0.929 . S
C328 C320 1.378 . S
C328 C323 1.350 . S
C329 H316 0.929 . S
C329 C321 1.417 1_565 S
C329 N331 1.384 . S
N330 C326 1.427 1_545 S
N330 C327 1.384 . S
N331 C323 1.427 1_565 S
N331 C329 1.384 . S
H332 C338 0.930 . S
H333 C342 0.930 . S
H334 C347 0.929 . S
H335 C345 0.929 . S
H336 C340 0.929 . S
H337 C346 0.929 . S
C338 H332 0.930 . S
C338 C339 1.378 . S
C338 C346 1.378 . S
C339 C338 1.378 . S
C339 C347 1.422 1_556 S
C340 H336 0.929 . S
C340 C342 1.378 . S
C340 C344 1.350 . S
C341 C344 1.463 1_556 S
C341 C346 1.350 . S
C341 N349 1.427 1_556 S
C342 H333 0.930 . S
C342 C340 1.378 . S
C342 C343 1.382 . S
C343 C342 1.382 . S
C343 C345 1.418 1_554 S
C344 C340 1.350 . S
C344 C341 1.463 1_554 S
C344 N348 1.427 1_554 S
C345 H335 0.929 . S
C345 C343 1.418 1_556 S
C345 N348 1.384 . S
C346 H337 0.929 . S
C346 C338 1.378 . S
C346 C341 1.350 . S
C347 H334 0.929 . S
C347 C339 1.422 1_554 S
C347 N349 1.384 . S
N348 C344 1.427 1_556 S
N348 C345 1.384 . S
N349 C341 1.427 1_554 S
N349 C347 1.384 . S
H350 C356 0.930 . S
H351 C360 0.930 . S
H352 C365 0.929 . S
H353 C363 0.929 . S
H354 C358 0.929 . S
H355 C364 0.929 . S
C356 H350 0.930 . S
C356 C357 1.367 . S
C356 C364 1.378 . S
C357 C356 1.367 . S
C357 C365 1.433 1_554 S
C358 H354 0.929 . S
C358 C360 1.378 . S
C358 C362 1.350 . S
C359 C362 1.463 1_554 S
C359 C364 1.350 . S
C359 N367 1.427 1_554 S
C360 H351 0.930 . S
C360 C358 1.378 . S
C360 C361 1.383 . S
C361 C360 1.383 . S
C361 C363 1.417 1_556 S
C362 C358 1.350 . S
C362 C359 1.463 1_556 S
C362 N366 1.427 1_556 S
C363 H353 0.929 . S
C363 C361 1.417 1_554 S
C363 N366 1.384 . S
C364 H355 0.929 . S
C364 C356 1.378 . S
C364 C359 1.350 . S
C365 H352 0.929 . S
C365 C357 1.433 1_556 S
C365 N367 1.384 . S
N366 C362 1.427 1_554 S
N366 C363 1.384 . S
N367 C359 1.427 1_556 S
N367 C365 1.384 . S
H368 C374 0.930 . S
H369 C378 0.930 . S
H370 C383 0.929 . S
H371 C381 0.929 . S
H372 C376 0.929 . S
H373 C382 0.929 . S
C374 H368 0.930 . S
C374 C375 1.376 . S
C374 C382 1.378 . S
C375 C374 1.376 . S
C375 C383 1.424 1_554 S
C376 H372 0.929 . S
C376 C378 1.378 . S
C376 C380 1.361 . S
C377 C380 1.462 1_554 S
C377 C382 1.364 . S
C377 N385 1.413 1_554 S
C378 H369 0.930 . S
C378 C376 1.378 . S
C378 C379 1.373 . S
C379 C378 1.373 . S
C379 C381 1.427 1_556 S
C380 C376 1.361 . S
C380 C377 1.462 1_556 S
C380 N384 1.416 1_556 S
C381 H371 0.929 . S
C381 C379 1.427 1_554 S
C381 N384 1.384 . S
C382 H373 0.929 . S
C382 C374 1.378 . S
C382 C377 1.364 . S
C383 H370 0.929 . S
C383 C375 1.424 1_556 S
C383 N385 1.384 . S
N384 C380 1.416 1_554 S
N384 C381 1.384 . S
N385 C377 1.413 1_556 S
N385 C383 1.384 . S
H386 C392 0.930 . S
H387 C396 0.930 . S
H388 C401 0.929 . S
H389 C399 0.929 . S
H390 C394 0.929 . S
H391 C400 0.929 . S
C392 H386 0.930 . S
C392 C393 1.371 . S
C392 C400 1.378 . S
C393 C392 1.371 . S
C393 C401 1.429 1_556 S
C394 H390 0.929 . S
C394 C396 1.378 . S
C394 C398 1.360 . S
C395 C398 1.462 1_556 S
C395 C400 1.357 . S
C395 N403 1.420 1_556 S
C396 H387 0.930 . S
C396 C394 1.378 . S
C396 C397 1.373 . S
C397 C396 1.373 . S
C397 C399 1.427 1_554 S
C398 C394 1.360 . S
C398 C395 1.462 1_554 S
C398 N402 1.418 1_554 S
C399 H389 0.929 . S
C399 C397 1.427 1_556 S
C399 N402 1.384 . S
C400 H391 0.929 . S
C400 C392 1.378 . S
C400 C395 1.357 . S
C401 H388 0.929 . S
C401 C393 1.429 1_554 S
C401 N403 1.384 . S
N402 C398 1.418 1_556 S
N402 C399 1.384 . S
N403 C395 1.420 1_554 S
N403 C401 1.384 . S
C199 C139 1.776 . S
C195 C15 1.769 1_655 S
C217 C146 1.302 1_565 S
C213 C68 1.300 1_545 S
C235 C141 1.776 . S
C231 C8 1.772 . S
C253 C147 1.302 1_565 S
C249 C61 1.294 . S
C267 C1 1.771 . S
C271 C140 1.779 . S
C289 C149 1.302 . S
C285 C54 1.298 1_565 S
C303 C22 1.772 . S
C307 C138 1.776 . S
C321 C47 1.300 1_545 S
C325 C148 1.307 1_565 S
C339 C93 1.525 1_556 S
C343 C143 1.523 . S
C357 C114 1.524 . S
C361 C142 1.526 1_556 S
C379 C145 1.526 1_556 S
C375 C100 1.525 1_554 S
C397 C144 1.526 . S
C393 C107 1.529 . S
