# Generated by pormake.
# Topology pto, (3,4)-cn, num edge types: 1
# Building blocks:
#     Node 0, Type 0, BuildingBlock: WUSLED_clean_sbu_0, # of connection points: 3
#     Node 1, Type 0, BuildingBlock: WUSLED_clean_sbu_0, # of connection points: 3
#     Node 2, Type 0, BuildingBlock: WUSLED_clean_sbu_0, # of connection points: 3
#     Node 3, Type 0, BuildingBlock: WUSLED_clean_sbu_0, # of connection points: 3
#     Node 4, Type 0, BuildingBlock: WUSLED_clean_sbu_0, # of connection points: 3
#     Node 5, Type 0, BuildingBlock: WUSLED_clean_sbu_0, # of connection points: 3
#     Node 6, Type 0, BuildingBlock: WUSLED_clean_sbu_0, # of connection points: 3
#     Node 7, Type 0, BuildingBlock: WUSLED_clean_sbu_0, # of connection points: 3
#     Node 8, Type 1, BuildingBlock: NAHDIM_clean_linker_0, # of connection points: 4
#     Node 9, Type 1, BuildingBlock: NAHDIM_clean_linker_0, # of connection points: 4
#     Node 10, Type 1, BuildingBlock: NAHDIM_clean_linker_0, # of connection points: 4
#     Node 11, Type 1, BuildingBlock: NAHDIM_clean_linker_0, # of connection points: 4
#     Node 12, Type 1, BuildingBlock: NAHDIM_clean_linker_0, # of connection points: 4
#     Node 13, Type 1, BuildingBlock: NAHDIM_clean_linker_0, # of connection points: 4
#     Edge 14, Type (0, 1), BuildingBlock: UVAHIK_clean_linker_0, # of connection points: 2
#     Edge 15, Type (0, 1), BuildingBlock: UVAHIK_clean_linker_0, # of connection points: 2
#     Edge 16, Type (0, 1), BuildingBlock: UVAHIK_clean_linker_0, # of connection points: 2
#     Edge 17, Type (0, 1), BuildingBlock: UVAHIK_clean_linker_0, # of connection points: 2
#     Edge 18, Type (0, 1), BuildingBlock: UVAHIK_clean_linker_0, # of connection points: 2
#     Edge 19, Type (0, 1), BuildingBlock: UVAHIK_clean_linker_0, # of connection points: 2
#     Edge 20, Type (0, 1), BuildingBlock: UVAHIK_clean_linker_0, # of connection points: 2
#     Edge 21, Type (0, 1), BuildingBlock: UVAHIK_clean_linker_0, # of connection points: 2
#     Edge 22, Type (0, 1), BuildingBlock: UVAHIK_clean_linker_0, # of connection points: 2
#     Edge 23, Type (0, 1), BuildingBlock: UVAHIK_clean_linker_0, # of connection points: 2
#     Edge 24, Type (0, 1), BuildingBlock: UVAHIK_clean_linker_0, # of connection points: 2
#     Edge 25, Type (0, 1), BuildingBlock: UVAHIK_clean_linker_0, # of connection points: 2
#     Edge 26, Type (0, 1), BuildingBlock: UVAHIK_clean_linker_0, # of connection points: 2
#     Edge 27, Type (0, 1), BuildingBlock: UVAHIK_clean_linker_0, # of connection points: 2
#     Edge 28, Type (0, 1), BuildingBlock: UVAHIK_clean_linker_0, # of connection points: 2
#     Edge 29, Type (0, 1), BuildingBlock: UVAHIK_clean_linker_0, # of connection points: 2
#     Edge 30, Type (0, 1), BuildingBlock: UVAHIK_clean_linker_0, # of connection points: 2
#     Edge 31, Type (0, 1), BuildingBlock: UVAHIK_clean_linker_0, # of connection points: 2
#     Edge 32, Type (0, 1), BuildingBlock: UVAHIK_clean_linker_0, # of connection points: 2
#     Edge 33, Type (0, 1), BuildingBlock: UVAHIK_clean_linker_0, # of connection points: 2
#     Edge 34, Type (0, 1), BuildingBlock: UVAHIK_clean_linker_0, # of connection points: 2
#     Edge 35, Type (0, 1), BuildingBlock: UVAHIK_clean_linker_0, # of connection points: 2
#     Edge 36, Type (0, 1), BuildingBlock: UVAHIK_clean_linker_0, # of connection points: 2
#     Edge 37, Type (0, 1), BuildingBlock: UVAHIK_clean_linker_0, # of connection points: 2
# Relax obj value: 0.001
# Max RMSD: 0.070
# Mean RMSD: 0.020
data_MOF--net-pto--node1-WUSLED_clean_sbu_0--node2-NAHDIM_clean_linker_0--edge1-UVAHIK_clean_linker_0
_symmetry_space_group_name_H-M    P1
_symmetry_Int_Tables_number       1
_symmetry_cell_setting            triclinic
loop_
_symmetry_equiv_pos_as_xyz
'x, y, z'
_cell_length_a     87.951688
_cell_length_b     83.63675
_cell_length_c     79.068217
_cell_angle_alpha  89.136426
_cell_angle_beta   90.793627
_cell_angle_gamma 90.515455
loop_
_atom_site_label
_atom_site_type_symbol
_atom_site_fract_x
_atom_site_fract_y
_atom_site_fract_z
_atom_type_partial_charge
C0 C 0.25684 0.25882 0.30249 0.0
C1 C 0.26309 0.24457 0.29661 0.0
C2 C 0.26037 0.23223 0.32449 0.0
C3 C 0.26474 0.23135 0.30749 0.0
C4 C 0.2543 0.24658 0.33037 0.0
C5 C 0.25251 0.25974 0.31943 0.0
U6 U 0.26968 0.28421 0.26498 0.0
O7 O 0.2566 0.29581 0.24443 0.0
O8 O 0.27064 0.31036 0.26155 0.0
C9 C 0.26044 0.31028 0.24924 0.0
C10 C 0.25496 0.27283 0.29121 0.0
C11 C 0.24766 0.32125 0.25109 0.0
C12 C 0.22468 0.32914 0.26534 0.0
C13 C 0.23738 0.31926 0.26439 0.0
C14 C 0.2326 0.34324 0.23989 0.0
C15 C 0.22203 0.34109 0.25296 0.0
C16 C 0.2453 0.33338 0.23898 0.0
C17 C 0.30435 0.27174 0.24037 0.0
C18 C 0.31442 0.28824 0.21753 0.0
C19 C 0.32534 0.26226 0.22376 0.0
C20 C 0.31499 0.25993 0.23684 0.0
C21 C 0.32522 0.27647 0.21398 0.0
C22 C 0.30405 0.28587 0.2306 0.0
C23 C 0.29365 0.26916 0.25424 0.0
O24 O 0.2657 0.28381 0.29243 0.0
O25 O 0.25099 0.26975 0.27548 0.0
O26 O 0.27969 0.26545 0.24955 0.0
O27 O 0.29428 0.27988 0.26623 0.0
H28 H 0.26669 0.24367 0.28361 0.0
H29 H 0.26962 0.22051 0.30268 0.0
H30 H 0.25073 0.24755 0.34337 0.0
H31 H 0.24772 0.27066 0.3242 0.0
H32 H 0.21668 0.32707 0.27545 0.0
H33 H 0.23903 0.30987 0.27381 0.0
H34 H 0.23099 0.35247 0.2303 0.0
H35 H 0.25314 0.33507 0.22865 0.0
H36 H 0.31391 0.29922 0.21012 0.0
H37 H 0.33362 0.25306 0.22152 0.0
H38 H 0.31535 0.24895 0.24427 0.0
H39 H 0.29582 0.29507 0.23313 0.0
C40 C 0.2553 0.76718 0.70448 0.0
C41 C 0.26896 0.77598 0.70407 0.0
C42 C 0.25802 0.79423 0.68298 0.0
C43 C 0.27034 0.78938 0.69334 0.0
C44 C 0.2444 0.78529 0.68347 0.0
C45 C 0.24307 0.7719 0.69413 0.0
U46 U 0.26918 0.74031 0.74084 0.0
O47 O 0.2565 0.72906 0.76165 0.0
O48 O 0.26829 0.71405 0.74354 0.0
C49 C 0.25873 0.71452 0.75615 0.0
C50 C 0.25354 0.75317 0.71572 0.0
C51 C 0.24507 0.7043 0.75447 0.0
C52 C 0.21786 0.70095 0.74968 0.0
C53 C 0.23073 0.71085 0.75074 0.0
C54 C 0.23355 0.6778 0.75555 0.0
C55 C 0.21913 0.68432 0.75212 0.0
C56 C 0.24639 0.68772 0.75677 0.0
C57 C 0.30619 0.74991 0.76423 0.0
C58 C 0.31662 0.73221 0.786 0.0
C59 C 0.32733 0.75876 0.78188 0.0
C60 C 0.31687 0.76166 0.76875 0.0
C61 C 0.32729 0.74403 0.79071 0.0
C62 C 0.30611 0.73515 0.7729 0.0
C63 C 0.29493 0.75341 0.75082 0.0
O64 O 0.26344 0.7417 0.71371 0.0
O65 O 0.2511 0.75637 0.73167 0.0
O66 O 0.2816 0.75798 0.75617 0.0
O67 O 0.29398 0.74293 0.7386 0.0
H68 H 0.27852 0.77251 0.71207 0.0
H69 H 0.28093 0.79609 0.69335 0.0
H70 H 0.23479 0.78854 0.67546 0.0
H71 H 0.23246 0.76521 0.69428 0.0
H72 H 0.20692 0.70628 0.74683 0.0
H73 H 0.22945 0.72361 0.74873 0.0
H74 H 0.23485 0.66505 0.75763 0.0
H75 H 0.25735 0.68244 0.75964 0.0
H76 H 0.31618 0.72081 0.79268 0.0
H77 H 0.33551 0.76804 0.78507 0.0
H78 H 0.31706 0.77313 0.76219 0.0
H79 H 0.29784 0.72599 0.76964 0.0
C80 C 0.72678 0.75656 0.23267 0.0
C81 C 0.73069 0.75234 0.21615 0.0
C82 C 0.70391 0.75043 0.20817 0.0
C83 C 0.71935 0.74941 0.20398 0.0
C84 C 0.70005 0.75445 0.22476 0.0
C85 C 0.71138 0.75755 0.23687 0.0
U86 U 0.76418 0.7465 0.2551 0.0
O87 O 0.78286 0.76205 0.26392 0.0
O88 O 0.77049 0.74693 0.28211 0.0
C89 C 0.78068 0.75833 0.27992 0.0
C90 C 0.73851 0.75986 0.24569 0.0
C91 C 0.77951 0.77193 0.29133 0.0
C92 C 0.76696 0.79609 0.3002 0.0
C93 C 0.76794 0.78324 0.28915 0.0
C94 C 0.78906 0.78638 0.3157 0.0
C95 C 0.77752 0.79782 0.31362 0.0
C96 C 0.79004 0.77357 0.30464 0.0
C97 C 0.78662 0.71029 0.24126 0.0
C98 C 0.81351 0.70599 0.24702 0.0
C99 C 0.79716 0.68364 0.23958 0.0
C100 C 0.78476 0.69392 0.23823 0.0
C101 C 0.81168 0.68958 0.24389 0.0
C102 C 0.80106 0.71625 0.24583 0.0
C103 C 0.77339 0.72087 0.23969 0.0
O104 O 0.73947 0.74925 0.25809 0.0
O105 O 0.75185 0.76468 0.24014 0.0
O106 O 0.77615 0.73549 0.2341 0.0
O107 O 0.76402 0.72033 0.25249 0.0
H108 H 0.74249 0.75132 0.21262 0.0
H109 H 0.72265 0.74618 0.19134 0.0
H110 H 0.68824 0.75546 0.2283 0.0
H111 H 0.70812 0.76075 0.24953 0.0
H112 H 0.75803 0.80476 0.29811 0.0
H113 H 0.7597 0.78213 0.27891 0.0
H114 H 0.79723 0.78719 0.32603 0.0
H115 H 0.799 0.76488 0.30653 0.0
H116 H 0.82454 0.71086 0.25054 0.0
H117 H 0.79544 0.67107 0.23693 0.0
H118 H 0.77369 0.6891 0.23474 0.0
H119 H 0.80273 0.72884 0.24843 0.0
C120 C 0.73501 0.24439 0.71676 0.0
C121 C 0.74598 0.2469 0.70427 0.0
C122 C 0.74075 0.22042 0.693 0.0
C123 C 0.74879 0.23505 0.69246 0.0
C124 C 0.72971 0.21803 0.70555 0.0
C125 C 0.72688 0.22993 0.71731 0.0
U126 U 0.7469 0.28253 0.73888 0.0
O127 O 0.73335 0.30272 0.74763 0.0
O128 O 0.74693 0.2886 0.76582 0.0
C129 C 0.73676 0.29989 0.76362 0.0
C130 C 0.73231 0.25657 0.72955 0.0
C131 C 0.72379 0.29909 0.7751 0.0
C132 C 0.70274 0.28452 0.78786 0.0
C133 C 0.71485 0.28517 0.77657 0.0
C134 C 0.70827 0.31179 0.79609 0.0
C135 C 0.69934 0.29782 0.79779 0.0
C136 C 0.72038 0.31239 0.78485 0.0
C137 C 0.78317 0.3041 0.72554 0.0
C138 C 0.79361 0.32634 0.74148 0.0
C139 C 0.80572 0.31813 0.71571 0.0
C140 C 0.79471 0.30613 0.71366 0.0
C141 C 0.80538 0.3283 0.72972 0.0
C142 C 0.78259 0.31435 0.7394 0.0
C143 C 0.77206 0.29104 0.72358 0.0
O144 O 0.74224 0.25679 0.74211 0.0
O145 O 0.72903 0.27091 0.72358 0.0
O146 O 0.75849 0.29532 0.71813 0.0
O147 O 0.77165 0.28067 0.73623 0.0
H148 H 0.75241 0.25801 0.7037 0.0
H149 H 0.75722 0.23738 0.68286 0.0
H150 H 0.72348 0.20684 0.70653 0.0
H151 H 0.71844 0.22777 0.72696 0.0
H152 H 0.69598 0.27366 0.78874 0.0
H153 H 0.71729 0.2748 0.76905 0.0
H154 H 0.70609 0.32216 0.8037 0.0
H155 H 0.72719 0.32322 0.78387 0.0
H156 H 0.79291 0.33409 0.75229 0.0
H157 H 0.81472 0.31916 0.70654 0.0
H158 H 0.79533 0.29829 0.70291 0.0
H159 H 0.77369 0.31297 0.74866 0.0
C160 C 0.78551 0.70572 0.77272 0.0
C161 C 0.7924 0.70419 0.75692 0.0
C162 C 0.81078 0.68553 0.76916 0.0
C163 C 0.80487 0.69414 0.75514 0.0
C164 C 0.80389 0.68727 0.78499 0.0
C165 C 0.79136 0.69724 0.78672 0.0
U166 U 0.76291 0.74242 0.7594 0.0
O167 O 0.73831 0.74632 0.7571 0.0
O168 O 0.75196 0.76059 0.77492 0.0
C169 C 0.73826 0.75664 0.76949 0.0
C170 C 0.77249 0.71637 0.77486 0.0
C171 C 0.72692 0.75368 0.78273 0.0
C172 C 0.71128 0.73556 0.79954 0.0
C173 C 0.7223 0.73809 0.78719 0.0
C174 C 0.70964 0.76417 0.80345 0.0
C175 C 0.70478 0.74858 0.80782 0.0
C176 C 0.72056 0.76667 0.79099 0.0
C177 C 0.77652 0.76834 0.72247 0.0
C178 C 0.76913 0.79593 0.71724 0.0
C179 C 0.77995 0.78053 0.69471 0.0
C180 C 0.78125 0.76734 0.70567 0.0
C181 C 0.77399 0.795 0.70042 0.0
C182 C 0.77029 0.78268 0.72815 0.0
C183 C 0.77816 0.75436 0.73383 0.0
O184 O 0.77598 0.73082 0.78004 0.0
O185 O 0.76222 0.71628 0.7626 0.0
O186 O 0.76766 0.74319 0.73212 0.0
O187 O 0.78153 0.75747 0.74971 0.0
H188 H 0.78812 0.71075 0.74596 0.0
H189 H 0.80975 0.69296 0.74273 0.0
H190 H 0.80829 0.68107 0.79612 0.0
H191 H 0.78628 0.69841 0.79904 0.0
H192 H 0.7077 0.72341 0.80239 0.0
H193 H 0.72711 0.72785 0.78103 0.0
H194 H 0.70512 0.77446 0.80976 0.0
H195 H 0.72406 0.77879 0.78779 0.0
H196 H 0.76434 0.80688 0.72191 0.0
H197 H 0.78391 0.77952 0.68186 0.0
H198 H 0.78604 0.75636 0.70107 0.0
H199 H 0.7664 0.78365 0.74103 0.0
C200 C 0.73558 0.24749 0.21063 0.0
C201 C 0.73675 0.26211 0.20179 0.0
C202 C 0.7135 0.25598 0.18605 0.0
C203 C 0.72579 0.26633 0.18962 0.0
C204 C 0.71261 0.24116 0.19466 0.0
C205 C 0.72357 0.23697 0.2069 0.0
U206 U 0.7716 0.25765 0.23473 0.0
O207 O 0.77688 0.25687 0.26197 0.0
O208 O 0.79014 0.24251 0.24455 0.0
C209 C 0.78722 0.24576 0.26039 0.0
C210 C 0.74664 0.24347 0.22405 0.0
C211 C 0.7855 0.23183 0.27172 0.0
C212 C 0.77182 0.20786 0.28062 0.0
C213 C 0.7734 0.22098 0.26957 0.0
C214 C 0.79443 0.21636 0.296 0.0
C215 C 0.78234 0.20539 0.29395 0.0
C216 C 0.79598 0.22946 0.28498 0.0
C217 C 0.79355 0.29528 0.22161 0.0
C218 C 0.81434 0.30637 0.23837 0.0
C219 C 0.80964 0.31622 0.20981 0.0
C220 C 0.79737 0.30561 0.2082 0.0
C221 C 0.81826 0.31672 0.2249 0.0
C222 C 0.80211 0.29567 0.23671 0.0
C223 C 0.78073 0.28408 0.21956 0.0
O224 O 0.76023 0.23965 0.21881 0.0
O225 O 0.74701 0.25343 0.23676 0.0
O226 O 0.77084 0.2838 0.23188 0.0
O227 O 0.78434 0.26976 0.21441 0.0
H228 H 0.74603 0.27033 0.20448 0.0
H229 H 0.72689 0.27773 0.18305 0.0
H230 H 0.70321 0.23301 0.1923 0.0
H231 H 0.72252 0.22564 0.21363 0.0
H232 H 0.76247 0.19955 0.2786 0.0
H233 H 0.76519 0.22267 0.25937 0.0
H234 H 0.80259 0.21496 0.30629 0.0
H235 H 0.80534 0.2378 0.28685 0.0
H236 H 0.82089 0.30636 0.25008 0.0
H237 H 0.81229 0.32416 0.19928 0.0
H238 H 0.79086 0.30544 0.19646 0.0
H239 H 0.79937 0.28767 0.24716 0.0
C240 C 0.24424 0.23832 0.72407 0.0
C241 C 0.25269 0.22521 0.73011 0.0
C242 C 0.24932 0.21202 0.70307 0.0
C243 C 0.25513 0.21212 0.71973 0.0
C244 C 0.24109 0.2253 0.69699 0.0
C245 C 0.23853 0.23833 0.70744 0.0
U246 U 0.25589 0.26414 0.76108 0.0
O247 O 0.25555 0.2902 0.76423 0.0
O248 O 0.24234 0.27462 0.78125 0.0
C249 C 0.24546 0.28935 0.77635 0.0
C250 C 0.24147 0.25208 0.73493 0.0
C251 C 0.23227 0.29991 0.77435 0.0
C252 C 0.21233 0.31211 0.75708 0.0
C253 C 0.22485 0.30197 0.75865 0.0
C254 C 0.21437 0.31802 0.78694 0.0
C255 C 0.20693 0.32028 0.77121 0.0
C256 C 0.22693 0.30796 0.78846 0.0
C257 C 0.29194 0.2542 0.78583 0.0
C258 C 0.30029 0.27063 0.8093 0.0
C259 C 0.31554 0.24822 0.80076 0.0
C260 C 0.30489 0.24474 0.78802 0.0
C261 C 0.31341 0.26126 0.81148 0.0
C262 C 0.28964 0.26712 0.79658 0.0
C263 C 0.28107 0.25075 0.77211 0.0
O264 O 0.23797 0.24854 0.75067 0.0
O265 O 0.2514 0.26385 0.73361 0.0
O266 O 0.28068 0.2615 0.75981 0.0
O267 O 0.26749 0.24605 0.77694 0.0
H268 H 0.25736 0.22507 0.74286 0.0
H269 H 0.26166 0.20213 0.72468 0.0
H270 H 0.23637 0.22549 0.68426 0.0
H271 H 0.23205 0.24838 0.70256 0.0
H272 H 0.207 0.31369 0.74475 0.0
H273 H 0.22877 0.29578 0.74761 0.0
H274 H 0.21038 0.32385 0.79815 0.0
H275 H 0.23245 0.30641 0.80071 0.0
H276 H 0.29822 0.28063 0.81748 0.0
H277 H 0.32561 0.2409 0.80197 0.0
H278 H 0.30684 0.23476 0.77977 0.0
H279 H 0.27966 0.27454 0.79504 0.0
C280 C 0.21885 0.73823 0.25864 0.0
C281 C 0.21555 0.73148 0.24285 0.0
C282 C 0.19718 0.71327 0.25586 0.0
C283 C 0.20475 0.71918 0.24146 0.0
C284 C 0.20061 0.72008 0.27165 0.0
C285 C 0.21131 0.73246 0.273 0.0
U286 U 0.25557 0.75862 0.24473 0.0
O287 O 0.26173 0.7841 0.24266 0.0
O288 O 0.27451 0.7683 0.26 0.0
C289 C 0.27208 0.78306 0.25478 0.0
C290 C 0.23042 0.75093 0.26044 0.0
C291 C 0.27094 0.79487 0.26825 0.0
C292 C 0.25651 0.80799 0.28995 0.0
C293 C 0.25732 0.79685 0.27697 0.0
C294 C 0.28296 0.81513 0.28566 0.0
C295 C 0.26934 0.81727 0.29447 0.0
C296 C 0.28373 0.80405 0.27266 0.0
C297 C 0.27782 0.74187 0.20821 0.0
C298 C 0.29997 0.75561 0.19684 0.0
C299 C 0.29452 0.72821 0.18909 0.0
C300 C 0.28158 0.72823 0.19917 0.0
C301 C 0.30392 0.74188 0.18785 0.0
C302 C 0.28706 0.75558 0.20698 0.0
C303 C 0.26458 0.74143 0.21933 0.0
O304 O 0.2439 0.74604 0.26555 0.0
O305 O 0.23099 0.76159 0.24805 0.0
O306 O 0.25511 0.75344 0.21754 0.0
O307 O 0.26762 0.73773 0.23522 0.0
H308 H 0.22133 0.7357 0.2316 0.0
H309 H 0.20228 0.71439 0.22906 0.0
H310 H 0.19523 0.71566 0.28306 0.0
H311 H 0.21382 0.73743 0.28531 0.0
H312 H 0.2458 0.80943 0.29632 0.0
H313 H 0.24734 0.78978 0.27375 0.0
H314 H 0.29313 0.82184 0.28899 0.0
H315 H 0.29436 0.80257 0.26613 0.0
H316 H 0.30683 0.76641 0.19603 0.0
H317 H 0.29733 0.71734 0.1826 0.0
H318 H 0.27463 0.7175 0.20009 0.0
H319 H 0.28435 0.76622 0.21396 0.0
C320 C 0.96195 0.40968 0.21962 0.0
C321 C 0.95249 0.41677 0.23376 0.0
C322 C 0.96151 0.44405 0.23458 0.0
C323 C 0.96635 0.44639 0.2513 0.0
C324 C 0.97821 0.45717 0.255 0.0
C325 C 0.98548 0.46555 0.24163 0.0
C326 C 0.98035 0.46339 0.22474 0.0
C327 C 0.96818 0.45286 0.22148 0.0
C328 C 0.98317 0.45936 0.27317 0.0
C329 C 0.98802 0.47178 0.21008 0.0
C330 C 0.06667 0.40867 0.26024 0.0
C331 C 0.07729 0.42091 0.25177 0.0
C332 C 0.06539 0.44625 0.25761 0.0
C333 C 0.06089 0.45134 0.24133 0.0
C334 C 0.04853 0.46166 0.23897 0.0
C335 C 0.04057 0.46702 0.25322 0.0
C336 C 0.04556 0.46252 0.26969 0.0
C337 C 0.05806 0.4523 0.27167 0.0
C338 C 0.04375 0.46656 0.22125 0.0
C339 C 0.03737 0.46809 0.28514 0.0
C340 C 0.0666 0.57235 0.25178 0.0
C341 C 0.0627 0.56444 0.23675 0.0
C342 C 0.0492 0.55542 0.23548 0.0
C343 C 0.0396 0.55395 0.24965 0.0
C344 C 0.0434 0.56205 0.26472 0.0
C345 C 0.05676 0.57135 0.26548 0.0
C346 C 0.04519 0.54753 0.21893 0.0
C347 C 0.03343 0.5608 0.28007 0.0
C348 C 0.92253 0.56014 0.22212 0.0
C349 C 0.92892 0.57104 0.23593 0.0
C350 C 0.95643 0.56877 0.23476 0.0
C351 C 0.96663 0.56658 0.22164 0.0
C352 C 0.98026 0.55829 0.22443 0.0
C353 C 0.98389 0.55248 0.2409 0.0
C354 C 0.97389 0.55532 0.25439 0.0
C355 C 0.9602 0.56338 0.25115 0.0
C356 C 0.99067 0.55555 0.20977 0.0
C357 C 0.97767 0.5498 0.2722 0.0
C358 C 0.99913 0.47562 0.24518 0.0
C359 C 0.01292 0.4678 0.248 0.0
C360 C 0.02641 0.47635 0.25078 0.0
C361 C 0.02626 0.49325 0.25067 0.0
C362 C 0.03966 0.50224 0.25318 0.0
C363 C 0.03942 0.51887 0.25273 0.0
C364 C 0.02579 0.52716 0.24963 0.0
C365 C 0.0255 0.54406 0.2486 0.0
C366 C 0.0117 0.55191 0.24589 0.0
C367 C 0.99808 0.54334 0.24395 0.0
C368 C 0.99818 0.52643 0.24456 0.0
C369 C 0.98474 0.51741 0.24227 0.0
C370 C 0.98498 0.50078 0.24271 0.0
C371 C 0.99868 0.49251 0.24525 0.0
C372 C 0.01233 0.50135 0.24784 0.0
C373 C 0.01209 0.51833 0.24741 0.0
C374 C 0.1013 0.56444 0.25491 0.0
C375 C 0.0934 0.57854 0.24599 0.0
O376 O 0.95065 0.43302 0.23083 0.0
O377 O 0.94323 0.5765 0.23132 0.0
O378 O 0.07951 0.58128 0.25349 0.0
O379 O 0.0766 0.43537 0.26008 0.0
H380 H 0.95864 0.41473 0.24601 0.0
H381 H 0.97338 0.41541 0.21939 0.0
H382 H 0.95629 0.41169 0.20712 0.0
H383 H 0.96348 0.39663 0.22176 0.0
H384 H 0.96089 0.4397 0.2614 0.0
H385 H 0.96424 0.45095 0.20861 0.0
H386 H 0.99443 0.45372 0.27527 0.0
H387 H 0.97499 0.45387 0.28218 0.0
H388 H 0.98444 0.47228 0.27598 0.0
H389 H 0.9837 0.4675 0.19766 0.0
H390 H 0.0005 0.4699 0.21079 0.0
H391 H 0.98602 0.48483 0.21072 0.0
H392 H 0.07341 0.42236 0.23839 0.0
H393 H 0.06738 0.39694 0.25389 0.0
H394 H 0.05473 0.41283 0.25924 0.0
H395 H 0.0697 0.40707 0.27385 0.0
H396 H 0.06699 0.44724 0.23044 0.0
H397 H 0.06179 0.44847 0.2842 0.0
H398 H 0.04279 0.47978 0.22029 0.0
H399 H 0.03236 0.46139 0.21832 0.0
H400 H 0.05186 0.46248 0.21161 0.0
H401 H 0.04281 0.46373 0.29708 0.0
H402 H 0.02539 0.46378 0.28471 0.0
H403 H 0.03715 0.48136 0.28521 0.0
H404 H 0.09176 0.57571 0.23242 0.0
H405 H 0.06988 0.5655 0.22581 0.0
H406 H 0.05977 0.57764 0.27695 0.0
H407 H 0.0463 0.53437 0.22041 0.0
H408 H 0.05268 0.55162 0.2085 0.0
H409 H 0.0332 0.55006 0.21528 0.0
H410 H 0.03873 0.56653 0.29132 0.0
H411 H 0.031 0.54805 0.28318 0.0
H412 H 0.0224 0.56669 0.27728 0.0
H413 H 0.92957 0.56395 0.24794 0.0
H414 H 0.91108 0.55555 0.22561 0.0
H415 H 0.93013 0.54975 0.22056 0.0
H416 H 0.92166 0.56674 0.20984 0.0
H417 H 0.96368 0.57105 0.20909 0.0
H418 H 0.95258 0.56567 0.26145 0.0
H419 H 0.99317 0.54261 0.20879 0.0
H420 H 0.00163 0.56191 0.21198 0.0
H421 H 0.9857 0.55985 0.19755 0.0
H422 H 0.96944 0.55426 0.28152 0.0
H423 H 0.98927 0.55395 0.27587 0.0
H424 H 0.9776 0.53653 0.27282 0.0
H425 H 0.01319 0.45483 0.24784 0.0
H426 H 0.0505 0.49649 0.25546 0.0
H427 H 0.05009 0.52516 0.25476 0.0
H428 H 0.01156 0.56487 0.24511 0.0
H429 H 0.97388 0.52312 0.24006 0.0
H430 H 0.97429 0.49447 0.24091 0.0
H431 H 0.11246 0.56213 0.24904 0.0
H432 H 0.09418 0.55346 0.25375 0.0
H433 H 0.10312 0.56696 0.26855 0.0
C434 C 0.06007 0.40567 0.77729 0.0
C435 C 0.07018 0.41446 0.76447 0.0
C436 C 0.06098 0.44159 0.76562 0.0
C437 C 0.0556 0.44458 0.74912 0.0
C438 C 0.04386 0.45555 0.74603 0.0
C439 C 0.03731 0.46354 0.75977 0.0
C440 C 0.04306 0.46085 0.77639 0.0
C441 C 0.05505 0.45009 0.77904 0.0
C442 C 0.03824 0.45836 0.72813 0.0
C443 C 0.03622 0.46893 0.7914 0.0
C444 C 0.95183 0.40953 0.75886 0.0
C445 C 0.93995 0.42276 0.76013 0.0
C446 C 0.95559 0.44547 0.75056 0.0
C447 C 0.96214 0.44948 0.76628 0.0
C448 C 0.97505 0.45941 0.76721 0.0
C449 C 0.98172 0.46528 0.75214 0.0
C450 C 0.97498 0.46156 0.73631 0.0
C451 C 0.96183 0.4519 0.73577 0.0
C452 C 0.98173 0.46343 0.78434 0.0
C453 C 0.9819 0.46742 0.71998 0.0
C454 C 0.95757 0.56914 0.74432 0.0
C455 C 0.96198 0.56342 0.76039 0.0
C456 C 0.97562 0.55501 0.7627 0.0
C457 C 0.98489 0.55214 0.74859 0.0
C458 C 0.98069 0.5584 0.73247 0.0
C459 C 0.96714 0.56703 0.73061 0.0
C460 C 0.98003 0.54905 0.78018 0.0
C461 C 0.99035 0.55568 0.71718 0.0
C462 C 0.10193 0.55738 0.7707 0.0
C463 C 0.0961 0.56936 0.75734 0.0
C464 C 0.06862 0.56715 0.75979 0.0
C465 C 0.05879 0.56558 0.77345 0.0
C466 C 0.04498 0.55715 0.77189 0.0
C467 C 0.04076 0.55056 0.7561 0.0
C468 C 0.05038 0.55274 0.74202 0.0
C469 C 0.06428 0.56093 0.74405 0.0
C470 C 0.03499 0.55515 0.78714 0.0
C471 C 0.04597 0.54642 0.72485 0.0
C472 C 0.02371 0.47369 0.75692 0.0
C473 C 0.00965 0.46593 0.75529 0.0
C474 C 0.99621 0.47452 0.75301 0.0
C475 C 0.99674 0.49142 0.75225 0.0
C476 C 0.98344 0.50045 0.75009 0.0
C477 C 0.98408 0.51708 0.74936 0.0
C478 C 0.99803 0.52532 0.75102 0.0
C479 C 0.99875 0.54223 0.75059 0.0
C480 C 0.01281 0.55004 0.7522 0.0
C481 C 0.02627 0.54143 0.75432 0.0
C482 C 0.02577 0.5245 0.75488 0.0
C483 C 0.03907 0.51544 0.75714 0.0
C484 C 0.03845 0.4988 0.75762 0.0
C485 C 0.0245 0.49058 0.75612 0.0
C486 C 0.01095 0.49947 0.75381 0.0
C487 C 0.01159 0.51644 0.75321 0.0
C488 C 0.9236 0.56034 0.73264 0.0
C489 C 0.93016 0.57093 0.74663 0.0
O490 O 0.07172 0.43038 0.76889 0.0
O491 O 0.08203 0.57502 0.76208 0.0
O492 O 0.94424 0.57689 0.74177 0.0
O493 O 0.94347 0.43531 0.74913 0.0
H494 H 0.06468 0.41353 0.75175 0.0
H495 H 0.04858 0.41108 0.77725 0.0
H496 H 0.06505 0.4065 0.79025 0.0
H497 H 0.05879 0.39287 0.77395 0.0
H498 H 0.06055 0.43831 0.73869 0.0
H499 H 0.05942 0.44775 0.79171 0.0
H500 H 0.02667 0.45311 0.72664 0.0
H501 H 0.04578 0.45288 0.7187 0.0
H502 H 0.03742 0.47138 0.72536 0.0
H503 H 0.04136 0.46478 0.80358 0.0
H504 H 0.02378 0.46658 0.79168 0.0
H505 H 0.03791 0.48206 0.79023 0.0
H506 H 0.93977 0.42709 0.77333 0.0
H507 H 0.94894 0.39933 0.76743 0.0
H508 H 0.96323 0.41414 0.76266 0.0
H509 H 0.95239 0.40518 0.74567 0.0
H510 H 0.95727 0.44499 0.7779 0.0
H511 H 0.95666 0.44885 0.7237 0.0
H512 H 0.98381 0.47651 0.7852 0.0
H513 H 0.99286 0.45739 0.78603 0.0
H514 H 0.97422 0.45958 0.79485 0.0
H515 H 0.9757 0.46283 0.70869 0.0
H516 H 0.99396 0.46364 0.71942 0.0
H517 H 0.98179 0.48069 0.71946 0.0
H518 H 0.93131 0.56343 0.75832 0.0
H519 H 0.95484 0.56563 0.77114 0.0
H520 H 0.9637 0.57174 0.71831 0.0
H521 H 0.97929 0.5358 0.78063 0.0
H522 H 0.97255 0.55383 0.79008 0.0
H523 H 0.99199 0.55249 0.78317 0.0
H524 H 0.98511 0.56065 0.70539 0.0
H525 H 0.99217 0.54267 0.71558 0.0
H526 H 0.00168 0.56138 0.71908 0.0
H527 H 0.09514 0.56313 0.74504 0.0
H528 H 0.11321 0.55273 0.7671 0.0
H529 H 0.0939 0.5471 0.77175 0.0
H530 H 0.10298 0.56313 0.78326 0.0
H531 H 0.06217 0.57065 0.78548 0.0
H532 H 0.07159 0.56272 0.73328 0.0
H533 H 0.0322 0.5423 0.78924 0.0
H534 H 0.02412 0.56153 0.78485 0.0
H535 H 0.04045 0.5599 0.79881 0.0
H536 H 0.05394 0.55049 0.71485 0.0
H537 H 0.03431 0.55035 0.7213 0.0
H538 H 0.04589 0.53315 0.7253 0.0
H539 H 0.00912 0.45296 0.75602 0.0
H540 H 0.97238 0.49477 0.7489 0.0
H541 H 0.97347 0.52338 0.74755 0.0
H542 H 0.01327 0.56301 0.75185 0.0
H543 H 0.05011 0.52111 0.75855 0.0
H544 H 0.04906 0.49245 0.75929 0.0
H545 H 0.91231 0.55546 0.73632 0.0
H546 H 0.9313 0.55014 0.73051 0.0
H547 H 0.92235 0.56727 0.7206 0.0
C548 C 0.23755 0.08893 0.57309 0.0
C549 C 0.24861 0.08198 0.58644 0.0
C550 C 0.26488 0.06417 0.57016 0.0
C551 C 0.27959 0.06184 0.56425 0.0
C552 C 0.2832 0.04831 0.55485 0.0
C553 C 0.27168 0.03698 0.55097 0.0
C554 C 0.25676 0.03921 0.55693 0.0
C555 C 0.25356 0.05266 0.56661 0.0
C556 C 0.2993 0.04615 0.54903 0.0
C557 C 0.24414 0.02741 0.55303 0.0
C558 C 0.26049 0.91315 0.59142 0.0
C559 C 0.25904 0.92774 0.58052 0.0
C560 C 0.27372 0.95007 0.56885 0.0
C561 C 0.26159 0.95605 0.5589 0.0
C562 C 0.26315 0.97025 0.54943 0.0
C563 C 0.27726 0.97853 0.54952 0.0
C564 C 0.28961 0.97239 0.55917 0.0
C565 C 0.28766 0.95824 0.56876 0.0
C566 C 0.2496 0.97647 0.53947 0.0
C567 C 0.30483 0.98084 0.55942 0.0
C568 C 0.2834 0.95363 0.43934 0.0
C569 C 0.26954 0.95773 0.44663 0.0
C570 C 0.26825 0.97179 0.45596 0.0
C571 C 0.28115 0.98184 0.45817 0.0
C572 C 0.29503 0.97791 0.45048 0.0
C573 C 0.2959 0.96393 0.44096 0.0
C574 C 0.2531 0.97592 0.4634 0.0
C575 C 0.30897 0.9884 0.45246 0.0
C576 C 0.25322 0.10157 0.4536 0.0
C577 C 0.26643 0.09835 0.44172 0.0
C578 C 0.2675 0.06941 0.44206 0.0
C579 C 0.25603 0.05783 0.44329 0.0
C580 C 0.25858 0.04333 0.452 0.0
C581 C 0.27313 0.04022 0.45914 0.0
C582 C 0.28501 0.05162 0.45714 0.0
C583 C 0.28201 0.0662 0.44875 0.0
C584 C 0.24565 0.03147 0.4538 0.0
C585 C 0.30082 0.04847 0.46397 0.0
C586 C 0.27512 0.02278 0.54065 0.0
C587 C 0.27671 0.00803 0.54903 0.0
C588 C 0.27868 0.99395 0.54005 0.0
C589 C 0.27989 0.99462 0.52224 0.0
C590 C 0.28251 0.98077 0.51289 0.0
C591 C 0.28286 0.98139 0.4953 0.0
C592 C 0.28046 0.99586 0.48639 0.0
C593 C 0.28006 0.99648 0.46849 0.0
C594 C 0.27792 0.0111 0.46004 0.0
C595 C 0.27582 0.0252 0.46897 0.0
C596 C 0.27583 0.02476 0.48687 0.0
C597 C 0.27322 0.03859 0.49627 0.0
C598 C 0.27311 0.03801 0.51386 0.0
C599 C 0.27555 0.02356 0.52277 0.0
C600 C 0.27808 0.00944 0.51356 0.0
C601 C 0.27825 0.01005 0.49559 0.0
C602 C 0.29174 0.91709 0.44666 0.0
C603 C 0.27985 0.92499 0.43503 0.0
O604 O 0.26215 0.07767 0.57904 0.0
O605 O 0.26433 0.08357 0.43428 0.0
O606 O 0.28495 0.94012 0.43024 0.0
O607 O 0.27233 0.93663 0.57871 0.0
H608 H 0.24321 0.07129 0.59245 0.0
H609 H 0.23431 0.07979 0.56365 0.0
H610 H 0.24279 0.09921 0.56621 0.0
H611 H 0.22699 0.09297 0.57921 0.0
H612 H 0.28829 0.0707 0.56709 0.0
H613 H 0.24213 0.05406 0.57117 0.0
H614 H 0.30332 0.03396 0.55246 0.0
H615 H 0.30726 0.05508 0.55461 0.0
H616 H 0.29966 0.04738 0.53504 0.0
H617 H 0.23281 0.0319 0.55666 0.0
H618 H 0.24629 0.01605 0.56007 0.0
H619 H 0.24385 0.02469 0.53932 0.0
H620 H 0.24903 0.93528 0.58346 0.0
H621 H 0.25306 0.91536 0.60261 0.0
H622 H 0.2715 0.9145 0.59875 0.0
H623 H 0.25635 0.89449 0.5746 0.0
H624 H 0.25077 0.9498 0.55854 0.0
H625 H 0.297 0.95354 0.57635 0.0
H626 H 0.25179 0.97555 0.52574 0.0
H627 H 0.24774 0.98928 0.54223 0.0
H628 H 0.239 0.96969 0.54233 0.0
H629 H 0.31369 0.97378 0.56624 0.0
H630 H 0.30372 0.99255 0.56571 0.0
H631 H 0.30861 0.98327 0.54627 0.0
H632 H 0.26904 0.92573 0.44209 0.0
H633 H 0.25962 0.95018 0.44476 0.0
H634 H 0.30647 0.96077 0.43501 0.0
H635 H 0.25384 0.97492 0.4774 0.0
H636 H 0.2438 0.96789 0.45891 0.0
H637 H 0.2501 0.98847 0.4601 0.0
H638 H 0.31918 0.98306 0.44675 0.0
H639 H 0.31134 0.99053 0.46607 0.0
H640 H 0.30687 1.0002 0.44628 0.0
H641 H 0.27719 0.09848 0.44929 0.0
H642 H 0.25473 0.11338 0.45968 0.0
H643 H 0.25282 0.09224 0.46373 0.0
H644 H 0.24222 0.1014 0.4465 0.0
H645 H 0.24493 0.06041 0.43786 0.0
H646 H 0.29101 0.075 0.44726 0.0
H647 H 0.24429 0.02796 0.4673 0.0
H648 H 0.24828 0.02049 0.44672 0.0
H649 H 0.2347 0.03632 0.4489 0.0
H650 H 0.3092 0.05749 0.45937 0.0
H651 H 0.3046 0.0364 0.46026 0.0
H652 H 0.30074 0.04875 0.47799 0.0
H653 H 0.27566 0.00741 0.56268 0.0
H654 H 0.28426 0.96929 0.51909 0.0
H655 H 0.28488 0.97035 0.48876 0.0
H656 H 0.27762 0.01148 0.44632 0.0
H657 H 0.27114 0.05004 0.49013 0.0
H658 H 0.27096 0.04904 0.52038 0.0
H659 H 0.30277 0.91609 0.44008 0.0
H660 H 0.28784 0.90497 0.4507 0.0
H661 H 0.29352 0.92438 0.45816 0.0
C662 C 0.45184 0.71004 0.10839 0.0
C663 C 0.44483 0.72437 0.09895 0.0
C664 C 0.45498 0.72309 0.07089 0.0
C665 C 0.46074 0.73837 0.06722 0.0
C666 C 0.47324 0.74042 0.05652 0.0
C667 C 0.4802 0.72683 0.04961 0.0
C668 C 0.47417 0.71137 0.05312 0.0
C669 C 0.46141 0.70974 0.06349 0.0
C670 C 0.47916 0.75708 0.05285 0.0
C671 C 0.48147 0.69655 0.04634 0.0
C672 C 0.56123 0.74887 0.11102 0.0
C673 C 0.57117 0.73707 0.1016 0.0
C674 C 0.56061 0.73904 0.07323 0.0
C675 C 0.55475 0.72366 0.07045 0.0
C676 C 0.54243 0.72128 0.05927 0.0
C677 C 0.53578 0.73461 0.05087 0.0
C678 C 0.54197 0.75011 0.05334 0.0
C679 C 0.55452 0.75207 0.06431 0.0
C680 C 0.53634 0.70456 0.05666 0.0
C681 C 0.53507 0.76461 0.04478 0.0
C682 C 0.56535 0.729 0.94221 0.0
C683 C 0.56097 0.71502 0.95106 0.0
C684 C 0.54699 0.71412 0.9594 0.0
C685 C 0.53739 0.72762 0.95934 0.0
C686 C 0.54168 0.74163 0.95029 0.0
C687 C 0.55553 0.74203 0.94166 0.0
C688 C 0.54255 0.69875 0.96838 0.0
C689 C 0.53175 0.75625 0.94991 0.0
C690 C 0.41798 0.70797 0.94727 0.0
C691 C 0.42684 0.71901 0.93527 0.0
C692 C 0.45405 0.71538 0.94009 0.0
C693 C 0.46343 0.70262 0.94474 0.0
C694 C 0.47703 0.70518 0.95383 0.0
C695 C 0.48147 0.72096 0.958 0.0
C696 C 0.47236 0.73399 0.95262 0.0
C697 C 0.45873 0.73106 0.9437 0.0
C698 C 0.48655 0.69102 0.95921 0.0
C699 C 0.47701 0.75099 0.9564 0.0
C700 C 0.49433 0.72869 0.03967 0.0
C701 C 0.50796 0.73104 0.04862 0.0
C702 C 0.52184 0.73242 0.0403 0.0
C703 C 0.52222 0.73138 0.02248 0.0
C704 C 0.53598 0.73255 0.0137 0.0
C705 C 0.53624 0.73143 0.99616 0.0
C706 C 0.52278 0.7288 0.98674 0.0
C707 C 0.52299 0.72715 0.96896 0.0
C708 C 0.50937 0.72469 0.95999 0.0
C709 C 0.49546 0.72378 0.9683 0.0
C710 C 0.49503 0.72528 0.98609 0.0
C711 C 0.48124 0.72432 0.99486 0.0
C712 C 0.48095 0.72565 0.01238 0.0
C713 C 0.49446 0.72779 0.02182 0.0
C714 C 0.50847 0.72902 0.01322 0.0
C715 C 0.50876 0.72774 0.99533 0.0
C716 C 0.59934 0.72484 0.95344 0.0
C717 C 0.59168 0.72113 0.93639 0.0
O718 O 0.44343 0.72101 0.08188 0.0
O719 O 0.44075 0.71218 0.93183 0.0
O720 O 0.57884 0.73049 0.93408 0.0
O721 O 0.57197 0.7416 0.08468 0.0
H722 H 0.4525 0.73491 0.10076 0.0
H723 H 0.46335 0.70767 0.10344 0.0
H724 H 0.44466 0.69917 0.10668 0.0
H725 H 0.453 0.71254 0.12211 0.0
H726 H 0.45549 0.74866 0.07283 0.0
H727 H 0.45677 0.698 0.06643 0.0
H728 H 0.49032 0.75875 0.05935 0.0
H729 H 0.47129 0.76643 0.05723 0.0
H730 H 0.48097 0.75878 0.03906 0.0
H731 H 0.47631 0.68541 0.05161 0.0
H732 H 0.49383 0.69661 0.04938 0.0
H733 H 0.48018 0.69642 0.03237 0.0
H734 H 0.56594 0.72494 0.1028 0.0
H735 H 0.56051 0.74542 0.12461 0.0
H736 H 0.54952 0.7488 0.10558 0.0
H737 H 0.56597 0.76119 0.10993 0.0
H738 H 0.55981 0.71352 0.07701 0.0
H739 H 0.55925 0.76388 0.0665 0.0
H740 H 0.5249 0.70343 0.06233 0.0
H741 H 0.54383 0.69533 0.06253 0.0
H742 H 0.53508 0.70215 0.04293 0.0
H743 H 0.54073 0.77591 0.04873 0.0
H744 H 0.52279 0.76526 0.04775 0.0
H745 H 0.53599 0.76359 0.03085 0.0
H746 H 0.58846 0.70826 0.93604 0.0
H747 H 0.56829 0.70472 0.95151 0.0
H748 H 0.55893 0.75272 0.93472 0.0
H749 H 0.54343 0.70041 0.98226 0.0
H750 H 0.54997 0.68865 0.96497 0.0
H751 H 0.53057 0.69549 0.96529 0.0
H752 H 0.53732 0.76664 0.94355 0.0
H753 H 0.52883 0.75962 0.963 0.0
H754 H 0.52095 0.75352 0.94307 0.0
H755 H 0.42839 0.73062 0.94175 0.0
H756 H 0.40672 0.71318 0.95005 0.0
H757 H 0.42441 0.70651 0.95938 0.0
H758 H 0.41625 0.69597 0.94166 0.0
H759 H 0.45984 0.69058 0.94159 0.0
H760 H 0.45186 0.74104 0.9394 0.0
H761 H 0.48815 0.6909 0.97317 0.0
H762 H 0.49798 0.69208 0.9535 0.0
H763 H 0.48131 0.67947 0.95537 0.0
H764 H 0.46924 0.75985 0.95036 0.0
H765 H 0.48875 0.75333 0.95191 0.0
H766 H 0.47706 0.75277 0.97028 0.0
H767 H 0.50779 0.73167 0.06232 0.0
H768 H 0.54672 0.73436 0.02029 0.0
H769 H 0.54717 0.73254 0.9901 0.0
H770 H 0.50962 0.72337 0.94637 0.0
H771 H 0.47049 0.72251 0.9883 0.0
H772 H 0.47 0.72486 0.01845 0.0
H773 H 0.60966 0.71744 0.95537 0.0
H774 H 0.59146 0.7221 0.96396 0.0
H775 H 0.60263 0.73769 0.95398 0.0
C776 C 0.78553 0.07346 0.60746 0.0
C777 C 0.78161 0.08525 0.593 0.0
C778 C 0.772 0.06609 0.57195 0.0
C779 C 0.78621 0.06004 0.56734 0.0
C780 C 0.78718 0.04642 0.55726 0.0
C781 C 0.7737 0.03864 0.55173 0.0
C782 C 0.75939 0.04496 0.55591 0.0
C783 C 0.75875 0.0587 0.56585 0.0
C784 C 0.80263 0.04017 0.55276 0.0
C785 C 0.7448 0.037 0.55015 0.0
C786 C 0.79609 0.91744 0.56649 0.0
C787 C 0.7826 0.92284 0.57696 0.0
C788 C 0.78323 0.95172 0.57416 0.0
C789 C 0.76895 0.95538 0.56713 0.0
C790 C 0.76678 0.96952 0.55765 0.0
C791 C 0.77928 0.98 0.55489 0.0
C792 C 0.79362 0.97647 0.56236 0.0
C793 C 0.79532 0.96246 0.57215 0.0
C794 C 0.75118 0.97319 0.55051 0.0
C795 C 0.80718 0.98739 0.55986 0.0
C796 C 0.77372 0.94664 0.44668 0.0
C797 C 0.76077 0.95236 0.45483 0.0
C798 C 0.76106 0.96718 0.46293 0.0
C799 C 0.77468 0.97632 0.46332 0.0
C800 C 0.78773 0.97063 0.45514 0.0
C801 C 0.78701 0.95593 0.44678 0.0
C802 C 0.74677 0.97302 0.47114 0.0
C803 C 0.80248 0.97998 0.45537 0.0
C804 C 0.78476 0.09977 0.44382 0.0
C805 C 0.78504 0.08884 0.42845 0.0
C806 C 0.77434 0.06357 0.43965 0.0
C807 C 0.76101 0.05447 0.4412 0.0
C808 C 0.76057 0.04055 0.45135 0.0
C809 C 0.77396 0.03542 0.45987 0.0
C810 C 0.78761 0.04431 0.45803 0.0
C811 C 0.78761 0.05841 0.44821 0.0
C812 C 0.74579 0.03143 0.45309 0.0
C813 C 0.80226 0.03895 0.46646 0.0
C814 C 0.77461 0.02342 0.54237 0.0
C815 C 0.77608 0.00926 0.55185 0.0
C816 C 0.77744 0.9945 0.54399 0.0
C817 C 0.77722 0.99373 0.52613 0.0
C818 C 0.77878 0.97911 0.51778 0.0
C819 C 0.77817 0.97843 0.50022 0.0
C820 C 0.77617 0.99236 0.4903 0.0
C821 C 0.77522 0.99174 0.47244 0.0
C822 C 0.77424 0.00593 0.46293 0.0
C823 C 0.77377 0.02079 0.47077 0.0
C824 C 0.7738 0.02157 0.48864 0.0
C825 C 0.77255 0.03624 0.49697 0.0
C826 C 0.77283 0.03689 0.51456 0.0
C827 C 0.7743 0.0229 0.52449 0.0
C828 C 0.77553 0.00798 0.51636 0.0
C829 C 0.77516 0.0073 0.49842 0.0
C830 C 0.76356 0.91116 0.45578 0.0
C831 C 0.76289 0.92042 0.43891 0.0
O832 O 0.77052 0.07876 0.58241 0.0
O833 O 0.77385 0.07711 0.42985 0.0
O834 O 0.77397 0.93234 0.43865 0.0
O835 O 0.78556 0.93801 0.58311 0.0
H836 H 0.792 0.08802 0.58561 0.0
H837 H 0.79033 0.0623 0.60244 0.0
H838 H 0.77519 0.07033 0.61477 0.0
H839 H 0.79416 0.0788 0.61613 0.0
H840 H 0.79661 0.06574 0.57165 0.0
H841 H 0.74785 0.06351 0.56932 0.0
H842 H 0.8044 0.02839 0.55908 0.0
H843 H 0.81199 0.04838 0.55669 0.0
H844 H 0.80325 0.03836 0.5389 0.0
H845 H 0.73457 0.04337 0.55453 0.0
H846 H 0.74439 0.02449 0.55502 0.0
H847 H 0.74441 0.03655 0.53613 0.0
H848 H 0.77229 0.92297 0.56863 0.0
H849 H 0.79391 0.90532 0.56137 0.0
H850 H 0.80666 0.9172 0.57436 0.0
H851 H 0.79783 0.92583 0.55565 0.0
H852 H 0.75947 0.94727 0.56923 0.0
H853 H 0.80624 0.95958 0.57789 0.0
H854 H 0.74816 0.98579 0.55304 0.0
H855 H 0.74228 0.96518 0.5559 0.0
H856 H 0.75118 0.9717 0.53659 0.0
H857 H 0.81789 0.98197 0.56474 0.0
H858 H 0.80532 0.99871 0.56664 0.0
H859 H 0.80852 0.99041 0.54624 0.0
H860 H 0.75145 0.92582 0.43721 0.0
H861 H 0.75034 0.94543 0.45498 0.0
H862 H 0.79694 0.95149 0.44046 0.0
H863 H 0.74818 0.97232 0.4851 0.0
H864 H 0.73661 0.96579 0.46752 0.0
H865 H 0.74468 0.98572 0.46759 0.0
H866 H 0.81197 0.97321 0.44984 0.0
H867 H 0.80562 0.98319 0.46855 0.0
H868 H 0.80102 0.9913 0.44803 0.0
H869 H 0.7964 0.08322 0.42773 0.0
H870 H 0.79358 0.10931 0.44265 0.0
H871 H 0.78716 0.09279 0.45559 0.0
H872 H 0.77344 0.10541 0.44495 0.0
H873 H 0.75083 0.05847 0.43457 0.0
H874 H 0.79808 0.0652 0.44734 0.0
H875 H 0.74328 0.02928 0.46667 0.0
H876 H 0.74682 0.01958 0.44708 0.0
H877 H 0.73608 0.03785 0.44706 0.0
H878 H 0.81229 0.04567 0.46161 0.0
H879 H 0.80404 0.02599 0.46445 0.0
H880 H 0.80161 0.04084 0.48028 0.0
H881 H 0.77629 0.00975 0.56556 0.0
H882 H 0.7804 0.96799 0.52473 0.0
H883 H 0.77934 0.96682 0.49452 0.0
H884 H 0.77388 0.0054 0.44922 0.0
H885 H 0.77131 0.04739 0.48998 0.0
H886 H 0.77187 0.04852 0.52027 0.0
H887 H 0.75477 0.90154 0.45598 0.0
H888 H 0.77495 0.90573 0.45776 0.0
H889 H 0.76137 0.91927 0.46644 0.0
C890 C 0.46509 0.29867 0.11606 0.0
C891 C 0.45198 0.30283 0.10384 0.0
C892 C 0.46376 0.29538 0.07732 0.0
C893 C 0.4696 0.31037 0.07227 0.0
C894 C 0.48133 0.31156 0.06045 0.0
C895 C 0.48745 0.29748 0.05369 0.0
C896 C 0.48131 0.28238 0.0584 0.0
C897 C 0.46934 0.28157 0.06996 0.0
C898 C 0.48734 0.32788 0.05538 0.0
C899 C 0.48767 0.26711 0.05158 0.0
C900 C 0.57943 0.32772 0.1064 0.0
C901 C 0.58107 0.31191 0.09716 0.0
C902 C 0.56889 0.31139 0.0696 0.0
C903 C 0.56306 0.29579 0.06871 0.0
C904 C 0.55016 0.29241 0.05869 0.0
C905 C 0.54286 0.30499 0.04966 0.0
C906 C 0.54896 0.32072 0.05034 0.0
C907 C 0.56214 0.32363 0.06006 0.0
C908 C 0.54417 0.27547 0.05803 0.0
C909 C 0.54132 0.33454 0.04126 0.0
C910 C 0.5638 0.30002 0.93843 0.0
C911 C 0.55892 0.28559 0.94602 0.0
C912 C 0.54568 0.28497 0.95574 0.0
C913 C 0.53728 0.29908 0.95811 0.0
C914 C 0.54196 0.31354 0.95016 0.0
C915 C 0.55507 0.31375 0.94023 0.0
C916 C 0.5407 0.26922 0.96352 0.0
C917 C 0.53324 0.3288 0.95237 0.0
C918 C 0.41897 0.30551 0.95398 0.0
C919 C 0.42706 0.3036 0.9371 0.0
C920 C 0.45236 0.29392 0.94612 0.0
C921 C 0.46129 0.28028 0.94811 0.0
C922 C 0.47564 0.28097 0.95608 0.0
C923 C 0.48127 0.2958 0.96197 0.0
C924 C 0.47249 0.30977 0.95961 0.0
C925 C 0.45807 0.30868 0.95187 0.0
C926 C 0.48468 0.26584 0.95841 0.0
C927 C 0.47829 0.32585 0.96543 0.0
C928 C 0.50084 0.29855 0.04248 0.0
C929 C 0.51512 0.30062 0.05013 0.0
C930 C 0.52829 0.30194 0.04051 0.0
C931 C 0.5273 0.3009 0.0227 0.0
C932 C 0.54035 0.30173 0.01265 0.0
C933 C 0.53922 0.30106 0.9951 0.0
C934 C 0.52499 0.29941 0.98693 0.0
C935 C 0.52371 0.29872 0.96909 0.0
C936 C 0.50936 0.29746 0.96138 0.0
C937 C 0.49616 0.29666 0.97101 0.0
C938 C 0.49722 0.29694 0.98887 0.0
C939 C 0.48419 0.29579 0.99896 0.0
C940 C 0.48533 0.29632 0.01651 0.0
C941 C 0.49955 0.29793 0.02466 0.0
C942 C 0.51285 0.29905 0.01474 0.0
C943 C 0.51169 0.29844 0.99684 0.0
C944 C 0.59866 0.3007 0.94723 0.0
C945 C 0.59015 0.29306 0.93233 0.0
O946 O 0.45292 0.29377 0.08933 0.0
O947 O 0.43839 0.29222 0.93871 0.0
O948 O 0.57667 0.30113 0.92913 0.0
O949 O 0.58087 0.3149 0.07987 0.0
H950 H 0.45269 0.31577 0.10054 0.0
H951 H 0.47617 0.3016 0.11014 0.0
H952 H 0.46486 0.2857 0.11937 0.0
H953 H 0.46427 0.30567 0.12784 0.0
H954 H 0.46502 0.3212 0.07737 0.0
H955 H 0.46466 0.27007 0.07381 0.0
H956 H 0.49905 0.32944 0.06053 0.0
H957 H 0.48018 0.33767 0.06015 0.0
H958 H 0.48792 0.32896 0.04139 0.0
H959 H 0.48215 0.2563 0.05717 0.0
H960 H 0.50009 0.26658 0.05424 0.0
H961 H 0.48603 0.2669 0.03765 0.0
H962 H 0.57124 0.30414 0.10082 0.0
H963 H 0.57941 0.32561 0.12031 0.0
H964 H 0.56852 0.33344 0.10264 0.0
H965 H 0.58891 0.33606 0.10318 0.0
H966 H 0.56858 0.28631 0.07591 0.0
H967 H 0.56686 0.33561 0.06084 0.0
H968 H 0.53338 0.27458 0.06511 0.0
H969 H 0.55234 0.26676 0.06366 0.0
H970 H 0.54166 0.2721 0.04474 0.0
H971 H 0.54657 0.34623 0.04457 0.0
H972 H 0.52906 0.33479 0.04439 0.0
H973 H 0.54216 0.33301 0.02739 0.0
H974 H 0.58782 0.28033 0.93561 0.0
H975 H 0.56515 0.2747 0.94419 0.0
H976 H 0.55881 0.32477 0.93414 0.0
H977 H 0.54182 0.26979 0.9775 0.0
H978 H 0.54756 0.25905 0.9591 0.0
H979 H 0.52854 0.26685 0.96042 0.0
H980 H 0.53886 0.33924 0.94615 0.0
H981 H 0.53204 0.33128 0.96604 0.0
H982 H 0.52161 0.32741 0.9469 0.0
H983 H 0.43211 0.31527 0.93311 0.0
H984 H 0.40978 0.31449 0.95266 0.0
H985 H 0.4271 0.30968 0.96386 0.0
H986 H 0.41395 0.29392 0.95826 0.0
H987 H 0.45685 0.26896 0.9436 0.0
H988 H 0.4514 0.31942 0.95047 0.0
H989 H 0.48774 0.26406 0.97198 0.0
H990 H 0.49545 0.26691 0.9513 0.0
H991 H 0.47835 0.25511 0.95395 0.0
H992 H 0.47094 0.33581 0.9609 0.0
H993 H 0.49002 0.32801 0.96085 0.0
H994 H 0.47873 0.32597 0.97946 0.0
H995 H 0.51597 0.3014 0.0638 0.0
H996 H 0.5516 0.30295 0.01825 0.0
H997 H 0.54965 0.30189 0.98802 0.0
H998 H 0.50846 0.2971 0.94769 0.0
H999 H 0.47294 0.29448 0.9934 0.0
H1000 H 0.47491 0.29549 0.02362 0.0
H1001 H 0.60958 0.29446 0.94976 0.0
H1002 H 0.59169 0.29975 0.95881 0.0
H1003 H 0.60105 0.31355 0.94452 0.0
C1004 C 0.20236 0.35674 0.26839 0.0
C1005 C 0.20794 0.35076 0.25317 0.0
C1006 C 0.18876 0.36529 0.26853 0.0
C1007 C 0.15321 0.37039 0.24409 0.0
H1008 H 0.14865 0.40897 0.27007 0.0
C1009 C 0.09971 0.40876 0.23719 0.0
C1010 C 0.09344 0.4148 0.25201 0.0
C1011 C 0.11409 0.40185 0.23754 0.0
C1012 C 0.1497 0.39812 0.26289 0.0
H1013 H 0.2036 0.34911 0.22618 0.0
H1014 H 0.18004 0.36415 0.2264 0.0
H1015 H 0.17303 0.39511 0.27046 0.0
H1016 H 0.09733 0.4184 0.2788 0.0
H1017 H 0.12249 0.40611 0.27948 0.0
H1018 H 0.12994 0.3732 0.23664 0.0
C1019 C 0.18612 0.36215 0.23824 0.0
C1020 C 0.16366 0.3902 0.26311 0.0
C1021 C 0.19971 0.35368 0.23809 0.0
C1022 C 0.10197 0.41397 0.26716 0.0
C1023 C 0.11638 0.40699 0.26752 0.0
C1024 C 0.13929 0.37826 0.24392 0.0
C1025 C 0.18041 0.36794 0.25347 0.0
C1026 C 0.16559 0.3763 0.2536 0.0
C1027 C 0.12252 0.40065 0.25275 0.0
C1028 C 0.13738 0.39228 0.25321 0.0
H1029 H 0.20851 0.35479 0.2802 0.0
H1030 H 0.18461 0.36952 0.28048 0.0
H1031 H 0.15423 0.35953 0.23691 0.0
H1032 H 0.09337 0.40916 0.22535 0.0
H1033 H 0.11858 0.39734 0.22586 0.0
C1034 C 0.19214 0.67798 0.75986 0.0
C1035 C 0.20545 0.67381 0.75139 0.0
C1036 C 0.17947 0.66775 0.75978 0.0
C1037 C 0.16135 0.63467 0.73662 0.0
H1038 H 0.1425 0.62434 0.7795 0.0
C1039 C 0.11955 0.58165 0.74424 0.0
C1040 C 0.10738 0.58305 0.75543 0.0
C1041 C 0.13072 0.59359 0.74317 0.0
C1042 C 0.14742 0.62728 0.76736 0.0
H1043 H 0.21578 0.6559 0.73581 0.0
H1044 H 0.19362 0.63806 0.73561 0.0
H1045 H 0.16327 0.64379 0.77847 0.0
H1046 H 0.09763 0.59793 0.77464 0.0
H1047 H 0.11678 0.61909 0.77232 0.0
H1048 H 0.14548 0.61831 0.72543 0.0
C1049 C 0.193 0.64922 0.74232 0.0
C1050 C 0.15937 0.63841 0.7668 0.0
C1051 C 0.20572 0.65936 0.74256 0.0
C1052 C 0.10669 0.59665 0.76564 0.0
C1053 C 0.11779 0.60868 0.76445 0.0
C1054 C 0.1493 0.62367 0.73714 0.0
C1055 C 0.17979 0.65324 0.75106 0.0
C1056 C 0.16657 0.64208 0.75146 0.0
C1057 C 0.13002 0.60726 0.75328 0.0
C1058 C 0.14228 0.61967 0.75255 0.0
H1059 H 0.19163 0.68898 0.76686 0.0
H1060 H 0.16941 0.6712 0.76652 0.0
H1061 H 0.16656 0.63744 0.72458 0.0
H1062 H 0.12055 0.57113 0.73653 0.0
H1063 H 0.14012 0.59187 0.73471 0.0
C1064 C 0.83863 0.68302 0.23696 0.0
C1065 C 0.82491 0.6787 0.24477 0.0
C1066 C 0.85083 0.67242 0.23701 0.0
C1067 C 0.86683 0.63719 0.25896 0.0
H1068 H 0.88576 0.62905 0.21598 0.0
C1069 C 0.90601 0.58323 0.24941 0.0
C1070 C 0.91834 0.58497 0.23843 0.0
C1071 C 0.89545 0.59549 0.25097 0.0
C1072 C 0.88083 0.63136 0.22816 0.0
H1073 H 0.81335 0.66016 0.25924 0.0
H1074 H 0.83471 0.64165 0.2594 0.0
H1075 H 0.86602 0.64918 0.21757 0.0
H1076 H 0.92908 0.60084 0.22012 0.0
H1077 H 0.91106 0.62249 0.22332 0.0
H1078 H 0.88167 0.61949 0.26964 0.0
C1079 C 0.83601 0.65321 0.25322 0.0
C1080 C 0.86947 0.64288 0.22904 0.0
C1081 C 0.82376 0.66374 0.253 0.0
C1082 C 0.91987 0.59924 0.22895 0.0
C1083 C 0.90941 0.61158 0.23064 0.0
C1084 C 0.87831 0.62578 0.25813 0.0
C1085 C 0.8496 0.65737 0.24505 0.0
C1086 C 0.86224 0.64578 0.2444 0.0
C1087 C 0.89698 0.60982 0.24155 0.0
C1088 C 0.88534 0.62258 0.24268 0.0
H1089 H 0.83981 0.69443 0.23043 0.0
H1090 H 0.86122 0.67597 0.23073 0.0
H1091 H 0.86157 0.63933 0.27102 0.0
H1092 H 0.90437 0.57222 0.25657 0.0
H1093 H 0.88587 0.59353 0.25921 0.0
C1094 C 0.82387 0.34298 0.74849 0.0
C1095 C 0.81755 0.34052 0.7323 0.0
C1096 C 0.83589 0.35381 0.75081 0.0
C1097 C 0.86737 0.37294 0.72789 0.0
H1098 H 0.86996 0.40001 0.76722 0.0
C1099 C 0.91874 0.41523 0.73934 0.0
C1100 C 0.92431 0.41597 0.75606 0.0
C1101 C 0.90477 0.40778 0.73578 0.0
C1102 C 0.86947 0.39244 0.75623 0.0
H1103 H 0.81855 0.34798 0.70595 0.0
H1104 H 0.83959 0.36684 0.70999 0.0
H1105 H 0.8472 0.38378 0.76234 0.0
H1106 H 0.91991 0.40899 0.78203 0.0
H1107 H 0.89575 0.39575 0.77585 0.0
H1108 H 0.88978 0.38121 0.722 0.0
C1109 C 0.83537 0.36021 0.72085 0.0
C1110 C 0.85641 0.38316 0.75343 0.0
C1111 C 0.82333 0.3494 0.71854 0.0
C1112 C 0.91571 0.40895 0.76908 0.0
C1113 C 0.90183 0.40142 0.76553 0.0
C1114 C 0.88047 0.38215 0.73074 0.0
C1115 C 0.84189 0.36242 0.73699 0.0
C1116 C 0.85529 0.37315 0.73934 0.0
C1117 C 0.89619 0.40067 0.74883 0.0
C1118 C 0.88178 0.39186 0.74507 0.0
H1119 H 0.81986 0.33617 0.75933 0.0
H1120 H 0.8408 0.35506 0.76336 0.0
H1121 H 0.86693 0.3652 0.71703 0.0
H1122 H 0.92525 0.42025 0.72898 0.0
H1123 H 0.90073 0.40752 0.72278 0.0
C1124 C 0.26818 0.22 0.3524 0.0
C1125 C 0.26204 0.21819 0.33604 0.0
C1126 C 0.26951 0.20683 0.36339 0.0
C1127 C 0.26895 0.16225 0.36449 0.0
H1128 H 0.2611 0.16835 0.41209 0.0
C1129 C 0.25944 0.11031 0.41282 0.0
C1130 C 0.26734 0.11149 0.42836 0.0
C1131 C 0.2596 0.12305 0.40115 0.0
C1132 C 0.26346 0.1665 0.39886 0.0
H1133 H 0.25241 0.20119 0.31838 0.0
H1134 H 0.25435 0.17825 0.33766 0.0
H1135 H 0.25969 0.19108 0.39255 0.0
H1136 H 0.28112 0.12709 0.44404 0.0
H1137 H 0.28124 0.14943 0.42373 0.0
H1138 H 0.27228 0.13751 0.3709 0.0
C1139 C 0.25851 0.18976 0.34191 0.0
C1140 C 0.26271 0.17954 0.38764 0.0
C1141 C 0.25733 0.20291 0.33086 0.0
C1142 C 0.27517 0.12576 0.43205 0.0
C1143 C 0.27515 0.13856 0.4205 0.0
C1144 C 0.26952 0.14917 0.37571 0.0
C1145 C 0.26456 0.19154 0.35835 0.0
C1146 C 0.26548 0.17761 0.3703 0.0
C1147 C 0.26732 0.13735 0.40496 0.0
C1148 C 0.26682 0.15118 0.39301 0.0
H1149 H 0.27211 0.2316 0.35664 0.0
H1150 H 0.27452 0.20864 0.3758 0.0
H1151 H 0.2714 0.16033 0.3513 0.0
H1152 H 0.25298 0.09963 0.40976 0.0
H1153 H 0.25329 0.12189 0.38936 0.0
C1154 C 0.34566 0.72643 0.80681 0.0
C1155 C 0.33817 0.74115 0.80495 0.0
C1156 C 0.35593 0.72381 0.82021 0.0
C1157 C 0.37967 0.74538 0.85174 0.0
H1158 H 0.37968 0.70456 0.87566 0.0
C1159 C 0.41001 0.73603 0.91621 0.0
C1160 C 0.41789 0.72167 0.91899 0.0
C1161 C 0.40104 0.73825 0.90166 0.0
C1162 C 0.37996 0.71596 0.86897 0.0
H1163 H 0.33533 0.76451 0.81595 0.0
H1164 H 0.35312 0.75992 0.83936 0.0
H1165 H 0.36249 0.70866 0.85154 0.0
H1166 H 0.4224 0.6983 0.90884 0.0
H1167 H 0.40678 0.70221 0.88328 0.0
H1168 H 0.39699 0.75274 0.86932 0.0
C1169 C 0.35134 0.75051 0.83026 0.0
C1170 C 0.37011 0.71831 0.85514 0.0
C1171 C 0.34112 0.75314 0.81685 0.0
C1172 C 0.41656 0.70955 0.90692 0.0
C1173 C 0.40754 0.71175 0.89238 0.0
C1174 C 0.38948 0.74304 0.86559 0.0
C1175 C 0.3589 0.73583 0.8321 0.0
C1176 C 0.36976 0.7331 0.84644 0.0
C1177 C 0.39963 0.72611 0.88962 0.0
C1178 C 0.38966 0.72835 0.87445 0.0
H1179 H 0.34376 0.71702 0.79774 0.0
H1180 H 0.3617 0.71244 0.82111 0.0
H1181 H 0.37991 0.75682 0.84514 0.0
H1182 H 0.41064 0.74548 0.92542 0.0
H1183 H 0.3949 0.74935 0.90006 0.0
C1184 C 0.78965 0.8192 0.33147 0.0
C1185 C 0.77644 0.81138 0.32551 0.0
C1186 C 0.78867 0.83167 0.34297 0.0
C1187 C 0.76217 0.86147 0.35946 0.0
H1188 H 0.78978 0.86204 0.39812 0.0
C1189 C 0.75245 0.90187 0.4166 0.0
C1190 C 0.76515 0.90903 0.42446 0.0
C1191 C 0.75429 0.89062 0.40393 0.0
C1192 C 0.78213 0.86222 0.38727 0.0
H1193 H 0.75184 0.81056 0.32707 0.0
H1194 H 0.75013 0.83239 0.34702 0.0
H1195 H 0.79211 0.84127 0.37703 0.0
H1196 H 0.78979 0.90958 0.4256 0.0
H1197 H 0.79305 0.8902 0.40313 0.0
H1198 H 0.75217 0.88239 0.36966 0.0
C1199 C 0.76124 0.82897 0.34264 0.0
C1200 C 0.78345 0.85028 0.37519 0.0
C1201 C 0.76222 0.81647 0.33119 0.0
C1202 C 0.77978 0.9045 0.41953 0.0
C1203 C 0.78163 0.89328 0.40679 0.0
C1204 C 0.76089 0.87343 0.37149 0.0
C1205 C 0.77446 0.83667 0.34873 0.0
C1206 C 0.77341 0.84969 0.36123 0.0
C1207 C 0.7689 0.88617 0.39885 0.0
C1208 C 0.77075 0.87388 0.38563 0.0
H1209 H 0.80077 0.81577 0.32714 0.0
H1210 H 0.79904 0.83751 0.34723 0.0
H1211 H 0.75442 0.86149 0.3487 0.0
H1212 H 0.74105 0.90483 0.42043 0.0
H1213 H 0.74423 0.88514 0.39839 0.0
C1214 C 0.67713 0.31025 0.81215 0.0
C1215 C 0.68675 0.29709 0.81015 0.0
C1216 C 0.66573 0.30984 0.82429 0.0
C1217 C 0.64315 0.28227 0.85128 0.0
H1218 H 0.63819 0.31967 0.87901 0.0
C1219 C 0.60905 0.28034 0.91301 0.0
C1220 C 0.60001 0.29355 0.91678 0.0
C1221 C 0.61881 0.28088 0.89922 0.0
C1222 C 0.63925 0.3092 0.87123 0.0
H1223 H 0.69185 0.27315 0.81933 0.0
H1224 H 0.67196 0.27243 0.84051 0.0
H1225 H 0.65658 0.32031 0.85624 0.0
H1226 H 0.5945 0.3179 0.90939 0.0
H1227 H 0.61132 0.31875 0.88503 0.0
H1228 H 0.62589 0.27113 0.86633 0.0
C1229 C 0.67311 0.28299 0.83252 0.0
C1230 C 0.64981 0.30957 0.85817 0.0
C1231 C 0.68451 0.2834 0.82038 0.0
C1232 C 0.60111 0.30743 0.9066 0.0
C1233 C 0.61086 0.30796 0.89276 0.0
C1234 C 0.63257 0.28192 0.86431 0.0
C1235 C 0.66366 0.29626 0.83472 0.0
C1236 C 0.65197 0.29606 0.84813 0.0
C1237 C 0.61985 0.29469 0.88893 0.0
C1238 C 0.63058 0.29533 0.87454 0.0
H1239 H 0.67838 0.32088 0.80427 0.0
H1240 H 0.65848 0.32016 0.82546 0.0
H1241 H 0.64436 0.27175 0.8436 0.0
H1242 H 0.60869 0.26963 0.92087 0.0
H1243 H 0.6258 0.27058 0.89688 0.0
C1244 C 0.24705 0.81915 0.66997 0.0
C1245 C 0.25925 0.80849 0.67162 0.0
C1246 C 0.24764 0.83193 0.65845 0.0
C1247 C 0.27322 0.85686 0.63203 0.0
H1248 H 0.2366 0.86287 0.60495 0.0
C1249 C 0.27524 0.90527 0.56904 0.0
C1250 C 0.25701 0.91651 0.56767 0.0
C1251 C 0.27588 0.89002 0.58543 0.0
C1252 C 0.24683 0.86163 0.61257 0.0
H1253 H 0.28188 0.80321 0.66281 0.0
H1254 H 0.28289 0.82561 0.64258 0.0
H1255 H 0.23724 0.84209 0.62661 0.0
H1256 H 0.22806 0.91429 0.57322 0.0
H1257 H 0.23044 0.88903 0.59817 0.0
H1258 H 0.28278 0.87646 0.61782 0.0
C1259 C 0.27291 0.8241 0.65032 0.0
C1260 C 0.24721 0.84962 0.62499 0.0
C1261 C 0.27232 0.81127 0.6619 0.0
C1262 C 0.23871 0.90816 0.57538 0.0
C1263 C 0.2405 0.8929 0.5915 0.0
C1264 C 0.27282 0.86896 0.61956 0.0
C1265 C 0.26044 0.83438 0.64825 0.0
C1266 C 0.26034 0.84715 0.63497 0.0
C1267 C 0.25885 0.88438 0.5968 0.0
C1268 C 0.25956 0.87152 0.60982 0.0
H1269 H 0.23696 0.81756 0.67755 0.0
H1270 H 0.23798 0.83985 0.65742 0.0
H1271 H 0.28349 0.8553 0.63957 0.0
H1272 H 0.28547 0.90957 0.56299 0.0
H1273 H 0.28652 0.88413 0.5883 0.0
C1274 C 0.67916 0.73787 0.19914 0.0
C1275 C 0.69184 0.74751 0.19525 0.0
C1276 C 0.66752 0.73559 0.18719 0.0
C1277 C 0.64933 0.75501 0.15074 0.0
H1278 H 0.63095 0.71335 0.14331 0.0
C1279 C 0.59848 0.74722 0.10456 0.0
C1280 C 0.58688 0.7366 0.10968 0.0
C1281 C 0.61246 0.74757 0.11323 0.0
C1282 C 0.63585 0.7251 0.14535 0.0
H1283 H 0.70233 0.76222 0.17577 0.0
H1284 H 0.68186 0.75834 0.15491 0.0
H1285 H 0.65314 0.71574 0.162 0.0
H1286 H 0.58069 0.7184 0.12813 0.0
H1287 H 0.60482 0.71928 0.14354 0.0
H1288 H 0.63177 0.76454 0.13472 0.0
C1289 C 0.68099 0.75253 0.1672 0.0
C1290 C 0.6486 0.72644 0.156 0.0
C1291 C 0.69273 0.75466 0.17909 0.0
C1292 C 0.58955 0.72644 0.12368 0.0
C1293 C 0.60343 0.72691 0.13246 0.0
C1294 C 0.63648 0.75371 0.14024 0.0
C1295 C 0.66822 0.74304 0.17117 0.0
C1296 C 0.65536 0.74143 0.15895 0.0
C1297 C 0.61505 0.73757 0.12744 0.0
C1298 C 0.62944 0.73876 0.13756 0.0
H1299 H 0.67824 0.7321 0.21145 0.0
H1300 H 0.65776 0.72831 0.19065 0.0
H1301 H 0.65422 0.76674 0.15293 0.0
H1302 H 0.59669 0.75542 0.094 0.0
H1303 H 0.62117 0.75581 0.10886 0.0
C1304 C 0.75911 0.20455 0.67599 0.0
C1305 C 0.74407 0.20756 0.68079 0.0
C1306 C 0.7623 0.19217 0.66494 0.0
C1307 C 0.74717 0.15381 0.65009 0.0
H1308 H 0.77658 0.15943 0.61436 0.0
C1309 C 0.7607 0.10262 0.60469 0.0
C1310 C 0.77604 0.10069 0.60043 0.0
C1311 C 0.756 0.11635 0.61297 0.0
C1312 C 0.76844 0.1576 0.62438 0.0
H1313 H 0.72055 0.20011 0.67728 0.0
H1314 H 0.72617 0.17836 0.65818 0.0
H1315 H 0.76998 0.18211 0.63177 0.0
H1316 H 0.79851 0.11138 0.60199 0.0
H1317 H 0.79044 0.13517 0.61672 0.0
H1318 H 0.7459 0.12924 0.6431 0.0
C1319 C 0.73549 0.18552 0.66312 0.0
C1320 C 0.76464 0.17062 0.63432 0.0
C1321 C 0.73229 0.19797 0.6741 0.0
C1322 C 0.78657 0.11274 0.60475 0.0
C1323 C 0.7819 0.12639 0.61315 0.0
C1324 C 0.75104 0.14076 0.64024 0.0
C1325 C 0.75054 0.18244 0.65849 0.0
C1326 C 0.75405 0.16884 0.64737 0.0
C1327 C 0.76658 0.12833 0.61749 0.0
C1328 C 0.76183 0.14245 0.62733 0.0
H1329 H 0.7685 0.21151 0.6811 0.0
H1330 H 0.77403 0.18995 0.6618 0.0
H1331 H 0.73911 0.15201 0.66019 0.0
H1332 H 0.75236 0.09341 0.60184 0.0
H1333 H 0.74409 0.1175 0.61595 0.0
C1334 C 0.34056 0.26656 0.18976 0.0
C1335 C 0.33654 0.2791 0.20042 0.0
C1336 C 0.35175 0.26883 0.17755 0.0
C1337 C 0.37284 0.30004 0.15366 0.0
H1338 H 0.40378 0.2675 0.15058 0.0
C1339 C 0.43025 0.3121 0.1216 0.0
C1340 C 0.43695 0.2998 0.11247 0.0
C1341 C 0.41702 0.30927 0.13076 0.0
C1342 C 0.39511 0.27659 0.15104 0.0
H1343 H 0.34108 0.3039 0.2065 0.0
H1344 H 0.36056 0.30787 0.18518 0.0
H1345 H 0.38231 0.26318 0.16928 0.0
H1346 H 0.43521 0.27471 0.10613 0.0
H1347 H 0.41181 0.26982 0.12175 0.0
H1348 H 0.38568 0.31352 0.13551 0.0
C1349 C 0.35492 0.29633 0.18612 0.0
C1350 C 0.3828 0.27412 0.16179 0.0
C1351 C 0.34375 0.29406 0.19835 0.0
C1352 C 0.43015 0.28452 0.11277 0.0
C1353 C 0.41683 0.28169 0.12187 0.0
C1354 C 0.38511 0.30249 0.14284 0.0
C1355 C 0.35915 0.2837 0.1757 0.0
C1356 C 0.37164 0.2859 0.1634 0.0
C1357 C 0.41017 0.29401 0.13108 0.0
C1358 C 0.39652 0.29089 0.14158 0.0
H1359 H 0.33504 0.25497 0.19083 0.0
H1360 H 0.3546 0.25893 0.16953 0.0
H1361 H 0.3643 0.30924 0.15441 0.0
H1362 H 0.43546 0.32389 0.12192 0.0
H1363 H 0.41243 0.31894 0.13801 0.0
C1364 C 0.83606 0.67894 0.7565 0.0
C1365 C 0.82401 0.67473 0.76727 0.0
C1366 C 0.84838 0.66868 0.75461 0.0
C1367 C 0.86864 0.63532 0.77552 0.0
H1368 H 0.88265 0.62615 0.73044 0.0
C1369 C 0.90827 0.58259 0.7625 0.0
C1370 C 0.91939 0.58448 0.75003 0.0
C1371 C 0.8975 0.59447 0.76497 0.0
C1372 C 0.87907 0.62877 0.74315 0.0
H1373 H 0.81547 0.65628 0.78434 0.0
H1374 H 0.83705 0.63856 0.78124 0.0
H1375 H 0.86232 0.64537 0.73409 0.0
H1376 H 0.92769 0.60016 0.73005 0.0
H1377 H 0.90916 0.62116 0.73469 0.0
H1378 H 0.88538 0.6188 0.78463 0.0
C1379 C 0.83701 0.64988 0.77439 0.0
C1380 C 0.86738 0.63976 0.74522 0.0
C1381 C 0.82466 0.66006 0.77618 0.0
C1382 C 0.91944 0.5985 0.73999 0.0
C1383 C 0.90871 0.61044 0.74252 0.0
C1384 C 0.88039 0.62443 0.77347 0.0
C1385 C 0.84898 0.65405 0.76355 0.0
C1386 C 0.86192 0.64301 0.76141 0.0
C1387 C 0.89753 0.60853 0.75498 0.0
C1388 C 0.88564 0.62085 0.75724 0.0
H1389 H 0.83609 0.69025 0.74966 0.0
H1390 H 0.85752 0.67229 0.74631 0.0
H1391 H 0.86482 0.63778 0.78818 0.0
H1392 H 0.90776 0.57175 0.77015 0.0
H1393 H 0.88888 0.5924 0.77443 0.0
C1394 C 0.84176 0.32968 0.21322 0.0
C1395 C 0.83139 0.3279 0.22649 0.0
C1396 C 0.85412 0.34019 0.21463 0.0
C1397 C 0.87756 0.36205 0.24619 0.0
H1398 H 0.89119 0.38543 0.20642 0.0
C1399 C 0.93584 0.39405 0.24404 0.0
C1400 C 0.93722 0.40832 0.23459 0.0
C1401 C 0.92228 0.38524 0.24379 0.0
C1402 C 0.88744 0.37919 0.21773 0.0
H1403 H 0.82573 0.33589 0.25155 0.0
H1404 H 0.84718 0.35447 0.25395 0.0
H1405 H 0.86862 0.36857 0.20457 0.0
H1406 H 0.9255 0.42441 0.21716 0.0
H1407 H 0.9016 0.40941 0.21722 0.0
H1408 H 0.89616 0.37301 0.25947 0.0
C1409 C 0.84595 0.3475 0.24257 0.0
C1410 C 0.8746 0.3693 0.2166 0.0
C1411 C 0.83364 0.33688 0.2412 0.0
C1412 C 0.9247 0.41362 0.22485 0.0
C1413 C 0.91106 0.40489 0.22472 0.0
C1414 C 0.89034 0.37205 0.24736 0.0
C1415 C 0.85636 0.34929 0.2293 0.0
C1416 C 0.8696 0.36043 0.23075 0.0
C1417 C 0.90972 0.39049 0.23405 0.0
C1418 C 0.89556 0.38061 0.2331 0.0
H1419 H 0.84046 0.32273 0.20183 0.0
H1420 H 0.86206 0.34098 0.20431 0.0
H1421 H 0.87414 0.35531 0.25733 0.0
H1422 H 0.94542 0.3895 0.25134 0.0
H1423 H 0.92182 0.37404 0.25083 0.0
C1424 C 0.1931 0.34535 0.77876 0.0
C1425 C 0.19356 0.33103 0.76965 0.0
C1426 C 0.18038 0.35522 0.77769 0.0
C1427 C 0.14706 0.36497 0.75097 0.0
H1428 H 0.1302 0.38083 0.79248 0.0
C1429 C 0.08782 0.39382 0.75287 0.0
C1430 C 0.08557 0.40653 0.76394 0.0
C1431 C 0.1015 0.38546 0.75312 0.0
C1432 C 0.13489 0.37675 0.78073 0.0
H1433 H 0.18088 0.31595 0.75225 0.0
H1434 H 0.15881 0.33334 0.75019 0.0
H1435 H 0.15318 0.36477 0.79364 0.0
H1436 H 0.09579 0.4202 0.78429 0.0
H1437 H 0.11992 0.40601 0.78434 0.0
H1438 H 0.12889 0.37702 0.73801 0.0
C1439 C 0.16837 0.33693 0.75808 0.0
C1440 C 0.14804 0.36749 0.78141 0.0
C1441 C 0.18105 0.32699 0.75924 0.0
C1442 C 0.0973 0.41067 0.77536 0.0
C1443 C 0.11106 0.40239 0.77552 0.0
C1444 C 0.13398 0.37434 0.75026 0.0
C1445 C 0.16786 0.3511 0.76738 0.0
C1446 C 0.15419 0.36139 0.76656 0.0
C1447 C 0.11329 0.3896 0.76448 0.0
C1448 C 0.12764 0.38024 0.76515 0.0
H1449 H 0.20263 0.34902 0.78665 0.0
H1450 H 0.18039 0.36618 0.78482 0.0
H1451 H 0.15167 0.36061 0.73928 0.0
H1452 H 0.07884 0.39013 0.74423 0.0
H1453 H 0.10266 0.37547 0.7447 0.0
C1454 C 0.17278 0.69962 0.26447 0.0
C1455 C 0.18591 0.69992 0.25448 0.0
C1456 C 0.16241 0.68689 0.26348 0.0
C1457 C 0.14893 0.65489 0.23571 0.0
H1458 H 0.13509 0.63447 0.27714 0.0
C1459 C 0.115 0.59564 0.23504 0.0
C1460 C 0.10343 0.59334 0.24691 0.0
C1461 C 0.12476 0.60888 0.23595 0.0
C1462 C 0.13862 0.64017 0.26544 0.0
H1463 H 0.19837 0.68692 0.23565 0.0
H1464 H 0.18006 0.66495 0.23366 0.0
H1465 H 0.15241 0.65734 0.27858 0.0
H1466 H 0.09341 0.60289 0.26953 0.0
H1467 H 0.10997 0.62635 0.27072 0.0
H1468 H 0.13499 0.63799 0.22251 0.0
C1469 C 0.17781 0.67463 0.2422 0.0
C1470 C 0.14859 0.65325 0.26629 0.0
C1471 C 0.18827 0.68726 0.24332 0.0
C1472 C 0.102 0.60446 0.25995 0.0
C1473 C 0.11164 0.61783 0.26075 0.0
C1474 C 0.13882 0.64193 0.23485 0.0
C1475 C 0.16483 0.67427 0.25234 0.0
C1476 C 0.15393 0.66067 0.25143 0.0
C1477 C 0.12317 0.62021 0.24876 0.0
C1478 C 0.13361 0.63431 0.2497 0.0
H1479 H 0.17042 0.70928 0.27298 0.0
H1480 H 0.15239 0.68702 0.27129 0.0
H1481 H 0.15271 0.66052 0.22406 0.0
H1482 H 0.11658 0.58706 0.2251 0.0
H1483 H 0.13371 0.61005 0.22674 0.0
C1484 C 0.76761 0.80762 0.67227 0.0
C1485 C 0.77315 0.80915 0.68892 0.0
C1486 C 0.76738 0.82083 0.66123 0.0
C1487 C 0.78679 0.85881 0.65316 0.0
H1488 H 0.75188 0.86826 0.62436 0.0
C1489 C 0.78688 0.91311 0.60733 0.0
C1490 C 0.77991 0.91108 0.59138 0.0
C1491 C 0.78504 0.90156 0.62013 0.0
C1492 C 0.7618 0.8657 0.63216 0.0
H1493 H 0.78273 0.82568 0.70712 0.0
H1494 H 0.78244 0.84877 0.68776 0.0
H1495 H 0.75048 0.84629 0.64495 0.0
H1496 H 0.76607 0.89515 0.57617 0.0
H1497 H 0.76323 0.87476 0.59826 0.0
H1498 H 0.79835 0.87774 0.64008 0.0
C1499 C 0.77824 0.83735 0.68329 0.0
C1500 C 0.76095 0.85315 0.644 0.0
C1501 C 0.7783 0.82419 0.69439 0.0
C1502 C 0.77128 0.89717 0.58846 0.0
C1503 C 0.7696 0.88553 0.60117 0.0
C1504 C 0.78771 0.87123 0.6412 0.0
C1505 C 0.77286 0.83578 0.66658 0.0
C1506 C 0.77347 0.84953 0.65455 0.0
C1507 C 0.7765 0.88754 0.61717 0.0
C1508 C 0.77526 0.87478 0.63046 0.0
H1509 H 0.76346 0.79619 0.66777 0.0
H1510 H 0.76327 0.81925 0.64838 0.0
H1511 H 0.79668 0.85615 0.66099 0.0
H1512 H 0.79385 0.92355 0.60991 0.0
H1513 H 0.79038 0.90363 0.63233 0.0
C1514 C 0.69513 0.25016 0.16223 0.0
C1515 C 0.70132 0.26097 0.17396 0.0
C1516 C 0.68325 0.2548 0.15133 0.0
C1517 C 0.66309 0.29066 0.13432 0.0
H1518 H 0.62959 0.26086 0.12781 0.0
C1519 C 0.60968 0.30838 0.09553 0.0
C1520 C 0.59569 0.30381 0.10258 0.0
C1521 C 0.62327 0.30193 0.10184 0.0
C1522 C 0.63883 0.26934 0.12953 0.0
H1523 H 0.69984 0.28505 0.18353 0.0
H1524 H 0.67907 0.29307 0.16475 0.0
H1525 H 0.65214 0.25234 0.14357 0.0
H1526 H 0.58496 0.28913 0.12187 0.0
H1527 H 0.60861 0.27805 0.13308 0.0
H1528 H 0.64949 0.30792 0.12105 0.0
C1529 C 0.68359 0.28114 0.16363 0.0
C1530 C 0.65186 0.26439 0.13839 0.0
C1531 C 0.69549 0.27653 0.17444 0.0
C1532 C 0.59556 0.29262 0.11599 0.0
C1533 C 0.60913 0.28623 0.12235 0.0
C1534 C 0.65004 0.29564 0.12554 0.0
C1535 C 0.67726 0.27032 0.15199 0.0
C1536 C 0.66404 0.27509 0.14117 0.0
C1537 C 0.62317 0.29093 0.11549 0.0
C1538 C 0.63763 0.28513 0.1233 0.0
H1539 H 0.69951 0.23814 0.16144 0.0
H1540 H 0.67878 0.24623 0.14237 0.0
H1541 H 0.67236 0.29914 0.13597 0.0
H1542 H 0.61013 0.31718 0.08536 0.0
H1543 H 0.63387 0.30571 0.09616 0.0
C1544 C 0.24902 0.18241 0.69858 0.0
C1545 C 0.25156 0.19796 0.69218 0.0
C1546 C 0.25042 0.16919 0.68813 0.0
C1547 C 0.26739 0.15537 0.64877 0.0
H1548 H 0.23363 0.12526 0.64816 0.0
C1549 C 0.25909 0.1088 0.59606 0.0
C1550 C 0.25183 0.0942 0.60002 0.0
C1551 C 0.2606 0.12072 0.60819 0.0
C1552 C 0.24333 0.13332 0.64837 0.0
H1553 H 0.25806 0.21183 0.67002 0.0
H1554 H 0.26057 0.18867 0.65175 0.0
H1555 H 0.23356 0.14735 0.66778 0.0
H1556 H 0.24132 0.0803 0.62011 0.0
H1557 H 0.24453 0.10076 0.64147 0.0
H1558 H 0.27726 0.14129 0.62947 0.0
C1559 C 0.25747 0.18674 0.66484 0.0
C1560 C 0.24323 0.14604 0.65959 0.0
C1561 C 0.2559 0.19999 0.67524 0.0
C1562 C 0.24682 0.09148 0.61662 0.0
C1563 C 0.24854 0.10329 0.62882 0.0
C1564 C 0.26759 0.14251 0.63766 0.0
C1565 C 0.25456 0.17123 0.67113 0.0
C1566 C 0.25518 0.15729 0.6598 0.0
C1567 C 0.2551 0.11823 0.62467 0.0
C1568 C 0.25547 0.1314 0.63718 0.0
H1569 H 0.24557 0.18049 0.71156 0.0
H1570 H 0.24821 0.15735 0.69334 0.0
H1571 H 0.27683 0.16378 0.6488 0.0
H1572 H 0.26316 0.11117 0.58339 0.0
H1573 H 0.2656 0.13208 0.60443 0.0
C1574 C 0.31826 0.73356 0.16213 0.0
C1575 C 0.318 0.74163 0.17761 0.0
C1576 C 0.33168 0.7327 0.15292 0.0
C1577 C 0.37347 0.73625 0.15829 0.0
H1578 H 0.37303 0.73779 0.10923 0.0
C1579 C 0.42863 0.73863 0.11993 0.0
C1580 C 0.42949 0.7281 0.10631 0.0
C1581 C 0.41483 0.74112 0.12797 0.0
C1582 C 0.3733 0.73725 0.12293 0.0
H1583 H 0.33171 0.75527 0.19539 0.0
H1584 H 0.3549 0.75425 0.17908 0.0
H1585 H 0.3493 0.7409 0.12449 0.0
H1586 H 0.41658 0.71161 0.09068 0.0
H1587 H 0.39235 0.71616 0.10457 0.0
H1588 H 0.39747 0.73272 0.1567 0.0
C1589 C 0.34481 0.74831 0.1742 0.0
C1590 C 0.35971 0.73898 0.13168 0.0
C1591 C 0.33142 0.74909 0.18345 0.0
C1592 C 0.4162 0.72009 0.10087 0.0
C1593 C 0.40235 0.72269 0.10883 0.0
C1594 C 0.38705 0.73464 0.14954 0.0
C1595 C 0.34516 0.73996 0.1589 0.0
C1596 C 0.35962 0.73847 0.14949 0.0
C1597 C 0.40156 0.73308 0.12259 0.0
C1598 C 0.38711 0.73509 0.13177 0.0
H1599 H 0.3081 0.72786 0.15712 0.0
H1600 H 0.33154 0.72604 0.14127 0.0
H1601 H 0.37382 0.73545 0.17197 0.0
H1602 H 0.43874 0.74474 0.12456 0.0
H1603 H 0.41456 0.74927 0.13847 0.0
C1604 C 0.79367 0.18293 0.31114 0.0
C1605 C 0.78077 0.19149 0.30575 0.0
C1606 C 0.79237 0.17029 0.32277 0.0
C1607 C 0.76788 0.15483 0.35666 0.0
H1608 H 0.79304 0.11723 0.35301 0.0
C1609 C 0.76813 0.10398 0.4074 0.0
C1610 C 0.78265 0.09861 0.41237 0.0
C1611 C 0.76631 0.11392 0.39311 0.0
C1612 C 0.78597 0.12768 0.35424 0.0
H1613 H 0.75632 0.19333 0.30822 0.0
H1614 H 0.75402 0.17106 0.32842 0.0
H1615 H 0.79271 0.13712 0.33016 0.0
H1616 H 0.80664 0.09976 0.40654 0.0
H1617 H 0.80351 0.11704 0.38173 0.0
H1618 H 0.76141 0.14553 0.38093 0.0
C1619 C 0.76516 0.17426 0.32373 0.0
C1620 C 0.78579 0.13908 0.34115 0.0
C1621 C 0.76647 0.18691 0.31203 0.0
C1622 C 0.79528 0.10343 0.40281 0.0
C1623 C 0.79347 0.11329 0.38856 0.0
C1624 C 0.76806 0.14341 0.36977 0.0
C1625 C 0.77812 0.16587 0.32931 0.0
C1626 C 0.77701 0.15296 0.34237 0.0
C1627 C 0.77898 0.11871 0.38356 0.0
C1628 C 0.77738 0.12989 0.36887 0.0
H1629 H 0.80483 0.18602 0.3064 0.0
H1630 H 0.80261 0.16422 0.32695 0.0
H1631 H 0.76109 0.16545 0.35806 0.0
H1632 H 0.75823 0.10065 0.4147 0.0
H1633 H 0.755 0.11787 0.38956 0.0
C1634 C 0.33195 0.25317 0.83446 0.0
C1635 C 0.32497 0.26528 0.82466 0.0
C1636 C 0.34302 0.25697 0.84664 0.0
C1637 C 0.37055 0.28858 0.85821 0.0
H1638 H 0.37035 0.26777 0.90236 0.0
C1639 C 0.40878 0.31023 0.91314 0.0
C1640 C 0.41568 0.2986 0.9236 0.0
C1641 C 0.39785 0.30587 0.90104 0.0
C1642 C 0.37069 0.27354 0.89002 0.0
H1643 H 0.32423 0.29087 0.81991 0.0
H1644 H 0.34337 0.29751 0.84132 0.0
H1645 H 0.35099 0.26068 0.88132 0.0
H1646 H 0.41606 0.27333 0.93011 0.0
H1647 H 0.39723 0.26562 0.90869 0.0
H1648 H 0.39025 0.3014 0.86683 0.0
C1649 C 0.34037 0.28506 0.83949 0.0
C1650 C 0.35958 0.26949 0.87797 0.0
C1651 C 0.32927 0.28127 0.82736 0.0
C1652 C 0.41116 0.28252 0.92198 0.0
C1653 C 0.40026 0.27814 0.90983 0.0
C1654 C 0.38167 0.29259 0.87022 0.0
C1655 C 0.3474 0.27296 0.84923 0.0
C1656 C 0.35934 0.27703 0.86196 0.0
C1657 C 0.39349 0.28977 0.8992 0.0
C1658 C 0.38184 0.28519 0.88631 0.0
H1659 H 0.32878 0.24074 0.83279 0.0
H1660 H 0.34831 0.24736 0.85385 0.0
H1661 H 0.37083 0.2944 0.84589 0.0
H1662 H 0.41178 0.32275 0.9144 0.0
H1663 H 0.39264 0.31517 0.89332 0.0
C1664 C 0.26053 0.82538 0.32324 0.0
C1665 C 0.26864 0.82898 0.30844 0.0
C1666 C 0.26035 0.83615 0.33659 0.0
C1667 C 0.26867 0.87862 0.34723 0.0
H1668 H 0.2719 0.86163 0.39303 0.0
C1669 C 0.28564 0.91697 0.40486 0.0
C1670 C 0.27704 0.9148 0.4196 0.0
C1671 C 0.28344 0.90691 0.39106 0.0
C1672 C 0.27083 0.86654 0.38032 0.0
H1673 H 0.28254 0.84702 0.29592 0.0
H1674 H 0.2827 0.8655 0.31935 0.0
H1675 H 0.27017 0.84333 0.36937 0.0
H1676 H 0.25986 0.90003 0.43165 0.0
H1677 H 0.25612 0.88231 0.40757 0.0
H1678 H 0.26979 0.90186 0.35827 0.0
C1679 C 0.27627 0.85446 0.3206 0.0
C1680 C 0.26979 0.85606 0.36674 0.0
C1681 C 0.27637 0.84373 0.30723 0.0
C1682 C 0.26643 0.90214 0.42034 0.0
C1683 C 0.26437 0.89196 0.40663 0.0
C1684 C 0.26986 0.88909 0.3608 0.0
C1685 C 0.26834 0.85078 0.3355 0.0
C1686 C 0.26879 0.86196 0.35 0.0
C1687 C 0.27286 0.89424 0.39185 0.0
C1688 C 0.27103 0.88316 0.37748 0.0
H1689 H 0.25455 0.81407 0.32469 0.0
H1690 H 0.25395 0.833 0.34777 0.0
H1691 H 0.26762 0.8836 0.33455 0.0
H1692 H 0.29418 0.92635 0.40403 0.0
H1693 H 0.29032 0.90878 0.37993 0.0
C1694 C 0.69377 0.73274 0.83215 0.0
C1695 C 0.69294 0.74591 0.82089 0.0
C1696 C 0.68258 0.73016 0.84429 0.0
C1697 C 0.6538 0.75064 0.8687 0.0
H1698 H 0.63587 0.7084 0.87424 0.0
C1699 C 0.60333 0.73894 0.91338 0.0
C1700 C 0.60282 0.72422 0.92222 0.0
C1701 C 0.61402 0.74164 0.9007 0.0
C1702 C 0.6409 0.72023 0.87307 0.0
H1703 H 0.67946 0.76658 0.81356 0.0
H1704 H 0.66018 0.76226 0.83506 0.0
H1705 H 0.6553 0.71297 0.85299 0.0
H1706 H 0.61361 0.70119 0.9253 0.0
H1707 H 0.63257 0.70603 0.90361 0.0
H1708 H 0.63977 0.75787 0.88902 0.0
C1709 C 0.66956 0.754 0.83446 0.0
C1710 C 0.65199 0.72283 0.86083 0.0
C1711 C 0.68066 0.75649 0.82219 0.0
C1712 C 0.61352 0.71249 0.91842 0.0
C1713 C 0.62433 0.71526 0.90591 0.0
C1714 C 0.64284 0.748 0.8811 0.0
C1715 C 0.67038 0.74078 0.84559 0.0
C1716 C 0.65855 0.73806 0.85852 0.0
C1717 C 0.62468 0.72984 0.89681 0.0
C1718 C 0.63624 0.73274 0.88346 0.0
H1719 H 0.70318 0.72451 0.83176 0.0
H1720 H 0.68359 0.71998 0.85286 0.0
H1721 H 0.6588 0.76247 0.8673 0.0
H1722 H 0.59545 0.74837 0.91622 0.0
H1723 H 0.61382 0.75295 0.89387 0.0
loop_
_geom_bond_atom_site_label_1
_geom_bond_atom_site_label_2
_geom_bond_distance
_geom_bond_site_symmetry_2
_ccdc_geom_bond_type
C0 C1 1.264 . S
C0 C5 1.479 . S
C0 C10 1.465 . S
C1 C0 1.264 . S
C1 C3 1.339 . S
C1 H28 0.931 . S
C2 C3 1.395 . S
C2 C4 1.320 . S
C3 C1 1.339 . S
C3 C2 1.395 . S
C3 H29 0.929 . S
C4 C2 1.320 . S
C4 C5 1.405 . S
C4 H30 0.930 . S
C5 C0 1.479 . S
C5 C4 1.405 . S
C5 H31 0.931 . S
U6 O7 2.454 . S
U6 O8 2.458 . S
U6 C9 2.984 . S
U6 C10 2.847 . S
U6 C23 2.882 . S
U6 O24 2.441 . S
U6 O25 2.420 . S
U6 O26 2.455 . S
U6 O27 2.449 . S
O7 U6 2.454 . S
O7 C9 1.353 . S
O8 U6 2.458 . S
O8 C9 1.286 . S
C9 U6 2.984 . S
C9 O7 1.353 . S
C9 O8 1.286 . S
C9 C11 1.363 . S
C10 C0 1.465 . S
C10 U6 2.847 . S
C10 O24 1.249 . S
C10 O25 1.202 . S
C11 C9 1.363 . S
C11 C13 1.408 . S
C11 C16 1.342 . S
C12 C13 1.310 . S
C12 C15 1.461 . S
C12 H32 0.932 . S
C13 C11 1.408 . S
C13 C12 1.310 . S
C13 H33 0.930 . S
C14 C15 1.474 . S
C14 C16 1.285 . S
C14 H34 0.929 . S
C15 C12 1.461 . S
C15 C14 1.474 . S
C16 C11 1.342 . S
C16 C14 1.285 . S
C16 H35 0.930 . S
C17 C20 1.424 . S
C17 C22 1.245 . S
C17 C23 1.428 . S
C18 C21 1.260 . S
C18 C22 1.477 . S
C18 H36 0.932 . S
C19 C20 1.384 . S
C19 C21 1.479 . S
C19 H37 0.929 . S
C20 C17 1.424 . S
C20 C19 1.384 . S
C20 H38 0.928 . S
C21 C18 1.260 . S
C21 C19 1.479 . S
C22 C17 1.245 . S
C22 C18 1.477 . S
C22 H39 0.932 . S
C23 U6 2.882 . S
C23 C17 1.428 . S
C23 O26 1.301 . S
C23 O27 1.282 . S
O24 U6 2.441 . S
O24 C10 1.249 . S
O25 U6 2.420 . S
O25 C10 1.202 . S
O26 U6 2.455 . S
O26 C23 1.301 . S
O27 U6 2.449 . S
O27 C23 1.282 . S
H28 C1 0.931 . S
H29 C3 0.929 . S
H30 C4 0.930 . S
H31 C5 0.931 . S
H32 C12 0.932 . S
H33 C13 0.930 . S
H34 C14 0.929 . S
H35 C16 0.930 . S
H36 C18 0.932 . S
H37 C19 0.929 . S
H38 C20 0.928 . S
H39 C22 0.932 . S
C40 C41 1.264 . S
C40 C45 1.479 . S
C40 C50 1.465 . S
C41 C40 1.264 . S
C41 C43 1.339 . S
C41 H68 0.931 . S
C42 C43 1.395 . S
C42 C44 1.320 . S
C43 C41 1.339 . S
C43 C42 1.395 . S
C43 H69 0.929 . S
C44 C42 1.320 . S
C44 C45 1.405 . S
C44 H70 0.930 . S
C45 C40 1.479 . S
C45 C44 1.405 . S
C45 H71 0.931 . S
U46 O47 2.454 . S
U46 O48 2.458 . S
U46 C49 2.984 . S
U46 C50 2.847 . S
U46 C63 2.882 . S
U46 O64 2.441 . S
U46 O65 2.420 . S
U46 O66 2.455 . S
U46 O67 2.449 . S
O47 U46 2.454 . S
O47 C49 1.353 . S
O48 U46 2.458 . S
O48 C49 1.286 . S
C49 U46 2.984 . S
C49 O47 1.353 . S
C49 O48 1.286 . S
C49 C51 1.363 . S
C50 C40 1.465 . S
C50 U46 2.847 . S
C50 O64 1.249 . S
C50 O65 1.202 . S
C51 C49 1.363 . S
C51 C53 1.408 . S
C51 C56 1.342 . S
C52 C53 1.310 . S
C52 C55 1.461 . S
C52 H72 0.932 . S
C53 C51 1.408 . S
C53 C52 1.310 . S
C53 H73 0.930 . S
C54 C55 1.474 . S
C54 C56 1.285 . S
C54 H74 0.929 . S
C55 C52 1.461 . S
C55 C54 1.474 . S
C56 C51 1.342 . S
C56 C54 1.285 . S
C56 H75 0.930 . S
C57 C60 1.424 . S
C57 C62 1.245 . S
C57 C63 1.428 . S
C58 C61 1.260 . S
C58 C62 1.477 . S
C58 H76 0.932 . S
C59 C60 1.384 . S
C59 C61 1.479 . S
C59 H77 0.929 . S
C60 C57 1.424 . S
C60 C59 1.384 . S
C60 H78 0.928 . S
C61 C58 1.260 . S
C61 C59 1.479 . S
C62 C57 1.245 . S
C62 C58 1.477 . S
C62 H79 0.932 . S
C63 U46 2.882 . S
C63 C57 1.428 . S
C63 O66 1.301 . S
C63 O67 1.282 . S
O64 U46 2.441 . S
O64 C50 1.249 . S
O65 U46 2.420 . S
O65 C50 1.202 . S
O66 U46 2.455 . S
O66 C63 1.301 . S
O67 U46 2.449 . S
O67 C63 1.282 . S
H68 C41 0.931 . S
H69 C43 0.929 . S
H70 C44 0.930 . S
H71 C45 0.931 . S
H72 C52 0.932 . S
H73 C53 0.930 . S
H74 C54 0.929 . S
H75 C56 0.930 . S
H76 C58 0.932 . S
H77 C59 0.929 . S
H78 C60 0.928 . S
H79 C62 0.932 . S
C80 C81 1.264 . S
C80 C85 1.479 . S
C80 C90 1.465 . S
C81 C80 1.264 . S
C81 C83 1.339 . S
C81 H108 0.931 . S
C82 C83 1.395 . S
C82 C84 1.320 . S
C83 C81 1.339 . S
C83 C82 1.395 . S
C83 H109 0.929 . S
C84 C82 1.320 . S
C84 C85 1.405 . S
C84 H110 0.930 . S
C85 C80 1.479 . S
C85 C84 1.405 . S
C85 H111 0.931 . S
U86 O87 2.454 . S
U86 O88 2.458 . S
U86 C89 2.984 . S
U86 C90 2.847 . S
U86 C103 2.882 . S
U86 O104 2.441 . S
U86 O105 2.420 . S
U86 O106 2.455 . S
U86 O107 2.449 . S
O87 U86 2.454 . S
O87 C89 1.353 . S
O88 U86 2.458 . S
O88 C89 1.286 . S
C89 U86 2.984 . S
C89 O87 1.353 . S
C89 O88 1.286 . S
C89 C91 1.363 . S
C90 C80 1.465 . S
C90 U86 2.847 . S
C90 O104 1.249 . S
C90 O105 1.202 . S
C91 C89 1.363 . S
C91 C93 1.408 . S
C91 C96 1.342 . S
C92 C93 1.310 . S
C92 C95 1.461 . S
C92 H112 0.932 . S
C93 C91 1.408 . S
C93 C92 1.310 . S
C93 H113 0.930 . S
C94 C95 1.474 . S
C94 C96 1.285 . S
C94 H114 0.929 . S
C95 C92 1.461 . S
C95 C94 1.474 . S
C96 C91 1.342 . S
C96 C94 1.285 . S
C96 H115 0.930 . S
C97 C100 1.424 . S
C97 C102 1.245 . S
C97 C103 1.428 . S
C98 C101 1.260 . S
C98 C102 1.477 . S
C98 H116 0.932 . S
C99 C100 1.384 . S
C99 C101 1.479 . S
C99 H117 0.929 . S
C100 C97 1.424 . S
C100 C99 1.384 . S
C100 H118 0.928 . S
C101 C98 1.260 . S
C101 C99 1.479 . S
C102 C97 1.245 . S
C102 C98 1.477 . S
C102 H119 0.932 . S
C103 U86 2.882 . S
C103 C97 1.428 . S
C103 O106 1.301 . S
C103 O107 1.282 . S
O104 U86 2.441 . S
O104 C90 1.249 . S
O105 U86 2.420 . S
O105 C90 1.202 . S
O106 U86 2.455 . S
O106 C103 1.301 . S
O107 U86 2.449 . S
O107 C103 1.282 . S
H108 C81 0.931 . S
H109 C83 0.929 . S
H110 C84 0.930 . S
H111 C85 0.931 . S
H112 C92 0.932 . S
H113 C93 0.930 . S
H114 C94 0.929 . S
H115 C96 0.930 . S
H116 C98 0.932 . S
H117 C99 0.929 . S
H118 C100 0.928 . S
H119 C102 0.932 . S
C120 C121 1.264 . S
C120 C125 1.479 . S
C120 C130 1.465 . S
C121 C120 1.264 . S
C121 C123 1.339 . S
C121 H148 0.931 . S
C122 C123 1.395 . S
C122 C124 1.320 . S
C123 C121 1.339 . S
C123 C122 1.395 . S
C123 H149 0.929 . S
C124 C122 1.320 . S
C124 C125 1.405 . S
C124 H150 0.930 . S
C125 C120 1.479 . S
C125 C124 1.405 . S
C125 H151 0.931 . S
U126 O127 2.454 . S
U126 O128 2.458 . S
U126 C129 2.984 . S
U126 C130 2.847 . S
U126 C143 2.882 . S
U126 O144 2.441 . S
U126 O145 2.420 . S
U126 O146 2.455 . S
U126 O147 2.449 . S
O127 U126 2.454 . S
O127 C129 1.353 . S
O128 U126 2.458 . S
O128 C129 1.286 . S
C129 U126 2.984 . S
C129 O127 1.353 . S
C129 O128 1.286 . S
C129 C131 1.363 . S
C130 C120 1.465 . S
C130 U126 2.847 . S
C130 O144 1.249 . S
C130 O145 1.202 . S
C131 C129 1.363 . S
C131 C133 1.408 . S
C131 C136 1.342 . S
C132 C133 1.310 . S
C132 C135 1.461 . S
C132 H152 0.932 . S
C133 C131 1.408 . S
C133 C132 1.310 . S
C133 H153 0.930 . S
C134 C135 1.474 . S
C134 C136 1.285 . S
C134 H154 0.929 . S
C135 C132 1.461 . S
C135 C134 1.474 . S
C136 C131 1.342 . S
C136 C134 1.285 . S
C136 H155 0.930 . S
C137 C140 1.424 . S
C137 C142 1.245 . S
C137 C143 1.428 . S
C138 C141 1.260 . S
C138 C142 1.477 . S
C138 H156 0.932 . S
C139 C140 1.384 . S
C139 C141 1.479 . S
C139 H157 0.929 . S
C140 C137 1.424 . S
C140 C139 1.384 . S
C140 H158 0.928 . S
C141 C138 1.260 . S
C141 C139 1.479 . S
C142 C137 1.245 . S
C142 C138 1.477 . S
C142 H159 0.932 . S
C143 U126 2.882 . S
C143 C137 1.428 . S
C143 O146 1.301 . S
C143 O147 1.282 . S
O144 U126 2.441 . S
O144 C130 1.249 . S
O145 U126 2.420 . S
O145 C130 1.202 . S
O146 U126 2.455 . S
O146 C143 1.301 . S
O147 U126 2.449 . S
O147 C143 1.282 . S
H148 C121 0.931 . S
H149 C123 0.929 . S
H150 C124 0.930 . S
H151 C125 0.931 . S
H152 C132 0.932 . S
H153 C133 0.930 . S
H154 C134 0.929 . S
H155 C136 0.930 . S
H156 C138 0.932 . S
H157 C139 0.929 . S
H158 C140 0.928 . S
H159 C142 0.932 . S
C160 C161 1.264 . S
C160 C165 1.479 . S
C160 C170 1.465 . S
C161 C160 1.264 . S
C161 C163 1.339 . S
C161 H188 0.931 . S
C162 C163 1.395 . S
C162 C164 1.320 . S
C163 C161 1.339 . S
C163 C162 1.395 . S
C163 H189 0.929 . S
C164 C162 1.320 . S
C164 C165 1.405 . S
C164 H190 0.930 . S
C165 C160 1.479 . S
C165 C164 1.405 . S
C165 H191 0.931 . S
U166 O167 2.454 . S
U166 O168 2.458 . S
U166 C169 2.984 . S
U166 C170 2.847 . S
U166 C183 2.882 . S
U166 O184 2.441 . S
U166 O185 2.420 . S
U166 O186 2.455 . S
U166 O187 2.449 . S
O167 U166 2.454 . S
O167 C169 1.353 . S
O168 U166 2.458 . S
O168 C169 1.286 . S
C169 U166 2.984 . S
C169 O167 1.353 . S
C169 O168 1.286 . S
C169 C171 1.363 . S
C170 C160 1.465 . S
C170 U166 2.847 . S
C170 O184 1.249 . S
C170 O185 1.202 . S
C171 C169 1.363 . S
C171 C173 1.408 . S
C171 C176 1.342 . S
C172 C173 1.310 . S
C172 C175 1.461 . S
C172 H192 0.932 . S
C173 C171 1.408 . S
C173 C172 1.310 . S
C173 H193 0.930 . S
C174 C175 1.474 . S
C174 C176 1.285 . S
C174 H194 0.929 . S
C175 C172 1.461 . S
C175 C174 1.474 . S
C176 C171 1.342 . S
C176 C174 1.285 . S
C176 H195 0.930 . S
C177 C180 1.424 . S
C177 C182 1.245 . S
C177 C183 1.428 . S
C178 C181 1.260 . S
C178 C182 1.477 . S
C178 H196 0.932 . S
C179 C180 1.384 . S
C179 C181 1.479 . S
C179 H197 0.929 . S
C180 C177 1.424 . S
C180 C179 1.384 . S
C180 H198 0.928 . S
C181 C178 1.260 . S
C181 C179 1.479 . S
C182 C177 1.245 . S
C182 C178 1.477 . S
C182 H199 0.932 . S
C183 U166 2.882 . S
C183 C177 1.428 . S
C183 O186 1.301 . S
C183 O187 1.282 . S
O184 U166 2.441 . S
O184 C170 1.249 . S
O185 U166 2.420 . S
O185 C170 1.202 . S
O186 U166 2.455 . S
O186 C183 1.301 . S
O187 U166 2.449 . S
O187 C183 1.282 . S
H188 C161 0.931 . S
H189 C163 0.929 . S
H190 C164 0.930 . S
H191 C165 0.931 . S
H192 C172 0.932 . S
H193 C173 0.930 . S
H194 C174 0.929 . S
H195 C176 0.930 . S
H196 C178 0.932 . S
H197 C179 0.929 . S
H198 C180 0.928 . S
H199 C182 0.932 . S
C200 C201 1.264 . S
C200 C205 1.479 . S
C200 C210 1.465 . S
C201 C200 1.264 . S
C201 C203 1.339 . S
C201 H228 0.931 . S
C202 C203 1.395 . S
C202 C204 1.320 . S
C203 C201 1.339 . S
C203 C202 1.395 . S
C203 H229 0.929 . S
C204 C202 1.320 . S
C204 C205 1.405 . S
C204 H230 0.930 . S
C205 C200 1.479 . S
C205 C204 1.405 . S
C205 H231 0.931 . S
U206 O207 2.454 . S
U206 O208 2.458 . S
U206 C209 2.984 . S
U206 C210 2.847 . S
U206 C223 2.882 . S
U206 O224 2.441 . S
U206 O225 2.420 . S
U206 O226 2.455 . S
U206 O227 2.449 . S
O207 U206 2.454 . S
O207 C209 1.353 . S
O208 U206 2.458 . S
O208 C209 1.286 . S
C209 U206 2.984 . S
C209 O207 1.353 . S
C209 O208 1.286 . S
C209 C211 1.363 . S
C210 C200 1.465 . S
C210 U206 2.847 . S
C210 O224 1.249 . S
C210 O225 1.202 . S
C211 C209 1.363 . S
C211 C213 1.408 . S
C211 C216 1.342 . S
C212 C213 1.310 . S
C212 C215 1.461 . S
C212 H232 0.932 . S
C213 C211 1.408 . S
C213 C212 1.310 . S
C213 H233 0.930 . S
C214 C215 1.474 . S
C214 C216 1.285 . S
C214 H234 0.929 . S
C215 C212 1.461 . S
C215 C214 1.474 . S
C216 C211 1.342 . S
C216 C214 1.285 . S
C216 H235 0.930 . S
C217 C220 1.424 . S
C217 C222 1.245 . S
C217 C223 1.428 . S
C218 C221 1.260 . S
C218 C222 1.477 . S
C218 H236 0.932 . S
C219 C220 1.384 . S
C219 C221 1.479 . S
C219 H237 0.929 . S
C220 C217 1.424 . S
C220 C219 1.384 . S
C220 H238 0.928 . S
C221 C218 1.260 . S
C221 C219 1.479 . S
C222 C217 1.245 . S
C222 C218 1.477 . S
C222 H239 0.932 . S
C223 U206 2.882 . S
C223 C217 1.428 . S
C223 O226 1.301 . S
C223 O227 1.282 . S
O224 U206 2.441 . S
O224 C210 1.249 . S
O225 U206 2.420 . S
O225 C210 1.202 . S
O226 U206 2.455 . S
O226 C223 1.301 . S
O227 U206 2.449 . S
O227 C223 1.282 . S
H228 C201 0.931 . S
H229 C203 0.929 . S
H230 C204 0.930 . S
H231 C205 0.931 . S
H232 C212 0.932 . S
H233 C213 0.930 . S
H234 C214 0.929 . S
H235 C216 0.930 . S
H236 C218 0.932 . S
H237 C219 0.929 . S
H238 C220 0.928 . S
H239 C222 0.932 . S
C240 C241 1.264 . S
C240 C245 1.479 . S
C240 C250 1.465 . S
C241 C240 1.264 . S
C241 C243 1.339 . S
C241 H268 0.931 . S
C242 C243 1.395 . S
C242 C244 1.320 . S
C243 C241 1.339 . S
C243 C242 1.395 . S
C243 H269 0.929 . S
C244 C242 1.320 . S
C244 C245 1.405 . S
C244 H270 0.930 . S
C245 C240 1.479 . S
C245 C244 1.405 . S
C245 H271 0.931 . S
U246 O247 2.454 . S
U246 O248 2.458 . S
U246 C249 2.984 . S
U246 C250 2.847 . S
U246 C263 2.882 . S
U246 O264 2.441 . S
U246 O265 2.420 . S
U246 O266 2.455 . S
U246 O267 2.449 . S
O247 U246 2.454 . S
O247 C249 1.353 . S
O248 U246 2.458 . S
O248 C249 1.286 . S
C249 U246 2.984 . S
C249 O247 1.353 . S
C249 O248 1.286 . S
C249 C251 1.363 . S
C250 C240 1.465 . S
C250 U246 2.847 . S
C250 O264 1.249 . S
C250 O265 1.202 . S
C251 C249 1.363 . S
C251 C253 1.408 . S
C251 C256 1.342 . S
C252 C253 1.310 . S
C252 C255 1.461 . S
C252 H272 0.932 . S
C253 C251 1.408 . S
C253 C252 1.310 . S
C253 H273 0.930 . S
C254 C255 1.474 . S
C254 C256 1.285 . S
C254 H274 0.929 . S
C255 C252 1.461 . S
C255 C254 1.474 . S
C256 C251 1.342 . S
C256 C254 1.285 . S
C256 H275 0.930 . S
C257 C260 1.424 . S
C257 C262 1.245 . S
C257 C263 1.428 . S
C258 C261 1.260 . S
C258 C262 1.477 . S
C258 H276 0.932 . S
C259 C260 1.384 . S
C259 C261 1.479 . S
C259 H277 0.929 . S
C260 C257 1.424 . S
C260 C259 1.384 . S
C260 H278 0.928 . S
C261 C258 1.260 . S
C261 C259 1.479 . S
C262 C257 1.245 . S
C262 C258 1.477 . S
C262 H279 0.932 . S
C263 U246 2.882 . S
C263 C257 1.428 . S
C263 O266 1.301 . S
C263 O267 1.282 . S
O264 U246 2.441 . S
O264 C250 1.249 . S
O265 U246 2.420 . S
O265 C250 1.202 . S
O266 U246 2.455 . S
O266 C263 1.301 . S
O267 U246 2.449 . S
O267 C263 1.282 . S
H268 C241 0.931 . S
H269 C243 0.929 . S
H270 C244 0.930 . S
H271 C245 0.931 . S
H272 C252 0.932 . S
H273 C253 0.930 . S
H274 C254 0.929 . S
H275 C256 0.930 . S
H276 C258 0.932 . S
H277 C259 0.929 . S
H278 C260 0.928 . S
H279 C262 0.932 . S
C280 C281 1.264 . S
C280 C285 1.479 . S
C280 C290 1.465 . S
C281 C280 1.264 . S
C281 C283 1.339 . S
C281 H308 0.931 . S
C282 C283 1.395 . S
C282 C284 1.320 . S
C283 C281 1.339 . S
C283 C282 1.395 . S
C283 H309 0.929 . S
C284 C282 1.320 . S
C284 C285 1.405 . S
C284 H310 0.930 . S
C285 C280 1.479 . S
C285 C284 1.405 . S
C285 H311 0.931 . S
U286 O287 2.454 . S
U286 O288 2.458 . S
U286 C289 2.984 . S
U286 C290 2.847 . S
U286 C303 2.882 . S
U286 O304 2.441 . S
U286 O305 2.420 . S
U286 O306 2.455 . S
U286 O307 2.449 . S
O287 U286 2.454 . S
O287 C289 1.353 . S
O288 U286 2.458 . S
O288 C289 1.286 . S
C289 U286 2.984 . S
C289 O287 1.353 . S
C289 O288 1.286 . S
C289 C291 1.363 . S
C290 C280 1.465 . S
C290 U286 2.847 . S
C290 O304 1.249 . S
C290 O305 1.202 . S
C291 C289 1.363 . S
C291 C293 1.408 . S
C291 C296 1.342 . S
C292 C293 1.310 . S
C292 C295 1.461 . S
C292 H312 0.932 . S
C293 C291 1.408 . S
C293 C292 1.310 . S
C293 H313 0.930 . S
C294 C295 1.474 . S
C294 C296 1.285 . S
C294 H314 0.929 . S
C295 C292 1.461 . S
C295 C294 1.474 . S
C296 C291 1.342 . S
C296 C294 1.285 . S
C296 H315 0.930 . S
C297 C300 1.424 . S
C297 C302 1.245 . S
C297 C303 1.428 . S
C298 C301 1.260 . S
C298 C302 1.477 . S
C298 H316 0.932 . S
C299 C300 1.384 . S
C299 C301 1.479 . S
C299 H317 0.929 . S
C300 C297 1.424 . S
C300 C299 1.384 . S
C300 H318 0.928 . S
C301 C298 1.260 . S
C301 C299 1.479 . S
C302 C297 1.245 . S
C302 C298 1.477 . S
C302 H319 0.932 . S
C303 U286 2.882 . S
C303 C297 1.428 . S
C303 O306 1.301 . S
C303 O307 1.282 . S
O304 U286 2.441 . S
O304 C290 1.249 . S
O305 U286 2.420 . S
O305 C290 1.202 . S
O306 U286 2.455 . S
O306 C303 1.301 . S
O307 U286 2.449 . S
O307 C303 1.282 . S
H308 C281 0.931 . S
H309 C283 0.929 . S
H310 C284 0.930 . S
H311 C285 0.931 . S
H312 C292 0.932 . S
H313 C293 0.930 . S
H314 C294 0.929 . S
H315 C296 0.930 . S
H316 C298 0.932 . S
H317 C299 0.929 . S
H318 C300 0.928 . S
H319 C302 0.932 . S
C320 C321 1.560 . S
C320 H381 0.959 . S
C320 H382 0.959 . S
C320 H383 0.960 . S
C321 C320 1.560 . S
C321 O376 1.426 . S
C321 H380 0.980 . S
C322 C323 1.407 . S
C322 C327 1.418 . S
C322 O376 1.334 . S
C323 C322 1.407 . S
C323 C324 1.360 . S
C323 H384 0.929 . S
C324 C323 1.360 . S
C324 C325 1.401 . S
C324 C328 1.527 . S
C325 C324 1.401 . S
C325 C326 1.405 . S
C325 C358 1.587 . S
C326 C325 1.405 . S
C326 C327 1.332 . S
C326 C329 1.496 . S
C327 C322 1.418 . S
C327 C326 1.332 . S
C327 H385 0.929 . S
C328 C324 1.527 . S
C328 H386 0.959 . S
C328 H387 0.961 . S
C328 H388 0.961 . S
C329 C326 1.496 . S
C329 H389 0.960 . S
C329 H390 0.960 1_655 S
C329 H391 0.961 . S
C330 C331 1.517 . S
C330 H393 0.961 . S
C330 H394 0.960 . S
C330 H395 0.959 . S
C331 C330 1.517 . S
C331 O379 1.468 . S
C331 H392 0.980 . S
C332 C333 1.349 . S
C332 C337 1.367 . S
C332 O379 1.408 . S
C333 C332 1.349 . S
C333 C334 1.407 . S
C333 H396 0.930 . S
C334 C333 1.407 . S
C334 C335 1.449 . S
C334 C338 1.535 . S
C335 C334 1.449 . S
C335 C336 1.384 . S
C335 C360 1.553 . S
C336 C335 1.384 . S
C336 C337 1.364 . S
C336 C339 1.450 . S
C337 C332 1.367 . S
C337 C336 1.364 . S
C337 H397 0.931 . S
C338 C334 1.535 . S
C338 H398 0.959 . S
C338 H399 0.961 . S
C338 H400 0.959 . S
C339 C336 1.450 . S
C339 H401 0.960 . S
C339 H402 0.960 . S
C339 H403 0.960 . S
C340 C341 1.309 . S
C340 C345 1.304 . S
C340 O378 1.435 . S
C341 C340 1.309 . S
C341 C342 1.476 . S
C341 H405 0.930 . S
C342 C341 1.476 . S
C342 C343 1.400 . S
C342 C346 1.567 . S
C343 C342 1.400 . S
C343 C344 1.373 . S
C343 C365 1.432 . S
C344 C343 1.373 . S
C344 C345 1.339 . S
C344 C347 1.530 . S
C345 C340 1.304 . S
C345 C344 1.339 . S
C345 H406 0.930 . S
C346 C342 1.567 . S
C346 H407 0.961 . S
C346 H408 0.960 . S
C346 H409 0.958 . S
C347 C344 1.530 . S
C347 H410 0.961 . S
C347 H411 0.960 . S
C347 H412 0.960 . S
C348 C349 1.530 . S
C348 H414 0.961 . S
C348 H415 0.961 . S
C348 H416 0.959 . S
C349 C348 1.530 . S
C349 O377 1.412 . S
C349 H413 0.980 . S
C350 C351 1.288 . S
C350 C355 1.377 . S
C350 O377 1.393 . S
C351 C350 1.288 . S
C351 C352 1.369 . S
C351 H417 0.932 . S
C352 C351 1.369 . S
C352 C353 1.398 . S
C352 C356 1.527 . S
C353 C352 1.398 . S
C353 C354 1.380 . S
C353 C367 1.497 . S
C354 C353 1.380 . S
C354 C355 1.383 . S
C354 C357 1.603 . S
C355 C350 1.377 . S
C355 C354 1.383 . S
C355 H418 0.929 . S
C356 C352 1.527 . S
C356 H419 0.961 . S
C356 H420 0.958 1_655 S
C356 H421 0.959 . S
C357 C354 1.603 . S
C357 H422 0.960 . S
C357 H423 0.962 . S
C357 H424 0.961 . S
C358 C325 1.587 . S
C358 C359 1.360 1_655 S
C358 C371 1.412 . S
C359 C358 1.360 1_455 S
C359 C360 1.365 . S
C359 H425 0.929 . S
C360 C335 1.553 . S
C360 C359 1.365 . S
C360 C361 1.404 . S
C361 C360 1.404 . S
C361 C362 1.395 . S
C361 C372 1.451 . S
C362 C361 1.395 . S
C362 C363 1.322 . S
C362 H426 0.930 . S
C363 C362 1.322 . S
C363 C364 1.459 . S
C363 H427 0.929 . S
C364 C363 1.459 . S
C364 C365 1.445 . S
C364 C373 1.395 . S
C365 C343 1.432 . S
C365 C364 1.445 . S
C365 C366 1.370 . S
C366 C365 1.370 . S
C366 C367 1.438 1_455 S
C366 H428 0.930 . S
C367 C353 1.497 . S
C367 C366 1.438 1_655 S
C367 C368 1.360 . S
C368 C367 1.360 . S
C368 C369 1.401 . S
C368 C373 1.446 1_655 S
C369 C368 1.401 . S
C369 C370 1.347 . S
C369 H429 0.929 . S
C370 C369 1.347 . S
C370 C371 1.455 . S
C370 H430 0.930 . S
C371 C358 1.412 . S
C371 C370 1.455 . S
C371 C372 1.331 1_655 S
C372 C361 1.451 . S
C372 C371 1.331 1_455 S
C372 C373 1.497 . S
C373 C364 1.395 . S
C373 C368 1.446 1_455 S
C373 C372 1.497 . S
C374 C375 1.582 . S
C374 H431 0.962 . S
C374 H432 0.959 . S
C374 H433 0.958 . S
C375 C374 1.582 . S
C375 O378 1.458 . S
C375 H404 0.980 . S
O376 C321 1.426 . S
O376 C322 1.334 . S
O377 C349 1.412 . S
O377 C350 1.393 . S
O378 C340 1.435 . S
O378 C375 1.458 . S
O379 C331 1.468 . S
O379 C332 1.408 . S
H380 C321 0.980 . S
H381 C320 0.959 . S
H382 C320 0.959 . S
H383 C320 0.960 . S
H384 C323 0.929 . S
H385 C327 0.929 . S
H386 C328 0.959 . S
H387 C328 0.961 . S
H388 C328 0.961 . S
H389 C329 0.960 . S
H390 C329 0.960 1_455 S
H391 C329 0.961 . S
H392 C331 0.980 . S
H393 C330 0.961 . S
H394 C330 0.960 . S
H395 C330 0.959 . S
H396 C333 0.930 . S
H397 C337 0.931 . S
H398 C338 0.959 . S
H399 C338 0.961 . S
H400 C338 0.959 . S
H401 C339 0.960 . S
H402 C339 0.960 . S
H403 C339 0.960 . S
H404 C375 0.980 . S
H405 C341 0.930 . S
H406 C345 0.930 . S
H407 C346 0.961 . S
H408 C346 0.960 . S
H409 C346 0.958 . S
H410 C347 0.961 . S
H411 C347 0.960 . S
H412 C347 0.960 . S
H413 C349 0.980 . S
H414 C348 0.961 . S
H415 C348 0.961 . S
H416 C348 0.959 . S
H417 C351 0.932 . S
H418 C355 0.929 . S
H419 C356 0.961 . S
H420 C356 0.958 1_455 S
H421 C356 0.959 . S
H422 C357 0.960 . S
H423 C357 0.962 . S
H424 C357 0.961 . S
H425 C359 0.929 . S
H426 C362 0.930 . S
H427 C363 0.929 . S
H428 C366 0.930 . S
H429 C369 0.929 . S
H430 C370 0.930 . S
H431 C374 0.962 . S
H432 C374 0.959 . S
H433 C374 0.958 . S
C434 C435 1.560 . S
C434 H495 0.959 . S
C434 H496 0.959 . S
C434 H497 0.960 . S
C435 C434 1.560 . S
C435 O490 1.426 . S
C435 H494 0.980 . S
C436 C437 1.407 . S
C436 C441 1.418 . S
C436 O490 1.334 . S
C437 C436 1.407 . S
C437 C438 1.360 . S
C437 H498 0.929 . S
C438 C437 1.360 . S
C438 C439 1.401 . S
C438 C442 1.527 . S
C439 C438 1.401 . S
C439 C440 1.405 . S
C439 C472 1.587 . S
C440 C439 1.405 . S
C440 C441 1.332 . S
C440 C443 1.496 . S
C441 C436 1.418 . S
C441 C440 1.332 . S
C441 H499 0.929 . S
C442 C438 1.527 . S
C442 H500 0.959 . S
C442 H501 0.961 . S
C442 H502 0.961 . S
C443 C440 1.496 . S
C443 H503 0.960 . S
C443 H504 0.960 . S
C443 H505 0.961 . S
C444 C445 1.517 . S
C444 H507 0.961 . S
C444 H508 0.960 . S
C444 H509 0.959 . S
C445 C444 1.517 . S
C445 O493 1.468 . S
C445 H506 0.980 . S
C446 C447 1.349 . S
C446 C451 1.367 . S
C446 O493 1.408 . S
C447 C446 1.349 . S
C447 C448 1.407 . S
C447 H510 0.930 . S
C448 C447 1.407 . S
C448 C449 1.449 . S
C448 C452 1.535 . S
C449 C448 1.449 . S
C449 C450 1.384 . S
C449 C474 1.553 . S
C450 C449 1.384 . S
C450 C451 1.364 . S
C450 C453 1.450 . S
C451 C446 1.367 . S
C451 C450 1.364 . S
C451 H511 0.931 . S
C452 C448 1.535 . S
C452 H512 0.959 . S
C452 H513 0.961 . S
C452 H514 0.959 . S
C453 C450 1.450 . S
C453 H515 0.960 . S
C453 H516 0.960 . S
C453 H517 0.960 . S
C454 C455 1.309 . S
C454 C459 1.304 . S
C454 O492 1.435 . S
C455 C454 1.309 . S
C455 C456 1.476 . S
C455 H519 0.930 . S
C456 C455 1.476 . S
C456 C457 1.400 . S
C456 C460 1.567 . S
C457 C456 1.400 . S
C457 C458 1.373 . S
C457 C479 1.432 . S
C458 C457 1.373 . S
C458 C459 1.339 . S
C458 C461 1.530 . S
C459 C454 1.304 . S
C459 C458 1.339 . S
C459 H520 0.930 . S
C460 C456 1.567 . S
C460 H521 0.961 . S
C460 H522 0.960 . S
C460 H523 0.958 . S
C461 C458 1.530 . S
C461 H524 0.961 . S
C461 H525 0.960 . S
C461 H526 0.960 . S
C462 C463 1.530 . S
C462 H528 0.961 . S
C462 H529 0.961 . S
C462 H530 0.959 . S
C463 C462 1.530 . S
C463 O491 1.412 . S
C463 H527 0.980 . S
C464 C465 1.288 . S
C464 C469 1.377 . S
C464 O491 1.393 . S
C465 C464 1.288 . S
C465 C466 1.369 . S
C465 H531 0.932 . S
C466 C465 1.369 . S
C466 C467 1.398 . S
C466 C470 1.527 . S
C467 C466 1.398 . S
C467 C468 1.380 . S
C467 C481 1.497 . S
C468 C467 1.380 . S
C468 C469 1.383 . S
C468 C471 1.603 . S
C469 C464 1.377 . S
C469 C468 1.383 . S
C469 H532 0.929 . S
C470 C466 1.527 . S
C470 H533 0.961 . S
C470 H534 0.959 . S
C470 H535 0.959 . S
C471 C468 1.603 . S
C471 H536 0.960 . S
C471 H537 0.962 . S
C471 H538 0.961 . S
C472 C439 1.587 . S
C472 C473 1.360 . S
C472 C485 1.412 . S
C473 C472 1.360 . S
C473 C474 1.365 1_455 S
C473 H539 0.929 . S
C474 C449 1.553 . S
C474 C473 1.365 1_655 S
C474 C475 1.404 . S
C475 C474 1.404 . S
C475 C476 1.395 . S
C475 C486 1.451 1_655 S
C476 C475 1.395 . S
C476 C477 1.322 . S
C476 H540 0.930 . S
C477 C476 1.322 . S
C477 C478 1.459 . S
C477 H541 0.929 . S
C478 C477 1.459 . S
C478 C479 1.445 . S
C478 C487 1.395 1_655 S
C479 C457 1.432 . S
C479 C478 1.445 . S
C479 C480 1.370 1_655 S
C480 C479 1.370 1_455 S
C480 C481 1.438 . S
C480 H542 0.930 . S
C481 C467 1.497 . S
C481 C480 1.438 . S
C481 C482 1.360 . S
C482 C481 1.360 . S
C482 C483 1.401 . S
C482 C487 1.446 . S
C483 C482 1.401 . S
C483 C484 1.347 . S
C483 H543 0.929 . S
C484 C483 1.347 . S
C484 C485 1.455 . S
C484 H544 0.930 . S
C485 C472 1.412 . S
C485 C484 1.455 . S
C485 C486 1.331 . S
C486 C475 1.451 1_455 S
C486 C485 1.331 . S
C486 C487 1.497 . S
C487 C478 1.395 1_455 S
C487 C482 1.446 . S
C487 C486 1.497 . S
C488 C489 1.582 . S
C488 H545 0.962 . S
C488 H546 0.959 . S
C488 H547 0.958 . S
C489 C488 1.582 . S
C489 O492 1.458 . S
C489 H518 0.980 . S
O490 C435 1.426 . S
O490 C436 1.334 . S
O491 C463 1.412 . S
O491 C464 1.393 . S
O492 C454 1.435 . S
O492 C489 1.458 . S
O493 C445 1.468 . S
O493 C446 1.408 . S
H494 C435 0.980 . S
H495 C434 0.959 . S
H496 C434 0.959 . S
H497 C434 0.960 . S
H498 C437 0.929 . S
H499 C441 0.929 . S
H500 C442 0.959 . S
H501 C442 0.961 . S
H502 C442 0.961 . S
H503 C443 0.960 . S
H504 C443 0.960 . S
H505 C443 0.961 . S
H506 C445 0.980 . S
H507 C444 0.961 . S
H508 C444 0.960 . S
H509 C444 0.959 . S
H510 C447 0.930 . S
H511 C451 0.931 . S
H512 C452 0.959 . S
H513 C452 0.961 . S
H514 C452 0.959 . S
H515 C453 0.960 . S
H516 C453 0.960 . S
H517 C453 0.960 . S
H518 C489 0.980 . S
H519 C455 0.930 . S
H520 C459 0.930 . S
H521 C460 0.961 . S
H522 C460 0.960 . S
H523 C460 0.958 . S
H524 C461 0.961 . S
H525 C461 0.960 . S
H526 C461 0.960 . S
H527 C463 0.980 . S
H528 C462 0.961 . S
H529 C462 0.961 . S
H530 C462 0.959 . S
H531 C465 0.932 . S
H532 C469 0.929 . S
H533 C470 0.961 . S
H534 C470 0.959 . S
H535 C470 0.959 . S
H536 C471 0.960 . S
H537 C471 0.962 . S
H538 C471 0.961 . S
H539 C473 0.929 . S
H540 C476 0.930 . S
H541 C477 0.929 . S
H542 C480 0.930 . S
H543 C483 0.929 . S
H544 C484 0.930 . S
H545 C488 0.962 . S
H546 C488 0.959 . S
H547 C488 0.958 . S
C548 C549 1.560 . S
C548 H609 0.959 . S
C548 H610 0.959 . S
C548 H611 0.960 . S
C549 C548 1.560 . S
C549 O604 1.426 . S
C549 H608 0.980 . S
C550 C551 1.407 . S
C550 C555 1.418 . S
C550 O604 1.334 . S
C551 C550 1.407 . S
C551 C552 1.360 . S
C551 H612 0.929 . S
C552 C551 1.360 . S
C552 C553 1.401 . S
C552 C556 1.527 . S
C553 C552 1.401 . S
C553 C554 1.405 . S
C553 C586 1.587 . S
C554 C553 1.405 . S
C554 C555 1.332 . S
C554 C557 1.496 . S
C555 C550 1.418 . S
C555 C554 1.332 . S
C555 H613 0.929 . S
C556 C552 1.527 . S
C556 H614 0.959 . S
C556 H615 0.961 . S
C556 H616 0.961 . S
C557 C554 1.496 . S
C557 H617 0.960 . S
C557 H618 0.960 . S
C557 H619 0.961 . S
C558 C559 1.517 . S
C558 H621 0.961 . S
C558 H622 0.960 . S
C558 H623 0.959 . S
C559 C558 1.517 . S
C559 O607 1.468 . S
C559 H620 0.980 . S
C560 C561 1.349 . S
C560 C565 1.367 . S
C560 O607 1.408 . S
C561 C560 1.349 . S
C561 C562 1.407 . S
C561 H624 0.930 . S
C562 C561 1.407 . S
C562 C563 1.449 . S
C562 C566 1.535 . S
C563 C562 1.449 . S
C563 C564 1.384 . S
C563 C588 1.553 . S
C564 C563 1.384 . S
C564 C565 1.364 . S
C564 C567 1.450 . S
C565 C560 1.367 . S
C565 C564 1.364 . S
C565 H625 0.931 . S
C566 C562 1.535 . S
C566 H626 0.959 . S
C566 H627 0.961 . S
C566 H628 0.959 . S
C567 C564 1.450 . S
C567 H629 0.960 . S
C567 H630 0.960 . S
C567 H631 0.960 . S
C568 C569 1.309 . S
C568 C573 1.304 . S
C568 O606 1.435 . S
C569 C568 1.309 . S
C569 C570 1.476 . S
C569 H633 0.930 . S
C570 C569 1.476 . S
C570 C571 1.400 . S
C570 C574 1.567 . S
C571 C570 1.400 . S
C571 C572 1.373 . S
C571 C593 1.432 . S
C572 C571 1.373 . S
C572 C573 1.339 . S
C572 C575 1.530 . S
C573 C568 1.304 . S
C573 C572 1.339 . S
C573 H634 0.930 . S
C574 C570 1.567 . S
C574 H635 0.961 . S
C574 H636 0.960 . S
C574 H637 0.958 . S
C575 C572 1.530 . S
C575 H638 0.961 . S
C575 H639 0.960 . S
C575 H640 1.012 . S
C576 C577 1.530 . S
C576 H642 0.961 . S
C576 H643 0.961 . S
C576 H644 0.959 . S
C577 C576 1.530 . S
C577 O605 1.412 . S
C577 H641 0.980 . S
C578 C579 1.288 . S
C578 C583 1.377 . S
C578 O605 1.393 . S
C579 C578 1.288 . S
C579 C580 1.369 . S
C579 H645 0.932 . S
C580 C579 1.369 . S
C580 C581 1.398 . S
C580 C584 1.527 . S
C581 C580 1.398 . S
C581 C582 1.380 . S
C581 C595 1.497 . S
C582 C581 1.380 . S
C582 C583 1.383 . S
C582 C585 1.603 . S
C583 C578 1.377 . S
C583 C582 1.383 . S
C583 H646 0.929 . S
C584 C580 1.527 . S
C584 H647 0.961 . S
C584 H648 0.959 . S
C584 H649 0.959 . S
C585 C582 1.603 . S
C585 H650 0.960 . S
C585 H651 0.962 . S
C585 H652 0.961 . S
C586 C553 1.587 . S
C586 C587 1.360 . S
C586 C599 1.412 . S
C587 C586 1.360 . S
C587 C588 1.365 1_545 S
C587 H653 0.929 . S
C588 C563 1.553 . S
C588 C587 1.365 1_565 S
C588 C589 1.404 . S
C589 C588 1.404 . S
C589 C590 1.395 . S
C589 C600 1.451 1_565 S
C590 C589 1.395 . S
C590 C591 1.322 . S
C590 H654 0.930 . S
C591 C590 1.322 . S
C591 C592 1.459 . S
C591 H655 0.929 . S
C592 C591 1.459 . S
C592 C593 1.445 . S
C592 C601 1.395 1_565 S
C593 C571 1.432 . S
C593 C592 1.445 . S
C593 C594 1.370 1_565 S
C594 C593 1.370 1_545 S
C594 C595 1.438 . S
C594 H656 0.930 . S
C595 C581 1.497 . S
C595 C594 1.438 . S
C595 C596 1.360 . S
C596 C595 1.360 . S
C596 C597 1.401 . S
C596 C601 1.446 . S
C597 C596 1.401 . S
C597 C598 1.347 . S
C597 H657 0.929 . S
C598 C597 1.347 . S
C598 C599 1.455 . S
C598 H658 0.930 . S
C599 C586 1.412 . S
C599 C598 1.455 . S
C599 C600 1.331 . S
C600 C589 1.451 1_545 S
C600 C599 1.331 . S
C600 C601 1.497 . S
C601 C592 1.395 1_545 S
C601 C596 1.446 . S
C601 C600 1.497 . S
C602 C603 1.582 . S
C602 H659 0.962 . S
C602 H660 0.959 . S
C602 H661 0.958 . S
C603 C602 1.582 . S
C603 O606 1.458 . S
C603 H632 0.980 . S
O604 C549 1.426 . S
O604 C550 1.334 . S
O605 C577 1.412 . S
O605 C578 1.393 . S
O606 C568 1.435 . S
O606 C603 1.458 . S
O607 C559 1.468 . S
O607 C560 1.408 . S
H608 C549 0.980 . S
H609 C548 0.959 . S
H610 C548 0.959 . S
H611 C548 0.960 . S
H612 C551 0.929 . S
H613 C555 0.929 . S
H614 C556 0.959 . S
H615 C556 0.961 . S
H616 C556 0.961 . S
H617 C557 0.960 . S
H618 C557 0.960 . S
H619 C557 0.961 . S
H620 C559 0.980 . S
H621 C558 0.961 . S
H622 C558 0.960 . S
H623 C558 0.959 . S
H624 C561 0.930 . S
H625 C565 0.931 . S
H626 C566 0.959 . S
H627 C566 0.961 . S
H628 C566 0.959 . S
H629 C567 0.960 . S
H630 C567 0.960 . S
H631 C567 0.960 . S
H632 C603 0.980 . S
H633 C569 0.930 . S
H634 C573 0.930 . S
H635 C574 0.961 . S
H636 C574 0.960 . S
H637 C574 0.958 . S
H638 C575 0.961 . S
H639 C575 0.960 . S
H640 C575 1.012 . S
H641 C577 0.980 . S
H642 C576 0.961 . S
H643 C576 0.961 . S
H644 C576 0.959 . S
H645 C579 0.932 . S
H646 C583 0.929 . S
H647 C584 0.961 . S
H648 C584 0.959 . S
H649 C584 0.959 . S
H650 C585 0.960 . S
H651 C585 0.962 . S
H652 C585 0.961 . S
H653 C587 0.929 . S
H654 C590 0.930 . S
H655 C591 0.929 . S
H656 C594 0.930 . S
H657 C597 0.929 . S
H658 C598 0.930 . S
H659 C602 0.962 . S
H660 C602 0.959 . S
H661 C602 0.958 . S
C662 C663 1.560 . S
C662 H723 0.959 . S
C662 H724 0.959 . S
C662 H725 0.960 . S
C663 C662 1.560 . S
C663 O718 1.426 . S
C663 H722 0.980 . S
C664 C665 1.407 . S
C664 C669 1.418 . S
C664 O718 1.334 . S
C665 C664 1.407 . S
C665 C666 1.360 . S
C665 H726 0.929 . S
C666 C665 1.360 . S
C666 C667 1.401 . S
C666 C670 1.527 . S
C667 C666 1.401 . S
C667 C668 1.405 . S
C667 C700 1.587 . S
C668 C667 1.405 . S
C668 C669 1.332 . S
C668 C671 1.496 . S
C669 C664 1.418 . S
C669 C668 1.332 . S
C669 H727 0.929 . S
C670 C666 1.527 . S
C670 H728 0.959 . S
C670 H729 0.961 . S
C670 H730 0.961 . S
C671 C668 1.496 . S
C671 H731 0.960 . S
C671 H732 0.960 . S
C671 H733 0.961 . S
C672 C673 1.517 . S
C672 H735 0.961 . S
C672 H736 0.960 . S
C672 H737 0.959 . S
C673 C672 1.517 . S
C673 O721 1.468 . S
C673 H734 0.980 . S
C674 C675 1.349 . S
C674 C679 1.367 . S
C674 O721 1.408 . S
C675 C674 1.349 . S
C675 C676 1.407 . S
C675 H738 0.930 . S
C676 C675 1.407 . S
C676 C677 1.449 . S
C676 C680 1.535 . S
C677 C676 1.449 . S
C677 C678 1.384 . S
C677 C702 1.553 . S
C678 C677 1.384 . S
C678 C679 1.364 . S
C678 C681 1.450 . S
C679 C674 1.367 . S
C679 C678 1.364 . S
C679 H739 0.931 . S
C680 C676 1.535 . S
C680 H740 0.959 . S
C680 H741 0.961 . S
C680 H742 0.959 . S
C681 C678 1.450 . S
C681 H743 0.960 . S
C681 H744 0.960 . S
C681 H745 0.960 . S
C682 C683 1.309 . S
C682 C687 1.304 . S
C682 O720 1.435 . S
C683 C682 1.309 . S
C683 C684 1.476 . S
C683 H747 0.930 . S
C684 C683 1.476 . S
C684 C685 1.400 . S
C684 C688 1.567 . S
C685 C684 1.400 . S
C685 C686 1.373 . S
C685 C707 1.432 . S
C686 C685 1.373 . S
C686 C687 1.339 . S
C686 C689 1.530 . S
C687 C682 1.304 . S
C687 C686 1.339 . S
C687 H748 0.930 . S
C688 C684 1.567 . S
C688 H749 0.961 . S
C688 H750 0.960 . S
C688 H751 0.958 . S
C689 C686 1.530 . S
C689 H752 0.961 . S
C689 H753 0.960 . S
C689 H754 0.960 . S
C690 C691 1.530 . S
C690 H756 0.961 . S
C690 H757 0.961 . S
C690 H758 0.959 . S
C691 C690 1.530 . S
C691 O719 1.412 . S
C691 H755 0.980 . S
C692 C693 1.288 . S
C692 C697 1.377 . S
C692 O719 1.393 . S
C693 C692 1.288 . S
C693 C694 1.369 . S
C693 H759 0.932 . S
C694 C693 1.369 . S
C694 C695 1.398 . S
C694 C698 1.527 . S
C695 C694 1.398 . S
C695 C696 1.380 . S
C695 C709 1.497 . S
C696 C695 1.380 . S
C696 C697 1.383 . S
C696 C699 1.603 . S
C697 C692 1.377 . S
C697 C696 1.383 . S
C697 H760 0.929 . S
C698 C694 1.527 . S
C698 H761 0.961 . S
C698 H762 0.959 . S
C698 H763 0.959 . S
C699 C696 1.603 . S
C699 H764 0.960 . S
C699 H765 0.962 . S
C699 H766 0.961 . S
C700 C667 1.587 . S
C700 C701 1.360 . S
C700 C713 1.412 . S
C701 C700 1.360 . S
C701 C702 1.365 . S
C701 H767 0.929 . S
C702 C677 1.553 . S
C702 C701 1.365 . S
C702 C703 1.404 . S
C703 C702 1.404 . S
C703 C704 1.395 . S
C703 C714 1.451 . S
C704 C703 1.395 . S
C704 C705 1.318 . S
C704 H768 0.930 . S
C705 C704 1.318 . S
C705 C706 1.461 1_554 S
C705 H769 0.931 1_554 S
C706 C705 1.461 1_556 S
C706 C707 1.445 . S
C706 C715 1.395 . S
C707 C685 1.432 . S
C707 C706 1.445 . S
C707 C708 1.370 . S
C708 C707 1.370 . S
C708 C709 1.438 . S
C708 H770 0.930 . S
C709 C695 1.497 . S
C709 C708 1.438 . S
C709 C710 1.360 . S
C710 C709 1.360 . S
C710 C711 1.401 . S
C710 C715 1.446 . S
C711 C710 1.401 . S
C711 C712 1.347 1_556 S
C711 H771 0.929 . S
C712 C711 1.347 1_554 S
C712 C713 1.455 . S
C712 H772 0.930 . S
C713 C700 1.412 . S
C713 C712 1.455 . S
C713 C714 1.331 . S
C714 C703 1.451 . S
C714 C713 1.331 . S
C714 C715 1.497 1_554 S
C715 C706 1.395 . S
C715 C710 1.446 . S
C715 C714 1.497 1_556 S
C716 C717 1.582 . S
C716 H773 0.962 . S
C716 H774 0.959 . S
C716 H775 0.958 . S
C717 C716 1.582 . S
C717 O720 1.458 . S
C717 H746 0.980 . S
O718 C663 1.426 . S
O718 C664 1.334 . S
O719 C691 1.412 . S
O719 C692 1.393 . S
O720 C682 1.435 . S
O720 C717 1.458 . S
O721 C673 1.468 . S
O721 C674 1.408 . S
H722 C663 0.980 . S
H723 C662 0.959 . S
H724 C662 0.959 . S
H725 C662 0.960 . S
H726 C665 0.929 . S
H727 C669 0.929 . S
H728 C670 0.959 . S
H729 C670 0.961 . S
H730 C670 0.961 . S
H731 C671 0.960 . S
H732 C671 0.960 . S
H733 C671 0.961 . S
H734 C673 0.980 . S
H735 C672 0.961 . S
H736 C672 0.960 . S
H737 C672 0.959 . S
H738 C675 0.930 . S
H739 C679 0.931 . S
H740 C680 0.959 . S
H741 C680 0.961 . S
H742 C680 0.959 . S
H743 C681 0.960 . S
H744 C681 0.960 . S
H745 C681 0.960 . S
H746 C717 0.980 . S
H747 C683 0.930 . S
H748 C687 0.930 . S
H749 C688 0.961 . S
H750 C688 0.960 . S
H751 C688 0.958 . S
H752 C689 0.961 . S
H753 C689 0.960 . S
H754 C689 0.960 . S
H755 C691 0.980 . S
H756 C690 0.961 . S
H757 C690 0.961 . S
H758 C690 0.959 . S
H759 C693 0.932 . S
H760 C697 0.929 . S
H761 C698 0.961 . S
H762 C698 0.959 . S
H763 C698 0.959 . S
H764 C699 0.960 . S
H765 C699 0.962 . S
H766 C699 0.961 . S
H767 C701 0.929 . S
H768 C704 0.930 . S
H769 C705 0.931 1_556 S
H770 C708 0.930 . S
H771 C711 0.929 . S
H772 C712 0.930 . S
H773 C716 0.962 . S
H774 C716 0.959 . S
H775 C716 0.958 . S
C776 C777 1.560 . S
C776 H837 0.959 . S
C776 H838 0.959 . S
C776 H839 0.960 . S
C777 C776 1.560 . S
C777 O832 1.426 . S
C777 H836 0.980 . S
C778 C779 1.407 . S
C778 C783 1.418 . S
C778 O832 1.334 . S
C779 C778 1.407 . S
C779 C780 1.360 . S
C779 H840 0.929 . S
C780 C779 1.360 . S
C780 C781 1.401 . S
C780 C784 1.527 . S
C781 C780 1.401 . S
C781 C782 1.405 . S
C781 C814 1.587 . S
C782 C781 1.405 . S
C782 C783 1.332 . S
C782 C785 1.496 . S
C783 C778 1.418 . S
C783 C782 1.332 . S
C783 H841 0.929 . S
C784 C780 1.527 . S
C784 H842 0.959 . S
C784 H843 0.961 . S
C784 H844 0.961 . S
C785 C782 1.496 . S
C785 H845 0.960 . S
C785 H846 0.960 . S
C785 H847 0.961 . S
C786 C787 1.517 . S
C786 H849 0.961 . S
C786 H850 0.960 . S
C786 H851 0.959 . S
C787 C786 1.517 . S
C787 O835 1.468 . S
C787 H848 0.980 . S
C788 C789 1.349 . S
C788 C793 1.367 . S
C788 O835 1.408 . S
C789 C788 1.349 . S
C789 C790 1.407 . S
C789 H852 0.930 . S
C790 C789 1.407 . S
C790 C791 1.449 . S
C790 C794 1.535 . S
C791 C790 1.449 . S
C791 C792 1.384 . S
C791 C816 1.553 . S
C792 C791 1.384 . S
C792 C793 1.364 . S
C792 C795 1.450 . S
C793 C788 1.367 . S
C793 C792 1.364 . S
C793 H853 0.931 . S
C794 C790 1.535 . S
C794 H854 0.959 . S
C794 H855 0.961 . S
C794 H856 0.959 . S
C795 C792 1.450 . S
C795 H857 0.960 . S
C795 H858 0.960 . S
C795 H859 0.960 . S
C796 C797 1.309 . S
C796 C801 1.304 . S
C796 O834 1.435 . S
C797 C796 1.309 . S
C797 C798 1.476 . S
C797 H861 0.930 . S
C798 C797 1.476 . S
C798 C799 1.400 . S
C798 C802 1.567 . S
C799 C798 1.400 . S
C799 C800 1.373 . S
C799 C821 1.432 . S
C800 C799 1.373 . S
C800 C801 1.339 . S
C800 C803 1.530 . S
C801 C796 1.304 . S
C801 C800 1.339 . S
C801 H862 0.930 . S
C802 C798 1.567 . S
C802 H863 0.961 . S
C802 H864 0.960 . S
C802 H865 0.958 . S
C803 C800 1.530 . S
C803 H866 0.961 . S
C803 H867 0.960 . S
C803 H868 0.960 . S
C804 C805 1.530 . S
C804 H870 0.961 . S
C804 H871 0.961 . S
C804 H872 0.959 . S
C805 C804 1.530 . S
C805 O833 1.412 . S
C805 H869 0.980 . S
C806 C807 1.288 . S
C806 C811 1.377 . S
C806 O833 1.393 . S
C807 C806 1.288 . S
C807 C808 1.369 . S
C807 H873 0.932 . S
C808 C807 1.369 . S
C808 C809 1.398 . S
C808 C812 1.527 . S
C809 C808 1.398 . S
C809 C810 1.380 . S
C809 C823 1.497 . S
C810 C809 1.380 . S
C810 C811 1.383 . S
C810 C813 1.603 . S
C811 C806 1.377 . S
C811 C810 1.383 . S
C811 H874 0.929 . S
C812 C808 1.527 . S
C812 H875 0.961 . S
C812 H876 0.959 . S
C812 H877 0.959 . S
C813 C810 1.603 . S
C813 H878 0.960 . S
C813 H879 0.962 . S
C813 H880 0.961 . S
C814 C781 1.587 . S
C814 C815 1.360 . S
C814 C827 1.412 . S
C815 C814 1.360 . S
C815 C816 1.365 1_545 S
C815 H881 0.929 . S
C816 C791 1.553 . S
C816 C815 1.365 1_565 S
C816 C817 1.404 . S
C817 C816 1.404 . S
C817 C818 1.395 . S
C817 C828 1.451 1_565 S
C818 C817 1.395 . S
C818 C819 1.322 . S
C818 H882 0.930 . S
C819 C818 1.322 . S
C819 C820 1.459 . S
C819 H883 0.929 . S
C820 C819 1.459 . S
C820 C821 1.445 . S
C820 C829 1.395 1_565 S
C821 C799 1.432 . S
C821 C820 1.445 . S
C821 C822 1.370 1_565 S
C822 C821 1.370 1_545 S
C822 C823 1.438 . S
C822 H884 0.930 . S
C823 C809 1.497 . S
C823 C822 1.438 . S
C823 C824 1.360 . S
C824 C823 1.360 . S
C824 C825 1.401 . S
C824 C829 1.446 . S
C825 C824 1.401 . S
C825 C826 1.347 . S
C825 H885 0.929 . S
C826 C825 1.347 . S
C826 C827 1.455 . S
C826 H886 0.930 . S
C827 C814 1.412 . S
C827 C826 1.455 . S
C827 C828 1.331 . S
C828 C817 1.451 1_545 S
C828 C827 1.331 . S
C828 C829 1.497 . S
C829 C820 1.395 1_545 S
C829 C824 1.446 . S
C829 C828 1.497 . S
C830 C831 1.582 . S
C830 H887 0.962 . S
C830 H888 0.959 . S
C830 H889 0.958 . S
C831 C830 1.582 . S
C831 O834 1.458 . S
C831 H860 0.980 . S
O832 C777 1.426 . S
O832 C778 1.334 . S
O833 C805 1.412 . S
O833 C806 1.393 . S
O834 C796 1.435 . S
O834 C831 1.458 . S
O835 C787 1.468 . S
O835 C788 1.408 . S
H836 C777 0.980 . S
H837 C776 0.959 . S
H838 C776 0.959 . S
H839 C776 0.960 . S
H840 C779 0.929 . S
H841 C783 0.929 . S
H842 C784 0.959 . S
H843 C784 0.961 . S
H844 C784 0.961 . S
H845 C785 0.960 . S
H846 C785 0.960 . S
H847 C785 0.961 . S
H848 C787 0.980 . S
H849 C786 0.961 . S
H850 C786 0.960 . S
H851 C786 0.959 . S
H852 C789 0.930 . S
H853 C793 0.931 . S
H854 C794 0.959 . S
H855 C794 0.961 . S
H856 C794 0.959 . S
H857 C795 0.960 . S
H858 C795 0.960 . S
H859 C795 0.960 . S
H860 C831 0.980 . S
H861 C797 0.930 . S
H862 C801 0.930 . S
H863 C802 0.961 . S
H864 C802 0.960 . S
H865 C802 0.958 . S
H866 C803 0.961 . S
H867 C803 0.960 . S
H868 C803 0.960 . S
H869 C805 0.980 . S
H870 C804 0.961 . S
H871 C804 0.961 . S
H872 C804 0.959 . S
H873 C807 0.932 . S
H874 C811 0.929 . S
H875 C812 0.961 . S
H876 C812 0.959 . S
H877 C812 0.959 . S
H878 C813 0.960 . S
H879 C813 0.962 . S
H880 C813 0.961 . S
H881 C815 0.929 . S
H882 C818 0.930 . S
H883 C819 0.929 . S
H884 C822 0.930 . S
H885 C825 0.929 . S
H886 C826 0.930 . S
H887 C830 0.962 . S
H888 C830 0.959 . S
H889 C830 0.958 . S
C890 C891 1.560 . S
C890 H951 0.959 . S
C890 H952 0.959 . S
C890 H953 0.960 . S
C891 C890 1.560 . S
C891 O946 1.426 . S
C891 H950 0.980 . S
C892 C893 1.407 . S
C892 C897 1.418 . S
C892 O946 1.334 . S
C893 C892 1.407 . S
C893 C894 1.360 . S
C893 H954 0.929 . S
C894 C893 1.360 . S
C894 C895 1.401 . S
C894 C898 1.527 . S
C895 C894 1.401 . S
C895 C896 1.405 . S
C895 C928 1.587 . S
C896 C895 1.405 . S
C896 C897 1.332 . S
C896 C899 1.496 . S
C897 C892 1.418 . S
C897 C896 1.332 . S
C897 H955 0.929 . S
C898 C894 1.527 . S
C898 H956 0.959 . S
C898 H957 0.961 . S
C898 H958 0.961 . S
C899 C896 1.496 . S
C899 H959 0.960 . S
C899 H960 0.960 . S
C899 H961 0.961 . S
C900 C901 1.517 . S
C900 H963 0.961 . S
C900 H964 0.960 . S
C900 H965 0.959 . S
C901 C900 1.517 . S
C901 O949 1.468 . S
C901 H962 0.980 . S
C902 C903 1.349 . S
C902 C907 1.367 . S
C902 O949 1.408 . S
C903 C902 1.349 . S
C903 C904 1.407 . S
C903 H966 0.930 . S
C904 C903 1.407 . S
C904 C905 1.449 . S
C904 C908 1.535 . S
C905 C904 1.449 . S
C905 C906 1.384 . S
C905 C930 1.553 . S
C906 C905 1.384 . S
C906 C907 1.364 . S
C906 C909 1.450 . S
C907 C902 1.367 . S
C907 C906 1.364 . S
C907 H967 0.931 . S
C908 C904 1.535 . S
C908 H968 0.959 . S
C908 H969 0.961 . S
C908 H970 0.959 . S
C909 C906 1.450 . S
C909 H971 0.960 . S
C909 H972 0.960 . S
C909 H973 0.960 . S
C910 C911 1.309 . S
C910 C915 1.304 . S
C910 O948 1.435 . S
C911 C910 1.309 . S
C911 C912 1.476 . S
C911 H975 0.930 . S
C912 C911 1.476 . S
C912 C913 1.400 . S
C912 C916 1.567 . S
C913 C912 1.400 . S
C913 C914 1.373 . S
C913 C935 1.432 . S
C914 C913 1.373 . S
C914 C915 1.339 . S
C914 C917 1.530 . S
C915 C910 1.304 . S
C915 C914 1.339 . S
C915 H976 0.930 . S
C916 C912 1.567 . S
C916 H977 0.961 . S
C916 H978 0.960 . S
C916 H979 0.958 . S
C917 C914 1.530 . S
C917 H980 0.961 . S
C917 H981 0.960 . S
C917 H982 0.960 . S
C918 C919 1.530 . S
C918 H984 0.961 . S
C918 H985 0.961 . S
C918 H986 0.959 . S
C919 C918 1.530 . S
C919 O947 1.412 . S
C919 H983 0.980 . S
C920 C921 1.288 . S
C920 C925 1.377 . S
C920 O947 1.393 . S
C921 C920 1.288 . S
C921 C922 1.369 . S
C921 H987 0.932 . S
C922 C921 1.369 . S
C922 C923 1.398 . S
C922 C926 1.527 . S
C923 C922 1.398 . S
C923 C924 1.380 . S
C923 C937 1.497 . S
C924 C923 1.380 . S
C924 C925 1.383 . S
C924 C927 1.603 . S
C925 C920 1.377 . S
C925 C924 1.383 . S
C925 H988 0.929 . S
C926 C922 1.527 . S
C926 H989 0.961 . S
C926 H990 0.959 . S
C926 H991 0.959 . S
C927 C924 1.603 . S
C927 H992 0.960 . S
C927 H993 0.962 . S
C927 H994 0.961 . S
C928 C895 1.587 . S
C928 C929 1.360 . S
C928 C941 1.412 . S
C929 C928 1.360 . S
C929 C930 1.365 . S
C929 H995 0.929 . S
C930 C905 1.553 . S
C930 C929 1.365 . S
C930 C931 1.404 . S
C931 C930 1.404 . S
C931 C932 1.395 . S
C931 C942 1.451 . S
C932 C931 1.395 . S
C932 C933 1.251 1_554 S
C932 H996 0.930 . S
C933 C932 1.251 1_556 S
C933 C934 1.495 . S
C933 H997 0.968 . S
C934 C933 1.495 . S
C934 C935 1.445 . S
C934 C943 1.395 . S
C935 C913 1.432 . S
C935 C934 1.445 . S
C935 C936 1.370 . S
C936 C935 1.370 . S
C936 C937 1.438 . S
C936 H998 0.930 . S
C937 C923 1.497 . S
C937 C936 1.438 . S
C937 C938 1.360 . S
C938 C937 1.360 . S
C938 C939 1.405 1_556 S
C938 C943 1.446 . S
C939 C938 1.405 1_554 S
C939 C940 1.340 . S
C939 H999 0.932 1_554 S
C940 C939 1.340 . S
C940 C941 1.455 . S
C940 H1000 0.930 . S
C941 C928 1.412 . S
C941 C940 1.455 . S
C941 C942 1.331 . S
C942 C931 1.451 . S
C942 C941 1.331 . S
C942 C943 1.497 1_554 S
C943 C934 1.395 . S
C943 C938 1.446 . S
C943 C942 1.497 1_556 S
C944 C945 1.582 . S
C944 H1001 0.962 . S
C944 H1002 0.959 . S
C944 H1003 0.958 . S
C945 C944 1.582 . S
C945 O948 1.458 . S
C945 H974 0.980 . S
O946 C891 1.426 . S
O946 C892 1.334 . S
O947 C919 1.412 . S
O947 C920 1.393 . S
O948 C910 1.435 . S
O948 C945 1.458 . S
O949 C901 1.468 . S
O949 C902 1.408 . S
H950 C891 0.980 . S
H951 C890 0.959 . S
H952 C890 0.959 . S
H953 C890 0.960 . S
H954 C893 0.929 . S
H955 C897 0.929 . S
H956 C898 0.959 . S
H957 C898 0.961 . S
H958 C898 0.961 . S
H959 C899 0.960 . S
H960 C899 0.960 . S
H961 C899 0.961 . S
H962 C901 0.980 . S
H963 C900 0.961 . S
H964 C900 0.960 . S
H965 C900 0.959 . S
H966 C903 0.930 . S
H967 C907 0.931 . S
H968 C908 0.959 . S
H969 C908 0.961 . S
H970 C908 0.959 . S
H971 C909 0.960 . S
H972 C909 0.960 . S
H973 C909 0.960 . S
H974 C945 0.980 . S
H975 C911 0.930 . S
H976 C915 0.930 . S
H977 C916 0.961 . S
H978 C916 0.960 . S
H979 C916 0.958 . S
H980 C917 0.961 . S
H981 C917 0.960 . S
H982 C917 0.960 . S
H983 C919 0.980 . S
H984 C918 0.961 . S
H985 C918 0.961 . S
H986 C918 0.959 . S
H987 C921 0.932 . S
H988 C925 0.929 . S
H989 C926 0.961 . S
H990 C926 0.959 . S
H991 C926 0.959 . S
H992 C927 0.960 . S
H993 C927 0.962 . S
H994 C927 0.961 . S
H995 C929 0.929 . S
H996 C932 0.930 . S
H997 C933 0.968 . S
H998 C936 0.930 . S
H999 C939 0.932 1_556 S
H1000 C940 0.930 . S
H1001 C944 0.962 . S
H1002 C944 0.959 . S
H1003 C944 0.958 . S
C1004 C1005 1.349 . S
C1004 C1006 1.327 . S
C1004 H1029 0.950 . S
C1005 C1004 1.349 . S
C1005 C1021 1.349 . S
C1006 C1004 1.327 . S
C1006 C1025 1.429 . S
C1006 H1030 0.950 . S
C1007 C1024 1.574 . S
C1007 C1026 1.368 . S
C1007 H1031 0.949 . S
H1008 C1012 0.949 . S
C1009 C1010 1.349 . S
C1009 C1011 1.327 . S
C1009 H1032 0.950 . S
C1010 C1009 1.349 . S
C1010 C1022 1.349 . S
C1011 C1009 1.327 . S
C1011 C1027 1.429 . S
C1011 H1033 0.950 . S
C1012 H1008 0.949 . S
C1012 C1020 1.574 . S
C1012 C1028 1.368 . S
H1013 C1021 0.950 . S
H1014 C1019 0.950 . S
H1015 C1020 0.949 . S
H1016 C1022 0.950 . S
H1017 C1023 0.950 . S
H1018 C1024 0.949 . S
C1019 H1014 0.950 . S
C1019 C1021 1.327 . S
C1019 C1025 1.429 . S
C1020 C1012 1.574 . S
C1020 H1015 0.949 . S
C1020 C1026 1.368 . S
C1021 C1005 1.349 . S
C1021 H1013 0.950 . S
C1021 C1019 1.327 . S
C1022 C1010 1.349 . S
C1022 H1016 0.950 . S
C1022 C1023 1.327 . S
C1023 H1017 0.950 . S
C1023 C1022 1.327 . S
C1023 C1027 1.429 . S
C1024 C1007 1.574 . S
C1024 H1018 0.949 . S
C1024 C1028 1.368 . S
C1025 C1006 1.429 . S
C1025 C1019 1.429 . S
C1025 C1026 1.523 . S
C1026 C1007 1.368 . S
C1026 C1020 1.368 . S
C1026 C1025 1.523 . S
C1027 C1011 1.429 . S
C1027 C1023 1.429 . S
C1027 C1028 1.523 . S
C1028 C1012 1.368 . S
C1028 C1024 1.368 . S
C1028 C1027 1.523 . S
H1029 C1004 0.950 . S
H1030 C1006 0.950 . S
H1031 C1007 0.949 . S
H1032 C1009 0.950 . S
H1033 C1011 0.950 . S
C1034 C1035 1.349 . S
C1034 C1036 1.327 . S
C1034 H1059 0.950 . S
C1035 C1034 1.349 . S
C1035 C1051 1.349 . S
C1036 C1034 1.327 . S
C1036 C1055 1.429 . S
C1036 H1060 0.950 . S
C1037 C1054 1.574 . S
C1037 C1056 1.368 . S
C1037 H1061 0.949 . S
H1038 C1042 0.949 . S
C1039 C1040 1.349 . S
C1039 C1041 1.327 . S
C1039 H1062 0.950 . S
C1040 C1039 1.349 . S
C1040 C1052 1.349 . S
C1041 C1039 1.327 . S
C1041 C1057 1.429 . S
C1041 H1063 0.950 . S
C1042 H1038 0.949 . S
C1042 C1050 1.574 . S
C1042 C1058 1.368 . S
H1043 C1051 0.950 . S
H1044 C1049 0.950 . S
H1045 C1050 0.949 . S
H1046 C1052 0.950 . S
H1047 C1053 0.950 . S
H1048 C1054 0.949 . S
C1049 H1044 0.950 . S
C1049 C1051 1.327 . S
C1049 C1055 1.429 . S
C1050 C1042 1.574 . S
C1050 H1045 0.949 . S
C1050 C1056 1.368 . S
C1051 C1035 1.349 . S
C1051 H1043 0.950 . S
C1051 C1049 1.327 . S
C1052 C1040 1.349 . S
C1052 H1046 0.950 . S
C1052 C1053 1.327 . S
C1053 H1047 0.950 . S
C1053 C1052 1.327 . S
C1053 C1057 1.429 . S
C1054 C1037 1.574 . S
C1054 H1048 0.949 . S
C1054 C1058 1.368 . S
C1055 C1036 1.429 . S
C1055 C1049 1.429 . S
C1055 C1056 1.523 . S
C1056 C1037 1.368 . S
C1056 C1050 1.368 . S
C1056 C1055 1.523 . S
C1057 C1041 1.429 . S
C1057 C1053 1.429 . S
C1057 C1058 1.523 . S
C1058 C1042 1.368 . S
C1058 C1054 1.368 . S
C1058 C1057 1.523 . S
H1059 C1034 0.950 . S
H1060 C1036 0.950 . S
H1061 C1037 0.949 . S
H1062 C1039 0.950 . S
H1063 C1041 0.950 . S
C1064 C1065 1.349 . S
C1064 C1066 1.327 . S
C1064 H1089 0.950 . S
C1065 C1064 1.349 . S
C1065 C1081 1.349 . S
C1066 C1064 1.327 . S
C1066 C1085 1.429 . S
C1066 H1090 0.950 . S
C1067 C1084 1.574 . S
C1067 C1086 1.368 . S
C1067 H1091 0.949 . S
H1068 C1072 0.949 . S
C1069 C1070 1.349 . S
C1069 C1071 1.327 . S
C1069 H1092 0.950 . S
C1070 C1069 1.349 . S
C1070 C1082 1.349 . S
C1071 C1069 1.327 . S
C1071 C1087 1.429 . S
C1071 H1093 0.950 . S
C1072 H1068 0.949 . S
C1072 C1080 1.574 . S
C1072 C1088 1.368 . S
H1073 C1081 0.950 . S
H1074 C1079 0.950 . S
H1075 C1080 0.949 . S
H1076 C1082 0.950 . S
H1077 C1083 0.950 . S
H1078 C1084 0.949 . S
C1079 H1074 0.950 . S
C1079 C1081 1.327 . S
C1079 C1085 1.429 . S
C1080 C1072 1.574 . S
C1080 H1075 0.949 . S
C1080 C1086 1.368 . S
C1081 C1065 1.349 . S
C1081 H1073 0.950 . S
C1081 C1079 1.327 . S
C1082 C1070 1.349 . S
C1082 H1076 0.950 . S
C1082 C1083 1.327 . S
C1083 H1077 0.950 . S
C1083 C1082 1.327 . S
C1083 C1087 1.429 . S
C1084 C1067 1.574 . S
C1084 H1078 0.949 . S
C1084 C1088 1.368 . S
C1085 C1066 1.429 . S
C1085 C1079 1.429 . S
C1085 C1086 1.523 . S
C1086 C1067 1.368 . S
C1086 C1080 1.368 . S
C1086 C1085 1.523 . S
C1087 C1071 1.429 . S
C1087 C1083 1.429 . S
C1087 C1088 1.523 . S
C1088 C1072 1.368 . S
C1088 C1084 1.368 . S
C1088 C1087 1.523 . S
H1089 C1064 0.950 . S
H1090 C1066 0.950 . S
H1091 C1067 0.949 . S
H1092 C1069 0.950 . S
H1093 C1071 0.950 . S
C1094 C1095 1.349 . S
C1094 C1096 1.327 . S
C1094 H1119 0.950 . S
C1095 C1094 1.349 . S
C1095 C1111 1.349 . S
C1096 C1094 1.327 . S
C1096 C1115 1.429 . S
C1096 H1120 0.950 . S
C1097 C1114 1.574 . S
C1097 C1116 1.368 . S
C1097 H1121 0.949 . S
H1098 C1102 0.949 . S
C1099 C1100 1.349 . S
C1099 C1101 1.327 . S
C1099 H1122 0.950 . S
C1100 C1099 1.349 . S
C1100 C1112 1.349 . S
C1101 C1099 1.327 . S
C1101 C1117 1.429 . S
C1101 H1123 0.950 . S
C1102 H1098 0.949 . S
C1102 C1110 1.574 . S
C1102 C1118 1.368 . S
H1103 C1111 0.950 . S
H1104 C1109 0.950 . S
H1105 C1110 0.949 . S
H1106 C1112 0.950 . S
H1107 C1113 0.950 . S
H1108 C1114 0.949 . S
C1109 H1104 0.950 . S
C1109 C1111 1.327 . S
C1109 C1115 1.429 . S
C1110 C1102 1.574 . S
C1110 H1105 0.949 . S
C1110 C1116 1.368 . S
C1111 C1095 1.349 . S
C1111 H1103 0.950 . S
C1111 C1109 1.327 . S
C1112 C1100 1.349 . S
C1112 H1106 0.950 . S
C1112 C1113 1.327 . S
C1113 H1107 0.950 . S
C1113 C1112 1.327 . S
C1113 C1117 1.429 . S
C1114 C1097 1.574 . S
C1114 H1108 0.949 . S
C1114 C1118 1.368 . S
C1115 C1096 1.429 . S
C1115 C1109 1.429 . S
C1115 C1116 1.523 . S
C1116 C1097 1.368 . S
C1116 C1110 1.368 . S
C1116 C1115 1.523 . S
C1117 C1101 1.429 . S
C1117 C1113 1.429 . S
C1117 C1118 1.523 . S
C1118 C1102 1.368 . S
C1118 C1114 1.368 . S
C1118 C1117 1.523 . S
H1119 C1094 0.950 . S
H1120 C1096 0.950 . S
H1121 C1097 0.949 . S
H1122 C1099 0.950 . S
H1123 C1101 0.950 . S
C1124 C1125 1.349 . S
C1124 C1126 1.327 . S
C1124 H1149 0.950 . S
C1125 C1124 1.349 . S
C1125 C1141 1.349 . S
C1126 C1124 1.327 . S
C1126 C1145 1.429 . S
C1126 H1150 0.950 . S
C1127 C1144 1.574 . S
C1127 C1146 1.368 . S
C1127 H1151 0.949 . S
H1128 C1132 0.949 . S
C1129 C1130 1.349 . S
C1129 C1131 1.327 . S
C1129 H1152 0.950 . S
C1130 C1129 1.349 . S
C1130 C1142 1.349 . S
C1131 C1129 1.327 . S
C1131 C1147 1.429 . S
C1131 H1153 0.950 . S
C1132 H1128 0.949 . S
C1132 C1140 1.574 . S
C1132 C1148 1.368 . S
H1133 C1141 0.950 . S
H1134 C1139 0.950 . S
H1135 C1140 0.949 . S
H1136 C1142 0.950 . S
H1137 C1143 0.950 . S
H1138 C1144 0.949 . S
C1139 H1134 0.950 . S
C1139 C1141 1.327 . S
C1139 C1145 1.429 . S
C1140 C1132 1.574 . S
C1140 H1135 0.949 . S
C1140 C1146 1.368 . S
C1141 C1125 1.349 . S
C1141 H1133 0.950 . S
C1141 C1139 1.327 . S
C1142 C1130 1.349 . S
C1142 H1136 0.950 . S
C1142 C1143 1.327 . S
C1143 H1137 0.950 . S
C1143 C1142 1.327 . S
C1143 C1147 1.429 . S
C1144 C1127 1.574 . S
C1144 H1138 0.949 . S
C1144 C1148 1.368 . S
C1145 C1126 1.429 . S
C1145 C1139 1.429 . S
C1145 C1146 1.523 . S
C1146 C1127 1.368 . S
C1146 C1140 1.368 . S
C1146 C1145 1.523 . S
C1147 C1131 1.429 . S
C1147 C1143 1.429 . S
C1147 C1148 1.523 . S
C1148 C1132 1.368 . S
C1148 C1144 1.368 . S
C1148 C1147 1.523 . S
H1149 C1124 0.950 . S
H1150 C1126 0.950 . S
H1151 C1127 0.949 . S
H1152 C1129 0.950 . S
H1153 C1131 0.950 . S
C1154 C1155 1.349 . S
C1154 C1156 1.327 . S
C1154 H1179 0.950 . S
C1155 C1154 1.349 . S
C1155 C1171 1.349 . S
C1156 C1154 1.327 . S
C1156 C1175 1.429 . S
C1156 H1180 0.950 . S
C1157 C1174 1.574 . S
C1157 C1176 1.368 . S
C1157 H1181 0.949 . S
H1158 C1162 0.949 . S
C1159 C1160 1.349 . S
C1159 C1161 1.327 . S
C1159 H1182 0.950 . S
C1160 C1159 1.349 . S
C1160 C1172 1.349 . S
C1161 C1159 1.327 . S
C1161 C1177 1.429 . S
C1161 H1183 0.950 . S
C1162 H1158 0.949 . S
C1162 C1170 1.574 . S
C1162 C1178 1.368 . S
H1163 C1171 0.950 . S
H1164 C1169 0.950 . S
H1165 C1170 0.949 . S
H1166 C1172 0.950 . S
H1167 C1173 0.950 . S
H1168 C1174 0.949 . S
C1169 H1164 0.950 . S
C1169 C1171 1.327 . S
C1169 C1175 1.429 . S
C1170 C1162 1.574 . S
C1170 H1165 0.949 . S
C1170 C1176 1.368 . S
C1171 C1155 1.349 . S
C1171 H1163 0.950 . S
C1171 C1169 1.327 . S
C1172 C1160 1.349 . S
C1172 H1166 0.950 . S
C1172 C1173 1.327 . S
C1173 H1167 0.950 . S
C1173 C1172 1.327 . S
C1173 C1177 1.429 . S
C1174 C1157 1.574 . S
C1174 H1168 0.949 . S
C1174 C1178 1.368 . S
C1175 C1156 1.429 . S
C1175 C1169 1.429 . S
C1175 C1176 1.523 . S
C1176 C1157 1.368 . S
C1176 C1170 1.368 . S
C1176 C1175 1.523 . S
C1177 C1161 1.429 . S
C1177 C1173 1.429 . S
C1177 C1178 1.523 . S
C1178 C1162 1.368 . S
C1178 C1174 1.368 . S
C1178 C1177 1.523 . S
H1179 C1154 0.950 . S
H1180 C1156 0.950 . S
H1181 C1157 0.949 . S
H1182 C1159 0.950 . S
H1183 C1161 0.950 . S
C1184 C1185 1.349 . S
C1184 C1186 1.327 . S
C1184 H1209 0.950 . S
C1185 C1184 1.349 . S
C1185 C1201 1.349 . S
C1186 C1184 1.327 . S
C1186 C1205 1.429 . S
C1186 H1210 0.950 . S
C1187 C1204 1.574 . S
C1187 C1206 1.368 . S
C1187 H1211 0.949 . S
H1188 C1192 0.949 . S
C1189 C1190 1.349 . S
C1189 C1191 1.327 . S
C1189 H1212 0.950 . S
C1190 C1189 1.349 . S
C1190 C1202 1.349 . S
C1191 C1189 1.327 . S
C1191 C1207 1.429 . S
C1191 H1213 0.950 . S
C1192 H1188 0.949 . S
C1192 C1200 1.574 . S
C1192 C1208 1.368 . S
H1193 C1201 0.950 . S
H1194 C1199 0.950 . S
H1195 C1200 0.949 . S
H1196 C1202 0.950 . S
H1197 C1203 0.950 . S
H1198 C1204 0.949 . S
C1199 H1194 0.950 . S
C1199 C1201 1.327 . S
C1199 C1205 1.429 . S
C1200 C1192 1.574 . S
C1200 H1195 0.949 . S
C1200 C1206 1.368 . S
C1201 C1185 1.349 . S
C1201 H1193 0.950 . S
C1201 C1199 1.327 . S
C1202 C1190 1.349 . S
C1202 H1196 0.950 . S
C1202 C1203 1.327 . S
C1203 H1197 0.950 . S
C1203 C1202 1.327 . S
C1203 C1207 1.429 . S
C1204 C1187 1.574 . S
C1204 H1198 0.949 . S
C1204 C1208 1.368 . S
C1205 C1186 1.429 . S
C1205 C1199 1.429 . S
C1205 C1206 1.523 . S
C1206 C1187 1.368 . S
C1206 C1200 1.368 . S
C1206 C1205 1.523 . S
C1207 C1191 1.429 . S
C1207 C1203 1.429 . S
C1207 C1208 1.523 . S
C1208 C1192 1.368 . S
C1208 C1204 1.368 . S
C1208 C1207 1.523 . S
H1209 C1184 0.950 . S
H1210 C1186 0.950 . S
H1211 C1187 0.949 . S
H1212 C1189 0.950 . S
H1213 C1191 0.950 . S
C1214 C1215 1.349 . S
C1214 C1216 1.327 . S
C1214 H1239 0.950 . S
C1215 C1214 1.349 . S
C1215 C1231 1.349 . S
C1216 C1214 1.327 . S
C1216 C1235 1.429 . S
C1216 H1240 0.950 . S
C1217 C1234 1.574 . S
C1217 C1236 1.368 . S
C1217 H1241 0.949 . S
H1218 C1222 0.949 . S
C1219 C1220 1.349 . S
C1219 C1221 1.327 . S
C1219 H1242 0.950 . S
C1220 C1219 1.349 . S
C1220 C1232 1.349 . S
C1221 C1219 1.327 . S
C1221 C1237 1.429 . S
C1221 H1243 0.950 . S
C1222 H1218 0.949 . S
C1222 C1230 1.574 . S
C1222 C1238 1.368 . S
H1223 C1231 0.950 . S
H1224 C1229 0.950 . S
H1225 C1230 0.949 . S
H1226 C1232 0.950 . S
H1227 C1233 0.950 . S
H1228 C1234 0.949 . S
C1229 H1224 0.950 . S
C1229 C1231 1.327 . S
C1229 C1235 1.429 . S
C1230 C1222 1.574 . S
C1230 H1225 0.949 . S
C1230 C1236 1.368 . S
C1231 C1215 1.349 . S
C1231 H1223 0.950 . S
C1231 C1229 1.327 . S
C1232 C1220 1.349 . S
C1232 H1226 0.950 . S
C1232 C1233 1.327 . S
C1233 H1227 0.950 . S
C1233 C1232 1.327 . S
C1233 C1237 1.429 . S
C1234 C1217 1.574 . S
C1234 H1228 0.949 . S
C1234 C1238 1.368 . S
C1235 C1216 1.429 . S
C1235 C1229 1.429 . S
C1235 C1236 1.523 . S
C1236 C1217 1.368 . S
C1236 C1230 1.368 . S
C1236 C1235 1.523 . S
C1237 C1221 1.429 . S
C1237 C1233 1.429 . S
C1237 C1238 1.523 . S
C1238 C1222 1.368 . S
C1238 C1234 1.368 . S
C1238 C1237 1.523 . S
H1239 C1214 0.950 . S
H1240 C1216 0.950 . S
H1241 C1217 0.949 . S
H1242 C1219 0.950 . S
H1243 C1221 0.950 . S
C1244 C1245 1.349 . S
C1244 C1246 1.327 . S
C1244 H1269 0.950 . S
C1245 C1244 1.349 . S
C1245 C1261 1.349 . S
C1246 C1244 1.327 . S
C1246 C1265 1.429 . S
C1246 H1270 0.950 . S
C1247 C1264 1.574 . S
C1247 C1266 1.368 . S
C1247 H1271 0.949 . S
H1248 C1252 0.949 . S
C1249 C1250 1.349 . S
C1249 C1251 1.327 . S
C1249 H1272 0.950 . S
C1250 C1249 1.349 . S
C1250 C1262 1.349 . S
C1251 C1249 1.327 . S
C1251 C1267 1.429 . S
C1251 H1273 0.950 . S
C1252 H1248 0.949 . S
C1252 C1260 1.574 . S
C1252 C1268 1.368 . S
H1253 C1261 0.950 . S
H1254 C1259 0.950 . S
H1255 C1260 0.949 . S
H1256 C1262 0.950 . S
H1257 C1263 0.950 . S
H1258 C1264 0.949 . S
C1259 H1254 0.950 . S
C1259 C1261 1.327 . S
C1259 C1265 1.429 . S
C1260 C1252 1.574 . S
C1260 H1255 0.949 . S
C1260 C1266 1.368 . S
C1261 C1245 1.349 . S
C1261 H1253 0.950 . S
C1261 C1259 1.327 . S
C1262 C1250 1.349 . S
C1262 H1256 0.950 . S
C1262 C1263 1.327 . S
C1263 H1257 0.950 . S
C1263 C1262 1.327 . S
C1263 C1267 1.429 . S
C1264 C1247 1.574 . S
C1264 H1258 0.949 . S
C1264 C1268 1.368 . S
C1265 C1246 1.429 . S
C1265 C1259 1.429 . S
C1265 C1266 1.523 . S
C1266 C1247 1.368 . S
C1266 C1260 1.368 . S
C1266 C1265 1.523 . S
C1267 C1251 1.429 . S
C1267 C1263 1.429 . S
C1267 C1268 1.523 . S
C1268 C1252 1.368 . S
C1268 C1264 1.368 . S
C1268 C1267 1.523 . S
H1269 C1244 0.950 . S
H1270 C1246 0.950 . S
H1271 C1247 0.949 . S
H1272 C1249 0.950 . S
H1273 C1251 0.950 . S
C1274 C1275 1.349 . S
C1274 C1276 1.327 . S
C1274 H1299 0.950 . S
C1275 C1274 1.349 . S
C1275 C1291 1.349 . S
C1276 C1274 1.327 . S
C1276 C1295 1.429 . S
C1276 H1300 0.950 . S
C1277 C1294 1.574 . S
C1277 C1296 1.368 . S
C1277 H1301 0.949 . S
H1278 C1282 0.949 . S
C1279 C1280 1.349 . S
C1279 C1281 1.327 . S
C1279 H1302 0.950 . S
C1280 C1279 1.349 . S
C1280 C1292 1.349 . S
C1281 C1279 1.327 . S
C1281 C1297 1.429 . S
C1281 H1303 0.950 . S
C1282 H1278 0.949 . S
C1282 C1290 1.574 . S
C1282 C1298 1.368 . S
H1283 C1291 0.950 . S
H1284 C1289 0.950 . S
H1285 C1290 0.949 . S
H1286 C1292 0.950 . S
H1287 C1293 0.950 . S
H1288 C1294 0.949 . S
C1289 H1284 0.950 . S
C1289 C1291 1.327 . S
C1289 C1295 1.429 . S
C1290 C1282 1.574 . S
C1290 H1285 0.949 . S
C1290 C1296 1.368 . S
C1291 C1275 1.349 . S
C1291 H1283 0.950 . S
C1291 C1289 1.327 . S
C1292 C1280 1.349 . S
C1292 H1286 0.950 . S
C1292 C1293 1.327 . S
C1293 H1287 0.950 . S
C1293 C1292 1.327 . S
C1293 C1297 1.429 . S
C1294 C1277 1.574 . S
C1294 H1288 0.949 . S
C1294 C1298 1.368 . S
C1295 C1276 1.429 . S
C1295 C1289 1.429 . S
C1295 C1296 1.523 . S
C1296 C1277 1.368 . S
C1296 C1290 1.368 . S
C1296 C1295 1.523 . S
C1297 C1281 1.429 . S
C1297 C1293 1.429 . S
C1297 C1298 1.523 . S
C1298 C1282 1.368 . S
C1298 C1294 1.368 . S
C1298 C1297 1.523 . S
H1299 C1274 0.950 . S
H1300 C1276 0.950 . S
H1301 C1277 0.949 . S
H1302 C1279 0.950 . S
H1303 C1281 0.950 . S
C1304 C1305 1.349 . S
C1304 C1306 1.327 . S
C1304 H1329 0.950 . S
C1305 C1304 1.349 . S
C1305 C1321 1.349 . S
C1306 C1304 1.327 . S
C1306 C1325 1.429 . S
C1306 H1330 0.950 . S
C1307 C1324 1.574 . S
C1307 C1326 1.368 . S
C1307 H1331 0.949 . S
H1308 C1312 0.949 . S
C1309 C1310 1.349 . S
C1309 C1311 1.327 . S
C1309 H1332 0.950 . S
C1310 C1309 1.349 . S
C1310 C1322 1.349 . S
C1311 C1309 1.327 . S
C1311 C1327 1.429 . S
C1311 H1333 0.950 . S
C1312 H1308 0.949 . S
C1312 C1320 1.574 . S
C1312 C1328 1.368 . S
H1313 C1321 0.950 . S
H1314 C1319 0.950 . S
H1315 C1320 0.949 . S
H1316 C1322 0.950 . S
H1317 C1323 0.950 . S
H1318 C1324 0.949 . S
C1319 H1314 0.950 . S
C1319 C1321 1.327 . S
C1319 C1325 1.429 . S
C1320 C1312 1.574 . S
C1320 H1315 0.949 . S
C1320 C1326 1.368 . S
C1321 C1305 1.349 . S
C1321 H1313 0.950 . S
C1321 C1319 1.327 . S
C1322 C1310 1.349 . S
C1322 H1316 0.950 . S
C1322 C1323 1.327 . S
C1323 H1317 0.950 . S
C1323 C1322 1.327 . S
C1323 C1327 1.429 . S
C1324 C1307 1.574 . S
C1324 H1318 0.949 . S
C1324 C1328 1.368 . S
C1325 C1306 1.429 . S
C1325 C1319 1.429 . S
C1325 C1326 1.523 . S
C1326 C1307 1.368 . S
C1326 C1320 1.368 . S
C1326 C1325 1.523 . S
C1327 C1311 1.429 . S
C1327 C1323 1.429 . S
C1327 C1328 1.523 . S
C1328 C1312 1.368 . S
C1328 C1324 1.368 . S
C1328 C1327 1.523 . S
H1329 C1304 0.950 . S
H1330 C1306 0.950 . S
H1331 C1307 0.949 . S
H1332 C1309 0.950 . S
H1333 C1311 0.950 . S
C1334 C1335 1.349 . S
C1334 C1336 1.327 . S
C1334 H1359 0.950 . S
C1335 C1334 1.349 . S
C1335 C1351 1.349 . S
C1336 C1334 1.327 . S
C1336 C1355 1.429 . S
C1336 H1360 0.950 . S
C1337 C1354 1.574 . S
C1337 C1356 1.368 . S
C1337 H1361 0.949 . S
H1338 C1342 0.949 . S
C1339 C1340 1.349 . S
C1339 C1341 1.327 . S
C1339 H1362 0.950 . S
C1340 C1339 1.349 . S
C1340 C1352 1.349 . S
C1341 C1339 1.327 . S
C1341 C1357 1.429 . S
C1341 H1363 0.950 . S
C1342 H1338 0.949 . S
C1342 C1350 1.574 . S
C1342 C1358 1.368 . S
H1343 C1351 0.950 . S
H1344 C1349 0.950 . S
H1345 C1350 0.949 . S
H1346 C1352 0.950 . S
H1347 C1353 0.950 . S
H1348 C1354 0.949 . S
C1349 H1344 0.950 . S
C1349 C1351 1.327 . S
C1349 C1355 1.429 . S
C1350 C1342 1.574 . S
C1350 H1345 0.949 . S
C1350 C1356 1.368 . S
C1351 C1335 1.349 . S
C1351 H1343 0.950 . S
C1351 C1349 1.327 . S
C1352 C1340 1.349 . S
C1352 H1346 0.950 . S
C1352 C1353 1.327 . S
C1353 H1347 0.950 . S
C1353 C1352 1.327 . S
C1353 C1357 1.429 . S
C1354 C1337 1.574 . S
C1354 H1348 0.949 . S
C1354 C1358 1.368 . S
C1355 C1336 1.429 . S
C1355 C1349 1.429 . S
C1355 C1356 1.523 . S
C1356 C1337 1.368 . S
C1356 C1350 1.368 . S
C1356 C1355 1.523 . S
C1357 C1341 1.429 . S
C1357 C1353 1.429 . S
C1357 C1358 1.523 . S
C1358 C1342 1.368 . S
C1358 C1354 1.368 . S
C1358 C1357 1.523 . S
H1359 C1334 0.950 . S
H1360 C1336 0.950 . S
H1361 C1337 0.949 . S
H1362 C1339 0.950 . S
H1363 C1341 0.950 . S
C1364 C1365 1.349 . S
C1364 C1366 1.327 . S
C1364 H1389 0.950 . S
C1365 C1364 1.349 . S
C1365 C1381 1.349 . S
C1366 C1364 1.327 . S
C1366 C1385 1.429 . S
C1366 H1390 0.950 . S
C1367 C1384 1.574 . S
C1367 C1386 1.368 . S
C1367 H1391 0.949 . S
H1368 C1372 0.949 . S
C1369 C1370 1.349 . S
C1369 C1371 1.327 . S
C1369 H1392 0.950 . S
C1370 C1369 1.349 . S
C1370 C1382 1.349 . S
C1371 C1369 1.327 . S
C1371 C1387 1.429 . S
C1371 H1393 0.950 . S
C1372 H1368 0.949 . S
C1372 C1380 1.574 . S
C1372 C1388 1.368 . S
H1373 C1381 0.950 . S
H1374 C1379 0.950 . S
H1375 C1380 0.949 . S
H1376 C1382 0.950 . S
H1377 C1383 0.950 . S
H1378 C1384 0.949 . S
C1379 H1374 0.950 . S
C1379 C1381 1.327 . S
C1379 C1385 1.429 . S
C1380 C1372 1.574 . S
C1380 H1375 0.949 . S
C1380 C1386 1.368 . S
C1381 C1365 1.349 . S
C1381 H1373 0.950 . S
C1381 C1379 1.327 . S
C1382 C1370 1.349 . S
C1382 H1376 0.950 . S
C1382 C1383 1.327 . S
C1383 H1377 0.950 . S
C1383 C1382 1.327 . S
C1383 C1387 1.429 . S
C1384 C1367 1.574 . S
C1384 H1378 0.949 . S
C1384 C1388 1.368 . S
C1385 C1366 1.429 . S
C1385 C1379 1.429 . S
C1385 C1386 1.523 . S
C1386 C1367 1.368 . S
C1386 C1380 1.368 . S
C1386 C1385 1.523 . S
C1387 C1371 1.429 . S
C1387 C1383 1.429 . S
C1387 C1388 1.523 . S
C1388 C1372 1.368 . S
C1388 C1384 1.368 . S
C1388 C1387 1.523 . S
H1389 C1364 0.950 . S
H1390 C1366 0.950 . S
H1391 C1367 0.949 . S
H1392 C1369 0.950 . S
H1393 C1371 0.950 . S
C1394 C1395 1.349 . S
C1394 C1396 1.327 . S
C1394 H1419 0.950 . S
C1395 C1394 1.349 . S
C1395 C1411 1.349 . S
C1396 C1394 1.327 . S
C1396 C1415 1.429 . S
C1396 H1420 0.950 . S
C1397 C1414 1.574 . S
C1397 C1416 1.368 . S
C1397 H1421 0.949 . S
H1398 C1402 0.949 . S
C1399 C1400 1.349 . S
C1399 C1401 1.327 . S
C1399 H1422 0.950 . S
C1400 C1399 1.349 . S
C1400 C1412 1.349 . S
C1401 C1399 1.327 . S
C1401 C1417 1.429 . S
C1401 H1423 0.950 . S
C1402 H1398 0.949 . S
C1402 C1410 1.574 . S
C1402 C1418 1.368 . S
H1403 C1411 0.950 . S
H1404 C1409 0.950 . S
H1405 C1410 0.949 . S
H1406 C1412 0.950 . S
H1407 C1413 0.950 . S
H1408 C1414 0.949 . S
C1409 H1404 0.950 . S
C1409 C1411 1.327 . S
C1409 C1415 1.429 . S
C1410 C1402 1.574 . S
C1410 H1405 0.949 . S
C1410 C1416 1.368 . S
C1411 C1395 1.349 . S
C1411 H1403 0.950 . S
C1411 C1409 1.327 . S
C1412 C1400 1.349 . S
C1412 H1406 0.950 . S
C1412 C1413 1.327 . S
C1413 H1407 0.950 . S
C1413 C1412 1.327 . S
C1413 C1417 1.429 . S
C1414 C1397 1.574 . S
C1414 H1408 0.949 . S
C1414 C1418 1.368 . S
C1415 C1396 1.429 . S
C1415 C1409 1.429 . S
C1415 C1416 1.523 . S
C1416 C1397 1.368 . S
C1416 C1410 1.368 . S
C1416 C1415 1.523 . S
C1417 C1401 1.429 . S
C1417 C1413 1.429 . S
C1417 C1418 1.523 . S
C1418 C1402 1.368 . S
C1418 C1414 1.368 . S
C1418 C1417 1.523 . S
H1419 C1394 0.950 . S
H1420 C1396 0.950 . S
H1421 C1397 0.949 . S
H1422 C1399 0.950 . S
H1423 C1401 0.950 . S
C1424 C1425 1.349 . S
C1424 C1426 1.327 . S
C1424 H1449 0.950 . S
C1425 C1424 1.349 . S
C1425 C1441 1.349 . S
C1426 C1424 1.327 . S
C1426 C1445 1.429 . S
C1426 H1450 0.950 . S
C1427 C1444 1.574 . S
C1427 C1446 1.368 . S
C1427 H1451 0.949 . S
H1428 C1432 0.949 . S
C1429 C1430 1.349 . S
C1429 C1431 1.327 . S
C1429 H1452 0.950 . S
C1430 C1429 1.349 . S
C1430 C1442 1.349 . S
C1431 C1429 1.327 . S
C1431 C1447 1.429 . S
C1431 H1453 0.950 . S
C1432 H1428 0.949 . S
C1432 C1440 1.574 . S
C1432 C1448 1.368 . S
H1433 C1441 0.950 . S
H1434 C1439 0.950 . S
H1435 C1440 0.949 . S
H1436 C1442 0.950 . S
H1437 C1443 0.950 . S
H1438 C1444 0.949 . S
C1439 H1434 0.950 . S
C1439 C1441 1.327 . S
C1439 C1445 1.429 . S
C1440 C1432 1.574 . S
C1440 H1435 0.949 . S
C1440 C1446 1.368 . S
C1441 C1425 1.349 . S
C1441 H1433 0.950 . S
C1441 C1439 1.327 . S
C1442 C1430 1.349 . S
C1442 H1436 0.950 . S
C1442 C1443 1.327 . S
C1443 H1437 0.950 . S
C1443 C1442 1.327 . S
C1443 C1447 1.429 . S
C1444 C1427 1.574 . S
C1444 H1438 0.949 . S
C1444 C1448 1.368 . S
C1445 C1426 1.429 . S
C1445 C1439 1.429 . S
C1445 C1446 1.523 . S
C1446 C1427 1.368 . S
C1446 C1440 1.368 . S
C1446 C1445 1.523 . S
C1447 C1431 1.429 . S
C1447 C1443 1.429 . S
C1447 C1448 1.523 . S
C1448 C1432 1.368 . S
C1448 C1444 1.368 . S
C1448 C1447 1.523 . S
H1449 C1424 0.950 . S
H1450 C1426 0.950 . S
H1451 C1427 0.949 . S
H1452 C1429 0.950 . S
H1453 C1431 0.950 . S
C1454 C1455 1.349 . S
C1454 C1456 1.327 . S
C1454 H1479 0.950 . S
C1455 C1454 1.349 . S
C1455 C1471 1.349 . S
C1456 C1454 1.327 . S
C1456 C1475 1.429 . S
C1456 H1480 0.950 . S
C1457 C1474 1.574 . S
C1457 C1476 1.368 . S
C1457 H1481 0.949 . S
H1458 C1462 0.949 . S
C1459 C1460 1.349 . S
C1459 C1461 1.327 . S
C1459 H1482 0.950 . S
C1460 C1459 1.349 . S
C1460 C1472 1.349 . S
C1461 C1459 1.327 . S
C1461 C1477 1.429 . S
C1461 H1483 0.950 . S
C1462 H1458 0.949 . S
C1462 C1470 1.574 . S
C1462 C1478 1.368 . S
H1463 C1471 0.950 . S
H1464 C1469 0.950 . S
H1465 C1470 0.949 . S
H1466 C1472 0.950 . S
H1467 C1473 0.950 . S
H1468 C1474 0.949 . S
C1469 H1464 0.950 . S
C1469 C1471 1.327 . S
C1469 C1475 1.429 . S
C1470 C1462 1.574 . S
C1470 H1465 0.949 . S
C1470 C1476 1.368 . S
C1471 C1455 1.349 . S
C1471 H1463 0.950 . S
C1471 C1469 1.327 . S
C1472 C1460 1.349 . S
C1472 H1466 0.950 . S
C1472 C1473 1.327 . S
C1473 H1467 0.950 . S
C1473 C1472 1.327 . S
C1473 C1477 1.429 . S
C1474 C1457 1.574 . S
C1474 H1468 0.949 . S
C1474 C1478 1.368 . S
C1475 C1456 1.429 . S
C1475 C1469 1.429 . S
C1475 C1476 1.523 . S
C1476 C1457 1.368 . S
C1476 C1470 1.368 . S
C1476 C1475 1.523 . S
C1477 C1461 1.429 . S
C1477 C1473 1.429 . S
C1477 C1478 1.523 . S
C1478 C1462 1.368 . S
C1478 C1474 1.368 . S
C1478 C1477 1.523 . S
H1479 C1454 0.950 . S
H1480 C1456 0.950 . S
H1481 C1457 0.949 . S
H1482 C1459 0.950 . S
H1483 C1461 0.950 . S
C1484 C1485 1.349 . S
C1484 C1486 1.327 . S
C1484 H1509 0.950 . S
C1485 C1484 1.349 . S
C1485 C1501 1.349 . S
C1486 C1484 1.327 . S
C1486 C1505 1.429 . S
C1486 H1510 0.950 . S
C1487 C1504 1.574 . S
C1487 C1506 1.368 . S
C1487 H1511 0.949 . S
H1488 C1492 0.949 . S
C1489 C1490 1.349 . S
C1489 C1491 1.327 . S
C1489 H1512 0.950 . S
C1490 C1489 1.349 . S
C1490 C1502 1.349 . S
C1491 C1489 1.327 . S
C1491 C1507 1.429 . S
C1491 H1513 0.950 . S
C1492 H1488 0.949 . S
C1492 C1500 1.574 . S
C1492 C1508 1.368 . S
H1493 C1501 0.950 . S
H1494 C1499 0.950 . S
H1495 C1500 0.949 . S
H1496 C1502 0.950 . S
H1497 C1503 0.950 . S
H1498 C1504 0.949 . S
C1499 H1494 0.950 . S
C1499 C1501 1.327 . S
C1499 C1505 1.429 . S
C1500 C1492 1.574 . S
C1500 H1495 0.949 . S
C1500 C1506 1.368 . S
C1501 C1485 1.349 . S
C1501 H1493 0.950 . S
C1501 C1499 1.327 . S
C1502 C1490 1.349 . S
C1502 H1496 0.950 . S
C1502 C1503 1.327 . S
C1503 H1497 0.950 . S
C1503 C1502 1.327 . S
C1503 C1507 1.429 . S
C1504 C1487 1.574 . S
C1504 H1498 0.949 . S
C1504 C1508 1.368 . S
C1505 C1486 1.429 . S
C1505 C1499 1.429 . S
C1505 C1506 1.523 . S
C1506 C1487 1.368 . S
C1506 C1500 1.368 . S
C1506 C1505 1.523 . S
C1507 C1491 1.429 . S
C1507 C1503 1.429 . S
C1507 C1508 1.523 . S
C1508 C1492 1.368 . S
C1508 C1504 1.368 . S
C1508 C1507 1.523 . S
H1509 C1484 0.950 . S
H1510 C1486 0.950 . S
H1511 C1487 0.949 . S
H1512 C1489 0.950 . S
H1513 C1491 0.950 . S
C1514 C1515 1.349 . S
C1514 C1516 1.327 . S
C1514 H1539 0.950 . S
C1515 C1514 1.349 . S
C1515 C1531 1.349 . S
C1516 C1514 1.327 . S
C1516 C1535 1.429 . S
C1516 H1540 0.950 . S
C1517 C1534 1.574 . S
C1517 C1536 1.368 . S
C1517 H1541 0.949 . S
H1518 C1522 0.949 . S
C1519 C1520 1.349 . S
C1519 C1521 1.327 . S
C1519 H1542 0.950 . S
C1520 C1519 1.349 . S
C1520 C1532 1.349 . S
C1521 C1519 1.327 . S
C1521 C1537 1.429 . S
C1521 H1543 0.950 . S
C1522 H1518 0.949 . S
C1522 C1530 1.574 . S
C1522 C1538 1.368 . S
H1523 C1531 0.950 . S
H1524 C1529 0.950 . S
H1525 C1530 0.949 . S
H1526 C1532 0.950 . S
H1527 C1533 0.950 . S
H1528 C1534 0.949 . S
C1529 H1524 0.950 . S
C1529 C1531 1.327 . S
C1529 C1535 1.429 . S
C1530 C1522 1.574 . S
C1530 H1525 0.949 . S
C1530 C1536 1.368 . S
C1531 C1515 1.349 . S
C1531 H1523 0.950 . S
C1531 C1529 1.327 . S
C1532 C1520 1.349 . S
C1532 H1526 0.950 . S
C1532 C1533 1.327 . S
C1533 H1527 0.950 . S
C1533 C1532 1.327 . S
C1533 C1537 1.429 . S
C1534 C1517 1.574 . S
C1534 H1528 0.949 . S
C1534 C1538 1.368 . S
C1535 C1516 1.429 . S
C1535 C1529 1.429 . S
C1535 C1536 1.523 . S
C1536 C1517 1.368 . S
C1536 C1530 1.368 . S
C1536 C1535 1.523 . S
C1537 C1521 1.429 . S
C1537 C1533 1.429 . S
C1537 C1538 1.523 . S
C1538 C1522 1.368 . S
C1538 C1534 1.368 . S
C1538 C1537 1.523 . S
H1539 C1514 0.950 . S
H1540 C1516 0.950 . S
H1541 C1517 0.949 . S
H1542 C1519 0.950 . S
H1543 C1521 0.950 . S
C1544 C1545 1.349 . S
C1544 C1546 1.327 . S
C1544 H1569 0.950 . S
C1545 C1544 1.349 . S
C1545 C1561 1.349 . S
C1546 C1544 1.327 . S
C1546 C1565 1.429 . S
C1546 H1570 0.950 . S
C1547 C1564 1.574 . S
C1547 C1566 1.368 . S
C1547 H1571 0.949 . S
H1548 C1552 0.949 . S
C1549 C1550 1.349 . S
C1549 C1551 1.327 . S
C1549 H1572 0.950 . S
C1550 C1549 1.349 . S
C1550 C1562 1.349 . S
C1551 C1549 1.327 . S
C1551 C1567 1.429 . S
C1551 H1573 0.950 . S
C1552 H1548 0.949 . S
C1552 C1560 1.574 . S
C1552 C1568 1.368 . S
H1553 C1561 0.950 . S
H1554 C1559 0.950 . S
H1555 C1560 0.949 . S
H1556 C1562 0.950 . S
H1557 C1563 0.950 . S
H1558 C1564 0.949 . S
C1559 H1554 0.950 . S
C1559 C1561 1.327 . S
C1559 C1565 1.429 . S
C1560 C1552 1.574 . S
C1560 H1555 0.949 . S
C1560 C1566 1.368 . S
C1561 C1545 1.349 . S
C1561 H1553 0.950 . S
C1561 C1559 1.327 . S
C1562 C1550 1.349 . S
C1562 H1556 0.950 . S
C1562 C1563 1.327 . S
C1563 H1557 0.950 . S
C1563 C1562 1.327 . S
C1563 C1567 1.429 . S
C1564 C1547 1.574 . S
C1564 H1558 0.949 . S
C1564 C1568 1.368 . S
C1565 C1546 1.429 . S
C1565 C1559 1.429 . S
C1565 C1566 1.523 . S
C1566 C1547 1.368 . S
C1566 C1560 1.368 . S
C1566 C1565 1.523 . S
C1567 C1551 1.429 . S
C1567 C1563 1.429 . S
C1567 C1568 1.523 . S
C1568 C1552 1.368 . S
C1568 C1564 1.368 . S
C1568 C1567 1.523 . S
H1569 C1544 0.950 . S
H1570 C1546 0.950 . S
H1571 C1547 0.949 . S
H1572 C1549 0.950 . S
H1573 C1551 0.950 . S
C1574 C1575 1.349 . S
C1574 C1576 1.327 . S
C1574 H1599 0.950 . S
C1575 C1574 1.349 . S
C1575 C1591 1.349 . S
C1576 C1574 1.327 . S
C1576 C1595 1.429 . S
C1576 H1600 0.950 . S
C1577 C1594 1.574 . S
C1577 C1596 1.368 . S
C1577 H1601 0.949 . S
H1578 C1582 0.949 . S
C1579 C1580 1.349 . S
C1579 C1581 1.327 . S
C1579 H1602 0.950 . S
C1580 C1579 1.349 . S
C1580 C1592 1.349 . S
C1581 C1579 1.327 . S
C1581 C1597 1.429 . S
C1581 H1603 0.950 . S
C1582 H1578 0.949 . S
C1582 C1590 1.574 . S
C1582 C1598 1.368 . S
H1583 C1591 0.950 . S
H1584 C1589 0.950 . S
H1585 C1590 0.949 . S
H1586 C1592 0.950 . S
H1587 C1593 0.950 . S
H1588 C1594 0.949 . S
C1589 H1584 0.950 . S
C1589 C1591 1.327 . S
C1589 C1595 1.429 . S
C1590 C1582 1.574 . S
C1590 H1585 0.949 . S
C1590 C1596 1.368 . S
C1591 C1575 1.349 . S
C1591 H1583 0.950 . S
C1591 C1589 1.327 . S
C1592 C1580 1.349 . S
C1592 H1586 0.950 . S
C1592 C1593 1.327 . S
C1593 H1587 0.950 . S
C1593 C1592 1.327 . S
C1593 C1597 1.429 . S
C1594 C1577 1.574 . S
C1594 H1588 0.949 . S
C1594 C1598 1.368 . S
C1595 C1576 1.429 . S
C1595 C1589 1.429 . S
C1595 C1596 1.523 . S
C1596 C1577 1.368 . S
C1596 C1590 1.368 . S
C1596 C1595 1.523 . S
C1597 C1581 1.429 . S
C1597 C1593 1.429 . S
C1597 C1598 1.523 . S
C1598 C1582 1.368 . S
C1598 C1594 1.368 . S
C1598 C1597 1.523 . S
H1599 C1574 0.950 . S
H1600 C1576 0.950 . S
H1601 C1577 0.949 . S
H1602 C1579 0.950 . S
H1603 C1581 0.950 . S
C1604 C1605 1.349 . S
C1604 C1606 1.327 . S
C1604 H1629 0.950 . S
C1605 C1604 1.349 . S
C1605 C1621 1.349 . S
C1606 C1604 1.327 . S
C1606 C1625 1.429 . S
C1606 H1630 0.950 . S
C1607 C1624 1.574 . S
C1607 C1626 1.368 . S
C1607 H1631 0.949 . S
H1608 C1612 0.949 . S
C1609 C1610 1.349 . S
C1609 C1611 1.327 . S
C1609 H1632 0.950 . S
C1610 C1609 1.349 . S
C1610 C1622 1.349 . S
C1611 C1609 1.327 . S
C1611 C1627 1.429 . S
C1611 H1633 0.950 . S
C1612 H1608 0.949 . S
C1612 C1620 1.574 . S
C1612 C1628 1.368 . S
H1613 C1621 0.950 . S
H1614 C1619 0.950 . S
H1615 C1620 0.949 . S
H1616 C1622 0.950 . S
H1617 C1623 0.950 . S
H1618 C1624 0.949 . S
C1619 H1614 0.950 . S
C1619 C1621 1.327 . S
C1619 C1625 1.429 . S
C1620 C1612 1.574 . S
C1620 H1615 0.949 . S
C1620 C1626 1.368 . S
C1621 C1605 1.349 . S
C1621 H1613 0.950 . S
C1621 C1619 1.327 . S
C1622 C1610 1.349 . S
C1622 H1616 0.950 . S
C1622 C1623 1.327 . S
C1623 H1617 0.950 . S
C1623 C1622 1.327 . S
C1623 C1627 1.429 . S
C1624 C1607 1.574 . S
C1624 H1618 0.949 . S
C1624 C1628 1.368 . S
C1625 C1606 1.429 . S
C1625 C1619 1.429 . S
C1625 C1626 1.523 . S
C1626 C1607 1.368 . S
C1626 C1620 1.368 . S
C1626 C1625 1.523 . S
C1627 C1611 1.429 . S
C1627 C1623 1.429 . S
C1627 C1628 1.523 . S
C1628 C1612 1.368 . S
C1628 C1624 1.368 . S
C1628 C1627 1.523 . S
H1629 C1604 0.950 . S
H1630 C1606 0.950 . S
H1631 C1607 0.949 . S
H1632 C1609 0.950 . S
H1633 C1611 0.950 . S
C1634 C1635 1.349 . S
C1634 C1636 1.327 . S
C1634 H1659 0.950 . S
C1635 C1634 1.349 . S
C1635 C1651 1.349 . S
C1636 C1634 1.327 . S
C1636 C1655 1.429 . S
C1636 H1660 0.950 . S
C1637 C1654 1.574 . S
C1637 C1656 1.368 . S
C1637 H1661 0.949 . S
H1638 C1642 0.949 . S
C1639 C1640 1.349 . S
C1639 C1641 1.327 . S
C1639 H1662 0.950 . S
C1640 C1639 1.349 . S
C1640 C1652 1.349 . S
C1641 C1639 1.327 . S
C1641 C1657 1.429 . S
C1641 H1663 0.950 . S
C1642 H1638 0.949 . S
C1642 C1650 1.574 . S
C1642 C1658 1.368 . S
H1643 C1651 0.950 . S
H1644 C1649 0.950 . S
H1645 C1650 0.949 . S
H1646 C1652 0.950 . S
H1647 C1653 0.950 . S
H1648 C1654 0.949 . S
C1649 H1644 0.950 . S
C1649 C1651 1.327 . S
C1649 C1655 1.429 . S
C1650 C1642 1.574 . S
C1650 H1645 0.949 . S
C1650 C1656 1.368 . S
C1651 C1635 1.349 . S
C1651 H1643 0.950 . S
C1651 C1649 1.327 . S
C1652 C1640 1.349 . S
C1652 H1646 0.950 . S
C1652 C1653 1.327 . S
C1653 H1647 0.950 . S
C1653 C1652 1.327 . S
C1653 C1657 1.429 . S
C1654 C1637 1.574 . S
C1654 H1648 0.949 . S
C1654 C1658 1.368 . S
C1655 C1636 1.429 . S
C1655 C1649 1.429 . S
C1655 C1656 1.523 . S
C1656 C1637 1.368 . S
C1656 C1650 1.368 . S
C1656 C1655 1.523 . S
C1657 C1641 1.429 . S
C1657 C1653 1.429 . S
C1657 C1658 1.523 . S
C1658 C1642 1.368 . S
C1658 C1654 1.368 . S
C1658 C1657 1.523 . S
H1659 C1634 0.950 . S
H1660 C1636 0.950 . S
H1661 C1637 0.949 . S
H1662 C1639 0.950 . S
H1663 C1641 0.950 . S
C1664 C1665 1.349 . S
C1664 C1666 1.327 . S
C1664 H1689 0.950 . S
C1665 C1664 1.349 . S
C1665 C1681 1.349 . S
C1666 C1664 1.327 . S
C1666 C1685 1.429 . S
C1666 H1690 0.950 . S
C1667 C1684 1.574 . S
C1667 C1686 1.368 . S
C1667 H1691 0.949 . S
H1668 C1672 0.949 . S
C1669 C1670 1.349 . S
C1669 C1671 1.327 . S
C1669 H1692 0.950 . S
C1670 C1669 1.349 . S
C1670 C1682 1.349 . S
C1671 C1669 1.327 . S
C1671 C1687 1.429 . S
C1671 H1693 0.950 . S
C1672 H1668 0.949 . S
C1672 C1680 1.574 . S
C1672 C1688 1.368 . S
H1673 C1681 0.950 . S
H1674 C1679 0.950 . S
H1675 C1680 0.949 . S
H1676 C1682 0.950 . S
H1677 C1683 0.950 . S
H1678 C1684 0.949 . S
C1679 H1674 0.950 . S
C1679 C1681 1.327 . S
C1679 C1685 1.429 . S
C1680 C1672 1.574 . S
C1680 H1675 0.949 . S
C1680 C1686 1.368 . S
C1681 C1665 1.349 . S
C1681 H1673 0.950 . S
C1681 C1679 1.327 . S
C1682 C1670 1.349 . S
C1682 H1676 0.950 . S
C1682 C1683 1.327 . S
C1683 H1677 0.950 . S
C1683 C1682 1.327 . S
C1683 C1687 1.429 . S
C1684 C1667 1.574 . S
C1684 H1678 0.949 . S
C1684 C1688 1.368 . S
C1685 C1666 1.429 . S
C1685 C1679 1.429 . S
C1685 C1686 1.523 . S
C1686 C1667 1.368 . S
C1686 C1680 1.368 . S
C1686 C1685 1.523 . S
C1687 C1671 1.429 . S
C1687 C1683 1.429 . S
C1687 C1688 1.523 . S
C1688 C1672 1.368 . S
C1688 C1684 1.368 . S
C1688 C1687 1.523 . S
H1689 C1664 0.950 . S
H1690 C1666 0.950 . S
H1691 C1667 0.949 . S
H1692 C1669 0.950 . S
H1693 C1671 0.950 . S
C1694 C1695 1.349 . S
C1694 C1696 1.327 . S
C1694 H1719 0.950 . S
C1695 C1694 1.349 . S
C1695 C1711 1.349 . S
C1696 C1694 1.327 . S
C1696 C1715 1.429 . S
C1696 H1720 0.950 . S
C1697 C1714 1.574 . S
C1697 C1716 1.368 . S
C1697 H1721 0.949 . S
H1698 C1702 0.949 . S
C1699 C1700 1.349 . S
C1699 C1701 1.327 . S
C1699 H1722 0.950 . S
C1700 C1699 1.349 . S
C1700 C1712 1.349 . S
C1701 C1699 1.327 . S
C1701 C1717 1.429 . S
C1701 H1723 0.950 . S
C1702 H1698 0.949 . S
C1702 C1710 1.574 . S
C1702 C1718 1.368 . S
H1703 C1711 0.950 . S
H1704 C1709 0.950 . S
H1705 C1710 0.949 . S
H1706 C1712 0.950 . S
H1707 C1713 0.950 . S
H1708 C1714 0.949 . S
C1709 H1704 0.950 . S
C1709 C1711 1.327 . S
C1709 C1715 1.429 . S
C1710 C1702 1.574 . S
C1710 H1705 0.949 . S
C1710 C1716 1.368 . S
C1711 C1695 1.349 . S
C1711 H1703 0.950 . S
C1711 C1709 1.327 . S
C1712 C1700 1.349 . S
C1712 H1706 0.950 . S
C1712 C1713 1.327 . S
C1713 H1707 0.950 . S
C1713 C1712 1.327 . S
C1713 C1717 1.429 . S
C1714 C1697 1.574 . S
C1714 H1708 0.949 . S
C1714 C1718 1.368 . S
C1715 C1696 1.429 . S
C1715 C1709 1.429 . S
C1715 C1716 1.523 . S
C1716 C1697 1.368 . S
C1716 C1710 1.368 . S
C1716 C1715 1.523 . S
C1717 C1701 1.429 . S
C1717 C1713 1.429 . S
C1717 C1718 1.523 . S
C1718 C1702 1.368 . S
C1718 C1714 1.368 . S
C1718 C1717 1.523 . S
H1719 C1694 0.950 . S
H1720 C1696 0.950 . S
H1721 C1697 0.949 . S
H1722 C1699 0.950 . S
H1723 C1701 0.950 . S
C1010 C331 0.954 . S
C1005 C15 1.603 . S
C1040 C463 1.241 . S
C1035 C55 1.505 . S
C1070 C349 1.297 . S
C1065 C101 1.531 . S
C1100 C445 0.939 . S
C1095 C141 1.566 . S
C1130 C577 1.229 . S
C1125 C2 1.503 . S
C1160 C691 1.302 . S
C1155 C61 1.547 . S
C1185 C95 1.621 . S
C1190 C831 1.242 . S
C1220 C945 1.152 . S
C1215 C135 1.539 . S
C1250 C559 0.895 . S
C1245 C42 1.443 . S
C1275 C82 1.627 . S
C1280 C673 0.986 . S
C1310 C777 1.210 . S
C1305 C122 1.564 . S
C1340 C891 1.079 . S
C1335 C21 1.386 . S
C1365 C162 1.516 . S
C1370 C489 1.128 . S
C1400 C321 1.092 . S
C1395 C221 1.418 . S
C1425 C255 1.366 . S
C1430 C435 1.052 . S
C1455 C282 1.544 . S
C1460 C375 1.141 . S
C1490 C787 1.008 . S
C1485 C181 1.600 . S
C1520 C901 1.068 . S
C1515 C202 1.553 . S
C1550 C549 0.994 . S
C1545 C242 1.289 . S
C1575 C301 1.521 . S
C1580 C663 1.220 . S
C1610 C805 1.211 . S
C1605 C215 1.466 . S
C1640 C919 1.144 . S
C1635 C261 1.476 . S
C1670 C603 1.174 . S
C1665 C295 1.564 . S
C1695 C175 1.652 . S
C1700 C717 1.170 . S
