# Generated by pormake.
# Topology pyr, (3,6)-cn, num edge types: 1
# Building blocks:
#     Node 0, Type 0, BuildingBlock: ESEHIV_clean_linker_0, # of connection points: 3
#     Node 1, Type 0, BuildingBlock: ESEHIV_clean_linker_0, # of connection points: 3
#     Node 2, Type 0, BuildingBlock: ESEHIV_clean_linker_0, # of connection points: 3
#     Node 3, Type 0, BuildingBlock: ESEHIV_clean_linker_0, # of connection points: 3
#     Node 4, Type 0, BuildingBlock: ESEHIV_clean_linker_0, # of connection points: 3
#     Node 5, Type 0, BuildingBlock: ESEHIV_clean_linker_0, # of connection points: 3
#     Node 6, Type 0, BuildingBlock: ESEHIV_clean_linker_0, # of connection points: 3
#     Node 7, Type 0, BuildingBlock: ESEHIV_clean_linker_0, # of connection points: 3
#     Node 8, Type 1, BuildingBlock: BETDAH_clean_sbu_0, # of connection points: 6
#     Node 9, Type 1, BuildingBlock: BETDAH_clean_sbu_0, # of connection points: 6
#     Node 10, Type 1, BuildingBlock: BETDAH_clean_sbu_0, # of connection points: 6
#     Node 11, Type 1, BuildingBlock: BETDAH_clean_sbu_0, # of connection points: 6
#     Edge 12, Type (0, 1), BuildingBlock: XUDNAN_clean_linker_2, # of connection points: 2
#     Edge 13, Type (0, 1), BuildingBlock: XUDNAN_clean_linker_2, # of connection points: 2
#     Edge 14, Type (0, 1), BuildingBlock: XUDNAN_clean_linker_2, # of connection points: 2
#     Edge 15, Type (0, 1), BuildingBlock: XUDNAN_clean_linker_2, # of connection points: 2
#     Edge 16, Type (0, 1), BuildingBlock: XUDNAN_clean_linker_2, # of connection points: 2
#     Edge 17, Type (0, 1), BuildingBlock: XUDNAN_clean_linker_2, # of connection points: 2
#     Edge 18, Type (0, 1), BuildingBlock: XUDNAN_clean_linker_2, # of connection points: 2
#     Edge 19, Type (0, 1), BuildingBlock: XUDNAN_clean_linker_2, # of connection points: 2
#     Edge 20, Type (0, 1), BuildingBlock: XUDNAN_clean_linker_2, # of connection points: 2
#     Edge 21, Type (0, 1), BuildingBlock: XUDNAN_clean_linker_2, # of connection points: 2
#     Edge 22, Type (0, 1), BuildingBlock: XUDNAN_clean_linker_2, # of connection points: 2
#     Edge 23, Type (0, 1), BuildingBlock: XUDNAN_clean_linker_2, # of connection points: 2
#     Edge 24, Type (0, 1), BuildingBlock: XUDNAN_clean_linker_2, # of connection points: 2
#     Edge 25, Type (0, 1), BuildingBlock: XUDNAN_clean_linker_2, # of connection points: 2
#     Edge 26, Type (0, 1), BuildingBlock: XUDNAN_clean_linker_2, # of connection points: 2
#     Edge 27, Type (0, 1), BuildingBlock: XUDNAN_clean_linker_2, # of connection points: 2
#     Edge 28, Type (0, 1), BuildingBlock: XUDNAN_clean_linker_2, # of connection points: 2
#     Edge 29, Type (0, 1), BuildingBlock: XUDNAN_clean_linker_2, # of connection points: 2
#     Edge 30, Type (0, 1), BuildingBlock: XUDNAN_clean_linker_2, # of connection points: 2
#     Edge 31, Type (0, 1), BuildingBlock: XUDNAN_clean_linker_2, # of connection points: 2
#     Edge 32, Type (0, 1), BuildingBlock: XUDNAN_clean_linker_2, # of connection points: 2
#     Edge 33, Type (0, 1), BuildingBlock: XUDNAN_clean_linker_2, # of connection points: 2
#     Edge 34, Type (0, 1), BuildingBlock: XUDNAN_clean_linker_2, # of connection points: 2
#     Edge 35, Type (0, 1), BuildingBlock: XUDNAN_clean_linker_2, # of connection points: 2
# Relax obj value: 0.135
# Max RMSD: 0.136
# Mean RMSD: 0.064
data_MOF--net-pyr--node1-BETDAH_clean_sbu_0--node2-ESEHIV_clean_linker_0--edge1-XUDNAN_clean_linker_2
_symmetry_space_group_name_H-M    P1
_symmetry_Int_Tables_number       1
_symmetry_cell_setting            triclinic
loop_
_symmetry_equiv_pos_as_xyz
'x, y, z'
_cell_length_a     35.590558
_cell_length_b     37.787004
_cell_length_c     34.056139
_cell_angle_alpha  90.897701
_cell_angle_beta   88.705393
_cell_angle_gamma 102.48913
loop_
_atom_site_label
_atom_site_type_symbol
_atom_site_fract_x
_atom_site_fract_y
_atom_site_fract_z
_atom_type_partial_charge
H0 H 0.35004 0.35327 0.28496 0.0
H1 H 0.4027 0.26172 0.26813 0.0
H2 H 0.36825 0.31403 0.16852 0.0
C3 C 0.36256 0.33565 0.26564 0.0
C4 C 0.35881 0.33791 0.22488 0.0
C5 C 0.37766 0.30777 0.28172 0.0
C6 C 0.39265 0.2844 0.25627 0.0
C7 C 0.38961 0.28661 0.21546 0.0
C8 C 0.37248 0.31335 0.19991 0.0
H9 H 0.12475 0.82437 0.78893 0.0
H10 H 0.21149 0.7608 0.78473 0.0
H11 H 0.16744 0.79343 0.67776 0.0
C12 C 0.14224 0.80893 0.77239 0.0
C13 C 0.14203 0.80937 0.7313 0.0
C14 C 0.16817 0.79251 0.79203 0.0
C15 C 0.19124 0.77337 0.76989 0.0
C16 C 0.19103 0.77309 0.72858 0.0
C17 C 0.1663 0.79136 0.70949 0.0
H18 H 0.70571 0.36225 0.91382 0.0
H19 H 0.70318 0.44689 0.83132 0.0
H20 H 0.62097 0.34477 0.82334 0.0
C21 C 0.69322 0.37202 0.88853 0.0
C22 C 0.66155 0.349 0.87043 0.0
C23 C 0.70858 0.40746 0.87518 0.0
C24 C 0.69111 0.42015 0.84269 0.0
C25 C 0.6595 0.398 0.82327 0.0
C26 C 0.64485 0.36238 0.83786 0.0
H27 H 0.8436 0.73219 0.41899 0.0
H28 H 0.93909 0.74561 0.33688 0.0
H29 H 0.84368 0.65362 0.32632 0.0
C30 C 0.8578 0.72226 0.39401 0.0
C31 C 0.8392 0.69003 0.37501 0.0
C32 C 0.89408 0.74241 0.38122 0.0
C33 C 0.9112 0.73052 0.34692 0.0
C34 C 0.89331 0.69828 0.32661 0.0
C35 C 0.85749 0.67831 0.34135 0.0
H36 H 0.64643 0.83706 0.81009 0.0
H37 H 0.69745 0.74432 0.79576 0.0
H38 H 0.66602 0.77741 0.91077 0.0
C39 C 0.65363 0.81296 0.82198 0.0
C40 C 0.65138 0.80811 0.86278 0.0
C41 C 0.67102 0.79058 0.79753 0.0
C42 C 0.68293 0.76114 0.81411 0.0
C43 C 0.68152 0.75642 0.85493 0.0
C44 C 0.66494 0.77949 0.8791 0.0
H45 H 0.74572 0.2455 0.46124 0.0
H46 H 0.82376 0.1801 0.42186 0.0
H47 H 0.86768 0.28336 0.47759 0.0
C48 C 0.77481 0.24112 0.45903 0.0
C49 C 0.80576 0.26799 0.47248 0.0
C50 C 0.78104 0.20949 0.44066 0.0
C51 C 0.8187 0.20443 0.43639 0.0
C52 C 0.8501 0.2309 0.44946 0.0
C53 C 0.84354 0.26266 0.4678 0.0
H54 H 0.35082 0.7549 0.16846 0.0
H55 H 0.33467 0.66981 0.25413 0.0
H56 H 0.43311 0.75886 0.26003 0.0
C57 C 0.3606 0.74331 0.1942 0.0
C58 C 0.39525 0.76121 0.21155 0.0
C59 C 0.33814 0.71053 0.20926 0.0
C60 C 0.35191 0.69448 0.24185 0.0
C61 C 0.38638 0.71179 0.26054 0.0
C62 C 0.40735 0.74515 0.24516 0.0
H63 H 0.12706 0.35319 0.75284 0.0
H64 H 0.22189 0.37081 0.6702 0.0
H65 H 0.21152 0.45478 0.75291 0.0
C66 C 0.15273 0.37089 0.74115 0.0
C67 C 0.1659 0.40642 0.75745 0.0
C68 C 0.17324 0.35738 0.71023 0.0
C69 C 0.20614 0.38071 0.69403 0.0
C70 C 0.22016 0.41588 0.70897 0.0
C71 C 0.19999 0.42816 0.74083 0.0
Ho72 Ho 0.07789 0.04737 0.52888 0.0
Ho73 Ho 1.00481 1.04514 0.57121 0.0
C74 C 0.0768 0.11247 0.59051 0.0
C75 C 0.13511 0.05457 0.47958 0.0
C76 C 0.16747 0.08511 0.47176 0.0
C77 C 0.20162 0.079 0.45451 0.0
C78 C 0.23269 0.10807 0.44763 0.0
C79 C 0.22999 0.14366 0.45798 0.0
C80 C 0.19592 0.14947 0.47606 0.0
C81 C 0.16495 0.12045 0.48293 0.0
C82 C 0.07271 1.01241 0.59818 0.0
C83 C 1.00674 0.97832 0.51288 0.0
C84 C 0.94562 1.03985 0.6177 0.0
C85 C 0.91236 1.01028 0.62585 0.0
C86 C 0.91436 0.97412 0.61817 0.0
C87 C 0.88204 0.94624 0.62431 0.0
C88 C 0.84714 0.95408 0.63802 0.0
C89 C 0.84521 0.99042 0.64523 0.0
C90 C 0.8776 1.01829 0.63915 0.0
C91 C 1.01177 0.07994 0.50132 0.0
O92 O 0.0947 0.10158 0.55964 0.0
O93 O 0.04279 0.09349 0.6026 0.0
O94 O 0.1351 1.03998 0.51406 0.0
O95 O 0.10109 0.05934 0.4702 0.0
O96 O 0.10357 1.03387 0.58474 0.0
O97 O 0.04632 1.01015 0.57371 0.0
O98 O 0.99072 0.9889 0.54513 0.0
O99 O 0.03884 0.99883 0.498 0.0
O100 O 0.94713 0.05284 0.58228 0.0
O101 O 0.97904 1.03512 0.62921 0.0
O102 O 0.98168 0.05641 0.51302 0.0
O103 O 0.03683 0.08279 0.52725 0.0
H104 H 0.20411 0.05183 0.44607 0.0
H105 H 0.25835 0.10281 0.43311 0.0
H106 H 0.1931 0.17653 0.48459 0.0
H107 H 0.13893 0.12565 0.49668 0.0
H108 H 0.94085 0.96745 0.60734 0.0
H109 H 0.88431 0.91854 0.61826 0.0
H110 H 0.81892 0.99726 0.6564 0.0
H111 H 0.87552 1.0461 0.64483 0.0
Ho112 Ho 0.55948 0.06259 0.0576 0.0
Ho113 Ho 0.49564 1.04377 1.01301 0.0
C114 C 0.48315 0.08764 0.08639 0.0
C115 C 0.61596 0.09292 0.10169 0.0
C116 C 0.62175 0.0957 0.14435 0.0
C117 C 0.5964 0.10927 0.16979 0.0
C118 C 0.6026 0.11135 0.21021 0.0
C119 C 0.63387 0.09946 0.2258 0.0
C120 C 0.65867 0.08526 0.20035 0.0
C121 C 0.65272 0.08355 0.15999 0.0
C122 C 0.5201 0.99444 0.07885 0.0
C123 C 0.5693 1.01452 0.98704 0.0
C124 C 0.43797 1.01233 0.97069 0.0
C125 C 0.40371 0.9824 0.97511 0.0
C126 C 0.40598 0.9465 0.96593 0.0
C127 C 0.37275 0.91898 0.96524 0.0
C128 C 0.33649 0.92679 0.97349 0.0
C129 C 0.33451 0.96227 0.98489 0.0
C130 C 0.36774 0.98982 0.98552 0.0
C131 C 0.54024 0.11029 0.99089 0.0
O132 O 0.52086 0.09708 0.08418 0.0
O133 O 0.46536 0.05978 0.0658 0.0
O134 O 0.61231 0.06051 0.08668 0.0
O135 O 0.59169 0.11037 0.08715 0.0
O136 O 0.55673 1.0055 0.07437 0.0
O137 O 0.50423 1.02091 0.07196 0.0
O138 O 0.53174 1.00518 0.99154 0.0
O139 O 0.58799 1.04399 1.00468 0.0
O140 O 0.47145 1.00364 0.96935 0.0
O141 O 0.43843 1.0417 0.99139 0.0
O142 O 0.50326 0.10277 0.99428 0.0
O143 O 0.55193 0.08198 0.99839 0.0
H144 H 0.57196 0.11845 0.15853 0.0
H145 H 0.58312 0.12244 0.22926 0.0
H146 H 0.68343 0.07656 0.21151 0.0
H147 H 0.67251 0.07288 0.1409 0.0
H148 H 0.43322 0.93985 0.95762 0.0
H149 H 0.37528 0.8921 0.95574 0.0
H150 H 0.30701 0.96905 0.99169 0.0
H151 H 0.36502 1.01719 0.99272 0.0
Ho152 Ho 0.52275 0.52691 0.51356 0.0
Ho153 Ho 0.53132 0.58926 0.56848 0.0
C154 C 0.56449 0.52323 0.59896 0.0
C155 C 0.54074 0.47612 0.47078 0.0
C156 C 0.57602 0.46198 0.47251 0.0
C157 C 0.61086 0.48519 0.48321 0.0
C158 C 0.6439 0.47162 0.4879 0.0
C159 C 0.64259 0.4345 0.48257 0.0
C160 C 0.60772 0.41128 0.47183 0.0
C161 C 0.57467 0.42497 0.4668 0.0
C162 C 0.45836 0.52559 0.55867 0.0
C163 C 0.48667 0.59113 0.48425 0.0
C164 C 0.51632 0.64125 0.61217 0.0
C165 C 0.48108 0.65542 0.61633 0.0
C166 C 0.48264 0.69063 0.63064 0.0
C167 C 0.44885 0.70371 0.63512 0.0
C168 C 0.41291 0.68167 0.62549 0.0
C169 C 0.41174 0.64651 0.6106 0.0
C170 C 0.44548 0.63362 0.60586 0.0
C171 C 0.59565 0.59005 0.52287 0.0
O172 O 0.56079 0.51235 0.56164 0.0
O173 O 0.55252 0.55251 0.61065 0.0
O174 O 0.51788 0.46958 0.50158 0.0
O175 O 0.5456 0.50959 0.45903 0.0
O176 O 0.45803 0.51401 0.5225 0.0
O177 O 0.49289 0.53516 0.56945 0.0
O178 O 0.49099 0.60222 0.52152 0.0
O179 O 0.49944 0.56245 0.47205 0.0
O180 O 0.53438 0.64669 0.57828 0.0
O181 O 0.51333 0.60819 0.62449 0.0
O182 O 0.59624 0.60126 0.55914 0.0
O183 O 0.56099 0.58111 0.51251 0.0
H184 H 0.61242 0.51379 0.48864 0.0
H185 H 0.67024 0.49002 0.49656 0.0
H186 H 0.60607 0.38257 0.46716 0.0
H187 H 0.54798 0.40662 0.45902 0.0
H188 H 0.50993 0.70794 0.63848 0.0
H189 H 0.45093 0.73112 0.64605 0.0
H190 H 0.38465 0.62853 0.60343 0.0
H191 H 0.44371 0.60639 0.59447 0.0
Ho192 Ho 0.02674 0.52045 0.05851 0.0
Ho193 Ho 0.0279 0.59147 1.01286 0.0
C194 C 0.09621 0.59296 0.07316 0.0
C195 C 0.04782 0.4607 0.07191 0.0
C196 C 0.07713 0.44925 0.0953 0.0
C197 C 0.0953 0.42282 0.07934 0.0
C198 C 0.12773 0.41546 0.09689 0.0
C199 C 0.14256 0.43412 0.13122 0.0
C200 C 0.12343 0.45993 0.14787 0.0
C201 C 0.09116 0.46767 0.12986 0.0
C202 C 0.99811 0.56742 0.10692 0.0
C203 C 0.9506 0.52579 1.01109 0.0
C204 C 1.00999 0.6467 0.98081 0.0
C205 C 0.97269 0.65557 0.97254 0.0
C206 C 0.94379 0.65333 1.0018 0.0
C207 C 0.90767 0.65942 0.99258 0.0
C208 C 0.89962 0.66742 0.95387 0.0
C209 C 0.92865 0.6694 0.92471 0.0
C210 C 0.96484 0.66376 0.93404 0.0
C211 C 0.06272 0.54224 0.97538 0.0
O212 O 0.08464 0.55707 0.07602 0.0
O213 O 0.07733 0.61231 0.05211 0.0
O214 O 1.01851 0.46993 0.09038 0.0
O215 O 0.06228 0.48287 1.04365 0.0
O216 O 1.00023 0.53474 0.11665 0.0
O217 O 1.01043 0.57199 0.07173 0.0
O218 O 0.96604 0.56093 1.00807 0.0
O219 O 0.96966 0.50308 1.02702 0.0
O220 O 1.01766 0.61935 0.9606 0.0
O221 O 1.01929 0.64628 1.01776 0.0
O222 O 0.07548 0.57714 0.97415 0.0
O223 O 0.03204 0.5359 0.99606 0.0
H224 H 0.0854 0.40896 0.05215 0.0
H225 H 0.14199 0.39608 0.08251 0.0
H226 H 0.13364 0.47454 0.17451 0.0
H227 H 0.07793 0.48871 0.14221 0.0
H228 H 0.9489 0.64656 1.03173 0.0
H229 H 0.88621 0.65811 1.01587 0.0
H230 H 0.92331 0.67473 0.89443 0.0
H231 H 0.98653 0.66508 0.91093 0.0
H232 H 0.31046 0.30604 0.32165 0.0
H233 H 0.42309 0.28155 0.33377 0.0
H234 H 0.39935 0.24494 0.39222 0.0
H235 H 0.2824 0.30238 0.43246 0.0
H236 H 0.23346 0.28192 0.42009 0.0
H237 H 0.26238 0.315 0.38797 0.0
H238 H 0.24825 0.26901 0.33022 0.0
H239 H 0.22029 0.23558 0.36196 0.0
H240 H 0.26053 0.22536 0.33437 0.0
H241 H 0.35942 0.1986 0.43603 0.0
H242 H 0.30814 0.15053 0.46457 0.0
H243 H 0.22202 0.20605 0.42389 0.0
C244 C 0.33094 0.29501 0.33797 0.0
C245 C 0.3687 0.29683 0.3232 0.0
C246 C 0.39402 0.28053 0.34458 0.0
C247 C 0.3808 0.2598 0.37793 0.0
C248 C 0.34243 0.25626 0.38991 0.0
C249 C 0.31811 0.27425 0.37111 0.0
C250 C 0.27682 0.26158 0.38517 0.0
C251 C 0.26296 0.29203 0.40778 0.0
C252 C 0.24996 0.24701 0.3509 0.0
C253 C 0.28116 0.23162 0.41241 0.0
C254 C 0.31927 0.22947 0.4156 0.0
C255 C 0.32964 0.20076 0.43481 0.0
C256 C 0.30035 0.17339 0.45057 0.0
C257 C 0.26118 0.17483 0.44675 0.0
C258 C 0.25175 0.20485 0.42835 0.0
H259 H 0.17436 0.85867 0.82668 0.0
H260 H 0.18706 0.74948 0.85018 0.0
H261 H 0.22114 0.77149 0.91117 0.0
H262 H 0.26115 0.8999 0.84654 0.0
H263 H 0.25109 0.94031 0.86936 0.0
H264 H 0.21788 0.91493 0.83527 0.0
H265 H 0.16276 0.90803 0.88743 0.0
H266 H 0.19581 0.93408 0.92186 0.0
H267 H 0.16867 0.88966 0.93487 0.0
H268 H 0.26752 0.8075 0.95854 0.0
H269 H 0.31942 0.85347 0.98853 0.0
H270 H 0.275 0.93854 0.93416 0.0
C271 C 0.1821 0.83884 0.84574 0.0
C272 C 0.17779 0.80229 0.83365 0.0
C273 C 0.19008 0.77766 0.85877 0.0
C274 C 0.20924 0.78989 0.89364 0.0
C275 C 0.21521 0.82668 0.90335 0.0
C276 C 0.20119 0.85066 0.88044 0.0
C277 C 0.21653 0.88953 0.89315 0.0
C278 C 0.23794 0.91244 0.85908 0.0
C279 C 0.184 0.90631 0.91037 0.0
C280 C 0.24376 0.88397 0.92472 0.0
C281 C 0.24194 0.84755 0.93103 0.0
C282 C 0.26834 0.83604 0.95477 0.0
C283 C 0.2979 0.86231 0.97146 0.0
C284 C 0.30099 0.89961 0.96399 0.0
C285 C 0.27265 0.91038 0.94154 0.0
H286 H 0.64241 0.46568 0.80749 0.0
H287 H 0.64161 0.36067 0.75387 0.0
H288 H 0.61937 0.38165 0.69196 0.0
H289 H 0.55547 0.47909 0.75992 0.0
H290 H 0.57288 0.52719 0.75392 0.0
H291 H 0.58943 0.50437 0.794 0.0
H292 H 0.65991 0.52888 0.77113 0.0
H293 H 0.64356 0.55164 0.73086 0.0
H294 H 0.67433 0.52019 0.72145 0.0
H295 H 0.59967 0.41497 0.6339 0.0
H296 H 0.57804 0.4551 0.58712 0.0
H297 H 0.58688 0.53854 0.67757 0.0
C298 C 0.63753 0.44704 0.78274 0.0
C299 C 0.64393 0.41117 0.78615 0.0
C300 C 0.63671 0.38793 0.75274 0.0
C301 C 0.62425 0.39979 0.71712 0.0
C302 C 0.6184 0.43511 0.71477 0.0
C303 C 0.62429 0.45831 0.74687 0.0
C304 C 0.61456 0.49459 0.73661 0.0
C305 C 0.5811 0.50173 0.76267 0.0
C306 C 0.65022 0.52567 0.74024 0.0
C307 C 0.60255 0.48827 0.69375 0.0
C308 C 0.60548 0.45383 0.68174 0.0
C309 C 0.59701 0.44183 0.64328 0.0
C310 C 0.58478 0.4651 0.61667 0.0
C311 C 0.58036 0.50034 0.62808 0.0
C312 C 0.58965 0.5119 0.66749 0.0
H313 H 0.89896 0.62808 0.30486 0.0
H314 H 0.92968 0.73908 0.2646 0.0
H315 H 0.95834 0.71843 0.20385 0.0
H316 H 0.98509 0.60179 0.26798 0.0
H317 H 0.96048 0.55652 0.25452 0.0
H318 H 0.94192 0.58013 0.29429 0.0
H319 H 0.87624 0.57042 0.26001 0.0
H320 H 0.89466 0.54688 0.22006 0.0
H321 H 0.87442 0.58557 0.21029 0.0
H322 H 0.98278 0.68428 0.14499 0.0
H323 H 1.00403 0.64123 0.09799 0.0
H324 H 0.95949 0.55314 0.17767 0.0
C325 C 0.9115 0.64813 0.28323 0.0
C326 C 0.91173 0.68544 0.28995 0.0
C327 C 0.9292 0.71049 0.26075 0.0
C328 C 0.94543 0.69892 0.22584 0.0
C329 C 0.94453 0.66201 0.22015 0.0
C330 C 0.92827 0.63705 0.24835 0.0
C331 C 0.93187 0.59906 0.23574 0.0
C332 C 0.9563 0.58346 0.26486 0.0
C333 C 0.89192 0.57401 0.23126 0.0
C334 C 0.95255 0.60638 0.19608 0.0
C335 C 0.95935 0.64281 0.18731 0.0
C336 C 0.97763 0.65575 0.15185 0.0
C337 C 0.98952 0.63105 0.12511 0.0
C338 C 0.98354 0.59369 0.13384 0.0
C339 C 0.96464 0.58149 0.16992 0.0
H340 H 0.45602 0.26095 0.21175 0.0
H341 H 0.34152 0.24444 0.16402 0.0
H342 H 0.35188 0.18964 0.12859 0.0
H343 H 0.50166 0.23228 0.12333 0.0
H344 H 0.53355 0.21106 0.15048 0.0
H345 H 0.517 0.24912 0.17149 0.0
H346 H 0.49111 0.21071 0.23263 0.0
H347 H 0.50697 0.17234 0.21142 0.0
H348 H 0.45729 0.16809 0.22633 0.0
H349 H 0.37313 0.13483 0.10182 0.0
H350 H 0.40738 0.08858 0.07696 0.0
H351 H 0.50931 0.14211 0.13967 0.0
C352 C 0.43341 0.24597 0.19339 0.0
C353 C 0.39808 0.25691 0.1903 0.0
C354 C 0.36899 0.23673 0.16621 0.0
C355 C 0.37447 0.20541 0.14636 0.0
C356 C 0.40931 0.19489 0.15068 0.0
C357 C 0.4386 0.21492 0.17294 0.0
C358 C 0.47365 0.19818 0.17178 0.0
C359 C 0.50852 0.22421 0.15315 0.0
C360 C 0.48277 0.18665 0.21299 0.0
C361 C 0.4594 0.16553 0.14553 0.0
C362 C 0.42202 0.16387 0.13418 0.0
C363 C 0.40249 0.13595 0.11029 0.0
C364 C 0.42211 0.10965 0.09657 0.0
C365 C 0.46101 0.11176 0.10637 0.0
C366 C 0.47958 0.13977 0.13172 0.0
H367 H 0.17661 0.86989 0.69278 0.0
H368 H 0.06465 0.80746 0.72875 0.0
H369 H 0.03376 0.85429 0.70083 0.0
H370 H 0.15709 0.95648 0.71765 0.0
H371 H 0.18505 0.97936 0.6771 0.0
H372 H 0.19766 0.94008 0.69794 0.0
H373 H 0.19284 0.90841 0.62955 0.0
H374 H 0.18085 0.94781 0.60841 0.0
H375 H 0.14926 0.90396 0.60216 0.0
H376 H 1.01581 0.90784 0.66663 0.0
H377 H 1.01242 0.96347 0.63043 0.0
H378 H 0.1371 0.99223 0.623 0.0
C379 C 0.14553 0.86588 0.6941 0.0
C380 C 0.12272 0.83495 0.71191 0.0
C381 C 0.08231 0.83087 0.71448 0.0
C382 C 0.06468 0.85734 0.69893 0.0
C383 C 0.08812 0.88788 0.68182 0.0
C384 C 0.1277 0.89227 0.67958 0.0
C385 C 0.1467 0.92789 0.66104 0.0
C386 C 0.17318 0.95239 0.69018 0.0
C387 C 0.16869 0.92163 0.62303 0.0
C388 C 0.11165 0.94279 0.65258 0.0
C389 C 0.07805 0.91935 0.66456 0.0
C390 C 0.04197 0.92659 0.65763 0.0
C391 C 0.0403 0.95824 0.63724 0.0
C392 C 0.07449 0.98229 0.62453 0.0
C393 C 0.1105 0.97472 0.63308 0.0
H394 H 0.77288 0.38772 0.90712 0.0
H395 H 0.72243 0.48107 0.89 0.0
H396 H 0.77709 0.5198 0.924 0.0
H397 H 0.80944 0.4133 1.00468 0.0
H398 H 0.85306 0.39702 0.99675 0.0
H399 H 0.81014 0.37626 0.97084 0.0
H400 H 0.84721 0.38876 0.90454 0.0
H401 H 0.89027 0.40943 0.93023 0.0
H402 H 0.87208 0.43435 0.89303 0.0
H403 H 0.83724 0.54895 0.96015 0.0
H404 H 0.89913 0.5669 0.99332 0.0
H405 H 0.91228 0.45528 0.98901 0.0
C406 C 0.77303 0.41626 0.91073 0.0
C407 C 0.74277 0.43106 0.89547 0.0
C408 C 0.74504 0.4688 0.90059 0.0
C409 C 0.77599 0.4911 0.92027 0.0
C410 C 0.80497 0.4756 0.93499 0.0
C411 C 0.8039 0.43905 0.93037 0.0
C412 C 0.83921 0.42947 0.94863 0.0
C413 C 0.82724 0.4024 0.98222 0.0
C414 C 0.86364 0.41462 0.91723 0.0
C415 C 0.86032 0.46634 0.96424 0.0
C416 C 0.83983 0.49246 0.95601 0.0
C417 C 0.85339 0.52863 0.96672 0.0
C418 C 0.88885 0.53857 0.98571 0.0
C419 C 0.91109 0.51267 0.99422 0.0
C420 C 0.89611 0.47583 0.98355 0.0
H421 H 0.81234 0.6806 0.45258 0.0
H422 H 0.7771 0.65271 0.33277 0.0
H423 H 0.71288 0.62165 0.35756 0.0
H424 H 0.7586 0.59804 0.4983 0.0
H425 H 0.74615 0.62129 0.54168 0.0
H426 H 0.7901 0.63935 0.51473 0.0
H427 H 0.76927 0.70044 0.50756 0.0
H428 H 0.72532 0.68258 0.53451 0.0
H429 H 0.7235 0.70092 0.48622 0.0
H430 H 0.65041 0.5956 0.39576 0.0
H431 H 0.59631 0.57771 0.44335 0.0
H432 H 0.67128 0.62359 0.5383 0.0
C433 C 0.79124 0.66812 0.43132 0.0
C434 C 0.80046 0.66937 0.39037 0.0
C435 C 0.77158 0.65191 0.36417 0.0
C436 C 0.7347 0.63431 0.37803 0.0
C437 C 0.72663 0.63409 0.41839 0.0
C438 C 0.75418 0.65053 0.44466 0.0
C439 C 0.7379 0.64736 0.48652 0.0
C440 C 0.75948 0.62519 0.5118 0.0
C441 C 0.73907 0.68507 0.50477 0.0
C442 C 0.69671 0.62701 0.47976 0.0
C443 C 0.69084 0.61939 0.44023 0.0
C444 C 0.65489 0.60137 0.42673 0.0
C445 C 0.62423 0.59124 0.45407 0.0
C446 C 0.62931 0.59907 0.49471 0.0
C447 C 0.66632 0.61698 0.50754 0.0
H448 H 0.29513 0.31579 0.18121 0.0
H449 H 0.36475 0.41094 0.23661 0.0
H450 H 0.31769 0.44709 0.2174 0.0
H451 H 0.2609 0.36107 0.09942 0.0
H452 H 0.2136 0.33191 0.10175 0.0
H453 H 0.25482 0.3152 0.11643 0.0
H454 H 0.22193 0.29785 0.18421 0.0
H455 H 0.18081 0.31486 0.16995 0.0
H456 H 0.20617 0.33206 0.21385 0.0
H457 H 0.26132 0.47193 0.19321 0.0
H458 H 0.20084 0.48327 0.16727 0.0
H459 H 0.16641 0.36962 0.13366 0.0
C460 C 0.30099 0.34449 0.1883 0.0
C461 C 0.33387 0.36093 0.20954 0.0
C462 C 0.33991 0.39815 0.21977 0.0
C463 C 0.31336 0.41876 0.20906 0.0
C464 C 0.28078 0.40151 0.18865 0.0
C465 C 0.27456 0.36516 0.17848 0.0
C466 C 0.23619 0.35229 0.15901 0.0
C467 C 0.24172 0.33936 0.11664 0.0
C468 C 0.20972 0.32251 0.18321 0.0
C469 C 0.22161 0.38701 0.15985 0.0
C470 C 0.24779 0.41522 0.17667 0.0
C471 C 0.24055 0.44995 0.18016 0.0
C472 C 0.20584 0.45602 0.16569 0.0
C473 C 0.17852 0.42736 0.14838 0.0
C474 C 0.18669 0.39238 0.14601 0.0
H475 H 0.587 0.30967 0.89027 0.0
H476 H 0.70646 0.30075 0.88465 0.0
H477 H 0.68841 0.23988 0.91354 0.0
H478 H 0.56428 0.26508 0.98332 0.0
H479 H 0.5164 0.2416 0.97051 0.0
H480 H 0.53787 0.28401 0.94753 0.0
H481 H 0.52667 0.25358 0.87898 0.0
H482 H 0.50497 0.21112 0.90177 0.0
H483 H 0.54511 0.21364 0.86791 0.0
H484 H 0.65826 0.18013 0.94526 0.0
H485 H 0.6179 0.12582 0.9762 0.0
H486 H 0.51705 0.17132 0.96302 0.0
C487 C 0.60924 0.29466 0.89459 0.0
C488 C 0.64839 0.31046 0.88496 0.0
C489 C 0.67644 0.28975 0.89181 0.0
C490 C 0.66642 0.25494 0.90825 0.0
C491 C 0.62796 0.24049 0.91809 0.0
C492 C 0.59968 0.25957 0.91146 0.0
C493 C 0.56061 0.23774 0.92585 0.0
C494 C 0.5438 0.25834 0.95876 0.0
C495 C 0.53268 0.22847 0.89158 0.0
C496 C 0.57143 0.20364 0.94158 0.0
C497 C 0.61051 0.20591 0.93667 0.0
C498 C 0.6276 0.1781 0.94907 0.0
C499 C 0.60437 0.14721 0.96671 0.0
C500 C 0.56416 0.14387 0.97212 0.0
C501 C 0.54764 0.17277 0.95932 0.0
H502 H 0.93596 0.81158 0.35805 0.0
H503 H 0.89767 0.74618 0.46104 0.0
H504 H 0.92307 0.79839 0.50365 0.0
H505 H 0.02601 0.86371 0.40236 0.0
H506 H 0.02338 0.90558 0.37904 0.0
H507 H 1.0032 0.86282 0.35552 0.0
H508 H 0.93753 0.88126 0.35166 0.0
H509 H 0.95744 0.92397 0.37534 0.0
H510 H 0.91516 0.89448 0.39593 0.0
H511 H 0.94734 0.8577 0.53596 0.0
H512 H 0.9747 0.92032 0.55679 0.0
H513 H 1.00298 0.95014 0.43537 0.0
C514 C 0.93344 0.80815 0.38956 0.0
C515 C 0.9139 0.77445 0.40587 0.0
C516 C 0.91141 0.77154 0.44743 0.0
C517 C 0.92602 0.80114 0.47209 0.0
C518 C 0.94392 0.83398 0.45527 0.0
C519 C 0.94833 0.83777 0.41504 0.0
C520 C 0.9689 0.87667 0.4053 0.0
C521 C 1.00768 0.87722 0.3843 0.0
C522 C 0.94322 0.89518 0.38058 0.0
C523 C 0.97473 0.89398 0.44628 0.0
C524 C 0.95974 0.86858 0.47443 0.0
C525 C 0.95958 0.87771 0.51421 0.0
C526 C 0.97511 0.91359 0.52575 0.0
C527 C 0.9913 0.94044 0.49795 0.0
C528 C 0.99134 0.93028 0.45749 0.0
H529 H 0.26683 0.77695 0.74578 0.0
H530 H 0.18058 0.73427 0.65912 0.0
H531 H 0.22887 0.70882 0.62114 0.0
H532 H 0.3479 0.80005 0.67942 0.0
H533 H 0.38074 0.78636 0.71258 0.0
H534 H 0.3399 0.80257 0.73176 0.0
H535 H 0.31734 0.74329 0.77106 0.0
H536 H 0.35826 0.72703 0.75229 0.0
H537 H 0.31034 0.70023 0.74562 0.0
H538 H 0.28686 0.68715 0.59345 0.0
H539 H 0.34857 0.6692 0.57951 0.0
H540 H 0.39475 0.72328 0.68699 0.0
C541 C 0.25776 0.76187 0.7191 0.0
C542 C 0.2197 0.75737 0.70563 0.0
C543 C 0.20959 0.73827 0.66992 0.0
C544 C 0.2368 0.72366 0.64822 0.0
C545 C 0.27395 0.7284 0.66263 0.0
C546 C 0.28434 0.74694 0.69734 0.0
C547 C 0.32569 0.74745 0.70719 0.0
C548 C 0.34998 0.78642 0.70776 0.0
C549 C 0.32803 0.72835 0.74635 0.0
C550 C 0.33696 0.72594 0.67277 0.0
C551 C 0.30689 0.71546 0.64717 0.0
C552 C 0.31053 0.69511 0.61339 0.0
C553 C 0.34565 0.68485 0.60587 0.0
C554 C 0.37662 0.69465 0.63221 0.0
C555 C 0.37203 0.71575 0.66589 0.0
H556 H 0.74306 0.79304 0.76821 0.0
H557 H 0.63525 0.82186 0.74052 0.0
H558 H 0.66799 0.85977 0.68606 0.0
H559 H 0.7971 0.8741 0.76189 0.0
H560 H 0.83969 0.86248 0.74051 0.0
H561 H 0.80664 0.82968 0.76892 0.0
H562 H 0.7986 0.784 0.71071 0.0
H563 H 0.83252 0.81638 0.68205 0.0
H564 H 0.78537 0.79748 0.66331 0.0
H565 H 0.71491 0.90482 0.64617 0.0
H566 H 0.77101 0.95047 0.62212 0.0
H567 H 0.84758 0.89168 0.67668 0.0
C568 C 0.72565 0.80544 0.7493 0.0
C569 C 0.68643 0.80409 0.75837 0.0
C570 C 0.66527 0.82234 0.73395 0.0
C571 C 0.68363 0.84383 0.70288 0.0
C572 C 0.72297 0.84631 0.69634 0.0
C573 C 0.74354 0.82696 0.71846 0.0
C574 C 0.78635 0.8383 0.71002 0.0
C575 C 0.8087 0.85196 0.74755 0.0
C576 C 0.8016 0.80719 0.69033 0.0
C577 C 0.78696 0.86872 0.68162 0.0
C578 C 0.75015 0.87249 0.67336 0.0
C579 C 0.74379 0.90149 0.65155 0.0
C580 C 0.77578 0.92747 0.63836 0.0
C581 C 0.81361 0.92441 0.64732 0.0
C582 C 0.81907 0.89416 0.66841 0.0
H583 H 0.72533 0.2264 0.39576 0.0
H584 H 0.76606 0.13503 0.44068 0.0
H585 H 0.72054 0.09363 0.39822 0.0
H586 H 0.62115 0.17577 0.37905 0.0
H587 H 0.61962 0.20116 0.33497 0.0
H588 H 0.64781 0.22202 0.37586 0.0
H589 H 0.70804 0.23771 0.32999 0.0
H590 H 0.68034 0.21678 0.28926 0.0
H591 H 0.72316 0.20189 0.30246 0.0
H592 H 0.68219 0.06484 0.34168 0.0
H593 H 0.65391 0.05108 0.27612 0.0
H594 H 0.63719 0.16099 0.26896 0.0
C595 C 0.72333 0.19751 0.39813 0.0
C596 C 0.74898 0.18385 0.42166 0.0
C597 C 0.74664 0.14601 0.42276 0.0
C598 C 0.72064 0.12229 0.39903 0.0
C599 C 0.69685 0.13684 0.37484 0.0
C600 C 0.69758 0.17359 0.37468 0.0
C601 C 0.6735 0.1832 0.34209 0.0
C602 C 0.63843 0.1963 0.35901 0.0
C603 C 0.69772 0.21152 0.31433 0.0
C604 C 0.66144 0.14662 0.32213 0.0
C605 C 0.6743 0.12 0.34204 0.0
C606 C 0.67099 0.08515 0.32645 0.0
C607 C 0.65516 0.07764 0.28914 0.0
C608 C 0.64311 0.10494 0.26784 0.0
C609 C 0.64511 0.13938 0.28519 0.0
H610 H 0.40455 0.64446 0.276 0.0
H611 H 0.39753 0.74704 0.33112 0.0
H612 H 0.41943 0.72652 0.39349 0.0
H613 H 0.37461 0.58701 0.36189 0.0
H614 H 0.40833 0.55842 0.35219 0.0
H615 H 0.39013 0.58004 0.31215 0.0
H616 H 0.45976 0.60917 0.28993 0.0
H617 H 0.47815 0.58761 0.32986 0.0
H618 H 0.49197 0.63609 0.32446 0.0
H619 H 0.44188 0.69491 0.45087 0.0
H620 H 0.46751 0.65693 0.49709 0.0
H621 H 0.46482 0.57499 0.40581 0.0
C622 C 0.4073 0.66243 0.30134 0.0
C623 C 0.39889 0.69751 0.29841 0.0
C624 C 0.40363 0.7202 0.33231 0.0
C625 C 0.41602 0.70867 0.36804 0.0
C626 C 0.4243 0.67425 0.36996 0.0
C627 C 0.4205 0.65149 0.33742 0.0
C628 C 0.4332 0.6165 0.34729 0.0
C629 C 0.39956 0.58354 0.34313 0.0
C630 C 0.46783 0.61209 0.32134 0.0
C631 C 0.44463 0.62315 0.3903 0.0
C632 C 0.43877 0.65655 0.40276 0.0
C633 C 0.44667 0.66878 0.44124 0.0
C634 C 0.46124 0.64679 0.46751 0.0
C635 C 0.46851 0.61264 0.45567 0.0
C636 C 0.45978 0.60081 0.41623 0.0
H637 H 0.16716 0.47851 0.78221 0.0
H638 H 0.11795 0.36698 0.81511 0.0
H639 H 0.08572 0.3892 0.87179 0.0
H640 H 0.18856 0.50988 0.88197 0.0
H641 H 0.17861 0.55393 0.87373 0.0
H642 H 0.19572 0.52949 0.83373 0.0
H643 H 0.13654 0.53455 0.79316 0.0
H644 H 0.1192 0.55895 0.83304 0.0
H645 H 0.08884 0.51832 0.81355 0.0
H646 H 0.0564 0.42419 0.92552 0.0
H647 H 0.03774 0.46806 0.97271 0.0
H648 H 0.11286 0.55624 0.91095 0.0
C649 C 0.15022 0.45827 0.80123 0.0
C650 C 0.14549 0.4204 0.79263 0.0
C651 C 0.12183 0.39596 0.81911 0.0
C652 C 0.10347 0.40839 0.85213 0.0
C653 C 0.10918 0.4456 0.85953 0.0
C654 C 0.13243 0.47016 0.83504 0.0
C655 C 0.13524 0.50875 0.8505 0.0
C656 C 0.17701 0.52656 0.86058 0.0
C657 C 0.11899 0.53148 0.82079 0.0
C658 C 0.10983 0.50211 0.88744 0.0
C659 C 0.09462 0.46547 0.89182 0.0
C660 C 0.06882 0.45284 0.92263 0.0
C661 C 0.05852 0.47805 0.94961 0.0
C662 C 0.07456 0.51571 0.94662 0.0
C663 C 0.1006 0.52766 0.91482 0.0
H664 H 0.58734 0.83741 0.86461 0.0
H665 H 0.69952 0.84707 0.91596 0.0
H666 H 0.69209 0.90302 0.95092 0.0
H667 H 0.5928 0.93088 0.84953 0.0
H668 H 0.5433 0.92983 0.86302 0.0
H669 H 0.55664 0.88987 0.84276 0.0
H670 H 0.52688 0.85291 0.90365 0.0
H671 H 0.51276 0.89258 0.92368 0.0
H672 H 0.54186 0.86927 0.95206 0.0
H673 H 0.67456 0.96006 0.97621 0.0
H674 H 0.64349 1.00935 0.99915 0.0
H675 H 0.54133 0.9609 0.9341 0.0
C676 C 0.60991 0.85105 0.88382 0.0
C677 C 0.64379 0.83795 0.88806 0.0
C678 C 0.67306 0.85648 0.91302 0.0
C679 C 0.66928 0.88842 0.9326 0.0
C680 C 0.63589 0.90115 0.92716 0.0
C681 C 0.60633 0.88266 0.90411 0.0
C682 C 0.57309 0.90177 0.90399 0.0
C683 C 0.56607 0.9138 0.86235 0.0
C684 C 0.53649 0.8777 0.92193 0.0
C685 C 0.58877 0.93401 0.93026 0.0
C686 C 0.62526 0.93343 0.94284 0.0
C687 C 0.64587 0.96071 0.96683 0.0
C688 C 0.62816 0.98874 0.9794 0.0
C689 C 0.59009 0.98884 0.96835 0.0
C690 C 0.57049 0.96144 0.94297 0.0
H691 H 0.90442 0.23414 0.50518 0.0
H692 H 0.88223 0.20974 0.3822 0.0
H693 H 0.93703 0.17968 0.37802 0.0
H694 H 1.01673 0.2407 0.49638 0.0
H695 H 1.01558 0.21993 0.54379 0.0
H696 H 0.98407 0.25022 0.53434 0.0
H697 H 0.92532 0.20045 0.55525 0.0
H698 H 0.95627 0.17012 0.56464 0.0
H699 H 0.91721 0.15675 0.53097 0.0
H700 H 0.97574 0.13548 0.39239 0.0
H701 H 1.0014 0.08685 0.42303 0.0
H702 H 1.00449 0.14258 0.53513 0.0
C703 C 0.91274 0.22439 0.47693 0.0
C704 C 0.88927 0.22403 0.4441 0.0
C705 C 0.89995 0.21008 0.40772 0.0
C706 C 0.93118 0.19315 0.40502 0.0
C707 C 0.95203 0.19119 0.43874 0.0
C708 C 0.94411 0.20751 0.47382 0.0
C709 C 0.96653 0.19649 0.50713 0.0
C710 C 0.99758 0.22877 0.52123 0.0
C711 C 0.93971 0.17995 0.54144 0.0
C712 C 0.98461 0.16845 0.48625 0.0
C713 C 0.97678 0.16643 0.44656 0.0
C714 C 0.98383 0.13789 0.42291 0.0
C715 C 0.99824 0.11032 0.44042 0.0
C716 C 1.00586 0.11196 0.48089 0.0
C717 C 1.00036 0.14192 0.50368 0.0
H718 H 0.30211 0.6393 0.18572 0.0
H719 H 0.28414 0.74919 0.19509 0.0
H720 H 0.22151 0.72986 0.16373 0.0
H721 H 0.25913 0.61881 0.09099 0.0
H722 H 0.23586 0.57257 0.1016 0.0
H723 H 0.27911 0.59373 0.12673 0.0
H724 H 0.24393 0.57887 0.19362 0.0
H725 H 0.20058 0.55761 0.16865 0.0
H726 H 0.19977 0.59366 0.20376 0.0
H727 H 0.16308 0.70127 0.12879 0.0
H728 H 0.10935 0.66404 0.09342 0.0
H729 H 0.15987 0.56988 0.10515 0.0
C730 C 0.28469 0.65909 0.18159 0.0
C731 C 0.29865 0.6961 0.19272 0.0
C732 C 0.27479 0.721 0.18645 0.0
C733 C 0.2389 0.71021 0.16873 0.0
C734 C 0.22644 0.6741 0.15731 0.0
C735 C 0.24822 0.64865 0.16359 0.0
C736 C 0.22744 0.61171 0.14725 0.0
C737 C 0.25185 0.59842 0.11471 0.0
C738 C 0.21734 0.58381 0.1803 0.0
C739 C 0.19105 0.62075 0.13056 0.0
C740 C 0.19152 0.65704 0.13697 0.0
C741 C 0.16231 0.67278 0.12375 0.0
C742 C 0.1318 0.6512 0.10333 0.0
C743 C 0.12992 0.61377 0.09595 0.0
C744 C 0.16008 0.59827 0.11026 0.0
H745 H 0.24686 0.42219 0.6313 0.0
H746 H 0.27871 0.46092 0.7492 0.0
H747 H 0.3408 0.49566 0.7232 0.0
H748 H 0.33964 0.40919 0.60124 0.0
H749 H 0.33637 0.42355 0.55145 0.0
H750 H 0.29329 0.40376 0.57885 0.0
H751 H 0.26566 0.46045 0.56611 0.0
H752 H 0.30871 0.48044 0.53867 0.0
H753 H 0.29308 0.50466 0.57975 0.0
H754 H 0.40182 0.524 0.68456 0.0
H755 H 0.45563 0.54302 0.63687 0.0
H756 H 0.38504 0.48561 0.54405 0.0
C757 C 0.26677 0.43797 0.6518 0.0
C758 C 0.25723 0.43872 0.69256 0.0
C759 C 0.28446 0.46019 0.71789 0.0
C760 C 0.32014 0.47993 0.70337 0.0
C761 C 0.32862 0.47822 0.66325 0.0
C762 C 0.30263 0.45783 0.63779 0.0
C763 C 0.31927 0.45967 0.59611 0.0
C764 C 0.32232 0.42179 0.58104 0.0
C765 C 0.29524 0.47736 0.56853 0.0
C766 C 0.35888 0.48387 0.60213 0.0
C767 C 0.36364 0.49442 0.64108 0.0
C768 C 0.3982 0.51601 0.65399 0.0
C769 C 0.42869 0.52673 0.62663 0.0
C770 C 0.42472 0.51602 0.58661 0.0
C771 C 0.38903 0.49456 0.57432 0.0
H772 H 0.75769 0.76495 0.84183 0.0
H773 H 0.6625 0.70165 0.90912 0.0
H774 H 0.70776 0.6698 0.94123 0.0
H775 H 0.81318 0.69621 0.8268 0.0
H776 H 0.85846 0.72795 0.83288 0.0
H777 H 0.8179 0.74305 0.81376 0.0
H778 H 0.82426 0.79211 0.86871 0.0
H779 H 0.86468 0.77709 0.88817 0.0
H780 H 0.82351 0.77878 0.91937 0.0
H781 H 0.76493 0.64573 0.96584 0.0
H782 H 0.82803 0.63335 0.98278 0.0
H783 H 0.88455 0.71707 0.90215 0.0
C784 C 0.74624 0.74376 0.86267 0.0
C785 C 0.70667 0.73487 0.87241 0.0
C786 C 0.69277 0.70818 0.90094 0.0
C787 C 0.71822 0.69011 0.91923 0.0
C788 C 0.7573 0.69969 0.90895 0.0
C789 C 0.77113 0.72611 0.88148 0.0
C790 C 0.8144 0.73337 0.87716 0.0
C791 C 0.82669 0.7246 0.83516 0.0
C792 C 0.83277 0.77266 0.88908 0.0
C793 C 0.82302 0.70668 0.90629 0.0
C794 C 0.78986 0.68728 0.92423 0.0
C795 C 0.79105 0.66093 0.95209 0.0
C796 C 0.82707 0.65431 0.96174 0.0
C797 C 0.86139 0.67423 0.94383 0.0
C798 C 0.859 0.70083 0.91592 0.0
H799 H 0.37112 0.8183 0.17309 0.0
H800 H 0.47407 0.78414 0.20926 0.0
H801 H 0.51387 0.83967 0.18157 0.0
H802 H 0.4117 0.85724 0.0799 0.0
H803 H 0.38784 0.89474 0.08202 0.0
H804 H 0.36614 0.85271 0.10568 0.0
H805 H 0.36285 0.88706 0.17148 0.0
H806 H 0.38459 0.9292 0.14804 0.0
H807 H 0.40615 0.9151 0.19085 0.0
H808 H 0.54359 0.89719 0.14943 0.0
H809 H 0.56274 0.95404 0.11425 0.0
H810 H 0.44264 0.95529 0.09517 0.0
C811 C 0.40205 0.82227 0.17511 0.0
C812 C 0.419 0.79619 0.19428 0.0
C813 C 0.45975 0.80337 0.19605 0.0
C814 C 0.48286 0.83497 0.17995 0.0
C815 C 0.46532 0.85978 0.16161 0.0
C816 C 0.42589 0.854 0.15888 0.0
C817 C 0.41506 0.88545 0.13685 0.0
C818 C 0.39393 0.87171 0.09886 0.0
C819 C 0.39071 0.90538 0.16339 0.0
C820 C 0.45465 0.90968 0.12771 0.0
C821 C 0.4829 0.89386 0.1425 0.0
C822 C 0.52168 0.90981 0.13787 0.0
C823 C 0.53223 0.94251 0.11757 0.0
C824 C 0.50451 0.96006 0.10167 0.0
C825 C 0.46479 0.9432 0.10709 0.0
H826 H 0.10093 0.31202 0.69325 0.0
H827 H 0.22311 0.31304 0.69561 0.0
H828 H 0.21086 0.25174 0.66707 0.0
H829 H 0.06894 0.21504 0.71885 0.0
H830 H 0.02801 0.20726 0.68715 0.0
H831 H 0.04547 0.25155 0.70855 0.0
H832 H 0.05278 0.27971 0.63922 0.0
H833 H 0.03521 0.23547 0.61786 0.0
H834 H 0.08112 0.26233 0.60209 0.0
H835 H 0.18753 0.19249 0.63358 0.0
H836 H 0.15313 0.1358 0.60235 0.0
H837 H 0.04441 0.16754 0.6244 0.0
C838 C 0.12501 0.29916 0.6882 0.0
C839 C 0.16329 0.31825 0.69616 0.0
C840 C 0.19373 0.29995 0.68897 0.0
C841 C 0.18705 0.2648 0.67288 0.0
C842 C 0.14951 0.24727 0.66437 0.0
C843 C 0.11877 0.26343 0.67218 0.0
C844 C 0.08129 0.23779 0.65999 0.0
C845 C 0.05433 0.22729 0.69577 0.0
C846 C 0.06143 0.25485 0.62789 0.0
C847 C 0.09601 0.20515 0.64387 0.0
C848 C 0.13559 0.21162 0.64655 0.0
C849 C 0.15647 0.18688 0.63187 0.0
C850 C 0.13663 0.15468 0.61404 0.0
C851 C 0.09601 0.14669 0.61134 0.0
C852 C 0.0754 0.17237 0.62676 0.0
H853 H 0.74874 0.27776 0.52339 0.0
H854 H 0.84272 0.33635 0.45099 0.0
H855 H 0.81638 0.39144 0.45775 0.0
H856 H 0.68098 0.3055 0.47737 0.0
H857 H 0.64941 0.30934 0.51861 0.0
H858 H 0.68156 0.27888 0.52075 0.0
H859 H 0.71162 0.31042 0.5842 0.0
H860 H 0.67877 0.34064 0.58299 0.0
H861 H 0.72989 0.3588 0.58501 0.0
H862 H 0.77215 0.43434 0.45805 0.0
H863 H 0.7154 0.4619 0.45405 0.0
H864 H 0.64817 0.37403 0.52282 0.0
C865 C 0.76466 0.3027 0.51048 0.0
C866 C 0.79774 0.3029 0.48677 0.0
C867 C 0.81769 0.33577 0.46986 0.0
C868 C 0.80278 0.36717 0.47341 0.0
C869 C 0.76819 0.36521 0.49424 0.0
C870 C 0.7497 0.33389 0.51312 0.0
C871 C 0.70979 0.33639 0.5275 0.0
C872 C 0.67864 0.30573 0.50998 0.0
C873 C 0.70739 0.33659 0.57261 0.0
C874 C 0.70761 0.37288 0.51136 0.0
C875 C 0.74193 0.38962 0.49333 0.0
C876 C 0.74551 0.42196 0.473 0.0
C877 C 0.71313 0.43735 0.47076 0.0
C878 C 0.67752 0.42 0.48813 0.0
C879 C 0.67509 0.38779 0.50929 0.0
loop_
_geom_bond_atom_site_label_1
_geom_bond_atom_site_label_2
_geom_bond_distance
_geom_bond_site_symmetry_2
_ccdc_geom_bond_type
H0 C3 0.931 . S
H1 C6 0.928 . S
H2 C8 0.930 . S
C3 H0 0.931 . S
C3 C4 1.413 . S
C3 C5 1.360 . S
C4 C3 1.413 . S
C4 C8 1.429 . S
C5 C3 1.360 . S
C5 C6 1.372 . S
C6 H1 0.928 . S
C6 C5 1.372 . S
C6 C7 1.404 . S
C7 C6 1.404 . S
C7 C8 1.391 . S
C8 H2 0.930 . S
C8 C4 1.429 . S
C8 C7 1.391 . S
H9 C12 0.931 . S
H10 C15 0.928 . S
H11 C17 0.930 . S
C12 H9 0.931 . S
C12 C13 1.413 . S
C12 C14 1.360 . S
C13 C12 1.413 . S
C13 C17 1.429 . S
C14 C12 1.360 . S
C14 C15 1.372 . S
C15 H10 0.928 . S
C15 C14 1.372 . S
C15 C16 1.404 . S
C16 C15 1.404 . S
C16 C17 1.391 . S
C17 H11 0.930 . S
C17 C13 1.429 . S
C17 C16 1.391 . S
H18 C21 0.931 . S
H19 C24 0.928 . S
H20 C26 0.930 . S
C21 H18 0.931 . S
C21 C22 1.413 . S
C21 C23 1.360 . S
C22 C21 1.413 . S
C22 C26 1.429 . S
C23 C21 1.360 . S
C23 C24 1.372 . S
C24 H19 0.928 . S
C24 C23 1.372 . S
C24 C25 1.404 . S
C25 C24 1.404 . S
C25 C26 1.391 . S
C26 H20 0.930 . S
C26 C22 1.429 . S
C26 C25 1.391 . S
H27 C30 0.931 . S
H28 C33 0.928 . S
H29 C35 0.930 . S
C30 H27 0.931 . S
C30 C31 1.413 . S
C30 C32 1.360 . S
C31 C30 1.413 . S
C31 C35 1.429 . S
C32 C30 1.360 . S
C32 C33 1.372 . S
C33 H28 0.928 . S
C33 C32 1.372 . S
C33 C34 1.404 . S
C34 C33 1.404 . S
C34 C35 1.391 . S
C35 H29 0.930 . S
C35 C31 1.429 . S
C35 C34 1.391 . S
H36 C39 0.931 . S
H37 C42 0.928 . S
H38 C44 0.930 . S
C39 H36 0.931 . S
C39 C40 1.413 . S
C39 C41 1.360 . S
C40 C39 1.413 . S
C40 C44 1.429 . S
C41 C39 1.360 . S
C41 C42 1.372 . S
C42 H37 0.928 . S
C42 C41 1.372 . S
C42 C43 1.404 . S
C43 C42 1.404 . S
C43 C44 1.391 . S
C44 H38 0.930 . S
C44 C40 1.429 . S
C44 C43 1.391 . S
H45 C48 0.931 . S
H46 C51 0.928 . S
H47 C53 0.930 . S
C48 H45 0.931 . S
C48 C49 1.413 . S
C48 C50 1.360 . S
C49 C48 1.413 . S
C49 C53 1.429 . S
C50 C48 1.360 . S
C50 C51 1.372 . S
C51 H46 0.928 . S
C51 C50 1.372 . S
C51 C52 1.404 . S
C52 C51 1.404 . S
C52 C53 1.391 . S
C53 H47 0.930 . S
C53 C49 1.429 . S
C53 C52 1.391 . S
H54 C57 0.931 . S
H55 C60 0.928 . S
H56 C62 0.930 . S
C57 H54 0.931 . S
C57 C58 1.413 . S
C57 C59 1.360 . S
C58 C57 1.413 . S
C58 C62 1.429 . S
C59 C57 1.360 . S
C59 C60 1.372 . S
C60 H55 0.928 . S
C60 C59 1.372 . S
C60 C61 1.404 . S
C61 C60 1.404 . S
C61 C62 1.391 . S
C62 H56 0.930 . S
C62 C58 1.429 . S
C62 C61 1.391 . S
H63 C66 0.931 . S
H64 C69 0.928 . S
H65 C71 0.930 . S
C66 H63 0.931 . S
C66 C67 1.413 . S
C66 C68 1.360 . S
C67 C66 1.413 . S
C67 C71 1.429 . S
C68 C66 1.360 . S
C68 C69 1.372 . S
C69 H64 0.928 . S
C69 C68 1.372 . S
C69 C70 1.404 . S
C70 C69 1.404 . S
C70 C71 1.391 . S
C71 H65 0.930 . S
C71 C67 1.429 . S
C71 C70 1.391 . S
Ho72 C75 2.811 . S
Ho72 O92 2.322 . S
Ho72 O94 2.378 . S
Ho72 O95 2.524 . S
Ho72 O96 2.381 1_545 S
Ho72 O97 2.669 1_545 S
Ho72 O99 2.346 1_445 S
Ho72 O103 2.305 1_455 S
Ho73 C84 2.811 . S
Ho73 O93 2.346 1_665 S
Ho73 O97 2.305 1_655 S
Ho73 O98 2.322 . S
Ho73 O100 2.378 . S
Ho73 O101 2.524 . S
Ho73 O102 2.381 1_565 S
Ho73 O103 2.669 1_565 S
C74 O92 1.259 . S
C74 O93 1.268 . S
C75 Ho72 2.811 . S
C75 C76 1.488 . S
C75 O94 1.215 . S
C75 O95 1.289 . S
C76 C75 1.488 . S
C76 C77 1.348 . S
C76 C81 1.413 . S
C77 C76 1.348 . S
C77 C78 1.442 . S
C77 H104 0.930 . S
C78 C77 1.442 . S
C78 C79 1.381 . S
C78 H105 0.931 . S
C79 C78 1.381 . S
C79 C80 1.321 . S
C80 C79 1.321 . S
C80 C81 1.403 . S
C80 H106 0.934 . S
C81 C76 1.413 . S
C81 C80 1.403 . S
C81 H107 0.930 . S
C82 O96 1.275 . S
C82 O97 1.256 . S
C83 O98 1.259 . S
C83 O99 1.268 . S
C84 Ho73 2.811 . S
C84 C85 1.488 . S
C84 O100 1.215 . S
C84 O101 1.289 . S
C85 C84 1.488 . S
C85 C86 1.348 . S
C85 C90 1.413 . S
C86 C85 1.348 . S
C86 C87 1.442 . S
C86 H108 0.930 . S
C87 C86 1.442 . S
C87 C88 1.381 . S
C87 H109 0.931 . S
C88 C87 1.381 . S
C88 C89 1.321 . S
C89 C88 1.321 . S
C89 C90 1.403 . S
C89 H110 0.934 . S
C90 C85 1.413 . S
C90 C89 1.403 . S
C90 H111 0.930 . S
C91 O102 1.275 . S
C91 O103 1.256 . S
O92 Ho72 2.322 . S
O92 C74 1.259 . S
O93 Ho73 2.346 1_445 S
O93 C74 1.268 . S
O94 Ho72 2.378 . S
O94 C75 1.215 . S
O95 Ho72 2.524 . S
O95 C75 1.289 . S
O96 Ho72 2.381 1_565 S
O96 C82 1.275 . S
O97 Ho72 2.669 1_565 S
O97 Ho73 2.305 1_455 S
O97 C82 1.256 . S
O98 Ho73 2.322 . S
O98 C83 1.259 . S
O99 Ho72 2.346 1_665 S
O99 C83 1.268 . S
O100 Ho73 2.378 . S
O100 C84 1.215 . S
O101 Ho73 2.524 . S
O101 C84 1.289 . S
O102 Ho73 2.381 1_545 S
O102 C91 1.275 . S
O103 Ho72 2.305 1_655 S
O103 Ho73 2.669 1_545 S
O103 C91 1.256 . S
H104 C77 0.930 . S
H105 C78 0.931 . S
H106 C80 0.934 . S
H107 C81 0.930 . S
H108 C86 0.930 . S
H109 C87 0.931 . S
H110 C89 0.934 . S
H111 C90 0.930 . S
Ho112 C115 2.797 1_565 S
Ho112 O132 2.306 1_565 S
Ho112 O134 2.376 1_565 S
Ho112 O135 2.499 1_565 S
Ho112 O136 2.402 . S
Ho112 O137 2.679 . S
Ho112 O139 2.363 1_554 S
Ho112 O143 2.284 1_564 S
Ho113 C124 2.811 1_545 S
Ho113 O133 2.346 1_556 S
Ho113 O137 2.305 1_546 S
Ho113 O138 2.322 1_545 S
Ho113 O140 2.378 1_545 S
Ho113 O141 2.524 1_545 S
Ho113 O142 2.381 . S
Ho113 O143 2.669 . S
C114 O132 1.259 . S
C114 O133 1.268 . S
C115 Ho112 2.797 1_545 S
C115 C116 1.488 . S
C115 O134 1.215 . S
C115 O135 1.289 . S
C116 C115 1.488 . S
C116 C117 1.348 . S
C116 C121 1.413 . S
C117 C116 1.348 . S
C117 C118 1.442 . S
C117 H144 0.930 . S
C118 C117 1.442 . S
C118 C119 1.381 . S
C118 H145 0.931 . S
C119 C118 1.381 . S
C119 C120 1.321 . S
C120 C119 1.321 . S
C120 C121 1.403 . S
C120 H146 0.934 . S
C121 C116 1.413 . S
C121 C120 1.403 . S
C121 H147 0.930 . S
C122 O136 1.275 . S
C122 O137 1.256 . S
C123 O138 1.259 . S
C123 O139 1.268 . S
C124 Ho113 2.811 1_565 S
C124 C125 1.488 . S
C124 O140 1.215 . S
C124 O141 1.289 . S
C125 C124 1.488 . S
C125 C126 1.348 . S
C125 C130 1.413 . S
C126 C125 1.348 . S
C126 C127 1.442 . S
C126 H148 0.930 . S
C127 C126 1.442 . S
C127 C128 1.381 . S
C127 H149 0.931 . S
C128 C127 1.381 . S
C128 C129 1.321 . S
C129 C128 1.321 . S
C129 C130 1.403 . S
C129 H150 0.934 . S
C130 C125 1.413 . S
C130 C129 1.403 . S
C130 H151 0.930 . S
C131 O142 1.275 . S
C131 O143 1.256 . S
O132 Ho112 2.306 1_545 S
O132 C114 1.259 . S
O133 Ho113 2.346 1_554 S
O133 C114 1.268 . S
O134 Ho112 2.376 1_545 S
O134 C115 1.215 . S
O135 Ho112 2.499 1_545 S
O135 C115 1.289 . S
O136 Ho112 2.402 . S
O136 C122 1.275 . S
O137 Ho112 2.679 . S
O137 Ho113 2.305 1_564 S
O137 C122 1.256 . S
O138 Ho113 2.322 1_565 S
O138 C123 1.259 . S
O139 Ho112 2.363 1_556 S
O139 C123 1.268 . S
O140 Ho113 2.378 1_565 S
O140 C124 1.215 . S
O141 Ho113 2.524 1_565 S
O141 C124 1.289 . S
O142 Ho113 2.381 . S
O142 C131 1.275 . S
O143 Ho112 2.284 1_546 S
O143 Ho113 2.669 . S
O143 C131 1.256 . S
H144 C117 0.930 . S
H145 C118 0.931 . S
H146 C120 0.934 . S
H147 C121 0.930 . S
H148 C126 0.930 . S
H149 C127 0.931 . S
H150 C129 0.934 . S
H151 C130 0.930 . S
Ho152 C155 2.811 . S
Ho152 O172 2.322 . S
Ho152 O174 2.378 . S
Ho152 O175 2.524 . S
Ho152 O176 2.381 . S
Ho152 O177 2.669 . S
Ho152 O179 2.346 . S
Ho152 O183 2.305 . S
Ho153 C164 2.811 . S
Ho153 O173 2.346 . S
Ho153 O177 2.305 . S
Ho153 O178 2.322 . S
Ho153 O180 2.378 . S
Ho153 O181 2.524 . S
Ho153 O182 2.381 . S
Ho153 O183 2.669 . S
C154 O172 1.259 . S
C154 O173 1.268 . S
C155 Ho152 2.811 . S
C155 C156 1.488 . S
C155 O174 1.215 . S
C155 O175 1.289 . S
C156 C155 1.488 . S
C156 C157 1.348 . S
C156 C161 1.413 . S
C157 C156 1.348 . S
C157 C158 1.442 . S
C157 H184 0.930 . S
C158 C157 1.442 . S
C158 C159 1.381 . S
C158 H185 0.931 . S
C159 C158 1.381 . S
C159 C160 1.321 . S
C160 C159 1.321 . S
C160 C161 1.403 . S
C160 H186 0.934 . S
C161 C156 1.413 . S
C161 C160 1.403 . S
C161 H187 0.930 . S
C162 O176 1.275 . S
C162 O177 1.256 . S
C163 O178 1.259 . S
C163 O179 1.268 . S
C164 Ho153 2.811 . S
C164 C165 1.488 . S
C164 O180 1.215 . S
C164 O181 1.289 . S
C165 C164 1.488 . S
C165 C166 1.348 . S
C165 C170 1.413 . S
C166 C165 1.348 . S
C166 C167 1.442 . S
C166 H188 0.930 . S
C167 C166 1.442 . S
C167 C168 1.381 . S
C167 H189 0.931 . S
C168 C167 1.381 . S
C168 C169 1.321 . S
C169 C168 1.321 . S
C169 C170 1.403 . S
C169 H190 0.934 . S
C170 C165 1.413 . S
C170 C169 1.403 . S
C170 H191 0.930 . S
C171 O182 1.275 . S
C171 O183 1.256 . S
O172 Ho152 2.322 . S
O172 C154 1.259 . S
O173 Ho153 2.346 . S
O173 C154 1.268 . S
O174 Ho152 2.378 . S
O174 C155 1.215 . S
O175 Ho152 2.524 . S
O175 C155 1.289 . S
O176 Ho152 2.381 . S
O176 C162 1.275 . S
O177 Ho152 2.669 . S
O177 Ho153 2.305 . S
O177 C162 1.256 . S
O178 Ho153 2.322 . S
O178 C163 1.259 . S
O179 Ho152 2.346 . S
O179 C163 1.268 . S
O180 Ho153 2.378 . S
O180 C164 1.215 . S
O181 Ho153 2.524 . S
O181 C164 1.289 . S
O182 Ho153 2.381 . S
O182 C171 1.275 . S
O183 Ho152 2.305 . S
O183 Ho153 2.669 . S
O183 C171 1.256 . S
H184 C157 0.930 . S
H185 C158 0.931 . S
H186 C160 0.934 . S
H187 C161 0.930 . S
H188 C166 0.930 . S
H189 C167 0.931 . S
H190 C169 0.934 . S
H191 C170 0.930 . S
Ho192 C195 2.811 . S
Ho192 O212 2.322 . S
Ho192 O214 2.378 . S
Ho192 O215 2.524 . S
Ho192 O216 2.381 1_455 S
Ho192 O217 2.669 1_455 S
Ho192 O219 2.346 1_454 S
Ho192 O223 2.305 1_554 S
Ho193 C204 2.811 . S
Ho193 O213 2.346 1_656 S
Ho193 O217 2.305 1_556 S
Ho193 O218 2.322 . S
Ho193 O220 2.378 . S
Ho193 O221 2.524 . S
Ho193 O222 2.381 1_655 S
Ho193 O223 2.669 1_655 S
C194 O212 1.259 . S
C194 O213 1.268 . S
C195 Ho192 2.811 . S
C195 C196 1.488 . S
C195 O214 1.215 . S
C195 O215 1.289 . S
C196 C195 1.488 . S
C196 C197 1.348 . S
C196 C201 1.413 . S
C197 C196 1.348 . S
C197 C198 1.442 . S
C197 H224 0.930 . S
C198 C197 1.442 . S
C198 C199 1.381 . S
C198 H225 0.931 . S
C199 C198 1.381 . S
C199 C200 1.321 . S
C200 C199 1.321 . S
C200 C201 1.403 . S
C200 H226 0.934 . S
C201 C196 1.413 . S
C201 C200 1.403 . S
C201 H227 0.930 . S
C202 O216 1.275 . S
C202 O217 1.256 . S
C203 O218 1.259 . S
C203 O219 1.268 . S
C204 Ho193 2.811 . S
C204 C205 1.488 . S
C204 O220 1.215 . S
C204 O221 1.289 . S
C205 C204 1.488 . S
C205 C206 1.348 . S
C205 C210 1.413 . S
C206 C205 1.348 . S
C206 C207 1.442 . S
C206 H228 0.930 . S
C207 C206 1.442 . S
C207 C208 1.381 . S
C207 H229 0.931 . S
C208 C207 1.381 . S
C208 C209 1.321 . S
C209 C208 1.321 . S
C209 C210 1.403 . S
C209 H230 0.934 . S
C210 C205 1.413 . S
C210 C209 1.403 . S
C210 H231 0.930 . S
C211 O222 1.275 . S
C211 O223 1.256 . S
O212 Ho192 2.322 . S
O212 C194 1.259 . S
O213 Ho193 2.346 1_454 S
O213 C194 1.268 . S
O214 Ho192 2.378 . S
O214 C195 1.215 . S
O215 Ho192 2.524 . S
O215 C195 1.289 . S
O216 Ho192 2.381 1_655 S
O216 C202 1.275 . S
O217 Ho192 2.669 1_655 S
O217 Ho193 2.305 1_554 S
O217 C202 1.256 . S
O218 Ho193 2.322 . S
O218 C203 1.259 . S
O219 Ho192 2.346 1_656 S
O219 C203 1.268 . S
O220 Ho193 2.378 . S
O220 C204 1.215 . S
O221 Ho193 2.524 . S
O221 C204 1.289 . S
O222 Ho193 2.381 1_455 S
O222 C211 1.275 . S
O223 Ho192 2.305 1_556 S
O223 Ho193 2.669 1_455 S
O223 C211 1.256 . S
H224 C197 0.930 . S
H225 C198 0.931 . S
H226 C200 0.934 . S
H227 C201 0.930 . S
H228 C206 0.930 . S
H229 C207 0.931 . S
H230 C209 0.934 . S
H231 C210 0.930 . S
H232 C244 0.930 . S
H233 C246 0.930 . S
H234 C247 0.930 . S
H235 C251 0.959 . S
H236 C251 0.959 . S
H237 C251 0.961 . S
H238 C252 0.960 . S
H239 C252 0.961 . S
H240 C252 0.959 . S
H241 C255 0.929 . S
H242 C256 0.931 . S
H243 C258 0.930 . S
C244 H232 0.930 . S
C244 C245 1.399 . S
C244 C249 1.399 . S
C245 C244 1.399 . S
C245 C246 1.376 . S
C246 H233 0.930 . S
C246 C245 1.376 . S
C246 C247 1.388 . S
C247 H234 0.930 . S
C247 C246 1.388 . S
C247 C248 1.390 . S
C248 C247 1.390 . S
C248 C249 1.394 . S
C248 C254 1.465 . S
C249 C244 1.399 . S
C249 C248 1.394 . S
C249 C250 1.516 . S
C250 C249 1.516 . S
C250 C251 1.502 . S
C250 C252 1.561 . S
C250 C253 1.526 . S
C251 H235 0.959 . S
C251 H236 0.959 . S
C251 H237 0.961 . S
C251 C250 1.502 . S
C252 H238 0.960 . S
C252 H239 0.961 . S
C252 H240 0.959 . S
C252 C250 1.561 . S
C253 C250 1.526 . S
C253 C254 1.396 . S
C253 C258 1.390 . S
C254 C248 1.465 . S
C254 C253 1.396 . S
C254 C255 1.399 . S
C255 H241 0.929 . S
C255 C254 1.399 . S
C255 C256 1.385 . S
C256 H242 0.931 . S
C256 C255 1.385 . S
C256 C257 1.389 . S
C257 C256 1.389 . S
C257 C258 1.387 . S
C258 H243 0.930 . S
C258 C253 1.390 . S
C258 C257 1.387 . S
H259 C271 0.930 . S
H260 C273 0.930 . S
H261 C274 0.930 . S
H262 C278 0.959 . S
H263 C278 0.959 . S
H264 C278 0.961 . S
H265 C279 0.960 . S
H266 C279 0.961 . S
H267 C279 0.959 . S
H268 C282 0.929 . S
H269 C283 0.931 . S
H270 C285 0.930 . S
C271 H259 0.930 . S
C271 C272 1.399 . S
C271 C276 1.399 . S
C272 C271 1.399 . S
C272 C273 1.376 . S
C273 H260 0.930 . S
C273 C272 1.376 . S
C273 C274 1.388 . S
C274 H261 0.930 . S
C274 C273 1.388 . S
C274 C275 1.390 . S
C275 C274 1.390 . S
C275 C276 1.394 . S
C275 C281 1.465 . S
C276 C271 1.399 . S
C276 C275 1.394 . S
C276 C277 1.516 . S
C277 C276 1.516 . S
C277 C278 1.502 . S
C277 C279 1.561 . S
C277 C280 1.526 . S
C278 H262 0.959 . S
C278 H263 0.959 . S
C278 H264 0.961 . S
C278 C277 1.502 . S
C279 H265 0.960 . S
C279 H266 0.961 . S
C279 H267 0.959 . S
C279 C277 1.561 . S
C280 C277 1.526 . S
C280 C281 1.396 . S
C280 C285 1.390 . S
C281 C275 1.465 . S
C281 C280 1.396 . S
C281 C282 1.399 . S
C282 H268 0.929 . S
C282 C281 1.399 . S
C282 C283 1.385 . S
C283 H269 0.931 . S
C283 C282 1.385 . S
C283 C284 1.389 . S
C284 C283 1.389 . S
C284 C285 1.387 . S
C285 H270 0.930 . S
C285 C280 1.390 . S
C285 C284 1.387 . S
H286 C298 0.930 . S
H287 C300 0.930 . S
H288 C301 0.930 . S
H289 C305 0.959 . S
H290 C305 0.959 . S
H291 C305 0.961 . S
H292 C306 0.960 . S
H293 C306 0.961 . S
H294 C306 0.959 . S
H295 C309 0.929 . S
H296 C310 0.931 . S
H297 C312 0.930 . S
C298 H286 0.930 . S
C298 C299 1.399 . S
C298 C303 1.399 . S
C299 C298 1.399 . S
C299 C300 1.376 . S
C300 H287 0.930 . S
C300 C299 1.376 . S
C300 C301 1.388 . S
C301 H288 0.930 . S
C301 C300 1.388 . S
C301 C302 1.390 . S
C302 C301 1.390 . S
C302 C303 1.394 . S
C302 C308 1.465 . S
C303 C298 1.399 . S
C303 C302 1.394 . S
C303 C304 1.516 . S
C304 C303 1.516 . S
C304 C305 1.502 . S
C304 C306 1.561 . S
C304 C307 1.526 . S
C305 H289 0.959 . S
C305 H290 0.959 . S
C305 H291 0.961 . S
C305 C304 1.502 . S
C306 H292 0.960 . S
C306 H293 0.961 . S
C306 H294 0.959 . S
C306 C304 1.561 . S
C307 C304 1.526 . S
C307 C308 1.396 . S
C307 C312 1.390 . S
C308 C302 1.465 . S
C308 C307 1.396 . S
C308 C309 1.399 . S
C309 H295 0.929 . S
C309 C308 1.399 . S
C309 C310 1.385 . S
C310 H296 0.931 . S
C310 C309 1.385 . S
C310 C311 1.389 . S
C311 C310 1.389 . S
C311 C312 1.387 . S
C312 H297 0.930 . S
C312 C307 1.390 . S
C312 C311 1.387 . S
H313 C325 0.930 . S
H314 C327 0.930 . S
H315 C328 0.930 . S
H316 C332 0.959 . S
H317 C332 0.959 . S
H318 C332 0.961 . S
H319 C333 0.960 . S
H320 C333 0.961 . S
H321 C333 0.959 . S
H322 C336 0.929 . S
H323 C337 0.931 . S
H324 C339 0.930 . S
C325 H313 0.930 . S
C325 C326 1.399 . S
C325 C330 1.399 . S
C326 C325 1.399 . S
C326 C327 1.376 . S
C327 H314 0.930 . S
C327 C326 1.376 . S
C327 C328 1.388 . S
C328 H315 0.930 . S
C328 C327 1.388 . S
C328 C329 1.390 . S
C329 C328 1.390 . S
C329 C330 1.394 . S
C329 C335 1.465 . S
C330 C325 1.399 . S
C330 C329 1.394 . S
C330 C331 1.516 . S
C331 C330 1.516 . S
C331 C332 1.502 . S
C331 C333 1.561 . S
C331 C334 1.526 . S
C332 H316 0.959 . S
C332 H317 0.959 . S
C332 H318 0.961 . S
C332 C331 1.502 . S
C333 H319 0.960 . S
C333 H320 0.961 . S
C333 H321 0.959 . S
C333 C331 1.561 . S
C334 C331 1.526 . S
C334 C335 1.396 . S
C334 C339 1.390 . S
C335 C329 1.465 . S
C335 C334 1.396 . S
C335 C336 1.399 . S
C336 H322 0.929 . S
C336 C335 1.399 . S
C336 C337 1.385 . S
C337 H323 0.931 . S
C337 C336 1.385 . S
C337 C338 1.389 . S
C338 C337 1.389 . S
C338 C339 1.387 . S
C339 H324 0.930 . S
C339 C334 1.390 . S
C339 C338 1.387 . S
H340 C352 0.930 . S
H341 C354 0.930 . S
H342 C355 0.930 . S
H343 C359 0.959 . S
H344 C359 0.959 . S
H345 C359 0.961 . S
H346 C360 0.960 . S
H347 C360 0.961 . S
H348 C360 0.959 . S
H349 C363 0.929 . S
H350 C364 0.931 . S
H351 C366 0.930 . S
C352 H340 0.930 . S
C352 C353 1.399 . S
C352 C357 1.399 . S
C353 C352 1.399 . S
C353 C354 1.376 . S
C354 H341 0.930 . S
C354 C353 1.376 . S
C354 C355 1.388 . S
C355 H342 0.930 . S
C355 C354 1.388 . S
C355 C356 1.390 . S
C356 C355 1.390 . S
C356 C357 1.394 . S
C356 C362 1.465 . S
C357 C352 1.399 . S
C357 C356 1.394 . S
C357 C358 1.516 . S
C358 C357 1.516 . S
C358 C359 1.502 . S
C358 C360 1.561 . S
C358 C361 1.526 . S
C359 H343 0.959 . S
C359 H344 0.959 . S
C359 H345 0.961 . S
C359 C358 1.502 . S
C360 H346 0.960 . S
C360 H347 0.961 . S
C360 H348 0.959 . S
C360 C358 1.561 . S
C361 C358 1.526 . S
C361 C362 1.396 . S
C361 C366 1.390 . S
C362 C356 1.465 . S
C362 C361 1.396 . S
C362 C363 1.399 . S
C363 H349 0.929 . S
C363 C362 1.399 . S
C363 C364 1.385 . S
C364 H350 0.931 . S
C364 C363 1.385 . S
C364 C365 1.389 . S
C365 C364 1.389 . S
C365 C366 1.387 . S
C366 H351 0.930 . S
C366 C361 1.390 . S
C366 C365 1.387 . S
H367 C379 0.930 . S
H368 C381 0.930 . S
H369 C382 0.930 . S
H370 C386 0.959 . S
H371 C386 0.959 . S
H372 C386 0.961 . S
H373 C387 0.960 . S
H374 C387 0.961 . S
H375 C387 0.959 . S
H376 C390 0.929 . S
H377 C391 0.931 . S
H378 C393 0.930 . S
C379 H367 0.930 . S
C379 C380 1.399 . S
C379 C384 1.399 . S
C380 C379 1.399 . S
C380 C381 1.376 . S
C381 H368 0.930 . S
C381 C380 1.376 . S
C381 C382 1.388 . S
C382 H369 0.930 . S
C382 C381 1.388 . S
C382 C383 1.390 . S
C383 C382 1.390 . S
C383 C384 1.394 . S
C383 C389 1.465 . S
C384 C379 1.399 . S
C384 C383 1.394 . S
C384 C385 1.516 . S
C385 C384 1.516 . S
C385 C386 1.502 . S
C385 C387 1.561 . S
C385 C388 1.526 . S
C386 H370 0.959 . S
C386 H371 0.959 . S
C386 H372 0.961 . S
C386 C385 1.502 . S
C387 H373 0.960 . S
C387 H374 0.961 . S
C387 H375 0.959 . S
C387 C385 1.561 . S
C388 C385 1.526 . S
C388 C389 1.396 . S
C388 C393 1.390 . S
C389 C383 1.465 . S
C389 C388 1.396 . S
C389 C390 1.399 . S
C390 H376 0.929 . S
C390 C389 1.399 . S
C390 C391 1.385 . S
C391 H377 0.931 . S
C391 C390 1.385 . S
C391 C392 1.389 . S
C392 C391 1.389 . S
C392 C393 1.387 . S
C393 H378 0.930 . S
C393 C388 1.390 . S
C393 C392 1.387 . S
H394 C406 0.930 . S
H395 C408 0.930 . S
H396 C409 0.930 . S
H397 C413 0.959 . S
H398 C413 0.959 . S
H399 C413 0.961 . S
H400 C414 0.960 . S
H401 C414 0.961 . S
H402 C414 0.959 . S
H403 C417 0.929 . S
H404 C418 0.931 . S
H405 C420 0.930 . S
C406 H394 0.930 . S
C406 C407 1.399 . S
C406 C411 1.399 . S
C407 C406 1.399 . S
C407 C408 1.376 . S
C408 H395 0.930 . S
C408 C407 1.376 . S
C408 C409 1.388 . S
C409 H396 0.930 . S
C409 C408 1.388 . S
C409 C410 1.390 . S
C410 C409 1.390 . S
C410 C411 1.394 . S
C410 C416 1.465 . S
C411 C406 1.399 . S
C411 C410 1.394 . S
C411 C412 1.516 . S
C412 C411 1.516 . S
C412 C413 1.502 . S
C412 C414 1.561 . S
C412 C415 1.526 . S
C413 H397 0.959 . S
C413 H398 0.959 . S
C413 H399 0.961 . S
C413 C412 1.502 . S
C414 H400 0.960 . S
C414 H401 0.961 . S
C414 H402 0.959 . S
C414 C412 1.561 . S
C415 C412 1.526 . S
C415 C416 1.396 . S
C415 C420 1.390 . S
C416 C410 1.465 . S
C416 C415 1.396 . S
C416 C417 1.399 . S
C417 H403 0.929 . S
C417 C416 1.399 . S
C417 C418 1.385 . S
C418 H404 0.931 . S
C418 C417 1.385 . S
C418 C419 1.389 . S
C419 C418 1.389 . S
C419 C420 1.387 . S
C420 H405 0.930 . S
C420 C415 1.390 . S
C420 C419 1.387 . S
H421 C433 0.930 . S
H422 C435 0.930 . S
H423 C436 0.930 . S
H424 C440 0.959 . S
H425 C440 0.959 . S
H426 C440 0.961 . S
H427 C441 0.960 . S
H428 C441 0.961 . S
H429 C441 0.959 . S
H430 C444 0.929 . S
H431 C445 0.931 . S
H432 C447 0.930 . S
C433 H421 0.930 . S
C433 C434 1.399 . S
C433 C438 1.399 . S
C434 C433 1.399 . S
C434 C435 1.376 . S
C435 H422 0.930 . S
C435 C434 1.376 . S
C435 C436 1.388 . S
C436 H423 0.930 . S
C436 C435 1.388 . S
C436 C437 1.390 . S
C437 C436 1.390 . S
C437 C438 1.394 . S
C437 C443 1.465 . S
C438 C433 1.399 . S
C438 C437 1.394 . S
C438 C439 1.516 . S
C439 C438 1.516 . S
C439 C440 1.502 . S
C439 C441 1.561 . S
C439 C442 1.526 . S
C440 H424 0.959 . S
C440 H425 0.959 . S
C440 H426 0.961 . S
C440 C439 1.502 . S
C441 H427 0.960 . S
C441 H428 0.961 . S
C441 H429 0.959 . S
C441 C439 1.561 . S
C442 C439 1.526 . S
C442 C443 1.396 . S
C442 C447 1.390 . S
C443 C437 1.465 . S
C443 C442 1.396 . S
C443 C444 1.399 . S
C444 H430 0.929 . S
C444 C443 1.399 . S
C444 C445 1.385 . S
C445 H431 0.931 . S
C445 C444 1.385 . S
C445 C446 1.389 . S
C446 C445 1.389 . S
C446 C447 1.387 . S
C447 H432 0.930 . S
C447 C442 1.390 . S
C447 C446 1.387 . S
H448 C460 0.930 . S
H449 C462 0.930 . S
H450 C463 0.930 . S
H451 C467 0.959 . S
H452 C467 0.959 . S
H453 C467 0.961 . S
H454 C468 0.960 . S
H455 C468 0.961 . S
H456 C468 0.959 . S
H457 C471 0.929 . S
H458 C472 0.931 . S
H459 C474 0.930 . S
C460 H448 0.930 . S
C460 C461 1.399 . S
C460 C465 1.399 . S
C461 C460 1.399 . S
C461 C462 1.376 . S
C462 H449 0.930 . S
C462 C461 1.376 . S
C462 C463 1.388 . S
C463 H450 0.930 . S
C463 C462 1.388 . S
C463 C464 1.390 . S
C464 C463 1.390 . S
C464 C465 1.394 . S
C464 C470 1.465 . S
C465 C460 1.399 . S
C465 C464 1.394 . S
C465 C466 1.516 . S
C466 C465 1.516 . S
C466 C467 1.502 . S
C466 C468 1.561 . S
C466 C469 1.526 . S
C467 H451 0.959 . S
C467 H452 0.959 . S
C467 H453 0.961 . S
C467 C466 1.502 . S
C468 H454 0.960 . S
C468 H455 0.961 . S
C468 H456 0.959 . S
C468 C466 1.561 . S
C469 C466 1.526 . S
C469 C470 1.396 . S
C469 C474 1.390 . S
C470 C464 1.465 . S
C470 C469 1.396 . S
C470 C471 1.399 . S
C471 H457 0.929 . S
C471 C470 1.399 . S
C471 C472 1.385 . S
C472 H458 0.931 . S
C472 C471 1.385 . S
C472 C473 1.389 . S
C473 C472 1.389 . S
C473 C474 1.387 . S
C474 H459 0.930 . S
C474 C469 1.390 . S
C474 C473 1.387 . S
H475 C487 0.930 . S
H476 C489 0.930 . S
H477 C490 0.930 . S
H478 C494 0.959 . S
H479 C494 0.959 . S
H480 C494 0.961 . S
H481 C495 0.960 . S
H482 C495 0.961 . S
H483 C495 0.959 . S
H484 C498 0.929 . S
H485 C499 0.931 . S
H486 C501 0.930 . S
C487 H475 0.930 . S
C487 C488 1.399 . S
C487 C492 1.399 . S
C488 C487 1.399 . S
C488 C489 1.376 . S
C489 H476 0.930 . S
C489 C488 1.376 . S
C489 C490 1.388 . S
C490 H477 0.930 . S
C490 C489 1.388 . S
C490 C491 1.390 . S
C491 C490 1.390 . S
C491 C492 1.394 . S
C491 C497 1.465 . S
C492 C487 1.399 . S
C492 C491 1.394 . S
C492 C493 1.516 . S
C493 C492 1.516 . S
C493 C494 1.502 . S
C493 C495 1.561 . S
C493 C496 1.526 . S
C494 H478 0.959 . S
C494 H479 0.959 . S
C494 H480 0.961 . S
C494 C493 1.502 . S
C495 H481 0.960 . S
C495 H482 0.961 . S
C495 H483 0.959 . S
C495 C493 1.561 . S
C496 C493 1.526 . S
C496 C497 1.396 . S
C496 C501 1.390 . S
C497 C491 1.465 . S
C497 C496 1.396 . S
C497 C498 1.399 . S
C498 H484 0.929 . S
C498 C497 1.399 . S
C498 C499 1.385 . S
C499 H485 0.931 . S
C499 C498 1.385 . S
C499 C500 1.389 . S
C500 C499 1.389 . S
C500 C501 1.387 . S
C501 H486 0.930 . S
C501 C496 1.390 . S
C501 C500 1.387 . S
H502 C514 0.930 . S
H503 C516 0.930 . S
H504 C517 0.930 . S
H505 C521 0.959 . S
H506 C521 0.959 . S
H507 C521 0.961 . S
H508 C522 0.960 . S
H509 C522 0.961 . S
H510 C522 0.959 . S
H511 C525 0.929 . S
H512 C526 0.931 . S
H513 C528 0.930 . S
C514 H502 0.930 . S
C514 C515 1.399 . S
C514 C519 1.399 . S
C515 C514 1.399 . S
C515 C516 1.376 . S
C516 H503 0.930 . S
C516 C515 1.376 . S
C516 C517 1.388 . S
C517 H504 0.930 . S
C517 C516 1.388 . S
C517 C518 1.390 . S
C518 C517 1.390 . S
C518 C519 1.394 . S
C518 C524 1.465 . S
C519 C514 1.399 . S
C519 C518 1.394 . S
C519 C520 1.516 . S
C520 C519 1.516 . S
C520 C521 1.502 . S
C520 C522 1.561 . S
C520 C523 1.526 . S
C521 H505 0.959 . S
C521 H506 0.959 . S
C521 H507 0.961 . S
C521 C520 1.502 . S
C522 H508 0.960 . S
C522 H509 0.961 . S
C522 H510 0.959 . S
C522 C520 1.561 . S
C523 C520 1.526 . S
C523 C524 1.396 . S
C523 C528 1.390 . S
C524 C518 1.465 . S
C524 C523 1.396 . S
C524 C525 1.399 . S
C525 H511 0.929 . S
C525 C524 1.399 . S
C525 C526 1.385 . S
C526 H512 0.931 . S
C526 C525 1.385 . S
C526 C527 1.389 . S
C527 C526 1.389 . S
C527 C528 1.387 . S
C528 H513 0.930 . S
C528 C523 1.390 . S
C528 C527 1.387 . S
H529 C541 0.930 . S
H530 C543 0.930 . S
H531 C544 0.930 . S
H532 C548 0.959 . S
H533 C548 0.959 . S
H534 C548 0.961 . S
H535 C549 0.960 . S
H536 C549 0.961 . S
H537 C549 0.959 . S
H538 C552 0.929 . S
H539 C553 0.931 . S
H540 C555 0.930 . S
C541 H529 0.930 . S
C541 C542 1.399 . S
C541 C546 1.399 . S
C542 C541 1.399 . S
C542 C543 1.376 . S
C543 H530 0.930 . S
C543 C542 1.376 . S
C543 C544 1.388 . S
C544 H531 0.930 . S
C544 C543 1.388 . S
C544 C545 1.390 . S
C545 C544 1.390 . S
C545 C546 1.394 . S
C545 C551 1.465 . S
C546 C541 1.399 . S
C546 C545 1.394 . S
C546 C547 1.516 . S
C547 C546 1.516 . S
C547 C548 1.502 . S
C547 C549 1.561 . S
C547 C550 1.526 . S
C548 H532 0.959 . S
C548 H533 0.959 . S
C548 H534 0.961 . S
C548 C547 1.502 . S
C549 H535 0.960 . S
C549 H536 0.961 . S
C549 H537 0.959 . S
C549 C547 1.561 . S
C550 C547 1.526 . S
C550 C551 1.396 . S
C550 C555 1.390 . S
C551 C545 1.465 . S
C551 C550 1.396 . S
C551 C552 1.399 . S
C552 H538 0.929 . S
C552 C551 1.399 . S
C552 C553 1.385 . S
C553 H539 0.931 . S
C553 C552 1.385 . S
C553 C554 1.389 . S
C554 C553 1.389 . S
C554 C555 1.387 . S
C555 H540 0.930 . S
C555 C550 1.390 . S
C555 C554 1.387 . S
H556 C568 0.930 . S
H557 C570 0.930 . S
H558 C571 0.930 . S
H559 C575 0.959 . S
H560 C575 0.959 . S
H561 C575 0.961 . S
H562 C576 0.960 . S
H563 C576 0.961 . S
H564 C576 0.959 . S
H565 C579 0.929 . S
H566 C580 0.931 . S
H567 C582 0.930 . S
C568 H556 0.930 . S
C568 C569 1.399 . S
C568 C573 1.399 . S
C569 C568 1.399 . S
C569 C570 1.376 . S
C570 H557 0.930 . S
C570 C569 1.376 . S
C570 C571 1.388 . S
C571 H558 0.930 . S
C571 C570 1.388 . S
C571 C572 1.390 . S
C572 C571 1.390 . S
C572 C573 1.394 . S
C572 C578 1.465 . S
C573 C568 1.399 . S
C573 C572 1.394 . S
C573 C574 1.516 . S
C574 C573 1.516 . S
C574 C575 1.502 . S
C574 C576 1.561 . S
C574 C577 1.526 . S
C575 H559 0.959 . S
C575 H560 0.959 . S
C575 H561 0.961 . S
C575 C574 1.502 . S
C576 H562 0.960 . S
C576 H563 0.961 . S
C576 H564 0.959 . S
C576 C574 1.561 . S
C577 C574 1.526 . S
C577 C578 1.396 . S
C577 C582 1.390 . S
C578 C572 1.465 . S
C578 C577 1.396 . S
C578 C579 1.399 . S
C579 H565 0.929 . S
C579 C578 1.399 . S
C579 C580 1.385 . S
C580 H566 0.931 . S
C580 C579 1.385 . S
C580 C581 1.389 . S
C581 C580 1.389 . S
C581 C582 1.387 . S
C582 H567 0.930 . S
C582 C577 1.390 . S
C582 C581 1.387 . S
H583 C595 0.930 . S
H584 C597 0.930 . S
H585 C598 0.930 . S
H586 C602 0.959 . S
H587 C602 0.959 . S
H588 C602 0.961 . S
H589 C603 0.960 . S
H590 C603 0.961 . S
H591 C603 0.959 . S
H592 C606 0.929 . S
H593 C607 0.931 . S
H594 C609 0.930 . S
C595 H583 0.930 . S
C595 C596 1.399 . S
C595 C600 1.399 . S
C596 C595 1.399 . S
C596 C597 1.376 . S
C597 H584 0.930 . S
C597 C596 1.376 . S
C597 C598 1.388 . S
C598 H585 0.930 . S
C598 C597 1.388 . S
C598 C599 1.390 . S
C599 C598 1.390 . S
C599 C600 1.394 . S
C599 C605 1.465 . S
C600 C595 1.399 . S
C600 C599 1.394 . S
C600 C601 1.516 . S
C601 C600 1.516 . S
C601 C602 1.502 . S
C601 C603 1.561 . S
C601 C604 1.526 . S
C602 H586 0.959 . S
C602 H587 0.959 . S
C602 H588 0.961 . S
C602 C601 1.502 . S
C603 H589 0.960 . S
C603 H590 0.961 . S
C603 H591 0.959 . S
C603 C601 1.561 . S
C604 C601 1.526 . S
C604 C605 1.396 . S
C604 C609 1.390 . S
C605 C599 1.465 . S
C605 C604 1.396 . S
C605 C606 1.399 . S
C606 H592 0.929 . S
C606 C605 1.399 . S
C606 C607 1.385 . S
C607 H593 0.931 . S
C607 C606 1.385 . S
C607 C608 1.389 . S
C608 C607 1.389 . S
C608 C609 1.387 . S
C609 H594 0.930 . S
C609 C604 1.390 . S
C609 C608 1.387 . S
H610 C622 0.930 . S
H611 C624 0.930 . S
H612 C625 0.930 . S
H613 C629 0.959 . S
H614 C629 0.959 . S
H615 C629 0.961 . S
H616 C630 0.960 . S
H617 C630 0.961 . S
H618 C630 0.959 . S
H619 C633 0.929 . S
H620 C634 0.931 . S
H621 C636 0.930 . S
C622 H610 0.930 . S
C622 C623 1.399 . S
C622 C627 1.399 . S
C623 C622 1.399 . S
C623 C624 1.376 . S
C624 H611 0.930 . S
C624 C623 1.376 . S
C624 C625 1.388 . S
C625 H612 0.930 . S
C625 C624 1.388 . S
C625 C626 1.390 . S
C626 C625 1.390 . S
C626 C627 1.394 . S
C626 C632 1.465 . S
C627 C622 1.399 . S
C627 C626 1.394 . S
C627 C628 1.516 . S
C628 C627 1.516 . S
C628 C629 1.502 . S
C628 C630 1.561 . S
C628 C631 1.526 . S
C629 H613 0.959 . S
C629 H614 0.959 . S
C629 H615 0.961 . S
C629 C628 1.502 . S
C630 H616 0.960 . S
C630 H617 0.961 . S
C630 H618 0.959 . S
C630 C628 1.561 . S
C631 C628 1.526 . S
C631 C632 1.396 . S
C631 C636 1.390 . S
C632 C626 1.465 . S
C632 C631 1.396 . S
C632 C633 1.399 . S
C633 H619 0.929 . S
C633 C632 1.399 . S
C633 C634 1.385 . S
C634 H620 0.931 . S
C634 C633 1.385 . S
C634 C635 1.389 . S
C635 C634 1.389 . S
C635 C636 1.387 . S
C636 H621 0.930 . S
C636 C631 1.390 . S
C636 C635 1.387 . S
H637 C649 0.930 . S
H638 C651 0.930 . S
H639 C652 0.930 . S
H640 C656 0.959 . S
H641 C656 0.959 . S
H642 C656 0.961 . S
H643 C657 0.960 . S
H644 C657 0.961 . S
H645 C657 0.959 . S
H646 C660 0.929 . S
H647 C661 0.931 . S
H648 C663 0.930 . S
C649 H637 0.930 . S
C649 C650 1.399 . S
C649 C654 1.399 . S
C650 C649 1.399 . S
C650 C651 1.376 . S
C651 H638 0.930 . S
C651 C650 1.376 . S
C651 C652 1.388 . S
C652 H639 0.930 . S
C652 C651 1.388 . S
C652 C653 1.390 . S
C653 C652 1.390 . S
C653 C654 1.394 . S
C653 C659 1.465 . S
C654 C649 1.399 . S
C654 C653 1.394 . S
C654 C655 1.516 . S
C655 C654 1.516 . S
C655 C656 1.502 . S
C655 C657 1.561 . S
C655 C658 1.526 . S
C656 H640 0.959 . S
C656 H641 0.959 . S
C656 H642 0.961 . S
C656 C655 1.502 . S
C657 H643 0.960 . S
C657 H644 0.961 . S
C657 H645 0.959 . S
C657 C655 1.561 . S
C658 C655 1.526 . S
C658 C659 1.396 . S
C658 C663 1.390 . S
C659 C653 1.465 . S
C659 C658 1.396 . S
C659 C660 1.399 . S
C660 H646 0.929 . S
C660 C659 1.399 . S
C660 C661 1.385 . S
C661 H647 0.931 . S
C661 C660 1.385 . S
C661 C662 1.389 . S
C662 C661 1.389 . S
C662 C663 1.387 . S
C663 H648 0.930 . S
C663 C658 1.390 . S
C663 C662 1.387 . S
H664 C676 0.930 . S
H665 C678 0.930 . S
H666 C679 0.930 . S
H667 C683 0.959 . S
H668 C683 0.959 . S
H669 C683 0.961 . S
H670 C684 0.960 . S
H671 C684 0.961 . S
H672 C684 0.959 . S
H673 C687 0.929 . S
H674 C688 0.931 . S
H675 C690 0.930 . S
C676 H664 0.930 . S
C676 C677 1.399 . S
C676 C681 1.399 . S
C677 C676 1.399 . S
C677 C678 1.376 . S
C678 H665 0.930 . S
C678 C677 1.376 . S
C678 C679 1.388 . S
C679 H666 0.930 . S
C679 C678 1.388 . S
C679 C680 1.390 . S
C680 C679 1.390 . S
C680 C681 1.394 . S
C680 C686 1.465 . S
C681 C676 1.399 . S
C681 C680 1.394 . S
C681 C682 1.516 . S
C682 C681 1.516 . S
C682 C683 1.502 . S
C682 C684 1.561 . S
C682 C685 1.526 . S
C683 H667 0.959 . S
C683 H668 0.959 . S
C683 H669 0.961 . S
C683 C682 1.502 . S
C684 H670 0.960 . S
C684 H671 0.961 . S
C684 H672 0.959 . S
C684 C682 1.561 . S
C685 C682 1.526 . S
C685 C686 1.396 . S
C685 C690 1.390 . S
C686 C680 1.465 . S
C686 C685 1.396 . S
C686 C687 1.399 . S
C687 H673 0.929 . S
C687 C686 1.399 . S
C687 C688 1.385 . S
C688 H674 0.931 . S
C688 C687 1.385 . S
C688 C689 1.389 . S
C689 C688 1.389 . S
C689 C690 1.387 . S
C690 H675 0.930 . S
C690 C685 1.390 . S
C690 C689 1.387 . S
H691 C703 0.930 . S
H692 C705 0.930 . S
H693 C706 0.930 . S
H694 C710 0.959 . S
H695 C710 0.959 . S
H696 C710 0.961 . S
H697 C711 0.960 . S
H698 C711 0.961 . S
H699 C711 0.959 . S
H700 C714 0.929 . S
H701 C715 0.931 . S
H702 C717 0.930 . S
C703 H691 0.930 . S
C703 C704 1.399 . S
C703 C708 1.399 . S
C704 C703 1.399 . S
C704 C705 1.376 . S
C705 H692 0.930 . S
C705 C704 1.376 . S
C705 C706 1.388 . S
C706 H693 0.930 . S
C706 C705 1.388 . S
C706 C707 1.390 . S
C707 C706 1.390 . S
C707 C708 1.394 . S
C707 C713 1.465 . S
C708 C703 1.399 . S
C708 C707 1.394 . S
C708 C709 1.516 . S
C709 C708 1.516 . S
C709 C710 1.502 . S
C709 C711 1.561 . S
C709 C712 1.526 . S
C710 H694 0.959 . S
C710 H695 0.959 . S
C710 H696 0.961 . S
C710 C709 1.502 . S
C711 H697 0.960 . S
C711 H698 0.961 . S
C711 H699 0.959 . S
C711 C709 1.561 . S
C712 C709 1.526 . S
C712 C713 1.396 . S
C712 C717 1.390 . S
C713 C707 1.465 . S
C713 C712 1.396 . S
C713 C714 1.399 . S
C714 H700 0.929 . S
C714 C713 1.399 . S
C714 C715 1.385 . S
C715 H701 0.931 . S
C715 C714 1.385 . S
C715 C716 1.389 . S
C716 C715 1.389 . S
C716 C717 1.387 . S
C717 H702 0.930 . S
C717 C712 1.390 . S
C717 C716 1.387 . S
H718 C730 0.930 . S
H719 C732 0.930 . S
H720 C733 0.930 . S
H721 C737 0.959 . S
H722 C737 0.959 . S
H723 C737 0.961 . S
H724 C738 0.960 . S
H725 C738 0.961 . S
H726 C738 0.959 . S
H727 C741 0.929 . S
H728 C742 0.931 . S
H729 C744 0.930 . S
C730 H718 0.930 . S
C730 C731 1.399 . S
C730 C735 1.399 . S
C731 C730 1.399 . S
C731 C732 1.376 . S
C732 H719 0.930 . S
C732 C731 1.376 . S
C732 C733 1.388 . S
C733 H720 0.930 . S
C733 C732 1.388 . S
C733 C734 1.390 . S
C734 C733 1.390 . S
C734 C735 1.394 . S
C734 C740 1.465 . S
C735 C730 1.399 . S
C735 C734 1.394 . S
C735 C736 1.516 . S
C736 C735 1.516 . S
C736 C737 1.502 . S
C736 C738 1.561 . S
C736 C739 1.526 . S
C737 H721 0.959 . S
C737 H722 0.959 . S
C737 H723 0.961 . S
C737 C736 1.502 . S
C738 H724 0.960 . S
C738 H725 0.961 . S
C738 H726 0.959 . S
C738 C736 1.561 . S
C739 C736 1.526 . S
C739 C740 1.396 . S
C739 C744 1.390 . S
C740 C734 1.465 . S
C740 C739 1.396 . S
C740 C741 1.399 . S
C741 H727 0.929 . S
C741 C740 1.399 . S
C741 C742 1.385 . S
C742 H728 0.931 . S
C742 C741 1.385 . S
C742 C743 1.389 . S
C743 C742 1.389 . S
C743 C744 1.387 . S
C744 H729 0.930 . S
C744 C739 1.390 . S
C744 C743 1.387 . S
H745 C757 0.930 . S
H746 C759 0.930 . S
H747 C760 0.930 . S
H748 C764 0.959 . S
H749 C764 0.959 . S
H750 C764 0.961 . S
H751 C765 0.960 . S
H752 C765 0.961 . S
H753 C765 0.959 . S
H754 C768 0.929 . S
H755 C769 0.931 . S
H756 C771 0.930 . S
C757 H745 0.930 . S
C757 C758 1.399 . S
C757 C762 1.399 . S
C758 C757 1.399 . S
C758 C759 1.376 . S
C759 H746 0.930 . S
C759 C758 1.376 . S
C759 C760 1.388 . S
C760 H747 0.930 . S
C760 C759 1.388 . S
C760 C761 1.390 . S
C761 C760 1.390 . S
C761 C762 1.394 . S
C761 C767 1.465 . S
C762 C757 1.399 . S
C762 C761 1.394 . S
C762 C763 1.516 . S
C763 C762 1.516 . S
C763 C764 1.502 . S
C763 C765 1.561 . S
C763 C766 1.526 . S
C764 H748 0.959 . S
C764 H749 0.959 . S
C764 H750 0.961 . S
C764 C763 1.502 . S
C765 H751 0.960 . S
C765 H752 0.961 . S
C765 H753 0.959 . S
C765 C763 1.561 . S
C766 C763 1.526 . S
C766 C767 1.396 . S
C766 C771 1.390 . S
C767 C761 1.465 . S
C767 C766 1.396 . S
C767 C768 1.399 . S
C768 H754 0.929 . S
C768 C767 1.399 . S
C768 C769 1.385 . S
C769 H755 0.931 . S
C769 C768 1.385 . S
C769 C770 1.389 . S
C770 C769 1.389 . S
C770 C771 1.387 . S
C771 H756 0.930 . S
C771 C766 1.390 . S
C771 C770 1.387 . S
H772 C784 0.930 . S
H773 C786 0.930 . S
H774 C787 0.930 . S
H775 C791 0.959 . S
H776 C791 0.959 . S
H777 C791 0.961 . S
H778 C792 0.960 . S
H779 C792 0.961 . S
H780 C792 0.959 . S
H781 C795 0.929 . S
H782 C796 0.931 . S
H783 C798 0.930 . S
C784 H772 0.930 . S
C784 C785 1.399 . S
C784 C789 1.399 . S
C785 C784 1.399 . S
C785 C786 1.376 . S
C786 H773 0.930 . S
C786 C785 1.376 . S
C786 C787 1.388 . S
C787 H774 0.930 . S
C787 C786 1.388 . S
C787 C788 1.390 . S
C788 C787 1.390 . S
C788 C789 1.394 . S
C788 C794 1.465 . S
C789 C784 1.399 . S
C789 C788 1.394 . S
C789 C790 1.516 . S
C790 C789 1.516 . S
C790 C791 1.502 . S
C790 C792 1.561 . S
C790 C793 1.526 . S
C791 H775 0.959 . S
C791 H776 0.959 . S
C791 H777 0.961 . S
C791 C790 1.502 . S
C792 H778 0.960 . S
C792 H779 0.961 . S
C792 H780 0.959 . S
C792 C790 1.561 . S
C793 C790 1.526 . S
C793 C794 1.396 . S
C793 C798 1.390 . S
C794 C788 1.465 . S
C794 C793 1.396 . S
C794 C795 1.399 . S
C795 H781 0.929 . S
C795 C794 1.399 . S
C795 C796 1.385 . S
C796 H782 0.931 . S
C796 C795 1.385 . S
C796 C797 1.389 . S
C797 C796 1.389 . S
C797 C798 1.387 . S
C798 H783 0.930 . S
C798 C793 1.390 . S
C798 C797 1.387 . S
H799 C811 0.930 . S
H800 C813 0.930 . S
H801 C814 0.930 . S
H802 C818 0.959 . S
H803 C818 0.959 . S
H804 C818 0.961 . S
H805 C819 0.960 . S
H806 C819 0.961 . S
H807 C819 0.959 . S
H808 C822 0.929 . S
H809 C823 0.931 . S
H810 C825 0.930 . S
C811 H799 0.930 . S
C811 C812 1.399 . S
C811 C816 1.399 . S
C812 C811 1.399 . S
C812 C813 1.376 . S
C813 H800 0.930 . S
C813 C812 1.376 . S
C813 C814 1.388 . S
C814 H801 0.930 . S
C814 C813 1.388 . S
C814 C815 1.390 . S
C815 C814 1.390 . S
C815 C816 1.394 . S
C815 C821 1.465 . S
C816 C811 1.399 . S
C816 C815 1.394 . S
C816 C817 1.516 . S
C817 C816 1.516 . S
C817 C818 1.502 . S
C817 C819 1.561 . S
C817 C820 1.526 . S
C818 H802 0.959 . S
C818 H803 0.959 . S
C818 H804 0.961 . S
C818 C817 1.502 . S
C819 H805 0.960 . S
C819 H806 0.961 . S
C819 H807 0.959 . S
C819 C817 1.561 . S
C820 C817 1.526 . S
C820 C821 1.396 . S
C820 C825 1.390 . S
C821 C815 1.465 . S
C821 C820 1.396 . S
C821 C822 1.399 . S
C822 H808 0.929 . S
C822 C821 1.399 . S
C822 C823 1.385 . S
C823 H809 0.931 . S
C823 C822 1.385 . S
C823 C824 1.389 . S
C824 C823 1.389 . S
C824 C825 1.387 . S
C825 H810 0.930 . S
C825 C820 1.390 . S
C825 C824 1.387 . S
H826 C838 0.930 . S
H827 C840 0.930 . S
H828 C841 0.930 . S
H829 C845 0.959 . S
H830 C845 0.959 . S
H831 C845 0.961 . S
H832 C846 0.960 . S
H833 C846 0.961 . S
H834 C846 0.959 . S
H835 C849 0.929 . S
H836 C850 0.931 . S
H837 C852 0.930 . S
C838 H826 0.930 . S
C838 C839 1.399 . S
C838 C843 1.399 . S
C839 C838 1.399 . S
C839 C840 1.376 . S
C840 H827 0.930 . S
C840 C839 1.376 . S
C840 C841 1.388 . S
C841 H828 0.930 . S
C841 C840 1.388 . S
C841 C842 1.390 . S
C842 C841 1.390 . S
C842 C843 1.394 . S
C842 C848 1.465 . S
C843 C838 1.399 . S
C843 C842 1.394 . S
C843 C844 1.516 . S
C844 C843 1.516 . S
C844 C845 1.502 . S
C844 C846 1.561 . S
C844 C847 1.526 . S
C845 H829 0.959 . S
C845 H830 0.959 . S
C845 H831 0.961 . S
C845 C844 1.502 . S
C846 H832 0.960 . S
C846 H833 0.961 . S
C846 H834 0.959 . S
C846 C844 1.561 . S
C847 C844 1.526 . S
C847 C848 1.396 . S
C847 C852 1.390 . S
C848 C842 1.465 . S
C848 C847 1.396 . S
C848 C849 1.399 . S
C849 H835 0.929 . S
C849 C848 1.399 . S
C849 C850 1.385 . S
C850 H836 0.931 . S
C850 C849 1.385 . S
C850 C851 1.389 . S
C851 C850 1.389 . S
C851 C852 1.387 . S
C852 H837 0.930 . S
C852 C847 1.390 . S
C852 C851 1.387 . S
H853 C865 0.930 . S
H854 C867 0.930 . S
H855 C868 0.930 . S
H856 C872 0.959 . S
H857 C872 0.959 . S
H858 C872 0.961 . S
H859 C873 0.960 . S
H860 C873 0.961 . S
H861 C873 0.959 . S
H862 C876 0.929 . S
H863 C877 0.931 . S
H864 C879 0.930 . S
C865 H853 0.930 . S
C865 C866 1.399 . S
C865 C870 1.399 . S
C866 C865 1.399 . S
C866 C867 1.376 . S
C867 H854 0.930 . S
C867 C866 1.376 . S
C867 C868 1.388 . S
C868 H855 0.930 . S
C868 C867 1.388 . S
C868 C869 1.390 . S
C869 C868 1.390 . S
C869 C870 1.394 . S
C869 C875 1.465 . S
C870 C865 1.399 . S
C870 C869 1.394 . S
C870 C871 1.516 . S
C871 C870 1.516 . S
C871 C872 1.502 . S
C871 C873 1.561 . S
C871 C874 1.526 . S
C872 H856 0.959 . S
C872 H857 0.959 . S
C872 H858 0.961 . S
C872 C871 1.502 . S
C873 H859 0.960 . S
C873 H860 0.961 . S
C873 H861 0.959 . S
C873 C871 1.561 . S
C874 C871 1.526 . S
C874 C875 1.396 . S
C874 C879 1.390 . S
C875 C869 1.465 . S
C875 C874 1.396 . S
C875 C876 1.399 . S
C876 H862 0.929 . S
C876 C875 1.399 . S
C876 C877 1.385 . S
C877 H863 0.931 . S
C877 C876 1.385 . S
C877 C878 1.389 . S
C878 C877 1.389 . S
C878 C879 1.387 . S
C879 H864 0.930 . S
C879 C874 1.390 . S
C879 C878 1.387 . S
C245 C5 0.970 . S
C257 C79 1.003 . S
C272 C14 0.930 . S
C284 C128 0.949 . S
C311 C154 2.462 . S
C299 C25 2.527 . S
C326 C34 2.432 . S
C338 C202 2.408 . S
C365 C114 2.030 . S
C353 C7 1.935 . S
C392 C82 0.827 . S
C380 C13 0.740 . S
C419 C203 1.906 . S
C407 C23 1.960 . S
C446 C171 1.684 . S
C434 C31 1.698 . S
C461 C4 1.410 . S
C473 C199 1.452 . S
C500 C131 2.345 . S
C488 C22 2.399 . S
C515 C32 2.347 . S
C527 C83 2.347 . S
C542 C16 0.798 . S
C554 C168 0.848 . S
C581 C88 0.981 . S
C569 C41 1.038 . S
C596 C50 0.967 . S
C608 C119 0.904 . S
C623 C61 2.520 . S
C635 C163 2.457 . S
C650 C67 2.443 . S
C662 C211 2.418 . S
C677 C40 1.943 . S
C689 C123 2.051 . S
C716 C91 0.777 . S
C704 C52 0.681 . S
C743 C194 1.912 . S
C731 C59 1.965 . S
C770 C162 1.663 . S
C758 C70 1.693 . S
C785 C43 1.431 . S
C797 C208 1.436 . S
C824 C122 2.316 . S
C812 C58 2.415 . S
C851 C74 2.322 . S
C839 C68 2.323 . S
C866 C49 0.875 . S
C878 C159 0.826 . S
