# Generated by pormake.
# Topology zzz, (3,6)-cn, num edge types: 1
# Building blocks:
#     Node 0, Type 0, BuildingBlock: MIDCAF_clean_linker_0, # of connection points: 3
#     Node 1, Type 0, BuildingBlock: MIDCAF_clean_linker_0, # of connection points: 3
#     Node 2, Type 0, BuildingBlock: MIDCAF_clean_linker_0, # of connection points: 3
#     Node 3, Type 0, BuildingBlock: MIDCAF_clean_linker_0, # of connection points: 3
#     Node 4, Type 0, BuildingBlock: MIDCAF_clean_linker_0, # of connection points: 3
#     Node 5, Type 0, BuildingBlock: MIDCAF_clean_linker_0, # of connection points: 3
#     Node 6, Type 0, BuildingBlock: MIDCAF_clean_linker_0, # of connection points: 3
#     Node 7, Type 0, BuildingBlock: MIDCAF_clean_linker_0, # of connection points: 3
#     Node 8, Type 1, BuildingBlock: BETDIP_clean_sbu_0, # of connection points: 6
#     Node 9, Type 1, BuildingBlock: BETDIP_clean_sbu_0, # of connection points: 6
#     Node 10, Type 1, BuildingBlock: BETDIP_clean_sbu_0, # of connection points: 6
#     Node 11, Type 1, BuildingBlock: BETDIP_clean_sbu_0, # of connection points: 6
#     Edge 12, Type (0, 1), BuildingBlock: XUDNAN_clean_linker_2, # of connection points: 2
#     Edge 13, Type (0, 1), BuildingBlock: XUDNAN_clean_linker_2, # of connection points: 2
#     Edge 14, Type (0, 1), BuildingBlock: XUDNAN_clean_linker_2, # of connection points: 2
#     Edge 15, Type (0, 1), BuildingBlock: XUDNAN_clean_linker_2, # of connection points: 2
#     Edge 16, Type (0, 1), BuildingBlock: XUDNAN_clean_linker_2, # of connection points: 2
#     Edge 17, Type (0, 1), BuildingBlock: XUDNAN_clean_linker_2, # of connection points: 2
#     Edge 18, Type (0, 1), BuildingBlock: XUDNAN_clean_linker_2, # of connection points: 2
#     Edge 19, Type (0, 1), BuildingBlock: XUDNAN_clean_linker_2, # of connection points: 2
#     Edge 20, Type (0, 1), BuildingBlock: XUDNAN_clean_linker_2, # of connection points: 2
#     Edge 21, Type (0, 1), BuildingBlock: XUDNAN_clean_linker_2, # of connection points: 2
#     Edge 22, Type (0, 1), BuildingBlock: XUDNAN_clean_linker_2, # of connection points: 2
#     Edge 23, Type (0, 1), BuildingBlock: XUDNAN_clean_linker_2, # of connection points: 2
#     Edge 24, Type (0, 1), BuildingBlock: XUDNAN_clean_linker_2, # of connection points: 2
#     Edge 25, Type (0, 1), BuildingBlock: XUDNAN_clean_linker_2, # of connection points: 2
#     Edge 26, Type (0, 1), BuildingBlock: XUDNAN_clean_linker_2, # of connection points: 2
#     Edge 27, Type (0, 1), BuildingBlock: XUDNAN_clean_linker_2, # of connection points: 2
#     Edge 28, Type (0, 1), BuildingBlock: XUDNAN_clean_linker_2, # of connection points: 2
#     Edge 29, Type (0, 1), BuildingBlock: XUDNAN_clean_linker_2, # of connection points: 2
#     Edge 30, Type (0, 1), BuildingBlock: XUDNAN_clean_linker_2, # of connection points: 2
#     Edge 31, Type (0, 1), BuildingBlock: XUDNAN_clean_linker_2, # of connection points: 2
#     Edge 32, Type (0, 1), BuildingBlock: XUDNAN_clean_linker_2, # of connection points: 2
#     Edge 33, Type (0, 1), BuildingBlock: XUDNAN_clean_linker_2, # of connection points: 2
#     Edge 34, Type (0, 1), BuildingBlock: XUDNAN_clean_linker_2, # of connection points: 2
#     Edge 35, Type (0, 1), BuildingBlock: XUDNAN_clean_linker_2, # of connection points: 2
# Relax obj value: 0.444
# Max RMSD: 0.265
# Mean RMSD: 0.243
data_MOF--net-zzz--node1-BETDIP_clean_sbu_0--node2-MIDCAF_clean_linker_0--edge1-XUDNAN_clean_linker_2
_symmetry_space_group_name_H-M    P1
_symmetry_Int_Tables_number       1
_symmetry_cell_setting            triclinic
loop_
_symmetry_equiv_pos_as_xyz
'x, y, z'
_cell_length_a     59.190911
_cell_length_b     59.195952
_cell_length_c     18.602079
_cell_angle_alpha  89.629474
_cell_angle_beta   89.812749
_cell_angle_gamma 89.992908
loop_
_atom_site_label
_atom_site_type_symbol
_atom_site_fract_x
_atom_site_fract_y
_atom_site_fract_z
_atom_type_partial_charge
C0 C 0.77832 0.49377 0.46703 0.0
C1 C 0.80119 0.49521 0.44526 0.0
C2 C 0.80617 0.4927 0.37174 0.0
C3 C 0.7892 0.48744 0.32258 0.0
H4 H 0.68933 0.50281 0.26747 0.0
H5 H 0.65503 0.5163 0.20527 0.0
H6 H 0.66955 0.47152 0.02882 0.0
H7 H 0.70311 0.45848 0.08883 0.0
H8 H 0.73586 0.42182 0.09139 0.0
H9 H 0.7592 0.39589 0.02193 0.0
H10 H 0.80461 0.38895 0.20197 0.0
H11 H 0.78134 0.41459 0.27147 0.0
H12 H 0.74409 0.48594 0.43634 0.0
H13 H 0.77371 0.4959 0.52294 0.0
H14 H 0.82343 0.49328 0.35242 0.0
H15 H 0.79396 0.48415 0.26731 0.0
N16 N 0.73149 0.48137 0.27076 0.0
N17 N 0.72754 0.44985 0.19508 0.0
N18 N 0.75864 0.45225 0.27086 0.0
C19 C 0.71952 0.46993 0.21945 0.0
C20 C 0.74689 0.4408 0.22073 0.0
C21 C 0.7512 0.47231 0.29654 0.0
C22 C 0.69905 0.47947 0.18362 0.0
C23 C 0.68519 0.49604 0.21519 0.0
C24 C 0.66551 0.50365 0.17978 0.0
C25 C 0.65963 0.49513 0.11167 0.0
C26 C 0.67366 0.47879 0.08046 0.0
C27 C 0.69294 0.47111 0.11564 0.0
C28 C 0.75711 0.42076 0.1863 0.0
C29 C 0.75039 0.41417 0.11707 0.0
C30 C 0.76374 0.3993 0.07717 0.0
C31 C 0.7839 0.39065 0.10606 0.0
C32 C 0.78914 0.39522 0.17815 0.0
C33 C 0.77591 0.41017 0.21782 0.0
C34 C 0.76669 0.48457 0.34501 0.0
C35 C 0.76123 0.48847 0.41734 0.0
C36 C 0.99766 0.81599 0.36171 0.0
C37 C 0.99381 0.81191 0.43526 0.0
C38 C 0.99258 0.78918 0.45893 0.0
C39 C 0.99655 0.77119 0.41112 0.0
H40 H 0.97302 0.70713 0.1955 0.0
H41 H 0.96431 0.6698 0.14506 0.0
H42 H 0.03121 0.64682 0.20192 0.0
H43 H 0.03965 0.68376 0.25163 0.0
H44 H 0.05954 0.72956 0.08787 0.0
H45 H 0.08388 0.74737 0.9976 0.0
H46 H 0.08682 0.80759 0.12791 0.0
H47 H 0.06367 0.78966 0.21793 0.0
H48 H 1.00578 0.80217 0.25902 0.0
H49 H 0.99902 0.83307 0.34095 0.0
H50 H 0.9893 0.78528 0.51493 0.0
H51 H 0.99684 0.75404 0.43172 0.0
N52 N 1.00414 0.73648 0.28569 0.0
N53 N 0.03293 0.72868 0.20108 0.0
N54 N 0.03024 0.76453 0.25136 0.0
C55 C 0.01475 0.72168 0.24015 0.0
C56 C 0.04079 0.75005 0.2065 0.0
C57 C 0.01212 0.75814 0.2913 0.0
C58 C 1.00688 0.69821 0.22858 0.0
C59 C 0.98546 0.69377 0.19951 0.0
C60 C 0.98065 0.6725 0.1696 0.0
C61 C 0.99708 0.65523 0.16898 0.0
C62 C 0.01799 0.65947 0.20204 0.0
C63 C 0.02285 0.68067 0.23085 0.0
C64 C 0.05916 0.75843 0.15922 0.0
C65 C 0.066 0.74635 0.098 0.0
C66 C 0.0799 0.75659 0.04612 0.0
C67 C 0.08714 0.77906 0.05456 0.0
C68 C 0.08195 0.7902 0.11919 0.0
C69 C 0.06824 0.77999 0.17083 0.0
C70 C 1.00193 0.77559 0.33879 0.0
C71 C 1.00166 0.79816 0.31446 0.0
C72 C 0.71895 0.01271 0.45037 0.0
C73 C 0.69702 1.00515 0.43258 0.0
C74 C 0.69413 0.99414 0.36652 0.0
C75 C 0.71212 0.99187 0.31829 0.0
H76 H 0.8146 0.97043 0.2748 0.0
H77 H 0.85293 0.96343 0.23032 0.0
H78 H 0.85452 0.03062 0.13811 0.0
H79 H 0.8169 0.03761 0.18484 0.0
H80 H 0.77884 0.02428 0.03124 0.0
H81 H 0.76215 0.03398 0.91491 0.0
H82 H 0.69776 0.00839 0.98946 0.0
H83 H 0.71426 0.99855 0.10409 0.0
H84 H 0.75343 0.01738 0.41542 0.0
H85 H 0.722 0.02095 0.50121 0.0
H86 H 0.67765 0.98827 0.34991 0.0
H87 H 0.7088 0.98409 0.26682 0.0
N88 N 0.77363 1.00243 0.28616 0.0
N89 N 0.77932 0.00794 0.16169 0.0
N90 N 0.74275 1.00461 0.20688 0.0
C91 C 0.78793 1.0053 0.22862 0.0
C92 C 0.75685 1.00748 0.15022 0.0
C93 C 0.75072 1.00221 0.27487 0.0
C94 C 0.81283 1.0046 0.23364 0.0
C95 C 0.82375 0.98409 0.24883 0.0
C96 C 0.84556 0.97996 0.22178 0.0
C97 C 0.85673 0.9962 0.1785 0.0
C98 C 0.84672 0.01764 0.17107 0.0
C99 C 0.82507 0.02175 0.19832 0.0
C100 C 0.74775 0.01094 0.07721 0.0
C101 C 0.76122 0.02032 0.02208 0.0
C102 C 0.75173 0.02587 0.95549 0.0
C103 C 0.72873 0.02183 0.94276 0.0
C104 C 0.71567 0.01132 0.99676 0.0
C105 C 0.72505 1.00596 0.06312 0.0
C106 C 0.73368 1.00056 0.33401 0.0
C107 C 0.73711 0.01039 0.40168 0.0
C108 C 0.40861 0.7273 0.17733 0.0
C109 C 0.40578 0.73173 0.1036 0.0
C110 C 0.41545 0.7514 0.07388 0.0
C111 C 0.42932 0.76521 0.11564 0.0
H112 H 0.45062 0.83618 0.2221 0.0
H113 H 0.45936 0.87286 0.16912 0.0
H114 H 0.52956 0.85387 0.15164 0.0
H115 H 0.5207 0.81683 0.20647 0.0
H116 H 0.46482 0.76142 0.4466 0.0
H117 H 0.47263 0.7297 0.52646 0.0
H118 H 0.52717 0.7088 0.38685 0.0
H119 H 0.51869 0.74056 0.30591 0.0
H120 H 0.42547 0.73623 0.27432 0.0
H121 H 0.40161 0.7122 0.20194 0.0
H122 H 0.41341 0.75533 0.01732 0.0
H123 H 0.43771 0.77944 0.09017 0.0
N124 N 0.46003 0.7912 0.20781 0.0
N125 N 0.48928 0.78855 0.29345 0.0
N126 N 0.46313 0.75895 0.27997 0.0
C127 C 0.47827 0.80048 0.24074 0.0
C128 C 0.48144 0.76766 0.31322 0.0
C129 C 0.45242 0.77045 0.22707 0.0
C130 C 0.485 0.8237 0.21893 0.0
C131 C 0.46802 0.83997 0.20834 0.0
C132 C 0.47304 0.86103 0.17804 0.0
C133 C 0.49516 0.86634 0.15608 0.0
C134 C 0.51234 0.85025 0.16786 0.0
C135 C 0.50735 0.82918 0.19985 0.0
C136 C 0.49157 0.75385 0.37122 0.0
C137 C 0.47912 0.75061 0.43476 0.0
C138 C 0.48356 0.73224 0.48034 0.0
C139 C 0.5005 0.71639 0.46333 0.0
C140 C 0.51381 0.7204 0.40147 0.0
C141 C 0.50931 0.73888 0.35578 0.0
C142 C 0.4339 0.7594 0.18751 0.0
C143 C 0.42256 0.74095 0.21875 0.0
C144 C 0.19942 0.49259 0.0211 0.0
C145 C 0.19494 0.50893 0.9675 0.0
C146 C 0.21013 0.52714 0.95989 0.0
C147 C 0.22846 0.52957 0.00671 0.0
H148 H 0.31795 0.54556 0.16386 0.0
H149 H 0.35533 0.54004 0.2158 0.0
H150 H 0.33427 0.47511 0.29969 0.0
H151 H 0.29663 0.48101 0.24781 0.0
H152 H 0.26748 0.55533 0.35856 0.0
H153 H 0.2478 0.5756 0.45409 0.0
H154 H 0.18865 0.5807 0.31923 0.0
H155 H 0.20826 0.56124 0.22408 0.0
H156 H 0.22 0.48302 0.11149 0.0
H157 H 0.18831 0.47821 0.02829 0.0
H158 H 0.20718 0.54031 0.92037 0.0
H159 H 0.23888 0.54458 1.00253 0.0
N160 N 0.2685 0.51287 0.13111 0.0
N161 N 0.2715 0.53447 0.23676 0.0
N162 N 0.23777 0.53459 0.17201 0.0
C163 C 0.2809 0.52017 0.18846 0.0
C164 C 0.24995 0.54173 0.22906 0.0
C165 C 0.24674 0.52027 0.12308 0.0
C166 C 0.30464 0.51346 0.20026 0.0
C167 C 0.32165 0.52972 0.19089 0.0
C168 C 0.34306 0.52656 0.22111 0.0
C169 C 0.34791 0.50715 0.2625 0.0
C170 C 0.33112 0.49035 0.26883 0.0
C171 C 0.30968 0.49351 0.23809 0.0
C172 C 0.23934 0.55636 0.28391 0.0
C173 C 0.25042 0.5612 0.34887 0.0
C174 C 0.23916 0.57278 0.4037 0.0
C175 C 0.21668 0.57982 0.39446 0.0
C176 C 0.20611 0.57598 0.32802 0.0
C177 C 0.2173 0.56448 0.27348 0.0
C178 C 0.23229 0.51379 0.06191 0.0
C179 C 0.21783 0.49506 0.06794 0.0
C180 C 1.00623 0.21879 1.00145 0.0
C181 C 0.02211 0.20226 0.98018 0.0
C182 C 0.04476 0.20532 0.99998 0.0
C183 C 0.05119 0.22344 0.0431 0.0
H184 H 0.99681 0.30518 0.20164 0.0
H185 H 0.98511 0.34059 0.26008 0.0
H186 H 0.05506 0.36027 0.27828 0.0
H187 H 0.06652 0.32529 0.22077 0.0
H188 H 0.06781 0.27242 0.37111 0.0
H189 H 0.07712 0.24722 0.47074 0.0
H190 H 0.10055 0.19714 0.32014 0.0
H191 H 0.09134 0.22218 0.22084 0.0
H192 H 0.99996 0.24876 0.06407 0.0
H193 H 0.98861 0.21702 0.98708 0.0
H194 H 0.0576 0.19342 0.98314 0.0
H195 H 0.06874 0.22462 0.059 0.0
N196 N 0.03313 0.2761 0.13627 0.0
N197 N 0.05611 0.2806 0.2387 0.0
N198 N 0.05771 0.24711 0.17407 0.0
C199 C 0.04067 0.28917 0.19209 0.0
C200 C 0.06466 0.25964 0.23029 0.0
C201 C 0.04216 0.25495 0.12663 0.0
C202 C 0.03257 0.31247 0.20648 0.0
C203 C 0.00954 0.3175 0.21578 0.0
C204 C 1.00289 0.33769 0.24984 0.0
C205 C 0.0192 0.35305 0.27543 0.0
C206 C 0.04207 0.34863 0.26093 0.0
C207 C 0.04863 0.32868 0.22712 0.0
C208 C 0.078 0.24886 0.2881 0.0
C209 C 0.07591 0.25646 0.35929 0.0
C210 C 0.08132 0.24207 0.41652 0.0
C211 C 0.08898 0.22002 0.40313 0.0
C212 C 0.09457 0.21399 0.33233 0.0
C213 C 0.08902 0.22827 0.27518 0.0
C214 C 0.03523 0.23922 0.06823 0.0
C215 C 0.01272 0.23709 0.04518 0.0
C216 C 0.30724 0.03931 0.05884 0.0
C217 C 0.30631 0.02721 0.99388 0.0
C218 C 0.28617 0.01538 0.97841 0.0
C219 C 0.26813 0.01477 0.02784 0.0
H220 H 0.1989 0.05698 0.254 0.0
H221 H 0.16071 0.06072 0.30395 0.0
H222 H 0.14526 0.99305 0.23393 0.0
H223 H 0.1833 0.98958 0.18412 0.0
H224 H 0.22994 0.97058 0.35315 0.0
H225 H 0.24755 0.9493 0.45215 0.0
H226 H 0.30897 0.98755 0.42219 0.0
H227 H 0.2918 0.00827 0.3228 0.0
H228 H 0.29134 0.04668 0.15984 0.0
H229 H 0.32197 0.0492 0.07247 0.0
H230 H 0.28467 1.00557 0.9298 0.0
H231 H 0.25349 1.00446 0.0162 0.0
N232 N 0.23152 0.02444 0.15198 0.0
N233 N 0.22737 1.00704 0.26563 0.0
N234 N 0.26312 0.00955 0.21263 0.0
C235 C 0.21813 0.018 0.20871 0.0
C236 C 0.24978 1.00282 0.26805 0.0
C237 C 0.25424 0.02007 0.1542 0.0
C238 C 0.1938 0.02324 0.21333 0.0
C239 C 0.1869 0.04339 0.24631 0.0
C240 C 0.16518 0.04532 0.27615 0.0
C241 C 0.14989 0.02711 0.27372 0.0
C242 C 0.15638 1.00754 0.23621 0.0
C243 C 0.17814 1.00558 0.20696 0.0
C244 C 0.25961 0.99095 0.3303 0.0
C245 C 0.24712 0.97454 0.36842 0.0
C246 C 0.2571 0.96241 0.42483 0.0
C247 C 0.2794 0.96708 0.44499 0.0
C248 C 0.29158 0.98394 0.4082 0.0
C249 C 0.28186 0.99562 0.35099 0.0
C250 C 0.26986 0.02573 0.09425 0.0
C251 C 0.28944 0.03829 0.10861 0.0
C252 C 0.60754 0.30387 0.21472 0.0
C253 C 0.61065 0.30037 0.28885 0.0
C254 C 0.60129 0.28094 0.3211 0.0
C255 C 0.58677 0.26698 0.28223 0.0
H256 H 0.53169 0.22561 0.31967 0.0
H257 H 0.52014 0.19069 0.37835 0.0
H258 H 0.49596 0.16527 0.17565 0.0
H259 H 0.50765 0.2007 0.11629 0.0
H260 H 0.49371 0.28996 0.09049 0.0
H261 H 0.48476 0.3214 0.00832 0.0
H262 H 0.54241 0.30381 0.87725 0.0
H263 H 0.55117 0.27277 0.95915 0.0
H264 H 0.58977 0.29417 0.12023 0.0
H265 H 0.6144 0.31865 0.18792 0.0
H266 H 0.6037 0.27758 0.37787 0.0
H267 H 0.57838 0.25322 0.3102 0.0
N268 N 0.5509 0.2439 0.20529 0.0
N269 N 0.52176 0.24666 0.11953 0.0
N270 N 0.55229 0.27212 0.11731 0.0
C271 C 0.53123 0.23593 0.17762 0.0
C272 C 0.53251 0.26487 0.08928 0.0
C273 C 0.56162 0.26184 0.17519 0.0
C274 C 0.52064 0.21595 0.21316 0.0
C275 C 0.52357 0.21276 0.28757 0.0
C276 C 0.51682 0.19272 0.32144 0.0
C277 C 0.50716 0.17507 0.28187 0.0
C278 C 0.5035 0.17847 0.20766 0.0
C279 C 0.50998 0.19882 0.17374 0.0
C280 C 0.52279 0.27858 0.03013 0.0
C281 C 0.50382 0.29231 0.04238 0.0
C282 C 0.49898 0.31056 0.99604 0.0
C283 C 0.51293 0.31529 0.93621 0.0
C284 C 0.5311 0.30062 0.92206 0.0
C285 C 0.53607 0.28267 0.96873 0.0
C286 C 0.58143 0.27223 0.21044 0.0
C287 C 0.59309 0.28994 0.17595 0.0
Tb288 Tb 0.01692 1.00094 0.77517 0.0
Tb289 Tb 0.98338 0.0113 0.66377 0.0
C290 C 0.03909 0.9823 0.87367 0.0
C291 C 0.05006 0.95989 0.87667 0.0
C292 C 0.03712 0.94004 0.87284 0.0
C293 C 0.04762 0.9191 0.86579 0.0
C294 C 0.07127 0.91748 0.86308 0.0
C295 C 0.0843 0.93715 0.87019 0.0
C296 C 0.07376 0.95821 0.87663 0.0
C297 C 0.0344 0.01583 0.65227 0.0
C298 C 0.99763 0.961 0.67351 0.0
C299 C 0.9664 0.03107 0.55809 0.0
C300 C 0.97515 0.05256 0.52776 0.0
C301 C 0.99317 0.05202 0.47827 0.0
C302 C 1.00769 0.07046 0.47135 0.0
C303 C 1.00431 0.0899 0.51305 0.0
C304 C 0.98449 0.09157 0.55453 0.0
C305 C 0.96994 0.07311 0.56137 0.0
C306 C 0.96553 0.99564 0.78366 0.0
C307 C 1.00254 0.05046 0.7663 0.0
O308 O 0.01696 0.98254 0.87184 0.0
O309 O 0.04794 0.99657 0.82768 0.0
O310 O 0.01806 1.00245 0.66031 0.0
O311 O 0.04245 0.02043 0.71509 0.0
O312 O 0.00926 0.96711 0.7312 0.0
O313 O 0.98674 0.97605 0.63407 0.0
O314 O 0.98018 0.01391 0.552 0.0
O315 O 0.95756 0.03209 0.62273 0.0
O316 O 0.98179 0.0094 0.77896 0.0
O317 O 0.95757 0.99175 0.72001 0.0
O318 O 0.99532 0.04476 0.70137 0.0
O319 O 0.00936 0.03479 0.81198 0.0
H320 H 0.01883 0.94065 0.8733 0.0
H321 H 0.03717 0.90412 0.86248 0.0
H322 H 0.10257 0.93629 0.86916 0.0
H323 H 0.08412 0.97326 0.87974 0.0
H324 H 0.99732 0.03665 0.44983 0.0
H325 H 0.02222 0.069 0.43615 0.0
H326 H 0.98108 0.10643 0.5864 0.0
H327 H 0.95587 0.07427 0.59856 0.0
Tb328 Tb 0.50593 0.03668 0.76122 0.0
Tb329 Tb 0.49763 1.0007 0.66344 0.0
C330 C 0.52364 0.06192 0.85281 0.0
C331 C 0.54651 0.07174 0.85209 0.0
C332 C 0.56207 0.06429 0.90367 0.0
C333 C 0.58516 0.0666 0.89095 0.0
C334 C 0.59294 0.07675 0.82711 0.0
C335 C 0.5775 0.08697 0.78029 0.0
C336 C 0.55433 0.08429 0.79228 0.0
C337 C 0.49267 0.05144 0.63332 0.0
C338 C 0.5466 0.01783 0.66312 0.0
C339 C 0.48084 0.9733 0.57622 0.0
C340 C 0.46107 0.95877 0.58678 0.0
C341 C 0.45044 0.94863 0.52818 0.0
C342 C 0.42973 0.93764 0.5378 0.0
C343 C 0.41939 0.93694 0.60601 0.0
C344 C 0.4308 0.94594 0.66526 0.0
C345 C 0.45154 0.95669 0.65575 0.0
C346 C 0.51017 0.98637 0.7933 0.0
C347 C 0.45665 0.0206 0.75776 0.0
O348 O 0.5232 0.03987 0.85872 0.0
O349 O 0.50965 0.06925 0.8037 0.0
O350 O 0.50627 0.03536 0.64508 0.0
O351 O 0.48634 0.05969 0.69438 0.0
O352 O 0.54043 0.02826 0.7229 0.0
O353 O 0.53133 0.00792 0.62272 0.0
O354 O 0.47649 0.99496 0.57499 0.0
O355 O 0.49801 0.96849 0.61732 0.0
O356 O 0.49673 1.00225 0.77906 0.0
O357 O 0.51665 0.97773 0.73326 0.0
O358 O 0.46301 0.01037 0.69782 0.0
O359 O 0.47187 0.03001 0.79957 0.0
H360 H 0.55648 0.05471 0.95027 0.0
H361 H 0.59694 0.05887 0.92817 0.0
H362 H 0.58328 0.09492 0.73092 0.0
H363 H 0.54273 0.09031 0.75152 0.0
H364 H 0.45759 0.95014 0.47467 0.0
H365 H 0.42106 0.93115 0.49108 0.0
H366 H 0.42309 0.9457 0.71818 0.0
H367 H 0.45963 0.96433 0.70177 0.0
Tb368 Tb 0.48696 0.51789 0.75448 0.0
Tb369 Tb 0.51846 0.51035 0.6233 0.0
C370 C 0.46764 0.53163 0.86627 0.0
C371 C 0.45227 0.55061 0.87893 0.0
C372 C 0.44656 0.56529 0.82229 0.0
C373 C 0.43269 0.58392 0.83478 0.0
C374 C 0.42408 0.588 0.90394 0.0
C375 C 0.42922 0.5728 0.96003 0.0
C376 C 0.4433 0.55426 0.94758 0.0
C377 C 0.46682 0.50814 0.63111 0.0
C378 C 0.50365 0.56043 0.65836 0.0
C379 C 0.53286 0.49835 0.50321 0.0
C380 C 0.54908 0.48058 0.48192 0.0
C381 C 0.54093 0.46028 0.45345 0.0
C382 C 0.55553 0.44221 0.4416 0.0
C383 C 0.57866 0.44413 0.45717 0.0
C384 C 0.58712 0.46479 0.48194 0.0
C385 C 0.57243 0.48286 0.49459 0.0
C386 C 0.54247 0.51205 0.74468 0.0
C387 C 0.50462 0.46924 0.72689 0.0
O388 O 0.48837 0.53715 0.84855 0.0
O389 O 0.45954 0.51565 0.82558 0.0
O390 O 0.48412 0.52015 0.63955 0.0
O391 O 0.45918 0.50253 0.69396 0.0
O392 O 0.49336 0.55278 0.71738 0.0
O393 O 0.51316 0.5467 0.61098 0.0
O394 O 0.51373 0.49103 0.53087 0.0
O395 O 0.54113 0.51568 0.53824 0.0
O396 O 0.52154 0.51346 0.73566 0.0
O397 O 0.55114 0.50968 0.68118 0.0
O398 O 0.5096 0.47603 0.6604 0.0
O399 O 0.49884 0.48379 0.77758 0.0
H400 H 0.45306 0.5625 0.76861 0.0
H401 H 0.4289 0.5953 0.79059 0.0
H402 H 0.42307 0.57573 0.01407 0.0
H403 H 0.44747 0.54299 0.99173 0.0
H404 H 0.5231 0.45811 0.44238 0.0
H405 H 0.54868 0.42658 0.42093 0.0
H406 H 0.60491 0.46668 0.49388 0.0
H407 H 0.5793 0.49835 0.51615 0.0
Tb408 Tb 0.99227 0.4854 0.7779 0.0
Tb409 Tb 0.99751 0.52073 0.67483 0.0
C410 C 0.97958 0.45941 0.87768 0.0
C411 C 0.9615 0.44265 0.88483 0.0
C412 C 0.94714 0.43809 0.82686 0.0
C413 C 0.9293 0.42283 0.83513 0.0
C414 C 0.92563 0.41186 0.90145 0.0
C415 C 0.94056 0.41602 0.95861 0.0
C416 C 0.95834 0.43132 0.95029 0.0
C417 C 1.00334 0.47016 0.64811 0.0
C418 C 0.94925 0.50203 0.6866 0.0
C419 C 0.01249 0.54722 0.58054 0.0
C420 C 0.03277 0.56136 0.58461 0.0
C421 C 0.04463 0.5672 0.52208 0.0
C422 C 0.06585 0.5774 0.52694 0.0
C423 C 0.07553 0.58183 0.59454 0.0
C424 C 0.06305 0.5769 0.657 0.0
C425 C 0.04188 0.5667 0.65208 0.0
C426 C 0.98645 0.53584 0.80479 0.0
C427 C 0.04058 0.50403 0.76364 0.0
O428 O 0.97302 0.48043 0.87158 0.0
O429 O 0.99545 0.45438 0.83166 0.0
O430 O 0.98952 0.48575 0.66197 0.0
O431 O 0.01099 0.46236 0.70821 0.0
O432 O 0.95674 0.49243 0.74664 0.0
O433 O 0.96359 0.51181 0.64183 0.0
O434 O 0.01646 0.52549 0.58037 0.0
O435 O 0.99623 0.55256 0.62489 0.0
O436 O 1.00028 0.52028 0.79061 0.0
O437 O 0.97889 0.5438 0.74479 0.0
O438 O 0.03289 0.51272 0.70282 0.0
O439 O 0.02626 0.49511 0.81022 0.0
H440 H 0.94951 0.44659 0.77564 0.0
H441 H 0.91816 0.4199 0.79007 0.0
H442 H 0.93796 0.40818 0.01075 0.0
H443 H 0.96934 0.43465 0.99545 0.0
H444 H 0.03797 0.56292 0.46972 0.0
H445 H 0.0752 0.58057 0.47776 0.0
H446 H 0.06999 0.58019 0.70972 0.0
H447 H 0.03304 0.5621 0.70114 0.0
H448 H 0.14261 0.04352 0.41025 0.0
H449 H 0.10829 0.01081 0.2334 0.0
H450 H 0.07382 1.00738 0.30796 0.0
H451 H 0.12061 0.01002 0.54763 0.0
H452 H 0.1176 0.0324 0.61221 0.0
H453 H 0.13869 0.03449 0.54265 0.0
H454 H 0.12201 0.07283 0.50265 0.0
H455 H 0.10031 0.07096 0.57071 0.0
H456 H 0.09269 0.07462 0.47758 0.0
H457 H 0.0443 1.00408 0.40588 0.0
H458 H 0.02225 1.00139 0.51856 0.0
H459 H 0.07512 0.03727 0.63113 0.0
C460 C 0.12766 0.03621 0.38636 0.0
C461 C 0.12823 0.02752 0.31553 0.0
C462 C 0.1084 0.01749 0.28744 0.0
C463 C 0.08867 0.01558 0.32933 0.0
C464 C 0.08887 0.02389 0.39934 0.0
C465 C 0.10781 0.03416 0.42749 0.0
C466 C 0.10405 0.04049 0.50561 0.0
C467 C 0.12126 0.02864 0.55491 0.0
C468 C 0.10481 0.06626 0.51472 0.0
C469 C 0.08034 0.03146 0.51781 0.0
C470 C 0.07178 0.02219 0.45555 0.0
C471 C 0.05072 0.01161 0.45457 0.0
C472 C 0.03827 0.01019 0.5189 0.0
C473 C 0.04682 0.01931 0.58353 0.0
C474 C 0.06801 0.03037 0.58242 0.0
H475 H 0.48769 0.16742 0.41452 0.0
H476 H 0.51678 0.1325 0.23212 0.0
H477 H 0.51351 0.09621 0.29816 0.0
H478 H 0.51576 0.13678 0.54838 0.0
H479 H 0.49239 0.13631 0.61071 0.0
H480 H 0.49493 0.15899 0.54635 0.0
H481 H 0.45475 0.15036 0.49888 0.0
H482 H 0.45206 0.12766 0.56338 0.0
H483 H 0.44805 0.12224 0.46904 0.0
H484 H 0.51106 0.06415 0.39099 0.0
H485 H 0.5076 0.03943 0.49879 0.0
H486 H 0.47899 0.09533 0.61789 0.0
C487 C 0.49309 0.1521 0.38799 0.0
C488 C 0.50245 0.15287 0.31787 0.0
C489 C 0.50926 0.13237 0.28526 0.0
C490 C 0.50758 0.11166 0.3226 0.0
C491 C 0.49878 0.11161 0.39233 0.0
C492 C 0.49137 0.13131 0.42424 0.0
C493 C 0.4834 0.12695 0.50062 0.0
C494 C 0.49746 0.14056 0.55467 0.0
C495 C 0.45806 0.13211 0.50841 0.0
C496 C 0.48799 0.10184 0.50752 0.0
C497 C 0.49684 0.09321 0.44457 0.0
C498 C 0.50377 0.07068 0.44006 0.0
C499 C 0.50176 0.05675 0.5015 0.0
C500 C 0.4928 0.06534 0.56648 0.0
C501 C 0.48556 0.08811 0.56874 0.0
H502 H 0.35452 0.49143 0.40084 0.0
H503 H 0.39051 0.51989 0.2179 0.0
H504 H 0.42544 0.52127 0.29001 0.0
H505 H 0.3804 0.52412 0.5331 0.0
H506 H 0.38172 0.50197 0.59989 0.0
H507 H 0.36003 0.50148 0.53238 0.0
H508 H 0.3727 0.46144 0.49385 0.0
H509 H 0.39437 0.46174 0.56166 0.0
H510 H 0.40177 0.45662 0.46911 0.0
H511 H 0.45585 0.52255 0.38588 0.0
H512 H 0.4792 0.5224 0.49614 0.0
H513 H 0.42383 0.49182 0.61488 0.0
C514 C 0.36985 0.4974 0.37515 0.0
C515 C 0.36964 0.50553 0.30332 0.0
C516 C 0.39008 0.51375 0.27284 0.0
C517 C 0.41008 0.5145 0.31334 0.0
C518 C 0.40955 0.50681 0.38434 0.0
C519 C 0.39 0.49821 0.41478 0.0
C520 C 0.39366 0.49194 0.49311 0.0
C521 C 0.37803 0.5057 0.5425 0.0
C522 C 0.39044 0.46642 0.50512 0.0
C523 C 0.41819 0.49872 0.50241 0.0
C524 C 0.4271 0.5072 0.439 0.0
C525 C 0.44912 0.51562 0.43549 0.0
C526 C 0.46228 0.51547 0.49835 0.0
C527 C 0.45345 0.50688 0.56386 0.0
C528 C 0.43117 0.49822 0.56539 0.0
H529 H 0.03934 0.3664 0.4006 0.0
H530 H 0.98477 0.38405 0.25586 0.0
H531 H 0.97547 0.41703 0.3323 0.0
H532 H 0.01042 0.38068 0.56341 0.0
H533 H 0.03543 0.39125 0.60678 0.0
H534 H 0.03781 0.36964 0.53953 0.0
H535 H 0.06571 0.3948 0.46724 0.0
H536 H 0.06333 0.41655 0.53412 0.0
H537 H 0.05736 0.42297 0.44125 0.0
H538 H 0.97282 0.4489 0.42602 0.0
H539 H 0.97511 0.47426 0.53139 0.0
H540 H 0.03093 0.4347 0.61469 0.0
C541 C 0.02555 0.37731 0.38442 0.0
C542 C 0.01294 0.37274 0.32155 0.0
C543 C 0.99466 0.38716 0.30363 0.0
C544 C 0.98936 0.40601 0.3466 0.0
C545 C 1.00234 0.41012 0.4078 0.0
C546 C 0.01993 0.39598 0.42688 0.0
C547 C 0.03088 0.40348 0.49634 0.0
C548 C 0.02848 0.38518 0.55497 0.0
C549 C 0.0558 0.40983 0.48396 0.0
C550 C 0.01678 0.42411 0.51369 0.0
C551 C 1.00049 0.42785 0.46182 0.0
C552 C 0.98551 0.44602 0.46682 0.0
C553 C 0.98698 0.46042 0.52673 0.0
C554 C 1.0032 0.45647 0.58129 0.0
C555 C 0.01837 0.43818 0.57389 0.0
H556 H 0.89339 0.0226 0.13535 0.0
H557 H 0.86407 0.9558 0.11113 0.0
H558 H 0.89222 0.94705 0.0183 0.0
H559 H 0.90156 0.03289 0.95387 0.0
H560 H 0.92804 0.04769 0.9621 0.0
H561 H 0.90819 0.0477 0.03554 0.0
H562 H 0.93884 0.03155 0.12059 0.0
H563 H 0.95886 0.03161 0.04732 0.0
H564 H 0.95338 1.0059 0.09679 0.0
H565 H 0.91879 0.94748 0.91451 0.0
H566 H 0.94396 0.95644 0.81197 0.0
H567 H 0.95749 0.02235 0.90214 0.0
C568 C 0.89316 1.00594 0.11172 0.0
C569 C 0.87644 0.98986 0.13183 0.0
C570 C 0.87687 0.96831 0.0988 0.0
C571 C 0.89276 0.96318 0.04523 0.0
C572 C 0.9084 0.97965 0.02513 0.0
C573 C 0.90898 1.0005 0.05793 0.0
C574 C 0.92646 0.01575 0.02221 0.0
C575 C 0.91539 0.03727 0.99162 0.0
C576 C 0.94552 0.02154 0.07488 0.0
C577 C 0.93495 1.00049 0.96253 0.0
C578 C 0.92435 0.97968 0.96564 0.0
C579 C 0.92763 0.96348 0.91257 0.0
C580 C 0.94189 0.96871 0.85446 0.0
C581 C 0.95295 0.98984 0.85006 0.0
C582 C 0.94975 1.0058 0.90548 0.0
H583 H 0.51856 0.87356 0.02959 0.0
H584 H 0.48082 0.90848 0.19525 0.0
H585 H 0.48353 0.94399 0.12523 0.0
H586 H 0.5562 0.92156 0.97898 0.0
H587 H 0.55538 0.91457 0.88486 0.0
H588 H 0.55278 0.89258 0.95185 0.0
H589 H 0.51503 0.87984 0.8948 0.0
H590 H 0.51746 0.90183 0.82799 0.0
H591 H 0.49254 0.90009 0.88366 0.0
H592 H 0.48701 0.97491 0.03151 0.0
H593 H 0.49136 0.9986 0.92207 0.0
H594 H 0.52712 0.94387 0.81757 0.0
C595 C 0.51146 0.88884 0.05204 0.0
C596 C 0.4996 0.88825 0.11824 0.0
C597 C 0.48997 0.9085 0.14473 0.0
C598 C 0.49148 0.92879 0.1054 0.0
C599 C 0.50276 0.92868 0.03949 0.0
C600 C 0.51272 0.90926 0.01316 0.0
C601 C 0.52244 0.91335 0.93857 0.0
C602 C 0.54823 0.91034 0.93859 0.0
C603 C 0.51119 0.89786 0.883 0.0
C604 C 0.51597 0.9379 0.92647 0.0
C605 C 0.50478 0.94651 0.98555 0.0
C606 C 0.49604 0.96843 0.98536 0.0
C607 C 0.49858 0.98178 0.92299 0.0
C608 C 0.50971 0.97318 0.86152 0.0
C609 C 0.51879 0.95105 0.86403 0.0
H610 H 0.65602 0.50551 0.96873 0.0
H611 H 0.61628 0.50071 0.16433 0.0
H612 H 0.58138 0.50739 0.09362 0.0
H613 H 0.6215 0.5486 0.87721 0.0
H614 H 0.62559 0.53563 0.79074 0.0
H615 H 0.64716 0.53328 0.85851 0.0
H616 H 0.64588 0.48965 0.84797 0.0
H617 H 0.62423 0.49185 0.78069 0.0
H618 H 0.61937 0.47512 0.86056 0.0
H619 H 0.55014 0.51084 0.99635 0.0
H620 H 0.52684 0.51179 0.88525 0.0
H621 H 0.58793 0.51352 0.75648 0.0
C622 C 0.64002 0.50617 0.99704 0.0
C623 C 0.63892 0.50255 0.07219 0.0
C624 C 0.61761 0.50369 0.10697 0.0
C625 C 0.59768 0.50735 0.06709 0.0
C626 C 0.59936 0.51005 0.99252 0.0
C627 C 0.62012 0.50973 0.95822 0.0
C628 C 0.61761 0.51174 0.87753 0.0
C629 C 0.62861 0.53362 0.84936 0.0
C630 C 0.62734 0.49085 0.8395 0.0
C631 C 0.59217 0.51271 0.87115 0.0
C632 C 0.58178 0.51193 0.93779 0.0
C633 C 0.5582 0.51174 0.94411 0.0
C634 C 0.54507 0.5123 0.88085 0.0
C635 C 0.55558 0.51288 0.8124 0.0
C636 C 0.57939 0.51324 0.80807 0.0
H637 H 0.97715 0.64876 0.03655 0.0
H638 H 0.0095 0.6124 0.21137 0.0
H639 H 0.00817 0.57732 0.14042 0.0
H640 H 0.93974 0.60196 0.97944 0.0
H641 H 0.94271 0.60912 0.88557 0.0
H642 H 0.94448 0.6309 0.95261 0.0
H643 H 0.98365 0.64275 0.90266 0.0
H644 H 0.98208 0.62096 0.83588 0.0
H645 H 1.00581 0.62196 0.89622 0.0
H646 H 1.00662 0.54679 0.04535 0.0
H647 H 1.00346 0.52331 0.93596 0.0
H648 H 0.97093 0.57905 0.82486 0.0
C649 C 0.98339 0.63331 0.0608 0.0
C650 C 0.99343 0.63347 0.12987 0.0
C651 C 1.0019 0.61287 0.15851 0.0
C652 C 1.00113 0.59279 0.11866 0.0
C653 C 0.99168 0.59336 0.05013 0.0
C654 C 0.98273 0.61305 0.02171 0.0
C655 C 0.97449 0.60937 0.94546 0.0
C656 C 0.94883 0.61305 0.9405 0.0
C657 C 0.98728 0.62467 0.89192 0.0
C658 C 0.98057 0.58469 0.93496 0.0
C659 C 0.99043 0.57571 0.99601 0.0
C660 C 0.99861 0.55357 0.99766 0.0
C661 C 0.99677 0.54035 0.9353 0.0
C662 C 0.98677 0.54923 0.87214 0.0
C663 C 0.97836 0.57163 0.87261 0.0
H664 H 0.05039 0.21361 0.47723 0.0
H665 H 0.11633 0.18417 0.44002 0.0
H666 H 0.10267 0.14782 0.48958 0.0
H667 H 0.03276 0.17567 0.63979 0.0
H668 H 1.00433 0.17485 0.60555 0.0
H669 H 0.02123 0.19997 0.59393 0.0
H670 H 0.01397 0.19836 0.45689 0.0
H671 H 0.99779 0.17297 0.46721 0.0
H672 H 0.02193 0.17339 0.40784 0.0
H673 H 0.07979 0.11338 0.51295 0.0
H674 H 0.05034 0.08393 0.51277 0.0
H675 H 0.99862 0.13584 0.52336 0.0
C676 C 0.06241 0.19998 0.48411 0.0
C677 C 0.08451 0.20175 0.45595 0.0
C678 C 0.09944 0.1832 0.46237 0.0
C679 C 0.09178 0.1625 0.49041 0.0
C680 C 0.06923 0.16078 0.51199 0.0
C681 C 0.05484 0.1792 0.51043 0.0
C682 C 0.0305 0.17218 0.52263 0.0
C683 C 0.02169 0.1812 0.59477 0.0
C684 C 0.01519 0.17966 0.45989 0.0
C685 C 0.0332 0.14683 0.52526 0.0
C686 C 0.05568 0.1406 0.52167 0.0
C687 C 0.06216 0.11805 0.51698 0.0
C688 C 0.04527 0.10148 0.51555 0.0
C689 C 0.02208 0.10757 0.51705 0.0
C690 C 0.01613 0.13056 0.5232 0.0
H691 H 0.30037 0.98211 0.56403 0.0
H692 H 0.2866 0.92178 0.44234 0.0
H693 H 0.31761 0.90203 0.50474 0.0
H694 H 0.35221 0.98269 0.53724 0.0
H695 H 0.36307 0.99238 0.62175 0.0
H696 H 0.33469 0.99905 0.59708 0.0
H697 H 0.31855 0.9805 0.71158 0.0
H698 H 0.34696 0.97451 0.74085 0.0
H699 H 0.3265 0.95203 0.73542 0.0
H700 H 0.35666 0.89454 0.54106 0.0
H701 H 0.39785 0.89886 0.5578 0.0
H702 H 0.38672 0.96315 0.66131 0.0
C703 C 0.30307 0.96429 0.55443 0.0
C704 C 0.29121 0.95331 0.49932 0.0
C705 C 0.29535 0.93026 0.48553 0.0
C706 C 0.31297 0.91895 0.52076 0.0
C707 C 0.3259 0.93088 0.57041 0.0
C708 C 0.32066 0.95292 0.58911 0.0
C709 C 0.33962 0.9637 0.63116 0.0
C710 C 0.34786 0.98571 0.59458 0.0
C711 C 0.33247 0.96792 0.70941 0.0
C712 C 0.35717 0.9452 0.62698 0.0
C713 C 0.34882 0.92615 0.59343 0.0
C714 C 0.36315 0.90886 0.5704 0.0
C715 C 0.38651 0.91145 0.57967 0.0
C716 C 0.39523 0.9311 0.61216 0.0
C717 C 0.3803 0.94757 0.63894 0.0
H718 H 0.59178 0.31526 0.41245 0.0
H719 H 0.64603 0.32968 0.26218 0.0
H720 H 0.64963 0.36796 0.31264 0.0
H721 H 0.56421 0.36093 0.38834 0.0
H722 H 0.55459 0.36601 0.47885 0.0
H723 H 0.56148 0.33789 0.45172 0.0
H724 H 0.59043 0.33407 0.55508 0.0
H725 H 0.58319 0.36216 0.58425 0.0
H726 H 0.61221 0.35508 0.56527 0.0
H727 H 0.64 0.40684 0.35378 0.0
H728 H 0.61908 0.44167 0.38504 0.0
H729 H 0.5711 0.40182 0.50793 0.0
C730 C 0.60543 0.32589 0.39325 0.0
C731 C 0.61867 0.31944 0.33357 0.0
C732 C 0.6357 0.33427 0.30797 0.0
C733 C 0.63792 0.35604 0.33658 0.0
C734 C 0.62324 0.36255 0.39153 0.0
C735 C 0.60765 0.34765 0.42083 0.0
C736 C 0.59107 0.35962 0.46959 0.0
C737 C 0.56642 0.35589 0.44558 0.0
C738 C 0.59444 0.3523 0.54823 0.0
C739 C 0.59844 0.3838 0.45801 0.0
C740 C 0.61748 0.38519 0.41486 0.0
C741 C 0.62554 0.40594 0.38946 0.0
C742 C 0.61355 0.42563 0.4072 0.0
C743 C 0.59353 0.42427 0.44867 0.0
C744 C 0.58644 0.40321 0.4763 0.0
H745 H 0.18455 0.61297 0.39217 0.0
H746 H 0.2169 0.56443 0.53353 0.0
H747 H 0.18662 0.56958 0.62236 0.0
H748 H 0.15297 0.64739 0.54142 0.0
H749 H 0.12879 0.64977 0.48321 0.0
H750 H 0.15692 0.65003 0.44561 0.0
H751 H 0.14597 0.61686 0.36256 0.0
H752 H 0.11814 0.61625 0.40023 0.0
H753 H 0.13527 0.59106 0.40202 0.0
H754 H 0.14872 0.56981 0.67507 0.0
H755 H 0.1076 0.56544 0.68651 0.0
H756 H 0.09786 0.61277 0.51058 0.0
C757 C 0.18571 0.60421 0.44328 0.0
C758 C 0.20302 0.58827 0.45573 0.0
C759 C 0.20404 0.57702 0.52302 0.0
C760 C 0.1868 0.57983 0.57397 0.0
C761 C 0.16879 0.59409 0.55715 0.0
C762 C 0.16833 0.60648 0.49376 0.0
C763 C 0.14522 0.61669 0.48086 0.0
C764 C 0.14603 0.6425 0.48825 0.0
C765 C 0.13561 0.60977 0.40715 0.0
C766 C 0.13215 0.60606 0.54237 0.0
C767 C 0.14623 0.59393 0.58763 0.0
C768 C 0.13764 0.57991 0.64168 0.0
C769 C 0.11417 0.57751 0.64778 0.0
C770 C 0.09954 0.58882 0.59936 0.0
C771 C 0.10869 0.60405 0.54843 0.0
H772 H 0.11822 0.81343 0.05683 0.0
H773 H 0.0747 0.77612 0.91313 0.0
H774 H 0.07725 0.80672 0.82469 0.0
H775 H 0.09004 0.85849 0.05007 0.0
H776 H 0.11222 0.87935 0.05295 0.0
H777 H 0.11718 0.85167 0.08838 0.0
H778 H 0.15168 0.84673 1.00414 0.0
H779 H 0.14709 0.87482 0.9689 0.0
H780 H 0.14859 0.85112 0.9087 0.0
H781 H 0.07189 0.84432 0.77506 0.0
H782 H 0.06072 0.88434 0.76759 0.0
H783 H 0.10476 0.89978 0.94596 0.0
C784 C 0.11008 0.81133 0.0053 0.0
C785 C 0.09602 0.79249 0.99266 0.0
C786 C 0.08581 0.79018 0.92437 0.0
C787 C 0.0871 0.80766 0.87348 0.0
C788 C 0.09873 0.82731 0.89139 0.0
C789 C 0.11053 0.82908 0.95529 0.0
C790 C 0.11697 0.85341 0.97012 0.0
C791 C 0.10857 0.86116 0.04468 0.0
C792 C 0.14261 0.85671 0.96247 0.0
C793 C 0.10454 0.86526 0.90971 0.0
C794 C 0.09509 0.84986 0.86284 0.0
C795 C 0.07984 0.85655 0.8098 0.0
C796 C 0.07339 0.87927 0.80637 0.0
C797 C 0.08198 0.89501 0.85622 0.0
C798 C 0.09848 0.88811 0.90618 0.0
H799 H 0.69661 1.00164 0.86171 0.0
H800 H 0.73373 0.06409 0.88493 0.0
H801 H 0.7047 0.08419 0.81552 0.0
H802 H 0.66438 0.01714 0.68641 0.0
H803 H 0.63863 1.00476 0.72091 0.0
H804 H 0.66562 0.99225 0.74194 0.0
H805 H 0.65817 0.99473 0.8772 0.0
H806 H 0.63082 1.00624 0.85993 0.0
H807 H 0.6503 0.02143 0.91618 0.0
H808 H 0.66724 0.09964 0.7887 0.0
H809 H 0.62642 0.10798 0.80255 0.0
H810 H 0.6119 0.03643 0.80374 0.0
C811 C 0.6991 0.01932 0.84856 0.0
C812 C 0.71718 0.03135 0.87896 0.0
C813 C 0.7201 0.05445 0.86144 0.0
C814 C 0.70357 0.06605 0.82208 0.0
C815 C 0.68436 0.05427 0.80045 0.0
C816 C 0.68229 0.03117 0.81184 0.0
C817 C 0.65824 0.0233 0.80067 0.0
C818 C 0.65658 0.0085 0.73343 0.0
C819 C 0.64887 0.01074 0.86748 0.0
C820 C 0.64671 0.04582 0.78934 0.0
C821 C 0.66208 0.06343 0.7861 0.0
C822 C 0.65508 0.08599 0.78847 0.0
C823 C 0.63196 0.09064 0.79692 0.0
C824 C 0.6164 0.07275 0.80437 0.0
C825 C 0.62374 0.05026 0.79753 0.0
H826 H 0.42402 0.71685 0.97867 0.0
H827 H 0.36867 0.70464 0.12683 0.0
H828 H 0.36194 0.66762 0.07061 0.0
H829 H 0.39975 0.68226 0.81964 0.0
H830 H 0.42787 0.67278 0.79766 0.0
H831 H 0.42356 0.70072 0.83328 0.0
H832 H 0.45221 0.69183 0.93445 0.0
H833 H 0.45625 0.66387 0.9005 0.0
H834 H 0.44744 0.66775 0.99246 0.0
H835 H 0.36823 0.62898 0.02356 0.0
H836 H 0.38511 0.59307 0.98257 0.0
H837 H 0.43593 0.63051 0.86341 0.0
C838 C 0.40959 0.70702 0.99635 0.0
C839 C 0.39681 0.71364 0.05684 0.0
C840 C 0.37865 0.69987 0.08045 0.0
C841 C 0.37466 0.67885 0.0486 0.0
C842 C 0.38871 0.67206 0.99242 0.0
C843 C 0.40549 0.68601 0.96522 0.0
C844 C 0.42062 0.67354 0.91304 0.0
C845 C 0.41777 0.68288 0.83635 0.0
C846 C 0.44557 0.67429 0.93662 0.0
C847 C 0.41093 0.64999 0.9197 0.0
C848 C 0.39218 0.64954 0.96431 0.0
C849 C 0.38238 0.62922 0.98658 0.0
C850 C 0.39218 0.60891 0.96365 0.0
C851 C 0.41161 0.60911 0.91916 0.0
C852 C 0.42063 0.62992 0.89549 0.0
H853 H 0.79736 0.40785 0.97799 0.0
H854 H 0.81187 0.35428 0.13057 0.0
H855 H 0.84845 0.34753 0.07033 0.0
H856 H 0.83189 0.38354 0.8174 0.0
H857 H 0.84058 0.41178 0.79334 0.0
H858 H 0.81286 0.40692 0.83092 0.0
H859 H 0.82126 0.43623 0.93005 0.0
H860 H 0.84894 0.44089 0.89395 0.0
H861 H 0.84567 0.43237 0.98664 0.0
H862 H 0.88644 0.35377 0.01767 0.0
H863 H 0.92179 0.37174 0.97577 0.0
H864 H 0.88284 0.42184 0.859 0.0
C865 C 0.80758 0.39374 0.99586 0.0
C866 C 0.80171 0.38142 0.05836 0.0
C867 C 0.81602 0.36379 0.08237 0.0
C868 C 0.83679 0.3598 0.04823 0.0
C869 C 0.84286 0.37342 0.98978 0.0
C870 C 0.82843 0.3898 0.96286 0.0
C871 C 0.84034 0.40504 0.90911 0.0
C872 C 0.83085 0.4016 0.83318 0.0
C873 C 0.83898 0.43007 0.93137 0.0
C874 C 0.86415 0.39598 0.91475 0.0
C875 C 0.86517 0.37727 0.9596 0.0
C876 C 0.88577 0.36796 0.98078 0.0
C877 C 0.90577 0.3784 0.95729 0.0
C878 C 0.90502 0.39811 0.91383 0.0
C879 C 0.88393 0.40641 0.89035 0.0
H880 H 0.03662 0.15848 1.00167 0.0
H881 H 0.99238 0.19877 0.86665 0.0
H882 H 0.98261 0.16455 0.79732 0.0
H883 H 0.05808 0.12246 0.86257 0.0
H884 H 0.05888 0.0976 0.919 0.0
H885 H 0.06207 0.12516 0.95817 0.0
H886 H 0.02859 0.11696 0.04447 0.0
H887 H 0.02532 0.08936 0.00565 0.0
H888 H 1.00172 0.10858 0.0079 0.0
H889 H 0.97828 0.1255 0.74105 0.0
H890 H 0.97859 0.08529 0.70646 0.0
H891 H 0.02596 0.07057 0.87743 0.0
C892 C 0.02495 0.1602 0.95728 0.0
C893 C 0.01537 0.1815 0.93954 0.0
C894 C 0.99984 0.18274 0.8818 0.0
C895 C 0.99429 0.16337 0.84183 0.0
C896 C 1.00424 0.14274 0.86043 0.0
C897 C 0.01915 0.14104 0.91716 0.0
C898 C 0.02741 0.1169 0.92674 0.0
C899 C 0.05314 0.11546 0.91596 0.0
C900 C 0.02033 0.10739 1.00057 0.0
C901 C 0.01491 0.1052 0.86636 0.0
C902 C 1.00169 0.12041 0.82855 0.0
C903 C 0.98867 0.11355 0.77028 0.0
C904 C 0.98912 0.09066 0.7504 0.0
C905 C 1.00255 0.07473 0.7881 0.0
C906 C 0.01552 0.08224 0.8472 0.0
H907 H 0.35183 0.02864 0.02988 0.0
H908 H 0.30735 0.02305 0.84535 0.0
H909 H 0.34062 0.0198 0.76605 0.0
H910 H 0.39348 0.06385 0.94109 0.0
H911 H 0.41693 0.05096 0.98739 0.0
H912 H 0.38956 0.05204 0.02983 0.0
H913 H 0.3904 0.0086 0.04733 0.0
H914 H 0.41771 1.00737 1.00454 0.0
H915 H 0.39468 0.99069 0.97046 0.0
H916 H 0.37929 0.01654 0.70643 0.0
H917 H 0.41964 0.0152 0.67125 0.0
H918 H 0.43868 0.02616 0.89329 0.0
C919 C 0.34886 0.02713 0.97277 0.0
C920 C 0.32658 0.02608 0.94467 0.0
C921 C 0.32398 0.02351 0.86924 0.0
C922 C 0.34287 0.02179 0.82338 0.0
C923 C 0.36444 0.02287 0.85317 0.0
C924 C 0.3675 0.0257 0.9261 0.0
C925 C 0.39246 0.02682 0.94457 0.0
C926 C 0.39846 0.04979 0.97766 0.0
C927 C 0.3992 1.0072 0.99469 0.0
C928 C 0.403 0.02421 0.87063 0.0
C929 C 0.38657 0.0217 0.81868 0.0
C930 C 0.39226 0.01844 0.74665 0.0
C931 C 0.41525 0.01774 0.72719 0.0
C932 C 0.43238 0.02079 0.77927 0.0
C933 C 0.42603 0.02405 0.85195 0.0
H934 H 0.50305 0.35871 0.98077 0.0
H935 H 0.51619 0.31923 0.78938 0.0
H936 H 0.51487 0.35401 0.71555 0.0
H937 H 0.46415 0.39927 0.89639 0.0
H938 H 0.47459 0.42275 0.94778 0.0
H939 H 0.47545 0.39461 0.98514 0.0
H940 H 0.51848 0.39875 0.00612 0.0
H941 H 0.51779 0.42682 0.9683 0.0
H942 H 0.53667 0.40596 0.93148 0.0
H943 H 0.5141 0.39337 0.66285 0.0
H944 H 0.51245 0.4341 0.63462 0.0
H945 H 0.49925 0.44839 0.85959 0.0
C946 C 0.50517 0.3573 0.92315 0.0
C947 C 0.5097 0.33609 0.89105 0.0
C948 C 0.51287 0.33519 0.8155 0.0
C949 C 0.51208 0.35489 0.77299 0.0
C950 C 0.50804 0.3755 0.80648 0.0
C951 C 0.50447 0.37685 0.87978 0.0
C952 C 0.50109 0.40125 0.9025 0.0
C953 C 0.47741 0.40467 0.93486 0.0
C954 C 0.51961 0.40862 0.95521 0.0
C955 C 0.50346 0.41339 0.83065 0.0
C956 C 0.50747 0.3982 0.77599 0.0
C957 C 0.51079 0.40538 0.7052 0.0
C958 C 0.50987 0.42864 0.68971 0.0
C959 C 0.50562 0.44462 0.74464 0.0
C960 C 0.50238 0.43672 0.8161 0.0
H961 H 0.15191 0.49536 0.00831 0.0
H962 H 0.19 0.52056 0.8247 0.0
H963 H 0.15497 0.52189 0.75334 0.0
H964 H 0.11359 0.45951 0.90583 0.0
H965 H 0.0897 0.46544 0.96301 0.0
H966 H 0.11788 0.46607 0.99931 0.0
H967 H 0.11117 0.50693 0.04352 0.0
H968 H 0.08304 0.50649 0.00695 0.0
H969 H 0.10254 0.52839 0.9801 0.0
H970 H 0.11538 0.52187 0.70275 0.0
H971 H 0.07469 0.51917 0.6757 0.0
H972 H 0.06226 0.49263 0.89036 0.0
C973 C 0.15305 0.50075 0.9527 0.0
C974 C 0.17393 0.50791 0.92254 0.0
C975 C 0.17432 0.51528 0.84976 0.0
C976 C 0.15447 0.51598 0.8085 0.0
C977 C 0.13421 0.50912 0.84025 0.0
C978 C 0.13337 0.50147 0.91054 0.0
C979 C 0.10934 0.49533 0.93202 0.0
C980 C 0.10753 0.47009 0.95116 0.0
C981 C 0.10104 0.51017 0.99434 0.0
C982 C 0.09679 0.50079 0.86296 0.0
C983 C 0.11146 0.50879 0.81077 0.0
C984 C 0.10378 0.51547 0.7431 0.0
C985 C 0.08057 0.51387 0.72825 0.0
C986 C 0.06516 0.50551 0.78057 0.0
C987 C 0.07353 0.4989 0.84885 0.0
H988 H 0.97564 0.85483 0.41556 0.0
H989 H 0.01165 0.81365 0.57162 0.0
H990 H 0.0148 0.84661 0.65127 0.0
H991 H 0.00918 0.90385 0.43592 0.0
H992 H 0.98617 0.92353 0.42568 0.0
H993 H 0.98478 0.89627 0.38359 0.0
H994 H 0.94683 0.88806 0.44831 0.0
H995 H 0.94804 0.91538 0.49034 0.0
H996 H 0.9452 0.89024 0.54482 0.0
H997 H 0.01676 0.88494 0.71038 0.0
H998 H 0.01593 0.92495 0.74589 0.0
H999 H 0.97925 0.94176 0.5513 0.0
C1000 C 0.98407 0.85261 0.46667 0.0
C1001 C 0.99328 0.83135 0.48697 0.0
C1002 C 1.004 0.82943 0.55489 0.0
C1003 C 1.00606 0.84819 0.60046 0.0
C1004 C 0.99728 0.86891 0.5779 0.0
C1005 C 0.98633 0.8712 0.51281 0.0
C1006 C 0.97912 0.89556 0.50012 0.0
C1007 C 0.99049 0.90537 0.43231 0.0
C1008 C 0.95326 0.89741 0.49565 0.0
C1009 C 0.98803 0.9067 0.56772 0.0
C1010 C 0.99838 0.89099 0.61194 0.0
C1011 C 0.00849 0.8973 0.67635 0.0
C1012 C 0.00798 0.92017 0.69611 0.0
C1013 C 0.99747 0.93669 0.65193 0.0
C1014 C 0.9873 0.92967 0.58684 0.0
H1015 H 0.65907 0.97855 0.45671 0.0
H1016 H 0.68855 0.04325 0.5128 0.0
H1017 H 0.65395 0.05289 0.58034 0.0
H1018 H 0.60338 0.99931 0.42563 0.0
H1019 H 0.58946 0.97468 0.46213 0.0
H1020 H 0.61714 0.97215 0.42252 0.0
H1021 H 0.63216 0.95415 0.54037 0.0
H1022 H 0.60452 0.95662 0.58042 0.0
H1023 H 0.62865 0.96898 0.62402 0.0
H1024 H 0.61549 0.05591 0.63999 0.0
H1025 H 0.57625 0.0522 0.6847 0.0
H1026 H 0.57078 0.98679 0.58365 0.0
C1027 C 0.65837 0.99477 0.48315 0.0
C1028 C 0.67684 0.01006 0.47924 0.0
C1029 C 0.67501 0.03098 0.51566 0.0
C1030 C 0.65525 0.03676 0.55359 0.0
C1031 C 0.63734 0.02143 0.55522 0.0
C1032 C 0.63874 1.00085 0.52101 0.0
C1033 C 0.61683 0.98768 0.52917 0.0
C1034 C 0.60607 0.9832 0.45547 0.0
C1035 C 0.62078 0.96555 0.57099 0.0
C1036 C 0.60279 1.00413 0.5728 0.0
C1037 C 0.61506 0.02338 0.58805 0.0
C1038 C 0.60581 0.04086 0.6285 0.0
C1039 C 0.58354 0.03859 0.65404 0.0
C1040 C 0.57048 0.01926 0.63806 0.0
C1041 C 0.5803 1.00183 0.5966 0.0
H1042 H 0.51026 0.67307 0.41637 0.0
H1043 H 0.49584 0.71112 0.61002 0.0
H1044 H 0.49551 0.6757 0.6804 0.0
H1045 H 0.47605 0.62579 0.45633 0.0
H1046 H 0.49535 0.60515 0.42047 0.0
H1047 H 0.49535 0.63354 0.38516 0.0
H1048 H 0.53803 0.63725 0.41296 0.0
H1049 H 0.53822 0.60877 0.4478 0.0
H1050 H 0.54798 0.63171 0.50286 0.0
H1051 H 0.49403 0.6357 0.7288 0.0
H1052 H 0.49451 0.59463 0.75284 0.0
H1053 H 0.51206 0.58251 0.52961 0.0
C1054 C 0.50754 0.67411 0.47382 0.0
C1055 C 0.50292 0.69512 0.50717 0.0
C1056 C 0.49903 0.69538 0.58253 0.0
C1057 C 0.49893 0.67529 0.62323 0.0
C1058 C 0.50302 0.65492 0.58835 0.0
C1059 C 0.50757 0.6542 0.5155 0.0
C1060 C 0.51117 0.63001 0.49104 0.0
C1061 C 0.49342 0.62323 0.43493 0.0
C1062 C 0.53529 0.62675 0.46196 0.0
C1063 C 0.5077 0.61724 0.56132 0.0
C1064 C 0.5029 0.63194 0.61672 0.0
C1065 C 0.49807 0.62408 0.68596 0.0
C1066 C 0.49831 0.60066 0.69906 0.0
C1067 C 0.50353 0.58523 0.64343 0.0
C1068 C 0.50832 0.59379 0.57367 0.0
H1069 H 0.84205 0.51767 0.43026 0.0
H1070 H 0.80381 0.4762 0.58073 0.0
H1071 H 0.83657 0.47532 0.66232 0.0
H1072 H 0.89339 0.48822 0.44975 0.0
H1073 H 0.91107 0.5129 0.4418 0.0
H1074 H 0.88384 0.51244 0.39904 0.0
H1075 H 0.87237 0.54888 0.46643 0.0
H1076 H 0.89964 0.54952 0.50915 0.0
H1077 H 0.87429 0.54966 0.56309 0.0
H1078 H 0.87503 0.47638 0.72371 0.0
H1079 H 0.91504 0.48017 0.75978 0.0
H1080 H 0.92831 0.51984 0.56718 0.0
C1081 C 0.84039 0.50851 0.48054 0.0
C1082 C 0.82007 0.49708 0.49868 0.0
C1083 C 0.81885 0.48551 0.56568 0.0
C1084 C 0.83752 0.48474 0.61233 0.0
C1085 C 0.85742 0.49565 0.59167 0.0
C1086 C 0.8589 0.50744 0.52748 0.0
C1087 C 0.88251 0.51679 0.51597 0.0
C1088 C 0.89333 0.507 0.4476 0.0
C1089 C 0.88217 0.54275 0.51354 0.0
C1090 C 0.89421 0.50813 0.58312 0.0
C1091 C 0.87945 0.49609 0.62644 0.0
C1092 C 0.88665 0.48595 0.69038 0.0
C1093 C 0.90945 0.48818 0.71045 0.0
C1094 C 0.92492 0.50037 0.6666 0.0
C1095 C 0.917 0.5105 0.60226 0.0
loop_
_geom_bond_atom_site_label_1
_geom_bond_atom_site_label_2
_geom_bond_distance
_geom_bond_site_symmetry_2
_ccdc_geom_bond_type
C0 C1 1.384 . S
C0 H13 0.947 . S
C0 C35 1.382 . S
C1 C0 1.384 . S
C1 C2 1.378 . S
C2 C1 1.378 . S
C2 C3 1.378 . S
C2 H14 0.952 . S
C3 C2 1.378 . S
C3 H15 0.950 . S
C3 C34 1.383 . S
H4 C23 0.947 . S
H5 C24 0.946 . S
H6 C26 0.953 . S
H7 C27 0.945 . S
H8 C29 0.952 . S
H9 C30 0.949 . S
H10 C32 0.950 . S
H11 C33 0.948 . S
H12 C35 0.951 . S
H13 C0 0.947 . S
H14 C2 0.952 . S
H15 C3 0.950 . S
N16 C19 1.382 . S
N16 C21 1.363 . S
N17 C19 1.371 . S
N17 C20 1.372 . S
N18 C20 1.361 . S
N18 C21 1.377 . S
C19 N16 1.382 . S
C19 N17 1.371 . S
C19 C22 1.480 . S
C20 N17 1.372 . S
C20 N18 1.361 . S
C20 C28 1.457 . S
C21 N16 1.363 . S
C21 N18 1.377 . S
C21 C34 1.479 . S
C22 C19 1.480 . S
C22 C23 1.383 . S
C22 C27 1.385 . S
C23 H4 0.947 . S
C23 C22 1.383 . S
C23 C24 1.388 . S
C24 H5 0.946 . S
C24 C23 1.388 . S
C24 C25 1.384 . S
C25 C24 1.384 . S
C25 C26 1.377 . S
C26 H6 0.953 . S
C26 C25 1.377 . S
C26 C27 1.369 . S
C27 H7 0.945 . S
C27 C22 1.385 . S
C27 C26 1.369 . S
C28 C20 1.457 . S
C28 C29 1.372 . S
C28 C33 1.364 . S
C29 H8 0.952 . S
C29 C28 1.372 . S
C29 C30 1.389 . S
C30 H9 0.949 . S
C30 C29 1.389 . S
C30 C31 1.387 . S
C31 C30 1.387 . S
C31 C32 1.372 . S
C32 H10 0.950 . S
C32 C31 1.372 . S
C32 C33 1.379 . S
C33 H11 0.948 . S
C33 C28 1.364 . S
C33 C32 1.379 . S
C34 C3 1.383 . S
C34 C21 1.479 . S
C34 C35 1.398 . S
C35 C0 1.382 . S
C35 H12 0.951 . S
C35 C34 1.398 . S
C36 C37 1.384 1_655 S
C36 H49 0.948 . S
C36 C71 1.382 1_655 S
C37 C36 1.384 1_455 S
C37 C38 1.378 . S
C38 C37 1.378 . S
C38 C39 1.378 . S
C38 H50 0.952 . S
C39 C38 1.378 . S
C39 H51 0.950 . S
C39 C70 1.383 . S
H40 C59 0.947 . S
H41 C60 0.952 . S
H42 C62 0.953 . S
H43 C63 0.945 . S
H44 C65 0.949 1_655 S
H45 C66 0.956 . S
H46 C68 0.950 . S
H47 C69 0.948 . S
H48 C71 0.951 1_655 S
H49 C36 0.948 . S
H50 C38 0.952 . S
H51 C39 0.950 . S
N52 C55 1.382 . S
N52 C57 1.363 . S
N53 C55 1.371 . S
N53 C56 1.372 . S
N54 C56 1.361 . S
N54 C57 1.377 . S
C55 N52 1.382 . S
C55 N53 1.371 . S
C55 C58 1.480 . S
C56 N53 1.372 . S
C56 N54 1.361 . S
C56 C64 1.457 . S
C57 N52 1.363 . S
C57 N54 1.377 . S
C57 C70 1.479 . S
C58 C55 1.480 . S
C58 C59 1.383 . S
C58 C63 1.385 . S
C59 H40 0.947 . S
C59 C58 1.383 . S
C59 C60 1.386 1_455 S
C60 H41 0.952 . S
C60 C59 1.386 1_655 S
C60 C61 1.381 1_655 S
C61 C60 1.381 1_455 S
C61 C62 1.377 . S
C62 H42 0.953 . S
C62 C61 1.377 . S
C62 C63 1.369 . S
C63 H43 0.945 . S
C63 C58 1.385 . S
C63 C62 1.369 . S
C64 C56 1.457 . S
C64 C65 1.376 . S
C64 C69 1.364 . S
C65 H44 0.949 1_455 S
C65 C64 1.376 . S
C65 C66 1.386 1_455 S
C66 H45 0.956 . S
C66 C65 1.386 1_655 S
C66 C67 1.383 1_655 S
C67 C66 1.383 1_455 S
C67 C68 1.372 . S
C68 H46 0.950 . S
C68 C67 1.372 . S
C68 C69 1.379 . S
C69 H47 0.948 . S
C69 C64 1.364 . S
C69 C68 1.379 . S
C70 C39 1.383 . S
C70 C57 1.479 . S
C70 C71 1.398 . S
C71 C36 1.382 1_455 S
C71 H48 0.951 1_455 S
C71 C70 1.398 . S
C72 C73 1.384 1_565 S
C72 H85 0.948 . S
C72 C107 1.382 1_565 S
C73 C72 1.384 1_545 S
C73 C74 1.378 . S
C74 C73 1.378 . S
C74 C75 1.378 . S
C74 H86 0.952 . S
C75 C74 1.378 . S
C75 H87 0.950 . S
C75 C106 1.383 . S
H76 C95 0.947 . S
H77 C96 0.952 . S
H78 C98 0.953 . S
H79 C99 0.945 . S
H80 C101 0.949 1_565 S
H81 C102 0.957 . S
H82 C104 0.950 . S
H83 C105 0.948 . S
H84 C107 0.951 1_565 S
H85 C72 0.948 . S
H86 C74 0.952 . S
H87 C75 0.950 . S
N88 C91 1.382 . S
N88 C93 1.363 . S
N89 C91 1.371 . S
N89 C92 1.372 . S
N90 C92 1.361 . S
N90 C93 1.377 . S
C91 N88 1.382 . S
C91 N89 1.371 . S
C91 C94 1.480 . S
C92 N89 1.372 . S
C92 N90 1.361 . S
C92 C100 1.457 . S
C93 N88 1.363 . S
C93 N90 1.377 . S
C93 C106 1.479 . S
C94 C91 1.480 . S
C94 C95 1.383 . S
C94 C99 1.385 . S
C95 H76 0.947 . S
C95 C94 1.383 . S
C95 C96 1.386 1_545 S
C96 H77 0.952 . S
C96 C95 1.386 1_565 S
C96 C97 1.382 1_565 S
C97 C96 1.382 1_545 S
C97 C98 1.377 . S
C98 H78 0.953 . S
C98 C97 1.377 . S
C98 C99 1.369 . S
C99 H79 0.945 . S
C99 C94 1.385 . S
C99 C98 1.369 . S
C100 C92 1.457 . S
C100 C101 1.376 . S
C100 C105 1.364 . S
C101 H80 0.949 1_545 S
C101 C100 1.376 . S
C101 C102 1.386 1_545 S
C102 H81 0.957 . S
C102 C101 1.386 1_565 S
C102 C103 1.383 1_565 S
C103 C102 1.383 1_545 S
C103 C104 1.372 . S
C104 H82 0.950 . S
C104 C103 1.372 . S
C104 C105 1.379 . S
C105 H83 0.948 . S
C105 C100 1.364 . S
C105 C104 1.379 . S
C106 C75 1.383 . S
C106 C93 1.479 . S
C106 C107 1.398 . S
C107 C72 1.382 1_545 S
C107 H84 0.951 1_545 S
C107 C106 1.398 . S
C108 C109 1.384 . S
C108 H121 0.947 . S
C108 C143 1.382 . S
C109 C108 1.384 . S
C109 C110 1.378 . S
C110 C109 1.378 . S
C110 C111 1.378 . S
C110 H122 0.952 . S
C111 C110 1.378 . S
C111 H123 0.950 . S
C111 C142 1.383 . S
H112 C131 0.947 . S
H113 C132 0.946 . S
H114 C134 0.953 . S
H115 C135 0.945 . S
H116 C137 0.952 . S
H117 C138 0.949 . S
H118 C140 0.950 . S
H119 C141 0.948 . S
H120 C143 0.951 . S
H121 C108 0.947 . S
H122 C110 0.952 . S
H123 C111 0.950 . S
N124 C127 1.382 . S
N124 C129 1.363 . S
N125 C127 1.371 . S
N125 C128 1.372 . S
N126 C128 1.361 . S
N126 C129 1.377 . S
C127 N124 1.382 . S
C127 N125 1.371 . S
C127 C130 1.480 . S
C128 N125 1.372 . S
C128 N126 1.361 . S
C128 C136 1.457 . S
C129 N124 1.363 . S
C129 N126 1.377 . S
C129 C142 1.479 . S
C130 C127 1.480 . S
C130 C131 1.383 . S
C130 C135 1.385 . S
C131 H112 0.947 . S
C131 C130 1.383 . S
C131 C132 1.388 . S
C132 H113 0.946 . S
C132 C131 1.388 . S
C132 C133 1.384 . S
C133 C132 1.384 . S
C133 C134 1.377 . S
C134 H114 0.953 . S
C134 C133 1.377 . S
C134 C135 1.369 . S
C135 H115 0.945 . S
C135 C130 1.385 . S
C135 C134 1.369 . S
C136 C128 1.457 . S
C136 C137 1.372 . S
C136 C141 1.364 . S
C137 H116 0.952 . S
C137 C136 1.372 . S
C137 C138 1.389 . S
C138 H117 0.949 . S
C138 C137 1.389 . S
C138 C139 1.387 . S
C139 C138 1.387 . S
C139 C140 1.372 . S
C140 H118 0.950 . S
C140 C139 1.372 . S
C140 C141 1.379 . S
C141 H119 0.948 . S
C141 C136 1.364 . S
C141 C140 1.379 . S
C142 C111 1.383 . S
C142 C129 1.479 . S
C142 C143 1.398 . S
C143 C108 1.382 . S
C143 H120 0.951 . S
C143 C142 1.398 . S
C144 C145 1.384 . S
C144 H157 0.947 . S
C144 C179 1.382 . S
C145 C144 1.384 . S
C145 C146 1.378 . S
C146 C145 1.378 . S
C146 C147 1.378 . S
C146 H158 0.952 . S
C147 C146 1.378 . S
C147 H159 0.950 . S
C147 C178 1.383 . S
H148 C167 0.947 1_556 S
H149 C168 0.946 . S
H150 C170 0.953 . S
H151 C171 0.945 . S
H152 C173 0.952 . S
H153 C174 0.949 . S
H154 C176 0.950 . S
H155 C177 0.948 . S
H156 C179 0.951 . S
H157 C144 0.947 . S
H158 C146 0.952 . S
H159 C147 0.950 . S
N160 C163 1.382 . S
N160 C165 1.363 1_554 S
N161 C163 1.371 . S
N161 C164 1.372 . S
N162 C164 1.361 . S
N162 C165 1.377 1_554 S
C163 N160 1.382 . S
C163 N161 1.371 . S
C163 C166 1.480 . S
C164 N161 1.372 . S
C164 N162 1.361 . S
C164 C172 1.457 . S
C165 N160 1.363 1_556 S
C165 N162 1.377 1_556 S
C165 C178 1.479 . S
C166 C163 1.480 . S
C166 C167 1.383 . S
C166 C171 1.385 . S
C167 H148 0.947 1_554 S
C167 C166 1.383 . S
C167 C168 1.388 . S
C168 H149 0.946 . S
C168 C167 1.388 . S
C168 C169 1.384 . S
C169 C168 1.384 . S
C169 C170 1.377 . S
C170 H150 0.953 . S
C170 C169 1.377 . S
C170 C171 1.369 . S
C171 H151 0.945 . S
C171 C166 1.385 . S
C171 C170 1.369 . S
C172 C164 1.457 . S
C172 C173 1.372 . S
C172 C177 1.364 . S
C173 H152 0.952 . S
C173 C172 1.372 . S
C173 C174 1.389 . S
C174 H153 0.949 . S
C174 C173 1.389 . S
C174 C175 1.387 . S
C175 C174 1.387 . S
C175 C176 1.372 . S
C176 H154 0.950 . S
C176 C175 1.372 . S
C176 C177 1.379 . S
C177 H155 0.948 . S
C177 C172 1.364 . S
C177 C176 1.379 . S
C178 C147 1.383 . S
C178 C165 1.479 . S
C178 C179 1.398 . S
C179 C144 1.382 . S
C179 H156 0.951 . S
C179 C178 1.398 . S
C180 C181 1.384 . S
C180 H193 0.948 1_455 S
C180 C215 1.382 . S
C181 C180 1.384 . S
C181 C182 1.378 . S
C182 C181 1.378 . S
C182 C183 1.378 . S
C182 H194 0.952 . S
C183 C182 1.378 . S
C183 H195 0.950 . S
C183 C214 1.383 . S
H184 C203 0.947 1_556 S
H185 C204 0.949 . S
H186 C206 0.953 . S
H187 C207 0.945 . S
H188 C209 0.947 1_655 S
H189 C210 0.954 . S
H190 C212 0.950 . S
H191 C213 0.948 . S
H192 C215 0.950 1_655 S
H193 C180 0.948 1_655 S
H194 C182 0.952 . S
H195 C183 0.950 . S
N196 C199 1.382 . S
N196 C201 1.363 1_554 S
N197 C199 1.371 . S
N197 C200 1.372 . S
N198 C200 1.361 . S
N198 C201 1.377 1_554 S
C199 N196 1.382 . S
C199 N197 1.371 . S
C199 C202 1.480 . S
C200 N197 1.372 . S
C200 N198 1.361 . S
C200 C208 1.457 . S
C201 N196 1.363 1_556 S
C201 N198 1.377 1_556 S
C201 C214 1.479 . S
C202 C199 1.480 . S
C202 C203 1.383 . S
C202 C207 1.385 . S
C203 H184 0.947 1_554 S
C203 C202 1.383 . S
C203 C204 1.387 1_455 S
C204 H185 0.949 . S
C204 C203 1.387 1_655 S
C204 C205 1.382 1_655 S
C205 C204 1.382 1_455 S
C205 C206 1.377 . S
C206 H186 0.953 . S
C206 C205 1.377 . S
C206 C207 1.369 . S
C207 H187 0.945 . S
C207 C202 1.385 . S
C207 C206 1.369 . S
C208 C200 1.457 . S
C208 C209 1.379 . S
C208 C213 1.364 . S
C209 H188 0.947 1_455 S
C209 C208 1.379 . S
C209 C210 1.387 1_455 S
C210 H189 0.954 . S
C210 C209 1.387 1_655 S
C210 C211 1.384 1_655 S
C211 C210 1.384 1_455 S
C211 C212 1.372 . S
C212 H190 0.950 . S
C212 C211 1.372 . S
C212 C213 1.379 . S
C213 H191 0.948 . S
C213 C208 1.364 . S
C213 C212 1.379 . S
C214 C183 1.383 . S
C214 C201 1.479 . S
C214 C215 1.399 . S
C215 C180 1.382 . S
C215 H192 0.950 1_455 S
C215 C214 1.399 . S
C216 C217 1.384 . S
C216 H229 0.948 1_545 S
C216 C251 1.382 . S
C217 C216 1.384 . S
C217 C218 1.378 . S
C218 C217 1.378 . S
C218 C219 1.378 . S
C218 H230 0.952 . S
C219 C218 1.378 . S
C219 H231 0.950 . S
C219 C250 1.383 . S
H220 C239 0.947 1_556 S
H221 C240 0.949 . S
H222 C242 0.953 . S
H223 C243 0.945 . S
H224 C245 0.948 1_565 S
H225 C246 0.954 . S
H226 C248 0.950 . S
H227 C249 0.948 . S
H228 C251 0.950 1_565 S
H229 C216 0.948 1_565 S
H230 C218 0.952 . S
H231 C219 0.950 . S
N232 C235 1.382 . S
N232 C237 1.363 1_554 S
N233 C235 1.371 . S
N233 C236 1.372 . S
N234 C236 1.361 . S
N234 C237 1.377 1_554 S
C235 N232 1.382 . S
C235 N233 1.371 . S
C235 C238 1.480 . S
C236 N233 1.372 . S
C236 N234 1.361 . S
C236 C244 1.457 . S
C237 N232 1.363 1_556 S
C237 N234 1.377 1_556 S
C237 C250 1.479 . S
C238 C235 1.480 . S
C238 C239 1.383 . S
C238 C243 1.385 . S
C239 H220 0.947 1_554 S
C239 C238 1.383 . S
C239 C240 1.387 1_545 S
C240 H221 0.949 . S
C240 C239 1.387 1_565 S
C240 C241 1.382 1_565 S
C241 C240 1.382 1_545 S
C241 C242 1.377 . S
C242 H222 0.953 . S
C242 C241 1.377 . S
C242 C243 1.369 . S
C243 H223 0.945 . S
C243 C238 1.385 . S
C243 C242 1.369 . S
C244 C236 1.457 . S
C244 C245 1.379 . S
C244 C249 1.364 . S
C245 H224 0.948 1_545 S
C245 C244 1.379 . S
C245 C246 1.387 1_545 S
C246 H225 0.954 . S
C246 C245 1.387 1_565 S
C246 C247 1.384 1_565 S
C247 C246 1.384 1_545 S
C247 C248 1.372 . S
C248 H226 0.950 . S
C248 C247 1.372 . S
C248 C249 1.379 . S
C249 H227 0.948 . S
C249 C244 1.364 . S
C249 C248 1.379 . S
C250 C219 1.383 . S
C250 C237 1.479 . S
C250 C251 1.399 . S
C251 C216 1.382 . S
C251 H228 0.950 1_545 S
C251 C250 1.399 . S
C252 C253 1.384 . S
C252 H265 0.947 . S
C252 C287 1.382 . S
C253 C252 1.384 . S
C253 C254 1.378 . S
C254 C253 1.378 . S
C254 C255 1.378 . S
C254 H266 0.952 . S
C255 C254 1.378 . S
C255 H267 0.950 . S
C255 C286 1.383 . S
H256 C275 0.947 . S
H257 C276 0.946 . S
H258 C278 0.953 . S
H259 C279 0.945 1_556 S
H260 C281 0.952 . S
H261 C282 0.949 . S
H262 C284 0.950 . S
H263 C285 0.948 . S
H264 C287 0.951 . S
H265 C252 0.947 . S
H266 C254 0.952 . S
H267 C255 0.950 . S
N268 C271 1.382 . S
N268 C273 1.363 . S
N269 C271 1.371 1_556 S
N269 C272 1.372 . S
N270 C272 1.361 1_554 S
N270 C273 1.377 . S
C271 N268 1.382 . S
C271 N269 1.371 1_554 S
C271 C274 1.480 . S
C272 N269 1.372 . S
C272 N270 1.361 1_556 S
C272 C280 1.457 . S
C273 N268 1.363 . S
C273 N270 1.377 . S
C273 C286 1.479 . S
C274 C271 1.480 . S
C274 C275 1.383 . S
C274 C279 1.385 . S
C275 H256 0.947 . S
C275 C274 1.383 . S
C275 C276 1.388 . S
C276 H257 0.946 . S
C276 C275 1.388 . S
C276 C277 1.384 . S
C277 C276 1.384 . S
C277 C278 1.377 . S
C278 H258 0.953 . S
C278 C277 1.377 . S
C278 C279 1.369 . S
C279 H259 0.945 1_554 S
C279 C274 1.385 . S
C279 C278 1.369 . S
C280 C272 1.457 . S
C280 C281 1.372 . S
C280 C285 1.364 . S
C281 H260 0.952 . S
C281 C280 1.372 . S
C281 C282 1.389 . S
C282 H261 0.949 . S
C282 C281 1.389 . S
C282 C283 1.387 . S
C283 C282 1.387 . S
C283 C284 1.372 . S
C284 H262 0.950 . S
C284 C283 1.372 . S
C284 C285 1.379 . S
C285 H263 0.948 . S
C285 C280 1.364 . S
C285 C284 1.379 . S
C286 C255 1.383 . S
C286 C273 1.479 . S
C286 C287 1.398 . S
C287 C252 1.382 . S
C287 H264 0.951 . S
C287 C286 1.398 . S
Tb288 C290 2.809 . S
Tb288 O308 2.484 . S
Tb288 O309 2.440 . S
Tb288 O310 2.658 1_565 S
Tb288 O311 2.409 . S
Tb288 O312 2.378 . S
Tb288 O316 2.325 1_455 S
Tb288 O319 2.341 1_565 S
Tb289 C299 2.809 . S
Tb289 O310 2.325 1_655 S
Tb289 O313 2.341 1_545 S
Tb289 O314 2.484 . S
Tb289 O315 2.440 . S
Tb289 O316 2.658 1_545 S
Tb289 O317 2.409 . S
Tb289 O318 2.378 . S
C290 Tb288 2.809 . S
C290 C291 1.514 . S
C290 O308 1.248 . S
C290 O309 1.266 . S
C291 C290 1.514 . S
C291 C292 1.359 . S
C291 C296 1.348 . S
C292 C291 1.359 . S
C292 C293 1.380 . S
C292 H320 0.929 1_455 S
C293 C292 1.380 . S
C293 C294 1.347 . S
C293 H321 0.931 1_455 S
C294 C293 1.347 . S
C294 C295 1.369 . S
C295 C294 1.369 . S
C295 C296 1.408 . S
C295 H322 0.930 . S
C296 C291 1.348 . S
C296 C295 1.408 . S
C296 H323 0.930 . S
C297 O310 1.281 1_565 S
C297 O311 1.254 . S
C298 O312 1.236 1_655 S
C298 O313 1.266 . S
C299 Tb289 2.809 . S
C299 C300 1.514 . S
C299 O314 1.248 . S
C299 O315 1.266 . S
C300 C299 1.514 . S
C300 C301 1.359 . S
C300 C305 1.348 . S
C301 C300 1.359 . S
C301 C302 1.380 . S
C301 H324 0.929 1_655 S
C302 C301 1.380 . S
C302 C303 1.347 . S
C302 H325 0.931 1_655 S
C303 C302 1.347 . S
C303 C304 1.369 . S
C304 C303 1.369 . S
C304 C305 1.408 . S
C304 H326 0.930 . S
C305 C300 1.348 . S
C305 C304 1.408 . S
C305 H327 0.930 . S
C306 O316 1.281 1_545 S
C306 O317 1.254 . S
C307 O318 1.236 1_455 S
C307 O319 1.266 . S
O308 Tb288 2.484 . S
O308 C290 1.248 . S
O309 Tb288 2.440 . S
O309 C290 1.266 . S
O310 Tb288 2.658 1_545 S
O310 Tb289 2.325 1_455 S
O310 C297 1.281 1_545 S
O311 Tb288 2.409 . S
O311 C297 1.254 . S
O312 Tb288 2.378 . S
O312 C298 1.236 1_455 S
O313 Tb289 2.341 1_565 S
O313 C298 1.266 . S
O314 Tb289 2.484 . S
O314 C299 1.248 . S
O315 Tb289 2.440 . S
O315 C299 1.266 . S
O316 Tb288 2.325 1_655 S
O316 Tb289 2.658 1_565 S
O316 C306 1.281 1_565 S
O317 Tb289 2.409 . S
O317 C306 1.254 . S
O318 Tb289 2.378 . S
O318 C307 1.236 1_655 S
O319 Tb288 2.341 1_545 S
O319 C307 1.266 . S
H320 C292 0.929 1_655 S
H321 C293 0.931 1_655 S
H322 C295 0.930 . S
H323 C296 0.930 . S
H324 C301 0.929 1_455 S
H325 C302 0.931 1_455 S
H326 C304 0.930 . S
H327 C305 0.930 . S
Tb328 C330 2.809 . S
Tb328 O348 2.484 . S
Tb328 O349 2.440 . S
Tb328 O350 2.658 . S
Tb328 O351 2.409 . S
Tb328 O352 2.378 . S
Tb328 O356 2.325 1_545 S
Tb328 O359 2.341 . S
Tb329 C339 2.809 . S
Tb329 O350 2.325 1_565 S
Tb329 O353 2.341 . S
Tb329 O354 2.484 . S
Tb329 O355 2.440 . S
Tb329 O356 2.658 . S
Tb329 O357 2.409 . S
Tb329 O358 2.378 . S
C330 Tb328 2.809 . S
C330 C331 1.514 . S
C330 O348 1.248 . S
C330 O349 1.266 . S
C331 C330 1.514 . S
C331 C332 1.359 . S
C331 C336 1.348 . S
C332 C331 1.359 . S
C332 C333 1.380 . S
C332 H360 0.929 1_545 S
C333 C332 1.380 . S
C333 C334 1.347 . S
C333 H361 0.931 1_545 S
C334 C333 1.347 . S
C334 C335 1.369 . S
C335 C334 1.369 . S
C335 C336 1.408 . S
C335 H362 0.930 . S
C336 C331 1.348 . S
C336 C335 1.408 . S
C336 H363 0.930 . S
C337 O350 1.281 . S
C337 O351 1.254 . S
C338 O352 1.236 1_565 S
C338 O353 1.266 . S
C339 Tb329 2.809 . S
C339 C340 1.514 . S
C339 O354 1.248 . S
C339 O355 1.266 . S
C340 C339 1.514 . S
C340 C341 1.359 . S
C340 C345 1.348 . S
C341 C340 1.359 . S
C341 C342 1.380 . S
C341 H364 0.929 1_565 S
C342 C341 1.380 . S
C342 C343 1.347 . S
C342 H365 0.931 1_565 S
C343 C342 1.347 . S
C343 C344 1.369 . S
C344 C343 1.369 . S
C344 C345 1.408 . S
C344 H366 0.930 . S
C345 C340 1.348 . S
C345 C344 1.408 . S
C345 H367 0.930 . S
C346 O356 1.281 . S
C346 O357 1.254 . S
C347 O358 1.236 1_545 S
C347 O359 1.266 . S
O348 Tb328 2.484 . S
O348 C330 1.248 . S
O349 Tb328 2.440 . S
O349 C330 1.266 . S
O350 Tb328 2.658 . S
O350 Tb329 2.325 1_545 S
O350 C337 1.281 . S
O351 Tb328 2.409 . S
O351 C337 1.254 . S
O352 Tb328 2.378 . S
O352 C338 1.236 1_545 S
O353 Tb329 2.341 . S
O353 C338 1.266 . S
O354 Tb329 2.484 . S
O354 C339 1.248 . S
O355 Tb329 2.440 . S
O355 C339 1.266 . S
O356 Tb328 2.325 1_565 S
O356 Tb329 2.658 . S
O356 C346 1.281 . S
O357 Tb329 2.409 . S
O357 C346 1.254 . S
O358 Tb329 2.378 . S
O358 C347 1.236 1_565 S
O359 Tb328 2.341 . S
O359 C347 1.266 . S
H360 C332 0.929 1_565 S
H361 C333 0.931 1_565 S
H362 C335 0.930 . S
H363 C336 0.930 . S
H364 C341 0.929 1_545 S
H365 C342 0.931 1_545 S
H366 C344 0.930 . S
H367 C345 0.930 . S
Tb368 C370 2.809 . S
Tb368 O388 2.484 . S
Tb368 O389 2.440 . S
Tb368 O390 2.658 . S
Tb368 O391 2.409 . S
Tb368 O392 2.378 . S
Tb368 O396 2.325 . S
Tb368 O399 2.341 . S
Tb369 C379 2.809 . S
Tb369 O390 2.325 . S
Tb369 O393 2.341 . S
Tb369 O394 2.484 . S
Tb369 O395 2.440 . S
Tb369 O396 2.658 . S
Tb369 O397 2.409 . S
Tb369 O398 2.378 . S
C370 Tb368 2.809 . S
C370 C371 1.514 . S
C370 O388 1.248 . S
C370 O389 1.266 . S
C371 C370 1.514 . S
C371 C372 1.359 . S
C371 C376 1.348 . S
C372 C371 1.359 . S
C372 C373 1.380 . S
C372 H400 0.929 . S
C373 C372 1.380 . S
C373 C374 1.347 . S
C373 H401 0.931 . S
C374 C373 1.347 . S
C374 C375 1.369 . S
C375 C374 1.369 . S
C375 C376 1.408 . S
C375 H402 0.930 . S
C376 C371 1.348 . S
C376 C375 1.408 . S
C376 H403 0.930 . S
C377 O390 1.281 . S
C377 O391 1.254 . S
C378 O392 1.236 . S
C378 O393 1.266 . S
C379 Tb369 2.809 . S
C379 C380 1.514 . S
C379 O394 1.248 . S
C379 O395 1.266 . S
C380 C379 1.514 . S
C380 C381 1.359 . S
C380 C385 1.348 . S
C381 C380 1.359 . S
C381 C382 1.380 . S
C381 H404 0.929 . S
C382 C381 1.380 . S
C382 C383 1.347 . S
C382 H405 0.931 . S
C383 C382 1.347 . S
C383 C384 1.369 . S
C384 C383 1.369 . S
C384 C385 1.408 . S
C384 H406 0.930 . S
C385 C380 1.348 . S
C385 C384 1.408 . S
C385 H407 0.930 . S
C386 O396 1.281 . S
C386 O397 1.254 . S
C387 O398 1.236 . S
C387 O399 1.266 . S
O388 Tb368 2.484 . S
O388 C370 1.248 . S
O389 Tb368 2.440 . S
O389 C370 1.266 . S
O390 Tb368 2.658 . S
O390 Tb369 2.325 . S
O390 C377 1.281 . S
O391 Tb368 2.409 . S
O391 C377 1.254 . S
O392 Tb368 2.378 . S
O392 C378 1.236 . S
O393 Tb369 2.341 . S
O393 C378 1.266 . S
O394 Tb369 2.484 . S
O394 C379 1.248 . S
O395 Tb369 2.440 . S
O395 C379 1.266 . S
O396 Tb368 2.325 . S
O396 Tb369 2.658 . S
O396 C386 1.281 . S
O397 Tb369 2.409 . S
O397 C386 1.254 . S
O398 Tb369 2.378 . S
O398 C387 1.236 . S
O399 Tb368 2.341 . S
O399 C387 1.266 . S
H400 C372 0.929 . S
H401 C373 0.931 . S
H402 C375 0.930 . S
H403 C376 0.930 . S
H404 C381 0.929 . S
H405 C382 0.931 . S
H406 C384 0.930 . S
H407 C385 0.930 . S
Tb408 C410 2.809 . S
Tb408 O428 2.484 . S
Tb408 O429 2.440 . S
Tb408 O430 2.658 1_655 S
Tb408 O431 2.409 . S
Tb408 O432 2.378 . S
Tb408 O436 2.325 . S
Tb408 O439 2.341 1_655 S
Tb409 C419 2.809 . S
Tb409 O430 2.325 . S
Tb409 O433 2.341 1_455 S
Tb409 O434 2.484 . S
Tb409 O435 2.440 . S
Tb409 O436 2.658 1_455 S
Tb409 O437 2.409 . S
Tb409 O438 2.378 . S
C410 Tb408 2.809 . S
C410 C411 1.514 . S
C410 O428 1.248 . S
C410 O429 1.266 . S
C411 C410 1.514 . S
C411 C412 1.359 . S
C411 C416 1.348 . S
C412 C411 1.359 . S
C412 C413 1.380 . S
C412 H440 0.929 . S
C413 C412 1.380 . S
C413 C414 1.347 . S
C413 H441 0.931 . S
C414 C413 1.347 . S
C414 C415 1.369 . S
C415 C414 1.369 . S
C415 C416 1.408 . S
C415 H442 0.930 . S
C416 C411 1.348 . S
C416 C415 1.408 . S
C416 H443 0.930 . S
C417 O430 1.276 1_655 S
C417 O431 1.260 . S
C418 O432 1.236 . S
C418 O433 1.266 . S
C419 Tb409 2.809 . S
C419 C420 1.514 . S
C419 O434 1.248 . S
C419 O435 1.266 . S
C420 C419 1.514 . S
C420 C421 1.359 . S
C420 C425 1.348 . S
C421 C420 1.359 . S
C421 C422 1.380 . S
C421 H444 0.929 . S
C422 C421 1.380 . S
C422 C423 1.347 . S
C422 H445 0.931 . S
C423 C422 1.347 . S
C423 C424 1.369 . S
C424 C423 1.369 . S
C424 C425 1.408 . S
C424 H446 0.930 . S
C425 C420 1.348 . S
C425 C424 1.408 . S
C425 H447 0.930 . S
C426 O436 1.272 1_455 S
C426 O437 1.266 . S
C427 O438 1.236 . S
C427 O439 1.266 . S
O428 Tb408 2.484 . S
O428 C410 1.248 . S
O429 Tb408 2.440 . S
O429 C410 1.266 . S
O430 Tb408 2.658 1_455 S
O430 Tb409 2.325 . S
O430 C417 1.276 1_455 S
O431 Tb408 2.409 . S
O431 C417 1.260 . S
O432 Tb408 2.378 . S
O432 C418 1.236 . S
O433 Tb409 2.341 1_655 S
O433 C418 1.266 . S
O434 Tb409 2.484 . S
O434 C419 1.248 . S
O435 Tb409 2.440 . S
O435 C419 1.266 . S
O436 Tb408 2.325 . S
O436 Tb409 2.658 1_655 S
O436 C426 1.272 1_655 S
O437 Tb409 2.409 . S
O437 C426 1.266 . S
O438 Tb409 2.378 . S
O438 C427 1.236 . S
O439 Tb408 2.341 1_455 S
O439 C427 1.266 . S
H440 C412 0.929 . S
H441 C413 0.931 . S
H442 C415 0.930 . S
H443 C416 0.930 . S
H444 C421 0.929 . S
H445 C422 0.931 . S
H446 C424 0.930 . S
H447 C425 0.930 . S
H448 C460 0.930 . S
H449 C462 0.930 . S
H450 C463 0.930 . S
H451 C467 0.958 . S
H452 C467 0.959 . S
H453 C467 0.961 . S
H454 C468 0.960 . S
H455 C468 0.961 . S
H456 C468 0.959 . S
H457 C471 0.929 . S
H458 C472 0.931 . S
H459 C474 0.930 . S
C460 H448 0.930 . S
C460 C461 1.391 1_545 S
C460 C465 1.399 . S
C461 C460 1.391 1_565 S
C461 C462 1.387 . S
C462 H449 0.930 . S
C462 C461 1.387 . S
C462 C463 1.388 . S
C463 H450 0.930 . S
C463 C462 1.388 . S
C463 C464 1.390 . S
C464 C463 1.390 . S
C464 C465 1.394 1_565 S
C464 C470 1.465 . S
C465 C460 1.399 . S
C465 C464 1.394 1_545 S
C465 C466 1.516 . S
C466 C465 1.516 . S
C466 C467 1.502 . S
C466 C468 1.561 . S
C466 C469 1.526 . S
C467 H451 0.958 . S
C467 H452 0.959 . S
C467 H453 0.961 . S
C467 C466 1.502 . S
C468 H454 0.960 . S
C468 H455 0.961 . S
C468 H456 0.959 . S
C468 C466 1.561 . S
C469 C466 1.526 . S
C469 C470 1.396 1_545 S
C469 C474 1.390 . S
C470 C464 1.465 . S
C470 C469 1.396 1_565 S
C470 C471 1.399 . S
C471 H457 0.929 . S
C471 C470 1.399 . S
C471 C472 1.385 . S
C472 H458 0.931 . S
C472 C471 1.385 . S
C472 C473 1.417 . S
C473 C472 1.417 . S
C473 C474 1.364 1_565 S
C474 H459 0.930 . S
C474 C469 1.390 . S
C474 C473 1.364 1_545 S
H475 C487 0.930 . S
H476 C489 0.930 . S
H477 C490 0.930 . S
H478 C494 0.959 . S
H479 C494 0.959 . S
H480 C494 0.961 . S
H481 C495 0.960 . S
H482 C495 0.961 . S
H483 C495 0.959 . S
H484 C498 0.929 . S
H485 C499 0.931 . S
H486 C501 0.930 . S
C487 H475 0.930 . S
C487 C488 1.399 . S
C487 C492 1.399 . S
C488 C487 1.399 . S
C488 C489 1.376 . S
C489 H476 0.930 . S
C489 C488 1.376 . S
C489 C490 1.388 . S
C490 H477 0.930 . S
C490 C489 1.388 . S
C490 C491 1.390 . S
C491 C490 1.390 . S
C491 C492 1.394 . S
C491 C497 1.465 . S
C492 C487 1.399 . S
C492 C491 1.394 . S
C492 C493 1.516 . S
C493 C492 1.516 . S
C493 C494 1.502 . S
C493 C495 1.561 . S
C493 C496 1.526 . S
C494 H478 0.959 . S
C494 H479 0.959 . S
C494 H480 0.961 . S
C494 C493 1.502 . S
C495 H481 0.960 . S
C495 H482 0.961 . S
C495 H483 0.959 . S
C495 C493 1.561 . S
C496 C493 1.526 . S
C496 C497 1.396 . S
C496 C501 1.390 . S
C497 C491 1.465 . S
C497 C496 1.396 . S
C497 C498 1.399 . S
C498 H484 0.929 . S
C498 C497 1.399 . S
C498 C499 1.385 . S
C499 H485 0.931 . S
C499 C498 1.385 . S
C499 C500 1.389 . S
C500 C499 1.389 . S
C500 C501 1.387 . S
C501 H486 0.930 . S
C501 C496 1.390 . S
C501 C500 1.387 . S
H502 C514 0.930 . S
H503 C516 0.930 . S
H504 C517 0.930 . S
H505 C521 0.959 . S
H506 C521 0.959 . S
H507 C521 0.961 . S
H508 C522 0.960 . S
H509 C522 0.961 . S
H510 C522 0.959 . S
H511 C525 0.929 . S
H512 C526 0.931 . S
H513 C528 0.930 . S
C514 H502 0.930 . S
C514 C515 1.399 . S
C514 C519 1.399 . S
C515 C514 1.399 . S
C515 C516 1.376 . S
C516 H503 0.930 . S
C516 C515 1.376 . S
C516 C517 1.388 . S
C517 H504 0.930 . S
C517 C516 1.388 . S
C517 C518 1.390 . S
C518 C517 1.390 . S
C518 C519 1.394 . S
C518 C524 1.465 . S
C519 C514 1.399 . S
C519 C518 1.394 . S
C519 C520 1.516 . S
C520 C519 1.516 . S
C520 C521 1.502 . S
C520 C522 1.561 . S
C520 C523 1.526 . S
C521 H505 0.959 . S
C521 H506 0.959 . S
C521 H507 0.961 . S
C521 C520 1.502 . S
C522 H508 0.960 . S
C522 H509 0.961 . S
C522 H510 0.959 . S
C522 C520 1.561 . S
C523 C520 1.526 . S
C523 C524 1.396 . S
C523 C528 1.390 . S
C524 C518 1.465 . S
C524 C523 1.396 . S
C524 C525 1.399 . S
C525 H511 0.929 . S
C525 C524 1.399 . S
C525 C526 1.385 . S
C526 H512 0.931 . S
C526 C525 1.385 . S
C526 C527 1.389 . S
C527 C526 1.389 . S
C527 C528 1.387 . S
C528 H513 0.930 . S
C528 C523 1.390 . S
C528 C527 1.387 . S
H529 C541 0.930 . S
H530 C543 0.930 . S
H531 C544 0.930 . S
H532 C548 0.959 . S
H533 C548 0.959 . S
H534 C548 0.961 . S
H535 C549 0.960 . S
H536 C549 0.961 . S
H537 C549 0.959 . S
H538 C552 0.929 . S
H539 C553 0.931 . S
H540 C555 0.930 . S
C541 H529 0.930 . S
C541 C542 1.399 1_655 S
C541 C546 1.399 . S
C542 C541 1.399 1_455 S
C542 C543 1.376 . S
C543 H530 0.930 . S
C543 C542 1.376 . S
C543 C544 1.388 . S
C544 H531 0.930 . S
C544 C543 1.388 . S
C544 C545 1.390 . S
C545 C544 1.390 . S
C545 C546 1.394 1_455 S
C545 C551 1.465 . S
C546 C541 1.399 . S
C546 C545 1.394 1_655 S
C546 C547 1.516 . S
C547 C546 1.516 . S
C547 C548 1.502 . S
C547 C549 1.561 1_655 S
C547 C550 1.526 . S
C548 H532 0.959 . S
C548 H533 0.959 . S
C548 H534 0.961 . S
C548 C547 1.502 . S
C549 H535 0.960 . S
C549 H536 0.961 . S
C549 H537 0.959 . S
C549 C547 1.561 1_455 S
C550 C547 1.526 . S
C550 C551 1.396 1_655 S
C550 C555 1.390 . S
C551 C545 1.465 . S
C551 C550 1.396 1_455 S
C551 C552 1.399 . S
C552 H538 0.929 . S
C552 C551 1.399 . S
C552 C553 1.385 . S
C553 H539 0.931 . S
C553 C552 1.385 . S
C553 C554 1.389 . S
C554 C553 1.389 . S
C554 C555 1.387 1_455 S
C555 H540 0.930 . S
C555 C550 1.390 . S
C555 C554 1.387 1_655 S
H556 C568 0.930 . S
H557 C570 0.930 . S
H558 C571 0.930 . S
H559 C575 0.959 1_556 S
H560 C575 0.959 1_556 S
H561 C575 0.961 . S
H562 C576 0.960 . S
H563 C576 0.961 . S
H564 C576 0.959 . S
H565 C579 0.929 . S
H566 C580 0.931 . S
H567 C582 0.930 . S
C568 H556 0.930 . S
C568 C569 1.399 1_545 S
C568 C573 1.399 . S
C569 C568 1.399 1_565 S
C569 C570 1.376 . S
C570 H557 0.930 . S
C570 C569 1.376 . S
C570 C571 1.388 . S
C571 H558 0.930 . S
C571 C570 1.388 . S
C571 C572 1.390 . S
C572 C571 1.390 . S
C572 C573 1.394 1_565 S
C572 C578 1.465 . S
C573 C568 1.399 . S
C573 C572 1.394 1_545 S
C573 C574 1.516 . S
C574 C573 1.516 . S
C574 C575 1.502 . S
C574 C576 1.561 . S
C574 C577 1.526 1_554 S
C575 H559 0.959 1_554 S
C575 H560 0.959 1_554 S
C575 H561 0.961 . S
C575 C574 1.502 . S
C576 H562 0.960 . S
C576 H563 0.961 . S
C576 H564 0.959 . S
C576 C574 1.561 . S
C577 C574 1.526 1_556 S
C577 C578 1.396 1_546 S
C577 C582 1.390 . S
C578 C572 1.465 . S
C578 C577 1.396 1_564 S
C578 C579 1.399 1_554 S
C579 H565 0.929 . S
C579 C578 1.399 1_556 S
C579 C580 1.385 . S
C580 H566 0.931 . S
C580 C579 1.385 . S
C580 C581 1.389 . S
C581 C580 1.389 . S
C581 C582 1.387 1_565 S
C582 H567 0.930 . S
C582 C577 1.390 . S
C582 C581 1.387 1_545 S
H583 C595 0.930 . S
H584 C597 0.930 . S
H585 C598 0.930 . S
H586 C602 0.959 . S
H587 C602 0.959 1_556 S
H588 C602 0.961 . S
H589 C603 0.960 1_554 S
H590 C603 0.961 . S
H591 C603 0.959 . S
H592 C606 0.929 1_554 S
H593 C607 0.931 . S
H594 C609 0.930 . S
C595 H583 0.930 . S
C595 C596 1.399 . S
C595 C600 1.399 . S
C596 C595 1.399 . S
C596 C597 1.376 . S
C597 H584 0.930 . S
C597 C596 1.376 . S
C597 C598 1.388 . S
C598 H585 0.930 . S
C598 C597 1.388 . S
C598 C599 1.390 . S
C599 C598 1.390 . S
C599 C600 1.394 . S
C599 C605 1.465 . S
C600 C595 1.399 . S
C600 C599 1.394 . S
C600 C601 1.516 . S
C601 C600 1.516 . S
C601 C602 1.502 . S
C601 C603 1.561 1_554 S
C601 C604 1.526 1_554 S
C602 H586 0.959 . S
C602 H587 0.959 1_554 S
C602 H588 0.961 . S
C602 C601 1.502 . S
C603 H589 0.960 1_556 S
C603 H590 0.961 . S
C603 H591 0.959 . S
C603 C601 1.561 1_556 S
C604 C601 1.526 1_556 S
C604 C605 1.396 1_556 S
C604 C609 1.390 . S
C605 C599 1.465 . S
C605 C604 1.396 1_554 S
C605 C606 1.399 1_554 S
C606 H592 0.929 1_556 S
C606 C605 1.399 1_556 S
C606 C607 1.385 . S
C607 H593 0.931 . S
C607 C606 1.385 . S
C607 C608 1.389 . S
C608 C607 1.389 . S
C608 C609 1.387 . S
C609 H594 0.930 . S
C609 C604 1.390 . S
C609 C608 1.387 . S
H610 C622 0.930 . S
H611 C624 0.930 . S
H612 C625 0.930 . S
H613 C629 0.959 . S
H614 C629 0.959 . S
H615 C629 0.961 . S
H616 C630 0.960 . S
H617 C630 0.961 . S
H618 C630 0.959 . S
H619 C633 0.929 . S
H620 C634 0.931 . S
H621 C636 0.930 . S
C622 H610 0.930 . S
C622 C623 1.399 . S
C622 C627 1.399 . S
C623 C622 1.399 . S
C623 C624 1.376 . S
C624 H611 0.930 . S
C624 C623 1.376 . S
C624 C625 1.388 . S
C625 H612 0.930 . S
C625 C624 1.388 . S
C625 C626 1.390 . S
C626 C625 1.390 . S
C626 C627 1.394 . S
C626 C632 1.469 . S
C627 C622 1.399 . S
C627 C626 1.394 . S
C627 C628 1.516 . S
C628 C627 1.516 . S
C628 C629 1.502 . S
C628 C630 1.561 . S
C628 C631 1.526 1_554 S
C629 H613 0.959 . S
C629 H614 0.959 . S
C629 H615 0.961 . S
C629 C628 1.502 . S
C630 H616 0.960 . S
C630 H617 0.961 . S
C630 H618 0.959 . S
C630 C628 1.561 . S
C631 C628 1.526 1_556 S
C631 C632 1.396 1_556 S
C631 C636 1.390 . S
C632 C626 1.469 . S
C632 C631 1.396 1_554 S
C632 C633 1.395 1_554 S
C633 H619 0.929 . S
C633 C632 1.395 1_556 S
C633 C634 1.385 . S
C634 H620 0.931 . S
C634 C633 1.385 . S
C634 C635 1.389 . S
C635 C634 1.389 . S
C635 C636 1.387 . S
C636 H621 0.930 . S
C636 C631 1.390 . S
C636 C635 1.387 . S
H637 C649 0.930 . S
H638 C651 0.930 . S
H639 C652 0.930 . S
H640 C656 0.959 1_554 S
H641 C656 0.959 . S
H642 C656 0.961 1_554 S
H643 C657 0.960 1_554 S
H644 C657 0.961 . S
H645 C657 0.959 . S
H646 C660 0.930 1_554 S
H647 C661 0.931 . S
H648 C663 0.930 . S
C649 H637 0.930 . S
C649 C650 1.399 1_655 S
C649 C654 1.399 . S
C650 C649 1.399 1_455 S
C650 C651 1.376 . S
C651 H638 0.930 . S
C651 C650 1.376 . S
C651 C652 1.388 . S
C652 H639 0.930 . S
C652 C651 1.388 . S
C652 C653 1.390 . S
C653 C652 1.390 . S
C653 C654 1.394 1_455 S
C653 C659 1.465 . S
C654 C649 1.399 . S
C654 C653 1.394 1_655 S
C654 C655 1.516 . S
C655 C654 1.516 . S
C655 C656 1.502 1_554 S
C655 C657 1.561 1_654 S
C655 C658 1.526 1_554 S
C656 H640 0.959 1_556 S
C656 H641 0.959 . S
C656 H642 0.961 1_556 S
C656 C655 1.502 1_556 S
C657 H643 0.960 1_556 S
C657 H644 0.961 . S
C657 H645 0.959 . S
C657 C655 1.561 1_456 S
C658 C655 1.526 1_556 S
C658 C659 1.396 1_656 S
C658 C663 1.390 . S
C659 C653 1.465 . S
C659 C658 1.396 1_454 S
C659 C660 1.399 1_554 S
C660 H646 0.930 1_556 S
C660 C659 1.399 1_556 S
C660 C661 1.384 . S
C661 H647 0.931 . S
C661 C660 1.384 . S
C661 C662 1.389 1_455 S
C662 C661 1.389 1_655 S
C662 C663 1.387 . S
C663 H648 0.930 . S
C663 C658 1.390 . S
C663 C662 1.387 . S
H664 C676 0.930 . S
H665 C678 0.930 . S
H666 C679 0.930 . S
H667 C683 0.959 . S
H668 C683 0.959 . S
H669 C683 0.961 . S
H670 C684 0.960 . S
H671 C684 0.961 . S
H672 C684 0.959 . S
H673 C687 0.929 . S
H674 C688 0.948 . S
H675 C690 0.930 . S
C676 H664 0.930 . S
C676 C677 1.399 1_655 S
C676 C681 1.399 . S
C677 C676 1.399 1_455 S
C677 C678 1.376 . S
C678 H665 0.930 . S
C678 C677 1.376 . S
C678 C679 1.388 . S
C679 H666 0.930 . S
C679 C678 1.388 . S
C679 C680 1.346 1_455 S
C680 C679 1.346 1_655 S
C680 C681 1.433 . S
C680 C686 1.481 . S
C681 C676 1.399 . S
C681 C680 1.433 . S
C681 C682 1.516 . S
C682 C681 1.516 . S
C682 C683 1.502 . S
C682 C684 1.561 . S
C682 C685 1.526 . S
C683 H667 0.959 . S
C683 H668 0.959 . S
C683 H669 0.961 . S
C683 C682 1.502 . S
C684 H670 0.960 . S
C684 H671 0.961 . S
C684 H672 0.959 . S
C684 C682 1.561 . S
C685 C682 1.526 . S
C685 C686 1.396 . S
C685 C690 1.390 . S
C686 C680 1.481 . S
C686 C685 1.396 . S
C686 C687 1.399 1_655 S
C687 H673 0.929 . S
C687 C686 1.399 1_455 S
C687 C688 1.385 1_455 S
C688 H674 0.948 . S
C688 C687 1.385 1_655 S
C688 C689 1.389 . S
C689 C688 1.389 . S
C689 C690 1.387 . S
C690 H675 0.930 . S
C690 C685 1.390 . S
C690 C689 1.387 . S
H691 C703 0.930 . S
H692 C705 0.930 . S
H693 C706 0.930 . S
H694 C710 0.959 . S
H695 C710 0.959 . S
H696 C710 0.961 . S
H697 C711 0.960 . S
H698 C711 0.961 . S
H699 C711 0.959 1_565 S
H700 C714 0.929 . S
H701 C715 0.931 . S
H702 C717 0.930 . S
C703 H691 0.930 . S
C703 C704 1.399 1_545 S
C703 C708 1.395 1_545 S
C704 C703 1.399 1_565 S
C704 C705 1.377 . S
C705 H692 0.930 . S
C705 C704 1.377 . S
C705 C706 1.388 . S
C706 H693 0.930 . S
C706 C705 1.388 . S
C706 C707 1.390 . S
C707 C706 1.390 . S
C707 C708 1.402 . S
C707 C713 1.465 . S
C708 C703 1.395 1_565 S
C708 C707 1.402 . S
C708 C709 1.513 1_565 S
C709 C708 1.513 1_545 S
C709 C710 1.502 . S
C709 C711 1.561 . S
C709 C712 1.526 1_545 S
C710 H694 0.959 . S
C710 H695 0.959 . S
C710 H696 0.961 . S
C710 C709 1.502 . S
C711 H697 0.960 . S
C711 H698 0.961 . S
C711 H699 0.959 1_545 S
C711 C709 1.561 . S
C712 C709 1.526 1_565 S
C712 C713 1.396 . S
C712 C717 1.390 . S
C713 C707 1.465 . S
C713 C712 1.396 . S
C713 C714 1.399 . S
C714 H700 0.929 . S
C714 C713 1.399 . S
C714 C715 1.385 . S
C715 H701 0.931 . S
C715 C714 1.385 . S
C715 C716 1.389 . S
C716 C715 1.389 . S
C716 C717 1.387 . S
C717 H702 0.930 . S
C717 C712 1.390 . S
C717 C716 1.387 . S
H718 C730 0.930 . S
H719 C732 0.930 . S
H720 C733 0.930 . S
H721 C737 0.959 . S
H722 C737 0.959 . S
H723 C737 0.961 . S
H724 C738 0.960 . S
H725 C738 0.961 . S
H726 C738 0.959 . S
H727 C741 0.929 . S
H728 C742 0.931 . S
H729 C744 0.930 . S
C730 H718 0.930 . S
C730 C731 1.399 . S
C730 C735 1.399 . S
C731 C730 1.399 . S
C731 C732 1.376 . S
C732 H719 0.930 . S
C732 C731 1.376 . S
C732 C733 1.388 . S
C733 H720 0.930 . S
C733 C732 1.388 . S
C733 C734 1.390 . S
C734 C733 1.390 . S
C734 C735 1.394 . S
C734 C740 1.465 . S
C735 C730 1.399 . S
C735 C734 1.394 . S
C735 C736 1.516 . S
C736 C735 1.516 . S
C736 C737 1.502 . S
C736 C738 1.561 . S
C736 C739 1.526 . S
C737 H721 0.959 . S
C737 H722 0.959 . S
C737 H723 0.961 . S
C737 C736 1.502 . S
C738 H724 0.960 . S
C738 H725 0.961 . S
C738 H726 0.959 . S
C738 C736 1.561 . S
C739 C736 1.526 . S
C739 C740 1.396 . S
C739 C744 1.390 . S
C740 C734 1.465 . S
C740 C739 1.396 . S
C740 C741 1.399 . S
C741 H727 0.929 . S
C741 C740 1.399 . S
C741 C742 1.385 . S
C742 H728 0.931 . S
C742 C741 1.385 . S
C742 C743 1.389 . S
C743 C742 1.389 . S
C743 C744 1.387 . S
C744 H729 0.930 . S
C744 C739 1.390 . S
C744 C743 1.387 . S
H745 C757 0.930 . S
H746 C759 0.930 . S
H747 C760 0.930 . S
H748 C764 0.959 . S
H749 C764 0.959 . S
H750 C764 0.961 . S
H751 C765 0.960 . S
H752 C765 0.961 . S
H753 C765 0.959 . S
H754 C768 0.929 . S
H755 C769 0.931 . S
H756 C771 0.930 . S
C757 H745 0.930 . S
C757 C758 1.399 . S
C757 C762 1.399 . S
C758 C757 1.399 . S
C758 C759 1.376 . S
C759 H746 0.930 . S
C759 C758 1.376 . S
C759 C760 1.388 . S
C760 H747 0.930 . S
C760 C759 1.388 . S
C760 C761 1.390 . S
C761 C760 1.390 . S
C761 C762 1.394 . S
C761 C767 1.465 . S
C762 C757 1.399 . S
C762 C761 1.394 . S
C762 C763 1.516 . S
C763 C762 1.516 . S
C763 C764 1.502 . S
C763 C765 1.561 . S
C763 C766 1.526 . S
C764 H748 0.959 . S
C764 H749 0.959 . S
C764 H750 0.961 . S
C764 C763 1.502 . S
C765 H751 0.960 . S
C765 H752 0.961 . S
C765 H753 0.959 . S
C765 C763 1.561 . S
C766 C763 1.526 . S
C766 C767 1.396 . S
C766 C771 1.390 . S
C767 C761 1.465 . S
C767 C766 1.396 . S
C767 C768 1.399 . S
C768 H754 0.929 . S
C768 C767 1.399 . S
C768 C769 1.385 . S
C769 H755 0.931 . S
C769 C768 1.385 . S
C769 C770 1.389 . S
C770 C769 1.389 . S
C770 C771 1.387 . S
C771 H756 0.930 . S
C771 C766 1.390 . S
C771 C770 1.387 . S
H772 C784 0.930 . S
H773 C786 0.930 . S
H774 C787 0.930 . S
H775 C791 0.959 1_554 S
H776 C791 0.959 . S
H777 C791 0.961 . S
H778 C792 0.960 . S
H779 C792 0.961 . S
H780 C792 0.959 1_655 S
H781 C795 0.921 1_655 S
H782 C796 0.931 . S
H783 C798 0.930 . S
C784 H772 0.930 . S
C784 C785 1.399 1_455 S
C784 C789 1.399 . S
C785 C784 1.399 1_655 S
C785 C786 1.376 . S
C786 H773 0.930 . S
C786 C785 1.376 . S
C786 C787 1.388 . S
C787 H774 0.930 . S
C787 C786 1.388 . S
C787 C788 1.390 1_655 S
C788 C787 1.390 1_455 S
C788 C789 1.394 . S
C788 C794 1.465 . S
C789 C784 1.399 . S
C789 C788 1.394 . S
C789 C790 1.516 1_554 S
C790 C789 1.516 1_556 S
C790 C791 1.502 . S
C790 C792 1.561 . S
C790 C793 1.526 . S
C791 H775 0.959 1_556 S
C791 H776 0.959 . S
C791 H777 0.961 . S
C791 C790 1.502 . S
C792 H778 0.960 . S
C792 H779 0.961 . S
C792 H780 0.959 1_455 S
C792 C790 1.561 . S
C793 C790 1.526 . S
C793 C794 1.396 1_556 S
C793 C798 1.390 . S
C794 C788 1.465 . S
C794 C793 1.396 1_554 S
C794 C795 1.399 . S
C795 H781 0.921 1_455 S
C795 C794 1.399 . S
C795 C796 1.385 . S
C796 H782 0.931 . S
C796 C795 1.385 . S
C796 C797 1.389 1_554 S
C797 C796 1.389 1_556 S
C797 C798 1.387 . S
C798 H783 0.930 . S
C798 C793 1.390 . S
C798 C797 1.387 . S
H799 C811 0.930 . S
H800 C813 0.930 . S
H801 C814 0.930 . S
H802 C818 0.959 . S
H803 C818 0.959 . S
H804 C818 0.961 . S
H805 C819 0.960 . S
H806 C819 0.961 . S
H807 C819 0.959 . S
H808 C822 0.929 . S
H809 C823 0.931 . S
H810 C825 0.930 . S
C811 H799 0.930 . S
C811 C812 1.410 . S
C811 C816 1.416 . S
C812 C811 1.410 . S
C812 C813 1.357 1_565 S
C813 H800 0.930 . S
C813 C812 1.357 1_545 S
C813 C814 1.388 . S
C814 H801 0.930 . S
C814 C813 1.388 . S
C814 C815 1.390 . S
C815 C814 1.390 . S
C815 C816 1.361 1_545 S
C815 C821 1.465 . S
C816 C811 1.416 . S
C816 C815 1.361 1_565 S
C816 C817 1.529 . S
C817 C816 1.529 . S
C817 C818 1.502 1_554 S
C817 C819 1.561 . S
C817 C820 1.526 1_565 S
C818 H802 0.959 . S
C818 H803 0.959 . S
C818 H804 0.961 . S
C818 C817 1.502 1_556 S
C819 H805 0.960 . S
C819 H806 0.961 . S
C819 H807 0.959 . S
C819 C817 1.561 . S
C820 C817 1.526 1_545 S
C820 C821 1.397 . S
C820 C825 1.389 1_554 S
C821 C815 1.465 . S
C821 C820 1.397 . S
C821 C822 1.399 . S
C822 H808 0.929 . S
C822 C821 1.399 . S
C822 C823 1.385 . S
C823 H809 0.931 . S
C823 C822 1.385 . S
C823 C824 1.389 1_554 S
C824 C823 1.389 1_556 S
C824 C825 1.387 . S
C825 H810 0.930 . S
C825 C820 1.389 1_556 S
C825 C824 1.387 . S
H826 C838 0.930 . S
H827 C840 0.930 . S
H828 C841 0.930 . S
H829 C845 0.959 . S
H830 C845 0.959 . S
H831 C845 0.961 . S
H832 C846 0.960 . S
H833 C846 0.961 . S
H834 C846 0.959 . S
H835 C849 0.929 . S
H836 C850 0.931 . S
H837 C852 0.930 . S
C838 H826 0.930 . S
C838 C839 1.399 . S
C838 C843 1.399 . S
C839 C838 1.399 . S
C839 C840 1.376 . S
C840 H827 0.930 . S
C840 C839 1.376 . S
C840 C841 1.388 . S
C841 H828 0.930 . S
C841 C840 1.388 . S
C841 C842 1.390 . S
C842 C841 1.390 . S
C842 C843 1.394 . S
C842 C848 1.465 . S
C843 C838 1.399 . S
C843 C842 1.394 . S
C843 C844 1.516 . S
C844 C843 1.516 . S
C844 C845 1.502 . S
C844 C846 1.561 . S
C844 C847 1.526 . S
C845 H829 0.959 . S
C845 H830 0.959 . S
C845 H831 0.961 . S
C845 C844 1.502 . S
C846 H832 0.960 . S
C846 H833 0.961 . S
C846 H834 0.959 . S
C846 C844 1.561 . S
C847 C844 1.526 . S
C847 C848 1.396 . S
C847 C852 1.390 . S
C848 C842 1.465 . S
C848 C847 1.396 . S
C848 C849 1.399 1_554 S
C849 H835 0.929 . S
C849 C848 1.399 1_556 S
C849 C850 1.385 . S
C850 H836 0.931 . S
C850 C849 1.385 . S
C850 C851 1.389 . S
C851 C850 1.389 . S
C851 C852 1.387 1_556 S
C852 H837 0.930 . S
C852 C847 1.390 . S
C852 C851 1.387 1_554 S
H853 C865 0.930 . S
H854 C867 0.930 . S
H855 C868 0.930 . S
H856 C872 0.959 . S
H857 C872 0.959 . S
H858 C872 0.961 . S
H859 C873 0.960 . S
H860 C873 0.961 . S
H861 C873 0.959 . S
H862 C876 0.929 . S
H863 C877 0.931 . S
H864 C879 0.932 . S
C865 H853 0.930 . S
C865 C866 1.399 . S
C865 C870 1.399 . S
C866 C865 1.399 . S
C866 C867 1.376 . S
C867 H854 0.930 . S
C867 C866 1.376 . S
C867 C868 1.388 . S
C868 H855 0.930 . S
C868 C867 1.388 . S
C868 C869 1.390 . S
C869 C868 1.390 . S
C869 C870 1.394 . S
C869 C875 1.465 . S
C870 C865 1.399 . S
C870 C869 1.394 . S
C870 C871 1.516 . S
C871 C870 1.516 . S
C871 C872 1.502 . S
C871 C873 1.561 . S
C871 C874 1.526 . S
C872 H856 0.959 . S
C872 H857 0.959 . S
C872 H858 0.961 . S
C872 C871 1.502 . S
C873 H859 0.960 . S
C873 H860 0.961 . S
C873 H861 0.959 . S
C873 C871 1.561 . S
C874 C871 1.526 . S
C874 C875 1.396 . S
C874 C879 1.394 . S
C875 C869 1.465 . S
C875 C874 1.396 . S
C875 C876 1.399 1_554 S
C876 H862 0.929 . S
C876 C875 1.399 1_556 S
C876 C877 1.385 . S
C877 H863 0.931 . S
C877 C876 1.385 . S
C877 C878 1.389 . S
C878 C877 1.389 . S
C878 C879 1.380 1_556 S
C879 H864 0.932 . S
C879 C874 1.394 . S
C879 C878 1.380 1_554 S
H880 C892 0.930 . S
H881 C894 0.930 . S
H882 C895 0.930 . S
H883 C899 0.959 . S
H884 C899 0.959 . S
H885 C899 0.961 . S
H886 C900 0.960 . S
H887 C900 0.961 . S
H888 C900 0.959 . S
H889 C903 0.922 1_655 S
H890 C904 0.931 . S
H891 C906 0.930 . S
C892 H880 0.930 . S
C892 C893 1.408 . S
C892 C897 1.399 . S
C893 C892 1.408 . S
C893 C894 1.369 1_455 S
C894 H881 0.930 . S
C894 C893 1.369 1_655 S
C894 C895 1.388 . S
C895 H882 0.930 . S
C895 C894 1.388 . S
C895 C896 1.386 1_655 S
C896 C895 1.386 1_455 S
C896 C897 1.398 . S
C896 C902 1.468 . S
C897 C892 1.399 . S
C897 C896 1.398 . S
C897 C898 1.516 . S
C898 C897 1.516 . S
C898 C899 1.502 . S
C898 C900 1.561 1_455 S
C898 C901 1.526 . S
C899 H883 0.959 . S
C899 H884 0.959 . S
C899 H885 0.961 . S
C899 C898 1.502 . S
C900 H886 0.960 . S
C900 H887 0.961 . S
C900 H888 0.959 . S
C900 C898 1.561 1_655 S
C901 C898 1.526 . S
C901 C902 1.396 . S
C901 C906 1.390 . S
C902 C896 1.468 . S
C902 C901 1.396 . S
C902 C903 1.402 . S
C903 H889 0.922 1_455 S
C903 C902 1.402 . S
C903 C904 1.391 . S
C904 H890 0.931 . S
C904 C903 1.391 . S
C904 C905 1.389 . S
C905 C904 1.389 . S
C905 C906 1.387 . S
C906 H891 0.930 . S
C906 C901 1.390 . S
C906 C905 1.387 . S
H907 C919 0.930 . S
H908 C921 0.930 . S
H909 C922 0.930 . S
H910 C926 0.959 . S
H911 C926 0.959 . S
H912 C926 0.961 . S
H913 C927 0.960 . S
H914 C927 0.961 . S
H915 C927 0.959 . S
H916 C930 0.929 . S
H917 C931 0.931 . S
H918 C933 0.930 . S
C919 H907 0.930 . S
C919 C920 1.399 1_565 S
C919 C924 1.399 . S
C920 C919 1.399 1_545 S
C920 C921 1.376 . S
C921 H908 0.930 . S
C921 C920 1.376 . S
C921 C922 1.388 . S
C922 H909 0.930 . S
C922 C921 1.388 . S
C922 C923 1.390 . S
C923 C922 1.390 . S
C923 C924 1.394 1_545 S
C923 C929 1.465 . S
C924 C919 1.399 . S
C924 C923 1.394 1_565 S
C924 C925 1.516 . S
C925 C924 1.516 . S
C925 C926 1.502 . S
C925 C927 1.561 . S
C925 C928 1.526 . S
C926 H910 0.959 . S
C926 H911 0.959 . S
C926 H912 0.961 . S
C926 C925 1.502 . S
C927 H913 0.960 . S
C927 H914 0.961 . S
C927 H915 0.959 . S
C927 C925 1.561 . S
C928 C925 1.526 . S
C928 C929 1.396 1_565 S
C928 C933 1.390 . S
C929 C923 1.465 . S
C929 C928 1.396 1_545 S
C929 C930 1.399 . S
C930 H916 0.929 . S
C930 C929 1.399 . S
C930 C931 1.385 . S
C931 H917 0.931 . S
C931 C930 1.385 . S
C931 C932 1.389 . S
C932 C931 1.389 . S
C932 C933 1.387 1_545 S
C933 H918 0.930 . S
C933 C928 1.390 . S
C933 C932 1.387 1_565 S
H934 C946 0.930 . S
H935 C948 0.930 . S
H936 C949 0.930 . S
H937 C953 0.959 . S
H938 C953 0.959 . S
H939 C953 0.961 . S
H940 C954 0.960 . S
H941 C954 0.961 . S
H942 C954 0.959 . S
H943 C957 0.929 . S
H944 C958 0.931 . S
H945 C960 0.930 . S
C946 H934 0.930 . S
C946 C947 1.399 . S
C946 C951 1.399 . S
C947 C946 1.399 . S
C947 C948 1.376 . S
C948 H935 0.930 . S
C948 C947 1.376 . S
C948 C949 1.388 . S
C949 H936 0.930 . S
C949 C948 1.388 . S
C949 C950 1.390 . S
C950 C949 1.390 . S
C950 C951 1.394 . S
C950 C956 1.465 . S
C951 C946 1.399 . S
C951 C950 1.394 . S
C951 C952 1.516 . S
C952 C951 1.516 . S
C952 C953 1.502 . S
C952 C954 1.561 . S
C952 C955 1.526 . S
C953 H937 0.959 . S
C953 H938 0.959 . S
C953 H939 0.961 . S
C953 C952 1.502 . S
C954 H940 0.960 . S
C954 H941 0.961 . S
C954 H942 0.959 . S
C954 C952 1.561 . S
C955 C952 1.526 . S
C955 C956 1.396 . S
C955 C960 1.390 . S
C956 C950 1.465 . S
C956 C955 1.396 . S
C956 C957 1.399 . S
C957 H943 0.929 . S
C957 C956 1.399 . S
C957 C958 1.385 . S
C958 H944 0.931 . S
C958 C957 1.385 . S
C958 C959 1.389 . S
C959 C958 1.389 . S
C959 C960 1.387 . S
C960 H945 0.930 . S
C960 C955 1.390 . S
C960 C959 1.387 . S
H961 C973 0.930 . S
H962 C975 0.930 . S
H963 C976 0.930 . S
H964 C980 0.959 . S
H965 C980 0.959 . S
H966 C980 0.961 . S
H967 C981 0.960 . S
H968 C981 0.961 . S
H969 C981 0.959 . S
H970 C984 0.929 . S
H971 C985 0.931 . S
H972 C987 0.930 . S
C973 H961 0.930 . S
C973 C974 1.399 . S
C973 C978 1.399 . S
C974 C973 1.399 . S
C974 C975 1.376 . S
C975 H962 0.930 . S
C975 C974 1.376 . S
C975 C976 1.388 . S
C976 H963 0.930 . S
C976 C975 1.388 . S
C976 C977 1.390 . S
C977 C976 1.390 . S
C977 C978 1.394 . S
C977 C983 1.465 . S
C978 C973 1.399 . S
C978 C977 1.394 . S
C978 C979 1.516 . S
C979 C978 1.516 . S
C979 C980 1.502 . S
C979 C981 1.561 . S
C979 C982 1.526 . S
C980 H964 0.959 . S
C980 H965 0.959 . S
C980 H966 0.961 . S
C980 C979 1.502 . S
C981 H967 0.960 . S
C981 H968 0.961 . S
C981 H969 0.959 . S
C981 C979 1.561 . S
C982 C979 1.526 . S
C982 C983 1.396 . S
C982 C987 1.390 . S
C983 C977 1.465 . S
C983 C982 1.396 . S
C983 C984 1.399 . S
C984 H970 0.929 . S
C984 C983 1.399 . S
C984 C985 1.385 . S
C985 H971 0.931 . S
C985 C984 1.385 . S
C985 C986 1.389 . S
C986 C985 1.389 . S
C986 C987 1.387 . S
C987 H972 0.930 . S
C987 C982 1.390 . S
C987 C986 1.387 . S
H988 C1000 0.930 . S
H989 C1002 0.930 . S
H990 C1003 0.930 . S
H991 C1007 0.959 . S
H992 C1007 0.959 . S
H993 C1007 0.961 . S
H994 C1008 0.960 . S
H995 C1008 0.961 . S
H996 C1008 0.959 . S
H997 C1011 0.929 . S
H998 C1012 0.931 . S
H999 C1014 0.930 . S
C1000 H988 0.930 . S
C1000 C1001 1.406 . S
C1000 C1005 1.399 . S
C1001 C1000 1.406 . S
C1001 C1002 1.368 1_655 S
C1002 H989 0.930 . S
C1002 C1001 1.368 1_455 S
C1002 C1003 1.388 . S
C1003 H990 0.930 . S
C1003 C1002 1.388 . S
C1003 C1004 1.390 . S
C1004 C1003 1.390 . S
C1004 C1005 1.394 1_455 S
C1004 C1010 1.465 . S
C1005 C1000 1.399 . S
C1005 C1004 1.394 1_655 S
C1005 C1006 1.516 . S
C1006 C1005 1.516 . S
C1006 C1007 1.502 . S
C1006 C1008 1.561 . S
C1006 C1009 1.526 . S
C1007 H991 0.959 . S
C1007 H992 0.959 . S
C1007 H993 0.961 . S
C1007 C1006 1.502 . S
C1008 H994 0.960 . S
C1008 H995 0.961 . S
C1008 H996 0.959 . S
C1008 C1006 1.561 . S
C1009 C1006 1.526 . S
C1009 C1010 1.396 1_655 S
C1009 C1014 1.390 . S
C1010 C1004 1.465 . S
C1010 C1009 1.396 1_455 S
C1010 C1011 1.399 . S
C1011 H997 0.929 . S
C1011 C1010 1.399 . S
C1011 C1012 1.385 . S
C1012 H998 0.931 . S
C1012 C1011 1.385 . S
C1012 C1013 1.389 1_455 S
C1013 C1012 1.389 1_655 S
C1013 C1014 1.387 . S
C1014 H999 0.930 . S
C1014 C1009 1.390 . S
C1014 C1013 1.387 . S
H1015 C1027 0.930 . S
H1016 C1029 0.930 . S
H1017 C1030 0.930 . S
H1018 C1034 0.959 . S
H1019 C1034 0.959 . S
H1020 C1034 0.961 . S
H1021 C1035 0.960 . S
H1022 C1035 0.961 . S
H1023 C1035 0.959 . S
H1024 C1038 0.929 . S
H1025 C1039 0.931 . S
H1026 C1041 0.930 1_545 S
C1027 H1015 0.930 . S
C1027 C1028 1.399 1_545 S
C1027 C1032 1.399 1_545 S
C1028 C1027 1.399 1_565 S
C1028 C1029 1.376 . S
C1029 H1016 0.930 . S
C1029 C1028 1.376 . S
C1029 C1030 1.388 . S
C1030 H1017 0.930 . S
C1030 C1029 1.388 . S
C1030 C1031 1.390 . S
C1031 C1030 1.390 . S
C1031 C1032 1.394 . S
C1031 C1037 1.465 . S
C1032 C1027 1.399 1_565 S
C1032 C1031 1.394 . S
C1032 C1033 1.516 1_565 S
C1033 C1032 1.516 1_545 S
C1033 C1034 1.502 . S
C1033 C1035 1.561 1_545 S
C1033 C1036 1.526 1_545 S
C1034 H1018 0.959 . S
C1034 H1019 0.959 . S
C1034 H1020 0.961 . S
C1034 C1033 1.502 . S
C1035 H1021 0.960 . S
C1035 H1022 0.961 . S
C1035 H1023 0.959 . S
C1035 C1033 1.561 1_565 S
C1036 C1033 1.526 1_565 S
C1036 C1037 1.396 . S
C1036 C1041 1.390 . S
C1037 C1031 1.465 . S
C1037 C1036 1.396 . S
C1037 C1038 1.399 . S
C1038 H1024 0.929 . S
C1038 C1037 1.399 . S
C1038 C1039 1.385 . S
C1039 H1025 0.931 . S
C1039 C1038 1.385 . S
C1039 C1040 1.389 . S
C1040 C1039 1.389 . S
C1040 C1041 1.387 . S
C1041 H1026 0.930 1_565 S
C1041 C1036 1.390 . S
C1041 C1040 1.387 . S
H1042 C1054 0.930 . S
H1043 C1056 0.930 . S
H1044 C1057 0.930 . S
H1045 C1061 0.959 . S
H1046 C1061 0.959 . S
H1047 C1061 0.961 . S
H1048 C1062 0.960 . S
H1049 C1062 0.961 . S
H1050 C1062 0.959 . S
H1051 C1065 0.929 . S
H1052 C1066 0.931 . S
H1053 C1068 0.930 . S
C1054 H1042 0.930 . S
C1054 C1055 1.399 . S
C1054 C1059 1.399 . S
C1055 C1054 1.399 . S
C1055 C1056 1.376 . S
C1056 H1043 0.930 . S
C1056 C1055 1.376 . S
C1056 C1057 1.388 . S
C1057 H1044 0.930 . S
C1057 C1056 1.388 . S
C1057 C1058 1.390 . S
C1058 C1057 1.390 . S
C1058 C1059 1.394 . S
C1058 C1064 1.465 . S
C1059 C1054 1.399 . S
C1059 C1058 1.394 . S
C1059 C1060 1.516 . S
C1060 C1059 1.516 . S
C1060 C1061 1.502 . S
C1060 C1062 1.561 . S
C1060 C1063 1.526 . S
C1061 H1045 0.959 . S
C1061 H1046 0.959 . S
C1061 H1047 0.961 . S
C1061 C1060 1.502 . S
C1062 H1048 0.960 . S
C1062 H1049 0.961 . S
C1062 H1050 0.959 . S
C1062 C1060 1.561 . S
C1063 C1060 1.526 . S
C1063 C1064 1.396 . S
C1063 C1068 1.390 . S
C1064 C1058 1.465 . S
C1064 C1063 1.396 . S
C1064 C1065 1.399 . S
C1065 H1051 0.929 . S
C1065 C1064 1.399 . S
C1065 C1066 1.385 . S
C1066 H1052 0.931 . S
C1066 C1065 1.385 . S
C1066 C1067 1.389 . S
C1067 C1066 1.389 . S
C1067 C1068 1.387 . S
C1068 H1053 0.930 . S
C1068 C1063 1.390 . S
C1068 C1067 1.387 . S
H1069 C1081 0.930 . S
H1070 C1083 0.930 . S
H1071 C1084 0.930 . S
H1072 C1088 0.959 . S
H1073 C1088 0.959 . S
H1074 C1088 0.961 . S
H1075 C1089 0.960 . S
H1076 C1089 0.961 . S
H1077 C1089 0.959 . S
H1078 C1092 0.929 . S
H1079 C1093 0.931 . S
H1080 C1095 0.930 . S
C1081 H1069 0.930 . S
C1081 C1082 1.399 . S
C1081 C1086 1.399 . S
C1082 C1081 1.399 . S
C1082 C1083 1.376 . S
C1083 H1070 0.930 . S
C1083 C1082 1.376 . S
C1083 C1084 1.388 . S
C1084 H1071 0.930 . S
C1084 C1083 1.388 . S
C1084 C1085 1.390 . S
C1085 C1084 1.390 . S
C1085 C1086 1.394 . S
C1085 C1091 1.465 . S
C1086 C1081 1.399 . S
C1086 C1085 1.394 . S
C1086 C1087 1.516 . S
C1087 C1086 1.516 . S
C1087 C1088 1.502 . S
C1087 C1089 1.561 . S
C1087 C1090 1.526 . S
C1088 H1072 0.959 . S
C1088 H1073 0.959 . S
C1088 H1074 0.961 . S
C1088 C1087 1.502 . S
C1089 H1075 0.960 . S
C1089 H1076 0.961 . S
C1089 H1077 0.959 . S
C1089 C1087 1.561 . S
C1090 C1087 1.526 . S
C1090 C1091 1.396 . S
C1090 C1095 1.390 . S
C1091 C1085 1.465 . S
C1091 C1090 1.396 . S
C1091 C1092 1.399 . S
C1092 H1078 0.929 . S
C1092 C1091 1.399 . S
C1092 C1093 1.385 . S
C1093 H1079 0.931 . S
C1093 C1092 1.385 . S
C1093 C1094 1.389 . S
C1094 C1093 1.389 . S
C1094 C1095 1.387 . S
C1095 H1080 0.930 . S
C1095 C1090 1.390 . S
C1095 C1094 1.387 . S
C461 C241 2.137 1_565 S
C473 C297 2.330 . S
C500 C337 2.373 . S
C488 C277 2.161 . S
C527 C377 2.353 . S
C515 C169 2.153 . S
C554 C417 2.352 1_455 S
C542 C205 2.135 . S
C581 C306 2.343 1_565 S
C569 C97 2.126 1_565 S
C596 C133 2.215 . S
C608 C346 2.369 . S
C623 C25 2.091 . S
C635 C386 2.355 . S
C650 C61 2.138 . S
C662 C426 2.346 1_655 S
C689 C303 0.302 . S
C677 C211 0.417 . S
C716 C343 0.538 . S
C704 C247 0.393 1_565 S
C743 C383 0.490 . S
C731 C253 0.298 . S
C758 C175 0.384 . S
C770 C423 0.298 . S
C785 C67 0.507 1_655 S
C797 C294 0.358 . S
C824 C334 0.528 . S
C812 C103 0.323 1_565 S
C851 C374 0.497 . S
C839 C109 0.373 . S
C866 C31 0.383 . S
C878 C414 0.516 . S
C893 C181 2.897 . S
C905 C307 3.208 . S
C920 C217 2.831 . S
C932 C347 3.185 . S
C959 C387 3.155 . S
C947 C283 2.767 . S
C986 C427 3.206 . S
C974 C145 2.801 . S
C1001 C37 2.887 1_655 S
C1013 C298 3.212 . S
C1040 C338 3.177 . S
C1028 C73 2.849 1_565 S
C1067 C378 3.168 . S
C1055 C139 2.753 . S
C1082 C1 2.864 . S
C1094 C418 3.207 . S
