# Generated by pormake.
# Topology sqc, (4,8)-cn, num edge types: 1
# Building blocks:
#     Node 0, Type 0, BuildingBlock: KUFVIS_clean_linker_0, # of connection points: 4
#     Node 1, Type 0, BuildingBlock: KUFVIS_clean_linker_0, # of connection points: 4
#     Node 2, Type 0, BuildingBlock: KUFVIS_clean_linker_0, # of connection points: 4
#     Node 3, Type 0, BuildingBlock: KUFVIS_clean_linker_0, # of connection points: 4
#     Node 4, Type 0, BuildingBlock: KUFVIS_clean_linker_0, # of connection points: 4
#     Node 5, Type 0, BuildingBlock: KUFVIS_clean_linker_0, # of connection points: 4
#     Node 6, Type 0, BuildingBlock: KUFVIS_clean_linker_0, # of connection points: 4
#     Node 7, Type 0, BuildingBlock: KUFVIS_clean_linker_0, # of connection points: 4
#     Node 8, Type 1, BuildingBlock: VETTIZ_charged_sbu_0, # of connection points: 8
#     Node 9, Type 1, BuildingBlock: VETTIZ_charged_sbu_0, # of connection points: 8
#     Node 10, Type 1, BuildingBlock: VETTIZ_charged_sbu_0, # of connection points: 8
#     Node 11, Type 1, BuildingBlock: VETTIZ_charged_sbu_0, # of connection points: 8
#     Edge 12, Type (0, 1), BuildingBlock: XUDNAN_clean_linker_2, # of connection points: 2
#     Edge 13, Type (0, 1), BuildingBlock: XUDNAN_clean_linker_2, # of connection points: 2
#     Edge 14, Type (0, 1), BuildingBlock: XUDNAN_clean_linker_2, # of connection points: 2
#     Edge 15, Type (0, 1), BuildingBlock: XUDNAN_clean_linker_2, # of connection points: 2
#     Edge 16, Type (0, 1), BuildingBlock: XUDNAN_clean_linker_2, # of connection points: 2
#     Edge 17, Type (0, 1), BuildingBlock: XUDNAN_clean_linker_2, # of connection points: 2
#     Edge 18, Type (0, 1), BuildingBlock: XUDNAN_clean_linker_2, # of connection points: 2
#     Edge 19, Type (0, 1), BuildingBlock: XUDNAN_clean_linker_2, # of connection points: 2
#     Edge 20, Type (0, 1), BuildingBlock: XUDNAN_clean_linker_2, # of connection points: 2
#     Edge 21, Type (0, 1), BuildingBlock: XUDNAN_clean_linker_2, # of connection points: 2
#     Edge 22, Type (0, 1), BuildingBlock: XUDNAN_clean_linker_2, # of connection points: 2
#     Edge 23, Type (0, 1), BuildingBlock: XUDNAN_clean_linker_2, # of connection points: 2
#     Edge 24, Type (0, 1), BuildingBlock: XUDNAN_clean_linker_2, # of connection points: 2
#     Edge 25, Type (0, 1), BuildingBlock: XUDNAN_clean_linker_2, # of connection points: 2
#     Edge 26, Type (0, 1), BuildingBlock: XUDNAN_clean_linker_2, # of connection points: 2
#     Edge 27, Type (0, 1), BuildingBlock: XUDNAN_clean_linker_2, # of connection points: 2
#     Edge 28, Type (0, 1), BuildingBlock: XUDNAN_clean_linker_2, # of connection points: 2
#     Edge 29, Type (0, 1), BuildingBlock: XUDNAN_clean_linker_2, # of connection points: 2
#     Edge 30, Type (0, 1), BuildingBlock: XUDNAN_clean_linker_2, # of connection points: 2
#     Edge 31, Type (0, 1), BuildingBlock: XUDNAN_clean_linker_2, # of connection points: 2
#     Edge 32, Type (0, 1), BuildingBlock: XUDNAN_clean_linker_2, # of connection points: 2
#     Edge 33, Type (0, 1), BuildingBlock: XUDNAN_clean_linker_2, # of connection points: 2
#     Edge 34, Type (0, 1), BuildingBlock: XUDNAN_clean_linker_2, # of connection points: 2
#     Edge 35, Type (0, 1), BuildingBlock: XUDNAN_clean_linker_2, # of connection points: 2
#     Edge 36, Type (0, 1), BuildingBlock: XUDNAN_clean_linker_2, # of connection points: 2
#     Edge 37, Type (0, 1), BuildingBlock: XUDNAN_clean_linker_2, # of connection points: 2
#     Edge 38, Type (0, 1), BuildingBlock: XUDNAN_clean_linker_2, # of connection points: 2
#     Edge 39, Type (0, 1), BuildingBlock: XUDNAN_clean_linker_2, # of connection points: 2
#     Edge 40, Type (0, 1), BuildingBlock: XUDNAN_clean_linker_2, # of connection points: 2
#     Edge 41, Type (0, 1), BuildingBlock: XUDNAN_clean_linker_2, # of connection points: 2
#     Edge 42, Type (0, 1), BuildingBlock: XUDNAN_clean_linker_2, # of connection points: 2
#     Edge 43, Type (0, 1), BuildingBlock: XUDNAN_clean_linker_2, # of connection points: 2
# Relax obj value: 0.164
# Max RMSD: 0.278
# Mean RMSD: 0.218
data_MOF--net-sqc--node1-VETTIZ_charged_sbu_0--node2-KUFVIS_clean_linker_0--edge1-XUDNAN_clean_linker_2
_symmetry_space_group_name_H-M    P1
_symmetry_Int_Tables_number       1
_symmetry_cell_setting            triclinic
loop_
_symmetry_equiv_pos_as_xyz
'x, y, z'
_cell_length_a     24.624526
_cell_length_b     24.689861
_cell_length_c     67.555162
_cell_angle_alpha  90.578557
_cell_angle_beta   89.764515
_cell_angle_gamma 89.961627
loop_
_atom_site_label
_atom_site_type_symbol
_atom_site_fract_x
_atom_site_fract_y
_atom_site_fract_z
_atom_type_partial_charge
H0 H 0.83836 0.07718 0.51163 0.0
H1 H 0.98688 0.06084 0.54419 0.0
H2 H 0.98276 0.03469 0.48056 0.0
H3 H 0.05888 0.99079 0.48584 0.0
H4 H 0.2129 0.04595 0.50574 0.0
H5 H 0.07015 0.09088 0.53864 0.0
C6 C 0.8815 0.06865 0.51221 0.0
C7 C 0.90715 0.05234 0.49473 0.0
C8 C 0.90882 0.0696 0.53035 0.0
C9 C 0.96569 0.06102 0.53021 0.0
C10 C 0.99443 0.05055 0.51219 0.0
C11 C 0.96366 0.04519 0.49451 0.0
C12 C 0.05578 0.04457 0.51172 0.0
C13 C 0.08204 0.01438 0.4964 0.0
C14 C 0.13895 0.01332 0.49489 0.0
C15 C 0.16968 0.04312 0.50842 0.0
C16 C 0.14641 0.06775 0.52519 0.0
C17 C 0.08895 0.0696 0.5264 0.0
H18 H 0.17578 0.95033 0.73384 0.0
H19 H 0.15662 0.80598 0.76699 0.0
H20 H 0.24595 0.80402 0.71118 0.0
H21 H 0.27962 0.72743 0.72154 0.0
H22 H 0.23389 0.58154 0.75065 0.0
H23 H 0.13822 0.7236 0.76011 0.0
C24 C 0.18201 0.90696 0.73516 0.0
C25 C 0.21473 0.88028 0.72128 0.0
C26 C 0.16034 0.88013 0.75139 0.0
C27 C 0.17118 0.82488 0.75363 0.0
C28 C 0.20017 0.7951 0.73879 0.0
C29 C 0.22214 0.82407 0.72256 0.0
C30 C 0.20807 0.73476 0.74069 0.0
C31 C 0.2509 0.70651 0.73087 0.0
C32 C 0.25882 0.65078 0.73398 0.0
C33 C 0.22532 0.6236 0.74739 0.0
C34 C 0.18324 0.65044 0.7574 0.0
C35 C 0.1733 0.70493 0.75323 0.0
H36 H 0.6977 0.97093 1.00008 0.0
H37 H 0.54391 0.98133 0.02931 0.0
H38 H 0.55489 1.00064 0.96567 0.0
H39 H 0.4748 0.04413 0.9709 0.0
H40 H 0.32131 0.99346 0.99445 0.0
H41 H 0.46789 0.93997 0.02184 0.0
C42 C 0.65399 0.97605 0.99921 0.0
C43 C 0.62989 0.98746 0.98103 0.0
C44 C 0.62282 0.97361 0.01647 0.0
C45 C 0.56673 0.98185 0.01559 0.0
C46 C 0.54048 0.98958 0.99725 0.0
C47 C 0.57311 0.9937 0.97997 0.0
C48 C 0.47949 0.99143 0.99637 0.0
C49 C 0.45212 0.02099 0.98165 0.0
C50 C 0.39504 0.02101 0.98075 0.0
C51 C 0.36523 0.99284 0.99507 0.0
C52 C 0.39097 0.9648 0.0103 0.0
C53 C 0.44805 0.96315 0.01049 0.0
H54 H 0.34454 0.45655 0.24432 0.0
H55 H 0.33591 0.31239 0.27844 0.0
H56 H 0.25369 0.3215 0.22238 0.0
H57 H 0.23045 0.23693 0.22774 0.0
H58 H 0.28009 0.0878 0.25439 0.0
H59 H 0.36159 0.23287 0.27033 0.0
C60 C 0.33237 0.41457 0.24582 0.0
C61 C 0.29421 0.39352 0.23254 0.0
C62 C 0.34394 0.38724 0.26328 0.0
C63 C 0.32901 0.33261 0.26458 0.0
C64 C 0.30243 0.30535 0.24872 0.0
C65 C 0.28135 0.33789 0.23327 0.0
C66 C 0.29532 0.24444 0.24947 0.0
C67 C 0.25684 0.2157 0.23777 0.0
C68 C 0.25158 0.15874 0.23924 0.0
C69 C 0.28403 0.13118 0.2529 0.0
C70 C 0.32173 0.15832 0.2647 0.0
C71 C 0.32884 0.21399 0.26223 0.0
H72 H 0.74851 0.46027 0.2725 0.0
H73 H 0.74486 0.30564 0.29975 0.0
H74 H 0.78808 0.32048 0.23744 0.0
H75 H 0.82396 0.24046 0.24063 0.0
H76 H 0.77948 0.08426 0.26172 0.0
H77 H 0.71972 0.22465 0.29231 0.0
C78 C 0.75469 0.41682 0.27128 0.0
C79 C 0.77287 0.39431 0.25341 0.0
C80 C 0.744 0.38503 0.28774 0.0
C81 C 0.75152 0.32878 0.28648 0.0
C82 C 0.76642 0.30341 0.26823 0.0
C83 C 0.7768 0.33743 0.25168 0.0
C84 C 0.7703 0.24215 0.26648 0.0
C85 C 0.80056 0.21685 0.251 0.0
C86 C 0.80193 0.16012 0.24894 0.0
C87 C 0.77558 0.12797 0.26286 0.0
C88 C 0.74768 0.15113 0.2789 0.0
C89 C 0.74396 0.20796 0.28037 0.0
H90 H 0.74962 0.94775 0.77558 0.0
H91 H 0.81123 0.79395 0.79268 0.0
H92 H 0.68517 0.80643 0.74773 0.0
H93 H 0.70893 0.72618 0.73885 0.0
H94 H 0.75915 0.57299 0.75987 0.0
H95 H 0.77801 0.71367 0.79728 0.0
C96 C 0.74949 0.90396 0.77391 0.0
C97 C 0.71496 0.88037 0.76007 0.0
C98 C 0.78326 0.87322 0.78584 0.0
C99 C 0.783 0.81664 0.78379 0.0
C100 C 0.74807 0.79049 0.76992 0.0
C101 C 0.71379 0.82367 0.75808 0.0
C102 C 0.74854 0.72937 0.76771 0.0
C103 C 0.7279 0.70353 0.75053 0.0
C104 C 0.72996 0.64713 0.74837 0.0
C105 C 0.75605 0.61609 0.76262 0.0
C106 C 0.77283 0.639 0.78071 0.0
C107 C 0.76823 0.69584 0.78311 0.0
H108 H 0.68921 0.52608 0.00874 0.0
H109 H 0.53839 0.50699 0.97946 0.0
H110 H 0.54319 0.56643 0.04028 0.0
H111 H 0.45784 0.58223 0.03752 0.0
H112 H 0.31023 0.5215 0.01283 0.0
H113 H 0.46031 0.47552 0.98587 0.0
C114 C 0.64545 0.53085 0.00919 0.0
C115 C 0.62004 0.55269 0.02603 0.0
C116 C 0.61611 0.51508 0.99259 0.0
C117 C 0.55934 0.51798 0.99291 0.0
C118 C 0.53085 0.53389 0.0104 0.0
C119 C 0.56251 0.55232 0.02684 0.0
C120 C 0.46905 0.53046 0.01132 0.0
C121 C 0.43839 0.55734 0.0264 0.0
C122 C 0.38127 0.5536 0.02702 0.0
C123 C 0.35424 0.52359 0.01246 0.0
C124 C 0.38261 0.49624 0.99748 0.0
C125 C 0.43967 0.4992 0.9971 0.0
H126 H 0.21616 0.50043 0.50143 0.0
H127 H 0.07195 0.43159 0.52569 0.0
H128 H 0.06156 0.56988 0.48681 0.0
H129 H 0.97885 0.52834 0.47938 0.0
H130 H 0.84113 0.49024 0.51558 0.0
H131 H 1.00097 0.47579 0.53974 0.0
C132 C 0.17226 0.50103 0.50287 0.0
C133 C 0.14201 0.53987 0.49274 0.0
C134 C 0.14726 0.46285 0.51493 0.0
C135 C 0.09064 0.46252 0.51668 0.0
C136 C 0.0585 0.50074 0.5065 0.0
C137 C 0.08491 0.53934 0.49441 0.0
C138 C 0.99792 0.50036 0.50901 0.0
C139 C 0.96262 0.51523 0.49346 0.0
C140 C 0.90591 0.5136 0.49618 0.0
C141 C 0.88476 0.4945 0.51407 0.0
C142 C 0.91855 0.48066 0.52984 0.0
C143 C 0.97498 0.48452 0.52729 0.0
Fe144 Fe 1.00848 0.75289 0.18557 0.0
O145 O 1.00656 0.74268 0.15662 0.0
Fe146 Fe 0.93898 0.77329 0.14129 0.0
Fe147 Fe 0.06576 0.76923 0.13886 0.0
O148 O 1.00087 0.74235 0.15663 0.0
O149 O 0.9984 0.80274 0.12401 0.0
O150 O 1.00426 0.8017 0.12376 0.0
Fe151 Fe 0.99847 0.79704 0.09492 0.0
C152 C 0.07998 0.84849 0.17266 0.0
O153 O 0.06949 0.69737 0.18278 0.0
O154 O 0.1229 0.73011 0.15742 0.0
O155 O 0.93647 0.74125 0.09399 0.0
O156 O 0.93159 0.70426 0.1239 0.0
O157 O 0.88616 0.73365 0.16184 0.0
O158 O 0.9451 0.69963 0.18532 0.0
O159 O 0.06379 0.69915 0.12207 0.0
O160 O 0.05568 0.73613 0.09235 0.0
C161 C 0.89844 0.70134 0.17651 0.0
O162 O 0.9358 0.85274 0.09862 0.0
O163 O 0.88311 0.81212 0.12292 0.0
O164 O 0.06832 0.81259 0.18542 0.0
O165 O 0.07174 0.84067 0.15435 0.0
C166 C 0.11423 0.6992 0.17269 0.0
C167 C 0.07463 0.69953 0.10359 0.0
C168 C 0.11317 0.83476 0.10359 0.0
O169 O 0.11967 0.80202 0.11836 0.0
O170 O 0.06633 0.84765 0.09602 0.0
C171 C 0.91804 0.70549 0.10566 0.0
O172 O 0.94058 0.84443 0.15768 0.0
O173 O 0.95077 0.81296 0.18809 0.0
C174 C 0.89078 0.84629 0.10857 0.0
C175 C 0.93826 0.85067 0.17633 0.0
Fe176 Fe 0.54198 0.78357 0.43799 0.0
O177 O 0.55587 0.77778 0.40927 0.0
Fe178 Fe 0.53061 0.84195 0.39123 0.0
Fe179 Fe 0.52819 0.71598 0.39292 0.0
O180 O 0.55604 0.78323 0.40918 0.0
O181 O 0.49992 0.78024 0.37535 0.0
O182 O 0.50001 0.77445 0.37539 0.0
Fe183 Fe 0.50929 0.77282 0.34657 0.0
C184 C 0.59589 0.67463 0.42863 0.0
O185 O 0.48161 0.72539 0.43868 0.0
O186 O 0.45479 0.7174 0.40753 0.0
O187 O 0.45757 0.83915 0.34684 0.0
O188 O 0.49804 0.89485 0.37029 0.0
O189 O 0.45736 0.84795 0.40585 0.0
O190 O 0.48214 0.84241 0.43734 0.0
O191 O 0.49389 0.65887 0.37362 0.0
O192 O 0.45432 0.70909 0.34887 0.0
C193 C 0.44734 0.85415 0.42418 0.0
O194 O 0.56923 0.83049 0.34513 0.0
O195 O 0.60269 0.84053 0.37546 0.0
O196 O 0.59629 0.72068 0.43806 0.0
O197 O 0.56454 0.66303 0.41358 0.0
C198 C 0.44533 0.71424 0.42594 0.0
C199 C 0.46236 0.66391 0.3583 0.0
C200 C 0.60085 0.69456 0.35933 0.0
O201 O 0.60036 0.71024 0.37735 0.0
O202 O 0.56623 0.71219 0.34703 0.0
C203 C 0.46659 0.88629 0.35508 0.0
O204 O 0.5694 0.8985 0.4106 0.0
O205 O 0.59706 0.84526 0.43662 0.0
C206 C 0.60473 0.84965 0.35691 0.0
C207 C 0.59916 0.88916 0.42625 0.0
Fe208 Fe 0.49815 0.23884 0.6872 0.0
O209 O 0.51578 0.23302 0.6589 0.0
Fe210 Fe 0.45927 0.26707 0.63935 0.0
Fe211 Fe 0.58488 0.25981 0.64687 0.0
O212 O 0.51021 0.2347 0.65877 0.0
O213 O 0.52779 0.29544 0.62707 0.0
O214 O 0.53412 0.29359 0.62724 0.0
Fe215 Fe 0.54322 0.28578 0.59837 0.0
C216 C 0.57698 0.33459 0.68242 0.0
O217 O 0.55922 0.1833 0.68871 0.0
O218 O 0.62816 0.21865 0.66945 0.0
O219 O 0.48017 0.23108 0.59321 0.0
O220 O 0.46474 0.19748 0.62273 0.0
O221 O 0.39455 0.22785 0.65422 0.0
O222 O 0.43755 0.18621 0.6803 0.0
O223 O 0.5928 0.18974 0.63032 0.0
O224 O 0.59972 0.22426 0.60019 0.0
C225 C 0.39732 0.19169 0.66817 0.0
O226 O 0.48182 0.34274 0.59662 0.0
O227 O 0.41587 0.30517 0.6166 0.0
O228 O 0.55575 0.29759 0.69297 0.0
O229 O 0.58229 0.32994 0.66372 0.0
C230 C 0.60928 0.18586 0.68293 0.0
C231 C 0.61151 0.18815 0.61275 0.0
C232 C 0.65012 0.32699 0.61602 0.0
O233 O 0.6498 0.29411 0.63104 0.0
O234 O 0.60917 0.33572 0.60428 0.0
C235 C 0.45584 0.19742 0.60429 0.0
O236 O 0.45044 0.33768 0.65626 0.0
O237 O 0.4398 0.29811 0.68538 0.0
C238 C 0.43148 0.33496 0.60182 0.0
C239 C 0.43659 0.33959 0.67446 0.0
Fe240 Fe 0.99309 0.25628 0.93329 0.0
O241 O 0.9795 0.25836 0.90478 0.0
Fe242 Fe 0.99941 0.32815 0.8889 0.0
Fe243 Fe 1.0052 0.20166 0.88564 0.0
O244 O 0.97897 0.26367 0.9049 0.0
O245 O 0.02993 0.27209 0.87029 0.0
O246 O 0.02974 0.26573 0.87005 0.0
Fe247 Fe 0.01388 0.27177 0.84168 0.0
C248 C 0.09041 0.19237 0.91713 0.0
O249 O 0.93974 0.19264 0.93109 0.0
O250 O 0.97203 0.14234 0.90456 0.0
O251 O 0.95221 0.32812 0.84371 0.0
O252 O 0.92533 0.32632 0.875 0.0
O253 O 0.96028 0.37723 0.91054 0.0
O254 O 0.93527 0.31616 0.93457 0.0
O255 O 0.93076 0.20155 0.87218 0.0
O256 O 0.95839 0.20909 0.84122 0.0
C257 C 0.93016 0.36195 0.92548 0.0
O258 O 0.06398 0.33817 0.84314 0.0
O259 O 0.02645 0.38794 0.86893 0.0
O260 O 0.05568 0.20043 0.93088 0.0
O261 O 0.07985 0.19906 0.89894 0.0
C262 C 0.93918 0.15032 0.91955 0.0
C263 C 0.92637 0.18899 0.85401 0.0
C264 C 0.06395 0.16233 0.8469 0.0
O265 O 0.03627 0.15058 0.86283 0.0
O266 O 0.07142 0.21118 0.84047 0.0
C267 C 0.91882 0.34159 0.85727 0.0
O268 O 0.07366 0.33432 0.90294 0.0
O269 O 0.0507 0.31704 0.93425 0.0
C270 C 0.05456 0.38346 0.85253 0.0
C271 C 0.08379 0.33557 0.92144 0.0
H272 H 0.22074 0.94318 0.50215 0.0
H273 H 0.12805 0.01163 0.45412 0.0
H274 H 0.19393 0.97218 0.42995 0.0
H275 H 0.34623 0.97681 0.48367 0.0
H276 H 0.38078 0.9172 0.4923 0.0
H277 H 0.32152 0.94178 0.50518 0.0
H278 H 0.27486 0.84839 0.50079 0.0
H279 H 0.33425 0.82311 0.48803 0.0
H280 H 0.26863 0.81925 0.47633 0.0
H281 H 0.27761 0.93335 0.41156 0.0
H282 H 0.36689 0.89729 0.40082 0.0
H283 H 0.40515 0.85952 0.4618 0.0
C284 C 0.21337 0.94855 0.48648 0.0
C285 C 0.16914 0.98014 0.47995 0.0
C286 C 0.16117 0.98683 0.45939 0.0
C287 C 0.19868 0.96493 0.44562 0.0
C288 C 0.24363 0.93645 0.45272 0.0
C289 C 0.25058 0.9279 0.47273 0.0
C290 C 0.30417 0.90046 0.47698 0.0
C291 C 0.34028 0.93621 0.49031 0.0
C292 C 0.29492 0.84446 0.48608 0.0
C293 C 0.32722 0.89557 0.45628 0.0
C294 C 0.29168 0.91594 0.4424 0.0
C295 C 0.30533 0.9169 0.42234 0.0
C296 C 0.35629 0.89641 0.41639 0.0
C297 C 0.39338 0.87566 0.43045 0.0
C298 C 0.3781 0.87522 0.45063 0.0
H299 H 0.28349 0.95809 0.73201 0.0
H300 H 0.21151 0.88341 0.68019 0.0
H301 H 0.24581 0.95953 0.65957 0.0
H302 H 0.23906 0.08774 0.72092 0.0
H303 H 0.29742 0.12134 0.73136 0.0
H304 H 0.27596 0.05694 0.74086 0.0
H305 H 0.37124 0.01549 0.73395 0.0
H306 H 0.39366 0.0804 0.72529 0.0
H307 H 0.40081 0.0213 0.70961 0.0
H308 H 0.28929 0.04907 0.64538 0.0
H309 H 0.33885 0.13535 0.63964 0.0
H310 H 0.36247 0.15367 0.70283 0.0
C311 C 0.27634 0.95689 0.71619 0.0
C312 C 0.24571 0.91488 0.70756 0.0
C313 C 0.236 0.91494 0.68693 0.0
C314 C 0.25464 0.95834 0.67524 0.0
C315 C 0.28167 1.00129 0.68463 0.0
C316 C 0.29228 1.00034 0.70471 0.0
C317 C 0.31737 0.05222 0.71206 0.0
C318 C 0.28022 0.08124 0.72719 0.0
C319 C 0.37413 0.04172 0.72072 0.0
C320 C 0.32041 0.08285 0.69297 0.0
C321 C 0.30041 0.05324 0.67712 0.0
C322 C 0.30415 0.07276 0.65778 0.0
C323 C 0.33151 0.12223 0.65464 0.0
C324 C 0.3538 0.15141 0.67083 0.0
C325 C 0.3453 0.13255 0.69018 0.0
H326 H 0.30688 0.988 0.95948 0.0
H327 H 0.41314 0.1257 0.96899 0.0
H328 H 0.3508 0.18297 0.94959 0.0
H329 H 0.25465 0.02657 0.90946 0.0
H330 H 0.18749 1.00269 0.91549 0.0
H331 H 0.24618 0.97052 0.92609 0.0
H332 H 0.20656 0.98763 0.9612 0.0
H333 H 0.1483 0.02049 0.9508 0.0
H334 H 0.18939 0.05575 0.9688 0.0
H335 H 0.27031 0.22778 0.9334 0.0
H336 H 0.17955 0.2556 0.92149 0.0
H337 H 0.1235 0.08995 0.92519 0.0
C338 C 0.31779 0.0299 0.95704 0.0
C339 C 0.36489 0.05243 0.9657 0.0
C340 C 0.37775 0.1074 0.96222 0.0
C341 C 0.34239 0.14026 0.95131 0.0
C342 C 0.2947 0.11733 0.94391 0.0
C343 C 0.28269 0.06319 0.94649 0.0
C344 C 0.22622 0.04955 0.93921 0.0
C345 C 0.22881 1.00999 0.92151 0.0
C346 C 0.19054 0.02706 0.956 0.0
C347 C 0.20725 0.10492 0.93288 0.0
C348 C 0.2477 0.14333 0.93528 0.0
C349 C 0.23873 0.19788 0.93122 0.0
C350 C 0.18712 0.21342 0.92461 0.0
C351 C 0.14515 0.1748 0.92257 0.0
C352 C 0.15538 0.11995 0.92658 0.0
H353 H 0.1925 0.06844 0.24948 0.0
H354 H 0.2274 0.17285 0.19968 0.0
H355 H 0.18117 0.10746 0.17742 0.0
H356 H 0.23022 0.94874 0.22362 0.0
H357 H 0.18143 0.90704 0.23632 0.0
H358 H 0.20877 0.96626 0.2484 0.0
H359 H 0.11235 0.99832 0.2548 0.0
H360 H 0.0807 0.9443 0.24091 0.0
H361 H 0.06834 0.01414 0.23458 0.0
H362 H 0.13935 0.02527 0.1602 0.0
H363 H 0.10409 0.93621 0.14958 0.0
H364 H 0.10766 0.88181 0.21049 0.0
C365 C 0.19055 0.07805 0.23391 0.0
C366 C 0.21437 0.12595 0.22639 0.0
C367 C 0.20908 0.13701 0.20594 0.0
C368 C 0.18336 0.09971 0.19313 0.0
C369 C 0.16372 0.0513 0.20097 0.0
C370 C 0.16733 0.04048 0.22091 0.0
C371 C 0.14831 0.98363 0.22553 0.0
C372 C 0.19496 0.94942 0.23396 0.0
C373 C 0.09946 0.98507 0.23976 0.0
C374 C 0.13267 0.96396 0.20503 0.0
C375 C 0.14163 1.00362 0.19107 0.0
C376 C 0.1319 0.99414 0.17104 0.0
C377 C 0.11216 0.94313 0.16514 0.0
C378 C 0.10282 0.90167 0.17918 0.0
C379 C 0.11397 0.91246 0.19937 0.0
H380 H 0.25321 0.03804 0.53335 0.0
H381 H 0.12597 0.14804 0.55396 0.0
H382 H 0.18925 0.18438 0.57888 0.0
H383 H 0.32541 0.01704 0.57781 0.0
H384 H 0.39128 0.0217 0.56621 0.0
H385 H 0.33393 0.99772 0.55217 0.0
H386 H 0.35045 0.07174 0.52595 0.0
H387 H 0.40825 0.09559 0.53972 0.0
H388 H 0.35419 0.14175 0.53368 0.0
H389 H 0.26733 0.20686 0.60226 0.0
H390 H 0.35553 0.22716 0.61747 0.0
H391 H 0.43604 0.12024 0.57537 0.0
C392 C 0.23785 0.07078 0.5425 0.0
C393 C 0.18346 0.09004 0.54107 0.0
C394 C 0.16644 0.1312 0.55458 0.0
C395 C 0.20242 0.15255 0.56882 0.0
C396 C 0.25583 0.13351 0.56913 0.0
C397 C 0.27372 0.09457 0.55593 0.0
C398 C 0.33449 0.08539 0.55756 0.0
C399 C 0.34698 0.02699 0.56381 0.0
C400 C 0.36355 0.09948 0.53807 0.0
C401 C 0.34833 0.12543 0.57387 0.0
C402 C 0.302 0.15134 0.5808 0.0
C403 C 0.30387 0.18773 0.59661 0.0
C404 C 0.35444 0.19921 0.6051 0.0
C405 C 0.40294 0.1764 0.59727 0.0
C406 C 0.39969 0.13857 0.58155 0.0
H407 H 0.17282 0.89139 0.79219 0.0
H408 H 0.07521 0.94375 0.74254 0.0
H409 H 0.0395 0.01934 0.76256 0.0
H410 H 0.06386 0.93128 0.83084 0.0
H411 H 0.11449 0.95111 0.84869 0.0
H412 H 0.12839 0.89679 0.83135 0.0
H413 H 0.21505 0.94702 0.81994 0.0
H414 H 0.20074 1.00215 0.83682 0.0
H415 H 0.20952 0.01516 0.81079 0.0
H416 H 0.03698 0.10023 0.78313 0.0
H417 H 0.02957 0.16797 0.80966 0.0
H418 H 0.11606 0.06139 0.84947 0.0
C419 C 0.14212 0.91742 0.78591 0.0
C420 C 0.12747 0.91249 0.76568 0.0
C421 C 0.08749 0.94743 0.75788 0.0
C422 C 0.06722 0.99063 0.76908 0.0
C423 C 0.08564 0.99712 0.78837 0.0
C424 C 0.11963 0.96019 0.79724 0.0
C425 C 0.13162 0.97774 0.8185 0.0
C426 C 0.10818 0.93679 0.83322 0.0
C427 C 0.19288 0.986 0.82169 0.0
C428 C 0.10112 0.0314 0.81963 0.0
C429 C 0.07657 0.04188 0.80173 0.0
C430 C 0.05282 0.09142 0.79766 0.0
C431 C 0.04967 0.12995 0.81276 0.0
C432 C 0.07128 0.11953 0.83172 0.0
C433 C 0.09777 0.06962 0.83527 0.0
H434 H 0.2931 0.99926 0.02622 0.0
H435 H 0.41247 0.86995 0.03035 0.0
H436 H 0.35754 0.82767 0.05653 0.0
H437 H 0.25285 1.00698 0.07711 0.0
H438 H 0.18185 0.01634 0.07172 0.0
H439 H 0.23268 0.03941 0.0545 0.0
H440 H 0.18876 0.9821 0.02649 0.0
H441 H 0.13749 0.95931 0.04355 0.0
H442 H 0.17821 0.91061 0.03007 0.0
H443 H 0.28974 0.79935 0.0822 0.0
H444 H 0.20938 0.78053 0.10269 0.0
H445 H 0.1293 0.92298 0.07935 0.0
C446 C 0.30781 0.96172 0.03235 0.0
C447 C 0.35783 0.93846 0.02613 0.0
C448 C 0.37529 0.8897 0.03506 0.0
C449 C 0.34412 0.86505 0.04989 0.0
C450 C 0.29513 0.88912 0.05549 0.0
C451 C 0.27664 0.93587 0.04678 0.0
C452 C 0.22077 0.95147 0.05447 0.0
C453 C 0.22215 1.00683 0.06508 0.0
C454 C 0.17884 0.95081 0.03764 0.0
C455 C 0.21067 0.9061 0.06893 0.0
C456 C 0.25454 0.87115 0.06952 0.0
C457 C 0.25517 0.8264 0.08185 0.0
C458 C 0.20933 0.81636 0.09356 0.0
C459 C 0.16305 0.85059 0.09277 0.0
C460 C 0.16404 0.89624 0.08034 0.0
H461 H 0.36382 0.05492 0.26289 0.0
H462 H 0.34473 0.1935 0.30243 0.0
H463 H 0.38242 0.14001 0.32982 0.0
H464 H 0.318 0.95823 0.29709 0.0
H465 H 0.36413 0.9059 0.28882 0.0
H466 H 0.34195 0.95699 0.27184 0.0
H467 H 0.44175 0.98102 0.26428 0.0
H468 H 0.46549 0.93118 0.28153 0.0
H469 H 0.48618 1.00092 0.28415 0.0
H470 H 0.41686 0.06905 0.35347 0.0
H471 H 0.44763 0.98721 0.37107 0.0
H472 H 0.43722 0.89448 0.31627 0.0
C473 C 0.36766 0.07429 0.27726 0.0
C474 C 0.35118 0.12854 0.28044 0.0
C475 C 0.35787 0.15233 0.29948 0.0
C476 C 0.37878 0.12211 0.3152 0.0
C477 C 0.39257 0.06813 0.31167 0.0
C478 C 0.38744 0.04454 0.29314 0.0
C479 C 0.40233 0.98514 0.29339 0.0
C480 C 0.3537 0.94948 0.28743 0.0
C481 C 0.4519 0.97387 0.28005 0.0
C482 C 0.41603 0.97873 0.31503 0.0
C483 C 0.41064 0.02708 0.32533 0.0
C484 C 0.42129 0.03097 0.34555 0.0
C485 C 0.43854 0.9843 0.35542 0.0
C486 C 0.44423 0.93436 0.3451 0.0
C487 C 0.4324 0.93177 0.32467 0.0
H488 H 0.8039 0.03576 0.53755 0.0
H489 H 0.9373 0.12194 0.56554 0.0
H490 H 0.87663 0.14528 0.59371 0.0
H491 H 0.71251 0.13956 0.5459 0.0
H492 H 0.65438 0.09591 0.5487 0.0
H493 H 0.71112 0.07409 0.53384 0.0
H494 H 0.7196 0.9876 0.55498 0.0
H495 H 0.663 1.00942 0.57009 0.0
H496 H 0.72715 0.9937 0.58145 0.0
H497 H 0.79747 0.16662 0.61742 0.0
H498 H 0.70875 0.19638 0.63101 0.0
H499 H 0.62617 0.11187 0.58348 0.0
C500 C 0.82101 0.05973 0.54948 0.0
C501 C 0.87582 0.0776 0.54896 0.0
C502 C 0.89595 0.10712 0.56548 0.0
C503 C 0.86156 0.12072 0.58157 0.0
C504 C 0.807 0.10494 0.58089 0.0
C505 C 0.78691 0.07566 0.56504 0.0
C506 C 0.72553 0.07121 0.56588 0.0
C507 C 0.69938 0.09674 0.5475 0.0
C508 C 0.70779 0.01195 0.56824 0.0
C509 C 0.7136 0.10394 0.58445 0.0
C510 C 0.7612 0.12115 0.59339 0.0
C511 C 0.76019 0.15301 0.61056 0.0
C512 C 0.70958 0.16944 0.61826 0.0
C513 C 0.66073 0.15579 0.6084 0.0
C514 C 0.66286 0.12175 0.59153 0.0
H515 H 0.68854 0.05828 0.27373 0.0
H516 H 0.75953 0.16058 0.31925 0.0
H517 H 0.73608 0.09207 0.34451 0.0
H518 H 0.57716 1.00651 0.3037 0.0
H519 H 0.58047 0.94048 0.29215 0.0
H520 H 0.60045 0.99944 0.27846 0.0
H521 H 0.69411 0.95473 0.27139 0.0
H522 H 0.67479 0.89628 0.28551 0.0
H523 H 0.73548 0.93327 0.29183 0.0
H524 H 0.70786 1.00795 0.36461 0.0
H525 H 0.66793 0.92321 0.37768 0.0
H526 H 0.61871 0.87758 0.31824 0.0
C527 C 0.69867 0.06658 0.28905 0.0
C528 C 0.72587 0.11479 0.29453 0.0
C529 C 0.73809 0.12423 0.31475 0.0
C530 C 0.72547 0.08525 0.32916 0.0
C531 C 0.70043 0.03717 0.32309 0.0
C532 C 0.68646 0.0283 0.30352 0.0
C533 C 0.65966 0.97375 0.30063 0.0
C534 C 0.60098 0.98046 0.29331 0.0
C535 C 0.69302 0.93738 0.28651 0.0
C536 C 0.66104 0.95284 0.32158 0.0
C537 C 0.68474 0.98967 0.33441 0.0
C538 C 0.68909 0.97902 0.35463 0.0
C539 C 0.66661 0.93061 0.36194 0.0
C540 C 0.63982 0.8937 0.34909 0.0
C541 C 0.63889 0.90461 0.32857 0.0
H542 H 0.67029 0.87891 0.02594 0.0
H543 H 0.63808 0.04053 0.04845 0.0
H544 H 0.69666 0.02251 0.07752 0.0
H545 H 0.67598 0.8122 0.07487 0.0
H546 H 0.73083 0.76766 0.06806 0.0
H547 H 0.68218 0.78818 0.04968 0.0
H548 H 0.75633 0.82518 0.02713 0.0
H549 H 0.80885 0.80645 0.04418 0.0
H550 H 0.80312 0.87554 0.03633 0.0
H551 H 0.77002 0.99044 0.10124 0.0
H552 H 0.84741 0.94554 0.1181 0.0
H553 H 0.82782 0.80476 0.08013 0.0
C554 C 0.67435 0.90976 0.03736 0.0
C555 C 0.64975 0.9608 0.03526 0.0
C556 C 0.65635 1.00093 0.05012 0.0
C557 C 0.68947 0.99101 0.06659 0.0
C558 C 0.71461 0.94049 0.068 0.0
C559 C 0.70651 0.90023 0.05391 0.0
C560 C 0.74104 0.851 0.05786 0.0
C561 C 0.7054 0.80184 0.06288 0.0
C562 C 0.77955 0.83882 0.04033 0.0
C563 C 0.77185 0.87056 0.07579 0.0
C564 C 0.75582 0.922 0.08167 0.0
C565 C 0.78201 0.94974 0.09703 0.0
C566 C 0.82581 0.92423 0.10646 0.0
C567 C 0.8425 0.87192 0.10036 0.0
C568 C 0.81484 0.84461 0.08512 0.0
H569 H 0.84878 0.95741 0.77797 0.0
H570 H 0.78849 0.86055 0.82637 0.0
H571 H 0.81849 0.93176 0.85026 0.0
H572 H 0.95952 0.02738 0.80088 0.0
H573 H 0.94165 0.09033 0.78892 0.0
H574 H 0.92613 0.02657 0.77721 0.0
H575 H 0.82575 0.05696 0.77509 0.0
H576 H 0.84114 0.11986 0.78754 0.0
H577 H 0.78974 0.07564 0.79741 0.0
H578 H 0.84745 0.0211 0.86823 0.0
H579 H 0.8795 0.11234 0.87828 0.0
H580 H 0.9076 0.15143 0.8166 0.0
C581 C 0.84375 0.95018 0.79367 0.0
C582 C 0.81697 0.90335 0.80037 0.0
C583 C 0.81001 0.89573 0.82098 0.0
C584 C 0.82601 0.93643 0.83457 0.0
C585 C 0.84769 0.98456 0.82717 0.0
C586 C 0.85634 0.99117 0.80712 0.0
C587 C 0.87343 0.04807 0.80227 0.0
C588 C 0.92861 0.04807 0.79171 0.0
C589 C 0.82992 0.07679 0.78985 0.0
C590 C 0.8765 0.07229 0.82281 0.0
C591 C 0.86078 0.03561 0.83707 0.0
C592 C 0.85999 0.04986 0.85712 0.0
C593 C 0.8778 0.10204 0.86269 0.0
C594 C 0.89626 0.13922 0.84825 0.0
C595 C 0.89387 0.12421 0.82805 0.0
H596 H 0.83917 0.96897 0.49725 0.0
H597 H 0.89152 0.09355 0.45688 0.0
H598 H 0.81605 0.06832 0.43396 0.0
H599 H 0.79198 0.86933 0.46162 0.0
H600 H 0.73571 0.85068 0.47726 0.0
H601 H 0.79759 0.87539 0.48815 0.0
H602 H 0.74242 0.94985 0.50679 0.0
H603 H 0.68058 0.92633 0.49553 0.0
H604 H 0.701 0.99599 0.49289 0.0
H605 H 0.72785 0.02821 0.41631 0.0
H606 H 0.64495 0.97722 0.40623 0.0
H607 H 0.65155 0.88898 0.4614 0.0
C608 C 0.83567 0.99003 0.48331 0.0
C609 C 0.87142 0.03247 0.4786 0.0
C610 C 0.86502 0.06008 0.46049 0.0
C611 C 0.82195 0.04633 0.44756 0.0
C612 C 0.7857 1.00548 0.45319 0.0
C613 C 0.7928 0.97786 0.47071 0.0
C614 C 0.74759 0.93834 0.47456 0.0
C615 C 0.76953 0.88 0.47543 0.0
C616 C 0.71606 0.95357 0.49356 0.0
C617 C 0.71365 0.94709 0.45639 0.0
C618 C 0.73567 0.98551 0.44399 0.0
C619 C 0.71064 0.99805 0.42601 0.0
C620 C 0.66338 0.96909 0.4204 0.0
C621 C 0.64185 0.92824 0.43278 0.0
C622 C 0.66673 0.91922 0.45128 0.0
H623 H 0.76709 0.10262 0.21657 0.0
H624 H 0.91116 0.14999 0.2489 0.0
H625 H 0.96459 0.08124 0.23043 0.0
H626 H 0.78651 0.96819 0.21661 0.0
H627 H 0.7642 0.95242 0.19183 0.0
H628 H 0.73893 0.01196 0.20434 0.0
H629 H 0.77236 0.07225 0.17567 0.0
H630 H 0.79683 0.0127 0.16276 0.0
H631 H 0.84226 0.06835 0.16774 0.0
H632 H 0.99382 0.99387 0.21612 0.0
H633 H 1.00502 0.90349 0.20101 0.0
H634 H 0.84832 0.91758 0.17295 0.0
C635 C 0.81051 0.10028 0.2189 0.0
C636 C 0.83557 0.13222 0.23378 0.0
C637 C 0.89184 0.12686 0.23717 0.0
C638 C 0.92228 0.08766 0.22685 0.0
C639 C 0.89599 0.05511 0.21287 0.0
C640 C 0.84182 0.06214 0.20831 0.0
C641 C 0.82286 0.01901 0.19363 0.0
C642 C 0.77533 0.98596 0.20212 0.0
C643 C 0.80768 0.04461 0.17376 0.0
C644 C 0.87389 0.98477 0.19163 0.0
C645 C 0.91532 1.00643 0.20299 0.0
C646 C 0.96314 0.97805 0.2063 0.0
C647 C 0.96934 0.92686 0.19758 0.0
C648 C 0.92922 0.90517 0.18494 0.0
C649 C 0.88075 0.93456 0.18183 0.0
H650 H 0.65133 0.08378 0.96418 0.0
H651 H 0.695 0.91423 0.96182 0.0
H652 H 0.77448 0.93581 0.9407 0.0
H653 H 0.70599 0.12358 0.91348 0.0
H654 H 0.72994 0.18723 0.9234 0.0
H655 H 0.6696 0.15646 0.93346 0.0
H656 H 0.71237 0.16091 0.9684 0.0
H657 H 0.7731 0.19038 0.95846 0.0
H658 H 0.77713 0.12891 0.97255 0.0
H659 H 0.85779 0.97862 0.92434 0.0
H660 H 0.93556 0.03822 0.91546 0.0
H661 H 0.83802 0.17887 0.93072 0.0
C662 C 0.67595 0.05104 0.95823 0.0
C663 C 0.66624 0.99725 0.96396 0.0
C664 C 0.70103 0.9555 0.95698 0.0
C665 C 0.74635 0.96748 0.94507 0.0
C666 C 0.75647 0.02149 0.94041 0.0
C667 C 0.72178 0.06255 0.94667 0.0
C668 C 0.74548 0.11773 0.94243 0.0
C669 C 0.71068 0.14802 0.92729 0.0
C670 C 0.75244 0.15139 0.9616 0.0
C671 C 0.79975 0.10149 0.93366 0.0
C672 C 0.8052 0.04597 0.93208 0.0
C673 C 0.8536 0.0222 0.92531 0.0
C674 C 0.89761 0.05616 0.92035 0.0
C675 C 0.89304 0.11294 0.92273 0.0
C676 C 0.84301 0.13546 0.92902 0.0
H677 H 0.71395 0.89882 0.71948 0.0
H678 H 0.64243 0.95097 0.7753 0.0
H679 H 0.62416 0.04069 0.76139 0.0
H680 H 0.77369 0.01664 0.70423 0.0
H681 H 0.75293 0.01589 0.67868 0.0
H682 H 0.75909 0.95321 0.69192 0.0
H683 H 0.65933 0.92802 0.68413 0.0
H684 H 0.65385 0.98918 0.66995 0.0
H685 H 0.60614 0.97613 0.68964 0.0
H686 H 0.63722 0.12881 0.745 0.0
H687 H 0.62711 0.20261 0.72121 0.0
H688 H 0.66601 0.09185 0.67296 0.0
C689 C 0.69173 0.92814 0.72837 0.0
C690 C 0.68083 0.91849 0.74866 0.0
C691 C 0.65156 0.95781 0.75981 0.0
C692 C 0.64209 1.00926 0.75219 0.0
C693 C 0.65867 0.01953 0.73291 0.0
C694 C 0.67852 0.97922 0.72055 0.0
C695 C 0.68697 1.00103 0.69972 0.0
C696 C 0.74673 0.99639 0.69327 0.0
C697 C 0.64931 0.97188 0.68498 0.0
C698 C 0.67056 0.06011 0.70271 0.0
C699 C 0.6573 0.06985 0.72231 0.0
C700 C 0.6454 0.12147 0.72945 0.0
C701 C 0.64107 0.16343 0.71586 0.0
C702 C 0.64534 0.15293 0.69527 0.0
C703 C 0.66316 0.10122 0.68862 0.0
H704 H 0.66706 0.41902 0.99035 0.0
H705 H 0.64124 0.5671 0.95811 0.0
H706 H 0.7177 0.5432 0.93552 0.0
H707 H 0.80393 0.42841 0.99162 0.0
H708 H 0.81819 0.35701 0.98928 0.0
H709 H 0.75484 0.37931 0.99985 0.0
H710 H 0.70095 0.32341 0.97384 0.0
H711 H 0.76421 0.29932 0.96356 0.0
H712 H 0.71536 0.33204 0.94788 0.0
H713 H 0.80641 0.50663 0.91922 0.0
H714 H 0.89178 0.45887 0.9099 0.0
H715 H 0.85902 0.33977 0.95531 0.0
C716 C 0.67578 0.44487 0.97787 0.0
C717 C 0.64746 0.49389 0.97548 0.0
C718 C 0.66147 0.52842 0.95967 0.0
C719 C 0.70521 0.5154 0.94696 0.0
C720 C 0.73437 0.46785 0.95038 0.0
C721 C 0.71943 0.4328 0.96533 0.0
C722 C 0.75996 0.38742 0.96756 0.0
C723 C 0.78573 0.38814 0.9883 0.0
C724 C 0.73355 0.3323 0.96292 0.0
C725 C 0.80074 0.40273 0.95185 0.0
C726 C 0.78553 0.44875 0.94185 0.0
C727 C 0.81831 0.47027 0.9269 0.0
C728 C 0.86703 0.44318 0.92181 0.0
C729 C 0.88272 0.39549 0.93183 0.0
C730 C 0.84897 0.37602 0.94721 0.0
H731 H 0.83026 0.48765 0.25724 0.0
H732 H 0.74861 0.38854 0.21318 0.0
H733 H 0.76353 0.46084 0.18831 0.0
H734 H 0.76972 0.61253 0.24284 0.0
H735 H 0.82956 0.65171 0.24844 0.0
H736 H 0.81554 0.59067 0.26191 0.0
H737 H 0.90985 0.55156 0.25207 0.0
H738 H 0.92465 0.61299 0.23906 0.0
H739 H 0.92912 0.54865 0.22631 0.0
H740 H 0.79065 0.54713 0.16826 0.0
H741 H 0.83177 0.63133 0.1555 0.0
H742 H 0.88242 0.67531 0.21469 0.0
C743 C 0.81523 0.48086 0.24237 0.0
C744 C 0.78777 0.43248 0.23724 0.0
C745 C 0.77007 0.42505 0.21746 0.0
C746 C 0.77779 0.46623 0.20333 0.0
C747 C 0.80263 0.51467 0.20932 0.0
C748 C 0.82108 0.52167 0.22845 0.0
C749 C 0.84576 0.57697 0.2317 0.0
C750 C 0.81319 0.6099 0.24713 0.0
C751 C 0.90589 0.57224 0.23762 0.0
C752 C 0.83954 0.60027 0.21127 0.0
C753 C 0.81467 0.56413 0.19843 0.0
C754 C 0.80911 0.57596 0.17835 0.0
C755 C 0.83174 0.62456 0.17119 0.0
C756 C 0.8591 0.66084 0.18407 0.0
C757 C 0.86073 0.64909 0.20448 0.0
H758 H 0.82529 0.58584 0.50257 0.0
H759 H 0.89706 0.48556 0.45645 0.0
H760 H 0.82163 0.51059 0.43381 0.0
H761 H 0.68875 0.55137 0.49317 0.0
H762 H 0.66305 0.61817 0.49879 0.0
H763 H 0.72414 0.59462 0.51046 0.0
H764 H 0.77711 0.67799 0.49747 0.0
H765 H 0.71588 0.70243 0.48618 0.0
H766 H 0.77623 0.69268 0.47139 0.0
H767 H 0.73315 0.54635 0.41678 0.0
H768 H 0.64969 0.59553 0.40666 0.0
H769 H 0.63825 0.66702 0.4654 0.0
C770 C 0.82551 0.5695 0.48762 0.0
C771 C 0.86683 0.53374 0.48123 0.0
C772 C 0.86593 0.51344 0.46155 0.0
C773 C 0.82297 0.52702 0.44871 0.0
C774 C 0.78155 0.56091 0.45585 0.0
C775 C 0.78322 0.58222 0.47485 0.0
C776 C 0.73453 0.61736 0.47937 0.0
C777 C 0.70063 0.59396 0.49645 0.0
C778 C 0.75199 0.67608 0.48385 0.0
C779 C 0.70476 0.61295 0.45996 0.0
C780 C 0.73191 0.58021 0.44646 0.0
C781 C 0.71177 0.57197 0.42732 0.0
C782 C 0.66407 0.59963 0.42172 0.0
C783 C 0.63752 0.63526 0.4352 0.0
C784 C 0.6575 0.64018 0.4547 0.0
H785 H 0.75183 0.5954 0.71257 0.0
H786 H 0.62541 0.62945 0.75573 0.0
H787 H 0.56936 0.55653 0.74148 0.0
H788 H 0.64939 0.558 0.67063 0.0
H789 H 0.69503 0.50727 0.66079 0.0
H790 H 0.72177 0.56801 0.67215 0.0
H791 H 0.77847 0.50897 0.69581 0.0
H792 H 0.75085 0.44814 0.68499 0.0
H793 H 0.74454 0.46027 0.71126 0.0
H794 H 0.54558 0.46432 0.73129 0.0
H795 H 0.53355 0.37435 0.71637 0.0
H796 H 0.65799 0.40865 0.67288 0.0
C797 C 0.71105 0.58933 0.71816 0.0
C798 C 0.6923 0.61827 0.73504 0.0
C799 C 0.63969 0.60832 0.74256 0.0
C800 C 0.60785 0.56671 0.73469 0.0
C801 C 0.62842 0.53685 0.71878 0.0
C802 C 0.67735 0.54923 0.70981 0.0
C803 C 0.68971 0.50902 0.69313 0.0
C804 C 0.68891 0.53726 0.67297 0.0
C805 C 0.74412 0.4799 0.69652 0.0
C806 C 0.64207 0.4703 0.69521 0.0
C807 C 0.60821 0.48684 0.71048 0.0
C808 C 0.56874 0.45289 0.71826 0.0
C809 C 0.56173 0.40192 0.70956 0.0
C810 C 0.59095 0.38647 0.69236 0.0
C811 C 0.63254 0.42088 0.68525 0.0
H812 H 0.71893 0.60306 0.02184 0.0
H813 H 0.60294 0.55508 0.06702 0.0
H814 H 0.66729 0.58665 0.09283 0.0
H815 H 0.83523 0.54967 0.04837 0.0
H816 H 0.87977 0.6011 0.03876 0.0
H817 H 0.82267 0.57814 0.02436 0.0
H818 H 0.79026 0.67635 0.0216 0.0
H819 H 0.84454 0.70144 0.03691 0.0
H820 H 0.77485 0.71487 0.04361 0.0
H821 H 0.74674 0.62637 0.11364 0.0
H822 H 0.83059 0.66907 0.12662 0.0
H823 H 0.89722 0.67488 0.06745 0.0
C824 C 0.70679 0.5977 0.0371 0.0
C825 C 0.65555 0.57536 0.04218 0.0
C826 C 0.64145 0.5722 0.06253 0.0
C827 C 0.67813 0.5895 0.07733 0.0
C828 C 0.72919 0.6088 0.0716 0.0
C829 C 0.74344 0.61222 0.05189 0.0
C830 C 0.80118 0.63185 0.04923 0.0
C831 C 0.8368 0.58755 0.03962 0.0
C832 C 0.80286 0.68426 0.03714 0.0
C833 C 0.81695 0.64147 0.07057 0.0
C834 C 0.7752 0.62771 0.08334 0.0
C835 C 0.78006 0.63565 0.10374 0.0
C836 C 0.82833 0.65867 0.11113 0.0
C837 C 0.87161 0.67258 0.09831 0.0
C838 C 0.86558 0.66333 0.07776 0.0
H839 H 0.64989 0.439 0.29027 0.0
H840 H 0.79336 0.39998 0.32393 0.0
H841 H 0.76956 0.47208 0.34847 0.0
H842 H 0.66919 0.57458 0.29305 0.0
H843 H 0.59838 0.59304 0.2939 0.0
H844 H 0.61883 0.5307 0.28212 0.0
H845 H 0.55476 0.47575 0.30492 0.0
H846 H 0.53264 0.53844 0.31614 0.0
H847 H 0.55899 0.48485 0.33137 0.0
H848 H 0.73404 0.55891 0.36689 0.0
H849 H 0.69053 0.6461 0.37697 0.0
H850 H 0.57703 0.6283 0.32836 0.0
C851 C 0.67474 0.44386 0.30337 0.0
C852 C 0.72255 0.41325 0.30557 0.0
C853 C 0.75564 0.42207 0.32237 0.0
C854 C 0.74267 0.46335 0.33622 0.0
C855 C 0.69677 0.49535 0.33287 0.0
C856 C 0.66319 0.4854 0.31685 0.0
C857 C 0.62084 0.52902 0.31462 0.0
C858 C 0.62725 0.55855 0.29476 0.0
C859 C 0.56339 0.50559 0.31692 0.0
C860 C 0.63556 0.56548 0.33182 0.0
C861 C 0.67898 0.5457 0.34242 0.0
C862 C 0.69982 0.57438 0.35869 0.0
C863 C 0.67514 0.62398 0.36426 0.0
C864 C 0.63082 0.64466 0.35336 0.0
C865 C 0.61135 0.61457 0.33694 0.0
H866 H 0.82475 0.51586 0.5479 0.0
H867 H 0.95539 0.39915 0.55396 0.0
H868 H 0.90651 0.35731 0.58188 0.0
H869 H 0.78087 0.52313 0.60099 0.0
H870 H 0.7103 0.52583 0.59408 0.0
H871 H 0.76132 0.55486 0.57818 0.0
H872 H 0.72698 0.49562 0.54891 0.0
H873 H 0.67612 0.46646 0.56465 0.0
H874 H 0.7236 0.42314 0.55168 0.0
H875 H 0.83718 0.3197 0.60569 0.0
H876 H 0.75263 0.28658 0.62122 0.0
H877 H 0.66484 0.42305 0.59717 0.0
C878 C 0.84369 0.48203 0.55527 0.0
C879 C 0.89401 0.46084 0.54864 0.0
C880 C 0.91738 0.41682 0.5589 0.0
C881 C 0.88978 0.39267 0.57478 0.0
C882 C 0.83897 0.41304 0.58026 0.0
C883 C 0.81625 0.45687 0.57077 0.0
C884 C 0.75811 0.46626 0.57728 0.0
C885 C 0.75234 0.52076 0.58829 0.0
C886 C 0.71894 0.46261 0.55958 0.0
C887 C 0.75067 0.41932 0.59122 0.0
C888 C 0.79818 0.39003 0.59327 0.0
C889 C 0.80004 0.34285 0.60443 0.0
C890 C 0.75181 0.32436 0.61324 0.0
C891 C 0.70224 0.35229 0.61038 0.0
C892 C 0.70222 0.40108 0.59968 0.0
H893 H 0.75015 0.52947 0.7868 0.0
H894 H 0.84047 0.66434 0.81256 0.0
H895 H 0.87247 0.60407 0.83879 0.0
H896 H 0.7198 0.45342 0.83063 0.0
H897 H 0.73457 0.38918 0.81889 0.0
H898 H 0.70948 0.44467 0.80439 0.0
H899 H 0.79289 0.43705 0.78096 0.0
H900 H 0.81752 0.38097 0.79514 0.0
H901 H 0.86024 0.43924 0.79131 0.0
H902 H 0.89809 0.52723 0.86176 0.0
H903 H 0.93032 0.43983 0.87479 0.0
H904 H 0.83842 0.35416 0.82985 0.0
C905 C 0.77726 0.54726 0.79757 0.0
C906 C 0.79209 0.6029 0.79718 0.0
C907 C 0.82658 0.62281 0.81244 0.0
C908 C 0.8454 0.58862 0.82749 0.0
C909 C 0.83058 0.5341 0.827 0.0
C910 C 0.79842 0.5134 0.81209 0.0
C911 C 0.79481 0.45218 0.81302 0.0
C912 C 0.73617 0.4338 0.81697 0.0
C913 C 0.81775 0.42583 0.79399 0.0
C914 C 0.83076 0.44137 0.83066 0.0
C915 C 0.84932 0.4893 0.839 0.0
C916 C 0.88366 0.48958 0.85535 0.0
C917 C 0.90135 0.43972 0.86278 0.0
C918 C 0.88612 0.3904 0.85348 0.0
C919 C 0.84958 0.39129 0.83747 0.0
H920 H 0.29688 0.62329 0.02217 0.0
H921 H 0.38764 0.53909 0.0672 0.0
H922 H 0.31805 0.56548 0.09225 0.0
H923 H 0.24819 0.735 0.05405 0.0
H924 H 0.18309 0.73773 0.04203 0.0
H925 H 0.24244 0.71671 0.02828 0.0
H926 H 0.19518 0.62716 0.01833 0.0
H927 H 0.13534 0.647 0.03196 0.0
H928 H 0.16844 0.58369 0.0373 0.0
H929 H 0.2319 0.59466 0.1116 0.0
H930 H 0.14498 0.63315 0.12396 0.0
H931 H 0.11201 0.69543 0.06541 0.0
C932 C 0.30285 0.61172 0.03743 0.0
C933 C 0.34778 0.57959 0.04284 0.0
C934 C 0.35396 0.56454 0.06287 0.0
C935 C 0.31432 0.57886 0.07711 0.0
C936 C 0.26907 0.60853 0.07105 0.0
C937 C 0.26389 0.62562 0.05172 0.0
C938 C 0.21103 0.65555 0.04863 0.0
C939 C 0.22181 0.71476 0.04292 0.0
C940 C 0.17542 0.6266 0.03314 0.0
C941 C 0.18647 0.65177 0.06913 0.0
C942 C 0.22031 0.62466 0.08194 0.0
C943 C 0.20542 0.61626 0.10166 0.0
C944 C 0.15566 0.63777 0.10853 0.0
C945 C 0.12131 0.66728 0.09574 0.0
C946 C 0.13686 0.67299 0.07567 0.0
H947 H 0.14776 0.54533 0.75776 0.0
H948 H 0.15307 0.69173 0.79378 0.0
H949 H 0.11586 0.64119 0.82217 0.0
H950 H 0.02575 0.48541 0.77997 0.0
H951 H 0.05375 0.41804 0.77834 0.0
H952 H 0.07285 0.46811 0.7604 0.0
H953 H 0.17433 0.45212 0.7688 0.0
H954 H 0.15551 0.40272 0.78696 0.0
H955 H 0.19672 0.45997 0.79404 0.0
H956 H 0.08417 0.57101 0.84763 0.0
H957 H 0.06047 0.48901 0.86686 0.0
H958 H 0.08391 0.39062 0.81384 0.0
C959 C 0.14052 0.56706 0.77152 0.0
C960 C 0.15325 0.6225 0.77349 0.0
C961 C 0.14276 0.6494 0.79178 0.0
C962 C 0.122 0.62095 0.80805 0.0
C963 C 0.11199 0.56569 0.80579 0.0
C964 C 0.12065 0.53928 0.78789 0.0
C965 C 0.11065 0.47924 0.78946 0.0
C966 C 0.0629 0.46169 0.77626 0.0
C967 C 0.16238 0.44663 0.78453 0.0
C968 C 0.09618 0.47566 0.81112 0.0
C969 C 0.09627 0.52575 0.82037 0.0
C970 C 0.08394 0.53156 0.84049 0.0
C971 C 0.07082 0.48485 0.85133 0.0
C972 C 0.07114 0.43318 0.84202 0.0
C973 C 0.08412 0.42914 0.82165 0.0
H974 H 0.15793 0.45243 0.55511 0.0
H975 H 0.21816 0.39114 0.49884 0.0
H976 H 0.29367 0.34576 0.51587 0.0
H977 H 0.27953 0.48597 0.57498 0.0
H978 H 0.26696 0.46507 0.60008 0.0
H979 H 0.21107 0.48398 0.58453 0.0
H980 H 0.16489 0.39117 0.59023 0.0
H981 H 0.22 0.37246 0.60629 0.0
H982 H 0.20256 0.32971 0.58549 0.0
H983 H 0.37058 0.32387 0.53719 0.0
H984 H 0.43976 0.31263 0.56297 0.0
H985 H 0.33012 0.3825 0.60672 0.0
C986 C 0.18565 0.42723 0.5466 0.0
C987 C 0.18219 0.42455 0.52573 0.0
C988 C 0.22006 0.39298 0.51485 0.0
C989 C 0.26307 0.36728 0.5244 0.0
C990 C 0.26723 0.37304 0.54486 0.0
C991 C 0.22893 0.40092 0.55599 0.0
C992 C 0.24579 0.40413 0.5776 0.0
C993 C 0.25115 0.4633 0.5847 0.0
C994 C 0.20593 0.37247 0.59067 0.0
C995 C 0.30074 0.37632 0.57659 0.0
C996 C 0.31195 0.35871 0.55751 0.0
C997 C 0.36186 0.33634 0.55228 0.0
C998 C 0.40117 0.33091 0.56696 0.0
C999 C 0.39036 0.34724 0.58674 0.0
C1000 C 0.33925 0.36973 0.59169 0.0
H1001 H 0.3198 0.49246 0.27368 0.0
H1002 H 0.41271 0.3532 0.29317 0.0
H1003 H 0.44338 0.40621 0.32235 0.0
H1004 H 0.42251 0.58795 0.28472 0.0
H1005 H 0.37505 0.64056 0.29158 0.0
H1006 H 0.35571 0.58924 0.2739 0.0
H1007 H 0.27204 0.56581 0.29562 0.0
H1008 H 0.29166 0.61657 0.31355 0.0
H1009 H 0.28173 0.54747 0.32113 0.0
H1010 H 0.46513 0.47623 0.34906 0.0
H1011 H 0.48912 0.5592 0.36756 0.0
H1012 H 0.38771 0.65365 0.32832 0.0
C1013 C 0.34724 0.47276 0.2838 0.0
C1014 C 0.36405 0.41836 0.28088 0.0
C1015 C 0.39866 0.39448 0.29508 0.0
C1016 C 0.41628 0.4243 0.31172 0.0
C1017 C 0.3991 0.47795 0.3139 0.0
C1018 C 0.36605 0.50205 0.3001 0.0
C1019 C 0.35728 0.56154 0.30465 0.0
C1020 C 0.37895 0.59689 0.28771 0.0
C1021 C 0.29709 0.57352 0.309 0.0
C1022 C 0.39134 0.56766 0.32307 0.0
C1023 C 0.41395 0.51875 0.32851 0.0
C1024 C 0.44771 0.51469 0.3449 0.0
C1025 C 0.46089 0.56222 0.35538 0.0
C1026 C 0.44049 0.61329 0.34938 0.0
C1027 C 0.40408 0.61546 0.33332 0.0
H1028 H 0.29809 0.42619 1.00337 0.0
H1029 H 0.39426 0.49981 0.957 0.0
H1030 H 0.33138 0.46204 0.93182 0.0
H1031 H 0.25828 0.30262 0.97513 0.0
H1032 H 0.19156 0.30238 0.98619 0.0
H1033 H 0.24844 0.32894 0.99989 0.0
H1034 H 0.19648 0.41947 0.0051 0.0
H1035 H 0.13995 0.3935 0.99117 0.0
H1036 H 0.17224 0.45569 0.98384 0.0
H1037 H 0.25097 0.42378 0.91205 0.0
H1038 H 0.16456 0.38528 0.89967 0.0
H1039 H 0.12174 0.33887 0.95955 0.0
C1040 C 0.30657 0.4335 0.98788 0.0
C1041 C 0.35115 0.46593 0.98214 0.0
C1042 C 0.3608 0.47453 0.96172 0.0
C1043 C 0.32507 0.45349 0.94734 0.0
C1044 C 0.28022 0.42346 0.95361 0.0
C1045 C 0.27146 0.41289 0.97342 0.0
C1046 C 0.2189 0.38232 0.97657 0.0
C1047 C 0.22998 0.32571 0.98494 0.0
C1048 C 0.17959 0.4147 0.98995 0.0
C1049 C 0.19837 0.37875 0.95552 0.0
C1050 C 0.23437 0.40212 0.9424 0.0
C1051 C 0.22285 0.40492 0.92222 0.0
C1052 C 0.17349 0.38312 0.91532 0.0
C1053 C 0.13596 0.35911 0.92859 0.0
C1054 C 0.14915 0.35696 0.94893 0.0
H1055 H 0.27608 0.6181 0.69506 0.0
H1056 H 0.34288 0.6104 0.75423 0.0
H1057 H 0.40235 0.53531 0.74377 0.0
H1058 H 0.2684 0.48484 0.68515 0.0
H1059 H 0.29131 0.48386 0.65977 0.0
H1060 H 0.26103 0.54425 0.67008 0.0
H1061 H 0.34619 0.60003 0.6609 0.0
H1062 H 0.37634 0.54002 0.65006 0.0
H1063 H 0.41216 0.57764 0.66891 0.0
H1064 H 0.42704 0.44654 0.73112 0.0
H1065 H 0.44493 0.36194 0.71337 0.0
H1066 H 0.3837 0.43125 0.65912 0.0
C1067 C 0.30548 0.60242 0.70541 0.0
C1068 C 0.3053 0.62012 0.72545 0.0
C1069 C 0.34292 0.59768 0.73882 0.0
C1070 C 0.37658 0.55482 0.73303 0.0
C1071 C 0.37344 0.53583 0.71361 0.0
C1072 C 0.34096 0.56014 0.69964 0.0
C1073 C 0.3443 0.52902 0.68001 0.0
C1074 C 0.2879 0.50934 0.67337 0.0
C1075 C 0.37137 0.56375 0.66402 0.0
C1076 C 0.38056 0.48164 0.68568 0.0
C1077 C 0.39577 0.48652 0.7053 0.0
C1078 C 0.41916 0.44387 0.71539 0.0
C1079 C 0.4295 0.39583 0.70507 0.0
C1080 C 0.42026 0.39121 0.68444 0.0
C1081 C 0.39459 0.43473 0.67459 0.0
H1082 H 0.23262 0.59652 0.50311 0.0
H1083 H 0.12119 0.57069 0.45441 0.0
H1084 H 0.18347 0.62105 0.43226 0.0
H1085 H 0.2832 0.72874 0.48911 0.0
H1086 H 0.35267 0.71477 0.49578 0.0
H1087 H 0.29761 0.68302 0.50895 0.0
H1088 H 0.33383 0.58772 0.50124 0.0
H1089 H 0.39125 0.61701 0.48879 0.0
H1090 H 0.34905 0.56847 0.47601 0.0
H1091 H 0.26493 0.66241 0.41458 0.0
H1092 H 0.35449 0.69542 0.40337 0.0
H1093 H 0.41281 0.69102 0.46389 0.0
C1094 C 0.22064 0.60249 0.48787 0.0
C1095 C 0.17203 0.57971 0.48045 0.0
C1096 C 0.15783 0.58844 0.46046 0.0
C1097 C 0.19321 0.61661 0.44776 0.0
C1098 C 0.24233 0.63589 0.45537 0.0
C1099 C 0.25567 0.62951 0.47504 0.0
C1100 C 0.31263 0.64926 0.47934 0.0
C1101 C 0.31153 0.69682 0.49417 0.0
C1102 C 0.34879 0.60285 0.48678 0.0
C1103 C 0.32991 0.66725 0.45893 0.0
C1104 C 0.28887 0.65939 0.44528 0.0
C1105 C 0.29696 0.66947 0.42522 0.0
C1106 C 0.34817 0.68792 0.41898 0.0
C1107 C 0.3909 0.69593 0.43273 0.0
C1108 C 0.38107 0.68585 0.45299 0.0
H1109 H 0.27574 0.42299 0.19275 0.0
H1110 H 0.22986 0.45834 0.25369 0.0
H1111 H 0.19591 0.54733 0.24399 0.0
H1112 H 0.31004 0.55396 0.17639 0.0
H1113 H 0.27466 0.55207 0.15308 0.0
H1114 H 0.29851 0.49008 0.16394 0.0
H1115 H 0.20143 0.44985 0.16311 0.0
H1116 H 0.17797 0.51091 0.15151 0.0
H1117 H 0.14607 0.48781 0.17396 0.0
H1118 H 0.18523 0.63671 0.22983 0.0
H1119 H 0.14815 0.70995 0.20973 0.0
H1120 H 0.17538 0.61387 0.15645 0.0
C1121 C 0.25683 0.44884 0.20383 0.0
C1122 C 0.25711 0.43461 0.22412 0.0
C1123 C 0.23105 0.46901 0.23816 0.0
C1124 C 0.21246 0.52 0.23288 0.0
C1125 C 0.21686 0.53491 0.21321 0.0
C1126 C 0.23422 0.49934 0.19859 0.0
C1127 C 0.22623 0.52458 0.17827 0.0
C1128 C 0.28062 0.5305 0.16727 0.0
C1129 C 0.18548 0.49132 0.16598 0.0
C1130 C 0.20304 0.57989 0.18409 0.0
C1131 C 0.20114 0.58522 0.20443 0.0
C1132 C 0.18474 0.63271 0.21386 0.0
C1133 C 0.16455 0.67438 0.20229 0.0
C1134 C 0.15825 0.66736 0.18161 0.0
C1135 C 0.18017 0.62057 0.17218 0.0
loop_
_geom_bond_atom_site_label_1
_geom_bond_atom_site_label_2
_geom_bond_distance
_geom_bond_site_symmetry_2
_ccdc_geom_bond_type
H0 C6 0.930 . S
H1 C9 0.931 . S
H2 C11 0.931 . S
H3 C13 0.930 . S
H4 C15 0.930 . S
H5 C17 0.931 . S
C6 H0 0.930 . S
C6 C7 1.380 1_545 S
C6 C8 1.394 . S
C7 C6 1.380 1_565 S
C7 C11 1.382 . S
C8 C6 1.394 . S
C8 C9 1.400 . S
C9 H1 0.931 . S
C9 C8 1.400 . S
C9 C10 1.375 . S
C10 C9 1.375 . S
C10 C11 1.415 1_545 S
C10 C12 1.501 1_655 S
C11 H2 0.931 . S
C11 C7 1.382 . S
C11 C10 1.415 1_565 S
C12 C10 1.501 1_455 S
C12 C13 1.384 1_545 S
C12 C17 1.408 . S
C13 H3 0.930 . S
C13 C12 1.384 1_565 S
C13 C14 1.389 . S
C14 C13 1.389 . S
C14 C15 1.405 1_565 S
C15 H4 0.930 . S
C15 C14 1.405 1_545 S
C15 C16 1.364 . S
C16 C15 1.364 . S
C16 C17 1.400 . S
C17 H5 0.931 . S
C17 C12 1.408 . S
C17 C16 1.400 . S
H18 C24 0.930 . S
H19 C27 0.931 . S
H20 C29 0.931 . S
H21 C31 0.930 . S
H22 C33 0.930 . S
H23 C35 0.931 . S
C24 H18 0.930 . S
C24 C25 1.380 . S
C24 C26 1.394 . S
C25 C24 1.380 . S
C25 C29 1.382 . S
C26 C24 1.394 . S
C26 C27 1.400 . S
C27 H19 0.931 . S
C27 C26 1.400 . S
C27 C28 1.375 . S
C28 C27 1.375 . S
C28 C29 1.415 . S
C28 C30 1.501 . S
C29 H20 0.931 . S
C29 C25 1.382 . S
C29 C28 1.415 . S
C30 C28 1.501 . S
C30 C31 1.384 . S
C30 C35 1.408 . S
C31 H21 0.930 . S
C31 C30 1.384 . S
C31 C32 1.389 . S
C32 C31 1.389 . S
C32 C33 1.405 . S
C33 H22 0.930 . S
C33 C32 1.405 . S
C33 C34 1.364 . S
C34 C33 1.364 . S
C34 C35 1.400 . S
C35 H23 0.931 . S
C35 C30 1.408 . S
C35 C34 1.400 . S
H36 C42 0.930 . S
H37 C45 0.931 . S
H38 C47 0.931 . S
H39 C49 0.930 . S
H40 C51 0.930 . S
H41 C53 0.931 . S
C42 H36 0.930 . S
C42 C43 1.375 1_564 S
C42 C44 1.399 . S
C43 C42 1.375 1_546 S
C43 C47 1.382 . S
C44 C42 1.399 . S
C44 C45 1.400 . S
C45 H37 0.931 . S
C45 C44 1.400 . S
C45 C46 1.375 1_565 S
C46 C45 1.375 1_545 S
C46 C47 1.415 1_554 S
C46 C48 1.501 . S
C47 H38 0.931 . S
C47 C43 1.382 . S
C47 C46 1.415 1_556 S
C48 C46 1.501 . S
C48 C49 1.384 1_554 S
C48 C53 1.408 1_545 S
C49 H39 0.930 . S
C49 C48 1.384 1_556 S
C49 C50 1.389 . S
C50 C49 1.389 . S
C50 C51 1.405 1_556 S
C51 H40 0.930 . S
C51 C50 1.405 1_554 S
C51 C52 1.364 1_545 S
C52 C51 1.364 1_565 S
C52 C53 1.400 . S
C53 H41 0.931 . S
C53 C48 1.408 1_565 S
C53 C52 1.400 . S
H54 C60 0.930 . S
H55 C63 0.931 . S
H56 C65 0.931 . S
H57 C67 0.930 . S
H58 C69 0.930 . S
H59 C71 0.931 . S
C60 H54 0.930 . S
C60 C61 1.380 . S
C60 C62 1.394 . S
C61 C60 1.380 . S
C61 C65 1.382 . S
C62 C60 1.394 . S
C62 C63 1.400 . S
C63 H55 0.931 . S
C63 C62 1.400 . S
C63 C64 1.375 . S
C64 C63 1.375 . S
C64 C65 1.415 . S
C64 C66 1.501 . S
C65 H56 0.931 . S
C65 C61 1.382 . S
C65 C64 1.415 . S
C66 C64 1.501 . S
C66 C67 1.384 . S
C66 C71 1.408 . S
C67 H57 0.930 . S
C67 C66 1.384 . S
C67 C68 1.389 . S
C68 C67 1.389 . S
C68 C69 1.405 . S
C69 H58 0.930 . S
C69 C68 1.405 . S
C69 C70 1.364 . S
C70 C69 1.364 . S
C70 C71 1.400 . S
C71 H59 0.931 . S
C71 C66 1.408 . S
C71 C70 1.400 . S
H72 C78 0.930 . S
H73 C81 0.931 . S
H74 C83 0.931 . S
H75 C85 0.930 . S
H76 C87 0.930 . S
H77 C89 0.931 . S
C78 H72 0.930 . S
C78 C79 1.380 . S
C78 C80 1.394 . S
C79 C78 1.380 . S
C79 C83 1.382 . S
C80 C78 1.394 . S
C80 C81 1.400 . S
C81 H73 0.931 . S
C81 C80 1.400 . S
C81 C82 1.375 . S
C82 C81 1.375 . S
C82 C83 1.415 . S
C82 C84 1.501 . S
C83 H74 0.931 . S
C83 C79 1.382 . S
C83 C82 1.415 . S
C84 C82 1.501 . S
C84 C85 1.384 . S
C84 C89 1.408 . S
C85 H75 0.930 . S
C85 C84 1.384 . S
C85 C86 1.389 . S
C86 C85 1.389 . S
C86 C87 1.405 . S
C87 H76 0.930 . S
C87 C86 1.405 . S
C87 C88 1.364 . S
C88 C87 1.364 . S
C88 C89 1.400 . S
C89 H77 0.931 . S
C89 C84 1.408 . S
C89 C88 1.400 . S
H90 C96 0.930 . S
H91 C99 0.931 . S
H92 C101 0.931 . S
H93 C103 0.930 . S
H94 C105 0.930 . S
H95 C107 0.931 . S
C96 H90 0.930 . S
C96 C97 1.380 . S
C96 C98 1.394 . S
C97 C96 1.380 . S
C97 C101 1.382 . S
C98 C96 1.394 . S
C98 C99 1.400 . S
C99 H91 0.931 . S
C99 C98 1.400 . S
C99 C100 1.375 . S
C100 C99 1.375 . S
C100 C101 1.415 . S
C100 C102 1.501 . S
C101 H92 0.931 . S
C101 C97 1.382 . S
C101 C100 1.415 . S
C102 C100 1.501 . S
C102 C103 1.384 . S
C102 C107 1.408 . S
C103 H93 0.930 . S
C103 C102 1.384 . S
C103 C104 1.389 . S
C104 C103 1.389 . S
C104 C105 1.405 . S
C105 H94 0.930 . S
C105 C104 1.405 . S
C105 C106 1.364 . S
C106 C105 1.364 . S
C106 C107 1.400 . S
C107 H95 0.931 . S
C107 C102 1.408 . S
C107 C106 1.400 . S
H108 C114 0.930 . S
H109 C117 0.931 . S
H110 C119 0.931 . S
H111 C121 0.930 . S
H112 C123 0.930 . S
H113 C125 0.931 . S
C114 H108 0.930 . S
C114 C115 1.380 . S
C114 C116 1.394 1_554 S
C115 C114 1.380 . S
C115 C119 1.382 . S
C116 C114 1.394 1_556 S
C116 C117 1.400 . S
C117 H109 0.931 . S
C117 C116 1.400 . S
C117 C118 1.375 1_556 S
C118 C117 1.375 1_554 S
C118 C119 1.415 . S
C118 C120 1.501 . S
C119 H110 0.931 . S
C119 C115 1.382 . S
C119 C118 1.415 . S
C120 C118 1.501 . S
C120 C121 1.384 . S
C120 C125 1.408 1_554 S
C121 H111 0.930 . S
C121 C120 1.384 . S
C121 C122 1.389 . S
C122 C121 1.389 . S
C122 C123 1.405 . S
C123 H112 0.930 . S
C123 C122 1.405 . S
C123 C124 1.364 1_554 S
C124 C123 1.364 1_556 S
C124 C125 1.400 . S
C125 H113 0.931 . S
C125 C120 1.408 1_556 S
C125 C124 1.400 . S
H126 C132 0.930 . S
H127 C135 0.931 . S
H128 C137 0.931 . S
H129 C139 0.930 . S
H130 C141 0.930 . S
H131 C143 0.931 . S
C132 H126 0.930 . S
C132 C133 1.380 . S
C132 C134 1.394 . S
C133 C132 1.380 . S
C133 C137 1.382 . S
C134 C132 1.394 . S
C134 C135 1.400 . S
C135 H127 0.931 . S
C135 C134 1.400 . S
C135 C136 1.375 . S
C136 C135 1.375 . S
C136 C137 1.415 . S
C136 C138 1.501 1_455 S
C137 H128 0.931 . S
C137 C133 1.382 . S
C137 C136 1.415 . S
C138 C136 1.501 1_655 S
C138 C139 1.384 . S
C138 C143 1.408 . S
C139 H129 0.930 . S
C139 C138 1.384 . S
C139 C140 1.389 . S
C140 C139 1.389 . S
C140 C141 1.405 . S
C141 H130 0.930 . S
C141 C140 1.405 . S
C141 C142 1.364 . S
C142 C141 1.364 . S
C142 C143 1.400 . S
C143 H131 0.931 . S
C143 C138 1.408 . S
C143 C142 1.400 . S
Fe144 O145 1.886 . S
Fe144 O148 1.715 1_455 S
Fe144 O153 2.077 . S
Fe144 O158 1.935 1_455 S
Fe144 O164 2.077 . S
Fe144 O173 1.935 1_455 S
O145 Fe144 1.886 . S
O145 Fe147 1.715 . S
Fe146 O148 1.886 . S
Fe146 O149 1.715 . S
Fe146 O156 1.935 . S
Fe146 O157 2.077 . S
Fe146 O163 1.935 . S
Fe146 O172 2.077 . S
Fe147 O145 1.715 . S
Fe147 O150 1.886 . S
Fe147 O154 1.935 . S
Fe147 O159 2.077 . S
Fe147 O165 1.935 . S
Fe147 O169 2.077 . S
O148 Fe144 1.715 1_655 S
O148 Fe146 1.886 . S
O149 Fe146 1.715 . S
O149 Fe151 1.886 . S
O150 Fe147 1.886 . S
O150 Fe151 1.715 1_455 S
Fe151 O149 1.886 . S
Fe151 O150 1.715 1_655 S
Fe151 O155 2.077 . S
Fe151 O160 1.935 1_655 S
Fe151 O162 2.077 . S
Fe151 O170 1.935 1_655 S
C152 O164 1.381 . S
C152 O165 1.421 . S
O153 Fe144 2.077 . S
O153 C166 1.381 . S
O154 Fe147 1.935 . S
O154 C166 1.421 . S
O155 Fe151 2.077 . S
O155 C171 1.381 . S
O156 Fe146 1.935 . S
O156 C171 1.421 . S
O157 Fe146 2.077 . S
O157 C161 1.381 . S
O158 Fe144 1.935 1_655 S
O158 C161 1.421 . S
O159 Fe147 2.077 . S
O159 C167 1.381 . S
O160 Fe151 1.935 1_455 S
O160 C167 1.421 . S
C161 O157 1.381 . S
C161 O158 1.421 . S
O162 Fe151 2.077 . S
O162 C174 1.381 . S
O163 Fe146 1.935 . S
O163 C174 1.421 . S
O164 Fe144 2.077 . S
O164 C152 1.381 . S
O165 Fe147 1.935 . S
O165 C152 1.421 . S
C166 O153 1.381 . S
C166 O154 1.421 . S
C167 O159 1.381 . S
C167 O160 1.421 . S
C168 O169 1.381 . S
C168 O170 1.421 . S
O169 Fe147 2.077 . S
O169 C168 1.381 . S
O170 Fe151 1.935 1_455 S
O170 C168 1.421 . S
C171 O155 1.381 . S
C171 O156 1.421 . S
O172 Fe146 2.077 . S
O172 C175 1.381 . S
O173 Fe144 1.935 1_655 S
O173 C175 1.421 . S
C174 O162 1.381 . S
C174 O163 1.421 . S
C175 O172 1.381 . S
C175 O173 1.421 . S
Fe176 O177 1.886 . S
Fe176 O180 1.715 . S
Fe176 O185 2.077 . S
Fe176 O190 1.935 . S
Fe176 O196 2.077 . S
Fe176 O205 1.935 . S
O177 Fe176 1.886 . S
O177 Fe179 1.715 . S
Fe178 O180 1.886 . S
Fe178 O181 1.715 . S
Fe178 O188 1.935 . S
Fe178 O189 2.077 . S
Fe178 O195 1.935 . S
Fe178 O204 2.077 . S
Fe179 O177 1.715 . S
Fe179 O182 1.886 . S
Fe179 O186 1.935 . S
Fe179 O191 2.077 . S
Fe179 O197 1.935 . S
Fe179 O201 2.077 . S
O180 Fe176 1.715 . S
O180 Fe178 1.886 . S
O181 Fe178 1.715 . S
O181 Fe183 1.886 . S
O182 Fe179 1.886 . S
O182 Fe183 1.715 . S
Fe183 O181 1.886 . S
Fe183 O182 1.715 . S
Fe183 O187 2.077 . S
Fe183 O192 1.935 . S
Fe183 O194 2.077 . S
Fe183 O202 1.935 . S
C184 O196 1.381 . S
C184 O197 1.421 . S
O185 Fe176 2.077 . S
O185 C198 1.381 . S
O186 Fe179 1.935 . S
O186 C198 1.421 . S
O187 Fe183 2.077 . S
O187 C203 1.381 . S
O188 Fe178 1.935 . S
O188 C203 1.421 . S
O189 Fe178 2.077 . S
O189 C193 1.381 . S
O190 Fe176 1.935 . S
O190 C193 1.421 . S
O191 Fe179 2.077 . S
O191 C199 1.381 . S
O192 Fe183 1.935 . S
O192 C199 1.421 . S
C193 O189 1.381 . S
C193 O190 1.421 . S
O194 Fe183 2.077 . S
O194 C206 1.381 . S
O195 Fe178 1.935 . S
O195 C206 1.421 . S
O196 Fe176 2.077 . S
O196 C184 1.381 . S
O197 Fe179 1.935 . S
O197 C184 1.421 . S
C198 O185 1.381 . S
C198 O186 1.421 . S
C199 O191 1.381 . S
C199 O192 1.421 . S
C200 O201 1.381 . S
C200 O202 1.421 . S
O201 Fe179 2.077 . S
O201 C200 1.381 . S
O202 Fe183 1.935 . S
O202 C200 1.421 . S
C203 O187 1.381 . S
C203 O188 1.421 . S
O204 Fe178 2.077 . S
O204 C207 1.381 . S
O205 Fe176 1.935 . S
O205 C207 1.421 . S
C206 O194 1.381 . S
C206 O195 1.421 . S
C207 O204 1.381 . S
C207 O205 1.421 . S
Fe208 O209 1.886 . S
Fe208 O212 1.715 . S
Fe208 O217 2.077 . S
Fe208 O222 1.935 . S
Fe208 O228 2.077 . S
Fe208 O237 1.935 . S
O209 Fe208 1.886 . S
O209 Fe211 1.715 . S
Fe210 O212 1.886 . S
Fe210 O213 1.715 . S
Fe210 O220 1.935 . S
Fe210 O221 2.077 . S
Fe210 O227 1.935 . S
Fe210 O236 2.077 . S
Fe211 O209 1.715 . S
Fe211 O214 1.886 . S
Fe211 O218 1.935 . S
Fe211 O223 2.077 . S
Fe211 O229 1.935 . S
Fe211 O233 2.077 . S
O212 Fe208 1.715 . S
O212 Fe210 1.886 . S
O213 Fe210 1.715 . S
O213 Fe215 1.886 . S
O214 Fe211 1.886 . S
O214 Fe215 1.715 . S
Fe215 O213 1.886 . S
Fe215 O214 1.715 . S
Fe215 O219 2.077 . S
Fe215 O224 1.935 . S
Fe215 O226 2.077 . S
Fe215 O234 1.935 . S
C216 O228 1.381 . S
C216 O229 1.421 . S
O217 Fe208 2.077 . S
O217 C230 1.381 . S
O218 Fe211 1.935 . S
O218 C230 1.421 . S
O219 Fe215 2.077 . S
O219 C235 1.381 . S
O220 Fe210 1.935 . S
O220 C235 1.421 . S
O221 Fe210 2.077 . S
O221 C225 1.381 . S
O222 Fe208 1.935 . S
O222 C225 1.421 . S
O223 Fe211 2.077 . S
O223 C231 1.381 . S
O224 Fe215 1.935 . S
O224 C231 1.421 . S
C225 O221 1.381 . S
C225 O222 1.421 . S
O226 Fe215 2.077 . S
O226 C238 1.381 . S
O227 Fe210 1.935 . S
O227 C238 1.421 . S
O228 Fe208 2.077 . S
O228 C216 1.381 . S
O229 Fe211 1.935 . S
O229 C216 1.421 . S
C230 O217 1.381 . S
C230 O218 1.421 . S
C231 O223 1.381 . S
C231 O224 1.421 . S
C232 O233 1.381 . S
C232 O234 1.421 . S
O233 Fe211 2.077 . S
O233 C232 1.381 . S
O234 Fe215 1.935 . S
O234 C232 1.421 . S
C235 O219 1.381 . S
C235 O220 1.421 . S
O236 Fe210 2.077 . S
O236 C239 1.381 . S
O237 Fe208 1.935 . S
O237 C239 1.421 . S
C238 O226 1.381 . S
C238 O227 1.421 . S
C239 O236 1.381 . S
C239 O237 1.421 . S
Fe240 O241 1.886 . S
Fe240 O244 1.715 . S
Fe240 O249 2.077 1_455 S
Fe240 O254 1.935 1_455 S
Fe240 O260 2.077 . S
Fe240 O269 1.935 . S
O241 Fe240 1.886 . S
O241 Fe243 1.715 . S
Fe242 O244 1.886 . S
Fe242 O245 1.715 . S
Fe242 O252 1.935 1_455 S
Fe242 O253 2.077 1_455 S
Fe242 O259 1.936 . S
Fe242 O268 2.078 . S
Fe243 O241 1.715 . S
Fe243 O246 1.886 . S
Fe243 O250 1.936 1_455 S
Fe243 O255 2.078 1_455 S
Fe243 O261 1.935 . S
Fe243 O265 2.077 . S
O244 Fe240 1.715 . S
O244 Fe242 1.886 . S
O245 Fe242 1.715 . S
O245 Fe247 1.886 . S
O246 Fe243 1.886 . S
O246 Fe247 1.715 . S
Fe247 O245 1.886 . S
Fe247 O246 1.715 . S
Fe247 O251 2.077 1_455 S
Fe247 O256 1.935 1_455 S
Fe247 O258 2.077 . S
Fe247 O266 1.935 . S
C248 O260 1.381 . S
C248 O261 1.421 . S
O249 Fe240 2.077 1_655 S
O249 C262 1.381 . S
O250 Fe243 1.936 1_655 S
O250 C262 1.421 . S
O251 Fe247 2.077 1_655 S
O251 C267 1.381 . S
O252 Fe242 1.935 1_655 S
O252 C267 1.421 . S
O253 Fe242 2.077 1_655 S
O253 C257 1.381 . S
O254 Fe240 1.935 1_655 S
O254 C257 1.421 . S
O255 Fe243 2.078 1_655 S
O255 C263 1.381 . S
O256 Fe247 1.935 1_655 S
O256 C263 1.421 . S
C257 O253 1.381 . S
C257 O254 1.421 . S
O258 Fe247 2.077 . S
O258 C270 1.381 . S
O259 Fe242 1.936 . S
O259 C270 1.421 . S
O260 Fe240 2.077 . S
O260 C248 1.381 . S
O261 Fe243 1.935 . S
O261 C248 1.421 . S
C262 O249 1.381 . S
C262 O250 1.421 . S
C263 O255 1.381 . S
C263 O256 1.421 . S
C264 O265 1.381 . S
C264 O266 1.421 . S
O265 Fe243 2.077 . S
O265 C264 1.381 . S
O266 Fe247 1.935 . S
O266 C264 1.421 . S
C267 O251 1.381 . S
C267 O252 1.421 . S
O268 Fe242 2.078 . S
O268 C271 1.381 . S
O269 Fe240 1.935 . S
O269 C271 1.421 . S
C270 O258 1.381 . S
C270 O259 1.421 . S
C271 O268 1.381 . S
C271 O269 1.421 . S
H272 C284 0.930 . S
H273 C286 0.930 . S
H274 C287 0.930 . S
H275 C291 0.959 1_545 S
H276 C291 0.959 . S
H277 C291 0.961 . S
H278 C292 0.960 . S
H279 C292 0.961 . S
H280 C292 0.959 . S
H281 C295 0.929 . S
H282 C296 0.931 . S
H283 C298 0.930 . S
C284 H272 0.930 . S
C284 C285 1.399 . S
C284 C289 1.399 . S
C285 C284 1.399 . S
C285 C286 1.376 . S
C286 H273 0.930 . S
C286 C285 1.376 . S
C286 C287 1.388 . S
C287 H274 0.930 . S
C287 C286 1.388 . S
C287 C288 1.390 . S
C288 C287 1.390 . S
C288 C289 1.394 . S
C288 C294 1.465 . S
C289 C284 1.399 . S
C289 C288 1.394 . S
C289 C290 1.516 . S
C290 C289 1.516 . S
C290 C291 1.502 . S
C290 C292 1.561 . S
C290 C293 1.526 . S
C291 H275 0.959 1_565 S
C291 H276 0.959 . S
C291 H277 0.961 . S
C291 C290 1.502 . S
C292 H278 0.960 . S
C292 H279 0.961 . S
C292 H280 0.959 . S
C292 C290 1.561 . S
C293 C290 1.526 . S
C293 C294 1.396 . S
C293 C298 1.390 . S
C294 C288 1.465 . S
C294 C293 1.396 . S
C294 C295 1.399 . S
C295 H281 0.929 . S
C295 C294 1.399 . S
C295 C296 1.385 . S
C296 H282 0.931 . S
C296 C295 1.385 . S
C296 C297 1.389 . S
C297 C296 1.389 . S
C297 C298 1.387 . S
C298 H283 0.930 . S
C298 C293 1.390 . S
C298 C297 1.387 . S
H299 C311 0.930 . S
H300 C313 0.930 . S
H301 C314 0.930 . S
H302 C318 0.959 . S
H303 C318 0.959 . S
H304 C318 0.961 . S
H305 C319 0.960 . S
H306 C319 0.961 . S
H307 C319 0.959 . S
H308 C322 0.929 . S
H309 C323 0.931 . S
H310 C325 0.930 . S
C311 H299 0.930 . S
C311 C312 1.399 . S
C311 C316 1.399 . S
C312 C311 1.399 . S
C312 C313 1.376 . S
C313 H300 0.930 . S
C313 C312 1.376 . S
C313 C314 1.388 . S
C314 H301 0.930 . S
C314 C313 1.388 . S
C314 C315 1.390 . S
C315 C314 1.390 . S
C315 C316 1.394 . S
C315 C321 1.465 1_565 S
C316 C311 1.399 . S
C316 C315 1.394 . S
C316 C317 1.516 1_565 S
C317 C316 1.516 1_545 S
C317 C318 1.502 . S
C317 C319 1.561 . S
C317 C320 1.526 . S
C318 H302 0.959 . S
C318 H303 0.959 . S
C318 H304 0.961 . S
C318 C317 1.502 . S
C319 H305 0.960 . S
C319 H306 0.961 . S
C319 H307 0.959 . S
C319 C317 1.561 . S
C320 C317 1.526 . S
C320 C321 1.396 . S
C320 C325 1.390 . S
C321 C315 1.465 1_545 S
C321 C320 1.396 . S
C321 C322 1.399 . S
C322 H308 0.929 . S
C322 C321 1.399 . S
C322 C323 1.385 . S
C323 H309 0.931 . S
C323 C322 1.385 . S
C323 C324 1.389 . S
C324 C323 1.389 . S
C324 C325 1.387 . S
C325 H310 0.930 . S
C325 C320 1.390 . S
C325 C324 1.387 . S
H326 C338 0.917 1_565 S
H327 C340 0.930 . S
H328 C341 0.930 . S
H329 C345 0.959 . S
H330 C345 0.959 1_565 S
H331 C345 0.961 1_565 S
H332 C346 0.960 1_565 S
H333 C346 0.961 1_565 S
H334 C346 0.959 . S
H335 C349 0.929 . S
H336 C350 0.931 . S
H337 C352 0.930 . S
C338 H326 0.917 1_545 S
C338 C339 1.399 . S
C338 C343 1.399 . S
C339 C338 1.399 . S
C339 C340 1.376 . S
C340 H327 0.930 . S
C340 C339 1.376 . S
C340 C341 1.388 . S
C341 H328 0.930 . S
C341 C340 1.388 . S
C341 C342 1.390 . S
C342 C341 1.390 . S
C342 C343 1.394 . S
C342 C348 1.465 . S
C343 C338 1.399 . S
C343 C342 1.394 . S
C343 C344 1.516 . S
C344 C343 1.516 . S
C344 C345 1.502 . S
C344 C346 1.561 . S
C344 C347 1.526 . S
C345 H329 0.959 . S
C345 H330 0.959 1_545 S
C345 H331 0.961 1_545 S
C345 C344 1.502 . S
C346 H332 0.960 1_545 S
C346 H333 0.961 1_545 S
C346 H334 0.959 . S
C346 C344 1.561 . S
C347 C344 1.526 . S
C347 C348 1.396 . S
C347 C352 1.390 . S
C348 C342 1.465 . S
C348 C347 1.396 . S
C348 C349 1.399 . S
C349 H335 0.929 . S
C349 C348 1.399 . S
C349 C350 1.385 . S
C350 H336 0.931 . S
C350 C349 1.385 . S
C350 C351 1.389 . S
C351 C350 1.389 . S
C351 C352 1.387 . S
C352 H337 0.930 . S
C352 C347 1.390 . S
C352 C351 1.387 . S
H353 C365 0.930 . S
H354 C367 0.930 . S
H355 C368 0.930 1_565 S
H356 C372 0.959 . S
H357 C372 0.959 . S
H358 C372 0.961 . S
H359 C373 0.960 . S
H360 C373 0.961 . S
H361 C373 0.959 . S
H362 C376 0.929 . S
H363 C377 0.931 . S
H364 C379 0.930 . S
C365 H353 0.930 . S
C365 C366 1.399 . S
C365 C370 1.399 . S
C366 C365 1.399 . S
C366 C367 1.376 . S
C367 H354 0.930 . S
C367 C366 1.376 . S
C367 C368 1.388 . S
C368 H355 0.930 1_545 S
C368 C367 1.388 . S
C368 C369 1.390 . S
C369 C368 1.390 . S
C369 C370 1.394 . S
C369 C375 1.465 1_545 S
C370 C365 1.399 . S
C370 C369 1.394 . S
C370 C371 1.516 . S
C371 C370 1.516 . S
C371 C372 1.502 . S
C371 C373 1.561 . S
C371 C374 1.526 1_545 S
C372 H356 0.959 . S
C372 H357 0.959 . S
C372 H358 0.961 . S
C372 C371 1.502 . S
C373 H359 0.960 . S
C373 H360 0.961 . S
C373 H361 0.959 . S
C373 C371 1.561 . S
C374 C371 1.526 1_565 S
C374 C375 1.396 . S
C374 C379 1.390 . S
C375 C369 1.465 1_565 S
C375 C374 1.396 . S
C375 C376 1.399 . S
C376 H362 0.929 . S
C376 C375 1.399 . S
C376 C377 1.385 . S
C377 H363 0.931 . S
C377 C376 1.385 . S
C377 C378 1.389 . S
C378 C377 1.389 . S
C378 C379 1.387 . S
C379 H364 0.930 . S
C379 C374 1.390 . S
C379 C378 1.387 . S
H380 C392 0.930 . S
H381 C394 0.930 . S
H382 C395 0.930 . S
H383 C399 0.959 . S
H384 C399 0.955 1_565 S
H385 C399 0.961 1_565 S
H386 C400 0.960 . S
H387 C400 0.961 . S
H388 C400 0.959 . S
H389 C403 0.929 . S
H390 C404 0.931 . S
H391 C406 0.930 . S
C392 H380 0.930 . S
C392 C393 1.399 . S
C392 C397 1.399 . S
C393 C392 1.399 . S
C393 C394 1.376 . S
C394 H381 0.930 . S
C394 C393 1.376 . S
C394 C395 1.388 . S
C395 H382 0.930 . S
C395 C394 1.388 . S
C395 C396 1.390 . S
C396 C395 1.390 . S
C396 C397 1.394 . S
C396 C402 1.465 . S
C397 C392 1.399 . S
C397 C396 1.394 . S
C397 C398 1.516 . S
C398 C397 1.516 . S
C398 C399 1.502 . S
C398 C400 1.561 . S
C398 C401 1.526 . S
C399 H383 0.959 . S
C399 H384 0.955 1_545 S
C399 H385 0.961 1_545 S
C399 C398 1.502 . S
C400 H386 0.960 . S
C400 H387 0.961 . S
C400 H388 0.959 . S
C400 C398 1.561 . S
C401 C398 1.526 . S
C401 C402 1.396 . S
C401 C406 1.390 . S
C402 C396 1.465 . S
C402 C401 1.396 . S
C402 C403 1.399 . S
C403 H389 0.929 . S
C403 C402 1.399 . S
C403 C404 1.385 . S
C404 H390 0.931 . S
C404 C403 1.385 . S
C404 C405 1.389 . S
C405 C404 1.389 . S
C405 C406 1.387 . S
C406 H391 0.930 . S
C406 C401 1.390 . S
C406 C405 1.387 . S
H407 C419 0.930 . S
H408 C421 0.930 . S
H409 C422 0.930 . S
H410 C426 0.959 . S
H411 C426 0.959 . S
H412 C426 0.961 . S
H413 C427 0.960 . S
H414 C427 0.961 . S
H415 C427 0.959 . S
H416 C430 0.929 . S
H417 C431 0.931 . S
H418 C433 0.930 . S
C419 H407 0.930 . S
C419 C420 1.399 . S
C419 C424 1.399 . S
C420 C419 1.399 . S
C420 C421 1.376 . S
C421 H408 0.930 . S
C421 C420 1.376 . S
C421 C422 1.388 1_565 S
C422 H409 0.930 . S
C422 C421 1.388 1_545 S
C422 C423 1.390 . S
C423 C422 1.390 . S
C423 C424 1.394 1_545 S
C423 C429 1.465 . S
C424 C419 1.399 . S
C424 C423 1.394 1_565 S
C424 C425 1.516 . S
C425 C424 1.516 . S
C425 C426 1.502 . S
C425 C427 1.561 . S
C425 C428 1.526 1_565 S
C426 H410 0.959 . S
C426 H411 0.959 . S
C426 H412 0.961 . S
C426 C425 1.502 . S
C427 H413 0.960 . S
C427 H414 0.961 . S
C427 H415 0.959 . S
C427 C425 1.561 . S
C428 C425 1.526 1_545 S
C428 C429 1.396 . S
C428 C433 1.390 . S
C429 C423 1.465 . S
C429 C428 1.396 . S
C429 C430 1.399 . S
C430 H416 0.929 . S
C430 C429 1.399 . S
C430 C431 1.385 . S
C431 H417 0.931 . S
C431 C430 1.385 . S
C431 C432 1.389 . S
C432 C431 1.389 . S
C432 C433 1.387 . S
C433 H418 0.930 . S
C433 C428 1.390 . S
C433 C432 1.387 . S
H434 C446 0.930 . S
H435 C448 0.930 . S
H436 C449 0.930 . S
H437 C453 0.959 . S
H438 C453 0.959 . S
H439 C453 0.961 . S
H440 C454 0.960 . S
H441 C454 0.961 . S
H442 C454 0.959 . S
H443 C457 0.929 . S
H444 C458 0.931 . S
H445 C460 0.930 . S
C446 H434 0.930 . S
C446 C447 1.399 . S
C446 C451 1.399 . S
C447 C446 1.399 . S
C447 C448 1.376 . S
C448 H435 0.930 . S
C448 C447 1.376 . S
C448 C449 1.388 . S
C449 H436 0.930 . S
C449 C448 1.388 . S
C449 C450 1.390 . S
C450 C449 1.390 . S
C450 C451 1.394 . S
C450 C456 1.465 . S
C451 C446 1.399 . S
C451 C450 1.394 . S
C451 C452 1.516 . S
C452 C451 1.516 . S
C452 C453 1.502 . S
C452 C454 1.561 1_565 S
C452 C455 1.526 . S
C453 H437 0.959 . S
C453 H438 0.959 . S
C453 H439 0.961 . S
C453 C452 1.502 . S
C454 H440 0.960 . S
C454 H441 0.961 . S
C454 H442 0.959 . S
C454 C452 1.561 1_545 S
C455 C452 1.526 . S
C455 C456 1.396 . S
C455 C460 1.390 . S
C456 C450 1.465 . S
C456 C455 1.396 . S
C456 C457 1.399 . S
C457 H443 0.929 . S
C457 C456 1.399 . S
C457 C458 1.385 . S
C458 H444 0.931 . S
C458 C457 1.385 . S
C458 C459 1.389 . S
C459 C458 1.389 . S
C459 C460 1.387 . S
C460 H445 0.930 . S
C460 C455 1.390 . S
C460 C459 1.387 . S
H461 C473 0.930 . S
H462 C475 0.930 . S
H463 C476 0.930 . S
H464 C480 0.959 . S
H465 C480 0.959 . S
H466 C480 0.961 . S
H467 C481 0.960 . S
H468 C481 0.961 . S
H469 C481 0.959 . S
H470 C484 0.929 1_545 S
H471 C485 0.931 . S
H472 C487 0.930 . S
C473 H461 0.930 . S
C473 C474 1.399 . S
C473 C478 1.399 . S
C474 C473 1.399 . S
C474 C475 1.376 . S
C475 H462 0.930 . S
C475 C474 1.376 . S
C475 C476 1.388 . S
C476 H463 0.930 . S
C476 C475 1.388 . S
C476 C477 1.390 . S
C477 C476 1.390 . S
C477 C478 1.394 . S
C477 C483 1.465 1_545 S
C478 C473 1.399 . S
C478 C477 1.394 . S
C478 C479 1.516 1_545 S
C479 C478 1.516 1_565 S
C479 C480 1.502 . S
C479 C481 1.561 . S
C479 C482 1.526 . S
C480 H464 0.959 . S
C480 H465 0.959 . S
C480 H466 0.961 . S
C480 C479 1.502 . S
C481 H467 0.960 . S
C481 H468 0.961 . S
C481 H469 0.959 . S
C481 C479 1.561 . S
C482 C479 1.526 . S
C482 C483 1.396 . S
C482 C487 1.390 . S
C483 C477 1.465 1_565 S
C483 C482 1.396 . S
C483 C484 1.399 . S
C484 H470 0.929 1_565 S
C484 C483 1.399 . S
C484 C485 1.385 . S
C485 H471 0.931 . S
C485 C484 1.385 . S
C485 C486 1.389 . S
C486 C485 1.389 . S
C486 C487 1.387 . S
C487 H472 0.930 . S
C487 C482 1.390 . S
C487 C486 1.387 . S
H488 C500 0.930 . S
H489 C502 0.930 . S
H490 C503 0.930 . S
H491 C507 0.959 . S
H492 C507 0.959 . S
H493 C507 0.961 1_565 S
H494 C508 0.960 . S
H495 C508 0.961 . S
H496 C508 0.959 1_545 S
H497 C511 0.929 . S
H498 C512 0.931 . S
H499 C514 0.930 . S
C500 H488 0.930 . S
C500 C501 1.399 . S
C500 C505 1.399 . S
C501 C500 1.399 . S
C501 C502 1.376 . S
C502 H489 0.930 . S
C502 C501 1.376 . S
C502 C503 1.388 . S
C503 H490 0.930 . S
C503 C502 1.388 . S
C503 C504 1.390 . S
C504 C503 1.390 . S
C504 C505 1.394 . S
C504 C510 1.465 . S
C505 C500 1.399 . S
C505 C504 1.394 . S
C505 C506 1.516 . S
C506 C505 1.516 . S
C506 C507 1.502 . S
C506 C508 1.561 1_545 S
C506 C509 1.526 . S
C507 H491 0.959 . S
C507 H492 0.959 . S
C507 H493 0.961 1_545 S
C507 C506 1.502 . S
C508 H494 0.960 . S
C508 H495 0.961 . S
C508 H496 0.959 1_565 S
C508 C506 1.561 1_565 S
C509 C506 1.526 . S
C509 C510 1.396 . S
C509 C514 1.390 . S
C510 C504 1.465 . S
C510 C509 1.396 . S
C510 C511 1.399 . S
C511 H497 0.929 . S
C511 C510 1.399 . S
C511 C512 1.385 . S
C512 H498 0.931 . S
C512 C511 1.385 . S
C512 C513 1.389 . S
C513 C512 1.389 . S
C513 C514 1.387 . S
C514 H499 0.930 . S
C514 C509 1.390 . S
C514 C513 1.387 . S
H515 C527 0.930 . S
H516 C529 0.930 . S
H517 C530 0.930 . S
H518 C534 0.959 1_545 S
H519 C534 0.959 . S
H520 C534 0.961 1_545 S
H521 C535 0.960 . S
H522 C535 0.961 . S
H523 C535 0.959 . S
H524 C538 0.929 . S
H525 C539 0.931 . S
H526 C541 0.930 . S
C527 H515 0.930 . S
C527 C528 1.399 . S
C527 C532 1.399 . S
C528 C527 1.399 . S
C528 C529 1.376 . S
C529 H516 0.930 . S
C529 C528 1.376 . S
C529 C530 1.388 . S
C530 H517 0.930 . S
C530 C529 1.388 . S
C530 C531 1.390 . S
C531 C530 1.390 . S
C531 C532 1.394 . S
C531 C537 1.465 1_545 S
C532 C527 1.399 . S
C532 C531 1.394 . S
C532 C533 1.516 1_545 S
C533 C532 1.516 1_565 S
C533 C534 1.502 . S
C533 C535 1.561 . S
C533 C536 1.526 . S
C534 H518 0.959 1_565 S
C534 H519 0.959 . S
C534 H520 0.961 1_565 S
C534 C533 1.502 . S
C535 H521 0.960 . S
C535 H522 0.961 . S
C535 H523 0.959 . S
C535 C533 1.561 . S
C536 C533 1.526 . S
C536 C537 1.396 . S
C536 C541 1.390 . S
C537 C531 1.465 1_565 S
C537 C536 1.396 . S
C537 C538 1.399 . S
C538 H524 0.929 . S
C538 C537 1.399 . S
C538 C539 1.385 . S
C539 H525 0.931 . S
C539 C538 1.385 . S
C539 C540 1.389 . S
C540 C539 1.389 . S
C540 C541 1.387 . S
C541 H526 0.930 . S
C541 C536 1.390 . S
C541 C540 1.387 . S
H542 C554 0.930 . S
H543 C556 0.930 . S
H544 C557 0.930 1_545 S
H545 C561 0.959 . S
H546 C561 0.959 . S
H547 C561 0.961 . S
H548 C562 0.960 . S
H549 C562 0.961 . S
H550 C562 0.959 . S
H551 C565 0.929 . S
H552 C566 0.931 . S
H553 C568 0.930 . S
C554 H542 0.930 . S
C554 C555 1.399 . S
C554 C559 1.399 . S
C555 C554 1.399 . S
C555 C556 1.376 1_565 S
C556 H543 0.930 . S
C556 C555 1.376 1_545 S
C556 C557 1.388 1_545 S
C557 H544 0.930 1_565 S
C557 C556 1.388 1_565 S
C557 C558 1.390 . S
C558 C557 1.390 . S
C558 C559 1.394 . S
C558 C564 1.465 . S
C559 C554 1.399 . S
C559 C558 1.394 . S
C559 C560 1.516 . S
C560 C559 1.516 . S
C560 C561 1.502 . S
C560 C562 1.561 . S
C560 C563 1.526 . S
C561 H545 0.959 . S
C561 H546 0.959 . S
C561 H547 0.961 . S
C561 C560 1.502 . S
C562 H548 0.960 . S
C562 H549 0.961 . S
C562 H550 0.959 . S
C562 C560 1.561 . S
C563 C560 1.526 . S
C563 C564 1.396 . S
C563 C568 1.390 . S
C564 C558 1.465 . S
C564 C563 1.396 . S
C564 C565 1.399 . S
C565 H551 0.929 . S
C565 C564 1.399 . S
C565 C566 1.385 . S
C566 H552 0.931 . S
C566 C565 1.385 . S
C566 C567 1.389 . S
C567 C566 1.389 . S
C567 C568 1.387 . S
C568 H553 0.930 . S
C568 C563 1.390 . S
C568 C567 1.387 . S
H569 C581 0.930 . S
H570 C583 0.930 . S
H571 C584 0.930 . S
H572 C588 0.959 . S
H573 C588 0.959 . S
H574 C588 0.961 . S
H575 C589 0.960 . S
H576 C589 0.961 . S
H577 C589 0.959 . S
H578 C592 0.929 . S
H579 C593 0.931 . S
H580 C595 0.930 . S
C581 H569 0.930 . S
C581 C582 1.399 . S
C581 C586 1.399 . S
C582 C581 1.399 . S
C582 C583 1.376 . S
C583 H570 0.930 . S
C583 C582 1.376 . S
C583 C584 1.388 . S
C584 H571 0.930 . S
C584 C583 1.388 . S
C584 C585 1.390 . S
C585 C584 1.390 . S
C585 C586 1.394 . S
C585 C591 1.465 1_565 S
C586 C581 1.399 . S
C586 C585 1.394 . S
C586 C587 1.516 1_565 S
C587 C586 1.516 1_545 S
C587 C588 1.502 . S
C587 C589 1.561 . S
C587 C590 1.526 . S
C588 H572 0.959 . S
C588 H573 0.959 . S
C588 H574 0.961 . S
C588 C587 1.502 . S
C589 H575 0.960 . S
C589 H576 0.961 . S
C589 H577 0.959 . S
C589 C587 1.561 . S
C590 C587 1.526 . S
C590 C591 1.396 . S
C590 C595 1.390 . S
C591 C585 1.465 1_545 S
C591 C590 1.396 . S
C591 C592 1.399 . S
C592 H578 0.929 . S
C592 C591 1.399 . S
C592 C593 1.385 . S
C593 H579 0.931 . S
C593 C592 1.385 . S
C593 C594 1.389 . S
C594 C593 1.389 . S
C594 C595 1.387 . S
C595 H580 0.930 . S
C595 C590 1.390 . S
C595 C594 1.387 . S
H596 C608 0.930 . S
H597 C610 0.930 . S
H598 C611 0.930 . S
H599 C615 0.959 . S
H600 C615 0.959 . S
H601 C615 0.961 . S
H602 C616 0.960 . S
H603 C616 0.961 . S
H604 C616 0.959 . S
H605 C619 0.929 . S
H606 C620 0.931 . S
H607 C622 0.930 . S
C608 H596 0.930 . S
C608 C609 1.399 . S
C608 C613 1.399 . S
C609 C608 1.399 . S
C609 C610 1.376 . S
C610 H597 0.930 . S
C610 C609 1.376 . S
C610 C611 1.388 . S
C611 H598 0.930 . S
C611 C610 1.388 . S
C611 C612 1.390 . S
C612 C611 1.390 . S
C612 C613 1.394 . S
C612 C618 1.465 . S
C613 C608 1.399 . S
C613 C612 1.394 . S
C613 C614 1.516 . S
C614 C613 1.516 . S
C614 C615 1.502 . S
C614 C616 1.561 . S
C614 C617 1.526 . S
C615 H599 0.959 . S
C615 H600 0.959 . S
C615 H601 0.961 . S
C615 C614 1.502 . S
C616 H602 0.960 . S
C616 H603 0.961 . S
C616 H604 0.959 . S
C616 C614 1.561 . S
C617 C614 1.526 . S
C617 C618 1.396 . S
C617 C622 1.390 . S
C618 C612 1.465 . S
C618 C617 1.396 . S
C618 C619 1.399 . S
C619 H605 0.929 . S
C619 C618 1.399 . S
C619 C620 1.385 . S
C620 H606 0.931 . S
C620 C619 1.385 . S
C620 C621 1.389 . S
C621 C620 1.389 . S
C621 C622 1.387 . S
C622 H607 0.930 . S
C622 C617 1.390 . S
C622 C621 1.387 . S
H623 C635 0.930 . S
H624 C637 0.930 . S
H625 C638 0.930 1_565 S
H626 C642 0.959 1_565 S
H627 C642 0.959 . S
H628 C642 0.961 . S
H629 C643 0.960 . S
H630 C643 0.961 . S
H631 C643 0.959 . S
H632 C646 0.929 . S
H633 C647 0.931 . S
H634 C649 0.930 . S
C635 H623 0.930 . S
C635 C636 1.399 . S
C635 C640 1.399 . S
C636 C635 1.399 . S
C636 C637 1.376 . S
C637 H624 0.930 . S
C637 C636 1.376 . S
C637 C638 1.388 . S
C638 H625 0.930 1_545 S
C638 C637 1.388 . S
C638 C639 1.390 . S
C639 C638 1.390 . S
C639 C640 1.394 . S
C639 C645 1.465 1_545 S
C640 C635 1.399 . S
C640 C639 1.394 . S
C640 C641 1.516 . S
C641 C640 1.516 . S
C641 C642 1.502 . S
C641 C643 1.561 . S
C641 C644 1.526 1_545 S
C642 H626 0.959 1_545 S
C642 H627 0.959 . S
C642 H628 0.961 . S
C642 C641 1.502 . S
C643 H629 0.960 . S
C643 H630 0.961 . S
C643 H631 0.959 . S
C643 C641 1.561 . S
C644 C641 1.526 1_565 S
C644 C645 1.396 . S
C644 C649 1.390 . S
C645 C639 1.465 1_565 S
C645 C644 1.396 . S
C645 C646 1.399 . S
C646 H632 0.929 . S
C646 C645 1.399 . S
C646 C647 1.385 . S
C647 H633 0.931 . S
C647 C646 1.385 . S
C647 C648 1.389 . S
C648 C647 1.389 . S
C648 C649 1.387 . S
C649 H634 0.930 . S
C649 C644 1.390 . S
C649 C648 1.387 . S
H650 C662 0.930 . S
H651 C664 0.930 1_565 S
H652 C665 0.930 1_565 S
H653 C669 0.959 . S
H654 C669 0.959 . S
H655 C669 0.961 . S
H656 C670 0.960 . S
H657 C670 0.961 . S
H658 C670 0.959 . S
H659 C673 0.929 . S
H660 C674 0.931 . S
H661 C676 0.930 . S
C662 H650 0.930 . S
C662 C663 1.399 . S
C662 C667 1.399 . S
C663 C662 1.399 . S
C663 C664 1.376 . S
C664 H651 0.930 1_545 S
C664 C663 1.376 . S
C664 C665 1.388 . S
C665 H652 0.930 1_545 S
C665 C664 1.388 . S
C665 C666 1.390 . S
C666 C665 1.390 . S
C666 C667 1.394 . S
C666 C672 1.465 . S
C667 C662 1.399 . S
C667 C666 1.394 . S
C667 C668 1.516 . S
C668 C667 1.516 . S
C668 C669 1.502 . S
C668 C670 1.561 . S
C668 C671 1.526 . S
C669 H653 0.959 . S
C669 H654 0.959 . S
C669 H655 0.961 . S
C669 C668 1.502 . S
C670 H656 0.960 . S
C670 H657 0.961 . S
C670 H658 0.959 . S
C670 C668 1.561 . S
C671 C668 1.526 . S
C671 C672 1.396 . S
C671 C676 1.390 . S
C672 C666 1.465 . S
C672 C671 1.396 . S
C672 C673 1.399 . S
C673 H659 0.929 . S
C673 C672 1.399 . S
C673 C674 1.385 . S
C674 H660 0.931 . S
C674 C673 1.385 . S
C674 C675 1.389 . S
C675 C674 1.389 . S
C675 C676 1.387 . S
C676 H661 0.930 . S
C676 C671 1.390 . S
C676 C675 1.387 . S
H677 C689 0.930 . S
H678 C691 0.930 . S
H679 C692 0.930 1_545 S
H680 C696 0.959 1_545 S
H681 C696 0.959 . S
H682 C696 0.961 . S
H683 C697 0.960 . S
H684 C697 0.961 . S
H685 C697 0.959 . S
H686 C700 0.929 . S
H687 C701 0.931 . S
H688 C703 0.930 . S
C689 H677 0.930 . S
C689 C690 1.399 . S
C689 C694 1.399 . S
C690 C689 1.399 . S
C690 C691 1.376 . S
C691 H678 0.930 . S
C691 C690 1.376 . S
C691 C692 1.388 . S
C692 H679 0.930 1_565 S
C692 C691 1.388 . S
C692 C693 1.390 1_565 S
C693 C692 1.390 1_545 S
C693 C694 1.394 1_545 S
C693 C699 1.465 . S
C694 C689 1.399 . S
C694 C693 1.394 1_565 S
C694 C695 1.516 . S
C695 C694 1.516 . S
C695 C696 1.502 . S
C695 C697 1.561 . S
C695 C698 1.526 1_565 S
C696 H680 0.959 1_565 S
C696 H681 0.959 . S
C696 H682 0.961 . S
C696 C695 1.502 . S
C697 H683 0.960 . S
C697 H684 0.961 . S
C697 H685 0.959 . S
C697 C695 1.561 . S
C698 C695 1.526 1_545 S
C698 C699 1.396 . S
C698 C703 1.390 . S
C699 C693 1.465 . S
C699 C698 1.396 . S
C699 C700 1.399 . S
C700 H686 0.929 . S
C700 C699 1.399 . S
C700 C701 1.385 . S
C701 H687 0.931 . S
C701 C700 1.385 . S
C701 C702 1.389 . S
C702 C701 1.389 . S
C702 C703 1.387 . S
C703 H688 0.930 . S
C703 C698 1.390 . S
C703 C702 1.387 . S
H704 C716 0.930 . S
H705 C718 0.930 . S
H706 C719 0.930 . S
H707 C723 0.959 . S
H708 C723 0.959 . S
H709 C723 0.961 . S
H710 C724 0.960 . S
H711 C724 0.961 . S
H712 C724 0.959 . S
H713 C727 0.929 . S
H714 C728 0.931 . S
H715 C730 0.930 . S
C716 H704 0.930 . S
C716 C717 1.399 . S
C716 C721 1.399 . S
C717 C716 1.399 . S
C717 C718 1.376 . S
C718 H705 0.930 . S
C718 C717 1.376 . S
C718 C719 1.388 . S
C719 H706 0.930 . S
C719 C718 1.388 . S
C719 C720 1.390 . S
C720 C719 1.390 . S
C720 C721 1.394 . S
C720 C726 1.465 . S
C721 C716 1.399 . S
C721 C720 1.394 . S
C721 C722 1.516 . S
C722 C721 1.516 . S
C722 C723 1.502 . S
C722 C724 1.561 . S
C722 C725 1.526 . S
C723 H707 0.959 . S
C723 H708 0.959 . S
C723 H709 0.961 . S
C723 C722 1.502 . S
C724 H710 0.960 . S
C724 H711 0.961 . S
C724 H712 0.959 . S
C724 C722 1.561 . S
C725 C722 1.526 . S
C725 C726 1.396 . S
C725 C730 1.390 . S
C726 C720 1.465 . S
C726 C725 1.396 . S
C726 C727 1.399 . S
C727 H713 0.929 . S
C727 C726 1.399 . S
C727 C728 1.385 . S
C728 H714 0.931 . S
C728 C727 1.385 . S
C728 C729 1.389 . S
C729 C728 1.389 . S
C729 C730 1.387 . S
C730 H715 0.930 . S
C730 C725 1.390 . S
C730 C729 1.387 . S
H731 C743 0.930 . S
H732 C745 0.930 . S
H733 C746 0.930 . S
H734 C750 0.959 . S
H735 C750 0.959 . S
H736 C750 0.961 . S
H737 C751 0.960 . S
H738 C751 0.961 . S
H739 C751 0.959 . S
H740 C754 0.929 . S
H741 C755 0.931 . S
H742 C757 0.930 . S
C743 H731 0.930 . S
C743 C744 1.399 . S
C743 C748 1.399 . S
C744 C743 1.399 . S
C744 C745 1.376 . S
C745 H732 0.930 . S
C745 C744 1.376 . S
C745 C746 1.388 . S
C746 H733 0.930 . S
C746 C745 1.388 . S
C746 C747 1.390 . S
C747 C746 1.390 . S
C747 C748 1.394 . S
C747 C753 1.465 . S
C748 C743 1.399 . S
C748 C747 1.394 . S
C748 C749 1.516 . S
C749 C748 1.516 . S
C749 C750 1.502 . S
C749 C751 1.561 . S
C749 C752 1.526 . S
C750 H734 0.959 . S
C750 H735 0.959 . S
C750 H736 0.961 . S
C750 C749 1.502 . S
C751 H737 0.960 . S
C751 H738 0.961 . S
C751 H739 0.959 . S
C751 C749 1.561 . S
C752 C749 1.526 . S
C752 C753 1.396 . S
C752 C757 1.390 . S
C753 C747 1.465 . S
C753 C752 1.396 . S
C753 C754 1.399 . S
C754 H740 0.929 . S
C754 C753 1.399 . S
C754 C755 1.385 . S
C755 H741 0.931 . S
C755 C754 1.385 . S
C755 C756 1.389 . S
C756 C755 1.389 . S
C756 C757 1.387 . S
C757 H742 0.930 . S
C757 C752 1.390 . S
C757 C756 1.387 . S
H758 C770 0.930 . S
H759 C772 0.930 . S
H760 C773 0.930 . S
H761 C777 0.959 . S
H762 C777 0.959 . S
H763 C777 0.961 . S
H764 C778 0.960 . S
H765 C778 0.961 . S
H766 C778 0.959 . S
H767 C781 0.929 . S
H768 C782 0.931 . S
H769 C784 0.930 . S
C770 H758 0.930 . S
C770 C771 1.399 . S
C770 C775 1.399 . S
C771 C770 1.399 . S
C771 C772 1.376 . S
C772 H759 0.930 . S
C772 C771 1.376 . S
C772 C773 1.388 . S
C773 H760 0.930 . S
C773 C772 1.388 . S
C773 C774 1.390 . S
C774 C773 1.390 . S
C774 C775 1.394 . S
C774 C780 1.465 . S
C775 C770 1.399 . S
C775 C774 1.394 . S
C775 C776 1.516 . S
C776 C775 1.516 . S
C776 C777 1.502 . S
C776 C778 1.561 . S
C776 C779 1.526 . S
C777 H761 0.959 . S
C777 H762 0.959 . S
C777 H763 0.961 . S
C777 C776 1.502 . S
C778 H764 0.960 . S
C778 H765 0.961 . S
C778 H766 0.959 . S
C778 C776 1.561 . S
C779 C776 1.526 . S
C779 C780 1.396 . S
C779 C784 1.390 . S
C780 C774 1.465 . S
C780 C779 1.396 . S
C780 C781 1.399 . S
C781 H767 0.929 . S
C781 C780 1.399 . S
C781 C782 1.385 . S
C782 H768 0.931 . S
C782 C781 1.385 . S
C782 C783 1.389 . S
C783 C782 1.389 . S
C783 C784 1.387 . S
C784 H769 0.930 . S
C784 C779 1.390 . S
C784 C783 1.387 . S
H785 C797 0.930 . S
H786 C799 0.930 . S
H787 C800 0.930 . S
H788 C804 0.959 . S
H789 C804 0.959 . S
H790 C804 0.961 . S
H791 C805 0.960 . S
H792 C805 0.961 . S
H793 C805 0.959 . S
H794 C808 0.929 . S
H795 C809 0.931 . S
H796 C811 0.930 . S
C797 H785 0.930 . S
C797 C798 1.399 . S
C797 C802 1.399 . S
C798 C797 1.399 . S
C798 C799 1.376 . S
C799 H786 0.930 . S
C799 C798 1.376 . S
C799 C800 1.388 . S
C800 H787 0.930 . S
C800 C799 1.388 . S
C800 C801 1.390 . S
C801 C800 1.390 . S
C801 C802 1.394 . S
C801 C807 1.465 . S
C802 C797 1.399 . S
C802 C801 1.394 . S
C802 C803 1.516 . S
C803 C802 1.516 . S
C803 C804 1.502 . S
C803 C805 1.561 . S
C803 C806 1.526 . S
C804 H788 0.959 . S
C804 H789 0.959 . S
C804 H790 0.961 . S
C804 C803 1.502 . S
C805 H791 0.960 . S
C805 H792 0.961 . S
C805 H793 0.959 . S
C805 C803 1.561 . S
C806 C803 1.526 . S
C806 C807 1.396 . S
C806 C811 1.390 . S
C807 C801 1.465 . S
C807 C806 1.396 . S
C807 C808 1.399 . S
C808 H794 0.929 . S
C808 C807 1.399 . S
C808 C809 1.385 . S
C809 H795 0.931 . S
C809 C808 1.385 . S
C809 C810 1.389 . S
C810 C809 1.389 . S
C810 C811 1.387 . S
C811 H796 0.930 . S
C811 C806 1.390 . S
C811 C810 1.387 . S
H812 C824 0.930 . S
H813 C826 0.930 . S
H814 C827 0.930 . S
H815 C831 0.959 . S
H816 C831 0.959 . S
H817 C831 0.961 . S
H818 C832 0.960 . S
H819 C832 0.961 . S
H820 C832 0.959 . S
H821 C835 0.929 . S
H822 C836 0.931 . S
H823 C838 0.930 . S
C824 H812 0.930 . S
C824 C825 1.399 . S
C824 C829 1.399 . S
C825 C824 1.399 . S
C825 C826 1.376 . S
C826 H813 0.930 . S
C826 C825 1.376 . S
C826 C827 1.388 . S
C827 H814 0.930 . S
C827 C826 1.388 . S
C827 C828 1.390 . S
C828 C827 1.390 . S
C828 C829 1.394 . S
C828 C834 1.465 . S
C829 C824 1.399 . S
C829 C828 1.394 . S
C829 C830 1.516 . S
C830 C829 1.516 . S
C830 C831 1.502 . S
C830 C832 1.561 . S
C830 C833 1.526 . S
C831 H815 0.959 . S
C831 H816 0.959 . S
C831 H817 0.961 . S
C831 C830 1.502 . S
C832 H818 0.960 . S
C832 H819 0.961 . S
C832 H820 0.959 . S
C832 C830 1.561 . S
C833 C830 1.526 . S
C833 C834 1.396 . S
C833 C838 1.390 . S
C834 C828 1.465 . S
C834 C833 1.396 . S
C834 C835 1.399 . S
C835 H821 0.929 . S
C835 C834 1.399 . S
C835 C836 1.385 . S
C836 H822 0.931 . S
C836 C835 1.385 . S
C836 C837 1.389 . S
C837 C836 1.389 . S
C837 C838 1.387 . S
C838 H823 0.930 . S
C838 C833 1.390 . S
C838 C837 1.387 . S
H839 C851 0.930 . S
H840 C853 0.930 . S
H841 C854 0.930 . S
H842 C858 0.959 . S
H843 C858 0.959 . S
H844 C858 0.961 . S
H845 C859 0.960 . S
H846 C859 0.961 . S
H847 C859 0.959 . S
H848 C862 0.929 . S
H849 C863 0.931 . S
H850 C865 0.930 . S
C851 H839 0.930 . S
C851 C852 1.399 . S
C851 C856 1.399 . S
C852 C851 1.399 . S
C852 C853 1.376 . S
C853 H840 0.930 . S
C853 C852 1.376 . S
C853 C854 1.388 . S
C854 H841 0.930 . S
C854 C853 1.388 . S
C854 C855 1.390 . S
C855 C854 1.390 . S
C855 C856 1.394 . S
C855 C861 1.465 . S
C856 C851 1.399 . S
C856 C855 1.394 . S
C856 C857 1.516 . S
C857 C856 1.516 . S
C857 C858 1.502 . S
C857 C859 1.561 . S
C857 C860 1.526 . S
C858 H842 0.959 . S
C858 H843 0.959 . S
C858 H844 0.961 . S
C858 C857 1.502 . S
C859 H845 0.960 . S
C859 H846 0.961 . S
C859 H847 0.959 . S
C859 C857 1.561 . S
C860 C857 1.526 . S
C860 C861 1.396 . S
C860 C865 1.390 . S
C861 C855 1.465 . S
C861 C860 1.396 . S
C861 C862 1.399 . S
C862 H848 0.929 . S
C862 C861 1.399 . S
C862 C863 1.385 . S
C863 H849 0.931 . S
C863 C862 1.385 . S
C863 C864 1.389 . S
C864 C863 1.389 . S
C864 C865 1.387 . S
C865 H850 0.930 . S
C865 C860 1.390 . S
C865 C864 1.387 . S
H866 C878 0.930 . S
H867 C880 0.930 . S
H868 C881 0.930 . S
H869 C885 0.959 . S
H870 C885 0.959 . S
H871 C885 0.961 . S
H872 C886 0.960 . S
H873 C886 0.961 . S
H874 C886 0.959 . S
H875 C889 0.929 . S
H876 C890 0.931 . S
H877 C892 0.930 . S
C878 H866 0.930 . S
C878 C879 1.399 . S
C878 C883 1.399 . S
C879 C878 1.399 . S
C879 C880 1.376 . S
C880 H867 0.930 . S
C880 C879 1.376 . S
C880 C881 1.388 . S
C881 H868 0.930 . S
C881 C880 1.388 . S
C881 C882 1.390 . S
C882 C881 1.390 . S
C882 C883 1.394 . S
C882 C888 1.465 . S
C883 C878 1.399 . S
C883 C882 1.394 . S
C883 C884 1.516 . S
C884 C883 1.516 . S
C884 C885 1.502 . S
C884 C886 1.561 . S
C884 C887 1.526 . S
C885 H869 0.959 . S
C885 H870 0.959 . S
C885 H871 0.961 . S
C885 C884 1.502 . S
C886 H872 0.960 . S
C886 H873 0.961 . S
C886 H874 0.959 . S
C886 C884 1.561 . S
C887 C884 1.526 . S
C887 C888 1.396 . S
C887 C892 1.390 . S
C888 C882 1.465 . S
C888 C887 1.396 . S
C888 C889 1.399 . S
C889 H875 0.929 . S
C889 C888 1.399 . S
C889 C890 1.385 . S
C890 H876 0.931 . S
C890 C889 1.385 . S
C890 C891 1.389 . S
C891 C890 1.389 . S
C891 C892 1.387 . S
C892 H877 0.930 . S
C892 C887 1.390 . S
C892 C891 1.387 . S
H893 C905 0.930 . S
H894 C907 0.930 . S
H895 C908 0.930 . S
H896 C912 0.959 . S
H897 C912 0.959 . S
H898 C912 0.961 . S
H899 C913 0.960 . S
H900 C913 0.961 . S
H901 C913 0.959 . S
H902 C916 0.929 . S
H903 C917 0.931 . S
H904 C919 0.930 . S
C905 H893 0.930 . S
C905 C906 1.399 . S
C905 C910 1.399 . S
C906 C905 1.399 . S
C906 C907 1.376 . S
C907 H894 0.930 . S
C907 C906 1.376 . S
C907 C908 1.388 . S
C908 H895 0.930 . S
C908 C907 1.388 . S
C908 C909 1.390 . S
C909 C908 1.390 . S
C909 C910 1.394 . S
C909 C915 1.465 . S
C910 C905 1.399 . S
C910 C909 1.394 . S
C910 C911 1.516 . S
C911 C910 1.516 . S
C911 C912 1.502 . S
C911 C913 1.561 . S
C911 C914 1.526 . S
C912 H896 0.959 . S
C912 H897 0.959 . S
C912 H898 0.961 . S
C912 C911 1.502 . S
C913 H899 0.960 . S
C913 H900 0.961 . S
C913 H901 0.959 . S
C913 C911 1.561 . S
C914 C911 1.526 . S
C914 C915 1.396 . S
C914 C919 1.390 . S
C915 C909 1.465 . S
C915 C914 1.396 . S
C915 C916 1.399 . S
C916 H902 0.929 . S
C916 C915 1.399 . S
C916 C917 1.385 . S
C917 H903 0.931 . S
C917 C916 1.385 . S
C917 C918 1.389 . S
C918 C917 1.389 . S
C918 C919 1.387 . S
C919 H904 0.930 . S
C919 C914 1.390 . S
C919 C918 1.387 . S
H920 C932 0.930 . S
H921 C934 0.930 . S
H922 C935 0.930 . S
H923 C939 0.959 . S
H924 C939 0.959 . S
H925 C939 0.961 . S
H926 C940 0.960 . S
H927 C940 0.961 . S
H928 C940 0.959 . S
H929 C943 0.929 . S
H930 C944 0.931 . S
H931 C946 0.930 . S
C932 H920 0.930 . S
C932 C933 1.399 . S
C932 C937 1.399 . S
C933 C932 1.399 . S
C933 C934 1.376 . S
C934 H921 0.930 . S
C934 C933 1.376 . S
C934 C935 1.388 . S
C935 H922 0.930 . S
C935 C934 1.388 . S
C935 C936 1.390 . S
C936 C935 1.390 . S
C936 C937 1.394 . S
C936 C942 1.465 . S
C937 C932 1.399 . S
C937 C936 1.394 . S
C937 C938 1.516 . S
C938 C937 1.516 . S
C938 C939 1.502 . S
C938 C940 1.561 . S
C938 C941 1.526 . S
C939 H923 0.959 . S
C939 H924 0.959 . S
C939 H925 0.961 . S
C939 C938 1.502 . S
C940 H926 0.960 . S
C940 H927 0.961 . S
C940 H928 0.959 . S
C940 C938 1.561 . S
C941 C938 1.526 . S
C941 C942 1.396 . S
C941 C946 1.390 . S
C942 C936 1.465 . S
C942 C941 1.396 . S
C942 C943 1.399 . S
C943 H929 0.929 . S
C943 C942 1.399 . S
C943 C944 1.385 . S
C944 H930 0.931 . S
C944 C943 1.385 . S
C944 C945 1.389 . S
C945 C944 1.389 . S
C945 C946 1.387 . S
C946 H931 0.930 . S
C946 C941 1.390 . S
C946 C945 1.387 . S
H947 C959 0.930 . S
H948 C961 0.930 . S
H949 C962 0.930 . S
H950 C966 0.959 . S
H951 C966 0.959 . S
H952 C966 0.961 . S
H953 C967 0.960 . S
H954 C967 0.961 . S
H955 C967 0.959 . S
H956 C970 0.929 . S
H957 C971 0.931 . S
H958 C973 0.930 . S
C959 H947 0.930 . S
C959 C960 1.399 . S
C959 C964 1.399 . S
C960 C959 1.399 . S
C960 C961 1.376 . S
C961 H948 0.930 . S
C961 C960 1.376 . S
C961 C962 1.388 . S
C962 H949 0.930 . S
C962 C961 1.388 . S
C962 C963 1.390 . S
C963 C962 1.390 . S
C963 C964 1.394 . S
C963 C969 1.465 . S
C964 C959 1.399 . S
C964 C963 1.394 . S
C964 C965 1.516 . S
C965 C964 1.516 . S
C965 C966 1.502 . S
C965 C967 1.561 . S
C965 C968 1.526 . S
C966 H950 0.959 . S
C966 H951 0.959 . S
C966 H952 0.961 . S
C966 C965 1.502 . S
C967 H953 0.960 . S
C967 H954 0.961 . S
C967 H955 0.959 . S
C967 C965 1.561 . S
C968 C965 1.526 . S
C968 C969 1.396 . S
C968 C973 1.390 . S
C969 C963 1.465 . S
C969 C968 1.396 . S
C969 C970 1.399 . S
C970 H956 0.929 . S
C970 C969 1.399 . S
C970 C971 1.385 . S
C971 H957 0.931 . S
C971 C970 1.385 . S
C971 C972 1.389 . S
C972 C971 1.389 . S
C972 C973 1.387 . S
C973 H958 0.930 . S
C973 C968 1.390 . S
C973 C972 1.387 . S
H974 C986 0.930 . S
H975 C988 0.930 . S
H976 C989 0.930 . S
H977 C993 0.959 . S
H978 C993 0.959 . S
H979 C993 0.961 . S
H980 C994 0.960 . S
H981 C994 0.961 . S
H982 C994 0.959 . S
H983 C997 0.929 . S
H984 C998 0.931 . S
H985 C1000 0.930 . S
C986 H974 0.930 . S
C986 C987 1.399 . S
C986 C991 1.399 . S
C987 C986 1.399 . S
C987 C988 1.376 . S
C988 H975 0.930 . S
C988 C987 1.376 . S
C988 C989 1.388 . S
C989 H976 0.930 . S
C989 C988 1.388 . S
C989 C990 1.390 . S
C990 C989 1.390 . S
C990 C991 1.394 . S
C990 C996 1.465 . S
C991 C986 1.399 . S
C991 C990 1.394 . S
C991 C992 1.516 . S
C992 C991 1.516 . S
C992 C993 1.502 . S
C992 C994 1.561 . S
C992 C995 1.526 . S
C993 H977 0.959 . S
C993 H978 0.959 . S
C993 H979 0.961 . S
C993 C992 1.502 . S
C994 H980 0.960 . S
C994 H981 0.961 . S
C994 H982 0.959 . S
C994 C992 1.561 . S
C995 C992 1.526 . S
C995 C996 1.396 . S
C995 C1000 1.390 . S
C996 C990 1.465 . S
C996 C995 1.396 . S
C996 C997 1.399 . S
C997 H983 0.929 . S
C997 C996 1.399 . S
C997 C998 1.385 . S
C998 H984 0.931 . S
C998 C997 1.385 . S
C998 C999 1.389 . S
C999 C998 1.389 . S
C999 C1000 1.387 . S
C1000 H985 0.930 . S
C1000 C995 1.390 . S
C1000 C999 1.387 . S
H1001 C1013 0.930 . S
H1002 C1015 0.930 . S
H1003 C1016 0.930 . S
H1004 C1020 0.959 . S
H1005 C1020 0.959 . S
H1006 C1020 0.961 . S
H1007 C1021 0.960 . S
H1008 C1021 0.961 . S
H1009 C1021 0.959 . S
H1010 C1024 0.929 . S
H1011 C1025 0.931 . S
H1012 C1027 0.930 . S
C1013 H1001 0.930 . S
C1013 C1014 1.399 . S
C1013 C1018 1.399 . S
C1014 C1013 1.399 . S
C1014 C1015 1.376 . S
C1015 H1002 0.930 . S
C1015 C1014 1.376 . S
C1015 C1016 1.388 . S
C1016 H1003 0.930 . S
C1016 C1015 1.388 . S
C1016 C1017 1.390 . S
C1017 C1016 1.390 . S
C1017 C1018 1.394 . S
C1017 C1023 1.465 . S
C1018 C1013 1.399 . S
C1018 C1017 1.394 . S
C1018 C1019 1.516 . S
C1019 C1018 1.516 . S
C1019 C1020 1.502 . S
C1019 C1021 1.561 . S
C1019 C1022 1.526 . S
C1020 H1004 0.959 . S
C1020 H1005 0.959 . S
C1020 H1006 0.961 . S
C1020 C1019 1.502 . S
C1021 H1007 0.960 . S
C1021 H1008 0.961 . S
C1021 H1009 0.959 . S
C1021 C1019 1.561 . S
C1022 C1019 1.526 . S
C1022 C1023 1.396 . S
C1022 C1027 1.390 . S
C1023 C1017 1.465 . S
C1023 C1022 1.396 . S
C1023 C1024 1.399 . S
C1024 H1010 0.929 . S
C1024 C1023 1.399 . S
C1024 C1025 1.385 . S
C1025 H1011 0.931 . S
C1025 C1024 1.385 . S
C1025 C1026 1.389 . S
C1026 C1025 1.389 . S
C1026 C1027 1.387 . S
C1027 H1012 0.930 . S
C1027 C1022 1.390 . S
C1027 C1026 1.387 . S
H1028 C1040 0.930 . S
H1029 C1042 0.930 . S
H1030 C1043 0.930 . S
H1031 C1047 0.959 . S
H1032 C1047 0.959 . S
H1033 C1047 0.961 . S
H1034 C1048 0.960 . S
H1035 C1048 0.961 . S
H1036 C1048 0.959 . S
H1037 C1051 0.929 . S
H1038 C1052 0.931 . S
H1039 C1054 0.930 . S
C1040 H1028 0.930 . S
C1040 C1041 1.399 . S
C1040 C1045 1.399 . S
C1041 C1040 1.399 . S
C1041 C1042 1.376 . S
C1042 H1029 0.930 . S
C1042 C1041 1.376 . S
C1042 C1043 1.388 . S
C1043 H1030 0.930 . S
C1043 C1042 1.388 . S
C1043 C1044 1.390 . S
C1044 C1043 1.390 . S
C1044 C1045 1.394 . S
C1044 C1050 1.465 . S
C1045 C1040 1.399 . S
C1045 C1044 1.394 . S
C1045 C1046 1.516 . S
C1046 C1045 1.516 . S
C1046 C1047 1.502 . S
C1046 C1048 1.561 . S
C1046 C1049 1.526 . S
C1047 H1031 0.959 . S
C1047 H1032 0.959 . S
C1047 H1033 0.961 . S
C1047 C1046 1.502 . S
C1048 H1034 0.960 . S
C1048 H1035 0.961 . S
C1048 H1036 0.959 . S
C1048 C1046 1.561 . S
C1049 C1046 1.526 . S
C1049 C1050 1.396 . S
C1049 C1054 1.390 . S
C1050 C1044 1.465 . S
C1050 C1049 1.396 . S
C1050 C1051 1.399 . S
C1051 H1037 0.929 . S
C1051 C1050 1.399 . S
C1051 C1052 1.385 . S
C1052 H1038 0.931 . S
C1052 C1051 1.385 . S
C1052 C1053 1.389 . S
C1053 C1052 1.389 . S
C1053 C1054 1.387 . S
C1054 H1039 0.930 . S
C1054 C1049 1.390 . S
C1054 C1053 1.387 . S
H1055 C1067 0.930 . S
H1056 C1069 0.930 . S
H1057 C1070 0.930 . S
H1058 C1074 0.959 . S
H1059 C1074 0.959 . S
H1060 C1074 0.961 . S
H1061 C1075 0.960 . S
H1062 C1075 0.961 . S
H1063 C1075 0.959 . S
H1064 C1078 0.929 . S
H1065 C1079 0.931 . S
H1066 C1081 0.930 . S
C1067 H1055 0.930 . S
C1067 C1068 1.399 . S
C1067 C1072 1.399 . S
C1068 C1067 1.399 . S
C1068 C1069 1.376 . S
C1069 H1056 0.930 . S
C1069 C1068 1.376 . S
C1069 C1070 1.388 . S
C1070 H1057 0.930 . S
C1070 C1069 1.388 . S
C1070 C1071 1.390 . S
C1071 C1070 1.390 . S
C1071 C1072 1.394 . S
C1071 C1077 1.465 . S
C1072 C1067 1.399 . S
C1072 C1071 1.394 . S
C1072 C1073 1.516 . S
C1073 C1072 1.516 . S
C1073 C1074 1.502 . S
C1073 C1075 1.561 . S
C1073 C1076 1.526 . S
C1074 H1058 0.959 . S
C1074 H1059 0.959 . S
C1074 H1060 0.961 . S
C1074 C1073 1.502 . S
C1075 H1061 0.960 . S
C1075 H1062 0.961 . S
C1075 H1063 0.959 . S
C1075 C1073 1.561 . S
C1076 C1073 1.526 . S
C1076 C1077 1.396 . S
C1076 C1081 1.390 . S
C1077 C1071 1.465 . S
C1077 C1076 1.396 . S
C1077 C1078 1.399 . S
C1078 H1064 0.929 . S
C1078 C1077 1.399 . S
C1078 C1079 1.385 . S
C1079 H1065 0.931 . S
C1079 C1078 1.385 . S
C1079 C1080 1.389 . S
C1080 C1079 1.389 . S
C1080 C1081 1.387 . S
C1081 H1066 0.930 . S
C1081 C1076 1.390 . S
C1081 C1080 1.387 . S
H1082 C1094 0.930 . S
H1083 C1096 0.930 . S
H1084 C1097 0.930 . S
H1085 C1101 0.959 . S
H1086 C1101 0.959 . S
H1087 C1101 0.961 . S
H1088 C1102 0.960 . S
H1089 C1102 0.961 . S
H1090 C1102 0.959 . S
H1091 C1105 0.929 . S
H1092 C1106 0.931 . S
H1093 C1108 0.930 . S
C1094 H1082 0.930 . S
C1094 C1095 1.399 . S
C1094 C1099 1.399 . S
C1095 C1094 1.399 . S
C1095 C1096 1.376 . S
C1096 H1083 0.930 . S
C1096 C1095 1.376 . S
C1096 C1097 1.388 . S
C1097 H1084 0.930 . S
C1097 C1096 1.388 . S
C1097 C1098 1.390 . S
C1098 C1097 1.390 . S
C1098 C1099 1.394 . S
C1098 C1104 1.465 . S
C1099 C1094 1.399 . S
C1099 C1098 1.394 . S
C1099 C1100 1.516 . S
C1100 C1099 1.516 . S
C1100 C1101 1.502 . S
C1100 C1102 1.561 . S
C1100 C1103 1.526 . S
C1101 H1085 0.959 . S
C1101 H1086 0.959 . S
C1101 H1087 0.961 . S
C1101 C1100 1.502 . S
C1102 H1088 0.960 . S
C1102 H1089 0.961 . S
C1102 H1090 0.959 . S
C1102 C1100 1.561 . S
C1103 C1100 1.526 . S
C1103 C1104 1.396 . S
C1103 C1108 1.390 . S
C1104 C1098 1.465 . S
C1104 C1103 1.396 . S
C1104 C1105 1.399 . S
C1105 H1091 0.929 . S
C1105 C1104 1.399 . S
C1105 C1106 1.385 . S
C1106 H1092 0.931 . S
C1106 C1105 1.385 . S
C1106 C1107 1.389 . S
C1107 C1106 1.389 . S
C1107 C1108 1.387 . S
C1108 H1093 0.930 . S
C1108 C1103 1.390 . S
C1108 C1107 1.387 . S
H1109 C1121 0.930 . S
H1110 C1123 0.930 . S
H1111 C1124 0.930 . S
H1112 C1128 0.959 . S
H1113 C1128 0.959 . S
H1114 C1128 0.961 . S
H1115 C1129 0.960 . S
H1116 C1129 0.961 . S
H1117 C1129 0.959 . S
H1118 C1132 0.929 . S
H1119 C1133 0.931 . S
H1120 C1135 0.930 . S
C1121 H1109 0.930 . S
C1121 C1122 1.399 . S
C1121 C1126 1.399 . S
C1122 C1121 1.399 . S
C1122 C1123 1.376 . S
C1123 H1110 0.930 . S
C1123 C1122 1.376 . S
C1123 C1124 1.388 . S
C1124 H1111 0.930 . S
C1124 C1123 1.388 . S
C1124 C1125 1.390 . S
C1125 C1124 1.390 . S
C1125 C1126 1.394 . S
C1125 C1131 1.465 . S
C1126 C1121 1.399 . S
C1126 C1125 1.394 . S
C1126 C1127 1.516 . S
C1127 C1126 1.516 . S
C1127 C1128 1.502 . S
C1127 C1129 1.561 . S
C1127 C1130 1.526 . S
C1128 H1112 0.959 . S
C1128 H1113 0.959 . S
C1128 H1114 0.961 . S
C1128 C1127 1.502 . S
C1129 H1115 0.960 . S
C1129 H1116 0.961 . S
C1129 H1117 0.959 . S
C1129 C1127 1.561 . S
C1130 C1127 1.526 . S
C1130 C1131 1.396 . S
C1130 C1135 1.390 . S
C1131 C1125 1.465 . S
C1131 C1130 1.396 . S
C1131 C1132 1.399 . S
C1132 H1118 0.929 . S
C1132 C1131 1.399 . S
C1132 C1133 1.385 . S
C1133 H1119 0.931 . S
C1133 C1132 1.385 . S
C1133 C1134 1.389 . S
C1134 C1133 1.389 . S
C1134 C1135 1.387 . S
C1135 H1120 0.930 . S
C1135 C1130 1.390 . S
C1135 C1134 1.387 . S
C297 C193 1.563 . S
C285 C14 1.560 . S
C312 C25 1.554 . S
C324 C225 1.566 . S
C339 C50 1.534 . S
C351 C248 1.558 . S
C378 C152 1.552 . S
C366 C68 1.512 . S
C405 C235 1.335 . S
C393 C16 1.523 . S
C432 C264 1.431 . S
C420 C26 1.467 . S
C459 C168 1.363 . S
C447 C52 1.493 . S
C486 C203 1.348 . S
C474 C70 1.524 . S
C501 C8 1.512 . S
C513 C231 1.352 . S
C528 C88 1.491 . S
C540 C206 1.416 . S
C555 C44 1.461 . S
C567 C174 1.439 . S
C594 C263 1.425 . S
C582 C98 1.491 . S
C621 C207 1.565 . S
C609 C7 1.540 . S
C636 C86 1.520 . S
C648 C175 1.528 . S
C663 C43 1.503 . S
C675 C262 1.548 . S
C702 C230 1.546 . S
C690 C97 1.509 . S
C717 C116 1.536 . S
C729 C257 1.561 . S
C744 C79 1.557 . S
C756 C161 1.561 . S
C771 C140 1.559 . S
C783 C184 1.572 . S
C798 C104 1.504 . S
C810 C216 1.548 . S
C837 C171 1.421 . S
C825 C115 1.507 . S
C852 C80 1.488 . S
C864 C200 1.458 . S
C879 C142 1.495 . S
C891 C232 1.362 . S
C918 C267 1.337 . S
C906 C106 1.525 . S
C933 C122 1.518 . S
C945 C167 1.364 . S
C960 C34 1.494 . S
C972 C270 1.409 . S
C987 C134 1.466 . S
C999 C238 1.392 . S
C1026 C199 1.381 . S
C1014 C62 1.508 . S
C1053 C271 1.544 . S
C1041 C124 1.503 . S
C1080 C239 1.530 . S
C1068 C32 1.529 . S
C1107 C198 1.544 . S
C1095 C133 1.497 . S
C1134 C166 1.546 . S
C1122 C61 1.508 . S
