# Generated by pormake.
# Topology anh, (6,3)-cn, num edge types: 1
# Building blocks:
#     Node 0, Type 0, BuildingBlock: MIFKUJ_clean_sbu_0, # of connection points: 6
#     Node 1, Type 0, BuildingBlock: MIFKUJ_clean_sbu_0, # of connection points: 6
#     Node 2, Type 0, BuildingBlock: MIFKUJ_clean_sbu_0, # of connection points: 6
#     Node 3, Type 1, BuildingBlock: KAKCAD_clean_linker_0, # of connection points: 3
#     Node 4, Type 1, BuildingBlock: KAKCAD_clean_linker_0, # of connection points: 3
#     Node 5, Type 1, BuildingBlock: KAKCAD_clean_linker_0, # of connection points: 3
#     Node 6, Type 1, BuildingBlock: KAKCAD_clean_linker_0, # of connection points: 3
#     Node 7, Type 1, BuildingBlock: KAKCAD_clean_linker_0, # of connection points: 3
#     Node 8, Type 1, BuildingBlock: KAKCAD_clean_linker_0, # of connection points: 3
#     Edge 9, Type (0, 1), None
#     Edge 10, Type (0, 1), None
#     Edge 11, Type (0, 1), None
#     Edge 12, Type (0, 1), None
#     Edge 13, Type (0, 1), None
#     Edge 14, Type (0, 1), None
#     Edge 15, Type (0, 1), None
#     Edge 16, Type (0, 1), None
#     Edge 17, Type (0, 1), None
#     Edge 18, Type (0, 1), None
#     Edge 19, Type (0, 1), None
#     Edge 20, Type (0, 1), None
#     Edge 21, Type (0, 1), None
#     Edge 22, Type (0, 1), None
#     Edge 23, Type (0, 1), None
#     Edge 24, Type (0, 1), None
#     Edge 25, Type (0, 1), None
#     Edge 26, Type (0, 1), None
# Relax obj value: 0.134
# Max RMSD: 0.189
# Mean RMSD: 0.158
data_MOF--net-anh--node1-MIFKUJ_clean_sbu_0--node2-KAKCAD_clean_linker_0--edge1-none
_symmetry_space_group_name_H-M    P1
_symmetry_Int_Tables_number       1
_symmetry_cell_setting            triclinic
loop_
_symmetry_equiv_pos_as_xyz
'x, y, z'
_cell_length_a     21.572537
_cell_length_b     21.879604
_cell_length_c     34.745344
_cell_angle_alpha  93.649461
_cell_angle_beta   90.418737
_cell_angle_gamma 120.14612
loop_
_atom_site_label
_atom_site_type_symbol
_atom_site_fract_x
_atom_site_fract_y
_atom_site_fract_z
_atom_type_partial_charge
Zn0 Zn 0.08798 0.63982 0.15495 0.0
Zn1 Zn 0.86817 0.48259 0.15843 0.0
C2 C 0.17974 0.57772 0.16511 0.0
O3 O 0.15537 0.5657 0.19998 0.0
C4 C 0.76657 0.53889 0.17721 0.0
O5 O 0.81746 0.59843 0.19472 0.0
O6 O 0.13581 0.74291 0.14625 0.0
O7 O -0.00568 0.57545 0.12998 0.0
O8 O 0.896 0.49321 0.10209 0.0
C9 C 0.18796 0.76698 0.12389 0.0
O10 O 0.19336 0.72228 0.09899 0.0
O11 O 0.15679 0.60578 0.14222 0.0
C12 C 0.79564 0.32992 0.14694 0.0
O13 O 0.78942 0.33989 0.11056 0.0
O14 O 0.83133 0.38315 0.17093 0.0
O15 O 0.9517 0.54492 0.19817 0.0
O16 O 0.0653 0.62827 0.21037 0.0
O17 O 0.78126 0.49315 0.16272 0.0
C18 C 0.95991 0.54246 0.09906 0.0
C19 C 0.00402 0.58401 0.22225 0.0
Zn20 Zn 0.56732 0.067 0.47982 0.0
Zn21 Zn 0.46056 0.85621 0.48315 0.0
C22 C 0.71681 0.16743 0.47799 0.0
O23 O 0.7137 0.15876 0.51512 0.0
C24 C 0.31997 0.76198 0.50778 0.0
O25 O 0.35763 0.74426 0.52953 0.0
O26 O 0.54142 0.13968 0.49537 0.0
O27 O 0.49037 -0.00559 0.44277 0.0
O28 O 0.49459 0.89678 0.432 0.0
C29 C 0.53509 0.17847 0.47181 0.0
O30 O 0.53691 0.16558 0.43455 0.0
O31 O 0.66204 0.12693 0.45583 0.0
C32 C 0.53612 0.77903 0.48595 0.0
O33 O 0.59348 0.84256 0.48939 0.0
O34 O 0.47471 0.77296 0.4822 0.0
O35 O 0.51364 0.91603 0.53205 0.0
O36 O 0.57889 0.03303 0.52989 0.0
O37 O 0.35289 0.81331 0.48647 0.0
C38 C 0.50212 0.95375 0.42034 0.0
C39 C 0.55635 0.97759 0.54799 0.0
Zn40 Zn 0.56135 0.44219 0.82833 0.0
Zn41 Zn 0.47142 0.56853 0.83172 0.0
C42 C 0.54365 0.29958 0.83318 0.0
O43 O 0.51793 0.29978 0.8673 0.0
C44 C 0.55086 0.71926 0.85307 0.0
O45 O 0.50905 0.70395 0.88249 0.0
O46 O 0.66515 0.51145 0.84002 0.0
O47 O 0.52184 0.46837 0.78364 0.0
O48 O 0.46489 0.52817 0.77773 0.0
C49 C 0.71511 0.52479 0.81693 0.0
O50 O 0.69906 0.50276 0.78025 0.0
O51 O 0.56094 0.3514 0.81255 0.0
C52 C 0.32555 0.5488 0.82148 0.0
O53 O 0.31518 0.50535 0.79107 0.0
O54 O 0.38455 0.5773 0.8412 0.0
O55 O 0.47648 0.50991 0.87215 0.0
O56 O 0.51277 0.43293 0.87847 0.0
O57 O 0.55254 0.66932 0.8331 0.0
C58 C 0.4914 0.49233 0.76282 0.0
C59 C 0.48477 0.46806 0.8924 0.0
C60 C 0.54074 0.03442 0.36698 0.0
C61 C 0.51023 0.96546 0.37893 0.0
C62 C 0.54511 0.04568 0.32778 0.0
C63 C 0.51823 0.98805 0.2998 0.0
C64 C 0.4888 0.91909 0.31168 0.0
C65 C 0.48546 0.90792 0.35095 0.0
C66 C 0.51787 0.00019 0.25844 0.0
C67 C 0.57967 0.05298 0.24259 0.0
C68 C 0.57794 0.07067 0.20452 0.0
C69 C 0.51362 0.03218 0.18182 0.0
C70 C 0.45181 0.97821 0.19717 0.0
C71 C 0.45434 0.9625 0.23549 0.0
C72 C 0.38421 0.93732 0.17344 0.0
C73 C 0.31902 0.92437 0.18872 0.0
C74 C 0.38351 0.90465 0.13723 0.0
C75 C 0.3184 0.85388 0.11863 0.0
C76 C 0.25315 0.83518 0.13604 0.0
C77 C 0.64085 0.1335 0.18996 0.0
C78 C 0.68317 0.19379 0.21527 0.0
C79 C 0.65607 0.13625 0.15055 0.0
C80 C 0.70915 0.19924 0.13651 0.0
C81 C 0.74877 0.26014 0.16175 0.0
C82 C 0.73696 0.25591 0.20142 0.0
C83 C 0.254 0.87409 0.17005 0.0
H84 H 0.56105 0.07966 0.38795 0.0
H85 H 0.56765 0.09935 0.31933 0.0
H86 H 0.46803 0.87388 0.29059 0.0
H87 H 0.46162 0.85413 0.35939 0.0
H88 H 0.62894 0.08091 0.26035 0.0
H89 H 0.40644 0.92147 0.24767 0.0
H90 H 0.51033 0.04591 0.15276 0.0
H91 H 0.31835 0.95029 0.21621 0.0
H92 H 0.4332 0.91427 0.12472 0.0
H93 H 0.31962 0.82542 0.09224 0.0
H94 H 0.6726 0.19472 0.24564 0.0
H95 H 0.62574 0.0904 0.13034 0.0
H96 H 0.20473 0.8618 0.18398 0.0
H97 H 0.76631 0.3019 0.22172 0.0
H98 H 0.71754 0.20085 0.10581 0.0
C99 C 0.45653 0.50663 0.69652 0.0
C100 C 0.49261 0.4838 0.72039 0.0
C101 C 0.46355 0.50483 0.65661 0.0
C102 C 0.50698 0.48044 0.63983 0.0
C103 C 0.54199 0.45647 0.66367 0.0
C104 C 0.53463 0.45781 0.70347 0.0
C105 C 0.51662 0.48043 0.59766 0.0
C106 C 0.52609 0.53755 0.57732 0.0
C107 C 0.53624 0.53744 0.53753 0.0
C108 C 0.53843 0.48069 0.51785 0.0
C109 C 0.5304 0.42375 0.53809 0.0
C110 C 0.51779 0.42345 0.5777 0.0
C111 C 0.53594 0.36444 0.51885 0.0
C112 C 0.50385 0.33405 0.48197 0.0
C113 C 0.57091 0.33545 0.53864 0.0
C114 C 0.57014 0.27502 0.52315 0.0
C115 C 0.53591 0.24303 0.48703 0.0
C116 C 0.54155 0.59621 0.51695 0.0
C117 C 0.48011 0.58849 0.49821 0.0
C118 C 0.60414 0.66289 0.52121 0.0
C119 C 0.60413 0.72224 0.50859 0.0
C120 C 0.54101 0.71556 0.49228 0.0
C121 C 0.47974 0.64778 0.486 0.0
C122 C 0.50436 0.27391 0.46601 0.0
H123 H 0.42364 0.52685 0.70868 0.0
H124 H 0.43504 0.52261 0.63891 0.0
H125 H 0.57666 0.43828 0.65169 0.0
H126 H 0.5637 0.44043 0.72103 0.0
H127 H 0.52566 0.58233 0.59232 0.0
H128 H 0.50811 0.37812 0.5931 0.0
H129 H 0.54756 0.48167 0.48721 0.0
H130 H 0.47651 0.35527 0.46605 0.0
H131 H 0.59825 0.359 0.56651 0.0
H132 H 0.59679 0.2535 0.53947 0.0
H133 H 0.43119 0.53735 0.49514 0.0
H134 H 0.6518 0.6695 0.53595 0.0
H135 H 0.47836 0.25042 0.43787 0.0
H136 H 0.4304 0.64091 0.47331 0.0
H137 H 0.65213 0.77372 0.51373 0.0
C138 C 0.03998 0.6265 0.05264 0.0
C139 C -0.00651 0.55653 0.06166 0.0
C140 C 0.06381 0.64049 0.01517 0.0
C141 C 0.04237 0.58438 0.98679 0.0
C142 C -0.00068 0.51429 -0.00356 0.0
C143 C 0.97452 0.50044 0.03358 0.0
C144 C 0.05101 0.59754 0.94579 0.0
C145 C 0.1044 0.59353 0.92543 0.0
C146 C 0.10224 0.59025 0.88482 0.0
C147 C 0.04325 0.58686 0.86481 0.0
C148 C 0.98872 0.58998 0.88544 0.0
C149 C -0.00398 0.59975 0.9259 0.0
C150 C 0.91976 0.57449 0.86634 0.0
C151 C 0.91614 0.59809 0.83005 0.0
C152 C 0.85561 0.53446 0.88519 0.0
C153 C 0.79046 0.52132 0.86948 0.0
C154 C 0.78654 0.54525 0.8336 0.0
C155 C 0.15966 0.58521 0.86428 0.0
C156 C 0.2314 0.62924 0.87754 0.0
C157 C 0.14337 0.5326 0.83419 0.0
C158 C 0.19759 0.52192 0.81912 0.0
C159 C 0.26873 0.56357 0.83404 0.0
C160 C 0.28522 0.61849 0.86269 0.0
C161 C 0.84967 0.58283 0.81357 0.0
H162 H 0.05389 0.67044 0.0738 0.0
H163 H 0.09561 0.69491 0.00784 0.0
H164 H 0.98126 0.47053 0.97456 0.0
H165 H 0.93873 0.44609 0.04001 0.0
H166 H 0.14588 0.58992 0.94119 0.0
H167 H 0.95545 0.60345 0.94246 0.0
H168 H 0.03887 0.57963 0.83358 0.0
H169 H 0.9644 0.62866 0.81464 0.0
H170 H 0.85514 0.51209 0.91218 0.0
H171 H 0.74252 0.49005 0.88505 0.0
H172 H 0.24564 0.67092 0.90029 0.0
H173 H 0.08841 0.49761 0.8236 0.0
H174 H 0.84767 0.60084 0.78551 0.0
H175 H 0.33967 0.65239 0.87436 0.0
H176 H 0.18335 0.47943 0.7969 0.0
C177 C 0.92999 0.53106 0.27933 0.0
C178 C -0.00268 0.5718 0.26363 0.0
C179 C 0.92539 0.51665 0.31821 0.0
C180 C 0.98805 0.54207 0.34183 0.0
C181 C 0.05512 0.58246 0.32581 0.0
C182 C 0.05966 0.59775 0.28739 0.0
C183 C 0.98456 0.52625 0.38294 0.0
C184 C 0.93579 0.45883 0.39427 0.0
C185 C 0.93509 0.44228 0.43287 0.0
C186 C 0.98716 0.49437 0.4599 0.0
C187 C 0.03747 0.56207 0.44864 0.0
C188 C 0.03386 0.57762 0.41045 0.0
C189 C 0.10017 0.61454 0.47412 0.0
C190 C 0.12811 0.68781 0.47167 0.0
C191 C 0.14082 0.59244 0.4947 0.0
C192 C 0.21069 0.6417 0.50867 0.0
C193 C 0.24153 0.71376 0.50184 0.0
C194 C 0.88042 0.37021 0.444 0.0
C195 C 0.81189 0.33353 0.42506 0.0
C196 C 0.89562 0.33697 0.47309 0.0
C197 C 0.84325 0.26988 0.4834 0.0
C198 C 0.77526 0.23378 0.46421 0.0
C199 C 0.76056 0.26594 0.4346 0.0
C200 C 0.19846 0.73679 0.48482 0.0
H201 H 0.88104 0.51023 0.2616 0.0
H202 H 0.87289 0.48584 0.32978 0.0
H203 H 0.10459 0.60123 0.34273 0.0
H204 H 0.11246 0.62833 0.27607 0.0
H205 H 0.90009 0.41833 0.37248 0.0
H206 H 0.07228 0.62934 0.40143 0.0
H207 H 0.98869 0.48276 0.48959 0.0
H208 H 0.09744 0.70688 0.45694 0.0
H209 H 0.12124 0.53661 0.49711 0.0
H210 H 0.24239 0.62231 0.52198 0.0
H211 H 0.79677 0.35754 0.40334 0.0
H212 H 0.94786 0.36249 0.48794 0.0
H213 H 0.2203 0.79216 0.47986 0.0
H214 H 0.70805 0.24031 0.41994 0.0
H215 H 0.85577 0.2464 0.50657 0.0
C216 C 0.54448 0.92696 0.61201 0.0
C217 C 0.57542 0.98588 0.58979 0.0
C218 C 0.55545 0.93595 0.6521 0.0
C219 C 0.59783 0.00401 0.67088 0.0
C220 C 0.63145 0.06257 0.64854 0.0
C221 C 0.62043 0.05363 0.60843 0.0
C222 C 0.60191 0.01377 0.71369 0.0
C223 C 0.60707 0.96516 0.73575 0.0
C224 C 0.59693 0.96492 0.77574 0.0
C225 C 0.58923 0.02005 0.79422 0.0
C226 C 0.58918 0.0727 0.77272 0.0
C227 C 0.59365 0.06762 0.7324 0.0
C228 C 0.58121 0.13176 0.79113 0.0
C229 C 0.53363 0.12075 0.82092 0.0
C230 C 0.61844 0.19935 0.77692 0.0
C231 C 0.60593 0.25332 0.7906 0.0
C232 C 0.55693 0.24183 0.81949 0.0
C233 C 0.58888 0.90363 0.79659 0.0
C234 C 0.5589 0.83613 0.77655 0.0
C235 C 0.60867 0.91029 0.8361 0.0
C236 C 0.59808 0.85084 0.85483 0.0
C237 C 0.56984 0.78444 0.83406 0.0
C238 C 0.55098 0.77806 0.79475 0.0
C239 C 0.52197 0.17548 0.83514 0.0
H240 H 0.50955 0.87406 0.59866 0.0
H241 H 0.52804 0.88977 0.6685 0.0
H242 H 0.66513 0.11552 0.66215 0.0
H243 H 0.64557 0.1002 0.59219 0.0
H244 H 0.617 0.9259 0.72113 0.0
H245 H 0.58756 0.10407 0.71522 0.0
H246 H 0.58208 0.02148 0.82499 0.0
H247 H 0.50364 0.06935 0.83238 0.0
H248 H 0.65691 0.21049 0.75472 0.0
H249 H 0.63497 0.3043 0.77852 0.0
H250 H 0.5393 0.82692 0.74679 0.0
H251 H 0.6321 0.96109 0.85263 0.0
H252 H 0.48421 0.16525 0.85764 0.0
H253 H 0.52656 0.72702 0.77828 0.0
H254 H 0.61186 0.85666 0.8854 0.0
C255 C 0.47432 0.41817 0.95664 0.0
C256 C 0.46445 0.46285 0.93313 0.0
C257 C 0.46317 0.41991 -0.00382 0.0
C258 C 0.44217 0.4665 0.01299 0.0
C259 C 0.42901 0.5086 0.98907 0.0
C260 C 0.43978 0.50662 0.9496 0.0
C261 C 0.44025 0.47638 0.05556 0.0
C262 C 0.49463 0.48007 0.07958 0.0
C263 C 0.4991 0.4988 0.11931 0.0
C264 C 0.44854 0.51443 0.13527 0.0
C265 C 0.39286 0.50986 0.11159 0.0
C266 C 0.38849 0.48935 0.07202 0.0
C267 C 0.34087 0.52974 0.12698 0.0
C268 C 0.30848 0.5069 0.16221 0.0
C269 C 0.32149 0.57021 0.10536 0.0
C270 C 0.26929 0.58552 0.11787 0.0
C271 C 0.23556 0.56145 0.15259 0.0
C272 C 0.56021 0.50575 0.14261 0.0
C273 C 0.57325 0.44905 0.14116 0.0
C274 C 0.61185 0.57163 0.16069 0.0
C275 C 0.6781 0.58199 0.17432 0.0
C276 C 0.69323 0.5265 0.16998 0.0
C277 C 0.63885 0.45919 0.15481 0.0
C278 C 0.25624 0.5227 0.17494 0.0
H279 H 0.49271 0.38337 0.94477 0.0
H280 H 0.47266 0.386 0.01374 0.0
H281 H 0.4137 0.54577 0.00106 0.0
H282 H 0.43146 0.54163 0.93234 0.0
H283 H 0.53616 0.47204 0.06709 0.0
H284 H 0.34513 0.4846 0.05374 0.0
H285 H 0.45335 0.53119 0.16571 0.0
H286 H 0.3222 0.47543 0.1794 0.0
H287 H 0.34665 0.59006 0.07854 0.0
H288 H 0.25552 0.61644 0.10022 0.0
H289 H 0.53402 0.39773 0.12747 0.0
H290 H 0.60297 0.61623 0.16183 0.0
H291 H 0.23138 0.5037 0.20193 0.0
H292 H 0.64814 0.41488 0.15163 0.0
H293 H 0.71873 0.6343 0.18608 0.0
loop_
_geom_bond_atom_site_label_1
_geom_bond_atom_site_label_2
_geom_bond_distance
_geom_bond_site_symmetry_2
_ccdc_geom_bond_type
Zn0 O6 1.969 . S
Zn0 O7 1.965 . S
Zn0 O11 2.024 . S
Zn0 O16 1.969 . S
Zn1 O8 1.969 . S
Zn1 O14 1.969 . S
Zn1 O15 1.965 . S
Zn1 O17 2.024 . S
C2 O3 1.229 . S
C2 O11 1.058 . S
O3 C2 1.229 . S
C4 O5 1.229 . S
C4 O17 1.058 . S
O5 C4 1.229 . S
O6 Zn0 1.969 . S
O6 C9 1.267 . S
O7 Zn0 1.965 . S
O7 C18 1.260 1_455 S
O8 Zn1 1.969 . S
O8 C18 1.258 . S
C9 O6 1.267 . S
C9 O10 1.228 . S
O10 C9 1.228 . S
O11 Zn0 2.024 . S
O11 C2 1.058 . S
C12 O13 1.228 . S
C12 O14 1.267 . S
O13 C12 1.228 . S
O14 Zn1 1.969 . S
O14 C12 1.267 . S
O15 Zn1 1.965 . S
O15 C19 1.260 1_655 S
O16 Zn0 1.969 . S
O16 C19 1.258 . S
O17 Zn1 2.024 . S
O17 C4 1.058 . S
C18 O7 1.260 1_655 S
C18 O8 1.258 . S
C19 O15 1.260 1_455 S
C19 O16 1.258 . S
Zn20 O26 1.969 . S
Zn20 O27 1.965 . S
Zn20 O31 2.024 . S
Zn20 O36 1.969 . S
Zn21 O28 1.969 . S
Zn21 O34 1.969 . S
Zn21 O35 1.965 . S
Zn21 O37 2.024 . S
C22 O23 1.229 . S
C22 O31 1.058 . S
O23 C22 1.229 . S
C24 O25 1.229 . S
C24 O37 1.058 . S
O25 C24 1.229 . S
O26 Zn20 1.969 . S
O26 C29 1.267 . S
O27 Zn20 1.965 . S
O27 C38 1.260 . S
O28 Zn21 1.969 . S
O28 C38 1.258 1_565 S
C29 O26 1.267 . S
C29 O30 1.228 . S
O30 C29 1.228 . S
O31 Zn20 2.024 . S
O31 C22 1.058 . S
C32 O33 1.228 . S
C32 O34 1.267 . S
O33 C32 1.228 . S
O34 Zn21 1.969 . S
O34 C32 1.267 . S
O35 Zn21 1.965 . S
O35 C39 1.260 1_565 S
O36 Zn20 1.969 . S
O36 C39 1.258 . S
O37 Zn21 2.024 . S
O37 C24 1.058 . S
C38 O27 1.260 . S
C38 O28 1.258 1_545 S
C39 O35 1.260 1_545 S
C39 O36 1.258 . S
Zn40 O46 1.969 . S
Zn40 O47 1.965 . S
Zn40 O51 2.024 . S
Zn40 O56 1.969 . S
Zn41 O48 1.969 . S
Zn41 O54 1.969 . S
Zn41 O55 1.965 . S
Zn41 O57 2.024 . S
C42 O43 1.229 . S
C42 O51 1.058 . S
O43 C42 1.229 . S
C44 O45 1.229 . S
C44 O57 1.058 . S
O45 C44 1.229 . S
O46 Zn40 1.969 . S
O46 C49 1.267 . S
O47 Zn40 1.965 . S
O47 C58 1.260 . S
O48 Zn41 1.969 . S
O48 C58 1.258 . S
C49 O46 1.267 . S
C49 O50 1.228 . S
O50 C49 1.228 . S
O51 Zn40 2.024 . S
O51 C42 1.058 . S
C52 O53 1.228 . S
C52 O54 1.267 . S
O53 C52 1.228 . S
O54 Zn41 1.969 . S
O54 C52 1.267 . S
O55 Zn41 1.965 . S
O55 C59 1.260 . S
O56 Zn40 1.969 . S
O56 C59 1.258 . S
O57 Zn41 2.024 . S
O57 C44 1.058 . S
C58 O47 1.260 . S
C58 O48 1.258 . S
C59 O55 1.260 . S
C59 O56 1.258 . S
C60 C61 1.386 . S
C60 C62 1.397 . S
C60 H84 0.931 . S
C61 C60 1.386 . S
C61 C65 1.397 1_545 S
C62 C60 1.397 . S
C62 C63 1.384 . S
C62 H85 0.930 . S
C63 C62 1.384 . S
C63 C64 1.377 1_545 S
C63 C66 1.481 . S
C64 C63 1.377 1_565 S
C64 C65 1.389 . S
C64 H86 0.929 . S
C65 C61 1.397 1_565 S
C65 C64 1.389 . S
C65 H87 0.931 . S
C66 C63 1.481 . S
C66 C67 1.387 . S
C66 C71 1.390 1_545 S
C67 C66 1.387 . S
C67 C68 1.401 . S
C67 H88 0.930 . S
C68 C67 1.401 . S
C68 C69 1.376 . S
C68 C77 1.511 . S
C69 C68 1.376 . S
C69 C70 1.392 1_545 S
C69 H90 0.931 . S
C70 C69 1.392 1_565 S
C70 C71 1.361 . S
C70 C72 1.500 . S
C71 C66 1.390 1_565 S
C71 C70 1.361 . S
C71 H89 0.931 . S
C72 C70 1.500 . S
C72 C73 1.371 . S
C72 C74 1.365 . S
C73 C72 1.371 . S
C73 C83 1.386 . S
C73 H91 0.931 . S
C74 C72 1.365 . S
C74 C75 1.409 . S
C74 H92 0.929 . S
C75 C74 1.409 . S
C75 C76 1.380 . S
C75 H93 0.930 . S
C76 C75 1.380 . S
C76 C83 1.357 . S
C77 C68 1.511 . S
C77 C78 1.341 . S
C77 C79 1.371 . S
C78 C77 1.341 . S
C78 C82 1.394 . S
C78 H94 0.930 . S
C79 C77 1.371 . S
C79 C80 1.392 . S
C79 H95 0.931 . S
C80 C79 1.392 . S
C80 C81 1.331 . S
C80 H98 0.932 . S
C81 C80 1.331 . S
C81 C82 1.336 . S
C82 C78 1.394 . S
C82 C81 1.336 . S
C82 H97 0.929 . S
C83 C73 1.386 . S
C83 C76 1.357 . S
C83 H96 0.928 . S
H84 C60 0.931 . S
H85 C62 0.930 . S
H86 C64 0.929 . S
H87 C65 0.931 . S
H88 C67 0.930 . S
H89 C71 0.931 . S
H90 C69 0.931 . S
H91 C73 0.931 . S
H92 C74 0.929 . S
H93 C75 0.930 . S
H94 C78 0.930 . S
H95 C79 0.931 . S
H96 C83 0.928 . S
H97 C82 0.929 . S
H98 C80 0.932 . S
C99 C100 1.386 . S
C99 C101 1.397 . S
C99 H123 0.931 . S
C100 C99 1.386 . S
C100 C104 1.397 . S
C101 C99 1.397 . S
C101 C102 1.384 . S
C101 H124 0.930 . S
C102 C101 1.384 . S
C102 C103 1.377 . S
C102 C105 1.481 . S
C103 C102 1.377 . S
C103 C104 1.389 . S
C103 H125 0.929 . S
C104 C100 1.397 . S
C104 C103 1.389 . S
C104 H126 0.931 . S
C105 C102 1.481 . S
C105 C106 1.387 . S
C105 C110 1.390 . S
C106 C105 1.387 . S
C106 C107 1.401 . S
C106 H127 0.930 . S
C107 C106 1.401 . S
C107 C108 1.376 . S
C107 C116 1.511 . S
C108 C107 1.376 . S
C108 C109 1.392 . S
C108 H129 0.931 . S
C109 C108 1.392 . S
C109 C110 1.361 . S
C109 C111 1.500 . S
C110 C105 1.390 . S
C110 C109 1.361 . S
C110 H128 0.931 . S
C111 C109 1.500 . S
C111 C112 1.371 . S
C111 C113 1.365 . S
C112 C111 1.371 . S
C112 C122 1.386 . S
C112 H130 0.931 . S
C113 C111 1.365 . S
C113 C114 1.409 . S
C113 H131 0.929 . S
C114 C113 1.409 . S
C114 C115 1.380 . S
C114 H132 0.930 . S
C115 C114 1.380 . S
C115 C122 1.357 . S
C116 C107 1.511 . S
C116 C117 1.341 . S
C116 C118 1.371 . S
C117 C116 1.341 . S
C117 C121 1.394 . S
C117 H133 0.930 . S
C118 C116 1.371 . S
C118 C119 1.392 . S
C118 H134 0.931 . S
C119 C118 1.392 . S
C119 C120 1.331 . S
C119 H137 0.932 . S
C120 C119 1.331 . S
C120 C121 1.336 . S
C121 C117 1.394 . S
C121 C120 1.336 . S
C121 H136 0.929 . S
C122 C112 1.386 . S
C122 C115 1.357 . S
C122 H135 0.928 . S
H123 C99 0.931 . S
H124 C101 0.930 . S
H125 C103 0.929 . S
H126 C104 0.931 . S
H127 C106 0.930 . S
H128 C110 0.931 . S
H129 C108 0.931 . S
H130 C112 0.931 . S
H131 C113 0.929 . S
H132 C114 0.930 . S
H133 C117 0.930 . S
H134 C118 0.931 . S
H135 C122 0.928 . S
H136 C121 0.929 . S
H137 C119 0.932 . S
C138 C139 1.386 . S
C138 C140 1.397 . S
C138 H162 0.931 . S
C139 C138 1.386 . S
C139 C143 1.397 1_455 S
C140 C138 1.397 . S
C140 C141 1.384 1_554 S
C140 H163 0.930 1_554 S
C141 C140 1.384 1_556 S
C141 C142 1.377 1_456 S
C141 C144 1.481 . S
C142 C141 1.377 1_654 S
C142 C143 1.389 . S
C142 H164 0.929 1_554 S
C143 C139 1.397 1_655 S
C143 C142 1.389 . S
C143 H165 0.931 . S
C144 C141 1.481 . S
C144 C145 1.387 . S
C144 C149 1.390 1_455 S
C145 C144 1.387 . S
C145 C146 1.401 . S
C145 H166 0.930 . S
C146 C145 1.401 . S
C146 C147 1.376 . S
C146 C155 1.511 . S
C147 C146 1.376 . S
C147 C148 1.392 1_455 S
C147 H168 0.931 . S
C148 C147 1.392 1_655 S
C148 C149 1.361 . S
C148 C150 1.500 . S
C149 C144 1.390 1_655 S
C149 C148 1.361 . S
C149 H167 0.931 . S
C150 C148 1.500 . S
C150 C151 1.371 . S
C150 C152 1.365 . S
C151 C150 1.371 . S
C151 C161 1.386 . S
C151 H169 0.931 . S
C152 C150 1.365 . S
C152 C153 1.409 . S
C152 H170 0.929 . S
C153 C152 1.409 . S
C153 C154 1.380 . S
C153 H171 0.930 . S
C154 C153 1.380 . S
C154 C161 1.357 . S
C155 C146 1.511 . S
C155 C156 1.341 . S
C155 C157 1.371 . S
C156 C155 1.341 . S
C156 C160 1.394 . S
C156 H172 0.930 . S
C157 C155 1.371 . S
C157 C158 1.392 . S
C157 H173 0.931 . S
C158 C157 1.392 . S
C158 C159 1.331 . S
C158 H176 0.932 . S
C159 C158 1.331 . S
C159 C160 1.336 . S
C160 C156 1.394 . S
C160 C159 1.336 . S
C160 H175 0.929 . S
C161 C151 1.386 . S
C161 C154 1.357 . S
C161 H174 0.928 . S
H162 C138 0.931 . S
H163 C140 0.930 1_556 S
H164 C142 0.929 1_556 S
H165 C143 0.931 . S
H166 C145 0.930 . S
H167 C149 0.931 . S
H168 C147 0.931 . S
H169 C151 0.931 . S
H170 C152 0.929 . S
H171 C153 0.930 . S
H172 C156 0.930 . S
H173 C157 0.931 . S
H174 C161 0.928 . S
H175 C160 0.929 . S
H176 C158 0.932 . S
C177 C178 1.386 . S
C177 C179 1.397 . S
C177 H201 0.931 . S
C178 C177 1.386 . S
C178 C182 1.397 1_655 S
C179 C177 1.397 . S
C179 C180 1.384 1_655 S
C179 H202 0.930 . S
C180 C179 1.384 1_455 S
C180 C181 1.377 . S
C180 C183 1.481 . S
C181 C180 1.377 . S
C181 C182 1.389 . S
C181 H203 0.929 . S
C182 C178 1.397 1_455 S
C182 C181 1.389 . S
C182 H204 0.931 . S
C183 C180 1.481 . S
C183 C184 1.387 1_455 S
C183 C188 1.390 . S
C184 C183 1.387 1_655 S
C184 C185 1.401 . S
C184 H205 0.930 . S
C185 C184 1.401 . S
C185 C186 1.376 1_655 S
C185 C194 1.511 . S
C186 C185 1.376 1_455 S
C186 C187 1.392 . S
C186 H207 0.931 . S
C187 C186 1.392 . S
C187 C188 1.361 . S
C187 C189 1.500 . S
C188 C183 1.390 . S
C188 C187 1.361 . S
C188 H206 0.931 . S
C189 C187 1.500 . S
C189 C190 1.371 . S
C189 C191 1.365 . S
C190 C189 1.371 . S
C190 C200 1.386 . S
C190 H208 0.931 . S
C191 C189 1.365 . S
C191 C192 1.409 . S
C191 H209 0.929 . S
C192 C191 1.409 . S
C192 C193 1.380 . S
C192 H210 0.930 . S
C193 C192 1.380 . S
C193 C200 1.357 . S
C194 C185 1.511 . S
C194 C195 1.341 . S
C194 C196 1.371 . S
C195 C194 1.341 . S
C195 C199 1.394 . S
C195 H211 0.930 . S
C196 C194 1.371 . S
C196 C197 1.392 . S
C196 H212 0.931 . S
C197 C196 1.392 . S
C197 C198 1.331 . S
C197 H215 0.932 . S
C198 C197 1.331 . S
C198 C199 1.336 . S
C199 C195 1.394 . S
C199 C198 1.336 . S
C199 H214 0.929 . S
C200 C190 1.386 . S
C200 C193 1.357 . S
C200 H213 0.928 . S
H201 C177 0.931 . S
H202 C179 0.930 . S
H203 C181 0.929 . S
H204 C182 0.931 . S
H205 C184 0.930 . S
H206 C188 0.931 . S
H207 C186 0.931 . S
H208 C190 0.931 . S
H209 C191 0.929 . S
H210 C192 0.930 . S
H211 C195 0.930 . S
H212 C196 0.931 . S
H213 C200 0.928 . S
H214 C199 0.929 . S
H215 C197 0.932 . S
C216 C217 1.386 1_565 S
C216 C218 1.397 . S
C216 H240 0.931 . S
C217 C216 1.386 1_545 S
C217 C221 1.397 . S
C218 C216 1.397 . S
C218 C219 1.384 1_565 S
C218 H241 0.930 . S
C219 C218 1.384 1_545 S
C219 C220 1.377 . S
C219 C222 1.481 . S
C220 C219 1.377 . S
C220 C221 1.389 . S
C220 H242 0.929 . S
C221 C217 1.397 . S
C221 C220 1.389 . S
C221 H243 0.931 . S
C222 C219 1.481 . S
C222 C223 1.387 1_545 S
C222 C227 1.390 . S
C223 C222 1.387 1_565 S
C223 C224 1.401 . S
C223 H244 0.930 . S
C224 C223 1.401 . S
C224 C225 1.376 1_565 S
C224 C233 1.511 . S
C225 C224 1.376 1_545 S
C225 C226 1.392 . S
C225 H246 0.931 . S
C226 C225 1.392 . S
C226 C227 1.361 . S
C226 C228 1.500 . S
C227 C222 1.390 . S
C227 C226 1.361 . S
C227 H245 0.931 . S
C228 C226 1.500 . S
C228 C229 1.371 . S
C228 C230 1.365 . S
C229 C228 1.371 . S
C229 C239 1.386 . S
C229 H247 0.931 . S
C230 C228 1.365 . S
C230 C231 1.409 . S
C230 H248 0.929 . S
C231 C230 1.409 . S
C231 C232 1.380 . S
C231 H249 0.930 . S
C232 C231 1.380 . S
C232 C239 1.357 . S
C233 C224 1.511 . S
C233 C234 1.341 . S
C233 C235 1.371 . S
C234 C233 1.341 . S
C234 C238 1.394 . S
C234 H250 0.930 . S
C235 C233 1.371 . S
C235 C236 1.392 . S
C235 H251 0.931 . S
C236 C235 1.392 . S
C236 C237 1.331 . S
C236 H254 0.932 . S
C237 C236 1.331 . S
C237 C238 1.336 . S
C238 C234 1.394 . S
C238 C237 1.336 . S
C238 H253 0.929 . S
C239 C229 1.386 . S
C239 C232 1.357 . S
C239 H252 0.928 . S
H240 C216 0.931 . S
H241 C218 0.930 . S
H242 C220 0.929 . S
H243 C221 0.931 . S
H244 C223 0.930 . S
H245 C227 0.931 . S
H246 C225 0.931 . S
H247 C229 0.931 . S
H248 C230 0.929 . S
H249 C231 0.930 . S
H250 C234 0.930 . S
H251 C235 0.931 . S
H252 C239 0.928 . S
H253 C238 0.929 . S
H254 C236 0.932 . S
C255 C256 1.386 . S
C255 C257 1.397 . S
C255 H279 0.931 . S
C256 C255 1.386 . S
C256 C260 1.397 . S
C257 C255 1.397 . S
C257 C258 1.384 1_556 S
C257 H280 0.930 1_556 S
C258 C257 1.384 1_554 S
C258 C259 1.377 1_554 S
C258 C261 1.481 . S
C259 C258 1.377 1_556 S
C259 C260 1.389 . S
C259 H281 0.929 1_556 S
C260 C256 1.397 . S
C260 C259 1.389 . S
C260 H282 0.931 . S
C261 C258 1.481 . S
C261 C262 1.387 . S
C261 C266 1.390 . S
C262 C261 1.387 . S
C262 C263 1.401 . S
C262 H283 0.930 . S
C263 C262 1.401 . S
C263 C264 1.376 . S
C263 C272 1.511 . S
C264 C263 1.376 . S
C264 C265 1.392 . S
C264 H285 0.931 . S
C265 C264 1.392 . S
C265 C266 1.361 . S
C265 C267 1.500 . S
C266 C261 1.390 . S
C266 C265 1.361 . S
C266 H284 0.931 . S
C267 C265 1.500 . S
C267 C268 1.371 . S
C267 C269 1.365 . S
C268 C267 1.371 . S
C268 C278 1.386 . S
C268 H286 0.931 . S
C269 C267 1.365 . S
C269 C270 1.409 . S
C269 H287 0.929 . S
C270 C269 1.409 . S
C270 C271 1.380 . S
C270 H288 0.930 . S
C271 C270 1.380 . S
C271 C278 1.357 . S
C272 C263 1.511 . S
C272 C273 1.341 . S
C272 C274 1.371 . S
C273 C272 1.341 . S
C273 C277 1.394 . S
C273 H289 0.930 . S
C274 C272 1.371 . S
C274 C275 1.392 . S
C274 H290 0.931 . S
C275 C274 1.392 . S
C275 C276 1.331 . S
C275 H293 0.932 . S
C276 C275 1.331 . S
C276 C277 1.336 . S
C277 C273 1.394 . S
C277 C276 1.336 . S
C277 H292 0.929 . S
C278 C268 1.386 . S
C278 C271 1.357 . S
C278 H291 0.928 . S
H279 C255 0.931 . S
H280 C257 0.930 1_554 S
H281 C259 0.929 1_554 S
H282 C260 0.931 . S
H283 C262 0.930 . S
H284 C266 0.931 . S
H285 C264 0.931 . S
H286 C268 0.931 . S
H287 C269 0.929 . S
H288 C270 0.930 . S
H289 C273 0.930 . S
H290 C274 0.931 . S
H291 C278 0.928 . S
H292 C277 0.929 . S
H293 C275 0.932 . S
C2 C271 1.687 . S
C22 C198 1.646 . S
C44 C237 1.836 . S
C4 C276 2.087 . S
C193 C24 2.156 . S
C232 C42 1.922 . S
C32 C120 1.736 . S
C49 C154 1.488 . S
C9 C76 1.432 . S
C115 C29 1.345 . S
C159 C52 1.533 . S
C12 C81 1.491 . S
C139 C18 1.455 1_455 S
C38 C61 1.432 . S
C58 C100 1.381 . S
C217 C39 1.541 . S
C256 C59 1.500 . S
C19 C178 1.502 1_455 S
