# Generated by pormake.
# Topology anh, (6,3)-cn, num edge types: 1
# Building blocks:
#     Node 0, Type 0, BuildingBlock: BETDIP_clean_sbu_0, # of connection points: 6
#     Node 1, Type 0, BuildingBlock: BETDIP_clean_sbu_0, # of connection points: 6
#     Node 2, Type 0, BuildingBlock: BETDIP_clean_sbu_0, # of connection points: 6
#     Node 3, Type 1, BuildingBlock: KAKCAD_clean_linker_0, # of connection points: 3
#     Node 4, Type 1, BuildingBlock: KAKCAD_clean_linker_0, # of connection points: 3
#     Node 5, Type 1, BuildingBlock: KAKCAD_clean_linker_0, # of connection points: 3
#     Node 6, Type 1, BuildingBlock: KAKCAD_clean_linker_0, # of connection points: 3
#     Node 7, Type 1, BuildingBlock: KAKCAD_clean_linker_0, # of connection points: 3
#     Node 8, Type 1, BuildingBlock: KAKCAD_clean_linker_0, # of connection points: 3
#     Edge 9, Type (0, 1), BuildingBlock: TEMPAE_clean_linker_10, # of connection points: 2
#     Edge 10, Type (0, 1), BuildingBlock: TEMPAE_clean_linker_10, # of connection points: 2
#     Edge 11, Type (0, 1), BuildingBlock: TEMPAE_clean_linker_10, # of connection points: 2
#     Edge 12, Type (0, 1), BuildingBlock: TEMPAE_clean_linker_10, # of connection points: 2
#     Edge 13, Type (0, 1), BuildingBlock: TEMPAE_clean_linker_10, # of connection points: 2
#     Edge 14, Type (0, 1), BuildingBlock: TEMPAE_clean_linker_10, # of connection points: 2
#     Edge 15, Type (0, 1), BuildingBlock: TEMPAE_clean_linker_10, # of connection points: 2
#     Edge 16, Type (0, 1), BuildingBlock: TEMPAE_clean_linker_10, # of connection points: 2
#     Edge 17, Type (0, 1), BuildingBlock: TEMPAE_clean_linker_10, # of connection points: 2
#     Edge 18, Type (0, 1), BuildingBlock: TEMPAE_clean_linker_10, # of connection points: 2
#     Edge 19, Type (0, 1), BuildingBlock: TEMPAE_clean_linker_10, # of connection points: 2
#     Edge 20, Type (0, 1), BuildingBlock: TEMPAE_clean_linker_10, # of connection points: 2
#     Edge 21, Type (0, 1), BuildingBlock: TEMPAE_clean_linker_10, # of connection points: 2
#     Edge 22, Type (0, 1), BuildingBlock: TEMPAE_clean_linker_10, # of connection points: 2
#     Edge 23, Type (0, 1), BuildingBlock: TEMPAE_clean_linker_10, # of connection points: 2
#     Edge 24, Type (0, 1), BuildingBlock: TEMPAE_clean_linker_10, # of connection points: 2
#     Edge 25, Type (0, 1), BuildingBlock: TEMPAE_clean_linker_10, # of connection points: 2
#     Edge 26, Type (0, 1), BuildingBlock: TEMPAE_clean_linker_10, # of connection points: 2
# Relax obj value: 0.241
# Max RMSD: 0.183
# Mean RMSD: 0.155
data_MOF--net-anh--node1-BETDIP_clean_sbu_0--node2-KAKCAD_clean_linker_0--edge1-TEMPAE_clean_linker_10
_symmetry_space_group_name_H-M    P1
_symmetry_Int_Tables_number       1
_symmetry_cell_setting            triclinic
loop_
_symmetry_equiv_pos_as_xyz
'x, y, z'
_cell_length_a     37.819112
_cell_length_b     37.806985
_cell_length_c     67.78355
_cell_angle_alpha  90.01592
_cell_angle_beta   90.000418
_cell_angle_gamma 119.98059
loop_
_atom_site_label
_atom_site_type_symbol
_atom_site_fract_x
_atom_site_fract_y
_atom_site_fract_z
_atom_type_partial_charge
Tb0 Tb 0.12423 0.60501 0.16672 0.0
Tb1 Tb 0.08218 0.51721 0.15776 0.0
C2 C 0.16829 0.67209 0.18351 0.0
C3 C 0.21213 0.70074 0.18512 0.0
C4 C 0.22649 0.72813 0.20092 0.0
C5 C 0.26769 0.75758 0.2021 0.0
C6 C 0.29523 0.76008 0.18746 0.0
C7 C 0.28097 0.73146 0.172 0.0
C8 C 0.23963 0.70183 0.17087 0.0
C9 C 0.10886 0.58735 0.12935 0.0
C10 C 0.1797 0.56096 0.15796 0.0
C11 C 1.03727 0.44856 0.14215 0.0
C12 C 0.99477 0.42841 0.13515 0.0
C13 C 0.9682 0.38736 0.1398 0.0
C14 C 0.92612 0.37046 0.1373 0.0
C15 C 0.90994 0.39465 0.13044 0.0
C16 C 0.93713 0.43434 0.12371 0.0
C17 C 0.97913 0.45114 0.12615 0.0
C18 C 0.09515 0.53467 0.19601 0.0
C19 C 1.02878 0.56445 0.15988 0.0
O20 O 0.15518 0.63679 0.19219 0.0
O21 O 0.15232 0.66866 0.16599 0.0
O22 O 0.12052 0.57041 0.14163 0.0
O23 O 0.10808 0.61785 0.13767 0.0
O24 O 0.17808 0.59423 0.16355 0.0
O25 O 0.14488 0.52663 0.15411 0.0
O26 O 1.06355 0.48081 0.1323 0.0
O27 O 1.04177 0.45435 0.16122 0.0
O28 O 0.08426 0.55206 0.1834 0.0
O29 O 0.09738 0.50528 0.18729 0.0
O30 O 1.03166 0.53224 0.15382 0.0
O31 O 1.06133 0.59588 0.16815 0.0
H32 H 0.20562 0.7275 0.21206 0.0
H33 H 0.27757 0.77963 0.214 0.0
H34 H 0.30157 0.73261 0.16058 0.0
H35 H 0.22898 0.68051 0.15865 0.0
H36 H 0.97974 0.3691 0.14649 0.0
H37 H 0.90617 0.33923 0.14195 0.0
H38 H 0.92613 0.45377 0.11801 0.0
H39 H 0.99906 0.48273 0.12211 0.0
Tb40 Tb 0.59898 1.04121 0.49645 0.0
Tb41 Tb 0.55214 0.08234 0.4921 0.0
C42 C 0.62732 0.99765 0.50842 0.0
C43 C 0.62066 0.95627 0.50506 0.0
C44 C 0.58752 0.92154 0.51348 0.0
C45 C 0.58476 0.88337 0.51173 0.0
C46 C 0.61501 0.87945 0.50153 0.0
C47 C 0.64687 0.91389 0.49232 0.0
C48 C 0.64977 0.95188 0.49416 0.0
C49 C 0.59278 0.05983 0.4599 0.0
C50 C 0.49934 0.98492 0.48959 0.0
C51 C 0.52575 0.12861 0.48136 0.0
C52 C 0.54552 0.1728 0.47701 0.0
C53 C 0.54504 0.19929 0.49132 0.0
C54 C 0.5673 0.24138 0.48856 0.0
C55 C 0.59003 0.2583 0.47117 0.0
C56 C 0.58861 0.23159 0.45632 0.0
C57 C 0.5667 0.18926 0.45923 0.0
C58 C 0.55979 0.06436 0.52927 0.0
C59 C 0.65215 0.13712 0.49226 0.0
O60 O 0.59931 1.00147 0.51803 0.0
O61 O 0.64195 1.02246 0.49339 0.0
O62 O 0.56532 1.0468 0.47282 0.0
O63 O 0.62431 0.05918 0.46678 0.0
O64 O 0.53476 0.98656 0.494 0.0
O65 O 0.49932 1.01988 0.48699 0.0
O66 O 0.53328 0.1064 0.46919 0.0
O67 O 0.52696 0.11885 0.49976 0.0
O68 O 0.58753 0.07837 0.51625 0.0
O69 O 0.52679 0.06075 0.52156 0.0
O70 O 0.61659 0.13434 0.48735 0.0
O71 O 0.6517 0.10414 0.49939 0.0
H72 H 0.56453 0.92398 0.52192 0.0
H73 H 0.55988 0.85723 0.51897 0.0
H74 H 0.67111 0.91205 0.48472 0.0
H75 H 0.67578 0.97819 0.48764 0.0
H76 H 0.52875 0.18754 0.50509 0.0
H77 H 0.56818 0.26054 0.50063 0.0
H78 H 0.60517 0.24331 0.44264 0.0
H79 H 0.5673 0.16957 0.44779 0.0
Tb80 Tb 0.56607 0.55788 0.83129 0.0
Tb81 Tb 0.65394 0.60397 0.82507 0.0
C82 C 0.49668 0.53196 0.84602 0.0
C83 C 0.46545 0.54393 0.84681 0.0
C84 C 0.43929 0.53177 0.86307 0.0
C85 C 0.40614 0.5382 0.86326 0.0
C86 C 0.39858 0.5569 0.84712 0.0
C87 C 0.42614 0.571 0.83123 0.0
C88 C 0.45957 0.56473 0.83112 0.0
C89 C 0.58825 0.56306 0.79441 0.0
C90 C 0.60979 0.65745 0.82358 0.0
C91 C 0.72473 0.62816 0.81219 0.0
C92 C 0.7485 0.60738 0.80865 0.0
C93 C 0.77728 0.61065 0.82262 0.0
C94 C 0.79663 0.5877 0.82067 0.0
C95 C 0.78872 0.5616 0.80434 0.0
C96 C 0.76149 0.56016 0.78977 0.0
C97 C 0.74127 0.58242 0.79202 0.0
C98 C 0.63228 0.59713 0.86284 0.0
C99 C 0.60746 0.50348 0.82566 0.0
O100 O 0.53057 0.55535 0.8556 0.0
O101 O 0.50294 0.52065 0.82874 0.0
O102 O 0.60342 0.59082 0.80718 0.0
O103 O 0.55708 0.5311 0.80181 0.0
O104 O 0.57628 0.62238 0.8287 0.0
O105 O 0.64433 0.65699 0.82025 0.0
O106 O 0.69306 0.61755 0.80082 0.0
O107 O 0.71677 0.63167 0.83064 0.0
O108 O 0.61645 0.56936 0.84983 0.0
O109 O 0.66206 0.62937 0.85479 0.0
O110 O 0.64067 0.539 0.82109 0.0
O111 O 0.57479 0.50396 0.83262 0.0
H112 H 0.44352 0.51576 0.87529 0.0
H113 H 0.38511 0.52635 0.87557 0.0
H114 H 0.4211 0.58567 0.81868 0.0
H115 H 0.4799 0.57474 0.81851 0.0
H116 H 0.78362 0.62972 0.83557 0.0
H117 H 0.81629 0.58918 0.83262 0.0
H118 H 0.75489 0.54112 0.77683 0.0
H119 H 0.7191 0.57915 0.78103 0.0
C120 C 0.56998 0.19978 0.32324 0.0
C121 C 0.59656 0.18544 0.32859 0.0
C122 C 0.5667 0.20863 0.30347 0.0
C123 C 0.59012 0.20344 0.28895 0.0
C124 C 0.6186 0.19186 0.29448 0.0
C125 C 0.62194 0.18312 0.31413 0.0
C126 C 0.58027 0.20267 0.26789 0.0
C127 C 0.5935 0.23871 0.25701 0.0
C128 C 0.58774 0.23682 0.2364 0.0
C129 C 0.56787 0.19841 0.22708 0.0
C130 C 0.55464 0.1624 0.23787 0.0
C131 C 0.56067 0.16481 0.2583 0.0
C132 C 0.53663 0.12248 0.22765 0.0
C133 C 0.50747 0.11267 0.2127 0.0
C134 C 0.54835 0.09381 0.23288 0.0
C135 C 0.53011 0.05551 0.22388 0.0
C136 C 0.49979 1.04513 0.20948 0.0
C137 C 0.60813 0.27398 0.22387 0.0
C138 C 0.58982 0.27608 0.20615 0.0
C139 C 0.64918 0.30316 0.22738 0.0
C140 C 0.67271 0.33019 0.21249 0.0
C141 C 0.65567 0.32831 0.19381 0.0
C142 C 0.61351 0.30276 0.19114 0.0
C143 C 0.48922 0.07435 0.2037 0.0
H144 H 0.54997 0.2017 0.33409 0.0
H145 H 0.54419 0.21705 0.29938 0.0
H146 H 0.63677 0.18751 0.28341 0.0
H147 H 0.64316 0.17281 0.31789 0.0
H148 H 0.60971 0.26797 0.26443 0.0
H149 H 0.55074 0.13714 0.26682 0.0
H150 H 0.56521 0.19653 0.21114 0.0
H151 H 0.4979 0.13417 0.20835 0.0
H152 H 0.57137 0.10086 0.24407 0.0
H153 H 0.53861 1.03348 0.22874 0.0
H154 H 0.55795 0.25462 0.20322 0.0
H155 H 0.66434 0.30242 0.2408 0.0
H156 H 0.46617 0.06725 0.19251 0.0
H157 H 0.59956 0.30112 0.17696 0.0
H158 H 0.7052 0.3494 0.21496 0.0
C159 C 0.70907 0.60081 0.65015 0.0
C160 C 0.72453 0.58552 0.66458 0.0
C161 C 0.72672 0.61136 0.63154 0.0
C162 C 0.7612 0.60808 0.62683 0.0
C163 C 0.77698 0.59293 0.64123 0.0
C164 C 0.75878 0.5817 0.65993 0.0
C165 C 0.77868 0.61876 0.60658 0.0
C166 C 0.7775 0.65042 0.59632 0.0
C167 C 0.78279 0.65414 0.57586 0.0
C168 C 0.7941 0.62902 0.56584 0.0
C169 C 0.79715 0.59809 0.57584 0.0
C170 C 0.78982 0.59343 0.59633 0.0
C171 C 0.79804 0.56562 0.5639 0.0
C172 C 0.76941 0.52454 0.56774 0.0
C173 C 0.82107 0.57547 0.54638 0.0
C174 C 0.81239 0.54557 0.53207 0.0
C175 C 0.78101 0.50525 0.53521 0.0
C176 C 0.76681 0.67651 0.56451 0.0
C177 C 0.72739 0.66935 0.56869 0.0
C178 C 0.78813 0.70102 0.54827 0.0
C179 C 0.77016 0.71808 0.53644 0.0
C180 C 0.73039 0.71009 0.54049 0.0
C181 C 0.70936 0.68588 0.5568 0.0
C182 C 0.76105 0.4947 0.55357 0.0
H183 H 0.68333 0.60506 0.65323 0.0
H184 H 0.71271 0.62162 0.62074 0.0
H185 H 0.8034 0.58987 0.63809 0.0
H186 H 0.77133 0.56973 0.67064 0.0
H187 H 0.76887 0.67018 0.60395 0.0
H188 H 0.78957 0.56808 0.60391 0.0
H189 H 0.7957 0.63043 0.54987 0.0
H190 H 0.75064 0.5158 0.58088 0.0
H191 H 0.84376 0.60682 0.54313 0.0
H192 H 0.82866 0.55438 0.51817 0.0
H193 H 0.70985 0.64982 0.58084 0.0
H194 H 0.81839 0.7066 0.54466 0.0
H195 H 0.73639 0.46397 0.5564 0.0
H196 H 0.67894 0.67988 0.56042 0.0
H197 H 0.78698 0.73688 0.52396 0.0
C198 C 1.01939 0.46815 0.98609 0.0
C199 C 0.98945 0.45026 0.00083 0.0
C200 C 1.0133 0.45038 0.96754 0.0
C201 C 0.97752 0.41345 0.96321 0.0
C202 C 0.94737 0.39533 0.97788 0.0
C203 C 0.95326 0.41358 -0.00348 0.0
C204 C 0.97189 0.39553 0.9431 0.0
C205 C 1.00602 0.39995 0.93272 0.0
C206 C 1.00406 0.39278 0.91241 0.0
C207 C 0.96668 0.37725 0.90266 0.0
C208 C 0.93173 0.37144 0.91275 0.0
C209 C 0.93443 0.38011 0.93311 0.0
C210 C 0.89644 0.36623 0.9009 0.0
C211 C 0.88077 0.39243 0.90426 0.0
C212 C 0.88446 0.34193 0.88376 0.0
C213 C 0.86133 0.34733 0.86924 0.0
C214 C 0.84935 0.37671 0.87178 0.0
C215 C 1.04207 0.40993 0.90075 0.0
C216 C 0.07211 0.45097 0.90356 0.0
C217 C 1.04725 0.38718 0.88582 0.0
C218 C 0.08241 0.40512 0.8741 0.0
C219 C 0.11231 0.44625 0.87694 0.0
C220 C 0.10679 0.46898 0.89173 0.0
C221 C 0.85747 0.39758 0.88987 0.0
H222 H 1.04804 0.49585 0.98889 0.0
H223 H 1.03676 0.46609 0.95651 0.0
H224 H 0.91941 0.36696 0.97502 0.0
H225 H 0.9294 0.3991 0.00748 0.0
H226 H 1.03521 0.41195 0.94013 0.0
H227 H 0.90826 0.37794 0.94075 0.0
H228 H 0.96605 0.37422 0.88674 0.0
H229 H 0.88971 0.41205 0.91712 0.0
H230 H 0.89561 0.32101 0.88091 0.0
H231 H 0.8549 0.33033 0.85558 0.0
H232 H 1.06841 0.46945 0.91469 0.0
H233 H 1.02421 0.35561 0.88327 0.0
H234 H 0.84908 0.42077 0.89227 0.0
H235 H 0.12971 0.50054 0.8944 0.0
H236 H 0.0862 0.38702 0.86281 0.0
C237 C 1.0491 0.52993 0.3577 0.0
C238 C 0.08619 0.55196 0.3472 0.0
C239 C 1.04763 0.53147 0.37842 0.0
C240 C 0.08334 0.55381 0.38985 0.0
C241 C 0.12052 0.57523 0.3794 0.0
C242 C 0.12181 0.57494 0.35863 0.0
C243 C 0.08174 0.55487 0.41234 0.0
C244 C 1.04948 0.52282 0.42294 0.0
C245 C 1.04503 0.5232 0.4437 0.0
C246 C 0.07818 0.55711 0.45431 0.0
C247 C 0.11312 0.58975 0.44402 0.0
C248 C 0.11242 0.58789 0.42316 0.0
C249 C 0.15202 0.6265 0.4533 0.0
C250 C 0.15157 0.65449 0.46711 0.0
C251 C 0.19121 0.6377 0.44559 0.0
C252 C 0.22718 0.67483 0.45059 0.0
C253 C 0.22692 0.70377 0.46378 0.0
C254 C 1.00474 0.48715 0.45252 0.0
C255 C 0.96756 0.47101 0.44171 0.0
C256 C 1.00232 0.46516 0.46995 0.0
C257 C 0.96543 0.42853 0.47559 0.0
C258 C 0.92906 0.41153 0.46401 0.0
C259 C 0.93137 0.43449 0.4471 0.0
C260 C 0.18801 0.69196 0.47227 0.0
H261 H 1.02067 0.51088 0.35009 0.0
H262 H 1.01795 0.51509 0.38534 0.0
H263 H 0.14921 0.59228 0.38713 0.0
H264 H 0.15122 0.59332 0.35172 0.0
H265 H 1.02729 0.49633 0.41485 0.0
H266 H 0.13648 0.61333 0.41521 0.0
H267 H 0.07688 0.55805 0.47024 0.0
H268 H 0.12273 0.64837 0.47338 0.0
H269 H 0.19409 0.61777 0.43504 0.0
H270 H 0.25557 0.68075 0.44387 0.0
H271 H 0.96635 0.48651 0.42852 0.0
H272 H 1.02936 0.47537 0.47894 0.0
H273 H 0.1852 0.71244 0.48247 0.0
H274 H 0.90474 0.42429 0.4378 0.0
H275 H 0.96594 0.41272 0.4888 0.0
C276 C 0.56712 1.03546 0.6913 0.0
C277 C 0.59048 0.07088 0.67985 0.0
C278 C 0.5693 1.03662 0.71206 0.0
C279 C 0.59479 0.07328 0.72223 0.0
C280 C 0.61817 0.10868 0.71082 0.0
C281 C 0.61612 0.1075 0.69006 0.0
C282 C 0.59704 0.07466 0.74456 0.0
C283 C 0.59695 1.0427 0.75528 0.0
C284 C 0.59887 1.04235 0.77614 0.0
C285 C 0.60209 0.0778 0.78641 0.0
C286 C 0.60265 0.11167 0.7758 0.0
C287 C 0.59934 0.10803 0.75497 0.0
C288 C 0.60663 0.15179 0.78476 0.0
C289 C 0.58565 0.15352 0.8018 0.0
C290 C 0.62868 0.18947 0.77443 0.0
C291 C 0.62804 0.22551 0.77988 0.0
C292 C 0.606 0.22714 0.79638 0.0
C293 C 0.59679 1.00352 0.7855 0.0
C294 C 0.56886 0.96414 0.77794 0.0
C295 C 0.62534 1.00426 0.79934 0.0
C296 C 0.62656 0.96798 0.80464 0.0
C297 C 0.59951 0.92886 0.79631 0.0
C298 C 0.57019 0.92829 0.7831 0.0
C299 C 0.58556 0.19022 0.80751 0.0
H300 H 0.54641 1.00672 0.68424 0.0
H301 H 0.55031 1.00876 0.72018 0.0
H302 H 0.63871 0.13742 0.71793 0.0
H303 H 0.63526 0.13539 0.682 0.0
H304 H 0.59614 1.01771 0.74708 0.0
H305 H 0.59761 0.13139 0.7465 0.0
H306 H 0.60406 0.07895 0.80235 0.0
H307 H 0.56795 0.12606 0.8104 0.0
H308 H 0.64645 0.19122 0.76157 0.0
H309 H 0.64533 0.25257 0.77095 0.0
H310 H 0.54591 0.96098 0.76741 0.0
H311 H 0.64802 1.03324 0.8055 0.0
H312 H 0.56814 0.18913 0.82039 0.0
H313 H 0.54772 0.89975 0.77649 0.0
H314 H 0.64993 0.97107 0.81484 0.0
C315 C 0.63232 0.55809 0.02496 0.0
C316 C 0.6103 0.57262 0.01405 0.0
C317 C 0.63113 0.55656 0.04574 0.0
C318 C 0.60898 0.57077 0.05676 0.0
C319 C 0.58737 0.58575 0.04587 0.0
C320 C 0.58744 0.586 0.02508 0.0
C321 C 0.60871 0.57037 0.0793 0.0
C322 C 0.64168 0.57237 0.09009 0.0
C323 C 0.64304 0.57216 0.11099 0.0
C324 C 0.60858 0.57064 0.12137 0.0
C325 C 0.57475 0.57011 0.11084 0.0
C326 C 0.57579 0.5687 0.08998 0.0
C327 C 0.53805 0.57265 0.11991 0.0
C328 C 0.51141 0.546 0.13465 0.0
C329 C 0.52564 0.59905 0.11137 0.0
C330 C 0.48867 0.59811 0.11654 0.0
C331 C 0.46101 0.5706 0.1307 0.0
C332 C 0.68221 0.57504 0.12034 0.0
C333 C 0.68184 0.54734 0.13459 0.0
C334 C 0.72137 0.60256 0.11246 0.0
C335 C 0.75737 0.60162 0.11774 0.0
C336 C 0.75714 0.57311 0.13139 0.0
C337 C 0.71824 0.5465 0.14001 0.0
C338 C 0.47404 0.54507 0.13992 0.0
H339 H 0.65118 0.54811 0.01762 0.0
H340 H 0.64767 0.54382 0.05304 0.0
H341 H 0.57045 0.59795 0.05327 0.0
H342 H 0.56907 0.59666 0.01782 0.0
H343 H 0.66734 0.57442 0.08207 0.0
H344 H 0.54978 0.56578 0.08192 0.0
H345 H 0.60887 0.57147 0.13733 0.0
H346 H 0.51851 0.52453 0.14161 0.0
H347 H 0.54452 0.62048 0.10009 0.0
H348 H 0.48193 0.61946 0.1092 0.0
H349 H 0.65302 0.52499 0.14102 0.0
H350 H 0.72425 0.62486 0.10161 0.0
H351 H 0.45465 0.52309 0.15086 0.0
H352 H 0.71541 0.52374 0.15054 0.0
H353 H 0.78574 0.62373 0.11088 0.0
C354 C 0.2235 0.52844 0.14766 0.0
C355 C 0.22133 0.56255 0.15479 0.0
C356 C 0.26141 0.5293 0.14419 0.0
C357 C 0.29983 0.56516 0.14785 0.0
C358 C 0.29789 0.59967 0.15516 0.0
C359 C 0.25948 0.59802 0.15844 0.0
C360 C 0.2602 0.4914 0.13636 0.0
C361 C 0.3368 0.63889 0.15952 0.0
C362 C 0.39938 0.55637 0.15382 0.0
C363 C 0.4194 0.56876 0.13531 0.0
C364 C 0.36156 0.55537 0.15808 0.0
C365 C 0.34141 0.56667 0.14364 0.0
C366 C 0.36121 0.57887 0.12492 0.0
C367 C 0.39901 0.57978 0.12109 0.0
C368 C 0.34311 0.54224 0.17832 0.0
C369 C 0.34216 0.59092 0.10864 0.0
H370 H 0.19516 0.50058 0.14458 0.0
H371 H 0.25949 0.62497 0.16389 0.0
H372 H 0.2762 0.49811 0.12195 0.0
H373 H 0.27653 0.48157 0.1466 0.0
H374 H 0.22852 0.46572 0.13437 0.0
H375 H 0.33095 0.66294 0.1654 0.0
H376 H 0.35527 0.63319 0.17042 0.0
H377 H 0.35533 0.65047 0.14589 0.0
H378 H 0.41361 0.54793 0.16533 0.0
H379 H 0.41224 0.58867 0.10652 0.0
H380 H 0.31213 0.5151 0.17713 0.0
H381 H 0.3397 0.56695 0.18527 0.0
H382 H 0.36191 0.53466 0.18814 0.0
H383 H 0.31137 0.56501 0.10514 0.0
H384 H 0.36082 0.60011 0.09496 0.0
H385 H 0.33817 0.6167 0.11356 0.0
C386 C 0.7315 0.17921 0.49006 0.0
C387 C 0.69323 0.17749 0.48912 0.0
C388 C 0.7696 0.21598 0.48639 0.0
C389 C 0.77113 0.25366 0.48192 0.0
C390 C 0.7326 0.25208 0.48126 0.0
C391 C 0.6949 0.21475 0.48451 0.0
C392 C 0.80851 0.2142 0.48695 0.0
C393 C 0.73074 0.28999 0.4768 0.0
C394 C 0.87459 0.35835 0.48842 0.0
C395 C 0.88922 0.37053 0.46894 0.0
C396 C 0.83694 0.32145 0.49277 0.0
C397 C 0.81234 0.29395 0.47751 0.0
C398 C 0.82729 0.30577 0.45788 0.0
C399 C 0.86444 0.34321 0.45392 0.0
C400 C 0.82285 0.31237 0.5139 0.0
C401 C 0.80383 0.2786 0.4408 0.0
H402 H 0.73178 0.15131 0.49335 0.0
H403 H 0.66641 0.21497 0.48349 0.0
H404 H 0.82427 0.22397 0.47249 0.0
H405 H 0.82948 0.23571 0.49823 0.0
H406 H 0.80294 0.18309 0.49035 0.0
H407 H 0.70119 0.28677 0.48152 0.0
H408 H 0.75592 0.31701 0.48422 0.0
H409 H 0.734 0.29549 0.46067 0.0
H410 H 0.8921 0.37838 0.50043 0.0
H411 H 0.87442 0.35081 0.43876 0.0
H412 H 0.81889 0.28236 0.51833 0.0
H413 H 0.79265 0.31034 0.51535 0.0
H414 H 0.84462 0.33609 0.52422 0.0
H415 H 0.79791 0.24711 0.4434 0.0
H416 H 0.8203 0.28982 0.42657 0.0
H417 H 0.77377 0.27689 0.43953 0.0
C418 C 0.573 0.70045 0.82425 0.0
C419 C 0.60821 0.69748 0.82029 0.0
C420 C 0.5714 0.73726 0.82099 0.0
C421 C 0.60563 0.77341 0.81328 0.0
C422 C 0.64119 0.77052 0.80925 0.0
C423 C 0.64208 0.73349 0.81279 0.0
C424 C 0.53256 0.73735 0.82584 0.0
C425 C 0.67872 0.80683 0.80091 0.0
C426 C 0.58945 0.85731 0.78682 0.0
C427 C 0.60163 0.88924 0.80085 0.0
C428 C 0.59061 0.82052 0.79059 0.0
C429 C 0.60409 0.81349 0.80909 0.0
C430 C 0.61649 0.84545 0.82335 0.0
C431 C 0.61538 0.88223 0.81912 0.0
C432 C 0.57748 0.78893 0.77448 0.0
C433 C 0.63085 0.84069 0.84339 0.0
H434 H 0.54626 0.67374 0.82999 0.0
H435 H 0.66973 0.73278 0.80945 0.0
H436 H 0.53904 0.76205 0.83656 0.0
H437 H 0.52018 0.74376 0.81232 0.0
H438 H 0.50885 0.70779 0.83214 0.0
H439 H 0.70409 0.8005 0.79851 0.0
H440 H 0.6712 0.81589 0.78664 0.0
H441 H 0.68937 0.83325 0.81106 0.0
H442 H 0.57942 0.8612 0.77243 0.0
H443 H 0.62475 0.90536 0.83047 0.0
H444 H 0.55176 0.75945 0.77971 0.0
H445 H 0.60299 0.78359 0.77071 0.0
H446 H 0.56778 0.79819 0.76089 0.0
H447 H 0.60659 0.81277 0.85067 0.0
H448 H 0.63901 0.86733 0.85312 0.0
H449 H 0.65791 0.8368 0.84181 0.0
C450 C 0.98501 0.60035 0.16104 0.0
C451 C 0.9886 0.56566 0.15659 0.0
C452 C 0.94834 0.60196 0.1574 0.0
C453 C 0.91281 0.56812 0.14901 0.0
C454 C 0.91641 0.5331 0.14449 0.0
C455 C 0.95335 0.53235 0.14831 0.0
C456 C 0.94792 0.64062 0.1623 0.0
C457 C 0.88164 0.49568 0.13522 0.0
C458 C 0.80414 0.55852 0.15459 0.0
C459 C 0.79687 0.57136 0.13611 0.0
C460 C 0.84097 0.55766 0.15895 0.0
C461 C 0.87283 0.56969 0.1447 0.0
C462 C 0.86548 0.58203 0.12598 0.0
C463 C 0.82859 0.58285 0.12202 0.0
C464 C 0.84588 0.54395 0.17912 0.0
C465 C 0.89674 0.59398 0.1098 0.0
H466 H 1.01126 0.62683 0.16729 0.0
H467 H 0.95445 0.5051 0.14471 0.0
H468 H 0.9412 0.65282 0.1488 0.0
H469 H 0.92331 0.63398 0.17308 0.0
H470 H 0.97743 0.66453 0.16855 0.0
H471 H 0.87565 0.4683 0.14386 0.0
H472 H 0.85303 0.49682 0.13414 0.0
H473 H 0.89056 0.49193 0.12011 0.0
H474 H 0.78116 0.54962 0.16597 0.0
H475 H 0.82444 0.592 0.10747 0.0
H476 H 0.86986 0.57046 0.18736 0.0
H477 H 0.85602 0.5211 0.17786 0.0
H478 H 0.81715 0.53056 0.18781 0.0
H479 H 0.92681 0.61883 0.11499 0.0
H480 H 0.88802 0.60435 0.09626 0.0
H481 H 0.9005 0.56749 0.10598 0.0
C482 C 0.423 0.94133 0.4794 0.0
C483 C 0.45925 0.94336 0.48645 0.0
C484 C 0.38582 0.90348 0.47606 0.0
C485 C 0.38302 0.865 0.47991 0.0
C486 C 0.41941 0.86681 0.48719 0.0
C487 C 0.45638 0.90515 0.49022 0.0
C488 C 0.34925 0.90481 0.46815 0.0
C489 C 0.4194 0.82783 0.49184 0.0
C490 C 0.27435 0.76624 0.48641 0.0
C491 C 0.26668 0.74546 0.46811 0.0
C492 C 0.31132 0.80405 0.49044 0.0
C493 C 0.34277 0.82348 0.47594 0.0
C494 C 0.33504 0.80294 0.45741 0.0
C495 C 0.29809 0.76506 0.45384 0.0
C496 C 0.31687 0.8232 0.51053 0.0
C497 C 0.36604 0.8213 0.44105 0.0
H498 H 0.42363 0.96972 0.47624 0.0
H499 H 0.48327 0.90506 0.49566 0.0
H500 H 0.33958 0.88817 0.45391 0.0
H501 H 0.32325 0.88917 0.47853 0.0
H502 H 0.35557 0.93653 0.46583 0.0
H503 H 0.4491 0.8336 0.49791 0.0
H504 H 0.39499 0.80961 0.50268 0.0
H505 H 0.4126 0.80908 0.47828 0.0
H506 H 0.2516 0.75256 0.49792 0.0
H507 H 0.29366 0.75109 0.43943 0.0
H508 H 0.32072 0.85416 0.50907 0.0
H509 H 0.34504 0.82682 0.51751 0.0
H510 H 0.29059 0.80477 0.52046 0.0
H511 H 0.37136 0.85221 0.43741 0.0
H512 H 0.35622 0.80236 0.42746 0.0
H513 H 0.39564 0.82491 0.44597 0.0
C514 C 0.64239 0.46055 0.81847 0.0
C515 C 0.60658 0.46233 0.82232 0.0
C516 C 0.64202 0.42286 0.81513 0.0
C517 C 0.60489 0.38447 0.8148 0.0
C518 C 0.56852 0.38613 0.81846 0.0
C519 C 0.56981 0.42418 0.82232 0.0
C520 C 0.68202 0.42458 0.81165 0.0
C521 C 0.52768 0.34741 0.81793 0.0
C522 C 0.60377 0.29269 0.78642 0.0
C523 C 0.60453 0.26684 0.8014 0.0
C524 C 0.60317 0.32967 0.79051 0.0
C525 C 0.60414 0.34336 0.81024 0.0
C526 C 0.60523 0.31768 0.82545 0.0
C527 C 0.60486 0.28024 0.82096 0.0
C528 C 0.60153 0.35436 0.77344 0.0
C529 C 0.60795 0.3304 0.84672 0.0
H530 H 0.6713 0.48895 0.81818 0.0
H531 H 0.54148 0.424 0.82499 0.0
H532 H 0.68267 0.39858 0.81886 0.0
H533 H 0.6861 0.42267 0.79557 0.0
H534 H 0.70791 0.45355 0.81727 0.0
H535 H 0.50198 0.35308 0.82072 0.0
H536 H 0.52316 0.33252 0.80331 0.0
H537 H 0.52679 0.32565 0.82916 0.0
H538 H 0.60304 0.2837 0.77119 0.0
H539 H 0.60596 0.26191 0.83296 0.0
H540 H 0.6301 0.38436 0.77294 0.0
H541 H 0.5759 0.36042 0.77546 0.0
H542 H 0.59769 0.33875 0.75906 0.0
H543 H 0.63601 0.36042 0.84896 0.0
H544 H 0.60863 0.30788 0.857 0.0
H545 H 0.58156 0.33427 0.85053 0.0
C546 C 0.61503 0.82467 0.52168 0.0
C547 C 0.61773 0.84187 0.50306 0.0
C548 C 0.62862 0.7968 0.52465 0.0
C549 C 0.64503 0.78581 0.50855 0.0
C550 C 0.64375 0.79968 0.48934 0.0
C551 C 0.63021 0.8278 0.48682 0.0
C552 C 0.62915 0.78238 0.54537 0.0
C553 C 0.65987 0.78768 0.47175 0.0
C554 C 0.73144 0.7705 0.52539 0.0
C555 C 0.711 0.72832 0.52852 0.0
C556 C 0.7108 0.7894 0.51755 0.0
C557 C 0.66892 0.7653 0.51257 0.0
C558 C 0.64917 0.72231 0.5141 0.0
C559 C 0.67043 0.70428 0.52224 0.0
C560 C 0.73297 0.83542 0.51608 0.0
C561 C 0.60492 0.69559 0.50846 0.0
H562 H 0.60563 0.8356 0.5343 0.0
H563 H 0.63169 0.84065 0.47233 0.0
H564 H 0.61656 0.74887 0.54564 0.0
H565 H 0.66114 0.79695 0.55073 0.0
H566 H 0.61132 0.79008 0.55579 0.0
H567 H 0.64876 0.79358 0.45764 0.0
H568 H 0.69372 0.80573 0.47175 0.0
H569 H 0.65088 0.75492 0.47243 0.0
H570 H 0.76276 0.78903 0.53031 0.0
H571 H 0.65486 0.67149 0.52441 0.0
H572 H 0.72016 0.8478 0.52704 0.0
H573 H 0.72859 0.84502 0.50125 0.0
H574 H 0.76623 0.84929 0.51888 0.0
H575 H 0.58527 0.69711 0.52019 0.0
H576 H 0.59675 0.66317 0.50664 0.0
H577 H 0.59793 0.70633 0.49456 0.0
C578 C 0.78221 0.4933 0.79624 0.0
C579 C 0.80524 0.53295 0.80407 0.0
C580 C 0.79115 0.46256 0.80129 0.0
C581 C 0.82295 0.47157 0.8148 0.0
C582 C 0.85004 0.51263 0.82015 0.0
C583 C 0.84137 0.54299 0.8143 0.0
C584 C 0.76447 0.41971 0.79366 0.0
C585 C 0.88545 0.52393 0.83397 0.0
C586 C 0.80511 0.40228 0.85816 0.0
C587 C 0.8345 0.39077 0.85495 0.0
C588 C 0.79918 0.42646 0.84445 0.0
C589 C 0.82247 0.43849 0.82681 0.0
C590 C 0.84895 0.42322 0.8225 0.0
C591 C 0.85478 0.39954 0.8367 0.0
C592 C 0.77037 0.44182 0.84966 0.0
C593 C 0.87263 0.43354 0.80341 0.0
H594 H 0.75519 0.48505 0.78756 0.0
H595 H 0.86133 0.57411 0.81913 0.0
H596 H 0.78363 0.40715 0.78826 0.0
H597 H 0.74531 0.39961 0.80581 0.0
H598 H 0.74429 0.41853 0.78147 0.0
H599 H 0.90646 0.55747 0.83467 0.0
H600 H 0.87359 0.51287 0.84905 0.0
H601 H 0.9031 0.50915 0.82934 0.0
H602 H 0.78868 0.39466 0.87204 0.0
H603 H 0.87741 0.39048 0.83406 0.0
H604 H 0.74751 0.4337 0.8378 0.0
H605 H 0.78756 0.47561 0.85095 0.0
H606 H 0.75395 0.42885 0.86376 0.0
H607 H 0.85121 0.41802 0.79103 0.0
H608 H 0.89581 0.42368 0.80344 0.0
H609 H 0.8882 0.46683 0.80045 0.0
C610 C 0.35288 0.81894 0.1702 0.0
C611 C 0.33724 0.79549 0.18737 0.0
C612 C 0.38694 0.85837 0.17109 0.0
C613 C 0.40524 0.87451 0.18959 0.0
C614 C 0.39264 0.84907 0.20647 0.0
C615 C 0.35877 0.8097 0.20513 0.0
C616 C 0.40033 0.88418 0.15266 0.0
C617 C 0.41176 0.86492 0.22643 0.0
C618 C 0.49614 0.98091 0.19684 0.0
C619 C 0.47645 1.00271 0.20202 0.0
C620 C 0.47351 0.93937 0.19177 0.0
C621 C 0.43038 0.91933 0.19224 0.0
C622 C 0.41048 0.94165 0.19676 0.0
C623 C 0.43377 0.98304 0.20155 0.0
C624 C 0.49576 0.91675 0.18671 0.0
C625 C 0.36445 0.92142 0.19746 0.0
H626 H 0.33649 0.80803 0.15638 0.0
H627 H 0.34729 0.79114 0.21832 0.0
H628 H 0.38721 0.90469 0.15265 0.0
H629 H 0.43405 0.90363 0.15214 0.0
H630 H 0.38978 0.86509 0.13912 0.0
H631 H 0.40309 0.83982 0.23724 0.0
H632 H 0.4455 0.88264 0.22528 0.0
H633 H 0.40146 0.88575 0.23222 0.0
H634 H 0.5292 0.9962 0.19704 0.0
H635 H 0.41843 0.99961 0.20581 0.0
H636 H 0.48096 0.89567 0.17411 0.0
H637 H 0.49474 0.89804 0.19953 0.0
H638 H 0.52828 0.938 0.18298 0.0
H639 H 0.35109 0.90599 0.18324 0.0
H640 H 0.35389 0.94352 0.2005 0.0
H641 H 0.35232 0.89772 0.20916 0.0
C642 C 0.60913 0.33 0.48011 0.0
C643 C 0.61845 0.30328 0.47 0.0
C644 C 0.63992 0.36927 0.48536 0.0
C645 C 0.68065 0.38257 0.47964 0.0
C646 C 0.68874 0.35894 0.46621 0.0
C647 C 0.65757 0.31912 0.46169 0.0
C648 C 0.62956 0.39435 0.49901 0.0
C649 C 0.73114 0.37438 0.45817 0.0
C650 C 0.75559 0.48664 0.50055 0.0
C651 C 0.76457 0.47538 0.51881 0.0
C652 C 0.73057 0.45687 0.48672 0.0
C653 C 0.71437 0.41512 0.49138 0.0
C654 C 0.72637 0.40397 0.50907 0.0
C655 C 0.75163 0.43428 0.52245 0.0
C656 C 0.72005 0.47009 0.46764 0.0
C657 C 0.71 0.35981 0.51466 0.0
H658 H 0.57837 0.31906 0.48545 0.0
H659 H 0.66506 0.29955 0.45316 0.0
H660 H 0.64058 0.39358 0.51411 0.0
H661 H 0.64496 0.4267 0.4942 0.0
H662 H 0.59616 0.38255 0.49974 0.0
H663 H 0.73167 0.35439 0.44631 0.0
H664 H 0.74339 0.40563 0.45218 0.0
H665 H 0.75187 0.37632 0.47023 0.0
H666 H 0.76572 0.51848 0.49761 0.0
H667 H 0.75926 0.42563 0.53638 0.0
H668 H 0.68679 0.45219 0.46465 0.0
H669 H 0.73577 0.46442 0.45527 0.0
H670 H 0.72968 0.50307 0.4677 0.0
H671 H 0.6764 0.34444 0.51664 0.0
H672 H 0.72377 0.35642 0.5285 0.0
H673 H 0.71619 0.34376 0.50269 0.0
C674 C 0.33459 0.54093 0.82927 0.0
C675 C 0.35923 0.55634 0.84611 0.0
C676 C 0.29299 0.52876 0.83004 0.0
C677 C 0.27595 0.53161 0.84813 0.0
C678 C 0.30172 0.55162 0.86442 0.0
C679 C 0.34324 0.56407 0.86314 0.0
C680 C 0.26669 0.50912 0.81213 0.0
C681 C 0.28483 0.55578 0.88393 0.0
C682 C 0.16666 0.50417 0.85759 0.0
C683 C 0.15091 0.46504 0.86574 0.0
C684 C 0.20659 0.52533 0.85017 0.0
C685 C 0.23131 0.50711 0.85141 0.0
C686 C 0.2145 0.46649 0.85837 0.0
C687 C 0.17431 0.44582 0.86533 0.0
C688 C 0.22296 0.56801 0.84226 0.0
C689 C 0.2399 0.44594 0.85994 0.0
H690 H 0.34685 0.5351 0.81599 0.0
H691 H 0.36257 0.57696 0.87601 0.0
H692 H 0.25129 0.47542 0.81361 0.0
H693 H 0.24266 0.51763 0.81076 0.0
H694 H 0.28514 0.51795 0.79838 0.0
H695 H 0.30935 0.57619 0.8943 0.0
H696 H 0.26385 0.56796 0.88172 0.0
H697 H 0.26702 0.52523 0.89088 0.0
H698 H 0.14824 0.51879 0.8577 0.0
H699 H 0.16214 0.41565 0.87171 0.0
H700 H 0.24372 0.5739 0.82957 0.0
H701 H 0.24068 0.59044 0.85397 0.0
H702 H 0.1979 0.5734 0.83756 0.0
H703 H 0.25469 0.44735 0.84561 0.0
H704 H 0.22146 0.41343 0.86446 0.0
H705 H 0.26451 0.46221 0.87098 0.0
C706 C 0.847 0.36102 0.15109 0.0
C707 C 0.86611 0.38165 0.13364 0.0
C708 C 0.80851 0.35446 0.15646 0.0
C709 C 0.78858 0.36955 0.14427 0.0
C710 C 0.80666 0.38893 0.12623 0.0
C711 C 0.84509 0.39435 0.12099 0.0
C712 C 0.79025 0.33331 0.17583 0.0
C713 C 0.78653 0.40575 0.11298 0.0
C714 C 0.67971 0.31944 0.16104 0.0
C715 C 0.6833 0.34549 0.17662 0.0
C716 C 0.71268 0.32939 0.14836 0.0
C717 C 0.74985 0.3662 0.15141 0.0
C718 C 0.75149 0.39503 0.16529 0.0
C719 C 0.71807 0.38426 0.17779 0.0
C720 C 0.70935 0.29797 0.13361 0.0
C721 C 0.78978 0.43567 0.16824 0.0
H722 H 0.86302 0.35184 0.16126 0.0
H723 H 0.85934 0.40998 0.10737 0.0
H724 H 0.7885 0.35515 0.18617 0.0
H725 H 0.75875 0.30762 0.17352 0.0
H726 H 0.80846 0.32114 0.18292 0.0
H727 H 0.80192 0.41541 0.09842 0.0
H728 H 0.75392 0.38276 0.11063 0.0
H729 H 0.78755 0.43261 0.12016 0.0
H730 H 0.65283 0.28937 0.16002 0.0
H731 H 0.72039 0.40477 0.18954 0.0
H732 H 0.72288 0.28042 0.14006 0.0
H733 H 0.72635 0.31266 0.1199 0.0
H734 H 0.67702 0.27613 0.12979 0.0
H735 H 0.8163 0.43146 0.17122 0.0
H736 H 0.78679 0.45323 0.18062 0.0
H737 H 0.79632 0.45397 0.15458 0.0
C738 C 1.05064 0.56591 0.10617 0.0
C739 C 0.08759 0.56785 0.11097 0.0
C740 C 1.02842 0.54435 0.08945 0.0
C741 C 1.04477 0.52625 0.07682 0.0
C742 C 0.08239 0.52863 0.08161 0.0
C743 C 0.10295 0.54876 0.09888 0.0
C744 C 0.98724 0.54022 0.08553 0.0
C745 C 0.1011 0.51018 0.06841 0.0
C746 C 0.98612 0.44578 0.03788 0.0
C747 C 0.99737 0.46961 0.02069 0.0
C748 C 0.99906 0.46398 0.05653 0.0
C749 C 1.02425 0.50692 0.05795 0.0
C750 C 1.03364 0.53123 0.04078 0.0
C751 C 1.01948 0.51234 0.02244 0.0
C752 C 0.98639 0.43718 0.07463 0.0
C753 C 1.06091 0.57707 0.04158 0.0
H754 H 1.03843 0.58002 0.11587 0.0
H755 H 0.13138 0.55008 0.10283 0.0
H756 H 0.98749 0.55431 0.07115 0.0
H757 H 0.96366 0.50742 0.08461 0.0
H758 H 0.9782 0.55474 0.09724 0.0
H759 H 0.13101 0.5156 0.07403 0.0
H760 H 0.08018 0.47676 0.06714 0.0
H761 H 0.10557 0.52328 0.05336 0.0
H762 H 0.96879 0.4128 0.03676 0.0
H763 H 1.02711 0.53114 0.00932 0.0
H764 H 0.96444 0.44239 0.08319 0.0
H765 H 1.01295 0.44499 0.08432 0.0
H766 H 0.97144 0.40421 0.07086 0.0
H767 H 1.049 0.59053 0.0524 0.0
H768 H 1.06373 0.59172 0.02701 0.0
H769 H 0.09187 0.58462 0.04658 0.0
C770 C 0.55547 0.07283 0.43313 0.0
C771 C 0.59237 0.08 0.44141 0.0
C772 C 0.555 0.09219 0.41554 0.0
C773 C 0.59235 0.11917 0.40609 0.0
C774 C 0.62974 0.12716 0.41471 0.0
C775 C 0.62926 0.10726 0.43223 0.0
C776 C 0.51456 0.08292 0.4068 0.0
C777 C 0.67021 0.15607 0.4052 0.0
C778 C 0.59302 0.13106 0.35063 0.0
C779 C 0.59516 0.169 0.34862 0.0
C780 C 0.59156 0.1144 0.36925 0.0
C781 C 0.59237 0.13625 0.38635 0.0
C782 C 0.59421 0.17447 0.38448 0.0
C783 C 0.59526 0.19029 0.36557 0.0
C784 C 0.58935 0.07345 0.37061 0.0
C785 C 0.59507 0.19858 0.4024 0.0
H786 H 0.52695 0.05164 0.44026 0.0
H787 H 0.65786 0.11318 0.4388 0.0
H788 H 0.51433 0.11169 0.40392 0.0
H789 H 0.50999 0.06714 0.39243 0.0
H790 H 0.48847 0.06331 0.41661 0.0
H791 H 0.69653 0.16121 0.41452 0.0
H792 H 0.6726 0.14354 0.39078 0.0
H793 H 0.67235 0.18596 0.40229 0.0
H794 H 0.59203 0.11407 0.33755 0.0
H795 H 0.59682 0.21958 0.36404 0.0
H796 H 0.56195 0.05175 0.37912 0.0
H797 H 0.61645 0.07674 0.37859 0.0
H798 H 0.58805 0.06 0.35586 0.0
H799 H 0.56549 0.18191 0.41029 0.0
H800 H 0.60049 0.22943 0.39849 0.0
H801 H 0.61923 0.20198 0.41281 0.0
C802 C 0.60946 0.52816 0.76994 0.0
C803 C 0.60909 0.56333 0.77609 0.0
C804 C 0.6307 0.52861 0.75287 0.0
C805 C 0.65055 0.56466 0.74137 0.0
C806 C 0.65035 0.60031 0.74769 0.0
C807 C 0.63015 0.59936 0.7652 0.0
C808 C 0.63167 0.49055 0.74709 0.0
C809 C 0.67062 0.63918 0.73572 0.0
C810 C 0.72907 0.58445 0.70157 0.0
C811 C 0.70518 0.57488 0.68444 0.0
C812 C 0.7114 0.5792 0.72034 0.0
C813 C 0.66899 0.56464 0.722 0.0
C814 C 0.64447 0.55317 0.70483 0.0
C815 C 0.66275 0.5578 0.68632 0.0
C816 C 0.73824 0.58998 0.73834 0.0
C817 C 0.59921 0.53804 0.70589 0.0
H818 H 0.59382 0.50053 0.7787 0.0
H819 H 0.63005 0.62658 0.77017 0.0
H820 H 0.6145 0.47805 0.73315 0.0
H821 H 0.66357 0.49794 0.74437 0.0
H822 H 0.61816 0.46648 0.75861 0.0
H823 H 0.66788 0.66424 0.74277 0.0
H824 H 0.70347 0.64949 0.7337 0.0
H825 H 0.65658 0.63342 0.72083 0.0
H826 H 0.76183 0.59758 0.70032 0.0
H827 H 0.64379 0.54905 0.67323 0.0
H828 H 0.72818 0.56213 0.74737 0.0
H829 H 0.73528 0.61263 0.74753 0.0
H830 H 0.77093 0.60258 0.73452 0.0
H831 H 0.58402 0.51133 0.71588 0.0
H832 H 0.58426 0.52916 0.6912 0.0
H833 H 0.59418 0.56235 0.71209 0.0
C834 C 0.60481 0.07754 0.55938 0.0
C835 C 0.56595 0.0634 0.55111 0.0
C836 C 0.61046 0.07864 0.5801 0.0
C837 C 0.57648 0.06506 0.59302 0.0
C838 C 0.53714 0.05004 0.58465 0.0
C839 C 0.53243 0.04949 0.56396 0.0
C840 C 0.65297 0.09497 0.58819 0.0
C841 C 0.49986 1.03492 0.59759 0.0
C842 C 0.58231 1.03536 0.64678 0.0
C843 C 0.58793 0.06972 0.6575 0.0
C844 C 0.57918 1.03366 0.62594 0.0
C845 C 0.58185 0.06716 0.61523 0.0
C846 C 0.588 0.10211 0.62589 0.0
C847 C 0.59083 0.10293 0.64672 0.0
C848 C 0.57259 0.99568 0.61539 0.0
C849 C 0.59099 0.13861 0.61529 0.0
H850 H 0.63096 0.0884 0.54966 0.0
H851 H 0.50223 1.03837 0.55781 0.0
H852 H 0.66143 0.12235 0.59739 0.0
H853 H 0.65402 0.07185 0.59786 0.0
H854 H 0.67609 0.1034 0.57632 0.0
H855 H 0.47128 1.02314 0.58888 0.0
H856 H 0.49717 1.01019 0.60739 0.0
H857 H 0.5029 0.06005 0.6072 0.0
H858 H 0.58068 1.00966 0.65465 0.0
H859 H 0.59451 0.12951 0.65458 0.0
H860 H 0.59711 1.00366 0.60436 0.0
H861 H 0.54322 0.98171 0.60725 0.0
H862 H 0.5721 0.97258 0.62569 0.0
H863 H 0.61538 0.14966 0.60395 0.0
H864 H 0.59762 0.16418 0.6255 0.0
H865 H 0.5619 0.12967 0.60752 0.0
C866 C 0.65915 0.61748 0.89742 0.0
C867 C 0.62737 0.59098 0.88479 0.0
C868 C 0.65588 0.61288 0.91813 0.0
C869 C 0.61922 0.58198 0.92679 0.0
C870 C 0.58678 0.55533 0.9141 0.0
C871 C 0.5916 0.55952 0.89333 0.0
C872 C 0.69199 0.64109 0.93076 0.0
C873 C 0.54659 0.52284 0.92247 0.0
C874 C 0.62159 0.54893 0.9803 0.0
C875 C 0.61141 0.5741 0.99151 0.0
C876 C 0.62436 0.55123 0.95946 0.0
C877 C 0.61501 0.57806 0.94904 0.0
C878 C 0.60338 0.60252 0.96004 0.0
C879 C 0.60261 0.60095 0.9809 0.0
C880 C 0.63818 0.52539 0.9486 0.0
C881 C 0.59198 0.63082 0.94974 0.0
H882 H 0.68714 0.64166 0.89108 0.0
H883 H 0.56698 0.53863 0.88381 0.0
H884 H 0.68402 0.66007 0.94018 0.0
H885 H 0.70014 0.62299 0.94074 0.0
H886 H 0.71922 0.66171 0.92181 0.0
H887 H 0.52364 0.50601 0.91078 0.0
H888 H 0.55117 0.50063 0.93118 0.0
H889 H 0.53415 0.53693 0.93265 0.0
H890 H 0.62749 0.52705 0.98768 0.0
H891 H 0.5956 0.62155 0.98878 0.0
H892 H 0.66552 0.54521 0.93956 0.0
H893 H 0.61394 0.50425 0.93835 0.0
H894 H 0.64578 0.50712 0.95877 0.0
H895 H 0.61927 0.65595 0.9425 0.0
H896 H 0.57928 0.64443 0.96009 0.0
H897 H 0.56907 0.61411 0.93803 0.0
C898 C 0.08945 0.50665 0.23032 0.0
C899 C 0.09366 0.53845 0.21801 0.0
C900 C 0.08729 0.50889 0.25105 0.0
C901 C 0.09123 0.5446 0.26003 0.0
C902 C 0.09612 0.57712 0.24767 0.0
C903 C 0.09614 0.57319 0.22689 0.0
C904 C 0.08021 0.47264 0.26335 0.0
C905 C 0.10199 0.61642 0.25639 0.0
C906 C 1.05265 0.53978 0.31304 0.0
C907 C 0.08767 0.55084 0.32468 0.0
C908 C 1.05325 0.53713 0.29224 0.0
C909 C 0.09019 0.54772 0.28227 0.0
C910 C 0.12593 0.56021 0.29368 0.0
C911 C 0.12406 0.56064 0.31452 0.0
C912 C 1.01393 0.52229 0.28092 0.0
C913 C 0.16642 0.57313 0.28386 0.0
H914 H 0.08697 0.4794 0.22369 0.0
H915 H 0.09868 0.59765 0.21762 0.0
H916 H 0.10687 0.48113 0.27306 0.0
H917 H 1.05326 0.46304 0.27304 0.0
H918 H 0.07513 0.44618 0.25415 0.0
H919 H 0.10877 0.64 0.24494 0.0
H920 H 0.07408 0.61062 0.26444 0.0
H921 H 0.12742 0.62872 0.26721 0.0
H922 H 1.02431 0.53316 0.32003 0.0
H923 H 0.1515 0.56833 0.32271 0.0
H924 H 1.00829 0.49608 0.2714 0.0
H925 H 1.01628 0.54681 0.2711 0.0
H926 H 0.98722 0.51262 0.2908 0.0
H927 H 0.16556 0.54652 0.2765 0.0
H928 H 0.19217 0.58615 0.29453 0.0
H929 H 0.17251 0.59627 0.27229 0.0
loop_
_geom_bond_atom_site_label_1
_geom_bond_atom_site_label_2
_geom_bond_distance
_geom_bond_site_symmetry_2
_ccdc_geom_bond_type
Tb0 C2 2.809 . S
Tb0 O20 2.484 . S
Tb0 O21 2.440 . S
Tb0 O22 2.658 . S
Tb0 O23 2.409 . S
Tb0 O24 2.378 . S
Tb0 O28 2.325 . S
Tb0 O31 2.341 1_455 S
Tb1 C11 2.809 . S
Tb1 O22 2.325 1_655 S
Tb1 O25 2.341 1_655 S
Tb1 O26 2.484 . S
Tb1 O27 2.440 . S
Tb1 O28 2.658 1_655 S
Tb1 O29 2.409 1_655 S
Tb1 O30 2.378 . S
C2 Tb0 2.809 . S
C2 C3 1.514 . S
C2 O20 1.248 . S
C2 O21 1.266 . S
C3 C2 1.514 . S
C3 C4 1.359 . S
C3 C8 1.348 . S
C4 C3 1.359 . S
C4 C5 1.380 . S
C4 H32 0.929 . S
C5 C4 1.380 . S
C5 C6 1.347 . S
C5 H33 0.931 . S
C6 C5 1.347 . S
C6 C7 1.369 . S
C7 C6 1.369 . S
C7 C8 1.408 . S
C7 H34 0.930 . S
C8 C3 1.348 . S
C8 C7 1.408 . S
C8 H35 0.930 . S
C9 O22 1.281 . S
C9 O23 1.254 . S
C10 O24 1.236 . S
C10 O25 1.266 . S
C11 Tb1 2.809 . S
C11 C12 1.514 . S
C11 O26 1.248 . S
C11 O27 1.266 . S
C12 C11 1.514 . S
C12 C13 1.359 . S
C12 C17 1.348 . S
C13 C12 1.359 . S
C13 C14 1.380 . S
C13 H36 0.929 . S
C14 C13 1.380 . S
C14 C15 1.347 . S
C14 H37 0.931 . S
C15 C14 1.347 . S
C15 C16 1.369 . S
C16 C15 1.369 . S
C16 C17 1.408 . S
C16 H38 0.930 . S
C17 C12 1.348 . S
C17 C16 1.408 . S
C17 H39 0.930 . S
C18 O28 1.281 . S
C18 O29 1.254 . S
C19 O30 1.236 . S
C19 O31 1.266 . S
O20 Tb0 2.484 . S
O20 C2 1.248 . S
O21 Tb0 2.440 . S
O21 C2 1.266 . S
O22 Tb0 2.658 . S
O22 Tb1 2.325 1_455 S
O22 C9 1.281 . S
O23 Tb0 2.409 . S
O23 C9 1.254 . S
O24 Tb0 2.378 . S
O24 C10 1.236 . S
O25 Tb1 2.341 1_455 S
O25 C10 1.266 . S
O26 Tb1 2.484 . S
O26 C11 1.248 . S
O27 Tb1 2.440 . S
O27 C11 1.266 . S
O28 Tb0 2.325 . S
O28 Tb1 2.658 1_455 S
O28 C18 1.281 . S
O29 Tb1 2.409 1_455 S
O29 C18 1.254 . S
O30 Tb1 2.378 . S
O30 C19 1.236 . S
O31 Tb0 2.341 1_655 S
O31 C19 1.266 . S
H32 C4 0.929 . S
H33 C5 0.931 . S
H34 C7 0.930 . S
H35 C8 0.930 . S
H36 C13 0.929 . S
H37 C14 0.931 . S
H38 C16 0.930 . S
H39 C17 0.930 . S
Tb40 C42 2.774 1_545 S
Tb40 O60 2.455 1_545 S
Tb40 O61 2.407 1_545 S
Tb40 O62 2.688 . S
Tb40 O63 2.416 . S
Tb40 O64 2.374 1_545 S
Tb40 O68 2.343 . S
Tb40 O71 2.371 . S
Tb41 C51 2.809 . S
Tb41 O62 2.325 . S
Tb41 O65 2.341 1_545 S
Tb41 O66 2.484 . S
Tb41 O67 2.440 . S
Tb41 O68 2.658 . S
Tb41 O69 2.409 . S
Tb41 O70 2.378 . S
C42 Tb40 2.774 1_565 S
C42 C43 1.514 . S
C42 O60 1.248 . S
C42 O61 1.266 . S
C43 C42 1.514 . S
C43 C44 1.359 . S
C43 C48 1.348 . S
C44 C43 1.359 . S
C44 C45 1.380 . S
C44 H72 0.929 . S
C45 C44 1.380 . S
C45 C46 1.347 . S
C45 H73 0.931 . S
C46 C45 1.347 . S
C46 C47 1.369 . S
C47 C46 1.369 . S
C47 C48 1.408 . S
C47 H74 0.930 . S
C48 C43 1.348 . S
C48 C47 1.408 . S
C48 H75 0.930 . S
C49 O62 1.281 . S
C49 O63 1.254 . S
C50 O64 1.236 . S
C50 O65 1.266 . S
C51 Tb41 2.809 . S
C51 C52 1.514 . S
C51 O66 1.248 . S
C51 O67 1.266 . S
C52 C51 1.514 . S
C52 C53 1.359 . S
C52 C57 1.348 . S
C53 C52 1.359 . S
C53 C54 1.380 . S
C53 H76 0.929 . S
C54 C53 1.380 . S
C54 C55 1.347 . S
C54 H77 0.931 . S
C55 C54 1.347 . S
C55 C56 1.369 . S
C56 C55 1.369 . S
C56 C57 1.408 . S
C56 H78 0.930 . S
C57 C52 1.348 . S
C57 C56 1.408 . S
C57 H79 0.930 . S
C58 O68 1.281 . S
C58 O69 1.254 . S
C59 O70 1.236 . S
C59 O71 1.266 . S
O60 Tb40 2.455 1_565 S
O60 C42 1.248 . S
O61 Tb40 2.407 1_565 S
O61 C42 1.266 . S
O62 Tb40 2.688 . S
O62 Tb41 2.325 . S
O62 C49 1.281 . S
O63 Tb40 2.416 . S
O63 C49 1.254 . S
O64 Tb40 2.374 1_565 S
O64 C50 1.236 . S
O65 Tb41 2.341 1_565 S
O65 C50 1.266 . S
O66 Tb41 2.484 . S
O66 C51 1.248 . S
O67 Tb41 2.440 . S
O67 C51 1.266 . S
O68 Tb40 2.343 . S
O68 Tb41 2.658 . S
O68 C58 1.281 . S
O69 Tb41 2.409 . S
O69 C58 1.254 . S
O70 Tb41 2.378 . S
O70 C59 1.236 . S
O71 Tb40 2.371 . S
O71 C59 1.266 . S
H72 C44 0.929 . S
H73 C45 0.931 . S
H74 C47 0.930 . S
H75 C48 0.930 . S
H76 C53 0.929 . S
H77 C54 0.931 . S
H78 C56 0.930 . S
H79 C57 0.930 . S
Tb80 C82 2.809 . S
Tb80 O100 2.484 . S
Tb80 O101 2.440 . S
Tb80 O102 2.658 . S
Tb80 O103 2.409 . S
Tb80 O104 2.378 . S
Tb80 O108 2.325 . S
Tb80 O111 2.341 . S
Tb81 C91 2.809 . S
Tb81 O102 2.325 . S
Tb81 O105 2.341 . S
Tb81 O106 2.484 . S
Tb81 O107 2.440 . S
Tb81 O108 2.658 . S
Tb81 O109 2.409 . S
Tb81 O110 2.378 . S
C82 Tb80 2.809 . S
C82 C83 1.514 . S
C82 O100 1.248 . S
C82 O101 1.266 . S
C83 C82 1.514 . S
C83 C84 1.359 . S
C83 C88 1.348 . S
C84 C83 1.359 . S
C84 C85 1.380 . S
C84 H112 0.929 . S
C85 C84 1.380 . S
C85 C86 1.347 . S
C85 H113 0.931 . S
C86 C85 1.347 . S
C86 C87 1.369 . S
C87 C86 1.369 . S
C87 C88 1.408 . S
C87 H114 0.930 . S
C88 C83 1.348 . S
C88 C87 1.408 . S
C88 H115 0.930 . S
C89 O102 1.281 . S
C89 O103 1.254 . S
C90 O104 1.236 . S
C90 O105 1.266 . S
C91 Tb81 2.809 . S
C91 C92 1.514 . S
C91 O106 1.248 . S
C91 O107 1.266 . S
C92 C91 1.514 . S
C92 C93 1.359 . S
C92 C97 1.348 . S
C93 C92 1.359 . S
C93 C94 1.380 . S
C93 H116 0.929 . S
C94 C93 1.380 . S
C94 C95 1.347 . S
C94 H117 0.931 . S
C95 C94 1.347 . S
C95 C96 1.369 . S
C96 C95 1.369 . S
C96 C97 1.408 . S
C96 H118 0.930 . S
C97 C92 1.348 . S
C97 C96 1.408 . S
C97 H119 0.930 . S
C98 O108 1.281 . S
C98 O109 1.254 . S
C99 O110 1.236 . S
C99 O111 1.266 . S
O100 Tb80 2.484 . S
O100 C82 1.248 . S
O101 Tb80 2.440 . S
O101 C82 1.266 . S
O102 Tb80 2.658 . S
O102 Tb81 2.325 . S
O102 C89 1.281 . S
O103 Tb80 2.409 . S
O103 C89 1.254 . S
O104 Tb80 2.378 . S
O104 C90 1.236 . S
O105 Tb81 2.341 . S
O105 C90 1.266 . S
O106 Tb81 2.484 . S
O106 C91 1.248 . S
O107 Tb81 2.440 . S
O107 C91 1.266 . S
O108 Tb80 2.325 . S
O108 Tb81 2.658 . S
O108 C98 1.281 . S
O109 Tb81 2.409 . S
O109 C98 1.254 . S
O110 Tb81 2.378 . S
O110 C99 1.236 . S
O111 Tb80 2.341 . S
O111 C99 1.266 . S
H112 C84 0.929 . S
H113 C85 0.931 . S
H114 C87 0.930 . S
H115 C88 0.930 . S
H116 C93 0.929 . S
H117 C94 0.931 . S
H118 C96 0.930 . S
H119 C97 0.930 . S
C120 C121 1.386 . S
C120 C122 1.397 . S
C120 H144 0.931 . S
C121 C120 1.386 . S
C121 C125 1.397 . S
C122 C120 1.397 . S
C122 C123 1.384 . S
C122 H145 0.930 . S
C123 C122 1.384 . S
C123 C124 1.377 . S
C123 C126 1.481 . S
C124 C123 1.377 . S
C124 C125 1.389 . S
C124 H146 0.929 1_545 S
C125 C121 1.397 . S
C125 C124 1.389 . S
C125 H147 0.931 1_545 S
C126 C123 1.481 . S
C126 C127 1.387 . S
C126 C131 1.390 . S
C127 C126 1.387 . S
C127 C128 1.401 . S
C127 H148 0.930 . S
C128 C127 1.401 . S
C128 C129 1.376 . S
C128 C137 1.511 . S
C129 C128 1.376 . S
C129 C130 1.392 . S
C129 H150 0.931 . S
C130 C129 1.392 . S
C130 C131 1.361 . S
C130 C132 1.500 1_545 S
C131 C126 1.390 . S
C131 C130 1.361 . S
C131 H149 0.931 1_545 S
C132 C130 1.500 1_565 S
C132 C133 1.371 . S
C132 C134 1.365 . S
C133 C132 1.371 . S
C133 C143 1.386 . S
C133 H151 0.931 1_565 S
C134 C132 1.365 . S
C134 C135 1.409 . S
C134 H152 0.929 . S
C135 C134 1.409 . S
C135 C136 1.380 . S
C135 H153 0.930 . S
C136 C135 1.380 . S
C136 C143 1.357 . S
C137 C128 1.511 . S
C137 C138 1.341 . S
C137 C139 1.371 . S
C138 C137 1.341 . S
C138 C142 1.394 . S
C138 H154 0.930 . S
C139 C137 1.371 . S
C139 C140 1.392 . S
C139 H155 0.931 . S
C140 C139 1.392 . S
C140 C141 1.331 . S
C140 H158 0.932 . S
C141 C140 1.331 . S
C141 C142 1.336 . S
C142 C138 1.394 . S
C142 C141 1.336 . S
C142 H157 0.929 . S
C143 C133 1.386 . S
C143 C136 1.357 . S
C143 H156 0.928 . S
H144 C120 0.931 . S
H145 C122 0.930 . S
H146 C124 0.929 1_565 S
H147 C125 0.931 1_565 S
H148 C127 0.930 . S
H149 C131 0.931 1_565 S
H150 C129 0.931 . S
H151 C133 0.931 1_545 S
H152 C134 0.929 . S
H153 C135 0.930 . S
H154 C138 0.930 . S
H155 C139 0.931 . S
H156 C143 0.928 . S
H157 C142 0.929 . S
H158 C140 0.932 . S
C159 C160 1.386 . S
C159 C161 1.397 . S
C159 H183 0.931 . S
C160 C159 1.386 . S
C160 C164 1.397 . S
C161 C159 1.397 . S
C161 C162 1.384 . S
C161 H184 0.930 . S
C162 C161 1.384 . S
C162 C163 1.377 . S
C162 C165 1.481 . S
C163 C162 1.377 . S
C163 C164 1.389 . S
C163 H185 0.929 . S
C164 C160 1.397 . S
C164 C163 1.389 . S
C164 H186 0.931 . S
C165 C162 1.481 . S
C165 C166 1.387 . S
C165 C170 1.390 . S
C166 C165 1.387 . S
C166 C167 1.401 . S
C166 H187 0.930 . S
C167 C166 1.401 . S
C167 C168 1.376 . S
C167 C176 1.511 . S
C168 C167 1.376 . S
C168 C169 1.392 . S
C168 H189 0.931 . S
C169 C168 1.392 . S
C169 C170 1.361 . S
C169 C171 1.500 . S
C170 C165 1.390 . S
C170 C169 1.361 . S
C170 H188 0.931 . S
C171 C169 1.500 . S
C171 C172 1.371 . S
C171 C173 1.365 . S
C172 C171 1.371 . S
C172 C182 1.386 . S
C172 H190 0.931 . S
C173 C171 1.365 . S
C173 C174 1.409 . S
C173 H191 0.929 . S
C174 C173 1.409 . S
C174 C175 1.380 . S
C174 H192 0.930 . S
C175 C174 1.380 . S
C175 C182 1.357 . S
C176 C167 1.511 . S
C176 C177 1.341 . S
C176 C178 1.371 . S
C177 C176 1.341 . S
C177 C181 1.394 . S
C177 H193 0.930 . S
C178 C176 1.371 . S
C178 C179 1.392 . S
C178 H194 0.931 . S
C179 C178 1.392 . S
C179 C180 1.331 . S
C179 H197 0.932 . S
C180 C179 1.331 . S
C180 C181 1.336 . S
C181 C177 1.394 . S
C181 C180 1.336 . S
C181 H196 0.929 . S
C182 C172 1.386 . S
C182 C175 1.357 . S
C182 H195 0.928 . S
H183 C159 0.931 . S
H184 C161 0.930 . S
H185 C163 0.929 . S
H186 C164 0.931 . S
H187 C166 0.930 . S
H188 C170 0.931 . S
H189 C168 0.931 . S
H190 C172 0.931 . S
H191 C173 0.929 . S
H192 C174 0.930 . S
H193 C177 0.930 . S
H194 C178 0.931 . S
H195 C182 0.928 . S
H196 C181 0.929 . S
H197 C179 0.932 . S
C198 C199 1.386 . S
C198 C200 1.397 . S
C198 H222 0.931 . S
C199 C198 1.386 . S
C199 C203 1.397 1_455 S
C200 C198 1.397 . S
C200 C201 1.384 . S
C200 H223 0.930 . S
C201 C200 1.384 . S
C201 C202 1.377 1_455 S
C201 C204 1.481 . S
C202 C201 1.377 1_655 S
C202 C203 1.389 . S
C202 H224 0.929 . S
C203 C199 1.397 1_655 S
C203 C202 1.389 . S
C203 H225 0.931 . S
C204 C201 1.481 . S
C204 C205 1.387 . S
C204 C209 1.390 1_455 S
C205 C204 1.387 . S
C205 C206 1.401 . S
C205 H226 0.930 . S
C206 C205 1.401 . S
C206 C207 1.376 . S
C206 C215 1.511 . S
C207 C206 1.376 . S
C207 C208 1.392 1_455 S
C207 H228 0.931 . S
C208 C207 1.392 1_655 S
C208 C209 1.361 . S
C208 C210 1.500 . S
C209 C204 1.390 1_655 S
C209 C208 1.361 . S
C209 H227 0.931 . S
C210 C208 1.500 . S
C210 C211 1.371 . S
C210 C212 1.365 . S
C211 C210 1.371 . S
C211 C221 1.386 . S
C211 H229 0.931 . S
C212 C210 1.365 . S
C212 C213 1.409 . S
C212 H230 0.929 . S
C213 C212 1.409 . S
C213 C214 1.380 . S
C213 H231 0.930 . S
C214 C213 1.380 . S
C214 C221 1.357 . S
C215 C206 1.511 . S
C215 C216 1.341 . S
C215 C217 1.371 . S
C216 C215 1.341 . S
C216 C220 1.394 . S
C216 H232 0.930 . S
C217 C215 1.371 . S
C217 C218 1.392 . S
C217 H233 0.931 . S
C218 C217 1.392 . S
C218 C219 1.331 . S
C218 H236 0.932 . S
C219 C218 1.331 . S
C219 C220 1.336 . S
C220 C216 1.394 . S
C220 C219 1.336 . S
C220 H235 0.929 . S
C221 C211 1.386 . S
C221 C214 1.357 . S
C221 H234 0.928 . S
H222 C198 0.931 . S
H223 C200 0.930 . S
H224 C202 0.929 . S
H225 C203 0.931 . S
H226 C205 0.930 . S
H227 C209 0.931 . S
H228 C207 0.931 . S
H229 C211 0.931 . S
H230 C212 0.929 . S
H231 C213 0.930 . S
H232 C216 0.930 . S
H233 C217 0.931 . S
H234 C221 0.928 . S
H235 C220 0.929 . S
H236 C218 0.932 . S
C237 C238 1.386 . S
C237 C239 1.397 . S
C237 H261 0.931 1_455 S
C238 C237 1.386 . S
C238 C242 1.397 . S
C239 C237 1.397 . S
C239 C240 1.384 . S
C239 H262 0.930 1_455 S
C240 C239 1.384 . S
C240 C241 1.377 . S
C240 C243 1.481 . S
C241 C240 1.377 . S
C241 C242 1.389 . S
C241 H263 0.929 . S
C242 C238 1.397 . S
C242 C241 1.389 . S
C242 H264 0.931 . S
C243 C240 1.481 . S
C243 C244 1.387 . S
C243 C248 1.390 . S
C244 C243 1.387 . S
C244 C245 1.401 . S
C244 H265 0.930 1_455 S
C245 C244 1.401 . S
C245 C246 1.376 . S
C245 C254 1.511 1_455 S
C246 C245 1.376 . S
C246 C247 1.392 . S
C246 H267 0.931 . S
C247 C246 1.392 . S
C247 C248 1.361 . S
C247 C249 1.500 . S
C248 C243 1.390 . S
C248 C247 1.361 . S
C248 H266 0.931 . S
C249 C247 1.500 . S
C249 C250 1.371 . S
C249 C251 1.365 . S
C250 C249 1.371 . S
C250 C260 1.386 . S
C250 H268 0.931 . S
C251 C249 1.365 . S
C251 C252 1.409 . S
C251 H269 0.929 . S
C252 C251 1.409 . S
C252 C253 1.380 . S
C252 H270 0.930 . S
C253 C252 1.380 . S
C253 C260 1.357 . S
C254 C245 1.511 1_655 S
C254 C255 1.341 . S
C254 C256 1.371 . S
C255 C254 1.341 . S
C255 C259 1.394 . S
C255 H271 0.930 . S
C256 C254 1.371 . S
C256 C257 1.392 . S
C256 H272 0.931 1_655 S
C257 C256 1.392 . S
C257 C258 1.331 . S
C257 H275 0.932 . S
C258 C257 1.331 . S
C258 C259 1.336 . S
C259 C255 1.394 . S
C259 C258 1.336 . S
C259 H274 0.929 . S
C260 C250 1.386 . S
C260 C253 1.357 . S
C260 H273 0.928 . S
H261 C237 0.931 1_655 S
H262 C239 0.930 1_655 S
H263 C241 0.929 . S
H264 C242 0.931 . S
H265 C244 0.930 1_655 S
H266 C248 0.931 . S
H267 C246 0.931 . S
H268 C250 0.931 . S
H269 C251 0.929 . S
H270 C252 0.930 . S
H271 C255 0.930 . S
H272 C256 0.931 1_455 S
H273 C260 0.928 . S
H274 C259 0.929 . S
H275 C257 0.932 . S
C276 C277 1.386 1_565 S
C276 C278 1.397 . S
C276 H300 0.931 . S
C277 C276 1.386 1_545 S
C277 C281 1.397 . S
C278 C276 1.397 . S
C278 C279 1.384 1_565 S
C278 H301 0.930 . S
C279 C278 1.384 1_545 S
C279 C280 1.377 . S
C279 C282 1.481 . S
C280 C279 1.377 . S
C280 C281 1.389 . S
C280 H302 0.929 . S
C281 C277 1.397 . S
C281 C280 1.389 . S
C281 H303 0.931 . S
C282 C279 1.481 . S
C282 C283 1.387 1_545 S
C282 C287 1.390 . S
C283 C282 1.387 1_565 S
C283 C284 1.401 . S
C283 H304 0.930 . S
C284 C283 1.401 . S
C284 C285 1.376 1_565 S
C284 C293 1.511 . S
C285 C284 1.376 1_545 S
C285 C286 1.392 . S
C285 H306 0.931 . S
C286 C285 1.392 . S
C286 C287 1.361 . S
C286 C288 1.500 . S
C287 C282 1.390 . S
C287 C286 1.361 . S
C287 H305 0.931 . S
C288 C286 1.500 . S
C288 C289 1.371 . S
C288 C290 1.365 . S
C289 C288 1.371 . S
C289 C299 1.386 . S
C289 H307 0.931 . S
C290 C288 1.365 . S
C290 C291 1.409 . S
C290 H308 0.929 . S
C291 C290 1.409 . S
C291 C292 1.380 . S
C291 H309 0.930 . S
C292 C291 1.380 . S
C292 C299 1.357 . S
C293 C284 1.511 . S
C293 C294 1.341 . S
C293 C295 1.371 . S
C294 C293 1.341 . S
C294 C298 1.394 . S
C294 H310 0.930 . S
C295 C293 1.371 . S
C295 C296 1.392 . S
C295 H311 0.931 . S
C296 C295 1.392 . S
C296 C297 1.331 . S
C296 H314 0.932 . S
C297 C296 1.331 . S
C297 C298 1.336 . S
C298 C294 1.394 . S
C298 C297 1.336 . S
C298 H313 0.929 . S
C299 C289 1.386 . S
C299 C292 1.357 . S
C299 H312 0.928 . S
H300 C276 0.931 . S
H301 C278 0.930 . S
H302 C280 0.929 . S
H303 C281 0.931 . S
H304 C283 0.930 . S
H305 C287 0.931 . S
H306 C285 0.931 . S
H307 C289 0.931 . S
H308 C290 0.929 . S
H309 C291 0.930 . S
H310 C294 0.930 . S
H311 C295 0.931 . S
H312 C299 0.928 . S
H313 C298 0.929 . S
H314 C296 0.932 . S
C315 C316 1.386 . S
C315 C317 1.397 . S
C315 H339 0.931 . S
C316 C315 1.386 . S
C316 C320 1.397 . S
C317 C315 1.397 . S
C317 C318 1.384 . S
C317 H340 0.930 . S
C318 C317 1.384 . S
C318 C319 1.377 . S
C318 C321 1.481 . S
C319 C318 1.377 . S
C319 C320 1.389 . S
C319 H341 0.929 . S
C320 C316 1.397 . S
C320 C319 1.389 . S
C320 H342 0.931 . S
C321 C318 1.481 . S
C321 C322 1.387 . S
C321 C326 1.390 . S
C322 C321 1.387 . S
C322 C323 1.401 . S
C322 H343 0.930 . S
C323 C322 1.401 . S
C323 C324 1.376 . S
C323 C332 1.511 . S
C324 C323 1.376 . S
C324 C325 1.392 . S
C324 H345 0.931 . S
C325 C324 1.392 . S
C325 C326 1.361 . S
C325 C327 1.500 . S
C326 C321 1.390 . S
C326 C325 1.361 . S
C326 H344 0.931 . S
C327 C325 1.500 . S
C327 C328 1.371 . S
C327 C329 1.365 . S
C328 C327 1.371 . S
C328 C338 1.386 . S
C328 H346 0.931 . S
C329 C327 1.365 . S
C329 C330 1.409 . S
C329 H347 0.929 . S
C330 C329 1.409 . S
C330 C331 1.380 . S
C330 H348 0.930 . S
C331 C330 1.380 . S
C331 C338 1.357 . S
C332 C323 1.511 . S
C332 C333 1.341 . S
C332 C334 1.371 . S
C333 C332 1.341 . S
C333 C337 1.394 . S
C333 H349 0.930 . S
C334 C332 1.371 . S
C334 C335 1.392 . S
C334 H350 0.931 . S
C335 C334 1.392 . S
C335 C336 1.331 . S
C335 H353 0.932 . S
C336 C335 1.331 . S
C336 C337 1.336 . S
C337 C333 1.394 . S
C337 C336 1.336 . S
C337 H352 0.929 . S
C338 C328 1.386 . S
C338 C331 1.357 . S
C338 H351 0.928 . S
H339 C315 0.931 . S
H340 C317 0.930 . S
H341 C319 0.929 . S
H342 C320 0.931 . S
H343 C322 0.930 . S
H344 C326 0.931 . S
H345 C324 0.931 . S
H346 C328 0.931 . S
H347 C329 0.929 . S
H348 C330 0.930 . S
H349 C333 0.930 . S
H350 C334 0.931 . S
H351 C338 0.928 . S
H352 C337 0.929 . S
H353 C335 0.932 . S
C354 C355 1.391 . S
C354 C356 1.394 . S
C354 H370 0.931 . S
C355 C354 1.391 . S
C355 C359 1.376 . S
C356 C354 1.394 . S
C356 C357 1.369 . S
C356 C360 1.531 . S
C357 C356 1.369 . S
C357 C358 1.410 . S
C357 C365 1.503 . S
C358 C357 1.410 . S
C358 C359 1.392 . S
C358 C361 1.511 . S
C359 C355 1.376 . S
C359 C358 1.392 . S
C359 H371 0.929 . S
C360 C356 1.531 . S
C360 H372 0.960 . S
C360 H373 0.962 . S
C360 H374 0.960 . S
C361 C358 1.511 . S
C361 H375 0.961 . S
C361 H376 0.961 . S
C361 H377 0.961 . S
C362 C363 1.370 . S
C362 C364 1.363 . S
C362 H378 0.931 . S
C363 C362 1.370 . S
C363 C367 1.408 . S
C364 C362 1.363 . S
C364 C365 1.370 . S
C364 C368 1.524 . S
C365 C357 1.503 . S
C365 C364 1.370 . S
C365 C366 1.403 . S
C366 C365 1.403 . S
C366 C367 1.404 . S
C366 C369 1.539 . S
C367 C363 1.408 . S
C367 C366 1.404 . S
C367 H379 0.930 . S
C368 C364 1.524 . S
C368 H380 0.956 . S
C368 H381 0.961 . S
C368 H382 0.961 . S
C369 C366 1.539 . S
C369 H383 0.958 . S
C369 H384 0.961 . S
C369 H385 0.960 . S
H370 C354 0.931 . S
H371 C359 0.929 . S
H372 C360 0.960 . S
H373 C360 0.962 . S
H374 C360 0.960 . S
H375 C361 0.961 . S
H376 C361 0.961 . S
H377 C361 0.961 . S
H378 C362 0.931 . S
H379 C367 0.930 . S
H380 C368 0.956 . S
H381 C368 0.961 . S
H382 C368 0.961 . S
H383 C369 0.958 . S
H384 C369 0.961 . S
H385 C369 0.960 . S
C386 C387 1.391 . S
C386 C388 1.394 . S
C386 H402 0.931 . S
C387 C386 1.391 . S
C387 C391 1.376 . S
C388 C386 1.394 . S
C388 C389 1.369 . S
C388 C392 1.531 . S
C389 C388 1.369 . S
C389 C390 1.410 . S
C389 C397 1.503 . S
C390 C389 1.410 . S
C390 C391 1.392 . S
C390 C393 1.511 . S
C391 C387 1.376 . S
C391 C390 1.392 . S
C391 H403 0.929 . S
C392 C388 1.531 . S
C392 H404 0.960 . S
C392 H405 0.962 . S
C392 H406 0.960 . S
C393 C390 1.511 . S
C393 H407 0.961 . S
C393 H408 0.961 . S
C393 H409 0.961 . S
C394 C395 1.370 . S
C394 C396 1.363 . S
C394 H410 0.931 . S
C395 C394 1.370 . S
C395 C399 1.408 . S
C396 C394 1.363 . S
C396 C397 1.370 . S
C396 C400 1.524 . S
C397 C389 1.503 . S
C397 C396 1.370 . S
C397 C398 1.403 . S
C398 C397 1.403 . S
C398 C399 1.404 . S
C398 C401 1.539 . S
C399 C395 1.408 . S
C399 C398 1.404 . S
C399 H411 0.930 . S
C400 C396 1.524 . S
C400 H412 0.956 . S
C400 H413 0.961 . S
C400 H414 0.961 . S
C401 C398 1.539 . S
C401 H415 0.958 . S
C401 H416 0.961 . S
C401 H417 0.960 . S
H402 C386 0.931 . S
H403 C391 0.929 . S
H404 C392 0.960 . S
H405 C392 0.962 . S
H406 C392 0.960 . S
H407 C393 0.961 . S
H408 C393 0.961 . S
H409 C393 0.961 . S
H410 C394 0.931 . S
H411 C399 0.930 . S
H412 C400 0.956 . S
H413 C400 0.961 . S
H414 C400 0.961 . S
H415 C401 0.958 . S
H416 C401 0.961 . S
H417 C401 0.960 . S
C418 C419 1.391 . S
C418 C420 1.394 . S
C418 H434 0.931 . S
C419 C418 1.391 . S
C419 C423 1.376 . S
C420 C418 1.394 . S
C420 C421 1.369 . S
C420 C424 1.531 . S
C421 C420 1.369 . S
C421 C422 1.410 . S
C421 C429 1.503 . S
C422 C421 1.410 . S
C422 C423 1.392 . S
C422 C425 1.511 . S
C423 C419 1.376 . S
C423 C422 1.392 . S
C423 H435 0.929 . S
C424 C420 1.531 . S
C424 H436 0.960 . S
C424 H437 0.962 . S
C424 H438 0.960 . S
C425 C422 1.511 . S
C425 H439 0.961 . S
C425 H440 0.961 . S
C425 H441 0.961 . S
C426 C427 1.370 . S
C426 C428 1.363 . S
C426 H442 0.931 . S
C427 C426 1.370 . S
C427 C431 1.408 . S
C428 C426 1.363 . S
C428 C429 1.370 . S
C428 C432 1.524 . S
C429 C421 1.503 . S
C429 C428 1.370 . S
C429 C430 1.403 . S
C430 C429 1.403 . S
C430 C431 1.404 . S
C430 C433 1.539 . S
C431 C427 1.408 . S
C431 C430 1.404 . S
C431 H443 0.930 . S
C432 C428 1.524 . S
C432 H444 0.956 . S
C432 H445 0.961 . S
C432 H446 0.961 . S
C433 C430 1.539 . S
C433 H447 0.958 . S
C433 H448 0.961 . S
C433 H449 0.960 . S
H434 C418 0.931 . S
H435 C423 0.929 . S
H436 C424 0.960 . S
H437 C424 0.962 . S
H438 C424 0.960 . S
H439 C425 0.961 . S
H440 C425 0.961 . S
H441 C425 0.961 . S
H442 C426 0.931 . S
H443 C431 0.930 . S
H444 C432 0.956 . S
H445 C432 0.961 . S
H446 C432 0.961 . S
H447 C433 0.958 . S
H448 C433 0.961 . S
H449 C433 0.960 . S
C450 C451 1.391 . S
C450 C452 1.394 . S
C450 H466 0.931 . S
C451 C450 1.391 . S
C451 C455 1.376 . S
C452 C450 1.394 . S
C452 C453 1.369 . S
C452 C456 1.531 . S
C453 C452 1.369 . S
C453 C454 1.410 . S
C453 C461 1.503 . S
C454 C453 1.410 . S
C454 C455 1.392 . S
C454 C457 1.511 . S
C455 C451 1.376 . S
C455 C454 1.392 . S
C455 H467 0.929 . S
C456 C452 1.531 . S
C456 H468 0.960 . S
C456 H469 0.962 . S
C456 H470 0.960 . S
C457 C454 1.511 . S
C457 H471 0.961 . S
C457 H472 0.961 . S
C457 H473 0.961 . S
C458 C459 1.370 . S
C458 C460 1.363 . S
C458 H474 0.931 . S
C459 C458 1.370 . S
C459 C463 1.408 . S
C460 C458 1.363 . S
C460 C461 1.370 . S
C460 C464 1.524 . S
C461 C453 1.503 . S
C461 C460 1.370 . S
C461 C462 1.403 . S
C462 C461 1.403 . S
C462 C463 1.404 . S
C462 C465 1.539 . S
C463 C459 1.408 . S
C463 C462 1.404 . S
C463 H475 0.930 . S
C464 C460 1.524 . S
C464 H476 0.956 . S
C464 H477 0.961 . S
C464 H478 0.961 . S
C465 C462 1.539 . S
C465 H479 0.958 . S
C465 H480 0.961 . S
C465 H481 0.960 . S
H466 C450 0.931 . S
H467 C455 0.929 . S
H468 C456 0.960 . S
H469 C456 0.962 . S
H470 C456 0.960 . S
H471 C457 0.961 . S
H472 C457 0.961 . S
H473 C457 0.961 . S
H474 C458 0.931 . S
H475 C463 0.930 . S
H476 C464 0.956 . S
H477 C464 0.961 . S
H478 C464 0.961 . S
H479 C465 0.958 . S
H480 C465 0.961 . S
H481 C465 0.960 . S
C482 C483 1.391 . S
C482 C484 1.394 . S
C482 H498 0.931 . S
C483 C482 1.391 . S
C483 C487 1.376 . S
C484 C482 1.394 . S
C484 C485 1.369 . S
C484 C488 1.531 . S
C485 C484 1.369 . S
C485 C486 1.410 . S
C485 C493 1.503 . S
C486 C485 1.410 . S
C486 C487 1.392 . S
C486 C489 1.511 . S
C487 C483 1.376 . S
C487 C486 1.392 . S
C487 H499 0.929 . S
C488 C484 1.531 . S
C488 H500 0.960 . S
C488 H501 0.962 . S
C488 H502 0.960 . S
C489 C486 1.511 . S
C489 H503 0.961 . S
C489 H504 0.961 . S
C489 H505 0.961 . S
C490 C491 1.370 . S
C490 C492 1.363 . S
C490 H506 0.931 . S
C491 C490 1.370 . S
C491 C495 1.408 . S
C492 C490 1.363 . S
C492 C493 1.370 . S
C492 C496 1.524 . S
C493 C485 1.503 . S
C493 C492 1.370 . S
C493 C494 1.403 . S
C494 C493 1.403 . S
C494 C495 1.404 . S
C494 C497 1.539 . S
C495 C491 1.408 . S
C495 C494 1.404 . S
C495 H507 0.930 . S
C496 C492 1.524 . S
C496 H508 0.956 . S
C496 H509 0.961 . S
C496 H510 0.961 . S
C497 C494 1.539 . S
C497 H511 0.958 . S
C497 H512 0.961 . S
C497 H513 0.960 . S
H498 C482 0.931 . S
H499 C487 0.929 . S
H500 C488 0.960 . S
H501 C488 0.962 . S
H502 C488 0.960 . S
H503 C489 0.961 . S
H504 C489 0.961 . S
H505 C489 0.961 . S
H506 C490 0.931 . S
H507 C495 0.930 . S
H508 C496 0.956 . S
H509 C496 0.961 . S
H510 C496 0.961 . S
H511 C497 0.958 . S
H512 C497 0.961 . S
H513 C497 0.960 . S
C514 C515 1.391 . S
C514 C516 1.394 . S
C514 H530 0.931 . S
C515 C514 1.391 . S
C515 C519 1.376 . S
C516 C514 1.394 . S
C516 C517 1.369 . S
C516 C520 1.531 . S
C517 C516 1.369 . S
C517 C518 1.410 . S
C517 C525 1.503 . S
C518 C517 1.410 . S
C518 C519 1.392 . S
C518 C521 1.511 . S
C519 C515 1.376 . S
C519 C518 1.392 . S
C519 H531 0.929 . S
C520 C516 1.531 . S
C520 H532 0.960 . S
C520 H533 0.962 . S
C520 H534 0.960 . S
C521 C518 1.511 . S
C521 H535 0.961 . S
C521 H536 0.961 . S
C521 H537 0.961 . S
C522 C523 1.370 . S
C522 C524 1.363 . S
C522 H538 0.931 . S
C523 C522 1.370 . S
C523 C527 1.408 . S
C524 C522 1.363 . S
C524 C525 1.370 . S
C524 C528 1.524 . S
C525 C517 1.503 . S
C525 C524 1.370 . S
C525 C526 1.403 . S
C526 C525 1.403 . S
C526 C527 1.404 . S
C526 C529 1.539 . S
C527 C523 1.408 . S
C527 C526 1.404 . S
C527 H539 0.930 . S
C528 C524 1.524 . S
C528 H540 0.956 . S
C528 H541 0.961 . S
C528 H542 0.961 . S
C529 C526 1.539 . S
C529 H543 0.958 . S
C529 H544 0.961 . S
C529 H545 0.960 . S
H530 C514 0.931 . S
H531 C519 0.929 . S
H532 C520 0.960 . S
H533 C520 0.962 . S
H534 C520 0.960 . S
H535 C521 0.961 . S
H536 C521 0.961 . S
H537 C521 0.961 . S
H538 C522 0.931 . S
H539 C527 0.930 . S
H540 C528 0.956 . S
H541 C528 0.961 . S
H542 C528 0.961 . S
H543 C529 0.958 . S
H544 C529 0.961 . S
H545 C529 0.960 . S
C546 C547 1.391 . S
C546 C548 1.394 . S
C546 H562 0.931 . S
C547 C546 1.391 . S
C547 C551 1.376 . S
C548 C546 1.394 . S
C548 C549 1.369 . S
C548 C552 1.531 . S
C549 C548 1.369 . S
C549 C550 1.410 . S
C549 C557 1.503 . S
C550 C549 1.410 . S
C550 C551 1.392 . S
C550 C553 1.511 . S
C551 C547 1.376 . S
C551 C550 1.392 . S
C551 H563 0.929 . S
C552 C548 1.531 . S
C552 H564 0.960 . S
C552 H565 0.962 . S
C552 H566 0.960 . S
C553 C550 1.511 . S
C553 H567 0.961 . S
C553 H568 0.961 . S
C553 H569 0.961 . S
C554 C555 1.370 . S
C554 C556 1.363 . S
C554 H570 0.931 . S
C555 C554 1.370 . S
C555 C559 1.408 . S
C556 C554 1.363 . S
C556 C557 1.370 . S
C556 C560 1.524 . S
C557 C549 1.503 . S
C557 C556 1.370 . S
C557 C558 1.403 . S
C558 C557 1.403 . S
C558 C559 1.404 . S
C558 C561 1.539 . S
C559 C555 1.408 . S
C559 C558 1.404 . S
C559 H571 0.930 . S
C560 C556 1.524 . S
C560 H572 0.956 . S
C560 H573 0.961 . S
C560 H574 0.961 . S
C561 C558 1.539 . S
C561 H575 0.958 . S
C561 H576 0.961 . S
C561 H577 0.960 . S
H562 C546 0.931 . S
H563 C551 0.929 . S
H564 C552 0.960 . S
H565 C552 0.962 . S
H566 C552 0.960 . S
H567 C553 0.961 . S
H568 C553 0.961 . S
H569 C553 0.961 . S
H570 C554 0.931 . S
H571 C559 0.930 . S
H572 C560 0.956 . S
H573 C560 0.961 . S
H574 C560 0.961 . S
H575 C561 0.958 . S
H576 C561 0.961 . S
H577 C561 0.960 . S
C578 C579 1.391 . S
C578 C580 1.394 . S
C578 H594 0.931 . S
C579 C578 1.391 . S
C579 C583 1.376 . S
C580 C578 1.394 . S
C580 C581 1.369 . S
C580 C584 1.531 . S
C581 C580 1.369 . S
C581 C582 1.410 . S
C581 C589 1.503 . S
C582 C581 1.410 . S
C582 C583 1.392 . S
C582 C585 1.511 . S
C583 C579 1.376 . S
C583 C582 1.392 . S
C583 H595 0.929 . S
C584 C580 1.531 . S
C584 H596 0.960 . S
C584 H597 0.962 . S
C584 H598 0.960 . S
C585 C582 1.511 . S
C585 H599 0.961 . S
C585 H600 0.961 . S
C585 H601 0.961 . S
C586 C587 1.370 . S
C586 C588 1.363 . S
C586 H602 0.931 . S
C587 C586 1.370 . S
C587 C591 1.408 . S
C588 C586 1.363 . S
C588 C589 1.370 . S
C588 C592 1.524 . S
C589 C581 1.503 . S
C589 C588 1.370 . S
C589 C590 1.403 . S
C590 C589 1.403 . S
C590 C591 1.404 . S
C590 C593 1.539 . S
C591 C587 1.408 . S
C591 C590 1.404 . S
C591 H603 0.930 . S
C592 C588 1.524 . S
C592 H604 0.956 . S
C592 H605 0.961 . S
C592 H606 0.961 . S
C593 C590 1.539 . S
C593 H607 0.958 . S
C593 H608 0.961 . S
C593 H609 0.960 . S
H594 C578 0.931 . S
H595 C583 0.929 . S
H596 C584 0.960 . S
H597 C584 0.962 . S
H598 C584 0.960 . S
H599 C585 0.961 . S
H600 C585 0.961 . S
H601 C585 0.961 . S
H602 C586 0.931 . S
H603 C591 0.930 . S
H604 C592 0.956 . S
H605 C592 0.961 . S
H606 C592 0.961 . S
H607 C593 0.958 . S
H608 C593 0.961 . S
H609 C593 0.960 . S
C610 C611 1.391 . S
C610 C612 1.394 . S
C610 H626 0.931 . S
C611 C610 1.391 . S
C611 C615 1.376 . S
C612 C610 1.394 . S
C612 C613 1.369 . S
C612 C616 1.531 . S
C613 C612 1.369 . S
C613 C614 1.410 . S
C613 C621 1.503 . S
C614 C613 1.410 . S
C614 C615 1.392 . S
C614 C617 1.511 . S
C615 C611 1.376 . S
C615 C614 1.392 . S
C615 H627 0.929 . S
C616 C612 1.531 . S
C616 H628 0.960 . S
C616 H629 0.962 . S
C616 H630 0.960 . S
C617 C614 1.511 . S
C617 H631 0.961 . S
C617 H632 0.961 . S
C617 H633 0.961 . S
C618 C619 1.370 . S
C618 C620 1.363 . S
C618 H634 0.931 . S
C619 C618 1.370 . S
C619 C623 1.408 . S
C620 C618 1.363 . S
C620 C621 1.370 . S
C620 C624 1.524 . S
C621 C613 1.503 . S
C621 C620 1.370 . S
C621 C622 1.403 . S
C622 C621 1.403 . S
C622 C623 1.404 . S
C622 C625 1.539 . S
C623 C619 1.408 . S
C623 C622 1.404 . S
C623 H635 0.930 . S
C624 C620 1.524 . S
C624 H636 0.956 . S
C624 H637 0.961 . S
C624 H638 0.961 . S
C625 C622 1.539 . S
C625 H639 0.958 . S
C625 H640 0.961 . S
C625 H641 0.960 . S
H626 C610 0.931 . S
H627 C615 0.929 . S
H628 C616 0.960 . S
H629 C616 0.962 . S
H630 C616 0.960 . S
H631 C617 0.961 . S
H632 C617 0.961 . S
H633 C617 0.961 . S
H634 C618 0.931 . S
H635 C623 0.930 . S
H636 C624 0.956 . S
H637 C624 0.961 . S
H638 C624 0.961 . S
H639 C625 0.958 . S
H640 C625 0.961 . S
H641 C625 0.960 . S
C642 C643 1.391 . S
C642 C644 1.394 . S
C642 H658 0.931 . S
C643 C642 1.391 . S
C643 C647 1.376 . S
C644 C642 1.394 . S
C644 C645 1.369 . S
C644 C648 1.531 . S
C645 C644 1.369 . S
C645 C646 1.410 . S
C645 C653 1.503 . S
C646 C645 1.410 . S
C646 C647 1.392 . S
C646 C649 1.511 . S
C647 C643 1.376 . S
C647 C646 1.392 . S
C647 H659 0.929 . S
C648 C644 1.531 . S
C648 H660 0.960 . S
C648 H661 0.962 . S
C648 H662 0.960 . S
C649 C646 1.511 . S
C649 H663 0.961 . S
C649 H664 0.961 . S
C649 H665 0.961 . S
C650 C651 1.370 . S
C650 C652 1.363 . S
C650 H666 0.931 . S
C651 C650 1.370 . S
C651 C655 1.408 . S
C652 C650 1.363 . S
C652 C653 1.370 . S
C652 C656 1.524 . S
C653 C645 1.503 . S
C653 C652 1.370 . S
C653 C654 1.403 . S
C654 C653 1.403 . S
C654 C655 1.404 . S
C654 C657 1.539 . S
C655 C651 1.408 . S
C655 C654 1.404 . S
C655 H667 0.930 . S
C656 C652 1.524 . S
C656 H668 0.956 . S
C656 H669 0.961 . S
C656 H670 0.961 . S
C657 C654 1.539 . S
C657 H671 0.958 . S
C657 H672 0.961 . S
C657 H673 0.960 . S
H658 C642 0.931 . S
H659 C647 0.929 . S
H660 C648 0.960 . S
H661 C648 0.962 . S
H662 C648 0.960 . S
H663 C649 0.961 . S
H664 C649 0.961 . S
H665 C649 0.961 . S
H666 C650 0.931 . S
H667 C655 0.930 . S
H668 C656 0.956 . S
H669 C656 0.961 . S
H670 C656 0.961 . S
H671 C657 0.958 . S
H672 C657 0.961 . S
H673 C657 0.960 . S
C674 C675 1.391 . S
C674 C676 1.394 . S
C674 H690 0.931 . S
C675 C674 1.391 . S
C675 C679 1.376 . S
C676 C674 1.394 . S
C676 C677 1.369 . S
C676 C680 1.531 . S
C677 C676 1.369 . S
C677 C678 1.410 . S
C677 C685 1.503 . S
C678 C677 1.410 . S
C678 C679 1.392 . S
C678 C681 1.511 . S
C679 C675 1.376 . S
C679 C678 1.392 . S
C679 H691 0.929 . S
C680 C676 1.531 . S
C680 H692 0.960 . S
C680 H693 0.962 . S
C680 H694 0.960 . S
C681 C678 1.511 . S
C681 H695 0.961 . S
C681 H696 0.961 . S
C681 H697 0.961 . S
C682 C683 1.370 . S
C682 C684 1.363 . S
C682 H698 0.931 . S
C683 C682 1.370 . S
C683 C687 1.408 . S
C684 C682 1.363 . S
C684 C685 1.370 . S
C684 C688 1.524 . S
C685 C677 1.503 . S
C685 C684 1.370 . S
C685 C686 1.403 . S
C686 C685 1.403 . S
C686 C687 1.404 . S
C686 C689 1.539 . S
C687 C683 1.408 . S
C687 C686 1.404 . S
C687 H699 0.930 . S
C688 C684 1.524 . S
C688 H700 0.956 . S
C688 H701 0.961 . S
C688 H702 0.961 . S
C689 C686 1.539 . S
C689 H703 0.958 . S
C689 H704 0.961 . S
C689 H705 0.960 . S
H690 C674 0.931 . S
H691 C679 0.929 . S
H692 C680 0.960 . S
H693 C680 0.962 . S
H694 C680 0.960 . S
H695 C681 0.961 . S
H696 C681 0.961 . S
H697 C681 0.961 . S
H698 C682 0.931 . S
H699 C687 0.930 . S
H700 C688 0.956 . S
H701 C688 0.961 . S
H702 C688 0.961 . S
H703 C689 0.958 . S
H704 C689 0.961 . S
H705 C689 0.960 . S
C706 C707 1.391 . S
C706 C708 1.394 . S
C706 H722 0.931 . S
C707 C706 1.391 . S
C707 C711 1.376 . S
C708 C706 1.394 . S
C708 C709 1.369 . S
C708 C712 1.531 . S
C709 C708 1.369 . S
C709 C710 1.410 . S
C709 C717 1.503 . S
C710 C709 1.410 . S
C710 C711 1.392 . S
C710 C713 1.511 . S
C711 C707 1.376 . S
C711 C710 1.392 . S
C711 H723 0.929 . S
C712 C708 1.531 . S
C712 H724 0.960 . S
C712 H725 0.962 . S
C712 H726 0.960 . S
C713 C710 1.511 . S
C713 H727 0.961 . S
C713 H728 0.961 . S
C713 H729 0.961 . S
C714 C715 1.370 . S
C714 C716 1.363 . S
C714 H730 0.931 . S
C715 C714 1.370 . S
C715 C719 1.408 . S
C716 C714 1.363 . S
C716 C717 1.370 . S
C716 C720 1.524 . S
C717 C709 1.503 . S
C717 C716 1.370 . S
C717 C718 1.403 . S
C718 C717 1.403 . S
C718 C719 1.404 . S
C718 C721 1.539 . S
C719 C715 1.408 . S
C719 C718 1.404 . S
C719 H731 0.930 . S
C720 C716 1.524 . S
C720 H732 0.956 . S
C720 H733 0.961 . S
C720 H734 0.961 . S
C721 C718 1.539 . S
C721 H735 0.958 . S
C721 H736 0.961 . S
C721 H737 0.960 . S
H722 C706 0.931 . S
H723 C711 0.929 . S
H724 C712 0.960 . S
H725 C712 0.962 . S
H726 C712 0.960 . S
H727 C713 0.961 . S
H728 C713 0.961 . S
H729 C713 0.961 . S
H730 C714 0.931 . S
H731 C719 0.930 . S
H732 C720 0.956 . S
H733 C720 0.961 . S
H734 C720 0.961 . S
H735 C721 0.958 . S
H736 C721 0.961 . S
H737 C721 0.960 . S
C738 C739 1.391 . S
C738 C740 1.394 . S
C738 H754 0.931 1_455 S
C739 C738 1.391 . S
C739 C743 1.376 . S
C740 C738 1.394 . S
C740 C741 1.369 . S
C740 C744 1.531 1_455 S
C741 C740 1.369 . S
C741 C742 1.410 . S
C741 C749 1.503 . S
C742 C741 1.410 . S
C742 C743 1.392 . S
C742 C745 1.511 . S
C743 C739 1.376 . S
C743 C742 1.392 . S
C743 H755 0.929 . S
C744 C740 1.531 1_655 S
C744 H756 0.960 . S
C744 H757 0.962 . S
C744 H758 0.960 . S
C745 C742 1.511 . S
C745 H759 0.961 . S
C745 H760 0.961 . S
C745 H761 0.961 . S
C746 C747 1.370 1_655 S
C746 C748 1.363 . S
C746 H762 0.931 . S
C747 C746 1.370 1_455 S
C747 C751 1.408 . S
C748 C746 1.363 . S
C748 C749 1.370 1_655 S
C748 C752 1.524 . S
C749 C741 1.503 . S
C749 C748 1.370 1_455 S
C749 C750 1.403 . S
C750 C749 1.403 . S
C750 C751 1.404 . S
C750 C753 1.539 . S
C751 C747 1.408 . S
C751 C750 1.404 . S
C751 H763 0.930 . S
C752 C748 1.524 . S
C752 H764 0.956 . S
C752 H765 0.961 . S
C752 H766 0.961 . S
C753 C750 1.539 . S
C753 H767 0.958 . S
C753 H768 0.961 . S
C753 H769 0.960 . S
H754 C738 0.931 1_655 S
H755 C743 0.929 . S
H756 C744 0.960 . S
H757 C744 0.962 . S
H758 C744 0.960 . S
H759 C745 0.961 . S
H760 C745 0.961 . S
H761 C745 0.961 . S
H762 C746 0.931 . S
H763 C751 0.930 . S
H764 C752 0.956 . S
H765 C752 0.961 . S
H766 C752 0.961 . S
H767 C753 0.958 . S
H768 C753 0.961 . S
H769 C753 0.960 . S
C770 C771 1.391 . S
C770 C772 1.394 . S
C770 H786 0.931 . S
C771 C770 1.391 . S
C771 C775 1.376 . S
C772 C770 1.394 . S
C772 C773 1.369 . S
C772 C776 1.531 . S
C773 C772 1.369 . S
C773 C774 1.410 . S
C773 C781 1.503 . S
C774 C773 1.410 . S
C774 C775 1.392 . S
C774 C777 1.511 . S
C775 C771 1.376 . S
C775 C774 1.392 . S
C775 H787 0.929 . S
C776 C772 1.531 . S
C776 H788 0.960 . S
C776 H789 0.962 . S
C776 H790 0.960 . S
C777 C774 1.511 . S
C777 H791 0.990 . S
C777 H792 0.961 . S
C777 H793 0.961 . S
C778 C779 1.370 . S
C778 C780 1.363 . S
C778 H794 0.931 1_545 S
C779 C778 1.370 . S
C779 C783 1.408 . S
C780 C778 1.363 . S
C780 C781 1.370 . S
C780 C784 1.524 1_545 S
C781 C773 1.503 . S
C781 C780 1.370 . S
C781 C782 1.403 . S
C782 C781 1.403 . S
C782 C783 1.404 . S
C782 C785 1.539 . S
C783 C779 1.408 . S
C783 C782 1.404 . S
C783 H795 0.930 . S
C784 C780 1.524 1_565 S
C784 H796 0.956 . S
C784 H797 0.961 . S
C784 H798 0.961 . S
C785 C782 1.539 . S
C785 H799 0.958 . S
C785 H800 0.961 . S
C785 H801 0.960 . S
H786 C770 0.931 . S
H787 C775 0.929 . S
H788 C776 0.960 . S
H789 C776 0.962 . S
H790 C776 0.960 . S
H791 C777 0.990 . S
H792 C777 0.961 . S
H793 C777 0.961 . S
H794 C778 0.931 1_565 S
H795 C783 0.930 . S
H796 C784 0.956 . S
H797 C784 0.961 . S
H798 C784 0.961 . S
H799 C785 0.958 . S
H800 C785 0.961 . S
H801 C785 0.960 . S
C802 C803 1.391 . S
C802 C804 1.394 . S
C802 H818 0.931 . S
C803 C802 1.391 . S
C803 C807 1.376 . S
C804 C802 1.394 . S
C804 C805 1.369 . S
C804 C808 1.531 . S
C805 C804 1.369 . S
C805 C806 1.410 . S
C805 C813 1.503 . S
C806 C805 1.410 . S
C806 C807 1.392 . S
C806 C809 1.511 . S
C807 C803 1.376 . S
C807 C806 1.392 . S
C807 H819 0.929 . S
C808 C804 1.531 . S
C808 H820 0.960 . S
C808 H821 0.962 . S
C808 H822 0.960 . S
C809 C806 1.511 . S
C809 H823 0.961 . S
C809 H824 0.961 . S
C809 H825 0.961 . S
C810 C811 1.370 . S
C810 C812 1.363 . S
C810 H826 0.931 . S
C811 C810 1.370 . S
C811 C815 1.408 . S
C812 C810 1.363 . S
C812 C813 1.370 . S
C812 C816 1.524 . S
C813 C805 1.503 . S
C813 C812 1.370 . S
C813 C814 1.403 . S
C814 C813 1.403 . S
C814 C815 1.404 . S
C814 C817 1.539 . S
C815 C811 1.408 . S
C815 C814 1.404 . S
C815 H827 0.930 . S
C816 C812 1.524 . S
C816 H828 0.956 . S
C816 H829 0.961 . S
C816 H830 0.961 . S
C817 C814 1.539 . S
C817 H831 0.958 . S
C817 H832 0.961 . S
C817 H833 0.960 . S
H818 C802 0.931 . S
H819 C807 0.929 . S
H820 C808 0.960 . S
H821 C808 0.962 . S
H822 C808 0.960 . S
H823 C809 0.961 . S
H824 C809 0.961 . S
H825 C809 0.961 . S
H826 C810 0.931 . S
H827 C815 0.930 . S
H828 C816 0.956 . S
H829 C816 0.961 . S
H830 C816 0.961 . S
H831 C817 0.958 . S
H832 C817 0.961 . S
H833 C817 0.960 . S
C834 C835 1.391 . S
C834 C836 1.394 . S
C834 H850 0.931 . S
C835 C834 1.391 . S
C835 C839 1.376 . S
C836 C834 1.394 . S
C836 C837 1.369 . S
C836 C840 1.531 . S
C837 C836 1.369 . S
C837 C838 1.410 . S
C837 C845 1.503 . S
C838 C837 1.410 . S
C838 C839 1.392 . S
C838 C841 1.511 . S
C839 C835 1.376 . S
C839 C838 1.392 . S
C839 H851 0.929 . S
C840 C836 1.531 . S
C840 H852 0.960 . S
C840 H853 0.962 . S
C840 H854 0.960 . S
C841 C838 1.511 . S
C841 H855 0.961 1_545 S
C841 H856 0.961 1_545 S
C841 H857 0.961 . S
C842 C843 1.370 1_565 S
C842 C844 1.363 . S
C842 H858 0.931 . S
C843 C842 1.370 1_545 S
C843 C847 1.408 . S
C844 C842 1.363 . S
C844 C845 1.370 1_565 S
C844 C848 1.524 . S
C845 C837 1.503 . S
C845 C844 1.370 1_545 S
C845 C846 1.403 . S
C846 C845 1.403 . S
C846 C847 1.404 . S
C846 C849 1.539 . S
C847 C843 1.408 . S
C847 C846 1.404 . S
C847 H859 0.930 . S
C848 C844 1.524 . S
C848 H860 0.956 . S
C848 H861 0.961 . S
C848 H862 0.961 . S
C849 C846 1.539 . S
C849 H863 0.958 . S
C849 H864 0.961 . S
C849 H865 0.960 . S
H850 C834 0.931 . S
H851 C839 0.929 . S
H852 C840 0.960 . S
H853 C840 0.962 . S
H854 C840 0.960 . S
H855 C841 0.961 1_565 S
H856 C841 0.961 1_565 S
H857 C841 0.961 . S
H858 C842 0.931 . S
H859 C847 0.930 . S
H860 C848 0.956 . S
H861 C848 0.961 . S
H862 C848 0.961 . S
H863 C849 0.958 . S
H864 C849 0.961 . S
H865 C849 0.960 . S
C866 C867 1.391 . S
C866 C868 1.394 . S
C866 H882 0.931 . S
C867 C866 1.391 . S
C867 C871 1.376 . S
C868 C866 1.394 . S
C868 C869 1.369 . S
C868 C872 1.531 . S
C869 C868 1.369 . S
C869 C870 1.410 . S
C869 C877 1.503 . S
C870 C869 1.410 . S
C870 C871 1.392 . S
C870 C873 1.511 . S
C871 C867 1.376 . S
C871 C870 1.392 . S
C871 H883 0.929 . S
C872 C868 1.531 . S
C872 H884 0.960 . S
C872 H885 0.962 . S
C872 H886 0.960 . S
C873 C870 1.511 . S
C873 H887 0.961 . S
C873 H888 0.961 . S
C873 H889 0.961 . S
C874 C875 1.370 . S
C874 C876 1.363 . S
C874 H890 0.931 . S
C875 C874 1.370 . S
C875 C879 1.408 . S
C876 C874 1.363 . S
C876 C877 1.370 . S
C876 C880 1.524 . S
C877 C869 1.503 . S
C877 C876 1.370 . S
C877 C878 1.403 . S
C878 C877 1.403 . S
C878 C879 1.404 . S
C878 C881 1.539 . S
C879 C875 1.408 . S
C879 C878 1.404 . S
C879 H891 0.930 . S
C880 C876 1.524 . S
C880 H892 0.956 . S
C880 H893 0.961 . S
C880 H894 0.961 . S
C881 C878 1.539 . S
C881 H895 0.958 . S
C881 H896 0.961 . S
C881 H897 0.960 . S
H882 C866 0.931 . S
H883 C871 0.929 . S
H884 C872 0.960 . S
H885 C872 0.962 . S
H886 C872 0.960 . S
H887 C873 0.961 . S
H888 C873 0.961 . S
H889 C873 0.961 . S
H890 C874 0.931 . S
H891 C879 0.930 . S
H892 C880 0.956 . S
H893 C880 0.961 . S
H894 C880 0.961 . S
H895 C881 0.958 . S
H896 C881 0.961 . S
H897 C881 0.960 . S
C898 C899 1.391 1_655 S
C898 C900 1.394 . S
C898 H914 0.931 . S
C899 C898 1.391 1_455 S
C899 C903 1.376 . S
C900 C898 1.394 . S
C900 C901 1.369 1_655 S
C900 C904 1.531 . S
C901 C900 1.369 1_455 S
C901 C902 1.410 . S
C901 C909 1.503 . S
C902 C901 1.410 . S
C902 C903 1.392 . S
C902 C905 1.511 . S
C903 C899 1.376 . S
C903 C902 1.392 . S
C903 H915 0.929 . S
C904 C900 1.531 . S
C904 H916 0.960 . S
C904 H917 0.962 . S
C904 H918 0.960 . S
C905 C902 1.511 . S
C905 H919 0.961 . S
C905 H920 0.961 . S
C905 H921 0.961 . S
C906 C907 1.370 . S
C906 C908 1.363 . S
C906 H922 0.931 . S
C907 C906 1.370 . S
C907 C911 1.408 . S
C908 C906 1.363 . S
C908 C909 1.370 . S
C908 C912 1.524 . S
C909 C901 1.503 . S
C909 C908 1.370 . S
C909 C910 1.403 . S
C910 C909 1.403 . S
C910 C911 1.404 . S
C910 C913 1.539 . S
C911 C907 1.408 . S
C911 C910 1.404 . S
C911 H923 0.930 . S
C912 C908 1.524 . S
C912 H924 0.956 . S
C912 H925 0.961 . S
C912 H926 0.961 . S
C913 C910 1.539 . S
C913 H927 0.958 . S
C913 H928 0.961 . S
C913 H929 0.960 . S
H914 C898 0.931 . S
H915 C903 0.929 . S
H916 C904 0.960 . S
H917 C904 0.962 . S
H918 C904 0.960 . S
H919 C905 0.961 . S
H920 C905 0.961 . S
H921 C905 0.961 . S
H922 C906 0.931 . S
H923 C911 0.930 . S
H924 C912 0.956 . S
H925 C912 0.961 . S
H926 C912 0.961 . S
H927 C913 0.958 . S
H928 C913 0.961 . S
H929 C913 0.960 . S
C355 C10 3.017 . S
C363 C331 2.992 . S
C387 C59 3.102 . S
C395 C258 3.055 . S
C419 C90 3.025 . S
C427 C297 2.997 . S
C451 C19 3.081 . S
C459 C336 3.043 . S
C491 C253 2.974 . S
C483 C50 3.006 . S
C523 C292 3.049 . S
C515 C99 3.083 . S
C547 C46 0.452 . S
C555 C180 0.405 . S
C579 C95 0.391 . S
C587 C214 0.317 . S
C611 C6 0.397 . S
C619 C136 0.382 . S
C651 C175 0.298 . S
C643 C55 0.407 . S
C683 C219 0.382 . S
C675 C86 0.404 . S
C707 C15 0.326 . S
C715 C141 0.301 . S
C747 C199 1.072 1_554 S
C739 C9 1.026 . S
C771 C49 1.055 . S
C779 C121 1.073 . S
C803 C89 1.023 . S
C811 C160 1.074 . S
C843 C277 1.791 . S
C835 C58 1.689 . S
C875 C316 1.794 1_556 S
C867 C98 1.703 . S
C899 C18 1.677 . S
C907 C238 1.793 . S
