# Generated by pormake.
# Topology sit, (3,6)-cn, num edge types: 1
# Building blocks:
#     Node 0, Type 0, BuildingBlock: CUQRIR_clean_linker_1, # of connection points: 3
#     Node 1, Type 0, BuildingBlock: CUQRIR_clean_linker_1, # of connection points: 3
#     Node 2, Type 0, BuildingBlock: CUQRIR_clean_linker_1, # of connection points: 3
#     Node 3, Type 0, BuildingBlock: CUQRIR_clean_linker_1, # of connection points: 3
#     Node 4, Type 1, BuildingBlock: MIDCAF_clean_sbu_0, # of connection points: 6
#     Node 5, Type 1, BuildingBlock: MIDCAF_clean_sbu_0, # of connection points: 6
#     Edge 6, Type (0, 1), BuildingBlock: FUNLAD_clean_linker_0, # of connection points: 2
#     Edge 7, Type (0, 1), BuildingBlock: FUNLAD_clean_linker_0, # of connection points: 2
#     Edge 8, Type (0, 1), BuildingBlock: FUNLAD_clean_linker_0, # of connection points: 2
#     Edge 9, Type (0, 1), BuildingBlock: FUNLAD_clean_linker_0, # of connection points: 2
#     Edge 10, Type (0, 1), BuildingBlock: FUNLAD_clean_linker_0, # of connection points: 2
#     Edge 11, Type (0, 1), BuildingBlock: FUNLAD_clean_linker_0, # of connection points: 2
#     Edge 12, Type (0, 1), BuildingBlock: FUNLAD_clean_linker_0, # of connection points: 2
#     Edge 13, Type (0, 1), BuildingBlock: FUNLAD_clean_linker_0, # of connection points: 2
#     Edge 14, Type (0, 1), BuildingBlock: FUNLAD_clean_linker_0, # of connection points: 2
#     Edge 15, Type (0, 1), BuildingBlock: FUNLAD_clean_linker_0, # of connection points: 2
#     Edge 16, Type (0, 1), BuildingBlock: FUNLAD_clean_linker_0, # of connection points: 2
#     Edge 17, Type (0, 1), BuildingBlock: FUNLAD_clean_linker_0, # of connection points: 2
# Relax obj value: 0.072
# Max RMSD: 0.180
# Mean RMSD: 0.121
data_MOF--net-sit--node1-MIDCAF_clean_sbu_0--node2-CUQRIR_clean_linker_1--edge1-FUNLAD_clean_linker_0
_symmetry_space_group_name_H-M    P1
_symmetry_Int_Tables_number       1
_symmetry_cell_setting            triclinic
loop_
_symmetry_equiv_pos_as_xyz
'x, y, z'
_cell_length_a     22.605936
_cell_length_b     36.82533
_cell_length_c     40.949723
_cell_angle_alpha  90.423172
_cell_angle_beta   89.275028
_cell_angle_gamma 84.279147
loop_
_atom_site_label
_atom_site_type_symbol
_atom_site_fract_x
_atom_site_fract_y
_atom_site_fract_z
_atom_type_partial_charge
C0 C 0.04491 0.27916 0.02731 0.0
N1 N 0.06825 0.30498 0.00937 0.0
N2 N 0.08772 0.25256 0.0357 0.0
C3 C 0.97946 0.27859 0.03438 0.0
C4 C 0.13796 0.26306 0.0217 0.0
N5 N 0.1259 0.29481 0.00541 0.0
C6 C 0.19939 0.24434 0.02663 0.0
H7 H 0.96754 0.29458 0.05699 0.0
H8 H 0.96786 0.25028 0.03778 0.0
H9 H 0.95273 0.29134 0.01417 0.0
H10 H 0.20907 0.22319 0.00734 0.0
H11 H 0.20269 0.23084 0.05075 0.0
H12 H 0.23337 0.26403 0.02491 0.0
C13 C 0.97278 0.75418 0.04926 0.0
N14 N 0.98745 0.72355 0.03109 0.0
N15 N 0.02133 0.77219 0.05452 0.0
C16 C 0.91256 0.76456 0.06459 0.0
C17 C 0.06607 0.75126 0.03915 0.0
N18 N 0.04561 0.72165 0.02521 0.0
C19 C 0.12885 0.76114 0.03546 0.0
H20 H 0.88615 0.78357 0.0482 0.0
H21 H 0.91677 0.77854 0.08842 0.0
H22 H 0.88827 0.74016 0.06836 0.0
H23 H 0.15608 0.74836 0.05545 0.0
H24 H 0.13035 0.79113 0.03676 0.0
H25 H 0.14882 0.75079 0.01187 0.0
C26 C 0.5582 0.7804 0.52864 0.0
N27 N 0.57972 0.807 0.51075 0.0
N28 N 0.60257 0.76143 0.54502 0.0
C29 C 0.49365 0.77406 0.53121 0.0
C30 C 0.65161 0.77781 0.53695 0.0
N31 N 0.63772 0.80563 0.51611 0.0
C32 C 0.7128 0.76652 0.54958 0.0
H33 H 0.46548 0.80053 0.53208 0.0
H34 H 0.48443 0.75782 0.55307 0.0
H35 H 0.48146 0.75892 0.50917 0.0
H36 H 0.71762 0.73723 0.55619 0.0
H37 H 0.71999 0.78277 0.57185 0.0
H38 H 0.74732 0.77161 0.53113 0.0
C39 C 0.51452 0.22066 0.56565 0.0
N40 N 0.53391 0.19492 0.54317 0.0
N41 N 0.56104 0.23592 0.57868 0.0
C42 C 0.45019 0.2319 0.5737 0.0
C43 C 0.6093 0.21873 0.56324 0.0
N44 N 0.59278 0.19391 0.54153 0.0
C45 C 0.67215 0.22743 0.56833 0.0
H46 H 0.4443 0.25695 0.58903 0.0
H47 H 0.43152 0.20952 0.58714 0.0
H48 H 0.42475 0.23634 0.55082 0.0
H49 H 0.70444 0.20379 0.5616 0.0
H50 H 0.679 0.23532 0.59408 0.0
H51 H 0.68083 0.25086 0.5527 0.0
Zn52 Zn 0.05246 0.08643 0.33583 0.0
Zn53 Zn 0.12655 0.94489 0.3316 0.0
Zn54 Zn 0.08916 0.01606 0.33337 0.0
C55 C 0.11345 0.96816 0.26709 0.0
C56 C 0.01657 0.95262 0.36414 0.0
O57 O 0.15405 0.04355 0.36217 0.0
O58 O 0.11332 0.10062 0.36685 0.0
C59 C 0.07389 0.06892 0.27038 0.0
O60 O 0.09803 0.99903 0.28136 0.0
O61 O 0.12792 0.93994 0.28359 0.0
O62 O 0.05883 0.92857 0.35734 0.0
O63 O 0.02006 0.98622 0.35647 0.0
O64 O 0.06002 0.09611 0.28885 0.0
O65 O 0.08548 0.03685 0.28252 0.0
O66 O 0.00135 0.0237 0.35887 0.0
O67 O 0.97175 0.08241 0.35307 0.0
C68 C 0.96201 0.05122 0.36306 0.0
O69 O 0.17489 0.00663 0.35965 0.0
O70 O 0.2033 0.94767 0.35288 0.0
C71 C 0.15451 0.07622 0.37361 0.0
C72 C 0.21285 0.97859 0.36383 0.0
Zn73 Zn 0.56832 0.59187 0.84425 0.0
Zn74 Zn 0.57135 0.41168 0.8532 0.0
Zn75 Zn 0.56095 0.52423 0.84107 0.0
C76 C 0.57047 0.46756 0.79507 0.0
C77 C 0.47696 0.47879 0.86477 0.0
O78 O 0.6366 0.52952 0.87248 0.0
O79 O 0.62732 0.5893 0.87997 0.0
C80 C 0.59258 0.56953 0.77907 0.0
O81 O 0.56758 0.50202 0.79142 0.0
O82 O 0.56507 0.45684 0.82414 0.0
O83 O 0.52427 0.46109 0.85443 0.0
O84 O 0.4746 0.51318 0.86121 0.0
O85 O 0.59747 0.59584 0.79851 0.0
O86 O 0.57525 0.53953 0.78973 0.0
O87 O 0.47556 0.55041 0.862 0.0
O88 O 0.48385 0.60915 0.85505 0.0
C89 C 0.4533 0.584 0.86398 0.0
O90 O 0.63355 0.48873 0.86876 0.0
O91 O 0.64217 0.42715 0.87774 0.0
C92 C 0.65299 0.55818 0.88631 0.0
C93 C 0.6605 0.45887 0.88084 0.0
C94 C 0.10595 0.18686 0.04941 0.0
C95 C 0.0815 0.22251 0.05742 0.0
C96 C 0.09734 0.15776 0.07032 0.0
C97 C 0.06292 0.16405 0.09894 0.0
C98 C 0.03902 0.19959 0.10694 0.0
C99 C 0.04921 0.2286 0.08675 0.0
C100 C 0.05003 0.13453 0.12122 0.0
C101 C 0.09332 0.11456 0.13725 0.0
C102 C 0.08226 0.09767 0.16943 0.0
C103 C 0.12352 0.07013 0.18171 0.0
C104 C 0.1192 0.05863 0.2142 0.0
C105 C 0.07407 0.07503 0.23489 0.0
H106 H 0.00375 0.13459 0.18239 0.0
C107 C 0.03152 0.10124 0.22222 0.0
C108 C 0.03547 0.11248 0.19004 0.0
H109 H -0.00371 0.11432 0.23772 0.0
H110 H 0.13067 0.1815 0.0268 0.0
H111 H 0.11604 0.13041 0.06377 0.0
H112 H 0.01295 0.20499 0.12916 0.0
H113 H 0.03142 0.2559 0.09394 0.0
H114 H 0.00401 0.13454 0.1291 0.0
H115 H 0.13917 0.11458 0.12889 0.0
H116 H 0.16042 0.05858 0.16656 0.0
H117 H 0.15298 0.03865 0.22361 0.0
C118 C 0.06986 0.80628 0.09672 0.0
C119 C 0.02544 0.80508 0.07327 0.0
C120 C 0.0753 0.83822 0.11441 0.0
C121 C 0.03577 0.8696 0.10938 0.0
C122 C 0.99023 0.8682 0.08658 0.0
C123 C 0.98561 0.83631 0.0683 0.0
C124 C 0.03902 0.90258 0.13001 0.0
C125 C 0.09177 0.91351 0.13867 0.0
C126 C 0.09994 0.93633 0.16801 0.0
C127 C 0.15442 0.93046 0.18411 0.0
C128 C 0.16034 0.94375 0.2157 0.0
C129 C 0.11241 0.96407 0.23143 0.0
H130 H 0.0117 0.96589 0.1704 0.0
C131 C 0.06011 0.97372 0.21411 0.0
C132 C 0.05369 0.95977 0.18254 0.0
H133 H 0.02267 0.9895 0.22589 0.0
H134 H 0.10001 0.78228 0.10159 0.0
H135 H 0.10946 0.83797 0.13275 0.0
H136 H 0.95868 0.89185 0.08271 0.0
H137 H 0.95121 0.83604 0.05018 0.0
H138 H -0.00228 0.91537 0.1405 0.0
H139 H 0.13184 0.90026 0.12701 0.0
H140 H 0.19105 0.91294 0.17339 0.0
H141 H 0.20118 0.93616 0.22864 0.0
C142 C 0.61106 0.69801 0.56426 0.0
C143 C 0.59746 0.73541 0.57042 0.0
C144 C 0.61124 0.67305 0.58992 0.0
C145 C 0.598 0.68548 0.62204 0.0
C146 C 0.58324 0.72298 0.62774 0.0
C147 C 0.58282 0.7477 0.60214 0.0
C148 C 0.60391 0.66115 0.65072 0.0
C149 C 0.60149 0.62473 0.64998 0.0
C150 C 0.60777 0.60367 0.68068 0.0
C151 C 0.56805 0.5779 0.68841 0.0
C152 C 0.56605 0.56382 0.72011 0.0
C153 C 0.60404 0.57535 0.74414 0.0
H154 H 0.6823 0.63079 0.69818 0.0
C155 C 0.64762 0.59816 0.73531 0.0
C156 C 0.64979 0.61197 0.70385 0.0
H157 H 0.678 0.607 0.75332 0.0
H158 H 0.62304 0.68839 0.53978 0.0
H159 H 0.62401 0.64448 0.58471 0.0
H160 H 0.57317 0.73331 0.65224 0.0
H161 H 0.57267 0.7766 0.60709 0.0
H162 H 0.60901 0.67442 0.67421 0.0
H163 H 0.59042 0.61093 0.62769 0.0
H164 H 0.53575 0.57079 0.67074 0.0
H165 H 0.53184 0.54641 0.72646 0.0
C166 C 0.58014 0.26048 0.63296 0.0
C167 C 0.55977 0.26608 0.60111 0.0
C168 C 0.5809 0.28993 0.65458 0.0
C169 C 0.5617 0.32568 0.64451 0.0
C170 C 0.54017 0.33095 0.61268 0.0
C171 C 0.53953 0.30139 0.59108 0.0
C172 C 0.56114 0.35764 0.667 0.0
C173 C 0.5977 0.35837 0.69267 0.0
C174 C 0.59314 0.38799 0.71762 0.0
C175 C 0.6105 0.37901 0.74953 0.0
C176 C 0.604 0.40516 0.77441 0.0
C177 C 0.58104 0.44116 0.76784 0.0
H178 H 0.5596 0.43247 0.68614 0.0
C179 C 0.56616 0.45079 0.73564 0.0
C180 C 0.57182 0.42435 0.71069 0.0
H181 H 0.54865 0.47841 0.72994 0.0
H182 H 0.59532 0.23323 0.64101 0.0
H183 H 0.59553 0.28434 0.67924 0.0
H184 H 0.5244 0.35804 0.60441 0.0
H185 H 0.52367 0.30598 0.56647 0.0
H186 H 0.52896 0.38088 0.6624 0.0
H187 H 0.63022 0.33524 0.697 0.0
H188 H 0.62768 0.35135 0.75547 0.0
H189 H 0.61675 0.39705 0.7989 0.0
C190 C 0.17255 0.35135 -0.00541 0.0
C191 C 0.1672 0.31455 0.98741 0.0
C192 C 0.21313 0.37036 0.97725 0.0
C193 C 0.24897 0.35277 0.95229 0.0
C194 C 0.24346 0.31586 0.94532 0.0
C195 C 0.20275 0.29699 0.9626 0.0
C196 C 0.2948 0.37119 0.93427 0.0
C197 C 0.29332 0.40767 0.93102 0.0
C198 C 0.34086 0.42535 0.9137 0.0
C199 C 0.32714 0.45965 0.89938 0.0
C200 C 0.37118 0.47703 0.88316 0.0
C201 C 0.42994 0.46068 0.8815 0.0
H202 H 0.41281 0.38333 0.92376 0.0
C203 C 0.4438 0.42652 0.89598 0.0
C204 C 0.3999 0.40912 0.91208 0.0
H205 H 0.48889 0.41345 0.89539 0.0
H206 H 0.14611 0.36513 0.01407 0.0
H207 H 0.21727 0.3984 0.9841 0.0
H208 H 0.27074 0.30155 0.92642 0.0
H209 H 0.19886 0.26864 0.95663 0.0
H210 H 0.33017 0.35368 0.92226 0.0
H211 H 0.25516 0.42522 0.94015 0.0
H212 H 0.28211 0.47284 0.90039 0.0
H213 H 0.35908 0.50294 0.87151 0.0
C214 C 0.95992 0.66074 0.02219 0.0
C215 C 0.94753 0.69868 0.01873 0.0
C216 C 0.92079 0.63692 0.00988 0.0
C217 C 0.86825 0.65087 -0.0056 0.0
C218 C 0.8559 0.68876 0.99128 0.0
C219 C 0.89548 0.71237 0.0029 0.0
C220 C 0.82427 0.62716 0.98185 0.0
C221 C 0.8388 0.59413 0.968 0.0
C222 C 0.79344 0.57568 0.95009 0.0
C223 C 0.8067 0.56185 0.91851 0.0
C224 C 0.76097 0.55278 0.89817 0.0
C225 C 0.70192 0.55632 0.90959 0.0
H226 H 0.72371 0.58616 0.9868 0.0
C227 C 0.68949 0.56683 0.9421 0.0
C228 C 0.73493 0.57626 0.9623 0.0
H229 H 0.64402 0.57019 0.95119 0.0
H230 H -0.00062 0.6496 0.03476 0.0
H231 H 0.93094 0.60783 0.01314 0.0
H232 H 0.81578 0.70017 0.97939 0.0
H233 H 0.88558 0.74143 -0.00058 0.0
H234 H 0.77845 0.63928 0.98073 0.0
H235 H 0.88519 0.58336 0.9656 0.0
H236 H 0.85148 0.5611 0.90862 0.0
H237 H 0.77115 0.54572 0.87285 0.0
C238 C 0.02998 0.34331 0.96377 0.0
C239 C 0.03636 0.33777 -0.00263 0.0
C240 C 0.99065 0.37203 0.95232 0.0
C241 C 0.95747 0.39585 0.9745 0.0
C242 C 0.96741 0.39141 0.00809 0.0
C243 C 0.00634 0.36261 0.0194 0.0
C244 C 0.90621 0.4217 0.96438 0.0
C245 C 0.89262 0.42971 0.93316 0.0
C246 C 0.83228 0.44503 0.92302 0.0
C247 C 0.82489 0.45965 0.89156 0.0
C248 C 0.76804 0.46713 0.87863 0.0
C249 C 0.71776 0.46011 0.89698 0.0
H250 H 0.78446 0.42777 0.96588 0.0
C251 C 0.7246 0.44731 0.92893 0.0
C252 C 0.78123 0.43997 0.94195 0.0
H253 H 0.68625 0.441 0.94316 0.0
H254 H 0.0528 0.32417 0.94653 0.0
H255 H 0.9842 0.37387 0.92627 0.0
H256 H 0.94267 0.40914 0.02579 0.0
H257 H 0.01125 0.3587 0.04545 0.0
H258 H 0.87566 0.43226 0.98366 0.0
H259 H 0.92491 0.4224 0.91381 0.0
H260 H 0.86326 0.46347 0.87632 0.0
H261 H 0.76355 0.4763 0.85362 0.0
C262 C 0.07146 0.68773 0.97404 0.0
C263 C 0.08083 0.69335 0.00736 0.0
C264 C 0.11114 0.66359 0.95592 0.0
C265 C 0.16086 0.64492 0.97103 0.0
C266 C 0.16751 0.64894 0.00486 0.0
C267 C 0.12809 0.67313 0.02281 0.0
C268 C 0.20892 0.62309 0.95234 0.0
C269 C 0.22335 0.6307 0.92128 0.0
C270 C 0.27996 0.6158 0.9051 0.0
C271 C 0.30352 0.63636 0.88026 0.0
C272 C 0.35936 0.62559 0.86652 0.0
C273 C 0.39256 0.59365 0.87699 0.0
H274 H 0.2952 0.56588 0.93325 0.0
C275 C 0.36836 0.57228 0.90099 0.0
C276 C 0.31236 0.58305 0.9148 0.0
H277 H 0.39354 0.54788 0.90988 0.0
H278 H 0.03484 0.70306 0.96189 0.0
H279 H 0.10343 0.66027 0.9301 0.0
H280 H 0.20496 0.63466 0.01719 0.0
H281 H 0.13541 0.67705 0.04863 0.0
H282 H 0.23815 0.60387 0.96611 0.0
H283 H 0.1968 0.65224 0.90857 0.0
H284 H 0.27952 0.66157 0.87217 0.0
H285 H 0.37689 0.64252 0.84793 0.0
C286 C 0.68178 0.83198 0.46754 0.0
C287 C 0.67781 0.82904 0.50158 0.0
C288 C 0.72312 0.85305 0.4533 0.0
C289 C 0.7612 0.87157 0.47301 0.0
C290 C 0.75613 0.86909 0.50711 0.0
C291 C 0.71449 0.84824 0.52128 0.0
C292 C 0.81037 0.89055 0.45894 0.0
C293 C 0.81036 0.90398 0.42844 0.0
C294 C 0.86362 0.91801 0.41347 0.0
C295 C 0.85664 0.94447 0.38893 0.0
C296 C 0.90641 0.95635 0.37314 0.0
C297 C 0.96385 0.94171 0.38151 0.0
H298 H 0.9285 0.88197 0.43962 0.0
C299 C 0.97085 0.91502 0.40578 0.0
C300 C 0.92134 0.90333 0.42167 0.0
H301 H 0.01475 0.90302 0.41237 0.0
H302 H 0.65418 0.817 0.452 0.0
H303 H 0.72673 0.85341 0.42693 0.0
H304 H 0.78508 0.8829 0.52284 0.0
H305 H 0.71138 0.84666 0.54762 0.0
H306 H 0.84839 0.89328 0.47443 0.0
H307 H 0.77043 0.90477 0.41389 0.0
H308 H 0.81264 0.95577 0.38181 0.0
H309 H 0.89995 0.97628 0.35387 0.0
C310 C 0.45799 0.15244 0.53439 0.0
C311 C 0.4978 0.17568 0.52167 0.0
C312 C 0.42205 0.13431 0.51351 0.0
C313 C 0.4253 0.13933 0.47948 0.0
C314 C 0.46656 0.1618 0.46684 0.0
C315 C 0.50215 0.18006 0.48777 0.0
C316 C 0.38551 0.12231 0.45658 0.0
C317 C 0.32985 0.11579 0.46503 0.0
C318 C 0.28636 0.10411 0.44128 0.0
C319 C 0.22594 0.11547 0.44668 0.0
C320 C 0.18345 0.10642 0.42446 0.0
C321 C 0.20034 0.08509 0.39675 0.0
H322 H 0.3495 0.07256 0.40906 0.0
C323 C 0.26056 0.07303 0.39147 0.0
C324 C 0.3034 0.08244 0.41359 0.0
H325 H 0.27455 0.05691 0.37002 0.0
H326 H 0.45503 0.14824 0.56047 0.0
H327 H 0.39213 0.1163 0.52408 0.0
H328 H 0.47016 0.16602 0.44076 0.0
H329 H 0.53247 0.19807 0.47757 0.0
H330 H 0.40026 0.11868 0.43131 0.0
H331 H 0.31321 0.12292 0.48948 0.0
H332 H 0.21161 0.13202 0.46786 0.0
H333 H 0.13716 0.11591 0.4291 0.0
C334 C 0.54437 0.87064 0.4976 0.0
C335 C 0.54615 0.83317 0.4907 0.0
C336 C 0.51104 0.89599 0.47814 0.0
C337 C 0.47945 0.88401 0.45138 0.0
C338 C 0.48268 0.84648 0.44426 0.0
C339 C 0.51534 0.82128 0.46389 0.0
C340 C 0.44259 0.90933 0.43013 0.0
C341 C 0.41516 0.94182 0.44006 0.0
C342 C 0.3685 0.96141 0.41974 0.0
C343 C 0.31576 0.97723 0.43473 0.0
C344 C 0.26532 0.98682 0.41595 0.0
C345 C 0.26766 0.98098 0.38206 0.0
H346 H 0.41314 0.94922 0.3731 0.0
C347 C 0.32207 0.96917 0.3668 0.0
C348 C 0.37239 0.95994 0.38545 0.0
H349 H 0.32464 0.96466 0.34062 0.0
H350 H 0.56838 0.88012 0.51819 0.0
H351 H 0.5106 0.92474 0.48389 0.0
H352 H 0.45911 0.83653 0.42367 0.0
H353 H 0.51706 0.79246 0.45808 0.0
H354 H 0.43224 0.89866 0.40628 0.0
H355 H 0.4201 0.95122 0.46499 0.0
H356 H 0.31196 0.97913 0.4611 0.0
H357 H 0.22351 0.99579 0.4281 0.0
C358 C 0.63158 0.13458 0.51741 0.0
C359 C 0.63045 0.17273 0.51844 0.0
C360 C 0.66674 0.11421 0.49405 0.0
C361 C 0.70085 0.13195 0.47128 0.0
C362 C 0.69875 0.1702 0.47228 0.0
C363 C 0.66412 0.19037 0.49571 0.0
C364 C 0.73827 0.11216 0.44559 0.0
C365 C 0.76228 0.07725 0.44773 0.0
C366 C 0.80754 0.06205 0.4234 0.0
C367 C 0.85842 0.04051 0.43396 0.0
C368 C 0.90795 0.03371 0.41309 0.0
C369 C 0.9066 0.04818 0.38147 0.0
H370 H 0.7646 0.08802 0.38126 0.0
C371 C 0.85357 0.0662 0.36987 0.0
C372 C 0.80414 0.07266 0.39051 0.0
H373 H 0.85151 0.07723 0.3454 0.0
H374 H 0.60506 0.12071 0.53462 0.0
H375 H 0.66618 0.08487 0.49352 0.0
H376 H 0.72416 0.18458 0.45487 0.0
H377 H 0.66266 0.21985 0.49579 0.0
H378 H 0.75109 0.12847 0.42514 0.0
H379 H 0.75507 0.06153 0.4695 0.0
H380 H 0.8617 0.03154 0.45906 0.0
H381 H 0.94859 0.01975 0.42247 0.0
loop_
_geom_bond_atom_site_label_1
_geom_bond_atom_site_label_2
_geom_bond_distance
_geom_bond_site_symmetry_2
_ccdc_geom_bond_type
C0 N1 1.317 . S
C0 N2 1.348 . S
C0 C3 1.485 . S
N1 C0 1.317 . S
N1 N5 1.370 . S
N2 C0 1.348 . S
N2 C4 1.346 . S
C3 C0 1.485 . S
C3 H7 0.960 . S
C3 H8 0.961 . S
C3 H9 0.960 . S
C4 N2 1.346 . S
C4 N5 1.307 . S
C4 C6 1.486 . S
N5 N1 1.370 . S
N5 C4 1.307 . S
C6 C4 1.486 . S
C6 H10 0.960 . S
C6 H11 0.960 . S
C6 H12 0.959 . S
H7 C3 0.960 . S
H8 C3 0.961 . S
H9 C3 0.960 . S
H10 C6 0.960 . S
H11 C6 0.960 . S
H12 C6 0.959 . S
C13 N14 1.317 . S
C13 N15 1.348 1_655 S
C13 C16 1.485 . S
N14 C13 1.317 . S
N14 N18 1.370 1_655 S
N15 C13 1.348 1_455 S
N15 C17 1.346 . S
C16 C13 1.485 . S
C16 H20 0.960 . S
C16 H21 0.961 . S
C16 H22 0.960 . S
C17 N15 1.346 . S
C17 N18 1.307 . S
C17 C19 1.486 . S
N18 N14 1.370 1_455 S
N18 C17 1.307 . S
C19 C17 1.486 . S
C19 H23 0.960 . S
C19 H24 0.960 . S
C19 H25 0.959 . S
H20 C16 0.960 . S
H21 C16 0.961 . S
H22 C16 0.960 . S
H23 C19 0.960 . S
H24 C19 0.960 . S
H25 C19 0.959 . S
C26 N27 1.317 . S
C26 N28 1.348 . S
C26 C29 1.485 . S
N27 C26 1.317 . S
N27 N31 1.370 . S
N28 C26 1.348 . S
N28 C30 1.346 . S
C29 C26 1.485 . S
C29 H33 0.960 . S
C29 H34 0.961 . S
C29 H35 0.960 . S
C30 N28 1.346 . S
C30 N31 1.307 . S
C30 C32 1.486 . S
N31 N27 1.370 . S
N31 C30 1.307 . S
C32 C30 1.486 . S
C32 H36 0.960 . S
C32 H37 0.960 . S
C32 H38 0.959 . S
H33 C29 0.960 . S
H34 C29 0.961 . S
H35 C29 0.960 . S
H36 C32 0.960 . S
H37 C32 0.960 . S
H38 C32 0.959 . S
C39 N40 1.317 . S
C39 N41 1.348 . S
C39 C42 1.485 . S
N40 C39 1.317 . S
N40 N44 1.370 . S
N41 C39 1.348 . S
N41 C43 1.346 . S
C42 C39 1.485 . S
C42 H46 0.960 . S
C42 H47 0.961 . S
C42 H48 0.960 . S
C43 N41 1.346 . S
C43 N44 1.307 . S
C43 C45 1.486 . S
N44 N40 1.370 . S
N44 C43 1.307 . S
C45 C43 1.486 . S
C45 H49 0.960 . S
C45 H50 0.960 . S
C45 H51 0.959 . S
H46 C42 0.960 . S
H47 C42 0.961 . S
H48 C42 0.960 . S
H49 C45 0.960 . S
H50 C45 0.960 . S
H51 C45 0.959 . S
Zn52 O58 1.920 . S
Zn52 O64 1.898 . S
Zn52 O67 1.905 1_455 S
Zn53 O61 1.905 . S
Zn53 O62 1.898 . S
Zn53 O70 1.920 . S
Zn54 O57 2.080 . S
Zn54 O60 2.114 1_545 S
Zn54 O63 2.120 1_545 S
Zn54 O65 2.120 . S
Zn54 O66 2.114 1_455 S
Zn54 O69 2.080 1_545 S
C55 O60 1.166 . S
C55 O61 1.182 . S
C56 O62 1.167 . S
C56 O63 1.299 . S
O57 Zn54 2.080 . S
O57 C71 1.305 . S
O58 Zn52 1.920 . S
O58 C71 1.234 . S
C59 O64 1.167 . S
C59 O65 1.299 . S
O60 Zn54 2.114 1_565 S
O60 C55 1.166 . S
O61 Zn53 1.905 . S
O61 C55 1.182 . S
O62 Zn53 1.898 . S
O62 C56 1.167 . S
O63 Zn54 2.120 1_565 S
O63 C56 1.299 . S
O64 Zn52 1.898 . S
O64 C59 1.167 . S
O65 Zn54 2.120 . S
O65 C59 1.299 . S
O66 Zn54 2.114 1_655 S
O66 C68 1.166 . S
O67 Zn52 1.905 1_655 S
O67 C68 1.182 . S
C68 O66 1.166 . S
C68 O67 1.182 . S
O69 Zn54 2.080 1_565 S
O69 C72 1.305 . S
O70 Zn53 1.920 . S
O70 C72 1.234 . S
C71 O57 1.305 . S
C71 O58 1.234 . S
C72 O69 1.305 . S
C72 O70 1.234 . S
Zn73 O79 1.920 . S
Zn73 O85 1.898 . S
Zn73 O88 1.905 . S
Zn74 O82 1.905 . S
Zn74 O83 1.898 . S
Zn74 O91 1.920 . S
Zn75 O78 2.080 . S
Zn75 O81 2.114 . S
Zn75 O84 2.120 . S
Zn75 O86 2.120 . S
Zn75 O87 2.114 . S
Zn75 O90 2.080 . S
C76 O81 1.166 . S
C76 O82 1.182 . S
C77 O83 1.167 . S
C77 O84 1.299 . S
O78 Zn75 2.080 . S
O78 C92 1.305 . S
O79 Zn73 1.920 . S
O79 C92 1.234 . S
C80 O85 1.167 . S
C80 O86 1.299 . S
O81 Zn75 2.114 . S
O81 C76 1.166 . S
O82 Zn74 1.905 . S
O82 C76 1.182 . S
O83 Zn74 1.898 . S
O83 C77 1.167 . S
O84 Zn75 2.120 . S
O84 C77 1.299 . S
O85 Zn73 1.898 . S
O85 C80 1.167 . S
O86 Zn75 2.120 . S
O86 C80 1.299 . S
O87 Zn75 2.114 . S
O87 C89 1.166 . S
O88 Zn73 1.905 . S
O88 C89 1.182 . S
C89 O87 1.166 . S
C89 O88 1.182 . S
O90 Zn75 2.080 . S
O90 C93 1.305 . S
O91 Zn74 1.920 . S
O91 C93 1.234 . S
C92 O78 1.305 . S
C92 O79 1.234 . S
C93 O90 1.305 . S
C93 O91 1.234 . S
C94 C95 1.386 . S
C94 C96 1.383 . S
C94 H110 0.951 . S
C95 C94 1.386 . S
C95 C99 1.383 . S
C96 C94 1.383 . S
C96 C97 1.402 . S
C96 H111 0.951 . S
C97 C96 1.402 . S
C97 C98 1.375 . S
C97 C100 1.481 . S
C98 C97 1.375 . S
C98 C99 1.367 . S
C98 H112 0.951 . S
C99 C95 1.383 . S
C99 C98 1.367 . S
C99 H113 0.950 . S
C100 C97 1.481 . S
C100 C101 1.297 . S
C100 H114 0.950 . S
C101 C100 1.297 . S
C101 C102 1.479 . S
C101 H115 0.950 . S
C102 C101 1.479 . S
C102 C103 1.375 . S
C102 C108 1.404 . S
C103 C102 1.375 . S
C103 C104 1.369 . S
C103 H116 0.950 . S
C104 C103 1.369 . S
C104 C105 1.392 . S
C104 H117 0.951 . S
C105 C104 1.392 . S
C105 C107 1.384 . S
H106 C108 0.949 . S
C107 C105 1.384 . S
C107 C108 1.385 . S
C107 H109 0.950 . S
C108 C102 1.404 . S
C108 H106 0.949 . S
C108 C107 1.385 . S
H109 C107 0.950 . S
H110 C94 0.951 . S
H111 C96 0.951 . S
H112 C98 0.951 . S
H113 C99 0.950 . S
H114 C100 0.950 . S
H115 C101 0.950 . S
H116 C103 0.950 . S
H117 C104 0.951 . S
C118 C119 1.386 . S
C118 C120 1.383 . S
C118 H134 0.951 . S
C119 C118 1.386 . S
C119 C123 1.383 1_455 S
C120 C118 1.383 . S
C120 C121 1.402 . S
C120 H135 0.951 . S
C121 C120 1.402 . S
C121 C122 1.375 1_455 S
C121 C124 1.481 . S
C122 C121 1.375 1_655 S
C122 C123 1.367 . S
C122 H136 0.951 . S
C123 C119 1.383 1_655 S
C123 C122 1.367 . S
C123 H137 0.950 . S
C124 C121 1.481 . S
C124 C125 1.297 . S
C124 H138 0.950 1_455 S
C125 C124 1.297 . S
C125 C126 1.479 . S
C125 H139 0.950 . S
C126 C125 1.479 . S
C126 C127 1.375 . S
C126 C132 1.404 . S
C127 C126 1.375 . S
C127 C128 1.369 . S
C127 H140 0.950 . S
C128 C127 1.369 . S
C128 C129 1.392 . S
C128 H141 0.951 . S
C129 C128 1.392 . S
C129 C131 1.384 . S
H130 C132 0.949 . S
C131 C129 1.384 . S
C131 C132 1.385 . S
C131 H133 0.950 . S
C132 C126 1.404 . S
C132 H130 0.949 . S
C132 C131 1.385 . S
H133 C131 0.950 . S
H134 C118 0.951 . S
H135 C120 0.951 . S
H136 C122 0.951 . S
H137 C123 0.950 . S
H138 C124 0.950 1_655 S
H139 C125 0.950 . S
H140 C127 0.950 . S
H141 C128 0.951 . S
C142 C143 1.386 . S
C142 C144 1.383 . S
C142 H158 0.951 . S
C143 C142 1.386 . S
C143 C147 1.383 . S
C144 C142 1.383 . S
C144 C145 1.402 . S
C144 H159 0.951 . S
C145 C144 1.402 . S
C145 C146 1.375 . S
C145 C148 1.481 . S
C146 C145 1.375 . S
C146 C147 1.367 . S
C146 H160 0.951 . S
C147 C143 1.383 . S
C147 C146 1.367 . S
C147 H161 0.950 . S
C148 C145 1.481 . S
C148 C149 1.297 . S
C148 H162 0.950 . S
C149 C148 1.297 . S
C149 C150 1.479 . S
C149 H163 0.950 . S
C150 C149 1.479 . S
C150 C151 1.375 . S
C150 C156 1.404 . S
C151 C150 1.375 . S
C151 C152 1.369 . S
C151 H164 0.950 . S
C152 C151 1.369 . S
C152 C153 1.392 . S
C152 H165 0.951 . S
C153 C152 1.392 . S
C153 C155 1.384 . S
H154 C156 0.949 . S
C155 C153 1.384 . S
C155 C156 1.385 . S
C155 H157 0.950 . S
C156 C150 1.404 . S
C156 H154 0.949 . S
C156 C155 1.385 . S
H157 C155 0.950 . S
H158 C142 0.951 . S
H159 C144 0.951 . S
H160 C146 0.951 . S
H161 C147 0.950 . S
H162 C148 0.950 . S
H163 C149 0.950 . S
H164 C151 0.950 . S
H165 C152 0.951 . S
C166 C167 1.386 . S
C166 C168 1.383 . S
C166 H182 0.951 . S
C167 C166 1.386 . S
C167 C171 1.383 . S
C168 C166 1.383 . S
C168 C169 1.402 . S
C168 H183 0.951 . S
C169 C168 1.402 . S
C169 C170 1.375 . S
C169 C172 1.481 . S
C170 C169 1.375 . S
C170 C171 1.367 . S
C170 H184 0.951 . S
C171 C167 1.383 . S
C171 C170 1.367 . S
C171 H185 0.950 . S
C172 C169 1.481 . S
C172 C173 1.297 . S
C172 H186 0.950 . S
C173 C172 1.297 . S
C173 C174 1.479 . S
C173 H187 0.950 . S
C174 C173 1.479 . S
C174 C175 1.375 . S
C174 C180 1.404 . S
C175 C174 1.375 . S
C175 C176 1.369 . S
C175 H188 0.950 . S
C176 C175 1.369 . S
C176 C177 1.392 . S
C176 H189 0.951 . S
C177 C176 1.392 . S
C177 C179 1.384 . S
H178 C180 0.949 . S
C179 C177 1.384 . S
C179 C180 1.385 . S
C179 H181 0.950 . S
C180 C174 1.404 . S
C180 H178 0.949 . S
C180 C179 1.385 . S
H181 C179 0.950 . S
H182 C166 0.951 . S
H183 C168 0.951 . S
H184 C170 0.951 . S
H185 C171 0.950 . S
H186 C172 0.950 . S
H187 C173 0.950 . S
H188 C175 0.950 . S
H189 C176 0.951 . S
C190 C191 1.386 1_554 S
C190 C192 1.383 1_554 S
C190 H206 0.951 . S
C191 C190 1.386 1_556 S
C191 C195 1.383 . S
C192 C190 1.383 1_556 S
C192 C193 1.402 . S
C192 H207 0.951 . S
C193 C192 1.402 . S
C193 C194 1.375 . S
C193 C196 1.481 . S
C194 C193 1.375 . S
C194 C195 1.367 . S
C194 H208 0.951 . S
C195 C191 1.383 . S
C195 C194 1.367 . S
C195 H209 0.950 . S
C196 C193 1.481 . S
C196 C197 1.297 . S
C196 H210 0.950 . S
C197 C196 1.297 . S
C197 C198 1.479 . S
C197 H211 0.950 . S
C198 C197 1.479 . S
C198 C199 1.375 . S
C198 C204 1.404 . S
C199 C198 1.375 . S
C199 C200 1.369 . S
C199 H212 0.950 . S
C200 C199 1.369 . S
C200 C201 1.392 . S
C200 H213 0.951 . S
C201 C200 1.392 . S
C201 C203 1.384 . S
H202 C204 0.949 . S
C203 C201 1.384 . S
C203 C204 1.385 . S
C203 H205 0.950 . S
C204 C198 1.404 . S
C204 H202 0.949 . S
C204 C203 1.385 . S
H205 C203 0.950 . S
H206 C190 0.951 . S
H207 C192 0.951 . S
H208 C194 0.951 . S
H209 C195 0.950 . S
H210 C196 0.950 . S
H211 C197 0.950 . S
H212 C199 0.950 . S
H213 C200 0.951 . S
C214 C215 1.386 1_556 S
C214 C216 1.383 . S
C214 H230 0.951 . S
C215 C214 1.386 1_554 S
C215 C219 1.383 . S
C216 C214 1.383 . S
C216 C217 1.402 . S
C216 H231 0.951 . S
C217 C216 1.402 . S
C217 C218 1.375 . S
C217 C220 1.481 . S
C218 C217 1.375 . S
C218 C219 1.367 1_556 S
C218 H232 0.951 1_556 S
C219 C215 1.383 . S
C219 C218 1.367 1_554 S
C219 H233 0.950 . S
C220 C217 1.481 . S
C220 C221 1.297 . S
C220 H234 0.950 . S
C221 C220 1.297 . S
C221 C222 1.479 . S
C221 H235 0.950 . S
C222 C221 1.479 . S
C222 C223 1.375 . S
C222 C228 1.404 . S
C223 C222 1.375 . S
C223 C224 1.369 . S
C223 H236 0.950 . S
C224 C223 1.369 . S
C224 C225 1.392 . S
C224 H237 0.951 . S
C225 C224 1.392 . S
C225 C227 1.384 . S
H226 C228 0.949 . S
C227 C225 1.384 . S
C227 C228 1.385 . S
C227 H229 0.950 . S
C228 C222 1.404 . S
C228 H226 0.949 . S
C228 C227 1.385 . S
H229 C227 0.950 . S
H230 C214 0.951 . S
H231 C216 0.951 . S
H232 C218 0.951 1_554 S
H233 C219 0.950 . S
H234 C220 0.950 . S
H235 C221 0.950 . S
H236 C223 0.950 . S
H237 C224 0.951 . S
C238 C239 1.386 . S
C238 C240 1.383 1_455 S
C238 H254 0.951 . S
C239 C238 1.386 . S
C239 C243 1.383 1_556 S
C240 C238 1.383 1_655 S
C240 C241 1.402 . S
C240 H255 0.951 . S
C241 C240 1.402 . S
C241 C242 1.365 1_556 S
C241 C244 1.481 . S
C242 C241 1.365 1_554 S
C242 C243 1.370 1_655 S
C242 H256 0.957 . S
C243 C239 1.383 1_554 S
C243 C242 1.370 1_455 S
C243 H257 0.950 . S
C244 C241 1.481 . S
C244 C245 1.297 . S
C244 H258 0.950 . S
C245 C244 1.297 . S
C245 C246 1.479 . S
C245 H259 0.950 . S
C246 C245 1.479 . S
C246 C247 1.375 . S
C246 C252 1.404 . S
C247 C246 1.375 . S
C247 C248 1.369 . S
C247 H260 0.950 . S
C248 C247 1.369 . S
C248 C249 1.392 . S
C248 H261 0.951 . S
C249 C248 1.392 . S
C249 C251 1.384 . S
H250 C252 0.949 . S
C251 C249 1.384 . S
C251 C252 1.385 . S
C251 H253 0.950 . S
C252 C246 1.404 . S
C252 H250 0.949 . S
C252 C251 1.385 . S
H253 C251 0.950 . S
H254 C238 0.951 . S
H255 C240 0.951 . S
H256 C242 0.957 . S
H257 C243 0.950 . S
H258 C244 0.950 . S
H259 C245 0.950 . S
H260 C247 0.950 . S
H261 C248 0.951 . S
C262 C263 1.386 . S
C262 C264 1.383 . S
C262 H278 0.951 . S
C263 C262 1.386 . S
C263 C267 1.383 1_556 S
C264 C262 1.383 . S
C264 C265 1.402 . S
C264 H279 0.951 . S
C265 C264 1.402 . S
C265 C266 1.375 . S
C265 C268 1.481 . S
C266 C265 1.375 . S
C266 C267 1.367 1_556 S
C266 H280 0.951 1_556 S
C267 C263 1.383 1_554 S
C267 C266 1.367 1_554 S
C267 H281 0.950 . S
C268 C265 1.481 . S
C268 C269 1.297 . S
C268 H282 0.950 . S
C269 C268 1.297 . S
C269 C270 1.479 . S
C269 H283 0.950 . S
C270 C269 1.479 . S
C270 C271 1.375 . S
C270 C276 1.404 . S
C271 C270 1.375 . S
C271 C272 1.369 . S
C271 H284 0.950 . S
C272 C271 1.369 . S
C272 C273 1.392 . S
C272 H285 0.951 . S
C273 C272 1.392 . S
C273 C275 1.384 . S
H274 C276 0.949 . S
C275 C273 1.384 . S
C275 C276 1.385 . S
C275 H277 0.950 . S
C276 C270 1.404 . S
C276 H274 0.949 . S
C276 C275 1.385 . S
H277 C275 0.950 . S
H278 C262 0.951 . S
H279 C264 0.951 . S
H280 C266 0.951 1_554 S
H281 C267 0.950 . S
H282 C268 0.950 . S
H283 C269 0.950 . S
H284 C271 0.950 . S
H285 C272 0.951 . S
C286 C287 1.386 . S
C286 C288 1.383 . S
C286 H302 0.951 . S
C287 C286 1.386 . S
C287 C291 1.383 . S
C288 C286 1.383 . S
C288 C289 1.402 . S
C288 H303 0.951 . S
C289 C288 1.402 . S
C289 C290 1.375 . S
C289 C292 1.481 . S
C290 C289 1.375 . S
C290 C291 1.367 . S
C290 H304 0.951 . S
C291 C287 1.383 . S
C291 C290 1.367 . S
C291 H305 0.950 . S
C292 C289 1.481 . S
C292 C293 1.297 . S
C292 H306 0.950 . S
C293 C292 1.297 . S
C293 C294 1.479 . S
C293 H307 0.950 . S
C294 C293 1.479 . S
C294 C295 1.375 . S
C294 C300 1.404 . S
C295 C294 1.375 . S
C295 C296 1.369 . S
C295 H308 0.950 . S
C296 C295 1.369 . S
C296 C297 1.392 . S
C296 H309 0.951 . S
C297 C296 1.392 . S
C297 C299 1.384 . S
H298 C300 0.949 . S
C299 C297 1.384 . S
C299 C300 1.385 . S
C299 H301 0.950 . S
C300 C294 1.404 . S
C300 H298 0.949 . S
C300 C299 1.385 . S
H301 C299 0.950 . S
H302 C286 0.951 . S
H303 C288 0.951 . S
H304 C290 0.951 . S
H305 C291 0.950 . S
H306 C292 0.950 . S
H307 C293 0.950 . S
H308 C295 0.950 . S
H309 C296 0.951 . S
C310 C311 1.386 . S
C310 C312 1.383 . S
C310 H326 0.951 . S
C311 C310 1.386 . S
C311 C315 1.383 . S
C312 C310 1.383 . S
C312 C313 1.402 . S
C312 H327 0.951 . S
C313 C312 1.402 . S
C313 C314 1.375 . S
C313 C316 1.481 . S
C314 C313 1.375 . S
C314 C315 1.367 . S
C314 H328 0.951 . S
C315 C311 1.383 . S
C315 C314 1.367 . S
C315 H329 0.950 . S
C316 C313 1.481 . S
C316 C317 1.297 . S
C316 H330 0.950 . S
C317 C316 1.297 . S
C317 C318 1.479 . S
C317 H331 0.950 . S
C318 C317 1.479 . S
C318 C319 1.375 . S
C318 C324 1.404 . S
C319 C318 1.375 . S
C319 C320 1.369 . S
C319 H332 0.950 . S
C320 C319 1.369 . S
C320 C321 1.392 . S
C320 H333 0.951 . S
C321 C320 1.392 . S
C321 C323 1.384 . S
H322 C324 0.949 . S
C323 C321 1.384 . S
C323 C324 1.385 . S
C323 H325 0.950 . S
C324 C318 1.404 . S
C324 H322 0.949 . S
C324 C323 1.385 . S
H325 C323 0.950 . S
H326 C310 0.951 . S
H327 C312 0.951 . S
H328 C314 0.951 . S
H329 C315 0.950 . S
H330 C316 0.950 . S
H331 C317 0.950 . S
H332 C319 0.950 . S
H333 C320 0.951 . S
C334 C335 1.386 . S
C334 C336 1.383 . S
C334 H350 0.951 . S
C335 C334 1.386 . S
C335 C339 1.383 . S
C336 C334 1.383 . S
C336 C337 1.402 . S
C336 H351 0.951 . S
C337 C336 1.402 . S
C337 C338 1.375 . S
C337 C340 1.481 . S
C338 C337 1.375 . S
C338 C339 1.367 . S
C338 H352 0.951 . S
C339 C335 1.383 . S
C339 C338 1.367 . S
C339 H353 0.950 . S
C340 C337 1.481 . S
C340 C341 1.297 . S
C340 H354 0.950 . S
C341 C340 1.297 . S
C341 C342 1.479 . S
C341 H355 0.950 . S
C342 C341 1.479 . S
C342 C343 1.375 . S
C342 C348 1.404 . S
C343 C342 1.375 . S
C343 C344 1.369 . S
C343 H356 0.950 . S
C344 C343 1.369 . S
C344 C345 1.392 . S
C344 H357 0.951 . S
C345 C344 1.392 . S
C345 C347 1.384 . S
H346 C348 0.949 . S
C347 C345 1.384 . S
C347 C348 1.385 . S
C347 H349 0.950 . S
C348 C342 1.404 . S
C348 H346 0.949 . S
C348 C347 1.385 . S
H349 C347 0.950 . S
H350 C334 0.951 . S
H351 C336 0.951 . S
H352 C338 0.951 . S
H353 C339 0.950 . S
H354 C340 0.950 . S
H355 C341 0.950 . S
H356 C343 0.950 . S
H357 C344 0.951 . S
C358 C359 1.386 . S
C358 C360 1.383 . S
C358 H374 0.951 . S
C359 C358 1.386 . S
C359 C363 1.383 . S
C360 C358 1.383 . S
C360 C361 1.402 . S
C360 H375 0.951 . S
C361 C360 1.402 . S
C361 C362 1.375 . S
C361 C364 1.481 . S
C362 C361 1.375 . S
C362 C363 1.367 . S
C362 H376 0.951 . S
C363 C359 1.383 . S
C363 C362 1.367 . S
C363 H377 0.950 . S
C364 C361 1.481 . S
C364 C365 1.297 . S
C364 H378 0.950 . S
C365 C364 1.297 . S
C365 C366 1.479 . S
C365 H379 0.950 . S
C366 C365 1.479 . S
C366 C367 1.375 . S
C366 C372 1.404 . S
C367 C366 1.375 . S
C367 C368 1.369 . S
C367 H380 0.950 . S
C368 C367 1.369 . S
C368 C369 1.392 . S
C368 H381 0.951 . S
C369 C368 1.392 . S
C369 C371 1.384 . S
H370 C372 0.949 . S
C371 C369 1.384 . S
C371 C372 1.385 . S
C371 H373 0.950 . S
C372 C366 1.404 . S
C372 H370 0.949 . S
C372 C371 1.385 . S
H373 C371 0.950 . S
H374 C358 0.951 . S
H375 C360 0.951 . S
H376 C362 0.951 . S
H377 C363 0.950 . S
H378 C364 0.950 . S
H379 C365 0.950 . S
H380 C367 0.950 . S
H381 C368 0.951 . S
C105 C59 1.330 . S
C95 N2 1.503 . S
C129 C55 1.404 . S
C119 N15 1.517 . S
C153 C80 1.339 . S
C143 N28 1.504 . S
C167 N41 1.515 . S
C177 C76 1.384 . S
C191 N5 1.224 1_556 S
C201 C77 1.129 . S
C225 C92 1.203 . S
C215 N14 1.223 . S
C239 N1 1.756 1_556 S
C249 C93 1.538 . S
C273 C89 1.573 . S
C263 N18 1.763 1_556 S
C297 C56 1.136 1_655 S
C287 N31 1.221 . S
C311 N40 1.259 . S
C321 C71 1.009 . S
C345 C72 1.670 . S
C335 N27 1.771 . S
C369 C68 1.674 . S
C359 N44 1.781 . S
