# Generated by pormake.
# Topology anh, (6,3)-cn, num edge types: 1
# Building blocks:
#     Node 0, Type 0, BuildingBlock: PAMTOO_clean_sbu_0, # of connection points: 6
#     Node 1, Type 0, BuildingBlock: PAMTOO_clean_sbu_0, # of connection points: 6
#     Node 2, Type 0, BuildingBlock: PAMTOO_clean_sbu_0, # of connection points: 6
#     Node 3, Type 1, BuildingBlock: BELTOD_clean_linker_0, # of connection points: 3
#     Node 4, Type 1, BuildingBlock: BELTOD_clean_linker_0, # of connection points: 3
#     Node 5, Type 1, BuildingBlock: BELTOD_clean_linker_0, # of connection points: 3
#     Node 6, Type 1, BuildingBlock: BELTOD_clean_linker_0, # of connection points: 3
#     Node 7, Type 1, BuildingBlock: BELTOD_clean_linker_0, # of connection points: 3
#     Node 8, Type 1, BuildingBlock: BELTOD_clean_linker_0, # of connection points: 3
#     Edge 9, Type (0, 1), BuildingBlock: CIFDUS_clean_linker_0, # of connection points: 2
#     Edge 10, Type (0, 1), BuildingBlock: CIFDUS_clean_linker_0, # of connection points: 2
#     Edge 11, Type (0, 1), BuildingBlock: CIFDUS_clean_linker_0, # of connection points: 2
#     Edge 12, Type (0, 1), BuildingBlock: CIFDUS_clean_linker_0, # of connection points: 2
#     Edge 13, Type (0, 1), BuildingBlock: CIFDUS_clean_linker_0, # of connection points: 2
#     Edge 14, Type (0, 1), BuildingBlock: CIFDUS_clean_linker_0, # of connection points: 2
#     Edge 15, Type (0, 1), BuildingBlock: CIFDUS_clean_linker_0, # of connection points: 2
#     Edge 16, Type (0, 1), BuildingBlock: CIFDUS_clean_linker_0, # of connection points: 2
#     Edge 17, Type (0, 1), BuildingBlock: CIFDUS_clean_linker_0, # of connection points: 2
#     Edge 18, Type (0, 1), BuildingBlock: CIFDUS_clean_linker_0, # of connection points: 2
#     Edge 19, Type (0, 1), BuildingBlock: CIFDUS_clean_linker_0, # of connection points: 2
#     Edge 20, Type (0, 1), BuildingBlock: CIFDUS_clean_linker_0, # of connection points: 2
#     Edge 21, Type (0, 1), BuildingBlock: CIFDUS_clean_linker_0, # of connection points: 2
#     Edge 22, Type (0, 1), BuildingBlock: CIFDUS_clean_linker_0, # of connection points: 2
#     Edge 23, Type (0, 1), BuildingBlock: CIFDUS_clean_linker_0, # of connection points: 2
#     Edge 24, Type (0, 1), BuildingBlock: CIFDUS_clean_linker_0, # of connection points: 2
#     Edge 25, Type (0, 1), BuildingBlock: CIFDUS_clean_linker_0, # of connection points: 2
#     Edge 26, Type (0, 1), BuildingBlock: CIFDUS_clean_linker_0, # of connection points: 2
# Relax obj value: 0.193
# Max RMSD: 0.199
# Mean RMSD: 0.153
data_MOF--net-anh--node1-PAMTOO_clean_sbu_0--node2-BELTOD_clean_linker_0--edge1-CIFDUS_clean_linker_0
_symmetry_space_group_name_H-M    P1
_symmetry_Int_Tables_number       1
_symmetry_cell_setting            triclinic
loop_
_symmetry_equiv_pos_as_xyz
'x, y, z'
_cell_length_a     30.429168
_cell_length_b     29.515462
_cell_length_c     54.640647
_cell_angle_alpha  89.188498
_cell_angle_beta   95.90179
_cell_angle_gamma 103.01404
loop_
_atom_site_label
_atom_site_type_symbol
_atom_site_fract_x
_atom_site_fract_y
_atom_site_fract_z
_atom_type_partial_charge
Dy0 Dy 1.05161 0.61539 0.14451 0.0
Dy1 Dy 1.0231 0.50232 0.13398 0.0
C2 C 1.03356 0.5761 0.09163 0.0
O3 O 0.97691 0.59716 0.15036 0.0
O4 O 0.95736 0.52489 0.13162 0.0
O5 O 0.07576 0.68354 0.12977 0.0
O6 O 1.06223 0.67612 0.16797 0.0
O7 O 1.01853 0.51352 0.174 0.0
O8 O 0.07314 0.58066 0.17848 0.0
O9 O 0.09883 0.51791 0.14081 0.0
O10 O 0.11621 0.59691 0.13475 0.0
O11 O 1.02982 0.43283 0.14353 0.0
O12 O 0.9832 0.44363 0.11244 0.0
C13 C 0.94601 0.5606 0.14142 0.0
O14 O 1.01729 0.60012 0.10688 0.0
O15 O 1.04568 0.53794 0.0993 0.0
C16 C 0.12682 0.73154 0.15843 0.0
C17 C 0.21667 0.78349 0.16797 0.0
C18 C 0.20705 0.73464 0.1684 0.0
C19 C 0.16255 0.70894 0.16374 0.0
C20 C 0.13598 0.78024 0.15841 0.0
C21 C 0.18063 0.80611 0.1633 0.0
C22 C 0.08086 0.70393 0.15123 0.0
C23 C 1.04899 0.54342 0.18793 0.0
C24 C 0.12856 0.55687 0.13747 0.0
C25 C 0.96156 0.37684 0.13663 0.0
C26 C 0.89771 0.30687 0.15784 0.0
C27 C 0.89548 0.35384 0.15934 0.0
C28 C 0.92732 0.38855 0.14895 0.0
C29 C 0.96342 0.33007 0.13468 0.0
C30 C 0.93183 0.29537 0.14521 0.0
C31 C 0.99702 0.4133 0.12717 0.0
H32 H 0.234 0.71623 0.17229 0.0
H33 H 0.1561 0.67133 0.16389 0.0
H34 H 0.10879 0.7982 0.15417 0.0
H35 H 0.1871 0.84371 0.16275 0.0
H36 H 0.86997 0.36388 0.16918 0.0
H37 H 0.92581 0.4246 0.15096 0.0
H38 H 0.98976 0.32043 0.12536 0.0
H39 H 0.93417 0.25949 0.14353 0.0
Dy40 Dy 0.53302 0.97735 0.51961 0.0
Dy41 Dy 0.64498 0.00375 0.52434 0.0
C42 C 0.59147 0.97986 0.57084 0.0
O43 O 0.55032 0.05493 0.51769 0.0
O44 O 0.62582 0.07036 0.53287 0.0
O45 O 0.47124 0.94773 0.53583 0.0
O46 O 0.46809 0.97601 0.49908 0.0
O47 O 0.62029 0.02708 0.48775 0.0
O48 O 0.55548 0.97041 0.48219 0.0
O49 O 0.62556 0.92795 0.51407 0.0
O50 O 0.55275 0.90923 0.52505 0.0
O51 O 0.70756 1.00206 0.50956 0.0
O52 O 0.70887 0.0342 0.54523 0.0
C53 C 0.58814 0.08409 0.52605 0.0
O54 O 0.55853 0.99598 0.55898 0.0
O55 O 0.62358 0.97001 0.55911 0.0
C56 C 0.41121 0.91004 0.50758 0.0
C57 C 0.3477 0.82639 0.49451 0.0
C58 C 0.34092 0.85473 0.51359 0.0
C59 C 0.37236 0.89624 0.52001 0.0
C60 C 0.41804 0.88201 0.48841 0.0
C61 C 0.38639 0.84068 0.48183 0.0
C62 C 0.44537 0.95218 0.51583 0.0
C63 C 0.58768 1.00146 0.47313 0.0
C64 C 0.58935 0.89699 0.51929 0.0
C65 C 0.76767 0.06627 0.52087 0.0
C66 C 0.83734 0.1388 0.50641 0.0
C67 C 0.79268 0.133 0.49511 0.0
C68 C 0.75809 0.09706 0.50232 0.0
C69 C 0.81171 0.07276 0.53268 0.0
C70 C 0.84622 0.10873 0.52558 0.0
C71 C 0.73254 0.02663 0.52772 0.0
H72 H 0.31128 0.84477 0.52356 0.0
H73 H 0.36666 0.9173 0.53495 0.0
H74 H 0.44814 0.89165 0.47879 0.0
H75 H 0.39279 0.81926 0.46725 0.0
H76 H 0.78472 0.15525 0.48016 0.0
H77 H 0.72412 0.09271 0.49309 0.0
H78 H 0.81956 0.04956 0.5472 0.0
H79 H 0.88001 0.11273 0.53498 0.0
Dy80 Dy 0.62299 0.47621 0.85129 0.0
Dy81 Dy 0.51525 0.44843 0.83199 0.0
C82 C 0.58985 0.47196 0.79474 0.0
O83 O 0.59927 0.54248 0.85404 0.0
O84 O 0.53485 0.52526 0.82696 0.0
O85 O 0.67579 0.5027 0.8802 0.0
O86 O 0.69297 0.48056 0.84535 0.0
O87 O 0.52339 0.47219 0.87147 0.0
O88 O 0.58554 0.44324 0.88209 0.0
O89 O 0.5325 0.38034 0.84191 0.0
O90 O 0.60974 0.40102 0.84065 0.0
O91 O 0.44569 0.42227 0.83955 0.0
O92 O 0.46118 0.44244 0.80261 0.0
C93 C 0.56668 0.5555 0.83993 0.0
O94 O 0.61608 0.49757 0.81223 0.0
O95 O 0.55324 0.4416 0.79972 0.0
C96 C 0.74171 0.54658 0.8646 0.0
C97 C 0.80742 0.63005 0.86196 0.0
C98 C 0.76403 0.63085 0.86829 0.0
C99 C 0.73128 0.58946 0.86941 0.0
C100 C 0.7847 0.54585 0.85784 0.0
C101 C 0.81727 0.58725 0.85644 0.0
C102 C 0.70798 0.50256 0.86615 0.0
C103 C 0.55044 0.45723 0.88839 0.0
C104 C 0.57184 0.36919 0.84124 0.0
C105 C 0.39779 0.46355 0.81686 0.0
C106 C 0.3451 0.52916 0.82268 0.0
C107 C 0.38095 0.53908 0.80775 0.0
C108 C 0.4072 0.50675 0.80497 0.0
C109 C 0.3603 0.45242 0.83049 0.0
C110 C 0.33425 0.48495 0.83346 0.0
C111 C 0.42974 0.4326 0.81761 0.0
H112 H 0.7556 0.66343 0.87253 0.0
H113 H 0.69802 0.59102 0.87427 0.0
H114 H 0.79325 0.51318 0.85389 0.0
H115 H 0.85068 0.58565 0.85183 0.0
H116 H 0.38969 0.57245 0.79884 0.0
H117 H 0.43595 0.51647 0.79432 0.0
H118 H 0.35253 0.41943 0.83988 0.0
H119 H 0.30717 0.4763 0.84529 0.0
P120 P 0.61158 0.99106 0.24508 0.0
H121 H 0.56179 0.89991 0.22687 0.0
H122 H 0.4829 0.86931 0.21164 0.0
H123 H 0.45703 0.007 0.21613 0.0
H124 H 0.53634 0.03708 0.23233 0.0
H125 H 0.69036 0.05958 0.26628 0.0
H126 H 0.73843 0.12807 0.24924 0.0
H127 H 0.64864 0.11022 0.18181 0.0
H128 H 0.60083 0.04177 0.19894 0.0
H129 H 0.60575 0.91809 0.28155 0.0
H130 H 0.6001 0.06273 0.27927 0.0
O131 O 0.64234 0.95271 0.23975 0.0
H132 H 0.59174 0.91486 0.32483 0.0
H133 H 0.58594 0.0598 0.32274 0.0
C134 C 0.55518 0.97099 0.23008 0.0
C135 C 0.53945 0.92376 0.22409 0.0
C136 C 0.49417 0.90629 0.2153 0.0
C137 C 0.4635 0.93571 0.21239 0.0
C138 C 0.47959 0.98329 0.21824 0.0
C139 C 0.52501 1.00068 0.22722 0.0
C140 C 0.64128 0.04632 0.23419 0.0
C141 C 0.68039 0.07111 0.24807 0.0
C142 C 0.7081 0.10995 0.23821 0.0
C143 C 0.69734 0.12457 0.21417 0.0
C144 C 0.65749 0.10028 0.20051 0.0
C145 C 0.63 0.06118 0.21034 0.0
C146 C 0.60539 0.99102 0.27747 0.0
C147 C 0.6021 0.94936 0.29049 0.0
C148 C 0.59352 0.9474 0.31515 0.0
C149 C 0.58778 0.98708 0.32722 0.0
C150 C 0.59081 0.02881 0.31403 0.0
C151 C 0.59907 0.0306 0.28924 0.0
P152 P 0.67179 0.50828 0.57382 0.0
H153 H 0.69944 0.46839 0.53101 0.0
H154 H 0.68484 0.38802 0.51623 0.0
H155 H 0.58126 0.34828 0.56584 0.0
H156 H 0.59525 0.42857 0.58005 0.0
H157 H 0.72621 0.60215 0.5761 0.0
H158 H 0.71416 0.67599 0.56008 0.0
H159 H 0.58235 0.60695 0.5256 0.0
H160 H 0.59487 0.53206 0.54203 0.0
H161 H 0.70958 0.4746 0.61973 0.0
H162 H 0.59195 0.52746 0.59437 0.0
O163 O 0.72792 0.51378 0.57726 0.0
H164 H 0.68421 0.46405 0.66075 0.0
H165 H 0.56622 0.51695 0.63566 0.0
C166 C 0.64901 0.45454 0.5569 0.0
C167 C 0.6725 0.44269 0.53808 0.0
C168 C 0.66448 0.39656 0.52986 0.0
C169 C 0.63265 0.36139 0.54029 0.0
C170 C 0.60607 0.37432 0.55741 0.0
C171 C 0.61417 0.42049 0.56563 0.0
C172 C 0.66197 0.56134 0.55973 0.0
C173 C 0.69498 0.6025 0.56473 0.0
C174 C 0.68806 0.6449 0.55549 0.0
C175 C 0.64758 0.64746 0.5412 0.0
C176 C 0.61399 0.60616 0.53647 0.0
C177 C 0.62118 0.56334 0.54568 0.0
C178 C 0.65329 0.50299 0.6042 0.0
C179 C 0.67856 0.48455 0.62308 0.0
C180 C 0.66399 0.47846 0.64653 0.0
C181 C 0.62346 0.49011 0.65148 0.0
C182 C 0.59758 0.50766 0.63236 0.0
C183 C 0.61245 0.5141 0.60886 0.0
P184 P 0.18006 0.82313 0.91543 0.0
H185 H 0.23754 0.84507 0.87529 0.0
H186 H 0.28012 0.79842 0.8542 0.0
H187 H 0.25032 0.69042 0.90803 0.0
H188 H 0.20945 0.73687 0.92929 0.0
H189 H 0.10881 0.87516 0.90992 0.0
H190 H 1.03381 0.8574 0.88658 0.0
H191 H 1.07086 0.74537 0.8493 0.0
H192 H 0.14512 0.76386 0.87199 0.0
H193 H 0.19435 0.84313 0.96865 0.0
H194 H 0.11521 0.73483 0.91973 0.0
O195 O 0.20511 0.87821 0.9228 0.0
H196 H 0.16296 0.79982 0.00393 0.0
H197 H 0.08401 0.69156 0.95478 0.0
C198 C 0.2199 0.79438 0.90371 0.0
C199 C 0.24128 0.81189 0.88289 0.0
C200 C 0.26532 0.78527 0.87082 0.0
C201 C 0.2676 0.74071 0.87936 0.0
C202 C 0.24829 0.72445 0.90094 0.0
C203 C 0.22489 0.75117 0.91311 0.0
C204 C 0.1327 0.82114 0.89261 0.0
C205 C 0.10131 0.84814 0.89592 0.0
C206 C 1.05835 0.83768 0.88271 0.0
C207 C 1.04605 0.79959 0.86626 0.0
C208 C 0.07915 0.77534 0.8615 0.0
C209 C 0.12196 0.7859 0.87463 0.0
C210 C 0.15663 0.79254 0.94158 0.0
C211 C 0.17009 0.81026 0.96548 0.0
C212 C 0.15216 0.7855 0.98558 0.0
C213 C 0.12105 0.74234 0.98204 0.0
C214 C 0.10814 0.72452 0.95806 0.0
C215 C 0.12562 0.7495 0.93802 0.0
P216 P 0.125 0.44121 0.40924 0.0
H217 H 0.19037 0.47592 0.45133 0.0
H218 H 0.22758 0.55462 0.46579 0.0
H219 H 0.14195 0.61104 0.41121 0.0
H220 H 0.1051 0.5323 0.39679 0.0
H221 H 0.08574 0.3427 0.40601 0.0
H222 H 1.02519 0.29173 0.4258 0.0
H223 H 1.00477 0.40949 0.46571 0.0
H224 H 1.06515 0.46065 0.44527 0.0
H225 H 0.1755 0.46592 0.36698 0.0
H226 H 1.03504 0.42993 0.38111 0.0
O227 O 0.16818 0.41465 0.4112 0.0
H228 H 0.15272 0.47726 0.32353 0.0
H229 H 1.01196 0.44141 0.33759 0.0
C230 C 0.14575 0.49836 0.42267 0.0
C231 C 0.17917 0.50522 0.44274 0.0
C232 C 0.20027 0.55023 0.45105 0.0
C233 C 0.18815 0.58911 0.4394 0.0
C234 C 0.15264 0.58183 0.42024 0.0
C235 C 0.13144 0.5368 0.41204 0.0
C236 C 0.08036 0.40517 0.42451 0.0
C237 C 1.06837 0.35751 0.41912 0.0
C238 C 1.03387 0.3284 0.43054 0.0
C239 C 1.01054 0.34641 0.44762 0.0
C240 C 1.02205 0.39456 0.45262 0.0
C241 C 1.05673 0.42378 0.4411 0.0
C242 C 0.10699 0.44633 0.37713 0.0
C243 C 0.13973 0.46001 0.36065 0.0
C244 C 0.12667 0.46679 0.33589 0.0
C245 C 0.08053 0.46021 0.32717 0.0
C246 C 1.04771 0.44615 0.34373 0.0
C247 C 1.06088 0.43963 0.36859 0.0
P248 P 0.64798 0.98201 0.79931 0.0
H249 H 0.69659 0.04488 0.83881 0.0
H250 H 0.68565 0.11902 0.85318 0.0
H251 H 0.55547 0.09519 0.80964 0.0
H252 H 0.56574 0.01985 0.79653 0.0
H253 H 0.70621 0.92373 0.82211 0.0
H254 H 0.69132 0.84426 0.83657 0.0
H255 H 0.54713 0.83566 0.82319 0.0
H256 H 0.56268 0.91587 0.80792 0.0
H257 H 0.63361 0.0549 0.7649 0.0
H258 H 0.61225 0.90534 0.76348 0.0
O259 O 0.7039 0.99759 0.79792 0.0
H260 H 0.60778 0.05431 0.72115 0.0
H261 H 0.58693 0.90473 0.71947 0.0
C262 C 0.63265 0.02759 0.81598 0.0
C263 C 0.6651 0.05498 0.83294 0.0
C264 C 0.65899 0.09774 0.84091 0.0
C265 C 0.62042 0.11411 0.83187 0.0
C266 C 0.58577 0.08411 0.81691 0.0
C267 C 0.59167 0.04093 0.80928 0.0
C268 C 0.63555 0.92579 0.81382 0.0
C269 C 0.67131 0.90518 0.82253 0.0
C270 C 0.66268 0.85951 0.831 0.0
C271 C 0.61796 0.8332 0.83109 0.0
C272 C 0.58201 0.8546 0.82313 0.0
C273 C 0.59077 0.90057 0.81461 0.0
C274 C 0.62325 0.98004 0.76778 0.0
C275 C 0.62206 0.02177 0.75538 0.0
C276 C 0.60737 0.02146 0.73032 0.0
C277 C 0.59487 0.97945 0.71696 0.0
C278 C 0.59614 0.9376 0.72937 0.0
C279 C 0.61032 0.93792 0.75457 0.0
P280 P 0.52769 0.53117 0.11198 0.0
H281 H 0.58797 0.49603 0.14932 0.0
H282 H 0.66999 0.51417 0.15865 0.0
H283 H 0.68036 0.63469 0.11207 0.0
H284 H 0.59745 0.61652 0.10304 0.0
H285 H 0.46654 0.50428 0.15042 0.0
H286 H 0.39412 0.52181 0.15708 0.0
H287 H 0.41308 0.62732 0.10117 0.0
H288 H 0.48644 0.61012 0.09501 0.0
H289 H 0.4528 0.52331 0.07235 0.0
H290 H 0.59657 0.52956 0.07817 0.0
O291 O 0.51533 0.4751 0.11961 0.0
H292 H 0.44872 0.51346 0.0278 0.0
H293 H 0.59278 0.52073 0.03386 0.0
C294 C 0.58603 0.55456 0.12521 0.0
C295 C 0.6075 0.5271 0.14151 0.0
C296 C 0.65486 0.53722 0.14663 0.0
C297 C 0.68242 0.57525 0.13563 0.0
C298 C 0.66057 0.60502 0.12089 0.0
C299 C 0.61292 0.59484 0.1158 0.0
C300 C 0.48201 0.55529 0.12191 0.0
C301 C 0.4558 0.53197 0.13993 0.0
C302 C 0.41379 0.54166 0.1435 0.0
C303 C 0.39662 0.57514 0.1292 0.0
C304 C 0.42474 0.60116 0.11253 0.0
C305 C 0.46701 0.59146 0.10901 0.0
C306 C 0.52545 0.52983 0.07873 0.0
C307 C 0.48382 0.52427 0.06408 0.0
C308 C 0.48141 0.51831 0.03855 0.0
C309 C 0.52045 0.51658 0.0272 0.0
C310 C 0.56199 0.52174 0.04196 0.0
C311 C 0.56433 0.5277 0.06741 0.0
H312 H 0.20426 0.62821 0.13216 0.0
H313 H 0.16337 0.47935 0.14074 0.0
H314 H 0.241 0.47242 0.13926 0.0
H315 H 0.32065 0.50722 0.13492 0.0
H316 H 0.36396 0.65564 0.12665 0.0
H317 H 0.28592 0.66372 0.12836 0.0
C318 C 0.21228 0.59425 0.13371 0.0
C319 C 0.17724 0.5544 0.13654 0.0
C320 C 0.25777 0.5902 0.13282 0.0
C321 C 0.18893 0.51081 0.13854 0.0
C322 C 0.23364 0.50667 0.13769 0.0
C323 C 0.31341 0.54155 0.13382 0.0
C324 C 0.34883 0.58073 0.13078 0.0
C325 C 0.26836 0.54599 0.13483 0.0
C326 C 0.3378 0.62465 0.12879 0.0
C327 C 0.29299 0.62935 0.12987 0.0
H328 H 0.83721 0.22825 0.49237 0.0
H329 H 0.92228 0.12882 0.49986 0.0
H330 H 0.98376 0.18514 0.48385 0.0
H331 H 1.01272 0.26128 0.46635 0.0
H332 H 0.92754 0.36024 0.45688 0.0
H333 H 0.86697 0.30563 0.4752 0.0
C334 C 0.86914 0.21887 0.4904 0.0
C335 C 0.87502 0.1743 0.49739 0.0
C336 C 0.90439 0.25133 0.48084 0.0
C337 C 0.91692 0.16302 0.49503 0.0
C338 C 0.95207 0.19511 0.48569 0.0
C339 C 0.9808 0.27086 0.46814 0.0
C340 C 0.97456 0.31463 0.46004 0.0
C341 C 0.94605 0.23915 0.47834 0.0
C342 C 0.93337 0.32688 0.46309 0.0
C343 C 0.89861 0.29554 0.47341 0.0
H344 H 0.62276 0.62867 0.86566 0.0
H345 H 0.51117 0.59587 0.80847 0.0
H346 H 0.51518 0.67846 0.80181 0.0
H347 H 0.55381 0.76014 0.81006 0.0
H348 H 0.66374 0.79309 0.86811 0.0
H349 H 0.65697 0.71053 0.87637 0.0
C350 C 0.59908 0.6395 0.85184 0.0
C351 C 0.56704 0.60584 0.83745 0.0
C352 C 0.60146 0.68725 0.84807 0.0
C353 C 0.53641 0.62078 0.81978 0.0
C354 C 0.53867 0.66815 0.8159 0.0
C355 C 0.5757 0.74945 0.82487 0.0
C356 C 0.60964 0.7831 0.83818 0.0
C357 C 0.5715 0.70173 0.82967 0.0
C358 C 0.63793 0.76815 0.85715 0.0
C359 C 0.63398 0.72084 0.862 0.0
H360 H 0.8998 0.63161 0.14499 0.0
H361 H 0.87892 0.48242 0.13876 0.0
H362 H 0.79758 0.47411 0.13704 0.0
H363 H 0.73132 0.50809 0.13568 0.0
H364 H 0.74899 0.6568 0.14109 0.0
H365 H 0.83157 0.66616 0.14437 0.0
C366 C 0.87746 0.59731 0.14347 0.0
C367 C 0.89616 0.55775 0.14199 0.0
C368 C 0.82966 0.59252 0.14209 0.0
C369 C 0.86617 0.51366 0.13981 0.0
C370 C 0.81927 0.50873 0.13882 0.0
C371 C 0.75304 0.54265 0.13796 0.0
C372 C 0.73335 0.58159 0.1383 0.0
C373 C 0.80053 0.5478 0.13973 0.0
C374 C 0.7627 0.62604 0.14061 0.0
C375 C 0.81015 0.63143 0.1426 0.0
H376 H 0.31176 0.79235 0.44904 0.0
H377 H 0.31095 0.75954 0.52618 0.0
H378 H 0.25993 0.68406 0.51612 0.0
H379 H 0.21764 0.62616 0.48526 0.0
H380 H 0.21902 0.6591 0.40811 0.0
H381 H 0.26726 0.73573 0.4183 0.0
C382 C 0.30045 0.76859 0.46362 0.0
C383 C 0.31526 0.78141 0.4883 0.0
C384 C 0.2711 0.72529 0.45771 0.0
C385 C 0.29977 0.75061 0.50704 0.0
C386 C 0.27077 0.70737 0.5013 0.0
C387 C 0.2285 0.65016 0.4707 0.0
C388 C 0.21473 0.63686 0.44597 0.0
C389 C 0.25651 0.69416 0.47668 0.0
C390 C 0.22862 0.66861 0.42731 0.0
C391 C 0.25652 0.71234 0.43311 0.0
H392 H 0.64582 0.33239 0.83877 0.0
H393 H 0.50141 0.29314 0.84335 0.0
H394 H 0.50383 0.21109 0.84221 0.0
H395 H 0.5467 0.15017 0.83894 0.0
H396 H 0.69064 0.19053 0.83272 0.0
H397 H 0.68855 0.27198 0.83607 0.0
C398 C 0.61481 0.306 0.83958 0.0
C399 C 0.57349 0.3192 0.84104 0.0
C400 C 0.61634 0.25879 0.83882 0.0
C401 C 0.53375 0.28423 0.84213 0.0
C402 C 0.53507 0.23716 0.8415 0.0
C403 C 0.57762 0.17672 0.83828 0.0
C404 C 0.61879 0.16373 0.83576 0.0
C405 C 0.57614 0.22398 0.83967 0.0
C406 C 0.65855 0.19897 0.83522 0.0
C407 C 0.65738 0.24583 0.83685 0.0
H408 H 0.6595 0.85707 0.51103 0.0
H409 H 0.52226 0.82366 0.53096 0.0
H410 H 0.52674 0.74293 0.53762 0.0
H411 H 0.57168 0.6828 0.5411 0.0
H412 H 0.7087 0.71636 0.52106 0.0
H413 H 0.70208 0.79555 0.51117 0.0
C414 C 0.63035 0.83211 0.51658 0.0
C415 C 0.59078 0.84687 0.52068 0.0
C416 C 0.63317 0.78555 0.52058 0.0
C417 C 0.55335 0.81367 0.52777 0.0
C418 C 0.55584 0.76732 0.53164 0.0
C419 C 0.59978 0.70717 0.53412 0.0
C420 C 0.64081 0.69364 0.53214 0.0
C421 C 0.59587 0.75299 0.52856 0.0
C422 C 0.67698 0.72595 0.52322 0.0
C423 C 0.67321 0.77131 0.51748 0.0
H424 H 0.8654 0.6619 0.8277 0.0
H425 H 0.83095 0.69377 0.89912 0.0
H426 H 0.89914 0.75619 0.90484 0.0
H427 H 0.97396 0.79175 0.89261 0.0
H428 H 1.00956 0.76013 0.82133 0.0
H429 H 0.93519 0.70771 0.81239 0.0
C430 C 0.87258 0.68313 0.84431 0.0
C431 C 0.84374 0.67294 0.86312 0.0
C432 C 0.91214 0.71856 0.8476 0.0
C433 C 0.85274 0.70102 0.88439 0.0
C434 C 0.89185 0.7365 0.88773 0.0
C435 C 0.96503 0.77488 0.87471 0.0
C436 C 0.99769 0.77925 0.85785 0.0
C437 C 0.92259 0.74434 0.86986 0.0
C438 C 0.98538 0.75662 0.83485 0.0
C439 C 0.94291 0.72657 0.82975 0.0
H440 H 0.25069 0.85984 0.19733 0.0
H441 H 0.28964 0.76719 0.14756 0.0
H442 H 0.36893 0.80811 0.15562 0.0
H443 H 0.42744 0.86816 0.17789 0.0
H444 H 0.3894 0.95854 0.22936 0.0
H445 H 0.30953 0.92168 0.2189 0.0
C446 C 0.27652 0.84902 0.18806 0.0
C447 C 0.26436 0.81037 0.17201 0.0
C448 C 0.3222 0.87245 0.19297 0.0
C449 C 0.29823 0.79644 0.16027 0.0
C450 C 0.34354 0.81993 0.16478 0.0
C451 C 0.40176 0.87973 0.18694 0.0
C452 C 0.41464 0.91597 0.2045 0.0
C453 C 0.35598 0.85756 0.18135 0.0
C454 C 0.38064 0.93113 0.21556 0.0
C455 C 0.33489 0.90975 0.20977 0.0
H456 H 0.66151 0.1571 0.52992 0.0
H457 H 0.51534 0.12444 0.52548 0.0
H458 H 0.51582 0.20709 0.52852 0.0
H459 H 0.55793 0.28893 0.53332 0.0
H460 H 0.70409 0.32081 0.53741 0.0
H461 H 0.70323 0.23857 0.53319 0.0
C462 C 0.62971 0.16798 0.52969 0.0
C463 C 0.58848 0.13442 0.52768 0.0
C464 C 0.63016 0.21564 0.53117 0.0
C465 C 0.54762 0.14939 0.52704 0.0
C466 C 0.54784 0.19672 0.52879 0.0
C467 C 0.58957 0.27787 0.53324 0.0
C468 C 0.63098 0.31128 0.53558 0.0
C469 C 0.58893 0.2302 0.53098 0.0
C470 C 0.67163 0.29619 0.5352 0.0
C471 C 0.67124 0.24899 0.53304 0.0
H472 H 0.38338 0.6205 0.83228 0.0
H473 H 0.25494 0.5206 0.82758 0.0
H474 H 0.21919 0.57868 0.84352 0.0
H475 H 0.22589 0.65573 0.86178 0.0
H476 H 0.35336 0.75627 0.86558 0.0
H477 H 0.38806 0.70023 0.84629 0.0
C478 C 0.34731 0.61166 0.83412 0.0
C479 C 0.32198 0.56604 0.82897 0.0
C480 C 0.32697 0.64522 0.84322 0.0
C481 C 0.27541 0.55515 0.83185 0.0
C482 C 0.2549 0.58837 0.84088 0.0
C483 C 0.26118 0.66532 0.85815 0.0
C484 C 0.28741 0.7095 0.86527 0.0
C485 C 0.28062 0.63308 0.84717 0.0
C486 C 0.33279 0.72223 0.86023 0.0
C487 C 0.35254 0.69021 0.84934 0.0
H488 H 0.80603 0.2956 0.15751 0.0
H489 H 0.91766 0.23572 0.18594 0.0
H490 H 0.86585 0.17501 0.20624 0.0
H491 H 0.78882 0.13821 0.21553 0.0
H492 H 0.67664 0.19697 0.18692 0.0
H493 H 0.72858 0.25883 0.16714 0.0
C494 C 0.819 0.26941 0.16829 0.0
C495 C 0.86566 0.27014 0.17012 0.0
C496 C 0.78891 0.2344 0.17988 0.0
C497 C 0.88186 0.23563 0.18394 0.0
C498 C 0.85228 0.20104 0.19567 0.0
C499 C 0.7758 0.16489 0.20522 0.0
C500 C 0.72895 0.16314 0.20283 0.0
C501 C 0.80576 0.20001 0.19373 0.0
C502 C 0.71252 0.19741 0.18895 0.0
C503 C 0.74222 0.23284 0.17769 0.0
H504 H 1.03301 0.66404 0.07758 0.0
H505 H 1.06478 0.53781 0.05309 0.0
H506 H 0.09349 0.5779 0.01635 0.0
H507 H 0.11298 0.65032 0.9924 0.0
H508 H 0.08453 0.77659 0.01902 0.0
H509 H 1.0516 0.73494 0.05407 0.0
C510 C 1.04571 0.64489 0.06414 0.0
C511 C 1.04652 0.59783 0.06805 0.0
C512 C 1.06332 0.66842 0.04364 0.0
C513 C 1.06358 0.57397 0.05047 0.0
C514 C 0.08019 0.59696 0.02955 0.0
C515 C 0.09927 0.66852 0.00584 0.0
C516 C 0.10127 0.71649 0.00322 0.0
C517 C 0.08079 0.64439 0.02613 0.0
C518 C 0.08385 0.73984 0.02083 0.0
C519 C 1.06479 0.716 0.04076 0.0
H520 H 0.53975 0.94331 0.43632 0.0
H521 H 0.63922 0.0725 0.44944 0.0
H522 H 0.64619 0.08057 0.40554 0.0
H523 H 0.62728 0.04927 0.36354 0.0
H524 H 0.52939 0.91942 0.35002 0.0
H525 H 0.51875 0.91325 0.3938 0.0
C526 C 0.56263 0.9734 0.42953 0.0
C527 C 0.58902 0.00708 0.44621 0.0
C528 C 0.56706 0.97761 0.40416 0.0
C529 C 0.61867 0.04581 0.43709 0.0
C530 C 0.62273 0.05054 0.41193 0.0
C531 C 0.60316 0.01996 0.37013 0.0
C532 C 0.5793 0.98483 0.35356 0.0
C533 C 0.59754 0.01641 0.39533 0.0
C534 C 0.5486 0.94668 0.36246 0.0
C535 C 0.54238 0.94321 0.38748 0.0
H536 H 0.53582 0.44566 0.75183 0.0
H537 H 0.67233 0.51241 0.78046 0.0
H538 H 0.69426 0.52424 0.73886 0.0
H539 H 0.67516 0.51603 0.69439 0.0
H540 H 0.53895 0.45101 0.66495 0.0
H541 H 0.51624 0.43872 0.70673 0.0
C542 C 0.57037 0.46259 0.74892 0.0
C543 C 0.60238 0.47797 0.76925 0.0
C544 C 0.58277 0.4699 0.7248 0.0
C545 C 0.64693 0.50033 0.76518 0.0
C546 C 0.65959 0.50712 0.74137 0.0
C547 C 0.64055 0.49894 0.69713 0.0
C548 C 0.60887 0.48418 0.67665 0.0
C549 C 0.62784 0.4921 0.72108 0.0
C550 C 0.56391 0.46291 0.68045 0.0
C551 C 0.551 0.45565 0.70432 0.0
H552 H 0.54649 0.01539 0.60408 0.0
H553 H 0.64028 0.92696 0.59796 0.0
H554 H 0.64673 0.91633 0.64232 0.0
H555 H 0.62935 0.93534 0.6831 0.0
H556 H 0.53834 0.02609 0.69013 0.0
H557 H 0.52709 0.03255 0.64527 0.0
C558 C 0.56803 0.99354 0.61247 0.0
C559 C 0.59304 0.97226 0.59771 0.0
C560 C 0.57221 0.98807 0.63818 0.0
C561 C 0.62097 0.94416 0.60887 0.0
C562 C 0.62464 0.93792 0.63427 0.0
C563 C 0.60642 0.95586 0.67479 0.0
C564 C 0.58455 0.98002 0.68985 0.0
C565 C 0.60088 0.96011 0.64912 0.0
C566 C 0.55566 0.00728 0.67886 0.0
C567 C 0.54924 0.01098 0.65324 0.0
H568 H 0.49886 0.50646 0.91057 0.0
H569 H 0.5896 0.41392 0.92591 0.0
H570 H 0.58688 0.42285 0.9699 0.0
H571 H 0.56172 0.45923 0.00414 0.0
H572 H 0.47299 0.55382 0.98966 0.0
H573 H 0.4714 0.54126 0.94535 0.0
C574 C 0.51758 0.48786 0.92355 0.0
C575 C 0.54454 0.45972 0.9149 0.0
C576 C 0.51643 0.49365 0.94902 0.0
C577 C 0.5688 0.43604 0.932 0.0
C578 C 0.56732 0.44113 0.95722 0.0
C579 C 0.54226 0.47741 0.99131 0.0
C580 C 0.51792 0.50782 0.00025 0.0
C581 C 0.54189 0.4704 0.96594 0.0
C582 C 0.49194 0.53009 0.98332 0.0
C583 C 0.49118 0.52308 0.95796 0.0
H584 H 1.00717 0.4704 0.215 0.0
H585 H 0.11154 0.59728 0.22083 0.0
H586 H 0.12954 0.58295 0.26418 0.0
H587 H 0.11711 0.53423 0.30037 0.0
H588 H 1.01347 0.40729 0.29547 0.0
H589 H 0.99338 0.42213 0.25198 0.0
C590 C 1.03373 0.49497 0.22578 0.0
C591 C 1.05801 0.53475 0.21455 0.0
C592 C 1.04408 0.48659 0.2509 0.0
C593 C 0.09226 0.56629 0.22886 0.0
C594 C 0.1027 0.55817 0.25372 0.0
C595 C 0.09032 0.50964 0.28974 0.0
C596 C 1.06711 0.46954 0.30103 0.0
C597 C 0.07911 0.51833 0.26487 0.0
C598 C 1.03175 0.43853 0.28719 0.0
C599 C 1.0204 0.4469 0.26231 0.0
loop_
_geom_bond_atom_site_label_1
_geom_bond_atom_site_label_2
_geom_bond_distance
_geom_bond_site_symmetry_2
_ccdc_geom_bond_type
Dy0 O3 2.307 1_455 S
Dy0 O5 2.395 . S
Dy0 O6 2.379 . S
Dy0 O8 2.339 . S
Dy0 O10 2.298 . S
Dy0 O14 2.275 . S
Dy0 C22 2.738 . S
Dy1 O4 2.298 . S
Dy1 O7 2.275 1_655 S
Dy1 O9 2.307 1_655 S
Dy1 O11 2.395 . S
Dy1 O12 2.379 . S
Dy1 O15 2.339 . S
Dy1 C31 2.738 . S
C2 O14 1.254 . S
C2 O15 1.257 1_455 S
O3 Dy0 2.307 1_655 S
O3 C13 1.266 . S
O4 Dy1 2.298 . S
O4 C13 1.236 . S
O5 Dy0 2.395 . S
O5 C22 1.255 . S
O6 Dy0 2.379 . S
O6 C22 1.249 . S
O7 Dy1 2.275 1_455 S
O7 C23 1.254 . S
O8 Dy0 2.339 . S
O8 C23 1.257 . S
O9 Dy1 2.307 1_455 S
O9 C24 1.266 . S
O10 Dy0 2.298 . S
O10 C24 1.236 . S
O11 Dy1 2.395 . S
O11 C31 1.255 . S
O12 Dy1 2.379 . S
O12 C31 1.249 . S
C13 O3 1.266 . S
C13 O4 1.236 . S
O14 Dy0 2.275 . S
O14 C2 1.254 . S
O15 Dy1 2.339 . S
O15 C2 1.257 1_655 S
C16 C19 1.344 . S
C16 C20 1.328 . S
C16 C22 1.516 . S
C17 C18 1.304 . S
C17 C21 1.323 . S
C18 C17 1.304 . S
C18 C19 1.371 . S
C18 H32 0.930 . S
C19 C16 1.344 . S
C19 C18 1.371 . S
C19 H33 0.931 . S
C20 C16 1.328 . S
C20 C21 1.433 . S
C20 H34 0.931 . S
C21 C17 1.323 . S
C21 C20 1.433 . S
C21 H35 0.933 . S
C22 Dy0 2.738 . S
C22 O5 1.255 . S
C22 O6 1.249 . S
C22 C16 1.516 . S
C23 O7 1.254 . S
C23 O8 1.257 . S
C24 O9 1.266 . S
C24 O10 1.236 . S
C25 C28 1.344 . S
C25 C29 1.328 . S
C25 C31 1.516 . S
C26 C27 1.304 . S
C26 C30 1.323 . S
C27 C26 1.304 . S
C27 C28 1.371 . S
C27 H36 0.930 . S
C28 C25 1.344 . S
C28 C27 1.371 . S
C28 H37 0.931 . S
C29 C25 1.328 . S
C29 C30 1.433 . S
C29 H38 0.931 . S
C30 C26 1.323 . S
C30 C29 1.433 . S
C30 H39 0.933 . S
C31 Dy1 2.738 . S
C31 O11 1.255 . S
C31 O12 1.249 . S
C31 C25 1.516 . S
H32 C18 0.930 . S
H33 C19 0.931 . S
H34 C20 0.931 . S
H35 C21 0.933 . S
H36 C27 0.930 . S
H37 C28 0.931 . S
H38 C29 0.931 . S
H39 C30 0.933 . S
Dy40 O43 2.307 1_565 S
Dy40 O45 2.395 . S
Dy40 O46 2.379 . S
Dy40 O48 2.339 1_565 S
Dy40 O50 2.298 . S
Dy40 O54 2.275 1_565 S
Dy40 C62 2.738 . S
Dy41 O44 2.298 . S
Dy41 O47 2.275 . S
Dy41 O49 2.307 1_545 S
Dy41 O51 2.395 . S
Dy41 O52 2.379 . S
Dy41 O55 2.339 . S
Dy41 C71 2.738 . S
C42 O54 1.254 . S
C42 O55 1.257 . S
O43 Dy40 2.307 1_545 S
O43 C53 1.266 . S
O44 Dy41 2.298 . S
O44 C53 1.236 . S
O45 Dy40 2.395 . S
O45 C62 1.255 . S
O46 Dy40 2.379 . S
O46 C62 1.249 . S
O47 Dy41 2.275 . S
O47 C63 1.254 . S
O48 Dy40 2.339 1_545 S
O48 C63 1.257 . S
O49 Dy41 2.307 1_565 S
O49 C64 1.266 . S
O50 Dy40 2.298 . S
O50 C64 1.236 . S
O51 Dy41 2.395 . S
O51 C71 1.255 . S
O52 Dy41 2.379 . S
O52 C71 1.249 . S
C53 O43 1.266 . S
C53 O44 1.236 . S
O54 Dy40 2.275 1_545 S
O54 C42 1.254 . S
O55 Dy41 2.339 . S
O55 C42 1.257 . S
C56 C59 1.344 . S
C56 C60 1.328 . S
C56 C62 1.516 . S
C57 C58 1.304 . S
C57 C61 1.323 . S
C58 C57 1.304 . S
C58 C59 1.371 . S
C58 H72 0.930 . S
C59 C56 1.344 . S
C59 C58 1.371 . S
C59 H73 0.931 . S
C60 C56 1.328 . S
C60 C61 1.433 . S
C60 H74 0.931 . S
C61 C57 1.323 . S
C61 C60 1.433 . S
C61 H75 0.933 . S
C62 Dy40 2.738 . S
C62 O45 1.255 . S
C62 O46 1.249 . S
C62 C56 1.516 . S
C63 O47 1.254 . S
C63 O48 1.257 . S
C64 O49 1.266 . S
C64 O50 1.236 . S
C65 C68 1.344 . S
C65 C69 1.328 . S
C65 C71 1.516 . S
C66 C67 1.304 . S
C66 C70 1.323 . S
C67 C66 1.304 . S
C67 C68 1.371 . S
C67 H76 0.930 . S
C68 C65 1.344 . S
C68 C67 1.371 . S
C68 H77 0.931 . S
C69 C65 1.328 . S
C69 C70 1.433 . S
C69 H78 0.931 . S
C70 C66 1.323 . S
C70 C69 1.433 . S
C70 H79 0.933 . S
C71 Dy41 2.738 . S
C71 O51 1.255 . S
C71 O52 1.249 . S
C71 C65 1.516 . S
H72 C58 0.930 . S
H73 C59 0.931 . S
H74 C60 0.931 . S
H75 C61 0.933 . S
H76 C67 0.930 . S
H77 C68 0.931 . S
H78 C69 0.931 . S
H79 C70 0.933 . S
Dy80 O83 2.307 . S
Dy80 O85 2.395 . S
Dy80 O86 2.379 . S
Dy80 O88 2.339 . S
Dy80 O90 2.298 . S
Dy80 O94 2.275 . S
Dy80 C102 2.738 . S
Dy81 O84 2.298 . S
Dy81 O87 2.275 . S
Dy81 O89 2.307 . S
Dy81 O91 2.395 . S
Dy81 O92 2.379 . S
Dy81 O95 2.339 . S
Dy81 C111 2.738 . S
C82 O94 1.254 . S
C82 O95 1.257 . S
O83 Dy80 2.307 . S
O83 C93 1.266 . S
O84 Dy81 2.298 . S
O84 C93 1.236 . S
O85 Dy80 2.395 . S
O85 C102 1.255 . S
O86 Dy80 2.379 . S
O86 C102 1.249 . S
O87 Dy81 2.275 . S
O87 C103 1.254 . S
O88 Dy80 2.339 . S
O88 C103 1.257 . S
O89 Dy81 2.307 . S
O89 C104 1.266 . S
O90 Dy80 2.298 . S
O90 C104 1.236 . S
O91 Dy81 2.395 . S
O91 C111 1.255 . S
O92 Dy81 2.379 . S
O92 C111 1.249 . S
C93 O83 1.266 . S
C93 O84 1.236 . S
O94 Dy80 2.275 . S
O94 C82 1.254 . S
O95 Dy81 2.339 . S
O95 C82 1.257 . S
C96 C99 1.344 . S
C96 C100 1.328 . S
C96 C102 1.516 . S
C97 C98 1.304 . S
C97 C101 1.323 . S
C98 C97 1.304 . S
C98 C99 1.371 . S
C98 H112 0.930 . S
C99 C96 1.344 . S
C99 C98 1.371 . S
C99 H113 0.931 . S
C100 C96 1.328 . S
C100 C101 1.433 . S
C100 H114 0.931 . S
C101 C97 1.323 . S
C101 C100 1.433 . S
C101 H115 0.933 . S
C102 Dy80 2.738 . S
C102 O85 1.255 . S
C102 O86 1.249 . S
C102 C96 1.516 . S
C103 O87 1.254 . S
C103 O88 1.257 . S
C104 O89 1.266 . S
C104 O90 1.236 . S
C105 C108 1.344 . S
C105 C109 1.328 . S
C105 C111 1.516 . S
C106 C107 1.304 . S
C106 C110 1.323 . S
C107 C106 1.304 . S
C107 C108 1.371 . S
C107 H116 0.930 . S
C108 C105 1.344 . S
C108 C107 1.371 . S
C108 H117 0.931 . S
C109 C105 1.328 . S
C109 C110 1.433 . S
C109 H118 0.931 . S
C110 C106 1.323 . S
C110 C109 1.433 . S
C110 H119 0.933 . S
C111 Dy81 2.738 . S
C111 O91 1.255 . S
C111 O92 1.249 . S
C111 C105 1.516 . S
H112 C98 0.930 . S
H113 C99 0.931 . S
H114 C100 0.931 . S
H115 C101 0.933 . S
H116 C107 0.930 . S
H117 C108 0.931 . S
H118 C109 0.931 . S
H119 C110 0.933 . S
P120 O131 1.490 1_545 S
P120 C134 1.812 1_545 S
P120 C140 1.803 . S
P120 C146 1.819 . S
H121 C135 0.941 . S
H122 C136 0.939 . S
H123 C138 0.940 . S
H124 C139 0.940 . S
H125 C141 0.939 . S
H126 C142 0.942 . S
H127 C144 0.940 . S
H128 C145 0.939 . S
H129 C147 0.941 . S
H130 C151 0.939 . S
O131 P120 1.490 1_565 S
H132 C148 0.939 . S
H133 C150 0.940 . S
C134 P120 1.812 1_565 S
C134 C135 1.389 . S
C134 C139 1.391 1_565 S
C135 H121 0.941 . S
C135 C134 1.389 . S
C135 C136 1.397 . S
C136 H122 0.939 . S
C136 C135 1.397 . S
C136 C137 1.378 . S
C137 C136 1.378 . S
C137 C138 1.378 . S
C138 H123 0.940 . S
C138 C137 1.378 . S
C138 C139 1.396 1_565 S
C139 H124 0.940 . S
C139 C134 1.391 1_545 S
C139 C138 1.396 1_545 S
C140 P120 1.803 . S
C140 C141 1.378 . S
C140 C145 1.400 . S
C141 H125 0.939 . S
C141 C140 1.378 . S
C141 C142 1.361 . S
C142 H126 0.942 . S
C142 C141 1.361 . S
C142 C143 1.369 . S
C143 C142 1.369 . S
C143 C144 1.404 . S
C144 H127 0.940 . S
C144 C143 1.404 . S
C144 C145 1.389 . S
C145 H128 0.939 . S
C145 C140 1.400 . S
C145 C144 1.389 . S
C146 P120 1.819 . S
C146 C147 1.391 1_545 S
C146 C151 1.391 . S
C147 H129 0.941 . S
C147 C146 1.391 1_565 S
C147 C148 1.396 . S
C148 H132 0.939 . S
C148 C147 1.396 . S
C148 C149 1.397 1_565 S
C149 C148 1.397 1_545 S
C149 C150 1.385 . S
C150 H133 0.940 . S
C150 C149 1.385 . S
C150 C151 1.388 . S
C151 H130 0.939 . S
C151 C146 1.391 . S
C151 C150 1.388 . S
P152 O163 1.490 . S
P152 C166 1.812 . S
P152 C172 1.803 . S
P152 C178 1.819 . S
H153 C167 0.941 . S
H154 C168 0.939 . S
H155 C170 0.940 . S
H156 C171 0.940 . S
H157 C173 0.939 . S
H158 C174 0.942 . S
H159 C176 0.940 . S
H160 C177 0.939 . S
H161 C179 0.941 . S
H162 C183 0.939 . S
O163 P152 1.490 . S
H164 C180 0.939 . S
H165 C182 0.940 . S
C166 P152 1.812 . S
C166 C167 1.389 . S
C166 C171 1.391 . S
C167 H153 0.941 . S
C167 C166 1.389 . S
C167 C168 1.397 . S
C168 H154 0.939 . S
C168 C167 1.397 . S
C168 C169 1.378 . S
C169 C168 1.378 . S
C169 C170 1.378 . S
C170 H155 0.940 . S
C170 C169 1.378 . S
C170 C171 1.396 . S
C171 H156 0.940 . S
C171 C166 1.391 . S
C171 C170 1.396 . S
C172 P152 1.803 . S
C172 C173 1.378 . S
C172 C177 1.400 . S
C173 H157 0.939 . S
C173 C172 1.378 . S
C173 C174 1.361 . S
C174 H158 0.942 . S
C174 C173 1.361 . S
C174 C175 1.369 . S
C175 C174 1.369 . S
C175 C176 1.404 . S
C176 H159 0.940 . S
C176 C175 1.404 . S
C176 C177 1.389 . S
C177 H160 0.939 . S
C177 C172 1.400 . S
C177 C176 1.389 . S
C178 P152 1.819 . S
C178 C179 1.391 . S
C178 C183 1.391 . S
C179 H161 0.941 . S
C179 C178 1.391 . S
C179 C180 1.396 . S
C180 H164 0.939 . S
C180 C179 1.396 . S
C180 C181 1.397 . S
C181 C180 1.397 . S
C181 C182 1.385 . S
C182 H165 0.940 . S
C182 C181 1.385 . S
C182 C183 1.388 . S
C183 H162 0.939 . S
C183 C178 1.391 . S
C183 C182 1.388 . S
P184 O195 1.490 . S
P184 C198 1.812 . S
P184 C204 1.803 1_455 S
P184 C210 1.819 . S
H185 C199 0.941 . S
H186 C200 0.939 . S
H187 C202 0.940 . S
H188 C203 0.940 . S
H189 C205 0.939 . S
H190 C206 0.942 . S
H191 C208 0.940 . S
H192 C209 0.939 . S
H193 C211 0.941 . S
H194 C215 0.939 . S
O195 P184 1.490 . S
H196 C212 0.939 . S
H197 C214 0.940 . S
C198 P184 1.812 . S
C198 C199 1.389 . S
C198 C203 1.391 . S
C199 H185 0.941 . S
C199 C198 1.389 . S
C199 C200 1.397 . S
C200 H186 0.939 . S
C200 C199 1.397 . S
C200 C201 1.378 . S
C201 C200 1.378 . S
C201 C202 1.378 . S
C202 H187 0.940 . S
C202 C201 1.378 . S
C202 C203 1.396 . S
C203 H188 0.940 . S
C203 C198 1.391 . S
C203 C202 1.396 . S
C204 P184 1.803 1_655 S
C204 C205 1.378 . S
C204 C209 1.400 . S
C205 H189 0.939 . S
C205 C204 1.378 . S
C205 C206 1.361 . S
C206 H190 0.942 . S
C206 C205 1.361 . S
C206 C207 1.369 . S
C207 C206 1.369 . S
C207 C208 1.404 . S
C208 H191 0.940 . S
C208 C207 1.404 . S
C208 C209 1.389 . S
C209 H192 0.939 . S
C209 C204 1.400 . S
C209 C208 1.389 . S
C210 P184 1.819 . S
C210 C211 1.391 . S
C210 C215 1.391 1_455 S
C211 H193 0.941 . S
C211 C210 1.391 . S
C211 C212 1.396 . S
C212 H196 0.939 . S
C212 C211 1.396 . S
C212 C213 1.397 . S
C213 C212 1.397 . S
C213 C214 1.385 1_455 S
C214 H197 0.940 . S
C214 C213 1.385 1_655 S
C214 C215 1.388 . S
C215 H194 0.939 . S
C215 C210 1.391 1_655 S
C215 C214 1.388 . S
P216 O227 1.490 . S
P216 C230 1.812 . S
P216 C236 1.803 1_455 S
P216 C242 1.819 . S
H217 C231 0.941 . S
H218 C232 0.939 . S
H219 C234 0.940 . S
H220 C235 0.940 . S
H221 C237 0.939 . S
H222 C238 0.942 . S
H223 C240 0.940 . S
H224 C241 0.939 . S
H225 C243 0.941 . S
H226 C247 0.939 . S
O227 P216 1.490 . S
H228 C244 0.939 . S
H229 C246 0.940 . S
C230 P216 1.812 . S
C230 C231 1.389 . S
C230 C235 1.391 . S
C231 H217 0.941 . S
C231 C230 1.389 . S
C231 C232 1.397 . S
C232 H218 0.939 . S
C232 C231 1.397 . S
C232 C233 1.378 . S
C233 C232 1.378 . S
C233 C234 1.378 . S
C234 H219 0.940 . S
C234 C233 1.378 . S
C234 C235 1.396 . S
C235 H220 0.940 . S
C235 C230 1.391 . S
C235 C234 1.396 . S
C236 P216 1.803 1_655 S
C236 C237 1.378 . S
C236 C241 1.400 . S
C237 H221 0.939 . S
C237 C236 1.378 . S
C237 C238 1.361 . S
C238 H222 0.942 . S
C238 C237 1.361 . S
C238 C239 1.369 . S
C239 C238 1.369 . S
C239 C240 1.404 . S
C240 H223 0.940 . S
C240 C239 1.404 . S
C240 C241 1.389 . S
C241 H224 0.939 . S
C241 C236 1.400 . S
C241 C240 1.389 . S
C242 P216 1.819 . S
C242 C243 1.391 . S
C242 C247 1.391 1_455 S
C243 H225 0.941 . S
C243 C242 1.391 . S
C243 C244 1.396 . S
C244 H228 0.939 . S
C244 C243 1.396 . S
C244 C245 1.397 . S
C245 C244 1.397 . S
C245 C246 1.385 1_455 S
C246 H229 0.940 . S
C246 C245 1.385 1_655 S
C246 C247 1.388 . S
C247 H226 0.939 . S
C247 C242 1.391 1_655 S
C247 C246 1.388 . S
P248 O259 1.490 . S
P248 C262 1.812 . S
P248 C268 1.803 1_545 S
P248 C274 1.819 . S
H249 C263 0.941 . S
H250 C264 0.939 . S
H251 C266 0.940 . S
H252 C267 0.940 . S
H253 C269 0.939 . S
H254 C270 0.942 . S
H255 C272 0.940 . S
H256 C273 0.939 . S
H257 C275 0.941 . S
H258 C279 0.939 . S
O259 P248 1.490 . S
H260 C276 0.939 . S
H261 C278 0.940 . S
C262 P248 1.812 . S
C262 C263 1.389 . S
C262 C267 1.391 . S
C263 H249 0.941 . S
C263 C262 1.389 . S
C263 C264 1.397 . S
C264 H250 0.939 . S
C264 C263 1.397 . S
C264 C265 1.378 . S
C265 C264 1.378 . S
C265 C266 1.378 . S
C266 H251 0.940 . S
C266 C265 1.378 . S
C266 C267 1.396 . S
C267 H252 0.940 . S
C267 C262 1.391 . S
C267 C266 1.396 . S
C268 P248 1.803 1_565 S
C268 C269 1.378 . S
C268 C273 1.400 . S
C269 H253 0.939 . S
C269 C268 1.378 . S
C269 C270 1.361 . S
C270 H254 0.942 . S
C270 C269 1.361 . S
C270 C271 1.369 . S
C271 C270 1.369 . S
C271 C272 1.404 . S
C272 H255 0.940 . S
C272 C271 1.404 . S
C272 C273 1.389 . S
C273 H256 0.939 . S
C273 C268 1.400 . S
C273 C272 1.389 . S
C274 P248 1.819 . S
C274 C275 1.391 . S
C274 C279 1.391 1_545 S
C275 H257 0.941 . S
C275 C274 1.391 . S
C275 C276 1.396 . S
C276 H260 0.939 . S
C276 C275 1.396 . S
C276 C277 1.397 . S
C277 C276 1.397 . S
C277 C278 1.385 1_545 S
C278 H261 0.940 . S
C278 C277 1.385 1_565 S
C278 C279 1.388 . S
C279 H258 0.939 . S
C279 C274 1.391 1_565 S
C279 C278 1.388 . S
P280 O291 1.490 . S
P280 C294 1.812 . S
P280 C300 1.803 . S
P280 C306 1.819 . S
H281 C295 0.941 . S
H282 C296 0.939 . S
H283 C298 0.940 . S
H284 C299 0.940 . S
H285 C301 0.939 . S
H286 C302 0.942 . S
H287 C304 0.940 . S
H288 C305 0.939 . S
H289 C307 0.941 . S
H290 C311 0.939 . S
O291 P280 1.490 . S
H292 C308 0.939 . S
H293 C310 0.940 . S
C294 P280 1.812 . S
C294 C295 1.389 . S
C294 C299 1.391 . S
C295 H281 0.941 . S
C295 C294 1.389 . S
C295 C296 1.397 . S
C296 H282 0.939 . S
C296 C295 1.397 . S
C296 C297 1.378 . S
C297 C296 1.378 . S
C297 C298 1.378 . S
C298 H283 0.940 . S
C298 C297 1.378 . S
C298 C299 1.396 . S
C299 H284 0.940 . S
C299 C294 1.391 . S
C299 C298 1.396 . S
C300 P280 1.803 . S
C300 C301 1.378 . S
C300 C305 1.400 . S
C301 H285 0.939 . S
C301 C300 1.378 . S
C301 C302 1.361 . S
C302 H286 0.942 . S
C302 C301 1.361 . S
C302 C303 1.369 . S
C303 C302 1.369 . S
C303 C304 1.404 . S
C304 H287 0.940 . S
C304 C303 1.404 . S
C304 C305 1.389 . S
C305 H288 0.939 . S
C305 C300 1.400 . S
C305 C304 1.389 . S
C306 P280 1.819 . S
C306 C307 1.391 . S
C306 C311 1.391 . S
C307 H289 0.941 . S
C307 C306 1.391 . S
C307 C308 1.396 . S
C308 H292 0.939 . S
C308 C307 1.396 . S
C308 C309 1.397 . S
C309 C308 1.397 . S
C309 C310 1.385 . S
C310 H293 0.940 . S
C310 C309 1.385 . S
C310 C311 1.388 . S
C311 H290 0.939 . S
C311 C306 1.391 . S
C311 C310 1.388 . S
H312 C318 0.930 . S
H313 C321 0.930 . S
H314 C322 0.930 . S
H315 C323 0.930 . S
H316 C326 0.930 . S
H317 C327 0.930 . S
C318 H312 0.930 . S
C318 C319 1.355 . S
C318 C320 1.415 . S
C319 C318 1.355 . S
C319 C321 1.419 . S
C320 C318 1.415 . S
C320 C325 1.425 . S
C320 C327 1.409 . S
C321 H313 0.930 . S
C321 C319 1.419 . S
C321 C322 1.362 . S
C322 H314 0.930 . S
C322 C321 1.362 . S
C322 C325 1.409 . S
C323 H315 0.930 . S
C323 C324 1.355 . S
C323 C325 1.415 . S
C324 C323 1.355 . S
C324 C326 1.419 . S
C325 C320 1.425 . S
C325 C322 1.409 . S
C325 C323 1.415 . S
C326 H316 0.930 . S
C326 C324 1.419 . S
C326 C327 1.362 . S
C327 H317 0.930 . S
C327 C320 1.409 . S
C327 C326 1.362 . S
H328 C334 0.930 . S
H329 C337 0.930 . S
H330 C338 0.930 . S
H331 C339 0.930 . S
H332 C342 0.930 . S
H333 C343 0.930 . S
C334 H328 0.930 . S
C334 C335 1.355 . S
C334 C336 1.415 . S
C335 C334 1.355 . S
C335 C337 1.419 . S
C336 C334 1.415 . S
C336 C341 1.425 . S
C336 C343 1.409 . S
C337 H329 0.930 . S
C337 C335 1.419 . S
C337 C338 1.362 . S
C338 H330 0.930 . S
C338 C337 1.362 . S
C338 C341 1.409 . S
C339 H331 0.930 . S
C339 C340 1.355 . S
C339 C341 1.415 . S
C340 C339 1.355 . S
C340 C342 1.419 . S
C341 C336 1.425 . S
C341 C338 1.409 . S
C341 C339 1.415 . S
C342 H332 0.930 . S
C342 C340 1.419 . S
C342 C343 1.362 . S
C343 H333 0.930 . S
C343 C336 1.409 . S
C343 C342 1.362 . S
H344 C350 0.930 . S
H345 C353 0.930 . S
H346 C354 0.930 . S
H347 C355 0.930 . S
H348 C358 0.930 . S
H349 C359 0.930 . S
C350 H344 0.930 . S
C350 C351 1.355 . S
C350 C352 1.415 . S
C351 C350 1.355 . S
C351 C353 1.419 . S
C352 C350 1.415 . S
C352 C357 1.425 . S
C352 C359 1.409 . S
C353 H345 0.930 . S
C353 C351 1.419 . S
C353 C354 1.362 . S
C354 H346 0.930 . S
C354 C353 1.362 . S
C354 C357 1.409 . S
C355 H347 0.930 . S
C355 C356 1.355 . S
C355 C357 1.415 . S
C356 C355 1.355 . S
C356 C358 1.419 . S
C357 C352 1.425 . S
C357 C354 1.409 . S
C357 C355 1.415 . S
C358 H348 0.930 . S
C358 C356 1.419 . S
C358 C359 1.362 . S
C359 H349 0.930 . S
C359 C352 1.409 . S
C359 C358 1.362 . S
H360 C366 0.930 . S
H361 C369 0.930 . S
H362 C370 0.930 . S
H363 C371 0.930 . S
H364 C374 0.930 . S
H365 C375 0.930 . S
C366 H360 0.930 . S
C366 C367 1.355 . S
C366 C368 1.415 . S
C367 C366 1.355 . S
C367 C369 1.419 . S
C368 C366 1.415 . S
C368 C373 1.425 . S
C368 C375 1.409 . S
C369 H361 0.930 . S
C369 C367 1.419 . S
C369 C370 1.362 . S
C370 H362 0.930 . S
C370 C369 1.362 . S
C370 C373 1.409 . S
C371 H363 0.930 . S
C371 C372 1.355 . S
C371 C373 1.415 . S
C372 C371 1.355 . S
C372 C374 1.419 . S
C373 C368 1.425 . S
C373 C370 1.409 . S
C373 C371 1.415 . S
C374 H364 0.930 . S
C374 C372 1.419 . S
C374 C375 1.362 . S
C375 H365 0.930 . S
C375 C368 1.409 . S
C375 C374 1.362 . S
H376 C382 0.930 . S
H377 C385 0.930 . S
H378 C386 0.930 . S
H379 C387 0.930 . S
H380 C390 0.930 . S
H381 C391 0.930 . S
C382 H376 0.930 . S
C382 C383 1.355 . S
C382 C384 1.415 . S
C383 C382 1.355 . S
C383 C385 1.419 . S
C384 C382 1.415 . S
C384 C389 1.425 . S
C384 C391 1.409 . S
C385 H377 0.930 . S
C385 C383 1.419 . S
C385 C386 1.362 . S
C386 H378 0.930 . S
C386 C385 1.362 . S
C386 C389 1.409 . S
C387 H379 0.930 . S
C387 C388 1.355 . S
C387 C389 1.415 . S
C388 C387 1.355 . S
C388 C390 1.419 . S
C389 C384 1.425 . S
C389 C386 1.409 . S
C389 C387 1.415 . S
C390 H380 0.930 . S
C390 C388 1.419 . S
C390 C391 1.362 . S
C391 H381 0.930 . S
C391 C384 1.409 . S
C391 C390 1.362 . S
H392 C398 0.930 . S
H393 C401 0.930 . S
H394 C402 0.930 . S
H395 C403 0.930 . S
H396 C406 0.930 . S
H397 C407 0.930 . S
C398 H392 0.930 . S
C398 C399 1.355 . S
C398 C400 1.415 . S
C399 C398 1.355 . S
C399 C401 1.419 . S
C400 C398 1.415 . S
C400 C405 1.425 . S
C400 C407 1.409 . S
C401 H393 0.930 . S
C401 C399 1.419 . S
C401 C402 1.362 . S
C402 H394 0.930 . S
C402 C401 1.362 . S
C402 C405 1.409 . S
C403 H395 0.930 . S
C403 C404 1.355 . S
C403 C405 1.415 . S
C404 C403 1.355 . S
C404 C406 1.419 . S
C405 C400 1.425 . S
C405 C402 1.409 . S
C405 C403 1.415 . S
C406 H396 0.930 . S
C406 C404 1.419 . S
C406 C407 1.362 . S
C407 H397 0.930 . S
C407 C400 1.409 . S
C407 C406 1.362 . S
H408 C414 0.930 . S
H409 C417 0.930 . S
H410 C418 0.930 . S
H411 C419 0.930 . S
H412 C422 0.930 . S
H413 C423 0.930 . S
C414 H408 0.930 . S
C414 C415 1.355 . S
C414 C416 1.415 . S
C415 C414 1.355 . S
C415 C417 1.419 . S
C416 C414 1.415 . S
C416 C421 1.425 . S
C416 C423 1.409 . S
C417 H409 0.930 . S
C417 C415 1.419 . S
C417 C418 1.362 . S
C418 H410 0.930 . S
C418 C417 1.362 . S
C418 C421 1.409 . S
C419 H411 0.930 . S
C419 C420 1.355 . S
C419 C421 1.415 . S
C420 C419 1.355 . S
C420 C422 1.419 . S
C421 C416 1.425 . S
C421 C418 1.409 . S
C421 C419 1.415 . S
C422 H412 0.930 . S
C422 C420 1.419 . S
C422 C423 1.362 . S
C423 H413 0.930 . S
C423 C416 1.409 . S
C423 C422 1.362 . S
H424 C430 0.930 . S
H425 C433 0.930 . S
H426 C434 0.930 . S
H427 C435 0.930 . S
H428 C438 0.930 . S
H429 C439 0.930 . S
C430 H424 0.930 . S
C430 C431 1.355 . S
C430 C432 1.415 . S
C431 C430 1.355 . S
C431 C433 1.419 . S
C432 C430 1.415 . S
C432 C437 1.425 . S
C432 C439 1.409 . S
C433 H425 0.930 . S
C433 C431 1.419 . S
C433 C434 1.362 . S
C434 H426 0.930 . S
C434 C433 1.362 . S
C434 C437 1.409 . S
C435 H427 0.930 . S
C435 C436 1.355 . S
C435 C437 1.415 . S
C436 C435 1.355 . S
C436 C438 1.419 . S
C437 C432 1.425 . S
C437 C434 1.409 . S
C437 C435 1.415 . S
C438 H428 0.930 . S
C438 C436 1.419 . S
C438 C439 1.362 . S
C439 H429 0.930 . S
C439 C432 1.409 . S
C439 C438 1.362 . S
H440 C446 0.930 . S
H441 C449 0.930 . S
H442 C450 0.930 . S
H443 C451 0.930 . S
H444 C454 0.930 . S
H445 C455 0.930 . S
C446 H440 0.930 . S
C446 C447 1.355 . S
C446 C448 1.415 . S
C447 C446 1.355 . S
C447 C449 1.419 . S
C448 C446 1.415 . S
C448 C453 1.425 . S
C448 C455 1.409 . S
C449 H441 0.930 . S
C449 C447 1.419 . S
C449 C450 1.362 . S
C450 H442 0.930 . S
C450 C449 1.362 . S
C450 C453 1.409 . S
C451 H443 0.930 . S
C451 C452 1.355 . S
C451 C453 1.415 . S
C452 C451 1.355 . S
C452 C454 1.419 . S
C453 C448 1.425 . S
C453 C450 1.409 . S
C453 C451 1.415 . S
C454 H444 0.930 . S
C454 C452 1.419 . S
C454 C455 1.362 . S
C455 H445 0.930 . S
C455 C448 1.409 . S
C455 C454 1.362 . S
H456 C462 0.930 . S
H457 C465 0.930 . S
H458 C466 0.930 . S
H459 C467 0.930 . S
H460 C470 0.930 . S
H461 C471 0.930 . S
C462 H456 0.930 . S
C462 C463 1.355 . S
C462 C464 1.415 . S
C463 C462 1.355 . S
C463 C465 1.419 . S
C464 C462 1.415 . S
C464 C469 1.425 . S
C464 C471 1.409 . S
C465 H457 0.930 . S
C465 C463 1.419 . S
C465 C466 1.362 . S
C466 H458 0.930 . S
C466 C465 1.362 . S
C466 C469 1.409 . S
C467 H459 0.930 . S
C467 C468 1.355 . S
C467 C469 1.415 . S
C468 C467 1.355 . S
C468 C470 1.419 . S
C469 C464 1.425 . S
C469 C466 1.409 . S
C469 C467 1.415 . S
C470 H460 0.930 . S
C470 C468 1.419 . S
C470 C471 1.362 . S
C471 H461 0.930 . S
C471 C464 1.409 . S
C471 C470 1.362 . S
H472 C478 0.930 . S
H473 C481 0.930 . S
H474 C482 0.930 . S
H475 C483 0.930 . S
H476 C486 0.930 . S
H477 C487 0.930 . S
C478 H472 0.930 . S
C478 C479 1.355 . S
C478 C480 1.415 . S
C479 C478 1.355 . S
C479 C481 1.419 . S
C480 C478 1.415 . S
C480 C485 1.425 . S
C480 C487 1.409 . S
C481 H473 0.930 . S
C481 C479 1.419 . S
C481 C482 1.362 . S
C482 H474 0.930 . S
C482 C481 1.362 . S
C482 C485 1.409 . S
C483 H475 0.930 . S
C483 C484 1.355 . S
C483 C485 1.415 . S
C484 C483 1.355 . S
C484 C486 1.419 . S
C485 C480 1.425 . S
C485 C482 1.409 . S
C485 C483 1.415 . S
C486 H476 0.930 . S
C486 C484 1.419 . S
C486 C487 1.362 . S
C487 H477 0.930 . S
C487 C480 1.409 . S
C487 C486 1.362 . S
H488 C494 0.930 . S
H489 C497 0.930 . S
H490 C498 0.930 . S
H491 C499 0.930 . S
H492 C502 0.930 . S
H493 C503 0.930 . S
C494 H488 0.930 . S
C494 C495 1.355 . S
C494 C496 1.415 . S
C495 C494 1.355 . S
C495 C497 1.419 . S
C496 C494 1.415 . S
C496 C501 1.425 . S
C496 C503 1.409 . S
C497 H489 0.930 . S
C497 C495 1.419 . S
C497 C498 1.362 . S
C498 H490 0.930 . S
C498 C497 1.362 . S
C498 C501 1.409 . S
C499 H491 0.930 . S
C499 C500 1.355 . S
C499 C501 1.415 . S
C500 C499 1.355 . S
C500 C502 1.419 . S
C501 C496 1.425 . S
C501 C498 1.409 . S
C501 C499 1.415 . S
C502 H492 0.930 . S
C502 C500 1.419 . S
C502 C503 1.362 . S
C503 H493 0.930 . S
C503 C496 1.409 . S
C503 C502 1.362 . S
H504 C510 0.930 . S
H505 C513 0.930 . S
H506 C514 0.930 . S
H507 C515 0.930 1_655 S
H508 C518 0.930 . S
H509 C519 0.930 . S
C510 H504 0.930 . S
C510 C511 1.355 . S
C510 C512 1.415 . S
C511 C510 1.355 . S
C511 C513 1.419 1_455 S
C512 C510 1.415 . S
C512 C517 1.425 . S
C512 C519 1.409 . S
C513 H505 0.930 . S
C513 C511 1.419 1_655 S
C513 C514 1.362 . S
C514 H506 0.930 . S
C514 C513 1.362 . S
C514 C517 1.409 1_655 S
C515 H507 0.930 1_455 S
C515 C516 1.355 . S
C515 C517 1.415 . S
C516 C515 1.355 . S
C516 C518 1.419 . S
C517 C512 1.425 . S
C517 C514 1.409 1_455 S
C517 C515 1.415 . S
C518 H508 0.930 . S
C518 C516 1.419 . S
C518 C519 1.362 . S
C519 H509 0.930 . S
C519 C512 1.409 . S
C519 C518 1.362 . S
H520 C526 0.930 1_565 S
H521 C529 0.930 . S
H522 C530 0.930 . S
H523 C531 0.930 . S
H524 C534 0.930 . S
H525 C535 0.930 1_565 S
C526 H520 0.930 1_545 S
C526 C527 1.355 . S
C526 C528 1.415 . S
C527 C526 1.355 . S
C527 C529 1.419 . S
C528 C526 1.415 . S
C528 C533 1.425 . S
C528 C535 1.409 . S
C529 H521 0.930 . S
C529 C527 1.419 . S
C529 C530 1.362 . S
C530 H522 0.930 . S
C530 C529 1.362 . S
C530 C533 1.409 . S
C531 H523 0.930 . S
C531 C532 1.355 . S
C531 C533 1.415 . S
C532 C531 1.355 . S
C532 C534 1.419 . S
C533 C528 1.425 . S
C533 C530 1.409 . S
C533 C531 1.415 . S
C534 H524 0.930 . S
C534 C532 1.419 . S
C534 C535 1.362 . S
C535 H525 0.930 1_545 S
C535 C528 1.409 . S
C535 C534 1.362 . S
H536 C542 0.930 . S
H537 C545 0.930 . S
H538 C546 0.930 . S
H539 C547 0.930 . S
H540 C550 0.930 . S
H541 C551 0.930 . S
C542 H536 0.930 . S
C542 C543 1.355 . S
C542 C544 1.415 . S
C543 C542 1.355 . S
C543 C545 1.419 . S
C544 C542 1.415 . S
C544 C549 1.425 . S
C544 C551 1.409 . S
C545 H537 0.930 . S
C545 C543 1.419 . S
C545 C546 1.362 . S
C546 H538 0.930 . S
C546 C545 1.362 . S
C546 C549 1.409 . S
C547 H539 0.930 . S
C547 C548 1.355 . S
C547 C549 1.415 . S
C548 C547 1.355 . S
C548 C550 1.419 . S
C549 C544 1.425 . S
C549 C546 1.409 . S
C549 C547 1.415 . S
C550 H540 0.930 . S
C550 C548 1.419 . S
C550 C551 1.362 . S
C551 H541 0.930 . S
C551 C544 1.409 . S
C551 C550 1.362 . S
H552 C558 0.930 . S
H553 C561 0.930 . S
H554 C562 0.930 . S
H555 C563 0.930 . S
H556 C566 0.930 . S
H557 C567 0.930 . S
C558 H552 0.930 . S
C558 C559 1.355 . S
C558 C560 1.415 . S
C559 C558 1.355 . S
C559 C561 1.419 1_545 S
C560 C558 1.415 . S
C560 C565 1.425 1_545 S
C560 C567 1.409 . S
C561 H553 0.930 . S
C561 C559 1.419 1_565 S
C561 C562 1.362 . S
C562 H554 0.930 . S
C562 C561 1.362 . S
C562 C565 1.409 . S
C563 H555 0.930 . S
C563 C564 1.355 1_565 S
C563 C565 1.415 . S
C564 C563 1.355 1_545 S
C564 C566 1.419 . S
C565 C560 1.425 1_565 S
C565 C562 1.409 . S
C565 C563 1.415 . S
C566 H556 0.930 . S
C566 C564 1.419 . S
C566 C567 1.362 . S
C567 H557 0.930 . S
C567 C560 1.409 . S
C567 C566 1.362 . S
H568 C574 0.930 . S
H569 C577 0.930 . S
H570 C578 0.930 . S
H571 C579 0.930 . S
H572 C582 0.930 1_554 S
H573 C583 0.930 . S
C574 H568 0.930 . S
C574 C575 1.355 . S
C574 C576 1.415 . S
C575 C574 1.355 . S
C575 C577 1.419 . S
C576 C574 1.415 . S
C576 C581 1.425 . S
C576 C583 1.409 . S
C577 H569 0.930 . S
C577 C575 1.419 . S
C577 C578 1.362 . S
C578 H570 0.930 . S
C578 C577 1.362 . S
C578 C581 1.409 . S
C579 H571 0.930 . S
C579 C580 1.355 . S
C579 C581 1.415 . S
C580 C579 1.355 . S
C580 C582 1.419 . S
C581 C576 1.425 . S
C581 C578 1.409 . S
C581 C579 1.415 . S
C582 H572 0.930 1_556 S
C582 C580 1.419 . S
C582 C583 1.362 . S
C583 H573 0.930 . S
C583 C576 1.409 . S
C583 C582 1.362 . S
H584 C590 0.930 . S
H585 C593 0.930 . S
H586 C594 0.930 . S
H587 C595 0.930 . S
H588 C598 0.930 . S
H589 C599 0.930 . S
C590 H584 0.930 . S
C590 C591 1.355 1_655 S
C590 C592 1.415 . S
C591 C590 1.355 1_455 S
C591 C593 1.419 . S
C592 C590 1.415 . S
C592 C597 1.425 1_655 S
C592 C599 1.409 . S
C593 H585 0.930 . S
C593 C591 1.419 . S
C593 C594 1.362 . S
C594 H586 0.930 . S
C594 C593 1.362 . S
C594 C597 1.409 . S
C595 H587 0.930 . S
C595 C596 1.355 1_455 S
C595 C597 1.415 . S
C596 C595 1.355 1_655 S
C596 C598 1.419 . S
C597 C592 1.425 1_455 S
C597 C594 1.409 . S
C597 C595 1.415 . S
C598 H588 0.930 . S
C598 C596 1.419 . S
C598 C599 1.362 . S
C599 H589 0.930 . S
C599 C592 1.409 . S
C599 C598 1.362 . S
C319 C24 2.949 . S
C324 C303 2.882 . S
C335 C66 1.223 . S
C340 C239 1.250 . S
C351 C93 1.847 . S
C356 C271 1.791 . S
C367 C13 3.078 . S
C372 C297 3.048 . S
C388 C233 1.288 . S
C383 C57 1.311 . S
C404 C265 1.846 . S
C399 C104 1.930 . S
C415 C64 1.944 . S
C420 C175 1.857 . S
C431 C97 0.594 . S
C436 C207 0.636 . S
C447 C17 1.370 . S
C452 C137 1.358 . S
C468 C169 1.784 . S
C463 C53 1.842 . S
C484 C201 0.409 . S
C479 C106 0.621 . S
C495 C26 1.232 . S
C500 C143 1.268 . S
C516 C213 1.060 1_554 S
C511 C2 1.029 . S
C527 C63 1.478 . S
C532 C149 1.471 . S
C543 C82 1.387 . S
C548 C181 1.377 . S
C564 C277 1.387 . S
C559 C42 1.371 . S
C580 C309 1.725 1_556 S
C575 C103 1.731 . S
C591 C23 1.442 . S
C596 C245 1.468 1_655 S
