# Generated by pormake.
# Topology pyr, (3,6)-cn, num edge types: 1
# Building blocks:
#     Node 0, Type 0, BuildingBlock: MIDCAF_clean_linker_0, # of connection points: 3
#     Node 1, Type 0, BuildingBlock: MIDCAF_clean_linker_0, # of connection points: 3
#     Node 2, Type 0, BuildingBlock: MIDCAF_clean_linker_0, # of connection points: 3
#     Node 3, Type 0, BuildingBlock: MIDCAF_clean_linker_0, # of connection points: 3
#     Node 4, Type 0, BuildingBlock: MIDCAF_clean_linker_0, # of connection points: 3
#     Node 5, Type 0, BuildingBlock: MIDCAF_clean_linker_0, # of connection points: 3
#     Node 6, Type 0, BuildingBlock: MIDCAF_clean_linker_0, # of connection points: 3
#     Node 7, Type 0, BuildingBlock: MIDCAF_clean_linker_0, # of connection points: 3
#     Node 8, Type 1, BuildingBlock: MIFKUJ_clean_sbu_0, # of connection points: 6
#     Node 9, Type 1, BuildingBlock: MIFKUJ_clean_sbu_0, # of connection points: 6
#     Node 10, Type 1, BuildingBlock: MIFKUJ_clean_sbu_0, # of connection points: 6
#     Node 11, Type 1, BuildingBlock: MIFKUJ_clean_sbu_0, # of connection points: 6
#     Edge 12, Type (0, 1), BuildingBlock: ZUJKAS_clean_linker_0, # of connection points: 2
#     Edge 13, Type (0, 1), BuildingBlock: ZUJKAS_clean_linker_0, # of connection points: 2
#     Edge 14, Type (0, 1), BuildingBlock: ZUJKAS_clean_linker_0, # of connection points: 2
#     Edge 15, Type (0, 1), BuildingBlock: ZUJKAS_clean_linker_0, # of connection points: 2
#     Edge 16, Type (0, 1), BuildingBlock: ZUJKAS_clean_linker_0, # of connection points: 2
#     Edge 17, Type (0, 1), BuildingBlock: ZUJKAS_clean_linker_0, # of connection points: 2
#     Edge 18, Type (0, 1), BuildingBlock: ZUJKAS_clean_linker_0, # of connection points: 2
#     Edge 19, Type (0, 1), BuildingBlock: ZUJKAS_clean_linker_0, # of connection points: 2
#     Edge 20, Type (0, 1), BuildingBlock: ZUJKAS_clean_linker_0, # of connection points: 2
#     Edge 21, Type (0, 1), BuildingBlock: ZUJKAS_clean_linker_0, # of connection points: 2
#     Edge 22, Type (0, 1), BuildingBlock: ZUJKAS_clean_linker_0, # of connection points: 2
#     Edge 23, Type (0, 1), BuildingBlock: ZUJKAS_clean_linker_0, # of connection points: 2
#     Edge 24, Type (0, 1), BuildingBlock: ZUJKAS_clean_linker_0, # of connection points: 2
#     Edge 25, Type (0, 1), BuildingBlock: ZUJKAS_clean_linker_0, # of connection points: 2
#     Edge 26, Type (0, 1), BuildingBlock: ZUJKAS_clean_linker_0, # of connection points: 2
#     Edge 27, Type (0, 1), BuildingBlock: ZUJKAS_clean_linker_0, # of connection points: 2
#     Edge 28, Type (0, 1), BuildingBlock: ZUJKAS_clean_linker_0, # of connection points: 2
#     Edge 29, Type (0, 1), BuildingBlock: ZUJKAS_clean_linker_0, # of connection points: 2
#     Edge 30, Type (0, 1), BuildingBlock: ZUJKAS_clean_linker_0, # of connection points: 2
#     Edge 31, Type (0, 1), BuildingBlock: ZUJKAS_clean_linker_0, # of connection points: 2
#     Edge 32, Type (0, 1), BuildingBlock: ZUJKAS_clean_linker_0, # of connection points: 2
#     Edge 33, Type (0, 1), BuildingBlock: ZUJKAS_clean_linker_0, # of connection points: 2
#     Edge 34, Type (0, 1), BuildingBlock: ZUJKAS_clean_linker_0, # of connection points: 2
#     Edge 35, Type (0, 1), BuildingBlock: ZUJKAS_clean_linker_0, # of connection points: 2
# Relax obj value: 0.025
# Max RMSD: 0.078
# Mean RMSD: 0.046
data_MOF--net-pyr--node1-MIFKUJ_clean_sbu_0--node2-MIDCAF_clean_linker_0--edge1-ZUJKAS_clean_linker_0
_symmetry_space_group_name_H-M    P1
_symmetry_Int_Tables_number       1
_symmetry_cell_setting            triclinic
loop_
_symmetry_equiv_pos_as_xyz
'x, y, z'
_cell_length_a     59.163267
_cell_length_b     53.173848
_cell_length_c     57.879432
_cell_angle_alpha  86.560003
_cell_angle_beta   88.794447
_cell_angle_gamma 95.474425
loop_
_atom_site_label
_atom_site_type_symbol
_atom_site_fract_x
_atom_site_fract_y
_atom_site_fract_z
_atom_type_partial_charge
C0 C 0.16577 0.16557 0.29021 0.0
C1 C 0.17457 0.14385 0.29997 0.0
C2 C 0.19339 0.13485 0.28906 0.0
C3 C 0.20277 0.14689 0.26845 0.0
H4 H 0.25054 0.14044 0.21732 0.0
H5 H 0.28084 0.12265 0.19646 0.0
H6 H 0.2771 0.17909 0.14017 0.0
H7 H 0.24707 0.19718 0.16103 0.0
H8 H 0.20296 0.22578 0.15767 0.0
H9 H 0.18047 0.25522 0.13697 0.0
H10 H 0.14208 0.26362 0.19993 0.0
H11 H 0.16415 0.23354 0.22058 0.0
H12 H 0.1675 0.19392 0.26234 0.0
H13 H 0.15112 0.17282 0.29803 0.0
H14 H 0.20071 0.11832 0.29633 0.0
H15 H 0.21698 0.13915 0.26028 0.0
N16 N 0.22 0.17082 0.2245 0.0
N17 N 0.21606 0.19896 0.19241 0.0
N18 N 0.19118 0.19818 0.2245 0.0
C19 C 0.22718 0.18048 0.20303 0.0
C20 C 0.19808 0.20795 0.20303 0.0
C21 C 0.20205 0.17964 0.23539 0.0
C22 C 0.24625 0.17022 0.19086 0.0
C23 C 0.25623 0.14919 0.20056 0.0
C24 C 0.27351 0.13887 0.18855 0.0
C25 C 0.28128 0.14941 0.16664 0.0
C26 C 0.27162 0.17069 0.15712 0.0
C27 C 0.25429 0.18096 0.16906 0.0
C28 C 0.18533 0.22716 0.1908 0.0
C29 C 0.18982 0.23397 0.16719 0.0
C30 C 0.17698 0.251 0.15531 0.0
C31 C 0.15942 0.26177 0.16676 0.0
C32 C 0.15522 0.25535 0.19048 0.0
C33 C 0.16799 0.2382 0.20236 0.0
C34 C 0.19346 0.16813 0.25825 0.0
C35 C 0.1751 0.17757 0.2696 0.0
C36 C 0.26443 0.88813 0.66655 0.0
C37 C 0.25221 0.87468 0.64992 0.0
C38 C 0.26009 0.85231 0.64256 0.0
C39 C 0.27988 0.84363 0.65152 0.0
H40 H 0.32935 0.7972 0.6369 0.0
H41 H 0.34788 0.76481 0.61782 0.0
H42 H 0.39932 0.76671 0.6697 0.0
H43 H 0.38067 0.79878 0.68909 0.0
H44 H 0.37583 0.83193 0.73146 0.0
H45 H 0.39233 0.84928 0.76583 0.0
H46 H 0.34725 0.90864 0.7617 0.0
H47 H 0.33021 0.89085 0.72758 0.0
H48 H 0.29309 0.89015 0.68851 0.0
H49 H 0.25864 0.90532 0.67269 0.0
H50 H 0.25111 0.84168 0.62961 0.0
H51 H 0.28549 0.82635 0.6454 0.0
N52 N 0.32313 0.82922 0.66751 0.0
N53 N 0.35141 0.83067 0.69526 0.0
N54 N 0.32245 0.85774 0.69684 0.0
C55 C 0.34234 0.8206 0.67611 0.0
C56 C 0.34158 0.84922 0.70575 0.0
C57 C 0.31307 0.84777 0.67777 0.0
C58 C 0.35348 0.80068 0.66457 0.0
C59 C 0.34459 0.79073 0.64431 0.0
C60 C 0.35529 0.77225 0.63326 0.0
C61 C 0.37511 0.76324 0.6422 0.0
C62 C 0.38394 0.77306 0.66251 0.0
C63 C 0.37327 0.79157 0.67355 0.0
C64 C 0.35167 0.85998 0.72667 0.0
C65 C 0.3694 0.8487 0.7378 0.0
C66 C 0.37898 0.85875 0.75749 0.0
C67 C 0.37122 0.88045 0.76649 0.0
C68 C 0.35346 0.89173 0.7554 0.0
C69 C 0.34376 0.88158 0.73575 0.0
C70 C 0.29211 0.85702 0.66823 0.0
C71 C 0.2841 0.87933 0.6757 0.0
C72 C 0.64748 0.27733 0.87353 0.0
C73 C 0.6277 0.26595 0.86392 0.0
C74 C 0.61981 0.27704 0.84333 0.0
C75 C 0.63149 0.29889 0.83254 0.0
H76 H 0.62883 0.34984 0.77814 0.0
H77 H 0.61353 0.36871 0.74343 0.0
H78 H 0.67056 0.42604 0.73817 0.0
H79 H 0.68584 0.40738 0.77345 0.0
H80 H 0.72717 0.40186 0.81062 0.0
H81 H 0.76288 0.41769 0.82746 0.0
H82 H 0.74734 0.36716 0.88815 0.0
H83 H 0.71219 0.35095 0.87124 0.0
H84 H 0.6743 0.30733 0.87074 0.0
H85 H 0.65384 0.26954 0.88956 0.0
H86 H 0.60478 0.26861 0.83532 0.0
H87 H 0.62496 0.30679 0.81663 0.0
N88 N 0.6562 0.3443 0.81093 0.0
N89 N 0.68736 0.37529 0.8094 0.0
N90 N 0.68348 0.34351 0.83955 0.0
C91 C 0.66771 0.3653 0.8002 0.0
C92 C 0.69533 0.36445 0.82916 0.0
C93 C 0.66394 0.33326 0.83059 0.0
C94 C 0.65866 0.37701 0.77872 0.0
C95 C 0.63824 0.36645 0.76968 0.0
C96 C 0.62948 0.3772 0.74959 0.0
C97 C 0.64086 0.39882 0.73786 0.0
C98 C 0.66125 0.40951 0.74687 0.0
C99 C 0.67007 0.39871 0.76705 0.0
C100 C 0.71678 0.37499 0.83945 0.0
C101 C 0.73136 0.39415 0.82757 0.0
C102 C 0.75182 0.40332 0.83728 0.0
C103 C 0.75813 0.3936 0.85913 0.0
C104 C 0.74334 0.37474 0.8711 0.0
C105 C 0.72302 0.36553 0.8614 0.0
C106 C 0.65134 0.3102 0.8421 0.0
C107 C 0.65915 0.29915 0.86277 0.0
C108 C 0.7633 0.64357 0.35384 0.0
C109 C 0.7519 0.62114 0.34651 0.0
C110 C 0.76157 0.6092 0.32819 0.0
C111 C 0.78223 0.61932 0.31761 0.0
H112 H 0.82855 0.60881 0.26515 0.0
H113 H 0.84537 0.58913 0.23285 0.0
H114 H 0.9034 0.64504 0.23188 0.0
H115 H 0.88649 0.66504 0.26381 0.0
H116 H 0.89051 0.70559 0.30213 0.0
H117 H 0.90995 0.74298 0.31818 0.0
H118 H 0.85082 0.75025 0.36136 0.0
H119 H 0.8313 0.71326 0.34529 0.0
H120 H 0.79211 0.67097 0.34951 0.0
H121 H 0.75618 0.6535 0.36764 0.0
H122 H 0.75337 0.59175 0.32226 0.0
H123 H 0.78924 0.60948 0.30368 0.0
N124 N 0.82539 0.64116 0.29642 0.0
N125 N 0.85668 0.67195 0.29522 0.0
N126 N 0.82701 0.6734 0.3224 0.0
C127 C 0.84579 0.65086 0.28675 0.0
C128 C 0.84739 0.68335 0.31303 0.0
C129 C 0.81588 0.65233 0.31428 0.0
C130 C 0.85609 0.63861 0.26717 0.0
C131 C 0.8449 0.61696 0.25808 0.0
C132 C 0.8546 0.60555 0.2396 0.0
C133 C 0.87574 0.61549 0.2297 0.0
C134 C 0.88695 0.63708 0.23882 0.0
C135 C 0.87727 0.64848 0.25729 0.0
C136 C 0.8593 0.70631 0.32239 0.0
C137 C 0.8816 0.7152 0.31498 0.0
C138 C 0.89282 0.73656 0.32426 0.0
C139 C 0.88192 0.74963 0.341 0.0
C140 C 0.8596 0.74084 0.34826 0.0
C141 C 0.84845 0.71946 0.33912 0.0
C142 C 0.79372 0.64165 0.32509 0.0
C143 C 0.7839 0.65367 0.34329 0.0
C144 C 0.7312 0.85747 0.82976 0.0
C145 C 0.72133 0.84482 0.85007 0.0
C146 C 0.72908 0.8217 0.85789 0.0
C147 C 0.74651 0.81165 0.84586 0.0
H148 H 0.79135 0.75653 0.85177 0.0
H149 H 0.81278 0.72528 0.87167 0.0
H150 H 0.86601 0.73921 0.81889 0.0
H151 H 0.84439 0.76981 0.79864 0.0
H152 H 0.83058 0.7991 0.75048 0.0
H153 H 0.84835 0.82145 0.71579 0.0
H154 H 0.81175 0.88604 0.72807 0.0
H155 H 0.79385 0.86375 0.76286 0.0
H156 H 0.75588 0.85786 0.80226 0.0
H157 H 0.7259 0.87552 0.82343 0.0
H158 H 0.72162 0.81127 0.87327 0.0
H159 H 0.75214 0.79386 0.85245 0.0
N160 N 0.78587 0.79469 0.82306 0.0
N161 N 0.81164 0.79724 0.79152 0.0
N162 N 0.78363 0.82547 0.79265 0.0
C163 C 0.80395 0.78604 0.81225 0.0
C164 C 0.80155 0.81689 0.78156 0.0
C165 C 0.77559 0.81437 0.81334 0.0
C166 C 0.81615 0.76581 0.82363 0.0
C167 C 0.80754 0.7528 0.8443 0.0
C168 C 0.81989 0.73497 0.8558 0.0
C169 C 0.8412 0.72985 0.84698 0.0
C170 C 0.84954 0.74244 0.82604 0.0
C171 C 0.83715 0.76013 0.81447 0.0
C172 C 0.8109 0.82969 0.75954 0.0
C173 C 0.82615 0.81799 0.74573 0.0
C174 C 0.83622 0.8307 0.72577 0.0
C175 C 0.83144 0.85548 0.71932 0.0
C176 C 0.81582 0.86701 0.73278 0.0
C177 C 0.80552 0.85418 0.75262 0.0
C178 C 0.75652 0.82445 0.82566 0.0
C179 C 0.74851 0.84738 0.81766 0.0
C180 C 0.65656 0.11642 0.24989 0.0
C181 C 0.63657 0.12484 0.2408 0.0
C182 C 0.6258 0.14315 0.2523 0.0
C183 C 0.63485 0.15291 0.27236 0.0
H184 H 0.61982 0.19648 0.3261 0.0
H185 H 0.60048 0.22754 0.34618 0.0
H186 H 0.65993 0.24368 0.38692 0.0
H187 H 0.679 0.21211 0.36741 0.0
H188 H 0.71617 0.17344 0.36836 0.0
H189 H 0.75096 0.15907 0.38382 0.0
H190 H 0.75379 0.10758 0.32912 0.0
H191 H 0.71921 0.1222 0.31331 0.0
H192 H 0.68115 0.11938 0.27637 0.0
H193 H 0.66537 0.1025 0.2413 0.0
H194 H 0.61019 0.14976 0.24594 0.0
H195 H 0.62604 0.16698 0.28072 0.0
N196 N 0.65392 0.17267 0.31378 0.0
N197 N 0.68249 0.17497 0.34121 0.0
N198 N 0.68433 0.1477 0.31103 0.0
C199 C 0.66275 0.18265 0.33308 0.0
C200 C 0.69338 0.15746 0.33033 0.0
C201 C 0.66462 0.15522 0.30261 0.0
C202 C 0.65098 0.20172 0.34514 0.0
C203 C 0.62879 0.20663 0.33935 0.0
C204 C 0.61771 0.22456 0.3508 0.0
C205 C 0.62861 0.23813 0.36821 0.0
C206 C 0.65084 0.23327 0.37391 0.0
C207 C 0.66185 0.21523 0.36259 0.0
C208 C 0.71478 0.14897 0.33957 0.0
C209 C 0.72418 0.15909 0.35954 0.0
C210 C 0.74409 0.15076 0.36851 0.0
C211 C 0.75511 0.13213 0.35774 0.0
C212 C 0.74586 0.12217 0.33767 0.0
C213 C 0.72593 0.13048 0.32869 0.0
C214 C 0.65492 0.14462 0.28142 0.0
C215 C 0.66566 0.12622 0.26995 0.0
C216 C 0.25522 0.5988 0.17249 0.0
C217 C 0.24881 0.60833 0.15061 0.0
C218 C 0.26333 0.62746 0.13867 0.0
C219 C 0.28348 0.63712 0.14843 0.0
H220 H 0.33124 0.69655 0.13938 0.0
H221 H 0.35126 0.73471 0.12069 0.0
H222 H 0.40044 0.73601 0.17482 0.0
H223 H 0.38071 0.69753 0.19336 0.0
H224 H 0.37675 0.65545 0.23244 0.0
H225 H 0.39214 0.63715 0.26736 0.0
H226 H 0.33666 0.57794 0.27184 0.0
H227 H 0.32127 0.59605 0.23638 0.0
H228 H 0.27977 0.60084 0.19923 0.0
H229 H 0.24436 0.58422 0.1823 0.0
H230 H 0.25926 0.63491 0.1216 0.0
H231 H 0.2941 0.6519 0.13861 0.0
N232 N 0.32265 0.65997 0.17036 0.0
N233 N 0.34979 0.65983 0.19914 0.0
N234 N 0.31911 0.62826 0.2006 0.0
C235 C 0.34198 0.67062 0.17941 0.0
C236 C 0.33856 0.63867 0.20988 0.0
C237 C 0.31107 0.63884 0.18076 0.0
C238 C 0.3543 0.69386 0.16794 0.0
C239 C 0.34633 0.70489 0.14734 0.0
C240 C 0.35774 0.72691 0.13666 0.0
C241 C 0.37743 0.73849 0.14628 0.0
C242 C 0.38548 0.72743 0.1668 0.0
C243 C 0.37406 0.70539 0.1775 0.0
C244 C 0.34767 0.62729 0.23147 0.0
C245 C 0.3677 0.63854 0.24077 0.0
C246 C 0.37652 0.62812 0.26098 0.0
C247 C 0.36559 0.60615 0.27255 0.0
C248 C 0.34561 0.59477 0.26327 0.0
C249 C 0.33672 0.60524 0.24298 0.0
C250 C 0.28982 0.62785 0.1704 0.0
C251 C 0.27551 0.60841 0.18226 0.0
C252 C 0.14963 0.27166 0.64662 0.0
C253 C 0.1298 0.25827 0.65651 0.0
C254 C 0.12036 0.26678 0.67681 0.0
C255 C 0.13071 0.28801 0.6871 0.0
H256 H 0.12342 0.33723 0.7397 0.0
H257 H 0.10616 0.35549 0.77256 0.0
H258 H 0.16269 0.41325 0.77231 0.0
H259 H 0.17982 0.39535 0.73922 0.0
H260 H 0.22001 0.39673 0.70135 0.0
H261 H 0.25599 0.41547 0.68354 0.0
H262 H 0.25332 0.3567 0.63502 0.0
H263 H 0.2174 0.33829 0.65234 0.0
H264 H 0.17524 0.30241 0.64864 0.0
H265 H 0.15713 0.26601 0.63075 0.0
H266 H 0.10518 0.2568 0.68498 0.0
H267 H 0.12312 0.29391 0.70283 0.0
N268 N 0.15281 0.33335 0.70676 0.0
N269 N 0.18386 0.3644 0.70716 0.0
N270 N 0.18252 0.33426 0.67924 0.0
C271 C 0.16351 0.35387 0.7164 0.0
C272 C 0.19349 0.35465 0.68857 0.0
C273 C 0.16223 0.32346 0.68812 0.0
C274 C 0.15306 0.36478 0.73668 0.0
C275 C 0.13222 0.35383 0.7466 0.0
C276 C 0.12235 0.36422 0.76557 0.0
C277 C 0.13301 0.38586 0.77511 0.0
C278 C 0.15385 0.39678 0.76523 0.0
C279 C 0.16375 0.38638 0.74629 0.0
C280 C 0.21565 0.36603 0.67827 0.0
C281 C 0.22708 0.38779 0.68689 0.0
C282 C 0.24779 0.39848 0.67675 0.0
C283 C 0.25749 0.38768 0.65775 0.0
C284 C 0.24616 0.3658 0.64934 0.0
C285 C 0.22554 0.35514 0.65943 0.0
C286 C 0.15074 0.30116 0.67731 0.0
C287 C 0.15997 0.29273 0.65688 0.0
Zn288 Zn 0.02519 0.99569 0.52265 0.0
Zn289 Zn 0.97761 0.00575 0.48737 0.0
C290 C 0.05069 0.0418 0.53304 0.0
O291 O 0.06672 0.03066 0.52281 0.0
C292 C 0.95879 0.95969 0.47085 0.0
O293 O 0.94265 0.96495 0.48521 0.0
O294 O 0.05085 0.97701 0.53497 0.0
O295 O 0.99654 0.97885 0.53803 0.0
O296 O 0.96755 0.994 0.5199 0.0
C297 C 0.05177 0.97091 0.55647 0.0
O298 O 0.0353 0.97611 0.57046 0.0
O299 O 0.03059 0.03084 0.53429 0.0
C300 C 0.95247 0.03157 0.45322 0.0
O301 O 0.96888 0.02547 0.4396 0.0
O302 O 0.95281 0.02546 0.47476 0.0
O303 O 0.0069 0.02789 0.48093 0.0
O304 O 0.02889 0.99746 0.48798 0.0
O305 O 0.9769 0.97469 0.46866 0.0
C306 C 0.97551 0.9817 0.53685 0.0
C307 C 0.0253 0.01814 0.47725 0.0
Zn308 Zn 0.51986 0.9875 0.99543 0.0
Zn309 Zn 0.48497 0.01695 0.01501 0.0
C310 C 0.49108 0.95816 0.96665 0.0
O311 O 0.50111 0.94022 0.97777 0.0
C312 C 0.51499 0.04582 0.04302 0.0
O313 O 0.50567 0.06406 0.03152 0.0
O314 O 0.54627 0.9697 0.98474 0.0
O315 O 0.53076 0.02465 0.99304 0.0
O316 O 0.49671 0.035 0.98478 0.0
C317 C 0.5527 0.97415 0.96368 0.0
O318 O 0.54245 0.99047 0.9507 0.0
O319 O 0.49595 0.98098 0.97158 0.0
C320 C 0.4519 0.02839 0.04716 0.0
O321 O 0.46167 0.01077 0.05904 0.0
O322 O 0.45879 0.0346 0.02647 0.0
O323 O 0.47396 0.9798 0.01696 0.0
O324 O 0.50797 0.9698 0.02572 0.0
O325 O 0.50911 0.02301 0.03869 0.0
C326 C 0.51817 0.03977 0.983 0.0
C327 C 0.48652 0.96484 0.02723 0.0
Zn328 Zn 0.51342 0.48157 0.49092 0.0
Zn329 Zn 0.49784 0.52604 0.51697 0.0
C330 C 0.5429 0.50796 0.45656 0.0
O331 O 0.52822 0.49544 0.44371 0.0
C332 C 0.46842 0.49883 0.551 0.0
O333 O 0.48281 0.51135 0.56414 0.0
O334 O 0.5192 0.44876 0.47731 0.0
O335 O 0.51587 0.47556 0.52556 0.0
O336 O 0.5268 0.51535 0.53094 0.0
C337 C 0.53607 0.43775 0.48458 0.0
O338 O 0.54817 0.44756 0.50118 0.0
O339 O 0.53985 0.50599 0.47845 0.0
C340 C 0.47216 0.56638 0.52565 0.0
O341 O 0.45894 0.55353 0.51165 0.0
O342 O 0.49126 0.55861 0.53056 0.0
O343 O 0.49529 0.53227 0.48233 0.0
O344 O 0.48446 0.49241 0.47722 0.0
O345 O 0.47166 0.50112 0.52914 0.0
C346 C 0.52705 0.49199 0.53698 0.0
C347 C 0.484 0.51572 0.47114 0.0
Zn348 Zn 0.99626 0.51978 0.98824 0.0
Zn349 Zn 0.0133 0.4771 0.02007 0.0
C350 C 0.96665 0.49364 0.95883 0.0
O351 O 0.9814 0.50658 0.9443 0.0
C352 C 0.04241 0.5035 0.05004 0.0
O353 O 0.02766 0.4904 0.06446 0.0
O354 O 0.98864 0.55183 0.97122 0.0
O355 O 0.9953 0.52697 0.02215 0.0
O356 O 0.98441 0.48773 0.03422 0.0
C357 C 0.97104 0.5609 0.97887 0.0
O358 O 0.96059 0.5501 0.99769 0.0
O359 O 0.96974 0.49484 0.98046 0.0
C360 C 0.03988 0.43824 0.03216 0.0
O361 O 0.05246 0.45164 0.01599 0.0
O362 O 0.02039 0.4449 0.03716 0.0
O363 O 0.01522 0.4698 0.98621 0.0
O364 O 0.02487 0.50916 0.97349 0.0
O365 O 0.03956 0.5022 0.02837 0.0
C366 C 0.98443 0.51131 0.03676 0.0
C367 C 0.02552 0.4856 0.97131 0.0
H368 H 0.15797 0.16335 0.33893 0.0
H369 H 0.13551 0.14039 0.37085 0.0
H370 H 0.14307 0.06986 0.33977 0.0
H371 H 0.16499 0.09271 0.30746 0.0
H372 H 0.09831 0.07731 0.35066 0.0
H373 H 0.15355 0.09434 0.42556 0.0
H374 H 0.14861 0.12255 0.40851 0.0
H375 H 0.16403 0.099 0.39592 0.0
C376 C 0.15499 0.14293 0.33898 0.0
C377 C 0.16322 0.12985 0.32065 0.0
C378 C 0.14237 0.12983 0.35735 0.0
C379 C 0.13787 0.10342 0.35777 0.0
C380 C 0.14653 0.09023 0.33982 0.0
H381 H 0.06817 0.00531 0.46829 0.0
H382 H 0.09596 0.02554 0.43937 0.0
C383 C 0.15917 0.10331 0.32147 0.0
C384 C 0.12251 0.0898 0.37585 0.0
H385 H 0.11521 0.07765 0.43426 0.0
C386 C 0.10207 0.07721 0.36893 0.0
C387 C 0.12757 0.08958 0.39962 0.0
C388 C 0.14972 0.10189 0.4079 0.0
C389 C 0.08627 0.0649 0.38521 0.0
C390 C 0.09094 0.06549 0.40903 0.0
C391 C 0.11163 0.07749 0.41596 0.0
C392 C 0.07441 0.05381 0.42696 0.0
C393 C 0.06474 0.05125 0.37681 0.0
C394 C 0.05327 0.06333 0.42973 0.0
C395 C 0.03737 0.05185 0.44619 0.0
C396 C 0.04235 0.03066 0.4602 0.0
C397 C 0.06374 0.02148 0.45765 0.0
C398 C 0.07966 0.03304 0.44121 0.0
H399 H 0.0662 0.04743 0.3582 0.0
H400 H 0.06039 0.03301 0.38702 0.0
H401 H 0.05052 0.06316 0.37899 0.0
H402 H 0.04907 0.0796 0.41908 0.0
H403 H 0.0211 0.05947 0.44778 0.0
H404 H 0.41617 0.88494 0.77729 0.0
H405 H 0.4332 0.90055 0.81236 0.0
H406 H 0.36745 0.91727 0.83742 0.0
H407 H 0.35005 0.90052 0.80284 0.0
H408 H 0.43467 0.94703 0.82999 0.0
H409 H 0.389 0.8741 0.89131 0.0
H410 H 0.38908 0.87153 0.86037 0.0
H411 H 0.37091 0.89207 0.87367 0.0
C412 C 0.40524 0.89162 0.79038 0.0
C413 C 0.38168 0.89117 0.78735 0.0
C414 C 0.41505 0.90076 0.81032 0.0
C415 C 0.40155 0.9097 0.82766 0.0
C416 C 0.37812 0.90999 0.82446 0.0
H417 H 0.46595 0.99008 0.9413 0.0
H418 H 0.4422 0.97986 0.90834 0.0
C419 C 0.36825 0.90069 0.80454 0.0
C420 C 0.41218 0.91856 0.84905 0.0
H421 H 0.41312 0.90592 0.90754 0.0
C422 C 0.42989 0.93816 0.84698 0.0
C423 C 0.40603 0.90675 0.87115 0.0
C424 C 0.38786 0.8848 0.87435 0.0
C425 C 0.44192 0.94601 0.86634 0.0
C426 C 0.43568 0.9343 0.88846 0.0
C427 C 0.41771 0.915 0.89059 0.0
C428 C 0.44871 0.94044 0.90932 0.0
C429 C 0.46178 0.96601 0.86278 0.0
C430 C 0.45951 0.92147 0.92133 0.0
C431 C 0.47283 0.92715 0.94029 0.0
C432 C 0.47565 0.95197 0.94759 0.0
C433 C 0.46427 0.97083 0.93596 0.0
C434 C 0.4508 0.96506 0.91705 0.0
H435 H 0.46755 0.96872 0.84433 0.0
H436 H 0.45664 0.98432 0.86825 0.0
H437 H 0.47634 0.96099 0.87334 0.0
H438 H 0.45805 0.90232 0.91571 0.0
H439 H 0.4813 0.91217 0.94889 0.0
H440 H 0.62088 0.37395 0.70234 0.0
H441 H 0.60292 0.39211 0.66843 0.0
H442 H 0.62103 0.46716 0.69062 0.0
H443 H 0.63886 0.44913 0.72484 0.0
H444 H 0.56656 0.42287 0.66908 0.0
H445 H 0.64255 0.47236 0.62206 0.0
H446 H 0.64459 0.44812 0.64495 0.0
H447 H 0.63911 0.47949 0.65183 0.0
C448 C 0.62104 0.39434 0.70007 0.0
C449 C 0.63125 0.41007 0.71642 0.0
C450 C 0.61086 0.40468 0.6806 0.0
C451 C 0.61079 0.43098 0.67688 0.0
C452 C 0.62124 0.44682 0.69292 0.0
H453 H 0.55024 0.52178 0.56756 0.0
H454 H 0.57029 0.50785 0.60197 0.0
C455 C 0.63144 0.43647 0.71247 0.0
C456 C 0.5988 0.44158 0.65677 0.0
H457 H 0.60679 0.47828 0.60618 0.0
C458 C 0.57536 0.43498 0.65532 0.0
C459 C 0.61028 0.45754 0.63893 0.0
C460 C 0.63555 0.4647 0.6393 0.0
C461 C 0.56305 0.44386 0.63654 0.0
C462 C 0.57459 0.45936 0.61842 0.0
C463 C 0.59798 0.46635 0.62005 0.0
C464 C 0.56275 0.46787 0.59737 0.0
C465 C 0.53773 0.43681 0.63643 0.0
C466 C 0.55219 0.45005 0.58312 0.0
C467 C 0.54069 0.45792 0.56353 0.0
C468 C 0.53965 0.48383 0.5576 0.0
C469 C 0.55064 0.50169 0.57165 0.0
C470 C 0.56213 0.49376 0.59131 0.0
H471 H 0.53066 0.43134 0.65415 0.0
H472 H 0.52876 0.45271 0.62899 0.0
H473 H 0.53415 0.42037 0.6257 0.0
H474 H 0.55289 0.42999 0.58714 0.0
H475 H 0.53261 0.44364 0.55303 0.0
H476 H 0.8983 0.63892 0.19123 0.0
H477 H 0.91598 0.61922 0.15925 0.0
H478 H 0.89436 0.54529 0.19123 0.0
H479 H 0.87677 0.56482 0.22343 0.0
H480 H 0.95044 0.58655 0.16141 0.0
H481 H 0.87218 0.54011 0.12483 0.0
H482 H 0.87149 0.56461 0.14505 0.0
H483 H 0.87566 0.53282 0.15518 0.0
C484 C 0.89737 0.61846 0.19155 0.0
C485 C 0.88608 0.60347 0.20994 0.0
C486 C 0.90739 0.60723 0.17318 0.0
C487 C 0.90624 0.58079 0.17269 0.0
C488 C 0.89504 0.56573 0.19099 0.0
H489 H 0.96149 0.48349 0.07301 0.0
H490 H 0.94284 0.4995 0.10664 0.0
C491 C 0.88499 0.57694 0.2094 0.0
C492 C 0.91745 0.56911 0.15335 0.0
H493 H 0.90726 0.53118 0.10833 0.0
C494 C 0.941 0.57447 0.14979 0.0
C495 C 0.90512 0.55321 0.13829 0.0
C496 C 0.87969 0.54746 0.14082 0.0
C497 C 0.95258 0.56434 0.13163 0.0
C498 C 0.94021 0.5488 0.11632 0.0
C499 C 0.9167 0.5431 0.12008 0.0
C500 C 0.95128 0.53901 0.09588 0.0
C501 C 0.97802 0.57013 0.12916 0.0
C502 C 0.96187 0.55589 0.07849 0.0
C503 C 0.97252 0.54684 0.05932 0.0
C504 C 0.9727 0.52066 0.05702 0.0
C505 C 0.96173 0.50375 0.07427 0.0
C506 C 0.95105 0.51286 0.09349 0.0
H507 H 0.98557 0.57605 0.14563 0.0
H508 H 0.98619 0.55345 0.12362 0.0
H509 H 0.98201 0.5859 0.11582 0.0
H510 H 0.96182 0.57613 0.0797 0.0
H511 H 0.98062 0.56043 0.0463 0.0
H512 H 0.31795 0.17372 0.14223 0.0
H513 H 0.34674 0.15465 0.11984 0.0
H514 H 0.31388 0.0803 0.13941 0.0
H515 H 0.28477 0.09919 0.1614 0.0
H516 H 0.37642 0.11903 0.13624 0.0
H517 H 0.32033 0.08144 0.06804 0.0
H518 H 0.31239 0.10529 0.08678 0.0
H519 H 0.31015 0.07258 0.09714 0.0
C520 C 0.31675 0.15332 0.14158 0.0
C521 C 0.29906 0.13795 0.15351 0.0
C522 C 0.33324 0.14247 0.12889 0.0
C523 C 0.3322 0.11612 0.12774 0.0
C524 C 0.31473 0.10071 0.1398 0.0
H525 H 0.43529 0.0209 0.0916 0.0
H526 H 0.40653 0.04337 0.11031 0.0
C527 C 0.29828 0.11152 0.15255 0.0
C528 C 0.34975 0.10465 0.11445 0.0
H529 H 0.35732 0.06733 0.06948 0.0
C530 C 0.37231 0.10786 0.12156 0.0
C531 C 0.34431 0.09038 0.09513 0.0
C532 C 0.32052 0.08735 0.08613 0.0
C533 C 0.38951 0.09649 0.11025 0.0
C534 C 0.3839 0.08135 0.09155 0.0
C535 C 0.36148 0.07878 0.08398 0.0
C536 C 0.40102 0.06756 0.07996 0.0
C537 C 0.41357 0.10081 0.11836 0.0
C538 C 0.40698 0.07332 0.05653 0.0
C539 C 0.4234 0.06046 0.04572 0.0
C540 C 0.43396 0.0415 0.05818 0.0
C541 C 0.42757 0.03548 0.08154 0.0
C542 C 0.41123 0.04838 0.09231 0.0
H543 H 0.41599 0.11771 0.12876 0.0
H544 H 0.41752 0.08409 0.12941 0.0
H545 H 0.42586 0.10326 0.10345 0.0
H546 H 0.39914 0.08799 0.0467 0.0
H547 H 0.42791 0.0655 0.02769 0.0
H548 H 0.21143 0.84757 0.64372 0.0
H549 H 0.17705 0.86311 0.62767 0.0
H550 H 0.21166 0.93829 0.61789 0.0
H551 H 0.24595 0.92294 0.63432 0.0
H552 H 0.16993 0.9391 0.63676 0.0
H553 H 0.16491 0.8806 0.5606 0.0
H554 H 0.16535 0.86214 0.58754 0.0
H555 H 0.18968 0.88357 0.57826 0.0
C556 C 0.21173 0.86737 0.63796 0.0
C557 C 0.23138 0.88404 0.64017 0.0
C558 C 0.19212 0.8762 0.62872 0.0
C559 C 0.19192 0.90176 0.62117 0.0
C560 C 0.21147 0.91847 0.62353 0.0
H561 H 0.09197 0.96588 0.53388 0.0
H562 H 0.12574 0.9491 0.54998 0.0
C563 C 0.23101 0.90971 0.63298 0.0
C564 C 0.17118 0.91129 0.61133 0.0
H565 H 0.13286 0.90286 0.5685 0.0
C566 C 0.16186 0.93124 0.62179 0.0
C567 C 0.16085 0.90124 0.59159 0.0
C568 C 0.17083 0.88089 0.57868 0.0
C569 C 0.14238 0.94127 0.61321 0.0
C570 C 0.13157 0.93058 0.59401 0.0
C571 C 0.14102 0.91082 0.58339 0.0
C572 C 0.11078 0.9401 0.58428 0.0
C573 C 0.13393 0.96361 0.62447 0.0
C574 C 0.091 0.94016 0.59809 0.0
C575 C 0.07173 0.94995 0.589 0.0
C576 C 0.07177 0.95949 0.56581 0.0
C577 C 0.09138 0.95868 0.55182 0.0
C578 C 0.1107 0.9491 0.56098 0.0
H579 H 0.14747 0.97385 0.6343 0.0
H580 H 0.12756 0.97717 0.6114 0.0
H581 H 0.11977 0.95681 0.63684 0.0
H582 H 0.09048 0.9327 0.61594 0.0
H583 H 0.05682 0.95008 0.60017 0.0
H584 H 0.7787 0.44228 0.85805 0.0
H585 H 0.81449 0.4572 0.87543 0.0
H586 H 0.8224 0.38114 0.90203 0.0
H587 H 0.78726 0.36589 0.88389 0.0
H588 H 0.82629 0.45537 0.92094 0.0
H589 H 0.88348 0.40152 0.87009 0.0
H590 H 0.85449 0.40478 0.86228 0.0
H591 H 0.86065 0.38194 0.88491 0.0
C592 C 0.78822 0.42864 0.86726 0.0
C593 C 0.78006 0.40285 0.86947 0.0
C594 C 0.8086 0.43725 0.87737 0.0
C595 C 0.8213 0.42026 0.8898 0.0
C596 C 0.81314 0.39455 0.89217 0.0
H597 H 0.93038 0.46784 0.98343 0.0
H598 H 0.89501 0.44858 0.96783 0.0
C599 C 0.79285 0.38592 0.88201 0.0
C600 C 0.84285 0.4295 0.90065 0.0
H601 H 0.89963 0.42245 0.90178 0.0
C602 C 0.84234 0.44819 0.91675 0.0
C603 C 0.86383 0.42029 0.89502 0.0
C604 C 0.86577 0.40121 0.87697 0.0
C605 C 0.86218 0.45789 0.92739 0.0
C606 C 0.88307 0.44825 0.92215 0.0
C607 C 0.88358 0.42959 0.90603 0.0
C608 C 0.90484 0.4585 0.93194 0.0
C609 C 0.86071 0.47891 0.9436 0.0
C610 C 0.92246 0.46959 0.91698 0.0
C611 C 0.94269 0.4803 0.9258 0.0
C612 C 0.94584 0.48018 0.94984 0.0
C613 C 0.92846 0.46836 0.96484 0.0
C614 C 0.90817 0.45754 0.95595 0.0
H615 H 0.84477 0.48819 0.94148 0.0
H616 H 0.86101 0.47096 0.96175 0.0
H617 H 0.87536 0.49352 0.94069 0.0
H618 H 0.92035 0.47045 0.89841 0.0
H619 H 0.9557 0.48914 0.9137 0.0
H620 H 0.71369 0.59971 0.32645 0.0
H621 H 0.67791 0.58206 0.34567 0.0
H622 H 0.70496 0.60026 0.41187 0.0
H623 H 0.7408 0.61774 0.39287 0.0
H624 H 0.67072 0.54234 0.37976 0.0
H625 H 0.64432 0.63156 0.41217 0.0
H626 H 0.66638 0.63115 0.3902 0.0
H627 H 0.67234 0.62465 0.42018 0.0
C628 C 0.71208 0.59985 0.34511 0.0
C629 C 0.73011 0.61028 0.35809 0.0
C630 C 0.69158 0.58988 0.35605 0.0
C631 C 0.68863 0.59025 0.38016 0.0
C632 C 0.70665 0.60035 0.3932 0.0
H633 H 0.57917 0.53205 0.47791 0.0
H634 H 0.61451 0.55242 0.4595 0.0
C635 C 0.72714 0.61033 0.38229 0.0
C636 C 0.66696 0.5793 0.39172 0.0
H637 H 0.62243 0.59353 0.42555 0.0
C638 C 0.66011 0.55355 0.38968 0.0
C639 C 0.6532 0.59395 0.40476 0.0
C640 C 0.65927 0.62191 0.40685 0.0
C641 C 0.64001 0.54195 0.40055 0.0
C642 C 0.62618 0.55661 0.41348 0.0
C643 C 0.63307 0.58234 0.41564 0.0
C644 C 0.60433 0.54557 0.42457 0.0
C645 C 0.63399 0.51396 0.39847 0.0
C646 C 0.58668 0.53561 0.411 0.0
C647 C 0.56653 0.52399 0.42142 0.0
C648 C 0.56355 0.52221 0.44566 0.0
C649 C 0.58094 0.53303 0.45921 0.0
C650 C 0.60115 0.54467 0.44872 0.0
H651 H 0.64899 0.50432 0.39331 0.0
H652 H 0.62674 0.50474 0.41506 0.0
H653 H 0.62105 0.51119 0.38501 0.0
H654 H 0.58859 0.5366 0.3923 0.0
H655 H 0.55343 0.51606 0.41044 0.0
H656 H 0.11344 0.26423 0.17111 0.0
H657 H 0.09014 0.29218 0.14893 0.0
H658 H 0.14978 0.32607 0.11069 0.0
H659 H 0.17335 0.29879 0.13316 0.0
H660 H 0.09696 0.34889 0.14319 0.0
H661 H 0.10266 0.30002 0.0613 0.0
H662 H 0.10798 0.28499 0.08924 0.0
H663 H 0.12912 0.30763 0.07524 0.0
C664 C 0.12168 0.27786 0.15821 0.0
C665 C 0.14528 0.27919 0.15385 0.0
C666 C 0.1083 0.29366 0.14547 0.0
C667 C 0.11826 0.31086 0.12804 0.0
C668 C 0.14179 0.31258 0.12386 0.0
H669 H 0.08214 0.42257 0.02762 0.0
H670 H 0.09896 0.39038 0.05155 0.0
C671 C 0.1552 0.29692 0.13666 0.0
C672 C 0.10415 0.3272 0.11418 0.0
H673 H 0.08683 0.3394 0.05916 0.0
C674 C 0.09448 0.34674 0.12487 0.0
C675 C 0.10105 0.32419 0.09035 0.0
C676 C 0.11057 0.30297 0.0783 0.0
C677 C 0.08253 0.36413 0.11205 0.0
C678 C 0.07978 0.36142 0.08806 0.0
C679 C 0.08895 0.3414 0.07756 0.0
C680 C 0.06884 0.38012 0.0732 0.0
C681 C 0.07385 0.38586 0.12407 0.0
C682 C 0.04614 0.38467 0.07714 0.0
C683 C 0.03645 0.40324 0.06353 0.0
C684 C 0.04929 0.41734 0.04562 0.0
C685 C 0.07178 0.4121 0.04129 0.0
C686 C 0.08144 0.39369 0.05494 0.0
H687 H 0.08181 0.38843 0.14109 0.0
H688 H 0.07715 0.40383 0.1132 0.0
H689 H 0.05523 0.38205 0.12713 0.0
H690 H 0.03597 0.374 0.09083 0.0
H691 H 0.01904 0.40674 0.0672 0.0
H692 H 0.64596 0.22489 0.88416 0.0
H693 H 0.62587 0.18695 0.90373 0.0
H694 H 0.56172 0.21594 0.88915 0.0
H695 H 0.58168 0.25413 0.86973 0.0
H696 H 0.59562 0.18443 0.9423 0.0
H697 H 0.55376 0.14405 0.86588 0.0
H698 H 0.57722 0.16848 0.8632 0.0
H699 H 0.54914 0.17636 0.87027 0.0
C700 C 0.62758 0.22328 0.88519 0.0
C701 C 0.61544 0.24258 0.87535 0.0
C702 C 0.61613 0.20152 0.89628 0.0
C703 C 0.59231 0.19849 0.89764 0.0
C704 C 0.5801 0.21767 0.88787 0.0
H705 H 0.49653 0.07786 0.96164 0.0
H706 H 0.514 0.11688 0.94131 0.0
C707 C 0.59154 0.23947 0.87677 0.0
C708 C 0.58037 0.1756 0.90996 0.0
H709 H 0.54377 0.12321 0.90247 0.0
C710 C 0.58431 0.17102 0.9336 0.0
C711 C 0.56552 0.15823 0.89858 0.0
C712 C 0.56124 0.16181 0.87304 0.0
C713 C 0.57372 0.14957 0.94621 0.0
C714 C 0.55915 0.13198 0.93476 0.0
C715 C 0.55496 0.13672 0.91119 0.0
C716 C 0.54855 0.10824 0.94685 0.0
C717 C 0.57799 0.14612 0.97177 0.0
C718 C 0.56218 0.09027 0.95634 0.0
C719 C 0.55228 0.06802 0.96797 0.0
C720 C 0.52851 0.06318 0.9702 0.0
C721 C 0.51488 0.08102 0.96029 0.0
C722 C 0.52482 0.10332 0.94866 0.0
H723 H 0.5842 0.16429 0.97908 0.0
H724 H 0.56234 0.13809 0.98153 0.0
H725 H 0.59119 0.13283 0.97448 0.0
H726 H 0.58051 0.09342 0.9547 0.0
H727 H 0.5633 0.05462 0.97522 0.0
H728 H 0.86476 0.79416 0.34989 0.0
H729 H 0.88326 0.82982 0.36933 0.0
H730 H 0.94438 0.79193 0.37463 0.0
H731 H 0.92578 0.75583 0.3556 0.0
H732 H 0.93016 0.80979 0.41631 0.0
H733 H 0.93266 0.88522 0.34576 0.0
H734 H 0.90496 0.8686 0.35073 0.0
H735 H 0.92797 0.85199 0.34058 0.0
C736 C 0.88217 0.79343 0.35512 0.0
C737 C 0.89378 0.77211 0.35124 0.0
C738 C 0.89281 0.81396 0.36599 0.0
C739 C 0.91531 0.8137 0.37314 0.0
C740 C 0.92707 0.79261 0.36907 0.0
H741 H 0.98506 0.94675 0.43446 0.0
H742 H 0.97753 0.91048 0.41045 0.0
C743 C 0.91646 0.77207 0.35809 0.0
C744 C 0.92587 0.83468 0.3863 0.0
H745 H 0.93769 0.89894 0.38425 0.0
C746 C 0.93211 0.82924 0.40919 0.0
C747 C 0.92869 0.86001 0.37692 0.0
C748 C 0.92344 0.86683 0.35207 0.0
C749 C 0.94001 0.8486 0.42332 0.0
C750 C 0.94149 0.87407 0.41438 0.0
C751 C 0.93635 0.87942 0.39114 0.0
C752 C 0.94676 0.89545 0.42933 0.0
C753 C 0.94641 0.84167 0.44781 0.0
C754 C 0.9319 0.89907 0.44776 0.0
C755 C 0.93608 0.91971 0.46139 0.0
C756 C 0.95523 0.93725 0.45687 0.0
C757 C 0.97024 0.93351 0.43848 0.0
C758 C 0.96594 0.91285 0.42471 0.0
H759 H 0.95057 0.82173 0.44988 0.0
H760 H 0.9612 0.85429 0.45309 0.0
H761 H 0.93186 0.84378 0.45972 0.0
H762 H 0.9168 0.88612 0.45137 0.0
H763 H 0.92413 0.92202 0.47536 0.0
H764 H 0.38283 0.76038 0.5957 0.0
H765 H 0.40072 0.72749 0.57621 0.0
H766 H 0.41171 0.68948 0.64236 0.0
H767 H 0.39331 0.72192 0.66198 0.0
H768 H 0.44513 0.7117 0.58135 0.0
H769 H 0.37729 0.63437 0.60556 0.0
H770 H 0.37328 0.66736 0.60788 0.0
H771 H 0.38897 0.65107 0.62933 0.0
C772 C 0.38887 0.7449 0.6061 0.0
C773 C 0.3865 0.74366 0.63038 0.0
C774 C 0.39923 0.72625 0.59495 0.0
C775 C 0.40729 0.70595 0.60785 0.0
C776 C 0.40532 0.70484 0.63209 0.0
H777 H 0.49371 0.59544 0.55771 0.0
H778 H 0.47893 0.63016 0.5775 0.0
C779 C 0.39499 0.7235 0.64327 0.0
C780 C 0.41756 0.68583 0.59587 0.0
H781 H 0.41008 0.62292 0.58629 0.0
C782 C 0.43752 0.69227 0.58242 0.0
C783 C 0.40741 0.6606 0.59715 0.0
C784 C 0.38545 0.65287 0.61058 0.0
C785 C 0.44771 0.67403 0.57028 0.0
C786 C 0.43774 0.64872 0.57187 0.0
C787 C 0.41773 0.64233 0.58525 0.0
C788 C 0.44734 0.62862 0.55923 0.0
C789 C 0.46873 0.68208 0.55545 0.0
C790 C 0.43439 0.61617 0.54258 0.0
C791 C 0.44272 0.59632 0.53133 0.0
C792 C 0.46413 0.58844 0.53663 0.0
C793 C 0.47721 0.60115 0.55316 0.0
C794 C 0.46884 0.62105 0.56441 0.0
H795 H 0.47127 0.70295 0.552 0.0
H796 H 0.48382 0.676 0.56454 0.0
H797 H 0.4678 0.67302 0.53866 0.0
H798 H 0.41773 0.62171 0.53839 0.0
H799 H 0.43219 0.58695 0.51872 0.0
H800 H 0.83825 0.83944 0.67599 0.0
H801 H 0.8611 0.86188 0.644 0.0
H802 H 0.87576 0.9255 0.68599 0.0
H803 H 0.85252 0.90339 0.71779 0.0
H804 H 0.86694 0.94073 0.64213 0.0
H805 H 0.92964 0.86956 0.64209 0.0
H806 H 0.90114 0.85635 0.6376 0.0
H807 H 0.90822 0.86961 0.66472 0.0
C808 C 0.84631 0.85825 0.67831 0.0
C809 C 0.84375 0.86965 0.69936 0.0
C810 C 0.85942 0.87099 0.6601 0.0
C811 C 0.87054 0.89511 0.66282 0.0
C812 C 0.8674 0.90685 0.68357 0.0
H813 H 0.98618 0.96419 0.58023 0.0
H814 H 0.96019 0.94441 0.61086 0.0
C815 C 0.85408 0.89425 0.70168 0.0
C816 C 0.88579 0.90801 0.64424 0.0
H817 H 0.93324 0.90148 0.61146 0.0
C818 C 0.88147 0.9322 0.63543 0.0
C819 C 0.90497 0.897 0.63585 0.0
C820 C 0.91144 0.87182 0.6457 0.0
C821 C 0.89571 0.94563 0.61829 0.0
C822 C 0.91439 0.93422 0.60929 0.0
C823 C 0.91879 0.9101 0.61823 0.0
C824 C 0.92989 0.94705 0.59087 0.0
C825 C 0.89089 0.97214 0.61045 0.0
C826 C 0.9215 0.95497 0.56941 0.0
C827 C 0.93629 0.96658 0.55197 0.0
C828 C 0.9598 0.97001 0.55552 0.0
C829 C 0.96818 0.96179 0.57694 0.0
C830 C 0.95334 0.95049 0.59446 0.0
H831 H 0.88056 0.98068 0.62361 0.0
H832 H 0.90687 0.98462 0.60689 0.0
H833 H 0.88114 0.9715 0.5943 0.0
H834 H 0.90356 0.95186 0.56602 0.0
H835 H 0.92933 0.97242 0.53556 0.0
H836 H 0.61901 0.15104 0.20443 0.0
H837 H 0.60161 0.13405 0.16998 0.0
H838 H 0.6155 0.05883 0.19385 0.0
H839 H 0.63242 0.07558 0.22874 0.0
H840 H 0.62075 0.10546 0.1355 0.0
H841 H 0.54647 0.05217 0.18268 0.0
H842 H 0.56449 0.07646 0.19569 0.0
H843 H 0.57398 0.04569 0.19276 0.0
C844 C 0.61821 0.13085 0.20246 0.0
C845 C 0.6269 0.11462 0.21942 0.0
C846 C 0.60843 0.12122 0.18268 0.0
C847 C 0.60705 0.09518 0.17954 0.0
C848 C 0.61614 0.07895 0.19614 0.0
H849 H 0.53507 0.01271 0.0723 0.0
H850 H 0.55994 0.02305 0.10441 0.0
C851 C 0.62597 0.08859 0.21594 0.0
C852 C 0.59576 0.08514 0.15898 0.0
H853 H 0.5486 0.04941 0.14229 0.0
C854 C 0.60504 0.09308 0.13694 0.0
C855 C 0.57534 0.06891 0.16099 0.0
C856 C 0.56431 0.06039 0.18426 0.0
C857 C 0.59428 0.08546 0.11679 0.0
C858 C 0.57349 0.06988 0.11879 0.0
C859 C 0.56456 0.06134 0.14084 0.0
C860 C 0.55993 0.06359 0.09835 0.0
C861 C 0.60525 0.09416 0.09355 0.0
C862 C 0.55167 0.08297 0.08437 0.0
C863 C 0.53749 0.07716 0.06607 0.0
C864 C 0.53115 0.05183 0.0615 0.0
C865 C 0.53968 0.03242 0.07535 0.0
C866 C 0.55388 0.03827 0.09369 0.0
H867 H 0.62383 0.09907 0.09492 0.0
H868 H 0.60236 0.07939 0.08087 0.0
H869 H 0.59774 0.11138 0.08676 0.0
H870 H 0.55572 0.10262 0.08798 0.0
H871 H 0.53117 0.09256 0.0558 0.0
H872 H 0.36911 0.55611 0.28542 0.0
H873 H 0.38658 0.53867 0.32012 0.0
H874 H 0.40226 0.61408 0.34253 0.0
H875 H 0.38422 0.63156 0.30843 0.0
H876 H 0.43114 0.54783 0.33314 0.0
H877 H 0.3731 0.57709 0.40069 0.0
H878 H 0.36603 0.57742 0.37049 0.0
H879 H 0.38437 0.6029 0.38111 0.0
C880 C 0.37589 0.56895 0.29796 0.0
C881 C 0.37523 0.59526 0.29411 0.0
C882 C 0.38601 0.55896 0.3177 0.0
C883 C 0.39547 0.57503 0.3341 0.0
C884 C 0.39469 0.60125 0.33038 0.0
H885 H 0.47685 0.56386 0.45556 0.0
H886 H 0.45502 0.57686 0.42223 0.0
C887 C 0.38461 0.61124 0.31069 0.0
C888 C 0.40718 0.56461 0.35451 0.0
H889 H 0.40837 0.56361 0.41357 0.0
C890 C 0.42601 0.55102 0.35074 0.0
C891 C 0.4005 0.56881 0.37748 0.0
C892 C 0.37976 0.58214 0.38275 0.0
C893 C 0.43879 0.54228 0.36925 0.0
C894 C 0.43236 0.54694 0.39217 0.0
C895 C 0.41332 0.56015 0.39598 0.0
C896 C 0.44549 0.53876 0.41242 0.0
C897 C 0.4595 0.52886 0.36409 0.0
C898 C 0.44717 0.51299 0.41814 0.0
C899 C 0.45964 0.50546 0.43721 0.0
C900 C 0.47064 0.52359 0.45097 0.0
C901 C 0.46872 0.54939 0.44529 0.0
C902 C 0.45619 0.55688 0.42627 0.0
H903 H 0.46501 0.53178 0.34557 0.0
H904 H 0.47387 0.53552 0.37493 0.0
H905 H 0.4555 0.50824 0.36815 0.0
H906 H 0.43872 0.49867 0.40792 0.0
H907 H 0.46069 0.48544 0.44113 0.0
H908 H 0.11161 0.36096 0.81359 0.0
H909 H 0.09392 0.37936 0.84639 0.0
H910 H 0.1134 0.4543 0.8155 0.0
H911 H 0.13057 0.43608 0.78232 0.0
H912 H 0.11419 0.41308 0.87733 0.0
H913 H 0.04521 0.45532 0.82944 0.0
H914 H 0.06146 0.43185 0.81754 0.0
H915 H 0.07332 0.46424 0.81756 0.0
C916 C 0.11189 0.38136 0.81361 0.0
C917 C 0.12242 0.39703 0.79522 0.0
C918 C 0.1019 0.39184 0.83246 0.0
C919 C 0.10206 0.41819 0.83325 0.0
C920 C 0.11273 0.43391 0.81507 0.0
H921 H 0.04707 0.51357 0.93437 0.0
H922 H 0.06665 0.49784 0.9012 0.0
C923 C 0.12277 0.42345 0.79623 0.0
C924 C 0.09142 0.42917 0.85333 0.0
H925 H 0.04912 0.46493 0.86865 0.0
C926 C 0.09994 0.42438 0.87545 0.0
C927 C 0.07289 0.44401 0.85082 0.0
C928 C 0.0625 0.44904 0.82761 0.0
C929 C 0.09055 0.43417 0.89512 0.0
C930 C 0.07184 0.44876 0.89266 0.0
C931 C 0.06348 0.45378 0.8705 0.0
C932 C 0.06029 0.45835 0.91294 0.0
C933 C 0.10097 0.42912 0.91831 0.0
C934 C 0.04998 0.44136 0.9304 0.0
C935 C 0.03882 0.45026 0.94935 0.0
C936 C 0.03758 0.47637 0.95119 0.0
C937 C 0.04778 0.49336 0.93357 0.0
C938 C 0.05895 0.48441 0.91458 0.0
H939 H 0.11869 0.4241 0.91637 0.0
H940 H 0.101 0.44585 0.92892 0.0
H941 H 0.09086 0.41297 0.92784 0.0
H942 H 0.05036 0.42115 0.92927 0.0
H943 H 0.03109 0.43661 0.96253 0.0
H944 H 0.68611 0.86939 0.83278 0.0
H945 H 0.65794 0.89 0.85436 0.0
H946 H 0.68681 0.86523 0.91863 0.0
H947 H 0.71577 0.84561 0.89717 0.0
H948 H 0.62554 0.87033 0.88652 0.0
H949 H 0.68659 0.94068 0.92537 0.0
H950 H 0.69463 0.92192 0.90214 0.0
H951 H 0.69211 0.90836 0.9314 0.0
C952 C 0.68666 0.86858 0.8515 0.0
C953 C 0.70336 0.85606 0.86322 0.0
C954 C 0.67043 0.88019 0.86381 0.0
C955 C 0.67054 0.87952 0.88807 0.0
C956 C 0.68674 0.86643 0.89989 0.0
H957 H 0.57975 0.94199 0.98606 0.0
H958 H 0.60836 0.91794 0.96862 0.0
C959 C 0.70308 0.85493 0.88759 0.0
C960 C 0.65361 0.89251 0.90087 0.0
H961 H 0.64804 0.9397 0.93752 0.0
C962 C 0.63046 0.88547 0.89768 0.0
C963 C 0.6601 0.91228 0.91542 0.0
C964 C 0.6847 0.92146 0.91867 0.0
C965 C 0.61361 0.89773 0.90862 0.0
C966 C 0.62013 0.91759 0.92297 0.0
C967 C 0.64321 0.92436 0.92653 0.0
C968 C 0.60317 0.9323 0.93358 0.0
C969 C 0.58895 0.88944 0.90477 0.0
C970 C 0.59117 0.94857 0.91961 0.0
C971 C 0.57499 0.96243 0.92948 0.0
C972 C 0.5705 0.96019 0.9535 0.0
C973 C 0.58279 0.94406 0.9675 0.0
C974 C 0.59911 0.93033 0.9576 0.0
H975 H 0.5867 0.8707 0.89716 0.0
H976 H 0.57895 0.88842 0.92131 0.0
H977 H 0.58192 0.90353 0.89269 0.0
H978 H 0.59431 0.95051 0.90105 0.0
H979 H 0.56585 0.97467 0.91821 0.0
H980 H 0.79369 0.12199 0.3345 0.0
H981 H 0.82764 0.10567 0.35085 0.0
H982 H 0.79802 0.10583 0.41955 0.0
H983 H 0.76378 0.12141 0.40334 0.0
H984 H 0.85737 0.12716 0.3837 0.0
H985 H 0.81567 0.03322 0.41592 0.0
H986 H 0.80268 0.05381 0.39528 0.0
H987 H 0.80213 0.05972 0.42552 0.0
C988 C 0.79431 0.1183 0.35307 0.0
C989 C 0.77598 0.12286 0.36761 0.0
C990 C 0.81377 0.10916 0.36238 0.0
C991 C 0.81518 0.10424 0.38636 0.0
C992 C 0.7971 0.10913 0.40096 0.0
H993 H 0.91528 0.04526 0.47645 0.0
H994 H 0.8827 0.0643 0.46004 0.0
C995 C 0.77765 0.11829 0.39168 0.0
C996 C 0.83564 0.09413 0.39614 0.0
H997 H 0.85356 0.04348 0.42717 0.0
C998 C 0.8566 0.10883 0.39313 0.0
C999 C 0.83451 0.07022 0.40842 0.0
C1000 C 0.8126 0.05318 0.41135 0.0
C1001 C 0.87647 0.10042 0.40247 0.0
C1002 C 0.87531 0.07653 0.41481 0.0
C1003 C 0.85435 0.06183 0.41777 0.0
C1004 C 0.89566 0.06626 0.42469 0.0
C1005 C 0.89841 0.11738 0.3995 0.0
C1006 C 0.91372 0.06102 0.41021 0.0
C1007 C 0.93239 0.05015 0.41952 0.0
C1008 C 0.93325 0.04419 0.44347 0.0
C1009 C 0.91518 0.04965 0.45793 0.0
C1010 C 0.89653 0.06051 0.4486 0.0
H1011 H 0.89537 0.13735 0.39492 0.0
H1012 H 0.90835 0.11672 0.41555 0.0
H1013 H 0.90882 0.11079 0.38531 0.0
H1014 H 0.91317 0.06487 0.39165 0.0
H1015 H 0.94597 0.04608 0.40789 0.0
H1016 H 0.21921 0.63525 0.12573 0.0
H1017 H 0.18437 0.61918 0.1075 0.0
H1018 H 0.19364 0.54351 0.13422 0.0
H1019 H 0.22914 0.55927 0.15169 0.0
H1020 H 0.18204 0.54501 0.08866 0.0
H1021 H 0.12341 0.59741 0.13922 0.0
H1022 H 0.14598 0.61747 0.12447 0.0
H1023 H 0.15247 0.59487 0.14716 0.0
C1024 C 0.21399 0.61514 0.12762 0.0
C1025 C 0.22707 0.59857 0.14022 0.0
C1026 C 0.19386 0.60603 0.11741 0.0
C1027 C 0.18617 0.58019 0.11978 0.0
C1028 C 0.19917 0.56356 0.13227 0.0
H1029 H 0.05296 0.50822 0.09525 0.0
H1030 H 0.08791 0.5277 0.11077 0.0
C1031 C 0.21937 0.57264 0.14243 0.0
C1032 C 0.16482 0.57043 0.10886 0.0
H1033 H 0.1078 0.57606 0.10751 0.0
C1034 C 0.16579 0.55178 0.09278 0.0
C1035 C 0.14359 0.57911 0.1144 0.0
C1036 C 0.14118 0.59814 0.13241 0.0
C1037 C 0.14616 0.5416 0.08207 0.0
C1038 C 0.12502 0.5507 0.08722 0.0
C1039 C 0.12405 0.56933 0.10333 0.0
C1040 C 0.10346 0.53996 0.07731 0.0
C1041 C 0.14815 0.52066 0.06588 0.0
C1042 C 0.10029 0.54082 0.05328 0.0
C1043 C 0.08024 0.52953 0.04427 0.0
C1044 C 0.06295 0.51736 0.05917 0.0
C1045 C 0.06592 0.51733 0.08323 0.0
C1046 C 0.08592 0.5285 0.09217 0.0
H1047 H 0.16427 0.51176 0.06812 0.0
H1048 H 0.13373 0.50574 0.0687 0.0
H1049 H 0.14784 0.52858 0.04773 0.0
H1050 H 0.11339 0.55006 0.04148 0.0
H1051 H 0.07845 0.53 0.02567 0.0
H1052 H 0.29587 0.40744 0.67868 0.0
H1053 H 0.33182 0.42556 0.66001 0.0
H1054 H 0.30466 0.41095 0.59305 0.0
H1055 H 0.26852 0.39361 0.61144 0.0
H1056 H 0.36112 0.40206 0.6312 0.0
H1057 H 0.32914 0.48552 0.58503 0.0
H1058 H 0.31314 0.46715 0.60817 0.0
H1059 H 0.31366 0.45587 0.57952 0.0
C1060 C 0.29743 0.40843 0.65996 0.0
C1061 C 0.27927 0.39912 0.64657 0.0
C1062 C 0.31804 0.41861 0.64934 0.0
C1063 C 0.32082 0.41987 0.62513 0.0
C1064 C 0.30277 0.41055 0.61173 0.0
H1065 H 0.43226 0.47561 0.52894 0.0
H1066 H 0.39693 0.45456 0.54675 0.0
C1067 C 0.2822 0.40038 0.62231 0.0
C1068 C 0.34275 0.4304 0.61389 0.0
H1069 H 0.36672 0.47707 0.57539 0.0
C1070 C 0.36239 0.41852 0.61907 0.0
C1071 C 0.34433 0.45182 0.59799 0.0
C1072 C 0.324 0.46601 0.59246 0.0
C1073 C 0.38352 0.42728 0.60854 0.0
C1074 C 0.3851 0.44872 0.59269 0.0
C1075 C 0.36545 0.46054 0.58744 0.0
C1076 C 0.40709 0.45983 0.58197 0.0
C1077 C 0.40391 0.41326 0.61419 0.0
C1078 C 0.42451 0.46971 0.59585 0.0
C1079 C 0.44467 0.48172 0.58576 0.0
C1080 C 0.44779 0.48422 0.56153 0.0
C1081 C 0.43045 0.47392 0.54765 0.0
C1082 C 0.41023 0.46195 0.55779 0.0
H1083 H 0.39883 0.39364 0.62138 0.0
H1084 H 0.41501 0.41244 0.5986 0.0
H1085 H 0.41398 0.42332 0.62738 0.0
H1086 H 0.42229 0.46874 0.61452 0.0
H1087 H 0.45763 0.4895 0.59698 0.0
H1088 H 0.84656 0.72458 0.89383 0.0
H1089 H 0.87007 0.69613 0.91505 0.0
H1090 H 0.89141 0.66737 0.85091 0.0
H1091 H 0.86738 0.69517 0.82946 0.0
H1092 H 0.86826 0.63585 0.90656 0.0
H1093 H 0.95028 0.69625 0.892 0.0
H1094 H 0.92347 0.70989 0.89315 0.0
H1095 H 0.93065 0.69286 0.86869 0.0
C1096 C 0.85596 0.71196 0.88421 0.0
C1097 C 0.85504 0.71214 0.85992 0.0
C1098 C 0.86952 0.6959 0.89636 0.0
C1099 C 0.8825 0.67992 0.88444 0.0
C1100 C 0.88159 0.67982 0.86029 0.0
H1101 H 0.98065 0.57851 0.93395 0.0
H1102 H 0.95963 0.60783 0.9105 0.0
C1103 C 0.86794 0.69578 0.84811 0.0
C1104 C 0.89677 0.66305 0.8974 0.0
H1105 H 0.95108 0.65787 0.9144 0.0
C1106 C 0.88637 0.64056 0.90829 0.0
C1107 C 0.92035 0.66931 0.8993 0.0
C1108 C 0.93202 0.6934 0.88775 0.0
C1109 C 0.89903 0.62404 0.92124 0.0
C1110 C 0.92257 0.63064 0.92382 0.0
C1111 C 0.93302 0.65298 0.91253 0.0
C1112 C 0.93648 0.61463 0.93839 0.0
C1113 C 0.88713 0.5995 0.93174 0.0
C1114 C 0.93093 0.60954 0.96199 0.0
C1115 C 0.94277 0.59275 0.97534 0.0
C1116 C 0.9606 0.58102 0.96541 0.0
C1117 C 0.96698 0.58725 0.94208 0.0
C1118 C 0.95497 0.60394 0.92866 0.0
H1119 H 0.87116 0.59402 0.92276 0.0
H1120 H 0.89824 0.58385 0.93103 0.0
H1121 H 0.88266 0.6018 0.95016 0.0
H1122 H 0.91711 0.61815 0.96997 0.0
H1123 H 0.93763 0.58855 0.99334 0.0
H1124 H 0.42334 0.75091 0.14036 0.0
H1125 H 0.44291 0.78978 0.12177 0.0
H1126 H 0.37833 0.81781 0.10728 0.0
H1127 H 0.35866 0.77944 0.12646 0.0
H1128 H 0.43976 0.80914 0.07621 0.0
H1129 H 0.41246 0.87672 0.13811 0.0
H1130 H 0.40976 0.84293 0.14469 0.0
H1131 H 0.38937 0.85718 0.1268 0.0
C1132 C 0.4133 0.7655 0.13351 0.0
C1133 C 0.38942 0.76208 0.13499 0.0
C1134 C 0.42451 0.78763 0.12277 0.0
C1135 C 0.41209 0.80684 0.11345 0.0
C1136 C 0.38827 0.80344 0.11474 0.0
H1137 H 0.44139 0.94984 0.03504 0.0
H1138 H 0.42432 0.91122 0.05609 0.0
C1139 C 0.37705 0.78134 0.12546 0.0
C1140 C 0.42398 0.83012 0.10172 0.0
H1141 H 0.43007 0.89457 0.10273 0.0
C1142 C 0.43781 0.82782 0.0821 0.0
C1143 C 0.4214 0.85445 0.10946 0.0
C1144 C 0.40762 0.85804 0.13105 0.0
C1145 C 0.44861 0.84925 0.0696 0.0
C1146 C 0.44577 0.87359 0.07717 0.0
C1147 C 0.43216 0.87588 0.09694 0.0
C1148 C 0.45638 0.89697 0.06452 0.0
C1149 C 0.46242 0.84572 0.04802 0.0
C1150 C 0.4801 0.90191 0.06253 0.0
C1151 C 0.48994 0.92399 0.05048 0.0
C1152 C 0.47623 0.94158 0.04028 0.0
C1153 C 0.45247 0.93667 0.04258 0.0
C1154 C 0.44266 0.91462 0.05464 0.0
H1155 H 0.45864 0.82651 0.04165 0.0
H1156 H 0.45915 0.85998 0.03398 0.0
H1157 H 0.48075 0.84828 0.05191 0.0
H1158 H 0.491 0.88875 0.07038 0.0
H1159 H 0.50829 0.92724 0.04913 0.0
H1160 H 0.15135 0.22094 0.63737 0.0
H1161 H 0.13451 0.18501 0.61728 0.0
H1162 H 0.0676 0.20705 0.63161 0.0
H1163 H 0.08441 0.2438 0.65099 0.0
H1164 H 0.10475 0.14489 0.63296 0.0
H1165 H 0.06678 0.20056 0.56193 0.0
H1166 H 0.08721 0.21478 0.58117 0.0
H1167 H 0.05809 0.20732 0.59064 0.0
C1168 C 0.13305 0.21838 0.63604 0.0
C1169 C 0.11927 0.2355 0.64555 0.0
C1170 C 0.12344 0.19768 0.62469 0.0
C1171 C 0.09982 0.19357 0.62256 0.0
C1172 C 0.08591 0.21015 0.6326 0.0
H1173 H 0.02191 0.07037 0.55559 0.0
H1174 H 0.03236 0.10744 0.57779 0.0
C1175 C 0.09553 0.23098 0.64393 0.0
C1176 C 0.09003 0.17176 0.60991 0.0
H1177 H 0.05999 0.15602 0.56216 0.0
C1178 C 0.09489 0.14734 0.61754 0.0
C1179 C 0.07714 0.17496 0.58978 0.0
C1180 C 0.07211 0.20081 0.58022 0.0
C1181 C 0.08746 0.1261 0.60546 0.0
C1182 C 0.07499 0.12938 0.58512 0.0
C1183 C 0.06956 0.15364 0.57778 0.0
C1184 C 0.06843 0.10789 0.5707 0.0
C1185 C 0.09307 0.10028 0.61449 0.0
C1186 C 0.08522 0.09633 0.55894 0.0
C1187 C 0.07934 0.07533 0.54616 0.0
C1188 C 0.05652 0.0654 0.54495 0.0
C1189 C 0.03964 0.07749 0.55623 0.0
C1190 C 0.04556 0.09865 0.56892 0.0
H1191 H 0.09816 0.10019 0.63285 0.0
H1192 H 0.07832 0.08595 0.613 0.0
H1193 H 0.1074 0.09453 0.60399 0.0
H1194 H 0.10295 0.10342 0.55987 0.0
H1195 H 0.09277 0.06656 0.53765 0.0
H1196 H 0.63004 0.24794 0.41415 0.0
H1197 H 0.61233 0.28097 0.43353 0.0
H1198 H 0.58262 0.30459 0.36943 0.0
H1199 H 0.60087 0.27218 0.34961 0.0
H1200 H 0.6187 0.3374 0.41534 0.0
H1201 H 0.5296 0.29249 0.42283 0.0
H1202 H 0.55362 0.27401 0.42103 0.0
H1203 H 0.54511 0.29154 0.3958 0.0
C1204 C 0.61989 0.26024 0.40409 0.0
C1205 C 0.61698 0.25743 0.38027 0.0
C1206 C 0.60965 0.27895 0.41525 0.0
C1207 C 0.5961 0.29499 0.4029 0.0
C1208 C 0.59284 0.29212 0.37926 0.0
H1209 H 0.52085 0.41851 0.44426 0.0
H1210 H 0.53517 0.38372 0.42424 0.0
C1211 C 0.60321 0.27353 0.36801 0.0
C1212 C 0.58625 0.31551 0.41457 0.0
H1213 H 0.53665 0.3333 0.43654 0.0
C1214 C 0.60077 0.33656 0.42003 0.0
C1215 C 0.56286 0.31433 0.42034 0.0
C1216 C 0.54676 0.29188 0.41485 0.0
C1217 C 0.59247 0.35667 0.43112 0.0
C1218 C 0.56912 0.35526 0.43751 0.0
C1219 C 0.55455 0.33426 0.43176 0.0
C1220 C 0.5596 0.37537 0.45024 0.0
C1221 C 0.60872 0.37946 0.43543 0.0
C1222 C 0.56814 0.38173 0.47179 0.0
C1223 C 0.56014 0.40168 0.48315 0.0
C1224 C 0.54319 0.41542 0.47335 0.0
C1225 C 0.53395 0.40832 0.45224 0.0
C1226 C 0.54211 0.38846 0.44078 0.0
H1227 H 0.62393 0.38088 0.42365 0.0
H1228 H 0.60038 0.39725 0.4331 0.0
H1229 H 0.61463 0.37774 0.45347 0.0
H1230 H 0.58119 0.37142 0.47971 0.0
H1231 H 0.56742 0.40649 0.49952 0.0
loop_
_geom_bond_atom_site_label_1
_geom_bond_atom_site_label_2
_geom_bond_distance
_geom_bond_site_symmetry_2
_ccdc_geom_bond_type
C0 C1 1.384 . S
C0 H13 0.947 . S
C0 C35 1.382 . S
C1 C0 1.384 . S
C1 C2 1.378 . S
C2 C1 1.378 . S
C2 C3 1.378 . S
C2 H14 0.952 . S
C3 C2 1.378 . S
C3 H15 0.950 . S
C3 C34 1.383 . S
H4 C23 0.947 . S
H5 C24 0.946 . S
H6 C26 0.953 . S
H7 C27 0.945 . S
H8 C29 0.952 . S
H9 C30 0.949 . S
H10 C32 0.950 . S
H11 C33 0.948 . S
H12 C35 0.951 . S
H13 C0 0.947 . S
H14 C2 0.952 . S
H15 C3 0.950 . S
N16 C19 1.382 . S
N16 C21 1.363 . S
N17 C19 1.371 . S
N17 C20 1.372 . S
N18 C20 1.361 . S
N18 C21 1.377 . S
C19 N16 1.382 . S
C19 N17 1.371 . S
C19 C22 1.480 . S
C20 N17 1.372 . S
C20 N18 1.361 . S
C20 C28 1.457 . S
C21 N16 1.363 . S
C21 N18 1.377 . S
C21 C34 1.479 . S
C22 C19 1.480 . S
C22 C23 1.383 . S
C22 C27 1.385 . S
C23 H4 0.947 . S
C23 C22 1.383 . S
C23 C24 1.388 . S
C24 H5 0.946 . S
C24 C23 1.388 . S
C24 C25 1.384 . S
C25 C24 1.384 . S
C25 C26 1.377 . S
C26 H6 0.953 . S
C26 C25 1.377 . S
C26 C27 1.369 . S
C27 H7 0.945 . S
C27 C22 1.385 . S
C27 C26 1.369 . S
C28 C20 1.457 . S
C28 C29 1.372 . S
C28 C33 1.364 . S
C29 H8 0.952 . S
C29 C28 1.372 . S
C29 C30 1.389 . S
C30 H9 0.949 . S
C30 C29 1.389 . S
C30 C31 1.387 . S
C31 C30 1.387 . S
C31 C32 1.372 . S
C32 H10 0.950 . S
C32 C31 1.372 . S
C32 C33 1.379 . S
C33 H11 0.948 . S
C33 C28 1.364 . S
C33 C32 1.379 . S
C34 C3 1.383 . S
C34 C21 1.479 . S
C34 C35 1.398 . S
C35 C0 1.382 . S
C35 H12 0.951 . S
C35 C34 1.398 . S
C36 C37 1.384 . S
C36 H49 0.947 . S
C36 C71 1.382 . S
C37 C36 1.384 . S
C37 C38 1.378 . S
C38 C37 1.378 . S
C38 C39 1.378 . S
C38 H50 0.952 . S
C39 C38 1.378 . S
C39 H51 0.950 . S
C39 C70 1.383 . S
H40 C59 0.947 . S
H41 C60 0.946 . S
H42 C62 0.953 . S
H43 C63 0.945 . S
H44 C65 0.952 . S
H45 C66 0.949 . S
H46 C68 0.950 . S
H47 C69 0.948 . S
H48 C71 0.951 . S
H49 C36 0.947 . S
H50 C38 0.952 . S
H51 C39 0.950 . S
N52 C55 1.382 . S
N52 C57 1.363 . S
N53 C55 1.371 . S
N53 C56 1.372 . S
N54 C56 1.361 . S
N54 C57 1.377 . S
C55 N52 1.382 . S
C55 N53 1.371 . S
C55 C58 1.480 . S
C56 N53 1.372 . S
C56 N54 1.361 . S
C56 C64 1.457 . S
C57 N52 1.363 . S
C57 N54 1.377 . S
C57 C70 1.479 . S
C58 C55 1.480 . S
C58 C59 1.383 . S
C58 C63 1.385 . S
C59 H40 0.947 . S
C59 C58 1.383 . S
C59 C60 1.388 . S
C60 H41 0.946 . S
C60 C59 1.388 . S
C60 C61 1.384 . S
C61 C60 1.384 . S
C61 C62 1.377 . S
C62 H42 0.953 . S
C62 C61 1.377 . S
C62 C63 1.369 . S
C63 H43 0.945 . S
C63 C58 1.385 . S
C63 C62 1.369 . S
C64 C56 1.457 . S
C64 C65 1.372 . S
C64 C69 1.364 . S
C65 H44 0.952 . S
C65 C64 1.372 . S
C65 C66 1.389 . S
C66 H45 0.949 . S
C66 C65 1.389 . S
C66 C67 1.387 . S
C67 C66 1.387 . S
C67 C68 1.372 . S
C68 H46 0.950 . S
C68 C67 1.372 . S
C68 C69 1.379 . S
C69 H47 0.948 . S
C69 C64 1.364 . S
C69 C68 1.379 . S
C70 C39 1.383 . S
C70 C57 1.479 . S
C70 C71 1.398 . S
C71 C36 1.382 . S
C71 H48 0.951 . S
C71 C70 1.398 . S
C72 C73 1.384 . S
C72 H85 0.947 . S
C72 C107 1.382 . S
C73 C72 1.384 . S
C73 C74 1.378 . S
C74 C73 1.378 . S
C74 C75 1.378 . S
C74 H86 0.952 . S
C75 C74 1.378 . S
C75 H87 0.950 . S
C75 C106 1.383 . S
H76 C95 0.947 . S
H77 C96 0.946 . S
H78 C98 0.953 . S
H79 C99 0.945 . S
H80 C101 0.952 . S
H81 C102 0.949 . S
H82 C104 0.950 . S
H83 C105 0.948 . S
H84 C107 0.951 . S
H85 C72 0.947 . S
H86 C74 0.952 . S
H87 C75 0.950 . S
N88 C91 1.382 . S
N88 C93 1.363 . S
N89 C91 1.371 . S
N89 C92 1.372 . S
N90 C92 1.361 . S
N90 C93 1.377 . S
C91 N88 1.382 . S
C91 N89 1.371 . S
C91 C94 1.480 . S
C92 N89 1.372 . S
C92 N90 1.361 . S
C92 C100 1.457 . S
C93 N88 1.363 . S
C93 N90 1.377 . S
C93 C106 1.479 . S
C94 C91 1.480 . S
C94 C95 1.383 . S
C94 C99 1.385 . S
C95 H76 0.947 . S
C95 C94 1.383 . S
C95 C96 1.388 . S
C96 H77 0.946 . S
C96 C95 1.388 . S
C96 C97 1.384 . S
C97 C96 1.384 . S
C97 C98 1.377 . S
C98 H78 0.953 . S
C98 C97 1.377 . S
C98 C99 1.369 . S
C99 H79 0.945 . S
C99 C94 1.385 . S
C99 C98 1.369 . S
C100 C92 1.457 . S
C100 C101 1.372 . S
C100 C105 1.364 . S
C101 H80 0.952 . S
C101 C100 1.372 . S
C101 C102 1.389 . S
C102 H81 0.949 . S
C102 C101 1.389 . S
C102 C103 1.387 . S
C103 C102 1.387 . S
C103 C104 1.372 . S
C104 H82 0.950 . S
C104 C103 1.372 . S
C104 C105 1.379 . S
C105 H83 0.948 . S
C105 C100 1.364 . S
C105 C104 1.379 . S
C106 C75 1.383 . S
C106 C93 1.479 . S
C106 C107 1.398 . S
C107 C72 1.382 . S
C107 H84 0.951 . S
C107 C106 1.398 . S
C108 C109 1.384 . S
C108 H121 0.947 . S
C108 C143 1.382 . S
C109 C108 1.384 . S
C109 C110 1.378 . S
C110 C109 1.378 . S
C110 C111 1.378 . S
C110 H122 0.952 . S
C111 C110 1.378 . S
C111 H123 0.950 . S
C111 C142 1.383 . S
H112 C131 0.947 . S
H113 C132 0.946 . S
H114 C134 0.953 . S
H115 C135 0.945 . S
H116 C137 0.952 . S
H117 C138 0.949 . S
H118 C140 0.950 . S
H119 C141 0.948 . S
H120 C143 0.951 . S
H121 C108 0.947 . S
H122 C110 0.952 . S
H123 C111 0.950 . S
N124 C127 1.382 . S
N124 C129 1.363 . S
N125 C127 1.371 . S
N125 C128 1.372 . S
N126 C128 1.361 . S
N126 C129 1.377 . S
C127 N124 1.382 . S
C127 N125 1.371 . S
C127 C130 1.480 . S
C128 N125 1.372 . S
C128 N126 1.361 . S
C128 C136 1.457 . S
C129 N124 1.363 . S
C129 N126 1.377 . S
C129 C142 1.479 . S
C130 C127 1.480 . S
C130 C131 1.383 . S
C130 C135 1.385 . S
C131 H112 0.947 . S
C131 C130 1.383 . S
C131 C132 1.388 . S
C132 H113 0.946 . S
C132 C131 1.388 . S
C132 C133 1.384 . S
C133 C132 1.384 . S
C133 C134 1.377 . S
C134 H114 0.953 . S
C134 C133 1.377 . S
C134 C135 1.369 . S
C135 H115 0.945 . S
C135 C130 1.385 . S
C135 C134 1.369 . S
C136 C128 1.457 . S
C136 C137 1.372 . S
C136 C141 1.364 . S
C137 H116 0.952 . S
C137 C136 1.372 . S
C137 C138 1.389 . S
C138 H117 0.949 . S
C138 C137 1.389 . S
C138 C139 1.387 . S
C139 C138 1.387 . S
C139 C140 1.372 . S
C140 H118 0.950 . S
C140 C139 1.372 . S
C140 C141 1.379 . S
C141 H119 0.948 . S
C141 C136 1.364 . S
C141 C140 1.379 . S
C142 C111 1.383 . S
C142 C129 1.479 . S
C142 C143 1.398 . S
C143 C108 1.382 . S
C143 H120 0.951 . S
C143 C142 1.398 . S
C144 C145 1.384 . S
C144 H157 0.947 . S
C144 C179 1.382 . S
C145 C144 1.384 . S
C145 C146 1.378 . S
C146 C145 1.378 . S
C146 C147 1.378 . S
C146 H158 0.952 . S
C147 C146 1.378 . S
C147 H159 0.950 . S
C147 C178 1.383 . S
H148 C167 0.947 . S
H149 C168 0.946 . S
H150 C170 0.953 . S
H151 C171 0.945 . S
H152 C173 0.952 . S
H153 C174 0.949 . S
H154 C176 0.950 . S
H155 C177 0.948 . S
H156 C179 0.951 . S
H157 C144 0.947 . S
H158 C146 0.952 . S
H159 C147 0.950 . S
N160 C163 1.382 . S
N160 C165 1.363 . S
N161 C163 1.371 . S
N161 C164 1.372 . S
N162 C164 1.361 . S
N162 C165 1.377 . S
C163 N160 1.382 . S
C163 N161 1.371 . S
C163 C166 1.480 . S
C164 N161 1.372 . S
C164 N162 1.361 . S
C164 C172 1.457 . S
C165 N160 1.363 . S
C165 N162 1.377 . S
C165 C178 1.479 . S
C166 C163 1.480 . S
C166 C167 1.383 . S
C166 C171 1.385 . S
C167 H148 0.947 . S
C167 C166 1.383 . S
C167 C168 1.388 . S
C168 H149 0.946 . S
C168 C167 1.388 . S
C168 C169 1.384 . S
C169 C168 1.384 . S
C169 C170 1.377 . S
C170 H150 0.953 . S
C170 C169 1.377 . S
C170 C171 1.369 . S
C171 H151 0.945 . S
C171 C166 1.385 . S
C171 C170 1.369 . S
C172 C164 1.457 . S
C172 C173 1.372 . S
C172 C177 1.364 . S
C173 H152 0.952 . S
C173 C172 1.372 . S
C173 C174 1.389 . S
C174 H153 0.949 . S
C174 C173 1.389 . S
C174 C175 1.387 . S
C175 C174 1.387 . S
C175 C176 1.372 . S
C176 H154 0.950 . S
C176 C175 1.372 . S
C176 C177 1.379 . S
C177 H155 0.948 . S
C177 C172 1.364 . S
C177 C176 1.379 . S
C178 C147 1.383 . S
C178 C165 1.479 . S
C178 C179 1.398 . S
C179 C144 1.382 . S
C179 H156 0.951 . S
C179 C178 1.398 . S
C180 C181 1.384 . S
C180 H193 0.947 . S
C180 C215 1.382 . S
C181 C180 1.384 . S
C181 C182 1.378 . S
C182 C181 1.378 . S
C182 C183 1.378 . S
C182 H194 0.952 . S
C183 C182 1.378 . S
C183 H195 0.950 . S
C183 C214 1.383 . S
H184 C203 0.947 . S
H185 C204 0.946 . S
H186 C206 0.953 . S
H187 C207 0.945 . S
H188 C209 0.952 . S
H189 C210 0.949 . S
H190 C212 0.950 . S
H191 C213 0.948 . S
H192 C215 0.951 . S
H193 C180 0.947 . S
H194 C182 0.952 . S
H195 C183 0.950 . S
N196 C199 1.382 . S
N196 C201 1.363 . S
N197 C199 1.371 . S
N197 C200 1.372 . S
N198 C200 1.361 . S
N198 C201 1.377 . S
C199 N196 1.382 . S
C199 N197 1.371 . S
C199 C202 1.480 . S
C200 N197 1.372 . S
C200 N198 1.361 . S
C200 C208 1.457 . S
C201 N196 1.363 . S
C201 N198 1.377 . S
C201 C214 1.479 . S
C202 C199 1.480 . S
C202 C203 1.383 . S
C202 C207 1.385 . S
C203 H184 0.947 . S
C203 C202 1.383 . S
C203 C204 1.388 . S
C204 H185 0.946 . S
C204 C203 1.388 . S
C204 C205 1.384 . S
C205 C204 1.384 . S
C205 C206 1.377 . S
C206 H186 0.953 . S
C206 C205 1.377 . S
C206 C207 1.369 . S
C207 H187 0.945 . S
C207 C202 1.385 . S
C207 C206 1.369 . S
C208 C200 1.457 . S
C208 C209 1.372 . S
C208 C213 1.364 . S
C209 H188 0.952 . S
C209 C208 1.372 . S
C209 C210 1.389 . S
C210 H189 0.949 . S
C210 C209 1.389 . S
C210 C211 1.387 . S
C211 C210 1.387 . S
C211 C212 1.372 . S
C212 H190 0.950 . S
C212 C211 1.372 . S
C212 C213 1.379 . S
C213 H191 0.948 . S
C213 C208 1.364 . S
C213 C212 1.379 . S
C214 C183 1.383 . S
C214 C201 1.479 . S
C214 C215 1.398 . S
C215 C180 1.382 . S
C215 H192 0.951 . S
C215 C214 1.398 . S
C216 C217 1.384 . S
C216 H229 0.947 . S
C216 C251 1.382 . S
C217 C216 1.384 . S
C217 C218 1.378 . S
C218 C217 1.378 . S
C218 C219 1.378 . S
C218 H230 0.952 . S
C219 C218 1.378 . S
C219 H231 0.950 . S
C219 C250 1.383 . S
H220 C239 0.947 . S
H221 C240 0.946 . S
H222 C242 0.953 . S
H223 C243 0.945 . S
H224 C245 0.952 . S
H225 C246 0.949 . S
H226 C248 0.950 . S
H227 C249 0.948 . S
H228 C251 0.951 . S
H229 C216 0.947 . S
H230 C218 0.952 . S
H231 C219 0.950 . S
N232 C235 1.382 . S
N232 C237 1.363 . S
N233 C235 1.371 . S
N233 C236 1.372 . S
N234 C236 1.361 . S
N234 C237 1.377 . S
C235 N232 1.382 . S
C235 N233 1.371 . S
C235 C238 1.480 . S
C236 N233 1.372 . S
C236 N234 1.361 . S
C236 C244 1.457 . S
C237 N232 1.363 . S
C237 N234 1.377 . S
C237 C250 1.479 . S
C238 C235 1.480 . S
C238 C239 1.383 . S
C238 C243 1.385 . S
C239 H220 0.947 . S
C239 C238 1.383 . S
C239 C240 1.388 . S
C240 H221 0.946 . S
C240 C239 1.388 . S
C240 C241 1.384 . S
C241 C240 1.384 . S
C241 C242 1.377 . S
C242 H222 0.953 . S
C242 C241 1.377 . S
C242 C243 1.369 . S
C243 H223 0.945 . S
C243 C238 1.385 . S
C243 C242 1.369 . S
C244 C236 1.457 . S
C244 C245 1.372 . S
C244 C249 1.364 . S
C245 H224 0.952 . S
C245 C244 1.372 . S
C245 C246 1.389 . S
C246 H225 0.949 . S
C246 C245 1.389 . S
C246 C247 1.387 . S
C247 C246 1.387 . S
C247 C248 1.372 . S
C248 H226 0.950 . S
C248 C247 1.372 . S
C248 C249 1.379 . S
C249 H227 0.948 . S
C249 C244 1.364 . S
C249 C248 1.379 . S
C250 C219 1.383 . S
C250 C237 1.479 . S
C250 C251 1.398 . S
C251 C216 1.382 . S
C251 H228 0.951 . S
C251 C250 1.398 . S
C252 C253 1.384 . S
C252 H265 0.947 . S
C252 C287 1.382 . S
C253 C252 1.384 . S
C253 C254 1.378 . S
C254 C253 1.378 . S
C254 C255 1.378 . S
C254 H266 0.952 . S
C255 C254 1.378 . S
C255 H267 0.950 . S
C255 C286 1.383 . S
H256 C275 0.947 . S
H257 C276 0.946 . S
H258 C278 0.953 . S
H259 C279 0.945 . S
H260 C281 0.952 . S
H261 C282 0.949 . S
H262 C284 0.950 . S
H263 C285 0.948 . S
H264 C287 0.951 . S
H265 C252 0.947 . S
H266 C254 0.952 . S
H267 C255 0.950 . S
N268 C271 1.382 . S
N268 C273 1.363 . S
N269 C271 1.371 . S
N269 C272 1.372 . S
N270 C272 1.361 . S
N270 C273 1.377 . S
C271 N268 1.382 . S
C271 N269 1.371 . S
C271 C274 1.480 . S
C272 N269 1.372 . S
C272 N270 1.361 . S
C272 C280 1.457 . S
C273 N268 1.363 . S
C273 N270 1.377 . S
C273 C286 1.479 . S
C274 C271 1.480 . S
C274 C275 1.383 . S
C274 C279 1.385 . S
C275 H256 0.947 . S
C275 C274 1.383 . S
C275 C276 1.388 . S
C276 H257 0.946 . S
C276 C275 1.388 . S
C276 C277 1.384 . S
C277 C276 1.384 . S
C277 C278 1.377 . S
C278 H258 0.953 . S
C278 C277 1.377 . S
C278 C279 1.369 . S
C279 H259 0.945 . S
C279 C274 1.385 . S
C279 C278 1.369 . S
C280 C272 1.457 . S
C280 C281 1.372 . S
C280 C285 1.364 . S
C281 H260 0.952 . S
C281 C280 1.372 . S
C281 C282 1.389 . S
C282 H261 0.949 . S
C282 C281 1.389 . S
C282 C283 1.387 . S
C283 C282 1.387 . S
C283 C284 1.372 . S
C284 H262 0.950 . S
C284 C283 1.372 . S
C284 C285 1.379 . S
C285 H263 0.948 . S
C285 C280 1.364 . S
C285 C284 1.379 . S
C286 C255 1.383 . S
C286 C273 1.479 . S
C286 C287 1.398 . S
C287 C252 1.382 . S
C287 H264 0.951 . S
C287 C286 1.398 . S
Zn288 O294 1.969 1_545 S
Zn288 O295 1.965 1_545 S
Zn288 O299 2.024 . S
Zn288 O304 1.969 . S
Zn289 O296 1.969 . S
Zn289 O302 1.969 1_565 S
Zn289 O303 1.965 1_565 S
Zn289 O305 2.024 . S
C290 O291 1.229 . S
C290 O299 1.058 . S
O291 C290 1.229 . S
C292 O293 1.229 . S
C292 O305 1.058 . S
O293 C292 1.229 . S
O294 Zn288 1.969 1_565 S
O294 C297 1.267 . S
O295 Zn288 1.965 1_565 S
O295 C306 1.260 1_455 S
O296 Zn289 1.969 . S
O296 C306 1.258 . S
C297 O294 1.267 . S
C297 O298 1.228 . S
O298 C297 1.228 . S
O299 Zn288 2.024 . S
O299 C290 1.058 . S
C300 O301 1.228 . S
C300 O302 1.267 . S
O301 C300 1.228 . S
O302 Zn289 1.969 1_545 S
O302 C300 1.267 . S
O303 Zn289 1.965 1_545 S
O303 C307 1.260 1_655 S
O304 Zn288 1.969 . S
O304 C307 1.258 . S
O305 Zn289 2.024 . S
O305 C292 1.058 . S
C306 O295 1.260 1_655 S
C306 O296 1.258 . S
C307 O303 1.260 1_455 S
C307 O304 1.258 . S
Zn308 O314 1.969 . S
Zn308 O315 1.965 1_565 S
Zn308 O319 2.024 . S
Zn308 O324 1.932 1_556 S
Zn309 O316 1.969 . S
Zn309 O322 1.969 . S
Zn309 O323 1.965 1_545 S
Zn309 O325 2.024 . S
C310 O311 1.229 . S
C310 O319 1.058 . S
O311 C310 1.229 . S
C312 O313 1.229 . S
C312 O325 1.058 . S
O313 C312 1.229 . S
O314 Zn308 1.969 . S
O314 C317 1.267 . S
O315 Zn308 1.965 1_545 S
O315 C326 1.260 . S
O316 Zn309 1.969 . S
O316 C326 1.258 1_554 S
C317 O314 1.267 . S
C317 O318 1.228 . S
O318 C317 1.228 . S
O319 Zn308 2.024 . S
O319 C310 1.058 . S
C320 O321 1.228 . S
C320 O322 1.267 . S
O321 C320 1.228 . S
O322 Zn309 1.969 . S
O322 C320 1.267 . S
O323 Zn309 1.965 1_565 S
O323 C327 1.260 . S
O324 Zn308 1.932 1_554 S
O324 C327 1.299 . S
O325 Zn309 2.024 . S
O325 C312 1.058 . S
C326 O315 1.260 . S
C326 O316 1.258 1_556 S
C327 O323 1.260 . S
C327 O324 1.299 . S
Zn328 O334 1.969 . S
Zn328 O335 1.965 . S
Zn328 O339 2.024 . S
Zn328 O344 1.969 . S
Zn329 O336 1.969 . S
Zn329 O342 1.969 . S
Zn329 O343 1.965 . S
Zn329 O345 2.024 . S
C330 O331 1.229 . S
C330 O339 1.058 . S
O331 C330 1.229 . S
C332 O333 1.229 . S
C332 O345 1.058 . S
O333 C332 1.229 . S
O334 Zn328 1.969 . S
O334 C337 1.267 . S
O335 Zn328 1.965 . S
O335 C346 1.260 . S
O336 Zn329 1.969 . S
O336 C346 1.258 . S
C337 O334 1.267 . S
C337 O338 1.228 . S
O338 C337 1.228 . S
O339 Zn328 2.024 . S
O339 C330 1.058 . S
C340 O341 1.228 . S
C340 O342 1.267 . S
O341 C340 1.228 . S
O342 Zn329 1.969 . S
O342 C340 1.267 . S
O343 Zn329 1.965 . S
O343 C347 1.260 . S
O344 Zn328 1.969 . S
O344 C347 1.258 . S
O345 Zn329 2.024 . S
O345 C332 1.058 . S
C346 O335 1.260 . S
C346 O336 1.258 . S
C347 O343 1.260 . S
C347 O344 1.258 . S
Zn348 O354 1.969 . S
Zn348 O355 1.965 1_556 S
Zn348 O359 2.024 . S
Zn348 O364 1.969 1_655 S
Zn349 O356 1.969 . S
Zn349 O362 1.969 . S
Zn349 O363 1.965 1_554 S
Zn349 O365 2.024 . S
C350 O351 1.229 . S
C350 O359 1.058 . S
O351 C350 1.229 . S
C352 O353 1.229 . S
C352 O365 1.058 . S
O353 C352 1.229 . S
O354 Zn348 1.969 . S
O354 C357 1.267 . S
O355 Zn348 1.965 1_554 S
O355 C366 1.260 . S
O356 Zn349 1.969 . S
O356 C366 1.258 1_455 S
C357 O354 1.267 . S
C357 O358 1.228 . S
O358 C357 1.228 . S
O359 Zn348 2.024 . S
O359 C350 1.058 . S
C360 O361 1.228 . S
C360 O362 1.267 . S
O361 C360 1.228 . S
O362 Zn349 1.969 . S
O362 C360 1.267 . S
O363 Zn349 1.965 1_556 S
O363 C367 1.260 . S
O364 Zn348 1.969 1_455 S
O364 C367 1.258 . S
O365 Zn349 2.024 . S
O365 C352 1.058 . S
C366 O355 1.260 . S
C366 O356 1.258 1_655 S
C367 O363 1.260 . S
C367 O364 1.258 . S
H368 C376 0.929 . S
H369 C378 0.930 . S
H370 C380 0.930 . S
H371 C383 0.929 . S
H372 C386 0.930 . S
H373 C388 0.960 . S
H374 C388 0.960 . S
H375 C388 0.960 . S
C376 H368 0.929 . S
C376 C377 1.377 . S
C376 C378 1.384 . S
C377 C376 1.377 . S
C377 C383 1.390 . S
C378 H369 0.930 . S
C378 C376 1.384 . S
C378 C379 1.372 . S
C379 C378 1.372 . S
C379 C380 1.400 . S
C379 C384 1.490 . S
C380 H370 0.930 . S
C380 C379 1.400 . S
C380 C383 1.386 . S
H381 C397 0.930 . S
H382 C398 0.931 . S
C383 H371 0.929 . S
C383 C377 1.390 . S
C383 C380 1.386 . S
C384 C379 1.490 . S
C384 C386 1.395 . S
C384 C387 1.403 . S
H385 C391 0.930 . S
C386 H372 0.930 . S
C386 C384 1.395 . S
C386 C389 1.403 . S
C387 C384 1.403 . S
C387 C388 1.524 . S
C387 C391 1.400 . S
C388 H373 0.960 . S
C388 H374 0.960 . S
C388 H375 0.960 . S
C388 C387 1.524 . S
C389 C386 1.403 . S
C389 C390 1.392 . S
C389 C393 1.495 . S
C390 C389 1.392 . S
C390 C391 1.385 . S
C390 C392 1.478 . S
C391 H385 0.930 . S
C391 C387 1.400 . S
C391 C390 1.385 . S
C392 C390 1.478 . S
C392 C394 1.381 . S
C392 C398 1.383 . S
C393 C389 1.495 . S
C393 H399 0.959 . S
C393 H400 0.961 . S
C393 H401 0.960 . S
C394 C392 1.381 . S
C394 C395 1.394 . S
C394 H402 0.930 . S
C395 C394 1.394 . S
C395 C396 1.383 . S
C395 H403 0.929 . S
C396 C395 1.383 . S
C396 C397 1.377 . S
C397 H381 0.930 . S
C397 C396 1.377 . S
C397 C398 1.379 . S
C398 H382 0.931 . S
C398 C392 1.383 . S
C398 C397 1.379 . S
H399 C393 0.959 . S
H400 C393 0.961 . S
H401 C393 0.960 . S
H402 C394 0.930 . S
H403 C395 0.929 . S
H404 C412 0.929 . S
H405 C414 0.930 . S
H406 C416 0.930 . S
H407 C419 0.929 . S
H408 C422 0.930 . S
H409 C424 0.960 . S
H410 C424 0.960 . S
H411 C424 0.960 . S
C412 H404 0.929 . S
C412 C413 1.377 . S
C412 C414 1.384 . S
C413 C412 1.377 . S
C413 C419 1.390 . S
C414 H405 0.930 . S
C414 C412 1.384 . S
C414 C415 1.372 . S
C415 C414 1.372 . S
C415 C416 1.400 . S
C415 C420 1.490 . S
C416 H406 0.930 . S
C416 C415 1.400 . S
C416 C419 1.386 . S
H417 C433 0.930 . S
H418 C434 0.931 . S
C419 H407 0.929 . S
C419 C413 1.390 . S
C419 C416 1.386 . S
C420 C415 1.490 . S
C420 C422 1.395 . S
C420 C423 1.403 . S
H421 C427 0.930 . S
C422 H408 0.930 . S
C422 C420 1.395 . S
C422 C425 1.403 . S
C423 C420 1.403 . S
C423 C424 1.524 . S
C423 C427 1.400 . S
C424 H409 0.960 . S
C424 H410 0.960 . S
C424 H411 0.960 . S
C424 C423 1.524 . S
C425 C422 1.403 . S
C425 C426 1.392 . S
C425 C429 1.495 . S
C426 C425 1.392 . S
C426 C427 1.385 . S
C426 C428 1.478 . S
C427 H421 0.930 . S
C427 C423 1.400 . S
C427 C426 1.385 . S
C428 C426 1.478 . S
C428 C430 1.381 . S
C428 C434 1.383 . S
C429 C425 1.495 . S
C429 H435 0.959 . S
C429 H436 0.961 . S
C429 H437 0.960 . S
C430 C428 1.381 . S
C430 C431 1.394 . S
C430 H438 0.930 . S
C431 C430 1.394 . S
C431 C432 1.383 . S
C431 H439 0.929 . S
C432 C431 1.383 . S
C432 C433 1.377 . S
C433 H417 0.930 . S
C433 C432 1.377 . S
C433 C434 1.379 . S
C434 H418 0.931 . S
C434 C428 1.383 . S
C434 C433 1.379 . S
H435 C429 0.959 . S
H436 C429 0.961 . S
H437 C429 0.960 . S
H438 C430 0.930 . S
H439 C431 0.929 . S
H440 C448 0.929 . S
H441 C450 0.930 . S
H442 C452 0.930 . S
H443 C455 0.929 . S
H444 C458 0.930 . S
H445 C460 0.960 . S
H446 C460 0.960 . S
H447 C460 0.960 . S
C448 H440 0.929 . S
C448 C449 1.377 . S
C448 C450 1.384 . S
C449 C448 1.377 . S
C449 C455 1.390 . S
C450 H441 0.930 . S
C450 C448 1.384 . S
C450 C451 1.372 . S
C451 C450 1.372 . S
C451 C452 1.400 . S
C451 C456 1.490 . S
C452 H442 0.930 . S
C452 C451 1.400 . S
C452 C455 1.386 . S
H453 C469 0.930 . S
H454 C470 0.931 . S
C455 H443 0.929 . S
C455 C449 1.390 . S
C455 C452 1.386 . S
C456 C451 1.490 . S
C456 C458 1.395 . S
C456 C459 1.403 . S
H457 C463 0.930 . S
C458 H444 0.930 . S
C458 C456 1.395 . S
C458 C461 1.403 . S
C459 C456 1.403 . S
C459 C460 1.524 . S
C459 C463 1.400 . S
C460 H445 0.960 . S
C460 H446 0.960 . S
C460 H447 0.960 . S
C460 C459 1.524 . S
C461 C458 1.403 . S
C461 C462 1.392 . S
C461 C465 1.495 . S
C462 C461 1.392 . S
C462 C463 1.385 . S
C462 C464 1.478 . S
C463 H457 0.930 . S
C463 C459 1.400 . S
C463 C462 1.385 . S
C464 C462 1.478 . S
C464 C466 1.381 . S
C464 C470 1.383 . S
C465 C461 1.495 . S
C465 H471 0.959 . S
C465 H472 0.961 . S
C465 H473 0.960 . S
C466 C464 1.381 . S
C466 C467 1.394 . S
C466 H474 0.930 . S
C467 C466 1.394 . S
C467 C468 1.383 . S
C467 H475 0.929 . S
C468 C467 1.383 . S
C468 C469 1.377 . S
C469 H453 0.930 . S
C469 C468 1.377 . S
C469 C470 1.379 . S
C470 H454 0.931 . S
C470 C464 1.383 . S
C470 C469 1.379 . S
H471 C465 0.959 . S
H472 C465 0.961 . S
H473 C465 0.960 . S
H474 C466 0.930 . S
H475 C467 0.929 . S
H476 C484 0.929 . S
H477 C486 0.930 . S
H478 C488 0.930 . S
H479 C491 0.929 . S
H480 C494 0.930 . S
H481 C496 0.960 . S
H482 C496 0.960 . S
H483 C496 0.960 . S
C484 H476 0.929 . S
C484 C485 1.377 . S
C484 C486 1.384 . S
C485 C484 1.377 . S
C485 C491 1.390 . S
C486 H477 0.930 . S
C486 C484 1.384 . S
C486 C487 1.372 . S
C487 C486 1.372 . S
C487 C488 1.400 . S
C487 C492 1.490 . S
C488 H478 0.930 . S
C488 C487 1.400 . S
C488 C491 1.386 . S
H489 C505 0.930 . S
H490 C506 0.931 . S
C491 H479 0.929 . S
C491 C485 1.390 . S
C491 C488 1.386 . S
C492 C487 1.490 . S
C492 C494 1.395 . S
C492 C495 1.403 . S
H493 C499 0.930 . S
C494 H480 0.930 . S
C494 C492 1.395 . S
C494 C497 1.403 . S
C495 C492 1.403 . S
C495 C496 1.524 . S
C495 C499 1.400 . S
C496 H481 0.960 . S
C496 H482 0.960 . S
C496 H483 0.960 . S
C496 C495 1.524 . S
C497 C494 1.403 . S
C497 C498 1.392 . S
C497 C501 1.495 . S
C498 C497 1.392 . S
C498 C499 1.385 . S
C498 C500 1.478 . S
C499 H493 0.930 . S
C499 C495 1.400 . S
C499 C498 1.385 . S
C500 C498 1.478 . S
C500 C502 1.381 . S
C500 C506 1.383 . S
C501 C497 1.495 . S
C501 H507 0.959 . S
C501 H508 0.961 . S
C501 H509 0.960 . S
C502 C500 1.381 . S
C502 C503 1.394 . S
C502 H510 0.930 . S
C503 C502 1.394 . S
C503 C504 1.383 . S
C503 H511 0.929 . S
C504 C503 1.383 . S
C504 C505 1.377 . S
C505 H489 0.930 . S
C505 C504 1.377 . S
C505 C506 1.379 . S
C506 H490 0.931 . S
C506 C500 1.383 . S
C506 C505 1.379 . S
H507 C501 0.959 . S
H508 C501 0.961 . S
H509 C501 0.960 . S
H510 C502 0.930 . S
H511 C503 0.929 . S
H512 C520 0.929 . S
H513 C522 0.930 . S
H514 C524 0.930 . S
H515 C527 0.929 . S
H516 C530 0.930 . S
H517 C532 0.960 . S
H518 C532 0.960 . S
H519 C532 0.960 . S
C520 H512 0.929 . S
C520 C521 1.377 . S
C520 C522 1.384 . S
C521 C520 1.377 . S
C521 C527 1.390 . S
C522 H513 0.930 . S
C522 C520 1.384 . S
C522 C523 1.372 . S
C523 C522 1.372 . S
C523 C524 1.400 . S
C523 C528 1.490 . S
C524 H514 0.930 . S
C524 C523 1.400 . S
C524 C527 1.386 . S
H525 C541 0.930 . S
H526 C542 0.931 . S
C527 H515 0.929 . S
C527 C521 1.390 . S
C527 C524 1.386 . S
C528 C523 1.490 . S
C528 C530 1.395 . S
C528 C531 1.403 . S
H529 C535 0.930 . S
C530 H516 0.930 . S
C530 C528 1.395 . S
C530 C533 1.403 . S
C531 C528 1.403 . S
C531 C532 1.524 . S
C531 C535 1.400 . S
C532 H517 0.960 . S
C532 H518 0.960 . S
C532 H519 0.960 . S
C532 C531 1.524 . S
C533 C530 1.403 . S
C533 C534 1.392 . S
C533 C537 1.495 . S
C534 C533 1.392 . S
C534 C535 1.385 . S
C534 C536 1.478 . S
C535 H529 0.930 . S
C535 C531 1.400 . S
C535 C534 1.385 . S
C536 C534 1.478 . S
C536 C538 1.381 . S
C536 C542 1.383 . S
C537 C533 1.495 . S
C537 H543 0.959 . S
C537 H544 0.961 . S
C537 H545 0.960 . S
C538 C536 1.381 . S
C538 C539 1.394 . S
C538 H546 0.930 . S
C539 C538 1.394 . S
C539 C540 1.383 . S
C539 H547 0.929 . S
C540 C539 1.383 . S
C540 C541 1.377 . S
C541 H525 0.930 . S
C541 C540 1.377 . S
C541 C542 1.379 . S
C542 H526 0.931 . S
C542 C536 1.383 . S
C542 C541 1.379 . S
H543 C537 0.959 . S
H544 C537 0.961 . S
H545 C537 0.960 . S
H546 C538 0.930 . S
H547 C539 0.929 . S
H548 C556 0.929 . S
H549 C558 0.930 . S
H550 C560 0.930 . S
H551 C563 0.929 . S
H552 C566 0.930 . S
H553 C568 0.960 . S
H554 C568 0.960 . S
H555 C568 0.960 . S
C556 H548 0.929 . S
C556 C557 1.377 . S
C556 C558 1.384 . S
C557 C556 1.377 . S
C557 C563 1.390 . S
C558 H549 0.930 . S
C558 C556 1.384 . S
C558 C559 1.372 . S
C559 C558 1.372 . S
C559 C560 1.400 . S
C559 C564 1.490 . S
C560 H550 0.930 . S
C560 C559 1.400 . S
C560 C563 1.386 . S
H561 C577 0.930 . S
H562 C578 0.931 . S
C563 H551 0.929 . S
C563 C557 1.390 . S
C563 C560 1.386 . S
C564 C559 1.490 . S
C564 C566 1.395 . S
C564 C567 1.403 . S
H565 C571 0.930 . S
C566 H552 0.930 . S
C566 C564 1.395 . S
C566 C569 1.403 . S
C567 C564 1.403 . S
C567 C568 1.524 . S
C567 C571 1.400 . S
C568 H553 0.960 . S
C568 H554 0.960 . S
C568 H555 0.960 . S
C568 C567 1.524 . S
C569 C566 1.403 . S
C569 C570 1.392 . S
C569 C573 1.495 . S
C570 C569 1.392 . S
C570 C571 1.385 . S
C570 C572 1.478 . S
C571 H565 0.930 . S
C571 C567 1.400 . S
C571 C570 1.385 . S
C572 C570 1.478 . S
C572 C574 1.381 . S
C572 C578 1.383 . S
C573 C569 1.495 . S
C573 H579 0.959 . S
C573 H580 0.961 . S
C573 H581 0.960 . S
C574 C572 1.381 . S
C574 C575 1.394 . S
C574 H582 0.930 . S
C575 C574 1.394 . S
C575 C576 1.383 . S
C575 H583 0.929 . S
C576 C575 1.383 . S
C576 C577 1.377 . S
C577 H561 0.930 . S
C577 C576 1.377 . S
C577 C578 1.379 . S
C578 H562 0.931 . S
C578 C572 1.383 . S
C578 C577 1.379 . S
H579 C573 0.959 . S
H580 C573 0.961 . S
H581 C573 0.960 . S
H582 C574 0.930 . S
H583 C575 0.929 . S
H584 C592 0.929 . S
H585 C594 0.930 . S
H586 C596 0.930 . S
H587 C599 0.929 . S
H588 C602 0.930 . S
H589 C604 0.960 . S
H590 C604 0.960 . S
H591 C604 0.960 . S
C592 H584 0.929 . S
C592 C593 1.377 . S
C592 C594 1.384 . S
C593 C592 1.377 . S
C593 C599 1.390 . S
C594 H585 0.930 . S
C594 C592 1.384 . S
C594 C595 1.372 . S
C595 C594 1.372 . S
C595 C596 1.400 . S
C595 C600 1.490 . S
C596 H586 0.930 . S
C596 C595 1.400 . S
C596 C599 1.386 . S
H597 C613 0.930 . S
H598 C614 0.931 . S
C599 H587 0.929 . S
C599 C593 1.390 . S
C599 C596 1.386 . S
C600 C595 1.490 . S
C600 C602 1.395 . S
C600 C603 1.403 . S
H601 C607 0.930 . S
C602 H588 0.930 . S
C602 C600 1.395 . S
C602 C605 1.403 . S
C603 C600 1.403 . S
C603 C604 1.524 . S
C603 C607 1.400 . S
C604 H589 0.960 . S
C604 H590 0.960 . S
C604 H591 0.960 . S
C604 C603 1.524 . S
C605 C602 1.403 . S
C605 C606 1.392 . S
C605 C609 1.495 . S
C606 C605 1.392 . S
C606 C607 1.385 . S
C606 C608 1.478 . S
C607 H601 0.930 . S
C607 C603 1.400 . S
C607 C606 1.385 . S
C608 C606 1.478 . S
C608 C610 1.381 . S
C608 C614 1.383 . S
C609 C605 1.495 . S
C609 H615 0.959 . S
C609 H616 0.961 . S
C609 H617 0.960 . S
C610 C608 1.381 . S
C610 C611 1.394 . S
C610 H618 0.930 . S
C611 C610 1.394 . S
C611 C612 1.383 . S
C611 H619 0.929 . S
C612 C611 1.383 . S
C612 C613 1.377 . S
C613 H597 0.930 . S
C613 C612 1.377 . S
C613 C614 1.379 . S
C614 H598 0.931 . S
C614 C608 1.383 . S
C614 C613 1.379 . S
H615 C609 0.959 . S
H616 C609 0.961 . S
H617 C609 0.960 . S
H618 C610 0.930 . S
H619 C611 0.929 . S
H620 C628 0.929 . S
H621 C630 0.930 . S
H622 C632 0.930 . S
H623 C635 0.929 . S
H624 C638 0.930 . S
H625 C640 0.960 . S
H626 C640 0.960 . S
H627 C640 0.960 . S
C628 H620 0.929 . S
C628 C629 1.377 . S
C628 C630 1.384 . S
C629 C628 1.377 . S
C629 C635 1.390 . S
C630 H621 0.930 . S
C630 C628 1.384 . S
C630 C631 1.372 . S
C631 C630 1.372 . S
C631 C632 1.400 . S
C631 C636 1.490 . S
C632 H622 0.930 . S
C632 C631 1.400 . S
C632 C635 1.386 . S
H633 C649 0.930 . S
H634 C650 0.931 . S
C635 H623 0.929 . S
C635 C629 1.390 . S
C635 C632 1.386 . S
C636 C631 1.490 . S
C636 C638 1.395 . S
C636 C639 1.403 . S
H637 C643 0.930 . S
C638 H624 0.930 . S
C638 C636 1.395 . S
C638 C641 1.403 . S
C639 C636 1.403 . S
C639 C640 1.524 . S
C639 C643 1.400 . S
C640 H625 0.960 . S
C640 H626 0.960 . S
C640 H627 0.960 . S
C640 C639 1.524 . S
C641 C638 1.403 . S
C641 C642 1.392 . S
C641 C645 1.495 . S
C642 C641 1.392 . S
C642 C643 1.385 . S
C642 C644 1.478 . S
C643 H637 0.930 . S
C643 C639 1.400 . S
C643 C642 1.385 . S
C644 C642 1.478 . S
C644 C646 1.381 . S
C644 C650 1.383 . S
C645 C641 1.495 . S
C645 H651 0.959 . S
C645 H652 0.961 . S
C645 H653 0.960 . S
C646 C644 1.381 . S
C646 C647 1.394 . S
C646 H654 0.930 . S
C647 C646 1.394 . S
C647 C648 1.383 . S
C647 H655 0.929 . S
C648 C647 1.383 . S
C648 C649 1.377 . S
C649 H633 0.930 . S
C649 C648 1.377 . S
C649 C650 1.379 . S
C650 H634 0.931 . S
C650 C644 1.383 . S
C650 C649 1.379 . S
H651 C645 0.959 . S
H652 C645 0.961 . S
H653 C645 0.960 . S
H654 C646 0.930 . S
H655 C647 0.929 . S
H656 C664 0.929 . S
H657 C666 0.930 . S
H658 C668 0.930 . S
H659 C671 0.929 . S
H660 C674 0.930 . S
H661 C676 0.960 . S
H662 C676 0.960 . S
H663 C676 0.960 . S
C664 H656 0.929 . S
C664 C665 1.377 . S
C664 C666 1.384 . S
C665 C664 1.377 . S
C665 C671 1.390 . S
C666 H657 0.930 . S
C666 C664 1.384 . S
C666 C667 1.372 . S
C667 C666 1.372 . S
C667 C668 1.400 . S
C667 C672 1.490 . S
C668 H658 0.930 . S
C668 C667 1.400 . S
C668 C671 1.386 . S
H669 C685 0.930 . S
H670 C686 0.931 . S
C671 H659 0.929 . S
C671 C665 1.390 . S
C671 C668 1.386 . S
C672 C667 1.490 . S
C672 C674 1.395 . S
C672 C675 1.403 . S
H673 C679 0.930 . S
C674 H660 0.930 . S
C674 C672 1.395 . S
C674 C677 1.403 . S
C675 C672 1.403 . S
C675 C676 1.524 . S
C675 C679 1.400 . S
C676 H661 0.960 . S
C676 H662 0.960 . S
C676 H663 0.960 . S
C676 C675 1.524 . S
C677 C674 1.403 . S
C677 C678 1.392 . S
C677 C681 1.495 . S
C678 C677 1.392 . S
C678 C679 1.385 . S
C678 C680 1.478 . S
C679 H673 0.930 . S
C679 C675 1.400 . S
C679 C678 1.385 . S
C680 C678 1.478 . S
C680 C682 1.381 . S
C680 C686 1.383 . S
C681 C677 1.495 . S
C681 H687 0.959 . S
C681 H688 0.961 . S
C681 H689 0.960 . S
C682 C680 1.381 . S
C682 C683 1.394 . S
C682 H690 0.930 . S
C683 C682 1.394 . S
C683 C684 1.383 . S
C683 H691 0.929 . S
C684 C683 1.383 . S
C684 C685 1.377 . S
C685 H669 0.930 . S
C685 C684 1.377 . S
C685 C686 1.379 . S
C686 H670 0.931 . S
C686 C680 1.383 . S
C686 C685 1.379 . S
H687 C681 0.959 . S
H688 C681 0.961 . S
H689 C681 0.960 . S
H690 C682 0.930 . S
H691 C683 0.929 . S
H692 C700 0.929 . S
H693 C702 0.930 . S
H694 C704 0.930 . S
H695 C707 0.929 . S
H696 C710 0.930 . S
H697 C712 0.960 . S
H698 C712 0.960 . S
H699 C712 0.960 . S
C700 H692 0.929 . S
C700 C701 1.377 . S
C700 C702 1.384 . S
C701 C700 1.377 . S
C701 C707 1.390 . S
C702 H693 0.930 . S
C702 C700 1.384 . S
C702 C703 1.372 . S
C703 C702 1.372 . S
C703 C704 1.400 . S
C703 C708 1.490 . S
C704 H694 0.930 . S
C704 C703 1.400 . S
C704 C707 1.386 . S
H705 C721 0.930 . S
H706 C722 0.931 . S
C707 H695 0.929 . S
C707 C701 1.390 . S
C707 C704 1.386 . S
C708 C703 1.490 . S
C708 C710 1.395 . S
C708 C711 1.403 . S
H709 C715 0.930 . S
C710 H696 0.930 . S
C710 C708 1.395 . S
C710 C713 1.403 . S
C711 C708 1.403 . S
C711 C712 1.524 . S
C711 C715 1.400 . S
C712 H697 0.960 . S
C712 H698 0.960 . S
C712 H699 0.960 . S
C712 C711 1.524 . S
C713 C710 1.403 . S
C713 C714 1.392 . S
C713 C717 1.495 . S
C714 C713 1.392 . S
C714 C715 1.385 . S
C714 C716 1.478 . S
C715 H709 0.930 . S
C715 C711 1.400 . S
C715 C714 1.385 . S
C716 C714 1.478 . S
C716 C718 1.381 . S
C716 C722 1.383 . S
C717 C713 1.495 . S
C717 H723 0.959 . S
C717 H724 0.961 . S
C717 H725 0.960 . S
C718 C716 1.381 . S
C718 C719 1.394 . S
C718 H726 0.930 . S
C719 C718 1.394 . S
C719 C720 1.383 . S
C719 H727 0.929 . S
C720 C719 1.383 . S
C720 C721 1.377 . S
C721 H705 0.930 . S
C721 C720 1.377 . S
C721 C722 1.379 . S
C722 H706 0.931 . S
C722 C716 1.383 . S
C722 C721 1.379 . S
H723 C717 0.959 . S
H724 C717 0.961 . S
H725 C717 0.960 . S
H726 C718 0.930 . S
H727 C719 0.929 . S
H728 C736 0.929 . S
H729 C738 0.930 . S
H730 C740 0.930 . S
H731 C743 0.929 . S
H732 C746 0.930 . S
H733 C748 0.960 . S
H734 C748 0.960 . S
H735 C748 0.960 . S
C736 H728 0.929 . S
C736 C737 1.377 . S
C736 C738 1.384 . S
C737 C736 1.377 . S
C737 C743 1.390 . S
C738 H729 0.930 . S
C738 C736 1.384 . S
C738 C739 1.372 . S
C739 C738 1.372 . S
C739 C740 1.400 . S
C739 C744 1.490 . S
C740 H730 0.930 . S
C740 C739 1.400 . S
C740 C743 1.386 . S
H741 C757 0.930 . S
H742 C758 0.931 . S
C743 H731 0.929 . S
C743 C737 1.390 . S
C743 C740 1.386 . S
C744 C739 1.490 . S
C744 C746 1.395 . S
C744 C747 1.403 . S
H745 C751 0.930 . S
C746 H732 0.930 . S
C746 C744 1.395 . S
C746 C749 1.403 . S
C747 C744 1.403 . S
C747 C748 1.524 . S
C747 C751 1.400 . S
C748 H733 0.960 . S
C748 H734 0.960 . S
C748 H735 0.960 . S
C748 C747 1.524 . S
C749 C746 1.403 . S
C749 C750 1.392 . S
C749 C753 1.495 . S
C750 C749 1.392 . S
C750 C751 1.385 . S
C750 C752 1.478 . S
C751 H745 0.930 . S
C751 C747 1.400 . S
C751 C750 1.385 . S
C752 C750 1.478 . S
C752 C754 1.381 . S
C752 C758 1.383 . S
C753 C749 1.495 . S
C753 H759 0.959 . S
C753 H760 0.961 . S
C753 H761 0.960 . S
C754 C752 1.381 . S
C754 C755 1.394 . S
C754 H762 0.930 . S
C755 C754 1.394 . S
C755 C756 1.383 . S
C755 H763 0.929 . S
C756 C755 1.383 . S
C756 C757 1.377 . S
C757 H741 0.930 . S
C757 C756 1.377 . S
C757 C758 1.379 . S
C758 H742 0.931 . S
C758 C752 1.383 . S
C758 C757 1.379 . S
H759 C753 0.959 . S
H760 C753 0.961 . S
H761 C753 0.960 . S
H762 C754 0.930 . S
H763 C755 0.929 . S
H764 C772 0.929 . S
H765 C774 0.930 . S
H766 C776 0.930 . S
H767 C779 0.929 . S
H768 C782 0.930 . S
H769 C784 0.960 . S
H770 C784 0.960 . S
H771 C784 0.960 . S
C772 H764 0.929 . S
C772 C773 1.377 . S
C772 C774 1.384 . S
C773 C772 1.377 . S
C773 C779 1.390 . S
C774 H765 0.930 . S
C774 C772 1.384 . S
C774 C775 1.372 . S
C775 C774 1.372 . S
C775 C776 1.400 . S
C775 C780 1.490 . S
C776 H766 0.930 . S
C776 C775 1.400 . S
C776 C779 1.386 . S
H777 C793 0.930 . S
H778 C794 0.931 . S
C779 H767 0.929 . S
C779 C773 1.390 . S
C779 C776 1.386 . S
C780 C775 1.490 . S
C780 C782 1.395 . S
C780 C783 1.403 . S
H781 C787 0.930 . S
C782 H768 0.930 . S
C782 C780 1.395 . S
C782 C785 1.403 . S
C783 C780 1.403 . S
C783 C784 1.524 . S
C783 C787 1.400 . S
C784 H769 0.960 . S
C784 H770 0.960 . S
C784 H771 0.960 . S
C784 C783 1.524 . S
C785 C782 1.403 . S
C785 C786 1.392 . S
C785 C789 1.495 . S
C786 C785 1.392 . S
C786 C787 1.385 . S
C786 C788 1.478 . S
C787 H781 0.930 . S
C787 C783 1.400 . S
C787 C786 1.385 . S
C788 C786 1.478 . S
C788 C790 1.381 . S
C788 C794 1.383 . S
C789 C785 1.495 . S
C789 H795 0.959 . S
C789 H796 0.961 . S
C789 H797 0.960 . S
C790 C788 1.381 . S
C790 C791 1.394 . S
C790 H798 0.930 . S
C791 C790 1.394 . S
C791 C792 1.383 . S
C791 H799 0.929 . S
C792 C791 1.383 . S
C792 C793 1.377 . S
C793 H777 0.930 . S
C793 C792 1.377 . S
C793 C794 1.379 . S
C794 H778 0.931 . S
C794 C788 1.383 . S
C794 C793 1.379 . S
H795 C789 0.959 . S
H796 C789 0.961 . S
H797 C789 0.960 . S
H798 C790 0.930 . S
H799 C791 0.929 . S
H800 C808 0.929 . S
H801 C810 0.930 . S
H802 C812 0.930 . S
H803 C815 0.929 . S
H804 C818 0.930 . S
H805 C820 0.960 . S
H806 C820 0.960 . S
H807 C820 0.960 . S
C808 H800 0.929 . S
C808 C809 1.377 . S
C808 C810 1.384 . S
C809 C808 1.377 . S
C809 C815 1.390 . S
C810 H801 0.930 . S
C810 C808 1.384 . S
C810 C811 1.372 . S
C811 C810 1.372 . S
C811 C812 1.400 . S
C811 C816 1.490 . S
C812 H802 0.930 . S
C812 C811 1.400 . S
C812 C815 1.386 . S
H813 C829 0.930 . S
H814 C830 0.931 . S
C815 H803 0.929 . S
C815 C809 1.390 . S
C815 C812 1.386 . S
C816 C811 1.490 . S
C816 C818 1.395 . S
C816 C819 1.403 . S
H817 C823 0.930 . S
C818 H804 0.930 . S
C818 C816 1.395 . S
C818 C821 1.403 . S
C819 C816 1.403 . S
C819 C820 1.524 . S
C819 C823 1.400 . S
C820 H805 0.960 . S
C820 H806 0.960 . S
C820 H807 0.960 . S
C820 C819 1.524 . S
C821 C818 1.403 . S
C821 C822 1.392 . S
C821 C825 1.495 . S
C822 C821 1.392 . S
C822 C823 1.385 . S
C822 C824 1.478 . S
C823 H817 0.930 . S
C823 C819 1.400 . S
C823 C822 1.385 . S
C824 C822 1.478 . S
C824 C826 1.381 . S
C824 C830 1.383 . S
C825 C821 1.495 . S
C825 H831 0.959 . S
C825 H832 0.961 . S
C825 H833 0.960 . S
C826 C824 1.381 . S
C826 C827 1.394 . S
C826 H834 0.930 . S
C827 C826 1.394 . S
C827 C828 1.383 . S
C827 H835 0.929 . S
C828 C827 1.383 . S
C828 C829 1.377 . S
C829 H813 0.930 . S
C829 C828 1.377 . S
C829 C830 1.379 . S
C830 H814 0.931 . S
C830 C824 1.383 . S
C830 C829 1.379 . S
H831 C825 0.959 . S
H832 C825 0.961 . S
H833 C825 0.960 . S
H834 C826 0.930 . S
H835 C827 0.929 . S
H836 C844 0.929 . S
H837 C846 0.930 . S
H838 C848 0.930 . S
H839 C851 0.929 . S
H840 C854 0.930 . S
H841 C856 0.960 . S
H842 C856 0.960 . S
H843 C856 0.960 . S
C844 H836 0.929 . S
C844 C845 1.377 . S
C844 C846 1.384 . S
C845 C844 1.377 . S
C845 C851 1.390 . S
C846 H837 0.930 . S
C846 C844 1.384 . S
C846 C847 1.372 . S
C847 C846 1.372 . S
C847 C848 1.400 . S
C847 C852 1.490 . S
C848 H838 0.930 . S
C848 C847 1.400 . S
C848 C851 1.386 . S
H849 C865 0.930 . S
H850 C866 0.931 . S
C851 H839 0.929 . S
C851 C845 1.390 . S
C851 C848 1.386 . S
C852 C847 1.490 . S
C852 C854 1.395 . S
C852 C855 1.403 . S
H853 C859 0.930 . S
C854 H840 0.930 . S
C854 C852 1.395 . S
C854 C857 1.403 . S
C855 C852 1.403 . S
C855 C856 1.524 . S
C855 C859 1.400 . S
C856 H841 0.960 . S
C856 H842 0.960 . S
C856 H843 0.960 . S
C856 C855 1.524 . S
C857 C854 1.403 . S
C857 C858 1.392 . S
C857 C861 1.495 . S
C858 C857 1.392 . S
C858 C859 1.385 . S
C858 C860 1.478 . S
C859 H853 0.930 . S
C859 C855 1.400 . S
C859 C858 1.385 . S
C860 C858 1.478 . S
C860 C862 1.381 . S
C860 C866 1.383 . S
C861 C857 1.495 . S
C861 H867 0.959 . S
C861 H868 0.961 . S
C861 H869 0.960 . S
C862 C860 1.381 . S
C862 C863 1.394 . S
C862 H870 0.930 . S
C863 C862 1.394 . S
C863 C864 1.383 . S
C863 H871 0.929 . S
C864 C863 1.383 . S
C864 C865 1.377 . S
C865 H849 0.930 . S
C865 C864 1.377 . S
C865 C866 1.379 . S
C866 H850 0.931 . S
C866 C860 1.383 . S
C866 C865 1.379 . S
H867 C861 0.959 . S
H868 C861 0.961 . S
H869 C861 0.960 . S
H870 C862 0.930 . S
H871 C863 0.929 . S
H872 C880 0.929 . S
H873 C882 0.930 . S
H874 C884 0.930 . S
H875 C887 0.929 . S
H876 C890 0.930 . S
H877 C892 0.960 . S
H878 C892 0.960 . S
H879 C892 0.960 . S
C880 H872 0.929 . S
C880 C881 1.377 . S
C880 C882 1.384 . S
C881 C880 1.377 . S
C881 C887 1.390 . S
C882 H873 0.930 . S
C882 C880 1.384 . S
C882 C883 1.372 . S
C883 C882 1.372 . S
C883 C884 1.400 . S
C883 C888 1.490 . S
C884 H874 0.930 . S
C884 C883 1.400 . S
C884 C887 1.386 . S
H885 C901 0.930 . S
H886 C902 0.931 . S
C887 H875 0.929 . S
C887 C881 1.390 . S
C887 C884 1.386 . S
C888 C883 1.490 . S
C888 C890 1.395 . S
C888 C891 1.403 . S
H889 C895 0.930 . S
C890 H876 0.930 . S
C890 C888 1.395 . S
C890 C893 1.403 . S
C891 C888 1.403 . S
C891 C892 1.524 . S
C891 C895 1.400 . S
C892 H877 0.960 . S
C892 H878 0.960 . S
C892 H879 0.960 . S
C892 C891 1.524 . S
C893 C890 1.403 . S
C893 C894 1.392 . S
C893 C897 1.495 . S
C894 C893 1.392 . S
C894 C895 1.385 . S
C894 C896 1.478 . S
C895 H889 0.930 . S
C895 C891 1.400 . S
C895 C894 1.385 . S
C896 C894 1.478 . S
C896 C898 1.381 . S
C896 C902 1.383 . S
C897 C893 1.495 . S
C897 H903 0.959 . S
C897 H904 0.961 . S
C897 H905 0.960 . S
C898 C896 1.381 . S
C898 C899 1.394 . S
C898 H906 0.930 . S
C899 C898 1.394 . S
C899 C900 1.383 . S
C899 H907 0.929 . S
C900 C899 1.383 . S
C900 C901 1.377 . S
C901 H885 0.930 . S
C901 C900 1.377 . S
C901 C902 1.379 . S
C902 H886 0.931 . S
C902 C896 1.383 . S
C902 C901 1.379 . S
H903 C897 0.959 . S
H904 C897 0.961 . S
H905 C897 0.960 . S
H906 C898 0.930 . S
H907 C899 0.929 . S
H908 C916 0.929 . S
H909 C918 0.930 . S
H910 C920 0.930 . S
H911 C923 0.929 . S
H912 C926 0.930 . S
H913 C928 0.960 . S
H914 C928 0.960 . S
H915 C928 0.960 . S
C916 H908 0.929 . S
C916 C917 1.377 . S
C916 C918 1.384 . S
C917 C916 1.377 . S
C917 C923 1.390 . S
C918 H909 0.930 . S
C918 C916 1.384 . S
C918 C919 1.372 . S
C919 C918 1.372 . S
C919 C920 1.400 . S
C919 C924 1.490 . S
C920 H910 0.930 . S
C920 C919 1.400 . S
C920 C923 1.386 . S
H921 C937 0.930 . S
H922 C938 0.931 . S
C923 H911 0.929 . S
C923 C917 1.390 . S
C923 C920 1.386 . S
C924 C919 1.490 . S
C924 C926 1.395 . S
C924 C927 1.403 . S
H925 C931 0.930 . S
C926 H912 0.930 . S
C926 C924 1.395 . S
C926 C929 1.403 . S
C927 C924 1.403 . S
C927 C928 1.524 . S
C927 C931 1.400 . S
C928 H913 0.960 . S
C928 H914 0.960 . S
C928 H915 0.960 . S
C928 C927 1.524 . S
C929 C926 1.403 . S
C929 C930 1.392 . S
C929 C933 1.495 . S
C930 C929 1.392 . S
C930 C931 1.385 . S
C930 C932 1.478 . S
C931 H925 0.930 . S
C931 C927 1.400 . S
C931 C930 1.385 . S
C932 C930 1.478 . S
C932 C934 1.381 . S
C932 C938 1.383 . S
C933 C929 1.495 . S
C933 H939 0.959 . S
C933 H940 0.961 . S
C933 H941 0.960 . S
C934 C932 1.381 . S
C934 C935 1.394 . S
C934 H942 0.930 . S
C935 C934 1.394 . S
C935 C936 1.383 . S
C935 H943 0.929 . S
C936 C935 1.383 . S
C936 C937 1.377 . S
C937 H921 0.930 . S
C937 C936 1.377 . S
C937 C938 1.379 . S
C938 H922 0.931 . S
C938 C932 1.383 . S
C938 C937 1.379 . S
H939 C933 0.959 . S
H940 C933 0.961 . S
H941 C933 0.960 . S
H942 C934 0.930 . S
H943 C935 0.929 . S
H944 C952 0.929 . S
H945 C954 0.930 . S
H946 C956 0.930 . S
H947 C959 0.929 . S
H948 C962 0.930 . S
H949 C964 0.960 . S
H950 C964 0.960 . S
H951 C964 0.960 . S
C952 H944 0.929 . S
C952 C953 1.377 . S
C952 C954 1.384 . S
C953 C952 1.377 . S
C953 C959 1.390 . S
C954 H945 0.930 . S
C954 C952 1.384 . S
C954 C955 1.372 . S
C955 C954 1.372 . S
C955 C956 1.400 . S
C955 C960 1.490 . S
C956 H946 0.930 . S
C956 C955 1.400 . S
C956 C959 1.386 . S
H957 C973 0.930 . S
H958 C974 0.931 . S
C959 H947 0.929 . S
C959 C953 1.390 . S
C959 C956 1.386 . S
C960 C955 1.490 . S
C960 C962 1.395 . S
C960 C963 1.403 . S
H961 C967 0.930 . S
C962 H948 0.930 . S
C962 C960 1.395 . S
C962 C965 1.403 . S
C963 C960 1.403 . S
C963 C964 1.524 . S
C963 C967 1.400 . S
C964 H949 0.960 . S
C964 H950 0.960 . S
C964 H951 0.960 . S
C964 C963 1.524 . S
C965 C962 1.403 . S
C965 C966 1.392 . S
C965 C969 1.495 . S
C966 C965 1.392 . S
C966 C967 1.385 . S
C966 C968 1.478 . S
C967 H961 0.930 . S
C967 C963 1.400 . S
C967 C966 1.385 . S
C968 C966 1.478 . S
C968 C970 1.381 . S
C968 C974 1.383 . S
C969 C965 1.495 . S
C969 H975 0.959 . S
C969 H976 0.961 . S
C969 H977 0.960 . S
C970 C968 1.381 . S
C970 C971 1.394 . S
C970 H978 0.930 . S
C971 C970 1.394 . S
C971 C972 1.383 . S
C971 H979 0.929 . S
C972 C971 1.383 . S
C972 C973 1.377 . S
C973 H957 0.930 . S
C973 C972 1.377 . S
C973 C974 1.379 . S
C974 H958 0.931 . S
C974 C968 1.383 . S
C974 C973 1.379 . S
H975 C969 0.959 . S
H976 C969 0.961 . S
H977 C969 0.960 . S
H978 C970 0.930 . S
H979 C971 0.929 . S
H980 C988 0.929 . S
H981 C990 0.930 . S
H982 C992 0.930 . S
H983 C995 0.929 . S
H984 C998 0.930 . S
H985 C1000 0.960 . S
H986 C1000 0.960 . S
H987 C1000 0.960 . S
C988 H980 0.929 . S
C988 C989 1.377 . S
C988 C990 1.384 . S
C989 C988 1.377 . S
C989 C995 1.390 . S
C990 H981 0.930 . S
C990 C988 1.384 . S
C990 C991 1.372 . S
C991 C990 1.372 . S
C991 C992 1.400 . S
C991 C996 1.490 . S
C992 H982 0.930 . S
C992 C991 1.400 . S
C992 C995 1.386 . S
H993 C1009 0.930 . S
H994 C1010 0.931 . S
C995 H983 0.929 . S
C995 C989 1.390 . S
C995 C992 1.386 . S
C996 C991 1.490 . S
C996 C998 1.395 . S
C996 C999 1.403 . S
H997 C1003 0.930 . S
C998 H984 0.930 . S
C998 C996 1.395 . S
C998 C1001 1.403 . S
C999 C996 1.403 . S
C999 C1000 1.524 . S
C999 C1003 1.400 . S
C1000 H985 0.960 . S
C1000 H986 0.960 . S
C1000 H987 0.960 . S
C1000 C999 1.524 . S
C1001 C998 1.403 . S
C1001 C1002 1.392 . S
C1001 C1005 1.495 . S
C1002 C1001 1.392 . S
C1002 C1003 1.385 . S
C1002 C1004 1.478 . S
C1003 H997 0.930 . S
C1003 C999 1.400 . S
C1003 C1002 1.385 . S
C1004 C1002 1.478 . S
C1004 C1006 1.381 . S
C1004 C1010 1.383 . S
C1005 C1001 1.495 . S
C1005 H1011 0.959 . S
C1005 H1012 0.961 . S
C1005 H1013 0.960 . S
C1006 C1004 1.381 . S
C1006 C1007 1.394 . S
C1006 H1014 0.930 . S
C1007 C1006 1.394 . S
C1007 C1008 1.383 . S
C1007 H1015 0.929 . S
C1008 C1007 1.383 . S
C1008 C1009 1.377 . S
C1009 H993 0.930 . S
C1009 C1008 1.377 . S
C1009 C1010 1.379 . S
C1010 H994 0.931 . S
C1010 C1004 1.383 . S
C1010 C1009 1.379 . S
H1011 C1005 0.959 . S
H1012 C1005 0.961 . S
H1013 C1005 0.960 . S
H1014 C1006 0.930 . S
H1015 C1007 0.929 . S
H1016 C1024 0.929 . S
H1017 C1026 0.930 . S
H1018 C1028 0.930 . S
H1019 C1031 0.929 . S
H1020 C1034 0.930 . S
H1021 C1036 0.960 . S
H1022 C1036 0.960 . S
H1023 C1036 0.960 . S
C1024 H1016 0.929 . S
C1024 C1025 1.377 . S
C1024 C1026 1.384 . S
C1025 C1024 1.377 . S
C1025 C1031 1.390 . S
C1026 H1017 0.930 . S
C1026 C1024 1.384 . S
C1026 C1027 1.372 . S
C1027 C1026 1.372 . S
C1027 C1028 1.400 . S
C1027 C1032 1.490 . S
C1028 H1018 0.930 . S
C1028 C1027 1.400 . S
C1028 C1031 1.386 . S
H1029 C1045 0.930 . S
H1030 C1046 0.931 . S
C1031 H1019 0.929 . S
C1031 C1025 1.390 . S
C1031 C1028 1.386 . S
C1032 C1027 1.490 . S
C1032 C1034 1.395 . S
C1032 C1035 1.403 . S
H1033 C1039 0.930 . S
C1034 H1020 0.930 . S
C1034 C1032 1.395 . S
C1034 C1037 1.403 . S
C1035 C1032 1.403 . S
C1035 C1036 1.524 . S
C1035 C1039 1.400 . S
C1036 H1021 0.960 . S
C1036 H1022 0.960 . S
C1036 H1023 0.960 . S
C1036 C1035 1.524 . S
C1037 C1034 1.403 . S
C1037 C1038 1.392 . S
C1037 C1041 1.495 . S
C1038 C1037 1.392 . S
C1038 C1039 1.385 . S
C1038 C1040 1.478 . S
C1039 H1033 0.930 . S
C1039 C1035 1.400 . S
C1039 C1038 1.385 . S
C1040 C1038 1.478 . S
C1040 C1042 1.381 . S
C1040 C1046 1.383 . S
C1041 C1037 1.495 . S
C1041 H1047 0.959 . S
C1041 H1048 0.961 . S
C1041 H1049 0.960 . S
C1042 C1040 1.381 . S
C1042 C1043 1.394 . S
C1042 H1050 0.930 . S
C1043 C1042 1.394 . S
C1043 C1044 1.383 . S
C1043 H1051 0.929 . S
C1044 C1043 1.383 . S
C1044 C1045 1.377 . S
C1045 H1029 0.930 . S
C1045 C1044 1.377 . S
C1045 C1046 1.379 . S
C1046 H1030 0.931 . S
C1046 C1040 1.383 . S
C1046 C1045 1.379 . S
H1047 C1041 0.959 . S
H1048 C1041 0.961 . S
H1049 C1041 0.960 . S
H1050 C1042 0.930 . S
H1051 C1043 0.929 . S
H1052 C1060 0.929 . S
H1053 C1062 0.930 . S
H1054 C1064 0.930 . S
H1055 C1067 0.929 . S
H1056 C1070 0.930 . S
H1057 C1072 0.960 . S
H1058 C1072 0.960 . S
H1059 C1072 0.960 . S
C1060 H1052 0.929 . S
C1060 C1061 1.377 . S
C1060 C1062 1.384 . S
C1061 C1060 1.377 . S
C1061 C1067 1.390 . S
C1062 H1053 0.930 . S
C1062 C1060 1.384 . S
C1062 C1063 1.372 . S
C1063 C1062 1.372 . S
C1063 C1064 1.400 . S
C1063 C1068 1.490 . S
C1064 H1054 0.930 . S
C1064 C1063 1.400 . S
C1064 C1067 1.386 . S
H1065 C1081 0.930 . S
H1066 C1082 0.931 . S
C1067 H1055 0.929 . S
C1067 C1061 1.390 . S
C1067 C1064 1.386 . S
C1068 C1063 1.490 . S
C1068 C1070 1.395 . S
C1068 C1071 1.403 . S
H1069 C1075 0.930 . S
C1070 H1056 0.930 . S
C1070 C1068 1.395 . S
C1070 C1073 1.403 . S
C1071 C1068 1.403 . S
C1071 C1072 1.524 . S
C1071 C1075 1.400 . S
C1072 H1057 0.960 . S
C1072 H1058 0.960 . S
C1072 H1059 0.960 . S
C1072 C1071 1.524 . S
C1073 C1070 1.403 . S
C1073 C1074 1.392 . S
C1073 C1077 1.495 . S
C1074 C1073 1.392 . S
C1074 C1075 1.385 . S
C1074 C1076 1.478 . S
C1075 H1069 0.930 . S
C1075 C1071 1.400 . S
C1075 C1074 1.385 . S
C1076 C1074 1.478 . S
C1076 C1078 1.381 . S
C1076 C1082 1.383 . S
C1077 C1073 1.495 . S
C1077 H1083 0.959 . S
C1077 H1084 0.961 . S
C1077 H1085 0.960 . S
C1078 C1076 1.381 . S
C1078 C1079 1.394 . S
C1078 H1086 0.930 . S
C1079 C1078 1.394 . S
C1079 C1080 1.383 . S
C1079 H1087 0.929 . S
C1080 C1079 1.383 . S
C1080 C1081 1.377 . S
C1081 H1065 0.930 . S
C1081 C1080 1.377 . S
C1081 C1082 1.379 . S
C1082 H1066 0.931 . S
C1082 C1076 1.383 . S
C1082 C1081 1.379 . S
H1083 C1077 0.959 . S
H1084 C1077 0.961 . S
H1085 C1077 0.960 . S
H1086 C1078 0.930 . S
H1087 C1079 0.929 . S
H1088 C1096 0.929 . S
H1089 C1098 0.930 . S
H1090 C1100 0.930 . S
H1091 C1103 0.929 . S
H1092 C1106 0.930 . S
H1093 C1108 0.960 . S
H1094 C1108 0.960 . S
H1095 C1108 0.960 . S
C1096 H1088 0.929 . S
C1096 C1097 1.377 . S
C1096 C1098 1.384 . S
C1097 C1096 1.377 . S
C1097 C1103 1.390 . S
C1098 H1089 0.930 . S
C1098 C1096 1.384 . S
C1098 C1099 1.372 . S
C1099 C1098 1.372 . S
C1099 C1100 1.400 . S
C1099 C1104 1.490 . S
C1100 H1090 0.930 . S
C1100 C1099 1.400 . S
C1100 C1103 1.386 . S
H1101 C1117 0.930 . S
H1102 C1118 0.931 . S
C1103 H1091 0.929 . S
C1103 C1097 1.390 . S
C1103 C1100 1.386 . S
C1104 C1099 1.490 . S
C1104 C1106 1.395 . S
C1104 C1107 1.403 . S
H1105 C1111 0.930 . S
C1106 H1092 0.930 . S
C1106 C1104 1.395 . S
C1106 C1109 1.403 . S
C1107 C1104 1.403 . S
C1107 C1108 1.524 . S
C1107 C1111 1.400 . S
C1108 H1093 0.960 . S
C1108 H1094 0.960 . S
C1108 H1095 0.960 . S
C1108 C1107 1.524 . S
C1109 C1106 1.403 . S
C1109 C1110 1.392 . S
C1109 C1113 1.495 . S
C1110 C1109 1.392 . S
C1110 C1111 1.385 . S
C1110 C1112 1.478 . S
C1111 H1105 0.930 . S
C1111 C1107 1.400 . S
C1111 C1110 1.385 . S
C1112 C1110 1.478 . S
C1112 C1114 1.381 . S
C1112 C1118 1.383 . S
C1113 C1109 1.495 . S
C1113 H1119 0.959 . S
C1113 H1120 0.961 . S
C1113 H1121 0.960 . S
C1114 C1112 1.381 . S
C1114 C1115 1.394 . S
C1114 H1122 0.930 . S
C1115 C1114 1.394 . S
C1115 C1116 1.383 . S
C1115 H1123 0.929 . S
C1116 C1115 1.383 . S
C1116 C1117 1.377 . S
C1117 H1101 0.930 . S
C1117 C1116 1.377 . S
C1117 C1118 1.379 . S
C1118 H1102 0.931 . S
C1118 C1112 1.383 . S
C1118 C1117 1.379 . S
H1119 C1113 0.959 . S
H1120 C1113 0.961 . S
H1121 C1113 0.960 . S
H1122 C1114 0.930 . S
H1123 C1115 0.929 . S
H1124 C1132 0.929 . S
H1125 C1134 0.930 . S
H1126 C1136 0.930 . S
H1127 C1139 0.929 . S
H1128 C1142 0.930 . S
H1129 C1144 0.960 . S
H1130 C1144 0.960 . S
H1131 C1144 0.960 . S
C1132 H1124 0.929 . S
C1132 C1133 1.377 . S
C1132 C1134 1.384 . S
C1133 C1132 1.377 . S
C1133 C1139 1.390 . S
C1134 H1125 0.930 . S
C1134 C1132 1.384 . S
C1134 C1135 1.372 . S
C1135 C1134 1.372 . S
C1135 C1136 1.400 . S
C1135 C1140 1.490 . S
C1136 H1126 0.930 . S
C1136 C1135 1.400 . S
C1136 C1139 1.386 . S
H1137 C1153 0.930 . S
H1138 C1154 0.931 . S
C1139 H1127 0.929 . S
C1139 C1133 1.390 . S
C1139 C1136 1.386 . S
C1140 C1135 1.490 . S
C1140 C1142 1.395 . S
C1140 C1143 1.403 . S
H1141 C1147 0.930 . S
C1142 H1128 0.930 . S
C1142 C1140 1.395 . S
C1142 C1145 1.403 . S
C1143 C1140 1.403 . S
C1143 C1144 1.524 . S
C1143 C1147 1.400 . S
C1144 H1129 0.960 . S
C1144 H1130 0.960 . S
C1144 H1131 0.960 . S
C1144 C1143 1.524 . S
C1145 C1142 1.403 . S
C1145 C1146 1.392 . S
C1145 C1149 1.495 . S
C1146 C1145 1.392 . S
C1146 C1147 1.385 . S
C1146 C1148 1.478 . S
C1147 H1141 0.930 . S
C1147 C1143 1.400 . S
C1147 C1146 1.385 . S
C1148 C1146 1.478 . S
C1148 C1150 1.381 . S
C1148 C1154 1.383 . S
C1149 C1145 1.495 . S
C1149 H1155 0.959 . S
C1149 H1156 0.961 . S
C1149 H1157 0.960 . S
C1150 C1148 1.381 . S
C1150 C1151 1.394 . S
C1150 H1158 0.930 . S
C1151 C1150 1.394 . S
C1151 C1152 1.383 . S
C1151 H1159 0.929 . S
C1152 C1151 1.383 . S
C1152 C1153 1.377 . S
C1153 H1137 0.930 . S
C1153 C1152 1.377 . S
C1153 C1154 1.379 . S
C1154 H1138 0.931 . S
C1154 C1148 1.383 . S
C1154 C1153 1.379 . S
H1155 C1149 0.959 . S
H1156 C1149 0.961 . S
H1157 C1149 0.960 . S
H1158 C1150 0.930 . S
H1159 C1151 0.929 . S
H1160 C1168 0.929 . S
H1161 C1170 0.930 . S
H1162 C1172 0.930 . S
H1163 C1175 0.929 . S
H1164 C1178 0.930 . S
H1165 C1180 0.960 . S
H1166 C1180 0.960 . S
H1167 C1180 0.960 . S
C1168 H1160 0.929 . S
C1168 C1169 1.377 . S
C1168 C1170 1.384 . S
C1169 C1168 1.377 . S
C1169 C1175 1.390 . S
C1170 H1161 0.930 . S
C1170 C1168 1.384 . S
C1170 C1171 1.372 . S
C1171 C1170 1.372 . S
C1171 C1172 1.400 . S
C1171 C1176 1.490 . S
C1172 H1162 0.930 . S
C1172 C1171 1.400 . S
C1172 C1175 1.386 . S
H1173 C1189 0.930 . S
H1174 C1190 0.931 . S
C1175 H1163 0.929 . S
C1175 C1169 1.390 . S
C1175 C1172 1.386 . S
C1176 C1171 1.490 . S
C1176 C1178 1.395 . S
C1176 C1179 1.403 . S
H1177 C1183 0.930 . S
C1178 H1164 0.930 . S
C1178 C1176 1.395 . S
C1178 C1181 1.403 . S
C1179 C1176 1.403 . S
C1179 C1180 1.524 . S
C1179 C1183 1.400 . S
C1180 H1165 0.960 . S
C1180 H1166 0.960 . S
C1180 H1167 0.960 . S
C1180 C1179 1.524 . S
C1181 C1178 1.403 . S
C1181 C1182 1.392 . S
C1181 C1185 1.495 . S
C1182 C1181 1.392 . S
C1182 C1183 1.385 . S
C1182 C1184 1.478 . S
C1183 H1177 0.930 . S
C1183 C1179 1.400 . S
C1183 C1182 1.385 . S
C1184 C1182 1.478 . S
C1184 C1186 1.381 . S
C1184 C1190 1.383 . S
C1185 C1181 1.495 . S
C1185 H1191 0.959 . S
C1185 H1192 0.961 . S
C1185 H1193 0.960 . S
C1186 C1184 1.381 . S
C1186 C1187 1.394 . S
C1186 H1194 0.930 . S
C1187 C1186 1.394 . S
C1187 C1188 1.383 . S
C1187 H1195 0.929 . S
C1188 C1187 1.383 . S
C1188 C1189 1.377 . S
C1189 H1173 0.930 . S
C1189 C1188 1.377 . S
C1189 C1190 1.379 . S
C1190 H1174 0.931 . S
C1190 C1184 1.383 . S
C1190 C1189 1.379 . S
H1191 C1185 0.959 . S
H1192 C1185 0.961 . S
H1193 C1185 0.960 . S
H1194 C1186 0.930 . S
H1195 C1187 0.929 . S
H1196 C1204 0.929 . S
H1197 C1206 0.930 . S
H1198 C1208 0.930 . S
H1199 C1211 0.929 . S
H1200 C1214 0.930 . S
H1201 C1216 0.960 . S
H1202 C1216 0.960 . S
H1203 C1216 0.960 . S
C1204 H1196 0.929 . S
C1204 C1205 1.377 . S
C1204 C1206 1.384 . S
C1205 C1204 1.377 . S
C1205 C1211 1.390 . S
C1206 H1197 0.930 . S
C1206 C1204 1.384 . S
C1206 C1207 1.372 . S
C1207 C1206 1.372 . S
C1207 C1208 1.400 . S
C1207 C1212 1.490 . S
C1208 H1198 0.930 . S
C1208 C1207 1.400 . S
C1208 C1211 1.386 . S
H1209 C1225 0.930 . S
H1210 C1226 0.931 . S
C1211 H1199 0.929 . S
C1211 C1205 1.390 . S
C1211 C1208 1.386 . S
C1212 C1207 1.490 . S
C1212 C1214 1.395 . S
C1212 C1215 1.403 . S
H1213 C1219 0.930 . S
C1214 H1200 0.930 . S
C1214 C1212 1.395 . S
C1214 C1217 1.403 . S
C1215 C1212 1.403 . S
C1215 C1216 1.524 . S
C1215 C1219 1.400 . S
C1216 H1201 0.960 . S
C1216 H1202 0.960 . S
C1216 H1203 0.960 . S
C1216 C1215 1.524 . S
C1217 C1214 1.403 . S
C1217 C1218 1.392 . S
C1217 C1221 1.495 . S
C1218 C1217 1.392 . S
C1218 C1219 1.385 . S
C1218 C1220 1.478 . S
C1219 H1213 0.930 . S
C1219 C1215 1.400 . S
C1219 C1218 1.385 . S
C1220 C1218 1.478 . S
C1220 C1222 1.381 . S
C1220 C1226 1.383 . S
C1221 C1217 1.495 . S
C1221 H1227 0.959 . S
C1221 H1228 0.961 . S
C1221 H1229 0.960 . S
C1222 C1220 1.381 . S
C1222 C1223 1.394 . S
C1222 H1230 0.930 . S
C1223 C1222 1.394 . S
C1223 C1224 1.383 . S
C1223 H1231 0.929 . S
C1224 C1223 1.383 . S
C1224 C1225 1.377 . S
C1225 H1209 0.930 . S
C1225 C1224 1.377 . S
C1225 C1226 1.379 . S
C1226 H1210 0.931 . S
C1226 C1220 1.383 . S
C1226 C1225 1.379 . S
H1227 C1221 0.959 . S
H1228 C1221 0.961 . S
H1229 C1221 0.960 . S
H1230 C1222 0.930 . S
H1231 C1223 0.929 . S
C377 C1 1.523 . S
C396 C307 1.497 . S
C413 C67 1.322 . S
C432 C310 1.272 . S
C468 C346 1.684 . S
C449 C97 1.732 . S
C485 C133 1.639 . S
C504 C366 1.608 . S
C540 C320 1.716 . S
C521 C25 1.775 . S
C576 C297 1.534 . S
C557 C37 1.579 . S
C612 C350 1.537 . S
C593 C103 1.642 . S
C648 C330 1.348 . S
C629 C109 1.439 . S
C665 C31 1.358 . S
C684 C360 1.303 . S
C720 C326 1.546 . S
C701 C73 1.587 . S
C737 C139 1.656 . S
C756 C292 1.603 . S
C773 C61 1.344 . S
C792 C340 1.336 . S
C828 C306 1.480 . S
C809 C175 1.510 . S
C845 C181 1.301 . S
C864 C312 1.280 . S
C881 C247 1.745 . S
C900 C347 1.705 . S
C917 C277 1.628 . S
C936 C367 1.624 . S
C953 C145 1.756 . S
C972 C317 1.722 . S
C1008 C300 1.574 . S
C989 C211 1.585 . S
C1044 C352 1.534 . S
C1025 C217 1.619 . S
C1080 C332 1.374 . S
C1061 C283 1.447 . S
C1097 C169 1.329 . S
C1116 C357 1.276 . S
C1152 C327 1.565 . S
C1133 C241 1.588 . S
C1188 C290 1.556 . S
C1169 C253 1.646 . S
C1205 C205 1.350 . S
C1224 C337 1.295 . S
