# Generated by pormake.
# Topology pto, (3,4)-cn, num edge types: 1
# Building blocks:
#     Node 0, Type 0, BuildingBlock: VETTIZ_charged_linker_0, # of connection points: 3
#     Node 1, Type 0, BuildingBlock: VETTIZ_charged_linker_0, # of connection points: 3
#     Node 2, Type 0, BuildingBlock: VETTIZ_charged_linker_0, # of connection points: 3
#     Node 3, Type 0, BuildingBlock: VETTIZ_charged_linker_0, # of connection points: 3
#     Node 4, Type 0, BuildingBlock: VETTIZ_charged_linker_0, # of connection points: 3
#     Node 5, Type 0, BuildingBlock: VETTIZ_charged_linker_0, # of connection points: 3
#     Node 6, Type 0, BuildingBlock: VETTIZ_charged_linker_0, # of connection points: 3
#     Node 7, Type 0, BuildingBlock: VETTIZ_charged_linker_0, # of connection points: 3
#     Node 8, Type 1, BuildingBlock: KOZSID_clean_sbu_0, # of connection points: 4
#     Node 9, Type 1, BuildingBlock: KOZSID_clean_sbu_0, # of connection points: 4
#     Node 10, Type 1, BuildingBlock: KOZSID_clean_sbu_0, # of connection points: 4
#     Node 11, Type 1, BuildingBlock: KOZSID_clean_sbu_0, # of connection points: 4
#     Node 12, Type 1, BuildingBlock: KOZSID_clean_sbu_0, # of connection points: 4
#     Node 13, Type 1, BuildingBlock: KOZSID_clean_sbu_0, # of connection points: 4
#     Edge 14, Type (0, 1), None
#     Edge 15, Type (0, 1), None
#     Edge 16, Type (0, 1), None
#     Edge 17, Type (0, 1), None
#     Edge 18, Type (0, 1), None
#     Edge 19, Type (0, 1), None
#     Edge 20, Type (0, 1), None
#     Edge 21, Type (0, 1), None
#     Edge 22, Type (0, 1), None
#     Edge 23, Type (0, 1), None
#     Edge 24, Type (0, 1), None
#     Edge 25, Type (0, 1), None
#     Edge 26, Type (0, 1), None
#     Edge 27, Type (0, 1), None
#     Edge 28, Type (0, 1), None
#     Edge 29, Type (0, 1), None
#     Edge 30, Type (0, 1), None
#     Edge 31, Type (0, 1), None
#     Edge 32, Type (0, 1), None
#     Edge 33, Type (0, 1), None
#     Edge 34, Type (0, 1), None
#     Edge 35, Type (0, 1), None
#     Edge 36, Type (0, 1), None
#     Edge 37, Type (0, 1), None
# Relax obj value: 0.000
# Max RMSD: 0.038
# Mean RMSD: 0.016
data_MOF--net-pto--node1-KOZSID_clean_sbu_0--node2-VETTIZ_charged_linker_0--edge1-none
_symmetry_space_group_name_H-M    P1
_symmetry_Int_Tables_number       1
_symmetry_cell_setting            triclinic
loop_
_symmetry_equiv_pos_as_xyz
'x, y, z'
_cell_length_a     26.852188
_cell_length_b     35.806875
_cell_length_c     31.437337
_cell_angle_alpha  86.197448
_cell_angle_beta   85.399887
_cell_angle_gamma 94.266343
loop_
_atom_site_label
_atom_site_type_symbol
_atom_site_fract_x
_atom_site_fract_y
_atom_site_fract_z
_atom_type_partial_charge
C0 C 0.22639 0.15998 0.42552 0.0
C1 C 0.24822 0.12571 0.42081 0.0
C2 C 0.2747 0.11984 0.3817 0.0
C3 C 0.26074 0.18245 0.35376 0.0
C4 C 0.23253 0.18777 0.39127 0.0
C5 C 0.21065 0.22548 0.38941 0.0
H6 H 0.20305 0.39575 0.28206 0.0
C7 C 0.26047 0.2163 0.32446 0.0
C8 C 0.23016 0.24149 0.34448 0.0
H9 H 0.12374 0.3558 0.40407 0.0
H10 H 0.15764 0.29591 0.39851 0.0
H11 H 0.16646 0.33052 0.23728 0.0
H12 H 0.31038 0.34949 0.28679 0.0
H13 H 0.31394 0.34158 0.23118 0.0
H14 H 0.28266 0.38035 0.24951 0.0
H15 H 0.21954 0.35184 0.20399 0.0
H16 H 0.20647 0.30144 0.21022 0.0
C17 C 0.15281 0.21878 0.39429 0.0
C18 C 0.23255 0.24853 0.42442 0.0
C19 C 0.38039 0.23342 0.1901 0.0
C20 C 0.38212 0.25707 0.15229 0.0
C21 C 0.34428 0.28214 0.14817 0.0
C22 C 0.3086 0.28605 0.18248 0.0
C23 C 0.3091 0.26326 0.22051 0.0
C24 C 0.34185 0.23546 0.22237 0.0
C25 C 0.3281 0.2076 0.26019 0.0
C26 C 0.28585 0.22632 0.28351 0.0
C27 C 0.27662 0.25983 0.26097 0.0
C28 C 0.30954 0.16967 0.24313 0.0
C29 C 0.37384 0.20506 0.28686 0.0
C30 C 0.19231 0.37446 0.30778 0.0
C31 C 0.16071 0.38175 0.34392 0.0
C32 C 0.14898 0.35226 0.37632 0.0
C33 C 0.16828 0.317 0.37288 0.0
C34 C 0.19921 0.31045 0.33637 0.0
C35 C 0.20998 0.33882 0.30425 0.0
C36 C 0.23924 0.32599 0.26575 0.0
C37 C 0.24685 0.28584 0.28117 0.0
C38 C 0.22376 0.27687 0.32278 0.0
C39 C 0.20658 0.32763 0.22718 0.0
C40 C 0.28935 0.35059 0.25771 0.0
H41 H 0.30356 0.14231 0.32017 0.0
H42 H 0.20538 0.16501 0.45517 0.0
H43 H 0.27366 0.24624 0.42424 0.0
H44 H 0.22777 0.27878 0.41975 0.0
H45 H 0.21513 0.23807 0.45667 0.0
H46 H 0.1402 0.19329 0.37841 0.0
H47 H 0.13842 0.21465 0.42854 0.0
H48 H 0.13421 0.24185 0.37868 0.0
H49 H 0.40851 0.21382 0.19489 0.0
H50 H 0.34397 0.30011 0.11909 0.0
H51 H 0.28202 0.30662 0.17835 0.0
H52 H 0.30309 0.17244 0.20857 0.0
H53 H 0.3372 0.14835 0.24682 0.0
H54 H 0.27283 0.15831 0.25945 0.0
H55 H 0.38909 0.23361 0.29359 0.0
H56 H 0.36446 0.18915 0.3181 0.0
H57 H 0.40417 0.19124 0.26938 0.0
H58 H 0.29128 0.09353 0.37732 0.0
C59 C 0.28159 0.14811 0.34846 0.0
C60 C 0.18037 0.6607 0.74981 0.0
C61 C 0.13931 0.65539 0.72527 0.0
C62 C 0.12462 0.68637 0.70053 0.0
C63 C 0.18858 0.72741 0.72818 0.0
C64 C 0.20257 0.69697 0.75249 0.0
C65 C 0.23806 0.70844 0.78476 0.0
H66 H 0.37833 0.84427 0.87058 0.0
C67 C 0.21656 0.76155 0.74085 0.0
C68 C 0.2446 0.75062 0.77475 0.0
H69 H 0.3568 0.72615 0.91075 0.0
H70 H 0.30173 0.71591 0.85485 0.0
H71 H 0.26624 0.85576 0.86021 0.0
H72 H 0.38308 0.83361 0.76542 0.0
H73 H 0.35074 0.87118 0.74549 0.0
H74 H 0.38268 0.87588 0.79315 0.0
H75 H 0.31069 0.89248 0.8361 0.0
H76 H 0.25343 0.87958 0.8122 0.0
C77 C 0.21159 0.69781 0.83017 0.0
C78 C 0.28746 0.68969 0.77522 0.0
C79 C 0.21609 0.88636 0.65314 0.0
C80 C 0.23828 0.92252 0.65798 0.0
C81 C 0.26259 0.92908 0.69516 0.0
C82 C 0.26797 0.8996 0.72559 0.0
C83 C 0.24802 0.86319 0.71928 0.0
C84 C 0.22082 0.85725 0.68445 0.0
C85 C 0.1981 0.81734 0.68556 0.0
C86 C 0.21987 0.79978 0.7247 0.0
C87 C 0.24943 0.82679 0.74405 0.0
C88 C 0.14022 0.81757 0.69211 0.0
C89 C 0.2168 0.79991 0.64412 0.0
C90 C 0.36133 0.81633 0.86721 0.0
C91 C 0.37143 0.78589 0.89485 0.0
C92 C 0.34891 0.74991 0.88988 0.0
C93 C 0.31697 0.74412 0.85743 0.0
C94 C 0.3067 0.77479 0.83008 0.0
C95 C 0.32847 0.81021 0.83537 0.0
C96 C 0.31228 0.8395 0.80385 0.0
C97 C 0.27697 0.81581 0.779 0.0
C98 C 0.27442 0.77793 0.79425 0.0
C99 C 0.28449 0.86862 0.8291 0.0
C100 C 0.35946 0.85627 0.77544 0.0
H101 H 0.13667 0.74481 0.68207 0.0
H102 H 0.19248 0.63747 0.76919 0.0
H103 H 0.29795 0.69099 0.74016 0.0
H104 H 0.31974 0.70381 0.78897 0.0
H105 H 0.28346 0.65965 0.78726 0.0
H106 H 0.17021 0.69831 0.83022 0.0
H107 H 0.21954 0.66918 0.84222 0.0
H108 H 0.22178 0.71806 0.85368 0.0
H109 H 0.19622 0.88082 0.62529 0.0
H110 H 0.27902 0.95691 0.69983 0.0
H111 H 0.28808 0.90622 0.7526 0.0
H112 H 0.12858 0.84391 0.70545 0.0
H113 H 0.12279 0.81504 0.66145 0.0
H114 H 0.12327 0.79484 0.71564 0.0
H115 H 0.25835 0.80419 0.63877 0.0
H116 H 0.20697 0.76937 0.64517 0.0
H117 H 0.20071 0.81314 0.6159 0.0
H118 H 0.09295 0.68299 0.68146 0.0
C119 C 0.14958 0.72224 0.70132 0.0
C120 C 0.88606 0.67992 0.3617 0.0
C121 C 0.8808 0.64719 0.33912 0.0
C122 C 0.8435 0.64469 0.31001 0.0
C123 C 0.82228 0.70777 0.32204 0.0
C124 C 0.85601 0.70966 0.35292 0.0
C125 C 0.85553 0.74642 0.37393 0.0
H126 H 0.76299 0.91798 0.3846 0.0
C127 C 0.79867 0.74361 0.31865 0.0
C128 C 0.81706 0.76633 0.34956 0.0
H129 H 0.86853 0.86934 0.46468 0.0
H130 H 0.86542 0.81353 0.42537 0.0
H131 H 0.6894 0.84648 0.38543 0.0
H132 H 0.81256 0.88905 0.29479 0.0
H133 H 0.76128 0.87576 0.26614 0.0
H134 H 0.75575 0.9121 0.3027 0.0
H135 H 0.68398 0.88507 0.34711 0.0
H136 H 0.67138 0.83696 0.33455 0.0
C137 C 0.83753 0.73771 0.42181 0.0
C138 C 0.90844 0.76711 0.36587 0.0
C139 C 0.68899 0.76896 0.19711 0.0
C140 C 0.65985 0.79871 0.18592 0.0
C141 C 0.65827 0.82895 0.21267 0.0
C142 C 0.68607 0.83007 0.24854 0.0
C143 C 0.71541 0.80039 0.25865 0.0
C144 C 0.71547 0.7701 0.23371 0.0
C145 C 0.74513 0.73954 0.25138 0.0
C146 C 0.7652 0.75746 0.28975 0.0
C147 C 0.74812 0.79325 0.29356 0.0
C148 C 0.70849 0.70432 0.26489 0.0
C149 C 0.78767 0.73306 0.21705 0.0
C150 C 0.78519 0.89525 0.39398 0.0
C151 C 0.8159 0.89822 0.428 0.0
C152 C 0.84487 0.86808 0.4384 0.0
C153 C 0.8427 0.83549 0.41576 0.0
C154 C 0.81126 0.83285 0.38222 0.0
C155 C 0.78344 0.86261 0.37174 0.0
C156 C 0.75235 0.85527 0.33505 0.0
C157 C 0.76537 0.81599 0.32559 0.0
C158 C 0.79996 0.80283 0.35327 0.0
C159 C 0.6963 0.8562 0.35095 0.0
C160 C 0.77093 0.88457 0.29759 0.0
H161 H 0.78821 0.67113 0.27783 0.0
H162 H 0.91375 0.68283 0.3847 0.0
H163 H 0.92404 0.76464 0.33239 0.0
H164 H 0.90853 0.79751 0.36964 0.0
H165 H 0.93464 0.75496 0.3876 0.0
H166 H 0.80799 0.71396 0.42606 0.0
H167 H 0.86893 0.72976 0.4406 0.0
H168 H 0.81996 0.76132 0.43619 0.0
H169 H 0.69161 0.74511 0.17792 0.0
H170 H 0.63497 0.85174 0.20646 0.0
H171 H 0.68331 0.85395 0.26723 0.0
H172 H 0.6688 0.71139 0.26881 0.0
H173 H 0.71075 0.68312 0.24071 0.0
H174 H 0.71546 0.69106 0.29651 0.0
H175 H 0.80685 0.76036 0.20342 0.0
H176 H 0.81717 0.71681 0.22978 0.0
H177 H 0.77255 0.71821 0.19035 0.0
H178 H 0.83673 0.61949 0.29342 0.0
C179 C 0.81475 0.67471 0.30116 0.0
C180 C 0.68486 0.29362 0.90165 0.0
C181 C 0.64304 0.26773 0.91212 0.0
C182 C 0.63033 0.24192 0.88185 0.0
C183 C 0.70014 0.2686 0.83245 0.0
C184 C 0.70981 0.29554 0.86072 0.0
C185 C 0.74277 0.32855 0.83994 0.0
H186 H 0.93479 0.39194 0.70029 0.0
C187 C 0.73456 0.27797 0.79336 0.0
C188 C 0.7582 0.31378 0.79694 0.0
H189 H 0.84447 0.4566 0.78346 0.0
H190 H 0.78502 0.40295 0.80022 0.0
H191 H 0.83511 0.36079 0.65674 0.0
H192 H 0.91804 0.30791 0.75279 0.0
H193 H 0.90689 0.27694 0.71244 0.0
H194 H 0.9436 0.32074 0.69876 0.0
H195 H 0.89269 0.3404 0.64279 0.0
H196 H 0.83316 0.3127 0.64861 0.0
C197 C 0.7101 0.36251 0.83538 0.0
C198 C 0.7879 0.33605 0.86661 0.0
C199 C 0.77349 0.17542 0.69359 0.0
C200 C 0.80961 0.17333 0.65886 0.0
C201 C 0.84349 0.20508 0.64678 0.0
C202 C 0.84147 0.23799 0.6686 0.0
C203 C 0.80514 0.23954 0.70302 0.0
C204 C 0.77194 0.20855 0.71508 0.0
C205 C 0.7351 0.21557 0.7519 0.0
C206 C 0.75202 0.25575 0.76018 0.0
C207 C 0.79309 0.26974 0.73128 0.0
C208 C 0.6816 0.21245 0.73677 0.0
C209 C 0.74223 0.18737 0.78989 0.0
C210 C 0.90203 0.39444 0.72203 0.0
C211 C 0.89544 0.428 0.7423 0.0
C212 C 0.85126 0.43068 0.76882 0.0
C213 C 0.81691 0.39953 0.77879 0.0
C214 C 0.82576 0.36553 0.76107 0.0
C215 C 0.86565 0.36389 0.73095 0.0
C216 C 0.86277 0.32702 0.71003 0.0
C217 C 0.81578 0.30668 0.73423 0.0
C218 C 0.79622 0.32905 0.76542 0.0
C219 C 0.85593 0.33537 0.66196 0.0
C220 C 0.91036 0.30694 0.71861 0.0
H221 H 0.64819 0.22128 0.82084 0.0
H222 H 0.6971 0.31309 0.92422 0.0
H223 H 0.80847 0.31039 0.87068 0.0
H224 H 0.8148 0.35882 0.85144 0.0
H225 H 0.77534 0.3445 0.89884 0.0
H226 H 0.66991 0.35518 0.84624 0.0
H227 H 0.72302 0.38568 0.85469 0.0
H228 H 0.71006 0.37342 0.80148 0.0
H229 H 0.747 0.1517 0.70409 0.0
H230 H 0.87113 0.20486 0.61978 0.0
H231 H 0.86821 0.26106 0.65771 0.0
H232 H 0.68205 0.22126 0.70211 0.0
H233 H 0.66442 0.18312 0.74175 0.0
H234 H 0.65669 0.23131 0.75299 0.0
H235 H 0.78193 0.18949 0.79782 0.0
H236 H 0.71895 0.19203 0.81917 0.0
H237 H 0.73247 0.15811 0.78189 0.0
H238 H 0.59809 0.22177 0.8888 0.0
C239 C 0.65929 0.24169 0.84248 0.0
C240 C 0.8319 0.8992 0.65756 0.0
C241 C 0.81007 0.93347 0.66225 0.0
C242 C 0.78358 0.93935 0.70137 0.0
C243 C 0.79754 0.87674 0.72932 0.0
C244 C 0.82576 0.87142 0.69182 0.0
C245 C 0.84765 0.83371 0.69369 0.0
H246 H 0.85528 0.66347 0.80111 0.0
C247 C 0.79782 0.84291 0.75864 0.0
C248 C 0.82814 0.81771 0.73863 0.0
H249 H 0.93456 0.70339 0.67907 0.0
H250 H 0.90066 0.76328 0.68462 0.0
H251 H 0.89187 0.72871 0.84586 0.0
H252 H 0.74794 0.70973 0.79638 0.0
H253 H 0.7444 0.71764 0.85199 0.0
H254 H 0.77568 0.67887 0.83365 0.0
H255 H 0.83879 0.70742 0.87917 0.0
H256 H 0.85188 0.75781 0.8729 0.0
C257 C 0.90548 0.84042 0.68881 0.0
C258 C 0.82575 0.81064 0.6587 0.0
C259 C 0.67788 0.82578 0.89299 0.0
C260 C 0.67616 0.80214 0.93081 0.0
C261 C 0.71404 0.7771 0.93495 0.0
C262 C 0.74973 0.7732 0.90065 0.0
C263 C 0.74921 0.79597 0.8626 0.0
C264 C 0.71643 0.82375 0.86073 0.0
C265 C 0.73017 0.8516 0.8229 0.0
C266 C 0.77245 0.83289 0.79959 0.0
C267 C 0.78169 0.79939 0.82215 0.0
C268 C 0.7487 0.88955 0.83994 0.0
C269 C 0.68443 0.85411 0.79622 0.0
C270 C 0.86601 0.68475 0.77538 0.0
C271 C 0.8976 0.67746 0.73923 0.0
C272 C 0.90932 0.70694 0.70682 0.0
C273 C 0.89003 0.7422 0.71025 0.0
C274 C 0.85911 0.74875 0.74677 0.0
C275 C 0.84835 0.72039 0.7789 0.0
C276 C 0.81909 0.73324 0.8174 0.0
C277 C 0.81147 0.77338 0.80196 0.0
C278 C 0.83455 0.78234 0.76034 0.0
C279 C 0.85175 0.73161 0.85596 0.0
C280 C 0.76898 0.70863 0.82545 0.0
H281 H 0.75471 0.91688 0.7629 0.0
H282 H 0.85292 0.89416 0.62791 0.0
H283 H 0.78464 0.81293 0.65887 0.0
H284 H 0.83053 0.7804 0.66338 0.0
H285 H 0.84316 0.82109 0.62644 0.0
H286 H 0.91809 0.86591 0.70467 0.0
H287 H 0.91987 0.84453 0.65456 0.0
H288 H 0.92409 0.81735 0.70443 0.0
H289 H 0.64973 0.84535 0.88818 0.0
H290 H 0.71436 0.75915 0.96404 0.0
H291 H 0.77634 0.75265 0.9048 0.0
H292 H 0.75513 0.88679 0.87451 0.0
H293 H 0.72103 0.91086 0.83623 0.0
H294 H 0.78542 0.90091 0.82364 0.0
H295 H 0.66922 0.82556 0.78948 0.0
H296 H 0.69382 0.87003 0.76497 0.0
H297 H 0.65409 0.86792 0.81369 0.0
H298 H 0.767 0.96566 0.70573 0.0
C299 C 0.77669 0.91108 0.73461 0.0
C300 C 0.84228 0.17282 0.42988 0.0
C301 C 0.8201 0.13665 0.42505 0.0
C302 C 0.79581 0.13008 0.38787 0.0
C303 C 0.81035 0.19597 0.36374 0.0
C304 C 0.83755 0.20192 0.39857 0.0
C305 C 0.86026 0.24184 0.39745 0.0
H306 H 0.86573 0.42171 0.31386 0.0
C307 C 0.80892 0.23236 0.33897 0.0
C308 C 0.83848 0.25938 0.35831 0.0
H309 H 0.96534 0.37622 0.40155 0.0
H310 H 0.92166 0.31438 0.40093 0.0
H311 H 0.76033 0.36815 0.34292 0.0
H312 H 0.88802 0.36088 0.25277 0.0
H313 H 0.83644 0.34109 0.22935 0.0
H314 H 0.83864 0.38998 0.2408 0.0
H315 H 0.77478 0.3995 0.29581 0.0
H316 H 0.7385 0.35533 0.29412 0.0
C317 C 0.84155 0.25927 0.43889 0.0
C318 C 0.91814 0.24161 0.3909 0.0
C319 C 0.69691 0.2428 0.21587 0.0
C320 C 0.68679 0.27324 0.18825 0.0
C321 C 0.70928 0.30922 0.19322 0.0
C322 C 0.74125 0.31502 0.22565 0.0
C323 C 0.75155 0.28436 0.25299 0.0
C324 C 0.72979 0.24892 0.2477 0.0
C325 C 0.74602 0.21964 0.27921 0.0
C326 C 0.78134 0.24334 0.30404 0.0
C327 C 0.78387 0.28122 0.2888 0.0
C328 C 0.69887 0.20286 0.30764 0.0
C329 C 0.77381 0.19053 0.25393 0.0
C330 C 0.87788 0.39848 0.33321 0.0
C331 C 0.91895 0.4038 0.35774 0.0
C332 C 0.93366 0.37282 0.38248 0.0
C333 C 0.90874 0.33695 0.38168 0.0
C334 C 0.86976 0.33175 0.3548 0.0
C335 C 0.85571 0.36219 0.33052 0.0
C336 C 0.8202 0.35072 0.29828 0.0
C337 C 0.81368 0.30854 0.30828 0.0
C338 C 0.84175 0.29762 0.34217 0.0
C339 C 0.77079 0.36945 0.30784 0.0
C340 C 0.84663 0.36136 0.25285 0.0
H341 H 0.77032 0.15293 0.33042 0.0
H342 H 0.86215 0.17836 0.45774 0.0
H343 H 0.92978 0.21527 0.37755 0.0
H344 H 0.93508 0.26436 0.36739 0.0
H345 H 0.93556 0.24412 0.42157 0.0
H346 H 0.8 0.25497 0.44423 0.0
H347 H 0.85764 0.24605 0.46711 0.0
H348 H 0.85136 0.28981 0.43783 0.0
H349 H 0.67994 0.21486 0.2125 0.0
H350 H 0.70138 0.33299 0.17236 0.0
H351 H 0.75648 0.34323 0.22823 0.0
H352 H 0.67525 0.22551 0.31769 0.0
H353 H 0.67563 0.18326 0.28993 0.0
H354 H 0.70762 0.18793 0.33757 0.0
H355 H 0.79201 0.2034 0.22281 0.0
H356 H 0.8049 0.17959 0.27081 0.0
H357 H 0.74762 0.16666 0.24697 0.0
H358 H 0.7794 0.10224 0.38319 0.0
C359 C 0.79042 0.15955 0.35743 0.0
C360 C 0.2731 0.16394 0.68905 0.0
C361 C 0.24239 0.16098 0.65503 0.0
C362 C 0.21342 0.19112 0.64463 0.0
C363 C 0.24702 0.22634 0.70082 0.0
C364 C 0.27483 0.19658 0.7113 0.0
C365 C 0.30591 0.20391 0.748 0.0
H366 H 0.3667 0.31407 0.90512 0.0
C367 C 0.25832 0.25636 0.72978 0.0
C368 C 0.2929 0.24319 0.75746 0.0
H369 H 0.42328 0.20742 0.87659 0.0
H370 H 0.37492 0.20521 0.81584 0.0
H371 H 0.25145 0.29883 0.87965 0.0
H372 H 0.38948 0.34777 0.81421 0.0
H373 H 0.34281 0.36811 0.78654 0.0
H374 H 0.34756 0.37606 0.84233 0.0
H375 H 0.28575 0.34099 0.89269 0.0
H376 H 0.24112 0.34237 0.85328 0.0
C377 C 0.28732 0.17461 0.78545 0.0
C378 C 0.36197 0.20298 0.73211 0.0
C379 C 0.17222 0.37927 0.72135 0.0
C380 C 0.17748 0.412 0.74394 0.0
C381 C 0.21479 0.4145 0.77305 0.0
C382 C 0.24353 0.38447 0.7819 0.0
C383 C 0.23601 0.35142 0.76101 0.0
C384 C 0.20227 0.34953 0.73013 0.0
C385 C 0.20275 0.31278 0.70911 0.0
C386 C 0.24121 0.29285 0.7335 0.0
C387 C 0.2596 0.31557 0.76441 0.0
C388 C 0.14984 0.29209 0.71716 0.0
C389 C 0.22077 0.32149 0.66124 0.0
C390 C 0.3693 0.29022 0.88593 0.0
C391 C 0.39842 0.26046 0.89712 0.0
C392 C 0.39998 0.23021 0.87039 0.0
C393 C 0.37218 0.2291 0.83452 0.0
C394 C 0.34286 0.25878 0.8244 0.0
C395 C 0.34281 0.28907 0.84934 0.0
C396 C 0.31315 0.31964 0.83167 0.0
C397 C 0.29307 0.30171 0.79331 0.0
C398 C 0.31013 0.26593 0.78951 0.0
C399 C 0.27063 0.32612 0.86601 0.0
C400 C 0.34979 0.35485 0.81815 0.0
H401 H 0.19288 0.24567 0.65766 0.0
H402 H 0.29529 0.14122 0.69844 0.0
H403 H 0.36888 0.21271 0.69763 0.0
H404 H 0.38689 0.22221 0.74852 0.0
H405 H 0.37429 0.17411 0.73594 0.0
H406 H 0.2457 0.17012 0.78824 0.0
H407 H 0.30252 0.14708 0.78035 0.0
H408 H 0.29695 0.18342 0.81691 0.0
H409 H 0.14452 0.37636 0.69835 0.0
H410 H 0.22156 0.4397 0.78964 0.0
H411 H 0.27007 0.38805 0.80522 0.0
H412 H 0.13423 0.29456 0.75064 0.0
H413 H 0.12365 0.30425 0.69542 0.0
H414 H 0.14974 0.26168 0.71338 0.0
H415 H 0.25032 0.34523 0.657 0.0
H416 H 0.23834 0.29787 0.64686 0.0
H417 H 0.18938 0.32945 0.64244 0.0
H418 H 0.18978 0.18986 0.61834 0.0
C419 C 0.21559 0.2237 0.66727 0.0
C420 C 0.15631 0.6647 0.36113 0.0
C421 C 0.1629 0.63113 0.3409 0.0
C422 C 0.20712 0.62842 0.31443 0.0
C423 C 0.23262 0.69358 0.32212 0.0
C424 C 0.1927 0.69524 0.35222 0.0
C425 C 0.19561 0.73211 0.37313 0.0
H426 H 0.31137 0.90743 0.37901 0.0
C427 C 0.26221 0.73004 0.3178 0.0
C428 C 0.24264 0.75242 0.34897 0.0
H429 H 0.18731 0.85427 0.46339 0.0
H430 H 0.19023 0.79805 0.42548 0.0
H431 H 0.27636 0.86961 0.28534 0.0
H432 H 0.37637 0.83788 0.38096 0.0
H433 H 0.4017 0.82786 0.33006 0.0
H434 H 0.39393 0.87603 0.34132 0.0
H435 H 0.32588 0.901 0.30118 0.0
H436 H 0.33931 0.86705 0.26391 0.0
C437 C 0.14805 0.75223 0.3645 0.0
C438 C 0.20238 0.72376 0.42122 0.0
C439 C 0.37347 0.76544 0.1815 0.0
C440 C 0.41525 0.79135 0.17098 0.0
C441 C 0.42795 0.8172 0.20122 0.0
C442 C 0.39902 0.81743 0.24061 0.0
C443 C 0.35824 0.79047 0.2507 0.0
C444 C 0.34856 0.76351 0.22245 0.0
C445 C 0.31561 0.73051 0.24325 0.0
C446 C 0.30016 0.74532 0.28623 0.0
C447 C 0.32381 0.78113 0.28979 0.0
C448 C 0.27047 0.72298 0.21659 0.0
C449 C 0.34828 0.69656 0.24784 0.0
C450 C 0.28489 0.88371 0.38953 0.0
C451 C 0.24879 0.88581 0.42427 0.0
C452 C 0.21493 0.85404 0.43638 0.0
C453 C 0.21695 0.82113 0.41457 0.0
C454 C 0.25326 0.81958 0.38013 0.0
C455 C 0.28645 0.85058 0.36805 0.0
C456 C 0.32326 0.84355 0.33122 0.0
C457 C 0.30636 0.80336 0.32296 0.0
C458 C 0.2653 0.78938 0.35188 0.0
C459 C 0.31608 0.87173 0.29322 0.0
C460 C 0.37679 0.8467 0.34631 0.0
H461 H 0.27345 0.6561 0.28313 0.0
H462 H 0.12352 0.66722 0.38284 0.0
H463 H 0.22305 0.69828 0.42649 0.0
H464 H 0.22525 0.74639 0.43455 0.0
H465 H 0.16559 0.71885 0.44037 0.0
H466 H 0.14046 0.75131 0.33029 0.0
H467 H 0.11477 0.73842 0.38428 0.0
H468 H 0.15152 0.78221 0.37073 0.0
H469 H 0.36122 0.74595 0.15895 0.0
H470 H 0.46015 0.83738 0.19423 0.0
H471 H 0.41009 0.83788 0.26221 0.0
H472 H 0.24989 0.74863 0.2125 0.0
H473 H 0.28304 0.71451 0.18437 0.0
H474 H 0.2436 0.70021 0.23178 0.0
H475 H 0.38846 0.70387 0.2369 0.0
H476 H 0.3484 0.68572 0.28176 0.0
H477 H 0.33532 0.67335 0.22862 0.0
H478 H 0.21392 0.60248 0.29984 0.0
C479 C 0.2415 0.65956 0.30448 0.0
C480 C 0.1052 0.57976 0.38566 0.0
C481 C 0.12187 0.59006 0.42424 0.0
C482 C 0.09457 0.56746 0.45575 0.0
C483 C 0.06346 0.54435 0.43476 0.0
N484 N 0.06949 0.55051 0.3917 0.0
Co485 Co 0.03329 0.52161 0.34924 0.0
N486 N 0.99101 0.49022 0.39576 0.0
C487 C 0.98972 0.49466 0.43817 0.0
C488 C 0.95588 0.4698 0.4624 0.0
C489 C 0.93482 0.44772 0.43379 0.0
C490 C 0.9577 0.4601 0.39362 0.0
N491 N 0.99893 0.49145 0.30673 0.0
C492 C 0.9697 0.45859 0.31301 0.0
C493 C 0.96265 0.44287 0.27439 0.0
C494 C 0.9867 0.46696 0.2428 0.0
C495 C 0.00827 0.49545 0.26361 0.0
N496 N 0.07385 0.55422 0.30259 0.0
C497 C 0.06979 0.55332 0.26003 0.0
C498 C 0.0957 0.58273 0.23589 0.0
C499 C 0.11744 0.60402 0.26467 0.0
C500 C 0.10448 0.5858 0.30496 0.0
N501 N 0.08446 0.4842 0.34957 0.0
C502 C 0.13777 0.41883 0.34648 0.0
C503 C 0.13162 0.44141 0.30936 0.0
C504 C 0.10653 0.47406 0.31179 0.0
C505 C 0.1201 0.43188 0.38567 0.0
C506 C 0.09357 0.46423 0.38647 0.0
N507 N 0.98164 0.55879 0.3485 0.0
C508 C 0.92961 0.59725 0.30765 0.0
C509 C 0.91522 0.61645 0.34336 0.0
C510 C 0.93427 0.60574 0.38214 0.0
C511 C 0.96712 0.57699 0.384 0.0
C512 C 0.96165 0.56861 0.31105 0.0
H513 H 0.98052 0.57018 0.4144 0.0
H514 H 0.97023 0.5553 0.2825 0.0
H515 H 0.10349 0.48976 0.28227 0.0
H516 H 0.0794 0.47198 0.41714 0.0
C517 C 0.02504 0.51916 0.4545 0.0
C518 C 0.12292 0.59942 0.34429 0.0
C519 C 0.94884 0.44099 0.35484 0.0
C520 C 0.04017 0.52503 0.24368 0.0
H521 H 0.15006 0.6121 0.42934 0.0
H522 H 0.09624 0.56848 0.48996 0.0
H523 H 0.94885 0.46703 0.4969 0.0
H524 H 0.90695 0.42439 0.44181 0.0
H525 H 0.94371 0.41616 0.26908 0.0
H526 H 0.99 0.46327 0.20882 0.0
H527 H 0.09753 0.5885 0.20154 0.0
H528 H 0.1398 0.6303 0.25666 0.0
H529 H 0.14403 0.43362 0.27786 0.0
H530 H 0.12562 0.41704 0.4158 0.0
H531 H 0.91704 0.60461 0.27654 0.0
H532 H 0.92379 0.61924 0.41098 0.0
C533 C 0.08852 0.60064 0.77002 0.0
C534 C 0.09551 0.61642 0.80862 0.0
C535 C 0.07151 0.59233 0.84023 0.0
C536 C 0.05003 0.56379 0.81945 0.0
N537 N 0.0594 0.56773 0.77634 0.0
Co538 Co 0.02498 0.53757 0.73385 0.0
N539 N 0.98446 0.50496 0.78053 0.0
C540 C 0.98856 0.50588 0.82309 0.0
C541 C 0.96271 0.47646 0.84724 0.0
C542 C 0.94097 0.45514 0.81849 0.0
C543 C 0.95387 0.47336 0.77818 0.0
N544 N 0.98874 0.50867 0.69143 0.0
C545 C 0.95305 0.4794 0.6975 0.0
C546 C 0.93635 0.4691 0.65893 0.0
C547 C 0.9636 0.4917 0.6274 0.0
C548 C 0.99473 0.51482 0.64837 0.0
N549 N 0.06723 0.56896 0.6873 0.0
C550 C 0.06849 0.56449 0.64491 0.0
C551 C 0.10231 0.58936 0.62065 0.0
C552 C 0.12339 0.61145 0.64924 0.0
C553 C 0.10053 0.59909 0.68942 0.0
N554 N 0.07663 0.50039 0.73458 0.0
C555 C 0.14305 0.44274 0.7397 0.0
C556 C 0.12397 0.45343 0.70094 0.0
C557 C 0.09112 0.48218 0.69907 0.0
C558 C 0.12869 0.46195 0.77541 0.0
C559 C 0.09665 0.49059 0.77201 0.0
N560 N 0.97381 0.57499 0.73355 0.0
C561 C 0.93818 0.62731 0.69747 0.0
C562 C 0.92052 0.64037 0.73666 0.0
C563 C 0.92666 0.61777 0.77378 0.0
C564 C 0.95174 0.58512 0.77134 0.0
C565 C 0.96469 0.59496 0.69666 0.0
H566 H 0.95477 0.56941 0.80085 0.0
H567 H 0.97886 0.58722 0.66598 0.0
H568 H 0.07768 0.48897 0.66869 0.0
H569 H 0.0881 0.50392 0.80056 0.0
C570 C 0.01817 0.53419 0.83941 0.0
C571 C 0.10938 0.61821 0.72818 0.0
C572 C 0.9354 0.45973 0.73887 0.0
C573 C 0.03315 0.54 0.6286 0.0
H574 H 0.11438 0.64317 0.8139 0.0
H575 H 0.06817 0.59606 0.87421 0.0
H576 H 0.96092 0.47069 0.88159 0.0
H577 H 0.91866 0.42885 0.82651 0.0
H578 H 0.90816 0.44704 0.65385 0.0
H579 H 0.96191 0.49067 0.5932 0.0
H580 H 0.10932 0.59212 0.58615 0.0
H581 H 0.15124 0.63479 0.6412 0.0
H582 H 0.13443 0.43992 0.6721 0.0
H583 H 0.14129 0.45461 0.80652 0.0
H584 H 0.93265 0.64217 0.66734 0.0
H585 H 0.91425 0.62556 0.80528 0.0
C586 C 0.28729 0.96958 0.60254 0.0
C587 C 0.33309 0.95713 0.61254 0.0
C588 C 0.36934 0.97907 0.58784 0.0
C589 C 0.34391 1.00317 0.56371 0.0
N590 N 0.29346 0.99822 0.57158 0.0
Co591 Co 0.24259 0.02391 0.53915 0.0
N592 N 0.2963 0.05549 0.50205 0.0
C593 C 0.34635 0.05577 0.50489 0.0
C594 C 0.37389 0.08327 0.47892 0.0
C595 C 0.33946 0.10203 0.45841 0.0
C596 C 0.29261 0.0844 0.47257 0.0
N597 N 0.19179 0.04879 0.50579 0.0
C598 C 0.19796 0.07657 0.47376 0.0
C599 C 0.15239 0.0849 0.45896 0.0
C600 C 0.11614 0.06235 0.48316 0.0
C601 C 0.14146 0.04131 0.51095 0.0
N602 N 0.18887 0.99328 0.57735 0.0
C603 C 0.1388 0.99496 0.57654 0.0
C604 C 0.1111 0.97157 0.60735 0.0
C605 C 0.14547 0.95366 0.62908 0.0
C606 C 0.19241 0.96691 0.60988 0.0
N607 N 0.24131 0.06442 0.57959 0.0
C608 C 0.24159 0.12701 0.62995 0.0
C609 C 0.1971 0.11145 0.6158 0.0
C610 C 0.19774 0.08029 0.59114 0.0
C611 C 0.28562 0.10981 0.61959 0.0
C612 C 0.28461 0.07879 0.59481 0.0
N613 N 0.244 0.98332 0.49861 0.0
C614 C 0.20145 0.93203 0.46569 0.0
C615 C 0.24698 0.92044 0.44844 0.0
C616 C 0.29082 0.94204 0.45538 0.0
C617 C 0.28845 0.97319 0.47995 0.0
C618 C 0.20082 0.9632 0.49034 0.0
H619 H 0.32326 0.98821 0.48402 0.0
H620 H 0.16491 0.97015 0.50283 0.0
H621 H 0.16258 0.06982 0.58139 0.0
H622 H 0.31955 0.06733 0.58778 0.0
C623 C 0.36637 0.03059 0.53325 0.0
C624 C 0.2391 0.95308 0.62318 0.0
C625 C 0.24589 0.09628 0.45699 0.0
C626 C 0.11892 0.01692 0.54469 0.0
H627 H 0.33993 0.93422 0.63494 0.0
H628 H 0.40947 0.97728 0.58706 0.0
H629 H 0.41414 0.08949 0.47601 0.0
H630 H 0.34807 0.12634 0.43599 0.0
H631 H 0.14581 0.10558 0.43379 0.0
H632 H 0.07601 0.06205 0.48148 0.0
H633 H 0.07068 0.96752 0.61287 0.0
H634 H 0.13682 0.93287 0.65573 0.0
H635 H 0.16177 0.12313 0.62379 0.0
H636 H 0.32118 0.12074 0.62961 0.0
H637 H 0.16618 0.91712 0.46036 0.0
H638 H 0.3272 0.9345 0.44296 0.0
C639 C 0.45381 0.82724 0.1013 0.0
C640 C 0.43005 0.85964 0.10898 0.0
C641 C 0.44745 0.88597 0.07652 0.0
C642 C 0.48013 0.86819 0.0505 0.0
N643 N 0.48426 0.83234 0.06453 0.0
Co644 Co 0.52326 0.79597 0.03399 0.0
N645 N 0.56566 0.83665 0.99934 0.0
C646 C 0.55618 0.87308 0.99554 0.0
C647 C 0.59524 0.89558 0.97449 0.0
C648 C 0.63099 0.87172 0.96358 0.0
C649 C 0.61106 0.83556 0.97729 0.0
N650 N 0.56116 0.75928 0.00269 0.0
C651 C 0.60282 0.76459 0.97491 0.0
C652 C 0.61089 0.73185 0.9546 0.0
C653 C 0.57394 0.7053 0.97091 0.0
C654 C 0.54476 0.72317 0.99952 0.0
N655 N 0.48147 0.75547 0.06946 0.0
C656 C 0.47733 0.71888 0.06178 0.0
C657 C 0.45482 0.69647 0.096 0.0
C658 C 0.4436 0.72048 0.12683 0.0
C659 C 0.45786 0.75672 0.10908 0.0
N660 N 0.47505 0.79522 0.99037 0.0
C661 C 0.40679 0.79098 0.92793 0.0
C662 C 0.39002 0.78685 0.97138 0.0
C663 C 0.42472 0.78958 0.00213 0.0
C664 C 0.45804 0.79793 0.9162 0.0
C665 C 0.49157 0.79961 0.94785 0.0
N666 N 0.57113 0.79681 0.07767 0.0
C667 C 0.61318 0.7639 0.13168 0.0
C668 C 0.63056 0.79797 0.1473 0.0
C669 C 0.61889 0.83142 0.12575 0.0
C670 C 0.5887 0.83021 0.09165 0.0
C671 C 0.58455 0.764 0.09648 0.0
H672 H 0.5788 0.85642 0.07718 0.0
H673 H 0.5718 0.73738 0.08542 0.0
H674 H 0.41083 0.78665 0.03544 0.0
H675 H 0.53093 0.80391 0.93769 0.0
C676 C 0.51439 0.88576 0.01814 0.0
C677 C 0.4453 0.79183 0.12852 0.0
C678 C 0.63263 0.8008 0.96412 0.0
C679 C 0.50548 0.70593 0.02738 0.0
H680 H 0.40307 0.86399 0.13526 0.0
H681 H 0.43889 0.91504 0.07335 0.0
H682 H 0.59832 0.92587 0.96926 0.0
H683 H 0.66725 0.88018 0.94684 0.0
H684 H 0.63937 0.72743 0.92957 0.0
H685 H 0.56916 0.67635 0.963 0.0
H686 H 0.45078 0.66609 0.09948 0.0
H687 H 0.42795 0.71165 0.15894 0.0
H688 H 0.35045 0.78145 0.98143 0.0
H689 H 0.47219 0.80095 0.88279 0.0
H690 H 0.62018 0.73709 0.147 0.0
H691 H 0.63249 0.8586 0.13511 0.0
C692 C 0.86036 0.98259 0.60929 0.0
C693 C 0.90592 0.97424 0.62408 0.0
C694 C 0.94218 0.99678 0.59988 0.0
C695 C 0.91687 0.01782 0.57209 0.0
N696 N 0.86654 0.01036 0.57725 0.0
Co697 Co 0.81575 0.03527 0.5439 0.0
N698 N 0.86948 0.0659 0.50572 0.0
C699 C 0.91956 0.06422 0.50654 0.0
C700 C 0.94727 0.08761 0.47574 0.0
C701 C 0.9129 0.10552 0.454 0.0
C702 C 0.86596 0.09228 0.47319 0.0
N703 N 0.76489 0.06099 0.51149 0.0
C704 C 0.77108 0.0896 0.48049 0.0
C705 C 0.72527 0.10204 0.47047 0.0
C706 C 0.68902 0.0801 0.49517 0.0
C707 C 0.71445 0.05602 0.51933 0.0
N708 N 0.76203 1.00369 0.58099 0.0
C709 C 0.71198 1.00343 0.57816 0.0
C710 C 0.68443 0.97594 0.60413 0.0
C711 C 0.71885 0.95716 0.62465 0.0
C712 C 0.76571 0.97479 0.61048 0.0
N713 N 0.81436 0.07584 0.58447 0.0
C714 C 0.8114 0.13871 0.63467 0.0
C715 C 0.76756 0.11713 0.6277 0.0
C716 C 0.76991 0.086 0.60311 0.0
C717 C 0.85693 0.1271 0.61743 0.0
C718 C 0.85755 0.09594 0.59276 0.0
N719 N 0.81701 0.99478 0.50344 0.0
C720 C 0.77269 0.94939 0.46345 0.0
C721 C 0.81671 0.93219 0.45307 0.0
C722 C 0.86121 0.94776 0.46722 0.0
C723 C 0.86058 0.97891 0.49188 0.0
C724 C 0.77371 0.9804 0.48823 0.0
H725 H 0.89575 0.98938 0.50162 0.0
H726 H 0.73876 0.99186 0.49528 0.0
H727 H 0.7351 0.071 0.59901 0.0
H728 H 0.89346 0.08897 0.58028 0.0
C729 C 0.93942 0.04223 0.53837 0.0
C730 C 0.81242 0.96289 0.62607 0.0
C731 C 0.81927 0.10609 0.45986 0.0
C732 C 0.69197 0.02862 0.5498 0.0
H733 H 0.91249 0.95356 0.64926 0.0
H734 H 0.98231 0.99707 0.60156 0.0
H735 H 0.98768 0.09165 0.47022 0.0
H736 H 0.92156 0.12631 0.42735 0.0
H737 H 0.71844 0.12493 0.44803 0.0
H738 H 0.64889 0.08188 0.49592 0.0
H739 H 0.64418 0.96972 0.60703 0.0
H740 H 0.71023 0.93286 0.64706 0.0
H741 H 0.73118 0.12469 0.6401 0.0
H742 H 0.89221 0.14198 0.62279 0.0
H743 H 0.73713 0.93846 0.45344 0.0
H744 H 0.89654 0.93607 0.45921 0.0
C745 C 0.45549 0.29458 0.10818 0.0
C746 C 0.44749 0.32731 0.12854 0.0
C747 C 0.48446 0.35384 0.11222 0.0
C748 C 0.51356 0.33597 0.08356 0.0
N749 N 0.4971 0.29988 0.08035 0.0
Co750 Co 0.53498 0.26315 0.04908 0.0
N751 N 0.57681 0.30364 0.01362 0.0
C752 C 0.58098 0.34023 0.02129 0.0
C753 C 0.60352 0.36262 0.98708 0.0
C754 C 0.61472 0.33861 0.95624 0.0
C755 C 0.60042 0.30238 0.97399 0.0
N756 N 0.57398 0.22677 0.01856 0.0
C757 C 0.6044 0.23184 0.98178 0.0
C758 C 0.6281 0.19943 0.97409 0.0
C759 C 0.61068 0.1731 0.00655 0.0
C760 C 0.57806 0.19091 0.03259 0.0
N761 N 0.49255 0.2225 0.08373 0.0
C762 C 0.50199 0.18606 0.08753 0.0
C763 C 0.4629 0.16358 0.10857 0.0
C764 C 0.42718 0.18746 0.11948 0.0
C765 C 0.44715 0.22361 0.10578 0.0
N766 N 0.48713 0.26233 0.00539 0.0
C767 C 0.42771 0.26119 0.93575 0.0
C768 C 0.43936 0.22773 0.9573 0.0
C769 C 0.46954 0.22893 0.9914 0.0
C770 C 0.44512 0.29525 0.95136 0.0
C771 C 0.47375 0.29515 0.98657 0.0
N772 N 0.58318 0.2639 0.09271 0.0
C773 C 0.60018 0.2612 0.16689 0.0
C774 C 0.65143 0.26814 0.15516 0.0
C775 C 0.66821 0.27225 0.11172 0.0
C776 C 0.63351 0.26952 0.08096 0.0
C777 C 0.56666 0.25952 0.13524 0.0
H778 H 0.64741 0.27244 0.04766 0.0
H779 H 0.52729 0.25522 0.14539 0.0
H780 H 0.47943 0.20272 0.00588 0.0
H781 H 0.4865 0.32176 0.99763 0.0
C782 C 0.55286 0.35319 0.0557 0.0
C783 C 0.42563 0.25838 0.11896 0.0
C784 C 0.61295 0.26726 0.95457 0.0
C785 C 0.54376 0.17336 0.06493 0.0
H786 H 0.41906 0.33172 0.15362 0.0
H787 H 0.48931 0.38277 0.12017 0.0
H788 H 0.60759 0.393 0.9836 0.0
H789 H 0.63038 0.34743 0.92414 0.0
H790 H 0.65505 0.19505 0.94779 0.0
H791 H 0.61919 0.14402 0.0097 0.0
H792 H 0.45979 0.13328 0.11379 0.0
H793 H 0.39092 0.17902 0.13621 0.0
H794 H 0.42574 0.20055 0.94794 0.0
H795 H 0.43813 0.32207 0.93605 0.0
H796 H 0.58603 0.25819 0.2003 0.0
H797 H 0.70778 0.27764 0.10167 0.0
loop_
_geom_bond_atom_site_label_1
_geom_bond_atom_site_label_2
_geom_bond_distance
_geom_bond_site_symmetry_2
_ccdc_geom_bond_type
C0 C1 1.391 . S
C0 C4 1.391 . S
C0 H42 0.948 . S
C1 C0 1.391 . S
C1 C2 1.391 . S
C2 C1 1.391 . S
C2 H58 0.947 . S
C2 C59 1.392 . S
C3 C4 1.391 . S
C3 C7 1.397 . S
C3 C59 1.419 . S
C4 C0 1.391 . S
C4 C3 1.391 . S
C4 C5 1.399 . S
C5 C4 1.399 . S
C5 C8 1.396 . S
C5 C17 1.453 . S
C5 C18 1.684 . S
H6 C30 0.948 . S
C7 C3 1.397 . S
C7 C8 1.394 . S
C7 C26 1.723 . S
C8 C5 1.396 . S
C8 C7 1.394 . S
C8 C38 1.723 . S
H9 C32 0.947 . S
H10 C33 0.948 . S
H11 C39 0.982 . S
H12 C40 0.979 . S
H13 C40 0.980 . S
H14 C40 0.983 . S
H15 C39 0.979 . S
H16 C39 0.977 . S
C17 C5 1.453 . S
C17 H46 0.982 . S
C17 H47 0.979 . S
C17 H48 0.977 . S
C18 C5 1.684 . S
C18 H43 0.979 . S
C18 H44 0.980 . S
C18 H45 0.983 . S
C19 C20 1.391 . S
C19 C24 1.391 . S
C19 H49 0.948 . S
C20 C19 1.391 . S
C20 C21 1.391 . S
C21 C20 1.391 . S
C21 C22 1.392 . S
C21 H50 0.947 . S
C22 C21 1.392 . S
C22 C23 1.419 . S
C22 H51 0.948 . S
C23 C22 1.419 . S
C23 C24 1.391 . S
C23 C27 1.397 . S
C24 C19 1.391 . S
C24 C23 1.391 . S
C24 C25 1.399 . S
C25 C24 1.399 . S
C25 C26 1.396 . S
C25 C28 1.453 . S
C25 C29 1.684 . S
C26 C7 1.723 . S
C26 C25 1.396 . S
C26 C27 1.394 . S
C27 C23 1.397 . S
C27 C26 1.394 . S
C27 C37 1.723 . S
C28 C25 1.453 . S
C28 H52 0.982 . S
C28 H53 0.979 . S
C28 H54 0.977 . S
C29 C25 1.684 . S
C29 H55 0.979 . S
C29 H56 0.980 . S
C29 H57 0.983 . S
C30 H6 0.948 . S
C30 C31 1.391 . S
C30 C35 1.391 . S
C31 C30 1.391 . S
C31 C32 1.391 . S
C32 H9 0.947 . S
C32 C31 1.391 . S
C32 C33 1.392 . S
C33 H10 0.948 . S
C33 C32 1.392 . S
C33 C34 1.419 . S
C34 C33 1.419 . S
C34 C35 1.391 . S
C34 C38 1.397 . S
C35 C30 1.391 . S
C35 C34 1.391 . S
C35 C36 1.399 . S
C36 C35 1.399 . S
C36 C37 1.396 . S
C36 C39 1.453 . S
C36 C40 1.684 . S
C37 C27 1.723 . S
C37 C36 1.396 . S
C37 C38 1.394 . S
C38 C8 1.723 . S
C38 C34 1.397 . S
C38 C37 1.394 . S
C39 H11 0.982 . S
C39 H15 0.979 . S
C39 H16 0.977 . S
C39 C36 1.453 . S
C40 H12 0.979 . S
C40 H13 0.980 . S
C40 H14 0.983 . S
C40 C36 1.684 . S
H41 C59 0.948 . S
H42 C0 0.948 . S
H43 C18 0.979 . S
H44 C18 0.980 . S
H45 C18 0.983 . S
H46 C17 0.982 . S
H47 C17 0.979 . S
H48 C17 0.977 . S
H49 C19 0.948 . S
H50 C21 0.947 . S
H51 C22 0.948 . S
H52 C28 0.982 . S
H53 C28 0.979 . S
H54 C28 0.977 . S
H55 C29 0.979 . S
H56 C29 0.980 . S
H57 C29 0.983 . S
H58 C2 0.947 . S
C59 C2 1.392 . S
C59 C3 1.419 . S
C59 H41 0.948 . S
C60 C61 1.391 . S
C60 C64 1.391 . S
C60 H102 0.948 . S
C61 C60 1.391 . S
C61 C62 1.391 . S
C62 C61 1.391 . S
C62 H118 0.947 . S
C62 C119 1.392 . S
C63 C64 1.391 . S
C63 C67 1.397 . S
C63 C119 1.419 . S
C64 C60 1.391 . S
C64 C63 1.391 . S
C64 C65 1.399 . S
C65 C64 1.399 . S
C65 C68 1.396 . S
C65 C77 1.453 . S
C65 C78 1.684 . S
H66 C90 0.948 . S
C67 C63 1.397 . S
C67 C68 1.394 . S
C67 C86 1.723 . S
C68 C65 1.396 . S
C68 C67 1.394 . S
C68 C98 1.723 . S
H69 C92 0.947 . S
H70 C93 0.948 . S
H71 C99 0.982 . S
H72 C100 0.979 . S
H73 C100 0.980 . S
H74 C100 0.983 . S
H75 C99 0.979 . S
H76 C99 0.977 . S
C77 C65 1.453 . S
C77 H106 0.982 . S
C77 H107 0.979 . S
C77 H108 0.977 . S
C78 C65 1.684 . S
C78 H103 0.979 . S
C78 H104 0.980 . S
C78 H105 0.983 . S
C79 C80 1.391 . S
C79 C84 1.391 . S
C79 H109 0.948 . S
C80 C79 1.391 . S
C80 C81 1.391 . S
C81 C80 1.391 . S
C81 C82 1.392 . S
C81 H110 0.947 . S
C82 C81 1.392 . S
C82 C83 1.419 . S
C82 H111 0.948 . S
C83 C82 1.419 . S
C83 C84 1.391 . S
C83 C87 1.397 . S
C84 C79 1.391 . S
C84 C83 1.391 . S
C84 C85 1.399 . S
C85 C84 1.399 . S
C85 C86 1.396 . S
C85 C88 1.453 . S
C85 C89 1.684 . S
C86 C67 1.723 . S
C86 C85 1.396 . S
C86 C87 1.394 . S
C87 C83 1.397 . S
C87 C86 1.394 . S
C87 C97 1.723 . S
C88 C85 1.453 . S
C88 H112 0.982 . S
C88 H113 0.979 . S
C88 H114 0.977 . S
C89 C85 1.684 . S
C89 H115 0.979 . S
C89 H116 0.980 . S
C89 H117 0.983 . S
C90 H66 0.948 . S
C90 C91 1.391 . S
C90 C95 1.391 . S
C91 C90 1.391 . S
C91 C92 1.391 . S
C92 H69 0.947 . S
C92 C91 1.391 . S
C92 C93 1.392 . S
C93 H70 0.948 . S
C93 C92 1.392 . S
C93 C94 1.419 . S
C94 C93 1.419 . S
C94 C95 1.391 . S
C94 C98 1.397 . S
C95 C90 1.391 . S
C95 C94 1.391 . S
C95 C96 1.399 . S
C96 C95 1.399 . S
C96 C97 1.396 . S
C96 C99 1.453 . S
C96 C100 1.684 . S
C97 C87 1.723 . S
C97 C96 1.396 . S
C97 C98 1.394 . S
C98 C68 1.723 . S
C98 C94 1.397 . S
C98 C97 1.394 . S
C99 H71 0.982 . S
C99 H75 0.979 . S
C99 H76 0.977 . S
C99 C96 1.453 . S
C100 H72 0.979 . S
C100 H73 0.980 . S
C100 H74 0.983 . S
C100 C96 1.684 . S
H101 C119 0.948 . S
H102 C60 0.948 . S
H103 C78 0.979 . S
H104 C78 0.980 . S
H105 C78 0.983 . S
H106 C77 0.982 . S
H107 C77 0.979 . S
H108 C77 0.977 . S
H109 C79 0.948 . S
H110 C81 0.947 . S
H111 C82 0.948 . S
H112 C88 0.982 . S
H113 C88 0.979 . S
H114 C88 0.977 . S
H115 C89 0.979 . S
H116 C89 0.980 . S
H117 C89 0.983 . S
H118 C62 0.947 . S
C119 C62 1.392 . S
C119 C63 1.419 . S
C119 H101 0.948 . S
C120 C121 1.391 . S
C120 C124 1.391 . S
C120 H162 0.948 . S
C121 C120 1.391 . S
C121 C122 1.391 . S
C122 C121 1.391 . S
C122 H178 0.947 . S
C122 C179 1.392 . S
C123 C124 1.391 . S
C123 C127 1.397 . S
C123 C179 1.419 . S
C124 C120 1.391 . S
C124 C123 1.391 . S
C124 C125 1.399 . S
C125 C124 1.399 . S
C125 C128 1.396 . S
C125 C137 1.453 . S
C125 C138 1.684 . S
H126 C150 0.948 . S
C127 C123 1.397 . S
C127 C128 1.394 . S
C127 C146 1.723 . S
C128 C125 1.396 . S
C128 C127 1.394 . S
C128 C158 1.723 . S
H129 C152 0.947 . S
H130 C153 0.948 . S
H131 C159 0.982 . S
H132 C160 0.979 . S
H133 C160 0.980 . S
H134 C160 0.983 . S
H135 C159 0.979 . S
H136 C159 0.977 . S
C137 C125 1.453 . S
C137 H166 0.982 . S
C137 H167 0.979 . S
C137 H168 0.977 . S
C138 C125 1.684 . S
C138 H163 0.979 . S
C138 H164 0.980 . S
C138 H165 0.983 . S
C139 C140 1.391 . S
C139 C144 1.391 . S
C139 H169 0.948 . S
C140 C139 1.391 . S
C140 C141 1.391 . S
C141 C140 1.391 . S
C141 C142 1.392 . S
C141 H170 0.947 . S
C142 C141 1.392 . S
C142 C143 1.419 . S
C142 H171 0.948 . S
C143 C142 1.419 . S
C143 C144 1.391 . S
C143 C147 1.397 . S
C144 C139 1.391 . S
C144 C143 1.391 . S
C144 C145 1.399 . S
C145 C144 1.399 . S
C145 C146 1.396 . S
C145 C148 1.453 . S
C145 C149 1.684 . S
C146 C127 1.723 . S
C146 C145 1.396 . S
C146 C147 1.394 . S
C147 C143 1.397 . S
C147 C146 1.394 . S
C147 C157 1.723 . S
C148 C145 1.453 . S
C148 H172 0.982 . S
C148 H173 0.979 . S
C148 H174 0.977 . S
C149 C145 1.684 . S
C149 H175 0.979 . S
C149 H176 0.980 . S
C149 H177 0.983 . S
C150 H126 0.948 . S
C150 C151 1.391 . S
C150 C155 1.391 . S
C151 C150 1.391 . S
C151 C152 1.391 . S
C152 H129 0.947 . S
C152 C151 1.391 . S
C152 C153 1.392 . S
C153 H130 0.948 . S
C153 C152 1.392 . S
C153 C154 1.419 . S
C154 C153 1.419 . S
C154 C155 1.391 . S
C154 C158 1.397 . S
C155 C150 1.391 . S
C155 C154 1.391 . S
C155 C156 1.399 . S
C156 C155 1.399 . S
C156 C157 1.396 . S
C156 C159 1.453 . S
C156 C160 1.684 . S
C157 C147 1.723 . S
C157 C156 1.396 . S
C157 C158 1.394 . S
C158 C128 1.723 . S
C158 C154 1.397 . S
C158 C157 1.394 . S
C159 H131 0.982 . S
C159 H135 0.979 . S
C159 H136 0.977 . S
C159 C156 1.453 . S
C160 H132 0.979 . S
C160 H133 0.980 . S
C160 H134 0.983 . S
C160 C156 1.684 . S
H161 C179 0.948 . S
H162 C120 0.948 . S
H163 C138 0.979 . S
H164 C138 0.980 . S
H165 C138 0.983 . S
H166 C137 0.982 . S
H167 C137 0.979 . S
H168 C137 0.977 . S
H169 C139 0.948 . S
H170 C141 0.947 . S
H171 C142 0.948 . S
H172 C148 0.982 . S
H173 C148 0.979 . S
H174 C148 0.977 . S
H175 C149 0.979 . S
H176 C149 0.980 . S
H177 C149 0.983 . S
H178 C122 0.947 . S
C179 C122 1.392 . S
C179 C123 1.419 . S
C179 H161 0.948 . S
C180 C181 1.391 . S
C180 C184 1.391 . S
C180 H222 0.948 . S
C181 C180 1.391 . S
C181 C182 1.391 . S
C182 C181 1.391 . S
C182 H238 0.947 . S
C182 C239 1.392 . S
C183 C184 1.391 . S
C183 C187 1.397 . S
C183 C239 1.419 . S
C184 C180 1.391 . S
C184 C183 1.391 . S
C184 C185 1.399 . S
C185 C184 1.399 . S
C185 C188 1.396 . S
C185 C197 1.453 . S
C185 C198 1.684 . S
H186 C210 0.948 . S
C187 C183 1.397 . S
C187 C188 1.394 . S
C187 C206 1.723 . S
C188 C185 1.396 . S
C188 C187 1.394 . S
C188 C218 1.723 . S
H189 C212 0.947 . S
H190 C213 0.948 . S
H191 C219 0.982 . S
H192 C220 0.979 . S
H193 C220 0.980 . S
H194 C220 0.983 . S
H195 C219 0.979 . S
H196 C219 0.977 . S
C197 C185 1.453 . S
C197 H226 0.982 . S
C197 H227 0.979 . S
C197 H228 0.977 . S
C198 C185 1.684 . S
C198 H223 0.979 . S
C198 H224 0.980 . S
C198 H225 0.983 . S
C199 C200 1.391 . S
C199 C204 1.391 . S
C199 H229 0.948 . S
C200 C199 1.391 . S
C200 C201 1.391 . S
C201 C200 1.391 . S
C201 C202 1.392 . S
C201 H230 0.947 . S
C202 C201 1.392 . S
C202 C203 1.419 . S
C202 H231 0.948 . S
C203 C202 1.419 . S
C203 C204 1.391 . S
C203 C207 1.397 . S
C204 C199 1.391 . S
C204 C203 1.391 . S
C204 C205 1.399 . S
C205 C204 1.399 . S
C205 C206 1.396 . S
C205 C208 1.453 . S
C205 C209 1.684 . S
C206 C187 1.723 . S
C206 C205 1.396 . S
C206 C207 1.394 . S
C207 C203 1.397 . S
C207 C206 1.394 . S
C207 C217 1.723 . S
C208 C205 1.453 . S
C208 H232 0.982 . S
C208 H233 0.979 . S
C208 H234 0.977 . S
C209 C205 1.684 . S
C209 H235 0.979 . S
C209 H236 0.980 . S
C209 H237 0.983 . S
C210 H186 0.948 . S
C210 C211 1.391 . S
C210 C215 1.391 . S
C211 C210 1.391 . S
C211 C212 1.391 . S
C212 H189 0.947 . S
C212 C211 1.391 . S
C212 C213 1.392 . S
C213 H190 0.948 . S
C213 C212 1.392 . S
C213 C214 1.419 . S
C214 C213 1.419 . S
C214 C215 1.391 . S
C214 C218 1.397 . S
C215 C210 1.391 . S
C215 C214 1.391 . S
C215 C216 1.399 . S
C216 C215 1.399 . S
C216 C217 1.396 . S
C216 C219 1.453 . S
C216 C220 1.684 . S
C217 C207 1.723 . S
C217 C216 1.396 . S
C217 C218 1.394 . S
C218 C188 1.723 . S
C218 C214 1.397 . S
C218 C217 1.394 . S
C219 H191 0.982 . S
C219 H195 0.979 . S
C219 H196 0.977 . S
C219 C216 1.453 . S
C220 H192 0.979 . S
C220 H193 0.980 . S
C220 H194 0.983 . S
C220 C216 1.684 . S
H221 C239 0.948 . S
H222 C180 0.948 . S
H223 C198 0.979 . S
H224 C198 0.980 . S
H225 C198 0.983 . S
H226 C197 0.982 . S
H227 C197 0.979 . S
H228 C197 0.977 . S
H229 C199 0.948 . S
H230 C201 0.947 . S
H231 C202 0.948 . S
H232 C208 0.982 . S
H233 C208 0.979 . S
H234 C208 0.977 . S
H235 C209 0.979 . S
H236 C209 0.980 . S
H237 C209 0.983 . S
H238 C182 0.947 . S
C239 C182 1.392 . S
C239 C183 1.419 . S
C239 H221 0.948 . S
C240 C241 1.391 . S
C240 C244 1.391 . S
C240 H282 0.948 . S
C241 C240 1.391 . S
C241 C242 1.391 . S
C242 C241 1.391 . S
C242 H298 0.947 . S
C242 C299 1.392 . S
C243 C244 1.391 . S
C243 C247 1.397 . S
C243 C299 1.419 . S
C244 C240 1.391 . S
C244 C243 1.391 . S
C244 C245 1.399 . S
C245 C244 1.399 . S
C245 C248 1.396 . S
C245 C257 1.453 . S
C245 C258 1.684 . S
H246 C270 0.948 . S
C247 C243 1.397 . S
C247 C248 1.394 . S
C247 C266 1.723 . S
C248 C245 1.396 . S
C248 C247 1.394 . S
C248 C278 1.723 . S
H249 C272 0.947 . S
H250 C273 0.948 . S
H251 C279 0.982 . S
H252 C280 0.979 . S
H253 C280 0.980 . S
H254 C280 0.983 . S
H255 C279 0.979 . S
H256 C279 0.977 . S
C257 C245 1.453 . S
C257 H286 0.982 . S
C257 H287 0.979 . S
C257 H288 0.977 . S
C258 C245 1.684 . S
C258 H283 0.979 . S
C258 H284 0.980 . S
C258 H285 0.983 . S
C259 C260 1.391 . S
C259 C264 1.391 . S
C259 H289 0.948 . S
C260 C259 1.391 . S
C260 C261 1.391 . S
C261 C260 1.391 . S
C261 C262 1.392 . S
C261 H290 0.947 . S
C262 C261 1.392 . S
C262 C263 1.419 . S
C262 H291 0.948 . S
C263 C262 1.419 . S
C263 C264 1.391 . S
C263 C267 1.397 . S
C264 C259 1.391 . S
C264 C263 1.391 . S
C264 C265 1.399 . S
C265 C264 1.399 . S
C265 C266 1.396 . S
C265 C268 1.453 . S
C265 C269 1.684 . S
C266 C247 1.723 . S
C266 C265 1.396 . S
C266 C267 1.394 . S
C267 C263 1.397 . S
C267 C266 1.394 . S
C267 C277 1.723 . S
C268 C265 1.453 . S
C268 H292 0.982 . S
C268 H293 0.979 . S
C268 H294 0.977 . S
C269 C265 1.684 . S
C269 H295 0.979 . S
C269 H296 0.980 . S
C269 H297 0.983 . S
C270 H246 0.948 . S
C270 C271 1.391 . S
C270 C275 1.391 . S
C271 C270 1.391 . S
C271 C272 1.391 . S
C272 H249 0.947 . S
C272 C271 1.391 . S
C272 C273 1.392 . S
C273 H250 0.948 . S
C273 C272 1.392 . S
C273 C274 1.419 . S
C274 C273 1.419 . S
C274 C275 1.391 . S
C274 C278 1.397 . S
C275 C270 1.391 . S
C275 C274 1.391 . S
C275 C276 1.399 . S
C276 C275 1.399 . S
C276 C277 1.396 . S
C276 C279 1.453 . S
C276 C280 1.684 . S
C277 C267 1.723 . S
C277 C276 1.396 . S
C277 C278 1.394 . S
C278 C248 1.723 . S
C278 C274 1.397 . S
C278 C277 1.394 . S
C279 H251 0.982 . S
C279 H255 0.979 . S
C279 H256 0.977 . S
C279 C276 1.453 . S
C280 H252 0.979 . S
C280 H253 0.980 . S
C280 H254 0.983 . S
C280 C276 1.684 . S
H281 C299 0.948 . S
H282 C240 0.948 . S
H283 C258 0.979 . S
H284 C258 0.980 . S
H285 C258 0.983 . S
H286 C257 0.982 . S
H287 C257 0.979 . S
H288 C257 0.977 . S
H289 C259 0.948 . S
H290 C261 0.947 . S
H291 C262 0.948 . S
H292 C268 0.982 . S
H293 C268 0.979 . S
H294 C268 0.977 . S
H295 C269 0.979 . S
H296 C269 0.980 . S
H297 C269 0.983 . S
H298 C242 0.947 . S
C299 C242 1.392 . S
C299 C243 1.419 . S
C299 H281 0.948 . S
C300 C301 1.391 . S
C300 C304 1.391 . S
C300 H342 0.948 . S
C301 C300 1.391 . S
C301 C302 1.391 . S
C302 C301 1.391 . S
C302 H358 0.947 . S
C302 C359 1.392 . S
C303 C304 1.391 . S
C303 C307 1.397 . S
C303 C359 1.419 . S
C304 C300 1.391 . S
C304 C303 1.391 . S
C304 C305 1.399 . S
C305 C304 1.399 . S
C305 C308 1.396 . S
C305 C317 1.453 . S
C305 C318 1.684 . S
H306 C330 0.948 . S
C307 C303 1.397 . S
C307 C308 1.394 . S
C307 C326 1.723 . S
C308 C305 1.396 . S
C308 C307 1.394 . S
C308 C338 1.723 . S
H309 C332 0.947 . S
H310 C333 0.948 . S
H311 C339 0.982 . S
H312 C340 0.979 . S
H313 C340 0.980 . S
H314 C340 0.983 . S
H315 C339 0.979 . S
H316 C339 0.977 . S
C317 C305 1.453 . S
C317 H346 0.982 . S
C317 H347 0.979 . S
C317 H348 0.977 . S
C318 C305 1.684 . S
C318 H343 0.979 . S
C318 H344 0.980 . S
C318 H345 0.983 . S
C319 C320 1.391 . S
C319 C324 1.391 . S
C319 H349 0.948 . S
C320 C319 1.391 . S
C320 C321 1.391 . S
C321 C320 1.391 . S
C321 C322 1.392 . S
C321 H350 0.947 . S
C322 C321 1.392 . S
C322 C323 1.419 . S
C322 H351 0.948 . S
C323 C322 1.419 . S
C323 C324 1.391 . S
C323 C327 1.397 . S
C324 C319 1.391 . S
C324 C323 1.391 . S
C324 C325 1.399 . S
C325 C324 1.399 . S
C325 C326 1.396 . S
C325 C328 1.453 . S
C325 C329 1.684 . S
C326 C307 1.723 . S
C326 C325 1.396 . S
C326 C327 1.394 . S
C327 C323 1.397 . S
C327 C326 1.394 . S
C327 C337 1.723 . S
C328 C325 1.453 . S
C328 H352 0.982 . S
C328 H353 0.979 . S
C328 H354 0.977 . S
C329 C325 1.684 . S
C329 H355 0.979 . S
C329 H356 0.980 . S
C329 H357 0.983 . S
C330 H306 0.948 . S
C330 C331 1.391 . S
C330 C335 1.391 . S
C331 C330 1.391 . S
C331 C332 1.391 . S
C332 H309 0.947 . S
C332 C331 1.391 . S
C332 C333 1.392 . S
C333 H310 0.948 . S
C333 C332 1.392 . S
C333 C334 1.419 . S
C334 C333 1.419 . S
C334 C335 1.391 . S
C334 C338 1.397 . S
C335 C330 1.391 . S
C335 C334 1.391 . S
C335 C336 1.399 . S
C336 C335 1.399 . S
C336 C337 1.396 . S
C336 C339 1.453 . S
C336 C340 1.684 . S
C337 C327 1.723 . S
C337 C336 1.396 . S
C337 C338 1.394 . S
C338 C308 1.723 . S
C338 C334 1.397 . S
C338 C337 1.394 . S
C339 H311 0.982 . S
C339 H315 0.979 . S
C339 H316 0.977 . S
C339 C336 1.453 . S
C340 H312 0.979 . S
C340 H313 0.980 . S
C340 H314 0.983 . S
C340 C336 1.684 . S
H341 C359 0.948 . S
H342 C300 0.948 . S
H343 C318 0.979 . S
H344 C318 0.980 . S
H345 C318 0.983 . S
H346 C317 0.982 . S
H347 C317 0.979 . S
H348 C317 0.977 . S
H349 C319 0.948 . S
H350 C321 0.947 . S
H351 C322 0.948 . S
H352 C328 0.982 . S
H353 C328 0.979 . S
H354 C328 0.977 . S
H355 C329 0.979 . S
H356 C329 0.980 . S
H357 C329 0.983 . S
H358 C302 0.947 . S
C359 C302 1.392 . S
C359 C303 1.419 . S
C359 H341 0.948 . S
C360 C361 1.391 . S
C360 C364 1.391 . S
C360 H402 0.948 . S
C361 C360 1.391 . S
C361 C362 1.391 . S
C362 C361 1.391 . S
C362 H418 0.947 . S
C362 C419 1.392 . S
C363 C364 1.391 . S
C363 C367 1.397 . S
C363 C419 1.419 . S
C364 C360 1.391 . S
C364 C363 1.391 . S
C364 C365 1.399 . S
C365 C364 1.399 . S
C365 C368 1.396 . S
C365 C377 1.453 . S
C365 C378 1.684 . S
H366 C390 0.948 . S
C367 C363 1.397 . S
C367 C368 1.394 . S
C367 C386 1.723 . S
C368 C365 1.396 . S
C368 C367 1.394 . S
C368 C398 1.723 . S
H369 C392 0.947 . S
H370 C393 0.948 . S
H371 C399 0.982 . S
H372 C400 0.979 . S
H373 C400 0.980 . S
H374 C400 0.983 . S
H375 C399 0.979 . S
H376 C399 0.977 . S
C377 C365 1.453 . S
C377 H406 0.982 . S
C377 H407 0.979 . S
C377 H408 0.977 . S
C378 C365 1.684 . S
C378 H403 0.979 . S
C378 H404 0.980 . S
C378 H405 0.983 . S
C379 C380 1.391 . S
C379 C384 1.391 . S
C379 H409 0.948 . S
C380 C379 1.391 . S
C380 C381 1.391 . S
C381 C380 1.391 . S
C381 C382 1.392 . S
C381 H410 0.947 . S
C382 C381 1.392 . S
C382 C383 1.419 . S
C382 H411 0.948 . S
C383 C382 1.419 . S
C383 C384 1.391 . S
C383 C387 1.397 . S
C384 C379 1.391 . S
C384 C383 1.391 . S
C384 C385 1.399 . S
C385 C384 1.399 . S
C385 C386 1.396 . S
C385 C388 1.453 . S
C385 C389 1.684 . S
C386 C367 1.723 . S
C386 C385 1.396 . S
C386 C387 1.394 . S
C387 C383 1.397 . S
C387 C386 1.394 . S
C387 C397 1.723 . S
C388 C385 1.453 . S
C388 H412 0.982 . S
C388 H413 0.979 . S
C388 H414 0.977 . S
C389 C385 1.684 . S
C389 H415 0.979 . S
C389 H416 0.980 . S
C389 H417 0.983 . S
C390 H366 0.948 . S
C390 C391 1.391 . S
C390 C395 1.391 . S
C391 C390 1.391 . S
C391 C392 1.391 . S
C392 H369 0.947 . S
C392 C391 1.391 . S
C392 C393 1.392 . S
C393 H370 0.948 . S
C393 C392 1.392 . S
C393 C394 1.419 . S
C394 C393 1.419 . S
C394 C395 1.391 . S
C394 C398 1.397 . S
C395 C390 1.391 . S
C395 C394 1.391 . S
C395 C396 1.399 . S
C396 C395 1.399 . S
C396 C397 1.396 . S
C396 C399 1.453 . S
C396 C400 1.684 . S
C397 C387 1.723 . S
C397 C396 1.396 . S
C397 C398 1.394 . S
C398 C368 1.723 . S
C398 C394 1.397 . S
C398 C397 1.394 . S
C399 H371 0.982 . S
C399 H375 0.979 . S
C399 H376 0.977 . S
C399 C396 1.453 . S
C400 H372 0.979 . S
C400 H373 0.980 . S
C400 H374 0.983 . S
C400 C396 1.684 . S
H401 C419 0.948 . S
H402 C360 0.948 . S
H403 C378 0.979 . S
H404 C378 0.980 . S
H405 C378 0.983 . S
H406 C377 0.982 . S
H407 C377 0.979 . S
H408 C377 0.977 . S
H409 C379 0.948 . S
H410 C381 0.947 . S
H411 C382 0.948 . S
H412 C388 0.982 . S
H413 C388 0.979 . S
H414 C388 0.977 . S
H415 C389 0.979 . S
H416 C389 0.980 . S
H417 C389 0.983 . S
H418 C362 0.947 . S
C419 C362 1.392 . S
C419 C363 1.419 . S
C419 H401 0.948 . S
C420 C421 1.391 . S
C420 C424 1.391 . S
C420 H462 0.948 . S
C421 C420 1.391 . S
C421 C422 1.391 . S
C422 C421 1.391 . S
C422 H478 0.947 . S
C422 C479 1.392 . S
C423 C424 1.391 . S
C423 C427 1.397 . S
C423 C479 1.419 . S
C424 C420 1.391 . S
C424 C423 1.391 . S
C424 C425 1.399 . S
C425 C424 1.399 . S
C425 C428 1.396 . S
C425 C437 1.453 . S
C425 C438 1.684 . S
H426 C450 0.948 . S
C427 C423 1.397 . S
C427 C428 1.394 . S
C427 C446 1.723 . S
C428 C425 1.396 . S
C428 C427 1.394 . S
C428 C458 1.723 . S
H429 C452 0.947 . S
H430 C453 0.948 . S
H431 C459 0.982 . S
H432 C460 0.979 . S
H433 C460 0.980 . S
H434 C460 0.983 . S
H435 C459 0.979 . S
H436 C459 0.977 . S
C437 C425 1.453 . S
C437 H466 0.982 . S
C437 H467 0.979 . S
C437 H468 0.977 . S
C438 C425 1.684 . S
C438 H463 0.979 . S
C438 H464 0.980 . S
C438 H465 0.983 . S
C439 C440 1.391 . S
C439 C444 1.391 . S
C439 H469 0.948 . S
C440 C439 1.391 . S
C440 C441 1.391 . S
C441 C440 1.391 . S
C441 C442 1.392 . S
C441 H470 0.947 . S
C442 C441 1.392 . S
C442 C443 1.419 . S
C442 H471 0.948 . S
C443 C442 1.419 . S
C443 C444 1.391 . S
C443 C447 1.397 . S
C444 C439 1.391 . S
C444 C443 1.391 . S
C444 C445 1.399 . S
C445 C444 1.399 . S
C445 C446 1.396 . S
C445 C448 1.453 . S
C445 C449 1.684 . S
C446 C427 1.723 . S
C446 C445 1.396 . S
C446 C447 1.394 . S
C447 C443 1.397 . S
C447 C446 1.394 . S
C447 C457 1.723 . S
C448 C445 1.453 . S
C448 H472 0.982 . S
C448 H473 0.979 . S
C448 H474 0.977 . S
C449 C445 1.684 . S
C449 H475 0.979 . S
C449 H476 0.980 . S
C449 H477 0.983 . S
C450 H426 0.948 . S
C450 C451 1.391 . S
C450 C455 1.391 . S
C451 C450 1.391 . S
C451 C452 1.391 . S
C452 H429 0.947 . S
C452 C451 1.391 . S
C452 C453 1.392 . S
C453 H430 0.948 . S
C453 C452 1.392 . S
C453 C454 1.419 . S
C454 C453 1.419 . S
C454 C455 1.391 . S
C454 C458 1.397 . S
C455 C450 1.391 . S
C455 C454 1.391 . S
C455 C456 1.399 . S
C456 C455 1.399 . S
C456 C457 1.396 . S
C456 C459 1.453 . S
C456 C460 1.684 . S
C457 C447 1.723 . S
C457 C456 1.396 . S
C457 C458 1.394 . S
C458 C428 1.723 . S
C458 C454 1.397 . S
C458 C457 1.394 . S
C459 H431 0.982 . S
C459 H435 0.979 . S
C459 H436 0.977 . S
C459 C456 1.453 . S
C460 H432 0.979 . S
C460 H433 0.980 . S
C460 H434 0.983 . S
C460 C456 1.684 . S
H461 C479 0.948 . S
H462 C420 0.948 . S
H463 C438 0.979 . S
H464 C438 0.980 . S
H465 C438 0.983 . S
H466 C437 0.982 . S
H467 C437 0.979 . S
H468 C437 0.977 . S
H469 C439 0.948 . S
H470 C441 0.947 . S
H471 C442 0.948 . S
H472 C448 0.982 . S
H473 C448 0.979 . S
H474 C448 0.977 . S
H475 C449 0.979 . S
H476 C449 0.980 . S
H477 C449 0.983 . S
H478 C422 0.947 . S
C479 C422 1.392 . S
C479 C423 1.419 . S
C479 H461 0.948 . S
C480 C481 1.443 . S
C480 N484 1.376 . S
C480 C518 1.389 . S
C481 C480 1.443 . S
C481 C482 1.340 . S
C481 H521 0.951 . S
C482 C481 1.340 . S
C482 C483 1.439 . S
C482 H522 0.950 . S
C483 C482 1.439 . S
C483 N484 1.374 . S
C483 C517 1.395 . S
N484 C480 1.376 . S
N484 C483 1.374 . S
N484 Co485 2.008 . S
Co485 N484 2.008 . S
Co485 N486 1.995 1_455 S
Co485 N491 2.008 . S
Co485 N496 1.995 . S
Co485 N501 2.282 . S
Co485 N507 2.282 1_455 S
N486 Co485 1.995 1_655 S
N486 C487 1.376 . S
N486 C490 1.383 . S
C487 N486 1.376 . S
C487 C488 1.446 . S
C487 C517 1.391 1_655 S
C488 C487 1.446 . S
C488 C489 1.339 . S
C488 H523 0.949 . S
C489 C488 1.339 . S
C489 C490 1.439 . S
C489 H524 0.950 . S
C490 N486 1.383 . S
C490 C489 1.439 . S
C490 C519 1.392 . S
N491 Co485 2.008 . S
N491 C492 1.376 1_455 S
N491 C495 1.374 . S
C492 N491 1.376 1_655 S
C492 C493 1.443 . S
C492 C519 1.389 . S
C493 C492 1.443 . S
C493 C494 1.340 . S
C493 H525 0.951 . S
C494 C493 1.340 . S
C494 C495 1.439 1_655 S
C494 H526 0.950 . S
C495 N491 1.374 . S
C495 C494 1.439 1_455 S
C495 C520 1.395 . S
N496 Co485 1.995 . S
N496 C497 1.376 . S
N496 C500 1.383 . S
C497 N496 1.376 . S
C497 C498 1.446 . S
C497 C520 1.391 . S
C498 C497 1.446 . S
C498 C499 1.339 . S
C498 H527 0.949 . S
C499 C498 1.339 . S
C499 C500 1.439 . S
C499 H528 0.950 . S
C500 N496 1.383 . S
C500 C499 1.439 . S
C500 C518 1.392 . S
N501 Co485 2.282 . S
N501 C504 1.332 . S
N501 C506 1.332 . S
C502 C503 1.386 . S
C502 C505 1.388 . S
C503 C502 1.386 . S
C503 C504 1.382 . S
C503 H529 0.950 . S
C504 N501 1.332 . S
C504 C503 1.382 . S
C504 H515 0.952 . S
C505 C502 1.388 . S
C505 C506 1.382 . S
C505 H530 0.950 . S
C506 N501 1.332 . S
C506 C505 1.382 . S
C506 H516 0.948 . S
N507 Co485 2.282 1_655 S
N507 C511 1.332 . S
N507 C512 1.332 . S
C508 C509 1.388 . S
C508 C512 1.382 . S
C508 H531 0.950 . S
C509 C508 1.388 . S
C509 C510 1.386 . S
C510 C509 1.386 . S
C510 C511 1.382 . S
C510 H532 0.950 . S
C511 N507 1.332 . S
C511 C510 1.382 . S
C511 H513 0.952 . S
C512 N507 1.332 . S
C512 C508 1.382 . S
C512 H514 0.948 . S
H513 C511 0.952 . S
H514 C512 0.948 . S
H515 C504 0.952 . S
H516 C506 0.948 . S
C517 C483 1.395 . S
C517 C487 1.391 1_455 S
C518 C480 1.389 . S
C518 C500 1.392 . S
C519 C490 1.392 . S
C519 C492 1.389 . S
C520 C495 1.395 . S
C520 C497 1.391 . S
H521 C481 0.951 . S
H522 C482 0.950 . S
H523 C488 0.949 . S
H524 C489 0.950 . S
H525 C493 0.951 . S
H526 C494 0.950 . S
H527 C498 0.949 . S
H528 C499 0.950 . S
H529 C503 0.950 . S
H530 C505 0.950 . S
H531 C508 0.950 . S
H532 C510 0.950 . S
C533 C534 1.443 . S
C533 N537 1.376 . S
C533 C571 1.389 . S
C534 C533 1.443 . S
C534 C535 1.340 . S
C534 H574 0.951 . S
C535 C534 1.340 . S
C535 C536 1.439 . S
C535 H575 0.950 . S
C536 C535 1.439 . S
C536 N537 1.374 . S
C536 C570 1.395 . S
N537 C533 1.376 . S
N537 C536 1.374 . S
N537 Co538 2.008 . S
Co538 N537 2.008 . S
Co538 N539 1.995 1_455 S
Co538 N544 2.008 1_455 S
Co538 N549 1.995 . S
Co538 N554 2.282 . S
Co538 N560 2.282 1_455 S
N539 Co538 1.995 1_655 S
N539 C540 1.376 . S
N539 C543 1.383 . S
C540 N539 1.376 . S
C540 C541 1.446 . S
C540 C570 1.391 1_655 S
C541 C540 1.446 . S
C541 C542 1.339 . S
C541 H576 0.949 . S
C542 C541 1.339 . S
C542 C543 1.439 . S
C542 H577 0.950 . S
C543 N539 1.383 . S
C543 C542 1.439 . S
C543 C572 1.392 . S
N544 Co538 2.008 1_655 S
N544 C545 1.376 . S
N544 C548 1.374 1_655 S
C545 N544 1.376 . S
C545 C546 1.443 . S
C545 C572 1.389 . S
C546 C545 1.443 . S
C546 C547 1.340 . S
C546 H578 0.951 . S
C547 C546 1.340 . S
C547 C548 1.439 1_655 S
C547 H579 0.950 . S
C548 N544 1.374 1_455 S
C548 C547 1.439 1_455 S
C548 C573 1.395 . S
N549 Co538 1.995 . S
N549 C550 1.376 . S
N549 C553 1.383 . S
C550 N549 1.376 . S
C550 C551 1.446 . S
C550 C573 1.391 . S
C551 C550 1.446 . S
C551 C552 1.339 . S
C551 H580 0.949 . S
C552 C551 1.339 . S
C552 C553 1.439 . S
C552 H581 0.950 . S
C553 N549 1.383 . S
C553 C552 1.439 . S
C553 C571 1.392 . S
N554 Co538 2.282 . S
N554 C557 1.332 . S
N554 C559 1.332 . S
C555 C556 1.386 . S
C555 C558 1.388 . S
C556 C555 1.386 . S
C556 C557 1.382 . S
C556 H582 0.950 . S
C557 N554 1.332 . S
C557 C556 1.382 . S
C557 H568 0.952 . S
C558 C555 1.388 . S
C558 C559 1.382 . S
C558 H583 0.950 . S
C559 N554 1.332 . S
C559 C558 1.382 . S
C559 H569 0.948 . S
N560 Co538 2.282 1_655 S
N560 C564 1.332 . S
N560 C565 1.332 . S
C561 C562 1.388 . S
C561 C565 1.382 . S
C561 H584 0.950 . S
C562 C561 1.388 . S
C562 C563 1.386 . S
C563 C562 1.386 . S
C563 C564 1.382 . S
C563 H585 0.950 . S
C564 N560 1.332 . S
C564 C563 1.382 . S
C564 H566 0.952 . S
C565 N560 1.332 . S
C565 C561 1.382 . S
C565 H567 0.948 . S
H566 C564 0.952 . S
H567 C565 0.948 . S
H568 C557 0.952 . S
H569 C559 0.948 . S
C570 C536 1.395 . S
C570 C540 1.391 1_455 S
C571 C533 1.389 . S
C571 C553 1.392 . S
C572 C543 1.392 . S
C572 C545 1.389 . S
C573 C548 1.395 . S
C573 C550 1.391 . S
H574 C534 0.951 . S
H575 C535 0.950 . S
H576 C541 0.949 . S
H577 C542 0.950 . S
H578 C546 0.951 . S
H579 C547 0.950 . S
H580 C551 0.949 . S
H581 C552 0.950 . S
H582 C556 0.950 . S
H583 C558 0.950 . S
H584 C561 0.950 . S
H585 C563 0.950 . S
C586 C587 1.443 . S
C586 N590 1.376 . S
C586 C624 1.389 . S
C587 C586 1.443 . S
C587 C588 1.340 . S
C587 H627 0.951 . S
C588 C587 1.340 . S
C588 C589 1.439 . S
C588 H628 0.950 . S
C589 C588 1.439 . S
C589 N590 1.374 . S
C589 C623 1.395 1_565 S
N590 C586 1.376 . S
N590 C589 1.374 . S
N590 Co591 2.008 1_565 S
Co591 N590 2.008 1_545 S
Co591 N592 1.995 . S
Co591 N597 2.008 . S
Co591 N602 1.995 1_545 S
Co591 N607 2.282 . S
Co591 N613 2.282 1_545 S
N592 Co591 1.995 . S
N592 C593 1.376 . S
N592 C596 1.383 . S
C593 N592 1.376 . S
C593 C594 1.446 . S
C593 C623 1.391 . S
C594 C593 1.446 . S
C594 C595 1.339 . S
C594 H629 0.949 . S
C595 C594 1.339 . S
C595 C596 1.439 . S
C595 H630 0.950 . S
C596 N592 1.383 . S
C596 C595 1.439 . S
C596 C625 1.392 . S
N597 Co591 2.008 . S
N597 C598 1.376 . S
N597 C601 1.374 . S
C598 N597 1.376 . S
C598 C599 1.443 . S
C598 C625 1.389 . S
C599 C598 1.443 . S
C599 C600 1.340 . S
C599 H631 0.951 . S
C600 C599 1.340 . S
C600 C601 1.439 . S
C600 H632 0.950 . S
C601 N597 1.374 . S
C601 C600 1.439 . S
C601 C626 1.395 . S
N602 Co591 1.995 1_565 S
N602 C603 1.376 . S
N602 C606 1.383 . S
C603 N602 1.376 . S
C603 C604 1.446 . S
C603 C626 1.391 1_565 S
C604 C603 1.446 . S
C604 C605 1.339 . S
C604 H633 0.949 . S
C605 C604 1.339 . S
C605 C606 1.439 . S
C605 H634 0.950 . S
C606 N602 1.383 . S
C606 C605 1.439 . S
C606 C624 1.392 . S
N607 Co591 2.282 . S
N607 C610 1.332 . S
N607 C612 1.332 . S
C608 C609 1.386 . S
C608 C611 1.388 . S
C609 C608 1.386 . S
C609 C610 1.382 . S
C609 H635 0.950 . S
C610 N607 1.332 . S
C610 C609 1.382 . S
C610 H621 0.952 . S
C611 C608 1.388 . S
C611 C612 1.382 . S
C611 H636 0.950 . S
C612 N607 1.332 . S
C612 C611 1.382 . S
C612 H622 0.948 . S
N613 Co591 2.282 1_565 S
N613 C617 1.332 . S
N613 C618 1.332 . S
C614 C615 1.388 . S
C614 C618 1.382 . S
C614 H637 0.950 . S
C615 C614 1.388 . S
C615 C616 1.386 . S
C616 C615 1.386 . S
C616 C617 1.382 . S
C616 H638 0.950 . S
C617 N613 1.332 . S
C617 C616 1.382 . S
C617 H619 0.952 . S
C618 N613 1.332 . S
C618 C614 1.382 . S
C618 H620 0.948 . S
H619 C617 0.952 . S
H620 C618 0.948 . S
H621 C610 0.952 . S
H622 C612 0.948 . S
C623 C589 1.395 1_545 S
C623 C593 1.391 . S
C624 C586 1.389 . S
C624 C606 1.392 . S
C625 C596 1.392 . S
C625 C598 1.389 . S
C626 C601 1.395 . S
C626 C603 1.391 1_545 S
H627 C587 0.951 . S
H628 C588 0.950 . S
H629 C594 0.949 . S
H630 C595 0.950 . S
H631 C599 0.951 . S
H632 C600 0.950 . S
H633 C604 0.949 . S
H634 C605 0.950 . S
H635 C609 0.950 . S
H636 C611 0.950 . S
H637 C614 0.950 . S
H638 C616 0.950 . S
C639 C640 1.443 . S
C639 N643 1.376 . S
C639 C677 1.389 . S
C640 C639 1.443 . S
C640 C641 1.340 . S
C640 H680 0.951 . S
C641 C640 1.340 . S
C641 C642 1.439 . S
C641 H681 0.950 . S
C642 C641 1.439 . S
C642 N643 1.374 . S
C642 C676 1.395 . S
N643 C639 1.376 . S
N643 C642 1.374 . S
N643 Co644 2.008 . S
Co644 N643 2.008 . S
Co644 N645 1.995 1_554 S
Co644 N650 2.008 1_554 S
Co644 N655 1.995 . S
Co644 N660 2.282 1_554 S
Co644 N666 2.282 . S
N645 Co644 1.995 1_556 S
N645 C646 1.374 1_556 S
N645 C649 1.383 . S
C646 N645 1.374 1_554 S
C646 C647 1.439 1_554 S
C646 C676 1.399 . S
C647 C646 1.439 1_556 S
C647 C648 1.339 . S
C647 H682 0.949 . S
C648 C647 1.339 . S
C648 C649 1.439 . S
C648 H683 0.950 . S
C649 N645 1.383 . S
C649 C648 1.439 . S
C649 C678 1.392 . S
N650 Co644 2.008 1_556 S
N650 C651 1.376 . S
N650 C654 1.374 . S
C651 N650 1.376 . S
C651 C652 1.443 . S
C651 C678 1.389 . S
C652 C651 1.443 . S
C652 C653 1.340 . S
C652 H684 0.951 . S
C653 C652 1.340 . S
C653 C654 1.439 . S
C653 H685 0.950 . S
C654 N650 1.374 . S
C654 C653 1.439 . S
C654 C679 1.395 1_556 S
N655 Co644 1.995 . S
N655 C656 1.376 . S
N655 C659 1.383 . S
C656 N655 1.376 . S
C656 C657 1.446 . S
C656 C679 1.391 . S
C657 C656 1.446 . S
C657 C658 1.339 . S
C657 H686 0.949 . S
C658 C657 1.339 . S
C658 C659 1.439 . S
C658 H687 0.950 . S
C659 N655 1.383 . S
C659 C658 1.439 . S
C659 C677 1.392 . S
N660 Co644 2.282 1_556 S
N660 C663 1.332 . S
N660 C665 1.332 . S
C661 C662 1.386 . S
C661 C664 1.388 . S
C662 C661 1.386 . S
C662 C663 1.382 . S
C662 H688 0.950 . S
C663 N660 1.332 . S
C663 C662 1.382 . S
C663 H674 0.952 . S
C664 C661 1.388 . S
C664 C665 1.382 . S
C664 H689 0.950 . S
C665 N660 1.332 . S
C665 C664 1.382 . S
C665 H675 0.948 . S
N666 Co644 2.282 . S
N666 C670 1.332 . S
N666 C671 1.332 . S
C667 C668 1.388 . S
C667 C671 1.382 . S
C667 H690 0.950 . S
C668 C667 1.388 . S
C668 C669 1.386 . S
C669 C668 1.386 . S
C669 C670 1.382 . S
C669 H691 0.950 . S
C670 N666 1.332 . S
C670 C669 1.382 . S
C670 H672 0.952 . S
C671 N666 1.332 . S
C671 C667 1.382 . S
C671 H673 0.948 . S
H672 C670 0.952 . S
H673 C671 0.948 . S
H674 C663 0.952 . S
H675 C665 0.948 . S
C676 C642 1.395 . S
C676 C646 1.399 . S
C677 C639 1.389 . S
C677 C659 1.392 . S
C678 C649 1.392 . S
C678 C651 1.389 . S
C679 C654 1.395 1_554 S
C679 C656 1.391 . S
H680 C640 0.951 . S
H681 C641 0.950 . S
H682 C647 0.949 . S
H683 C648 0.950 . S
H684 C652 0.951 . S
H685 C653 0.950 . S
H686 C657 0.949 . S
H687 C658 0.950 . S
H688 C662 0.950 . S
H689 C664 0.950 . S
H690 C667 0.950 . S
H691 C669 0.950 . S
C692 C693 1.443 . S
C692 N696 1.376 1_565 S
C692 C730 1.389 . S
C693 C692 1.443 . S
C693 C694 1.340 . S
C693 H733 0.951 . S
C694 C693 1.340 . S
C694 C695 1.439 1_565 S
C694 H734 0.950 . S
C695 C694 1.439 1_545 S
C695 N696 1.374 . S
C695 C729 1.395 . S
N696 C692 1.376 1_545 S
N696 C695 1.374 . S
N696 Co697 2.008 . S
Co697 N696 2.008 . S
Co697 N698 1.995 . S
Co697 N703 2.008 . S
Co697 N708 1.995 . S
Co697 N713 2.282 . S
Co697 N719 2.282 1_545 S
N698 Co697 1.995 . S
N698 C699 1.376 . S
N698 C702 1.383 . S
C699 N698 1.376 . S
C699 C700 1.446 . S
C699 C729 1.391 . S
C700 C699 1.446 . S
C700 C701 1.339 . S
C700 H735 0.949 . S
C701 C700 1.339 . S
C701 C702 1.439 . S
C701 H736 0.950 . S
C702 N698 1.383 . S
C702 C701 1.439 . S
C702 C731 1.392 . S
N703 Co697 2.008 . S
N703 C704 1.376 . S
N703 C707 1.374 . S
C704 N703 1.376 . S
C704 C705 1.443 . S
C704 C731 1.389 . S
C705 C704 1.443 . S
C705 C706 1.340 . S
C705 H737 0.951 . S
C706 C705 1.340 . S
C706 C707 1.439 . S
C706 H738 0.950 . S
C707 N703 1.374 . S
C707 C706 1.439 . S
C707 C732 1.395 . S
N708 Co697 1.995 . S
N708 C709 1.376 . S
N708 C712 1.383 1_545 S
C709 N708 1.376 . S
C709 C710 1.446 1_545 S
C709 C732 1.391 . S
C710 C709 1.446 1_565 S
C710 C711 1.339 . S
C710 H739 0.949 . S
C711 C710 1.339 . S
C711 C712 1.439 . S
C711 H740 0.950 . S
C712 N708 1.383 1_565 S
C712 C711 1.439 . S
C712 C730 1.392 . S
N713 Co697 2.282 . S
N713 C716 1.332 . S
N713 C718 1.332 . S
C714 C715 1.386 . S
C714 C717 1.388 . S
C715 C714 1.386 . S
C715 C716 1.382 . S
C715 H741 0.950 . S
C716 N713 1.332 . S
C716 C715 1.382 . S
C716 H727 0.952 . S
C717 C714 1.388 . S
C717 C718 1.382 . S
C717 H742 0.950 . S
C718 N713 1.332 . S
C718 C717 1.382 . S
C718 H728 0.948 . S
N719 Co697 2.282 1_565 S
N719 C723 1.332 . S
N719 C724 1.332 . S
C720 C721 1.388 . S
C720 C724 1.382 . S
C720 H743 0.950 . S
C721 C720 1.388 . S
C721 C722 1.386 . S
C722 C721 1.386 . S
C722 C723 1.382 . S
C722 H744 0.950 . S
C723 N719 1.332 . S
C723 C722 1.382 . S
C723 H725 0.952 . S
C724 N719 1.332 . S
C724 C720 1.382 . S
C724 H726 0.948 . S
H725 C723 0.952 . S
H726 C724 0.948 . S
H727 C716 0.952 . S
H728 C718 0.948 . S
C729 C695 1.395 . S
C729 C699 1.391 . S
C730 C692 1.389 . S
C730 C712 1.392 . S
C731 C702 1.392 . S
C731 C704 1.389 . S
C732 C707 1.395 . S
C732 C709 1.391 . S
H733 C693 0.951 . S
H734 C694 0.950 . S
H735 C700 0.949 . S
H736 C701 0.950 . S
H737 C705 0.951 . S
H738 C706 0.950 . S
H739 C710 0.949 . S
H740 C711 0.950 . S
H741 C715 0.950 . S
H742 C717 0.950 . S
H743 C720 0.950 . S
H744 C722 0.950 . S
C745 C746 1.443 . S
C745 N749 1.376 . S
C745 C783 1.389 . S
C746 C745 1.443 . S
C746 C747 1.340 . S
C746 H786 0.951 . S
C747 C746 1.340 . S
C747 C748 1.439 . S
C747 H787 0.950 . S
C748 C747 1.439 . S
C748 N749 1.374 . S
C748 C782 1.395 . S
N749 C745 1.376 . S
N749 C748 1.374 . S
N749 Co750 2.008 . S
Co750 N749 2.008 . S
Co750 N751 1.995 . S
Co750 N756 2.008 . S
Co750 N761 1.995 . S
Co750 N766 2.282 1_554 S
Co750 N772 2.282 . S
N751 Co750 1.995 . S
N751 C752 1.376 . S
N751 C755 1.383 1_554 S
C752 N751 1.376 . S
C752 C753 1.446 1_554 S
C752 C782 1.391 . S
C753 C752 1.446 1_556 S
C753 C754 1.339 . S
C753 H788 0.949 . S
C754 C753 1.339 . S
C754 C755 1.439 . S
C754 H789 0.950 . S
C755 N751 1.383 1_556 S
C755 C754 1.439 . S
C755 C784 1.392 . S
N756 Co750 2.008 . S
N756 C757 1.376 1_554 S
N756 C760 1.374 . S
C757 N756 1.376 1_556 S
C757 C758 1.443 . S
C757 C784 1.389 . S
C758 C757 1.443 . S
C758 C759 1.340 . S
C758 H790 0.951 . S
C759 C758 1.340 . S
C759 C760 1.439 1_556 S
C759 H791 0.950 . S
C760 N756 1.374 . S
C760 C759 1.439 1_554 S
C760 C785 1.395 . S
N761 Co750 1.995 . S
N761 C762 1.376 . S
N761 C765 1.383 . S
C762 N761 1.376 . S
C762 C763 1.446 . S
C762 C785 1.391 . S
C763 C762 1.446 . S
C763 C764 1.339 . S
C763 H792 0.949 . S
C764 C763 1.339 . S
C764 C765 1.439 . S
C764 H793 0.950 . S
C765 N761 1.383 . S
C765 C764 1.439 . S
C765 C783 1.392 . S
N766 Co750 2.282 1_556 S
N766 C769 1.332 . S
N766 C771 1.332 . S
C767 C768 1.386 . S
C767 C770 1.388 . S
C768 C767 1.386 . S
C768 C769 1.382 . S
C768 H794 0.950 . S
C769 N766 1.332 . S
C769 C768 1.382 . S
C769 H780 0.952 1_556 S
C770 C767 1.388 . S
C770 C771 1.382 . S
C770 H795 0.950 . S
C771 N766 1.332 . S
C771 C770 1.382 . S
C771 H781 0.948 . S
N772 Co750 2.282 . S
N772 C776 1.332 . S
N772 C777 1.332 . S
C773 C774 1.388 . S
C773 C777 1.382 . S
C773 H796 0.950 . S
C774 C773 1.388 . S
C774 C775 1.386 . S
C775 C774 1.386 . S
C775 C776 1.382 . S
C775 H797 0.950 . S
C776 N772 1.332 . S
C776 C775 1.382 . S
C776 H778 0.952 . S
C777 N772 1.332 . S
C777 C773 1.382 . S
C777 H779 0.948 . S
H778 C776 0.952 . S
H779 C777 0.948 . S
H780 C769 0.952 1_554 S
H781 C771 0.948 . S
C782 C748 1.395 . S
C782 C752 1.391 . S
C783 C745 1.389 . S
C783 C765 1.392 . S
C784 C755 1.392 . S
C784 C757 1.389 . S
C785 C760 1.395 . S
C785 C762 1.391 . S
H786 C746 0.951 . S
H787 C747 0.950 . S
H788 C753 0.949 . S
H789 C754 0.950 . S
H790 C758 0.951 . S
H791 C759 0.950 . S
H792 C763 0.949 . S
H793 C764 0.950 . S
H794 C768 0.950 . S
H795 C770 0.950 . S
H796 C773 0.950 . S
H797 C775 0.950 . S
C502 C31 1.550 . S
C571 C61 1.533 . S
C509 C121 1.652 . S
C572 C211 1.617 . S
C625 C1 1.800 . S
C661 C91 1.634 . S
C151 C721 1.590 . S
C784 C181 1.495 . S
C624 C80 1.727 . S
C140 C668 1.495 . S
C714 C200 1.585 . S
C783 C20 1.667 . S
C271 C562 1.550 . S
C519 C331 1.522 . S
C380 C555 1.653 . S
C421 C518 1.624 . S
C730 C241 1.800 . S
C774 C320 1.561 . S
C608 C361 1.708 . S
C440 C677 1.575 . S
C731 C301 1.622 . S
C767 C391 1.579 . S
C615 C451 1.699 . S
C260 C678 1.667 . S
