# Generated by pormake.
# Topology anh, (6,3)-cn, num edge types: 1
# Building blocks:
#     Node 0, Type 0, BuildingBlock: CUKXOW_clean_sbu_0, # of connection points: 6
#     Node 1, Type 0, BuildingBlock: CUKXOW_clean_sbu_0, # of connection points: 6
#     Node 2, Type 0, BuildingBlock: CUKXOW_clean_sbu_0, # of connection points: 6
#     Node 3, Type 1, BuildingBlock: VETTIZ_charged_linker_0, # of connection points: 3
#     Node 4, Type 1, BuildingBlock: VETTIZ_charged_linker_0, # of connection points: 3
#     Node 5, Type 1, BuildingBlock: VETTIZ_charged_linker_0, # of connection points: 3
#     Node 6, Type 1, BuildingBlock: VETTIZ_charged_linker_0, # of connection points: 3
#     Node 7, Type 1, BuildingBlock: VETTIZ_charged_linker_0, # of connection points: 3
#     Node 8, Type 1, BuildingBlock: VETTIZ_charged_linker_0, # of connection points: 3
#     Edge 9, Type (0, 1), BuildingBlock: AJUNOK_clean_linker_0, # of connection points: 2
#     Edge 10, Type (0, 1), BuildingBlock: AJUNOK_clean_linker_0, # of connection points: 2
#     Edge 11, Type (0, 1), BuildingBlock: AJUNOK_clean_linker_0, # of connection points: 2
#     Edge 12, Type (0, 1), BuildingBlock: AJUNOK_clean_linker_0, # of connection points: 2
#     Edge 13, Type (0, 1), BuildingBlock: AJUNOK_clean_linker_0, # of connection points: 2
#     Edge 14, Type (0, 1), BuildingBlock: AJUNOK_clean_linker_0, # of connection points: 2
#     Edge 15, Type (0, 1), BuildingBlock: AJUNOK_clean_linker_0, # of connection points: 2
#     Edge 16, Type (0, 1), BuildingBlock: AJUNOK_clean_linker_0, # of connection points: 2
#     Edge 17, Type (0, 1), BuildingBlock: AJUNOK_clean_linker_0, # of connection points: 2
#     Edge 18, Type (0, 1), BuildingBlock: AJUNOK_clean_linker_0, # of connection points: 2
#     Edge 19, Type (0, 1), BuildingBlock: AJUNOK_clean_linker_0, # of connection points: 2
#     Edge 20, Type (0, 1), BuildingBlock: AJUNOK_clean_linker_0, # of connection points: 2
#     Edge 21, Type (0, 1), BuildingBlock: AJUNOK_clean_linker_0, # of connection points: 2
#     Edge 22, Type (0, 1), BuildingBlock: AJUNOK_clean_linker_0, # of connection points: 2
#     Edge 23, Type (0, 1), BuildingBlock: AJUNOK_clean_linker_0, # of connection points: 2
#     Edge 24, Type (0, 1), BuildingBlock: AJUNOK_clean_linker_0, # of connection points: 2
#     Edge 25, Type (0, 1), BuildingBlock: AJUNOK_clean_linker_0, # of connection points: 2
#     Edge 26, Type (0, 1), BuildingBlock: AJUNOK_clean_linker_0, # of connection points: 2
# Relax obj value: 0.140
# Max RMSD: 0.196
# Mean RMSD: 0.143
data_MOF--net-anh--node1-CUKXOW_clean_sbu_0--node2-VETTIZ_charged_linker_0--edge1-AJUNOK_clean_linker_0
_symmetry_space_group_name_H-M    P1
_symmetry_Int_Tables_number       1
_symmetry_cell_setting            triclinic
loop_
_symmetry_equiv_pos_as_xyz
'x, y, z'
_cell_length_a     27.004071
_cell_length_b     25.945873
_cell_length_c     51.515537
_cell_angle_alpha  95.611152
_cell_angle_beta   90.100669
_cell_angle_gamma 113.88384
loop_
_atom_site_label
_atom_site_type_symbol
_atom_site_fract_x
_atom_site_fract_y
_atom_site_fract_z
_atom_type_partial_charge
Tb0 Tb 0.07958 0.52348 0.14225 0.0
C1 C 0.0563 0.4811 0.19775 0.0
Tb2 Tb 1.01525 0.39297 0.14787 0.0
O3 O 1.00882 0.54693 0.14254 0.0
O4 O 0.99813 0.46537 0.14545 0.0
O5 O 0.09045 0.51918 0.18365 0.0
C6 C 0.92892 0.29549 0.15033 0.0
O7 O 1.01814 0.43228 0.18738 0.0
C8 C 0.12323 0.42006 0.14748 0.0
C9 C 0.03623 0.43509 0.09151 0.0
O10 O 0.97256 0.31399 0.16546 0.0
O11 O 0.93442 0.33166 0.13371 0.0
O12 O 0.0856 0.36947 0.149 0.0
O13 O 0.09734 0.45141 0.14581 0.0
O14 O 1.01417 0.39205 0.10573 0.0
O15 O 0.06367 0.48874 0.1014 0.0
C16 C 0.16343 0.62248 0.1382 0.0
O17 O 0.15559 0.57461 0.12477 0.0
O18 O 0.12352 0.61458 0.15358 0.0
C19 C 0.9719 0.49653 0.14507 0.0
Tb20 Tb 0.48672 1.01209 0.49943 0.0
C21 C 0.53908 0.0372 0.44559 0.0
Tb22 Tb 0.61259 0.08512 0.49761 0.0
O23 O 0.46802 0.07954 0.48499 0.0
O24 O 0.54102 0.09915 0.50514 0.0
O25 O 0.49891 1.0015 0.45809 0.0
C26 C 0.70713 0.17347 0.49489 0.0
O27 O 0.58276 0.07847 0.45753 0.0
C28 C 0.58944 0.97491 0.49742 0.0
C29 C 0.56102 0.05843 0.55227 0.0
O30 O 0.69143 0.12512 0.48061 0.0
O31 O 0.66973 0.17181 0.51092 0.0
O32 O 0.63856 0.01391 0.4977 0.0
O33 O 0.55888 1.0008 0.49754 0.0
O34 O 0.60486 0.08713 0.53953 0.0
O35 O 0.51303 0.02517 0.54059 0.0
C36 C 0.39333 0.92369 0.5035 0.0
O37 O 0.40321 0.97576 0.51248 0.0
O38 O 0.43552 0.92216 0.4921 0.0
C39 C 0.51519 0.11999 0.49214 0.0
Tb40 Tb 0.56765 0.62388 0.8402 0.0
C41 C 0.62868 0.66013 0.89364 0.0
Tb42 Tb 0.69103 0.6767 0.84117 0.0
O43 O 0.56964 0.55232 0.85861 0.0
O44 O 0.62952 0.59283 0.8336 0.0
O45 O 0.58484 0.65716 0.88091 0.0
C46 C 0.7921 0.68446 0.84139 0.0
O47 O 0.67223 0.66063 0.88157 0.0
C48 C 0.65658 0.75915 0.843 0.0
C49 C 0.62576 0.64085 0.78733 0.0
O50 O 0.76068 0.67338 0.86099 0.0
O51 O 0.76675 0.69219 0.82177 0.0
O52 O 0.70732 0.76743 0.84335 0.0
O53 O 0.62921 0.7064 0.84193 0.0
O54 O 0.67099 0.64759 0.8 0.0
O55 O 0.58259 0.64007 0.79971 0.0
C56 C 0.46097 0.57991 0.83121 0.0
O57 O 0.49365 0.55872 0.82151 0.0
O58 O 0.48848 0.62691 0.84585 0.0
C59 C 0.61429 0.55425 0.84874 0.0
C60 C 0.68321 0.08685 0.1694 0.0
C61 C 0.72939 0.12944 0.18292 0.0
C62 C 0.72843 0.14195 0.21004 0.0
C63 C 0.63785 0.06897 0.21034 0.0
C64 C 0.63778 0.05689 0.1836 0.0
C65 C 0.58507 1.00911 0.17313 0.0
H66 H 0.33782 0.81135 0.20081 0.0
C67 C 0.58628 0.02965 0.21972 0.0
C68 C 0.55471 0.99398 0.19815 0.0
H69 H 0.4025 0.84033 0.12444 0.0
H70 H 0.48543 0.91608 0.14405 0.0
H71 H 0.44111 0.81707 0.22798 0.0
H72 H 0.37762 0.94351 0.22337 0.0
H73 H 0.39918 0.94741 0.25604 0.0
H74 H 0.34693 0.88265 0.24096 0.0
H75 H 0.38936 0.82071 0.24889 0.0
H76 H 0.46053 0.86003 0.25785 0.0
C77 C 0.59783 0.95992 0.1601 0.0
C78 C 0.55658 0.03278 0.15449 0.0
C79 C 0.55791 0.03882 0.31702 0.0
C80 C 0.51824 1.0034 0.33245 0.0
C81 C 0.4727 0.95788 0.32005 0.0
C82 C 0.46751 0.94711 0.29277 0.0
C83 C 0.50853 0.98186 0.27766 0.0
C84 C 0.55282 0.02658 0.28989 0.0
C85 C 0.59428 0.05658 0.27102 0.0
C86 C 0.56728 0.0228 0.24532 0.0
C87 C 0.51691 0.97977 0.2493 0.0
C88 C 0.64755 0.05027 0.27784 0.0
C89 C 0.59961 0.11861 0.27244 0.0
C90 C 0.36955 0.83439 0.18822 0.0
C91 C 0.36353 0.82037 0.1611 0.0
C92 C 0.40634 0.85044 0.14545 0.0
C93 C 0.45423 0.89444 0.15686 0.0
C94 C 0.45929 0.90808 0.18418 0.0
C95 C 0.41712 0.87784 0.19924 0.0
C96 C 0.4287 0.89649 0.22784 0.0
C97 C 0.4844 0.94399 0.2277 0.0
C98 C 0.50273 0.95092 0.20216 0.0
C99 C 0.4297 0.84616 0.24154 0.0
C100 C 0.38588 0.91844 0.23782 0.0
H101 H 0.68539 0.12416 0.24434 0.0
H102 H 0.68288 0.07664 0.14849 0.0
H103 H 0.55983 0.07536 0.16272 0.0
H104 H 0.51277 1.00633 0.15147 0.0
H105 H 0.57543 0.03724 0.13522 0.0
H106 H 0.62805 0.95296 0.17237 0.0
H107 H 0.61495 0.96945 0.14067 0.0
H108 H 0.56203 0.91913 0.15773 0.0
H109 H 0.59281 0.07495 0.32582 0.0
H110 H 0.4416 0.92977 0.33147 0.0
H111 H 0.43212 0.91162 0.28455 0.0
H112 H 0.63959 1.01236 0.28832 0.0
H113 H 0.67587 0.0878 0.29057 0.0
H114 H 0.66861 0.04334 0.26031 0.0
H115 H 0.55945 0.12046 0.27506 0.0
H116 H 0.6142 0.13842 0.25434 0.0
H117 H 0.62696 0.14526 0.28917 0.0
H118 H 0.76304 0.17528 0.22073 0.0
C119 C 0.6831 0.11225 0.22374 0.0
C120 C 0.55231 0.69899 0.5094 0.0
C121 C 0.55168 0.7494 0.52277 0.0
C122 C 0.55157 0.75447 0.55015 0.0
C123 C 0.55528 0.66306 0.55104 0.0
C124 C 0.55326 0.65565 0.52408 0.0
C125 C 0.55193 0.59753 0.51431 0.0
H126 H 0.55954 0.3502 0.54997 0.0
C127 C 0.55885 0.61334 0.56112 0.0
C128 C 0.5563 0.5735 0.53992 0.0
H129 H 0.54003 0.38378 0.47105 0.0
H130 H 0.54549 0.47796 0.48733 0.0
H131 H 0.65323 0.46851 0.56703 0.0
H132 H 0.4811 0.39842 0.57534 0.0
H133 H 0.50996 0.4381 0.60525 0.0
H134 H 0.52622 0.37915 0.59378 0.0
H135 H 0.62149 0.42153 0.59111 0.0
H136 H 0.64394 0.49739 0.59788 0.0
C137 C 0.60102 0.60555 0.49744 0.0
C138 C 0.49727 0.56236 0.49934 0.0
C139 C 0.58925 0.6214 0.65894 0.0
C140 C 0.59735 0.58434 0.67483 0.0
C141 C 0.59569 0.53209 0.66335 0.0
C142 C 0.58676 0.51736 0.63632 0.0
C143 C 0.57928 0.55523 0.62055 0.0
C144 C 0.58051 0.60609 0.632 0.0
C145 C 0.57208 0.64121 0.61242 0.0
C146 C 0.56633 0.6034 0.58713 0.0
C147 C 0.57026 0.55319 0.59203 0.0
C148 C 0.62386 0.69737 0.6137 0.0
C149 C 0.51874 0.64841 0.6186 0.0
C150 C 0.55688 0.37758 0.53593 0.0
C151 C 0.54933 0.35891 0.5092 0.0
C152 C 0.54517 0.39642 0.49187 0.0
C153 C 0.54839 0.45111 0.50133 0.0
C154 C 0.55551 0.46853 0.5284 0.0
C155 C 0.55987 0.43139 0.54494 0.0
C156 C 0.56769 0.45485 0.57299 0.0
C157 C 0.56608 0.51183 0.57109 0.0
C158 C 0.55913 0.52103 0.54498 0.0
C159 C 0.62421 0.46068 0.58301 0.0
C160 C 0.51914 0.41571 0.58783 0.0
H161 H 0.55413 0.72009 0.58496 0.0
H162 H 0.55189 0.69356 0.48829 0.0
H163 H 0.46321 0.56386 0.51104 0.0
H164 H 0.4898 0.51726 0.49524 0.0
H165 H 0.49555 0.57931 0.48052 0.0
H166 H 0.63906 0.63607 0.50807 0.0
H167 H 0.59688 0.62239 0.47892 0.0
H168 H 0.60585 0.56551 0.49258 0.0
H169 H 0.59032 0.66186 0.66727 0.0
H170 H 0.60074 0.50236 0.67534 0.0
H171 H 0.58585 0.47693 0.62882 0.0
H172 H 0.66081 0.6899 0.61769 0.0
H173 H 0.62218 0.72887 0.62952 0.0
H174 H 0.63135 0.71671 0.59516 0.0
H175 H 0.49072 0.61342 0.62923 0.0
H176 H 0.49489 0.64646 0.60073 0.0
H177 H 0.52697 0.68881 0.63094 0.0
H178 H 0.55165 0.79253 0.56096 0.0
C179 C 0.55336 0.71211 0.56419 0.0
C180 C 0.1927 0.47999 0.82875 0.0
C181 C 0.23061 0.46176 0.83843 0.0
C182 C 0.2154 0.42252 0.85708 0.0
C183 C 0.12914 0.42985 0.86012 0.0
C184 C 0.14219 0.4634 0.8398 0.0
C185 C 0.09995 0.48489 0.83411 0.0
H186 H 0.8841 0.5324 0.87298 0.0
C187 C 0.0781 0.42906 0.87052 0.0
C188 C 0.06004 0.45987 0.85484 0.0
H189 H 0.98793 0.59957 0.80974 0.0
H190 H 0.03366 0.53858 0.81597 0.0
H191 H 0.87548 0.39602 0.86295 0.0
H192 H 0.96021 0.55153 0.90991 0.0
H193 H 0.97757 0.50532 0.92672 0.0
H194 H 0.9075 0.49485 0.92337 0.0
H195 H 0.84965 0.42871 0.88871 0.0
H196 H 0.88046 0.38103 0.89537 0.0
C197 C 0.07502 0.45931 0.80628 0.0
C198 C 0.12683 0.55086 0.83817 0.0
C199 C 0.03273 0.38333 0.96315 0.0
C200 C 0.99417 0.39119 0.97944 0.0
C201 C 0.9504 0.39904 0.96839 0.0
C202 C 0.94749 0.40374 0.94169 0.0
C203 C 0.98968 0.40246 0.92615 0.0
C204 C 1.02993 0.38948 0.93652 0.0
C205 C 0.07177 0.39093 0.91696 0.0
C206 C 0.05178 0.41089 0.89387 0.0
C207 C 1.00422 0.41845 0.89966 0.0
C208 C 0.06877 0.33008 0.91065 0.0
C209 C 0.12776 0.43479 0.92846 0.0
C210 C 0.9166 0.53375 0.86037 0.0
C211 C 0.93282 0.5711 0.84101 0.0
C212 C 0.9745 0.57094 0.8247 0.0
C213 C 1.00132 0.53585 0.82856 0.0
C214 C 0.98738 0.50206 0.84941 0.0
C215 C 0.94507 0.50081 0.86465 0.0
C216 C 0.93867 0.46657 0.88728 0.0
C217 C 0.9848 0.44777 0.88326 0.0
C218 C 1.01273 0.46839 0.86099 0.0
C219 C 0.883 0.41538 0.88361 0.0
C220 C 0.94608 0.50611 0.91315 0.0
H221 H 0.15547 0.37804 0.88286 0.0
H222 H 0.20366 0.50997 0.81429 0.0
H223 H 0.16263 0.5668 0.85214 0.0
H224 H 0.09992 0.56967 0.84703 0.0
H225 H 0.14093 0.56893 0.81952 0.0
H226 H 0.0705 0.41463 0.80241 0.0
H227 H 0.10122 0.48358 0.79124 0.0
H228 H 0.0337 0.45731 0.80339 0.0
H229 H 0.06662 0.37715 0.97135 0.0
H230 H 0.91989 0.40427 0.98069 0.0
H231 H 0.91409 0.41119 0.9344 0.0
H232 H 1.0283 0.29746 0.91462 0.0
H233 H 0.0995 0.32329 0.92256 0.0
H234 H 0.07413 0.32037 0.88969 0.0
H235 H 0.12503 0.47509 0.93617 0.0
H236 H 0.15956 0.44621 0.91416 0.0
H237 H 0.14222 0.41862 0.94476 0.0
H238 H 0.24435 0.408 0.8647 0.0
C239 C 0.16432 0.4059 0.86782 0.0
C240 C 0.91419 0.4187 0.47235 0.0
C241 C 0.87477 0.3692 0.45886 0.0
C242 C 0.87013 0.36404 0.43143 0.0
C243 C 0.94589 0.45451 0.43093 0.0
C244 C 0.94947 0.46087 0.45792 0.0
C245 C 0.99544 0.51564 0.46856 0.0
H246 H 0.21908 0.74585 0.44363 0.0
C247 C 0.99035 0.50319 0.42159 0.0
C248 C 1.01967 0.53957 0.44345 0.0
H249 H 0.15519 0.70261 0.51897 0.0
H250 H 0.07863 0.62061 0.49808 0.0
H251 H 0.20223 0.62664 0.42089 0.0
H252 H 0.10187 0.71815 0.4138 0.0
H253 H 0.10408 0.68491 0.38264 0.0
H254 H 0.16599 0.7363 0.39891 0.0
H255 H 0.21681 0.67972 0.3988 0.0
H256 H 0.17262 0.60645 0.38918 0.0
C257 C 0.03534 0.50116 0.48486 0.0
C258 C 0.97112 0.55328 0.48411 0.0
C259 C 1.02034 0.50325 0.32449 0.0
C260 C 0.06263 0.53746 0.30987 0.0
C261 C 0.10471 0.58593 0.3227 0.0
C262 C 0.10535 0.59914 0.34978 0.0
C263 C 0.0637 0.56326 0.36424 0.0
C264 C 1.02218 0.51633 0.35152 0.0
C265 C 0.98303 0.48113 0.37003 0.0
C266 C 1.00773 0.51492 0.39604 0.0
C267 C 0.05452 0.56311 0.39251 0.0
C268 C 0.98447 0.42154 0.36732 0.0
C269 C 0.92674 0.48099 0.36392 0.0
C270 C 0.18819 0.71888 0.45555 0.0
C271 C 0.19257 0.72995 0.48277 0.0
C272 C 0.15204 0.69442 0.49787 0.0
C273 C 0.10804 0.64697 0.48571 0.0
C274 C 0.10504 0.63544 0.4583 0.0
C275 C 0.14441 0.67187 0.44377 0.0
C276 C 0.13546 0.65379 0.415 0.0
C277 C 0.08396 0.60044 0.41444 0.0
C278 C 0.06637 0.58932 0.43981 0.0
C279 C 0.18424 0.64127 0.40523 0.0
C280 C 0.12669 0.70063 0.40167 0.0
H281 H 0.89978 0.39944 0.39659 0.0
H282 H 0.91834 0.42367 0.49346 0.0
H283 H 0.93168 0.54758 0.4749 0.0
H284 H 0.99691 0.599 0.48446 0.0
H285 H 0.96379 0.5423 0.50447 0.0
H286 H 0.04227 0.46508 0.47456 0.0
H287 H 1.019 0.48879 0.50415 0.0
H288 H 0.07576 0.53631 0.48808 0.0
H289 H 0.98667 0.46648 0.31519 0.0
H290 H 0.13777 0.61301 0.31185 0.0
H291 H 0.13877 0.63624 0.35843 0.0
H292 H 1.02409 0.42331 0.3604 0.0
H293 H 0.95243 0.39138 0.35312 0.0
H294 H 0.98041 0.40331 0.38612 0.0
H295 H 0.93098 0.52304 0.35854 0.0
H296 H 0.90071 0.47349 0.3809 0.0
H297 H 0.90502 0.44884 0.34732 0.0
H298 H 0.83934 0.32668 0.42075 0.0
C299 C 0.90522 0.4064 0.41744 0.0
C300 C 0.60901 0.99541 0.83226 0.0
C301 C 0.59578 0.93963 0.82018 0.0
C302 C 0.57684 0.92628 0.79392 0.0
C303 C 0.58809 0.02283 0.79123 0.0
C304 C 0.60382 0.03629 0.81741 0.0
C305 C 0.61359 0.09749 0.82631 0.0
H306 H 0.63119 0.35179 0.78869 0.0
C307 C 0.59114 0.07434 0.78031 0.0
C308 C 0.60541 0.1189 0.80063 0.0
H309 H 0.64363 0.31581 0.86787 0.0
H310 H 0.63181 0.21942 0.85195 0.0
H311 H 0.70385 0.29008 0.76427 0.0
H312 H 0.53269 0.24136 0.77075 0.0
H313 H 0.54114 0.21408 0.73935 0.0
H314 H 0.57199 0.28959 0.74846 0.0
H315 H 0.66555 0.3136 0.74357 0.0
H316 H 0.6737 0.2484 0.73499 0.0
C317 C 0.67204 0.12939 0.83792 0.0
C318 C 0.57016 0.0969 0.84584 0.0
C319 C 0.57107 0.06655 0.68192 0.0
C320 C 0.57585 0.10762 0.66516 0.0
C321 C 0.58653 0.16334 0.67586 0.0
C322 C 0.59247 0.17794 0.70294 0.0
C323 C 0.58792 0.13642 0.71953 0.0
C324 C 0.57714 0.08184 0.70889 0.0
C325 C 0.57441 0.04345 0.72929 0.0
C326 C 0.58607 0.08422 0.75405 0.0
C327 C 0.59382 0.13836 0.74821 0.0
C328 C 0.61993 0.02205 0.72427 0.0
C329 C 0.51601 0.99607 0.72799 0.0
C330 C 0.63261 0.32384 0.80272 0.0
C331 C 0.63954 0.34204 0.8295 0.0
C332 C 0.63879 0.30303 0.84704 0.0
C333 C 0.63156 0.24706 0.8378 0.0
C334 C 0.62397 0.22953 0.81077 0.0
C335 C 0.62485 0.26832 0.79391 0.0
C336 C 0.61489 0.24373 0.76596 0.0
C337 C 0.60635 0.18324 0.7685 0.0
C338 C 0.61207 0.17424 0.79472 0.0
C339 C 0.66678 0.27555 0.75121 0.0
C340 C 0.56277 0.24753 0.75533 0.0
H341 H 0.55922 0.95385 0.75953 0.0
H342 H 0.62331 1.00676 0.85252 0.0
H343 H 0.5295 0.06478 0.83855 0.0
H344 H 0.56623 0.1377 0.8487 0.0
H345 H 0.57939 0.08606 0.86509 0.0
H346 H 0.70124 0.12247 0.82432 0.0
H347 H 0.67679 0.11414 0.85679 0.0
H348 H 0.68399 0.17559 0.84126 0.0
H349 H 0.56389 0.02364 0.67421 0.0
H350 H 0.59018 0.1956 0.66323 0.0
H351 H 0.60055 0.22107 0.70985 0.0
H352 H 0.6572 0.0564 0.7181 0.0
H353 H 0.60708 0.98616 0.70854 0.0
H354 H 0.63324 1.00891 0.74176 0.0
H355 H 0.48611 1.00935 0.71903 0.0
H356 H 0.50083 0.98564 0.74761 0.0
H357 H 0.51362 0.95688 0.71618 0.0
H358 H 0.56728 0.88434 0.78401 0.0
C359 C 0.57276 0.96716 0.77954 0.0
C360 C 0.6975 0.46535 0.14536 0.0
C361 C 0.74696 0.47354 0.1322 0.0
C362 C 0.75095 0.49049 0.10705 0.0
C363 C 0.66224 0.4943 0.10823 0.0
C364 C 0.65471 0.47509 0.13258 0.0
C365 C 0.59722 0.4674 0.14129 0.0
H366 H 0.36101 0.50503 0.10599 0.0
C367 C 0.61431 0.50422 0.09991 0.0
C368 C 0.57412 0.48804 0.11873 0.0
H369 H 0.37574 0.42699 0.17397 0.0
H370 H 0.46946 0.44148 0.16293 0.0
H371 H 0.47784 0.60503 0.11177 0.0
H372 H 0.40636 0.43979 0.06921 0.0
H373 H 0.45271 0.48138 0.04807 0.0
H374 H 0.39747 0.49941 0.05864 0.0
H375 H 0.43323 0.58887 0.08348 0.0
H376 H 0.50564 0.61311 0.08094 0.0
C377 C 0.6016 0.50413 0.16716 0.0
C378 C 0.56323 0.40431 0.1437 0.0
C379 C 0.62795 0.59221 0.01504 0.0
C380 C 0.59125 0.60417 2e-05 0.0
C381 C 0.54078 0.59706 0.0102 0.0
C382 C 0.52647 0.57633 0.03446 0.0
C383 C 0.56263 0.56161 0.04865 0.0
C384 C 0.61233 0.56992 0.03879 0.0
C385 C 0.64451 0.54927 0.0554 0.0
C386 C 0.60658 0.52833 0.0775 0.0
C387 C 0.55882 0.53556 0.07342 0.0
C388 C 0.69771 0.6011 0.06491 0.0
C389 C 0.65218 0.49976 0.03877 0.0
C390 C 0.38378 0.49143 0.11902 0.0
C391 C 0.35945 0.46499 0.14091 0.0
C392 C 0.39208 0.44708 0.15663 0.0
C393 C 0.44659 0.45542 0.1503 0.0
C394 C 0.46939 0.4813 0.12774 0.0
C395 C 0.43687 0.49843 0.11285 0.0
C396 C 0.46337 0.52285 0.08903 0.0
C397 C 0.51725 0.5184 0.09147 0.0
C398 C 0.5231 0.49431 0.11427 0.0
C399 C 0.47022 0.58558 0.09111 0.0
C400 C 0.42832 0.48447 0.06489 0.0
H401 H 0.71827 0.51521 0.07643 0.0
H402 H 0.69245 0.45194 0.16477 0.0
H403 H 0.56194 0.37829 0.12503 0.0
H404 H 0.52101 0.39651 0.1484 0.0
H405 H 0.58099 0.38946 0.15932 0.0
H406 H 0.62752 0.54936 0.16519 0.0
H407 H 0.61984 0.49034 0.183 0.0
H408 H 0.5611 0.50106 0.17302 0.0
H409 H 0.66767 0.59853 0.00817 0.0
H410 H 0.51159 0.60584 -0.00096 0.0
H411 H 0.48721 0.57144 0.04084 0.0
H412 H 0.69091 0.64079 0.06776 0.0
H413 H 0.72965 0.60753 0.05049 0.0
H414 H 0.7137 0.59797 0.08416 0.0
H415 H 0.61999 0.47914 0.02298 0.0
H416 H 0.6487 0.46471 0.05033 0.0
H417 H 0.69175 0.51487 0.0293 0.0
H418 H 0.78739 0.49742 0.09644 0.0
C419 C 0.70999 0.50102 0.09531 0.0
C420 C 0.2241 0.48667 0.14243 0.0
C421 C 0.18421 0.43382 0.14775 0.0
C422 C 0.28012 0.49689 0.14125 0.0
C423 C 0.30005 0.4552 0.14565 0.0
H424 H 0.21201 0.52024 0.13864 0.0
H425 H 0.3082 0.53811 0.13656 0.0
S426 S 0.21328 0.31003 0.16144 0.0
N427 N 0.17009 0.33965 0.15835 0.0
N428 N 0.2735 0.35886 0.15617 0.0
C429 C 0.26069 0.40286 0.15177 0.0
C430 C 0.20373 0.39227 0.15275 0.0
C431 C 0.79349 0.21885 0.47301 0.0
C432 C 0.75527 0.22446 0.4902 0.0
C433 C 0.83446 0.26651 0.46439 0.0
C434 C 0.83855 0.32145 0.47257 0.0
H435 H 0.7904 0.17725 0.46526 0.0
H436 H 0.86174 0.26022 0.45026 0.0
S437 S 0.75114 0.35928 0.51913 0.0
N438 N 0.72633 0.28932 0.51669 0.0
N439 N 0.80335 0.37917 0.50009 0.0
C440 C 0.80273 0.32795 0.491 0.0
C441 C 0.76096 0.27928 0.4999 0.0
C442 C 0.67469 0.86204 0.84557 0.0
C443 C 0.63692 0.80494 0.84214 0.0
C444 C 0.65977 0.90656 0.84109 0.0
C445 C 0.60649 0.8957 0.83291 0.0
H446 H 0.71686 0.87238 0.85057 0.0
H447 H 0.69106 0.94925 0.84216 0.0
S448 S 0.4906 0.75464 0.82438 0.0
N449 N 0.54279 0.74081 0.83254 0.0
N450 N 0.5145 0.82417 0.82435 0.0
C451 C 0.56748 0.83921 0.83135 0.0
C452 C 0.58273 0.79392 0.83587 0.0
C453 C 0.87 0.43352 0.13449 0.0
C454 C 0.91142 0.48303 0.1472 0.0
C455 C 0.81509 0.42754 0.1322 0.0
C456 C 0.79804 0.46985 0.14314 0.0
H457 H 0.88063 0.40094 0.12456 0.0
H458 H 0.7863 0.39092 0.12023 0.0
S459 S 0.88926 0.60563 0.1802 0.0
N460 N 0.92987 0.57375 0.17214 0.0
N461 N 0.82824 0.56181 0.16829 0.0
C462 C 0.83858 0.51772 0.15719 0.0
C463 C 0.89442 0.52438 0.15909 0.0
C464 C 0.34064 0.81989 0.49601 0.0
C465 C 0.34152 0.87376 0.50374 0.0
C466 C 0.29168 0.77224 0.49147 0.0
C467 C 0.24194 0.77675 0.49462 0.0
H468 H 0.37797 0.81483 0.4922 0.0
H469 H 0.29259 0.73213 0.48396 0.0
S470 S 0.22201 0.90664 0.5171 0.0
N471 N 0.28854 0.92801 0.51656 0.0
N472 N 0.19602 0.83777 0.50776 0.0
C473 C 0.2421 0.82938 0.50404 0.0
C474 C 0.29215 0.87818 0.50872 0.0
C475 C 0.59966 0.45792 0.86081 0.0
C476 C 0.62926 0.50467 0.84712 0.0
C477 C 0.60612 0.40662 0.85654 0.0
C478 C 0.64256 0.39998 0.83842 0.0
H479 H 0.56927 0.45994 0.87408 0.0
H480 H 0.57997 0.37089 0.8663 0.0
S481 S 0.73648 0.51228 0.80091 0.0
N482 N 0.70117 0.54298 0.8171 0.0
N483 N 0.71386 0.44712 0.80931 0.0
C484 C 0.67548 0.44787 0.82619 0.0
C485 C 0.66877 0.50003 0.83048 0.0
C486 C 0.52781 0.88036 0.51158 0.0
C487 C 0.57479 0.91338 0.49927 0.0
C488 C 0.5177 0.82469 0.51668 0.0
C489 C 0.55428 0.79964 0.50981 0.0
H490 H 0.50055 0.89885 0.51898 0.0
H491 H 0.48267 0.80231 0.52766 0.0
S492 S 0.6812 0.86661 0.47531 0.0
N493 N 0.65637 0.91544 0.47863 0.0
N494 N 0.6377 0.81144 0.48858 0.0
C495 C 0.59978 0.83107 0.49617 0.0
C496 C 0.6101 0.8878 0.49098 0.0
C497 C 0.86538 0.66848 0.8628 0.0
C498 C 0.83997 0.67138 0.8396 0.0
C499 C 0.89918 0.6397 0.86266 0.0
C500 C 0.9077 0.61182 0.83938 0.0
H501 H 0.8563 0.68531 0.8814 0.0
H502 H 0.91612 0.63632 0.88118 0.0
S503 S 0.85797 0.6159 0.77281 0.0
N504 N 0.83211 0.65225 0.79222 0.0
N505 N 0.89401 0.59556 0.79209 0.0
C506 C 0.88682 0.61922 0.81571 0.0
C507 C 0.8532 0.64972 0.8158 0.0
C508 C 0.21403 0.72499 0.15313 0.0
C509 C 0.21338 0.67533 0.13925 0.0
C510 C 0.26249 0.77328 0.15836 0.0
C511 C 0.31231 0.77371 0.15009 0.0
H512 H 0.17714 0.7259 0.16095 0.0
H513 H 0.26135 0.80979 0.17008 0.0
S514 S 0.33206 0.65587 0.11136 0.0
N515 N 0.26616 0.63071 0.11562 0.0
N516 N 0.35758 0.72139 0.12596 0.0
C517 C 0.31186 0.72552 0.13486 0.0
C518 C 0.26227 0.67627 0.12935 0.0
C519 C 0.57116 0.22214 0.50886 0.0
C520 C 0.52755 0.18194 0.49299 0.0
C521 C 0.57995 0.27971 0.5124 0.0
C522 C 0.54503 0.29998 0.50059 0.0
H523 H 0.59743 0.2088 0.51965 0.0
H524 H 0.61341 0.30832 0.5254 0.0
S525 S 0.42661 0.21278 0.45575 0.0
N526 N 0.45104 0.16728 0.46384 0.0
N527 N 0.46639 0.27487 0.47121 0.0
C528 C 0.50262 0.26067 0.48373 0.0
C529 C 0.49402 0.20194 0.47989 0.0
C530 C 0.36993 0.5793 0.83832 0.0
C531 C 0.40165 0.5503 0.8294 0.0
C532 C 0.31389 0.55039 0.83987 0.0
C533 C 0.28805 0.49151 0.83288 0.0
H534 H 0.38867 0.62427 0.84482 0.0
H535 H 0.29093 0.57382 0.8477 0.0
S536 S 0.35226 0.39677 0.80672 0.0
N537 N 0.40282 0.46005 0.81191 0.0
N538 N 0.29721 0.4057 0.81548 0.0
C539 C 0.31887 0.46235 0.8231 0.0
C540 C 0.37585 0.49185 0.82112 0.0
C541 C 0.8783 0.20936 0.17245 0.0
C542 C 0.87819 0.24626 0.15428 0.0
C543 C 0.82973 0.16819 0.17997 0.0
C544 C 0.77923 0.16259 0.1697 0.0
H545 H 0.91601 0.21391 0.18183 0.0
H546 H 0.83152 0.14248 0.19501 0.0
S547 S 0.75704 0.2457 0.11987 0.0
N548 N 0.82359 0.27169 0.12458 0.0
N549 N 0.73215 0.19474 0.13918 0.0
C550 C 0.77865 0.19672 0.15028 0.0
C551 C 0.82823 0.23857 0.14248 0.0
C552 C 1.02185 0.46368 0.04838 0.0
C553 C 1.02705 0.42288 0.0629 0.0
C554 C 1.0101 0.45231 0.02145 0.0
C555 C 1.00397 0.4001 0.00802 0.0
H556 H 1.02585 0.50436 0.05794 0.0
H557 H 1.00645 0.48493 0.01097 0.0
S558 S 1.01553 0.27982 0.03667 0.0
N559 N 1.02604 0.3284 0.06176 0.0
N560 N 1.00496 0.30772 0.01085 0.0
C561 C 1.00989 0.35924 0.02212 0.0
C562 C 1.02105 0.37042 0.04966 0.0
C563 C 0.48506 0.01685 0.40375 0.0
C564 C 0.53504 0.03036 0.41691 0.0
C565 C 0.4801 1.00883 0.37644 0.0
C566 C 0.52476 1.01302 0.36137 0.0
H567 H 0.44967 1.01305 0.41465 0.0
H568 H 0.44105 0.99959 0.36707 0.0
S569 S 0.66333 0.04219 0.38698 0.0
N570 N 0.62943 0.04544 0.41327 0.0
N571 N 0.61981 0.02772 0.36196 0.0
C572 C 0.5748 0.02545 0.37446 0.0
C573 C 0.58 0.03477 0.40224 0.0
C574 C 0.57823 0.63247 0.74447 0.0
C575 C 0.6215 0.62929 0.7585 0.0
C576 C 0.57107 0.61834 0.7174 0.0
C577 C 0.60659 0.6 0.70336 0.0
H578 H 0.54931 0.64562 0.75445 0.0
H579 H 0.53686 0.62082 0.70744 0.0
S580 S 0.7272 0.58578 0.73041 0.0
N581 N 0.70118 0.60736 0.75602 0.0
N582 N 0.68755 0.58116 0.70508 0.0
C583 C 0.6504 0.59727 0.71697 0.0
C584 C 0.65798 0.61196 0.74454 0.0
C585 C 0.609 0.1142 0.59389 0.0
C586 C 0.56505 0.06743 0.58119 0.0
C587 C 0.61204 0.12681 0.62101 0.0
C588 C 0.57151 0.09297 0.63654 0.0
H589 H 0.64095 0.14224 0.58282 0.0
H590 H 0.64652 0.16332 0.62992 0.0
S591 S 0.44873 0.96487 0.61337 0.0
N592 N 0.48067 0.98613 0.58655 0.0
N593 N 0.48641 1.0105 0.63759 0.0
C594 C 0.52781 0.04556 0.62429 0.0
C595 C 0.52455 0.03267 0.59662 0.0
C596 C 0.60083 0.67775 0.93867 0.0
C597 C 0.62429 0.64999 0.92125 0.0
C598 C 0.59152 0.6638 0.96437 0.0
C599 C 0.60418 0.62069 0.97324 0.0
H600 H 0.58934 0.71015 0.93232 0.0
H601 H 0.57383 0.68657 0.97729 0.0
S602 S 0.66083 0.53121 0.93384 0.0
N603 N 0.65783 0.57614 0.91398 0.0
N604 N 0.63775 0.54767 0.96166 0.0
C605 C 0.62694 0.59211 0.95571 0.0
C606 C 0.63759 0.60729 0.92985 0.0
C607 C 0.07385 0.55087 0.23715 0.0
C608 C 0.05984 0.49465 0.22631 0.0
C609 C 0.07505 0.56446 0.2642 0.0
C610 C 0.06298 0.5224 0.28136 0.0
H611 H 0.08256 0.58441 0.22462 0.0
H612 H 0.08443 0.60803 0.27168 0.0
S613 S 1.03049 0.36988 0.2627 0.0
N614 N 0.03715 0.39729 0.23464 0.0
N615 N 0.04145 0.423 0.28556 0.0
C616 C 0.05086 0.4663 0.27072 0.0
C617 C 0.04878 0.45238 0.24317 0.0
loop_
_geom_bond_atom_site_label_1
_geom_bond_atom_site_label_2
_geom_bond_distance
_geom_bond_site_symmetry_2
_ccdc_geom_bond_type
Tb0 O3 2.453 1_455 S
Tb0 O4 2.596 1_455 S
Tb0 O5 2.374 . S
Tb0 O13 2.343 . S
Tb0 O15 2.353 . S
Tb0 O17 2.427 . S
Tb0 O18 2.513 . S
C1 O5 1.251 . S
C1 O7 1.263 . S
Tb2 O4 2.343 1_455 S
Tb2 O7 2.353 . S
Tb2 O10 2.427 1_455 S
Tb2 O11 2.513 1_455 S
Tb2 O12 2.453 . S
Tb2 O13 2.596 . S
Tb2 O14 2.374 . S
O3 Tb0 2.453 1_655 S
O3 C19 1.245 . S
O4 Tb0 2.596 1_655 S
O4 Tb2 2.343 1_655 S
O4 C19 1.259 . S
O5 Tb0 2.374 . S
O5 C1 1.251 . S
C6 O10 1.275 . S
C6 O11 1.246 . S
O7 C1 1.263 . S
O7 Tb2 2.353 . S
C8 O12 1.245 . S
C8 O13 1.259 . S
C9 O14 1.250 . S
C9 O15 1.263 . S
O10 Tb2 2.427 1_655 S
O10 C6 1.275 . S
O11 Tb2 2.513 1_655 S
O11 C6 1.246 . S
O12 Tb2 2.453 . S
O12 C8 1.245 . S
O13 Tb0 2.343 . S
O13 Tb2 2.596 . S
O13 C8 1.259 . S
O14 Tb2 2.374 . S
O14 C9 1.250 . S
O15 Tb0 2.353 . S
O15 C9 1.263 . S
C16 O17 1.275 . S
C16 O18 1.246 . S
O17 Tb0 2.427 . S
O17 C16 1.275 . S
O18 Tb0 2.513 . S
O18 C16 1.246 . S
C19 O3 1.245 . S
C19 O4 1.259 . S
Tb20 O23 2.453 . S
Tb20 O24 2.596 . S
Tb20 O25 2.374 . S
Tb20 O33 2.343 1_545 S
Tb20 O35 2.353 . S
Tb20 O37 2.427 1_545 S
Tb20 O38 2.513 1_545 S
C21 O25 1.251 . S
C21 O27 1.263 . S
Tb22 O24 2.343 . S
Tb22 O27 2.353 . S
Tb22 O30 2.427 . S
Tb22 O31 2.513 . S
Tb22 O32 2.453 1_545 S
Tb22 O33 2.596 1_545 S
Tb22 O34 2.374 . S
O23 Tb20 2.453 . S
O23 C39 1.245 . S
O24 Tb20 2.596 . S
O24 Tb22 2.343 . S
O24 C39 1.259 . S
O25 Tb20 2.374 . S
O25 C21 1.251 . S
C26 O30 1.275 . S
C26 O31 1.246 . S
O27 C21 1.263 . S
O27 Tb22 2.353 . S
C28 O32 1.245 . S
C28 O33 1.259 . S
C29 O34 1.250 . S
C29 O35 1.263 . S
O30 Tb22 2.427 . S
O30 C26 1.275 . S
O31 Tb22 2.513 . S
O31 C26 1.246 . S
O32 Tb22 2.453 1_565 S
O32 C28 1.245 . S
O33 Tb20 2.343 1_565 S
O33 Tb22 2.596 1_565 S
O33 C28 1.259 . S
O34 Tb22 2.374 . S
O34 C29 1.250 . S
O35 Tb20 2.353 . S
O35 C29 1.263 . S
C36 O37 1.275 . S
C36 O38 1.246 . S
O37 Tb20 2.427 1_565 S
O37 C36 1.275 . S
O38 Tb20 2.513 1_565 S
O38 C36 1.246 . S
C39 O23 1.245 . S
C39 O24 1.259 . S
Tb40 O43 2.453 . S
Tb40 O44 2.596 . S
Tb40 O45 2.374 . S
Tb40 O53 2.343 . S
Tb40 O55 2.353 . S
Tb40 O57 2.427 . S
Tb40 O58 2.513 . S
C41 O45 1.251 . S
C41 O47 1.263 . S
Tb42 O44 2.343 . S
Tb42 O47 2.353 . S
Tb42 O50 2.427 . S
Tb42 O51 2.513 . S
Tb42 O52 2.453 . S
Tb42 O53 2.596 . S
Tb42 O54 2.374 . S
O43 Tb40 2.453 . S
O43 C59 1.245 . S
O44 Tb40 2.596 . S
O44 Tb42 2.343 . S
O44 C59 1.259 . S
O45 Tb40 2.374 . S
O45 C41 1.251 . S
C46 O50 1.275 . S
C46 O51 1.246 . S
O47 C41 1.263 . S
O47 Tb42 2.353 . S
C48 O52 1.245 . S
C48 O53 1.259 . S
C49 O54 1.250 . S
C49 O55 1.263 . S
O50 Tb42 2.427 . S
O50 C46 1.275 . S
O51 Tb42 2.513 . S
O51 C46 1.246 . S
O52 Tb42 2.453 . S
O52 C48 1.245 . S
O53 Tb40 2.343 . S
O53 Tb42 2.596 . S
O53 C48 1.259 . S
O54 Tb42 2.374 . S
O54 C49 1.250 . S
O55 Tb40 2.353 . S
O55 C49 1.263 . S
C56 O57 1.275 . S
C56 O58 1.246 . S
O57 Tb40 2.427 . S
O57 C56 1.275 . S
O58 Tb40 2.513 . S
O58 C56 1.246 . S
C59 O43 1.245 . S
C59 O44 1.259 . S
C60 C61 1.391 . S
C60 C64 1.391 . S
C60 H102 0.948 . S
C61 C60 1.391 . S
C61 C62 1.391 . S
C62 C61 1.391 . S
C62 H118 0.947 . S
C62 C119 1.392 . S
C63 C64 1.391 . S
C63 C67 1.397 . S
C63 C119 1.419 . S
C64 C60 1.391 . S
C64 C63 1.391 . S
C64 C65 1.399 . S
C65 C64 1.399 . S
C65 C68 1.396 . S
C65 C77 1.453 . S
C65 C78 1.684 . S
H66 C90 0.948 . S
C67 C63 1.397 . S
C67 C68 1.394 . S
C67 C86 1.723 . S
C68 C65 1.396 . S
C68 C67 1.394 . S
C68 C98 1.723 1_545 S
H69 C92 0.947 . S
H70 C93 0.948 . S
H71 C99 0.982 . S
H72 C100 0.979 . S
H73 C100 0.980 . S
H74 C100 0.983 . S
H75 C99 0.979 . S
H76 C99 0.977 . S
C77 C65 1.453 . S
C77 H106 0.982 . S
C77 H107 0.979 . S
C77 H108 0.977 1_545 S
C78 C65 1.684 . S
C78 H103 0.979 . S
C78 H104 0.980 . S
C78 H105 0.983 . S
C79 C80 1.391 . S
C79 C84 1.391 . S
C79 H109 0.948 . S
C80 C79 1.391 . S
C80 C81 1.391 . S
C81 C80 1.391 . S
C81 C82 1.392 . S
C81 H110 0.947 1_545 S
C82 C81 1.392 . S
C82 C83 1.419 . S
C82 H111 0.948 1_545 S
C83 C82 1.419 . S
C83 C84 1.391 . S
C83 C87 1.397 . S
C84 C79 1.391 . S
C84 C83 1.391 . S
C84 C85 1.399 . S
C85 C84 1.399 . S
C85 C86 1.396 . S
C85 C88 1.453 . S
C85 C89 1.684 . S
C86 C67 1.723 . S
C86 C85 1.396 . S
C86 C87 1.394 . S
C87 C83 1.397 . S
C87 C86 1.394 . S
C87 C97 1.723 1_545 S
C88 C85 1.453 . S
C88 H112 0.982 . S
C88 H113 0.979 . S
C88 H114 0.977 . S
C89 C85 1.684 . S
C89 H115 0.979 . S
C89 H116 0.980 . S
C89 H117 0.983 . S
C90 H66 0.948 . S
C90 C91 1.391 . S
C90 C95 1.391 . S
C91 C90 1.391 . S
C91 C92 1.391 . S
C92 H69 0.947 . S
C92 C91 1.391 . S
C92 C93 1.392 . S
C93 H70 0.948 . S
C93 C92 1.392 . S
C93 C94 1.419 . S
C94 C93 1.419 . S
C94 C95 1.391 . S
C94 C98 1.397 . S
C95 C90 1.391 . S
C95 C94 1.391 . S
C95 C96 1.399 . S
C96 C95 1.399 . S
C96 C97 1.396 . S
C96 C99 1.453 . S
C96 C100 1.684 . S
C97 C87 1.723 1_565 S
C97 C96 1.396 . S
C97 C98 1.394 . S
C98 C68 1.723 1_565 S
C98 C94 1.397 . S
C98 C97 1.394 . S
C99 H71 0.982 . S
C99 H75 0.979 . S
C99 H76 0.977 . S
C99 C96 1.453 . S
C100 H72 0.979 . S
C100 H73 0.980 . S
C100 H74 0.983 . S
C100 C96 1.684 . S
H101 C119 0.948 . S
H102 C60 0.948 . S
H103 C78 0.979 . S
H104 C78 0.980 . S
H105 C78 0.983 . S
H106 C77 0.982 . S
H107 C77 0.979 . S
H108 C77 0.977 1_565 S
H109 C79 0.948 . S
H110 C81 0.947 1_565 S
H111 C82 0.948 1_565 S
H112 C88 0.982 . S
H113 C88 0.979 . S
H114 C88 0.977 . S
H115 C89 0.979 . S
H116 C89 0.980 . S
H117 C89 0.983 . S
H118 C62 0.947 . S
C119 C62 1.392 . S
C119 C63 1.419 . S
C119 H101 0.948 . S
C120 C121 1.391 . S
C120 C124 1.391 . S
C120 H162 0.948 . S
C121 C120 1.391 . S
C121 C122 1.391 . S
C122 C121 1.391 . S
C122 H178 0.947 . S
C122 C179 1.392 . S
C123 C124 1.391 . S
C123 C127 1.397 . S
C123 C179 1.419 . S
C124 C120 1.391 . S
C124 C123 1.391 . S
C124 C125 1.399 . S
C125 C124 1.399 . S
C125 C128 1.396 . S
C125 C137 1.453 . S
C125 C138 1.684 . S
H126 C150 0.948 . S
C127 C123 1.397 . S
C127 C128 1.394 . S
C127 C146 1.723 . S
C128 C125 1.396 . S
C128 C127 1.394 . S
C128 C158 1.723 . S
H129 C152 0.947 . S
H130 C153 0.948 . S
H131 C159 0.982 . S
H132 C160 0.979 . S
H133 C160 0.980 . S
H134 C160 0.983 . S
H135 C159 0.979 . S
H136 C159 0.977 . S
C137 C125 1.453 . S
C137 H166 0.982 . S
C137 H167 0.979 . S
C137 H168 0.977 . S
C138 C125 1.684 . S
C138 H163 0.979 . S
C138 H164 0.980 . S
C138 H165 0.983 . S
C139 C140 1.391 . S
C139 C144 1.391 . S
C139 H169 0.948 . S
C140 C139 1.391 . S
C140 C141 1.391 . S
C141 C140 1.391 . S
C141 C142 1.392 . S
C141 H170 0.947 . S
C142 C141 1.392 . S
C142 C143 1.419 . S
C142 H171 0.948 . S
C143 C142 1.419 . S
C143 C144 1.391 . S
C143 C147 1.397 . S
C144 C139 1.391 . S
C144 C143 1.391 . S
C144 C145 1.399 . S
C145 C144 1.399 . S
C145 C146 1.396 . S
C145 C148 1.453 . S
C145 C149 1.684 . S
C146 C127 1.723 . S
C146 C145 1.396 . S
C146 C147 1.394 . S
C147 C143 1.397 . S
C147 C146 1.394 . S
C147 C157 1.723 . S
C148 C145 1.453 . S
C148 H172 0.982 . S
C148 H173 0.979 . S
C148 H174 0.977 . S
C149 C145 1.684 . S
C149 H175 0.979 . S
C149 H176 0.980 . S
C149 H177 0.983 . S
C150 H126 0.948 . S
C150 C151 1.391 . S
C150 C155 1.391 . S
C151 C150 1.391 . S
C151 C152 1.391 . S
C152 H129 0.947 . S
C152 C151 1.391 . S
C152 C153 1.392 . S
C153 H130 0.948 . S
C153 C152 1.392 . S
C153 C154 1.419 . S
C154 C153 1.419 . S
C154 C155 1.391 . S
C154 C158 1.397 . S
C155 C150 1.391 . S
C155 C154 1.391 . S
C155 C156 1.399 . S
C156 C155 1.399 . S
C156 C157 1.396 . S
C156 C159 1.453 . S
C156 C160 1.684 . S
C157 C147 1.723 . S
C157 C156 1.396 . S
C157 C158 1.394 . S
C158 C128 1.723 . S
C158 C154 1.397 . S
C158 C157 1.394 . S
C159 H131 0.982 . S
C159 H135 0.979 . S
C159 H136 0.977 . S
C159 C156 1.453 . S
C160 H132 0.979 . S
C160 H133 0.980 . S
C160 H134 0.983 . S
C160 C156 1.684 . S
H161 C179 0.948 . S
H162 C120 0.948 . S
H163 C138 0.979 . S
H164 C138 0.980 . S
H165 C138 0.983 . S
H166 C137 0.982 . S
H167 C137 0.979 . S
H168 C137 0.977 . S
H169 C139 0.948 . S
H170 C141 0.947 . S
H171 C142 0.948 . S
H172 C148 0.982 . S
H173 C148 0.979 . S
H174 C148 0.977 . S
H175 C149 0.979 . S
H176 C149 0.980 . S
H177 C149 0.983 . S
H178 C122 0.947 . S
C179 C122 1.392 . S
C179 C123 1.419 . S
C179 H161 0.948 . S
C180 C181 1.391 . S
C180 C184 1.391 . S
C180 H222 0.948 . S
C181 C180 1.391 . S
C181 C182 1.391 . S
C182 C181 1.391 . S
C182 H238 0.947 . S
C182 C239 1.392 . S
C183 C184 1.391 . S
C183 C187 1.397 . S
C183 C239 1.419 . S
C184 C180 1.391 . S
C184 C183 1.391 . S
C184 C185 1.399 . S
C185 C184 1.399 . S
C185 C188 1.396 . S
C185 C197 1.453 . S
C185 C198 1.684 . S
H186 C210 0.948 . S
C187 C183 1.397 . S
C187 C188 1.394 . S
C187 C206 1.723 . S
C188 C185 1.396 . S
C188 C187 1.394 . S
C188 C218 1.723 . S
H189 C212 0.947 . S
H190 C213 0.948 1_455 S
H191 C219 0.982 . S
H192 C220 0.979 . S
H193 C220 0.980 . S
H194 C220 0.983 . S
H195 C219 0.979 . S
H196 C219 0.977 . S
C197 C185 1.453 . S
C197 H226 0.982 . S
C197 H227 0.979 . S
C197 H228 0.977 . S
C198 C185 1.684 . S
C198 H223 0.979 . S
C198 H224 0.980 . S
C198 H225 0.983 . S
C199 C200 1.378 1_556 S
C199 C204 1.391 . S
C199 H229 0.948 . S
C200 C199 1.378 1_554 S
C200 C201 1.381 1_554 S
C201 C200 1.381 1_556 S
C201 C202 1.392 . S
C201 H230 0.967 1_455 S
C202 C201 1.392 . S
C202 C203 1.419 . S
C202 H231 0.948 1_455 S
C203 C202 1.419 . S
C203 C204 1.391 . S
C203 C207 1.397 . S
C204 C199 1.391 . S
C204 C203 1.391 . S
C204 C205 1.399 . S
C205 C204 1.399 . S
C205 C206 1.396 . S
C205 C208 1.453 . S
C205 C209 1.684 . S
C206 C187 1.723 . S
C206 C205 1.396 . S
C206 C207 1.394 . S
C207 C203 1.397 . S
C207 C206 1.394 . S
C207 C217 1.723 . S
C208 C205 1.453 . S
C208 H232 0.982 . S
C208 H233 0.979 . S
C208 H234 0.977 . S
C209 C205 1.684 . S
C209 H235 0.979 . S
C209 H236 0.980 . S
C209 H237 0.983 . S
C210 H186 0.948 . S
C210 C211 1.391 . S
C210 C215 1.391 . S
C211 C210 1.391 . S
C211 C212 1.391 . S
C212 H189 0.947 . S
C212 C211 1.391 . S
C212 C213 1.392 . S
C213 H190 0.948 1_655 S
C213 C212 1.392 . S
C213 C214 1.419 . S
C214 C213 1.419 . S
C214 C215 1.391 . S
C214 C218 1.397 1_655 S
C215 C210 1.391 . S
C215 C214 1.391 . S
C215 C216 1.399 . S
C216 C215 1.399 . S
C216 C217 1.396 1_655 S
C216 C219 1.453 . S
C216 C220 1.684 . S
C217 C207 1.723 . S
C217 C216 1.396 1_455 S
C217 C218 1.394 . S
C218 C188 1.723 . S
C218 C214 1.397 1_455 S
C218 C217 1.394 . S
C219 H191 0.982 . S
C219 H195 0.979 . S
C219 H196 0.977 . S
C219 C216 1.453 . S
C220 H192 0.979 . S
C220 H193 0.980 . S
C220 H194 0.983 . S
C220 C216 1.684 . S
H221 C239 0.948 . S
H222 C180 0.948 . S
H223 C198 0.979 . S
H224 C198 0.980 . S
H225 C198 0.983 . S
H226 C197 0.982 . S
H227 C197 0.979 . S
H228 C197 0.977 . S
H229 C199 0.948 . S
H230 C201 0.967 1_655 S
H231 C202 0.948 1_655 S
H232 C208 0.982 . S
H233 C208 0.979 . S
H234 C208 0.977 . S
H235 C209 0.979 . S
H236 C209 0.980 . S
H237 C209 0.983 . S
H238 C182 0.947 . S
C239 C182 1.392 . S
C239 C183 1.419 . S
C239 H221 0.948 . S
C240 C241 1.391 . S
C240 C244 1.391 . S
C240 H282 0.948 . S
C241 C240 1.391 . S
C241 C242 1.391 . S
C242 C241 1.391 . S
C242 H298 0.947 . S
C242 C299 1.392 . S
C243 C244 1.391 . S
C243 C247 1.397 . S
C243 C299 1.419 . S
C244 C240 1.391 . S
C244 C243 1.391 . S
C244 C245 1.399 . S
C245 C244 1.399 . S
C245 C248 1.396 . S
C245 C257 1.453 . S
C245 C258 1.684 . S
H246 C270 0.948 . S
C247 C243 1.397 . S
C247 C248 1.394 . S
C247 C266 1.723 . S
C248 C245 1.396 . S
C248 C247 1.394 . S
C248 C278 1.723 1_655 S
H249 C272 0.947 . S
H250 C273 0.948 . S
H251 C279 0.982 . S
H252 C280 0.979 . S
H253 C280 0.980 . S
H254 C280 0.983 . S
H255 C279 0.979 . S
H256 C279 0.977 . S
C257 C245 1.453 . S
C257 H286 0.982 1_655 S
C257 H287 0.979 . S
C257 H288 0.977 1_655 S
C258 C245 1.684 . S
C258 H283 0.979 . S
C258 H284 0.980 . S
C258 H285 0.983 . S
C259 C260 1.391 1_655 S
C259 C264 1.391 . S
C259 H289 0.948 . S
C260 C259 1.391 1_455 S
C260 C261 1.391 . S
C261 C260 1.391 . S
C261 C262 1.392 . S
C261 H290 0.947 . S
C262 C261 1.392 . S
C262 C263 1.419 . S
C262 H291 0.948 . S
C263 C262 1.419 . S
C263 C264 1.391 1_455 S
C263 C267 1.397 . S
C264 C259 1.391 . S
C264 C263 1.391 1_655 S
C264 C265 1.399 . S
C265 C264 1.399 . S
C265 C266 1.396 . S
C265 C268 1.453 . S
C265 C269 1.684 . S
C266 C247 1.723 . S
C266 C265 1.396 . S
C266 C267 1.394 1_655 S
C267 C263 1.397 . S
C267 C266 1.394 1_455 S
C267 C277 1.723 . S
C268 C265 1.453 . S
C268 H292 0.982 . S
C268 H293 0.979 . S
C268 H294 0.977 . S
C269 C265 1.684 . S
C269 H295 0.979 . S
C269 H296 0.980 . S
C269 H297 0.983 . S
C270 H246 0.948 . S
C270 C271 1.391 . S
C270 C275 1.391 . S
C271 C270 1.391 . S
C271 C272 1.391 . S
C272 H249 0.947 . S
C272 C271 1.391 . S
C272 C273 1.392 . S
C273 H250 0.948 . S
C273 C272 1.392 . S
C273 C274 1.419 . S
C274 C273 1.419 . S
C274 C275 1.391 . S
C274 C278 1.397 . S
C275 C270 1.391 . S
C275 C274 1.391 . S
C275 C276 1.399 . S
C276 C275 1.399 . S
C276 C277 1.396 . S
C276 C279 1.453 . S
C276 C280 1.684 . S
C277 C267 1.723 . S
C277 C276 1.396 . S
C277 C278 1.394 . S
C278 C248 1.723 1_455 S
C278 C274 1.397 . S
C278 C277 1.394 . S
C279 H251 0.982 . S
C279 H255 0.979 . S
C279 H256 0.977 . S
C279 C276 1.453 . S
C280 H252 0.979 . S
C280 H253 0.980 . S
C280 H254 0.983 . S
C280 C276 1.684 . S
H281 C299 0.948 . S
H282 C240 0.948 . S
H283 C258 0.979 . S
H284 C258 0.980 . S
H285 C258 0.983 . S
H286 C257 0.982 1_455 S
H287 C257 0.979 . S
H288 C257 0.977 1_455 S
H289 C259 0.948 . S
H290 C261 0.947 . S
H291 C262 0.948 . S
H292 C268 0.982 . S
H293 C268 0.979 . S
H294 C268 0.977 . S
H295 C269 0.979 . S
H296 C269 0.980 . S
H297 C269 0.983 . S
H298 C242 0.947 . S
C299 C242 1.392 . S
C299 C243 1.419 . S
C299 H281 0.948 . S
C300 C301 1.391 . S
C300 C304 1.391 . S
C300 H342 0.948 . S
C301 C300 1.391 . S
C301 C302 1.391 . S
C302 C301 1.391 . S
C302 H358 0.947 . S
C302 C359 1.392 . S
C303 C304 1.391 . S
C303 C307 1.397 . S
C303 C359 1.419 . S
C304 C300 1.391 . S
C304 C303 1.391 . S
C304 C305 1.399 . S
C305 C304 1.399 . S
C305 C308 1.396 1_565 S
C305 C317 1.453 1_565 S
C305 C318 1.684 . S
H306 C330 0.948 . S
C307 C303 1.397 . S
C307 C308 1.394 1_565 S
C307 C326 1.723 . S
C308 C305 1.396 1_545 S
C308 C307 1.394 1_545 S
C308 C338 1.723 . S
H309 C332 0.947 . S
H310 C333 0.948 . S
H311 C339 0.982 . S
H312 C340 0.979 . S
H313 C340 0.980 . S
H314 C340 0.983 . S
H315 C339 0.979 . S
H316 C339 0.977 . S
C317 C305 1.453 1_545 S
C317 H346 0.982 . S
C317 H347 0.979 . S
C317 H348 0.977 . S
C318 C305 1.684 . S
C318 H343 0.979 . S
C318 H344 0.980 1_565 S
C318 H345 0.983 . S
C319 C320 1.391 1_565 S
C319 C324 1.391 . S
C319 H349 0.948 . S
C320 C319 1.391 1_545 S
C320 C321 1.391 . S
C321 C320 1.391 . S
C321 C322 1.392 . S
C321 H350 0.947 . S
C322 C321 1.392 . S
C322 C323 1.419 . S
C322 H351 0.948 . S
C323 C322 1.419 . S
C323 C324 1.391 1_545 S
C323 C327 1.397 . S
C324 C319 1.391 . S
C324 C323 1.391 1_565 S
C324 C325 1.399 . S
C325 C324 1.399 . S
C325 C326 1.396 . S
C325 C328 1.453 . S
C325 C329 1.684 . S
C326 C307 1.723 . S
C326 C325 1.396 . S
C326 C327 1.394 1_565 S
C327 C323 1.397 . S
C327 C326 1.394 1_545 S
C327 C337 1.723 . S
C328 C325 1.453 . S
C328 H352 0.982 . S
C328 H353 0.979 . S
C328 H354 0.977 . S
C329 C325 1.684 . S
C329 H355 0.979 . S
C329 H356 0.980 . S
C329 H357 0.983 . S
C330 H306 0.948 . S
C330 C331 1.391 . S
C330 C335 1.391 . S
C331 C330 1.391 . S
C331 C332 1.391 . S
C332 H309 0.947 . S
C332 C331 1.391 . S
C332 C333 1.392 . S
C333 H310 0.948 . S
C333 C332 1.392 . S
C333 C334 1.419 . S
C334 C333 1.419 . S
C334 C335 1.391 . S
C334 C338 1.397 . S
C335 C330 1.391 . S
C335 C334 1.391 . S
C335 C336 1.399 . S
C336 C335 1.399 . S
C336 C337 1.396 . S
C336 C339 1.453 . S
C336 C340 1.684 . S
C337 C327 1.723 . S
C337 C336 1.396 . S
C337 C338 1.394 . S
C338 C308 1.723 . S
C338 C334 1.397 . S
C338 C337 1.394 . S
C339 H311 0.982 . S
C339 H315 0.979 . S
C339 H316 0.977 . S
C339 C336 1.453 . S
C340 H312 0.979 . S
C340 H313 0.980 . S
C340 H314 0.983 . S
C340 C336 1.684 . S
H341 C359 0.948 . S
H342 C300 0.948 . S
H343 C318 0.979 . S
H344 C318 0.980 1_545 S
H345 C318 0.983 . S
H346 C317 0.982 . S
H347 C317 0.979 . S
H348 C317 0.977 . S
H349 C319 0.948 . S
H350 C321 0.947 . S
H351 C322 0.948 . S
H352 C328 0.982 . S
H353 C328 0.979 . S
H354 C328 0.977 . S
H355 C329 0.979 . S
H356 C329 0.980 . S
H357 C329 0.983 . S
H358 C302 0.947 . S
C359 C302 1.392 . S
C359 C303 1.419 . S
C359 H341 0.948 . S
C360 C361 1.391 . S
C360 C364 1.391 . S
C360 H402 0.948 . S
C361 C360 1.391 . S
C361 C362 1.391 . S
C362 C361 1.391 . S
C362 H418 0.947 . S
C362 C419 1.392 . S
C363 C364 1.391 . S
C363 C367 1.397 . S
C363 C419 1.419 . S
C364 C360 1.391 . S
C364 C363 1.391 . S
C364 C365 1.399 . S
C365 C364 1.399 . S
C365 C368 1.396 . S
C365 C377 1.453 . S
C365 C378 1.684 . S
H366 C390 0.948 . S
C367 C363 1.397 . S
C367 C368 1.394 . S
C367 C386 1.723 . S
C368 C365 1.396 . S
C368 C367 1.394 . S
C368 C398 1.723 . S
H369 C392 0.947 . S
H370 C393 0.948 . S
H371 C399 0.982 . S
H372 C400 0.979 . S
H373 C400 0.980 . S
H374 C400 0.983 . S
H375 C399 0.979 . S
H376 C399 0.977 . S
C377 C365 1.453 . S
C377 H406 0.982 . S
C377 H407 0.979 . S
C377 H408 0.977 . S
C378 C365 1.684 . S
C378 H403 0.979 . S
C378 H404 0.980 . S
C378 H405 0.983 . S
C379 C380 1.391 1_554 S
C379 C384 1.391 . S
C379 H409 0.948 . S
C380 C379 1.391 1_556 S
C380 C381 1.391 1_556 S
C381 C380 1.391 1_554 S
C381 C382 1.392 . S
C381 H410 0.947 1_554 S
C382 C381 1.392 . S
C382 C383 1.419 . S
C382 H411 0.948 . S
C383 C382 1.419 . S
C383 C384 1.391 . S
C383 C387 1.397 . S
C384 C379 1.391 . S
C384 C383 1.391 . S
C384 C385 1.399 . S
C385 C384 1.399 . S
C385 C386 1.396 . S
C385 C388 1.453 . S
C385 C389 1.684 . S
C386 C367 1.723 . S
C386 C385 1.396 . S
C386 C387 1.394 . S
C387 C383 1.397 . S
C387 C386 1.394 . S
C387 C397 1.723 . S
C388 C385 1.453 . S
C388 H412 0.982 . S
C388 H413 0.979 . S
C388 H414 0.977 . S
C389 C385 1.684 . S
C389 H415 0.979 . S
C389 H416 0.980 . S
C389 H417 0.983 . S
C390 H366 0.948 . S
C390 C391 1.391 . S
C390 C395 1.391 . S
C391 C390 1.391 . S
C391 C392 1.391 . S
C392 H369 0.947 . S
C392 C391 1.391 . S
C392 C393 1.392 . S
C393 H370 0.948 . S
C393 C392 1.392 . S
C393 C394 1.419 . S
C394 C393 1.419 . S
C394 C395 1.391 . S
C394 C398 1.397 . S
C395 C390 1.391 . S
C395 C394 1.391 . S
C395 C396 1.399 . S
C396 C395 1.399 . S
C396 C397 1.396 . S
C396 C399 1.453 . S
C396 C400 1.684 . S
C397 C387 1.723 . S
C397 C396 1.396 . S
C397 C398 1.394 . S
C398 C368 1.723 . S
C398 C394 1.397 . S
C398 C397 1.394 . S
C399 H371 0.982 . S
C399 H375 0.979 . S
C399 H376 0.977 . S
C399 C396 1.453 . S
C400 H372 0.979 . S
C400 H373 0.980 . S
C400 H374 0.983 . S
C400 C396 1.684 . S
H401 C419 0.948 . S
H402 C360 0.948 . S
H403 C378 0.979 . S
H404 C378 0.980 . S
H405 C378 0.983 . S
H406 C377 0.982 . S
H407 C377 0.979 . S
H408 C377 0.977 . S
H409 C379 0.948 . S
H410 C381 0.947 1_556 S
H411 C382 0.948 . S
H412 C388 0.982 . S
H413 C388 0.979 . S
H414 C388 0.977 . S
H415 C389 0.979 . S
H416 C389 0.980 . S
H417 C389 0.983 . S
H418 C362 0.947 . S
C419 C362 1.392 . S
C419 C363 1.419 . S
C419 H401 0.948 . S
C420 C421 1.369 . S
C420 C422 1.419 . S
C420 H424 0.930 . S
C421 C420 1.369 . S
C421 C430 1.429 . S
C422 C420 1.419 . S
C422 C423 1.363 . S
C422 H425 0.929 . S
C423 C422 1.363 . S
C423 C429 1.428 . S
H424 C420 0.930 . S
H425 C422 0.929 . S
S426 N427 1.613 . S
S426 N428 1.610 . S
N427 S426 1.613 . S
N427 C430 1.350 . S
N428 S426 1.610 . S
N428 C429 1.351 . S
C429 C423 1.428 . S
C429 N428 1.351 . S
C429 C430 1.434 . S
C430 C421 1.429 . S
C430 N427 1.350 . S
C430 C429 1.434 . S
C431 C432 1.369 . S
C431 C433 1.419 . S
C431 H435 0.930 . S
C432 C431 1.369 . S
C432 C441 1.429 . S
C433 C431 1.419 . S
C433 C434 1.363 . S
C433 H436 0.929 . S
C434 C433 1.363 . S
C434 C440 1.428 . S
H435 C431 0.930 . S
H436 C433 0.929 . S
S437 N438 1.613 . S
S437 N439 1.610 . S
N438 S437 1.613 . S
N438 C441 1.350 . S
N439 S437 1.610 . S
N439 C440 1.351 . S
C440 C434 1.428 . S
C440 N439 1.351 . S
C440 C441 1.434 . S
C441 C432 1.429 . S
C441 N438 1.350 . S
C441 C440 1.434 . S
C442 C443 1.369 . S
C442 C444 1.419 . S
C442 H446 0.930 . S
C443 C442 1.369 . S
C443 C452 1.429 . S
C444 C442 1.419 . S
C444 C445 1.363 . S
C444 H447 0.929 . S
C445 C444 1.363 . S
C445 C451 1.428 . S
H446 C442 0.930 . S
H447 C444 0.929 . S
S448 N449 1.613 . S
S448 N450 1.610 . S
N449 S448 1.613 . S
N449 C452 1.350 . S
N450 S448 1.610 . S
N450 C451 1.351 . S
C451 C445 1.428 . S
C451 N450 1.351 . S
C451 C452 1.434 . S
C452 C443 1.429 . S
C452 N449 1.350 . S
C452 C451 1.434 . S
C453 C454 1.369 . S
C453 C455 1.419 . S
C453 H457 0.930 . S
C454 C453 1.369 . S
C454 C463 1.429 . S
C455 C453 1.419 . S
C455 C456 1.363 . S
C455 H458 0.929 . S
C456 C455 1.363 . S
C456 C462 1.428 . S
H457 C453 0.930 . S
H458 C455 0.929 . S
S459 N460 1.613 . S
S459 N461 1.610 . S
N460 S459 1.613 . S
N460 C463 1.350 . S
N461 S459 1.610 . S
N461 C462 1.351 . S
C462 C456 1.428 . S
C462 N461 1.351 . S
C462 C463 1.434 . S
C463 C454 1.429 . S
C463 N460 1.350 . S
C463 C462 1.434 . S
C464 C465 1.369 . S
C464 C466 1.419 . S
C464 H468 0.930 . S
C465 C464 1.369 . S
C465 C474 1.429 . S
C466 C464 1.419 . S
C466 C467 1.363 . S
C466 H469 0.929 . S
C467 C466 1.363 . S
C467 C473 1.428 . S
H468 C464 0.930 . S
H469 C466 0.929 . S
S470 N471 1.613 . S
S470 N472 1.610 . S
N471 S470 1.613 . S
N471 C474 1.350 . S
N472 S470 1.610 . S
N472 C473 1.351 . S
C473 C467 1.428 . S
C473 N472 1.351 . S
C473 C474 1.434 . S
C474 C465 1.429 . S
C474 N471 1.350 . S
C474 C473 1.434 . S
C475 C476 1.369 . S
C475 C477 1.419 . S
C475 H479 0.930 . S
C476 C475 1.369 . S
C476 C485 1.429 . S
C477 C475 1.419 . S
C477 C478 1.363 . S
C477 H480 0.929 . S
C478 C477 1.363 . S
C478 C484 1.428 . S
H479 C475 0.930 . S
H480 C477 0.929 . S
S481 N482 1.613 . S
S481 N483 1.610 . S
N482 S481 1.613 . S
N482 C485 1.350 . S
N483 S481 1.610 . S
N483 C484 1.351 . S
C484 C478 1.428 . S
C484 N483 1.351 . S
C484 C485 1.434 . S
C485 C476 1.429 . S
C485 N482 1.350 . S
C485 C484 1.434 . S
C486 C487 1.369 . S
C486 C488 1.419 . S
C486 H490 0.930 . S
C487 C486 1.369 . S
C487 C496 1.429 . S
C488 C486 1.419 . S
C488 C489 1.363 . S
C488 H491 0.929 . S
C489 C488 1.363 . S
C489 C495 1.428 . S
H490 C486 0.930 . S
H491 C488 0.929 . S
S492 N493 1.613 . S
S492 N494 1.610 . S
N493 S492 1.613 . S
N493 C496 1.350 . S
N494 S492 1.610 . S
N494 C495 1.351 . S
C495 C489 1.428 . S
C495 N494 1.351 . S
C495 C496 1.434 . S
C496 C487 1.429 . S
C496 N493 1.350 . S
C496 C495 1.434 . S
C497 C498 1.369 . S
C497 C499 1.419 . S
C497 H501 0.930 . S
C498 C497 1.369 . S
C498 C507 1.429 . S
C499 C497 1.419 . S
C499 C500 1.363 . S
C499 H502 0.929 . S
C500 C499 1.363 . S
C500 C506 1.428 . S
H501 C497 0.930 . S
H502 C499 0.929 . S
S503 N504 1.613 . S
S503 N505 1.610 . S
N504 S503 1.613 . S
N504 C507 1.350 . S
N505 S503 1.610 . S
N505 C506 1.351 . S
C506 C500 1.428 . S
C506 N505 1.351 . S
C506 C507 1.434 . S
C507 C498 1.429 . S
C507 N504 1.350 . S
C507 C506 1.434 . S
C508 C509 1.369 . S
C508 C510 1.419 . S
C508 H512 0.930 . S
C509 C508 1.369 . S
C509 C518 1.429 . S
C510 C508 1.419 . S
C510 C511 1.363 . S
C510 H513 0.929 . S
C511 C510 1.363 . S
C511 C517 1.428 . S
H512 C508 0.930 . S
H513 C510 0.929 . S
S514 N515 1.613 . S
S514 N516 1.610 . S
N515 S514 1.613 . S
N515 C518 1.350 . S
N516 S514 1.610 . S
N516 C517 1.351 . S
C517 C511 1.428 . S
C517 N516 1.351 . S
C517 C518 1.434 . S
C518 C509 1.429 . S
C518 N515 1.350 . S
C518 C517 1.434 . S
C519 C520 1.369 . S
C519 C521 1.419 . S
C519 H523 0.930 . S
C520 C519 1.369 . S
C520 C529 1.429 . S
C521 C519 1.419 . S
C521 C522 1.363 . S
C521 H524 0.929 . S
C522 C521 1.363 . S
C522 C528 1.428 . S
H523 C519 0.930 . S
H524 C521 0.929 . S
S525 N526 1.613 . S
S525 N527 1.610 . S
N526 S525 1.613 . S
N526 C529 1.350 . S
N527 S525 1.610 . S
N527 C528 1.351 . S
C528 C522 1.428 . S
C528 N527 1.351 . S
C528 C529 1.434 . S
C529 C520 1.429 . S
C529 N526 1.350 . S
C529 C528 1.434 . S
C530 C531 1.369 . S
C530 C532 1.419 . S
C530 H534 0.930 . S
C531 C530 1.369 . S
C531 C540 1.429 . S
C532 C530 1.419 . S
C532 C533 1.363 . S
C532 H535 0.929 . S
C533 C532 1.363 . S
C533 C539 1.428 . S
H534 C530 0.930 . S
H535 C532 0.929 . S
S536 N537 1.613 . S
S536 N538 1.610 . S
N537 S536 1.613 . S
N537 C540 1.350 . S
N538 S536 1.610 . S
N538 C539 1.351 . S
C539 C533 1.428 . S
C539 N538 1.351 . S
C539 C540 1.434 . S
C540 C531 1.429 . S
C540 N537 1.350 . S
C540 C539 1.434 . S
C541 C542 1.369 . S
C541 C543 1.419 . S
C541 H545 0.930 . S
C542 C541 1.369 . S
C542 C551 1.429 . S
C543 C541 1.419 . S
C543 C544 1.363 . S
C543 H546 0.929 . S
C544 C543 1.363 . S
C544 C550 1.428 . S
H545 C541 0.930 . S
H546 C543 0.929 . S
S547 N548 1.613 . S
S547 N549 1.610 . S
N548 S547 1.613 . S
N548 C551 1.350 . S
N549 S547 1.610 . S
N549 C550 1.351 . S
C550 C544 1.428 . S
C550 N549 1.351 . S
C550 C551 1.434 . S
C551 C542 1.429 . S
C551 N548 1.350 . S
C551 C550 1.434 . S
C552 C553 1.369 . S
C552 C554 1.419 . S
C552 H556 0.930 . S
C553 C552 1.369 . S
C553 C562 1.429 . S
C554 C552 1.419 . S
C554 C555 1.363 . S
C554 H557 0.929 . S
C555 C554 1.363 . S
C555 C561 1.428 . S
H556 C552 0.930 . S
H557 C554 0.929 . S
S558 N559 1.613 . S
S558 N560 1.610 . S
N559 S558 1.613 . S
N559 C562 1.350 . S
N560 S558 1.610 . S
N560 C561 1.351 . S
C561 C555 1.428 . S
C561 N560 1.351 . S
C561 C562 1.434 . S
C562 C553 1.429 . S
C562 N559 1.350 . S
C562 C561 1.434 . S
C563 C564 1.369 . S
C563 C565 1.419 . S
C563 H567 0.930 . S
C564 C563 1.369 . S
C564 C573 1.429 . S
C565 C563 1.419 . S
C565 C566 1.363 . S
C565 H568 0.929 . S
C566 C565 1.363 . S
C566 C572 1.428 . S
H567 C563 0.930 . S
H568 C565 0.929 . S
S569 N570 1.613 . S
S569 N571 1.610 . S
N570 S569 1.613 . S
N570 C573 1.350 . S
N571 S569 1.610 . S
N571 C572 1.351 . S
C572 C566 1.428 . S
C572 N571 1.351 . S
C572 C573 1.434 . S
C573 C564 1.429 . S
C573 N570 1.350 . S
C573 C572 1.434 . S
C574 C575 1.369 . S
C574 C576 1.419 . S
C574 H578 0.930 . S
C575 C574 1.369 . S
C575 C584 1.429 . S
C576 C574 1.419 . S
C576 C577 1.363 . S
C576 H579 0.929 . S
C577 C576 1.363 . S
C577 C583 1.428 . S
H578 C574 0.930 . S
H579 C576 0.929 . S
S580 N581 1.613 . S
S580 N582 1.610 . S
N581 S580 1.613 . S
N581 C584 1.350 . S
N582 S580 1.610 . S
N582 C583 1.351 . S
C583 C577 1.428 . S
C583 N582 1.351 . S
C583 C584 1.434 . S
C584 C575 1.429 . S
C584 N581 1.350 . S
C584 C583 1.434 . S
C585 C586 1.369 1_565 S
C585 C587 1.419 . S
C585 H589 0.930 . S
C586 C585 1.369 1_545 S
C586 C595 1.429 . S
C587 C585 1.419 . S
C587 C588 1.363 1_565 S
C587 H590 0.929 . S
C588 C587 1.363 1_545 S
C588 C594 1.428 . S
H589 C585 0.930 . S
H590 C587 0.929 . S
S591 N592 1.613 . S
S591 N593 1.610 . S
N592 S591 1.613 . S
N592 C595 1.350 . S
N593 S591 1.610 . S
N593 C594 1.351 . S
C594 C588 1.428 . S
C594 N593 1.351 . S
C594 C595 1.434 . S
C595 C586 1.429 . S
C595 N592 1.350 . S
C595 C594 1.434 . S
C596 C597 1.369 . S
C596 C598 1.419 . S
C596 H600 0.930 . S
C597 C596 1.369 . S
C597 C606 1.429 . S
C598 C596 1.419 . S
C598 C599 1.363 . S
C598 H601 0.929 . S
C599 C598 1.363 . S
C599 C605 1.428 . S
H600 C596 0.930 . S
H601 C598 0.929 . S
S602 N603 1.613 . S
S602 N604 1.610 . S
N603 S602 1.613 . S
N603 C606 1.350 . S
N604 S602 1.610 . S
N604 C605 1.351 . S
C605 C599 1.428 . S
C605 N604 1.351 . S
C605 C606 1.434 . S
C606 C597 1.429 . S
C606 N603 1.350 . S
C606 C605 1.434 . S
C607 C608 1.369 1_655 S
C607 C609 1.419 . S
C607 H611 0.930 . S
C608 C607 1.369 1_455 S
C608 C617 1.429 . S
C609 C607 1.419 . S
C609 C610 1.352 1_655 S
C609 H612 0.929 . S
C610 C609 1.352 1_455 S
C610 C616 1.443 . S
H611 C607 0.930 . S
H612 C609 0.929 . S
S613 N614 1.613 . S
S613 N615 1.610 . S
N614 S613 1.613 . S
N614 C617 1.350 . S
N615 S613 1.610 . S
N615 C616 1.351 . S
C616 C610 1.443 . S
C616 N615 1.351 . S
C616 C617 1.434 . S
C617 C608 1.429 . S
C617 N614 1.350 . S
C617 C616 1.434 . S
C421 C8 2.058 . S
C423 C391 2.183 . S
C432 C26 1.415 . S
C434 C241 1.330 . S
C443 C48 1.578 . S
C445 C301 1.510 . S
C454 C19 1.953 . S
C456 C361 1.839 . S
C467 C271 1.626 . S
C465 C36 1.575 . S
C478 C331 1.891 . S
C476 C59 1.819 . S
C487 C28 1.599 . S
C489 C121 1.520 . S
C498 C46 1.291 . S
C500 C211 1.329 . S
C509 C16 1.649 . S
C511 C91 1.706 . S
C522 C151 1.847 . S
C520 C39 1.793 . S
C533 C181 1.049 . S
C531 C56 1.104 . S
C542 C6 1.481 . S
C544 C61 1.397 . S
C555 C200 1.461 . S
C553 C9 1.412 . S
C564 C21 1.518 . S
C566 C80 1.493 . S
C575 C49 1.487 . S
C577 C140 1.460 . S
C588 C320 1.436 . S
C586 C29 1.478 . S
C599 C380 1.581 . S
C597 C41 1.576 . S
C608 C1 1.506 . S
C610 C260 1.487 . S
