# Generated by pormake.
# Topology rtl, (3,6)-cn, num edge types: 1
# Building blocks:
#     Node 0, Type 0, BuildingBlock: BETDAH_clean_linker_0, # of connection points: 3
#     Node 1, Type 0, BuildingBlock: BETDAH_clean_linker_0, # of connection points: 3
#     Node 2, Type 0, BuildingBlock: BETDAH_clean_linker_0, # of connection points: 3
#     Node 3, Type 0, BuildingBlock: BETDAH_clean_linker_0, # of connection points: 3
#     Node 4, Type 1, BuildingBlock: KUMBOL_clean_sbu_1, # of connection points: 6
#     Node 5, Type 1, BuildingBlock: KUMBOL_clean_sbu_1, # of connection points: 6
#     Edge 6, Type (0, 1), BuildingBlock: XIVTED_clean_linker_0, # of connection points: 2
#     Edge 7, Type (0, 1), BuildingBlock: XIVTED_clean_linker_0, # of connection points: 2
#     Edge 8, Type (0, 1), BuildingBlock: XIVTED_clean_linker_0, # of connection points: 2
#     Edge 9, Type (0, 1), BuildingBlock: XIVTED_clean_linker_0, # of connection points: 2
#     Edge 10, Type (0, 1), BuildingBlock: XIVTED_clean_linker_0, # of connection points: 2
#     Edge 11, Type (0, 1), BuildingBlock: XIVTED_clean_linker_0, # of connection points: 2
#     Edge 12, Type (0, 1), BuildingBlock: XIVTED_clean_linker_0, # of connection points: 2
#     Edge 13, Type (0, 1), BuildingBlock: XIVTED_clean_linker_0, # of connection points: 2
#     Edge 14, Type (0, 1), BuildingBlock: XIVTED_clean_linker_0, # of connection points: 2
#     Edge 15, Type (0, 1), BuildingBlock: XIVTED_clean_linker_0, # of connection points: 2
#     Edge 16, Type (0, 1), BuildingBlock: XIVTED_clean_linker_0, # of connection points: 2
#     Edge 17, Type (0, 1), BuildingBlock: XIVTED_clean_linker_0, # of connection points: 2
# Relax obj value: 0.049
# Max RMSD: 0.218
# Mean RMSD: 0.157
data_MOF--net-rtl--node1-KUMBOL_clean_sbu_1--node2-BETDAH_clean_linker_0--edge1-XIVTED_clean_linker_0
_symmetry_space_group_name_H-M    P1
_symmetry_Int_Tables_number       1
_symmetry_cell_setting            triclinic
loop_
_symmetry_equiv_pos_as_xyz
'x, y, z'
_cell_length_a     35.729185
_cell_length_b     35.761697
_cell_length_c     27.471558
_cell_angle_alpha  78.489526
_cell_angle_beta   101.02609
_cell_angle_gamma 91.007154
loop_
_atom_site_label
_atom_site_type_symbol
_atom_site_fract_x
_atom_site_fract_y
_atom_site_fract_z
_atom_type_partial_charge
H0 H 0.156 0.89991 0.98895 0.0
H1 H 0.23313 0.83319 0.11425 0.0
H2 H 0.24053 0.82632 0.96175 0.0
C3 C 0.17974 0.87975 0.00346 0.0
C4 C 0.19714 0.8651 0.96929 0.0
C5 C 0.19201 0.86813 0.05584 0.0
C6 C 0.22249 0.84173 0.07388 0.0
C7 C 0.23988 0.82626 0.04053 0.0
C8 C 0.22683 0.83756 0.98789 0.0
N9 N 0.27159 0.80105 0.06199 0.0
C10 C 0.2863 0.77478 0.03914 0.0
H11 H 0.62755 0.6547 0.63421 0.0
H12 H 0.72216 0.71792 0.5853 0.0
H13 H 0.71382 0.69475 0.74241 0.0
C14 C 0.65311 0.67087 0.64248 0.0
C15 C 0.66764 0.6736 0.69278 0.0
C16 C 0.67255 0.68648 0.60333 0.0
C17 C 0.70669 0.70607 0.61492 0.0
C18 C 0.7214 0.70908 0.6653 0.0
C19 C 0.70203 0.69249 0.70373 0.0
N20 N 0.75679 0.72629 0.67976 0.0
C21 C 0.77303 0.75563 0.64975 0.0
H22 H 0.86425 0.12235 0.09435 0.0
H23 H 0.77786 0.19128 0.12615 0.0
H24 H 0.78244 0.18655 0.97217 0.0
C25 C 0.83965 0.14154 0.08091 0.0
C26 C 0.826 0.1532 0.02875 0.0
C27 C 0.82239 0.15488 0.11623 0.0
C28 C 0.7915 0.18115 0.09909 0.0
C29 C 0.77706 0.19237 0.0468 0.0
C30 C 0.79423 0.17814 0.01225 0.0
N31 N 0.74401 0.21602 0.02705 0.0
C32 C 0.73038 0.2428 0.05009 0.0
H33 H 0.38703 0.36564 0.45662 0.0
H34 H 0.29521 0.29885 0.5079 0.0
H35 H 0.3021 0.32205 0.35028 0.0
C36 C 0.36203 0.34856 0.44895 0.0
C37 C 0.34749 0.34514 0.3989 0.0
C38 C 0.34337 0.33227 0.48864 0.0
C39 C 0.31002 0.31134 0.47783 0.0
C40 C 0.29529 0.30764 0.42771 0.0
C41 C 0.31385 0.32493 0.38874 0.0
N42 N 0.26082 0.28864 0.41412 0.0
C43 C 0.24581 0.25905 0.44528 0.0
C44 C 0.93751 0.11653 0.50141 0.0
C45 C 0.87332 0.09679 0.47156 0.0
C46 C 0.91022 0.08832 0.50096 0.0
C47 C 0.86466 0.13343 0.44173 0.0
C48 C 0.92879 0.15347 0.47193 0.0
C49 C 0.89229 0.1617 0.44195 0.0
N50 N 0.97303 0.10742 0.52937 0.0
C51 C 1.00069 0.13413 0.5311 0.0
C52 C 0.95724 0.18089 0.47288 0.0
C53 C 0.99329 0.17121 0.50278 0.0
Gd54 Gd 0.0318 0.97158 0.5098 0.0
Gd55 Gd 0.98309 0.04455 0.57491 0.0
N56 N 0.91969 0.05277 0.52938 0.0
C57 C 0.84598 0.06834 0.47361 0.0
C58 C 0.89211 0.02622 0.53486 0.0
C59 C 0.85524 0.03315 0.50617 0.0
H60 H 0.89767 1.00023 0.56264 0.0
H61 H 0.83375 0.01161 0.51001 0.0
H62 H 0.1188 0.00644 0.5485 0.0
H63 H 0.02831 0.12697 0.55481 0.0
H64 H 0.17956 0.9834 0.60419 0.0
H65 H 0.81732 0.0737 0.45163 0.0
H66 H 0.83654 0.1403 0.41866 0.0
H67 H 0.97807 0.89451 0.50353 0.0
H68 H 0.95167 0.20958 0.45074 0.0
H69 H 0.01538 0.19229 0.5041 0.0
H70 H 0.16175 0.84941 0.65871 0.0
H71 H 0.88515 0.18984 0.4188 0.0
H72 H 0.04137 0.79743 0.5977 0.0
H73 H 0.98207 0.82553 0.54079 0.0
N74 N 0.03356 0.90554 0.54096 0.0
C75 C 0.06679 0.89056 0.571 0.0
C76 C 0.00358 0.88268 0.52943 0.0
C77 C 0.03958 0.82777 0.58185 0.0
C78 C 0.00601 0.84354 0.5499 0.0
C79 C 0.07058 0.85126 0.59259 0.0
H80 H 0.10838 0.8066 0.64131 0.0
N81 N 0.09195 0.95278 0.56065 0.0
C82 C 0.09693 0.91479 0.58085 0.0
C83 C 0.16134 0.92535 0.62148 0.0
C84 C 0.13159 0.90018 0.61245 0.0
C85 C 0.12153 0.97704 0.56738 0.0
C86 C 0.1564 0.96386 0.59841 0.0
O87 O 0.98312 0.05892 0.49063 0.0
O88 O 0.97633 1.00089 0.46748 0.0
O89 O 0.06461 0.98796 0.45042 0.0
O90 O 0.03075 0.9372 0.45266 0.0
O91 O 0.96571 0.98231 0.58681 0.0
O92 O 0.96956 0.96263 0.5128 0.0
O93 O 0.03709 0.95716 0.59499 0.0
O94 O 0.0379 0.01495 0.61996 0.0
O95 O 0.95131 0.03614 0.63603 0.0
O96 O 0.98796 0.08448 0.62585 0.0
O97 O 0.05405 0.03215 0.50359 0.0
O98 O 0.04526 0.05547 0.57377 0.0
C99 C 0.96947 0.0378 0.45772 0.0
C100 C 0.95553 0.95955 0.55436 0.0
C101 C 0.03973 0.97024 0.37278 0.0
C102 C 0.04897 0.96589 0.28832 0.0
C103 C 0.99628 0.00393 0.29876 0.0
C104 C 0.00773 0.99417 0.35127 0.0
C105 C 0.01674 0.98996 0.26737 0.0
C106 C 0.06022 0.95615 0.34133 0.0
C107 C 0.05245 0.96004 0.42788 0.0
C108 C 0.13539 0.86108 0.63417 0.0
C109 C 0.10499 0.83669 0.62427 0.0
H110 H 0.18837 0.91527 0.64561 0.0
C111 C 0.04784 0.97868 0.6284 0.0
C112 C 0.06277 0.05551 0.53564 0.0
C113 C 0.98043 0.05803 0.709 0.0
C114 C 0.97128 0.0622 0.79358 0.0
C115 C 0.02827 0.03116 0.78246 0.0
C116 C 0.01537 0.03876 0.73015 0.0
C117 C 0.0064 0.04272 0.81409 0.0
C118 C 0.95851 0.06978 0.74073 0.0
C119 C 0.96607 0.06522 0.6541 0.0
H120 H 0.97148 0.02236 0.28235 0.0
H121 H 0.99177 0.00531 0.37504 0.0
H122 H 0.00708 0.99763 0.22676 0.0
H123 H 0.08529 0.93811 0.35823 0.0
H124 H 0.05531 0.01629 0.79853 0.0
H125 H 0.03256 0.02959 0.70626 0.0
H126 H 0.0172 0.03685 0.85453 0.0
H127 H 0.93126 0.08423 0.72427 0.0
C128 C 0.63073 0.55269 0.06877 0.0
C129 C 0.62413 0.61696 0.0179 0.0
C130 C 0.60828 0.58513 0.0455 0.0
C131 C 0.6627 0.61574 0.01399 0.0
C132 C 0.66943 0.55137 0.06479 0.0
C133 C 0.68527 0.58307 0.03735 0.0
N134 N 0.61445 0.52206 0.09406 0.0
C135 C 0.63541 0.48977 0.11761 0.0
C136 C 0.69097 0.51805 0.0881 0.0
C137 C 0.6739 0.48718 0.11477 0.0
Gd138 Gd 0.46841 0.4872 0.99859 0.0
Gd139 Gd 0.54978 0.52909 0.09583 0.0
N140 N 0.57059 0.58493 0.04824 0.0
C141 C 0.60065 0.64895 0.99464 0.0
C142 C 0.54801 0.61663 0.02743 0.0
C143 C 0.56253 0.64889 0.99982 0.0
H144 H 0.51896 0.61753 0.03241 0.0
H145 H 0.54436 0.67379 0.98282 0.0
H146 H 0.50255 0.39821 0.05666 0.0
H147 H 0.62258 0.4662 0.13928 0.0
H148 H 0.48059 0.3407 0.10761 0.0
H149 H 0.61174 0.67394 0.97303 0.0
H150 H 0.67532 0.63989 0.99278 0.0
H151 H 0.39361 0.54793 0.96178 0.0
H152 H 0.72078 0.51592 0.08587 0.0
H153 H 0.69041 0.46144 0.13329 0.0
H154 H 0.35048 0.37036 0.10891 0.0
H155 H 0.71493 0.58253 0.03378 0.0
H156 H 0.29945 0.49372 0.02103 0.0
H157 H 0.32663 0.55 0.97254 0.0
N158 N 0.40442 0.49171 0.00521 0.0
C159 C 0.38989 0.4601 0.031 0.0
C160 C 0.38219 0.52355 0.98382 0.0
C161 C 0.32889 0.49273 0.01662 0.0
C162 C 0.34416 0.52463 0.98939 0.0
C163 C 0.35174 0.45992 0.03778 0.0
H164 H 0.30859 0.42671 0.07164 0.0
N165 N 0.45084 0.4298 0.04669 0.0
C166 C 0.4137 0.42826 0.05226 0.0
C167 C 0.4243 0.36398 0.10127 0.0
C168 C 0.39966 0.39549 0.08046 0.0
C169 C 0.47433 0.39842 0.06468 0.0
C170 C 0.46164 0.36532 0.09285 0.0
O171 O 0.56032 0.52886 0.01704 0.0
O172 O 0.50135 0.53693 0.96447 0.0
O173 O 0.47266 0.4475 0.94954 0.0
O174 O 0.43039 0.49315 0.92532 0.0
O175 O 0.49052 0.55649 0.07535 0.0
O176 O 0.465 0.55087 0.99314 0.0
O177 O 0.4579 0.48908 0.07708 0.0
O178 O 0.51687 0.47909 0.12898 0.0
O179 O 0.54325 0.56935 0.14324 0.0
O180 O 0.58624 0.52442 0.17 0.0
O181 O 0.52818 0.46103 0.01743 0.0
O182 O 0.55238 0.46557 0.10023 0.0
C183 C 0.53858 0.54034 0.97234 0.0
C184 C 0.46597 0.56704 0.0324 0.0
C185 C 0.4557 0.47167 0.86223 0.0
C186 C 0.45058 0.45362 0.78007 0.0
C187 C 0.49188 0.50522 0.80136 0.0
C188 C 0.48162 0.49989 0.84873 0.0
C189 C 0.47661 0.4822 0.76725 0.0
C190 C 0.44003 0.44871 0.82776 0.0
C191 C 0.44622 0.46482 0.91296 0.0
C192 C 0.36166 0.39523 0.08718 0.0
C193 C 0.33778 0.42733 0.06591 0.0
H194 H 0.41462 0.3383 0.12321 0.0
C195 C 0.47958 0.47657 0.12154 0.0
C196 C 0.55267 0.45045 0.06041 0.0
C197 C 0.55901 0.54659 0.23099 0.0
C198 C 0.56372 0.5651 0.31278 0.0
C199 C 0.52118 0.51458 0.29073 0.0
C200 C 0.53214 0.51924 0.24383 0.0
C201 C 0.53673 0.5374 0.325 0.0
C202 C 0.57493 0.56933 0.26558 0.0
C203 C 0.5694 0.55281 0.18084 0.0
H204 H 0.51189 0.52711 0.79117 0.0
H205 H 0.49408 0.51752 0.87498 0.0
H206 H 0.48492 0.48697 0.73063 0.0
H207 H 0.42042 0.42651 0.83855 0.0
H208 H 0.50044 0.49334 0.30045 0.0
H209 H 0.51949 0.50179 0.21743 0.0
H210 H 0.52788 0.53315 0.36124 0.0
H211 H 0.59529 0.59088 0.25524 0.0
H212 H 0.23766 0.19297 0.41333 0.0
H213 H 0.09402 0.10581 0.59569 0.0
H214 H 0.20709 0.25166 0.52303 0.0
H215 H 0.10226 0.06862 0.45781 0.0
H216 H 0.14245 0.1535 0.57893 0.0
H217 H 0.19617 0.14062 0.43962 0.0
C218 C 0.22261 0.19438 0.44366 0.0
C219 C 0.22573 0.22626 0.46637 0.0
C220 C 0.13363 0.13482 0.55247 0.0
C221 C 0.17782 0.16702 0.49614 0.0
C222 C 0.10588 0.10763 0.56187 0.0
C223 C 0.09341 0.08348 0.52766 0.0
C224 C 0.14956 0.13747 0.50901 0.0
C225 C 0.11056 0.08674 0.48509 0.0
C226 C 0.19876 0.1647 0.4584 0.0
C227 C 0.20546 0.22722 0.50499 0.0
N228 N 0.13764 0.1132 0.47701 0.0
N229 N 0.18215 0.19799 0.51865 0.0
H230 H 0.31976 0.77098 0.95844 0.0
H231 H 0.43741 0.5833 0.11061 0.0
H232 H 0.30006 0.70722 0.10143 0.0
H233 H 0.42882 0.61834 0.94917 0.0
H234 H 0.3901 0.63222 0.10795 0.0
H235 H 0.36172 0.71836 0.95297 0.0
C236 C 0.32379 0.74559 0.98809 0.0
C237 C 0.30651 0.74296 0.03029 0.0
C238 C 0.39836 0.62922 0.07296 0.0
C239 C 0.35467 0.68375 0.02511 0.0
C240 C 0.42562 0.60145 0.07453 0.0
C241 C 0.43713 0.59685 0.03006 0.0
C242 C 0.38275 0.65318 0.02668 0.0
C243 C 0.42058 0.62096 0.98429 0.0
C244 C 0.34771 0.71574 0.9851 0.0
C245 C 0.31282 0.71 0.06817 0.0
N246 N 0.39438 0.64839 0.98378 0.0
N247 N 0.33665 0.68185 0.06495 0.0
H248 H 0.79571 0.81307 0.6963 0.0
H249 H 0.91324 0.91807 0.4894 0.0
H250 H 0.80067 0.77034 0.56173 0.0
H251 H 0.93135 0.93451 0.64355 0.0
H252 H 0.86625 0.86933 0.50933 0.0
H253 H 0.83849 0.8643 0.67083 0.0
C254 C 0.80555 0.81491 0.66095 0.0
C255 C 0.79478 0.78784 0.63086 0.0
C256 C 0.88065 0.88358 0.53872 0.0
C257 C 0.84405 0.84591 0.60166 0.0
C258 C 0.90765 0.91123 0.52751 0.0
C259 C 0.92682 0.93002 0.56509 0.0
C260 C 0.87226 0.87518 0.58759 0.0
C261 C 0.91752 0.92072 0.61339 0.0
C262 C 0.83013 0.84394 0.64657 0.0
C263 C 0.80837 0.79101 0.58567 0.0
N264 N 0.89094 0.89408 0.62316 0.0
N265 N 0.83247 0.81961 0.57235 0.0
H266 H 0.69485 0.24491 0.12922 0.0
H267 H 0.58512 0.43829 0.98329 0.0
H268 H 0.72101 0.31245 0.99203 0.0
H269 H 0.58709 0.39661 0.14231 0.0
H270 H 0.63279 0.3897 0.98562 0.0
H271 H 0.65406 0.29792 0.13603 0.0
C272 C 0.69253 0.27122 0.10122 0.0
C273 C 0.71125 0.27479 0.06021 0.0
C274 C 0.62303 0.3912 0.02017 0.0
C275 C 0.66438 0.33454 0.06681 0.0
C276 C 0.5956 0.41877 0.01875 0.0
C277 C 0.58209 0.42132 0.06263 0.0
C278 C 0.6367 0.36538 0.06563 0.0
C279 C 0.59692 0.39556 0.10769 0.0
C280 C 0.66926 0.30131 0.10495 0.0
C281 C 0.7071 0.30893 0.02436 0.0
N282 N 0.62324 0.36833 0.10798 0.0
N283 N 0.68382 0.33735 0.02818 0.0
H284 H 0.16736 0.94166 0.04856 0.0
H285 H 0.07923 0.89386 0.30054 0.0
H286 H 0.17273 0.82959 0.1442 0.0
H287 H 0.06887 0.00429 0.20037 0.0
H288 H 0.11565 0.87037 0.24561 0.0
H289 H 0.13316 0.96559 0.10536 0.0
C290 C 0.16126 0.92203 0.08145 0.0
C291 C 0.17279 0.88347 0.09143 0.0
C292 C 0.10542 0.89974 0.23563 0.0
C293 C 0.13387 0.91083 0.15701 0.0
C294 C 0.08478 0.91324 0.26713 0.0
C295 C 0.07093 0.95113 0.25507 0.0
C296 C 0.11241 0.9243 0.19173 0.0
C297 C 0.07854 0.97475 0.21085 0.0
C298 C 0.14186 0.93577 0.11401 0.0
C299 C 0.16472 0.85959 0.13521 0.0
N300 N 0.09878 0.96097 0.18085 0.0
N301 N 0.14567 0.87363 0.16627 0.0
H302 H 0.59082 0.67353 0.69334 0.0
H303 H 0.61343 0.53542 0.96559 0.0
H304 H 0.69908 0.63137 0.786 0.0
H305 H 0.50623 0.58891 0.88392 0.0
H306 H 0.6447 0.56899 0.89863 0.0
H307 H 0.55871 0.64121 0.76081 0.0
C308 C 0.60784 0.65746 0.72785 0.0
C309 C 0.64774 0.6552 0.73401 0.0
C310 C 0.61433 0.57343 0.8952 0.0
C311 C 0.61117 0.61822 0.81142 0.0
C312 C 0.59643 0.55432 0.93356 0.0
C313 C 0.55715 0.5595 0.93051 0.0
C314 C 0.59279 0.59769 0.85297 0.0
C315 C 0.53654 0.58392 0.88769 0.0
C316 C 0.5895 0.63916 0.76643 0.0
C317 C 0.66834 0.63431 0.77978 0.0
N318 N 0.5546 0.60209 0.85052 0.0
N319 N 0.64983 0.61656 0.81656 0.0
H320 H 0.85059 0.19434 0.191 0.0
H321 H 0.91573 0.00331 0.39766 0.0
H322 H 0.82757 0.08069 0.16432 0.0
H323 H 0.96571 0.11271 0.40869 0.0
H324 H 0.87449 0.03294 0.31807 0.0
H325 H 0.88326 0.16666 0.27789 0.0
C326 C 0.8518 0.16363 0.20386 0.0
C327 C 0.83663 0.13966 0.17071 0.0
C328 C 0.8943 0.05054 0.33805 0.0
C329 C 0.87389 0.10794 0.2691 0.0
C330 C 0.91795 0.03361 0.38336 0.0
C331 C 0.94414 0.05561 0.40982 0.0
C332 C 0.89672 0.08982 0.31902 0.0
C333 C 0.94558 0.09481 0.38976 0.0
C334 C 0.87066 0.14786 0.25311 0.0
C335 C 0.83915 0.10006 0.18881 0.0
N336 N 0.92221 0.11071 0.34551 0.0
N337 N 0.85757 0.08545 0.23665 0.0
H338 H 0.30251 0.35402 0.55397 0.0
H339 H 0.48942 0.41858 0.72449 0.0
H340 H 0.41724 0.32925 0.53991 0.0
H341 H 0.37635 0.4324 0.75289 0.0
H342 H 0.46314 0.3819 0.66038 0.0
H343 H 0.32828 0.37763 0.63129 0.0
C344 C 0.33306 0.35278 0.56772 0.0
C345 C 0.35779 0.34007 0.54008 0.0
C346 C 0.44401 0.39265 0.6808 0.0
C347 C 0.38749 0.3677 0.6279 0.0
C348 C 0.45901 0.41382 0.71723 0.0
C349 C 0.43499 0.42893 0.74368 0.0
C350 C 0.40454 0.38676 0.67016 0.0
C351 C 0.39589 0.42123 0.73339 0.0
C352 C 0.34778 0.36655 0.61165 0.0
C353 C 0.39715 0.33945 0.55947 0.0
N354 N 0.3818 0.40104 0.69703 0.0
N355 N 0.41075 0.35347 0.60174 0.0
H356 H 0.71326 0.66286 0.5392 0.0
H357 H 0.52537 0.60163 0.36741 0.0
H358 H 0.59901 0.69187 0.55061 0.0
H359 H 0.63841 0.58446 0.34097 0.0
H360 H 0.55224 0.63847 0.43113 0.0
H361 H 0.68723 0.63917 0.46207 0.0
C362 C 0.68279 0.66504 0.52488 0.0
C363 C 0.65823 0.67894 0.55175 0.0
C364 C 0.57124 0.62693 0.41121 0.0
C365 C 0.62819 0.65117 0.46419 0.0
C366 C 0.5559 0.60567 0.37503 0.0
C367 C 0.57972 0.5896 0.34922 0.0
C368 C 0.61084 0.63196 0.42222 0.0
C369 C 0.61901 0.59638 0.35995 0.0
C370 C 0.66791 0.65121 0.48107 0.0
C371 C 0.61894 0.68074 0.53164 0.0
N372 N 0.63341 0.6167 0.39603 0.0
N373 N 0.60515 0.66659 0.48953 0.0
H374 H 0.84072 0.19363 0.93864 0.0
H375 H 0.95679 0.0221 0.88377 0.0
H376 H 0.8549 0.0814 0.03446 0.0
H377 H 0.93299 0.13043 0.78017 0.0
H378 H 0.91994 0.04356 0.93976 0.0
H379 H 0.87404 0.17104 0.87986 0.0
C380 C 0.85052 0.16414 0.94715 0.0
C381 C 0.84506 0.13945 0.99175 0.0
C382 C 0.92266 0.06262 0.90472 0.0
C383 C 0.88381 0.11352 0.92485 0.0
C384 C 0.9439 0.05046 0.87288 0.0
C385 C 0.94811 0.07456 0.82729 0.0
C386 C 0.90561 0.09927 0.8911 0.0
C387 C 0.93022 0.11079 0.81472 0.0
C388 C 0.86976 0.15132 0.91367 0.0
C389 C 0.85898 0.10167 1.00104 0.0
N390 N 0.90991 0.1221 0.84655 0.0
N391 N 0.87778 0.08993 0.968 0.0
H392 H 0.31479 0.38601 0.30533 0.0
H393 H 0.51214 0.42688 0.20848 0.0
H394 H 0.42414 0.34697 0.39749 0.0
H395 H 0.40504 0.48227 0.13003 0.0
H396 H 0.48028 0.39417 0.27603 0.0
H397 H 0.34707 0.41742 0.23782 0.0
C398 C 0.34559 0.38381 0.31124 0.0
C399 C 0.36678 0.36379 0.35717 0.0
C400 C 0.46377 0.41346 0.24399 0.0
C401 C 0.40402 0.40007 0.28013 0.0
C402 C 0.48195 0.43221 0.2055 0.0
C403 C 0.46118 0.45719 0.16341 0.0
C404 C 0.42448 0.41957 0.2402 0.0
C405 C 0.42209 0.46287 0.16141 0.0
C406 C 0.36403 0.402 0.27281 0.0
C407 C 0.40669 0.36241 0.36291 0.0
N408 N 0.40501 0.44413 0.19911 0.0
N409 N 0.42401 0.38023 0.32484 0.0
H410 H 0.17 0.82498 0.89487 0.0
H411 H 0.09765 0.01546 0.69067 0.0
H412 H 0.19287 0.93904 0.92001 0.0
H413 H 0.05796 0.90319 0.67415 0.0
H414 H 0.14005 0.98697 0.76975 0.0
H415 H 0.13738 0.85205 0.80786 0.0
C416 C 0.16884 0.85565 0.88162 0.0
C417 C 0.18383 0.8799 0.91447 0.0
C418 C 0.12217 0.96851 0.74878 0.0
C419 C 0.1464 0.91098 0.81591 0.0
C420 C 0.09773 0.98481 0.70382 0.0
C421 C 0.07387 0.96173 0.67614 0.0
C422 C 0.12291 0.92875 0.76622 0.0
C423 C 0.07585 0.92207 0.69437 0.0
C424 C 0.14998 0.8711 0.83227 0.0
C425 C 0.18137 0.91944 0.89582 0.0
N426 N 0.09984 0.90683 0.73836 0.0
N427 N 0.16277 0.93374 0.84797 0.0
loop_
_geom_bond_atom_site_label_1
_geom_bond_atom_site_label_2
_geom_bond_distance
_geom_bond_site_symmetry_2
_ccdc_geom_bond_type
H0 C3 0.929 . S
H1 C6 0.929 . S
H2 C8 0.930 . S
C3 H0 0.929 . S
C3 C4 1.398 1_554 S
C3 C5 1.396 . S
C4 C3 1.398 1_556 S
C4 C8 1.407 . S
C5 C3 1.396 . S
C5 C6 1.394 . S
C6 H1 0.929 . S
C6 C5 1.394 . S
C6 C7 1.382 . S
C7 C6 1.382 . S
C7 C8 1.392 1_554 S
C7 N9 1.420 . S
C8 H2 0.930 . S
C8 C4 1.407 . S
C8 C7 1.392 1_556 S
N9 C7 1.420 . S
N9 C10 1.244 . S
C10 N9 1.244 . S
H11 C14 0.929 . S
H12 C17 0.929 . S
H13 C19 0.930 . S
C14 H11 0.929 . S
C14 C15 1.398 . S
C14 C16 1.396 . S
C15 C14 1.398 . S
C15 C19 1.407 . S
C16 C14 1.396 . S
C16 C17 1.394 . S
C17 H12 0.929 . S
C17 C16 1.394 . S
C17 C18 1.382 . S
C18 C17 1.382 . S
C18 C19 1.392 . S
C18 N20 1.420 . S
C19 H13 0.930 . S
C19 C15 1.407 . S
C19 C18 1.392 . S
N20 C18 1.420 . S
N20 C21 1.244 . S
C21 N20 1.244 . S
H22 C25 0.929 . S
H23 C28 0.929 . S
H24 C30 0.930 1_556 S
C25 H22 0.929 . S
C25 C26 1.398 . S
C25 C27 1.396 . S
C26 C25 1.398 . S
C26 C30 1.407 . S
C27 C25 1.396 . S
C27 C28 1.394 . S
C28 H23 0.929 . S
C28 C27 1.394 . S
C28 C29 1.382 . S
C29 C28 1.382 . S
C29 C30 1.392 . S
C29 N31 1.420 . S
C30 H24 0.930 1_554 S
C30 C26 1.407 . S
C30 C29 1.392 . S
N31 C29 1.420 . S
N31 C32 1.244 . S
C32 N31 1.244 . S
H33 C36 0.929 . S
H34 C39 0.929 . S
H35 C41 0.930 . S
C36 H33 0.929 . S
C36 C37 1.398 . S
C36 C38 1.396 . S
C37 C36 1.398 . S
C37 C41 1.407 . S
C38 C36 1.396 . S
C38 C39 1.394 . S
C39 H34 0.929 . S
C39 C38 1.394 . S
C39 C40 1.382 . S
C40 C39 1.382 . S
C40 C41 1.392 . S
C40 N42 1.420 . S
C41 H35 0.930 . S
C41 C37 1.407 . S
C41 C40 1.392 . S
N42 C40 1.420 . S
N42 C43 1.244 . S
C43 N42 1.244 . S
C44 C46 1.422 . S
C44 C48 1.415 . S
C44 N50 1.369 . S
C45 C46 1.421 . S
C45 C47 1.417 . S
C45 C57 1.422 . S
C46 C44 1.422 . S
C46 C45 1.421 . S
C46 N56 1.359 . S
C47 C45 1.417 . S
C47 C49 1.329 . S
C47 H66 0.930 . S
C48 C44 1.415 . S
C48 C49 1.437 . S
C48 C52 1.413 . S
C49 C47 1.329 . S
C49 C48 1.437 . S
C49 H71 0.929 . S
N50 C44 1.369 . S
N50 C51 1.338 1_655 S
N50 Gd55 2.622 . S
C51 N50 1.338 1_455 S
C51 C53 1.378 . S
C51 H63 0.929 . S
C52 C48 1.413 . S
C52 C53 1.348 1_655 S
C52 H68 0.931 . S
C53 C51 1.378 . S
C53 C52 1.348 1_455 S
C53 H69 0.930 . S
Gd54 N74 2.622 . S
Gd54 N81 2.570 . S
Gd54 O88 2.353 1_465 S
Gd54 O89 2.468 . S
Gd54 O90 2.427 . S
Gd54 O92 2.388 1_455 S
Gd54 O93 2.386 . S
Gd54 O97 2.307 1_565 S
Gd54 C107 2.805 . S
Gd55 N50 2.622 . S
Gd55 N56 2.570 . S
Gd55 O87 2.386 . S
Gd55 O91 2.307 1_545 S
Gd55 O94 2.353 1_655 S
Gd55 O95 2.468 . S
Gd55 O96 2.427 . S
Gd55 O98 2.388 1_655 S
Gd55 C119 2.805 . S
N56 C46 1.359 . S
N56 Gd55 2.570 . S
N56 C58 1.343 . S
C57 C45 1.422 . S
C57 C59 1.321 . S
C57 H65 0.931 . S
C58 N56 1.343 . S
C58 C59 1.390 . S
C58 H60 0.931 . S
C59 C57 1.321 . S
C59 C58 1.390 . S
C59 H61 0.930 . S
H60 C58 0.931 . S
H61 C59 0.930 . S
H62 C85 0.931 . S
H63 C51 0.929 . S
H64 C86 0.930 . S
H65 C57 0.931 . S
H66 C47 0.930 . S
H67 C76 0.929 1_655 S
H68 C52 0.931 . S
H69 C53 0.930 . S
H70 C108 0.930 . S
H71 C49 0.929 . S
H72 C77 0.931 . S
H73 C78 0.930 1_655 S
N74 Gd54 2.622 . S
N74 C75 1.369 . S
N74 C76 1.338 . S
C75 N74 1.369 . S
C75 C79 1.415 . S
C75 C82 1.422 . S
C76 H67 0.929 1_455 S
C76 N74 1.338 . S
C76 C78 1.378 . S
C77 H72 0.931 . S
C77 C78 1.348 . S
C77 C79 1.413 . S
C78 H73 0.930 1_455 S
C78 C76 1.378 . S
C78 C77 1.348 . S
C79 C75 1.415 . S
C79 C77 1.413 . S
C79 C109 1.437 . S
H80 C109 0.929 . S
N81 Gd54 2.570 . S
N81 C82 1.359 . S
N81 C85 1.343 . S
C82 C75 1.422 . S
C82 N81 1.359 . S
C82 C84 1.421 . S
C83 C84 1.422 . S
C83 C86 1.321 . S
C83 H110 0.931 . S
C84 C82 1.421 . S
C84 C83 1.422 . S
C84 C108 1.417 . S
C85 H62 0.931 . S
C85 N81 1.343 . S
C85 C86 1.390 . S
C86 H64 0.930 . S
C86 C83 1.321 . S
C86 C85 1.390 . S
O87 Gd55 2.386 . S
O87 C99 1.265 . S
O88 Gd54 2.353 1_645 S
O88 C99 1.242 . S
O89 Gd54 2.468 . S
O89 C107 1.263 . S
O90 Gd54 2.427 . S
O90 C107 1.252 . S
O91 Gd55 2.307 1_565 S
O91 C100 1.261 . S
O92 Gd54 2.388 1_655 S
O92 C100 1.252 . S
O93 Gd54 2.386 . S
O93 C111 1.265 . S
O94 Gd55 2.353 1_455 S
O94 C111 1.242 1_545 S
O95 Gd55 2.468 . S
O95 C119 1.263 . S
O96 Gd55 2.427 . S
O96 C119 1.252 . S
O97 Gd54 2.307 1_545 S
O97 C112 1.261 . S
O98 Gd55 2.388 1_455 S
O98 C112 1.252 . S
C99 O87 1.265 . S
C99 O88 1.242 . S
C100 O91 1.261 . S
C100 O92 1.252 . S
C101 C104 1.394 . S
C101 C106 1.370 . S
C101 C107 1.500 . S
C102 C105 1.383 . S
C102 C106 1.395 . S
C103 C104 1.396 . S
C103 C105 1.365 . S
C103 H120 0.929 . S
C104 C101 1.394 . S
C104 C103 1.396 . S
C104 H121 0.930 . S
C105 C102 1.383 . S
C105 C103 1.365 . S
C105 H122 0.931 . S
C106 C101 1.370 . S
C106 C102 1.395 . S
C106 H123 0.930 . S
C107 Gd54 2.805 . S
C107 O89 1.263 . S
C107 O90 1.252 . S
C107 C101 1.500 . S
C108 H70 0.930 . S
C108 C84 1.417 . S
C108 C109 1.329 . S
C109 C79 1.437 . S
C109 H80 0.929 . S
C109 C108 1.329 . S
H110 C83 0.931 . S
C111 O93 1.265 . S
C111 O94 1.242 1_565 S
C112 O97 1.261 . S
C112 O98 1.252 . S
C113 C116 1.394 . S
C113 C118 1.370 . S
C113 C119 1.500 . S
C114 C117 1.383 . S
C114 C118 1.395 . S
C115 C116 1.396 . S
C115 C117 1.365 . S
C115 H124 0.929 . S
C116 C113 1.394 . S
C116 C115 1.396 . S
C116 H125 0.930 . S
C117 C114 1.383 . S
C117 C115 1.365 . S
C117 H126 0.931 . S
C118 C113 1.370 . S
C118 C114 1.395 . S
C118 H127 0.930 . S
C119 Gd55 2.805 . S
C119 O95 1.263 . S
C119 O96 1.252 . S
C119 C113 1.500 . S
H120 C103 0.929 . S
H121 C104 0.930 . S
H122 C105 0.931 . S
H123 C106 0.930 . S
H124 C115 0.929 . S
H125 C116 0.930 . S
H126 C117 0.931 . S
H127 C118 0.930 . S
C128 C130 1.422 . S
C128 C132 1.415 . S
C128 N134 1.369 . S
C129 C130 1.421 . S
C129 C131 1.417 . S
C129 C141 1.422 . S
C130 C128 1.422 . S
C130 C129 1.421 . S
C130 N140 1.359 . S
C131 C129 1.417 . S
C131 C133 1.329 . S
C131 H150 0.930 . S
C132 C128 1.415 . S
C132 C133 1.437 . S
C132 C136 1.413 . S
C133 C131 1.329 . S
C133 C132 1.437 . S
C133 H155 0.929 . S
N134 C128 1.369 . S
N134 C135 1.338 . S
N134 Gd139 2.622 . S
C135 N134 1.338 . S
C135 C137 1.378 . S
C135 H147 0.929 . S
C136 C132 1.413 . S
C136 C137 1.348 . S
C136 H152 0.931 . S
C137 C135 1.378 . S
C137 C136 1.348 . S
C137 H153 0.930 . S
Gd138 N158 2.622 . S
Gd138 N165 2.570 . S
Gd138 O172 2.352 1_554 S
Gd138 O173 2.465 1_554 S
Gd138 O174 2.425 1_554 S
Gd138 O176 2.389 . S
Gd138 O177 2.389 . S
Gd138 O181 2.307 . S
Gd138 C191 2.803 1_554 S
Gd139 N134 2.622 . S
Gd139 N140 2.570 . S
Gd139 O171 2.386 . S
Gd139 O175 2.307 . S
Gd139 O178 2.353 . S
Gd139 O179 2.468 . S
Gd139 O180 2.427 . S
Gd139 O182 2.388 . S
Gd139 C203 2.805 . S
N140 C130 1.359 . S
N140 Gd139 2.570 . S
N140 C142 1.343 . S
C141 C129 1.422 . S
C141 C143 1.321 . S
C141 H149 0.931 . S
C142 N140 1.343 . S
C142 C143 1.390 . S
C142 H144 0.931 . S
C143 C141 1.321 . S
C143 C142 1.390 . S
C143 H145 0.930 . S
H144 C142 0.931 . S
H145 C143 0.930 . S
H146 C169 0.931 . S
H147 C135 0.929 . S
H148 C170 0.930 . S
H149 C141 0.931 . S
H150 C131 0.930 . S
H151 C160 0.929 . S
H152 C136 0.931 . S
H153 C137 0.930 . S
H154 C192 0.930 . S
H155 C133 0.929 . S
H156 C161 0.931 . S
H157 C162 0.930 . S
N158 Gd138 2.622 . S
N158 C159 1.369 . S
N158 C160 1.338 1_554 S
C159 N158 1.369 . S
C159 C163 1.415 . S
C159 C166 1.422 . S
C160 H151 0.929 . S
C160 N158 1.338 1_556 S
C160 C162 1.380 . S
C161 H156 0.931 . S
C161 C162 1.346 1_554 S
C161 C163 1.413 . S
C162 H157 0.930 . S
C162 C160 1.380 . S
C162 C161 1.346 1_556 S
C163 C159 1.415 . S
C163 C161 1.413 . S
C163 C193 1.437 . S
H164 C193 0.929 . S
N165 Gd138 2.570 . S
N165 C166 1.359 . S
N165 C169 1.343 . S
C166 C159 1.422 . S
C166 N165 1.359 . S
C166 C168 1.421 . S
C167 C168 1.422 . S
C167 C170 1.321 . S
C167 H194 0.931 . S
C168 C166 1.421 . S
C168 C167 1.422 . S
C168 C192 1.417 . S
C169 H146 0.931 . S
C169 N165 1.343 . S
C169 C170 1.390 . S
C170 H148 0.930 . S
C170 C167 1.321 . S
C170 C169 1.390 . S
O171 Gd139 2.386 . S
O171 C183 1.265 1_554 S
O172 Gd138 2.352 1_556 S
O172 C183 1.242 . S
O173 Gd138 2.465 1_556 S
O173 C191 1.263 . S
O174 Gd138 2.425 1_556 S
O174 C191 1.252 . S
O175 Gd139 2.307 . S
O175 C184 1.261 . S
O176 Gd138 2.389 . S
O176 C184 1.252 . S
O177 Gd138 2.389 . S
O177 C195 1.265 . S
O178 Gd139 2.353 . S
O178 C195 1.242 . S
O179 Gd139 2.468 . S
O179 C203 1.263 . S
O180 Gd139 2.427 . S
O180 C203 1.252 . S
O181 Gd138 2.307 . S
O181 C196 1.261 . S
O182 Gd139 2.388 . S
O182 C196 1.252 . S
C183 O171 1.265 1_556 S
C183 O172 1.242 . S
C184 O175 1.261 . S
C184 O176 1.252 . S
C185 C188 1.394 . S
C185 C190 1.370 . S
C185 C191 1.500 . S
C186 C189 1.383 . S
C186 C190 1.395 . S
C187 C188 1.396 . S
C187 C189 1.365 . S
C187 H204 0.929 . S
C188 C185 1.394 . S
C188 C187 1.396 . S
C188 H205 0.930 . S
C189 C186 1.383 . S
C189 C187 1.365 . S
C189 H206 0.931 . S
C190 C185 1.370 . S
C190 C186 1.395 . S
C190 H207 0.930 . S
C191 Gd138 2.803 1_556 S
C191 O173 1.263 . S
C191 O174 1.252 . S
C191 C185 1.500 . S
C192 H154 0.930 . S
C192 C168 1.417 . S
C192 C193 1.329 . S
C193 C163 1.437 . S
C193 H164 0.929 . S
C193 C192 1.329 . S
H194 C167 0.931 . S
C195 O177 1.265 . S
C195 O178 1.242 . S
C196 O181 1.261 . S
C196 O182 1.252 . S
C197 C200 1.394 . S
C197 C202 1.370 . S
C197 C203 1.500 . S
C198 C201 1.383 . S
C198 C202 1.395 . S
C199 C200 1.396 . S
C199 C201 1.365 . S
C199 H208 0.929 . S
C200 C197 1.394 . S
C200 C199 1.396 . S
C200 H209 0.930 . S
C201 C198 1.383 . S
C201 C199 1.365 . S
C201 H210 0.931 . S
C202 C197 1.370 . S
C202 C198 1.395 . S
C202 H211 0.930 . S
C203 Gd139 2.805 . S
C203 O179 1.263 . S
C203 O180 1.252 . S
C203 C197 1.500 . S
H204 C187 0.929 . S
H205 C188 0.930 . S
H206 C189 0.931 . S
H207 C190 0.930 . S
H208 C199 0.929 . S
H209 C200 0.930 . S
H210 C201 0.931 . S
H211 C202 0.930 . S
H212 C218 0.930 . S
H213 C222 0.930 . S
H214 C227 0.929 . S
H215 C225 0.929 . S
H216 C220 0.929 . S
H217 C226 0.929 . S
C218 H212 0.930 . S
C218 C219 1.367 . S
C218 C226 1.378 . S
C219 C218 1.367 . S
C219 C227 1.433 . S
C220 H216 0.929 . S
C220 C222 1.378 . S
C220 C224 1.350 . S
C221 C224 1.463 . S
C221 C226 1.350 . S
C221 N229 1.427 . S
C222 H213 0.930 . S
C222 C220 1.378 . S
C222 C223 1.367 . S
C223 C222 1.367 . S
C223 C225 1.433 . S
C224 C220 1.350 . S
C224 C221 1.463 . S
C224 N228 1.427 . S
C225 H215 0.929 . S
C225 C223 1.433 . S
C225 N228 1.384 . S
C226 H217 0.929 . S
C226 C218 1.378 . S
C226 C221 1.350 . S
C227 H214 0.929 . S
C227 C219 1.433 . S
C227 N229 1.384 . S
N228 C224 1.427 . S
N228 C225 1.384 . S
N229 C221 1.427 . S
N229 C227 1.384 . S
H230 C236 0.930 1_556 S
H231 C240 0.930 . S
H232 C245 0.929 . S
H233 C243 0.929 1_556 S
H234 C238 0.929 . S
H235 C244 0.929 1_556 S
C236 H230 0.930 1_554 S
C236 C237 1.367 . S
C236 C244 1.378 . S
C237 C236 1.367 . S
C237 C245 1.433 . S
C238 H234 0.929 . S
C238 C240 1.378 . S
C238 C242 1.350 . S
C239 C242 1.463 . S
C239 C244 1.350 . S
C239 N247 1.427 . S
C240 H231 0.930 . S
C240 C238 1.378 . S
C240 C241 1.367 . S
C241 C240 1.367 . S
C241 C243 1.433 . S
C242 C238 1.350 . S
C242 C239 1.463 . S
C242 N246 1.427 . S
C243 H233 0.929 1_554 S
C243 C241 1.433 . S
C243 N246 1.384 . S
C244 H235 0.929 1_554 S
C244 C236 1.378 . S
C244 C239 1.350 . S
C245 H232 0.929 . S
C245 C237 1.433 . S
C245 N247 1.384 . S
N246 C242 1.427 . S
N246 C243 1.384 . S
N247 C239 1.427 . S
N247 C245 1.384 . S
H248 C254 0.930 . S
H249 C258 0.930 . S
H250 C263 0.929 . S
H251 C261 0.929 . S
H252 C256 0.929 . S
H253 C262 0.929 . S
C254 H248 0.930 . S
C254 C255 1.367 . S
C254 C262 1.378 . S
C255 C254 1.367 . S
C255 C263 1.433 . S
C256 H252 0.929 . S
C256 C258 1.378 . S
C256 C260 1.350 . S
C257 C260 1.463 . S
C257 C262 1.350 . S
C257 N265 1.427 . S
C258 H249 0.930 . S
C258 C256 1.378 . S
C258 C259 1.367 . S
C259 C258 1.367 . S
C259 C261 1.433 . S
C260 C256 1.350 . S
C260 C257 1.463 . S
C260 N264 1.427 . S
C261 H251 0.929 . S
C261 C259 1.433 . S
C261 N264 1.384 . S
C262 H253 0.929 . S
C262 C254 1.378 . S
C262 C257 1.350 . S
C263 H250 0.929 . S
C263 C255 1.433 . S
C263 N265 1.384 . S
N264 C260 1.427 . S
N264 C261 1.384 . S
N265 C257 1.427 . S
N265 C263 1.384 . S
H266 C272 0.930 . S
H267 C276 0.930 1_556 S
H268 C281 0.929 1_556 S
H269 C279 0.929 . S
H270 C274 0.929 1_556 S
H271 C280 0.929 . S
C272 H266 0.930 . S
C272 C273 1.367 . S
C272 C280 1.378 . S
C273 C272 1.367 . S
C273 C281 1.433 . S
C274 H270 0.929 1_554 S
C274 C276 1.378 . S
C274 C278 1.350 . S
C275 C278 1.463 . S
C275 C280 1.350 . S
C275 N283 1.427 . S
C276 H267 0.930 1_554 S
C276 C274 1.378 . S
C276 C277 1.367 . S
C277 C276 1.367 . S
C277 C279 1.433 . S
C278 C274 1.350 . S
C278 C275 1.463 . S
C278 N282 1.427 . S
C279 H269 0.929 . S
C279 C277 1.433 . S
C279 N282 1.384 . S
C280 H271 0.929 . S
C280 C272 1.378 . S
C280 C275 1.350 . S
C281 H268 0.929 1_554 S
C281 C273 1.433 . S
C281 N283 1.384 . S
N282 C278 1.427 . S
N282 C279 1.384 . S
N283 C275 1.427 . S
N283 C281 1.384 . S
H284 C290 0.930 . S
H285 C294 0.930 . S
H286 C299 0.929 . S
H287 C297 0.929 1_545 S
H288 C292 0.929 . S
H289 C298 0.929 . S
C290 H284 0.930 . S
C290 C291 1.367 . S
C290 C298 1.378 . S
C291 C290 1.367 . S
C291 C299 1.433 . S
C292 H288 0.929 . S
C292 C294 1.378 . S
C292 C296 1.350 . S
C293 C296 1.463 . S
C293 C298 1.350 . S
C293 N301 1.427 . S
C294 H285 0.930 . S
C294 C292 1.378 . S
C294 C295 1.367 . S
C295 C294 1.367 . S
C295 C297 1.433 . S
C296 C292 1.350 . S
C296 C293 1.463 . S
C296 N300 1.427 . S
C297 H287 0.929 1_565 S
C297 C295 1.433 . S
C297 N300 1.384 . S
C298 H289 0.929 . S
C298 C290 1.378 . S
C298 C293 1.350 . S
C299 H286 0.929 . S
C299 C291 1.433 . S
C299 N301 1.384 . S
N300 C296 1.427 . S
N300 C297 1.384 . S
N301 C293 1.427 . S
N301 C299 1.384 . S
H302 C308 0.930 . S
H303 C312 0.930 . S
H304 C317 0.929 . S
H305 C315 0.929 . S
H306 C310 0.929 . S
H307 C316 0.929 . S
C308 H302 0.930 . S
C308 C309 1.367 . S
C308 C316 1.378 . S
C309 C308 1.367 . S
C309 C317 1.433 . S
C310 H306 0.929 . S
C310 C312 1.378 . S
C310 C314 1.350 . S
C311 C314 1.463 . S
C311 C316 1.350 . S
C311 N319 1.427 . S
C312 H303 0.930 . S
C312 C310 1.378 . S
C312 C313 1.367 . S
C313 C312 1.367 . S
C313 C315 1.433 . S
C314 C310 1.350 . S
C314 C311 1.463 . S
C314 N318 1.427 . S
C315 H305 0.929 . S
C315 C313 1.433 . S
C315 N318 1.384 . S
C316 H307 0.929 . S
C316 C308 1.378 . S
C316 C311 1.350 . S
C317 H304 0.929 . S
C317 C309 1.433 . S
C317 N319 1.384 . S
N318 C314 1.427 . S
N318 C315 1.384 . S
N319 C311 1.427 . S
N319 C317 1.384 . S
H320 C326 0.930 . S
H321 C330 0.930 . S
H322 C335 0.929 . S
H323 C333 0.929 . S
H324 C328 0.929 . S
H325 C334 0.929 . S
C326 H320 0.930 . S
C326 C327 1.367 . S
C326 C334 1.378 . S
C327 C326 1.367 . S
C327 C335 1.433 . S
C328 H324 0.929 . S
C328 C330 1.378 . S
C328 C332 1.350 . S
C329 C332 1.463 . S
C329 C334 1.350 . S
C329 N337 1.427 . S
C330 H321 0.930 . S
C330 C328 1.378 . S
C330 C331 1.367 . S
C331 C330 1.367 . S
C331 C333 1.433 . S
C332 C328 1.350 . S
C332 C329 1.463 . S
C332 N336 1.427 . S
C333 H323 0.929 . S
C333 C331 1.433 . S
C333 N336 1.384 . S
C334 H325 0.929 . S
C334 C326 1.378 . S
C334 C329 1.350 . S
C335 H322 0.929 . S
C335 C327 1.433 . S
C335 N337 1.384 . S
N336 C332 1.427 . S
N336 C333 1.384 . S
N337 C329 1.427 . S
N337 C335 1.384 . S
H338 C344 0.930 . S
H339 C348 0.930 . S
H340 C353 0.929 . S
H341 C351 0.929 . S
H342 C346 0.929 . S
H343 C352 0.929 . S
C344 H338 0.930 . S
C344 C345 1.367 . S
C344 C352 1.378 . S
C345 C344 1.367 . S
C345 C353 1.433 . S
C346 H342 0.929 . S
C346 C348 1.378 . S
C346 C350 1.350 . S
C347 C350 1.463 . S
C347 C352 1.350 . S
C347 N355 1.427 . S
C348 H339 0.930 . S
C348 C346 1.378 . S
C348 C349 1.367 . S
C349 C348 1.367 . S
C349 C351 1.433 . S
C350 C346 1.350 . S
C350 C347 1.463 . S
C350 N354 1.427 . S
C351 H341 0.929 . S
C351 C349 1.433 . S
C351 N354 1.384 . S
C352 H343 0.929 . S
C352 C344 1.378 . S
C352 C347 1.350 . S
C353 H340 0.929 . S
C353 C345 1.433 . S
C353 N355 1.384 . S
N354 C350 1.427 . S
N354 C351 1.384 . S
N355 C347 1.427 . S
N355 C353 1.384 . S
H356 C362 0.930 . S
H357 C366 0.930 . S
H358 C371 0.929 . S
H359 C369 0.929 . S
H360 C364 0.929 . S
H361 C370 0.929 . S
C362 H356 0.930 . S
C362 C363 1.367 . S
C362 C370 1.378 . S
C363 C362 1.367 . S
C363 C371 1.433 . S
C364 H360 0.929 . S
C364 C366 1.378 . S
C364 C368 1.350 . S
C365 C368 1.463 . S
C365 C370 1.350 . S
C365 N373 1.427 . S
C366 H357 0.930 . S
C366 C364 1.378 . S
C366 C367 1.367 . S
C367 C366 1.367 . S
C367 C369 1.433 . S
C368 C364 1.350 . S
C368 C365 1.463 . S
C368 N372 1.427 . S
C369 H359 0.929 . S
C369 C367 1.433 . S
C369 N372 1.384 . S
C370 H361 0.929 . S
C370 C362 1.378 . S
C370 C365 1.350 . S
C371 H358 0.929 . S
C371 C363 1.433 . S
C371 N373 1.384 . S
N372 C368 1.427 . S
N372 C369 1.384 . S
N373 C365 1.427 . S
N373 C371 1.384 . S
H374 C380 0.930 . S
H375 C384 0.930 . S
H376 C389 0.929 1_554 S
H377 C387 0.929 . S
H378 C382 0.929 . S
H379 C388 0.929 . S
C380 H374 0.930 . S
C380 C381 1.367 . S
C380 C388 1.378 . S
C381 C380 1.367 . S
C381 C389 1.433 . S
C382 H378 0.929 . S
C382 C384 1.378 . S
C382 C386 1.350 . S
C383 C386 1.463 . S
C383 C388 1.350 . S
C383 N391 1.427 . S
C384 H375 0.930 . S
C384 C382 1.378 . S
C384 C385 1.367 . S
C385 C384 1.367 . S
C385 C387 1.433 . S
C386 C382 1.350 . S
C386 C383 1.463 . S
C386 N390 1.427 . S
C387 H377 0.929 . S
C387 C385 1.433 . S
C387 N390 1.384 . S
C388 H379 0.929 . S
C388 C380 1.378 . S
C388 C383 1.350 . S
C389 H376 0.929 1_556 S
C389 C381 1.433 . S
C389 N391 1.384 . S
N390 C386 1.427 . S
N390 C387 1.384 . S
N391 C383 1.427 . S
N391 C389 1.384 . S
H392 C398 0.930 . S
H393 C402 0.930 . S
H394 C407 0.929 . S
H395 C405 0.929 . S
H396 C400 0.929 . S
H397 C406 0.929 . S
C398 H392 0.930 . S
C398 C399 1.367 . S
C398 C406 1.378 . S
C399 C398 1.367 . S
C399 C407 1.433 . S
C400 H396 0.929 . S
C400 C402 1.378 . S
C400 C404 1.350 . S
C401 C404 1.463 . S
C401 C406 1.350 . S
C401 N409 1.427 . S
C402 H393 0.930 . S
C402 C400 1.378 . S
C402 C403 1.367 . S
C403 C402 1.367 . S
C403 C405 1.433 . S
C404 C400 1.350 . S
C404 C401 1.463 . S
C404 N408 1.427 . S
C405 H395 0.929 . S
C405 C403 1.433 . S
C405 N408 1.384 . S
C406 H397 0.929 . S
C406 C398 1.378 . S
C406 C401 1.350 . S
C407 H394 0.929 . S
C407 C399 1.433 . S
C407 N409 1.384 . S
N408 C404 1.427 . S
N408 C405 1.384 . S
N409 C401 1.427 . S
N409 C407 1.384 . S
H410 C416 0.930 . S
H411 C420 0.930 . S
H412 C425 0.929 . S
H413 C423 0.929 . S
H414 C418 0.929 . S
H415 C424 0.929 . S
C416 H410 0.930 . S
C416 C417 1.367 . S
C416 C424 1.378 . S
C417 C416 1.367 . S
C417 C425 1.433 . S
C418 H414 0.929 . S
C418 C420 1.378 . S
C418 C422 1.350 . S
C419 C422 1.463 . S
C419 C424 1.350 . S
C419 N427 1.427 . S
C420 H411 0.930 . S
C420 C418 1.378 . S
C420 C421 1.367 . S
C421 C420 1.367 . S
C421 C423 1.433 . S
C422 C418 1.350 . S
C422 C419 1.463 . S
C422 N426 1.427 . S
C423 H413 0.929 . S
C423 C421 1.433 . S
C423 N426 1.384 . S
C424 H415 0.929 . S
C424 C416 1.378 . S
C424 C419 1.350 . S
C425 H412 0.929 . S
C425 C417 1.433 . S
C425 N427 1.384 . S
N426 C422 1.427 . S
N426 C423 1.384 . S
N427 C419 1.427 . S
N427 C425 1.384 . S
C223 C112 1.642 . S
C219 C43 1.664 . S
C237 C10 1.657 . S
C241 C184 1.646 . S
C255 C21 1.666 . S
C259 C100 1.660 . S
C273 C32 1.626 . S
C277 C196 1.628 . S
C295 C102 1.424 . S
C291 C5 1.605 . S
C313 C183 1.707 . S
C309 C15 1.706 . S
C327 C27 1.635 . S
C331 C99 1.655 . S
C345 C38 1.603 . S
C349 C186 1.449 . S
C367 C198 1.405 . S
C363 C16 1.561 . S
C385 C114 1.389 . S
C381 C26 1.556 1_556 S
C403 C195 1.631 . S
C399 C37 1.622 . S
C417 C4 1.569 . S
C421 C111 1.585 . S
