# Generated by pormake.
# Topology bwt, (3,3)-cn, num edge types: 1
# Building blocks:
#     Node 0, Type 0, BuildingBlock: OLANEW_clean_sbu_2, # of connection points: 3
#     Node 1, Type 0, BuildingBlock: OLANEW_clean_sbu_2, # of connection points: 3
#     Node 2, Type 0, BuildingBlock: OLANEW_clean_sbu_2, # of connection points: 3
#     Node 3, Type 0, BuildingBlock: OLANEW_clean_sbu_2, # of connection points: 3
#     Node 4, Type 0, BuildingBlock: OLANEW_clean_sbu_2, # of connection points: 3
#     Node 5, Type 0, BuildingBlock: OLANEW_clean_sbu_2, # of connection points: 3
#     Node 6, Type 0, BuildingBlock: OLANEW_clean_sbu_2, # of connection points: 3
#     Node 7, Type 0, BuildingBlock: OLANEW_clean_sbu_2, # of connection points: 3
#     Node 8, Type 0, BuildingBlock: OLANEW_clean_sbu_2, # of connection points: 3
#     Node 9, Type 0, BuildingBlock: OLANEW_clean_sbu_2, # of connection points: 3
#     Node 10, Type 0, BuildingBlock: OLANEW_clean_sbu_2, # of connection points: 3
#     Node 11, Type 0, BuildingBlock: OLANEW_clean_sbu_2, # of connection points: 3
#     Node 12, Type 0, BuildingBlock: OLANEW_clean_sbu_2, # of connection points: 3
#     Node 13, Type 0, BuildingBlock: OLANEW_clean_sbu_2, # of connection points: 3
#     Node 14, Type 0, BuildingBlock: OLANEW_clean_sbu_2, # of connection points: 3
#     Node 15, Type 0, BuildingBlock: OLANEW_clean_sbu_2, # of connection points: 3
#     Node 16, Type 0, BuildingBlock: OLANEW_clean_sbu_2, # of connection points: 3
#     Node 17, Type 0, BuildingBlock: OLANEW_clean_sbu_2, # of connection points: 3
#     Node 18, Type 0, BuildingBlock: OLANEW_clean_sbu_2, # of connection points: 3
#     Node 19, Type 0, BuildingBlock: OLANEW_clean_sbu_2, # of connection points: 3
#     Node 20, Type 0, BuildingBlock: OLANEW_clean_sbu_2, # of connection points: 3
#     Node 21, Type 0, BuildingBlock: OLANEW_clean_sbu_2, # of connection points: 3
#     Node 22, Type 0, BuildingBlock: OLANEW_clean_sbu_2, # of connection points: 3
#     Node 23, Type 0, BuildingBlock: OLANEW_clean_sbu_2, # of connection points: 3
#     Node 24, Type 1, BuildingBlock: BETDAH_clean_linker_0, # of connection points: 3
#     Node 25, Type 1, BuildingBlock: BETDAH_clean_linker_0, # of connection points: 3
#     Node 26, Type 1, BuildingBlock: BETDAH_clean_linker_0, # of connection points: 3
#     Node 27, Type 1, BuildingBlock: BETDAH_clean_linker_0, # of connection points: 3
#     Node 28, Type 1, BuildingBlock: BETDAH_clean_linker_0, # of connection points: 3
#     Node 29, Type 1, BuildingBlock: BETDAH_clean_linker_0, # of connection points: 3
#     Node 30, Type 1, BuildingBlock: BETDAH_clean_linker_0, # of connection points: 3
#     Node 31, Type 1, BuildingBlock: BETDAH_clean_linker_0, # of connection points: 3
#     Node 32, Type 1, BuildingBlock: BETDAH_clean_linker_0, # of connection points: 3
#     Node 33, Type 1, BuildingBlock: BETDAH_clean_linker_0, # of connection points: 3
#     Node 34, Type 1, BuildingBlock: BETDAH_clean_linker_0, # of connection points: 3
#     Node 35, Type 1, BuildingBlock: BETDAH_clean_linker_0, # of connection points: 3
#     Node 36, Type 1, BuildingBlock: BETDAH_clean_linker_0, # of connection points: 3
#     Node 37, Type 1, BuildingBlock: BETDAH_clean_linker_0, # of connection points: 3
#     Node 38, Type 1, BuildingBlock: BETDAH_clean_linker_0, # of connection points: 3
#     Node 39, Type 1, BuildingBlock: BETDAH_clean_linker_0, # of connection points: 3
#     Node 40, Type 1, BuildingBlock: BETDAH_clean_linker_0, # of connection points: 3
#     Node 41, Type 1, BuildingBlock: BETDAH_clean_linker_0, # of connection points: 3
#     Node 42, Type 1, BuildingBlock: BETDAH_clean_linker_0, # of connection points: 3
#     Node 43, Type 1, BuildingBlock: BETDAH_clean_linker_0, # of connection points: 3
#     Node 44, Type 1, BuildingBlock: BETDAH_clean_linker_0, # of connection points: 3
#     Node 45, Type 1, BuildingBlock: BETDAH_clean_linker_0, # of connection points: 3
#     Node 46, Type 1, BuildingBlock: BETDAH_clean_linker_0, # of connection points: 3
#     Node 47, Type 1, BuildingBlock: BETDAH_clean_linker_0, # of connection points: 3
#     Edge 48, Type (0, 1), BuildingBlock: KIFKEQ_clean_linker_1, # of connection points: 2
#     Edge 49, Type (0, 1), BuildingBlock: KIFKEQ_clean_linker_1, # of connection points: 2
#     Edge 50, Type (0, 1), BuildingBlock: KIFKEQ_clean_linker_1, # of connection points: 2
#     Edge 51, Type (0, 1), BuildingBlock: KIFKEQ_clean_linker_1, # of connection points: 2
#     Edge 52, Type (0, 1), BuildingBlock: KIFKEQ_clean_linker_1, # of connection points: 2
#     Edge 53, Type (0, 1), BuildingBlock: KIFKEQ_clean_linker_1, # of connection points: 2
#     Edge 54, Type (0, 1), BuildingBlock: KIFKEQ_clean_linker_1, # of connection points: 2
#     Edge 55, Type (0, 1), BuildingBlock: KIFKEQ_clean_linker_1, # of connection points: 2
#     Edge 56, Type (0, 1), BuildingBlock: KIFKEQ_clean_linker_1, # of connection points: 2
#     Edge 57, Type (0, 1), BuildingBlock: KIFKEQ_clean_linker_1, # of connection points: 2
#     Edge 58, Type (0, 1), BuildingBlock: KIFKEQ_clean_linker_1, # of connection points: 2
#     Edge 59, Type (0, 1), BuildingBlock: KIFKEQ_clean_linker_1, # of connection points: 2
#     Edge 60, Type (0, 1), BuildingBlock: KIFKEQ_clean_linker_1, # of connection points: 2
#     Edge 61, Type (0, 1), BuildingBlock: KIFKEQ_clean_linker_1, # of connection points: 2
#     Edge 62, Type (0, 1), BuildingBlock: KIFKEQ_clean_linker_1, # of connection points: 2
#     Edge 63, Type (0, 1), BuildingBlock: KIFKEQ_clean_linker_1, # of connection points: 2
#     Edge 64, Type (0, 1), BuildingBlock: KIFKEQ_clean_linker_1, # of connection points: 2
#     Edge 65, Type (0, 1), BuildingBlock: KIFKEQ_clean_linker_1, # of connection points: 2
#     Edge 66, Type (0, 1), BuildingBlock: KIFKEQ_clean_linker_1, # of connection points: 2
#     Edge 67, Type (0, 1), BuildingBlock: KIFKEQ_clean_linker_1, # of connection points: 2
#     Edge 68, Type (0, 1), BuildingBlock: KIFKEQ_clean_linker_1, # of connection points: 2
#     Edge 69, Type (0, 1), BuildingBlock: KIFKEQ_clean_linker_1, # of connection points: 2
#     Edge 70, Type (0, 1), BuildingBlock: KIFKEQ_clean_linker_1, # of connection points: 2
#     Edge 71, Type (0, 1), BuildingBlock: KIFKEQ_clean_linker_1, # of connection points: 2
#     Edge 72, Type (0, 1), BuildingBlock: KIFKEQ_clean_linker_1, # of connection points: 2
#     Edge 73, Type (0, 1), BuildingBlock: KIFKEQ_clean_linker_1, # of connection points: 2
#     Edge 74, Type (0, 1), BuildingBlock: KIFKEQ_clean_linker_1, # of connection points: 2
#     Edge 75, Type (0, 1), BuildingBlock: KIFKEQ_clean_linker_1, # of connection points: 2
#     Edge 76, Type (0, 1), BuildingBlock: KIFKEQ_clean_linker_1, # of connection points: 2
#     Edge 77, Type (0, 1), BuildingBlock: KIFKEQ_clean_linker_1, # of connection points: 2
#     Edge 78, Type (0, 1), BuildingBlock: KIFKEQ_clean_linker_1, # of connection points: 2
#     Edge 79, Type (0, 1), BuildingBlock: KIFKEQ_clean_linker_1, # of connection points: 2
#     Edge 80, Type (0, 1), BuildingBlock: KIFKEQ_clean_linker_1, # of connection points: 2
#     Edge 81, Type (0, 1), BuildingBlock: KIFKEQ_clean_linker_1, # of connection points: 2
#     Edge 82, Type (0, 1), BuildingBlock: KIFKEQ_clean_linker_1, # of connection points: 2
#     Edge 83, Type (0, 1), BuildingBlock: KIFKEQ_clean_linker_1, # of connection points: 2
#     Edge 84, Type (0, 1), BuildingBlock: KIFKEQ_clean_linker_1, # of connection points: 2
#     Edge 85, Type (0, 1), BuildingBlock: KIFKEQ_clean_linker_1, # of connection points: 2
#     Edge 86, Type (0, 1), BuildingBlock: KIFKEQ_clean_linker_1, # of connection points: 2
#     Edge 87, Type (0, 1), BuildingBlock: KIFKEQ_clean_linker_1, # of connection points: 2
#     Edge 88, Type (0, 1), BuildingBlock: KIFKEQ_clean_linker_1, # of connection points: 2
#     Edge 89, Type (0, 1), BuildingBlock: KIFKEQ_clean_linker_1, # of connection points: 2
#     Edge 90, Type (0, 1), BuildingBlock: KIFKEQ_clean_linker_1, # of connection points: 2
#     Edge 91, Type (0, 1), BuildingBlock: KIFKEQ_clean_linker_1, # of connection points: 2
#     Edge 92, Type (0, 1), BuildingBlock: KIFKEQ_clean_linker_1, # of connection points: 2
#     Edge 93, Type (0, 1), BuildingBlock: KIFKEQ_clean_linker_1, # of connection points: 2
#     Edge 94, Type (0, 1), BuildingBlock: KIFKEQ_clean_linker_1, # of connection points: 2
#     Edge 95, Type (0, 1), BuildingBlock: KIFKEQ_clean_linker_1, # of connection points: 2
#     Edge 96, Type (0, 1), BuildingBlock: KIFKEQ_clean_linker_1, # of connection points: 2
#     Edge 97, Type (0, 1), BuildingBlock: KIFKEQ_clean_linker_1, # of connection points: 2
#     Edge 98, Type (0, 1), BuildingBlock: KIFKEQ_clean_linker_1, # of connection points: 2
#     Edge 99, Type (0, 1), BuildingBlock: KIFKEQ_clean_linker_1, # of connection points: 2
#     Edge 100, Type (0, 1), BuildingBlock: KIFKEQ_clean_linker_1, # of connection points: 2
#     Edge 101, Type (0, 1), BuildingBlock: KIFKEQ_clean_linker_1, # of connection points: 2
#     Edge 102, Type (0, 1), BuildingBlock: KIFKEQ_clean_linker_1, # of connection points: 2
#     Edge 103, Type (0, 1), BuildingBlock: KIFKEQ_clean_linker_1, # of connection points: 2
#     Edge 104, Type (0, 1), BuildingBlock: KIFKEQ_clean_linker_1, # of connection points: 2
#     Edge 105, Type (0, 1), BuildingBlock: KIFKEQ_clean_linker_1, # of connection points: 2
#     Edge 106, Type (0, 1), BuildingBlock: KIFKEQ_clean_linker_1, # of connection points: 2
#     Edge 107, Type (0, 1), BuildingBlock: KIFKEQ_clean_linker_1, # of connection points: 2
#     Edge 108, Type (0, 1), BuildingBlock: KIFKEQ_clean_linker_1, # of connection points: 2
#     Edge 109, Type (0, 1), BuildingBlock: KIFKEQ_clean_linker_1, # of connection points: 2
#     Edge 110, Type (0, 1), BuildingBlock: KIFKEQ_clean_linker_1, # of connection points: 2
#     Edge 111, Type (0, 1), BuildingBlock: KIFKEQ_clean_linker_1, # of connection points: 2
#     Edge 112, Type (0, 1), BuildingBlock: KIFKEQ_clean_linker_1, # of connection points: 2
#     Edge 113, Type (0, 1), BuildingBlock: KIFKEQ_clean_linker_1, # of connection points: 2
#     Edge 114, Type (0, 1), BuildingBlock: KIFKEQ_clean_linker_1, # of connection points: 2
#     Edge 115, Type (0, 1), BuildingBlock: KIFKEQ_clean_linker_1, # of connection points: 2
#     Edge 116, Type (0, 1), BuildingBlock: KIFKEQ_clean_linker_1, # of connection points: 2
#     Edge 117, Type (0, 1), BuildingBlock: KIFKEQ_clean_linker_1, # of connection points: 2
#     Edge 118, Type (0, 1), BuildingBlock: KIFKEQ_clean_linker_1, # of connection points: 2
#     Edge 119, Type (0, 1), BuildingBlock: KIFKEQ_clean_linker_1, # of connection points: 2
# Relax obj value: 0.063
# Max RMSD: 0.122
# Mean RMSD: 0.061
data_MOF--net-bwt--node1-OLANEW_clean_sbu_2--node2-BETDAH_clean_linker_0--edge1-KIFKEQ_clean_linker_1
_symmetry_space_group_name_H-M    P1
_symmetry_Int_Tables_number       1
_symmetry_cell_setting            triclinic
loop_
_symmetry_equiv_pos_as_xyz
'x, y, z'
_cell_length_a     61.044491
_cell_length_b     61.029807
_cell_length_c     61.055519
_cell_angle_alpha  94.843773
_cell_angle_beta   94.825663
_cell_angle_gamma 94.836389
loop_
_atom_site_label
_atom_site_type_symbol
_atom_site_fract_x
_atom_site_fract_y
_atom_site_fract_z
_atom_type_partial_charge
O0 O 0.30306 0.50341 0.34612 0.0
Cd1 Cd 0.30187 0.50061 0.30589 0.0
O2 O 0.32806 0.53078 0.34437 0.0
Cd3 Cd 0.35462 0.55589 0.35701 0.0
O4 O 0.38583 0.57611 0.36375 0.0
C5 C 0.39911 0.57332 0.38023 0.0
O6 O 0.3933 0.55871 0.39378 0.0
C7 C 0.31656 0.51877 0.35596 0.0
C8 C 0.26098 0.51021 0.28736 0.0
O9 O 0.26496 0.49033 0.29033 0.0
O10 O 0.27647 0.52565 0.29301 0.0
O11 O 0.20239 0.34448 0.71975 0.0
Cd12 Cd 0.19878 0.32429 0.68312 0.0
O13 O 0.18702 0.37305 0.70766 0.0
Cd14 Cd 0.1732 0.35666 0.67581 0.0
O15 O 0.14258 0.353 0.65418 0.0
C16 C 0.1353 0.37087 0.64876 0.0
O17 O 0.14744 0.38957 0.65478 0.0
C18 C 0.19706 0.36409 0.72315 0.0
C19 C 0.23229 0.34201 0.65971 0.0
O20 O 0.21279 0.34831 0.6574 0.0
O21 O 0.23576 0.32687 0.67255 0.0
O22 O 0.73595 0.00722 0.58879 0.0
Cd23 Cd 0.75545 0.02225 0.62412 0.0
O24 O 0.74114 0.97324 0.59608 0.0
Cd25 Cd 0.76378 0.98288 0.62568 0.0
O26 O 0.79422 0.98749 0.64785 0.0
C27 C 0.8011 0.00571 0.65892 0.0
O28 O 0.78915 0.02257 0.65786 0.0
C29 C 0.73278 0.98652 0.58346 0.0
C30 C 0.72628 0.02711 0.65666 0.0
O31 O 0.73241 0.04338 0.64592 0.0
O32 O 0.73404 0.00857 0.65211 0.0
O33 O 0.72367 0.95978 0.19036 0.0
Cd34 Cd 0.72719 0.94672 0.22724 0.0
O35 O 0.73077 0.99477 0.20276 0.0
Cd36 Cd 0.72742 0.98766 0.23679 0.0
O37 O 0.70778 0.98205 0.2644 0.0
C38 C 0.69541 0.99703 0.26961 0.0
O39 O 0.69628 0.01498 0.25912 0.0
C40 C 0.72696 0.97994 0.18664 0.0
C41 C 0.77122 0.94405 0.24257 0.0
O42 O 0.75977 0.92753 0.23158 0.0
O43 O 0.76185 0.96183 0.24632 0.0
O44 O 0.4033 0.2919 0.50894 0.0
Cd45 Cd 0.36718 0.30653 0.51003 0.0
O46 O 0.40878 0.29251 0.54508 0.0
Cd47 Cd 0.38091 0.31173 0.55039 0.0
O48 O 0.36123 0.33986 0.55291 0.0
C49 C 0.36675 0.35559 0.54154 0.0
O50 O 0.38307 0.3535 0.52901 0.0
C51 C 0.41494 0.28754 0.52603 0.0
C52 C 0.33497 0.27272 0.51573 0.0
O53 O 0.33969 0.27709 0.49641 0.0
O54 O 0.34522 0.28458 0.53237 0.0
O55 O 0.28408 0.77939 0.00825 0.0
Cd56 Cd 0.32319 0.79156 0.00834 0.0
O57 O 0.29234 0.74681 0.01717 0.0
Cd58 Cd 0.2833 0.71198 0.02065 0.0
O59 O 0.2731 0.677 0.01206 0.0
C60 C 0.28607 0.6653 0.00203 0.0
O61 O 0.30548 0.67447 0.99823 0.0
C62 C 0.27789 0.75994 0.0125 0.0
C63 C 0.32847 0.83568 -0.00031 0.0
O64 O 0.32551 0.82016 0.98394 0.0
O65 O 0.32917 0.83031 0.01957 0.0
O66 O 0.74488 0.17133 0.43733 0.0
Cd67 Cd 0.7048 0.16789 0.42905 0.0
O68 O 0.75107 0.17125 0.40235 0.0
Cd69 Cd 0.71799 0.15552 0.39155 0.0
O70 O 0.69696 0.12459 0.38313 0.0
C71 C 0.69202 0.11313 0.39875 0.0
O72 O 0.69843 0.12105 0.41918 0.0
C73 C 0.75824 0.17392 0.42266 0.0
C74 C 0.69039 0.21017 0.43026 0.0
O75 O 0.69225 0.19995 0.44772 0.0
O76 O 0.69491 0.20021 0.41208 0.0
O77 O 0.57907 0.72798 0.98497 0.0
Cd78 Cd 0.6186 0.72725 0.98195 0.0
O79 O 0.58255 0.76287 0.97894 0.0
Cd80 Cd 0.57226 0.79589 0.97506 0.0
O81 O 0.57554 0.8319 0.9758 0.0
C82 C 0.58965 0.84218 0.9904 0.0
O83 O 0.60064 0.83077 0.00419 0.0
C84 C 0.57028 0.74579 0.98219 0.0
C85 C 0.63379 0.68819 0.99495 0.0
O86 O 0.63521 0.7056 0.00847 0.0
O87 O 0.62519 0.68925 0.97523 0.0
O88 O 0.58195 0.42406 0.33612 0.0
Cd89 Cd 0.58102 0.38377 0.33138 0.0
O90 O 0.61821 0.42945 0.33912 0.0
Cd91 Cd 0.62133 0.39462 0.34317 0.0
O92 O 0.62004 0.36371 0.35885 0.0
C93 C 0.60556 0.36117 0.37243 0.0
O94 O 0.59239 0.37683 0.37587 0.0
C95 C 0.59947 0.43716 0.33775 0.0
C96 C 0.57952 0.36888 0.28673 0.0
O97 O 0.56187 0.37222 0.29599 0.0
O98 O 0.598 0.37238 0.29866 0.0
O99 O 0.96178 0.2469 0.78505 0.0
Cd100 Cd 0.95999 0.28548 0.79833 0.0
O101 O 0.9658 0.25609 0.75156 0.0
Cd102 Cd 0.9682 0.24727 0.7165 0.0
O103 O 0.96684 0.23666 0.68139 0.0
C104 C 0.96294 0.21633 0.67459 0.0
O105 O 0.96001 0.2018 0.68903 0.0
C106 C 0.96453 0.24136 0.76503 0.0
C107 C 0.96537 0.28999 0.84428 0.0
O108 O 0.94616 0.28603 0.83378 0.0
O109 O 0.98208 0.29219 0.83301 0.0
O110 O 0.47603 0.77143 0.22587 0.0
Cd111 Cd 0.45985 0.73832 0.20264 0.0
O112 O 0.44442 0.7863 0.22292 0.0
Cd113 Cd 0.42891 0.76246 0.19631 0.0
O114 O 0.41355 0.74439 0.16572 0.0
C115 C 0.42562 0.73965 0.15035 0.0
O116 O 0.447 0.74514 0.15368 0.0
C117 C 0.46424 0.78684 0.23142 0.0
C118 C 0.43702 0.71094 0.22917 0.0
O119 O 0.45706 0.70832 0.22556 0.0
O120 O 0.42758 0.72605 0.21971 0.0
O121 O 0.05053 0.58508 0.73473 0.0
Cd122 Cd 0.06589 0.62107 0.75272 0.0
O123 O 0.01926 0.58848 0.74962 0.0
Cd124 Cd 0.0304 0.61883 0.77055 0.0
O125 O 0.03646 0.64275 0.79957 0.0
C126 C 0.05519 0.64549 0.8107 0.0
O127 O 0.07133 0.63451 0.8039 0.0
C128 C 0.03084 0.57762 0.73697 0.0
C129 C 0.06608 0.65312 0.72277 0.0
O130 O 0.08326 0.64302 0.72725 0.0
O131 O 0.04882 0.64816 0.73256 0.0
O132 O 0.69668 0.45158 0.62832 0.0
Cd133 Cd 0.7133 0.458 0.66625 0.0
O134 O 0.66952 0.4725 0.63262 0.0
Cd135 Cd 0.63739 0.48328 0.62205 0.0
O136 O 0.60197 0.48543 0.61569 0.0
C137 C 0.59251 0.4829 0.59618 0.0
O138 O 0.6045 0.47977 0.57949 0.0
C139 C 0.67942 0.45944 0.62039 0.0
C140 C 0.75681 0.44739 0.66683 0.0
O141 O 0.74094 0.43238 0.66741 0.0
O142 O 0.75217 0.46746 0.6665 0.0
O143 O 0.77654 0.63934 0.21989 0.0
Cd144 Cd 0.78964 0.67025 0.24729 0.0
O145 O 0.80773 0.62439 0.22466 0.0
Cd146 Cd 0.83128 0.5997 0.22035 0.0
O147 O 0.862 0.58386 0.22222 0.0
C148 C 0.87063 0.58021 0.24108 0.0
O149 O 0.86021 0.58513 0.25856 0.0
C150 C 0.7884 0.62383 0.21499 0.0
C151 C 0.75722 0.67585 0.27617 0.0
O152 O 0.75703 0.6855 0.25831 0.0
O153 O 0.77314 0.66408 0.28067 0.0
O154 O 0.28186 0.03804 0.35157 0.0
Cd155 Cd 0.29649 0.03264 0.31579 0.0
O156 O 0.2485 0.02385 0.33896 0.0
Cd157 Cd 0.21395 0.01258 0.34191 0.0
O158 O 0.17875 0.00402 0.34389 0.0
C159 C 0.16621 0.99882 0.3262 0.0
O160 O 0.17486 0.99852 0.3072 0.0
C161 C 0.26192 0.03276 0.35493 0.0
C162 C 0.33803 0.01707 0.3211 0.0
O163 O 0.33587 0.03783 0.32306 0.0
O164 O 0.32057 0.00373 0.31639 0.0
O165 O 0.25923 0.05496 0.78387 0.0
Cd166 Cd 0.24373 0.05997 0.74657 0.0
O167 O 0.29255 0.06068 0.77344 0.0
Cd168 Cd 0.32873 0.06488 0.7777 0.0
O169 O 0.3644 0.06279 0.78156 0.0
C170 C 0.37413 0.05708 0.76467 0.0
O171 O 0.36249 0.05311 0.74542 0.0
C172 C 0.28002 0.0562 0.78843 0.0
C173 C 0.19787 0.06015 0.74374 0.0
O174 O 0.20692 0.04206 0.7408 0.0
O175 O 0.21053 0.07813 0.74802 0.0
O176 O 0.5858 0.67375 0.42593 0.0
Cd177 Cd 0.62447 0.67328 0.4188 0.0
O178 O 0.58444 0.65029 0.45133 0.0
Cd179 Cd 0.61685 0.6391 0.44641 0.0
O180 O 0.63379 0.60927 0.44085 0.0
C181 C 0.63385 0.60009 0.42138 0.0
O182 O 0.62551 0.60998 0.40473 0.0
C183 C 0.57519 0.66393 0.43984 0.0
C184 C 0.63895 0.71713 0.4145 0.0
O185 O 0.63088 0.7042 0.39759 0.0
O186 O 0.64109 0.709 0.43316 0.0
O187 O 0.78749 0.27268 0.05774 0.0
Cd188 Cd 0.74781 0.27615 0.05617 0.0
O189 O 0.79419 0.27502 0.09385 0.0
Cd190 Cd 0.76158 0.28628 0.0971 0.0
O191 O 0.74178 0.31409 0.09345 0.0
C192 C 0.75116 0.32947 0.08379 0.0
O193 O 0.77072 0.32691 0.07698 0.0
C194 C 0.80083 0.27188 0.07475 0.0
C195 C 0.72585 0.23411 0.0463 0.0
O196 O 0.73245 0.24545 0.03098 0.0
O197 O 0.72914 0.24286 0.06627 0.0
O198 O 0.26962 0.7914 0.5856 0.0
Cd199 Cd 0.30908 0.78868 0.59385 0.0
O200 O 0.27316 0.82708 0.58262 0.0
Cd201 Cd 0.2613 0.85884 0.57562 0.0
O202 O 0.25337 0.89213 0.56944 0.0
C203 C 0.24454 0.9039 0.58382 0.0
O204 O 0.23986 0.89557 0.60221 0.0
C205 C 0.26088 0.80911 0.58215 0.0
C206 C 0.31686 0.74436 0.58726 0.0
O207 O 0.31191 0.75261 0.60602 0.0
O208 O 0.31868 0.75723 0.57184 0.0
O209 O 0.36924 0.34891 0.06677 0.0
Cd210 Cd 0.32944 0.35105 0.0658 0.0
O211 O 0.36323 0.3167 0.04757 0.0
Cd212 Cd 0.37136 0.28451 0.03357 0.0
O213 O 0.37472 0.25003 0.02282 0.0
C214 C 0.35738 0.23738 0.01626 0.0
O215 O 0.33816 0.24562 0.01572 0.0
C216 C 0.37677 0.33203 0.05755 0.0
C217 C 0.31388 0.37581 0.03254 0.0
O218 O 0.3198 0.38493 0.05207 0.0
O219 O 0.31538 0.35503 0.02881 0.0
O220 O 0.35818 0.63384 0.69528 0.0
Cd221 Cd 0.35051 0.67109 0.70855 0.0
O222 O 0.36989 0.64755 0.66592 0.0
Cd223 Cd 0.37857 0.64471 0.63188 0.0
O224 O 0.37855 0.64055 0.59611 0.0
C225 C 0.38138 0.62196 0.58627 0.0
O226 O 0.38533 0.60542 0.59802 0.0
C227 C 0.36585 0.63093 0.67665 0.0
C228 C 0.35361 0.67824 0.75444 0.0
O229 O 0.33544 0.67022 0.74354 0.0
O230 O 0.37029 0.6827 0.74362 0.0
O231 O 0.01803 0.75429 0.25453 0.0
Cd232 Cd 0.03154 0.71882 0.24351 0.0
O233 O 0.03442 0.75494 0.28797 0.0
Cd234 Cd 0.04154 0.76714 0.32282 0.0
O235 O 0.04687 0.77152 0.35883 0.0
C236 C 0.03906 0.787 0.37011 0.0
O237 O 0.02787 0.80116 0.35982 0.0
C238 C 0.02251 0.76396 0.27385 0.0
C239 C 0.04349 0.71762 0.20037 0.0
O240 O 0.02361 0.71198 0.20431 0.0
O241 O 0.05776 0.72367 0.21686 0.0
O242 O 0.61543 0.2458 0.77749 0.0
Cd243 Cd 0.63008 0.28067 0.76523 0.0
O244 O 0.61241 0.25641 0.81234 0.0
Cd245 Cd 0.60282 0.25255 0.84572 0.0
O246 O 0.59449 0.2564 0.87996 0.0
C247 C 0.60501 0.24724 0.895 0.0
O248 O 0.62069 0.23486 0.88963 0.0
C249 C 0.61009 0.24133 0.7964 0.0
C250 C 0.62809 0.27439 0.71927 0.0
O251 O 0.64577 0.27149 0.73112 0.0
O252 O 0.61179 0.28101 0.72913 0.0
O253 O 0.08891 0.3656 0.34303 0.0
Cd254 Cd 0.10073 0.33621 0.36467 0.0
O255 O 0.06209 0.34407 0.32388 0.0
Cd256 Cd 0.03874 0.33747 0.29448 0.0
O257 O 0.02752 0.33141 0.25946 0.0
C258 C 0.03427 0.31493 0.24872 0.0
O259 O 0.04668 0.30196 0.25935 0.0
C260 C 0.07303 0.36284 0.32793 0.0
C261 C 0.06579 0.30908 0.37689 0.0
O262 O 0.07331 0.32688 0.38876 0.0
O263 O 0.07467 0.30422 0.35902 0.0
H264 H 0.32524 0.58462 0.51595 0.0
H265 H 0.31461 0.51728 0.53053 0.0
H266 H 0.30935 0.56967 0.58089 0.0
C267 C 0.32149 0.57277 0.52766 0.0
C268 C 0.31747 0.58018 0.54928 0.0
C269 C 0.32006 0.55015 0.5207 0.0
C270 C 0.31558 0.53474 0.53589 0.0
C271 C 0.31216 0.54183 0.5578 0.0
C272 C 0.31277 0.56446 0.56422 0.0
N273 N 0.30786 0.52657 0.5736 0.0
C274 C 0.31201 0.50457 0.57035 0.0
H275 H 0.24654 0.42681 0.88777 0.0
H276 H 0.2149 0.48022 0.86081 0.0
H277 H 0.24486 0.4882 0.92755 0.0
C278 C 0.24206 0.44364 0.88951 0.0
C279 C 0.2473 0.45654 0.90975 0.0
C280 C 0.23039 0.45196 0.87171 0.0
C281 C 0.22374 0.47341 0.87442 0.0
C282 C 0.22893 0.48657 0.89436 0.0
C283 C 0.24075 0.4781 0.91206 0.0
N284 N 0.22197 0.50821 0.89597 0.0
C285 C 0.22942 0.52435 0.91299 0.0
H286 H 0.66466 0.88628 0.44808 0.0
H287 H 0.65853 0.94712 0.4186 0.0
H288 H 0.6424 0.88509 0.37918 0.0
C289 C 0.66011 0.89495 0.43384 0.0
C290 C 0.65298 0.8828 0.41356 0.0
C291 C 0.66213 0.91813 0.43582 0.0
C292 C 0.65716 0.92925 0.41706 0.0
C293 C 0.65013 0.91732 0.39652 0.0
C294 C 0.64807 0.89418 0.39494 0.0
N295 N 0.64494 0.92811 0.37724 0.0
C296 C 0.64762 0.95091 0.37687 0.0
H297 H 0.69707 0.07003 0.05521 0.0
H298 H 0.65946 0.00969 0.02788 0.0
H299 H 0.65087 0.07025 0.99819 0.0
C300 C 0.68527 0.06103 0.04269 0.0
C301 C 0.67502 0.07258 0.02641 0.0
C302 C 0.67954 0.03835 0.0436 0.0
C303 C 0.66369 0.02722 0.0275 0.0
C304 C 0.65329 0.03868 0.01105 0.0
C305 C 0.65892 0.06137 0.01076 0.0
N306 N 0.63703 0.02793 0.99473 0.0
C307 C 0.6303 0.0055 0.99348 0.0
H308 H 0.56558 0.24145 0.56306 0.0
H309 H 0.57622 0.2407 0.49447 0.0
H310 H 0.63088 0.23609 0.54276 0.0
C311 C 0.57656 0.23977 0.55007 0.0
C312 C 0.59912 0.23826 0.55565 0.0
C313 C 0.56814 0.24056 0.5281 0.0
C314 C 0.58263 0.23999 0.51146 0.0
C315 C 0.60531 0.23825 0.5167 0.0
C316 C 0.61339 0.23717 0.53876 0.0
N317 N 0.62035 0.23825 0.50018 0.0
C318 C 0.61641 0.24859 0.48099 0.0
H319 H 0.12115 0.72364 0.05371 0.0
H320 H 0.10289 0.72506 0.98436 0.0
H321 H 0.0525 0.71937 0.02928 0.0
C322 C 0.10843 0.72309 0.04011 0.0
C323 C 0.08608 0.72126 0.04419 0.0
C324 C 0.11453 0.72458 0.0186 0.0
C325 C 0.09812 0.72382 0.00094 0.0
C326 C 0.07566 0.72163 0.00479 0.0
C327 C 0.06982 0.7206 0.02639 0.0
N328 N 0.05856 0.7207 0.98739 0.0
C329 C 0.06162 0.71537 0.96536 0.0
H330 H 0.92765 0.21336 0.42898 0.0
H331 H 0.92548 0.1744 0.48469 0.0
H332 H 0.98759 0.19475 0.46146 0.0
C333 C 0.9359 0.20517 0.44196 0.0
C334 C 0.95904 0.20595 0.44378 0.0
C335 C 0.92343 0.19359 0.45641 0.0
C336 C 0.93462 0.18296 0.47301 0.0
C337 C 0.95771 0.1831 0.47449 0.0
C338 C 0.96974 0.19425 0.45969 0.0
N339 N 0.96927 0.17236 0.49092 0.0
C340 C 0.96424 0.17406 0.5127 0.0
H341 H 0.40941 0.71747 0.91501 0.0
H342 H 0.39963 0.7041 0.98165 0.0
H343 H 0.34658 0.68845 0.93035 0.0
C344 C 0.39888 0.71146 0.92704 0.0
C345 C 0.37717 0.70275 0.91995 0.0
C346 C 0.40732 0.71188 0.94923 0.0
C347 C 0.39325 0.70423 0.9646 0.0
C348 C 0.37119 0.69604 0.95787 0.0
C349 C 0.36343 0.69506 0.93553 0.0
N350 N 0.35657 0.68843 0.97312 0.0
C351 C 0.36203 0.69088 0.9958 0.0
H352 H 0.63126 0.60495 0.33857 0.0
H353 H 0.57114 0.6067 0.3705 0.0
H354 H 0.61219 0.66676 0.36597 0.0
C355 C 0.61946 0.61404 0.34703 0.0
C356 C 0.62356 0.63701 0.35106 0.0
C357 C 0.60066 0.6028 0.3541 0.0
C358 C 0.58589 0.6151 0.36534 0.0
C359 C 0.59008 0.63822 0.36977 0.0
C360 C 0.60912 0.64897 0.36288 0.0
N361 N 0.57525 0.65116 0.3806 0.0
C362 C 0.55398 0.64308 0.38399 0.0
H363 H 0.03398 0.09884 0.73629 0.0
H364 H 0.96846 0.0665 0.73309 0.0
H365 H 0.02421 0.0278 0.73248 0.0
C366 C 0.02312 0.0837 0.73517 0.0
C367 C 0.03202 0.06319 0.73454 0.0
C368 C 0.00026 0.08488 0.73472 0.0
C369 C 0.98609 0.06541 0.73322 0.0
C370 C 0.99472 0.04472 0.73201 0.0
C371 C 0.01764 0.04377 0.73289 0.0
N372 N 0.98088 0.02461 0.73013 0.0
C373 C 0.95821 0.0233 0.72471 0.0
H374 H 0.47176 0.92412 0.32318 0.0
H375 H 0.54142 0.92784 0.34244 0.0
H376 H 0.50471 0.98317 0.35892 0.0
C377 C 0.48666 0.93335 0.3312 0.0
C378 C 0.48576 0.95506 0.34043 0.0
C379 C 0.50655 0.92337 0.33191 0.0
C380 C 0.52597 0.93539 0.3419 0.0
C381 C 0.52511 0.95685 0.35209 0.0
C382 C 0.50502 0.96644 0.35151 0.0
N383 N 0.54414 0.96911 0.36325 0.0
C384 C 0.56469 0.96949 0.35508 0.0
H385 H 0.92486 0.45044 0.67252 0.0
H386 H 0.9779 0.42078 0.64328 0.0
H387 H 0.91127 0.39073 0.62888 0.0
C388 C 0.93052 0.43707 0.66226 0.0
C389 C 0.91516 0.42045 0.65138 0.0
C390 C 0.9531 0.4372 0.65954 0.0
C391 C 0.96046 0.42059 0.64541 0.0
C392 C 0.94528 0.40376 0.63429 0.0
C393 C 0.92276 0.40387 0.63729 0.0
N394 N 0.95212 0.38643 0.62015 0.0
C395 C 0.97411 0.38253 0.61903 0.0
H396 H 0.65558 0.37145 0.47413 0.0
H397 H 0.64147 0.43089 0.44514 0.0
H398 H 0.64988 0.3723 0.40347 0.0
C399 C 0.65207 0.37997 0.45955 0.0
C400 C 0.65283 0.36886 0.43857 0.0
C401 C 0.64771 0.40221 0.46208 0.0
C402 C 0.64476 0.4137 0.44324 0.0
C403 C 0.64576 0.40294 0.42204 0.0
C404 C 0.64947 0.38053 0.41985 0.0
N405 N 0.64332 0.41424 0.40268 0.0
C406 C 0.64339 0.43706 0.40324 0.0
H407 H 0.70994 0.57197 0.07672 0.0
H408 H 0.70686 0.50287 0.08582 0.0
H409 H 0.66726 0.52553 0.03203 0.0
C410 C 0.70371 0.55511 0.07103 0.0
C411 C 0.68804 0.55098 0.05266 0.0
C412 C 0.71064 0.53789 0.08298 0.0
C413 C 0.70172 0.51613 0.07643 0.0
C414 C 0.68606 0.51169 0.0579 0.0
C415 C 0.67926 0.52914 0.04627 0.0
N416 N 0.67662 0.48996 0.05063 0.0
C417 C 0.68491 0.471 0.0577 0.0
H418 H 0.24717 0.12489 0.49303 0.0
H419 H 0.22681 0.06693 0.52409 0.0
H420 H 0.24299 0.12913 0.56318 0.0
C421 C 0.24286 0.11723 0.50766 0.0
C422 C 0.24548 0.12987 0.52815 0.0
C423 C 0.23616 0.09453 0.50602 0.0
C424 C 0.232 0.08443 0.52528 0.0
C425 C 0.2344 0.09694 0.54596 0.0
C426 C 0.24096 0.11961 0.54722 0.0
N427 N 0.2308 0.0871 0.56577 0.0
C428 C 0.23016 0.06447 0.56725 0.0
H429 H 0.32769 0.98883 0.93393 0.0
H430 H 0.34723 0.05728 0.95493 0.0
H431 H 0.35512 0.00825 0.00065 0.0
C432 C 0.33452 0.0016 0.94665 0.0
C433 C 0.34136 0.9957 0.96774 0.0
C434 C 0.33647 0.02378 0.94181 0.0
C435 C 0.34527 0.04021 0.95855 0.0
C436 C 0.35202 0.03453 0.97977 0.0
C437 C 0.35009 0.01237 0.98416 0.0
N438 N 0.36093 0.05057 0.99713 0.0
C439 C 0.36145 0.07322 0.99591 0.0
H440 H 0.42602 0.66662 0.3742 0.0
H441 H 0.40036 0.62921 0.42431 0.0
H442 H 0.36446 0.62636 0.36008 0.0
C443 C 0.413 0.65586 0.37981 0.0
C444 C 0.39478 0.64783 0.36497 0.0
C445 C 0.4153 0.64903 0.40118 0.0
C446 C 0.39863 0.63442 0.4078 0.0
C447 C 0.38009 0.62629 0.39308 0.0
C448 C 0.3785 0.63279 0.37155 0.0
N449 N 0.36303 0.61149 0.39947 0.0
C450 C 0.3618 0.60699 0.42129 0.0
H451 H 0.94356 0.27834 0.00776 0.0
H452 H 0.97717 0.28375 0.0729 0.0
H453 H 0.01346 0.29712 0.01723 0.0
C454 C 0.9587 0.2817 0.01859 0.0
C455 C 0.9785 0.28796 0.00972 0.0
C456 C 0.95812 0.2801 0.04132 0.0
C457 C 0.97767 0.28489 0.05534 0.0
C458 C 0.99776 0.29088 0.04661 0.0
C459 C 0.99805 0.29217 0.02383 0.0
N460 N 0.01784 0.296 0.0603 0.0
C461 C 0.01898 0.29766 0.0832 0.0
H462 H 0.10828 0.76409 0.61215 0.0
H463 H 0.08314 0.79055 0.55314 0.0
H464 H 0.03862 0.75523 0.59159 0.0
C465 C 0.09432 0.76707 0.60097 0.0
C466 C 0.073 0.75824 0.60439 0.0
C467 C 0.09808 0.77889 0.58268 0.0
C468 C 0.08028 0.78149 0.5673 0.0
C469 C 0.05879 0.77286 0.57053 0.0
C470 C 0.05526 0.76161 0.58918 0.0
N471 N 0.04038 0.77512 0.55532 0.0
C472 C 0.04225 0.78022 0.53376 0.0
H473 H 0.53151 0.33159 0.12228 0.0
H474 H 0.54859 0.29888 0.06191 0.0
H475 H 0.59528 0.30689 0.11959 0.0
C476 C 0.54356 0.32371 0.11304 0.0
C477 C 0.56418 0.32056 0.1237 0.0
C478 C 0.53786 0.31602 0.09082 0.0
C479 C 0.55302 0.30487 0.07905 0.0
C480 C 0.57384 0.30161 0.08947 0.0
C481 C 0.5792 0.30936 0.11174 0.0
N482 N 0.58979 0.29063 0.07817 0.0
C483 C 0.58779 0.28454 0.05558 0.0
H484 H 0.34614 0.46503 0.62727 0.0
H485 H 0.40547 0.47891 0.59574 0.0
H486 H 0.37361 0.41297 0.5896 0.0
C487 C 0.35852 0.45949 0.61692 0.0
C488 C 0.3575 0.43713 0.60893 0.0
C489 C 0.37557 0.47478 0.61208 0.0
C490 C 0.39238 0.46726 0.59979 0.0
C491 C 0.3917 0.44483 0.5919 0.0
C492 C 0.37419 0.43004 0.5963 0.0
N493 N 0.40795 0.43668 0.57889 0.0
C494 C 0.42906 0.44708 0.57886 0.0
H495 H 0.92983 0.89919 0.28643 0.0
H496 H 0.99217 0.92899 0.31766 0.0
H497 H 0.93693 0.96794 0.31087 0.0
C498 C 0.93994 0.91362 0.29431 0.0
C499 C 0.93059 0.93376 0.29765 0.0
C500 C 0.96209 0.91175 0.30162 0.0
C501 C 0.97504 0.93037 0.31217 0.0
C502 C 0.96597 0.95071 0.31543 0.0
C503 C 0.94374 0.95217 0.30846 0.0
N504 N 0.97881 0.97004 0.32536 0.0
C505 C 0.00175 0.97214 0.32739 0.0
H506 H 0.62099 0.08518 0.76685 0.0
H507 H 0.55851 0.06737 0.79102 0.0
H508 H 0.59286 0.01752 0.75809 0.0
C509 C 0.60824 0.07254 0.76964 0.0
C510 C 0.60944 0.05058 0.76115 0.0
C511 C 0.59009 0.0787 0.78066 0.0
C512 C 0.57264 0.0627 0.78272 0.0
C513 C 0.57366 0.04063 0.77447 0.0
C514 C 0.59223 0.03463 0.76421 0.0
N515 N 0.55613 0.02416 0.77592 0.0
C516 C 0.53434 0.0289 0.77682 0.0
H517 H 0.10325 0.49142 0.25434 0.0
H518 H 0.03961 0.51565 0.25919 0.0
H519 H 0.09633 0.56048 0.25138 0.0
C520 C 0.09271 0.50484 0.2537 0.0
C521 C 0.10228 0.52619 0.25188 0.0
C522 C 0.0702 0.50085 0.25648 0.0
C523 C 0.05697 0.51862 0.25689 0.0
C524 C 0.06637 0.54019 0.25473 0.0
C525 C 0.08904 0.54385 0.25254 0.0
N526 N 0.05371 0.55866 0.25518 0.0
C527 C 0.03091 0.55715 0.25529 0.0
H528 H 0.24563 0.55076 0.28329 0.0
H529 H 0.22634 0.48073 0.27098 0.0
H530 H 0.20828 0.55847 0.27029 0.0
H531 H 0.18922 0.48839 0.25835 0.0
H532 H 0.12764 0.50477 0.22415 0.0
H533 H 0.16763 0.50381 0.22895 0.0
H534 H 0.17138 0.5536 0.28416 0.0
H535 H 0.13136 0.55479 0.279 0.0
C536 C 0.2335 0.53704 0.27764 0.0
C537 C 0.2389 0.51513 0.27824 0.0
C538 C 0.21212 0.54147 0.27027 0.0
C539 C 0.19583 0.52407 0.26319 0.0
C540 C 0.20147 0.5022 0.2633 0.0
C541 C 0.22272 0.49779 0.27074 0.0
C542 C 0.13714 0.51592 0.23691 0.0
C543 C 0.12649 0.52969 0.25135 0.0
C544 C 0.15998 0.51528 0.23976 0.0
C545 C 0.17259 0.52828 0.25722 0.0
C546 C 0.16213 0.54343 0.2705 0.0
C547 C 0.13924 0.54415 0.26756 0.0
H548 H 0.22931 0.36823 0.62566 0.0
H549 H 0.27651 0.34068 0.66974 0.0
H550 H 0.25938 0.38892 0.61034 0.0
H551 H 0.30652 0.36214 0.6553 0.0
H552 H 0.35854 0.39369 0.61751 0.0
H553 H 0.32811 0.36837 0.62597 0.0
H554 H 0.28417 0.42008 0.62094 0.0
H555 H 0.31408 0.44473 0.61081 0.0
C556 C 0.24613 0.36656 0.63203 0.0
C557 C 0.25054 0.35293 0.64898 0.0
C558 C 0.26339 0.37855 0.62337 0.0
C559 C 0.28545 0.37748 0.63173 0.0
C560 C 0.28983 0.36322 0.6482 0.0
C561 C 0.27259 0.35098 0.65661 0.0
C562 C 0.3423 0.39955 0.61782 0.0
C563 C 0.33889 0.4214 0.61372 0.0
C564 C 0.32487 0.38508 0.62295 0.0
C565 C 0.30364 0.39216 0.62437 0.0
C566 C 0.30017 0.41387 0.6198 0.0
C567 C 0.3175 0.42822 0.6144 0.0
H568 H 0.71426 0.0654 0.67666 0.0
H569 H 0.70241 0.99443 0.67471 0.0
H570 H 0.68717 0.06954 0.70364 0.0
H571 H 0.6751 0.99865 0.70154 0.0
H572 H 0.60763 0.02151 0.72403 0.0
H573 H 0.63706 0.01457 0.70047 0.0
H574 H 0.68227 0.06039 0.74364 0.0
H575 H 0.65315 0.06674 0.76785 0.0
C576 C 0.70592 0.0507 0.68204 0.0
C577 C 0.71043 0.02959 0.67354 0.0
C578 C 0.69053 0.05307 0.69757 0.0
C579 C 0.67908 0.0344 0.70467 0.0
C580 C 0.68364 0.0133 0.69627 0.0
C581 C 0.69931 0.01091 0.68099 0.0
C582 C 0.62395 0.0297 0.7289 0.0
C583 C 0.62791 0.0448 0.74786 0.0
C584 C 0.64078 0.02578 0.71529 0.0
C585 C 0.66187 0.03707 0.72017 0.0
C586 C 0.66606 0.05169 0.73937 0.0
C587 C 0.64933 0.05538 0.75316 0.0
H588 H 0.79527 0.90837 0.23832 0.0
H589 H 0.79999 0.97658 0.26521 0.0
H590 H 0.83363 0.90602 0.25186 0.0
H591 H 0.83851 0.97436 0.27834 0.0
H592 H 0.89944 0.95481 0.31893 0.0
H593 H 0.86096 0.95738 0.30572 0.0
H594 H 0.87057 0.91953 0.24477 0.0
H595 H 0.90895 0.91688 0.25803 0.0
C596 C 0.80452 0.92289 0.24704 0.0
C597 C 0.79457 0.94266 0.25069 0.0
C598 C 0.82656 0.92158 0.25469 0.0
C599 C 0.83917 0.94001 0.26616 0.0
C600 C 0.82919 0.95978 0.26982 0.0
C601 C 0.80714 0.96108 0.26218 0.0
C602 C 0.89336 0.94719 0.30265 0.0
C603 C 0.90722 0.93558 0.28957 0.0
C604 C 0.87132 0.94867 0.29506 0.0
C605 C 0.86265 0.93861 0.2742 0.0
C606 C 0.87659 0.92713 0.26108 0.0
C607 C 0.89859 0.92562 0.26867 0.0
H608 H 0.32159 0.25925 0.55452 0.0
H609 H 0.31197 0.24367 0.48381 0.0
H610 H 0.29686 0.22685 0.5595 0.0
H611 H 0.28772 0.21111 0.48879 0.0
H612 H 0.23339 0.16165 0.50182 0.0
H613 H 0.25237 0.19823 0.50024 0.0
H614 H 0.298 0.18711 0.55538 0.0
H615 H 0.2788 0.15069 0.55708 0.0
C616 C 0.31411 0.24899 0.54003 0.0
C617 C 0.31882 0.25398 0.51876 0.0
C618 C 0.30001 0.23036 0.5429 0.0
C619 C 0.29033 0.21635 0.52456 0.0
C620 C 0.29461 0.22171 0.50328 0.0
C621 C 0.30866 0.24032 0.50041 0.0
C622 C 0.2473 0.16719 0.51377 0.0
C623 C 0.25472 0.15327 0.52947 0.0
C624 C 0.25823 0.18808 0.51282 0.0
C625 C 0.27689 0.19549 0.52749 0.0
C626 C 0.28357 0.18202 0.54395 0.0
C627 C 0.27257 0.16114 0.54496 0.0
H628 H 0.3405 0.87192 0.02901 0.0
H629 H 0.32139 0.85243 0.95987 0.0
H630 H 0.34361 0.91065 0.02134 0.0
H631 H 0.3245 0.89115 0.95228 0.0
H632 H 0.30754 0.96372 0.95394 0.0
H633 H 0.30478 0.92502 0.96149 0.0
H634 H 0.36769 0.93573 0.00054 0.0
H635 H 0.37084 0.9743 0.99256 0.0
C636 C 0.337 0.87589 0.01218 0.0
C637 C 0.33071 0.85912 0.99504 0.0
C638 C 0.33887 0.89805 0.00779 0.0
C639 C 0.33427 0.90388 0.98623 0.0
C640 C 0.32795 0.88713 0.9691 0.0
C641 C 0.32629 0.86496 0.97344 0.0
C642 C 0.32094 0.9578 0.96391 0.0
C643 C 0.33944 0.97216 0.9726 0.0
C644 C 0.3193 0.93564 0.96828 0.0
C645 C 0.33602 0.92739 0.9816 0.0
C646 C 0.35443 0.94172 0.99043 0.0
C647 C 0.35618 0.96382 0.9859 0.0
H648 H 0.68556 0.23747 0.46698 0.0
H649 H 0.68085 0.23475 0.39579 0.0
H650 H 0.67713 0.27578 0.46885 0.0
H651 H 0.67155 0.27291 0.3976 0.0
H652 H 0.67832 0.34824 0.40951 0.0
H653 H 0.68739 0.31003 0.40757 0.0
H654 H 0.64842 0.29833 0.46199 0.0
H655 H 0.63861 0.33603 0.46334 0.0
C656 C 0.68251 0.24499 0.4517 0.0
C657 C 0.68398 0.23308 0.43124 0.0
C658 C 0.67758 0.26698 0.45276 0.0
C659 C 0.6738 0.27756 0.43337 0.0
C660 C 0.67486 0.26548 0.41288 0.0
C661 C 0.67999 0.24353 0.41183 0.0
C662 C 0.67136 0.33741 0.4208 0.0
C663 C 0.65774 0.34531 0.43659 0.0
C664 C 0.67665 0.31549 0.41976 0.0
C665 C 0.66854 0.30099 0.43456 0.0
C666 C 0.65511 0.309 0.45044 0.0
C667 C 0.64953 0.33073 0.45125 0.0
H668 H 0.66111 0.68314 0.03146 0.0
H669 H 0.62479 0.64651 0.9742 0.0
H670 H 0.67455 0.64901 0.04312 0.0
H671 H 0.63812 0.61227 0.9861 0.0
H672 H 0.71283 0.58779 0.04291 0.0
H673 H 0.69976 0.62053 0.02776 0.0
H674 H 0.63311 0.58933 0.01991 0.0
H675 H 0.64595 0.55675 0.03583 0.0
C676 C 0.65599 0.6678 0.02138 0.0
C677 C 0.64192 0.66749 0.00191 0.0
C678 C 0.66378 0.64831 0.02799 0.0
C679 C 0.65741 0.62808 0.01544 0.0
C680 C 0.6432 0.62768 0.99607 0.0
C681 C 0.63567 0.64726 0.98925 0.0
C682 C 0.69536 0.58788 0.03805 0.0
C683 C 0.6804 0.56973 0.04091 0.0
C684 C 0.68793 0.60661 0.02931 0.0
C685 C 0.66543 0.60748 0.02289 0.0
C686 C 0.65057 0.58899 0.02466 0.0
C687 C 0.65796 0.57032 0.0337 0.0
H688 H 0.54413 0.36731 0.25613 0.0
H689 H 0.61267 0.35406 0.2634 0.0
H690 H 0.54246 0.35617 0.2167 0.0
H691 H 0.61089 0.34278 0.22377 0.0
H692 H 0.5856 0.29995 0.1565 0.0
H693 H 0.59089 0.31195 0.19601 0.0
H694 H 0.55959 0.37117 0.18402 0.0
H695 H 0.55479 0.35959 0.14463 0.0
C696 C 0.55883 0.36197 0.24933 0.0
C697 C 0.57854 0.36161 0.26289 0.0
C698 C 0.5579 0.35572 0.22672 0.0
C699 C 0.57659 0.34875 0.21717 0.0
C700 C 0.59623 0.34802 0.23073 0.0
C701 C 0.59725 0.35456 0.25337 0.0
C702 C 0.58025 0.31573 0.16223 0.0
C703 C 0.5695 0.32866 0.14741 0.0
C704 C 0.58323 0.32256 0.18486 0.0
C705 C 0.57537 0.34234 0.19308 0.0
C706 C 0.56541 0.35563 0.17818 0.0
C707 C 0.56263 0.34895 0.15562 0.0
H708 H 0.00379 0.29802 0.87143 0.0
H709 H 0.93319 0.28496 0.87231 0.0
H710 H 0.0082 0.29933 0.91168 0.0
H711 H 0.93763 0.2858 0.91233 0.0
H712 H 0.94965 0.30915 0.98453 0.0
H713 H 0.94748 0.3113 0.94477 0.0
H714 H 0.00478 0.27459 0.94096 0.0
H715 H 0.00706 0.2727 0.98095 0.0
C716 C 0.98922 0.29545 0.8802 0.0
C717 C 0.96813 0.29142 0.86868 0.0
C718 C 0.99177 0.29607 0.90324 0.0
C719 C 0.97327 0.29272 0.91522 0.0
C720 C 0.9522 0.28882 0.90365 0.0
C721 C 0.94966 0.28821 0.88068 0.0
C722 C 0.96178 0.30154 0.97518 0.0
C723 C 0.97837 0.29052 0.98578 0.0
C724 C 0.96052 0.30274 0.95241 0.0
C725 C 0.97579 0.29288 0.93965 0.0
C726 C 0.99286 0.2825 0.95034 0.0
C727 C 0.99417 0.28137 0.97321 0.0
H728 H 0.45022 0.67448 0.24784 0.0
H729 H 0.39845 0.71862 0.24685 0.0
H730 H 0.43441 0.65673 0.27803 0.0
H731 H 0.38277 0.7009 0.27715 0.0
H732 H 0.394 0.68954 0.35325 0.0
H733 H 0.39951 0.70221 0.31706 0.0
H734 H 0.40012 0.63462 0.28984 0.0
H735 H 0.39419 0.62195 0.32619 0.0
C736 C 0.43525 0.68013 0.25379 0.0
C737 C 0.42572 0.6981 0.24513 0.0
C738 C 0.42612 0.66986 0.27097 0.0
C739 C 0.40742 0.67752 0.27997 0.0
C740 C 0.39726 0.69476 0.27058 0.0
C741 C 0.40623 0.70485 0.25322 0.0
C742 C 0.3947 0.67741 0.33936 0.0
C743 C 0.39371 0.65483 0.34238 0.0
C744 C 0.39779 0.68462 0.31866 0.0
C745 C 0.40032 0.66938 0.30068 0.0
C746 C 0.3983 0.64669 0.30347 0.0
C747 C 0.3948 0.63944 0.32416 0.0
H748 H 0.10176 0.67382 0.7065 0.0
H749 H 0.03051 0.67003 0.70232 0.0
H750 H 0.10188 0.70069 0.67904 0.0
H751 H 0.03069 0.69679 0.67462 0.0
H752 H 0.04506 0.72062 0.60493 0.0
H753 H 0.04212 0.69659 0.63473 0.0
H754 H 0.0911 0.74026 0.67588 0.0
H755 H 0.09352 0.76481 0.6465 0.0
C756 C 0.08614 0.67876 0.69975 0.0
C757 C 0.06613 0.66981 0.70655 0.0
C758 C 0.08622 0.69422 0.68414 0.0
C759 C 0.0663 0.70082 0.67476 0.0
C760 C 0.04627 0.6919 0.68155 0.0
C761 C 0.04619 0.67668 0.69744 0.0
C762 C 0.05482 0.72544 0.62049 0.0
C763 C 0.06966 0.74462 0.62319 0.0
C764 C 0.05319 0.7116 0.63751 0.0
C765 C 0.06653 0.71649 0.6575 0.0
C766 C 0.08086 0.73594 0.6605 0.0
C767 C 0.08229 0.74994 0.64361 0.0
H768 H 0.79462 0.47449 0.67786 0.0
H769 H 0.77077 0.40748 0.65343 0.0
H770 H 0.8326 0.46545 0.67503 0.0
H771 H 0.80886 0.39864 0.65014 0.0
H772 H 0.87942 0.40983 0.62062 0.0
H773 H 0.84061 0.41416 0.6255 0.0
H774 H 0.85812 0.43744 0.69392 0.0
H775 H 0.89668 0.43215 0.68954 0.0
C776 C 0.7975 0.45784 0.67193 0.0
C777 C 0.77977 0.44168 0.66591 0.0
C778 C 0.8192 0.45266 0.67039 0.0
C779 C 0.82354 0.43137 0.66237 0.0
C780 C 0.80586 0.41518 0.65631 0.0
C781 C 0.78414 0.42023 0.65831 0.0
C782 C 0.87498 0.41535 0.63685 0.0
C783 C 0.89129 0.42094 0.6546 0.0
C784 C 0.85277 0.41791 0.63958 0.0
C785 C 0.84654 0.42636 0.66001 0.0
C786 C 0.86262 0.43119 0.67793 0.0
C787 C 0.88471 0.42828 0.67533 0.0
H788 H 0.71772 0.69252 0.26693 0.0
H789 H 0.75456 0.6608 0.31688 0.0
H790 H 0.68494 0.68832 0.28704 0.0
H791 H 0.72173 0.65674 0.33699 0.0
H792 H 0.63036 0.63659 0.30799 0.0
H793 H 0.66305 0.65164 0.29196 0.0
H794 H 0.69221 0.67732 0.35695 0.0
H795 H 0.65903 0.6624 0.37299 0.0
C796 C 0.71897 0.68509 0.28243 0.0
C797 C 0.73864 0.67671 0.29017 0.0
C798 C 0.7002 0.68267 0.2939 0.0
C799 C 0.70081 0.67208 0.31346 0.0
C800 C 0.72087 0.6651 0.32203 0.0
C801 C 0.7396 0.6673 0.31042 0.0
C802 C 0.64363 0.64579 0.31876 0.0
C803 C 0.64238 0.64833 0.34164 0.0
C804 C 0.66223 0.65451 0.30962 0.0
C805 C 0.68011 0.66567 0.32323 0.0
C806 C 0.67862 0.66876 0.34614 0.0
C807 C 0.65973 0.66034 0.35527 0.0
H808 H 0.37703 0.04012 0.33802 0.0
H809 H 0.34866 0.97504 0.31148 0.0
H810 H 0.41332 0.02606 0.34317 0.0
H811 H 0.38486 0.96112 0.31657 0.0
H812 H 0.45646 0.95208 0.30378 0.0
H813 H 0.42106 0.96752 0.29964 0.0
H814 H 0.43231 0.99848 0.36632 0.0
H815 H 0.46771 0.98247 0.3708 0.0
C816 C 0.37854 0.02284 0.33327 0.0
C817 C 0.36001 0.00869 0.32427 0.0
C818 C 0.39927 0.0148 0.33635 0.0
C819 C 0.40188 0.99254 0.3302 0.0
C820 C 0.38335 0.97842 0.32124 0.0
C821 C 0.36261 0.98637 0.31842 0.0
C822 C 0.45134 0.96196 0.3177 0.0
C823 C 0.46479 0.96573 0.33776 0.0
C824 C 0.43108 0.97086 0.31526 0.0
C825 C 0.42387 0.984 0.33272 0.0
C826 C 0.43755 0.98845 0.35257 0.0
C827 C 0.45781 0.97934 0.3551 0.0
H828 H 0.17397 0.096 0.74654 0.0
H829 H 0.16674 0.02469 0.73749 0.0
H830 H 0.13399 0.09637 0.744 0.0
H831 H 0.12669 0.02503 0.73551 0.0
H832 H 0.05565 0.03558 0.71004 0.0
H833 H 0.09568 0.03462 0.71208 0.0
H834 H 0.10319 0.08743 0.76472 0.0
H835 H 0.06328 0.08851 0.76247 0.0
C836 C 0.16385 0.08039 0.74412 0.0
C837 C 0.17355 0.06032 0.74224 0.0
C838 C 0.14091 0.08059 0.74279 0.0
C839 C 0.1271 0.06072 0.73963 0.0
C840 C 0.13682 0.04064 0.73768 0.0
C841 C 0.15978 0.04044 0.73894 0.0
C842 C 0.06588 0.04686 0.72214 0.0
C843 C 0.05633 0.0622 0.73601 0.0
C844 C 0.08881 0.0463 0.72333 0.0
C845 C 0.10268 0.06102 0.7385 0.0
C846 C 0.09305 0.07616 0.75254 0.0
C847 C 0.07017 0.07677 0.75128 0.0
H848 H 0.65565 0.74848 0.44754 0.0
H849 H 0.63334 0.74003 0.37801 0.0
H850 H 0.65985 0.78834 0.44614 0.0
H851 H 0.63724 0.78007 0.37673 0.0
H852 H 0.66563 0.85372 0.38119 0.0
H853 H 0.66398 0.81343 0.38038 0.0
H854 H 0.63382 0.8164 0.44195 0.0
H855 H 0.63537 0.85641 0.44271 0.0
C856 C 0.65182 0.7551 0.4319 0.0
C857 C 0.644 0.74107 0.41292 0.0
C858 C 0.65407 0.77797 0.43114 0.0
C859 C 0.64856 0.78738 0.4114 0.0
C860 C 0.64169 0.77333 0.39217 0.0
C861 C 0.6394 0.7504 0.39293 0.0
C862 C 0.65843 0.8457 0.3944 0.0
C863 C 0.65082 0.85827 0.41212 0.0
C864 C 0.65754 0.82266 0.39397 0.0
C865 C 0.64907 0.81176 0.41127 0.0
C866 C 0.64096 0.82432 0.42865 0.0
C867 C 0.64181 0.84726 0.42906 0.0
H868 H 0.70012 0.20992 0.07171 0.0
H869 H 0.72917 0.20643 0.00951 0.0
H870 H 0.68592 0.17101 0.06441 0.0
H871 H 0.71538 0.16741 0.00256 0.0
H872 H 0.71549 0.09337 0.02287 0.0
H873 H 0.72591 0.13325 0.02547 0.0
H874 H 0.65829 0.14553 0.03343 0.0
H875 H 0.64778 0.10554 0.03025 0.0
C876 C 0.70332 0.20089 0.05643 0.0
C877 C 0.71578 0.21117 0.0412 0.0
C878 C 0.69512 0.17871 0.05223 0.0
C879 C 0.69963 0.16632 0.03296 0.0
C880 C 0.71175 0.17666 0.01756 0.0
C881 C 0.71955 0.19896 0.02152 0.0
C882 C 0.70286 0.10465 0.02488 0.0
C883 C 0.68087 0.09655 0.02632 0.0
C884 C 0.70877 0.12737 0.02629 0.0
C885 C 0.69287 0.14235 0.02965 0.0
C886 C 0.67081 0.13425 0.03086 0.0
C887 C 0.66481 0.11149 0.02895 0.0
H888 H 0.30861 0.71194 0.61461 0.0
H889 H 0.3304 0.72274 0.55053 0.0
H890 H 0.30914 0.67219 0.60626 0.0
H891 H 0.33153 0.68311 0.54245 0.0
H892 H 0.30309 0.61223 0.52416 0.0
H893 H 0.30454 0.6516 0.53426 0.0
H894 H 0.33258 0.64244 0.59982 0.0
H895 H 0.33176 0.60289 0.58957 0.0
C896 C 0.31381 0.70586 0.59886 0.0
C897 C 0.31926 0.72048 0.58314 0.0
C898 C 0.31419 0.68307 0.59412 0.0
C899 C 0.32009 0.67446 0.57357 0.0
C900 C 0.32639 0.68918 0.55822 0.0
C901 C 0.3259 0.71191 0.56292 0.0
C902 C 0.30993 0.61853 0.54065 0.0
C903 C 0.31761 0.60426 0.55592 0.0
C904 C 0.31069 0.64118 0.54645 0.0
C905 C 0.31895 0.65023 0.56776 0.0
C906 C 0.32601 0.63598 0.58329 0.0
C907 C 0.32545 0.61326 0.57741 0.0
H908 H 0.30266 0.36164 0.98916 0.0
H909 H 0.30586 0.41937 0.03588 0.0
H910 H 0.28796 0.38272 0.96006 0.0
H911 H 0.29133 0.44056 0.0066 0.0
H912 H 0.23878 0.45991 0.95319 0.0
H913 H 0.25619 0.44163 0.98326 0.0
H914 H 0.29974 0.41336 0.93867 0.0
H915 H 0.28246 0.43171 0.90867 0.0
C916 C 0.30033 0.37886 0.9932 0.0
C917 C 0.3054 0.38882 0.01483 0.0
C918 C 0.29204 0.39098 0.97649 0.0
C919 C 0.28856 0.41332 0.98103 0.0
C920 C 0.29368 0.42332 0.00265 0.0
C921 C 0.30209 0.41121 0.01937 0.0
C922 C 0.25232 0.45011 0.94991 0.0
C923 C 0.25911 0.44709 0.9285 0.0
C924 C 0.26228 0.43962 0.96712 0.0
C925 C 0.27918 0.42589 0.96327 0.0
C926 C 0.28646 0.42349 0.94204 0.0
C927 C 0.27656 0.434 0.92487 0.0
H928 H 0.3224 0.66755 0.78244 0.0
H929 H 0.38865 0.69841 0.7815 0.0
H930 H 0.32539 0.67466 0.82265 0.0
H931 H 0.39165 0.70531 0.82154 0.0
H932 H 0.38325 0.73352 0.89047 0.0
H933 H 0.37576 0.72826 0.85042 0.0
H934 H 0.34665 0.66204 0.85524 0.0
H935 H 0.35428 0.66725 0.89536 0.0
C936 C 0.33758 0.67585 0.7908 0.0
C937 C 0.3553 0.68242 0.77878 0.0
C938 C 0.3393 0.67985 0.81381 0.0
C939 C 0.35869 0.69066 0.82523 0.0
C940 C 0.37635 0.69727 0.81319 0.0
C941 C 0.3747 0.69316 0.79024 0.0
C942 C 0.37513 0.71788 0.88299 0.0
C943 C 0.36959 0.70071 0.89605 0.0
C944 C 0.37088 0.71486 0.86007 0.0
C945 C 0.36091 0.69463 0.84967 0.0
C946 C 0.35426 0.67786 0.86279 0.0
C947 C 0.35858 0.68086 0.88577 0.0
H948 H 0.01623 0.71076 0.16208 0.0
H949 H 0.08489 0.72414 0.18684 0.0
H950 H 0.02642 0.71163 0.12441 0.0
H951 H 0.09518 0.72428 0.14917 0.0
H952 H 0.10355 0.74736 0.08106 0.0
H953 H 0.09317 0.74619 0.11864 0.0
H954 H 0.04419 0.69172 0.09661 0.0
H955 H 0.05434 0.69328 0.05892 0.0
C956 C 0.03353 0.71369 0.15947 0.0
C957 C 0.04975 0.71744 0.17746 0.0
C958 C 0.03939 0.71407 0.13785 0.0
C959 C 0.06163 0.71806 0.13371 0.0
C960 C 0.07786 0.72154 0.15174 0.0
C961 C 0.07198 0.72132 0.17335 0.0
C962 C 0.09066 0.73506 0.0843 0.0
C963 C 0.07978 0.72039 0.06707 0.0
C964 C 0.08474 0.73433 0.10585 0.0
C965 C 0.06788 0.71881 0.11072 0.0
C966 C 0.05701 0.70411 0.09343 0.0
C967 C 0.06285 0.70495 0.07184 0.0
H968 H 0.5907 0.2717 0.69119 0.0
H969 H 0.66068 0.26484 0.69255 0.0
H970 H 0.58646 0.26068 0.6517 0.0
H971 H 0.65634 0.25389 0.65272 0.0
H972 H 0.63551 0.26333 0.57654 0.0
H973 H 0.64469 0.27115 0.61642 0.0
H974 H 0.59029 0.22498 0.62808 0.0
H975 H 0.58135 0.21687 0.58839 0.0
C976 C 0.60522 0.26798 0.68305 0.0
C977 C 0.62602 0.26911 0.69503 0.0
C978 C 0.60274 0.26149 0.66045 0.0
C979 C 0.62103 0.25617 0.64923 0.0
C980 C 0.64198 0.25787 0.66101 0.0
C981 C 0.64443 0.26411 0.68376 0.0
C982 C 0.62594 0.25438 0.58762 0.0
C983 C 0.60751 0.23972 0.57934 0.0
C984 C 0.63113 0.25893 0.61043 0.0
C985 C 0.61791 0.24899 0.62528 0.0
C986 C 0.60046 0.23323 0.61697 0.0
C987 C 0.59538 0.22857 0.59427 0.0
H988 H 0.04951 0.26802 0.35806 0.0
H989 H 0.04173 0.31649 0.41201 0.0
H990 H 0.02156 0.24267 0.37141 0.0
H991 H 0.01401 0.29114 0.42537 0.0
H992 H 0.95262 0.24799 0.43454 0.0
H993 H 0.97636 0.27287 0.41561 0.0
H994 H 0.01943 0.22124 0.4042 0.0
H995 H 0.99535 0.19615 0.42266 0.0
C996 C 0.04173 0.27332 0.37266 0.0
C997 C 0.0479 0.29422 0.38404 0.0
C998 C 0.02581 0.25877 0.38034 0.0
C999 C 0.01562 0.26491 0.39943 0.0
C1000 C 0.02138 0.28603 0.41046 0.0
C1001 C 0.03737 0.3005 0.40287 0.0
C1002 C 0.96689 0.2418 0.42756 0.0
C1003 C 0.97218 0.22014 0.43016 0.0
C1004 C 0.9806 0.25612 0.41693 0.0
C1005 C -0.00016 0.24906 0.40859 0.0
C1006 C 0.00464 0.22712 0.41034 0.0
C1007 C 0.99098 0.21282 0.42108 0.0
H1008 H 0.32702 0.55761 0.38191 0.0
H1009 H 0.31024 0.48787 0.38505 0.0
H1010 H 0.33011 0.56332 0.42201 0.0
H1011 H 0.31312 0.49358 0.42533 0.0
H1012 H 0.29261 0.51979 0.49373 0.0
H1013 H 0.29323 0.511 0.45405 0.0
H1014 H 0.35239 0.55537 0.45498 0.0
H1015 H 0.3516 0.56409 0.49464 0.0
C1016 C 0.32462 0.54339 0.39117 0.0
C1017 C 0.31895 0.5222 0.38033 0.0
C1018 C 0.32624 0.54668 0.41419 0.0
C1019 C 0.32203 0.52887 0.42689 0.0
C1020 C 0.31631 0.50766 0.41602 0.0
C1021 C 0.31473 0.50438 0.39298 0.0
C1022 C 0.30596 0.52735 0.48549 0.0
C1023 C 0.32196 0.54285 0.4972 0.0
C1024 C 0.30632 0.52233 0.46277 0.0
C1025 C 0.32274 0.53268 0.4513 0.0
C1026 C 0.33925 0.54749 0.46323 0.0
C1027 C 0.33884 0.5525 0.48592 0.0
H1028 H 0.21865 0.3507 0.76025 0.0
H1029 H 0.18708 0.40577 0.73581 0.0
H1030 H 0.2264 0.37131 0.79654 0.0
H1031 H 0.19513 0.42637 0.77185 0.0
H1032 H 0.1918 0.44732 0.8448 0.0
H1033 H 0.18378 0.42559 0.80921 0.0
H1034 H 0.24943 0.40392 0.81462 0.0
H1035 H 0.25748 0.42571 0.8502 0.0
C1036 C 0.21343 0.3672 0.76258 0.0
C1037 C 0.20221 0.37656 0.74512 0.0
C1038 C 0.21796 0.37903 0.78333 0.0
C1039 C 0.21131 0.40043 0.78708 0.0
C1040 C 0.20018 0.40979 0.7696 0.0
C1041 C 0.19569 0.39801 0.74888 0.0
C1042 C 0.20457 0.43803 0.83833 0.0
C1043 C 0.2253 0.4383 0.85029 0.0
C1044 C 0.19997 0.42557 0.81795 0.0
C1045 C 0.216 0.41309 0.80907 0.0
C1046 C 0.23664 0.41313 0.82115 0.0
C1047 C 0.24125 0.42562 0.84152 0.0
H1048 H 0.71971 0.94346 0.56923 0.0
H1049 H 0.71733 0.00974 0.54971 0.0
H1050 H 0.70078 0.92869 0.53377 0.0
H1051 H 0.69809 0.99484 0.51413 0.0
H1052 H 0.69195 0.9547 0.44438 0.0
H1053 H 0.70698 0.97266 0.48043 0.0
H1054 H 0.66471 0.92733 0.51231 0.0
H1055 H 0.64962 0.90948 0.47637 0.0
C1056 C 0.71499 0.95491 0.55745 0.0
C1057 C 0.7201 0.97779 0.56232 0.0
C1058 C 0.704 0.94644 0.53715 0.0
C1059 C 0.6979 0.9606 0.52115 0.0
C1060 C 0.70274 0.98351 0.52607 0.0
C1061 C 0.71364 0.99203 0.54649 0.0
C1062 C 0.6856 0.94883 0.45907 0.0
C1063 C 0.6698 0.93049 0.45752 0.0
C1064 C 0.6942 0.95912 0.47972 0.0
C1065 C 0.6872 0.95125 0.49922 0.0
C1066 C 0.67075 0.9335 0.4976 0.0
C1067 C 0.66213 0.92327 0.47702 0.0
H1068 H 0.71024 0.95406 0.1492 0.0
H1069 H 0.73739 0.02047 0.17239 0.0
H1070 H 0.70135 0.96595 0.11255 0.0
H1071 H 0.72846 0.03227 0.13578 0.0
H1072 H 0.72215 0.04344 0.06304 0.0
H1073 H 0.73663 0.02749 0.09604 0.0
H1074 H 0.67344 0.99083 0.09884 0.0
H1075 H 0.65875 0.00712 0.06633 0.0
C1076 C 0.71464 0.9711 0.14641 0.0
C1077 C 0.72435 0.98637 0.16377 0.0
C1078 C 0.70944 0.97791 0.12545 0.0
C1079 C 0.71407 6e-05 0.12136 0.0
C1080 C 0.72483 0.01506 0.1384 0.0
C1081 C 0.72984 0.00831 0.1594 0.0
C1082 C 0.71133 0.03197 0.07068 0.0
C1083 C 0.6892 0.02674 0.06209 0.0
C1084 C 0.71967 0.02279 0.08952 0.0
C1085 C 0.70615 0.00797 0.10004 0.0
C1086 C 0.68435 0.00198 0.09093 0.0
C1087 C 0.67594 0.01131 0.07223 0.0
H1088 H 0.44148 0.27271 0.55872 0.0
H1089 H 0.43621 0.27982 0.48868 0.0
H1090 H 0.47726 0.25851 0.55603 0.0
H1091 H 0.47213 0.26529 0.48598 0.0
H1092 H 0.54965 0.26951 0.50174 0.0
H1093 H 0.51119 0.27816 0.49877 0.0
H1094 H 0.49467 0.22669 0.5406 0.0
H1095 H 0.53306 0.21815 0.54363 0.0
C1096 C 0.44785 0.27104 0.54269 0.0
C1097 C 0.43601 0.27749 0.52394 0.0
C1098 C 0.46831 0.26273 0.54112 0.0
C1099 C 0.4775 0.26071 0.52077 0.0
C1100 C 0.46553 0.2668 0.50191 0.0
C1101 C 0.44493 0.27502 0.50345 0.0
C1102 C 0.53767 0.25971 0.50984 0.0
C1103 C 0.54438 0.24336 0.52316 0.0
C1104 C 0.51566 0.26466 0.50815 0.0
C1105 C 0.49998 0.25332 0.51973 0.0
C1106 C 0.50647 0.23603 0.53188 0.0
C1107 C 0.52842 0.23111 0.53357 0.0
H1108 H 0.24543 0.76918 0.98238 0.0
H1109 H 0.2569 0.73498 0.04066 0.0
H1110 H 0.20595 0.75848 0.98129 0.0
H1111 H 0.21739 0.72528 0.04056 0.0
H1112 H 0.1466 0.69769 0.0285 0.0
H1113 H 0.18604 0.7042 0.0247 0.0
H1114 H 0.17494 0.7664 0.99832 0.0
H1115 H 0.13545 0.75892 0.00086 0.0
C1116 C 0.23941 0.75938 0.99499 0.0
C1117 C 0.25414 0.7527 0.01147 0.0
C1118 C 0.21675 0.75337 0.99452 0.0
C1119 C 0.20824 0.74104 0.01089 0.0
C1120 C 0.22319 0.73432 0.02734 0.0
C1121 C 0.24588 0.73993 0.0275 0.0
C1122 C 0.15272 0.71257 0.02161 0.0
C1123 C 0.13814 0.7278 0.01491 0.0
C1124 C 0.17533 0.71646 0.01962 0.0
C1125 C 0.18392 0.73596 0.01137 0.0
C1126 C 0.16908 0.751 0.00435 0.0
C1127 C 0.14643 0.74684 0.00591 0.0
H1128 H 0.7897 0.19079 0.39784 0.0
H1129 H 0.78081 0.16834 0.46204 0.0
H1130 H 0.82951 0.19713 0.40785 0.0
H1131 H 0.82068 0.17439 0.47184 0.0
H1132 H 0.89404 0.15846 0.46234 0.0
H1133 H 0.8539 0.15562 0.45607 0.0
H1134 H 0.85676 0.22222 0.43709 0.0
H1135 H 0.89687 0.22565 0.44436 0.0
C1136 C 0.79623 0.18732 0.4141 0.0
C1137 C 0.78214 0.17902 0.42913 0.0
C1138 C 0.81897 0.19105 0.41986 0.0
C1139 C 0.82809 0.18619 0.44058 0.0
C1140 C 0.81402 0.17815 0.45571 0.0
C1141 C 0.79123 0.17479 0.45012 0.0
C1142 C 0.88618 0.17273 0.45734 0.0
C1143 C 0.89884 0.19226 0.45377 0.0
C1144 C 0.86317 0.17102 0.45366 0.0
C1145 C 0.85231 0.18866 0.446 0.0
C1146 C 0.8648 0.20829 0.44275 0.0
C1147 C 0.88779 0.21016 0.44679 0.0
H1148 H 0.54368 0.76729 0.95489 0.0
H1149 H 0.54236 0.72336 0.0067 0.0
H1150 H 0.50334 0.76186 0.94883 0.0
H1151 H 0.50194 0.71834 0.0009 0.0
H1152 H 0.42588 0.73441 0.98851 0.0
H1153 H 0.46503 0.74577 0.9993 0.0
H1154 H 0.48144 0.71891 0.93581 0.0
H1155 H 0.44293 0.70612 0.92544 0.0
C1156 C 0.53473 0.75714 0.96551 0.0
C1157 C 0.54607 0.74584 0.98135 0.0
C1158 C 0.51172 0.75394 0.96194 0.0
C1159 C 0.49971 0.73976 0.97447 0.0
C1160 C 0.51091 0.72951 0.99121 0.0
C1161 C 0.53396 0.73232 0.99445 0.0
C1162 C 0.4378 0.73066 0.97691 0.0
C1163 C 0.43102 0.71946 0.95597 0.0
C1164 C 0.46015 0.73737 0.98306 0.0
C1165 C 0.47601 0.73346 0.96821 0.0
C1166 C 0.46936 0.72246 0.94734 0.0
C1167 C 0.44721 0.71529 0.94139 0.0
H1168 H 0.63181 0.4691 0.33133 0.0
H1169 H 0.56404 0.45981 0.34676 0.0
H1170 H 0.62981 0.50903 0.33417 0.0
H1171 H 0.5622 0.49983 0.34982 0.0
H1172 H 0.60936 0.57663 0.31764 0.0
H1173 H 0.60809 0.53653 0.31306 0.0
H1174 H 0.58163 0.53292 0.37612 0.0
H1175 H 0.58367 0.57319 0.38129 0.0
C1176 C 0.61646 0.47556 0.3352 0.0
C1177 C 0.59805 0.4613 0.33869 0.0
C1178 C 0.6153 0.4984 0.33672 0.0
C1179 C 0.59581 0.50745 0.3421 0.0
C1180 C 0.57742 0.49324 0.34569 0.0
C1181 C 0.57846 0.47037 0.34381 0.0
C1182 C 0.60338 0.56739 0.33065 0.0
C1183 C 0.59698 0.57828 0.35003 0.0
C1184 C 0.60257 0.5444 0.32794 0.0
C1185 C 0.59495 0.5317 0.34431 0.0
C1186 C 0.58742 0.54238 0.36316 0.0
C1187 C 0.58848 0.56545 0.36604 0.0
H1188 H 0.99408 0.22538 0.7384 0.0
H1189 H 0.94055 0.20504 0.77612 0.0
H1190 H 0.00035 0.18699 0.72937 0.0
H1191 H 0.94581 0.1664 0.76616 0.0
H1192 H 0.98005 0.10263 0.76889 0.0
H1193 H 0.96944 0.14014 0.77458 0.0
H1194 H 0.98927 0.15315 0.71012 0.0
H1195 H 0.00123 0.11597 0.7054 0.0
C1196 C 0.98324 0.21258 0.74421 0.0
C1197 C 0.96675 0.21808 0.75781 0.0
C1198 C 0.98676 0.1905 0.739 0.0
C1199 C 0.97362 0.17337 0.74702 0.0
C1200 C 0.95659 0.17903 0.76005 0.0
C1201 C 0.95342 0.20115 0.76563 0.0
C1202 C 0.98189 0.11356 0.75594 0.0
C1203 C 0.99145 0.10663 0.73678 0.0
C1204 C 0.97568 0.13504 0.75907 0.0
C1205 C 0.97854 0.14991 0.74286 0.0
C1206 C 0.98728 0.14245 0.72322 0.0
C1207 C 0.99394 0.12112 0.72035 0.0
H1208 H 0.50751 0.79857 0.24754 0.0
H1209 H 0.44115 0.81692 0.25267 0.0
H1210 H 0.52166 0.82958 0.27471 0.0
H1211 H 0.4552 0.84749 0.27956 0.0
H1212 H 0.48069 0.88762 0.34088 0.0
H1213 H 0.47326 0.85239 0.31839 0.0
H1214 H 0.52363 0.87245 0.27669 0.0
H1215 H 0.53119 0.90787 0.29949 0.0
C1216 C 0.49596 0.80912 0.2545 0.0
C1217 C 0.4732 0.80528 0.24794 0.0
C1218 C 0.50408 0.82686 0.26998 0.0
C1219 C 0.48951 0.84077 0.27941 0.0
C1220 C 0.4668 0.83682 0.27288 0.0
C1221 C 0.45876 0.81937 0.25731 0.0
C1222 C 0.49056 0.88424 0.32725 0.0
C1223 C 0.5063 0.90048 0.3217 0.0
C1224 C 0.48624 0.86416 0.31433 0.0
C1225 C 0.49755 0.8599 0.29554 0.0
C1226 C 0.51468 0.87533 0.29109 0.0
C1227 C 0.51903 0.89554 0.30411 0.0
H1228 H 0.98942 0.55771 0.73842 0.0
H1229 H 0.05054 0.54903 0.70913 0.0
H1230 H 0.9735 0.52252 0.72003 0.0
H1231 H 0.03452 0.5133 0.69088 0.0
H1232 H 0.98449 0.4641 0.64272 0.0
H1233 H 0.00543 0.49739 0.66163 0.0
H1234 H 0.97741 0.48357 0.72222 0.0
H1235 H 0.95633 0.45074 0.70326 0.0
C1236 C 0.99953 0.54826 0.72812 0.0
C1237 C 0.0213 0.55621 0.72533 0.0
C1238 C 0.99043 0.52795 0.71769 0.0
C1239 C 0.00283 0.51496 0.70421 0.0
C1240 C 0.02453 0.52296 0.70113 0.0
C1241 C 0.03371 0.54338 0.71163 0.0
C1242 C 0.98321 0.46803 0.66018 0.0
C1243 C 0.96859 0.45509 0.67149 0.0
C1244 C 0.99517 0.48705 0.671 0.0
C1245 C 0.99273 0.49334 0.69332 0.0
C1246 C 0.9792 0.4795 0.70489 0.0
C1247 C 0.96722 0.46066 0.69408 0.0
H1248 H 0.66023 0.48397 0.58968 0.0
H1249 H 0.67962 0.41878 0.59924 0.0
H1250 H 0.64832 0.47191 0.55077 0.0
H1251 H 0.66778 0.40681 0.56068 0.0
H1252 H 0.62805 0.38583 0.49652 0.0
H1253 H 0.6321 0.40112 0.535 0.0
H1254 H 0.66969 0.45903 0.51726 0.0
H1255 H 0.66604 0.44356 0.47867 0.0
C1256 C 0.66151 0.46699 0.58357 0.0
C1257 C 0.67063 0.45222 0.59745 0.0
C1258 C 0.65491 0.46018 0.56133 0.0
C1259 C 0.657 0.43841 0.5528 0.0
C1260 C 0.66568 0.42359 0.56688 0.0
C1261 C 0.67258 0.43047 0.5889 0.0
C1262 C 0.63705 0.4019 0.50078 0.0
C1263 C 0.64711 0.41329 0.48463 0.0
C1264 C 0.63928 0.41066 0.52277 0.0
C1265 C 0.65142 0.43111 0.52909 0.0
C1266 C 0.66015 0.44327 0.51278 0.0
C1267 C 0.65806 0.43441 0.49071 0.0
H1268 H 0.81073 0.60087 0.18482 0.0
H1269 H 0.74578 0.60684 0.20641 0.0
H1270 H 0.79489 0.57403 0.15444 0.0
H1271 H 0.72989 0.5805 0.17585 0.0
H1272 H 0.70577 0.52603 0.12456 0.0
H1273 H 0.72731 0.54194 0.15872 0.0
H1274 H 0.77136 0.57894 0.12059 0.0
H1275 H 0.75003 0.56287 0.08665 0.0
C1276 C 0.79319 0.59597 0.18347 0.0
C1277 C 0.77951 0.60579 0.1981 0.0
C1278 C 0.78408 0.58079 0.16593 0.0
C1279 C 0.76114 0.57509 0.16276 0.0
C1280 C 0.74764 0.58424 0.178 0.0
C1281 C 0.75671 0.59951 0.19538 0.0
C1282 C 0.72047 0.53702 0.12354 0.0
C1283 C 0.72616 0.54341 0.10305 0.0
C1284 C 0.73268 0.54626 0.14305 0.0
C1285 C 0.75088 0.56189 0.14236 0.0
C1286 C 0.75754 0.56687 0.12172 0.0
C1287 C 0.74526 0.55778 0.10228 0.0
H1288 H 0.28644 0.03195 0.39391 0.0
H1289 H 0.22197 0.04522 0.36632 0.0
H1290 H 0.27673 0.04341 0.43074 0.0
H1291 H 0.21177 0.05564 0.4033 0.0
H1292 H 0.21863 0.1054 0.46619 0.0
H1293 H 0.22214 0.08704 0.42988 0.0
H1294 H 0.25413 0.03524 0.46028 0.0
H1295 H 0.25142 0.05417 0.49667 0.0
C1296 C 0.26999 0.03683 0.3958 0.0
C1297 C 0.25484 0.03733 0.37727 0.0
C1298 C 0.26433 0.04318 0.41693 0.0
C1299 C 0.24341 0.05034 0.42001 0.0
C1300 C 0.22803 0.05026 0.40149 0.0
C1301 C 0.23373 0.0439 0.38031 0.0
C1302 C 0.22626 0.09 0.46512 0.0
C1303 C 0.23503 0.08141 0.48428 0.0
C1304 C 0.22805 0.07932 0.4443 0.0
C1305 C 0.23859 0.05975 0.44215 0.0
C1306 C 0.24621 0.05047 0.46137 0.0
C1307 C 0.24444 0.06118 0.48223 0.0
H1308 H 0.26158 0.06446 0.82697 0.0
H1309 H 0.31833 0.03814 0.80057 0.0
H1310 H 0.2757 0.05724 0.86395 0.0
H1311 H 0.33341 0.03263 0.83757 0.0
H1312 H 0.3415 0.00117 0.90209 0.0
H1313 H 0.32786 0.0093 0.86548 0.0
H1314 H 0.30302 0.06873 0.89348 0.0
H1315 H 0.31528 0.05969 0.93035 0.0
C1316 C 0.2773 0.05753 0.82913 0.0
C1317 C 0.28918 0.05253 0.8109 0.0
C1318 C 0.28552 0.05359 0.85037 0.0
C1319 C 0.30585 0.04454 0.85388 0.0
C1320 C 0.31767 0.03952 0.83557 0.0
C1321 C 0.30931 0.04323 0.81432 0.0
C1322 C 0.33288 0.01583 0.90051 0.0
C1323 C 0.32932 0.02964 0.91927 0.0
C1324 C 0.32535 0.02071 0.87941 0.0
C1325 C 0.31432 0.03971 0.87641 0.0
C1326 C 0.31115 0.05378 0.89514 0.0
C1327 C 0.31848 0.04876 0.9163 0.0
H1328 H 0.54669 0.64461 0.46655 0.0
H1329 H 0.54996 0.68997 0.41605 0.0
H1330 H 0.5068 0.64549 0.46464 0.0
H1331 H 0.51032 0.69005 0.41327 0.0
H1332 H 0.43905 0.68961 0.408 0.0
H1333 H 0.47689 0.69766 0.42438 0.0
H1334 H 0.47696 0.63032 0.44164 0.0
H1335 H 0.43876 0.6231 0.42693 0.0
C1336 C 0.53892 0.65495 0.45518 0.0
C1337 C 0.55149 0.66692 0.44118 0.0
C1338 C 0.51597 0.65532 0.45393 0.0
C1339 C 0.50502 0.66747 0.43846 0.0
C1340 C 0.5179 0.68066 0.42562 0.0
C1341 C 0.5408 0.68044 0.42702 0.0
C1342 C 0.44709 0.67671 0.41574 0.0
C1343 C 0.43621 0.65544 0.41542 0.0
C1344 C 0.46888 0.68124 0.42501 0.0
C1345 C 0.48049 0.66446 0.43371 0.0
C1346 C 0.46881 0.64381 0.43522 0.0
C1347 C 0.44683 0.63951 0.4265 0.0
H1348 H 0.81932 0.26235 0.03641 0.0
H1349 H 0.83543 0.2743 0.10696 0.0
H1350 H 0.85812 0.26087 0.03122 0.0
H1351 H 0.87453 0.27237 0.10173 0.0
H1352 H 0.94071 0.30135 0.07607 0.0
H1353 H 0.90303 0.29567 0.08651 0.0
H1354 H 0.88969 0.24017 0.03696 0.0
H1355 H 0.92721 0.24617 0.02632 0.0
C1356 C 0.83112 0.26433 0.05088 0.0
C1357 C 0.82426 0.26861 0.07209 0.0
C1358 C 0.85341 0.2633 0.0479 0.0
C1359 C 0.86946 0.26649 0.06607 0.0
C1360 C 0.86258 0.27005 0.08739 0.0
C1361 C 0.84018 0.27104 0.09038 0.0
C1362 C 0.92984 0.28765 0.06779 0.0
C1363 C 0.93672 0.27439 0.05019 0.0
C1364 C 0.90827 0.28435 0.07378 0.0
C1365 C 0.89325 0.26766 0.06234 0.0
C1366 C 0.9007 0.25348 0.04576 0.0
C1367 C 0.92217 0.25686 0.0397 0.0
H1368 H 0.23318 0.77575 0.56047 0.0
H1369 H 0.23386 0.84024 0.59567 0.0
H1370 H 0.19294 0.772 0.55765 0.0
H1371 H 0.19352 0.83676 0.59236 0.0
H1372 H 0.12786 0.80236 0.61339 0.0
H1373 H 0.16676 0.81292 0.61009 0.0
H1374 H 0.1587 0.78631 0.54175 0.0
H1375 H 0.11969 0.77541 0.54521 0.0
C1376 C 0.22468 0.78933 0.56716 0.0
C1377 C 0.23664 0.80839 0.57806 0.0
C1378 C 0.20164 0.78727 0.5654 0.0
C1379 C 0.19005 0.80411 0.57474 0.0
C1380 C 0.20201 0.8235 0.58502 0.0
C1381 C 0.22511 0.82563 0.58665 0.0
C1382 C 0.13436 0.79899 0.5976 0.0
C1383 C 0.12085 0.78785 0.57963 0.0
C1384 C 0.15658 0.80523 0.59564 0.0
C1385 C 0.16582 0.80037 0.57568 0.0
C1386 C 0.15206 0.79011 0.55739 0.0
C1387 C 0.12974 0.784 0.55931 0.0
H1388 H 0.40168 0.31022 0.02872 0.0
H1389 H 0.40637 0.35012 0.09108 0.0
H1390 H 0.44139 0.30676 0.0334 0.0
H1391 H 0.44587 0.34688 0.09568 0.0
H1392 H 0.51811 0.35428 0.09115 0.0
H1393 H 0.47956 0.35882 0.08017 0.0
H1394 H 0.4686 0.28951 0.05718 0.0
H1395 H 0.50746 0.28513 0.06788 0.0
C1396 C 0.41109 0.31789 0.0436 0.0
C1397 C 0.40082 0.33001 0.05978 0.0
C1398 C 0.43387 0.31609 0.04617 0.0
C1399 C 0.44681 0.32659 0.06487 0.0
C1400 C 0.43649 0.33891 0.08088 0.0
C1401 C 0.41381 0.34067 0.07831 0.0
C1402 C 0.50751 0.3401 0.08343 0.0
C1403 C 0.51564 0.31931 0.08058 0.0
C1404 C 0.48543 0.34266 0.07726 0.0
C1405 C 0.47091 0.32443 0.06822 0.0
C1406 C 0.47938 0.30389 0.06405 0.0
C1407 C 0.5016 0.30136 0.07015 0.0
H1408 H 0.39787 0.61739 0.65113 0.0
H1409 H 0.34003 0.59345 0.68115 0.0
H1410 H 0.40096 0.58009 0.63418 0.0
H1411 H 0.34328 0.5562 0.66456 0.0
H1412 H 0.34002 0.49902 0.61183 0.0
H1413 H 0.33859 0.537 0.62683 0.0
H1414 H 0.40894 0.54259 0.64468 0.0
H1415 H 0.41042 0.50435 0.62956 0.0
C1416 C 0.3857 0.60419 0.6539 0.0
C1417 C 0.36842 0.60836 0.66704 0.0
C1418 C 0.38764 0.58282 0.64444 0.0
C1419 C 0.3722 0.56528 0.6478 0.0
C1420 C 0.35519 0.56945 0.66132 0.0
C1421 C 0.35342 0.59073 0.67095 0.0
C1422 C 0.35521 0.5083 0.61895 0.0
C1423 C 0.37529 0.49854 0.61973 0.0
C1424 C 0.35437 0.53007 0.62759 0.0
C1425 C 0.37359 0.54268 0.63723 0.0
C1426 C 0.39386 0.53328 0.63728 0.0
C1427 C 0.39471 0.5114 0.62861 0.0
H1428 H 0.98306 0.77672 0.25848 0.0
H1429 H 0.04188 0.7993 0.30136 0.0
H1430 H 0.96847 0.8122 0.26609 0.0
H1431 H 0.02765 0.83513 0.30862 0.0
H1432 H 0.98636 0.89067 0.33164 0.0
H1433 H 0.00071 0.85464 0.32603 0.0
H1434 H 0.97418 0.84903 0.25763 0.0
H1435 H 0.95929 0.88461 0.26357 0.0
C1436 C 0.99285 0.78932 0.26958 0.0
C1437 C 0.01346 0.78517 0.27956 0.0
C1438 C 0.98459 0.80973 0.27383 0.0
C1439 C 0.99693 0.82667 0.28786 0.0
C1440 C 0.01751 0.82239 0.29802 0.0
C1441 C 0.02567 0.80183 0.29394 0.0
C1442 C 0.98372 0.8817 0.31541 0.0
C1443 C 0.97161 0.89032 0.29807 0.0
C1444 C 0.99198 0.86109 0.31216 0.0
C1445 C 0.98849 0.84878 0.29141 0.0
C1446 C 0.97674 0.85773 0.27398 0.0
C1447 C 0.96828 0.87818 0.27731 0.0
H1448 H 0.58414 0.21334 0.76651 0.0
H1449 H 0.61775 0.21754 0.83202 0.0
H1450 H 0.57546 0.17385 0.76756 0.0
H1451 H 0.60878 0.17779 0.83326 0.0
H1452 H 0.62283 0.10644 0.80399 0.0
H1453 H 0.62339 0.14625 0.81246 0.0
H1454 H 0.55566 0.14377 0.7847 0.0
H1455 H 0.55528 0.10391 0.77578 0.0
C1456 C 0.58917 0.20586 0.78138 0.0
C1457 C 0.60158 0.21848 0.79919 0.0
C1458 C 0.58405 0.18325 0.78206 0.0
C1459 C 0.59146 0.17267 0.80048 0.0
C1460 C 0.60292 0.1855 0.81881 0.0
C1461 C 0.60785 0.20827 0.81821 0.0
C1462 C 0.60798 0.11438 0.79996 0.0
C1463 C 0.58913 0.10215 0.78892 0.0
C1464 C 0.6082 0.13714 0.80506 0.0
C1465 C 0.58961 0.14817 0.79913 0.0
C1466 C 0.5703 0.13573 0.78929 0.0
C1467 C 0.57004 0.11291 0.7843 0.0
H1468 H 0.03295 0.37607 0.3137 0.0
H1469 H 0.10316 0.39077 0.31191 0.0
H1470 H 0.02617 0.40782 0.2925 0.0
H1471 H 0.09639 0.4219 0.29039 0.0
H1472 H 0.07728 0.46147 0.23495 0.0
H1473 H 0.07388 0.4255 0.2497 0.0
H1474 H 0.04091 0.45329 0.30382 0.0
H1475 H 0.04489 0.48959 0.28948 0.0
C1476 C 0.04685 0.38586 0.30844 0.0
C1477 C 0.06857 0.381 0.31426 0.0
C1478 C 0.04297 0.40397 0.29645 0.0
C1479 C 0.06077 0.41702 0.28969 0.0
C1480 C 0.08241 0.41186 0.2952 0.0
C1481 C 0.08628 0.39418 0.30758 0.0
C1482 C 0.06876 0.45979 0.24967 0.0
C1483 C 0.06176 0.47841 0.26132 0.0
C1484 C 0.0668 0.43923 0.25804 0.0
C1485 C 0.0574 0.43683 0.27798 0.0
C1486 C 0.04815 0.45481 0.28836 0.0
C1487 C 0.05036 0.47553 0.2801 0.0
H1488 H 0.43275 0.56929 0.4118 0.0
H1489 H 0.41611 0.60386 0.35467 0.0
H1490 H 0.4702 0.58731 0.41487 0.0
H1491 H 0.45343 0.62152 0.3574 0.0
H1492 H 0.51715 0.66323 0.37572 0.0
H1493 H 0.47914 0.64785 0.37758 0.0
H1494 H 0.50324 0.58721 0.39762 0.0
H1495 H 0.54115 0.60338 0.39703 0.0
C1496 C 0.43707 0.58075 0.39991 0.0
C1497 C 0.42146 0.58514 0.38298 0.0
C1498 C 0.45861 0.59093 0.40152 0.0
C1499 C 0.46495 0.60584 0.38634 0.0
C1500 C 0.44914 0.61044 0.36964 0.0
C1501 C 0.4277 0.60021 0.36798 0.0
C1502 C 0.51414 0.64672 0.38076 0.0
C1503 C 0.53176 0.63437 0.38622 0.0
C1504 C 0.49244 0.6378 0.38162 0.0
C1505 C 0.48804 0.61612 0.38743 0.0
C1506 C 0.50593 0.60401 0.39332 0.0
C1507 C 0.52764 0.61313 0.39281 0.0
H1508 H 0.10422 0.33567 0.63791 0.0
H1509 H 0.11418 0.40663 0.63787 0.0
H1510 H 0.06502 0.33688 0.62684 0.0
H1511 H 0.07504 0.40787 0.62736 0.0
H1512 H 0.00479 0.4031 0.59671 0.0
H1513 H 0.04444 0.39853 0.59944 0.0
H1514 H 0.03438 0.34955 0.64572 0.0
H1515 H 0.99483 0.35391 0.64245 0.0
C1516 C 0.09812 0.35149 0.63528 0.0
C1517 C 0.11229 0.37108 0.639 0.0
C1518 C 0.07563 0.35219 0.62908 0.0
C1519 C 0.06684 0.37249 0.62646 0.0
C1520 C 0.08126 0.39193 0.62904 0.0
C1521 C 0.10372 0.39123 0.63521 0.0
C1522 C 0.01118 0.39118 0.60718 0.0
C1523 C 0.99708 0.37879 0.61936 0.0
C1524 C 0.0338 0.38862 0.60885 0.0
C1525 C 0.0426 0.37368 0.62281 0.0
C1526 C 0.02815 0.36093 0.63455 0.0
C1527 C 0.00557 0.36349 0.63283 0.0
H1528 H 0.82986 0.9742 0.66433 0.0
H1529 H 0.82239 0.04312 0.68175 0.0
H1530 H 0.86727 0.97905 0.68234 0.0
H1531 H 0.85979 0.04786 0.70014 0.0
H1532 H 0.9364 0.05227 0.70255 0.0
H1533 H 0.8973 0.0483 0.68875 0.0
H1534 H 0.88874 0.98645 0.71809 0.0
H1535 H 0.92799 0.99044 0.73151 0.0
C1536 C 0.8361 0.99034 0.67222 0.0
C1537 C 0.82316 0.0083 0.67147 0.0
C1538 C 0.85753 0.99308 0.68268 0.0
C1539 C 0.86655 0.01386 0.69262 0.0
C1540 C 0.85341 0.03171 0.69237 0.0
C1541 C 0.83194 0.02895 0.68194 0.0
C1542 C 0.926 0.03798 0.70617 0.0
C1543 C 0.93491 0.02164 0.71799 0.0
C1544 C 0.90364 0.03574 0.69841 0.0
C1545 C 0.8899 0.01703 0.7023 0.0
C1546 C 0.89893 0.00091 0.71459 0.0
C1547 C 0.92129 0.00321 0.72237 0.0
H1548 H 0.6656 0.02518 0.28253 0.0
H1549 H 0.68709 0.96076 0.29233 0.0
H1550 H 0.63548 0.01809 0.30523 0.0
H1551 H 0.65715 0.95384 0.31568 0.0
H1552 H 0.5841 0.93943 0.3301 0.0
H1553 H 0.61778 0.94621 0.31159 0.0
H1554 H 0.62555 0.01365 0.34128 0.0
H1555 H 0.59174 0.00674 0.35932 0.0
C1556 C 0.66409 0.0096 0.2898 0.0
C1557 C 0.67864 0.99346 0.28543 0.0
C1558 C 0.64685 0.00557 0.30297 0.0
C1559 C 0.64375 0.98531 0.31219 0.0
C1560 C 0.65879 0.96945 0.30847 0.0
C1561 C 0.67606 0.97349 0.29524 0.0
C1562 C 0.59328 0.95556 0.33278 0.0
C1563 C 0.58558 0.97261 0.34596 0.0
C1564 C 0.61258 0.95947 0.3223 0.0
C1565 C 0.62434 0.98055 0.32482 0.0
C1566 C 0.61672 0.99736 0.33862 0.0
C1567 C 0.5975 0.9934 0.3491 0.0
H1568 H 0.37699 0.39286 0.5215 0.0
H1569 H 0.33256 0.36569 0.56586 0.0
H1570 H 0.36177 0.42821 0.5266 0.0
H1571 H 0.31738 0.40118 0.57111 0.0
H1572 H 0.28586 0.46614 0.56694 0.0
H1573 H 0.29703 0.42909 0.5575 0.0
H1574 H 0.36393 0.45745 0.55403 0.0
H1575 H 0.35247 0.49412 0.56306 0.0
C1576 C 0.3639 0.3944 0.5323 0.0
C1577 C 0.35619 0.37652 0.54348 0.0
C1578 C 0.35525 0.41476 0.53535 0.0
C1579 C 0.33869 0.4178 0.54971 0.0
C1580 C 0.33019 0.39956 0.56003 0.0
C1581 C 0.33896 0.37919 0.55709 0.0
C1582 C 0.30292 0.46421 0.56415 0.0
C1583 C 0.31841 0.48266 0.56567 0.0
C1584 C 0.30936 0.44308 0.5588 0.0
C1585 C 0.33139 0.44019 0.55487 0.0
C1586 C 0.34676 0.45895 0.55651 0.0
C1587 C 0.34031 0.47996 0.56188 0.0
H1588 H 0.30855 0.63711 0.97713 0.0
H1589 H 0.2465 0.64186 0.00568 0.0
H1590 H 0.29468 0.60125 0.95832 0.0
H1591 H 0.2328 0.60572 0.98722 0.0
H1592 H 0.20734 0.55899 0.92463 0.0
H1593 H 0.22144 0.59169 0.94928 0.0
H1594 H 0.283 0.56288 0.96239 0.0
H1595 H 0.2688 0.53034 0.93726 0.0
C1596 C 0.29207 0.63035 0.97968 0.0
C1597 C 0.27855 0.64246 0.99272 0.0
C1598 C 0.28416 0.6097 0.969 0.0
C1599 C 0.26257 0.60067 0.97114 0.0
C1600 C 0.24939 0.61238 0.98494 0.0
C1601 C 0.25729 0.63304 0.99561 0.0
C1602 C 0.22375 0.55964 0.93308 0.0
C1603 C 0.23707 0.5424 0.92925 0.0
C1604 C 0.23181 0.57825 0.94726 0.0
C1605 C 0.25338 0.57992 0.95781 0.0
C1606 C 0.26643 0.56221 0.95434 0.0
C1607 C 0.25832 0.54358 0.94012 0.0
H1608 H 0.6831 0.08884 0.3586 0.0
H1609 H 0.67759 0.08543 0.42837 0.0
H1610 H 0.66961 0.04979 0.35166 0.0
H1611 H 0.66441 0.0465 0.42144 0.0
H1612 H 0.6261 0.98014 0.4002 0.0
H1613 H 0.63369 0.02045 0.40396 0.0
H1614 H 0.68519 0.01484 0.35989 0.0
H1615 H 0.67745 0.97459 0.35628 0.0
C1616 C 0.67878 0.07985 0.37242 0.0
C1617 C 0.68156 0.09022 0.39407 0.0
C1618 C 0.6712 0.05746 0.36845 0.0
C1619 C 0.66609 0.04503 0.38602 0.0
C1620 C 0.66801 0.05565 0.40752 0.0
C1621 C 0.67569 0.07796 0.41151 0.0
C1622 C 0.6389 0.98768 0.39125 0.0
C1623 C 0.6512 0.97459 0.37792 0.0
C1624 C 0.6433 0.01065 0.39343 0.0
C1625 C 0.66008 0.02083 0.38227 0.0
C1626 C 0.67201 0.00754 0.36851 0.0
C1627 C 0.66769 0.98456 0.36649 0.0
H1628 H 0.57147 0.87078 0.96329 0.0
H1629 H 0.61894 0.86852 0.01953 0.0
H1630 H 0.58102 0.91051 0.9639 0.0
H1631 H 0.62815 0.90817 0.02036 0.0
H1632 H 0.65743 0.97365 0.99917 0.0
H1633 H 0.64697 0.93397 0.99842 0.0
H1634 H 0.57831 0.94549 0.98588 0.0
H1635 H 0.58904 0.98518 0.98629 0.0
C1636 C 0.58381 0.87877 0.97588 0.0
C1637 C 0.59451 0.86645 0.99129 0.0
C1638 C 0.58921 0.90155 0.97629 0.0
C1639 C 0.60544 0.91249 0.9921 0.0
C1640 C 0.61585 0.9002 0.00773 0.0
C1641 C 0.61045 0.87747 0.00733 0.0
C1642 C 0.64014 0.96756 0.99622 0.0
C1643 C 0.62398 0.98217 0.99276 0.0
C1644 C 0.63411 0.94494 0.99593 0.0
C1645 C 0.61178 0.93656 0.99218 0.0
C1646 C 0.59565 0.95137 0.98859 0.0
C1647 C 0.60172 0.97403 0.98891 0.0
H1648 H 0.57421 0.34943 0.39956 0.0
H1649 H 0.6338 0.3286 0.37412 0.0
H1650 H 0.57333 0.3191 0.42285 0.0
H1651 H 0.63324 0.29846 0.39777 0.0
H1652 H 0.62485 0.24068 0.43825 0.0
H1653 H 0.6186 0.265 0.4088 0.0
H1654 H 0.59231 0.31126 0.45521 0.0
H1655 H 0.59762 0.2864 0.4839 0.0
C1656 C 0.58713 0.33833 0.39891 0.0
C1657 C 0.60424 0.34162 0.38521 0.0
C1658 C 0.5867 0.32095 0.41238 0.0
C1659 C 0.60351 0.30653 0.4127 0.0
C1660 C 0.62001 0.30918 0.39809 0.0
C1661 C 0.62041 0.32656 0.38455 0.0
C1662 C 0.61734 0.25589 0.44182 0.0
C1663 C 0.61164 0.26186 0.4631 0.0
C1664 C 0.61386 0.2699 0.42506 0.0
C1665 C 0.60486 0.29018 0.42949 0.0
C1666 C 0.59872 0.29563 0.45088 0.0
C1667 C 0.60201 0.28155 0.46745 0.0
H1668 H 0.9663 0.24237 0.64056 0.0
H1669 H 0.95641 0.17416 0.65453 0.0
H1670 H 0.96452 0.23073 0.60128 0.0
H1671 H 0.9543 0.16254 0.61509 0.0
H1672 H 0.981 0.15229 0.54582 0.0
H1673 H 0.97913 0.16169 0.58539 0.0
H1674 H 0.93843 0.21415 0.57055 0.0
H1675 H 0.94071 0.2048 0.53103 0.0
C1676 C 0.96363 0.22489 0.63525 0.0
C1677 C 0.96155 0.20919 0.65069 0.0
C1678 C 0.96244 0.21823 0.61271 0.0
C1679 C 0.95917 0.19571 0.60506 0.0
C1680 C 0.957 0.18 0.62048 0.0
C1681 C 0.95814 0.18667 0.64307 0.0
C1682 C 0.9714 0.16558 0.55116 0.0
C1683 C 0.96092 0.17784 0.5357 0.0
C1684 C 0.97027 0.17094 0.57373 0.0
C1685 C 0.95873 0.18875 0.58111 0.0
C1686 C 0.94769 0.20054 0.5654 0.0
C1687 C 0.94882 0.19513 0.54285 0.0
H1688 H 0.44667 0.7294 0.11362 0.0
H1689 H 0.38194 0.72718 0.13754 0.0
H1690 H 0.43014 0.71542 0.07694 0.0
H1691 H 0.36541 0.71269 0.10084 0.0
H1692 H 0.34433 0.71662 0.02634 0.0
H1693 H 0.35913 0.72633 0.06479 0.0
H1694 H 0.41108 0.6834 0.05538 0.0
H1695 H 0.39641 0.67425 0.01681 0.0
C1696 C 0.42892 0.72568 0.11113 0.0
C1697 C 0.41562 0.72954 0.1285 0.0
C1698 C 0.41944 0.71751 0.09009 0.0
C1699 C 0.39643 0.71296 0.08592 0.0
C1700 C 0.38316 0.71631 0.10343 0.0
C1701 C 0.39265 0.7245 0.12449 0.0
C1702 C 0.35874 0.70912 0.03271 0.0
C1703 C 0.36932 0.69473 0.01894 0.0
C1704 C 0.36717 0.71456 0.05469 0.0
C1705 C 0.38636 0.70569 0.06316 0.0
C1706 C 0.39648 0.69074 0.04931 0.0
C1707 C 0.38804 0.68536 0.02735 0.0
H1708 H 0.02431 0.6679 0.83083 0.0
H1709 H 0.09255 0.65382 0.8393 0.0
H1710 H 0.02791 0.68708 0.8677 0.0
H1711 H 0.0963 0.6735 0.87609 0.0
H1712 H 0.08301 0.68143 0.95005 0.0
H1713 H 0.08321 0.66685 0.9115 0.0
H1714 H 0.04469 0.71909 0.89101 0.0
H1715 H 0.04418 0.73321 0.92974 0.0
C1716 C 0.04019 0.66918 0.84042 0.0
C1717 C 0.05809 0.65915 0.83217 0.0
C1718 C 0.0423 0.68032 0.86155 0.0
C1719 C 0.06237 0.68175 0.87492 0.0
C1720 C 0.08051 0.67241 0.86635 0.0
C1721 C 0.07839 0.66123 0.84521 0.0
C1722 C 0.07486 0.68986 0.93719 0.0
C1723 C 0.06358 0.70832 0.94257 0.0
C1724 C 0.07505 0.68164 0.91514 0.0
C1725 C 0.06391 0.69177 0.89814 0.0
C1726 C 0.05318 0.71073 0.9037 0.0
C1727 C 0.05299 0.71891 0.92578 0.0
H1728 H 0.56298 0.48596 0.6273 0.0
H1729 H 0.56682 0.47663 0.55681 0.0
H1730 H 0.52293 0.48006 0.62161 0.0
H1731 H 0.52662 0.47125 0.55109 0.0
H1732 H 0.45927 0.43082 0.55426 0.0
H1733 H 0.49877 0.44249 0.55731 0.0
H1734 H 0.48931 0.49435 0.60749 0.0
H1735 H 0.44977 0.48211 0.60463 0.0
C1736 C 0.55527 0.48298 0.61055 0.0
C1737 C 0.56812 0.48155 0.59252 0.0
C1738 C 0.53226 0.47975 0.60728 0.0
C1739 C 0.52154 0.47507 0.58589 0.0
C1740 C 0.53437 0.47448 0.5678 0.0
C1741 C 0.55741 0.47768 0.57108 0.0
C1742 C 0.46571 0.44489 0.56569 0.0
C1743 C 0.45178 0.45567 0.5792 0.0
C1744 C 0.48826 0.45168 0.56738 0.0
C1745 C 0.49724 0.46937 0.58267 0.0
C1746 C 0.48298 0.48052 0.59574 0.0
C1747 C 0.46039 0.47367 0.59404 0.0
H1748 H 0.89748 0.57059 0.20858 0.0
H1749 H 0.89464 0.57303 0.27923 0.0
H1750 H 0.93579 0.56215 0.21307 0.0
H1751 H 0.93289 0.56419 0.28366 0.0
H1752 H 0.00841 0.58158 0.2826 0.0
H1753 H 0.96851 0.5841 0.2798 0.0
H1754 H 0.96061 0.53479 0.22384 0.0
H1755 H 0.00069 0.5327 0.22661 0.0
C1756 C 0.90492 0.56901 0.22504 0.0
C1757 C 0.89306 0.5727 0.24356 0.0
C1758 C 0.92686 0.56403 0.2276 0.0
C1759 C 0.93743 0.56263 0.24874 0.0
C1760 C 0.9253 0.56548 0.26719 0.0
C1761 C 0.90335 0.57044 0.26463 0.0
C1762 C 0.99801 0.57113 0.26993 0.0
C1763 C 0.0073 0.55699 0.2548 0.0
C1764 C 0.9752 0.57245 0.26836 0.0
C1765 C 0.96138 0.55965 0.25156 0.0
C1766 C 0.97083 0.54503 0.23679 0.0
C1767 C 0.99366 0.54372 0.23842 0.0
H1768 H 0.14295 0.99841 0.36263 0.0
H1769 H 0.13498 0.98773 0.29141 0.0
H1770 H 0.1032 0.99069 0.36365 0.0
H1771 H 0.09526 0.98044 0.29244 0.0
H1772 H 0.02739 0.9482 0.30292 0.0
H1773 H 0.06765 0.95343 0.3033 0.0
H1774 H 0.06938 0.00764 0.35402 0.0
H1775 H 0.02915 0.00194 0.3538 0.0
C1776 C 0.13273 0.99443 0.34719 0.0
C1777 C 0.14214 0.99371 0.32693 0.0
C1778 C 0.10993 0.99012 0.34778 0.0
C1779 C 0.09604 0.98497 0.32813 0.0
C1780 C 0.10551 0.98406 0.30789 0.0
C1781 C 0.12829 0.98838 0.3073 0.0
C1782 C 0.03652 0.96108 0.31423 0.0
C1783 C 0.02548 0.97466 0.32838 0.0
C1784 C 0.05948 0.96419 0.31437 0.0
C1785 C 0.07173 0.98101 0.32864 0.0
C1786 C 0.06049 0.99438 0.34302 0.0
C1787 C 0.03752 0.99123 0.34286 0.0
H1788 H 0.40277 0.06228 0.80218 0.0
H1789 H 0.39958 0.04502 0.73178 0.0
H1790 H 0.44176 0.05571 0.80556 0.0
H1791 H 0.43856 0.03886 0.73514 0.0
H1792 H 0.50063 0.00483 0.75273 0.0
H1793 H 0.46177 0.01219 0.75008 0.0
H1794 H 0.47801 0.07042 0.79589 0.0
H1795 H 0.51689 0.06264 0.7987 0.0
C1796 C 0.41041 0.05724 0.78741 0.0
C1797 C 0.39802 0.05408 0.76672 0.0
C1798 C 0.43278 0.05358 0.78934 0.0
C1799 C 0.44324 0.04664 0.77064 0.0
C1800 C 0.43091 0.04383 0.74992 0.0
C1801 C 0.40858 0.0475 0.74799 0.0
C1802 C 0.49576 0.01911 0.76226 0.0
C1803 C 0.51146 0.03317 0.77594 0.0
C1804 C 0.4736 0.02345 0.76065 0.0
C1805 C 0.4668 0.04196 0.77269 0.0
C1806 C 0.48267 0.05592 0.78657 0.0
C1807 C 0.50488 0.05156 0.78814 0.0
H1808 H 0.64656 0.57303 0.45271 0.0
H1809 H 0.63468 0.57503 0.38217 0.0
H1810 H 0.6509 0.53365 0.44725 0.0
H1811 H 0.63846 0.53541 0.3768 0.0
H1812 H 0.61351 0.46129 0.38432 0.0
H1813 H 0.61425 0.50173 0.38759 0.0
H1814 H 0.67529 0.50629 0.42964 0.0
H1815 H 0.67449 0.46584 0.42615 0.0
C1816 C 0.64512 0.56515 0.43601 0.0
C1817 C 0.6398 0.57709 0.41788 0.0
C1818 C 0.64763 0.54258 0.43291 0.0
C1819 C 0.6447 0.53145 0.41163 0.0
C1820 C 0.64042 0.54354 0.39341 0.0
C1821 C 0.63824 0.5662 0.3965 0.0
C1822 C 0.6272 0.47107 0.3939 0.0
C1823 C 0.64407 0.46078 0.40476 0.0
C1824 C 0.62769 0.4941 0.39573 0.0
C1825 C 0.64496 0.50712 0.40866 0.0
C1826 C 0.66182 0.49665 0.41956 0.0
C1827 C 0.6614 0.47362 0.41755 0.0
H1828 H 0.7678 0.3651 0.06447 0.0
H1829 H 0.71105 0.34073 0.09609 0.0
H1830 H 0.75126 0.3994 0.05952 0.0
H1831 H 0.6946 0.3754 0.09142 0.0
H1832 H 0.66306 0.43054 0.05463 0.0
H1833 H 0.67872 0.3959 0.06191 0.0
H1834 H 0.7423 0.43215 0.08132 0.0
H1835 H 0.72656 0.46659 0.07359 0.0
C1836 C 0.75181 0.36708 0.07045 0.0
C1837 C 0.74075 0.35017 0.0807 0.0
C1838 C 0.7424 0.38684 0.06775 0.0
C1839 C 0.72169 0.39021 0.07522 0.0
C1840 C 0.71052 0.37325 0.08535 0.0
C1841 C 0.71997 0.35343 0.0881 0.0
C1842 C 0.68032 0.43097 0.06065 0.0
C1843 C 0.69372 0.45096 0.06361 0.0
C1844 C 0.68927 0.41123 0.06491 0.0
C1845 C 0.71178 0.41126 0.0721 0.0
C1846 C 0.72498 0.43153 0.0755 0.0
C1847 C 0.71601 0.45123 0.07125 0.0
H1848 H 0.25194 0.92595 0.54756 0.0
H1849 H 0.22829 0.93424 0.61223 0.0
H1850 H 0.24696 0.96445 0.54251 0.0
H1851 H 0.2238 0.97287 0.60738 0.0
H1852 H 0.20035 0.03676 0.58386 0.0
H1853 H 0.20224 0.99712 0.58676 0.0
H1854 H 0.26402 0.00053 0.55679 0.0
H1855 H 0.26164 0.03995 0.55351 0.0
C1856 C 0.24566 0.93597 0.5607 0.0
C1857 C 0.2406 0.92703 0.58034 0.0
C1858 C 0.24293 0.95809 0.55785 0.0
C1859 C 0.23509 0.9718 0.57458 0.0
C1860 C 0.22963 0.96273 0.59405 0.0
C1861 C 0.23233 0.94059 0.59689 0.0
C1862 C 0.2142 0.02886 0.57783 0.0
C1863 C 0.23088 0.0411 0.56851 0.0
C1864 C 0.21539 0.00626 0.57958 0.0
C1865 C 0.23331 0.99563 0.57204 0.0
C1866 C 0.24985 0.00809 0.56248 0.0
C1867 C 0.24861 0.03063 0.56072 0.0
H1868 H 0.32323 0.2056 0.00422 0.0
H1869 H 0.39439 0.21504 0.01542 0.0
H1870 H 0.32508 0.16594 0.99738 0.0
H1871 H 0.39625 0.17539 0.00807 0.0
H1872 H 0.38755 0.10259 0.02365 0.0
H1873 H 0.38723 0.14276 0.02662 0.0
H1874 H 0.33641 0.13704 0.97212 0.0
H1875 H 0.33655 0.09672 0.96964 0.0
C1876 C 0.33929 0.19925 0.00497 0.0
C1877 C 0.35865 0.21348 0.01054 0.0
C1878 C 0.34036 0.1765 0.0009 0.0
C1879 C 0.36081 0.16746 0.00226 0.0
C1880 C 0.38021 0.18178 0.00723 0.0
C1881 C 0.37914 0.20453 0.01133 0.0
C1882 C 0.37649 0.11006 0.01224 0.0
C1883 C 0.3621 0.09688 0.99643 0.0
C1884 C 0.37637 0.13301 0.01381 0.0
C1885 C 0.3618 0.14314 -0.00042 0.0
C1886 C 0.34765 0.12975 0.98347 0.0
C1887 C 0.34779 0.10676 0.98193 0.0
H1888 H 0.38887 0.58537 0.55988 0.0
H1889 H 0.36714 0.6508 0.55754 0.0
H1890 H 0.38309 0.57953 0.5197 0.0
H1891 H 0.36082 0.6447 0.5175 0.0
H1892 H 0.33147 0.61871 0.44849 0.0
H1893 H 0.33561 0.62093 0.48895 0.0
H1894 H 0.399 0.59455 0.48689 0.0
H1895 H 0.39459 0.59218 0.44645 0.0
C1896 C 0.38286 0.59849 0.55081 0.0
C1897 C 0.37852 0.61857 0.5619 0.0
C1898 C 0.37951 0.59512 0.5278 0.0
C1899 C 0.37129 0.61157 0.51547 0.0
C1900 C 0.36689 0.6316 0.52658 0.0
C1901 C 0.37066 0.63515 0.54951 0.0
C1902 C 0.34605 0.61305 0.4568 0.0
C1903 C 0.3627 0.60521 0.44467 0.0
C1904 C 0.34854 0.61451 0.47986 0.0
C1905 C 0.36777 0.60819 0.49105 0.0
C1906 C 0.38399 0.59946 0.47871 0.0
C1907 C 0.38149 0.59808 0.45566 0.0
H1908 H 0.0603 0.75968 0.39624 0.0
H1909 H 0.0233 0.81702 0.39933 0.0
H1910 H 0.06229 0.76013 0.43624 0.0
H1911 H 0.0257 0.81772 0.43949 0.0
H1912 H 0.00953 0.79207 0.50627 0.0
H1913 H 0.01015 0.79561 0.4667 0.0
H1914 H 0.07824 0.7805 0.47052 0.0
H1915 H 0.07725 0.77655 0.51006 0.0
C1916 C 0.05279 0.77254 0.40546 0.0
C1917 C 0.04152 0.78824 0.39455 0.0
C1918 C 0.05407 0.77288 0.42845 0.0
C1919 C 0.04412 0.78894 0.44109 0.0
C1920 C 0.03328 0.80495 0.43022 0.0
C1921 C 0.03201 0.80462 0.4072 0.0
C1922 C 0.02463 0.78976 0.49857 0.0
C1923 C 0.04334 0.78409 0.51093 0.0
C1924 C 0.02507 0.79189 0.47599 0.0
C1925 C 0.04424 0.78831 0.46541 0.0
C1926 C 0.06313 0.7831 0.47809 0.0
C1927 C 0.06266 0.78098 0.50069 0.0
H1928 H 0.62526 0.23112 0.93113 0.0
H1929 H 0.57452 0.27283 0.91189 0.0
H1930 H 0.61925 0.23949 0.96975 0.0
H1931 H 0.56821 0.28085 0.95055 0.0
H1932 H 0.58451 0.31138 0.0229 0.0
H1933 H 0.58713 0.30144 0.98355 0.0
H1934 H 0.59294 0.23356 0.99673 0.0
H1935 H 0.59076 0.24382 0.03611 0.0
C1936 C 0.61267 0.24192 0.93511 0.0
C1937 C 0.60045 0.25137 0.9184 0.0
C1938 C 0.60913 0.24661 0.95728 0.0
C1939 C 0.59326 0.26087 0.96328 0.0
C1940 C 0.58076 0.27003 0.94653 0.0
C1941 C 0.5843 0.26533 0.92435 0.0
C1942 C 0.58613 0.29433 0.01721 0.0
C1943 C 0.58744 0.2783 0.03225 0.0
C1944 C 0.58753 0.28859 0.99473 0.0
C1945 C 0.59032 0.26669 0.98697 0.0
C1946 C 0.59111 0.25061 0.00218 0.0
C1947 C 0.58971 0.25639 0.02464 0.0
H1948 H 0.0463 0.2813 0.2212 0.0
H1949 H 0.01211 0.3405 0.22124 0.0
H1950 H 0.04133 0.2768 0.18103 0.0
H1951 H 0.00683 0.33576 0.181 0.0
H1952 H 0.0281 0.33507 0.11007 0.0
H1953 H 0.03016 0.33872 0.15046 0.0
H1954 H 0.01326 0.2684 0.14972 0.0
H1955 H 0.01159 0.26492 0.10929 0.0
C1956 C 0.03752 0.29323 0.21266 0.0
C1957 C 0.0297 0.31132 0.22443 0.0
C1958 C 0.03457 0.29058 0.18962 0.0
C1959 C 0.02377 0.30597 0.17782 0.0
C1960 C 0.01549 0.32379 0.18961 0.0
C1961 C 0.0184 0.32642 0.21267 0.0
C1962 C 0.02482 0.32048 0.11867 0.0
C1963 C 0.01983 0.29973 0.10691 0.0
C1964 C 0.02583 0.32255 0.14171 0.0
C1965 C 0.02185 0.30384 0.1533 0.0
C1966 C 0.01665 0.28307 0.1413 0.0
C1967 C 0.01562 0.28105 0.11824 0.0
loop_
_geom_bond_atom_site_label_1
_geom_bond_atom_site_label_2
_geom_bond_distance
_geom_bond_site_symmetry_2
_ccdc_geom_bond_type
O0 Cd1 2.300 . S
O0 C7 1.275 . S
Cd1 O0 2.300 . S
Cd1 O9 2.381 . S
Cd1 O10 2.378 . S
O2 Cd3 2.385 . S
O2 C7 1.255 . S
Cd3 O2 2.385 . S
Cd3 O4 2.317 . S
O4 Cd3 2.317 . S
O4 C5 1.232 . S
C5 O4 1.232 . S
C5 O6 1.218 . S
O6 C5 1.218 . S
C7 O0 1.275 . S
C7 O2 1.255 . S
C8 O9 1.258 . S
C8 O10 1.256 . S
O9 Cd1 2.381 . S
O9 C8 1.258 . S
O10 Cd1 2.378 . S
O10 C8 1.256 . S
O11 Cd12 2.300 . S
O11 C18 1.275 . S
Cd12 O11 2.300 . S
Cd12 O20 2.381 . S
Cd12 O21 2.378 . S
O13 Cd14 2.385 . S
O13 C18 1.255 . S
Cd14 O13 2.385 . S
Cd14 O15 2.317 . S
O15 Cd14 2.317 . S
O15 C16 1.232 . S
C16 O15 1.232 . S
C16 O17 1.218 . S
O17 C16 1.218 . S
C18 O11 1.275 . S
C18 O13 1.255 . S
C19 O20 1.258 . S
C19 O21 1.256 . S
O20 Cd12 2.381 . S
O20 C19 1.258 . S
O21 Cd12 2.378 . S
O21 C19 1.256 . S
O22 Cd23 2.302 . S
O22 C29 1.277 . S
Cd23 O22 2.302 . S
Cd23 O31 2.381 1_565 S
Cd23 O32 2.378 . S
O24 Cd25 2.385 . S
O24 C29 1.255 . S
Cd25 O24 2.385 . S
Cd25 O26 2.317 . S
O26 Cd25 2.317 . S
O26 C27 1.232 . S
C27 O26 1.232 . S
C27 O28 1.218 . S
O28 C27 1.218 . S
C29 O22 1.277 . S
C29 O24 1.255 . S
C30 O31 1.258 . S
C30 O32 1.256 1_545 S
O31 Cd23 2.381 1_545 S
O31 C30 1.258 . S
O32 Cd23 2.378 . S
O32 C30 1.256 1_565 S
O33 Cd34 2.300 1_565 S
O33 C40 1.275 1_565 S
Cd34 O33 2.300 1_545 S
Cd34 O42 2.381 1_545 S
Cd34 O43 2.378 . S
O35 Cd36 2.385 . S
O35 C40 1.255 . S
Cd36 O35 2.385 . S
Cd36 O37 2.317 . S
O37 Cd36 2.317 . S
O37 C38 1.232 . S
C38 O37 1.232 . S
C38 O39 1.218 . S
O39 C38 1.218 . S
C40 O33 1.275 1_545 S
C40 O35 1.255 . S
C41 O42 1.258 1_545 S
C41 O43 1.256 . S
O42 Cd34 2.381 1_565 S
O42 C41 1.258 1_565 S
O43 Cd34 2.378 . S
O43 C41 1.256 . S
O44 Cd45 2.300 . S
O44 C51 1.275 . S
Cd45 O44 2.300 . S
Cd45 O53 2.381 . S
Cd45 O54 2.378 . S
O46 Cd47 2.385 . S
O46 C51 1.255 . S
Cd47 O46 2.385 . S
Cd47 O48 2.317 . S
O48 Cd47 2.317 . S
O48 C49 1.232 . S
C49 O48 1.232 . S
C49 O50 1.218 . S
O50 C49 1.218 . S
C51 O44 1.275 . S
C51 O46 1.255 . S
C52 O53 1.258 . S
C52 O54 1.256 . S
O53 Cd45 2.381 . S
O53 C52 1.258 . S
O54 Cd45 2.378 . S
O54 C52 1.256 . S
O55 Cd56 2.300 1_556 S
O55 C62 1.275 1_556 S
Cd56 O55 2.300 1_554 S
Cd56 O64 2.381 1_554 S
Cd56 O65 2.378 . S
O57 Cd58 2.385 . S
O57 C62 1.255 . S
Cd58 O57 2.385 . S
Cd58 O59 2.317 . S
O59 Cd58 2.317 . S
O59 C60 1.232 . S
C60 O59 1.232 . S
C60 O61 1.218 . S
O61 C60 1.218 . S
C62 O55 1.275 1_554 S
C62 O57 1.255 . S
C63 O64 1.258 1_554 S
C63 O65 1.256 . S
O64 Cd56 2.381 1_556 S
O64 C63 1.258 1_556 S
O65 Cd56 2.378 . S
O65 C63 1.256 . S
O66 Cd67 2.300 . S
O66 C73 1.275 . S
Cd67 O66 2.300 . S
Cd67 O75 2.381 . S
Cd67 O76 2.378 . S
O68 Cd69 2.385 . S
O68 C73 1.255 . S
Cd69 O68 2.385 . S
Cd69 O70 2.317 . S
O70 Cd69 2.317 . S
O70 C71 1.232 . S
C71 O70 1.232 . S
C71 O72 1.218 . S
O72 C71 1.218 . S
C73 O66 1.275 . S
C73 O68 1.255 . S
C74 O75 1.258 . S
C74 O76 1.256 . S
O75 Cd67 2.381 . S
O75 C74 1.258 . S
O76 Cd67 2.378 . S
O76 C74 1.256 . S
O77 Cd78 2.302 . S
O77 C84 1.277 . S
Cd78 O77 2.302 . S
Cd78 O86 2.381 1_556 S
Cd78 O87 2.378 . S
O79 Cd80 2.385 . S
O79 C84 1.255 . S
Cd80 O79 2.385 . S
Cd80 O81 2.317 . S
O81 Cd80 2.317 . S
O81 C82 1.232 . S
C82 O81 1.232 . S
C82 O83 1.218 . S
O83 C82 1.218 . S
C84 O77 1.277 . S
C84 O79 1.255 . S
C85 O86 1.258 . S
C85 O87 1.256 1_554 S
O86 Cd78 2.381 1_554 S
O86 C85 1.258 . S
O87 Cd78 2.378 . S
O87 C85 1.256 1_556 S
O88 Cd89 2.300 . S
O88 C95 1.275 . S
Cd89 O88 2.300 . S
Cd89 O97 2.381 . S
Cd89 O98 2.378 . S
O90 Cd91 2.385 . S
O90 C95 1.255 . S
Cd91 O90 2.385 . S
Cd91 O92 2.317 . S
O92 Cd91 2.317 . S
O92 C93 1.232 . S
C93 O92 1.232 . S
C93 O94 1.218 . S
O94 C93 1.218 . S
C95 O88 1.275 . S
C95 O90 1.255 . S
C96 O97 1.258 . S
C96 O98 1.256 . S
O97 Cd89 2.381 . S
O97 C96 1.258 . S
O98 Cd89 2.378 . S
O98 C96 1.256 . S
O99 Cd100 2.300 1_655 S
O99 C106 1.275 1_655 S
Cd100 O99 2.300 1_455 S
Cd100 O108 2.381 1_455 S
Cd100 O109 2.378 . S
O101 Cd102 2.385 . S
O101 C106 1.255 . S
Cd102 O101 2.385 . S
Cd102 O103 2.317 . S
O103 Cd102 2.317 . S
O103 C104 1.232 . S
C104 O103 1.232 . S
C104 O105 1.218 . S
O105 C104 1.218 . S
C106 O99 1.275 1_455 S
C106 O101 1.255 . S
C107 O108 1.258 1_455 S
C107 O109 1.256 . S
O108 Cd100 2.381 1_655 S
O108 C107 1.258 1_655 S
O109 Cd100 2.378 . S
O109 C107 1.256 . S
O110 Cd111 2.300 . S
O110 C117 1.275 . S
Cd111 O110 2.300 . S
Cd111 O119 2.381 . S
Cd111 O120 2.378 . S
O112 Cd113 2.385 . S
O112 C117 1.255 . S
Cd113 O112 2.385 . S
Cd113 O114 2.317 . S
O114 Cd113 2.317 . S
O114 C115 1.232 . S
C115 O114 1.232 . S
C115 O116 1.218 . S
O116 C115 1.218 . S
C117 O110 1.275 . S
C117 O112 1.255 . S
C118 O119 1.258 . S
C118 O120 1.256 . S
O119 Cd111 2.381 . S
O119 C118 1.258 . S
O120 Cd111 2.378 . S
O120 C118 1.256 . S
O121 Cd122 2.302 . S
O121 C128 1.277 . S
Cd122 O121 2.302 . S
Cd122 O130 2.381 1_655 S
Cd122 O131 2.378 . S
O123 Cd124 2.385 . S
O123 C128 1.255 . S
Cd124 O123 2.385 . S
Cd124 O125 2.317 . S
O125 Cd124 2.317 . S
O125 C126 1.232 . S
C126 O125 1.232 . S
C126 O127 1.218 . S
O127 C126 1.218 . S
C128 O121 1.277 . S
C128 O123 1.255 . S
C129 O130 1.258 . S
C129 O131 1.256 1_455 S
O130 Cd122 2.381 1_455 S
O130 C129 1.258 . S
O131 Cd122 2.378 . S
O131 C129 1.256 1_655 S
O132 Cd133 2.300 . S
O132 C139 1.275 . S
Cd133 O132 2.300 . S
Cd133 O141 2.381 . S
Cd133 O142 2.378 . S
O134 Cd135 2.385 . S
O134 C139 1.255 . S
Cd135 O134 2.385 . S
Cd135 O136 2.317 . S
O136 Cd135 2.317 . S
O136 C137 1.232 . S
C137 O136 1.232 . S
C137 O138 1.218 . S
O138 C137 1.218 . S
C139 O132 1.275 . S
C139 O134 1.255 . S
C140 O141 1.258 . S
C140 O142 1.256 . S
O141 Cd133 2.381 . S
O141 C140 1.258 . S
O142 Cd133 2.378 . S
O142 C140 1.256 . S
O143 Cd144 2.300 . S
O143 C150 1.275 . S
Cd144 O143 2.300 . S
Cd144 O152 2.381 . S
Cd144 O153 2.378 . S
O145 Cd146 2.385 . S
O145 C150 1.255 . S
Cd146 O145 2.385 . S
Cd146 O147 2.317 . S
O147 Cd146 2.317 . S
O147 C148 1.232 . S
C148 O147 1.232 . S
C148 O149 1.218 . S
O149 C148 1.218 . S
C150 O143 1.275 . S
C150 O145 1.255 . S
C151 O152 1.258 . S
C151 O153 1.256 . S
O152 Cd144 2.381 . S
O152 C151 1.258 . S
O153 Cd144 2.378 . S
O153 C151 1.256 . S
O154 Cd155 2.300 1_545 S
O154 C161 1.275 . S
Cd155 O154 2.300 1_565 S
Cd155 O163 2.381 1_565 S
Cd155 O164 2.378 . S
O156 Cd157 2.385 . S
O156 C161 1.255 1_565 S
Cd157 O156 2.385 . S
Cd157 O158 2.317 . S
O158 Cd157 2.317 . S
O158 C159 1.232 . S
C159 O158 1.232 . S
C159 O160 1.218 . S
O160 C159 1.218 . S
C161 O154 1.275 . S
C161 O156 1.255 1_545 S
C162 O163 1.258 1_565 S
C162 O164 1.256 . S
O163 Cd155 2.381 1_545 S
O163 C162 1.258 1_545 S
O164 Cd155 2.378 . S
O164 C162 1.256 . S
O165 Cd166 2.300 1_565 S
O165 C172 1.275 1_565 S
Cd166 O165 2.300 1_545 S
Cd166 O174 2.381 1_545 S
Cd166 O175 2.378 . S
O167 Cd168 2.385 . S
O167 C172 1.255 . S
Cd168 O167 2.385 . S
Cd168 O169 2.317 . S
O169 Cd168 2.317 . S
O169 C170 1.232 . S
C170 O169 1.232 . S
C170 O171 1.218 . S
O171 C170 1.218 . S
C172 O165 1.275 1_545 S
C172 O167 1.255 . S
C173 O174 1.258 1_545 S
C173 O175 1.256 . S
O174 Cd166 2.381 1_565 S
O174 C173 1.258 1_565 S
O175 Cd166 2.378 . S
O175 C173 1.256 . S
O176 Cd177 2.300 . S
O176 C183 1.275 . S
Cd177 O176 2.300 . S
Cd177 O185 2.381 . S
Cd177 O186 2.378 . S
O178 Cd179 2.385 . S
O178 C183 1.255 . S
Cd179 O178 2.385 . S
Cd179 O180 2.317 . S
O180 Cd179 2.317 . S
O180 C181 1.232 . S
C181 O180 1.232 . S
C181 O182 1.218 . S
O182 C181 1.218 . S
C183 O176 1.275 . S
C183 O178 1.255 . S
C184 O185 1.258 . S
C184 O186 1.256 . S
O185 Cd177 2.381 . S
O185 C184 1.258 . S
O186 Cd177 2.378 . S
O186 C184 1.256 . S
O187 Cd188 2.300 1_556 S
O187 C194 1.275 1_556 S
Cd188 O187 2.300 1_554 S
Cd188 O196 2.381 1_554 S
Cd188 O197 2.378 . S
O189 Cd190 2.385 . S
O189 C194 1.255 . S
Cd190 O189 2.385 . S
Cd190 O191 2.317 . S
O191 Cd190 2.317 . S
O191 C192 1.232 . S
C192 O191 1.232 . S
C192 O193 1.218 . S
O193 C192 1.218 . S
C194 O187 1.275 1_554 S
C194 O189 1.255 . S
C195 O196 1.258 1_554 S
C195 O197 1.256 . S
O196 Cd188 2.381 1_556 S
O196 C195 1.258 1_556 S
O197 Cd188 2.378 . S
O197 C195 1.256 . S
O198 Cd199 2.300 . S
O198 C205 1.275 . S
Cd199 O198 2.300 . S
Cd199 O207 2.381 . S
Cd199 O208 2.378 . S
O200 Cd201 2.385 . S
O200 C205 1.255 . S
Cd201 O200 2.385 . S
Cd201 O202 2.317 . S
O202 Cd201 2.317 . S
O202 C203 1.232 . S
C203 O202 1.232 . S
C203 O204 1.218 . S
O204 C203 1.218 . S
C205 O198 1.275 . S
C205 O200 1.255 . S
C206 O207 1.258 . S
C206 O208 1.256 . S
O207 Cd199 2.381 . S
O207 C206 1.258 . S
O208 Cd199 2.378 . S
O208 C206 1.256 . S
O209 Cd210 2.300 1_554 S
O209 C216 1.275 . S
Cd210 O209 2.300 1_556 S
Cd210 O218 2.381 1_556 S
Cd210 O219 2.378 . S
O211 Cd212 2.385 . S
O211 C216 1.255 1_556 S
Cd212 O211 2.385 . S
Cd212 O213 2.317 . S
O213 Cd212 2.317 . S
O213 C214 1.232 . S
C214 O213 1.232 . S
C214 O215 1.218 . S
O215 C214 1.218 . S
C216 O209 1.275 . S
C216 O211 1.255 1_554 S
C217 O218 1.258 1_556 S
C217 O219 1.256 . S
O218 Cd210 2.381 1_554 S
O218 C217 1.258 1_554 S
O219 Cd210 2.378 . S
O219 C217 1.256 . S
O220 Cd221 2.300 . S
O220 C227 1.275 . S
Cd221 O220 2.300 . S
Cd221 O229 2.381 . S
Cd221 O230 2.378 . S
O222 Cd223 2.385 . S
O222 C227 1.255 . S
Cd223 O222 2.385 . S
Cd223 O224 2.317 . S
O224 Cd223 2.317 . S
O224 C225 1.232 . S
C225 O224 1.232 . S
C225 O226 1.218 . S
O226 C225 1.218 . S
C227 O220 1.275 . S
C227 O222 1.255 . S
C228 O229 1.258 . S
C228 O230 1.256 . S
O229 Cd221 2.381 . S
O229 C228 1.258 . S
O230 Cd221 2.378 . S
O230 C228 1.256 . S
O231 Cd232 2.300 1_655 S
O231 C238 1.275 1_655 S
Cd232 O231 2.300 1_455 S
Cd232 O240 2.381 1_455 S
Cd232 O241 2.378 . S
O233 Cd234 2.385 . S
O233 C238 1.255 . S
Cd234 O233 2.385 . S
Cd234 O235 2.317 . S
O235 Cd234 2.317 . S
O235 C236 1.232 . S
C236 O235 1.232 . S
C236 O237 1.218 . S
O237 C236 1.218 . S
C238 O231 1.275 1_455 S
C238 O233 1.255 . S
C239 O240 1.258 1_455 S
C239 O241 1.256 . S
O240 Cd232 2.381 1_655 S
O240 C239 1.258 1_655 S
O241 Cd232 2.378 . S
O241 C239 1.256 . S
O242 Cd243 2.300 . S
O242 C249 1.275 . S
Cd243 O242 2.300 . S
Cd243 O251 2.381 . S
Cd243 O252 2.378 . S
O244 Cd245 2.385 . S
O244 C249 1.255 . S
Cd245 O244 2.385 . S
Cd245 O246 2.317 . S
O246 Cd245 2.317 . S
O246 C247 1.232 . S
C247 O246 1.232 . S
C247 O248 1.218 . S
O248 C247 1.218 . S
C249 O242 1.275 . S
C249 O244 1.255 . S
C250 O251 1.258 . S
C250 O252 1.256 . S
O251 Cd243 2.381 . S
O251 C250 1.258 . S
O252 Cd243 2.378 . S
O252 C250 1.256 . S
O253 Cd254 2.300 1_455 S
O253 C260 1.275 . S
Cd254 O253 2.300 1_655 S
Cd254 O262 2.381 1_655 S
Cd254 O263 2.378 . S
O255 Cd256 2.385 . S
O255 C260 1.255 1_655 S
Cd256 O255 2.385 . S
Cd256 O257 2.317 . S
O257 Cd256 2.317 . S
O257 C258 1.232 . S
C258 O257 1.232 . S
C258 O259 1.218 . S
O259 C258 1.218 . S
C260 O253 1.275 . S
C260 O255 1.255 1_455 S
C261 O262 1.258 1_655 S
C261 O263 1.256 . S
O262 Cd254 2.381 1_455 S
O262 C261 1.258 1_455 S
O263 Cd254 2.378 . S
O263 C261 1.256 . S
H264 C267 0.929 . S
H265 C270 0.929 . S
H266 C272 0.930 . S
C267 H264 0.929 . S
C267 C268 1.398 . S
C267 C269 1.396 . S
C268 C267 1.398 . S
C268 C272 1.407 . S
C269 C267 1.396 . S
C269 C270 1.394 . S
C270 H265 0.929 . S
C270 C269 1.394 . S
C270 C271 1.382 . S
C271 C270 1.382 . S
C271 C272 1.392 . S
C271 N273 1.420 . S
C272 H266 0.930 . S
C272 C268 1.407 . S
C272 C271 1.392 . S
N273 C271 1.420 . S
N273 C274 1.244 . S
C274 N273 1.244 . S
H275 C278 0.929 . S
H276 C281 0.929 . S
H277 C283 0.930 . S
C278 H275 0.929 . S
C278 C279 1.398 . S
C278 C280 1.396 . S
C279 C278 1.398 . S
C279 C283 1.407 . S
C280 C278 1.396 . S
C280 C281 1.394 . S
C281 H276 0.929 . S
C281 C280 1.394 . S
C281 C282 1.382 . S
C282 C281 1.382 . S
C282 C283 1.392 . S
C282 N284 1.420 . S
C283 H277 0.930 . S
C283 C279 1.407 . S
C283 C282 1.392 . S
N284 C282 1.420 . S
N284 C285 1.244 . S
C285 N284 1.244 . S
H286 C289 0.929 . S
H287 C292 0.929 . S
H288 C294 0.930 . S
C289 H286 0.929 . S
C289 C290 1.398 . S
C289 C291 1.396 . S
C290 C289 1.398 . S
C290 C294 1.407 . S
C291 C289 1.396 . S
C291 C292 1.394 1_565 S
C292 H287 0.929 . S
C292 C291 1.394 1_545 S
C292 C293 1.382 . S
C293 C292 1.382 . S
C293 C294 1.392 1_545 S
C293 N295 1.420 . S
C294 H288 0.930 . S
C294 C290 1.407 . S
C294 C293 1.392 1_565 S
N295 C293 1.420 . S
N295 C296 1.244 . S
C296 N295 1.244 . S
H297 C300 0.929 1_545 S
H298 C303 0.929 . S
H299 C305 0.930 . S
C300 H297 0.929 1_565 S
C300 C301 1.398 . S
C300 C302 1.396 . S
C301 C300 1.398 . S
C301 C305 1.407 . S
C302 C300 1.396 . S
C302 C303 1.394 . S
C303 H298 0.929 . S
C303 C302 1.394 . S
C303 C304 1.382 . S
C304 C303 1.382 . S
C304 C305 1.392 . S
C304 N306 1.420 . S
C305 H299 0.930 . S
C305 C301 1.407 . S
C305 C304 1.392 . S
N306 C304 1.420 . S
N306 C307 1.244 . S
C307 N306 1.244 . S
H308 C311 0.929 . S
H309 C314 0.929 . S
H310 C316 0.930 . S
C311 H308 0.929 . S
C311 C312 1.398 . S
C311 C313 1.396 . S
C312 C311 1.398 . S
C312 C316 1.407 . S
C313 C311 1.396 . S
C313 C314 1.394 . S
C314 H309 0.929 . S
C314 C313 1.394 . S
C314 C315 1.382 . S
C315 C314 1.382 . S
C315 C316 1.392 . S
C315 N317 1.420 . S
C316 H310 0.930 . S
C316 C312 1.407 . S
C316 C315 1.392 . S
N317 C315 1.420 . S
N317 C318 1.244 . S
C318 N317 1.244 . S
H319 C322 0.929 1_554 S
H320 C325 0.929 . S
H321 C327 0.930 . S
C322 H319 0.929 1_556 S
C322 C323 1.398 . S
C322 C324 1.396 . S
C323 C322 1.398 . S
C323 C327 1.407 . S
C324 C322 1.396 . S
C324 C325 1.394 . S
C325 H320 0.929 . S
C325 C324 1.394 . S
C325 C326 1.382 . S
C326 C325 1.382 . S
C326 C327 1.392 . S
C326 N328 1.420 . S
C327 H321 0.930 . S
C327 C323 1.407 . S
C327 C326 1.392 . S
N328 C326 1.420 . S
N328 C329 1.244 . S
C329 N328 1.244 . S
H330 C333 0.929 . S
H331 C336 0.929 . S
H332 C338 0.930 . S
C333 H330 0.929 . S
C333 C334 1.398 . S
C333 C335 1.396 . S
C334 C333 1.398 . S
C334 C338 1.407 . S
C335 C333 1.396 . S
C335 C336 1.394 . S
C336 H331 0.929 . S
C336 C335 1.394 . S
C336 C337 1.382 . S
C337 C336 1.382 . S
C337 C338 1.392 . S
C337 N339 1.420 . S
C338 H332 0.930 . S
C338 C334 1.407 . S
C338 C337 1.392 . S
N339 C337 1.420 . S
N339 C340 1.244 . S
C340 N339 1.244 . S
H341 C344 0.929 . S
H342 C347 0.929 . S
H343 C349 0.930 . S
C344 H341 0.929 . S
C344 C345 1.398 . S
C344 C346 1.396 . S
C345 C344 1.398 . S
C345 C349 1.407 . S
C346 C344 1.396 . S
C346 C347 1.394 1_556 S
C347 H342 0.929 . S
C347 C346 1.394 1_554 S
C347 C348 1.382 . S
C348 C347 1.382 . S
C348 C349 1.392 1_554 S
C348 N350 1.420 . S
C349 H343 0.930 . S
C349 C345 1.407 . S
C349 C348 1.392 1_556 S
N350 C348 1.420 . S
N350 C351 1.244 . S
C351 N350 1.244 . S
H352 C355 0.929 . S
H353 C358 0.929 . S
H354 C360 0.930 . S
C355 H352 0.929 . S
C355 C356 1.398 . S
C355 C357 1.396 . S
C356 C355 1.398 . S
C356 C360 1.407 . S
C357 C355 1.396 . S
C357 C358 1.394 . S
C358 H353 0.929 . S
C358 C357 1.394 . S
C358 C359 1.382 . S
C359 C358 1.382 . S
C359 C360 1.392 . S
C359 N361 1.420 . S
C360 H354 0.930 . S
C360 C356 1.407 . S
C360 C359 1.392 . S
N361 C359 1.420 . S
N361 C362 1.244 . S
C362 N361 1.244 . S
H363 C366 0.929 1_455 S
H364 C369 0.929 . S
H365 C371 0.930 . S
C366 H363 0.929 1_655 S
C366 C367 1.398 . S
C366 C368 1.396 . S
C367 C366 1.398 . S
C367 C371 1.407 . S
C368 C366 1.396 . S
C368 C369 1.394 . S
C369 H364 0.929 . S
C369 C368 1.394 . S
C369 C370 1.382 . S
C370 C369 1.382 . S
C370 C371 1.392 . S
C370 N372 1.420 . S
C371 H365 0.930 . S
C371 C367 1.407 . S
C371 C370 1.392 . S
N372 C370 1.420 . S
N372 C373 1.244 . S
C373 N372 1.244 . S
H374 C377 0.929 . S
H375 C380 0.929 . S
H376 C382 0.930 . S
C377 H374 0.929 . S
C377 C378 1.398 . S
C377 C379 1.396 . S
C378 C377 1.398 . S
C378 C382 1.407 . S
C379 C377 1.396 . S
C379 C380 1.394 . S
C380 H375 0.929 . S
C380 C379 1.394 . S
C380 C381 1.382 . S
C381 C380 1.382 . S
C381 C382 1.392 . S
C381 N383 1.420 . S
C382 H376 0.930 . S
C382 C378 1.407 . S
C382 C381 1.392 . S
N383 C381 1.420 . S
N383 C384 1.244 . S
C384 N383 1.244 . S
H385 C388 0.929 . S
H386 C391 0.929 . S
H387 C393 0.930 . S
C388 H385 0.929 . S
C388 C389 1.398 . S
C388 C390 1.396 . S
C389 C388 1.398 . S
C389 C393 1.407 . S
C390 C388 1.396 . S
C390 C391 1.394 1_655 S
C391 H386 0.929 . S
C391 C390 1.394 1_455 S
C391 C392 1.382 . S
C392 C391 1.382 . S
C392 C393 1.392 1_455 S
C392 N394 1.420 . S
C393 H387 0.930 . S
C393 C389 1.407 . S
C393 C392 1.392 1_655 S
N394 C392 1.420 . S
N394 C395 1.244 . S
C395 N394 1.244 . S
H396 C399 0.929 . S
H397 C402 0.929 . S
H398 C404 0.930 . S
C399 H396 0.929 . S
C399 C400 1.398 . S
C399 C401 1.396 . S
C400 C399 1.398 . S
C400 C404 1.407 . S
C401 C399 1.396 . S
C401 C402 1.394 . S
C402 H397 0.929 . S
C402 C401 1.394 . S
C402 C403 1.382 . S
C403 C402 1.382 . S
C403 C404 1.392 . S
C403 N405 1.420 . S
C404 H398 0.930 . S
C404 C400 1.407 . S
C404 C403 1.392 . S
N405 C403 1.420 . S
N405 C406 1.244 . S
C406 N405 1.244 . S
H407 C410 0.929 . S
H408 C413 0.929 . S
H409 C415 0.930 . S
C410 H407 0.929 . S
C410 C411 1.398 . S
C410 C412 1.396 . S
C411 C410 1.398 . S
C411 C415 1.407 . S
C412 C410 1.396 . S
C412 C413 1.394 . S
C413 H408 0.929 . S
C413 C412 1.394 . S
C413 C414 1.382 . S
C414 C413 1.382 . S
C414 C415 1.392 . S
C414 N416 1.420 . S
C415 H409 0.930 . S
C415 C411 1.407 . S
C415 C414 1.392 . S
N416 C414 1.420 . S
N416 C417 1.244 . S
C417 N416 1.244 . S
H418 C421 0.929 . S
H419 C424 0.929 . S
H420 C426 0.930 . S
C421 H418 0.929 . S
C421 C422 1.398 . S
C421 C423 1.396 . S
C422 C421 1.398 . S
C422 C426 1.407 . S
C423 C421 1.396 . S
C423 C424 1.394 1_545 S
C424 H419 0.929 . S
C424 C423 1.394 1_565 S
C424 C425 1.382 . S
C425 C424 1.382 . S
C425 C426 1.392 1_565 S
C425 N427 1.420 . S
C426 H420 0.930 . S
C426 C422 1.407 . S
C426 C425 1.392 1_545 S
N427 C425 1.420 . S
N427 C428 1.244 . S
C428 N427 1.244 . S
H429 C432 0.929 1_565 S
H430 C435 0.929 . S
H431 C437 0.930 . S
C432 H429 0.929 1_545 S
C432 C433 1.398 . S
C432 C434 1.396 . S
C433 C432 1.398 . S
C433 C437 1.407 . S
C434 C432 1.396 . S
C434 C435 1.394 . S
C435 H430 0.929 . S
C435 C434 1.394 . S
C435 C436 1.382 . S
C436 C435 1.382 . S
C436 C437 1.392 . S
C436 N438 1.420 . S
C437 H431 0.930 . S
C437 C433 1.407 . S
C437 C436 1.392 . S
N438 C436 1.420 . S
N438 C439 1.244 . S
C439 N438 1.244 . S
H440 C443 0.929 . S
H441 C446 0.929 . S
H442 C448 0.930 . S
C443 H440 0.929 . S
C443 C444 1.398 . S
C443 C445 1.396 . S
C444 C443 1.398 . S
C444 C448 1.407 . S
C445 C443 1.396 . S
C445 C446 1.394 . S
C446 H441 0.929 . S
C446 C445 1.394 . S
C446 C447 1.382 . S
C447 C446 1.382 . S
C447 C448 1.392 . S
C447 N449 1.420 . S
C448 H442 0.930 . S
C448 C444 1.407 . S
C448 C447 1.392 . S
N449 C447 1.420 . S
N449 C450 1.244 . S
C450 N449 1.244 . S
H451 C454 0.929 1_556 S
H452 C457 0.929 . S
H453 C459 0.930 . S
C454 H451 0.929 1_554 S
C454 C455 1.398 . S
C454 C456 1.396 . S
C455 C454 1.398 . S
C455 C459 1.407 . S
C456 C454 1.396 . S
C456 C457 1.394 . S
C457 H452 0.929 . S
C457 C456 1.394 . S
C457 C458 1.382 . S
C458 C457 1.382 . S
C458 C459 1.392 . S
C458 N460 1.420 . S
C459 H453 0.930 . S
C459 C455 1.407 . S
C459 C458 1.392 . S
N460 C458 1.420 . S
N460 C461 1.244 . S
C461 N460 1.244 . S
H462 C465 0.929 . S
H463 C468 0.929 . S
H464 C470 0.930 . S
C465 H462 0.929 . S
C465 C466 1.398 . S
C465 C467 1.396 . S
C466 C465 1.398 . S
C466 C470 1.407 . S
C467 C465 1.396 . S
C467 C468 1.394 . S
C468 H463 0.929 . S
C468 C467 1.394 . S
C468 C469 1.382 . S
C469 C468 1.382 . S
C469 C470 1.392 . S
C469 N471 1.420 . S
C470 H464 0.930 . S
C470 C466 1.407 . S
C470 C469 1.392 . S
N471 C469 1.420 . S
N471 C472 1.244 . S
C472 N471 1.244 . S
H473 C476 0.929 . S
H474 C479 0.929 . S
H475 C481 0.930 . S
C476 H473 0.929 . S
C476 C477 1.398 . S
C476 C478 1.396 . S
C477 C476 1.398 . S
C477 C481 1.407 . S
C478 C476 1.396 . S
C478 C479 1.394 1_554 S
C479 H474 0.929 . S
C479 C478 1.394 1_556 S
C479 C480 1.382 . S
C480 C479 1.382 . S
C480 C481 1.392 1_556 S
C480 N482 1.420 . S
C481 H475 0.930 . S
C481 C477 1.407 . S
C481 C480 1.392 1_554 S
N482 C480 1.420 . S
N482 C483 1.244 . S
C483 N482 1.244 . S
H484 C487 0.929 . S
H485 C490 0.929 . S
H486 C492 0.930 . S
C487 H484 0.929 . S
C487 C488 1.398 . S
C487 C489 1.396 . S
C488 C487 1.398 . S
C488 C492 1.407 . S
C489 C487 1.396 . S
C489 C490 1.394 . S
C490 H485 0.929 . S
C490 C489 1.394 . S
C490 C491 1.382 . S
C491 C490 1.382 . S
C491 C492 1.392 . S
C491 N493 1.420 . S
C492 H486 0.930 . S
C492 C488 1.407 . S
C492 C491 1.392 . S
N493 C491 1.420 . S
N493 C494 1.244 . S
C494 N493 1.244 . S
H495 C498 0.929 1_655 S
H496 C501 0.929 . S
H497 C503 0.930 . S
C498 H495 0.929 1_455 S
C498 C499 1.398 . S
C498 C500 1.396 . S
C499 C498 1.398 . S
C499 C503 1.407 . S
C500 C498 1.396 . S
C500 C501 1.394 . S
C501 H496 0.929 . S
C501 C500 1.394 . S
C501 C502 1.382 . S
C502 C501 1.382 . S
C502 C503 1.392 . S
C502 N504 1.420 . S
C503 H497 0.930 . S
C503 C499 1.407 . S
C503 C502 1.392 . S
N504 C502 1.420 . S
N504 C505 1.244 . S
C505 N504 1.244 . S
H506 C509 0.929 . S
H507 C512 0.929 . S
H508 C514 0.930 . S
C509 H506 0.929 . S
C509 C510 1.398 . S
C509 C511 1.396 . S
C510 C509 1.398 . S
C510 C514 1.407 . S
C511 C509 1.396 . S
C511 C512 1.394 . S
C512 H507 0.929 . S
C512 C511 1.394 . S
C512 C513 1.382 . S
C513 C512 1.382 . S
C513 C514 1.392 . S
C513 N515 1.420 . S
C514 H508 0.930 . S
C514 C510 1.407 . S
C514 C513 1.392 . S
N515 C513 1.420 . S
N515 C516 1.244 . S
C516 N515 1.244 . S
H517 C520 0.929 . S
H518 C523 0.929 . S
H519 C525 0.930 . S
C520 H517 0.929 . S
C520 C521 1.398 . S
C520 C522 1.396 . S
C521 C520 1.398 . S
C521 C525 1.407 . S
C522 C520 1.396 . S
C522 C523 1.394 1_455 S
C523 H518 0.929 . S
C523 C522 1.394 1_655 S
C523 C524 1.382 . S
C524 C523 1.382 . S
C524 C525 1.392 1_655 S
C524 N526 1.420 . S
C525 H519 0.930 . S
C525 C521 1.407 . S
C525 C524 1.392 1_455 S
N526 C524 1.420 . S
N526 C527 1.244 . S
C527 N526 1.244 . S
H528 C536 0.950 . S
H529 C541 0.950 . S
H530 C538 0.950 . S
H531 C540 0.950 . S
H532 C542 0.950 . S
H533 C544 0.950 . S
H534 C546 0.950 . S
H535 C547 0.950 . S
C536 H528 0.950 . S
C536 C537 1.386 . S
C536 C538 1.391 . S
C537 C536 1.386 . S
C537 C541 1.393 . S
C538 H530 0.950 . S
C538 C536 1.391 . S
C538 C539 1.400 . S
C539 C538 1.400 . S
C539 C540 1.398 . S
C539 C545 1.491 . S
C540 H531 0.950 . S
C540 C539 1.398 . S
C540 C541 1.391 . S
C541 H529 0.950 . S
C541 C537 1.393 . S
C541 C540 1.391 . S
C542 H532 0.950 . S
C542 C543 1.386 . S
C542 C544 1.391 . S
C543 C542 1.386 . S
C543 C547 1.393 . S
C544 H533 0.950 . S
C544 C542 1.391 . S
C544 C545 1.400 . S
C545 C539 1.491 . S
C545 C544 1.400 . S
C545 C546 1.398 . S
C546 H534 0.950 . S
C546 C545 1.398 . S
C546 C547 1.391 . S
C547 H535 0.950 . S
C547 C543 1.393 . S
C547 C546 1.391 . S
H548 C556 0.950 . S
H549 C561 0.950 . S
H550 C558 0.950 . S
H551 C560 0.950 . S
H552 C562 0.950 . S
H553 C564 0.950 . S
H554 C566 0.950 . S
H555 C567 0.950 . S
C556 H548 0.950 . S
C556 C557 1.386 . S
C556 C558 1.391 . S
C557 C556 1.386 . S
C557 C561 1.393 . S
C558 H550 0.950 . S
C558 C556 1.391 . S
C558 C559 1.400 . S
C559 C558 1.400 . S
C559 C560 1.398 . S
C559 C565 1.491 . S
C560 H551 0.950 . S
C560 C559 1.398 . S
C560 C561 1.391 . S
C561 H549 0.950 . S
C561 C557 1.393 . S
C561 C560 1.391 . S
C562 H552 0.950 . S
C562 C563 1.386 . S
C562 C564 1.391 . S
C563 C562 1.386 . S
C563 C567 1.393 . S
C564 H553 0.950 . S
C564 C562 1.391 . S
C564 C565 1.400 . S
C565 C559 1.491 . S
C565 C564 1.400 . S
C565 C566 1.398 . S
C566 H554 0.950 . S
C566 C565 1.398 . S
C566 C567 1.391 . S
C567 H555 0.950 . S
C567 C563 1.393 . S
C567 C566 1.391 . S
H568 C576 0.950 . S
H569 C581 0.950 . S
H570 C578 0.950 . S
H571 C580 0.950 . S
H572 C582 0.950 . S
H573 C584 0.950 . S
H574 C586 0.950 . S
H575 C587 0.950 . S
C576 H568 0.950 . S
C576 C577 1.386 . S
C576 C578 1.391 . S
C577 C576 1.386 . S
C577 C581 1.393 . S
C578 H570 0.950 . S
C578 C576 1.391 . S
C578 C579 1.400 . S
C579 C578 1.400 . S
C579 C580 1.398 . S
C579 C585 1.491 . S
C580 H571 0.950 . S
C580 C579 1.398 . S
C580 C581 1.391 . S
C581 H569 0.950 . S
C581 C577 1.393 . S
C581 C580 1.391 . S
C582 H572 0.950 . S
C582 C583 1.386 . S
C582 C584 1.391 . S
C583 C582 1.386 . S
C583 C587 1.393 . S
C584 H573 0.950 . S
C584 C582 1.391 . S
C584 C585 1.400 . S
C585 C579 1.491 . S
C585 C584 1.400 . S
C585 C586 1.398 . S
C586 H574 0.950 . S
C586 C585 1.398 . S
C586 C587 1.391 . S
C587 H575 0.950 . S
C587 C583 1.393 . S
C587 C586 1.391 . S
H588 C596 0.950 . S
H589 C601 0.950 . S
H590 C598 0.950 . S
H591 C600 0.950 . S
H592 C602 0.950 1_545 S
H593 C604 0.904 1_545 S
H594 C606 0.950 . S
H595 C607 0.950 . S
C596 H588 0.950 . S
C596 C597 1.386 . S
C596 C598 1.391 . S
C597 C596 1.386 . S
C597 C601 1.393 1_565 S
C598 H590 0.950 . S
C598 C596 1.391 . S
C598 C599 1.400 . S
C599 C598 1.400 . S
C599 C600 1.398 1_565 S
C599 C605 1.491 . S
C600 H591 0.950 . S
C600 C599 1.398 1_545 S
C600 C601 1.391 . S
C601 H589 0.950 . S
C601 C597 1.393 1_545 S
C601 C600 1.391 . S
C602 H592 0.950 1_565 S
C602 C603 1.386 . S
C602 C604 1.407 . S
C603 C602 1.386 . S
C603 C607 1.393 . S
C604 H593 0.904 1_565 S
C604 C602 1.407 . S
C604 C605 1.431 . S
C605 C599 1.491 . S
C605 C604 1.431 . S
C605 C606 1.398 . S
C606 H594 0.950 . S
C606 C605 1.398 . S
C606 C607 1.391 . S
C607 H595 0.950 . S
C607 C603 1.393 . S
C607 C606 1.391 . S
H608 C616 0.950 . S
H609 C621 0.950 . S
H610 C618 0.950 . S
H611 C620 0.950 . S
H612 C622 0.950 . S
H613 C624 0.950 . S
H614 C626 0.950 . S
H615 C627 0.950 . S
C616 H608 0.950 . S
C616 C617 1.386 . S
C616 C618 1.391 . S
C617 C616 1.386 . S
C617 C621 1.393 . S
C618 H610 0.950 . S
C618 C616 1.391 . S
C618 C619 1.400 . S
C619 C618 1.400 . S
C619 C620 1.398 . S
C619 C625 1.491 . S
C620 H611 0.950 . S
C620 C619 1.398 . S
C620 C621 1.391 . S
C621 H609 0.950 . S
C621 C617 1.393 . S
C621 C620 1.391 . S
C622 H612 0.950 . S
C622 C623 1.386 . S
C622 C624 1.391 . S
C623 C622 1.386 . S
C623 C627 1.393 . S
C624 H613 0.950 . S
C624 C622 1.391 . S
C624 C625 1.400 . S
C625 C619 1.491 . S
C625 C624 1.400 . S
C625 C626 1.398 . S
C626 H614 0.950 . S
C626 C625 1.398 . S
C626 C627 1.391 . S
C627 H615 0.950 . S
C627 C623 1.393 . S
C627 C626 1.391 . S
H628 C636 0.950 . S
H629 C641 0.950 . S
H630 C638 0.950 1_554 S
H631 C640 0.950 . S
H632 C642 0.950 . S
H633 C644 0.950 . S
H634 C646 0.950 . S
H635 C647 0.950 . S
C636 H628 0.950 . S
C636 C637 1.386 1_554 S
C636 C638 1.391 1_554 S
C637 C636 1.386 1_556 S
C637 C641 1.393 . S
C638 H630 0.950 1_556 S
C638 C636 1.391 1_556 S
C638 C639 1.400 . S
C639 C638 1.400 . S
C639 C640 1.398 . S
C639 C645 1.491 . S
C640 H631 0.950 . S
C640 C639 1.398 . S
C640 C641 1.391 . S
C641 H629 0.950 . S
C641 C637 1.393 . S
C641 C640 1.391 . S
C642 H632 0.950 . S
C642 C643 1.386 . S
C642 C644 1.391 . S
C643 C642 1.386 . S
C643 C647 1.393 . S
C644 H633 0.950 . S
C644 C642 1.391 . S
C644 C645 1.400 . S
C645 C639 1.491 . S
C645 C644 1.400 . S
C645 C646 1.398 . S
C646 H634 0.950 . S
C646 C645 1.398 . S
C646 C647 1.391 . S
C647 H635 0.950 . S
C647 C643 1.393 . S
C647 C646 1.391 . S
H648 C656 0.950 . S
H649 C661 0.950 . S
H650 C658 0.950 . S
H651 C660 0.950 . S
H652 C662 0.950 . S
H653 C664 0.950 . S
H654 C666 0.950 . S
H655 C667 0.950 . S
C656 H648 0.950 . S
C656 C657 1.386 . S
C656 C658 1.391 . S
C657 C656 1.386 . S
C657 C661 1.393 . S
C658 H650 0.950 . S
C658 C656 1.391 . S
C658 C659 1.400 . S
C659 C658 1.400 . S
C659 C660 1.398 . S
C659 C665 1.491 . S
C660 H651 0.950 . S
C660 C659 1.398 . S
C660 C661 1.391 . S
C661 H649 0.950 . S
C661 C657 1.393 . S
C661 C660 1.391 . S
C662 H652 0.950 . S
C662 C663 1.386 . S
C662 C664 1.391 . S
C663 C662 1.386 . S
C663 C667 1.393 . S
C664 H653 0.950 . S
C664 C662 1.391 . S
C664 C665 1.400 . S
C665 C659 1.491 . S
C665 C664 1.400 . S
C665 C666 1.398 . S
C666 H654 0.950 . S
C666 C665 1.398 . S
C666 C667 1.391 . S
C667 H655 0.950 . S
C667 C663 1.393 . S
C667 C666 1.391 . S
H668 C676 0.950 . S
H669 C681 0.950 . S
H670 C678 0.950 . S
H671 C680 0.950 . S
H672 C682 0.950 1_556 S
H673 C684 0.950 1_556 S
H674 C686 0.950 . S
H675 C687 0.950 . S
C676 H668 0.950 . S
C676 C677 1.386 . S
C676 C678 1.391 . S
C677 C676 1.386 . S
C677 C681 1.393 1_554 S
C678 H670 0.950 . S
C678 C676 1.391 . S
C678 C679 1.400 . S
C679 C678 1.400 . S
C679 C680 1.398 1_554 S
C679 C685 1.491 . S
C680 H671 0.950 . S
C680 C679 1.398 1_556 S
C680 C681 1.391 . S
C681 H669 0.950 . S
C681 C677 1.393 1_556 S
C681 C680 1.391 . S
C682 H672 0.950 1_554 S
C682 C683 1.386 . S
C682 C684 1.391 . S
C683 C682 1.386 . S
C683 C687 1.393 . S
C684 H673 0.950 1_554 S
C684 C682 1.391 . S
C684 C685 1.400 . S
C685 C679 1.491 . S
C685 C684 1.400 . S
C685 C686 1.398 . S
C686 H674 0.950 . S
C686 C685 1.398 . S
C686 C687 1.391 . S
C687 H675 0.950 . S
C687 C683 1.393 . S
C687 C686 1.391 . S
H688 C696 0.950 . S
H689 C701 0.950 . S
H690 C698 0.950 . S
H691 C700 0.950 . S
H692 C702 0.950 . S
H693 C704 0.950 . S
H694 C706 0.950 . S
H695 C707 0.950 . S
C696 H688 0.950 . S
C696 C697 1.386 . S
C696 C698 1.391 . S
C697 C696 1.386 . S
C697 C701 1.393 . S
C698 H690 0.950 . S
C698 C696 1.391 . S
C698 C699 1.400 . S
C699 C698 1.400 . S
C699 C700 1.398 . S
C699 C705 1.491 . S
C700 H691 0.950 . S
C700 C699 1.398 . S
C700 C701 1.391 . S
C701 H689 0.950 . S
C701 C697 1.393 . S
C701 C700 1.391 . S
C702 H692 0.950 . S
C702 C703 1.386 . S
C702 C704 1.391 . S
C703 C702 1.386 . S
C703 C707 1.393 . S
C704 H693 0.950 . S
C704 C702 1.391 . S
C704 C705 1.400 . S
C705 C699 1.491 . S
C705 C704 1.400 . S
C705 C706 1.398 . S
C706 H694 0.950 . S
C706 C705 1.398 . S
C706 C707 1.391 . S
C707 H695 0.950 . S
C707 C703 1.393 . S
C707 C706 1.391 . S
H708 C716 0.950 . S
H709 C721 0.950 . S
H710 C718 0.950 . S
H711 C720 0.950 . S
H712 C722 0.950 . S
H713 C724 0.950 . S
H714 C726 0.950 . S
H715 C727 0.950 . S
C716 H708 0.950 . S
C716 C717 1.386 1_455 S
C716 C718 1.391 . S
C717 C716 1.386 1_655 S
C717 C721 1.393 . S
C718 H710 0.950 . S
C718 C716 1.391 . S
C718 C719 1.400 1_455 S
C719 C718 1.400 1_655 S
C719 C720 1.398 . S
C719 C725 1.491 . S
C720 H711 0.950 . S
C720 C719 1.398 . S
C720 C721 1.391 . S
C721 H709 0.950 . S
C721 C717 1.393 . S
C721 C720 1.391 . S
C722 H712 0.950 . S
C722 C723 1.386 . S
C722 C724 1.391 . S
C723 C722 1.386 . S
C723 C727 1.393 . S
C724 H713 0.950 . S
C724 C722 1.391 . S
C724 C725 1.400 . S
C725 C719 1.491 . S
C725 C724 1.400 . S
C725 C726 1.398 . S
C726 H714 0.950 . S
C726 C725 1.398 . S
C726 C727 1.391 . S
C727 H715 0.950 . S
C727 C723 1.393 . S
C727 C726 1.391 . S
H728 C736 0.950 . S
H729 C741 0.950 . S
H730 C738 0.950 . S
H731 C740 0.950 . S
H732 C742 0.950 . S
H733 C744 0.950 . S
H734 C746 0.950 . S
H735 C747 0.950 . S
C736 H728 0.950 . S
C736 C737 1.386 . S
C736 C738 1.391 . S
C737 C736 1.386 . S
C737 C741 1.393 . S
C738 H730 0.950 . S
C738 C736 1.391 . S
C738 C739 1.400 . S
C739 C738 1.400 . S
C739 C740 1.398 . S
C739 C745 1.491 . S
C740 H731 0.950 . S
C740 C739 1.398 . S
C740 C741 1.391 . S
C741 H729 0.950 . S
C741 C737 1.393 . S
C741 C740 1.391 . S
C742 H732 0.950 . S
C742 C743 1.386 . S
C742 C744 1.391 . S
C743 C742 1.386 . S
C743 C747 1.393 . S
C744 H733 0.950 . S
C744 C742 1.391 . S
C744 C745 1.400 . S
C745 C739 1.491 . S
C745 C744 1.400 . S
C745 C746 1.398 . S
C746 H734 0.950 . S
C746 C745 1.398 . S
C746 C747 1.391 . S
C747 H735 0.950 . S
C747 C743 1.393 . S
C747 C746 1.391 . S
H748 C756 0.950 . S
H749 C761 0.976 . S
H750 C758 0.950 . S
H751 C760 0.950 1_655 S
H752 C762 0.950 . S
H753 C764 0.950 . S
H754 C766 0.950 . S
H755 C767 0.950 . S
C756 H748 0.950 . S
C756 C757 1.386 . S
C756 C758 1.391 . S
C757 C756 1.386 . S
C757 C761 1.381 1_455 S
C758 H750 0.950 . S
C758 C756 1.391 . S
C758 C759 1.400 . S
C759 C758 1.400 . S
C759 C760 1.398 . S
C759 C765 1.491 . S
C760 H751 0.950 1_455 S
C760 C759 1.398 . S
C760 C761 1.379 1_455 S
C761 H749 0.976 . S
C761 C757 1.381 1_655 S
C761 C760 1.379 1_655 S
C762 H752 0.950 . S
C762 C763 1.386 . S
C762 C764 1.391 . S
C763 C762 1.386 . S
C763 C767 1.393 . S
C764 H753 0.950 . S
C764 C762 1.391 . S
C764 C765 1.400 . S
C765 C759 1.491 . S
C765 C764 1.400 . S
C765 C766 1.398 . S
C766 H754 0.950 . S
C766 C765 1.398 . S
C766 C767 1.391 . S
C767 H755 0.950 . S
C767 C763 1.393 . S
C767 C766 1.391 . S
H768 C776 0.950 . S
H769 C781 0.950 . S
H770 C778 0.950 . S
H771 C780 0.950 . S
H772 C782 0.950 . S
H773 C784 0.950 . S
H774 C786 0.950 . S
H775 C787 0.950 . S
C776 H768 0.950 . S
C776 C777 1.386 . S
C776 C778 1.391 . S
C777 C776 1.386 . S
C777 C781 1.393 . S
C778 H770 0.950 . S
C778 C776 1.391 . S
C778 C779 1.400 . S
C779 C778 1.400 . S
C779 C780 1.398 . S
C779 C785 1.491 . S
C780 H771 0.950 . S
C780 C779 1.398 . S
C780 C781 1.391 . S
C781 H769 0.950 . S
C781 C777 1.393 . S
C781 C780 1.391 . S
C782 H772 0.950 . S
C782 C783 1.386 . S
C782 C784 1.391 . S
C783 C782 1.386 . S
C783 C787 1.393 . S
C784 H773 0.950 . S
C784 C782 1.391 . S
C784 C785 1.400 . S
C785 C779 1.491 . S
C785 C784 1.400 . S
C785 C786 1.398 . S
C786 H774 0.950 . S
C786 C785 1.398 . S
C786 C787 1.391 . S
C787 H775 0.950 . S
C787 C783 1.393 . S
C787 C786 1.391 . S
H788 C796 0.950 . S
H789 C801 0.950 . S
H790 C798 0.950 . S
H791 C800 0.950 . S
H792 C802 0.950 . S
H793 C804 0.950 . S
H794 C806 0.950 . S
H795 C807 0.950 . S
C796 H788 0.950 . S
C796 C797 1.386 . S
C796 C798 1.391 . S
C797 C796 1.386 . S
C797 C801 1.393 . S
C798 H790 0.950 . S
C798 C796 1.391 . S
C798 C799 1.400 . S
C799 C798 1.400 . S
C799 C800 1.398 . S
C799 C805 1.491 . S
C800 H791 0.950 . S
C800 C799 1.398 . S
C800 C801 1.391 . S
C801 H789 0.950 . S
C801 C797 1.393 . S
C801 C800 1.391 . S
C802 H792 0.950 . S
C802 C803 1.386 . S
C802 C804 1.391 . S
C803 C802 1.386 . S
C803 C807 1.393 . S
C804 H793 0.950 . S
C804 C802 1.391 . S
C804 C805 1.400 . S
C805 C799 1.491 . S
C805 C804 1.400 . S
C805 C806 1.398 . S
C806 H794 0.950 . S
C806 C805 1.398 . S
C806 C807 1.391 . S
C807 H795 0.950 . S
C807 C803 1.393 . S
C807 C806 1.391 . S
H808 C816 0.950 . S
H809 C821 0.950 . S
H810 C818 0.934 1_545 S
H811 C820 0.950 . S
H812 C822 0.950 . S
H813 C824 0.950 . S
H814 C826 0.950 1_545 S
H815 C827 0.950 . S
C816 H808 0.950 . S
C816 C817 1.386 1_545 S
C816 C818 1.382 1_545 S
C817 C816 1.386 1_565 S
C817 C821 1.393 . S
C818 H810 0.934 1_565 S
C818 C816 1.382 1_565 S
C818 C819 1.427 . S
C819 C818 1.427 . S
C819 C820 1.398 . S
C819 C825 1.491 . S
C820 H811 0.950 . S
C820 C819 1.398 . S
C820 C821 1.391 . S
C821 H809 0.950 . S
C821 C817 1.393 . S
C821 C820 1.391 . S
C822 H812 0.950 . S
C822 C823 1.386 . S
C822 C824 1.391 . S
C823 C822 1.386 . S
C823 C827 1.393 . S
C824 H813 0.950 . S
C824 C822 1.391 . S
C824 C825 1.400 . S
C825 C819 1.491 . S
C825 C824 1.400 . S
C825 C826 1.398 . S
C826 H814 0.950 1_565 S
C826 C825 1.398 . S
C826 C827 1.391 . S
C827 H815 0.950 . S
C827 C823 1.393 . S
C827 C826 1.391 . S
H828 C836 0.950 . S
H829 C841 0.950 1_565 S
H830 C838 0.950 . S
H831 C840 0.950 . S
H832 C842 0.950 . S
H833 C844 0.950 . S
H834 C846 0.950 . S
H835 C847 0.950 . S
C836 H828 0.950 . S
C836 C837 1.386 . S
C836 C838 1.391 . S
C837 C836 1.386 . S
C837 C841 1.393 . S
C838 H830 0.950 . S
C838 C836 1.391 . S
C838 C839 1.400 . S
C839 C838 1.400 . S
C839 C840 1.398 . S
C839 C845 1.491 . S
C840 H831 0.950 . S
C840 C839 1.398 . S
C840 C841 1.391 . S
C841 H829 0.950 1_545 S
C841 C837 1.393 . S
C841 C840 1.391 . S
C842 H832 0.950 . S
C842 C843 1.386 . S
C842 C844 1.391 . S
C843 C842 1.386 . S
C843 C847 1.393 . S
C844 H833 0.950 . S
C844 C842 1.391 . S
C844 C845 1.400 . S
C845 C839 1.491 . S
C845 C844 1.400 . S
C845 C846 1.398 . S
C846 H834 0.950 . S
C846 C845 1.398 . S
C846 C847 1.391 . S
C847 H835 0.950 . S
C847 C843 1.393 . S
C847 C846 1.391 . S
H848 C856 0.950 . S
H849 C861 0.950 . S
H850 C858 0.950 . S
H851 C860 0.950 . S
H852 C862 0.950 . S
H853 C864 0.950 . S
H854 C866 0.950 . S
H855 C867 0.950 . S
C856 H848 0.950 . S
C856 C857 1.386 . S
C856 C858 1.391 . S
C857 C856 1.386 . S
C857 C861 1.393 . S
C858 H850 0.950 . S
C858 C856 1.391 . S
C858 C859 1.400 . S
C859 C858 1.400 . S
C859 C860 1.398 . S
C859 C865 1.491 . S
C860 H851 0.950 . S
C860 C859 1.398 . S
C860 C861 1.391 . S
C861 H849 0.950 . S
C861 C857 1.393 . S
C861 C860 1.391 . S
C862 H852 0.950 . S
C862 C863 1.386 . S
C862 C864 1.391 . S
C863 C862 1.386 . S
C863 C867 1.393 . S
C864 H853 0.950 . S
C864 C862 1.391 . S
C864 C865 1.400 . S
C865 C859 1.491 . S
C865 C864 1.400 . S
C865 C866 1.398 . S
C866 H854 0.950 . S
C866 C865 1.398 . S
C866 C867 1.391 . S
C867 H855 0.950 . S
C867 C863 1.393 . S
C867 C866 1.391 . S
H868 C876 0.950 . S
H869 C881 0.950 1_556 S
H870 C878 0.950 . S
H871 C880 0.950 . S
H872 C882 0.950 . S
H873 C884 0.950 . S
H874 C886 0.950 . S
H875 C887 0.950 . S
C876 H868 0.950 . S
C876 C877 1.386 . S
C876 C878 1.391 . S
C877 C876 1.386 . S
C877 C881 1.393 . S
C878 H870 0.950 . S
C878 C876 1.391 . S
C878 C879 1.400 . S
C879 C878 1.400 . S
C879 C880 1.398 . S
C879 C885 1.491 . S
C880 H871 0.950 . S
C880 C879 1.398 . S
C880 C881 1.391 . S
C881 H869 0.950 1_554 S
C881 C877 1.393 . S
C881 C880 1.391 . S
C882 H872 0.950 . S
C882 C883 1.386 . S
C882 C884 1.391 . S
C883 C882 1.386 . S
C883 C887 1.393 . S
C884 H873 0.950 . S
C884 C882 1.391 . S
C884 C885 1.400 . S
C885 C879 1.491 . S
C885 C884 1.400 . S
C885 C886 1.398 . S
C886 H874 0.950 . S
C886 C885 1.398 . S
C886 C887 1.391 . S
C887 H875 0.950 . S
C887 C883 1.393 . S
C887 C886 1.391 . S
H888 C896 0.950 . S
H889 C901 0.950 . S
H890 C898 0.950 . S
H891 C900 0.950 . S
H892 C902 0.950 . S
H893 C904 0.950 . S
H894 C906 0.950 . S
H895 C907 0.950 . S
C896 H888 0.950 . S
C896 C897 1.386 . S
C896 C898 1.391 . S
C897 C896 1.386 . S
C897 C901 1.393 . S
C898 H890 0.950 . S
C898 C896 1.391 . S
C898 C899 1.400 . S
C899 C898 1.400 . S
C899 C900 1.398 . S
C899 C905 1.491 . S
C900 H891 0.950 . S
C900 C899 1.398 . S
C900 C901 1.391 . S
C901 H889 0.950 . S
C901 C897 1.393 . S
C901 C900 1.391 . S
C902 H892 0.950 . S
C902 C903 1.386 . S
C902 C904 1.391 . S
C903 C902 1.386 . S
C903 C907 1.393 . S
C904 H893 0.950 . S
C904 C902 1.391 . S
C904 C905 1.400 . S
C905 C899 1.491 . S
C905 C904 1.400 . S
C905 C906 1.398 . S
C906 H894 0.950 . S
C906 C905 1.398 . S
C906 C907 1.391 . S
C907 H895 0.950 . S
C907 C903 1.393 . S
C907 C906 1.391 . S
H908 C916 0.950 . S
H909 C921 0.950 . S
H910 C918 0.950 . S
H911 C920 0.950 . S
H912 C922 0.950 1_554 S
H913 C924 0.950 1_554 S
H914 C926 0.950 . S
H915 C927 0.950 . S
C916 H908 0.950 . S
C916 C917 1.386 . S
C916 C918 1.391 . S
C917 C916 1.386 . S
C917 C921 1.393 1_556 S
C918 H910 0.950 . S
C918 C916 1.391 . S
C918 C919 1.400 . S
C919 C918 1.400 . S
C919 C920 1.398 1_556 S
C919 C925 1.491 . S
C920 H911 0.950 . S
C920 C919 1.398 1_554 S
C920 C921 1.391 . S
C921 H909 0.950 . S
C921 C917 1.393 1_554 S
C921 C920 1.391 . S
C922 H912 0.950 1_556 S
C922 C923 1.386 . S
C922 C924 1.391 . S
C923 C922 1.386 . S
C923 C927 1.393 . S
C924 H913 0.950 1_556 S
C924 C922 1.391 . S
C924 C925 1.400 . S
C925 C919 1.491 . S
C925 C924 1.400 . S
C925 C926 1.398 . S
C926 H914 0.950 . S
C926 C925 1.398 . S
C926 C927 1.391 . S
C927 H915 0.950 . S
C927 C923 1.393 . S
C927 C926 1.391 . S
H928 C936 0.950 . S
H929 C941 0.950 . S
H930 C938 0.950 . S
H931 C940 0.950 . S
H932 C942 0.950 . S
H933 C944 0.950 . S
H934 C946 0.950 . S
H935 C947 0.950 . S
C936 H928 0.950 . S
C936 C937 1.386 . S
C936 C938 1.391 . S
C937 C936 1.386 . S
C937 C941 1.393 . S
C938 H930 0.950 . S
C938 C936 1.391 . S
C938 C939 1.400 . S
C939 C938 1.400 . S
C939 C940 1.398 . S
C939 C945 1.491 . S
C940 H931 0.950 . S
C940 C939 1.398 . S
C940 C941 1.391 . S
C941 H929 0.950 . S
C941 C937 1.393 . S
C941 C940 1.391 . S
C942 H932 0.950 . S
C942 C943 1.386 . S
C942 C944 1.391 . S
C943 C942 1.386 . S
C943 C947 1.393 . S
C944 H933 0.950 . S
C944 C942 1.391 . S
C944 C945 1.400 . S
C945 C939 1.491 . S
C945 C944 1.400 . S
C945 C946 1.398 . S
C946 H934 0.950 . S
C946 C945 1.398 . S
C946 C947 1.391 . S
C947 H935 0.950 . S
C947 C943 1.393 . S
C947 C946 1.391 . S
H948 C956 0.950 . S
H949 C961 0.950 . S
H950 C958 0.950 . S
H951 C960 0.950 . S
H952 C962 0.950 . S
H953 C964 0.950 . S
H954 C966 0.950 1_655 S
H955 C967 0.950 . S
C956 H948 0.950 . S
C956 C957 1.386 1_655 S
C956 C958 1.391 . S
C957 C956 1.386 1_455 S
C957 C961 1.393 . S
C958 H950 0.950 . S
C958 C956 1.391 . S
C958 C959 1.400 1_655 S
C959 C958 1.400 1_455 S
C959 C960 1.398 . S
C959 C965 1.491 . S
C960 H951 0.950 . S
C960 C959 1.398 . S
C960 C961 1.391 . S
C961 H949 0.950 . S
C961 C957 1.393 . S
C961 C960 1.391 . S
C962 H952 0.950 . S
C962 C963 1.386 . S
C962 C964 1.391 . S
C963 C962 1.386 . S
C963 C967 1.393 . S
C964 H953 0.950 . S
C964 C962 1.391 . S
C964 C965 1.400 . S
C965 C959 1.491 . S
C965 C964 1.400 . S
C965 C966 1.398 . S
C966 H954 0.950 1_455 S
C966 C965 1.398 . S
C966 C967 1.391 . S
C967 H955 0.950 . S
C967 C963 1.393 . S
C967 C966 1.391 . S
H968 C976 0.950 . S
H969 C981 0.950 . S
H970 C978 0.950 . S
H971 C980 0.950 . S
H972 C982 0.950 . S
H973 C984 0.950 . S
H974 C986 0.950 . S
H975 C987 0.950 . S
C976 H968 0.950 . S
C976 C977 1.386 . S
C976 C978 1.391 . S
C977 C976 1.386 . S
C977 C981 1.393 . S
C978 H970 0.950 . S
C978 C976 1.391 . S
C978 C979 1.400 . S
C979 C978 1.400 . S
C979 C980 1.398 . S
C979 C985 1.491 . S
C980 H971 0.950 . S
C980 C979 1.398 . S
C980 C981 1.391 . S
C981 H969 0.950 . S
C981 C977 1.393 . S
C981 C980 1.391 . S
C982 H972 0.950 . S
C982 C983 1.386 . S
C982 C984 1.391 . S
C983 C982 1.386 . S
C983 C987 1.393 . S
C984 H973 0.950 . S
C984 C982 1.391 . S
C984 C985 1.400 . S
C985 C979 1.491 . S
C985 C984 1.400 . S
C985 C986 1.398 . S
C986 H974 0.950 . S
C986 C985 1.398 . S
C986 C987 1.391 . S
C987 H975 0.950 . S
C987 C983 1.393 . S
C987 C986 1.391 . S
H988 C996 0.950 . S
H989 C1001 0.950 . S
H990 C998 0.950 . S
H991 C1000 0.950 . S
H992 C1002 0.950 . S
H993 C1004 0.950 . S
H994 C1006 0.950 . S
H995 C1007 0.950 . S
C996 H988 0.950 . S
C996 C997 1.386 . S
C996 C998 1.391 . S
C997 C996 1.386 . S
C997 C1001 1.393 . S
C998 H990 0.950 . S
C998 C996 1.391 . S
C998 C999 1.400 . S
C999 C998 1.400 . S
C999 C1000 1.398 . S
C999 C1005 1.491 . S
C1000 H991 0.950 . S
C1000 C999 1.398 . S
C1000 C1001 1.391 . S
C1001 H989 0.950 . S
C1001 C997 1.393 . S
C1001 C1000 1.391 . S
C1002 H992 0.950 . S
C1002 C1003 1.386 . S
C1002 C1004 1.391 . S
C1003 C1002 1.386 . S
C1003 C1007 1.393 . S
C1004 H993 0.950 . S
C1004 C1002 1.391 . S
C1004 C1005 1.400 . S
C1005 C999 1.491 . S
C1005 C1004 1.400 . S
C1005 C1006 1.398 . S
C1006 H994 0.950 . S
C1006 C1005 1.398 . S
C1006 C1007 1.391 . S
C1007 H995 0.950 . S
C1007 C1003 1.393 . S
C1007 C1006 1.391 . S
H1008 C1016 0.950 . S
H1009 C1021 0.950 . S
H1010 C1018 0.950 . S
H1011 C1020 0.950 . S
H1012 C1022 0.950 . S
H1013 C1024 0.950 . S
H1014 C1026 0.950 . S
H1015 C1027 0.950 . S
C1016 H1008 0.950 . S
C1016 C1017 1.386 . S
C1016 C1018 1.391 . S
C1017 C1016 1.386 . S
C1017 C1021 1.393 . S
C1018 H1010 0.950 . S
C1018 C1016 1.391 . S
C1018 C1019 1.400 . S
C1019 C1018 1.400 . S
C1019 C1020 1.398 . S
C1019 C1025 1.491 . S
C1020 H1011 0.950 . S
C1020 C1019 1.398 . S
C1020 C1021 1.391 . S
C1021 H1009 0.950 . S
C1021 C1017 1.393 . S
C1021 C1020 1.391 . S
C1022 H1012 0.950 . S
C1022 C1023 1.386 . S
C1022 C1024 1.391 . S
C1023 C1022 1.386 . S
C1023 C1027 1.393 . S
C1024 H1013 0.950 . S
C1024 C1022 1.391 . S
C1024 C1025 1.400 . S
C1025 C1019 1.491 . S
C1025 C1024 1.400 . S
C1025 C1026 1.398 . S
C1026 H1014 0.950 . S
C1026 C1025 1.398 . S
C1026 C1027 1.391 . S
C1027 H1015 0.950 . S
C1027 C1023 1.393 . S
C1027 C1026 1.391 . S
H1028 C1036 0.950 . S
H1029 C1041 0.950 . S
H1030 C1038 0.950 . S
H1031 C1040 0.950 . S
H1032 C1042 0.950 . S
H1033 C1044 0.950 . S
H1034 C1046 0.950 . S
H1035 C1047 0.950 . S
C1036 H1028 0.950 . S
C1036 C1037 1.386 . S
C1036 C1038 1.391 . S
C1037 C1036 1.386 . S
C1037 C1041 1.393 . S
C1038 H1030 0.950 . S
C1038 C1036 1.391 . S
C1038 C1039 1.400 . S
C1039 C1038 1.400 . S
C1039 C1040 1.398 . S
C1039 C1045 1.491 . S
C1040 H1031 0.950 . S
C1040 C1039 1.398 . S
C1040 C1041 1.391 . S
C1041 H1029 0.950 . S
C1041 C1037 1.393 . S
C1041 C1040 1.391 . S
C1042 H1032 0.950 . S
C1042 C1043 1.386 . S
C1042 C1044 1.391 . S
C1043 C1042 1.386 . S
C1043 C1047 1.393 . S
C1044 H1033 0.950 . S
C1044 C1042 1.391 . S
C1044 C1045 1.400 . S
C1045 C1039 1.491 . S
C1045 C1044 1.400 . S
C1045 C1046 1.398 . S
C1046 H1034 0.950 . S
C1046 C1045 1.398 . S
C1046 C1047 1.391 . S
C1047 H1035 0.950 . S
C1047 C1043 1.393 . S
C1047 C1046 1.391 . S
H1048 C1056 0.950 . S
H1049 C1061 0.950 . S
H1050 C1058 0.950 . S
H1051 C1060 0.950 . S
H1052 C1062 0.950 . S
H1053 C1064 0.950 . S
H1054 C1066 0.950 . S
H1055 C1067 0.950 . S
C1056 H1048 0.950 . S
C1056 C1057 1.386 . S
C1056 C1058 1.391 . S
C1057 C1056 1.386 . S
C1057 C1061 1.393 1_565 S
C1058 H1050 0.950 . S
C1058 C1056 1.391 . S
C1058 C1059 1.400 . S
C1059 C1058 1.400 . S
C1059 C1060 1.398 1_565 S
C1059 C1065 1.491 . S
C1060 H1051 0.950 . S
C1060 C1059 1.398 1_545 S
C1060 C1061 1.391 . S
C1061 H1049 0.950 . S
C1061 C1057 1.393 1_545 S
C1061 C1060 1.391 . S
C1062 H1052 0.950 . S
C1062 C1063 1.386 1_545 S
C1062 C1064 1.391 . S
C1063 C1062 1.386 1_565 S
C1063 C1067 1.393 . S
C1064 H1053 0.950 . S
C1064 C1062 1.391 . S
C1064 C1065 1.400 1_545 S
C1065 C1059 1.491 . S
C1065 C1064 1.400 1_565 S
C1065 C1066 1.398 . S
C1066 H1054 0.950 . S
C1066 C1065 1.398 . S
C1066 C1067 1.391 . S
C1067 H1055 0.950 . S
C1067 C1063 1.393 . S
C1067 C1066 1.391 . S
H1068 C1076 0.950 . S
H1069 C1081 0.950 . S
H1070 C1078 0.950 . S
H1071 C1080 0.950 . S
H1072 C1082 0.950 . S
H1073 C1084 0.950 1_545 S
H1074 C1086 0.950 . S
H1075 C1087 0.950 . S
C1076 H1068 0.950 . S
C1076 C1077 1.386 1_565 S
C1076 C1078 1.391 . S
C1077 C1076 1.386 1_545 S
C1077 C1081 1.393 . S
C1078 H1070 0.950 . S
C1078 C1076 1.391 . S
C1078 C1079 1.400 . S
C1079 C1078 1.400 . S
C1079 C1080 1.398 1_565 S
C1079 C1085 1.491 . S
C1080 H1071 0.950 . S
C1080 C1079 1.398 1_545 S
C1080 C1081 1.391 . S
C1081 H1069 0.950 . S
C1081 C1077 1.393 . S
C1081 C1080 1.391 . S
C1082 H1072 0.950 . S
C1082 C1083 1.386 . S
C1082 C1084 1.391 . S
C1083 C1082 1.386 . S
C1083 C1087 1.393 . S
C1084 H1073 0.950 1_565 S
C1084 C1082 1.391 . S
C1084 C1085 1.400 . S
C1085 C1079 1.491 . S
C1085 C1084 1.400 . S
C1085 C1086 1.398 . S
C1086 H1074 0.950 . S
C1086 C1085 1.398 . S
C1086 C1087 1.391 . S
C1087 H1075 0.950 . S
C1087 C1083 1.393 . S
C1087 C1086 1.391 . S
H1088 C1096 0.950 . S
H1089 C1101 0.950 . S
H1090 C1098 0.950 . S
H1091 C1100 0.950 . S
H1092 C1102 0.950 . S
H1093 C1104 0.950 . S
H1094 C1106 0.950 . S
H1095 C1107 0.950 . S
C1096 H1088 0.950 . S
C1096 C1097 1.386 . S
C1096 C1098 1.391 . S
C1097 C1096 1.386 . S
C1097 C1101 1.393 . S
C1098 H1090 0.950 . S
C1098 C1096 1.391 . S
C1098 C1099 1.400 . S
C1099 C1098 1.400 . S
C1099 C1100 1.398 . S
C1099 C1105 1.491 . S
C1100 H1091 0.950 . S
C1100 C1099 1.398 . S
C1100 C1101 1.391 . S
C1101 H1089 0.950 . S
C1101 C1097 1.393 . S
C1101 C1100 1.391 . S
C1102 H1092 0.950 . S
C1102 C1103 1.386 . S
C1102 C1104 1.391 . S
C1103 C1102 1.386 . S
C1103 C1107 1.393 . S
C1104 H1093 0.950 . S
C1104 C1102 1.391 . S
C1104 C1105 1.400 . S
C1105 C1099 1.491 . S
C1105 C1104 1.400 . S
C1105 C1106 1.398 . S
C1106 H1094 0.950 . S
C1106 C1105 1.398 . S
C1106 C1107 1.391 . S
C1107 H1095 0.950 . S
C1107 C1103 1.393 . S
C1107 C1106 1.391 . S
H1108 C1116 0.950 . S
H1109 C1121 0.950 . S
H1110 C1118 0.950 . S
H1111 C1120 0.950 . S
H1112 C1122 0.950 1_554 S
H1113 C1124 0.950 1_554 S
H1114 C1126 0.950 . S
H1115 C1127 0.950 . S
C1116 H1108 0.950 . S
C1116 C1117 1.389 1_556 S
C1116 C1118 1.391 . S
C1117 C1116 1.389 1_554 S
C1117 C1121 1.390 . S
C1118 H1110 0.950 . S
C1118 C1116 1.391 . S
C1118 C1119 1.400 . S
C1119 C1118 1.400 . S
C1119 C1120 1.398 1_556 S
C1119 C1125 1.491 . S
C1120 H1111 0.950 . S
C1120 C1119 1.398 1_554 S
C1120 C1121 1.391 . S
C1121 H1109 0.950 . S
C1121 C1117 1.390 . S
C1121 C1120 1.391 . S
C1122 H1112 0.950 1_556 S
C1122 C1123 1.386 . S
C1122 C1124 1.391 . S
C1123 C1122 1.386 . S
C1123 C1127 1.393 . S
C1124 H1113 0.950 1_556 S
C1124 C1122 1.391 . S
C1124 C1125 1.400 . S
C1125 C1119 1.491 . S
C1125 C1124 1.400 . S
C1125 C1126 1.398 . S
C1126 H1114 0.950 . S
C1126 C1125 1.398 . S
C1126 C1127 1.391 . S
C1127 H1115 0.950 . S
C1127 C1123 1.393 . S
C1127 C1126 1.391 . S
H1128 C1136 0.950 . S
H1129 C1141 0.950 . S
H1130 C1138 0.950 . S
H1131 C1140 0.950 . S
H1132 C1142 0.950 . S
H1133 C1144 0.950 . S
H1134 C1146 0.950 . S
H1135 C1147 0.950 . S
C1136 H1128 0.950 . S
C1136 C1137 1.386 . S
C1136 C1138 1.391 . S
C1137 C1136 1.386 . S
C1137 C1141 1.393 . S
C1138 H1130 0.950 . S
C1138 C1136 1.391 . S
C1138 C1139 1.400 . S
C1139 C1138 1.400 . S
C1139 C1140 1.398 . S
C1139 C1145 1.491 . S
C1140 H1131 0.950 . S
C1140 C1139 1.398 . S
C1140 C1141 1.391 . S
C1141 H1129 0.950 . S
C1141 C1137 1.393 . S
C1141 C1140 1.391 . S
C1142 H1132 0.950 . S
C1142 C1143 1.386 . S
C1142 C1144 1.391 . S
C1143 C1142 1.386 . S
C1143 C1147 1.393 . S
C1144 H1133 0.950 . S
C1144 C1142 1.391 . S
C1144 C1145 1.400 . S
C1145 C1139 1.491 . S
C1145 C1144 1.400 . S
C1145 C1146 1.398 . S
C1146 H1134 0.950 . S
C1146 C1145 1.398 . S
C1146 C1147 1.391 . S
C1147 H1135 0.950 . S
C1147 C1143 1.393 . S
C1147 C1146 1.391 . S
H1148 C1156 0.950 . S
H1149 C1161 0.950 . S
H1150 C1158 0.950 . S
H1151 C1160 0.950 . S
H1152 C1162 0.950 . S
H1153 C1164 0.950 . S
H1154 C1166 0.950 . S
H1155 C1167 0.950 . S
C1156 H1148 0.950 . S
C1156 C1157 1.386 . S
C1156 C1158 1.391 . S
C1157 C1156 1.386 . S
C1157 C1161 1.393 1_556 S
C1158 H1150 0.950 . S
C1158 C1156 1.391 . S
C1158 C1159 1.400 . S
C1159 C1158 1.400 . S
C1159 C1160 1.398 1_556 S
C1159 C1165 1.491 . S
C1160 H1151 0.950 . S
C1160 C1159 1.398 1_554 S
C1160 C1161 1.391 . S
C1161 H1149 0.950 . S
C1161 C1157 1.393 1_554 S
C1161 C1160 1.391 . S
C1162 H1152 0.950 . S
C1162 C1163 1.386 1_554 S
C1162 C1164 1.391 . S
C1163 C1162 1.386 1_556 S
C1163 C1167 1.393 . S
C1164 H1153 0.950 . S
C1164 C1162 1.391 . S
C1164 C1165 1.400 1_554 S
C1165 C1159 1.491 . S
C1165 C1164 1.400 1_556 S
C1165 C1166 1.398 . S
C1166 H1154 0.950 . S
C1166 C1165 1.398 . S
C1166 C1167 1.391 . S
C1167 H1155 0.950 . S
C1167 C1163 1.393 . S
C1167 C1166 1.391 . S
H1168 C1176 0.950 . S
H1169 C1181 0.950 . S
H1170 C1178 0.950 . S
H1171 C1180 0.950 . S
H1172 C1182 0.950 . S
H1173 C1184 0.950 . S
H1174 C1186 0.950 . S
H1175 C1187 0.950 . S
C1176 H1168 0.950 . S
C1176 C1177 1.386 . S
C1176 C1178 1.391 . S
C1177 C1176 1.386 . S
C1177 C1181 1.393 . S
C1178 H1170 0.950 . S
C1178 C1176 1.391 . S
C1178 C1179 1.400 . S
C1179 C1178 1.400 . S
C1179 C1180 1.398 . S
C1179 C1185 1.491 . S
C1180 H1171 0.950 . S
C1180 C1179 1.398 . S
C1180 C1181 1.391 . S
C1181 H1169 0.950 . S
C1181 C1177 1.393 . S
C1181 C1180 1.391 . S
C1182 H1172 0.950 . S
C1182 C1183 1.386 . S
C1182 C1184 1.391 . S
C1183 C1182 1.386 . S
C1183 C1187 1.393 . S
C1184 H1173 0.950 . S
C1184 C1182 1.391 . S
C1184 C1185 1.400 . S
C1185 C1179 1.491 . S
C1185 C1184 1.400 . S
C1185 C1186 1.398 . S
C1186 H1174 0.950 . S
C1186 C1185 1.398 . S
C1186 C1187 1.391 . S
C1187 H1175 0.950 . S
C1187 C1183 1.393 . S
C1187 C1186 1.391 . S
H1188 C1196 0.950 . S
H1189 C1201 0.950 . S
H1190 C1198 0.950 . S
H1191 C1200 0.950 . S
H1192 C1202 0.950 . S
H1193 C1204 0.950 . S
H1194 C1206 0.924 1_455 S
H1195 C1207 0.950 1_455 S
C1196 H1188 0.950 . S
C1196 C1197 1.415 . S
C1196 C1198 1.391 . S
C1197 C1196 1.415 . S
C1197 C1201 1.361 1_455 S
C1198 H1190 0.950 . S
C1198 C1196 1.391 . S
C1198 C1199 1.400 1_455 S
C1199 C1198 1.400 1_655 S
C1199 C1200 1.398 . S
C1199 C1205 1.491 . S
C1200 H1191 0.950 . S
C1200 C1199 1.398 . S
C1200 C1201 1.391 . S
C1201 H1189 0.950 . S
C1201 C1197 1.361 1_655 S
C1201 C1200 1.391 . S
C1202 H1192 0.950 . S
C1202 C1203 1.386 . S
C1202 C1204 1.391 . S
C1203 C1202 1.386 . S
C1203 C1207 1.393 . S
C1204 H1193 0.950 . S
C1204 C1202 1.391 . S
C1204 C1205 1.400 . S
C1205 C1199 1.491 . S
C1205 C1204 1.400 . S
C1205 C1206 1.421 . S
C1206 H1194 0.924 1_655 S
C1206 C1205 1.421 . S
C1206 C1207 1.394 . S
C1207 H1195 0.950 1_655 S
C1207 C1203 1.393 . S
C1207 C1206 1.394 . S
H1208 C1216 0.950 . S
H1209 C1221 0.950 . S
H1210 C1218 0.950 . S
H1211 C1220 0.950 . S
H1212 C1222 0.950 . S
H1213 C1224 0.950 . S
H1214 C1226 0.950 . S
H1215 C1227 0.950 . S
C1216 H1208 0.950 . S
C1216 C1217 1.386 . S
C1216 C1218 1.391 . S
C1217 C1216 1.386 . S
C1217 C1221 1.393 . S
C1218 H1210 0.950 . S
C1218 C1216 1.391 . S
C1218 C1219 1.400 . S
C1219 C1218 1.400 . S
C1219 C1220 1.398 . S
C1219 C1225 1.491 . S
C1220 H1211 0.950 . S
C1220 C1219 1.398 . S
C1220 C1221 1.391 . S
C1221 H1209 0.950 . S
C1221 C1217 1.393 . S
C1221 C1220 1.391 . S
C1222 H1212 0.950 . S
C1222 C1223 1.386 . S
C1222 C1224 1.391 . S
C1223 C1222 1.386 . S
C1223 C1227 1.393 . S
C1224 H1213 0.950 . S
C1224 C1222 1.391 . S
C1224 C1225 1.400 . S
C1225 C1219 1.491 . S
C1225 C1224 1.400 . S
C1225 C1226 1.398 . S
C1226 H1214 0.950 . S
C1226 C1225 1.398 . S
C1226 C1227 1.391 . S
C1227 H1215 0.950 . S
C1227 C1223 1.393 . S
C1227 C1226 1.391 . S
H1228 C1236 0.950 . S
H1229 C1241 0.950 . S
H1230 C1238 0.950 . S
H1231 C1240 0.950 . S
H1232 C1242 0.950 . S
H1233 C1244 0.950 . S
H1234 C1246 0.950 . S
H1235 C1247 0.950 . S
C1236 H1228 0.950 . S
C1236 C1237 1.386 . S
C1236 C1238 1.391 . S
C1237 C1236 1.386 . S
C1237 C1241 1.393 1_655 S
C1238 H1230 0.950 . S
C1238 C1236 1.391 . S
C1238 C1239 1.400 . S
C1239 C1238 1.400 . S
C1239 C1240 1.398 1_655 S
C1239 C1245 1.491 . S
C1240 H1231 0.950 . S
C1240 C1239 1.398 1_455 S
C1240 C1241 1.391 . S
C1241 H1229 0.950 . S
C1241 C1237 1.393 1_455 S
C1241 C1240 1.391 . S
C1242 H1232 0.950 . S
C1242 C1243 1.386 1_455 S
C1242 C1244 1.391 . S
C1243 C1242 1.386 1_655 S
C1243 C1247 1.393 . S
C1244 H1233 0.950 . S
C1244 C1242 1.391 . S
C1244 C1245 1.400 1_455 S
C1245 C1239 1.491 . S
C1245 C1244 1.400 1_655 S
C1245 C1246 1.398 . S
C1246 H1234 0.950 . S
C1246 C1245 1.398 . S
C1246 C1247 1.391 . S
C1247 H1235 0.950 . S
C1247 C1243 1.393 . S
C1247 C1246 1.391 . S
H1248 C1256 0.950 . S
H1249 C1261 0.950 . S
H1250 C1258 0.950 . S
H1251 C1260 0.950 . S
H1252 C1262 0.950 . S
H1253 C1264 0.950 . S
H1254 C1266 0.950 . S
H1255 C1267 0.950 . S
C1256 H1248 0.950 . S
C1256 C1257 1.386 . S
C1256 C1258 1.391 . S
C1257 C1256 1.386 . S
C1257 C1261 1.393 . S
C1258 H1250 0.950 . S
C1258 C1256 1.391 . S
C1258 C1259 1.400 . S
C1259 C1258 1.400 . S
C1259 C1260 1.398 . S
C1259 C1265 1.491 . S
C1260 H1251 0.950 . S
C1260 C1259 1.398 . S
C1260 C1261 1.391 . S
C1261 H1249 0.950 . S
C1261 C1257 1.393 . S
C1261 C1260 1.391 . S
C1262 H1252 0.950 . S
C1262 C1263 1.386 . S
C1262 C1264 1.391 . S
C1263 C1262 1.386 . S
C1263 C1267 1.393 . S
C1264 H1253 0.950 . S
C1264 C1262 1.391 . S
C1264 C1265 1.400 . S
C1265 C1259 1.491 . S
C1265 C1264 1.400 . S
C1265 C1266 1.398 . S
C1266 H1254 0.950 . S
C1266 C1265 1.398 . S
C1266 C1267 1.391 . S
C1267 H1255 0.950 . S
C1267 C1263 1.393 . S
C1267 C1266 1.391 . S
H1268 C1276 0.950 . S
H1269 C1281 0.950 . S
H1270 C1278 0.950 . S
H1271 C1280 0.950 . S
H1272 C1282 0.950 . S
H1273 C1284 0.950 . S
H1274 C1286 0.950 . S
H1275 C1287 0.950 . S
C1276 H1268 0.950 . S
C1276 C1277 1.386 . S
C1276 C1278 1.391 . S
C1277 C1276 1.386 . S
C1277 C1281 1.393 . S
C1278 H1270 0.950 . S
C1278 C1276 1.391 . S
C1278 C1279 1.400 . S
C1279 C1278 1.400 . S
C1279 C1280 1.398 . S
C1279 C1285 1.491 . S
C1280 H1271 0.950 . S
C1280 C1279 1.398 . S
C1280 C1281 1.391 . S
C1281 H1269 0.950 . S
C1281 C1277 1.393 . S
C1281 C1280 1.391 . S
C1282 H1272 0.950 . S
C1282 C1283 1.386 . S
C1282 C1284 1.391 . S
C1283 C1282 1.386 . S
C1283 C1287 1.393 . S
C1284 H1273 0.950 . S
C1284 C1282 1.391 . S
C1284 C1285 1.400 . S
C1285 C1279 1.491 . S
C1285 C1284 1.400 . S
C1285 C1286 1.398 . S
C1286 H1274 0.950 . S
C1286 C1285 1.398 . S
C1286 C1287 1.391 . S
C1287 H1275 0.950 . S
C1287 C1283 1.393 . S
C1287 C1286 1.391 . S
H1288 C1296 0.950 . S
H1289 C1301 0.948 1_565 S
H1290 C1298 0.950 . S
H1291 C1300 0.952 . S
H1292 C1302 0.950 . S
H1293 C1304 0.950 . S
H1294 C1306 0.950 . S
H1295 C1307 0.950 . S
C1296 H1288 0.950 . S
C1296 C1297 1.386 . S
C1296 C1298 1.391 . S
C1297 C1296 1.386 . S
C1297 C1301 1.395 . S
C1298 H1290 0.950 . S
C1298 C1296 1.391 . S
C1298 C1299 1.400 . S
C1299 C1298 1.400 . S
C1299 C1300 1.397 1_545 S
C1299 C1305 1.491 . S
C1300 H1291 0.952 . S
C1300 C1299 1.397 1_565 S
C1300 C1301 1.389 1_565 S
C1301 H1289 0.948 1_545 S
C1301 C1297 1.395 . S
C1301 C1300 1.389 1_545 S
C1302 H1292 0.950 . S
C1302 C1303 1.386 1_565 S
C1302 C1304 1.391 . S
C1303 C1302 1.386 1_545 S
C1303 C1307 1.393 . S
C1304 H1293 0.950 . S
C1304 C1302 1.391 . S
C1304 C1305 1.400 1_565 S
C1305 C1299 1.491 . S
C1305 C1304 1.400 1_545 S
C1305 C1306 1.398 . S
C1306 H1294 0.950 . S
C1306 C1305 1.398 . S
C1306 C1307 1.391 . S
C1307 H1295 0.950 . S
C1307 C1303 1.393 . S
C1307 C1306 1.391 . S
H1308 C1316 0.950 . S
H1309 C1321 0.950 . S
H1310 C1318 0.950 . S
H1311 C1320 0.950 . S
H1312 C1322 0.950 . S
H1313 C1324 0.950 . S
H1314 C1326 0.948 . S
H1315 C1327 0.950 . S
C1316 H1308 0.950 . S
C1316 C1317 1.386 . S
C1316 C1318 1.391 . S
C1317 C1316 1.386 . S
C1317 C1321 1.393 1_565 S
C1318 H1310 0.950 . S
C1318 C1316 1.391 . S
C1318 C1319 1.400 1_565 S
C1319 C1318 1.400 1_545 S
C1319 C1320 1.398 . S
C1319 C1325 1.491 . S
C1320 H1311 0.950 . S
C1320 C1319 1.398 . S
C1320 C1321 1.391 . S
C1321 H1309 0.950 . S
C1321 C1317 1.393 1_545 S
C1321 C1320 1.391 . S
C1322 H1312 0.950 . S
C1322 C1323 1.386 . S
C1322 C1324 1.391 . S
C1323 C1322 1.386 . S
C1323 C1327 1.393 . S
C1324 H1313 0.950 . S
C1324 C1322 1.391 . S
C1324 C1325 1.400 . S
C1325 C1319 1.491 . S
C1325 C1324 1.400 . S
C1325 C1326 1.398 . S
C1326 H1314 0.948 . S
C1326 C1325 1.398 . S
C1326 C1327 1.391 . S
C1327 H1315 0.950 . S
C1327 C1323 1.393 . S
C1327 C1326 1.391 . S
H1328 C1336 0.950 . S
H1329 C1341 0.950 . S
H1330 C1338 0.950 . S
H1331 C1340 0.950 . S
H1332 C1342 0.950 . S
H1333 C1344 0.950 . S
H1334 C1346 0.950 . S
H1335 C1347 0.950 . S
C1336 H1328 0.950 . S
C1336 C1337 1.386 . S
C1336 C1338 1.391 . S
C1337 C1336 1.386 . S
C1337 C1341 1.393 . S
C1338 H1330 0.950 . S
C1338 C1336 1.391 . S
C1338 C1339 1.400 . S
C1339 C1338 1.400 . S
C1339 C1340 1.398 . S
C1339 C1345 1.491 . S
C1340 H1331 0.950 . S
C1340 C1339 1.398 . S
C1340 C1341 1.391 . S
C1341 H1329 0.950 . S
C1341 C1337 1.393 . S
C1341 C1340 1.391 . S
C1342 H1332 0.950 . S
C1342 C1343 1.386 . S
C1342 C1344 1.391 . S
C1343 C1342 1.386 . S
C1343 C1347 1.393 . S
C1344 H1333 0.950 . S
C1344 C1342 1.391 . S
C1344 C1345 1.400 . S
C1345 C1339 1.491 . S
C1345 C1344 1.400 . S
C1345 C1346 1.398 . S
C1346 H1334 0.950 . S
C1346 C1345 1.398 . S
C1346 C1347 1.391 . S
C1347 H1335 0.950 . S
C1347 C1343 1.393 . S
C1347 C1346 1.391 . S
H1348 C1356 0.950 . S
H1349 C1361 0.950 . S
H1350 C1358 0.950 . S
H1351 C1360 0.950 . S
H1352 C1362 0.950 . S
H1353 C1364 0.950 . S
H1354 C1366 0.950 1_556 S
H1355 C1367 0.950 . S
C1356 H1348 0.950 . S
C1356 C1357 1.386 . S
C1356 C1358 1.391 . S
C1357 C1356 1.386 . S
C1357 C1361 1.393 1_556 S
C1358 H1350 0.950 . S
C1358 C1356 1.391 . S
C1358 C1359 1.400 1_556 S
C1359 C1358 1.400 1_554 S
C1359 C1360 1.398 . S
C1359 C1365 1.491 . S
C1360 H1351 0.950 . S
C1360 C1359 1.398 . S
C1360 C1361 1.391 . S
C1361 H1349 0.950 . S
C1361 C1357 1.393 1_554 S
C1361 C1360 1.391 . S
C1362 H1352 0.950 . S
C1362 C1363 1.386 . S
C1362 C1364 1.391 . S
C1363 C1362 1.386 . S
C1363 C1367 1.393 . S
C1364 H1353 0.950 . S
C1364 C1362 1.391 . S
C1364 C1365 1.400 . S
C1365 C1359 1.491 . S
C1365 C1364 1.400 . S
C1365 C1366 1.398 . S
C1366 H1354 0.950 1_554 S
C1366 C1365 1.398 . S
C1366 C1367 1.391 . S
C1367 H1355 0.950 . S
C1367 C1363 1.393 . S
C1367 C1366 1.391 . S
H1368 C1376 0.950 . S
H1369 C1381 0.950 . S
H1370 C1378 0.950 . S
H1371 C1380 0.950 . S
H1372 C1382 0.950 . S
H1373 C1384 0.950 . S
H1374 C1386 0.950 . S
H1375 C1387 0.950 . S
C1376 H1368 0.950 . S
C1376 C1377 1.386 . S
C1376 C1378 1.391 . S
C1377 C1376 1.386 . S
C1377 C1381 1.393 . S
C1378 H1370 0.950 . S
C1378 C1376 1.391 . S
C1378 C1379 1.400 . S
C1379 C1378 1.400 . S
C1379 C1380 1.398 . S
C1379 C1385 1.491 . S
C1380 H1371 0.950 . S
C1380 C1379 1.398 . S
C1380 C1381 1.391 . S
C1381 H1369 0.950 . S
C1381 C1377 1.393 . S
C1381 C1380 1.391 . S
C1382 H1372 0.950 . S
C1382 C1383 1.386 . S
C1382 C1384 1.391 . S
C1383 C1382 1.386 . S
C1383 C1387 1.393 . S
C1384 H1373 0.950 . S
C1384 C1382 1.391 . S
C1384 C1385 1.400 . S
C1385 C1379 1.491 . S
C1385 C1384 1.400 . S
C1385 C1386 1.398 . S
C1386 H1374 0.950 . S
C1386 C1385 1.398 . S
C1386 C1387 1.391 . S
C1387 H1375 0.950 . S
C1387 C1383 1.393 . S
C1387 C1386 1.391 . S
H1388 C1396 0.950 . S
H1389 C1401 0.950 . S
H1390 C1398 0.950 . S
H1391 C1400 0.950 . S
H1392 C1402 0.950 . S
H1393 C1404 0.950 . S
H1394 C1406 0.950 . S
H1395 C1407 0.950 . S
C1396 H1388 0.950 . S
C1396 C1397 1.386 1_556 S
C1396 C1398 1.391 . S
C1397 C1396 1.386 1_554 S
C1397 C1401 1.393 . S
C1398 H1390 0.950 . S
C1398 C1396 1.391 . S
C1398 C1399 1.400 1_556 S
C1399 C1398 1.400 1_554 S
C1399 C1400 1.398 . S
C1399 C1405 1.491 . S
C1400 H1391 0.950 . S
C1400 C1399 1.398 . S
C1400 C1401 1.391 . S
C1401 H1389 0.950 . S
C1401 C1397 1.393 . S
C1401 C1400 1.391 . S
C1402 H1392 0.950 . S
C1402 C1403 1.386 . S
C1402 C1404 1.391 . S
C1403 C1402 1.386 . S
C1403 C1407 1.393 1_554 S
C1404 H1393 0.950 . S
C1404 C1402 1.391 . S
C1404 C1405 1.400 . S
C1405 C1399 1.491 . S
C1405 C1404 1.400 . S
C1405 C1406 1.398 1_554 S
C1406 H1394 0.950 . S
C1406 C1405 1.398 1_556 S
C1406 C1407 1.391 . S
C1407 H1395 0.950 . S
C1407 C1403 1.393 1_556 S
C1407 C1406 1.391 . S
H1408 C1416 0.950 . S
H1409 C1421 0.950 . S
H1410 C1418 0.950 . S
H1411 C1420 0.950 . S
H1412 C1422 0.950 . S
H1413 C1424 0.950 . S
H1414 C1426 0.950 . S
H1415 C1427 0.950 . S
C1416 H1408 0.950 . S
C1416 C1417 1.386 . S
C1416 C1418 1.391 . S
C1417 C1416 1.386 . S
C1417 C1421 1.393 . S
C1418 H1410 0.950 . S
C1418 C1416 1.391 . S
C1418 C1419 1.400 . S
C1419 C1418 1.400 . S
C1419 C1420 1.398 . S
C1419 C1425 1.491 . S
C1420 H1411 0.950 . S
C1420 C1419 1.398 . S
C1420 C1421 1.391 . S
C1421 H1409 0.950 . S
C1421 C1417 1.393 . S
C1421 C1420 1.391 . S
C1422 H1412 0.950 . S
C1422 C1423 1.386 . S
C1422 C1424 1.391 . S
C1423 C1422 1.386 . S
C1423 C1427 1.393 . S
C1424 H1413 0.950 . S
C1424 C1422 1.391 . S
C1424 C1425 1.400 . S
C1425 C1419 1.491 . S
C1425 C1424 1.400 . S
C1425 C1426 1.398 . S
C1426 H1414 0.950 . S
C1426 C1425 1.398 . S
C1426 C1427 1.391 . S
C1427 H1415 0.950 . S
C1427 C1423 1.393 . S
C1427 C1426 1.391 . S
H1428 C1436 0.950 . S
H1429 C1441 0.950 . S
H1430 C1438 0.950 . S
H1431 C1440 0.950 . S
H1432 C1442 0.950 . S
H1433 C1444 0.950 . S
H1434 C1446 0.950 1_655 S
H1435 C1447 0.950 1_655 S
C1436 H1428 0.950 . S
C1436 C1437 1.413 . S
C1436 C1438 1.391 . S
C1437 C1436 1.413 . S
C1437 C1441 1.362 1_655 S
C1438 H1430 0.950 . S
C1438 C1436 1.391 . S
C1438 C1439 1.400 1_655 S
C1439 C1438 1.400 1_455 S
C1439 C1440 1.398 . S
C1439 C1445 1.491 . S
C1440 H1431 0.950 . S
C1440 C1439 1.398 . S
C1440 C1441 1.391 . S
C1441 H1429 0.950 . S
C1441 C1437 1.362 1_455 S
C1441 C1440 1.391 . S
C1442 H1432 0.950 . S
C1442 C1443 1.386 . S
C1442 C1444 1.391 . S
C1443 C1442 1.386 . S
C1443 C1447 1.393 . S
C1444 H1433 0.950 . S
C1444 C1442 1.391 . S
C1444 C1445 1.400 . S
C1445 C1439 1.491 . S
C1445 C1444 1.400 . S
C1445 C1446 1.398 . S
C1446 H1434 0.950 1_455 S
C1446 C1445 1.398 . S
C1446 C1447 1.391 . S
C1447 H1435 0.950 1_455 S
C1447 C1443 1.393 . S
C1447 C1446 1.391 . S
H1448 C1456 0.950 . S
H1449 C1461 0.950 . S
H1450 C1458 0.950 . S
H1451 C1460 0.950 . S
H1452 C1462 0.950 . S
H1453 C1464 0.950 . S
H1454 C1466 0.950 . S
H1455 C1467 0.950 . S
C1456 H1448 0.950 . S
C1456 C1457 1.386 . S
C1456 C1458 1.391 . S
C1457 C1456 1.386 . S
C1457 C1461 1.393 . S
C1458 H1450 0.950 . S
C1458 C1456 1.391 . S
C1458 C1459 1.400 . S
C1459 C1458 1.400 . S
C1459 C1460 1.398 . S
C1459 C1465 1.491 . S
C1460 H1451 0.950 . S
C1460 C1459 1.398 . S
C1460 C1461 1.391 . S
C1461 H1449 0.950 . S
C1461 C1457 1.393 . S
C1461 C1460 1.391 . S
C1462 H1452 0.950 . S
C1462 C1463 1.386 . S
C1462 C1464 1.391 . S
C1463 C1462 1.386 . S
C1463 C1467 1.393 . S
C1464 H1453 0.950 . S
C1464 C1462 1.391 . S
C1464 C1465 1.400 . S
C1465 C1459 1.491 . S
C1465 C1464 1.400 . S
C1465 C1466 1.398 . S
C1466 H1454 0.950 . S
C1466 C1465 1.398 . S
C1466 C1467 1.391 . S
C1467 H1455 0.950 . S
C1467 C1463 1.393 . S
C1467 C1466 1.391 . S
H1468 C1476 0.950 . S
H1469 C1481 0.950 . S
H1470 C1478 0.950 . S
H1471 C1480 0.950 . S
H1472 C1482 0.950 . S
H1473 C1484 0.950 . S
H1474 C1486 0.950 . S
H1475 C1487 0.950 . S
C1476 H1468 0.950 . S
C1476 C1477 1.386 1_655 S
C1476 C1478 1.391 . S
C1477 C1476 1.386 1_455 S
C1477 C1481 1.393 . S
C1478 H1470 0.950 . S
C1478 C1476 1.391 . S
C1478 C1479 1.400 1_655 S
C1479 C1478 1.400 1_455 S
C1479 C1480 1.398 . S
C1479 C1485 1.491 . S
C1480 H1471 0.950 . S
C1480 C1479 1.398 . S
C1480 C1481 1.391 . S
C1481 H1469 0.950 . S
C1481 C1477 1.393 . S
C1481 C1480 1.391 . S
C1482 H1472 0.950 . S
C1482 C1483 1.386 . S
C1482 C1484 1.391 . S
C1483 C1482 1.386 . S
C1483 C1487 1.393 1_455 S
C1484 H1473 0.950 . S
C1484 C1482 1.391 . S
C1484 C1485 1.400 . S
C1485 C1479 1.491 . S
C1485 C1484 1.400 . S
C1485 C1486 1.398 1_455 S
C1486 H1474 0.950 . S
C1486 C1485 1.398 1_655 S
C1486 C1487 1.391 . S
C1487 H1475 0.950 . S
C1487 C1483 1.393 1_655 S
C1487 C1486 1.391 . S
H1488 C1496 0.950 . S
H1489 C1501 0.950 . S
H1490 C1498 0.950 . S
H1491 C1500 0.950 . S
H1492 C1502 0.950 . S
H1493 C1504 0.950 . S
H1494 C1506 0.950 . S
H1495 C1507 0.950 . S
C1496 H1488 0.950 . S
C1496 C1497 1.386 . S
C1496 C1498 1.391 . S
C1497 C1496 1.386 . S
C1497 C1501 1.393 . S
C1498 H1490 0.950 . S
C1498 C1496 1.391 . S
C1498 C1499 1.400 . S
C1499 C1498 1.400 . S
C1499 C1500 1.398 . S
C1499 C1505 1.491 . S
C1500 H1491 0.950 . S
C1500 C1499 1.398 . S
C1500 C1501 1.391 . S
C1501 H1489 0.950 . S
C1501 C1497 1.393 . S
C1501 C1500 1.391 . S
C1502 H1492 0.950 . S
C1502 C1503 1.386 . S
C1502 C1504 1.391 . S
C1503 C1502 1.386 . S
C1503 C1507 1.393 . S
C1504 H1493 0.950 . S
C1504 C1502 1.391 . S
C1504 C1505 1.400 . S
C1505 C1499 1.491 . S
C1505 C1504 1.400 . S
C1505 C1506 1.398 . S
C1506 H1494 0.950 . S
C1506 C1505 1.398 . S
C1506 C1507 1.391 . S
C1507 H1495 0.950 . S
C1507 C1503 1.393 . S
C1507 C1506 1.391 . S
H1508 C1516 0.950 . S
H1509 C1521 0.950 . S
H1510 C1518 0.950 . S
H1511 C1520 0.950 . S
H1512 C1522 0.950 . S
H1513 C1524 0.950 . S
H1514 C1526 0.950 . S
H1515 C1527 0.950 . S
C1516 H1508 0.950 . S
C1516 C1517 1.386 . S
C1516 C1518 1.391 . S
C1517 C1516 1.386 . S
C1517 C1521 1.393 . S
C1518 H1510 0.950 . S
C1518 C1516 1.391 . S
C1518 C1519 1.400 . S
C1519 C1518 1.400 . S
C1519 C1520 1.398 . S
C1519 C1525 1.491 . S
C1520 H1511 0.950 . S
C1520 C1519 1.398 . S
C1520 C1521 1.391 . S
C1521 H1509 0.950 . S
C1521 C1517 1.393 . S
C1521 C1520 1.391 . S
C1522 H1512 0.950 . S
C1522 C1523 1.386 . S
C1522 C1524 1.391 . S
C1523 C1522 1.386 . S
C1523 C1527 1.393 . S
C1524 H1513 0.950 . S
C1524 C1522 1.391 . S
C1524 C1525 1.400 . S
C1525 C1519 1.491 . S
C1525 C1524 1.400 . S
C1525 C1526 1.398 . S
C1526 H1514 0.950 . S
C1526 C1525 1.398 . S
C1526 C1527 1.391 . S
C1527 H1515 0.950 . S
C1527 C1523 1.393 . S
C1527 C1526 1.391 . S
H1528 C1536 0.950 1_565 S
H1529 C1541 0.950 . S
H1530 C1538 0.950 . S
H1531 C1540 0.950 . S
H1532 C1542 0.950 . S
H1533 C1544 0.950 . S
H1534 C1546 0.950 . S
H1535 C1547 0.950 . S
C1536 H1528 0.950 1_545 S
C1536 C1537 1.386 . S
C1536 C1538 1.391 . S
C1537 C1536 1.386 . S
C1537 C1541 1.393 . S
C1538 H1530 0.950 . S
C1538 C1536 1.391 . S
C1538 C1539 1.400 . S
C1539 C1538 1.400 . S
C1539 C1540 1.398 . S
C1539 C1545 1.491 . S
C1540 H1531 0.950 . S
C1540 C1539 1.398 . S
C1540 C1541 1.391 . S
C1541 H1529 0.950 . S
C1541 C1537 1.393 . S
C1541 C1540 1.391 . S
C1542 H1532 0.950 . S
C1542 C1543 1.386 . S
C1542 C1544 1.391 . S
C1543 C1542 1.386 . S
C1543 C1547 1.393 . S
C1544 H1533 0.950 . S
C1544 C1542 1.391 . S
C1544 C1545 1.400 . S
C1545 C1539 1.491 . S
C1545 C1544 1.400 . S
C1545 C1546 1.398 . S
C1546 H1534 0.950 . S
C1546 C1545 1.398 . S
C1546 C1547 1.391 . S
C1547 H1535 0.950 . S
C1547 C1543 1.393 . S
C1547 C1546 1.391 . S
H1548 C1556 0.980 . S
H1549 C1561 0.950 . S
H1550 C1558 0.950 1_545 S
H1551 C1560 0.950 . S
H1552 C1562 0.950 . S
H1553 C1564 0.950 . S
H1554 C1566 0.950 . S
H1555 C1567 0.950 . S
C1556 H1548 0.980 . S
C1556 C1557 1.364 1_545 S
C1556 C1558 1.385 1_545 S
C1557 C1556 1.364 1_565 S
C1557 C1561 1.393 . S
C1558 H1550 0.950 1_565 S
C1558 C1556 1.385 1_565 S
C1558 C1559 1.400 . S
C1559 C1558 1.400 . S
C1559 C1560 1.398 . S
C1559 C1565 1.491 . S
C1560 H1551 0.950 . S
C1560 C1559 1.398 . S
C1560 C1561 1.391 . S
C1561 H1549 0.950 . S
C1561 C1557 1.393 . S
C1561 C1560 1.391 . S
C1562 H1552 0.950 . S
C1562 C1563 1.386 . S
C1562 C1564 1.391 . S
C1563 C1562 1.386 . S
C1563 C1567 1.393 . S
C1564 H1553 0.950 . S
C1564 C1562 1.391 . S
C1564 C1565 1.400 . S
C1565 C1559 1.491 . S
C1565 C1564 1.400 . S
C1565 C1566 1.398 . S
C1566 H1554 0.950 . S
C1566 C1565 1.398 . S
C1566 C1567 1.391 . S
C1567 H1555 0.950 . S
C1567 C1563 1.393 . S
C1567 C1566 1.391 . S
H1568 C1576 0.950 . S
H1569 C1581 0.950 . S
H1570 C1578 0.950 . S
H1571 C1580 0.950 . S
H1572 C1582 0.950 . S
H1573 C1584 0.950 . S
H1574 C1586 0.950 . S
H1575 C1587 0.950 . S
C1576 H1568 0.950 . S
C1576 C1577 1.386 . S
C1576 C1578 1.391 . S
C1577 C1576 1.386 . S
C1577 C1581 1.393 . S
C1578 H1570 0.950 . S
C1578 C1576 1.391 . S
C1578 C1579 1.400 . S
C1579 C1578 1.400 . S
C1579 C1580 1.398 . S
C1579 C1585 1.491 . S
C1580 H1571 0.950 . S
C1580 C1579 1.398 . S
C1580 C1581 1.391 . S
C1581 H1569 0.950 . S
C1581 C1577 1.393 . S
C1581 C1580 1.391 . S
C1582 H1572 0.950 . S
C1582 C1583 1.386 . S
C1582 C1584 1.391 . S
C1583 C1582 1.386 . S
C1583 C1587 1.393 . S
C1584 H1573 0.950 . S
C1584 C1582 1.391 . S
C1584 C1585 1.400 . S
C1585 C1579 1.491 . S
C1585 C1584 1.400 . S
C1585 C1586 1.398 . S
C1586 H1574 0.950 . S
C1586 C1585 1.398 . S
C1586 C1587 1.391 . S
C1587 H1575 0.950 . S
C1587 C1583 1.393 . S
C1587 C1586 1.391 . S
H1588 C1596 0.950 . S
H1589 C1601 0.950 . S
H1590 C1598 0.950 . S
H1591 C1600 0.950 . S
H1592 C1602 0.950 . S
H1593 C1604 0.950 1_554 S
H1594 C1606 0.950 . S
H1595 C1607 0.950 . S
C1596 H1588 0.950 . S
C1596 C1597 1.386 . S
C1596 C1598 1.391 . S
C1597 C1596 1.386 . S
C1597 C1601 1.393 1_556 S
C1598 H1590 0.950 . S
C1598 C1596 1.391 . S
C1598 C1599 1.400 . S
C1599 C1598 1.400 . S
C1599 C1600 1.398 1_556 S
C1599 C1605 1.491 . S
C1600 H1591 0.950 . S
C1600 C1599 1.398 1_554 S
C1600 C1601 1.391 . S
C1601 H1589 0.950 . S
C1601 C1597 1.393 1_554 S
C1601 C1600 1.391 . S
C1602 H1592 0.950 . S
C1602 C1603 1.386 . S
C1602 C1604 1.391 . S
C1603 C1602 1.386 . S
C1603 C1607 1.393 . S
C1604 H1593 0.950 1_556 S
C1604 C1602 1.391 . S
C1604 C1605 1.400 . S
C1605 C1599 1.491 . S
C1605 C1604 1.400 . S
C1605 C1606 1.398 . S
C1606 H1594 0.950 . S
C1606 C1605 1.398 . S
C1606 C1607 1.391 . S
C1607 H1595 0.950 . S
C1607 C1603 1.393 . S
C1607 C1606 1.391 . S
H1608 C1616 0.950 . S
H1609 C1621 0.950 . S
H1610 C1618 0.950 . S
H1611 C1620 0.950 . S
H1612 C1622 0.950 . S
H1613 C1624 0.950 . S
H1614 C1626 0.950 . S
H1615 C1627 0.950 . S
C1616 H1608 0.950 . S
C1616 C1617 1.386 . S
C1616 C1618 1.391 . S
C1617 C1616 1.386 . S
C1617 C1621 1.393 . S
C1618 H1610 0.950 . S
C1618 C1616 1.391 . S
C1618 C1619 1.400 . S
C1619 C1618 1.400 . S
C1619 C1620 1.398 . S
C1619 C1625 1.491 . S
C1620 H1611 0.950 . S
C1620 C1619 1.398 . S
C1620 C1621 1.391 . S
C1621 H1609 0.950 . S
C1621 C1617 1.393 . S
C1621 C1620 1.391 . S
C1622 H1612 0.950 . S
C1622 C1623 1.386 . S
C1622 C1624 1.391 . S
C1623 C1622 1.386 . S
C1623 C1627 1.393 . S
C1624 H1613 0.950 . S
C1624 C1622 1.391 . S
C1624 C1625 1.400 . S
C1625 C1619 1.491 . S
C1625 C1624 1.400 . S
C1625 C1626 1.398 . S
C1626 H1614 0.950 . S
C1626 C1625 1.398 . S
C1626 C1627 1.391 . S
C1627 H1615 0.950 . S
C1627 C1623 1.393 . S
C1627 C1626 1.391 . S
H1628 C1636 0.950 . S
H1629 C1641 0.950 . S
H1630 C1638 0.950 . S
H1631 C1640 0.950 . S
H1632 C1642 0.950 . S
H1633 C1644 0.950 . S
H1634 C1646 0.950 . S
H1635 C1647 0.950 . S
C1636 H1628 0.950 . S
C1636 C1637 1.386 1_556 S
C1636 C1638 1.391 . S
C1637 C1636 1.386 1_554 S
C1637 C1641 1.393 . S
C1638 H1630 0.950 . S
C1638 C1636 1.391 . S
C1638 C1639 1.400 1_556 S
C1639 C1638 1.400 1_554 S
C1639 C1640 1.398 . S
C1639 C1645 1.491 . S
C1640 H1631 0.950 . S
C1640 C1639 1.398 . S
C1640 C1641 1.391 . S
C1641 H1629 0.950 . S
C1641 C1637 1.393 . S
C1641 C1640 1.391 . S
C1642 H1632 0.950 . S
C1642 C1643 1.386 . S
C1642 C1644 1.391 . S
C1643 C1642 1.386 . S
C1643 C1647 1.393 1_554 S
C1644 H1633 0.950 . S
C1644 C1642 1.391 . S
C1644 C1645 1.400 . S
C1645 C1639 1.491 . S
C1645 C1644 1.400 . S
C1645 C1646 1.398 1_554 S
C1646 H1634 0.950 . S
C1646 C1645 1.398 1_556 S
C1646 C1647 1.391 . S
C1647 H1635 0.950 . S
C1647 C1643 1.393 1_556 S
C1647 C1646 1.391 . S
H1648 C1656 0.950 . S
H1649 C1661 0.950 . S
H1650 C1658 0.950 . S
H1651 C1660 0.950 . S
H1652 C1662 0.950 . S
H1653 C1664 0.950 . S
H1654 C1666 0.950 . S
H1655 C1667 0.950 . S
C1656 H1648 0.950 . S
C1656 C1657 1.386 . S
C1656 C1658 1.391 . S
C1657 C1656 1.386 . S
C1657 C1661 1.393 . S
C1658 H1650 0.950 . S
C1658 C1656 1.391 . S
C1658 C1659 1.400 . S
C1659 C1658 1.400 . S
C1659 C1660 1.398 . S
C1659 C1665 1.491 . S
C1660 H1651 0.950 . S
C1660 C1659 1.398 . S
C1660 C1661 1.391 . S
C1661 H1649 0.950 . S
C1661 C1657 1.393 . S
C1661 C1660 1.391 . S
C1662 H1652 0.950 . S
C1662 C1663 1.386 . S
C1662 C1664 1.391 . S
C1663 C1662 1.386 . S
C1663 C1667 1.393 . S
C1664 H1653 0.950 . S
C1664 C1662 1.391 . S
C1664 C1665 1.400 . S
C1665 C1659 1.491 . S
C1665 C1664 1.400 . S
C1665 C1666 1.398 . S
C1666 H1654 0.950 . S
C1666 C1665 1.398 . S
C1666 C1667 1.391 . S
C1667 H1655 0.950 . S
C1667 C1663 1.393 . S
C1667 C1666 1.391 . S
H1668 C1676 0.950 . S
H1669 C1681 0.950 . S
H1670 C1678 0.950 . S
H1671 C1680 0.950 . S
H1672 C1682 0.950 . S
H1673 C1684 0.950 . S
H1674 C1686 0.917 1_455 S
H1675 C1687 0.950 . S
C1676 H1668 0.950 . S
C1676 C1677 1.386 1_455 S
C1676 C1678 1.391 . S
C1677 C1676 1.386 1_655 S
C1677 C1681 1.393 . S
C1678 H1670 0.950 . S
C1678 C1676 1.391 . S
C1678 C1679 1.400 1_455 S
C1679 C1678 1.400 1_655 S
C1679 C1680 1.398 . S
C1679 C1685 1.491 . S
C1680 H1671 0.950 . S
C1680 C1679 1.398 . S
C1680 C1681 1.391 . S
C1681 H1669 0.950 . S
C1681 C1677 1.393 . S
C1681 C1680 1.391 . S
C1682 H1672 0.950 . S
C1682 C1683 1.386 . S
C1682 C1684 1.391 . S
C1683 C1682 1.386 . S
C1683 C1687 1.393 . S
C1684 H1673 0.950 . S
C1684 C1682 1.391 . S
C1684 C1685 1.400 . S
C1685 C1679 1.491 . S
C1685 C1684 1.400 . S
C1685 C1686 1.398 . S
C1686 H1674 0.917 1_655 S
C1686 C1685 1.398 . S
C1686 C1687 1.391 . S
C1687 H1675 0.950 . S
C1687 C1683 1.393 . S
C1687 C1686 1.391 . S
H1688 C1696 0.950 . S
H1689 C1701 0.950 . S
H1690 C1698 0.950 . S
H1691 C1700 0.950 . S
H1692 C1702 0.950 . S
H1693 C1704 0.950 . S
H1694 C1706 0.950 . S
H1695 C1707 0.950 . S
C1696 H1688 0.950 . S
C1696 C1697 1.386 . S
C1696 C1698 1.391 . S
C1697 C1696 1.386 . S
C1697 C1701 1.393 . S
C1698 H1690 0.950 . S
C1698 C1696 1.391 . S
C1698 C1699 1.400 . S
C1699 C1698 1.400 . S
C1699 C1700 1.398 . S
C1699 C1705 1.491 . S
C1700 H1691 0.950 . S
C1700 C1699 1.398 . S
C1700 C1701 1.391 . S
C1701 H1689 0.950 . S
C1701 C1697 1.393 . S
C1701 C1700 1.391 . S
C1702 H1692 0.950 . S
C1702 C1703 1.386 . S
C1702 C1704 1.391 . S
C1703 C1702 1.386 . S
C1703 C1707 1.393 . S
C1704 H1693 0.950 . S
C1704 C1702 1.391 . S
C1704 C1705 1.400 . S
C1705 C1699 1.491 . S
C1705 C1704 1.400 . S
C1705 C1706 1.398 . S
C1706 H1694 0.950 . S
C1706 C1705 1.398 . S
C1706 C1707 1.391 . S
C1707 H1695 0.950 . S
C1707 C1703 1.393 . S
C1707 C1706 1.391 . S
H1708 C1716 0.950 . S
H1709 C1721 0.950 . S
H1710 C1718 0.936 1_655 S
H1711 C1720 0.950 . S
H1712 C1722 0.950 . S
H1713 C1724 0.950 . S
H1714 C1726 0.950 . S
H1715 C1727 0.950 . S
C1716 H1708 0.950 . S
C1716 C1717 1.386 1_655 S
C1716 C1718 1.391 1_655 S
C1717 C1716 1.386 1_455 S
C1717 C1721 1.393 . S
C1718 H1710 0.936 1_455 S
C1718 C1716 1.391 1_455 S
C1718 C1719 1.417 . S
C1719 C1718 1.417 . S
C1719 C1720 1.398 . S
C1719 C1725 1.491 . S
C1720 H1711 0.950 . S
C1720 C1719 1.398 . S
C1720 C1721 1.391 . S
C1721 H1709 0.950 . S
C1721 C1717 1.393 . S
C1721 C1720 1.391 . S
C1722 H1712 0.950 . S
C1722 C1723 1.386 . S
C1722 C1724 1.391 . S
C1723 C1722 1.386 . S
C1723 C1727 1.393 . S
C1724 H1713 0.950 . S
C1724 C1722 1.391 . S
C1724 C1725 1.400 . S
C1725 C1719 1.491 . S
C1725 C1724 1.400 . S
C1725 C1726 1.398 . S
C1726 H1714 0.950 . S
C1726 C1725 1.398 . S
C1726 C1727 1.391 . S
C1727 H1715 0.950 . S
C1727 C1723 1.393 . S
C1727 C1726 1.391 . S
H1728 C1736 0.950 . S
H1729 C1741 0.950 . S
H1730 C1738 0.950 . S
H1731 C1740 0.950 . S
H1732 C1742 0.950 . S
H1733 C1744 0.950 . S
H1734 C1746 0.950 . S
H1735 C1747 0.950 . S
C1736 H1728 0.950 . S
C1736 C1737 1.386 . S
C1736 C1738 1.391 . S
C1737 C1736 1.386 . S
C1737 C1741 1.393 . S
C1738 H1730 0.950 . S
C1738 C1736 1.391 . S
C1738 C1739 1.400 . S
C1739 C1738 1.400 . S
C1739 C1740 1.398 . S
C1739 C1745 1.491 . S
C1740 H1731 0.950 . S
C1740 C1739 1.398 . S
C1740 C1741 1.391 . S
C1741 H1729 0.950 . S
C1741 C1737 1.393 . S
C1741 C1740 1.391 . S
C1742 H1732 0.950 . S
C1742 C1743 1.386 . S
C1742 C1744 1.391 . S
C1743 C1742 1.386 . S
C1743 C1747 1.393 . S
C1744 H1733 0.950 . S
C1744 C1742 1.391 . S
C1744 C1745 1.400 . S
C1745 C1739 1.491 . S
C1745 C1744 1.400 . S
C1745 C1746 1.398 . S
C1746 H1734 0.950 . S
C1746 C1745 1.398 . S
C1746 C1747 1.391 . S
C1747 H1735 0.950 . S
C1747 C1743 1.393 . S
C1747 C1746 1.391 . S
H1748 C1756 0.950 . S
H1749 C1761 0.950 . S
H1750 C1758 0.950 . S
H1751 C1760 0.950 . S
H1752 C1762 0.950 . S
H1753 C1764 0.950 . S
H1754 C1766 0.950 . S
H1755 C1767 0.950 . S
C1756 H1748 0.950 . S
C1756 C1757 1.386 . S
C1756 C1758 1.391 . S
C1757 C1756 1.386 . S
C1757 C1761 1.393 . S
C1758 H1750 0.950 . S
C1758 C1756 1.391 . S
C1758 C1759 1.400 . S
C1759 C1758 1.400 . S
C1759 C1760 1.398 . S
C1759 C1765 1.491 . S
C1760 H1751 0.950 . S
C1760 C1759 1.398 . S
C1760 C1761 1.391 . S
C1761 H1749 0.950 . S
C1761 C1757 1.393 . S
C1761 C1760 1.391 . S
C1762 H1752 0.950 . S
C1762 C1763 1.386 . S
C1762 C1764 1.391 . S
C1763 C1762 1.386 . S
C1763 C1767 1.393 . S
C1764 H1753 0.950 . S
C1764 C1762 1.391 . S
C1764 C1765 1.400 . S
C1765 C1759 1.491 . S
C1765 C1764 1.400 . S
C1765 C1766 1.398 . S
C1766 H1754 0.950 . S
C1766 C1765 1.398 . S
C1766 C1767 1.391 . S
C1767 H1755 0.950 . S
C1767 C1763 1.393 . S
C1767 C1766 1.391 . S
H1768 C1776 0.950 . S
H1769 C1781 0.950 . S
H1770 C1778 0.950 . S
H1771 C1780 0.950 . S
H1772 C1782 0.950 . S
H1773 C1784 0.950 . S
H1774 C1786 0.950 . S
H1775 C1787 0.950 . S
C1776 H1768 0.950 . S
C1776 C1777 1.386 . S
C1776 C1778 1.391 . S
C1777 C1776 1.386 . S
C1777 C1781 1.393 1_565 S
C1778 H1770 0.950 . S
C1778 C1776 1.391 . S
C1778 C1779 1.400 . S
C1779 C1778 1.400 . S
C1779 C1780 1.398 1_565 S
C1779 C1785 1.491 . S
C1780 H1771 0.950 . S
C1780 C1779 1.398 1_545 S
C1780 C1781 1.391 . S
C1781 H1769 0.950 . S
C1781 C1777 1.393 1_545 S
C1781 C1780 1.391 . S
C1782 H1772 0.950 . S
C1782 C1783 1.386 1_545 S
C1782 C1784 1.391 . S
C1783 C1782 1.386 1_565 S
C1783 C1787 1.393 . S
C1784 H1773 0.950 . S
C1784 C1782 1.391 . S
C1784 C1785 1.400 1_545 S
C1785 C1779 1.491 . S
C1785 C1784 1.400 1_565 S
C1785 C1786 1.398 . S
C1786 H1774 0.950 . S
C1786 C1785 1.398 . S
C1786 C1787 1.391 . S
C1787 H1775 0.950 . S
C1787 C1783 1.393 . S
C1787 C1786 1.391 . S
H1788 C1796 0.950 . S
H1789 C1801 0.950 . S
H1790 C1798 0.950 . S
H1791 C1800 0.932 1_565 S
H1792 C1802 0.950 . S
H1793 C1804 0.950 . S
H1794 C1806 0.950 . S
H1795 C1807 0.950 . S
C1796 H1788 0.950 . S
C1796 C1797 1.386 . S
C1796 C1798 1.391 . S
C1797 C1796 1.386 . S
C1797 C1801 1.393 1_545 S
C1798 H1790 0.950 . S
C1798 C1796 1.391 . S
C1798 C1799 1.400 . S
C1799 C1798 1.400 . S
C1799 C1800 1.423 . S
C1799 C1805 1.491 . S
C1800 H1791 0.932 1_545 S
C1800 C1799 1.423 . S
C1800 C1801 1.385 1_545 S
C1801 H1789 0.950 . S
C1801 C1797 1.393 1_565 S
C1801 C1800 1.385 1_565 S
C1802 H1792 0.950 . S
C1802 C1803 1.386 . S
C1802 C1804 1.391 . S
C1803 C1802 1.386 . S
C1803 C1807 1.393 . S
C1804 H1793 0.950 . S
C1804 C1802 1.391 . S
C1804 C1805 1.400 . S
C1805 C1799 1.491 . S
C1805 C1804 1.400 . S
C1805 C1806 1.398 . S
C1806 H1794 0.950 . S
C1806 C1805 1.398 . S
C1806 C1807 1.391 . S
C1807 H1795 0.950 . S
C1807 C1803 1.393 . S
C1807 C1806 1.391 . S
H1808 C1816 0.950 . S
H1809 C1821 0.950 . S
H1810 C1818 0.950 . S
H1811 C1820 0.950 . S
H1812 C1822 0.950 . S
H1813 C1824 0.950 . S
H1814 C1826 0.950 . S
H1815 C1827 0.950 . S
C1816 H1808 0.950 . S
C1816 C1817 1.386 . S
C1816 C1818 1.391 . S
C1817 C1816 1.386 . S
C1817 C1821 1.393 . S
C1818 H1810 0.950 . S
C1818 C1816 1.391 . S
C1818 C1819 1.400 . S
C1819 C1818 1.400 . S
C1819 C1820 1.398 . S
C1819 C1825 1.491 . S
C1820 H1811 0.950 . S
C1820 C1819 1.398 . S
C1820 C1821 1.391 . S
C1821 H1809 0.950 . S
C1821 C1817 1.393 . S
C1821 C1820 1.391 . S
C1822 H1812 0.950 . S
C1822 C1823 1.386 . S
C1822 C1824 1.391 . S
C1823 C1822 1.386 . S
C1823 C1827 1.393 . S
C1824 H1813 0.950 . S
C1824 C1822 1.391 . S
C1824 C1825 1.400 . S
C1825 C1819 1.491 . S
C1825 C1824 1.400 . S
C1825 C1826 1.398 . S
C1826 H1814 0.950 . S
C1826 C1825 1.398 . S
C1826 C1827 1.391 . S
C1827 H1815 0.950 . S
C1827 C1823 1.393 . S
C1827 C1826 1.391 . S
H1828 C1836 0.950 . S
H1829 C1841 0.958 . S
H1830 C1838 0.950 . S
H1831 C1840 0.957 . S
H1832 C1842 0.950 . S
H1833 C1844 0.950 . S
H1834 C1846 0.950 . S
H1835 C1847 0.950 . S
C1836 H1828 0.950 . S
C1836 C1837 1.386 . S
C1836 C1838 1.391 . S
C1837 C1836 1.386 . S
C1837 C1841 1.388 1_554 S
C1838 H1830 0.950 . S
C1838 C1836 1.391 . S
C1838 C1839 1.400 . S
C1839 C1838 1.400 . S
C1839 C1840 1.398 . S
C1839 C1845 1.491 . S
C1840 H1831 0.957 . S
C1840 C1839 1.398 . S
C1840 C1841 1.388 1_554 S
C1841 H1829 0.958 . S
C1841 C1837 1.388 1_556 S
C1841 C1840 1.388 1_556 S
C1842 H1832 0.950 . S
C1842 C1843 1.386 . S
C1842 C1844 1.391 . S
C1843 C1842 1.386 . S
C1843 C1847 1.393 . S
C1844 H1833 0.950 . S
C1844 C1842 1.391 . S
C1844 C1845 1.400 . S
C1845 C1839 1.491 . S
C1845 C1844 1.400 . S
C1845 C1846 1.398 . S
C1846 H1834 0.950 . S
C1846 C1845 1.398 . S
C1846 C1847 1.391 . S
C1847 H1835 0.950 . S
C1847 C1843 1.393 . S
C1847 C1846 1.391 . S
H1848 C1856 0.950 . S
H1849 C1861 0.950 . S
H1850 C1858 0.950 . S
H1851 C1860 0.950 . S
H1852 C1862 0.950 . S
H1853 C1864 0.950 . S
H1854 C1866 0.950 . S
H1855 C1867 0.950 . S
C1856 H1848 0.950 . S
C1856 C1857 1.386 . S
C1856 C1858 1.391 . S
C1857 C1856 1.386 . S
C1857 C1861 1.393 . S
C1858 H1850 0.950 . S
C1858 C1856 1.391 . S
C1858 C1859 1.400 . S
C1859 C1858 1.400 . S
C1859 C1860 1.398 . S
C1859 C1865 1.491 . S
C1860 H1851 0.950 . S
C1860 C1859 1.398 . S
C1860 C1861 1.391 . S
C1861 H1849 0.950 . S
C1861 C1857 1.393 . S
C1861 C1860 1.391 . S
C1862 H1852 0.950 . S
C1862 C1863 1.386 . S
C1862 C1864 1.391 . S
C1863 C1862 1.386 . S
C1863 C1867 1.393 . S
C1864 H1853 0.950 . S
C1864 C1862 1.391 . S
C1864 C1865 1.400 . S
C1865 C1859 1.491 . S
C1865 C1864 1.400 . S
C1865 C1866 1.398 . S
C1866 H1854 0.950 . S
C1866 C1865 1.398 . S
C1866 C1867 1.391 . S
C1867 H1855 0.950 . S
C1867 C1863 1.393 . S
C1867 C1866 1.391 . S
H1868 C1876 0.950 . S
H1869 C1881 0.950 . S
H1870 C1878 0.950 . S
H1871 C1880 0.950 . S
H1872 C1882 0.950 . S
H1873 C1884 0.950 . S
H1874 C1886 0.950 . S
H1875 C1887 0.950 . S
C1876 H1868 0.950 . S
C1876 C1877 1.386 1_554 S
C1876 C1878 1.391 . S
C1877 C1876 1.386 1_556 S
C1877 C1881 1.393 . S
C1878 H1870 0.950 . S
C1878 C1876 1.391 . S
C1878 C1879 1.400 1_554 S
C1879 C1878 1.400 1_556 S
C1879 C1880 1.398 . S
C1879 C1885 1.491 . S
C1880 H1871 0.950 . S
C1880 C1879 1.398 . S
C1880 C1881 1.391 . S
C1881 H1869 0.950 . S
C1881 C1877 1.393 . S
C1881 C1880 1.391 . S
C1882 H1872 0.950 . S
C1882 C1883 1.386 . S
C1882 C1884 1.391 . S
C1883 C1882 1.386 . S
C1883 C1887 1.393 1_556 S
C1884 H1873 0.950 . S
C1884 C1882 1.391 . S
C1884 C1885 1.400 . S
C1885 C1879 1.491 . S
C1885 C1884 1.400 . S
C1885 C1886 1.398 1_556 S
C1886 H1874 0.950 . S
C1886 C1885 1.398 1_554 S
C1886 C1887 1.391 . S
C1887 H1875 0.950 . S
C1887 C1883 1.393 1_554 S
C1887 C1886 1.391 . S
H1888 C1896 0.950 . S
H1889 C1901 0.950 . S
H1890 C1898 0.950 . S
H1891 C1900 0.950 . S
H1892 C1902 0.950 . S
H1893 C1904 0.950 . S
H1894 C1906 0.950 . S
H1895 C1907 0.950 . S
C1896 H1888 0.950 . S
C1896 C1897 1.386 . S
C1896 C1898 1.391 . S
C1897 C1896 1.386 . S
C1897 C1901 1.393 . S
C1898 H1890 0.950 . S
C1898 C1896 1.391 . S
C1898 C1899 1.400 . S
C1899 C1898 1.400 . S
C1899 C1900 1.398 . S
C1899 C1905 1.491 . S
C1900 H1891 0.950 . S
C1900 C1899 1.398 . S
C1900 C1901 1.391 . S
C1901 H1889 0.950 . S
C1901 C1897 1.393 . S
C1901 C1900 1.391 . S
C1902 H1892 0.950 . S
C1902 C1903 1.386 . S
C1902 C1904 1.391 . S
C1903 C1902 1.386 . S
C1903 C1907 1.393 . S
C1904 H1893 0.950 . S
C1904 C1902 1.391 . S
C1904 C1905 1.400 . S
C1905 C1899 1.491 . S
C1905 C1904 1.400 . S
C1905 C1906 1.398 . S
C1906 H1894 0.950 . S
C1906 C1905 1.398 . S
C1906 C1907 1.391 . S
C1907 H1895 0.950 . S
C1907 C1903 1.393 . S
C1907 C1906 1.391 . S
H1908 C1916 0.950 . S
H1909 C1921 0.950 . S
H1910 C1918 0.950 . S
H1911 C1920 0.950 . S
H1912 C1922 0.948 1_655 S
H1913 C1924 0.950 1_655 S
H1914 C1926 0.950 . S
H1915 C1927 0.950 . S
C1916 H1908 0.950 . S
C1916 C1917 1.386 . S
C1916 C1918 1.391 . S
C1917 C1916 1.386 . S
C1917 C1921 1.393 1_455 S
C1918 H1910 0.950 . S
C1918 C1916 1.391 . S
C1918 C1919 1.400 . S
C1919 C1918 1.400 . S
C1919 C1920 1.398 1_455 S
C1919 C1925 1.491 . S
C1920 H1911 0.950 . S
C1920 C1919 1.398 1_655 S
C1920 C1921 1.391 . S
C1921 H1909 0.950 . S
C1921 C1917 1.393 1_655 S
C1921 C1920 1.391 . S
C1922 H1912 0.948 1_455 S
C1922 C1923 1.386 . S
C1922 C1924 1.391 . S
C1923 C1922 1.386 . S
C1923 C1927 1.393 . S
C1924 H1913 0.950 1_455 S
C1924 C1922 1.391 . S
C1924 C1925 1.400 . S
C1925 C1919 1.491 . S
C1925 C1924 1.400 . S
C1925 C1926 1.398 . S
C1926 H1914 0.950 . S
C1926 C1925 1.398 . S
C1926 C1927 1.391 . S
C1927 H1915 0.950 . S
C1927 C1923 1.393 . S
C1927 C1926 1.391 . S
H1928 C1936 0.950 . S
H1929 C1941 0.950 . S
H1930 C1938 0.950 . S
H1931 C1940 0.950 . S
H1932 C1942 0.950 . S
H1933 C1944 0.950 . S
H1934 C1946 0.950 . S
H1935 C1947 0.950 . S
C1936 H1928 0.950 . S
C1936 C1937 1.386 . S
C1936 C1938 1.391 . S
C1937 C1936 1.386 . S
C1937 C1941 1.393 . S
C1938 H1930 0.950 . S
C1938 C1936 1.391 . S
C1938 C1939 1.400 . S
C1939 C1938 1.400 . S
C1939 C1940 1.398 . S
C1939 C1945 1.491 . S
C1940 H1931 0.950 . S
C1940 C1939 1.398 . S
C1940 C1941 1.391 . S
C1941 H1929 0.950 . S
C1941 C1937 1.393 . S
C1941 C1940 1.391 . S
C1942 H1932 0.950 . S
C1942 C1943 1.386 . S
C1942 C1944 1.391 . S
C1943 C1942 1.386 . S
C1943 C1947 1.393 . S
C1944 H1933 0.950 . S
C1944 C1942 1.391 . S
C1944 C1945 1.400 . S
C1945 C1939 1.491 . S
C1945 C1944 1.400 . S
C1945 C1946 1.398 . S
C1946 H1934 0.950 . S
C1946 C1945 1.398 . S
C1946 C1947 1.391 . S
C1947 H1935 0.950 . S
C1947 C1943 1.393 . S
C1947 C1946 1.391 . S
H1948 C1956 0.950 . S
H1949 C1961 0.950 . S
H1950 C1958 0.950 . S
H1951 C1960 0.950 . S
H1952 C1962 0.950 . S
H1953 C1964 0.950 . S
H1954 C1966 0.950 . S
H1955 C1967 0.950 . S
C1956 H1948 0.950 . S
C1956 C1957 1.386 1_455 S
C1956 C1958 1.391 . S
C1957 C1956 1.386 1_655 S
C1957 C1961 1.393 . S
C1958 H1950 0.950 . S
C1958 C1956 1.391 . S
C1958 C1959 1.400 1_455 S
C1959 C1958 1.400 1_655 S
C1959 C1960 1.398 . S
C1959 C1965 1.491 . S
C1960 H1951 0.950 . S
C1960 C1959 1.398 . S
C1960 C1961 1.391 . S
C1961 H1949 0.950 . S
C1961 C1957 1.393 . S
C1961 C1960 1.391 . S
C1962 H1952 0.950 . S
C1962 C1963 1.386 . S
C1962 C1964 1.391 . S
C1963 C1962 1.386 . S
C1963 C1967 1.393 1_655 S
C1964 H1953 0.950 . S
C1964 C1962 1.391 . S
C1964 C1965 1.400 . S
C1965 C1959 1.491 . S
C1965 C1964 1.400 . S
C1965 C1966 1.398 1_655 S
C1966 H1954 0.950 . S
C1966 C1965 1.398 1_455 S
C1966 C1967 1.391 . S
C1967 H1955 0.950 . S
C1967 C1963 1.393 1_455 S
C1967 C1966 1.391 . S
C543 C521 1.569 . S
C537 C8 1.593 . S
C563 C488 1.479 . S
C557 C19 1.462 . S
C583 C510 1.238 . S
C577 C30 1.248 . S
C603 C499 1.593 1_655 S
C597 C41 1.569 1_565 S
C623 C422 1.567 . S
C617 C52 1.591 . S
C637 C63 1.583 1_556 S
C643 C433 1.596 1_565 S
C663 C400 1.478 . S
C657 C74 1.456 . S
C677 C85 1.242 . S
C683 C411 1.220 . S
C703 C477 1.577 . S
C697 C96 1.583 . S
C717 C107 1.584 1_655 S
C723 C455 1.587 1_556 S
C737 C118 1.456 . S
C743 C444 1.477 . S
C763 C466 1.235 . S
C757 C129 1.245 . S
C783 C389 1.575 . S
C777 C140 1.567 . S
C797 C151 1.418 . S
C803 C356 1.464 . S
C823 C378 1.235 . S
C817 C162 1.217 . S
C837 C173 1.535 . S
C843 C367 1.594 1_455 S
C863 C290 1.583 . S
C857 C184 1.555 . S
C883 C301 1.584 1_545 S
C877 C195 1.550 . S
C897 C206 1.413 . S
C903 C268 1.466 . S
C917 C217 1.235 . S
C923 C279 1.229 . S
C937 C228 1.555 . S
C943 C345 1.579 . S
C957 C239 1.540 . S
C963 C323 1.583 1_554 S
C983 C312 1.475 . S
C977 C250 1.410 . S
C997 C261 1.236 . S
C1003 C334 1.212 . S
C1023 C269 1.419 . S
C1017 C7 1.434 . S
C1043 C280 1.346 . S
C1037 C18 1.406 . S
C1057 C29 1.292 . S
C1063 C291 1.296 . S
C1077 C40 1.154 . S
C1083 C302 1.161 . S
C1103 C313 1.410 . S
C1097 C51 1.441 . S
C1117 C62 1.160 . S
C1123 C324 1.152 . S
C1143 C335 1.352 . S
C1137 C73 1.399 . S
C1163 C346 1.297 . S
C1157 C84 1.289 . S
C1183 C357 1.430 . S
C1177 C95 1.433 . S
C1197 C106 1.149 . S
C1203 C368 1.159 . S
C1217 C117 1.412 . S
C1223 C379 1.372 . S
C1237 C128 1.284 . S
C1243 C390 1.306 . S
C1257 C139 1.378 . S
C1263 C401 1.424 . S
C1277 C150 1.276 . S
C1283 C412 1.354 . S
C1297 C161 1.269 . S
C1303 C423 1.301 . S
C1317 C172 1.128 1_565 S
C1323 C434 1.159 . S
C1337 C183 1.369 . S
C1343 C445 1.411 . S
C1363 C456 1.158 . S
C1357 C194 1.129 1_556 S
C1383 C467 1.369 . S
C1377 C205 1.318 . S
C1403 C478 1.302 . S
C1397 C216 1.245 . S
C1423 C489 1.429 . S
C1417 C227 1.392 . S
C1437 C238 1.112 1_655 S
C1443 C500 1.156 . S
C1457 C249 1.317 . S
C1463 C511 1.364 . S
C1477 C260 1.256 . S
C1483 C522 1.305 . S
C1497 C5 1.350 . S
C1503 C362 1.511 . S
C1523 C395 1.544 . S
C1517 C16 1.419 . S
C1537 C27 1.224 1_545 S
C1543 C373 1.367 . S
C1563 C384 1.599 . S
C1557 C38 1.412 1_565 S
C1577 C49 1.364 . S
C1583 C274 1.520 . S
C1597 C60 1.419 1_556 S
C1603 C285 1.601 . S
C1617 C71 1.415 . S
C1623 C296 1.542 . S
C1637 C82 1.244 1_554 S
C1643 C307 1.375 . S
C1663 C318 1.518 . S
C1657 C93 1.358 . S
C1683 C340 1.590 . S
C1677 C104 1.379 1_655 S
C1697 C115 1.416 . S
C1703 C351 1.534 . S
C1717 C126 1.224 1_455 S
C1723 C329 1.366 . S
C1743 C494 1.514 . S
C1737 C137 1.239 . S
C1763 C527 1.537 . S
C1757 C148 1.228 . S
C1777 C159 1.167 . S
C1783 C505 1.377 . S
C1803 C516 1.597 . S
C1797 C170 1.249 . S
C1817 C181 1.224 . S
C1823 C406 1.523 . S
C1837 C192 1.252 . S
C1843 C417 1.596 . S
C1857 C203 1.186 . S
C1863 C428 1.554 . S
C1883 C439 1.392 . S
C1877 C214 1.182 . S
C1903 C450 1.507 . S
C1897 C225 1.276 . S
C1923 C472 1.600 . S
C1917 C236 1.218 . S
C1937 C247 1.243 . S
C1943 C483 1.535 . S
C1963 C461 1.391 . S
C1957 C258 1.185 . S
