# Generated by pormake.
# Topology wji, (4)-cn, num edge types: 1
# Building blocks:
#     Node 0, Type 0, BuildingBlock: QUQFOY_clean_sbu_1, # of connection points: 4
#     Node 1, Type 0, BuildingBlock: QUQFOY_clean_sbu_1, # of connection points: 4
#     Node 2, Type 0, BuildingBlock: QUQFOY_clean_sbu_1, # of connection points: 4
#     Node 3, Type 0, BuildingBlock: QUQFOY_clean_sbu_1, # of connection points: 4
#     Node 4, Type 0, BuildingBlock: QUQFOY_clean_sbu_1, # of connection points: 4
#     Node 5, Type 0, BuildingBlock: QUQFOY_clean_sbu_1, # of connection points: 4
#     Node 6, Type 0, BuildingBlock: QUQFOY_clean_sbu_1, # of connection points: 4
#     Node 7, Type 0, BuildingBlock: QUQFOY_clean_sbu_1, # of connection points: 4
#     Node 8, Type 0, BuildingBlock: QUQFOY_clean_sbu_1, # of connection points: 4
#     Node 9, Type 0, BuildingBlock: QUQFOY_clean_sbu_1, # of connection points: 4
#     Node 10, Type 0, BuildingBlock: QUQFOY_clean_sbu_1, # of connection points: 4
#     Node 11, Type 0, BuildingBlock: QUQFOY_clean_sbu_1, # of connection points: 4
#     Edge 12, Type (0, 0), BuildingBlock: XUDNAN_clean_linker_2, # of connection points: 2
#     Edge 13, Type (0, 0), BuildingBlock: XUDNAN_clean_linker_2, # of connection points: 2
#     Edge 14, Type (0, 0), BuildingBlock: XUDNAN_clean_linker_2, # of connection points: 2
#     Edge 15, Type (0, 0), BuildingBlock: XUDNAN_clean_linker_2, # of connection points: 2
#     Edge 16, Type (0, 0), BuildingBlock: XUDNAN_clean_linker_2, # of connection points: 2
#     Edge 17, Type (0, 0), BuildingBlock: XUDNAN_clean_linker_2, # of connection points: 2
#     Edge 18, Type (0, 0), BuildingBlock: XUDNAN_clean_linker_2, # of connection points: 2
#     Edge 19, Type (0, 0), BuildingBlock: XUDNAN_clean_linker_2, # of connection points: 2
#     Edge 20, Type (0, 0), BuildingBlock: XUDNAN_clean_linker_2, # of connection points: 2
#     Edge 21, Type (0, 0), BuildingBlock: XUDNAN_clean_linker_2, # of connection points: 2
#     Edge 22, Type (0, 0), BuildingBlock: XUDNAN_clean_linker_2, # of connection points: 2
#     Edge 23, Type (0, 0), BuildingBlock: XUDNAN_clean_linker_2, # of connection points: 2
#     Edge 24, Type (0, 0), BuildingBlock: XUDNAN_clean_linker_2, # of connection points: 2
#     Edge 25, Type (0, 0), BuildingBlock: XUDNAN_clean_linker_2, # of connection points: 2
#     Edge 26, Type (0, 0), BuildingBlock: XUDNAN_clean_linker_2, # of connection points: 2
#     Edge 27, Type (0, 0), BuildingBlock: XUDNAN_clean_linker_2, # of connection points: 2
#     Edge 28, Type (0, 0), BuildingBlock: XUDNAN_clean_linker_2, # of connection points: 2
#     Edge 29, Type (0, 0), BuildingBlock: XUDNAN_clean_linker_2, # of connection points: 2
#     Edge 30, Type (0, 0), BuildingBlock: XUDNAN_clean_linker_2, # of connection points: 2
#     Edge 31, Type (0, 0), BuildingBlock: XUDNAN_clean_linker_2, # of connection points: 2
#     Edge 32, Type (0, 0), BuildingBlock: XUDNAN_clean_linker_2, # of connection points: 2
#     Edge 33, Type (0, 0), BuildingBlock: XUDNAN_clean_linker_2, # of connection points: 2
#     Edge 34, Type (0, 0), BuildingBlock: XUDNAN_clean_linker_2, # of connection points: 2
#     Edge 35, Type (0, 0), BuildingBlock: XUDNAN_clean_linker_2, # of connection points: 2
# Relax obj value: 0.272
# Max RMSD: 0.193
# Mean RMSD: 0.193
data_MOF--net-wji--node1-QUQFOY_clean_sbu_1--edge1-XUDNAN_clean_linker_2
_symmetry_space_group_name_H-M    P1
_symmetry_Int_Tables_number       1
_symmetry_cell_setting            triclinic
loop_
_symmetry_equiv_pos_as_xyz
'x, y, z'
_cell_length_a     62.692227
_cell_length_b     62.698824
_cell_length_c     21.674801
_cell_angle_alpha  90.027408
_cell_angle_beta   89.958123
_cell_angle_gamma 120.02244
loop_
_atom_site_label
_atom_site_type_symbol
_atom_site_fract_x
_atom_site_fract_y
_atom_site_fract_z
_atom_type_partial_charge
O0 O 0.38136 0.30696 0.47814 0.0
Cd1 Cd 0.39421 0.29452 0.40853 0.0
Cd2 Cd 0.43038 0.34546 0.40673 0.0
O3 O 0.4127 0.34474 0.48742 0.0
O4 O 0.37313 0.25828 0.42066 0.0
O5 O 0.41334 0.27768 0.43462 0.0
C6 C 0.39232 0.25763 0.43902 0.0
C7 C 0.47242 0.37597 0.40489 0.0
C8 C 0.39188 0.32757 0.50554 0.0
C9 C 0.39312 0.32342 0.30064 0.0
O10 O 0.41054 0.34203 0.32756 0.0
O11 O 0.38516 0.3018 0.32207 0.0
O12 O 0.45512 0.38128 0.4035 0.0
O13 O 0.46603 0.35296 0.40638 0.0
O14 O 0.07187 0.38911 0.64713 0.0
Cd15 Cd 0.09677 0.39358 0.57992 0.0
Cd16 Cd 0.09303 0.43448 0.54664 0.0
O17 O 0.0739 0.42459 0.62823 0.0
O18 O 0.11706 0.37991 0.61367 0.0
O19 O 0.13189 0.41966 0.59514 0.0
C20 C 0.13512 0.40233 0.61744 0.0
C21 C 0.10773 0.47673 0.52883 0.0
C22 C 0.06588 0.40513 0.6602 0.0
C23 C 0.07196 0.38936 0.46064 0.0
O24 O 0.07563 0.41074 0.4737 0.0
O25 O 0.08085 0.3792 0.49485 0.0
O26 O 0.08491 0.46032 0.52391 0.0
O27 O 0.12301 0.46918 0.54082 0.0
O28 O 0.70936 0.0756 0.8029 0.0
Cd29 Cd 0.71344 0.09911 0.73304 0.0
Cd30 Cd 0.66824 0.09169 0.77154 0.0
O31 O 0.68138 0.08188 0.84731 0.0
O32 O 0.7482 0.1267 0.73385 0.0
O33 O 0.71628 0.1306 0.76264 0.0
C34 C 0.73992 0.13987 0.75905 0.0
C35 C 0.63593 0.09904 0.79795 0.0
C36 C 0.69584 0.07318 0.84889 0.0
C37 C 0.6732 0.06849 0.65001 0.0
O38 O 0.66043 0.07024 0.69327 0.0
O39 O 0.69663 0.08125 0.65155 0.0
O40 O 0.6341 0.07784 0.80387 0.0
O41 O 0.65629 0.1167 0.7763 0.0
O42 O 0.61951 0.69844 0.97996 0.0
Cd43 Cd 0.60539 0.70959 0.91064 0.0
Cd44 Cd 0.57093 0.6602 0.90786 0.0
O45 O 0.58824 0.66064 0.98897 0.0
O46 O 0.61862 0.74512 0.92977 0.0
O47 O 0.57887 0.71735 0.9336 0.0
C48 C 0.59645 0.7396 0.94421 0.0
C49 C 0.52893 0.62977 0.90456 0.0
C50 C 0.60902 0.67782 0.00732 0.0
C51 C 0.60839 0.68274 0.80228 0.0
O52 O 0.59108 0.66397 0.82897 0.0
O53 O 0.61596 0.70425 0.824 0.0
O54 O 0.54622 0.62444 0.90343 0.0
O55 O 0.53533 0.65277 0.90677 0.0
O56 O 0.93277 0.62649 0.1491 0.0
Cd57 Cd 0.90754 0.61309 0.07954 0.0
Cd58 Cd 0.92022 0.57607 0.08179 0.0
O59 O 0.9372 0.5941 0.16204 0.0
O60 O 0.89286 0.63465 0.08924 0.0
O61 O 0.87163 0.59463 0.10626 0.0
C62 C 0.87299 0.61586 0.10924 0.0
C63 C 0.9058 0.53346 0.08595 0.0
C64 C 0.94184 0.61543 0.17841 0.0
C65 C 0.93736 0.61211 0.97339 0.0
O66 O 0.93788 0.59462 0.00187 0.0
O67 O 0.92402 0.62072 0.99318 0.0
O68 O 0.92886 0.54956 0.08451 0.0
O69 O 0.89038 0.54137 0.08307 0.0
O70 O 0.32106 0.9247 0.32742 0.0
Cd71 Cd 0.30739 0.90127 0.25398 0.0
Cd72 Cd 0.3577 0.91762 0.24352 0.0
O73 O 0.35933 0.93206 0.33 0.0
O74 O 0.27212 0.8797 0.27734 0.0
O75 O 0.29839 0.86601 0.26917 0.0
C76 C 0.27681 0.86205 0.28505 0.0
C77 C 0.38819 0.90785 0.21785 0.0
C78 C 0.34203 0.93448 0.35314 0.0
C79 C 0.33161 0.93402 0.14916 0.0
O80 O 0.35075 0.93526 0.17276 0.0
O81 O 0.3104 0.91912 0.171 0.0
O82 O 0.39306 0.93019 0.22433 0.0
O83 O 0.36593 0.89045 0.22795 0.0
O84 O 0.69594 0.62426 0.34459 0.0
Cd85 Cd 0.70939 0.61228 0.41368 0.0
Cd86 Cd 0.65856 0.5752 0.41634 0.0
O87 O 0.65863 0.59217 0.33503 0.0
O88 O 0.74531 0.63461 0.39955 0.0
O89 O 0.72747 0.59443 0.38663 0.0
C90 C 0.74682 0.61593 0.38074 0.0
C91 C 0.62843 0.53305 0.41954 0.0
C92 C 0.6754 0.61321 0.317 0.0
C93 C 0.68049 0.61305 0.5217 0.0
O94 O 0.66201 0.59543 0.49489 0.0
O95 O 0.70216 0.62125 0.50031 0.0
O96 O 0.62285 0.55016 0.42059 0.0
O97 O 0.6515 0.53971 0.41779 0.0
O98 O 0.08308 0.69984 0.51659 0.0
Cd99 Cd 0.10868 0.70859 0.58436 0.0
Cd100 Cd 0.09398 0.66028 0.58215 0.0
O101 O 0.07664 0.66227 0.5036 0.0
O102 O 0.13381 0.74365 0.56849 0.0
O103 O 0.14127 0.7128 0.55777 0.0
C104 C 0.14845 0.73593 0.55055 0.0
C105 C 0.10702 0.63114 0.57428 0.0
C106 C 0.07284 0.67957 0.48769 0.0
C107 C 0.07936 0.68029 0.69249 0.0
O108 O 0.07754 0.66174 0.66374 0.0
O109 O 0.09343 0.70199 0.67201 0.0
O110 O 0.08415 0.62486 0.57776 0.0
O111 O 0.12305 0.65431 0.57749 0.0
O112 O 0.39304 0.07521 0.6877 0.0
Cd113 Cd 0.40156 0.10187 0.75271 0.0
Cd114 Cd 0.4399 0.08775 0.76799 0.0
O115 O 0.42494 0.0693 0.68656 0.0
O116 O 0.3776 0.11247 0.72805 0.0
O117 O 0.41769 0.13745 0.72256 0.0
C118 C 0.39576 0.13335 0.71101 0.0
C119 C 0.48005 0.0957 0.79033 0.0
C120 C 0.40424 0.06485 0.66523 0.0
C121 C 0.3986 0.07455 0.86624 0.0
O122 O 0.41678 0.0736 0.84329 0.0
O123 O 0.39037 0.0872 0.8403 0.0
O124 O 0.46132 0.07387 0.79054 0.0
O125 O 0.4765 0.1136 0.7756 0.0
O126 O 0.30445 0.38102 0.8432 0.0
Cd127 Cd 0.29393 0.3957 0.9127 0.0
Cd128 Cd 0.34289 0.43051 0.91322 0.0
O129 O 0.34179 0.41289 0.83205 0.0
O130 O 0.25843 0.38375 0.89598 0.0
O131 O 0.28753 0.42298 0.88904 0.0
C132 C 0.26482 0.40605 0.88043 0.0
C133 C 0.37298 0.47265 0.91461 0.0
C134 C 0.32482 0.39182 0.81466 0.0
C135 C 0.32174 0.39369 0.02006 0.0
O136 O 0.34025 0.4109 0.9923 0.0
O137 O 0.30005 0.38592 -0.00058 0.0
O138 O 0.3786 0.45556 0.91491 0.0
O139 O 0.34989 0.46597 0.91434 0.0
O140 O 0.9304 0.31987 0.98856 0.0
Cd141 Cd 0.90588 0.29951 0.05642 0.0
Cd142 Cd 0.91101 0.34541 0.08999 0.0
O143 O 0.92898 0.35371 0.00675 0.0
O144 O 0.88652 0.26544 0.02243 0.0
O145 O 0.87035 0.28912 0.04161 0.0
C146 C 0.8679 0.2689 0.01897 0.0
C147 C 0.89828 0.37438 0.1107 0.0
C148 C 0.93649 0.34184 0.97471 0.0
C149 C 0.93182 0.32043 0.17438 0.0
O150 O 0.92863 0.33844 0.16125 0.0
O151 O 0.92224 0.30115 0.14085 0.0
O152 O 0.9209 0.37988 0.11304 0.0
O153 O 0.88213 0.35175 0.09934 0.0
O154 O 0.63827 0.93399 0.19134 0.0
Cd155 Cd 0.61743 0.90741 0.25421 0.0
Cd156 Cd 0.58085 0.91784 0.229 0.0
O157 O 0.60664 0.93779 0.16222 0.0
O158 O 0.62414 0.87975 0.24365 0.0
O159 O 0.58867 0.87737 0.21833 0.0
C160 C 0.6027 0.86768 0.21778 0.0
C161 C 0.54045 0.90714 0.20095 0.0
C162 C 0.62906 0.9435 0.15654 0.0
C163 C 0.60572 0.93136 0.35562 0.0
O164 O 0.59029 0.93122 0.31736 0.0
O165 O 0.61836 0.9212 0.34215 0.0
O166 O 0.55754 0.92959 0.20791 0.0
O167 O 0.54588 0.89011 0.21032 0.0
H168 H 0.36455 0.40858 0.08413 0.0
H169 H 0.2899 0.34736 0.065 0.0
H170 H 0.30059 0.32173 0.13038 0.0
H171 H 0.39476 0.37433 0.07483 0.0
H172 H 0.41797 0.39215 0.13149 0.0
H173 H 0.40412 0.40628 0.087 0.0
H174 H 0.39088 0.41917 0.18713 0.0
H175 H 0.40529 0.40567 0.23193 0.0
H176 H 0.37334 0.39618 0.24456 0.0
H177 H 0.32082 0.30178 0.19147 0.0
H178 H 0.3467 0.29138 0.25667 0.0
H179 H 0.4078 0.36601 0.23548 0.0
C180 C 0.35025 0.38994 0.09467 0.0
C181 C 0.32633 0.38004 0.06943 0.0
C182 C 0.30826 0.35549 0.08426 0.0
C183 C 0.31425 0.3407 0.12084 0.0
C184 C 0.33832 0.35077 0.14269 0.0
C185 C 0.35587 0.37501 0.13121 0.0
C186 C 0.38041 0.38151 0.1599 0.0
C187 C 0.40049 0.38901 0.11033 0.0
C188 C 0.38791 0.40182 0.2088 0.0
C189 C 0.37404 0.35709 0.18905 0.0
C190 C 0.34977 0.33948 0.17818 0.0
C191 C 0.33981 0.3155 0.20053 0.0
C192 C 0.35476 0.30968 0.23701 0.0
C193 C 0.37934 0.32783 0.25124 0.0
C194 C 0.38914 0.35164 0.22542 0.0
H195 H 0.04483 0.40389 0.39263 0.0
H196 H 0.05629 0.34181 0.42067 0.0
H197 H 0.02071 0.31634 0.35245 0.0
H198 H 0.98032 0.37011 0.40034 0.0
H199 H 0.97572 0.38818 0.34284 0.0
H200 H 1.00334 0.40196 0.38874 0.0
H201 H 0.03022 0.41459 0.28983 0.0
H202 H 1.00269 0.40136 0.2436 0.0
H203 H 0.02497 0.39152 0.23282 0.0
H204 H 0.98203 0.29732 0.28253 0.0
H205 H 0.9465 0.28782 0.21471 0.0
H206 H 0.96019 0.36228 0.24084 0.0
C207 C 0.04031 0.38509 0.38365 0.0
C208 C 0.05362 0.37498 0.41182 0.0
C209 C 0.04662 0.35012 0.39921 0.0
C210 C 0.0263 0.33545 0.36083 0.0
C211 C 0.01307 0.34587 0.33573 0.0
C212 C 0.02002 0.37022 0.34647 0.0
C213 C 1.00248 0.37704 0.31648 0.0
C214 C 0.98972 0.38477 0.36501 0.0
C215 C 0.01589 0.39732 0.26778 0.0
C216 C 0.98447 0.35274 0.28696 0.0
C217 C 0.99078 0.33491 0.29817 0.0
C218 C 0.97696 0.3112 0.27374 0.0
C219 C 0.95667 0.30589 0.23559 0.0
C220 C 0.95029 0.32417 0.22262 0.0
C221 C 0.96422 0.34769 0.25008 0.0
H222 H 0.65052 0.96054 0.4124 0.0
H223 H 0.5731 0.93876 0.42062 0.0
H224 H 0.5826 0.97205 0.495 0.0
H225 H 0.6647 0.97981 0.57795 0.0
H226 H 0.69468 0.00538 0.55937 0.0
H227 H 0.68145 0.97799 0.51242 0.0
H228 H 0.68715 0.00467 0.41594 0.0
H229 H 0.69976 0.03205 0.46275 0.0
H230 H 0.6734 0.02397 0.4144 0.0
H231 H 0.60033 0.00981 0.55799 0.0
H232 H 0.62472 0.0469 0.62063 0.0
H233 H 0.69138 0.04534 0.57449 0.0
C234 C 0.63551 0.96221 0.43184 0.0
C235 C 0.61099 0.94685 0.41135 0.0
C236 C 0.59193 0.95014 0.43616 0.0
C237 C 0.59718 0.96912 0.47809 0.0
C238 C 0.62161 0.9847 0.49495 0.0
C239 C 0.64047 0.98126 0.47383 0.0
C240 C 0.66521 1.00144 0.4979 0.0
C241 C 0.67722 0.9905 0.53939 0.0
C242 C 0.68239 0.01641 0.44455 0.0
C243 C 0.65725 0.01686 0.53497 0.0
C244 C 0.632 0.0068 0.53213 0.0
C245 C 0.62009 0.0177 0.5613 0.0
C246 C 0.63419 0.0389 0.59652 0.0
C247 C 0.66001 0.0491 0.60273 0.0
C248 C 0.67175 0.03818 0.57026 0.0
H249 H 0.63759 0.59811 0.5856 0.0
H250 H 0.71223 0.65943 0.5668 0.0
H251 H 0.70141 0.68498 0.63224 0.0
H252 H 0.60737 0.63232 0.576 0.0
H253 H 0.58406 0.61443 0.63245 0.0
H254 H 0.59802 0.60037 0.58804 0.0
H255 H 0.61111 0.58743 0.68825 0.0
H256 H 0.59659 0.60086 0.73297 0.0
H257 H 0.62853 0.61038 0.74586 0.0
H258 H 0.68105 0.70481 0.69382 0.0
H259 H 0.65497 0.71502 0.7591 0.0
H260 H 0.59399 0.64043 0.73642 0.0
C261 C 0.65187 0.61675 0.5962 0.0
C262 C 0.67581 0.6267 0.57103 0.0
C263 C 0.69384 0.65125 0.58596 0.0
C264 C 0.68778 0.66601 0.62259 0.0
C265 C 0.66368 0.6559 0.64435 0.0
C266 C 0.64618 0.63165 0.6327 0.0
C267 C 0.62158 0.6251 0.66117 0.0
C268 C 0.60159 0.61762 0.61143 0.0
C269 C 0.61402 0.60475 0.70997 0.0
C270 C 0.62787 0.64948 0.69041 0.0
C271 C 0.65215 0.66713 0.67986 0.0
C272 C 0.66204 0.69107 0.70258 0.0
C273 C 0.64699 0.69678 0.73908 0.0
C274 C 0.62237 0.67858 0.75288 0.0
C275 C 0.61267 0.65484 0.72667 0.0
H276 H 0.05078 0.63749 0.75696 0.0
H277 H 0.06603 0.71278 0.73831 0.0
H278 H 0.02998 0.7029 0.80383 0.0
H279 H 0.98637 0.60842 0.74917 0.0
H280 H 0.9805 0.58523 0.8063 0.0
H281 H 0.00844 0.59841 0.76155 0.0
H282 H 0.03466 0.61144 0.86141 0.0
H283 H 0.00679 0.5977 0.90649 0.0
H284 H 0.02981 0.62952 0.91847 0.0
H285 H 0.98974 0.68357 0.86347 0.0
H286 H 0.95307 0.65853 0.92815 0.0
H287 H 0.96489 0.59624 0.91011 0.0
C288 C 0.04691 0.65209 0.76775 0.0
C289 C 0.06135 0.67596 0.74243 0.0
C290 C 0.05548 0.69444 0.75756 0.0
C291 C 0.03484 0.68892 0.79424 0.0
C292 C 0.0204 0.66493 0.81613 0.0
C293 C 0.02654 0.64698 0.80473 0.0
C294 C 0.00808 0.62266 0.83396 0.0
C295 C 0.99509 0.6025 0.78479 0.0
C296 C 0.02058 0.61488 0.88301 0.0
C297 C 0.99043 0.62964 0.86303 0.0
C298 C 0.99768 0.65401 0.85164 0.0
C299 C 0.98403 0.66452 0.87312 0.0
C300 C 0.96303 0.65003 0.90931 0.0
C301 C 0.95598 0.62535 0.92431 0.0
C302 C 0.96967 0.61499 0.89947 0.0
H303 H 0.41447 0.04978 0.93854 0.0
H304 H 0.35099 0.05849 0.90595 0.0
H305 H 0.32587 0.02263 0.97377 0.0
H306 H 0.38343 0.98593 0.92999 0.0
H307 H 0.40124 0.98184 0.9892 0.0
H308 H 0.41474 0.00977 0.94454 0.0
H309 H 0.42488 0.03592 0.0443 0.0
H310 H 0.41204 0.0081 0.08942 0.0
H311 H 0.40072 0.02925 0.09921 0.0
H312 H 0.30701 0.98283 0.04003 0.0
H313 H 0.29792 0.94678 0.1056 0.0
H314 H 0.37403 0.96458 0.08787 0.0
C315 C 0.39543 0.0446 0.94665 0.0
C316 C 0.38477 0.05709 0.91701 0.0
C317 C 0.3597 0.04946 0.92873 0.0
C318 C 0.34522 0.02893 0.96672 0.0
C319 C 0.35613 0.01632 0.99271 0.0
C320 C 0.38082 0.02421 0.98375 0.0
C321 C 0.38821 0.00724 0.01437 0.0
C322 C 0.39744 0.99551 0.96666 0.0
C323 C 0.4076 0.02094 0.06483 0.0
C324 C 0.36382 0.98833 0.0417 0.0
C325 C 0.34542 0.99371 0.02903 0.0
C326 C 0.32136 0.97858 0.05028 0.0
C327 C 0.31629 0.95798 0.08699 0.0
C328 C 0.3352 0.95272 0.10189 0.0
C329 C 0.35906 0.96793 0.07748 0.0
H330 H 0.57908 0.51559 0.41685 0.0
H331 H 0.63287 0.49132 0.41975 0.0
H332 H 0.5989 0.44782 0.41597 0.0
H333 H 0.53378 0.46778 0.51201 0.0
H334 H 0.50829 0.46576 0.46873 0.0
H335 H 0.53694 0.4945 0.47242 0.0
H336 H 0.5391 0.49611 0.35288 0.0
H337 H 0.51051 0.46733 0.34881 0.0
H338 H 0.53755 0.47056 0.31084 0.0
H339 H 0.5578 0.40644 0.41156 0.0
H340 H 0.51448 0.37211 0.40722 0.0
H341 H 0.48935 0.42524 0.40591 0.0
C342 C 0.58386 0.50121 0.41694 0.0
C343 C 0.60865 0.50686 0.41877 0.0
C344 C 0.61398 0.4874 0.4185 0.0
C345 C 0.59481 0.46267 0.41631 0.0
C346 C 0.5705 0.4578 0.41425 0.0
C347 C 0.56511 0.47665 0.41456 0.0
C348 C 0.53771 0.46696 0.41154 0.0
C349 C 0.52866 0.47417 0.46964 0.0
C350 C 0.53083 0.47576 0.35251 0.0
C351 C 0.52834 0.43962 0.40959 0.0
C352 C 0.54738 0.43452 0.41122 0.0
C353 C 0.54281 0.4103 0.4102 0.0
C354 C 0.51817 0.39093 0.40768 0.0
C355 C 0.49852 0.39596 0.4061 0.0
C356 C 0.50388 0.42068 0.4069 0.0
H357 H 0.07819 0.49566 0.50334 0.0
H358 H 0.15348 0.5174 0.55194 0.0
H359 H 0.16303 0.56076 0.56227 0.0
H360 H 0.09111 0.55163 0.41878 0.0
H361 H 0.06374 0.55057 0.44855 0.0
H362 H 0.06436 0.52242 0.43711 0.0
H363 H 0.05201 0.51069 0.55158 0.0
H364 H 0.05165 0.53888 0.56362 0.0
H365 H 0.07068 0.53168 0.61157 0.0
H366 H 0.16275 0.60167 0.57526 0.0
H367 H 0.15261 0.63494 0.58958 0.0
H368 H 0.07705 0.58416 0.53654 0.0
C369 C 0.09689 0.50954 0.51483 0.0
C370 C 0.11514 0.50316 0.52648 0.0
C371 C 0.13926 0.52192 0.5422 0.0
C372 C 0.14481 0.54657 0.5483 0.0
C373 C 0.12604 0.55203 0.53836 0.0
C374 C 0.1026 0.53393 0.52157 0.0
C375 C 0.08502 0.54375 0.5179 0.0
C376 C 0.07551 0.54199 0.45164 0.0
C377 C 0.0636 0.53046 0.56392 0.0
C378 C 0.102 0.57016 0.53655 0.0
C379 C 0.12569 0.57487 0.54744 0.0
C380 C 0.14427 0.59813 0.56646 0.0
C381 C 0.13836 0.61689 0.57458 0.0
C382 C 0.11402 0.61208 0.56461 0.0
C383 C 0.0958 0.58843 0.54502 0.0
H384 H 0.52556 0.12471 0.73603 0.0
H385 H 0.48839 0.07391 0.88658 0.0
H386 H 0.527 0.07499 0.91426 0.0
H387 H 0.55846 0.0971 0.6874 0.0
H388 H 0.58638 0.12485 0.66646 0.0
H389 H 0.55741 0.12427 0.66518 0.0
H390 H 0.57497 0.16168 0.73927 0.0
H391 H 0.6041 0.16242 0.74065 0.0
H392 H 0.58823 0.16022 0.81182 0.0
H393 H 0.56651 0.07629 0.91713 0.0
H394 H 0.60532 0.07709 0.8938 0.0
H395 H 0.61859 0.12678 0.7408 0.0
C396 C 0.52593 0.11455 0.77602 0.0
C397 C 0.50421 0.0995 0.8099 0.0
C398 C 0.50495 0.08568 0.8605 0.0
C399 C 0.52681 0.08627 0.87674 0.0
C400 C 0.5478 0.1007 0.84166 0.0
C401 C 0.54769 0.11464 0.79234 0.0
C402 C 0.57212 0.12604 0.75802 0.0
C403 C 0.56835 0.11754 0.69027 0.0
C404 C 0.58566 0.15427 0.76274 0.0
C405 C 0.58546 0.11548 0.79431 0.0
C406 C 0.57112 0.10129 0.843 0.0
C407 C 0.57817 0.08775 0.88003 0.0
C408 C 0.60019 0.08825 0.8663 0.0
C409 C 0.61502 0.10223 0.8161 0.0
C410 C 0.60788 0.1165 0.78047 0.0
H411 H 0.51199 0.58054 0.90148 0.0
H412 H 0.48689 0.63364 0.90838 0.0
H413 H 0.44355 0.59929 0.91122 0.0
H414 H 0.46392 0.53634 0.80426 0.0
H415 H 0.46243 0.51038 0.84401 0.0
H416 H 0.49098 0.53925 0.84139 0.0
H417 H 0.49325 0.53968 0.9609 0.0
H418 H 0.46468 0.51086 0.96391 0.0
H419 H 0.46779 0.53719 0.0054 0.0
H420 H 0.40245 0.55788 0.91435 0.0
H421 H 0.3685 0.51435 0.91719 0.0
H422 H 0.4223 0.49014 0.90925 0.0
C423 C 0.49746 0.58509 0.90334 0.0
C424 C 0.50283 0.60979 0.90461 0.0
C425 C 0.48319 0.61482 0.90724 0.0
C426 C 0.45854 0.59543 0.90891 0.0
C427 C 0.45396 0.57122 0.90794 0.0
C428 C 0.473 0.56612 0.90514 0.0
C429 C 0.4636 0.53877 0.90525 0.0
C430 C 0.47065 0.53072 0.84515 0.0
C431 C 0.47288 0.53119 0.96226 0.0
C432 C 0.43623 0.52907 0.90874 0.0
C433 C 0.43084 0.54792 0.91013 0.0
C434 C 0.40654 0.54304 0.91327 0.0
C435 C 0.38739 0.51829 0.91491 0.0
C436 C 0.39272 0.49884 0.91358 0.0
C437 C 0.41751 0.50451 0.91051 0.0
H438 H 0.92946 0.42227 0.1395 0.0
H439 H 0.85337 0.3716 0.09059 0.0
H440 H 0.84556 0.40668 0.08532 0.0
H441 H 0.91879 0.46537 0.23105 0.0
H442 H 0.94666 0.49154 0.20286 0.0
H443 H 0.94483 0.46205 0.2102 0.0
H444 H 0.95681 0.46403 0.09495 0.0
H445 H 0.95839 0.49332 0.087 0.0
H446 H 0.93861 0.46816 0.0369 0.0
H447 H 0.84768 0.44889 0.07746 0.0
H448 H 0.85944 0.49296 0.06838 0.0
H449 H 0.93443 0.51424 0.11898 0.0
C450 C 0.91097 0.41835 0.1289 0.0
C451 C 0.89199 0.39416 0.11573 0.0
C452 C 0.86814 0.38997 0.10142 0.0
C453 C 0.86358 0.4098 0.09819 0.0
C454 C 0.88304 0.43359 0.10964 0.0
C455 C 0.90621 0.43777 0.12516 0.0
C456 C 0.92458 0.46491 0.1313 0.0
C457 C 0.93427 0.47134 0.19781 0.0
C458 C 0.94583 0.47307 0.08475 0.0
C459 C 0.90837 0.47556 0.11543 0.0
C460 C 0.88438 0.45737 0.10379 0.0
C461 C 0.8664 0.46322 0.0869 0.0
C462 C 0.87323 0.48826 0.08174 0.0
C463 C 0.89787 0.50701 0.09259 0.0
C464 C 0.91546 0.50039 0.10997 0.0
H465 H 0.40513 0.87918 0.27062 0.0
H466 H 0.41572 0.92745 0.11644 0.0
H467 H 0.45244 0.92554 0.08423 0.0
H468 H 0.46583 0.90738 0.31159 0.0
H469 H 0.46668 0.88016 0.33431 0.0
H470 H 0.43816 0.8804 0.33762 0.0
H471 H 0.41749 0.84181 0.26744 0.0
H472 H 0.44605 0.84143 0.264 0.0
H473 H 0.43109 0.84226 0.19379 0.0
H474 H 0.49098 0.92489 0.07896 0.0
H475 H 0.53008 0.92614 0.10208 0.0
H476 H 0.49627 0.87836 0.25954 0.0
C477 C 0.41472 0.88846 0.22876 0.0
C478 C 0.4075 0.90307 0.19506 0.0
C479 C 0.42092 0.91593 0.14213 0.0
C480 C 0.44169 0.91484 0.12338 0.0
C481 C 0.44891 0.90092 0.15836 0.0
C482 C 0.43589 0.88788 0.20992 0.0
C483 C 0.44969 0.8773 0.24399 0.0
C484 C 0.45543 0.8869 0.3108 0.0
C485 C 0.43521 0.84901 0.24218 0.0
C486 C 0.47297 0.88749 0.20528 0.0
C487 C 0.47179 0.90061 0.15538 0.0
C488 C 0.49191 0.9141 0.11673 0.0
C489 C 0.51403 0.91475 0.13019 0.0
C490 C 0.51584 0.90186 0.1815 0.0
C491 C 0.49494 0.88756 0.21868 0.0
H492 H 0.36685 0.40872 0.7455 0.0
H493 H 0.2939 0.34518 0.77235 0.0
H494 H 0.30368 0.32162 0.69783 0.0
H495 H 0.37094 0.39944 0.58089 0.0
H496 H 0.40336 0.40958 0.5845 0.0
H497 H 0.39012 0.42171 0.63805 0.0
H498 H 0.40713 0.40786 0.72915 0.0
H499 H 0.42007 0.39532 0.67592 0.0
H500 H 0.39907 0.376 0.73509 0.0
H501 H 0.32195 0.30431 0.62546 0.0
H502 H 0.34619 0.29539 0.55122 0.0
H503 H 0.40715 0.37034 0.57078 0.0
C504 C 0.35279 0.38996 0.73516 0.0
C505 C 0.32963 0.37878 0.76484 0.0
C506 C 0.31178 0.35416 0.75012 0.0
C507 C 0.31717 0.34058 0.70807 0.0
C508 C 0.34041 0.35195 0.681 0.0
C509 C 0.35783 0.37616 0.69322 0.0
C510 C 0.38144 0.38394 0.658 0.0
C511 C 0.38677 0.4049 0.61266 0.0
C512 C 0.40321 0.3912 0.7022 0.0
C513 C 0.3746 0.36022 0.62442 0.0
C514 C 0.35091 0.342 0.6386 0.0
C515 C 0.34048 0.31845 0.61362 0.0
C516 C 0.35447 0.31356 0.57171 0.0
C517 C 0.37857 0.33219 0.55507 0.0
C518 C 0.38882 0.3557 0.58261 0.0
H519 H 0.96194 0.32497 0.9066 0.0
H520 H 0.95136 0.38792 0.92992 0.0
H521 H 0.98391 0.41107 0.85332 0.0
H522 H 0.02697 0.35895 0.8931 0.0
H523 H 0.02872 0.3392 0.83532 0.0
H524 H 1.00366 0.32683 0.88981 0.0
H525 H 0.97206 0.31117 0.80017 0.0
H526 H 0.99702 0.32317 0.74538 0.0
H527 H 0.97411 0.33248 0.74146 0.0
H528 H 0.01844 0.42797 0.77822 0.0
H529 H 0.05121 0.43677 0.70281 0.0
H530 H 0.03958 0.36294 0.72844 0.0
C531 C 0.96622 0.34349 0.89501 0.0
C532 C 0.95411 0.35463 0.92424 0.0
C533 C 0.96039 0.37899 0.90812 0.0
C534 C 0.97889 0.39233 0.8648 0.0
C535 C 0.99086 0.38103 0.83804 0.0
C536 C 0.98467 0.35711 0.85196 0.0
C537 C 1.00066 0.34945 0.81702 0.0
C538 C 0.0159 0.34325 0.86148 0.0
C539 C 0.98503 0.32779 0.77341 0.0
C540 C 0.01686 0.37287 0.78152 0.0
C541 C 0.01091 0.39084 0.7945 0.0
C542 C 0.02324 0.41404 0.7674 0.0
C543 C 0.04187 0.41886 0.72478 0.0
C544 C 0.04795 0.40053 0.7097 0.0
C545 C 0.03545 0.37736 0.73918 0.0
H546 H 0.62119 0.97932 0.11246 0.0
H547 H 0.67247 0.952 0.10308 0.0
H548 H 0.69838 0.98548 0.0297 0.0
H549 H 0.62329 0.99508 0.95724 0.0
H550 H 0.62137 0.02234 0.97253 0.0
H551 H 0.60815 0.99704 0.026 0.0
H552 H 0.6344 0.02656 0.11416 0.0
H553 H 0.64792 0.05193 0.06061 0.0
H554 H 0.66741 0.04448 0.10595 0.0
H555 H 0.71629 0.02001 0.94996 0.0
H556 H 0.72447 0.05211 0.87207 0.0
H557 H 0.66232 0.05736 0.94181 0.0
C558 C 0.63787 0.98032 0.09503 0.0
C559 C 0.64476 0.963 0.11269 0.0
C560 C 0.6669 0.96514 0.08973 0.0
C561 C 0.68172 0.9841 0.04836 0.0
C562 C 0.67431 1.00092 0.03186 0.0
C563 C 0.65297 0.99924 0.05501 0.0
C564 C 0.64851 0.01902 0.02936 0.0
C565 C 0.62389 0.00769 0.99418 0.0
C566 C 0.64964 0.03653 0.08058 0.0
C567 C 0.67024 0.03168 0.98635 0.0
C568 C 0.68506 0.02118 0.98845 0.0
C569 C 0.70506 0.02866 0.94871 0.0
C570 C 0.70958 0.04689 0.90471 0.0
C571 C 0.69413 0.05734 0.90115 0.0
C572 C 0.67473 0.05006 0.94385 0.0
H573 H 0.59303 0.63542 0.0746 0.0
H574 H 0.65512 0.70951 0.0512 0.0
H575 H 0.67909 0.70037 0.12568 0.0
H576 H 0.60168 0.63094 0.23914 0.0
H577 H 0.59266 0.5988 0.23486 0.0
H578 H 0.58011 0.6115 0.18106 0.0
H579 H 0.59549 0.5958 0.09021 0.0
H580 H 0.60842 0.58338 0.14372 0.0
H581 H 0.62767 0.60497 0.08543 0.0
H582 H 0.69701 0.68286 0.19779 0.0
H583 H 0.70662 0.65928 0.27228 0.0
H584 H 0.63273 0.59667 0.25029 0.0
C585 C 0.61156 0.64983 0.08566 0.0
C586 C 0.62222 0.67315 0.05697 0.0
C587 C 0.64654 0.6915 0.07262 0.0
C588 C 0.66036 0.68647 0.11466 0.0
C589 C 0.64953 0.66311 0.14082 0.0
C590 C 0.6256 0.64518 0.12769 0.0
C591 C 0.61839 0.62159 0.16244 0.0
C592 C 0.59695 0.61535 0.20703 0.0
C593 C 0.61213 0.60018 0.11777 0.0
C594 C 0.64208 0.62908 0.19687 0.0
C595 C 0.65983 0.65305 0.18335 0.0
C596 C 0.68326 0.66411 0.20912 0.0
C597 C 0.68854 0.6505 0.25119 0.0
C598 C 0.67039 0.62613 0.26727 0.0
C599 C 0.64699 0.61522 0.23891 0.0
H600 H 0.04664 0.63781 0.41881 0.0
H601 H 0.05772 0.71128 0.44742 0.0
H602 H 0.02441 0.70232 0.37334 0.0
H603 H 0.03343 0.63426 0.25528 0.0
H604 H 0.01061 0.60199 0.25851 0.0
H605 H 0.03588 0.61466 0.31228 0.0
H606 H 1.00482 0.59806 0.40315 0.0
H607 H 0.97944 0.58566 0.34969 0.0
H608 H 0.98149 0.60677 0.40902 0.0
H609 H 0.98905 0.6849 0.29953 0.0
H610 H 0.95608 0.66133 0.22411 0.0
H611 H 0.96827 0.59928 0.24443 0.0
C612 C 0.04228 0.65214 0.40909 0.0
C613 C 0.05476 0.67524 0.43891 0.0
C614 C 0.04843 0.69346 0.425 0.0
C615 C 0.02948 0.68853 0.38322 0.0
C616 C 0.01717 0.66535 0.35582 0.0
C617 C 0.02347 0.64755 0.36764 0.0
C618 C 0.00733 0.62412 0.33218 0.0
C619 C 0.02273 0.61844 0.28686 0.0
C620 C 0.99239 0.60238 0.37615 0.0
C621 C 0.99092 0.63152 0.29865 0.0
C622 C 0.99682 0.65532 0.31312 0.0
C623 C 0.98428 0.66627 0.28763 0.0
C624 C 0.96554 0.65268 0.24502 0.0
C625 C 0.95962 0.62846 0.22834 0.0
C626 C 0.97228 0.6177 0.25636 0.0
H627 H 0.38583 0.96319 0.41476 0.0
H628 H 0.30858 0.94291 0.41194 0.0
H629 H 0.31664 0.974 0.49118 0.0
H630 H 0.39429 0.97522 0.58266 0.0
H631 H 0.42514 1.0008 0.57356 0.0
H632 H 0.41312 0.97569 0.51918 0.0
H633 H 0.42298 0.00668 0.42976 0.0
H634 H 0.43465 0.03183 0.48387 0.0
H635 H 0.41035 0.02695 0.4313 0.0
H636 H 0.33306 0.00931 0.56134 0.0
H637 H 0.3562 0.04415 0.63135 0.0
H638 H 0.42292 0.04132 0.59417 0.0
C639 C 0.37053 0.96497 0.43169 0.0
C640 C 0.3466 0.95068 0.40683 0.0
C641 C 0.3271 0.95366 0.43 0.0
C642 C 0.33146 0.97131 0.47498 0.0
C643 C 0.35535 0.98564 0.49689 0.0
C644 C 0.37452 0.98245 0.47714 0.0
C645 C 0.39849 1.0007 0.50815 0.0
C646 C 0.40834 0.9873 0.54828 0.0
C647 C 0.41775 0.01754 0.46041 0.0
C648 C 0.38977 0.01489 0.54735 0.0
C649 C 0.36484 0.00589 0.5396 0.0
C650 C 0.35253 0.01637 0.56861 0.0
C651 C 0.36595 0.0363 0.60796 0.0
C652 C 0.3914 0.04544 0.61848 0.0
C653 C 0.40348 0.03467 0.58729 0.0
H654 H 0.42788 0.25116 0.49869 0.0
H655 H 0.34988 0.21393 0.45406 0.0
H656 H 0.34281 0.17925 0.52046 0.0
H657 H 0.43247 0.19456 0.50344 0.0
H658 H 0.45402 0.20549 0.56667 0.0
H659 H 0.45339 0.22711 0.51303 0.0
H660 H 0.44706 0.25014 0.60403 0.0
H661 H 0.44724 0.22835 0.65785 0.0
H662 H 0.42141 0.23349 0.65576 0.0
H663 H 0.34303 0.15042 0.59767 0.0
H664 H 0.35137 0.12556 0.67068 0.0
H665 H 0.42955 0.17944 0.66417 0.0
C666 C 0.40942 0.23547 0.5019 0.0
C667 C 0.38943 0.23536 0.47099 0.0
C668 C 0.36552 0.21455 0.47701 0.0
C669 C 0.36126 0.19474 0.51495 0.0
C670 C 0.38111 0.19578 0.54631 0.0
C671 C 0.40481 0.21529 0.53941 0.0
C672 C 0.42273 0.21148 0.57876 0.0
C673 C 0.44178 0.20954 0.53804 0.0
C674 C 0.43535 0.2321 0.62695 0.0
C675 C 0.40527 0.18697 0.60924 0.0
C676 C 0.38134 0.17848 0.59007 0.0
C677 C 0.36172 0.1567 0.61254 0.0
C678 C 0.36669 0.14276 0.65444 0.0
C679 C 0.39114 0.15043 0.67329 0.0
C680 C 0.41066 0.17306 0.6508 0.0
H681 H 0.21819 0.37291 0.84123 0.0
H682 H 0.27229 0.45094 0.84066 0.0
H683 H 0.24527 0.45866 0.77233 0.0
H684 H 0.20186 0.36875 0.68433 0.0
H685 H 0.16965 0.34697 0.69622 0.0
H686 H 0.19227 0.34779 0.74879 0.0
H687 H 0.16976 0.35428 0.84092 0.0
H688 H 0.14682 0.35307 0.78877 0.0
H689 H 0.16339 0.37931 0.83876 0.0
H690 H 0.21276 0.45738 0.69945 0.0
H691 H 0.17673 0.44752 0.63368 0.0
H692 H 0.14477 0.3702 0.68068 0.0
C693 C 0.22421 0.39172 0.82782 0.0
C694 C 0.24734 0.41135 0.84681 0.0
C695 C 0.25459 0.43561 0.8272 0.0
C696 C 0.2394 0.44016 0.78812 0.0
C697 C 0.21702 0.42026 0.76892 0.0
C698 C 0.20938 0.39655 0.7886 0.0
C699 C 0.18487 0.37825 0.76007 0.0
C700 C 0.18733 0.35933 0.71998 0.0
C701 C 0.16504 0.36548 0.81011 0.0
C702 C 0.17993 0.39531 0.72092 0.0
C703 C 0.19864 0.41948 0.7266 0.0
C704 C 0.198 0.4385 0.69482 0.0
C705 C 0.1775 0.43271 0.65729 0.0
C706 C 0.15794 0.40807 0.6516 0.0
C707 C 0.15945 0.38919 0.68349 0.0
H708 H 0.86096 0.22961 0.94855 0.0
H709 H 0.82408 0.26877 0.01012 0.0
H710 H 0.78801 0.24151 0.94556 0.0
H711 H 0.8401 0.22133 0.79206 0.0
H712 H 0.83656 0.19109 0.78478 0.0
H713 H 0.85913 0.21316 0.83709 0.0
H714 H 0.8397 0.18232 0.92764 0.0
H715 H 0.81734 0.16002 0.87541 0.0
H716 H 0.80727 0.16897 0.94358 0.0
H717 H 0.75567 0.20938 0.87413 0.0
H718 H 0.72935 0.17425 0.80597 0.0
H719 H 0.78842 0.15756 0.78837 0.0
C720 C 0.84521 0.23232 0.94911 0.0
C721 C 0.84531 0.25126 0.98487 0.0
C722 C 0.8244 0.25432 0.98346 0.0
C723 C 0.80387 0.23899 0.94668 0.0
C724 C 0.80459 0.2208 0.91114 0.0
C725 C 0.82472 0.21738 0.91228 0.0
C726 C 0.82101 0.19661 0.86973 0.0
C727 C 0.84035 0.20613 0.81785 0.0
C728 C 0.82134 0.17574 0.90628 0.0
C729 C 0.79556 0.18869 0.84474 0.0
C730 C 0.78637 0.20287 0.86905 0.0
C731 C 0.76277 0.1983 0.85453 0.0
C732 C 0.74799 0.17836 0.8155 0.0
C733 C 0.75688 0.16329 0.79109 0.0
C734 C 0.78119 0.16896 0.80515 0.0
H735 H 0.63335 0.85197 0.17386 0.0
H736 H 0.55667 0.833 0.17695 0.0
H737 H 0.54634 0.79816 0.10596 0.0
H738 H 0.63535 0.8409 0.01457 0.0
H739 H 0.6559 0.82879 0.02284 0.0
H740 H 0.65685 0.85077 0.07787 0.0
H741 H 0.64956 0.82047 0.16742 0.0
H742 H 0.649 0.79856 0.11275 0.0
H743 H 0.62341 0.78968 0.16456 0.0
H744 H 0.5448 0.76536 0.03271 0.0
H745 H 0.55226 0.7379 0.96485 0.0
H746 H 0.6304 0.7808 0.00521 0.0
C747 C 0.61428 0.84018 0.16075 0.0
C748 C 0.59574 0.84499 0.18176 0.0
C749 C 0.57113 0.82951 0.162 0.0
C750 C 0.56511 0.80973 0.1215 0.0
C751 C 0.58397 0.80588 0.10054 0.0
C752 C 0.60806 0.82072 0.1196 0.0
C753 C 0.62516 0.81354 0.08836 0.0
C754 C 0.64445 0.83476 0.04855 0.0
C755 C 0.6375 0.80505 0.13612 0.0
C756 C 0.60699 0.79229 0.04873 0.0
C757 C 0.58328 0.78798 0.05657 0.0
C758 C 0.56334 0.76871 0.02601 0.0
C759 C 0.56774 0.75326 0.98736 0.0
C760 C 0.59193 0.75738 0.97893 0.0
C761 C 0.61174 0.7774 0.0096 0.0
H762 H 0.75677 0.581 0.33035 0.0
H763 H 0.78662 0.65989 0.35003 0.0
H764 H 0.82021 0.66761 0.2789 0.0
H765 H 0.81731 0.58459 0.32372 0.0
H766 H 0.80721 0.55995 0.26834 0.0
H767 H 0.78552 0.56037 0.3222 0.0
H768 H 0.75775 0.55795 0.23095 0.0
H769 H 0.77959 0.55799 0.17678 0.0
H770 H 0.77035 0.58091 0.17094 0.0
H771 H 0.84849 0.66735 0.20009 0.0
H772 H 0.87481 0.65943 0.13103 0.0
H773 H 0.82938 0.58084 0.16478 0.0
C774 C 0.77062 0.59988 0.32049 0.0
C775 C 0.76891 0.61982 0.34587 0.0
C776 C 0.78741 0.64425 0.33151 0.0
C777 C 0.80655 0.64888 0.2907 0.0
C778 C 0.80727 0.62892 0.265 0.0
C779 C 0.79023 0.60491 0.28026 0.0
C780 C 0.79593 0.58699 0.24675 0.0
C781 C 0.80185 0.5721 0.29301 0.0
C782 C 0.77463 0.56995 0.20381 0.0
C783 C 0.81864 0.60477 0.21002 0.0
C784 C 0.82452 0.62882 0.22082 0.0
C785 C 0.84427 0.64862 0.19172 0.0
C786 C 0.85905 0.64387 0.15213 0.0
C787 C 0.8543 0.61951 0.14237 0.0
C788 C 0.83348 0.59966 0.17101 0.0
H789 H 0.16286 0.78216 0.50715 0.0
H790 H 0.18498 0.72675 0.51231 0.0
H791 H 0.21997 0.75245 0.44288 0.0
H792 H 0.17519 0.79642 0.34877 0.0
H793 H 0.18616 0.82885 0.35815 0.0
H794 H 0.16404 0.80702 0.41166 0.0
H795 H 0.19311 0.83016 0.50319 0.0
H796 H 0.21513 0.85232 0.45006 0.0
H797 H 0.22432 0.83596 0.50208 0.0
H798 H 0.25222 0.78434 0.36981 0.0
H799 H 0.27943 0.81997 0.30375 0.0
H800 H 0.23448 0.85301 0.34391 0.0
C801 C 0.1753 0.77558 0.49475 0.0
C802 C 0.17128 0.7525 0.51579 0.0
C803 C 0.18778 0.74444 0.49728 0.0
C804 C 0.20765 0.75888 0.4576 0.0
C805 C 0.21068 0.78126 0.43647 0.0
C806 C 0.19499 0.78958 0.45476 0.0
C807 C 0.20166 0.81386 0.42427 0.0
C808 C 0.1805 0.81137 0.38329 0.0
C809 C 0.209 0.83428 0.47279 0.0
C810 C 0.22358 0.81798 0.38587 0.0
C811 C 0.22859 0.79905 0.39351 0.0
C812 C 0.24838 0.79921 0.36345 0.0
C813 C 0.26367 0.81947 0.32575 0.0
C814 C 0.259 0.83921 0.31804 0.0
C815 C 0.23842 0.83812 0.34798 0.0
loop_
_geom_bond_atom_site_label_1
_geom_bond_atom_site_label_2
_geom_bond_distance
_geom_bond_site_symmetry_2
_ccdc_geom_bond_type
O0 Cd1 2.223 . S
O0 C8 1.315 . S
Cd1 O0 2.223 . S
Cd1 O4 2.297 . S
Cd1 O5 2.439 . S
Cd1 O11 2.240 . S
Cd2 O3 2.240 . S
Cd2 O10 2.223 . S
Cd2 O12 2.297 . S
Cd2 O13 2.439 . S
O3 Cd2 2.240 . S
O3 C8 1.279 . S
O4 Cd1 2.297 . S
O4 C6 1.247 . S
O5 Cd1 2.439 . S
O5 C6 1.208 . S
C6 O4 1.247 . S
C6 O5 1.208 . S
C7 O12 1.247 . S
C7 O13 1.208 . S
C8 O0 1.315 . S
C8 O3 1.279 . S
C9 O10 1.315 . S
C9 O11 1.279 . S
O10 Cd2 2.223 . S
O10 C9 1.315 . S
O11 Cd1 2.240 . S
O11 C9 1.279 . S
O12 Cd2 2.297 . S
O12 C7 1.247 . S
O13 Cd2 2.439 . S
O13 C7 1.208 . S
O14 Cd15 2.223 . S
O14 C22 1.315 . S
Cd15 O14 2.223 . S
Cd15 O18 2.297 . S
Cd15 O19 2.439 . S
Cd15 O25 2.240 . S
Cd16 O17 2.240 . S
Cd16 O24 2.223 . S
Cd16 O26 2.297 . S
Cd16 O27 2.439 . S
O17 Cd16 2.240 . S
O17 C22 1.279 . S
O18 Cd15 2.297 . S
O18 C20 1.247 . S
O19 Cd15 2.439 . S
O19 C20 1.208 . S
C20 O18 1.247 . S
C20 O19 1.208 . S
C21 O26 1.247 . S
C21 O27 1.208 . S
C22 O14 1.315 . S
C22 O17 1.279 . S
C23 O24 1.315 . S
C23 O25 1.279 . S
O24 Cd16 2.223 . S
O24 C23 1.315 . S
O25 Cd15 2.240 . S
O25 C23 1.279 . S
O26 Cd16 2.297 . S
O26 C21 1.247 . S
O27 Cd16 2.439 . S
O27 C21 1.208 . S
O28 Cd29 2.223 . S
O28 C36 1.315 . S
Cd29 O28 2.223 . S
Cd29 O32 2.297 . S
Cd29 O33 2.439 . S
Cd29 O39 2.240 . S
Cd30 O31 2.240 . S
Cd30 O38 2.223 . S
Cd30 O40 2.297 . S
Cd30 O41 2.439 . S
O31 Cd30 2.240 . S
O31 C36 1.279 . S
O32 Cd29 2.297 . S
O32 C34 1.247 . S
O33 Cd29 2.439 . S
O33 C34 1.208 . S
C34 O32 1.247 . S
C34 O33 1.208 . S
C35 O40 1.247 . S
C35 O41 1.208 . S
C36 O28 1.315 . S
C36 O31 1.279 . S
C37 O38 1.315 . S
C37 O39 1.279 . S
O38 Cd30 2.223 . S
O38 C37 1.315 . S
O39 Cd29 2.240 . S
O39 C37 1.279 . S
O40 Cd30 2.297 . S
O40 C35 1.247 . S
O41 Cd30 2.439 . S
O41 C35 1.208 . S
O42 Cd43 2.223 . S
O42 C50 1.315 . S
Cd43 O42 2.223 . S
Cd43 O46 2.297 . S
Cd43 O47 2.439 . S
Cd43 O53 2.240 . S
Cd44 O45 2.246 . S
Cd44 O52 2.223 . S
Cd44 O54 2.297 . S
Cd44 O55 2.439 . S
O45 Cd44 2.246 . S
O45 C50 1.280 . S
O46 Cd43 2.297 . S
O46 C48 1.247 . S
O47 Cd43 2.439 . S
O47 C48 1.208 . S
C48 O46 1.247 . S
C48 O47 1.208 . S
C49 O54 1.247 . S
C49 O55 1.208 . S
C50 O42 1.315 . S
C50 O45 1.280 . S
C51 O52 1.315 . S
C51 O53 1.279 . S
O52 Cd44 2.223 . S
O52 C51 1.315 . S
O53 Cd43 2.240 . S
O53 C51 1.279 . S
O54 Cd44 2.297 . S
O54 C49 1.247 . S
O55 Cd44 2.439 . S
O55 C49 1.208 . S
O56 Cd57 2.223 . S
O56 C64 1.315 . S
Cd57 O56 2.223 . S
Cd57 O60 2.297 . S
Cd57 O61 2.439 . S
Cd57 O67 2.240 . S
Cd58 O59 2.240 . S
Cd58 O66 2.223 . S
Cd58 O68 2.297 . S
Cd58 O69 2.439 . S
O59 Cd58 2.240 . S
O59 C64 1.279 . S
O60 Cd57 2.297 . S
O60 C62 1.247 . S
O61 Cd57 2.439 . S
O61 C62 1.208 . S
C62 O60 1.247 . S
C62 O61 1.208 . S
C63 O68 1.247 . S
C63 O69 1.208 . S
C64 O56 1.315 . S
C64 O59 1.279 . S
C65 O66 1.315 . S
C65 O67 1.279 . S
O66 Cd58 2.223 . S
O66 C65 1.315 . S
O67 Cd57 2.240 . S
O67 C65 1.279 . S
O68 Cd58 2.297 . S
O68 C63 1.247 . S
O69 Cd58 2.439 . S
O69 C63 1.208 . S
O70 Cd71 2.223 . S
O70 C78 1.315 . S
Cd71 O70 2.223 . S
Cd71 O74 2.297 . S
Cd71 O75 2.439 . S
Cd71 O81 2.240 . S
Cd72 O73 2.240 . S
Cd72 O80 2.223 . S
Cd72 O82 2.297 . S
Cd72 O83 2.439 . S
O73 Cd72 2.240 . S
O73 C78 1.279 . S
O74 Cd71 2.297 . S
O74 C76 1.247 . S
O75 Cd71 2.439 . S
O75 C76 1.208 . S
C76 O74 1.247 . S
C76 O75 1.208 . S
C77 O82 1.247 . S
C77 O83 1.208 . S
C78 O70 1.315 . S
C78 O73 1.279 . S
C79 O80 1.315 . S
C79 O81 1.279 . S
O80 Cd72 2.223 . S
O80 C79 1.315 . S
O81 Cd71 2.240 . S
O81 C79 1.279 . S
O82 Cd72 2.297 . S
O82 C77 1.247 . S
O83 Cd72 2.439 . S
O83 C77 1.208 . S
O84 Cd85 2.223 . S
O84 C92 1.315 . S
Cd85 O84 2.223 . S
Cd85 O88 2.297 . S
Cd85 O89 2.439 . S
Cd85 O95 2.240 . S
Cd86 O87 2.240 . S
Cd86 O94 2.223 . S
Cd86 O96 2.297 . S
Cd86 O97 2.439 . S
O87 Cd86 2.240 . S
O87 C92 1.279 . S
O88 Cd85 2.297 . S
O88 C90 1.247 . S
O89 Cd85 2.439 . S
O89 C90 1.208 . S
C90 O88 1.247 . S
C90 O89 1.208 . S
C91 O96 1.247 . S
C91 O97 1.208 . S
C92 O84 1.315 . S
C92 O87 1.279 . S
C93 O94 1.315 . S
C93 O95 1.279 . S
O94 Cd86 2.223 . S
O94 C93 1.315 . S
O95 Cd85 2.240 . S
O95 C93 1.279 . S
O96 Cd86 2.297 . S
O96 C91 1.247 . S
O97 Cd86 2.439 . S
O97 C91 1.208 . S
O98 Cd99 2.223 . S
O98 C106 1.315 . S
Cd99 O98 2.223 . S
Cd99 O102 2.297 . S
Cd99 O103 2.439 . S
Cd99 O109 2.240 . S
Cd100 O101 2.240 . S
Cd100 O108 2.223 . S
Cd100 O110 2.297 . S
Cd100 O111 2.439 . S
O101 Cd100 2.240 . S
O101 C106 1.279 . S
O102 Cd99 2.297 . S
O102 C104 1.247 . S
O103 Cd99 2.439 . S
O103 C104 1.208 . S
C104 O102 1.247 . S
C104 O103 1.208 . S
C105 O110 1.247 . S
C105 O111 1.208 . S
C106 O98 1.315 . S
C106 O101 1.279 . S
C107 O108 1.315 . S
C107 O109 1.279 . S
O108 Cd100 2.223 . S
O108 C107 1.315 . S
O109 Cd99 2.240 . S
O109 C107 1.279 . S
O110 Cd100 2.297 . S
O110 C105 1.247 . S
O111 Cd100 2.439 . S
O111 C105 1.208 . S
O112 Cd113 2.223 . S
O112 C120 1.315 . S
Cd113 O112 2.223 . S
Cd113 O116 2.297 . S
Cd113 O117 2.439 . S
Cd113 O123 2.240 . S
Cd114 O115 2.240 . S
Cd114 O122 2.223 . S
Cd114 O124 2.297 . S
Cd114 O125 2.439 . S
O115 Cd114 2.240 . S
O115 C120 1.279 . S
O116 Cd113 2.297 . S
O116 C118 1.247 . S
O117 Cd113 2.439 . S
O117 C118 1.208 . S
C118 O116 1.247 . S
C118 O117 1.208 . S
C119 O124 1.247 . S
C119 O125 1.208 . S
C120 O112 1.315 . S
C120 O115 1.279 . S
C121 O122 1.315 . S
C121 O123 1.279 . S
O122 Cd114 2.223 . S
O122 C121 1.315 . S
O123 Cd113 2.240 . S
O123 C121 1.279 . S
O124 Cd114 2.297 . S
O124 C119 1.247 . S
O125 Cd114 2.439 . S
O125 C119 1.208 . S
O126 Cd127 2.223 . S
O126 C134 1.315 . S
Cd127 O126 2.223 . S
Cd127 O130 2.297 . S
Cd127 O131 2.439 . S
Cd127 O137 2.240 . S
Cd128 O129 2.240 . S
Cd128 O136 2.223 . S
Cd128 O138 2.297 . S
Cd128 O139 2.439 . S
O129 Cd128 2.240 . S
O129 C134 1.279 . S
O130 Cd127 2.297 . S
O130 C132 1.247 . S
O131 Cd127 2.439 . S
O131 C132 1.208 . S
C132 O130 1.247 . S
C132 O131 1.208 . S
C133 O138 1.247 . S
C133 O139 1.208 . S
C134 O126 1.315 . S
C134 O129 1.279 . S
C135 O136 1.315 . S
C135 O137 1.279 . S
O136 Cd128 2.223 . S
O136 C135 1.315 . S
O137 Cd127 2.240 . S
O137 C135 1.279 . S
O138 Cd128 2.297 . S
O138 C133 1.247 . S
O139 Cd128 2.439 . S
O139 C133 1.208 . S
O140 Cd141 2.223 . S
O140 C148 1.315 . S
Cd141 O140 2.223 . S
Cd141 O144 2.297 . S
Cd141 O145 2.439 . S
Cd141 O151 2.240 . S
Cd142 O143 2.240 . S
Cd142 O150 2.223 . S
Cd142 O152 2.297 . S
Cd142 O153 2.439 . S
O143 Cd142 2.240 . S
O143 C148 1.279 . S
O144 Cd141 2.297 . S
O144 C146 1.247 . S
O145 Cd141 2.439 . S
O145 C146 1.208 . S
C146 O144 1.247 . S
C146 O145 1.208 . S
C147 O152 1.247 . S
C147 O153 1.208 . S
C148 O140 1.315 . S
C148 O143 1.279 . S
C149 O150 1.315 . S
C149 O151 1.279 . S
O150 Cd142 2.223 . S
O150 C149 1.315 . S
O151 Cd141 2.240 . S
O151 C149 1.279 . S
O152 Cd142 2.297 . S
O152 C147 1.247 . S
O153 Cd142 2.439 . S
O153 C147 1.208 . S
O154 Cd155 2.223 . S
O154 C162 1.315 . S
Cd155 O154 2.223 . S
Cd155 O158 2.297 . S
Cd155 O159 2.439 . S
Cd155 O165 2.240 . S
Cd156 O157 2.240 . S
Cd156 O164 2.223 . S
Cd156 O166 2.297 . S
Cd156 O167 2.439 . S
O157 Cd156 2.240 . S
O157 C162 1.279 . S
O158 Cd155 2.297 . S
O158 C160 1.247 . S
O159 Cd155 2.439 . S
O159 C160 1.208 . S
C160 O158 1.247 . S
C160 O159 1.208 . S
C161 O166 1.247 . S
C161 O167 1.208 . S
C162 O154 1.315 . S
C162 O157 1.279 . S
C163 O164 1.315 . S
C163 O165 1.279 . S
O164 Cd156 2.223 . S
O164 C163 1.315 . S
O165 Cd155 2.240 . S
O165 C163 1.279 . S
O166 Cd156 2.297 . S
O166 C161 1.247 . S
O167 Cd156 2.439 . S
O167 C161 1.208 . S
H168 C180 0.930 . S
H169 C182 0.930 . S
H170 C183 0.930 . S
H171 C187 0.959 . S
H172 C187 0.959 . S
H173 C187 0.961 . S
H174 C188 0.960 . S
H175 C188 0.961 . S
H176 C188 0.959 . S
H177 C191 0.929 . S
H178 C192 0.931 . S
H179 C194 0.930 . S
C180 H168 0.930 . S
C180 C181 1.399 . S
C180 C185 1.399 . S
C181 C180 1.399 . S
C181 C182 1.376 . S
C182 H169 0.930 . S
C182 C181 1.376 . S
C182 C183 1.388 . S
C183 H170 0.930 . S
C183 C182 1.388 . S
C183 C184 1.390 . S
C184 C183 1.390 . S
C184 C185 1.394 . S
C184 C190 1.465 . S
C185 C180 1.399 . S
C185 C184 1.394 . S
C185 C186 1.516 . S
C186 C185 1.516 . S
C186 C187 1.502 . S
C186 C188 1.561 . S
C186 C189 1.526 . S
C187 H171 0.959 . S
C187 H172 0.959 . S
C187 H173 0.961 . S
C187 C186 1.502 . S
C188 H174 0.960 . S
C188 H175 0.961 . S
C188 H176 0.959 . S
C188 C186 1.561 . S
C189 C186 1.526 . S
C189 C190 1.396 . S
C189 C194 1.390 . S
C190 C184 1.465 . S
C190 C189 1.396 . S
C190 C191 1.399 . S
C191 H177 0.929 . S
C191 C190 1.399 . S
C191 C192 1.385 . S
C192 H178 0.931 . S
C192 C191 1.385 . S
C192 C193 1.389 . S
C193 C192 1.389 . S
C193 C194 1.387 . S
C194 H179 0.930 . S
C194 C189 1.390 . S
C194 C193 1.387 . S
H195 C207 0.930 . S
H196 C209 0.930 . S
H197 C210 0.930 . S
H198 C214 0.959 . S
H199 C214 0.959 . S
H200 C214 0.961 . S
H201 C215 0.960 . S
H202 C215 0.961 . S
H203 C215 0.959 . S
H204 C218 0.929 . S
H205 C219 0.931 . S
H206 C221 0.930 . S
C207 H195 0.930 . S
C207 C208 1.399 . S
C207 C212 1.399 . S
C208 C207 1.399 . S
C208 C209 1.376 . S
C209 H196 0.930 . S
C209 C208 1.376 . S
C209 C210 1.388 . S
C210 H197 0.930 . S
C210 C209 1.388 . S
C210 C211 1.390 . S
C211 C210 1.390 . S
C211 C212 1.394 . S
C211 C217 1.494 . S
C212 C207 1.399 . S
C212 C211 1.394 . S
C212 C213 1.516 1_455 S
C213 C212 1.516 1_655 S
C213 C214 1.502 . S
C213 C215 1.561 . S
C213 C216 1.526 . S
C214 H198 0.959 . S
C214 H199 0.959 . S
C214 H200 0.961 . S
C214 C213 1.502 . S
C215 H201 0.960 . S
C215 H202 0.961 . S
C215 H203 0.959 . S
C215 C213 1.561 . S
C216 C213 1.526 . S
C216 C217 1.350 1_655 S
C216 C221 1.390 . S
C217 C211 1.494 . S
C217 C216 1.350 1_455 S
C217 C218 1.411 . S
C218 H204 0.929 . S
C218 C217 1.411 . S
C218 C219 1.385 1_455 S
C219 H205 0.931 . S
C219 C218 1.385 1_655 S
C219 C220 1.389 . S
C220 C219 1.389 . S
C220 C221 1.387 . S
C221 H206 0.930 . S
C221 C216 1.390 . S
C221 C220 1.387 . S
H222 C234 0.930 . S
H223 C236 0.930 . S
H224 C237 0.930 . S
H225 C241 0.959 . S
H226 C241 0.959 . S
H227 C241 0.961 . S
H228 C242 0.960 . S
H229 C242 0.961 . S
H230 C242 0.959 . S
H231 C245 0.929 . S
H232 C246 0.931 . S
H233 C248 0.930 . S
C234 H222 0.930 . S
C234 C235 1.399 . S
C234 C239 1.399 . S
C235 C234 1.399 . S
C235 C236 1.376 . S
C236 H223 0.930 . S
C236 C235 1.376 . S
C236 C237 1.388 . S
C237 H224 0.930 . S
C237 C236 1.388 . S
C237 C238 1.390 . S
C238 C237 1.390 . S
C238 C239 1.394 . S
C238 C244 1.465 1_565 S
C239 C234 1.399 . S
C239 C238 1.394 . S
C239 C240 1.515 1_565 S
C240 C239 1.515 1_545 S
C240 C241 1.490 1_545 S
C240 C242 1.565 . S
C240 C243 1.537 . S
C241 H225 0.959 . S
C241 H226 0.959 . S
C241 H227 0.961 . S
C241 C240 1.490 1_565 S
C242 H228 0.960 . S
C242 H229 0.961 . S
C242 H230 0.959 . S
C242 C240 1.565 . S
C243 C240 1.537 . S
C243 C244 1.396 . S
C243 C248 1.390 . S
C244 C238 1.465 1_545 S
C244 C243 1.396 . S
C244 C245 1.399 . S
C245 H231 0.929 . S
C245 C244 1.399 . S
C245 C246 1.385 . S
C246 H232 0.931 . S
C246 C245 1.385 . S
C246 C247 1.389 . S
C247 C246 1.389 . S
C247 C248 1.387 . S
C248 H233 0.930 . S
C248 C243 1.390 . S
C248 C247 1.387 . S
H249 C261 0.930 . S
H250 C263 0.930 . S
H251 C264 0.930 . S
H252 C268 0.959 . S
H253 C268 0.959 . S
H254 C268 0.961 . S
H255 C269 0.960 . S
H256 C269 0.961 . S
H257 C269 0.959 . S
H258 C272 0.929 . S
H259 C273 0.931 . S
H260 C275 0.930 . S
C261 H249 0.930 . S
C261 C262 1.399 . S
C261 C266 1.399 . S
C262 C261 1.399 . S
C262 C263 1.376 . S
C263 H250 0.930 . S
C263 C262 1.376 . S
C263 C264 1.388 . S
C264 H251 0.930 . S
C264 C263 1.388 . S
C264 C265 1.390 . S
C265 C264 1.390 . S
C265 C266 1.394 . S
C265 C271 1.465 . S
C266 C261 1.399 . S
C266 C265 1.394 . S
C266 C267 1.516 . S
C267 C266 1.516 . S
C267 C268 1.502 . S
C267 C269 1.561 . S
C267 C270 1.526 . S
C268 H252 0.959 . S
C268 H253 0.959 . S
C268 H254 0.961 . S
C268 C267 1.502 . S
C269 H255 0.960 . S
C269 H256 0.961 . S
C269 H257 0.959 . S
C269 C267 1.561 . S
C270 C267 1.526 . S
C270 C271 1.396 . S
C270 C275 1.390 . S
C271 C265 1.465 . S
C271 C270 1.396 . S
C271 C272 1.399 . S
C272 H258 0.929 . S
C272 C271 1.399 . S
C272 C273 1.385 . S
C273 H259 0.931 . S
C273 C272 1.385 . S
C273 C274 1.389 . S
C274 C273 1.389 . S
C274 C275 1.387 . S
C275 H260 0.930 . S
C275 C270 1.390 . S
C275 C274 1.387 . S
H276 C288 0.930 . S
H277 C290 0.930 . S
H278 C291 0.930 . S
H279 C295 0.959 . S
H280 C295 0.959 . S
H281 C295 0.961 . S
H282 C296 0.960 . S
H283 C296 0.961 . S
H284 C296 0.959 . S
H285 C299 0.929 . S
H286 C300 0.931 1_554 S
H287 C302 0.930 . S
C288 H276 0.930 . S
C288 C289 1.399 . S
C288 C293 1.399 . S
C289 C288 1.399 . S
C289 C290 1.376 . S
C290 H277 0.930 . S
C290 C289 1.376 . S
C290 C291 1.388 . S
C291 H278 0.930 . S
C291 C290 1.388 . S
C291 C292 1.390 . S
C292 C291 1.390 . S
C292 C293 1.394 . S
C292 C298 1.486 . S
C293 C288 1.399 . S
C293 C292 1.394 . S
C293 C294 1.516 1_455 S
C294 C293 1.516 1_655 S
C294 C295 1.502 . S
C294 C296 1.561 . S
C294 C297 1.526 . S
C295 H279 0.959 . S
C295 H280 0.959 . S
C295 H281 0.961 . S
C295 C294 1.502 . S
C296 H282 0.960 . S
C296 H283 0.961 . S
C296 H284 0.959 . S
C296 C294 1.561 . S
C297 C294 1.526 . S
C297 C298 1.377 1_655 S
C297 C302 1.390 . S
C298 C292 1.486 . S
C298 C297 1.377 1_455 S
C298 C299 1.396 . S
C299 H285 0.929 . S
C299 C298 1.396 . S
C299 C300 1.385 1_455 S
C300 H286 0.931 1_556 S
C300 C299 1.385 1_655 S
C300 C301 1.389 . S
C301 C300 1.389 . S
C301 C302 1.387 . S
C302 H287 0.930 . S
C302 C297 1.390 . S
C302 C301 1.387 . S
H303 C315 0.930 . S
H304 C317 0.930 . S
H305 C318 0.934 . S
H306 C322 0.959 . S
H307 C322 0.959 . S
H308 C322 0.961 . S
H309 C323 0.960 . S
H310 C323 0.961 . S
H311 C323 0.959 . S
H312 C326 0.929 1_556 S
H313 C327 0.931 . S
H314 C329 0.930 . S
C315 H303 0.930 . S
C315 C316 1.399 . S
C315 C320 1.399 . S
C316 C315 1.399 . S
C316 C317 1.376 . S
C317 H304 0.930 . S
C317 C316 1.376 . S
C317 C318 1.383 1_545 S
C318 H305 0.934 . S
C318 C317 1.383 1_565 S
C318 C319 1.391 1_565 S
C319 C318 1.391 1_545 S
C319 C320 1.394 . S
C319 C325 1.465 1_546 S
C320 C315 1.399 . S
C320 C319 1.394 . S
C320 C321 1.516 1_556 S
C321 C320 1.516 1_554 S
C321 C322 1.502 . S
C321 C323 1.561 . S
C321 C324 1.526 1_545 S
C322 H306 0.959 . S
C322 H307 0.959 . S
C322 H308 0.961 . S
C322 C321 1.502 . S
C323 H309 0.960 . S
C323 H310 0.961 . S
C323 H311 0.959 . S
C323 C321 1.561 . S
C324 C321 1.526 1_565 S
C324 C325 1.396 . S
C324 C329 1.390 . S
C325 C319 1.465 1_564 S
C325 C324 1.396 . S
C325 C326 1.399 . S
C326 H312 0.929 1_554 S
C326 C325 1.399 . S
C326 C327 1.385 . S
C327 H313 0.931 . S
C327 C326 1.385 . S
C327 C328 1.389 . S
C328 C327 1.389 . S
C328 C329 1.387 . S
C329 H314 0.930 . S
C329 C324 1.390 . S
C329 C328 1.387 . S
H330 C342 0.930 . S
H331 C344 0.930 . S
H332 C345 0.930 . S
H333 C349 0.959 . S
H334 C349 0.959 . S
H335 C349 0.961 . S
H336 C350 0.960 . S
H337 C350 0.961 . S
H338 C350 0.959 . S
H339 C353 0.929 . S
H340 C354 0.931 . S
H341 C356 0.930 . S
C342 H330 0.930 . S
C342 C343 1.399 . S
C342 C347 1.399 . S
C343 C342 1.399 . S
C343 C344 1.376 . S
C344 H331 0.930 . S
C344 C343 1.376 . S
C344 C345 1.388 . S
C345 H332 0.930 . S
C345 C344 1.388 . S
C345 C346 1.390 . S
C346 C345 1.390 . S
C346 C347 1.394 . S
C346 C352 1.465 . S
C347 C342 1.399 . S
C347 C346 1.394 . S
C347 C348 1.516 . S
C348 C347 1.516 . S
C348 C349 1.502 . S
C348 C350 1.561 . S
C348 C351 1.526 . S
C349 H333 0.959 . S
C349 H334 0.959 . S
C349 H335 0.961 . S
C349 C348 1.502 . S
C350 H336 0.960 . S
C350 H337 0.961 . S
C350 H338 0.959 . S
C350 C348 1.561 . S
C351 C348 1.526 . S
C351 C352 1.396 . S
C351 C356 1.390 . S
C352 C346 1.465 . S
C352 C351 1.396 . S
C352 C353 1.399 . S
C353 H339 0.929 . S
C353 C352 1.399 . S
C353 C354 1.385 . S
C354 H340 0.931 . S
C354 C353 1.385 . S
C354 C355 1.389 . S
C355 C354 1.389 . S
C355 C356 1.387 . S
C356 H341 0.930 . S
C356 C351 1.390 . S
C356 C355 1.387 . S
H357 C369 0.930 . S
H358 C371 0.930 . S
H359 C372 0.930 . S
H360 C376 0.959 . S
H361 C376 0.959 . S
H362 C376 0.961 . S
H363 C377 0.960 . S
H364 C377 0.961 . S
H365 C377 0.959 . S
H366 C380 0.929 . S
H367 C381 0.931 . S
H368 C383 0.930 . S
C369 H357 0.930 . S
C369 C370 1.399 . S
C369 C374 1.399 . S
C370 C369 1.399 . S
C370 C371 1.376 . S
C371 H358 0.930 . S
C371 C370 1.376 . S
C371 C372 1.388 . S
C372 H359 0.930 . S
C372 C371 1.388 . S
C372 C373 1.390 . S
C373 C372 1.390 . S
C373 C374 1.394 . S
C373 C379 1.465 . S
C374 C369 1.399 . S
C374 C373 1.394 . S
C374 C375 1.516 . S
C375 C374 1.516 . S
C375 C376 1.502 . S
C375 C377 1.561 . S
C375 C378 1.526 . S
C376 H360 0.959 . S
C376 H361 0.959 . S
C376 H362 0.961 . S
C376 C375 1.502 . S
C377 H363 0.960 . S
C377 H364 0.961 . S
C377 H365 0.959 . S
C377 C375 1.561 . S
C378 C375 1.526 . S
C378 C379 1.396 . S
C378 C383 1.390 . S
C379 C373 1.465 . S
C379 C378 1.396 . S
C379 C380 1.399 . S
C380 H366 0.929 . S
C380 C379 1.399 . S
C380 C381 1.385 . S
C381 H367 0.931 . S
C381 C380 1.385 . S
C381 C382 1.389 . S
C382 C381 1.389 . S
C382 C383 1.387 . S
C383 H368 0.930 . S
C383 C378 1.390 . S
C383 C382 1.387 . S
H384 C396 0.930 . S
H385 C398 0.930 . S
H386 C399 0.930 . S
H387 C403 0.959 . S
H388 C403 0.959 . S
H389 C403 0.961 . S
H390 C404 0.960 . S
H391 C404 0.961 . S
H392 C404 0.959 . S
H393 C407 0.929 . S
H394 C408 0.931 . S
H395 C410 0.930 . S
C396 H384 0.930 . S
C396 C397 1.399 . S
C396 C401 1.399 . S
C397 C396 1.399 . S
C397 C398 1.376 . S
C398 H385 0.930 . S
C398 C397 1.376 . S
C398 C399 1.388 . S
C399 H386 0.930 . S
C399 C398 1.388 . S
C399 C400 1.390 . S
C400 C399 1.390 . S
C400 C401 1.394 . S
C400 C406 1.465 . S
C401 C396 1.399 . S
C401 C400 1.394 . S
C401 C402 1.516 . S
C402 C401 1.516 . S
C402 C403 1.502 . S
C402 C404 1.561 . S
C402 C405 1.526 . S
C403 H387 0.959 . S
C403 H388 0.959 . S
C403 H389 0.961 . S
C403 C402 1.502 . S
C404 H390 0.960 . S
C404 H391 0.961 . S
C404 H392 0.959 . S
C404 C402 1.561 . S
C405 C402 1.526 . S
C405 C406 1.396 . S
C405 C410 1.390 . S
C406 C400 1.465 . S
C406 C405 1.396 . S
C406 C407 1.399 . S
C407 H393 0.929 . S
C407 C406 1.399 . S
C407 C408 1.385 . S
C408 H394 0.931 . S
C408 C407 1.385 . S
C408 C409 1.389 . S
C409 C408 1.389 . S
C409 C410 1.387 . S
C410 H395 0.930 . S
C410 C405 1.390 . S
C410 C409 1.387 . S
H411 C423 0.930 . S
H412 C425 0.930 . S
H413 C426 0.930 1_554 S
H414 C430 0.959 . S
H415 C430 0.959 . S
H416 C430 0.961 . S
H417 C431 0.960 . S
H418 C431 0.961 . S
H419 C431 0.959 . S
H420 C434 0.929 . S
H421 C435 0.931 . S
H422 C437 0.930 . S
C423 H411 0.930 . S
C423 C424 1.399 . S
C423 C428 1.399 . S
C424 C423 1.399 . S
C424 C425 1.376 . S
C425 H412 0.930 . S
C425 C424 1.376 . S
C425 C426 1.388 . S
C426 H413 0.930 1_556 S
C426 C425 1.388 . S
C426 C427 1.390 . S
C427 C426 1.390 . S
C427 C428 1.394 . S
C427 C433 1.465 . S
C428 C423 1.399 . S
C428 C427 1.394 . S
C428 C429 1.516 . S
C429 C428 1.516 . S
C429 C430 1.502 . S
C429 C431 1.561 . S
C429 C432 1.526 . S
C430 H414 0.959 . S
C430 H415 0.959 . S
C430 H416 0.961 . S
C430 C429 1.502 . S
C431 H417 0.960 . S
C431 H418 0.961 . S
C431 H419 0.959 . S
C431 C429 1.561 . S
C432 C429 1.526 . S
C432 C433 1.396 . S
C432 C437 1.390 . S
C433 C427 1.465 . S
C433 C432 1.396 . S
C433 C434 1.399 1_556 S
C434 H420 0.929 . S
C434 C433 1.399 1_554 S
C434 C435 1.385 . S
C435 H421 0.931 . S
C435 C434 1.385 . S
C435 C436 1.389 1_554 S
C436 C435 1.389 1_556 S
C436 C437 1.387 . S
C437 H422 0.930 . S
C437 C432 1.390 . S
C437 C436 1.387 . S
H438 C450 0.930 . S
H439 C452 0.930 . S
H440 C453 0.930 . S
H441 C457 0.959 . S
H442 C457 0.959 . S
H443 C457 0.961 . S
H444 C458 0.960 . S
H445 C458 0.961 . S
H446 C458 0.959 . S
H447 C461 0.929 1_556 S
H448 C462 0.931 1_556 S
H449 C464 0.930 . S
C450 H438 0.930 . S
C450 C451 1.399 . S
C450 C455 1.399 . S
C451 C450 1.399 . S
C451 C452 1.376 . S
C452 H439 0.930 . S
C452 C451 1.376 . S
C452 C453 1.388 . S
C453 H440 0.930 . S
C453 C452 1.388 . S
C453 C454 1.390 . S
C454 C453 1.390 . S
C454 C455 1.394 . S
C454 C460 1.465 . S
C455 C450 1.399 . S
C455 C454 1.394 . S
C455 C456 1.516 . S
C456 C455 1.516 . S
C456 C457 1.502 . S
C456 C458 1.561 . S
C456 C459 1.526 . S
C457 H441 0.959 . S
C457 H442 0.959 . S
C457 H443 0.961 . S
C457 C456 1.502 . S
C458 H444 0.960 . S
C458 H445 0.961 . S
C458 H446 0.959 . S
C458 C456 1.561 . S
C459 C456 1.526 . S
C459 C460 1.396 . S
C459 C464 1.390 . S
C460 C454 1.465 . S
C460 C459 1.396 . S
C460 C461 1.399 . S
C461 H447 0.929 1_554 S
C461 C460 1.399 . S
C461 C462 1.385 . S
C462 H448 0.931 1_554 S
C462 C461 1.385 . S
C462 C463 1.389 . S
C463 C462 1.389 . S
C463 C464 1.387 . S
C464 H449 0.930 . S
C464 C459 1.390 . S
C464 C463 1.387 . S
H465 C477 0.930 . S
H466 C479 0.930 . S
H467 C480 0.930 . S
H468 C484 0.959 . S
H469 C484 0.959 . S
H470 C484 0.961 . S
H471 C485 0.960 . S
H472 C485 0.961 . S
H473 C485 0.959 . S
H474 C488 0.929 . S
H475 C489 0.931 . S
H476 C491 0.930 . S
C477 H465 0.930 . S
C477 C478 1.399 . S
C477 C482 1.399 . S
C478 C477 1.399 . S
C478 C479 1.376 . S
C479 H466 0.930 . S
C479 C478 1.376 . S
C479 C480 1.388 . S
C480 H467 0.930 . S
C480 C479 1.388 . S
C480 C481 1.390 . S
C481 C480 1.390 . S
C481 C482 1.394 . S
C481 C487 1.465 . S
C482 C477 1.399 . S
C482 C481 1.394 . S
C482 C483 1.516 . S
C483 C482 1.516 . S
C483 C484 1.502 . S
C483 C485 1.561 . S
C483 C486 1.526 . S
C484 H468 0.959 . S
C484 H469 0.959 . S
C484 H470 0.961 . S
C484 C483 1.502 . S
C485 H471 0.960 . S
C485 H472 0.961 . S
C485 H473 0.959 . S
C485 C483 1.561 . S
C486 C483 1.526 . S
C486 C487 1.396 . S
C486 C491 1.390 . S
C487 C481 1.465 . S
C487 C486 1.396 . S
C487 C488 1.399 . S
C488 H474 0.929 . S
C488 C487 1.399 . S
C488 C489 1.385 . S
C489 H475 0.931 . S
C489 C488 1.385 . S
C489 C490 1.389 . S
C490 C489 1.389 . S
C490 C491 1.387 . S
C491 H476 0.930 . S
C491 C486 1.390 . S
C491 C490 1.387 . S
H492 C504 0.930 . S
H493 C506 0.930 . S
H494 C507 0.930 . S
H495 C511 0.959 . S
H496 C511 0.959 . S
H497 C511 0.961 . S
H498 C512 0.960 . S
H499 C512 0.961 . S
H500 C512 0.959 . S
H501 C515 0.929 . S
H502 C516 0.931 . S
H503 C518 0.930 . S
C504 H492 0.930 . S
C504 C505 1.399 . S
C504 C509 1.399 . S
C505 C504 1.399 . S
C505 C506 1.376 . S
C506 H493 0.930 . S
C506 C505 1.376 . S
C506 C507 1.388 . S
C507 H494 0.930 . S
C507 C506 1.388 . S
C507 C508 1.390 . S
C508 C507 1.390 . S
C508 C509 1.394 . S
C508 C514 1.465 . S
C509 C504 1.399 . S
C509 C508 1.394 . S
C509 C510 1.516 . S
C510 C509 1.516 . S
C510 C511 1.502 . S
C510 C512 1.561 . S
C510 C513 1.526 . S
C511 H495 0.959 . S
C511 H496 0.959 . S
C511 H497 0.961 . S
C511 C510 1.502 . S
C512 H498 0.960 . S
C512 H499 0.961 . S
C512 H500 0.959 . S
C512 C510 1.561 . S
C513 C510 1.526 . S
C513 C514 1.396 . S
C513 C518 1.390 . S
C514 C508 1.465 . S
C514 C513 1.396 . S
C514 C515 1.399 . S
C515 H501 0.929 . S
C515 C514 1.399 . S
C515 C516 1.385 . S
C516 H502 0.931 . S
C516 C515 1.385 . S
C516 C517 1.389 . S
C517 C516 1.389 . S
C517 C518 1.387 . S
C518 H503 0.930 . S
C518 C513 1.390 . S
C518 C517 1.387 . S
H519 C531 0.930 . S
H520 C533 0.930 . S
H521 C534 0.930 . S
H522 C538 0.959 . S
H523 C538 0.959 . S
H524 C538 0.961 . S
H525 C539 0.960 1_655 S
H526 C539 0.961 . S
H527 C539 0.959 1_655 S
H528 C542 0.929 1_655 S
H529 C543 0.931 . S
H530 C545 0.930 . S
C531 H519 0.930 . S
C531 C532 1.399 . S
C531 C536 1.399 . S
C532 C531 1.399 . S
C532 C533 1.376 . S
C533 H520 0.930 . S
C533 C532 1.376 . S
C533 C534 1.388 . S
C534 H521 0.930 . S
C534 C533 1.388 . S
C534 C535 1.390 . S
C535 C534 1.390 . S
C535 C536 1.394 . S
C535 C541 1.465 1_655 S
C536 C531 1.399 . S
C536 C535 1.394 . S
C536 C537 1.516 1_655 S
C537 C536 1.516 1_455 S
C537 C538 1.502 . S
C537 C539 1.561 . S
C537 C540 1.526 . S
C538 H522 0.959 . S
C538 H523 0.959 . S
C538 H524 0.961 . S
C538 C537 1.502 . S
C539 H525 0.960 1_455 S
C539 H526 0.961 . S
C539 H527 0.959 1_455 S
C539 C537 1.561 . S
C540 C537 1.526 . S
C540 C541 1.396 . S
C540 C545 1.390 . S
C541 C535 1.465 1_455 S
C541 C540 1.396 . S
C541 C542 1.399 . S
C542 H528 0.929 1_455 S
C542 C541 1.399 . S
C542 C543 1.385 . S
C543 H529 0.931 . S
C543 C542 1.385 . S
C543 C544 1.389 . S
C544 C543 1.389 . S
C544 C545 1.387 . S
C545 H530 0.930 . S
C545 C540 1.390 . S
C545 C544 1.387 . S
H546 C558 0.930 . S
H547 C560 0.930 . S
H548 C561 0.930 1_556 S
H549 C565 0.959 . S
H550 C565 0.959 . S
H551 C565 0.961 . S
H552 C566 0.960 . S
H553 C566 0.961 . S
H554 C566 0.959 . S
H555 C569 0.929 . S
H556 C570 0.931 . S
H557 C572 0.930 . S
C558 H546 0.930 . S
C558 C559 1.399 . S
C558 C563 1.399 . S
C559 C558 1.399 . S
C559 C560 1.376 . S
C560 H547 0.930 . S
C560 C559 1.376 . S
C560 C561 1.388 . S
C561 H548 0.930 1_554 S
C561 C560 1.388 . S
C561 C562 1.390 . S
C562 C561 1.390 . S
C562 C563 1.394 . S
C562 C568 1.485 1_554 S
C563 C558 1.399 . S
C563 C562 1.394 . S
C563 C564 1.516 1_565 S
C564 C563 1.516 1_545 S
C564 C565 1.502 . S
C564 C566 1.561 . S
C564 C567 1.526 1_554 S
C565 H549 0.959 . S
C565 H550 0.959 . S
C565 H551 0.961 . S
C565 C564 1.502 . S
C566 H552 0.960 . S
C566 H553 0.961 . S
C566 H554 0.959 . S
C566 C564 1.561 . S
C567 C564 1.526 1_556 S
C567 C568 1.370 1_545 S
C567 C572 1.390 . S
C568 C562 1.485 1_556 S
C568 C567 1.370 1_565 S
C568 C569 1.403 . S
C569 H555 0.929 . S
C569 C568 1.403 . S
C569 C570 1.385 1_565 S
C570 H556 0.931 . S
C570 C569 1.385 1_545 S
C570 C571 1.389 . S
C571 C570 1.389 . S
C571 C572 1.387 . S
C572 H557 0.930 . S
C572 C567 1.390 . S
C572 C571 1.387 . S
H573 C585 0.930 . S
H574 C587 0.930 . S
H575 C588 0.930 . S
H576 C592 0.959 . S
H577 C592 0.959 . S
H578 C592 0.961 . S
H579 C593 0.960 . S
H580 C593 0.961 . S
H581 C593 0.959 . S
H582 C596 0.929 . S
H583 C597 0.931 . S
H584 C599 0.930 . S
C585 H573 0.930 . S
C585 C586 1.399 . S
C585 C590 1.399 . S
C586 C585 1.399 . S
C586 C587 1.376 . S
C587 H574 0.930 . S
C587 C586 1.376 . S
C587 C588 1.388 . S
C588 H575 0.930 . S
C588 C587 1.388 . S
C588 C589 1.390 . S
C589 C588 1.390 . S
C589 C590 1.394 . S
C589 C595 1.465 . S
C590 C585 1.399 . S
C590 C589 1.394 . S
C590 C591 1.516 . S
C591 C590 1.516 . S
C591 C592 1.502 . S
C591 C593 1.561 . S
C591 C594 1.526 . S
C592 H576 0.959 . S
C592 H577 0.959 . S
C592 H578 0.961 . S
C592 C591 1.502 . S
C593 H579 0.960 . S
C593 H580 0.961 . S
C593 H581 0.959 . S
C593 C591 1.561 . S
C594 C591 1.526 . S
C594 C595 1.396 . S
C594 C599 1.390 . S
C595 C589 1.465 . S
C595 C594 1.396 . S
C595 C596 1.399 . S
C596 H582 0.929 . S
C596 C595 1.399 . S
C596 C597 1.385 . S
C597 H583 0.931 . S
C597 C596 1.385 . S
C597 C598 1.389 . S
C598 C597 1.389 . S
C598 C599 1.387 . S
C599 H584 0.930 . S
C599 C594 1.390 . S
C599 C598 1.387 . S
H600 C612 0.930 . S
H601 C614 0.930 . S
H602 C615 0.930 . S
H603 C619 0.959 . S
H604 C619 0.959 1_655 S
H605 C619 0.961 . S
H606 C620 0.960 . S
H607 C620 0.961 . S
H608 C620 0.959 . S
H609 C623 0.929 . S
H610 C624 0.931 . S
H611 C626 0.930 . S
C612 H600 0.930 . S
C612 C613 1.399 . S
C612 C617 1.399 . S
C613 C612 1.399 . S
C613 C614 1.376 . S
C614 H601 0.930 . S
C614 C613 1.376 . S
C614 C615 1.388 . S
C615 H602 0.930 . S
C615 C614 1.388 . S
C615 C616 1.390 . S
C616 C615 1.390 . S
C616 C617 1.394 . S
C616 C622 1.465 1_455 S
C617 C612 1.399 . S
C617 C616 1.394 . S
C617 C618 1.516 1_455 S
C618 C617 1.516 1_655 S
C618 C619 1.502 1_655 S
C618 C620 1.561 . S
C618 C621 1.526 . S
C619 H603 0.959 . S
C619 H604 0.959 1_455 S
C619 H605 0.961 . S
C619 C618 1.502 1_455 S
C620 H606 0.960 . S
C620 H607 0.961 . S
C620 H608 0.959 . S
C620 C618 1.561 . S
C621 C618 1.526 . S
C621 C622 1.396 . S
C621 C626 1.390 . S
C622 C616 1.465 1_655 S
C622 C621 1.396 . S
C622 C623 1.399 . S
C623 H609 0.929 . S
C623 C622 1.399 . S
C623 C624 1.385 . S
C624 H610 0.931 . S
C624 C623 1.385 . S
C624 C625 1.389 . S
C625 C624 1.389 . S
C625 C626 1.387 . S
C626 H611 0.930 . S
C626 C621 1.390 . S
C626 C625 1.387 . S
H627 C639 0.930 . S
H628 C641 0.930 . S
H629 C642 0.930 . S
H630 C646 0.959 . S
H631 C646 0.959 . S
H632 C646 0.961 . S
H633 C647 0.960 . S
H634 C647 0.961 . S
H635 C647 0.959 . S
H636 C650 0.929 . S
H637 C651 0.931 . S
H638 C653 0.930 . S
C639 H627 0.930 . S
C639 C640 1.399 . S
C639 C644 1.399 . S
C640 C639 1.399 . S
C640 C641 1.376 . S
C641 H628 0.930 . S
C641 C640 1.376 . S
C641 C642 1.388 . S
C642 H629 0.930 . S
C642 C641 1.388 . S
C642 C643 1.390 . S
C643 C642 1.390 . S
C643 C644 1.394 . S
C643 C649 1.440 1_565 S
C644 C639 1.399 . S
C644 C643 1.394 . S
C644 C645 1.516 1_565 S
C645 C644 1.516 1_545 S
C645 C646 1.502 . S
C645 C647 1.561 . S
C645 C648 1.526 . S
C646 H630 0.959 . S
C646 H631 0.959 . S
C646 H632 0.961 . S
C646 C645 1.502 . S
C647 H633 0.960 . S
C647 H634 0.961 . S
C647 H635 0.959 . S
C647 C645 1.561 . S
C648 C645 1.526 . S
C648 C649 1.422 . S
C648 C653 1.390 . S
C649 C643 1.440 1_545 S
C649 C648 1.422 . S
C649 C650 1.402 1_545 S
C650 H636 0.929 . S
C650 C649 1.402 1_565 S
C650 C651 1.385 1_565 S
C651 H637 0.931 . S
C651 C650 1.385 1_545 S
C651 C652 1.389 . S
C652 C651 1.389 . S
C652 C653 1.387 . S
C653 H638 0.930 . S
C653 C648 1.390 . S
C653 C652 1.387 . S
H654 C666 0.930 . S
H655 C668 0.930 . S
H656 C669 0.930 . S
H657 C673 0.959 . S
H658 C673 0.959 . S
H659 C673 0.961 . S
H660 C674 0.960 . S
H661 C674 0.961 . S
H662 C674 0.959 . S
H663 C677 0.929 . S
H664 C678 0.931 . S
H665 C680 0.930 . S
C666 H654 0.930 . S
C666 C667 1.399 . S
C666 C671 1.399 . S
C667 C666 1.399 . S
C667 C668 1.376 . S
C668 H655 0.930 . S
C668 C667 1.376 . S
C668 C669 1.388 . S
C669 H656 0.930 . S
C669 C668 1.388 . S
C669 C670 1.390 . S
C670 C669 1.390 . S
C670 C671 1.394 . S
C670 C676 1.465 . S
C671 C666 1.399 . S
C671 C670 1.394 . S
C671 C672 1.516 . S
C672 C671 1.516 . S
C672 C673 1.502 . S
C672 C674 1.561 . S
C672 C675 1.526 . S
C673 H657 0.959 . S
C673 H658 0.959 . S
C673 H659 0.961 . S
C673 C672 1.502 . S
C674 H660 0.960 . S
C674 H661 0.961 . S
C674 H662 0.959 . S
C674 C672 1.561 . S
C675 C672 1.526 . S
C675 C676 1.396 . S
C675 C680 1.390 . S
C676 C670 1.465 . S
C676 C675 1.396 . S
C676 C677 1.399 . S
C677 H663 0.929 . S
C677 C676 1.399 . S
C677 C678 1.385 . S
C678 H664 0.931 . S
C678 C677 1.385 . S
C678 C679 1.389 . S
C679 C678 1.389 . S
C679 C680 1.387 . S
C680 H665 0.930 . S
C680 C675 1.390 . S
C680 C679 1.387 . S
H681 C693 0.930 . S
H682 C695 0.930 . S
H683 C696 0.930 . S
H684 C700 0.959 . S
H685 C700 0.959 . S
H686 C700 0.961 . S
H687 C701 0.960 . S
H688 C701 0.961 . S
H689 C701 0.959 . S
H690 C704 0.929 . S
H691 C705 0.931 . S
H692 C707 0.930 . S
C693 H681 0.930 . S
C693 C694 1.399 . S
C693 C698 1.399 . S
C694 C693 1.399 . S
C694 C695 1.376 . S
C695 H682 0.930 . S
C695 C694 1.376 . S
C695 C696 1.388 . S
C696 H683 0.930 . S
C696 C695 1.388 . S
C696 C697 1.390 . S
C697 C696 1.390 . S
C697 C698 1.394 . S
C697 C703 1.465 . S
C698 C693 1.399 . S
C698 C697 1.394 . S
C698 C699 1.516 . S
C699 C698 1.516 . S
C699 C700 1.502 . S
C699 C701 1.561 . S
C699 C702 1.526 . S
C700 H684 0.959 . S
C700 H685 0.959 . S
C700 H686 0.961 . S
C700 C699 1.502 . S
C701 H687 0.960 . S
C701 H688 0.961 . S
C701 H689 0.959 . S
C701 C699 1.561 . S
C702 C699 1.526 . S
C702 C703 1.396 . S
C702 C707 1.390 . S
C703 C697 1.465 . S
C703 C702 1.396 . S
C703 C704 1.399 . S
C704 H690 0.929 . S
C704 C703 1.399 . S
C704 C705 1.385 . S
C705 H691 0.931 . S
C705 C704 1.385 . S
C705 C706 1.389 . S
C706 C705 1.389 . S
C706 C707 1.387 . S
C707 H692 0.930 . S
C707 C702 1.390 . S
C707 C706 1.387 . S
H708 C720 0.930 . S
H709 C722 0.930 . S
H710 C723 0.930 . S
H711 C727 0.959 . S
H712 C727 0.959 . S
H713 C727 0.961 . S
H714 C728 0.960 . S
H715 C728 0.961 . S
H716 C728 0.959 . S
H717 C731 0.929 . S
H718 C732 0.931 . S
H719 C734 0.930 . S
C720 H708 0.930 . S
C720 C721 1.399 . S
C720 C725 1.399 . S
C721 C720 1.399 . S
C721 C722 1.376 1_556 S
C722 H709 0.930 . S
C722 C721 1.376 1_554 S
C722 C723 1.388 . S
C723 H710 0.930 . S
C723 C722 1.388 . S
C723 C724 1.390 1_554 S
C724 C723 1.390 1_556 S
C724 C725 1.394 . S
C724 C730 1.465 . S
C725 C720 1.399 . S
C725 C724 1.394 . S
C725 C726 1.516 . S
C726 C725 1.516 . S
C726 C727 1.502 . S
C726 C728 1.561 . S
C726 C729 1.526 . S
C727 H711 0.959 . S
C727 H712 0.959 . S
C727 H713 0.961 . S
C727 C726 1.502 . S
C728 H714 0.960 . S
C728 H715 0.961 . S
C728 H716 0.959 . S
C728 C726 1.561 . S
C729 C726 1.526 . S
C729 C730 1.396 . S
C729 C734 1.390 . S
C730 C724 1.465 . S
C730 C729 1.396 . S
C730 C731 1.399 . S
C731 H717 0.929 . S
C731 C730 1.399 . S
C731 C732 1.385 . S
C732 H718 0.931 . S
C732 C731 1.385 . S
C732 C733 1.389 . S
C733 C732 1.389 . S
C733 C734 1.387 . S
C734 H719 0.930 . S
C734 C729 1.390 . S
C734 C733 1.387 . S
H735 C747 0.930 . S
H736 C749 0.930 . S
H737 C750 0.930 . S
H738 C754 0.959 . S
H739 C754 0.959 . S
H740 C754 0.961 . S
H741 C755 0.960 . S
H742 C755 0.961 . S
H743 C755 0.959 . S
H744 C758 0.929 . S
H745 C759 0.931 1_556 S
H746 C761 0.930 . S
C747 H735 0.930 . S
C747 C748 1.399 . S
C747 C752 1.399 . S
C748 C747 1.399 . S
C748 C749 1.376 . S
C749 H736 0.930 . S
C749 C748 1.376 . S
C749 C750 1.388 . S
C750 H737 0.930 . S
C750 C749 1.388 . S
C750 C751 1.390 . S
C751 C750 1.390 . S
C751 C752 1.394 . S
C751 C757 1.465 . S
C752 C747 1.399 . S
C752 C751 1.394 . S
C752 C753 1.516 . S
C753 C752 1.516 . S
C753 C754 1.502 . S
C753 C755 1.561 . S
C753 C756 1.526 . S
C754 H738 0.959 . S
C754 H739 0.959 . S
C754 H740 0.961 . S
C754 C753 1.502 . S
C755 H741 0.960 . S
C755 H742 0.961 . S
C755 H743 0.959 . S
C755 C753 1.561 . S
C756 C753 1.526 . S
C756 C757 1.396 . S
C756 C761 1.390 . S
C757 C751 1.465 . S
C757 C756 1.396 . S
C757 C758 1.399 . S
C758 H744 0.929 . S
C758 C757 1.399 . S
C758 C759 1.385 . S
C759 H745 0.931 1_554 S
C759 C758 1.385 . S
C759 C760 1.389 . S
C760 C759 1.389 . S
C760 C761 1.387 . S
C761 H746 0.930 . S
C761 C756 1.390 . S
C761 C760 1.387 . S
H762 C774 0.930 . S
H763 C776 0.930 . S
H764 C777 0.930 . S
H765 C781 0.959 . S
H766 C781 0.959 . S
H767 C781 0.961 . S
H768 C782 0.960 . S
H769 C782 0.961 . S
H770 C782 0.959 . S
H771 C785 0.929 . S
H772 C786 0.931 . S
H773 C788 0.930 . S
C774 H762 0.930 . S
C774 C775 1.399 . S
C774 C779 1.399 . S
C775 C774 1.399 . S
C775 C776 1.376 . S
C776 H763 0.930 . S
C776 C775 1.376 . S
C776 C777 1.388 . S
C777 H764 0.930 . S
C777 C776 1.388 . S
C777 C778 1.390 . S
C778 C777 1.390 . S
C778 C779 1.394 . S
C778 C784 1.465 . S
C779 C774 1.399 . S
C779 C778 1.394 . S
C779 C780 1.516 . S
C780 C779 1.516 . S
C780 C781 1.502 . S
C780 C782 1.561 . S
C780 C783 1.526 . S
C781 H765 0.959 . S
C781 H766 0.959 . S
C781 H767 0.961 . S
C781 C780 1.502 . S
C782 H768 0.960 . S
C782 H769 0.961 . S
C782 H770 0.959 . S
C782 C780 1.561 . S
C783 C780 1.526 . S
C783 C784 1.396 . S
C783 C788 1.390 . S
C784 C778 1.465 . S
C784 C783 1.396 . S
C784 C785 1.399 . S
C785 H771 0.929 . S
C785 C784 1.399 . S
C785 C786 1.385 . S
C786 H772 0.931 . S
C786 C785 1.385 . S
C786 C787 1.389 . S
C787 C786 1.389 . S
C787 C788 1.387 . S
C788 H773 0.930 . S
C788 C783 1.390 . S
C788 C787 1.387 . S
H789 C801 0.930 . S
H790 C803 0.930 . S
H791 C804 0.930 . S
H792 C808 0.959 . S
H793 C808 0.959 . S
H794 C808 0.961 . S
H795 C809 0.960 . S
H796 C809 0.961 . S
H797 C809 0.959 . S
H798 C812 0.929 . S
H799 C813 0.931 . S
H800 C815 0.930 . S
C801 H789 0.930 . S
C801 C802 1.399 . S
C801 C806 1.399 . S
C802 C801 1.399 . S
C802 C803 1.376 . S
C803 H790 0.930 . S
C803 C802 1.376 . S
C803 C804 1.388 . S
C804 H791 0.930 . S
C804 C803 1.388 . S
C804 C805 1.390 . S
C805 C804 1.390 . S
C805 C806 1.394 . S
C805 C811 1.465 . S
C806 C801 1.399 . S
C806 C805 1.394 . S
C806 C807 1.516 . S
C807 C806 1.516 . S
C807 C808 1.502 . S
C807 C809 1.561 . S
C807 C810 1.526 . S
C808 H792 0.959 . S
C808 H793 0.959 . S
C808 H794 0.961 . S
C808 C807 1.502 . S
C809 H795 0.960 . S
C809 H796 0.961 . S
C809 H797 0.959 . S
C809 C807 1.561 . S
C810 C807 1.526 . S
C810 C811 1.396 . S
C810 C815 1.390 . S
C811 C805 1.465 . S
C811 C810 1.396 . S
C811 C812 1.399 . S
C812 H798 0.929 . S
C812 C811 1.399 . S
C812 C813 1.385 . S
C813 H799 0.931 . S
C813 C812 1.385 . S
C813 C814 1.389 . S
C814 C813 1.389 . S
C814 C815 1.387 . S
C815 H800 0.930 . S
C815 C810 1.390 . S
C815 C814 1.387 . S
C181 C135 1.615 1_554 S
C193 C9 1.610 . S
C208 C23 1.602 . S
C220 C149 1.595 . S
C235 C163 1.568 . S
C247 C37 1.571 . S
C262 C93 1.623 . S
C274 C51 1.618 . S
C289 C107 1.607 . S
C301 C65 1.601 1_556 S
C316 C121 1.618 . S
C328 C79 1.622 . S
C343 C91 1.703 . S
C355 C7 1.633 . S
C370 C21 1.605 . S
C382 C105 1.675 . S
C397 C119 1.652 . S
C409 C35 1.607 . S
C424 C49 1.604 . S
C436 C133 1.669 . S
C451 C147 1.605 . S
C463 C63 1.656 . S
C478 C77 1.661 . S
C490 C161 1.605 . S
C505 C134 1.562 . S
C517 C8 1.543 . S
C532 C148 1.536 1_556 S
C544 C22 1.554 . S
C559 C162 1.540 . S
C571 C36 1.562 . S
C586 C50 1.562 1_554 S
C598 C92 1.548 . S
C613 C106 1.557 . S
C625 C64 1.556 . S
C640 C78 1.545 . S
C652 C120 1.562 . S
C667 C6 1.135 . S
C679 C118 1.128 . S
C694 C132 1.167 . S
C706 C20 1.183 . S
C721 C146 1.131 1_556 S
C733 C34 1.153 . S
C748 C160 1.182 . S
C760 C48 1.179 1_554 S
C775 C90 1.148 . S
C787 C62 1.129 . S
C802 C104 1.183 . S
C814 C76 1.177 . S
