# Generated by pormake.
# Topology snz, (6)-cn, num edge types: 1
# Building blocks:
#     Node 0, Type 0, BuildingBlock: BETDIP_clean_sbu_0, # of connection points: 6
#     Node 1, Type 0, BuildingBlock: BETDIP_clean_sbu_0, # of connection points: 6
#     Node 2, Type 0, BuildingBlock: BETDIP_clean_sbu_0, # of connection points: 6
#     Node 3, Type 0, BuildingBlock: BETDIP_clean_sbu_0, # of connection points: 6
#     Node 4, Type 0, BuildingBlock: BETDIP_clean_sbu_0, # of connection points: 6
#     Node 5, Type 0, BuildingBlock: BETDIP_clean_sbu_0, # of connection points: 6
#     Node 6, Type 0, BuildingBlock: BETDIP_clean_sbu_0, # of connection points: 6
#     Node 7, Type 0, BuildingBlock: BETDIP_clean_sbu_0, # of connection points: 6
#     Node 8, Type 0, BuildingBlock: BETDIP_clean_sbu_0, # of connection points: 6
#     Edge 9, Type (0, 0), BuildingBlock: ZUJKAS_clean_linker_0, # of connection points: 2
#     Edge 10, Type (0, 0), BuildingBlock: ZUJKAS_clean_linker_0, # of connection points: 2
#     Edge 11, Type (0, 0), BuildingBlock: ZUJKAS_clean_linker_0, # of connection points: 2
#     Edge 12, Type (0, 0), BuildingBlock: ZUJKAS_clean_linker_0, # of connection points: 2
#     Edge 13, Type (0, 0), BuildingBlock: ZUJKAS_clean_linker_0, # of connection points: 2
#     Edge 14, Type (0, 0), BuildingBlock: ZUJKAS_clean_linker_0, # of connection points: 2
#     Edge 15, Type (0, 0), BuildingBlock: ZUJKAS_clean_linker_0, # of connection points: 2
#     Edge 16, Type (0, 0), BuildingBlock: ZUJKAS_clean_linker_0, # of connection points: 2
#     Edge 17, Type (0, 0), BuildingBlock: ZUJKAS_clean_linker_0, # of connection points: 2
#     Edge 18, Type (0, 0), BuildingBlock: ZUJKAS_clean_linker_0, # of connection points: 2
#     Edge 19, Type (0, 0), BuildingBlock: ZUJKAS_clean_linker_0, # of connection points: 2
#     Edge 20, Type (0, 0), BuildingBlock: ZUJKAS_clean_linker_0, # of connection points: 2
#     Edge 21, Type (0, 0), BuildingBlock: ZUJKAS_clean_linker_0, # of connection points: 2
#     Edge 22, Type (0, 0), BuildingBlock: ZUJKAS_clean_linker_0, # of connection points: 2
#     Edge 23, Type (0, 0), BuildingBlock: ZUJKAS_clean_linker_0, # of connection points: 2
#     Edge 24, Type (0, 0), BuildingBlock: ZUJKAS_clean_linker_0, # of connection points: 2
#     Edge 25, Type (0, 0), BuildingBlock: ZUJKAS_clean_linker_0, # of connection points: 2
#     Edge 26, Type (0, 0), BuildingBlock: ZUJKAS_clean_linker_0, # of connection points: 2
#     Edge 27, Type (0, 0), BuildingBlock: ZUJKAS_clean_linker_0, # of connection points: 2
#     Edge 28, Type (0, 0), BuildingBlock: ZUJKAS_clean_linker_0, # of connection points: 2
#     Edge 29, Type (0, 0), BuildingBlock: ZUJKAS_clean_linker_0, # of connection points: 2
#     Edge 30, Type (0, 0), BuildingBlock: ZUJKAS_clean_linker_0, # of connection points: 2
#     Edge 31, Type (0, 0), BuildingBlock: ZUJKAS_clean_linker_0, # of connection points: 2
#     Edge 32, Type (0, 0), BuildingBlock: ZUJKAS_clean_linker_0, # of connection points: 2
#     Edge 33, Type (0, 0), BuildingBlock: ZUJKAS_clean_linker_0, # of connection points: 2
#     Edge 34, Type (0, 0), BuildingBlock: ZUJKAS_clean_linker_0, # of connection points: 2
#     Edge 35, Type (0, 0), BuildingBlock: ZUJKAS_clean_linker_0, # of connection points: 2
# Relax obj value: 0.147
# Max RMSD: 0.224
# Mean RMSD: 0.193
data_MOF--net-snz--node1-BETDIP_clean_sbu_0--edge1-ZUJKAS_clean_linker_0
_symmetry_space_group_name_H-M    P1
_symmetry_Int_Tables_number       1
_symmetry_cell_setting            triclinic
loop_
_symmetry_equiv_pos_as_xyz
'x, y, z'
_cell_length_a     82.305968
_cell_length_b     82.171691
_cell_length_c     18.75444
_cell_angle_alpha  89.932527
_cell_angle_beta   90.048212
_cell_angle_gamma 119.99211
loop_
_atom_site_label
_atom_site_type_symbol
_atom_site_fract_x
_atom_site_fract_y
_atom_site_fract_z
_atom_type_partial_charge
Tb0 Tb 0.18578 0.42908 0.02602 0.0
Tb1 Tb 0.14978 0.4294 0.99341 0.0
C2 C 0.21119 0.42499 0.08487 0.0
C3 C 0.2227 0.41566 0.09197 0.0
C4 C 0.2235 0.40814 0.15837 0.0
C5 C 0.23677 0.40251 0.17163 0.0
C6 C 0.24974 0.40428 0.11885 0.0
C7 C 0.24844 0.41116 0.05135 0.0
C8 C 0.23517 0.41683 0.03816 0.0
C9 C 0.18115 0.43492 0.89064 0.0
C10 C 0.14758 0.39028 0.9832 0.0
C11 C 0.12543 0.43577 0.93963 0.0
C12 C 0.12169 0.45147 0.93169 0.0
C13 C 0.11169 0.45187 0.87186 0.0
C14 C 0.10737 0.4662 0.86349 0.0
C15 C 0.11292 0.48045 0.915 0.0
C16 C 0.12318 0.48014 0.97469 0.0
C17 C 0.12759 0.46581 0.98283 0.0
C18 C 0.15469 0.42318 0.12816 0.0
C19 C 0.18623 0.46798 0.03296 0.0
O20 O 0.19368 0.4163 0.10649 0.0
O21 O 0.21392 0.43583 0.02963 0.0
O22 O 0.16873 0.42424 0.93393 0.0
O23 O 0.19736 0.44146 0.92122 0.0
O24 O 0.16497 0.39834 0.01051 0.0
O25 O 0.13974 0.4004 0.96579 0.0
O26 O 0.1398 0.43723 0.90419 0.0
O27 O 0.12425 0.42907 0.004 0.0
O28 O 0.16698 0.43429 0.08537 0.0
O29 O 0.13845 0.41606 0.09723 0.0
O30 O 0.1701 0.4595 -0.00177 0.0
O31 O 0.19386 0.45815 0.05804 0.0
H32 H 0.21438 0.4074 0.20143 0.0
H33 H 0.23736 0.39757 0.22457 0.0
H34 H 0.25791 0.41247 0.0088 0.0
H35 H 0.23511 0.42271 0.98652 0.0
H36 H 0.10702 0.44095 0.8318 0.0
H37 H 0.09927 0.46585 0.81737 0.0
H38 H 0.12785 0.49101 0.01491 0.0
H39 H 0.13548 0.46586 0.02918 0.0
Tb40 Tb 0.74682 0.59932 0.03127 0.0
Tb41 Tb 0.74679 0.56308 -7e-05 0.0
C42 C 0.75092 0.62896 0.0892 0.0
C43 C 0.76028 0.64982 0.09615 0.0
C44 C 0.76787 0.65815 0.16241 0.0
C45 C 0.77356 0.67708 0.17553 0.0
C46 C 0.77178 0.68833 0.12275 0.0
C47 C 0.76479 0.68013 0.05543 0.0
C48 C 0.75907 0.66115 0.04238 0.0
C49 C 0.74066 0.5885 0.89641 0.0
C50 C 0.7856 0.60009 0.98652 0.0
C51 C 0.73992 0.53189 0.94911 0.0
C52 C 0.72414 0.51216 0.94597 0.0
C53 C 0.71171 0.50594 0.88771 0.0
C54 C 0.69779 0.48702 0.88153 0.0
C55 C 0.69601 0.47379 0.93319 0.0
C56 C 0.70826 0.4801 0.99208 0.0
C57 C 0.72217 0.49901 -0.00173 0.0
C58 C 0.75315 0.57449 0.13426 0.0
C59 C 0.70813 0.56078 0.03969 0.0
O60 O 0.75946 0.62004 0.1116 0.0
O61 O 0.74023 0.62088 0.03368 0.0
O62 O 0.75154 0.58697 0.93933 0.0
O63 O 0.73411 0.59817 0.92699 0.0
O64 O 0.77753 0.60937 0.01437 0.0
O65 O 0.77552 0.5821 0.9696 0.0
O66 O 0.738 0.54451 0.91317 0.0
O67 O 0.74795 0.53826 0.0111 0.0
O68 O 0.7419 0.57547 0.09164 0.0
O69 O 0.76037 0.56546 0.10337 0.0
O70 O 0.71674 0.55312 0.00603 0.0
O71 O 0.71776 0.57839 0.06339 0.0
H72 H 0.76864 0.64975 0.20547 0.0
H73 H 0.77858 0.68262 0.22835 0.0
H74 H 0.76347 0.6883 0.01286 0.0
H75 H 0.75312 0.65521 0.99086 0.0
H76 H 0.71297 0.5156 0.84586 0.0
H77 H 0.68882 0.48268 0.83492 0.0
H78 H 0.70717 0.47038 0.03339 0.0
H79 H 0.73159 0.50325 0.04355 0.0
Tb80 Tb 0.57608 0.99 0.03176 0.0
Tb81 Tb 0.61215 0.02641 8e-05 0.0
C82 C 0.54665 0.96434 0.09018 0.0
C83 C 0.52581 0.95276 0.09679 0.0
C84 C 0.51736 0.95218 0.16256 0.0
C85 C 0.49845 0.93892 0.17553 0.0
C86 C 0.48736 0.92572 0.12309 0.0
C87 C 0.49568 0.92678 0.05619 0.0
C88 C 0.51464 0.94006 0.04329 0.0
C89 C 0.5867 0.9949 0.89674 0.0
C90 C 0.57503 0.02814 0.99074 0.0
C91 C 0.64294 0.05127 0.9485 0.0
C92 C 0.66214 0.05477 0.93557 0.0
C93 C 0.67185 0.06515 0.87528 0.0
C94 C 0.69048 0.06989 0.86357 0.0
C95 C 0.69994 0.06445 0.9122 0.0
C96 C 0.68994 0.05349 0.97163 0.0
C97 C 0.67121 0.04868 0.98319 0.0
C98 C 0.60079 0.02116 0.13444 0.0
C99 C 0.61455 0.99002 0.03766 0.0
O100 O 0.55537 0.98186 0.11196 0.0
O101 O 0.55485 0.96172 0.0351 0.0
O102 O 0.5882 1.00725 0.93996 0.0
O103 O 0.57725 0.97861 0.92721 0.0
O104 O 0.56578 1.01041 0.01495 0.0
O105 O 0.59315 0.03666 0.97556 0.0
O106 O 0.62949 0.03808 0.91032 0.0
O107 O 0.63796 0.05106 0.01492 0.0
O108 O 0.59991 1.00899 0.09169 0.0
O109 O 0.60963 0.03746 0.10363 0.0
O110 O 0.62186 1.00597 0.00166 0.0
O111 O 0.59733 0.98245 0.06459 0.0
H112 H 0.52563 0.96148 0.20542 0.0
H113 H 0.49281 0.93853 0.22803 0.0
H114 H 0.48763 0.91715 0.01387 0.0
H115 H 0.52067 0.93993 0.99215 0.0
H116 H 0.66508 0.06985 0.83755 0.0
H117 H 0.6975 0.07792 0.81632 0.0
H118 H 0.69674 0.04908 0.01035 0.0
H119 H 0.66395 0.04053 0.02994 0.0
Tb120 Tb 0.85538 0.91622 0.36979 0.0
Tb121 Tb 0.81931 0.91633 0.33699 0.0
C122 C 0.88012 0.91046 0.4238 0.0
C123 C 0.88494 0.89549 0.42984 0.0
C124 C 0.89811 0.8973 0.48116 0.0
C125 C 0.90346 0.88369 0.48737 0.0
C126 C 0.89575 0.8679 0.44223 0.0
C127 C 0.88222 0.86592 0.39152 0.0
C128 C 0.87689 0.87964 0.38527 0.0
C129 C 0.8507 0.92269 0.23499 0.0
C130 C 0.81934 0.87766 0.32828 0.0
C131 C 0.7935 0.92009 0.27962 0.0
C132 C 0.78112 0.92858 0.27727 0.0
C133 C 0.78655 0.9456 0.24138 0.0
C134 C 0.77353 0.95161 0.22816 0.0
C135 C 0.75462 0.94068 0.2497 0.0
C136 C 0.74942 0.92394 0.28742 0.0
C137 C 0.76243 0.918 0.30085 0.0
C138 C 0.82393 0.91038 0.47255 0.0
C139 C 0.85721 0.95516 0.38111 0.0
O140 O 0.86507 0.90771 0.45787 0.0
O141 O 0.88148 0.91772 0.36042 0.0
O142 O 0.8383 0.91148 0.27719 0.0
O143 O 0.86686 0.92973 0.26642 0.0
O144 O 0.8353 0.88609 0.364 0.0
O145 O 0.81179 0.88753 0.3028 0.0
O146 O 0.81124 0.93006 0.26135 0.0
O147 O 0.79076 0.90803 0.33039 0.0
O148 O 0.83626 0.92113 0.42926 0.0
O149 O 0.80774 0.9039 0.44191 0.0
O150 O 0.83998 0.94712 0.35243 0.0
O151 O 0.86495 0.94501 0.39936 0.0
H152 H 0.90437 0.90937 0.51637 0.0
H153 H 0.91361 0.8855 0.52792 0.0
H154 H 0.87607 0.85401 0.35566 0.0
H155 H 0.86667 0.87799 0.34529 0.0
H156 H 0.80072 0.95401 0.22139 0.0
H157 H 0.77827 0.96473 0.2 0.0
H158 H 0.73504 0.91487 0.30402 0.0
H159 H 0.75756 0.9046 0.3271 0.0
Tb160 Tb 0.25896 0.78237 0.36624 0.0
Tb161 Tb 0.25907 0.74618 0.33394 0.0
C162 C 0.26495 0.81298 0.41993 0.0
C163 C 0.28021 0.83263 0.42784 0.0
C164 C 0.28038 0.84268 0.48837 0.0
C165 C 0.294 0.86159 0.49632 0.0
C166 C 0.30777 0.87098 0.44362 0.0
C167 C 0.30789 0.86068 0.38373 0.0
C168 C 0.29423 0.84166 0.37592 0.0
C169 C 0.25271 0.77121 0.23162 0.0
C170 C 0.29766 0.78486 0.32633 0.0
C171 C 0.25518 0.71671 0.27536 0.0
C172 C 0.24591 0.69585 0.26801 0.0
C173 C 0.23788 0.68753 0.20221 0.0
C174 C 0.23229 0.66866 0.1883 0.0
C175 C 0.23461 0.65746 0.23979 0.0
C176 C 0.24203 0.66564 0.30676 0.0
C177 C 0.24765 0.68457 0.32059 0.0
C178 C 0.26508 0.7569 0.46911 0.0
C179 C 0.22019 0.74511 0.37883 0.0
O180 O 0.26686 0.80027 0.4551 0.0
O181 O 0.25816 0.80737 0.35577 0.0
O182 O 0.26391 0.77009 0.27414 0.0
O183 O 0.24547 0.78021 0.26274 0.0
O184 O 0.28906 0.79241 0.36089 0.0
O185 O 0.288 0.76736 0.30154 0.0
O186 O 0.24652 0.72555 0.25337 0.0
O187 O 0.26589 0.72478 0.33085 0.0
O188 O 0.25423 0.75836 0.42586 0.0
O189 O 0.27174 0.74731 0.43856 0.0
O190 O 0.22834 0.73594 0.35079 0.0
O191 O 0.23016 0.76314 0.39539 0.0
H192 H 0.2698 0.83593 0.52937 0.0
H193 H 0.29369 0.86888 0.54392 0.0
H194 H 0.31821 0.86742 0.34194 0.0
H195 H 0.29445 0.83411 0.32893 0.0
H196 H 0.2367 0.69589 0.15999 0.0
H197 H 0.22693 0.66313 0.13577 0.0
H198 H 0.24378 0.6575 0.34838 0.0
H199 H 0.25395 0.6905 0.3717 0.0
Tb200 Tb 0.39295 0.31899 0.36054 0.0
Tb201 Tb 0.42904 0.35549 0.32871 0.0
C202 C 0.36206 0.29473 0.41346 0.0
C203 C 0.34244 0.29093 0.41909 0.0
C204 C 0.33564 0.2931 0.48502 0.0
C205 C 0.31683 0.28828 0.49292 0.0
C206 C 0.30427 0.28101 0.43518 0.0
C207 C 0.31116 0.2791 0.36887 0.0
C208 C 0.33 0.28399 0.3609 0.0
C209 C 0.40394 0.32422 0.22595 0.0
C210 C 0.3905 0.35552 0.3219 0.0
C211 C 0.45826 0.38125 0.26993 0.0
C212 C 0.47887 0.393 0.25828 0.0
C213 C 0.48549 0.39747 0.18792 0.0
C214 C 0.50417 0.41107 0.17363 0.0
C215 C 0.51687 0.4206 0.2294 0.0
C216 C 0.51047 0.41553 0.30012 0.0
C217 C 0.49164 0.40199 0.31444 0.0
C218 C 0.41825 0.35044 0.46358 0.0
C219 C 0.43018 0.31745 0.37039 0.0
O220 O 0.37489 0.3092 0.44896 0.0
O221 O 0.36803 0.29312 0.35057 0.0
O222 O 0.40512 0.33647 0.26899 0.0
O223 O 0.3949 0.30789 0.25647 0.0
O224 O 0.38287 0.3391 0.35487 0.0
O225 O 0.40805 0.36359 0.29795 0.0
O226 O 0.44906 0.36399 0.24555 0.0
O227 O 0.45097 0.38347 0.32859 0.0
O228 O 0.41692 0.33818 0.42024 0.0
O229 O 0.42763 0.36676 0.43325 0.0
O230 O 0.43935 0.33506 0.34495 0.0
O231 O 0.41213 0.30905 0.38679 0.0
H232 H 0.34479 0.29819 0.53109 0.0
H233 H 0.31201 0.28971 0.545 0.0
H234 H 0.30196 0.27376 0.32303 0.0
H235 H 0.3347 0.28206 0.30934 0.0
H236 H 0.47596 0.39094 0.14354 0.0
H237 H 0.5086 0.41434 0.11858 0.0
H238 H 0.51981 0.42259 0.34444 0.0
H239 H 0.48695 0.39904 0.3693 0.0
Tb240 Tb 0.52263 0.18969 0.68184 0.0
Tb241 Tb 0.48408 0.15657 0.67724 0.0
C242 C 0.55183 0.22161 0.68855 0.0
C243 C 0.56023 0.24002 0.72445 0.0
C244 C 0.5494 0.24771 0.74912 0.0
C245 C 0.55815 0.26598 0.77729 0.0
C246 C 0.57788 0.27684 0.78135 0.0
C247 C 0.58854 0.26882 0.75776 0.0
C248 C 0.57981 0.25064 0.72976 0.0
C249 C 0.52085 0.15705 0.70974 0.0
C250 C 0.4957 0.18047 0.81426 0.0
C251 C 0.45507 0.12454 0.66944 0.0
C252 C 0.44704 0.10596 0.63431 0.0
C253 C 0.45551 0.09478 0.63932 0.0
C254 C 0.44617 0.07622 0.61412 0.0
C255 C 0.42815 0.06845 0.58372 0.0
C256 C 0.42013 0.07999 0.57616 0.0
C257 C 0.42944 0.09847 0.60132 0.0
C258 C 0.48586 0.18923 0.64937 0.0
C259 C 0.51099 0.16584 0.54488 0.0
O260 O 0.53791 0.21741 0.64476 0.0
O261 O 0.54927 0.20719 0.72672 0.0
O262 O 0.50939 0.16209 0.7299 0.0
O263 O 0.53433 0.1709 0.67549 0.0
O264 O 0.50998 0.19362 0.77779 0.0
O265 O 0.48455 0.16366 0.78766 0.0
O266 O 0.46853 0.12903 0.71589 0.0
O267 O 0.45778 0.13885 0.63016 0.0
O268 O 0.49728 0.18414 0.62918 0.0
O269 O 0.47235 0.17533 0.68337 0.0
O270 O 0.49689 0.15262 0.58175 0.0
O271 O 0.52202 0.18271 0.57126 0.0
H272 H 0.53423 0.23973 0.74553 0.0
H273 H 0.54949 0.27161 0.79564 0.0
H274 H 0.60373 0.27679 0.75877 0.0
H275 H 0.58843 0.24502 0.71049 0.0
H276 H 0.46907 0.10014 0.6647 0.0
H277 H 0.45274 0.06773 0.62114 0.0
H278 H 0.40646 0.07463 0.5518 0.0
H279 H 0.42258 0.10677 0.59697 0.0
Tb280 Tb 0.98612 0.17511 0.68582 0.0
Tb281 Tb 1.01941 0.16985 0.67938 0.0
C282 C 0.95401 0.17183 0.69492 0.0
C283 C 0.93527 0.16068 0.72824 0.0
C284 C 0.92399 0.1412 0.71724 0.0
C285 C 0.90529 0.13161 0.74058 0.0
C286 C 0.89745 0.1413 0.77506 0.0
C287 C 0.90905 0.16061 0.78864 0.0
C288 C 0.92769 0.17016 0.76536 0.0
C289 C 1.0186 0.20599 0.71443 0.0
C290 C 0.99563 0.15711 0.81649 0.0
C291 C 0.05137 0.17274 0.67088 0.0
C292 C 0.0699 0.18324 0.63589 0.0
C293 C 0.07887 0.20273 0.62424 0.0
C294 C 0.09729 0.21244 0.59784 0.0
C295 C 0.10708 0.20284 0.58256 0.0
C296 C 0.09777 0.18325 0.59274 0.0
C297 C 0.07943 0.17361 0.61904 0.0
C298 C 0.98681 0.13901 0.6509 0.0
C299 C 1.00996 0.18791 0.54863 0.0
O300 O 0.9588 0.16369 0.64595 0.0
O301 O 0.9681 0.18282 0.73622 0.0
O302 O 1.01374 0.18941 0.73329 0.0
O303 O 1.00458 0.20566 0.68166 0.0
O304 O 0.9823 0.15779 0.77967 0.0
O305 O 1.01252 0.16321 0.78999 0.0
O306 O 0.04698 0.1818 0.71724 0.0
O307 O 0.03708 0.16132 0.63136 0.0
O308 O 0.99183 0.1556 0.63191 0.0
O309 O 1.00077 0.13928 0.68396 0.0
O310 O 1.02323 0.18699 0.58506 0.0
O311 O 0.99312 0.18198 0.57538 0.0
H312 H 0.9294 0.13348 0.68852 0.0
H313 H 0.89676 0.11677 0.72885 0.0
H314 H 0.90363 0.16847 0.81617 0.0
H315 H 0.93604 0.18517 0.77433 0.0
H316 H 0.07179 0.2105 0.63684 0.0
H317 H 0.10391 0.22748 0.58987 0.0
H318 H 0.10487 0.17538 0.58281 0.0
H319 H 0.07285 0.15861 0.62822 0.0
Tb320 Tb 1.00053 0.6538 0.68489 0.0
Tb321 Tb 1.00546 0.69214 0.6761 0.0
C322 C 1.00414 0.62518 0.69685 0.0
C323 C 1.01621 0.61855 0.72949 0.0
C324 C 0.03517 0.62619 0.71016 0.0
C325 C 0.04551 0.61794 0.73431 0.0
C326 C 0.03716 0.60191 0.77838 0.0
C327 C 1.01841 0.59476 0.79967 0.0
C328 C 1.00807 0.60295 0.7753 0.0
C329 C 0.96942 0.6551 0.71234 0.0
C330 C 1.01832 0.68168 0.81418 0.0
C331 C 1.00219 0.72097 0.66414 0.0
C332 C 0.99076 0.72817 0.62997 0.0
C333 C 0.97202 0.72168 0.64996 0.0
C334 C 0.96246 0.73066 0.62481 0.0
C335 C 0.97144 0.74638 0.5794 0.0
C336 C 0.9899 0.7523 0.5572 0.0
C337 C 0.99944 0.74335 0.58239 0.0
C338 C 0.03653 0.69069 0.64935 0.0
C339 C 0.98752 0.66421 0.54694 0.0
O340 O 1.0112 0.63729 0.64451 0.0
O341 O 0.99379 0.62881 0.73957 0.0
O342 O 0.98593 0.66702 0.73088 0.0
O343 O 0.96997 0.64138 0.68075 0.0
O344 O 1.01801 0.66779 0.77768 0.0
O345 O 1.01194 0.6922 0.78709 0.0
O346 O 0.99441 0.70849 0.71493 0.0
O347 O 1.01294 0.71751 0.62299 0.0
O348 O 1.02004 0.67893 0.63023 0.0
O349 O 0.03602 0.70438 0.68138 0.0
O350 O 0.98803 0.67824 0.58314 0.0
O351 O 0.99379 0.65361 0.57412 0.0
H352 H 0.04189 0.63822 0.67486 0.0
H353 H 0.05998 0.62395 0.71764 0.0
H354 H 1.01144 0.58232 0.83281 0.0
H355 H 0.99344 0.59666 0.79038 0.0
H356 H 0.96493 0.71007 0.68693 0.0
H357 H 0.94832 0.72579 0.64346 0.0
H358 H 0.99715 0.76411 0.52127 0.0
H359 H 1.01389 0.74873 0.56639 0.0
H360 H 0.20744 0.45405 0.7879 0.0
H361 H 0.20286 0.45221 0.65819 0.0
H362 H 0.14391 0.413 0.68753 0.0
H363 H 0.14839 0.41488 0.81689 0.0
H364 H 0.18944 0.42041 0.57167 0.0
H365 H 0.14334 0.45153 0.5514 0.0
H366 H 0.15683 0.45372 0.63043 0.0
H367 H 0.1352 0.43234 0.61331 0.0
C368 C 0.19348 0.4452 0.76663 0.0
C369 C 0.17826 0.43473 0.81257 0.0
C370 C 0.19088 0.44412 0.69254 0.0
C371 C 0.173 0.43266 0.66301 0.0
C372 C 0.15776 0.42225 0.70895 0.0
H373 H 0.12836 0.40413 0.23096 0.0
H374 H 0.13305 0.40572 0.36056 0.0
C375 C 0.16035 0.42331 0.78295 0.0
C376 C 0.17039 0.43099 0.58421 0.0
H377 H 0.14662 0.43712 0.44692 0.0
C378 C 0.18016 0.42416 0.54432 0.0
C379 C 0.15821 0.4358 0.54852 0.0
C380 C 0.14791 0.44392 0.58791 0.0
C381 C 0.17783 0.4217 0.47003 0.0
C382 C 0.16565 0.42652 0.43433 0.0
C383 C 0.15589 0.43335 0.47424 0.0
C384 C 0.16301 0.42485 0.35552 0.0
C385 C 0.18811 0.41354 0.43073 0.0
C386 C 0.17827 0.43505 0.30944 0.0
C387 C 0.17562 0.4341 0.23548 0.0
C388 C 0.15763 0.42305 0.20607 0.0
C389 C 0.14239 0.41271 0.25209 0.0
C390 C 0.14505 0.41366 0.32612 0.0
H391 H 0.1925 0.40578 0.46723 0.0
H392 H 0.17925 0.40386 0.38779 0.0
H393 H 0.20093 0.42511 0.40593 0.0
H394 H 0.19219 0.44408 0.33072 0.0
H395 H 0.18762 0.44233 0.20141 0.0
H396 H 0.76038 0.57548 0.82227 0.0
H397 H 0.76248 0.57335 0.69265 0.0
H398 H 0.72358 0.59356 0.66443 0.0
H399 H 0.72155 0.59586 0.79416 0.0
H400 H 0.73477 0.55315 0.59056 0.0
H401 H 0.76838 0.62992 0.54196 0.0
H402 H 0.76668 0.62016 0.62976 0.0
H403 H 0.74669 0.62005 0.59045 0.0
C404 C 0.75218 0.57935 0.78846 0.0
C405 C 0.74086 0.58591 0.81833 0.0
C406 C 0.75342 0.57816 0.71438 0.0
C407 C 0.74347 0.58363 0.66871 0.0
C408 C 0.73172 0.58967 0.69852 0.0
H409 H 0.73386 0.58805 0.20796 0.0
H410 H 0.73181 0.59031 0.33757 0.0
C411 C 0.73046 0.59085 0.77265 0.0
C412 C 0.74539 0.58298 0.58999 0.0
H413 H 0.75929 0.61031 0.43991 0.0
C414 C 0.7402 0.56565 0.55763 0.0
C415 C 0.75248 0.59931 0.54703 0.0
C416 C 0.75905 0.61845 0.57895 0.0
C417 C 0.74157 0.56414 0.48344 0.0
C418 C 0.74868 0.58048 0.44048 0.0
C419 C 0.75386 0.5978 0.47283 0.0
C420 C 0.75064 0.57982 0.36177 0.0
C421 C 0.73496 0.54499 0.45154 0.0
C422 C 0.76229 0.57365 0.3321 0.0
C423 C 0.7635 0.57236 0.25801 0.0
C424 C 0.75313 0.57731 0.21223 0.0
C425 C 0.74197 0.58408 0.24191 0.0
C426 C 0.74077 0.58537 0.31596 0.0
H427 H 0.72555 0.53354 0.48845 0.0
H428 H 0.72739 0.54331 0.4006 0.0
H429 H 0.74729 0.54333 0.44032 0.0
H430 H 0.77038 0.56972 0.36629 0.0
H431 H 0.77231 0.56721 0.23663 0.0
H432 H 0.58025 0.96873 0.79435 0.0
H433 H 0.58286 0.97328 0.66461 0.0
H434 H 0.60111 0.03201 0.69333 0.0
H435 H 0.59859 0.02757 0.82273 0.0
H436 H 0.56374 0.98603 0.57799 0.0
H437 H 0.6407 0.03354 0.5575 0.0
H438 H 0.62965 0.01987 0.63648 0.0
H439 H 0.62934 0.04125 0.61951 0.0
C440 C 0.58501 0.98265 0.77294 0.0
C441 C 0.58937 0.99782 0.8187 0.0
C442 C 0.58645 0.98522 0.69885 0.0
C443 C 0.59241 1.00303 0.66916 0.0
C444 C 0.59686 1.01822 0.71491 0.0
H445 H 0.60744 0.04737 0.23696 0.0
H446 H 0.60443 0.04268 0.36655 0.0
C447 C 0.59539 1.01565 0.78893 0.0
C448 C 0.59325 1.00559 0.59038 0.0
H449 H 0.62286 0.02973 0.45294 0.0
C450 C 0.57669 0.9955 0.55057 0.0
C451 C 0.61013 1.01802 0.55464 0.0
C452 C 0.62851 0.02868 0.59401 0.0
C453 C 0.57646 0.99776 0.47626 0.0
C454 C 0.59334 1.01019 0.4405 0.0
C455 C 0.60991 0.02026 0.48034 0.0
C456 C 0.59422 1.01279 0.3617 0.0
C457 C 0.55806 0.98714 0.43699 0.0
C458 C 0.58947 0.99756 0.31575 0.0
C459 C 0.59113 1.00021 0.24179 0.0
C460 C 0.59772 1.01817 0.21228 0.0
C461 C 0.60228 0.03336 0.25818 0.0
C462 C 0.60061 0.03071 0.3322 0.0
H463 H 0.5459 0.9825 0.4735 0.0
H464 H 0.557 0.99587 0.39403 0.0
H465 H 0.55708 0.97442 0.41222 0.0
H466 H 0.58488 0.98368 0.33714 0.0
H467 H 0.58762 0.98825 0.2078 0.0
H468 H 0.79759 0.89147 0.5753 0.0
H469 H 0.80208 0.89366 0.705 0.0
H470 H 0.86112 0.93249 0.67584 0.0
H471 H 0.85673 0.93027 0.54629 0.0
H472 H 0.85358 0.90464 0.77818 0.0
H473 H 0.81099 0.93874 0.82727 0.0
H474 H 0.79902 0.91703 0.77877 0.0
H475 H 0.81892 0.93699 0.7394 0.0
C476 C 0.81153 0.90041 0.59661 0.0
C477 C 0.82679 0.91073 0.55066 0.0
C478 C 0.81406 0.90175 0.67071 0.0
C479 C 0.83188 0.91351 0.70026 0.0
C480 C 0.84723 0.92342 0.65433 0.0
H481 H 0.87734 0.94163 0.13303 0.0
H482 H 0.87301 0.93993 0.00328 0.0
C483 C 0.84471 0.9221 0.58028 0.0
C484 C 0.83457 0.91547 0.77895 0.0
H485 H 0.82148 0.92954 0.92919 0.0
C486 C 0.84663 0.91016 0.81119 0.0
C487 C 0.82549 0.92267 0.82203 0.0
C488 C 0.81301 0.92935 0.79023 0.0
C489 C 0.84956 0.91149 0.88538 0.0
C490 C 0.84049 0.9187 0.92848 0.0
C491 C 0.82844 0.92403 0.8962 0.0
C492 C 0.84309 0.92055 0.00726 0.0
C493 C 0.86196 0.90469 0.91712 0.0
C494 C 0.82762 0.91084 0.05284 0.0
C495 C 0.83005 0.91193 0.12693 0.0
C496 C 0.84799 0.92282 0.15694 0.0
C497 C 0.86338 0.93303 0.11141 0.0
C498 C 0.86094 0.93195 0.03726 0.0
H499 H 0.86383 0.89519 0.88016 0.0
H500 H 0.87602 0.91695 0.92817 0.0
H501 H 0.85608 0.89714 0.96811 0.0
H502 H 0.8137 0.90208 0.03103 0.0
H503 H 0.81791 0.90396 0.16066 0.0
H504 H 0.24472 0.76926 0.54287 0.0
H505 H 0.24297 0.77199 0.67229 0.0
H506 H 0.28238 0.75246 0.70147 0.0
H507 H 0.28446 0.75005 0.57186 0.0
H508 H 0.23123 0.7439 0.77322 0.0
H509 H 0.30477 0.79908 0.82675 0.0
H510 H 0.29489 0.79403 0.73813 0.0
H511 H 0.30266 0.77925 0.77857 0.0
C512 C 0.25324 0.76582 0.57681 0.0
C513 C 0.26486 0.75958 0.54718 0.0
C514 C 0.25215 0.7673 0.65083 0.0
C515 C 0.26272 0.76266 0.6968 0.0
C516 C 0.27439 0.7565 0.66721 0.0
H517 H 0.27204 0.75773 0.15782 0.0
H518 H 0.27361 0.75486 0.02834 0.0
C519 C 0.2755 0.75504 0.59312 0.0
C520 C 0.26092 0.76357 0.77559 0.0
H521 H 0.28586 0.78365 0.92771 0.0
C522 C 0.24316 0.75267 0.80696 0.0
C523 C 0.27648 0.77497 0.81974 0.0
C524 C 0.29575 0.78764 0.78917 0.0
C525 C 0.24061 0.75261 0.88117 0.0
C526 C 0.25618 0.76399 0.92529 0.0
C527 C 0.27393 0.77488 0.89395 0.0
C528 C 0.2544 0.76487 0.00407 0.0
C529 C 0.22134 0.74003 0.91183 0.0
C530 C 0.24304 0.77142 0.03373 0.0
C531 C 0.24209 0.77303 0.10783 0.0
C532 C 0.25257 0.76823 0.15364 0.0
C533 C 0.26376 0.76148 0.12393 0.0
C534 C 0.26471 0.75989 0.04991 0.0
H535 H 0.21218 0.72872 0.87401 0.0
H536 H 0.22219 0.73347 0.96246 0.0
H537 H 0.2146 0.74853 0.92333 0.0
H538 H 0.23522 0.77567 -0.00048 0.0
H539 H 0.23344 0.77837 0.12916 0.0
H540 H 0.42508 0.37661 0.56632 0.0
H541 H 0.42291 0.37206 0.696 0.0
H542 H 0.40316 0.31303 0.66641 0.0
H543 H 0.40568 0.31758 0.53699 0.0
H544 H 0.39272 0.3493 0.78319 0.0
H545 H 0.44738 0.32877 0.80118 0.0
H546 H 0.44398 0.33925 0.7221 0.0
H547 H 0.42868 0.3147 0.7405 0.0
C548 C 0.42023 0.36266 0.58754 0.0
C549 C 0.41562 0.34747 0.54156 0.0
C550 C 0.41899 0.36008 0.6616 0.0
C551 C 0.41322 0.34228 0.69106 0.0
C552 C 0.40807 0.32698 0.64506 0.0
H553 H 0.39677 0.29795 0.12313 0.0
H554 H 0.39922 0.30259 0.99349 0.0
C555 C 0.40933 0.32956 0.57105 0.0
C556 C 0.41255 0.33973 0.76982 0.0
H557 H 0.43006 0.3255 0.90661 0.0
C558 C 0.40095 0.34418 0.81022 0.0
C559 C 0.42329 0.33304 0.80512 0.0
C560 C 0.43668 0.32882 0.76519 0.0
C561 C 0.39952 0.3418 0.88467 0.0
C562 C 0.41024 0.33508 0.91993 0.0
C563 C 0.42185 0.33063 0.87956 0.0
C564 C 0.40951 0.33249 -0.00136 0.0
C565 C 0.38619 0.34608 0.92471 0.0
C566 C 0.41493 0.34783 0.04472 0.0
C567 C 0.41354 0.3452 0.1187 0.0
C568 C 0.4068 0.3272 0.14805 0.0
C569 C 0.40196 0.31197 0.10201 0.0
C570 C 0.40335 0.3146 0.02797 0.0
H571 H 0.37562 0.34638 0.88871 0.0
H572 H 0.37874 0.33552 0.96728 0.0
H573 H 0.39426 0.36009 0.95016 0.0
H574 H 0.42013 0.36183 0.02343 0.0
H575 H 0.41746 0.35723 0.15285 0.0
H576 H 0.48474 0.13826 0.46021 0.0
H577 H 0.4829 0.14006 0.33099 0.0
H578 H 0.53826 0.18897 0.32734 0.0
H579 H 0.5402 0.18743 0.45671 0.0
H580 H 0.50896 0.19492 0.2805 0.0
H581 H 0.50652 0.13328 0.1479 0.0
H582 H 0.49148 0.12775 0.22427 0.0
H583 H 0.51648 0.14119 0.23558 0.0
C584 C 0.49684 0.14894 0.43172 0.0
C585 C 0.51243 0.16298 0.46846 0.0
C586 C 0.49577 0.14992 0.35784 0.0
C587 C 0.51039 0.16475 0.32025 0.0
C588 C 0.52683 0.1775 0.35595 0.0
H589 H 0.52181 0.20808 0.89935 0.0
H590 H 0.52337 0.20632 0.02869 0.0
C591 C 0.52789 0.17658 0.42972 0.0
C592 C 0.50716 0.16894 0.24727 0.0
H593 H 0.49715 0.15144 0.07877 0.0
C594 C 0.50651 0.18551 0.23609 0.0
C595 C 0.50374 0.15646 0.19035 0.0
C596 C 0.50472 0.13874 0.19972 0.0
C597 C 0.50236 0.1899 0.16892 0.0
C598 C 0.49896 0.17743 0.11198 0.0
C599 C 0.49958 0.16085 0.12319 0.0
C600 C 0.49584 0.18166 0.0389 0.0
C601 C 0.50139 0.20763 0.15953 0.0
C602 C 0.47946 0.16892 0.00285 0.0
C603 C 0.47856 0.1698 0.929 0.0
C604 C 0.49412 0.18336 0.89057 0.0
C605 C 0.50964 0.19742 0.9276 0.0
C606 C 0.51055 0.19647 0.00155 0.0
H607 H 0.49952 0.21305 0.21132 0.0
H608 H 0.51466 0.21863 0.13522 0.0
H609 H 0.48967 0.2052 0.12346 0.0
H610 H 0.46797 0.15747 0.03127 0.0
H611 H 0.4663 0.15896 0.9018 0.0
H612 H 0.9872 0.19349 0.45872 0.0
H613 H 0.98584 0.18932 0.32976 0.0
H614 H 0.03714 0.18723 0.33574 0.0
H615 H 0.03862 0.19124 0.46501 0.0
H616 H 1.0117 0.20577 0.2065 0.0
H617 H 0.99308 0.13284 0.28146 0.0
H618 H 0.99306 0.14931 0.345 0.0
H619 H 1.01485 0.15146 0.31625 0.0
C620 C 0.99854 0.19276 0.43244 0.0
C621 C 1.0127 0.1921 0.47202 0.0
C622 C 0.99773 0.19041 0.35883 0.0
C623 C 1.01111 0.18746 0.32435 0.0
C624 C 1.02655 0.18919 0.3623 0.0
H625 H 1.01836 0.15158 0.90671 0.0
H626 H 1.01969 0.15582 0.03564 0.0
C627 C 1.0274 0.19157 0.436 0.0
C628 C 1.00731 0.17983 0.25179 0.0
H629 H 0.99383 0.13942 0.15862 0.0
C630 C 1.00781 0.19131 0.19574 0.0
C631 C 1.00202 0.16085 0.23897 0.0
C632 C 1.00055 0.14779 0.29852 0.0
C633 C 1.0035 0.18434 0.12613 0.0
C634 C 0.99822 0.16536 0.11331 0.0
C635 C 0.99771 0.15388 0.16937 0.0
C636 C 0.99445 0.15773 0.04074 0.0
C637 C 1.00498 0.1974 0.06658 0.0
C638 C 0.97903 0.15601 0.00266 0.0
C639 C 0.97819 0.15358 0.92898 0.0
C640 C 0.99288 0.15298 0.89314 0.0
C641 C 1.00703 0.15234 0.93287 0.0
C642 C 1.00782 0.15474 0.00645 0.0
H643 H 1.01244 0.21235 0.08366 0.0
H644 H 1.01248 0.19588 0.02012 0.0
H645 H 0.99068 0.19373 0.04881 0.0
H646 H 0.96845 0.158 0.02908 0.0
H647 H 0.96699 0.15391 0.89984 0.0
H648 H 0.98305 0.63624 0.45715 0.0
H649 H 0.98714 0.63916 0.32814 0.0
H650 H 0.98711 0.69159 0.33379 0.0
H651 H 0.98316 0.68896 0.46308 0.0
H652 H 0.96989 0.64774 0.20493 0.0
H653 H 0.04202 0.7038 0.27885 0.0
H654 H 1.02597 0.68699 0.34264 0.0
H655 H 1.02297 0.70618 0.31393 0.0
C656 C 0.98329 0.6481 0.43079 0.0
C657 C 0.98336 0.66266 0.47028 0.0
C658 C 0.9856 0.64971 0.35715 0.0
C659 C 0.98793 0.66582 0.32256 0.0
C660 C 0.98563 0.67922 0.36044 0.0
H661 H 1.02271 0.70957 0.90423 0.0
H662 H 1.01836 0.70649 0.03313 0.0
C663 C 0.98329 0.67762 0.43415 0.0
C664 C 0.99548 0.66987 0.24987 0.0
H665 H 0.03546 0.69783 0.15612 0.0
C666 C 0.98419 0.65867 0.19397 0.0
C667 C 1.01424 0.68403 0.23677 0.0
C668 C 1.02712 0.69589 0.29613 0.0
C669 C 0.99111 0.66155 0.12425 0.0
C670 C 1.00987 0.67571 0.11116 0.0
C671 C 1.02116 0.6869 0.16707 0.0
C672 C 1.01744 0.67976 0.03851 0.0
C673 C 0.97823 0.6497 0.06488 0.0
C674 C 1.01974 0.66637 0.00061 0.0
C675 C 1.02224 0.66806 0.92696 0.0
C676 C 1.02232 0.68312 0.89094 0.0
C677 C 1.02236 0.69765 0.93052 0.0
C678 C 1.01989 0.69595 0.00408 0.0
H679 H 0.96332 0.64181 0.08213 0.0
H680 H 0.9794 0.65861 0.01837 0.0
H681 H 0.98235 0.6394 0.0471 0.0
H682 H 1.01817 0.65395 0.02714 0.0
H683 H 1.02238 0.65674 0.89796 0.0
H684 H 0.39735 0.38528 0.23309 0.0
H685 H 0.37525 0.3958 0.19819 0.0
H686 H 0.33286 0.35321 0.33274 0.0
H687 H 0.35471 0.34292 0.36857 0.0
H688 H 0.34109 0.37627 0.12954 0.0
H689 H 0.32999 0.3987 0.39409 0.0
H690 H 0.34899 0.39426 0.37677 0.0
H691 H 0.32578 0.37508 0.39527 0.0
C692 C 0.38343 0.37837 0.25617 0.0
C693 C 0.37797 0.36332 0.30418 0.0
C694 C 0.37074 0.38434 0.23584 0.0
C695 C 0.35237 0.37553 0.26357 0.0
C696 C 0.34701 0.3606 0.31172 0.0
H697 H 0.24795 0.37603 0.2045 0.0
H698 H 0.27323 0.36993 0.23648 0.0
C699 C 0.35959 0.35465 0.33193 0.0
C700 C 0.33846 0.38124 0.24044 0.0
H701 H 0.30731 0.39384 0.30433 0.0
C702 C 0.33388 0.38034 0.16771 0.0
C703 C 0.32893 0.38655 0.28996 0.0
C704 C 0.3338 0.3889 0.36826 0.0
C705 C 0.31967 0.38389 0.1437 0.0
C706 C 0.30984 0.38874 0.1935 0.0
C707 C 0.31467 0.38999 0.266 0.0
C708 C 0.29435 0.39234 0.17191 0.0
C709 C 0.31484 0.38175 0.06539 0.0
C710 C 0.29766 0.40705 0.12506 0.0
C711 C 0.2832 0.4107 0.10695 0.0
C712 C 0.26499 0.39976 0.13537 0.0
C713 C 0.26174 0.38496 0.18203 0.0
C714 C 0.27622 0.38137 0.20023 0.0
H715 H 0.32031 0.37359 0.03719 0.0
H716 H 0.29942 0.37467 0.05744 0.0
H717 H 0.32121 0.39587 0.04047 0.0
H718 H 0.31157 0.41602 0.10357 0.0
H719 H 0.28648 0.42246 0.07213 0.0
H720 H 0.75387 0.70723 0.07604 0.0
H721 H 0.76102 0.73915 0.10518 0.0
H722 H 0.80664 0.74619 0.23917 0.0
H723 H 0.80017 0.71467 0.20789 0.0
H724 H 0.76057 0.755 0.23082 0.0
H725 H 0.83269 0.79343 0.12257 0.0
H726 H 0.81691 0.76891 0.10377 0.0
H727 H 0.82978 0.77591 0.18639 0.0
C728 C 0.76569 0.71565 0.11057 0.0
C729 C 0.77649 0.70819 0.13898 0.0
C730 C 0.76965 0.73392 0.12782 0.0
C731 C 0.78458 0.74537 0.17365 0.0
C732 C 0.79531 0.73794 0.20244 0.0
H733 H 0.83118 0.85391 0.37656 0.0
H734 H 0.82156 0.82214 0.33719 0.0
C735 C 0.7914 0.7197 0.18511 0.0
C736 C 0.78865 0.76481 0.19282 0.0
H737 H 0.82371 0.81084 0.19873 0.0
C738 C 0.77434 0.76722 0.2231 0.0
C739 C 0.80657 0.78091 0.18266 0.0
C740 C 0.82231 0.77973 0.1464 0.0
C741 C 0.77763 0.78502 0.24567 0.0
C742 C 0.79569 0.80101 0.23717 0.0
C743 C 0.80988 0.79865 0.20571 0.0
C744 C 0.8005 0.82017 0.26323 0.0
C745 C 0.76193 0.78648 0.28072 0.0
C746 C 0.7918 0.82986 0.23539 0.0
C747 C 0.79735 0.84829 0.25789 0.0
C748 C 0.81175 0.85745 0.30863 0.0
C749 C 0.82008 0.84748 0.33729 0.0
C750 C 0.81461 0.82921 0.31471 0.0
H751 H 0.7502 0.77251 0.297 0.0
H752 H 0.7671 0.79569 0.32844 0.0
H753 H 0.75633 0.7928 0.24256 0.0
H754 H 0.78108 0.82338 0.19481 0.0
H755 H 0.79071 0.85551 0.23411 0.0
H756 H 0.46073 0.92789 0.20582 0.0
H757 H 0.42928 0.90275 0.23744 0.0
H758 H 0.43696 0.86396 0.10713 0.0
H759 H 0.46874 0.88879 0.07768 0.0
H760 H 0.39851 0.8815 0.1575 0.0
H761 H 0.41947 0.83445 0.29006 0.0
H762 H 0.43622 0.8584 0.26666 0.0
H763 H 0.42765 0.84027 0.19991 0.0
C764 C 0.4559 0.91398 0.18442 0.0
C765 C 0.46756 0.91052 0.1394 0.0
C766 C 0.43776 0.89958 0.20228 0.0
C767 C 0.43071 0.88123 0.17601 0.0
C768 C 0.44211 0.8778 0.12974 0.0
H769 H 0.32028 0.77828 0.23504 0.0
H770 H 0.35243 0.80091 0.19637 0.0
C771 C 0.46027 0.89219 0.11195 0.0
C772 C 0.41135 0.8659 0.19609 0.0
H773 H 0.38684 0.82234 0.2737 0.0
C774 C 0.39603 0.8686 0.183 0.0
C775 C 0.40789 0.84891 0.2292 0.0
C776 C 0.42367 0.84535 0.24796 0.0
C777 C 0.37755 0.85493 0.20166 0.0
C778 C 0.37413 0.83807 0.23554 0.0
C779 C 0.38937 0.83519 0.24764 0.0
C780 C 0.35498 0.82378 0.26163 0.0
C781 C 0.36178 0.85862 0.18417 0.0
C782 C 0.34585 0.8288 0.31286 0.0
C783 C 0.3276 0.81593 0.33519 0.0
C784 C 0.31786 0.79754 0.30727 0.0
C785 C 0.32727 0.79226 0.25785 0.0
C786 C 0.34567 0.80522 0.23551 0.0
H787 H 0.36577 0.86924 0.14111 0.0
H788 H 0.34898 0.84551 0.1674 0.0
H789 H 0.35829 0.86411 0.2323 0.0
H790 H 0.3528 0.84282 0.33524 0.0
H791 H 0.32101 0.82061 0.37367 0.0
H792 H 0.59021 0.06605 0.98664 0.0
H793 H 0.57607 0.08428 0.94555 0.0
H794 H 0.52351 0.03324 0.9119 0.0
H795 H 0.53774 1.01467 0.95366 0.0
H796 H 0.53591 0.05909 0.79279 0.0
H797 H 0.53793 0.09547 0.04361 0.0
H798 H 0.55989 0.09692 0.02256 0.0
H799 H 0.53971 0.07444 0.04192 0.0
C800 C 0.57554 0.0586 0.97152 0.0
C801 C 0.56513 0.03881 0.97383 0.0
C802 C 0.56743 0.06913 0.94821 0.0
C803 C 0.54863 0.06026 0.92607 0.0
C804 C 0.53802 0.04048 0.92907 0.0
H805 H 0.49914 0.13134 0.81308 0.0
H806 H 0.50333 0.10609 0.86469 0.0
C807 C 0.54613 0.02985 0.95342 0.0
C808 C 0.54071 0.07185 0.89651 0.0
H809 H 0.53468 0.10924 0.93563 0.0
C810 C 0.53539 0.06986 0.82437 0.0
C811 C 0.53982 0.08589 0.93742 0.0
C812 C 0.54447 0.08824 0.01586 0.0
C813 C 0.5301 0.08201 0.79153 0.0
C814 C 0.53027 0.09675 0.83146 0.0
C815 C 0.53469 0.09813 0.90446 0.0
C816 C 0.52691 0.11143 0.79778 0.0
C817 C 0.5245 0.079 0.71399 0.0
C818 C 0.53873 0.12298 0.74303 0.0
C819 C 0.53639 0.13741 0.71378 0.0
C820 C 0.52219 0.14077 0.73841 0.0
C821 C 0.51016 0.12909 0.79258 0.0
C822 C 0.51259 0.11467 0.82228 0.0
H823 H 0.51958 0.06429 0.69731 0.0
H824 H 0.51322 0.08234 0.70304 0.0
H825 H 0.53685 0.08838 0.6808 0.0
H826 H 0.55012 0.12114 0.72393 0.0
H827 H 0.54596 0.14616 0.67239 0.0
H828 H 1.0274 0.24209 0.68831 0.0
H829 H 0.0522 0.27103 0.74229 0.0
H830 H 0.07116 0.23896 0.86248 0.0
H831 H 0.04613 0.20973 0.80869 0.0
H832 H 0.05823 0.27313 0.92169 0.0
H833 H 0.11785 0.28928 0.7396 0.0
H834 H 0.09417 0.27792 0.70525 0.0
H835 H 0.10109 0.26539 0.76459 0.0
C836 C 0.03691 0.24114 0.72579 0.0
C837 C 0.03471 0.22353 0.74416 0.0
C838 C 0.05112 0.25774 0.75662 0.0
C839 C 0.06361 0.25724 0.80637 0.0
C840 C 0.06174 0.23973 0.824 0.0
H841 H 0.15803 0.3627 0.99045 0.0
H842 H 0.13899 0.32933 0.95534 0.0
C843 C 0.04744 0.22303 0.79315 0.0
C844 C 0.07784 0.27502 0.84195 0.0
H845 H 0.12221 0.3127 0.82287 0.0
C846 C 0.0723 0.28165 0.9007 0.0
C847 C 0.09628 0.28611 0.81519 0.0
C848 C 0.1029 0.27945 0.75272 0.0
C849 C 0.08443 0.29928 0.93175 0.0
C850 C 0.10254 0.31096 0.90236 0.0
C851 C 0.10839 0.30392 0.84558 0.0
C852 C 0.11454 0.33111 0.92491 0.0
C853 C 0.07756 0.3053 0.99549 0.0
C854 C 0.10739 0.34337 0.91884 0.0
C855 C 0.1181 0.36221 0.93895 0.0
C856 C 0.13655 0.3697 0.9653 0.0
C857 C 0.14389 0.3575 0.971 0.0
C858 C 0.13302 0.33841 0.95062 0.0
H859 H 0.06691 0.29296 0.02599 0.0
H860 H 0.08927 0.31439 0.03187 0.0
H861 H 0.0708 0.31333 0.97694 0.0
H862 H 0.09345 0.33839 0.89764 0.0
H863 H 0.11178 0.37095 0.93302 0.0
H864 H 0.96523 0.67982 0.80001 0.0
H865 H 0.936 0.67542 0.85435 0.0
H866 H 0.90475 0.62206 0.74803 0.0
H867 H 0.93364 0.62644 0.69322 0.0
H868 H 0.89606 0.66288 0.77171 0.0
H869 H 0.897 0.61545 0.98135 0.0
H870 H 0.91819 0.63344 0.93938 0.0
H871 H 0.90286 0.61229 0.89185 0.0
C872 C 0.95209 0.66726 0.78763 0.0
C873 C 0.95183 0.65346 0.74233 0.0
C874 C 0.93539 0.66476 0.81873 0.0
C875 C 0.91813 0.64836 0.80553 0.0
C876 C 0.91785 0.63481 0.7592 0.0
H877 H 0.80478 0.58377 0.93331 0.0
H878 H 0.83713 0.59812 0.89566 0.0
C879 C 0.93443 0.63734 0.72787 0.0
C880 C 0.90042 0.64472 0.84194 0.0
H881 H 0.86905 0.61665 0.96891 0.0
C882 C 0.89025 0.653 0.8156 0.0
C883 C 0.8928 0.63182 0.89909 0.0
C884 C 0.90324 0.62275 0.93023 0.0
C885 C 0.87228 0.64801 0.84256 0.0
C886 C 0.86434 0.63458 0.89834 0.0
C887 C 0.87497 0.62694 0.92638 0.0
C888 C 0.84434 0.62651 0.92278 0.0
C889 C 0.86153 0.6564 0.80846 0.0
C890 C 0.83722 0.63755 0.9517 0.0
C891 C 0.81826 0.62925 0.97354 0.0
C892 C 0.80606 0.60972 0.96718 0.0
C893 C 0.81347 0.59884 0.93921 0.0
C894 C 0.83218 0.60706 0.91752 0.0
H895 H 0.868 0.66363 0.75746 0.0
H896 H 0.84679 0.64537 0.79799 0.0
H897 H 0.86134 0.66686 0.84527 0.0
H898 H 0.84631 0.65256 0.95787 0.0
H899 H 0.81316 0.63811 0.99491 0.0
H900 H 0.03743 0.58639 0.90791 0.0
H901 H 0.05257 0.56812 0.93813 0.0
H902 H 0.07495 0.57623 0.725 0.0
H903 H 0.05994 0.59453 0.69453 0.0
H904 H 0.04633 0.53542 0.87914 0.0
H905 H 0.12104 0.58925 0.84229 0.0
H906 H 0.1027 0.59516 0.84744 0.0
H907 H 0.10701 0.58665 0.76527 0.0
C908 C 0.04568 0.58439 0.86759 0.0
C909 C 0.04751 0.59201 0.79883 0.0
C910 C 0.05438 0.57399 0.88502 0.0
C911 C 0.06517 0.57101 0.83424 0.0
C912 C 0.06715 0.57873 0.76577 0.0
H913 H 0.11389 0.49962 0.7939 0.0
H914 H 0.10277 0.52204 0.77863 0.0
C915 C 0.05852 0.5892 0.74837 0.0
C916 C 0.07332 0.55886 0.85139 0.0
H917 H 0.11411 0.55735 0.85037 0.0
C918 C 0.06119 0.54029 0.87364 0.0
C919 C 0.09271 0.56518 0.84412 0.0
C920 C 0.10665 0.5852 0.82416 0.0
C921 C 0.0678 0.52775 0.8867 0.0
C922 C 0.08711 0.53398 0.87815 0.0
C923 C 0.0993 0.55259 0.85678 0.0
C924 C 0.09476 0.52116 0.88897 0.0
C925 C 0.05396 0.50775 0.9074 0.0
C926 C 0.09433 0.51352 0.95644 0.0
C927 C 0.10067 0.50068 0.96536 0.0
C928 C 0.10753 0.49519 0.9069 0.0
C929 C 0.10843 0.50332 0.83982 0.0
C930 C 0.10219 0.51622 0.83106 0.0
H931 H 0.03923 0.50418 0.89753 0.0
H932 H 0.05673 0.49775 0.87739 0.0
H933 H 0.05548 0.50579 0.96508 0.0
H934 H 0.08888 0.51733 0.00207 0.0
H935 H 0.09967 0.49463 0.01763 0.0
H936 H 0.70039 0.44345 0.96193 0.0
H937 H 0.67787 0.41018 0.94265 0.0
H938 H 0.63741 0.4245 0.8636 0.0
H939 H 0.65977 0.45785 0.88359 0.0
H940 H 0.64081 0.38722 -0.00264 0.0
H941 H 0.64145 0.39272 0.70171 0.0
H942 H 0.65911 0.41093 0.75714 0.0
H943 H 0.63627 0.40856 0.74928 0.0
C944 C 0.68662 0.43956 0.94133 0.0
C945 C 0.68196 0.45342 0.9241 0.0
C946 C 0.67379 0.42051 0.92998 0.0
C947 C 0.65605 0.41485 0.90075 0.0
C948 C 0.65116 0.42856 0.8849 0.0
H949 H 0.56838 0.30399 0.75575 0.0
H950 H 0.58565 0.33713 0.79055 0.0
C951 C 0.66398 0.44764 0.8963 0.0
C952 C 0.64283 0.39462 0.88631 0.0
H953 H 0.62092 0.36307 0.7517 0.0
C954 C 0.63642 0.38193 0.94368 0.0
C955 C 0.63703 0.38774 0.81628 0.0
C956 C 0.64389 0.40062 0.75235 0.0
C957 C 0.62436 0.36256 0.93296 0.0
C958 C 0.61891 0.35561 0.86273 0.0
C959 C 0.62506 0.36837 0.80551 0.0
C960 C 0.60755 0.33513 0.84687 0.0
C961 C 0.61743 0.34979 -0.00284 0.0
C962 C 0.61399 0.32288 0.86717 0.0
C963 C 0.60404 0.3039 0.84805 0.0
C964 C 0.58749 0.29669 0.80727 0.0
C965 C 0.58089 0.30894 0.78795 0.0
C966 C 0.59085 0.32795 0.80734 0.0
H967 H 0.61771 0.35757 0.04597 0.0
H968 H 0.60291 0.338 0.98895 0.0
H969 H 0.62672 0.34382 0.00655 0.0
H970 H 0.62702 0.3281 0.89633 0.0
H971 H 0.60947 0.29489 0.86455 0.0
H972 H 0.87335 0.15488 0.75893 0.0
H973 H 0.83993 0.13932 0.7866 0.0
H974 H 0.84139 0.09007 0.85649 0.0
H975 H 0.87511 0.10579 0.83057 0.0
H976 H 0.81131 0.10571 0.72834 0.0
H977 H 0.81504 0.10033 0.02293 0.0
H978 H 0.83525 0.11576 0.96977 0.0
H979 H 0.82687 0.09096 0.97127 0.0
C980 C 0.8667 0.14086 0.78135 0.0
C981 C 0.87704 0.13168 0.79317 0.0
C982 C 0.84751 0.13192 0.79662 0.0
C983 C 0.83816 0.11361 0.82445 0.0
C984 C 0.84835 0.10432 0.83616 0.0
H985 H 0.71843 0.04471 0.93705 0.0
H986 H 0.75169 0.05522 0.91629 0.0
C987 C 0.8676 0.11326 0.82065 0.0
C988 C 0.81763 0.10423 0.83874 0.0
H989 H 0.78484 0.08724 0.97194 0.0
C990 C 0.80553 0.10161 0.78159 0.0
C991 C 0.81005 0.09875 0.90815 0.0
C992 C 0.82243 0.10168 0.97182 0.0
C993 C 0.78614 0.09391 0.79198 0.0
C994 C 0.77863 0.08898 0.86166 0.0
C995 C 0.79062 0.09106 0.9186 0.0
C996 C 0.75857 0.08265 0.87658 0.0
C997 C 0.77384 0.0911 0.72814 0.0
C998 C 0.75148 0.09472 0.86278 0.0
C999 C 0.73259 0.08884 0.87499 0.0
C1000 C 0.72024 0.07071 0.90143 0.0
C1001 C 0.7275 0.05878 0.91692 0.0
C1002 C 0.74649 0.06473 0.90481 0.0
H1003 H 0.78062 0.09049 0.67775 0.0
H1004 H 0.76009 0.07798 0.73331 0.0
H1005 H 0.77124 0.10308 0.72419 0.0
H1006 H 0.76062 0.10878 0.84263 0.0
H1007 H 0.7277 0.09863 0.86421 0.0
H1008 H 0.6111 0.96575 0.14637 0.0
H1009 H 0.63439 0.95709 0.18428 0.0
H1010 H 0.66991 0.98845 0.00795 0.0
H1011 H 0.64714 0.99758 0.97145 0.0
H1012 H 0.65001 0.93838 0.12668 0.0
H1013 H 0.70646 1.01187 0.167 0.0
H1014 H 0.68249 1.00577 0.15065 0.0
H1015 H 0.69762 1.00788 0.07757 0.0
C1016 C 0.6238 0.97065 0.11533 0.0
C1017 C 0.62724 0.98249 0.05609 0.0
C1018 C 0.63718 0.96576 0.13724 0.0
C1019 C 0.65429 0.97254 0.1004 0.0
C1020 C 0.65723 0.98354 0.03909 0.0
H1021 H 0.75231 0.95828 0.12748 0.0
H1022 H 0.72812 0.96587 0.09422 0.0
C1023 C 0.64402 0.9886 0.01773 0.0
C1024 C 0.66908 0.96824 0.12573 0.0
H1025 H 0.71579 0.98864 0.16779 0.0
C1026 C 0.66434 0.94941 0.13621 0.0
C1027 C 0.68789 0.98256 0.13867 0.0
C1028 C 0.69389 1.00314 0.13363 0.0
C1029 C 0.67785 0.94453 0.15706 0.0
C1030 C 0.69669 0.95883 0.16845 0.0
C1031 C 0.70142 0.97764 0.15863 0.0
C1032 C 0.71171 0.95456 0.1902 0.0
C1033 C 0.67196 0.92405 0.16501 0.0
C1034 C 0.7109 0.94604 0.25611 0.0
C1035 C 0.72491 0.9419 0.27595 0.0
C1036 C 0.74017 0.94613 0.23035 0.0
C1037 C 0.74105 0.955 0.1648 0.0
C1038 C 0.72709 0.95923 0.14526 0.0
H1039 H 0.65816 0.91474 0.13955 0.0
H1040 H 0.68258 0.92111 0.14119 0.0
H1041 H 0.67078 0.92045 0.22254 0.0
H1042 H 0.69944 0.94265 0.29256 0.0
H1043 H 0.7238 0.93547 0.32745 0.0
H1044 H 0.25324 0.63893 0.28256 0.0
H1045 H 0.24679 0.60746 0.24931 0.0
H1046 H 0.19968 0.59963 0.12302 0.0
H1047 H 0.20577 0.63091 0.15686 0.0
H1048 H 0.21474 0.57167 0.26745 0.0
H1049 H 0.23027 0.58809 0.98036 0.0
H1050 H 0.23683 0.60612 0.04715 0.0
H1051 H 0.2131 0.59341 0.01482 0.0
C1052 C 0.24133 0.63049 0.24846 0.0
C1053 C 0.23013 0.63773 0.22229 0.0
C1054 C 0.23773 0.61246 0.22906 0.0
C1055 C 0.22295 0.60119 0.18246 0.0
C1056 C 0.21146 0.60815 0.1576 0.0
H1057 H 0.17364 0.49143 0.9884 0.0
H1058 H 0.18376 0.52338 0.02658 0.0
C1059 C 0.215 0.62614 0.1771 0.0
C1060 C 0.21948 0.58219 0.15994 0.0
H1061 H 0.21619 0.55594 0.01321 0.0
C1062 C 0.2152 0.56827 0.21191 0.0
C1063 C 0.22013 0.57767 0.08748 0.0
C1064 C 0.2255 0.59214 0.02919 0.0
C1065 C 0.21087 0.54987 0.19329 0.0
C1066 C 0.21122 0.54526 0.12063 0.0
C1067 C 0.21587 0.55932 0.06888 0.0
C1068 C 0.20574 0.52573 0.0965 0.0
C1069 C 0.2052 0.53534 0.25153 0.0
C1070 C 0.21492 0.51623 0.12157 0.0
C1071 C 0.20907 0.49769 0.09977 0.0
C1072 C 0.19398 0.48825 0.05195 0.0
C1073 C 0.18527 0.49807 0.0254 0.0
C1074 C 0.19106 0.51648 0.04724 0.0
H1075 H 0.20109 0.53976 0.30112 0.0
H1076 H 0.19329 0.52162 0.2342 0.0
H1077 H 0.21723 0.53332 0.2644 0.0
H1078 H 0.22658 0.52312 0.15824 0.0
H1079 H 0.21615 0.49066 0.12135 0.0
H1080 H 0.68357 0.56916 0.11076 0.0
H1081 H 0.65083 0.54726 0.14451 0.0
H1082 H 0.65453 0.50165 0.04767 0.0
H1083 H 0.68657 0.52327 0.01181 0.0
H1084 H 0.62263 0.49834 0.01409 0.0
H1085 H 0.63143 0.51051 0.30569 0.0
H1086 H 0.6374 0.53133 0.25531 0.0
H1087 H 0.6511 0.51994 0.24528 0.0
C1088 C 0.67736 0.55449 0.09637 0.0
C1089 C 0.68789 0.54813 0.05847 0.0
C1090 C 0.65864 0.54188 0.11644 0.0
C1091 C 0.65011 0.52256 0.10009 0.0
C1092 C 0.66059 0.51636 0.06137 0.0
H1093 H 0.55035 0.42796 0.29123 0.0
H1094 H 0.58218 0.45291 0.26043 0.0
C1095 C 0.67908 0.52888 0.0408 0.0
C1096 C 0.63028 0.50864 0.12144 0.0
H1097 H 0.60048 0.49033 0.26422 0.0
C1098 C 0.61784 0.49666 0.06889 0.0
C1099 C 0.6239 0.50606 0.19309 0.0
C1100 C 0.63668 0.51749 0.25326 0.0
C1101 C 0.59951 0.4823 0.08557 0.0
C1102 C 0.59292 0.48007 0.15682 0.0
C1103 C 0.60532 0.49204 0.2095 0.0
C1104 C 0.57339 0.46524 0.17763 0.0
C1105 C 0.58765 0.46923 0.02667 0.0
C1106 C 0.55762 0.46392 0.14287 0.0
C1107 C 0.53944 0.44953 0.15985 0.0
C1108 C 0.53639 0.4362 0.21314 0.0
C1109 C 0.55211 0.43793 0.24992 0.0
C1110 C 0.57037 0.45223 0.23225 0.0
H1111 H 0.59645 0.46898 0.98221 0.0
H1112 H 0.57879 0.45465 0.0466 0.0
H1113 H 0.57836 0.47417 0.00467 0.0
H1114 H 0.55935 0.47405 0.10234 0.0
H1115 H 0.5277 0.44897 0.13153 0.0
H1116 H 0.98708 0.78457 0.57046 0.0
H1117 H 0.97184 0.80254 0.53887 0.0
H1118 H 0.9193 0.75109 0.5105 0.0
H1119 H 0.93451 0.73288 0.54161 0.0
H1120 H 0.95299 0.80186 0.41344 0.0
H1121 H 0.90555 0.78106 0.64849 0.0
H1122 H 0.92526 0.77717 0.64432 0.0
H1123 H 0.9041 0.76205 0.59627 0.0
C1124 C 0.97232 0.777 0.55673 0.0
C1125 C 0.96206 0.75722 0.55848 0.0
C1126 C 0.9636 0.78734 0.53907 0.0
C1127 C 0.94438 0.7782 0.52315 0.0
C1128 C 0.93407 0.75847 0.52397 0.0
H1129 H 0.8745 0.82932 0.43497 0.0
H1130 H 0.88525 0.80646 0.4478 0.0
C1131 C 0.9428 0.74808 0.54172 0.0
C1132 C 0.93535 0.7895 0.50532 0.0
H1133 H 0.90321 0.80116 0.56455 0.0
C1134 C 0.94204 0.80164 0.44631 0.0
C1135 C 0.92098 0.78913 0.54795 0.0
C1136 C 0.9136 0.77678 0.61316 0.0
C1137 C 0.93494 0.81356 0.42926 0.0
C1138 C 0.921 0.81364 0.47318 0.0
C1139 C 0.9139 0.8011 0.53096 0.0
C1140 C 0.91446 0.8274 0.46262 0.0
C1141 C 0.94243 0.82595 0.36419 0.0
C1142 C 0.92725 0.84674 0.4671 0.0
C1143 C 0.92119 0.85979 0.45949 0.0
C1144 C 0.90212 0.85383 0.44781 0.0
C1145 C 0.8893 0.83441 0.44312 0.0
C1146 C 0.8954 0.82133 0.45087 0.0
H1147 H 0.94837 0.8202 0.32502 0.0
H1148 H 0.93129 0.82762 0.33754 0.0
H1149 H 0.95383 0.84006 0.38053 0.0
H1150 H 0.94196 0.85178 0.47745 0.0
H1151 H 0.9315 0.8746 0.46265 0.0
H1152 H 0.3908 0.04384 0.60487 0.0
H1153 H 0.37279 1.01072 0.57211 0.0
H1154 H 0.4226 1.01366 0.48454 0.0
H1155 H 0.44082 0.04701 0.51688 0.0
H1156 H 0.36726 0.99442 0.43698 0.0
H1157 H 0.40256 0.96814 0.61855 0.0
H1158 H 0.40515 0.99118 0.62809 0.0
H1159 H 0.41769 0.98684 0.55936 0.0
C1160 C 0.39796 0.03755 0.57805 0.0
C1161 C 0.41729 0.04818 0.56328 0.0
C1162 C 0.38763 1.01854 0.55971 0.0
C1163 C 0.39635 1.00961 0.52655 0.0
C1164 C 0.41563 0.02014 0.51135 0.0
H1165 H 0.34541 0.89011 0.40947 0.0
H1166 H 0.36765 0.92384 0.42239 0.0
C1167 C 0.42602 0.03922 0.5298 0.0
C1168 C 0.385 0.98938 0.50711 0.0
H1169 H 0.37862 0.94582 0.54461 0.0
C1170 C 0.36981 0.98381 0.46028 0.0
C1171 C 0.3884 0.97553 0.53706 0.0
C1172 C 0.40423 0.98061 0.589 0.0
C1173 C 0.35778 0.96481 0.44335 0.0
C1174 C 0.36076 0.95088 0.47525 0.0
C1175 C 0.3763 0.95648 0.52032 0.0
C1176 C 0.34728 0.93046 0.46574 0.0
C1177 C 0.342 0.95984 0.39123 0.0
C1178 C 0.32848 0.92289 0.4864 0.0
C1179 C 0.31574 0.90371 0.47859 0.0
C1180 C 0.32151 0.8915 0.45069 0.0
C1181 C 0.34041 0.89909 0.43034 0.0
C1182 C 0.35318 0.91836 0.43813 0.0
H1183 H 0.34514 0.97182 0.35527 0.0
H1184 H 0.33926 0.94752 0.3582 0.0
H1185 H 0.32903 0.95633 0.42118 0.0
H1186 H 0.32365 0.93183 0.50918 0.0
H1187 H 0.30129 0.89849 0.49404 0.0
H1188 H 0.1355 0.237 0.62934 0.0
H1189 H 0.16876 0.2526 0.59743 0.0
H1190 H 0.15765 0.20714 0.45445 0.0
H1191 H 0.12433 0.19185 0.48374 0.0
H1192 H 0.19275 0.23933 0.61877 0.0
H1193 H 0.18992 0.2521 0.33028 0.0
H1194 H 0.1703 0.24578 0.38914 0.0
H1195 H 0.17484 0.22799 0.35483 0.0
C1196 C 0.14003 0.23052 0.58978 0.0
C1197 C 0.12714 0.21313 0.55915 0.0
C1198 C 0.15911 0.23941 0.57201 0.0
C1199 C 0.16575 0.2312 0.52285 0.0
C1200 C 0.15289 0.21399 0.49139 0.0
H1201 H 0.27374 0.24956 0.38103 0.0
H1202 H 0.24051 0.23861 0.4018 0.0
C1203 C 0.13382 0.20512 0.50898 0.0
C1204 C 0.18623 0.23996 0.50798 0.0
H1205 H 0.21869 0.25531 0.37372 0.0
C1206 C 0.19844 0.24301 0.56526 0.0
C1207 C 0.1937 0.24472 0.43812 0.0
C1208 C 0.18154 0.24266 0.37465 0.0
C1209 C 0.21775 0.25014 0.55448 0.0
C1210 C 0.22517 0.25466 0.48453 0.0
C1211 C 0.21301 0.25182 0.4273 0.0
C1212 C 0.24544 0.26192 0.4696 0.0
C1213 C 0.22992 0.25218 0.61791 0.0
C1214 C 0.25932 0.2789 0.4995 0.0
C1215 C 0.27837 0.28523 0.48759 0.0
C1216 C 0.28397 0.27481 0.44497 0.0
C1217 C 0.26999 0.25806 0.41351 0.0
C1218 C 0.25095 0.25173 0.4256 0.0
H1219 H 0.22147 0.24386 0.66436 0.0
H1220 H 0.2402 0.24764 0.60448 0.0
H1221 H 0.23785 0.26716 0.6341 0.0
H1222 H 0.25542 0.28725 0.53225 0.0
H1223 H 0.28872 0.29835 0.51159 0.0
H1224 H 0.46028 0.19962 0.68491 0.0
H1225 H 0.45575 0.2243 0.63213 0.0
H1226 H 0.50333 0.24025 0.49468 0.0
H1227 H 0.50783 0.2153 0.54723 0.0
H1228 H 0.4786 0.26309 0.62301 0.0
H1229 H 0.4619 0.23133 0.35236 0.0
H1230 H 0.46268 0.21865 0.42971 0.0
H1231 H 0.48407 0.23611 0.38866 0.0
C1232 C 0.46986 0.20842 0.64363 0.0
C1233 C 0.48435 0.20535 0.62004 0.0
C1234 C 0.46726 0.2226 0.61348 0.0
C1235 C 0.47898 0.23408 0.55842 0.0
C1236 C 0.49384 0.23142 0.53605 0.0
H1237 H 0.46777 0.33101 0.40304 0.0
H1238 H 0.48219 0.31264 0.44507 0.0
C1239 C 0.4965 0.21722 0.56652 0.0
C1240 C 0.47519 0.24842 0.52424 0.0
H1241 H 0.46105 0.25931 0.36807 0.0
C1242 C 0.475 0.2624 0.56703 0.0
C1243 C 0.47028 0.24751 0.45123 0.0
C1244 C 0.46956 0.23254 0.40268 0.0
C1245 C 0.4698 0.27515 0.53938 0.0
C1246 C 0.46468 0.27408 0.46666 0.0
C1247 C 0.46517 0.26033 0.42356 0.0
C1248 C 0.45677 0.28562 0.43653 0.0
C1249 C 0.46898 0.28916 0.58896 0.0
C1250 C 0.43787 0.27665 0.41571 0.0
C1251 C 0.42967 0.28707 0.39206 0.0
C1252 C 0.44013 0.30683 0.38751 0.0
C1253 C 0.4593 0.31585 0.4055 0.0
C1254 C 0.46751 0.30534 0.43015 0.0
H1255 H 0.47086 0.28652 0.64566 0.0
H1256 H 0.48025 0.30353 0.57467 0.0
H1257 H 0.45534 0.28874 0.58334 0.0
H1258 H 0.42925 0.26151 0.41973 0.0
H1259 H 0.4149 0.27956 0.37837 0.0
H1260 H 0.84733 0.98312 0.36878 0.0
H1261 H 0.86644 1.01651 0.40379 0.0
H1262 H 0.91069 1.0066 0.47275 0.0
H1263 H 0.89233 0.97406 0.43766 0.0
H1264 H 0.88236 0.03343 0.53801 0.0
H1265 H 0.93893 0.05143 0.34222 0.0
H1266 H 0.91634 0.03032 0.33502 0.0
H1267 H 0.93416 0.031 0.39286 0.0
C1268 C 0.86119 0.98813 0.39081 0.0
C1269 C 0.86819 0.9757 0.39959 0.0
C1270 C 0.87211 1.00723 0.41109 0.0
C1271 C 0.89027 1.01429 0.43982 0.0
C1272 C 0.89702 1.0018 0.44921 0.0
H1273 H 0.97834 0.10287 0.67385 0.0
H1274 H 0.95344 0.07409 0.61939 0.0
C1275 C 0.88628 0.98296 0.4292 0.0
C1276 C 0.9024 0.03446 0.46178 0.0
H1277 H 0.9473 0.07147 0.44587 0.0
C1278 C 0.8964 0.04191 0.51668 0.0
C1279 C 0.9208 0.04572 0.43419 0.0
C1280 C 0.92787 0.03928 0.37231 0.0
C1281 C 0.90862 0.05968 0.54714 0.0
C1282 C 0.92732 0.07031 0.52239 0.0
C1283 C 0.93303 0.06329 0.46539 0.0
C1284 C 0.94162 0.08799 0.55836 0.0
C1285 C 0.90183 0.06673 0.60782 0.0
C1286 C 0.9433 0.10552 0.54257 0.0
C1287 C 0.95769 0.12214 0.57352 0.0
C1288 C 0.97067 0.12154 0.62096 0.0
C1289 C 0.96864 0.1039 0.6376 0.0
C1290 C 0.95438 0.08739 0.60648 0.0
H1291 H 0.88683 0.057 0.62065 0.0
H1292 H 0.91042 0.06858 0.65607 0.0
H1293 H 0.90367 0.0807 0.59399 0.0
H1294 H 0.93369 0.10637 0.50531 0.0
H1295 H 0.95887 0.13546 0.5593 0.0
H1296 H 0.04073 0.66679 0.55706 0.0
H1297 H 0.07021 0.67047 0.50853 0.0
H1298 H 0.10153 0.72173 0.62822 0.0
H1299 H 0.07239 0.71795 0.67735 0.0
H1300 H 0.0977 0.69859 0.42634 0.0
H1301 H 0.12933 0.69469 0.68082 0.0
H1302 H 0.10484 0.68773 0.67334 0.0
H1303 H 0.12233 0.71212 0.68437 0.0
C1304 C 0.05394 0.67871 0.57359 0.0
C1305 C 0.05417 0.69201 0.62151 0.0
C1306 C 0.07081 0.68085 0.5456 0.0
C1307 C 0.08828 0.69623 0.56541 0.0
C1308 C 0.08841 0.70948 0.61318 0.0
H1309 H 0.20196 0.76008 0.45052 0.0
H1310 H 0.16967 0.74509 0.49033 0.0
C1311 C 0.07165 0.70735 0.64103 0.0
C1312 C 0.10642 0.69903 0.53494 0.0
H1313 H 0.1508 0.70951 0.58294 0.0
C1314 C 0.10917 0.70057 0.46057 0.0
C1315 C 0.1215 0.7015 0.57908 0.0
C1316 C 0.1193 0.69872 0.65876 0.0
C1317 C 0.12679 0.70564 0.42997 0.0
C1318 C 0.14211 0.70922 0.47456 0.0
C1319 C 0.13912 0.70682 0.54851 0.0
C1320 C 0.16179 0.71782 0.4469 0.0
C1321 C 0.12927 0.70816 0.35037 0.0
C1322 C 0.16838 0.7075 0.40863 0.0
C1323 C 0.18726 0.71611 0.38558 0.0
C1324 C 0.19985 0.73523 0.40001 0.0
C1325 C 0.19293 0.74537 0.43777 0.0
C1326 C 0.17432 0.7368 0.46099 0.0
H1327 H 0.11614 0.70528 0.32286 0.0
H1328 H 0.14041 0.72275 0.33792 0.0
H1329 H 0.13388 0.69854 0.32884 0.0
H1330 H 0.159 0.69276 0.39735 0.0
H1331 H 0.19199 0.70781 0.35691 0.0
loop_
_geom_bond_atom_site_label_1
_geom_bond_atom_site_label_2
_geom_bond_distance
_geom_bond_site_symmetry_2
_ccdc_geom_bond_type
Tb0 C2 2.809 . S
Tb0 O20 2.484 . S
Tb0 O21 2.440 . S
Tb0 O22 2.658 . S
Tb0 O23 2.423 . S
Tb0 O24 2.378 . S
Tb0 O28 2.325 . S
Tb0 O31 2.341 . S
Tb1 C11 2.809 . S
Tb1 O22 2.325 . S
Tb1 O25 2.341 . S
Tb1 O26 2.484 . S
Tb1 O27 2.440 . S
Tb1 O28 2.658 . S
Tb1 O29 2.409 . S
Tb1 O30 2.378 . S
C2 Tb0 2.809 . S
C2 C3 1.514 . S
C2 O20 1.248 . S
C2 O21 1.266 . S
C3 C2 1.514 . S
C3 C4 1.359 . S
C3 C8 1.348 . S
C4 C3 1.359 . S
C4 C5 1.380 . S
C4 H32 0.929 . S
C5 C4 1.380 . S
C5 C6 1.347 . S
C5 H33 0.931 . S
C6 C5 1.347 . S
C6 C7 1.369 . S
C7 C6 1.369 . S
C7 C8 1.408 . S
C7 H34 0.930 . S
C8 C3 1.348 . S
C8 C7 1.408 . S
C8 H35 0.930 . S
C9 O22 1.281 1_556 S
C9 O23 1.253 1_556 S
C10 O24 1.236 . S
C10 O25 1.266 . S
C11 Tb1 2.809 . S
C11 C12 1.514 . S
C11 O26 1.248 . S
C11 O27 1.266 . S
C12 C11 1.514 . S
C12 C13 1.359 . S
C12 C17 1.348 . S
C13 C12 1.359 . S
C13 C14 1.380 . S
C13 H36 0.929 . S
C14 C13 1.380 . S
C14 C15 1.347 . S
C14 H37 0.931 1_554 S
C15 C14 1.347 . S
C15 C16 1.369 . S
C16 C15 1.369 . S
C16 C17 1.408 . S
C16 H38 0.930 . S
C17 C12 1.348 . S
C17 C16 1.408 . S
C17 H39 0.930 . S
C18 O28 1.281 . S
C18 O29 1.254 . S
C19 O30 1.236 . S
C19 O31 1.266 . S
O20 Tb0 2.484 . S
O20 C2 1.248 . S
O21 Tb0 2.440 . S
O21 C2 1.266 . S
O22 Tb0 2.658 . S
O22 Tb1 2.325 . S
O22 C9 1.281 1_554 S
O23 Tb0 2.423 . S
O23 C9 1.253 1_554 S
O24 Tb0 2.378 . S
O24 C10 1.236 . S
O25 Tb1 2.341 . S
O25 C10 1.266 . S
O26 Tb1 2.484 . S
O26 C11 1.248 . S
O27 Tb1 2.440 . S
O27 C11 1.266 . S
O28 Tb0 2.325 . S
O28 Tb1 2.658 . S
O28 C18 1.281 . S
O29 Tb1 2.409 . S
O29 C18 1.254 . S
O30 Tb1 2.378 . S
O30 C19 1.236 . S
O31 Tb0 2.341 . S
O31 C19 1.266 . S
H32 C4 0.929 . S
H33 C5 0.931 . S
H34 C7 0.930 . S
H35 C8 0.930 . S
H36 C13 0.929 . S
H37 C14 0.931 1_556 S
H38 C16 0.930 . S
H39 C17 0.930 . S
Tb40 C42 2.809 . S
Tb40 O60 2.484 . S
Tb40 O61 2.440 . S
Tb40 O62 2.658 . S
Tb40 O63 2.424 . S
Tb40 O64 2.378 . S
Tb40 O68 2.325 . S
Tb40 O71 2.341 . S
Tb41 C51 2.809 . S
Tb41 O62 2.325 . S
Tb41 O65 2.341 . S
Tb41 O66 2.484 . S
Tb41 O67 2.440 . S
Tb41 O68 2.658 . S
Tb41 O69 2.409 . S
Tb41 O70 2.378 . S
C42 Tb40 2.809 . S
C42 C43 1.514 . S
C42 O60 1.248 . S
C42 O61 1.266 . S
C43 C42 1.514 . S
C43 C44 1.359 . S
C43 C48 1.348 . S
C44 C43 1.359 . S
C44 C45 1.380 . S
C44 H72 0.929 . S
C45 C44 1.380 . S
C45 C46 1.347 . S
C45 H73 0.931 . S
C46 C45 1.347 . S
C46 C47 1.369 . S
C47 C46 1.369 . S
C47 C48 1.408 . S
C47 H74 0.930 . S
C48 C43 1.348 . S
C48 C47 1.408 . S
C48 H75 0.930 . S
C49 O62 1.281 1_556 S
C49 O63 1.252 1_556 S
C50 O64 1.236 . S
C50 O65 1.266 . S
C51 Tb41 2.809 . S
C51 C52 1.514 . S
C51 O66 1.248 . S
C51 O67 1.266 . S
C52 C51 1.514 . S
C52 C53 1.359 . S
C52 C57 1.348 . S
C53 C52 1.359 . S
C53 C54 1.380 . S
C53 H76 0.929 . S
C54 C53 1.380 . S
C54 C55 1.347 . S
C54 H77 0.931 1_554 S
C55 C54 1.347 . S
C55 C56 1.369 . S
C56 C55 1.369 . S
C56 C57 1.408 . S
C56 H78 0.930 . S
C57 C52 1.348 . S
C57 C56 1.408 . S
C57 H79 0.930 . S
C58 O68 1.281 . S
C58 O69 1.254 . S
C59 O70 1.236 . S
C59 O71 1.266 . S
O60 Tb40 2.484 . S
O60 C42 1.248 . S
O61 Tb40 2.440 . S
O61 C42 1.266 . S
O62 Tb40 2.658 . S
O62 Tb41 2.325 . S
O62 C49 1.281 1_554 S
O63 Tb40 2.424 . S
O63 C49 1.252 1_554 S
O64 Tb40 2.378 . S
O64 C50 1.236 . S
O65 Tb41 2.341 . S
O65 C50 1.266 . S
O66 Tb41 2.484 . S
O66 C51 1.248 . S
O67 Tb41 2.440 . S
O67 C51 1.266 . S
O68 Tb40 2.325 . S
O68 Tb41 2.658 . S
O68 C58 1.281 . S
O69 Tb41 2.409 . S
O69 C58 1.254 . S
O70 Tb41 2.378 . S
O70 C59 1.236 . S
O71 Tb40 2.341 . S
O71 C59 1.266 . S
H72 C44 0.929 . S
H73 C45 0.931 . S
H74 C47 0.930 . S
H75 C48 0.930 . S
H76 C53 0.929 . S
H77 C54 0.931 1_556 S
H78 C56 0.930 . S
H79 C57 0.930 . S
Tb80 C82 2.809 . S
Tb80 O100 2.484 . S
Tb80 O101 2.440 . S
Tb80 O102 2.658 1_565 S
Tb80 O103 2.422 . S
Tb80 O104 2.378 1_565 S
Tb80 O108 2.325 1_565 S
Tb80 O111 2.341 . S
Tb81 C91 2.809 . S
Tb81 O102 2.325 . S
Tb81 O105 2.341 . S
Tb81 O106 2.484 . S
Tb81 O107 2.440 . S
Tb81 O108 2.658 . S
Tb81 O109 2.409 . S
Tb81 O110 2.378 . S
C82 Tb80 2.809 . S
C82 C83 1.514 . S
C82 O100 1.248 . S
C82 O101 1.266 . S
C83 C82 1.514 . S
C83 C84 1.359 . S
C83 C88 1.348 . S
C84 C83 1.359 . S
C84 C85 1.380 . S
C84 H112 0.929 . S
C85 C84 1.380 . S
C85 C86 1.347 . S
C85 H113 0.931 . S
C86 C85 1.347 . S
C86 C87 1.369 . S
C87 C86 1.369 . S
C87 C88 1.408 . S
C87 H114 0.930 . S
C88 C83 1.348 . S
C88 C87 1.408 . S
C88 H115 0.930 . S
C89 O102 1.281 1_556 S
C89 O103 1.253 1_546 S
C90 O104 1.236 . S
C90 O105 1.266 . S
C91 Tb81 2.809 . S
C91 C92 1.514 . S
C91 O106 1.248 . S
C91 O107 1.266 . S
C92 C91 1.514 . S
C92 C93 1.359 . S
C92 C97 1.348 . S
C93 C92 1.359 . S
C93 C94 1.380 . S
C93 H116 0.929 . S
C94 C93 1.380 . S
C94 C95 1.347 . S
C94 H117 0.931 1_554 S
C95 C94 1.347 . S
C95 C96 1.369 . S
C96 C95 1.369 . S
C96 C97 1.408 . S
C96 H118 0.930 . S
C97 C92 1.348 . S
C97 C96 1.408 . S
C97 H119 0.930 . S
C98 O108 1.281 . S
C98 O109 1.254 . S
C99 O110 1.272 . S
C99 O111 1.258 1_545 S
O100 Tb80 2.484 . S
O100 C82 1.248 . S
O101 Tb80 2.440 . S
O101 C82 1.266 . S
O102 Tb80 2.658 1_545 S
O102 Tb81 2.325 . S
O102 C89 1.281 1_554 S
O103 Tb80 2.422 . S
O103 C89 1.253 1_564 S
O104 Tb80 2.378 1_545 S
O104 C90 1.236 . S
O105 Tb81 2.341 . S
O105 C90 1.266 . S
O106 Tb81 2.484 . S
O106 C91 1.248 . S
O107 Tb81 2.440 . S
O107 C91 1.266 . S
O108 Tb80 2.325 1_545 S
O108 Tb81 2.658 . S
O108 C98 1.281 . S
O109 Tb81 2.409 . S
O109 C98 1.254 . S
O110 Tb81 2.378 . S
O110 C99 1.272 . S
O111 Tb80 2.341 . S
O111 C99 1.258 1_565 S
H112 C84 0.929 . S
H113 C85 0.931 . S
H114 C87 0.930 . S
H115 C88 0.930 . S
H116 C93 0.929 . S
H117 C94 0.931 1_556 S
H118 C96 0.930 . S
H119 C97 0.930 . S
Tb120 C122 2.809 . S
Tb120 O140 2.484 . S
Tb120 O141 2.440 . S
Tb120 O142 2.658 . S
Tb120 O143 2.409 . S
Tb120 O144 2.378 . S
Tb120 O148 2.325 . S
Tb120 O151 2.341 . S
Tb121 C131 2.809 . S
Tb121 O142 2.325 . S
Tb121 O145 2.341 . S
Tb121 O146 2.484 . S
Tb121 O147 2.440 . S
Tb121 O148 2.658 . S
Tb121 O149 2.409 . S
Tb121 O150 2.378 . S
C122 Tb120 2.809 . S
C122 C123 1.514 . S
C122 O140 1.248 . S
C122 O141 1.266 . S
C123 C122 1.514 . S
C123 C124 1.359 . S
C123 C128 1.348 . S
C124 C123 1.359 . S
C124 C125 1.380 . S
C124 H152 0.929 . S
C125 C124 1.380 . S
C125 C126 1.347 . S
C125 H153 0.931 . S
C126 C125 1.347 . S
C126 C127 1.369 . S
C127 C126 1.369 . S
C127 C128 1.408 . S
C127 H154 0.930 . S
C128 C123 1.348 . S
C128 C127 1.408 . S
C128 H155 0.930 . S
C129 O142 1.281 . S
C129 O143 1.254 . S
C130 O144 1.236 . S
C130 O145 1.266 . S
C131 Tb121 2.809 . S
C131 C132 1.514 . S
C131 O146 1.248 . S
C131 O147 1.266 . S
C132 C131 1.514 . S
C132 C133 1.359 . S
C132 C137 1.348 . S
C133 C132 1.359 . S
C133 C134 1.380 . S
C133 H156 0.929 . S
C134 C133 1.380 . S
C134 C135 1.347 . S
C134 H157 0.931 . S
C135 C134 1.347 . S
C135 C136 1.369 . S
C136 C135 1.369 . S
C136 C137 1.408 . S
C136 H158 0.930 . S
C137 C132 1.348 . S
C137 C136 1.408 . S
C137 H159 0.930 . S
C138 O148 1.281 . S
C138 O149 1.254 . S
C139 O150 1.236 . S
C139 O151 1.266 . S
O140 Tb120 2.484 . S
O140 C122 1.248 . S
O141 Tb120 2.440 . S
O141 C122 1.266 . S
O142 Tb120 2.658 . S
O142 Tb121 2.325 . S
O142 C129 1.281 . S
O143 Tb120 2.409 . S
O143 C129 1.254 . S
O144 Tb120 2.378 . S
O144 C130 1.236 . S
O145 Tb121 2.341 . S
O145 C130 1.266 . S
O146 Tb121 2.484 . S
O146 C131 1.248 . S
O147 Tb121 2.440 . S
O147 C131 1.266 . S
O148 Tb120 2.325 . S
O148 Tb121 2.658 . S
O148 C138 1.281 . S
O149 Tb121 2.409 . S
O149 C138 1.254 . S
O150 Tb121 2.378 . S
O150 C139 1.236 . S
O151 Tb120 2.341 . S
O151 C139 1.266 . S
H152 C124 0.929 . S
H153 C125 0.931 . S
H154 C127 0.930 . S
H155 C128 0.930 . S
H156 C133 0.929 . S
H157 C134 0.931 . S
H158 C136 0.930 . S
H159 C137 0.930 . S
Tb160 C162 2.809 . S
Tb160 O180 2.484 . S
Tb160 O181 2.440 . S
Tb160 O182 2.658 . S
Tb160 O183 2.409 . S
Tb160 O184 2.378 . S
Tb160 O188 2.325 . S
Tb160 O191 2.341 . S
Tb161 C171 2.809 . S
Tb161 O182 2.325 . S
Tb161 O185 2.341 . S
Tb161 O186 2.484 . S
Tb161 O187 2.440 . S
Tb161 O188 2.658 . S
Tb161 O189 2.409 . S
Tb161 O190 2.378 . S
C162 Tb160 2.809 . S
C162 C163 1.514 . S
C162 O180 1.248 . S
C162 O181 1.266 . S
C163 C162 1.514 . S
C163 C164 1.359 . S
C163 C168 1.348 . S
C164 C163 1.359 . S
C164 C165 1.380 . S
C164 H192 0.929 . S
C165 C164 1.380 . S
C165 C166 1.347 . S
C165 H193 0.931 . S
C166 C165 1.347 . S
C166 C167 1.369 . S
C167 C166 1.369 . S
C167 C168 1.408 . S
C167 H194 0.930 . S
C168 C163 1.348 . S
C168 C167 1.408 . S
C168 H195 0.930 . S
C169 O182 1.281 . S
C169 O183 1.254 . S
C170 O184 1.236 . S
C170 O185 1.266 . S
C171 Tb161 2.809 . S
C171 C172 1.514 . S
C171 O186 1.248 . S
C171 O187 1.266 . S
C172 C171 1.514 . S
C172 C173 1.359 . S
C172 C177 1.348 . S
C173 C172 1.359 . S
C173 C174 1.380 . S
C173 H196 0.929 . S
C174 C173 1.380 . S
C174 C175 1.347 . S
C174 H197 0.931 . S
C175 C174 1.347 . S
C175 C176 1.369 . S
C176 C175 1.369 . S
C176 C177 1.408 . S
C176 H198 0.930 . S
C177 C172 1.348 . S
C177 C176 1.408 . S
C177 H199 0.930 . S
C178 O188 1.281 . S
C178 O189 1.254 . S
C179 O190 1.236 . S
C179 O191 1.266 . S
O180 Tb160 2.484 . S
O180 C162 1.248 . S
O181 Tb160 2.440 . S
O181 C162 1.266 . S
O182 Tb160 2.658 . S
O182 Tb161 2.325 . S
O182 C169 1.281 . S
O183 Tb160 2.409 . S
O183 C169 1.254 . S
O184 Tb160 2.378 . S
O184 C170 1.236 . S
O185 Tb161 2.341 . S
O185 C170 1.266 . S
O186 Tb161 2.484 . S
O186 C171 1.248 . S
O187 Tb161 2.440 . S
O187 C171 1.266 . S
O188 Tb160 2.325 . S
O188 Tb161 2.658 . S
O188 C178 1.281 . S
O189 Tb161 2.409 . S
O189 C178 1.254 . S
O190 Tb161 2.378 . S
O190 C179 1.236 . S
O191 Tb160 2.341 . S
O191 C179 1.266 . S
H192 C164 0.929 . S
H193 C165 0.931 . S
H194 C167 0.930 . S
H195 C168 0.930 . S
H196 C173 0.929 . S
H197 C174 0.931 . S
H198 C176 0.930 . S
H199 C177 0.930 . S
Tb200 C202 2.809 . S
Tb200 O220 2.484 . S
Tb200 O221 2.440 . S
Tb200 O222 2.658 . S
Tb200 O223 2.409 . S
Tb200 O224 2.378 . S
Tb200 O228 2.325 . S
Tb200 O231 2.341 . S
Tb201 C211 2.809 . S
Tb201 O222 2.325 . S
Tb201 O225 2.341 . S
Tb201 O226 2.484 . S
Tb201 O227 2.440 . S
Tb201 O228 2.658 . S
Tb201 O229 2.409 . S
Tb201 O230 2.378 . S
C202 Tb200 2.809 . S
C202 C203 1.514 . S
C202 O220 1.248 . S
C202 O221 1.266 . S
C203 C202 1.514 . S
C203 C204 1.359 . S
C203 C208 1.348 . S
C204 C203 1.359 . S
C204 C205 1.380 . S
C204 H232 0.929 . S
C205 C204 1.380 . S
C205 C206 1.347 . S
C205 H233 0.931 . S
C206 C205 1.347 . S
C206 C207 1.369 . S
C207 C206 1.369 . S
C207 C208 1.408 . S
C207 H234 0.930 . S
C208 C203 1.348 . S
C208 C207 1.408 . S
C208 H235 0.930 . S
C209 O222 1.281 . S
C209 O223 1.254 . S
C210 O224 1.236 . S
C210 O225 1.266 . S
C211 Tb201 2.809 . S
C211 C212 1.514 . S
C211 O226 1.248 . S
C211 O227 1.266 . S
C212 C211 1.514 . S
C212 C213 1.359 . S
C212 C217 1.348 . S
C213 C212 1.359 . S
C213 C214 1.380 . S
C213 H236 0.929 . S
C214 C213 1.380 . S
C214 C215 1.347 . S
C214 H237 0.931 . S
C215 C214 1.347 . S
C215 C216 1.369 . S
C216 C215 1.369 . S
C216 C217 1.408 . S
C216 H238 0.930 . S
C217 C212 1.348 . S
C217 C216 1.408 . S
C217 H239 0.930 . S
C218 O228 1.281 . S
C218 O229 1.254 . S
C219 O230 1.236 . S
C219 O231 1.266 . S
O220 Tb200 2.484 . S
O220 C202 1.248 . S
O221 Tb200 2.440 . S
O221 C202 1.266 . S
O222 Tb200 2.658 . S
O222 Tb201 2.325 . S
O222 C209 1.281 . S
O223 Tb200 2.409 . S
O223 C209 1.254 . S
O224 Tb200 2.378 . S
O224 C210 1.236 . S
O225 Tb201 2.341 . S
O225 C210 1.266 . S
O226 Tb201 2.484 . S
O226 C211 1.248 . S
O227 Tb201 2.440 . S
O227 C211 1.266 . S
O228 Tb200 2.325 . S
O228 Tb201 2.658 . S
O228 C218 1.281 . S
O229 Tb201 2.409 . S
O229 C218 1.254 . S
O230 Tb201 2.378 . S
O230 C219 1.236 . S
O231 Tb200 2.341 . S
O231 C219 1.266 . S
H232 C204 0.929 . S
H233 C205 0.931 . S
H234 C207 0.930 . S
H235 C208 0.930 . S
H236 C213 0.929 . S
H237 C214 0.931 . S
H238 C216 0.930 . S
H239 C217 0.930 . S
Tb240 C242 2.809 . S
Tb240 O260 2.484 . S
Tb240 O261 2.440 . S
Tb240 O262 2.658 . S
Tb240 O263 2.409 . S
Tb240 O264 2.378 . S
Tb240 O268 2.325 . S
Tb240 O271 2.341 . S
Tb241 C251 2.809 . S
Tb241 O262 2.325 . S
Tb241 O265 2.341 . S
Tb241 O266 2.484 . S
Tb241 O267 2.440 . S
Tb241 O268 2.658 . S
Tb241 O269 2.409 . S
Tb241 O270 2.378 . S
C242 Tb240 2.809 . S
C242 C243 1.514 . S
C242 O260 1.248 . S
C242 O261 1.266 . S
C243 C242 1.514 . S
C243 C244 1.359 . S
C243 C248 1.348 . S
C244 C243 1.359 . S
C244 C245 1.380 . S
C244 H272 0.929 . S
C245 C244 1.380 . S
C245 C246 1.347 . S
C245 H273 0.931 . S
C246 C245 1.347 . S
C246 C247 1.369 . S
C247 C246 1.369 . S
C247 C248 1.408 . S
C247 H274 0.930 . S
C248 C243 1.348 . S
C248 C247 1.408 . S
C248 H275 0.930 . S
C249 O262 1.281 . S
C249 O263 1.254 . S
C250 O264 1.236 . S
C250 O265 1.266 . S
C251 Tb241 2.809 . S
C251 C252 1.514 . S
C251 O266 1.248 . S
C251 O267 1.266 . S
C252 C251 1.514 . S
C252 C253 1.359 . S
C252 C257 1.348 . S
C253 C252 1.359 . S
C253 C254 1.380 . S
C253 H276 0.929 . S
C254 C253 1.380 . S
C254 C255 1.347 . S
C254 H277 0.931 . S
C255 C254 1.347 . S
C255 C256 1.369 . S
C256 C255 1.369 . S
C256 C257 1.408 . S
C256 H278 0.930 . S
C257 C252 1.348 . S
C257 C256 1.408 . S
C257 H279 0.930 . S
C258 O268 1.281 . S
C258 O269 1.254 . S
C259 O270 1.236 . S
C259 O271 1.266 . S
O260 Tb240 2.484 . S
O260 C242 1.248 . S
O261 Tb240 2.440 . S
O261 C242 1.266 . S
O262 Tb240 2.658 . S
O262 Tb241 2.325 . S
O262 C249 1.281 . S
O263 Tb240 2.409 . S
O263 C249 1.254 . S
O264 Tb240 2.378 . S
O264 C250 1.236 . S
O265 Tb241 2.341 . S
O265 C250 1.266 . S
O266 Tb241 2.484 . S
O266 C251 1.248 . S
O267 Tb241 2.440 . S
O267 C251 1.266 . S
O268 Tb240 2.325 . S
O268 Tb241 2.658 . S
O268 C258 1.281 . S
O269 Tb241 2.409 . S
O269 C258 1.254 . S
O270 Tb241 2.378 . S
O270 C259 1.236 . S
O271 Tb240 2.341 . S
O271 C259 1.266 . S
H272 C244 0.929 . S
H273 C245 0.931 . S
H274 C247 0.930 . S
H275 C248 0.930 . S
H276 C253 0.929 . S
H277 C254 0.931 . S
H278 C256 0.930 . S
H279 C257 0.930 . S
Tb280 C282 2.809 . S
Tb280 O300 2.484 . S
Tb280 O301 2.440 . S
Tb280 O302 2.658 . S
Tb280 O303 2.409 . S
Tb280 O304 2.378 . S
Tb280 O308 2.325 . S
Tb280 O311 2.341 . S
Tb281 C291 2.809 1_655 S
Tb281 O302 2.325 . S
Tb281 O305 2.341 . S
Tb281 O306 2.484 1_655 S
Tb281 O307 2.440 1_655 S
Tb281 O308 2.658 . S
Tb281 O309 2.409 . S
Tb281 O310 2.378 . S
C282 Tb280 2.809 . S
C282 C283 1.514 . S
C282 O300 1.248 . S
C282 O301 1.266 . S
C283 C282 1.514 . S
C283 C284 1.359 . S
C283 C288 1.348 . S
C284 C283 1.359 . S
C284 C285 1.380 . S
C284 H312 0.929 . S
C285 C284 1.380 . S
C285 C286 1.347 . S
C285 H313 0.931 . S
C286 C285 1.347 . S
C286 C287 1.369 . S
C287 C286 1.369 . S
C287 C288 1.408 . S
C287 H314 0.930 . S
C288 C283 1.348 . S
C288 C287 1.408 . S
C288 H315 0.930 . S
C289 O302 1.281 . S
C289 O303 1.254 . S
C290 O304 1.236 . S
C290 O305 1.266 . S
C291 Tb281 2.809 1_455 S
C291 C292 1.514 . S
C291 O306 1.248 . S
C291 O307 1.266 . S
C292 C291 1.514 . S
C292 C293 1.359 . S
C292 C297 1.348 . S
C293 C292 1.359 . S
C293 C294 1.380 . S
C293 H316 0.929 . S
C294 C293 1.380 . S
C294 C295 1.347 . S
C294 H317 0.931 . S
C295 C294 1.347 . S
C295 C296 1.369 . S
C296 C295 1.369 . S
C296 C297 1.408 . S
C296 H318 0.930 . S
C297 C292 1.348 . S
C297 C296 1.408 . S
C297 H319 0.930 . S
C298 O308 1.281 . S
C298 O309 1.254 . S
C299 O310 1.236 . S
C299 O311 1.266 . S
O300 Tb280 2.484 . S
O300 C282 1.248 . S
O301 Tb280 2.440 . S
O301 C282 1.266 . S
O302 Tb280 2.658 . S
O302 Tb281 2.325 . S
O302 C289 1.281 . S
O303 Tb280 2.409 . S
O303 C289 1.254 . S
O304 Tb280 2.378 . S
O304 C290 1.236 . S
O305 Tb281 2.341 . S
O305 C290 1.266 . S
O306 Tb281 2.484 1_455 S
O306 C291 1.248 . S
O307 Tb281 2.440 1_455 S
O307 C291 1.266 . S
O308 Tb280 2.325 . S
O308 Tb281 2.658 . S
O308 C298 1.281 . S
O309 Tb281 2.409 . S
O309 C298 1.254 . S
O310 Tb281 2.378 . S
O310 C299 1.236 . S
O311 Tb280 2.341 . S
O311 C299 1.266 . S
H312 C284 0.929 . S
H313 C285 0.931 . S
H314 C287 0.930 . S
H315 C288 0.930 . S
H316 C293 0.929 . S
H317 C294 0.931 . S
H318 C296 0.930 . S
H319 C297 0.930 . S
Tb320 C322 2.809 . S
Tb320 O340 2.484 . S
Tb320 O341 2.440 . S
Tb320 O342 2.658 . S
Tb320 O343 2.409 . S
Tb320 O344 2.378 . S
Tb320 O348 2.325 . S
Tb320 O351 2.341 . S
Tb321 C331 2.809 . S
Tb321 O342 2.325 . S
Tb321 O345 2.341 . S
Tb321 O346 2.484 . S
Tb321 O347 2.440 . S
Tb321 O348 2.658 . S
Tb321 O349 2.409 1_655 S
Tb321 O350 2.378 . S
C322 Tb320 2.809 . S
C322 C323 1.514 . S
C322 O340 1.248 . S
C322 O341 1.266 . S
C323 C322 1.514 . S
C323 C324 1.359 1_655 S
C323 C328 1.348 . S
C324 C323 1.359 1_455 S
C324 C325 1.380 . S
C324 H352 0.929 . S
C325 C324 1.380 . S
C325 C326 1.347 . S
C325 H353 0.931 . S
C326 C325 1.347 . S
C326 C327 1.369 1_455 S
C327 C326 1.369 1_655 S
C327 C328 1.408 . S
C327 H354 0.930 . S
C328 C323 1.348 . S
C328 C327 1.408 . S
C328 H355 0.930 . S
C329 O342 1.281 . S
C329 O343 1.254 . S
C330 O344 1.236 . S
C330 O345 1.266 . S
C331 Tb321 2.809 . S
C331 C332 1.514 . S
C331 O346 1.248 . S
C331 O347 1.266 . S
C332 C331 1.514 . S
C332 C333 1.359 . S
C332 C337 1.348 . S
C333 C332 1.359 . S
C333 C334 1.380 . S
C333 H356 0.929 . S
C334 C333 1.380 . S
C334 C335 1.347 . S
C334 H357 0.931 . S
C335 C334 1.347 . S
C335 C336 1.369 . S
C336 C335 1.369 . S
C336 C337 1.408 . S
C336 H358 0.930 . S
C337 C332 1.348 . S
C337 C336 1.408 . S
C337 H359 0.930 . S
C338 O348 1.281 1_455 S
C338 O349 1.254 . S
C339 O350 1.236 . S
C339 O351 1.266 . S
O340 Tb320 2.484 . S
O340 C322 1.248 . S
O341 Tb320 2.440 . S
O341 C322 1.266 . S
O342 Tb320 2.658 . S
O342 Tb321 2.325 . S
O342 C329 1.281 . S
O343 Tb320 2.409 . S
O343 C329 1.254 . S
O344 Tb320 2.378 . S
O344 C330 1.236 . S
O345 Tb321 2.341 . S
O345 C330 1.266 . S
O346 Tb321 2.484 . S
O346 C331 1.248 . S
O347 Tb321 2.440 . S
O347 C331 1.266 . S
O348 Tb320 2.325 . S
O348 Tb321 2.658 . S
O348 C338 1.281 1_655 S
O349 Tb321 2.409 1_455 S
O349 C338 1.254 . S
O350 Tb321 2.378 . S
O350 C339 1.236 . S
O351 Tb320 2.341 . S
O351 C339 1.266 . S
H352 C324 0.929 . S
H353 C325 0.931 . S
H354 C327 0.930 . S
H355 C328 0.930 . S
H356 C333 0.929 . S
H357 C334 0.931 . S
H358 C336 0.930 . S
H359 C337 0.930 . S
H360 C368 0.929 . S
H361 C370 0.930 . S
H362 C372 0.930 . S
H363 C375 0.929 . S
H364 C378 0.930 . S
H365 C380 0.960 . S
H366 C380 0.960 . S
H367 C380 0.960 . S
C368 H360 0.929 . S
C368 C369 1.377 . S
C368 C370 1.384 . S
C369 C368 1.377 . S
C369 C375 1.390 . S
C370 H361 0.930 . S
C370 C368 1.384 . S
C370 C371 1.372 . S
C371 C370 1.372 . S
C371 C372 1.400 . S
C371 C376 1.490 . S
C372 H362 0.930 . S
C372 C371 1.400 . S
C372 C375 1.386 . S
H373 C389 0.930 . S
H374 C390 0.931 . S
C375 H363 0.929 . S
C375 C369 1.390 . S
C375 C372 1.386 . S
C376 C371 1.490 . S
C376 C378 1.395 . S
C376 C379 1.403 . S
H377 C383 0.930 . S
C378 H364 0.930 . S
C378 C376 1.395 . S
C378 C381 1.403 . S
C379 C376 1.403 . S
C379 C380 1.524 . S
C379 C383 1.400 . S
C380 H365 0.960 . S
C380 H366 0.960 . S
C380 H367 0.960 . S
C380 C379 1.524 . S
C381 C378 1.403 . S
C381 C382 1.392 . S
C381 C385 1.495 . S
C382 C381 1.392 . S
C382 C383 1.385 . S
C382 C384 1.478 . S
C383 H377 0.930 . S
C383 C379 1.400 . S
C383 C382 1.385 . S
C384 C382 1.478 . S
C384 C386 1.381 . S
C384 C390 1.383 . S
C385 C381 1.495 . S
C385 H391 0.959 . S
C385 H392 0.961 . S
C385 H393 0.960 . S
C386 C384 1.381 . S
C386 C387 1.394 . S
C386 H394 0.930 . S
C387 C386 1.394 . S
C387 C388 1.383 . S
C387 H395 0.929 . S
C388 C387 1.383 . S
C388 C389 1.377 . S
C389 H373 0.930 . S
C389 C388 1.377 . S
C389 C390 1.379 . S
C390 H374 0.931 . S
C390 C384 1.383 . S
C390 C389 1.379 . S
H391 C385 0.959 . S
H392 C385 0.961 . S
H393 C385 0.960 . S
H394 C386 0.930 . S
H395 C387 0.929 . S
H396 C404 0.929 . S
H397 C406 0.930 . S
H398 C408 0.930 . S
H399 C411 0.929 . S
H400 C414 0.930 . S
H401 C416 0.960 . S
H402 C416 0.960 . S
H403 C416 0.960 . S
C404 H396 0.929 . S
C404 C405 1.377 . S
C404 C406 1.384 . S
C405 C404 1.377 . S
C405 C411 1.390 . S
C406 H397 0.930 . S
C406 C404 1.384 . S
C406 C407 1.372 . S
C407 C406 1.372 . S
C407 C408 1.400 . S
C407 C412 1.490 . S
C408 H398 0.930 . S
C408 C407 1.400 . S
C408 C411 1.386 . S
H409 C425 0.930 . S
H410 C426 0.931 . S
C411 H399 0.929 . S
C411 C405 1.390 . S
C411 C408 1.386 . S
C412 C407 1.490 . S
C412 C414 1.395 . S
C412 C415 1.403 . S
H413 C419 0.930 . S
C414 H400 0.930 . S
C414 C412 1.395 . S
C414 C417 1.403 . S
C415 C412 1.403 . S
C415 C416 1.524 . S
C415 C419 1.400 . S
C416 H401 0.960 . S
C416 H402 0.960 . S
C416 H403 0.960 . S
C416 C415 1.524 . S
C417 C414 1.403 . S
C417 C418 1.392 . S
C417 C421 1.495 . S
C418 C417 1.392 . S
C418 C419 1.385 . S
C418 C420 1.478 . S
C419 H413 0.930 . S
C419 C415 1.400 . S
C419 C418 1.385 . S
C420 C418 1.478 . S
C420 C422 1.381 . S
C420 C426 1.383 . S
C421 C417 1.495 . S
C421 H427 0.959 . S
C421 H428 0.961 . S
C421 H429 0.960 . S
C422 C420 1.381 . S
C422 C423 1.394 . S
C422 H430 0.930 . S
C423 C422 1.394 . S
C423 C424 1.383 . S
C423 H431 0.929 . S
C424 C423 1.383 . S
C424 C425 1.377 . S
C425 H409 0.930 . S
C425 C424 1.377 . S
C425 C426 1.379 . S
C426 H410 0.931 . S
C426 C420 1.383 . S
C426 C425 1.379 . S
H427 C421 0.959 . S
H428 C421 0.961 . S
H429 C421 0.960 . S
H430 C422 0.930 . S
H431 C423 0.929 . S
H432 C440 0.929 . S
H433 C442 0.930 . S
H434 C444 0.930 . S
H435 C447 0.929 . S
H436 C450 0.883 1_565 S
H437 C452 0.960 . S
H438 C452 0.960 . S
H439 C452 0.960 . S
C440 H432 0.929 . S
C440 C441 1.377 . S
C440 C442 1.384 . S
C441 C440 1.377 . S
C441 C447 1.390 . S
C442 H433 0.930 . S
C442 C440 1.384 . S
C442 C443 1.372 . S
C443 C442 1.372 . S
C443 C444 1.400 . S
C443 C448 1.490 . S
C444 H434 0.930 . S
C444 C443 1.400 . S
C444 C447 1.386 . S
H445 C461 0.930 . S
H446 C462 0.931 . S
C447 H435 0.929 . S
C447 C441 1.390 . S
C447 C444 1.386 . S
C448 C443 1.490 . S
C448 C450 1.443 . S
C448 C451 1.403 . S
H449 C455 0.930 . S
C450 H436 0.883 1_545 S
C450 C448 1.443 . S
C450 C453 1.403 . S
C451 C448 1.403 . S
C451 C452 1.524 . S
C451 C455 1.400 . S
C452 H437 0.960 . S
C452 H438 0.960 . S
C452 H439 0.960 . S
C452 C451 1.524 . S
C453 C450 1.403 . S
C453 C454 1.394 . S
C453 C457 1.493 1_545 S
C454 C453 1.394 . S
C454 C455 1.385 . S
C454 C456 1.478 . S
C455 H449 0.930 . S
C455 C451 1.400 . S
C455 C454 1.385 . S
C456 C454 1.478 . S
C456 C458 1.381 . S
C456 C462 1.383 . S
C457 C453 1.493 1_565 S
C457 H463 0.959 . S
C457 H464 0.961 . S
C457 H465 0.960 . S
C458 C456 1.381 . S
C458 C459 1.394 . S
C458 H466 0.930 . S
C459 C458 1.394 . S
C459 C460 1.383 . S
C459 H467 0.929 . S
C460 C459 1.383 . S
C460 C461 1.377 . S
C461 H445 0.930 . S
C461 C460 1.377 . S
C461 C462 1.379 . S
C462 H446 0.931 . S
C462 C456 1.383 . S
C462 C461 1.379 . S
H463 C457 0.959 . S
H464 C457 0.961 . S
H465 C457 0.960 . S
H466 C458 0.930 . S
H467 C459 0.929 . S
H468 C476 0.929 . S
H469 C478 0.930 . S
H470 C480 0.930 . S
H471 C483 0.929 . S
H472 C486 0.930 . S
H473 C488 0.960 . S
H474 C488 0.960 . S
H475 C488 0.960 . S
C476 H468 0.929 . S
C476 C477 1.377 . S
C476 C478 1.384 . S
C477 C476 1.377 . S
C477 C483 1.390 . S
C478 H469 0.930 . S
C478 C476 1.384 . S
C478 C479 1.372 . S
C479 C478 1.372 . S
C479 C480 1.400 . S
C479 C484 1.490 . S
C480 H470 0.930 . S
C480 C479 1.400 . S
C480 C483 1.386 . S
H481 C497 0.930 . S
H482 C498 0.931 . S
C483 H471 0.929 . S
C483 C477 1.390 . S
C483 C480 1.386 . S
C484 C479 1.490 . S
C484 C486 1.395 . S
C484 C487 1.403 . S
H485 C491 0.930 . S
C486 H472 0.930 . S
C486 C484 1.395 . S
C486 C489 1.403 . S
C487 C484 1.403 . S
C487 C488 1.524 . S
C487 C491 1.400 . S
C488 H473 0.960 . S
C488 H474 0.960 . S
C488 H475 0.960 . S
C488 C487 1.524 . S
C489 C486 1.403 . S
C489 C490 1.392 . S
C489 C493 1.495 . S
C490 C489 1.392 . S
C490 C491 1.385 . S
C490 C492 1.478 . S
C491 H485 0.930 . S
C491 C487 1.400 . S
C491 C490 1.385 . S
C492 C490 1.478 . S
C492 C494 1.381 . S
C492 C498 1.383 . S
C493 C489 1.495 . S
C493 H499 0.959 . S
C493 H500 0.961 . S
C493 H501 0.960 . S
C494 C492 1.381 . S
C494 C495 1.394 1_556 S
C494 H502 0.930 . S
C495 C494 1.394 1_554 S
C495 C496 1.383 . S
C495 H503 0.929 . S
C496 C495 1.383 . S
C496 C497 1.377 . S
C497 H481 0.930 . S
C497 C496 1.377 . S
C497 C498 1.379 1_554 S
C498 H482 0.931 . S
C498 C492 1.383 . S
C498 C497 1.379 1_556 S
H499 C493 0.959 . S
H500 C493 0.961 . S
H501 C493 0.960 . S
H502 C494 0.930 . S
H503 C495 0.929 . S
H504 C512 0.929 . S
H505 C514 0.930 . S
H506 C516 0.930 . S
H507 C519 0.929 . S
H508 C522 0.930 . S
H509 C524 0.960 . S
H510 C524 0.960 . S
H511 C524 0.960 . S
C512 H504 0.929 . S
C512 C513 1.377 . S
C512 C514 1.384 . S
C513 C512 1.377 . S
C513 C519 1.390 . S
C514 H505 0.930 . S
C514 C512 1.384 . S
C514 C515 1.372 . S
C515 C514 1.372 . S
C515 C516 1.400 . S
C515 C520 1.490 . S
C516 H506 0.930 . S
C516 C515 1.400 . S
C516 C519 1.386 . S
H517 C533 0.930 . S
H518 C534 0.931 . S
C519 H507 0.929 . S
C519 C513 1.390 . S
C519 C516 1.386 . S
C520 C515 1.490 . S
C520 C522 1.395 . S
C520 C523 1.403 . S
H521 C527 0.930 . S
C522 H508 0.930 . S
C522 C520 1.395 . S
C522 C525 1.403 . S
C523 C520 1.403 . S
C523 C524 1.524 . S
C523 C527 1.400 . S
C524 H509 0.960 . S
C524 H510 0.960 . S
C524 H511 0.960 . S
C524 C523 1.524 . S
C525 C522 1.403 . S
C525 C526 1.392 . S
C525 C529 1.495 . S
C526 C525 1.392 . S
C526 C527 1.385 . S
C526 C528 1.478 . S
C527 H521 0.930 . S
C527 C523 1.400 . S
C527 C526 1.385 . S
C528 C526 1.478 . S
C528 C530 1.381 . S
C528 C534 1.383 . S
C529 C525 1.495 . S
C529 H535 0.959 . S
C529 H536 0.961 . S
C529 H537 0.960 . S
C530 C528 1.381 . S
C530 C531 1.394 1_556 S
C530 H538 0.930 . S
C531 C530 1.394 1_554 S
C531 C532 1.383 . S
C531 H539 0.929 . S
C532 C531 1.383 . S
C532 C533 1.377 . S
C533 H517 0.930 . S
C533 C532 1.377 . S
C533 C534 1.379 1_554 S
C534 H518 0.931 . S
C534 C528 1.383 . S
C534 C533 1.379 1_556 S
H535 C529 0.959 . S
H536 C529 0.961 . S
H537 C529 0.960 . S
H538 C530 0.930 . S
H539 C531 0.929 . S
H540 C548 0.929 . S
H541 C550 0.930 . S
H542 C552 0.930 . S
H543 C555 0.929 . S
H544 C558 0.930 . S
H545 C560 0.960 . S
H546 C560 0.960 . S
H547 C560 0.960 . S
C548 H540 0.929 . S
C548 C549 1.377 . S
C548 C550 1.384 . S
C549 C548 1.377 . S
C549 C555 1.390 . S
C550 H541 0.930 . S
C550 C548 1.384 . S
C550 C551 1.372 . S
C551 C550 1.372 . S
C551 C552 1.400 . S
C551 C556 1.490 . S
C552 H542 0.930 . S
C552 C551 1.400 . S
C552 C555 1.386 . S
H553 C569 0.930 . S
H554 C570 0.931 . S
C555 H543 0.929 . S
C555 C549 1.390 . S
C555 C552 1.386 . S
C556 C551 1.490 . S
C556 C558 1.395 . S
C556 C559 1.403 . S
H557 C563 0.930 . S
C558 H544 0.930 . S
C558 C556 1.395 . S
C558 C561 1.403 . S
C559 C556 1.403 . S
C559 C560 1.524 . S
C559 C563 1.400 . S
C560 H545 0.960 . S
C560 H546 0.960 . S
C560 H547 0.960 . S
C560 C559 1.524 . S
C561 C558 1.403 . S
C561 C562 1.392 . S
C561 C565 1.495 . S
C562 C561 1.392 . S
C562 C563 1.385 . S
C562 C564 1.478 . S
C563 H557 0.930 . S
C563 C559 1.400 . S
C563 C562 1.385 . S
C564 C562 1.478 . S
C564 C566 1.381 . S
C564 C570 1.383 . S
C565 C561 1.495 . S
C565 H571 0.959 . S
C565 H572 0.961 . S
C565 H573 0.960 . S
C566 C564 1.381 . S
C566 C567 1.394 1_556 S
C566 H574 0.930 . S
C567 C566 1.394 1_554 S
C567 C568 1.383 . S
C567 H575 0.929 . S
C568 C567 1.383 . S
C568 C569 1.377 . S
C569 H553 0.930 . S
C569 C568 1.377 . S
C569 C570 1.379 1_554 S
C570 H554 0.931 . S
C570 C564 1.383 . S
C570 C569 1.379 1_556 S
H571 C565 0.959 . S
H572 C565 0.961 . S
H573 C565 0.960 . S
H574 C566 0.930 . S
H575 C567 0.929 . S
H576 C584 0.929 . S
H577 C586 0.930 . S
H578 C588 0.930 . S
H579 C591 0.929 . S
H580 C594 0.930 . S
H581 C596 0.960 . S
H582 C596 0.960 . S
H583 C596 0.960 . S
C584 H576 0.929 . S
C584 C585 1.377 . S
C584 C586 1.384 . S
C585 C584 1.377 . S
C585 C591 1.390 . S
C586 H577 0.930 . S
C586 C584 1.384 . S
C586 C587 1.372 . S
C587 C586 1.372 . S
C587 C588 1.400 . S
C587 C592 1.490 . S
C588 H578 0.930 . S
C588 C587 1.400 . S
C588 C591 1.386 . S
H589 C605 0.930 . S
H590 C606 0.931 1_554 S
C591 H579 0.929 . S
C591 C585 1.390 . S
C591 C588 1.386 . S
C592 C587 1.490 . S
C592 C594 1.395 . S
C592 C595 1.403 . S
H593 C599 0.930 . S
C594 H580 0.930 . S
C594 C592 1.395 . S
C594 C597 1.403 . S
C595 C592 1.403 . S
C595 C596 1.524 . S
C595 C599 1.400 . S
C596 H581 0.960 . S
C596 H582 0.960 . S
C596 H583 0.960 . S
C596 C595 1.524 . S
C597 C594 1.403 . S
C597 C598 1.392 . S
C597 C601 1.495 . S
C598 C597 1.392 . S
C598 C599 1.385 . S
C598 C600 1.478 . S
C599 H593 0.930 . S
C599 C595 1.400 . S
C599 C598 1.385 . S
C600 C598 1.478 . S
C600 C602 1.381 1_554 S
C600 C606 1.383 1_554 S
C601 C597 1.495 . S
C601 H607 0.959 . S
C601 H608 0.961 . S
C601 H609 0.960 . S
C602 C600 1.381 1_556 S
C602 C603 1.394 . S
C602 H610 0.930 1_556 S
C603 C602 1.394 . S
C603 C604 1.383 . S
C603 H611 0.929 . S
C604 C603 1.383 . S
C604 C605 1.377 . S
C605 H589 0.930 . S
C605 C604 1.377 . S
C605 C606 1.379 . S
C606 H590 0.931 1_556 S
C606 C600 1.383 1_556 S
C606 C605 1.379 . S
H607 C601 0.959 . S
H608 C601 0.961 . S
H609 C601 0.960 . S
H610 C602 0.930 1_554 S
H611 C603 0.929 . S
H612 C620 0.929 . S
H613 C622 0.930 . S
H614 C624 0.930 1_455 S
H615 C627 0.870 1_455 S
H616 C630 0.930 . S
H617 C632 0.960 . S
H618 C632 0.960 . S
H619 C632 0.960 . S
C620 H612 0.929 . S
C620 C621 1.377 . S
C620 C622 1.384 . S
C621 C620 1.377 . S
C621 C627 1.444 . S
C622 H613 0.930 . S
C622 C620 1.384 . S
C622 C623 1.372 . S
C623 C622 1.372 . S
C623 C624 1.400 . S
C623 C628 1.490 . S
C624 H614 0.930 1_655 S
C624 C623 1.400 . S
C624 C627 1.394 . S
H625 C641 0.930 . S
H626 C642 0.931 1_554 S
C627 H615 0.870 1_655 S
C627 C621 1.444 . S
C627 C624 1.394 . S
C628 C623 1.490 . S
C628 C630 1.395 . S
C628 C631 1.403 . S
H629 C635 0.930 . S
C630 H616 0.930 . S
C630 C628 1.395 . S
C630 C633 1.403 . S
C631 C628 1.403 . S
C631 C632 1.524 . S
C631 C635 1.400 . S
C632 H617 0.960 . S
C632 H618 0.960 . S
C632 H619 0.960 . S
C632 C631 1.524 . S
C633 C630 1.403 . S
C633 C634 1.392 . S
C633 C637 1.495 . S
C634 C633 1.392 . S
C634 C635 1.385 . S
C634 C636 1.478 . S
C635 H629 0.930 . S
C635 C631 1.400 . S
C635 C634 1.385 . S
C636 C634 1.478 . S
C636 C638 1.379 1_554 S
C636 C642 1.383 1_554 S
C637 C633 1.495 . S
C637 H643 0.959 . S
C637 H644 0.961 . S
C637 H645 0.960 . S
C638 C636 1.379 1_556 S
C638 C639 1.399 . S
C638 H646 0.927 1_556 S
C639 C638 1.399 . S
C639 C640 1.383 . S
C639 H647 0.929 . S
C640 C639 1.383 . S
C640 C641 1.377 . S
C641 H625 0.930 . S
C641 C640 1.377 . S
C641 C642 1.379 . S
C642 H626 0.931 1_556 S
C642 C636 1.383 1_556 S
C642 C641 1.379 . S
H643 C637 0.959 . S
H644 C637 0.961 . S
H645 C637 0.960 . S
H646 C638 0.927 1_554 S
H647 C639 0.929 . S
H648 C656 0.929 . S
H649 C658 0.930 . S
H650 C660 0.930 . S
H651 C663 0.929 . S
H652 C666 0.930 . S
H653 C668 0.960 . S
H654 C668 0.960 . S
H655 C668 0.960 . S
C656 H648 0.929 . S
C656 C657 1.377 . S
C656 C658 1.384 . S
C657 C656 1.377 . S
C657 C663 1.390 . S
C658 H649 0.930 . S
C658 C656 1.384 . S
C658 C659 1.372 . S
C659 C658 1.372 . S
C659 C660 1.400 . S
C659 C664 1.490 . S
C660 H650 0.930 . S
C660 C659 1.400 . S
C660 C663 1.386 . S
H661 C677 0.930 . S
H662 C678 0.931 1_554 S
C663 H651 0.929 . S
C663 C657 1.390 . S
C663 C660 1.386 . S
C664 C659 1.490 . S
C664 C666 1.395 . S
C664 C667 1.403 . S
H665 C671 0.930 . S
C666 H652 0.930 . S
C666 C664 1.395 . S
C666 C669 1.403 . S
C667 C664 1.403 . S
C667 C668 1.524 . S
C667 C671 1.400 . S
C668 H653 0.960 . S
C668 H654 0.960 . S
C668 H655 0.960 . S
C668 C667 1.524 . S
C669 C666 1.403 . S
C669 C670 1.392 . S
C669 C673 1.495 . S
C670 C669 1.392 . S
C670 C671 1.385 . S
C670 C672 1.478 . S
C671 H665 0.930 . S
C671 C667 1.400 . S
C671 C670 1.385 . S
C672 C670 1.478 . S
C672 C674 1.381 . S
C672 C678 1.383 1_554 S
C673 C669 1.495 . S
C673 H679 0.959 . S
C673 H680 0.961 . S
C673 H681 0.960 . S
C674 C672 1.381 . S
C674 C675 1.394 1_554 S
C674 H682 0.930 . S
C675 C674 1.394 1_556 S
C675 C676 1.383 . S
C675 H683 0.929 1_655 S
C676 C675 1.383 . S
C676 C677 1.377 . S
C677 H661 0.930 . S
C677 C676 1.377 . S
C677 C678 1.379 . S
C678 H662 0.931 1_556 S
C678 C672 1.383 1_556 S
C678 C677 1.379 . S
H679 C673 0.959 . S
H680 C673 0.961 . S
H681 C673 0.960 . S
H682 C674 0.930 . S
H683 C675 0.929 1_455 S
H684 C692 0.929 . S
H685 C694 0.930 . S
H686 C696 0.930 . S
H687 C699 0.929 . S
H688 C702 0.930 . S
H689 C704 0.960 . S
H690 C704 0.960 . S
H691 C704 0.960 . S
C692 H684 0.929 . S
C692 C693 1.377 . S
C692 C694 1.384 . S
C693 C692 1.377 . S
C693 C699 1.390 . S
C694 H685 0.930 . S
C694 C692 1.384 . S
C694 C695 1.372 . S
C695 C694 1.372 . S
C695 C696 1.400 . S
C695 C700 1.490 . S
C696 H686 0.930 . S
C696 C695 1.400 . S
C696 C699 1.386 . S
H697 C713 0.930 . S
H698 C714 0.931 . S
C699 H687 0.929 . S
C699 C693 1.390 . S
C699 C696 1.386 . S
C700 C695 1.490 . S
C700 C702 1.395 . S
C700 C703 1.403 . S
H701 C707 0.930 . S
C702 H688 0.930 . S
C702 C700 1.395 . S
C702 C705 1.403 . S
C703 C700 1.403 . S
C703 C704 1.524 . S
C703 C707 1.400 . S
C704 H689 0.960 . S
C704 H690 0.960 . S
C704 H691 0.960 . S
C704 C703 1.524 . S
C705 C702 1.403 . S
C705 C706 1.392 . S
C705 C709 1.495 . S
C706 C705 1.392 . S
C706 C707 1.385 . S
C706 C708 1.478 . S
C707 H701 0.930 . S
C707 C703 1.400 . S
C707 C706 1.385 . S
C708 C706 1.478 . S
C708 C710 1.381 . S
C708 C714 1.383 . S
C709 C705 1.495 . S
C709 H715 0.959 . S
C709 H716 0.961 . S
C709 H717 0.960 . S
C710 C708 1.381 . S
C710 C711 1.394 . S
C710 H718 0.930 . S
C711 C710 1.394 . S
C711 C712 1.383 . S
C711 H719 0.929 . S
C712 C711 1.383 . S
C712 C713 1.377 . S
C713 H697 0.930 . S
C713 C712 1.377 . S
C713 C714 1.379 . S
C714 H698 0.931 . S
C714 C708 1.383 . S
C714 C713 1.379 . S
H715 C709 0.959 . S
H716 C709 0.961 . S
H717 C709 0.960 . S
H718 C710 0.930 . S
H719 C711 0.929 . S
H720 C728 0.929 . S
H721 C730 0.930 . S
H722 C732 0.930 . S
H723 C735 0.929 . S
H724 C738 0.930 . S
H725 C740 0.960 . S
H726 C740 0.960 . S
H727 C740 0.960 . S
C728 H720 0.929 . S
C728 C729 1.377 . S
C728 C730 1.384 . S
C729 C728 1.377 . S
C729 C735 1.390 . S
C730 H721 0.930 . S
C730 C728 1.384 . S
C730 C731 1.372 . S
C731 C730 1.372 . S
C731 C732 1.400 . S
C731 C736 1.490 . S
C732 H722 0.930 . S
C732 C731 1.400 . S
C732 C735 1.386 . S
H733 C749 0.930 . S
H734 C750 0.931 . S
C735 H723 0.929 . S
C735 C729 1.390 . S
C735 C732 1.386 . S
C736 C731 1.490 . S
C736 C738 1.395 . S
C736 C739 1.403 . S
H737 C743 0.930 . S
C738 H724 0.930 . S
C738 C736 1.395 . S
C738 C741 1.403 . S
C739 C736 1.403 . S
C739 C740 1.524 . S
C739 C743 1.400 . S
C740 H725 0.960 . S
C740 H726 0.960 . S
C740 H727 0.960 . S
C740 C739 1.524 . S
C741 C738 1.403 . S
C741 C742 1.392 . S
C741 C745 1.495 . S
C742 C741 1.392 . S
C742 C743 1.385 . S
C742 C744 1.478 . S
C743 H737 0.930 . S
C743 C739 1.400 . S
C743 C742 1.385 . S
C744 C742 1.478 . S
C744 C746 1.381 . S
C744 C750 1.383 . S
C745 C741 1.495 . S
C745 H751 0.959 . S
C745 H752 0.961 . S
C745 H753 0.960 . S
C746 C744 1.381 . S
C746 C747 1.394 . S
C746 H754 0.930 . S
C747 C746 1.394 . S
C747 C748 1.383 . S
C747 H755 0.929 . S
C748 C747 1.383 . S
C748 C749 1.377 . S
C749 H733 0.930 . S
C749 C748 1.377 . S
C749 C750 1.379 . S
C750 H734 0.931 . S
C750 C744 1.383 . S
C750 C749 1.379 . S
H751 C745 0.959 . S
H752 C745 0.961 . S
H753 C745 0.960 . S
H754 C746 0.930 . S
H755 C747 0.929 . S
H756 C764 0.929 . S
H757 C766 0.930 . S
H758 C768 0.930 . S
H759 C771 0.929 . S
H760 C774 0.930 . S
H761 C776 0.960 . S
H762 C776 0.960 . S
H763 C776 0.960 . S
C764 H756 0.929 . S
C764 C765 1.377 . S
C764 C766 1.384 . S
C765 C764 1.377 . S
C765 C771 1.390 . S
C766 H757 0.930 . S
C766 C764 1.384 . S
C766 C767 1.372 . S
C767 C766 1.372 . S
C767 C768 1.400 . S
C767 C772 1.490 . S
C768 H758 0.930 . S
C768 C767 1.400 . S
C768 C771 1.386 . S
H769 C785 0.930 . S
H770 C786 0.931 . S
C771 H759 0.929 . S
C771 C765 1.390 . S
C771 C768 1.386 . S
C772 C767 1.490 . S
C772 C774 1.395 . S
C772 C775 1.403 . S
H773 C779 0.930 . S
C774 H760 0.930 . S
C774 C772 1.395 . S
C774 C777 1.403 . S
C775 C772 1.403 . S
C775 C776 1.524 . S
C775 C779 1.400 . S
C776 H761 0.960 . S
C776 H762 0.960 . S
C776 H763 0.960 . S
C776 C775 1.524 . S
C777 C774 1.403 . S
C777 C778 1.392 . S
C777 C781 1.495 . S
C778 C777 1.392 . S
C778 C779 1.385 . S
C778 C780 1.478 . S
C779 H773 0.930 . S
C779 C775 1.400 . S
C779 C778 1.385 . S
C780 C778 1.478 . S
C780 C782 1.381 . S
C780 C786 1.383 . S
C781 C777 1.495 . S
C781 H787 0.959 . S
C781 H788 0.961 . S
C781 H789 0.960 . S
C782 C780 1.381 . S
C782 C783 1.394 . S
C782 H790 0.930 . S
C783 C782 1.394 . S
C783 C784 1.383 . S
C783 H791 0.929 . S
C784 C783 1.383 . S
C784 C785 1.377 . S
C785 H769 0.930 . S
C785 C784 1.377 . S
C785 C786 1.379 . S
C786 H770 0.931 . S
C786 C780 1.383 . S
C786 C785 1.379 . S
H787 C781 0.959 . S
H788 C781 0.961 . S
H789 C781 0.960 . S
H790 C782 0.930 . S
H791 C783 0.929 . S
H792 C800 0.929 . S
H793 C802 0.930 . S
H794 C804 0.930 1_556 S
H795 C807 0.929 . S
H796 C810 0.930 . S
H797 C812 0.960 . S
H798 C812 0.960 . S
H799 C812 0.960 . S
C800 H792 0.929 . S
C800 C801 1.377 . S
C800 C802 1.384 . S
C801 C800 1.377 . S
C801 C807 1.390 . S
C802 H793 0.930 . S
C802 C800 1.384 . S
C802 C803 1.374 . S
C803 C802 1.374 . S
C803 C804 1.400 . S
C803 C808 1.488 1_554 S
C804 H794 0.930 1_554 S
C804 C803 1.400 . S
C804 C807 1.386 . S
H805 C821 0.930 . S
H806 C822 0.931 . S
C807 H795 0.929 . S
C807 C801 1.390 . S
C807 C804 1.386 . S
C808 C803 1.488 1_556 S
C808 C810 1.395 . S
C808 C811 1.403 . S
H809 C815 0.930 . S
C810 H796 0.930 . S
C810 C808 1.395 . S
C810 C813 1.403 . S
C811 C808 1.403 . S
C811 C812 1.524 1_556 S
C811 C815 1.400 . S
C812 H797 0.960 . S
C812 H798 0.960 . S
C812 H799 0.960 . S
C812 C811 1.524 1_554 S
C813 C810 1.403 . S
C813 C814 1.392 . S
C813 C817 1.495 . S
C814 C813 1.392 . S
C814 C815 1.385 . S
C814 C816 1.478 . S
C815 H809 0.930 . S
C815 C811 1.400 . S
C815 C814 1.385 . S
C816 C814 1.478 . S
C816 C818 1.381 . S
C816 C822 1.383 . S
C817 C813 1.495 . S
C817 H823 0.959 . S
C817 H824 0.961 . S
C817 H825 0.960 . S
C818 C816 1.381 . S
C818 C819 1.394 . S
C818 H826 0.930 . S
C819 C818 1.394 . S
C819 C820 1.383 . S
C819 H827 0.929 . S
C820 C819 1.383 . S
C820 C821 1.377 . S
C821 H805 0.930 . S
C821 C820 1.377 . S
C821 C822 1.379 . S
C822 H806 0.931 . S
C822 C816 1.383 . S
C822 C821 1.379 . S
H823 C817 0.959 . S
H824 C817 0.961 . S
H825 C817 0.960 . S
H826 C818 0.930 . S
H827 C819 0.929 . S
H828 C836 0.929 . S
H829 C838 0.930 . S
H830 C840 0.930 . S
H831 C843 0.929 . S
H832 C846 0.930 . S
H833 C848 0.960 . S
H834 C848 0.960 . S
H835 C848 0.960 . S
C836 H828 0.929 . S
C836 C837 1.377 1_655 S
C836 C838 1.384 1_655 S
C837 C836 1.377 1_455 S
C837 C843 1.390 . S
C838 H829 0.930 . S
C838 C836 1.384 1_455 S
C838 C839 1.372 . S
C839 C838 1.372 . S
C839 C840 1.400 . S
C839 C844 1.490 . S
C840 H830 0.930 . S
C840 C839 1.400 . S
C840 C843 1.386 . S
H841 C857 0.930 . S
H842 C858 0.931 . S
C843 H831 0.929 . S
C843 C837 1.390 . S
C843 C840 1.386 . S
C844 C839 1.490 . S
C844 C846 1.395 . S
C844 C847 1.403 . S
H845 C851 0.930 . S
C846 H832 0.930 . S
C846 C844 1.395 . S
C846 C849 1.403 . S
C847 C844 1.403 . S
C847 C848 1.524 . S
C847 C851 1.400 . S
C848 H833 0.960 . S
C848 H834 0.960 . S
C848 H835 0.960 . S
C848 C847 1.524 . S
C849 C846 1.403 . S
C849 C850 1.392 . S
C849 C853 1.495 1_556 S
C850 C849 1.392 . S
C850 C851 1.385 . S
C850 C852 1.478 1_556 S
C851 H845 0.930 . S
C851 C847 1.400 . S
C851 C850 1.385 . S
C852 C850 1.478 1_554 S
C852 C854 1.381 . S
C852 C858 1.383 . S
C853 C849 1.495 1_554 S
C853 H859 0.959 . S
C853 H860 0.961 . S
C853 H861 0.960 . S
C854 C852 1.381 . S
C854 C855 1.394 . S
C854 H862 0.930 1_554 S
C855 C854 1.394 . S
C855 C856 1.383 . S
C855 H863 0.929 . S
C856 C855 1.383 . S
C856 C857 1.377 . S
C857 H841 0.930 . S
C857 C856 1.377 . S
C857 C858 1.379 . S
C858 H842 0.931 . S
C858 C852 1.383 . S
C858 C857 1.379 . S
H859 C853 0.959 . S
H860 C853 0.961 . S
H861 C853 0.960 . S
H862 C854 0.930 1_556 S
H863 C855 0.929 . S
H864 C872 0.929 . S
H865 C874 0.930 . S
H866 C876 0.930 . S
H867 C879 0.929 . S
H868 C882 0.930 . S
H869 C884 0.960 . S
H870 C884 0.960 . S
H871 C884 0.960 . S
C872 H864 0.929 . S
C872 C873 1.377 . S
C872 C874 1.384 . S
C873 C872 1.377 . S
C873 C879 1.390 . S
C874 H865 0.930 . S
C874 C872 1.384 . S
C874 C875 1.372 . S
C875 C874 1.372 . S
C875 C876 1.400 . S
C875 C880 1.490 . S
C876 H866 0.930 . S
C876 C875 1.400 . S
C876 C879 1.386 . S
H877 C893 0.930 1_556 S
H878 C894 0.931 . S
C879 H867 0.929 . S
C879 C873 1.390 . S
C879 C876 1.386 . S
C880 C875 1.490 . S
C880 C882 1.395 . S
C880 C883 1.403 . S
H881 C887 0.930 . S
C882 H868 0.930 . S
C882 C880 1.395 . S
C882 C885 1.403 . S
C883 C880 1.403 . S
C883 C884 1.524 . S
C883 C887 1.400 . S
C884 H869 0.960 . S
C884 H870 0.960 . S
C884 H871 0.960 . S
C884 C883 1.524 . S
C885 C882 1.403 . S
C885 C886 1.392 . S
C885 C889 1.495 1_556 S
C886 C885 1.392 . S
C886 C887 1.385 . S
C886 C888 1.478 1_556 S
C887 H881 0.930 . S
C887 C883 1.400 . S
C887 C886 1.385 . S
C888 C886 1.478 1_554 S
C888 C890 1.381 . S
C888 C894 1.383 1_554 S
C889 C885 1.495 1_554 S
C889 H895 0.959 . S
C889 H896 0.961 . S
C889 H897 0.960 . S
C890 C888 1.381 . S
C890 C891 1.394 . S
C890 H898 0.930 . S
C891 C890 1.394 . S
C891 C892 1.383 . S
C891 H899 0.929 . S
C892 C891 1.383 . S
C892 C893 1.377 . S
C893 H877 0.930 1_554 S
C893 C892 1.377 . S
C893 C894 1.379 1_554 S
C894 H878 0.931 . S
C894 C888 1.383 1_556 S
C894 C893 1.379 1_556 S
H895 C889 0.959 . S
H896 C889 0.961 . S
H897 C889 0.960 . S
H898 C890 0.930 . S
H899 C891 0.929 . S
H900 C908 0.929 . S
H901 C910 0.930 1_654 S
H902 C912 0.930 . S
H903 C915 0.929 . S
H904 C918 0.930 1_655 S
H905 C920 0.960 . S
H906 C920 0.960 . S
H907 C920 0.960 1_556 S
C908 H900 0.929 . S
C908 C909 1.377 1_655 S
C908 C910 1.384 1_655 S
C909 C908 1.377 1_455 S
C909 C915 1.390 . S
C910 H901 0.930 1_456 S
C910 C908 1.384 1_455 S
C910 C911 1.372 . S
C911 C910 1.372 . S
C911 C912 1.400 . S
C911 C916 1.490 . S
C912 H902 0.930 . S
C912 C911 1.400 . S
C912 C915 1.386 . S
H913 C929 0.930 1_556 S
H914 C930 0.931 . S
C915 H903 0.929 . S
C915 C909 1.390 . S
C915 C912 1.386 . S
C916 C911 1.490 . S
C916 C918 1.395 . S
C916 C919 1.403 1_556 S
H917 C923 0.930 . S
C918 H904 0.930 1_455 S
C918 C916 1.395 . S
C918 C921 1.403 . S
C919 C916 1.403 1_554 S
C919 C920 1.524 . S
C919 C923 1.400 . S
C920 H905 0.960 . S
C920 H906 0.960 . S
C920 H907 0.960 1_554 S
C920 C919 1.524 . S
C921 C918 1.403 . S
C921 C922 1.392 1_556 S
C921 C925 1.510 . S
C922 C921 1.392 1_554 S
C922 C923 1.385 . S
C922 C924 1.478 . S
C923 H917 0.930 . S
C923 C919 1.400 . S
C923 C922 1.385 . S
C924 C922 1.478 . S
C924 C926 1.381 . S
C924 C930 1.383 1_554 S
C925 C921 1.510 . S
C925 H931 0.901 1_455 S
C925 H932 1.007 . S
C925 H933 0.974 1_455 S
C926 C924 1.381 . S
C926 C927 1.394 . S
C926 H934 0.930 . S
C927 C926 1.394 . S
C927 C928 1.383 . S
C927 H935 0.929 . S
C928 C927 1.383 . S
C928 C929 1.377 . S
C929 H913 0.930 1_554 S
C929 C928 1.377 . S
C929 C930 1.379 1_554 S
C930 H914 0.931 . S
C930 C924 1.383 1_556 S
C930 C929 1.379 1_556 S
H931 C925 0.901 1_655 S
H932 C925 1.007 . S
H933 C925 0.974 1_655 S
H934 C926 0.930 . S
H935 C927 0.929 . S
H936 C944 0.929 . S
H937 C946 0.930 . S
H938 C948 0.941 . S
H939 C951 0.929 1_556 S
H940 C954 0.930 . S
H941 C956 0.960 . S
H942 C956 0.960 . S
H943 C956 0.960 . S
C944 H936 0.929 . S
C944 C945 1.377 . S
C944 C946 1.384 . S
C945 C944 1.377 . S
C945 C951 1.390 . S
C946 H937 0.930 . S
C946 C944 1.384 . S
C946 C947 1.372 . S
C947 C946 1.372 . S
C947 C948 1.393 1_554 S
C947 C952 1.490 . S
C948 H938 0.941 . S
C948 C947 1.393 1_556 S
C948 C951 1.382 1_556 S
H949 C965 0.930 . S
H950 C966 0.931 . S
C951 H939 0.929 1_554 S
C951 C945 1.390 . S
C951 C948 1.382 1_554 S
C952 C947 1.490 . S
C952 C954 1.395 . S
C952 C955 1.403 1_554 S
H953 C959 0.930 . S
C954 H940 0.930 . S
C954 C952 1.395 . S
C954 C957 1.403 . S
C955 C952 1.403 1_556 S
C955 C956 1.524 . S
C955 C959 1.400 . S
C956 H941 0.960 . S
C956 H942 0.960 . S
C956 H943 0.960 . S
C956 C955 1.524 . S
C957 C954 1.403 . S
C957 C958 1.392 1_554 S
C957 C961 1.495 . S
C958 C957 1.392 1_556 S
C958 C959 1.385 . S
C958 C960 1.478 . S
C959 H953 0.930 . S
C959 C955 1.400 . S
C959 C958 1.385 . S
C960 C958 1.478 . S
C960 C962 1.381 . S
C960 C966 1.383 . S
C961 C957 1.495 . S
C961 H967 0.959 . S
C961 H968 0.961 . S
C961 H969 0.960 . S
C962 C960 1.381 . S
C962 C963 1.394 . S
C962 H970 0.930 1_556 S
C963 C962 1.394 . S
C963 C964 1.383 . S
C963 H971 0.929 . S
C964 C963 1.383 . S
C964 C965 1.377 . S
C965 H949 0.930 . S
C965 C964 1.377 . S
C965 C966 1.379 . S
C966 H950 0.931 . S
C966 C960 1.383 . S
C966 C965 1.379 . S
H967 C961 0.959 . S
H968 C961 0.961 . S
H969 C961 0.960 . S
H970 C962 0.930 1_554 S
H971 C963 0.929 . S
H972 C980 0.929 . S
H973 C982 0.930 . S
H974 C984 0.930 1_554 S
H975 C987 0.929 . S
H976 C990 0.930 . S
H977 C992 0.960 . S
H978 C992 0.960 . S
H979 C992 0.960 . S
C980 H972 0.929 . S
C980 C981 1.377 . S
C980 C982 1.384 . S
C981 C980 1.377 . S
C981 C987 1.390 . S
C982 H973 0.930 . S
C982 C980 1.384 . S
C982 C983 1.372 . S
C983 C982 1.372 . S
C983 C984 1.400 . S
C983 C988 1.490 . S
C984 H974 0.930 1_556 S
C984 C983 1.400 . S
C984 C987 1.386 . S
H985 C1001 0.930 . S
H986 C1002 0.931 . S
C987 H975 0.929 . S
C987 C981 1.390 . S
C987 C984 1.386 . S
C988 C983 1.490 . S
C988 C990 1.395 . S
C988 C991 1.403 1_556 S
H989 C995 0.930 . S
C990 H976 0.930 . S
C990 C988 1.395 . S
C990 C993 1.403 . S
C991 C988 1.403 1_554 S
C991 C992 1.524 . S
C991 C995 1.400 . S
C992 H977 0.960 . S
C992 H978 0.960 . S
C992 H979 0.960 . S
C992 C991 1.524 . S
C993 C990 1.403 . S
C993 C994 1.392 . S
C993 C997 1.495 . S
C994 C993 1.392 . S
C994 C995 1.385 1_556 S
C994 C996 1.478 1_556 S
C995 H989 0.930 . S
C995 C991 1.400 . S
C995 C994 1.385 1_554 S
C996 C994 1.478 1_554 S
C996 C998 1.381 1_554 S
C996 C1002 1.383 . S
C997 C993 1.495 . S
C997 H1003 0.959 . S
C997 H1004 0.961 . S
C997 H1005 0.960 . S
C998 C996 1.381 1_556 S
C998 C999 1.394 1_556 S
C998 H1006 0.930 . S
C999 C998 1.394 1_554 S
C999 C1000 1.383 . S
C999 H1007 0.929 . S
C1000 C999 1.383 . S
C1000 C1001 1.377 . S
C1001 H985 0.930 . S
C1001 C1000 1.377 . S
C1001 C1002 1.379 . S
C1002 H986 0.931 . S
C1002 C996 1.383 . S
C1002 C1001 1.379 . S
H1003 C997 0.959 . S
H1004 C997 0.961 . S
H1005 C997 0.960 . S
H1006 C998 0.930 . S
H1007 C999 0.929 . S
H1008 C1016 0.929 . S
H1009 C1018 0.930 . S
H1010 C1020 0.930 . S
H1011 C1023 0.929 . S
H1012 C1026 0.930 . S
H1013 C1028 0.960 . S
H1014 C1028 0.960 . S
H1015 C1028 0.960 . S
C1016 H1008 0.929 . S
C1016 C1017 1.377 . S
C1016 C1018 1.384 . S
C1017 C1016 1.377 . S
C1017 C1023 1.390 . S
C1018 H1009 0.930 . S
C1018 C1016 1.384 . S
C1018 C1019 1.372 . S
C1019 C1018 1.372 . S
C1019 C1020 1.400 . S
C1019 C1024 1.490 . S
C1020 H1010 0.930 . S
C1020 C1019 1.400 . S
C1020 C1023 1.386 . S
H1021 C1037 0.930 . S
H1022 C1038 0.931 . S
C1023 H1011 0.929 . S
C1023 C1017 1.390 . S
C1023 C1020 1.386 . S
C1024 C1019 1.490 . S
C1024 C1026 1.395 . S
C1024 C1027 1.403 . S
H1025 C1031 0.932 1_545 S
C1026 H1012 0.930 . S
C1026 C1024 1.395 . S
C1026 C1029 1.403 . S
C1027 C1024 1.403 . S
C1027 C1028 1.524 1_565 S
C1027 C1031 1.400 . S
C1028 H1013 0.960 . S
C1028 H1014 0.960 . S
C1028 H1015 0.960 . S
C1028 C1027 1.524 1_545 S
C1029 C1026 1.403 . S
C1029 C1030 1.392 . S
C1029 C1033 1.495 . S
C1030 C1029 1.392 . S
C1030 C1031 1.385 . S
C1030 C1032 1.478 . S
C1031 H1025 0.932 1_565 S
C1031 C1027 1.400 . S
C1031 C1030 1.385 . S
C1032 C1030 1.478 . S
C1032 C1034 1.381 . S
C1032 C1038 1.383 . S
C1033 C1029 1.495 . S
C1033 H1039 0.959 . S
C1033 H1040 0.961 . S
C1033 H1041 0.960 . S
C1034 C1032 1.381 . S
C1034 C1035 1.394 . S
C1034 H1042 0.930 . S
C1035 C1034 1.394 . S
C1035 C1036 1.383 . S
C1035 H1043 0.929 . S
C1036 C1035 1.383 . S
C1036 C1037 1.377 . S
C1037 H1021 0.930 . S
C1037 C1036 1.377 . S
C1037 C1038 1.379 . S
C1038 H1022 0.931 . S
C1038 C1032 1.383 . S
C1038 C1037 1.379 . S
H1039 C1033 0.959 . S
H1040 C1033 0.961 . S
H1041 C1033 0.960 . S
H1042 C1034 0.930 . S
H1043 C1035 0.929 . S
H1044 C1052 0.929 . S
H1045 C1054 0.930 . S
H1046 C1056 0.930 . S
H1047 C1059 0.929 . S
H1048 C1062 0.930 . S
H1049 C1064 0.960 . S
H1050 C1064 0.960 . S
H1051 C1064 0.960 . S
C1052 H1044 0.929 . S
C1052 C1053 1.377 . S
C1052 C1054 1.384 . S
C1053 C1052 1.377 . S
C1053 C1059 1.390 . S
C1054 H1045 0.930 . S
C1054 C1052 1.384 . S
C1054 C1055 1.372 . S
C1055 C1054 1.372 . S
C1055 C1056 1.400 . S
C1055 C1060 1.490 . S
C1056 H1046 0.930 . S
C1056 C1055 1.400 . S
C1056 C1059 1.386 . S
H1057 C1073 0.930 . S
H1058 C1074 0.931 . S
C1059 H1047 0.929 . S
C1059 C1053 1.390 . S
C1059 C1056 1.386 . S
C1060 C1055 1.490 . S
C1060 C1062 1.395 . S
C1060 C1063 1.403 . S
H1061 C1067 0.930 . S
C1062 H1048 0.930 . S
C1062 C1060 1.395 . S
C1062 C1065 1.403 . S
C1063 C1060 1.403 . S
C1063 C1064 1.524 . S
C1063 C1067 1.400 . S
C1064 H1049 0.960 . S
C1064 H1050 0.960 . S
C1064 H1051 0.960 . S
C1064 C1063 1.524 . S
C1065 C1062 1.403 . S
C1065 C1066 1.392 . S
C1065 C1069 1.495 . S
C1066 C1065 1.392 . S
C1066 C1067 1.385 . S
C1066 C1068 1.478 . S
C1067 H1061 0.930 . S
C1067 C1063 1.400 . S
C1067 C1066 1.385 . S
C1068 C1066 1.478 . S
C1068 C1070 1.381 . S
C1068 C1074 1.383 . S
C1069 C1065 1.495 . S
C1069 H1075 0.959 . S
C1069 H1076 0.961 . S
C1069 H1077 0.960 . S
C1070 C1068 1.381 . S
C1070 C1071 1.394 . S
C1070 H1078 0.930 . S
C1071 C1070 1.394 . S
C1071 C1072 1.383 . S
C1071 H1079 0.929 . S
C1072 C1071 1.383 . S
C1072 C1073 1.377 . S
C1073 H1057 0.930 . S
C1073 C1072 1.377 . S
C1073 C1074 1.379 . S
C1074 H1058 0.931 . S
C1074 C1068 1.383 . S
C1074 C1073 1.379 . S
H1075 C1069 0.959 . S
H1076 C1069 0.961 . S
H1077 C1069 0.960 . S
H1078 C1070 0.930 . S
H1079 C1071 0.929 . S
H1080 C1088 0.929 . S
H1081 C1090 0.930 . S
H1082 C1092 0.930 . S
H1083 C1095 0.929 . S
H1084 C1098 0.930 . S
H1085 C1100 0.960 . S
H1086 C1100 0.960 . S
H1087 C1100 0.960 . S
C1088 H1080 0.929 . S
C1088 C1089 1.377 . S
C1088 C1090 1.384 . S
C1089 C1088 1.377 . S
C1089 C1095 1.390 . S
C1090 H1081 0.930 . S
C1090 C1088 1.384 . S
C1090 C1091 1.372 . S
C1091 C1090 1.372 . S
C1091 C1092 1.400 . S
C1091 C1096 1.490 . S
C1092 H1082 0.930 . S
C1092 C1091 1.400 . S
C1092 C1095 1.386 . S
H1093 C1109 0.930 . S
H1094 C1110 0.931 . S
C1095 H1083 0.929 . S
C1095 C1089 1.390 . S
C1095 C1092 1.386 . S
C1096 C1091 1.490 . S
C1096 C1098 1.395 . S
C1096 C1099 1.403 . S
H1097 C1103 0.930 . S
C1098 H1084 0.930 . S
C1098 C1096 1.395 . S
C1098 C1101 1.403 . S
C1099 C1096 1.403 . S
C1099 C1100 1.524 . S
C1099 C1103 1.400 . S
C1100 H1085 0.960 . S
C1100 H1086 0.960 . S
C1100 H1087 0.960 . S
C1100 C1099 1.524 . S
C1101 C1098 1.403 . S
C1101 C1102 1.392 . S
C1101 C1105 1.495 . S
C1102 C1101 1.392 . S
C1102 C1103 1.385 . S
C1102 C1104 1.478 . S
C1103 H1097 0.930 . S
C1103 C1099 1.400 . S
C1103 C1102 1.385 . S
C1104 C1102 1.478 . S
C1104 C1106 1.381 . S
C1104 C1110 1.383 . S
C1105 C1101 1.495 . S
C1105 H1111 0.959 1_554 S
C1105 H1112 0.961 . S
C1105 H1113 0.960 . S
C1106 C1104 1.381 . S
C1106 C1107 1.394 . S
C1106 H1114 0.930 . S
C1107 C1106 1.394 . S
C1107 C1108 1.383 . S
C1107 H1115 0.929 . S
C1108 C1107 1.383 . S
C1108 C1109 1.377 . S
C1109 H1093 0.930 . S
C1109 C1108 1.377 . S
C1109 C1110 1.379 . S
C1110 H1094 0.931 . S
C1110 C1104 1.383 . S
C1110 C1109 1.379 . S
H1111 C1105 0.959 1_556 S
H1112 C1105 0.961 . S
H1113 C1105 0.960 . S
H1114 C1106 0.930 . S
H1115 C1107 0.929 . S
H1116 C1124 0.929 . S
H1117 C1126 0.930 . S
H1118 C1128 0.930 . S
H1119 C1131 0.929 . S
H1120 C1134 0.930 . S
H1121 C1136 0.960 . S
H1122 C1136 0.960 . S
H1123 C1136 0.960 . S
C1124 H1116 0.929 . S
C1124 C1125 1.377 . S
C1124 C1126 1.384 . S
C1125 C1124 1.377 . S
C1125 C1131 1.390 . S
C1126 H1117 0.930 . S
C1126 C1124 1.384 . S
C1126 C1127 1.372 . S
C1127 C1126 1.372 . S
C1127 C1128 1.400 . S
C1127 C1132 1.490 . S
C1128 H1118 0.930 . S
C1128 C1127 1.400 . S
C1128 C1131 1.386 . S
H1129 C1145 0.930 . S
H1130 C1146 0.931 . S
C1131 H1119 0.929 . S
C1131 C1125 1.390 . S
C1131 C1128 1.386 . S
C1132 C1127 1.490 . S
C1132 C1134 1.395 . S
C1132 C1135 1.403 . S
H1133 C1139 0.930 . S
C1134 H1120 0.930 . S
C1134 C1132 1.395 . S
C1134 C1137 1.403 . S
C1135 C1132 1.403 . S
C1135 C1136 1.524 . S
C1135 C1139 1.400 . S
C1136 H1121 0.960 . S
C1136 H1122 0.960 . S
C1136 H1123 0.960 . S
C1136 C1135 1.524 . S
C1137 C1134 1.403 . S
C1137 C1138 1.392 . S
C1137 C1141 1.495 . S
C1138 C1137 1.392 . S
C1138 C1139 1.385 . S
C1138 C1140 1.478 . S
C1139 H1133 0.930 . S
C1139 C1135 1.400 . S
C1139 C1138 1.385 . S
C1140 C1138 1.478 . S
C1140 C1142 1.381 . S
C1140 C1146 1.383 . S
C1141 C1137 1.495 . S
C1141 H1147 0.959 . S
C1141 H1148 0.961 . S
C1141 H1149 0.960 . S
C1142 C1140 1.381 . S
C1142 C1143 1.394 . S
C1142 H1150 0.930 . S
C1143 C1142 1.394 . S
C1143 C1144 1.383 . S
C1143 H1151 0.929 . S
C1144 C1143 1.383 . S
C1144 C1145 1.377 . S
C1145 H1129 0.930 . S
C1145 C1144 1.377 . S
C1145 C1146 1.379 . S
C1146 H1130 0.931 . S
C1146 C1140 1.383 . S
C1146 C1145 1.379 . S
H1147 C1141 0.959 . S
H1148 C1141 0.961 . S
H1149 C1141 0.960 . S
H1150 C1142 0.930 . S
H1151 C1143 0.929 . S
H1152 C1160 0.929 . S
H1153 C1162 0.930 . S
H1154 C1164 0.930 . S
H1155 C1167 0.929 . S
H1156 C1170 0.930 . S
H1157 C1172 0.960 . S
H1158 C1172 0.960 . S
H1159 C1172 0.960 . S
C1160 H1152 0.929 . S
C1160 C1161 1.377 . S
C1160 C1162 1.384 . S
C1161 C1160 1.377 . S
C1161 C1167 1.390 . S
C1162 H1153 0.930 . S
C1162 C1160 1.384 . S
C1162 C1163 1.372 . S
C1163 C1162 1.372 . S
C1163 C1164 1.400 . S
C1163 C1168 1.490 1_545 S
C1164 H1154 0.930 . S
C1164 C1163 1.400 . S
C1164 C1167 1.386 . S
H1165 C1181 0.930 . S
H1166 C1182 0.931 . S
C1167 H1155 0.929 . S
C1167 C1161 1.390 . S
C1167 C1164 1.386 . S
C1168 C1163 1.490 1_565 S
C1168 C1170 1.395 . S
C1168 C1171 1.403 . S
H1169 C1175 0.930 . S
C1170 H1156 0.930 . S
C1170 C1168 1.395 . S
C1170 C1173 1.403 . S
C1171 C1168 1.403 . S
C1171 C1172 1.524 . S
C1171 C1175 1.400 . S
C1172 H1157 0.960 . S
C1172 H1158 0.960 . S
C1172 H1159 0.960 . S
C1172 C1171 1.524 . S
C1173 C1170 1.403 . S
C1173 C1174 1.392 . S
C1173 C1177 1.495 . S
C1174 C1173 1.392 . S
C1174 C1175 1.385 . S
C1174 C1176 1.478 . S
C1175 H1169 0.930 . S
C1175 C1171 1.400 . S
C1175 C1174 1.385 . S
C1176 C1174 1.478 . S
C1176 C1178 1.381 . S
C1176 C1182 1.383 . S
C1177 C1173 1.495 . S
C1177 H1183 0.959 . S
C1177 H1184 0.961 . S
C1177 H1185 0.960 . S
C1178 C1176 1.381 . S
C1178 C1179 1.394 . S
C1178 H1186 0.930 . S
C1179 C1178 1.394 . S
C1179 C1180 1.383 . S
C1179 H1187 0.929 . S
C1180 C1179 1.383 . S
C1180 C1181 1.377 . S
C1181 H1165 0.930 . S
C1181 C1180 1.377 . S
C1181 C1182 1.379 . S
C1182 H1166 0.931 . S
C1182 C1176 1.383 . S
C1182 C1181 1.379 . S
H1183 C1177 0.959 . S
H1184 C1177 0.961 . S
H1185 C1177 0.960 . S
H1186 C1178 0.930 . S
H1187 C1179 0.929 . S
H1188 C1196 0.929 . S
H1189 C1198 0.930 . S
H1190 C1200 0.930 . S
H1191 C1203 0.929 . S
H1192 C1206 0.930 . S
H1193 C1208 0.960 . S
H1194 C1208 0.960 . S
H1195 C1208 0.960 . S
C1196 H1188 0.929 . S
C1196 C1197 1.377 . S
C1196 C1198 1.384 . S
C1197 C1196 1.377 . S
C1197 C1203 1.390 . S
C1198 H1189 0.930 . S
C1198 C1196 1.384 . S
C1198 C1199 1.372 . S
C1199 C1198 1.372 . S
C1199 C1200 1.400 . S
C1199 C1204 1.490 . S
C1200 H1190 0.930 . S
C1200 C1199 1.400 . S
C1200 C1203 1.386 . S
H1201 C1217 0.930 . S
H1202 C1218 0.931 . S
C1203 H1191 0.929 . S
C1203 C1197 1.390 . S
C1203 C1200 1.386 . S
C1204 C1199 1.490 . S
C1204 C1206 1.395 . S
C1204 C1207 1.403 . S
H1205 C1211 0.930 . S
C1206 H1192 0.930 . S
C1206 C1204 1.395 . S
C1206 C1209 1.403 . S
C1207 C1204 1.403 . S
C1207 C1208 1.524 . S
C1207 C1211 1.400 . S
C1208 H1193 0.960 . S
C1208 H1194 0.960 . S
C1208 H1195 0.960 . S
C1208 C1207 1.524 . S
C1209 C1206 1.403 . S
C1209 C1210 1.392 . S
C1209 C1213 1.495 . S
C1210 C1209 1.392 . S
C1210 C1211 1.385 . S
C1210 C1212 1.478 . S
C1211 H1205 0.930 . S
C1211 C1207 1.400 . S
C1211 C1210 1.385 . S
C1212 C1210 1.478 . S
C1212 C1214 1.381 . S
C1212 C1218 1.383 . S
C1213 C1209 1.495 . S
C1213 H1219 0.959 . S
C1213 H1220 0.961 . S
C1213 H1221 0.960 . S
C1214 C1212 1.381 . S
C1214 C1215 1.394 . S
C1214 H1222 0.930 . S
C1215 C1214 1.394 . S
C1215 C1216 1.383 . S
C1215 H1223 0.929 . S
C1216 C1215 1.383 . S
C1216 C1217 1.377 . S
C1217 H1201 0.930 . S
C1217 C1216 1.377 . S
C1217 C1218 1.379 . S
C1218 H1202 0.931 . S
C1218 C1212 1.383 . S
C1218 C1217 1.379 . S
H1219 C1213 0.959 . S
H1220 C1213 0.961 . S
H1221 C1213 0.960 . S
H1222 C1214 0.930 . S
H1223 C1215 0.929 . S
H1224 C1232 0.929 . S
H1225 C1234 0.930 . S
H1226 C1236 0.930 . S
H1227 C1239 0.929 . S
H1228 C1242 0.930 . S
H1229 C1244 0.960 . S
H1230 C1244 0.960 . S
H1231 C1244 0.960 . S
C1232 H1224 0.929 . S
C1232 C1233 1.377 . S
C1232 C1234 1.384 . S
C1233 C1232 1.377 . S
C1233 C1239 1.390 . S
C1234 H1225 0.930 . S
C1234 C1232 1.384 . S
C1234 C1235 1.372 . S
C1235 C1234 1.372 . S
C1235 C1236 1.400 . S
C1235 C1240 1.490 . S
C1236 H1226 0.930 . S
C1236 C1235 1.400 . S
C1236 C1239 1.386 . S
H1237 C1253 0.930 . S
H1238 C1254 0.931 . S
C1239 H1227 0.929 . S
C1239 C1233 1.390 . S
C1239 C1236 1.386 . S
C1240 C1235 1.490 . S
C1240 C1242 1.395 . S
C1240 C1243 1.403 . S
H1241 C1247 0.930 . S
C1242 H1228 0.930 . S
C1242 C1240 1.395 . S
C1242 C1245 1.403 . S
C1243 C1240 1.403 . S
C1243 C1244 1.524 . S
C1243 C1247 1.400 . S
C1244 H1229 0.960 . S
C1244 H1230 0.960 . S
C1244 H1231 0.960 . S
C1244 C1243 1.524 . S
C1245 C1242 1.403 . S
C1245 C1246 1.392 . S
C1245 C1249 1.495 . S
C1246 C1245 1.392 . S
C1246 C1247 1.385 . S
C1246 C1248 1.478 . S
C1247 H1241 0.930 . S
C1247 C1243 1.400 . S
C1247 C1246 1.385 . S
C1248 C1246 1.478 . S
C1248 C1250 1.381 . S
C1248 C1254 1.383 . S
C1249 C1245 1.495 . S
C1249 H1255 0.959 . S
C1249 H1256 0.961 . S
C1249 H1257 0.960 . S
C1250 C1248 1.381 . S
C1250 C1251 1.394 . S
C1250 H1258 0.930 . S
C1251 C1250 1.394 . S
C1251 C1252 1.383 . S
C1251 H1259 0.929 . S
C1252 C1251 1.383 . S
C1252 C1253 1.377 . S
C1253 H1237 0.930 . S
C1253 C1252 1.377 . S
C1253 C1254 1.379 . S
C1254 H1238 0.931 . S
C1254 C1248 1.383 . S
C1254 C1253 1.379 . S
H1255 C1249 0.959 . S
H1256 C1249 0.961 . S
H1257 C1249 0.960 . S
H1258 C1250 0.930 . S
H1259 C1251 0.929 . S
H1260 C1268 0.929 . S
H1261 C1270 0.930 . S
H1262 C1272 0.930 1_545 S
H1263 C1275 0.929 . S
H1264 C1278 0.930 . S
H1265 C1280 0.960 . S
H1266 C1280 0.960 . S
H1267 C1280 0.960 . S
C1268 H1260 0.929 . S
C1268 C1269 1.377 . S
C1268 C1270 1.384 . S
C1269 C1268 1.377 . S
C1269 C1275 1.390 . S
C1270 H1261 0.930 . S
C1270 C1268 1.384 . S
C1270 C1271 1.372 . S
C1271 C1270 1.372 . S
C1271 C1272 1.400 . S
C1271 C1276 1.490 1_565 S
C1272 H1262 0.930 1_565 S
C1272 C1271 1.400 . S
C1272 C1275 1.386 . S
H1273 C1289 0.930 . S
H1274 C1290 0.931 . S
C1275 H1263 0.929 . S
C1275 C1269 1.390 . S
C1275 C1272 1.386 . S
C1276 C1271 1.490 1_545 S
C1276 C1278 1.395 . S
C1276 C1279 1.403 . S
H1277 C1283 0.930 . S
C1278 H1264 0.930 . S
C1278 C1276 1.395 . S
C1278 C1281 1.403 . S
C1279 C1276 1.403 . S
C1279 C1280 1.524 . S
C1279 C1283 1.400 . S
C1280 H1265 0.960 . S
C1280 H1266 0.960 . S
C1280 H1267 0.960 . S
C1280 C1279 1.524 . S
C1281 C1278 1.403 . S
C1281 C1282 1.392 . S
C1281 C1285 1.495 . S
C1282 C1281 1.392 . S
C1282 C1283 1.385 . S
C1282 C1284 1.478 . S
C1283 H1277 0.930 . S
C1283 C1279 1.400 . S
C1283 C1282 1.385 . S
C1284 C1282 1.478 . S
C1284 C1286 1.381 . S
C1284 C1290 1.383 . S
C1285 C1281 1.495 . S
C1285 H1291 0.959 . S
C1285 H1292 0.961 . S
C1285 H1293 0.960 . S
C1286 C1284 1.381 . S
C1286 C1287 1.394 . S
C1286 H1294 0.930 . S
C1287 C1286 1.394 . S
C1287 C1288 1.383 . S
C1287 H1295 0.929 . S
C1288 C1287 1.383 . S
C1288 C1289 1.377 . S
C1289 H1273 0.930 . S
C1289 C1288 1.377 . S
C1289 C1290 1.379 . S
C1290 H1274 0.931 . S
C1290 C1284 1.383 . S
C1290 C1289 1.379 . S
H1291 C1285 0.959 . S
H1292 C1285 0.961 . S
H1293 C1285 0.960 . S
H1294 C1286 0.930 . S
H1295 C1287 0.929 . S
H1296 C1304 0.929 . S
H1297 C1306 0.930 . S
H1298 C1308 0.930 . S
H1299 C1311 0.929 . S
H1300 C1314 0.930 . S
H1301 C1316 0.960 . S
H1302 C1316 0.960 . S
H1303 C1316 0.960 . S
C1304 H1296 0.929 . S
C1304 C1305 1.377 . S
C1304 C1306 1.384 . S
C1305 C1304 1.377 . S
C1305 C1311 1.390 . S
C1306 H1297 0.930 . S
C1306 C1304 1.384 . S
C1306 C1307 1.372 . S
C1307 C1306 1.372 . S
C1307 C1308 1.400 . S
C1307 C1312 1.490 . S
C1308 H1298 0.930 . S
C1308 C1307 1.400 . S
C1308 C1311 1.386 . S
H1309 C1325 0.930 . S
H1310 C1326 0.931 . S
C1311 H1299 0.929 . S
C1311 C1305 1.390 . S
C1311 C1308 1.386 . S
C1312 C1307 1.490 . S
C1312 C1314 1.395 . S
C1312 C1315 1.403 . S
H1313 C1319 0.930 . S
C1314 H1300 0.930 . S
C1314 C1312 1.395 . S
C1314 C1317 1.403 . S
C1315 C1312 1.403 . S
C1315 C1316 1.524 . S
C1315 C1319 1.400 . S
C1316 H1301 0.960 . S
C1316 H1302 0.960 . S
C1316 H1303 0.960 . S
C1316 C1315 1.524 . S
C1317 C1314 1.403 . S
C1317 C1318 1.392 . S
C1317 C1321 1.495 . S
C1318 C1317 1.392 . S
C1318 C1319 1.385 . S
C1318 C1320 1.478 . S
C1319 H1313 0.930 . S
C1319 C1315 1.400 . S
C1319 C1318 1.385 . S
C1320 C1318 1.478 . S
C1320 C1322 1.381 . S
C1320 C1326 1.383 . S
C1321 C1317 1.495 . S
C1321 H1327 0.959 . S
C1321 H1328 0.961 . S
C1321 H1329 0.960 . S
C1322 C1320 1.381 . S
C1322 C1323 1.394 . S
C1322 H1330 0.930 . S
C1323 C1322 1.394 . S
C1323 C1324 1.383 . S
C1323 H1331 0.929 . S
C1324 C1323 1.383 . S
C1324 C1325 1.377 . S
C1325 H1309 0.930 . S
C1325 C1324 1.377 . S
C1325 C1326 1.379 . S
C1326 H1310 0.931 . S
C1326 C1320 1.383 . S
C1326 C1325 1.379 . S
H1327 C1321 0.959 . S
H1328 C1321 0.961 . S
H1329 C1321 0.960 . S
H1330 C1322 0.930 . S
H1331 C1323 0.929 . S
C369 C9 1.188 . S
C388 C18 1.203 . S
C405 C49 1.193 . S
C424 C58 1.171 . S
C441 C89 1.196 . S
C460 C98 1.201 . S
C477 C138 1.190 . S
C496 C129 1.164 . S
C513 C178 1.196 . S
C532 C169 1.189 . S
C549 C218 1.189 . S
C568 C209 1.206 . S
C585 C259 1.104 . S
C604 C250 1.135 . S
C621 C299 1.088 . S
C640 C290 1.079 . S
C657 C339 1.089 . S
C676 C330 1.090 . S
C693 C210 2.598 . S
C712 C6 2.553 . S
C729 C46 2.566 . S
C748 C130 2.601 . S
C765 C86 2.567 . S
C784 C170 2.586 . S
C801 C90 2.092 . S
C820 C249 2.174 . S
C837 C289 2.182 1_455 S
C856 C10 2.098 . S
C873 C329 2.180 . S
C892 C50 2.104 . S
C909 C326 0.976 . S
C928 C15 0.976 . S
C945 C55 0.976 . S
C964 C246 0.989 . S
C981 C286 0.974 . S
C1000 C95 0.958 . S
C1017 C99 2.569 1_565 S
C1036 C135 2.549 . S
C1053 C175 2.564 . S
C1072 C19 2.585 . S
C1089 C59 2.598 . S
C1108 C215 2.568 . S
C1125 C335 0.969 . S
C1144 C126 0.985 . S
C1161 C255 0.969 . S
C1180 C166 0.986 . S
C1197 C295 0.974 . S
C1216 C206 0.962 . S
C1233 C258 2.180 . S
C1252 C219 2.065 . S
C1269 C139 2.090 . S
C1288 C298 2.173 . S
C1305 C338 2.184 . S
C1324 C179 2.089 . S
