# Generated by pormake.
# Topology ict, (4)-cn, num edge types: 1
# Building blocks:
#     Node 0, Type 0, BuildingBlock: ICAMEG_clean_sbu_1, # of connection points: 4
#     Node 1, Type 0, BuildingBlock: ICAMEG_clean_sbu_1, # of connection points: 4
#     Node 2, Type 0, BuildingBlock: ICAMEG_clean_sbu_1, # of connection points: 4
#     Node 3, Type 0, BuildingBlock: ICAMEG_clean_sbu_1, # of connection points: 4
#     Node 4, Type 0, BuildingBlock: ICAMEG_clean_sbu_1, # of connection points: 4
#     Node 5, Type 0, BuildingBlock: ICAMEG_clean_sbu_1, # of connection points: 4
#     Node 6, Type 0, BuildingBlock: ICAMEG_clean_sbu_1, # of connection points: 4
#     Node 7, Type 0, BuildingBlock: ICAMEG_clean_sbu_1, # of connection points: 4
#     Node 8, Type 0, BuildingBlock: ICAMEG_clean_sbu_1, # of connection points: 4
#     Node 9, Type 0, BuildingBlock: ICAMEG_clean_sbu_1, # of connection points: 4
#     Node 10, Type 0, BuildingBlock: ICAMEG_clean_sbu_1, # of connection points: 4
#     Node 11, Type 0, BuildingBlock: ICAMEG_clean_sbu_1, # of connection points: 4
#     Node 12, Type 0, BuildingBlock: ICAMEG_clean_sbu_1, # of connection points: 4
#     Node 13, Type 0, BuildingBlock: ICAMEG_clean_sbu_1, # of connection points: 4
#     Node 14, Type 0, BuildingBlock: ICAMEG_clean_sbu_1, # of connection points: 4
#     Node 15, Type 0, BuildingBlock: ICAMEG_clean_sbu_1, # of connection points: 4
#     Node 16, Type 0, BuildingBlock: ICAMEG_clean_sbu_1, # of connection points: 4
#     Node 17, Type 0, BuildingBlock: ICAMEG_clean_sbu_1, # of connection points: 4
#     Node 18, Type 0, BuildingBlock: ICAMEG_clean_sbu_1, # of connection points: 4
#     Node 19, Type 0, BuildingBlock: ICAMEG_clean_sbu_1, # of connection points: 4
#     Node 20, Type 0, BuildingBlock: ICAMEG_clean_sbu_1, # of connection points: 4
#     Node 21, Type 0, BuildingBlock: ICAMEG_clean_sbu_1, # of connection points: 4
#     Node 22, Type 0, BuildingBlock: ICAMEG_clean_sbu_1, # of connection points: 4
#     Node 23, Type 0, BuildingBlock: ICAMEG_clean_sbu_1, # of connection points: 4
#     Node 24, Type 0, BuildingBlock: ICAMEG_clean_sbu_1, # of connection points: 4
#     Node 25, Type 0, BuildingBlock: ICAMEG_clean_sbu_1, # of connection points: 4
#     Node 26, Type 0, BuildingBlock: ICAMEG_clean_sbu_1, # of connection points: 4
#     Node 27, Type 0, BuildingBlock: ICAMEG_clean_sbu_1, # of connection points: 4
#     Node 28, Type 0, BuildingBlock: ICAMEG_clean_sbu_1, # of connection points: 4
#     Node 29, Type 0, BuildingBlock: ICAMEG_clean_sbu_1, # of connection points: 4
#     Node 30, Type 0, BuildingBlock: ICAMEG_clean_sbu_1, # of connection points: 4
#     Node 31, Type 0, BuildingBlock: ICAMEG_clean_sbu_1, # of connection points: 4
#     Node 32, Type 0, BuildingBlock: ICAMEG_clean_sbu_1, # of connection points: 4
#     Node 33, Type 0, BuildingBlock: ICAMEG_clean_sbu_1, # of connection points: 4
#     Node 34, Type 0, BuildingBlock: ICAMEG_clean_sbu_1, # of connection points: 4
#     Node 35, Type 0, BuildingBlock: ICAMEG_clean_sbu_1, # of connection points: 4
#     Edge 36, Type (0, 0), BuildingBlock: KIFKEQ_clean_linker_1, # of connection points: 2
#     Edge 37, Type (0, 0), BuildingBlock: KIFKEQ_clean_linker_1, # of connection points: 2
#     Edge 38, Type (0, 0), BuildingBlock: KIFKEQ_clean_linker_1, # of connection points: 2
#     Edge 39, Type (0, 0), BuildingBlock: KIFKEQ_clean_linker_1, # of connection points: 2
#     Edge 40, Type (0, 0), BuildingBlock: KIFKEQ_clean_linker_1, # of connection points: 2
#     Edge 41, Type (0, 0), BuildingBlock: KIFKEQ_clean_linker_1, # of connection points: 2
#     Edge 42, Type (0, 0), BuildingBlock: KIFKEQ_clean_linker_1, # of connection points: 2
#     Edge 43, Type (0, 0), BuildingBlock: KIFKEQ_clean_linker_1, # of connection points: 2
#     Edge 44, Type (0, 0), BuildingBlock: KIFKEQ_clean_linker_1, # of connection points: 2
#     Edge 45, Type (0, 0), BuildingBlock: KIFKEQ_clean_linker_1, # of connection points: 2
#     Edge 46, Type (0, 0), BuildingBlock: KIFKEQ_clean_linker_1, # of connection points: 2
#     Edge 47, Type (0, 0), BuildingBlock: KIFKEQ_clean_linker_1, # of connection points: 2
#     Edge 48, Type (0, 0), BuildingBlock: KIFKEQ_clean_linker_1, # of connection points: 2
#     Edge 49, Type (0, 0), BuildingBlock: KIFKEQ_clean_linker_1, # of connection points: 2
#     Edge 50, Type (0, 0), BuildingBlock: KIFKEQ_clean_linker_1, # of connection points: 2
#     Edge 51, Type (0, 0), BuildingBlock: KIFKEQ_clean_linker_1, # of connection points: 2
#     Edge 52, Type (0, 0), BuildingBlock: KIFKEQ_clean_linker_1, # of connection points: 2
#     Edge 53, Type (0, 0), BuildingBlock: KIFKEQ_clean_linker_1, # of connection points: 2
#     Edge 54, Type (0, 0), BuildingBlock: KIFKEQ_clean_linker_1, # of connection points: 2
#     Edge 55, Type (0, 0), BuildingBlock: KIFKEQ_clean_linker_1, # of connection points: 2
#     Edge 56, Type (0, 0), BuildingBlock: KIFKEQ_clean_linker_1, # of connection points: 2
#     Edge 57, Type (0, 0), BuildingBlock: KIFKEQ_clean_linker_1, # of connection points: 2
#     Edge 58, Type (0, 0), BuildingBlock: KIFKEQ_clean_linker_1, # of connection points: 2
#     Edge 59, Type (0, 0), BuildingBlock: KIFKEQ_clean_linker_1, # of connection points: 2
#     Edge 60, Type (0, 0), BuildingBlock: KIFKEQ_clean_linker_1, # of connection points: 2
#     Edge 61, Type (0, 0), BuildingBlock: KIFKEQ_clean_linker_1, # of connection points: 2
#     Edge 62, Type (0, 0), BuildingBlock: KIFKEQ_clean_linker_1, # of connection points: 2
#     Edge 63, Type (0, 0), BuildingBlock: KIFKEQ_clean_linker_1, # of connection points: 2
#     Edge 64, Type (0, 0), BuildingBlock: KIFKEQ_clean_linker_1, # of connection points: 2
#     Edge 65, Type (0, 0), BuildingBlock: KIFKEQ_clean_linker_1, # of connection points: 2
#     Edge 66, Type (0, 0), BuildingBlock: KIFKEQ_clean_linker_1, # of connection points: 2
#     Edge 67, Type (0, 0), BuildingBlock: KIFKEQ_clean_linker_1, # of connection points: 2
#     Edge 68, Type (0, 0), BuildingBlock: KIFKEQ_clean_linker_1, # of connection points: 2
#     Edge 69, Type (0, 0), BuildingBlock: KIFKEQ_clean_linker_1, # of connection points: 2
#     Edge 70, Type (0, 0), BuildingBlock: KIFKEQ_clean_linker_1, # of connection points: 2
#     Edge 71, Type (0, 0), BuildingBlock: KIFKEQ_clean_linker_1, # of connection points: 2
#     Edge 72, Type (0, 0), BuildingBlock: KIFKEQ_clean_linker_1, # of connection points: 2
#     Edge 73, Type (0, 0), BuildingBlock: KIFKEQ_clean_linker_1, # of connection points: 2
#     Edge 74, Type (0, 0), BuildingBlock: KIFKEQ_clean_linker_1, # of connection points: 2
#     Edge 75, Type (0, 0), BuildingBlock: KIFKEQ_clean_linker_1, # of connection points: 2
#     Edge 76, Type (0, 0), BuildingBlock: KIFKEQ_clean_linker_1, # of connection points: 2
#     Edge 77, Type (0, 0), BuildingBlock: KIFKEQ_clean_linker_1, # of connection points: 2
#     Edge 78, Type (0, 0), BuildingBlock: KIFKEQ_clean_linker_1, # of connection points: 2
#     Edge 79, Type (0, 0), BuildingBlock: KIFKEQ_clean_linker_1, # of connection points: 2
#     Edge 80, Type (0, 0), BuildingBlock: KIFKEQ_clean_linker_1, # of connection points: 2
#     Edge 81, Type (0, 0), BuildingBlock: KIFKEQ_clean_linker_1, # of connection points: 2
#     Edge 82, Type (0, 0), BuildingBlock: KIFKEQ_clean_linker_1, # of connection points: 2
#     Edge 83, Type (0, 0), BuildingBlock: KIFKEQ_clean_linker_1, # of connection points: 2
#     Edge 84, Type (0, 0), BuildingBlock: KIFKEQ_clean_linker_1, # of connection points: 2
#     Edge 85, Type (0, 0), BuildingBlock: KIFKEQ_clean_linker_1, # of connection points: 2
#     Edge 86, Type (0, 0), BuildingBlock: KIFKEQ_clean_linker_1, # of connection points: 2
#     Edge 87, Type (0, 0), BuildingBlock: KIFKEQ_clean_linker_1, # of connection points: 2
#     Edge 88, Type (0, 0), BuildingBlock: KIFKEQ_clean_linker_1, # of connection points: 2
#     Edge 89, Type (0, 0), BuildingBlock: KIFKEQ_clean_linker_1, # of connection points: 2
#     Edge 90, Type (0, 0), BuildingBlock: KIFKEQ_clean_linker_1, # of connection points: 2
#     Edge 91, Type (0, 0), BuildingBlock: KIFKEQ_clean_linker_1, # of connection points: 2
#     Edge 92, Type (0, 0), BuildingBlock: KIFKEQ_clean_linker_1, # of connection points: 2
#     Edge 93, Type (0, 0), BuildingBlock: KIFKEQ_clean_linker_1, # of connection points: 2
#     Edge 94, Type (0, 0), BuildingBlock: KIFKEQ_clean_linker_1, # of connection points: 2
#     Edge 95, Type (0, 0), BuildingBlock: KIFKEQ_clean_linker_1, # of connection points: 2
#     Edge 96, Type (0, 0), BuildingBlock: KIFKEQ_clean_linker_1, # of connection points: 2
#     Edge 97, Type (0, 0), BuildingBlock: KIFKEQ_clean_linker_1, # of connection points: 2
#     Edge 98, Type (0, 0), BuildingBlock: KIFKEQ_clean_linker_1, # of connection points: 2
#     Edge 99, Type (0, 0), BuildingBlock: KIFKEQ_clean_linker_1, # of connection points: 2
#     Edge 100, Type (0, 0), BuildingBlock: KIFKEQ_clean_linker_1, # of connection points: 2
#     Edge 101, Type (0, 0), BuildingBlock: KIFKEQ_clean_linker_1, # of connection points: 2
#     Edge 102, Type (0, 0), BuildingBlock: KIFKEQ_clean_linker_1, # of connection points: 2
#     Edge 103, Type (0, 0), BuildingBlock: KIFKEQ_clean_linker_1, # of connection points: 2
#     Edge 104, Type (0, 0), BuildingBlock: KIFKEQ_clean_linker_1, # of connection points: 2
#     Edge 105, Type (0, 0), BuildingBlock: KIFKEQ_clean_linker_1, # of connection points: 2
#     Edge 106, Type (0, 0), BuildingBlock: KIFKEQ_clean_linker_1, # of connection points: 2
#     Edge 107, Type (0, 0), BuildingBlock: KIFKEQ_clean_linker_1, # of connection points: 2
# Relax obj value: 0.180
# Max RMSD: 0.207
# Mean RMSD: 0.207
data_MOF--net-ict--node1-ICAMEG_clean_sbu_1--edge1-KIFKEQ_clean_linker_1
_symmetry_space_group_name_H-M    P1
_symmetry_Int_Tables_number       1
_symmetry_cell_setting            triclinic
loop_
_symmetry_equiv_pos_as_xyz
'x, y, z'
_cell_length_a     73.429604
_cell_length_b     73.425162
_cell_length_c     36.836918
_cell_angle_alpha  90.004881
_cell_angle_beta   89.997079
_cell_angle_gamma 119.9828
loop_
_atom_site_label
_atom_site_type_symbol
_atom_site_fract_x
_atom_site_fract_y
_atom_site_fract_z
_atom_type_partial_charge
Co0 Co 0.20853 0.16848 0.05692 0.0
Co1 Co 0.24635 0.22006 0.06281 0.0
O2 O 0.23761 0.19094 0.04863 0.0
C3 C 0.23504 0.14722 0.06491 0.0
O4 O 0.25278 0.16505 0.06158 0.0
C5 C 0.26754 0.22366 0.99118 0.0
O6 O 0.25094 0.20631 0.98023 0.0
O7 O 0.22438 0.2195 0.03015 0.0
O8 O 0.19773 0.18854 0.04836 0.0
H9 H 0.23379 0.27854 0.10126 0.0
H10 H 0.23443 0.16299 0.9999 0.0
O11 O 0.21749 0.1469 0.06509 0.0
H12 H 0.17075 0.1525 0.93685 0.0
H13 H 0.14632 0.09506 0.04837 0.0
H14 H 0.17291 0.16619 0.0986 0.0
H15 H 0.17542 0.16051 1.00221 0.0
H16 H 0.18257 0.12322 0.03578 0.0
O17 O 0.26766 0.23129 0.0223 0.0
H18 H 0.22354 0.24207 0.085 0.0
H19 H 0.28758 0.25999 0.06818 0.0
H20 H 0.13647 0.13853 0.11155 0.0
H21 H 0.23017 0.15453 0.93483 0.0
H22 H 0.12295 0.10266 0.08637 0.0
H23 H 0.19818 0.1493 0.90269 0.0
O24 O 0.21217 0.17539 0.10968 0.0
H25 H 0.30568 0.20738 0.09448 0.0
H26 H 0.25927 0.23294 0.13981 0.0
H27 H 0.28568 0.23267 0.18076 0.0
H28 H 0.30916 0.21987 0.15813 0.0
H29 H 0.27892 0.20773 0.05454 0.0
H30 H 0.2985 0.29668 0.08397 0.0
H31 H 0.27152 0.30615 0.10079 0.0
O32 O 0.22595 0.21021 0.10491 0.0
C33 C 0.20475 0.2062 0.03219 0.0
C34 C 0.2457 0.27461 0.09406 0.0
C35 C 0.28202 0.28479 0.08431 0.0
N36 N 0.25494 0.24886 0.07585 0.0
C37 C 0.23999 0.25397 0.08491 0.0
C38 C 0.27573 0.26399 0.07531 0.0
C39 C 0.26687 0.29009 0.09376 0.0
C40 C 0.22026 0.16032 0.98654 0.0
N41 N 0.20508 0.16195 0.00526 0.0
C42 C 0.21803 0.15572 0.94946 0.0
C43 C 0.20011 0.15285 0.93142 0.0
C44 C 0.18473 0.15466 0.95056 0.0
C45 C 0.18751 0.15928 0.98761 0.0
C46 C 0.15202 0.11064 0.05947 0.0
C47 C 0.16712 0.15065 0.0874 0.0
C48 C 0.17256 0.12664 0.05254 0.0
N49 N 0.17985 0.14638 0.06631 0.0
C50 C 0.14648 0.13504 0.09489 0.0
C51 C 0.13891 0.11491 0.08078 0.0
C52 C 0.21699 0.1932 0.12338 0.0
C53 C 0.29555 0.213 0.10466 0.0
C54 C 0.26932 0.2272 0.12979 0.0
C55 C 0.2843 0.22716 0.15309 0.0
C56 C 0.29748 0.22 0.14037 0.0
N57 N 0.2675 0.22029 0.09478 0.0
C58 C 0.28038 0.21327 0.08214 0.0
Co59 Co 0.84086 0.0441 0.05635 0.0
Co60 Co 0.78964 0.03142 0.06449 0.0
O61 O 0.81865 0.05128 0.04957 0.0
C62 C 0.86259 0.09172 0.06481 0.0
O63 O 0.84467 0.09158 0.06342 0.0
C64 C 0.78378 0.04668 0.99185 0.0
O65 O 0.79851 0.04368 0.97778 0.0
O66 O 0.78932 0.00967 0.03134 0.0
O67 O 0.82038 0.01349 0.04774 0.0
H68 H 0.73068 0.96097 0.10408 0.0
H69 H 0.84484 0.07536 1.00028 0.0
O70 O 0.86293 0.07452 0.06435 0.0
H71 H 0.85472 0.02262 0.93417 0.0
H72 H 0.9137 0.05418 0.04352 0.0
H73 H 0.84316 0.01025 0.09632 0.0
H74 H 0.84816 0.01926 1.00003 0.0
H75 H 0.88574 0.06286 0.0331 0.0
O76 O 0.77847 0.04205 0.02494 0.0
H77 H 0.76711 0.98662 0.08662 0.0
H78 H 0.75027 0.03368 0.07181 0.0
H79 H 0.87061 1.0009 0.10711 0.0
H80 H 0.85172 0.07951 0.93467 0.0
H81 H 0.90619 0.02294 0.08063 0.0
H82 H 0.85668 0.053 0.90101 0.0
O83 O 0.83462 0.04038 0.10952 0.0
H84 H 0.80404 0.10397 0.09656 0.0
H85 H 0.77753 0.03189 0.14191 0.0
H86 H 0.77885 0.05892 0.18319 0.0
H87 H 0.79213 0.09528 0.16055 0.0
H88 H 0.80269 0.07648 0.05634 0.0
H89 H 0.71363 0.00849 0.08881 0.0
H90 H 0.70364 0.97186 0.10524 0.0
O91 O 0.7996 0.0206 0.10581 0.0
C92 C 0.80248 1.0031 0.03229 0.0
C93 C 0.73485 0.9769 0.09704 0.0
C94 C 0.72527 0.00356 0.08843 0.0
N95 N 0.76086 0.01166 0.07836 0.0
C96 C 0.75546 0.99151 0.08719 0.0
C97 C 0.74604 0.01774 0.07871 0.0
C98 C 0.71968 0.98301 0.09766 0.0
C99 C 0.8474 0.06397 0.98622 0.0
N100 N 0.84655 0.04734 1.00441 0.0
C101 C 0.85111 0.06631 0.94886 0.0
C102 C 0.85383 0.0514 0.92998 0.0
C103 C 0.85273 0.03436 0.94856 0.0
C104 C 0.84899 0.03254 0.98591 0.0
C105 C 0.89825 0.04444 0.05518 0.0
C106 C 0.85857 0.01987 0.08456 0.0
C107 C 0.88237 0.04932 0.04949 0.0
N108 N 0.86278 0.03702 0.06396 0.0
C109 C 0.87407 0.01452 0.09083 0.0
C110 C 0.89403 0.0269 0.07599 0.0
C111 C 0.81678 0.02773 0.12362 0.0
C112 C 0.79827 0.0882 0.10679 0.0
C113 C 0.78359 0.04771 0.13196 0.0
C114 C 0.78417 0.06294 0.15541 0.0
C115 C 0.79159 0.08332 0.14268 0.0
N116 N 0.79025 0.05263 0.09681 0.0
C117 C 0.79745 0.07256 0.08412 0.0
Co118 Co 0.97055 0.80365 0.05316 0.0
Co119 Co 0.97757 0.76093 0.05931 0.0
O120 O 0.96047 0.77355 0.04477 0.0
C121 C 0.92324 0.78128 0.06517 0.0
O122 O 0.92235 0.7631 0.06898 0.0
C123 C 0.95535 0.73833 0.98989 0.0
O124 O 0.94886 0.75176 0.98388 0.0
O125 O 1.00106 0.78177 0.02852 0.0
O126 O 1.00061 0.81105 0.04455 0.0
H127 H 0.04397 0.76398 0.10239 0.0
H128 H 0.9374 0.7807 0.99742 0.0
O129 O 0.94091 0.79805 0.06084 0.0
H130 H 0.99534 0.83998 0.93235 0.0
H131 H 0.96827 0.87098 0.04391 0.0
H132 H 0.00604 0.83707 0.09486 0.0
H133 H 0.99823 0.83495 0.99777 0.0
H134 H 0.95609 0.83364 0.03145 0.0
O135 O 0.96694 0.74055 0.01724 0.0
H136 H 0.02145 0.77863 0.08503 0.0
H137 H 0.97083 0.71727 0.06284 0.0
H138 H 0.01885 0.87451 0.10774 0.0
H139 H 0.93375 0.78529 0.93215 0.0
H140 H 0.99991 0.8917 0.0822 0.0
H141 H 0.96289 0.81508 0.89906 0.0
O142 O 0.97331 0.79969 0.10609 0.0
H143 H 0.90217 0.70706 0.08602 0.0
H144 H 0.97416 0.74533 0.13523 0.0
H145 H 0.94527 0.71999 0.17402 0.0
H146 H 0.90894 0.70053 0.14941 0.0
H147 H 0.93144 0.73283 0.04847 0.0
H148 H 0.99287 0.70198 0.07965 0.0
H149 H 0.0297 0.72538 0.09973 0.0
O150 O 0.9889 0.78021 0.10256 0.0
C151 C 0.00941 0.80171 0.02967 0.0
C152 C 0.02794 0.75362 0.09376 0.0
C153 C 0.99926 0.71883 0.08095 0.0
N154 N 0.99482 0.74885 0.07311 0.0
C155 C 0.01509 0.76182 0.08396 0.0
C156 C 0.98688 0.72759 0.07136 0.0
C157 C 0.01992 0.73196 0.09223 0.0
C158 C 0.95009 0.79379 0.98342 0.0
N159 N 0.96799 0.80751 1.00156 0.0
C160 C 0.94796 0.79627 0.94635 0.0
C161 C 0.96432 0.81297 0.92779 0.0
C162 C 0.98253 0.82693 0.94644 0.0
C163 C 0.98409 0.82394 0.9835 0.0
C164 C 0.97666 0.86367 0.05517 0.0
C165 C 0.99776 0.84446 0.0835 0.0
C166 C 0.96981 0.8425 0.04831 0.0
N167 N 0.98039 0.83318 0.0623 0.0
C168 C 0.00507 0.86566 0.09095 0.0
C169 C 0.99442 0.87529 0.07664 0.0
C170 C 0.98373 0.79188 0.12037 0.0
C171 C 0.91794 0.71539 0.09704 0.0
C172 C 0.9584 0.73714 0.12437 0.0
C173 C 0.9421 0.7227 0.14645 0.0
C174 C 0.92173 0.71177 0.13262 0.0
N175 N 0.95459 0.74064 0.08945 0.0
C176 C 0.93464 0.72996 0.07577 0.0
Co177 Co 0.17084 0.20445 0.45463 0.0
Co178 Co 0.22075 0.24598 0.4465 0.0
O179 O 0.19128 0.23447 0.46186 0.0
C180 C 0.14584 0.22713 0.44576 0.0
O181 O 0.16298 0.24561 0.44539 0.0
C182 C 0.2224 0.26987 0.51487 0.0
O183 O 0.203 0.25577 0.523 0.0
O184 O 0.22301 0.22568 0.47934 0.0
O185 O 0.19336 0.19668 0.46239 0.0
H186 H 0.2828 0.24004 0.4052 0.0
H187 H 0.16208 0.22816 0.5113 0.0
O188 O 0.14698 0.21036 0.44759 0.0
H189 H 0.16054 0.16859 0.57561 0.0
H190 H 0.10091 0.13776 0.4666 0.0
H191 H 0.1719 0.17043 0.41308 0.0
H192 H 0.16746 0.17321 0.5099 0.0
H193 H 0.12656 0.1751 0.47792 0.0
O194 O 0.23124 0.26765 0.48672 0.0
H195 H 0.24592 0.22665 0.42324 0.0
H196 H 0.25816 0.28907 0.43926 0.0
H197 H 0.14679 0.13298 0.40134 0.0
H198 H 0.15479 0.22395 0.57685 0.0
H199 H 0.11099 0.1164 0.42818 0.0
H200 H 0.15405 0.19402 0.60959 0.0
O201 O 0.17689 0.20817 0.40159 0.0
H202 H 0.20045 0.30008 0.41436 0.0
H203 H 0.23194 0.25882 0.36909 0.0
H204 H 0.22838 0.28326 0.32781 0.0
H205 H 0.2126 0.30417 0.3504 0.0
H206 H 0.20405 0.27528 0.45456 0.0
H207 H 0.29521 0.30312 0.42171 0.0
H208 H 0.30773 0.27854 0.40437 0.0
O209 O 0.212 0.22532 0.40489 0.0
C210 C 0.21122 0.20577 0.47827 0.0
C211 C 0.27752 0.25091 0.41262 0.0
C212 C 0.28449 0.28631 0.42193 0.0
N213 N 0.24984 0.25704 0.43212 0.0
C214 C 0.25664 0.24342 0.42279 0.0
C215 C 0.2635 0.27825 0.43194 0.0
C216 C 0.29151 0.27251 0.41219 0.0
C217 C 0.16156 0.21497 0.52507 0.0
N218 N 0.16512 0.20094 0.50652 0.0
C219 C 0.15752 0.21272 0.56234 0.0
C220 C 0.15714 0.19595 0.5807 0.0
C221 C 0.16079 0.18168 0.56167 0.0
C222 C 0.16477 0.18444 0.52443 0.0
C223 C 0.11646 0.1448 0.45477 0.0
C224 C 0.15639 0.16332 0.425 0.0
C225 C 0.13104 0.16596 0.46098 0.0
N226 N 0.15076 0.17494 0.44629 0.0
C227 C 0.14222 0.14211 0.41819 0.0
C228 C 0.12213 0.13282 0.43323 0.0
C229 C 0.19489 0.21469 0.38718 0.0
C230 C 0.20739 0.2911 0.40421 0.0
C231 C 0.22493 0.26775 0.37914 0.0
C232 C 0.22302 0.28162 0.35563 0.0
C233 C 0.21419 0.29336 0.36832 0.0
N234 N 0.21824 0.26561 0.41435 0.0
C235 C 0.20955 0.27706 0.42693 0.0
Co236 Co 0.80126 0.96711 0.45612 0.0
Co237 Co 0.75951 0.97502 0.44273 0.0
O238 O 0.77105 0.95741 0.45954 0.0
C239 C 0.779 0.91967 0.44372 0.0
O240 O 0.76049 0.91827 0.44279 0.0
C241 C 0.73803 0.9594 0.51473 0.0
O242 O 0.75619 0.96465 0.52988 0.0
O243 O 0.77879 0.99798 0.47621 0.0
O244 O 0.80852 0.99688 0.46713 0.0
H245 H 0.76417 0.04214 0.39949 0.0
H246 H 0.77313 0.93344 0.50819 0.0
O247 O 0.79569 0.9376 0.44644 0.0
H248 H 0.83145 0.98641 0.58227 0.0
H249 H 0.867 0.96275 0.47486 0.0
H250 H 0.83729 0.00388 0.42155 0.0
H251 H 0.83038 0.99155 0.51642 0.0
H252 H 0.82927 0.95084 0.48122 0.0
O253 O 0.73711 0.96279 0.48108 0.0
H254 H 0.77815 0.01944 0.4194 0.0
H255 H 0.71612 0.96803 0.43214 0.0
H256 H 0.87518 0.01647 0.4149 0.0
H257 H 0.77371 0.9276 0.57375 0.0
H258 H 0.89026 0.99584 0.44165 0.0
H259 H 0.80302 0.95419 0.6114 0.0
O260 O 0.80058 0.97198 0.40273 0.0
H261 H 0.70676 0.90038 0.41014 0.0
H262 H 0.74841 0.97287 0.36412 0.0
H263 H 0.72526 0.94451 0.32225 0.0
H264 H 0.70416 0.90793 0.34522 0.0
H265 H 0.73036 0.92921 0.45097 0.0
H266 H 0.70145 0.9902 0.41266 0.0
H267 H 0.72554 0.02753 0.39605 0.0
O268 O 0.78098 0.9875 0.40295 0.0
C269 C 0.79865 0.00587 0.47913 0.0
C270 C 0.75351 0.02589 0.40663 0.0
C271 C 0.71831 0.99675 0.41406 0.0
N272 N 0.748 0.99243 0.42687 0.0
C273 C 0.76134 0.01296 0.41789 0.0
C274 C 0.72672 0.98429 0.4252 0.0
C275 C 0.73184 0.01769 0.40472 0.0
C276 C 0.78615 0.94494 0.52403 0.0
N277 N 0.80194 0.96259 0.50807 0.0
C278 C 0.7863 0.94161 0.56133 0.0
C279 C 0.80272 0.95655 0.58245 0.0
C280 C 0.81867 0.97461 0.56613 0.0
C281 C 0.81798 0.97741 0.52876 0.0
C282 C 0.86062 0.97189 0.46311 0.0
C283 C 0.84376 0.99487 0.43345 0.0
C284 C 0.83924 0.96518 0.46649 0.0
N285 N 0.83108 0.97671 0.4519 0.0
C286 C 0.86521 1.00206 0.42951 0.0
C287 C 0.87366 0.99046 0.44449 0.0
C288 C 0.79364 0.98287 0.38724 0.0
C289 C 0.7159 0.91624 0.39978 0.0
C290 C 0.73953 0.95698 0.37425 0.0
C291 C 0.72632 0.94099 0.35044 0.0
C292 C 0.71447 0.92048 0.36335 0.0
N293 N 0.74095 0.95269 0.40991 0.0
C294 C 0.72928 0.93264 0.42279 0.0
Co295 Co 0.04048 0.83505 0.45297 0.0
Co296 Co 0.02977 0.78414 0.44706 0.0
O297 O 0.0486 0.81361 0.46163 0.0
C298 C 0.08823 0.85825 0.44464 0.0
O299 O 0.08894 0.84078 0.44646 0.0
C300 C 0.0484 0.78173 0.51892 0.0
O301 O 0.05104 0.80009 0.52844 0.0
O302 O 0.00691 0.78318 0.47799 0.0
O303 O 0.01 0.81383 0.46089 0.0
H304 H 0.96117 0.72347 0.4045 0.0
H305 H 0.07254 0.84278 0.51001 0.0
O306 O 0.07062 0.85778 0.44529 0.0
H307 H 0.01649 0.8486 0.57298 0.0
H308 H 0.04751 0.9068 0.4621 0.0
H309 H 0.00636 0.83551 0.41063 0.0
H310 H 0.01376 0.84077 0.50759 0.0
H311 H 0.05744 0.87994 0.47471 0.0
O312 O 0.03967 0.77345 0.48878 0.0
H313 H 0.98557 0.76028 0.42184 0.0
H314 H 0.0336 0.74551 0.44307 0.0
H315 H 0.99578 0.86186 0.39761 0.0
H316 H 0.07615 0.85113 0.57514 0.0
H317 H 0.01642 0.8978 0.42343 0.0
H318 H 0.04794 0.85399 0.60724 0.0
O319 O 0.03761 0.82835 0.40015 0.0
H320 H 0.10384 0.80108 0.42122 0.0
H321 H 0.03241 0.77158 0.37088 0.0
H322 H 0.06075 0.77354 0.33233 0.0
H323 H 0.09679 0.78832 0.3575 0.0
H324 H 0.07508 0.79907 0.45863 0.0
H325 H 0.00966 0.70852 0.42626 0.0
H326 H 0.97318 0.6973 0.40668 0.0
O327 O 0.0194 0.79323 0.40376 0.0
C328 C 0.99977 0.79583 0.47604 0.0
C329 C 0.97704 0.72818 0.41292 0.0
C330 C 1.00425 0.71978 0.42517 0.0
N331 N 0.01102 0.75509 0.43327 0.0
C332 C 0.99095 0.74901 0.4227 0.0
C333 C 0.01771 0.74075 0.43476 0.0
C334 C 0.98379 0.7135 0.41417 0.0
C335 C 0.06036 0.84436 0.5234 0.0
N336 N 0.04305 0.84144 0.50466 0.0
C337 C 0.06242 0.84893 0.56049 0.0
C338 C 0.04657 0.85048 0.5785 0.0
C339 C 0.02891 0.84743 0.55931 0.0
C340 C 0.02741 0.84289 0.52226 0.0
C341 C 0.03837 0.89119 0.45072 0.0
C342 C 0.01538 0.85109 0.4221 0.0
C343 C 0.04396 0.87591 0.45767 0.0
N344 N 0.03243 0.85611 0.44355 0.0
C345 C 0.00933 0.86595 0.41457 0.0
C346 C 0.02093 0.88613 0.42904 0.0
C347 C 0.02594 0.81032 0.3859 0.0
C348 C 0.08821 0.79461 0.40992 0.0
C349 C 0.04806 0.77824 0.38194 0.0
C350 C 0.06404 0.7792 0.36002 0.0
C351 C 0.08425 0.78747 0.37417 0.0
N352 N 0.05207 0.7853 0.41698 0.0
C353 C 0.07183 0.79338 0.43103 0.0
Co354 Co 0.80365 0.84059 0.95586 0.0
Co355 Co 0.76298 0.7898 0.94887 0.0
O356 O 0.77405 0.81934 0.96269 0.0
C357 C 0.77913 0.86344 0.94314 0.0
O358 O 0.76102 0.84596 0.94566 0.0
C359 C 0.73871 0.76922 0.0166 0.0
O360 O 0.75097 0.76123 0.0221 0.0
O361 O 0.78403 0.78833 0.98121 0.0
O362 O 0.81263 0.81954 0.96882 0.0
H363 H 0.76804 0.7267 0.91115 0.0
H364 H 0.77584 0.84563 0.0094 0.0
O365 O 0.79633 0.86308 0.94422 0.0
H366 H 0.83914 0.85982 0.07812 0.0
H367 H 0.8679 0.91284 0.96277 0.0
H368 H 0.83931 0.84 0.9196 0.0
H369 H 0.83593 0.85052 0.01331 0.0
H370 H 0.83088 0.88623 0.97421 0.0
O371 O 0.74207 0.78153 0.98983 0.0
H372 H 0.7818 0.76399 0.92678 0.0
H373 H 0.71974 0.75246 0.94391 0.0
H374 H 0.87651 0.86608 0.90798 0.0
H375 H 0.77848 0.85501 0.07397 0.0
H376 H 0.89103 0.90281 0.92961 0.0
H377 H 0.81032 0.86222 0.10892 0.0
O378 O 0.8012 0.83289 0.90336 0.0
H379 H 0.70716 0.80773 0.91693 0.0
H380 H 0.75 0.778 0.87164 0.0
H381 H 0.72496 0.78059 0.83046 0.0
H382 H 0.70326 0.79549 0.85305 0.0
H383 H 0.73261 0.80513 0.95708 0.0
H384 H 0.70529 0.71503 0.9286 0.0
H385 H 0.72951 0.70193 0.91204 0.0
O386 O 0.78324 0.79769 0.90699 0.0
C387 C 0.80382 0.80106 0.98246 0.0
C388 C 0.75733 0.73221 0.91837 0.0
C389 C 0.72211 0.72566 0.92817 0.0
N390 N 0.75163 0.76039 0.93638 0.0
C391 C 0.76504 0.7533 0.92726 0.0
C392 C 0.7304 0.74686 0.93689 0.0
C393 C 0.73571 0.71832 0.91886 0.0
C394 C 0.78988 0.849 0.02403 0.0
N395 N 0.8059 0.84796 0.0071 0.0
C396 C 0.79123 0.85419 0.0608 0.0
C397 C 0.80908 0.85821 0.0804 0.0
C398 C 0.82525 0.85689 0.06314 0.0
C399 C 0.82334 0.85164 0.02635 0.0
C400 C 0.86176 0.89689 0.95324 0.0
C401 C 0.84555 0.85591 0.92932 0.0
C402 C 0.84078 0.88175 0.95949 0.0
N403 N 0.83295 0.86152 0.94776 0.0
C404 C 0.86661 0.87063 0.92255 0.0
C405 C 0.87474 0.89124 0.93466 0.0
C406 C 0.79463 0.81472 0.88948 0.0
C407 C 0.71654 0.80123 0.90674 0.0
C408 C 0.74082 0.78473 0.88163 0.0
C409 C 0.72656 0.78604 0.8582 0.0
C410 C 0.71437 0.79438 0.87091 0.0
N411 N 0.74292 0.79157 0.91674 0.0
C412 C 0.73096 0.79968 0.92939 0.0
Co413 Co 0.17187 0.96612 0.95441 0.0
Co414 Co 0.22286 0.97786 0.94624 0.0
O415 O 0.19376 0.95853 0.96148 0.0
C416 C 0.14946 0.91842 0.94673 0.0
O417 O 0.16723 0.91827 0.94843 0.0
C418 C 0.22837 0.96285 0.01932 0.0
O419 O 0.21382 0.96619 0.03315 0.0
O420 O 0.22372 1.00014 0.97867 0.0
O421 O 0.19275 0.99667 0.96265 0.0
H422 H 0.28263 0.04744 0.90512 0.0
H423 H 0.16744 0.93493 0.01101 0.0
O424 O 0.14942 0.93578 0.94677 0.0
H425 H 0.15857 0.98857 0.07613 0.0
H426 H 0.09954 0.95735 0.96691 0.0
H427 H 0.17021 1.00016 0.91393 0.0
H428 H 0.16508 0.99154 0.01027 0.0
H429 H 0.12706 0.94809 0.97761 0.0
O430 O 0.23374 0.96725 0.98622 0.0
H431 H 0.24607 0.02246 0.92296 0.0
H432 H 0.26172 0.97464 0.93936 0.0
H433 H 0.14319 0.01008 0.90286 0.0
H434 H 0.16058 0.93116 0.07664 0.0
H435 H 0.10755 0.98861 0.92944 0.0
H436 H 0.15613 0.95813 0.1098 0.0
O437 O 0.17808 0.96952 0.90121 0.0
H438 H 0.20699 0.90456 0.91639 0.0
H439 H 0.23466 0.9764 0.86898 0.0
H440 H 0.23268 0.94873 0.82856 0.0
H441 H 0.2188 0.91249 0.85224 0.0
H442 H 0.20902 0.93269 0.95573 0.0
H443 H 0.29848 0.99915 0.92198 0.0
H444 H 0.30913 0.03583 0.90456 0.0
O445 O 0.21317 0.98864 0.90454 0.0
C446 C 0.21081 0.00701 0.97759 0.0
C447 C 0.27817 0.03149 0.91259 0.0
C448 C 0.28707 0.0044 0.9221 0.0
N449 N 0.25172 0.99708 0.93204 0.0
C450 C 0.25748 0.01726 0.92266 0.0
C451 C 0.26624 0.9906 0.93203 0.0
C452 C 0.29304 0.02497 0.91231 0.0
C453 C 0.16509 0.94652 0.02485 0.0
N454 N 0.16621 0.96318 0.00638 0.0
C455 C 0.1614 0.94439 0.06222 0.0
C456 C 0.15897 0.95956 0.08083 0.0
C457 C 0.16034 0.97664 0.06196 0.0
C458 C 0.16405 0.97823 0.0246 0.0
C459 C 0.11501 0.96684 0.95521 0.0
C460 C 0.15477 0.99078 0.92573 0.0
C461 C 0.13065 0.96164 0.96106 0.0
N462 N 0.15029 0.97363 0.94654 0.0
C463 C 0.13952 0.99646 0.9193 0.0
C464 C 0.11952 0.98439 0.9342 0.0
C465 C 0.19597 0.98176 0.88689 0.0
C466 C 0.21301 0.92028 0.90571 0.0
C467 C 0.22834 0.96064 0.87937 0.0
C468 C 0.22739 0.94505 0.85641 0.0
C469 C 0.21963 0.92473 0.86972 0.0
N470 N 0.22173 0.95614 0.9146 0.0
C471 C 0.21421 0.93628 0.92787 0.0
Co472 Co 0.04078 0.20786 0.95613 0.0
Co473 Co 0.03144 0.24877 0.94407 0.0
O474 O 0.04976 0.23789 0.96073 0.0
C475 C 0.08841 0.23096 0.9453 0.0
O476 O 0.08969 0.24943 0.94582 0.0
C477 C 0.04921 0.27078 0.01509 0.0
O478 O 0.04854 0.25376 0.02774 0.0
O479 O 0.00884 0.22894 0.97735 0.0
O480 O 0.01063 0.19978 0.96622 0.0
H481 H 0.96342 0.24208 0.90094 0.0
H482 H 0.07395 0.23485 0.0099 0.0
O483 O 0.07054 0.21415 0.94711 0.0
H484 H 0.02005 0.17522 0.08039 0.0
H485 H 0.04641 0.14265 0.97221 0.0
H486 H 0.00493 0.17205 0.91925 0.0
H487 H 0.01558 0.17771 0.01467 0.0
H488 H 0.05751 0.18009 0.9804 0.0
O489 O 0.04277 0.27101 0.98308 0.0
H490 H 0.98696 0.22903 0.92044 0.0
H491 H 0.03702 0.29167 0.93439 0.0
H492 H 0.99315 0.13445 0.91073 0.0
H493 H 0.0792 0.23279 0.07532 0.0
H494 H 0.01396 0.11952 0.9373 0.0
H495 H 0.05211 0.20284 0.11119 0.0
O496 O 0.03681 0.20952 0.90285 0.0
H497 H 0.10559 0.30306 0.91182 0.0
H498 H 0.03329 0.25991 0.86558 0.0
H499 H 0.0614 0.28376 0.82389 0.0
H500 H 0.09786 0.3056 0.84697 0.0
H501 H 0.07703 0.27881 0.9525 0.0
H502 H 0.01399 0.30541 0.91531 0.0
H503 H 0.97691 0.28055 0.89831 0.0
O504 O 0.01946 0.22736 0.90373 0.0
C505 C 1.00133 0.20911 0.97921 0.0
C506 C 0.97955 0.25308 0.90823 0.0
C507 C 0.00793 0.28861 0.91633 0.0
N508 N 0.01336 0.25954 0.92843 0.0
C509 C 0.99297 0.24577 0.91924 0.0
C510 C 0.02088 0.28073 0.92721 0.0
C511 C 0.98713 0.27466 0.90678 0.0
C512 C 0.06226 0.22155 0.02494 0.0
N513 N 0.04465 0.20626 0.00809 0.0
C514 C 0.06524 0.22056 0.06218 0.0
C515 C 0.05002 0.20379 0.0823 0.0
C516 C 0.03204 0.1883 0.06505 0.0
C517 C 0.02959 0.18983 0.02778 0.0
C518 C 0.0372 0.14896 0.96053 0.0
C519 C 0.01401 0.16565 0.93107 0.0
C520 C 0.04345 0.17019 0.96495 0.0
N521 N 0.03182 0.17826 0.95044 0.0
C522 C 0.00729 0.14436 0.92608 0.0
C523 C 0.01899 0.13599 0.94096 0.0
C524 C 0.02527 0.21572 0.88759 0.0
C525 C 0.08977 0.29363 0.90144 0.0
C526 C 0.04914 0.26922 0.8758 0.0
C527 C 0.06498 0.28277 0.85208 0.0
C528 C 0.08542 0.29503 0.86505 0.0
N529 N 0.05353 0.2679 0.91146 0.0
C530 C 0.07352 0.2799 0.92437 0.0
Co531 Co 0.83876 0.7983 0.55871 0.0
Co532 Co 0.78729 0.76099 0.56666 0.0
O533 O 0.81611 0.76923 0.55163 0.0
C534 C 0.85997 0.77168 0.56572 0.0
O535 O 0.84211 0.75393 0.56285 0.0
C536 C 0.78153 0.73979 0.49443 0.0
O537 O 0.79655 0.75752 0.48091 0.0
O538 O 0.78768 0.78264 0.53316 0.0
O539 O 0.81881 0.80924 0.55073 0.0
H540 H 0.72954 0.77457 0.60551 0.0
H541 H 0.84205 0.77111 0.50162 0.0
O542 O 0.8603 0.78922 0.56616 0.0
H543 H 0.85333 0.8348 0.43754 0.0
H544 H 0.91223 0.86006 0.54655 0.0
H545 H 0.84197 0.83449 0.59988 0.0
H546 H 0.84673 0.83114 0.50337 0.0
H547 H 0.88371 0.82376 0.5355 0.0
O548 O 0.77576 0.73905 0.52726 0.0
H549 H 0.76577 0.78436 0.58837 0.0
H550 H 0.74729 0.72 0.57402 0.0
H551 H 0.86999 0.87098 0.61129 0.0
H552 H 0.84898 0.7743 0.43601 0.0
H553 H 0.90543 0.88398 0.58454 0.0
H554 H 0.85464 0.80631 0.40337 0.0
O555 O 0.83253 0.79523 0.61178 0.0
H556 H 0.79988 0.70186 0.60044 0.0
H557 H 0.77518 0.74925 0.64428 0.0
H558 H 0.77573 0.72339 0.68623 0.0
H559 H 0.7881 0.69942 0.66436 0.0
H560 H 0.79926 0.72811 0.55947 0.0
H561 H 0.71083 0.70953 0.59071 0.0
H562 H 0.70177 0.73691 0.60674 0.0
O563 O 0.79775 0.78203 0.60785 0.0
C564 C 0.80114 0.80226 0.53463 0.0
C565 C 0.7333 0.76249 0.59866 0.0
C566 C 0.72279 0.72599 0.5903 0.0
N567 N 0.75868 0.75277 0.58038 0.0
C568 C 0.75381 0.76793 0.589 0.0
C569 C 0.74346 0.73202 0.58077 0.0
C570 C 0.71772 0.74136 0.59931 0.0
C571 C 0.84493 0.78529 0.48801 0.0
N572 N 0.84444 0.80109 0.50675 0.0
C573 C 0.84866 0.78692 0.45064 0.0
C574 C 0.85177 0.80485 0.43233 0.0
C575 C 0.85104 0.82083 0.45147 0.0
C576 C 0.84727 0.81864 0.48882 0.0
C577 C 0.89685 0.85458 0.55834 0.0
C578 C 0.85731 0.84004 0.58801 0.0
C579 C 0.88064 0.83401 0.55229 0.0
N580 N 0.86113 0.82701 0.56691 0.0
C581 C 0.87314 0.86072 0.59462 0.0
C582 C 0.89302 0.868 0.57964 0.0
C583 C 0.81492 0.79083 0.62592 0.0
C584 C 0.79446 0.71222 0.6103 0.0
C585 C 0.78074 0.739 0.63459 0.0
C586 C 0.78093 0.72432 0.65846 0.0
C587 C 0.78786 0.71087 0.64616 0.0
N588 N 0.78727 0.74026 0.59945 0.0
C589 C 0.79405 0.7271 0.58721 0.0
Co590 Co 0.20587 0.04018 0.55595 0.0
Co591 Co 0.24566 0.02866 0.55992 0.0
O592 O 0.23521 0.04774 0.54612 0.0
C593 C 0.2316 0.08776 0.56397 0.0
O594 O 0.24928 0.08745 0.56271 0.0
C595 C 0.26771 0.04892 0.48911 0.0
O596 O 0.25453 0.0557 0.48291 0.0
O597 O 0.22313 0.00595 0.52991 0.0
O598 O 0.196 0.00952 0.54812 0.0
H599 H 0.23691 0.9597 0.60238 0.0
H600 H 0.22974 0.07198 0.49826 0.0
O601 O 0.214 0.07062 0.56344 0.0
H602 H 0.16688 0.01609 0.43727 0.0
H603 H 0.14197 0.04873 0.54968 0.0
H604 H 0.17145 0.00654 0.59923 0.0
H605 H 0.17264 0.01356 0.50245 0.0
H606 H 0.17841 0.05793 0.53568 0.0
O607 O 0.26553 0.03776 0.51707 0.0
H608 H 0.22496 0.98458 0.58586 0.0
H609 H 0.28775 0.03153 0.56171 0.0
H610 H 0.13487 0.9967 0.61365 0.0
H611 H 0.22439 0.07534 0.43329 0.0
H612 H 0.1199 0.01786 0.5888 0.0
H613 H 0.19281 0.04722 0.40219 0.0
O614 O 0.21022 0.03732 0.60862 0.0
H615 H 0.30418 0.10242 0.58442 0.0
H616 H 0.26192 0.03114 0.63514 0.0
H617 H 0.28918 0.05918 0.67291 0.0
H618 H 0.31064 0.09514 0.64754 0.0
H619 H 0.27653 0.074 0.54787 0.0
H620 H 0.30034 0.00709 0.57766 0.0
H621 H 0.27485 0.97091 0.59831 0.0
O622 O 0.22686 0.01887 0.60402 0.0
C623 C 0.20342 0.99906 0.53257 0.0
C624 C 0.24818 0.97544 0.5935 0.0
C625 C 0.28377 1.00203 0.57958 0.0
N626 N 0.25563 0.00953 0.57303 0.0
C627 C 0.2415 0.98962 0.58419 0.0
C628 C 0.27653 0.01578 0.57049 0.0
C629 C 0.26946 0.98173 0.59119 0.0
C630 C 0.21582 0.05979 0.48527 0.0
N631 N 0.20151 0.04265 0.50445 0.0
C632 C 0.21294 0.06173 0.44829 0.0
C633 C 0.19524 0.04593 0.43084 0.0
C634 C 0.18071 0.02846 0.45049 0.0
C635 C 0.18412 0.02707 0.48742 0.0
C636 C 0.14831 0.03937 0.56064 0.0
C637 C 0.16503 0.01578 0.58818 0.0
C638 C 0.16896 0.04454 0.5529 0.0
N639 N 0.17705 0.03272 0.56648 0.0
C640 C 0.14431 0.01015 0.5965 0.0
C641 C 0.13593 0.02205 0.58258 0.0
C642 C 0.21655 0.0255 0.62237 0.0
C643 C 0.29496 0.08681 0.59579 0.0
C644 C 0.27098 0.04676 0.62399 0.0
C645 C 0.28651 0.06257 0.64546 0.0
C646 C 0.29856 0.08273 0.6312 0.0
N647 N 0.26752 0.05086 0.58924 0.0
C648 C 0.2793 0.0706 0.57512 0.0
Co649 Co 0.96378 0.16562 0.55832 0.0
Co650 Co 0.97756 0.21721 0.56417 0.0
O651 O 0.95721 0.18812 0.54974 0.0
C652 C 0.91604 0.14452 0.56491 0.0
O653 O 0.91649 0.16257 0.56256 0.0
C654 C 0.96013 0.22112 0.49247 0.0
O655 O 0.95898 0.20359 0.4815 0.0
O656 O 0.999 0.21659 0.5317 0.0
O657 O 0.9947 0.18573 0.55053 0.0
H658 H 0.04854 0.27541 0.60338 0.0
H659 H 0.93294 0.16037 0.50041 0.0
O660 O 0.93313 0.14393 0.5655 0.0
H661 H 0.9867 0.15009 0.43893 0.0
H662 H 0.95284 0.09229 0.54958 0.0
H663 H 0.99676 0.16321 0.60095 0.0
H664 H 0.98941 0.15782 0.50436 0.0
H665 H 0.94477 0.12044 0.53671 0.0
O666 O 0.96772 0.22865 0.52359 0.0
H667 H 0.0223 0.23902 0.58678 0.0
H668 H 0.97639 0.25722 0.56967 0.0
H669 H 0.0055 0.13556 0.61419 0.0
H670 H 0.92936 0.15221 0.43523 0.0
H671 H 0.98346 0.09978 0.58843 0.0
H672 H 0.95642 0.14708 0.40388 0.0
O673 O 0.96665 0.17242 0.61122 0.0
H674 H 0.90556 0.2048 0.59507 0.0
H675 H 0.97728 0.22993 0.6412 0.0
H676 H 0.95052 0.2297 0.68187 0.0
H677 H 0.91437 0.21713 0.65884 0.0
H678 H 0.93276 0.20509 0.55542 0.0
H679 H 1.00219 0.29383 0.58579 0.0
H680 H 0.03854 0.30312 0.60293 0.0
O681 O 0.9879 0.2072 0.60634 0.0
C682 C 0.00534 0.2033 0.53408 0.0
C683 C 0.03273 0.27155 0.59604 0.0
C684 C 0.00673 0.2819 0.58613 0.0
N685 N 0.99779 0.24595 0.57747 0.0
C686 C 0.01779 0.25096 0.58669 0.0
C687 C 0.9922 0.26114 0.57693 0.0
C688 C 0.02712 0.28709 0.59576 0.0
C689 C 0.94456 0.15775 0.48738 0.0
N690 N 0.96118 0.15928 0.50659 0.0
C691 C 0.94255 0.15331 0.45024 0.0
C692 C 0.95776 0.1505 0.43265 0.0
C693 C 0.97475 0.15221 0.45229 0.0
C694 C 0.97623 0.15666 0.48938 0.0
C695 C 0.96257 0.10781 0.56095 0.0
C696 C 0.98713 0.14772 0.58952 0.0
C697 C 0.95804 0.12381 0.55387 0.0
N698 N 0.97033 0.14351 0.56797 0.0
C699 C 0.99214 0.1321 0.59716 0.0
C700 C 0.97976 0.11203 0.58273 0.0
C701 C 0.97974 0.19021 0.62489 0.0
C702 C 0.92126 0.21033 0.60542 0.0
C703 C 0.96155 0.22428 0.63101 0.0
C704 C 0.94648 0.22427 0.65415 0.0
C705 C 0.92621 0.21722 0.64121 0.0
N706 N 0.95658 0.21746 0.59593 0.0
C707 C 0.93674 0.21056 0.58307 0.0
Co708 Co 0.87272 0.50009 0.39293 0.0
Co709 Co 0.91466 0.54991 0.3979 0.0
O710 O 0.90239 0.52037 0.38357 0.0
C711 C 0.89588 0.47562 0.4019 0.0
O712 O 0.9142 0.49294 0.40302 0.0
C713 C 0.93855 0.57238 0.33151 0.0
O714 O 0.92808 0.58257 0.33161 0.0
O715 O 0.89308 0.55212 0.36788 0.0
O716 O 0.86471 0.52225 0.38546 0.0
H717 H 0.91198 0.61371 0.43935 0.0
H718 H 0.89657 0.49241 0.33532 0.0
O719 O 0.87896 0.47646 0.39983 0.0
H720 H 0.83484 0.48771 0.27351 0.0
H721 H 0.80607 0.42985 0.38497 0.0
H722 H 0.83938 0.5014 0.43628 0.0
H723 H 0.8401 0.49499 0.33909 0.0
H724 H 0.84313 0.45551 0.37152 0.0
O725 O 0.93419 0.55794 0.35488 0.0
H726 H 0.89717 0.57648 0.42222 0.0
H727 H 0.95851 0.58653 0.40253 0.0
H728 H 0.80222 0.47628 0.45014 0.0
H729 H 0.89175 0.48479 0.26984 0.0
H730 H 0.78532 0.44021 0.42441 0.0
H731 H 0.86071 0.48241 0.23842 0.0
O732 O 0.87725 0.50699 0.4457 0.0
H733 H 0.96983 0.52977 0.42072 0.0
H734 H 0.93048 0.56136 0.47409 0.0
H735 H 0.95634 0.55781 0.51146 0.0
H736 H 0.97632 0.54199 0.48476 0.0
H737 H 0.94352 0.53327 0.38451 0.0
H738 H 0.97398 0.62387 0.41939 0.0
H739 H 0.95065 0.63769 0.43797 0.0
O740 O 0.89579 0.54218 0.44187 0.0
C741 C 0.87316 0.54023 0.37008 0.0
C742 C 0.92231 0.60788 0.4313 0.0
C743 C 0.95711 0.61358 0.42011 0.0
N744 N 0.92694 0.57932 0.41139 0.0
C745 C 0.91401 0.58681 0.42158 0.0
C746 C 0.94825 0.59242 0.41059 0.0
C747 C 0.94401 0.62133 0.43053 0.0
C748 C 0.88287 0.49113 0.32208 0.0
N749 N 0.86847 0.49382 0.3413 0.0
C750 C 0.88029 0.48693 0.28487 0.0
C751 C 0.8629 0.48564 0.26724 0.0
C752 C 0.84838 0.4886 0.28691 0.0
C753 C 0.85147 0.49276 0.32408 0.0
C754 C 0.81325 0.44552 0.39632 0.0
C755 C 0.83213 0.48577 0.42486 0.0
C756 C 0.83427 0.46011 0.38891 0.0
N757 N 0.84342 0.47999 0.40299 0.0
C758 C 0.81108 0.47159 0.43286 0.0
C759 C 0.80161 0.45135 0.41844 0.0
C760 C 0.88459 0.52523 0.45985 0.0
C761 C 0.96122 0.53668 0.43268 0.0
C762 C 0.93884 0.55417 0.46239 0.0
C763 C 0.9536 0.55234 0.48363 0.0
C764 C 0.96483 0.54351 0.46862 0.0
N765 N 0.93532 0.54737 0.42717 0.0
C766 C 0.94633 0.53876 0.41227 0.0
Co767 Co 0.51134 0.37967 0.39541 0.0
Co768 Co 0.46079 0.36983 0.39686 0.0
O769 O 0.49048 0.38809 0.38442 0.0
C770 C 0.53443 0.42743 0.4029 0.0
O771 O 0.51687 0.42792 0.40065 0.0
C772 C 0.43904 0.37099 0.32924 0.0
O773 O 0.42952 0.35035 0.32883 0.0
O774 O 0.46028 0.34685 0.36667 0.0
O775 O 0.49012 0.34927 0.38696 0.0
H776 H 0.39771 0.30163 0.43417 0.0
H777 H 0.51854 0.41078 0.337 0.0
O778 O 0.5341 0.40987 0.40334 0.0
H779 H 0.52775 0.35569 0.27798 0.0
H780 H 0.58297 0.38612 0.39274 0.0
H781 H 0.51047 0.34538 0.43928 0.0
H782 H 0.51905 0.35327 0.34299 0.0
H783 H 0.55663 0.3963 0.37712 0.0
O784 O 0.45297 0.38122 0.35332 0.0
H785 H 0.43508 0.32533 0.41931 0.0
H786 H 0.42301 0.3753 0.39935 0.0
H787 H 0.53626 0.33453 0.45527 0.0
H788 H 0.52755 0.41397 0.27213 0.0
H789 H 0.57282 0.35496 0.43195 0.0
H790 H 0.53221 0.38629 0.24208 0.0
O791 O 0.50325 0.37672 0.44775 0.0
H792 H 0.47789 0.44412 0.42104 0.0
H793 H 0.44721 0.37276 0.47222 0.0
H794 H 0.44891 0.4013 0.50983 0.0
H795 H 0.46426 0.4373 0.48423 0.0
H796 H 0.47619 0.41518 0.38457 0.0
H797 H 0.38552 0.35214 0.41393 0.0
H798 H 0.37264 0.31501 0.4315 0.0
O799 O 0.46819 0.35875 0.44135 0.0
C800 C 0.47269 0.33946 0.36991 0.0
C801 C 0.40313 0.31777 0.42654 0.0
C802 C 0.39628 0.34612 0.4152 0.0
N803 N 0.43123 0.35167 0.40847 0.0
C804 C 0.42427 0.33127 0.4181 0.0
C805 C 0.41753 0.35916 0.40696 0.0
C806 C 0.38907 0.32529 0.42505 0.0
C807 C 0.52086 0.39883 0.32446 0.0
N808 N 0.5187 0.3821 0.34419 0.0
C809 C 0.52583 0.40065 0.28755 0.0
C810 C 0.5284 0.3851 0.27068 0.0
C811 C 0.5259 0.36794 0.2908 0.0
C812 C 0.52096 0.36666 0.32766 0.0
C813 C 0.56709 0.37708 0.40306 0.0
C814 C 0.52631 0.35431 0.4289 0.0
C815 C 0.55212 0.38282 0.39442 0.0
N816 N 0.53198 0.3714 0.40717 0.0
C817 C 0.54087 0.34811 0.43811 0.0
C818 C 0.56138 0.35959 0.42504 0.0
C819 C 0.48479 0.36499 0.4606 0.0
C820 C 0.47118 0.42851 0.43253 0.0
C821 C 0.45419 0.38841 0.46102 0.0
C822 C 0.45497 0.4045 0.48238 0.0
C823 C 0.46355 0.42468 0.46799 0.0
N824 N 0.46176 0.39229 0.42627 0.0
C825 C 0.47013 0.41203 0.41197 0.0
Co826 Co 0.63452 0.13423 0.38315 0.0
Co827 Co 0.64128 0.09135 0.39091 0.0
O828 O 0.62428 0.10401 0.3758 0.0
C829 C 0.58719 0.11222 0.3953 0.0
O830 O 0.586 0.09385 0.39799 0.0
C831 C 0.61949 0.06865 0.32131 0.0
O832 O 0.61421 0.08284 0.31375 0.0
O833 O 0.66478 0.11176 0.35964 0.0
O834 O 0.66443 0.14134 0.37386 0.0
H835 H 0.70752 0.09422 0.43444 0.0
H836 H 0.6009 0.11058 0.32831 0.0
O837 O 0.60501 0.1289 0.39148 0.0
H838 H 0.65829 0.16915 0.26106 0.0
H839 H 0.63248 0.20162 0.37183 0.0
H840 H 0.67055 0.16811 0.42315 0.0
H841 H 0.66171 0.16483 0.32655 0.0
H842 H 0.62001 0.16409 0.36076 0.0
O843 O 0.63034 0.07049 0.34953 0.0
H844 H 0.68521 0.10898 0.41631 0.0
H845 H 0.63412 0.04758 0.39612 0.0
H846 H 0.68366 0.20574 0.43462 0.0
H847 H 0.5967 0.11449 0.26301 0.0
H848 H 0.66457 0.22274 0.40888 0.0
H849 H 0.62555 0.14391 0.22881 0.0
O850 O 0.63781 0.13102 0.43621 0.0
H851 H 0.56584 0.0381 0.41825 0.0
H852 H 0.63781 0.07662 0.4675 0.0
H853 H 0.60881 0.05186 0.50676 0.0
H854 H 0.57249 0.03229 0.48215 0.0
H855 H 0.59523 0.0633 0.38019 0.0
H856 H 0.65594 0.03218 0.41373 0.0
H857 H 0.6929 0.05554 0.4332 0.0
O858 O 0.65291 0.11107 0.43351 0.0
C859 C 0.67316 0.13172 0.35981 0.0
C860 C 0.69142 0.08387 0.42608 0.0
C861 C 0.66249 0.04905 0.41441 0.0
N862 N 0.65836 0.07918 0.40532 0.0
C863 C 0.6787 0.09214 0.41583 0.0
C864 C 0.65023 0.05788 0.40436 0.0
C865 C 0.68322 0.06217 0.42535 0.0
C866 C 0.61345 0.12354 0.31386 0.0
N867 N 0.6315 0.13746 0.33145 0.0
C868 C 0.61102 0.12563 0.27676 0.0
C869 C 0.62722 0.14212 0.25758 0.0
C870 C 0.64558 0.15627 0.27564 0.0
C871 C 0.64746 0.15368 0.31275 0.0
C872 C 0.64094 0.19439 0.38317 0.0
C873 C 0.66221 0.17541 0.41171 0.0
C874 C 0.63391 0.17312 0.3771 0.0
N875 N 0.64458 0.16391 0.39119 0.0
C876 C 0.66968 0.19672 0.41836 0.0
C877 C 0.65896 0.20624 0.40395 0.0
C878 C 0.64819 0.12324 0.45076 0.0
C879 C 0.58159 0.0465 0.4293 0.0
C880 C 0.62205 0.06839 0.45665 0.0
C881 C 0.60569 0.05427 0.47899 0.0
C882 C 0.58533 0.04327 0.46515 0.0
N883 N 0.61829 0.07151 0.42148 0.0
C884 C 0.59836 0.06075 0.40777 0.0
Co885 Co 0.8383 0.53673 0.79272 0.0
Co886 Co 0.88857 0.57859 0.78439 0.0
O887 O 0.85899 0.56678 0.79946 0.0
C888 C 0.81426 0.55991 0.77892 0.0
O889 O 0.83171 0.57808 0.77699 0.0
C890 C 0.89062 0.59965 0.8559 0.0
O891 O 0.87294 0.58331 0.86642 0.0
O892 O 0.89108 0.55794 0.816 0.0
O893 O 0.86032 0.52878 0.80369 0.0
H894 H 0.95113 0.57399 0.74157 0.0
H895 H 0.82972 0.56217 0.84599 0.0
O896 O 0.81488 0.54296 0.78288 0.0
H897 H 0.82425 0.5024 0.91578 0.0
H898 H 0.7676 0.47081 0.80376 0.0
H899 H 0.83951 0.50183 0.75468 0.0
H900 H 0.83278 0.50597 0.85057 0.0
H901 H 0.79346 0.50817 0.8143 0.0
O902 O 0.89861 0.5996 0.82525 0.0
H903 H 0.91415 0.56001 0.75957 0.0
H904 H 0.92574 0.62195 0.77876 0.0
H905 H 0.81418 0.46433 0.7438 0.0
H906 H 0.82081 0.55901 0.91092 0.0
H907 H 0.77793 0.44859 0.76841 0.0
H908 H 0.81809 0.52898 0.9464 0.0
O909 O 0.84508 0.53924 0.73977 0.0
H910 H 0.86866 0.63346 0.75689 0.0
H911 H 0.89956 0.5926 0.70731 0.0
H912 H 0.89595 0.6177 0.66787 0.0
H913 H 0.88047 0.63842 0.69265 0.0
H914 H 0.87224 0.60792 0.7952 0.0
H915 H 0.96287 0.63658 0.76125 0.0
H916 H 0.97578 0.61255 0.74236 0.0
O917 O 0.88016 0.55865 0.74221 0.0
C918 C 0.87888 0.53806 0.81698 0.0
C919 C 0.94569 0.58463 0.7497 0.0
C920 C 0.95228 0.61976 0.76078 0.0
N921 N 0.91774 0.59012 0.7701 0.0
C922 C 0.92475 0.5768 0.75988 0.0
C923 C 0.93124 0.61136 0.77078 0.0
C924 C 0.95951 0.60626 0.75017 0.0
C925 C 0.82828 0.54889 0.86094 0.0
N926 N 0.83163 0.53421 0.84424 0.0
C927 C 0.82336 0.54726 0.89786 0.0
C928 C 0.82188 0.53044 0.91777 0.0
C929 C 0.82534 0.51553 0.90062 0.0
C930 C 0.83024 0.51769 0.86367 0.0
C931 C 0.78336 0.47748 0.79291 0.0
C932 C 0.8238 0.49507 0.76564 0.0
C933 C 0.79806 0.49866 0.79867 0.0
N934 N 0.81803 0.50718 0.78522 0.0
C935 C 0.80951 0.47384 0.75932 0.0
C936 C 0.78916 0.46502 0.7731 0.0
C937 C 0.86317 0.54664 0.72515 0.0
C938 C 0.87542 0.62452 0.74576 0.0
C939 C 0.89255 0.60132 0.71821 0.0
C940 C 0.89068 0.61563 0.69578 0.0
C941 C 0.88202 0.62728 0.70971 0.0
N942 N 0.88597 0.59864 0.75352 0.0
C943 C 0.87756 0.61007 0.76738 0.0
Co944 Co 0.47073 0.30223 0.79026 0.0
Co945 Co 0.42821 0.30968 0.78444 0.0
O946 O 0.44062 0.29227 0.79833 0.0
C947 C 0.4483 0.25475 0.77865 0.0
O948 O 0.42982 0.25341 0.77827 0.0
C949 C 0.40509 0.28671 0.85321 0.0
O950 O 0.4182 0.27976 0.85864 0.0
O951 O 0.44902 0.33282 0.81592 0.0
O952 O 0.47827 0.33218 0.80036 0.0
H953 H 0.4318 0.37669 0.74351 0.0
H954 H 0.44702 0.26857 0.84518 0.0
O955 O 0.46503 0.27266 0.78103 0.0
H956 H 0.50683 0.32504 0.9116 0.0
H957 H 0.53772 0.29923 0.79879 0.0
H958 H 0.50458 0.33828 0.75025 0.0
H959 H 0.50205 0.32881 0.84642 0.0
H960 H 0.50036 0.2871 0.81091 0.0
O961 O 0.40762 0.29872 0.82634 0.0
H962 H 0.44622 0.35385 0.76012 0.0
H963 H 0.38466 0.3032 0.78083 0.0
H964 H 0.54204 0.35106 0.73775 0.0
H965 H 0.45135 0.26405 0.91015 0.0
H966 H 0.55885 0.33147 0.76209 0.0
H967 H 0.48141 0.29244 0.94395 0.0
O968 O 0.46722 0.30588 0.73748 0.0
H969 H 0.37442 0.23461 0.75525 0.0
H970 H 0.41295 0.30715 0.7085 0.0
H971 H 0.3878 0.2787 0.66876 0.0
H972 H 0.36822 0.2421 0.69212 0.0
H973 H 0.39996 0.26345 0.79379 0.0
H974 H 0.3696 0.32555 0.76476 0.0
H975 H 0.39322 0.36255 0.7458 0.0
O976 O 0.44768 0.3214 0.74142 0.0
C977 C 0.46895 0.34097 0.81533 0.0
C978 C 0.42134 0.36058 0.75166 0.0
C979 C 0.38643 0.33188 0.76363 0.0
N980 N 0.41631 0.32719 0.77126 0.0
C981 C 0.42941 0.34756 0.76103 0.0
C982 C 0.39507 0.31932 0.7728 0.0
C983 C 0.3997 0.35264 0.75297 0.0
C984 C 0.46025 0.28093 0.85941 0.0
N985 N 0.47428 0.29889 0.84175 0.0
C986 C 0.46257 0.27831 0.89635 0.0
C987 C 0.47942 0.29425 0.91531 0.0
C988 C 0.49368 0.31253 0.89719 0.0
C989 C 0.49083 0.3146 0.86024 0.0
C990 C 0.53057 0.30791 0.78806 0.0
C991 C 0.51179 0.32973 0.76108 0.0
C992 C 0.5094 0.30108 0.79472 0.0
N993 N 0.50029 0.31202 0.78141 0.0
C994 C 0.53301 0.33701 0.75385 0.0
C995 C 0.54243 0.32601 0.76748 0.0
C996 C 0.45959 0.31656 0.72357 0.0
C997 C 0.38281 0.2505 0.74477 0.0
C998 C 0.40468 0.29127 0.71883 0.0
C999 C 0.39036 0.27522 0.69621 0.0
C1000 C 0.37937 0.2547 0.70934 0.0
N1001 N 0.40799 0.28706 0.75361 0.0
C1002 C 0.39726 0.26696 0.7666 0.0
Co1003 Co 0.70921 0.16829 0.78197 0.0
Co1004 Co 0.69755 0.11737 0.77423 0.0
O1005 O 0.71701 0.14656 0.78889 0.0
C1006 C 0.75698 0.1912 0.7736 0.0
O1007 O 0.7576 0.17368 0.77543 0.0
C1008 C 0.71337 0.11233 0.84686 0.0
O1009 O 0.71006 0.1269 0.86069 0.0
O1010 O 0.67555 0.11663 0.80737 0.0
O1011 O 0.67875 0.14736 0.79061 0.0
H1012 H 0.62764 0.05734 0.73509 0.0
H1013 H 0.74078 0.17312 0.83805 0.0
O1014 O 0.73941 0.19081 0.77386 0.0
H1015 H 0.68721 0.18168 0.90406 0.0
H1016 H 0.71753 0.24044 0.79462 0.0
H1017 H 0.67494 0.1697 0.74177 0.0
H1018 H 0.68393 0.17501 0.83824 0.0
H1019 H 0.72702 0.21307 0.80517 0.0
O1020 O 0.70863 0.10673 0.81391 0.0
H1021 H 0.65276 0.09401 0.75215 0.0
H1022 H 0.70075 0.07849 0.7674 0.0
H1023 H 0.66477 0.19655 0.73086 0.0
H1024 H 0.74487 0.18015 0.90362 0.0
H1025 H 0.68614 0.23223 0.75737 0.0
H1026 H 0.71793 0.18444 0.93723 0.0
O1027 O 0.70559 0.16193 0.72888 0.0
H1028 H 0.77063 0.13346 0.74206 0.0
H1029 H 0.69822 0.10508 0.697 0.0
H1030 H 0.72551 0.10694 0.65574 0.0
H1031 H 0.76203 0.12117 0.67823 0.0
H1032 H 0.74287 0.13153 0.78226 0.0
H1033 H 0.6761 0.04163 0.75081 0.0
H1034 H 0.63926 0.03086 0.73437 0.0
O1035 O 0.68636 0.12686 0.73273 0.0
C1036 C 0.66864 0.12951 0.80627 0.0
C1037 C 0.64366 0.06185 0.74214 0.0
C1038 C 0.67085 0.05303 0.75101 0.0
N1039 N 0.67823 0.08843 0.76062 0.0
C1040 C 0.65797 0.0826 0.75176 0.0
C1041 C 0.68472 0.07392 0.7605 0.0
C1042 C 0.65019 0.047 0.74176 0.0
C1043 C 0.72921 0.17539 0.85208 0.0
N1044 N 0.71238 0.17409 0.83389 0.0
C1045 C 0.73151 0.17919 0.88942 0.0
C1046 C 0.71637 0.18153 0.90828 0.0
C1047 C 0.69913 0.17998 0.8897 0.0
C1048 C 0.69736 0.17617 0.85237 0.0
C1049 C 0.70808 0.22495 0.78294 0.0
C1050 C 0.68428 0.18515 0.75353 0.0
C1051 C 0.71342 0.2094 0.7887 0.0
N1052 N 0.7015 0.18975 0.77421 0.0
C1053 C 0.67846 0.20031 0.7472 0.0
C1054 C 0.69047 0.22033 0.76206 0.0
C1055 C 0.69321 0.14399 0.71484 0.0
C1056 C 0.75478 0.12726 0.7319 0.0
C1057 C 0.7141 0.11153 0.70689 0.0
C1058 C 0.72948 0.11242 0.68344 0.0
C1059 C 0.74995 0.12038 0.6961 0.0
N1060 N 0.71897 0.11838 0.74195 0.0
C1061 C 0.73899 0.12612 0.75456 0.0
Co1062 Co 0.47199 0.17609 0.28745 0.0
Co1063 Co 0.42908 0.12628 0.28221 0.0
O1064 O 0.44203 0.15613 0.29527 0.0
C1065 C 0.44942 0.20078 0.27376 0.0
O1066 O 0.43098 0.1836 0.27426 0.0
C1067 C 0.40488 0.1059 0.34979 0.0
O1068 O 0.41574 0.09621 0.35309 0.0
O1069 O 0.44993 0.1236 0.3133 0.0
O1070 O 0.47943 0.154 0.30059 0.0
H1071 H 0.4295 0.06075 0.24431 0.0
H1072 H 0.44599 0.18401 0.34066 0.0
O1073 O 0.46622 0.19969 0.27571 0.0
H1074 H 0.50792 0.19408 0.40936 0.0
H1075 H 0.53874 0.24645 0.293 0.0
H1076 H 0.5062 0.17306 0.25056 0.0
H1077 H 0.5039 0.18423 0.34473 0.0
H1078 H 0.50135 0.22141 0.30523 0.0
O1079 O 0.4092 0.11929 0.32443 0.0
H1080 H 0.44534 0.09834 0.25963 0.0
H1081 H 0.38478 0.0905 0.27857 0.0
H1082 H 0.54372 0.19754 0.23811 0.0
H1083 H 0.44948 0.19401 0.40505 0.0
H1084 H 0.56023 0.23453 0.25938 0.0
H1085 H 0.48063 0.19914 0.43996 0.0
O1086 O 0.46897 0.16783 0.23503 0.0
H1087 H 0.37544 0.1479 0.25474 0.0
H1088 H 0.41396 0.11432 0.20585 0.0
H1089 H 0.38893 0.11818 0.16666 0.0
H1090 H 0.36937 0.13501 0.1911 0.0
H1091 H 0.40092 0.14406 0.2928 0.0
H1092 H 0.36828 0.05282 0.26357 0.0
H1093 H 0.39068 0.0377 0.24625 0.0
O1094 O 0.44822 0.13284 0.23917 0.0
C1095 C 0.46987 0.13551 0.31418 0.0
C1096 C 0.41956 0.06714 0.25184 0.0
C1097 C 0.38521 0.06269 0.26265 0.0
N1098 N 0.41604 0.09661 0.27009 0.0
C1099 C 0.42845 0.08841 0.26057 0.0
C1100 C 0.39465 0.08404 0.27118 0.0
C1101 C 0.39779 0.05422 0.25294 0.0
C1102 C 0.45973 0.18645 0.35532 0.0
N1103 N 0.47493 0.18394 0.3385 0.0
C1104 C 0.46156 0.19201 0.39195 0.0
C1105 C 0.47902 0.19486 0.41155 0.0
C1106 C 0.49434 0.19204 0.39439 0.0
C1107 C 0.49198 0.18648 0.35772 0.0
C1108 C 0.53173 0.23037 0.28361 0.0
C1109 C 0.51329 0.1891 0.26009 0.0
C1110 C 0.51053 0.21613 0.2903 0.0
N1111 N 0.50159 0.19574 0.27874 0.0
C1112 C 0.53454 0.2029 0.25287 0.0
C1113 C 0.54378 0.22366 0.26477 0.0
C1114 C 0.46083 0.14937 0.22142 0.0
C1115 C 0.38389 0.14057 0.24375 0.0
C1116 C 0.4058 0.12196 0.21656 0.0
C1117 C 0.3915 0.12396 0.19429 0.0
C1118 C 0.38051 0.13336 0.20804 0.0
N1119 N 0.40912 0.12916 0.25153 0.0
C1120 C 0.39831 0.1383 0.26521 0.0
Co1121 Co 0.83554 0.29587 0.28508 0.0
Co1122 Co 0.88671 0.30707 0.28362 0.0
O1123 O 0.85697 0.28801 0.29613 0.0
C1124 C 0.81323 0.24822 0.2774 0.0
O1125 O 0.83103 0.24817 0.27954 0.0
C1126 C 0.88727 0.28581 0.35413 0.0
O1127 O 0.86717 0.27879 0.35914 0.0
O1128 O 0.88651 0.32963 0.31367 0.0
O1129 O 0.85643 0.32646 0.29297 0.0
H1130 H 0.94765 0.37619 0.24371 0.0
H1131 H 0.82665 0.2641 0.3433 0.0
O1132 O 0.81311 0.26553 0.2774 0.0
H1133 H 0.8197 0.32053 0.40229 0.0
H1134 H 0.76342 0.28823 0.2882 0.0
H1135 H 0.83563 0.3296 0.24065 0.0
H1136 H 0.82863 0.32282 0.33742 0.0
H1137 H 0.79021 0.27866 0.30377 0.0
O1138 O 0.89678 0.29754 0.32698 0.0
H1139 H 0.91057 0.3513 0.2586 0.0
H1140 H 0.92587 0.30405 0.28369 0.0
H1141 H 0.80936 0.3398 0.22465 0.0
H1142 H 0.81732 0.261 0.40798 0.0
H1143 H 0.77295 0.31906 0.24849 0.0
H1144 H 0.81386 0.28939 0.43806 0.0
O1145 O 0.84341 0.29859 0.23276 0.0
H1146 H 0.87122 0.2333 0.25805 0.0
H1147 H 0.90179 0.30515 0.2092 0.0
H1148 H 0.90144 0.27736 0.17132 0.0
H1149 H 0.88615 0.2411 0.19575 0.0
H1150 H 0.87159 0.26149 0.29471 0.0
H1151 H 0.96313 0.32849 0.26939 0.0
H1152 H 0.97423 0.36483 0.24909 0.0
O1153 O 0.87841 0.31722 0.23898 0.0
C1154 C 0.87386 0.33667 0.30993 0.0
C1155 C 0.943 0.36038 0.25244 0.0
C1156 C 0.95169 0.33362 0.26691 0.0
N1157 N 0.91601 0.3262 0.27181 0.0
C1158 C 0.92201 0.3462 0.26084 0.0
C1159 C 0.93057 0.31987 0.27508 0.0
C1160 C 0.95791 0.35401 0.2555 0.0
C1161 C 0.82495 0.27642 0.35586 0.0
N1162 N 0.82814 0.29357 0.3363 0.0
C1163 C 0.81976 0.27462 0.39267 0.0
C1164 C 0.81786 0.29057 0.40955 0.0
C1165 C 0.82116 0.30805 0.38951 0.0
C1166 C 0.82632 0.30929 0.35276 0.0
C1167 C 0.77924 0.29741 0.27766 0.0
C1168 C 0.81985 0.32053 0.25125 0.0
C1169 C 0.79447 0.29203 0.2863 0.0
N1170 N 0.81452 0.30361 0.27326 0.0
C1171 C 0.80502 0.32637 0.24204 0.0
C1172 C 0.78459 0.31471 0.2554 0.0
C1173 C 0.86175 0.31051 0.21977 0.0
C1174 C 0.87796 0.24904 0.2471 0.0
C1175 C 0.89492 0.28941 0.21995 0.0
C1176 C 0.89486 0.27374 0.19841 0.0
C1177 C 0.88631 0.25342 0.21214 0.0
N1178 N 0.88671 0.28503 0.25427 0.0
C1179 C 0.8783 0.26513 0.26785 0.0
Co1180 Co 0.71357 0.54437 0.2827 0.0
Co1181 Co 0.70185 0.58357 0.27464 0.0
O1182 O 0.72132 0.57391 0.28954 0.0
C1183 C 0.76148 0.56921 0.27537 0.0
O1184 O 0.7622 0.58739 0.27783 0.0
C1185 C 0.71666 0.60433 0.34773 0.0
O1186 O 0.71283 0.58637 0.36199 0.0
O1187 O 0.67983 0.56232 0.30771 0.0
O1188 O 0.68307 0.53479 0.2911 0.0
H1189 H 0.63192 0.57348 0.23503 0.0
H1190 H 0.74475 0.57131 0.33924 0.0
O1191 O 0.74383 0.5521 0.27487 0.0
H1192 H 0.69129 0.50884 0.40461 0.0
H1193 H 0.72209 0.48067 0.29562 0.0
H1194 H 0.67942 0.50865 0.2424 0.0
H1195 H 0.68827 0.51225 0.33873 0.0
H1196 H 0.73145 0.51749 0.30614 0.0
O1197 O 0.71275 0.6053 0.31433 0.0
H1198 H 0.65709 0.56204 0.25233 0.0
H1199 H 0.70492 0.62559 0.26757 0.0
H1200 H 0.66939 0.47167 0.23152 0.0
H1201 H 0.74856 0.56836 0.40487 0.0
H1202 H 0.6908 0.45745 0.25822 0.0
H1203 H 0.7217 0.53697 0.43817 0.0
O1204 O 0.71005 0.54708 0.22951 0.0
H1205 H 0.77495 0.64058 0.24288 0.0
H1206 H 0.70266 0.59652 0.19736 0.0
H1207 H 0.73002 0.62197 0.15624 0.0
H1208 H 0.76649 0.64428 0.17897 0.0
H1209 H 0.74711 0.61473 0.28295 0.0
H1210 H 0.68021 0.63769 0.25075 0.0
H1211 H 0.64343 0.61156 0.23419 0.0
O1212 O 0.69078 0.56288 0.23315 0.0
C1213 C 0.67295 0.54254 0.30673 0.0
C1214 C 0.64791 0.58502 0.24212 0.0
C1215 C 0.67501 0.62106 0.25099 0.0
N1216 N 0.68249 0.59312 0.2608 0.0
C1217 C 0.66225 0.57864 0.25188 0.0
C1218 C 0.68892 0.6141 0.26061 0.0
C1219 C 0.65438 0.60639 0.24168 0.0
C1220 C 0.73321 0.55739 0.35311 0.0
N1221 N 0.71659 0.54176 0.33469 0.0
C1222 C 0.73536 0.55589 0.3905 0.0
C1223 C 0.72025 0.53831 0.40919 0.0
C1224 C 0.7032 0.52254 0.39038 0.0
C1225 C 0.70158 0.52457 0.353 0.0
C1226 C 0.71263 0.48668 0.28386 0.0
C1227 C 0.68878 0.50257 0.25424 0.0
C1228 C 0.7179 0.50755 0.2896 0.0
N1229 N 0.70595 0.51523 0.27501 0.0
C1230 C 0.68304 0.48162 0.24793 0.0
C1231 C 0.69507 0.47366 0.26289 0.0
C1232 C 0.69765 0.55259 0.21535 0.0
C1233 C 0.75913 0.63092 0.23262 0.0
C1234 C 0.71851 0.60597 0.20736 0.0
C1235 C 0.73393 0.62045 0.18399 0.0
C1236 C 0.75438 0.63298 0.19677 0.0
N1237 N 0.7233 0.60398 0.24246 0.0
C1238 C 0.7433 0.61627 0.2552 0.0
Co1239 Co 0.50909 0.13415 0.89279 0.0
Co1240 Co 0.45756 0.09508 0.89512 0.0
O1241 O 0.48714 0.105 0.88239 0.0
C1242 C 0.53066 0.10798 0.90091 0.0
O1243 O 0.51277 0.09024 0.89842 0.0
C1244 C 0.45624 0.07285 0.82471 0.0
O1245 O 0.47626 0.08596 0.81903 0.0
O1246 O 0.45821 0.11793 0.86464 0.0
O1247 O 0.48875 0.14455 0.88446 0.0
H1248 H 0.39772 0.10516 0.93484 0.0
H1249 H 0.51711 0.11027 0.83517 0.0
O1250 O 0.53098 0.12553 0.90088 0.0
H1251 H 0.52559 0.17387 0.77466 0.0
H1252 H 0.582 0.1974 0.8884 0.0
H1253 H 0.51008 0.16861 0.93634 0.0
H1254 H 0.51667 0.16783 0.83959 0.0
H1255 H 0.5545 0.1612 0.87358 0.0
O1256 O 0.447 0.07518 0.85217 0.0
H1257 H 0.43459 0.11647 0.91971 0.0
H1258 H 0.41788 0.05338 0.89594 0.0
H1259 H 0.53707 0.20495 0.95157 0.0
H1260 H 0.52645 0.11589 0.77048 0.0
H1261 H 0.57333 0.21958 0.92754 0.0
H1262 H 0.53068 0.14785 0.73961 0.0
O1263 O 0.50135 0.12958 0.94521 0.0
H1264 H 0.47148 0.03587 0.92167 0.0
H1265 H 0.44263 0.07883 0.96996 0.0
H1266 H 0.44245 0.05128 0.00832 0.0
H1267 H 0.45687 0.02947 0.98417 0.0
H1268 H 0.47163 0.06378 0.88449 0.0
H1269 H 0.38081 0.04143 0.91049 0.0
H1270 H 0.37053 0.06739 0.93025 0.0
O1271 O 0.46637 0.11386 0.93938 0.0
C1272 C 0.47123 0.13757 0.86788 0.0
C1273 C 0.40201 0.09369 0.92634 0.0
C1274 C 0.39252 0.05793 0.91263 0.0
N1275 N 0.42843 0.08561 0.90713 0.0
C1276 C 0.42287 0.1 0.91781 0.0
C1277 C 0.41353 0.06481 0.90431 0.0
C1278 C 0.38676 0.0725 0.92373 0.0
C1279 C 0.51918 0.12435 0.82231 0.0
N1280 N 0.51641 0.13871 0.84148 0.0
C1281 C 0.52435 0.12739 0.78547 0.0
C1282 C 0.52668 0.1453 0.76815 0.0
C1283 C 0.5238 0.15988 0.78778 0.0
C1284 C 0.51864 0.1563 0.82457 0.0
C1285 C 0.56625 0.19121 0.89901 0.0
C1286 C 0.5258 0.17487 0.92565 0.0
C1287 C 0.55061 0.17069 0.89081 0.0
N1288 N 0.53065 0.16279 0.90396 0.0
C1289 C 0.54103 0.19546 0.93442 0.0
C1290 C 0.56137 0.20365 0.92096 0.0
C1291 C 0.48315 0.12365 0.95837 0.0
C1292 C 0.46511 0.04523 0.93249 0.0
C1293 C 0.44911 0.06958 0.95932 0.0
C1294 C 0.44887 0.05391 0.98114 0.0
C1295 C 0.45694 0.04167 0.96756 0.0
N1296 N 0.45713 0.07299 0.92489 0.0
C1297 C 0.46508 0.06104 0.91146 0.0
Co1298 Co 0.87365 0.37169 0.89044 0.0
Co1299 Co 0.91405 0.36106 0.89267 0.0
O1300 O 0.90307 0.37984 0.87997 0.0
C1301 C 0.89872 0.41921 0.90001 0.0
O1302 O 0.91656 0.4192 0.89982 0.0
C1303 C 0.93582 0.38247 0.82228 0.0
O1304 O 0.92274 0.3895 0.81742 0.0
O1305 O 0.89155 0.33831 0.86259 0.0
O1306 O 0.86423 0.34117 0.88209 0.0
H1307 H 0.90674 0.29233 0.93292 0.0
H1308 H 0.89671 0.40403 0.83328 0.0
O1309 O 0.88128 0.40193 0.89842 0.0
H1310 H 0.8343 0.34765 0.77205 0.0
H1311 H 0.80885 0.37877 0.88606 0.0
H1312 H 0.83984 0.33759 0.93398 0.0
H1313 H 0.84041 0.34489 0.837 0.0
H1314 H 0.84539 0.38868 0.87125 0.0
O1315 O 0.93367 0.37072 0.84937 0.0
H1316 H 0.89413 0.31687 0.91783 0.0
H1317 H 0.95646 0.36463 0.89286 0.0
H1318 H 0.80318 0.32704 0.94921 0.0
H1319 H 0.89101 0.40762 0.76852 0.0
H1320 H 0.78744 0.34769 0.92519 0.0
H1321 H 0.85965 0.37925 0.73732 0.0
O1322 O 0.87842 0.36873 0.94286 0.0
H1323 H 0.97183 0.43507 0.91818 0.0
H1324 H 0.9309 0.36324 0.96727 0.0
H1325 H 0.95812 0.3912 0.0052 0.0
H1326 H 0.97891 0.42744 0.98064 0.0
H1327 H 0.94423 0.40673 0.88149 0.0
H1328 H 0.96969 0.34054 0.90735 0.0
H1329 H 0.94478 0.30412 0.92769 0.0
O1330 O 0.89553 0.35076 0.93717 0.0
C1331 C 0.8718 0.33108 0.86574 0.0
C1332 C 0.91776 0.30817 0.92417 0.0
C1333 C 0.95309 0.33522 0.90977 0.0
N1334 N 0.92454 0.3422 0.90467 0.0
C1335 C 0.91072 0.32216 0.91566 0.0
C1336 C 0.94548 0.34877 0.9015 0.0
C1337 C 0.9391 0.31479 0.9212 0.0
C1338 C 0.88292 0.39171 0.8202 0.0
N1339 N 0.86894 0.37429 0.83916 0.0
C1340 C 0.87982 0.39379 0.78336 0.0
C1341 C 0.86225 0.37786 0.76585 0.0
C1342 C 0.84804 0.36012 0.7853 0.0
C1343 C 0.85166 0.3586 0.8221 0.0
C1344 C 0.81552 0.36963 0.89667 0.0
C1345 C 0.8331 0.34662 0.9233 0.0
C1346 C 0.83624 0.3752 0.88847 0.0
N1347 N 0.84475 0.36367 0.90162 0.0
C1348 C 0.81233 0.34058 0.93207 0.0
C1349 C 0.80352 0.35219 0.91861 0.0
C1350 C 0.88514 0.35709 0.95607 0.0
C1351 C 0.96291 0.41933 0.92918 0.0
C1352 C 0.93968 0.37897 0.95646 0.0
C1353 C 0.95518 0.39474 0.97804 0.0
C1354 C 0.96685 0.41506 0.96423 0.0
N1355 N 0.93588 0.38326 0.92206 0.0
C1356 C 0.94729 0.40315 0.90841 0.0
Co1357 Co 0.63467 0.50078 0.88533 0.0
Co1358 Co 0.64513 0.55221 0.89102 0.0
O1359 O 0.62657 0.52241 0.87752 0.0
C1360 C 0.58768 0.47892 0.90045 0.0
O1361 O 0.58782 0.49684 0.89963 0.0
C1362 C 0.62437 0.55327 0.8203 0.0
O1363 O 0.61828 0.53349 0.81387 0.0
O1364 O 0.66823 0.55334 0.86086 0.0
O1365 O 0.6646 0.52149 0.87158 0.0
H1366 H 0.71304 0.61388 0.93363 0.0
H1367 H 0.60007 0.49275 0.83334 0.0
O1368 O 0.60484 0.4786 0.89786 0.0
H1369 H 0.65037 0.48098 0.7632 0.0
H1370 H 0.6259 0.42818 0.87991 0.0
H1371 H 0.67097 0.50127 0.92124 0.0
H1372 H 0.65709 0.49134 0.82754 0.0
H1373 H 0.61576 0.45496 0.86809 0.0
O1374 O 0.63531 0.56241 0.84837 0.0
H1375 H 0.68912 0.57682 0.91714 0.0
H1376 H 0.6407 0.59054 0.8928 0.0
H1377 H 0.6818 0.47501 0.93329 0.0
H1378 H 0.59255 0.48204 0.7694 0.0
H1379 H 0.65919 0.43816 0.91258 0.0
H1380 H 0.61784 0.47615 0.73368 0.0
O1381 O 0.64055 0.50884 0.93774 0.0
H1382 H 0.57091 0.53533 0.91629 0.0
H1383 H 0.64236 0.56518 0.96669 0.0
H1384 H 0.61407 0.56357 1.00488 0.0
H1385 H 0.57803 0.54864 0.97967 0.0
H1386 H 0.59957 0.53688 0.87933 0.0
H1387 H 0.66413 0.62776 0.90876 0.0
H1388 H 0.70057 0.63964 0.92948 0.0
O1389 O 0.65572 0.54389 0.93457 0.0
C1390 C 0.67482 0.54023 0.85913 0.0
C1391 C 0.69719 0.60889 0.92466 0.0
C1392 C 0.66975 0.61668 0.91067 0.0
N1393 N 0.66353 0.58148 0.90404 0.0
C1394 C 0.68357 0.58792 0.91531 0.0
C1395 C 0.65657 0.59559 0.90154 0.0
C1396 C 0.69019 0.62334 0.92231 0.0
C1397 C 0.61107 0.49001 0.81835 0.0
N1398 N 0.62901 0.49269 0.83444 0.0
C1399 C 0.60676 0.48404 0.78195 0.0
C1400 C 0.62096 0.48077 0.76191 0.0
C1401 C 0.63922 0.4835 0.77844 0.0
C1402 C 0.64299 0.48948 0.81488 0.0
C1403 C 0.6359 0.44419 0.88904 0.0
C1404 C 0.6611 0.48529 0.91194 0.0
C1405 C 0.6302 0.45942 0.88256 0.0
N1406 N 0.64282 0.47971 0.89381 0.0
C1407 C 0.66729 0.47048 0.91894 0.0
C1408 C 0.65458 0.4498 0.90735 0.0
C1409 C 0.65126 0.52709 0.95182 0.0
C1410 C 0.58656 0.5419 0.92758 0.0
C1411 C 0.6267 0.55843 0.9556 0.0
C1412 C 0.61075 0.55768 0.97732 0.0
C1413 C 0.59055 0.54934 0.96315 0.0
N1414 N 0.62269 0.55109 0.92071 0.0
C1415 C 0.60291 0.54292 0.90667 0.0
Co1416 Co 0.54191 0.83617 0.72238 0.0
Co1417 Co 0.58124 0.88709 0.73168 0.0
O1418 O 0.57146 0.85804 0.71606 0.0
C1419 C 0.56713 0.81375 0.73107 0.0
O1420 O 0.58502 0.83157 0.73052 0.0
C1421 C 0.60197 0.89245 0.65904 0.0
O1422 O 0.58416 0.87763 0.64544 0.0
O1423 O 0.56006 0.88825 0.6991 0.0
O1424 O 0.53236 0.85715 0.71398 0.0
H1425 H 0.5715 0.94685 0.77328 0.0
H1426 H 0.56895 0.8316 0.6666 0.0
O1427 O 0.5497 0.81365 0.73011 0.0
H1428 H 0.50731 0.82366 0.59971 0.0
H1429 H 0.47839 0.76398 0.70814 0.0
H1430 H 0.50592 0.8344 0.76205 0.0
H1431 H 0.51032 0.82994 0.66565 0.0
H1432 H 0.51526 0.79151 0.69836 0.0
O1433 O 0.60287 0.8981 0.69196 0.0
H1434 H 0.55989 0.91034 0.75504 0.0
H1435 H 0.62334 0.92582 0.73932 0.0
H1436 H 0.46889 0.80738 0.7722 0.0
H1437 H 0.56639 0.82495 0.60091 0.0
H1438 H 0.45489 0.77187 0.74515 0.0
H1439 H 0.53542 0.82098 0.56686 0.0
O1440 O 0.54428 0.84211 0.77564 0.0
H1441 H 0.63849 0.87099 0.76177 0.0
H1442 H 0.59408 0.89839 0.80921 0.0
H1443 H 0.61955 0.89616 0.84981 0.0
H1444 H 0.64204 0.88242 0.82611 0.0
H1445 H 0.61259 0.87325 0.72226 0.0
H1446 H 0.63562 0.96253 0.75709 0.0
H1447 H 0.60962 0.97325 0.77436 0.0
O1448 O 0.56058 0.87725 0.77307 0.0
C1449 C 0.54027 0.87539 0.69962 0.0
C1450 C 0.58299 0.94237 0.76588 0.0
C1451 C 0.61897 0.95118 0.75674 0.0
N1452 N 0.59091 0.91591 0.74627 0.0
C1453 C 0.57651 0.9217 0.75559 0.0
C1454 C 0.61191 0.93037 0.74659 0.0
C1455 C 0.60437 0.95717 0.76645 0.0
C1456 C 0.55522 0.82947 0.65235 0.0
N1457 N 0.53962 0.83075 0.67036 0.0
C1458 C 0.55394 0.82589 0.61496 0.0
C1459 C 0.5366 0.82372 0.59585 0.0
C1460 C 0.52084 0.82523 0.61426 0.0
C1461 C 0.52265 0.82883 0.65166 0.0
C1462 C 0.4843 0.7794 0.72004 0.0
C1463 C 0.49994 0.81902 0.75004 0.0
C1464 C 0.50519 0.79504 0.71471 0.0
N1465 N 0.51274 0.8146 0.72949 0.0
C1466 C 0.47896 0.80377 0.75595 0.0
C1467 C 0.47112 0.78384 0.74079 0.0
C1468 C 0.54995 0.85994 0.79027 0.0
C1469 C 0.62875 0.87696 0.77245 0.0
C1470 C 0.60357 0.89213 0.7988 0.0
C1471 C 0.61809 0.89103 0.82187 0.0
C1472 C 0.63072 0.88336 0.80855 0.0
N1473 N 0.60164 0.88573 0.76347 0.0
C1474 C 0.61406 0.87829 0.75019 0.0
Co1475 Co 0.17377 0.70649 0.72153 0.0
Co1476 Co 0.12259 0.6953 0.72518 0.0
O1477 O 0.15222 0.71437 0.71188 0.0
C1478 C 0.19633 0.75418 0.73081 0.0
O1479 O 0.1787 0.75457 0.7286 0.0
C1480 C 0.12128 0.7162 0.65478 0.0
O1481 O 0.14112 0.72253 0.64844 0.0
O1482 O 0.12232 0.67267 0.69463 0.0
O1483 O 0.15288 0.67596 0.71296 0.0
H1484 H 0.06189 0.62625 0.76603 0.0
H1485 H 0.18225 0.73888 0.66472 0.0
O1486 O 0.19618 0.73673 0.72995 0.0
H1487 H 0.18891 0.68318 0.60222 0.0
H1488 H 0.24594 0.71437 0.71535 0.0
H1489 H 0.17409 0.67238 0.76414 0.0
H1490 H 0.18033 0.68013 0.66732 0.0
H1491 H 0.21897 0.72398 0.70156 0.0
O1492 O 0.11213 0.70495 0.68257 0.0
H1493 H 0.09884 0.65103 0.75009 0.0
H1494 H 0.08356 0.69853 0.72703 0.0
H1495 H 0.20054 0.66212 0.77833 0.0
H1496 H 0.19127 0.74276 0.59985 0.0
H1497 H 0.23677 0.68318 0.75387 0.0
H1498 H 0.19457 0.71474 0.568 0.0
O1499 O 0.16635 0.70328 0.77408 0.0
H1500 H 0.13862 0.76914 0.75155 0.0
H1501 H 0.10846 0.69731 0.80038 0.0
H1502 H 0.10941 0.72521 0.83881 0.0
H1503 H 0.12449 0.76145 0.8144 0.0
H1504 H 0.13766 0.74084 0.71431 0.0
H1505 H 0.04643 0.67419 0.7424 0.0
H1506 H 0.0354 0.63779 0.76222 0.0
O1507 O 0.13128 0.68503 0.76912 0.0
C1508 C 0.13506 0.66565 0.69722 0.0
C1509 C 0.06652 0.64209 0.75751 0.0
C1510 C 0.05784 0.66898 0.74421 0.0
N1511 N 0.0934 0.67624 0.73782 0.0
C1512 C 0.08743 0.65621 0.74852 0.0
C1513 C 0.07888 0.68267 0.73543 0.0
C1514 C 0.05166 0.64856 0.75534 0.0
C1515 C 0.18392 0.72673 0.6514 0.0
N1516 N 0.18082 0.70935 0.67011 0.0
C1517 C 0.18891 0.72896 0.61448 0.0
C1518 C 0.19072 0.71322 0.59661 0.0
C1519 C 0.18752 0.69551 0.61577 0.0
C1520 C 0.18255 0.69383 0.65267 0.0
C1521 C 0.2302 0.70505 0.72614 0.0
C1522 C 0.18979 0.68159 0.75326 0.0
C1523 C 0.21486 0.71046 0.71852 0.0
N1524 N 0.19491 0.6987 0.7319 0.0
C1525 C 0.20471 0.67572 0.76145 0.0
C1526 C 0.22504 0.68755 0.74774 0.0
C1527 C 0.14815 0.6915 0.78762 0.0
C1528 C 0.13198 0.7534 0.7625 0.0
C1529 C 0.11525 0.71304 0.78963 0.0
C1530 C 0.11564 0.72878 0.81149 0.0
C1531 C 0.12408 0.74909 0.79776 0.0
N1532 N 0.12302 0.71737 0.75502 0.0
C1533 C 0.13131 0.73726 0.74143 0.0
Co1534 Co 0.30173 0.46827 0.71708 0.0
Co1535 Co 0.31195 0.42731 0.72545 0.0
O1536 O 0.29355 0.43847 0.71059 0.0
C1537 C 0.25463 0.44358 0.73175 0.0
O1538 O 0.25452 0.42567 0.73157 0.0
C1539 C 0.29478 0.40747 0.65246 0.0
O1540 O 0.29398 0.42414 0.64212 0.0
O1541 O 0.3353 0.44884 0.69509 0.0
O1542 O 0.33167 0.47722 0.70387 0.0
H1543 H 0.37938 0.43328 0.77026 0.0
H1544 H 0.26758 0.44072 0.66524 0.0
O1545 O 0.27193 0.46092 0.72896 0.0
H1546 H 0.31755 0.50219 0.59354 0.0
H1547 H 0.29329 0.53221 0.70786 0.0
H1548 H 0.33798 0.50441 0.75238 0.0
H1549 H 0.32414 0.49949 0.65834 0.0
H1550 H 0.28307 0.49514 0.6976 0.0
O1551 O 0.30193 0.40689 0.68366 0.0
H1552 H 0.3558 0.44658 0.75227 0.0
H1553 H 0.30706 0.38441 0.72921 0.0
H1554 H 0.34891 0.54167 0.76287 0.0
H1555 H 0.26016 0.44298 0.60087 0.0
H1556 H 0.32648 0.55579 0.74056 0.0
H1557 H 0.28529 0.47384 0.56438 0.0
O1558 O 0.30744 0.46671 0.76984 0.0
H1559 H 0.23756 0.37039 0.74956 0.0
H1560 H 0.3084 0.41249 0.80208 0.0
H1561 H 0.27962 0.38631 0.84012 0.0
H1562 H 0.24387 0.36496 0.81386 0.0
H1563 H 0.26674 0.397 0.71266 0.0
H1564 H 0.33015 0.37046 0.74671 0.0
H1565 H 0.36658 0.39495 0.76752 0.0
O1566 O 0.3225 0.44668 0.76835 0.0
C1567 C 0.34194 0.46851 0.69245 0.0
C1568 C 0.36353 0.42245 0.76125 0.0
C1569 C 0.33591 0.3872 0.748 0.0
N1570 N 0.33007 0.41632 0.73971 0.0
C1571 C 0.35011 0.42989 0.75104 0.0
C1572 C 0.32293 0.39521 0.73801 0.0
C1573 C 0.35635 0.40094 0.75969 0.0
C1574 C 0.27844 0.45438 0.64995 0.0
N1575 N 0.2962 0.47003 0.66587 0.0
C1576 C 0.27422 0.45549 0.61329 0.0
C1577 C 0.28834 0.47278 0.59282 0.0
C1578 C 0.30644 0.48867 0.60915 0.0
C1579 C 0.31013 0.487 0.64586 0.0
C1580 C 0.30321 0.52625 0.71769 0.0
C1581 C 0.3282 0.51047 0.74239 0.0
C1582 C 0.29746 0.50523 0.7121 0.0
N1583 N 0.30997 0.49761 0.72425 0.0
C1584 C 0.33444 0.53157 0.7485 0.0
C1585 C 0.32184 0.53947 0.73601 0.0
C1586 C 0.31798 0.45921 0.78478 0.0
C1587 C 0.25305 0.37959 0.76133 0.0
C1588 C 0.29287 0.40349 0.79055 0.0
C1589 C 0.27664 0.38857 0.81218 0.0
C1590 C 0.2566 0.37658 0.79741 0.0
N1591 N 0.28926 0.40643 0.7552 0.0
C1592 C 0.26967 0.39466 0.74052 0.0
Co1593 Co 0.49882 0.86883 0.1199 0.0
Co1594 Co 0.55012 0.90838 0.11671 0.0
O1595 O 0.52053 0.89812 0.12983 0.0
C1596 C 0.4768 0.89449 0.11087 0.0
O1597 O 0.4946 0.91233 0.11299 0.0
C1598 C 0.55162 0.92946 0.18818 0.0
O1599 O 0.53254 0.91451 0.19619 0.0
O1600 O 0.55007 0.88592 0.14739 0.0
O1601 O 0.51947 0.85888 0.12864 0.0
H1602 H 0.6106 0.89941 0.07674 0.0
H1603 H 0.49063 0.89291 0.17687 0.0
O1604 O 0.47665 0.87702 0.11145 0.0
H1605 H 0.48281 0.82995 0.23885 0.0
H1606 H 0.42629 0.80504 0.1252 0.0
H1607 H 0.49826 0.8343 0.07724 0.0
H1608 H 0.49172 0.83565 0.17388 0.0
H1609 H 0.45348 0.84147 0.13935 0.0
O1610 O 0.56049 0.9285 0.15907 0.0
H1611 H 0.57368 0.88754 0.09235 0.0
H1612 H 0.58932 0.95046 0.11484 0.0
H1613 H 0.47158 0.79773 0.06269 0.0
H1614 H 0.48124 0.88759 0.24157 0.0
H1615 H 0.43529 0.78286 0.08673 0.0
H1616 H 0.47736 0.85596 0.27317 0.0
O1617 O 0.50642 0.87309 0.06739 0.0
H1618 H 0.53517 0.96688 0.09053 0.0
H1619 H 0.56423 0.9243 0.04133 0.0
H1620 H 0.56361 0.95144 1.00293 0.0
H1621 H 0.54907 0.97304 0.02754 0.0
H1622 H 0.53581 0.93935 0.12776 0.0
H1623 H 0.62643 0.96298 0.09976 0.0
H1624 H 0.63728 0.93738 0.08041 0.0
O1625 O 0.54143 0.88938 0.07292 0.0
C1626 C 0.53724 0.8662 0.14456 0.0
C1627 C 0.60606 0.91072 0.08506 0.0
C1628 C 0.61495 0.94639 0.09802 0.0
N1629 N 0.5793 0.91828 0.10431 0.0
C1630 C 0.58516 0.9041 0.09387 0.0
C1631 C 0.59391 0.9392 0.10663 0.0
C1632 C 0.62103 0.93203 0.08715 0.0
C1633 C 0.48864 0.87893 0.19003 0.0
N1634 N 0.49158 0.86456 0.17126 0.0
C1635 C 0.48347 0.87608 0.22688 0.0
C1636 C 0.48134 0.85836 0.24462 0.0
C1637 C 0.48443 0.84379 0.2254 0.0
C1638 C 0.48957 0.84717 0.18858 0.0
C1639 C 0.44205 0.81133 0.11458 0.0
C1640 C 0.48253 0.82794 0.08793 0.0
C1641 C 0.45751 0.83198 0.12241 0.0
N1642 N 0.47749 0.84001 0.10926 0.0
C1643 C 0.46748 0.80722 0.07954 0.0
C1644 C 0.44711 0.7989 0.09302 0.0
C1645 C 0.52465 0.87924 0.05415 0.0
C1646 C 0.54154 0.95758 0.07949 0.0
C1647 C 0.55765 0.93342 0.05213 0.0
C1648 C 0.55745 0.94888 0.03031 0.0
C1649 C 0.54932 0.96101 0.04414 0.0
N1650 N 0.54996 0.93011 0.08677 0.0
C1651 C 0.542 0.94198 0.10051 0.0
Co1652 Co 0.13393 0.63444 0.12113 0.0
Co1653 Co 0.09417 0.64533 0.1116 0.0
O1654 O 0.10426 0.62637 0.1277 0.0
C1655 C 0.10966 0.58651 0.11425 0.0
O1656 O 0.09136 0.58557 0.11599 0.0
C1657 C 0.07334 0.63096 0.18475 0.0
O1658 O 0.09112 0.63433 0.19917 0.0
O1659 O 0.11524 0.66796 0.14395 0.0
O1660 O 0.14308 0.66494 0.12864 0.0
H1661 H 0.1032 0.71434 0.06874 0.0
H1662 H 0.10733 0.60338 0.17794 0.0
O1663 O 0.12666 0.60424 0.11418 0.0
H1664 H 0.16908 0.65811 0.2431 0.0
H1665 H 0.19828 0.62719 0.13574 0.0
H1666 H 0.1694 0.66853 0.08032 0.0
H1667 H 0.16573 0.66058 0.17705 0.0
H1668 H 0.1613 0.61738 0.14581 0.0
O1669 O 0.07253 0.63485 0.1513 0.0
H1670 H 0.11514 0.6898 0.08766 0.0
H1671 H 0.05186 0.64145 0.10331 0.0
H1672 H 0.20653 0.67901 0.06987 0.0
H1673 H 0.11023 0.6001 0.24378 0.0
H1674 H 0.22121 0.65827 0.09767 0.0
H1675 H 0.14126 0.62762 0.27696 0.0
O1676 O 0.13119 0.63738 0.06774 0.0
H1677 H 0.03787 0.57145 0.08261 0.0
H1678 H 0.08099 0.64318 0.03408 0.0
H1679 H 0.05576 0.61501 0.99391 0.0
H1680 H 0.03392 0.57882 0.01816 0.0
H1681 H 0.06351 0.60008 0.1217 0.0
H1682 H 0.03925 0.66552 0.08488 0.0
H1683 H 0.065 0.70224 0.06729 0.0
O1684 O 0.11476 0.65608 0.0701 0.0
C1685 C 0.13506 0.67509 0.14325 0.0
C1686 C 0.09182 0.69837 0.07629 0.0
C1687 C 0.05594 0.67098 0.0854 0.0
N1688 N 0.08423 0.66419 0.09647 0.0
C1689 C 0.09849 0.68439 0.08697 0.0
C1690 C 0.06318 0.65744 0.09594 0.0
C1691 C 0.07039 0.69157 0.07551 0.0
C1692 C 0.12109 0.61521 0.19181 0.0
N1693 N 0.13654 0.63191 0.17325 0.0
C1694 C 0.12256 0.61337 0.22929 0.0
C1695 C 0.13994 0.62883 0.24791 0.0
C1696 C 0.15554 0.64593 0.22894 0.0
C1697 C 0.15353 0.64725 0.19147 0.0
C1698 C 0.19207 0.63636 0.1235 0.0
C1699 C 0.17568 0.65947 0.09265 0.0
C1700 C 0.17111 0.63084 0.12899 0.0
N1701 N 0.16319 0.64242 0.11378 0.0
C1702 C 0.19671 0.66546 0.08657 0.0
C1703 C 0.20493 0.65381 0.10215 0.0
C1704 C 0.12528 0.64928 0.05287 0.0
C1705 C 0.04732 0.58714 0.07169 0.0
C1706 C 0.07177 0.62745 0.04473 0.0
C1707 C 0.05739 0.61157 0.0219 0.0
C1708 C 0.04512 0.59128 0.03554 0.0
N1709 N 0.0739 0.62326 0.08014 0.0
C1710 C 0.06186 0.60342 0.09371 0.0
Co1711 Co 0.37514 0.50196 0.11851 0.0
Co1712 Co 0.36274 0.45083 0.10938 0.0
O1713 O 0.38229 0.47972 0.12538 0.0
C1714 C 0.42289 0.52388 0.11225 0.0
O1715 O 0.42277 0.50598 0.11381 0.0
C1716 C 0.37723 0.4444 0.18248 0.0
O1717 O 0.37451 0.4593 0.19656 0.0
O1718 O 0.34046 0.45011 0.14162 0.0
O1719 O 0.34443 0.48131 0.12584 0.0
H1720 H 0.29296 0.39211 0.0666 0.0
H1721 H 0.40563 0.50549 0.17585 0.0
O1722 O 0.40566 0.52417 0.11182 0.0
H1723 H 0.35191 0.51472 0.23991 0.0
H1724 H 0.38484 0.5746 0.13224 0.0
H1725 H 0.34176 0.50448 0.0774 0.0
H1726 H 0.34948 0.50871 0.17391 0.0
H1727 H 0.3935 0.54663 0.14272 0.0
O1728 O 0.37276 0.43927 0.14929 0.0
H1729 H 0.31827 0.4284 0.08532 0.0
H1730 H 0.36527 0.41162 0.10165 0.0
H1731 H 0.33243 0.53195 0.06652 0.0
H1732 H 0.40886 0.51184 0.24162 0.0
H1733 H 0.35405 0.56731 0.09403 0.0
H1734 H 0.38185 0.51647 0.27426 0.0
O1735 O 0.37218 0.4962 0.06514 0.0
H1736 H 0.43584 0.46581 0.08052 0.0
H1737 H 0.36447 0.43951 0.03191 0.0
H1738 H 0.39218 0.44135 0.9918 0.0
H1739 H 0.42819 0.45453 0.01608 0.0
H1740 H 0.40768 0.46394 0.11956 0.0
H1741 H 0.34041 0.37511 0.08342 0.0
H1742 H 0.30398 0.36517 0.06559 0.0
O1743 O 0.3525 0.46114 0.06769 0.0
C1744 C 0.33385 0.46323 0.14063 0.0
C1745 C 0.3088 0.39626 0.07425 0.0
C1746 C 0.33543 0.38671 0.08373 0.0
N1747 N 0.34326 0.42217 0.09444 0.0
C1748 C 0.32322 0.4168 0.08481 0.0
C1749 C 0.34942 0.4074 0.09415 0.0
C1750 C 0.31499 0.38114 0.07371 0.0
C1751 C 0.39403 0.50792 0.18945 0.0
N1752 N 0.37765 0.50718 0.17061 0.0
C1753 C 0.39585 0.51132 0.22692 0.0
C1754 C 0.38066 0.51385 0.24523 0.0
C1755 C 0.36387 0.51287 0.22598 0.0
C1756 C 0.36258 0.50944 0.18854 0.0
C1757 C 0.37529 0.55925 0.12012 0.0
C1758 C 0.35119 0.51979 0.0896 0.0
C1759 C 0.38015 0.54336 0.12585 0.0
N1760 N 0.36808 0.52388 0.11082 0.0
C1761 C 0.34586 0.5353 0.08329 0.0
C1762 C 0.358 0.55515 0.0987 0.0
C1763 C 0.35981 0.47849 0.05035 0.0
C1764 C 0.42023 0.46008 0.06959 0.0
C1765 C 0.38013 0.44552 0.04258 0.0
C1766 C 0.39575 0.4464 0.01978 0.0
C1767 C 0.41593 0.45377 0.03344 0.0
N1768 N 0.38448 0.45183 0.07798 0.0
C1769 C 0.40421 0.45898 0.09157 0.0
Co1770 Co 0.13433 0.5016 0.62287 0.0
Co1771 Co 0.09463 0.45059 0.61202 0.0
O1772 O 0.10464 0.47978 0.62793 0.0
C1773 C 0.10974 0.52458 0.61103 0.0
O1774 O 0.09154 0.50713 0.61292 0.0
C1775 C 0.07295 0.44629 0.6833 0.0
O1776 O 0.09004 0.46262 0.6958 0.0
O1777 O 0.11516 0.44888 0.6452 0.0
O1778 O 0.14355 0.48054 0.6345 0.0
H1779 H 0.10334 0.39025 0.56993 0.0
H1780 H 0.10619 0.50646 0.67602 0.0
O1781 O 0.12687 0.5241 0.61244 0.0
H1782 H 0.16774 0.51742 0.74684 0.0
H1783 H 0.19783 0.57397 0.6359 0.0
H1784 H 0.17082 0.50251 0.58691 0.0
H1785 H 0.16536 0.50942 0.68152 0.0
H1786 H 0.16078 0.54673 0.64496 0.0
O1787 O 0.07262 0.43955 0.65132 0.0
H1788 H 0.11544 0.42682 0.58845 0.0
H1789 H 0.05227 0.41233 0.60376 0.0
H1790 H 0.20806 0.52924 0.5776 0.0
H1791 H 0.10807 0.51471 0.741 0.0
H1792 H 0.22178 0.56527 0.60217 0.0
H1793 H 0.139 0.52022 0.77705 0.0
O1794 O 0.1328 0.49535 0.56983 0.0
H1795 H 0.03848 0.46782 0.57944 0.0
H1796 H 0.08318 0.44029 0.53385 0.0
H1797 H 0.05853 0.44322 0.49213 0.0
H1798 H 0.03591 0.45702 0.51488 0.0
H1799 H 0.06352 0.46485 0.62014 0.0
H1800 H 0.03948 0.37557 0.58565 0.0
H1801 H 0.06509 0.36433 0.56848 0.0
O1802 O 0.11581 0.46019 0.57141 0.0
C1803 C 0.13485 0.46187 0.64739 0.0
C1804 C 0.09202 0.39496 0.57734 0.0
C1805 C 0.05619 0.38672 0.5862 0.0
N1806 N 0.08462 0.42174 0.59717 0.0
C1807 C 0.09879 0.41566 0.58783 0.0
C1808 C 0.06354 0.40755 0.59655 0.0
C1809 C 0.07056 0.38042 0.57654 0.0
C1810 C 0.11988 0.5092 0.6911 0.0
N1811 N 0.13579 0.50779 0.67455 0.0
C1812 C 0.12078 0.5137 0.72811 0.0
C1813 C 0.13811 0.51675 0.74833 0.0
C1814 C 0.15423 0.51517 0.73141 0.0
C1815 C 0.15277 0.51062 0.69436 0.0
C1816 C 0.19204 0.55832 0.6251 0.0
C1817 C 0.1767 0.51812 0.59788 0.0
C1818 C 0.17104 0.54284 0.63001 0.0
N1819 N 0.16365 0.52299 0.61662 0.0
C1820 C 0.19779 0.5332 0.59243 0.0
C1821 C 0.20548 0.55342 0.60619 0.0
C1822 C 0.1269 0.4776 0.55487 0.0
C1823 C 0.04825 0.46178 0.5692 0.0
C1824 C 0.07353 0.44648 0.54393 0.0
C1825 C 0.05953 0.44802 0.52019 0.0
C1826 C 0.04683 0.45574 0.53297 0.0
N1827 N 0.07487 0.45249 0.57942 0.0
C1828 C 0.06243 0.46003 0.59215 0.0
Co1829 Co 0.50607 0.63495 0.62415 0.0
Co1830 Co 0.55646 0.64494 0.61195 0.0
O1831 O 0.52742 0.6264 0.62901 0.0
C1832 C 0.4823 0.58736 0.61353 0.0
O1833 O 0.49977 0.58662 0.6125 0.0
C1834 C 0.56105 0.62758 0.68304 0.0
O1835 O 0.54483 0.62844 0.69584 0.0
O1836 O 0.55897 0.66756 0.64493 0.0
O1837 O 0.52787 0.66531 0.63335 0.0
H1838 H 0.61701 0.71315 0.56762 0.0
H1839 H 0.50039 0.60234 0.6785 0.0
O1840 O 0.48288 0.60498 0.61612 0.0
H1841 H 0.49426 0.65637 0.74793 0.0
H1842 H 0.43494 0.62861 0.64051 0.0
H1843 H 0.50536 0.67005 0.58592 0.0
H1844 H 0.50096 0.66043 0.68209 0.0
H1845 H 0.46167 0.61805 0.64912 0.0
O1846 O 0.56767 0.63397 0.651 0.0
H1847 H 0.58056 0.6893 0.58751 0.0
H1848 H 0.59415 0.63996 0.60236 0.0
H1849 H 0.47915 0.68129 0.57695 0.0
H1850 H 0.49339 0.59752 0.7441 0.0
H1851 H 0.44363 0.66049 0.60434 0.0
H1852 H 0.49033 0.62469 0.7794 0.0
O1853 O 0.51145 0.63834 0.57078 0.0
H1854 H 0.53771 0.57094 0.58065 0.0
H1855 H 0.56566 0.6429 0.53346 0.0
H1856 H 0.56176 0.61478 0.49213 0.0
H1857 H 0.54774 0.57849 0.51568 0.0
H1858 H 0.54163 0.5995 0.62096 0.0
H1859 H 0.63078 0.66331 0.5829 0.0
H1860 H 0.64241 0.70018 0.56526 0.0
O1861 O 0.54663 0.65644 0.57145 0.0
C1862 C 0.54648 0.67488 0.64646 0.0
C1863 C 0.61213 0.69711 0.5752 0.0
C1864 C 0.61986 0.66914 0.58381 0.0
N1865 N 0.58519 0.66325 0.596 0.0
C1866 C 0.59149 0.68353 0.58644 0.0
C1867 C 0.5991 0.65601 0.59491 0.0
C1868 C 0.62637 0.68982 0.5739 0.0
C1869 C 0.49875 0.61408 0.69336 0.0
N1870 N 0.50083 0.63151 0.67617 0.0
C1871 C 0.49493 0.61134 0.73067 0.0
C1872 C 0.49326 0.6266 0.75047 0.0
C1873 C 0.49547 0.64437 0.73284 0.0
C1874 C 0.49931 0.64659 0.69552 0.0
C1875 C 0.45036 0.63781 0.62845 0.0
C1876 C 0.48998 0.66098 0.59808 0.0
C1877 C 0.46555 0.63186 0.63311 0.0
N1878 N 0.48511 0.64347 0.61814 0.0
C1879 C 0.47518 0.66739 0.59284 0.0
C1880 C 0.45525 0.6557 0.60818 0.0
C1881 C 0.52908 0.64988 0.5552 0.0
C1882 C 0.54383 0.58669 0.57006 0.0
C1883 C 0.55937 0.62712 0.54389 0.0
C1884 C 0.55729 0.61128 0.52036 0.0
C1885 C 0.54945 0.59093 0.5336 0.0
N1886 N 0.55377 0.62283 0.57961 0.0
C1887 C 0.54613 0.60293 0.59278 0.0
Co1888 Co 0.37809 0.87581 0.62173 0.0
Co1889 Co 0.36425 0.91361 0.6157 0.0
O1890 O 0.38473 0.90494 0.62969 0.0
C1891 C 0.42584 0.90218 0.61324 0.0
O1892 O 0.42591 0.91999 0.61703 0.0
C1893 C 0.38209 0.93514 0.68705 0.0
O1894 O 0.383 0.91864 0.69812 0.0
O1895 O 0.34296 0.89175 0.64867 0.0
O1896 O 0.34735 0.86507 0.63083 0.0
H1897 H 0.29306 0.9009 0.57793 0.0
H1898 H 0.40974 0.90211 0.67821 0.0
O1899 O 0.40856 0.88471 0.61296 0.0
H1900 H 0.35714 0.83861 0.74238 0.0
H1901 H 0.38945 0.81368 0.63065 0.0
H1902 H 0.3445 0.83991 0.58094 0.0
H1903 H 0.3534 0.84295 0.67705 0.0
H1904 H 0.39759 0.85 0.64278 0.0
O1905 O 0.37447 0.9351 0.65596 0.0
H1906 H 0.31933 0.89071 0.59413 0.0
H1907 H 0.36552 0.95482 0.60994 0.0
H1908 H 0.33567 0.80341 0.56848 0.0
H1909 H 0.41434 0.8982 0.74324 0.0
H1910 H 0.35824 0.79007 0.5934 0.0
H1911 H 0.38787 0.86629 0.77595 0.0
O1912 O 0.37441 0.87909 0.56899 0.0
H1913 H 0.43612 0.97276 0.58293 0.0
H1914 H 0.36397 0.92622 0.5386 0.0
H1915 H 0.39047 0.95244 0.49721 0.0
H1916 H 0.42684 0.97599 0.51934 0.0
H1917 H 0.40917 0.94617 0.62332 0.0
H1918 H 0.33969 0.96568 0.59419 0.0
H1919 H 0.30319 0.93863 0.57791 0.0
O1920 O 0.35352 0.89304 0.57389 0.0
C1921 C 0.33667 0.87212 0.64681 0.0
C1922 C 0.30893 0.91284 0.58489 0.0
C1923 C 0.3351 0.9492 0.59407 0.0
N1924 N 0.34397 0.92214 0.60277 0.0
C1925 C 0.32389 0.90716 0.59402 0.0
C1926 C 0.34964 0.94294 0.60305 0.0
C1927 C 0.31462 0.93401 0.58491 0.0
C1928 C 0.39838 0.88798 0.6918 0.0
N1929 N 0.38151 0.87266 0.67339 0.0
C1930 C 0.40096 0.88594 0.72886 0.0
C1931 C 0.38608 0.86807 0.74722 0.0
C1932 C 0.36883 0.85256 0.72842 0.0
C1933 C 0.36678 0.85515 0.69137 0.0
C1934 C 0.37949 0.8193 0.61966 0.0
C1935 C 0.35435 0.83421 0.59203 0.0
C1936 C 0.38405 0.83989 0.62633 0.0
N1937 N 0.37147 0.84707 0.61271 0.0
C1938 C 0.34929 0.81353 0.58481 0.0
C1939 C 0.36197 0.80606 0.59878 0.0
C1940 C 0.36126 0.88376 0.55549 0.0
C1941 C 0.42032 0.9626 0.57298 0.0
C1942 C 0.37979 0.9363 0.54841 0.0
C1943 C 0.39472 0.95118 0.52486 0.0
C1944 C 0.41511 0.96439 0.53729 0.0
N1945 N 0.38502 0.93463 0.58339 0.0
C1946 C 0.40498 0.94754 0.59575 0.0
Co1947 Co 0.17277 0.46657 0.22348 0.0
Co1948 Co 0.12129 0.4282 0.2288 0.0
O1949 O 0.15051 0.43747 0.21433 0.0
C1950 C 0.19434 0.4403 0.23016 0.0
O1951 O 0.17649 0.42253 0.22727 0.0
C1952 C 0.11825 0.40696 0.15708 0.0
O1953 O 0.13673 0.42253 0.14769 0.0
O1954 O 0.12159 0.45049 0.19739 0.0
O1955 O 0.15244 0.47715 0.21601 0.0
H1956 H 0.06245 0.43958 0.26981 0.0
H1957 H 0.1792 0.44189 0.1653 0.0
O1958 O 0.1946 0.45781 0.2306 0.0
H1959 H 0.18812 0.50567 0.10483 0.0
H1960 H 0.24583 0.52943 0.21597 0.0
H1961 H 0.17467 0.50147 0.26689 0.0
H1962 H 0.18005 0.50009 0.1701 0.0
H1963 H 0.21796 0.4932 0.20237 0.0
O1964 O 0.11001 0.40745 0.18727 0.0
H1965 H 0.09898 0.45036 0.25301 0.0
H1966 H 0.08155 0.38671 0.23299 0.0
H1967 H 0.20203 0.53787 0.28088 0.0
H1968 H 0.18776 0.44709 0.10028 0.0
H1969 H 0.23792 0.55208 0.25535 0.0
H1970 H 0.19219 0.47913 0.06944 0.0
O1971 O 0.16592 0.46223 0.27621 0.0
H1972 H 0.13464 0.36886 0.25671 0.0
H1973 H 0.10849 0.4141 0.30536 0.0
H1974 H 0.10898 0.38723 0.34476 0.0
H1975 H 0.12208 0.36433 0.32046 0.0
H1976 H 0.13408 0.39607 0.21836 0.0
H1977 H 0.04482 0.37527 0.2493 0.0
H1978 H 0.03507 0.40179 0.268 0.0
O1979 O 0.13102 0.44798 0.27183 0.0
C1980 C 0.13473 0.47014 0.20002 0.0
C1981 C 0.06651 0.42787 0.2618 0.0
C1982 C 0.05661 0.39178 0.25024 0.0
N1983 N 0.09244 0.41919 0.24224 0.0
C1984 C 0.08718 0.43388 0.25233 0.0
C1985 C 0.07744 0.39837 0.24095 0.0
C1986 C 0.05115 0.40667 0.26074 0.0
C1987 C 0.18147 0.45605 0.15247 0.0
N1988 N 0.17929 0.47072 0.17185 0.0
C1989 C 0.18615 0.45883 0.11544 0.0
C1990 C 0.18858 0.47678 0.09813 0.0
C1991 C 0.18627 0.49166 0.11795 0.0
C1992 C 0.18159 0.48834 0.15494 0.0
C1993 C 0.23025 0.52343 0.22723 0.0
C1994 C 0.19021 0.50755 0.25555 0.0
C1995 C 0.21441 0.50289 0.21973 0.0
N1996 N 0.19465 0.49523 0.2337 0.0
C1997 C 0.20566 0.52817 0.26362 0.0
C1998 C 0.2258 0.53613 0.24931 0.0
C1999 C 0.14808 0.45702 0.2902 0.0
C2000 C 0.12888 0.37872 0.26761 0.0
C2001 C 0.11435 0.40431 0.29461 0.0
C2002 C 0.11452 0.38906 0.31704 0.0
C2003 C 0.12185 0.3762 0.30338 0.0
N2004 N 0.12128 0.40669 0.25952 0.0
C2005 C 0.12848 0.39414 0.24597 0.0
Co2006 Co 0.53987 0.70268 0.22065 0.0
Co2007 Co 0.58058 0.69305 0.23172 0.0
O2008 O 0.56978 0.71138 0.21468 0.0
C2009 C 0.56339 0.75048 0.22916 0.0
O2010 O 0.58181 0.75166 0.22826 0.0
C2011 C 0.60284 0.71102 0.1606 0.0
O2012 O 0.58677 0.71251 0.14891 0.0
O2013 O 0.5602 0.67021 0.19944 0.0
O2014 O 0.53138 0.67223 0.21247 0.0
H2015 H 0.57327 0.6251 0.27676 0.0
H2016 H 0.56555 0.73482 0.1646 0.0
O2017 O 0.54651 0.73266 0.22798 0.0
H2018 H 0.50499 0.67907 0.09851 0.0
H2019 H 0.47463 0.70841 0.2062 0.0
H2020 H 0.50471 0.6679 0.26066 0.0
H2021 H 0.50873 0.67605 0.16431 0.0
H2022 H 0.51184 0.71906 0.19626 0.0
O2023 O 0.60239 0.70347 0.19195 0.0
H2024 H 0.56051 0.64882 0.25682 0.0
H2025 H 0.62332 0.69809 0.2406 0.0
H2026 H 0.46735 0.65658 0.27099 0.0
H2027 H 0.56223 0.73863 0.09901 0.0
H2028 H 0.45208 0.6769 0.24367 0.0
H2029 H 0.53181 0.71059 0.06537 0.0
O2030 O 0.54262 0.7 0.27395 0.0
H2031 H 0.63576 0.76741 0.26068 0.0
H2032 H 0.59279 0.69577 0.30982 0.0
H2033 H 0.61738 0.7243 0.35014 0.0
H2034 H 0.63913 0.76043 0.3256 0.0
H2035 H 0.61078 0.73846 0.22141 0.0
H2036 H 0.63675 0.67486 0.26007 0.0
H2037 H 0.61165 0.63809 0.27844 0.0
O2038 O 0.55968 0.6819 0.27297 0.0
C2039 C 0.54036 0.66274 0.19879 0.0
C2040 C 0.58437 0.6411 0.26889 0.0
C2041 C 0.61999 0.66902 0.25949 0.0
N2042 N 0.59113 0.67485 0.24771 0.0
C2043 C 0.57723 0.65462 0.25764 0.0
C2044 C 0.61228 0.68209 0.24839 0.0
C2045 C 0.6059 0.64839 0.2698 0.0
C2046 C 0.55208 0.7227 0.15049 0.0
N2047 N 0.53725 0.70537 0.1686 0.0
C2048 C 0.55037 0.72488 0.11317 0.0
C2049 C 0.53332 0.70912 0.0943 0.0
C2050 C 0.51829 0.69144 0.11286 0.0
C2051 C 0.52053 0.68981 0.15017 0.0
C2052 C 0.48109 0.69941 0.21822 0.0
C2053 C 0.49816 0.67676 0.24852 0.0
C2054 C 0.50219 0.7054 0.21279 0.0
N2055 N 0.51044 0.69405 0.22773 0.0
C2056 C 0.477 0.6703 0.25453 0.0
C2057 C 0.46845 0.68172 0.23923 0.0
C2058 C 0.54885 0.68857 0.28948 0.0
C2059 C 0.62638 0.75174 0.2717 0.0
C2060 C 0.60206 0.71147 0.29896 0.0
C2061 C 0.61603 0.72755 0.32191 0.0
C2062 C 0.62825 0.74781 0.30812 0.0
N2063 N 0.6003 0.71545 0.26325 0.0
C2064 C 0.61224 0.73526 0.24955 0.0
Co2065 Co 0.29707 0.8364 0.22668 0.0
Co2066 Co 0.31135 0.88789 0.23552 0.0
O2067 O 0.29065 0.85911 0.22053 0.0
C2068 C 0.24928 0.81511 0.23459 0.0
O2069 O 0.24928 0.83292 0.23157 0.0
C2070 C 0.29577 0.89416 0.16392 0.0
O2071 O 0.29866 0.8794 0.1497 0.0
O2072 O 0.33232 0.8876 0.20121 0.0
O2073 O 0.32784 0.85633 0.21778 0.0
H2074 H 0.38299 0.94555 0.27308 0.0
H2075 H 0.26626 0.83368 0.17066 0.0
O2076 O 0.26654 0.81488 0.23496 0.0
H2077 H 0.31753 0.82169 0.10423 0.0
H2078 H 0.28507 0.76287 0.21319 0.0
H2079 H 0.33053 0.8331 0.26604 0.0
H2080 H 0.32112 0.82816 0.17009 0.0
H2081 H 0.27723 0.79144 0.20329 0.0
O2082 O 0.30064 0.89952 0.19693 0.0
H2083 H 0.35644 0.90938 0.25592 0.0
H2084 H 0.3104 0.92785 0.24417 0.0
H2085 H 0.33907 0.80502 0.27626 0.0
H2086 H 0.26186 0.8269 0.10506 0.0
H2087 H 0.31626 0.7696 0.24975 0.0
H2088 H 0.28764 0.82088 0.07122 0.0
O2089 O 0.30088 0.84256 0.27981 0.0
H2090 H 0.23995 0.87515 0.27188 0.0
H2091 H 0.31241 0.89974 0.31348 0.0
H2092 H 0.28636 0.89903 0.35651 0.0
H2093 H 0.24983 0.88671 0.33577 0.0
H2094 H 0.26646 0.87593 0.22982 0.0
H2095 H 0.3365 0.96426 0.26092 0.0
H2096 H 0.37308 0.97329 0.27566 0.0
O2097 O 0.32233 0.87735 0.27581 0.0
C2098 C 0.33846 0.87411 0.20199 0.0
C2099 C 0.36709 0.9418 0.2668 0.0
C2100 C 0.341 0.95231 0.25993 0.0
N2101 N 0.33186 0.91646 0.24924 0.0
C2102 C 0.35197 0.92133 0.25713 0.0
C2103 C 0.3263 0.93167 0.25036 0.0
C2104 C 0.36152 0.95736 0.26821 0.0
C2105 C 0.27729 0.83062 0.15656 0.0
N2106 N 0.29362 0.83082 0.17468 0.0
C2107 C 0.27483 0.82699 0.11919 0.0
C2108 C 0.28933 0.82368 0.1002 0.0
C2109 C 0.30609 0.82414 0.11869 0.0
C2110 C 0.30804 0.82782 0.15607 0.0
C2111 C 0.29514 0.77824 0.22486 0.0
C2112 C 0.32057 0.81776 0.25427 0.0
C2113 C 0.29074 0.79448 0.21947 0.0
N2114 N 0.30346 0.81398 0.23395 0.0
C2115 C 0.32546 0.80191 0.26022 0.0
C2116 C 0.31265 0.78203 0.24536 0.0
C2117 C 0.31428 0.86015 0.29373 0.0
C2118 C 0.25581 0.88055 0.28125 0.0
C2119 C 0.29651 0.89421 0.30427 0.0
C2120 C 0.28185 0.89392 0.32875 0.0
C2121 C 0.26136 0.88702 0.31709 0.0
N2122 N 0.29094 0.8878 0.26915 0.0
C2123 C 0.2709 0.88105 0.25753 0.0
H2124 H 0.37947 0.30356 0.8613 0.0
H2125 H 0.38616 0.25073 0.89406 0.0
H2126 H 0.34604 0.28865 0.89403 0.0
H2127 H 0.3525 0.23565 0.92612 0.0
H2128 H 0.2795 0.20539 0.93854 0.0
H2129 H 0.31312 0.221 0.9061 0.0
H2130 H 0.33352 0.27978 0.96174 0.0
H2131 H 0.30015 0.26413 0.99475 0.0
C2132 C 0.37387 0.28883 0.87563 0.0
C2133 C 0.38556 0.27839 0.87519 0.0
C2134 C 0.35473 0.28031 0.89437 0.0
C2135 C 0.3466 0.26093 0.91245 0.0
C2136 C 0.3583 0.25053 0.91217 0.0
C2137 C 0.37766 0.25926 0.89406 0.0
C2138 C 0.29108 0.22169 0.94362 0.0
C2139 C 0.28712 0.23352 0.96918 0.0
C2140 C 0.31038 0.23056 0.92527 0.0
C2141 C 0.32597 0.25158 0.9315 0.0
C2142 C 0.32179 0.26357 0.9563 0.0
C2143 C 0.30269 0.25459 0.97522 0.0
H2144 H 0.72358 0.08298 0.82482 0.0
H2145 H 0.72659 0.12008 0.91805 0.0
H2146 H 0.74065 0.06749 0.85935 0.0
H2147 H 0.7441 0.10476 0.95257 0.0
H2148 H 0.75391 0.05606 0.01433 0.0
H2149 H 0.73725 0.07196 0.9798 0.0
H2150 H 0.77406 0.07562 0.88574 0.0
H2151 H 0.79056 0.05927 0.92028 0.0
C2152 C 0.72789 0.08788 0.85273 0.0
C2153 C 0.72357 0.10277 0.86864 0.0
C2154 C 0.73789 0.07908 0.87248 0.0
C2155 C 0.74386 0.08486 0.9088 0.0
C2156 C 0.73952 0.09973 0.92479 0.0
C2157 C 0.72953 0.10859 0.90496 0.0
C2158 C 0.75847 0.06017 0.98625 0.0
C2159 C 0.77358 0.05625 0.97011 0.0
C2160 C 0.749 0.06949 0.96648 0.0
C2161 C 0.75429 0.07518 0.92993 0.0
C2162 C 0.76939 0.07124 0.91372 0.0
C2163 C 0.77893 0.06193 0.93356 0.0
H2164 H 0.97125 0.71184 0.98383 0.0
H2165 H 0.91977 0.72001 0.94797 0.0
H2166 H 0.95573 0.67803 0.95234 0.0
H2167 H 0.9041 0.68597 0.91699 0.0
H2168 H 0.87217 0.61273 0.90644 0.0
H2169 H 0.88815 0.64669 0.93792 0.0
H2170 H 0.94741 0.66498 0.88555 0.0
H2171 H 0.93145 0.6313 0.85365 0.0
C2172 C 0.95669 0.70649 0.96904 0.0
C2173 C 0.9468 0.71868 0.96827 0.0
C2174 C 0.94782 0.68713 0.95102 0.0
C2175 C 0.92864 0.67931 0.93243 0.0
C2176 C 0.9188 0.69153 0.93141 0.0
C2177 C 0.92788 0.7111 0.94885 0.0
C2178 C 0.88865 0.62392 0.90193 0.0
C2179 C 0.90055 0.61931 0.87761 0.0
C2180 C 0.89774 0.64342 0.91969 0.0
C2181 C 0.919 0.6585 0.91405 0.0
C2182 C 0.93102 0.65364 0.89051 0.0
C2183 C 0.92186 0.63436 0.87224 0.0
H2184 H 0.30434 0.37604 0.65327 0.0
H2185 H 0.26385 0.39506 0.60099 0.0
H2186 H 0.28723 0.34291 0.61956 0.0
H2187 H 0.24639 0.36159 0.56788 0.0
H2188 H 0.2051 0.28763 0.55801 0.0
H2189 H 0.22324 0.3216 0.58926 0.0
H2190 H 0.28283 0.33115 0.55049 0.0
H2191 H 0.26472 0.29742 0.51849 0.0
C2192 C 0.29187 0.3732 0.6344 0.0
C2193 C 0.2855 0.38822 0.62969 0.0
C2194 C 0.28211 0.35424 0.6151 0.0
C2195 C 0.26543 0.34964 0.59125 0.0
C2196 C 0.25913 0.3647 0.58627 0.0
C2197 C 0.26923 0.3839 0.60499 0.0
C2198 C 0.22208 0.29691 0.55631 0.0
C2199 C 0.23347 0.28977 0.53587 0.0
C2200 C 0.23243 0.31643 0.57394 0.0
C2201 C 0.25443 0.32904 0.57216 0.0
C2202 C 0.26586 0.32173 0.55237 0.0
C2203 C 0.25549 0.30243 0.53407 0.0
H2204 H 0.60786 0.88302 0.58921 0.0
H2205 H 0.64094 0.92377 0.67957 0.0
H2206 H 0.64071 0.89838 0.55481 0.0
H2207 H 0.67348 0.93932 0.6451 0.0
H2208 H 0.73263 0.94878 0.58721 0.0
H2209 H 0.69974 0.93197 0.62156 0.0
H2210 H 0.66565 0.93045 0.52497 0.0
H2211 H 0.69825 0.94673 0.49065 0.0
C2212 C 0.62206 0.89533 0.60166 0.0
C2213 C 0.62166 0.90214 0.63717 0.0
C2214 C 0.64092 0.90421 0.5819 0.0
C2215 C 0.65985 0.9201 0.59716 0.0
C2216 C 0.65936 0.92691 0.63262 0.0
C2217 C 0.64057 0.91807 0.65232 0.0
C2218 C 0.71812 0.94484 0.57332 0.0
C2219 C 0.71818 0.94921 0.53616 0.0
C2220 C 0.69924 0.93527 0.59305 0.0
C2221 C 0.67995 0.92982 0.5761 0.0
C2222 C 0.68008 0.93411 0.53889 0.0
C2223 C 0.69889 0.94364 0.51923 0.0
H2224 H 0.08038 0.79994 0.56859 0.0
H2225 H 0.03801 0.7404 0.51815 0.0
H2226 H 0.09784 0.78358 0.60039 0.0
H2227 H 0.05524 0.72403 0.5505 0.0
H2228 H 0.07884 0.70075 0.64967 0.0
H2229 H 0.06064 0.71622 0.61756 0.0
H2230 H 0.1202 0.76669 0.57966 0.0
H2231 H 0.13844 0.75108 0.61115 0.0
C2232 C 0.0746 0.78332 0.56466 0.0
C2233 C 0.05777 0.77148 0.54087 0.0
C2234 C 0.08472 0.774 0.58264 0.0
C2235 C 0.07797 0.75254 0.5778 0.0
C2236 C 0.06075 0.74057 0.55485 0.0
C2237 C 0.05091 0.74997 0.53631 0.0
C2238 C 0.08805 0.71503 0.63417 0.0
C2239 C 0.11011 0.72462 0.63287 0.0
C2240 C 0.07761 0.72387 0.61579 0.0
C2241 C 0.089 0.74274 0.5963 0.0
C2242 C 0.11102 0.75224 0.59474 0.0
C2243 C 0.12144 0.74318 0.61252 0.0
H2244 H 0.61743 0.74204 0.10912 0.0
H2245 H 0.63248 0.699 0.16277 0.0
H2246 H 0.65057 0.75726 0.07613 0.0
H2247 H 0.6649 0.71304 0.12812 0.0
H2248 H 0.73086 0.75309 0.08559 0.0
H2249 H 0.69852 0.73995 0.12052 0.0
H2250 H 0.66971 0.75402 0.03048 0.0
H2251 H 0.70248 0.76841 0.99696 0.0
C2252 C 0.62768 0.73558 0.11334 0.0
C2253 C 0.62232 0.71932 0.13854 0.0
C2254 C 0.64674 0.74423 0.09424 0.0
C2255 C 0.66076 0.73653 0.09918 0.0
C2256 C 0.65501 0.71991 0.12399 0.0
C2257 C 0.63622 0.71162 0.14368 0.0
C2258 C 0.71764 0.75354 0.07351 0.0
C2259 C 0.71931 0.7619 0.0386 0.0
C2260 C 0.69892 0.74577 0.09338 0.0
C2261 C 0.68113 0.74565 0.07853 0.0
C2262 C 0.68297 0.75412 0.04348 0.0
C2263 C 0.70183 0.76232 0.02401 0.0
H2264 H 0.28655 0.92414 0.18655 0.0
H2265 H 0.28249 0.88689 0.09285 0.0
H2266 H 0.27018 0.94047 0.15226 0.0
H2267 H 0.26572 0.90304 0.05864 0.0
H2268 H 0.25784 0.95286 0.99726 0.0
H2269 H 0.27378 0.93631 0.03191 0.0
H2270 H 0.237 0.93326 0.12561 0.0
H2271 H 0.22119 0.95027 0.09091 0.0
C2272 C 0.28216 0.91939 0.1586 0.0
C2273 C 0.28598 0.90422 0.14245 0.0
C2274 C 0.27258 0.92866 0.13901 0.0
C2275 C 0.26656 0.9231 0.10264 0.0
C2276 C 0.27037 0.90792 0.08645 0.0
C2277 C 0.27994 0.89859 0.10611 0.0
C2278 C 0.25313 0.94876 0.02529 0.0
C2279 C 0.23823 0.95302 0.04127 0.0
C2280 C 0.2622 0.93906 0.04512 0.0
C2281 C 0.25667 0.93333 0.08158 0.0
C2282 C 0.24181 0.93765 0.09769 0.0
C2283 C 0.23268 0.94734 0.07776 0.0
H2284 H 0.13657 0.39168 0.11081 0.0
H2285 H 0.07629 0.3781 0.15348 0.0
H2286 H 0.1195 0.35826 0.07753 0.0
H2287 H 0.05922 0.34505 0.11916 0.0
H2288 H 0.04078 0.30295 0.01066 0.0
H2289 H 0.05714 0.33598 0.04494 0.0
H2290 H 0.09582 0.3165 0.10199 0.0
H2291 H 0.07898 0.28307 0.0686 0.0
C2292 C 0.11967 0.38172 0.11267 0.0
C2293 C 0.10777 0.38757 0.13466 0.0
C2294 C 0.10995 0.36255 0.09385 0.0
C2295 C 0.08808 0.3491 0.0959 0.0
C2296 C 0.07611 0.35516 0.11712 0.0
C2297 C 0.08588 0.37406 0.1367 0.0
C2298 C 0.05266 0.30563 0.03073 0.0
C2299 C 0.05854 0.29036 0.03704 0.0
C2300 C 0.06197 0.32451 0.05033 0.0
C2301 C 0.07777 0.32878 0.07595 0.0
C2302 C 0.08373 0.31359 0.08225 0.0
C2303 C 0.07401 0.29444 0.06332 0.0
H2304 H 0.72738 0.64392 0.32511 0.0
H2305 H 0.72753 0.60955 0.42018 0.0
H2306 H 0.74285 0.67626 0.36018 0.0
H2307 H 0.74348 0.6422 0.45531 0.0
H2308 H 0.75098 0.70043 0.51537 0.0
H2309 H 0.73558 0.66794 0.48052 0.0
H2310 H 0.7751 0.70156 0.38927 0.0
H2311 H 0.79029 0.73426 0.42401 0.0
C2312 C 0.73074 0.64322 0.35353 0.0
C2313 C 0.72609 0.624 0.36978 0.0
C2314 C 0.73981 0.66189 0.37363 0.0
C2315 C 0.74453 0.66197 0.41064 0.0
C2316 C 0.73986 0.64275 0.42697 0.0
C2317 C 0.73079 0.62401 0.40679 0.0
C2318 C 0.75637 0.70098 0.48781 0.0
C2319 C 0.77186 0.72009 0.4725 0.0
C2320 C 0.74763 0.68223 0.46789 0.0
C2321 C 0.75407 0.682 0.43202 0.0
C2322 C 0.76953 0.70113 0.41665 0.0
C2323 C 0.77832 0.71991 0.43663 0.0
H2324 H 0.28619 0.0838 0.44572 0.0
H2325 H 0.29334 0.03198 0.48286 0.0
H2326 H 0.31965 0.09848 0.41402 0.0
H2327 H 0.32621 0.04587 0.44943 0.0
H2328 H 0.3942 0.08476 0.41469 0.0
H2329 H 0.3613 0.07143 0.4481 0.0
H2330 H 0.33793 0.09629 0.36528 0.0
H2331 H 0.37118 0.11057 0.33336 0.0
C2332 C 0.29472 0.0753 0.44648 0.0
C2333 C 0.28704 0.05669 0.46677 0.0
C2334 C 0.31397 0.08369 0.42814 0.0
C2335 C 0.32594 0.07351 0.42899 0.0
C2336 C 0.31789 0.05456 0.44866 0.0
C2337 C 0.29883 0.04639 0.46755 0.0
C2338 C 0.38209 0.08756 0.40393 0.0
C2339 C 0.38542 0.09886 0.37151 0.0
C2340 C 0.36305 0.0797 0.42288 0.0
C2341 C 0.34663 0.08255 0.40951 0.0
C2342 C 0.35015 0.09402 0.37707 0.0
C2343 C 0.3693 0.1022 0.35856 0.0
H2344 H 0.92973 0.30239 0.36249 0.0
H2345 H 0.86995 0.25011 0.39563 0.0
H2346 H 0.94795 0.28718 0.39541 0.0
H2347 H 0.88821 0.23475 0.42783 0.0
H2348 H 0.92986 0.20336 0.4398 0.0
H2349 H 0.91236 0.21954 0.40745 0.0
H2350 H 0.95157 0.27809 0.46315 0.0
H2351 H 0.96878 0.26187 0.49609 0.0
C2352 C 0.92048 0.28774 0.37699 0.0
C2353 C 0.89837 0.27753 0.37656 0.0
C2354 C 0.93092 0.27904 0.39581 0.0
C2355 C 0.9195 0.25971 0.41397 0.0
C2356 C 0.89742 0.24958 0.4138 0.0
C2357 C 0.88698 0.25848 0.39562 0.0
C2358 C 0.93487 0.21973 0.44492 0.0
C2359 C 0.95074 0.23133 0.47049 0.0
C2360 C 0.92474 0.22894 0.42661 0.0
C2361 C 0.93055 0.25006 0.43289 0.0
C2362 C 0.94681 0.26182 0.45767 0.0
C2363 C 0.95663 0.2525 0.47655 0.0
H2364 H 0.06718 0.61842 0.25647 0.0
H2365 H 0.03467 0.62329 0.16246 0.0
H2366 H 0.03445 0.60381 0.29135 0.0
H2367 H 1.00221 0.60853 0.19691 0.0
H2368 H 0.95358 0.60352 0.28008 0.0
H2369 H 0.9862 0.61763 0.24565 0.0
H2370 H 0.99947 0.57238 0.2959 0.0
H2371 H 0.96697 0.55844 0.33078 0.0
C2372 C 0.05311 0.61639 0.24322 0.0
C2373 C 0.05368 0.62216 0.20665 0.0
C2374 C 0.0343 0.60788 0.26314 0.0
C2375 C 0.01564 0.60502 0.247 0.0
C2376 C 0.01628 0.61078 0.21045 0.0
C2377 C 0.03498 0.61918 0.19059 0.0
C2378 C 0.96334 0.59644 0.28362 0.0
C2379 C 0.95753 0.57977 0.30818 0.0
C2380 C 0.98207 0.60452 0.26378 0.0
C2381 C 0.99557 0.59621 0.26802 0.0
C2382 C 0.98964 0.57938 0.29229 0.0
C2383 C 0.97085 0.57123 0.31204 0.0
H2384 H 0.45204 0.41316 0.32811 0.0
H2385 H 0.40795 0.35418 0.27777 0.0
H2386 H 0.43734 0.43099 0.29309 0.0
H2387 H 0.39303 0.37192 0.24333 0.0
H2388 H 0.38497 0.41337 0.16046 0.0
H2389 H 0.40061 0.39639 0.19467 0.0
H2390 H 0.40588 0.43401 0.28848 0.0
H2391 H 0.39048 0.45143 0.25379 0.0
C2392 C 0.4393 0.40399 0.30942 0.0
C2393 C 0.43127 0.38219 0.30573 0.0
C2394 C 0.43071 0.41421 0.28958 0.0
C2395 C 0.4139 0.40294 0.26541 0.0
C2396 C 0.40611 0.3812 0.26132 0.0
C2397 C 0.41466 0.37099 0.28119 0.0
C2398 C 0.38937 0.41805 0.18842 0.0
C2399 C 0.38634 0.43378 0.20433 0.0
C2400 C 0.3983 0.40819 0.20815 0.0
C2401 C 0.4045 0.41372 0.24446 0.0
C2402 C 0.40152 0.42949 0.26046 0.0
C2403 C 0.39253 0.43938 0.24065 0.0
H2404 H 0.5934 0.95898 0.18995 0.0
H2405 H 0.53338 0.94464 0.23508 0.0
H2406 H 0.61021 0.99277 0.22162 0.0
H2407 H 0.55023 0.97864 0.2663 0.0
H2408 H 0.58521 0.05185 0.27621 0.0
H2409 H 0.56889 0.01773 0.24545 0.0
H2410 H 0.61714 0.0064 0.28774 0.0
H2411 H 0.6333 0.04032 0.31896 0.0
C2412 C 0.58382 0.96296 0.20685 0.0
C2413 C 0.56205 0.94906 0.21009 0.0
C2414 C 0.59347 0.98231 0.22499 0.0
C2415 C 0.58152 0.98841 0.24624 0.0
C2416 C 0.5598 0.97444 0.24983 0.0
C2417 C 0.5502 0.95489 0.23222 0.0
C2418 C 0.59245 0.04217 0.2787 0.0
C2419 C 0.61059 0.04885 0.29999 0.0
C2420 C 0.58299 0.02256 0.26135 0.0
C2421 C 0.59168 0.00935 0.26435 0.0
C2422 C 0.61012 0.01626 0.28484 0.0
C2423 C 0.61936 0.03568 0.30272 0.0
H2424 H 0.41253 0.9475 0.73937 0.0
H2425 H 0.37377 0.96747 0.68355 0.0
H2426 H 0.43034 0.98119 0.77163 0.0
H2427 H 0.39128 1.00091 0.71643 0.0
H2428 H 0.4137 0.04703 0.8173 0.0
H2429 H 0.39519 0.01357 0.78453 0.0
H2430 H 0.45462 0.0206 0.75079 0.0
H2431 H 0.47318 0.05426 0.78279 0.0
C2432 C 0.40762 0.95895 0.73434 0.0
C2433 C 0.39171 0.95478 0.70893 0.0
C2434 C 0.41792 0.97829 0.7526 0.0
C2435 C 0.41224 0.99371 0.74644 0.0
C2436 C 0.39594 0.98931 0.72181 0.0
C2437 C 0.38595 0.97017 0.70297 0.0
C2438 C 0.42282 0.04156 0.80255 0.0
C2439 C 0.44493 0.0534 0.80252 0.0
C2440 C 0.41221 0.0224 0.78381 0.0
C2441 C 0.42346 0.01441 0.76531 0.0
C2442 C 0.44555 0.02629 0.76507 0.0
C2443 C 0.45615 0.04565 0.78315 0.0
H2444 H 0.03976 0.40633 0.6772 0.0
H2445 H 0.06149 0.46381 0.73805 0.0
H2446 H 0.00644 0.3904 0.71039 0.0
H2447 H 0.02787 0.44795 0.77064 0.0
H2448 H 0.95464 0.4187 0.78226 0.0
H2449 H 0.9882 0.43399 0.74985 0.0
H2450 H 0.99445 0.38049 0.77915 0.0
H2451 H 0.96113 0.36537 0.81237 0.0
C2452 C 0.03745 0.41554 0.69775 0.0
C2453 C 0.0533 0.43632 0.70508 0.0
C2454 C 0.01839 0.40639 0.71677 0.0
C2455 C 0.01454 0.41797 0.74295 0.0
C2456 C 0.03038 0.43872 0.75041 0.0
C2457 C 0.04966 0.44773 0.73196 0.0
C2458 C 0.96306 0.41009 0.78154 0.0
C2459 C 0.95515 0.39077 0.79979 0.0
C2460 C 0.98236 0.41895 0.76325 0.0
C2461 C 0.99397 0.40847 0.76214 0.0
C2462 C 0.98581 0.38888 0.77951 0.0
C2463 C 0.96674 0.38024 0.79849 0.0
H2464 H 0.58862 0.53604 0.77893 0.0
H2465 H 0.64104 0.59568 0.81229 0.0
H2466 H 0.57339 0.55451 0.74681 0.0
H2467 H 0.62603 0.61406 0.77932 0.0
H2468 H 0.60096 0.63423 0.6768 0.0
H2469 H 0.61673 0.61651 0.70954 0.0
H2470 H 0.55903 0.58012 0.76919 0.0
H2471 H 0.54334 0.59824 0.73716 0.0
C2472 C 0.59705 0.55307 0.77896 0.0
C2473 C 0.61609 0.56439 0.79804 0.0
C2474 C 0.58823 0.56362 0.76085 0.0
C2475 C 0.5985 0.5857 0.76072 0.0
C2476 C 0.61781 0.59704 0.77893 0.0
C2477 C 0.62639 0.5865 0.79776 0.0
C2478 C 0.59169 0.62258 0.69713 0.0
C2479 C 0.57092 0.61769 0.7045 0.0
C2480 C 0.60074 0.61248 0.71586 0.0
C2481 C 0.58907 0.59689 0.74174 0.0
C2482 C 0.56832 0.592 0.74919 0.0
C2483 C 0.55942 0.60247 0.73107 0.0
H2484 H 0.18712 0.02606 0.97758 0.0
H2485 H 0.24756 0.03581 0.01258 0.0
H2486 H 0.19505 0.05935 1.00366 0.0
H2487 H 0.25554 0.06976 0.0392 0.0
H2488 H 0.26592 0.13992 0.03839 0.0
H2489 H 0.26187 0.1059 0.0206 0.0
H2490 H 0.19886 0.07446 0.06419 0.0
H2491 H 0.20273 0.10818 0.08133 0.0
C2492 C 0.20213 0.03521 0.99104 0.0
C2493 C 0.2166 0.02797 0.99319 0.0
C2494 C 0.20662 0.05438 0.00627 0.0
C2495 C 0.22578 0.06712 0.02414 0.0
C2496 C 0.24059 0.06027 0.02572 0.0
C2497 C 0.236 0.04082 0.01054 0.0
C2498 C 0.25139 0.1257 0.0449 0.0
C2499 C 0.23454 0.12682 0.06083 0.0
C2500 C 0.24908 0.1062 0.03471 0.0
C2501 C 0.22989 0.08748 0.04029 0.0
C2502 C 0.21368 0.08859 0.05867 0.0
C2503 C 0.21594 0.10796 0.06869 0.0
H2504 H 0.99371 0.19312 0.04737 0.0
H2505 H 0.96261 0.19478 0.9493 0.0
H2506 H 0.95993 0.1668 0.073 0.0
H2507 H 0.92866 0.16853 0.97482 0.0
H2508 H 0.86863 0.1297 0.04032 0.0
H2509 H 0.90195 0.16067 0.02323 0.0
H2510 H 0.93545 0.12954 0.05913 0.0
H2511 H 0.90234 0.09876 0.07628 0.0
C2512 C 0.97956 0.188 0.03153 0.0
C2513 C 0.98068 0.1959 0.99644 0.0
C2514 C 0.96023 0.17291 0.04612 0.0
C2515 C 0.94157 0.16543 0.02591 0.0
C2516 C 0.94266 0.1741 0.9913 0.0
C2517 C 0.96207 0.18912 0.97664 0.0
C2518 C 0.88314 0.12963 0.04524 0.0
C2519 C 0.88278 0.1117 0.05964 0.0
C2520 C 0.90222 0.14732 0.03513 0.0
C2521 C 0.92138 0.14758 0.03963 0.0
C2522 C 0.92104 0.13 0.05557 0.0
C2523 C 0.902 0.11228 0.0653 0.0
H2524 H 0.8266 0.81702 0.04395 0.0
H2525 H 0.81252 0.77051 0.96094 0.0
H2526 H 0.85373 0.81062 0.06846 0.0
H2527 H 0.83978 0.76395 0.98533 0.0
H2528 H 0.88314 0.74869 0.05243 0.0
H2529 H 0.85205 0.7511 0.03644 0.0
H2530 H 0.88826 0.81861 0.04813 0.0
H2531 H 0.91904 0.8162 0.06447 0.0
C2532 C 0.8293 0.80538 0.03101 0.0
C2533 C 0.81766 0.79448 1.0003 0.0
C2534 C 0.84485 0.80167 0.04504 0.0
C2535 C 0.84922 0.78698 0.0286 0.0
C2536 C 0.83678 0.77528 0.99887 0.0
C2537 C 0.82115 0.77901 0.98485 0.0
C2538 C 0.88436 0.764 0.05218 0.0
C2539 C 0.90365 0.78225 0.05975 0.0
C2540 C 0.86657 0.7654 0.04267 0.0
C2541 C 0.8676 0.78504 0.04089 0.0
C2542 C 0.88674 0.80317 0.04962 0.0
C2543 C 0.90449 0.8018 0.05884 0.0
H2544 H 0.13707 0.25804 0.46595 0.0
H2545 H 0.10719 0.1921 0.43858 0.0
H2546 H 0.10302 0.25339 0.48469 0.0
H2547 H 0.07331 0.18759 0.45642 0.0
H2548 H 0.02461 0.17986 0.53942 0.0
H2549 H 0.05784 0.18685 0.51408 0.0
H2550 H 0.06706 0.24497 0.46809 0.0
H2551 H 0.03347 0.23808 0.49426 0.0
C2552 C 0.1232 0.24267 0.46315 0.0
C2553 C 0.12494 0.22539 0.45116 0.0
C2554 C 0.10365 0.24001 0.47387 0.0
C2555 C 0.08543 0.22003 0.47275 0.0
C2556 C 0.08706 0.20309 0.4586 0.0
C2557 C 0.10652 0.20571 0.4481 0.0
C2558 C 0.03356 0.19415 0.52387 0.0
C2559 C 0.02614 0.20832 0.51877 0.0
C2560 C 0.05267 0.19809 0.50902 0.0
C2561 C 0.06508 0.21633 0.48848 0.0
C2562 C 0.05793 0.23077 0.48379 0.0
C2563 C 0.03864 0.22679 0.49871 0.0
H2564 H 0.76666 0.7958 0.49382 0.0
H2565 H 0.82482 0.84493 0.53946 0.0
H2566 H 0.76031 0.82267 0.46663 0.0
H2567 H 0.81835 0.87129 0.51328 0.0
H2568 H 0.81412 0.91599 0.43812 0.0
H2569 H 0.81826 0.8864 0.45618 0.0
H2570 H 0.75203 0.85031 0.48145 0.0
H2571 H 0.74778 0.87986 0.46234 0.0
C2572 C 0.77804 0.81224 0.49818 0.0
C2573 C 0.79633 0.81808 0.51869 0.0
C2574 C 0.77438 0.82766 0.48266 0.0
C2575 C 0.78897 0.84923 0.48723 0.0
C2576 C 0.80701 0.85492 0.50823 0.0
C2577 C 0.81064 0.83966 0.5236 0.0
C2578 C 0.80034 0.90165 0.44698 0.0
C2579 C 0.78065 0.90044 0.44907 0.0
C2580 C 0.80274 0.88468 0.45764 0.0
C2581 C 0.78557 0.86603 0.47108 0.0
C2582 C 0.76561 0.86435 0.47121 0.0
C2583 C 0.76318 0.88135 0.46027 0.0
H2584 H 0.09305 0.89705 0.43287 0.0
H2585 H 0.12724 0.86649 0.4682 0.0
H2586 H 0.12235 0.93091 0.45096 0.0
H2587 H 0.15664 0.90061 0.48687 0.0
H2588 H 0.2111 0.97093 0.49492 0.0
H2589 H 0.18503 0.93701 0.46873 0.0
H2590 H 0.13507 0.94572 0.51105 0.0
H2591 H 0.16064 0.97915 0.53673 0.0
C2592 C 0.10694 0.89756 0.44409 0.0
C2593 C 0.10765 0.87897 0.44947 0.0
C2594 C 0.12372 0.91701 0.45467 0.0
C2595 C 0.14169 0.91845 0.4711 0.0
C2596 C 0.14304 0.90006 0.47432 0.0
C2597 C 0.12618 0.8805 0.4636 0.0
C2598 C 0.19454 0.96556 0.49862 0.0
C2599 C 0.18807 0.97799 0.51768 0.0
C2600 C 0.17962 0.94611 0.48368 0.0
C2601 C 0.15795 0.93879 0.48726 0.0
C2602 C 0.1516 0.95106 0.50692 0.0
C2603 C 0.16637 0.97029 0.5219 0.0
H2604 H 0.82625 0.98415 0.03369 0.0
H2605 H 0.76671 0.97485 0.9944 0.0
H2606 H 0.81901 0.95123 0.00688 0.0
H2607 H 0.75949 0.94139 0.96684 0.0
H2608 H 0.74803 0.87139 0.96562 0.0
H2609 H 0.75224 0.90537 0.9836 0.0
H2610 H 0.81683 0.93622 0.94762 0.0
H2611 H 0.81279 0.90241 0.93042 0.0
C2612 C 0.8116 0.97517 0.01911 0.0
C2613 C 0.79714 0.9824 0.01608 0.0
C2614 C 0.80752 0.95624 1.0034 0.0
C2615 C 0.78883 0.94376 0.98409 0.0
C2616 C 0.77407 0.95065 0.98148 0.0
C2617 C 0.77822 0.96983 0.99722 0.0
C2618 C 0.763 0.88548 0.96082 0.0
C2619 C 0.78017 0.88411 0.94704 0.0
C2620 C 0.7654 0.90498 0.97113 0.0
C2621 C 0.785 0.9235 0.96778 0.0
C2622 C 0.80166 0.92222 0.95148 0.0
C2623 C 0.79931 0.90281 0.94138 0.0
H2624 H 0.10993 0.9116 0.9334 0.0
H2625 H 0.14285 0.88065 0.97328 0.0
H2626 H 0.07648 0.88102 0.95019 0.0
H2627 H 0.10924 0.85 0.99025 0.0
H2628 H 0.04751 0.81735 0.06251 0.0
H2629 H 0.08184 0.84354 0.03796 0.0
H2630 H 0.05232 0.84294 0.93622 0.0
H2631 H 0.01815 0.81658 0.96081 0.0
C2632 C 0.11002 0.89813 0.9452 0.0
C2633 C 0.12912 0.89861 0.95197 0.0
C2634 C 0.09081 0.88055 0.95474 0.0
C2635 C 0.09018 0.86309 0.97171 0.0
C2636 C 0.10921 0.86327 0.97748 0.0
C2637 C 0.12846 0.88077 0.96745 0.0
C2638 C 0.04854 0.82252 0.03465 0.0
C2639 C 0.03033 0.81499 0.01342 0.0
C2640 C 0.06814 0.83747 0.02056 0.0
C2641 C 0.06981 0.84541 0.98515 0.0
C2642 C 0.05155 0.83731 0.96366 0.0
C2643 C 0.03203 0.82219 0.97763 0.0
H2644 H 0.162 0.18249 0.03599 0.0
H2645 H 0.21159 0.24148 0.99368 0.0
H2646 H 0.13591 0.18974 0.01079 0.0
H2647 H 0.18504 0.24864 0.96764 0.0
H2648 H 0.12802 0.26163 0.96627 0.0
H2649 H 0.15736 0.25675 0.98447 0.0
H2650 H 0.12149 0.19137 0.95341 0.0
H2651 H 0.09217 0.19611 0.93611 0.0
C2652 C 0.16743 0.19701 0.02107 0.0
C2653 C 0.18905 0.21132 0.01676 0.0
C2654 C 0.15234 0.2011 0.0063 0.0
C2655 C 0.15827 0.21964 0.98662 0.0
C2656 C 0.17988 0.2342 0.98266 0.0
C2657 C 0.19511 0.23007 0.9975 0.0
C2658 C 0.12656 0.24631 0.9627 0.0
C2659 C 0.10761 0.22921 0.9501 0.0
C2660 C 0.14341 0.24352 0.97314 0.0
C2661 C 0.14169 0.22356 0.97111 0.0
C2662 C 0.12321 0.20684 0.9563 0.0
C2663 C 0.10641 0.20959 0.9461 0.0
H2664 H 0.97979 0.81863 0.47326 0.0
H2665 H 0.97162 0.75958 0.51297 0.0
H2666 H 0.94656 0.8107 0.49973 0.0
H2667 H 0.93772 0.75159 0.5398 0.0
H2668 H 0.89918 0.80431 0.58006 0.0
H2669 H 0.9327 0.80809 0.56171 0.0
H2670 H 0.90091 0.74445 0.52103 0.0
H2671 H 0.86706 0.74051 0.53983 0.0
C2672 C 0.97098 0.80392 0.48777 0.0
C2673 C 0.97868 0.78987 0.49126 0.0
C2674 C 0.95185 0.79943 0.50318 0.0
C2675 C 0.93962 0.78069 0.52248 0.0
C2676 C 0.94685 0.76622 0.5252 0.0
C2677 C 0.96627 0.77081 0.50989 0.0
C2678 C 0.89927 0.79095 0.56778 0.0
C2679 C 0.88035 0.77219 0.561 0.0
C2680 C 0.91852 0.79316 0.5571 0.0
C2681 C 0.91945 0.77672 0.53921 0.0
C2682 C 0.90072 0.75741 0.53472 0.0
C2683 C 0.88133 0.75516 0.54551 0.0
H2684 H 0.23004 0.18679 0.44403 0.0
H2685 H 0.2078 0.19358 0.5486 0.0
H2686 H 0.23763 0.16036 0.46929 0.0
H2687 H 0.21489 0.1668 0.57388 0.0
H2688 H 0.20002 0.0961 0.57884 0.0
H2689 H 0.19799 0.12715 0.56143 0.0
H2690 H 0.26067 0.15546 0.517 0.0
H2691 H 0.26288 0.12451 0.53488 0.0
C2692 C 0.2272 0.18288 0.47261 0.0
C2693 C 0.21856 0.19226 0.49455 0.0
C2694 C 0.23152 0.16779 0.48708 0.0
C2695 C 0.22683 0.16148 0.52358 0.0
C2696 C 0.21859 0.17127 0.54565 0.0
C2697 C 0.21463 0.18663 0.5313 0.0
C2698 C 0.21354 0.10911 0.56601 0.0
C2699 C 0.23162 0.10782 0.55832 0.0
C2700 C 0.21239 0.12692 0.5561 0.0
C2701 C 0.22914 0.14372 0.5377 0.0
C2702 C 0.24747 0.14272 0.53096 0.0
C2703 C 0.24878 0.12505 0.54148 0.0
H2704 H 0.9086 0.10463 0.57643 0.0
H2705 H 0.87816 0.13875 0.54021 0.0
H2706 H 0.87771 0.07167 0.55933 0.0
H2707 H 0.84698 0.10554 0.52336 0.0
H2708 H 0.81182 0.04467 0.45024 0.0
H2709 H 0.83804 0.07864 0.47574 0.0
H2710 H 0.84094 0.04722 0.57289 0.0
H2711 H 0.81478 0.01343 0.54717 0.0
C2712 C 0.89517 0.1051 0.56539 0.0
C2713 C 0.89595 0.12441 0.55965 0.0
C2714 C 0.87735 0.08612 0.55572 0.0
C2715 C 0.85981 0.08589 0.53981 0.0
C2716 C 0.86028 0.10515 0.5352 0.0
C2717 C 0.87809 0.12418 0.54519 0.0
C2718 C 0.81771 0.04518 0.4774 0.0
C2719 C 0.81134 0.02651 0.4968 0.0
C2720 C 0.83273 0.06461 0.49205 0.0
C2721 C 0.84179 0.06569 0.52629 0.0
C2722 C 0.83459 0.04697 0.54624 0.0
C2723 C 0.81956 0.02762 0.53162 0.0
H2724 H 0.92757 0.46764 0.38332 0.0
H2725 H 0.86107 0.43669 0.40677 0.0
H2726 H 0.92369 0.43402 0.36358 0.0
H2727 H 0.85732 0.4033 0.38768 0.0
H2728 H 0.85197 0.35732 0.30117 0.0
H2729 H 0.85871 0.3902 0.32768 0.0
H2730 H 0.9144 0.39702 0.37999 0.0
H2731 H 0.9077 0.36364 0.3529 0.0
C2732 C 0.91223 0.45363 0.38504 0.0
C2733 C 0.89457 0.45495 0.39616 0.0
C2734 C 0.91002 0.43435 0.37374 0.0
C2735 C 0.89012 0.41603 0.37335 0.0
C2736 C 0.87279 0.41719 0.38675 0.0
C2737 C 0.87497 0.43636 0.3979 0.0
C2738 C 0.86569 0.36566 0.31832 0.0
C2739 C 0.87917 0.35757 0.3251 0.0
C2740 C 0.86947 0.38456 0.33379 0.0
C2741 C 0.88688 0.39611 0.35655 0.0
C2742 C 0.9008 0.38847 0.36264 0.0
C2743 C 0.89695 0.36934 0.34716 0.0
H2744 H 0.64537 0.55058 0.34578 0.0
H2745 H 0.65337 0.49979 0.30503 0.0
H2746 H 0.61214 0.52466 0.37448 0.0
H2747 H 0.62074 0.47446 0.3331 0.0
H2748 H 0.57367 0.43292 0.4133 0.0
H2749 H 0.60709 0.46241 0.39386 0.0
H2750 H 0.57553 0.49563 0.35884 0.0
H2751 H 0.5419 0.46609 0.37893 0.0
C2752 C 0.64011 0.534 0.34285 0.0
C2753 C 0.65227 0.5274 0.32329 0.0
C2754 C 0.62107 0.51916 0.35925 0.0
C2755 C 0.61393 0.49746 0.35666 0.0
C2756 C 0.62595 0.491 0.33655 0.0
C2757 C 0.64473 0.50567 0.32015 0.0
C2758 C 0.57382 0.44662 0.40202 0.0
C2759 C 0.555 0.44696 0.39728 0.0
C2760 C 0.59301 0.46352 0.39067 0.0
C2761 C 0.59397 0.48124 0.37405 0.0
C2762 C 0.57537 0.48225 0.37152 0.0
C2763 C 0.55608 0.46528 0.38303 0.0
H2764 H 0.49186 0.14992 0.37673 0.0
H2765 H 0.47793 0.10479 0.29126 0.0
H2766 H 0.51844 0.14258 0.40094 0.0
H2767 H 0.50463 0.09726 0.31538 0.0
H2768 H 0.54696 0.08017 0.38159 0.0
H2769 H 0.5162 0.08327 0.36604 0.0
H2770 H 0.55306 0.15055 0.3805 0.0
H2771 H 0.58353 0.14746 0.39635 0.0
C2772 C 0.49443 0.13832 0.36327 0.0
C2773 C 0.48302 0.12809 0.33196 0.0
C2774 C 0.50968 0.13409 0.3771 0.0
C2775 C 0.51395 0.11954 0.35985 0.0
C2776 C 0.50169 0.10846 0.32952 0.0
C2777 C 0.48638 0.11273 0.31567 0.0
C2778 C 0.54839 0.09558 0.38204 0.0
C2779 C 0.56778 0.11357 0.39024 0.0
C2780 C 0.53079 0.09737 0.37279 0.0
C2781 C 0.5321 0.11716 0.37191 0.0
C2782 C 0.55132 0.13502 0.3813 0.0
C2783 C 0.5689 0.13326 0.39024 0.0
H2784 H 0.7751 0.52513 0.77796 0.0
H2785 H 0.80676 0.59257 0.79119 0.0
H2786 H 0.74188 0.52271 0.79375 0.0
H2787 H 0.77317 0.59018 0.80635 0.0
H2788 H 0.71395 0.57104 0.88042 0.0
H2789 H 0.74786 0.57762 0.85637 0.0
H2790 H 0.71536 0.53033 0.774 0.0
H2791 H 0.68179 0.52382 0.79836 0.0
C2792 C 0.77495 0.53952 0.78367 0.0
C2793 C 0.79369 0.55904 0.78339 0.0
C2794 C 0.75579 0.53814 0.79256 0.0
C2795 C 0.75475 0.55625 0.80144 0.0
C2796 C 0.7734 0.57589 0.80007 0.0
C2797 C 0.79263 0.57728 0.79101 0.0
C2798 C 0.71417 0.56236 0.85683 0.0
C2799 C 0.69527 0.54664 0.84163 0.0
C2800 C 0.73357 0.56612 0.84296 0.0
C2801 C 0.7344 0.55427 0.81353 0.0
C2802 C 0.71538 0.53938 0.79725 0.0
C2803 C 0.69609 0.53559 0.81121 0.0
H2804 H 0.43701 0.13109 0.82636 0.0
H2805 H 0.49404 0.18021 0.87519 0.0
H2806 H 0.43038 0.15793 0.79991 0.0
H2807 H 0.48732 0.20655 0.84949 0.0
H2808 H 0.48349 0.2512 0.77323 0.0
H2809 H 0.48774 0.22172 0.79146 0.0
H2810 H 0.42146 0.18531 0.81601 0.0
H2811 H 0.41709 0.21484 0.79698 0.0
C2812 C 0.44808 0.14752 0.83159 0.0
C2813 C 0.46616 0.15338 0.85272 0.0
C2814 C 0.44426 0.16291 0.81648 0.0
C2815 C 0.45848 0.18447 0.82204 0.0
C2816 C 0.47628 0.19018 0.84374 0.0
C2817 C 0.48006 0.17494 0.85879 0.0
C2818 C 0.46972 0.23683 0.782 0.0
C2819 C 0.44999 0.23554 0.78397 0.0
C2820 C 0.47219 0.21992 0.79273 0.0
C2821 C 0.45503 0.20122 0.80598 0.0
C2822 C 0.43502 0.19943 0.80594 0.0
C2823 C 0.43253 0.2164 0.79503 0.0
H2824 H 0.79596 0.19916 0.79693 0.0
H2825 H 0.76193 0.23018 0.76322 0.0
H2826 H 0.82534 0.23305 0.81663 0.0
H2827 H 0.79117 0.2638 0.78248 0.0
H2828 H 0.82902 0.31064 0.87057 0.0
H2829 H 0.80361 0.2775 0.84374 0.0
H2830 H 0.85381 0.26997 0.7991 0.0
H2831 H 0.87974 0.30365 0.8263 0.0
C2832 C 0.79492 0.21322 0.7929 0.0
C2833 C 0.77643 0.21187 0.77893 0.0
C2834 C 0.81177 0.23265 0.80422 0.0
C2835 C 0.81044 0.25107 0.8018 0.0
C2836 C 0.79253 0.24985 0.78554 0.0
C2837 C 0.77578 0.23054 0.7743 0.0
C2838 C 0.83485 0.3021 0.85499 0.0
C2839 C 0.85657 0.31009 0.85036 0.0
C2840 C 0.82016 0.28305 0.83937 0.0
C2841 C 0.82662 0.2712 0.8187 0.0
C2842 C 0.84832 0.27875 0.81479 0.0
C2843 C 0.86316 0.29806 0.83033 0.0
H2844 H 0.41806 0.20925 0.2921 0.0
H2845 H 0.48453 0.23965 0.2687 0.0
H2846 H 0.4223 0.24288 0.31248 0.0
H2847 H 0.48865 0.27311 0.28853 0.0
H2848 H 0.4943 0.31842 0.37698 0.0
H2849 H 0.48743 0.28589 0.34886 0.0
H2850 H 0.43189 0.28007 0.29765 0.0
H2851 H 0.43876 0.31315 0.32633 0.0
C2852 C 0.43348 0.22316 0.29046 0.0
C2853 C 0.45101 0.22163 0.27921 0.0
C2854 C 0.43589 0.24246 0.30216 0.0
C2855 C 0.45589 0.26064 0.30286 0.0
C2856 C 0.47311 0.25933 0.28923 0.0
C2857 C 0.47071 0.24012 0.27763 0.0
C2858 C 0.48058 0.31038 0.35973 0.0
C2859 C 0.46719 0.31868 0.35379 0.0
C2860 C 0.47674 0.29168 0.34331 0.0
C2861 C 0.45933 0.28049 0.32039 0.0
C2862 C 0.44549 0.28834 0.31508 0.0
C2863 C 0.44943 0.30729 0.33151 0.0
H2864 H 0.77372 0.24138 0.26399 0.0
H2865 H 0.80665 0.21034 0.30339 0.0
H2866 H 0.74028 0.21076 0.2805 0.0
H2867 H 0.77304 0.17959 0.31996 0.0
H2868 H 0.71133 0.1465 0.39199 0.0
H2869 H 0.74568 0.17257 0.36742 0.0
H2870 H 0.71599 0.17307 0.26647 0.0
H2871 H 0.68181 0.14689 0.29114 0.0
C2872 C 0.77382 0.22788 0.27561 0.0
C2873 C 0.79291 0.22836 0.28237 0.0
C2874 C 0.75461 0.21026 0.28498 0.0
C2875 C 0.75396 0.19273 0.30171 0.0
C2876 C 0.773 0.19291 0.3074 0.0
C2877 C 0.79225 0.21047 0.2976 0.0
C2878 C 0.71233 0.15186 0.36427 0.0
C2879 C 0.69406 0.14473 0.34333 0.0
C2880 C 0.73194 0.16676 0.35017 0.0
C2881 C 0.73358 0.175 0.31501 0.0
C2882 C 0.71527 0.16723 0.29375 0.0
C2883 C 0.69572 0.15221 0.30776 0.0
H2884 H 0.88275 0.57644 0.33149 0.0
H2885 H 0.83038 0.51921 0.37358 0.0
H2886 H 0.85782 0.58546 0.30355 0.0
H2887 H 0.80604 0.52813 0.34601 0.0
H2888 H 0.80028 0.59966 0.30058 0.0
H2889 H 0.82921 0.59451 0.32081 0.0
H2890 H 0.7951 0.53023 0.28345 0.0
H2891 H 0.76633 0.53523 0.26361 0.0
C2892 C 0.86604 0.56584 0.33492 0.0
C2893 C 0.85869 0.54696 0.35452 0.0
C2894 C 0.85178 0.57101 0.31894 0.0
C2895 C 0.82993 0.55731 0.32196 0.0
C2896 C 0.82273 0.5388 0.34231 0.0
C2897 C 0.83681 0.53374 0.35836 0.0
C2898 C 0.79918 0.58458 0.29593 0.0
C2899 C 0.7808 0.56777 0.28092 0.0
C2900 C 0.81578 0.58164 0.30755 0.0
C2901 C 0.81428 0.56184 0.30441 0.0
C2902 C 0.79656 0.54555 0.28704 0.0
C2903 C 0.78007 0.54846 0.27549 0.0
H2904 H 0.64928 0.15289 0.80476 0.0
H2905 H 0.64072 0.09374 0.84476 0.0
H2906 H 0.61667 0.14573 0.83266 0.0
H2907 H 0.60741 0.08654 0.8732 0.0
H2908 H 0.57017 0.14071 0.91329 0.0
H2909 H 0.60337 0.14393 0.89431 0.0
H2910 H 0.57069 0.07969 0.8565 0.0
H2911 H 0.53723 0.0763 0.87608 0.0
C2912 C 0.64052 0.13832 0.81967 0.0
C2913 C 0.64793 0.124 0.82271 0.0
C2914 C 0.62175 0.13428 0.83595 0.0
C2915 C 0.60956 0.11575 0.8558 0.0
C2916 C 0.61651 0.10103 0.85821 0.0
C2917 C 0.63558 0.10516 0.84196 0.0
C2918 C 0.57001 0.12711 0.90153 0.0
C2919 C 0.55094 0.10833 0.89579 0.0
C2920 C 0.58908 0.12899 0.89046 0.0
C2921 C 0.58967 0.1122 0.87316 0.0
C2922 C 0.5708 0.09292 0.86973 0.0
C2923 C 0.55161 0.09099 0.88095 0.0
H2924 H 0.90472 0.52509 0.78831 0.0
H2925 H 0.8688 0.52045 0.88384 0.0
H2926 H 0.91187 0.49828 0.8131 0.0
H2927 H 0.87571 0.49362 0.90871 0.0
H2928 H 0.86552 0.4258 0.9087 0.0
H2929 H 0.86353 0.45686 0.89225 0.0
H2930 H 0.92916 0.48898 0.8623 0.0
H2931 H 0.93116 0.45771 0.87866 0.0
C2932 C 0.89877 0.51865 0.81497 0.0
C2933 C 0.88617 0.52471 0.83418 0.0
C2934 C 0.90284 0.5033 0.82921 0.0
C2935 C 0.8942 0.49363 0.86279 0.0
C2936 C 0.88233 0.50047 0.88255 0.0
C2937 C 0.87838 0.51585 0.86839 0.0
C2938 C 0.87964 0.43957 0.89914 0.0
C2939 C 0.89849 0.4392 0.89498 0.0
C2940 C 0.87852 0.45745 0.88982 0.0
C2941 C 0.89617 0.47544 0.87581 0.0
C2942 C 0.91523 0.47533 0.8727 0.0
C2943 C 0.91641 0.45746 0.8824 0.0
H2944 H 0.54968 0.47325 0.8773 0.0
H2945 H 0.58034 0.43899 0.91159 0.0
H2946 H 0.51847 0.44015 0.86021 0.0
H2947 H 0.54917 0.406 0.8947 0.0
H2948 H 0.48421 0.34843 0.88398 0.0
H2949 H 0.51109 0.38202 0.9096 0.0
H2950 H 0.5111 0.41347 0.81053 0.0
H2951 H 0.48441 0.37969 0.78489 0.0
C2952 C 0.54962 0.45865 0.88196 0.0
C2953 C 0.56755 0.4588 0.89584 0.0
C2954 C 0.53179 0.4397 0.87183 0.0
C2955 C 0.53135 0.42044 0.87591 0.0
C2956 C 0.5489 0.42053 0.89145 0.0
C2957 C 0.56681 0.43946 0.90107 0.0
C2958 C 0.4898 0.3626 0.86797 0.0
C2959 C 0.4823 0.36159 0.83259 0.0
C2960 C 0.50522 0.3818 0.88254 0.0
C2961 C 0.51332 0.40043 0.86207 0.0
C2962 C 0.50505 0.39947 0.82715 0.0
C2963 C 0.48979 0.38019 0.81245 0.0
H2964 H 0.57057 0.71355 0.61612 0.0
H2965 H 0.53789 0.68268 0.71437 0.0
H2966 H 0.57794 0.74752 0.64115 0.0
H2967 H 0.54489 0.71646 0.7394 0.0
H2968 H 0.53412 0.774 0.74132 0.0
H2969 H 0.53182 0.74086 0.72427 0.0
H2970 H 0.59675 0.77427 0.69017 0.0
H2971 H 0.5991 0.80759 0.70729 0.0
C2972 C 0.56536 0.71414 0.64337 0.0
C2973 C 0.55365 0.69558 0.66336 0.0
C2974 C 0.56954 0.73355 0.65774 0.0
C2975 C 0.56187 0.7347 0.69222 0.0
C2976 C 0.55078 0.71611 0.7126 0.0
C2977 C 0.54678 0.69678 0.69834 0.0
C2978 C 0.54803 0.7743 0.73075 0.0
C2979 C 0.56679 0.7935 0.72568 0.0
C2980 C 0.54673 0.75526 0.72107 0.0
C2981 C 0.56408 0.75489 0.7057 0.0
C2982 C 0.58305 0.77402 0.70165 0.0
C2983 C 0.58444 0.7931 0.71177 0.0
H2984 H 0.2353 0.75978 0.74426 0.0
H2985 H 0.20409 0.79308 0.7076 0.0
H2986 H 0.26913 0.78977 0.72802 0.0
H2987 H 0.23815 0.82312 0.69057 0.0
H2988 H 0.30752 0.87877 0.68347 0.0
H2989 H 0.27373 0.85201 0.70916 0.0
H2990 H 0.28509 0.80321 0.66958 0.0
H2991 H 0.31837 0.82943 0.64459 0.0
C2992 C 0.23566 0.77361 0.73312 0.0
C2993 C 0.21691 0.77388 0.72686 0.0
C2994 C 0.25509 0.7908 0.72358 0.0
C2995 C 0.25637 0.80873 0.70724 0.0
C2996 C 0.23776 0.80959 0.70311 0.0
C2997 C 0.21822 0.79235 0.71286 0.0
C2998 C 0.30278 0.86232 0.68039 0.0
C2999 C 0.31588 0.85637 0.66219 0.0
C3000 C 0.2834 0.84699 0.69502 0.0
C3001 C 0.2768 0.82543 0.69196 0.0
C3002 C 0.28982 0.81963 0.67335 0.0
C3003 C 0.30898 0.83479 0.65873 0.0
H3004 H 0.21562 0.41081 0.71358 0.0
H3005 H 0.24846 0.47719 0.73836 0.0
H3006 H 0.18433 0.41271 0.69719 0.0
H3007 H 0.21742 0.47912 0.72166 0.0
H3008 H 0.15429 0.47471 0.7126 0.0
H3009 H 0.18136 0.46842 0.73808 0.0
H3010 H 0.17404 0.42811 0.64719 0.0
H3011 H 0.14695 0.43461 0.62182 0.0
C3012 C 0.21607 0.42573 0.71616 0.0
C3013 C 0.23462 0.44386 0.72725 0.0
C3014 C 0.19819 0.42685 0.7064 0.0
C3015 C 0.19834 0.44609 0.70787 0.0
C3016 C 0.2166 0.46399 0.7205 0.0
C3017 C 0.23449 0.4629 0.72996 0.0
C3018 C 0.15843 0.46446 0.69821 0.0
C3019 C 0.14869 0.4553 0.66513 0.0
C3020 C 0.17393 0.46083 0.71278 0.0
C3021 C 0.18009 0.44792 0.69455 0.0
C3022 C 0.16959 0.43798 0.66217 0.0
C3023 C 0.15406 0.44167 0.64758 0.0
H3024 H 0.36738 0.90984 0.16478 0.0
H3025 H 0.35638 0.84938 0.20233 0.0
H3026 H 0.40063 0.91645 0.13719 0.0
H3027 H 0.3891 0.85602 0.17548 0.0
H3028 H 0.43742 0.86158 0.09825 0.0
H3029 H 0.40403 0.85831 0.11611 0.0
H3030 H 0.43635 0.9226 0.1538 0.0
H3031 H 0.46995 0.92604 0.13513 0.0
C3032 C 0.37197 0.89799 0.16719 0.0
C3033 C 0.35899 0.879 0.18558 0.0
C3034 C 0.39104 0.90179 0.15146 0.0
C3035 C 0.39741 0.88662 0.15358 0.0
C3036 C 0.38451 0.86785 0.1724 0.0
C3037 C 0.36568 0.86411 0.18811 0.0
C3038 C 0.43744 0.87517 0.10976 0.0
C3039 C 0.45643 0.894 0.11562 0.0
C3040 C 0.41827 0.87326 0.12023 0.0
C3041 C 0.41751 0.89005 0.13715 0.0
C3042 C 0.43634 0.90936 0.14084 0.0
C3043 C 0.45562 0.91132 0.13015 0.0
H3044 H 0.07903 0.54725 0.13717 0.0
H3045 H 0.14406 0.58215 0.10373 0.0
H3046 H 0.08384 0.51785 0.15542 0.0
H3047 H 0.14872 0.55284 0.1213 0.0
H3048 H 0.15825 0.5129 0.20433 0.0
H3049 H 0.15076 0.53897 0.17965 0.0
H3050 H 0.09167 0.48978 0.13727 0.0
H3051 H 0.09912 0.46325 0.16258 0.0
C3052 C 0.09421 0.5485 0.13295 0.0
C3053 C 0.11122 0.56721 0.11937 0.0
C3054 C 0.09696 0.53162 0.14341 0.0
C3055 C 0.11678 0.53309 0.1405 0.0
C3056 C 0.13337 0.55132 0.12482 0.0
C3057 C 0.13066 0.56813 0.1145 0.0
C3058 C 0.14364 0.50745 0.18968 0.0
C3059 C 0.12939 0.48583 0.18527 0.0
C3060 C 0.13941 0.52252 0.17525 0.0
C3061 C 0.12075 0.51655 0.15592 0.0
C3062 C 0.1062 0.49494 0.15201 0.0
C3063 C 0.11051 0.47973 0.16643 0.0
H3064 H 0.52389 0.62438 0.23106 0.0
H3065 H 0.52571 0.65456 0.12975 0.0
H3066 H 0.49749 0.59036 0.20582 0.0
H3067 H 0.49914 0.62072 0.10447 0.0
H3068 H 0.43035 0.56368 0.09942 0.0
H3069 H 0.46098 0.59683 0.11728 0.0
H3070 H 0.49092 0.56313 0.15792 0.0
H3071 H 0.4602 0.52984 0.13991 0.0
C3072 C 0.5189 0.6236 0.20315 0.0
C3073 C 0.52677 0.64196 0.18224 0.0
C3074 C 0.50381 0.60417 0.18866 0.0
C3075 C 0.49612 0.60283 0.15315 0.0
C3076 C 0.50455 0.62123 0.132 0.0
C3077 C 0.51978 0.64058 0.14638 0.0
C3078 C 0.44359 0.56332 0.11159 0.0
C3079 C 0.44278 0.54406 0.1182 0.0
C3080 C 0.46121 0.58236 0.12174 0.0
C3081 C 0.47838 0.58264 0.13919 0.0
C3082 C 0.47787 0.56344 0.14482 0.0
C3083 C 0.46034 0.54437 0.13419 0.0
H3084 H 0.09932 0.63753 0.6592 0.0
H3085 H 0.15789 0.64571 0.70139 0.0
H3086 H 0.09153 0.60358 0.63306 0.0
H3087 H 0.15011 0.61231 0.6758 0.0
H3088 H 0.14372 0.56335 0.59885 0.0
H3089 H 0.14818 0.5973 0.6161 0.0
H3090 H 0.08348 0.56718 0.65125 0.0
H3091 H 0.07886 0.53297 0.63337 0.0
C3092 C 0.1105 0.63216 0.66297 0.0
C3093 C 0.12934 0.64459 0.68216 0.0
C3094 C 0.10602 0.61269 0.64805 0.0
C3095 C 0.12037 0.60536 0.65177 0.0
C3096 C 0.13893 0.61765 0.67152 0.0
C3097 C 0.14333 0.63687 0.68647 0.0
C3098 C 0.13029 0.56392 0.60968 0.0
C3099 C 0.11099 0.54535 0.6151 0.0
C3100 C 0.1329 0.58342 0.6198 0.0
C3101 C 0.11632 0.58495 0.63582 0.0
C3102 C 0.09657 0.56657 0.639 0.0
C3103 C 0.09393 0.54696 0.62873 0.0
H3104 H 0.38081 0.47629 0.71439 0.0
H3105 H 0.34951 0.49196 0.63161 0.0
H3106 H 0.41497 0.50336 0.69087 0.0
H3107 H 0.38332 0.51868 0.60765 0.0
H3108 H 0.44323 0.58317 0.6115 0.0
H3109 H 0.40986 0.5526 0.6271 0.0
H3110 H 0.44076 0.51617 0.64194 0.0
H3111 H 0.47454 0.5472 0.6271 0.0
C3112 C 0.38127 0.48525 0.69073 0.0
C3113 C 0.36253 0.48233 0.6752 0.0
C3114 C 0.40082 0.50075 0.67716 0.0
C3115 C 0.40198 0.51353 0.64765 0.0
C3116 C 0.38311 0.50961 0.63099 0.0
C3117 C 0.36368 0.49429 0.6447 0.0
C3118 C 0.44298 0.56863 0.6177 0.0
C3119 C 0.46167 0.56775 0.61814 0.0
C3120 C 0.42372 0.55096 0.62647 0.0
C3121 C 0.4225 0.5318 0.63587 0.0
C3122 C 0.44111 0.5307 0.63526 0.0
C3123 C 0.46046 0.54845 0.62638 0.0
H3124 H 0.46396 0.93241 0.64099 0.0
H3125 H 0.43232 0.86992 0.59509 0.0
H3126 H 0.49355 0.9277 0.65855 0.0
H3127 H 0.46182 0.86541 0.61198 0.0
H3128 H 0.49753 0.85179 0.69788 0.0
H3129 H 0.47258 0.86038 0.67201 0.0
H3130 H 0.52323 0.92137 0.63996 0.0
H3131 H 0.54875 0.91274 0.66639 0.0
C3132 C 0.46355 0.91791 0.63376 0.0
C3133 C 0.44562 0.90144 0.61706 0.0
C3134 C 0.48052 0.91522 0.64384 0.0
C3135 C 0.47987 0.89601 0.63735 0.0
C3136 C 0.46262 0.88021 0.61821 0.0
C3137 C 0.44573 0.88285 0.60831 0.0
C3138 C 0.50359 0.86705 0.68522 0.0
C3139 C 0.52533 0.88148 0.68402 0.0
C3140 C 0.48915 0.87193 0.67011 0.0
C3141 C 0.49586 0.89143 0.65331 0.0
C3142 C 0.51755 0.90617 0.65263 0.0
C3143 C 0.53216 0.9012 0.66769 0.0
H3144 H 0.20136 0.40914 0.20408 0.0
H3145 H 0.23359 0.47289 0.24452 0.0
H3146 H 0.23515 0.41296 0.18544 0.0
H3147 H 0.2671 0.47653 0.22653 0.0
H3148 H 0.31499 0.4871 0.13976 0.0
H3149 H 0.28186 0.4796 0.16606 0.0
H3150 H 0.27127 0.41932 0.20326 0.0
H3151 H 0.305 0.42683 0.17639 0.0
C3152 C 0.21565 0.42377 0.20983 0.0
C3153 C 0.21471 0.44081 0.22535 0.0
C3154 C 0.23502 0.42594 0.19915 0.0
C3155 C 0.2538 0.44519 0.20382 0.0
C3156 C 0.2529 0.46165 0.2217 0.0
C3157 C 0.23365 0.45952 0.23222 0.0
C3158 C 0.3058 0.47222 0.1536 0.0
C3159 C 0.31293 0.45767 0.15615 0.0
C3160 C 0.28674 0.46798 0.16896 0.0
C3161 C 0.27401 0.44902 0.18738 0.0
C3162 C 0.28074 0.43412 0.18933 0.0
C3163 C 0.30007 0.43844 0.174 0.0
H3164 H 0.57281 0.8735 0.18272 0.0
H3165 H 0.51435 0.82347 0.13952 0.0
H3166 H 0.58056 0.84716 0.20805 0.0
H3167 H 0.52215 0.79765 0.16414 0.0
H3168 H 0.52872 0.75437 0.23942 0.0
H3169 H 0.52389 0.78367 0.22248 0.0
H3170 H 0.58899 0.81943 0.18985 0.0
H3171 H 0.59398 0.79005 0.20758 0.0
C3172 C 0.56164 0.85698 0.17855 0.0
C3173 C 0.54285 0.85072 0.15931 0.0
C3174 C 0.56612 0.84189 0.19298 0.0
C3175 C 0.55183 0.82024 0.18866 0.0
C3176 C 0.53329 0.81412 0.16889 0.0
C3177 C 0.52888 0.82906 0.15448 0.0
C3178 C 0.54213 0.76856 0.22914 0.0
C3179 C 0.56168 0.76971 0.2245 0.0
C3180 C 0.53932 0.78536 0.21919 0.0
C3181 C 0.55593 0.80379 0.20405 0.0
C3182 C 0.57586 0.8055 0.20144 0.0
C3183 C 0.57871 0.78863 0.21158 0.0
H3184 H 0.12637 0.70329 0.17864 0.0
H3185 H 0.17783 0.69484 0.14334 0.0
H3186 H 0.15183 0.73717 0.2061 0.0
H3187 H 0.20269 0.72806 0.17032 0.0
H3188 H 0.24271 0.77604 0.25023 0.0
H3189 H 0.21324 0.74238 0.23178 0.0
H3190 H 0.1816 0.7738 0.18839 0.0
H3191 H 0.2112 0.80776 0.20741 0.0
C3192 C 0.143 0.70858 0.17668 0.0
C3193 C 0.14992 0.6961 0.15904 0.0
C3194 C 0.15757 0.72799 0.19235 0.0
C3195 C 0.1793 0.73515 0.19099 0.0
C3196 C 0.18609 0.72282 0.17275 0.0
C3197 C 0.1717 0.7037 0.15702 0.0
C3198 C 0.22934 0.77583 0.23737 0.0
C3199 C 0.22949 0.79468 0.22991 0.0
C3200 C 0.21246 0.75649 0.2266 0.0
C3201 C 0.19524 0.75541 0.20789 0.0
C3202 C 0.19462 0.77408 0.20273 0.0
C3203 C 0.21159 0.79355 0.21365 0.0
H3204 H 0.21308 0.16709 0.17975 0.0
H3205 H 0.20891 0.22228 0.15408 0.0
H3206 H 0.20645 0.17076 0.24394 0.0
H3207 H 0.20167 0.22548 0.2179 0.0
H3208 H 0.16729 0.20761 0.33156 0.0
H3209 H 0.17116 0.20106 0.26739 0.0
H3210 H 0.22934 0.20267 0.29215 0.0
H3211 H 0.2259 0.20984 0.35591 0.0
C3212 C 0.21046 0.1798 0.1877 0.0
C3213 C 0.21155 0.1944 0.16183 0.0
C3214 C 0.20675 0.18194 0.22441 0.0
C3215 C 0.20349 0.19837 0.23581 0.0
C3216 C 0.20398 0.21259 0.20981 0.0
C3217 C 0.20821 0.21079 0.17332 0.0
C3218 C 0.18082 0.20641 0.32333 0.0
C3219 C 0.1963 0.20927 0.3488 0.0
C3220 C 0.18306 0.20275 0.28664 0.0
C3221 C 0.20052 0.2013 0.27489 0.0
C3222 C 0.21567 0.20356 0.30052 0.0
C3223 C 0.21372 0.20776 0.33696 0.0
H3224 H 0.849 0.03658 0.17227 0.0
H3225 H 0.78127 1.00202 0.16212 0.0
H3226 H 0.84561 0.02579 0.23634 0.0
H3227 H 0.77811 0.99188 0.22543 0.0
H3228 H 0.7809 0.00558 0.34669 0.0
H3229 H 0.78834 0.01594 0.28361 0.0
H3230 H 0.82863 0.98897 0.27726 0.0
H3231 H 0.82083 0.97794 0.34121 0.0
C3232 C 0.83345 0.0267 0.1835 0.0
C3233 C 0.81542 0.02052 0.16195 0.0
C3234 C 0.83154 0.02045 0.2201 0.0
C3235 C 0.81158 0.00816 0.23591 0.0
C3236 C 0.79369 1.00155 0.21412 0.0
C3237 C 0.79556 0.00747 0.1777 0.0
C3238 C 0.79135 1.00172 0.3322 0.0
C3239 C 0.79994 0.99051 0.3492 0.0
C3240 C 0.79563 0.00775 0.29588 0.0
C3241 C 0.80889 1.0031 0.2754 0.0
C3242 C 0.81833 0.99275 0.29248 0.0
C3243 C 0.81379 0.98637 0.32901 0.0
H3244 H 0.03281 0.84235 0.33854 0.0
H3245 H 1.00328 0.77467 0.3455 0.0
H3246 H 0.0225 0.83919 0.27444 0.0
H3247 H 0.99343 0.77171 0.28196 0.0
H3248 H 1.00473 0.7766 0.15975 0.0
H3249 H 0.0144 0.78209 0.22339 0.0
H3250 H 0.98869 0.82337 0.23342 0.0
H3251 H 0.97852 0.81763 0.16908 0.0
C3252 C 0.02417 0.82684 0.32655 0.0
C3253 C 0.0192 0.8088 0.34727 0.0
C3254 C 0.01817 0.82504 0.28988 0.0
C3255 C 0.00734 0.80521 0.27305 0.0
C3256 C 1.00204 0.78723 0.29395 0.0
C3257 C 0.00774 0.78898 0.33052 0.0
C3258 C 1.00095 0.78679 0.17528 0.0
C3259 C 0.99047 0.79638 0.15913 0.0
C3260 C 0.00654 0.78993 0.21193 0.0
C3261 C 1.00213 0.80299 0.23358 0.0
C3262 C 0.9923 0.81322 0.2174 0.0
C3263 C 0.9864 0.80984 0.18059 0.0
H3264 H 0.79828 0.78283 0.85864 0.0
H3265 H 0.80313 0.84256 0.83368 0.0
H3266 H 0.80533 0.77893 0.79499 0.0
H3267 H 0.80954 0.83825 0.76969 0.0
H3268 H 0.78696 0.80044 0.6567 0.0
H3269 H 0.78422 0.80804 0.72052 0.0
H3270 H 0.83756 0.80084 0.7464 0.0
H3271 H 0.84078 0.79386 0.68217 0.0
C3272 C 0.80094 0.79517 0.83961 0.0
C3273 C 0.80017 0.81304 0.85126 0.0
C3274 C 0.80506 0.79295 0.80322 0.0
C3275 C 0.80798 0.80828 0.77745 0.0
C3276 C 0.80733 0.8262 0.78903 0.0
C3277 C 0.80375 0.82869 0.82564 0.0
C3278 C 0.79826 0.80069 0.6759 0.0
C3279 C 0.81413 0.79659 0.66434 0.0
C3280 C 0.79672 0.80512 0.71239 0.0
C3281 C 0.81068 0.80504 0.73837 0.0
C3282 C 0.8266 0.801 0.7269 0.0
C3283 C 0.82849 0.7971 0.69017 0.0
H3284 H 0.23027 0.00316 0.66183 0.0
H3285 H 0.1912 0.03162 0.67063 0.0
H3286 H 0.22388 0.99306 0.72529 0.0
H3287 H 0.18441 0.02085 0.73467 0.0
H3288 H 0.16382 0.97392 0.83881 0.0
H3289 H 0.1672 0.98462 0.77473 0.0
H3290 H 0.23473 0.01606 0.78417 0.0
H3291 H 0.23159 0.00606 0.84756 0.0
C3292 C 0.22032 0.00733 0.67718 0.0
C3293 C 0.2116 0.01862 0.661 0.0
C3294 C 0.21661 1.00143 0.71366 0.0
C3295 C 0.20377 0.00628 0.73502 0.0
C3296 C 0.19436 0.01689 0.7188 0.0
C3297 C 0.19837 0.02315 0.6822 0.0
C3298 C 0.17937 0.98321 0.82725 0.0
C3299 C 0.1974 0.98878 0.84843 0.0
C3300 C 0.18129 0.9894 0.79063 0.0
C3301 C 0.20123 1.00099 0.77441 0.0
C3302 C 0.21915 0.00691 0.79578 0.0
C3303 C 0.21728 1.00108 0.83224 0.0
H3304 H 0.95738 0.16497 0.68217 0.0
H3305 H 0.01742 0.21867 0.65458 0.0
H3306 H 0.968 0.16918 0.7463 0.0
H3307 H 0.02815 0.2224 0.71826 0.0
H3308 H 0.0449 0.20667 0.83288 0.0
H3309 H 0.03388 0.19871 0.76913 0.0
H3310 H 0.97796 0.20171 0.7931 0.0
H3311 H 0.98918 0.21028 0.85637 0.0
C3312 C 0.97293 0.17744 0.68969 0.0
C3313 C 0.98653 0.19149 0.66329 0.0
C3314 C 0.97896 0.17989 0.72635 0.0
C3315 C 0.99893 0.19607 0.7372 0.0
C3316 C 0.01275 0.20969 0.71065 0.0
C3317 C 0.00654 0.20759 0.67423 0.0
C3318 C 0.03017 0.20544 0.82459 0.0
C3319 C 0.01795 0.20916 0.84968 0.0
C3320 C 0.02392 0.20096 0.78813 0.0
C3321 C 0.00504 0.19954 0.77623 0.0
C3322 C 0.99249 0.20255 0.80156 0.0
C3323 C 0.99899 0.20755 0.83773 0.0
H3324 H 0.85863 0.49387 0.50757 0.0
H3325 H 0.89942 0.56121 0.50004 0.0
H3326 H 0.85209 0.49767 0.57171 0.0
H3327 H 0.89304 0.5648 0.56358 0.0
H3328 H 0.89917 0.56045 0.68553 0.0
H3329 H 0.90284 0.5542 0.62207 0.0
H3330 H 0.83558 0.51454 0.6129 0.0
H3331 H 0.83168 0.52098 0.67712 0.0
C3332 C 0.86621 0.50944 0.51946 0.0
C3333 C 0.87982 0.52718 0.49856 0.0
C3334 C 0.86235 0.51161 0.55615 0.0
C3335 C 0.87221 0.53152 0.57282 0.0
C3336 C 0.88545 0.54921 0.55173 0.0
C3337 C 0.8891 0.54711 0.51516 0.0
C3338 C 0.88504 0.55041 0.67025 0.0
C3339 C 0.86505 0.54149 0.68661 0.0
C3340 C 0.8872 0.54687 0.63368 0.0
C3341 C 0.86951 0.53408 0.61229 0.0
C3342 C 0.84953 0.52448 0.62871 0.0
C3343 C 0.8473 0.52824 0.66546 0.0
H3344 H 0.51537 0.3705 0.51029 0.0
H3345 H 0.44806 0.34236 0.49834 0.0
H3346 H 0.51038 0.35876 0.57374 0.0
H3347 H 0.44327 0.33101 0.56123 0.0
H3348 H 0.44445 0.33777 0.68428 0.0
H3349 H 0.45148 0.34917 0.6215 0.0
H3350 H 0.4939 0.32476 0.61231 0.0
H3351 H 0.48669 0.31295 0.67572 0.0
C3352 C 0.49955 0.36189 0.52107 0.0
C3353 C 0.48217 0.35768 0.4991 0.0
C3354 C 0.4967 0.35506 0.55739 0.0
C3355 C 0.47644 0.34411 0.57267 0.0
C3356 C 0.45911 0.33969 0.55054 0.0
C3357 C 0.46191 0.34623 0.51431 0.0
C3358 C 0.45522 0.33465 0.66909 0.0
C3359 C 0.46474 0.32409 0.68523 0.0
C3360 C 0.45923 0.34122 0.63291 0.0
C3361 C 0.4731 0.33773 0.61172 0.0
C3362 C 0.48315 0.32773 0.62794 0.0
C3363 C 0.47892 0.32086 0.66423 0.0
H3364 H 0.7013 0.17608 0.6665 0.0
H3365 H 0.66822 0.10832 0.67604 0.0
H3366 H 0.69034 0.17265 0.60262 0.0
H3367 H 0.6578 0.10511 0.61284 0.0
H3368 H 0.66887 0.10786 0.49075 0.0
H3369 H 0.67925 0.11426 0.554 0.0
H3370 H 0.65536 0.15714 0.56223 0.0
H3371 H 0.64441 0.15046 0.49823 0.0
C3372 C 0.69172 0.16051 0.65515 0.0
C3373 C 0.68597 0.1425 0.6765 0.0
C3374 C 0.68537 0.15857 0.61863 0.0
C3375 C 0.6734 0.13861 0.60262 0.0
C3376 C 0.66728 0.12071 0.6242 0.0
C3377 C 0.67331 0.12261 0.66058 0.0
C3378 C 0.66564 0.11861 0.50578 0.0
C3379 C 0.6554 0.12834 0.48924 0.0
C3380 C 0.67166 0.12228 0.5422 0.0
C3381 C 0.66795 0.13604 0.56324 0.0
C3382 C 0.65842 0.14645 0.54665 0.0
C3383 C 0.65207 0.14253 0.51006 0.0
H3384 H 0.48857 0.17938 0.17327 0.0
H3385 H 0.44462 0.11274 0.18269 0.0
H3386 H 0.49519 0.17416 0.10982 0.0
H3387 H 0.45106 0.10777 0.11988 0.0
H3388 H 0.4469 0.11119 0.99677 0.0
H3389 H 0.44296 0.11829 0.05978 0.0
H3390 H 0.51036 0.15526 0.07103 0.0
H3391 H 0.51449 0.14793 0.00747 0.0
C3392 C 0.48033 0.16367 0.16197 0.0
C3393 C 0.46582 0.14657 0.18321 0.0
C3394 C 0.48421 0.16067 0.12566 0.0
C3395 C 0.47348 0.14057 0.10968 0.0
C3396 C 0.45933 0.1235 0.13113 0.0
C3397 C 0.45567 0.12641 0.16732 0.0
C3398 C 0.46098 0.12075 0.01249 0.0
C3399 C 0.48106 0.1287 0.9969 0.0
C3400 C 0.45868 0.12481 0.04877 0.0
C3401 C 0.47633 0.1372 0.07057 0.0
C3402 C 0.49644 0.14569 0.05492 0.0
C3403 C 0.49879 0.14138 0.01855 0.0
H3404 H 0.83087 0.30462 0.1705 0.0
H3405 H 0.89827 0.33305 0.18143 0.0
H3406 H 0.8355 0.31605 0.10687 0.0
H3407 H 0.90268 0.34393 0.11828 0.0
H3408 H 0.89962 0.33511 0.99481 0.0
H3409 H 0.89312 0.32426 0.05796 0.0
H3410 H 0.85274 0.35097 0.06856 0.0
H3411 H 0.85956 0.36238 0.00492 0.0
C3412 C 0.84663 0.3132 0.15945 0.0
C3413 C 0.86415 0.31759 0.18118 0.0
C3414 C 0.84927 0.31985 0.12306 0.0
C3415 C 0.86945 0.33073 0.10746 0.0
C3416 C 0.88691 0.33532 0.1293 0.0
C3417 C 0.88433 0.32902 0.16564 0.0
C3418 C 0.88946 0.3389 0.01042 0.0
C3419 C 0.88042 0.34999 0.99464 0.0
C3420 C 0.88573 0.33261 0.04676 0.0
C3421 C 0.87254 0.33688 0.06837 0.0
C3422 C 0.86295 0.34742 0.05255 0.0
C3423 C 0.86697 0.35406 0.01615 0.0
H3424 H 0.67271 0.56327 0.17641 0.0
H3425 H 0.70555 0.52833 0.16719 0.0
H3426 H 0.66207 0.55579 0.11337 0.0
H3427 H 0.69436 0.52052 0.10342 0.0
H3428 H 0.6478 0.49634 0.99962 0.0
H3429 H 0.65919 0.50094 0.06341 0.0
H3430 H 0.68317 0.56767 0.05422 0.0
H3431 H 0.67235 0.56336 0.99119 0.0
C3432 C 0.67772 0.55397 0.16105 0.0
C3433 C 0.69037 0.54674 0.17703 0.0
C3434 C 0.67154 0.54967 0.12475 0.0
C3435 C 0.67752 0.53773 0.10327 0.0
C3436 C 0.6895 0.52976 0.11933 0.0
C3437 C 0.69599 0.53433 0.15579 0.0
C3438 C 0.65558 0.51199 0.01119 0.0
C3439 C 0.65879 0.5294 0.99015 0.0
C3440 C 0.66219 0.51462 0.04766 0.0
C3441 C 0.67187 0.53464 0.06394 0.0
C3442 C 0.67548 0.552 0.04267 0.0
C3443 C 0.6692 0.54946 0.00637 0.0
H3444 H 0.56102 0.89245 0.01593 0.0
H3445 H 0.4935 0.85453 0.00493 0.0
H3446 H 0.56523 0.88632 0.95256 0.0
H3447 H 0.49799 0.848 0.94097 0.0
H3448 H 0.5249 0.82752 0.83733 0.0
H3449 H 0.51704 0.83052 0.90127 0.0
H3450 H 0.5539 0.89808 0.89355 0.0
H3451 H 0.56132 0.89534 0.8303 0.0
C3452 C 0.54701 0.88279 1.00012 0.0
C3453 C 0.52686 0.87433 0.01564 0.0
C3454 C 0.54949 0.87924 0.96369 0.0
C3455 C 0.53195 0.86681 0.94176 0.0
C3456 C 0.51179 0.85763 0.95732 0.0
C3457 C 0.50924 0.86148 0.99386 0.0
C3458 C 0.53123 0.84301 0.84925 0.0
C3459 C 0.54406 0.86115 0.8286 0.0
C3460 C 0.52663 0.8447 0.88577 0.0
C3461 C 0.53505 0.86453 0.90243 0.0
C3462 C 0.54743 0.88258 0.88159 0.0
C3463 C 0.55171 0.88094 0.84521 0.0
H3464 H 0.11357 0.67298 0.01264 0.0
H3465 H 0.14967 0.64125 0.00528 0.0
H3466 H 0.12021 0.68238 0.949 0.0
H3467 H 0.15675 0.65135 0.94092 0.0
H3468 H 0.17951 0.6976 0.83602 0.0
H3469 H 0.17548 0.68705 0.90015 0.0
H3470 H 0.10824 0.65922 0.89053 0.0
H3471 H 0.112 0.66912 0.82691 0.0
C3472 C 0.12295 0.66795 0.99757 0.0
C3473 C 0.13074 0.65595 0.01424 0.0
C3474 C 0.12676 0.67343 0.96095 0.0
C3475 C 0.13882 0.66745 0.93988 0.0
C3476 C 0.14738 0.65616 0.95657 0.0
C3477 C 0.14325 0.65032 0.99335 0.0
C3478 C 0.16386 0.68915 0.84754 0.0
C3479 C 0.14612 0.68457 0.82623 0.0
C3480 C 0.16158 0.68302 0.8842 0.0
C3481 C 0.14156 0.67248 0.90039 0.0
C3482 C 0.12388 0.66754 0.87892 0.0
C3483 C 0.1261 0.67331 0.84236 0.0
H3484 H 0.33495 0.44334 0.01031 0.0
H3485 H 0.3691 0.51117 1.00252 0.0
H3486 H 0.32556 0.44083 0.94669 0.0
H3487 H 0.35911 0.50845 0.93813 0.0
H3488 H 0.31362 0.48633 0.83178 0.0
H3489 H 0.32396 0.49294 0.89611 0.0
H3490 H 0.34874 0.45078 0.88894 0.0
H3491 H 0.33901 0.44447 0.82543 0.0
C3492 C 0.3405 0.45779 0.99516 0.0
C3493 C 0.35317 0.47749 0.01171 0.0
C3494 C 0.33503 0.45629 0.95853 0.0
C3495 C 0.34174 0.47441 0.93728 0.0
C3496 C 0.35371 0.4942 0.95388 0.0
C3497 C 0.3595 0.49574 0.99069 0.0
C3498 C 0.32139 0.47858 0.84389 0.0
C3499 C 0.32511 0.46458 0.82329 0.0
C3500 C 0.32739 0.48246 0.88067 0.0
C3501 C 0.33695 0.47219 0.89765 0.0
C3502 C 0.34114 0.4587 0.8768 0.0
C3503 C 0.33548 0.45508 0.84022 0.0
H3504 H 0.13313 0.44756 0.5232 0.0
H3505 H 0.13356 0.50539 0.49977 0.0
H3506 H 0.14025 0.4445 0.45926 0.0
H3507 H 0.14005 0.5019 0.4354 0.0
H3508 H 0.11854 0.46401 0.32217 0.0
H3509 H 0.11568 0.47108 0.38624 0.0
H3510 H 0.17148 0.46788 0.41025 0.0
H3511 H 0.17481 0.46143 0.34584 0.0
C3512 C 0.13488 0.45969 0.50443 0.0
C3513 C 0.13283 0.47676 0.51659 0.0
C3514 C 0.13902 0.45795 0.46787 0.0
C3515 C 0.14069 0.47295 0.44241 0.0
C3516 C 0.13882 0.49011 0.4545 0.0
C3517 C 0.13522 0.49216 0.49132 0.0
C3518 C 0.13033 0.465 0.34102 0.0
C3519 C 0.14693 0.46217 0.32888 0.0
C3520 C 0.12872 0.46915 0.37765 0.0
C3521 C 0.14337 0.47006 0.40316 0.0
C3522 C 0.15999 0.46726 0.39112 0.0
C3523 C 0.16191 0.46364 0.35427 0.0
H3524 H 0.54232 0.71045 0.34335 0.0
H3525 H 0.54314 0.65295 0.32307 0.0
H3526 H 0.53591 0.70138 0.40807 0.0
H3527 H 0.53604 0.64365 0.38739 0.0
H3528 H 0.50111 0.62776 0.50094 0.0
H3529 H 0.50409 0.63685 0.43617 0.0
H3530 H 0.56105 0.69525 0.45784 0.0
H3531 H 0.55854 0.68594 0.5222 0.0
C3532 C 0.54079 0.69574 0.35258 0.0
C3533 C 0.54325 0.68243 0.32808 0.0
C3534 C 0.5372 0.69061 0.38958 0.0
C3535 C 0.5354 0.67178 0.40264 0.0
C3536 C 0.5372 0.65817 0.37799 0.0
C3537 C 0.54135 0.66355 0.34123 0.0
C3538 C 0.51413 0.64263 0.49192 0.0
C3539 C 0.52958 0.65613 0.51668 0.0
C3540 C 0.51587 0.64777 0.45489 0.0
C3541 C 0.53276 0.66677 0.44209 0.0
C3542 C 0.5478 0.68058 0.46703 0.0
C3543 C 0.54638 0.6752 0.50381 0.0
H3544 H 0.29264 0.83409 0.35062 0.0
H3545 H 0.35213 0.88851 0.32289 0.0
H3546 H 0.30377 0.83786 0.4144 0.0
H3547 H 0.36334 0.89187 0.38617 0.0
H3548 H 0.38182 0.87727 0.49912 0.0
H3549 H 0.37053 0.8696 0.43554 0.0
H3550 H 0.31286 0.86859 0.46244 0.0
H3551 H 0.32427 0.87675 0.52562 0.0
C3552 C 0.30818 0.84662 0.35801 0.0
C3553 C 0.32147 0.86101 0.33172 0.0
C3554 C 0.3145 0.84882 0.39448 0.0
C3555 C 0.33444 0.86514 0.4052 0.0
C3556 C 0.34797 0.87906 0.37868 0.0
C3557 C 0.34148 0.87717 0.34247 0.0
C3558 C 0.36667 0.87525 0.49151 0.0
C3559 C 0.35399 0.8777 0.51743 0.0
C3560 C 0.36025 0.87092 0.45513 0.0
C3561 C 0.34079 0.86843 0.4441 0.0
C3562 C 0.32785 0.87024 0.47022 0.0
C3563 C 0.33446 0.87504 0.50635 0.0
loop_
_geom_bond_atom_site_label_1
_geom_bond_atom_site_label_2
_geom_bond_distance
_geom_bond_site_symmetry_2
_ccdc_geom_bond_type
Co0 O2 2.143 . S
Co0 O8 2.074 . S
Co0 O11 2.093 . S
Co0 O24 2.097 . S
Co0 N41 2.151 1_554 S
Co0 N49 2.214 . S
Co1 O2 2.160 . S
Co1 O7 2.058 . S
Co1 O17 2.057 . S
Co1 O32 2.037 . S
Co1 N36 2.145 . S
Co1 N57 2.257 . S
O2 Co0 2.143 . S
O2 Co1 2.160 . S
C3 O4 1.278 . S
C3 O11 1.224 . S
O4 C3 1.278 . S
C5 O6 1.245 . S
C5 O17 1.232 1_556 S
O6 C5 1.245 . S
O7 Co1 2.058 . S
O7 C33 1.269 . S
O8 Co0 2.074 . S
O8 C33 1.257 . S
H9 C34 0.930 . S
H10 C40 0.930 . S
O11 Co0 2.093 . S
O11 C3 1.224 . S
H12 C44 0.929 . S
H13 C46 0.930 . S
H14 C47 0.930 . S
H15 C45 0.929 . S
H16 C48 0.928 . S
O17 Co1 2.057 . S
O17 C5 1.232 1_554 S
H18 C37 0.929 . S
H19 C38 0.929 . S
H20 C50 0.931 . S
H21 C42 0.929 . S
H22 C51 0.930 . S
H23 C43 0.931 . S
O24 Co0 2.097 . S
O24 C52 1.214 . S
H25 C53 0.929 . S
H26 C54 0.929 . S
H27 C55 0.930 . S
H28 C56 0.929 . S
H29 C58 0.930 . S
H30 C35 0.930 . S
H31 C39 0.930 . S
O32 Co1 2.037 . S
O32 C52 1.234 . S
C33 O7 1.269 . S
C33 O8 1.257 . S
C34 H9 0.930 . S
C34 C37 1.388 . S
C34 C39 1.418 . S
C35 H30 0.930 . S
C35 C38 1.404 . S
C35 C39 1.353 . S
N36 Co1 2.145 . S
N36 C37 1.397 . S
N36 C38 1.334 . S
C37 H18 0.929 . S
C37 C34 1.388 . S
C37 N36 1.397 . S
C38 H19 0.929 . S
C38 C35 1.404 . S
C38 N36 1.334 . S
C39 H31 0.930 . S
C39 C34 1.418 . S
C39 C35 1.353 . S
C40 H10 0.930 . S
C40 N41 1.330 . S
C40 C42 1.446 . S
N41 Co0 2.151 1_556 S
N41 C40 1.330 . S
N41 C45 1.418 . S
C42 H21 0.929 . S
C42 C40 1.446 . S
C42 C43 1.332 . S
C43 H23 0.931 . S
C43 C42 1.332 . S
C43 C44 1.267 . S
C44 H12 0.929 . S
C44 C43 1.267 . S
C44 C45 1.251 . S
C45 H15 0.929 . S
C45 N41 1.418 . S
C45 C44 1.251 . S
C46 H13 0.930 . S
C46 C48 1.406 . S
C46 C51 1.261 . S
C47 H14 0.930 . S
C47 N49 1.325 . S
C47 C50 1.357 . S
C48 H16 0.928 . S
C48 C46 1.406 . S
C48 N49 1.261 . S
N49 Co0 2.214 . S
N49 C47 1.325 . S
N49 C48 1.261 . S
C50 H20 0.931 . S
C50 C47 1.357 . S
C50 C51 1.312 . S
C51 H22 0.930 . S
C51 C46 1.261 . S
C51 C50 1.312 . S
C52 O24 1.214 . S
C52 O32 1.234 . S
C53 H25 0.929 . S
C53 C56 1.391 . S
C53 C58 1.391 . S
C54 H26 0.929 . S
C54 C55 1.390 . S
C54 N57 1.391 . S
C55 H27 0.930 . S
C55 C54 1.390 . S
C55 C56 1.392 . S
C56 H28 0.929 . S
C56 C53 1.391 . S
C56 C55 1.392 . S
N57 Co1 2.257 . S
N57 C54 1.391 . S
N57 C58 1.388 . S
C58 H29 0.930 . S
C58 C53 1.391 . S
C58 N57 1.388 . S
Co59 O61 2.143 . S
Co59 O67 2.074 . S
Co59 O70 2.093 . S
Co59 O83 2.097 . S
Co59 N100 2.151 1_554 S
Co59 N108 2.214 . S
Co60 O61 2.160 . S
Co60 O66 2.058 . S
Co60 O76 2.057 . S
Co60 O91 2.037 . S
Co60 N95 2.145 . S
Co60 N116 2.257 . S
O61 Co59 2.143 . S
O61 Co60 2.160 . S
C62 O63 1.278 . S
C62 O70 1.224 . S
O63 C62 1.278 . S
C64 O65 1.245 . S
C64 O76 1.232 1_556 S
O65 C64 1.245 . S
O66 Co60 2.058 . S
O66 C92 1.269 1_545 S
O67 Co59 2.074 . S
O67 C92 1.257 1_545 S
H68 C93 0.930 . S
H69 C99 0.930 . S
O70 Co59 2.093 . S
O70 C62 1.224 . S
H71 C103 0.929 . S
H72 C105 0.930 . S
H73 C106 0.930 . S
H74 C104 0.929 . S
H75 C107 0.928 . S
O76 Co60 2.057 . S
O76 C64 1.232 1_554 S
H77 C96 0.962 . S
H78 C97 0.929 . S
H79 C109 0.931 . S
H80 C101 0.929 . S
H81 C110 0.930 1_565 S
H82 C102 0.931 . S
O83 Co59 2.097 . S
O83 C111 1.214 . S
H84 C112 0.929 . S
H85 C113 0.929 . S
H86 C114 0.930 . S
H87 C115 0.929 . S
H88 C117 0.930 . S
H89 C94 0.930 . S
H90 C98 0.930 . S
O91 Co60 2.037 . S
O91 C111 1.234 . S
C92 O66 1.269 1_565 S
C92 O67 1.257 1_565 S
C93 H68 0.930 . S
C93 C96 1.389 . S
C93 C98 1.418 . S
C94 H89 0.930 . S
C94 C97 1.404 . S
C94 C98 1.353 1_545 S
N95 Co60 2.145 . S
N95 C96 1.364 1_545 S
N95 C97 1.334 . S
C96 H77 0.962 . S
C96 C93 1.389 . S
C96 N95 1.364 1_565 S
C97 H78 0.929 . S
C97 C94 1.404 . S
C97 N95 1.334 . S
C98 H90 0.930 . S
C98 C93 1.418 . S
C98 C94 1.353 1_565 S
C99 H69 0.930 . S
C99 N100 1.330 . S
C99 C101 1.446 . S
N100 Co59 2.151 1_556 S
N100 C99 1.330 . S
N100 C104 1.418 . S
C101 H80 0.929 . S
C101 C99 1.446 . S
C101 C102 1.332 . S
C102 H82 0.931 . S
C102 C101 1.332 . S
C102 C103 1.267 . S
C103 H71 0.929 . S
C103 C102 1.267 . S
C103 C104 1.251 . S
C104 H74 0.929 . S
C104 N100 1.418 . S
C104 C103 1.251 . S
C105 H72 0.930 . S
C105 C107 1.406 . S
C105 C110 1.261 . S
C106 H73 0.930 . S
C106 N108 1.325 . S
C106 C109 1.357 1_545 S
C107 H75 0.928 . S
C107 C105 1.406 . S
C107 N108 1.261 . S
N108 Co59 2.214 . S
N108 C106 1.325 . S
N108 C107 1.261 . S
C109 H79 0.931 . S
C109 C106 1.357 1_565 S
C109 C110 1.312 1_565 S
C110 H81 0.930 1_545 S
C110 C105 1.261 . S
C110 C109 1.312 1_545 S
C111 O83 1.214 . S
C111 O91 1.234 . S
C112 H84 0.929 . S
C112 C115 1.391 . S
C112 C117 1.391 . S
C113 H85 0.929 . S
C113 C114 1.390 . S
C113 N116 1.391 . S
C114 H86 0.930 . S
C114 C113 1.390 . S
C114 C115 1.392 . S
C115 H87 0.929 . S
C115 C112 1.391 . S
C115 C114 1.392 . S
N116 Co60 2.257 . S
N116 C113 1.391 . S
N116 C117 1.388 . S
C117 H88 0.930 . S
C117 C112 1.391 . S
C117 N116 1.388 . S
Co118 O120 2.143 . S
Co118 O126 2.074 . S
Co118 O129 2.093 . S
Co118 O142 2.097 . S
Co118 N159 2.151 1_554 S
Co118 N167 2.214 . S
Co119 O120 2.160 . S
Co119 O125 2.058 . S
Co119 O135 2.057 . S
Co119 O150 2.037 . S
Co119 N154 2.145 . S
Co119 N175 2.257 . S
O120 Co118 2.143 . S
O120 Co119 2.160 . S
C121 O122 1.278 . S
C121 O129 1.224 . S
O122 C121 1.278 . S
C123 O124 1.245 . S
C123 O135 1.232 1_556 S
O124 C123 1.245 . S
O125 Co119 2.058 . S
O125 C151 1.269 1_655 S
O126 Co118 2.074 . S
O126 C151 1.257 1_655 S
H127 C152 0.930 . S
H128 C158 0.930 . S
O129 Co118 2.093 . S
O129 C121 1.224 . S
H130 C162 0.929 . S
H131 C164 0.930 . S
H132 C165 0.930 . S
H133 C163 0.929 . S
H134 C166 0.928 . S
O135 Co119 2.057 . S
O135 C123 1.232 1_554 S
H136 C155 0.918 . S
H137 C156 0.929 . S
H138 C168 0.931 . S
H139 C160 0.929 . S
H140 C169 0.930 1_455 S
H141 C161 0.931 . S
O142 Co118 2.097 . S
O142 C170 1.214 . S
H143 C171 0.929 . S
H144 C172 0.929 . S
H145 C173 0.930 . S
H146 C174 0.929 . S
H147 C176 0.930 . S
H148 C153 0.930 . S
H149 C157 0.930 . S
O150 Co119 2.037 . S
O150 C170 1.234 . S
C151 O125 1.269 1_455 S
C151 O126 1.257 1_455 S
C152 H127 0.930 . S
C152 C155 1.429 . S
C152 C157 1.418 . S
C153 H148 0.930 . S
C153 C156 1.404 . S
C153 C157 1.353 1_655 S
N154 Co119 2.145 . S
N154 C155 1.369 1_655 S
N154 C156 1.334 . S
C155 H136 0.918 . S
C155 C152 1.429 . S
C155 N154 1.369 1_455 S
C156 H137 0.929 . S
C156 C153 1.404 . S
C156 N154 1.334 . S
C157 H149 0.930 . S
C157 C152 1.418 . S
C157 C153 1.353 1_455 S
C158 H128 0.930 . S
C158 N159 1.330 . S
C158 C160 1.446 . S
N159 Co118 2.151 1_556 S
N159 C158 1.330 . S
N159 C163 1.418 . S
C160 H139 0.929 . S
C160 C158 1.446 . S
C160 C161 1.332 . S
C161 H141 0.931 . S
C161 C160 1.332 . S
C161 C162 1.267 . S
C162 H130 0.929 . S
C162 C161 1.267 . S
C162 C163 1.251 . S
C163 H133 0.929 . S
C163 N159 1.418 . S
C163 C162 1.251 . S
C164 H131 0.930 . S
C164 C166 1.406 . S
C164 C169 1.261 . S
C165 H132 0.930 . S
C165 N167 1.325 . S
C165 C168 1.357 1_655 S
C166 H134 0.928 . S
C166 C164 1.406 . S
C166 N167 1.261 . S
N167 Co118 2.214 . S
N167 C165 1.325 . S
N167 C166 1.261 . S
C168 H138 0.931 . S
C168 C165 1.357 1_455 S
C168 C169 1.312 1_455 S
C169 H140 0.930 1_655 S
C169 C164 1.261 . S
C169 C168 1.312 1_655 S
C170 O142 1.214 . S
C170 O150 1.234 . S
C171 H143 0.929 . S
C171 C174 1.391 . S
C171 C176 1.391 . S
C172 H144 0.929 . S
C172 C173 1.390 . S
C172 N175 1.391 . S
C173 H145 0.930 . S
C173 C172 1.390 . S
C173 C174 1.392 . S
C174 H146 0.929 . S
C174 C171 1.391 . S
C174 C173 1.392 . S
N175 Co119 2.257 . S
N175 C172 1.391 . S
N175 C176 1.388 . S
C176 H147 0.930 . S
C176 C171 1.391 . S
C176 N175 1.388 . S
Co177 O179 2.143 . S
Co177 O185 2.074 . S
Co177 O188 2.093 . S
Co177 O201 2.097 . S
Co177 N218 2.151 . S
Co177 N226 2.214 . S
Co178 O179 2.160 . S
Co178 O184 2.058 . S
Co178 O194 2.057 . S
Co178 O209 2.037 . S
Co178 N213 2.145 . S
Co178 N234 2.257 . S
O179 Co177 2.143 . S
O179 Co178 2.160 . S
C180 O181 1.278 . S
C180 O188 1.224 . S
O181 C180 1.278 . S
C182 O183 1.245 . S
C182 O194 1.232 . S
O183 C182 1.245 . S
O184 Co178 2.058 . S
O184 C210 1.269 . S
O185 Co177 2.074 . S
O185 C210 1.257 . S
H186 C211 0.930 . S
H187 C217 0.930 . S
O188 Co177 2.093 . S
O188 C180 1.224 . S
H189 C221 0.929 . S
H190 C223 0.930 . S
H191 C224 0.930 . S
H192 C222 0.929 . S
H193 C225 0.928 . S
O194 Co178 2.057 . S
O194 C182 1.232 . S
H195 C214 0.929 . S
H196 C215 0.929 . S
H197 C227 0.931 . S
H198 C219 0.929 . S
H199 C228 0.930 . S
H200 C220 0.931 . S
O201 Co177 2.097 . S
O201 C229 1.214 . S
H202 C230 0.929 . S
H203 C231 0.929 . S
H204 C232 0.930 . S
H205 C233 0.929 . S
H206 C235 0.930 . S
H207 C212 0.930 . S
H208 C216 0.930 . S
O209 Co178 2.037 . S
O209 C229 1.234 . S
C210 O184 1.269 . S
C210 O185 1.257 . S
C211 H186 0.930 . S
C211 C214 1.388 . S
C211 C216 1.418 . S
C212 H207 0.930 . S
C212 C215 1.404 . S
C212 C216 1.353 . S
N213 Co178 2.145 . S
N213 C214 1.397 . S
N213 C215 1.334 . S
C214 H195 0.929 . S
C214 C211 1.388 . S
C214 N213 1.397 . S
C215 H196 0.929 . S
C215 C212 1.404 . S
C215 N213 1.334 . S
C216 H208 0.930 . S
C216 C211 1.418 . S
C216 C212 1.353 . S
C217 H187 0.930 . S
C217 N218 1.330 . S
C217 C219 1.446 . S
N218 Co177 2.151 . S
N218 C217 1.330 . S
N218 C222 1.418 . S
C219 H198 0.929 . S
C219 C217 1.446 . S
C219 C220 1.332 . S
C220 H200 0.931 . S
C220 C219 1.332 . S
C220 C221 1.267 . S
C221 H189 0.929 . S
C221 C220 1.267 . S
C221 C222 1.251 . S
C222 H192 0.929 . S
C222 N218 1.418 . S
C222 C221 1.251 . S
C223 H190 0.930 . S
C223 C225 1.406 . S
C223 C228 1.261 . S
C224 H191 0.930 . S
C224 N226 1.325 . S
C224 C227 1.357 . S
C225 H193 0.928 . S
C225 C223 1.406 . S
C225 N226 1.261 . S
N226 Co177 2.214 . S
N226 C224 1.325 . S
N226 C225 1.261 . S
C227 H197 0.931 . S
C227 C224 1.357 . S
C227 C228 1.312 . S
C228 H199 0.930 . S
C228 C223 1.261 . S
C228 C227 1.312 . S
C229 O201 1.214 . S
C229 O209 1.234 . S
C230 H202 0.929 . S
C230 C233 1.391 . S
C230 C235 1.391 . S
C231 H203 0.929 . S
C231 C232 1.390 . S
C231 N234 1.391 . S
C232 H204 0.930 . S
C232 C231 1.390 . S
C232 C233 1.392 . S
C233 H205 0.929 . S
C233 C230 1.391 . S
C233 C232 1.392 . S
N234 Co178 2.257 . S
N234 C231 1.391 . S
N234 C235 1.388 . S
C235 H206 0.930 . S
C235 C230 1.391 . S
C235 N234 1.388 . S
Co236 O238 2.143 . S
Co236 O244 2.074 . S
Co236 O247 2.093 . S
Co236 O260 2.097 . S
Co236 N277 2.151 . S
Co236 N285 2.214 . S
Co237 O238 2.160 . S
Co237 O243 2.058 . S
Co237 O253 2.057 . S
Co237 O268 2.037 . S
Co237 N272 2.145 . S
Co237 N293 2.257 . S
O238 Co236 2.143 . S
O238 Co237 2.160 . S
C239 O240 1.278 . S
C239 O247 1.224 . S
O240 C239 1.278 . S
C241 O242 1.245 . S
C241 O253 1.232 . S
O242 C241 1.245 . S
O243 Co237 2.058 . S
O243 C269 1.269 1_565 S
O244 Co236 2.074 . S
O244 C269 1.257 1_565 S
H245 C270 0.930 . S
H246 C276 0.930 . S
O247 Co236 2.093 . S
O247 C239 1.224 . S
H248 C280 0.929 . S
H249 C282 0.930 . S
H250 C283 0.930 . S
H251 C281 0.929 . S
H252 C284 0.928 . S
O253 Co237 2.057 . S
O253 C241 1.232 . S
H254 C273 0.918 . S
H255 C274 0.929 . S
H256 C286 0.931 . S
H257 C278 0.929 . S
H258 C287 0.930 1_545 S
H259 C279 0.931 . S
O260 Co236 2.097 . S
O260 C288 1.214 . S
H261 C289 0.929 . S
H262 C290 0.929 . S
H263 C291 0.930 . S
H264 C292 0.929 . S
H265 C294 0.930 . S
H266 C271 0.930 . S
H267 C275 0.930 . S
O268 Co237 2.037 . S
O268 C288 1.234 . S
C269 O243 1.269 1_545 S
C269 O244 1.257 1_545 S
C270 H245 0.930 . S
C270 C273 1.429 . S
C270 C275 1.418 . S
C271 H266 0.930 . S
C271 C274 1.404 . S
C271 C275 1.353 1_565 S
N272 Co237 2.145 . S
N272 C273 1.369 1_565 S
N272 C274 1.334 . S
C273 H254 0.918 . S
C273 C270 1.429 . S
C273 N272 1.369 1_545 S
C274 H255 0.929 . S
C274 C271 1.404 . S
C274 N272 1.334 . S
C275 H267 0.930 . S
C275 C270 1.418 . S
C275 C271 1.353 1_545 S
C276 H246 0.930 . S
C276 N277 1.330 . S
C276 C278 1.446 . S
N277 Co236 2.151 . S
N277 C276 1.330 . S
N277 C281 1.418 . S
C278 H257 0.929 . S
C278 C276 1.446 . S
C278 C279 1.332 . S
C279 H259 0.931 . S
C279 C278 1.332 . S
C279 C280 1.267 . S
C280 H248 0.929 . S
C280 C279 1.267 . S
C280 C281 1.251 . S
C281 H251 0.929 . S
C281 N277 1.418 . S
C281 C280 1.251 . S
C282 H249 0.930 . S
C282 C284 1.406 . S
C282 C287 1.261 . S
C283 H250 0.930 . S
C283 N285 1.325 . S
C283 C286 1.357 1_565 S
C284 H252 0.928 . S
C284 C282 1.406 . S
C284 N285 1.261 . S
N285 Co236 2.214 . S
N285 C283 1.325 . S
N285 C284 1.261 . S
C286 H256 0.931 . S
C286 C283 1.357 1_545 S
C286 C287 1.312 1_545 S
C287 H258 0.930 1_565 S
C287 C282 1.261 . S
C287 C286 1.312 1_565 S
C288 O260 1.214 . S
C288 O268 1.234 . S
C289 H261 0.929 . S
C289 C292 1.391 . S
C289 C294 1.391 . S
C290 H262 0.929 . S
C290 C291 1.390 . S
C290 N293 1.391 . S
C291 H263 0.930 . S
C291 C290 1.390 . S
C291 C292 1.392 . S
C292 H264 0.929 . S
C292 C289 1.391 . S
C292 C291 1.392 . S
N293 Co237 2.257 . S
N293 C290 1.391 . S
N293 C294 1.388 . S
C294 H265 0.930 . S
C294 C289 1.391 . S
C294 N293 1.388 . S
Co295 O297 2.143 . S
Co295 O303 2.074 . S
Co295 O306 2.093 . S
Co295 O319 2.097 . S
Co295 N336 2.151 . S
Co295 N344 2.214 . S
Co296 O297 2.160 . S
Co296 O302 2.058 . S
Co296 O312 2.057 . S
Co296 O327 2.037 . S
Co296 N331 2.145 . S
Co296 N352 2.257 . S
O297 Co295 2.143 . S
O297 Co296 2.160 . S
C298 O299 1.278 . S
C298 O306 1.224 . S
O299 C298 1.278 . S
C300 O301 1.245 . S
C300 O312 1.232 . S
O301 C300 1.245 . S
O302 Co296 2.058 . S
O302 C328 1.269 1_455 S
O303 Co295 2.074 . S
O303 C328 1.257 1_455 S
H304 C329 0.930 . S
H305 C335 0.930 . S
O306 Co295 2.093 . S
O306 C298 1.224 . S
H307 C339 0.929 . S
H308 C341 0.930 . S
H309 C342 0.930 . S
H310 C340 0.929 . S
H311 C343 0.928 . S
O312 Co296 2.057 . S
O312 C300 1.232 . S
H313 C332 0.962 . S
H314 C333 0.929 . S
H315 C345 0.931 . S
H316 C337 0.929 . S
H317 C346 0.930 1_655 S
H318 C338 0.931 . S
O319 Co295 2.097 . S
O319 C347 1.214 . S
H320 C348 0.929 . S
H321 C349 0.929 . S
H322 C350 0.930 . S
H323 C351 0.929 . S
H324 C353 0.930 . S
H325 C330 0.930 . S
H326 C334 0.930 . S
O327 Co296 2.037 . S
O327 C347 1.234 . S
C328 O302 1.269 1_655 S
C328 O303 1.257 1_655 S
C329 H304 0.930 . S
C329 C332 1.389 . S
C329 C334 1.418 . S
C330 H325 0.930 . S
C330 C333 1.404 . S
C330 C334 1.353 1_455 S
N331 Co296 2.145 . S
N331 C332 1.364 1_455 S
N331 C333 1.334 . S
C332 H313 0.962 . S
C332 C329 1.389 . S
C332 N331 1.364 1_655 S
C333 H314 0.929 . S
C333 C330 1.404 . S
C333 N331 1.334 . S
C334 H326 0.930 . S
C334 C329 1.418 . S
C334 C330 1.353 1_655 S
C335 H305 0.930 . S
C335 N336 1.330 . S
C335 C337 1.446 . S
N336 Co295 2.151 . S
N336 C335 1.330 . S
N336 C340 1.418 . S
C337 H316 0.929 . S
C337 C335 1.446 . S
C337 C338 1.332 . S
C338 H318 0.931 . S
C338 C337 1.332 . S
C338 C339 1.267 . S
C339 H307 0.929 . S
C339 C338 1.267 . S
C339 C340 1.251 . S
C340 H310 0.929 . S
C340 N336 1.418 . S
C340 C339 1.251 . S
C341 H308 0.930 . S
C341 C343 1.406 . S
C341 C346 1.261 . S
C342 H309 0.930 . S
C342 N344 1.325 . S
C342 C345 1.357 1_455 S
C343 H311 0.928 . S
C343 C341 1.406 . S
C343 N344 1.261 . S
N344 Co295 2.214 . S
N344 C342 1.325 . S
N344 C343 1.261 . S
C345 H315 0.931 . S
C345 C342 1.357 1_655 S
C345 C346 1.312 1_655 S
C346 H317 0.930 1_455 S
C346 C341 1.261 . S
C346 C345 1.312 1_455 S
C347 O319 1.214 . S
C347 O327 1.234 . S
C348 H320 0.929 . S
C348 C351 1.391 . S
C348 C353 1.391 . S
C349 H321 0.929 . S
C349 C350 1.390 . S
C349 N352 1.391 . S
C350 H322 0.930 . S
C350 C349 1.390 . S
C350 C351 1.392 . S
C351 H323 0.929 . S
C351 C348 1.391 . S
C351 C350 1.392 . S
N352 Co296 2.257 . S
N352 C349 1.391 . S
N352 C353 1.388 . S
C353 H324 0.930 . S
C353 C348 1.391 . S
C353 N352 1.388 . S
Co354 O356 2.143 . S
Co354 O362 2.074 . S
Co354 O365 2.093 . S
Co354 O378 2.097 . S
Co354 N395 2.151 1_556 S
Co354 N403 2.214 . S
Co355 O356 2.160 . S
Co355 O361 2.058 . S
Co355 O371 2.057 . S
Co355 O386 2.037 . S
Co355 N390 2.145 . S
Co355 N411 2.257 . S
O356 Co354 2.143 . S
O356 Co355 2.160 . S
C357 O358 1.278 . S
C357 O365 1.224 . S
O358 C357 1.278 . S
C359 O360 1.245 . S
C359 O371 1.232 1_554 S
O360 C359 1.245 . S
O361 Co355 2.058 . S
O361 C387 1.269 . S
O362 Co354 2.074 . S
O362 C387 1.257 . S
H363 C388 0.930 . S
H364 C394 0.930 . S
O365 Co354 2.093 . S
O365 C357 1.224 . S
H366 C398 0.929 . S
H367 C400 0.930 . S
H368 C401 0.930 . S
H369 C399 0.929 . S
H370 C402 0.928 . S
O371 Co355 2.057 . S
O371 C359 1.232 1_556 S
H372 C391 0.929 . S
H373 C392 0.929 . S
H374 C404 0.931 . S
H375 C396 0.929 . S
H376 C405 0.930 . S
H377 C397 0.931 . S
O378 Co354 2.097 . S
O378 C406 1.214 . S
H379 C407 0.929 . S
H380 C408 0.929 . S
H381 C409 0.930 . S
H382 C410 0.929 . S
H383 C412 0.930 . S
H384 C389 0.930 . S
H385 C393 0.930 . S
O386 Co355 2.037 . S
O386 C406 1.234 . S
C387 O361 1.269 . S
C387 O362 1.257 . S
C388 H363 0.930 . S
C388 C391 1.388 . S
C388 C393 1.418 . S
C389 H384 0.930 . S
C389 C392 1.404 . S
C389 C393 1.353 . S
N390 Co355 2.145 . S
N390 C391 1.397 . S
N390 C392 1.334 . S
C391 H372 0.929 . S
C391 C388 1.388 . S
C391 N390 1.397 . S
C392 H373 0.929 . S
C392 C389 1.404 . S
C392 N390 1.334 . S
C393 H385 0.930 . S
C393 C388 1.418 . S
C393 C389 1.353 . S
C394 H364 0.930 . S
C394 N395 1.330 . S
C394 C396 1.446 . S
N395 Co354 2.151 1_554 S
N395 C394 1.330 . S
N395 C399 1.418 . S
C396 H375 0.929 . S
C396 C394 1.446 . S
C396 C397 1.332 . S
C397 H377 0.931 . S
C397 C396 1.332 . S
C397 C398 1.267 . S
C398 H366 0.929 . S
C398 C397 1.267 . S
C398 C399 1.251 . S
C399 H369 0.929 . S
C399 N395 1.418 . S
C399 C398 1.251 . S
C400 H367 0.930 . S
C400 C402 1.406 . S
C400 C405 1.261 . S
C401 H368 0.930 . S
C401 N403 1.325 . S
C401 C404 1.357 . S
C402 H370 0.928 . S
C402 C400 1.406 . S
C402 N403 1.261 . S
N403 Co354 2.214 . S
N403 C401 1.325 . S
N403 C402 1.261 . S
C404 H374 0.931 . S
C404 C401 1.357 . S
C404 C405 1.312 . S
C405 H376 0.930 . S
C405 C400 1.261 . S
C405 C404 1.312 . S
C406 O378 1.214 . S
C406 O386 1.234 . S
C407 H379 0.929 . S
C407 C410 1.391 . S
C407 C412 1.391 . S
C408 H380 0.929 . S
C408 C409 1.390 . S
C408 N411 1.391 . S
C409 H381 0.930 . S
C409 C408 1.390 . S
C409 C410 1.392 . S
C410 H382 0.929 . S
C410 C407 1.391 . S
C410 C409 1.392 . S
N411 Co355 2.257 . S
N411 C408 1.391 . S
N411 C412 1.388 . S
C412 H383 0.930 . S
C412 C407 1.391 . S
C412 N411 1.388 . S
Co413 O415 2.143 . S
Co413 O421 2.074 . S
Co413 O424 2.093 . S
Co413 O437 2.097 . S
Co413 N454 2.151 1_556 S
Co413 N462 2.214 . S
Co414 O415 2.160 . S
Co414 O420 2.058 . S
Co414 O430 2.057 . S
Co414 O445 2.037 . S
Co414 N449 2.145 . S
Co414 N470 2.257 . S
O415 Co413 2.143 . S
O415 Co414 2.160 . S
C416 O417 1.278 . S
C416 O424 1.224 . S
O417 C416 1.278 . S
C418 O419 1.245 . S
C418 O430 1.232 1_554 S
O419 C418 1.245 . S
O420 Co414 2.058 . S
O420 C446 1.269 1_565 S
O421 Co413 2.074 . S
O421 C446 1.257 1_565 S
H422 C447 0.930 . S
H423 C453 0.930 . S
O424 Co413 2.093 . S
O424 C416 1.224 . S
H425 C457 0.929 . S
H426 C459 0.930 . S
H427 C460 0.930 . S
H428 C458 0.929 . S
H429 C461 0.928 . S
O430 Co414 2.057 . S
O430 C418 1.232 1_556 S
H431 C450 0.962 . S
H432 C451 0.929 . S
H433 C463 0.931 . S
H434 C455 0.929 . S
H435 C464 0.930 1_545 S
H436 C456 0.931 . S
O437 Co413 2.097 . S
O437 C465 1.214 . S
H438 C466 0.929 . S
H439 C467 0.929 . S
H440 C468 0.930 . S
H441 C469 0.929 . S
H442 C471 0.930 . S
H443 C448 0.930 . S
H444 C452 0.930 . S
O445 Co414 2.037 . S
O445 C465 1.234 . S
C446 O420 1.269 1_545 S
C446 O421 1.257 1_545 S
C447 H422 0.930 . S
C447 C450 1.389 . S
C447 C452 1.418 . S
C448 H443 0.930 . S
C448 C451 1.404 . S
C448 C452 1.353 1_565 S
N449 Co414 2.145 . S
N449 C450 1.364 1_565 S
N449 C451 1.334 . S
C450 H431 0.962 . S
C450 C447 1.389 . S
C450 N449 1.364 1_545 S
C451 H432 0.929 . S
C451 C448 1.404 . S
C451 N449 1.334 . S
C452 H444 0.930 . S
C452 C447 1.418 . S
C452 C448 1.353 1_545 S
C453 H423 0.930 . S
C453 N454 1.330 . S
C453 C455 1.446 . S
N454 Co413 2.151 1_554 S
N454 C453 1.330 . S
N454 C458 1.418 . S
C455 H434 0.929 . S
C455 C453 1.446 . S
C455 C456 1.332 . S
C456 H436 0.931 . S
C456 C455 1.332 . S
C456 C457 1.267 . S
C457 H425 0.929 . S
C457 C456 1.267 . S
C457 C458 1.251 . S
C458 H428 0.929 . S
C458 N454 1.418 . S
C458 C457 1.251 . S
C459 H426 0.930 . S
C459 C461 1.406 . S
C459 C464 1.261 . S
C460 H427 0.930 . S
C460 N462 1.325 . S
C460 C463 1.357 1_565 S
C461 H429 0.928 . S
C461 C459 1.406 . S
C461 N462 1.261 . S
N462 Co413 2.214 . S
N462 C460 1.325 . S
N462 C461 1.261 . S
C463 H433 0.931 . S
C463 C460 1.357 1_545 S
C463 C464 1.312 1_545 S
C464 H435 0.930 1_565 S
C464 C459 1.261 . S
C464 C463 1.312 1_565 S
C465 O437 1.214 . S
C465 O445 1.234 . S
C466 H438 0.929 . S
C466 C469 1.391 . S
C466 C471 1.391 . S
C467 H439 0.929 . S
C467 C468 1.390 . S
C467 N470 1.391 . S
C468 H440 0.930 . S
C468 C467 1.390 . S
C468 C469 1.392 . S
C469 H441 0.929 . S
C469 C466 1.391 . S
C469 C468 1.392 . S
N470 Co414 2.257 . S
N470 C467 1.391 . S
N470 C471 1.388 . S
C471 H442 0.930 . S
C471 C466 1.391 . S
C471 N470 1.388 . S
Co472 O474 2.143 . S
Co472 O480 2.074 . S
Co472 O483 2.093 . S
Co472 O496 2.097 . S
Co472 N513 2.151 1_556 S
Co472 N521 2.214 . S
Co473 O474 2.160 . S
Co473 O479 2.058 . S
Co473 O489 2.057 . S
Co473 O504 2.037 . S
Co473 N508 2.145 . S
Co473 N529 2.257 . S
O474 Co472 2.143 . S
O474 Co473 2.160 . S
C475 O476 1.278 . S
C475 O483 1.224 . S
O476 C475 1.278 . S
C477 O478 1.245 . S
C477 O489 1.232 1_554 S
O478 C477 1.245 . S
O479 Co473 2.058 . S
O479 C505 1.269 1_455 S
O480 Co472 2.074 . S
O480 C505 1.257 1_455 S
H481 C506 0.930 . S
H482 C512 0.930 . S
O483 Co472 2.093 . S
O483 C475 1.224 . S
H484 C516 0.929 . S
H485 C518 0.930 . S
H486 C519 0.930 . S
H487 C517 0.929 . S
H488 C520 0.928 . S
O489 Co473 2.057 . S
O489 C477 1.232 1_556 S
H490 C509 0.918 . S
H491 C510 0.929 . S
H492 C522 0.931 . S
H493 C514 0.929 . S
H494 C523 0.930 1_655 S
H495 C515 0.931 . S
O496 Co472 2.097 . S
O496 C524 1.214 . S
H497 C525 0.929 . S
H498 C526 0.929 . S
H499 C527 0.930 . S
H500 C528 0.929 . S
H501 C530 0.930 . S
H502 C507 0.930 . S
H503 C511 0.930 . S
O504 Co473 2.037 . S
O504 C524 1.234 . S
C505 O479 1.269 1_655 S
C505 O480 1.257 1_655 S
C506 H481 0.930 . S
C506 C509 1.429 . S
C506 C511 1.418 . S
C507 H502 0.930 . S
C507 C510 1.404 . S
C507 C511 1.353 1_455 S
N508 Co473 2.145 . S
N508 C509 1.369 1_455 S
N508 C510 1.334 . S
C509 H490 0.918 . S
C509 C506 1.429 . S
C509 N508 1.369 1_655 S
C510 H491 0.929 . S
C510 C507 1.404 . S
C510 N508 1.334 . S
C511 H503 0.930 . S
C511 C506 1.418 . S
C511 C507 1.353 1_655 S
C512 H482 0.930 . S
C512 N513 1.330 . S
C512 C514 1.446 . S
N513 Co472 2.151 1_554 S
N513 C512 1.330 . S
N513 C517 1.418 . S
C514 H493 0.929 . S
C514 C512 1.446 . S
C514 C515 1.332 . S
C515 H495 0.931 . S
C515 C514 1.332 . S
C515 C516 1.267 . S
C516 H484 0.929 . S
C516 C515 1.267 . S
C516 C517 1.251 . S
C517 H487 0.929 . S
C517 N513 1.418 . S
C517 C516 1.251 . S
C518 H485 0.930 . S
C518 C520 1.406 . S
C518 C523 1.261 . S
C519 H486 0.930 . S
C519 N521 1.325 . S
C519 C522 1.357 1_455 S
C520 H488 0.928 . S
C520 C518 1.406 . S
C520 N521 1.261 . S
N521 Co472 2.214 . S
N521 C519 1.325 . S
N521 C520 1.261 . S
C522 H492 0.931 . S
C522 C519 1.357 1_655 S
C522 C523 1.312 1_655 S
C523 H494 0.930 1_455 S
C523 C518 1.261 . S
C523 C522 1.312 1_455 S
C524 O496 1.214 . S
C524 O504 1.234 . S
C525 H497 0.929 . S
C525 C528 1.391 . S
C525 C530 1.391 . S
C526 H498 0.929 . S
C526 C527 1.390 . S
C526 N529 1.391 . S
C527 H499 0.930 . S
C527 C526 1.390 . S
C527 C528 1.392 . S
C528 H500 0.929 . S
C528 C525 1.391 . S
C528 C527 1.392 . S
N529 Co473 2.257 . S
N529 C526 1.391 . S
N529 C530 1.388 . S
C530 H501 0.930 . S
C530 C525 1.391 . S
C530 N529 1.388 . S
Co531 O533 2.143 . S
Co531 O539 2.074 . S
Co531 O542 2.093 . S
Co531 O555 2.097 . S
Co531 N572 2.151 . S
Co531 N580 2.214 . S
Co532 O533 2.160 . S
Co532 O538 2.058 . S
Co532 O548 2.057 . S
Co532 O563 2.037 . S
Co532 N567 2.145 . S
Co532 N588 2.257 . S
O533 Co531 2.143 . S
O533 Co532 2.160 . S
C534 O535 1.278 . S
C534 O542 1.224 . S
O535 C534 1.278 . S
C536 O537 1.245 . S
C536 O548 1.232 . S
O537 C536 1.245 . S
O538 Co532 2.058 . S
O538 C564 1.269 . S
O539 Co531 2.074 . S
O539 C564 1.257 . S
H540 C565 0.930 . S
H541 C571 0.930 . S
O542 Co531 2.093 . S
O542 C534 1.224 . S
H543 C575 0.929 . S
H544 C577 0.930 . S
H545 C578 0.930 . S
H546 C576 0.929 . S
H547 C579 0.928 . S
O548 Co532 2.057 . S
O548 C536 1.232 . S
H549 C568 0.929 . S
H550 C569 0.929 . S
H551 C581 0.931 . S
H552 C573 0.929 . S
H553 C582 0.930 . S
H554 C574 0.931 . S
O555 Co531 2.097 . S
O555 C583 1.214 . S
H556 C584 0.929 . S
H557 C585 0.929 . S
H558 C586 0.930 . S
H559 C587 0.929 . S
H560 C589 0.930 . S
H561 C566 0.930 . S
H562 C570 0.930 . S
O563 Co532 2.037 . S
O563 C583 1.234 . S
C564 O538 1.269 . S
C564 O539 1.257 . S
C565 H540 0.930 . S
C565 C568 1.388 . S
C565 C570 1.418 . S
C566 H561 0.930 . S
C566 C569 1.404 . S
C566 C570 1.353 . S
N567 Co532 2.145 . S
N567 C568 1.397 . S
N567 C569 1.334 . S
C568 H549 0.929 . S
C568 C565 1.388 . S
C568 N567 1.397 . S
C569 H550 0.929 . S
C569 C566 1.404 . S
C569 N567 1.334 . S
C570 H562 0.930 . S
C570 C565 1.418 . S
C570 C566 1.353 . S
C571 H541 0.930 . S
C571 N572 1.330 . S
C571 C573 1.446 . S
N572 Co531 2.151 . S
N572 C571 1.330 . S
N572 C576 1.418 . S
C573 H552 0.929 . S
C573 C571 1.446 . S
C573 C574 1.332 . S
C574 H554 0.931 . S
C574 C573 1.332 . S
C574 C575 1.267 . S
C575 H543 0.929 . S
C575 C574 1.267 . S
C575 C576 1.251 . S
C576 H546 0.929 . S
C576 N572 1.418 . S
C576 C575 1.251 . S
C577 H544 0.930 . S
C577 C579 1.406 . S
C577 C582 1.261 . S
C578 H545 0.930 . S
C578 N580 1.325 . S
C578 C581 1.357 . S
C579 H547 0.928 . S
C579 C577 1.406 . S
C579 N580 1.261 . S
N580 Co531 2.214 . S
N580 C578 1.325 . S
N580 C579 1.261 . S
C581 H551 0.931 . S
C581 C578 1.357 . S
C581 C582 1.312 . S
C582 H553 0.930 . S
C582 C577 1.261 . S
C582 C581 1.312 . S
C583 O555 1.214 . S
C583 O563 1.234 . S
C584 H556 0.929 . S
C584 C587 1.391 . S
C584 C589 1.391 . S
C585 H557 0.929 . S
C585 C586 1.390 . S
C585 N588 1.391 . S
C586 H558 0.930 . S
C586 C585 1.390 . S
C586 C587 1.392 . S
C587 H559 0.929 . S
C587 C584 1.391 . S
C587 C586 1.392 . S
N588 Co532 2.257 . S
N588 C585 1.391 . S
N588 C589 1.388 . S
C589 H560 0.930 . S
C589 C584 1.391 . S
C589 N588 1.388 . S
Co590 O592 2.143 . S
Co590 O598 2.074 . S
Co590 O601 2.093 . S
Co590 O614 2.097 . S
Co590 N631 2.151 . S
Co590 N639 2.214 . S
Co591 O592 2.160 . S
Co591 O597 2.058 . S
Co591 O607 2.057 . S
Co591 O622 2.037 . S
Co591 N626 2.145 . S
Co591 N647 2.257 . S
O592 Co590 2.143 . S
O592 Co591 2.160 . S
C593 O594 1.278 . S
C593 O601 1.224 . S
O594 C593 1.278 . S
C595 O596 1.245 . S
C595 O607 1.232 . S
O596 C595 1.245 . S
O597 Co591 2.058 . S
O597 C623 1.269 1_545 S
O598 Co590 2.074 . S
O598 C623 1.257 1_545 S
H599 C624 0.930 . S
H600 C630 0.930 . S
O601 Co590 2.093 . S
O601 C593 1.224 . S
H602 C634 0.929 . S
H603 C636 0.930 . S
H604 C637 0.930 . S
H605 C635 0.929 . S
H606 C638 0.928 . S
O607 Co591 2.057 . S
O607 C595 1.232 . S
H608 C627 0.918 . S
H609 C628 0.929 . S
H610 C640 0.931 . S
H611 C632 0.929 . S
H612 C641 0.930 1_565 S
H613 C633 0.931 . S
O614 Co590 2.097 . S
O614 C642 1.214 . S
H615 C643 0.929 . S
H616 C644 0.929 . S
H617 C645 0.930 . S
H618 C646 0.929 . S
H619 C648 0.930 . S
H620 C625 0.930 . S
H621 C629 0.930 . S
O622 Co591 2.037 . S
O622 C642 1.234 . S
C623 O597 1.269 1_565 S
C623 O598 1.257 1_565 S
C624 H599 0.930 . S
C624 C627 1.429 . S
C624 C629 1.418 . S
C625 H620 0.930 . S
C625 C628 1.404 . S
C625 C629 1.353 1_545 S
N626 Co591 2.145 . S
N626 C627 1.369 1_545 S
N626 C628 1.334 . S
C627 H608 0.918 . S
C627 C624 1.429 . S
C627 N626 1.369 1_565 S
C628 H609 0.929 . S
C628 C625 1.404 . S
C628 N626 1.334 . S
C629 H621 0.930 . S
C629 C624 1.418 . S
C629 C625 1.353 1_565 S
C630 H600 0.930 . S
C630 N631 1.330 . S
C630 C632 1.446 . S
N631 Co590 2.151 . S
N631 C630 1.330 . S
N631 C635 1.418 . S
C632 H611 0.929 . S
C632 C630 1.446 . S
C632 C633 1.332 . S
C633 H613 0.931 . S
C633 C632 1.332 . S
C633 C634 1.267 . S
C634 H602 0.929 . S
C634 C633 1.267 . S
C634 C635 1.251 . S
C635 H605 0.929 . S
C635 N631 1.418 . S
C635 C634 1.251 . S
C636 H603 0.930 . S
C636 C638 1.406 . S
C636 C641 1.261 . S
C637 H604 0.930 . S
C637 N639 1.325 . S
C637 C640 1.357 1_545 S
C638 H606 0.928 . S
C638 C636 1.406 . S
C638 N639 1.261 . S
N639 Co590 2.214 . S
N639 C637 1.325 . S
N639 C638 1.261 . S
C640 H610 0.931 . S
C640 C637 1.357 1_565 S
C640 C641 1.312 1_565 S
C641 H612 0.930 1_545 S
C641 C636 1.261 . S
C641 C640 1.312 1_545 S
C642 O614 1.214 . S
C642 O622 1.234 . S
C643 H615 0.929 . S
C643 C646 1.391 . S
C643 C648 1.391 . S
C644 H616 0.929 . S
C644 C645 1.390 . S
C644 N647 1.391 . S
C645 H617 0.930 . S
C645 C644 1.390 . S
C645 C646 1.392 . S
C646 H618 0.929 . S
C646 C643 1.391 . S
C646 C645 1.392 . S
N647 Co591 2.257 . S
N647 C644 1.391 . S
N647 C648 1.388 . S
C648 H619 0.930 . S
C648 C643 1.391 . S
C648 N647 1.388 . S
Co649 O651 2.143 . S
Co649 O657 2.074 . S
Co649 O660 2.093 . S
Co649 O673 2.097 . S
Co649 N690 2.151 . S
Co649 N698 2.214 . S
Co650 O651 2.160 . S
Co650 O656 2.058 . S
Co650 O666 2.057 . S
Co650 O681 2.037 . S
Co650 N685 2.145 . S
Co650 N706 2.257 . S
O651 Co649 2.143 . S
O651 Co650 2.160 . S
C652 O653 1.278 . S
C652 O660 1.224 . S
O653 C652 1.278 . S
C654 O655 1.245 . S
C654 O666 1.232 . S
O655 C654 1.245 . S
O656 Co650 2.058 . S
O656 C682 1.269 1_655 S
O657 Co649 2.074 . S
O657 C682 1.257 1_655 S
H658 C683 0.930 . S
H659 C689 0.930 . S
O660 Co649 2.093 . S
O660 C652 1.224 . S
H661 C693 0.929 . S
H662 C695 0.930 . S
H663 C696 0.930 . S
H664 C694 0.929 . S
H665 C697 0.928 . S
O666 Co650 2.057 . S
O666 C654 1.232 . S
H667 C686 0.962 . S
H668 C687 0.929 . S
H669 C699 0.931 . S
H670 C691 0.929 . S
H671 C700 0.930 1_455 S
H672 C692 0.931 . S
O673 Co649 2.097 . S
O673 C701 1.214 . S
H674 C702 0.929 . S
H675 C703 0.929 . S
H676 C704 0.930 . S
H677 C705 0.929 . S
H678 C707 0.930 . S
H679 C684 0.930 . S
H680 C688 0.930 . S
O681 Co650 2.037 . S
O681 C701 1.234 . S
C682 O656 1.269 1_455 S
C682 O657 1.257 1_455 S
C683 H658 0.930 . S
C683 C686 1.389 . S
C683 C688 1.418 . S
C684 H679 0.930 . S
C684 C687 1.404 . S
C684 C688 1.353 1_655 S
N685 Co650 2.145 . S
N685 C686 1.364 1_655 S
N685 C687 1.334 . S
C686 H667 0.962 . S
C686 C683 1.389 . S
C686 N685 1.364 1_455 S
C687 H668 0.929 . S
C687 C684 1.404 . S
C687 N685 1.334 . S
C688 H680 0.930 . S
C688 C683 1.418 . S
C688 C684 1.353 1_455 S
C689 H659 0.930 . S
C689 N690 1.330 . S
C689 C691 1.446 . S
N690 Co649 2.151 . S
N690 C689 1.330 . S
N690 C694 1.418 . S
C691 H670 0.929 . S
C691 C689 1.446 . S
C691 C692 1.332 . S
C692 H672 0.931 . S
C692 C691 1.332 . S
C692 C693 1.267 . S
C693 H661 0.929 . S
C693 C692 1.267 . S
C693 C694 1.251 . S
C694 H664 0.929 . S
C694 N690 1.418 . S
C694 C693 1.251 . S
C695 H662 0.930 . S
C695 C697 1.406 . S
C695 C700 1.261 . S
C696 H663 0.930 . S
C696 N698 1.325 . S
C696 C699 1.357 1_655 S
C697 H665 0.928 . S
C697 C695 1.406 . S
C697 N698 1.261 . S
N698 Co649 2.214 . S
N698 C696 1.325 . S
N698 C697 1.261 . S
C699 H669 0.931 . S
C699 C696 1.357 1_455 S
C699 C700 1.312 1_455 S
C700 H671 0.930 1_655 S
C700 C695 1.261 . S
C700 C699 1.312 1_655 S
C701 O673 1.214 . S
C701 O681 1.234 . S
C702 H674 0.929 . S
C702 C705 1.391 . S
C702 C707 1.391 . S
C703 H675 0.929 . S
C703 C704 1.390 . S
C703 N706 1.391 . S
C704 H676 0.930 . S
C704 C703 1.390 . S
C704 C705 1.392 . S
C705 H677 0.929 . S
C705 C702 1.391 . S
C705 C704 1.392 . S
N706 Co650 2.257 . S
N706 C703 1.391 . S
N706 C707 1.388 . S
C707 H678 0.930 . S
C707 C702 1.391 . S
C707 N706 1.388 . S
Co708 O710 2.143 . S
Co708 O716 2.074 . S
Co708 O719 2.093 . S
Co708 O732 2.097 . S
Co708 N749 2.151 . S
Co708 N757 2.214 . S
Co709 O710 2.160 . S
Co709 O715 2.058 . S
Co709 O725 2.057 . S
Co709 O740 2.037 . S
Co709 N744 2.145 . S
Co709 N765 2.257 . S
O710 Co708 2.143 . S
O710 Co709 2.160 . S
C711 O712 1.278 . S
C711 O719 1.224 . S
O712 C711 1.278 . S
C713 O714 1.245 . S
C713 O725 1.232 . S
O714 C713 1.245 . S
O715 Co709 2.058 . S
O715 C741 1.269 . S
O716 Co708 2.074 . S
O716 C741 1.257 . S
H717 C742 0.930 . S
H718 C748 0.930 . S
O719 Co708 2.093 . S
O719 C711 1.224 . S
H720 C752 0.929 . S
H721 C754 0.930 . S
H722 C755 0.930 . S
H723 C753 0.929 . S
H724 C756 0.928 . S
O725 Co709 2.057 . S
O725 C713 1.232 . S
H726 C745 0.929 . S
H727 C746 0.929 . S
H728 C758 0.931 . S
H729 C750 0.929 . S
H730 C759 0.930 . S
H731 C751 0.931 . S
O732 Co708 2.097 . S
O732 C760 1.214 . S
H733 C761 0.929 . S
H734 C762 0.929 . S
H735 C763 0.930 . S
H736 C764 0.929 . S
H737 C766 0.930 . S
H738 C743 0.930 . S
H739 C747 0.930 . S
O740 Co709 2.037 . S
O740 C760 1.234 . S
C741 O715 1.269 . S
C741 O716 1.257 . S
C742 H717 0.930 . S
C742 C745 1.388 . S
C742 C747 1.418 . S
C743 H738 0.930 . S
C743 C746 1.404 . S
C743 C747 1.353 . S
N744 Co709 2.145 . S
N744 C745 1.397 . S
N744 C746 1.334 . S
C745 H726 0.929 . S
C745 C742 1.388 . S
C745 N744 1.397 . S
C746 H727 0.929 . S
C746 C743 1.404 . S
C746 N744 1.334 . S
C747 H739 0.930 . S
C747 C742 1.418 . S
C747 C743 1.353 . S
C748 H718 0.930 . S
C748 N749 1.330 . S
C748 C750 1.446 . S
N749 Co708 2.151 . S
N749 C748 1.330 . S
N749 C753 1.418 . S
C750 H729 0.929 . S
C750 C748 1.446 . S
C750 C751 1.332 . S
C751 H731 0.931 . S
C751 C750 1.332 . S
C751 C752 1.267 . S
C752 H720 0.929 . S
C752 C751 1.267 . S
C752 C753 1.251 . S
C753 H723 0.929 . S
C753 N749 1.418 . S
C753 C752 1.251 . S
C754 H721 0.930 . S
C754 C756 1.406 . S
C754 C759 1.261 . S
C755 H722 0.930 . S
C755 N757 1.325 . S
C755 C758 1.357 . S
C756 H724 0.928 . S
C756 C754 1.406 . S
C756 N757 1.261 . S
N757 Co708 2.214 . S
N757 C755 1.325 . S
N757 C756 1.261 . S
C758 H728 0.931 . S
C758 C755 1.357 . S
C758 C759 1.312 . S
C759 H730 0.930 . S
C759 C754 1.261 . S
C759 C758 1.312 . S
C760 O732 1.214 . S
C760 O740 1.234 . S
C761 H733 0.929 . S
C761 C764 1.391 . S
C761 C766 1.391 . S
C762 H734 0.929 . S
C762 C763 1.390 . S
C762 N765 1.391 . S
C763 H735 0.930 . S
C763 C762 1.390 . S
C763 C764 1.392 . S
C764 H736 0.929 . S
C764 C761 1.391 . S
C764 C763 1.392 . S
N765 Co709 2.257 . S
N765 C762 1.391 . S
N765 C766 1.388 . S
C766 H737 0.930 . S
C766 C761 1.391 . S
C766 N765 1.388 . S
Co767 O769 2.143 . S
Co767 O775 2.074 . S
Co767 O778 2.093 . S
Co767 O791 2.097 . S
Co767 N808 2.151 . S
Co767 N816 2.214 . S
Co768 O769 2.160 . S
Co768 O774 2.058 . S
Co768 O784 2.057 . S
Co768 O799 2.037 . S
Co768 N803 2.145 . S
Co768 N824 2.257 . S
O769 Co767 2.143 . S
O769 Co768 2.160 . S
C770 O771 1.278 . S
C770 O778 1.224 . S
O771 C770 1.278 . S
C772 O773 1.245 . S
C772 O784 1.232 . S
O773 C772 1.245 . S
O774 Co768 2.058 . S
O774 C800 1.269 . S
O775 Co767 2.074 . S
O775 C800 1.257 . S
H776 C801 0.930 . S
H777 C807 0.930 . S
O778 Co767 2.093 . S
O778 C770 1.224 . S
H779 C811 0.929 . S
H780 C813 0.930 . S
H781 C814 0.930 . S
H782 C812 0.929 . S
H783 C815 0.928 . S
O784 Co768 2.057 . S
O784 C772 1.232 . S
H785 C804 0.929 . S
H786 C805 0.929 . S
H787 C817 0.931 . S
H788 C809 0.929 . S
H789 C818 0.930 . S
H790 C810 0.931 . S
O791 Co767 2.097 . S
O791 C819 1.214 . S
H792 C820 0.929 . S
H793 C821 0.929 . S
H794 C822 0.930 . S
H795 C823 0.929 . S
H796 C825 0.930 . S
H797 C802 0.930 . S
H798 C806 0.930 . S
O799 Co768 2.037 . S
O799 C819 1.234 . S
C800 O774 1.269 . S
C800 O775 1.257 . S
C801 H776 0.930 . S
C801 C804 1.388 . S
C801 C806 1.418 . S
C802 H797 0.930 . S
C802 C805 1.404 . S
C802 C806 1.353 . S
N803 Co768 2.145 . S
N803 C804 1.397 . S
N803 C805 1.334 . S
C804 H785 0.929 . S
C804 C801 1.388 . S
C804 N803 1.397 . S
C805 H786 0.929 . S
C805 C802 1.404 . S
C805 N803 1.334 . S
C806 H798 0.930 . S
C806 C801 1.418 . S
C806 C802 1.353 . S
C807 H777 0.930 . S
C807 N808 1.330 . S
C807 C809 1.446 . S
N808 Co767 2.151 . S
N808 C807 1.330 . S
N808 C812 1.418 . S
C809 H788 0.929 . S
C809 C807 1.446 . S
C809 C810 1.332 . S
C810 H790 0.931 . S
C810 C809 1.332 . S
C810 C811 1.267 . S
C811 H779 0.929 . S
C811 C810 1.267 . S
C811 C812 1.251 . S
C812 H782 0.929 . S
C812 N808 1.418 . S
C812 C811 1.251 . S
C813 H780 0.930 . S
C813 C815 1.406 . S
C813 C818 1.261 . S
C814 H781 0.930 . S
C814 N816 1.325 . S
C814 C817 1.357 . S
C815 H783 0.928 . S
C815 C813 1.406 . S
C815 N816 1.261 . S
N816 Co767 2.214 . S
N816 C814 1.325 . S
N816 C815 1.261 . S
C817 H787 0.931 . S
C817 C814 1.357 . S
C817 C818 1.312 . S
C818 H789 0.930 . S
C818 C813 1.261 . S
C818 C817 1.312 . S
C819 O791 1.214 . S
C819 O799 1.234 . S
C820 H792 0.929 . S
C820 C823 1.391 . S
C820 C825 1.391 . S
C821 H793 0.929 . S
C821 C822 1.390 . S
C821 N824 1.391 . S
C822 H794 0.930 . S
C822 C821 1.390 . S
C822 C823 1.392 . S
C823 H795 0.929 . S
C823 C820 1.391 . S
C823 C822 1.392 . S
N824 Co768 2.257 . S
N824 C821 1.391 . S
N824 C825 1.388 . S
C825 H796 0.930 . S
C825 C820 1.391 . S
C825 N824 1.388 . S
Co826 O828 2.143 . S
Co826 O834 2.074 . S
Co826 O837 2.093 . S
Co826 O850 2.097 . S
Co826 N867 2.151 . S
Co826 N875 2.214 . S
Co827 O828 2.160 . S
Co827 O833 2.058 . S
Co827 O843 2.057 . S
Co827 O858 2.037 . S
Co827 N862 2.145 . S
Co827 N883 2.257 . S
O828 Co826 2.143 . S
O828 Co827 2.160 . S
C829 O830 1.278 . S
C829 O837 1.224 . S
O830 C829 1.278 . S
C831 O832 1.245 . S
C831 O843 1.232 . S
O832 C831 1.245 . S
O833 Co827 2.058 . S
O833 C859 1.269 . S
O834 Co826 2.074 . S
O834 C859 1.257 . S
H835 C860 0.930 . S
H836 C866 0.930 . S
O837 Co826 2.093 . S
O837 C829 1.224 . S
H838 C870 0.929 . S
H839 C872 0.930 . S
H840 C873 0.930 . S
H841 C871 0.929 . S
H842 C874 0.928 . S
O843 Co827 2.057 . S
O843 C831 1.232 . S
H844 C863 0.929 . S
H845 C864 0.929 . S
H846 C876 0.931 . S
H847 C868 0.929 . S
H848 C877 0.930 . S
H849 C869 0.931 . S
O850 Co826 2.097 . S
O850 C878 1.214 . S
H851 C879 0.929 . S
H852 C880 0.929 . S
H853 C881 0.930 . S
H854 C882 0.929 . S
H855 C884 0.930 . S
H856 C861 0.930 . S
H857 C865 0.930 . S
O858 Co827 2.037 . S
O858 C878 1.234 . S
C859 O833 1.269 . S
C859 O834 1.257 . S
C860 H835 0.930 . S
C860 C863 1.388 . S
C860 C865 1.418 . S
C861 H856 0.930 . S
C861 C864 1.404 . S
C861 C865 1.353 . S
N862 Co827 2.145 . S
N862 C863 1.397 . S
N862 C864 1.334 . S
C863 H844 0.929 . S
C863 C860 1.388 . S
C863 N862 1.397 . S
C864 H845 0.929 . S
C864 C861 1.404 . S
C864 N862 1.334 . S
C865 H857 0.930 . S
C865 C860 1.418 . S
C865 C861 1.353 . S
C866 H836 0.930 . S
C866 N867 1.330 . S
C866 C868 1.446 . S
N867 Co826 2.151 . S
N867 C866 1.330 . S
N867 C871 1.418 . S
C868 H847 0.929 . S
C868 C866 1.446 . S
C868 C869 1.332 . S
C869 H849 0.931 . S
C869 C868 1.332 . S
C869 C870 1.267 . S
C870 H838 0.929 . S
C870 C869 1.267 . S
C870 C871 1.251 . S
C871 H841 0.929 . S
C871 N867 1.418 . S
C871 C870 1.251 . S
C872 H839 0.930 . S
C872 C874 1.406 . S
C872 C877 1.261 . S
C873 H840 0.930 . S
C873 N875 1.325 . S
C873 C876 1.357 . S
C874 H842 0.928 . S
C874 C872 1.406 . S
C874 N875 1.261 . S
N875 Co826 2.214 . S
N875 C873 1.325 . S
N875 C874 1.261 . S
C876 H846 0.931 . S
C876 C873 1.357 . S
C876 C877 1.312 . S
C877 H848 0.930 . S
C877 C872 1.261 . S
C877 C876 1.312 . S
C878 O850 1.214 . S
C878 O858 1.234 . S
C879 H851 0.929 . S
C879 C882 1.391 . S
C879 C884 1.391 . S
C880 H852 0.929 . S
C880 C881 1.390 . S
C880 N883 1.391 . S
C881 H853 0.930 . S
C881 C880 1.390 . S
C881 C882 1.392 . S
C882 H854 0.929 . S
C882 C879 1.391 . S
C882 C881 1.392 . S
N883 Co827 2.257 . S
N883 C880 1.391 . S
N883 C884 1.388 . S
C884 H855 0.930 . S
C884 C879 1.391 . S
C884 N883 1.388 . S
Co885 O887 2.143 . S
Co885 O893 2.074 . S
Co885 O896 2.093 . S
Co885 O909 2.097 . S
Co885 N926 2.151 . S
Co885 N934 2.214 . S
Co886 O887 2.160 . S
Co886 O892 2.058 . S
Co886 O902 2.057 . S
Co886 O917 2.037 . S
Co886 N921 2.145 . S
Co886 N942 2.257 . S
O887 Co885 2.143 . S
O887 Co886 2.160 . S
C888 O889 1.278 . S
C888 O896 1.224 . S
O889 C888 1.278 . S
C890 O891 1.245 . S
C890 O902 1.232 . S
O891 C890 1.245 . S
O892 Co886 2.058 . S
O892 C918 1.269 . S
O893 Co885 2.074 . S
O893 C918 1.257 . S
H894 C919 0.930 . S
H895 C925 0.930 . S
O896 Co885 2.093 . S
O896 C888 1.224 . S
H897 C929 0.929 . S
H898 C931 0.930 . S
H899 C932 0.930 . S
H900 C930 0.929 . S
H901 C933 0.928 . S
O902 Co886 2.057 . S
O902 C890 1.232 . S
H903 C922 0.929 . S
H904 C923 0.929 . S
H905 C935 0.931 . S
H906 C927 0.929 . S
H907 C936 0.930 . S
H908 C928 0.931 . S
O909 Co885 2.097 . S
O909 C937 1.214 . S
H910 C938 0.929 . S
H911 C939 0.929 . S
H912 C940 0.930 . S
H913 C941 0.929 . S
H914 C943 0.930 . S
H915 C920 0.930 . S
H916 C924 0.930 . S
O917 Co886 2.037 . S
O917 C937 1.234 . S
C918 O892 1.269 . S
C918 O893 1.257 . S
C919 H894 0.930 . S
C919 C922 1.388 . S
C919 C924 1.418 . S
C920 H915 0.930 . S
C920 C923 1.404 . S
C920 C924 1.353 . S
N921 Co886 2.145 . S
N921 C922 1.397 . S
N921 C923 1.334 . S
C922 H903 0.929 . S
C922 C919 1.388 . S
C922 N921 1.397 . S
C923 H904 0.929 . S
C923 C920 1.404 . S
C923 N921 1.334 . S
C924 H916 0.930 . S
C924 C919 1.418 . S
C924 C920 1.353 . S
C925 H895 0.930 . S
C925 N926 1.330 . S
C925 C927 1.446 . S
N926 Co885 2.151 . S
N926 C925 1.330 . S
N926 C930 1.418 . S
C927 H906 0.929 . S
C927 C925 1.446 . S
C927 C928 1.332 . S
C928 H908 0.931 . S
C928 C927 1.332 . S
C928 C929 1.267 . S
C929 H897 0.929 . S
C929 C928 1.267 . S
C929 C930 1.251 . S
C930 H900 0.929 . S
C930 N926 1.418 . S
C930 C929 1.251 . S
C931 H898 0.930 . S
C931 C933 1.406 . S
C931 C936 1.261 . S
C932 H899 0.930 . S
C932 N934 1.325 . S
C932 C935 1.357 . S
C933 H901 0.928 . S
C933 C931 1.406 . S
C933 N934 1.261 . S
N934 Co885 2.214 . S
N934 C932 1.325 . S
N934 C933 1.261 . S
C935 H905 0.931 . S
C935 C932 1.357 . S
C935 C936 1.312 . S
C936 H907 0.930 . S
C936 C931 1.261 . S
C936 C935 1.312 . S
C937 O909 1.214 . S
C937 O917 1.234 . S
C938 H910 0.929 . S
C938 C941 1.391 . S
C938 C943 1.391 . S
C939 H911 0.929 . S
C939 C940 1.390 . S
C939 N942 1.391 . S
C940 H912 0.930 . S
C940 C939 1.390 . S
C940 C941 1.392 . S
C941 H913 0.929 . S
C941 C938 1.391 . S
C941 C940 1.392 . S
N942 Co886 2.257 . S
N942 C939 1.391 . S
N942 C943 1.388 . S
C943 H914 0.930 . S
C943 C938 1.391 . S
C943 N942 1.388 . S
Co944 O946 2.143 . S
Co944 O952 2.074 . S
Co944 O955 2.093 . S
Co944 O968 2.097 . S
Co944 N985 2.151 . S
Co944 N993 2.214 . S
Co945 O946 2.160 . S
Co945 O951 2.058 . S
Co945 O961 2.057 . S
Co945 O976 2.037 . S
Co945 N980 2.145 . S
Co945 N1001 2.257 . S
O946 Co944 2.143 . S
O946 Co945 2.160 . S
C947 O948 1.278 . S
C947 O955 1.224 . S
O948 C947 1.278 . S
C949 O950 1.245 . S
C949 O961 1.232 . S
O950 C949 1.245 . S
O951 Co945 2.058 . S
O951 C977 1.269 . S
O952 Co944 2.074 . S
O952 C977 1.257 . S
H953 C978 0.930 . S
H954 C984 0.930 . S
O955 Co944 2.093 . S
O955 C947 1.224 . S
H956 C988 0.929 . S
H957 C990 0.930 . S
H958 C991 0.930 . S
H959 C989 0.929 . S
H960 C992 0.928 . S
O961 Co945 2.057 . S
O961 C949 1.232 . S
H962 C981 0.929 . S
H963 C982 0.929 . S
H964 C994 0.931 . S
H965 C986 0.929 . S
H966 C995 0.930 . S
H967 C987 0.931 . S
O968 Co944 2.097 . S
O968 C996 1.214 . S
H969 C997 0.929 . S
H970 C998 0.929 . S
H971 C999 0.930 . S
H972 C1000 0.929 . S
H973 C1002 0.930 . S
H974 C979 0.930 . S
H975 C983 0.930 . S
O976 Co945 2.037 . S
O976 C996 1.234 . S
C977 O951 1.269 . S
C977 O952 1.257 . S
C978 H953 0.930 . S
C978 C981 1.388 . S
C978 C983 1.418 . S
C979 H974 0.930 . S
C979 C982 1.404 . S
C979 C983 1.353 . S
N980 Co945 2.145 . S
N980 C981 1.397 . S
N980 C982 1.334 . S
C981 H962 0.929 . S
C981 C978 1.388 . S
C981 N980 1.397 . S
C982 H963 0.929 . S
C982 C979 1.404 . S
C982 N980 1.334 . S
C983 H975 0.930 . S
C983 C978 1.418 . S
C983 C979 1.353 . S
C984 H954 0.930 . S
C984 N985 1.330 . S
C984 C986 1.446 . S
N985 Co944 2.151 . S
N985 C984 1.330 . S
N985 C989 1.418 . S
C986 H965 0.929 . S
C986 C984 1.446 . S
C986 C987 1.332 . S
C987 H967 0.931 . S
C987 C986 1.332 . S
C987 C988 1.267 . S
C988 H956 0.929 . S
C988 C987 1.267 . S
C988 C989 1.251 . S
C989 H959 0.929 . S
C989 N985 1.418 . S
C989 C988 1.251 . S
C990 H957 0.930 . S
C990 C992 1.406 . S
C990 C995 1.261 . S
C991 H958 0.930 . S
C991 N993 1.325 . S
C991 C994 1.357 . S
C992 H960 0.928 . S
C992 C990 1.406 . S
C992 N993 1.261 . S
N993 Co944 2.214 . S
N993 C991 1.325 . S
N993 C992 1.261 . S
C994 H964 0.931 . S
C994 C991 1.357 . S
C994 C995 1.312 . S
C995 H966 0.930 . S
C995 C990 1.261 . S
C995 C994 1.312 . S
C996 O968 1.214 . S
C996 O976 1.234 . S
C997 H969 0.929 . S
C997 C1000 1.391 . S
C997 C1002 1.391 . S
C998 H970 0.929 . S
C998 C999 1.390 . S
C998 N1001 1.391 . S
C999 H971 0.930 . S
C999 C998 1.390 . S
C999 C1000 1.392 . S
C1000 H972 0.929 . S
C1000 C997 1.391 . S
C1000 C999 1.392 . S
N1001 Co945 2.257 . S
N1001 C998 1.391 . S
N1001 C1002 1.388 . S
C1002 H973 0.930 . S
C1002 C997 1.391 . S
C1002 N1001 1.388 . S
Co1003 O1005 2.143 . S
Co1003 O1011 2.074 . S
Co1003 O1014 2.093 . S
Co1003 O1027 2.097 . S
Co1003 N1044 2.151 . S
Co1003 N1052 2.214 . S
Co1004 O1005 2.160 . S
Co1004 O1010 2.058 . S
Co1004 O1020 2.057 . S
Co1004 O1035 2.037 . S
Co1004 N1039 2.145 . S
Co1004 N1060 2.257 . S
O1005 Co1003 2.143 . S
O1005 Co1004 2.160 . S
C1006 O1007 1.278 . S
C1006 O1014 1.224 . S
O1007 C1006 1.278 . S
C1008 O1009 1.245 . S
C1008 O1020 1.232 . S
O1009 C1008 1.245 . S
O1010 Co1004 2.058 . S
O1010 C1036 1.269 . S
O1011 Co1003 2.074 . S
O1011 C1036 1.257 . S
H1012 C1037 0.930 . S
H1013 C1043 0.930 . S
O1014 Co1003 2.093 . S
O1014 C1006 1.224 . S
H1015 C1047 0.929 . S
H1016 C1049 0.930 . S
H1017 C1050 0.930 . S
H1018 C1048 0.929 . S
H1019 C1051 0.928 . S
O1020 Co1004 2.057 . S
O1020 C1008 1.232 . S
H1021 C1040 0.929 . S
H1022 C1041 0.929 . S
H1023 C1053 0.931 . S
H1024 C1045 0.929 . S
H1025 C1054 0.930 . S
H1026 C1046 0.931 . S
O1027 Co1003 2.097 . S
O1027 C1055 1.214 . S
H1028 C1056 0.929 . S
H1029 C1057 0.929 . S
H1030 C1058 0.930 . S
H1031 C1059 0.929 . S
H1032 C1061 0.930 . S
H1033 C1038 0.930 . S
H1034 C1042 0.930 . S
O1035 Co1004 2.037 . S
O1035 C1055 1.234 . S
C1036 O1010 1.269 . S
C1036 O1011 1.257 . S
C1037 H1012 0.930 . S
C1037 C1040 1.388 . S
C1037 C1042 1.418 . S
C1038 H1033 0.930 . S
C1038 C1041 1.404 . S
C1038 C1042 1.353 . S
N1039 Co1004 2.145 . S
N1039 C1040 1.397 . S
N1039 C1041 1.334 . S
C1040 H1021 0.929 . S
C1040 C1037 1.388 . S
C1040 N1039 1.397 . S
C1041 H1022 0.929 . S
C1041 C1038 1.404 . S
C1041 N1039 1.334 . S
C1042 H1034 0.930 . S
C1042 C1037 1.418 . S
C1042 C1038 1.353 . S
C1043 H1013 0.930 . S
C1043 N1044 1.330 . S
C1043 C1045 1.446 . S
N1044 Co1003 2.151 . S
N1044 C1043 1.330 . S
N1044 C1048 1.418 . S
C1045 H1024 0.929 . S
C1045 C1043 1.446 . S
C1045 C1046 1.332 . S
C1046 H1026 0.931 . S
C1046 C1045 1.332 . S
C1046 C1047 1.267 . S
C1047 H1015 0.929 . S
C1047 C1046 1.267 . S
C1047 C1048 1.251 . S
C1048 H1018 0.929 . S
C1048 N1044 1.418 . S
C1048 C1047 1.251 . S
C1049 H1016 0.930 . S
C1049 C1051 1.406 . S
C1049 C1054 1.261 . S
C1050 H1017 0.930 . S
C1050 N1052 1.325 . S
C1050 C1053 1.357 . S
C1051 H1019 0.928 . S
C1051 C1049 1.406 . S
C1051 N1052 1.261 . S
N1052 Co1003 2.214 . S
N1052 C1050 1.325 . S
N1052 C1051 1.261 . S
C1053 H1023 0.931 . S
C1053 C1050 1.357 . S
C1053 C1054 1.312 . S
C1054 H1025 0.930 . S
C1054 C1049 1.261 . S
C1054 C1053 1.312 . S
C1055 O1027 1.214 . S
C1055 O1035 1.234 . S
C1056 H1028 0.929 . S
C1056 C1059 1.391 . S
C1056 C1061 1.391 . S
C1057 H1029 0.929 . S
C1057 C1058 1.390 . S
C1057 N1060 1.391 . S
C1058 H1030 0.930 . S
C1058 C1057 1.390 . S
C1058 C1059 1.392 . S
C1059 H1031 0.929 . S
C1059 C1056 1.391 . S
C1059 C1058 1.392 . S
N1060 Co1004 2.257 . S
N1060 C1057 1.391 . S
N1060 C1061 1.388 . S
C1061 H1032 0.930 . S
C1061 C1056 1.391 . S
C1061 N1060 1.388 . S
Co1062 O1064 2.143 . S
Co1062 O1070 2.074 . S
Co1062 O1073 2.093 . S
Co1062 O1086 2.097 . S
Co1062 N1103 2.151 . S
Co1062 N1111 2.214 . S
Co1063 O1064 2.160 . S
Co1063 O1069 2.058 . S
Co1063 O1079 2.057 . S
Co1063 O1094 2.037 . S
Co1063 N1098 2.145 . S
Co1063 N1119 2.257 . S
O1064 Co1062 2.143 . S
O1064 Co1063 2.160 . S
C1065 O1066 1.278 . S
C1065 O1073 1.224 . S
O1066 C1065 1.278 . S
C1067 O1068 1.245 . S
C1067 O1079 1.232 . S
O1068 C1067 1.245 . S
O1069 Co1063 2.058 . S
O1069 C1095 1.269 . S
O1070 Co1062 2.074 . S
O1070 C1095 1.257 . S
H1071 C1096 0.930 . S
H1072 C1102 0.930 . S
O1073 Co1062 2.093 . S
O1073 C1065 1.224 . S
H1074 C1106 0.929 . S
H1075 C1108 0.930 . S
H1076 C1109 0.930 . S
H1077 C1107 0.929 . S
H1078 C1110 0.928 . S
O1079 Co1063 2.057 . S
O1079 C1067 1.232 . S
H1080 C1099 0.929 . S
H1081 C1100 0.929 . S
H1082 C1112 0.931 . S
H1083 C1104 0.929 . S
H1084 C1113 0.930 . S
H1085 C1105 0.931 . S
O1086 Co1062 2.097 . S
O1086 C1114 1.214 . S
H1087 C1115 0.929 . S
H1088 C1116 0.929 . S
H1089 C1117 0.930 . S
H1090 C1118 0.929 . S
H1091 C1120 0.930 . S
H1092 C1097 0.930 . S
H1093 C1101 0.930 . S
O1094 Co1063 2.037 . S
O1094 C1114 1.234 . S
C1095 O1069 1.269 . S
C1095 O1070 1.257 . S
C1096 H1071 0.930 . S
C1096 C1099 1.388 . S
C1096 C1101 1.418 . S
C1097 H1092 0.930 . S
C1097 C1100 1.404 . S
C1097 C1101 1.353 . S
N1098 Co1063 2.145 . S
N1098 C1099 1.397 . S
N1098 C1100 1.334 . S
C1099 H1080 0.929 . S
C1099 C1096 1.388 . S
C1099 N1098 1.397 . S
C1100 H1081 0.929 . S
C1100 C1097 1.404 . S
C1100 N1098 1.334 . S
C1101 H1093 0.930 . S
C1101 C1096 1.418 . S
C1101 C1097 1.353 . S
C1102 H1072 0.930 . S
C1102 N1103 1.330 . S
C1102 C1104 1.446 . S
N1103 Co1062 2.151 . S
N1103 C1102 1.330 . S
N1103 C1107 1.418 . S
C1104 H1083 0.929 . S
C1104 C1102 1.446 . S
C1104 C1105 1.332 . S
C1105 H1085 0.931 . S
C1105 C1104 1.332 . S
C1105 C1106 1.267 . S
C1106 H1074 0.929 . S
C1106 C1105 1.267 . S
C1106 C1107 1.251 . S
C1107 H1077 0.929 . S
C1107 N1103 1.418 . S
C1107 C1106 1.251 . S
C1108 H1075 0.930 . S
C1108 C1110 1.406 . S
C1108 C1113 1.261 . S
C1109 H1076 0.930 . S
C1109 N1111 1.325 . S
C1109 C1112 1.357 . S
C1110 H1078 0.928 . S
C1110 C1108 1.406 . S
C1110 N1111 1.261 . S
N1111 Co1062 2.214 . S
N1111 C1109 1.325 . S
N1111 C1110 1.261 . S
C1112 H1082 0.931 . S
C1112 C1109 1.357 . S
C1112 C1113 1.312 . S
C1113 H1084 0.930 . S
C1113 C1108 1.261 . S
C1113 C1112 1.312 . S
C1114 O1086 1.214 . S
C1114 O1094 1.234 . S
C1115 H1087 0.929 . S
C1115 C1118 1.391 . S
C1115 C1120 1.391 . S
C1116 H1088 0.929 . S
C1116 C1117 1.390 . S
C1116 N1119 1.391 . S
C1117 H1089 0.930 . S
C1117 C1116 1.390 . S
C1117 C1118 1.392 . S
C1118 H1090 0.929 . S
C1118 C1115 1.391 . S
C1118 C1117 1.392 . S
N1119 Co1063 2.257 . S
N1119 C1116 1.391 . S
N1119 C1120 1.388 . S
C1120 H1091 0.930 . S
C1120 C1115 1.391 . S
C1120 N1119 1.388 . S
Co1121 O1123 2.143 . S
Co1121 O1129 2.074 . S
Co1121 O1132 2.093 . S
Co1121 O1145 2.097 . S
Co1121 N1162 2.151 . S
Co1121 N1170 2.214 . S
Co1122 O1123 2.160 . S
Co1122 O1128 2.058 . S
Co1122 O1138 2.057 . S
Co1122 O1153 2.037 . S
Co1122 N1157 2.145 . S
Co1122 N1178 2.257 . S
O1123 Co1121 2.143 . S
O1123 Co1122 2.160 . S
C1124 O1125 1.278 . S
C1124 O1132 1.224 . S
O1125 C1124 1.278 . S
C1126 O1127 1.245 . S
C1126 O1138 1.232 . S
O1127 C1126 1.245 . S
O1128 Co1122 2.058 . S
O1128 C1154 1.269 . S
O1129 Co1121 2.074 . S
O1129 C1154 1.257 . S
H1130 C1155 0.930 . S
H1131 C1161 0.930 . S
O1132 Co1121 2.093 . S
O1132 C1124 1.224 . S
H1133 C1165 0.929 . S
H1134 C1167 0.930 . S
H1135 C1168 0.930 . S
H1136 C1166 0.929 . S
H1137 C1169 0.928 . S
O1138 Co1122 2.057 . S
O1138 C1126 1.232 . S
H1139 C1158 0.929 . S
H1140 C1159 0.929 . S
H1141 C1171 0.931 . S
H1142 C1163 0.929 . S
H1143 C1172 0.930 . S
H1144 C1164 0.931 . S
O1145 Co1121 2.097 . S
O1145 C1173 1.214 . S
H1146 C1174 0.929 . S
H1147 C1175 0.929 . S
H1148 C1176 0.930 . S
H1149 C1177 0.929 . S
H1150 C1179 0.930 . S
H1151 C1156 0.930 . S
H1152 C1160 0.930 . S
O1153 Co1122 2.037 . S
O1153 C1173 1.234 . S
C1154 O1128 1.269 . S
C1154 O1129 1.257 . S
C1155 H1130 0.930 . S
C1155 C1158 1.388 . S
C1155 C1160 1.418 . S
C1156 H1151 0.930 . S
C1156 C1159 1.404 . S
C1156 C1160 1.353 . S
N1157 Co1122 2.145 . S
N1157 C1158 1.397 . S
N1157 C1159 1.334 . S
C1158 H1139 0.929 . S
C1158 C1155 1.388 . S
C1158 N1157 1.397 . S
C1159 H1140 0.929 . S
C1159 C1156 1.404 . S
C1159 N1157 1.334 . S
C1160 H1152 0.930 . S
C1160 C1155 1.418 . S
C1160 C1156 1.353 . S
C1161 H1131 0.930 . S
C1161 N1162 1.330 . S
C1161 C1163 1.446 . S
N1162 Co1121 2.151 . S
N1162 C1161 1.330 . S
N1162 C1166 1.418 . S
C1163 H1142 0.929 . S
C1163 C1161 1.446 . S
C1163 C1164 1.332 . S
C1164 H1144 0.931 . S
C1164 C1163 1.332 . S
C1164 C1165 1.267 . S
C1165 H1133 0.929 . S
C1165 C1164 1.267 . S
C1165 C1166 1.251 . S
C1166 H1136 0.929 . S
C1166 N1162 1.418 . S
C1166 C1165 1.251 . S
C1167 H1134 0.930 . S
C1167 C1169 1.406 . S
C1167 C1172 1.261 . S
C1168 H1135 0.930 . S
C1168 N1170 1.325 . S
C1168 C1171 1.357 . S
C1169 H1137 0.928 . S
C1169 C1167 1.406 . S
C1169 N1170 1.261 . S
N1170 Co1121 2.214 . S
N1170 C1168 1.325 . S
N1170 C1169 1.261 . S
C1171 H1141 0.931 . S
C1171 C1168 1.357 . S
C1171 C1172 1.312 . S
C1172 H1143 0.930 . S
C1172 C1167 1.261 . S
C1172 C1171 1.312 . S
C1173 O1145 1.214 . S
C1173 O1153 1.234 . S
C1174 H1146 0.929 . S
C1174 C1177 1.391 . S
C1174 C1179 1.391 . S
C1175 H1147 0.929 . S
C1175 C1176 1.390 . S
C1175 N1178 1.391 . S
C1176 H1148 0.930 . S
C1176 C1175 1.390 . S
C1176 C1177 1.392 . S
C1177 H1149 0.929 . S
C1177 C1174 1.391 . S
C1177 C1176 1.392 . S
N1178 Co1122 2.257 . S
N1178 C1175 1.391 . S
N1178 C1179 1.388 . S
C1179 H1150 0.930 . S
C1179 C1174 1.391 . S
C1179 N1178 1.388 . S
Co1180 O1182 2.143 . S
Co1180 O1188 2.074 . S
Co1180 O1191 2.093 . S
Co1180 O1204 2.097 . S
Co1180 N1221 2.151 . S
Co1180 N1229 2.214 . S
Co1181 O1182 2.160 . S
Co1181 O1187 2.058 . S
Co1181 O1197 2.057 . S
Co1181 O1212 2.037 . S
Co1181 N1216 2.145 . S
Co1181 N1237 2.257 . S
O1182 Co1180 2.143 . S
O1182 Co1181 2.160 . S
C1183 O1184 1.278 . S
C1183 O1191 1.224 . S
O1184 C1183 1.278 . S
C1185 O1186 1.245 . S
C1185 O1197 1.232 . S
O1186 C1185 1.245 . S
O1187 Co1181 2.058 . S
O1187 C1213 1.269 . S
O1188 Co1180 2.074 . S
O1188 C1213 1.257 . S
H1189 C1214 0.930 . S
H1190 C1220 0.930 . S
O1191 Co1180 2.093 . S
O1191 C1183 1.224 . S
H1192 C1224 0.929 . S
H1193 C1226 0.930 . S
H1194 C1227 0.930 . S
H1195 C1225 0.929 . S
H1196 C1228 0.928 . S
O1197 Co1181 2.057 . S
O1197 C1185 1.232 . S
H1198 C1217 0.929 . S
H1199 C1218 0.929 . S
H1200 C1230 0.931 . S
H1201 C1222 0.929 . S
H1202 C1231 0.930 . S
H1203 C1223 0.931 . S
O1204 Co1180 2.097 . S
O1204 C1232 1.214 . S
H1205 C1233 0.929 . S
H1206 C1234 0.929 . S
H1207 C1235 0.930 . S
H1208 C1236 0.929 . S
H1209 C1238 0.930 . S
H1210 C1215 0.930 . S
H1211 C1219 0.930 . S
O1212 Co1181 2.037 . S
O1212 C1232 1.234 . S
C1213 O1187 1.269 . S
C1213 O1188 1.257 . S
C1214 H1189 0.930 . S
C1214 C1217 1.388 . S
C1214 C1219 1.418 . S
C1215 H1210 0.930 . S
C1215 C1218 1.404 . S
C1215 C1219 1.353 . S
N1216 Co1181 2.145 . S
N1216 C1217 1.397 . S
N1216 C1218 1.334 . S
C1217 H1198 0.929 . S
C1217 C1214 1.388 . S
C1217 N1216 1.397 . S
C1218 H1199 0.929 . S
C1218 C1215 1.404 . S
C1218 N1216 1.334 . S
C1219 H1211 0.930 . S
C1219 C1214 1.418 . S
C1219 C1215 1.353 . S
C1220 H1190 0.930 . S
C1220 N1221 1.330 . S
C1220 C1222 1.446 . S
N1221 Co1180 2.151 . S
N1221 C1220 1.330 . S
N1221 C1225 1.418 . S
C1222 H1201 0.929 . S
C1222 C1220 1.446 . S
C1222 C1223 1.332 . S
C1223 H1203 0.931 . S
C1223 C1222 1.332 . S
C1223 C1224 1.267 . S
C1224 H1192 0.929 . S
C1224 C1223 1.267 . S
C1224 C1225 1.251 . S
C1225 H1195 0.929 . S
C1225 N1221 1.418 . S
C1225 C1224 1.251 . S
C1226 H1193 0.930 . S
C1226 C1228 1.406 . S
C1226 C1231 1.261 . S
C1227 H1194 0.930 . S
C1227 N1229 1.325 . S
C1227 C1230 1.357 . S
C1228 H1196 0.928 . S
C1228 C1226 1.406 . S
C1228 N1229 1.261 . S
N1229 Co1180 2.214 . S
N1229 C1227 1.325 . S
N1229 C1228 1.261 . S
C1230 H1200 0.931 . S
C1230 C1227 1.357 . S
C1230 C1231 1.312 . S
C1231 H1202 0.930 . S
C1231 C1226 1.261 . S
C1231 C1230 1.312 . S
C1232 O1204 1.214 . S
C1232 O1212 1.234 . S
C1233 H1205 0.929 . S
C1233 C1236 1.391 . S
C1233 C1238 1.391 . S
C1234 H1206 0.929 . S
C1234 C1235 1.390 . S
C1234 N1237 1.391 . S
C1235 H1207 0.930 . S
C1235 C1234 1.390 . S
C1235 C1236 1.392 . S
C1236 H1208 0.929 . S
C1236 C1233 1.391 . S
C1236 C1235 1.392 . S
N1237 Co1181 2.257 . S
N1237 C1234 1.391 . S
N1237 C1238 1.388 . S
C1238 H1209 0.930 . S
C1238 C1233 1.391 . S
C1238 N1237 1.388 . S
Co1239 O1241 2.143 . S
Co1239 O1247 2.074 . S
Co1239 O1250 2.093 . S
Co1239 O1263 2.097 . S
Co1239 N1280 2.151 . S
Co1239 N1288 2.214 . S
Co1240 O1241 2.160 . S
Co1240 O1246 2.058 . S
Co1240 O1256 2.057 . S
Co1240 O1271 2.037 . S
Co1240 N1275 2.145 . S
Co1240 N1296 2.257 . S
O1241 Co1239 2.143 . S
O1241 Co1240 2.160 . S
C1242 O1243 1.278 . S
C1242 O1250 1.224 . S
O1243 C1242 1.278 . S
C1244 O1245 1.245 . S
C1244 O1256 1.232 . S
O1245 C1244 1.245 . S
O1246 Co1240 2.058 . S
O1246 C1272 1.269 . S
O1247 Co1239 2.074 . S
O1247 C1272 1.257 . S
H1248 C1273 0.930 . S
H1249 C1279 0.930 . S
O1250 Co1239 2.093 . S
O1250 C1242 1.224 . S
H1251 C1283 0.929 . S
H1252 C1285 0.930 . S
H1253 C1286 0.930 . S
H1254 C1284 0.929 . S
H1255 C1287 0.928 . S
O1256 Co1240 2.057 . S
O1256 C1244 1.232 . S
H1257 C1276 0.929 . S
H1258 C1277 0.929 . S
H1259 C1289 0.931 . S
H1260 C1281 0.929 . S
H1261 C1290 0.930 . S
H1262 C1282 0.931 . S
O1263 Co1239 2.097 . S
O1263 C1291 1.214 . S
H1264 C1292 0.929 . S
H1265 C1293 0.929 . S
H1266 C1294 0.930 . S
H1267 C1295 0.929 . S
H1268 C1297 0.930 . S
H1269 C1274 0.930 . S
H1270 C1278 0.930 . S
O1271 Co1240 2.037 . S
O1271 C1291 1.234 . S
C1272 O1246 1.269 . S
C1272 O1247 1.257 . S
C1273 H1248 0.930 . S
C1273 C1276 1.388 . S
C1273 C1278 1.418 . S
C1274 H1269 0.930 . S
C1274 C1277 1.404 . S
C1274 C1278 1.353 . S
N1275 Co1240 2.145 . S
N1275 C1276 1.397 . S
N1275 C1277 1.334 . S
C1276 H1257 0.929 . S
C1276 C1273 1.388 . S
C1276 N1275 1.397 . S
C1277 H1258 0.929 . S
C1277 C1274 1.404 . S
C1277 N1275 1.334 . S
C1278 H1270 0.930 . S
C1278 C1273 1.418 . S
C1278 C1274 1.353 . S
C1279 H1249 0.930 . S
C1279 N1280 1.330 . S
C1279 C1281 1.446 . S
N1280 Co1239 2.151 . S
N1280 C1279 1.330 . S
N1280 C1284 1.418 . S
C1281 H1260 0.929 . S
C1281 C1279 1.446 . S
C1281 C1282 1.332 . S
C1282 H1262 0.931 . S
C1282 C1281 1.332 . S
C1282 C1283 1.267 . S
C1283 H1251 0.929 . S
C1283 C1282 1.267 . S
C1283 C1284 1.251 . S
C1284 H1254 0.929 . S
C1284 N1280 1.418 . S
C1284 C1283 1.251 . S
C1285 H1252 0.930 . S
C1285 C1287 1.406 . S
C1285 C1290 1.261 . S
C1286 H1253 0.930 . S
C1286 N1288 1.325 . S
C1286 C1289 1.357 . S
C1287 H1255 0.928 . S
C1287 C1285 1.406 . S
C1287 N1288 1.261 . S
N1288 Co1239 2.214 . S
N1288 C1286 1.325 . S
N1288 C1287 1.261 . S
C1289 H1259 0.931 . S
C1289 C1286 1.357 . S
C1289 C1290 1.312 . S
C1290 H1261 0.930 . S
C1290 C1285 1.261 . S
C1290 C1289 1.312 . S
C1291 O1263 1.214 . S
C1291 O1271 1.234 . S
C1292 H1264 0.929 . S
C1292 C1295 1.391 . S
C1292 C1297 1.391 . S
C1293 H1265 0.929 . S
C1293 C1294 1.390 . S
C1293 N1296 1.391 . S
C1294 H1266 0.930 . S
C1294 C1293 1.390 . S
C1294 C1295 1.392 . S
C1295 H1267 0.929 . S
C1295 C1292 1.391 . S
C1295 C1294 1.392 . S
N1296 Co1240 2.257 . S
N1296 C1293 1.391 . S
N1296 C1297 1.388 . S
C1297 H1268 0.930 . S
C1297 C1292 1.391 . S
C1297 N1296 1.388 . S
Co1298 O1300 2.143 . S
Co1298 O1306 2.074 . S
Co1298 O1309 2.093 . S
Co1298 O1322 2.097 . S
Co1298 N1339 2.151 . S
Co1298 N1347 2.214 . S
Co1299 O1300 2.160 . S
Co1299 O1305 2.058 . S
Co1299 O1315 2.057 . S
Co1299 O1330 2.037 . S
Co1299 N1334 2.145 . S
Co1299 N1355 2.257 . S
O1300 Co1298 2.143 . S
O1300 Co1299 2.160 . S
C1301 O1302 1.278 . S
C1301 O1309 1.224 . S
O1302 C1301 1.278 . S
C1303 O1304 1.245 . S
C1303 O1315 1.232 . S
O1304 C1303 1.245 . S
O1305 Co1299 2.058 . S
O1305 C1331 1.269 . S
O1306 Co1298 2.074 . S
O1306 C1331 1.257 . S
H1307 C1332 0.930 . S
H1308 C1338 0.930 . S
O1309 Co1298 2.093 . S
O1309 C1301 1.224 . S
H1310 C1342 0.929 . S
H1311 C1344 0.930 . S
H1312 C1345 0.930 . S
H1313 C1343 0.929 . S
H1314 C1346 0.928 . S
O1315 Co1299 2.057 . S
O1315 C1303 1.232 . S
H1316 C1335 0.929 . S
H1317 C1336 0.929 . S
H1318 C1348 0.931 . S
H1319 C1340 0.929 . S
H1320 C1349 0.930 . S
H1321 C1341 0.931 . S
O1322 Co1298 2.097 . S
O1322 C1350 1.214 . S
H1323 C1351 0.929 . S
H1324 C1352 0.929 . S
H1325 C1353 0.930 . S
H1326 C1354 0.929 . S
H1327 C1356 0.930 . S
H1328 C1333 0.930 . S
H1329 C1337 0.930 . S
O1330 Co1299 2.037 . S
O1330 C1350 1.234 . S
C1331 O1305 1.269 . S
C1331 O1306 1.257 . S
C1332 H1307 0.930 . S
C1332 C1335 1.388 . S
C1332 C1337 1.418 . S
C1333 H1328 0.930 . S
C1333 C1336 1.404 . S
C1333 C1337 1.353 . S
N1334 Co1299 2.145 . S
N1334 C1335 1.397 . S
N1334 C1336 1.334 . S
C1335 H1316 0.929 . S
C1335 C1332 1.388 . S
C1335 N1334 1.397 . S
C1336 H1317 0.929 . S
C1336 C1333 1.404 . S
C1336 N1334 1.334 . S
C1337 H1329 0.930 . S
C1337 C1332 1.418 . S
C1337 C1333 1.353 . S
C1338 H1308 0.930 . S
C1338 N1339 1.330 . S
C1338 C1340 1.446 . S
N1339 Co1298 2.151 . S
N1339 C1338 1.330 . S
N1339 C1343 1.418 . S
C1340 H1319 0.929 . S
C1340 C1338 1.446 . S
C1340 C1341 1.332 . S
C1341 H1321 0.931 . S
C1341 C1340 1.332 . S
C1341 C1342 1.267 . S
C1342 H1310 0.929 . S
C1342 C1341 1.267 . S
C1342 C1343 1.251 . S
C1343 H1313 0.929 . S
C1343 N1339 1.418 . S
C1343 C1342 1.251 . S
C1344 H1311 0.930 . S
C1344 C1346 1.406 . S
C1344 C1349 1.261 . S
C1345 H1312 0.930 . S
C1345 N1347 1.325 . S
C1345 C1348 1.357 . S
C1346 H1314 0.928 . S
C1346 C1344 1.406 . S
C1346 N1347 1.261 . S
N1347 Co1298 2.214 . S
N1347 C1345 1.325 . S
N1347 C1346 1.261 . S
C1348 H1318 0.931 . S
C1348 C1345 1.357 . S
C1348 C1349 1.312 . S
C1349 H1320 0.930 . S
C1349 C1344 1.261 . S
C1349 C1348 1.312 . S
C1350 O1322 1.214 . S
C1350 O1330 1.234 . S
C1351 H1323 0.929 . S
C1351 C1354 1.391 . S
C1351 C1356 1.391 . S
C1352 H1324 0.929 . S
C1352 C1353 1.390 . S
C1352 N1355 1.391 . S
C1353 H1325 0.930 . S
C1353 C1352 1.390 . S
C1353 C1354 1.392 . S
C1354 H1326 0.929 . S
C1354 C1351 1.391 . S
C1354 C1353 1.392 . S
N1355 Co1299 2.257 . S
N1355 C1352 1.391 . S
N1355 C1356 1.388 . S
C1356 H1327 0.930 . S
C1356 C1351 1.391 . S
C1356 N1355 1.388 . S
Co1357 O1359 2.143 . S
Co1357 O1365 2.074 . S
Co1357 O1368 2.093 . S
Co1357 O1381 2.097 . S
Co1357 N1398 2.151 . S
Co1357 N1406 2.214 . S
Co1358 O1359 2.160 . S
Co1358 O1364 2.058 . S
Co1358 O1374 2.057 . S
Co1358 O1389 2.037 . S
Co1358 N1393 2.145 . S
Co1358 N1414 2.257 . S
O1359 Co1357 2.143 . S
O1359 Co1358 2.160 . S
C1360 O1361 1.278 . S
C1360 O1368 1.224 . S
O1361 C1360 1.278 . S
C1362 O1363 1.245 . S
C1362 O1374 1.232 . S
O1363 C1362 1.245 . S
O1364 Co1358 2.058 . S
O1364 C1390 1.269 . S
O1365 Co1357 2.074 . S
O1365 C1390 1.257 . S
H1366 C1391 0.930 . S
H1367 C1397 0.930 . S
O1368 Co1357 2.093 . S
O1368 C1360 1.224 . S
H1369 C1401 0.929 . S
H1370 C1403 0.930 . S
H1371 C1404 0.930 . S
H1372 C1402 0.929 . S
H1373 C1405 0.928 . S
O1374 Co1358 2.057 . S
O1374 C1362 1.232 . S
H1375 C1394 0.929 . S
H1376 C1395 0.929 . S
H1377 C1407 0.931 . S
H1378 C1399 0.929 . S
H1379 C1408 0.930 . S
H1380 C1400 0.931 . S
O1381 Co1357 2.097 . S
O1381 C1409 1.214 . S
H1382 C1410 0.929 . S
H1383 C1411 0.929 . S
H1384 C1412 0.930 . S
H1385 C1413 0.929 . S
H1386 C1415 0.930 . S
H1387 C1392 0.930 . S
H1388 C1396 0.930 . S
O1389 Co1358 2.037 . S
O1389 C1409 1.234 . S
C1390 O1364 1.269 . S
C1390 O1365 1.257 . S
C1391 H1366 0.930 . S
C1391 C1394 1.388 . S
C1391 C1396 1.418 . S
C1392 H1387 0.930 . S
C1392 C1395 1.404 . S
C1392 C1396 1.353 . S
N1393 Co1358 2.145 . S
N1393 C1394 1.397 . S
N1393 C1395 1.334 . S
C1394 H1375 0.929 . S
C1394 C1391 1.388 . S
C1394 N1393 1.397 . S
C1395 H1376 0.929 . S
C1395 C1392 1.404 . S
C1395 N1393 1.334 . S
C1396 H1388 0.930 . S
C1396 C1391 1.418 . S
C1396 C1392 1.353 . S
C1397 H1367 0.930 . S
C1397 N1398 1.330 . S
C1397 C1399 1.446 . S
N1398 Co1357 2.151 . S
N1398 C1397 1.330 . S
N1398 C1402 1.418 . S
C1399 H1378 0.929 . S
C1399 C1397 1.446 . S
C1399 C1400 1.332 . S
C1400 H1380 0.931 . S
C1400 C1399 1.332 . S
C1400 C1401 1.267 . S
C1401 H1369 0.929 . S
C1401 C1400 1.267 . S
C1401 C1402 1.251 . S
C1402 H1372 0.929 . S
C1402 N1398 1.418 . S
C1402 C1401 1.251 . S
C1403 H1370 0.930 . S
C1403 C1405 1.406 . S
C1403 C1408 1.261 . S
C1404 H1371 0.930 . S
C1404 N1406 1.325 . S
C1404 C1407 1.357 . S
C1405 H1373 0.928 . S
C1405 C1403 1.406 . S
C1405 N1406 1.261 . S
N1406 Co1357 2.214 . S
N1406 C1404 1.325 . S
N1406 C1405 1.261 . S
C1407 H1377 0.931 . S
C1407 C1404 1.357 . S
C1407 C1408 1.312 . S
C1408 H1379 0.930 . S
C1408 C1403 1.261 . S
C1408 C1407 1.312 . S
C1409 O1381 1.214 . S
C1409 O1389 1.234 . S
C1410 H1382 0.929 . S
C1410 C1413 1.391 . S
C1410 C1415 1.391 . S
C1411 H1383 0.929 . S
C1411 C1412 1.390 . S
C1411 N1414 1.391 . S
C1412 H1384 0.930 . S
C1412 C1411 1.390 . S
C1412 C1413 1.392 . S
C1413 H1385 0.929 . S
C1413 C1410 1.391 . S
C1413 C1412 1.392 . S
N1414 Co1358 2.257 . S
N1414 C1411 1.391 . S
N1414 C1415 1.388 . S
C1415 H1386 0.930 . S
C1415 C1410 1.391 . S
C1415 N1414 1.388 . S
Co1416 O1418 2.143 . S
Co1416 O1424 2.074 . S
Co1416 O1427 2.093 . S
Co1416 O1440 2.097 . S
Co1416 N1457 2.151 . S
Co1416 N1465 2.214 . S
Co1417 O1418 2.160 . S
Co1417 O1423 2.058 . S
Co1417 O1433 2.057 . S
Co1417 O1448 2.037 . S
Co1417 N1452 2.145 . S
Co1417 N1473 2.257 . S
O1418 Co1416 2.143 . S
O1418 Co1417 2.160 . S
C1419 O1420 1.278 . S
C1419 O1427 1.224 . S
O1420 C1419 1.278 . S
C1421 O1422 1.245 . S
C1421 O1433 1.232 . S
O1422 C1421 1.245 . S
O1423 Co1417 2.058 . S
O1423 C1449 1.269 . S
O1424 Co1416 2.074 . S
O1424 C1449 1.257 . S
H1425 C1450 0.930 . S
H1426 C1456 0.930 . S
O1427 Co1416 2.093 . S
O1427 C1419 1.224 . S
H1428 C1460 0.929 . S
H1429 C1462 0.930 . S
H1430 C1463 0.930 . S
H1431 C1461 0.929 . S
H1432 C1464 0.928 . S
O1433 Co1417 2.057 . S
O1433 C1421 1.232 . S
H1434 C1453 0.929 . S
H1435 C1454 0.929 . S
H1436 C1466 0.931 . S
H1437 C1458 0.929 . S
H1438 C1467 0.930 . S
H1439 C1459 0.931 . S
O1440 Co1416 2.097 . S
O1440 C1468 1.214 . S
H1441 C1469 0.929 . S
H1442 C1470 0.929 . S
H1443 C1471 0.930 . S
H1444 C1472 0.929 . S
H1445 C1474 0.930 . S
H1446 C1451 0.930 . S
H1447 C1455 0.930 . S
O1448 Co1417 2.037 . S
O1448 C1468 1.234 . S
C1449 O1423 1.269 . S
C1449 O1424 1.257 . S
C1450 H1425 0.930 . S
C1450 C1453 1.388 . S
C1450 C1455 1.418 . S
C1451 H1446 0.930 . S
C1451 C1454 1.404 . S
C1451 C1455 1.353 . S
N1452 Co1417 2.145 . S
N1452 C1453 1.397 . S
N1452 C1454 1.334 . S
C1453 H1434 0.929 . S
C1453 C1450 1.388 . S
C1453 N1452 1.397 . S
C1454 H1435 0.929 . S
C1454 C1451 1.404 . S
C1454 N1452 1.334 . S
C1455 H1447 0.930 . S
C1455 C1450 1.418 . S
C1455 C1451 1.353 . S
C1456 H1426 0.930 . S
C1456 N1457 1.330 . S
C1456 C1458 1.446 . S
N1457 Co1416 2.151 . S
N1457 C1456 1.330 . S
N1457 C1461 1.418 . S
C1458 H1437 0.929 . S
C1458 C1456 1.446 . S
C1458 C1459 1.332 . S
C1459 H1439 0.931 . S
C1459 C1458 1.332 . S
C1459 C1460 1.267 . S
C1460 H1428 0.929 . S
C1460 C1459 1.267 . S
C1460 C1461 1.251 . S
C1461 H1431 0.929 . S
C1461 N1457 1.418 . S
C1461 C1460 1.251 . S
C1462 H1429 0.930 . S
C1462 C1464 1.406 . S
C1462 C1467 1.261 . S
C1463 H1430 0.930 . S
C1463 N1465 1.325 . S
C1463 C1466 1.357 . S
C1464 H1432 0.928 . S
C1464 C1462 1.406 . S
C1464 N1465 1.261 . S
N1465 Co1416 2.214 . S
N1465 C1463 1.325 . S
N1465 C1464 1.261 . S
C1466 H1436 0.931 . S
C1466 C1463 1.357 . S
C1466 C1467 1.312 . S
C1467 H1438 0.930 . S
C1467 C1462 1.261 . S
C1467 C1466 1.312 . S
C1468 O1440 1.214 . S
C1468 O1448 1.234 . S
C1469 H1441 0.929 . S
C1469 C1472 1.391 . S
C1469 C1474 1.391 . S
C1470 H1442 0.929 . S
C1470 C1471 1.390 . S
C1470 N1473 1.391 . S
C1471 H1443 0.930 . S
C1471 C1470 1.390 . S
C1471 C1472 1.392 . S
C1472 H1444 0.929 . S
C1472 C1469 1.391 . S
C1472 C1471 1.392 . S
N1473 Co1417 2.257 . S
N1473 C1470 1.391 . S
N1473 C1474 1.388 . S
C1474 H1445 0.930 . S
C1474 C1469 1.391 . S
C1474 N1473 1.388 . S
Co1475 O1477 2.143 . S
Co1475 O1483 2.074 . S
Co1475 O1486 2.093 . S
Co1475 O1499 2.097 . S
Co1475 N1516 2.151 . S
Co1475 N1524 2.214 . S
Co1476 O1477 2.160 . S
Co1476 O1482 2.058 . S
Co1476 O1492 2.057 . S
Co1476 O1507 2.037 . S
Co1476 N1511 2.145 . S
Co1476 N1532 2.257 . S
O1477 Co1475 2.143 . S
O1477 Co1476 2.160 . S
C1478 O1479 1.278 . S
C1478 O1486 1.224 . S
O1479 C1478 1.278 . S
C1480 O1481 1.245 . S
C1480 O1492 1.232 . S
O1481 C1480 1.245 . S
O1482 Co1476 2.058 . S
O1482 C1508 1.269 . S
O1483 Co1475 2.074 . S
O1483 C1508 1.257 . S
H1484 C1509 0.930 . S
H1485 C1515 0.930 . S
O1486 Co1475 2.093 . S
O1486 C1478 1.224 . S
H1487 C1519 0.929 . S
H1488 C1521 0.930 . S
H1489 C1522 0.930 . S
H1490 C1520 0.929 . S
H1491 C1523 0.928 . S
O1492 Co1476 2.057 . S
O1492 C1480 1.232 . S
H1493 C1512 0.929 . S
H1494 C1513 0.929 . S
H1495 C1525 0.931 . S
H1496 C1517 0.929 . S
H1497 C1526 0.930 . S
H1498 C1518 0.931 . S
O1499 Co1475 2.097 . S
O1499 C1527 1.214 . S
H1500 C1528 0.929 . S
H1501 C1529 0.929 . S
H1502 C1530 0.930 . S
H1503 C1531 0.929 . S
H1504 C1533 0.930 . S
H1505 C1510 0.930 . S
H1506 C1514 0.930 . S
O1507 Co1476 2.037 . S
O1507 C1527 1.234 . S
C1508 O1482 1.269 . S
C1508 O1483 1.257 . S
C1509 H1484 0.930 . S
C1509 C1512 1.388 . S
C1509 C1514 1.418 . S
C1510 H1505 0.930 . S
C1510 C1513 1.404 . S
C1510 C1514 1.353 . S
N1511 Co1476 2.145 . S
N1511 C1512 1.397 . S
N1511 C1513 1.334 . S
C1512 H1493 0.929 . S
C1512 C1509 1.388 . S
C1512 N1511 1.397 . S
C1513 H1494 0.929 . S
C1513 C1510 1.404 . S
C1513 N1511 1.334 . S
C1514 H1506 0.930 . S
C1514 C1509 1.418 . S
C1514 C1510 1.353 . S
C1515 H1485 0.930 . S
C1515 N1516 1.330 . S
C1515 C1517 1.446 . S
N1516 Co1475 2.151 . S
N1516 C1515 1.330 . S
N1516 C1520 1.418 . S
C1517 H1496 0.929 . S
C1517 C1515 1.446 . S
C1517 C1518 1.332 . S
C1518 H1498 0.931 . S
C1518 C1517 1.332 . S
C1518 C1519 1.267 . S
C1519 H1487 0.929 . S
C1519 C1518 1.267 . S
C1519 C1520 1.251 . S
C1520 H1490 0.929 . S
C1520 N1516 1.418 . S
C1520 C1519 1.251 . S
C1521 H1488 0.930 . S
C1521 C1523 1.406 . S
C1521 C1526 1.261 . S
C1522 H1489 0.930 . S
C1522 N1524 1.325 . S
C1522 C1525 1.357 . S
C1523 H1491 0.928 . S
C1523 C1521 1.406 . S
C1523 N1524 1.261 . S
N1524 Co1475 2.214 . S
N1524 C1522 1.325 . S
N1524 C1523 1.261 . S
C1525 H1495 0.931 . S
C1525 C1522 1.357 . S
C1525 C1526 1.312 . S
C1526 H1497 0.930 . S
C1526 C1521 1.261 . S
C1526 C1525 1.312 . S
C1527 O1499 1.214 . S
C1527 O1507 1.234 . S
C1528 H1500 0.929 . S
C1528 C1531 1.391 . S
C1528 C1533 1.391 . S
C1529 H1501 0.929 . S
C1529 C1530 1.390 . S
C1529 N1532 1.391 . S
C1530 H1502 0.930 . S
C1530 C1529 1.390 . S
C1530 C1531 1.392 . S
C1531 H1503 0.929 . S
C1531 C1528 1.391 . S
C1531 C1530 1.392 . S
N1532 Co1476 2.257 . S
N1532 C1529 1.391 . S
N1532 C1533 1.388 . S
C1533 H1504 0.930 . S
C1533 C1528 1.391 . S
C1533 N1532 1.388 . S
Co1534 O1536 2.143 . S
Co1534 O1542 2.074 . S
Co1534 O1545 2.093 . S
Co1534 O1558 2.097 . S
Co1534 N1575 2.151 . S
Co1534 N1583 2.214 . S
Co1535 O1536 2.160 . S
Co1535 O1541 2.058 . S
Co1535 O1551 2.057 . S
Co1535 O1566 2.037 . S
Co1535 N1570 2.145 . S
Co1535 N1591 2.257 . S
O1536 Co1534 2.143 . S
O1536 Co1535 2.160 . S
C1537 O1538 1.278 . S
C1537 O1545 1.224 . S
O1538 C1537 1.278 . S
C1539 O1540 1.245 . S
C1539 O1551 1.232 . S
O1540 C1539 1.245 . S
O1541 Co1535 2.058 . S
O1541 C1567 1.269 . S
O1542 Co1534 2.074 . S
O1542 C1567 1.257 . S
H1543 C1568 0.930 . S
H1544 C1574 0.930 . S
O1545 Co1534 2.093 . S
O1545 C1537 1.224 . S
H1546 C1578 0.929 . S
H1547 C1580 0.930 . S
H1548 C1581 0.930 . S
H1549 C1579 0.929 . S
H1550 C1582 0.928 . S
O1551 Co1535 2.057 . S
O1551 C1539 1.232 . S
H1552 C1571 0.929 . S
H1553 C1572 0.929 . S
H1554 C1584 0.931 . S
H1555 C1576 0.929 . S
H1556 C1585 0.930 . S
H1557 C1577 0.931 . S
O1558 Co1534 2.097 . S
O1558 C1586 1.214 . S
H1559 C1587 0.929 . S
H1560 C1588 0.929 . S
H1561 C1589 0.930 . S
H1562 C1590 0.929 . S
H1563 C1592 0.930 . S
H1564 C1569 0.930 . S
H1565 C1573 0.930 . S
O1566 Co1535 2.037 . S
O1566 C1586 1.234 . S
C1567 O1541 1.269 . S
C1567 O1542 1.257 . S
C1568 H1543 0.930 . S
C1568 C1571 1.388 . S
C1568 C1573 1.418 . S
C1569 H1564 0.930 . S
C1569 C1572 1.404 . S
C1569 C1573 1.353 . S
N1570 Co1535 2.145 . S
N1570 C1571 1.397 . S
N1570 C1572 1.334 . S
C1571 H1552 0.929 . S
C1571 C1568 1.388 . S
C1571 N1570 1.397 . S
C1572 H1553 0.929 . S
C1572 C1569 1.404 . S
C1572 N1570 1.334 . S
C1573 H1565 0.930 . S
C1573 C1568 1.418 . S
C1573 C1569 1.353 . S
C1574 H1544 0.930 . S
C1574 N1575 1.330 . S
C1574 C1576 1.446 . S
N1575 Co1534 2.151 . S
N1575 C1574 1.330 . S
N1575 C1579 1.418 . S
C1576 H1555 0.929 . S
C1576 C1574 1.446 . S
C1576 C1577 1.332 . S
C1577 H1557 0.931 . S
C1577 C1576 1.332 . S
C1577 C1578 1.267 . S
C1578 H1546 0.929 . S
C1578 C1577 1.267 . S
C1578 C1579 1.251 . S
C1579 H1549 0.929 . S
C1579 N1575 1.418 . S
C1579 C1578 1.251 . S
C1580 H1547 0.930 . S
C1580 C1582 1.406 . S
C1580 C1585 1.261 . S
C1581 H1548 0.930 . S
C1581 N1583 1.325 . S
C1581 C1584 1.357 . S
C1582 H1550 0.928 . S
C1582 C1580 1.406 . S
C1582 N1583 1.261 . S
N1583 Co1534 2.214 . S
N1583 C1581 1.325 . S
N1583 C1582 1.261 . S
C1584 H1554 0.931 . S
C1584 C1581 1.357 . S
C1584 C1585 1.312 . S
C1585 H1556 0.930 . S
C1585 C1580 1.261 . S
C1585 C1584 1.312 . S
C1586 O1558 1.214 . S
C1586 O1566 1.234 . S
C1587 H1559 0.929 . S
C1587 C1590 1.391 . S
C1587 C1592 1.391 . S
C1588 H1560 0.929 . S
C1588 C1589 1.390 . S
C1588 N1591 1.391 . S
C1589 H1561 0.930 . S
C1589 C1588 1.390 . S
C1589 C1590 1.392 . S
C1590 H1562 0.929 . S
C1590 C1587 1.391 . S
C1590 C1589 1.392 . S
N1591 Co1535 2.257 . S
N1591 C1588 1.391 . S
N1591 C1592 1.388 . S
C1592 H1563 0.930 . S
C1592 C1587 1.391 . S
C1592 N1591 1.388 . S
Co1593 O1595 2.143 . S
Co1593 O1601 2.074 . S
Co1593 O1604 2.093 . S
Co1593 O1617 2.097 . S
Co1593 N1634 2.151 . S
Co1593 N1642 2.214 . S
Co1594 O1595 2.160 . S
Co1594 O1600 2.058 . S
Co1594 O1610 2.057 . S
Co1594 O1625 2.037 . S
Co1594 N1629 2.145 . S
Co1594 N1650 2.257 . S
O1595 Co1593 2.143 . S
O1595 Co1594 2.160 . S
C1596 O1597 1.278 . S
C1596 O1604 1.224 . S
O1597 C1596 1.278 . S
C1598 O1599 1.245 . S
C1598 O1610 1.232 . S
O1599 C1598 1.245 . S
O1600 Co1594 2.058 . S
O1600 C1626 1.269 . S
O1601 Co1593 2.074 . S
O1601 C1626 1.257 . S
H1602 C1627 0.930 . S
H1603 C1633 0.930 . S
O1604 Co1593 2.093 . S
O1604 C1596 1.224 . S
H1605 C1637 0.929 . S
H1606 C1639 0.930 . S
H1607 C1640 0.930 . S
H1608 C1638 0.929 . S
H1609 C1641 0.928 . S
O1610 Co1594 2.057 . S
O1610 C1598 1.232 . S
H1611 C1630 0.929 . S
H1612 C1631 0.929 . S
H1613 C1643 0.931 . S
H1614 C1635 0.929 . S
H1615 C1644 0.930 . S
H1616 C1636 0.931 . S
O1617 Co1593 2.097 . S
O1617 C1645 1.214 . S
H1618 C1646 0.929 . S
H1619 C1647 0.929 . S
H1620 C1648 0.930 . S
H1621 C1649 0.929 . S
H1622 C1651 0.930 . S
H1623 C1628 0.930 . S
H1624 C1632 0.930 . S
O1625 Co1594 2.037 . S
O1625 C1645 1.234 . S
C1626 O1600 1.269 . S
C1626 O1601 1.257 . S
C1627 H1602 0.930 . S
C1627 C1630 1.388 . S
C1627 C1632 1.418 . S
C1628 H1623 0.930 . S
C1628 C1631 1.404 . S
C1628 C1632 1.353 . S
N1629 Co1594 2.145 . S
N1629 C1630 1.397 . S
N1629 C1631 1.334 . S
C1630 H1611 0.929 . S
C1630 C1627 1.388 . S
C1630 N1629 1.397 . S
C1631 H1612 0.929 . S
C1631 C1628 1.404 . S
C1631 N1629 1.334 . S
C1632 H1624 0.930 . S
C1632 C1627 1.418 . S
C1632 C1628 1.353 . S
C1633 H1603 0.930 . S
C1633 N1634 1.330 . S
C1633 C1635 1.446 . S
N1634 Co1593 2.151 . S
N1634 C1633 1.330 . S
N1634 C1638 1.418 . S
C1635 H1614 0.929 . S
C1635 C1633 1.446 . S
C1635 C1636 1.332 . S
C1636 H1616 0.931 . S
C1636 C1635 1.332 . S
C1636 C1637 1.267 . S
C1637 H1605 0.929 . S
C1637 C1636 1.267 . S
C1637 C1638 1.251 . S
C1638 H1608 0.929 . S
C1638 N1634 1.418 . S
C1638 C1637 1.251 . S
C1639 H1606 0.930 . S
C1639 C1641 1.406 . S
C1639 C1644 1.261 . S
C1640 H1607 0.930 . S
C1640 N1642 1.325 . S
C1640 C1643 1.357 . S
C1641 H1609 0.928 . S
C1641 C1639 1.406 . S
C1641 N1642 1.261 . S
N1642 Co1593 2.214 . S
N1642 C1640 1.325 . S
N1642 C1641 1.261 . S
C1643 H1613 0.931 . S
C1643 C1640 1.357 . S
C1643 C1644 1.312 . S
C1644 H1615 0.930 . S
C1644 C1639 1.261 . S
C1644 C1643 1.312 . S
C1645 O1617 1.214 . S
C1645 O1625 1.234 . S
C1646 H1618 0.929 . S
C1646 C1649 1.391 . S
C1646 C1651 1.391 . S
C1647 H1619 0.929 . S
C1647 C1648 1.390 . S
C1647 N1650 1.391 . S
C1648 H1620 0.930 . S
C1648 C1647 1.390 . S
C1648 C1649 1.392 . S
C1649 H1621 0.929 . S
C1649 C1646 1.391 . S
C1649 C1648 1.392 . S
N1650 Co1594 2.257 . S
N1650 C1647 1.391 . S
N1650 C1651 1.388 . S
C1651 H1622 0.930 . S
C1651 C1646 1.391 . S
C1651 N1650 1.388 . S
Co1652 O1654 2.143 . S
Co1652 O1660 2.074 . S
Co1652 O1663 2.093 . S
Co1652 O1676 2.097 . S
Co1652 N1693 2.151 . S
Co1652 N1701 2.214 . S
Co1653 O1654 2.160 . S
Co1653 O1659 2.058 . S
Co1653 O1669 2.057 . S
Co1653 O1684 2.037 . S
Co1653 N1688 2.145 . S
Co1653 N1709 2.257 . S
O1654 Co1652 2.143 . S
O1654 Co1653 2.160 . S
C1655 O1656 1.278 . S
C1655 O1663 1.224 . S
O1656 C1655 1.278 . S
C1657 O1658 1.245 . S
C1657 O1669 1.232 . S
O1658 C1657 1.245 . S
O1659 Co1653 2.058 . S
O1659 C1685 1.269 . S
O1660 Co1652 2.074 . S
O1660 C1685 1.257 . S
H1661 C1686 0.930 . S
H1662 C1692 0.930 . S
O1663 Co1652 2.093 . S
O1663 C1655 1.224 . S
H1664 C1696 0.929 . S
H1665 C1698 0.930 . S
H1666 C1699 0.930 . S
H1667 C1697 0.929 . S
H1668 C1700 0.928 . S
O1669 Co1653 2.057 . S
O1669 C1657 1.232 . S
H1670 C1689 0.929 . S
H1671 C1690 0.929 . S
H1672 C1702 0.931 . S
H1673 C1694 0.929 . S
H1674 C1703 0.930 . S
H1675 C1695 0.931 . S
O1676 Co1652 2.097 . S
O1676 C1704 1.214 . S
H1677 C1705 0.929 . S
H1678 C1706 0.929 . S
H1679 C1707 0.930 . S
H1680 C1708 0.929 . S
H1681 C1710 0.930 . S
H1682 C1687 0.930 . S
H1683 C1691 0.930 . S
O1684 Co1653 2.037 . S
O1684 C1704 1.234 . S
C1685 O1659 1.269 . S
C1685 O1660 1.257 . S
C1686 H1661 0.930 . S
C1686 C1689 1.388 . S
C1686 C1691 1.418 . S
C1687 H1682 0.930 . S
C1687 C1690 1.404 . S
C1687 C1691 1.353 . S
N1688 Co1653 2.145 . S
N1688 C1689 1.397 . S
N1688 C1690 1.334 . S
C1689 H1670 0.929 . S
C1689 C1686 1.388 . S
C1689 N1688 1.397 . S
C1690 H1671 0.929 . S
C1690 C1687 1.404 . S
C1690 N1688 1.334 . S
C1691 H1683 0.930 . S
C1691 C1686 1.418 . S
C1691 C1687 1.353 . S
C1692 H1662 0.930 . S
C1692 N1693 1.330 . S
C1692 C1694 1.446 . S
N1693 Co1652 2.151 . S
N1693 C1692 1.330 . S
N1693 C1697 1.418 . S
C1694 H1673 0.929 . S
C1694 C1692 1.446 . S
C1694 C1695 1.332 . S
C1695 H1675 0.931 . S
C1695 C1694 1.332 . S
C1695 C1696 1.267 . S
C1696 H1664 0.929 . S
C1696 C1695 1.267 . S
C1696 C1697 1.251 . S
C1697 H1667 0.929 . S
C1697 N1693 1.418 . S
C1697 C1696 1.251 . S
C1698 H1665 0.930 . S
C1698 C1700 1.406 . S
C1698 C1703 1.261 . S
C1699 H1666 0.930 . S
C1699 N1701 1.325 . S
C1699 C1702 1.357 . S
C1700 H1668 0.928 . S
C1700 C1698 1.406 . S
C1700 N1701 1.261 . S
N1701 Co1652 2.214 . S
N1701 C1699 1.325 . S
N1701 C1700 1.261 . S
C1702 H1672 0.931 . S
C1702 C1699 1.357 . S
C1702 C1703 1.312 . S
C1703 H1674 0.930 . S
C1703 C1698 1.261 . S
C1703 C1702 1.312 . S
C1704 O1676 1.214 . S
C1704 O1684 1.234 . S
C1705 H1677 0.929 . S
C1705 C1708 1.391 . S
C1705 C1710 1.391 . S
C1706 H1678 0.929 . S
C1706 C1707 1.390 . S
C1706 N1709 1.391 . S
C1707 H1679 0.930 . S
C1707 C1706 1.390 . S
C1707 C1708 1.392 . S
C1708 H1680 0.929 . S
C1708 C1705 1.391 . S
C1708 C1707 1.392 . S
N1709 Co1653 2.257 . S
N1709 C1706 1.391 . S
N1709 C1710 1.388 . S
C1710 H1681 0.930 . S
C1710 C1705 1.391 . S
C1710 N1709 1.388 . S
Co1711 O1713 2.143 . S
Co1711 O1719 2.074 . S
Co1711 O1722 2.093 . S
Co1711 O1735 2.097 . S
Co1711 N1752 2.151 . S
Co1711 N1760 2.214 . S
Co1712 O1713 2.160 . S
Co1712 O1718 2.058 . S
Co1712 O1728 2.057 . S
Co1712 O1743 2.037 . S
Co1712 N1747 2.145 . S
Co1712 N1768 2.257 . S
O1713 Co1711 2.143 . S
O1713 Co1712 2.160 . S
C1714 O1715 1.278 . S
C1714 O1722 1.224 . S
O1715 C1714 1.278 . S
C1716 O1717 1.245 . S
C1716 O1728 1.232 . S
O1717 C1716 1.245 . S
O1718 Co1712 2.058 . S
O1718 C1744 1.269 . S
O1719 Co1711 2.074 . S
O1719 C1744 1.257 . S
H1720 C1745 0.930 . S
H1721 C1751 0.930 . S
O1722 Co1711 2.093 . S
O1722 C1714 1.224 . S
H1723 C1755 0.929 . S
H1724 C1757 0.930 . S
H1725 C1758 0.930 . S
H1726 C1756 0.929 . S
H1727 C1759 0.928 . S
O1728 Co1712 2.057 . S
O1728 C1716 1.232 . S
H1729 C1748 0.929 . S
H1730 C1749 0.929 . S
H1731 C1761 0.931 . S
H1732 C1753 0.929 . S
H1733 C1762 0.930 . S
H1734 C1754 0.931 . S
O1735 Co1711 2.097 . S
O1735 C1763 1.214 . S
H1736 C1764 0.929 . S
H1737 C1765 0.929 . S
H1738 C1766 0.930 . S
H1739 C1767 0.929 . S
H1740 C1769 0.930 . S
H1741 C1746 0.930 . S
H1742 C1750 0.930 . S
O1743 Co1712 2.037 . S
O1743 C1763 1.234 . S
C1744 O1718 1.269 . S
C1744 O1719 1.257 . S
C1745 H1720 0.930 . S
C1745 C1748 1.388 . S
C1745 C1750 1.418 . S
C1746 H1741 0.930 . S
C1746 C1749 1.404 . S
C1746 C1750 1.353 . S
N1747 Co1712 2.145 . S
N1747 C1748 1.397 . S
N1747 C1749 1.334 . S
C1748 H1729 0.929 . S
C1748 C1745 1.388 . S
C1748 N1747 1.397 . S
C1749 H1730 0.929 . S
C1749 C1746 1.404 . S
C1749 N1747 1.334 . S
C1750 H1742 0.930 . S
C1750 C1745 1.418 . S
C1750 C1746 1.353 . S
C1751 H1721 0.930 . S
C1751 N1752 1.330 . S
C1751 C1753 1.446 . S
N1752 Co1711 2.151 . S
N1752 C1751 1.330 . S
N1752 C1756 1.418 . S
C1753 H1732 0.929 . S
C1753 C1751 1.446 . S
C1753 C1754 1.332 . S
C1754 H1734 0.931 . S
C1754 C1753 1.332 . S
C1754 C1755 1.267 . S
C1755 H1723 0.929 . S
C1755 C1754 1.267 . S
C1755 C1756 1.251 . S
C1756 H1726 0.929 . S
C1756 N1752 1.418 . S
C1756 C1755 1.251 . S
C1757 H1724 0.930 . S
C1757 C1759 1.406 . S
C1757 C1762 1.261 . S
C1758 H1725 0.930 . S
C1758 N1760 1.325 . S
C1758 C1761 1.357 . S
C1759 H1727 0.928 . S
C1759 C1757 1.406 . S
C1759 N1760 1.261 . S
N1760 Co1711 2.214 . S
N1760 C1758 1.325 . S
N1760 C1759 1.261 . S
C1761 H1731 0.931 . S
C1761 C1758 1.357 . S
C1761 C1762 1.312 . S
C1762 H1733 0.930 . S
C1762 C1757 1.261 . S
C1762 C1761 1.312 . S
C1763 O1735 1.214 . S
C1763 O1743 1.234 . S
C1764 H1736 0.929 . S
C1764 C1767 1.391 . S
C1764 C1769 1.391 . S
C1765 H1737 0.929 . S
C1765 C1766 1.390 . S
C1765 N1768 1.391 . S
C1766 H1738 0.930 . S
C1766 C1765 1.390 . S
C1766 C1767 1.392 . S
C1767 H1739 0.929 . S
C1767 C1764 1.391 . S
C1767 C1766 1.392 . S
N1768 Co1712 2.257 . S
N1768 C1765 1.391 . S
N1768 C1769 1.388 . S
C1769 H1740 0.930 . S
C1769 C1764 1.391 . S
C1769 N1768 1.388 . S
Co1770 O1772 2.143 . S
Co1770 O1778 2.074 . S
Co1770 O1781 2.093 . S
Co1770 O1794 2.097 . S
Co1770 N1811 2.151 . S
Co1770 N1819 2.214 . S
Co1771 O1772 2.160 . S
Co1771 O1777 2.058 . S
Co1771 O1787 2.057 . S
Co1771 O1802 2.037 . S
Co1771 N1806 2.145 . S
Co1771 N1827 2.257 . S
O1772 Co1770 2.143 . S
O1772 Co1771 2.160 . S
C1773 O1774 1.278 . S
C1773 O1781 1.224 . S
O1774 C1773 1.278 . S
C1775 O1776 1.245 . S
C1775 O1787 1.232 . S
O1776 C1775 1.245 . S
O1777 Co1771 2.058 . S
O1777 C1803 1.269 . S
O1778 Co1770 2.074 . S
O1778 C1803 1.257 . S
H1779 C1804 0.930 . S
H1780 C1810 0.930 . S
O1781 Co1770 2.093 . S
O1781 C1773 1.224 . S
H1782 C1814 0.929 . S
H1783 C1816 0.930 . S
H1784 C1817 0.930 . S
H1785 C1815 0.929 . S
H1786 C1818 0.928 . S
O1787 Co1771 2.057 . S
O1787 C1775 1.232 . S
H1788 C1807 0.929 . S
H1789 C1808 0.929 . S
H1790 C1820 0.931 . S
H1791 C1812 0.929 . S
H1792 C1821 0.930 . S
H1793 C1813 0.931 . S
O1794 Co1770 2.097 . S
O1794 C1822 1.214 . S
H1795 C1823 0.929 . S
H1796 C1824 0.929 . S
H1797 C1825 0.930 . S
H1798 C1826 0.929 . S
H1799 C1828 0.930 . S
H1800 C1805 0.930 . S
H1801 C1809 0.930 . S
O1802 Co1771 2.037 . S
O1802 C1822 1.234 . S
C1803 O1777 1.269 . S
C1803 O1778 1.257 . S
C1804 H1779 0.930 . S
C1804 C1807 1.388 . S
C1804 C1809 1.418 . S
C1805 H1800 0.930 . S
C1805 C1808 1.404 . S
C1805 C1809 1.353 . S
N1806 Co1771 2.145 . S
N1806 C1807 1.397 . S
N1806 C1808 1.334 . S
C1807 H1788 0.929 . S
C1807 C1804 1.388 . S
C1807 N1806 1.397 . S
C1808 H1789 0.929 . S
C1808 C1805 1.404 . S
C1808 N1806 1.334 . S
C1809 H1801 0.930 . S
C1809 C1804 1.418 . S
C1809 C1805 1.353 . S
C1810 H1780 0.930 . S
C1810 N1811 1.330 . S
C1810 C1812 1.446 . S
N1811 Co1770 2.151 . S
N1811 C1810 1.330 . S
N1811 C1815 1.418 . S
C1812 H1791 0.929 . S
C1812 C1810 1.446 . S
C1812 C1813 1.332 . S
C1813 H1793 0.931 . S
C1813 C1812 1.332 . S
C1813 C1814 1.267 . S
C1814 H1782 0.929 . S
C1814 C1813 1.267 . S
C1814 C1815 1.251 . S
C1815 H1785 0.929 . S
C1815 N1811 1.418 . S
C1815 C1814 1.251 . S
C1816 H1783 0.930 . S
C1816 C1818 1.406 . S
C1816 C1821 1.261 . S
C1817 H1784 0.930 . S
C1817 N1819 1.325 . S
C1817 C1820 1.357 . S
C1818 H1786 0.928 . S
C1818 C1816 1.406 . S
C1818 N1819 1.261 . S
N1819 Co1770 2.214 . S
N1819 C1817 1.325 . S
N1819 C1818 1.261 . S
C1820 H1790 0.931 . S
C1820 C1817 1.357 . S
C1820 C1821 1.312 . S
C1821 H1792 0.930 . S
C1821 C1816 1.261 . S
C1821 C1820 1.312 . S
C1822 O1794 1.214 . S
C1822 O1802 1.234 . S
C1823 H1795 0.929 . S
C1823 C1826 1.391 . S
C1823 C1828 1.391 . S
C1824 H1796 0.929 . S
C1824 C1825 1.390 . S
C1824 N1827 1.391 . S
C1825 H1797 0.930 . S
C1825 C1824 1.390 . S
C1825 C1826 1.392 . S
C1826 H1798 0.929 . S
C1826 C1823 1.391 . S
C1826 C1825 1.392 . S
N1827 Co1771 2.257 . S
N1827 C1824 1.391 . S
N1827 C1828 1.388 . S
C1828 H1799 0.930 . S
C1828 C1823 1.391 . S
C1828 N1827 1.388 . S
Co1829 O1831 2.143 . S
Co1829 O1837 2.074 . S
Co1829 O1840 2.093 . S
Co1829 O1853 2.097 . S
Co1829 N1870 2.151 . S
Co1829 N1878 2.214 . S
Co1830 O1831 2.160 . S
Co1830 O1836 2.058 . S
Co1830 O1846 2.057 . S
Co1830 O1861 2.037 . S
Co1830 N1865 2.145 . S
Co1830 N1886 2.257 . S
O1831 Co1829 2.143 . S
O1831 Co1830 2.160 . S
C1832 O1833 1.278 . S
C1832 O1840 1.224 . S
O1833 C1832 1.278 . S
C1834 O1835 1.245 . S
C1834 O1846 1.232 . S
O1835 C1834 1.245 . S
O1836 Co1830 2.058 . S
O1836 C1862 1.269 . S
O1837 Co1829 2.074 . S
O1837 C1862 1.257 . S
H1838 C1863 0.930 . S
H1839 C1869 0.930 . S
O1840 Co1829 2.093 . S
O1840 C1832 1.224 . S
H1841 C1873 0.929 . S
H1842 C1875 0.930 . S
H1843 C1876 0.930 . S
H1844 C1874 0.929 . S
H1845 C1877 0.928 . S
O1846 Co1830 2.057 . S
O1846 C1834 1.232 . S
H1847 C1866 0.929 . S
H1848 C1867 0.929 . S
H1849 C1879 0.931 . S
H1850 C1871 0.929 . S
H1851 C1880 0.930 . S
H1852 C1872 0.931 . S
O1853 Co1829 2.097 . S
O1853 C1881 1.214 . S
H1854 C1882 0.929 . S
H1855 C1883 0.929 . S
H1856 C1884 0.930 . S
H1857 C1885 0.929 . S
H1858 C1887 0.930 . S
H1859 C1864 0.930 . S
H1860 C1868 0.930 . S
O1861 Co1830 2.037 . S
O1861 C1881 1.234 . S
C1862 O1836 1.269 . S
C1862 O1837 1.257 . S
C1863 H1838 0.930 . S
C1863 C1866 1.388 . S
C1863 C1868 1.418 . S
C1864 H1859 0.930 . S
C1864 C1867 1.404 . S
C1864 C1868 1.353 . S
N1865 Co1830 2.145 . S
N1865 C1866 1.397 . S
N1865 C1867 1.334 . S
C1866 H1847 0.929 . S
C1866 C1863 1.388 . S
C1866 N1865 1.397 . S
C1867 H1848 0.929 . S
C1867 C1864 1.404 . S
C1867 N1865 1.334 . S
C1868 H1860 0.930 . S
C1868 C1863 1.418 . S
C1868 C1864 1.353 . S
C1869 H1839 0.930 . S
C1869 N1870 1.330 . S
C1869 C1871 1.446 . S
N1870 Co1829 2.151 . S
N1870 C1869 1.330 . S
N1870 C1874 1.418 . S
C1871 H1850 0.929 . S
C1871 C1869 1.446 . S
C1871 C1872 1.332 . S
C1872 H1852 0.931 . S
C1872 C1871 1.332 . S
C1872 C1873 1.267 . S
C1873 H1841 0.929 . S
C1873 C1872 1.267 . S
C1873 C1874 1.251 . S
C1874 H1844 0.929 . S
C1874 N1870 1.418 . S
C1874 C1873 1.251 . S
C1875 H1842 0.930 . S
C1875 C1877 1.406 . S
C1875 C1880 1.261 . S
C1876 H1843 0.930 . S
C1876 N1878 1.325 . S
C1876 C1879 1.357 . S
C1877 H1845 0.928 . S
C1877 C1875 1.406 . S
C1877 N1878 1.261 . S
N1878 Co1829 2.214 . S
N1878 C1876 1.325 . S
N1878 C1877 1.261 . S
C1879 H1849 0.931 . S
C1879 C1876 1.357 . S
C1879 C1880 1.312 . S
C1880 H1851 0.930 . S
C1880 C1875 1.261 . S
C1880 C1879 1.312 . S
C1881 O1853 1.214 . S
C1881 O1861 1.234 . S
C1882 H1854 0.929 . S
C1882 C1885 1.391 . S
C1882 C1887 1.391 . S
C1883 H1855 0.929 . S
C1883 C1884 1.390 . S
C1883 N1886 1.391 . S
C1884 H1856 0.930 . S
C1884 C1883 1.390 . S
C1884 C1885 1.392 . S
C1885 H1857 0.929 . S
C1885 C1882 1.391 . S
C1885 C1884 1.392 . S
N1886 Co1830 2.257 . S
N1886 C1883 1.391 . S
N1886 C1887 1.388 . S
C1887 H1858 0.930 . S
C1887 C1882 1.391 . S
C1887 N1886 1.388 . S
Co1888 O1890 2.143 . S
Co1888 O1896 2.074 . S
Co1888 O1899 2.093 . S
Co1888 O1912 2.097 . S
Co1888 N1929 2.151 . S
Co1888 N1937 2.214 . S
Co1889 O1890 2.160 . S
Co1889 O1895 2.058 . S
Co1889 O1905 2.057 . S
Co1889 O1920 2.037 . S
Co1889 N1924 2.145 . S
Co1889 N1945 2.257 . S
O1890 Co1888 2.143 . S
O1890 Co1889 2.160 . S
C1891 O1892 1.278 . S
C1891 O1899 1.224 . S
O1892 C1891 1.278 . S
C1893 O1894 1.245 . S
C1893 O1905 1.232 . S
O1894 C1893 1.245 . S
O1895 Co1889 2.058 . S
O1895 C1921 1.269 . S
O1896 Co1888 2.074 . S
O1896 C1921 1.257 . S
H1897 C1922 0.930 . S
H1898 C1928 0.930 . S
O1899 Co1888 2.093 . S
O1899 C1891 1.224 . S
H1900 C1932 0.929 . S
H1901 C1934 0.930 . S
H1902 C1935 0.930 . S
H1903 C1933 0.929 . S
H1904 C1936 0.928 . S
O1905 Co1889 2.057 . S
O1905 C1893 1.232 . S
H1906 C1925 0.929 . S
H1907 C1926 0.929 . S
H1908 C1938 0.931 . S
H1909 C1930 0.929 . S
H1910 C1939 0.930 . S
H1911 C1931 0.931 . S
O1912 Co1888 2.097 . S
O1912 C1940 1.214 . S
H1913 C1941 0.929 . S
H1914 C1942 0.929 . S
H1915 C1943 0.930 . S
H1916 C1944 0.929 . S
H1917 C1946 0.930 . S
H1918 C1923 0.930 . S
H1919 C1927 0.930 . S
O1920 Co1889 2.037 . S
O1920 C1940 1.234 . S
C1921 O1895 1.269 . S
C1921 O1896 1.257 . S
C1922 H1897 0.930 . S
C1922 C1925 1.388 . S
C1922 C1927 1.418 . S
C1923 H1918 0.930 . S
C1923 C1926 1.404 . S
C1923 C1927 1.353 . S
N1924 Co1889 2.145 . S
N1924 C1925 1.397 . S
N1924 C1926 1.334 . S
C1925 H1906 0.929 . S
C1925 C1922 1.388 . S
C1925 N1924 1.397 . S
C1926 H1907 0.929 . S
C1926 C1923 1.404 . S
C1926 N1924 1.334 . S
C1927 H1919 0.930 . S
C1927 C1922 1.418 . S
C1927 C1923 1.353 . S
C1928 H1898 0.930 . S
C1928 N1929 1.330 . S
C1928 C1930 1.446 . S
N1929 Co1888 2.151 . S
N1929 C1928 1.330 . S
N1929 C1933 1.418 . S
C1930 H1909 0.929 . S
C1930 C1928 1.446 . S
C1930 C1931 1.332 . S
C1931 H1911 0.931 . S
C1931 C1930 1.332 . S
C1931 C1932 1.267 . S
C1932 H1900 0.929 . S
C1932 C1931 1.267 . S
C1932 C1933 1.251 . S
C1933 H1903 0.929 . S
C1933 N1929 1.418 . S
C1933 C1932 1.251 . S
C1934 H1901 0.930 . S
C1934 C1936 1.406 . S
C1934 C1939 1.261 . S
C1935 H1902 0.930 . S
C1935 N1937 1.325 . S
C1935 C1938 1.357 . S
C1936 H1904 0.928 . S
C1936 C1934 1.406 . S
C1936 N1937 1.261 . S
N1937 Co1888 2.214 . S
N1937 C1935 1.325 . S
N1937 C1936 1.261 . S
C1938 H1908 0.931 . S
C1938 C1935 1.357 . S
C1938 C1939 1.312 . S
C1939 H1910 0.930 . S
C1939 C1934 1.261 . S
C1939 C1938 1.312 . S
C1940 O1912 1.214 . S
C1940 O1920 1.234 . S
C1941 H1913 0.929 . S
C1941 C1944 1.391 . S
C1941 C1946 1.391 . S
C1942 H1914 0.929 . S
C1942 C1943 1.390 . S
C1942 N1945 1.391 . S
C1943 H1915 0.930 . S
C1943 C1942 1.390 . S
C1943 C1944 1.392 . S
C1944 H1916 0.929 . S
C1944 C1941 1.391 . S
C1944 C1943 1.392 . S
N1945 Co1889 2.257 . S
N1945 C1942 1.391 . S
N1945 C1946 1.388 . S
C1946 H1917 0.930 . S
C1946 C1941 1.391 . S
C1946 N1945 1.388 . S
Co1947 O1949 2.143 . S
Co1947 O1955 2.074 . S
Co1947 O1958 2.093 . S
Co1947 O1971 2.097 . S
Co1947 N1988 2.151 . S
Co1947 N1996 2.214 . S
Co1948 O1949 2.160 . S
Co1948 O1954 2.058 . S
Co1948 O1964 2.057 . S
Co1948 O1979 2.037 . S
Co1948 N1983 2.145 . S
Co1948 N2004 2.257 . S
O1949 Co1947 2.143 . S
O1949 Co1948 2.160 . S
C1950 O1951 1.278 . S
C1950 O1958 1.224 . S
O1951 C1950 1.278 . S
C1952 O1953 1.245 . S
C1952 O1964 1.232 . S
O1953 C1952 1.245 . S
O1954 Co1948 2.058 . S
O1954 C1980 1.269 . S
O1955 Co1947 2.074 . S
O1955 C1980 1.257 . S
H1956 C1981 0.930 . S
H1957 C1987 0.930 . S
O1958 Co1947 2.093 . S
O1958 C1950 1.224 . S
H1959 C1991 0.929 . S
H1960 C1993 0.930 . S
H1961 C1994 0.930 . S
H1962 C1992 0.929 . S
H1963 C1995 0.928 . S
O1964 Co1948 2.057 . S
O1964 C1952 1.232 . S
H1965 C1984 0.929 . S
H1966 C1985 0.929 . S
H1967 C1997 0.931 . S
H1968 C1989 0.929 . S
H1969 C1998 0.930 . S
H1970 C1990 0.931 . S
O1971 Co1947 2.097 . S
O1971 C1999 1.214 . S
H1972 C2000 0.929 . S
H1973 C2001 0.929 . S
H1974 C2002 0.930 . S
H1975 C2003 0.929 . S
H1976 C2005 0.930 . S
H1977 C1982 0.930 . S
H1978 C1986 0.930 . S
O1979 Co1948 2.037 . S
O1979 C1999 1.234 . S
C1980 O1954 1.269 . S
C1980 O1955 1.257 . S
C1981 H1956 0.930 . S
C1981 C1984 1.388 . S
C1981 C1986 1.418 . S
C1982 H1977 0.930 . S
C1982 C1985 1.404 . S
C1982 C1986 1.353 . S
N1983 Co1948 2.145 . S
N1983 C1984 1.397 . S
N1983 C1985 1.334 . S
C1984 H1965 0.929 . S
C1984 C1981 1.388 . S
C1984 N1983 1.397 . S
C1985 H1966 0.929 . S
C1985 C1982 1.404 . S
C1985 N1983 1.334 . S
C1986 H1978 0.930 . S
C1986 C1981 1.418 . S
C1986 C1982 1.353 . S
C1987 H1957 0.930 . S
C1987 N1988 1.330 . S
C1987 C1989 1.446 . S
N1988 Co1947 2.151 . S
N1988 C1987 1.330 . S
N1988 C1992 1.418 . S
C1989 H1968 0.929 . S
C1989 C1987 1.446 . S
C1989 C1990 1.332 . S
C1990 H1970 0.931 . S
C1990 C1989 1.332 . S
C1990 C1991 1.267 . S
C1991 H1959 0.929 . S
C1991 C1990 1.267 . S
C1991 C1992 1.251 . S
C1992 H1962 0.929 . S
C1992 N1988 1.418 . S
C1992 C1991 1.251 . S
C1993 H1960 0.930 . S
C1993 C1995 1.406 . S
C1993 C1998 1.261 . S
C1994 H1961 0.930 . S
C1994 N1996 1.325 . S
C1994 C1997 1.357 . S
C1995 H1963 0.928 . S
C1995 C1993 1.406 . S
C1995 N1996 1.261 . S
N1996 Co1947 2.214 . S
N1996 C1994 1.325 . S
N1996 C1995 1.261 . S
C1997 H1967 0.931 . S
C1997 C1994 1.357 . S
C1997 C1998 1.312 . S
C1998 H1969 0.930 . S
C1998 C1993 1.261 . S
C1998 C1997 1.312 . S
C1999 O1971 1.214 . S
C1999 O1979 1.234 . S
C2000 H1972 0.929 . S
C2000 C2003 1.391 . S
C2000 C2005 1.391 . S
C2001 H1973 0.929 . S
C2001 C2002 1.390 . S
C2001 N2004 1.391 . S
C2002 H1974 0.930 . S
C2002 C2001 1.390 . S
C2002 C2003 1.392 . S
C2003 H1975 0.929 . S
C2003 C2000 1.391 . S
C2003 C2002 1.392 . S
N2004 Co1948 2.257 . S
N2004 C2001 1.391 . S
N2004 C2005 1.388 . S
C2005 H1976 0.930 . S
C2005 C2000 1.391 . S
C2005 N2004 1.388 . S
Co2006 O2008 2.143 . S
Co2006 O2014 2.074 . S
Co2006 O2017 2.093 . S
Co2006 O2030 2.097 . S
Co2006 N2047 2.151 . S
Co2006 N2055 2.214 . S
Co2007 O2008 2.160 . S
Co2007 O2013 2.058 . S
Co2007 O2023 2.057 . S
Co2007 O2038 2.037 . S
Co2007 N2042 2.145 . S
Co2007 N2063 2.257 . S
O2008 Co2006 2.143 . S
O2008 Co2007 2.160 . S
C2009 O2010 1.278 . S
C2009 O2017 1.224 . S
O2010 C2009 1.278 . S
C2011 O2012 1.245 . S
C2011 O2023 1.232 . S
O2012 C2011 1.245 . S
O2013 Co2007 2.058 . S
O2013 C2039 1.269 . S
O2014 Co2006 2.074 . S
O2014 C2039 1.257 . S
H2015 C2040 0.930 . S
H2016 C2046 0.930 . S
O2017 Co2006 2.093 . S
O2017 C2009 1.224 . S
H2018 C2050 0.929 . S
H2019 C2052 0.930 . S
H2020 C2053 0.930 . S
H2021 C2051 0.929 . S
H2022 C2054 0.928 . S
O2023 Co2007 2.057 . S
O2023 C2011 1.232 . S
H2024 C2043 0.929 . S
H2025 C2044 0.929 . S
H2026 C2056 0.931 . S
H2027 C2048 0.929 . S
H2028 C2057 0.930 . S
H2029 C2049 0.931 . S
O2030 Co2006 2.097 . S
O2030 C2058 1.214 . S
H2031 C2059 0.929 . S
H2032 C2060 0.929 . S
H2033 C2061 0.930 . S
H2034 C2062 0.929 . S
H2035 C2064 0.930 . S
H2036 C2041 0.930 . S
H2037 C2045 0.930 . S
O2038 Co2007 2.037 . S
O2038 C2058 1.234 . S
C2039 O2013 1.269 . S
C2039 O2014 1.257 . S
C2040 H2015 0.930 . S
C2040 C2043 1.388 . S
C2040 C2045 1.418 . S
C2041 H2036 0.930 . S
C2041 C2044 1.404 . S
C2041 C2045 1.353 . S
N2042 Co2007 2.145 . S
N2042 C2043 1.397 . S
N2042 C2044 1.334 . S
C2043 H2024 0.929 . S
C2043 C2040 1.388 . S
C2043 N2042 1.397 . S
C2044 H2025 0.929 . S
C2044 C2041 1.404 . S
C2044 N2042 1.334 . S
C2045 H2037 0.930 . S
C2045 C2040 1.418 . S
C2045 C2041 1.353 . S
C2046 H2016 0.930 . S
C2046 N2047 1.330 . S
C2046 C2048 1.446 . S
N2047 Co2006 2.151 . S
N2047 C2046 1.330 . S
N2047 C2051 1.418 . S
C2048 H2027 0.929 . S
C2048 C2046 1.446 . S
C2048 C2049 1.332 . S
C2049 H2029 0.931 . S
C2049 C2048 1.332 . S
C2049 C2050 1.267 . S
C2050 H2018 0.929 . S
C2050 C2049 1.267 . S
C2050 C2051 1.251 . S
C2051 H2021 0.929 . S
C2051 N2047 1.418 . S
C2051 C2050 1.251 . S
C2052 H2019 0.930 . S
C2052 C2054 1.406 . S
C2052 C2057 1.261 . S
C2053 H2020 0.930 . S
C2053 N2055 1.325 . S
C2053 C2056 1.357 . S
C2054 H2022 0.928 . S
C2054 C2052 1.406 . S
C2054 N2055 1.261 . S
N2055 Co2006 2.214 . S
N2055 C2053 1.325 . S
N2055 C2054 1.261 . S
C2056 H2026 0.931 . S
C2056 C2053 1.357 . S
C2056 C2057 1.312 . S
C2057 H2028 0.930 . S
C2057 C2052 1.261 . S
C2057 C2056 1.312 . S
C2058 O2030 1.214 . S
C2058 O2038 1.234 . S
C2059 H2031 0.929 . S
C2059 C2062 1.391 . S
C2059 C2064 1.391 . S
C2060 H2032 0.929 . S
C2060 C2061 1.390 . S
C2060 N2063 1.391 . S
C2061 H2033 0.930 . S
C2061 C2060 1.390 . S
C2061 C2062 1.392 . S
C2062 H2034 0.929 . S
C2062 C2059 1.391 . S
C2062 C2061 1.392 . S
N2063 Co2007 2.257 . S
N2063 C2060 1.391 . S
N2063 C2064 1.388 . S
C2064 H2035 0.930 . S
C2064 C2059 1.391 . S
C2064 N2063 1.388 . S
Co2065 O2067 2.143 . S
Co2065 O2073 2.074 . S
Co2065 O2076 2.093 . S
Co2065 O2089 2.097 . S
Co2065 N2106 2.151 . S
Co2065 N2114 2.214 . S
Co2066 O2067 2.160 . S
Co2066 O2072 2.058 . S
Co2066 O2082 2.057 . S
Co2066 O2097 2.037 . S
Co2066 N2101 2.145 . S
Co2066 N2122 2.257 . S
O2067 Co2065 2.143 . S
O2067 Co2066 2.160 . S
C2068 O2069 1.278 . S
C2068 O2076 1.224 . S
O2069 C2068 1.278 . S
C2070 O2071 1.245 . S
C2070 O2082 1.232 . S
O2071 C2070 1.245 . S
O2072 Co2066 2.058 . S
O2072 C2098 1.269 . S
O2073 Co2065 2.074 . S
O2073 C2098 1.257 . S
H2074 C2099 0.930 . S
H2075 C2105 0.930 . S
O2076 Co2065 2.093 . S
O2076 C2068 1.224 . S
H2077 C2109 0.929 . S
H2078 C2111 0.930 . S
H2079 C2112 0.930 . S
H2080 C2110 0.929 . S
H2081 C2113 0.928 . S
O2082 Co2066 2.057 . S
O2082 C2070 1.232 . S
H2083 C2102 0.929 . S
H2084 C2103 0.929 . S
H2085 C2115 0.931 . S
H2086 C2107 0.929 . S
H2087 C2116 0.930 . S
H2088 C2108 0.931 . S
O2089 Co2065 2.097 . S
O2089 C2117 1.214 . S
H2090 C2118 0.929 . S
H2091 C2119 0.929 . S
H2092 C2120 0.930 . S
H2093 C2121 0.929 . S
H2094 C2123 0.930 . S
H2095 C2100 0.930 . S
H2096 C2104 0.930 . S
O2097 Co2066 2.037 . S
O2097 C2117 1.234 . S
C2098 O2072 1.269 . S
C2098 O2073 1.257 . S
C2099 H2074 0.930 . S
C2099 C2102 1.388 . S
C2099 C2104 1.418 . S
C2100 H2095 0.930 . S
C2100 C2103 1.404 . S
C2100 C2104 1.353 . S
N2101 Co2066 2.145 . S
N2101 C2102 1.397 . S
N2101 C2103 1.334 . S
C2102 H2083 0.929 . S
C2102 C2099 1.388 . S
C2102 N2101 1.397 . S
C2103 H2084 0.929 . S
C2103 C2100 1.404 . S
C2103 N2101 1.334 . S
C2104 H2096 0.930 . S
C2104 C2099 1.418 . S
C2104 C2100 1.353 . S
C2105 H2075 0.930 . S
C2105 N2106 1.330 . S
C2105 C2107 1.446 . S
N2106 Co2065 2.151 . S
N2106 C2105 1.330 . S
N2106 C2110 1.418 . S
C2107 H2086 0.929 . S
C2107 C2105 1.446 . S
C2107 C2108 1.332 . S
C2108 H2088 0.931 . S
C2108 C2107 1.332 . S
C2108 C2109 1.267 . S
C2109 H2077 0.929 . S
C2109 C2108 1.267 . S
C2109 C2110 1.251 . S
C2110 H2080 0.929 . S
C2110 N2106 1.418 . S
C2110 C2109 1.251 . S
C2111 H2078 0.930 . S
C2111 C2113 1.406 . S
C2111 C2116 1.261 . S
C2112 H2079 0.930 . S
C2112 N2114 1.325 . S
C2112 C2115 1.357 . S
C2113 H2081 0.928 . S
C2113 C2111 1.406 . S
C2113 N2114 1.261 . S
N2114 Co2065 2.214 . S
N2114 C2112 1.325 . S
N2114 C2113 1.261 . S
C2115 H2085 0.931 . S
C2115 C2112 1.357 . S
C2115 C2116 1.312 . S
C2116 H2087 0.930 . S
C2116 C2111 1.261 . S
C2116 C2115 1.312 . S
C2117 O2089 1.214 . S
C2117 O2097 1.234 . S
C2118 H2090 0.929 . S
C2118 C2121 1.391 . S
C2118 C2123 1.391 . S
C2119 H2091 0.929 . S
C2119 C2120 1.390 . S
C2119 N2122 1.391 . S
C2120 H2092 0.930 . S
C2120 C2119 1.390 . S
C2120 C2121 1.392 . S
C2121 H2093 0.929 . S
C2121 C2118 1.391 . S
C2121 C2120 1.392 . S
N2122 Co2066 2.257 . S
N2122 C2119 1.391 . S
N2122 C2123 1.388 . S
C2123 H2094 0.930 . S
C2123 C2118 1.391 . S
C2123 N2122 1.388 . S
H2124 C2132 0.950 . S
H2125 C2137 0.950 . S
H2126 C2134 0.950 . S
H2127 C2136 0.950 . S
H2128 C2138 0.950 . S
H2129 C2140 0.950 . S
H2130 C2142 0.950 . S
H2131 C2143 0.950 . S
C2132 H2124 0.950 . S
C2132 C2133 1.386 . S
C2132 C2134 1.391 . S
C2133 C2132 1.386 . S
C2133 C2137 1.393 . S
C2134 H2126 0.950 . S
C2134 C2132 1.391 . S
C2134 C2135 1.400 . S
C2135 C2134 1.400 . S
C2135 C2136 1.398 . S
C2135 C2141 1.491 . S
C2136 H2127 0.950 . S
C2136 C2135 1.398 . S
C2136 C2137 1.391 . S
C2137 H2125 0.950 . S
C2137 C2133 1.393 . S
C2137 C2136 1.391 . S
C2138 H2128 0.950 . S
C2138 C2139 1.386 . S
C2138 C2140 1.391 . S
C2139 C2138 1.386 . S
C2139 C2143 1.393 . S
C2140 H2129 0.950 . S
C2140 C2138 1.391 . S
C2140 C2141 1.400 . S
C2141 C2135 1.491 . S
C2141 C2140 1.400 . S
C2141 C2142 1.398 . S
C2142 H2130 0.950 . S
C2142 C2141 1.398 . S
C2142 C2143 1.391 . S
C2143 H2131 0.950 . S
C2143 C2139 1.393 . S
C2143 C2142 1.391 . S
H2144 C2152 0.950 . S
H2145 C2157 0.950 . S
H2146 C2154 0.950 . S
H2147 C2156 0.950 . S
H2148 C2158 0.950 1_554 S
H2149 C2160 0.950 . S
H2150 C2162 0.950 . S
H2151 C2163 0.950 . S
C2152 H2144 0.950 . S
C2152 C2153 1.386 . S
C2152 C2154 1.391 . S
C2153 C2152 1.386 . S
C2153 C2157 1.393 . S
C2154 H2146 0.950 . S
C2154 C2152 1.391 . S
C2154 C2155 1.400 . S
C2155 C2154 1.400 . S
C2155 C2156 1.398 . S
C2155 C2161 1.491 . S
C2156 H2147 0.950 . S
C2156 C2155 1.398 . S
C2156 C2157 1.391 . S
C2157 H2145 0.950 . S
C2157 C2153 1.393 . S
C2157 C2156 1.391 . S
C2158 H2148 0.950 1_556 S
C2158 C2159 1.386 . S
C2158 C2160 1.391 . S
C2159 C2158 1.386 . S
C2159 C2163 1.393 . S
C2160 H2149 0.950 . S
C2160 C2158 1.391 . S
C2160 C2161 1.400 . S
C2161 C2155 1.491 . S
C2161 C2160 1.400 . S
C2161 C2162 1.398 . S
C2162 H2150 0.950 . S
C2162 C2161 1.398 . S
C2162 C2163 1.391 . S
C2163 H2151 0.950 . S
C2163 C2159 1.393 . S
C2163 C2162 1.391 . S
H2164 C2172 0.950 . S
H2165 C2177 0.950 . S
H2166 C2174 0.950 . S
H2167 C2176 0.950 . S
H2168 C2178 0.950 . S
H2169 C2180 0.950 . S
H2170 C2182 0.950 . S
H2171 C2183 0.950 . S
C2172 H2164 0.950 . S
C2172 C2173 1.386 . S
C2172 C2174 1.391 . S
C2173 C2172 1.386 . S
C2173 C2177 1.393 . S
C2174 H2166 0.950 . S
C2174 C2172 1.391 . S
C2174 C2175 1.400 . S
C2175 C2174 1.400 . S
C2175 C2176 1.398 . S
C2175 C2181 1.491 . S
C2176 H2167 0.950 . S
C2176 C2175 1.398 . S
C2176 C2177 1.391 . S
C2177 H2165 0.950 . S
C2177 C2173 1.393 . S
C2177 C2176 1.391 . S
C2178 H2168 0.950 . S
C2178 C2179 1.386 . S
C2178 C2180 1.391 . S
C2179 C2178 1.386 . S
C2179 C2183 1.393 . S
C2180 H2169 0.950 . S
C2180 C2178 1.391 . S
C2180 C2181 1.400 . S
C2181 C2175 1.491 . S
C2181 C2180 1.400 . S
C2181 C2182 1.398 . S
C2182 H2170 0.950 . S
C2182 C2181 1.398 . S
C2182 C2183 1.391 . S
C2183 H2171 0.950 . S
C2183 C2179 1.393 . S
C2183 C2182 1.391 . S
H2184 C2192 0.950 . S
H2185 C2197 0.950 . S
H2186 C2194 0.950 . S
H2187 C2196 0.950 . S
H2188 C2198 0.950 . S
H2189 C2200 0.950 . S
H2190 C2202 0.950 . S
H2191 C2203 0.950 . S
C2192 H2184 0.950 . S
C2192 C2193 1.386 . S
C2192 C2194 1.391 . S
C2193 C2192 1.386 . S
C2193 C2197 1.393 . S
C2194 H2186 0.950 . S
C2194 C2192 1.391 . S
C2194 C2195 1.400 . S
C2195 C2194 1.400 . S
C2195 C2196 1.398 . S
C2195 C2201 1.491 . S
C2196 H2187 0.950 . S
C2196 C2195 1.398 . S
C2196 C2197 1.391 . S
C2197 H2185 0.950 . S
C2197 C2193 1.393 . S
C2197 C2196 1.391 . S
C2198 H2188 0.950 . S
C2198 C2199 1.386 . S
C2198 C2200 1.391 . S
C2199 C2198 1.386 . S
C2199 C2203 1.393 . S
C2200 H2189 0.950 . S
C2200 C2198 1.391 . S
C2200 C2201 1.400 . S
C2201 C2195 1.491 . S
C2201 C2200 1.400 . S
C2201 C2202 1.398 . S
C2202 H2190 0.950 . S
C2202 C2201 1.398 . S
C2202 C2203 1.391 . S
C2203 H2191 0.950 . S
C2203 C2199 1.393 . S
C2203 C2202 1.391 . S
H2204 C2212 0.950 . S
H2205 C2217 0.950 . S
H2206 C2214 0.950 . S
H2207 C2216 0.950 . S
H2208 C2218 0.950 . S
H2209 C2220 0.950 . S
H2210 C2222 0.950 . S
H2211 C2223 0.950 . S
C2212 H2204 0.950 . S
C2212 C2213 1.386 . S
C2212 C2214 1.391 . S
C2213 C2212 1.386 . S
C2213 C2217 1.393 . S
C2214 H2206 0.950 . S
C2214 C2212 1.391 . S
C2214 C2215 1.400 . S
C2215 C2214 1.400 . S
C2215 C2216 1.398 . S
C2215 C2221 1.491 . S
C2216 H2207 0.950 . S
C2216 C2215 1.398 . S
C2216 C2217 1.391 . S
C2217 H2205 0.950 . S
C2217 C2213 1.393 . S
C2217 C2216 1.391 . S
C2218 H2208 0.950 . S
C2218 C2219 1.386 . S
C2218 C2220 1.391 . S
C2219 C2218 1.386 . S
C2219 C2223 1.393 . S
C2220 H2209 0.950 . S
C2220 C2218 1.391 . S
C2220 C2221 1.400 . S
C2221 C2215 1.491 . S
C2221 C2220 1.400 . S
C2221 C2222 1.398 . S
C2222 H2210 0.950 . S
C2222 C2221 1.398 . S
C2222 C2223 1.391 . S
C2223 H2211 0.950 . S
C2223 C2219 1.393 . S
C2223 C2222 1.391 . S
H2224 C2232 0.950 . S
H2225 C2237 0.950 . S
H2226 C2234 0.950 . S
H2227 C2236 0.950 . S
H2228 C2238 0.950 . S
H2229 C2240 0.950 . S
H2230 C2242 0.950 . S
H2231 C2243 0.950 . S
C2232 H2224 0.950 . S
C2232 C2233 1.386 . S
C2232 C2234 1.391 . S
C2233 C2232 1.386 . S
C2233 C2237 1.393 . S
C2234 H2226 0.950 . S
C2234 C2232 1.391 . S
C2234 C2235 1.400 . S
C2235 C2234 1.400 . S
C2235 C2236 1.398 . S
C2235 C2241 1.491 . S
C2236 H2227 0.950 . S
C2236 C2235 1.398 . S
C2236 C2237 1.391 . S
C2237 H2225 0.950 . S
C2237 C2233 1.393 . S
C2237 C2236 1.391 . S
C2238 H2228 0.950 . S
C2238 C2239 1.386 . S
C2238 C2240 1.391 . S
C2239 C2238 1.386 . S
C2239 C2243 1.393 . S
C2240 H2229 0.950 . S
C2240 C2238 1.391 . S
C2240 C2241 1.400 . S
C2241 C2235 1.491 . S
C2241 C2240 1.400 . S
C2241 C2242 1.398 . S
C2242 H2230 0.950 . S
C2242 C2241 1.398 . S
C2242 C2243 1.391 . S
C2243 H2231 0.950 . S
C2243 C2239 1.393 . S
C2243 C2242 1.391 . S
H2244 C2252 0.950 . S
H2245 C2257 0.950 . S
H2246 C2254 0.950 . S
H2247 C2256 0.950 . S
H2248 C2258 0.950 . S
H2249 C2260 0.950 . S
H2250 C2262 0.950 . S
H2251 C2263 0.950 . S
C2252 H2244 0.950 . S
C2252 C2253 1.386 . S
C2252 C2254 1.391 . S
C2253 C2252 1.386 . S
C2253 C2257 1.393 . S
C2254 H2246 0.950 . S
C2254 C2252 1.391 . S
C2254 C2255 1.400 . S
C2255 C2254 1.400 . S
C2255 C2256 1.398 . S
C2255 C2261 1.491 . S
C2256 H2247 0.950 . S
C2256 C2255 1.398 . S
C2256 C2257 1.391 . S
C2257 H2245 0.950 . S
C2257 C2253 1.393 . S
C2257 C2256 1.391 . S
C2258 H2248 0.950 . S
C2258 C2259 1.386 . S
C2258 C2260 1.391 . S
C2259 C2258 1.386 . S
C2259 C2263 1.393 . S
C2260 H2249 0.950 . S
C2260 C2258 1.391 . S
C2260 C2261 1.400 . S
C2261 C2255 1.491 . S
C2261 C2260 1.400 . S
C2261 C2262 1.398 . S
C2262 H2250 0.950 . S
C2262 C2261 1.398 . S
C2262 C2263 1.391 . S
C2263 H2251 0.950 . S
C2263 C2259 1.393 . S
C2263 C2262 1.391 . S
H2264 C2272 0.950 . S
H2265 C2277 0.950 . S
H2266 C2274 0.950 . S
H2267 C2276 0.950 . S
H2268 C2278 0.950 . S
H2269 C2280 0.950 . S
H2270 C2282 0.950 . S
H2271 C2283 0.950 . S
C2272 H2264 0.950 . S
C2272 C2273 1.386 . S
C2272 C2274 1.391 . S
C2273 C2272 1.386 . S
C2273 C2277 1.393 . S
C2274 H2266 0.950 . S
C2274 C2272 1.391 . S
C2274 C2275 1.400 . S
C2275 C2274 1.400 . S
C2275 C2276 1.398 . S
C2275 C2281 1.491 . S
C2276 H2267 0.950 . S
C2276 C2275 1.398 . S
C2276 C2277 1.391 . S
C2277 H2265 0.950 . S
C2277 C2273 1.393 . S
C2277 C2276 1.391 . S
C2278 H2268 0.950 . S
C2278 C2279 1.386 . S
C2278 C2280 1.391 . S
C2279 C2278 1.386 . S
C2279 C2283 1.393 . S
C2280 H2269 0.950 . S
C2280 C2278 1.391 . S
C2280 C2281 1.400 . S
C2281 C2275 1.491 . S
C2281 C2280 1.400 . S
C2281 C2282 1.398 . S
C2282 H2270 0.950 . S
C2282 C2281 1.398 . S
C2282 C2283 1.391 . S
C2283 H2271 0.950 . S
C2283 C2279 1.393 . S
C2283 C2282 1.391 . S
H2284 C2292 0.950 . S
H2285 C2297 0.950 . S
H2286 C2294 0.950 . S
H2287 C2296 0.950 . S
H2288 C2298 0.950 . S
H2289 C2300 0.950 . S
H2290 C2302 0.950 . S
H2291 C2303 0.950 . S
C2292 H2284 0.950 . S
C2292 C2293 1.386 . S
C2292 C2294 1.391 . S
C2293 C2292 1.386 . S
C2293 C2297 1.393 . S
C2294 H2286 0.950 . S
C2294 C2292 1.391 . S
C2294 C2295 1.400 . S
C2295 C2294 1.400 . S
C2295 C2296 1.398 . S
C2295 C2301 1.491 . S
C2296 H2287 0.950 . S
C2296 C2295 1.398 . S
C2296 C2297 1.391 . S
C2297 H2285 0.950 . S
C2297 C2293 1.393 . S
C2297 C2296 1.391 . S
C2298 H2288 0.950 . S
C2298 C2299 1.386 . S
C2298 C2300 1.391 . S
C2299 C2298 1.386 . S
C2299 C2303 1.393 . S
C2300 H2289 0.950 . S
C2300 C2298 1.391 . S
C2300 C2301 1.400 . S
C2301 C2295 1.491 . S
C2301 C2300 1.400 . S
C2301 C2302 1.398 . S
C2302 H2290 0.950 . S
C2302 C2301 1.398 . S
C2302 C2303 1.391 . S
C2303 H2291 0.950 . S
C2303 C2299 1.393 . S
C2303 C2302 1.391 . S
H2304 C2312 0.950 . S
H2305 C2317 0.950 . S
H2306 C2314 0.950 . S
H2307 C2316 0.950 . S
H2308 C2318 0.950 . S
H2309 C2320 0.950 . S
H2310 C2322 0.950 . S
H2311 C2323 0.950 . S
C2312 H2304 0.950 . S
C2312 C2313 1.386 . S
C2312 C2314 1.391 . S
C2313 C2312 1.386 . S
C2313 C2317 1.393 . S
C2314 H2306 0.950 . S
C2314 C2312 1.391 . S
C2314 C2315 1.400 . S
C2315 C2314 1.400 . S
C2315 C2316 1.398 . S
C2315 C2321 1.491 . S
C2316 H2307 0.950 . S
C2316 C2315 1.398 . S
C2316 C2317 1.391 . S
C2317 H2305 0.950 . S
C2317 C2313 1.393 . S
C2317 C2316 1.391 . S
C2318 H2308 0.950 . S
C2318 C2319 1.386 . S
C2318 C2320 1.391 . S
C2319 C2318 1.386 . S
C2319 C2323 1.393 . S
C2320 H2309 0.950 . S
C2320 C2318 1.391 . S
C2320 C2321 1.400 . S
C2321 C2315 1.491 . S
C2321 C2320 1.400 . S
C2321 C2322 1.398 . S
C2322 H2310 0.950 . S
C2322 C2321 1.398 . S
C2322 C2323 1.391 . S
C2323 H2311 0.950 . S
C2323 C2319 1.393 . S
C2323 C2322 1.391 . S
H2324 C2332 0.950 . S
H2325 C2337 0.950 . S
H2326 C2334 0.950 . S
H2327 C2336 0.950 . S
H2328 C2338 0.950 . S
H2329 C2340 0.950 . S
H2330 C2342 0.950 . S
H2331 C2343 0.950 . S
C2332 H2324 0.950 . S
C2332 C2333 1.386 . S
C2332 C2334 1.391 . S
C2333 C2332 1.386 . S
C2333 C2337 1.393 . S
C2334 H2326 0.950 . S
C2334 C2332 1.391 . S
C2334 C2335 1.400 . S
C2335 C2334 1.400 . S
C2335 C2336 1.398 . S
C2335 C2341 1.491 . S
C2336 H2327 0.950 . S
C2336 C2335 1.398 . S
C2336 C2337 1.391 . S
C2337 H2325 0.950 . S
C2337 C2333 1.393 . S
C2337 C2336 1.391 . S
C2338 H2328 0.950 . S
C2338 C2339 1.386 . S
C2338 C2340 1.391 . S
C2339 C2338 1.386 . S
C2339 C2343 1.393 . S
C2340 H2329 0.950 . S
C2340 C2338 1.391 . S
C2340 C2341 1.400 . S
C2341 C2335 1.491 . S
C2341 C2340 1.400 . S
C2341 C2342 1.398 . S
C2342 H2330 0.950 . S
C2342 C2341 1.398 . S
C2342 C2343 1.391 . S
C2343 H2331 0.950 . S
C2343 C2339 1.393 . S
C2343 C2342 1.391 . S
H2344 C2352 0.950 . S
H2345 C2357 0.950 . S
H2346 C2354 0.950 . S
H2347 C2356 0.950 . S
H2348 C2358 0.950 . S
H2349 C2360 0.950 . S
H2350 C2362 0.950 . S
H2351 C2363 0.950 . S
C2352 H2344 0.950 . S
C2352 C2353 1.386 . S
C2352 C2354 1.391 . S
C2353 C2352 1.386 . S
C2353 C2357 1.393 . S
C2354 H2346 0.950 . S
C2354 C2352 1.391 . S
C2354 C2355 1.400 . S
C2355 C2354 1.400 . S
C2355 C2356 1.398 . S
C2355 C2361 1.491 . S
C2356 H2347 0.950 . S
C2356 C2355 1.398 . S
C2356 C2357 1.391 . S
C2357 H2345 0.950 . S
C2357 C2353 1.393 . S
C2357 C2356 1.391 . S
C2358 H2348 0.950 . S
C2358 C2359 1.386 . S
C2358 C2360 1.391 . S
C2359 C2358 1.386 . S
C2359 C2363 1.393 . S
C2360 H2349 0.950 . S
C2360 C2358 1.391 . S
C2360 C2361 1.400 . S
C2361 C2355 1.491 . S
C2361 C2360 1.400 . S
C2361 C2362 1.398 . S
C2362 H2350 0.950 . S
C2362 C2361 1.398 . S
C2362 C2363 1.391 . S
C2363 H2351 0.950 . S
C2363 C2359 1.393 . S
C2363 C2362 1.391 . S
H2364 C2372 0.950 . S
H2365 C2377 0.950 . S
H2366 C2374 0.950 . S
H2367 C2376 0.950 1_655 S
H2368 C2378 0.950 . S
H2369 C2380 0.950 . S
H2370 C2382 0.950 1_455 S
H2371 C2383 0.950 . S
C2372 H2364 0.950 . S
C2372 C2373 1.386 . S
C2372 C2374 1.391 . S
C2373 C2372 1.386 . S
C2373 C2377 1.393 . S
C2374 H2366 0.950 . S
C2374 C2372 1.391 . S
C2374 C2375 1.400 . S
C2375 C2374 1.400 . S
C2375 C2376 1.398 . S
C2375 C2381 1.491 1_455 S
C2376 H2367 0.950 1_455 S
C2376 C2375 1.398 . S
C2376 C2377 1.391 . S
C2377 H2365 0.950 . S
C2377 C2373 1.393 . S
C2377 C2376 1.391 . S
C2378 H2368 0.950 . S
C2378 C2379 1.386 . S
C2378 C2380 1.391 . S
C2379 C2378 1.386 . S
C2379 C2383 1.393 . S
C2380 H2369 0.950 . S
C2380 C2378 1.391 . S
C2380 C2381 1.400 . S
C2381 C2375 1.491 1_655 S
C2381 C2380 1.400 . S
C2381 C2382 1.398 . S
C2382 H2370 0.950 1_655 S
C2382 C2381 1.398 . S
C2382 C2383 1.391 . S
C2383 H2371 0.950 . S
C2383 C2379 1.393 . S
C2383 C2382 1.391 . S
H2384 C2392 0.950 . S
H2385 C2397 0.950 . S
H2386 C2394 0.950 . S
H2387 C2396 0.950 . S
H2388 C2398 0.950 . S
H2389 C2400 0.950 . S
H2390 C2402 0.950 . S
H2391 C2403 0.950 . S
C2392 H2384 0.950 . S
C2392 C2393 1.386 . S
C2392 C2394 1.391 . S
C2393 C2392 1.386 . S
C2393 C2397 1.393 . S
C2394 H2386 0.950 . S
C2394 C2392 1.391 . S
C2394 C2395 1.400 . S
C2395 C2394 1.400 . S
C2395 C2396 1.398 . S
C2395 C2401 1.491 . S
C2396 H2387 0.950 . S
C2396 C2395 1.398 . S
C2396 C2397 1.391 . S
C2397 H2385 0.950 . S
C2397 C2393 1.393 . S
C2397 C2396 1.391 . S
C2398 H2388 0.950 . S
C2398 C2399 1.386 . S
C2398 C2400 1.391 . S
C2399 C2398 1.386 . S
C2399 C2403 1.393 . S
C2400 H2389 0.950 . S
C2400 C2398 1.391 . S
C2400 C2401 1.400 . S
C2401 C2395 1.491 . S
C2401 C2400 1.400 . S
C2401 C2402 1.398 . S
C2402 H2390 0.950 . S
C2402 C2401 1.398 . S
C2402 C2403 1.391 . S
C2403 H2391 0.950 . S
C2403 C2399 1.393 . S
C2403 C2402 1.391 . S
H2404 C2412 0.950 . S
H2405 C2417 0.950 . S
H2406 C2414 0.950 . S
H2407 C2416 0.950 . S
H2408 C2418 0.950 . S
H2409 C2420 0.950 . S
H2410 C2422 0.950 . S
H2411 C2423 0.950 . S
C2412 H2404 0.950 . S
C2412 C2413 1.386 . S
C2412 C2414 1.391 . S
C2413 C2412 1.386 . S
C2413 C2417 1.393 . S
C2414 H2406 0.950 . S
C2414 C2412 1.391 . S
C2414 C2415 1.400 . S
C2415 C2414 1.400 . S
C2415 C2416 1.398 . S
C2415 C2421 1.491 1_565 S
C2416 H2407 0.950 . S
C2416 C2415 1.398 . S
C2416 C2417 1.391 . S
C2417 H2405 0.950 . S
C2417 C2413 1.393 . S
C2417 C2416 1.391 . S
C2418 H2408 0.950 . S
C2418 C2419 1.386 . S
C2418 C2420 1.391 . S
C2419 C2418 1.386 . S
C2419 C2423 1.393 . S
C2420 H2409 0.950 . S
C2420 C2418 1.391 . S
C2420 C2421 1.400 . S
C2421 C2415 1.491 1_545 S
C2421 C2420 1.400 . S
C2421 C2422 1.398 . S
C2422 H2410 0.950 . S
C2422 C2421 1.398 . S
C2422 C2423 1.391 . S
C2423 H2411 0.950 . S
C2423 C2419 1.393 . S
C2423 C2422 1.391 . S
H2424 C2432 0.950 . S
H2425 C2437 0.950 . S
H2426 C2434 0.950 . S
H2427 C2436 0.950 . S
H2428 C2438 0.950 . S
H2429 C2440 0.950 . S
H2430 C2442 0.950 . S
H2431 C2443 0.950 . S
C2432 H2424 0.950 . S
C2432 C2433 1.386 . S
C2432 C2434 1.391 . S
C2433 C2432 1.386 . S
C2433 C2437 1.393 . S
C2434 H2426 0.950 . S
C2434 C2432 1.391 . S
C2434 C2435 1.400 . S
C2435 C2434 1.400 . S
C2435 C2436 1.398 . S
C2435 C2441 1.491 1_565 S
C2436 H2427 0.950 . S
C2436 C2435 1.398 . S
C2436 C2437 1.391 . S
C2437 H2425 0.950 . S
C2437 C2433 1.393 . S
C2437 C2436 1.391 . S
C2438 H2428 0.950 . S
C2438 C2439 1.386 . S
C2438 C2440 1.391 . S
C2439 C2438 1.386 . S
C2439 C2443 1.393 . S
C2440 H2429 0.950 . S
C2440 C2438 1.391 . S
C2440 C2441 1.400 . S
C2441 C2435 1.491 1_545 S
C2441 C2440 1.400 . S
C2441 C2442 1.398 . S
C2442 H2430 0.950 . S
C2442 C2441 1.398 . S
C2442 C2443 1.391 . S
C2443 H2431 0.950 . S
C2443 C2439 1.393 . S
C2443 C2442 1.391 . S
H2444 C2452 0.950 . S
H2445 C2457 0.950 . S
H2446 C2454 0.950 . S
H2447 C2456 0.950 . S
H2448 C2458 0.950 . S
H2449 C2460 0.950 . S
H2450 C2462 0.950 . S
H2451 C2463 0.950 . S
C2452 H2444 0.950 . S
C2452 C2453 1.386 . S
C2452 C2454 1.391 . S
C2453 C2452 1.386 . S
C2453 C2457 1.393 . S
C2454 H2446 0.950 . S
C2454 C2452 1.391 . S
C2454 C2455 1.400 . S
C2455 C2454 1.400 . S
C2455 C2456 1.398 . S
C2455 C2461 1.491 1_455 S
C2456 H2447 0.950 . S
C2456 C2455 1.398 . S
C2456 C2457 1.391 . S
C2457 H2445 0.950 . S
C2457 C2453 1.393 . S
C2457 C2456 1.391 . S
C2458 H2448 0.950 . S
C2458 C2459 1.386 . S
C2458 C2460 1.391 . S
C2459 C2458 1.386 . S
C2459 C2463 1.393 . S
C2460 H2449 0.950 . S
C2460 C2458 1.391 . S
C2460 C2461 1.400 . S
C2461 C2455 1.491 1_655 S
C2461 C2460 1.400 . S
C2461 C2462 1.398 . S
C2462 H2450 0.950 . S
C2462 C2461 1.398 . S
C2462 C2463 1.391 . S
C2463 H2451 0.950 . S
C2463 C2459 1.393 . S
C2463 C2462 1.391 . S
H2464 C2472 0.950 . S
H2465 C2477 0.950 . S
H2466 C2474 0.950 . S
H2467 C2476 0.950 . S
H2468 C2478 0.950 . S
H2469 C2480 0.950 . S
H2470 C2482 0.950 . S
H2471 C2483 0.950 . S
C2472 H2464 0.950 . S
C2472 C2473 1.386 . S
C2472 C2474 1.391 . S
C2473 C2472 1.386 . S
C2473 C2477 1.393 . S
C2474 H2466 0.950 . S
C2474 C2472 1.391 . S
C2474 C2475 1.400 . S
C2475 C2474 1.400 . S
C2475 C2476 1.398 . S
C2475 C2481 1.491 . S
C2476 H2467 0.950 . S
C2476 C2475 1.398 . S
C2476 C2477 1.391 . S
C2477 H2465 0.950 . S
C2477 C2473 1.393 . S
C2477 C2476 1.391 . S
C2478 H2468 0.950 . S
C2478 C2479 1.386 . S
C2478 C2480 1.391 . S
C2479 C2478 1.386 . S
C2479 C2483 1.393 . S
C2480 H2469 0.950 . S
C2480 C2478 1.391 . S
C2480 C2481 1.400 . S
C2481 C2475 1.491 . S
C2481 C2480 1.400 . S
C2481 C2482 1.398 . S
C2482 H2470 0.950 . S
C2482 C2481 1.398 . S
C2482 C2483 1.391 . S
C2483 H2471 0.950 . S
C2483 C2479 1.393 . S
C2483 C2482 1.391 . S
H2484 C2492 0.950 . S
H2485 C2497 0.950 . S
H2486 C2494 0.955 . S
H2487 C2496 0.950 1_554 S
H2488 C2498 0.950 . S
H2489 C2500 0.950 . S
H2490 C2502 0.950 . S
H2491 C2503 0.950 . S
C2492 H2484 0.950 . S
C2492 C2493 1.386 . S
C2492 C2494 1.384 1_556 S
C2493 C2492 1.386 . S
C2493 C2497 1.393 . S
C2494 H2486 0.955 . S
C2494 C2492 1.384 1_554 S
C2494 C2495 1.403 . S
C2495 C2494 1.403 . S
C2495 C2496 1.398 1_554 S
C2495 C2501 1.491 . S
C2496 H2487 0.950 1_556 S
C2496 C2495 1.398 1_556 S
C2496 C2497 1.391 . S
C2497 H2485 0.950 . S
C2497 C2493 1.393 . S
C2497 C2496 1.391 . S
C2498 H2488 0.950 . S
C2498 C2499 1.386 . S
C2498 C2500 1.391 . S
C2499 C2498 1.386 . S
C2499 C2503 1.393 . S
C2500 H2489 0.950 . S
C2500 C2498 1.391 . S
C2500 C2501 1.400 . S
C2501 C2495 1.491 . S
C2501 C2500 1.400 . S
C2501 C2502 1.398 . S
C2502 H2490 0.950 . S
C2502 C2501 1.398 . S
C2502 C2503 1.391 . S
C2503 H2491 0.950 . S
C2503 C2499 1.393 . S
C2503 C2502 1.391 . S
H2504 C2512 0.950 . S
H2505 C2517 0.950 . S
H2506 C2514 0.950 . S
H2507 C2516 0.950 . S
H2508 C2518 0.950 . S
H2509 C2520 0.950 . S
H2510 C2522 0.950 . S
H2511 C2523 0.950 . S
C2512 H2504 0.950 . S
C2512 C2513 1.386 . S
C2512 C2514 1.391 1_556 S
C2513 C2512 1.386 . S
C2513 C2517 1.393 . S
C2514 H2506 0.950 . S
C2514 C2512 1.391 1_554 S
C2514 C2515 1.400 . S
C2515 C2514 1.400 . S
C2515 C2516 1.398 1_554 S
C2515 C2521 1.491 . S
C2516 H2507 0.950 . S
C2516 C2515 1.398 1_556 S
C2516 C2517 1.391 . S
C2517 H2505 0.950 . S
C2517 C2513 1.393 . S
C2517 C2516 1.391 . S
C2518 H2508 0.950 . S
C2518 C2519 1.386 . S
C2518 C2520 1.391 . S
C2519 C2518 1.386 . S
C2519 C2523 1.393 . S
C2520 H2509 0.950 . S
C2520 C2518 1.391 . S
C2520 C2521 1.400 . S
C2521 C2515 1.491 . S
C2521 C2520 1.400 . S
C2521 C2522 1.398 . S
C2522 H2510 0.950 . S
C2522 C2521 1.398 . S
C2522 C2523 1.391 . S
C2523 H2511 0.950 . S
C2523 C2519 1.393 . S
C2523 C2522 1.391 . S
H2524 C2532 0.950 . S
H2525 C2537 0.950 . S
H2526 C2534 0.950 . S
H2527 C2536 0.950 . S
H2528 C2538 0.950 . S
H2529 C2540 0.950 1_556 S
H2530 C2542 0.950 . S
H2531 C2543 0.950 . S
C2532 H2524 0.950 . S
C2532 C2533 1.386 1_554 S
C2532 C2534 1.391 . S
C2533 C2532 1.386 1_556 S
C2533 C2537 1.393 . S
C2534 H2526 0.950 . S
C2534 C2532 1.391 . S
C2534 C2535 1.400 . S
C2535 C2534 1.400 . S
C2535 C2536 1.398 1_554 S
C2535 C2541 1.491 . S
C2536 H2527 0.950 . S
C2536 C2535 1.398 1_556 S
C2536 C2537 1.391 . S
C2537 H2525 0.950 . S
C2537 C2533 1.393 . S
C2537 C2536 1.391 . S
C2538 H2528 0.950 . S
C2538 C2539 1.386 . S
C2538 C2540 1.391 . S
C2539 C2538 1.386 . S
C2539 C2543 1.393 . S
C2540 H2529 0.950 1_554 S
C2540 C2538 1.391 . S
C2540 C2541 1.400 . S
C2541 C2535 1.491 . S
C2541 C2540 1.400 . S
C2541 C2542 1.398 . S
C2542 H2530 0.950 . S
C2542 C2541 1.398 . S
C2542 C2543 1.391 . S
C2543 H2531 0.950 . S
C2543 C2539 1.393 . S
C2543 C2542 1.391 . S
H2544 C2552 0.950 . S
H2545 C2557 0.950 . S
H2546 C2554 0.950 . S
H2547 C2556 0.950 . S
H2548 C2558 0.950 . S
H2549 C2560 0.950 . S
H2550 C2562 0.950 . S
H2551 C2563 0.950 . S
C2552 H2544 0.950 . S
C2552 C2553 1.386 . S
C2552 C2554 1.391 . S
C2553 C2552 1.386 . S
C2553 C2557 1.393 . S
C2554 H2546 0.950 . S
C2554 C2552 1.391 . S
C2554 C2555 1.400 . S
C2555 C2554 1.400 . S
C2555 C2556 1.398 . S
C2555 C2561 1.491 . S
C2556 H2547 0.950 . S
C2556 C2555 1.398 . S
C2556 C2557 1.391 . S
C2557 H2545 0.950 . S
C2557 C2553 1.393 . S
C2557 C2556 1.391 . S
C2558 H2548 0.950 . S
C2558 C2559 1.386 . S
C2558 C2560 1.391 . S
C2559 C2558 1.386 . S
C2559 C2563 1.393 . S
C2560 H2549 0.950 . S
C2560 C2558 1.391 . S
C2560 C2561 1.400 . S
C2561 C2555 1.491 . S
C2561 C2560 1.400 . S
C2561 C2562 1.398 . S
C2562 H2550 0.950 . S
C2562 C2561 1.398 . S
C2562 C2563 1.391 . S
C2563 H2551 0.950 . S
C2563 C2559 1.393 . S
C2563 C2562 1.391 . S
H2564 C2572 0.950 . S
H2565 C2577 0.950 . S
H2566 C2574 0.950 . S
H2567 C2576 0.950 . S
H2568 C2578 0.950 . S
H2569 C2580 0.950 . S
H2570 C2582 0.950 . S
H2571 C2583 0.950 . S
C2572 H2564 0.950 . S
C2572 C2573 1.386 . S
C2572 C2574 1.391 . S
C2573 C2572 1.386 . S
C2573 C2577 1.393 . S
C2574 H2566 0.950 . S
C2574 C2572 1.391 . S
C2574 C2575 1.400 . S
C2575 C2574 1.400 . S
C2575 C2576 1.398 . S
C2575 C2581 1.491 . S
C2576 H2567 0.950 . S
C2576 C2575 1.398 . S
C2576 C2577 1.391 . S
C2577 H2565 0.950 . S
C2577 C2573 1.393 . S
C2577 C2576 1.391 . S
C2578 H2568 0.950 . S
C2578 C2579 1.386 . S
C2578 C2580 1.391 . S
C2579 C2578 1.386 . S
C2579 C2583 1.393 . S
C2580 H2569 0.950 . S
C2580 C2578 1.391 . S
C2580 C2581 1.400 . S
C2581 C2575 1.491 . S
C2581 C2580 1.400 . S
C2581 C2582 1.398 . S
C2582 H2570 0.950 . S
C2582 C2581 1.398 . S
C2582 C2583 1.391 . S
C2583 H2571 0.950 . S
C2583 C2579 1.393 . S
C2583 C2582 1.391 . S
H2584 C2592 0.950 . S
H2585 C2597 0.950 . S
H2586 C2594 0.950 . S
H2587 C2596 0.950 . S
H2588 C2598 0.950 . S
H2589 C2600 0.950 . S
H2590 C2602 0.950 . S
H2591 C2603 0.950 . S
C2592 H2584 0.950 . S
C2592 C2593 1.386 . S
C2592 C2594 1.391 . S
C2593 C2592 1.386 . S
C2593 C2597 1.393 . S
C2594 H2586 0.950 . S
C2594 C2592 1.391 . S
C2594 C2595 1.400 . S
C2595 C2594 1.400 . S
C2595 C2596 1.398 . S
C2595 C2601 1.491 . S
C2596 H2587 0.950 . S
C2596 C2595 1.398 . S
C2596 C2597 1.391 . S
C2597 H2585 0.950 . S
C2597 C2593 1.393 . S
C2597 C2596 1.391 . S
C2598 H2588 0.950 . S
C2598 C2599 1.386 . S
C2598 C2600 1.391 . S
C2599 C2598 1.386 . S
C2599 C2603 1.393 . S
C2600 H2589 0.950 . S
C2600 C2598 1.391 . S
C2600 C2601 1.400 . S
C2601 C2595 1.491 . S
C2601 C2600 1.400 . S
C2601 C2602 1.398 . S
C2602 H2590 0.950 . S
C2602 C2601 1.398 . S
C2602 C2603 1.391 . S
C2603 H2591 0.950 . S
C2603 C2599 1.393 . S
C2603 C2602 1.391 . S
H2604 C2612 0.950 . S
H2605 C2617 0.950 . S
H2606 C2614 0.950 . S
H2607 C2616 0.950 . S
H2608 C2618 0.950 . S
H2609 C2620 0.950 . S
H2610 C2622 0.950 . S
H2611 C2623 0.950 1_554 S
C2612 H2604 0.950 . S
C2612 C2613 1.386 . S
C2612 C2614 1.391 . S
C2613 C2612 1.386 . S
C2613 C2617 1.393 1_554 S
C2614 H2606 0.950 . S
C2614 C2612 1.391 . S
C2614 C2615 1.400 1_554 S
C2615 C2614 1.400 1_556 S
C2615 C2616 1.398 . S
C2615 C2621 1.491 . S
C2616 H2607 0.950 . S
C2616 C2615 1.398 . S
C2616 C2617 1.391 . S
C2617 H2605 0.950 . S
C2617 C2613 1.393 1_556 S
C2617 C2616 1.391 . S
C2618 H2608 0.950 . S
C2618 C2619 1.386 . S
C2618 C2620 1.391 . S
C2619 C2618 1.386 . S
C2619 C2623 1.393 . S
C2620 H2609 0.950 . S
C2620 C2618 1.391 . S
C2620 C2621 1.400 . S
C2621 C2615 1.491 . S
C2621 C2620 1.400 . S
C2621 C2622 1.398 1_556 S
C2622 H2610 0.950 . S
C2622 C2621 1.398 1_554 S
C2622 C2623 1.391 1_554 S
C2623 H2611 0.950 1_556 S
C2623 C2619 1.393 . S
C2623 C2622 1.391 1_556 S
H2624 C2632 0.950 . S
H2625 C2637 0.950 1_554 S
H2626 C2634 0.950 . S
H2627 C2636 0.950 . S
H2628 C2638 0.950 . S
H2629 C2640 0.950 . S
H2630 C2642 0.950 . S
H2631 C2643 0.950 . S
C2632 H2624 0.950 . S
C2632 C2633 1.386 . S
C2632 C2634 1.391 . S
C2633 C2632 1.386 . S
C2633 C2637 1.393 . S
C2634 H2626 0.950 . S
C2634 C2632 1.391 . S
C2634 C2635 1.400 . S
C2635 C2634 1.400 . S
C2635 C2636 1.398 1_556 S
C2635 C2641 1.491 . S
C2636 H2627 0.950 . S
C2636 C2635 1.398 1_554 S
C2636 C2637 1.391 1_554 S
C2637 H2625 0.950 1_556 S
C2637 C2633 1.393 . S
C2637 C2636 1.391 1_556 S
C2638 H2628 0.950 . S
C2638 C2639 1.386 . S
C2638 C2640 1.391 . S
C2639 C2638 1.386 . S
C2639 C2643 1.393 1_554 S
C2640 H2629 0.950 . S
C2640 C2638 1.391 . S
C2640 C2641 1.400 1_554 S
C2641 C2635 1.491 . S
C2641 C2640 1.400 1_556 S
C2641 C2642 1.398 . S
C2642 H2630 0.950 . S
C2642 C2641 1.398 . S
C2642 C2643 1.391 . S
C2643 H2631 0.950 . S
C2643 C2639 1.393 1_556 S
C2643 C2642 1.391 . S
H2644 C2652 0.950 . S
H2645 C2657 0.950 . S
H2646 C2654 0.950 . S
H2647 C2656 0.950 . S
H2648 C2658 0.950 . S
H2649 C2660 0.950 . S
H2650 C2662 0.945 1_554 S
H2651 C2663 0.938 1_554 S
C2652 H2644 0.950 . S
C2652 C2653 1.386 . S
C2652 C2654 1.391 . S
C2653 C2652 1.386 . S
C2653 C2657 1.393 1_554 S
C2654 H2646 0.950 . S
C2654 C2652 1.391 . S
C2654 C2655 1.400 1_554 S
C2655 C2654 1.400 1_556 S
C2655 C2656 1.398 . S
C2655 C2661 1.491 . S
C2656 H2647 0.950 . S
C2656 C2655 1.398 . S
C2656 C2657 1.391 . S
C2657 H2645 0.950 . S
C2657 C2653 1.393 1_556 S
C2657 C2656 1.391 . S
C2658 H2648 0.950 . S
C2658 C2659 1.386 . S
C2658 C2660 1.391 . S
C2659 C2658 1.386 . S
C2659 C2663 1.393 . S
C2660 H2649 0.950 . S
C2660 C2658 1.391 . S
C2660 C2661 1.400 . S
C2661 C2655 1.491 . S
C2661 C2660 1.400 . S
C2661 C2662 1.401 . S
C2662 H2650 0.945 1_556 S
C2662 C2661 1.401 . S
C2662 C2663 1.393 . S
C2663 H2651 0.938 1_556 S
C2663 C2659 1.393 . S
C2663 C2662 1.393 . S
H2664 C2672 0.950 . S
H2665 C2677 0.950 . S
H2666 C2674 0.950 . S
H2667 C2676 0.950 . S
H2668 C2678 0.950 . S
H2669 C2680 0.950 . S
H2670 C2682 0.950 . S
H2671 C2683 0.950 . S
C2672 H2664 0.950 . S
C2672 C2673 1.386 . S
C2672 C2674 1.391 . S
C2673 C2672 1.386 . S
C2673 C2677 1.393 . S
C2674 H2666 0.950 . S
C2674 C2672 1.391 . S
C2674 C2675 1.400 . S
C2675 C2674 1.400 . S
C2675 C2676 1.398 . S
C2675 C2681 1.491 . S
C2676 H2667 0.950 . S
C2676 C2675 1.398 . S
C2676 C2677 1.391 . S
C2677 H2665 0.950 . S
C2677 C2673 1.393 . S
C2677 C2676 1.391 . S
C2678 H2668 0.950 . S
C2678 C2679 1.386 . S
C2678 C2680 1.391 . S
C2679 C2678 1.386 . S
C2679 C2683 1.393 . S
C2680 H2669 0.950 . S
C2680 C2678 1.391 . S
C2680 C2681 1.400 . S
C2681 C2675 1.491 . S
C2681 C2680 1.400 . S
C2681 C2682 1.398 . S
C2682 H2670 0.950 . S
C2682 C2681 1.398 . S
C2682 C2683 1.391 . S
C2683 H2671 0.950 . S
C2683 C2679 1.393 . S
C2683 C2682 1.391 . S
H2684 C2692 0.950 . S
H2685 C2697 0.950 . S
H2686 C2694 0.950 . S
H2687 C2696 0.950 . S
H2688 C2698 0.950 . S
H2689 C2700 0.950 . S
H2690 C2702 0.950 . S
H2691 C2703 0.950 . S
C2692 H2684 0.950 . S
C2692 C2693 1.386 . S
C2692 C2694 1.391 . S
C2693 C2692 1.386 . S
C2693 C2697 1.393 . S
C2694 H2686 0.950 . S
C2694 C2692 1.391 . S
C2694 C2695 1.400 . S
C2695 C2694 1.400 . S
C2695 C2696 1.398 . S
C2695 C2701 1.491 . S
C2696 H2687 0.950 . S
C2696 C2695 1.398 . S
C2696 C2697 1.391 . S
C2697 H2685 0.950 . S
C2697 C2693 1.393 . S
C2697 C2696 1.391 . S
C2698 H2688 0.950 . S
C2698 C2699 1.386 . S
C2698 C2700 1.391 . S
C2699 C2698 1.386 . S
C2699 C2703 1.393 . S
C2700 H2689 0.950 . S
C2700 C2698 1.391 . S
C2700 C2701 1.400 . S
C2701 C2695 1.491 . S
C2701 C2700 1.400 . S
C2701 C2702 1.398 . S
C2702 H2690 0.950 . S
C2702 C2701 1.398 . S
C2702 C2703 1.391 . S
C2703 H2691 0.950 . S
C2703 C2699 1.393 . S
C2703 C2702 1.391 . S
H2704 C2712 0.950 . S
H2705 C2717 0.950 . S
H2706 C2714 0.950 . S
H2707 C2716 0.950 . S
H2708 C2718 0.950 . S
H2709 C2720 0.950 . S
H2710 C2722 0.950 . S
H2711 C2723 0.950 . S
C2712 H2704 0.950 . S
C2712 C2713 1.386 . S
C2712 C2714 1.391 . S
C2713 C2712 1.386 . S
C2713 C2717 1.393 . S
C2714 H2706 0.950 . S
C2714 C2712 1.391 . S
C2714 C2715 1.400 . S
C2715 C2714 1.400 . S
C2715 C2716 1.398 . S
C2715 C2721 1.491 . S
C2716 H2707 0.950 . S
C2716 C2715 1.398 . S
C2716 C2717 1.391 . S
C2717 H2705 0.950 . S
C2717 C2713 1.393 . S
C2717 C2716 1.391 . S
C2718 H2708 0.950 . S
C2718 C2719 1.386 . S
C2718 C2720 1.391 . S
C2719 C2718 1.386 . S
C2719 C2723 1.393 . S
C2720 H2709 0.950 . S
C2720 C2718 1.391 . S
C2720 C2721 1.400 . S
C2721 C2715 1.491 . S
C2721 C2720 1.400 . S
C2721 C2722 1.398 . S
C2722 H2710 0.950 . S
C2722 C2721 1.398 . S
C2722 C2723 1.391 . S
C2723 H2711 0.950 . S
C2723 C2719 1.393 . S
C2723 C2722 1.391 . S
H2724 C2732 0.950 . S
H2725 C2737 0.950 . S
H2726 C2734 0.950 . S
H2727 C2736 0.950 . S
H2728 C2738 0.950 . S
H2729 C2740 0.950 . S
H2730 C2742 0.950 . S
H2731 C2743 0.950 . S
C2732 H2724 0.950 . S
C2732 C2733 1.386 . S
C2732 C2734 1.391 . S
C2733 C2732 1.386 . S
C2733 C2737 1.393 . S
C2734 H2726 0.950 . S
C2734 C2732 1.391 . S
C2734 C2735 1.400 . S
C2735 C2734 1.400 . S
C2735 C2736 1.398 . S
C2735 C2741 1.491 . S
C2736 H2727 0.950 . S
C2736 C2735 1.398 . S
C2736 C2737 1.391 . S
C2737 H2725 0.950 . S
C2737 C2733 1.393 . S
C2737 C2736 1.391 . S
C2738 H2728 0.950 . S
C2738 C2739 1.386 . S
C2738 C2740 1.391 . S
C2739 C2738 1.386 . S
C2739 C2743 1.393 . S
C2740 H2729 0.950 . S
C2740 C2738 1.391 . S
C2740 C2741 1.400 . S
C2741 C2735 1.491 . S
C2741 C2740 1.400 . S
C2741 C2742 1.398 . S
C2742 H2730 0.950 . S
C2742 C2741 1.398 . S
C2742 C2743 1.391 . S
C2743 H2731 0.950 . S
C2743 C2739 1.393 . S
C2743 C2742 1.391 . S
H2744 C2752 0.950 . S
H2745 C2757 0.950 . S
H2746 C2754 0.950 . S
H2747 C2756 0.950 . S
H2748 C2758 0.950 . S
H2749 C2760 0.950 . S
H2750 C2762 0.950 . S
H2751 C2763 0.950 . S
C2752 H2744 0.950 . S
C2752 C2753 1.386 . S
C2752 C2754 1.391 . S
C2753 C2752 1.386 . S
C2753 C2757 1.393 . S
C2754 H2746 0.950 . S
C2754 C2752 1.391 . S
C2754 C2755 1.400 . S
C2755 C2754 1.400 . S
C2755 C2756 1.398 . S
C2755 C2761 1.491 . S
C2756 H2747 0.950 . S
C2756 C2755 1.398 . S
C2756 C2757 1.391 . S
C2757 H2745 0.950 . S
C2757 C2753 1.393 . S
C2757 C2756 1.391 . S
C2758 H2748 0.950 . S
C2758 C2759 1.386 . S
C2758 C2760 1.391 . S
C2759 C2758 1.386 . S
C2759 C2763 1.393 . S
C2760 H2749 0.950 . S
C2760 C2758 1.391 . S
C2760 C2761 1.400 . S
C2761 C2755 1.491 . S
C2761 C2760 1.400 . S
C2761 C2762 1.398 . S
C2762 H2750 0.950 . S
C2762 C2761 1.398 . S
C2762 C2763 1.391 . S
C2763 H2751 0.950 . S
C2763 C2759 1.393 . S
C2763 C2762 1.391 . S
H2764 C2772 0.950 . S
H2765 C2777 0.950 . S
H2766 C2774 0.950 . S
H2767 C2776 0.950 . S
H2768 C2778 0.950 . S
H2769 C2780 0.950 . S
H2770 C2782 0.950 . S
H2771 C2783 0.950 . S
C2772 H2764 0.950 . S
C2772 C2773 1.386 . S
C2772 C2774 1.391 . S
C2773 C2772 1.386 . S
C2773 C2777 1.393 . S
C2774 H2766 0.950 . S
C2774 C2772 1.391 . S
C2774 C2775 1.400 . S
C2775 C2774 1.400 . S
C2775 C2776 1.398 . S
C2775 C2781 1.491 . S
C2776 H2767 0.950 . S
C2776 C2775 1.398 . S
C2776 C2777 1.391 . S
C2777 H2765 0.950 . S
C2777 C2773 1.393 . S
C2777 C2776 1.391 . S
C2778 H2768 0.950 . S
C2778 C2779 1.386 . S
C2778 C2780 1.391 . S
C2779 C2778 1.386 . S
C2779 C2783 1.393 . S
C2780 H2769 0.950 . S
C2780 C2778 1.391 . S
C2780 C2781 1.400 . S
C2781 C2775 1.491 . S
C2781 C2780 1.400 . S
C2781 C2782 1.398 . S
C2782 H2770 0.950 . S
C2782 C2781 1.398 . S
C2782 C2783 1.391 . S
C2783 H2771 0.950 . S
C2783 C2779 1.393 . S
C2783 C2782 1.391 . S
H2784 C2792 0.950 . S
H2785 C2797 0.950 . S
H2786 C2794 0.950 . S
H2787 C2796 0.950 . S
H2788 C2798 0.950 . S
H2789 C2800 0.950 . S
H2790 C2802 0.950 . S
H2791 C2803 0.950 . S
C2792 H2784 0.950 . S
C2792 C2793 1.386 . S
C2792 C2794 1.391 . S
C2793 C2792 1.386 . S
C2793 C2797 1.393 . S
C2794 H2786 0.950 . S
C2794 C2792 1.391 . S
C2794 C2795 1.400 . S
C2795 C2794 1.400 . S
C2795 C2796 1.398 . S
C2795 C2801 1.491 . S
C2796 H2787 0.950 . S
C2796 C2795 1.398 . S
C2796 C2797 1.391 . S
C2797 H2785 0.950 . S
C2797 C2793 1.393 . S
C2797 C2796 1.391 . S
C2798 H2788 0.950 . S
C2798 C2799 1.386 . S
C2798 C2800 1.391 . S
C2799 C2798 1.386 . S
C2799 C2803 1.393 . S
C2800 H2789 0.950 . S
C2800 C2798 1.391 . S
C2800 C2801 1.400 . S
C2801 C2795 1.491 . S
C2801 C2800 1.400 . S
C2801 C2802 1.398 . S
C2802 H2790 0.950 . S
C2802 C2801 1.398 . S
C2802 C2803 1.391 . S
C2803 H2791 0.950 . S
C2803 C2799 1.393 . S
C2803 C2802 1.391 . S
H2804 C2812 0.950 . S
H2805 C2817 0.950 . S
H2806 C2814 0.950 . S
H2807 C2816 0.950 . S
H2808 C2818 0.950 . S
H2809 C2820 0.950 . S
H2810 C2822 0.950 . S
H2811 C2823 0.950 . S
C2812 H2804 0.950 . S
C2812 C2813 1.386 . S
C2812 C2814 1.391 . S
C2813 C2812 1.386 . S
C2813 C2817 1.393 . S
C2814 H2806 0.950 . S
C2814 C2812 1.391 . S
C2814 C2815 1.400 . S
C2815 C2814 1.400 . S
C2815 C2816 1.398 . S
C2815 C2821 1.491 . S
C2816 H2807 0.950 . S
C2816 C2815 1.398 . S
C2816 C2817 1.391 . S
C2817 H2805 0.950 . S
C2817 C2813 1.393 . S
C2817 C2816 1.391 . S
C2818 H2808 0.950 . S
C2818 C2819 1.386 . S
C2818 C2820 1.391 . S
C2819 C2818 1.386 . S
C2819 C2823 1.393 . S
C2820 H2809 0.950 . S
C2820 C2818 1.391 . S
C2820 C2821 1.400 . S
C2821 C2815 1.491 . S
C2821 C2820 1.400 . S
C2821 C2822 1.398 . S
C2822 H2810 0.950 . S
C2822 C2821 1.398 . S
C2822 C2823 1.391 . S
C2823 H2811 0.950 . S
C2823 C2819 1.393 . S
C2823 C2822 1.391 . S
H2824 C2832 0.950 . S
H2825 C2837 0.950 . S
H2826 C2834 0.950 . S
H2827 C2836 0.950 . S
H2828 C2838 0.950 . S
H2829 C2840 0.950 . S
H2830 C2842 0.950 . S
H2831 C2843 0.950 . S
C2832 H2824 0.950 . S
C2832 C2833 1.386 . S
C2832 C2834 1.391 . S
C2833 C2832 1.386 . S
C2833 C2837 1.393 . S
C2834 H2826 0.950 . S
C2834 C2832 1.391 . S
C2834 C2835 1.400 . S
C2835 C2834 1.400 . S
C2835 C2836 1.398 . S
C2835 C2841 1.491 . S
C2836 H2827 0.950 . S
C2836 C2835 1.398 . S
C2836 C2837 1.391 . S
C2837 H2825 0.950 . S
C2837 C2833 1.393 . S
C2837 C2836 1.391 . S
C2838 H2828 0.950 . S
C2838 C2839 1.386 . S
C2838 C2840 1.391 . S
C2839 C2838 1.386 . S
C2839 C2843 1.393 . S
C2840 H2829 0.950 . S
C2840 C2838 1.391 . S
C2840 C2841 1.400 . S
C2841 C2835 1.491 . S
C2841 C2840 1.400 . S
C2841 C2842 1.398 . S
C2842 H2830 0.950 . S
C2842 C2841 1.398 . S
C2842 C2843 1.391 . S
C2843 H2831 0.950 . S
C2843 C2839 1.393 . S
C2843 C2842 1.391 . S
H2844 C2852 0.950 . S
H2845 C2857 0.950 . S
H2846 C2854 0.950 . S
H2847 C2856 0.950 . S
H2848 C2858 0.950 . S
H2849 C2860 0.950 . S
H2850 C2862 0.950 . S
H2851 C2863 0.950 . S
C2852 H2844 0.950 . S
C2852 C2853 1.386 . S
C2852 C2854 1.391 . S
C2853 C2852 1.386 . S
C2853 C2857 1.393 . S
C2854 H2846 0.950 . S
C2854 C2852 1.391 . S
C2854 C2855 1.400 . S
C2855 C2854 1.400 . S
C2855 C2856 1.398 . S
C2855 C2861 1.491 . S
C2856 H2847 0.950 . S
C2856 C2855 1.398 . S
C2856 C2857 1.391 . S
C2857 H2845 0.950 . S
C2857 C2853 1.393 . S
C2857 C2856 1.391 . S
C2858 H2848 0.950 . S
C2858 C2859 1.386 . S
C2858 C2860 1.391 . S
C2859 C2858 1.386 . S
C2859 C2863 1.393 . S
C2860 H2849 0.950 . S
C2860 C2858 1.391 . S
C2860 C2861 1.400 . S
C2861 C2855 1.491 . S
C2861 C2860 1.400 . S
C2861 C2862 1.398 . S
C2862 H2850 0.950 . S
C2862 C2861 1.398 . S
C2862 C2863 1.391 . S
C2863 H2851 0.950 . S
C2863 C2859 1.393 . S
C2863 C2862 1.391 . S
H2864 C2872 0.950 . S
H2865 C2877 0.950 . S
H2866 C2874 0.950 . S
H2867 C2876 0.950 . S
H2868 C2878 0.950 . S
H2869 C2880 0.950 . S
H2870 C2882 0.950 . S
H2871 C2883 0.950 . S
C2872 H2864 0.950 . S
C2872 C2873 1.386 . S
C2872 C2874 1.391 . S
C2873 C2872 1.386 . S
C2873 C2877 1.393 . S
C2874 H2866 0.950 . S
C2874 C2872 1.391 . S
C2874 C2875 1.400 . S
C2875 C2874 1.400 . S
C2875 C2876 1.398 . S
C2875 C2881 1.491 . S
C2876 H2867 0.950 . S
C2876 C2875 1.398 . S
C2876 C2877 1.391 . S
C2877 H2865 0.950 . S
C2877 C2873 1.393 . S
C2877 C2876 1.391 . S
C2878 H2868 0.950 . S
C2878 C2879 1.386 . S
C2878 C2880 1.391 . S
C2879 C2878 1.386 . S
C2879 C2883 1.393 . S
C2880 H2869 0.950 . S
C2880 C2878 1.391 . S
C2880 C2881 1.400 . S
C2881 C2875 1.491 . S
C2881 C2880 1.400 . S
C2881 C2882 1.398 . S
C2882 H2870 0.950 . S
C2882 C2881 1.398 . S
C2882 C2883 1.391 . S
C2883 H2871 0.950 . S
C2883 C2879 1.393 . S
C2883 C2882 1.391 . S
H2884 C2892 0.950 . S
H2885 C2897 0.950 . S
H2886 C2894 0.950 . S
H2887 C2896 0.950 . S
H2888 C2898 0.950 . S
H2889 C2900 0.950 . S
H2890 C2902 0.950 . S
H2891 C2903 0.950 . S
C2892 H2884 0.950 . S
C2892 C2893 1.386 . S
C2892 C2894 1.391 . S
C2893 C2892 1.386 . S
C2893 C2897 1.393 . S
C2894 H2886 0.950 . S
C2894 C2892 1.391 . S
C2894 C2895 1.400 . S
C2895 C2894 1.400 . S
C2895 C2896 1.398 . S
C2895 C2901 1.491 . S
C2896 H2887 0.950 . S
C2896 C2895 1.398 . S
C2896 C2897 1.391 . S
C2897 H2885 0.950 . S
C2897 C2893 1.393 . S
C2897 C2896 1.391 . S
C2898 H2888 0.950 . S
C2898 C2899 1.386 . S
C2898 C2900 1.391 . S
C2899 C2898 1.386 . S
C2899 C2903 1.393 . S
C2900 H2889 0.950 . S
C2900 C2898 1.391 . S
C2900 C2901 1.400 . S
C2901 C2895 1.491 . S
C2901 C2900 1.400 . S
C2901 C2902 1.398 . S
C2902 H2890 0.950 . S
C2902 C2901 1.398 . S
C2902 C2903 1.391 . S
C2903 H2891 0.950 . S
C2903 C2899 1.393 . S
C2903 C2902 1.391 . S
H2904 C2912 0.950 . S
H2905 C2917 0.950 . S
H2906 C2914 0.950 . S
H2907 C2916 0.950 . S
H2908 C2918 0.950 . S
H2909 C2920 0.950 . S
H2910 C2922 0.950 . S
H2911 C2923 0.950 . S
C2912 H2904 0.950 . S
C2912 C2913 1.386 . S
C2912 C2914 1.391 . S
C2913 C2912 1.386 . S
C2913 C2917 1.393 . S
C2914 H2906 0.950 . S
C2914 C2912 1.391 . S
C2914 C2915 1.400 . S
C2915 C2914 1.400 . S
C2915 C2916 1.398 . S
C2915 C2921 1.491 . S
C2916 H2907 0.950 . S
C2916 C2915 1.398 . S
C2916 C2917 1.391 . S
C2917 H2905 0.950 . S
C2917 C2913 1.393 . S
C2917 C2916 1.391 . S
C2918 H2908 0.950 . S
C2918 C2919 1.386 . S
C2918 C2920 1.391 . S
C2919 C2918 1.386 . S
C2919 C2923 1.393 . S
C2920 H2909 0.950 . S
C2920 C2918 1.391 . S
C2920 C2921 1.400 . S
C2921 C2915 1.491 . S
C2921 C2920 1.400 . S
C2921 C2922 1.398 . S
C2922 H2910 0.950 . S
C2922 C2921 1.398 . S
C2922 C2923 1.391 . S
C2923 H2911 0.950 . S
C2923 C2919 1.393 . S
C2923 C2922 1.391 . S
H2924 C2932 0.950 . S
H2925 C2937 0.950 . S
H2926 C2934 0.950 . S
H2927 C2936 0.950 . S
H2928 C2938 0.950 . S
H2929 C2940 0.950 . S
H2930 C2942 0.950 . S
H2931 C2943 0.950 . S
C2932 H2924 0.950 . S
C2932 C2933 1.386 . S
C2932 C2934 1.391 . S
C2933 C2932 1.386 . S
C2933 C2937 1.393 . S
C2934 H2926 0.950 . S
C2934 C2932 1.391 . S
C2934 C2935 1.400 . S
C2935 C2934 1.400 . S
C2935 C2936 1.398 . S
C2935 C2941 1.491 . S
C2936 H2927 0.950 . S
C2936 C2935 1.398 . S
C2936 C2937 1.391 . S
C2937 H2925 0.950 . S
C2937 C2933 1.393 . S
C2937 C2936 1.391 . S
C2938 H2928 0.950 . S
C2938 C2939 1.386 . S
C2938 C2940 1.391 . S
C2939 C2938 1.386 . S
C2939 C2943 1.393 . S
C2940 H2929 0.950 . S
C2940 C2938 1.391 . S
C2940 C2941 1.400 . S
C2941 C2935 1.491 . S
C2941 C2940 1.400 . S
C2941 C2942 1.398 . S
C2942 H2930 0.950 . S
C2942 C2941 1.398 . S
C2942 C2943 1.391 . S
C2943 H2931 0.950 . S
C2943 C2939 1.393 . S
C2943 C2942 1.391 . S
H2944 C2952 0.950 . S
H2945 C2957 0.950 . S
H2946 C2954 0.950 . S
H2947 C2956 0.950 . S
H2948 C2958 0.950 . S
H2949 C2960 0.950 . S
H2950 C2962 0.950 . S
H2951 C2963 0.950 . S
C2952 H2944 0.950 . S
C2952 C2953 1.386 . S
C2952 C2954 1.391 . S
C2953 C2952 1.386 . S
C2953 C2957 1.393 . S
C2954 H2946 0.950 . S
C2954 C2952 1.391 . S
C2954 C2955 1.400 . S
C2955 C2954 1.400 . S
C2955 C2956 1.398 . S
C2955 C2961 1.491 . S
C2956 H2947 0.950 . S
C2956 C2955 1.398 . S
C2956 C2957 1.391 . S
C2957 H2945 0.950 . S
C2957 C2953 1.393 . S
C2957 C2956 1.391 . S
C2958 H2948 0.950 . S
C2958 C2959 1.386 . S
C2958 C2960 1.391 . S
C2959 C2958 1.386 . S
C2959 C2963 1.393 . S
C2960 H2949 0.950 . S
C2960 C2958 1.391 . S
C2960 C2961 1.400 . S
C2961 C2955 1.491 . S
C2961 C2960 1.400 . S
C2961 C2962 1.398 . S
C2962 H2950 0.950 . S
C2962 C2961 1.398 . S
C2962 C2963 1.391 . S
C2963 H2951 0.950 . S
C2963 C2959 1.393 . S
C2963 C2962 1.391 . S
H2964 C2972 0.950 . S
H2965 C2977 0.950 . S
H2966 C2974 0.950 . S
H2967 C2976 0.950 . S
H2968 C2978 0.950 . S
H2969 C2980 0.950 . S
H2970 C2982 0.950 . S
H2971 C2983 0.950 . S
C2972 H2964 0.950 . S
C2972 C2973 1.386 . S
C2972 C2974 1.391 . S
C2973 C2972 1.386 . S
C2973 C2977 1.393 . S
C2974 H2966 0.950 . S
C2974 C2972 1.391 . S
C2974 C2975 1.400 . S
C2975 C2974 1.400 . S
C2975 C2976 1.398 . S
C2975 C2981 1.491 . S
C2976 H2967 0.950 . S
C2976 C2975 1.398 . S
C2976 C2977 1.391 . S
C2977 H2965 0.950 . S
C2977 C2973 1.393 . S
C2977 C2976 1.391 . S
C2978 H2968 0.950 . S
C2978 C2979 1.386 . S
C2978 C2980 1.391 . S
C2979 C2978 1.386 . S
C2979 C2983 1.393 . S
C2980 H2969 0.950 . S
C2980 C2978 1.391 . S
C2980 C2981 1.400 . S
C2981 C2975 1.491 . S
C2981 C2980 1.400 . S
C2981 C2982 1.398 . S
C2982 H2970 0.950 . S
C2982 C2981 1.398 . S
C2982 C2983 1.391 . S
C2983 H2971 0.950 . S
C2983 C2979 1.393 . S
C2983 C2982 1.391 . S
H2984 C2992 0.950 . S
H2985 C2997 0.950 . S
H2986 C2994 0.950 . S
H2987 C2996 0.950 . S
H2988 C2998 0.950 . S
H2989 C3000 0.950 . S
H2990 C3002 0.950 . S
H2991 C3003 0.950 . S
C2992 H2984 0.950 . S
C2992 C2993 1.386 . S
C2992 C2994 1.391 . S
C2993 C2992 1.386 . S
C2993 C2997 1.393 . S
C2994 H2986 0.950 . S
C2994 C2992 1.391 . S
C2994 C2995 1.400 . S
C2995 C2994 1.400 . S
C2995 C2996 1.398 . S
C2995 C3001 1.491 . S
C2996 H2987 0.950 . S
C2996 C2995 1.398 . S
C2996 C2997 1.391 . S
C2997 H2985 0.950 . S
C2997 C2993 1.393 . S
C2997 C2996 1.391 . S
C2998 H2988 0.950 . S
C2998 C2999 1.386 . S
C2998 C3000 1.391 . S
C2999 C2998 1.386 . S
C2999 C3003 1.393 . S
C3000 H2989 0.950 . S
C3000 C2998 1.391 . S
C3000 C3001 1.400 . S
C3001 C2995 1.491 . S
C3001 C3000 1.400 . S
C3001 C3002 1.398 . S
C3002 H2990 0.950 . S
C3002 C3001 1.398 . S
C3002 C3003 1.391 . S
C3003 H2991 0.950 . S
C3003 C2999 1.393 . S
C3003 C3002 1.391 . S
H3004 C3012 0.950 . S
H3005 C3017 0.950 . S
H3006 C3014 0.950 . S
H3007 C3016 0.950 . S
H3008 C3018 0.950 . S
H3009 C3020 0.950 . S
H3010 C3022 0.950 . S
H3011 C3023 0.950 . S
C3012 H3004 0.950 . S
C3012 C3013 1.386 . S
C3012 C3014 1.391 . S
C3013 C3012 1.386 . S
C3013 C3017 1.393 . S
C3014 H3006 0.950 . S
C3014 C3012 1.391 . S
C3014 C3015 1.400 . S
C3015 C3014 1.400 . S
C3015 C3016 1.398 . S
C3015 C3021 1.491 . S
C3016 H3007 0.950 . S
C3016 C3015 1.398 . S
C3016 C3017 1.391 . S
C3017 H3005 0.950 . S
C3017 C3013 1.393 . S
C3017 C3016 1.391 . S
C3018 H3008 0.950 . S
C3018 C3019 1.386 . S
C3018 C3020 1.391 . S
C3019 C3018 1.386 . S
C3019 C3023 1.393 . S
C3020 H3009 0.950 . S
C3020 C3018 1.391 . S
C3020 C3021 1.400 . S
C3021 C3015 1.491 . S
C3021 C3020 1.400 . S
C3021 C3022 1.398 . S
C3022 H3010 0.950 . S
C3022 C3021 1.398 . S
C3022 C3023 1.391 . S
C3023 H3011 0.950 . S
C3023 C3019 1.393 . S
C3023 C3022 1.391 . S
H3024 C3032 0.950 . S
H3025 C3037 0.950 . S
H3026 C3034 0.950 . S
H3027 C3036 0.950 . S
H3028 C3038 0.950 . S
H3029 C3040 0.950 . S
H3030 C3042 0.950 . S
H3031 C3043 0.950 . S
C3032 H3024 0.950 . S
C3032 C3033 1.386 . S
C3032 C3034 1.391 . S
C3033 C3032 1.386 . S
C3033 C3037 1.393 . S
C3034 H3026 0.950 . S
C3034 C3032 1.391 . S
C3034 C3035 1.400 . S
C3035 C3034 1.400 . S
C3035 C3036 1.398 . S
C3035 C3041 1.491 . S
C3036 H3027 0.950 . S
C3036 C3035 1.398 . S
C3036 C3037 1.391 . S
C3037 H3025 0.950 . S
C3037 C3033 1.393 . S
C3037 C3036 1.391 . S
C3038 H3028 0.950 . S
C3038 C3039 1.386 . S
C3038 C3040 1.391 . S
C3039 C3038 1.386 . S
C3039 C3043 1.393 . S
C3040 H3029 0.950 . S
C3040 C3038 1.391 . S
C3040 C3041 1.400 . S
C3041 C3035 1.491 . S
C3041 C3040 1.400 . S
C3041 C3042 1.398 . S
C3042 H3030 0.950 . S
C3042 C3041 1.398 . S
C3042 C3043 1.391 . S
C3043 H3031 0.950 . S
C3043 C3039 1.393 . S
C3043 C3042 1.391 . S
H3044 C3052 0.950 . S
H3045 C3057 0.950 . S
H3046 C3054 0.950 . S
H3047 C3056 0.950 . S
H3048 C3058 0.950 . S
H3049 C3060 0.950 . S
H3050 C3062 0.950 . S
H3051 C3063 0.950 . S
C3052 H3044 0.950 . S
C3052 C3053 1.386 . S
C3052 C3054 1.391 . S
C3053 C3052 1.386 . S
C3053 C3057 1.393 . S
C3054 H3046 0.950 . S
C3054 C3052 1.391 . S
C3054 C3055 1.400 . S
C3055 C3054 1.400 . S
C3055 C3056 1.398 . S
C3055 C3061 1.491 . S
C3056 H3047 0.950 . S
C3056 C3055 1.398 . S
C3056 C3057 1.391 . S
C3057 H3045 0.950 . S
C3057 C3053 1.393 . S
C3057 C3056 1.391 . S
C3058 H3048 0.950 . S
C3058 C3059 1.386 . S
C3058 C3060 1.391 . S
C3059 C3058 1.386 . S
C3059 C3063 1.393 . S
C3060 H3049 0.950 . S
C3060 C3058 1.391 . S
C3060 C3061 1.400 . S
C3061 C3055 1.491 . S
C3061 C3060 1.400 . S
C3061 C3062 1.398 . S
C3062 H3050 0.950 . S
C3062 C3061 1.398 . S
C3062 C3063 1.391 . S
C3063 H3051 0.950 . S
C3063 C3059 1.393 . S
C3063 C3062 1.391 . S
H3064 C3072 0.950 . S
H3065 C3077 0.950 . S
H3066 C3074 0.950 . S
H3067 C3076 0.950 . S
H3068 C3078 0.950 . S
H3069 C3080 0.950 . S
H3070 C3082 0.950 . S
H3071 C3083 0.950 . S
C3072 H3064 0.950 . S
C3072 C3073 1.386 . S
C3072 C3074 1.391 . S
C3073 C3072 1.386 . S
C3073 C3077 1.393 . S
C3074 H3066 0.950 . S
C3074 C3072 1.391 . S
C3074 C3075 1.400 . S
C3075 C3074 1.400 . S
C3075 C3076 1.398 . S
C3075 C3081 1.491 . S
C3076 H3067 0.950 . S
C3076 C3075 1.398 . S
C3076 C3077 1.391 . S
C3077 H3065 0.950 . S
C3077 C3073 1.393 . S
C3077 C3076 1.391 . S
C3078 H3068 0.950 . S
C3078 C3079 1.386 . S
C3078 C3080 1.391 . S
C3079 C3078 1.386 . S
C3079 C3083 1.393 . S
C3080 H3069 0.950 . S
C3080 C3078 1.391 . S
C3080 C3081 1.400 . S
C3081 C3075 1.491 . S
C3081 C3080 1.400 . S
C3081 C3082 1.398 . S
C3082 H3070 0.950 . S
C3082 C3081 1.398 . S
C3082 C3083 1.391 . S
C3083 H3071 0.950 . S
C3083 C3079 1.393 . S
C3083 C3082 1.391 . S
H3084 C3092 0.950 . S
H3085 C3097 0.950 . S
H3086 C3094 0.950 . S
H3087 C3096 0.950 . S
H3088 C3098 0.950 . S
H3089 C3100 0.950 . S
H3090 C3102 0.950 . S
H3091 C3103 0.950 . S
C3092 H3084 0.950 . S
C3092 C3093 1.386 . S
C3092 C3094 1.391 . S
C3093 C3092 1.386 . S
C3093 C3097 1.393 . S
C3094 H3086 0.950 . S
C3094 C3092 1.391 . S
C3094 C3095 1.400 . S
C3095 C3094 1.400 . S
C3095 C3096 1.398 . S
C3095 C3101 1.491 . S
C3096 H3087 0.950 . S
C3096 C3095 1.398 . S
C3096 C3097 1.391 . S
C3097 H3085 0.950 . S
C3097 C3093 1.393 . S
C3097 C3096 1.391 . S
C3098 H3088 0.950 . S
C3098 C3099 1.386 . S
C3098 C3100 1.391 . S
C3099 C3098 1.386 . S
C3099 C3103 1.393 . S
C3100 H3089 0.950 . S
C3100 C3098 1.391 . S
C3100 C3101 1.400 . S
C3101 C3095 1.491 . S
C3101 C3100 1.400 . S
C3101 C3102 1.398 . S
C3102 H3090 0.950 . S
C3102 C3101 1.398 . S
C3102 C3103 1.391 . S
C3103 H3091 0.950 . S
C3103 C3099 1.393 . S
C3103 C3102 1.391 . S
H3104 C3112 0.950 . S
H3105 C3117 0.950 . S
H3106 C3114 0.950 . S
H3107 C3116 0.950 . S
H3108 C3118 0.950 . S
H3109 C3120 0.950 . S
H3110 C3122 0.950 . S
H3111 C3123 0.950 . S
C3112 H3104 0.950 . S
C3112 C3113 1.386 . S
C3112 C3114 1.391 . S
C3113 C3112 1.386 . S
C3113 C3117 1.393 . S
C3114 H3106 0.950 . S
C3114 C3112 1.391 . S
C3114 C3115 1.400 . S
C3115 C3114 1.400 . S
C3115 C3116 1.398 . S
C3115 C3121 1.491 . S
C3116 H3107 0.950 . S
C3116 C3115 1.398 . S
C3116 C3117 1.391 . S
C3117 H3105 0.950 . S
C3117 C3113 1.393 . S
C3117 C3116 1.391 . S
C3118 H3108 0.950 . S
C3118 C3119 1.386 . S
C3118 C3120 1.391 . S
C3119 C3118 1.386 . S
C3119 C3123 1.393 . S
C3120 H3109 0.950 . S
C3120 C3118 1.391 . S
C3120 C3121 1.400 . S
C3121 C3115 1.491 . S
C3121 C3120 1.400 . S
C3121 C3122 1.398 . S
C3122 H3110 0.950 . S
C3122 C3121 1.398 . S
C3122 C3123 1.391 . S
C3123 H3111 0.950 . S
C3123 C3119 1.393 . S
C3123 C3122 1.391 . S
H3124 C3132 0.950 . S
H3125 C3137 0.950 . S
H3126 C3134 0.950 . S
H3127 C3136 0.950 . S
H3128 C3138 0.950 . S
H3129 C3140 0.950 . S
H3130 C3142 0.950 . S
H3131 C3143 0.950 . S
C3132 H3124 0.950 . S
C3132 C3133 1.386 . S
C3132 C3134 1.391 . S
C3133 C3132 1.386 . S
C3133 C3137 1.393 . S
C3134 H3126 0.950 . S
C3134 C3132 1.391 . S
C3134 C3135 1.400 . S
C3135 C3134 1.400 . S
C3135 C3136 1.398 . S
C3135 C3141 1.491 . S
C3136 H3127 0.950 . S
C3136 C3135 1.398 . S
C3136 C3137 1.391 . S
C3137 H3125 0.950 . S
C3137 C3133 1.393 . S
C3137 C3136 1.391 . S
C3138 H3128 0.950 . S
C3138 C3139 1.386 . S
C3138 C3140 1.391 . S
C3139 C3138 1.386 . S
C3139 C3143 1.393 . S
C3140 H3129 0.950 . S
C3140 C3138 1.391 . S
C3140 C3141 1.400 . S
C3141 C3135 1.491 . S
C3141 C3140 1.400 . S
C3141 C3142 1.398 . S
C3142 H3130 0.950 . S
C3142 C3141 1.398 . S
C3142 C3143 1.391 . S
C3143 H3131 0.950 . S
C3143 C3139 1.393 . S
C3143 C3142 1.391 . S
H3144 C3152 0.950 . S
H3145 C3157 0.950 . S
H3146 C3154 0.950 . S
H3147 C3156 0.950 . S
H3148 C3158 0.950 . S
H3149 C3160 0.950 . S
H3150 C3162 0.950 . S
H3151 C3163 0.950 . S
C3152 H3144 0.950 . S
C3152 C3153 1.386 . S
C3152 C3154 1.391 . S
C3153 C3152 1.386 . S
C3153 C3157 1.393 . S
C3154 H3146 0.950 . S
C3154 C3152 1.391 . S
C3154 C3155 1.400 . S
C3155 C3154 1.400 . S
C3155 C3156 1.398 . S
C3155 C3161 1.491 . S
C3156 H3147 0.950 . S
C3156 C3155 1.398 . S
C3156 C3157 1.391 . S
C3157 H3145 0.950 . S
C3157 C3153 1.393 . S
C3157 C3156 1.391 . S
C3158 H3148 0.950 . S
C3158 C3159 1.386 . S
C3158 C3160 1.391 . S
C3159 C3158 1.386 . S
C3159 C3163 1.393 . S
C3160 H3149 0.950 . S
C3160 C3158 1.391 . S
C3160 C3161 1.400 . S
C3161 C3155 1.491 . S
C3161 C3160 1.400 . S
C3161 C3162 1.398 . S
C3162 H3150 0.950 . S
C3162 C3161 1.398 . S
C3162 C3163 1.391 . S
C3163 H3151 0.950 . S
C3163 C3159 1.393 . S
C3163 C3162 1.391 . S
H3164 C3172 0.950 . S
H3165 C3177 0.950 . S
H3166 C3174 0.950 . S
H3167 C3176 0.950 . S
H3168 C3178 0.950 . S
H3169 C3180 0.950 . S
H3170 C3182 0.950 . S
H3171 C3183 0.950 . S
C3172 H3164 0.950 . S
C3172 C3173 1.386 . S
C3172 C3174 1.391 . S
C3173 C3172 1.386 . S
C3173 C3177 1.393 . S
C3174 H3166 0.950 . S
C3174 C3172 1.391 . S
C3174 C3175 1.400 . S
C3175 C3174 1.400 . S
C3175 C3176 1.398 . S
C3175 C3181 1.491 . S
C3176 H3167 0.950 . S
C3176 C3175 1.398 . S
C3176 C3177 1.391 . S
C3177 H3165 0.950 . S
C3177 C3173 1.393 . S
C3177 C3176 1.391 . S
C3178 H3168 0.950 . S
C3178 C3179 1.386 . S
C3178 C3180 1.391 . S
C3179 C3178 1.386 . S
C3179 C3183 1.393 . S
C3180 H3169 0.950 . S
C3180 C3178 1.391 . S
C3180 C3181 1.400 . S
C3181 C3175 1.491 . S
C3181 C3180 1.400 . S
C3181 C3182 1.398 . S
C3182 H3170 0.950 . S
C3182 C3181 1.398 . S
C3182 C3183 1.391 . S
C3183 H3171 0.950 . S
C3183 C3179 1.393 . S
C3183 C3182 1.391 . S
H3184 C3192 0.950 . S
H3185 C3197 0.950 . S
H3186 C3194 0.950 . S
H3187 C3196 0.950 . S
H3188 C3198 0.950 . S
H3189 C3200 0.950 . S
H3190 C3202 0.950 . S
H3191 C3203 0.950 . S
C3192 H3184 0.950 . S
C3192 C3193 1.386 . S
C3192 C3194 1.391 . S
C3193 C3192 1.386 . S
C3193 C3197 1.393 . S
C3194 H3186 0.950 . S
C3194 C3192 1.391 . S
C3194 C3195 1.400 . S
C3195 C3194 1.400 . S
C3195 C3196 1.398 . S
C3195 C3201 1.491 . S
C3196 H3187 0.950 . S
C3196 C3195 1.398 . S
C3196 C3197 1.391 . S
C3197 H3185 0.950 . S
C3197 C3193 1.393 . S
C3197 C3196 1.391 . S
C3198 H3188 0.950 . S
C3198 C3199 1.386 . S
C3198 C3200 1.391 . S
C3199 C3198 1.386 . S
C3199 C3203 1.393 . S
C3200 H3189 0.950 . S
C3200 C3198 1.391 . S
C3200 C3201 1.400 . S
C3201 C3195 1.491 . S
C3201 C3200 1.400 . S
C3201 C3202 1.398 . S
C3202 H3190 0.950 . S
C3202 C3201 1.398 . S
C3202 C3203 1.391 . S
C3203 H3191 0.950 . S
C3203 C3199 1.393 . S
C3203 C3202 1.391 . S
H3204 C3212 0.950 . S
H3205 C3217 0.950 . S
H3206 C3214 0.950 . S
H3207 C3216 0.950 . S
H3208 C3218 0.950 . S
H3209 C3220 0.950 . S
H3210 C3222 0.950 . S
H3211 C3223 0.950 . S
C3212 H3204 0.950 . S
C3212 C3213 1.386 . S
C3212 C3214 1.391 . S
C3213 C3212 1.386 . S
C3213 C3217 1.393 . S
C3214 H3206 0.950 . S
C3214 C3212 1.391 . S
C3214 C3215 1.400 . S
C3215 C3214 1.400 . S
C3215 C3216 1.398 . S
C3215 C3221 1.491 . S
C3216 H3207 0.950 . S
C3216 C3215 1.398 . S
C3216 C3217 1.391 . S
C3217 H3205 0.950 . S
C3217 C3213 1.393 . S
C3217 C3216 1.391 . S
C3218 H3208 0.950 . S
C3218 C3219 1.386 . S
C3218 C3220 1.391 . S
C3219 C3218 1.386 . S
C3219 C3223 1.393 . S
C3220 H3209 0.950 . S
C3220 C3218 1.391 . S
C3220 C3221 1.400 . S
C3221 C3215 1.491 . S
C3221 C3220 1.400 . S
C3221 C3222 1.398 . S
C3222 H3210 0.950 . S
C3222 C3221 1.398 . S
C3222 C3223 1.391 . S
C3223 H3211 0.950 . S
C3223 C3219 1.393 . S
C3223 C3222 1.391 . S
H3224 C3232 0.950 . S
H3225 C3237 0.950 . S
H3226 C3234 0.950 . S
H3227 C3236 0.944 . S
H3228 C3238 0.950 . S
H3229 C3240 0.950 . S
H3230 C3242 0.944 . S
H3231 C3243 0.950 . S
C3232 H3224 0.950 . S
C3232 C3233 1.386 . S
C3232 C3234 1.391 . S
C3233 C3232 1.386 . S
C3233 C3237 1.393 . S
C3234 H3226 0.950 . S
C3234 C3232 1.391 . S
C3234 C3235 1.400 . S
C3235 C3234 1.400 . S
C3235 C3236 1.398 . S
C3235 C3241 1.491 1_545 S
C3236 H3227 0.944 . S
C3236 C3235 1.398 . S
C3236 C3237 1.391 . S
C3237 H3225 0.950 . S
C3237 C3233 1.393 . S
C3237 C3236 1.391 . S
C3238 H3228 0.950 . S
C3238 C3239 1.386 . S
C3238 C3240 1.391 . S
C3239 C3238 1.386 . S
C3239 C3243 1.393 . S
C3240 H3229 0.950 . S
C3240 C3238 1.391 . S
C3240 C3241 1.400 . S
C3241 C3235 1.491 1_565 S
C3241 C3240 1.400 . S
C3241 C3242 1.398 . S
C3242 H3230 0.944 . S
C3242 C3241 1.398 . S
C3242 C3243 1.391 . S
C3243 H3231 0.950 . S
C3243 C3239 1.393 . S
C3243 C3242 1.391 . S
H3244 C3252 0.950 . S
H3245 C3257 0.950 . S
H3246 C3254 0.950 . S
H3247 C3256 0.950 . S
H3248 C3258 0.950 . S
H3249 C3260 0.950 . S
H3250 C3262 0.950 . S
H3251 C3263 0.950 . S
C3252 H3244 0.950 . S
C3252 C3253 1.386 . S
C3252 C3254 1.391 . S
C3253 C3252 1.386 . S
C3253 C3257 1.393 . S
C3254 H3246 0.950 . S
C3254 C3252 1.391 . S
C3254 C3255 1.400 . S
C3255 C3254 1.400 . S
C3255 C3256 1.398 . S
C3255 C3261 1.491 1_455 S
C3256 H3247 0.950 . S
C3256 C3255 1.398 . S
C3256 C3257 1.391 . S
C3257 H3245 0.950 . S
C3257 C3253 1.393 . S
C3257 C3256 1.391 . S
C3258 H3248 0.950 . S
C3258 C3259 1.386 . S
C3258 C3260 1.391 . S
C3259 C3258 1.386 . S
C3259 C3263 1.393 . S
C3260 H3249 0.950 . S
C3260 C3258 1.391 . S
C3260 C3261 1.400 . S
C3261 C3255 1.491 1_655 S
C3261 C3260 1.400 . S
C3261 C3262 1.398 . S
C3262 H3250 0.950 . S
C3262 C3261 1.398 . S
C3262 C3263 1.391 . S
C3263 H3251 0.950 . S
C3263 C3259 1.393 . S
C3263 C3262 1.391 . S
H3264 C3272 0.950 . S
H3265 C3277 0.950 . S
H3266 C3274 0.950 . S
H3267 C3276 0.950 . S
H3268 C3278 0.950 . S
H3269 C3280 0.950 . S
H3270 C3282 0.950 . S
H3271 C3283 0.950 . S
C3272 H3264 0.950 . S
C3272 C3273 1.386 . S
C3272 C3274 1.391 . S
C3273 C3272 1.386 . S
C3273 C3277 1.393 . S
C3274 H3266 0.950 . S
C3274 C3272 1.391 . S
C3274 C3275 1.400 . S
C3275 C3274 1.400 . S
C3275 C3276 1.398 . S
C3275 C3281 1.491 . S
C3276 H3267 0.950 . S
C3276 C3275 1.398 . S
C3276 C3277 1.391 . S
C3277 H3265 0.950 . S
C3277 C3273 1.393 . S
C3277 C3276 1.391 . S
C3278 H3268 0.950 . S
C3278 C3279 1.386 . S
C3278 C3280 1.391 . S
C3279 C3278 1.386 . S
C3279 C3283 1.393 . S
C3280 H3269 0.950 . S
C3280 C3278 1.391 . S
C3280 C3281 1.400 . S
C3281 C3275 1.491 . S
C3281 C3280 1.400 . S
C3281 C3282 1.398 . S
C3282 H3270 0.950 . S
C3282 C3281 1.398 . S
C3282 C3283 1.391 . S
C3283 H3271 0.950 . S
C3283 C3279 1.393 . S
C3283 C3282 1.391 . S
H3284 C3292 0.950 . S
H3285 C3297 0.950 . S
H3286 C3294 0.950 . S
H3287 C3296 0.950 1_565 S
H3288 C3298 0.950 . S
H3289 C3300 0.950 . S
H3290 C3302 0.950 1_545 S
H3291 C3303 0.950 . S
C3292 H3284 0.950 . S
C3292 C3293 1.386 . S
C3292 C3294 1.391 . S
C3293 C3292 1.386 . S
C3293 C3297 1.393 . S
C3294 H3286 0.950 . S
C3294 C3292 1.391 . S
C3294 C3295 1.400 . S
C3295 C3294 1.400 . S
C3295 C3296 1.398 . S
C3295 C3301 1.491 1_545 S
C3296 H3287 0.950 1_545 S
C3296 C3295 1.398 . S
C3296 C3297 1.391 . S
C3297 H3285 0.950 . S
C3297 C3293 1.393 . S
C3297 C3296 1.391 . S
C3298 H3288 0.950 . S
C3298 C3299 1.386 . S
C3298 C3300 1.391 . S
C3299 C3298 1.386 . S
C3299 C3303 1.393 . S
C3300 H3289 0.950 . S
C3300 C3298 1.391 . S
C3300 C3301 1.400 . S
C3301 C3295 1.491 1_565 S
C3301 C3300 1.400 . S
C3301 C3302 1.398 . S
C3302 H3290 0.950 1_565 S
C3302 C3301 1.398 . S
C3302 C3303 1.391 . S
C3303 H3291 0.950 . S
C3303 C3299 1.393 . S
C3303 C3302 1.391 . S
H3304 C3312 0.950 . S
H3305 C3317 0.950 . S
H3306 C3314 0.950 . S
H3307 C3316 0.950 . S
H3308 C3318 0.950 . S
H3309 C3320 0.950 . S
H3310 C3322 0.950 . S
H3311 C3323 0.950 . S
C3312 H3304 0.950 . S
C3312 C3313 1.386 . S
C3312 C3314 1.391 . S
C3313 C3312 1.386 . S
C3313 C3317 1.393 1_655 S
C3314 H3306 0.950 . S
C3314 C3312 1.391 . S
C3314 C3315 1.400 . S
C3315 C3314 1.400 . S
C3315 C3316 1.398 1_655 S
C3315 C3321 1.491 1_655 S
C3316 H3307 0.950 . S
C3316 C3315 1.398 1_455 S
C3316 C3317 1.391 . S
C3317 H3305 0.950 . S
C3317 C3313 1.393 1_455 S
C3317 C3316 1.391 . S
C3318 H3308 0.950 . S
C3318 C3319 1.386 . S
C3318 C3320 1.391 . S
C3319 C3318 1.386 . S
C3319 C3323 1.393 1_455 S
C3320 H3309 0.950 . S
C3320 C3318 1.391 . S
C3320 C3321 1.400 . S
C3321 C3315 1.491 1_455 S
C3321 C3320 1.400 . S
C3321 C3322 1.398 1_455 S
C3322 H3310 0.950 . S
C3322 C3321 1.398 1_655 S
C3322 C3323 1.391 . S
C3323 H3311 0.950 . S
C3323 C3319 1.393 1_655 S
C3323 C3322 1.391 . S
H3324 C3332 0.950 . S
H3325 C3337 0.950 . S
H3326 C3334 0.950 . S
H3327 C3336 0.950 . S
H3328 C3338 0.950 . S
H3329 C3340 0.950 . S
H3330 C3342 0.950 . S
H3331 C3343 0.950 . S
C3332 H3324 0.950 . S
C3332 C3333 1.386 . S
C3332 C3334 1.391 . S
C3333 C3332 1.386 . S
C3333 C3337 1.393 . S
C3334 H3326 0.950 . S
C3334 C3332 1.391 . S
C3334 C3335 1.400 . S
C3335 C3334 1.400 . S
C3335 C3336 1.398 . S
C3335 C3341 1.491 . S
C3336 H3327 0.950 . S
C3336 C3335 1.398 . S
C3336 C3337 1.391 . S
C3337 H3325 0.950 . S
C3337 C3333 1.393 . S
C3337 C3336 1.391 . S
C3338 H3328 0.950 . S
C3338 C3339 1.386 . S
C3338 C3340 1.391 . S
C3339 C3338 1.386 . S
C3339 C3343 1.393 . S
C3340 H3329 0.950 . S
C3340 C3338 1.391 . S
C3340 C3341 1.400 . S
C3341 C3335 1.491 . S
C3341 C3340 1.400 . S
C3341 C3342 1.398 . S
C3342 H3330 0.950 . S
C3342 C3341 1.398 . S
C3342 C3343 1.391 . S
C3343 H3331 0.950 . S
C3343 C3339 1.393 . S
C3343 C3342 1.391 . S
H3344 C3352 0.950 . S
H3345 C3357 0.950 . S
H3346 C3354 0.950 . S
H3347 C3356 0.950 . S
H3348 C3358 0.950 . S
H3349 C3360 0.950 . S
H3350 C3362 0.950 . S
H3351 C3363 0.950 . S
C3352 H3344 0.950 . S
C3352 C3353 1.386 . S
C3352 C3354 1.391 . S
C3353 C3352 1.386 . S
C3353 C3357 1.393 . S
C3354 H3346 0.950 . S
C3354 C3352 1.391 . S
C3354 C3355 1.400 . S
C3355 C3354 1.400 . S
C3355 C3356 1.398 . S
C3355 C3361 1.491 . S
C3356 H3347 0.950 . S
C3356 C3355 1.398 . S
C3356 C3357 1.391 . S
C3357 H3345 0.950 . S
C3357 C3353 1.393 . S
C3357 C3356 1.391 . S
C3358 H3348 0.950 . S
C3358 C3359 1.386 . S
C3358 C3360 1.391 . S
C3359 C3358 1.386 . S
C3359 C3363 1.393 . S
C3360 H3349 0.950 . S
C3360 C3358 1.391 . S
C3360 C3361 1.400 . S
C3361 C3355 1.491 . S
C3361 C3360 1.400 . S
C3361 C3362 1.398 . S
C3362 H3350 0.950 . S
C3362 C3361 1.398 . S
C3362 C3363 1.391 . S
C3363 H3351 0.950 . S
C3363 C3359 1.393 . S
C3363 C3362 1.391 . S
H3364 C3372 0.950 . S
H3365 C3377 0.950 . S
H3366 C3374 0.950 . S
H3367 C3376 0.950 . S
H3368 C3378 0.950 . S
H3369 C3380 0.950 . S
H3370 C3382 0.950 . S
H3371 C3383 0.950 . S
C3372 H3364 0.950 . S
C3372 C3373 1.386 . S
C3372 C3374 1.391 . S
C3373 C3372 1.386 . S
C3373 C3377 1.393 . S
C3374 H3366 0.950 . S
C3374 C3372 1.391 . S
C3374 C3375 1.400 . S
C3375 C3374 1.400 . S
C3375 C3376 1.398 . S
C3375 C3381 1.491 . S
C3376 H3367 0.950 . S
C3376 C3375 1.398 . S
C3376 C3377 1.391 . S
C3377 H3365 0.950 . S
C3377 C3373 1.393 . S
C3377 C3376 1.391 . S
C3378 H3368 0.950 . S
C3378 C3379 1.386 . S
C3378 C3380 1.391 . S
C3379 C3378 1.386 . S
C3379 C3383 1.393 . S
C3380 H3369 0.950 . S
C3380 C3378 1.391 . S
C3380 C3381 1.400 . S
C3381 C3375 1.491 . S
C3381 C3380 1.400 . S
C3381 C3382 1.398 . S
C3382 H3370 0.950 . S
C3382 C3381 1.398 . S
C3382 C3383 1.391 . S
C3383 H3371 0.950 . S
C3383 C3379 1.393 . S
C3383 C3382 1.391 . S
H3384 C3392 0.950 . S
H3385 C3397 0.950 . S
H3386 C3394 0.950 . S
H3387 C3396 0.950 . S
H3388 C3398 0.950 1_556 S
H3389 C3400 0.950 . S
H3390 C3402 0.950 . S
H3391 C3403 0.950 . S
C3392 H3384 0.950 . S
C3392 C3393 1.386 . S
C3392 C3394 1.391 . S
C3393 C3392 1.386 . S
C3393 C3397 1.393 . S
C3394 H3386 0.950 . S
C3394 C3392 1.391 . S
C3394 C3395 1.400 . S
C3395 C3394 1.400 . S
C3395 C3396 1.398 . S
C3395 C3401 1.491 . S
C3396 H3387 0.950 . S
C3396 C3395 1.398 . S
C3396 C3397 1.391 . S
C3397 H3385 0.950 . S
C3397 C3393 1.393 . S
C3397 C3396 1.391 . S
C3398 H3388 0.950 1_554 S
C3398 C3399 1.386 1_554 S
C3398 C3400 1.391 . S
C3399 C3398 1.386 1_556 S
C3399 C3403 1.393 1_556 S
C3400 H3389 0.950 . S
C3400 C3398 1.391 . S
C3400 C3401 1.400 . S
C3401 C3395 1.491 . S
C3401 C3400 1.400 . S
C3401 C3402 1.398 . S
C3402 H3390 0.950 . S
C3402 C3401 1.398 . S
C3402 C3403 1.391 . S
C3403 H3391 0.950 . S
C3403 C3399 1.393 1_554 S
C3403 C3402 1.391 . S
H3404 C3412 0.950 . S
H3405 C3417 0.950 . S
H3406 C3414 0.950 . S
H3407 C3416 0.950 . S
H3408 C3418 0.950 1_556 S
H3409 C3420 0.950 . S
H3410 C3422 0.950 . S
H3411 C3423 0.950 . S
C3412 H3404 0.950 . S
C3412 C3413 1.386 . S
C3412 C3414 1.391 . S
C3413 C3412 1.386 . S
C3413 C3417 1.393 . S
C3414 H3406 0.950 . S
C3414 C3412 1.391 . S
C3414 C3415 1.400 . S
C3415 C3414 1.400 . S
C3415 C3416 1.398 . S
C3415 C3421 1.491 . S
C3416 H3407 0.950 . S
C3416 C3415 1.398 . S
C3416 C3417 1.391 . S
C3417 H3405 0.950 . S
C3417 C3413 1.393 . S
C3417 C3416 1.391 . S
C3418 H3408 0.950 1_554 S
C3418 C3419 1.386 1_554 S
C3418 C3420 1.391 . S
C3419 C3418 1.386 1_556 S
C3419 C3423 1.393 1_556 S
C3420 H3409 0.950 . S
C3420 C3418 1.391 . S
C3420 C3421 1.400 . S
C3421 C3415 1.491 . S
C3421 C3420 1.400 . S
C3421 C3422 1.398 . S
C3422 H3410 0.950 . S
C3422 C3421 1.398 . S
C3422 C3423 1.391 . S
C3423 H3411 0.950 . S
C3423 C3419 1.393 1_554 S
C3423 C3422 1.391 . S
H3424 C3432 0.950 . S
H3425 C3437 0.950 . S
H3426 C3434 0.950 . S
H3427 C3436 0.950 . S
H3428 C3438 0.951 1_556 S
H3429 C3440 0.950 . S
H3430 C3442 0.950 . S
H3431 C3443 0.950 1_556 S
C3432 H3424 0.950 . S
C3432 C3433 1.386 . S
C3432 C3434 1.391 . S
C3433 C3432 1.386 . S
C3433 C3437 1.393 . S
C3434 H3426 0.950 . S
C3434 C3432 1.391 . S
C3434 C3435 1.400 . S
C3435 C3434 1.400 . S
C3435 C3436 1.398 . S
C3435 C3441 1.491 . S
C3436 H3427 0.950 . S
C3436 C3435 1.398 . S
C3436 C3437 1.391 . S
C3437 H3425 0.950 . S
C3437 C3433 1.393 . S
C3437 C3436 1.391 . S
C3438 H3428 0.951 1_554 S
C3438 C3439 1.386 1_554 S
C3438 C3440 1.391 . S
C3439 C3438 1.386 1_556 S
C3439 C3443 1.393 1_556 S
C3440 H3429 0.950 . S
C3440 C3438 1.391 . S
C3440 C3441 1.400 . S
C3441 C3435 1.491 . S
C3441 C3440 1.400 . S
C3441 C3442 1.398 . S
C3442 H3430 0.950 . S
C3442 C3441 1.398 . S
C3442 C3443 1.391 . S
C3443 H3431 0.950 1_554 S
C3443 C3439 1.393 1_554 S
C3443 C3442 1.391 . S
H3444 C3452 0.950 . S
H3445 C3457 0.950 1_554 S
H3446 C3454 0.950 . S
H3447 C3456 0.950 . S
H3448 C3458 0.950 . S
H3449 C3460 0.950 . S
H3450 C3462 0.950 . S
H3451 C3463 0.950 . S
C3452 H3444 0.950 . S
C3452 C3453 1.386 1_556 S
C3452 C3454 1.391 . S
C3453 C3452 1.386 1_554 S
C3453 C3457 1.393 1_554 S
C3454 H3446 0.950 . S
C3454 C3452 1.391 . S
C3454 C3455 1.400 . S
C3455 C3454 1.400 . S
C3455 C3456 1.398 . S
C3455 C3461 1.491 . S
C3456 H3447 0.950 . S
C3456 C3455 1.398 . S
C3456 C3457 1.391 . S
C3457 H3445 0.950 1_556 S
C3457 C3453 1.393 1_556 S
C3457 C3456 1.391 . S
C3458 H3448 0.950 . S
C3458 C3459 1.386 . S
C3458 C3460 1.391 . S
C3459 C3458 1.386 . S
C3459 C3463 1.393 . S
C3460 H3449 0.950 . S
C3460 C3458 1.391 . S
C3460 C3461 1.400 . S
C3461 C3455 1.491 . S
C3461 C3460 1.400 . S
C3461 C3462 1.398 . S
C3462 H3450 0.950 . S
C3462 C3461 1.398 . S
C3462 C3463 1.391 . S
C3463 H3451 0.950 . S
C3463 C3459 1.393 . S
C3463 C3462 1.391 . S
H3464 C3472 0.950 1_554 S
H3465 C3477 0.950 . S
H3466 C3474 0.950 . S
H3467 C3476 0.950 . S
H3468 C3478 0.950 . S
H3469 C3480 0.950 . S
H3470 C3482 0.950 . S
H3471 C3483 0.950 . S
C3472 H3464 0.950 1_556 S
C3472 C3473 1.386 1_556 S
C3472 C3474 1.391 . S
C3473 C3472 1.386 1_554 S
C3473 C3477 1.393 1_554 S
C3474 H3466 0.950 . S
C3474 C3472 1.391 . S
C3474 C3475 1.400 . S
C3475 C3474 1.400 . S
C3475 C3476 1.398 . S
C3475 C3481 1.491 . S
C3476 H3467 0.950 . S
C3476 C3475 1.398 . S
C3476 C3477 1.391 . S
C3477 H3465 0.950 . S
C3477 C3473 1.393 1_556 S
C3477 C3476 1.391 . S
C3478 H3468 0.950 . S
C3478 C3479 1.386 . S
C3478 C3480 1.391 . S
C3479 C3478 1.386 . S
C3479 C3483 1.393 . S
C3480 H3469 0.950 . S
C3480 C3478 1.391 . S
C3480 C3481 1.400 . S
C3481 C3475 1.491 . S
C3481 C3480 1.400 . S
C3481 C3482 1.398 . S
C3482 H3470 0.950 . S
C3482 C3481 1.398 . S
C3482 C3483 1.391 . S
C3483 H3471 0.950 . S
C3483 C3479 1.393 . S
C3483 C3482 1.391 . S
H3484 C3492 0.950 1_554 S
H3485 C3497 0.950 . S
H3486 C3494 0.950 . S
H3487 C3496 0.950 . S
H3488 C3498 0.950 . S
H3489 C3500 0.950 . S
H3490 C3502 0.950 . S
H3491 C3503 0.950 . S
C3492 H3484 0.950 1_556 S
C3492 C3493 1.386 1_556 S
C3492 C3494 1.391 . S
C3493 C3492 1.386 1_554 S
C3493 C3497 1.393 1_554 S
C3494 H3486 0.950 . S
C3494 C3492 1.391 . S
C3494 C3495 1.400 . S
C3495 C3494 1.400 . S
C3495 C3496 1.398 . S
C3495 C3501 1.491 . S
C3496 H3487 0.950 . S
C3496 C3495 1.398 . S
C3496 C3497 1.391 . S
C3497 H3485 0.950 . S
C3497 C3493 1.393 1_556 S
C3497 C3496 1.391 . S
C3498 H3488 0.950 . S
C3498 C3499 1.386 . S
C3498 C3500 1.391 . S
C3499 C3498 1.386 . S
C3499 C3503 1.393 . S
C3500 H3489 0.950 . S
C3500 C3498 1.391 . S
C3500 C3501 1.400 . S
C3501 C3495 1.491 . S
C3501 C3500 1.400 . S
C3501 C3502 1.398 . S
C3502 H3490 0.950 . S
C3502 C3501 1.398 . S
C3502 C3503 1.391 . S
C3503 H3491 0.950 . S
C3503 C3499 1.393 . S
C3503 C3502 1.391 . S
H3504 C3512 0.950 . S
H3505 C3517 0.950 . S
H3506 C3514 0.950 . S
H3507 C3516 0.950 . S
H3508 C3518 0.950 . S
H3509 C3520 0.950 . S
H3510 C3522 0.950 . S
H3511 C3523 0.950 . S
C3512 H3504 0.950 . S
C3512 C3513 1.386 . S
C3512 C3514 1.391 . S
C3513 C3512 1.386 . S
C3513 C3517 1.393 . S
C3514 H3506 0.950 . S
C3514 C3512 1.391 . S
C3514 C3515 1.400 . S
C3515 C3514 1.400 . S
C3515 C3516 1.398 . S
C3515 C3521 1.491 . S
C3516 H3507 0.950 . S
C3516 C3515 1.398 . S
C3516 C3517 1.391 . S
C3517 H3505 0.950 . S
C3517 C3513 1.393 . S
C3517 C3516 1.391 . S
C3518 H3508 0.950 . S
C3518 C3519 1.386 . S
C3518 C3520 1.391 . S
C3519 C3518 1.386 . S
C3519 C3523 1.393 . S
C3520 H3509 0.950 . S
C3520 C3518 1.391 . S
C3520 C3521 1.400 . S
C3521 C3515 1.491 . S
C3521 C3520 1.400 . S
C3521 C3522 1.398 . S
C3522 H3510 0.950 . S
C3522 C3521 1.398 . S
C3522 C3523 1.391 . S
C3523 H3511 0.950 . S
C3523 C3519 1.393 . S
C3523 C3522 1.391 . S
H3524 C3532 0.950 . S
H3525 C3537 0.950 . S
H3526 C3534 0.950 . S
H3527 C3536 0.950 . S
H3528 C3538 0.950 . S
H3529 C3540 0.950 . S
H3530 C3542 0.950 . S
H3531 C3543 0.950 . S
C3532 H3524 0.950 . S
C3532 C3533 1.386 . S
C3532 C3534 1.391 . S
C3533 C3532 1.386 . S
C3533 C3537 1.393 . S
C3534 H3526 0.950 . S
C3534 C3532 1.391 . S
C3534 C3535 1.400 . S
C3535 C3534 1.400 . S
C3535 C3536 1.398 . S
C3535 C3541 1.491 . S
C3536 H3527 0.950 . S
C3536 C3535 1.398 . S
C3536 C3537 1.391 . S
C3537 H3525 0.950 . S
C3537 C3533 1.393 . S
C3537 C3536 1.391 . S
C3538 H3528 0.950 . S
C3538 C3539 1.386 . S
C3538 C3540 1.391 . S
C3539 C3538 1.386 . S
C3539 C3543 1.393 . S
C3540 H3529 0.950 . S
C3540 C3538 1.391 . S
C3540 C3541 1.400 . S
C3541 C3535 1.491 . S
C3541 C3540 1.400 . S
C3541 C3542 1.398 . S
C3542 H3530 0.950 . S
C3542 C3541 1.398 . S
C3542 C3543 1.391 . S
C3543 H3531 0.950 . S
C3543 C3539 1.393 . S
C3543 C3542 1.391 . S
H3544 C3552 0.950 . S
H3545 C3557 0.950 . S
H3546 C3554 0.950 . S
H3547 C3556 0.950 . S
H3548 C3558 0.950 . S
H3549 C3560 0.950 . S
H3550 C3562 0.950 . S
H3551 C3563 0.950 . S
C3552 H3544 0.950 . S
C3552 C3553 1.386 . S
C3552 C3554 1.391 . S
C3553 C3552 1.386 . S
C3553 C3557 1.393 . S
C3554 H3546 0.950 . S
C3554 C3552 1.391 . S
C3554 C3555 1.400 . S
C3555 C3554 1.400 . S
C3555 C3556 1.398 . S
C3555 C3561 1.491 . S
C3556 H3547 0.950 . S
C3556 C3555 1.398 . S
C3556 C3557 1.391 . S
C3557 H3545 0.950 . S
C3557 C3553 1.393 . S
C3557 C3556 1.391 . S
C3558 H3548 0.950 . S
C3558 C3559 1.386 . S
C3558 C3560 1.391 . S
C3559 C3558 1.386 . S
C3559 C3563 1.393 . S
C3560 H3549 0.950 . S
C3560 C3558 1.391 . S
C3560 C3561 1.400 . S
C3561 C3555 1.491 . S
C3561 C3560 1.400 . S
C3561 C3562 1.398 . S
C3562 H3550 0.950 . S
C3562 C3561 1.398 . S
C3562 C3563 1.391 . S
C3563 H3551 0.950 . S
C3563 C3559 1.393 . S
C3563 C3562 1.391 . S
C2133 C949 1.085 . S
C2139 C5 1.087 . S
C2153 C1008 1.089 . S
C2159 C64 1.095 . S
C2173 C123 1.085 . S
C2179 C890 1.088 . S
C2193 C1539 1.085 . S
C2199 C182 1.087 . S
C2213 C1421 1.093 . S
C2219 C241 1.086 . S
C2233 C300 1.095 . S
C2239 C1480 1.096 . S
C2253 C2011 1.085 . S
C2259 C359 1.089 . S
C2273 C2070 1.097 . S
C2279 C418 1.092 . S
C2293 C1952 1.089 . S
C2299 C477 1.085 . S
C2313 C1185 1.094 . S
C2319 C536 1.087 . S
C2333 C595 1.085 . S
C2339 C1067 1.089 . S
C2353 C1126 1.097 . S
C2359 C654 1.093 . S
C2373 C1657 1.095 . S
C2379 C713 1.088 . S
C2393 C772 1.091 . S
C2399 C1716 1.097 . S
C2413 C1598 1.085 . S
C2419 C831 1.089 . S
C2433 C1893 1.086 . S
C2439 C1244 1.085 . S
C2453 C1775 1.097 . S
C2459 C1303 1.094 . S
C2473 C1362 1.090 . S
C2479 C1834 1.085 . S
C2493 C446 1.659 . S
C2499 C3 1.669 . S
C2513 C505 1.660 . S
C2519 C62 1.668 . S
C2533 C387 1.662 . S
C2539 C121 1.668 . S
C2553 C180 1.669 . S
C2559 C682 1.665 . S
C2573 C564 1.660 . S
C2579 C239 1.674 . S
C2593 C298 1.672 . S
C2599 C623 1.653 . S
C2613 C92 1.665 . S
C2619 C357 1.669 . S
C2633 C416 1.675 . S
C2639 C151 1.654 . S
C2653 C33 1.664 . S
C2659 C475 1.670 . S
C2673 C328 1.664 . S
C2679 C534 1.668 . S
C2693 C210 1.659 . S
C2699 C593 1.669 . S
C2713 C652 1.675 . S
C2719 C269 1.653 . S
C2733 C711 1.673 . S
C2739 C1154 1.662 . S
C2753 C1213 1.659 . S
C2759 C770 1.674 . S
C2773 C1095 1.660 . S
C2779 C829 1.668 . S
C2793 C888 1.668 . S
C2799 C1390 1.660 . S
C2813 C1272 1.665 . S
C2819 C947 1.670 . S
C2833 C1006 1.672 . S
C2839 C1331 1.663 . S
C2853 C1065 1.670 . S
C2859 C800 1.655 . S
C2873 C1124 1.675 . S
C2879 C859 1.655 . S
C2893 C741 1.653 . S
C2899 C1183 1.675 . S
C2913 C1036 1.665 . S
C2919 C1242 1.668 . S
C2933 C918 1.659 . S
C2939 C1301 1.668 . S
C2953 C1360 1.668 . S
C2959 C977 1.662 . S
C2973 C1862 1.655 . S
C2979 C1419 1.675 . S
C2993 C1478 1.671 . S
C2999 C1921 1.654 . S
C3013 C1537 1.675 . S
C3019 C1803 1.656 . S
C3033 C2098 1.660 . S
C3039 C1596 1.674 . S
C3053 C1655 1.674 . S
C3059 C1980 1.659 . S
C3073 C2039 1.657 . S
C3079 C1714 1.674 . S
C3093 C1508 1.654 . S
C3099 C1773 1.671 . S
C3113 C1567 1.661 . S
C3119 C1832 1.668 . S
C3133 C1891 1.671 . S
C3139 C1449 1.654 . S
C3153 C1950 1.672 . S
C3159 C1744 1.653 . S
C3173 C1626 1.653 . S
C3179 C2009 1.672 . S
C3193 C1685 1.653 . S
C3199 C2068 1.673 . S
C3213 C52 1.725 . S
C3219 C229 1.729 . S
C3233 C111 1.727 . S
C3239 C288 1.728 . S
C3253 C347 1.728 . S
C3259 C170 1.728 . S
C3273 C406 1.725 . S
C3279 C583 1.729 . S
C3293 C642 1.729 . S
C3299 C465 1.727 . S
C3313 C701 1.729 . S
C3319 C524 1.725 . S
C3333 C760 1.726 . S
C3339 C937 1.728 . S
C3353 C819 1.727 . S
C3359 C996 1.728 . S
C3373 C1055 1.727 . S
C3379 C878 1.728 . S
C3393 C1114 1.725 . S
C3399 C1291 1.728 . S
C3413 C1173 1.726 . S
C3419 C1350 1.727 . S
C3433 C1232 1.728 . S
C3439 C1409 1.727 . S
C3453 C1645 1.726 . S
C3459 C1468 1.727 . S
C3473 C1704 1.727 . S
C3479 C1527 1.726 . S
C3493 C1763 1.728 . S
C3499 C1586 1.725 . S
C3513 C1822 1.725 . S
C3519 C1999 1.729 . S
C3533 C2058 1.729 . S
C3539 C1881 1.725 . S
C3553 C2117 1.729 . S
C3559 C1940 1.726 . S
