# Generated by pormake.
# Topology zfx, (5)-cn, num edge types: 1
# Building blocks:
#     Node 0, Type 0, BuildingBlock: XOMCOT_clean_sbu_1, # of connection points: 5
#     Node 1, Type 0, BuildingBlock: XOMCOT_clean_sbu_1, # of connection points: 5
#     Node 2, Type 0, BuildingBlock: XOMCOT_clean_sbu_1, # of connection points: 5
#     Node 3, Type 0, BuildingBlock: XOMCOT_clean_sbu_1, # of connection points: 5
#     Node 4, Type 0, BuildingBlock: XOMCOT_clean_sbu_1, # of connection points: 5
#     Node 5, Type 0, BuildingBlock: XOMCOT_clean_sbu_1, # of connection points: 5
#     Node 6, Type 0, BuildingBlock: XOMCOT_clean_sbu_1, # of connection points: 5
#     Node 7, Type 0, BuildingBlock: XOMCOT_clean_sbu_1, # of connection points: 5
#     Node 8, Type 0, BuildingBlock: XOMCOT_clean_sbu_1, # of connection points: 5
#     Node 9, Type 0, BuildingBlock: XOMCOT_clean_sbu_1, # of connection points: 5
#     Node 10, Type 0, BuildingBlock: XOMCOT_clean_sbu_1, # of connection points: 5
#     Node 11, Type 0, BuildingBlock: XOMCOT_clean_sbu_1, # of connection points: 5
#     Node 12, Type 0, BuildingBlock: XOMCOT_clean_sbu_1, # of connection points: 5
#     Node 13, Type 0, BuildingBlock: XOMCOT_clean_sbu_1, # of connection points: 5
#     Node 14, Type 0, BuildingBlock: XOMCOT_clean_sbu_1, # of connection points: 5
#     Node 15, Type 0, BuildingBlock: XOMCOT_clean_sbu_1, # of connection points: 5
#     Edge 16, Type (0, 0), BuildingBlock: CIFDUS_clean_linker_0, # of connection points: 2
#     Edge 17, Type (0, 0), BuildingBlock: CIFDUS_clean_linker_0, # of connection points: 2
#     Edge 18, Type (0, 0), BuildingBlock: CIFDUS_clean_linker_0, # of connection points: 2
#     Edge 19, Type (0, 0), BuildingBlock: CIFDUS_clean_linker_0, # of connection points: 2
#     Edge 20, Type (0, 0), BuildingBlock: CIFDUS_clean_linker_0, # of connection points: 2
#     Edge 21, Type (0, 0), BuildingBlock: CIFDUS_clean_linker_0, # of connection points: 2
#     Edge 22, Type (0, 0), BuildingBlock: CIFDUS_clean_linker_0, # of connection points: 2
#     Edge 23, Type (0, 0), BuildingBlock: CIFDUS_clean_linker_0, # of connection points: 2
#     Edge 24, Type (0, 0), BuildingBlock: CIFDUS_clean_linker_0, # of connection points: 2
#     Edge 25, Type (0, 0), BuildingBlock: CIFDUS_clean_linker_0, # of connection points: 2
#     Edge 26, Type (0, 0), BuildingBlock: CIFDUS_clean_linker_0, # of connection points: 2
#     Edge 27, Type (0, 0), BuildingBlock: CIFDUS_clean_linker_0, # of connection points: 2
#     Edge 28, Type (0, 0), BuildingBlock: CIFDUS_clean_linker_0, # of connection points: 2
#     Edge 29, Type (0, 0), BuildingBlock: CIFDUS_clean_linker_0, # of connection points: 2
#     Edge 30, Type (0, 0), BuildingBlock: CIFDUS_clean_linker_0, # of connection points: 2
#     Edge 31, Type (0, 0), BuildingBlock: CIFDUS_clean_linker_0, # of connection points: 2
#     Edge 32, Type (0, 0), BuildingBlock: CIFDUS_clean_linker_0, # of connection points: 2
#     Edge 33, Type (0, 0), BuildingBlock: CIFDUS_clean_linker_0, # of connection points: 2
#     Edge 34, Type (0, 0), BuildingBlock: CIFDUS_clean_linker_0, # of connection points: 2
#     Edge 35, Type (0, 0), BuildingBlock: CIFDUS_clean_linker_0, # of connection points: 2
#     Edge 36, Type (0, 0), BuildingBlock: CIFDUS_clean_linker_0, # of connection points: 2
#     Edge 37, Type (0, 0), BuildingBlock: CIFDUS_clean_linker_0, # of connection points: 2
#     Edge 38, Type (0, 0), BuildingBlock: CIFDUS_clean_linker_0, # of connection points: 2
#     Edge 39, Type (0, 0), BuildingBlock: CIFDUS_clean_linker_0, # of connection points: 2
#     Edge 40, Type (0, 0), BuildingBlock: CIFDUS_clean_linker_0, # of connection points: 2
#     Edge 41, Type (0, 0), BuildingBlock: CIFDUS_clean_linker_0, # of connection points: 2
#     Edge 42, Type (0, 0), BuildingBlock: CIFDUS_clean_linker_0, # of connection points: 2
#     Edge 43, Type (0, 0), BuildingBlock: CIFDUS_clean_linker_0, # of connection points: 2
#     Edge 44, Type (0, 0), BuildingBlock: CIFDUS_clean_linker_0, # of connection points: 2
#     Edge 45, Type (0, 0), BuildingBlock: CIFDUS_clean_linker_0, # of connection points: 2
#     Edge 46, Type (0, 0), BuildingBlock: CIFDUS_clean_linker_0, # of connection points: 2
#     Edge 47, Type (0, 0), BuildingBlock: CIFDUS_clean_linker_0, # of connection points: 2
#     Edge 48, Type (0, 0), BuildingBlock: CIFDUS_clean_linker_0, # of connection points: 2
#     Edge 49, Type (0, 0), BuildingBlock: CIFDUS_clean_linker_0, # of connection points: 2
#     Edge 50, Type (0, 0), BuildingBlock: CIFDUS_clean_linker_0, # of connection points: 2
#     Edge 51, Type (0, 0), BuildingBlock: CIFDUS_clean_linker_0, # of connection points: 2
#     Edge 52, Type (0, 0), BuildingBlock: CIFDUS_clean_linker_0, # of connection points: 2
#     Edge 53, Type (0, 0), BuildingBlock: CIFDUS_clean_linker_0, # of connection points: 2
#     Edge 54, Type (0, 0), BuildingBlock: CIFDUS_clean_linker_0, # of connection points: 2
#     Edge 55, Type (0, 0), BuildingBlock: CIFDUS_clean_linker_0, # of connection points: 2
# Relax obj value: 0.355
# Max RMSD: 0.202
# Mean RMSD: 0.202
data_MOF--net-zfx--node1-XOMCOT_clean_sbu_1--edge1-CIFDUS_clean_linker_0
_symmetry_space_group_name_H-M    P1
_symmetry_Int_Tables_number       1
_symmetry_cell_setting            triclinic
loop_
_symmetry_equiv_pos_as_xyz
'x, y, z'
_cell_length_a     56.563717
_cell_length_b     56.425505
_cell_length_c     21.154848
_cell_angle_alpha  89.809657
_cell_angle_beta   89.971712
_cell_angle_gamma 89.890614
loop_
_atom_site_label
_atom_site_type_symbol
_atom_site_fract_x
_atom_site_fract_y
_atom_site_fract_z
_atom_type_partial_charge
C0 C 0.56464 0.15221 0.36971 0.0
C1 C 0.58366 0.14858 0.40949 0.0
N2 N 0.57519 0.14409 0.46778 0.0
N3 N 0.54447 0.15062 0.40359 0.0
C4 C 0.55156 0.14559 0.46282 0.0
H5 H 0.56559 0.15581 0.3196 0.0
Co6 Co 0.51306 0.15233 0.37942 0.0
C7 C 0.49623 0.18962 0.47221 0.0
O8 O 0.48947 0.2035 0.42559 0.0
N9 N 0.48151 0.15302 0.3557 0.0
C10 C 0.44221 0.15177 0.35315 0.0
C11 C 0.46166 0.15594 0.39049 0.0
C12 C 0.47369 0.14626 0.29855 0.0
N13 N 0.44993 0.14548 0.29543 0.0
O14 O 0.51973 0.18196 0.33233 0.0
H15 H 0.46112 0.16001 0.4403 0.0
H16 H 0.48519 0.14192 0.25957 0.0
O17 O 0.50569 0.16952 0.45948 0.0
C18 C 0.52514 0.17874 0.2739 0.0
O19 O 0.52518 0.15696 0.25221 0.0
N20 N 0.50776 0.12269 0.4171 0.0
C21 C 0.50334 0.07543 0.45544 0.0
C22 C 0.49405 0.09391 0.49257 0.0
C23 C 0.49648 0.11755 0.47256 0.0
C24 C 0.51642 0.105 0.38007 0.0
C25 C 0.51454 0.08133 0.3984 0.0
H26 H 0.48933 0.13157 0.50155 0.0
H27 H 0.52496 0.10941 0.33581 0.0
H28 H 0.53955 0.14363 0.50231 0.0
H29 H 0.60218 0.14945 0.39684 0.0
H30 H 0.42387 0.15315 0.36734 0.0
H31 H 0.48529 0.09015 0.537 0.0
H32 H 0.52156 0.06772 0.3676 0.0
C33 C 0.14295 0.30565 0.63768 0.0
C34 C 0.14121 0.32555 0.67506 0.0
N35 N 0.12263 0.3226 0.71402 0.0
N36 N 0.1259 0.29017 0.65461 0.0
C37 C 0.11351 0.30123 0.69997 0.0
H38 H 0.15688 0.30184 0.60417 0.0
Co39 Co 0.12432 0.25869 0.6318 0.0
C40 C 0.10952 0.23773 0.76134 0.0
O41 O 0.13032 0.22803 0.77023 0.0
N42 N 0.12312 0.22661 0.60752 0.0
C43 C 0.13014 0.18778 0.59934 0.0
C44 C 0.13255 0.20739 0.63686 0.0
C45 C 0.11538 0.21806 0.55185 0.0
N46 N 0.11955 0.19469 0.54572 0.0
O47 O 0.09468 0.26575 0.58616 0.0
H48 H 0.14252 0.2076 0.68005 0.0
H49 H 0.10728 0.22869 0.5154 0.0
O50 O 0.10571 0.25022 0.71118 0.0
C51 C 0.09762 0.27329 0.52931 0.0
O52 O 0.11921 0.27396 0.50645 0.0
N53 N 0.15454 0.25389 0.66884 0.0
C54 C 0.20264 0.25279 0.70084 0.0
C55 C 0.18565 0.26105 0.74409 0.0
C56 C 0.16172 0.26196 0.72662 0.0
C57 C 0.17096 0.24638 0.626 0.0
C58 C 0.1949 0.24529 0.6413 0.0
H59 H 0.14909 0.26986 0.75866 0.0
H60 H 0.16551 0.24178 0.5786 0.0
H61 H 0.09939 0.29296 0.7265 0.0
H62 H 0.15341 0.3403 0.67622 0.0
H63 H 0.13684 0.17016 0.60911 0.0
H64 H 0.19092 0.26772 0.78989 0.0
H65 H 0.20731 0.23896 0.60616 0.0
C66 C 0.95143 0.86006 0.89288 0.0
C67 C 0.93308 0.86147 0.93589 0.0
N68 N 0.94238 0.86636 0.99295 0.0
N69 N 0.97208 0.86348 0.92348 0.0
C70 C 0.96586 0.86728 0.984 0.0
H71 H 0.9497 0.85675 0.84283 0.0
Co72 Co 1.00311 0.8651 0.89539 0.0
C73 C 0.02833 0.83268 0.98645 0.0
O74 O 0.03899 0.82221 0.93891 0.0
N75 N 0.03438 0.86757 0.86868 0.0
C76 C 0.07282 0.87577 0.86622 0.0
C77 C 0.05326 0.87367 0.90419 0.0
C78 C 0.0429 0.86627 0.80941 0.0
N79 N 0.06621 0.87115 0.80643 0.0
O80 O 0.99911 0.83463 0.8512 0.0
H81 H 0.05295 0.87653 0.95463 0.0
H82 H 0.03238 0.86148 0.76908 0.0
O83 O 0.01367 0.84952 0.97524 0.0
C84 C 0.99215 0.83747 0.7938 0.0
O85 O 0.98917 0.85921 0.77271 0.0
N86 N 1.00538 0.89557 0.92984 0.0
C87 C 1.00364 0.94359 0.96026 0.0
C88 C 0.01302 0.92703 1.0033 0.0
C89 C 0.01352 0.90287 0.98738 0.0
C90 C 0.99675 0.91152 0.88731 0.0
C91 C 0.99556 0.93554 0.90164 0.0
H92 H 0.02023 0.89016 0.02127 0.0
H93 H 0.99042 0.90536 0.84201 0.0
H94 H 0.97845 0.87016 0.02163 0.0
H95 H 0.91447 0.85898 0.92614 0.0
H96 H 0.09046 0.88035 0.8816 0.0
H97 H 0.01931 0.93264 0.04921 0.0
H98 H 0.98837 0.94777 0.86701 0.0
C99 C 0.38656 0.71572 0.12892 0.0
C100 C 0.38644 0.69478 0.16265 0.0
N101 N 0.40515 0.69497 0.20187 0.0
N102 N 0.40485 0.72912 0.14863 0.0
C103 C 0.41619 0.71576 0.19161 0.0
H104 H 0.37297 0.72176 0.0967 0.0
Co105 Co 0.40859 0.76097 0.13242 0.0
C106 C 0.42268 0.78143 0.25767 0.0
O107 O 0.40457 0.79585 0.25107 0.0
N108 N 0.41242 0.79314 0.11311 0.0
C109 C 0.42784 0.82902 0.09927 0.0
C110 C 0.42942 0.80824 0.13272 0.0
C111 C 0.40159 0.80486 0.0656 0.0
N112 N 0.41039 0.82676 0.05663 0.0
O113 O 0.43745 0.75347 0.08439 0.0
H114 H 0.44364 0.80387 0.16473 0.0
H115 H 0.38934 0.79664 0.03338 0.0
O116 O 0.42711 0.7661 0.21403 0.0
C117 C 0.43549 0.75263 0.02393 0.0
O118 O 0.41536 0.75919 0.99836 0.0
N119 N 0.37886 0.76646 0.17405 0.0
C120 C 0.33231 0.76559 0.22046 0.0
C121 C 0.35105 0.75663 0.25673 0.0
C122 C 0.3741 0.75706 0.23257 0.0
C123 C 0.36055 0.77466 0.13793 0.0
C124 C 0.33737 0.77502 0.16077 0.0
H125 H 0.38793 0.74867 0.25985 0.0
H126 H 0.36326 0.7792 0.08925 0.0
H127 H 0.43072 0.72214 0.22007 0.0
H128 H 0.37278 0.68137 0.16195 0.0
H129 H 0.44042 0.84344 0.10085 0.0
H130 H 0.34783 0.74868 0.3026 0.0
H131 H 0.32327 0.78112 0.13009 0.0
C132 C 0.56324 0.85581 0.63329 0.0
C133 C 0.57995 0.85597 0.58578 0.0
N134 N 0.56848 0.85676 0.52998 0.0
N135 N 0.54155 0.85618 0.60695 0.0
C136 C 0.54532 0.85631 0.54426 0.0
H137 H 0.56667 0.85725 0.68342 0.0
Co138 Co 0.51356 0.86431 0.64473 0.0
C139 C 0.47427 0.84361 0.56326 0.0
O140 O 0.45962 0.85981 0.5845 0.0
N141 N 0.48547 0.87347 0.68422 0.0
C142 C 0.45626 0.895 0.72504 0.0
C143 C 0.47705 0.89575 0.69182 0.0
C144 C 0.46966 0.85959 0.71422 0.0
N145 N 0.45162 0.87221 0.7388 0.0
O146 O 0.5173 0.83737 0.70411 0.0
H147 H 0.48562 0.91178 0.676 0.0
H148 H 0.47171 0.84061 0.71961 0.0
O149 O 0.49595 0.8437 0.58169 0.0
C150 C 0.52326 0.84364 0.76014 0.0
O151 O 0.52464 0.86643 0.77225 0.0
N152 N 0.51244 0.89183 0.59305 0.0
C153 C 0.51466 0.93755 0.54218 0.0
C154 C 0.4992 0.92066 0.51673 0.0
C155 C 0.49863 0.89764 0.54221 0.0
C156 C 0.52797 0.90797 0.61686 0.0
C157 C 0.5295 0.93081 0.59193 0.0
H158 H 0.48696 0.88492 0.52118 0.0
H159 H 0.53879 0.9032 0.6571 0.0
H160 H 0.53125 0.85763 0.50981 0.0
H161 H 0.59892 0.85695 0.59189 0.0
H162 H 0.44586 0.91009 0.74001 0.0
H163 H 0.48776 0.92521 0.47745 0.0
H164 H 0.54169 0.94334 0.61273 0.0
C165 C 0.41547 0.30711 0.91294 0.0
C166 C 0.41302 0.32632 0.87288 0.0
N167 N 0.40802 0.31802 0.81487 0.0
N168 N 0.41269 0.28696 0.87946 0.0
C169 C 0.40811 0.29431 0.82019 0.0
H170 H 0.41926 0.308 0.96288 0.0
Co171 Co 0.41304 0.25531 0.90329 0.0
C172 C 0.44959 0.2367 0.81106 0.0
O173 O 0.46261 0.22869 0.85793 0.0
N174 N 0.41237 0.22362 0.92654 0.0
C175 C 0.40901 0.18432 0.9283 0.0
C176 C 0.41363 0.20379 0.89091 0.0
C177 C 0.40612 0.21583 0.98428 0.0
N178 N 0.40402 0.1921 0.98681 0.0
O179 O 0.44258 0.26053 0.95103 0.0
H180 H 0.41687 0.20337 0.84061 0.0
H181 H 0.4031 0.2273 0.02416 0.0
O182 O 0.43012 0.24743 0.82341 0.0
C183 C 0.43831 0.26641 1.00855 0.0
O184 O 0.41617 0.26821 0.02658 0.0
N185 N 0.38339 0.25129 0.86564 0.0
C186 C 0.33583 0.2476 0.83141 0.0
C187 C 0.35383 0.24051 0.78948 0.0
C188 C 0.37765 0.2423 0.80777 0.0
C189 C 0.36619 0.25833 0.90649 0.0
C190 C 0.34238 0.25666 0.89045 0.0
H191 H 0.39132 0.23646 0.77567 0.0
H192 H 0.37112 0.26529 0.9522 0.0
H193 H 0.40568 0.28243 0.78071 0.0
H194 H 0.41516 0.34481 0.88501 0.0
H195 H 0.40915 0.16596 0.91364 0.0
H196 H 0.34953 0.23327 0.74357 0.0
H197 H 0.3292 0.26266 0.92396 0.0
C198 C 0.95952 0.17289 0.1238 0.0
C199 C 0.94274 0.17511 0.07699 0.0
N200 N 0.95259 0.16846 0.02168 0.0
N201 N 0.97984 0.16511 0.09784 0.0
C202 C 0.97508 0.16264 0.0359 0.0
H203 H 0.95685 0.17609 0.17366 0.0
Co204 Co 0.00724 0.15562 0.13806 0.0
C205 C 0.02483 0.19308 0.04539 0.0
O206 O 1.00619 0.20662 0.05384 0.0
N207 N 0.03446 0.1455 0.17839 0.0
C208 C 0.06041 0.12312 0.22962 0.0
C209 C 0.03967 0.12311 0.19629 0.0
C210 C 0.05219 0.15878 0.2013 0.0
N211 N 0.0681 0.14564 0.23356 0.0
O212 O 1.0045 0.18264 0.19669 0.0
H213 H 0.02856 0.10785 0.18834 0.0
H214 H 0.05227 0.17795 0.199 0.0
O215 O 0.02682 0.17367 0.07675 0.0
C216 C 0.99899 0.17611 0.25298 0.0
O217 O 0.99674 0.15332 0.26441 0.0
N218 N 0.00851 0.12832 0.08723 0.0
C219 C 0.01151 0.08195 0.04193 0.0
C220 C 0.02871 0.09888 0.02565 0.0
C221 C 0.02688 0.12208 0.04874 0.0
C222 C 0.99112 0.11245 0.10109 0.0
C223 C 0.99219 0.08926 0.07869 0.0
H224 H 0.04102 0.13444 0.03924 0.0
H225 H 0.97705 0.11746 0.13304 0.0
H226 H 0.98778 0.15575 1.00247 0.0
H227 H 0.9247 0.181 0.08355 0.0
H228 H 0.06836 0.10791 0.25263 0.0
H229 H 0.04385 0.09404 0.99707 0.0
H230 H 0.97869 0.07681 0.09334 0.0
C231 C 0.10772 0.71232 0.38087 0.0
C232 C 0.10494 0.69755 0.3293 0.0
N233 N 0.10973 0.71023 0.27673 0.0
N234 N 0.11413 0.73398 0.36 0.0
C235 C 0.11552 0.73193 0.29691 0.0
H236 H 0.10463 0.70777 0.42989 0.0
Co237 Co 0.11923 0.76227 0.40073 0.0
C238 C 0.08074 0.78638 0.32037 0.0
O239 O 0.06443 0.78536 0.36449 0.0
N240 N 0.12482 0.79104 0.44079 0.0
C241 C 0.14327 0.82065 0.48873 0.0
C242 C 0.1462 0.79989 0.45653 0.0
C243 C 0.10916 0.80674 0.4643 0.0
N244 N 0.11994 0.8248 0.49445 0.0
O245 O 0.09059 0.75661 0.45204 0.0
H246 H 0.16301 0.79141 0.44798 0.0
H247 H 0.09024 0.804 0.46377 0.0
O248 O 0.10157 0.77858 0.33207 0.0
C249 C 0.0933 0.75248 0.51138 0.0
O250 O 0.11441 0.7553 0.5361 0.0
N251 N 0.14791 0.7657 0.35615 0.0
C252 C 0.19422 0.7696 0.30997 0.0
C253 C 0.17587 0.78398 0.28589 0.0
C254 C 0.15289 0.78198 0.31019 0.0
C255 C 0.16514 0.75101 0.37843 0.0
C256 C 0.18836 0.75282 0.35669 0.0
H257 H 0.13938 0.79397 0.29326 0.0
H258 H 0.16097 0.73849 0.41564 0.0
H259 H 0.12047 0.74633 0.26587 0.0
H260 H 0.09889 0.67936 0.3302 0.0
H261 H 0.15722 0.83108 0.5098 0.0
H262 H 0.17918 0.79693 0.24913 0.0
H263 H 0.20166 0.74166 0.37839 0.0
C264 C 0.89194 0.80381 0.40646 0.0
C265 C 0.89037 0.8234 0.3676 0.0
N266 N 0.90413 0.81947 0.31692 0.0
N267 N 0.90632 0.78762 0.3795 0.0
C268 C 0.91385 0.79792 0.32565 0.0
H269 H 0.88138 0.80054 0.44821 0.0
Co270 Co 0.90734 0.75602 0.40327 0.0
C271 C 0.92452 0.73725 0.27311 0.0
O272 O 0.90344 0.72982 0.25672 0.0
N273 N 0.90792 0.72422 0.42888 0.0
C274 C 0.90627 0.68484 0.43555 0.0
C275 C 0.90946 0.70382 0.39563 0.0
C276 C 0.90376 0.71706 0.48862 0.0
N277 N 0.90235 0.69333 0.49383 0.0
O278 O 0.93594 0.76262 0.45336 0.0
H279 H 0.91224 0.70234 0.3456 0.0
H280 H 0.90145 0.72902 0.52779 0.0
O281 O 0.92755 0.74724 0.32725 0.0
C282 C 0.93158 0.76995 0.50965 0.0
O283 O 0.90941 0.77183 0.5274 0.0
N284 N 0.87752 0.7513 0.36264 0.0
C285 C 0.8294 0.75271 0.32931 0.0
C286 C 0.84685 0.76075 0.28721 0.0
C287 C 0.87073 0.76035 0.30529 0.0
C288 C 0.86057 0.74354 0.40382 0.0
C289 C 0.83667 0.74368 0.38785 0.0
H290 H 0.88355 0.76813 0.27387 0.0
H291 H 0.86524 0.73857 0.45141 0.0
H292 H 0.9239 0.78884 0.28957 0.0
H293 H 0.87835 0.83821 0.37297 0.0
H294 H 0.90667 0.66629 0.42269 0.0
H295 H 0.84203 0.76846 0.24205 0.0
H296 H 0.82388 0.73746 0.42221 0.0
C297 C 0.61477 0.20145 0.88377 0.0
C298 C 0.61611 0.18272 0.84204 0.0
N299 N 0.61749 0.19177 0.7832 0.0
N300 N 0.61484 0.22193 0.8507 0.0
C301 C 0.61625 0.21541 0.78979 0.0
H302 H 0.61467 0.20026 0.93481 0.0
Co303 Co 0.61803 0.2523 0.88038 0.0
C304 C 0.59737 0.28506 0.78002 0.0
O305 O 0.61236 0.30159 0.79686 0.0
N306 N 0.62198 0.28312 0.91157 0.0
C307 C 0.6373 0.31724 0.94427 0.0
C308 C 0.642 0.29619 0.91478 0.0
C309 C 0.60538 0.29685 0.93897 0.0
N310 N 0.61429 0.31751 0.96008 0.0
O311 O 0.58981 0.24729 0.93408 0.0
H312 H 0.65925 0.29092 0.89829 0.0
H313 H 0.58731 0.29131 0.94634 0.0
O314 O 0.59789 0.26474 0.80797 0.0
C315 C 0.59308 0.24461 0.99383 0.0
O316 O 0.61445 0.24789 0.01644 0.0
N317 N 0.64676 0.25471 0.8347 0.0
C318 C 0.69327 0.25492 0.78903 0.0
C319 C 0.67442 0.26283 0.75106 0.0
C320 C 0.65124 0.26243 0.77457 0.0
C321 C 0.66471 0.24593 0.87093 0.0
C322 C 0.68805 0.2461 0.84945 0.0
H323 H 0.63717 0.2679 0.74368 0.0
H324 H 0.66083 0.2392 0.91775 0.0
H325 H 0.61685 0.22782 0.75076 0.0
H326 H 0.6168 0.16406 0.85396 0.0
H327 H 0.65009 0.33082 0.95555 0.0
H328 H 0.67755 0.26949 0.70372 0.0
H329 H 0.70184 0.23918 0.87985 0.0
C330 C 0.61306 0.81064 0.10749 0.0
C331 C 0.6133 0.83007 0.14715 0.0
N332 N 0.61668 0.82206 0.20644 0.0
N333 N 0.61565 0.79078 0.14259 0.0
C334 C 0.61757 0.79837 0.2024 0.0
H335 H 0.61152 0.81101 0.05655 0.0
Co336 Co 0.61965 0.75978 0.11842 0.0
C337 C 0.59964 0.72998 0.22545 0.0
O338 O 0.61599 0.71383 0.21619 0.0
N339 N 0.62429 0.72815 0.09376 0.0
C340 C 0.64047 0.69332 0.06989 0.0
C341 C 0.64466 0.71548 0.09331 0.0
C342 C 0.60798 0.71303 0.07084 0.0
N343 N 0.61741 0.69187 0.05534 0.0
O344 O 0.5917 0.76296 0.06297 0.0
H345 H 0.66186 0.72179 0.10718 0.0
H346 H 0.58976 0.71789 0.06195 0.0
O347 O 0.59925 0.74885 0.19113 0.0
C348 C 0.59671 0.7648 1.00397 0.0
O349 O 0.61884 0.7618 0.98674 0.0
N350 N 0.64833 0.75905 0.16442 0.0
C351 C 0.69586 0.75809 0.20079 0.0
C352 C 0.67797 0.75118 0.24325 0.0
C353 C 0.65416 0.75199 0.22432 0.0
C354 C 0.66533 0.76764 0.12488 0.0
C355 C 0.68911 0.76715 0.14176 0.0
H356 H 0.64078 0.74691 0.25786 0.0
H357 H 0.66036 0.77391 0.07835 0.0
H358 H 0.61954 0.78669 0.24272 0.0
H359 H 0.61144 0.8485 0.13366 0.0
H360 H 0.65363 0.67982 0.06053 0.0
H361 H 0.68234 0.74456 0.28992 0.0
H362 H 0.70214 0.77347 0.10822 0.0
C363 C 0.88696 0.2109 0.63076 0.0
C364 C 0.89227 0.18895 0.65539 0.0
N365 N 0.91496 0.18915 0.67493 0.0
N366 N 0.90607 0.22497 0.63637 0.0
C367 C 0.92311 0.21087 0.65972 0.0
H368 H 0.86972 0.21683 0.6152 0.0
Co369 Co 0.90727 0.25735 0.62439 0.0
C370 C 0.93589 0.25625 0.75446 0.0
O371 O 0.93009 0.23551 0.77816 0.0
N372 N 0.90811 0.28982 0.61185 0.0
C373 C 0.90911 0.32884 0.62658 0.0
C374 C 0.90814 0.30708 0.65606 0.0
C375 C 0.90822 0.30138 0.55632 0.0
N376 N 0.90887 0.32504 0.56395 0.0
O377 O 0.93501 0.25286 0.56968 0.0
H378 H 0.90765 0.30407 0.70655 0.0
H379 H 0.90861 0.29271 0.51086 0.0
O380 O 0.92755 0.26285 0.70064 0.0
C381 C 0.92856 0.24765 0.5133 0.0
O382 O 0.90579 0.24687 0.50117 0.0
N383 N 0.87894 0.26106 0.67043 0.0
C384 C 0.83265 0.26268 0.71763 0.0
C385 C 0.8516 0.25534 0.75616 0.0
C386 C 0.87463 0.25457 0.73156 0.0
C387 C 0.86083 0.2685 0.63272 0.0
C388 C 0.8377 0.26968 0.6554 0.0
H389 H 0.8886 0.24773 0.76082 0.0
H390 H 0.86429 0.27296 0.58382 0.0
H391 H 0.9405 0.21725 0.67224 0.0
H392 H 0.87973 0.1749 0.66476 0.0
H393 H 0.91024 0.346 0.64909 0.0
H394 H 0.84857 0.24936 0.80417 0.0
H395 H 0.82386 0.2758 0.62395 0.0
C396 C 0.05879 0.63059 0.89039 0.0
C397 C 0.07992 0.63392 0.92102 0.0
N398 N 0.07875 0.65469 0.95189 0.0
N399 N 0.04411 0.64882 0.90359 0.0
C400 C 0.05726 0.66376 0.93805 0.0
H401 H 0.05418 0.61524 0.86273 0.0
Co402 Co 0.0124 0.65069 0.8822 0.0
C403 C 0.00845 0.67534 0.01595 0.0
O404 O 0.02548 0.66377 0.04498 0.0
N405 N 0.98109 0.65149 0.85914 0.0
C406 C 0.94186 0.64964 0.859 0.0
C407 C 0.96157 0.65343 0.89563 0.0
C408 C 0.97296 0.64584 0.80156 0.0
N409 N 0.94921 0.6446 0.80007 0.0
O410 O 0.01934 0.67948 0.83253 0.0
H411 H 0.96157 0.65646 0.94601 0.0
H412 H 0.98424 0.64273 0.76121 0.0
O413 O 1.00383 0.67072 0.95769 0.0
C414 C 0.02608 0.67666 0.77506 0.0
O415 O 0.02696 0.65505 0.75233 0.0
N416 N 1.00638 0.62167 0.92416 0.0
C417 C 1.00052 0.57491 0.96621 0.0
C418 C 0.99645 0.5941 1.00699 0.0
C419 C 0.99934 0.61741 0.98495 0.0
C420 C 0.00901 0.60326 0.88318 0.0
C421 C 1.00652 0.57981 0.90326 0.0
H422 H 0.99554 0.63167 0.01683 0.0
H423 H 0.01349 0.60687 0.83437 0.0
H424 H 0.0506 0.6803 0.95654 0.0
H425 H 0.09439 0.62137 0.92364 0.0
H426 H 0.92362 0.6504 0.87439 0.0
H427 H 0.99139 0.59115 0.05576 0.0
H428 H 0.00912 0.56565 0.86953 0.0
C429 C 0.46222 0.35729 0.38964 0.0
C430 C 0.44527 0.35644 0.43642 0.0
N431 N 0.45645 0.35633 0.49261 0.0
N432 N 0.4838 0.35734 0.41672 0.0
C433 C 0.47969 0.3564 0.47924 0.0
H434 H 0.45898 0.35942 0.33958 0.0
Co435 Co 0.51196 0.36545 0.37955 0.0
C436 C 0.55133 0.34423 0.4598 0.0
O437 O 0.56599 0.35971 0.4352 0.0
N438 N 0.54037 0.37484 0.3399 0.0
C439 C 0.56968 0.39644 0.29863 0.0
C440 C 0.55121 0.3963 0.34072 0.0
C441 C 0.55297 0.36229 0.29745 0.0
N442 N 0.57046 0.37509 0.27133 0.0
O443 O 0.50817 0.33889 0.31929 0.0
H444 H 0.54574 0.41152 0.36771 0.0
H445 H 0.54889 0.34438 0.28319 0.0
O446 O 0.52948 0.34457 0.44279 0.0
C447 C 0.50083 0.34617 0.26515 0.0
O448 O 0.49756 0.36908 0.25763 0.0
N449 N 0.5131 0.39244 0.43176 0.0
C450 C 0.51341 0.4381 0.48339 0.0
C451 C 0.52471 0.41907 0.51446 0.0
C452 C 0.52436 0.3963 0.48788 0.0
C453 C 0.50071 0.41025 0.40338 0.0
C454 C 0.50089 0.43317 0.42767 0.0
H455 H 0.53333 0.38212 0.51224 0.0
H456 H 0.49167 0.40682 0.35929 0.0
H457 H 0.49352 0.35708 0.51448 0.0
H458 H 0.42631 0.35728 0.42979 0.0
H459 H 0.58046 0.41151 0.28552 0.0
H460 H 0.53399 0.42172 0.5586 0.0
H461 H 0.4921 0.44703 0.40108 0.0
C462 C 0.05911 0.37581 0.12582 0.0
C463 C 0.07599 0.3734 0.07915 0.0
N464 N 0.07023 0.35449 0.04366 0.0
N465 N 0.04273 0.35869 0.11856 0.0
C466 C 0.05088 0.34517 0.07112 0.0
H467 H 0.05703 0.39095 0.15656 0.0
Co468 Co 0.01149 0.36015 0.14518 0.0
C469 C 0.99093 0.34215 0.01744 0.0
O470 O 0.98503 0.36341 0.99782 0.0
N471 N 0.97998 0.3617 0.17228 0.0
C472 C 0.94096 0.36715 0.1755 0.0
C473 C 0.96046 0.36608 0.13712 0.0
C474 C 0.97185 0.36061 0.23209 0.0
N475 N 0.94827 0.36388 0.23517 0.0
O476 O 0.01739 0.33194 0.19796 0.0
H477 H 0.96016 0.36929 0.08711 0.0
H478 H 0.98285 0.35733 0.27286 0.0
O479 O 1.00064 0.33935 0.07212 0.0
C480 C 0.02587 0.33658 0.25288 0.0
O481 O 0.02815 0.35891 0.26915 0.0
N482 N 0.0077 0.3895 0.10033 0.0
C483 C 0.00826 0.43636 0.05405 0.0
C484 C 0.01693 0.41747 0.01753 0.0
C485 C 0.01706 0.39439 0.04208 0.0
C486 C 0.99964 0.40775 0.13684 0.0
C487 C 0.99948 0.43109 0.11452 0.0
H488 H 0.02514 0.38053 0.0144 0.0
H489 H 0.99421 0.40445 0.18506 0.0
H490 H 0.04119 0.33049 0.05132 0.0
H491 H 0.08936 0.38636 0.06707 0.0
H492 H 0.92289 0.37039 0.16091 0.0
H493 H 0.02402 0.42043 0.97064 0.0
H494 H 0.99349 0.445 0.14584 0.0
C495 C 0.46158 0.64387 0.62182 0.0
C496 C 0.44519 0.64603 0.57388 0.0
N497 N 0.45297 0.6627 0.53325 0.0
N498 N 0.47961 0.65891 0.6104 0.0
C499 C 0.47311 0.67108 0.55855 0.0
H500 H 0.46199 0.62999 0.65719 0.0
Co501 Co 0.51018 0.65535 0.64038 0.0
C502 C 0.53346 0.66962 0.51219 0.0
O503 O 0.53665 0.64772 0.49367 0.0
N504 N 0.54086 0.65168 0.67089 0.0
C505 C 0.57854 0.64111 0.68118 0.0
C506 C 0.56034 0.64451 0.63924 0.0
C507 C 0.54769 0.65254 0.7317 0.0
N508 N 0.57047 0.64607 0.73953 0.0
O509 O 0.50603 0.68469 0.68947 0.0
H510 H 0.56115 0.64075 0.58942 0.0
H511 H 0.5361 0.6577 0.76966 0.0
O512 O 0.52399 0.67401 0.5664 0.0
C513 C 0.49616 0.68105 0.74336 0.0
O514 O 0.49097 0.65913 0.75919 0.0
N515 N 0.51211 0.62492 0.6 0.0
C516 C 0.50893 0.57734 0.56166 0.0
C517 C 0.50126 0.5958 0.52196 0.0
C518 C 0.50267 0.61936 0.54234 0.0
C519 C 0.51878 0.60696 0.63984 0.0
C520 C 0.51789 0.58326 0.62119 0.0
H521 H 0.49567 0.63304 0.51195 0.0
H522 H 0.52401 0.6108 0.68781 0.0
H523 H 0.48439 0.68367 0.53464 0.0
H524 H 0.43058 0.63413 0.56515 0.0
H525 H 0.59613 0.63499 0.66951 0.0
H526 H 0.49386 0.59207 0.47586 0.0
H527 H 0.52313 0.56961 0.65448 0.0
H528 H 0.53747 0.04145 0.44979 0.0
H529 H 0.4649 0.05239 0.50524 0.0
H530 H 0.46145 0.01039 0.53337 0.0
H531 H 0.47929 0.97033 0.54269 0.0
H532 H 0.55226 0.96021 0.49071 0.0
H533 H 0.55522 1.0019 0.45935 0.0
C534 C 0.52083 0.03463 0.46763 0.0
C535 C 0.50144 0.05008 0.47514 0.0
C536 C 0.51901 0.01051 0.48374 0.0
C537 C 0.48016 0.04098 0.4995 0.0
C538 C 0.47813 0.01691 0.51515 0.0
C539 C 0.49569 0.97729 0.52368 0.0
C540 C 0.51547 0.96226 0.5182 0.0
C541 C 0.49742 1.00147 0.50733 0.0
C542 C 0.5368 0.97148 0.49483 0.0
C543 C 0.53851 0.9953 0.4772 0.0
H544 H 0.3143 0.25971 0.7202 0.0
H545 H 0.29985 0.23138 0.90583 0.0
H546 H 0.25758 0.23087 0.88275 0.0
H547 H 0.22442 0.23894 0.81026 0.0
H548 H 0.23887 0.26739 0.62475 0.0
H549 H 0.28118 0.26718 0.64709 0.0
C550 C 0.30192 0.25315 0.75527 0.0
C551 C 0.31029 0.24571 0.81475 0.0
C552 C 0.27752 0.25299 0.7418 0.0
C553 C 0.29391 0.23751 0.85992 0.0
C554 C 0.2697 0.23716 0.84674 0.0
C555 C 0.23683 0.24522 0.77492 0.0
C556 C 0.22841 0.25306 0.71584 0.0
C557 C 0.26125 0.24507 0.78806 0.0
C558 C 0.24482 0.26093 0.67033 0.0
C559 C 0.26906 0.26091 0.68313 0.0
H560 H 0.97759 0.05128 1.00153 0.0
H561 H 0.05187 0.05508 0.04632 0.0
H562 H 0.056 0.01255 0.02743 0.0
H563 H 0.03822 0.97383 0.99983 0.0
H564 H 0.96404 0.97058 0.95425 0.0
H565 H 0.96003 0.01309 0.97315 0.0
C566 C 0.99468 0.04281 1.00729 0.0
C567 C 0.01437 0.05644 0.02528 0.0
C568 C 0.99689 0.01831 0.99692 0.0
C569 C 0.03646 0.04516 0.03161 0.0
C570 C 0.0388 0.02076 0.02145 0.0
C571 C 0.02119 0.98247 0.99469 0.0
C572 C 1.00142 0.96912 0.97599 0.0
C573 C 0.0191 1.00709 1.00455 0.0
C574 C 0.97949 0.98054 0.96853 0.0
C575 C 0.9772 1.00483 0.97921 0.0
H576 H 0.29761 0.79922 0.22181 0.0
H577 H 0.31099 0.72568 0.26491 0.0
H578 H 0.26945 0.72014 0.2932 0.0
H579 H 0.22931 0.73586 0.30314 0.0
H580 H 0.21651 0.81042 0.26966 0.0
H581 H 0.25752 0.81556 0.23788 0.0
C582 C 0.29139 0.78203 0.23765 0.0
C583 C 0.30736 0.76291 0.24148 0.0
C584 C 0.26749 0.77902 0.25457 0.0
C585 C 0.29912 0.74074 0.26234 0.0
C586 C 0.27533 0.73753 0.27806 0.0
C587 C 0.23539 0.75339 0.29003 0.0
C588 C 0.21939 0.77264 0.28888 0.0
C589 C 0.25934 0.75653 0.27422 0.0
C590 C 0.22793 0.79502 0.26985 0.0
C591 C 0.25159 0.79811 0.25231 0.0
H592 H 0.80673 0.74276 0.21848 0.0
H593 H 0.79427 0.76827 0.40761 0.0
H594 H 0.75205 0.7716 0.38572 0.0
H595 H 0.71845 0.76775 0.31238 0.0
H596 H 0.73095 0.74198 0.12347 0.0
H597 H 0.77311 0.73858 0.14551 0.0
C598 C 0.79478 0.74918 0.25473 0.0
C599 C 0.80371 0.75508 0.31469 0.0
C600 C 0.77042 0.75108 0.24186 0.0
C601 C 0.78789 0.76321 0.36132 0.0
C602 C 0.76371 0.76524 0.34878 0.0
C603 C 0.73037 0.7612 0.27625 0.0
C604 C 0.72147 0.75534 0.21621 0.0
C605 C 0.75473 0.75918 0.28927 0.0
C606 C 0.73729 0.74705 0.16979 0.0
C607 C 0.76145 0.74497 0.1824 0.0
H608 H 0.79285 0.24998 0.65286 0.0
H609 H 0.81613 0.27463 0.83546 0.0
H610 H 0.77533 0.27425 0.87347 0.0
H611 H 0.73291 0.26755 0.85444 0.0
H612 H 0.70976 0.24344 0.67127 0.0
H613 H 0.75057 0.24373 0.63347 0.0
C614 C 0.78906 0.25558 0.70078 0.0
C615 C 0.8077 0.2624 0.74106 0.0
C616 C 0.7655 0.25559 0.72215 0.0
C617 C 0.8023 0.26903 0.80348 0.0
C618 C 0.77891 0.26897 0.82518 0.0
C619 C 0.73679 0.26219 0.80636 0.0
C620 C 0.71819 0.25548 0.76582 0.0
C621 C 0.76036 0.26229 0.78493 0.0
C622 C 0.7236 0.24897 0.70333 0.0
C623 C 0.74698 0.24898 0.68178 0.0
H624 H 0.03047 0.53829 0.94172 0.0
H625 H 0.96607 0.55532 0.04102 0.0
H626 H 0.96244 0.51405 0.07564 0.0
H627 H 0.97728 0.473 0.07626 0.0
H628 H 0.04285 0.45672 0.98074 0.0
H629 H 0.04578 0.49757 0.94453 0.0
C630 C 0.01555 0.53295 0.97062 0.0
C631 C 0.99853 0.5499 0.98854 0.0
C632 C 0.01362 0.50922 0.9905 0.0
C633 C 0.97953 0.54272 0.02696 0.0
C634 C 0.97738 0.51908 0.04646 0.0
C635 C 0.99236 0.47834 0.04804 0.0
C636 C 0.00968 0.46146 0.03107 0.0
C637 C 0.99432 0.50215 0.02848 0.0
C638 C 0.02888 0.46893 0.99356 0.0
C639 C 0.03075 0.49245 0.97326 0.0
H640 H 0.48062 0.47397 0.47567 0.0
H641 H 0.55128 0.45902 0.5425 0.0
H642 H 0.55587 0.5003 0.57357 0.0
H643 H 0.5406 0.54122 0.57768 0.0
H644 H 0.47092 0.55643 0.5051 0.0
H645 H 0.46567 0.51473 0.478 0.0
C646 C 0.49718 0.47966 0.49635 0.0
C647 C 0.51555 0.4631 0.50641 0.0
C648 C 0.50006 0.50367 0.51225 0.0
C649 C 0.53659 0.47102 0.53497 0.0
C650 C 0.53938 0.49479 0.55216 0.0
C651 C 0.52423 0.53538 0.55611 0.0
C652 C 0.50623 0.55201 0.54323 0.0
C653 C 0.52133 0.51132 0.54048 0.0
C654 C 0.48522 0.54414 0.51468 0.0
C655 C 0.48212 0.52024 0.49964 0.0
H656 H 0.40938 0.16777 0.26715 0.0
H657 H 0.46031 0.11774 0.19529 0.0
H658 H 0.44562 0.12395 0.08804 0.0
H659 H 0.42568 0.15116 0.01477 0.0
H660 H 0.37653 0.20284 0.08683 0.0
H661 H 0.38252 0.18801 0.19418 0.0
C662 C 0.4166 0.15752 0.22841 0.0
C663 C 0.43642 0.14301 0.23847 0.0
C664 C 0.40862 0.16182 0.16682 0.0
C665 C 0.44552 0.12965 0.18802 0.0
C666 C 0.43714 0.1332 0.12678 0.0
C667 C 0.41557 0.15847 0.05367 0.0
C668 C 0.40132 0.17849 0.04366 0.0
C669 C 0.41982 0.15044 0.11532 0.0
C670 C 0.38815 0.1878 0.09416 0.0
C671 C 0.39161 0.17938 0.15541 0.0
H672 H 0.07976 0.12589 0.34497 0.0
H673 H 0.09317 0.1862 0.22435 0.0
H674 H 0.11322 0.20627 0.31135 0.0
H675 H 0.1217 0.20855 0.42476 0.0
H676 H 0.10647 0.14884 0.54561 0.0
H677 H 0.09284 0.12613 0.45447 0.0
C678 C 0.08771 0.14307 0.33685 0.0
C679 C 0.08467 0.15474 0.27864 0.0
C680 C 0.09859 0.15463 0.38726 0.0
C681 C 0.09496 0.17711 0.26924 0.0
C682 C 0.10635 0.18857 0.31888 0.0
C683 C 0.11547 0.19053 0.4309 0.0
C684 C 0.11449 0.18046 0.49158 0.0
C685 C 0.10731 0.17787 0.37871 0.0
C686 C 0.10719 0.15688 0.49913 0.0
C687 C 0.09934 0.14399 0.44721 0.0
H688 H 0.1384 0.83888 0.60461 0.0
H689 H 0.07673 0.84505 0.48586 0.0
H690 H 0.05523 0.86443 0.57197 0.0
H691 H 0.0527 0.87416 0.68434 0.0
H692 H 0.11357 0.8635 0.80453 0.0
H693 H 0.13715 0.85247 0.71325 0.0
C694 C 0.12052 0.84513 0.59669 0.0
C695 C 0.10904 0.8404 0.53924 0.0
C696 C 0.10817 0.85536 0.64676 0.0
C697 C 0.08575 0.84829 0.53013 0.0
C698 C 0.07351 0.85931 0.57924 0.0
C699 C 0.07111 0.86942 0.69074 0.0
C700 C 0.08109 0.86898 0.75165 0.0
C701 C 0.08428 0.86197 0.63852 0.0
C702 C 0.10529 0.86386 0.75848 0.0
C703 C 0.11879 0.85735 0.70628 0.0
H704 H 0.40383 0.81044 0.93908 0.0
H705 H 0.41326 0.87426 0.04757 0.0
H706 H 0.42184 0.89643 0.95064 0.0
H707 H 0.43564 0.89481 0.84134 0.0
H708 H 0.42979 0.82986 0.73585 0.0
H709 H 0.41016 0.81082 0.8255 0.0
C710 C 0.40676 0.82938 0.94141 0.0
C711 C 0.40833 0.84073 1.00025 0.0
C712 C 0.41272 0.84158 0.88621 0.0
C713 C 0.41237 0.86523 1.00255 0.0
C714 C 0.41735 0.87781 0.94734 0.0
C715 C 0.42925 0.87679 0.83716 0.0
C716 C 0.43456 0.86349 0.78301 0.0
C717 C 0.41897 0.86579 0.8896 0.0
C718 C 0.42628 0.84015 0.77797 0.0
C719 C 0.41513 0.82931 0.82908 0.0
H720 H 0.54806 0.80144 0.75262 0.0
H721 H 0.51423 0.84844 0.885 0.0
H722 H 0.53111 0.8263 0.97347 0.0
H723 H 0.55984 0.79667 0.01386 0.0
H724 H 0.59553 0.75116 0.88131 0.0
H725 H 0.57364 0.76907 0.79383 0.0
C726 C 0.54386 0.80639 0.80082 0.0
C727 C 0.5298 0.82663 0.81181 0.0
C728 C 0.55432 0.7939 0.85213 0.0
C729 C 0.525 0.833 0.87489 0.0
C730 C 0.53475 0.82036 0.92577 0.0
C731 C 0.56229 0.79022 0.96608 0.0
C732 C 0.57933 0.77248 0.95454 0.0
C733 C 0.55007 0.80121 0.91517 0.0
C734 C 0.58257 0.76476 0.89184 0.0
C735 C 0.57009 0.7751 0.84149 0.0
H736 H 1.00158 0.8328 0.66862 0.0
H737 H 0.96514 0.79863 0.82272 0.0
H738 H 0.94478 0.77265 0.74755 0.0
H739 H 0.93325 0.76374 0.63697 0.0
H740 H 0.97081 0.79677 0.48298 0.0
H741 H 0.9951 0.81882 0.5588 0.0
C742 C 0.98967 0.81918 0.68586 0.0
C743 C 0.98488 0.81768 0.75141 0.0
C744 C 0.97805 0.80431 0.64215 0.0
C745 C 0.96939 0.79999 0.7729 0.0
C746 C 0.95754 0.78532 0.7297 0.0
C747 C 0.94718 0.77533 0.62002 0.0
C748 C 0.95012 0.77867 0.55416 0.0
C749 C 0.96112 0.78788 0.6641 0.0
C750 C 0.96828 0.79368 0.5331 0.0
C751 C 0.98201 0.80647 0.5766 0.0
H752 H 0.97207 0.2168 0.25181 0.0
H753 H 0.01332 0.17177 0.3742 0.0
H754 H 0.99805 0.19239 0.46707 0.0
H755 H 0.96834 0.21934 0.51478 0.0
H756 H 0.92515 0.26243 0.39218 0.0
H757 H 0.94575 0.24702 0.29953 0.0
C758 C 0.97828 0.21207 0.29869 0.0
C759 C 0.99394 0.19282 0.30585 0.0
C760 C 0.9687 0.22354 0.35253 0.0
C761 C 1.00133 0.18656 0.36724 0.0
C762 C 0.99248 0.19827 0.42058 0.0
C763 C 0.964 0.22588 0.46793 0.0
C764 C 0.94525 0.24211 0.46064 0.0
C765 C 0.97548 0.21625 0.41413 0.0
C766 C 0.93951 0.24997 0.39926 0.0
C767 C 0.95124 0.24105 0.34602 0.0
H768 H 0.5195 0.18257 0.14687 0.0
H769 H 0.55322 0.21681 0.3046 0.0
H770 H 0.5759 0.24181 0.23123 0.0
H771 H 0.58959 0.2504 0.12187 0.0
H772 H 0.55488 0.21682 0.96446 0.0
H773 H 0.52901 0.19536 0.03778 0.0
C774 C 0.53143 0.1959 0.16529 0.0
C775 C 0.53467 0.19772 0.23144 0.0
C776 C 0.54444 0.21015 0.12265 0.0
C777 C 0.55016 0.21513 0.25427 0.0
C778 C 0.56333 0.22926 0.21213 0.0
C779 C 0.57607 0.2387 0.10348 0.0
C780 C 0.57439 0.23513 0.03736 0.0
C781 C 0.56115 0.22642 0.14618 0.0
C782 C 0.5566 0.22004 0.0147 0.0
C783 C 0.54188 0.20761 0.05681 0.0
H784 H 0.90947 0.66846 0.77472 0.0
H785 H 0.95805 0.61695 0.69919 0.0
H786 H 0.9428 0.62399 0.59275 0.0
H787 H 0.92331 0.65199 0.52121 0.0
H788 H 0.87696 0.7056 0.59667 0.0
H789 H 0.88321 0.69032 0.70346 0.0
C790 C 0.91599 0.65811 0.73528 0.0
C791 C 0.93524 0.64278 0.74393 0.0
C792 C 0.90788 0.66305 0.67423 0.0
C793 C 0.94358 0.62933 0.69281 0.0
C794 C 0.93494 0.6334 0.63211 0.0
C795 C 0.9139 0.65972 0.56076 0.0
C796 C 0.90038 0.6803 0.5518 0.0
C797 C 0.91826 0.65138 0.62196 0.0
C798 C 0.8881 0.69016 0.60317 0.0
C799 C 0.89164 0.68143 0.66407 0.0
H800 H 0.63862 0.672 0.9562 0.0
H801 H 0.57265 0.67563 0.05756 0.0
H802 H 0.55241 0.6562 0.96945 0.0
H803 H 0.55277 0.64507 0.85819 0.0
H804 H 0.61822 0.64757 0.75287 0.0
H805 H 0.63972 0.65653 0.84911 0.0
C806 C 0.62 0.66775 0.95994 0.0
C807 C 0.60699 0.67529 0.01268 0.0
C808 C 0.60844 0.65789 0.90811 0.0
C809 C 0.58282 0.67005 0.01683 0.0
C810 C 0.57132 0.65909 0.96651 0.0
C811 C 0.57171 0.64761 0.85594 0.0
C812 C 0.58365 0.64654 0.79764 0.0
C813 C 0.58378 0.65413 0.91073 0.0
C814 C 0.60842 0.64858 0.79665 0.0
C815 C 0.62076 0.65388 0.85172 0.0
H816 H 0.63549 0.34211 0.05268 0.0
H817 H 0.56766 0.32742 0.96808 0.0
H818 H 0.54774 0.34594 0.05766 0.0
H819 H 0.54983 0.36173 0.16522 0.0
H820 H 0.61727 0.37646 0.25001 0.0
H821 H 0.63756 0.36276 0.15394 0.0
C822 C 0.6164 0.34358 0.0527 0.0
C823 C 0.60302 0.33302 1.00444 0.0
C824 C 0.60515 0.35391 0.10454 0.0
C825 C 0.57827 0.33498 1.00549 0.0
C826 C 0.5669 0.34553 0.05656 0.0
C827 C 0.56896 0.362 0.16199 0.0
C828 C 0.5823 0.3694 0.21399 0.0
C829 C 0.58019 0.35418 0.10727 0.0
C830 C 0.60696 0.37047 0.21004 0.0
C831 C 0.61841 0.36268 0.15547 0.0
H832 H 0.88637 0.32662 0.45398 0.0
H833 H 0.94121 0.35994 0.56274 0.0
H834 H 0.95663 0.37909 0.46725 0.0
H835 H 0.959 0.37919 0.35112 0.0
H836 H 0.90521 0.34388 0.24247 0.0
H837 H 0.88446 0.33286 0.33942 0.0
C838 C 0.90122 0.33871 0.45661 0.0
C839 C 0.91299 0.34168 0.51424 0.0
C840 C 0.91033 0.34885 0.40152 0.0
C841 C 0.932 0.35751 0.51839 0.0
C842 C 0.94094 0.36816 0.46381 0.0
C843 C 0.94251 0.36944 0.349 0.0
C844 C 0.93384 0.36181 0.29043 0.0
C845 C 0.93102 0.36283 0.40482 0.0
C846 C 0.91219 0.34978 0.28738 0.0
C847 C 0.90043 0.34337 0.34268 0.0
H848 H 0.02289 0.33544 0.3813 0.0
H849 H 0.05157 0.29687 0.22332 0.0
H850 H 0.07494 0.27224 0.29602 0.0
H851 H 0.09097 0.26519 0.4038 0.0
H852 H 0.06064 0.30217 0.56226 0.0
H853 H 0.03397 0.32365 0.49057 0.0
C854 C 0.03384 0.32125 0.36287 0.0
C855 C 0.03553 0.3181 0.29669 0.0
C856 C 0.04711 0.30703 0.4052 0.0
C857 C 0.04974 0.29959 0.27376 0.0
C858 C 0.0633 0.28564 0.31545 0.0
C859 C 0.07812 0.27756 0.42278 0.0
C860 C 0.0779 0.28214 0.48849 0.0
C861 C 0.06268 0.28969 0.38112 0.0
C862 C 0.06109 0.29815 0.51224 0.0
C863 C 0.04598 0.3106 0.47103 0.0
H864 H 0.46921 0.30356 1.00267 0.0
H865 H 0.44631 0.24633 0.12261 0.0
H866 H 0.46634 0.26421 0.21318 0.0
H867 H 0.48523 0.2995 0.2622 0.0
H868 H 0.50577 0.35773 0.14181 0.0
H869 H 0.49239 0.33628 0.04895 0.0
C870 C 0.4695 0.29454 0.04801 0.0
C871 C 0.4567 0.27334 0.05539 0.0
C872 C 0.48028 0.30552 0.10083 0.0
C873 C 0.45644 0.26239 0.11528 0.0
C874 C 0.46767 0.2728 0.16743 0.0
C875 C 0.48729 0.30721 0.21552 0.0
C876 C 0.49639 0.33037 0.20955 0.0
C877 C 0.47889 0.29488 0.16151 0.0
C878 C 0.49867 0.34007 0.14834 0.0
C879 C 0.49095 0.3278 0.09483 0.0
H880 H 0.44425 0.7612 0.89895 0.0
H881 H 0.46632 0.71678 0.0544 0.0
H882 H 0.48899 0.69192 0.98131 0.0
H883 H 0.49842 0.67998 0.87157 0.0
H884 H 0.47782 0.7251 0.7163 0.0
H885 H 0.45901 0.75265 0.79072 0.0
C886 C 0.45444 0.74636 0.91707 0.0
C887 C 0.45339 0.74082 0.98237 0.0
C888 C 0.46753 0.73213 0.87454 0.0
C889 C 0.46685 0.7216 1.00481 0.0
C890 C 0.47967 0.70723 0.96278 0.0
C891 C 0.49022 0.69611 0.85408 0.0
C892 C 0.4894 0.70036 0.78817 0.0
C893 C 0.47954 0.7119 0.89734 0.0
C894 C 0.47887 0.72143 0.76652 0.0
C895 C 0.46792 0.73708 0.80918 0.0
H896 H 0.02326 0.68142 0.64704 0.0
H897 H 0.05074 0.71605 0.81268 0.0
H898 H 0.07243 0.74405 0.74534 0.0
H899 H 0.08709 0.75579 0.63912 0.0
H900 H 0.05809 0.72234 0.47352 0.0
H901 H 0.03329 0.69711 0.54074 0.0
C902 C 0.03366 0.69539 0.66846 0.0
C903 C 0.03546 0.69648 0.7351 0.0
C904 C 0.04595 0.71157 0.62924 0.0
C905 C 0.04888 0.71482 0.76184 0.0
C906 C 0.06145 0.73074 0.72318 0.0
C907 C 0.07497 0.74331 0.61764 0.0
C908 C 0.07463 0.74092 0.55105 0.0
C909 C 0.06063 0.72889 0.65681 0.0
C910 C 0.05869 0.72473 0.52428 0.0
C911 C 0.04463 0.71012 0.56289 0.0
H912 H 0.48213 0.20426 0.76847 0.0
H913 H 0.43232 0.25667 0.7019 0.0
H914 H 0.44286 0.24746 0.59248 0.0
H915 H 0.46573 0.22401 0.51487 0.0
H916 H 0.51403 0.17018 0.58141 0.0
H917 H 0.50462 0.18045 0.69087 0.0
C918 C 0.47363 0.21379 0.73012 0.0
C919 C 0.45646 0.23129 0.74402 0.0
C920 C 0.4795 0.20808 0.66687 0.0
C921 C 0.44554 0.24316 0.69317 0.0
C922 C 0.4516 0.23788 0.63034 0.0
C923 C 0.47433 0.21457 0.55323 0.0
C924 C 0.49073 0.19634 0.5393 0.0
C925 C 0.46849 0.22031 0.61648 0.0
C926 C 0.50138 0.18423 0.59016 0.0
C927 C 0.49599 0.19013 0.65301 0.0
H928 H 0.02217 0.22708 0.9512 0.0
H929 H 0.0686 0.17364 0.02919 0.0
H930 H 0.09828 0.18301 0.94943 0.0
H931 H 0.1112 0.20574 0.85744 0.0
H932 H 0.06535 0.25869 0.77532 0.0
H933 H 0.03539 0.25012 0.85655 0.0
C934 C 0.03883 0.21755 0.95097 0.0
C935 C 0.04303 0.19963 0.99679 0.0
C936 C 0.05595 0.22289 0.904 0.0
C937 C 0.06471 0.18742 0.99495 0.0
C938 C 0.08177 0.1928 0.94918 0.0
C939 C 0.09471 0.21557 0.857 0.0
C940 C 0.09072 0.23297 0.80989 0.0
C941 C 0.07758 0.21041 0.90344 0.0
C942 C 0.06902 0.24521 0.81057 0.0
C943 C 0.05188 0.24031 0.85722 0.0
H944 H 0.06837 0.81043 0.02817 0.0
H945 H 1.00262 0.83994 0.09501 0.0
H946 H 0.01275 0.82836 0.20346 0.0
H947 H 0.04031 0.80933 0.27988 0.0
H948 H 0.10715 0.78241 0.21237 0.0
H949 H 0.09659 0.79341 0.10461 0.0
C950 C 0.05618 0.8143 0.06638 0.0
C951 C 0.0346 0.82589 0.05294 0.0
C952 C 0.06238 0.80803 0.12899 0.0
C953 C 0.0193 0.83103 0.10357 0.0
C954 C 0.02511 0.82438 0.16578 0.0
C955 C 0.05264 0.80594 0.24169 0.0
C956 C 0.0745 0.79475 0.25494 0.0
C957 C 0.04661 0.81281 0.17919 0.0
C958 C 0.09021 0.79081 0.20436 0.0
C959 C 0.08415 0.79712 0.1423 0.0
H960 H 0.40861 0.78747 0.37748 0.0
H961 H 0.47134 0.78592 0.26256 0.0
H962 H 0.49438 0.80295 0.35015 0.0
H963 H 0.49504 0.82354 0.45587 0.0
H964 H 0.43096 0.82453 0.56669 0.0
H965 H 0.41039 0.80238 0.48539 0.0
C966 C 0.42749 0.79024 0.37216 0.0
C967 C 0.43822 0.78534 0.31362 0.0
C968 C 0.44039 0.80033 0.42219 0.0
C969 C 0.46268 0.78918 0.30737 0.0
C970 C 0.47578 0.79922 0.35736 0.0
C971 C 0.47678 0.81835 0.46273 0.0
C972 C 0.46454 0.82598 0.51745 0.0
C973 C 0.46466 0.80564 0.41455 0.0
C974 C 0.44079 0.8192 0.52508 0.0
C975 C 0.42892 0.8065 0.47844 0.0
H976 H 0.61051 0.84037 0.4907 0.0
H977 H 0.54881 0.8791 0.42944 0.0
H978 H 0.56158 0.87613 0.31981 0.0
H979 H 0.58624 0.85577 0.24109 0.0
H980 H 0.64696 0.81587 0.30237 0.0
H981 H 0.63936 0.82684 0.4122 0.0
C982 C 0.60023 0.84869 0.4535 0.0
C983 C 0.57836 0.85908 0.46776 0.0
C984 C 0.60756 0.84671 0.39051 0.0
C985 C 0.56525 0.87006 0.41925 0.0
C986 C 0.57263 0.86857 0.35658 0.0
C987 C 0.59826 0.8504 0.27841 0.0
C988 C 0.61683 0.83484 0.26461 0.0
C989 C 0.59315 0.85593 0.34145 0.0
C990 C 0.63238 0.8277 0.31281 0.0
C991 C 0.62792 0.83379 0.37541 0.0
H992 H 0.92611 0.85898 0.28082 0.0
H993 H 0.87822 0.80477 0.21905 0.0
H994 H 0.88239 0.81786 0.10924 0.0
H995 H 0.9056 0.83986 0.03052 0.0
H996 H 0.95427 0.89367 0.09208 0.0
H997 H 0.94356 0.88626 0.20219 0.0
C998 C 0.91611 0.85069 0.2432 0.0
C999 C 0.90221 0.83087 0.25683 0.0
C1000 C 0.91896 0.8581 0.18032 0.0
C1001 C 0.88924 0.81993 0.20859 0.0
C1002 C 0.89166 0.82738 0.14608 0.0
C1003 C 0.91317 0.85052 0.06792 0.0
C1004 C 0.93107 0.86682 0.05367 0.0
C1005 C 0.90733 0.84575 0.13111 0.0
C1006 C 0.94082 0.88059 0.10243 0.0
C1007 C 0.93476 0.87633 0.1653 0.0
H1008 H 0.89111 0.17508 0.77762 0.0
H1009 H 0.96011 0.17564 0.69142 0.0
H1010 H 0.97834 0.16703 0.79389 0.0
H1011 H 0.97471 0.16678 0.90849 0.0
H1012 H 0.90555 0.16725 0.99546 0.0
H1013 H 0.8872 0.16866 0.89143 0.0
C1014 C 0.91004 0.17227 0.78076 0.0
C1015 C 0.92434 0.176 0.72729 0.0
C1016 C 0.92033 0.16849 0.84006 0.0
C1017 C 0.94887 0.17274 0.73218 0.0
C1018 C 0.95924 0.16819 0.79077 0.0
C1019 C 0.95563 0.16658 0.90524 0.0
C1020 C 0.94162 0.16731 0.96028 0.0
C1021 C 0.94518 0.16723 0.84535 0.0
C1022 C 0.91686 0.16734 0.95424 0.0
C1023 C 0.90631 0.16789 0.89467 0.0
H1024 H 0.61376 0.1687 0.49941 0.0
H1025 H 0.5642 0.11685 0.5682 0.0
H1026 H 0.57698 0.12399 0.67681 0.0
H1027 H 0.59565 0.15142 0.7518 0.0
H1028 H 0.64333 0.20492 0.68233 0.0
H1029 H 0.63838 0.19054 0.57445 0.0
C1030 C 0.6065 0.15833 0.538 0.0
C1031 C 0.58778 0.14272 0.52646 0.0
C1032 C 0.61327 0.16323 0.60027 0.0
C1033 C 0.57837 0.12934 0.57663 0.0
C1034 C 0.58558 0.13349 0.6386 0.0
C1035 C 0.60551 0.15932 0.71318 0.0
C1036 C 0.61927 0.1795 0.72421 0.0
C1037 C 0.60199 0.15141 0.65115 0.0
C1038 C 0.63211 0.1897 0.67419 0.0
C1039 C 0.62931 0.18149 0.61266 0.0
H1040 H 0.01298 0.68952 0.13994 0.0
H1041 H 0.96745 0.69713 0.97737 0.0
H1042 H 0.93845 0.71813 0.04161 0.0
H1043 H 0.92435 0.73159 0.14571 0.0
H1044 H 0.97016 0.72609 0.30782 0.0
H1045 H 1.00077 0.70755 0.242 0.0
C1046 C 0.99682 0.69594 0.11827 0.0
C1047 C 0.99229 0.69101 0.05376 0.0
C1048 C 0.9802 0.70848 0.15558 0.0
C1049 C 0.97136 0.7 0.02682 0.0
C1050 C 0.9547 0.71215 0.06365 0.0
C1051 C 0.94118 0.72667 0.16656 0.0
C1052 C 0.94483 0.73014 0.23193 0.0
C1053 C 0.95868 0.71604 0.12834 0.0
C1054 C 0.96685 0.72381 0.25779 0.0
C1055 C 0.9843 0.71299 0.22013 0.0
H1056 H 0.60229 0.73428 0.3539 0.0
H1057 H 0.5562 0.71187 0.20371 0.0
H1058 H 0.5297 0.69323 0.28081 0.0
H1059 H 0.52279 0.67844 0.38944 0.0
H1060 H 0.56773 0.70188 0.54093 0.0
H1061 H 0.5913 0.7252 0.46565 0.0
C1062 C 0.586 0.72601 0.33844 0.0
C1063 C 0.58103 0.72472 0.27313 0.0
C1064 C 0.5708 0.71526 0.3834 0.0
C1065 C 0.56016 0.71349 0.25362 0.0
C1066 C 0.54513 0.70261 0.29775 0.0
C1067 C 0.53726 0.68932 0.40624 0.0
C1068 C 0.54338 0.68858 0.47088 0.0
C1069 C 0.55066 0.70272 0.36255 0.0
C1070 C 0.56239 0.70247 0.49177 0.0
C1071 C 0.57604 0.71559 0.44848 0.0
H1072 H 0.52893 0.32379 0.56498 0.0
H1073 H 0.59604 0.32842 0.46841 0.0
H1074 H 0.6155 0.30837 0.55566 0.0
H1075 H 0.61491 0.29363 0.66426 0.0
H1076 H 0.54899 0.2878 0.76437 0.0
H1077 H 0.52774 0.30375 0.67175 0.0
C1078 C 0.54768 0.31991 0.56254 0.0
C1079 C 0.56096 0.32798 0.50991 0.0
C1080 C 0.55912 0.30827 0.61408 0.0
C1081 C 0.58532 0.32281 0.50819 0.0
C1082 C 0.59657 0.31129 0.55829 0.0
C1083 C 0.5958 0.29525 0.66524 0.0
C1084 C 0.58355 0.28932 0.72096 0.0
C1085 C 0.58386 0.30456 0.61217 0.0
C1086 C 0.55881 0.29185 0.72174 0.0
C1087 C 0.54671 0.30122 0.66885 0.0
H1088 H 0.98414 0.34328 0.89083 0.0
H1089 H 0.98336 0.29519 0.04958 0.0
H1090 H 0.96763 0.26376 0.98132 0.0
H1091 H 0.95079 0.25117 0.87799 0.0
H1092 H 0.95266 0.2999 0.7202 0.0
H1093 H 0.97109 0.32977 0.78672 0.0
C1094 C 0.98069 0.32588 0.91068 0.0
C1095 C 0.98465 0.32177 0.97571 0.0
C1096 C 0.97152 0.30805 0.87129 0.0
C1097 C 0.98047 0.29893 0.99993 0.0
C1098 C 0.97132 0.28099 0.96086 0.0
C1099 C 0.9554 0.26825 0.85788 0.0
C1100 C 0.9497 0.27333 0.79402 0.0
C1101 C 0.96625 0.28551 0.89668 0.0
C1102 C 0.9562 0.29553 0.76914 0.0
C1103 C 0.96688 0.31267 0.80723 0.0
H1104 H 0.07949 0.33094 0.75709 0.0
H1105 H 0.15313 0.34243 0.79715 0.0
H1106 H 0.14324 0.35528 0.90469 0.0
H1107 H 0.1136 0.35806 0.99132 0.0
H1108 H 0.04023 0.3447 0.94828 0.0
H1109 H 0.04999 0.3373 0.83875 0.0
C1110 C 0.09326 0.33674 0.78919 0.0
C1111 C 0.11687 0.33565 0.76993 0.0
C1112 C 0.08752 0.34308 0.85099 0.0
C1113 C 0.13474 0.34335 0.81114 0.0
C1114 C 0.12911 0.35034 0.87278 0.0
C1115 C 0.09987 0.35364 0.95763 0.0
C1116 C 0.07643 0.3511 0.97843 0.0
C1117 C 0.1056 0.34941 0.89396 0.0
C1118 C 0.05859 0.3458 0.93426 0.0
C1119 C 0.06407 0.34187 0.87126 0.0
H1120 H 0.43689 0.35316 0.78058 0.0
H1121 H 0.37919 0.30983 0.71657 0.0
H1122 H 0.38706 0.32131 0.60701 0.0
H1123 H 0.41543 0.33707 0.52973 0.0
H1124 H 0.47437 0.37879 0.59433 0.0
H1125 H 0.46102 0.37473 0.70338 0.0
C1126 C 0.42551 0.34706 0.74277 0.0
C1127 C 0.40777 0.3305 0.75589 0.0
C1128 C 0.43082 0.35292 0.68001 0.0
C1129 C 0.39314 0.32244 0.70682 0.0
C1130 C 0.39775 0.32884 0.64437 0.0
C1131 C 0.42494 0.34574 0.5676 0.0
C1132 C 0.44619 0.35751 0.55452 0.0
C1133 C 0.41737 0.34301 0.63025 0.0
C1134 C 0.45839 0.36886 0.60375 0.0
C1135 C 0.45069 0.36671 0.66601 0.0
H1136 H 0.40946 0.6629 0.48146 0.0
H1137 H 0.48383 0.66459 0.43644 0.0
H1138 H 0.47498 0.67002 0.32534 0.0
H1139 H 0.44645 0.67949 0.24308 0.0
H1140 H 0.37211 0.6802 0.28554 0.0
H1141 H 0.38028 0.66757 0.39442 0.0
C1142 C 0.42357 0.66425 0.44696 0.0
C1143 C 0.44718 0.66424 0.46731 0.0
C1144 C 0.41834 0.66749 0.38256 0.0
C1145 C 0.46548 0.66554 0.42232 0.0
C1146 C 0.46047 0.66834 0.35858 0.0
C1147 C 0.4321 0.67612 0.27594 0.0
C1148 C 0.40888 0.68078 0.2571 0.0
C1149 C 0.43703 0.67007 0.33852 0.0
C1150 C 0.39018 0.67644 0.29929 0.0
C1151 C 0.39488 0.66964 0.36169 0.0
H1152 H 0.11647 0.66716 0.22494 0.0
H1153 H 0.09546 0.73903 0.18251 0.0
H1154 H 0.08931 0.72888 0.07262 0.0
H1155 H 0.08567 0.69893 0.99116 0.0
H1156 H 0.1024 0.6261 0.03393 0.0
H1157 H 0.11549 0.63731 0.13954 0.0
C1158 C 0.1106 0.68049 0.19139 0.0
C1159 C 0.10653 0.70377 0.21178 0.0
C1160 C 0.10661 0.67443 0.128 0.0
C1161 C 0.09915 0.72106 0.16789 0.0
C1162 C 0.09551 0.71528 0.10495 0.0
C1163 C 0.09256 0.68562 0.02335 0.0
C1164 C 0.09267 0.66179 1.00523 0.0
C1165 C 0.09874 0.69195 0.08483 0.0
C1166 C 0.10216 0.64466 0.04662 0.0
C1167 C 0.10928 0.65098 0.10747 0.0
loop_
_geom_bond_atom_site_label_1
_geom_bond_atom_site_label_2
_geom_bond_distance
_geom_bond_site_symmetry_2
_ccdc_geom_bond_type
C0 C1 1.351 . S
C0 N3 1.368 . S
C0 H5 0.931 . S
C1 C0 1.351 . S
C1 N2 1.373 . S
C1 H29 0.930 . S
N2 C1 1.373 . S
N2 C4 1.340 . S
N3 C0 1.368 . S
N3 C4 1.321 . S
N3 Co6 2.135 . S
C4 N2 1.340 . S
C4 N3 1.321 . S
C4 H28 0.930 . S
H5 C0 0.931 . S
Co6 N3 2.135 . S
Co6 N9 2.121 . S
Co6 O14 2.055 . S
Co6 O17 2.039 . S
Co6 N20 2.140 . S
C7 O8 1.227 . S
C7 O17 1.265 . S
O8 C7 1.227 . S
N9 Co6 2.121 . S
N9 C11 1.375 . S
N9 C12 1.313 . S
C10 C11 1.338 . S
C10 N13 1.377 . S
C10 H30 0.930 . S
C11 N9 1.375 . S
C11 C10 1.338 . S
C11 H15 0.931 . S
C12 N9 1.313 . S
C12 N13 1.344 . S
C12 H16 0.930 . S
N13 C10 1.377 . S
N13 C12 1.344 . S
O14 Co6 2.055 . S
O14 C18 1.253 . S
H15 C11 0.931 . S
H16 C12 0.930 . S
O17 Co6 2.039 . S
O17 C7 1.265 . S
C18 O14 1.253 . S
C18 O19 1.227 . S
O19 C18 1.227 . S
N20 Co6 2.140 . S
N20 C23 1.346 . S
N20 C24 1.345 . S
C21 C22 1.387 . S
C21 C25 1.391 . S
C22 C21 1.387 . S
C22 C23 1.369 . S
C22 H31 0.929 . S
C23 N20 1.346 . S
C23 C22 1.369 . S
C23 H26 0.928 . S
C24 N20 1.345 . S
C24 C25 1.371 . S
C24 H27 0.931 . S
C25 C21 1.391 . S
C25 C24 1.371 . S
C25 H32 0.930 . S
H26 C23 0.928 . S
H27 C24 0.931 . S
H28 C4 0.930 . S
H29 C1 0.930 . S
H30 C10 0.930 . S
H31 C22 0.929 . S
H32 C25 0.930 . S
C33 C34 1.351 . S
C33 N36 1.368 . S
C33 H38 0.931 . S
C34 C33 1.351 . S
C34 N35 1.373 . S
C34 H62 0.930 . S
N35 C34 1.373 . S
N35 C37 1.340 . S
N36 C33 1.368 . S
N36 C37 1.321 . S
N36 Co39 2.135 . S
C37 N35 1.340 . S
C37 N36 1.321 . S
C37 H61 0.930 . S
H38 C33 0.931 . S
Co39 N36 2.135 . S
Co39 N42 2.121 . S
Co39 O47 2.055 . S
Co39 O50 2.039 . S
Co39 N53 2.140 . S
C40 O41 1.227 . S
C40 O50 1.265 . S
O41 C40 1.227 . S
N42 Co39 2.121 . S
N42 C44 1.375 . S
N42 C45 1.313 . S
C43 C44 1.338 . S
C43 N46 1.377 . S
C43 H63 0.930 . S
C44 N42 1.375 . S
C44 C43 1.338 . S
C44 H48 0.931 . S
C45 N42 1.313 . S
C45 N46 1.344 . S
C45 H49 0.930 . S
N46 C43 1.377 . S
N46 C45 1.344 . S
O47 Co39 2.055 . S
O47 C51 1.253 . S
H48 C44 0.931 . S
H49 C45 0.930 . S
O50 Co39 2.039 . S
O50 C40 1.265 . S
C51 O47 1.253 . S
C51 O52 1.227 . S
O52 C51 1.227 . S
N53 Co39 2.140 . S
N53 C56 1.346 . S
N53 C57 1.345 . S
C54 C55 1.387 . S
C54 C58 1.391 . S
C55 C54 1.387 . S
C55 C56 1.369 . S
C55 H64 0.929 . S
C56 N53 1.346 . S
C56 C55 1.369 . S
C56 H59 0.928 . S
C57 N53 1.345 . S
C57 C58 1.371 . S
C57 H60 0.931 . S
C58 C54 1.391 . S
C58 C57 1.371 . S
C58 H65 0.930 . S
H59 C56 0.928 . S
H60 C57 0.931 . S
H61 C37 0.930 . S
H62 C34 0.930 . S
H63 C43 0.930 . S
H64 C55 0.929 . S
H65 C58 0.930 . S
C66 C67 1.351 . S
C66 N69 1.368 . S
C66 H71 0.931 . S
C67 C66 1.351 . S
C67 N68 1.373 1_556 S
C67 H95 0.930 . S
N68 C67 1.373 1_554 S
N68 C70 1.335 1_554 S
N69 C66 1.368 . S
N69 C70 1.333 . S
N69 Co72 2.135 1_655 S
C70 N68 1.335 1_556 S
C70 N69 1.333 . S
C70 H94 0.924 1_556 S
H71 C66 0.931 . S
Co72 N69 2.135 1_455 S
Co72 N75 2.121 . S
Co72 O80 2.055 1_455 S
Co72 O83 2.039 . S
Co72 N86 2.140 . S
C73 O74 1.227 . S
C73 O83 1.265 . S
O74 C73 1.227 . S
N75 Co72 2.121 . S
N75 C77 1.375 . S
N75 C78 1.313 . S
C76 C77 1.338 . S
C76 N79 1.377 . S
C76 H96 0.930 . S
C77 N75 1.375 . S
C77 C76 1.338 . S
C77 H81 0.931 . S
C78 N75 1.313 . S
C78 N79 1.344 . S
C78 H82 0.930 . S
N79 C76 1.377 . S
N79 C78 1.344 . S
O80 Co72 2.055 1_655 S
O80 C84 1.253 . S
H81 C77 0.931 . S
H82 C78 0.930 . S
O83 Co72 2.039 . S
O83 C73 1.265 . S
C84 O80 1.253 . S
C84 O85 1.227 . S
O85 C84 1.227 . S
N86 Co72 2.140 . S
N86 C89 1.346 . S
N86 C90 1.345 . S
C87 C88 1.387 . S
C87 C91 1.391 . S
C88 C87 1.387 . S
C88 C89 1.369 . S
C88 H97 0.929 . S
C89 N86 1.346 . S
C89 C88 1.369 . S
C89 H92 0.932 . S
C90 N86 1.345 . S
C90 C91 1.371 . S
C90 H93 0.931 . S
C91 C87 1.391 . S
C91 C90 1.371 . S
C91 H98 0.930 . S
H92 C89 0.932 . S
H93 C90 0.931 . S
H94 C70 0.924 1_554 S
H95 C67 0.930 . S
H96 C76 0.930 . S
H97 C88 0.929 . S
H98 C91 0.930 . S
C99 C100 1.351 . S
C99 N102 1.368 . S
C99 H104 0.931 . S
C100 C99 1.351 . S
C100 N101 1.373 . S
C100 H128 0.930 . S
N101 C100 1.373 . S
N101 C103 1.340 . S
N102 C99 1.368 . S
N102 C103 1.321 . S
N102 Co105 2.135 . S
C103 N101 1.340 . S
C103 N102 1.321 . S
C103 H127 0.930 . S
H104 C99 0.931 . S
Co105 N102 2.135 . S
Co105 N108 2.121 . S
Co105 O113 2.055 . S
Co105 O116 2.039 . S
Co105 N119 2.140 . S
C106 O107 1.227 . S
C106 O116 1.265 . S
O107 C106 1.227 . S
N108 Co105 2.121 . S
N108 C110 1.375 . S
N108 C111 1.313 . S
C109 C110 1.338 . S
C109 N112 1.377 1_554 S
C109 H129 0.930 . S
C110 N108 1.375 . S
C110 C109 1.338 . S
C110 H114 0.931 . S
C111 N108 1.313 . S
C111 N112 1.344 1_554 S
C111 H115 0.930 1_554 S
N112 C109 1.377 1_556 S
N112 C111 1.344 1_556 S
O113 Co105 2.055 . S
O113 C117 1.253 . S
H114 C110 0.931 . S
H115 C111 0.930 1_556 S
O116 Co105 2.039 . S
O116 C106 1.265 . S
C117 O113 1.253 . S
C117 O118 1.227 . S
O118 C117 1.227 . S
N119 Co105 2.140 . S
N119 C122 1.346 . S
N119 C123 1.345 . S
C120 C121 1.387 . S
C120 C124 1.391 . S
C121 C120 1.387 . S
C121 C122 1.369 . S
C121 H130 0.929 . S
C122 N119 1.346 . S
C122 C121 1.369 . S
C122 H125 0.928 . S
C123 N119 1.345 . S
C123 C124 1.371 . S
C123 H126 0.931 . S
C124 C120 1.391 . S
C124 C123 1.371 . S
C124 H131 0.930 . S
H125 C122 0.928 . S
H126 C123 0.931 . S
H127 C103 0.930 . S
H128 C100 0.930 . S
H129 C109 0.930 . S
H130 C121 0.929 . S
H131 C124 0.930 . S
C132 C133 1.351 . S
C132 N135 1.368 . S
C132 H137 0.931 . S
C133 C132 1.351 . S
C133 N134 1.373 . S
C133 H161 0.930 . S
N134 C133 1.373 . S
N134 C136 1.340 . S
N135 C132 1.368 . S
N135 C136 1.321 . S
N135 Co138 2.135 . S
C136 N134 1.340 . S
C136 N135 1.321 . S
C136 H160 0.930 . S
H137 C132 0.931 . S
Co138 N135 2.135 . S
Co138 N141 2.121 . S
Co138 O146 2.055 . S
Co138 O149 2.039 . S
Co138 N152 2.140 . S
C139 O140 1.227 . S
C139 O149 1.265 . S
O140 C139 1.227 . S
N141 Co138 2.121 . S
N141 C143 1.375 . S
N141 C144 1.313 . S
C142 C143 1.338 . S
C142 N145 1.377 . S
C142 H162 0.930 . S
C143 N141 1.375 . S
C143 C142 1.338 . S
C143 H147 0.931 . S
C144 N141 1.313 . S
C144 N145 1.344 . S
C144 H148 0.930 . S
N145 C142 1.377 . S
N145 C144 1.344 . S
O146 Co138 2.055 . S
O146 C150 1.253 . S
H147 C143 0.931 . S
H148 C144 0.930 . S
O149 Co138 2.039 . S
O149 C139 1.265 . S
C150 O146 1.253 . S
C150 O151 1.227 . S
O151 C150 1.227 . S
N152 Co138 2.140 . S
N152 C155 1.346 . S
N152 C156 1.345 . S
C153 C154 1.387 . S
C153 C157 1.391 . S
C154 C153 1.387 . S
C154 C155 1.369 . S
C154 H163 0.929 . S
C155 N152 1.346 . S
C155 C154 1.369 . S
C155 H158 0.928 . S
C156 N152 1.345 . S
C156 C157 1.371 . S
C156 H159 0.931 . S
C157 C153 1.391 . S
C157 C156 1.371 . S
C157 H164 0.930 . S
H158 C155 0.928 . S
H159 C156 0.931 . S
H160 C136 0.930 . S
H161 C133 0.930 . S
H162 C142 0.930 . S
H163 C154 0.929 . S
H164 C157 0.930 . S
C165 C166 1.351 . S
C165 N168 1.368 . S
C165 H170 0.931 . S
C166 C165 1.351 . S
C166 N167 1.373 . S
C166 H194 0.930 . S
N167 C166 1.373 . S
N167 C169 1.340 . S
N168 C165 1.368 . S
N168 C169 1.321 . S
N168 Co171 2.135 . S
C169 N167 1.340 . S
C169 N168 1.321 . S
C169 H193 0.930 . S
H170 C165 0.931 . S
Co171 N168 2.135 . S
Co171 N174 2.121 . S
Co171 O179 2.055 . S
Co171 O182 2.039 . S
Co171 N185 2.140 . S
C172 O173 1.227 . S
C172 O182 1.265 . S
O173 C172 1.227 . S
N174 Co171 2.121 . S
N174 C176 1.375 . S
N174 C177 1.313 . S
C175 C176 1.338 . S
C175 N178 1.377 1_556 S
C175 H195 0.930 . S
C176 N174 1.375 . S
C176 C175 1.338 . S
C176 H180 0.931 . S
C177 N174 1.313 . S
C177 N178 1.344 1_556 S
C177 H181 0.930 1_556 S
N178 C175 1.377 1_554 S
N178 C177 1.344 1_554 S
O179 Co171 2.055 . S
O179 C183 1.253 . S
H180 C176 0.931 . S
H181 C177 0.930 1_554 S
O182 Co171 2.039 . S
O182 C172 1.265 . S
C183 O179 1.253 . S
C183 O184 1.227 . S
O184 C183 1.227 . S
N185 Co171 2.140 . S
N185 C188 1.346 . S
N185 C189 1.345 . S
C186 C187 1.387 . S
C186 C190 1.391 . S
C187 C186 1.387 . S
C187 C188 1.369 . S
C187 H196 0.929 . S
C188 N185 1.346 . S
C188 C187 1.369 . S
C188 H191 0.928 . S
C189 N185 1.345 . S
C189 C190 1.371 . S
C189 H192 0.931 . S
C190 C186 1.391 . S
C190 C189 1.371 . S
C190 H197 0.930 . S
H191 C188 0.928 . S
H192 C189 0.931 . S
H193 C169 0.930 . S
H194 C166 0.930 . S
H195 C175 0.930 . S
H196 C187 0.929 . S
H197 C190 0.930 . S
C198 C199 1.351 . S
C198 N201 1.368 . S
C198 H203 0.931 . S
C199 C198 1.351 . S
C199 N200 1.373 1_554 S
C199 H227 0.930 . S
N200 C199 1.373 1_556 S
N200 C202 1.335 1_556 S
N201 C198 1.368 . S
N201 C202 1.333 . S
N201 Co204 2.135 1_655 S
C202 N200 1.335 1_554 S
C202 N201 1.333 . S
C202 H226 0.924 1_554 S
H203 C198 0.931 . S
Co204 N201 2.135 1_455 S
Co204 N207 2.121 . S
Co204 O212 2.055 1_455 S
Co204 O215 2.039 . S
Co204 N218 2.140 . S
C205 O206 1.227 . S
C205 O215 1.265 . S
O206 C205 1.227 . S
N207 Co204 2.121 . S
N207 C209 1.375 . S
N207 C210 1.313 . S
C208 C209 1.338 . S
C208 N211 1.377 . S
C208 H228 0.930 . S
C209 N207 1.375 . S
C209 C208 1.338 . S
C209 H213 0.931 . S
C210 N207 1.313 . S
C210 N211 1.344 . S
C210 H214 0.930 . S
N211 C208 1.377 . S
N211 C210 1.344 . S
O212 Co204 2.055 1_655 S
O212 C216 1.253 . S
H213 C209 0.931 . S
H214 C210 0.930 . S
O215 Co204 2.039 . S
O215 C205 1.265 . S
C216 O212 1.253 . S
C216 O217 1.227 . S
O217 C216 1.227 . S
N218 Co204 2.140 . S
N218 C221 1.346 . S
N218 C222 1.345 . S
C219 C220 1.387 . S
C219 C223 1.391 . S
C220 C219 1.387 . S
C220 C221 1.369 . S
C220 H229 0.929 . S
C221 N218 1.346 . S
C221 C220 1.369 . S
C221 H224 0.932 . S
C222 N218 1.345 . S
C222 C223 1.371 . S
C222 H225 0.931 . S
C223 C219 1.391 . S
C223 C222 1.371 . S
C223 H230 0.930 . S
H224 C221 0.932 . S
H225 C222 0.931 . S
H226 C202 0.924 1_556 S
H227 C199 0.930 . S
H228 C208 0.930 . S
H229 C220 0.929 . S
H230 C223 0.930 . S
C231 C232 1.351 . S
C231 N234 1.368 . S
C231 H236 0.931 . S
C232 C231 1.351 . S
C232 N233 1.373 . S
C232 H260 0.930 . S
N233 C232 1.373 . S
N233 C235 1.340 . S
N234 C231 1.368 . S
N234 C235 1.321 . S
N234 Co237 2.135 . S
C235 N233 1.340 . S
C235 N234 1.321 . S
C235 H259 0.930 . S
H236 C231 0.931 . S
Co237 N234 2.135 . S
Co237 N240 2.121 . S
Co237 O245 2.055 . S
Co237 O248 2.039 . S
Co237 N251 2.140 . S
C238 O239 1.227 . S
C238 O248 1.265 . S
O239 C238 1.227 . S
N240 Co237 2.121 . S
N240 C242 1.375 . S
N240 C243 1.313 . S
C241 C242 1.338 . S
C241 N244 1.377 . S
C241 H261 0.930 . S
C242 N240 1.375 . S
C242 C241 1.338 . S
C242 H246 0.931 . S
C243 N240 1.313 . S
C243 N244 1.344 . S
C243 H247 0.930 . S
N244 C241 1.377 . S
N244 C243 1.344 . S
O245 Co237 2.055 . S
O245 C249 1.253 . S
H246 C242 0.931 . S
H247 C243 0.930 . S
O248 Co237 2.039 . S
O248 C238 1.265 . S
C249 O245 1.253 . S
C249 O250 1.227 . S
O250 C249 1.227 . S
N251 Co237 2.140 . S
N251 C254 1.346 . S
N251 C255 1.345 . S
C252 C253 1.387 . S
C252 C256 1.391 . S
C253 C252 1.387 . S
C253 C254 1.369 . S
C253 H262 0.929 . S
C254 N251 1.346 . S
C254 C253 1.369 . S
C254 H257 0.928 . S
C255 N251 1.345 . S
C255 C256 1.371 . S
C255 H258 0.931 . S
C256 C252 1.391 . S
C256 C255 1.371 . S
C256 H263 0.930 . S
H257 C254 0.928 . S
H258 C255 0.931 . S
H259 C235 0.930 . S
H260 C232 0.930 . S
H261 C241 0.930 . S
H262 C253 0.929 . S
H263 C256 0.930 . S
C264 C265 1.351 . S
C264 N267 1.368 . S
C264 H269 0.931 . S
C265 C264 1.351 . S
C265 N266 1.373 . S
C265 H293 0.930 . S
N266 C265 1.373 . S
N266 C268 1.340 . S
N267 C264 1.368 . S
N267 C268 1.321 . S
N267 Co270 2.135 . S
C268 N266 1.340 . S
C268 N267 1.321 . S
C268 H292 0.930 . S
H269 C264 0.931 . S
Co270 N267 2.135 . S
Co270 N273 2.121 . S
Co270 O278 2.055 . S
Co270 O281 2.039 . S
Co270 N284 2.140 . S
C271 O272 1.227 . S
C271 O281 1.265 . S
O272 C271 1.227 . S
N273 Co270 2.121 . S
N273 C275 1.375 . S
N273 C276 1.313 . S
C274 C275 1.338 . S
C274 N277 1.377 . S
C274 H294 0.930 . S
C275 N273 1.375 . S
C275 C274 1.338 . S
C275 H279 0.931 . S
C276 N273 1.313 . S
C276 N277 1.344 . S
C276 H280 0.930 . S
N277 C274 1.377 . S
N277 C276 1.344 . S
O278 Co270 2.055 . S
O278 C282 1.253 . S
H279 C275 0.931 . S
H280 C276 0.930 . S
O281 Co270 2.039 . S
O281 C271 1.265 . S
C282 O278 1.253 . S
C282 O283 1.227 . S
O283 C282 1.227 . S
N284 Co270 2.140 . S
N284 C287 1.346 . S
N284 C288 1.345 . S
C285 C286 1.387 . S
C285 C289 1.391 . S
C286 C285 1.387 . S
C286 C287 1.369 . S
C286 H295 0.929 . S
C287 N284 1.346 . S
C287 C286 1.369 . S
C287 H290 0.928 . S
C288 N284 1.345 . S
C288 C289 1.371 . S
C288 H291 0.931 . S
C289 C285 1.391 . S
C289 C288 1.371 . S
C289 H296 0.930 . S
H290 C287 0.928 . S
H291 C288 0.931 . S
H292 C268 0.930 . S
H293 C265 0.930 . S
H294 C274 0.930 . S
H295 C286 0.929 . S
H296 C289 0.930 . S
C297 C298 1.351 . S
C297 N300 1.368 . S
C297 H302 0.931 . S
C298 C297 1.351 . S
C298 N299 1.373 . S
C298 H326 0.930 . S
N299 C298 1.373 . S
N299 C301 1.340 . S
N300 C297 1.368 . S
N300 C301 1.321 . S
N300 Co303 2.135 . S
C301 N299 1.340 . S
C301 N300 1.321 . S
C301 H325 0.930 . S
H302 C297 0.931 . S
Co303 N300 2.135 . S
Co303 N306 2.121 . S
Co303 O311 2.055 . S
Co303 O314 2.039 . S
Co303 N317 2.140 . S
C304 O305 1.227 . S
C304 O314 1.265 . S
O305 C304 1.227 . S
N306 Co303 2.121 . S
N306 C308 1.375 . S
N306 C309 1.313 . S
C307 C308 1.338 . S
C307 N310 1.377 1_556 S
C307 H327 0.930 . S
C308 N306 1.375 . S
C308 C307 1.338 . S
C308 H312 0.931 . S
C309 N306 1.313 . S
C309 N310 1.344 1_556 S
C309 H313 0.930 1_556 S
N310 C307 1.377 1_554 S
N310 C309 1.344 1_554 S
O311 Co303 2.055 . S
O311 C315 1.253 . S
H312 C308 0.931 . S
H313 C309 0.930 1_554 S
O314 Co303 2.039 . S
O314 C304 1.265 . S
C315 O311 1.253 . S
C315 O316 1.227 . S
O316 C315 1.227 . S
N317 Co303 2.140 . S
N317 C320 1.346 . S
N317 C321 1.345 . S
C318 C319 1.387 . S
C318 C322 1.391 . S
C319 C318 1.387 . S
C319 C320 1.369 . S
C319 H328 0.929 . S
C320 N317 1.346 . S
C320 C319 1.369 . S
C320 H323 0.928 . S
C321 N317 1.345 . S
C321 C322 1.371 . S
C321 H324 0.931 . S
C322 C318 1.391 . S
C322 C321 1.371 . S
C322 H329 0.930 . S
H323 C320 0.928 . S
H324 C321 0.931 . S
H325 C301 0.930 . S
H326 C298 0.930 . S
H327 C307 0.930 . S
H328 C319 0.929 . S
H329 C322 0.930 . S
C330 C331 1.351 . S
C330 N333 1.368 . S
C330 H335 0.931 . S
C331 C330 1.351 . S
C331 N332 1.373 . S
C331 H359 0.930 . S
N332 C331 1.373 . S
N332 C334 1.340 . S
N333 C330 1.368 . S
N333 C334 1.321 . S
N333 Co336 2.135 . S
C334 N332 1.340 . S
C334 N333 1.321 . S
C334 H358 0.930 . S
H335 C330 0.931 . S
Co336 N333 2.135 . S
Co336 N339 2.121 . S
Co336 O344 2.055 . S
Co336 O347 2.039 . S
Co336 N350 2.140 . S
C337 O338 1.227 . S
C337 O347 1.265 . S
O338 C337 1.227 . S
N339 Co336 2.121 . S
N339 C341 1.375 . S
N339 C342 1.313 . S
C340 C341 1.338 . S
C340 N343 1.377 1_554 S
C340 H360 0.930 . S
C341 N339 1.375 . S
C341 C340 1.338 . S
C341 H345 0.931 . S
C342 N339 1.313 . S
C342 N343 1.344 1_554 S
C342 H346 0.930 1_554 S
N343 C340 1.377 1_556 S
N343 C342 1.344 1_556 S
O344 Co336 2.055 . S
O344 C348 1.253 . S
H345 C341 0.931 . S
H346 C342 0.930 1_556 S
O347 Co336 2.039 . S
O347 C337 1.265 . S
C348 O344 1.253 . S
C348 O349 1.227 . S
O349 C348 1.227 . S
N350 Co336 2.140 . S
N350 C353 1.346 . S
N350 C354 1.345 . S
C351 C352 1.387 . S
C351 C355 1.391 . S
C352 C351 1.387 . S
C352 C353 1.369 . S
C352 H361 0.929 . S
C353 N350 1.346 . S
C353 C352 1.369 . S
C353 H356 0.928 . S
C354 N350 1.345 . S
C354 C355 1.371 . S
C354 H357 0.931 . S
C355 C351 1.391 . S
C355 C354 1.371 . S
C355 H362 0.930 . S
H356 C353 0.928 . S
H357 C354 0.931 . S
H358 C334 0.930 . S
H359 C331 0.930 . S
H360 C340 0.930 . S
H361 C352 0.929 . S
H362 C355 0.930 . S
C363 C364 1.351 . S
C363 N366 1.368 . S
C363 H368 0.931 . S
C364 C363 1.351 . S
C364 N365 1.373 . S
C364 H392 0.930 . S
N365 C364 1.373 . S
N365 C367 1.340 . S
N366 C363 1.368 . S
N366 C367 1.321 . S
N366 Co369 2.135 . S
C367 N365 1.340 . S
C367 N366 1.321 . S
C367 H391 0.930 . S
H368 C363 0.931 . S
Co369 N366 2.135 . S
Co369 N372 2.121 . S
Co369 O377 2.055 . S
Co369 O380 2.039 . S
Co369 N383 2.140 . S
C370 O371 1.227 . S
C370 O380 1.265 . S
O371 C370 1.227 . S
N372 Co369 2.121 . S
N372 C374 1.375 . S
N372 C375 1.313 . S
C373 C374 1.338 . S
C373 N376 1.377 . S
C373 H393 0.930 . S
C374 N372 1.375 . S
C374 C373 1.338 . S
C374 H378 0.931 . S
C375 N372 1.313 . S
C375 N376 1.344 . S
C375 H379 0.930 . S
N376 C373 1.377 . S
N376 C375 1.344 . S
O377 Co369 2.055 . S
O377 C381 1.253 . S
H378 C374 0.931 . S
H379 C375 0.930 . S
O380 Co369 2.039 . S
O380 C370 1.265 . S
C381 O377 1.253 . S
C381 O382 1.227 . S
O382 C381 1.227 . S
N383 Co369 2.140 . S
N383 C386 1.346 . S
N383 C387 1.345 . S
C384 C385 1.387 . S
C384 C388 1.391 . S
C385 C384 1.387 . S
C385 C386 1.369 . S
C385 H394 0.929 . S
C386 N383 1.346 . S
C386 C385 1.369 . S
C386 H389 0.928 . S
C387 N383 1.345 . S
C387 C388 1.371 . S
C387 H390 0.931 . S
C388 C384 1.391 . S
C388 C387 1.371 . S
C388 H395 0.930 . S
H389 C386 0.928 . S
H390 C387 0.931 . S
H391 C367 0.930 . S
H392 C364 0.930 . S
H393 C373 0.930 . S
H394 C385 0.929 . S
H395 C388 0.930 . S
C396 C397 1.351 . S
C396 N399 1.368 . S
C396 H401 0.931 . S
C397 C396 1.351 . S
C397 N398 1.373 1_556 S
C397 H425 0.930 . S
N398 C397 1.373 1_554 S
N398 C400 1.336 1_554 S
N399 C396 1.368 . S
N399 C400 1.333 . S
N399 Co402 2.135 . S
C400 N398 1.336 1_556 S
C400 N399 1.333 . S
C400 H424 0.924 1_556 S
H401 C396 0.931 . S
Co402 N399 2.135 . S
Co402 N405 2.121 1_455 S
Co402 O410 2.055 . S
Co402 O413 2.039 1_455 S
Co402 N416 2.140 . S
C403 O404 1.227 . S
C403 O413 1.265 . S
O404 C403 1.227 . S
N405 Co402 2.121 1_655 S
N405 C407 1.375 . S
N405 C408 1.313 . S
C406 C407 1.338 . S
C406 N409 1.377 . S
C406 H426 0.930 . S
C407 N405 1.375 . S
C407 C406 1.338 . S
C407 H411 0.931 . S
C408 N405 1.313 . S
C408 N409 1.344 . S
C408 H412 0.930 . S
N409 C406 1.377 . S
N409 C408 1.344 . S
O410 Co402 2.055 . S
O410 C414 1.253 . S
H411 C407 0.931 . S
H412 C408 0.930 . S
O413 Co402 2.039 1_655 S
O413 C403 1.265 . S
C414 O410 1.253 . S
C414 O415 1.227 . S
O415 C414 1.227 . S
N416 Co402 2.140 . S
N416 C419 1.346 . S
N416 C420 1.345 . S
C417 C418 1.387 . S
C417 C421 1.391 . S
C418 C417 1.387 . S
C418 C419 1.369 . S
C418 H427 0.928 . S
C419 N416 1.346 . S
C419 C418 1.369 . S
C419 H422 0.928 . S
C420 N416 1.345 . S
C420 C421 1.371 . S
C420 H423 0.931 . S
C421 C417 1.391 . S
C421 C420 1.371 . S
C421 H428 0.932 . S
H422 C419 0.928 . S
H423 C420 0.931 . S
H424 C400 0.924 1_554 S
H425 C397 0.930 . S
H426 C406 0.930 . S
H427 C418 0.928 . S
H428 C421 0.932 . S
C429 C430 1.351 . S
C429 N432 1.368 . S
C429 H434 0.931 . S
C430 C429 1.351 . S
C430 N431 1.373 . S
C430 H458 0.930 . S
N431 C430 1.373 . S
N431 C433 1.340 . S
N432 C429 1.368 . S
N432 C433 1.321 . S
N432 Co435 2.135 . S
C433 N431 1.340 . S
C433 N432 1.321 . S
C433 H457 0.930 . S
H434 C429 0.931 . S
Co435 N432 2.135 . S
Co435 N438 2.121 . S
Co435 O443 2.055 . S
Co435 O446 2.039 . S
Co435 N449 2.140 . S
C436 O437 1.227 . S
C436 O446 1.265 . S
O437 C436 1.227 . S
N438 Co435 2.121 . S
N438 C440 1.375 . S
N438 C441 1.313 . S
C439 C440 1.338 . S
C439 N442 1.377 . S
C439 H459 0.930 . S
C440 N438 1.375 . S
C440 C439 1.338 . S
C440 H444 0.931 . S
C441 N438 1.313 . S
C441 N442 1.344 . S
C441 H445 0.930 . S
N442 C439 1.377 . S
N442 C441 1.344 . S
O443 Co435 2.055 . S
O443 C447 1.253 . S
H444 C440 0.931 . S
H445 C441 0.930 . S
O446 Co435 2.039 . S
O446 C436 1.265 . S
C447 O443 1.253 . S
C447 O448 1.227 . S
O448 C447 1.227 . S
N449 Co435 2.140 . S
N449 C452 1.346 . S
N449 C453 1.345 . S
C450 C451 1.387 . S
C450 C454 1.391 . S
C451 C450 1.387 . S
C451 C452 1.369 . S
C451 H460 0.929 . S
C452 N449 1.346 . S
C452 C451 1.369 . S
C452 H455 0.928 . S
C453 N449 1.345 . S
C453 C454 1.371 . S
C453 H456 0.931 . S
C454 C450 1.391 . S
C454 C453 1.371 . S
C454 H461 0.930 . S
H455 C452 0.928 . S
H456 C453 0.931 . S
H457 C433 0.930 . S
H458 C430 0.930 . S
H459 C439 0.930 . S
H460 C451 0.929 . S
H461 C454 0.930 . S
C462 C463 1.351 . S
C462 N465 1.368 . S
C462 H467 0.931 . S
C463 C462 1.351 . S
C463 N464 1.373 1_554 S
C463 H491 0.930 . S
N464 C463 1.373 1_556 S
N464 C466 1.336 1_556 S
N465 C462 1.368 . S
N465 C466 1.333 . S
N465 Co468 2.135 . S
C466 N464 1.336 1_554 S
C466 N465 1.333 . S
C466 H490 0.924 1_554 S
H467 C462 0.931 . S
Co468 N465 2.135 . S
Co468 N471 2.121 1_455 S
Co468 O476 2.055 . S
Co468 O479 2.039 1_455 S
Co468 N482 2.140 . S
C469 O470 1.227 . S
C469 O479 1.265 . S
O470 C469 1.227 . S
N471 Co468 2.121 1_655 S
N471 C473 1.375 . S
N471 C474 1.313 . S
C472 C473 1.338 . S
C472 N475 1.377 . S
C472 H492 0.930 . S
C473 N471 1.375 . S
C473 C472 1.338 . S
C473 H477 0.931 . S
C474 N471 1.313 . S
C474 N475 1.344 . S
C474 H478 0.930 . S
N475 C472 1.377 . S
N475 C474 1.344 . S
O476 Co468 2.055 . S
O476 C480 1.253 . S
H477 C473 0.931 . S
H478 C474 0.930 . S
O479 Co468 2.039 1_655 S
O479 C469 1.265 . S
C480 O476 1.253 . S
C480 O481 1.227 . S
O481 C480 1.227 . S
N482 Co468 2.140 . S
N482 C485 1.346 . S
N482 C486 1.345 . S
C483 C484 1.387 . S
C483 C487 1.391 . S
C484 C483 1.387 . S
C484 C485 1.369 . S
C484 H493 0.928 . S
C485 N482 1.346 . S
C485 C484 1.369 . S
C485 H488 0.928 . S
C486 N482 1.345 . S
C486 C487 1.371 . S
C486 H489 0.931 . S
C487 C483 1.391 . S
C487 C486 1.371 . S
C487 H494 0.932 . S
H488 C485 0.928 . S
H489 C486 0.931 . S
H490 C466 0.924 1_556 S
H491 C463 0.930 . S
H492 C472 0.930 . S
H493 C484 0.928 . S
H494 C487 0.932 . S
C495 C496 1.351 . S
C495 N498 1.368 . S
C495 H500 0.931 . S
C496 C495 1.351 . S
C496 N497 1.373 . S
C496 H524 0.930 . S
N497 C496 1.373 . S
N497 C499 1.340 . S
N498 C495 1.368 . S
N498 C499 1.321 . S
N498 Co501 2.135 . S
C499 N497 1.340 . S
C499 N498 1.321 . S
C499 H523 0.930 . S
H500 C495 0.931 . S
Co501 N498 2.135 . S
Co501 N504 2.121 . S
Co501 O509 2.055 . S
Co501 O512 2.039 . S
Co501 N515 2.140 . S
C502 O503 1.227 . S
C502 O512 1.265 . S
O503 C502 1.227 . S
N504 Co501 2.121 . S
N504 C506 1.375 . S
N504 C507 1.313 . S
C505 C506 1.338 . S
C505 N508 1.377 . S
C505 H525 0.930 . S
C506 N504 1.375 . S
C506 C505 1.338 . S
C506 H510 0.931 . S
C507 N504 1.313 . S
C507 N508 1.344 . S
C507 H511 0.930 . S
N508 C505 1.377 . S
N508 C507 1.344 . S
O509 Co501 2.055 . S
O509 C513 1.253 . S
H510 C506 0.931 . S
H511 C507 0.930 . S
O512 Co501 2.039 . S
O512 C502 1.265 . S
C513 O509 1.253 . S
C513 O514 1.227 . S
O514 C513 1.227 . S
N515 Co501 2.140 . S
N515 C518 1.346 . S
N515 C519 1.345 . S
C516 C517 1.387 . S
C516 C520 1.391 . S
C517 C516 1.387 . S
C517 C518 1.369 . S
C517 H526 0.929 . S
C518 N515 1.346 . S
C518 C517 1.369 . S
C518 H521 0.928 . S
C519 N515 1.345 . S
C519 C520 1.371 . S
C519 H522 0.931 . S
C520 C516 1.391 . S
C520 C519 1.371 . S
C520 H527 0.930 . S
H521 C518 0.928 . S
H522 C519 0.931 . S
H523 C499 0.930 . S
H524 C496 0.930 . S
H525 C505 0.930 . S
H526 C517 0.929 . S
H527 C520 0.930 . S
H528 C534 0.930 . S
H529 C537 0.930 . S
H530 C538 0.930 . S
H531 C539 0.930 . S
H532 C542 0.930 . S
H533 C543 0.930 . S
C534 H528 0.930 . S
C534 C535 1.355 . S
C534 C536 1.415 . S
C535 C534 1.355 . S
C535 C537 1.419 . S
C536 C534 1.415 . S
C536 C541 1.425 1_545 S
C536 C543 1.409 . S
C537 H529 0.930 . S
C537 C535 1.419 . S
C537 C538 1.362 1_545 S
C538 H530 0.930 . S
C538 C537 1.362 1_565 S
C538 C541 1.409 . S
C539 H531 0.930 . S
C539 C540 1.355 . S
C539 C541 1.415 . S
C540 C539 1.355 . S
C540 C542 1.419 . S
C541 C536 1.425 1_565 S
C541 C538 1.409 . S
C541 C539 1.415 . S
C542 H532 0.930 . S
C542 C540 1.419 . S
C542 C543 1.362 1_565 S
C543 H533 0.930 . S
C543 C536 1.409 . S
C543 C542 1.362 1_545 S
H544 C550 0.930 . S
H545 C553 0.930 . S
H546 C554 0.930 . S
H547 C555 0.930 . S
H548 C558 0.930 . S
H549 C559 0.930 . S
C550 H544 0.930 . S
C550 C551 1.355 . S
C550 C552 1.415 . S
C551 C550 1.355 . S
C551 C553 1.419 . S
C552 C550 1.415 . S
C552 C557 1.425 . S
C552 C559 1.409 . S
C553 H545 0.930 . S
C553 C551 1.419 . S
C553 C554 1.362 . S
C554 H546 0.930 . S
C554 C553 1.362 . S
C554 C557 1.409 . S
C555 H547 0.930 . S
C555 C556 1.355 . S
C555 C557 1.415 . S
C556 C555 1.355 . S
C556 C558 1.419 . S
C557 C552 1.425 . S
C557 C554 1.409 . S
C557 C555 1.415 . S
C558 H548 0.930 . S
C558 C556 1.419 . S
C558 C559 1.362 . S
C559 H549 0.930 . S
C559 C552 1.409 . S
C559 C558 1.362 . S
H560 C566 0.930 . S
H561 C569 0.930 . S
H562 C570 0.930 1_556 S
H563 C571 0.930 . S
H564 C574 0.930 . S
H565 C575 0.930 1_554 S
C566 H560 0.930 . S
C566 C567 1.355 1_655 S
C566 C568 1.415 . S
C567 C566 1.355 1_455 S
C567 C569 1.419 . S
C568 C566 1.415 . S
C568 C573 1.425 1_644 S
C568 C575 1.409 1_544 S
C569 H561 0.930 . S
C569 C567 1.419 . S
C569 C570 1.362 . S
C570 H562 0.930 1_554 S
C570 C569 1.362 . S
C570 C573 1.409 1_544 S
C571 H563 0.930 . S
C571 C572 1.355 . S
C571 C573 1.415 . S
C572 C571 1.355 . S
C572 C574 1.419 1_455 S
C573 C568 1.425 1_466 S
C573 C570 1.409 1_566 S
C573 C571 1.415 . S
C574 H564 0.930 . S
C574 C572 1.419 1_655 S
C574 C575 1.362 . S
C575 H565 0.930 1_556 S
C575 C568 1.409 1_566 S
C575 C574 1.362 . S
H576 C582 0.930 . S
H577 C585 0.930 . S
H578 C586 0.930 . S
H579 C587 0.930 . S
H580 C590 0.930 . S
H581 C591 0.930 . S
C582 H576 0.930 . S
C582 C583 1.355 . S
C582 C584 1.415 . S
C583 C582 1.355 . S
C583 C585 1.419 . S
C584 C582 1.415 . S
C584 C589 1.425 . S
C584 C591 1.409 . S
C585 H577 0.930 . S
C585 C583 1.419 . S
C585 C586 1.362 . S
C586 H578 0.930 . S
C586 C585 1.362 . S
C586 C589 1.409 . S
C587 H579 0.930 . S
C587 C588 1.355 . S
C587 C589 1.415 . S
C588 C587 1.355 . S
C588 C590 1.419 . S
C589 C584 1.425 . S
C589 C586 1.409 . S
C589 C587 1.415 . S
C590 H580 0.930 . S
C590 C588 1.419 . S
C590 C591 1.362 . S
C591 H581 0.930 . S
C591 C584 1.409 . S
C591 C590 1.362 . S
H592 C598 0.930 . S
H593 C601 0.930 . S
H594 C602 0.930 . S
H595 C603 0.930 . S
H596 C606 0.930 . S
H597 C607 0.930 . S
C598 H592 0.930 . S
C598 C599 1.355 . S
C598 C600 1.415 . S
C599 C598 1.355 . S
C599 C601 1.419 . S
C600 C598 1.415 . S
C600 C605 1.425 . S
C600 C607 1.409 . S
C601 H593 0.930 . S
C601 C599 1.419 . S
C601 C602 1.362 . S
C602 H594 0.930 . S
C602 C601 1.362 . S
C602 C605 1.409 . S
C603 H595 0.930 . S
C603 C604 1.355 . S
C603 C605 1.415 . S
C604 C603 1.355 . S
C604 C606 1.419 . S
C605 C600 1.425 . S
C605 C602 1.409 . S
C605 C603 1.415 . S
C606 H596 0.930 . S
C606 C604 1.419 . S
C606 C607 1.362 . S
C607 H597 0.930 . S
C607 C600 1.409 . S
C607 C606 1.362 . S
H608 C614 0.930 . S
H609 C617 0.930 . S
H610 C618 0.930 . S
H611 C619 0.930 . S
H612 C622 0.930 . S
H613 C623 0.930 . S
C614 H608 0.930 . S
C614 C615 1.355 . S
C614 C616 1.415 . S
C615 C614 1.355 . S
C615 C617 1.419 . S
C616 C614 1.415 . S
C616 C621 1.425 . S
C616 C623 1.409 . S
C617 H609 0.930 . S
C617 C615 1.419 . S
C617 C618 1.362 . S
C618 H610 0.930 . S
C618 C617 1.362 . S
C618 C621 1.409 . S
C619 H611 0.930 . S
C619 C620 1.355 . S
C619 C621 1.415 . S
C620 C619 1.355 . S
C620 C622 1.419 . S
C621 C616 1.425 . S
C621 C618 1.409 . S
C621 C619 1.415 . S
C622 H612 0.930 . S
C622 C620 1.419 . S
C622 C623 1.362 . S
C623 H613 0.930 . S
C623 C616 1.409 . S
C623 C622 1.362 . S
H624 C630 0.930 1_554 S
H625 C633 0.930 . S
H626 C634 0.930 . S
H627 C635 0.930 1_556 S
H628 C638 0.930 . S
H629 C639 0.930 . S
C630 H624 0.930 1_556 S
C630 C631 1.355 . S
C630 C632 1.415 1_556 S
C631 C630 1.355 . S
C631 C633 1.419 1_455 S
C632 C630 1.415 1_554 S
C632 C637 1.429 1_554 S
C632 C639 1.409 . S
C633 H625 0.930 . S
C633 C631 1.419 1_655 S
C633 C634 1.362 . S
C634 H626 0.930 . S
C634 C633 1.362 . S
C634 C637 1.407 1_655 S
C635 H627 0.930 1_554 S
C635 C636 1.355 1_655 S
C635 C637 1.414 1_654 S
C636 C635 1.355 1_455 S
C636 C638 1.419 . S
C637 C632 1.429 1_556 S
C637 C634 1.407 1_455 S
C637 C635 1.414 1_456 S
C638 H628 0.930 . S
C638 C636 1.419 . S
C638 C639 1.362 . S
C639 H629 0.930 . S
C639 C632 1.409 . S
C639 C638 1.362 . S
H640 C646 0.930 . S
H641 C649 0.930 . S
H642 C650 0.930 . S
H643 C651 0.930 . S
H644 C654 0.930 . S
H645 C655 0.930 . S
C646 H640 0.930 . S
C646 C647 1.355 . S
C646 C648 1.415 . S
C647 C646 1.355 . S
C647 C649 1.419 . S
C648 C646 1.415 . S
C648 C653 1.425 . S
C648 C655 1.409 . S
C649 H641 0.930 . S
C649 C647 1.419 . S
C649 C650 1.362 . S
C650 H642 0.930 . S
C650 C649 1.362 . S
C650 C653 1.409 . S
C651 H643 0.930 . S
C651 C652 1.355 . S
C651 C653 1.415 . S
C652 C651 1.355 . S
C652 C654 1.419 . S
C653 C648 1.425 . S
C653 C650 1.409 . S
C653 C651 1.415 . S
C654 H644 0.930 . S
C654 C652 1.419 . S
C654 C655 1.362 . S
C655 H645 0.930 . S
C655 C648 1.409 . S
C655 C654 1.362 . S
H656 C662 0.930 . S
H657 C665 0.930 . S
H658 C666 0.930 . S
H659 C667 0.930 . S
H660 C670 0.930 . S
H661 C671 0.930 . S
C662 H656 0.930 . S
C662 C663 1.355 . S
C662 C664 1.415 . S
C663 C662 1.355 . S
C663 C665 1.419 . S
C664 C662 1.415 . S
C664 C669 1.425 . S
C664 C671 1.409 . S
C665 H657 0.930 . S
C665 C663 1.419 . S
C665 C666 1.362 . S
C666 H658 0.930 . S
C666 C665 1.362 . S
C666 C669 1.409 . S
C667 H659 0.930 . S
C667 C668 1.355 . S
C667 C669 1.415 . S
C668 C667 1.355 . S
C668 C670 1.419 . S
C669 C664 1.425 . S
C669 C666 1.409 . S
C669 C667 1.415 . S
C670 H660 0.930 . S
C670 C668 1.419 . S
C670 C671 1.362 . S
C671 H661 0.930 . S
C671 C664 1.409 . S
C671 C670 1.362 . S
H672 C678 0.930 . S
H673 C681 0.930 . S
H674 C682 0.930 . S
H675 C683 0.930 . S
H676 C686 0.930 . S
H677 C687 0.930 . S
C678 H672 0.930 . S
C678 C679 1.355 . S
C678 C680 1.415 . S
C679 C678 1.355 . S
C679 C681 1.419 . S
C680 C678 1.415 . S
C680 C685 1.425 . S
C680 C687 1.409 . S
C681 H673 0.930 . S
C681 C679 1.419 . S
C681 C682 1.362 . S
C682 H674 0.930 . S
C682 C681 1.362 . S
C682 C685 1.409 . S
C683 H675 0.930 . S
C683 C684 1.355 . S
C683 C685 1.415 . S
C684 C683 1.355 . S
C684 C686 1.419 . S
C685 C680 1.425 . S
C685 C682 1.409 . S
C685 C683 1.415 . S
C686 H676 0.930 . S
C686 C684 1.419 . S
C686 C687 1.362 . S
C687 H677 0.930 . S
C687 C680 1.409 . S
C687 C686 1.362 . S
H688 C694 0.930 . S
H689 C697 0.930 . S
H690 C698 0.930 . S
H691 C699 0.930 . S
H692 C702 0.930 . S
H693 C703 0.930 . S
C694 H688 0.930 . S
C694 C695 1.355 . S
C694 C696 1.415 . S
C695 C694 1.355 . S
C695 C697 1.419 . S
C696 C694 1.415 . S
C696 C701 1.425 . S
C696 C703 1.409 . S
C697 H689 0.930 . S
C697 C695 1.419 . S
C697 C698 1.362 . S
C698 H690 0.930 . S
C698 C697 1.362 . S
C698 C701 1.409 . S
C699 H691 0.930 . S
C699 C700 1.355 . S
C699 C701 1.415 . S
C700 C699 1.355 . S
C700 C702 1.419 . S
C701 C696 1.425 . S
C701 C698 1.409 . S
C701 C699 1.415 . S
C702 H692 0.930 . S
C702 C700 1.419 . S
C702 C703 1.362 . S
C703 H693 0.930 . S
C703 C696 1.409 . S
C703 C702 1.362 . S
H704 C710 0.930 . S
H705 C713 0.930 . S
H706 C714 0.930 . S
H707 C715 0.930 . S
H708 C718 0.930 . S
H709 C719 0.930 . S
C710 H704 0.930 . S
C710 C711 1.355 . S
C710 C712 1.415 . S
C711 C710 1.355 . S
C711 C713 1.419 . S
C712 C710 1.415 . S
C712 C717 1.425 . S
C712 C719 1.409 . S
C713 H705 0.930 . S
C713 C711 1.419 . S
C713 C714 1.362 . S
C714 H706 0.930 . S
C714 C713 1.362 . S
C714 C717 1.409 . S
C715 H707 0.930 . S
C715 C716 1.355 . S
C715 C717 1.415 . S
C716 C715 1.355 . S
C716 C718 1.419 . S
C717 C712 1.425 . S
C717 C714 1.409 . S
C717 C715 1.415 . S
C718 H708 0.930 . S
C718 C716 1.419 . S
C718 C719 1.362 . S
C719 H709 0.930 . S
C719 C712 1.409 . S
C719 C718 1.362 . S
H720 C726 0.930 . S
H721 C729 0.930 . S
H722 C730 0.930 . S
H723 C731 0.930 . S
H724 C734 0.930 . S
H725 C735 0.930 . S
C726 H720 0.930 . S
C726 C727 1.355 . S
C726 C728 1.415 . S
C727 C726 1.355 . S
C727 C729 1.419 . S
C728 C726 1.415 . S
C728 C733 1.425 . S
C728 C735 1.409 . S
C729 H721 0.930 . S
C729 C727 1.419 . S
C729 C730 1.362 . S
C730 H722 0.930 . S
C730 C729 1.362 . S
C730 C733 1.409 . S
C731 H723 0.930 . S
C731 C732 1.355 . S
C731 C733 1.415 . S
C732 C731 1.355 . S
C732 C734 1.419 . S
C733 C728 1.425 . S
C733 C730 1.409 . S
C733 C731 1.415 . S
C734 H724 0.930 . S
C734 C732 1.419 . S
C734 C735 1.362 . S
C735 H725 0.930 . S
C735 C728 1.409 . S
C735 C734 1.362 . S
H736 C742 0.930 . S
H737 C745 0.930 . S
H738 C746 0.930 . S
H739 C747 0.930 . S
H740 C750 0.930 . S
H741 C751 0.930 . S
C742 H736 0.930 . S
C742 C743 1.355 . S
C742 C744 1.415 . S
C743 C742 1.355 . S
C743 C745 1.419 . S
C744 C742 1.415 . S
C744 C749 1.425 . S
C744 C751 1.409 . S
C745 H737 0.930 . S
C745 C743 1.419 . S
C745 C746 1.362 . S
C746 H738 0.930 . S
C746 C745 1.362 . S
C746 C749 1.409 . S
C747 H739 0.930 . S
C747 C748 1.355 . S
C747 C749 1.415 . S
C748 C747 1.355 . S
C748 C750 1.419 . S
C749 C744 1.425 . S
C749 C746 1.409 . S
C749 C747 1.415 . S
C750 H740 0.930 . S
C750 C748 1.419 . S
C750 C751 1.362 . S
C751 H741 0.930 . S
C751 C744 1.409 . S
C751 C750 1.362 . S
H752 C758 0.930 . S
H753 C761 0.930 . S
H754 C762 0.930 . S
H755 C763 0.930 . S
H756 C766 0.930 . S
H757 C767 0.930 . S
C758 H752 0.930 . S
C758 C759 1.355 . S
C758 C760 1.415 . S
C759 C758 1.355 . S
C759 C761 1.419 . S
C760 C758 1.415 . S
C760 C765 1.425 . S
C760 C767 1.409 . S
C761 H753 0.930 . S
C761 C759 1.419 . S
C761 C762 1.362 . S
C762 H754 0.930 . S
C762 C761 1.362 . S
C762 C765 1.409 . S
C763 H755 0.930 . S
C763 C764 1.355 . S
C763 C765 1.415 . S
C764 C763 1.355 . S
C764 C766 1.419 . S
C765 C760 1.425 . S
C765 C762 1.409 . S
C765 C763 1.415 . S
C766 H756 0.930 . S
C766 C764 1.419 . S
C766 C767 1.362 . S
C767 H757 0.930 . S
C767 C760 1.409 . S
C767 C766 1.362 . S
H768 C774 0.930 . S
H769 C777 0.930 . S
H770 C778 0.930 . S
H771 C779 0.930 . S
H772 C782 0.930 1_556 S
H773 C783 0.930 . S
C774 H768 0.930 . S
C774 C775 1.355 . S
C774 C776 1.415 . S
C775 C774 1.355 . S
C775 C777 1.419 . S
C776 C774 1.415 . S
C776 C781 1.425 . S
C776 C783 1.409 . S
C777 H769 0.930 . S
C777 C775 1.419 . S
C777 C778 1.362 . S
C778 H770 0.930 . S
C778 C777 1.362 . S
C778 C781 1.409 . S
C779 H771 0.930 . S
C779 C780 1.355 . S
C779 C781 1.415 . S
C780 C779 1.355 . S
C780 C782 1.419 . S
C781 C776 1.425 . S
C781 C778 1.409 . S
C781 C779 1.415 . S
C782 H772 0.930 1_554 S
C782 C780 1.419 . S
C782 C783 1.362 . S
C783 H773 0.930 . S
C783 C776 1.409 . S
C783 C782 1.362 . S
H784 C790 0.930 . S
H785 C793 0.930 . S
H786 C794 0.930 . S
H787 C795 0.930 . S
H788 C798 0.930 . S
H789 C799 0.930 . S
C790 H784 0.930 . S
C790 C791 1.355 . S
C790 C792 1.415 . S
C791 C790 1.355 . S
C791 C793 1.419 . S
C792 C790 1.415 . S
C792 C797 1.425 . S
C792 C799 1.409 . S
C793 H785 0.930 . S
C793 C791 1.419 . S
C793 C794 1.362 . S
C794 H786 0.930 . S
C794 C793 1.362 . S
C794 C797 1.409 . S
C795 H787 0.930 . S
C795 C796 1.355 . S
C795 C797 1.415 . S
C796 C795 1.355 . S
C796 C798 1.419 . S
C797 C792 1.425 . S
C797 C794 1.409 . S
C797 C795 1.415 . S
C798 H788 0.930 . S
C798 C796 1.419 . S
C798 C799 1.362 . S
C799 H789 0.930 . S
C799 C792 1.409 . S
C799 C798 1.362 . S
H800 C806 0.930 . S
H801 C809 0.930 . S
H802 C810 0.930 . S
H803 C811 0.930 . S
H804 C814 0.930 . S
H805 C815 0.930 . S
C806 H800 0.930 . S
C806 C807 1.355 . S
C806 C808 1.415 . S
C807 C806 1.355 . S
C807 C809 1.419 . S
C808 C806 1.415 . S
C808 C813 1.425 . S
C808 C815 1.409 . S
C809 H801 0.930 . S
C809 C807 1.419 . S
C809 C810 1.362 . S
C810 H802 0.930 . S
C810 C809 1.362 . S
C810 C813 1.409 . S
C811 H803 0.930 . S
C811 C812 1.355 . S
C811 C813 1.415 . S
C812 C811 1.355 . S
C812 C814 1.419 . S
C813 C808 1.425 . S
C813 C810 1.409 . S
C813 C811 1.415 . S
C814 H804 0.930 . S
C814 C812 1.419 . S
C814 C815 1.362 . S
C815 H805 0.930 . S
C815 C808 1.409 . S
C815 C814 1.362 . S
H816 C822 0.930 . S
H817 C825 0.930 1_556 S
H818 C826 0.930 . S
H819 C827 0.930 . S
H820 C830 0.930 . S
H821 C831 0.930 . S
C822 H816 0.930 . S
C822 C823 1.355 . S
C822 C824 1.415 . S
C823 C822 1.355 . S
C823 C825 1.419 . S
C824 C822 1.415 . S
C824 C829 1.425 . S
C824 C831 1.409 . S
C825 H817 0.930 1_554 S
C825 C823 1.419 . S
C825 C826 1.362 . S
C826 H818 0.930 . S
C826 C825 1.362 . S
C826 C829 1.409 . S
C827 H819 0.930 . S
C827 C828 1.355 . S
C827 C829 1.415 . S
C828 C827 1.355 . S
C828 C830 1.419 . S
C829 C824 1.425 . S
C829 C826 1.409 . S
C829 C827 1.415 . S
C830 H820 0.930 . S
C830 C828 1.419 . S
C830 C831 1.362 . S
C831 H821 0.930 . S
C831 C824 1.409 . S
C831 C830 1.362 . S
H832 C838 0.930 . S
H833 C841 0.930 . S
H834 C842 0.930 . S
H835 C843 0.930 . S
H836 C846 0.930 . S
H837 C847 0.930 . S
C838 H832 0.930 . S
C838 C839 1.355 . S
C838 C840 1.415 . S
C839 C838 1.355 . S
C839 C841 1.419 . S
C840 C838 1.415 . S
C840 C845 1.425 . S
C840 C847 1.409 . S
C841 H833 0.930 . S
C841 C839 1.419 . S
C841 C842 1.362 . S
C842 H834 0.930 . S
C842 C841 1.362 . S
C842 C845 1.409 . S
C843 H835 0.930 . S
C843 C844 1.355 . S
C843 C845 1.415 . S
C844 C843 1.355 . S
C844 C846 1.419 . S
C845 C840 1.425 . S
C845 C842 1.409 . S
C845 C843 1.415 . S
C846 H836 0.930 . S
C846 C844 1.419 . S
C846 C847 1.362 . S
C847 H837 0.930 . S
C847 C840 1.409 . S
C847 C846 1.362 . S
H848 C854 0.930 . S
H849 C857 0.930 . S
H850 C858 0.930 . S
H851 C859 0.930 . S
H852 C862 0.930 . S
H853 C863 0.930 . S
C854 H848 0.930 . S
C854 C855 1.355 . S
C854 C856 1.415 . S
C855 C854 1.355 . S
C855 C857 1.419 . S
C856 C854 1.415 . S
C856 C861 1.425 . S
C856 C863 1.409 . S
C857 H849 0.930 . S
C857 C855 1.419 . S
C857 C858 1.362 . S
C858 H850 0.930 . S
C858 C857 1.362 . S
C858 C861 1.409 . S
C859 H851 0.930 . S
C859 C860 1.355 . S
C859 C861 1.415 . S
C860 C859 1.355 . S
C860 C862 1.419 . S
C861 C856 1.425 . S
C861 C858 1.409 . S
C861 C859 1.415 . S
C862 H852 0.930 . S
C862 C860 1.419 . S
C862 C863 1.362 . S
C863 H853 0.930 . S
C863 C856 1.409 . S
C863 C862 1.362 . S
H864 C870 0.930 . S
H865 C873 0.930 . S
H866 C874 0.930 . S
H867 C875 0.930 . S
H868 C878 0.930 . S
H869 C879 0.930 . S
C870 H864 0.930 . S
C870 C871 1.355 . S
C870 C872 1.415 . S
C871 C870 1.355 . S
C871 C873 1.419 . S
C872 C870 1.415 . S
C872 C877 1.425 . S
C872 C879 1.409 . S
C873 H865 0.930 . S
C873 C871 1.419 . S
C873 C874 1.362 . S
C874 H866 0.930 . S
C874 C873 1.362 . S
C874 C877 1.409 . S
C875 H867 0.930 . S
C875 C876 1.355 . S
C875 C877 1.415 . S
C876 C875 1.355 . S
C876 C878 1.419 . S
C877 C872 1.425 . S
C877 C874 1.409 . S
C877 C875 1.415 . S
C878 H868 0.930 . S
C878 C876 1.419 . S
C878 C879 1.362 . S
C879 H869 0.930 . S
C879 C872 1.409 . S
C879 C878 1.362 . S
H880 C886 0.930 . S
H881 C889 0.930 . S
H882 C890 0.930 . S
H883 C891 0.930 . S
H884 C894 0.930 . S
H885 C895 0.930 . S
C886 H880 0.930 . S
C886 C887 1.355 . S
C886 C888 1.415 . S
C887 C886 1.355 . S
C887 C889 1.419 . S
C888 C886 1.415 . S
C888 C893 1.425 . S
C888 C895 1.409 . S
C889 H881 0.930 . S
C889 C887 1.419 . S
C889 C890 1.362 . S
C890 H882 0.930 . S
C890 C889 1.362 . S
C890 C893 1.409 . S
C891 H883 0.930 . S
C891 C892 1.355 . S
C891 C893 1.415 . S
C892 C891 1.355 . S
C892 C894 1.419 . S
C893 C888 1.425 . S
C893 C890 1.409 . S
C893 C891 1.415 . S
C894 H884 0.930 . S
C894 C892 1.419 . S
C894 C895 1.362 . S
C895 H885 0.930 . S
C895 C888 1.409 . S
C895 C894 1.362 . S
H896 C902 0.930 . S
H897 C905 0.930 . S
H898 C906 0.930 . S
H899 C907 0.930 . S
H900 C910 0.930 . S
H901 C911 0.930 . S
C902 H896 0.930 . S
C902 C903 1.355 . S
C902 C904 1.415 . S
C903 C902 1.355 . S
C903 C905 1.419 . S
C904 C902 1.415 . S
C904 C909 1.425 . S
C904 C911 1.409 . S
C905 H897 0.930 . S
C905 C903 1.419 . S
C905 C906 1.362 . S
C906 H898 0.930 . S
C906 C905 1.362 . S
C906 C909 1.409 . S
C907 H899 0.930 . S
C907 C908 1.355 . S
C907 C909 1.415 . S
C908 C907 1.355 . S
C908 C910 1.419 . S
C909 C904 1.425 . S
C909 C906 1.409 . S
C909 C907 1.415 . S
C910 H900 0.930 . S
C910 C908 1.419 . S
C910 C911 1.362 . S
C911 H901 0.930 . S
C911 C904 1.409 . S
C911 C910 1.362 . S
H912 C918 0.930 . S
H913 C921 0.930 . S
H914 C922 0.930 . S
H915 C923 0.930 . S
H916 C926 0.930 . S
H917 C927 0.930 . S
C918 H912 0.930 . S
C918 C919 1.355 . S
C918 C920 1.415 . S
C919 C918 1.355 . S
C919 C921 1.419 . S
C920 C918 1.415 . S
C920 C925 1.425 . S
C920 C927 1.409 . S
C921 H913 0.930 . S
C921 C919 1.419 . S
C921 C922 1.362 . S
C922 H914 0.930 . S
C922 C921 1.362 . S
C922 C925 1.409 . S
C923 H915 0.930 . S
C923 C924 1.355 . S
C923 C925 1.415 . S
C924 C923 1.355 . S
C924 C926 1.419 . S
C925 C920 1.425 . S
C925 C922 1.409 . S
C925 C923 1.415 . S
C926 H916 0.930 . S
C926 C924 1.419 . S
C926 C927 1.362 . S
C927 H917 0.930 . S
C927 C920 1.409 . S
C927 C926 1.362 . S
H928 C934 0.930 . S
H929 C937 0.930 . S
H930 C938 0.930 . S
H931 C939 0.930 . S
H932 C942 0.930 . S
H933 C943 0.930 . S
C934 H928 0.930 . S
C934 C935 1.355 . S
C934 C936 1.415 . S
C935 C934 1.355 . S
C935 C937 1.419 . S
C936 C934 1.415 . S
C936 C941 1.425 . S
C936 C943 1.409 . S
C937 H929 0.930 . S
C937 C935 1.419 . S
C937 C938 1.362 . S
C938 H930 0.930 . S
C938 C937 1.362 . S
C938 C941 1.409 . S
C939 H931 0.930 . S
C939 C940 1.355 . S
C939 C941 1.415 . S
C940 C939 1.355 . S
C940 C942 1.419 . S
C941 C936 1.425 . S
C941 C938 1.409 . S
C941 C939 1.415 . S
C942 H932 0.930 . S
C942 C940 1.419 . S
C942 C943 1.362 . S
C943 H933 0.930 . S
C943 C936 1.409 . S
C943 C942 1.362 . S
H944 C950 0.930 . S
H945 C953 0.930 . S
H946 C954 0.930 . S
H947 C955 0.930 . S
H948 C958 0.930 . S
H949 C959 0.930 . S
C950 H944 0.930 . S
C950 C951 1.355 . S
C950 C952 1.415 . S
C951 C950 1.355 . S
C951 C953 1.419 . S
C952 C950 1.415 . S
C952 C957 1.425 . S
C952 C959 1.409 . S
C953 H945 0.930 . S
C953 C951 1.419 . S
C953 C954 1.362 . S
C954 H946 0.930 . S
C954 C953 1.362 . S
C954 C957 1.409 . S
C955 H947 0.930 . S
C955 C956 1.355 . S
C955 C957 1.415 . S
C956 C955 1.355 . S
C956 C958 1.419 . S
C957 C952 1.425 . S
C957 C954 1.409 . S
C957 C955 1.415 . S
C958 H948 0.930 . S
C958 C956 1.419 . S
C958 C959 1.362 . S
C959 H949 0.930 . S
C959 C952 1.409 . S
C959 C958 1.362 . S
H960 C966 0.930 . S
H961 C969 0.930 . S
H962 C970 0.930 . S
H963 C971 0.930 . S
H964 C974 0.930 . S
H965 C975 0.930 . S
C966 H960 0.930 . S
C966 C967 1.355 . S
C966 C968 1.415 . S
C967 C966 1.355 . S
C967 C969 1.419 . S
C968 C966 1.415 . S
C968 C973 1.425 . S
C968 C975 1.409 . S
C969 H961 0.930 . S
C969 C967 1.419 . S
C969 C970 1.362 . S
C970 H962 0.930 . S
C970 C969 1.362 . S
C970 C973 1.409 . S
C971 H963 0.930 . S
C971 C972 1.355 . S
C971 C973 1.415 . S
C972 C971 1.355 . S
C972 C974 1.419 . S
C973 C968 1.425 . S
C973 C970 1.409 . S
C973 C971 1.415 . S
C974 H964 0.930 . S
C974 C972 1.419 . S
C974 C975 1.362 . S
C975 H965 0.930 . S
C975 C968 1.409 . S
C975 C974 1.362 . S
H976 C982 0.930 . S
H977 C985 0.930 . S
H978 C986 0.930 . S
H979 C987 0.930 . S
H980 C990 0.930 . S
H981 C991 0.930 . S
C982 H976 0.930 . S
C982 C983 1.355 . S
C982 C984 1.415 . S
C983 C982 1.355 . S
C983 C985 1.419 . S
C984 C982 1.415 . S
C984 C989 1.425 . S
C984 C991 1.409 . S
C985 H977 0.930 . S
C985 C983 1.419 . S
C985 C986 1.362 . S
C986 H978 0.930 . S
C986 C985 1.362 . S
C986 C989 1.409 . S
C987 H979 0.930 . S
C987 C988 1.355 . S
C987 C989 1.415 . S
C988 C987 1.355 . S
C988 C990 1.419 . S
C989 C984 1.425 . S
C989 C986 1.409 . S
C989 C987 1.415 . S
C990 H980 0.930 . S
C990 C988 1.419 . S
C990 C991 1.362 . S
C991 H981 0.930 . S
C991 C984 1.409 . S
C991 C990 1.362 . S
H992 C998 0.930 . S
H993 C1001 0.930 . S
H994 C1002 0.930 . S
H995 C1003 0.930 . S
H996 C1006 0.930 . S
H997 C1007 0.930 . S
C998 H992 0.930 . S
C998 C999 1.355 . S
C998 C1000 1.415 . S
C999 C998 1.355 . S
C999 C1001 1.419 . S
C1000 C998 1.415 . S
C1000 C1005 1.425 . S
C1000 C1007 1.409 . S
C1001 H993 0.930 . S
C1001 C999 1.419 . S
C1001 C1002 1.362 . S
C1002 H994 0.930 . S
C1002 C1001 1.362 . S
C1002 C1005 1.409 . S
C1003 H995 0.930 . S
C1003 C1004 1.355 . S
C1003 C1005 1.415 . S
C1004 C1003 1.355 . S
C1004 C1006 1.419 . S
C1005 C1000 1.425 . S
C1005 C1002 1.409 . S
C1005 C1003 1.415 . S
C1006 H996 0.930 . S
C1006 C1004 1.419 . S
C1006 C1007 1.362 . S
C1007 H997 0.930 . S
C1007 C1000 1.409 . S
C1007 C1006 1.362 . S
H1008 C1014 0.930 . S
H1009 C1017 0.930 . S
H1010 C1018 0.930 . S
H1011 C1019 0.930 . S
H1012 C1022 0.930 . S
H1013 C1023 0.930 . S
C1014 H1008 0.930 . S
C1014 C1015 1.355 . S
C1014 C1016 1.415 . S
C1015 C1014 1.355 . S
C1015 C1017 1.419 . S
C1016 C1014 1.415 . S
C1016 C1021 1.425 . S
C1016 C1023 1.409 . S
C1017 H1009 0.930 . S
C1017 C1015 1.419 . S
C1017 C1018 1.362 . S
C1018 H1010 0.930 . S
C1018 C1017 1.362 . S
C1018 C1021 1.409 . S
C1019 H1011 0.930 . S
C1019 C1020 1.355 . S
C1019 C1021 1.415 . S
C1020 C1019 1.355 . S
C1020 C1022 1.419 . S
C1021 C1016 1.425 . S
C1021 C1018 1.409 . S
C1021 C1019 1.415 . S
C1022 H1012 0.930 . S
C1022 C1020 1.419 . S
C1022 C1023 1.362 . S
C1023 H1013 0.930 . S
C1023 C1016 1.409 . S
C1023 C1022 1.362 . S
H1024 C1030 0.930 . S
H1025 C1033 0.930 . S
H1026 C1034 0.930 . S
H1027 C1035 0.930 . S
H1028 C1038 0.930 . S
H1029 C1039 0.930 . S
C1030 H1024 0.930 . S
C1030 C1031 1.355 . S
C1030 C1032 1.415 . S
C1031 C1030 1.355 . S
C1031 C1033 1.419 . S
C1032 C1030 1.415 . S
C1032 C1037 1.425 . S
C1032 C1039 1.409 . S
C1033 H1025 0.930 . S
C1033 C1031 1.419 . S
C1033 C1034 1.362 . S
C1034 H1026 0.930 . S
C1034 C1033 1.362 . S
C1034 C1037 1.409 . S
C1035 H1027 0.930 . S
C1035 C1036 1.355 . S
C1035 C1037 1.415 . S
C1036 C1035 1.355 . S
C1036 C1038 1.419 . S
C1037 C1032 1.425 . S
C1037 C1034 1.409 . S
C1037 C1035 1.415 . S
C1038 H1028 0.930 . S
C1038 C1036 1.419 . S
C1038 C1039 1.362 . S
C1039 H1029 0.930 . S
C1039 C1032 1.409 . S
C1039 C1038 1.362 . S
H1040 C1046 0.930 . S
H1041 C1049 0.930 1_556 S
H1042 C1050 0.930 . S
H1043 C1051 0.930 . S
H1044 C1054 0.930 . S
H1045 C1055 0.930 . S
C1046 H1040 0.930 . S
C1046 C1047 1.355 . S
C1046 C1048 1.415 . S
C1047 C1046 1.355 . S
C1047 C1049 1.419 . S
C1048 C1046 1.415 . S
C1048 C1053 1.425 . S
C1048 C1055 1.409 . S
C1049 H1041 0.930 1_554 S
C1049 C1047 1.419 . S
C1049 C1050 1.362 . S
C1050 H1042 0.930 . S
C1050 C1049 1.362 . S
C1050 C1053 1.409 . S
C1051 H1043 0.930 . S
C1051 C1052 1.355 . S
C1051 C1053 1.415 . S
C1052 C1051 1.355 . S
C1052 C1054 1.419 . S
C1053 C1048 1.425 . S
C1053 C1050 1.409 . S
C1053 C1051 1.415 . S
C1054 H1044 0.930 . S
C1054 C1052 1.419 . S
C1054 C1055 1.362 . S
C1055 H1045 0.930 . S
C1055 C1048 1.409 . S
C1055 C1054 1.362 . S
H1056 C1062 0.930 . S
H1057 C1065 0.930 . S
H1058 C1066 0.930 . S
H1059 C1067 0.930 . S
H1060 C1070 0.930 . S
H1061 C1071 0.930 . S
C1062 H1056 0.930 . S
C1062 C1063 1.355 . S
C1062 C1064 1.415 . S
C1063 C1062 1.355 . S
C1063 C1065 1.419 . S
C1064 C1062 1.415 . S
C1064 C1069 1.425 . S
C1064 C1071 1.409 . S
C1065 H1057 0.930 . S
C1065 C1063 1.419 . S
C1065 C1066 1.362 . S
C1066 H1058 0.930 . S
C1066 C1065 1.362 . S
C1066 C1069 1.409 . S
C1067 H1059 0.930 . S
C1067 C1068 1.355 . S
C1067 C1069 1.415 . S
C1068 C1067 1.355 . S
C1068 C1070 1.419 . S
C1069 C1064 1.425 . S
C1069 C1066 1.409 . S
C1069 C1067 1.415 . S
C1070 H1060 0.930 . S
C1070 C1068 1.419 . S
C1070 C1071 1.362 . S
C1071 H1061 0.930 . S
C1071 C1064 1.409 . S
C1071 C1070 1.362 . S
H1072 C1078 0.930 . S
H1073 C1081 0.930 . S
H1074 C1082 0.930 . S
H1075 C1083 0.930 . S
H1076 C1086 0.930 . S
H1077 C1087 0.930 . S
C1078 H1072 0.930 . S
C1078 C1079 1.355 . S
C1078 C1080 1.415 . S
C1079 C1078 1.355 . S
C1079 C1081 1.419 . S
C1080 C1078 1.415 . S
C1080 C1085 1.425 . S
C1080 C1087 1.409 . S
C1081 H1073 0.930 . S
C1081 C1079 1.419 . S
C1081 C1082 1.362 . S
C1082 H1074 0.930 . S
C1082 C1081 1.362 . S
C1082 C1085 1.409 . S
C1083 H1075 0.930 . S
C1083 C1084 1.355 . S
C1083 C1085 1.415 . S
C1084 C1083 1.355 . S
C1084 C1086 1.419 . S
C1085 C1080 1.425 . S
C1085 C1082 1.409 . S
C1085 C1083 1.415 . S
C1086 H1076 0.930 . S
C1086 C1084 1.419 . S
C1086 C1087 1.362 . S
C1087 H1077 0.930 . S
C1087 C1080 1.409 . S
C1087 C1086 1.362 . S
H1088 C1094 0.930 . S
H1089 C1097 0.930 . S
H1090 C1098 0.930 . S
H1091 C1099 0.930 . S
H1092 C1102 0.930 . S
H1093 C1103 0.930 . S
C1094 H1088 0.930 . S
C1094 C1095 1.355 . S
C1094 C1096 1.415 . S
C1095 C1094 1.355 . S
C1095 C1097 1.419 . S
C1096 C1094 1.415 . S
C1096 C1101 1.425 . S
C1096 C1103 1.409 . S
C1097 H1089 0.930 . S
C1097 C1095 1.419 . S
C1097 C1098 1.362 . S
C1098 H1090 0.930 . S
C1098 C1097 1.362 . S
C1098 C1101 1.409 . S
C1099 H1091 0.930 . S
C1099 C1100 1.355 . S
C1099 C1101 1.415 . S
C1100 C1099 1.355 . S
C1100 C1102 1.419 . S
C1101 C1096 1.425 . S
C1101 C1098 1.409 . S
C1101 C1099 1.415 . S
C1102 H1092 0.930 . S
C1102 C1100 1.419 . S
C1102 C1103 1.362 . S
C1103 H1093 0.930 . S
C1103 C1096 1.409 . S
C1103 C1102 1.362 . S
H1104 C1110 0.930 . S
H1105 C1113 0.930 . S
H1106 C1114 0.930 . S
H1107 C1115 0.930 . S
H1108 C1118 0.930 . S
H1109 C1119 0.930 . S
C1110 H1104 0.930 . S
C1110 C1111 1.355 . S
C1110 C1112 1.415 . S
C1111 C1110 1.355 . S
C1111 C1113 1.419 . S
C1112 C1110 1.415 . S
C1112 C1117 1.425 . S
C1112 C1119 1.409 . S
C1113 H1105 0.930 . S
C1113 C1111 1.419 . S
C1113 C1114 1.362 . S
C1114 H1106 0.930 . S
C1114 C1113 1.362 . S
C1114 C1117 1.409 . S
C1115 H1107 0.930 . S
C1115 C1116 1.355 . S
C1115 C1117 1.415 . S
C1116 C1115 1.355 . S
C1116 C1118 1.419 . S
C1117 C1112 1.425 . S
C1117 C1114 1.409 . S
C1117 C1115 1.415 . S
C1118 H1108 0.930 . S
C1118 C1116 1.419 . S
C1118 C1119 1.362 . S
C1119 H1109 0.930 . S
C1119 C1112 1.409 . S
C1119 C1118 1.362 . S
H1120 C1126 0.930 . S
H1121 C1129 0.930 . S
H1122 C1130 0.930 . S
H1123 C1131 0.930 . S
H1124 C1134 0.930 . S
H1125 C1135 0.930 . S
C1126 H1120 0.930 . S
C1126 C1127 1.355 . S
C1126 C1128 1.415 . S
C1127 C1126 1.355 . S
C1127 C1129 1.419 . S
C1128 C1126 1.415 . S
C1128 C1133 1.425 . S
C1128 C1135 1.409 . S
C1129 H1121 0.930 . S
C1129 C1127 1.419 . S
C1129 C1130 1.362 . S
C1130 H1122 0.930 . S
C1130 C1129 1.362 . S
C1130 C1133 1.409 . S
C1131 H1123 0.930 . S
C1131 C1132 1.355 . S
C1131 C1133 1.415 . S
C1132 C1131 1.355 . S
C1132 C1134 1.419 . S
C1133 C1128 1.425 . S
C1133 C1130 1.409 . S
C1133 C1131 1.415 . S
C1134 H1124 0.930 . S
C1134 C1132 1.419 . S
C1134 C1135 1.362 . S
C1135 H1125 0.930 . S
C1135 C1128 1.409 . S
C1135 C1134 1.362 . S
H1136 C1142 0.930 . S
H1137 C1145 0.930 . S
H1138 C1146 0.930 . S
H1139 C1147 0.930 . S
H1140 C1150 0.930 . S
H1141 C1151 0.930 . S
C1142 H1136 0.930 . S
C1142 C1143 1.355 . S
C1142 C1144 1.415 . S
C1143 C1142 1.355 . S
C1143 C1145 1.419 . S
C1144 C1142 1.415 . S
C1144 C1149 1.425 . S
C1144 C1151 1.409 . S
C1145 H1137 0.930 . S
C1145 C1143 1.419 . S
C1145 C1146 1.362 . S
C1146 H1138 0.930 . S
C1146 C1145 1.362 . S
C1146 C1149 1.409 . S
C1147 H1139 0.930 . S
C1147 C1148 1.355 . S
C1147 C1149 1.415 . S
C1148 C1147 1.355 . S
C1148 C1150 1.419 . S
C1149 C1144 1.425 . S
C1149 C1146 1.409 . S
C1149 C1147 1.415 . S
C1150 H1140 0.930 . S
C1150 C1148 1.419 . S
C1150 C1151 1.362 . S
C1151 H1141 0.930 . S
C1151 C1144 1.409 . S
C1151 C1150 1.362 . S
H1152 C1158 0.930 . S
H1153 C1161 0.930 . S
H1154 C1162 0.930 . S
H1155 C1163 0.930 . S
H1156 C1166 0.930 . S
H1157 C1167 0.930 . S
C1158 H1152 0.930 . S
C1158 C1159 1.355 . S
C1158 C1160 1.415 . S
C1159 C1158 1.355 . S
C1159 C1161 1.419 . S
C1160 C1158 1.415 . S
C1160 C1165 1.425 . S
C1160 C1167 1.409 . S
C1161 H1153 0.930 . S
C1161 C1159 1.419 . S
C1161 C1162 1.362 . S
C1162 H1154 0.930 . S
C1162 C1161 1.362 . S
C1162 C1165 1.409 . S
C1163 H1155 0.930 . S
C1163 C1164 1.355 . S
C1163 C1165 1.415 . S
C1164 C1163 1.355 . S
C1164 C1166 1.419 . S
C1165 C1160 1.425 . S
C1165 C1162 1.409 . S
C1165 C1163 1.415 . S
C1166 H1156 0.930 . S
C1166 C1164 1.419 . S
C1166 C1167 1.362 . S
C1167 H1157 0.930 . S
C1167 C1160 1.409 . S
C1167 C1166 1.362 . S
C535 C21 1.259 . S
C540 C153 1.259 . S
C551 C186 1.263 . S
C556 C54 1.263 . S
C567 C219 1.226 . S
C572 C87 1.226 . S
C583 C120 1.193 . S
C588 C252 1.194 . S
C599 C285 1.255 . S
C604 C351 1.255 . S
C615 C384 1.182 . S
C620 C318 1.182 . S
C631 C417 1.263 . S
C636 C483 1.263 . S
C647 C450 1.206 . S
C652 C516 1.206 . S
C663 N13 1.229 . S
C668 N178 1.196 . S
C679 N211 1.134 . S
C684 N46 1.144 . S
C695 N244 1.153 . S
C700 N79 1.184 . S
C711 N112 1.163 . S
C716 N145 1.139 . S
C727 C150 1.982 . S
C732 C348 1.981 1_556 S
C743 C84 1.996 . S
C748 C282 1.988 . S
C759 C216 1.983 . S
C764 C381 1.981 . S
C775 C18 1.995 . S
C780 C315 1.986 1_554 S
C791 N409 1.240 . S
C796 N277 1.210 . S
C807 N343 1.158 . S
C812 N508 1.191 . S
C823 N310 1.135 . S
C828 N442 1.152 . S
C839 N376 1.134 . S
C844 N475 1.142 . S
C855 C480 1.997 . S
C860 C51 1.991 . S
C871 C183 1.980 1_554 S
C876 C447 1.987 . S
C887 C117 1.989 1_556 S
C892 C513 1.997 . S
C903 C414 1.992 . S
C908 C249 1.997 . S
C919 C172 1.710 . S
C924 C7 1.708 . S
C935 C205 1.716 1_556 S
C940 C40 1.711 . S
C951 C73 1.719 1_554 S
C956 C238 1.727 . S
C967 C106 1.758 . S
C972 C139 1.754 . S
C983 N134 0.835 . S
C988 N332 0.853 . S
C999 N266 0.840 . S
C1004 N68 0.807 . S
C1015 N365 0.763 . S
C1020 N200 0.806 . S
C1031 N2 0.854 . S
C1036 N299 0.841 . S
C1047 C403 1.749 1_554 S
C1052 C271 1.742 . S
C1063 C337 1.743 . S
C1068 C502 1.750 . S
C1079 C436 1.729 . S
C1084 C304 1.722 . S
C1095 C469 1.724 1_556 S
C1100 C370 1.717 . S
C1111 N35 0.813 . S
C1116 N464 0.771 . S
C1127 N167 0.854 . S
C1132 N431 0.845 . S
C1143 N497 0.851 . S
C1148 N101 0.830 . S
C1159 N233 0.783 . S
C1164 N398 0.823 . S
