# Generated by pormake.
# Topology snl, (6)-cn, num edge types: 1
# Building blocks:
#     Node 0, Type 0, BuildingBlock: CUWYAW_clean_sbu_0, # of connection points: 6
#     Node 1, Type 0, BuildingBlock: CUWYAW_clean_sbu_0, # of connection points: 6
#     Node 2, Type 0, BuildingBlock: CUWYAW_clean_sbu_0, # of connection points: 6
#     Node 3, Type 0, BuildingBlock: CUWYAW_clean_sbu_0, # of connection points: 6
#     Node 4, Type 0, BuildingBlock: CUWYAW_clean_sbu_0, # of connection points: 6
#     Node 5, Type 0, BuildingBlock: CUWYAW_clean_sbu_0, # of connection points: 6
#     Node 6, Type 0, BuildingBlock: CUWYAW_clean_sbu_0, # of connection points: 6
#     Node 7, Type 0, BuildingBlock: CUWYAW_clean_sbu_0, # of connection points: 6
#     Node 8, Type 0, BuildingBlock: CUWYAW_clean_sbu_0, # of connection points: 6
#     Node 9, Type 0, BuildingBlock: CUWYAW_clean_sbu_0, # of connection points: 6
#     Node 10, Type 0, BuildingBlock: CUWYAW_clean_sbu_0, # of connection points: 6
#     Node 11, Type 0, BuildingBlock: CUWYAW_clean_sbu_0, # of connection points: 6
#     Node 12, Type 0, BuildingBlock: CUWYAW_clean_sbu_0, # of connection points: 6
#     Node 13, Type 0, BuildingBlock: CUWYAW_clean_sbu_0, # of connection points: 6
#     Node 14, Type 0, BuildingBlock: CUWYAW_clean_sbu_0, # of connection points: 6
#     Node 15, Type 0, BuildingBlock: CUWYAW_clean_sbu_0, # of connection points: 6
#     Edge 16, Type (0, 0), BuildingBlock: ZUJKAS_clean_linker_0, # of connection points: 2
#     Edge 17, Type (0, 0), BuildingBlock: ZUJKAS_clean_linker_0, # of connection points: 2
#     Edge 18, Type (0, 0), BuildingBlock: ZUJKAS_clean_linker_0, # of connection points: 2
#     Edge 19, Type (0, 0), BuildingBlock: ZUJKAS_clean_linker_0, # of connection points: 2
#     Edge 20, Type (0, 0), BuildingBlock: ZUJKAS_clean_linker_0, # of connection points: 2
#     Edge 21, Type (0, 0), BuildingBlock: ZUJKAS_clean_linker_0, # of connection points: 2
#     Edge 22, Type (0, 0), BuildingBlock: ZUJKAS_clean_linker_0, # of connection points: 2
#     Edge 23, Type (0, 0), BuildingBlock: ZUJKAS_clean_linker_0, # of connection points: 2
#     Edge 24, Type (0, 0), BuildingBlock: ZUJKAS_clean_linker_0, # of connection points: 2
#     Edge 25, Type (0, 0), BuildingBlock: ZUJKAS_clean_linker_0, # of connection points: 2
#     Edge 26, Type (0, 0), BuildingBlock: ZUJKAS_clean_linker_0, # of connection points: 2
#     Edge 27, Type (0, 0), BuildingBlock: ZUJKAS_clean_linker_0, # of connection points: 2
#     Edge 28, Type (0, 0), BuildingBlock: ZUJKAS_clean_linker_0, # of connection points: 2
#     Edge 29, Type (0, 0), BuildingBlock: ZUJKAS_clean_linker_0, # of connection points: 2
#     Edge 30, Type (0, 0), BuildingBlock: ZUJKAS_clean_linker_0, # of connection points: 2
#     Edge 31, Type (0, 0), BuildingBlock: ZUJKAS_clean_linker_0, # of connection points: 2
#     Edge 32, Type (0, 0), BuildingBlock: ZUJKAS_clean_linker_0, # of connection points: 2
#     Edge 33, Type (0, 0), BuildingBlock: ZUJKAS_clean_linker_0, # of connection points: 2
#     Edge 34, Type (0, 0), BuildingBlock: ZUJKAS_clean_linker_0, # of connection points: 2
#     Edge 35, Type (0, 0), BuildingBlock: ZUJKAS_clean_linker_0, # of connection points: 2
#     Edge 36, Type (0, 0), BuildingBlock: ZUJKAS_clean_linker_0, # of connection points: 2
#     Edge 37, Type (0, 0), BuildingBlock: ZUJKAS_clean_linker_0, # of connection points: 2
#     Edge 38, Type (0, 0), BuildingBlock: ZUJKAS_clean_linker_0, # of connection points: 2
#     Edge 39, Type (0, 0), BuildingBlock: ZUJKAS_clean_linker_0, # of connection points: 2
#     Edge 40, Type (0, 0), BuildingBlock: ZUJKAS_clean_linker_0, # of connection points: 2
#     Edge 41, Type (0, 0), BuildingBlock: ZUJKAS_clean_linker_0, # of connection points: 2
#     Edge 42, Type (0, 0), BuildingBlock: ZUJKAS_clean_linker_0, # of connection points: 2
#     Edge 43, Type (0, 0), BuildingBlock: ZUJKAS_clean_linker_0, # of connection points: 2
#     Edge 44, Type (0, 0), BuildingBlock: ZUJKAS_clean_linker_0, # of connection points: 2
#     Edge 45, Type (0, 0), BuildingBlock: ZUJKAS_clean_linker_0, # of connection points: 2
#     Edge 46, Type (0, 0), BuildingBlock: ZUJKAS_clean_linker_0, # of connection points: 2
#     Edge 47, Type (0, 0), BuildingBlock: ZUJKAS_clean_linker_0, # of connection points: 2
#     Edge 48, Type (0, 0), BuildingBlock: ZUJKAS_clean_linker_0, # of connection points: 2
#     Edge 49, Type (0, 0), BuildingBlock: ZUJKAS_clean_linker_0, # of connection points: 2
#     Edge 50, Type (0, 0), BuildingBlock: ZUJKAS_clean_linker_0, # of connection points: 2
#     Edge 51, Type (0, 0), BuildingBlock: ZUJKAS_clean_linker_0, # of connection points: 2
#     Edge 52, Type (0, 0), BuildingBlock: ZUJKAS_clean_linker_0, # of connection points: 2
#     Edge 53, Type (0, 0), BuildingBlock: ZUJKAS_clean_linker_0, # of connection points: 2
#     Edge 54, Type (0, 0), BuildingBlock: ZUJKAS_clean_linker_0, # of connection points: 2
#     Edge 55, Type (0, 0), BuildingBlock: ZUJKAS_clean_linker_0, # of connection points: 2
#     Edge 56, Type (0, 0), BuildingBlock: ZUJKAS_clean_linker_0, # of connection points: 2
#     Edge 57, Type (0, 0), BuildingBlock: ZUJKAS_clean_linker_0, # of connection points: 2
#     Edge 58, Type (0, 0), BuildingBlock: ZUJKAS_clean_linker_0, # of connection points: 2
#     Edge 59, Type (0, 0), BuildingBlock: ZUJKAS_clean_linker_0, # of connection points: 2
#     Edge 60, Type (0, 0), BuildingBlock: ZUJKAS_clean_linker_0, # of connection points: 2
#     Edge 61, Type (0, 0), BuildingBlock: ZUJKAS_clean_linker_0, # of connection points: 2
#     Edge 62, Type (0, 0), BuildingBlock: ZUJKAS_clean_linker_0, # of connection points: 2
#     Edge 63, Type (0, 0), BuildingBlock: ZUJKAS_clean_linker_0, # of connection points: 2
# Relax obj value: 0.183
# Max RMSD: 0.237
# Mean RMSD: 0.214
data_MOF--net-snl--node1-CUWYAW_clean_sbu_0--edge1-ZUJKAS_clean_linker_0
_symmetry_space_group_name_H-M    P1
_symmetry_Int_Tables_number       1
_symmetry_cell_setting            triclinic
loop_
_symmetry_equiv_pos_as_xyz
'x, y, z'
_cell_length_a     74.566915
_cell_length_b     73.62894
_cell_length_c     30.497089
_cell_angle_alpha  87.357309
_cell_angle_beta   92.659577
_cell_angle_gamma 90.189166
loop_
_atom_site_label
_atom_site_type_symbol
_atom_site_fract_x
_atom_site_fract_y
_atom_site_fract_z
_atom_type_partial_charge
C0 C 0.12996 0.644 0.02707 0.0
Eu1 Eu 0.14011 0.63566 0.10867 0.0
C2 C 0.13255 0.63888 0.98122 0.0
C3 C 0.14906 0.64143 0.96126 0.0
C4 C 0.15066 0.63807 0.91671 0.0
C5 C 0.13579 0.63212 0.89097 0.0
C6 C 0.11942 0.62916 0.91139 0.0
C7 C 0.11782 0.63255 0.95585 0.0
C8 C 0.17422 0.63417 0.14532 0.0
C9 C 0.14442 0.59153 0.12444 0.0
C10 C 0.15882 0.60929 0.28459 0.0
Eu11 Eu 0.14483 0.61866 0.20691 0.0
C12 C 0.15589 0.61121 0.33187 0.0
C13 C 0.139 0.60833 0.34965 0.0
C14 C 0.13688 0.60969 0.39488 0.0
C15 C 0.15159 0.61398 0.42329 0.0
C16 C 0.1684 0.61709 0.40506 0.0
C17 C 0.1705 0.61568 0.35997 0.0
C18 C 0.10919 0.6244 0.18522 0.0
C19 C 0.13816 0.66224 0.18718 0.0
O20 O 0.12126 0.63254 0.05245 0.0
O21 O 0.14326 0.65203 0.04811 0.0
O22 O 0.16867 0.64674 0.11663 0.0
O23 O 0.16206 0.62246 0.15038 0.0
O24 O 0.14106 0.60573 0.09712 0.0
O25 O 0.14744 0.5931 0.16751 0.0
O26 O 0.16345 0.62405 0.26215 0.0
O27 O 0.14763 0.59896 0.26236 0.0
O28 O 0.11524 0.61746 0.22288 0.0
O29 O 0.12239 0.62775 0.16187 0.0
O30 O 0.14657 0.64952 0.2127 0.0
O31 O 0.13126 0.65881 0.1477 0.0
H32 H 0.16067 0.6464 0.97974 0.0
H33 H 0.16344 0.64069 0.90213 0.0
H34 H 0.10775 0.6243 0.89294 0.0
H35 H 0.10491 0.63052 0.97026 0.0
H36 H 0.12747 0.60489 0.32873 0.0
H37 H 0.12378 0.60703 0.40766 0.0
H38 H 0.17996 0.62076 0.42557 0.0
H39 H 0.18364 0.61803 0.34701 0.0
C40 C 0.63177 0.86677 0.49914 0.0
Eu41 Eu 0.6399 0.87583 0.41873 0.0
C42 C 0.63536 0.87147 0.54549 0.0
C43 C 0.64421 0.85886 0.57484 0.0
C44 C 0.64615 0.86208 0.61964 0.0
C45 C 0.63913 0.87793 0.63636 0.0
C46 C 0.63069 0.89081 0.60673 0.0
C47 C 0.62881 0.88761 0.56181 0.0
C48 C 0.67325 0.87658 0.38483 0.0
C49 C 0.64429 0.91982 0.40476 0.0
C50 C 0.65509 0.90216 0.24617 0.0
Eu51 Eu 0.64241 0.89274 0.32215 0.0
C52 C 0.65157 0.89998 0.19835 0.0
C53 C 0.64185 0.91319 0.17242 0.0
C54 C 0.6397 0.91179 0.12683 0.0
C55 C 0.6473 0.89719 0.10601 0.0
C56 C 0.65689 0.88391 0.13204 0.0
C57 C 0.65905 0.88531 0.17756 0.0
C58 C 0.60699 0.8875 0.33954 0.0
C59 C 0.63521 0.84933 0.34047 0.0
O60 O 0.62235 0.8782 0.47327 0.0
O61 O 0.64479 0.85918 0.47919 0.0
O62 O 0.6678 0.86384 0.41193 0.0
O63 O 0.66138 0.88874 0.37939 0.0
O64 O 0.64182 0.90557 0.43179 0.0
O65 O 0.64577 0.91835 0.36172 0.0
O66 O 0.66036 0.88769 0.26994 0.0
O67 O 0.64406 0.91238 0.26659 0.0
O68 O 0.61257 0.89428 0.30259 0.0
O69 O 0.62054 0.88392 0.36476 0.0
O70 O 0.64332 0.86186 0.31563 0.0
O71 O 0.62927 0.85304 0.37913 0.0
H72 H 0.64931 0.84627 0.56326 0.0
H73 H 0.65302 0.85201 0.64127 0.0
H74 H 0.62496 0.90308 0.61841 0.0
H75 H 0.62182 0.89759 0.54015 0.0
H76 H 0.63608 0.92478 0.18727 0.0
H77 H 0.63208 0.92217 0.10788 0.0
H78 H 0.66319 0.87264 0.1171 0.0
H79 H 0.6669 0.87504 0.19633 0.0
C80 C 0.37856 0.36345 0.55467 0.0
Eu81 Eu 0.37644 0.37314 0.63566 0.0
C82 C 0.37939 0.37015 0.50822 0.0
C83 C 0.3636 0.37199 0.48137 0.0
C84 C 0.36445 0.37566 0.43611 0.0
C85 C 0.38111 0.37744 0.41655 0.0
C86 C 0.39689 0.37623 0.44365 0.0
C87 C 0.39604 0.37257 0.48892 0.0
C88 C 0.34498 0.37419 0.67817 0.0
C89 C 0.37537 0.41679 0.64094 0.0
C90 C 0.37564 0.39823 0.80376 0.0
Eu91 Eu 0.3796 0.38862 0.72335 0.0
C92 C 0.37669 0.3922 0.8508 0.0
C93 C 0.39327 0.39067 0.87459 0.0
C94 C 0.3939 0.38763 0.92028 0.0
C95 C 0.37797 0.38617 0.94319 0.0
C96 C 0.36142 0.38701 0.9191 0.0
C97 C 0.3608 0.39005 0.87348 0.0
C98 C 0.41141 0.38804 0.68328 0.0
C99 C 0.38185 0.34435 0.71461 0.0
O100 O 0.39257 0.36599 0.58113 0.0
O101 O 0.36342 0.36518 0.57399 0.0
O102 O 0.34996 0.36061 0.65604 0.0
O103 O 0.35656 0.38671 0.67617 0.0
O104 O 0.37957 0.40297 0.6175 0.0
O105 O 0.37215 0.41437 0.68307 0.0
O106 O 0.3626 0.39178 0.77886 0.0
O107 O 0.39058 0.40025 0.7833 0.0
O108 O 0.4059 0.40131 0.70567 0.0
O109 O 0.39995 0.37526 0.68339 0.0
O110 O 0.37894 0.35783 0.74082 0.0
O111 O 0.38392 0.34743 0.67242 0.0
H112 H 0.35055 0.36993 0.49501 0.0
H113 H 0.35203 0.37628 0.4162 0.0
H114 H 0.40994 0.37776 0.42973 0.0
H115 H 0.40848 0.37105 0.50855 0.0
H116 H 0.40578 0.39246 0.8582 0.0
H117 H 0.40687 0.38723 0.93782 0.0
H118 H 0.34891 0.38566 0.93562 0.0
H119 H 0.34782 0.39131 0.85611 0.0
C120 C 0.89066 0.14572 0.995 0.0
Eu121 Eu 0.88308 0.13595 0.91484 0.0
C122 C 0.88842 0.14068 0.04214 0.0
C123 C 0.8716 0.14136 0.06111 0.0
C124 C 0.87021 0.13849 0.10662 0.0
C125 C 0.88559 0.13496 0.13425 0.0
C126 C 0.9023 0.13379 0.11492 0.0
C127 C 0.90369 0.13667 0.06952 0.0
C128 C 0.84956 0.1349 0.87511 0.0
C129 C 0.87783 0.09205 0.91289 0.0
C130 C 0.87306 0.1089 0.7474 0.0
Eu131 Eu 0.88103 0.11852 0.8276 0.0
C132 C 0.87465 0.11423 0.70016 0.0
C133 C 0.89124 0.11397 0.68004 0.0
C134 C 0.89211 0.11696 0.63445 0.0
C135 C 0.87641 0.12022 0.60781 0.0
C136 C 0.85989 0.12097 0.62824 0.0
C137 C 0.85904 0.11796 0.67377 0.0
C138 C 0.91469 0.11907 0.8663 0.0
C139 C 0.88721 0.16252 0.83195 0.0
O140 O 0.90121 0.13557 0.9733 0.0
O141 O 0.87661 0.15152 0.97115 0.0
O142 O 0.85562 0.14842 0.89722 0.0
O143 O 0.86097 0.12229 0.87691 0.0
O144 O 0.88346 0.10604 0.93535 0.0
O145 O 0.87349 0.0939 0.87033 0.0
O146 O 0.86233 0.11841 0.77013 0.0
O147 O 0.88757 0.1037 0.7702 0.0
O148 O 0.90813 0.10574 0.84429 0.0
O149 O 0.90351 0.13197 0.86522 0.0
O150 O 0.88062 0.14909 0.80856 0.0
O151 O 0.8923 0.15974 0.87364 0.0
H152 H 0.85957 0.14454 0.04103 0.0
H153 H 0.85714 0.13966 0.1203 0.0
H154 H 0.91439 0.13079 0.13495 0.0
H155 H 0.91683 0.13617 0.0559 0.0
H156 H 0.90354 0.11099 0.69929 0.0
H157 H 0.90504 0.11608 0.61994 0.0
H158 H 0.84756 0.12374 0.609 0.0
H159 H 0.84604 0.11812 0.68827 0.0
C160 C 0.13311 0.36739 1.00407 0.0
Eu161 Eu 0.14115 0.37633 0.92343 0.0
C162 C 0.13581 0.3729 0.05019 0.0
C163 C 0.15146 0.36807 0.07554 0.0
C164 C 0.15302 0.37166 0.12028 0.0
C165 C 0.13893 0.38006 0.14086 0.0
C166 C 0.12346 0.38524 0.11521 0.0
C167 C 0.1219 0.38165 0.07052 0.0
C168 C 0.1743 0.37684 0.88864 0.0
C169 C 0.14566 0.42037 0.90997 0.0
C170 C 0.15728 0.40303 0.75199 0.0
Eu171 Eu 0.14382 0.39354 0.82701 0.0
C172 C 0.15464 0.40052 0.7042 0.0
C173 C 0.13849 0.40519 0.68087 0.0
C174 C 0.13677 0.40345 0.63528 0.0
C175 C 0.15115 0.39697 0.612 0.0
C176 C 0.16719 0.39207 0.6357 0.0
C177 C 0.16892 0.39388 0.68116 0.0
C178 C 0.10837 0.38838 0.84407 0.0
C179 C 0.1362 0.35005 0.84486 0.0
O180 O 0.12299 0.37779 0.97722 0.0
O181 O 0.14682 0.36067 0.98494 0.0
O182 O 0.16867 0.36378 0.91465 0.0
O183 O 0.16262 0.38921 0.88434 0.0
O184 O 0.14333 0.40603 0.93682 0.0
O185 O 0.14694 0.41908 0.86684 0.0
O186 O 0.16274 0.3888 0.77636 0.0
O187 O 0.14552 0.41288 0.77107 0.0
O188 O 0.11401 0.3952 0.80719 0.0
O189 O 0.12189 0.38469 0.8694 0.0
O190 O 0.14423 0.36262 0.81989 0.0
O191 O 0.13045 0.35364 0.88379 0.0
H192 H 0.16235 0.36109 0.06116 0.0
H193 H 0.16504 0.36727 0.13906 0.0
H194 H 0.11245 0.39196 0.12975 0.0
H195 H 0.1096 0.3854 0.05207 0.0
H196 H 0.12724 0.41039 0.69768 0.0
H197 H 0.12428 0.40755 0.61817 0.0
H198 H 0.17845 0.38674 0.61917 0.0
H199 H 0.18152 0.39019 0.69837 0.0
C200 C 0.88138 0.86549 0.05685 0.0
Eu201 Eu 0.87774 0.87406 0.13808 0.0
C202 C 0.88331 0.87298 1.01132 0.0
C203 C 0.86814 0.87453 0.98226 0.0
C204 C 0.86994 0.87929 0.93781 0.0
C205 C 0.88699 0.88252 0.92113 0.0
C206 C 0.90215 0.88143 0.9504 0.0
C207 C 0.90033 0.87668 0.99498 0.0
C208 C 0.84613 0.87407 0.18006 0.0
C209 C 0.87716 0.91772 0.1485 0.0
C210 C 0.86821 0.89842 0.30931 0.0
Eu211 Eu 0.87886 0.88906 0.2335 0.0
C212 C 0.87234 0.89661 0.35703 0.0
C213 C 0.88995 0.89779 0.37512 0.0
C214 C 0.89316 0.89689 0.42083 0.0
C215 C 0.87883 0.89482 0.44915 0.0
C216 C 0.86128 0.89327 0.43064 0.0
C217 C 0.8581 0.89419 0.38512 0.0
C218 C 0.91326 0.88425 0.20889 0.0
C219 C 0.88416 0.84567 0.21889 0.0
O220 O 0.89495 0.86695 0.08538 0.0
O221 O 0.86585 0.86752 0.07428 0.0
O222 O 0.85088 0.8613 0.15503 0.0
O223 O 0.85796 0.88635 0.18065 0.0
O224 O 0.87981 0.90407 0.12295 0.0
O225 O 0.87488 0.91527 0.19133 0.0
O226 O 0.86252 0.88377 0.29012 0.0
O227 O 0.87902 0.9084 0.28537 0.0
O228 O 0.90917 0.88985 0.24691 0.0
O229 O 0.8989 0.88126 0.18687 0.0
O230 O 0.87821 0.85808 0.24496 0.0
O231 O 0.88752 0.84952 0.17742 0.0
H232 H 0.85485 0.87145 0.99354 0.0
H233 H 0.858 0.8797 0.91618 0.0
H234 H 0.91545 0.88401 0.93873 0.0
H235 H 0.91232 0.87542 0.01635 0.0
H236 H 0.90117 0.89961 0.35403 0.0
H237 H 0.90682 0.89824 0.43397 0.0
H238 H 0.84996 0.8913 0.45136 0.0
H239 H 0.84442 0.89317 0.37179 0.0
C240 C 0.39089 0.64456 0.49456 0.0
Eu241 Eu 0.38299 0.63562 0.41401 0.0
C242 C 0.38803 0.63943 0.54132 0.0
C243 C 0.37175 0.64314 0.56066 0.0
C244 C 0.37004 0.64013 0.60596 0.0
C245 C 0.38457 0.63339 0.63298 0.0
C246 C 0.40067 0.62925 0.61335 0.0
C247 C 0.40238 0.6323 0.56813 0.0
C248 C 0.34926 0.6343 0.37537 0.0
C249 C 0.37786 0.59188 0.40927 0.0
C250 C 0.3732 0.61051 0.24488 0.0
Eu251 Eu 0.38111 0.61929 0.32568 0.0
C252 C 0.37601 0.61546 0.19802 0.0
C253 C 0.39225 0.61168 0.17859 0.0
C254 C 0.39386 0.6145 0.1332 0.0
C255 C 0.37928 0.62113 0.1062 0.0
C256 C 0.36322 0.62534 0.12591 0.0
C257 C 0.36159 0.62247 0.17121 0.0
C258 C 0.41485 0.62002 0.36388 0.0
C259 C 0.3866 0.66323 0.33275 0.0
O260 O 0.40084 0.63381 0.47285 0.0
O261 O 0.37736 0.65142 0.47047 0.0
O262 O 0.35501 0.6474 0.3993 0.0
O263 O 0.361 0.62206 0.37534 0.0
O264 O 0.38369 0.60553 0.43261 0.0
O265 O 0.37328 0.59433 0.36696 0.0
O266 O 0.36348 0.62148 0.26649 0.0
O267 O 0.38665 0.60354 0.26899 0.0
O268 O 0.40854 0.60699 0.34056 0.0
O269 O 0.40345 0.63268 0.36396 0.0
O270 O 0.38026 0.64998 0.30845 0.0
O271 O 0.39176 0.66001 0.37423 0.0
H272 H 0.36043 0.64874 0.54104 0.0
H273 H 0.35738 0.64326 0.6199 0.0
H274 H 0.4122 0.62428 0.63317 0.0
H275 H 0.41517 0.62956 0.55431 0.0
H276 H 0.4036 0.60616 0.19822 0.0
H277 H 0.4065 0.61133 0.11919 0.0
H278 H 0.35164 0.63022 0.10612 0.0
H279 H 0.34883 0.62525 0.18511 0.0
C280 C 0.6321 0.14381 0.52664 0.0
Eu281 Eu 0.64129 0.13476 0.60856 0.0
C282 C 0.63532 0.13896 0.48075 0.0
C283 C 0.64692 0.14963 0.45509 0.0
C284 C 0.64889 0.14626 0.41073 0.0
C285 C 0.6392 0.13221 0.39059 0.0
C286 C 0.62776 0.12138 0.4164 0.0
C287 C 0.62583 0.12471 0.46087 0.0
C288 C 0.67519 0.13369 0.6464 0.0
C289 C 0.64573 0.09053 0.62192 0.0
C290 C 0.6598 0.10731 0.78312 0.0
Eu291 Eu 0.64594 0.11695 0.70543 0.0
C292 C 0.65683 0.10982 0.83047 0.0
C293 C 0.64419 0.09925 0.85324 0.0
C294 C 0.64224 0.10104 0.89838 0.0
C295 C 0.65293 0.11339 0.92206 0.0
C296 C 0.66547 0.12403 0.89911 0.0
C297 C 0.66743 0.12222 0.85404 0.0
C298 C 0.61023 0.12266 0.68466 0.0
C299 C 0.63859 0.16056 0.68805 0.0
O300 O 0.62292 0.13242 0.55119 0.0
O301 O 0.64528 0.15151 0.54885 0.0
O302 O 0.66932 0.14674 0.6195 0.0
O303 O 0.6634 0.12149 0.64964 0.0
O304 O 0.64259 0.10498 0.59528 0.0
O305 O 0.64844 0.09168 0.66516 0.0
O306 O 0.66522 0.12154 0.75978 0.0
O307 O 0.64826 0.09728 0.76112 0.0
O308 O 0.6165 0.11545 0.72181 0.0
O309 O 0.62327 0.12629 0.66084 0.0
O310 O 0.64714 0.14775 0.713 0.0
O311 O 0.63178 0.15735 0.64836 0.0
H312 H 0.6542 0.1609 0.46907 0.0
H313 H 0.65763 0.15506 0.39186 0.0
H314 H 0.62022 0.11033 0.40219 0.0
H315 H 0.61666 0.11629 0.47943 0.0
H316 H 0.63594 0.08938 0.83639 0.0
H317 H 0.63263 0.09241 0.9149 0.0
H318 H 0.67377 0.13386 0.91592 0.0
H319 H 0.67741 0.13045 0.83769 0.0
C320 C 0.87512 0.40519 0.72548 0.0
Eu321 Eu 0.88277 0.39531 0.80786 0.0
C322 C 0.87715 0.40039 0.67919 0.0
C323 C 0.89379 0.40159 0.65929 0.0
C324 C 0.89493 0.39894 0.61423 0.0
C325 C 0.87945 0.39513 0.58795 0.0
C326 C 0.86292 0.39348 0.60828 0.0
C327 C 0.86179 0.39612 0.65322 0.0
C328 C 0.91665 0.39304 0.84554 0.0
C329 C 0.88699 0.35103 0.82129 0.0
C330 C 0.89137 0.36792 0.9807 0.0
Eu331 Eu 0.88408 0.37784 0.89826 0.0
C332 C 0.88969 0.37336 0.02669 0.0
C333 C 0.87318 0.37248 0.04725 0.0
C334 C 0.87231 0.37571 0.09208 0.0
C335 C 0.88793 0.37981 0.11752 0.0
C336 C 0.90433 0.38114 0.09654 0.0
C337 C 0.9052 0.3779 0.05181 0.0
C338 C 0.85037 0.38017 0.85879 0.0
C339 C 0.8806 0.42178 0.88759 0.0
O340 O 0.86467 0.39493 0.74943 0.0
O341 O 0.88923 0.41088 0.74796 0.0
O342 O 0.91058 0.40667 0.82091 0.0
O343 O 0.9048 0.38074 0.84794 0.0
O344 O 0.88125 0.36483 0.79494 0.0
O345 O 0.89191 0.35348 0.86262 0.0
O346 O 0.90245 0.37721 0.95627 0.0
O347 O 0.87688 0.36296 0.95851 0.0
O348 O 0.85604 0.36656 0.88413 0.0
O349 O 0.86229 0.39238 0.8575 0.0
O350 O 0.88609 0.40759 0.9125 0.0
O351 O 0.87589 0.42011 0.84557 0.0
H352 H 0.90588 0.40501 0.67821 0.0
H353 H 0.90786 0.4005 0.59973 0.0
H354 H 0.85077 0.39026 0.58937 0.0
H355 H 0.84877 0.39524 0.66753 0.0
H356 H 0.86098 0.36885 0.02905 0.0
H357 H 0.85947 0.37438 0.1071 0.0
H358 H 0.91659 0.38454 0.11479 0.0
H359 H 0.91814 0.37854 0.03705 0.0
C360 C 0.37386 0.1015 0.78927 0.0
Eu361 Eu 0.38598 0.11233 0.71361 0.0
C362 C 0.3769 0.10414 0.83711 0.0
C363 C 0.39201 0.0969 0.86109 0.0
C364 C 0.39406 0.09878 0.90663 0.0
C365 C 0.38106 0.10796 0.92931 0.0
C366 C 0.36603 0.11528 0.90516 0.0
C367 C 0.36395 0.11333 0.85975 0.0
C368 C 0.42093 0.11917 0.69349 0.0
C369 C 0.39164 0.15644 0.70024 0.0
C370 C 0.39433 0.14225 0.53659 0.0
Eu371 Eu 0.38776 0.13178 0.61743 0.0
C372 C 0.39224 0.13663 0.49034 0.0
C373 C 0.37829 0.14394 0.4624 0.0
C374 C 0.37718 0.14028 0.4177 0.0
C375 C 0.39009 0.12931 0.39951 0.0
C376 C 0.40384 0.12166 0.42769 0.0
C377 C 0.40494 0.12532 0.47248 0.0
C378 C 0.35507 0.12928 0.6538 0.0
C379 C 0.38493 0.08732 0.62817 0.0
O380 O 0.36715 0.11533 0.76529 0.0
O381 O 0.38598 0.09252 0.76907 0.0
O382 O 0.41627 0.11115 0.73006 0.0
O383 O 0.40683 0.12284 0.67064 0.0
O384 O 0.38474 0.1428 0.72408 0.0
O385 O 0.39691 0.15446 0.65986 0.0
O386 O 0.40594 0.1335 0.56325 0.0
O387 O 0.37979 0.14664 0.55609 0.0
O388 O 0.35994 0.14295 0.62862 0.0
O389 O 0.36718 0.11735 0.65635 0.0
O390 O 0.38806 0.10199 0.60288 0.0
O391 O 0.38209 0.08793 0.6708 0.0
H392 H 0.40223 0.08966 0.84481 0.0
H393 H 0.40589 0.09312 0.92404 0.0
H394 H 0.35561 0.12218 0.92151 0.0
H395 H 0.35204 0.11885 0.84235 0.0
H396 H 0.36838 0.15284 0.47488 0.0
H397 H 0.36623 0.14618 0.3973 0.0
H398 H 0.41415 0.11333 0.41489 0.0
H399 H 0.41601 0.11963 0.49283 0.0
C400 C 0.65887 0.61171 0.49025 0.0
Eu401 Eu 0.64974 0.62419 0.41127 0.0
C402 C 0.65656 0.6149 0.53689 0.0
C403 C 0.65506 0.63249 0.55221 0.0
C404 C 0.65384 0.63502 0.59722 0.0
C405 C 0.65411 0.61999 0.62753 0.0
C406 C 0.65518 0.60241 0.61169 0.0
C407 C 0.65641 0.59991 0.56684 0.0
C408 C 0.6449 0.65924 0.3804 0.0
C409 C 0.60678 0.62985 0.38491 0.0
C410 C 0.62672 0.62905 0.22813 0.0
Eu411 Eu 0.63512 0.62451 0.31188 0.0
C412 C 0.63416 0.63015 0.18389 0.0
C413 C 0.63796 0.61428 0.16211 0.0
C414 C 0.64251 0.6153 0.11813 0.0
C415 C 0.6433 0.63219 0.09479 0.0
C416 C 0.64012 0.6481 0.11706 0.0
C417 C 0.63554 0.64708 0.16106 0.0
C418 C 0.63586 0.59222 0.35955 0.0
C419 C 0.67845 0.6239 0.33343 0.0
O420 O 0.64475 0.60593 0.46771 0.0
O421 O 0.66847 0.6236 0.46805 0.0
O422 O 0.65068 0.65472 0.42025 0.0
O423 O 0.64191 0.64494 0.36009 0.0
O424 O 0.61895 0.62327 0.41484 0.0
O425 O 0.61087 0.63422 0.34411 0.0
O426 O 0.62992 0.64256 0.25387 0.0
O427 O 0.62692 0.61321 0.24948 0.0
O428 O 0.62275 0.59701 0.33193 0.0
O429 O 0.64767 0.60441 0.35977 0.0
O430 O 0.66505 0.62647 0.30372 0.0
O431 O 0.67577 0.62116 0.376 0.0
H432 H 0.65509 0.64426 0.52953 0.0
H433 H 0.65314 0.64875 0.60836 0.0
H434 H 0.65506 0.59053 0.63398 0.0
H435 H 0.65745 0.58622 0.55554 0.0
H436 H 0.6368 0.60099 0.17849 0.0
H437 H 0.64462 0.60276 0.10191 0.0
H438 H 0.64085 0.66134 0.10024 0.0
H439 H 0.63252 0.65953 0.1768 0.0
C440 C 0.14499 0.90597 0.28091 0.0
Eu441 Eu 0.13786 0.89706 0.1998 0.0
C442 C 0.14303 0.90034 0.32783 0.0
C443 C 0.12719 0.90408 0.34904 0.0
C444 C 0.1263 0.90107 0.39453 0.0
C445 C 0.14123 0.89431 0.42001 0.0
C446 C 0.15687 0.89002 0.39859 0.0
C447 C 0.15779 0.89308 0.35309 0.0
C448 C 0.10398 0.89549 0.16213 0.0
C449 C 0.13321 0.85304 0.1921 0.0
C450 C 0.13037 0.8721 0.03194 0.0
Eu451 Eu 0.13692 0.88127 0.11293 0.0
C452 C 0.13363 0.8772 0.98532 0.0
C453 C 0.14965 0.87237 0.96622 0.0
C454 C 0.15164 0.87524 0.92097 0.0
C455 C 0.13763 0.88292 0.89372 0.0
C456 C 0.12182 0.88819 0.9131 0.0
C457 C 0.11983 0.8853 0.95827 0.0
C458 C 0.17051 0.88287 0.15288 0.0
C459 C 0.14023 0.92519 0.11731 0.0
O460 O 0.15605 0.89682 0.25824 0.0
O461 O 0.13061 0.91115 0.25767 0.0
O462 O 0.11034 0.90897 0.18376 0.0
O463 O 0.11568 0.88309 0.16189 0.0
O464 O 0.13957 0.8662 0.21672 0.0
O465 O 0.12782 0.85665 0.15101 0.0
O466 O 0.11983 0.88258 0.0528 0.0
O467 O 0.14379 0.86566 0.05703 0.0
O468 O 0.16464 0.8694 0.13037 0.0
O469 O 0.15879 0.89522 0.15163 0.0
O470 O 0.13578 0.91127 0.0934 0.0
O471 O 0.14399 0.92298 0.16 0.0
H472 H 0.1156 0.90983 0.33075 0.0
H473 H 0.11396 0.90429 0.40986 0.0
H474 H 0.16869 0.88498 0.41722 0.0
H475 H 0.17028 0.89032 0.33789 0.0
H476 H 0.16052 0.86597 0.98596 0.0
H477 H 0.16408 0.87122 0.90726 0.0
H478 H 0.11066 0.89391 0.89311 0.0
H479 H 0.10721 0.8889 0.97182 0.0
C480 C 0.88052 0.60235 0.2813 0.0
Eu481 Eu 0.88637 0.61353 0.20031 0.0
C482 C 0.88168 0.60777 0.32786 0.0
C483 C 0.89792 0.60645 0.35323 0.0
C484 C 0.89845 0.60959 0.3983 0.0
C485 C 0.88273 0.61402 0.41939 0.0
C486 C 0.86657 0.6157 0.39374 0.0
C487 C 0.86604 0.61256 0.34869 0.0
C488 C 0.91903 0.61648 0.1644 0.0
C489 C 0.89013 0.65806 0.19214 0.0
C490 C 0.89142 0.6445 0.02955 0.0
Eu491 Eu 0.88583 0.63324 0.11052 0.0
C492 C 0.8898 0.63907 0.98304 0.0
C493 C 0.87338 0.64045 0.95841 0.0
C494 C 0.87248 0.63719 0.91337 0.0
C495 C 0.88798 0.63257 0.89164 0.0
C496 C 0.9043 0.63081 0.91659 0.0
C497 C 0.9052 0.63407 0.96157 0.0
C498 C 0.85351 0.6305 0.14831 0.0
C499 C 0.8823 0.58889 0.11679 0.0
O500 O 0.8683 0.61014 0.25462 0.0
O501 O 0.89546 0.59947 0.26191 0.0
O502 O 0.91371 0.60237 0.18737 0.0
O503 O 0.90721 0.62878 0.16298 0.0
O504 O 0.88506 0.64363 0.21615 0.0
O505 O 0.89411 0.6568 0.15069 0.0
O506 O 0.90362 0.63636 0.05569 0.0
O507 O 0.8767 0.6478 0.04957 0.0
O508 O 0.85858 0.64468 0.12514 0.0
O509 O 0.8652 0.61817 0.14835 0.0
O510 O 0.8866 0.60369 0.09342 0.0
O511 O 0.87931 0.58939 0.15919 0.0
H512 H 0.91019 0.60253 0.33857 0.0
H513 H 0.9111 0.60793 0.4169 0.0
H514 H 0.85423 0.61933 0.40853 0.0
H515 H 0.85327 0.6135 0.33032 0.0
H516 H 0.86127 0.6445 0.9736 0.0
H517 H 0.85971 0.63889 0.8953 0.0
H518 H 0.91648 0.62701 0.90131 0.0
H519 H 0.9181 0.63305 0.97937 0.0
C520 C 0.15787 0.10877 0.98648 0.0
Eu521 Eu 0.14953 0.12302 0.90864 0.0
C522 C 0.15475 0.11123 0.0331 0.0
C523 C 0.15206 0.12853 0.04917 0.0
C524 C 0.14997 0.13051 0.09409 0.0
C525 C 0.15044 0.11522 0.12361 0.0
C526 C 0.15282 0.09791 0.10707 0.0
C527 C 0.15496 0.09596 0.06226 0.0
C528 C 0.14434 0.15869 0.88257 0.0
C529 C 0.10699 0.12967 0.88136 0.0
C530 C 0.12807 0.13492 0.72565 0.0
Eu531 Eu 0.13553 0.12619 0.80823 0.0
C532 C 0.13379 0.13241 0.68069 0.0
C533 C 0.13736 0.11512 0.66551 0.0
C534 C 0.14103 0.11309 0.62138 0.0
C535 C 0.14126 0.12832 0.59173 0.0
C536 C 0.13823 0.14564 0.6075 0.0
C537 C 0.13451 0.14764 0.65148 0.0
C538 C 0.13623 0.09257 0.84977 0.0
C539 C 0.17882 0.12313 0.83151 0.0
O540 O 0.14412 0.10333 0.96206 0.0
O541 O 0.16768 0.12114 0.96645 0.0
O542 O 0.15002 0.15335 0.922 0.0
O543 O 0.1417 0.14484 0.86054 0.0
O544 O 0.11875 0.12158 0.91004 0.0
O545 O 0.11176 0.13612 0.84246 0.0
O546 O 0.13844 0.14475 0.75105 0.0
O547 O 0.121 0.12093 0.74665 0.0
O548 O 0.12374 0.09773 0.82077 0.0
O549 O 0.14776 0.1049 0.85337 0.0
O550 O 0.16562 0.12549 0.80113 0.0
O551 O 0.17587 0.12087 0.87409 0.0
H552 H 0.15173 0.1405 0.02709 0.0
H553 H 0.14794 0.144 0.1057 0.0
H554 H 0.15346 0.08589 0.12891 0.0
H555 H 0.15704 0.0825 0.05042 0.0
H556 H 0.13696 0.10314 0.68746 0.0
H557 H 0.14353 0.09959 0.61038 0.0
H558 H 0.13809 0.15762 0.58551 0.0
H559 H 0.1317 0.16108 0.66246 0.0
C560 C 0.64772 0.4033 0.78449 0.0
Eu561 Eu 0.63868 0.39524 0.70371 0.0
C562 C 0.64506 0.39841 0.83148 0.0
C563 C 0.62955 0.40374 0.85206 0.0
C564 C 0.62825 0.40107 0.89757 0.0
C565 C 0.64246 0.39309 0.92361 0.0
C566 C 0.65774 0.38729 0.90274 0.0
C567 C 0.65904 0.38999 0.85729 0.0
C568 C 0.60398 0.39346 0.67116 0.0
C569 C 0.63408 0.35134 0.694 0.0
C570 C 0.62795 0.37193 0.53489 0.0
Eu571 Eu 0.6359 0.38035 0.61587 0.0
C572 C 0.63101 0.37709 0.48821 0.0
C573 C 0.64645 0.37136 0.46794 0.0
C574 C 0.64812 0.37433 0.42263 0.0
C575 C 0.63434 0.38299 0.39644 0.0
C576 C 0.61916 0.38918 0.417 0.0
C577 C 0.61749 0.38622 0.46227 0.0
C578 C 0.67039 0.38245 0.65096 0.0
C579 C 0.63882 0.424 0.62204 0.0
O580 O 0.65671 0.39198 0.7621 0.0
O581 O 0.63444 0.41097 0.76117 0.0
O582 O 0.6106 0.40649 0.69395 0.0
O583 O 0.61579 0.38136 0.66782 0.0
O584 O 0.64095 0.36429 0.71851 0.0
O585 O 0.62771 0.35531 0.65382 0.0
O586 O 0.61824 0.38283 0.55678 0.0
O587 O 0.64125 0.36466 0.55898 0.0
O588 O 0.66437 0.36929 0.62766 0.0
O589 O 0.65839 0.39437 0.65251 0.0
O590 O 0.63276 0.41037 0.5991 0.0
O591 O 0.64483 0.42114 0.66331 0.0
H592 H 0.6186 0.41047 0.83329 0.0
H593 H 0.61638 0.40589 0.91252 0.0
H594 H 0.66882 0.38086 0.92162 0.0
H595 H 0.67123 0.38589 0.84248 0.0
H596 H 0.65703 0.36408 0.48679 0.0
H597 H 0.65991 0.36919 0.40787 0.0
H598 H 0.60841 0.39613 0.39798 0.0
H599 H 0.60535 0.39066 0.47677 0.0
C600 C 0.37264 0.90613 0.22587 0.0
Eu601 Eu 0.38119 0.89655 0.30795 0.0
C602 C 0.37498 0.90138 0.17967 0.0
C603 C 0.39194 0.90153 0.16125 0.0
C604 C 0.39351 0.89881 0.11635 0.0
C605 C 0.37818 0.89589 0.08878 0.0
C606 C 0.36129 0.89534 0.1076 0.0
C607 C 0.35973 0.8981 0.1524 0.0
C608 C 0.41549 0.89428 0.34331 0.0
C609 C 0.3859 0.85238 0.32222 0.0
C610 C 0.39078 0.86975 0.48127 0.0
Eu611 Eu 0.38351 0.87947 0.39863 0.0
C612 C 0.38864 0.8751 0.52715 0.0
C613 C 0.37175 0.87526 0.54587 0.0
C614 C 0.37032 0.87846 0.59057 0.0
C615 C 0.38574 0.88156 0.61769 0.0
C616 C 0.40257 0.88183 0.59857 0.0
C617 C 0.40398 0.87859 0.55396 0.0
C618 C 0.34948 0.88187 0.36079 0.0
C619 C 0.38068 0.92328 0.38667 0.0
O620 O 0.36278 0.89532 0.25008 0.0
O621 O 0.38647 0.9126 0.24805 0.0
O622 O 0.40924 0.90778 0.31849 0.0
O623 O 0.40362 0.88207 0.34689 0.0
O624 O 0.37951 0.86596 0.29609 0.0
O625 O 0.39151 0.85514 0.36296 0.0
O626 O 0.40167 0.87942 0.45714 0.0
O627 O 0.37657 0.86435 0.45872 0.0
O628 O 0.35538 0.86814 0.38531 0.0
O629 O 0.36139 0.89403 0.35918 0.0
O630 O 0.38708 0.90932 0.41102 0.0
O631 O 0.37426 0.9212 0.34606 0.0
H632 H 0.40398 0.90404 0.1813 0.0
H633 H 0.40675 0.89908 0.10319 0.0
H634 H 0.34916 0.89337 0.08744 0.0
H635 H 0.34648 0.89813 0.16557 0.0
H636 H 0.35963 0.87258 0.52625 0.0
H637 H 0.35712 0.87839 0.60395 0.0
H638 H 0.41476 0.88393 0.6184 0.0
H639 H 0.4172 0.87833 0.54063 0.0
H640 H 0.16379 0.61768 0.84818 0.0
H641 H 0.16618 0.61452 0.76905 0.0
H642 H 0.11316 0.63708 0.74558 0.0
H643 H 0.11087 0.64086 0.82426 0.0
H644 H 0.14467 0.59495 0.71013 0.0
H645 H 0.14295 0.66862 0.66283 0.0
H646 H 0.14677 0.6602 0.719 0.0
H647 H 0.1244 0.66091 0.69428 0.0
C648 C 0.1527 0.62216 0.82619 0.0
C649 C 0.13716 0.62961 0.84282 0.0
C650 C 0.15405 0.62023 0.78093 0.0
C651 C 0.13997 0.62582 0.7512 0.0
C652 C 0.12434 0.63298 0.7677 0.0
H653 H 0.12331 0.62794 0.46591 0.0
H654 H 0.12019 0.62988 0.5451 0.0
C655 C 0.12297 0.63491 0.81289 0.0
C656 C 0.14153 0.62399 0.70304 0.0
H657 H 0.14105 0.6483 0.60468 0.0
C658 C 0.14396 0.60662 0.68708 0.0
C659 C 0.14054 0.63921 0.67289 0.0
C660 C 0.13869 0.65831 0.68803 0.0
C661 C 0.1451 0.60401 0.64185 0.0
C662 C 0.14416 0.61925 0.61169 0.0
C663 C 0.14172 0.63662 0.62768 0.0
C664 C 0.14589 0.61753 0.56351 0.0
C665 C 0.14688 0.5849 0.62675 0.0
C666 C 0.16143 0.61007 0.54727 0.0
C667 C 0.16319 0.60878 0.502 0.0
C668 C 0.14952 0.61511 0.47169 0.0
C669 C 0.134 0.62268 0.48811 0.0
C670 C 0.13224 0.62392 0.53345 0.0
H671 H 0.14218 0.57467 0.6516 0.0
H672 H 0.13912 0.58312 0.59527 0.0
H673 H 0.16121 0.58208 0.62158 0.0
H674 H 0.17233 0.60538 0.56962 0.0
H675 H 0.17526 0.6027 0.4908 0.0
H676 H 0.64117 0.86686 0.05845 0.0
H677 H 0.6398 0.86479 0.97851 0.0
H678 H 0.64781 0.92271 0.96314 0.0
H679 H 0.64975 0.92484 0.04305 0.0
H680 H 0.61614 0.88199 0.91532 0.0
H681 H 0.68682 0.90218 0.88892 0.0
H682 H 0.67903 0.89549 0.94247 0.0
H683 H 0.67426 0.91786 0.91885 0.0
C684 C 0.64281 0.87915 0.03811 0.0
C685 C 0.64568 0.89601 0.05728 0.0
C686 C 0.64191 0.87795 0.9924 0.0
C687 C 0.64397 0.89355 0.96485 0.0
C688 C 0.6465 0.91045 0.98376 0.0
H689 H 0.64548 0.90959 0.6792 0.0
H690 H 0.64592 0.91388 0.75843 0.0
C691 C 0.64739 0.91167 0.02949 0.0
C692 C 0.64327 0.8921 0.91635 0.0
H693 H 0.66803 0.89842 0.82532 0.0
C694 C 0.62749 0.88555 0.89563 0.0
C695 C 0.65806 0.89683 0.89068 0.0
C696 C 0.67558 0.90334 0.91128 0.0
C697 C 0.62605 0.88374 0.84993 0.0
C698 C 0.64093 0.88824 0.82431 0.0
C699 C 0.65664 0.89498 0.84497 0.0
C700 C 0.6406 0.88565 0.77619 0.0
C701 C 0.60849 0.87731 0.82945 0.0
C702 C 0.63773 0.86832 0.75984 0.0
C703 C 0.63732 0.86585 0.71463 0.0
C704 C 0.63997 0.88063 0.68464 0.0
C705 C 0.64314 0.89795 0.70121 0.0
C706 C 0.6435 0.90041 0.74653 0.0
H707 H 0.59713 0.87957 0.85089 0.0
H708 H 0.6055 0.88436 0.79698 0.0
H709 H 0.60933 0.8625 0.82457 0.0
H710 H 0.63582 0.85666 0.7821 0.0
H711 H 0.63465 0.85236 0.70319 0.0
H712 H 0.35985 0.3984 0.35841 0.0
H713 H 0.36009 0.3997 0.27803 0.0
H714 H 0.40477 0.36252 0.28424 0.0
H715 H 0.40431 0.36069 0.36438 0.0
H716 H 0.38783 0.40999 0.22176 0.0
H717 H 0.36755 0.33801 0.20282 0.0
H718 H 0.36546 0.34939 0.25351 0.0
H719 H 0.38693 0.34112 0.23892 0.0
C720 C 0.36968 0.39043 0.34267 0.0
C721 C 0.382 0.37938 0.36789 0.0
C722 C 0.36985 0.39126 0.29676 0.0
C723 C 0.38225 0.38097 0.27518 0.0
C724 C 0.39488 0.37032 0.30021 0.0
H725 H 0.40079 0.36584 0.99905 0.0
H726 H 0.40239 0.36493 0.0796 0.0
C727 C 0.39473 0.36948 0.34608 0.0
C728 C 0.38195 0.38135 0.22647 0.0
H729 H 0.37564 0.35463 0.13837 0.0
C730 C 0.38512 0.39791 0.20349 0.0
C731 C 0.37845 0.36555 0.20276 0.0
C732 C 0.37424 0.34753 0.22564 0.0
C733 C 0.3851 0.39906 0.15738 0.0
C734 C 0.3815 0.38327 0.13366 0.0
C735 C 0.37843 0.36669 0.15665 0.0
C736 C 0.38049 0.38378 0.08493 0.0
C737 C 0.38924 0.41709 0.13449 0.0
C738 C 0.36745 0.39442 0.06129 0.0
C739 C 0.36654 0.39502 0.01538 0.0
C740 C 0.37858 0.38487 0.9921 0.0
C741 C 0.39145 0.37397 0.01594 0.0
C742 C 0.39234 0.37337 0.06194 0.0
H743 H 0.39633 0.42643 0.15706 0.0
H744 H 0.39763 0.41522 0.10588 0.0
H745 H 0.37649 0.42368 0.12232 0.0
H746 H 0.35796 0.4023 0.07837 0.0
H747 H 0.35659 0.40372 0.99814 0.0
H748 H 0.85276 0.10677 0.54557 0.0
H749 H 0.85429 0.10933 0.46563 0.0
H750 H 0.90323 0.14031 0.47874 0.0
H751 H 0.90174 0.138 0.55881 0.0
H752 H 0.85477 0.14014 0.40863 0.0
H753 H 0.91711 0.09981 0.39926 0.0
H754 H 0.90445 0.0999 0.44828 0.0
H755 H 0.91918 0.11852 0.43494 0.0
C756 C 0.86378 0.1143 0.53156 0.0
C757 C 0.87715 0.12215 0.55887 0.0
C758 C 0.86467 0.11565 0.48576 0.0
C759 C 0.87901 0.12476 0.4661 0.0
C760 C 0.89225 0.13285 0.49312 0.0
H761 H 0.90882 0.14826 0.19745 0.0
H762 H 0.90677 0.14561 0.27721 0.0
C763 C 0.89137 0.13152 0.53897 0.0
C764 C 0.87996 0.12596 0.41735 0.0
H765 H 0.90596 0.11481 0.33313 0.0
C766 C 0.86592 0.13453 0.39209 0.0
C767 C 0.89451 0.11863 0.39574 0.0
C768 C 0.90961 0.10854 0.42083 0.0
C769 C 0.8662 0.13632 0.34598 0.0
C770 C 0.88078 0.12903 0.32438 0.0
C771 C 0.8948 0.12041 0.34965 0.0
C772 C 0.88189 0.13043 0.27567 0.0
C773 C 0.85112 0.14642 0.32089 0.0
C774 C 0.86871 0.12256 0.24807 0.0
C775 C 0.86989 0.12396 0.20229 0.0
C776 C 0.88436 0.13316 0.18306 0.0
C777 C 0.89762 0.14085 0.21094 0.0
C778 C 0.89643 0.13945 0.25664 0.0
H779 H 0.84357 0.15509 0.3425 0.0
H780 H 0.8563 0.15513 0.29358 0.0
H781 H 0.84158 0.13646 0.3066 0.0
H782 H 0.85758 0.11517 0.26196 0.0
H783 H 0.85958 0.11762 0.18197 0.0
H784 H 0.11242 0.37503 0.19959 0.0
H785 H 0.11434 0.37889 0.27887 0.0
H786 H 0.17 0.39419 0.27146 0.0
H787 H 0.16808 0.39089 0.19186 0.0
H788 H 0.13686 0.36057 0.34189 0.0
H789 H 0.14928 0.43497 0.34076 0.0
H790 H 0.14109 0.42362 0.29254 0.0
H791 H 0.1645 0.42255 0.3094 0.0
C792 C 0.125 0.37953 0.21462 0.0
C793 C 0.14006 0.38278 0.18915 0.0
C794 C 0.12611 0.38159 0.26006 0.0
C795 C 0.14224 0.38706 0.28109 0.0
C796 C 0.15732 0.39027 0.25588 0.0
H797 H 0.17673 0.40466 0.55189 0.0
H798 H 0.17437 0.40169 0.47238 0.0
C799 C 0.15624 0.38819 0.2104 0.0
C800 C 0.1434 0.38879 0.32958 0.0
H801 H 0.15207 0.4189 0.40993 0.0
C802 C 0.1401 0.37334 0.3568 0.0
C803 C 0.14768 0.40544 0.349 0.0
C804 C 0.15069 0.42265 0.3215 0.0
C805 C 0.1413 0.374 0.40285 0.0
C806 C 0.14554 0.39067 0.42232 0.0
C807 C 0.14882 0.40612 0.39506 0.0
C808 C 0.14683 0.39234 0.47086 0.0
C809 C 0.13848 0.35671 0.43019 0.0
C810 C 0.13207 0.38829 0.49661 0.0
C811 C 0.13343 0.38977 0.54228 0.0
C812 C 0.14956 0.3955 0.56324 0.0
C813 C 0.16421 0.39986 0.53715 0.0
C814 C 0.16285 0.39832 0.49155 0.0
H815 H 0.14029 0.34445 0.41095 0.0
H816 H 0.1479 0.35588 0.45949 0.0
H817 H 0.12457 0.35647 0.44166 0.0
H818 H 0.11944 0.38402 0.48136 0.0
H819 H 0.12189 0.3862 0.56118 0.0
H820 H 0.91236 0.86879 0.86953 0.0
H821 H 0.9141 0.87254 0.78972 0.0
H822 H 0.86717 0.90678 0.78365 0.0
H823 H 0.86568 0.90362 0.86352 0.0
H824 H 0.88826 0.86213 0.72834 0.0
H825 H 0.90122 0.9361 0.70747 0.0
H826 H 0.90409 0.92381 0.75994 0.0
H827 H 0.88207 0.93079 0.73927 0.0
C828 C 0.90266 0.87748 0.85138 0.0
C829 C 0.8889 0.88595 0.87303 0.0
C830 C 0.9036 0.8795 0.80569 0.0
C831 C 0.89091 0.89011 0.78073 0.0
C832 C 0.87733 0.89881 0.80227 0.0
H833 H 0.85881 0.91117 0.5091 0.0
H834 H 0.86304 0.90963 0.58906 0.0
C835 C 0.87637 0.89681 0.84793 0.0
C836 C 0.89112 0.89113 0.732 0.0
H837 H 0.89194 0.92085 0.64272 0.0
C838 C 0.88928 0.87494 0.70959 0.0
C839 C 0.89242 0.90786 0.7076 0.0
C840 C 0.89523 0.92562 0.72977 0.0
C841 C 0.88806 0.87508 0.66346 0.0
C842 C 0.88901 0.89185 0.63907 0.0
C843 C 0.89119 0.90801 0.66147 0.0
C844 C 0.88694 0.893 0.59036 0.0
C845 C 0.88506 0.85734 0.64129 0.0
C846 C 0.89913 0.88438 0.56441 0.0
C847 C 0.89665 0.88509 0.51855 0.0
C848 C 0.88197 0.89451 0.49779 0.0
C849 C 0.87006 0.90349 0.52397 0.0
C850 C 0.87254 0.90276 0.56971 0.0
H851 H 0.88055 0.84639 0.66454 0.0
H852 H 0.8749 0.85895 0.61359 0.0
H853 H 0.89784 0.85294 0.62786 0.0
H854 H 0.91052 0.87704 0.57962 0.0
H855 H 0.90604 0.87797 0.49945 0.0
H856 H 0.36881 0.65675 0.68706 0.0
H857 H 0.36801 0.65439 0.76721 0.0
H858 H 0.39666 0.60357 0.76941 0.0
H859 H 0.39746 0.60577 0.6892 0.0
H860 H 0.35363 0.62759 0.82295 0.0
H861 H 0.42731 0.63346 0.85433 0.0
H862 H 0.41649 0.63887 0.80118 0.0
H863 H 0.4206 0.61558 0.81896 0.0
C864 C 0.37477 0.64496 0.7045 0.0
C865 C 0.38328 0.63148 0.68162 0.0
C866 C 0.37439 0.64369 0.75037 0.0
C867 C 0.38256 0.62898 0.77439 0.0
C868 C 0.39066 0.61527 0.75166 0.0
H869 H 0.39498 0.59763 0.05236 0.0
H870 H 0.39568 0.59978 0.97217 0.0
C871 C 0.39108 0.61654 0.70578 0.0
C872 C 0.3825 0.62798 0.82318 0.0
H873 H 0.40999 0.62645 0.91614 0.0
C874 C 0.36595 0.62741 0.84335 0.0
C875 C 0.39859 0.62774 0.84976 0.0
C876 C 0.41676 0.62911 0.83007 0.0
C877 C 0.36504 0.62629 0.88933 0.0
C878 C 0.38112 0.62606 0.91591 0.0
C879 C 0.39767 0.62662 0.89574 0.0
C880 C 0.38107 0.62514 0.96471 0.0
C881 C 0.34686 0.62492 0.90902 0.0
C882 C 0.37297 0.6389 0.98729 0.0
C883 C 0.37261 0.63775 0.03318 0.0
C884 C 0.38048 0.62289 0.05751 0.0
C885 C 0.38897 0.60936 0.03478 0.0
C886 C 0.38929 0.61051 0.98889 0.0
H887 H 0.33633 0.62051 0.8848 0.0
H888 H 0.34715 0.61522 0.93801 0.0
H889 H 0.34299 0.63847 0.91996 0.0
H890 H 0.36693 0.65055 0.9694 0.0
H891 H 0.36623 0.64856 0.04963 0.0
H892 H 0.67977 0.11833 0.98539 0.0
H893 H 0.67699 0.12099 0.06439 0.0
H894 H 0.61964 0.1145 0.04827 0.0
H895 H 0.62223 0.11207 0.96906 0.0
H896 H 0.65759 0.14645 0.10881 0.0
H897 H 0.63323 0.07638 0.14642 0.0
H898 H 0.64329 0.08289 0.0953 0.0
H899 H 0.62037 0.08877 0.10373 0.0
C900 C 0.66652 0.1176 0.99844 0.0
C901 C 0.65123 0.11495 0.97053 0.0
C902 C 0.66497 0.11902 0.04378 0.0
C903 C 0.64814 0.11768 0.0625 0.0
C904 C 0.63283 0.11516 0.03483 0.0
H905 H 0.61225 0.12423 0.32987 0.0
H906 H 0.6145 0.12074 0.25088 0.0
C907 C 0.63435 0.11377 0.98943 0.0
C908 C 0.64662 0.11938 0.11077 0.0
H909 H 0.63333 0.09676 0.20433 0.0
C910 C 0.65235 0.13556 0.12972 0.0
C911 C 0.63971 0.1052 0.13811 0.0
C912 C 0.63393 0.08725 0.12006 0.0
C913 C 0.65112 0.13806 0.17496 0.0
C914 C 0.64435 0.12383 0.20242 0.0
C915 C 0.63855 0.10767 0.18342 0.0
C916 C 0.64315 0.12547 0.25084 0.0
C917 C 0.65668 0.15614 0.1927 0.0
C918 C 0.65855 0.12891 0.27754 0.0
C919 C 0.65731 0.13089 0.32279 0.0
C920 C 0.64066 0.12931 0.34262 0.0
C921 C 0.62533 0.12539 0.31594 0.0
C922 C 0.62657 0.12347 0.27064 0.0
H923 H 0.65662 0.16707 0.16632 0.0
H924 H 0.64766 0.16021 0.21849 0.0
H925 H 0.67054 0.15503 0.20747 0.0
H926 H 0.67158 0.13002 0.26338 0.0
H927 H 0.66945 0.13355 0.34233 0.0
H928 H 0.86206 0.39678 0.16259 0.0
H929 H 0.86091 0.39972 0.24211 0.0
H930 H 0.91095 0.37069 0.2618 0.0
H931 H 0.91215 0.36755 0.18263 0.0
H932 H 0.86018 0.37258 0.30867 0.0
H933 H 0.92058 0.41588 0.3317 0.0
H934 H 0.91002 0.4124 0.27827 0.0
H935 H 0.92465 0.39534 0.30428 0.0
C936 C 0.87281 0.39097 0.1838 0.0
C937 C 0.88727 0.38203 0.16595 0.0
C938 C 0.87217 0.39274 0.22929 0.0
C939 C 0.88599 0.38571 0.25798 0.0
C940 C 0.90035 0.37665 0.24035 0.0
H941 H 0.90556 0.37868 0.54261 0.0
H942 H 0.90694 0.37628 0.46296 0.0
C943 C 0.90101 0.37488 0.19493 0.0
C944 C 0.88513 0.3873 0.30641 0.0
H945 H 0.90772 0.40365 0.39653 0.0
C946 C 0.87052 0.37947 0.32783 0.0
C947 C 0.89865 0.39623 0.33153 0.0
C948 C 0.91429 0.40559 0.3103 0.0
C949 C 0.86924 0.38001 0.37365 0.0
C950 C 0.88277 0.38892 0.39878 0.0
C951 C 0.89738 0.39677 0.37735 0.0
C952 C 0.88192 0.39043 0.44723 0.0
C953 C 0.85361 0.37064 0.39487 0.0
C954 C 0.86755 0.39943 0.46497 0.0
C955 C 0.86676 0.40088 0.51046 0.0
C956 C 0.88038 0.39346 0.5394 0.0
C957 C 0.8949 0.38466 0.52143 0.0
C958 C 0.89567 0.38321 0.47586 0.0
H959 H 0.84727 0.3604 0.3734 0.0
H960 H 0.85789 0.36377 0.42681 0.0
H961 H 0.84327 0.38091 0.40106 0.0
H962 H 0.85701 0.40553 0.44358 0.0
H963 H 0.85558 0.40812 0.52288 0.0
H964 H 0.39755 0.0981 0.35724 0.0
H965 H 0.39732 0.09391 0.27796 0.0
H966 H 0.38059 0.14956 0.25299 0.0
H967 H 0.38141 0.15406 0.33183 0.0
H968 H 0.36954 0.09735 0.2149 0.0
H969 H 0.42344 0.1467 0.17629 0.0
H970 H 0.41932 0.13873 0.23177 0.0
H971 H 0.4056 0.1564 0.20503 0.0
C972 C 0.39403 0.10953 0.33491 0.0
C973 C 0.38956 0.12645 0.35117 0.0
C974 C 0.39379 0.10707 0.28953 0.0
C975 C 0.38923 0.1215 0.25936 0.0
C976 C 0.38452 0.13831 0.27547 0.0
H977 H 0.37371 0.13761 0.97683 0.0
H978 H 0.37584 0.14007 0.05666 0.0
C979 C 0.38475 0.14079 0.32074 0.0
C980 C 0.38902 0.11894 0.21108 0.0
H981 H 0.40613 0.1358 0.11529 0.0
C982 C 0.37765 0.10565 0.19317 0.0
C983 C 0.39962 0.12975 0.18262 0.0
C984 C 0.41282 0.14357 0.19989 0.0
C985 C 0.3762 0.10327 0.14759 0.0
C986 C 0.38659 0.11428 0.1191 0.0
C987 C 0.39811 0.12741 0.13706 0.0
C988 C 0.38546 0.11263 0.07051 0.0
C989 C 0.36315 0.08934 0.13016 0.0
C990 C 0.39041 0.09647 0.05153 0.0
C991 C 0.38917 0.095 1.00581 0.0
C992 C 0.38296 0.10968 0.97799 0.0
C993 C 0.37828 0.12594 0.99717 0.0
C994 C 0.37959 0.12741 0.04284 0.0
H995 H 0.35325 0.08509 0.15477 0.0
H996 H 0.35578 0.09473 0.09988 0.0
H997 H 0.37067 0.07709 0.12179 0.0
H998 H 0.39527 0.08498 0.0721 0.0
H999 H 0.39277 0.08223 0.99232 0.0
H1000 H 0.66664 0.612 0.04992 0.0
H1001 H 0.66938 0.61162 0.9703 0.0
H1002 H 0.62934 0.65371 0.95139 0.0
H1003 H 0.6263 0.65402 0.03076 0.0
H1004 H 0.641 0.60389 0.90921 0.0
H1005 H 0.67004 0.67232 0.8741 0.0
H1006 H 0.67052 0.66163 0.92866 0.0
H1007 H 0.65027 0.67212 0.90565 0.0
C1008 C 0.65846 0.62123 0.02886 0.0
C1009 C 0.64626 0.63305 0.0468 0.0
C1010 C 0.66011 0.62105 0.9834 0.0
C1011 C 0.64971 0.63278 0.95501 0.0
C1012 C 0.63777 0.64482 0.97276 0.0
H1013 H 0.63358 0.64392 0.67015 0.0
H1014 H 0.63245 0.64731 0.74959 0.0
C1015 C 0.63608 0.64499 0.0182 0.0
C1016 C 0.6505 0.63155 0.90677 0.0
H1017 H 0.66038 0.65563 0.81251 0.0
C1018 C 0.64533 0.61517 0.88807 0.0
C1019 C 0.65599 0.64634 0.87931 0.0
C1020 C 0.66217 0.66407 0.89785 0.0
C1021 C 0.64534 0.61321 0.84253 0.0
C1022 C 0.65101 0.62794 0.81506 0.0
C1023 C 0.65605 0.64438 0.8337 0.0
C1024 C 0.6521 0.62634 0.767 0.0
C1025 C 0.63897 0.59552 0.82411 0.0
C1026 C 0.66379 0.61371 0.75055 0.0
C1027 C 0.66452 0.61179 0.70534 0.0
C1028 C 0.65361 0.62253 0.67557 0.0
C1029 C 0.64222 0.63551 0.69215 0.0
C1030 C 0.6415 0.63742 0.73749 0.0
H1031 H 0.63073 0.58755 0.84763 0.0
H1032 H 0.63091 0.59795 0.79287 0.0
H1033 H 0.65078 0.58715 0.81725 0.0
H1034 H 0.67239 0.60532 0.77274 0.0
H1035 H 0.67374 0.60196 0.69368 0.0
H1036 H 0.12688 0.91815 0.47507 0.0
H1037 H 0.12691 0.91595 0.55528 0.0
H1038 H 0.15461 0.86461 0.55612 0.0
H1039 H 0.15466 0.86672 0.47573 0.0
H1040 H 0.11228 0.89005 0.61088 0.0
H1041 H 0.18617 0.89301 0.64126 0.0
H1042 H 0.17544 0.89859 0.5881 0.0
H1043 H 0.17874 0.87522 0.60638 0.0
C1044 C 0.13285 0.9063 0.49223 0.0
C1045 C 0.1408 0.89262 0.46888 0.0
C1046 C 0.13295 0.90512 0.53815 0.0
C1047 C 0.14103 0.89028 0.56183 0.0
C1048 C 0.14869 0.87642 0.53866 0.0
H1049 H 0.15209 0.85851 0.84002 0.0
H1050 H 0.15304 0.86056 0.75988 0.0
C1051 C 0.14867 0.87762 0.49268 0.0
C1052 C 0.14113 0.88922 0.61068 0.0
H1053 H 0.16878 0.88667 0.70337 0.0
C1054 C 0.12463 0.88938 0.6311 0.0
C1055 C 0.15726 0.88834 0.63708 0.0
C1056 C 0.17542 0.88895 0.61719 0.0
C1057 C 0.12381 0.88841 0.6771 0.0
C1058 C 0.13994 0.88756 0.70348 0.0
C1059 C 0.15644 0.88733 0.68311 0.0
C1060 C 0.13995 0.88676 0.75229 0.0
C1061 C 0.10566 0.88792 0.69705 0.0
C1062 C 0.13265 0.90101 0.77478 0.0
C1063 C 0.13217 0.89993 0.82066 0.0
C1064 C 0.1391 0.88462 0.84507 0.0
C1065 C 0.14683 0.8706 0.82241 0.0
C1066 C 0.14729 0.87169 0.77654 0.0
H1067 H 0.09485 0.88405 0.67295 0.0
H1068 H 0.10559 0.87819 0.72596 0.0
H1069 H 0.1025 0.90163 0.70822 0.0
H1070 H 0.12729 0.91297 0.75682 0.0
H1071 H 0.12641 0.91112 0.83703 0.0
H1072 H 0.91278 0.64355 0.83191 0.0
H1073 H 0.91145 0.6402 0.75247 0.0
H1074 H 0.86032 0.61312 0.76105 0.0
H1075 H 0.86158 0.61629 0.84069 0.0
H1076 H 0.90936 0.60935 0.70403 0.0
H1077 H 0.84944 0.65272 0.66591 0.0
H1078 H 0.86157 0.65241 0.71854 0.0
H1079 H 0.84599 0.6345 0.70583 0.0
C1080 C 0.90129 0.63672 0.8171 0.0
C1081 C 0.88726 0.63023 0.84301 0.0
C1082 C 0.90052 0.63491 0.77149 0.0
C1083 C 0.88565 0.62667 0.75048 0.0
C1084 C 0.87174 0.61993 0.77622 0.0
H1085 H 0.85756 0.60282 0.47807 0.0
H1086 H 0.85846 0.60588 0.55765 0.0
C1087 C 0.87249 0.62174 0.82188 0.0
C1088 C 0.88493 0.62491 0.7018 0.0
H1089 H 0.86032 0.63654 0.6072 0.0
C1090 C 0.89867 0.61536 0.68286 0.0
C1091 C 0.87097 0.63271 0.67403 0.0
C1092 C 0.85623 0.64381 0.69195 0.0
C1093 C 0.89869 0.61316 0.63723 0.0
C1094 C 0.88477 0.62101 0.60944 0.0
C1095 C 0.871 0.63051 0.62838 0.0
C1096 C 0.88422 0.61947 0.5607 0.0
C1097 C 0.91343 0.60205 0.61932 0.0
C1098 C 0.89824 0.62638 0.53551 0.0
C1099 C 0.89772 0.62474 0.48982 0.0
C1100 C 0.8831 0.61626 0.46806 0.0
C1101 C 0.86894 0.60964 0.49339 0.0
C1102 C 0.86948 0.61128 0.53906 0.0
H1103 H 0.92011 0.59303 0.6453 0.0
H1104 H 0.90812 0.59357 0.59247 0.0
H1105 H 0.92376 0.61135 0.60581 0.0
H1106 H 0.90956 0.63317 0.55117 0.0
H1107 H 0.90872 0.63031 0.47149 0.0
H1108 H 0.12654 0.10244 0.53938 0.0
H1109 H 0.12902 0.10009 0.46011 0.0
H1110 H 0.16326 0.14739 0.45667 0.0
H1111 H 0.16125 0.14956 0.53611 0.0
H1112 H 0.11846 0.12677 0.3952 0.0
H1113 H 0.19096 0.11062 0.38867 0.0
H1114 H 0.179 0.10829 0.43878 0.0
H1115 H 0.18617 0.13033 0.41865 0.0
C1116 C 0.13491 0.11212 0.52194 0.0
C1117 C 0.14375 0.12616 0.54413 0.0
C1118 C 0.13619 0.11084 0.47659 0.0
C1119 C 0.14645 0.12345 0.45258 0.0
C1120 C 0.15549 0.13734 0.47465 0.0
H1121 H 0.16622 0.14095 0.17487 0.0
H1122 H 0.16453 0.14357 0.25434 0.0
C1123 C 0.15419 0.13866 0.51999 0.0
C1124 C 0.14698 0.12259 0.40416 0.0
H1125 H 0.17519 0.1174 0.32056 0.0
C1126 C 0.13084 0.12463 0.37885 0.0
C1127 C 0.16317 0.11991 0.38296 0.0
C1128 C 0.18081 0.117 0.40859 0.0
C1129 C 0.13048 0.12429 0.33282 0.0
C1130 C 0.14666 0.12152 0.31163 0.0
C1131 C 0.16281 0.11955 0.33691 0.0
C1132 C 0.14708 0.1203 0.26327 0.0
C1133 C 0.11285 0.12726 0.30722 0.0
C1134 C 0.13785 0.10633 0.24198 0.0
C1135 C 0.13871 0.10485 0.1966 0.0
C1136 C 0.14889 0.11727 0.17159 0.0
C1137 C 0.15805 0.13132 0.19304 0.0
C1138 C 0.15721 0.13276 0.23848 0.0
H1139 H 0.10281 0.1339 0.327 0.0
H1140 H 0.11469 0.13576 0.27673 0.0
H1141 H 0.10731 0.11392 0.29773 0.0
H1142 H 0.13017 0.0964 0.26058 0.0
H1143 H 0.13139 0.09396 0.18107 0.0
H1144 H 0.60743 0.37787 0.334 0.0
H1145 H 0.60927 0.37977 0.25414 0.0
H1146 H 0.66537 0.39373 0.26827 0.0
H1147 H 0.66364 0.39195 0.34835 0.0
H1148 H 0.61885 0.4087 0.19823 0.0
H1149 H 0.66574 0.35078 0.18808 0.0
H1150 H 0.6541 0.35497 0.2372 0.0
H1151 H 0.67364 0.36809 0.22384 0.0
C1152 C 0.62013 0.38153 0.32021 0.0
C1153 C 0.6354 0.38473 0.34771 0.0
C1154 C 0.62118 0.38251 0.27449 0.0
C1155 C 0.63752 0.3866 0.25519 0.0
C1156 C 0.65272 0.39013 0.28243 0.0
H1157 H 0.66957 0.39911 0.98511 0.0
H1158 H 0.66816 0.39748 0.0651 0.0
C1159 C 0.6517 0.38913 0.32822 0.0
C1160 C 0.63852 0.38734 0.20656 0.0
H1161 H 0.65898 0.36815 0.12203 0.0
C1162 C 0.62757 0.3998 0.18155 0.0
C1163 C 0.64992 0.37571 0.18483 0.0
C1164 C 0.66141 0.36151 0.20975 0.0
C1165 C 0.62791 0.40113 0.13547 0.0
C1166 C 0.63928 0.38948 0.11374 0.0
C1167 C 0.65027 0.37706 0.13874 0.0
C1168 C 0.64007 0.39006 0.06509 0.0
C1169 C 0.61638 0.41528 0.11049 0.0
C1170 C 0.62482 0.38611 0.03844 0.0
C1171 C 0.6256 0.3869 0.99261 0.0
C1172 C 0.6417 0.39157 0.97246 0.0
C1173 C 0.65702 0.39523 0.99939 0.0
C1174 C 0.65622 0.39442 0.04518 0.0
H1175 H 0.61199 0.426 0.13212 0.0
H1176 H 0.62368 0.42183 0.08305 0.0
H1177 H 0.60419 0.40864 0.09635 0.0
H1178 H 0.61232 0.38232 0.05312 0.0
H1179 H 0.61363 0.38371 0.97297 0.0
H1180 H 0.35958 0.87275 0.03482 0.0
H1181 H 0.36121 0.87062 0.95525 0.0
H1182 H 0.40152 0.91271 0.95327 0.0
H1183 H 0.39993 0.91498 0.03274 0.0
H1184 H 0.3543 0.89705 0.88937 0.0
H1185 H 0.42477 0.87349 0.88547 0.0
H1186 H 0.41271 0.87318 0.93546 0.0
H1187 H 0.42222 0.89404 0.914 0.0
C1188 C 0.3688 0.88158 0.01751 0.0
C1189 C 0.37968 0.89399 0.04043 0.0
C1190 C 0.36976 0.88029 0.97197 0.0
C1191 C 0.38167 0.89131 0.9482 0.0
C1192 C 0.39253 0.90373 0.9709 0.0
H1193 H 0.40461 0.90503 0.67037 0.0
H1194 H 0.40319 0.90775 0.74985 0.0
C1195 C 0.39161 0.90501 0.01647 0.0
C1196 C 0.38227 0.8902 0.89954 0.0
H1197 H 0.41013 0.88182 0.81678 0.0
C1198 C 0.36649 0.89363 0.87353 0.0
C1199 C 0.39819 0.88582 0.87874 0.0
C1200 C 0.41541 0.88125 0.90481 0.0
C1201 C 0.36625 0.89309 0.82742 0.0
C1202 C 0.38215 0.88864 0.80662 0.0
C1203 C 0.39794 0.88526 0.83262 0.0
C1204 C 0.38265 0.88721 0.75803 0.0
C1205 C 0.34904 0.89769 0.80136 0.0
C1206 C 0.37168 0.87467 0.73601 0.0
C1207 C 0.37248 0.87306 0.69053 0.0
C1208 C 0.38439 0.88384 0.66595 0.0
C1209 C 0.3954 0.89638 0.68817 0.0
C1210 C 0.39456 0.898 0.73366 0.0
H1211 H 0.33979 0.90566 0.82056 0.0
H1212 H 0.35175 0.90557 0.77045 0.0
H1213 H 0.34208 0.88492 0.79267 0.0
H1214 H 0.36271 0.86586 0.75413 0.0
H1215 H 0.36408 0.863 0.67483 0.0
H1216 H 0.15678 0.6778 0.25609 0.0
H1217 H 0.15601 0.70974 0.27612 0.0
H1218 H 0.11635 0.72132 0.17129 0.0
H1219 H 0.11698 0.6897 0.15122 0.0
H1220 H 0.1639 0.74059 0.22023 0.0
H1221 H 0.09473 0.74434 0.27712 0.0
H1222 H 0.10635 0.72303 0.27293 0.0
H1223 H 0.09568 0.73419 0.22489 0.0
C1224 C 0.14772 0.6871 0.23771 0.0
C1225 C 0.13694 0.68114 0.20203 0.0
C1226 C 0.14733 0.70536 0.24914 0.0
C1227 C 0.13593 0.71788 0.2256 0.0
C1228 C 0.12499 0.71186 0.1905 0.0
H1229 H 0.11255 0.82615 0.15877 0.0
H1230 H 0.11406 0.79373 0.1775 0.0
C1231 C 0.12547 0.69374 0.17886 0.0
C1232 C 0.13613 0.73752 0.23527 0.0
H1233 H 0.10817 0.77276 0.25368 0.0
C1234 C 0.15186 0.74762 0.22858 0.0
C1235 C 0.12042 0.74666 0.24634 0.0
C1236 C 0.10338 0.73647 0.25618 0.0
C1237 C 0.15191 0.76674 0.22932 0.0
C1238 C 0.13587 0.77596 0.23775 0.0
C1239 C 0.12046 0.76573 0.24715 0.0
C1240 C 0.13407 0.79604 0.23061 0.0
C1241 C 0.16879 0.77696 0.21808 0.0
C1242 C 0.14442 0.80835 0.25518 0.0
C1243 C 0.14357 0.82713 0.24447 0.0
C1244 C 0.1324 0.83382 0.20895 0.0
C1245 C 0.12145 0.82149 0.18605 0.0
C1246 C 0.12225 0.80289 0.1968 0.0
H1247 H 0.17919 0.76791 0.20595 0.0
H1248 H 0.16574 0.78791 0.19259 0.0
H1249 H 0.17447 0.78339 0.24783 0.0
H1250 H 0.15342 0.80341 0.28194 0.0
H1251 H 0.15217 0.83628 0.26271 0.0
H1252 H 0.59124 0.87741 0.41783 0.0
H1253 H 0.55878 0.87491 0.43014 0.0
H1254 H 0.54692 0.88994 0.29362 0.0
H1255 H 0.57887 0.89244 0.28133 0.0
H1256 H 0.53154 0.90239 0.4151 0.0
H1257 H 0.51692 0.8436 0.31269 0.0
H1258 H 0.5394 0.8493 0.33208 0.0
H1259 H 0.52922 0.86116 0.28439 0.0
C1260 C 0.58166 0.88003 0.39051 0.0
C1261 C 0.58765 0.88507 0.3486 0.0
C1262 C 0.56313 0.87863 0.39754 0.0
C1263 C 0.55034 0.88197 0.36262 0.0
C1264 C 0.55643 0.88694 0.32092 0.0
H1265 H 0.44211 0.91925 0.33348 0.0
H1266 H 0.47447 0.91491 0.34503 0.0
C1267 C 0.57478 0.88845 0.31402 0.0
C1268 C 0.53058 0.88106 0.36914 0.0
H1269 H 0.49172 0.86235 0.32725 0.0
C1270 C 0.52286 0.89342 0.39648 0.0
C1271 C 0.51915 0.86922 0.34534 0.0
C1272 C 0.52659 0.85494 0.31731 0.0
C1273 C 0.50407 0.89496 0.39865 0.0
C1274 C 0.49261 0.88402 0.37236 0.0
C1275 C 0.50038 0.87092 0.34705 0.0
C1276 C 0.4727 0.88677 0.36826 0.0
C1277 C 0.49666 0.90848 0.42878 0.0
C1278 C 0.46071 0.87235 0.37676 0.0
C1279 C 0.44206 0.87481 0.36999 0.0
C1280 C 0.43503 0.89168 0.354 0.0
C1281 C 0.44704 0.9061 0.34596 0.0
C1282 C 0.4656 0.90367 0.35288 0.0
H1283 H 0.5064 0.9112 0.45641 0.0
H1284 H 0.49402 0.92153 0.41 0.0
H1285 H 0.48389 0.90358 0.44249 0.0
H1286 H 0.4658 0.85913 0.38831 0.0
H1287 H 0.43318 0.86341 0.37634 0.0
H1288 H 0.39054 0.32958 0.79838 0.0
H1289 H 0.39266 0.29684 0.82032 0.0
H1290 H 0.37556 0.28336 0.68877 0.0
H1291 H 0.37348 0.31538 0.66694 0.0
H1292 H 0.35796 0.26341 0.76205 0.0
H1293 H 0.43281 0.26236 0.77132 0.0
H1294 H 0.42082 0.27915 0.79972 0.0
H1295 H 0.4207 0.28041 0.74089 0.0
C1296 C 0.3871 0.31956 0.77445 0.0
C1297 C 0.38206 0.32506 0.73083 0.0
C1298 C 0.38838 0.30093 0.78692 0.0
C1299 C 0.38436 0.28771 0.756 0.0
C1300 C 0.37875 0.2933 0.71311 0.0
H1301 H 0.40561 0.1874 0.6622 0.0
H1302 H 0.40455 0.21821 0.68789 0.0
C1303 C 0.37767 0.31168 0.70065 0.0
C1304 C 0.38647 0.26792 0.76626 0.0
H1305 H 0.41793 0.23438 0.76489 0.0
C1306 C 0.37105 0.25696 0.76414 0.0
C1307 C 0.40358 0.25964 0.76837 0.0
C1308 C 0.42051 0.27088 0.77017 0.0
C1309 C 0.37226 0.23803 0.76089 0.0
C1310 C 0.38939 0.22983 0.76028 0.0
C1311 C 0.40482 0.24068 0.76544 0.0
C1312 C 0.39151 0.21067 0.74797 0.0
C1313 C 0.3552 0.22716 0.75461 0.0
C1314 C 0.38489 0.19605 0.7737 0.0
C1315 C 0.38539 0.17831 0.75894 0.0
C1316 C 0.39257 0.17487 0.71822 0.0
C1317 C 0.39986 0.18949 0.69355 0.0
C1318 C 0.39935 0.20715 0.70829 0.0
H1319 H 0.34317 0.236 0.74928 0.0
H1320 H 0.35604 0.21841 0.72608 0.0
H1321 H 0.35332 0.2182 0.78428 0.0
H1322 H 0.37902 0.1984 0.80476 0.0
H1323 H 0.37975 0.16738 0.77896 0.0
H1324 H 0.93942 0.09206 0.86992 0.0
H1325 H 0.97188 0.09441 0.88294 0.0
H1326 H 0.9667 0.15181 0.90189 0.0
H1327 H 0.93397 0.14941 0.88969 0.0
H1328 H 0.99415 0.11388 0.83287 0.0
H1329 H 1.0014 0.13666 1.00358 0.0
H1330 H 0.98063 0.12759 0.98082 0.0
H1331 H 0.98687 0.15077 0.96801 0.0
C1332 C 0.94514 0.10515 0.8775 0.0
C1333 C 0.93412 0.12056 0.87864 0.0
C1334 C 0.96374 0.10648 0.88494 0.0
C1335 C 0.97185 0.12325 0.89376 0.0
C1336 C 0.96081 0.13863 0.89605 0.0
H1337 H 0.08134 0.15095 0.83837 0.0
H1338 H 0.04895 0.14969 0.8454 0.0
C1339 C 0.9421 0.13728 0.88881 0.0
C1340 C 0.99187 0.1247 0.89678 0.0
H1341 H 0.02785 0.13759 0.96222 0.0
C1342 C 1.00147 0.11899 0.86132 0.0
C1343 C 1.00154 0.1312 0.93401 0.0
C1344 C 0.99213 0.13675 0.97398 0.0
C1345 C 0.0203 0.11985 0.86166 0.0
C1346 C 0.02995 0.12691 0.89818 0.0
C1347 C 0.02045 0.13231 0.93411 0.0
C1348 C 0.04983 0.12916 0.89843 0.0
C1349 C 0.02976 0.11308 0.82289 0.0
C1350 C 0.06127 0.11858 0.92726 0.0
C1351 C 0.08 0.11929 0.92344 0.0
C1352 C 0.08758 0.13062 0.89071 0.0
C1353 C 0.07605 0.14189 0.86362 0.0
C1354 C 0.05746 0.14119 0.86753 0.0
H1355 H 0.021 0.10406 0.80296 0.0
H1356 H 0.03366 0.12487 0.80138 0.0
H1357 H 0.04215 0.10552 0.83386 0.0
H1358 H 0.05568 0.10923 0.95149 0.0
H1359 H 0.08845 0.11042 0.94479 0.0
H1360 H 0.11589 0.32309 0.88128 0.0
H1361 H 0.11683 0.29077 0.8688 0.0
H1362 H 0.15372 0.30081 0.76558 0.0
H1363 H 0.15323 0.3335 0.77878 0.0
H1364 H 0.10938 0.26932 0.79964 0.0
H1365 H 0.18211 0.26618 0.84988 0.0
H1366 H 0.16874 0.28613 0.85666 0.0
H1367 H 0.17602 0.28105 0.80324 0.0
C1368 C 0.12412 0.31855 0.85558 0.0
C1369 C 0.13473 0.33092 0.83151 0.0
C1370 C 0.12457 0.29999 0.84834 0.0
C1371 C 0.1356 0.29325 0.81686 0.0
C1372 C 0.14538 0.30564 0.79073 0.0
H1373 H 0.13297 0.17269 0.80058 0.0
H1374 H 0.13116 0.20498 0.77597 0.0
C1375 C 0.14498 0.32434 0.79804 0.0
C1376 C 0.1376 0.27319 0.81446 0.0
H1377 H 0.1673 0.23858 0.83953 0.0
C1378 C 0.1221 0.26257 0.80759 0.0
C1379 C 0.15419 0.26438 0.82523 0.0
C1380 C 0.17122 0.27494 0.83452 0.0
C1381 C 0.12256 0.24349 0.81329 0.0
C1382 C 0.13904 0.23475 0.82548 0.0
C1383 C 0.15469 0.2453 0.83011 0.0
C1384 C 0.14005 0.21507 0.83895 0.0
C1385 C 0.10524 0.23294 0.80885 0.0
C1386 C 0.14586 0.20997 0.88218 0.0
C1387 C 0.14704 0.19166 0.89601 0.0
C1388 C 0.14249 0.17796 0.86693 0.0
C1389 C 0.13661 0.18297 0.82361 0.0
C1390 C 0.13546 0.20141 0.80965 0.0
H1391 H 0.0933 0.24198 0.80672 0.0
H1392 H 0.10519 0.22517 0.77852 0.0
H1393 H 0.10399 0.22307 0.83719 0.0
H1394 H 0.14943 0.22022 0.90544 0.0
H1395 H 0.15162 0.18825 0.9296 0.0
H1396 H 0.07855 0.92158 0.14769 0.0
H1397 H 0.04591 0.91801 0.14585 0.0
H1398 H 0.05203 0.85982 0.16159 0.0
H1399 H 0.08486 0.86335 0.16136 0.0
H1400 H 0.02289 0.86819 0.10848 0.0
H1401 H 0.02045 0.90849 0.25674 0.0
H1402 H 0.02994 0.92119 0.21193 0.0
H1403 H 0.04132 0.90128 0.23573 0.0
C1404 C 0.07293 0.908 0.1501 0.0
C1405 C 0.08429 0.89277 0.15509 0.0
C1406 C 0.05424 0.90597 0.14943 0.0
C1407 C 0.04637 0.88868 0.15504 0.0
C1408 C 0.05768 0.87334 0.15763 0.0
H1409 H 0.94176 0.87595 0.26346 0.0
H1410 H 0.97337 0.87516 0.24694 0.0
C1411 C 0.07646 0.87535 0.15746 0.0
C1412 C 0.02654 0.88681 0.16055 0.0
H1413 H 0.99252 0.90173 0.22109 0.0
C1414 C 0.01625 0.87545 0.13324 0.0
C1415 C 0.01777 0.89602 0.19331 0.0
C1416 C 0.02796 0.90726 0.22638 0.0
C1417 C 0.99755 0.87323 0.1375 0.0
C1418 C 0.98871 0.88298 0.16926 0.0
C1419 C 0.99908 0.89429 0.19648 0.0
C1420 C 0.96901 0.88115 0.17708 0.0
C1421 C 0.9876 0.86005 0.10876 0.0
C1422 C 0.95564 0.88422 0.14325 0.0
C1423 C 0.93728 0.8842 0.15267 0.0
C1424 C 0.93204 0.88157 0.19621 0.0
C1425 C 0.94536 0.87807 0.22959 0.0
C1426 C 0.96352 0.87769 0.22014 0.0
H1427 H 0.99683 0.84995 0.09594 0.0
H1428 H 0.97706 0.85264 0.12696 0.0
H1429 H 0.98105 0.86767 0.08016 0.0
H1430 H 0.95936 0.88736 0.10988 0.0
H1431 H 0.92732 0.88717 0.12637 0.0
H1432 H 0.40561 0.69111 0.36741 0.0
H1433 H 0.40513 0.72304 0.34309 0.0
H1434 H 0.36987 0.71069 0.23233 0.0
H1435 H 0.37014 0.67837 0.25689 0.0
H1436 H 0.4142 0.74104 0.26205 0.0
H1437 H 0.34207 0.74918 0.29795 0.0
H1438 H 0.35491 0.7296 0.31856 0.0
H1439 H 0.34792 0.73182 0.2615 0.0
C1440 C 0.39783 0.69507 0.33765 0.0
C1441 C 0.38776 0.68218 0.31432 0.0
C1442 C 0.39763 0.71337 0.3237 0.0
C1443 C 0.3873 0.7193 0.28624 0.0
C1444 C 0.37775 0.70643 0.26169 0.0
H1445 H 0.36831 0.83795 0.25032 0.0
H1446 H 0.36862 0.80605 0.22938 0.0
C1447 C 0.37802 0.68796 0.27559 0.0
C1448 C 0.38611 0.73912 0.27507 0.0
H1449 H 0.35869 0.77571 0.2844 0.0
C1450 C 0.40197 0.74861 0.26595 0.0
C1451 C 0.37012 0.749 0.27992 0.0
C1452 C 0.35275 0.73949 0.29022 0.0
C1453 C 0.40251 0.7677 0.26415 0.0
C1454 C 0.38686 0.77755 0.27239 0.0
C1455 C 0.37068 0.76812 0.27821 0.0
C1456 C 0.38762 0.79717 0.28172 0.0
C1457 C 0.42002 0.77714 0.25513 0.0
C1458 C 0.39813 0.80271 0.31803 0.0
C1459 C 0.39788 0.82074 0.33016 0.0
C1460 C 0.38709 0.83371 0.30628 0.0
C1461 C 0.37684 0.82829 0.2692 0.0
C1462 C 0.37698 0.81009 0.25727 0.0
H1463 H 0.4286 0.76872 0.23525 0.0
H1464 H 0.41775 0.79055 0.23758 0.0
H1465 H 0.42747 0.77937 0.28678 0.0
H1466 H 0.40616 0.79294 0.33795 0.0
H1467 H 0.40596 0.82441 0.35884 0.0
H1468 H 0.59275 0.13438 0.60594 0.0
H1469 H 0.56001 0.13851 0.59223 0.0
H1470 H 0.55155 0.12199 0.72715 0.0
H1471 H 0.58367 0.11783 0.74079 0.0
H1472 H 0.53113 0.11101 0.60795 0.0
H1473 H 0.52468 0.17132 0.70775 0.0
H1474 H 0.54577 0.16461 0.6865 0.0
H1475 H 0.53775 0.15349 0.73562 0.0
C1476 C 0.58384 0.13173 0.63255 0.0
C1477 C 0.59079 0.12582 0.67445 0.0
C1478 C 0.56518 0.13406 0.62472 0.0
C1479 C 0.55334 0.13079 0.65888 0.0
C1480 C 0.56038 0.12489 0.70048 0.0
H1481 H 0.45072 0.11172 0.74489 0.0
H1482 H 0.48208 0.1167 0.72805 0.0
C1483 C 0.57881 0.12244 0.70815 0.0
C1484 C 0.53352 0.13294 0.65215 0.0
H1485 H 0.49798 0.15309 0.69749 0.0
C1486 C 0.52383 0.12056 0.62644 0.0
C1487 C 0.52398 0.14538 0.67631 0.0
C1488 C 0.53357 0.15958 0.70278 0.0
C1489 C 0.50495 0.11945 0.62695 0.0
C1490 C 0.49557 0.13104 0.65368 0.0
C1491 C 0.50518 0.14416 0.67712 0.0
C1492 C 0.47626 0.12819 0.66245 0.0
C1493 C 0.49519 0.10512 0.60134 0.0
C1494 C 0.46246 0.13312 0.6312 0.0
C1495 C 0.44435 0.13039 0.64095 0.0
C1496 C 0.43982 0.12257 0.68192 0.0
C1497 C 0.45372 0.11773 0.71296 0.0
C1498 C 0.47168 0.12057 0.70341 0.0
H1499 H 0.50448 0.09674 0.58323 0.0
H1500 H 0.48762 0.09604 0.62397 0.0
H1501 H 0.48531 0.1117 0.57736 0.0
H1502 H 0.46569 0.13918 0.59949 0.0
H1503 H 0.43396 0.13438 0.61657 0.0
H1504 H 0.86915 0.1778 0.75854 0.0
H1505 H 0.86939 0.21 0.73292 0.0
H1506 H 0.90857 0.22149 0.83646 0.0
H1507 H 0.90848 0.1897 0.86183 0.0
H1508 H 0.85998 0.23896 0.78387 0.0
H1509 H 0.92923 0.24845 0.73063 0.0
H1510 H 0.91892 0.22627 0.73659 0.0
H1511 H 0.92897 0.23695 0.78373 0.0
C1512 C 0.87809 0.18715 0.77513 0.0
C1513 C 0.88877 0.18121 0.81224 0.0
C1514 C 0.87817 0.20554 0.76057 0.0
C1515 C 0.88919 0.21812 0.78238 0.0
C1516 C 0.90025 0.21201 0.81847 0.0
H1517 H 0.9053 0.32229 0.86009 0.0
H1518 H 0.90502 0.29087 0.83856 0.0
C1519 C 0.90006 0.1938 0.83319 0.0
C1520 C 0.88808 0.23795 0.77103 0.0
H1521 H 0.91483 0.27529 0.7568 0.0
C1522 C 0.87182 0.24693 0.77658 0.0
C1523 C 0.90353 0.24832 0.76134 0.0
C1524 C 0.92109 0.23946 0.75227 0.0
C1525 C 0.87099 0.26602 0.77666 0.0
C1526 C 0.88681 0.27632 0.7706 0.0
C1527 C 0.90273 0.26737 0.76169 0.0
C1528 C 0.88777 0.29588 0.78032 0.0
C1529 C 0.85357 0.27498 0.78661 0.0
C1530 C 0.87843 0.30928 0.75414 0.0
C1531 C 0.8786 0.32745 0.76637 0.0
C1532 C 0.88801 0.33239 0.80511 0.0
C1533 C 0.89778 0.31897 0.83027 0.0
C1534 C 0.8977 0.30097 0.81793 0.0
H1535 H 0.84291 0.26491 0.79437 0.0
H1536 H 0.85567 0.28387 0.81485 0.0
H1537 H 0.84877 0.28367 0.75777 0.0
H1538 H 0.87082 0.30564 0.72473 0.0
H1539 H 0.87096 0.33747 0.7463 0.0
H1540 H 0.6521 0.83299 0.274 0.0
H1541 H 0.65222 0.80044 0.25938 0.0
H1542 H 0.61577 0.78999 0.36336 0.0
H1543 H 0.61526 0.82216 0.3774 0.0
H1544 H 0.66439 0.77372 0.31521 0.0
H1545 H 0.59359 0.75875 0.27129 0.0
H1546 H 0.60223 0.7817 0.27112 0.0
H1547 H 0.59515 0.77058 0.32135 0.0
C1548 C 0.64378 0.82379 0.29298 0.0
C1549 C 0.63371 0.83022 0.32695 0.0
C1550 C 0.64389 0.80518 0.28467 0.0
C1551 C 0.63378 0.79272 0.30979 0.0
C1552 C 0.6233 0.79928 0.34266 0.0
H1553 H 0.6541 0.68939 0.42315 0.0
H1554 H 0.65191 0.72102 0.39655 0.0
C1555 C 0.62319 0.81776 0.35098 0.0
C1556 C 0.63559 0.77272 0.3057 0.0
H1557 H 0.61103 0.73341 0.30578 0.0
C1558 C 0.65274 0.76493 0.31206 0.0
C1559 C 0.62049 0.76112 0.30079 0.0
C1560 C 0.60187 0.76851 0.29025 0.0
C1561 C 0.65501 0.74601 0.31722 0.0
C1562 C 0.63973 0.73454 0.31687 0.0
C1563 C 0.62273 0.74219 0.30686 0.0
C1564 C 0.641 0.71504 0.33182 0.0
C1565 C 0.67377 0.7385 0.32444 0.0
C1566 C 0.63505 0.70105 0.30477 0.0
C1567 C 0.63622 0.68277 0.32013 0.0
C1568 C 0.64318 0.67828 0.36288 0.0
C1569 C 0.64879 0.69236 0.38994 0.0
C1570 C 0.64767 0.71049 0.37465 0.0
H1571 H 0.68378 0.74771 0.30914 0.0
H1572 H 0.67723 0.73726 0.36024 0.0
H1573 H 0.67488 0.72485 0.31075 0.0
H1574 H 0.62963 0.70427 0.27177 0.0
H1575 H 0.63166 0.67222 0.29876 0.0
H1576 H 0.90749 0.68814 0.16048 0.0
H1577 H 0.90739 0.71866 0.18809 0.0
H1578 H 0.87492 0.69997 0.29452 0.0
H1579 H 0.87499 0.66909 0.26701 0.0
H1580 H 0.86165 0.73165 0.24421 0.0
H1581 H 0.93297 0.73974 0.29781 0.0
H1582 H 0.9302 0.73071 0.24424 0.0
H1583 H 0.9226 0.71774 0.2913 0.0
C1584 C 0.90049 0.6904 0.19007 0.0
C1585 C 0.89123 0.67616 0.21151 0.0
C1586 C 0.90056 0.70786 0.20601 0.0
C1587 C 0.89136 0.71155 0.24369 0.0
C1588 C 0.88226 0.69736 0.26562 0.0
H1589 H 0.86962 0.82772 0.29055 0.0
H1590 H 0.87129 0.79488 0.30981 0.0
C1591 C 0.88234 0.67974 0.24991 0.0
C1592 C 0.89023 0.73059 0.25734 0.0
H1593 H 0.91661 0.76744 0.27815 0.0
C1594 C 0.87356 0.73944 0.25287 0.0
C1595 C 0.90577 0.74066 0.26883 0.0
C1596 C 0.92388 0.73169 0.27628 0.0
C1597 C 0.87228 0.75841 0.25566 0.0
C1598 C 0.88807 0.76868 0.26388 0.0
C1599 C 0.90451 0.75959 0.27174 0.0
C1600 C 0.88833 0.78879 0.25682 0.0
C1601 C 0.85428 0.76745 0.24634 0.0
C1602 C 0.8979 0.79632 0.22192 0.0
C1603 C 0.89704 0.81488 0.2111 0.0
C1604 C 0.88661 0.82648 0.23498 0.0
C1605 C 0.87772 0.81914 0.27147 0.0
C1606 C 0.87855 0.80038 0.28227 0.0
H1607 H 0.84379 0.75772 0.23521 0.0
H1608 H 0.84986 0.77353 0.27665 0.0
H1609 H 0.85533 0.77857 0.2207 0.0
H1610 H 0.90558 0.78769 0.2019 0.0
H1611 H 0.90426 0.82007 0.18313 0.0
H1612 H 0.65749 0.17591 0.75677 0.0
H1613 H 0.65687 0.20782 0.77715 0.0
H1614 H 0.61654 0.21955 0.67396 0.0
H1615 H 0.617 0.18796 0.65359 0.0
H1616 H 0.66461 0.23849 0.72126 0.0
H1617 H 0.59582 0.24292 0.78013 0.0
H1618 H 0.60717 0.22149 0.77549 0.0
H1619 H 0.59633 0.23277 0.72782 0.0
C1620 C 0.64828 0.18524 0.7389 0.0
C1621 C 0.63729 0.17934 0.70353 0.0
C1622 C 0.64799 0.20347 0.75052 0.0
C1623 C 0.63649 0.21604 0.72748 0.0
C1624 C 0.62528 0.21006 0.6928 0.0
H1625 H 0.61366 0.32434 0.66012 0.0
H1626 H 0.61522 0.29192 0.67868 0.0
C1627 C 0.62566 0.19197 0.68098 0.0
C1628 C 0.63689 0.23569 0.73704 0.0
H1629 H 0.60932 0.27121 0.75567 0.0
C1630 C 0.65267 0.24564 0.72984 0.0
C1631 C 0.62132 0.24498 0.74839 0.0
C1632 C 0.60425 0.23496 0.75885 0.0
C1633 C 0.65289 0.26476 0.73033 0.0
C1634 C 0.63697 0.27413 0.739 0.0
C1635 C 0.62152 0.26406 0.74893 0.0
C1636 C 0.6353 0.29421 0.73162 0.0
C1637 C 0.66979 0.27482 0.7186 0.0
C1638 C 0.64573 0.30649 0.75606 0.0
C1639 C 0.64486 0.32528 0.74544 0.0
C1640 C 0.63359 0.332 0.71015 0.0
C1641 C 0.62263 0.31968 0.68723 0.0
C1642 C 0.62345 0.30107 0.69789 0.0
H1643 H 0.68009 0.26566 0.70652 0.0
H1644 H 0.66674 0.2857 0.69292 0.0
H1645 H 0.67559 0.28135 0.74812 0.0
H1646 H 0.65476 0.30153 0.78274 0.0
H1647 H 0.65346 0.33441 0.76373 0.0
H1648 H 0.93452 0.36192 0.87667 0.0
H1649 H 0.96717 0.35783 0.88889 0.0
H1650 H 0.97545 0.4142 0.8504 0.0
H1651 H 0.94309 0.41835 0.83862 0.0
H1652 H 0.9933 0.36219 0.82857 0.0
H1653 H 1.00715 0.40932 0.96186 0.0
H1654 H 0.98474 0.40167 0.94698 0.0
H1655 H 0.99479 0.42016 0.91611 0.0
C1656 C 0.94332 0.37348 0.87147 0.0
C1657 C 0.93618 0.39047 0.85672 0.0
C1658 C 0.96199 0.37113 0.87837 0.0
C1659 C 0.97388 0.38577 0.87126 0.0
C1660 C 0.96666 0.40277 0.85718 0.0
H1661 H 0.08032 0.39375 0.7858 0.0
H1662 H 0.04834 0.39078 0.79748 0.0
C1663 C 0.9481 0.4051 0.85013 0.0
C1664 C 0.99384 0.38321 0.87542 0.0
H1665 H 0.03248 0.40152 0.91996 0.0
C1666 C 1.00182 0.3706 0.84914 0.0
C1667 C 1.00512 0.39393 0.90267 0.0
C1668 C 0.9975 0.40689 0.93385 0.0
C1669 C 0.02062 0.3692 0.84744 0.0
C1670 C 0.03188 0.38085 0.87226 0.0
C1671 C 0.02394 0.3927 0.90052 0.0
C1672 C 0.05165 0.3821 0.86607 0.0
C1673 C 0.02829 0.35542 0.81837 0.0
C1674 C 0.0644 0.37856 0.90099 0.0
C1675 C 0.08295 0.38023 0.89432 0.0
C1676 C 0.08901 0.38576 0.85277 0.0
C1677 C 0.07618 0.38938 0.8182 0.0
C1678 C 0.05781 0.3876 0.82475 0.0
H1679 H 0.01876 0.34402 0.81286 0.0
H1680 H 0.03086 0.36209 0.78589 0.0
H1681 H 0.04116 0.34979 0.8328 0.0
H1682 H 0.06001 0.37444 0.93331 0.0
H1683 H 0.09247 0.37741 0.92162 0.0
H1684 H 0.43354 0.6501 0.39164 0.0
H1685 H 0.46628 0.65283 0.4046 0.0
H1686 H 0.47243 0.5962 0.37847 0.0
H1687 H 0.44 0.59348 0.36494 0.0
H1688 H 0.49257 0.6336 0.46252 0.0
H1689 H 0.50293 0.62283 0.2866 0.0
H1690 H 0.48121 0.62795 0.3066 0.0
H1691 H 0.49007 0.60526 0.31326 0.0
C1692 C 0.44189 0.63822 0.38911 0.0
C1693 C 0.43423 0.62164 0.37666 0.0
C1694 C 0.46058 0.63978 0.39659 0.0
C1695 C 0.47186 0.62479 0.39176 0.0
C1696 C 0.46407 0.60804 0.38159 0.0
H1697 H 0.5879 0.61066 0.44776 0.0
H1698 H 0.55512 0.61028 0.45431 0.0
C1699 C 0.4455 0.6065 0.37394 0.0
C1700 C 0.4918 0.62675 0.3946 0.0
H1701 H 0.52892 0.62283 0.3341 0.0
C1702 C 0.50054 0.63131 0.43446 0.0
C1703 C 0.50222 0.62394 0.35786 0.0
C1704 C 0.49366 0.61989 0.31353 0.0
C1705 C 0.51942 0.63284 0.43863 0.0
C1706 C 0.52983 0.62957 0.40212 0.0
C1707 C 0.52101 0.62521 0.36225 0.0
C1708 C 0.54981 0.63128 0.40329 0.0
C1709 C 0.52805 0.63828 0.48175 0.0
C1710 C 0.55782 0.6433 0.37296 0.0
C1711 C 0.5764 0.64342 0.36898 0.0
C1712 C 0.58757 0.63152 0.39527 0.0
C1713 C 0.57971 0.62011 0.42732 0.0
C1714 C 0.56096 0.61991 0.43111 0.0
H1715 H 0.51819 0.64439 0.50295 0.0
H1716 H 0.53385 0.62605 0.49964 0.0
H1717 H 0.5391 0.64816 0.47628 0.0
H1718 H 0.54959 0.65225 0.35122 0.0
H1719 H 0.58198 0.65251 0.34417 0.0
H1720 H 0.4367 0.41453 0.68527 0.0
H1721 H 0.46894 0.41191 0.67695 0.0
H1722 H 0.46254 0.35516 0.65084 0.0
H1723 H 0.42991 0.35775 0.65905 0.0
H1724 H 0.49164 0.38856 0.73029 0.0
H1725 H 0.49592 0.37446 0.55338 0.0
H1726 H 0.47613 0.38419 0.57496 0.0
H1727 H 0.48094 0.36047 0.58499 0.0
C1728 C 0.44205 0.4015 0.67723 0.0
C1729 C 0.43068 0.38632 0.67303 0.0
C1730 C 0.46055 0.40003 0.6725 0.0
C1731 C 0.46828 0.38337 0.66312 0.0
C1732 C 0.45693 0.36823 0.65751 0.0
H1733 H 0.58524 0.36252 0.6482 0.0
H1734 H 0.55238 0.35825 0.64508 0.0
C1735 C 0.43827 0.36971 0.66232 0.0
C1736 C 0.4883 0.38194 0.66241 0.0
H1737 H 0.52326 0.37629 0.59521 0.0
C1738 C 0.49851 0.38575 0.70077 0.0
C1739 C 0.49737 0.37811 0.62409 0.0
C1740 C 0.48712 0.37417 0.58181 0.0
C1741 C 0.51739 0.38623 0.70169 0.0
C1742 C 0.52649 0.38322 0.66291 0.0
C1743 C 0.51634 0.37871 0.62489 0.0
C1744 C 0.54637 0.38585 0.66102 0.0
C1745 C 0.52744 0.39004 0.7444 0.0
C1746 C 0.55397 0.40288 0.66957 0.0
C1747 C 0.57261 0.40531 0.67144 0.0
C1748 C 0.58423 0.39082 0.66446 0.0
C1749 C 0.57666 0.37394 0.65386 0.0
C1750 C 0.55789 0.37149 0.6521 0.0
H1751 H 0.51924 0.38656 0.77313 0.0
H1752 H 0.5402 0.38226 0.74814 0.0
H1753 H 0.53069 0.40475 0.74486 0.0
H1754 H 0.54544 0.4143 0.67558 0.0
H1755 H 0.57794 0.41855 0.6792 0.0
H1756 H 0.09267 0.63527 0.10501 0.0
H1757 H 0.06008 0.63813 0.0878 0.0
H1758 H 0.04973 0.62203 0.22199 0.0
H1759 H 0.08182 0.61917 0.2391 0.0
H1760 H 0.03289 0.6106 0.09762 0.0
H1761 H 0.02003 0.66876 0.20007 0.0
H1762 H 0.04224 0.66313 0.18365 0.0
H1763 H 0.0327 0.65112 0.22977 0.0
C1764 C 0.08339 0.63248 0.13074 0.0
C1765 C 0.08981 0.62703 0.17339 0.0
C1766 C 0.0648 0.6341 0.12093 0.0
C1767 C 0.05244 0.63057 0.15381 0.0
C1768 C 0.05895 0.62519 0.19628 0.0
H1769 H 0.94607 0.59173 0.17215 0.0
H1770 H 0.97795 0.59675 0.16122 0.0
C1771 C 0.07735 0.62347 0.20594 0.0
C1772 C 0.03267 0.63163 0.14434 0.0
H1773 H 0.99458 0.6497 0.18272 0.0
C1774 C 0.02451 0.6194 0.11555 0.0
C1775 C 0.02167 0.64327 0.16718 0.0
C1776 C 0.02961 0.65745 0.19656 0.0
C1777 C 1.00569 0.61769 0.11125 0.0
C1778 C 0.99473 0.62829 0.13692 0.0
C1779 C 1.00289 0.64138 0.16341 0.0
C1780 C 0.97502 0.62506 0.13964 0.0
C1781 C 0.99776 0.60431 0.07975 0.0
C1782 C 0.96262 0.63933 0.13177 0.0
C1783 C 0.94427 0.63649 0.13832 0.0
C1784 C 0.93804 0.61937 0.15336 0.0
C1785 C 0.95042 0.60506 0.16041 0.0
C1786 C 0.96868 0.60789 0.15381 0.0
H1787 H 1.00682 0.60218 0.05253 0.0
H1788 H 0.99595 0.59099 0.09755 0.0
H1789 H 0.98449 0.60895 0.0655 0.0
H1790 H 0.96717 0.65274 0.12117 0.0
H1791 H 0.93506 0.6478 0.13272 0.0
H1792 H 0.15171 0.55766 0.16481 0.0
H1793 H 0.15337 0.52839 0.12925 0.0
H1794 H 0.14068 0.55539 1.00331 0.0
H1795 H 0.13912 0.58433 0.03781 0.0
H1796 H 0.12635 0.5108 0.07683 0.0
H1797 H 0.186 0.52682 0.98015 0.0
H1798 H 0.18002 0.5399 0.02594 0.0
H1799 H 0.16858 0.54361 0.97307 0.0
C1800 C 0.14935 0.55735 0.12955 0.0
C1801 C 0.14541 0.57347 0.10436 0.0
C1802 C 0.1503 0.54062 0.10925 0.0
C1803 C 0.14751 0.53974 0.06342 0.0
C1804 C 0.14334 0.55574 0.03849 0.0
H1805 H 0.14281 0.45496 0.87058 0.0
H1806 H 0.14324 0.48402 0.90751 0.0
C1807 C 0.14234 0.57234 0.05856 0.0
C1808 C 0.14831 0.52213 0.0413 0.0
H1809 H 0.16918 0.50061 0.96062 0.0
C1810 C 0.13583 0.50849 0.05175 0.0
C1811 C 0.16053 0.5192 1.00811 0.0
C1812 C 0.17466 0.53308 0.99635 0.0
C1813 C 0.13497 0.4922 0.02935 0.0
C1814 C 0.14721 0.48923 0.99617 0.0
C1815 C 0.15974 0.50287 0.98582 0.0
C1816 C 0.14761 0.47181 0.97309 0.0
C1817 C 0.12059 0.47852 0.04068 0.0
C1818 C 0.15046 0.45536 0.99734 0.0
C1819 C 0.15013 0.43886 0.97649 0.0
C1820 C 0.14718 0.43832 0.93057 0.0
C1821 C 0.14506 0.45486 0.90592 0.0
C1822 C 0.14527 0.47147 0.92703 0.0
H1823 H 0.1092 0.48499 0.05625 0.0
H1824 H 0.11532 0.47168 1.01103 0.0
H1825 H 0.12636 0.468 0.06443 0.0
H1826 H 0.15287 0.45524 0.03265 0.0
H1827 H 0.15213 0.42648 0.99667 0.0
H1828 H 0.68533 0.90023 0.32031 0.0
H1829 H 0.71371 0.89923 0.28352 0.0
H1830 H 0.73149 0.8552 0.3733 0.0
H1831 H 0.7022 0.85467 0.40592 0.0
H1832 H 0.74498 0.90551 0.29892 0.0
H1833 H 0.74622 0.83228 0.27016 0.0
H1834 H 0.72688 0.84285 0.29108 0.0
H1835 H 0.74538 0.83532 0.32784 0.0
C1836 C 0.69507 0.88992 0.33113 0.0
C1837 C 0.69115 0.87704 0.36479 0.0
C1838 C 0.71152 0.88951 0.31049 0.0
C1839 C 0.72487 0.87666 0.32414 0.0
C1840 C 0.72132 0.8646 0.35997 0.0
H1841 H 0.83579 0.89684 0.24316 0.0
H1842 H 0.80738 0.89701 0.27975 0.0
C1843 C 0.70457 0.86449 0.37924 0.0
C1844 C 0.74254 0.8763 0.30181 0.0
H1845 H 0.77422 0.84789 0.2648 0.0
C1846 C 0.75116 0.89285 0.29094 0.0
C1847 C 0.7508 0.85995 0.29012 0.0
C1848 C 0.7417 0.84166 0.29495 0.0
C1849 C 0.7675 0.89353 0.2693 0.0
C1850 C 0.77645 0.87712 0.26081 0.0
C1851 C 0.76778 0.86058 0.27153 0.0
C1852 C 0.79443 0.87663 0.2399 0.0
C1853 C 0.7744 0.91197 0.25422 0.0
C1854 C 0.79752 0.86433 0.20693 0.0
C1855 C 0.81432 0.86334 0.18816 0.0
C1856 C 0.82843 0.87498 0.20081 0.0
C1857 C 0.82535 0.88748 0.23311 0.0
C1858 C 0.80881 0.88789 0.25335 0.0
H1859 H 0.76322 0.92183 0.24801 0.0
H1860 H 0.78345 0.91739 0.28044 0.0
H1861 H 0.78181 0.9113 0.22361 0.0
H1862 H 0.78688 0.85545 0.19539 0.0
H1863 H 0.81616 0.85364 0.16313 0.0
H1864 H 0.37626 0.42517 0.55304 0.0
H1865 H 0.37532 0.45513 0.51554 0.0
H1866 H 0.37089 0.48012 0.63963 0.0
H1867 H 0.37184 0.44999 0.67787 0.0
H1868 H 0.34779 0.48306 0.51743 0.0
H1869 H 0.41505 0.5052 0.58155 0.0
H1870 H 0.40824 0.48162 0.58279 0.0
H1871 H 0.39977 0.49666 0.62159 0.0
C1872 C 0.37508 0.43699 0.57259 0.0
C1873 C 0.37422 0.43514 0.61863 0.0
C1874 C 0.37449 0.45412 0.55095 0.0
C1875 C 0.3732 0.46984 0.57478 0.0
C1876 C 0.37209 0.46813 0.62068 0.0
H1877 H 0.37889 0.58431 0.49763 0.0
H1878 H 0.37666 0.55482 0.53647 0.0
C1879 C 0.37256 0.45091 0.64245 0.0
C1880 C 0.37319 0.48795 0.55124 0.0
H1881 H 0.39839 0.52632 0.53601 0.0
C1882 C 0.35881 0.49257 0.5215 0.0
C1883 C 0.38762 0.50027 0.55655 0.0
C1884 C 0.40365 0.49574 0.58707 0.0
C1885 C 0.35834 0.50933 0.49737 0.0
C1886 C 0.37289 0.5216 0.50227 0.0
C1887 C 0.38725 0.51693 0.53214 0.0
C1888 C 0.3734 0.53954 0.4777 0.0
C1889 C 0.34206 0.51387 0.46771 0.0
C1890 C 0.37231 0.54089 0.43146 0.0
C1891 C 0.3734 0.55789 0.40893 0.0
C1892 C 0.37592 0.57381 0.43225 0.0
C1893 C 0.37702 0.57236 0.47849 0.0
C1894 C 0.37575 0.55546 0.50087 0.0
H1895 H 0.33021 0.50565 0.47713 0.0
H1896 H 0.33856 0.5285 0.4685 0.0
H1897 H 0.34497 0.51085 0.43345 0.0
H1898 H 0.37094 0.52878 0.41275 0.0
H1899 H 0.37266 0.55852 0.37335 0.0
H1900 H 0.82324 0.16074 0.87123 0.0
H1901 H 0.79358 0.15965 0.83316 0.0
H1902 H 0.80546 0.10644 0.78887 0.0
H1903 H 0.83511 0.10738 0.82725 0.0
H1904 H 0.79051 0.13161 0.72159 0.0
H1905 H 0.75005 0.12793 0.87011 0.0
H1906 H 0.76631 0.146 0.86825 0.0
H1907 H 0.77375 0.12279 0.87208 0.0
C1908 C 0.8195 0.14876 0.85357 0.0
C1909 C 0.83152 0.13413 0.85233 0.0
C1910 C 0.80251 0.14813 0.83194 0.0
C1911 C 0.79717 0.13288 0.8085 0.0
C1912 C 0.80923 0.11832 0.80686 0.0
H1913 H 0.68939 0.10686 0.70274 0.0
H1914 H 0.71896 0.10635 0.74171 0.0
C1915 C 0.82617 0.11888 0.8288 0.0
C1916 C 0.77916 0.13228 0.78508 0.0
H1917 H 0.73405 0.13241 0.80139 0.0
C1918 C 0.77817 0.13174 0.73905 0.0
C1919 C 0.76302 0.13226 0.80784 0.0
C1920 C 0.76322 0.13212 0.85733 0.0
C1921 C 0.76154 0.13158 0.71518 0.0
C1922 C 0.74541 0.13206 0.73785 0.0
C1923 C 0.74639 0.13219 0.78395 0.0
C1924 C 0.72741 0.13244 0.71426 0.0
C1925 C 0.76133 0.13071 0.66584 0.0
C1926 C 0.72218 0.14736 0.68623 0.0
C1927 C 0.70523 0.14776 0.66425 0.0
C1928 C 0.69313 0.13323 0.6698 0.0
C1929 C 0.69837 0.1183 0.69791 0.0
C1930 C 0.71527 0.11799 0.72018 0.0
H1931 H 0.77448 0.12627 0.65438 0.0
H1932 H 0.75075 0.12123 0.65398 0.0
H1933 H 0.75833 0.14442 0.65067 0.0
H1934 H 0.73118 0.1588 0.68159 0.0
H1935 H 0.70159 0.15947 0.64294 0.0
H1936 H 0.88157 0.55368 0.15184 0.0
H1937 H 0.88024 0.52555 0.11137 0.0
H1938 H 0.87683 0.5572 0.98874 0.0
H1939 H 0.87865 0.5851 0.02846 0.0
H1940 H 0.85521 0.51191 0.05351 0.0
H1941 H 0.91839 0.52458 0.96832 0.0
H1942 H 0.91198 0.53779 1.0134 0.0
H1943 H 0.90256 0.54276 0.95876 0.0
C1944 C 0.88054 0.55461 0.11627 0.0
C1945 C 0.88046 0.57165 0.09347 0.0
C1946 C 0.87979 0.53853 0.09316 0.0
C1947 C 0.8789 0.53923 0.0469 0.0
C1948 C 0.87811 0.55625 0.02429 0.0
H1949 H 0.87346 0.45588 0.84904 0.0
H1950 H 0.87187 0.48478 0.88623 0.0
C1951 C 0.87905 0.57223 0.04721 0.0
C1952 C 0.87865 0.52226 0.02204 0.0
H1953 H 0.90011 0.50033 0.94298 0.0
C1954 C 0.86508 0.50936 0.0295 0.0
C1955 C 0.8915 0.5189 0.99051 0.0
C1956 C 0.90703 0.53165 0.98254 0.0
C1957 C 0.8639 0.49335 1.00606 0.0
C1958 C 0.8767 0.49006 0.97451 0.0
C1959 C 0.89019 0.50298 0.96679 0.0
C1960 C 0.87711 0.47269 0.95158 0.0
C1961 C 0.84887 0.48012 1.01499 0.0
C1962 C 0.88079 0.45642 0.97587 0.0
C1963 C 0.88181 0.44004 0.95486 0.0
C1964 C 0.87919 0.43947 0.90887 0.0
C1965 C 0.87548 0.45581 0.88444 0.0
C1966 C 0.87458 0.47231 0.90563 0.0
H1967 H 0.83767 0.48665 0.03112 0.0
H1968 H 0.84355 0.47425 0.98409 0.0
H1969 H 0.85408 0.4688 0.03724 0.0
H1970 H 0.88311 0.45641 1.0112 0.0
H1971 H 0.88471 0.42779 0.97494 0.0
H1972 H 0.19 0.12658 0.74718 0.0
H1973 H 0.22057 0.12621 0.72228 0.0
H1974 H 0.24109 0.11821 0.85621 0.0
H1975 H 0.21039 0.11877 0.88174 0.0
H1976 H 0.25998 0.14452 0.8095 0.0
H1977 H 0.25317 0.0824 0.7145 0.0
H1978 H 0.23626 0.09905 0.69887 0.0
H1979 H 0.23698 0.08857 0.75341 0.0
C1980 C 0.20094 0.12464 0.77154 0.0
C1981 C 0.1976 0.1226 0.8166 0.0
C1982 C 0.21848 0.12432 0.7571 0.0
C1983 C 0.23318 0.12185 0.78721 0.0
C1984 C 0.22997 0.12 0.83227 0.0
H1985 H 0.3418 0.10026 0.70168 0.0
H1986 H 0.31303 0.09819 0.73762 0.0
C1987 C 0.21238 0.1203 0.84682 0.0
C1988 C 0.25186 0.12173 0.77149 0.0
H1989 H 0.2788 0.10106 0.70093 0.0
C1990 C 0.26414 0.13492 0.78604 0.0
C1991 C 0.25745 0.10904 0.74137 0.0
C1992 C 0.24535 0.09384 0.72644 0.0
C1993 C 0.28156 0.13617 0.77014 0.0
C1994 C 0.28681 0.12409 0.73824 0.0
C1995 C 0.27476 0.11048 0.72492 0.0
C1996 C 0.30458 0.12554 0.71763 0.0
C1997 C 0.29423 0.15036 0.78791 0.0
C1998 C 0.3094 0.14152 0.69402 0.0
C1999 C 0.32584 0.14274 0.67357 0.0
C2000 C 0.33779 0.12796 0.67605 0.0
C2001 C 0.33293 0.11192 0.69942 0.0
C2002 C 0.31647 0.11071 0.71991 0.0
H2003 H 0.29029 0.1547 0.82052 0.0
H2004 H 0.30823 0.14522 0.79108 0.0
H2005 H 0.29388 0.16252 0.765 0.0
H2006 H 0.30033 0.15301 0.69083 0.0
H2007 H 0.32915 0.15524 0.65558 0.0
H2008 H 0.66376 0.58018 0.41389 0.0
H2009 H 0.66499 0.553 0.4633 0.0
H2010 H 0.61065 0.53961 0.42209 0.0
H2011 H 0.60926 0.56702 0.37284 0.0
H2012 H 0.61818 0.53579 0.51549 0.0
H2013 H 0.66885 0.50071 0.42166 0.0
H2014 H 0.67497 0.52319 0.43749 0.0
H2015 H 0.65634 0.52017 0.39901 0.0
C2016 C 0.65206 0.57145 0.41535 0.0
C2017 C 0.63643 0.57569 0.38933 0.0
C2018 C 0.65281 0.55588 0.44352 0.0
C2019 C 0.638 0.54412 0.44608 0.0
C2020 C 0.62226 0.54846 0.4206 0.0
H2021 H 0.63078 0.43261 0.53557 0.0
H2022 H 0.63113 0.46225 0.49715 0.0
C2023 C 0.6215 0.56406 0.39233 0.0
C2024 C 0.63905 0.52714 0.47471 0.0
H2025 H 0.66056 0.48619 0.48831 0.0
C2026 C 0.62749 0.52496 0.5097 0.0
C2027 C 0.65114 0.51297 0.46701 0.0
C2028 C 0.66345 0.51422 0.42907 0.0
C2029 C 0.62766 0.50898 0.53702 0.0
C2030 C 0.63979 0.49484 0.52933 0.0
C2031 C 0.6514 0.4971 0.4945 0.0
C2032 C 0.63957 0.47695 0.55429 0.0
C2033 C 0.6145 0.50707 0.57302 0.0
C2034 C 0.64433 0.47521 0.5995 0.0
C2035 C 0.64421 0.45807 0.62193 0.0
C2036 C 0.63929 0.44239 0.59948 0.0
C2037 C 0.6346 0.4443 0.5542 0.0
C2038 C 0.63481 0.4613 0.53197 0.0
H2039 H 0.60407 0.51786 0.57004 0.0
H2040 H 0.60778 0.49359 0.57254 0.0
H2041 H 0.62182 0.50801 0.60536 0.0
H2042 H 0.64829 0.48707 0.61733 0.0
H2043 H 0.64792 0.45711 0.6567 0.0
H2044 H 0.3352 0.9094 0.30606 0.0
H2045 H 0.30483 0.91124 0.27112 0.0
H2046 H 0.2918 0.8593 0.33269 0.0
H2047 H 0.32205 0.85739 0.36745 0.0
H2048 H 0.28723 0.88701 0.21309 0.0
H2049 H 0.25024 0.89207 0.36564 0.0
H2050 H 0.27412 0.89603 0.36382 0.0
H2051 H 0.26549 0.8732 0.36651 0.0
C2052 C 0.32583 0.89841 0.31224 0.0
C2053 C 0.33104 0.88328 0.33974 0.0
C2054 C 0.30846 0.89946 0.29221 0.0
C2055 C 0.29584 0.88554 0.29968 0.0
C2056 C 0.3011 0.8704 0.32697 0.0
H2057 H 0.19775 0.85827 0.15111 0.0
H2058 H 0.22799 0.85985 0.18576 0.0
C2059 C 0.31847 0.86928 0.34671 0.0
C2060 C 0.27734 0.88657 0.27829 0.0
H2061 H 0.23269 0.88667 0.30032 0.0
C2062 C 0.27532 0.88703 0.23219 0.0
C2063 C 0.26171 0.88682 0.30302 0.0
C2064 C 0.26291 0.88718 0.35248 0.0
C2065 C 0.25821 0.88719 0.21036 0.0
C2066 C 0.24258 0.88675 0.23515 0.0
C2067 C 0.2446 0.88684 0.2812 0.0
C2068 C 0.22408 0.8859 0.21391 0.0
C2069 C 0.25701 0.88795 0.16081 0.0
C2070 C 0.21154 0.89984 0.21873 0.0
C2071 C 0.19419 0.89898 0.19873 0.0
C2072 C 0.18891 0.88405 0.17395 0.0
C2073 C 0.2014 0.87002 0.1697 0.0
C2074 C 0.21875 0.87094 0.18938 0.0
H2075 H 0.26971 0.89289 0.14676 0.0
H2076 H 0.25432 0.87409 0.14922 0.0
H2077 H 0.24586 0.89695 0.14792 0.0
H2078 H 0.21524 0.91147 0.23767 0.0
H2079 H 0.1849 0.90999 0.20279 0.0
H2080 H 0.64748 0.9264 0.49208 0.0
H2081 H 0.64861 0.95546 0.52678 0.0
H2082 H 0.64579 0.98355 0.3995 0.0
H2083 H 0.64453 0.95422 0.36392 0.0
H2084 H 0.67346 0.98432 0.51884 0.0
H2085 H 0.60418 0.00572 0.46489 0.0
H2086 H 0.61184 0.98258 0.4622 0.0
H2087 H 0.6184 0.99957 0.42193 0.0
C2088 C 0.64709 0.93869 0.47111 0.0
C2089 C 0.64579 0.93787 0.42495 0.0
C2090 C 0.6478 0.95536 0.49122 0.0
C2091 C 0.64708 0.97172 0.46591 0.0
C2092 C 0.6461 0.97108 0.41978 0.0
H2093 H 0.64278 0.08428 0.53433 0.0
H2094 H 0.64376 0.05553 0.49868 0.0
C2095 C 0.64549 0.9543 0.39945 0.0
C2096 C 0.64722 0.98929 0.48835 0.0
H2097 H 0.62157 0.02648 0.50544 0.0
C2098 C 0.66213 0.99357 0.51589 0.0
C2099 C 0.63239 1.00129 0.48476 0.0
C2100 C 0.6157 0.99708 0.45718 0.0
C2101 C 0.66275 0.00964 0.53926 0.0
C2102 C 0.64787 0.02161 0.53584 0.0
C2103 C 0.63296 0.01731 0.50826 0.0
C2104 C 0.64773 0.03907 0.55887 0.0
C2105 C 0.67951 0.01385 0.56654 0.0
C2106 C 0.64957 0.03954 0.60499 0.0
C2107 C 0.64909 0.05617 0.62587 0.0
C2108 C 0.64662 0.07263 0.60102 0.0
C2109 C 0.64472 0.07199 0.55487 0.0
C2110 C 0.64525 0.05547 0.5342 0.0
H2111 H 0.6912 0.00584 0.557 0.0
H2112 H 0.68291 0.02853 0.56326 0.0
H2113 H 0.67723 0.01039 0.60164 0.0
H2114 H 0.65114 0.02704 0.6249 0.0
H2115 H 0.65049 0.05611 0.66138 0.0
H2116 H 0.18816 0.40386 0.83511 0.0
H2117 H 0.21695 0.40412 0.79914 0.0
H2118 H 0.22929 0.3511 0.85841 0.0
H2119 H 0.20043 0.35068 0.89404 0.0
H2120 H 0.25828 0.37723 0.86495 0.0
H2121 H 0.2299 0.37342 0.69387 0.0
H2122 H 0.22091 0.39103 0.72537 0.0
H2123 H 0.21699 0.36762 0.7412 0.0
C2124 C 0.19695 0.3922 0.84025 0.0
C2125 C 0.19189 0.37717 0.86715 0.0
C2126 C 0.21342 0.39235 0.81959 0.0
C2127 C 0.22529 0.37754 0.82558 0.0
C2128 C 0.22039 0.36267 0.85307 0.0
H2129 H 0.31815 0.34885 0.6799 0.0
H2130 H 0.28947 0.35022 0.71581 0.0
C2131 C 0.20385 0.36244 0.87341 0.0
C2132 C 0.24285 0.37758 0.80353 0.0
H2133 H 0.26136 0.37731 0.70281 0.0
C2134 C 0.25894 0.37729 0.8295 0.0
C2135 C 0.24379 0.37752 0.75724 0.0
C2136 C 0.22702 0.37727 0.72762 0.0
C2137 C 0.27585 0.37711 0.81051 0.0
C2138 C 0.27679 0.37723 0.7642 0.0
C2139 C 0.2607 0.37735 0.73826 0.0
C2140 C 0.29433 0.37664 0.74218 0.0
C2141 C 0.29261 0.37641 0.84018 0.0
C2142 C 0.30666 0.39111 0.74452 0.0
C2143 C 0.32307 0.39042 0.72363 0.0
C2144 C 0.32756 0.37518 0.70015 0.0
C2145 C 0.31516 0.36077 0.69775 0.0
C2146 C 0.29872 0.36154 0.71826 0.0
H2147 H 0.28963 0.37281 0.87486 0.0
H2148 H 0.30228 0.36637 0.82893 0.0
H2149 H 0.29921 0.38995 0.83905 0.0
H2150 H 0.30354 0.40303 0.76222 0.0
H2151 H 0.33222 0.40182 0.72585 0.0
H2152 H 0.87727 0.92668 0.06073 0.0
H2153 H 0.87615 0.95673 0.02424 0.0
H2154 H 0.87377 0.98118 0.14955 0.0
H2155 H 0.87494 0.95086 0.18696 0.0
H2156 H 0.84897 0.98413 0.0283 0.0
H2157 H 0.91652 0.0071 0.08854 0.0
H2158 H 0.90996 0.98345 0.09051 0.0
H2159 H 0.90167 0.99852 0.1295 0.0
C2160 C 0.87655 0.93836 0.08087 0.0
C2161 C 0.87629 0.93627 0.12702 0.0
C2162 C 0.87585 0.95558 0.05975 0.0
C2163 C 0.87503 0.97119 0.08411 0.0
C2164 C 0.87462 0.96928 0.13015 0.0
H2165 H 0.8792 0.08547 1.00166 0.0
H2166 H 0.87739 0.05636 0.04245 0.0
C2167 C 0.87522 0.95195 0.15147 0.0
C2168 C 0.8746 0.98935 0.06074 0.0
H2169 H 0.89941 0.02782 0.04297 0.0
C2170 C 0.85996 0.99374 0.03159 0.0
C2171 C 0.88896 1.00181 0.06499 0.0
C2172 C 0.90527 0.99753 0.09479 0.0
C2173 C 0.85921 0.01034 1.00685 0.0
C2174 C 0.87373 0.02271 1.01052 0.0
C2175 C 0.8883 0.01834 0.04 0.0
C2176 C 0.87402 0.04041 0.98483 0.0
C2177 C 0.84271 0.0146 0.9777 0.0
C2178 C 0.87272 0.04123 0.93859 0.0
C2179 C 0.87359 0.058 0.91493 0.0
C2180 C 0.87606 0.07421 0.9371 0.0
C2181 C 0.87735 0.07328 0.98336 0.0
C2182 C 0.87633 0.05661 1.00687 0.0
H2183 H 0.83097 0.0064 0.98804 0.0
H2184 H 0.83918 0.02923 0.97792 0.0
H2185 H 0.84538 0.01129 0.94347 0.0
H2186 H 0.87137 0.02889 0.92074 0.0
H2187 H 0.87271 0.05821 0.87936 0.0
H2188 H 0.20349 0.65511 0.12688 0.0
H2189 H 0.23343 0.65372 0.16301 0.0
H2190 H 0.21533 0.61124 0.25299 0.0
H2191 H 0.1863 0.61096 0.21283 0.0
H2192 H 0.24661 0.6613 0.2335 0.0
H2193 H 0.25971 0.58785 0.23087 0.0
H2194 H 0.24042 0.59804 0.202 0.0
H2195 H 0.23974 0.59127 0.25967 0.0
C2196 C 0.20603 0.64528 0.15394 0.0
C2197 C 0.19242 0.63332 0.16739 0.0
C2198 C 0.22318 0.64454 0.17491 0.0
C2199 C 0.22706 0.63215 0.21072 0.0
C2200 C 0.21323 0.62047 0.22461 0.0
H2201 H 0.31988 0.65506 0.38881 0.0
H2202 H 0.29027 0.65405 0.35119 0.0
C2203 C 0.19635 0.62064 0.2023 0.0
C2204 C 0.24527 0.63202 0.23426 0.0
H2205 H 0.27783 0.60418 0.28277 0.0
C2206 C 0.2535 0.64874 0.24355 0.0
C2207 C 0.25475 0.61578 0.24705 0.0
C2208 C 0.24826 0.59728 0.23386 0.0
C2209 C 0.2706 0.6497 0.26501 0.0
C2210 C 0.27939 0.63346 0.281 0.0
C2211 C 0.27121 0.61674 0.27149 0.0
C2212 C 0.29719 0.63339 0.30641 0.0
C2213 C 0.27921 0.6682 0.26837 0.0
C2214 C 0.3108 0.62112 0.29685 0.0
C2215 C 0.32741 0.62095 0.32038 0.0
C2216 C 0.33118 0.63351 0.35285 0.0
C2217 C 0.31755 0.6455 0.3632 0.0
C2218 C 0.30064 0.64512 0.34107 0.0
H2219 H 0.27421 0.6777 0.24119 0.0
H2220 H 0.27565 0.67411 0.29962 0.0
H2221 H 0.29405 0.66746 0.26729 0.0
H2222 H 0.30868 0.61171 0.27084 0.0
H2223 H 0.33741 0.61113 0.31261 0.0
H2224 H 0.35575 0.95072 0.37389 0.0
H2225 H 0.35428 0.97859 0.41494 0.0
H2226 H 0.40409 0.96398 0.48538 0.0
H2227 H 0.405 0.93588 0.4464 0.0
H2228 H 0.38198 0.97439 0.54069 0.0
H2229 H 0.37964 0.02566 0.4017 0.0
H2230 H 0.3614 0.00977 0.39885 0.0
H2231 H 0.38409 1.00199 0.39425 0.0
C2232 C 0.36647 0.95366 0.39773 0.0
C2233 C 0.3805 0.94117 0.40691 0.0
C2234 C 0.36568 0.96962 0.42111 0.0
C2235 C 0.3792 0.97362 0.45309 0.0
C2236 C 0.39343 0.96129 0.46118 0.0
H2237 H 0.40355 0.07782 0.55851 0.0
H2238 H 0.4013 0.04987 0.51879 0.0
C2239 C 0.39399 0.94522 0.43869 0.0
C2240 C 0.37844 0.99016 0.47962 0.0
H2241 H 0.37546 0.03651 0.47235 0.0
C2242 C 0.3806 0.98798 0.52565 0.0
C2243 C 0.37675 0.00796 0.46024 0.0
C2244 C 0.37552 0.01154 0.41106 0.0
C2245 C 0.38158 1.00298 0.55262 0.0
C2246 C 0.37954 0.02077 0.53332 0.0
C2247 C 0.37694 0.02292 0.48736 0.0
C2248 C 0.38118 0.03742 0.5595 0.0
C2249 C 0.3856 0.99954 0.60126 0.0
C2250 C 0.37078 0.03984 0.5962 0.0
C2251 C 0.37243 0.05573 0.61986 0.0
C2252 C 0.38411 0.06972 0.60641 0.0
C2253 C 0.3944 0.0673 0.56966 0.0
C2254 C 0.39306 0.05132 0.54676 0.0
H2255 H 0.392 0.98606 0.60854 0.0
H2256 H 0.39462 0.01015 0.61474 0.0
H2257 H 0.37286 0.99965 0.61864 0.0
H2258 H 0.36113 0.02963 0.60611 0.0
H2259 H 0.36412 0.05735 0.64762 0.0
H2260 H 0.83992 0.60095 0.1938 0.0
H2261 H 0.81118 0.59869 0.22978 0.0
H2262 H 0.7991 0.6542 0.18771 0.0
H2263 H 0.82794 0.65663 0.15258 0.0
H2264 H 0.79111 0.64674 0.27401 0.0
H2265 H 0.76195 0.59386 0.16786 0.0
H2266 H 0.78302 0.58775 0.19542 0.0
H2267 H 0.78207 0.60624 0.15476 0.0
C2268 C 0.83114 0.61267 0.19231 0.0
C2269 C 0.83616 0.62895 0.1702 0.0
C2270 C 0.81465 0.61133 0.21265 0.0
C2271 C 0.80279 0.62619 0.21096 0.0
C2272 C 0.80795 0.64252 0.1894 0.0
H2273 H 0.68898 0.62912 0.24892 0.0
H2274 H 0.71932 0.62929 0.2225 0.0
C2275 C 0.82442 0.64388 0.16917 0.0
C2276 C 0.78499 0.62483 0.23142 0.0
H2277 H 0.74475 0.60239 0.22672 0.0
C2278 C 0.781 0.637 0.26379 0.0
C2279 C 0.77168 0.61225 0.2178 0.0
C2280 C 0.77477 0.59938 0.18179 0.0
C2281 C 0.76412 0.63698 0.28272 0.0
C2282 C 0.75089 0.62425 0.26945 0.0
C2283 C 0.75491 0.61204 0.23722 0.0
C2284 C 0.73243 0.62406 0.28656 0.0
C2285 C 0.7604 0.65099 0.3157 0.0
C2286 C 0.72955 0.6209 0.33153 0.0
C2287 C 0.71209 0.62083 0.34696 0.0
C2288 C 0.69711 0.62382 0.31768 0.0
C2289 C 0.7001 0.62679 0.27262 0.0
C2290 C 0.7175 0.62687 0.25732 0.0
H2291 H 0.77026 0.66233 0.31458 0.0
H2292 H 0.7467 0.65671 0.30983 0.0
H2293 H 0.7613 0.64446 0.34925 0.0
H2294 H 0.7408 0.61834 0.3547 0.0
H2295 H 0.71034 0.6184 0.38179 0.0
H2296 H 0.1645 0.07692 0.89641 0.0
H2297 H 0.16468 0.04922 0.94387 0.0
H2298 H 0.10758 0.04341 0.91829 0.0
H2299 H 0.10762 0.07061 0.86876 0.0
H2300 H 0.15047 0.03991 0.01655 0.0
H2301 H 0.12233 0.99379 0.89261 0.0
H2302 H 0.12892 0.01677 0.87828 0.0
H2303 H 0.10741 0.01218 0.90112 0.0
C2304 C 0.15202 0.06959 0.90054 0.0
C2305 C 0.1361 0.07574 0.87835 0.0
C2306 C 0.15211 0.05378 0.9279 0.0
C2307 C 0.13622 0.04385 0.93419 0.0
C2308 C 0.12016 0.05035 0.91297 0.0
H2309 H 0.13138 0.95844 0.14764 0.0
H2310 H 0.12999 0.9877 0.1056 0.0
C2311 C 0.12015 0.06598 0.88481 0.0
C2312 C 0.1366 0.02682 0.96306 0.0
H2313 H 0.1248 0.9819 0.96613 0.0
C2314 C 0.14493 0.02719 1.00538 0.0
C2315 C 0.12959 0.01009 0.9486 0.0
C2316 C 0.12174 0.0081 0.90253 0.0
C2317 C 0.14659 0.01142 0.03327 0.0
C2318 C 0.13905 0.99483 0.01933 0.0
C2319 C 0.13053 0.99454 0.97721 0.0
C2320 C 0.14049 0.97735 0.0465 0.0
C2321 C 0.15704 0.01268 0.07661 0.0
C2322 C 0.14644 0.96155 0.02743 0.0
C2323 C 0.14667 0.94479 0.05093 0.0
C2324 C 0.14132 0.94338 0.09454 0.0
C2325 C 0.13586 0.95919 0.11431 0.0
C2326 C 0.13516 0.97596 0.09029 0.0
H2327 H 0.1665 0.02437 0.07608 0.0
H2328 H 0.14756 0.01478 0.1029 0.0
H2329 H 0.16482 1.00008 0.08514 0.0
H2330 H 0.15071 0.9621 0.99392 0.0
H2331 H 0.15097 0.93285 0.0348 0.0
H2332 H 0.68324 0.40426 0.71605 0.0
H2333 H 0.7133 0.40436 0.75155 0.0
H2334 H 0.7305 0.36502 0.66161 0.0
H2335 H 0.69991 0.36348 0.62958 0.0
H2336 H 0.7452 0.35579 0.73148 0.0
H2337 H 0.75678 0.42977 0.72253 0.0
H2338 H 0.7376 0.42475 0.75405 0.0
H2339 H 0.73721 0.41979 0.69653 0.0
C2340 C 0.69341 0.39554 0.70412 0.0
C2341 C 0.68909 0.38374 0.67025 0.0
C2342 C 0.71082 0.39584 0.72396 0.0
C2343 C 0.72467 0.38505 0.70894 0.0
C2344 C 0.7203 0.37352 0.67433 0.0
H2345 H 0.8376 0.40454 0.79363 0.0
H2346 H 0.80788 0.40509 0.75583 0.0
C2347 C 0.70275 0.3727 0.65571 0.0
C2348 C 0.74338 0.38503 0.73022 0.0
H2349 H 0.77678 0.41236 0.7716 0.0
C2350 C 0.7521 0.36826 0.73961 0.0
C2351 C 0.75291 0.40116 0.74053 0.0
C2352 C 0.7457 0.41985 0.72738 0.0
C2353 C 0.76967 0.36712 0.7588 0.0
C2354 C 0.77864 0.38315 0.77215 0.0
C2355 C 0.77002 0.39995 0.76238 0.0
C2356 C 0.79696 0.38285 0.79547 0.0
C2357 C 0.77854 0.34868 0.76268 0.0
C2358 C 0.80102 0.37049 0.83118 0.0
C2359 C 0.81832 0.36963 0.8514 0.0
C2360 C 0.83189 0.38166 0.83793 0.0
C2361 C 0.82762 0.39477 0.80412 0.0
C2362 C 0.81048 0.39519 0.78274 0.0
H2363 H 0.77304 0.33968 0.73702 0.0
H2364 H 0.79328 0.34971 0.7595 0.0
H2365 H 0.77579 0.34201 0.79505 0.0
H2366 H 0.79082 0.36141 0.84362 0.0
H2367 H 0.82102 0.3596 0.87798 0.0
loop_
_geom_bond_atom_site_label_1
_geom_bond_atom_site_label_2
_geom_bond_distance
_geom_bond_site_symmetry_2
_ccdc_geom_bond_type
C0 Eu1 2.835 . S
C0 C2 1.500 . S
C0 O20 1.257 . S
C0 O21 1.260 . S
Eu1 C0 2.835 . S
Eu1 O20 2.473 . S
Eu1 O21 2.480 . S
Eu1 O22 2.430 . S
Eu1 O23 2.670 . S
Eu1 O24 2.394 . S
Eu1 O29 2.355 . S
Eu1 O31 2.374 . S
C2 C0 1.500 . S
C2 C3 1.377 1_554 S
C2 C7 1.377 1_554 S
C3 C2 1.377 1_556 S
C3 C4 1.395 . S
C3 H32 0.931 . S
C4 C3 1.395 . S
C4 C5 1.383 . S
C4 H33 0.931 . S
C5 C4 1.383 . S
C5 C6 1.394 . S
C6 C5 1.394 . S
C6 C7 1.378 . S
C6 H34 0.931 . S
C7 C2 1.377 1_556 S
C7 C6 1.378 . S
C7 H35 0.931 1_556 S
C8 O22 1.259 . S
C8 O23 1.270 . S
C9 O24 1.251 . S
C9 O25 1.251 . S
C10 Eu11 2.835 . S
C10 C12 1.500 . S
C10 O26 1.257 . S
C10 O27 1.260 . S
Eu11 C10 2.835 . S
Eu11 O23 2.355 . S
Eu11 O25 2.374 . S
Eu11 O26 2.473 . S
Eu11 O27 2.480 . S
Eu11 O28 2.430 . S
Eu11 O29 2.670 . S
Eu11 O30 2.394 . S
C12 C10 1.500 . S
C12 C13 1.377 . S
C12 C17 1.377 . S
C13 C12 1.377 . S
C13 C14 1.395 . S
C13 H36 0.931 . S
C14 C13 1.395 . S
C14 C15 1.383 . S
C14 H37 0.931 . S
C15 C14 1.383 . S
C15 C16 1.394 . S
C16 C15 1.394 . S
C16 C17 1.378 . S
C16 H38 0.931 . S
C17 C12 1.377 . S
C17 C16 1.378 . S
C17 H39 0.931 . S
C18 O28 1.259 . S
C18 O29 1.270 . S
C19 O30 1.251 . S
C19 O31 1.251 . S
O20 C0 1.257 . S
O20 Eu1 2.473 . S
O21 C0 1.260 . S
O21 Eu1 2.480 . S
O22 Eu1 2.430 . S
O22 C8 1.259 . S
O23 Eu1 2.670 . S
O23 C8 1.270 . S
O23 Eu11 2.355 . S
O24 Eu1 2.394 . S
O24 C9 1.251 . S
O25 C9 1.251 . S
O25 Eu11 2.374 . S
O26 C10 1.257 . S
O26 Eu11 2.473 . S
O27 C10 1.260 . S
O27 Eu11 2.480 . S
O28 Eu11 2.430 . S
O28 C18 1.259 . S
O29 Eu1 2.355 . S
O29 Eu11 2.670 . S
O29 C18 1.270 . S
O30 Eu11 2.394 . S
O30 C19 1.251 . S
O31 Eu1 2.374 . S
O31 C19 1.251 . S
H32 C3 0.931 . S
H33 C4 0.931 . S
H34 C6 0.931 . S
H35 C7 0.931 1_554 S
H36 C13 0.931 . S
H37 C14 0.931 . S
H38 C16 0.931 . S
H39 C17 0.931 . S
C40 Eu41 2.835 . S
C40 C42 1.500 . S
C40 O60 1.257 . S
C40 O61 1.260 . S
Eu41 C40 2.835 . S
Eu41 O60 2.473 . S
Eu41 O61 2.480 . S
Eu41 O62 2.430 . S
Eu41 O63 2.670 . S
Eu41 O64 2.394 . S
Eu41 O69 2.355 . S
Eu41 O71 2.374 . S
C42 C40 1.500 . S
C42 C43 1.377 . S
C42 C47 1.377 . S
C43 C42 1.377 . S
C43 C44 1.395 . S
C43 H72 0.931 . S
C44 C43 1.395 . S
C44 C45 1.383 . S
C44 H73 0.931 . S
C45 C44 1.383 . S
C45 C46 1.394 . S
C46 C45 1.394 . S
C46 C47 1.378 . S
C46 H74 0.931 . S
C47 C42 1.377 . S
C47 C46 1.378 . S
C47 H75 0.931 . S
C48 O62 1.259 . S
C48 O63 1.270 . S
C49 O64 1.251 . S
C49 O65 1.251 . S
C50 Eu51 2.835 . S
C50 C52 1.500 . S
C50 O66 1.257 . S
C50 O67 1.260 . S
Eu51 C50 2.835 . S
Eu51 O63 2.355 . S
Eu51 O65 2.374 . S
Eu51 O66 2.473 . S
Eu51 O67 2.480 . S
Eu51 O68 2.430 . S
Eu51 O69 2.670 . S
Eu51 O70 2.394 . S
C52 C50 1.500 . S
C52 C53 1.377 . S
C52 C57 1.377 . S
C53 C52 1.377 . S
C53 C54 1.395 . S
C53 H76 0.931 . S
C54 C53 1.395 . S
C54 C55 1.383 . S
C54 H77 0.931 . S
C55 C54 1.383 . S
C55 C56 1.394 . S
C56 C55 1.394 . S
C56 C57 1.378 . S
C56 H78 0.931 . S
C57 C52 1.377 . S
C57 C56 1.378 . S
C57 H79 0.931 . S
C58 O68 1.259 . S
C58 O69 1.270 . S
C59 O70 1.251 . S
C59 O71 1.251 . S
O60 C40 1.257 . S
O60 Eu41 2.473 . S
O61 C40 1.260 . S
O61 Eu41 2.480 . S
O62 Eu41 2.430 . S
O62 C48 1.259 . S
O63 Eu41 2.670 . S
O63 C48 1.270 . S
O63 Eu51 2.355 . S
O64 Eu41 2.394 . S
O64 C49 1.251 . S
O65 C49 1.251 . S
O65 Eu51 2.374 . S
O66 C50 1.257 . S
O66 Eu51 2.473 . S
O67 C50 1.260 . S
O67 Eu51 2.480 . S
O68 Eu51 2.430 . S
O68 C58 1.259 . S
O69 Eu41 2.355 . S
O69 Eu51 2.670 . S
O69 C58 1.270 . S
O70 Eu51 2.394 . S
O70 C59 1.251 . S
O71 Eu41 2.374 . S
O71 C59 1.251 . S
H72 C43 0.931 . S
H73 C44 0.931 . S
H74 C46 0.931 . S
H75 C47 0.931 . S
H76 C53 0.931 . S
H77 C54 0.931 . S
H78 C56 0.931 . S
H79 C57 0.931 . S
C80 Eu81 2.835 . S
C80 C82 1.500 . S
C80 O100 1.257 . S
C80 O101 1.260 . S
Eu81 C80 2.835 . S
Eu81 O100 2.473 . S
Eu81 O101 2.480 . S
Eu81 O102 2.430 . S
Eu81 O103 2.670 . S
Eu81 O104 2.394 . S
Eu81 O109 2.355 . S
Eu81 O111 2.374 . S
C82 C80 1.500 . S
C82 C83 1.377 . S
C82 C87 1.377 . S
C83 C82 1.377 . S
C83 C84 1.395 . S
C83 H112 0.931 . S
C84 C83 1.395 . S
C84 C85 1.383 . S
C84 H113 0.931 . S
C85 C84 1.383 . S
C85 C86 1.394 . S
C86 C85 1.394 . S
C86 C87 1.378 . S
C86 H114 0.931 . S
C87 C82 1.377 . S
C87 C86 1.378 . S
C87 H115 0.931 . S
C88 O102 1.259 . S
C88 O103 1.270 . S
C89 O104 1.251 . S
C89 O105 1.251 . S
C90 Eu91 2.835 . S
C90 C92 1.500 . S
C90 O106 1.257 . S
C90 O107 1.260 . S
Eu91 C90 2.835 . S
Eu91 O103 2.355 . S
Eu91 O105 2.374 . S
Eu91 O106 2.473 . S
Eu91 O107 2.480 . S
Eu91 O108 2.430 . S
Eu91 O109 2.670 . S
Eu91 O110 2.394 . S
C92 C90 1.500 . S
C92 C93 1.377 . S
C92 C97 1.377 . S
C93 C92 1.377 . S
C93 C94 1.395 . S
C93 H116 0.931 . S
C94 C93 1.395 . S
C94 C95 1.383 . S
C94 H117 0.931 . S
C95 C94 1.383 . S
C95 C96 1.394 . S
C96 C95 1.394 . S
C96 C97 1.378 . S
C96 H118 0.931 . S
C97 C92 1.377 . S
C97 C96 1.378 . S
C97 H119 0.931 . S
C98 O108 1.259 . S
C98 O109 1.270 . S
C99 O110 1.251 . S
C99 O111 1.251 . S
O100 C80 1.257 . S
O100 Eu81 2.473 . S
O101 C80 1.260 . S
O101 Eu81 2.480 . S
O102 Eu81 2.430 . S
O102 C88 1.259 . S
O103 Eu81 2.670 . S
O103 C88 1.270 . S
O103 Eu91 2.355 . S
O104 Eu81 2.394 . S
O104 C89 1.251 . S
O105 C89 1.251 . S
O105 Eu91 2.374 . S
O106 C90 1.257 . S
O106 Eu91 2.473 . S
O107 C90 1.260 . S
O107 Eu91 2.480 . S
O108 Eu91 2.430 . S
O108 C98 1.259 . S
O109 Eu81 2.355 . S
O109 Eu91 2.670 . S
O109 C98 1.270 . S
O110 Eu91 2.394 . S
O110 C99 1.251 . S
O111 Eu81 2.374 . S
O111 C99 1.251 . S
H112 C83 0.931 . S
H113 C84 0.931 . S
H114 C86 0.931 . S
H115 C87 0.931 . S
H116 C93 0.931 . S
H117 C94 0.931 . S
H118 C96 0.931 . S
H119 C97 0.931 . S
C120 Eu121 2.835 . S
C120 C122 1.500 1_556 S
C120 O140 1.257 . S
C120 O141 1.260 . S
Eu121 C120 2.835 . S
Eu121 O140 2.473 . S
Eu121 O141 2.480 . S
Eu121 O142 2.430 . S
Eu121 O143 2.670 . S
Eu121 O144 2.394 . S
Eu121 O149 2.355 . S
Eu121 O151 2.374 . S
C122 C120 1.500 1_554 S
C122 C123 1.377 . S
C122 C127 1.377 . S
C123 C122 1.377 . S
C123 C124 1.395 . S
C123 H152 0.931 . S
C124 C123 1.395 . S
C124 C125 1.383 . S
C124 H153 0.931 . S
C125 C124 1.383 . S
C125 C126 1.394 . S
C126 C125 1.394 . S
C126 C127 1.378 . S
C126 H154 0.931 . S
C127 C122 1.377 . S
C127 C126 1.378 . S
C127 H155 0.931 . S
C128 O142 1.259 . S
C128 O143 1.270 . S
C129 O144 1.251 . S
C129 O145 1.251 . S
C130 Eu131 2.835 . S
C130 C132 1.500 . S
C130 O146 1.257 . S
C130 O147 1.260 . S
Eu131 C130 2.835 . S
Eu131 O143 2.355 . S
Eu131 O145 2.374 . S
Eu131 O146 2.473 . S
Eu131 O147 2.480 . S
Eu131 O148 2.430 . S
Eu131 O149 2.670 . S
Eu131 O150 2.394 . S
C132 C130 1.500 . S
C132 C133 1.377 . S
C132 C137 1.377 . S
C133 C132 1.377 . S
C133 C134 1.395 . S
C133 H156 0.931 . S
C134 C133 1.395 . S
C134 C135 1.383 . S
C134 H157 0.931 . S
C135 C134 1.383 . S
C135 C136 1.394 . S
C136 C135 1.394 . S
C136 C137 1.378 . S
C136 H158 0.931 . S
C137 C132 1.377 . S
C137 C136 1.378 . S
C137 H159 0.931 . S
C138 O148 1.259 . S
C138 O149 1.270 . S
C139 O150 1.251 . S
C139 O151 1.251 . S
O140 C120 1.257 . S
O140 Eu121 2.473 . S
O141 C120 1.260 . S
O141 Eu121 2.480 . S
O142 Eu121 2.430 . S
O142 C128 1.259 . S
O143 Eu121 2.670 . S
O143 C128 1.270 . S
O143 Eu131 2.355 . S
O144 Eu121 2.394 . S
O144 C129 1.251 . S
O145 C129 1.251 . S
O145 Eu131 2.374 . S
O146 C130 1.257 . S
O146 Eu131 2.473 . S
O147 C130 1.260 . S
O147 Eu131 2.480 . S
O148 Eu131 2.430 . S
O148 C138 1.259 . S
O149 Eu121 2.355 . S
O149 Eu131 2.670 . S
O149 C138 1.270 . S
O150 Eu131 2.394 . S
O150 C139 1.251 . S
O151 Eu121 2.374 . S
O151 C139 1.251 . S
H152 C123 0.931 . S
H153 C124 0.931 . S
H154 C126 0.931 . S
H155 C127 0.931 . S
H156 C133 0.931 . S
H157 C134 0.931 . S
H158 C136 0.931 . S
H159 C137 0.931 . S
C160 Eu161 2.835 . S
C160 C162 1.500 1_556 S
C160 O180 1.257 . S
C160 O181 1.260 . S
Eu161 C160 2.835 . S
Eu161 O180 2.473 . S
Eu161 O181 2.480 . S
Eu161 O182 2.430 . S
Eu161 O183 2.670 . S
Eu161 O184 2.394 . S
Eu161 O189 2.355 . S
Eu161 O191 2.374 . S
C162 C160 1.500 1_554 S
C162 C163 1.377 . S
C162 C167 1.377 . S
C163 C162 1.377 . S
C163 C164 1.395 . S
C163 H192 0.931 . S
C164 C163 1.395 . S
C164 C165 1.383 . S
C164 H193 0.931 . S
C165 C164 1.383 . S
C165 C166 1.394 . S
C166 C165 1.394 . S
C166 C167 1.378 . S
C166 H194 0.931 . S
C167 C162 1.377 . S
C167 C166 1.378 . S
C167 H195 0.931 . S
C168 O182 1.259 . S
C168 O183 1.270 . S
C169 O184 1.251 . S
C169 O185 1.251 . S
C170 Eu171 2.835 . S
C170 C172 1.500 . S
C170 O186 1.257 . S
C170 O187 1.260 . S
Eu171 C170 2.835 . S
Eu171 O183 2.355 . S
Eu171 O185 2.374 . S
Eu171 O186 2.473 . S
Eu171 O187 2.480 . S
Eu171 O188 2.430 . S
Eu171 O189 2.670 . S
Eu171 O190 2.394 . S
C172 C170 1.500 . S
C172 C173 1.377 . S
C172 C177 1.377 . S
C173 C172 1.377 . S
C173 C174 1.395 . S
C173 H196 0.931 . S
C174 C173 1.395 . S
C174 C175 1.383 . S
C174 H197 0.931 . S
C175 C174 1.383 . S
C175 C176 1.394 . S
C176 C175 1.394 . S
C176 C177 1.378 . S
C176 H198 0.931 . S
C177 C172 1.377 . S
C177 C176 1.378 . S
C177 H199 0.931 . S
C178 O188 1.259 . S
C178 O189 1.270 . S
C179 O190 1.251 . S
C179 O191 1.251 . S
O180 C160 1.257 . S
O180 Eu161 2.473 . S
O181 C160 1.260 . S
O181 Eu161 2.480 . S
O182 Eu161 2.430 . S
O182 C168 1.259 . S
O183 Eu161 2.670 . S
O183 C168 1.270 . S
O183 Eu171 2.355 . S
O184 Eu161 2.394 . S
O184 C169 1.251 . S
O185 C169 1.251 . S
O185 Eu171 2.374 . S
O186 C170 1.257 . S
O186 Eu171 2.473 . S
O187 C170 1.260 . S
O187 Eu171 2.480 . S
O188 Eu171 2.430 . S
O188 C178 1.259 . S
O189 Eu161 2.355 . S
O189 Eu171 2.670 . S
O189 C178 1.270 . S
O190 Eu171 2.394 . S
O190 C179 1.251 . S
O191 Eu161 2.374 . S
O191 C179 1.251 . S
H192 C163 0.931 . S
H193 C164 0.931 . S
H194 C166 0.931 . S
H195 C167 0.931 . S
H196 C173 0.931 . S
H197 C174 0.931 . S
H198 C176 0.931 . S
H199 C177 0.931 . S
C200 Eu201 2.835 . S
C200 C202 1.500 . S
C200 O220 1.257 . S
C200 O221 1.260 . S
Eu201 C200 2.835 . S
Eu201 O220 2.473 . S
Eu201 O221 2.480 . S
Eu201 O222 2.430 . S
Eu201 O223 2.670 . S
Eu201 O224 2.394 . S
Eu201 O229 2.355 . S
Eu201 O231 2.374 . S
C202 C200 1.500 . S
C202 C203 1.377 1_554 S
C202 C207 1.377 1_554 S
C203 C202 1.377 1_556 S
C203 C204 1.395 . S
C203 H232 0.931 . S
C204 C203 1.395 . S
C204 C205 1.383 . S
C204 H233 0.931 . S
C205 C204 1.383 . S
C205 C206 1.394 . S
C206 C205 1.394 . S
C206 C207 1.378 . S
C206 H234 0.931 . S
C207 C202 1.377 1_556 S
C207 C206 1.378 . S
C207 H235 0.931 1_556 S
C208 O222 1.259 . S
C208 O223 1.270 . S
C209 O224 1.251 . S
C209 O225 1.251 . S
C210 Eu211 2.835 . S
C210 C212 1.500 . S
C210 O226 1.257 . S
C210 O227 1.260 . S
Eu211 C210 2.835 . S
Eu211 O223 2.355 . S
Eu211 O225 2.374 . S
Eu211 O226 2.473 . S
Eu211 O227 2.480 . S
Eu211 O228 2.430 . S
Eu211 O229 2.670 . S
Eu211 O230 2.394 . S
C212 C210 1.500 . S
C212 C213 1.377 . S
C212 C217 1.377 . S
C213 C212 1.377 . S
C213 C214 1.395 . S
C213 H236 0.931 . S
C214 C213 1.395 . S
C214 C215 1.383 . S
C214 H237 0.931 . S
C215 C214 1.383 . S
C215 C216 1.394 . S
C216 C215 1.394 . S
C216 C217 1.378 . S
C216 H238 0.931 . S
C217 C212 1.377 . S
C217 C216 1.378 . S
C217 H239 0.931 . S
C218 O228 1.259 . S
C218 O229 1.270 . S
C219 O230 1.251 . S
C219 O231 1.251 . S
O220 C200 1.257 . S
O220 Eu201 2.473 . S
O221 C200 1.260 . S
O221 Eu201 2.480 . S
O222 Eu201 2.430 . S
O222 C208 1.259 . S
O223 Eu201 2.670 . S
O223 C208 1.270 . S
O223 Eu211 2.355 . S
O224 Eu201 2.394 . S
O224 C209 1.251 . S
O225 C209 1.251 . S
O225 Eu211 2.374 . S
O226 C210 1.257 . S
O226 Eu211 2.473 . S
O227 C210 1.260 . S
O227 Eu211 2.480 . S
O228 Eu211 2.430 . S
O228 C218 1.259 . S
O229 Eu201 2.355 . S
O229 Eu211 2.670 . S
O229 C218 1.270 . S
O230 Eu211 2.394 . S
O230 C219 1.251 . S
O231 Eu201 2.374 . S
O231 C219 1.251 . S
H232 C203 0.931 . S
H233 C204 0.931 . S
H234 C206 0.931 . S
H235 C207 0.931 1_554 S
H236 C213 0.931 . S
H237 C214 0.931 . S
H238 C216 0.931 . S
H239 C217 0.931 . S
C240 Eu241 2.835 . S
C240 C242 1.500 . S
C240 O260 1.257 . S
C240 O261 1.260 . S
Eu241 C240 2.835 . S
Eu241 O260 2.473 . S
Eu241 O261 2.480 . S
Eu241 O262 2.430 . S
Eu241 O263 2.670 . S
Eu241 O264 2.394 . S
Eu241 O269 2.355 . S
Eu241 O271 2.374 . S
C242 C240 1.500 . S
C242 C243 1.377 . S
C242 C247 1.377 . S
C243 C242 1.377 . S
C243 C244 1.395 . S
C243 H272 0.931 . S
C244 C243 1.395 . S
C244 C245 1.383 . S
C244 H273 0.931 . S
C245 C244 1.383 . S
C245 C246 1.394 . S
C246 C245 1.394 . S
C246 C247 1.378 . S
C246 H274 0.931 . S
C247 C242 1.377 . S
C247 C246 1.378 . S
C247 H275 0.931 . S
C248 O262 1.259 . S
C248 O263 1.270 . S
C249 O264 1.251 . S
C249 O265 1.251 . S
C250 Eu251 2.835 . S
C250 C252 1.500 . S
C250 O266 1.257 . S
C250 O267 1.260 . S
Eu251 C250 2.835 . S
Eu251 O263 2.355 . S
Eu251 O265 2.374 . S
Eu251 O266 2.473 . S
Eu251 O267 2.480 . S
Eu251 O268 2.430 . S
Eu251 O269 2.670 . S
Eu251 O270 2.394 . S
C252 C250 1.500 . S
C252 C253 1.377 . S
C252 C257 1.377 . S
C253 C252 1.377 . S
C253 C254 1.395 . S
C253 H276 0.931 . S
C254 C253 1.395 . S
C254 C255 1.383 . S
C254 H277 0.931 . S
C255 C254 1.383 . S
C255 C256 1.394 . S
C256 C255 1.394 . S
C256 C257 1.378 . S
C256 H278 0.931 . S
C257 C252 1.377 . S
C257 C256 1.378 . S
C257 H279 0.931 . S
C258 O268 1.259 . S
C258 O269 1.270 . S
C259 O270 1.251 . S
C259 O271 1.251 . S
O260 C240 1.257 . S
O260 Eu241 2.473 . S
O261 C240 1.260 . S
O261 Eu241 2.480 . S
O262 Eu241 2.430 . S
O262 C248 1.259 . S
O263 Eu241 2.670 . S
O263 C248 1.270 . S
O263 Eu251 2.355 . S
O264 Eu241 2.394 . S
O264 C249 1.251 . S
O265 C249 1.251 . S
O265 Eu251 2.374 . S
O266 C250 1.257 . S
O266 Eu251 2.473 . S
O267 C250 1.260 . S
O267 Eu251 2.480 . S
O268 Eu251 2.430 . S
O268 C258 1.259 . S
O269 Eu241 2.355 . S
O269 Eu251 2.670 . S
O269 C258 1.270 . S
O270 Eu251 2.394 . S
O270 C259 1.251 . S
O271 Eu241 2.374 . S
O271 C259 1.251 . S
H272 C243 0.931 . S
H273 C244 0.931 . S
H274 C246 0.931 . S
H275 C247 0.931 . S
H276 C253 0.931 . S
H277 C254 0.931 . S
H278 C256 0.931 . S
H279 C257 0.931 . S
C280 Eu281 2.835 . S
C280 C282 1.500 . S
C280 O300 1.257 . S
C280 O301 1.260 . S
Eu281 C280 2.835 . S
Eu281 O300 2.473 . S
Eu281 O301 2.480 . S
Eu281 O302 2.430 . S
Eu281 O303 2.670 . S
Eu281 O304 2.394 . S
Eu281 O309 2.355 . S
Eu281 O311 2.374 . S
C282 C280 1.500 . S
C282 C283 1.377 . S
C282 C287 1.377 . S
C283 C282 1.377 . S
C283 C284 1.395 . S
C283 H312 0.931 . S
C284 C283 1.395 . S
C284 C285 1.383 . S
C284 H313 0.931 . S
C285 C284 1.383 . S
C285 C286 1.394 . S
C286 C285 1.394 . S
C286 C287 1.378 . S
C286 H314 0.931 . S
C287 C282 1.377 . S
C287 C286 1.378 . S
C287 H315 0.931 . S
C288 O302 1.259 . S
C288 O303 1.270 . S
C289 O304 1.251 . S
C289 O305 1.251 . S
C290 Eu291 2.835 . S
C290 C292 1.500 . S
C290 O306 1.257 . S
C290 O307 1.260 . S
Eu291 C290 2.835 . S
Eu291 O303 2.355 . S
Eu291 O305 2.374 . S
Eu291 O306 2.473 . S
Eu291 O307 2.480 . S
Eu291 O308 2.430 . S
Eu291 O309 2.670 . S
Eu291 O310 2.394 . S
C292 C290 1.500 . S
C292 C293 1.377 . S
C292 C297 1.377 . S
C293 C292 1.377 . S
C293 C294 1.395 . S
C293 H316 0.931 . S
C294 C293 1.395 . S
C294 C295 1.383 . S
C294 H317 0.931 . S
C295 C294 1.383 . S
C295 C296 1.394 . S
C296 C295 1.394 . S
C296 C297 1.378 . S
C296 H318 0.931 . S
C297 C292 1.377 . S
C297 C296 1.378 . S
C297 H319 0.931 . S
C298 O308 1.259 . S
C298 O309 1.270 . S
C299 O310 1.251 . S
C299 O311 1.251 . S
O300 C280 1.257 . S
O300 Eu281 2.473 . S
O301 C280 1.260 . S
O301 Eu281 2.480 . S
O302 Eu281 2.430 . S
O302 C288 1.259 . S
O303 Eu281 2.670 . S
O303 C288 1.270 . S
O303 Eu291 2.355 . S
O304 Eu281 2.394 . S
O304 C289 1.251 . S
O305 C289 1.251 . S
O305 Eu291 2.374 . S
O306 C290 1.257 . S
O306 Eu291 2.473 . S
O307 C290 1.260 . S
O307 Eu291 2.480 . S
O308 Eu291 2.430 . S
O308 C298 1.259 . S
O309 Eu281 2.355 . S
O309 Eu291 2.670 . S
O309 C298 1.270 . S
O310 Eu291 2.394 . S
O310 C299 1.251 . S
O311 Eu281 2.374 . S
O311 C299 1.251 . S
H312 C283 0.931 . S
H313 C284 0.931 . S
H314 C286 0.931 . S
H315 C287 0.931 . S
H316 C293 0.931 . S
H317 C294 0.931 . S
H318 C296 0.931 . S
H319 C297 0.931 . S
C320 Eu321 2.835 . S
C320 C322 1.500 . S
C320 O340 1.257 . S
C320 O341 1.260 . S
Eu321 C320 2.835 . S
Eu321 O340 2.473 . S
Eu321 O341 2.480 . S
Eu321 O342 2.430 . S
Eu321 O343 2.670 . S
Eu321 O344 2.394 . S
Eu321 O349 2.355 . S
Eu321 O351 2.374 . S
C322 C320 1.500 . S
C322 C323 1.377 . S
C322 C327 1.377 . S
C323 C322 1.377 . S
C323 C324 1.395 . S
C323 H352 0.931 . S
C324 C323 1.395 . S
C324 C325 1.383 . S
C324 H353 0.931 . S
C325 C324 1.383 . S
C325 C326 1.394 . S
C326 C325 1.394 . S
C326 C327 1.378 . S
C326 H354 0.931 . S
C327 C322 1.377 . S
C327 C326 1.378 . S
C327 H355 0.931 . S
C328 O342 1.259 . S
C328 O343 1.270 . S
C329 O344 1.251 . S
C329 O345 1.251 . S
C330 Eu331 2.835 . S
C330 C332 1.500 . S
C330 O346 1.257 . S
C330 O347 1.260 . S
Eu331 C330 2.835 . S
Eu331 O343 2.355 . S
Eu331 O345 2.374 . S
Eu331 O346 2.473 . S
Eu331 O347 2.480 . S
Eu331 O348 2.430 . S
Eu331 O349 2.670 . S
Eu331 O350 2.394 . S
C332 C330 1.500 . S
C332 C333 1.377 1_556 S
C332 C337 1.377 1_556 S
C333 C332 1.377 1_554 S
C333 C334 1.395 . S
C333 H356 0.931 . S
C334 C333 1.395 . S
C334 C335 1.383 . S
C334 H357 0.931 . S
C335 C334 1.383 . S
C335 C336 1.394 . S
C336 C335 1.394 . S
C336 C337 1.378 . S
C336 H358 0.931 . S
C337 C332 1.377 1_554 S
C337 C336 1.378 . S
C337 H359 0.931 1_554 S
C338 O348 1.259 . S
C338 O349 1.270 . S
C339 O350 1.251 . S
C339 O351 1.251 . S
O340 C320 1.257 . S
O340 Eu321 2.473 . S
O341 C320 1.260 . S
O341 Eu321 2.480 . S
O342 Eu321 2.430 . S
O342 C328 1.259 . S
O343 Eu321 2.670 . S
O343 C328 1.270 . S
O343 Eu331 2.355 . S
O344 Eu321 2.394 . S
O344 C329 1.251 . S
O345 C329 1.251 . S
O345 Eu331 2.374 . S
O346 C330 1.257 . S
O346 Eu331 2.473 . S
O347 C330 1.260 . S
O347 Eu331 2.480 . S
O348 Eu331 2.430 . S
O348 C338 1.259 . S
O349 Eu321 2.355 . S
O349 Eu331 2.670 . S
O349 C338 1.270 . S
O350 Eu331 2.394 . S
O350 C339 1.251 . S
O351 Eu321 2.374 . S
O351 C339 1.251 . S
H352 C323 0.931 . S
H353 C324 0.931 . S
H354 C326 0.931 . S
H355 C327 0.931 . S
H356 C333 0.931 . S
H357 C334 0.931 . S
H358 C336 0.931 . S
H359 C337 0.931 1_556 S
C360 Eu361 2.835 . S
C360 C362 1.500 . S
C360 O380 1.257 . S
C360 O381 1.260 . S
Eu361 C360 2.835 . S
Eu361 O380 2.473 . S
Eu361 O381 2.480 . S
Eu361 O382 2.430 . S
Eu361 O383 2.670 . S
Eu361 O384 2.394 . S
Eu361 O389 2.355 . S
Eu361 O391 2.374 . S
C362 C360 1.500 . S
C362 C363 1.377 . S
C362 C367 1.377 . S
C363 C362 1.377 . S
C363 C364 1.395 . S
C363 H392 0.931 . S
C364 C363 1.395 . S
C364 C365 1.383 . S
C364 H393 0.931 . S
C365 C364 1.383 . S
C365 C366 1.394 . S
C366 C365 1.394 . S
C366 C367 1.378 . S
C366 H394 0.931 . S
C367 C362 1.377 . S
C367 C366 1.378 . S
C367 H395 0.931 . S
C368 O382 1.259 . S
C368 O383 1.270 . S
C369 O384 1.251 . S
C369 O385 1.251 . S
C370 Eu371 2.835 . S
C370 C372 1.500 . S
C370 O386 1.257 . S
C370 O387 1.260 . S
Eu371 C370 2.835 . S
Eu371 O383 2.355 . S
Eu371 O385 2.374 . S
Eu371 O386 2.473 . S
Eu371 O387 2.480 . S
Eu371 O388 2.430 . S
Eu371 O389 2.670 . S
Eu371 O390 2.394 . S
C372 C370 1.500 . S
C372 C373 1.377 . S
C372 C377 1.377 . S
C373 C372 1.377 . S
C373 C374 1.395 . S
C373 H396 0.931 . S
C374 C373 1.395 . S
C374 C375 1.383 . S
C374 H397 0.931 . S
C375 C374 1.383 . S
C375 C376 1.394 . S
C376 C375 1.394 . S
C376 C377 1.378 . S
C376 H398 0.931 . S
C377 C372 1.377 . S
C377 C376 1.378 . S
C377 H399 0.931 . S
C378 O388 1.259 . S
C378 O389 1.270 . S
C379 O390 1.251 . S
C379 O391 1.251 . S
O380 C360 1.257 . S
O380 Eu361 2.473 . S
O381 C360 1.260 . S
O381 Eu361 2.480 . S
O382 Eu361 2.430 . S
O382 C368 1.259 . S
O383 Eu361 2.670 . S
O383 C368 1.270 . S
O383 Eu371 2.355 . S
O384 Eu361 2.394 . S
O384 C369 1.251 . S
O385 C369 1.251 . S
O385 Eu371 2.374 . S
O386 C370 1.257 . S
O386 Eu371 2.473 . S
O387 C370 1.260 . S
O387 Eu371 2.480 . S
O388 Eu371 2.430 . S
O388 C378 1.259 . S
O389 Eu361 2.355 . S
O389 Eu371 2.670 . S
O389 C378 1.270 . S
O390 Eu371 2.394 . S
O390 C379 1.251 . S
O391 Eu361 2.374 . S
O391 C379 1.251 . S
H392 C363 0.931 . S
H393 C364 0.931 . S
H394 C366 0.931 . S
H395 C367 0.931 . S
H396 C373 0.931 . S
H397 C374 0.931 . S
H398 C376 0.931 . S
H399 C377 0.931 . S
C400 Eu401 2.835 . S
C400 C402 1.500 . S
C400 O420 1.257 . S
C400 O421 1.260 . S
Eu401 C400 2.835 . S
Eu401 O420 2.473 . S
Eu401 O421 2.480 . S
Eu401 O422 2.430 . S
Eu401 O423 2.670 . S
Eu401 O424 2.394 . S
Eu401 O429 2.355 . S
Eu401 O431 2.374 . S
C402 C400 1.500 . S
C402 C403 1.377 . S
C402 C407 1.377 . S
C403 C402 1.377 . S
C403 C404 1.395 . S
C403 H432 0.931 . S
C404 C403 1.395 . S
C404 C405 1.383 . S
C404 H433 0.931 . S
C405 C404 1.383 . S
C405 C406 1.394 . S
C406 C405 1.394 . S
C406 C407 1.378 . S
C406 H434 0.931 . S
C407 C402 1.377 . S
C407 C406 1.378 . S
C407 H435 0.931 . S
C408 O422 1.259 . S
C408 O423 1.270 . S
C409 O424 1.251 . S
C409 O425 1.251 . S
C410 Eu411 2.835 . S
C410 C412 1.500 . S
C410 O426 1.257 . S
C410 O427 1.260 . S
Eu411 C410 2.835 . S
Eu411 O423 2.355 . S
Eu411 O425 2.374 . S
Eu411 O426 2.473 . S
Eu411 O427 2.480 . S
Eu411 O428 2.430 . S
Eu411 O429 2.670 . S
Eu411 O430 2.394 . S
C412 C410 1.500 . S
C412 C413 1.377 . S
C412 C417 1.377 . S
C413 C412 1.377 . S
C413 C414 1.395 . S
C413 H436 0.931 . S
C414 C413 1.395 . S
C414 C415 1.383 . S
C414 H437 0.931 . S
C415 C414 1.383 . S
C415 C416 1.394 . S
C416 C415 1.394 . S
C416 C417 1.378 . S
C416 H438 0.931 . S
C417 C412 1.377 . S
C417 C416 1.378 . S
C417 H439 0.931 . S
C418 O428 1.259 . S
C418 O429 1.270 . S
C419 O430 1.251 . S
C419 O431 1.251 . S
O420 C400 1.257 . S
O420 Eu401 2.473 . S
O421 C400 1.260 . S
O421 Eu401 2.480 . S
O422 Eu401 2.430 . S
O422 C408 1.259 . S
O423 Eu401 2.670 . S
O423 C408 1.270 . S
O423 Eu411 2.355 . S
O424 Eu401 2.394 . S
O424 C409 1.251 . S
O425 C409 1.251 . S
O425 Eu411 2.374 . S
O426 C410 1.257 . S
O426 Eu411 2.473 . S
O427 C410 1.260 . S
O427 Eu411 2.480 . S
O428 Eu411 2.430 . S
O428 C418 1.259 . S
O429 Eu401 2.355 . S
O429 Eu411 2.670 . S
O429 C418 1.270 . S
O430 Eu411 2.394 . S
O430 C419 1.251 . S
O431 Eu401 2.374 . S
O431 C419 1.251 . S
H432 C403 0.931 . S
H433 C404 0.931 . S
H434 C406 0.931 . S
H435 C407 0.931 . S
H436 C413 0.931 . S
H437 C414 0.931 . S
H438 C416 0.931 . S
H439 C417 0.931 . S
C440 Eu441 2.835 . S
C440 C442 1.500 . S
C440 O460 1.257 . S
C440 O461 1.260 . S
Eu441 C440 2.835 . S
Eu441 O460 2.473 . S
Eu441 O461 2.480 . S
Eu441 O462 2.430 . S
Eu441 O463 2.670 . S
Eu441 O464 2.394 . S
Eu441 O469 2.355 . S
Eu441 O471 2.374 . S
C442 C440 1.500 . S
C442 C443 1.377 . S
C442 C447 1.377 . S
C443 C442 1.377 . S
C443 C444 1.395 . S
C443 H472 0.931 . S
C444 C443 1.395 . S
C444 C445 1.383 . S
C444 H473 0.931 . S
C445 C444 1.383 . S
C445 C446 1.394 . S
C446 C445 1.394 . S
C446 C447 1.378 . S
C446 H474 0.931 . S
C447 C442 1.377 . S
C447 C446 1.378 . S
C447 H475 0.931 . S
C448 O462 1.259 . S
C448 O463 1.270 . S
C449 O464 1.251 . S
C449 O465 1.251 . S
C450 Eu451 2.835 . S
C450 C452 1.500 1_554 S
C450 O466 1.257 . S
C450 O467 1.260 . S
Eu451 C450 2.835 . S
Eu451 O463 2.355 . S
Eu451 O465 2.374 . S
Eu451 O466 2.473 . S
Eu451 O467 2.480 . S
Eu451 O468 2.430 . S
Eu451 O469 2.670 . S
Eu451 O470 2.394 . S
C452 C450 1.500 1_556 S
C452 C453 1.377 . S
C452 C457 1.377 . S
C453 C452 1.377 . S
C453 C454 1.395 . S
C453 H476 0.931 . S
C454 C453 1.395 . S
C454 C455 1.383 . S
C454 H477 0.931 . S
C455 C454 1.383 . S
C455 C456 1.394 . S
C456 C455 1.394 . S
C456 C457 1.378 . S
C456 H478 0.931 . S
C457 C452 1.377 . S
C457 C456 1.378 . S
C457 H479 0.931 . S
C458 O468 1.259 . S
C458 O469 1.270 . S
C459 O470 1.251 . S
C459 O471 1.251 . S
O460 C440 1.257 . S
O460 Eu441 2.473 . S
O461 C440 1.260 . S
O461 Eu441 2.480 . S
O462 Eu441 2.430 . S
O462 C448 1.259 . S
O463 Eu441 2.670 . S
O463 C448 1.270 . S
O463 Eu451 2.355 . S
O464 Eu441 2.394 . S
O464 C449 1.251 . S
O465 C449 1.251 . S
O465 Eu451 2.374 . S
O466 C450 1.257 . S
O466 Eu451 2.473 . S
O467 C450 1.260 . S
O467 Eu451 2.480 . S
O468 Eu451 2.430 . S
O468 C458 1.259 . S
O469 Eu441 2.355 . S
O469 Eu451 2.670 . S
O469 C458 1.270 . S
O470 Eu451 2.394 . S
O470 C459 1.251 . S
O471 Eu441 2.374 . S
O471 C459 1.251 . S
H472 C443 0.931 . S
H473 C444 0.931 . S
H474 C446 0.931 . S
H475 C447 0.931 . S
H476 C453 0.931 . S
H477 C454 0.931 . S
H478 C456 0.931 . S
H479 C457 0.931 . S
C480 Eu481 2.835 . S
C480 C482 1.500 . S
C480 O500 1.257 . S
C480 O501 1.260 . S
Eu481 C480 2.835 . S
Eu481 O500 2.473 . S
Eu481 O501 2.480 . S
Eu481 O502 2.430 . S
Eu481 O503 2.670 . S
Eu481 O504 2.394 . S
Eu481 O509 2.355 . S
Eu481 O511 2.374 . S
C482 C480 1.500 . S
C482 C483 1.377 . S
C482 C487 1.377 . S
C483 C482 1.377 . S
C483 C484 1.395 . S
C483 H512 0.931 . S
C484 C483 1.395 . S
C484 C485 1.383 . S
C484 H513 0.931 . S
C485 C484 1.383 . S
C485 C486 1.394 . S
C486 C485 1.394 . S
C486 C487 1.378 . S
C486 H514 0.931 . S
C487 C482 1.377 . S
C487 C486 1.378 . S
C487 H515 0.931 . S
C488 O502 1.259 . S
C488 O503 1.270 . S
C489 O504 1.251 . S
C489 O505 1.251 . S
C490 Eu491 2.835 . S
C490 C492 1.500 1_554 S
C490 O506 1.257 . S
C490 O507 1.260 . S
Eu491 C490 2.835 . S
Eu491 O503 2.355 . S
Eu491 O505 2.374 . S
Eu491 O506 2.473 . S
Eu491 O507 2.480 . S
Eu491 O508 2.430 . S
Eu491 O509 2.670 . S
Eu491 O510 2.394 . S
C492 C490 1.500 1_556 S
C492 C493 1.377 . S
C492 C497 1.377 . S
C493 C492 1.377 . S
C493 C494 1.395 . S
C493 H516 0.931 . S
C494 C493 1.395 . S
C494 C495 1.383 . S
C494 H517 0.931 . S
C495 C494 1.383 . S
C495 C496 1.394 . S
C496 C495 1.394 . S
C496 C497 1.378 . S
C496 H518 0.931 . S
C497 C492 1.377 . S
C497 C496 1.378 . S
C497 H519 0.931 . S
C498 O508 1.259 . S
C498 O509 1.270 . S
C499 O510 1.251 . S
C499 O511 1.251 . S
O500 C480 1.257 . S
O500 Eu481 2.473 . S
O501 C480 1.260 . S
O501 Eu481 2.480 . S
O502 Eu481 2.430 . S
O502 C488 1.259 . S
O503 Eu481 2.670 . S
O503 C488 1.270 . S
O503 Eu491 2.355 . S
O504 Eu481 2.394 . S
O504 C489 1.251 . S
O505 C489 1.251 . S
O505 Eu491 2.374 . S
O506 C490 1.257 . S
O506 Eu491 2.473 . S
O507 C490 1.260 . S
O507 Eu491 2.480 . S
O508 Eu491 2.430 . S
O508 C498 1.259 . S
O509 Eu481 2.355 . S
O509 Eu491 2.670 . S
O509 C498 1.270 . S
O510 Eu491 2.394 . S
O510 C499 1.251 . S
O511 Eu481 2.374 . S
O511 C499 1.251 . S
H512 C483 0.931 . S
H513 C484 0.931 . S
H514 C486 0.931 . S
H515 C487 0.931 . S
H516 C493 0.931 . S
H517 C494 0.931 . S
H518 C496 0.931 . S
H519 C497 0.931 . S
C520 Eu521 2.835 . S
C520 C522 1.500 . S
C520 O540 1.257 . S
C520 O541 1.260 . S
Eu521 C520 2.835 . S
Eu521 O540 2.473 . S
Eu521 O541 2.480 . S
Eu521 O542 2.430 . S
Eu521 O543 2.670 . S
Eu521 O544 2.394 . S
Eu521 O549 2.355 . S
Eu521 O551 2.374 . S
C522 C520 1.500 . S
C522 C523 1.377 1_556 S
C522 C527 1.377 1_556 S
C523 C522 1.377 1_554 S
C523 C524 1.395 . S
C523 H552 0.931 . S
C524 C523 1.395 . S
C524 C525 1.383 . S
C524 H553 0.931 . S
C525 C524 1.383 . S
C525 C526 1.394 . S
C526 C525 1.394 . S
C526 C527 1.378 . S
C526 H554 0.931 . S
C527 C522 1.377 1_554 S
C527 C526 1.378 . S
C527 H555 0.931 1_554 S
C528 O542 1.259 . S
C528 O543 1.270 . S
C529 O544 1.251 . S
C529 O545 1.251 . S
C530 Eu531 2.835 . S
C530 C532 1.500 . S
C530 O546 1.257 . S
C530 O547 1.260 . S
Eu531 C530 2.835 . S
Eu531 O543 2.355 . S
Eu531 O545 2.374 . S
Eu531 O546 2.473 . S
Eu531 O547 2.480 . S
Eu531 O548 2.430 . S
Eu531 O549 2.670 . S
Eu531 O550 2.394 . S
C532 C530 1.500 . S
C532 C533 1.377 . S
C532 C537 1.377 . S
C533 C532 1.377 . S
C533 C534 1.395 . S
C533 H556 0.931 . S
C534 C533 1.395 . S
C534 C535 1.383 . S
C534 H557 0.931 . S
C535 C534 1.383 . S
C535 C536 1.394 . S
C536 C535 1.394 . S
C536 C537 1.378 . S
C536 H558 0.931 . S
C537 C532 1.377 . S
C537 C536 1.378 . S
C537 H559 0.931 . S
C538 O548 1.259 . S
C538 O549 1.270 . S
C539 O550 1.251 . S
C539 O551 1.251 . S
O540 C520 1.257 . S
O540 Eu521 2.473 . S
O541 C520 1.260 . S
O541 Eu521 2.480 . S
O542 Eu521 2.430 . S
O542 C528 1.259 . S
O543 Eu521 2.670 . S
O543 C528 1.270 . S
O543 Eu531 2.355 . S
O544 Eu521 2.394 . S
O544 C529 1.251 . S
O545 C529 1.251 . S
O545 Eu531 2.374 . S
O546 C530 1.257 . S
O546 Eu531 2.473 . S
O547 C530 1.260 . S
O547 Eu531 2.480 . S
O548 Eu531 2.430 . S
O548 C538 1.259 . S
O549 Eu521 2.355 . S
O549 Eu531 2.670 . S
O549 C538 1.270 . S
O550 Eu531 2.394 . S
O550 C539 1.251 . S
O551 Eu521 2.374 . S
O551 C539 1.251 . S
H552 C523 0.931 . S
H553 C524 0.931 . S
H554 C526 0.931 . S
H555 C527 0.931 1_556 S
H556 C533 0.931 . S
H557 C534 0.931 . S
H558 C536 0.931 . S
H559 C537 0.931 . S
C560 Eu561 2.835 . S
C560 C562 1.500 . S
C560 O580 1.257 . S
C560 O581 1.260 . S
Eu561 C560 2.835 . S
Eu561 O580 2.473 . S
Eu561 O581 2.480 . S
Eu561 O582 2.430 . S
Eu561 O583 2.670 . S
Eu561 O584 2.394 . S
Eu561 O589 2.355 . S
Eu561 O591 2.374 . S
C562 C560 1.500 . S
C562 C563 1.377 . S
C562 C567 1.377 . S
C563 C562 1.377 . S
C563 C564 1.395 . S
C563 H592 0.931 . S
C564 C563 1.395 . S
C564 C565 1.383 . S
C564 H593 0.931 . S
C565 C564 1.383 . S
C565 C566 1.394 . S
C566 C565 1.394 . S
C566 C567 1.378 . S
C566 H594 0.931 . S
C567 C562 1.377 . S
C567 C566 1.378 . S
C567 H595 0.931 . S
C568 O582 1.259 . S
C568 O583 1.270 . S
C569 O584 1.251 . S
C569 O585 1.251 . S
C570 Eu571 2.835 . S
C570 C572 1.500 . S
C570 O586 1.257 . S
C570 O587 1.260 . S
Eu571 C570 2.835 . S
Eu571 O583 2.355 . S
Eu571 O585 2.374 . S
Eu571 O586 2.473 . S
Eu571 O587 2.480 . S
Eu571 O588 2.430 . S
Eu571 O589 2.670 . S
Eu571 O590 2.394 . S
C572 C570 1.500 . S
C572 C573 1.377 . S
C572 C577 1.377 . S
C573 C572 1.377 . S
C573 C574 1.395 . S
C573 H596 0.931 . S
C574 C573 1.395 . S
C574 C575 1.383 . S
C574 H597 0.931 . S
C575 C574 1.383 . S
C575 C576 1.394 . S
C576 C575 1.394 . S
C576 C577 1.378 . S
C576 H598 0.931 . S
C577 C572 1.377 . S
C577 C576 1.378 . S
C577 H599 0.931 . S
C578 O588 1.259 . S
C578 O589 1.270 . S
C579 O590 1.251 . S
C579 O591 1.251 . S
O580 C560 1.257 . S
O580 Eu561 2.473 . S
O581 C560 1.260 . S
O581 Eu561 2.480 . S
O582 Eu561 2.430 . S
O582 C568 1.259 . S
O583 Eu561 2.670 . S
O583 C568 1.270 . S
O583 Eu571 2.355 . S
O584 Eu561 2.394 . S
O584 C569 1.251 . S
O585 C569 1.251 . S
O585 Eu571 2.374 . S
O586 C570 1.257 . S
O586 Eu571 2.473 . S
O587 C570 1.260 . S
O587 Eu571 2.480 . S
O588 Eu571 2.430 . S
O588 C578 1.259 . S
O589 Eu561 2.355 . S
O589 Eu571 2.670 . S
O589 C578 1.270 . S
O590 Eu571 2.394 . S
O590 C579 1.251 . S
O591 Eu561 2.374 . S
O591 C579 1.251 . S
H592 C563 0.931 . S
H593 C564 0.931 . S
H594 C566 0.931 . S
H595 C567 0.931 . S
H596 C573 0.931 . S
H597 C574 0.931 . S
H598 C576 0.931 . S
H599 C577 0.931 . S
C600 Eu601 2.835 . S
C600 C602 1.500 . S
C600 O620 1.257 . S
C600 O621 1.260 . S
Eu601 C600 2.835 . S
Eu601 O620 2.473 . S
Eu601 O621 2.480 . S
Eu601 O622 2.430 . S
Eu601 O623 2.670 . S
Eu601 O624 2.394 . S
Eu601 O629 2.355 . S
Eu601 O631 2.374 . S
C602 C600 1.500 . S
C602 C603 1.377 . S
C602 C607 1.377 . S
C603 C602 1.377 . S
C603 C604 1.395 . S
C603 H632 0.931 . S
C604 C603 1.395 . S
C604 C605 1.383 . S
C604 H633 0.931 . S
C605 C604 1.383 . S
C605 C606 1.394 . S
C606 C605 1.394 . S
C606 C607 1.378 . S
C606 H634 0.931 . S
C607 C602 1.377 . S
C607 C606 1.378 . S
C607 H635 0.931 . S
C608 O622 1.259 . S
C608 O623 1.270 . S
C609 O624 1.251 . S
C609 O625 1.251 . S
C610 Eu611 2.835 . S
C610 C612 1.500 . S
C610 O626 1.257 . S
C610 O627 1.260 . S
Eu611 C610 2.835 . S
Eu611 O623 2.355 . S
Eu611 O625 2.374 . S
Eu611 O626 2.473 . S
Eu611 O627 2.480 . S
Eu611 O628 2.430 . S
Eu611 O629 2.670 . S
Eu611 O630 2.394 . S
C612 C610 1.500 . S
C612 C613 1.377 . S
C612 C617 1.377 . S
C613 C612 1.377 . S
C613 C614 1.395 . S
C613 H636 0.931 . S
C614 C613 1.395 . S
C614 C615 1.383 . S
C614 H637 0.931 . S
C615 C614 1.383 . S
C615 C616 1.394 . S
C616 C615 1.394 . S
C616 C617 1.378 . S
C616 H638 0.931 . S
C617 C612 1.377 . S
C617 C616 1.378 . S
C617 H639 0.931 . S
C618 O628 1.259 . S
C618 O629 1.270 . S
C619 O630 1.251 . S
C619 O631 1.251 . S
O620 C600 1.257 . S
O620 Eu601 2.473 . S
O621 C600 1.260 . S
O621 Eu601 2.480 . S
O622 Eu601 2.430 . S
O622 C608 1.259 . S
O623 Eu601 2.670 . S
O623 C608 1.270 . S
O623 Eu611 2.355 . S
O624 Eu601 2.394 . S
O624 C609 1.251 . S
O625 C609 1.251 . S
O625 Eu611 2.374 . S
O626 C610 1.257 . S
O626 Eu611 2.473 . S
O627 C610 1.260 . S
O627 Eu611 2.480 . S
O628 Eu611 2.430 . S
O628 C618 1.259 . S
O629 Eu601 2.355 . S
O629 Eu611 2.670 . S
O629 C618 1.270 . S
O630 Eu611 2.394 . S
O630 C619 1.251 . S
O631 Eu601 2.374 . S
O631 C619 1.251 . S
H632 C603 0.931 . S
H633 C604 0.931 . S
H634 C606 0.931 . S
H635 C607 0.931 . S
H636 C613 0.931 . S
H637 C614 0.931 . S
H638 C616 0.931 . S
H639 C617 0.931 . S
H640 C648 0.929 . S
H641 C650 0.930 . S
H642 C652 0.930 . S
H643 C655 0.929 . S
H644 C658 0.930 . S
H645 C660 0.960 . S
H646 C660 0.960 . S
H647 C660 0.960 . S
C648 H640 0.929 . S
C648 C649 1.377 . S
C648 C650 1.384 . S
C649 C648 1.377 . S
C649 C655 1.390 . S
C650 H641 0.930 . S
C650 C648 1.384 . S
C650 C651 1.372 . S
C651 C650 1.372 . S
C651 C652 1.400 . S
C651 C656 1.490 . S
C652 H642 0.930 . S
C652 C651 1.400 . S
C652 C655 1.386 . S
H653 C669 0.930 . S
H654 C670 0.931 . S
C655 H643 0.929 . S
C655 C649 1.390 . S
C655 C652 1.386 . S
C656 C651 1.490 . S
C656 C658 1.395 . S
C656 C659 1.403 . S
H657 C663 0.930 . S
C658 H644 0.930 . S
C658 C656 1.395 . S
C658 C661 1.403 . S
C659 C656 1.403 . S
C659 C660 1.524 . S
C659 C663 1.400 . S
C660 H645 0.960 . S
C660 H646 0.960 . S
C660 H647 0.960 . S
C660 C659 1.524 . S
C661 C658 1.403 . S
C661 C662 1.392 . S
C661 C665 1.495 . S
C662 C661 1.392 . S
C662 C663 1.385 . S
C662 C664 1.478 . S
C663 H657 0.930 . S
C663 C659 1.400 . S
C663 C662 1.385 . S
C664 C662 1.478 . S
C664 C666 1.381 . S
C664 C670 1.383 . S
C665 C661 1.495 . S
C665 H671 0.959 . S
C665 H672 0.961 . S
C665 H673 0.960 . S
C666 C664 1.381 . S
C666 C667 1.394 . S
C666 H674 0.930 . S
C667 C666 1.394 . S
C667 C668 1.383 . S
C667 H675 0.929 . S
C668 C667 1.383 . S
C668 C669 1.377 . S
C669 H653 0.930 . S
C669 C668 1.377 . S
C669 C670 1.379 . S
C670 H654 0.931 . S
C670 C664 1.383 . S
C670 C669 1.379 . S
H671 C665 0.959 . S
H672 C665 0.961 . S
H673 C665 0.960 . S
H674 C666 0.930 . S
H675 C667 0.929 . S
H676 C684 0.929 1_554 S
H677 C686 0.930 . S
H678 C688 0.930 . S
H679 C691 0.929 . S
H680 C694 0.930 . S
H681 C696 0.960 . S
H682 C696 0.960 . S
H683 C696 0.960 . S
C684 H676 0.929 1_556 S
C684 C685 1.377 1_556 S
C684 C686 1.384 . S
C685 C684 1.377 1_554 S
C685 C691 1.390 . S
C686 H677 0.930 . S
C686 C684 1.384 . S
C686 C687 1.372 . S
C687 C686 1.372 . S
C687 C688 1.400 . S
C687 C692 1.490 . S
C688 H678 0.930 . S
C688 C687 1.400 . S
C688 C691 1.386 1_556 S
H689 C705 0.930 . S
H690 C706 0.931 . S
C691 H679 0.929 . S
C691 C685 1.390 . S
C691 C688 1.386 1_554 S
C692 C687 1.490 . S
C692 C694 1.395 . S
C692 C695 1.403 . S
H693 C699 0.930 . S
C694 H680 0.930 . S
C694 C692 1.395 . S
C694 C697 1.403 . S
C695 C692 1.403 . S
C695 C696 1.524 . S
C695 C699 1.400 . S
C696 H681 0.960 . S
C696 H682 0.960 . S
C696 H683 0.960 . S
C696 C695 1.524 . S
C697 C694 1.403 . S
C697 C698 1.392 . S
C697 C701 1.495 . S
C698 C697 1.392 . S
C698 C699 1.385 . S
C698 C700 1.478 . S
C699 H693 0.930 . S
C699 C695 1.400 . S
C699 C698 1.385 . S
C700 C698 1.478 . S
C700 C702 1.381 . S
C700 C706 1.383 . S
C701 C697 1.495 . S
C701 H707 0.959 . S
C701 H708 0.961 . S
C701 H709 0.960 . S
C702 C700 1.381 . S
C702 C703 1.394 . S
C702 H710 0.930 . S
C703 C702 1.394 . S
C703 C704 1.383 . S
C703 H711 0.929 . S
C704 C703 1.383 . S
C704 C705 1.377 . S
C705 H689 0.930 . S
C705 C704 1.377 . S
C705 C706 1.379 . S
C706 H690 0.931 . S
C706 C700 1.383 . S
C706 C705 1.379 . S
H707 C701 0.959 . S
H708 C701 0.961 . S
H709 C701 0.960 . S
H710 C702 0.930 . S
H711 C703 0.929 . S
H712 C720 0.929 . S
H713 C722 0.930 . S
H714 C724 0.930 . S
H715 C727 0.929 . S
H716 C730 0.930 . S
H717 C732 0.960 . S
H718 C732 0.960 . S
H719 C732 0.960 . S
C720 H712 0.929 . S
C720 C721 1.377 . S
C720 C722 1.384 . S
C721 C720 1.377 . S
C721 C727 1.390 . S
C722 H713 0.930 . S
C722 C720 1.384 . S
C722 C723 1.372 . S
C723 C722 1.372 . S
C723 C724 1.400 . S
C723 C728 1.490 . S
C724 H714 0.930 . S
C724 C723 1.400 . S
C724 C727 1.386 . S
H725 C741 0.930 . S
H726 C742 0.931 . S
C727 H715 0.929 . S
C727 C721 1.390 . S
C727 C724 1.386 . S
C728 C723 1.490 . S
C728 C730 1.395 . S
C728 C731 1.403 . S
H729 C735 0.930 . S
C730 H716 0.930 . S
C730 C728 1.395 . S
C730 C733 1.403 . S
C731 C728 1.403 . S
C731 C732 1.524 . S
C731 C735 1.400 . S
C732 H717 0.960 . S
C732 H718 0.960 . S
C732 H719 0.960 . S
C732 C731 1.524 . S
C733 C730 1.403 . S
C733 C734 1.392 . S
C733 C737 1.495 . S
C734 C733 1.392 . S
C734 C735 1.385 . S
C734 C736 1.478 . S
C735 H729 0.930 . S
C735 C731 1.400 . S
C735 C734 1.385 . S
C736 C734 1.478 . S
C736 C738 1.381 . S
C736 C742 1.383 . S
C737 C733 1.495 . S
C737 H743 0.959 . S
C737 H744 0.961 . S
C737 H745 0.960 . S
C738 C736 1.381 . S
C738 C739 1.394 . S
C738 H746 0.930 . S
C739 C738 1.394 . S
C739 C740 1.383 . S
C739 H747 0.929 . S
C740 C739 1.383 . S
C740 C741 1.377 . S
C741 H725 0.930 . S
C741 C740 1.377 . S
C741 C742 1.379 . S
C742 H726 0.931 . S
C742 C736 1.383 . S
C742 C741 1.379 . S
H743 C737 0.959 . S
H744 C737 0.961 . S
H745 C737 0.960 . S
H746 C738 0.930 . S
H747 C739 0.929 . S
H748 C756 0.929 . S
H749 C758 0.930 . S
H750 C760 0.930 . S
H751 C763 0.929 . S
H752 C766 0.930 . S
H753 C768 0.960 . S
H754 C768 0.960 . S
H755 C768 0.960 . S
C756 H748 0.929 . S
C756 C757 1.377 . S
C756 C758 1.384 . S
C757 C756 1.377 . S
C757 C763 1.390 . S
C758 H749 0.930 . S
C758 C756 1.384 . S
C758 C759 1.372 . S
C759 C758 1.372 . S
C759 C760 1.400 . S
C759 C764 1.490 . S
C760 H750 0.930 . S
C760 C759 1.400 . S
C760 C763 1.386 . S
H761 C777 0.930 . S
H762 C778 0.931 . S
C763 H751 0.929 . S
C763 C757 1.390 . S
C763 C760 1.386 . S
C764 C759 1.490 . S
C764 C766 1.395 . S
C764 C767 1.403 . S
H765 C771 0.930 . S
C766 H752 0.930 . S
C766 C764 1.395 . S
C766 C769 1.403 . S
C767 C764 1.403 . S
C767 C768 1.524 . S
C767 C771 1.400 . S
C768 H753 0.960 . S
C768 H754 0.960 . S
C768 H755 0.960 . S
C768 C767 1.524 . S
C769 C766 1.403 . S
C769 C770 1.392 . S
C769 C773 1.495 . S
C770 C769 1.392 . S
C770 C771 1.385 . S
C770 C772 1.478 . S
C771 H765 0.930 . S
C771 C767 1.400 . S
C771 C770 1.385 . S
C772 C770 1.478 . S
C772 C774 1.381 . S
C772 C778 1.383 . S
C773 C769 1.495 . S
C773 H779 0.959 . S
C773 H780 0.961 . S
C773 H781 0.960 . S
C774 C772 1.381 . S
C774 C775 1.394 . S
C774 H782 0.930 . S
C775 C774 1.394 . S
C775 C776 1.383 . S
C775 H783 0.929 . S
C776 C775 1.383 . S
C776 C777 1.377 . S
C777 H761 0.930 . S
C777 C776 1.377 . S
C777 C778 1.379 . S
C778 H762 0.931 . S
C778 C772 1.383 . S
C778 C777 1.379 . S
H779 C773 0.959 . S
H780 C773 0.961 . S
H781 C773 0.960 . S
H782 C774 0.930 . S
H783 C775 0.929 . S
H784 C792 0.929 . S
H785 C794 0.930 . S
H786 C796 0.930 . S
H787 C799 0.929 . S
H788 C802 0.930 . S
H789 C804 0.960 . S
H790 C804 0.960 . S
H791 C804 0.960 . S
C792 H784 0.929 . S
C792 C793 1.377 . S
C792 C794 1.384 . S
C793 C792 1.377 . S
C793 C799 1.390 . S
C794 H785 0.930 . S
C794 C792 1.384 . S
C794 C795 1.372 . S
C795 C794 1.372 . S
C795 C796 1.400 . S
C795 C800 1.490 . S
C796 H786 0.930 . S
C796 C795 1.400 . S
C796 C799 1.386 . S
H797 C813 0.930 . S
H798 C814 0.931 . S
C799 H787 0.929 . S
C799 C793 1.390 . S
C799 C796 1.386 . S
C800 C795 1.490 . S
C800 C802 1.395 . S
C800 C803 1.403 . S
H801 C807 0.930 . S
C802 H788 0.930 . S
C802 C800 1.395 . S
C802 C805 1.403 . S
C803 C800 1.403 . S
C803 C804 1.524 . S
C803 C807 1.400 . S
C804 H789 0.960 . S
C804 H790 0.960 . S
C804 H791 0.960 . S
C804 C803 1.524 . S
C805 C802 1.403 . S
C805 C806 1.392 . S
C805 C809 1.495 . S
C806 C805 1.392 . S
C806 C807 1.385 . S
C806 C808 1.478 . S
C807 H801 0.930 . S
C807 C803 1.400 . S
C807 C806 1.385 . S
C808 C806 1.478 . S
C808 C810 1.381 . S
C808 C814 1.383 . S
C809 C805 1.495 . S
C809 H815 0.959 . S
C809 H816 0.961 . S
C809 H817 0.960 . S
C810 C808 1.381 . S
C810 C811 1.394 . S
C810 H818 0.930 . S
C811 C810 1.394 . S
C811 C812 1.383 . S
C811 H819 0.929 . S
C812 C811 1.383 . S
C812 C813 1.377 . S
C813 H797 0.930 . S
C813 C812 1.377 . S
C813 C814 1.379 . S
C814 H798 0.931 . S
C814 C808 1.383 . S
C814 C813 1.379 . S
H815 C809 0.959 . S
H816 C809 0.961 . S
H817 C809 0.960 . S
H818 C810 0.930 . S
H819 C811 0.929 . S
H820 C828 0.929 . S
H821 C830 0.930 . S
H822 C832 0.930 . S
H823 C835 0.929 . S
H824 C838 0.930 . S
H825 C840 0.960 . S
H826 C840 0.960 . S
H827 C840 0.960 . S
C828 H820 0.929 . S
C828 C829 1.377 . S
C828 C830 1.384 . S
C829 C828 1.377 . S
C829 C835 1.390 . S
C830 H821 0.930 . S
C830 C828 1.384 . S
C830 C831 1.372 . S
C831 C830 1.372 . S
C831 C832 1.400 . S
C831 C836 1.490 . S
C832 H822 0.930 . S
C832 C831 1.400 . S
C832 C835 1.386 . S
H833 C849 0.930 . S
H834 C850 0.931 . S
C835 H823 0.929 . S
C835 C829 1.390 . S
C835 C832 1.386 . S
C836 C831 1.490 . S
C836 C838 1.395 . S
C836 C839 1.403 . S
H837 C843 0.930 . S
C838 H824 0.930 . S
C838 C836 1.395 . S
C838 C841 1.403 . S
C839 C836 1.403 . S
C839 C840 1.524 . S
C839 C843 1.400 . S
C840 H825 0.960 . S
C840 H826 0.960 . S
C840 H827 0.960 . S
C840 C839 1.524 . S
C841 C838 1.403 . S
C841 C842 1.392 . S
C841 C845 1.495 . S
C842 C841 1.392 . S
C842 C843 1.385 . S
C842 C844 1.478 . S
C843 H837 0.930 . S
C843 C839 1.400 . S
C843 C842 1.385 . S
C844 C842 1.478 . S
C844 C846 1.381 . S
C844 C850 1.383 . S
C845 C841 1.495 . S
C845 H851 0.959 . S
C845 H852 0.961 . S
C845 H853 0.960 . S
C846 C844 1.381 . S
C846 C847 1.394 . S
C846 H854 0.930 . S
C847 C846 1.394 . S
C847 C848 1.383 . S
C847 H855 0.929 . S
C848 C847 1.383 . S
C848 C849 1.377 . S
C849 H833 0.930 . S
C849 C848 1.377 . S
C849 C850 1.379 . S
C850 H834 0.931 . S
C850 C844 1.383 . S
C850 C849 1.379 . S
H851 C845 0.959 . S
H852 C845 0.961 . S
H853 C845 0.960 . S
H854 C846 0.930 . S
H855 C847 0.929 . S
H856 C864 0.929 . S
H857 C866 0.930 . S
H858 C868 0.930 . S
H859 C871 0.929 . S
H860 C874 0.930 . S
H861 C876 0.960 . S
H862 C876 0.960 . S
H863 C876 0.960 . S
C864 H856 0.929 . S
C864 C865 1.377 . S
C864 C866 1.384 . S
C865 C864 1.377 . S
C865 C871 1.390 . S
C866 H857 0.930 . S
C866 C864 1.384 . S
C866 C867 1.372 . S
C867 C866 1.372 . S
C867 C868 1.400 . S
C867 C872 1.490 . S
C868 H858 0.930 . S
C868 C867 1.400 . S
C868 C871 1.386 . S
H869 C885 0.930 . S
H870 C886 0.931 . S
C871 H859 0.929 . S
C871 C865 1.390 . S
C871 C868 1.386 . S
C872 C867 1.490 . S
C872 C874 1.395 . S
C872 C875 1.403 . S
H873 C879 0.930 . S
C874 H860 0.930 . S
C874 C872 1.395 . S
C874 C877 1.403 . S
C875 C872 1.403 . S
C875 C876 1.524 . S
C875 C879 1.400 . S
C876 H861 0.960 . S
C876 H862 0.960 . S
C876 H863 0.960 . S
C876 C875 1.524 . S
C877 C874 1.403 . S
C877 C878 1.392 . S
C877 C881 1.495 . S
C878 C877 1.392 . S
C878 C879 1.385 . S
C878 C880 1.478 . S
C879 H873 0.930 . S
C879 C875 1.400 . S
C879 C878 1.385 . S
C880 C878 1.478 . S
C880 C882 1.381 . S
C880 C886 1.383 . S
C881 C877 1.495 . S
C881 H887 0.959 . S
C881 H888 0.961 . S
C881 H889 0.960 . S
C882 C880 1.381 . S
C882 C883 1.394 . S
C882 H890 0.930 . S
C883 C882 1.394 . S
C883 C884 1.383 1_556 S
C883 H891 0.929 . S
C884 C883 1.383 1_554 S
C884 C885 1.377 . S
C885 H869 0.930 . S
C885 C884 1.377 . S
C885 C886 1.379 1_554 S
C886 H870 0.931 . S
C886 C880 1.383 . S
C886 C885 1.379 1_556 S
H887 C881 0.959 . S
H888 C881 0.961 . S
H889 C881 0.960 . S
H890 C882 0.930 . S
H891 C883 0.929 . S
H892 C900 0.929 . S
H893 C902 0.930 . S
H894 C904 0.930 . S
H895 C907 0.929 . S
H896 C910 0.930 . S
H897 C912 0.960 . S
H898 C912 0.960 . S
H899 C912 0.960 . S
C900 H892 0.929 . S
C900 C901 1.377 . S
C900 C902 1.384 . S
C901 C900 1.377 . S
C901 C907 1.390 . S
C902 H893 0.930 . S
C902 C900 1.384 . S
C902 C903 1.372 . S
C903 C902 1.372 . S
C903 C904 1.400 . S
C903 C908 1.490 . S
C904 H894 0.930 . S
C904 C903 1.400 . S
C904 C907 1.386 . S
H905 C921 0.930 . S
H906 C922 0.931 . S
C907 H895 0.929 . S
C907 C901 1.390 . S
C907 C904 1.386 . S
C908 C903 1.490 . S
C908 C910 1.395 . S
C908 C911 1.403 . S
H909 C915 0.930 . S
C910 H896 0.930 . S
C910 C908 1.395 . S
C910 C913 1.403 . S
C911 C908 1.403 . S
C911 C912 1.524 . S
C911 C915 1.400 . S
C912 H897 0.960 . S
C912 H898 0.960 . S
C912 H899 0.960 . S
C912 C911 1.524 . S
C913 C910 1.403 . S
C913 C914 1.392 . S
C913 C917 1.495 . S
C914 C913 1.392 . S
C914 C915 1.385 . S
C914 C916 1.478 . S
C915 H909 0.930 . S
C915 C911 1.400 . S
C915 C914 1.385 . S
C916 C914 1.478 . S
C916 C918 1.381 . S
C916 C922 1.383 . S
C917 C913 1.495 . S
C917 H923 0.959 . S
C917 H924 0.961 . S
C917 H925 0.960 . S
C918 C916 1.381 . S
C918 C919 1.394 . S
C918 H926 0.930 . S
C919 C918 1.394 . S
C919 C920 1.383 . S
C919 H927 0.929 . S
C920 C919 1.383 . S
C920 C921 1.377 . S
C921 H905 0.930 . S
C921 C920 1.377 . S
C921 C922 1.379 . S
C922 H906 0.931 . S
C922 C916 1.383 . S
C922 C921 1.379 . S
H923 C917 0.959 . S
H924 C917 0.961 . S
H925 C917 0.960 . S
H926 C918 0.930 . S
H927 C919 0.929 . S
H928 C936 0.929 . S
H929 C938 0.930 . S
H930 C940 0.930 . S
H931 C943 0.929 . S
H932 C946 0.930 . S
H933 C948 0.960 . S
H934 C948 0.960 . S
H935 C948 0.960 . S
C936 H928 0.929 . S
C936 C937 1.377 . S
C936 C938 1.384 . S
C937 C936 1.377 . S
C937 C943 1.390 . S
C938 H929 0.930 . S
C938 C936 1.384 . S
C938 C939 1.372 . S
C939 C938 1.372 . S
C939 C940 1.400 . S
C939 C944 1.490 . S
C940 H930 0.930 . S
C940 C939 1.400 . S
C940 C943 1.386 . S
H941 C957 0.930 . S
H942 C958 0.931 . S
C943 H931 0.929 . S
C943 C937 1.390 . S
C943 C940 1.386 . S
C944 C939 1.490 . S
C944 C946 1.395 . S
C944 C947 1.403 . S
H945 C951 0.930 . S
C946 H932 0.930 . S
C946 C944 1.395 . S
C946 C949 1.403 . S
C947 C944 1.403 . S
C947 C948 1.524 . S
C947 C951 1.400 . S
C948 H933 0.960 . S
C948 H934 0.960 . S
C948 H935 0.960 . S
C948 C947 1.524 . S
C949 C946 1.403 . S
C949 C950 1.392 . S
C949 C953 1.495 . S
C950 C949 1.392 . S
C950 C951 1.385 . S
C950 C952 1.478 . S
C951 H945 0.930 . S
C951 C947 1.400 . S
C951 C950 1.385 . S
C952 C950 1.478 . S
C952 C954 1.381 . S
C952 C958 1.383 . S
C953 C949 1.495 . S
C953 H959 0.959 . S
C953 H960 0.961 . S
C953 H961 0.960 . S
C954 C952 1.381 . S
C954 C955 1.394 . S
C954 H962 0.930 . S
C955 C954 1.394 . S
C955 C956 1.383 . S
C955 H963 0.929 . S
C956 C955 1.383 . S
C956 C957 1.377 . S
C957 H941 0.930 . S
C957 C956 1.377 . S
C957 C958 1.379 . S
C958 H942 0.931 . S
C958 C952 1.383 . S
C958 C957 1.379 . S
H959 C953 0.959 . S
H960 C953 0.961 . S
H961 C953 0.960 . S
H962 C954 0.930 . S
H963 C955 0.929 . S
H964 C972 0.929 . S
H965 C974 0.930 . S
H966 C976 0.930 . S
H967 C979 0.929 . S
H968 C982 0.930 . S
H969 C984 0.960 . S
H970 C984 0.960 . S
H971 C984 0.960 . S
C972 H964 0.929 . S
C972 C973 1.377 . S
C972 C974 1.384 . S
C973 C972 1.377 . S
C973 C979 1.390 . S
C974 H965 0.930 . S
C974 C972 1.384 . S
C974 C975 1.372 . S
C975 C974 1.372 . S
C975 C976 1.400 . S
C975 C980 1.490 . S
C976 H966 0.930 . S
C976 C975 1.400 . S
C976 C979 1.386 . S
H977 C993 0.930 1_556 S
H978 C994 0.931 . S
C979 H967 0.929 . S
C979 C973 1.390 . S
C979 C976 1.386 . S
C980 C975 1.490 . S
C980 C982 1.395 . S
C980 C983 1.403 . S
H981 C987 0.930 . S
C982 H968 0.930 . S
C982 C980 1.395 . S
C982 C985 1.403 . S
C983 C980 1.403 . S
C983 C984 1.524 . S
C983 C987 1.400 . S
C984 H969 0.960 . S
C984 H970 0.960 . S
C984 H971 0.960 . S
C984 C983 1.524 . S
C985 C982 1.403 . S
C985 C986 1.392 . S
C985 C989 1.495 . S
C986 C985 1.392 . S
C986 C987 1.385 . S
C986 C988 1.478 . S
C987 H981 0.930 . S
C987 C983 1.400 . S
C987 C986 1.385 . S
C988 C986 1.478 . S
C988 C990 1.381 . S
C988 C994 1.383 . S
C989 C985 1.495 . S
C989 H995 0.959 . S
C989 H996 0.961 . S
C989 H997 0.960 . S
C990 C988 1.381 . S
C990 C991 1.394 1_554 S
C990 H998 0.930 . S
C991 C990 1.394 1_556 S
C991 C992 1.383 . S
C991 H999 0.929 . S
C992 C991 1.383 . S
C992 C993 1.377 1_556 S
C993 H977 0.930 1_554 S
C993 C992 1.377 1_554 S
C993 C994 1.379 . S
C994 H978 0.931 . S
C994 C988 1.383 . S
C994 C993 1.379 . S
H995 C989 0.959 . S
H996 C989 0.961 . S
H997 C989 0.960 . S
H998 C990 0.930 . S
H999 C991 0.929 . S
H1000 C1008 0.929 . S
H1001 C1010 0.930 . S
H1002 C1012 0.930 . S
H1003 C1015 0.929 . S
H1004 C1018 0.930 . S
H1005 C1020 0.960 . S
H1006 C1020 0.960 . S
H1007 C1020 0.960 . S
C1008 H1000 0.929 . S
C1008 C1009 1.377 . S
C1008 C1010 1.384 . S
C1009 C1008 1.377 . S
C1009 C1015 1.390 . S
C1010 H1001 0.930 . S
C1010 C1008 1.384 . S
C1010 C1011 1.372 . S
C1011 C1010 1.372 . S
C1011 C1012 1.400 . S
C1011 C1016 1.490 . S
C1012 H1002 0.930 . S
C1012 C1011 1.400 . S
C1012 C1015 1.386 . S
H1013 C1029 0.930 . S
H1014 C1030 0.931 . S
C1015 H1003 0.929 . S
C1015 C1009 1.390 . S
C1015 C1012 1.386 . S
C1016 C1011 1.490 . S
C1016 C1018 1.395 . S
C1016 C1019 1.403 . S
H1017 C1023 0.930 . S
C1018 H1004 0.930 . S
C1018 C1016 1.395 . S
C1018 C1021 1.403 . S
C1019 C1016 1.403 . S
C1019 C1020 1.524 . S
C1019 C1023 1.400 . S
C1020 H1005 0.960 . S
C1020 H1006 0.960 . S
C1020 H1007 0.960 . S
C1020 C1019 1.524 . S
C1021 C1018 1.403 . S
C1021 C1022 1.392 . S
C1021 C1025 1.495 . S
C1022 C1021 1.392 . S
C1022 C1023 1.385 . S
C1022 C1024 1.478 . S
C1023 H1017 0.930 . S
C1023 C1019 1.400 . S
C1023 C1022 1.385 . S
C1024 C1022 1.478 . S
C1024 C1026 1.381 . S
C1024 C1030 1.383 . S
C1025 C1021 1.495 . S
C1025 H1031 0.959 . S
C1025 H1032 0.961 . S
C1025 H1033 0.960 . S
C1026 C1024 1.381 . S
C1026 C1027 1.394 . S
C1026 H1034 0.930 . S
C1027 C1026 1.394 . S
C1027 C1028 1.383 . S
C1027 H1035 0.929 . S
C1028 C1027 1.383 . S
C1028 C1029 1.377 . S
C1029 H1013 0.930 . S
C1029 C1028 1.377 . S
C1029 C1030 1.379 . S
C1030 H1014 0.931 . S
C1030 C1024 1.383 . S
C1030 C1029 1.379 . S
H1031 C1025 0.959 . S
H1032 C1025 0.961 . S
H1033 C1025 0.960 . S
H1034 C1026 0.930 . S
H1035 C1027 0.929 . S
H1036 C1044 0.929 . S
H1037 C1046 0.930 . S
H1038 C1048 0.930 . S
H1039 C1051 0.929 . S
H1040 C1054 0.930 . S
H1041 C1056 0.960 . S
H1042 C1056 0.960 . S
H1043 C1056 0.960 . S
C1044 H1036 0.929 . S
C1044 C1045 1.377 . S
C1044 C1046 1.384 . S
C1045 C1044 1.377 . S
C1045 C1051 1.390 . S
C1046 H1037 0.930 . S
C1046 C1044 1.384 . S
C1046 C1047 1.372 . S
C1047 C1046 1.372 . S
C1047 C1048 1.400 . S
C1047 C1052 1.490 . S
C1048 H1038 0.930 . S
C1048 C1047 1.400 . S
C1048 C1051 1.386 . S
H1049 C1065 0.930 . S
H1050 C1066 0.931 . S
C1051 H1039 0.929 . S
C1051 C1045 1.390 . S
C1051 C1048 1.386 . S
C1052 C1047 1.490 . S
C1052 C1054 1.395 . S
C1052 C1055 1.403 . S
H1053 C1059 0.930 . S
C1054 H1040 0.930 . S
C1054 C1052 1.395 . S
C1054 C1057 1.403 . S
C1055 C1052 1.403 . S
C1055 C1056 1.524 . S
C1055 C1059 1.400 . S
C1056 H1041 0.960 . S
C1056 H1042 0.960 . S
C1056 H1043 0.960 . S
C1056 C1055 1.524 . S
C1057 C1054 1.403 . S
C1057 C1058 1.392 . S
C1057 C1061 1.495 . S
C1058 C1057 1.392 . S
C1058 C1059 1.385 . S
C1058 C1060 1.478 . S
C1059 H1053 0.930 . S
C1059 C1055 1.400 . S
C1059 C1058 1.385 . S
C1060 C1058 1.478 . S
C1060 C1062 1.381 . S
C1060 C1066 1.383 . S
C1061 C1057 1.495 . S
C1061 H1067 0.959 . S
C1061 H1068 0.961 . S
C1061 H1069 0.960 . S
C1062 C1060 1.381 . S
C1062 C1063 1.394 . S
C1062 H1070 0.930 . S
C1063 C1062 1.394 . S
C1063 C1064 1.383 . S
C1063 H1071 0.929 . S
C1064 C1063 1.383 . S
C1064 C1065 1.377 . S
C1065 H1049 0.930 . S
C1065 C1064 1.377 . S
C1065 C1066 1.379 . S
C1066 H1050 0.931 . S
C1066 C1060 1.383 . S
C1066 C1065 1.379 . S
H1067 C1061 0.959 . S
H1068 C1061 0.961 . S
H1069 C1061 0.960 . S
H1070 C1062 0.930 . S
H1071 C1063 0.929 . S
H1072 C1080 0.929 . S
H1073 C1082 0.930 . S
H1074 C1084 0.930 . S
H1075 C1087 0.929 . S
H1076 C1090 0.930 . S
H1077 C1092 0.960 . S
H1078 C1092 0.960 . S
H1079 C1092 0.960 . S
C1080 H1072 0.929 . S
C1080 C1081 1.377 . S
C1080 C1082 1.384 . S
C1081 C1080 1.377 . S
C1081 C1087 1.390 . S
C1082 H1073 0.930 . S
C1082 C1080 1.384 . S
C1082 C1083 1.372 . S
C1083 C1082 1.372 . S
C1083 C1084 1.400 . S
C1083 C1088 1.490 . S
C1084 H1074 0.930 . S
C1084 C1083 1.400 . S
C1084 C1087 1.386 . S
H1085 C1101 0.930 . S
H1086 C1102 0.931 . S
C1087 H1075 0.929 . S
C1087 C1081 1.390 . S
C1087 C1084 1.386 . S
C1088 C1083 1.490 . S
C1088 C1090 1.395 . S
C1088 C1091 1.403 . S
H1089 C1095 0.930 . S
C1090 H1076 0.930 . S
C1090 C1088 1.395 . S
C1090 C1093 1.403 . S
C1091 C1088 1.403 . S
C1091 C1092 1.524 . S
C1091 C1095 1.400 . S
C1092 H1077 0.960 . S
C1092 H1078 0.960 . S
C1092 H1079 0.960 . S
C1092 C1091 1.524 . S
C1093 C1090 1.403 . S
C1093 C1094 1.392 . S
C1093 C1097 1.495 . S
C1094 C1093 1.392 . S
C1094 C1095 1.385 . S
C1094 C1096 1.478 . S
C1095 H1089 0.930 . S
C1095 C1091 1.400 . S
C1095 C1094 1.385 . S
C1096 C1094 1.478 . S
C1096 C1098 1.381 . S
C1096 C1102 1.383 . S
C1097 C1093 1.495 . S
C1097 H1103 0.959 . S
C1097 H1104 0.961 . S
C1097 H1105 0.960 . S
C1098 C1096 1.381 . S
C1098 C1099 1.394 . S
C1098 H1106 0.930 . S
C1099 C1098 1.394 . S
C1099 C1100 1.383 . S
C1099 H1107 0.929 . S
C1100 C1099 1.383 . S
C1100 C1101 1.377 . S
C1101 H1085 0.930 . S
C1101 C1100 1.377 . S
C1101 C1102 1.379 . S
C1102 H1086 0.931 . S
C1102 C1096 1.383 . S
C1102 C1101 1.379 . S
H1103 C1097 0.959 . S
H1104 C1097 0.961 . S
H1105 C1097 0.960 . S
H1106 C1098 0.930 . S
H1107 C1099 0.929 . S
H1108 C1116 0.929 . S
H1109 C1118 0.930 . S
H1110 C1120 0.930 . S
H1111 C1123 0.929 . S
H1112 C1126 0.930 . S
H1113 C1128 0.960 . S
H1114 C1128 0.960 . S
H1115 C1128 0.960 . S
C1116 H1108 0.929 . S
C1116 C1117 1.377 . S
C1116 C1118 1.384 . S
C1117 C1116 1.377 . S
C1117 C1123 1.390 . S
C1118 H1109 0.930 . S
C1118 C1116 1.384 . S
C1118 C1119 1.372 . S
C1119 C1118 1.372 . S
C1119 C1120 1.400 . S
C1119 C1124 1.490 . S
C1120 H1110 0.930 . S
C1120 C1119 1.400 . S
C1120 C1123 1.386 . S
H1121 C1137 0.930 . S
H1122 C1138 0.931 . S
C1123 H1111 0.929 . S
C1123 C1117 1.390 . S
C1123 C1120 1.386 . S
C1124 C1119 1.490 . S
C1124 C1126 1.395 . S
C1124 C1127 1.403 . S
H1125 C1131 0.930 . S
C1126 H1112 0.930 . S
C1126 C1124 1.395 . S
C1126 C1129 1.403 . S
C1127 C1124 1.403 . S
C1127 C1128 1.524 . S
C1127 C1131 1.400 . S
C1128 H1113 0.960 . S
C1128 H1114 0.960 . S
C1128 H1115 0.960 . S
C1128 C1127 1.524 . S
C1129 C1126 1.403 . S
C1129 C1130 1.392 . S
C1129 C1133 1.495 . S
C1130 C1129 1.392 . S
C1130 C1131 1.385 . S
C1130 C1132 1.478 . S
C1131 H1125 0.930 . S
C1131 C1127 1.400 . S
C1131 C1130 1.385 . S
C1132 C1130 1.478 . S
C1132 C1134 1.381 . S
C1132 C1138 1.383 . S
C1133 C1129 1.495 . S
C1133 H1139 0.959 . S
C1133 H1140 0.961 . S
C1133 H1141 0.960 . S
C1134 C1132 1.381 . S
C1134 C1135 1.394 . S
C1134 H1142 0.930 . S
C1135 C1134 1.394 . S
C1135 C1136 1.383 . S
C1135 H1143 0.929 . S
C1136 C1135 1.383 . S
C1136 C1137 1.377 . S
C1137 H1121 0.930 . S
C1137 C1136 1.377 . S
C1137 C1138 1.379 . S
C1138 H1122 0.931 . S
C1138 C1132 1.383 . S
C1138 C1137 1.379 . S
H1139 C1133 0.959 . S
H1140 C1133 0.961 . S
H1141 C1133 0.960 . S
H1142 C1134 0.930 . S
H1143 C1135 0.929 . S
H1144 C1152 0.929 . S
H1145 C1154 0.930 . S
H1146 C1156 0.930 . S
H1147 C1159 0.929 . S
H1148 C1162 0.930 . S
H1149 C1164 0.960 . S
H1150 C1164 0.960 . S
H1151 C1164 0.960 . S
C1152 H1144 0.929 . S
C1152 C1153 1.377 . S
C1152 C1154 1.384 . S
C1153 C1152 1.377 . S
C1153 C1159 1.390 . S
C1154 H1145 0.930 . S
C1154 C1152 1.384 . S
C1154 C1155 1.372 . S
C1155 C1154 1.372 . S
C1155 C1156 1.400 . S
C1155 C1160 1.490 . S
C1156 H1146 0.930 . S
C1156 C1155 1.400 . S
C1156 C1159 1.386 . S
H1157 C1173 0.930 1_556 S
H1158 C1174 0.931 . S
C1159 H1147 0.929 . S
C1159 C1153 1.390 . S
C1159 C1156 1.386 . S
C1160 C1155 1.490 . S
C1160 C1162 1.395 . S
C1160 C1163 1.403 . S
H1161 C1167 0.930 . S
C1162 H1148 0.930 . S
C1162 C1160 1.395 . S
C1162 C1165 1.403 . S
C1163 C1160 1.403 . S
C1163 C1164 1.524 . S
C1163 C1167 1.400 . S
C1164 H1149 0.960 . S
C1164 H1150 0.960 . S
C1164 H1151 0.960 . S
C1164 C1163 1.524 . S
C1165 C1162 1.403 . S
C1165 C1166 1.392 . S
C1165 C1169 1.495 . S
C1166 C1165 1.392 . S
C1166 C1167 1.385 . S
C1166 C1168 1.478 . S
C1167 H1161 0.930 . S
C1167 C1163 1.400 . S
C1167 C1166 1.385 . S
C1168 C1166 1.478 . S
C1168 C1170 1.381 . S
C1168 C1174 1.383 . S
C1169 C1165 1.495 . S
C1169 H1175 0.959 . S
C1169 H1176 0.961 . S
C1169 H1177 0.960 . S
C1170 C1168 1.381 . S
C1170 C1171 1.394 . S
C1170 H1178 0.930 . S
C1171 C1170 1.394 . S
C1171 C1172 1.383 1_554 S
C1171 H1179 0.929 1_554 S
C1172 C1171 1.383 1_556 S
C1172 C1173 1.377 1_556 S
C1173 H1157 0.930 1_554 S
C1173 C1172 1.377 1_554 S
C1173 C1174 1.379 . S
C1174 H1158 0.931 . S
C1174 C1168 1.383 . S
C1174 C1173 1.379 . S
H1175 C1169 0.959 . S
H1176 C1169 0.961 . S
H1177 C1169 0.960 . S
H1178 C1170 0.930 . S
H1179 C1171 0.929 1_556 S
H1180 C1188 0.929 . S
H1181 C1190 0.930 . S
H1182 C1192 0.930 . S
H1183 C1195 0.929 . S
H1184 C1198 0.930 . S
H1185 C1200 0.960 . S
H1186 C1200 0.960 . S
H1187 C1200 0.960 . S
C1188 H1180 0.929 . S
C1188 C1189 1.377 . S
C1188 C1190 1.384 . S
C1189 C1188 1.377 . S
C1189 C1195 1.390 . S
C1190 H1181 0.930 . S
C1190 C1188 1.384 . S
C1190 C1191 1.372 . S
C1191 C1190 1.372 . S
C1191 C1192 1.400 . S
C1191 C1196 1.490 . S
C1192 H1182 0.930 . S
C1192 C1191 1.400 . S
C1192 C1195 1.386 . S
H1193 C1209 0.930 . S
H1194 C1210 0.931 . S
C1195 H1183 0.929 . S
C1195 C1189 1.390 . S
C1195 C1192 1.386 . S
C1196 C1191 1.490 . S
C1196 C1198 1.395 . S
C1196 C1199 1.403 . S
H1197 C1203 0.930 . S
C1198 H1184 0.930 . S
C1198 C1196 1.395 . S
C1198 C1201 1.403 . S
C1199 C1196 1.403 . S
C1199 C1200 1.524 . S
C1199 C1203 1.400 . S
C1200 H1185 0.960 . S
C1200 H1186 0.960 . S
C1200 H1187 0.960 . S
C1200 C1199 1.524 . S
C1201 C1198 1.403 . S
C1201 C1202 1.392 . S
C1201 C1205 1.495 . S
C1202 C1201 1.392 . S
C1202 C1203 1.385 . S
C1202 C1204 1.478 . S
C1203 H1197 0.930 . S
C1203 C1199 1.400 . S
C1203 C1202 1.385 . S
C1204 C1202 1.478 . S
C1204 C1206 1.381 . S
C1204 C1210 1.383 . S
C1205 C1201 1.495 . S
C1205 H1211 0.959 . S
C1205 H1212 0.961 . S
C1205 H1213 0.960 . S
C1206 C1204 1.381 . S
C1206 C1207 1.394 . S
C1206 H1214 0.930 . S
C1207 C1206 1.394 . S
C1207 C1208 1.383 . S
C1207 H1215 0.929 . S
C1208 C1207 1.383 . S
C1208 C1209 1.377 . S
C1209 H1193 0.930 . S
C1209 C1208 1.377 . S
C1209 C1210 1.379 . S
C1210 H1194 0.931 . S
C1210 C1204 1.383 . S
C1210 C1209 1.379 . S
H1211 C1205 0.959 . S
H1212 C1205 0.961 . S
H1213 C1205 0.960 . S
H1214 C1206 0.930 . S
H1215 C1207 0.929 . S
H1216 C1224 0.929 . S
H1217 C1226 0.930 . S
H1218 C1228 0.930 . S
H1219 C1231 0.929 . S
H1220 C1234 0.930 . S
H1221 C1236 0.960 . S
H1222 C1236 0.960 . S
H1223 C1236 0.960 . S
C1224 H1216 0.929 . S
C1224 C1225 1.377 . S
C1224 C1226 1.384 . S
C1225 C1224 1.377 . S
C1225 C1231 1.390 . S
C1226 H1217 0.930 . S
C1226 C1224 1.384 . S
C1226 C1227 1.372 . S
C1227 C1226 1.372 . S
C1227 C1228 1.400 . S
C1227 C1232 1.490 . S
C1228 H1218 0.930 . S
C1228 C1227 1.400 . S
C1228 C1231 1.386 . S
H1229 C1245 0.930 . S
H1230 C1246 0.931 . S
C1231 H1219 0.929 . S
C1231 C1225 1.390 . S
C1231 C1228 1.386 . S
C1232 C1227 1.490 . S
C1232 C1234 1.395 . S
C1232 C1235 1.403 . S
H1233 C1239 0.930 . S
C1234 H1220 0.930 . S
C1234 C1232 1.395 . S
C1234 C1237 1.403 . S
C1235 C1232 1.403 . S
C1235 C1236 1.524 . S
C1235 C1239 1.400 . S
C1236 H1221 0.960 . S
C1236 H1222 0.960 . S
C1236 H1223 0.960 . S
C1236 C1235 1.524 . S
C1237 C1234 1.403 . S
C1237 C1238 1.392 . S
C1237 C1241 1.495 . S
C1238 C1237 1.392 . S
C1238 C1239 1.385 . S
C1238 C1240 1.478 . S
C1239 H1233 0.930 . S
C1239 C1235 1.400 . S
C1239 C1238 1.385 . S
C1240 C1238 1.478 . S
C1240 C1242 1.381 . S
C1240 C1246 1.383 . S
C1241 C1237 1.495 . S
C1241 H1247 0.959 . S
C1241 H1248 0.961 . S
C1241 H1249 0.960 . S
C1242 C1240 1.381 . S
C1242 C1243 1.394 . S
C1242 H1250 0.930 . S
C1243 C1242 1.394 . S
C1243 C1244 1.383 . S
C1243 H1251 0.929 . S
C1244 C1243 1.383 . S
C1244 C1245 1.377 . S
C1245 H1229 0.930 . S
C1245 C1244 1.377 . S
C1245 C1246 1.379 . S
C1246 H1230 0.931 . S
C1246 C1240 1.383 . S
C1246 C1245 1.379 . S
H1247 C1241 0.959 . S
H1248 C1241 0.961 . S
H1249 C1241 0.960 . S
H1250 C1242 0.930 . S
H1251 C1243 0.929 . S
H1252 C1260 0.929 . S
H1253 C1262 0.930 . S
H1254 C1264 0.930 . S
H1255 C1267 0.929 . S
H1256 C1270 0.930 . S
H1257 C1272 0.960 . S
H1258 C1272 0.960 . S
H1259 C1272 0.960 . S
C1260 H1252 0.929 . S
C1260 C1261 1.377 . S
C1260 C1262 1.384 . S
C1261 C1260 1.377 . S
C1261 C1267 1.390 . S
C1262 H1253 0.930 . S
C1262 C1260 1.384 . S
C1262 C1263 1.372 . S
C1263 C1262 1.372 . S
C1263 C1264 1.400 . S
C1263 C1268 1.490 . S
C1264 H1254 0.930 . S
C1264 C1263 1.400 . S
C1264 C1267 1.386 . S
H1265 C1281 0.930 . S
H1266 C1282 0.931 . S
C1267 H1255 0.929 . S
C1267 C1261 1.390 . S
C1267 C1264 1.386 . S
C1268 C1263 1.490 . S
C1268 C1270 1.395 . S
C1268 C1271 1.403 . S
H1269 C1275 0.930 . S
C1270 H1256 0.930 . S
C1270 C1268 1.395 . S
C1270 C1273 1.403 . S
C1271 C1268 1.403 . S
C1271 C1272 1.524 . S
C1271 C1275 1.400 . S
C1272 H1257 0.960 . S
C1272 H1258 0.960 . S
C1272 H1259 0.960 . S
C1272 C1271 1.524 . S
C1273 C1270 1.403 . S
C1273 C1274 1.392 . S
C1273 C1277 1.495 . S
C1274 C1273 1.392 . S
C1274 C1275 1.385 . S
C1274 C1276 1.478 . S
C1275 H1269 0.930 . S
C1275 C1271 1.400 . S
C1275 C1274 1.385 . S
C1276 C1274 1.478 . S
C1276 C1278 1.381 . S
C1276 C1282 1.383 . S
C1277 C1273 1.495 . S
C1277 H1283 0.959 . S
C1277 H1284 0.961 . S
C1277 H1285 0.960 . S
C1278 C1276 1.381 . S
C1278 C1279 1.394 . S
C1278 H1286 0.930 . S
C1279 C1278 1.394 . S
C1279 C1280 1.383 . S
C1279 H1287 0.929 . S
C1280 C1279 1.383 . S
C1280 C1281 1.377 . S
C1281 H1265 0.930 . S
C1281 C1280 1.377 . S
C1281 C1282 1.379 . S
C1282 H1266 0.931 . S
C1282 C1276 1.383 . S
C1282 C1281 1.379 . S
H1283 C1277 0.959 . S
H1284 C1277 0.961 . S
H1285 C1277 0.960 . S
H1286 C1278 0.930 . S
H1287 C1279 0.929 . S
H1288 C1296 0.929 . S
H1289 C1298 0.930 . S
H1290 C1300 0.930 . S
H1291 C1303 0.929 . S
H1292 C1306 0.930 . S
H1293 C1308 0.960 . S
H1294 C1308 0.960 . S
H1295 C1308 0.960 . S
C1296 H1288 0.929 . S
C1296 C1297 1.377 . S
C1296 C1298 1.384 . S
C1297 C1296 1.377 . S
C1297 C1303 1.390 . S
C1298 H1289 0.930 . S
C1298 C1296 1.384 . S
C1298 C1299 1.372 . S
C1299 C1298 1.372 . S
C1299 C1300 1.400 . S
C1299 C1304 1.490 . S
C1300 H1290 0.930 . S
C1300 C1299 1.400 . S
C1300 C1303 1.386 . S
H1301 C1317 0.930 . S
H1302 C1318 0.931 . S
C1303 H1291 0.929 . S
C1303 C1297 1.390 . S
C1303 C1300 1.386 . S
C1304 C1299 1.490 . S
C1304 C1306 1.395 . S
C1304 C1307 1.403 . S
H1305 C1311 0.930 . S
C1306 H1292 0.930 . S
C1306 C1304 1.395 . S
C1306 C1309 1.403 . S
C1307 C1304 1.403 . S
C1307 C1308 1.524 . S
C1307 C1311 1.400 . S
C1308 H1293 0.960 . S
C1308 H1294 0.960 . S
C1308 H1295 0.960 . S
C1308 C1307 1.524 . S
C1309 C1306 1.403 . S
C1309 C1310 1.392 . S
C1309 C1313 1.495 . S
C1310 C1309 1.392 . S
C1310 C1311 1.385 . S
C1310 C1312 1.478 . S
C1311 H1305 0.930 . S
C1311 C1307 1.400 . S
C1311 C1310 1.385 . S
C1312 C1310 1.478 . S
C1312 C1314 1.381 . S
C1312 C1318 1.383 . S
C1313 C1309 1.495 . S
C1313 H1319 0.959 . S
C1313 H1320 0.961 . S
C1313 H1321 0.960 . S
C1314 C1312 1.381 . S
C1314 C1315 1.394 . S
C1314 H1322 0.930 . S
C1315 C1314 1.394 . S
C1315 C1316 1.383 . S
C1315 H1323 0.929 . S
C1316 C1315 1.383 . S
C1316 C1317 1.377 . S
C1317 H1301 0.930 . S
C1317 C1316 1.377 . S
C1317 C1318 1.379 . S
C1318 H1302 0.931 . S
C1318 C1312 1.383 . S
C1318 C1317 1.379 . S
H1319 C1313 0.959 . S
H1320 C1313 0.961 . S
H1321 C1313 0.960 . S
H1322 C1314 0.930 . S
H1323 C1315 0.929 . S
H1324 C1332 0.929 . S
H1325 C1334 0.930 . S
H1326 C1336 0.930 . S
H1327 C1339 0.929 . S
H1328 C1342 0.930 . S
H1329 C1344 0.960 . S
H1330 C1344 0.960 . S
H1331 C1344 0.960 . S
C1332 H1324 0.929 . S
C1332 C1333 1.377 . S
C1332 C1334 1.384 . S
C1333 C1332 1.377 . S
C1333 C1339 1.390 . S
C1334 H1325 0.930 . S
C1334 C1332 1.384 . S
C1334 C1335 1.372 . S
C1335 C1334 1.372 . S
C1335 C1336 1.400 . S
C1335 C1340 1.490 . S
C1336 H1326 0.930 . S
C1336 C1335 1.400 . S
C1336 C1339 1.386 . S
H1337 C1353 0.930 . S
H1338 C1354 0.931 . S
C1339 H1327 0.929 . S
C1339 C1333 1.390 . S
C1339 C1336 1.386 . S
C1340 C1335 1.490 . S
C1340 C1342 1.395 . S
C1340 C1343 1.403 . S
H1341 C1347 0.930 . S
C1342 H1328 0.930 . S
C1342 C1340 1.395 . S
C1342 C1345 1.403 1_655 S
C1343 C1340 1.403 . S
C1343 C1344 1.524 . S
C1343 C1347 1.400 1_655 S
C1344 H1329 0.960 . S
C1344 H1330 0.960 . S
C1344 H1331 0.960 . S
C1344 C1343 1.524 . S
C1345 C1342 1.403 1_455 S
C1345 C1346 1.392 . S
C1345 C1349 1.495 . S
C1346 C1345 1.392 . S
C1346 C1347 1.385 . S
C1346 C1348 1.478 . S
C1347 H1341 0.930 . S
C1347 C1343 1.400 1_455 S
C1347 C1346 1.385 . S
C1348 C1346 1.478 . S
C1348 C1350 1.381 . S
C1348 C1354 1.383 . S
C1349 C1345 1.495 . S
C1349 H1355 0.959 . S
C1349 H1356 0.961 . S
C1349 H1357 0.960 . S
C1350 C1348 1.381 . S
C1350 C1351 1.394 . S
C1350 H1358 0.930 . S
C1351 C1350 1.394 . S
C1351 C1352 1.383 . S
C1351 H1359 0.929 . S
C1352 C1351 1.383 . S
C1352 C1353 1.377 . S
C1353 H1337 0.930 . S
C1353 C1352 1.377 . S
C1353 C1354 1.379 . S
C1354 H1338 0.931 . S
C1354 C1348 1.383 . S
C1354 C1353 1.379 . S
H1355 C1349 0.959 . S
H1356 C1349 0.961 . S
H1357 C1349 0.960 . S
H1358 C1350 0.930 . S
H1359 C1351 0.929 . S
H1360 C1368 0.929 . S
H1361 C1370 0.930 . S
H1362 C1372 0.930 . S
H1363 C1375 0.929 . S
H1364 C1378 0.930 . S
H1365 C1380 0.960 . S
H1366 C1380 0.960 . S
H1367 C1380 0.960 . S
C1368 H1360 0.929 . S
C1368 C1369 1.377 . S
C1368 C1370 1.384 . S
C1369 C1368 1.377 . S
C1369 C1375 1.390 . S
C1370 H1361 0.930 . S
C1370 C1368 1.384 . S
C1370 C1371 1.372 . S
C1371 C1370 1.372 . S
C1371 C1372 1.400 . S
C1371 C1376 1.490 . S
C1372 H1362 0.930 . S
C1372 C1371 1.400 . S
C1372 C1375 1.386 . S
H1373 C1389 0.930 . S
H1374 C1390 0.931 . S
C1375 H1363 0.929 . S
C1375 C1369 1.390 . S
C1375 C1372 1.386 . S
C1376 C1371 1.490 . S
C1376 C1378 1.395 . S
C1376 C1379 1.403 . S
H1377 C1383 0.930 . S
C1378 H1364 0.930 . S
C1378 C1376 1.395 . S
C1378 C1381 1.403 . S
C1379 C1376 1.403 . S
C1379 C1380 1.524 . S
C1379 C1383 1.400 . S
C1380 H1365 0.960 . S
C1380 H1366 0.960 . S
C1380 H1367 0.960 . S
C1380 C1379 1.524 . S
C1381 C1378 1.403 . S
C1381 C1382 1.392 . S
C1381 C1385 1.495 . S
C1382 C1381 1.392 . S
C1382 C1383 1.385 . S
C1382 C1384 1.478 . S
C1383 H1377 0.930 . S
C1383 C1379 1.400 . S
C1383 C1382 1.385 . S
C1384 C1382 1.478 . S
C1384 C1386 1.381 . S
C1384 C1390 1.383 . S
C1385 C1381 1.495 . S
C1385 H1391 0.959 . S
C1385 H1392 0.961 . S
C1385 H1393 0.960 . S
C1386 C1384 1.381 . S
C1386 C1387 1.394 . S
C1386 H1394 0.930 . S
C1387 C1386 1.394 . S
C1387 C1388 1.383 . S
C1387 H1395 0.929 . S
C1388 C1387 1.383 . S
C1388 C1389 1.377 . S
C1389 H1373 0.930 . S
C1389 C1388 1.377 . S
C1389 C1390 1.379 . S
C1390 H1374 0.931 . S
C1390 C1384 1.383 . S
C1390 C1389 1.379 . S
H1391 C1385 0.959 . S
H1392 C1385 0.961 . S
H1393 C1385 0.960 . S
H1394 C1386 0.930 . S
H1395 C1387 0.929 . S
H1396 C1404 0.929 . S
H1397 C1406 0.930 . S
H1398 C1408 0.930 . S
H1399 C1411 0.929 . S
H1400 C1414 0.930 . S
H1401 C1416 0.960 . S
H1402 C1416 0.960 . S
H1403 C1416 0.960 . S
C1404 H1396 0.929 . S
C1404 C1405 1.377 . S
C1404 C1406 1.384 . S
C1405 C1404 1.377 . S
C1405 C1411 1.390 . S
C1406 H1397 0.930 . S
C1406 C1404 1.384 . S
C1406 C1407 1.372 . S
C1407 C1406 1.372 . S
C1407 C1408 1.400 . S
C1407 C1412 1.490 . S
C1408 H1398 0.930 . S
C1408 C1407 1.400 . S
C1408 C1411 1.386 . S
H1409 C1425 0.930 . S
H1410 C1426 0.931 . S
C1411 H1399 0.929 . S
C1411 C1405 1.390 . S
C1411 C1408 1.386 . S
C1412 C1407 1.490 . S
C1412 C1414 1.395 . S
C1412 C1415 1.403 . S
H1413 C1419 0.930 . S
C1414 H1400 0.930 . S
C1414 C1412 1.395 . S
C1414 C1417 1.403 1_455 S
C1415 C1412 1.403 . S
C1415 C1416 1.524 . S
C1415 C1419 1.400 1_455 S
C1416 H1401 0.960 . S
C1416 H1402 0.960 . S
C1416 H1403 0.960 . S
C1416 C1415 1.524 . S
C1417 C1414 1.403 1_655 S
C1417 C1418 1.392 . S
C1417 C1421 1.495 . S
C1418 C1417 1.392 . S
C1418 C1419 1.385 . S
C1418 C1420 1.478 . S
C1419 H1413 0.930 . S
C1419 C1415 1.400 1_655 S
C1419 C1418 1.385 . S
C1420 C1418 1.478 . S
C1420 C1422 1.381 . S
C1420 C1426 1.383 . S
C1421 C1417 1.495 . S
C1421 H1427 0.959 . S
C1421 H1428 0.961 . S
C1421 H1429 0.960 . S
C1422 C1420 1.381 . S
C1422 C1423 1.394 . S
C1422 H1430 0.930 . S
C1423 C1422 1.394 . S
C1423 C1424 1.383 . S
C1423 H1431 0.929 . S
C1424 C1423 1.383 . S
C1424 C1425 1.377 . S
C1425 H1409 0.930 . S
C1425 C1424 1.377 . S
C1425 C1426 1.379 . S
C1426 H1410 0.931 . S
C1426 C1420 1.383 . S
C1426 C1425 1.379 . S
H1427 C1421 0.959 . S
H1428 C1421 0.961 . S
H1429 C1421 0.960 . S
H1430 C1422 0.930 . S
H1431 C1423 0.929 . S
H1432 C1440 0.929 . S
H1433 C1442 0.930 . S
H1434 C1444 0.930 . S
H1435 C1447 0.929 . S
H1436 C1450 0.930 . S
H1437 C1452 0.960 . S
H1438 C1452 0.960 . S
H1439 C1452 0.960 . S
C1440 H1432 0.929 . S
C1440 C1441 1.377 . S
C1440 C1442 1.384 . S
C1441 C1440 1.377 . S
C1441 C1447 1.390 . S
C1442 H1433 0.930 . S
C1442 C1440 1.384 . S
C1442 C1443 1.372 . S
C1443 C1442 1.372 . S
C1443 C1444 1.400 . S
C1443 C1448 1.490 . S
C1444 H1434 0.930 . S
C1444 C1443 1.400 . S
C1444 C1447 1.386 . S
H1445 C1461 0.930 . S
H1446 C1462 0.931 . S
C1447 H1435 0.929 . S
C1447 C1441 1.390 . S
C1447 C1444 1.386 . S
C1448 C1443 1.490 . S
C1448 C1450 1.395 . S
C1448 C1451 1.403 . S
H1449 C1455 0.930 . S
C1450 H1436 0.930 . S
C1450 C1448 1.395 . S
C1450 C1453 1.403 . S
C1451 C1448 1.403 . S
C1451 C1452 1.524 . S
C1451 C1455 1.400 . S
C1452 H1437 0.960 . S
C1452 H1438 0.960 . S
C1452 H1439 0.960 . S
C1452 C1451 1.524 . S
C1453 C1450 1.403 . S
C1453 C1454 1.392 . S
C1453 C1457 1.495 . S
C1454 C1453 1.392 . S
C1454 C1455 1.385 . S
C1454 C1456 1.478 . S
C1455 H1449 0.930 . S
C1455 C1451 1.400 . S
C1455 C1454 1.385 . S
C1456 C1454 1.478 . S
C1456 C1458 1.381 . S
C1456 C1462 1.383 . S
C1457 C1453 1.495 . S
C1457 H1463 0.959 . S
C1457 H1464 0.961 . S
C1457 H1465 0.960 . S
C1458 C1456 1.381 . S
C1458 C1459 1.394 . S
C1458 H1466 0.930 . S
C1459 C1458 1.394 . S
C1459 C1460 1.383 . S
C1459 H1467 0.929 . S
C1460 C1459 1.383 . S
C1460 C1461 1.377 . S
C1461 H1445 0.930 . S
C1461 C1460 1.377 . S
C1461 C1462 1.379 . S
C1462 H1446 0.931 . S
C1462 C1456 1.383 . S
C1462 C1461 1.379 . S
H1463 C1457 0.959 . S
H1464 C1457 0.961 . S
H1465 C1457 0.960 . S
H1466 C1458 0.930 . S
H1467 C1459 0.929 . S
H1468 C1476 0.929 . S
H1469 C1478 0.930 . S
H1470 C1480 0.930 . S
H1471 C1483 0.929 . S
H1472 C1486 0.930 . S
H1473 C1488 0.960 . S
H1474 C1488 0.960 . S
H1475 C1488 0.960 . S
C1476 H1468 0.929 . S
C1476 C1477 1.377 . S
C1476 C1478 1.384 . S
C1477 C1476 1.377 . S
C1477 C1483 1.390 . S
C1478 H1469 0.930 . S
C1478 C1476 1.384 . S
C1478 C1479 1.372 . S
C1479 C1478 1.372 . S
C1479 C1480 1.400 . S
C1479 C1484 1.490 . S
C1480 H1470 0.930 . S
C1480 C1479 1.400 . S
C1480 C1483 1.386 . S
H1481 C1497 0.930 . S
H1482 C1498 0.931 . S
C1483 H1471 0.929 . S
C1483 C1477 1.390 . S
C1483 C1480 1.386 . S
C1484 C1479 1.490 . S
C1484 C1486 1.395 . S
C1484 C1487 1.403 . S
H1485 C1491 0.930 . S
C1486 H1472 0.930 . S
C1486 C1484 1.395 . S
C1486 C1489 1.403 . S
C1487 C1484 1.403 . S
C1487 C1488 1.524 . S
C1487 C1491 1.400 . S
C1488 H1473 0.960 . S
C1488 H1474 0.960 . S
C1488 H1475 0.960 . S
C1488 C1487 1.524 . S
C1489 C1486 1.403 . S
C1489 C1490 1.392 . S
C1489 C1493 1.495 . S
C1490 C1489 1.392 . S
C1490 C1491 1.385 . S
C1490 C1492 1.478 . S
C1491 H1485 0.930 . S
C1491 C1487 1.400 . S
C1491 C1490 1.385 . S
C1492 C1490 1.478 . S
C1492 C1494 1.381 . S
C1492 C1498 1.383 . S
C1493 C1489 1.495 . S
C1493 H1499 0.959 . S
C1493 H1500 0.961 . S
C1493 H1501 0.960 . S
C1494 C1492 1.381 . S
C1494 C1495 1.394 . S
C1494 H1502 0.930 . S
C1495 C1494 1.394 . S
C1495 C1496 1.383 . S
C1495 H1503 0.929 . S
C1496 C1495 1.383 . S
C1496 C1497 1.377 . S
C1497 H1481 0.930 . S
C1497 C1496 1.377 . S
C1497 C1498 1.379 . S
C1498 H1482 0.931 . S
C1498 C1492 1.383 . S
C1498 C1497 1.379 . S
H1499 C1493 0.959 . S
H1500 C1493 0.961 . S
H1501 C1493 0.960 . S
H1502 C1494 0.930 . S
H1503 C1495 0.929 . S
H1504 C1512 0.929 . S
H1505 C1514 0.930 . S
H1506 C1516 0.930 . S
H1507 C1519 0.929 . S
H1508 C1522 0.930 . S
H1509 C1524 0.960 . S
H1510 C1524 0.960 . S
H1511 C1524 0.960 . S
C1512 H1504 0.929 . S
C1512 C1513 1.377 . S
C1512 C1514 1.384 . S
C1513 C1512 1.377 . S
C1513 C1519 1.390 . S
C1514 H1505 0.930 . S
C1514 C1512 1.384 . S
C1514 C1515 1.372 . S
C1515 C1514 1.372 . S
C1515 C1516 1.400 . S
C1515 C1520 1.490 . S
C1516 H1506 0.930 . S
C1516 C1515 1.400 . S
C1516 C1519 1.386 . S
H1517 C1533 0.930 . S
H1518 C1534 0.931 . S
C1519 H1507 0.929 . S
C1519 C1513 1.390 . S
C1519 C1516 1.386 . S
C1520 C1515 1.490 . S
C1520 C1522 1.395 . S
C1520 C1523 1.403 . S
H1521 C1527 0.930 . S
C1522 H1508 0.930 . S
C1522 C1520 1.395 . S
C1522 C1525 1.403 . S
C1523 C1520 1.403 . S
C1523 C1524 1.524 . S
C1523 C1527 1.400 . S
C1524 H1509 0.960 . S
C1524 H1510 0.960 . S
C1524 H1511 0.960 . S
C1524 C1523 1.524 . S
C1525 C1522 1.403 . S
C1525 C1526 1.392 . S
C1525 C1529 1.495 . S
C1526 C1525 1.392 . S
C1526 C1527 1.385 . S
C1526 C1528 1.478 . S
C1527 H1521 0.930 . S
C1527 C1523 1.400 . S
C1527 C1526 1.385 . S
C1528 C1526 1.478 . S
C1528 C1530 1.381 . S
C1528 C1534 1.383 . S
C1529 C1525 1.495 . S
C1529 H1535 0.959 . S
C1529 H1536 0.961 . S
C1529 H1537 0.960 . S
C1530 C1528 1.381 . S
C1530 C1531 1.394 . S
C1530 H1538 0.930 . S
C1531 C1530 1.394 . S
C1531 C1532 1.383 . S
C1531 H1539 0.929 . S
C1532 C1531 1.383 . S
C1532 C1533 1.377 . S
C1533 H1517 0.930 . S
C1533 C1532 1.377 . S
C1533 C1534 1.379 . S
C1534 H1518 0.931 . S
C1534 C1528 1.383 . S
C1534 C1533 1.379 . S
H1535 C1529 0.959 . S
H1536 C1529 0.961 . S
H1537 C1529 0.960 . S
H1538 C1530 0.930 . S
H1539 C1531 0.929 . S
H1540 C1548 0.929 . S
H1541 C1550 0.930 . S
H1542 C1552 0.930 . S
H1543 C1555 0.929 . S
H1544 C1558 0.930 . S
H1545 C1560 0.960 . S
H1546 C1560 0.960 . S
H1547 C1560 0.960 . S
C1548 H1540 0.929 . S
C1548 C1549 1.377 . S
C1548 C1550 1.384 . S
C1549 C1548 1.377 . S
C1549 C1555 1.390 . S
C1550 H1541 0.930 . S
C1550 C1548 1.384 . S
C1550 C1551 1.372 . S
C1551 C1550 1.372 . S
C1551 C1552 1.400 . S
C1551 C1556 1.490 . S
C1552 H1542 0.930 . S
C1552 C1551 1.400 . S
C1552 C1555 1.386 . S
H1553 C1569 0.930 . S
H1554 C1570 0.931 . S
C1555 H1543 0.929 . S
C1555 C1549 1.390 . S
C1555 C1552 1.386 . S
C1556 C1551 1.490 . S
C1556 C1558 1.395 . S
C1556 C1559 1.403 . S
H1557 C1563 0.930 . S
C1558 H1544 0.930 . S
C1558 C1556 1.395 . S
C1558 C1561 1.403 . S
C1559 C1556 1.403 . S
C1559 C1560 1.524 . S
C1559 C1563 1.400 . S
C1560 H1545 0.960 . S
C1560 H1546 0.960 . S
C1560 H1547 0.960 . S
C1560 C1559 1.524 . S
C1561 C1558 1.403 . S
C1561 C1562 1.392 . S
C1561 C1565 1.495 . S
C1562 C1561 1.392 . S
C1562 C1563 1.385 . S
C1562 C1564 1.478 . S
C1563 H1557 0.930 . S
C1563 C1559 1.400 . S
C1563 C1562 1.385 . S
C1564 C1562 1.478 . S
C1564 C1566 1.381 . S
C1564 C1570 1.383 . S
C1565 C1561 1.495 . S
C1565 H1571 0.959 . S
C1565 H1572 0.961 . S
C1565 H1573 0.960 . S
C1566 C1564 1.381 . S
C1566 C1567 1.394 . S
C1566 H1574 0.930 . S
C1567 C1566 1.394 . S
C1567 C1568 1.383 . S
C1567 H1575 0.929 . S
C1568 C1567 1.383 . S
C1568 C1569 1.377 . S
C1569 H1553 0.930 . S
C1569 C1568 1.377 . S
C1569 C1570 1.379 . S
C1570 H1554 0.931 . S
C1570 C1564 1.383 . S
C1570 C1569 1.379 . S
H1571 C1565 0.959 . S
H1572 C1565 0.961 . S
H1573 C1565 0.960 . S
H1574 C1566 0.930 . S
H1575 C1567 0.929 . S
H1576 C1584 0.929 . S
H1577 C1586 0.930 . S
H1578 C1588 0.930 . S
H1579 C1591 0.929 . S
H1580 C1594 0.930 . S
H1581 C1596 0.960 . S
H1582 C1596 0.960 . S
H1583 C1596 0.960 . S
C1584 H1576 0.929 . S
C1584 C1585 1.377 . S
C1584 C1586 1.384 . S
C1585 C1584 1.377 . S
C1585 C1591 1.390 . S
C1586 H1577 0.930 . S
C1586 C1584 1.384 . S
C1586 C1587 1.372 . S
C1587 C1586 1.372 . S
C1587 C1588 1.400 . S
C1587 C1592 1.490 . S
C1588 H1578 0.930 . S
C1588 C1587 1.400 . S
C1588 C1591 1.386 . S
H1589 C1605 0.930 . S
H1590 C1606 0.931 . S
C1591 H1579 0.929 . S
C1591 C1585 1.390 . S
C1591 C1588 1.386 . S
C1592 C1587 1.490 . S
C1592 C1594 1.395 . S
C1592 C1595 1.403 . S
H1593 C1599 0.930 . S
C1594 H1580 0.930 . S
C1594 C1592 1.395 . S
C1594 C1597 1.403 . S
C1595 C1592 1.403 . S
C1595 C1596 1.524 . S
C1595 C1599 1.400 . S
C1596 H1581 0.960 . S
C1596 H1582 0.960 . S
C1596 H1583 0.960 . S
C1596 C1595 1.524 . S
C1597 C1594 1.403 . S
C1597 C1598 1.392 . S
C1597 C1601 1.495 . S
C1598 C1597 1.392 . S
C1598 C1599 1.385 . S
C1598 C1600 1.478 . S
C1599 H1593 0.930 . S
C1599 C1595 1.400 . S
C1599 C1598 1.385 . S
C1600 C1598 1.478 . S
C1600 C1602 1.381 . S
C1600 C1606 1.383 . S
C1601 C1597 1.495 . S
C1601 H1607 0.959 . S
C1601 H1608 0.961 . S
C1601 H1609 0.960 . S
C1602 C1600 1.381 . S
C1602 C1603 1.394 . S
C1602 H1610 0.930 . S
C1603 C1602 1.394 . S
C1603 C1604 1.383 . S
C1603 H1611 0.929 . S
C1604 C1603 1.383 . S
C1604 C1605 1.377 . S
C1605 H1589 0.930 . S
C1605 C1604 1.377 . S
C1605 C1606 1.379 . S
C1606 H1590 0.931 . S
C1606 C1600 1.383 . S
C1606 C1605 1.379 . S
H1607 C1601 0.959 . S
H1608 C1601 0.961 . S
H1609 C1601 0.960 . S
H1610 C1602 0.930 . S
H1611 C1603 0.929 . S
H1612 C1620 0.929 . S
H1613 C1622 0.930 . S
H1614 C1624 0.930 . S
H1615 C1627 0.929 . S
H1616 C1630 0.930 . S
H1617 C1632 0.960 . S
H1618 C1632 0.960 . S
H1619 C1632 0.960 . S
C1620 H1612 0.929 . S
C1620 C1621 1.377 . S
C1620 C1622 1.384 . S
C1621 C1620 1.377 . S
C1621 C1627 1.390 . S
C1622 H1613 0.930 . S
C1622 C1620 1.384 . S
C1622 C1623 1.372 . S
C1623 C1622 1.372 . S
C1623 C1624 1.400 . S
C1623 C1628 1.490 . S
C1624 H1614 0.930 . S
C1624 C1623 1.400 . S
C1624 C1627 1.386 . S
H1625 C1641 0.930 . S
H1626 C1642 0.931 . S
C1627 H1615 0.929 . S
C1627 C1621 1.390 . S
C1627 C1624 1.386 . S
C1628 C1623 1.490 . S
C1628 C1630 1.395 . S
C1628 C1631 1.403 . S
H1629 C1635 0.930 . S
C1630 H1616 0.930 . S
C1630 C1628 1.395 . S
C1630 C1633 1.403 . S
C1631 C1628 1.403 . S
C1631 C1632 1.524 . S
C1631 C1635 1.400 . S
C1632 H1617 0.960 . S
C1632 H1618 0.960 . S
C1632 H1619 0.960 . S
C1632 C1631 1.524 . S
C1633 C1630 1.403 . S
C1633 C1634 1.392 . S
C1633 C1637 1.495 . S
C1634 C1633 1.392 . S
C1634 C1635 1.385 . S
C1634 C1636 1.478 . S
C1635 H1629 0.930 . S
C1635 C1631 1.400 . S
C1635 C1634 1.385 . S
C1636 C1634 1.478 . S
C1636 C1638 1.381 . S
C1636 C1642 1.383 . S
C1637 C1633 1.495 . S
C1637 H1643 0.959 . S
C1637 H1644 0.961 . S
C1637 H1645 0.960 . S
C1638 C1636 1.381 . S
C1638 C1639 1.394 . S
C1638 H1646 0.930 . S
C1639 C1638 1.394 . S
C1639 C1640 1.383 . S
C1639 H1647 0.929 . S
C1640 C1639 1.383 . S
C1640 C1641 1.377 . S
C1641 H1625 0.930 . S
C1641 C1640 1.377 . S
C1641 C1642 1.379 . S
C1642 H1626 0.931 . S
C1642 C1636 1.383 . S
C1642 C1641 1.379 . S
H1643 C1637 0.959 . S
H1644 C1637 0.961 . S
H1645 C1637 0.960 . S
H1646 C1638 0.930 . S
H1647 C1639 0.929 . S
H1648 C1656 0.929 . S
H1649 C1658 0.930 . S
H1650 C1660 0.930 . S
H1651 C1663 0.929 . S
H1652 C1666 0.930 . S
H1653 C1668 0.960 . S
H1654 C1668 0.960 . S
H1655 C1668 0.960 . S
C1656 H1648 0.929 . S
C1656 C1657 1.377 . S
C1656 C1658 1.384 . S
C1657 C1656 1.377 . S
C1657 C1663 1.390 . S
C1658 H1649 0.930 . S
C1658 C1656 1.384 . S
C1658 C1659 1.372 . S
C1659 C1658 1.372 . S
C1659 C1660 1.400 . S
C1659 C1664 1.490 . S
C1660 H1650 0.930 . S
C1660 C1659 1.400 . S
C1660 C1663 1.386 . S
H1661 C1677 0.930 . S
H1662 C1678 0.931 . S
C1663 H1651 0.929 . S
C1663 C1657 1.390 . S
C1663 C1660 1.386 . S
C1664 C1659 1.490 . S
C1664 C1666 1.395 . S
C1664 C1667 1.403 . S
H1665 C1671 0.930 . S
C1666 H1652 0.930 . S
C1666 C1664 1.395 . S
C1666 C1669 1.403 1_655 S
C1667 C1664 1.403 . S
C1667 C1668 1.524 . S
C1667 C1671 1.400 1_655 S
C1668 H1653 0.960 . S
C1668 H1654 0.960 . S
C1668 H1655 0.960 . S
C1668 C1667 1.524 . S
C1669 C1666 1.403 1_455 S
C1669 C1670 1.392 . S
C1669 C1673 1.495 . S
C1670 C1669 1.392 . S
C1670 C1671 1.385 . S
C1670 C1672 1.478 . S
C1671 H1665 0.930 . S
C1671 C1667 1.400 1_455 S
C1671 C1670 1.385 . S
C1672 C1670 1.478 . S
C1672 C1674 1.381 . S
C1672 C1678 1.383 . S
C1673 C1669 1.495 . S
C1673 H1679 0.959 . S
C1673 H1680 0.961 . S
C1673 H1681 0.960 . S
C1674 C1672 1.381 . S
C1674 C1675 1.394 . S
C1674 H1682 0.930 . S
C1675 C1674 1.394 . S
C1675 C1676 1.383 . S
C1675 H1683 0.929 . S
C1676 C1675 1.383 . S
C1676 C1677 1.377 . S
C1677 H1661 0.930 . S
C1677 C1676 1.377 . S
C1677 C1678 1.379 . S
C1678 H1662 0.931 . S
C1678 C1672 1.383 . S
C1678 C1677 1.379 . S
H1679 C1673 0.959 . S
H1680 C1673 0.961 . S
H1681 C1673 0.960 . S
H1682 C1674 0.930 . S
H1683 C1675 0.929 . S
H1684 C1692 0.929 . S
H1685 C1694 0.930 . S
H1686 C1696 0.930 . S
H1687 C1699 0.929 . S
H1688 C1702 0.930 . S
H1689 C1704 0.960 . S
H1690 C1704 0.960 . S
H1691 C1704 0.960 . S
C1692 H1684 0.929 . S
C1692 C1693 1.377 . S
C1692 C1694 1.384 . S
C1693 C1692 1.377 . S
C1693 C1699 1.390 . S
C1694 H1685 0.930 . S
C1694 C1692 1.384 . S
C1694 C1695 1.372 . S
C1695 C1694 1.372 . S
C1695 C1696 1.400 . S
C1695 C1700 1.490 . S
C1696 H1686 0.930 . S
C1696 C1695 1.400 . S
C1696 C1699 1.386 . S
H1697 C1713 0.930 . S
H1698 C1714 0.931 . S
C1699 H1687 0.929 . S
C1699 C1693 1.390 . S
C1699 C1696 1.386 . S
C1700 C1695 1.490 . S
C1700 C1702 1.395 . S
C1700 C1703 1.403 . S
H1701 C1707 0.930 . S
C1702 H1688 0.930 . S
C1702 C1700 1.395 . S
C1702 C1705 1.403 . S
C1703 C1700 1.403 . S
C1703 C1704 1.524 . S
C1703 C1707 1.400 . S
C1704 H1689 0.960 . S
C1704 H1690 0.960 . S
C1704 H1691 0.960 . S
C1704 C1703 1.524 . S
C1705 C1702 1.403 . S
C1705 C1706 1.392 . S
C1705 C1709 1.495 . S
C1706 C1705 1.392 . S
C1706 C1707 1.385 . S
C1706 C1708 1.478 . S
C1707 H1701 0.930 . S
C1707 C1703 1.400 . S
C1707 C1706 1.385 . S
C1708 C1706 1.478 . S
C1708 C1710 1.381 . S
C1708 C1714 1.383 . S
C1709 C1705 1.495 . S
C1709 H1715 0.959 . S
C1709 H1716 0.961 . S
C1709 H1717 0.960 . S
C1710 C1708 1.381 . S
C1710 C1711 1.394 . S
C1710 H1718 0.930 . S
C1711 C1710 1.394 . S
C1711 C1712 1.383 . S
C1711 H1719 0.929 . S
C1712 C1711 1.383 . S
C1712 C1713 1.377 . S
C1713 H1697 0.930 . S
C1713 C1712 1.377 . S
C1713 C1714 1.379 . S
C1714 H1698 0.931 . S
C1714 C1708 1.383 . S
C1714 C1713 1.379 . S
H1715 C1709 0.959 . S
H1716 C1709 0.961 . S
H1717 C1709 0.960 . S
H1718 C1710 0.930 . S
H1719 C1711 0.929 . S
H1720 C1728 0.929 . S
H1721 C1730 0.930 . S
H1722 C1732 0.930 . S
H1723 C1735 0.929 . S
H1724 C1738 0.930 . S
H1725 C1740 0.960 . S
H1726 C1740 0.960 . S
H1727 C1740 0.960 . S
C1728 H1720 0.929 . S
C1728 C1729 1.377 . S
C1728 C1730 1.384 . S
C1729 C1728 1.377 . S
C1729 C1735 1.390 . S
C1730 H1721 0.930 . S
C1730 C1728 1.384 . S
C1730 C1731 1.372 . S
C1731 C1730 1.372 . S
C1731 C1732 1.400 . S
C1731 C1736 1.490 . S
C1732 H1722 0.930 . S
C1732 C1731 1.400 . S
C1732 C1735 1.386 . S
H1733 C1749 0.930 . S
H1734 C1750 0.931 . S
C1735 H1723 0.929 . S
C1735 C1729 1.390 . S
C1735 C1732 1.386 . S
C1736 C1731 1.490 . S
C1736 C1738 1.395 . S
C1736 C1739 1.403 . S
H1737 C1743 0.930 . S
C1738 H1724 0.930 . S
C1738 C1736 1.395 . S
C1738 C1741 1.403 . S
C1739 C1736 1.403 . S
C1739 C1740 1.524 . S
C1739 C1743 1.400 . S
C1740 H1725 0.960 . S
C1740 H1726 0.960 . S
C1740 H1727 0.960 . S
C1740 C1739 1.524 . S
C1741 C1738 1.403 . S
C1741 C1742 1.392 . S
C1741 C1745 1.495 . S
C1742 C1741 1.392 . S
C1742 C1743 1.385 . S
C1742 C1744 1.478 . S
C1743 H1737 0.930 . S
C1743 C1739 1.400 . S
C1743 C1742 1.385 . S
C1744 C1742 1.478 . S
C1744 C1746 1.381 . S
C1744 C1750 1.383 . S
C1745 C1741 1.495 . S
C1745 H1751 0.959 . S
C1745 H1752 0.961 . S
C1745 H1753 0.960 . S
C1746 C1744 1.381 . S
C1746 C1747 1.394 . S
C1746 H1754 0.930 . S
C1747 C1746 1.394 . S
C1747 C1748 1.383 . S
C1747 H1755 0.929 . S
C1748 C1747 1.383 . S
C1748 C1749 1.377 . S
C1749 H1733 0.930 . S
C1749 C1748 1.377 . S
C1749 C1750 1.379 . S
C1750 H1734 0.931 . S
C1750 C1744 1.383 . S
C1750 C1749 1.379 . S
H1751 C1745 0.959 . S
H1752 C1745 0.961 . S
H1753 C1745 0.960 . S
H1754 C1746 0.930 . S
H1755 C1747 0.929 . S
H1756 C1764 0.929 . S
H1757 C1766 0.930 . S
H1758 C1768 0.930 . S
H1759 C1771 0.929 . S
H1760 C1774 0.930 . S
H1761 C1776 0.960 . S
H1762 C1776 0.960 . S
H1763 C1776 0.960 . S
C1764 H1756 0.929 . S
C1764 C1765 1.377 . S
C1764 C1766 1.384 . S
C1765 C1764 1.377 . S
C1765 C1771 1.390 . S
C1766 H1757 0.930 . S
C1766 C1764 1.384 . S
C1766 C1767 1.372 . S
C1767 C1766 1.372 . S
C1767 C1768 1.400 . S
C1767 C1772 1.490 . S
C1768 H1758 0.930 . S
C1768 C1767 1.400 . S
C1768 C1771 1.386 . S
H1769 C1785 0.930 . S
H1770 C1786 0.931 . S
C1771 H1759 0.929 . S
C1771 C1765 1.390 . S
C1771 C1768 1.386 . S
C1772 C1767 1.490 . S
C1772 C1774 1.395 . S
C1772 C1775 1.403 . S
H1773 C1779 0.930 . S
C1774 H1760 0.930 . S
C1774 C1772 1.395 . S
C1774 C1777 1.403 1_455 S
C1775 C1772 1.403 . S
C1775 C1776 1.524 . S
C1775 C1779 1.400 1_455 S
C1776 H1761 0.960 . S
C1776 H1762 0.960 . S
C1776 H1763 0.960 . S
C1776 C1775 1.524 . S
C1777 C1774 1.403 1_655 S
C1777 C1778 1.392 . S
C1777 C1781 1.495 . S
C1778 C1777 1.392 . S
C1778 C1779 1.385 . S
C1778 C1780 1.478 . S
C1779 H1773 0.930 . S
C1779 C1775 1.400 1_655 S
C1779 C1778 1.385 . S
C1780 C1778 1.478 . S
C1780 C1782 1.381 . S
C1780 C1786 1.383 . S
C1781 C1777 1.495 . S
C1781 H1787 0.959 . S
C1781 H1788 0.961 . S
C1781 H1789 0.960 . S
C1782 C1780 1.381 . S
C1782 C1783 1.394 . S
C1782 H1790 0.930 . S
C1783 C1782 1.394 . S
C1783 C1784 1.383 . S
C1783 H1791 0.929 . S
C1784 C1783 1.383 . S
C1784 C1785 1.377 . S
C1785 H1769 0.930 . S
C1785 C1784 1.377 . S
C1785 C1786 1.379 . S
C1786 H1770 0.931 . S
C1786 C1780 1.383 . S
C1786 C1785 1.379 . S
H1787 C1781 0.959 . S
H1788 C1781 0.961 . S
H1789 C1781 0.960 . S
H1790 C1782 0.930 . S
H1791 C1783 0.929 . S
H1792 C1800 0.929 . S
H1793 C1802 0.930 . S
H1794 C1804 0.930 . S
H1795 C1807 0.929 . S
H1796 C1810 0.930 . S
H1797 C1812 0.960 . S
H1798 C1812 0.960 . S
H1799 C1812 0.960 . S
C1800 H1792 0.929 . S
C1800 C1801 1.377 . S
C1800 C1802 1.384 . S
C1801 C1800 1.377 . S
C1801 C1807 1.390 . S
C1802 H1793 0.930 . S
C1802 C1800 1.384 . S
C1802 C1803 1.372 . S
C1803 C1802 1.372 . S
C1803 C1804 1.400 . S
C1803 C1808 1.490 . S
C1804 H1794 0.930 . S
C1804 C1803 1.400 . S
C1804 C1807 1.386 . S
H1805 C1821 0.930 . S
H1806 C1822 0.931 . S
C1807 H1795 0.929 . S
C1807 C1801 1.390 . S
C1807 C1804 1.386 . S
C1808 C1803 1.490 . S
C1808 C1810 1.395 . S
C1808 C1811 1.403 . S
H1809 C1815 0.930 . S
C1810 H1796 0.930 . S
C1810 C1808 1.395 . S
C1810 C1813 1.403 . S
C1811 C1808 1.403 . S
C1811 C1812 1.524 1_554 S
C1811 C1815 1.400 1_554 S
C1812 H1797 0.960 . S
C1812 H1798 0.960 . S
C1812 H1799 0.960 . S
C1812 C1811 1.524 1_556 S
C1813 C1810 1.403 . S
C1813 C1814 1.392 1_554 S
C1813 C1817 1.495 . S
C1814 C1813 1.392 1_556 S
C1814 C1815 1.385 . S
C1814 C1816 1.478 . S
C1815 H1809 0.930 . S
C1815 C1811 1.400 1_556 S
C1815 C1814 1.385 . S
C1816 C1814 1.478 . S
C1816 C1818 1.381 . S
C1816 C1822 1.383 . S
C1817 C1813 1.495 . S
C1817 H1823 0.959 . S
C1817 H1824 0.961 . S
C1817 H1825 0.960 . S
C1818 C1816 1.381 . S
C1818 C1819 1.394 . S
C1818 H1826 0.930 . S
C1819 C1818 1.394 . S
C1819 C1820 1.383 . S
C1819 H1827 0.929 . S
C1820 C1819 1.383 . S
C1820 C1821 1.377 . S
C1821 H1805 0.930 . S
C1821 C1820 1.377 . S
C1821 C1822 1.379 . S
C1822 H1806 0.931 . S
C1822 C1816 1.383 . S
C1822 C1821 1.379 . S
H1823 C1817 0.959 . S
H1824 C1817 0.961 . S
H1825 C1817 0.960 . S
H1826 C1818 0.930 . S
H1827 C1819 0.929 . S
H1828 C1836 0.929 . S
H1829 C1838 0.930 . S
H1830 C1840 0.930 . S
H1831 C1843 0.929 . S
H1832 C1846 0.930 . S
H1833 C1848 0.960 . S
H1834 C1848 0.960 . S
H1835 C1848 0.960 . S
C1836 H1828 0.929 . S
C1836 C1837 1.377 . S
C1836 C1838 1.384 . S
C1837 C1836 1.377 . S
C1837 C1843 1.390 . S
C1838 H1829 0.930 . S
C1838 C1836 1.384 . S
C1838 C1839 1.372 . S
C1839 C1838 1.372 . S
C1839 C1840 1.400 . S
C1839 C1844 1.490 . S
C1840 H1830 0.930 . S
C1840 C1839 1.400 . S
C1840 C1843 1.386 . S
H1841 C1857 0.930 . S
H1842 C1858 0.931 . S
C1843 H1831 0.929 . S
C1843 C1837 1.390 . S
C1843 C1840 1.386 . S
C1844 C1839 1.490 . S
C1844 C1846 1.395 . S
C1844 C1847 1.403 . S
H1845 C1851 0.930 . S
C1846 H1832 0.930 . S
C1846 C1844 1.395 . S
C1846 C1849 1.403 . S
C1847 C1844 1.403 . S
C1847 C1848 1.524 . S
C1847 C1851 1.400 . S
C1848 H1833 0.960 . S
C1848 H1834 0.960 . S
C1848 H1835 0.960 . S
C1848 C1847 1.524 . S
C1849 C1846 1.403 . S
C1849 C1850 1.392 . S
C1849 C1853 1.495 . S
C1850 C1849 1.392 . S
C1850 C1851 1.385 . S
C1850 C1852 1.478 . S
C1851 H1845 0.930 . S
C1851 C1847 1.400 . S
C1851 C1850 1.385 . S
C1852 C1850 1.478 . S
C1852 C1854 1.381 . S
C1852 C1858 1.383 . S
C1853 C1849 1.495 . S
C1853 H1859 0.959 . S
C1853 H1860 0.961 . S
C1853 H1861 0.960 . S
C1854 C1852 1.381 . S
C1854 C1855 1.394 . S
C1854 H1862 0.930 . S
C1855 C1854 1.394 . S
C1855 C1856 1.383 . S
C1855 H1863 0.929 . S
C1856 C1855 1.383 . S
C1856 C1857 1.377 . S
C1857 H1841 0.930 . S
C1857 C1856 1.377 . S
C1857 C1858 1.379 . S
C1858 H1842 0.931 . S
C1858 C1852 1.383 . S
C1858 C1857 1.379 . S
H1859 C1853 0.959 . S
H1860 C1853 0.961 . S
H1861 C1853 0.960 . S
H1862 C1854 0.930 . S
H1863 C1855 0.929 . S
H1864 C1872 0.929 . S
H1865 C1874 0.930 . S
H1866 C1876 0.930 . S
H1867 C1879 0.929 . S
H1868 C1882 0.930 . S
H1869 C1884 0.960 . S
H1870 C1884 0.960 . S
H1871 C1884 0.960 . S
C1872 H1864 0.929 . S
C1872 C1873 1.377 . S
C1872 C1874 1.384 . S
C1873 C1872 1.377 . S
C1873 C1879 1.390 . S
C1874 H1865 0.930 . S
C1874 C1872 1.384 . S
C1874 C1875 1.372 . S
C1875 C1874 1.372 . S
C1875 C1876 1.400 . S
C1875 C1880 1.490 . S
C1876 H1866 0.930 . S
C1876 C1875 1.400 . S
C1876 C1879 1.386 . S
H1877 C1893 0.930 . S
H1878 C1894 0.931 . S
C1879 H1867 0.929 . S
C1879 C1873 1.390 . S
C1879 C1876 1.386 . S
C1880 C1875 1.490 . S
C1880 C1882 1.395 . S
C1880 C1883 1.403 . S
H1881 C1887 0.930 . S
C1882 H1868 0.930 . S
C1882 C1880 1.395 . S
C1882 C1885 1.403 . S
C1883 C1880 1.403 . S
C1883 C1884 1.524 . S
C1883 C1887 1.400 . S
C1884 H1869 0.960 . S
C1884 H1870 0.960 . S
C1884 H1871 0.960 . S
C1884 C1883 1.524 . S
C1885 C1882 1.403 . S
C1885 C1886 1.392 . S
C1885 C1889 1.495 . S
C1886 C1885 1.392 . S
C1886 C1887 1.385 . S
C1886 C1888 1.478 . S
C1887 H1881 0.930 . S
C1887 C1883 1.400 . S
C1887 C1886 1.385 . S
C1888 C1886 1.478 . S
C1888 C1890 1.381 . S
C1888 C1894 1.383 . S
C1889 C1885 1.495 . S
C1889 H1895 0.959 . S
C1889 H1896 0.961 . S
C1889 H1897 0.960 . S
C1890 C1888 1.381 . S
C1890 C1891 1.394 . S
C1890 H1898 0.930 . S
C1891 C1890 1.394 . S
C1891 C1892 1.383 . S
C1891 H1899 0.929 . S
C1892 C1891 1.383 . S
C1892 C1893 1.377 . S
C1893 H1877 0.930 . S
C1893 C1892 1.377 . S
C1893 C1894 1.379 . S
C1894 H1878 0.931 . S
C1894 C1888 1.383 . S
C1894 C1893 1.379 . S
H1895 C1889 0.959 . S
H1896 C1889 0.961 . S
H1897 C1889 0.960 . S
H1898 C1890 0.930 . S
H1899 C1891 0.929 . S
H1900 C1908 0.929 . S
H1901 C1910 0.930 . S
H1902 C1912 0.930 . S
H1903 C1915 0.929 . S
H1904 C1918 0.930 . S
H1905 C1920 0.960 . S
H1906 C1920 0.960 . S
H1907 C1920 0.960 . S
C1908 H1900 0.929 . S
C1908 C1909 1.377 . S
C1908 C1910 1.384 . S
C1909 C1908 1.377 . S
C1909 C1915 1.390 . S
C1910 H1901 0.930 . S
C1910 C1908 1.384 . S
C1910 C1911 1.372 . S
C1911 C1910 1.372 . S
C1911 C1912 1.400 . S
C1911 C1916 1.490 . S
C1912 H1902 0.930 . S
C1912 C1911 1.400 . S
C1912 C1915 1.386 . S
H1913 C1929 0.930 . S
H1914 C1930 0.931 . S
C1915 H1903 0.929 . S
C1915 C1909 1.390 . S
C1915 C1912 1.386 . S
C1916 C1911 1.490 . S
C1916 C1918 1.395 . S
C1916 C1919 1.403 . S
H1917 C1923 0.930 . S
C1918 H1904 0.930 . S
C1918 C1916 1.395 . S
C1918 C1921 1.403 . S
C1919 C1916 1.403 . S
C1919 C1920 1.524 . S
C1919 C1923 1.400 . S
C1920 H1905 0.960 . S
C1920 H1906 0.960 . S
C1920 H1907 0.960 . S
C1920 C1919 1.524 . S
C1921 C1918 1.403 . S
C1921 C1922 1.392 . S
C1921 C1925 1.495 . S
C1922 C1921 1.392 . S
C1922 C1923 1.385 . S
C1922 C1924 1.478 . S
C1923 H1917 0.930 . S
C1923 C1919 1.400 . S
C1923 C1922 1.385 . S
C1924 C1922 1.478 . S
C1924 C1926 1.381 . S
C1924 C1930 1.383 . S
C1925 C1921 1.495 . S
C1925 H1931 0.959 . S
C1925 H1932 0.961 . S
C1925 H1933 0.960 . S
C1926 C1924 1.381 . S
C1926 C1927 1.394 . S
C1926 H1934 0.930 . S
C1927 C1926 1.394 . S
C1927 C1928 1.383 . S
C1927 H1935 0.929 . S
C1928 C1927 1.383 . S
C1928 C1929 1.377 . S
C1929 H1913 0.930 . S
C1929 C1928 1.377 . S
C1929 C1930 1.379 . S
C1930 H1914 0.931 . S
C1930 C1924 1.383 . S
C1930 C1929 1.379 . S
H1931 C1925 0.959 . S
H1932 C1925 0.961 . S
H1933 C1925 0.960 . S
H1934 C1926 0.930 . S
H1935 C1927 0.929 . S
H1936 C1944 0.929 . S
H1937 C1946 0.930 . S
H1938 C1948 0.930 . S
H1939 C1951 0.929 . S
H1940 C1954 0.930 . S
H1941 C1956 0.960 . S
H1942 C1956 0.960 . S
H1943 C1956 0.960 . S
C1944 H1936 0.929 . S
C1944 C1945 1.377 . S
C1944 C1946 1.384 . S
C1945 C1944 1.377 . S
C1945 C1951 1.390 . S
C1946 H1937 0.930 . S
C1946 C1944 1.384 . S
C1946 C1947 1.372 . S
C1947 C1946 1.372 . S
C1947 C1948 1.400 . S
C1947 C1952 1.490 . S
C1948 H1938 0.930 . S
C1948 C1947 1.400 . S
C1948 C1951 1.386 . S
H1949 C1965 0.930 . S
H1950 C1966 0.931 . S
C1951 H1939 0.929 . S
C1951 C1945 1.390 . S
C1951 C1948 1.386 . S
C1952 C1947 1.490 . S
C1952 C1954 1.395 . S
C1952 C1955 1.403 1_554 S
H1953 C1959 0.930 . S
C1954 H1940 0.930 . S
C1954 C1952 1.395 . S
C1954 C1957 1.403 . S
C1955 C1952 1.403 1_556 S
C1955 C1956 1.524 . S
C1955 C1959 1.400 . S
C1956 H1941 0.960 . S
C1956 H1942 0.960 . S
C1956 H1943 0.960 . S
C1956 C1955 1.524 . S
C1957 C1954 1.403 . S
C1957 C1958 1.392 1_554 S
C1957 C1961 1.495 . S
C1958 C1957 1.392 1_556 S
C1958 C1959 1.385 . S
C1958 C1960 1.478 . S
C1959 H1953 0.930 . S
C1959 C1955 1.400 . S
C1959 C1958 1.385 . S
C1960 C1958 1.478 . S
C1960 C1962 1.381 . S
C1960 C1966 1.383 . S
C1961 C1957 1.495 . S
C1961 H1967 0.959 . S
C1961 H1968 0.961 . S
C1961 H1969 0.960 . S
C1962 C1960 1.381 . S
C1962 C1963 1.394 . S
C1962 H1970 0.930 . S
C1963 C1962 1.394 . S
C1963 C1964 1.383 . S
C1963 H1971 0.929 . S
C1964 C1963 1.383 . S
C1964 C1965 1.377 . S
C1965 H1949 0.930 . S
C1965 C1964 1.377 . S
C1965 C1966 1.379 . S
C1966 H1950 0.931 . S
C1966 C1960 1.383 . S
C1966 C1965 1.379 . S
H1967 C1961 0.959 . S
H1968 C1961 0.961 . S
H1969 C1961 0.960 . S
H1970 C1962 0.930 . S
H1971 C1963 0.929 . S
H1972 C1980 0.929 . S
H1973 C1982 0.930 . S
H1974 C1984 0.930 . S
H1975 C1987 0.929 . S
H1976 C1990 0.930 . S
H1977 C1992 0.960 . S
H1978 C1992 0.960 . S
H1979 C1992 0.960 . S
C1980 H1972 0.929 . S
C1980 C1981 1.377 . S
C1980 C1982 1.384 . S
C1981 C1980 1.377 . S
C1981 C1987 1.390 . S
C1982 H1973 0.930 . S
C1982 C1980 1.384 . S
C1982 C1983 1.372 . S
C1983 C1982 1.372 . S
C1983 C1984 1.400 . S
C1983 C1988 1.490 . S
C1984 H1974 0.930 . S
C1984 C1983 1.400 . S
C1984 C1987 1.386 . S
H1985 C2001 0.930 . S
H1986 C2002 0.931 . S
C1987 H1975 0.929 . S
C1987 C1981 1.390 . S
C1987 C1984 1.386 . S
C1988 C1983 1.490 . S
C1988 C1990 1.395 . S
C1988 C1991 1.403 . S
H1989 C1995 0.930 . S
C1990 H1976 0.930 . S
C1990 C1988 1.395 . S
C1990 C1993 1.403 . S
C1991 C1988 1.403 . S
C1991 C1992 1.524 . S
C1991 C1995 1.400 . S
C1992 H1977 0.960 . S
C1992 H1978 0.960 . S
C1992 H1979 0.960 . S
C1992 C1991 1.524 . S
C1993 C1990 1.403 . S
C1993 C1994 1.392 . S
C1993 C1997 1.495 . S
C1994 C1993 1.392 . S
C1994 C1995 1.385 . S
C1994 C1996 1.478 . S
C1995 H1989 0.930 . S
C1995 C1991 1.400 . S
C1995 C1994 1.385 . S
C1996 C1994 1.478 . S
C1996 C1998 1.381 . S
C1996 C2002 1.383 . S
C1997 C1993 1.495 . S
C1997 H2003 0.959 . S
C1997 H2004 0.961 . S
C1997 H2005 0.960 . S
C1998 C1996 1.381 . S
C1998 C1999 1.394 . S
C1998 H2006 0.930 . S
C1999 C1998 1.394 . S
C1999 C2000 1.383 . S
C1999 H2007 0.929 . S
C2000 C1999 1.383 . S
C2000 C2001 1.377 . S
C2001 H1985 0.930 . S
C2001 C2000 1.377 . S
C2001 C2002 1.379 . S
C2002 H1986 0.931 . S
C2002 C1996 1.383 . S
C2002 C2001 1.379 . S
H2003 C1997 0.959 . S
H2004 C1997 0.961 . S
H2005 C1997 0.960 . S
H2006 C1998 0.930 . S
H2007 C1999 0.929 . S
H2008 C2016 0.929 . S
H2009 C2018 0.930 . S
H2010 C2020 0.930 . S
H2011 C2023 0.929 . S
H2012 C2026 0.930 . S
H2013 C2028 0.960 . S
H2014 C2028 0.960 . S
H2015 C2028 0.960 . S
C2016 H2008 0.929 . S
C2016 C2017 1.377 . S
C2016 C2018 1.384 . S
C2017 C2016 1.377 . S
C2017 C2023 1.390 . S
C2018 H2009 0.930 . S
C2018 C2016 1.384 . S
C2018 C2019 1.372 . S
C2019 C2018 1.372 . S
C2019 C2020 1.400 . S
C2019 C2024 1.490 . S
C2020 H2010 0.930 . S
C2020 C2019 1.400 . S
C2020 C2023 1.386 . S
H2021 C2037 0.930 . S
H2022 C2038 0.931 . S
C2023 H2011 0.929 . S
C2023 C2017 1.390 . S
C2023 C2020 1.386 . S
C2024 C2019 1.490 . S
C2024 C2026 1.395 . S
C2024 C2027 1.403 . S
H2025 C2031 0.930 . S
C2026 H2012 0.930 . S
C2026 C2024 1.395 . S
C2026 C2029 1.403 . S
C2027 C2024 1.403 . S
C2027 C2028 1.524 . S
C2027 C2031 1.400 . S
C2028 H2013 0.960 . S
C2028 H2014 0.960 . S
C2028 H2015 0.960 . S
C2028 C2027 1.524 . S
C2029 C2026 1.403 . S
C2029 C2030 1.392 . S
C2029 C2033 1.495 . S
C2030 C2029 1.392 . S
C2030 C2031 1.385 . S
C2030 C2032 1.478 . S
C2031 H2025 0.930 . S
C2031 C2027 1.400 . S
C2031 C2030 1.385 . S
C2032 C2030 1.478 . S
C2032 C2034 1.381 . S
C2032 C2038 1.383 . S
C2033 C2029 1.495 . S
C2033 H2039 0.959 . S
C2033 H2040 0.961 . S
C2033 H2041 0.960 . S
C2034 C2032 1.381 . S
C2034 C2035 1.394 . S
C2034 H2042 0.930 . S
C2035 C2034 1.394 . S
C2035 C2036 1.383 . S
C2035 H2043 0.929 . S
C2036 C2035 1.383 . S
C2036 C2037 1.377 . S
C2037 H2021 0.930 . S
C2037 C2036 1.377 . S
C2037 C2038 1.379 . S
C2038 H2022 0.931 . S
C2038 C2032 1.383 . S
C2038 C2037 1.379 . S
H2039 C2033 0.959 . S
H2040 C2033 0.961 . S
H2041 C2033 0.960 . S
H2042 C2034 0.930 . S
H2043 C2035 0.929 . S
H2044 C2052 0.929 . S
H2045 C2054 0.930 . S
H2046 C2056 0.930 . S
H2047 C2059 0.929 . S
H2048 C2062 0.930 . S
H2049 C2064 0.960 . S
H2050 C2064 0.960 . S
H2051 C2064 0.960 . S
C2052 H2044 0.929 . S
C2052 C2053 1.377 . S
C2052 C2054 1.384 . S
C2053 C2052 1.377 . S
C2053 C2059 1.390 . S
C2054 H2045 0.930 . S
C2054 C2052 1.384 . S
C2054 C2055 1.372 . S
C2055 C2054 1.372 . S
C2055 C2056 1.400 . S
C2055 C2060 1.490 . S
C2056 H2046 0.930 . S
C2056 C2055 1.400 . S
C2056 C2059 1.386 . S
H2057 C2073 0.930 . S
H2058 C2074 0.931 . S
C2059 H2047 0.929 . S
C2059 C2053 1.390 . S
C2059 C2056 1.386 . S
C2060 C2055 1.490 . S
C2060 C2062 1.395 . S
C2060 C2063 1.403 . S
H2061 C2067 0.930 . S
C2062 H2048 0.930 . S
C2062 C2060 1.395 . S
C2062 C2065 1.403 . S
C2063 C2060 1.403 . S
C2063 C2064 1.524 . S
C2063 C2067 1.400 . S
C2064 H2049 0.960 . S
C2064 H2050 0.960 . S
C2064 H2051 0.960 . S
C2064 C2063 1.524 . S
C2065 C2062 1.403 . S
C2065 C2066 1.392 . S
C2065 C2069 1.495 . S
C2066 C2065 1.392 . S
C2066 C2067 1.385 . S
C2066 C2068 1.478 . S
C2067 H2061 0.930 . S
C2067 C2063 1.400 . S
C2067 C2066 1.385 . S
C2068 C2066 1.478 . S
C2068 C2070 1.381 . S
C2068 C2074 1.383 . S
C2069 C2065 1.495 . S
C2069 H2075 0.959 . S
C2069 H2076 0.961 . S
C2069 H2077 0.960 . S
C2070 C2068 1.381 . S
C2070 C2071 1.394 . S
C2070 H2078 0.930 . S
C2071 C2070 1.394 . S
C2071 C2072 1.383 . S
C2071 H2079 0.929 . S
C2072 C2071 1.383 . S
C2072 C2073 1.377 . S
C2073 H2057 0.930 . S
C2073 C2072 1.377 . S
C2073 C2074 1.379 . S
C2074 H2058 0.931 . S
C2074 C2068 1.383 . S
C2074 C2073 1.379 . S
H2075 C2069 0.959 . S
H2076 C2069 0.961 . S
H2077 C2069 0.960 . S
H2078 C2070 0.930 . S
H2079 C2071 0.929 . S
H2080 C2088 0.929 . S
H2081 C2090 0.930 . S
H2082 C2092 0.930 . S
H2083 C2095 0.929 . S
H2084 C2098 0.930 . S
H2085 C2100 0.960 . S
H2086 C2100 0.960 . S
H2087 C2100 0.960 . S
C2088 H2080 0.929 . S
C2088 C2089 1.377 . S
C2088 C2090 1.384 . S
C2089 C2088 1.377 . S
C2089 C2095 1.390 . S
C2090 H2081 0.930 . S
C2090 C2088 1.384 . S
C2090 C2091 1.372 . S
C2091 C2090 1.372 . S
C2091 C2092 1.400 . S
C2091 C2096 1.490 . S
C2092 H2082 0.930 . S
C2092 C2091 1.400 . S
C2092 C2095 1.386 . S
H2093 C2109 0.930 . S
H2094 C2110 0.931 . S
C2095 H2083 0.929 . S
C2095 C2089 1.390 . S
C2095 C2092 1.386 . S
C2096 C2091 1.490 . S
C2096 C2098 1.395 . S
C2096 C2099 1.403 . S
H2097 C2103 0.930 . S
C2098 H2084 0.930 . S
C2098 C2096 1.395 . S
C2098 C2101 1.403 1_565 S
C2099 C2096 1.403 . S
C2099 C2100 1.524 . S
C2099 C2103 1.400 1_565 S
C2100 H2085 0.960 . S
C2100 H2086 0.960 . S
C2100 H2087 0.960 . S
C2100 C2099 1.524 . S
C2101 C2098 1.403 1_545 S
C2101 C2102 1.392 . S
C2101 C2105 1.495 . S
C2102 C2101 1.392 . S
C2102 C2103 1.385 . S
C2102 C2104 1.478 . S
C2103 H2097 0.930 . S
C2103 C2099 1.400 1_545 S
C2103 C2102 1.385 . S
C2104 C2102 1.478 . S
C2104 C2106 1.381 . S
C2104 C2110 1.383 . S
C2105 C2101 1.495 . S
C2105 H2111 0.932 1_545 S
C2105 H2112 0.961 . S
C2105 H2113 0.960 . S
C2106 C2104 1.381 . S
C2106 C2107 1.394 . S
C2106 H2114 0.930 . S
C2107 C2106 1.394 . S
C2107 C2108 1.383 . S
C2107 H2115 0.929 . S
C2108 C2107 1.383 . S
C2108 C2109 1.377 . S
C2109 H2093 0.930 . S
C2109 C2108 1.377 . S
C2109 C2110 1.379 . S
C2110 H2094 0.931 . S
C2110 C2104 1.383 . S
C2110 C2109 1.379 . S
H2111 C2105 0.932 1_565 S
H2112 C2105 0.961 . S
H2113 C2105 0.960 . S
H2114 C2106 0.930 . S
H2115 C2107 0.929 . S
H2116 C2124 0.929 . S
H2117 C2126 0.930 . S
H2118 C2128 0.930 . S
H2119 C2131 0.929 . S
H2120 C2134 0.930 . S
H2121 C2136 0.960 . S
H2122 C2136 0.960 . S
H2123 C2136 0.960 . S
C2124 H2116 0.929 . S
C2124 C2125 1.377 . S
C2124 C2126 1.384 . S
C2125 C2124 1.377 . S
C2125 C2131 1.390 . S
C2126 H2117 0.930 . S
C2126 C2124 1.384 . S
C2126 C2127 1.372 . S
C2127 C2126 1.372 . S
C2127 C2128 1.400 . S
C2127 C2132 1.490 . S
C2128 H2118 0.930 . S
C2128 C2127 1.400 . S
C2128 C2131 1.386 . S
H2129 C2145 0.930 . S
H2130 C2146 0.931 . S
C2131 H2119 0.929 . S
C2131 C2125 1.390 . S
C2131 C2128 1.386 . S
C2132 C2127 1.490 . S
C2132 C2134 1.395 . S
C2132 C2135 1.403 . S
H2133 C2139 0.930 . S
C2134 H2120 0.930 . S
C2134 C2132 1.395 . S
C2134 C2137 1.403 . S
C2135 C2132 1.403 . S
C2135 C2136 1.524 . S
C2135 C2139 1.400 . S
C2136 H2121 0.960 . S
C2136 H2122 0.960 . S
C2136 H2123 0.960 . S
C2136 C2135 1.524 . S
C2137 C2134 1.403 . S
C2137 C2138 1.392 . S
C2137 C2141 1.495 . S
C2138 C2137 1.392 . S
C2138 C2139 1.385 . S
C2138 C2140 1.478 . S
C2139 H2133 0.930 . S
C2139 C2135 1.400 . S
C2139 C2138 1.385 . S
C2140 C2138 1.478 . S
C2140 C2142 1.381 . S
C2140 C2146 1.383 . S
C2141 C2137 1.495 . S
C2141 H2147 0.959 . S
C2141 H2148 0.961 . S
C2141 H2149 0.960 . S
C2142 C2140 1.381 . S
C2142 C2143 1.394 . S
C2142 H2150 0.930 . S
C2143 C2142 1.394 . S
C2143 C2144 1.383 . S
C2143 H2151 0.929 . S
C2144 C2143 1.383 . S
C2144 C2145 1.377 . S
C2145 H2129 0.930 . S
C2145 C2144 1.377 . S
C2145 C2146 1.379 . S
C2146 H2130 0.931 . S
C2146 C2140 1.383 . S
C2146 C2145 1.379 . S
H2147 C2141 0.959 . S
H2148 C2141 0.961 . S
H2149 C2141 0.960 . S
H2150 C2142 0.930 . S
H2151 C2143 0.929 . S
H2152 C2160 0.929 . S
H2153 C2162 0.930 . S
H2154 C2164 0.930 . S
H2155 C2167 0.929 . S
H2156 C2170 0.930 . S
H2157 C2172 0.960 . S
H2158 C2172 0.960 . S
H2159 C2172 0.960 . S
C2160 H2152 0.929 . S
C2160 C2161 1.377 . S
C2160 C2162 1.384 . S
C2161 C2160 1.377 . S
C2161 C2167 1.390 . S
C2162 H2153 0.930 . S
C2162 C2160 1.384 . S
C2162 C2163 1.372 . S
C2163 C2162 1.372 . S
C2163 C2164 1.400 . S
C2163 C2168 1.490 . S
C2164 H2154 0.930 . S
C2164 C2163 1.400 . S
C2164 C2167 1.386 . S
H2165 C2181 0.930 . S
H2166 C2182 0.931 1_554 S
C2167 H2155 0.929 . S
C2167 C2161 1.390 . S
C2167 C2164 1.386 . S
C2168 C2163 1.490 . S
C2168 C2170 1.395 . S
C2168 C2171 1.403 . S
H2169 C2175 0.930 1_556 S
C2170 H2156 0.930 . S
C2170 C2168 1.395 . S
C2170 C2173 1.403 1_565 S
C2171 C2168 1.403 . S
C2171 C2172 1.524 . S
C2171 C2175 1.400 1_565 S
C2172 H2157 0.960 . S
C2172 H2158 0.960 . S
C2172 H2159 0.960 . S
C2172 C2171 1.524 . S
C2173 C2170 1.403 1_545 S
C2173 C2174 1.392 1_554 S
C2173 C2177 1.495 1_554 S
C2174 C2173 1.392 1_556 S
C2174 C2175 1.385 1_556 S
C2174 C2176 1.478 . S
C2175 H2169 0.930 1_554 S
C2175 C2171 1.400 1_545 S
C2175 C2174 1.385 1_554 S
C2176 C2174 1.478 . S
C2176 C2178 1.381 . S
C2176 C2182 1.383 . S
C2177 C2173 1.495 1_556 S
C2177 H2183 0.960 1_556 S
C2177 H2184 0.961 . S
C2177 H2185 0.960 . S
C2178 C2176 1.381 . S
C2178 C2179 1.394 . S
C2178 H2186 0.930 . S
C2179 C2178 1.394 . S
C2179 C2180 1.383 . S
C2179 H2187 0.929 . S
C2180 C2179 1.383 . S
C2180 C2181 1.377 . S
C2181 H2165 0.930 . S
C2181 C2180 1.377 . S
C2181 C2182 1.379 . S
C2182 H2166 0.931 1_556 S
C2182 C2176 1.383 . S
C2182 C2181 1.379 . S
H2183 C2177 0.960 1_554 S
H2184 C2177 0.961 . S
H2185 C2177 0.960 . S
H2186 C2178 0.930 . S
H2187 C2179 0.929 . S
H2188 C2196 0.929 . S
H2189 C2198 0.930 . S
H2190 C2200 0.930 . S
H2191 C2203 0.929 . S
H2192 C2206 0.930 . S
H2193 C2208 0.960 . S
H2194 C2208 0.960 . S
H2195 C2208 0.960 . S
C2196 H2188 0.929 . S
C2196 C2197 1.377 . S
C2196 C2198 1.384 . S
C2197 C2196 1.377 . S
C2197 C2203 1.390 . S
C2198 H2189 0.930 . S
C2198 C2196 1.384 . S
C2198 C2199 1.372 . S
C2199 C2198 1.372 . S
C2199 C2200 1.400 . S
C2199 C2204 1.490 . S
C2200 H2190 0.930 . S
C2200 C2199 1.400 . S
C2200 C2203 1.386 . S
H2201 C2217 0.930 . S
H2202 C2218 0.931 . S
C2203 H2191 0.929 . S
C2203 C2197 1.390 . S
C2203 C2200 1.386 . S
C2204 C2199 1.490 . S
C2204 C2206 1.395 . S
C2204 C2207 1.403 . S
H2205 C2211 0.930 . S
C2206 H2192 0.930 . S
C2206 C2204 1.395 . S
C2206 C2209 1.403 . S
C2207 C2204 1.403 . S
C2207 C2208 1.524 . S
C2207 C2211 1.400 . S
C2208 H2193 0.960 . S
C2208 H2194 0.960 . S
C2208 H2195 0.960 . S
C2208 C2207 1.524 . S
C2209 C2206 1.403 . S
C2209 C2210 1.392 . S
C2209 C2213 1.495 . S
C2210 C2209 1.392 . S
C2210 C2211 1.385 . S
C2210 C2212 1.478 . S
C2211 H2205 0.930 . S
C2211 C2207 1.400 . S
C2211 C2210 1.385 . S
C2212 C2210 1.478 . S
C2212 C2214 1.381 . S
C2212 C2218 1.383 . S
C2213 C2209 1.495 . S
C2213 H2219 0.959 . S
C2213 H2220 0.961 . S
C2213 H2221 0.960 . S
C2214 C2212 1.381 . S
C2214 C2215 1.394 . S
C2214 H2222 0.930 . S
C2215 C2214 1.394 . S
C2215 C2216 1.383 . S
C2215 H2223 0.929 . S
C2216 C2215 1.383 . S
C2216 C2217 1.377 . S
C2217 H2201 0.930 . S
C2217 C2216 1.377 . S
C2217 C2218 1.379 . S
C2218 H2202 0.931 . S
C2218 C2212 1.383 . S
C2218 C2217 1.379 . S
H2219 C2213 0.959 . S
H2220 C2213 0.961 . S
H2221 C2213 0.960 . S
H2222 C2214 0.930 . S
H2223 C2215 0.929 . S
H2224 C2232 0.929 . S
H2225 C2234 0.930 . S
H2226 C2236 0.930 . S
H2227 C2239 0.929 . S
H2228 C2242 0.930 . S
H2229 C2244 0.960 . S
H2230 C2244 0.960 . S
H2231 C2244 0.960 . S
C2232 H2224 0.929 . S
C2232 C2233 1.377 . S
C2232 C2234 1.384 . S
C2233 C2232 1.377 . S
C2233 C2239 1.390 . S
C2234 H2225 0.930 . S
C2234 C2232 1.384 . S
C2234 C2235 1.372 . S
C2235 C2234 1.372 . S
C2235 C2236 1.400 . S
C2235 C2240 1.490 . S
C2236 H2226 0.930 . S
C2236 C2235 1.400 . S
C2236 C2239 1.386 . S
H2237 C2253 0.930 . S
H2238 C2254 0.931 . S
C2239 H2227 0.929 . S
C2239 C2233 1.390 . S
C2239 C2236 1.386 . S
C2240 C2235 1.490 . S
C2240 C2242 1.395 . S
C2240 C2243 1.403 1_565 S
H2241 C2247 0.930 . S
C2242 H2228 0.930 . S
C2242 C2240 1.395 . S
C2242 C2245 1.403 . S
C2243 C2240 1.403 1_545 S
C2243 C2244 1.524 . S
C2243 C2247 1.400 . S
C2244 H2229 0.960 . S
C2244 H2230 0.960 . S
C2244 H2231 0.960 . S
C2244 C2243 1.524 . S
C2245 C2242 1.403 . S
C2245 C2246 1.392 1_565 S
C2245 C2249 1.495 . S
C2246 C2245 1.392 1_545 S
C2246 C2247 1.385 . S
C2246 C2248 1.478 . S
C2247 H2241 0.930 . S
C2247 C2243 1.400 . S
C2247 C2246 1.385 . S
C2248 C2246 1.478 . S
C2248 C2250 1.381 . S
C2248 C2254 1.383 . S
C2249 C2245 1.495 . S
C2249 H2255 0.959 . S
C2249 H2256 0.961 . S
C2249 H2257 0.943 1_565 S
C2250 C2248 1.381 . S
C2250 C2251 1.394 . S
C2250 H2258 0.930 . S
C2251 C2250 1.394 . S
C2251 C2252 1.383 . S
C2251 H2259 0.929 . S
C2252 C2251 1.383 . S
C2252 C2253 1.377 . S
C2253 H2237 0.930 . S
C2253 C2252 1.377 . S
C2253 C2254 1.379 . S
C2254 H2238 0.931 . S
C2254 C2248 1.383 . S
C2254 C2253 1.379 . S
H2255 C2249 0.959 . S
H2256 C2249 0.961 . S
H2257 C2249 0.943 1_545 S
H2258 C2250 0.930 . S
H2259 C2251 0.929 . S
H2260 C2268 0.929 . S
H2261 C2270 0.930 . S
H2262 C2272 0.930 . S
H2263 C2275 0.929 . S
H2264 C2278 0.930 . S
H2265 C2280 0.960 . S
H2266 C2280 0.960 . S
H2267 C2280 0.960 . S
C2268 H2260 0.929 . S
C2268 C2269 1.377 . S
C2268 C2270 1.384 . S
C2269 C2268 1.377 . S
C2269 C2275 1.390 . S
C2270 H2261 0.930 . S
C2270 C2268 1.384 . S
C2270 C2271 1.372 . S
C2271 C2270 1.372 . S
C2271 C2272 1.400 . S
C2271 C2276 1.490 . S
C2272 H2262 0.930 . S
C2272 C2271 1.400 . S
C2272 C2275 1.386 . S
H2273 C2289 0.930 . S
H2274 C2290 0.931 . S
C2275 H2263 0.929 . S
C2275 C2269 1.390 . S
C2275 C2272 1.386 . S
C2276 C2271 1.490 . S
C2276 C2278 1.395 . S
C2276 C2279 1.403 . S
H2277 C2283 0.930 . S
C2278 H2264 0.930 . S
C2278 C2276 1.395 . S
C2278 C2281 1.403 . S
C2279 C2276 1.403 . S
C2279 C2280 1.524 . S
C2279 C2283 1.400 . S
C2280 H2265 0.960 . S
C2280 H2266 0.960 . S
C2280 H2267 0.960 . S
C2280 C2279 1.524 . S
C2281 C2278 1.403 . S
C2281 C2282 1.392 . S
C2281 C2285 1.495 . S
C2282 C2281 1.392 . S
C2282 C2283 1.385 . S
C2282 C2284 1.478 . S
C2283 H2277 0.930 . S
C2283 C2279 1.400 . S
C2283 C2282 1.385 . S
C2284 C2282 1.478 . S
C2284 C2286 1.381 . S
C2284 C2290 1.383 . S
C2285 C2281 1.495 . S
C2285 H2291 0.959 . S
C2285 H2292 0.961 . S
C2285 H2293 0.960 . S
C2286 C2284 1.381 . S
C2286 C2287 1.394 . S
C2286 H2294 0.930 . S
C2287 C2286 1.394 . S
C2287 C2288 1.383 . S
C2287 H2295 0.929 . S
C2288 C2287 1.383 . S
C2288 C2289 1.377 . S
C2289 H2273 0.930 . S
C2289 C2288 1.377 . S
C2289 C2290 1.379 . S
C2290 H2274 0.931 . S
C2290 C2284 1.383 . S
C2290 C2289 1.379 . S
H2291 C2285 0.959 . S
H2292 C2285 0.961 . S
H2293 C2285 0.960 . S
H2294 C2286 0.930 . S
H2295 C2287 0.929 . S
H2296 C2304 0.929 . S
H2297 C2306 0.930 . S
H2298 C2308 0.930 . S
H2299 C2311 0.929 . S
H2300 C2314 0.930 . S
H2301 C2316 0.960 1_565 S
H2302 C2316 0.960 . S
H2303 C2316 0.960 . S
C2304 H2296 0.929 . S
C2304 C2305 1.377 . S
C2304 C2306 1.384 . S
C2305 C2304 1.377 . S
C2305 C2311 1.390 . S
C2306 H2297 0.930 . S
C2306 C2304 1.384 . S
C2306 C2307 1.372 . S
C2307 C2306 1.372 . S
C2307 C2308 1.400 . S
C2307 C2312 1.490 . S
C2308 H2298 0.930 . S
C2308 C2307 1.400 . S
C2308 C2311 1.386 . S
H2309 C2325 0.930 . S
H2310 C2326 0.931 . S
C2311 H2299 0.929 . S
C2311 C2305 1.390 . S
C2311 C2308 1.386 . S
C2312 C2307 1.490 . S
C2312 C2314 1.395 . S
C2312 C2315 1.403 . S
H2313 C2319 0.930 . S
C2314 H2300 0.930 . S
C2314 C2312 1.395 . S
C2314 C2317 1.418 1_545 S
C2315 C2312 1.403 . S
C2315 C2316 1.524 . S
C2315 C2319 1.400 1_545 S
C2316 H2301 0.960 1_545 S
C2316 H2302 0.960 . S
C2316 H2303 0.960 . S
C2316 C2315 1.524 . S
C2317 C2314 1.418 1_565 S
C2317 C2318 1.391 1_556 S
C2317 C2321 1.482 1_556 S
C2318 C2317 1.391 1_554 S
C2318 C2319 1.385 1_554 S
C2318 C2320 1.478 . S
C2319 H2313 0.930 . S
C2319 C2315 1.400 1_565 S
C2319 C2318 1.385 1_556 S
C2320 C2318 1.478 . S
C2320 C2322 1.381 . S
C2320 C2326 1.383 . S
C2321 C2317 1.482 1_554 S
C2321 H2327 0.959 1_565 S
C2321 H2328 0.961 . S
C2321 H2329 0.960 . S
C2322 C2320 1.381 . S
C2322 C2323 1.394 . S
C2322 H2330 0.930 . S
C2323 C2322 1.394 . S
C2323 C2324 1.383 . S
C2323 H2331 0.929 . S
C2324 C2323 1.383 . S
C2324 C2325 1.377 . S
C2325 H2309 0.930 . S
C2325 C2324 1.377 . S
C2325 C2326 1.379 . S
C2326 H2310 0.931 . S
C2326 C2320 1.383 . S
C2326 C2325 1.379 . S
H2327 C2321 0.959 1_545 S
H2328 C2321 0.961 . S
H2329 C2321 0.960 . S
H2330 C2322 0.930 . S
H2331 C2323 0.929 . S
H2332 C2340 0.929 . S
H2333 C2342 0.930 . S
H2334 C2344 0.930 . S
H2335 C2347 0.929 . S
H2336 C2350 0.930 . S
H2337 C2352 0.960 . S
H2338 C2352 0.960 . S
H2339 C2352 0.960 . S
C2340 H2332 0.929 . S
C2340 C2341 1.377 . S
C2340 C2342 1.384 . S
C2341 C2340 1.377 . S
C2341 C2347 1.390 . S
C2342 H2333 0.930 . S
C2342 C2340 1.384 . S
C2342 C2343 1.372 . S
C2343 C2342 1.372 . S
C2343 C2344 1.400 . S
C2343 C2348 1.490 . S
C2344 H2334 0.930 . S
C2344 C2343 1.400 . S
C2344 C2347 1.386 . S
H2345 C2361 0.930 . S
H2346 C2362 0.931 . S
C2347 H2335 0.929 . S
C2347 C2341 1.390 . S
C2347 C2344 1.386 . S
C2348 C2343 1.490 . S
C2348 C2350 1.395 . S
C2348 C2351 1.403 . S
H2349 C2355 0.930 . S
C2350 H2336 0.930 . S
C2350 C2348 1.395 . S
C2350 C2353 1.403 . S
C2351 C2348 1.403 . S
C2351 C2352 1.524 . S
C2351 C2355 1.400 . S
C2352 H2337 0.960 . S
C2352 H2338 0.960 . S
C2352 H2339 0.960 . S
C2352 C2351 1.524 . S
C2353 C2350 1.403 . S
C2353 C2354 1.392 . S
C2353 C2357 1.495 . S
C2354 C2353 1.392 . S
C2354 C2355 1.385 . S
C2354 C2356 1.478 . S
C2355 H2349 0.930 . S
C2355 C2351 1.400 . S
C2355 C2354 1.385 . S
C2356 C2354 1.478 . S
C2356 C2358 1.381 . S
C2356 C2362 1.383 . S
C2357 C2353 1.495 . S
C2357 H2363 0.959 . S
C2357 H2364 0.961 . S
C2357 H2365 0.960 . S
C2358 C2356 1.381 . S
C2358 C2359 1.394 . S
C2358 H2366 0.930 . S
C2359 C2358 1.394 . S
C2359 C2360 1.383 . S
C2359 H2367 0.929 . S
C2360 C2359 1.383 . S
C2360 C2361 1.377 . S
C2361 H2345 0.930 . S
C2361 C2360 1.377 . S
C2361 C2362 1.379 . S
C2362 H2346 0.931 . S
C2362 C2356 1.383 . S
C2362 C2361 1.379 . S
H2363 C2357 0.959 . S
H2364 C2357 0.961 . S
H2365 C2357 0.960 . S
H2366 C2358 0.930 . S
H2367 C2359 0.929 . S
C649 C5 1.609 . S
C668 C15 1.590 . S
C685 C55 1.547 . S
C704 C45 1.542 . S
C721 C85 1.764 . S
C740 C95 1.742 1_554 S
C757 C135 1.687 . S
C776 C125 1.678 . S
C793 C165 1.546 . S
C812 C175 1.556 . S
C829 C205 1.767 . S
C848 C215 1.780 . S
C865 C245 1.688 . S
C884 C255 1.690 . S
C901 C295 1.610 1_554 S
C920 C285 1.591 . S
C937 C335 1.611 . S
C956 C325 1.610 . S
C973 C375 1.545 . S
C992 C365 1.537 . S
C1009 C415 1.809 1_556 S
C1028 C405 1.808 . S
C1045 C445 1.693 . S
C1064 C455 1.701 . S
C1081 C495 1.539 . S
C1100 C485 1.528 . S
C1117 C535 1.805 . S
C1136 C525 1.819 . S
C1153 C575 1.691 . S
C1172 C565 1.675 . S
C1189 C605 1.611 1_556 S
C1208 C615 1.607 . S
C1225 C19 1.964 . S
C1244 C449 1.965 . S
C1261 C58 1.562 . S
C1280 C608 1.601 . S
C1297 C99 1.966 . S
C1316 C369 2.028 . S
C1333 C138 1.489 . S
C1352 C529 1.515 . S
C1369 C179 1.919 . S
C1388 C528 1.885 . S
C1405 C448 1.476 . S
C1424 C218 1.544 . S
C1441 C259 1.921 . S
C1460 C609 1.893 . S
C1477 C298 1.530 . S
C1496 C368 1.520 . S
C1513 C139 1.919 . S
C1532 C329 1.933 . S
C1549 C59 1.922 . S
C1568 C408 1.872 . S
C1585 C489 2.011 . S
C1604 C219 1.985 . S
C1621 C299 1.964 . S
C1640 C569 1.963 . S
C1657 C328 1.582 . S
C1676 C178 1.539 . S
C1693 C258 1.480 . S
C1712 C409 1.534 . S
C1729 C98 1.523 . S
C1748 C568 1.444 . S
C1765 C18 1.528 . S
C1784 C488 1.532 . S
C1801 C9 1.991 . S
C1820 C169 1.990 . S
C1837 C48 1.709 . S
C1856 C208 1.714 . S
C1873 C89 1.712 . S
C1892 C249 1.701 . S
C1909 C128 1.425 . S
C1928 C288 1.396 . S
C1945 C499 1.959 . S
C1964 C339 1.945 . S
C1981 C539 1.631 . S
C2000 C378 1.595 . S
C2017 C418 1.881 . S
C2036 C579 1.891 . S
C2053 C618 1.462 . S
C2072 C458 1.486 . S
C2089 C49 1.998 . S
C2108 C289 1.982 . S
C2125 C168 1.714 . S
C2144 C88 1.720 . S
C2161 C209 1.712 . S
C2180 C129 1.701 . S
C2197 C8 1.416 . S
C2216 C248 1.415 . S
C2233 C619 1.954 . S
C2252 C379 1.956 . S
C2269 C498 1.610 . S
C2288 C419 1.616 . S
C2305 C538 1.879 . S
C2324 C459 1.878 . S
C2341 C578 1.481 . S
C2360 C338 1.441 . S
