# Generated by pormake.
# Topology wiv, (6)-cn, num edge types: 1
# Building blocks:
#     Node 0, Type 0, BuildingBlock: MIFKUJ_clean_sbu_0, # of connection points: 6
#     Node 1, Type 0, BuildingBlock: MIFKUJ_clean_sbu_0, # of connection points: 6
#     Node 2, Type 0, BuildingBlock: MIFKUJ_clean_sbu_0, # of connection points: 6
#     Node 3, Type 0, BuildingBlock: MIFKUJ_clean_sbu_0, # of connection points: 6
#     Node 4, Type 0, BuildingBlock: MIFKUJ_clean_sbu_0, # of connection points: 6
#     Node 5, Type 0, BuildingBlock: MIFKUJ_clean_sbu_0, # of connection points: 6
#     Node 6, Type 0, BuildingBlock: MIFKUJ_clean_sbu_0, # of connection points: 6
#     Node 7, Type 0, BuildingBlock: MIFKUJ_clean_sbu_0, # of connection points: 6
#     Node 8, Type 0, BuildingBlock: MIFKUJ_clean_sbu_0, # of connection points: 6
#     Node 9, Type 0, BuildingBlock: MIFKUJ_clean_sbu_0, # of connection points: 6
#     Node 10, Type 0, BuildingBlock: MIFKUJ_clean_sbu_0, # of connection points: 6
#     Node 11, Type 0, BuildingBlock: MIFKUJ_clean_sbu_0, # of connection points: 6
#     Node 12, Type 0, BuildingBlock: MIFKUJ_clean_sbu_0, # of connection points: 6
#     Node 13, Type 0, BuildingBlock: MIFKUJ_clean_sbu_0, # of connection points: 6
#     Node 14, Type 0, BuildingBlock: MIFKUJ_clean_sbu_0, # of connection points: 6
#     Node 15, Type 0, BuildingBlock: MIFKUJ_clean_sbu_0, # of connection points: 6
#     Edge 16, Type (0, 0), BuildingBlock: CIFDUS_clean_linker_0, # of connection points: 2
#     Edge 17, Type (0, 0), BuildingBlock: CIFDUS_clean_linker_0, # of connection points: 2
#     Edge 18, Type (0, 0), BuildingBlock: CIFDUS_clean_linker_0, # of connection points: 2
#     Edge 19, Type (0, 0), BuildingBlock: CIFDUS_clean_linker_0, # of connection points: 2
#     Edge 20, Type (0, 0), BuildingBlock: CIFDUS_clean_linker_0, # of connection points: 2
#     Edge 21, Type (0, 0), BuildingBlock: CIFDUS_clean_linker_0, # of connection points: 2
#     Edge 22, Type (0, 0), BuildingBlock: CIFDUS_clean_linker_0, # of connection points: 2
#     Edge 23, Type (0, 0), BuildingBlock: CIFDUS_clean_linker_0, # of connection points: 2
#     Edge 24, Type (0, 0), BuildingBlock: CIFDUS_clean_linker_0, # of connection points: 2
#     Edge 25, Type (0, 0), BuildingBlock: CIFDUS_clean_linker_0, # of connection points: 2
#     Edge 26, Type (0, 0), BuildingBlock: CIFDUS_clean_linker_0, # of connection points: 2
#     Edge 27, Type (0, 0), BuildingBlock: CIFDUS_clean_linker_0, # of connection points: 2
#     Edge 28, Type (0, 0), BuildingBlock: CIFDUS_clean_linker_0, # of connection points: 2
#     Edge 29, Type (0, 0), BuildingBlock: CIFDUS_clean_linker_0, # of connection points: 2
#     Edge 30, Type (0, 0), BuildingBlock: CIFDUS_clean_linker_0, # of connection points: 2
#     Edge 31, Type (0, 0), BuildingBlock: CIFDUS_clean_linker_0, # of connection points: 2
#     Edge 32, Type (0, 0), BuildingBlock: CIFDUS_clean_linker_0, # of connection points: 2
#     Edge 33, Type (0, 0), BuildingBlock: CIFDUS_clean_linker_0, # of connection points: 2
#     Edge 34, Type (0, 0), BuildingBlock: CIFDUS_clean_linker_0, # of connection points: 2
#     Edge 35, Type (0, 0), BuildingBlock: CIFDUS_clean_linker_0, # of connection points: 2
#     Edge 36, Type (0, 0), BuildingBlock: CIFDUS_clean_linker_0, # of connection points: 2
#     Edge 37, Type (0, 0), BuildingBlock: CIFDUS_clean_linker_0, # of connection points: 2
#     Edge 38, Type (0, 0), BuildingBlock: CIFDUS_clean_linker_0, # of connection points: 2
#     Edge 39, Type (0, 0), BuildingBlock: CIFDUS_clean_linker_0, # of connection points: 2
#     Edge 40, Type (0, 0), BuildingBlock: CIFDUS_clean_linker_0, # of connection points: 2
#     Edge 41, Type (0, 0), BuildingBlock: CIFDUS_clean_linker_0, # of connection points: 2
#     Edge 42, Type (0, 0), BuildingBlock: CIFDUS_clean_linker_0, # of connection points: 2
#     Edge 43, Type (0, 0), BuildingBlock: CIFDUS_clean_linker_0, # of connection points: 2
#     Edge 44, Type (0, 0), BuildingBlock: CIFDUS_clean_linker_0, # of connection points: 2
#     Edge 45, Type (0, 0), BuildingBlock: CIFDUS_clean_linker_0, # of connection points: 2
#     Edge 46, Type (0, 0), BuildingBlock: CIFDUS_clean_linker_0, # of connection points: 2
#     Edge 47, Type (0, 0), BuildingBlock: CIFDUS_clean_linker_0, # of connection points: 2
#     Edge 48, Type (0, 0), BuildingBlock: CIFDUS_clean_linker_0, # of connection points: 2
#     Edge 49, Type (0, 0), BuildingBlock: CIFDUS_clean_linker_0, # of connection points: 2
#     Edge 50, Type (0, 0), BuildingBlock: CIFDUS_clean_linker_0, # of connection points: 2
#     Edge 51, Type (0, 0), BuildingBlock: CIFDUS_clean_linker_0, # of connection points: 2
#     Edge 52, Type (0, 0), BuildingBlock: CIFDUS_clean_linker_0, # of connection points: 2
#     Edge 53, Type (0, 0), BuildingBlock: CIFDUS_clean_linker_0, # of connection points: 2
#     Edge 54, Type (0, 0), BuildingBlock: CIFDUS_clean_linker_0, # of connection points: 2
#     Edge 55, Type (0, 0), BuildingBlock: CIFDUS_clean_linker_0, # of connection points: 2
#     Edge 56, Type (0, 0), BuildingBlock: CIFDUS_clean_linker_0, # of connection points: 2
#     Edge 57, Type (0, 0), BuildingBlock: CIFDUS_clean_linker_0, # of connection points: 2
#     Edge 58, Type (0, 0), BuildingBlock: CIFDUS_clean_linker_0, # of connection points: 2
#     Edge 59, Type (0, 0), BuildingBlock: CIFDUS_clean_linker_0, # of connection points: 2
#     Edge 60, Type (0, 0), BuildingBlock: CIFDUS_clean_linker_0, # of connection points: 2
#     Edge 61, Type (0, 0), BuildingBlock: CIFDUS_clean_linker_0, # of connection points: 2
#     Edge 62, Type (0, 0), BuildingBlock: CIFDUS_clean_linker_0, # of connection points: 2
#     Edge 63, Type (0, 0), BuildingBlock: CIFDUS_clean_linker_0, # of connection points: 2
# Relax obj value: 0.041
# Max RMSD: 0.120
# Mean RMSD: 0.120
data_MOF--net-wiv--node1-MIFKUJ_clean_sbu_0--edge1-CIFDUS_clean_linker_0
_symmetry_space_group_name_H-M    P1
_symmetry_Int_Tables_number       1
_symmetry_cell_setting            triclinic
loop_
_symmetry_equiv_pos_as_xyz
'x, y, z'
_cell_length_a     52.214811
_cell_length_b     52.134257
_cell_length_c     16.482947
_cell_angle_alpha  90.008318
_cell_angle_beta   89.970242
_cell_angle_gamma 90.032306
loop_
_atom_site_label
_atom_site_type_symbol
_atom_site_fract_x
_atom_site_fract_y
_atom_site_fract_z
_atom_type_partial_charge
Zn0 Zn 0.38312 0.12155 0.03579 0.0
Zn1 Zn 0.37542 0.12876 0.21515 0.0
C2 C 0.33304 0.10548 0.99009 0.0
O3 O 0.34606 0.08516 0.96718 0.0
C4 C 0.42768 0.14032 0.25723 0.0
O5 O 0.41639 0.15529 0.31041 0.0
O6 O 0.39386 0.11647 0.91945 0.0
O7 O 0.39559 0.15641 0.07 0.0
O8 O 0.36399 0.16069 0.15704 0.0
C9 C 0.38364 0.13131 0.86748 0.0
O10 O 0.36877 0.14996 0.89308 0.0
O11 O 0.34464 0.12333 0.02763 0.0
C12 C 0.37721 0.118 0.38509 0.0
O13 O 0.39146 0.09898 0.35863 0.0
O14 O 0.36717 0.13322 0.33387 0.0
O15 O 0.36121 0.09441 0.18181 0.0
O16 O 0.39357 0.0899 0.09807 0.0
O17 O 0.41412 0.12727 0.2082 0.0
C18 C 0.38001 0.17071 0.10833 0.0
C19 C 0.37721 0.08002 0.14585 0.0
Zn20 Zn 0.13225 0.62354 0.78947 0.0
Zn21 Zn 0.12357 0.61715 0.97162 0.0
C22 C 0.15285 0.57216 0.77764 0.0
O23 O 0.17445 0.58444 0.76499 0.0
C24 C 0.10131 0.66616 0.00506 0.0
O25 O 0.08068 0.65203 0.01442 0.0
O26 O 0.13772 0.63156 0.67189 0.0
O27 O 0.09697 0.63557 0.8172 0.0
O28 O 0.09325 0.60456 0.90651 0.0
C29 C 0.12415 0.61925 0.62109 0.0
O30 O 0.10675 0.60315 0.64811 0.0
O31 O 0.13261 0.58479 0.79307 0.0
C32 C 0.13319 0.61662 0.13807 0.0
O33 O 0.1508 0.63262 0.11182 0.0
O34 O 0.11864 0.60571 0.08673 0.0
O35 O 0.15971 0.60752 0.94181 0.0
O36 O 0.16209 0.63812 0.85077 0.0
O37 O 0.12196 0.65564 0.98144 0.0
C38 C 0.08306 0.61958 0.85503 0.0
C39 C 0.17292 0.62391 0.90301 0.0
Zn40 Zn 0.62617 0.88323 0.07467 0.0
Zn41 Zn 0.62773 0.87314 0.26088 0.0
C42 C 0.67629 0.90172 0.03809 0.0
O43 O 0.66346 0.9233 0.03234 0.0
C44 C 0.57573 0.8623 0.30286 0.0
O45 O 0.58738 0.84649 0.35263 0.0
O46 O 0.61461 0.88948 0.96136 0.0
O47 O 0.61291 0.84782 0.10198 0.0
O48 O 0.63934 0.84129 0.20373 0.0
C49 C 0.62385 0.87396 0.90976 0.0
O50 O 0.63827 0.85496 0.93531 0.0
O51 O 0.6647 0.88158 0.06161 0.0
C52 C 0.62642 0.88346 0.42825 0.0
O53 O 0.61298 0.90299 0.4014 0.0
O54 O 0.63562 0.86757 0.37772 0.0
O55 O 0.64343 0.90743 0.23665 0.0
O56 O 0.61635 0.91503 0.13769 0.0
O57 O 0.58895 0.87561 0.25347 0.0
C58 C 0.62555 0.83257 0.14668 0.0
C59 C 0.63062 0.92319 0.19447 0.0
Zn60 Zn 0.87731 0.36934 0.72664 0.0
Zn61 Zn 0.88298 0.37542 0.91376 0.0
C62 C 0.85442 0.4181 0.69997 0.0
O63 O 0.83822 0.40308 0.6617 0.0
C64 C 0.8971 0.32862 0.99633 0.0
O65 O 0.91014 0.34481 0.04124 0.0
O66 O 0.87343 0.36218 0.60755 0.0
O67 O 0.91268 0.35836 0.7584 0.0
O68 O 0.91473 0.38776 0.85383 0.0
C69 C 0.88483 0.37648 0.5566 0.0
O70 O 0.90023 0.39456 0.58327 0.0
O71 O 0.87332 0.408 0.73682 0.0
C72 C 0.86797 0.38231 0.07628 0.0
O73 O 0.8503 0.36622 0.05097 0.0
O74 O 0.88418 0.39088 0.02549 0.0
O75 O 0.84736 0.38295 0.87224 0.0
O76 O 0.8477 0.35227 0.78099 0.0
O77 O 0.88524 0.33684 0.93399 0.0
C78 C 0.92579 0.37365 0.80155 0.0
C79 C 0.83543 0.36638 0.83014 0.0
Zn80 Zn 0.35184 0.37412 0.18916 0.0
Zn81 Zn 0.39721 0.36391 0.98872 0.0
C82 C 0.30874 0.39243 0.27965 0.0
O83 O 0.32448 0.41163 0.29323 0.0
C84 C 0.44981 0.35886 0.05185 0.0
O85 O 0.43962 0.34846 0.11692 0.0
O86 O 0.37361 0.37918 0.28791 0.0
O87 O 0.35827 0.33812 0.15017 0.0
O88 O 0.38464 0.33261 0.0461 0.0
C89 C 0.36984 0.36252 0.34287 0.0
O90 O 0.35412 0.3434 0.32785 0.0
O91 O 0.31583 0.37433 0.23309 0.0
C92 C 0.3994 0.3704 0.81591 0.0
O93 O 0.41458 0.3896 0.83491 0.0
O94 O 0.3896 0.35694 0.87212 0.0
O95 O 0.38184 0.39823 0.0118 0.0
O96 O 0.35584 0.40491 0.11623 0.0
O97 O 0.43538 0.36651 0.99484 0.0
C98 C 0.37036 0.32363 0.10155 0.0
C99 C 0.3675 0.41285 0.05334 0.0
Zn100 Zn 0.3686 0.61312 0.98582 0.0
Zn101 Zn 0.37099 0.65322 0.76828 0.0
C102 C 0.34925 0.56415 0.01114 0.0
O103 O 0.33226 0.57886 0.04714 0.0
C104 C 0.38761 0.69578 0.67494 0.0
O105 O 0.40615 0.67952 0.65882 0.0
O106 O 0.3671 0.61888 0.1067 0.0
O107 O 0.40224 0.6282 0.94882 0.0
O108 O 0.40352 0.6499 0.8327 0.0
C109 C 0.38484 0.61034 0.15209 0.0
O110 O 0.40463 0.59888 0.11879 0.0
O111 O 0.36792 0.57469 0.97432 0.0
C112 C 0.35322 0.63588 0.61868 0.0
O113 O 0.33392 0.6497 0.64524 0.0
O114 O 0.37225 0.63227 0.66549 0.0
O115 O 0.33728 0.64787 0.82393 0.0
O116 O 0.33558 0.62675 0.94075 0.0
O117 O 0.37023 0.68927 0.72492 0.0
C118 C 0.4144 0.64111 0.89584 0.0
C119 C 0.32474 0.63888 0.88348 0.0
Zn120 Zn 0.61 0.63014 0.22566 0.0
Zn121 Zn 0.6142 0.63767 0.04115 0.0
C122 C 0.65706 0.61139 0.28838 0.0
O123 O 0.64088 0.59675 0.32816 0.0
C124 C 0.56245 0.65286 0.01164 0.0
O125 O 0.57422 0.67027 0.96763 0.0
O126 O 0.59677 0.62636 0.33897 0.0
O127 O 0.60085 0.66649 0.19449 0.0
O128 O 0.62827 0.66936 0.09368 0.0
C129 C 0.60676 0.64132 0.39088 0.0
O130 O 0.62321 0.65872 0.3661 0.0
O131 O 0.64855 0.6273 0.23643 0.0
C132 C 0.60912 0.62817 0.872 0.0
O133 O 0.59327 0.61044 0.89838 0.0
O134 O 0.62103 0.64198 0.92295 0.0
O135 O 0.62774 0.60293 0.07081 0.0
O136 O 0.59798 0.59895 0.16436 0.0
O137 O 0.57574 0.6371 0.05265 0.0
C138 C 0.61527 0.67996 0.14937 0.0
C139 C 0.61333 0.5888 0.11386 0.0
Zn140 Zn 0.63824 0.38735 0.01043 0.0
Zn141 Zn 0.63736 0.36641 0.79378 0.0
C142 C 0.63965 0.4406 0.03615 0.0
O143 O 0.65522 0.43228 0.09287 0.0
C144 C 0.62465 0.32138 0.69703 0.0
O145 O 0.61901 0.33871 0.64216 0.0
O146 O 0.63901 0.38389 0.13124 0.0
O147 O 0.61116 0.36309 0.97155 0.0
O148 O 0.605 0.37879 0.84929 0.0
C149 C 0.62036 0.3909 0.17547 0.0
O150 O 0.59923 0.39916 0.14105 0.0
O151 O 0.62958 0.42458 0.98735 0.0
C152 C 0.65847 0.38179 0.64144 0.0
O153 O 0.67865 0.36982 0.67028 0.0
O154 O 0.6389 0.3844 0.68645 0.0
O155 O 0.67243 0.37004 0.84509 0.0
O156 O 0.67383 0.38065 0.97516 0.0
O157 O 0.63225 0.32852 0.76699 0.0
C158 C 0.59615 0.37112 0.91688 0.0
C159 C 0.68497 0.37472 0.9095 0.0
Zn160 Zn 0.84234 0.61377 0.57718 0.0
Zn161 Zn 0.88359 0.61992 0.79357 0.0
C162 C 0.79703 0.60438 0.47892 0.0
O163 O 0.81387 0.59596 0.42613 0.0
C164 C 0.93535 0.63521 0.74177 0.0
O165 O 0.92404 0.65189 0.69403 0.0
O166 O 0.86127 0.61426 0.47036 0.0
O167 O 0.84838 0.6483 0.63073 0.0
O168 O 0.86951 0.65254 0.74703 0.0
C169 C 0.85737 0.6336 0.42499 0.0
O170 O 0.84327 0.65252 0.45285 0.0
O171 O 0.80455 0.61234 0.54799 0.0
C172 C 0.88615 0.60371 0.95924 0.0
O173 O 0.8993 0.58486 0.92662 0.0
O174 O 0.87666 0.62086 0.91343 0.0
O175 O 0.87181 0.58588 0.75127 0.0
O176 O 0.85013 0.58059 0.63662 0.0
O177 O 0.92186 0.62034 0.78534 0.0
C178 C 0.85719 0.6621 0.68793 0.0
C179 C 0.86078 0.5715 0.69983 0.0
Zn180 Zn 0.62535 0.12608 0.23731 0.0
Zn181 Zn 0.62427 0.13176 0.44189 0.0
C182 C 0.64223 0.07576 0.19913 0.0
O183 O 0.65571 0.08918 0.14693 0.0
C184 C 0.61382 0.18049 0.51114 0.0
O185 O 0.59958 0.16573 0.55739 0.0
O186 O 0.62624 0.13156 0.1164 0.0
O187 O 0.59052 0.13753 0.27276 0.0
O188 O 0.58918 0.12293 0.39901 0.0
C189 C 0.60938 0.12057 0.07296 0.0
O190 O 0.59094 0.10765 0.10871 0.0
O191 O 0.62831 0.08743 0.25066 0.0
C192 C 0.64389 0.1271 0.60173 0.0
O193 O 0.66272 0.13994 0.56771 0.0
O194 O 0.62533 0.11963 0.55777 0.0
O195 O 0.6568 0.11877 0.38958 0.0
O196 O 0.65624 0.14391 0.28275 0.0
O197 O 0.62605 0.17052 0.45214 0.0
C198 C 0.57797 0.1308 0.33522 0.0
C199 C 0.66858 0.13295 0.33921 0.0
Zn200 Zn 0.12784 0.38548 0.54411 0.0
Zn201 Zn 0.12684 0.37693 0.73855 0.0
C202 C 0.17674 0.40805 0.51723 0.0
O203 O 0.16241 0.42859 0.50905 0.0
C204 C 0.07588 0.35694 0.73274 0.0
O205 O 0.08813 0.33571 0.75081 0.0
O206 O 0.11889 0.38792 0.42437 0.0
O207 O 0.11726 0.34979 0.57814 0.0
O208 O 0.14156 0.34514 0.68645 0.0
C209 C 0.12916 0.37028 0.38183 0.0
O210 O 0.14248 0.35243 0.41905 0.0
O211 O 0.16637 0.38707 0.53907 0.0
C212 C 0.11954 0.39239 0.90171 0.0
O213 O 0.10768 0.41084 0.86252 0.0
O214 O 0.13047 0.37476 0.8609 0.0
O215 O 0.14192 0.41079 0.70555 0.0
O216 O 0.11461 0.41666 0.60552 0.0
O217 O 0.08851 0.37749 0.72148 0.0
C218 C 0.13036 0.33554 0.62502 0.0
C219 C 0.12826 0.42571 0.66278 0.0
Zn220 Zn 0.37522 0.88014 0.19614 0.0
Zn221 Zn 0.38072 0.87503 0.39506 0.0
C222 C 0.35309 0.93072 0.2128 0.0
O223 O 0.33177 0.9188 0.19365 0.0
C224 C 0.40257 0.82585 0.42605 0.0
O225 O 0.42351 0.83972 0.4301 0.0
O226 O 0.37216 0.87836 0.07432 0.0
O227 O 0.41028 0.8675 0.22241 0.0
O228 O 0.41391 0.88686 0.3413 0.0
C229 C 0.38812 0.89123 0.03247 0.0
O230 O 0.40587 0.90454 0.07021 0.0
O231 O 0.37362 0.91789 0.22121 0.0
C232 C 0.36374 0.87609 0.55604 0.0
O233 O 0.34616 0.86199 0.52044 0.0
O234 O 0.38151 0.88574 0.51278 0.0
O235 O 0.34549 0.88516 0.35423 0.0
O236 O 0.34531 0.86132 0.24422 0.0
O237 O 0.38165 0.83651 0.40574 0.0
C238 C 0.42404 0.87738 0.27766 0.0
C239 C 0.33346 0.87119 0.30379 0.0
Zn240 Zn 0.84872 0.86061 0.70246 0.0
Zn241 Zn 0.88871 0.85382 0.48606 0.0
C242 C 0.80655 0.8784 0.79584 0.0
O243 O 0.82307 0.89699 0.80874 0.0
C244 C 0.94202 0.8441 0.46718 0.0
O245 O 0.93277 0.82785 0.41373 0.0
O246 O 0.87013 0.86221 0.80474 0.0
O247 O 0.85387 0.82601 0.64742 0.0
O248 O 0.87458 0.82084 0.5304 0.0
C249 C 0.86655 0.84312 0.85157 0.0
O250 O 0.85229 0.82404 0.82566 0.0
O251 O 0.81275 0.86021 0.74825 0.0
C252 C 0.89268 0.87105 0.3202 0.0
O253 O 0.90164 0.89175 0.35575 0.0
O254 O 0.88558 0.8522 0.3638 0.0
O255 O 0.87163 0.8863 0.51987 0.0
O256 O 0.85109 0.89344 0.63578 0.0
O257 O 0.92649 0.85704 0.51023 0.0
C258 C 0.86213 0.81179 0.59025 0.0
C259 C 0.85925 0.901 0.56699 0.0
Zn260 Zn 0.8616 0.10805 0.54246 0.0
Zn261 Zn 0.86658 0.15097 0.32467 0.0
C262 C 0.85504 0.0526 0.49964 0.0
O263 O 0.84906 0.05954 0.42541 0.0
C264 C 0.87974 0.19412 0.22131 0.0
O265 O 0.88922 0.17566 0.17625 0.0
O266 O 0.85808 0.11851 0.6592 0.0
O267 O 0.89604 0.12038 0.50559 0.0
O268 O 0.89807 0.14332 0.39194 0.0
C269 C 0.83774 0.11209 0.6964 0.0
O270 O 0.81927 0.10068 0.6561 0.0
O271 O 0.86107 0.06954 0.55158 0.0
C272 C 0.8488 0.13182 0.17418 0.0
O273 O 0.82803 0.14339 0.2003 0.0
O274 O 0.86824 0.13073 0.22051 0.0
O275 O 0.83134 0.14448 0.37215 0.0
O276 O 0.83039 0.12055 0.48372 0.0
O277 O 0.86929 0.18855 0.28909 0.0
C278 C 0.90873 0.13296 0.45314 0.0
C279 C 0.81904 0.13293 0.42794 0.0
Zn280 Zn 0.15173 0.13229 0.72118 0.0
Zn281 Zn 0.10862 0.14269 0.50841 0.0
C282 C 0.19554 0.10606 0.7794 0.0
O283 O 0.17881 0.08723 0.77946 0.0
C284 C 0.05725 0.13224 0.56921 0.0
O285 O 0.06911 0.11867 0.62489 0.0
O286 O 0.1339 0.13209 0.82988 0.0
O287 O 0.14721 0.16772 0.67333 0.0
O288 O 0.12408 0.17376 0.56173 0.0
C289 C 0.14157 0.14992 0.87676 0.0
O290 O 0.15801 0.16679 0.84849 0.0
O291 O 0.18879 0.12799 0.75328 0.0
C292 C 0.10559 0.12795 0.34276 0.0
O293 O 0.09158 0.10979 0.37581 0.0
O294 O 0.11568 0.14484 0.3884 0.0
O295 O 0.11998 0.10767 0.54272 0.0
O296 O 0.14255 0.10091 0.65488 0.0
O297 O 0.07034 0.14444 0.51696 0.0
C298 C 0.13776 0.18239 0.61944 0.0
C299 C 0.13134 0.09269 0.5915 0.0
Zn300 Zn 0.13642 0.89237 0.49542 0.0
Zn301 Zn 0.13801 0.84949 0.28044 0.0
C302 C 0.15259 0.94181 0.53659 0.0
O303 O 0.17026 0.92736 0.57021 0.0
C304 C 0.1211 0.80388 0.20569 0.0
O305 O 0.10232 0.81955 0.18688 0.0
O306 O 0.13868 0.88355 0.61392 0.0
O307 O 0.10261 0.87741 0.45729 0.0
O308 O 0.10576 0.8547 0.34385 0.0
C309 C 0.121 0.89127 0.66104 0.0
O310 O 0.10128 0.90349 0.63016 0.0
O311 O 0.13505 0.93106 0.49512 0.0
C312 C 0.15422 0.86244 0.12457 0.0
O313 O 0.17364 0.84892 0.15168 0.0
O314 O 0.1357 0.86719 0.17238 0.0
O315 O 0.17143 0.85881 0.3316 0.0
O316 O 0.17026 0.88176 0.44508 0.0
O317 O 0.1393 0.81211 0.24988 0.0
C318 C 0.09258 0.86361 0.40215 0.0
C319 C 0.18268 0.87028 0.38944 0.0
H320 H 0.3939 0.9608 0.17903 0.0
H321 H 0.31399 0.96391 0.24464 0.0
H322 H 0.3147 0.01077 0.23398 0.0
H323 H 0.33764 0.05063 0.19947 0.0
H324 H 0.41666 0.04673 0.12367 0.0
H325 H 0.41671 1.00039 0.14467 0.0
C326 C 0.37673 0.97177 0.19207 0.0
C327 C 0.35397 0.95901 0.21316 0.0
C328 C 0.37708 0.99852 0.18321 0.0
C329 C 0.33174 0.97338 0.2284 0.0
C330 C 0.33213 1.00013 0.22216 0.0
C331 C 0.35489 0.03962 0.18807 0.0
C332 C 0.3771 0.05206 0.16007 0.0
C333 C 0.35462 0.01288 0.19855 0.0
C334 C 0.39927 0.03756 0.14476 0.0
C335 C 0.39934 0.01108 0.15698 0.0
H336 H 0.96349 0.60451 0.83996 0.0
H337 H 0.97066 0.66462 0.66116 0.0
H338 H 0.01713 0.66474 0.6794 0.0
H339 H 0.05551 0.64851 0.74885 0.0
H340 H 0.04781 0.58874 0.92873 0.0
H341 H 0.00164 0.58782 0.90711 0.0
C342 C 0.97517 0.6176 0.80459 0.0
C343 C 0.96357 0.63458 0.74937 0.0
C344 C 0.00176 0.6177 0.81579 0.0
C345 C 0.97907 0.65137 0.70413 0.0
C346 C 0.00564 0.65147 0.71462 0.0
C347 C 0.04375 0.63525 0.78328 0.0
C348 C 0.05513 0.61878 0.84053 0.0
C349 C 0.01716 0.63485 0.77076 0.0
C350 C 0.03959 0.60167 0.88439 0.0
C351 C 0.01316 0.60111 0.87209 0.0
H352 H 0.62809 0.96146 0.08407 0.0
H353 H 0.63857 0.94713 0.33942 0.0
H354 H 0.64189 0.9933 0.36509 0.0
H355 H 0.64214 0.03804 0.31388 0.0
H356 H 0.63643 0.05134 0.0564 0.0
H357 H 0.63101 0.00544 0.03231 0.0
C358 C 0.63106 0.96848 0.14531 0.0
C359 C 0.63286 0.95101 0.20985 0.0
C360 C 0.63389 0.9949 0.15908 0.0
C361 C 0.63709 0.96028 0.28879 0.0
C362 C 0.63897 0.98665 0.30347 0.0
C363 C 0.63971 0.03075 0.25273 0.0
C364 C 0.6396 0.04789 0.18699 0.0
C365 C 0.63744 0.00418 0.23903 0.0
C366 C 0.63673 0.03838 0.1078 0.0
C367 C 0.63354 0.01218 0.094 0.0
H368 H 0.95689 0.33738 0.73698 0.0
H369 H 0.9576 0.4133 0.84114 0.0
H370 H 0.00402 0.41571 0.82257 0.0
H371 H 0.04465 0.3956 0.78077 0.0
H372 H 0.04411 0.31833 0.68744 0.0
H373 H 0.99737 0.31713 0.69683 0.0
C374 C 0.96719 0.3545 0.75524 0.0
C375 C 0.95384 0.37514 0.79022 0.0
C376 C 0.9939 0.35552 0.74607 0.0
C377 C 0.96748 0.3971 0.81443 0.0
C378 C 0.994 0.39852 0.80358 0.0
C379 C 0.0342 0.37866 0.76158 0.0
C380 C 0.04766 0.35716 0.73281 0.0
C381 C 0.00743 0.37779 0.76989 0.0
C382 C 0.03406 0.33511 0.70964 0.0
C383 C 0.00739 0.3344 0.71513 0.0
H384 H 0.3343 0.44856 0.11219 0.0
H385 H 0.39649 0.43879 0.94213 0.0
H386 H 0.39568 0.48452 0.91133 0.0
H387 H 0.37887 0.52777 0.93798 0.0
H388 H 0.31624 0.53721 0.1065 0.0
H389 H 0.31566 0.49121 0.132 0.0
C390 C 0.3476 0.45638 0.06806 0.0
C391 C 0.36556 0.44024 0.0302 0.0
C392 C 0.34704 0.48271 0.0504 0.0
C393 C 0.38247 0.45072 0.97247 0.0
C394 C 0.38209 0.47693 0.95487 0.0
C395 C 0.36499 0.51973 0.97984 0.0
C396 C 0.34779 0.53597 0.02067 0.0
C397 C 0.36469 0.49317 0.99429 0.0
C398 C 0.32977 0.52521 0.07429 0.0
C399 C 0.32944 0.49887 0.08916 0.0
H400 H 0.53068 0.6743 0.9007 0.0
H401 H 0.53128 0.62365 0.10779 0.0
H402 H 0.48538 0.61593 0.09125 0.0
H403 H 0.44547 0.62247 0.01521 0.0
H404 H 0.4455 0.67213 0.80532 0.0
H405 H 0.49082 0.68119 0.82575 0.0
C406 C 0.52075 0.66176 0.94276 0.0
C407 C 0.53437 0.64963 0.00551 0.0
C408 C 0.49451 0.65704 0.93201 0.0
C409 C 0.52124 0.63323 0.05895 0.0
C410 C 0.49501 0.62876 0.04943 0.0
C411 C 0.45534 0.63532 0.97395 0.0
C412 C 0.442 0.64652 0.90869 0.0
C413 C 0.48151 0.64036 0.98565 0.0
C414 C 0.45522 0.6631 0.85587 0.0
C415 C 0.48116 0.66837 0.86756 0.0
H416 H 0.62068 0.55889 0.98081 0.0
H417 H 0.61189 0.55597 0.24082 0.0
H418 H 0.61911 0.50966 0.23924 0.0
H419 H 0.62948 0.47035 0.16468 0.0
H420 H 0.63449 0.47183 0.90385 0.0
H421 H 0.62692 0.51836 0.90434 0.0
C422 C 0.62026 0.54799 0.03685 0.0
C423 C 0.61603 0.5607 0.11093 0.0
C424 C 0.62371 0.52124 0.03518 0.0
C425 C 0.6151 0.5465 0.18319 0.0
C426 C 0.61929 0.52008 0.18233 0.0
C427 C 0.62878 0.48091 0.10798 0.0
C428 C 0.63281 0.46797 0.03441 0.0
C429 C 0.62384 0.50732 0.10885 0.0
C430 C 0.63143 0.48157 0.96111 0.0
C431 C 0.62722 0.50811 0.96151 0.0
H432 H 0.47567 0.37647 0.92073 0.0
H433 H 0.48717 0.34498 0.16023 0.0
H434 H 0.53359 0.34648 0.14015 0.0
H435 H 0.57073 0.35579 0.05307 0.0
H436 H 0.55859 0.38671 0.81294 0.0
H437 H 0.51246 0.38632 0.83512 0.0
C438 C 0.48827 0.37 0.96886 0.0
C439 C 0.47793 0.36057 0.04187 0.0
C440 C 0.5148 0.37072 0.95668 0.0
C441 C 0.49461 0.35228 0.10339 0.0
C442 C 0.52114 0.35311 0.09191 0.0
C443 C 0.55802 0.36248 0.00556 0.0
C444 C 0.56817 0.37119 0.9313 0.0
C445 C 0.53143 0.36212 0.01853 0.0
C446 C 0.55137 0.37984 0.87059 0.0
C447 C 0.52495 0.37964 0.88318 0.0
H448 H 0.88048 0.45481 0.78454 0.0
H449 H 0.82194 0.44489 0.60235 0.0
H450 H 0.81847 0.49125 0.58681 0.0
H451 H 0.83282 0.53473 0.6219 0.0
H452 H 0.89061 0.54476 0.80647 0.0
H453 H 0.89345 0.49843 0.82409 0.0
C454 C 0.8669 0.4628 0.74166 0.0
C455 C 0.8516 0.44634 0.6945 0.0
C456 C 0.86486 0.48957 0.73322 0.0
C457 C 0.83397 0.45705 0.63958 0.0
C458 C 0.83199 0.48361 0.63042 0.0
C459 C 0.846 0.5268 0.6661 0.0
C460 C 0.86153 0.5433 0.71242 0.0
C461 C 0.84747 0.50007 0.67643 0.0
C462 C 0.87836 0.53261 0.76996 0.0
C463 C 0.88007 0.50605 0.78002 0.0
H464 H 0.54655 0.12649 0.20489 0.0
H465 H 0.54626 0.1393 0.46351 0.0
H466 H 0.4997 0.14412 0.46159 0.0
H467 H 0.45916 0.14507 0.38621 0.0
H468 H 0.45891 0.1291 0.12951 0.0
H469 H 0.50567 0.12513 0.13061 0.0
C470 C 0.53626 0.13034 0.26075 0.0
C471 C 0.54977 0.13269 0.33415 0.0
C472 C 0.50946 0.13256 0.25942 0.0
C473 C 0.53623 0.13733 0.40633 0.0
C474 C 0.50964 0.14018 0.40522 0.0
C475 C 0.46939 0.14083 0.3305 0.0
C476 C 0.45577 0.13766 0.25771 0.0
C477 C 0.49609 0.13793 0.3321 0.0
C478 C 0.4691 0.13166 0.1862 0.0
C479 C 0.49577 0.12942 0.18682 0.0
H480 H 0.11331 0.54471 0.71641 0.0
H481 H 0.19001 0.53719 0.81025 0.0
H482 H 0.18887 0.49092 0.78492 0.0
H483 H 0.16639 0.45289 0.73341 0.0
H484 H 0.09105 0.46089 0.6292 0.0
H485 H 0.09134 0.50679 0.66062 0.0
C486 C 0.12965 0.53284 0.73201 0.0
C487 C 0.15161 0.54416 0.76598 0.0
C488 C 0.12915 0.50647 0.71473 0.0
C489 C 0.17289 0.52879 0.78431 0.0
C490 C 0.17224 0.5024 0.76974 0.0
C491 C 0.15001 0.46469 0.71778 0.0
C492 C 0.12867 0.45355 0.67944 0.0
C493 C 0.15054 0.49107 0.73451 0.0
C494 C 0.10773 0.46908 0.65848 0.0
C495 C 0.10785 0.49527 0.67672 0.0
H496 H 0.54116 0.87053 0.1822 0.0
H497 H 0.54819 0.86276 0.44162 0.0
H498 H 0.50207 0.86891 0.45753 0.0
H499 H 0.45959 0.87529 0.39758 0.0
H500 H 0.45161 0.87811 0.13734 0.0
H501 H 0.49813 0.87541 0.12163 0.0
C502 C 0.5325 0.87031 0.24203 0.0
C503 C 0.5479 0.86626 0.31065 0.0
C504 C 0.50582 0.87299 0.25052 0.0
C505 C 0.53658 0.86569 0.38793 0.0
C506 C 0.51026 0.86928 0.3971 0.0
C507 C 0.46804 0.87537 0.33748 0.0
C508 C 0.45222 0.8769 0.26878 0.0
C509 C 0.49466 0.87276 0.32882 0.0
C510 C 0.46343 0.87686 0.1912 0.0
C511 C 0.49001 0.87531 0.18216 0.0
H512 H 0.85491 0.94306 0.66383 0.0
H513 H 0.85613 0.91947 0.41301 0.0
H514 H 0.85378 0.96418 0.36953 0.0
H515 H 0.85339 0.0102 0.40264 0.0
H516 H 0.85471 0.03373 0.6537 0.0
H517 H 0.8541 0.98903 0.6969 0.0
C518 C 0.85436 0.94773 0.59972 0.0
C519 C 0.85568 0.928 0.5418 0.0
C520 C 0.8537 0.97354 0.57504 0.0
C521 C 0.85527 0.93434 0.45885 0.0
C522 C 0.85393 0.9599 0.43388 0.0
C523 C 0.85342 0.00554 0.46676 0.0
C524 C 0.85419 0.02531 0.52467 0.0
C525 C 0.8535 0.9797 0.4914 0.0
C526 C 0.85433 0.01891 0.60764 0.0
C527 C 0.85391 0.99332 0.63256 0.0
H528 H 0.02796 0.15312 0.45015 0.0
H529 H 0.02304 0.10957 0.67247 0.0
H530 H 0.97664 0.10629 0.65652 0.0
H531 H 0.93777 0.1147 0.57766 0.0
H532 H 0.94286 0.15779 0.35428 0.0
H533 H 0.98901 0.16223 0.37266 0.0
C534 C 0.01676 0.14304 0.49551 0.0
C535 C 0.029 0.13158 0.56241 0.0
C536 C 0.99015 0.14099 0.48556 0.0
C537 C 0.01414 0.11855 0.62036 0.0
C538 C 0.9876 0.11661 0.61121 0.0
C539 C 0.94891 0.12509 0.53286 0.0
C540 C 0.93677 0.1358 0.46448 0.0
C541 C 0.97546 0.12756 0.54366 0.0
C542 C 0.95162 0.14927 0.40739 0.0
C543 C 0.97804 0.15185 0.41785 0.0
H544 H 0.12004 0.97775 0.4742 0.0
H545 H 0.18451 0.96871 0.63565 0.0
H546 H 0.18332 0.01428 0.66789 0.0
H547 H 0.16391 0.05669 0.65147 0.0
H548 H 0.10004 0.06628 0.4882 0.0
H549 H 0.10111 0.0206 0.45561 0.0
C550 C 0.13388 0.98577 0.5162 0.0
C551 C 0.15229 0.96977 0.55243 0.0
C552 C 0.13317 0.01211 0.53448 0.0
C553 C 0.17012 0.98052 0.60666 0.0
C554 C 0.16945 0.00661 0.6254 0.0
C555 C 0.15011 0.04879 0.60916 0.0
C556 C 0.13185 0.06489 0.57279 0.0
C557 C 0.15099 0.02256 0.59001 0.0
C558 C 0.11435 0.05434 0.51707 0.0
C559 C 0.11493 0.0282 0.49839 0.0
H560 H 0.0567 0.88082 0.5108 0.0
H561 H 0.06611 0.8313 0.30265 0.0
H562 H 0.02096 0.82014 0.30733 0.0
H563 H 0.9786 0.82492 0.36773 0.0
H564 H 0.96815 0.87491 0.57381 0.0
H565 H 0.0139 0.88515 0.57299 0.0
C566 C 0.0489 0.86758 0.46649 0.0
C567 C 0.06492 0.85706 0.40622 0.0
C568 C 0.0227 0.86121 0.4692 0.0
C569 C 0.05436 0.83988 0.34945 0.0
C570 C 0.02847 0.83338 0.35212 0.0
C571 C 0.9863 0.83792 0.41296 0.0
C572 C 0.96994 0.8491 0.47075 0.0
C573 C 0.01246 0.844 0.41143 0.0
C574 C 0.9803 0.86601 0.52859 0.0
C575 C 0.00646 0.87193 0.52804 0.0
H576 H 0.35247 0.20699 0.1891 0.0
H577 H 0.40913 0.19763 0.00041 0.0
H578 H 0.41066 0.24395 0.98078 0.0
H579 H 0.39642 0.28703 0.01789 0.0
H580 H 0.34017 0.29672 0.20771 0.0
H581 H 0.33798 0.2503 0.22581 0.0
C582 C 0.36512 0.21507 0.14356 0.0
C583 C 0.38068 0.19883 0.09642 0.0
C584 C 0.366 0.24177 0.13269 0.0
C585 C 0.397 0.20965 0.03777 0.0
C586 C 0.39788 0.23616 0.02638 0.0
C587 C 0.38358 0.27906 0.06309 0.0
C588 C 0.36847 0.29542 0.11126 0.0
C589 C 0.38252 0.25238 0.07361 0.0
C590 C 0.35204 0.28464 0.16971 0.0
C591 C 0.35077 0.25807 0.18019 0.0
H592 H 0.29073 0.61395 0.9809 0.0
H593 H 0.29512 0.66826 0.78345 0.0
H594 H 0.24853 0.66914 0.77466 0.0
H595 H 0.20673 0.65304 0.81831 0.0
H596 H 0.20218 0.59784 0.01308 0.0
H597 H 0.24872 0.59884 0.02755 0.0
C598 C 0.28153 0.62618 0.93646 0.0
C599 C 0.29646 0.64096 0.88281 0.0
C600 C 0.25471 0.62633 0.93081 0.0
C601 C 0.28414 0.6566 0.82534 0.0
C602 C 0.25748 0.65712 0.82014 0.0
C603 C 0.21587 0.64132 0.86426 0.0
C604 C 0.20098 0.6253 0.91424 0.0
C605 C 0.2426 0.6418 0.87181 0.0
C606 C 0.21318 0.61025 0.97348 0.0
C607 C 0.2398 0.61082 0.98188 0.0
H608 H 0.6231 0.79549 0.26116 0.0
H609 H 0.6235 0.80736 0.00241 0.0
H610 H 0.62141 0.76096 0.97995 0.0
H611 H 0.61949 0.71691 0.03444 0.0
H612 H 0.61433 0.70551 0.29295 0.0
H613 H 0.61821 0.75173 0.31534 0.0
C614 C 0.6228 0.78783 0.19996 0.0
C615 C 0.62377 0.80465 0.13347 0.0
C616 C 0.62072 0.76125 0.18764 0.0
C617 C 0.62284 0.79468 0.05441 0.0
C618 C 0.62169 0.76819 0.0416 0.0
C619 C 0.61929 0.72463 0.09557 0.0
C620 C 0.61695 0.70792 0.16205 0.0
C621 C 0.62065 0.75128 0.10777 0.0
C622 C 0.61619 0.71806 0.24094 0.0
C623 C 0.61843 0.74446 0.25374 0.0
H624 H 0.80463 0.38515 0.94826 0.0
H625 H 0.803 0.34395 0.72118 0.0
H626 H 0.75625 0.34267 0.72584 0.0
H627 H 0.71581 0.35401 0.79328 0.0
H628 H 0.7178 0.39429 0.02221 0.0
H629 H 0.76443 0.39503 0.01797 0.0
C630 C 0.79404 0.37587 0.89981 0.0
C631 C 0.80723 0.36477 0.83436 0.0
C632 C 0.76723 0.37502 0.90317 0.0
C633 C 0.79328 0.35259 0.77241 0.0
C634 C 0.76655 0.35191 0.77489 0.0
C635 C 0.72644 0.36294 0.84223 0.0
C636 C 0.71329 0.37417 0.90769 0.0
C637 C 0.75332 0.36318 0.83979 0.0
C638 C 0.72739 0.38544 0.97109 0.0
C639 C 0.75409 0.38595 0.9687 0.0
H640 H 0.85478 0.69156 0.55226 0.0
H641 H 0.8549 0.69606 0.81348 0.0
H642 H 0.85431 0.74291 0.80633 0.0
H643 H 0.85638 0.78255 0.72576 0.0
H644 H 0.85969 0.77786 0.46468 0.0
H645 H 0.85616 0.73117 0.4717 0.0
C646 C 0.85425 0.70279 0.60755 0.0
C647 C 0.8547 0.69035 0.68324 0.0
C648 C 0.8547 0.7297 0.60295 0.0
C649 C 0.85457 0.70519 0.75445 0.0
C650 C 0.85425 0.73197 0.75041 0.0
C651 C 0.85599 0.77134 0.67042 0.0
C652 C 0.85822 0.78368 0.59484 0.0
C653 C 0.85469 0.74444 0.67499 0.0
C654 C 0.85809 0.76882 0.52365 0.0
C655 C 0.85606 0.74212 0.5276 0.0
H656 H 0.7875 0.15383 0.3133 0.0
H657 H 0.78648 0.11061 0.53686 0.0
H658 H 0.7401 0.10722 0.52957 0.0
H659 H 0.6999 0.11516 0.45799 0.0
H660 H 0.7005 0.158 0.23384 0.0
H661 H 0.74695 0.16272 0.2431 0.0
C662 C 0.77717 0.14378 0.36072 0.0
C663 C 0.79063 0.13247 0.42549 0.0
C664 C 0.75038 0.14164 0.35582 0.0
C665 C 0.77678 0.11954 0.4863 0.0
C666 C 0.75018 0.1175 0.48211 0.0
C667 C 0.71015 0.12556 0.4111 0.0
C668 C 0.6967 0.13611 0.34518 0.0
C669 C 0.73681 0.12824 0.41679 0.0
C670 C 0.71034 0.14964 0.28524 0.0
C671 C 0.73692 0.15236 0.29048 0.0
H672 H 0.15426 0.29868 0.71541 0.0
H673 H 0.10759 0.30921 0.50167 0.0
H674 H 0.10693 0.26308 0.47907 0.0
H675 H 0.11815 0.21968 0.52208 0.0
H676 H 0.16455 0.20866 0.7361 0.0
H677 H 0.16689 0.255 0.75575 0.0
C678 C 0.14401 0.2909 0.66374 0.0
C679 C 0.13086 0.30747 0.61074 0.0
C680 C 0.14364 0.26423 0.65096 0.0
C681 C 0.11777 0.29699 0.54386 0.0
C682 C 0.11739 0.27056 0.53072 0.0
C683 C 0.12895 0.22734 0.5728 0.0
C684 C 0.14102 0.21057 0.6277 0.0
C685 C 0.13006 0.25399 0.58421 0.0
C686 C 0.15496 0.22101 0.69292 0.0
C687 C 0.15629 0.24756 0.70436 0.0
H688 H 0.30187 0.88956 0.42241 0.0
H689 H 0.30175 0.84521 0.201 0.0
H690 H 0.25544 0.84031 0.21004 0.0
H691 H 0.21496 0.84937 0.27821 0.0
H692 H 0.21446 0.89406 0.49889 0.0
H693 H 0.26107 0.89787 0.49278 0.0
C694 C 0.29173 0.87879 0.37616 0.0
C695 C 0.30535 0.86787 0.31092 0.0
C696 C 0.26499 0.87606 0.38156 0.0
C697 C 0.29185 0.85388 0.25179 0.0
C698 C 0.26532 0.85106 0.25688 0.0
C699 C 0.22497 0.85988 0.32536 0.0
C700 C 0.2111 0.87146 0.38882 0.0
C701 C 0.2517 0.86217 0.32118 0.0
C702 C 0.22455 0.88495 0.44927 0.0
C703 C 0.25124 0.88718 0.44574 0.0
H704 H 0.22617 0.14141 0.85187 0.0
H705 H 0.22196 0.06129 0.78793 0.0
H706 H 0.26374 0.05377 0.85033 0.0
H707 H 0.30163 0.07004 0.92173 0.0
H708 H 0.30513 0.14982 0.99102 0.0
H709 H 0.26331 0.15729 0.92913 0.0
C710 C 0.23453 0.12237 0.85114 0.0
C711 C 0.2212 0.10198 0.81459 0.0
C712 C 0.25828 0.11806 0.88887 0.0
C713 C 0.23195 0.07729 0.81547 0.0
C714 C 0.25579 0.07297 0.85125 0.0
C715 C 0.29317 0.08903 0.92384 0.0
C716 C 0.30653 0.10933 0.96078 0.0
C717 C 0.26911 0.0932 0.88819 0.0
C718 C 0.29522 0.13379 0.96334 0.0
C719 C 0.27137 0.13814 0.92745 0.0
H720 H 0.14132 0.69277 0.06724 0.0
H721 H 0.06109 0.69926 0.00863 0.0
H722 H 0.06021 0.74268 0.065 0.0
H723 H 0.08198 0.77823 0.13404 0.0
H724 H 0.16162 0.77076 0.20001 0.0
H725 H 0.16294 0.72813 0.1384 0.0
C726 C 0.12374 0.70385 0.06589 0.0
C727 C 0.10135 0.69302 0.03308 0.0
C728 C 0.12321 0.72844 0.1006 0.0
C729 C 0.07857 0.7073 0.03329 0.0
C730 C 0.07805 0.73205 0.0657 0.0
C731 C 0.09964 0.76728 0.13495 0.0
C732 C 0.12167 0.77766 0.17149 0.0
C733 C 0.1002 0.74272 0.10017 0.0
C734 C 0.14435 0.76316 0.17266 0.0
C735 C 0.14516 0.73883 0.1371 0.0
H736 H 0.699 0.86104 0.96435 0.0
H737 H 0.71188 0.93967 0.03473 0.0
H738 H 0.75362 0.93919 0.96739 0.0
H739 H 0.78554 0.91708 0.88375 0.0
H740 H 0.77174 0.83922 0.80615 0.0
H741 H 0.73118 0.8388 0.88039 0.0
C742 C 0.71117 0.8779 0.96601 0.0
C743 C 0.70255 0.90029 0.00513 0.0
C744 C 0.73478 0.87774 0.92488 0.0
C745 C 0.7182 0.9222 0.00529 0.0
C746 C 0.742 0.92196 0.96655 0.0
C747 C 0.77371 0.89998 0.88309 0.0
C748 C 0.78168 0.87824 0.83927 0.0
C749 C 0.75032 0.89996 0.92522 0.0
C750 C 0.76601 0.85629 0.83893 0.0
C751 C 0.74285 0.85599 0.88168 0.0
H752 H 0.89344 0.31251 0.15162 0.0
H753 H 0.89192 0.28531 0.90463 0.0
H754 H 0.88637 0.24115 0.95294 0.0
H755 H 0.88265 0.21039 0.06565 0.0
H756 H 0.8809 0.238 0.3123 0.0
H757 H 0.88681 0.28206 0.26399 0.0
C758 C 0.89205 0.29685 0.10846 0.0
C759 C 0.89354 0.30198 0.02473 0.0
C760 C 0.88815 0.27172 0.13668 0.0
C761 C 0.89101 0.28172 0.96931 0.0
C762 C 0.88784 0.25653 0.99695 0.0
C763 C 0.88354 0.22607 0.10883 0.0
C764 C 0.8816 0.22095 0.19252 0.0
C765 C 0.88649 0.25132 0.08049 0.0
C766 C 0.88234 0.24147 0.24766 0.0
C767 C 0.88583 0.26662 0.22006 0.0
H768 H 0.28532 0.43014 0.36623 0.0
H769 H 0.27635 0.35141 0.29005 0.0
H770 H 0.23586 0.34862 0.36363 0.0
H771 H 0.20233 0.36889 0.44612 0.0
H772 H 0.20987 0.44831 0.5152 0.0
H773 H 0.25181 0.45039 0.44907 0.0
C774 C 0.27453 0.41236 0.36577 0.0
C775 C 0.28384 0.39105 0.32248 0.0
C776 C 0.25111 0.41095 0.40756 0.0
C777 C 0.26956 0.36818 0.32235 0.0
C778 C 0.24645 0.36651 0.36476 0.0
C779 C 0.21338 0.3865 0.4479 0.0
C780 C 0.20323 0.40835 0.48618 0.0
C781 C 0.23701 0.38779 0.40738 0.0
C782 C 0.21743 0.43123 0.48642 0.0
C783 C 0.24131 0.43245 0.44833 0.0
H784 H 0.42431 0.71778 0.5812 0.0
H785 H 0.3473 0.72915 0.66951 0.0
H786 H 0.34431 0.7693 0.59374 0.0
H787 H 0.36401 0.80181 0.50548 0.0
H788 H 0.44189 0.79175 0.4243 0.0
H789 H 0.44398 0.75021 0.49306 0.0
C790 C 0.40686 0.72902 0.58386 0.0
C791 C 0.3861 0.7205 0.63112 0.0
C792 C 0.40536 0.7522 0.54079 0.0
C793 C 0.36365 0.73535 0.63408 0.0
C794 C 0.36186 0.75826 0.59043 0.0
C795 C 0.38126 0.79028 0.50172 0.0
C796 C 0.40268 0.79959 0.4592 0.0
C797 C 0.38261 0.76689 0.54373 0.0
C798 C 0.42514 0.78483 0.45636 0.0
C799 C 0.42637 0.76117 0.49594 0.0
H800 H 0.67702 0.60322 0.43679 0.0
H801 H 0.69813 0.61916 0.18896 0.0
H802 H 0.74359 0.61769 0.22602 0.0
H803 H 0.77717 0.61164 0.32923 0.0
H804 H 0.75578 0.59944 0.57904 0.0
H805 H 0.71044 0.59973 0.54115 0.0
C806 C 0.69163 0.60625 0.39091 0.0
C807 C 0.68441 0.61095 0.31013 0.0
C808 C 0.71755 0.60609 0.41316 0.0
C809 C 0.70336 0.61543 0.25145 0.0
C810 C 0.72928 0.61456 0.27262 0.0
C811 C 0.76254 0.60898 0.37523 0.0
C812 C 0.7697 0.60525 0.45664 0.0
C813 C 0.73658 0.60984 0.35327 0.0
C814 C 0.75065 0.60232 0.51602 0.0
C815 C 0.72478 0.60243 0.49435 0.0
H816 H 0.6103 0.20173 0.66018 0.0
H817 H 0.62484 0.22038 0.40942 0.0
H818 H 0.62911 0.26583 0.44509 0.0
H819 H 0.62824 0.30016 0.5476 0.0
H820 H 0.61671 0.281 0.7996 0.0
H821 H 0.61181 0.23569 0.76355 0.0
C822 C 0.6143 0.21579 0.6133 0.0
C823 C 0.61693 0.20785 0.53212 0.0
C824 C 0.61731 0.24168 0.63459 0.0
C825 C 0.62266 0.22611 0.47223 0.0
C826 C 0.62507 0.25205 0.49263 0.0
C827 C 0.62461 0.28605 0.5946 0.0
C828 C 0.62258 0.29389 0.67608 0.0
C829 C 0.62234 0.26004 0.57357 0.0
C830 C 0.61834 0.2754 0.73652 0.0
C831 C 0.61547 0.24954 0.71589 0.0
H832 H 0.40207 0.09366 0.50798 0.0
H833 H 0.34784 0.1543 0.46008 0.0
H834 H 0.34573 0.16417 0.60467 0.0
H835 H 0.35927 0.1557 0.74433 0.0
H836 H 0.41342 0.09508 0.79291 0.0
H837 H 0.41572 0.08526 0.64811 0.0
C838 C 0.38967 0.10896 0.52913 0.0
C839 C 0.37507 0.12316 0.47317 0.0
C840 C 0.38868 0.11467 0.61236 0.0
C841 C 0.35925 0.14302 0.50173 0.0
C842 C 0.35808 0.14873 0.58443 0.0
C843 C 0.37171 0.14043 0.72336 0.0
C844 C 0.3862 0.1262 0.77948 0.0
C845 C 0.37277 0.13474 0.6402 0.0
C846 C 0.4021 0.10638 0.75108 0.0
C847 C 0.40337 0.1007 0.66828 0.0
H848 H 0.10074 0.59319 0.49918 0.0
H849 H 0.15805 0.65116 0.54513 0.0
H850 H 0.16633 0.6548 0.39986 0.0
H851 H 0.15722 0.64174 0.26023 0.0
H852 H 0.09975 0.584 0.21368 0.0
H853 H 0.09176 0.57994 0.35921 0.0
C854 C 0.11501 0.60668 0.47749 0.0
C855 C 0.12871 0.62192 0.53298 0.0
C856 C 0.11974 0.60863 0.39393 0.0
C857 C 0.14719 0.63923 0.50377 0.0
C858 C 0.15198 0.6413 0.42071 0.0
C859 C 0.14303 0.62815 0.2818 0.0
C860 C 0.12913 0.61316 0.22614 0.0
C861 C 0.13839 0.62607 0.36532 0.0
C862 C 0.11074 0.59575 0.25522 0.0
C863 C 0.10612 0.59346 0.33841 0.0
H864 H 0.60337 0.90952 0.55057 0.0
H865 H 0.65482 0.84646 0.50258 0.0
H866 H 0.65779 0.83753 0.64745 0.0
H867 H 0.64595 0.84763 0.78708 0.0
H868 H 0.59465 0.91071 0.83606 0.0
H869 H 0.59128 0.91948 0.69086 0.0
C870 C 0.61532 0.89389 0.5718 0.0
C871 C 0.6289 0.87873 0.51599 0.0
C872 C 0.61683 0.88876 0.65509 0.0
C873 C 0.64419 0.85845 0.54437 0.0
C874 C 0.64587 0.85329 0.62715 0.0
C875 C 0.6339 0.86322 0.7661 0.0
C876 C 0.62055 0.87847 0.82217 0.0
C877 C 0.63223 0.86828 0.68292 0.0
C878 C 0.60511 0.89866 0.794 0.0
C879 C 0.60322 0.90373 0.71108 0.0
H880 H 0.84816 0.35413 0.19918 0.0
H881 H 0.89769 0.41861 0.15009 0.0
H882 H 0.90745 0.42236 0.29471 0.0
H883 H 0.90273 0.40658 0.43431 0.0
H884 H 0.8539 0.34142 0.48212 0.0
H885 H 0.84327 0.33855 0.33832 0.0
C886 C 0.86084 0.36923 0.22014 0.0
C887 C 0.87205 0.38619 0.16408 0.0
C888 C 0.86674 0.37094 0.30293 0.0
C889 C 0.88875 0.40537 0.19213 0.0
C890 C 0.89441 0.40746 0.27472 0.0
C891 C 0.88982 0.3917 0.41332 0.0
C892 C 0.87919 0.37421 0.46897 0.0
C893 C 0.88371 0.39018 0.33053 0.0
C894 C 0.86242 0.3551 0.44065 0.0
C895 C 0.85625 0.35348 0.35843 0.0
H896 H 0.36051 0.33309 0.4746 0.0
H897 H 0.40218 0.40028 0.39679 0.0
H898 H 0.41589 0.40814 0.53646 0.0
H899 H 0.4141 0.3971 0.68159 0.0
H900 H 0.37123 0.33043 0.75792 0.0
H901 H 0.35992 0.32128 0.61761 0.0
C902 C 0.37278 0.34935 0.48787 0.0
C903 C 0.38023 0.36612 0.42542 0.0
C904 C 0.38021 0.35398 0.56815 0.0
C905 C 0.39614 0.38709 0.44383 0.0
C906 C 0.40392 0.39164 0.52369 0.0
C907 C 0.40238 0.38052 0.66748 0.0
C908 C 0.39341 0.36459 0.73027 0.0
C909 C 0.39575 0.37542 0.58651 0.0
C910 C 0.37828 0.34312 0.71091 0.0
C911 C 0.37181 0.33783 0.63063 0.0
H912 H 0.34279 0.62298 0.24037 0.0
H913 H 0.42243 0.60228 0.26455 0.0
H914 H 0.41929 0.60642 0.41194 0.0
H915 H 0.39433 0.61776 0.53363 0.0
H916 H 0.31465 0.63836 0.50812 0.0
H917 H 0.31737 0.63206 0.3619 0.0
C918 C 0.35948 0.6194 0.27783 0.0
C919 C 0.38286 0.61258 0.24141 0.0
C920 C 0.35751 0.62165 0.36247 0.0
C921 C 0.40421 0.60766 0.29098 0.0
C922 C 0.40243 0.60999 0.37532 0.0
C923 C 0.37747 0.62051 0.49623 0.0
C924 C 0.35435 0.62862 0.5319 0.0
C925 C 0.37922 0.61716 0.41173 0.0
C926 C 0.33273 0.6322 0.48237 0.0
C927 C 0.33426 0.6287 0.39858 0.0
H928 H 0.58236 0.60633 0.74859 0.0
H929 H 0.64166 0.66189 0.79891 0.0
H930 H 0.64525 0.67158 0.65474 0.0
H931 H 0.63191 0.66412 0.51483 0.0
H932 H 0.573 0.60833 0.46313 0.0
H933 H 0.56873 0.59909 0.60786 0.0
C934 C 0.59613 0.62049 0.728 0.0
C935 C 0.61176 0.6333 0.78439 0.0
C936 C 0.59805 0.62607 0.64499 0.0
C937 C 0.62942 0.65171 0.75678 0.0
C938 C 0.63146 0.65732 0.67435 0.0
C939 C 0.61798 0.65008 0.53513 0.0
C940 C 0.60276 0.63698 0.47838 0.0
C941 C 0.61585 0.64465 0.61804 0.0
C942 C 0.58492 0.61871 0.5057 0.0
C943 C 0.58252 0.61336 0.58837 0.0
H944 H 0.61577 0.39511 0.55724 0.0
H945 H 0.69637 0.379 0.52779 0.0
H946 H 0.69161 0.38082 0.38061 0.0
H947 H 0.66416 0.38424 0.26093 0.0
H948 H 0.58342 0.39962 0.28977 0.0
H949 H 0.58866 0.40063 0.43711 0.0
C950 C 0.63239 0.39237 0.51875 0.0
C951 C 0.65638 0.38681 0.55349 0.0
C952 C 0.62943 0.39291 0.43423 0.0
C953 C 0.67768 0.38324 0.50264 0.0
C954 C 0.67496 0.38415 0.41847 0.0
C955 C 0.64767 0.38777 0.29935 0.0
C956 C 0.62338 0.39157 0.2645 0.0
C957 C 0.65083 0.38841 0.38372 0.0
C958 C 0.6023 0.39648 0.31513 0.0
C959 C 0.60529 0.39712 0.39933 0.0
H960 H 0.86969 0.64467 0.04657 0.0
H961 H 0.89662 0.56683 0.07216 0.0
H962 H 0.89177 0.56972 0.21934 0.0
H963 H 0.87837 0.59387 0.34031 0.0
H964 H 0.85169 0.67181 0.31381 0.0
H965 H 0.8583 0.66942 0.16761 0.0
C966 C 0.87446 0.62831 0.08429 0.0
C967 C 0.88328 0.6055 0.04835 0.0
C968 C 0.87182 0.63016 0.16881 0.0
C969 C 0.8897 0.5846 0.09823 0.0
C970 C 0.88696 0.58624 0.18243 0.0
C971 C 0.8743 0.61044 0.30271 0.0
C972 C 0.86444 0.63294 0.33806 0.0
C973 C 0.8779 0.60888 0.21836 0.0
C974 C 0.85922 0.65421 0.2883 0.0
C975 C 0.8629 0.65285 0.20455 0.0
H976 H 0.60382 0.10978 0.69211 0.0
H977 H 0.68022 0.14087 0.71244 0.0
H978 H 0.6761 0.14202 0.85988 0.0
H979 H 0.65039 0.1354 0.98275 0.0
H980 H 0.57405 0.10422 0.96256 0.0
H981 H 0.57854 0.10211 0.81524 0.0
C982 C 0.61969 0.11656 0.72876 0.0
C983 C 0.64229 0.12523 0.69117 0.0
C984 C 0.6171 0.11745 0.8135 0.0
C985 C 0.66259 0.13407 0.7397 0.0
C986 C 0.66023 0.13484 0.82407 0.0
C987 C 0.63467 0.12828 0.94612 0.0
C988 C 0.61185 0.12018 0.98358 0.0
C989 C 0.63746 0.12688 0.86153 0.0
C990 C 0.5918 0.11068 0.93527 0.0
C991 C 0.59436 0.1094 0.85101 0.0
H992 H 0.10939 0.40726 0.28174 0.0
H993 H 0.14657 0.33331 0.27922 0.0
H994 H 0.14712 0.33363 0.13156 0.0
H995 H 0.13774 0.35503 0.00234 0.0
H996 H 0.10058 0.42896 0.00391 0.0
H997 H 0.09944 0.42847 0.15185 0.0
C998 C 0.11745 0.39115 0.24887 0.0
C999 C 0.12791 0.37032 0.29184 0.0
C1000 C 0.11788 0.39146 0.1634 0.0
C1001 C 0.13839 0.34965 0.24804 0.0
C1002 C 0.13877 0.34979 0.16334 0.0
C1003 C 0.12944 0.37107 0.03499 0.0
C1004 C 0.11935 0.39201 0.9918 0.0
C1005 C 0.12873 0.37066 0.12032 0.0
C1006 C 0.10854 0.41256 0.03536 0.0
C1007 C 0.10784 0.41231 0.12016 0.0
H1008 H 0.35114 0.87039 0.93642 0.0
H1009 H 0.42218 0.91266 0.92657 0.0
H1010 H 0.42051 0.91267 0.7786 0.0
H1011 H 0.39941 0.89974 0.65151 0.0
H1012 H 0.32829 0.85757 0.66219 0.0
H1013 H 0.32944 0.85865 0.80987 0.0
C1014 C 0.36627 0.87961 0.90196 0.0
C1015 C 0.38681 0.89138 0.94267 0.0
C1016 C 0.36517 0.87963 0.8168 0.0
C1017 C 0.40615 0.9034 0.89693 0.0
C1018 C 0.40522 0.90343 0.81218 0.0
C1019 C 0.38407 0.89095 0.68613 0.0
C1020 C 0.36385 0.87855 0.64561 0.0
C1021 C 0.38488 0.8915 0.77141 0.0
C1022 C 0.34414 0.86723 0.69158 0.0
C1023 C 0.34478 0.86778 0.77621 0.0
H1024 H 0.88279 0.82909 0.22736 0.0
H1025 H 0.89858 0.91019 0.21139 0.0
H1026 H 0.89406 0.90845 0.06394 0.0
H1027 H 0.88327 0.88427 0.9399 0.0
H1028 H 0.86725 0.80321 0.95745 0.0
H1029 H 0.87455 0.80455 0.10337 0.0
C1030 C 0.88529 0.84639 0.19168 0.0
C1031 C 0.89079 0.86977 0.23055 0.0
C1032 C 0.88272 0.84526 0.10693 0.0
C1033 C 0.89426 0.89194 0.18315 0.0
C1034 C 0.89168 0.89097 0.09873 0.0
C1035 C 0.88179 0.86683 0.97548 0.0
C1036 C 0.87462 0.84371 0.93772 0.0
C1037 C 0.88566 0.86778 0.05996 0.0
C1038 C 0.87262 0.82131 0.9849 0.0
C1039 C 0.87671 0.82205 0.06852 0.0
H1040 H 0.81015 0.12642 0.06582 0.0
H1041 H 0.8924 0.12193 0.08779 0.0
H1042 H 0.89626 0.11612 0.94126 0.0
H1043 H 0.87636 0.11421 0.80612 0.0
H1044 H 0.79407 0.11689 0.78496 0.0
H1045 H 0.79013 0.12179 0.93198 0.0
C1046 C 0.82891 0.12393 0.03865 0.0
C1047 C 0.85094 0.12474 0.0876 0.0
C1048 C 0.831 0.12062 0.95444 0.0
C1049 C 0.87511 0.12128 0.05157 0.0
C1050 C 0.87736 0.11815 0.96768 0.0
C1051 C 0.85759 0.11602 0.83379 0.0
C1052 C 0.83554 0.11557 0.78492 0.0
C1053 C 0.85546 0.11822 0.91841 0.0
C1054 C 0.81131 0.11735 0.82147 0.0
C1055 C 0.80905 0.12009 0.90544 0.0
H1056 H 0.11488 0.11393 0.96284 0.0
H1057 H 0.15278 0.18718 0.98668 0.0
H1058 H 0.14483 0.18698 0.13226 0.0
H1059 H 0.1286 0.16542 0.25389 0.0
H1060 H 0.0907 0.09217 0.23123 0.0
H1061 H 0.09721 0.093 0.08457 0.0
C1062 C 0.12117 0.12996 0.99977 0.0
C1063 C 0.13448 0.15048 0.96376 0.0
C1064 C 0.11673 0.12966 0.08395 0.0
C1065 C 0.14257 0.17106 0.01267 0.0
C1066 C 0.13808 0.17097 0.09612 0.0
C1067 C 0.12175 0.14963 0.21693 0.0
C1068 C 0.10932 0.12871 0.25369 0.0
C1069 C 0.12548 0.15024 0.13257 0.0
C1070 C 0.1004 0.10851 0.20466 0.0
C1071 C 0.10409 0.10895 0.12067 0.0
H1072 H 0.16261 0.87506 0.74542 0.0
H1073 H 0.08441 0.90006 0.77619 0.0
H1074 H 0.08817 0.89476 0.92295 0.0
H1075 H 0.11336 0.88198 0.0423 0.0
H1076 H 0.19157 0.85703 0.01057 0.0
H1077 H 0.18814 0.86366 0.86461 0.0
C1078 C 0.14635 0.87929 0.78416 0.0
C1079 C 0.12322 0.88776 0.74981 0.0
C1080 C 0.14868 0.87636 0.86845 0.0
C1081 C 0.10243 0.89342 0.80101 0.0
C1082 C 0.10456 0.89044 0.88499 0.0
C1083 C 0.12974 0.87825 0.00356 0.0
C1084 C 0.15266 0.86897 0.03739 0.0
C1085 C 0.12758 0.88185 0.91937 0.0
C1086 C 0.17366 0.86414 0.98621 0.0
C1087 C 0.17172 0.86784 0.90262 0.0
loop_
_geom_bond_atom_site_label_1
_geom_bond_atom_site_label_2
_geom_bond_distance
_geom_bond_site_symmetry_2
_ccdc_geom_bond_type
Zn0 O6 1.969 1_554 S
Zn0 O7 1.965 . S
Zn0 O11 2.024 . S
Zn0 O16 1.969 . S
Zn1 O8 1.969 . S
Zn1 O14 1.969 . S
Zn1 O15 1.965 . S
Zn1 O17 2.024 . S
C2 O3 1.229 1_554 S
C2 O11 1.058 . S
O3 C2 1.229 1_556 S
C4 O5 1.229 . S
C4 O17 1.058 . S
O5 C4 1.229 . S
O6 Zn0 1.969 1_556 S
O6 C9 1.267 . S
O7 Zn0 1.965 . S
O7 C18 1.260 . S
O8 Zn1 1.969 . S
O8 C18 1.258 . S
C9 O6 1.267 . S
C9 O10 1.228 . S
O10 C9 1.228 . S
O11 Zn0 2.024 . S
O11 C2 1.058 . S
C12 O13 1.228 . S
C12 O14 1.267 . S
O13 C12 1.228 . S
O14 Zn1 1.969 . S
O14 C12 1.267 . S
O15 Zn1 1.965 . S
O15 C19 1.260 . S
O16 Zn0 1.969 . S
O16 C19 1.258 . S
O17 Zn1 2.024 . S
O17 C4 1.058 . S
C18 O7 1.260 . S
C18 O8 1.258 . S
C19 O15 1.260 . S
C19 O16 1.258 . S
Zn20 O26 1.969 . S
Zn20 O27 1.965 . S
Zn20 O31 2.024 . S
Zn20 O36 1.969 . S
Zn21 O28 1.969 . S
Zn21 O34 1.969 1_556 S
Zn21 O35 1.965 . S
Zn21 O37 2.024 . S
C22 O23 1.229 . S
C22 O31 1.058 . S
O23 C22 1.229 . S
C24 O25 1.229 1_556 S
C24 O37 1.058 . S
O25 C24 1.229 1_554 S
O26 Zn20 1.969 . S
O26 C29 1.267 . S
O27 Zn20 1.965 . S
O27 C38 1.260 . S
O28 Zn21 1.969 . S
O28 C38 1.258 . S
C29 O26 1.267 . S
C29 O30 1.228 . S
O30 C29 1.228 . S
O31 Zn20 2.024 . S
O31 C22 1.058 . S
C32 O33 1.228 . S
C32 O34 1.267 . S
O33 C32 1.228 . S
O34 Zn21 1.969 1_554 S
O34 C32 1.267 . S
O35 Zn21 1.965 . S
O35 C39 1.260 . S
O36 Zn20 1.969 . S
O36 C39 1.258 . S
O37 Zn21 2.024 . S
O37 C24 1.058 . S
C38 O27 1.260 . S
C38 O28 1.258 . S
C39 O35 1.260 . S
C39 O36 1.258 . S
Zn40 O46 1.969 1_554 S
Zn40 O47 1.965 . S
Zn40 O51 2.024 . S
Zn40 O56 1.969 . S
Zn41 O48 1.969 . S
Zn41 O54 1.969 . S
Zn41 O55 1.965 . S
Zn41 O57 2.024 . S
C42 O43 1.229 1_554 S
C42 O51 1.058 . S
O43 C42 1.229 1_556 S
C44 O45 1.229 . S
C44 O57 1.058 . S
O45 C44 1.229 . S
O46 Zn40 1.969 1_556 S
O46 C49 1.267 . S
O47 Zn40 1.965 . S
O47 C58 1.260 . S
O48 Zn41 1.969 . S
O48 C58 1.258 . S
C49 O46 1.267 . S
C49 O50 1.228 . S
O50 C49 1.228 . S
O51 Zn40 2.024 . S
O51 C42 1.058 . S
C52 O53 1.228 . S
C52 O54 1.267 . S
O53 C52 1.228 . S
O54 Zn41 1.969 . S
O54 C52 1.267 . S
O55 Zn41 1.965 . S
O55 C59 1.260 . S
O56 Zn40 1.969 . S
O56 C59 1.258 . S
O57 Zn41 2.024 . S
O57 C44 1.058 . S
C58 O47 1.260 . S
C58 O48 1.258 . S
C59 O55 1.260 . S
C59 O56 1.258 . S
Zn60 O66 1.969 . S
Zn60 O67 1.965 . S
Zn60 O71 2.024 . S
Zn60 O76 1.969 . S
Zn61 O68 1.969 . S
Zn61 O74 1.969 1_556 S
Zn61 O75 1.965 . S
Zn61 O77 2.024 . S
C62 O63 1.229 . S
C62 O71 1.058 . S
O63 C62 1.229 . S
C64 O65 1.229 1_556 S
C64 O77 1.058 . S
O65 C64 1.229 1_554 S
O66 Zn60 1.969 . S
O66 C69 1.267 . S
O67 Zn60 1.965 . S
O67 C78 1.260 . S
O68 Zn61 1.969 . S
O68 C78 1.258 . S
C69 O66 1.267 . S
C69 O70 1.228 . S
O70 C69 1.228 . S
O71 Zn60 2.024 . S
O71 C62 1.058 . S
C72 O73 1.228 . S
C72 O74 1.267 . S
O73 C72 1.228 . S
O74 Zn61 1.969 1_554 S
O74 C72 1.267 . S
O75 Zn61 1.965 . S
O75 C79 1.260 . S
O76 Zn60 1.969 . S
O76 C79 1.258 . S
O77 Zn61 2.024 . S
O77 C64 1.058 . S
C78 O67 1.260 . S
C78 O68 1.258 . S
C79 O75 1.260 . S
C79 O76 1.258 . S
Zn80 O86 1.969 . S
Zn80 O87 1.965 . S
Zn80 O91 2.024 . S
Zn80 O96 1.969 . S
Zn81 O88 1.969 . S
Zn81 O94 1.969 1_554 S
Zn81 O95 1.965 . S
Zn81 O97 2.024 . S
C82 O83 1.229 . S
C82 O91 1.058 . S
O83 C82 1.229 . S
C84 O85 1.229 . S
C84 O97 1.058 1_556 S
O85 C84 1.229 . S
O86 Zn80 1.969 . S
O86 C89 1.267 . S
O87 Zn80 1.965 . S
O87 C98 1.260 . S
O88 Zn81 1.969 . S
O88 C98 1.258 . S
C89 O86 1.267 . S
C89 O90 1.228 . S
O90 C89 1.228 . S
O91 Zn80 2.024 . S
O91 C82 1.058 . S
C92 O93 1.228 . S
C92 O94 1.267 . S
O93 C92 1.228 . S
O94 Zn81 1.969 1_556 S
O94 C92 1.267 . S
O95 Zn81 1.965 . S
O95 C99 1.260 . S
O96 Zn80 1.969 . S
O96 C99 1.258 . S
O97 Zn81 2.024 . S
O97 C84 1.058 1_554 S
C98 O87 1.260 . S
C98 O88 1.258 . S
C99 O95 1.260 . S
C99 O96 1.258 . S
Zn100 O106 1.969 1_556 S
Zn100 O107 1.965 . S
Zn100 O111 2.024 . S
Zn100 O116 1.969 . S
Zn101 O108 1.969 . S
Zn101 O114 1.969 . S
Zn101 O115 1.965 . S
Zn101 O117 2.024 . S
C102 O103 1.229 . S
C102 O111 1.058 1_554 S
O103 C102 1.229 . S
C104 O105 1.229 . S
C104 O117 1.058 . S
O105 C104 1.229 . S
O106 Zn100 1.969 1_554 S
O106 C109 1.267 . S
O107 Zn100 1.965 . S
O107 C118 1.260 . S
O108 Zn101 1.969 . S
O108 C118 1.258 . S
C109 O106 1.267 . S
C109 O110 1.228 . S
O110 C109 1.228 . S
O111 Zn100 2.024 . S
O111 C102 1.058 1_556 S
C112 O113 1.228 . S
C112 O114 1.267 . S
O113 C112 1.228 . S
O114 Zn101 1.969 . S
O114 C112 1.267 . S
O115 Zn101 1.965 . S
O115 C119 1.260 . S
O116 Zn100 1.969 . S
O116 C119 1.258 . S
O117 Zn101 2.024 . S
O117 C104 1.058 . S
C118 O107 1.260 . S
C118 O108 1.258 . S
C119 O115 1.260 . S
C119 O116 1.258 . S
Zn120 O126 1.969 . S
Zn120 O127 1.965 . S
Zn120 O131 2.024 . S
Zn120 O136 1.969 . S
Zn121 O128 1.969 . S
Zn121 O134 1.969 1_554 S
Zn121 O135 1.965 . S
Zn121 O137 2.024 . S
C122 O123 1.229 . S
C122 O131 1.058 . S
O123 C122 1.229 . S
C124 O125 1.229 . S
C124 O137 1.058 1_556 S
O125 C124 1.229 . S
O126 Zn120 1.969 . S
O126 C129 1.267 . S
O127 Zn120 1.965 . S
O127 C138 1.260 . S
O128 Zn121 1.969 . S
O128 C138 1.258 . S
C129 O126 1.267 . S
C129 O130 1.228 . S
O130 C129 1.228 . S
O131 Zn120 2.024 . S
O131 C122 1.058 . S
C132 O133 1.228 . S
C132 O134 1.267 . S
O133 C132 1.228 . S
O134 Zn121 1.969 1_556 S
O134 C132 1.267 . S
O135 Zn121 1.965 . S
O135 C139 1.260 . S
O136 Zn120 1.969 . S
O136 C139 1.258 . S
O137 Zn121 2.024 . S
O137 C124 1.058 1_554 S
C138 O127 1.260 . S
C138 O128 1.258 . S
C139 O135 1.260 . S
C139 O136 1.258 . S
Zn140 O146 1.969 1_556 S
Zn140 O147 1.965 . S
Zn140 O151 2.024 . S
Zn140 O156 1.969 . S
Zn141 O148 1.969 . S
Zn141 O154 1.969 . S
Zn141 O155 1.965 . S
Zn141 O157 2.024 . S
C142 O143 1.229 . S
C142 O151 1.058 1_554 S
O143 C142 1.229 . S
C144 O145 1.229 . S
C144 O157 1.058 . S
O145 C144 1.229 . S
O146 Zn140 1.969 1_554 S
O146 C149 1.267 . S
O147 Zn140 1.965 . S
O147 C158 1.260 . S
O148 Zn141 1.969 . S
O148 C158 1.258 . S
C149 O146 1.267 . S
C149 O150 1.228 . S
O150 C149 1.228 . S
O151 Zn140 2.024 . S
O151 C142 1.058 1_556 S
C152 O153 1.228 . S
C152 O154 1.267 . S
O153 C152 1.228 . S
O154 Zn141 1.969 . S
O154 C152 1.267 . S
O155 Zn141 1.965 . S
O155 C159 1.260 . S
O156 Zn140 1.969 . S
O156 C159 1.258 . S
O157 Zn141 2.024 . S
O157 C144 1.058 . S
C158 O147 1.260 . S
C158 O148 1.258 . S
C159 O155 1.260 . S
C159 O156 1.258 . S
Zn160 O166 1.969 . S
Zn160 O167 1.965 . S
Zn160 O171 2.024 . S
Zn160 O176 1.969 . S
Zn161 O168 1.969 . S
Zn161 O174 1.969 . S
Zn161 O175 1.965 . S
Zn161 O177 2.024 . S
C162 O163 1.229 . S
C162 O171 1.058 . S
O163 C162 1.229 . S
C164 O165 1.229 . S
C164 O177 1.058 . S
O165 C164 1.229 . S
O166 Zn160 1.969 . S
O166 C169 1.267 . S
O167 Zn160 1.965 . S
O167 C178 1.260 . S
O168 Zn161 1.969 . S
O168 C178 1.258 . S
C169 O166 1.267 . S
C169 O170 1.228 . S
O170 C169 1.228 . S
O171 Zn160 2.024 . S
O171 C162 1.058 . S
C172 O173 1.228 . S
C172 O174 1.267 . S
O173 C172 1.228 . S
O174 Zn161 1.969 . S
O174 C172 1.267 . S
O175 Zn161 1.965 . S
O175 C179 1.260 . S
O176 Zn160 1.969 . S
O176 C179 1.258 . S
O177 Zn161 2.024 . S
O177 C164 1.058 . S
C178 O167 1.260 . S
C178 O168 1.258 . S
C179 O175 1.260 . S
C179 O176 1.258 . S
Zn180 O186 1.969 . S
Zn180 O187 1.965 . S
Zn180 O191 2.024 . S
Zn180 O196 1.969 . S
Zn181 O188 1.969 . S
Zn181 O194 1.969 . S
Zn181 O195 1.965 . S
Zn181 O197 2.024 . S
C182 O183 1.229 . S
C182 O191 1.058 . S
O183 C182 1.229 . S
C184 O185 1.229 . S
C184 O197 1.058 . S
O185 C184 1.229 . S
O186 Zn180 1.969 . S
O186 C189 1.267 . S
O187 Zn180 1.965 . S
O187 C198 1.260 . S
O188 Zn181 1.969 . S
O188 C198 1.258 . S
C189 O186 1.267 . S
C189 O190 1.228 . S
O190 C189 1.228 . S
O191 Zn180 2.024 . S
O191 C182 1.058 . S
C192 O193 1.228 . S
C192 O194 1.267 . S
O193 C192 1.228 . S
O194 Zn181 1.969 . S
O194 C192 1.267 . S
O195 Zn181 1.965 . S
O195 C199 1.260 . S
O196 Zn180 1.969 . S
O196 C199 1.258 . S
O197 Zn181 2.024 . S
O197 C184 1.058 . S
C198 O187 1.260 . S
C198 O188 1.258 . S
C199 O195 1.260 . S
C199 O196 1.258 . S
Zn200 O206 1.969 . S
Zn200 O207 1.965 . S
Zn200 O211 2.024 . S
Zn200 O216 1.969 . S
Zn201 O208 1.969 . S
Zn201 O214 1.969 . S
Zn201 O215 1.965 . S
Zn201 O217 2.024 . S
C202 O203 1.229 . S
C202 O211 1.058 . S
O203 C202 1.229 . S
C204 O205 1.229 . S
C204 O217 1.058 . S
O205 C204 1.229 . S
O206 Zn200 1.969 . S
O206 C209 1.267 . S
O207 Zn200 1.965 . S
O207 C218 1.260 . S
O208 Zn201 1.969 . S
O208 C218 1.258 . S
C209 O206 1.267 . S
C209 O210 1.228 . S
O210 C209 1.228 . S
O211 Zn200 2.024 . S
O211 C202 1.058 . S
C212 O213 1.228 . S
C212 O214 1.267 . S
O213 C212 1.228 . S
O214 Zn201 1.969 . S
O214 C212 1.267 . S
O215 Zn201 1.965 . S
O215 C219 1.260 . S
O216 Zn200 1.969 . S
O216 C219 1.258 . S
O217 Zn201 2.024 . S
O217 C204 1.058 . S
C218 O207 1.260 . S
C218 O208 1.258 . S
C219 O215 1.260 . S
C219 O216 1.258 . S
Zn220 O226 1.969 . S
Zn220 O227 1.965 . S
Zn220 O231 2.024 . S
Zn220 O236 1.969 . S
Zn221 O228 1.969 . S
Zn221 O234 1.969 . S
Zn221 O235 1.965 . S
Zn221 O237 2.024 . S
C222 O223 1.229 . S
C222 O231 1.058 . S
O223 C222 1.229 . S
C224 O225 1.229 . S
C224 O237 1.058 . S
O225 C224 1.229 . S
O226 Zn220 1.969 . S
O226 C229 1.267 . S
O227 Zn220 1.965 . S
O227 C238 1.260 . S
O228 Zn221 1.969 . S
O228 C238 1.258 . S
C229 O226 1.267 . S
C229 O230 1.228 . S
O230 C229 1.228 . S
O231 Zn220 2.024 . S
O231 C222 1.058 . S
C232 O233 1.228 . S
C232 O234 1.267 . S
O233 C232 1.228 . S
O234 Zn221 1.969 . S
O234 C232 1.267 . S
O235 Zn221 1.965 . S
O235 C239 1.260 . S
O236 Zn220 1.969 . S
O236 C239 1.258 . S
O237 Zn221 2.024 . S
O237 C224 1.058 . S
C238 O227 1.260 . S
C238 O228 1.258 . S
C239 O235 1.260 . S
C239 O236 1.258 . S
Zn240 O246 1.969 . S
Zn240 O247 1.965 . S
Zn240 O251 2.024 . S
Zn240 O256 1.969 . S
Zn241 O248 1.969 . S
Zn241 O254 1.969 . S
Zn241 O255 1.965 . S
Zn241 O257 2.024 . S
C242 O243 1.229 . S
C242 O251 1.058 . S
O243 C242 1.229 . S
C244 O245 1.229 . S
C244 O257 1.058 . S
O245 C244 1.229 . S
O246 Zn240 1.969 . S
O246 C249 1.267 . S
O247 Zn240 1.965 . S
O247 C258 1.260 . S
O248 Zn241 1.969 . S
O248 C258 1.258 . S
C249 O246 1.267 . S
C249 O250 1.228 . S
O250 C249 1.228 . S
O251 Zn240 2.024 . S
O251 C242 1.058 . S
C252 O253 1.228 . S
C252 O254 1.267 . S
O253 C252 1.228 . S
O254 Zn241 1.969 . S
O254 C252 1.267 . S
O255 Zn241 1.965 . S
O255 C259 1.260 . S
O256 Zn240 1.969 . S
O256 C259 1.258 . S
O257 Zn241 2.024 . S
O257 C244 1.058 . S
C258 O247 1.260 . S
C258 O248 1.258 . S
C259 O255 1.260 . S
C259 O256 1.258 . S
Zn260 O266 1.969 . S
Zn260 O267 1.965 . S
Zn260 O271 2.024 . S
Zn260 O276 1.969 . S
Zn261 O268 1.969 . S
Zn261 O274 1.969 . S
Zn261 O275 1.965 . S
Zn261 O277 2.024 . S
C262 O263 1.229 . S
C262 O271 1.058 . S
O263 C262 1.229 . S
C264 O265 1.229 . S
C264 O277 1.058 . S
O265 C264 1.229 . S
O266 Zn260 1.969 . S
O266 C269 1.267 . S
O267 Zn260 1.965 . S
O267 C278 1.260 . S
O268 Zn261 1.969 . S
O268 C278 1.258 . S
C269 O266 1.267 . S
C269 O270 1.228 . S
O270 C269 1.228 . S
O271 Zn260 2.024 . S
O271 C262 1.058 . S
C272 O273 1.228 . S
C272 O274 1.267 . S
O273 C272 1.228 . S
O274 Zn261 1.969 . S
O274 C272 1.267 . S
O275 Zn261 1.965 . S
O275 C279 1.260 . S
O276 Zn260 1.969 . S
O276 C279 1.258 . S
O277 Zn261 2.024 . S
O277 C264 1.058 . S
C278 O267 1.260 . S
C278 O268 1.258 . S
C279 O275 1.260 . S
C279 O276 1.258 . S
Zn280 O286 1.969 . S
Zn280 O287 1.965 . S
Zn280 O291 2.024 . S
Zn280 O296 1.969 . S
Zn281 O288 1.969 . S
Zn281 O294 1.969 . S
Zn281 O295 1.965 . S
Zn281 O297 2.024 . S
C282 O283 1.229 . S
C282 O291 1.058 . S
O283 C282 1.229 . S
C284 O285 1.229 . S
C284 O297 1.058 . S
O285 C284 1.229 . S
O286 Zn280 1.969 . S
O286 C289 1.267 . S
O287 Zn280 1.965 . S
O287 C298 1.260 . S
O288 Zn281 1.969 . S
O288 C298 1.258 . S
C289 O286 1.267 . S
C289 O290 1.228 . S
O290 C289 1.228 . S
O291 Zn280 2.024 . S
O291 C282 1.058 . S
C292 O293 1.228 . S
C292 O294 1.267 . S
O293 C292 1.228 . S
O294 Zn281 1.969 . S
O294 C292 1.267 . S
O295 Zn281 1.965 . S
O295 C299 1.260 . S
O296 Zn280 1.969 . S
O296 C299 1.258 . S
O297 Zn281 2.024 . S
O297 C284 1.058 . S
C298 O287 1.260 . S
C298 O288 1.258 . S
C299 O295 1.260 . S
C299 O296 1.258 . S
Zn300 O306 1.969 . S
Zn300 O307 1.965 . S
Zn300 O311 2.024 . S
Zn300 O316 1.969 . S
Zn301 O308 1.969 . S
Zn301 O314 1.969 . S
Zn301 O315 1.965 . S
Zn301 O317 2.024 . S
C302 O303 1.229 . S
C302 O311 1.058 . S
O303 C302 1.229 . S
C304 O305 1.229 . S
C304 O317 1.058 . S
O305 C304 1.229 . S
O306 Zn300 1.969 . S
O306 C309 1.267 . S
O307 Zn300 1.965 . S
O307 C318 1.260 . S
O308 Zn301 1.969 . S
O308 C318 1.258 . S
C309 O306 1.267 . S
C309 O310 1.228 . S
O310 C309 1.228 . S
O311 Zn300 2.024 . S
O311 C302 1.058 . S
C312 O313 1.228 . S
C312 O314 1.267 . S
O313 C312 1.228 . S
O314 Zn301 1.969 . S
O314 C312 1.267 . S
O315 Zn301 1.965 . S
O315 C319 1.260 . S
O316 Zn300 1.969 . S
O316 C319 1.258 . S
O317 Zn301 2.024 . S
O317 C304 1.058 . S
C318 O307 1.260 . S
C318 O308 1.258 . S
C319 O315 1.260 . S
C319 O316 1.258 . S
H320 C326 0.930 . S
H321 C329 0.930 . S
H322 C330 0.930 . S
H323 C331 0.930 . S
H324 C334 0.930 . S
H325 C335 0.930 . S
C326 H320 0.930 . S
C326 C327 1.355 . S
C326 C328 1.415 1_565 S
C327 C326 1.355 . S
C327 C329 1.419 . S
C328 C326 1.415 1_545 S
C328 C333 1.425 . S
C328 C335 1.409 . S
C329 H321 0.930 . S
C329 C327 1.419 . S
C329 C330 1.362 1_565 S
C330 H322 0.930 . S
C330 C329 1.362 1_545 S
C330 C333 1.409 . S
C331 H323 0.930 . S
C331 C332 1.355 . S
C331 C333 1.415 . S
C332 C331 1.355 . S
C332 C334 1.419 . S
C333 C328 1.425 . S
C333 C330 1.409 . S
C333 C331 1.415 . S
C334 H324 0.930 . S
C334 C332 1.419 . S
C334 C335 1.362 . S
C335 H325 0.930 . S
C335 C328 1.409 . S
C335 C334 1.362 . S
H336 C342 0.930 . S
H337 C345 0.930 . S
H338 C346 0.930 . S
H339 C347 0.930 . S
H340 C350 0.930 . S
H341 C351 0.930 . S
C342 H336 0.930 . S
C342 C343 1.355 . S
C342 C344 1.415 1_655 S
C343 C342 1.355 . S
C343 C345 1.419 . S
C344 C342 1.415 1_455 S
C344 C349 1.425 . S
C344 C351 1.409 . S
C345 H337 0.930 . S
C345 C343 1.419 . S
C345 C346 1.362 1_655 S
C346 H338 0.930 . S
C346 C345 1.362 1_455 S
C346 C349 1.409 . S
C347 H339 0.930 . S
C347 C348 1.355 . S
C347 C349 1.415 . S
C348 C347 1.355 . S
C348 C350 1.419 . S
C349 C344 1.425 . S
C349 C346 1.409 . S
C349 C347 1.415 . S
C350 H340 0.930 . S
C350 C348 1.419 . S
C350 C351 1.362 . S
C351 H341 0.930 . S
C351 C344 1.409 . S
C351 C350 1.362 . S
H352 C358 0.930 . S
H353 C361 0.930 . S
H354 C362 0.930 . S
H355 C363 0.930 . S
H356 C366 0.930 . S
H357 C367 0.931 . S
C358 H352 0.930 . S
C358 C359 1.355 . S
C358 C360 1.415 . S
C359 C358 1.355 . S
C359 C361 1.419 . S
C360 C358 1.415 . S
C360 C365 1.425 . S
C360 C367 1.412 . S
C361 H353 0.930 . S
C361 C359 1.419 . S
C361 C362 1.362 . S
C362 H354 0.930 . S
C362 C361 1.362 . S
C362 C365 1.409 . S
C363 H355 0.930 . S
C363 C364 1.355 . S
C363 C365 1.415 1_545 S
C364 C363 1.355 . S
C364 C366 1.419 . S
C365 C360 1.425 . S
C365 C362 1.409 . S
C365 C363 1.415 1_565 S
C366 H356 0.930 . S
C366 C364 1.419 . S
C366 C367 1.359 1_545 S
C367 H357 0.931 . S
C367 C360 1.412 . S
C367 C366 1.359 1_565 S
H368 C374 0.930 . S
H369 C377 0.930 . S
H370 C378 0.930 . S
H371 C379 0.930 . S
H372 C382 0.930 . S
H373 C383 0.930 . S
C374 H368 0.930 . S
C374 C375 1.355 . S
C374 C376 1.415 . S
C375 C374 1.355 . S
C375 C377 1.419 . S
C376 C374 1.415 . S
C376 C381 1.425 . S
C376 C383 1.409 . S
C377 H369 0.930 . S
C377 C375 1.419 . S
C377 C378 1.362 . S
C378 H370 0.930 . S
C378 C377 1.362 . S
C378 C381 1.409 . S
C379 H371 0.930 . S
C379 C380 1.355 . S
C379 C381 1.415 1_455 S
C380 C379 1.355 . S
C380 C382 1.419 . S
C381 C376 1.425 . S
C381 C378 1.409 . S
C381 C379 1.415 1_655 S
C382 H372 0.930 . S
C382 C380 1.419 . S
C382 C383 1.362 1_455 S
C383 H373 0.930 . S
C383 C376 1.409 . S
C383 C382 1.362 1_655 S
H384 C390 0.930 . S
H385 C393 0.930 . S
H386 C394 0.930 . S
H387 C395 0.930 . S
H388 C398 0.930 . S
H389 C399 0.930 . S
C390 H384 0.930 . S
C390 C391 1.355 . S
C390 C392 1.415 . S
C391 C390 1.355 . S
C391 C393 1.419 1_554 S
C392 C390 1.415 . S
C392 C397 1.425 . S
C392 C399 1.409 . S
C393 H385 0.930 . S
C393 C391 1.419 1_556 S
C393 C394 1.362 . S
C394 H386 0.930 . S
C394 C393 1.362 . S
C394 C397 1.409 1_556 S
C395 H387 0.930 . S
C395 C396 1.355 1_556 S
C395 C397 1.415 1_556 S
C396 C395 1.355 1_554 S
C396 C398 1.419 . S
C397 C392 1.425 . S
C397 C394 1.409 1_554 S
C397 C395 1.415 1_554 S
C398 H388 0.930 . S
C398 C396 1.419 . S
C398 C399 1.362 . S
C399 H389 0.930 . S
C399 C392 1.409 . S
C399 C398 1.362 . S
H400 C406 0.930 . S
H401 C409 0.930 . S
H402 C410 0.930 . S
H403 C411 0.930 1_554 S
H404 C414 0.930 . S
H405 C415 0.930 . S
C406 H400 0.930 . S
C406 C407 1.354 . S
C406 C408 1.415 . S
C407 C406 1.354 . S
C407 C409 1.420 1_556 S
C408 C406 1.415 . S
C408 C413 1.425 . S
C408 C415 1.409 . S
C409 H401 0.930 . S
C409 C407 1.420 1_554 S
C409 C410 1.362 . S
C410 H402 0.930 . S
C410 C409 1.362 . S
C410 C413 1.409 1_554 S
C411 H403 0.930 1_556 S
C411 C412 1.355 . S
C411 C413 1.415 . S
C412 C411 1.355 . S
C412 C414 1.419 . S
C413 C408 1.425 . S
C413 C410 1.409 1_556 S
C413 C411 1.415 . S
C414 H404 0.930 . S
C414 C412 1.419 . S
C414 C415 1.362 . S
C415 H405 0.930 . S
C415 C408 1.409 . S
C415 C414 1.362 . S
H416 C422 0.930 1_556 S
H417 C425 0.930 . S
H418 C426 0.930 . S
H419 C427 0.930 . S
H420 C430 0.930 . S
H421 C431 0.930 . S
C422 H416 0.930 1_554 S
C422 C423 1.355 . S
C422 C424 1.415 . S
C423 C422 1.355 . S
C423 C425 1.419 . S
C424 C422 1.415 . S
C424 C429 1.425 . S
C424 C431 1.409 1_554 S
C425 H417 0.930 . S
C425 C423 1.419 . S
C425 C426 1.362 . S
C426 H418 0.930 . S
C426 C425 1.362 . S
C426 C429 1.409 . S
C427 H419 0.930 . S
C427 C428 1.356 1_554 S
C427 C429 1.415 . S
C428 C427 1.356 1_556 S
C428 C430 1.418 . S
C429 C424 1.425 . S
C429 C426 1.409 . S
C429 C427 1.415 . S
C430 H420 0.930 . S
C430 C428 1.418 . S
C430 C431 1.362 . S
C431 H421 0.930 . S
C431 C424 1.409 1_556 S
C431 C430 1.362 . S
H432 C438 0.930 . S
H433 C441 0.930 . S
H434 C442 0.930 . S
H435 C443 0.930 . S
H436 C446 0.930 . S
H437 C447 0.930 . S
C438 H432 0.930 . S
C438 C439 1.355 . S
C438 C440 1.415 . S
C439 C438 1.355 . S
C439 C441 1.419 1_556 S
C440 C438 1.415 . S
C440 C445 1.425 . S
C440 C447 1.409 . S
C441 H433 0.930 . S
C441 C439 1.419 1_554 S
C441 C442 1.362 . S
C442 H434 0.930 . S
C442 C441 1.362 . S
C442 C445 1.409 1_554 S
C443 H435 0.930 . S
C443 C444 1.355 . S
C443 C445 1.415 . S
C444 C443 1.355 . S
C444 C446 1.419 . S
C445 C440 1.425 . S
C445 C442 1.409 1_556 S
C445 C443 1.415 . S
C446 H436 0.930 . S
C446 C444 1.419 . S
C446 C447 1.362 . S
C447 H437 0.930 . S
C447 C440 1.409 . S
C447 C446 1.362 . S
H448 C454 0.930 . S
H449 C457 0.930 . S
H450 C458 0.930 . S
H451 C459 0.930 . S
H452 C462 0.930 . S
H453 C463 0.930 . S
C454 H448 0.930 . S
C454 C455 1.355 . S
C454 C456 1.415 . S
C455 C454 1.355 . S
C455 C457 1.419 . S
C456 C454 1.415 . S
C456 C461 1.425 . S
C456 C463 1.409 . S
C457 H449 0.930 . S
C457 C455 1.419 . S
C457 C458 1.362 . S
C458 H450 0.930 . S
C458 C457 1.362 . S
C458 C461 1.409 . S
C459 H451 0.930 . S
C459 C460 1.355 . S
C459 C461 1.415 . S
C460 C459 1.355 . S
C460 C462 1.419 . S
C461 C456 1.425 . S
C461 C458 1.409 . S
C461 C459 1.415 . S
C462 H452 0.930 . S
C462 C460 1.419 . S
C462 C463 1.362 . S
C463 H453 0.930 . S
C463 C456 1.409 . S
C463 C462 1.362 . S
H464 C470 0.930 . S
H465 C473 0.930 . S
H466 C474 0.930 . S
H467 C475 0.930 . S
H468 C478 0.930 . S
H469 C479 0.930 . S
C470 H464 0.930 . S
C470 C471 1.355 . S
C470 C472 1.415 . S
C471 C470 1.355 . S
C471 C473 1.419 . S
C472 C470 1.415 . S
C472 C477 1.425 . S
C472 C479 1.409 . S
C473 H465 0.930 . S
C473 C471 1.419 . S
C473 C474 1.362 . S
C474 H466 0.930 . S
C474 C473 1.362 . S
C474 C477 1.409 . S
C475 H467 0.930 . S
C475 C476 1.355 . S
C475 C477 1.415 . S
C476 C475 1.355 . S
C476 C478 1.419 . S
C477 C472 1.425 . S
C477 C474 1.409 . S
C477 C475 1.415 . S
C478 H468 0.930 . S
C478 C476 1.419 . S
C478 C479 1.362 . S
C479 H469 0.930 . S
C479 C472 1.409 . S
C479 C478 1.362 . S
H480 C486 0.930 . S
H481 C489 0.930 . S
H482 C490 0.930 . S
H483 C491 0.930 . S
H484 C494 0.930 . S
H485 C495 0.930 . S
C486 H480 0.930 . S
C486 C487 1.355 . S
C486 C488 1.415 . S
C487 C486 1.355 . S
C487 C489 1.419 . S
C488 C486 1.415 . S
C488 C493 1.425 . S
C488 C495 1.409 . S
C489 H481 0.930 . S
C489 C487 1.419 . S
C489 C490 1.362 . S
C490 H482 0.930 . S
C490 C489 1.362 . S
C490 C493 1.409 . S
C491 H483 0.930 . S
C491 C492 1.355 . S
C491 C493 1.415 . S
C492 C491 1.355 . S
C492 C494 1.419 . S
C493 C488 1.425 . S
C493 C490 1.409 . S
C493 C491 1.415 . S
C494 H484 0.930 . S
C494 C492 1.419 . S
C494 C495 1.362 . S
C495 H485 0.930 . S
C495 C488 1.409 . S
C495 C494 1.362 . S
H496 C502 0.930 . S
H497 C505 0.930 . S
H498 C506 0.930 . S
H499 C507 0.930 . S
H500 C510 0.930 . S
H501 C511 0.930 . S
C502 H496 0.930 . S
C502 C503 1.355 . S
C502 C504 1.415 . S
C503 C502 1.355 . S
C503 C505 1.419 . S
C504 C502 1.415 . S
C504 C509 1.425 . S
C504 C511 1.409 . S
C505 H497 0.930 . S
C505 C503 1.419 . S
C505 C506 1.362 . S
C506 H498 0.930 . S
C506 C505 1.362 . S
C506 C509 1.409 . S
C507 H499 0.930 . S
C507 C508 1.355 . S
C507 C509 1.415 . S
C508 C507 1.355 . S
C508 C510 1.419 . S
C509 C504 1.425 . S
C509 C506 1.409 . S
C509 C507 1.415 . S
C510 H500 0.930 . S
C510 C508 1.419 . S
C510 C511 1.362 . S
C511 H501 0.930 . S
C511 C504 1.409 . S
C511 C510 1.362 . S
H512 C518 0.930 . S
H513 C521 0.930 . S
H514 C522 0.930 . S
H515 C523 0.930 . S
H516 C526 0.930 . S
H517 C527 0.930 . S
C518 H512 0.930 . S
C518 C519 1.355 . S
C518 C520 1.415 . S
C519 C518 1.355 . S
C519 C521 1.419 . S
C520 C518 1.415 . S
C520 C525 1.425 . S
C520 C527 1.406 . S
C521 H513 0.930 . S
C521 C519 1.419 . S
C521 C522 1.362 . S
C522 H514 0.930 . S
C522 C521 1.362 . S
C522 C525 1.409 . S
C523 H515 0.930 . S
C523 C524 1.355 . S
C523 C525 1.415 1_545 S
C524 C523 1.355 . S
C524 C526 1.419 . S
C525 C520 1.425 . S
C525 C522 1.409 . S
C525 C523 1.415 1_565 S
C526 H516 0.930 . S
C526 C524 1.419 . S
C526 C527 1.365 1_545 S
C527 H517 0.930 . S
C527 C520 1.406 . S
C527 C526 1.365 1_565 S
H528 C534 0.930 . S
H529 C537 0.930 . S
H530 C538 0.930 . S
H531 C539 0.930 . S
H532 C542 0.930 . S
H533 C543 0.930 . S
C534 H528 0.930 . S
C534 C535 1.355 . S
C534 C536 1.415 1_455 S
C535 C534 1.355 . S
C535 C537 1.419 . S
C536 C534 1.415 1_655 S
C536 C541 1.425 . S
C536 C543 1.409 . S
C537 H529 0.930 . S
C537 C535 1.419 . S
C537 C538 1.362 1_455 S
C538 H530 0.930 . S
C538 C537 1.362 1_655 S
C538 C541 1.409 . S
C539 H531 0.930 . S
C539 C540 1.355 . S
C539 C541 1.415 . S
C540 C539 1.355 . S
C540 C542 1.419 . S
C541 C536 1.425 . S
C541 C538 1.409 . S
C541 C539 1.415 . S
C542 H532 0.930 . S
C542 C540 1.419 . S
C542 C543 1.362 . S
C543 H533 0.930 . S
C543 C536 1.409 . S
C543 C542 1.362 . S
H544 C550 0.930 . S
H545 C553 0.930 . S
H546 C554 0.935 . S
H547 C555 0.930 . S
H548 C558 0.930 . S
H549 C559 0.930 . S
C550 H544 0.930 . S
C550 C551 1.355 . S
C550 C552 1.415 1_565 S
C551 C550 1.355 . S
C551 C553 1.419 . S
C552 C550 1.415 1_545 S
C552 C557 1.425 . S
C552 C559 1.409 . S
C553 H545 0.930 . S
C553 C551 1.419 . S
C553 C554 1.329 1_565 S
C554 H546 0.935 . S
C554 C553 1.329 1_545 S
C554 C557 1.439 . S
C555 H547 0.930 . S
C555 C556 1.355 . S
C555 C557 1.415 . S
C556 C555 1.355 . S
C556 C558 1.419 . S
C557 C552 1.425 . S
C557 C554 1.439 . S
C557 C555 1.415 . S
C558 H548 0.930 . S
C558 C556 1.419 . S
C558 C559 1.362 . S
C559 H549 0.930 . S
C559 C552 1.409 . S
C559 C558 1.362 . S
H560 C566 0.930 . S
H561 C569 0.930 . S
H562 C570 0.930 . S
H563 C571 0.930 . S
H564 C574 0.930 . S
H565 C575 0.930 . S
C566 H560 0.930 . S
C566 C567 1.355 . S
C566 C568 1.415 . S
C567 C566 1.355 . S
C567 C569 1.419 . S
C568 C566 1.415 . S
C568 C573 1.425 . S
C568 C575 1.409 . S
C569 H561 0.930 . S
C569 C567 1.419 . S
C569 C570 1.362 . S
C570 H562 0.930 . S
C570 C569 1.362 . S
C570 C573 1.409 . S
C571 H563 0.930 . S
C571 C572 1.355 . S
C571 C573 1.415 1_655 S
C572 C571 1.355 . S
C572 C574 1.419 . S
C573 C568 1.425 . S
C573 C570 1.409 . S
C573 C571 1.415 1_455 S
C574 H564 0.930 . S
C574 C572 1.419 . S
C574 C575 1.362 1_655 S
C575 H565 0.930 . S
C575 C568 1.409 . S
C575 C574 1.362 1_455 S
H576 C582 0.930 . S
H577 C585 0.930 . S
H578 C586 0.930 . S
H579 C587 0.930 . S
H580 C590 0.930 . S
H581 C591 0.930 . S
C582 H576 0.930 . S
C582 C583 1.355 . S
C582 C584 1.415 . S
C583 C582 1.355 . S
C583 C585 1.419 . S
C584 C582 1.415 . S
C584 C589 1.425 . S
C584 C591 1.409 . S
C585 H577 0.930 . S
C585 C583 1.419 . S
C585 C586 1.362 . S
C586 H578 0.930 . S
C586 C585 1.362 . S
C586 C589 1.409 . S
C587 H579 0.930 . S
C587 C588 1.355 . S
C587 C589 1.415 . S
C588 C587 1.355 . S
C588 C590 1.419 . S
C589 C584 1.425 . S
C589 C586 1.409 . S
C589 C587 1.415 . S
C590 H580 0.930 . S
C590 C588 1.419 . S
C590 C591 1.362 . S
C591 H581 0.930 . S
C591 C584 1.409 . S
C591 C590 1.362 . S
H592 C598 0.930 . S
H593 C601 0.930 . S
H594 C602 0.930 . S
H595 C603 0.930 . S
H596 C606 0.930 . S
H597 C607 0.930 1_554 S
C598 H592 0.930 . S
C598 C599 1.355 . S
C598 C600 1.415 . S
C599 C598 1.355 . S
C599 C601 1.419 . S
C600 C598 1.415 . S
C600 C605 1.425 . S
C600 C607 1.409 . S
C601 H593 0.930 . S
C601 C599 1.419 . S
C601 C602 1.362 . S
C602 H594 0.930 . S
C602 C601 1.362 . S
C602 C605 1.409 . S
C603 H595 0.930 . S
C603 C604 1.355 . S
C603 C605 1.415 . S
C604 C603 1.355 . S
C604 C606 1.419 . S
C605 C600 1.425 . S
C605 C602 1.409 . S
C605 C603 1.415 . S
C606 H596 0.930 . S
C606 C604 1.419 . S
C606 C607 1.362 . S
C607 H597 0.930 1_556 S
C607 C600 1.409 . S
C607 C606 1.362 . S
H608 C614 0.930 . S
H609 C617 0.930 1_556 S
H610 C618 0.930 1_556 S
H611 C619 0.930 . S
H612 C622 0.930 . S
H613 C623 0.930 . S
C614 H608 0.930 . S
C614 C615 1.355 . S
C614 C616 1.415 . S
C615 C614 1.355 . S
C615 C617 1.419 . S
C616 C614 1.415 . S
C616 C621 1.425 . S
C616 C623 1.409 . S
C617 H609 0.930 1_554 S
C617 C615 1.419 . S
C617 C618 1.362 . S
C618 H610 0.930 1_554 S
C618 C617 1.362 . S
C618 C621 1.409 . S
C619 H611 0.930 . S
C619 C620 1.355 . S
C619 C621 1.415 . S
C620 C619 1.355 . S
C620 C622 1.419 . S
C621 C616 1.425 . S
C621 C618 1.409 . S
C621 C619 1.415 . S
C622 H612 0.930 . S
C622 C620 1.419 . S
C622 C623 1.362 . S
C623 H613 0.930 . S
C623 C616 1.409 . S
C623 C622 1.362 . S
H624 C630 0.930 . S
H625 C633 0.930 . S
H626 C634 0.930 . S
H627 C635 0.930 . S
H628 C638 0.930 . S
H629 C639 0.930 1_554 S
C630 H624 0.930 . S
C630 C631 1.355 . S
C630 C632 1.415 . S
C631 C630 1.355 . S
C631 C633 1.419 . S
C632 C630 1.415 . S
C632 C637 1.425 . S
C632 C639 1.409 . S
C633 H625 0.930 . S
C633 C631 1.419 . S
C633 C634 1.362 . S
C634 H626 0.930 . S
C634 C633 1.362 . S
C634 C637 1.409 . S
C635 H627 0.930 . S
C635 C636 1.355 . S
C635 C637 1.415 . S
C636 C635 1.355 . S
C636 C638 1.419 . S
C637 C632 1.425 . S
C637 C634 1.409 . S
C637 C635 1.415 . S
C638 H628 0.930 . S
C638 C636 1.419 . S
C638 C639 1.362 . S
C639 H629 0.930 1_556 S
C639 C632 1.409 . S
C639 C638 1.362 . S
H640 C646 0.930 . S
H641 C649 0.930 . S
H642 C650 0.930 . S
H643 C651 0.930 . S
H644 C654 0.930 . S
H645 C655 0.930 . S
C646 H640 0.930 . S
C646 C647 1.355 . S
C646 C648 1.415 . S
C647 C646 1.355 . S
C647 C649 1.419 . S
C648 C646 1.415 . S
C648 C653 1.425 . S
C648 C655 1.409 . S
C649 H641 0.930 . S
C649 C647 1.419 . S
C649 C650 1.362 . S
C650 H642 0.930 . S
C650 C649 1.362 . S
C650 C653 1.409 . S
C651 H643 0.930 . S
C651 C652 1.355 . S
C651 C653 1.415 . S
C652 C651 1.355 . S
C652 C654 1.419 . S
C653 C648 1.425 . S
C653 C650 1.409 . S
C653 C651 1.415 . S
C654 H644 0.930 . S
C654 C652 1.419 . S
C654 C655 1.362 . S
C655 H645 0.930 . S
C655 C648 1.409 . S
C655 C654 1.362 . S
H656 C662 0.930 . S
H657 C665 0.930 . S
H658 C666 0.930 . S
H659 C667 0.930 . S
H660 C670 0.930 . S
H661 C671 0.930 . S
C662 H656 0.930 . S
C662 C663 1.355 . S
C662 C664 1.415 . S
C663 C662 1.355 . S
C663 C665 1.419 . S
C664 C662 1.415 . S
C664 C669 1.425 . S
C664 C671 1.409 . S
C665 H657 0.930 . S
C665 C663 1.419 . S
C665 C666 1.362 . S
C666 H658 0.930 . S
C666 C665 1.362 . S
C666 C669 1.409 . S
C667 H659 0.930 . S
C667 C668 1.355 . S
C667 C669 1.415 . S
C668 C667 1.355 . S
C668 C670 1.419 . S
C669 C664 1.425 . S
C669 C666 1.409 . S
C669 C667 1.415 . S
C670 H660 0.930 . S
C670 C668 1.419 . S
C670 C671 1.362 . S
C671 H661 0.930 . S
C671 C664 1.409 . S
C671 C670 1.362 . S
H672 C678 0.930 . S
H673 C681 0.930 . S
H674 C682 0.930 . S
H675 C683 0.930 . S
H676 C686 0.930 . S
H677 C687 0.930 . S
C678 H672 0.930 . S
C678 C679 1.355 . S
C678 C680 1.415 . S
C679 C678 1.355 . S
C679 C681 1.419 . S
C680 C678 1.415 . S
C680 C685 1.425 . S
C680 C687 1.409 . S
C681 H673 0.930 . S
C681 C679 1.419 . S
C681 C682 1.362 . S
C682 H674 0.930 . S
C682 C681 1.362 . S
C682 C685 1.409 . S
C683 H675 0.930 . S
C683 C684 1.355 . S
C683 C685 1.415 . S
C684 C683 1.355 . S
C684 C686 1.419 . S
C685 C680 1.425 . S
C685 C682 1.409 . S
C685 C683 1.415 . S
C686 H676 0.930 . S
C686 C684 1.419 . S
C686 C687 1.362 . S
C687 H677 0.930 . S
C687 C680 1.409 . S
C687 C686 1.362 . S
H688 C694 0.930 . S
H689 C697 0.930 . S
H690 C698 0.930 . S
H691 C699 0.930 . S
H692 C702 0.930 . S
H693 C703 0.930 . S
C694 H688 0.930 . S
C694 C695 1.355 . S
C694 C696 1.415 . S
C695 C694 1.355 . S
C695 C697 1.419 . S
C696 C694 1.415 . S
C696 C701 1.425 . S
C696 C703 1.409 . S
C697 H689 0.930 . S
C697 C695 1.419 . S
C697 C698 1.362 . S
C698 H690 0.930 . S
C698 C697 1.362 . S
C698 C701 1.409 . S
C699 H691 0.930 . S
C699 C700 1.355 . S
C699 C701 1.415 . S
C700 C699 1.355 . S
C700 C702 1.419 . S
C701 C696 1.425 . S
C701 C698 1.409 . S
C701 C699 1.415 . S
C702 H692 0.930 . S
C702 C700 1.419 . S
C702 C703 1.362 . S
C703 H693 0.930 . S
C703 C696 1.409 . S
C703 C702 1.362 . S
H704 C710 0.930 . S
H705 C713 0.930 . S
H706 C714 0.930 . S
H707 C715 0.930 1_554 S
H708 C718 0.930 . S
H709 C719 0.930 . S
C710 H704 0.930 . S
C710 C711 1.355 . S
C710 C712 1.415 . S
C711 C710 1.355 . S
C711 C713 1.419 . S
C712 C710 1.415 . S
C712 C717 1.425 . S
C712 C719 1.409 . S
C713 H705 0.930 . S
C713 C711 1.419 . S
C713 C714 1.362 . S
C714 H706 0.930 . S
C714 C713 1.362 . S
C714 C717 1.409 . S
C715 H707 0.930 1_556 S
C715 C716 1.355 . S
C715 C717 1.415 . S
C716 C715 1.355 . S
C716 C718 1.419 . S
C717 C712 1.425 . S
C717 C714 1.409 . S
C717 C715 1.415 . S
C718 H708 0.930 . S
C718 C716 1.419 . S
C718 C719 1.362 . S
C719 H709 0.930 . S
C719 C712 1.409 . S
C719 C718 1.362 . S
H720 C726 0.930 . S
H721 C729 0.930 . S
H722 C730 0.930 . S
H723 C731 0.930 . S
H724 C734 0.930 . S
H725 C735 0.930 . S
C726 H720 0.930 . S
C726 C727 1.355 . S
C726 C728 1.415 . S
C727 C726 1.355 . S
C727 C729 1.419 1_554 S
C728 C726 1.415 . S
C728 C733 1.425 . S
C728 C735 1.409 . S
C729 H721 0.930 . S
C729 C727 1.419 1_556 S
C729 C730 1.362 1_556 S
C730 H722 0.930 . S
C730 C729 1.362 1_554 S
C730 C733 1.409 . S
C731 H723 0.930 . S
C731 C732 1.355 . S
C731 C733 1.415 . S
C732 C731 1.355 . S
C732 C734 1.419 . S
C733 C728 1.425 . S
C733 C730 1.409 . S
C733 C731 1.415 . S
C734 H724 0.930 . S
C734 C732 1.419 . S
C734 C735 1.362 . S
C735 H725 0.930 . S
C735 C728 1.409 . S
C735 C734 1.362 . S
H736 C742 0.930 . S
H737 C745 0.930 1_554 S
H738 C746 0.930 . S
H739 C747 0.930 . S
H740 C750 0.930 . S
H741 C751 0.930 . S
C742 H736 0.930 . S
C742 C743 1.355 . S
C742 C744 1.415 . S
C743 C742 1.355 . S
C743 C745 1.419 . S
C744 C742 1.415 . S
C744 C749 1.425 . S
C744 C751 1.409 . S
C745 H737 0.930 1_556 S
C745 C743 1.419 . S
C745 C746 1.362 . S
C746 H738 0.930 . S
C746 C745 1.362 . S
C746 C749 1.409 . S
C747 H739 0.930 . S
C747 C748 1.355 . S
C747 C749 1.415 . S
C748 C747 1.355 . S
C748 C750 1.419 . S
C749 C744 1.425 . S
C749 C746 1.409 . S
C749 C747 1.415 . S
C750 H740 0.930 . S
C750 C748 1.419 . S
C750 C751 1.362 . S
C751 H741 0.930 . S
C751 C744 1.409 . S
C751 C750 1.362 . S
H752 C758 0.930 . S
H753 C761 0.930 . S
H754 C762 0.930 1_556 S
H755 C763 0.930 . S
H756 C766 0.930 . S
H757 C767 0.930 . S
C758 H752 0.930 . S
C758 C759 1.355 . S
C758 C760 1.415 . S
C759 C758 1.355 . S
C759 C761 1.419 1_554 S
C760 C758 1.415 . S
C760 C765 1.425 . S
C760 C767 1.409 . S
C761 H753 0.930 . S
C761 C759 1.419 1_556 S
C761 C762 1.362 1_556 S
C762 H754 0.930 1_554 S
C762 C761 1.362 1_554 S
C762 C765 1.409 . S
C763 H755 0.930 . S
C763 C764 1.355 . S
C763 C765 1.415 . S
C764 C763 1.355 . S
C764 C766 1.419 . S
C765 C760 1.425 . S
C765 C762 1.409 . S
C765 C763 1.415 . S
C766 H756 0.930 . S
C766 C764 1.419 . S
C766 C767 1.362 . S
C767 H757 0.930 . S
C767 C760 1.409 . S
C767 C766 1.362 . S
H768 C774 0.930 . S
H769 C777 0.930 . S
H770 C778 0.930 . S
H771 C779 0.930 . S
H772 C782 0.930 . S
H773 C783 0.930 . S
C774 H768 0.930 . S
C774 C775 1.355 . S
C774 C776 1.415 . S
C775 C774 1.355 . S
C775 C777 1.419 . S
C776 C774 1.415 . S
C776 C781 1.425 . S
C776 C783 1.409 . S
C777 H769 0.930 . S
C777 C775 1.419 . S
C777 C778 1.362 . S
C778 H770 0.930 . S
C778 C777 1.362 . S
C778 C781 1.409 . S
C779 H771 0.930 . S
C779 C780 1.355 . S
C779 C781 1.415 . S
C780 C779 1.355 . S
C780 C782 1.419 . S
C781 C776 1.425 . S
C781 C778 1.409 . S
C781 C779 1.415 . S
C782 H772 0.930 . S
C782 C780 1.419 . S
C782 C783 1.362 . S
C783 H773 0.930 . S
C783 C776 1.409 . S
C783 C782 1.362 . S
H784 C790 0.930 . S
H785 C793 0.930 . S
H786 C794 0.930 . S
H787 C795 0.930 . S
H788 C798 0.930 . S
H789 C799 0.930 . S
C790 H784 0.930 . S
C790 C791 1.355 . S
C790 C792 1.415 . S
C791 C790 1.355 . S
C791 C793 1.419 . S
C792 C790 1.415 . S
C792 C797 1.425 . S
C792 C799 1.409 . S
C793 H785 0.930 . S
C793 C791 1.419 . S
C793 C794 1.362 . S
C794 H786 0.930 . S
C794 C793 1.362 . S
C794 C797 1.409 . S
C795 H787 0.930 . S
C795 C796 1.355 . S
C795 C797 1.415 . S
C796 C795 1.355 . S
C796 C798 1.419 . S
C797 C792 1.425 . S
C797 C794 1.409 . S
C797 C795 1.415 . S
C798 H788 0.930 . S
C798 C796 1.419 . S
C798 C799 1.362 . S
C799 H789 0.930 . S
C799 C792 1.409 . S
C799 C798 1.362 . S
H800 C806 0.930 . S
H801 C809 0.930 . S
H802 C810 0.930 . S
H803 C811 0.930 . S
H804 C814 0.930 . S
H805 C815 0.930 . S
C806 H800 0.930 . S
C806 C807 1.355 . S
C806 C808 1.415 . S
C807 C806 1.355 . S
C807 C809 1.419 . S
C808 C806 1.415 . S
C808 C813 1.425 . S
C808 C815 1.409 . S
C809 H801 0.930 . S
C809 C807 1.419 . S
C809 C810 1.362 . S
C810 H802 0.930 . S
C810 C809 1.362 . S
C810 C813 1.409 . S
C811 H803 0.930 . S
C811 C812 1.355 . S
C811 C813 1.415 . S
C812 C811 1.355 . S
C812 C814 1.419 . S
C813 C808 1.425 . S
C813 C810 1.409 . S
C813 C811 1.415 . S
C814 H804 0.930 . S
C814 C812 1.419 . S
C814 C815 1.362 . S
C815 H805 0.930 . S
C815 C808 1.409 . S
C815 C814 1.362 . S
H816 C822 0.930 . S
H817 C825 0.930 . S
H818 C826 0.930 . S
H819 C827 0.930 . S
H820 C830 0.930 . S
H821 C831 0.930 . S
C822 H816 0.930 . S
C822 C823 1.355 . S
C822 C824 1.415 . S
C823 C822 1.355 . S
C823 C825 1.419 . S
C824 C822 1.415 . S
C824 C829 1.425 . S
C824 C831 1.409 . S
C825 H817 0.930 . S
C825 C823 1.419 . S
C825 C826 1.362 . S
C826 H818 0.930 . S
C826 C825 1.362 . S
C826 C829 1.409 . S
C827 H819 0.930 . S
C827 C828 1.355 . S
C827 C829 1.415 . S
C828 C827 1.355 . S
C828 C830 1.419 . S
C829 C824 1.425 . S
C829 C826 1.409 . S
C829 C827 1.415 . S
C830 H820 0.930 . S
C830 C828 1.419 . S
C830 C831 1.362 . S
C831 H821 0.930 . S
C831 C824 1.409 . S
C831 C830 1.362 . S
H832 C838 0.930 . S
H833 C841 0.930 . S
H834 C842 0.930 . S
H835 C843 0.930 . S
H836 C846 0.930 . S
H837 C847 0.930 . S
C838 H832 0.930 . S
C838 C839 1.355 . S
C838 C840 1.415 . S
C839 C838 1.355 . S
C839 C841 1.419 . S
C840 C838 1.415 . S
C840 C845 1.425 . S
C840 C847 1.409 . S
C841 H833 0.930 . S
C841 C839 1.419 . S
C841 C842 1.362 . S
C842 H834 0.930 . S
C842 C841 1.362 . S
C842 C845 1.409 . S
C843 H835 0.930 . S
C843 C844 1.355 . S
C843 C845 1.415 . S
C844 C843 1.355 . S
C844 C846 1.419 . S
C845 C840 1.425 . S
C845 C842 1.409 . S
C845 C843 1.415 . S
C846 H836 0.930 . S
C846 C844 1.419 . S
C846 C847 1.362 . S
C847 H837 0.930 . S
C847 C840 1.409 . S
C847 C846 1.362 . S
H848 C854 0.930 . S
H849 C857 0.930 . S
H850 C858 0.930 . S
H851 C859 0.930 . S
H852 C862 0.930 . S
H853 C863 0.930 . S
C854 H848 0.930 . S
C854 C855 1.355 . S
C854 C856 1.415 . S
C855 C854 1.355 . S
C855 C857 1.419 . S
C856 C854 1.415 . S
C856 C861 1.425 . S
C856 C863 1.409 . S
C857 H849 0.930 . S
C857 C855 1.419 . S
C857 C858 1.362 . S
C858 H850 0.930 . S
C858 C857 1.362 . S
C858 C861 1.409 . S
C859 H851 0.930 . S
C859 C860 1.355 . S
C859 C861 1.415 . S
C860 C859 1.355 . S
C860 C862 1.419 . S
C861 C856 1.425 . S
C861 C858 1.409 . S
C861 C859 1.415 . S
C862 H852 0.930 . S
C862 C860 1.419 . S
C862 C863 1.362 . S
C863 H853 0.930 . S
C863 C856 1.409 . S
C863 C862 1.362 . S
H864 C870 0.930 . S
H865 C873 0.930 . S
H866 C874 0.930 . S
H867 C875 0.930 . S
H868 C878 0.930 . S
H869 C879 0.930 . S
C870 H864 0.930 . S
C870 C871 1.355 . S
C870 C872 1.415 . S
C871 C870 1.355 . S
C871 C873 1.419 . S
C872 C870 1.415 . S
C872 C877 1.425 . S
C872 C879 1.409 . S
C873 H865 0.930 . S
C873 C871 1.419 . S
C873 C874 1.362 . S
C874 H866 0.930 . S
C874 C873 1.362 . S
C874 C877 1.409 . S
C875 H867 0.930 . S
C875 C876 1.355 . S
C875 C877 1.415 . S
C876 C875 1.355 . S
C876 C878 1.419 . S
C877 C872 1.425 . S
C877 C874 1.409 . S
C877 C875 1.415 . S
C878 H868 0.930 . S
C878 C876 1.419 . S
C878 C879 1.362 . S
C879 H869 0.930 . S
C879 C872 1.409 . S
C879 C878 1.362 . S
H880 C886 0.930 . S
H881 C889 0.930 . S
H882 C890 0.930 . S
H883 C891 0.930 . S
H884 C894 0.930 . S
H885 C895 0.930 . S
C886 H880 0.930 . S
C886 C887 1.355 . S
C886 C888 1.415 . S
C887 C886 1.355 . S
C887 C889 1.419 . S
C888 C886 1.415 . S
C888 C893 1.425 . S
C888 C895 1.409 . S
C889 H881 0.930 . S
C889 C887 1.419 . S
C889 C890 1.362 . S
C890 H882 0.930 . S
C890 C889 1.362 . S
C890 C893 1.409 . S
C891 H883 0.930 . S
C891 C892 1.355 . S
C891 C893 1.415 . S
C892 C891 1.355 . S
C892 C894 1.419 . S
C893 C888 1.425 . S
C893 C890 1.409 . S
C893 C891 1.415 . S
C894 H884 0.930 . S
C894 C892 1.419 . S
C894 C895 1.362 . S
C895 H885 0.930 . S
C895 C888 1.409 . S
C895 C894 1.362 . S
H896 C902 0.930 . S
H897 C905 0.930 . S
H898 C906 0.930 . S
H899 C907 0.930 . S
H900 C910 0.930 . S
H901 C911 0.930 . S
C902 H896 0.930 . S
C902 C903 1.355 . S
C902 C904 1.415 . S
C903 C902 1.355 . S
C903 C905 1.419 . S
C904 C902 1.415 . S
C904 C909 1.425 . S
C904 C911 1.409 . S
C905 H897 0.930 . S
C905 C903 1.419 . S
C905 C906 1.362 . S
C906 H898 0.930 . S
C906 C905 1.362 . S
C906 C909 1.409 . S
C907 H899 0.930 . S
C907 C908 1.355 . S
C907 C909 1.415 . S
C908 C907 1.355 . S
C908 C910 1.419 . S
C909 C904 1.425 . S
C909 C906 1.409 . S
C909 C907 1.415 . S
C910 H900 0.930 . S
C910 C908 1.419 . S
C910 C911 1.362 . S
C911 H901 0.930 . S
C911 C904 1.409 . S
C911 C910 1.362 . S
H912 C918 0.930 . S
H913 C921 0.930 . S
H914 C922 0.930 . S
H915 C923 0.930 . S
H916 C926 0.930 . S
H917 C927 0.930 . S
C918 H912 0.930 . S
C918 C919 1.355 . S
C918 C920 1.415 . S
C919 C918 1.355 . S
C919 C921 1.419 . S
C920 C918 1.415 . S
C920 C925 1.425 . S
C920 C927 1.409 . S
C921 H913 0.930 . S
C921 C919 1.419 . S
C921 C922 1.362 . S
C922 H914 0.930 . S
C922 C921 1.362 . S
C922 C925 1.409 . S
C923 H915 0.930 . S
C923 C924 1.355 . S
C923 C925 1.415 . S
C924 C923 1.355 . S
C924 C926 1.419 . S
C925 C920 1.425 . S
C925 C922 1.409 . S
C925 C923 1.415 . S
C926 H916 0.930 . S
C926 C924 1.419 . S
C926 C927 1.362 . S
C927 H917 0.930 . S
C927 C920 1.409 . S
C927 C926 1.362 . S
H928 C934 0.930 . S
H929 C937 0.930 . S
H930 C938 0.930 . S
H931 C939 0.930 . S
H932 C942 0.930 . S
H933 C943 0.930 . S
C934 H928 0.930 . S
C934 C935 1.355 . S
C934 C936 1.415 . S
C935 C934 1.355 . S
C935 C937 1.419 . S
C936 C934 1.415 . S
C936 C941 1.425 . S
C936 C943 1.409 . S
C937 H929 0.930 . S
C937 C935 1.419 . S
C937 C938 1.362 . S
C938 H930 0.930 . S
C938 C937 1.362 . S
C938 C941 1.409 . S
C939 H931 0.930 . S
C939 C940 1.355 . S
C939 C941 1.415 . S
C940 C939 1.355 . S
C940 C942 1.419 . S
C941 C936 1.425 . S
C941 C938 1.409 . S
C941 C939 1.415 . S
C942 H932 0.930 . S
C942 C940 1.419 . S
C942 C943 1.362 . S
C943 H933 0.930 . S
C943 C936 1.409 . S
C943 C942 1.362 . S
H944 C950 0.930 . S
H945 C953 0.930 . S
H946 C954 0.930 . S
H947 C955 0.930 . S
H948 C958 0.930 . S
H949 C959 0.930 . S
C950 H944 0.930 . S
C950 C951 1.355 . S
C950 C952 1.415 . S
C951 C950 1.355 . S
C951 C953 1.419 . S
C952 C950 1.415 . S
C952 C957 1.425 . S
C952 C959 1.409 . S
C953 H945 0.930 . S
C953 C951 1.419 . S
C953 C954 1.362 . S
C954 H946 0.930 . S
C954 C953 1.362 . S
C954 C957 1.409 . S
C955 H947 0.930 . S
C955 C956 1.355 . S
C955 C957 1.415 . S
C956 C955 1.355 . S
C956 C958 1.419 . S
C957 C952 1.425 . S
C957 C954 1.409 . S
C957 C955 1.415 . S
C958 H948 0.930 . S
C958 C956 1.419 . S
C958 C959 1.362 . S
C959 H949 0.930 . S
C959 C952 1.409 . S
C959 C958 1.362 . S
H960 C966 0.930 . S
H961 C969 0.930 1_556 S
H962 C970 0.930 . S
H963 C971 0.930 . S
H964 C974 0.930 . S
H965 C975 0.930 . S
C966 H960 0.930 . S
C966 C967 1.355 1_554 S
C966 C968 1.415 . S
C967 C966 1.355 1_556 S
C967 C969 1.419 1_556 S
C968 C966 1.415 . S
C968 C973 1.425 . S
C968 C975 1.409 . S
C969 H961 0.930 1_554 S
C969 C967 1.419 1_554 S
C969 C970 1.362 . S
C970 H962 0.930 . S
C970 C969 1.362 . S
C970 C973 1.409 . S
C971 H963 0.930 . S
C971 C972 1.355 . S
C971 C973 1.415 . S
C972 C971 1.355 . S
C972 C974 1.419 . S
C973 C968 1.425 . S
C973 C970 1.409 . S
C973 C971 1.415 . S
C974 H964 0.930 . S
C974 C972 1.419 . S
C974 C975 1.362 . S
C975 H965 0.930 . S
C975 C968 1.409 . S
C975 C974 1.362 . S
H976 C982 0.930 . S
H977 C985 0.930 . S
H978 C986 0.930 . S
H979 C987 0.930 . S
H980 C990 0.930 1_554 S
H981 C991 0.930 . S
C982 H976 0.930 . S
C982 C983 1.355 . S
C982 C984 1.415 . S
C983 C982 1.355 . S
C983 C985 1.419 . S
C984 C982 1.415 . S
C984 C989 1.425 . S
C984 C991 1.409 . S
C985 H977 0.930 . S
C985 C983 1.419 . S
C985 C986 1.362 . S
C986 H978 0.930 . S
C986 C985 1.362 . S
C986 C989 1.409 . S
C987 H979 0.930 . S
C987 C988 1.355 1_556 S
C987 C989 1.415 . S
C988 C987 1.355 1_554 S
C988 C990 1.419 1_554 S
C989 C984 1.425 . S
C989 C986 1.409 . S
C989 C987 1.415 . S
C990 H980 0.930 1_556 S
C990 C988 1.419 1_556 S
C990 C991 1.362 . S
C991 H981 0.930 . S
C991 C984 1.409 . S
C991 C990 1.362 . S
H992 C998 0.930 . S
H993 C1001 0.930 . S
H994 C1002 0.930 . S
H995 C1003 0.930 . S
H996 C1006 0.930 1_556 S
H997 C1007 0.930 . S
C998 H992 0.930 . S
C998 C999 1.355 . S
C998 C1000 1.415 . S
C999 C998 1.355 . S
C999 C1001 1.419 . S
C1000 C998 1.415 . S
C1000 C1005 1.425 . S
C1000 C1007 1.409 . S
C1001 H993 0.930 . S
C1001 C999 1.419 . S
C1001 C1002 1.362 . S
C1002 H994 0.930 . S
C1002 C1001 1.362 . S
C1002 C1005 1.409 . S
C1003 H995 0.930 . S
C1003 C1004 1.355 1_554 S
C1003 C1005 1.415 . S
C1004 C1003 1.355 1_556 S
C1004 C1006 1.419 1_556 S
C1005 C1000 1.425 . S
C1005 C1002 1.409 . S
C1005 C1003 1.415 . S
C1006 H996 0.930 1_554 S
C1006 C1004 1.419 1_554 S
C1006 C1007 1.362 . S
C1007 H997 0.930 . S
C1007 C1000 1.409 . S
C1007 C1006 1.362 . S
H1008 C1014 0.930 . S
H1009 C1017 0.930 1_554 S
H1010 C1018 0.930 . S
H1011 C1019 0.930 . S
H1012 C1022 0.930 . S
H1013 C1023 0.930 . S
C1014 H1008 0.930 . S
C1014 C1015 1.355 1_556 S
C1014 C1016 1.415 . S
C1015 C1014 1.355 1_554 S
C1015 C1017 1.419 1_554 S
C1016 C1014 1.415 . S
C1016 C1021 1.425 . S
C1016 C1023 1.409 . S
C1017 H1009 0.930 1_556 S
C1017 C1015 1.419 1_556 S
C1017 C1018 1.362 . S
C1018 H1010 0.930 . S
C1018 C1017 1.362 . S
C1018 C1021 1.409 . S
C1019 H1011 0.930 . S
C1019 C1020 1.355 . S
C1019 C1021 1.415 . S
C1020 C1019 1.355 . S
C1020 C1022 1.419 . S
C1021 C1016 1.425 . S
C1021 C1018 1.409 . S
C1021 C1019 1.415 . S
C1022 H1012 0.930 . S
C1022 C1020 1.419 . S
C1022 C1023 1.362 . S
C1023 H1013 0.930 . S
C1023 C1016 1.409 . S
C1023 C1022 1.362 . S
H1024 C1030 0.930 . S
H1025 C1033 0.930 . S
H1026 C1034 0.930 . S
H1027 C1035 0.934 . S
H1028 C1038 0.930 . S
H1029 C1039 0.930 . S
C1030 H1024 0.930 . S
C1030 C1031 1.355 . S
C1030 C1032 1.415 . S
C1031 C1030 1.355 . S
C1031 C1033 1.419 . S
C1032 C1030 1.415 . S
C1032 C1037 1.425 . S
C1032 C1039 1.409 . S
C1033 H1025 0.930 . S
C1033 C1031 1.419 . S
C1033 C1034 1.362 . S
C1034 H1026 0.930 . S
C1034 C1033 1.362 . S
C1034 C1037 1.409 . S
C1035 H1027 0.934 . S
C1035 C1036 1.355 1_554 S
C1035 C1037 1.415 . S
C1036 C1035 1.355 1_556 S
C1036 C1038 1.419 . S
C1037 C1032 1.425 . S
C1037 C1034 1.409 . S
C1037 C1035 1.415 . S
C1038 H1028 0.930 . S
C1038 C1036 1.419 . S
C1038 C1039 1.362 1_556 S
C1039 H1029 0.930 . S
C1039 C1032 1.409 . S
C1039 C1038 1.362 1_554 S
H1040 C1046 0.930 . S
H1041 C1049 0.930 . S
H1042 C1050 0.930 . S
H1043 C1051 0.930 . S
H1044 C1054 0.930 . S
H1045 C1055 0.930 . S
C1046 H1040 0.930 . S
C1046 C1047 1.355 1_556 S
C1046 C1048 1.415 . S
C1047 C1046 1.355 1_554 S
C1047 C1049 1.419 . S
C1048 C1046 1.415 . S
C1048 C1053 1.425 . S
C1048 C1055 1.409 . S
C1049 H1041 0.930 . S
C1049 C1047 1.419 . S
C1049 C1050 1.362 1_554 S
C1050 H1042 0.930 . S
C1050 C1049 1.362 1_556 S
C1050 C1053 1.409 . S
C1051 H1043 0.930 . S
C1051 C1052 1.355 . S
C1051 C1053 1.415 . S
C1052 C1051 1.355 . S
C1052 C1054 1.419 . S
C1053 C1048 1.425 . S
C1053 C1050 1.409 . S
C1053 C1051 1.415 . S
C1054 H1044 0.930 . S
C1054 C1052 1.419 . S
C1054 C1055 1.362 . S
C1055 H1045 0.930 . S
C1055 C1048 1.409 . S
C1055 C1054 1.362 . S
H1056 C1062 0.930 . S
H1057 C1065 0.930 . S
H1058 C1066 0.930 . S
H1059 C1067 0.930 . S
H1060 C1070 0.930 . S
H1061 C1071 0.930 . S
C1062 H1056 0.930 . S
C1062 C1063 1.355 1_554 S
C1062 C1064 1.415 . S
C1063 C1062 1.355 1_556 S
C1063 C1065 1.419 . S
C1064 C1062 1.415 . S
C1064 C1069 1.425 . S
C1064 C1071 1.409 . S
C1065 H1057 0.930 . S
C1065 C1063 1.419 . S
C1065 C1066 1.362 1_556 S
C1066 H1058 0.930 . S
C1066 C1065 1.362 1_554 S
C1066 C1069 1.409 . S
C1067 H1059 0.930 . S
C1067 C1068 1.355 . S
C1067 C1069 1.415 . S
C1068 C1067 1.355 . S
C1068 C1070 1.419 . S
C1069 C1064 1.425 . S
C1069 C1066 1.409 . S
C1069 C1067 1.415 . S
C1070 H1060 0.930 . S
C1070 C1068 1.419 . S
C1070 C1071 1.362 . S
C1071 H1061 0.930 . S
C1071 C1064 1.409 . S
C1071 C1070 1.362 . S
H1072 C1078 0.930 . S
H1073 C1081 0.930 . S
H1074 C1082 0.930 . S
H1075 C1083 0.930 . S
H1076 C1086 0.930 . S
H1077 C1087 0.930 . S
C1078 H1072 0.930 . S
C1078 C1079 1.355 . S
C1078 C1080 1.415 . S
C1079 C1078 1.355 . S
C1079 C1081 1.419 . S
C1080 C1078 1.415 . S
C1080 C1085 1.425 . S
C1080 C1087 1.409 . S
C1081 H1073 0.930 . S
C1081 C1079 1.419 . S
C1081 C1082 1.362 . S
C1082 H1074 0.930 . S
C1082 C1081 1.362 . S
C1082 C1085 1.409 . S
C1083 H1075 0.930 . S
C1083 C1084 1.355 1_556 S
C1083 C1085 1.415 . S
C1084 C1083 1.355 1_554 S
C1084 C1086 1.419 . S
C1085 C1080 1.425 . S
C1085 C1082 1.409 . S
C1085 C1083 1.415 . S
C1086 H1076 0.930 . S
C1086 C1084 1.419 . S
C1086 C1087 1.362 1_554 S
C1087 H1077 0.930 . S
C1087 C1080 1.409 . S
C1087 C1086 1.362 1_556 S
C327 C222 1.549 . S
C332 C19 1.575 . S
C343 C164 1.547 . S
C348 C38 1.576 . S
C359 C59 1.554 . S
C364 C182 1.510 . S
C375 C78 1.572 . S
C380 C204 1.554 . S
C391 C99 1.560 . S
C396 C102 1.507 . S
C407 C124 1.566 . S
C412 C118 1.560 . S
C423 C139 1.558 . S
C428 C142 1.566 1_556 S
C439 C84 1.539 . S
C444 C158 1.579 . S
C455 C62 1.508 . S
C460 C179 1.570 . S
C471 C198 1.568 . S
C476 C4 1.559 . S
C487 C22 1.537 . S
C492 C219 1.580 . S
C503 C44 1.517 . S
C508 C238 1.546 . S
C519 C259 1.542 . S
C524 C262 1.525 . S
C535 C284 1.530 . S
C540 C278 1.580 . S
C551 C302 1.508 . S
C556 C299 1.571 . S
C567 C318 1.537 . S
C572 C244 1.550 . S
C583 C18 1.467 . S
C588 C98 1.497 . S
C599 C119 1.521 . S
C604 C39 1.510 . S
C615 C58 1.515 . S
C620 C138 1.519 . S
C631 C79 1.481 . S
C636 C159 1.462 . S
C647 C178 1.489 . S
C652 C258 1.463 . S
C663 C279 1.466 . S
C668 C199 1.469 . S
C679 C218 1.522 . S
C684 C298 1.499 . S
C695 C239 1.479 . S
C700 C319 1.462 . S
C711 C282 1.455 . S
C716 C2 1.474 1_556 S
C727 C24 1.504 1_554 S
C732 C304 1.523 . S
C743 C42 1.523 1_556 S
C748 C242 1.538 . S
C759 C64 1.542 1_554 S
C764 C264 1.547 . S
C775 C82 1.491 . S
C780 C202 1.469 . S
C791 C104 1.506 . S
C796 C224 1.485 . S
C807 C122 1.544 . S
C812 C162 1.546 . S
C823 C184 1.499 . S
C828 C144 1.519 . S
C839 C12 1.348 . S
C844 C9 1.348 . S
C855 C29 1.356 . S
C860 C32 1.356 . S
C871 C52 1.348 . S
C876 C49 1.348 . S
C887 C72 1.347 . S
C892 C69 1.347 . S
C903 C89 1.305 . S
C908 C92 1.305 . S
C919 C109 1.304 . S
C924 C112 1.304 . S
C935 C132 1.355 . S
C940 C129 1.355 . S
C951 C152 1.335 . S
C956 C149 1.335 . S
C967 C172 1.332 . S
C972 C169 1.332 . S
C983 C192 1.321 . S
C988 C189 1.321 . S
C999 C209 1.293 . S
C1004 C212 1.293 . S
C1015 C229 1.303 . S
C1020 C232 1.303 . S
C1031 C252 1.332 . S
C1036 C249 1.332 . S
C1047 C272 1.307 . S
C1052 C269 1.307 . S
C1063 C289 1.349 . S
C1068 C292 1.349 . S
C1079 C309 1.293 . S
C1084 C312 1.293 . S
