# Generated by pormake.
# Topology vbk, (5)-cn, num edge types: 1
# Building blocks:
#     Node 0, Type 0, BuildingBlock: XOMCOT_clean_sbu_0, # of connection points: 5
#     Node 1, Type 0, BuildingBlock: XOMCOT_clean_sbu_0, # of connection points: 5
#     Node 2, Type 0, BuildingBlock: XOMCOT_clean_sbu_0, # of connection points: 5
#     Node 3, Type 0, BuildingBlock: XOMCOT_clean_sbu_0, # of connection points: 5
#     Node 4, Type 0, BuildingBlock: XOMCOT_clean_sbu_0, # of connection points: 5
#     Node 5, Type 0, BuildingBlock: XOMCOT_clean_sbu_0, # of connection points: 5
#     Node 6, Type 0, BuildingBlock: XOMCOT_clean_sbu_0, # of connection points: 5
#     Node 7, Type 0, BuildingBlock: XOMCOT_clean_sbu_0, # of connection points: 5
#     Node 8, Type 0, BuildingBlock: XOMCOT_clean_sbu_0, # of connection points: 5
#     Node 9, Type 0, BuildingBlock: XOMCOT_clean_sbu_0, # of connection points: 5
#     Node 10, Type 0, BuildingBlock: XOMCOT_clean_sbu_0, # of connection points: 5
#     Node 11, Type 0, BuildingBlock: XOMCOT_clean_sbu_0, # of connection points: 5
#     Node 12, Type 0, BuildingBlock: XOMCOT_clean_sbu_0, # of connection points: 5
#     Node 13, Type 0, BuildingBlock: XOMCOT_clean_sbu_0, # of connection points: 5
#     Node 14, Type 0, BuildingBlock: XOMCOT_clean_sbu_0, # of connection points: 5
#     Node 15, Type 0, BuildingBlock: XOMCOT_clean_sbu_0, # of connection points: 5
#     Edge 16, Type (0, 0), BuildingBlock: CIFDUS_clean_linker_0, # of connection points: 2
#     Edge 17, Type (0, 0), BuildingBlock: CIFDUS_clean_linker_0, # of connection points: 2
#     Edge 18, Type (0, 0), BuildingBlock: CIFDUS_clean_linker_0, # of connection points: 2
#     Edge 19, Type (0, 0), BuildingBlock: CIFDUS_clean_linker_0, # of connection points: 2
#     Edge 20, Type (0, 0), BuildingBlock: CIFDUS_clean_linker_0, # of connection points: 2
#     Edge 21, Type (0, 0), BuildingBlock: CIFDUS_clean_linker_0, # of connection points: 2
#     Edge 22, Type (0, 0), BuildingBlock: CIFDUS_clean_linker_0, # of connection points: 2
#     Edge 23, Type (0, 0), BuildingBlock: CIFDUS_clean_linker_0, # of connection points: 2
#     Edge 24, Type (0, 0), BuildingBlock: CIFDUS_clean_linker_0, # of connection points: 2
#     Edge 25, Type (0, 0), BuildingBlock: CIFDUS_clean_linker_0, # of connection points: 2
#     Edge 26, Type (0, 0), BuildingBlock: CIFDUS_clean_linker_0, # of connection points: 2
#     Edge 27, Type (0, 0), BuildingBlock: CIFDUS_clean_linker_0, # of connection points: 2
#     Edge 28, Type (0, 0), BuildingBlock: CIFDUS_clean_linker_0, # of connection points: 2
#     Edge 29, Type (0, 0), BuildingBlock: CIFDUS_clean_linker_0, # of connection points: 2
#     Edge 30, Type (0, 0), BuildingBlock: CIFDUS_clean_linker_0, # of connection points: 2
#     Edge 31, Type (0, 0), BuildingBlock: CIFDUS_clean_linker_0, # of connection points: 2
#     Edge 32, Type (0, 0), BuildingBlock: CIFDUS_clean_linker_0, # of connection points: 2
#     Edge 33, Type (0, 0), BuildingBlock: CIFDUS_clean_linker_0, # of connection points: 2
#     Edge 34, Type (0, 0), BuildingBlock: CIFDUS_clean_linker_0, # of connection points: 2
#     Edge 35, Type (0, 0), BuildingBlock: CIFDUS_clean_linker_0, # of connection points: 2
#     Edge 36, Type (0, 0), BuildingBlock: CIFDUS_clean_linker_0, # of connection points: 2
#     Edge 37, Type (0, 0), BuildingBlock: CIFDUS_clean_linker_0, # of connection points: 2
#     Edge 38, Type (0, 0), BuildingBlock: CIFDUS_clean_linker_0, # of connection points: 2
#     Edge 39, Type (0, 0), BuildingBlock: CIFDUS_clean_linker_0, # of connection points: 2
#     Edge 40, Type (0, 0), BuildingBlock: CIFDUS_clean_linker_0, # of connection points: 2
#     Edge 41, Type (0, 0), BuildingBlock: CIFDUS_clean_linker_0, # of connection points: 2
#     Edge 42, Type (0, 0), BuildingBlock: CIFDUS_clean_linker_0, # of connection points: 2
#     Edge 43, Type (0, 0), BuildingBlock: CIFDUS_clean_linker_0, # of connection points: 2
#     Edge 44, Type (0, 0), BuildingBlock: CIFDUS_clean_linker_0, # of connection points: 2
#     Edge 45, Type (0, 0), BuildingBlock: CIFDUS_clean_linker_0, # of connection points: 2
#     Edge 46, Type (0, 0), BuildingBlock: CIFDUS_clean_linker_0, # of connection points: 2
#     Edge 47, Type (0, 0), BuildingBlock: CIFDUS_clean_linker_0, # of connection points: 2
#     Edge 48, Type (0, 0), BuildingBlock: CIFDUS_clean_linker_0, # of connection points: 2
#     Edge 49, Type (0, 0), BuildingBlock: CIFDUS_clean_linker_0, # of connection points: 2
#     Edge 50, Type (0, 0), BuildingBlock: CIFDUS_clean_linker_0, # of connection points: 2
#     Edge 51, Type (0, 0), BuildingBlock: CIFDUS_clean_linker_0, # of connection points: 2
#     Edge 52, Type (0, 0), BuildingBlock: CIFDUS_clean_linker_0, # of connection points: 2
#     Edge 53, Type (0, 0), BuildingBlock: CIFDUS_clean_linker_0, # of connection points: 2
#     Edge 54, Type (0, 0), BuildingBlock: CIFDUS_clean_linker_0, # of connection points: 2
#     Edge 55, Type (0, 0), BuildingBlock: CIFDUS_clean_linker_0, # of connection points: 2
# Relax obj value: 0.115
# Max RMSD: 0.184
# Mean RMSD: 0.184
data_MOF--net-vbk--node1-XOMCOT_clean_sbu_0--edge1-CIFDUS_clean_linker_0
_symmetry_space_group_name_H-M    P1
_symmetry_Int_Tables_number       1
_symmetry_cell_setting            triclinic
loop_
_symmetry_equiv_pos_as_xyz
'x, y, z'
_cell_length_a     60.203464
_cell_length_b     42.837
_cell_length_c     22.920052
_cell_angle_alpha  90.11856
_cell_angle_beta   89.970582
_cell_angle_gamma 90.609884
loop_
_atom_site_label
_atom_site_type_symbol
_atom_site_fract_x
_atom_site_fract_y
_atom_site_fract_z
_atom_type_partial_charge
Co0 Co 0.16115 0.12794 0.13732 0.0
C1 C 0.11184 0.13184 0.11343 0.0
C2 C 0.1202 0.12635 0.20384 0.0
C3 C 0.09749 0.12627 0.19887 0.0
N4 N 0.12929 0.12993 0.15059 0.0
N5 N 0.0921 0.12959 0.14213 0.0
H6 H 0.11355 0.13422 0.06664 0.0
H7 H 0.12952 0.12347 0.24375 0.0
C8 C 0.17747 0.17925 0.21228 0.0
O9 O 0.18956 0.18789 0.16722 0.0
N10 N 0.1937 0.12424 0.12883 0.0
C11 C 0.20554 0.11375 0.08281 0.0
C12 C 0.22769 0.11225 0.0979 0.0
C13 C 0.20897 0.12659 0.17244 0.0
N14 N 0.22992 0.12055 0.15437 0.0
C15 C 0.16869 0.16273 0.03338 0.0
C16 C 0.14807 0.21732 0.06647 0.0
C17 C 0.15893 0.21583 1.01247 0.0
C18 C 0.16886 0.18797 0.99566 0.0
C19 C 0.14853 0.19128 0.10363 0.0
N20 N 0.15983 0.16494 0.08793 0.0
H21 H 0.17529 0.14116 0.01773 0.0
H22 H 0.14011 0.19242 0.14524 0.0
H23 H 0.19872 0.10582 0.04178 0.0
H24 H 0.20484 0.13208 0.21709 0.0
O25 O 0.15636 0.09846 0.07626 0.0
O26 O 0.1607 0.08575 0.16924 0.0
O27 O 0.16565 0.15429 0.20973 0.0
C28 C 0.15724 0.07679 0.11532 0.0
H29 H 0.08583 0.12431 0.23467 0.0
H30 H 0.24099 0.10438 0.06988 0.0
H31 H 0.13969 0.23837 0.08002 0.0
H32 H 0.17654 0.18561 0.95311 0.0
Co33 Co 0.37888 0.86169 0.62071 0.0
C34 C 0.42841 0.86851 0.60152 0.0
C35 C 0.41969 0.82736 0.64965 0.0
C36 C 0.44234 0.82817 0.64272 0.0
N37 N 0.41069 0.85239 0.62325 0.0
N38 N 0.44788 0.85402 0.61262 0.0
H39 H 0.42728 0.89046 0.57854 0.0
H40 H 0.41068 0.80993 0.6742 0.0
C41 C 0.3588 0.82155 0.71497 0.0
O42 O 0.34213 0.81505 0.67981 0.0
N43 N 0.34718 0.87142 0.61937 0.0
C44 C 0.33348 0.87219 0.57291 0.0
C45 C 0.31227 0.87828 0.59177 0.0
C46 C 0.33414 0.87881 0.66554 0.0
N47 N 0.31254 0.88187 0.65027 0.0
C48 C 0.37142 0.82819 0.51462 0.0
C49 C 0.37464 0.76808 0.55662 0.0
C50 C 0.37188 0.77284 0.49683 0.0
C51 C 0.37006 0.80321 0.47603 0.0
C52 C 0.37592 0.79394 0.59416 0.0
N53 N 0.37409 0.82382 0.57331 0.0
H54 H 0.37094 0.85119 0.49601 0.0
H55 H 0.3793 0.78935 0.63927 0.0
H56 H 0.33821 0.8685 0.52814 0.0
H57 H 0.34015 0.88003 0.70996 0.0
O58 O 0.38358 0.89043 0.55761 0.0
O59 O 0.38453 0.9038 0.65067 0.0
O60 O 0.37493 0.8389 0.6976 0.0
C61 C 0.38555 0.91239 0.5961 0.0
H62 H 0.45398 0.81175 0.66094 0.0
H63 H 0.29769 0.87945 0.56429 0.0
H64 H 0.37678 0.74477 0.57379 0.0
H65 H 0.36845 0.80768 0.42969 0.0
Co66 Co 0.15653 0.86129 0.93425 0.0
C67 C 0.10691 0.86597 0.94875 0.0
C68 C 0.1163 0.82482 0.90209 0.0
C69 C 0.09351 0.8255 0.90527 0.0
N70 N 0.12493 0.84994 0.93006 0.0
N71 N 0.08757 0.85141 0.93433 0.0
H72 H 0.10771 0.88821 0.97104 0.0
H73 H 0.12564 0.80782 0.87787 0.0
C74 C 0.17891 0.82221 0.84463 0.0
O75 O 0.19457 0.81739 0.88345 0.0
N76 N 0.18799 0.87348 0.93606 0.0
C77 C 0.20272 0.8735 0.98045 0.0
C78 C 0.2234 0.88171 0.95919 0.0
C79 C 0.19987 0.88319 0.88918 0.0
N80 N 0.22168 0.88732 0.9015 0.0
C81 C 0.16557 0.82913 0.04011 0.0
C82 C 0.16375 0.76857 0.99896 0.0
C83 C 0.1689 0.77412 0.05748 0.0
C84 C 0.16957 0.80468 0.07808 0.0
C85 C 0.16015 0.79397 0.96181 0.0
N86 N 0.16184 0.82409 0.98199 0.0
H87 H 0.16574 0.85228 0.05834 0.0
H88 H 0.15601 0.78891 0.91719 0.0
H89 H 0.19922 0.8675 0.02509 0.0
H90 H 0.19278 0.88577 0.84611 0.0
O91 O 0.15088 0.88949 0.99715 0.0
O92 O 0.1503 0.90287 0.90405 0.0
O93 O 0.16188 0.83839 0.85812 0.0
C94 C 0.14899 0.91133 0.95874 0.0
H95 H 0.08213 0.80923 0.88439 0.0
H96 H 0.23871 0.88198 0.98392 0.0
H97 H 0.16259 0.74495 0.98218 0.0
H98 H 0.17292 0.80964 0.12366 0.0
Co99 Co 0.39827 0.12825 0.4088 0.0
C100 C 0.44855 0.13186 0.43317 0.0
C101 C 0.43885 0.09899 0.36732 0.0
C102 C 0.46152 0.09849 0.37225 0.0
N103 N 0.43036 0.11965 0.40571 0.0
N104 N 0.46775 0.11919 0.41347 0.0
H105 H 0.44814 0.15055 0.46466 0.0
H106 H 0.42929 0.08584 0.33565 0.0
C107 C 0.41634 0.16997 0.31781 0.0
O108 O 0.43127 0.17789 0.35699 0.0
N109 N 0.36635 0.13504 0.40869 0.0
C110 C 0.35365 0.14235 0.45495 0.0
C111 C 0.33173 0.14241 0.43775 0.0
C112 C 0.35193 0.13041 0.36401 0.0
N113 N 0.33051 0.13469 0.38056 0.0
C114 C 0.41012 0.16441 0.50897 0.0
C115 C 0.38905 0.21847 0.47537 0.0
C116 C 0.39674 0.21585 0.53289 0.0
C117 C 0.40804 0.18885 0.54888 0.0
C118 C 0.3921 0.19375 0.43605 0.0
N119 N 0.40224 0.16685 0.45329 0.0
H120 H 0.41702 0.14269 0.52402 0.0
H121 H 0.38459 0.19523 0.39335 0.0
H122 H 0.35987 0.14686 0.49846 0.0
H123 H 0.357 0.12295 0.32093 0.0
O124 O 0.39512 0.10064 0.47452 0.0
O125 O 0.39258 0.08568 0.38231 0.0
O126 O 0.40083 0.15061 0.3312 0.0
C127 C 0.3923 0.07809 0.43744 0.0
H128 H 0.47265 0.08512 0.34506 0.0
H129 H 0.31777 0.14763 0.4657 0.0
H130 H 0.37985 0.23879 0.46178 0.0
H131 H 0.41372 0.18563 0.59329 0.0
Co132 Co 0.89108 0.88007 0.88025 0.0
C133 C 0.93926 0.87304 0.9155 0.0
C134 C 0.93448 0.89444 0.83185 0.0
C135 C 0.95685 0.89352 0.84297 0.0
N136 N 0.92335 0.88173 0.87709 0.0
N137 N 0.95992 0.88002 0.89532 0.0
H138 H 0.9359 0.86194 0.957 0.0
H139 H 0.92674 0.90373 0.7931 0.0
C140 C 0.87923 0.83252 0.79153 0.0
O141 O 0.86615 0.82064 0.83192 0.0
N142 N 0.85837 0.88042 0.87866 0.0
C143 C 0.84339 0.8845 0.92193 0.0
C144 C 0.8223 0.88581 0.89817 0.0
C145 C 0.84601 0.88155 0.82919 0.0
N146 N 0.82398 0.88358 0.83967 0.0
C147 C 0.88301 0.84068 0.97866 0.0
C148 C 0.90887 0.79114 0.94378 0.0
C149 C 0.89894 0.7904 0.99915 0.0
C150 C 0.88567 0.81542 0.01598 0.0
C151 C 0.9053 0.81672 0.90692 0.0
N152 N 0.8923 0.84109 0.92438 0.0
H153 H 0.87469 0.86078 0.99547 0.0
H154 H 0.91389 0.81764 0.86553 0.0
H155 H 0.84719 0.88794 0.96744 0.0
H156 H 0.85305 0.88183 0.78581 0.0
O157 O 0.89158 0.90793 0.94603 0.0
O158 O 0.89059 0.92327 0.85389 0.0
O159 O 0.89105 0.85683 0.80289 0.0
C160 C 0.89139 0.93079 0.90916 0.0
H161 H 0.96997 0.90131 0.81394 0.0
H162 H 0.80696 0.88833 0.92227 0.0
H163 H 0.91967 0.77252 0.92971 0.0
H164 H 0.87847 0.8164 0.05928 0.0
Co165 Co 0.66697 0.14398 0.41396 0.0
C166 C 0.6171 0.13304 0.42325 0.0
C167 C 0.62632 0.17914 0.39537 0.0
C168 C 0.60359 0.17745 0.39897 0.0
N169 N 0.63498 0.15144 0.41075 0.0
N170 N 0.59769 0.14854 0.41662 0.0
H171 H 0.61814 0.10906 0.4375 0.0
H172 H 0.63596 0.19949 0.38282 0.0
C173 C 0.6836 0.17973 0.30478 0.0
O174 O 0.70448 0.18112 0.32079 0.0
N175 N 0.69893 0.13672 0.41672 0.0
C176 C 0.71205 0.14176 0.46335 0.0
C177 C 0.7338 0.13711 0.44737 0.0
C178 C 0.71284 0.12706 0.37395 0.0
N179 N 0.7345 0.12871 0.39048 0.0
C180 C 0.65742 0.18387 0.50855 0.0
C181 C 0.68822 0.23056 0.4861 0.0
C182 C 0.67497 0.23254 0.53623 0.0
C183 C 0.65927 0.20894 0.54687 0.0
C184 C 0.68556 0.20515 0.44815 0.0
N185 N 0.67034 0.18211 0.45972 0.0
H186 H 0.64569 0.16538 0.51864 0.0
H187 H 0.69646 0.20356 0.41145 0.0
H188 H 0.70629 0.14952 0.5056 0.0
H189 H 0.70728 0.1215 0.33024 0.0
O190 O 0.66351 0.11595 0.47851 0.0
O191 O 0.66254 0.10173 0.38538 0.0
O192 O 0.66875 0.16681 0.3368 0.0
C193 C 0.66158 0.0937 0.44029 0.0
H194 H 0.59227 0.19602 0.3882 0.0
H195 H 0.748 0.14081 0.47548 0.0
H196 H 0.70073 0.24822 0.4768 0.0
H197 H 0.64906 0.20916 0.5858 0.0
Co198 Co 0.89328 0.14641 0.09849 0.0
C199 C 0.94295 0.13587 0.10538 0.0
C200 C 0.9356 0.18142 0.07326 0.0
C201 C 0.95818 0.1782 0.07409 0.0
N202 N 0.92563 0.15484 0.09232 0.0
N203 N 0.96298 0.14957 0.09397 0.0
H204 H 0.94104 0.11249 0.1225 0.0
H205 H 0.92742 0.20243 0.05964 0.0
C206 C 0.89792 0.19787 0.18732 0.0
O207 O 0.90654 0.21584 0.14688 0.0
N208 N 0.86157 0.13805 0.10547 0.0
C209 C 0.84706 0.1351 0.0611 0.0
C210 C 0.8262 0.12941 0.08366 0.0
C211 C 0.84932 0.134 0.15455 0.0
N212 N 0.82753 0.12867 0.14251 0.0
C213 C 0.89537 0.18198 0.99551 0.0
C214 C 0.86745 0.23009 0.02617 0.0
C215 C 0.87738 0.23017 0.97059 0.0
C216 C 0.89144 0.20559 0.95589 0.0
C217 C 0.87193 0.20557 0.06521 0.0
N218 N 0.88666 0.18273 0.05046 0.0
H219 H 0.90641 0.16351 0.98259 0.0
H220 H 0.86363 0.20497 0.10705 0.0
H221 H 0.85134 0.13728 0.01543 0.0
H222 H 0.85628 0.13467 0.19805 0.0
O223 O 0.89481 0.11749 0.03477 0.0
O224 O 0.89883 0.10419 0.12721 0.0
O225 O 0.89212 0.16979 0.17555 0.0
C226 C 0.89783 0.09558 0.07249 0.0
H227 H 0.97019 0.19609 0.06239 0.0
H228 H 0.81113 0.12669 0.05839 0.0
H229 H 0.85613 0.24837 0.03885 0.0
H230 H 0.89978 0.20471 0.91403 0.0
Co231 Co 0.64628 0.877 0.61952 0.0
C232 C 0.5969 0.87013 0.59709 0.0
C233 C 0.60521 0.89191 0.67881 0.0
C234 C 0.58251 0.89142 0.67329 0.0
N235 N 0.61434 0.87883 0.63113 0.0
N236 N 0.57723 0.87775 0.62212 0.0
H237 H 0.59847 0.85879 0.55509 0.0
H238 H 0.61452 0.9013 0.7153 0.0
C239 C 0.66245 0.82996 0.70218 0.0
O240 O 0.6745 0.81989 0.6583 0.0
N241 N 0.67875 0.87701 0.61291 0.0
C242 C 0.69286 0.87 0.56911 0.0
C243 C 0.71445 0.87307 0.58933 0.0
C244 C 0.69211 0.88503 0.65818 0.0
N245 N 0.71397 0.88239 0.64567 0.0
C246 C 0.64706 0.84086 0.51474 0.0
C247 C 0.62979 0.78582 0.55907 0.0
C248 C 0.63587 0.78693 0.49988 0.0
C249 C 0.64404 0.81533 0.47785 0.0
C250 C 0.63279 0.81231 0.59453 0.0
N251 N 0.64252 0.83893 0.57293 0.0
H252 H 0.65284 0.86247 0.49581 0.0
H253 H 0.62706 0.8114 0.63915 0.0
H254 H 0.68826 0.86295 0.52562 0.0
H255 H 0.68567 0.89148 0.70053 0.0
O256 O 0.64422 0.90639 0.55679 0.0
O257 O 0.649 0.91948 0.64942 0.0
O258 O 0.64907 0.85263 0.6946 0.0
C259 C 0.64702 0.92827 0.59521 0.0
H260 H 0.5707 0.89975 0.70523 0.0
H261 H 0.7293 0.86874 0.56413 0.0
H262 H 0.62287 0.76474 0.57803 0.0
H263 H 0.64778 0.81818 0.43195 0.0
Co264 Co 0.64685 0.64676 0.1154 0.0
C265 C 0.59708 0.65062 0.12791 0.0
C266 C 0.60705 0.62248 0.05519 0.0
C267 C 0.58441 0.62362 0.05567 0.0
N268 N 0.61527 0.63941 0.10031 0.0
N269 N 0.57806 0.64133 0.10107 0.0
H270 H 0.59762 0.66559 0.16591 0.0
H271 H 0.61666 0.6102 0.02287 0.0
C272 C 0.63542 0.66304 0.2384 0.0
O273 O 0.63033 0.63374 0.24912 0.0
N274 N 0.67819 0.65402 0.12878 0.0
C275 C 0.69291 0.66317 0.088 0.0
C276 C 0.71336 0.66673 0.11373 0.0
C277 C 0.68991 0.65175 0.17886 0.0
N278 N 0.71163 0.65945 0.17096 0.0
C279 C 0.64036 0.68054 1.01083 0.0
C280 C 0.65127 0.73928 0.05331 0.0
C281 C 0.64623 0.73545 0.99413 0.0
C282 C 0.64052 0.70583 0.9731 0.0
C283 C 0.65102 0.71312 0.08991 0.0
N284 N 0.64563 0.68421 0.06829 0.0
H285 H 0.63659 0.65775 0.99326 0.0
H286 H 0.65596 0.71604 0.13489 0.0
H287 H 0.68898 0.66732 0.04265 0.0
H288 H 0.68268 0.64439 0.21985 0.0
O289 O 0.65439 0.61753 0.0551 0.0
O290 O 0.64908 0.60488 0.14768 0.0
O291 O 0.64043 0.67184 0.18699 0.0
C292 C 0.65315 0.59584 0.09436 0.0
H293 H 0.57338 0.61179 0.02535 0.0
H294 H 0.72825 0.67465 0.09161 0.0
H295 H 0.65617 0.7619 0.07043 0.0
H296 H 0.6368 0.70215 0.92732 0.0
Co297 Co 0.88202 0.38631 0.60881 0.0
C298 C 0.93191 0.37584 0.60102 0.0
C299 C 0.92354 0.41896 0.64215 0.0
C300 C 0.94615 0.41587 0.64392 0.0
N301 N 0.91428 0.39398 0.61493 0.0
N302 N 0.95147 0.38866 0.61845 0.0
H303 H 0.93064 0.35326 0.58026 0.0
H304 H 0.91471 0.43825 0.66118 0.0
C305 C 0.89354 0.3349 0.69065 0.0
O306 O 0.90744 0.32461 0.65123 0.0
N307 N 0.85018 0.37994 0.60751 0.0
C308 C 0.83557 0.38173 0.5631 0.0
C309 C 0.81425 0.38053 0.58604 0.0
C310 C 0.83773 0.37788 0.65616 0.0
N311 N 0.81581 0.37793 0.64458 0.0
C312 C 0.89748 0.35685 0.5067 0.0
C313 C 0.87305 0.30201 0.51492 0.0
C314 C 0.88461 0.30866 0.46311 0.0
C315 C 0.89745 0.336 0.46032 0.0
C316 C 0.87364 0.32371 0.56112 0.0
N317 N 0.88584 0.35077 0.55656 0.0
H318 H 0.90628 0.37878 0.50156 0.0
H319 H 0.86346 0.31949 0.59925 0.0
H320 H 0.84006 0.38482 0.51775 0.0
H321 H 0.84455 0.37818 0.69981 0.0
O322 O 0.87983 0.41639 0.54776 0.0
O323 O 0.87655 0.42788 0.64146 0.0
O324 O 0.88295 0.36012 0.68216 0.0
C325 C 0.87653 0.43739 0.58724 0.0
H326 H 0.95775 0.43252 0.66276 0.0
H327 H 0.79887 0.38189 0.56176 0.0
H328 H 0.86268 0.28128 0.51835 0.0
H329 H 0.90666 0.34201 0.42121 0.0
Co330 Co 0.65269 0.37798 0.91678 0.0
C331 C 0.60408 0.38011 0.94846 0.0
C332 C 0.61222 0.34079 0.89492 0.0
C333 C 0.58997 0.33936 0.90724 0.0
N334 N 0.62134 0.36609 0.92116 0.0
N335 N 0.58478 0.36402 0.94079 0.0
H336 H 0.60542 0.40171 0.97278 0.0
H337 H 0.6208 0.32471 0.86683 0.0
C338 C 0.67067 0.34022 0.817 0.0
O339 O 0.68857 0.33475 0.84804 0.0
N340 N 0.68393 0.39007 0.91062 0.0
C341 C 0.70021 0.38804 0.95079 0.0
C342 C 0.72029 0.39408 0.92412 0.0
C343 C 0.69431 0.39925 0.86106 0.0
N344 N 0.7166 0.40047 0.86736 0.0
C345 C 0.66457 0.34445 0.0194 0.0
C346 C 0.66367 0.28476 0.97376 0.0
C347 C 0.66949 0.28929 0.03204 0.0
C348 C 0.66968 0.31937 0.0551 0.0
C349 C 0.65858 0.31063 0.93932 0.0
N350 N 0.6599 0.34037 0.96147 0.0
H351 H 0.66472 0.3673 0.039 0.0
H352 H 0.65334 0.30609 0.89538 0.0
H353 H 0.6981 0.38146 0.99577 0.0
H354 H 0.68586 0.4018 0.81969 0.0
O355 O 0.64953 0.4063 0.98142 0.0
O356 O 0.64519 0.41946 0.88894 0.0
O357 O 0.6547 0.35597 0.8387 0.0
C358 C 0.64601 0.42808 0.94354 0.0
H359 H 0.57823 0.32231 0.89021 0.0
H360 H 0.73646 0.39236 0.9444 0.0
H361 H 0.66281 0.26148 0.95526 0.0
H362 H 0.67371 0.32346 0.10059 0.0
Co363 Co 0.88917 0.6487 0.38739 0.0
C364 C 0.93939 0.65026 0.40305 0.0
C365 C 0.92777 0.614 0.34613 0.0
C366 C 0.95049 0.61248 0.34908 0.0
N367 N 0.92055 0.63745 0.38046 0.0
N368 N 0.95788 0.63535 0.38477 0.0
H369 H 0.93996 0.67096 0.42968 0.0
H370 H 0.91729 0.59902 0.31967 0.0
C371 C 0.90544 0.68421 0.28239 0.0
O372 O 0.92436 0.68979 0.30901 0.0
N373 N 0.85793 0.65851 0.39038 0.0
C374 C 0.84533 0.66984 0.43395 0.0
C375 C 0.82382 0.67312 0.41334 0.0
C376 C 0.8441 0.65472 0.34477 0.0
N377 N 0.82318 0.66372 0.35699 0.0
C378 C 0.90469 0.68588 0.48173 0.0
C379 C 0.88997 0.74282 0.44156 0.0
C380 C 0.89895 0.74075 0.49779 0.0
C381 C 0.90671 0.71206 0.51732 0.0
C382 C 0.88876 0.71597 0.40639 0.0
N383 N 0.89614 0.68792 0.42671 0.0
H384 H 0.90977 0.66363 0.49895 0.0
H385 H 0.88057 0.7174 0.36458 0.0
H386 H 0.85134 0.67563 0.47714 0.0
H387 H 0.84939 0.64517 0.30339 0.0
O388 O 0.88617 0.62312 0.45615 0.0
O389 O 0.88085 0.60626 0.3659 0.0
O390 O 0.89014 0.66837 0.30757 0.0
C391 C 0.88116 0.60012 0.42161 0.0
H392 H 0.96069 0.59558 0.32679 0.0
H393 H 0.80991 0.68231 0.43761 0.0
H394 H 0.88312 0.76456 0.42605 0.0
H395 H 0.91318 0.70953 0.56117 0.0
Co396 Co 0.38795 0.36243 0.91993 0.0
C397 C 0.43648 0.36316 0.9535 0.0
C398 C 0.42906 0.38862 0.8754 0.0
C399 C 0.45136 0.3915 0.88613 0.0
N400 N 0.41959 0.37117 0.91766 0.0
N401 N 0.45609 0.37556 0.93507 0.0
H402 H 0.43459 0.34864 0.9918 0.0
H403 H 0.42031 0.39837 0.8386 0.0
C404 C 0.38008 0.31677 0.82162 0.0
O405 O 0.36381 0.30391 0.85159 0.0
N406 N 0.35594 0.35523 0.91887 0.0
C407 C 0.34179 0.34402 0.95972 0.0
C408 C 0.32046 0.34463 0.93781 0.0
C409 C 0.34285 0.36317 0.87359 0.0
N410 N 0.32118 0.35654 0.88344 0.0
C411 C 0.38722 0.32571 0.0234 0.0
C412 C 0.40529 0.27173 0.97866 0.0
C413 C 0.39769 0.27213 0.03641 0.0
C414 C 0.389 0.29964 0.05897 0.0
C415 C 0.40296 0.29852 0.94397 0.0
N416 N 0.39294 0.32465 0.96575 0.0
H417 H 0.38054 0.34662 0.04245 0.0
H418 H 0.40956 0.29818 0.90025 0.0
H419 H 0.34612 0.33603 1.00265 0.0
H420 H 0.34925 0.37361 0.83399 0.0
O421 O 0.3846 0.39144 0.98367 0.0
O422 O 0.38265 0.40435 0.89055 0.0
O423 O 0.39137 0.33956 0.84295 0.0
C424 C 0.38183 0.41306 0.94499 0.0
H425 H 0.46339 0.4034 0.85871 0.0
H426 H 0.30565 0.33645 0.96003 0.0
H427 H 0.41293 0.25105 0.96068 0.0
H428 H 0.38366 0.30101 0.10406 0.0
Co429 Co 0.15529 0.63019 0.43914 0.0
C430 C 0.10675 0.63713 0.41739 0.0
C431 C 0.11551 0.6422 0.50776 0.0
C432 C 0.09292 0.64487 0.50273 0.0
N433 N 0.1242 0.6375 0.45439 0.0
N434 N 0.08731 0.64174 0.44594 0.0
H435 H 0.1083 0.63328 0.37092 0.0
H436 H 0.12498 0.64301 0.54784 0.0
C437 C 0.16659 0.67473 0.34462 0.0
O438 O 0.18373 0.68361 0.37629 0.0
N439 N 0.18676 0.62158 0.42456 0.0
C440 C 0.20171 0.61151 0.46406 0.0
C441 C 0.22156 0.60594 0.43671 0.0
C442 C 0.19768 0.62001 0.3728 0.0
N443 N 0.2191 0.61152 0.37932 0.0
C444 C 0.1737 0.66584 0.53407 0.0
C445 C 0.15324 0.72141 0.50684 0.0
C446 C 0.16529 0.71932 0.55891 0.0
C447 C 0.17582 0.69118 0.57188 0.0
C448 C 0.15167 0.69547 0.46991 0.0
N449 N 0.16211 0.66814 0.4832 0.0
H450 H 0.18 0.64383 0.54834 0.0
H451 H 0.14099 0.69692 0.43218 0.0
H452 H 0.19844 0.60684 0.50945 0.0
H453 H 0.19005 0.62404 0.33085 0.0
O454 O 0.15528 0.60076 0.50244 0.0
O455 O 0.14811 0.58908 0.40982 0.0
O456 O 0.15311 0.65389 0.3636 0.0
C457 C 0.15005 0.57975 0.46363 0.0
H458 H 0.08148 0.64772 0.53871 0.0
H459 H 0.23666 0.59833 0.45769 0.0
H460 H 0.14451 0.74254 0.49563 0.0
H461 H 0.18446 0.68803 0.61286 0.0
Co462 Co 0.37955 0.63193 0.11909 0.0
C463 C 0.42989 0.63624 0.10258 0.0
C464 C 0.41916 0.60854 0.17515 0.0
C465 C 0.4419 0.61033 0.17619 0.0
N466 N 0.41138 0.62478 0.12916 0.0
N467 N 0.44865 0.62792 0.13086 0.0
H468 H 0.43 0.65196 0.06603 0.0
H469 H 0.4089 0.59716 0.20764 0.0
C470 C 0.39468 0.67613 0.20951 0.0
O471 O 0.41024 0.68397 0.17201 0.0
N472 N 0.34785 0.63766 0.1133 0.0
C473 C 0.33552 0.64478 0.06622 0.0
C474 C 0.31344 0.64539 0.08278 0.0
C475 C 0.33327 0.6336 0.1573 0.0
N476 N 0.31212 0.63814 0.14 0.0
C477 C 0.39347 0.66627 0.01885 0.0
C478 C 0.37423 0.72237 0.0488 0.0
C479 C 0.3846 0.71942 0.99439 0.0
C480 C 0.39449 0.69111 0.97982 0.0
C481 C 0.37415 0.69708 0.08749 0.0
N482 N 0.38409 0.66957 0.07272 0.0
H483 H 0.39995 0.64401 1.00519 0.0
H484 H 0.36512 0.69912 0.12805 0.0
H485 H 0.34208 0.649 0.02296 0.0
H486 H 0.33814 0.62745 0.20122 0.0
O487 O 0.37847 0.60267 0.05543 0.0
O488 O 0.37401 0.5899 0.14824 0.0
O489 O 0.3798 0.65601 0.19514 0.0
C490 C 0.37508 0.58098 0.09386 0.0
H491 H 0.45262 0.59976 0.2083 0.0
H492 H 0.29944 0.65007 0.05465 0.0
H493 H 0.36583 0.7437 0.06065 0.0
H494 H 0.402 0.6877 0.93733 0.0
Co495 Co 0.14751 0.36079 0.63088 0.0
C496 C 0.0983 0.35606 0.63934 0.0
C497 C 0.11036 0.3457 0.55342 0.0
C498 C 0.08758 0.34553 0.55192 0.0
N499 N 0.1171 0.35199 0.60825 0.0
N500 N 0.07989 0.35217 0.60585 0.0
H501 H 0.09823 0.36293 0.68478 0.0
H502 H 0.12132 0.3429 0.51639 0.0
C503 C 0.15471 0.3138 0.72399 0.0
O504 O 0.17228 0.30473 0.69467 0.0
N505 N 0.17836 0.37147 0.65267 0.0
C506 C 0.19292 0.38742 0.61866 0.0
C507 C 0.2127 0.39112 0.6474 0.0
C508 C 0.18942 0.36784 0.70382 0.0
N509 N 0.21065 0.37842 0.70074 0.0
C510 C 0.17302 0.32654 0.54701 0.0
C511 C 0.14845 0.27177 0.55301 0.0
C512 C 0.16465 0.27499 0.50934 0.0
C513 C 0.17771 0.30228 0.50879 0.0
C514 C 0.14484 0.29634 0.59213 0.0
N515 N 0.15674 0.32367 0.58801 0.0
H516 H 0.18169 0.34822 0.54064 0.0
H517 H 0.13151 0.2941 0.62352 0.0
H518 H 0.18963 0.39612 0.57536 0.0
H519 H 0.18233 0.35797 0.74289 0.0
O520 O 0.14911 0.3902 0.56793 0.0
O521 O 0.13878 0.4015 0.65856 0.0
O522 O 0.14288 0.33621 0.70515 0.0
C523 C 0.14254 0.41098 0.60538 0.0
H524 H 0.07757 0.34269 0.51306 0.0
H525 H 0.22745 0.40251 0.63032 0.0
H526 H 0.13775 0.25133 0.555 0.0
H527 H 0.1908 0.30571 0.47696 0.0
H528 H 0.23491 0.11607 0.27202 0.0
H529 H 0.27161 0.13056 0.1125 0.0
H530 H 0.30609 0.13558 0.16782 0.0
H531 H 0.32602 0.1372 0.26224 0.0
H532 H 0.28894 0.12215 0.42118 0.0
H533 H 0.25477 0.11671 0.36565 0.0
C534 C 0.25037 0.12051 0.24918 0.0
C535 C 0.25042 0.12286 0.18778 0.0
C536 C 0.27028 0.12353 0.28141 0.0
C537 C 0.2709 0.12818 0.15944 0.0
C538 C 0.29071 0.13127 0.1912 0.0
C539 C 0.31053 0.13249 0.2848 0.0
C540 C 0.31033 0.13048 0.34632 0.0
C541 C 0.29065 0.12906 0.25231 0.0
C542 C 0.28985 0.12453 0.37428 0.0
C543 C 0.27016 0.12116 0.34239 0.0
H544 H 0.22253 0.8701 0.78798 0.0
H545 H 0.26213 0.91344 0.92299 0.0
H546 H 0.2939 0.91639 0.85662 0.0
H547 H 0.31085 0.90507 0.76066 0.0
H548 H 0.27072 0.86124 0.62695 0.0
H549 H 0.23882 0.86081 0.69179 0.0
C550 C 0.23793 0.88078 0.80272 0.0
C551 C 0.23981 0.89157 0.86063 0.0
C552 C 0.25617 0.88233 0.76436 0.0
C553 C 0.26019 0.90468 0.87895 0.0
C554 C 0.27839 0.90644 0.84091 0.0
C555 C 0.29514 0.89547 0.74565 0.0
C556 C 0.29338 0.88338 0.68852 0.0
C557 C 0.27667 0.89499 0.78363 0.0
C558 C 0.2727 0.87127 0.67 0.0
C559 C 0.25436 0.87075 0.70734 0.0
H560 H 0.75597 0.86003 0.63483 0.0
H561 H 0.71432 0.91511 0.74776 0.0
H562 H 0.7445 0.92016 0.81774 0.0
H563 H 0.78283 0.9086 0.84836 0.0
H564 H 0.82471 0.85475 0.73437 0.0
H565 H 0.79466 0.85025 0.6635 0.0
C566 C 0.75346 0.87347 0.67429 0.0
C567 C 0.73254 0.88684 0.68558 0.0
C568 C 0.77109 0.87665 0.71457 0.0
C569 C 0.72988 0.90393 0.73773 0.0
C570 C 0.74727 0.90704 0.77796 0.0
C571 C 0.78538 0.89582 0.80812 0.0
C572 C 0.80615 0.88206 0.79708 0.0
C573 C 0.76792 0.89331 0.76716 0.0
C574 C 0.80911 0.86592 0.74408 0.0
C575 C 0.79182 0.86317 0.70348 0.0
H576 H 0.7384 0.10411 0.28101 0.0
H577 H 0.77557 0.15304 0.41472 0.0
H578 H 0.80766 0.15593 0.35126 0.0
H579 H 0.82509 0.14747 0.25561 0.0
H580 H 0.78822 0.09896 0.12124 0.0
H581 H 0.75641 0.09374 0.18637 0.0
C582 C 0.75346 0.1154 0.29652 0.0
C583 C 0.75415 0.12821 0.35334 0.0
C584 C 0.77211 0.11748 0.25914 0.0
C585 C 0.77419 0.14243 0.37207 0.0
C586 C 0.79272 0.1444 0.33538 0.0
C587 C 0.81024 0.1354 0.24066 0.0
C588 C 0.80921 0.12396 0.18299 0.0
C589 C 0.79185 0.13233 0.27859 0.0
C590 C 0.78956 0.10862 0.16474 0.0
C591 C 0.77129 0.10542 0.20223 0.0
H592 H 0.75579 0.66016 0.14917 0.0
H593 H 0.70814 0.65978 0.29002 0.0
H594 H 0.73849 0.661 0.36084 0.0
H595 H 0.77896 0.66227 0.38268 0.0
H596 H 0.82545 0.66637 0.23916 0.0
H597 H 0.79511 0.66407 0.16998 0.0
C598 C 0.75179 0.66081 0.19516 0.0
C599 C 0.72946 0.65997 0.21359 0.0
C600 C 0.76926 0.66215 0.23559 0.0
C601 C 0.72504 0.66006 0.27398 0.0
C602 C 0.74245 0.66097 0.31471 0.0
C603 C 0.78244 0.66293 0.33633 0.0
C604 C 0.80467 0.66394 0.31664 0.0
C605 C 0.76469 0.66207 0.29602 0.0
C606 C 0.80872 0.66472 0.25613 0.0
C607 C 0.79129 0.66364 0.21621 0.0
H608 H 0.77674 0.40882 0.64234 0.0
H609 H 0.81596 0.34558 0.74474 0.0
H610 H 0.7889 0.34777 0.8237 0.0
H611 H 0.7546 0.36818 0.86461 0.0
H612 H 0.71461 0.43125 0.76421 0.0
H613 H 0.74128 0.42855 0.68341 0.0
C614 C 0.77912 0.39525 0.68165 0.0
C615 C 0.7984 0.3772 0.68783 0.0
C616 C 0.76348 0.39683 0.72742 0.0
C617 C 0.80141 0.35993 0.73926 0.0
C618 C 0.78594 0.36116 0.78443 0.0
C619 C 0.75186 0.38177 0.8255 0.0
C620 C 0.73281 0.40032 0.82089 0.0
C621 C 0.7671 0.37985 0.77934 0.0
C622 C 0.7292 0.41693 0.76895 0.0
C623 C 0.74443 0.41534 0.72276 0.0
H624 H 0.25399 0.37194 0.67704 0.0
H625 H 0.20705 0.37521 0.81897 0.0
H626 H 0.23735 0.36847 0.88911 0.0
H627 H 0.27745 0.3627 0.90961 0.0
H628 H 0.32361 0.35823 0.76556 0.0
H629 H 0.29337 0.36524 0.69689 0.0
C630 C 0.25036 0.37165 0.72333 0.0
C631 C 0.22829 0.37453 0.74268 0.0
C632 C 0.26777 0.36774 0.76309 0.0
C633 C 0.22386 0.37305 0.80285 0.0
C634 C 0.24121 0.3693 0.84295 0.0
C635 C 0.2809 0.36303 0.86323 0.0
C636 C 0.30295 0.36029 0.84313 0.0
C637 C 0.26327 0.36669 0.82353 0.0
C638 C 0.307 0.361 0.78268 0.0
C639 C 0.28965 0.36476 0.74317 0.0
H640 H 0.22264 0.64628 0.28114 0.0
H641 H 0.25467 0.57361 0.37912 0.0
H642 H 0.28621 0.5751 0.31253 0.0
H643 H 0.30558 0.59858 0.22934 0.0
H644 H 0.27405 0.67098 0.13002 0.0
H645 H 0.2413 0.66775 0.1934 0.0
C646 C 0.23635 0.63043 0.28729 0.0
C647 C 0.23635 0.6101 0.33558 0.0
C648 C 0.25459 0.63148 0.24872 0.0
C649 C 0.25438 0.58988 0.34308 0.0
C650 C 0.27242 0.59065 0.30488 0.0
C651 C 0.29159 0.61373 0.22169 0.0
C652 C 0.29237 0.63522 0.17543 0.0
C653 C 0.2729 0.61173 0.25824 0.0
C654 C 0.27384 0.65418 0.16523 0.0
C655 C 0.25516 0.65241 0.20162 0.0
H656 H 1.00002 0.16482 0.0334 0.0
H657 H 0.97633 0.1083 0.17641 0.0
H658 H 1.01464 0.09471 0.20081 0.0
H659 H 0.05491 0.10276 0.18677 0.0
H660 H 0.07852 0.16115 0.04624 0.0
H661 H 0.04019 0.16999 0.01529 0.0
C662 C 1.00319 0.1495 0.06995 0.0
C663 C 0.98521 0.13801 0.10364 0.0
C664 C 0.02528 0.14227 0.08427 0.0
C665 C 0.98971 0.11745 0.14972 0.0
C666 C 1.01167 0.10989 0.16392 0.0
C667 C 0.05172 0.11744 0.14934 0.0
C668 C 0.06969 0.13167 0.11941 0.0
C669 C 0.02959 0.12279 0.1324 0.0
C670 C 0.06514 0.14986 0.07 0.0
C671 C 0.04318 0.15509 0.05257 0.0
H672 H 0.5423 0.91611 0.62572 0.0
H673 H 0.56187 0.82315 0.57796 0.0
H674 H 0.52274 0.80788 0.56528 0.0
H675 H 0.48288 0.81964 0.5795 0.0
H676 H 0.46343 0.91304 0.62498 0.0
H677 H 0.50249 0.92979 0.62616 0.0
C678 C 0.53793 0.89269 0.61144 0.0
C679 C 0.55488 0.87066 0.6032 0.0
C680 C 0.51543 0.88421 0.60437 0.0
C681 C 0.54912 0.84048 0.58419 0.0
C682 C 0.52675 0.83174 0.57749 0.0
C683 C 0.48725 0.84377 0.58869 0.0
C684 C 0.47032 0.86504 0.60271 0.0
C685 C 0.50975 0.85316 0.58919 0.0
C686 C 0.47612 0.89632 0.61383 0.0
C687 C 0.49847 0.9058 0.61495 0.0
H688 H 0.99608 0.91698 0.90052 0.0
H689 H 0.97181 0.82477 0.94177 0.0
H690 H 1.00983 0.80791 0.96279 0.0
H691 H 0.05043 0.81814 0.9579 0.0
H692 H 0.07438 0.91089 0.91896 0.0
H693 H 0.03615 0.92908 0.90924 0.0
C694 C 0.99916 0.89338 0.91527 0.0
C695 C 0.98127 0.87204 0.91924 0.0
C696 C 1.02102 0.88398 0.92712 0.0
C697 C 0.98532 0.8416 0.9388 0.0
C698 C 1.00707 0.83194 0.95025 0.0
C699 C 0.04719 0.84243 0.94821 0.0
C700 C 0.06521 0.8631 0.93864 0.0
C701 C 0.02512 0.85269 0.94283 0.0
C702 C 0.06084 0.8946 0.9268 0.0
C703 C 0.03897 0.90493 0.92081 0.0
H704 H 0.5616 0.18205 0.44643 0.0
H705 H 0.58266 0.08905 0.40212 0.0
H706 H 0.54395 0.071 0.40256 0.0
H707 H 0.50399 0.08268 0.40759 0.0
H708 H 0.48299 0.17619 0.44819 0.0
H709 H 0.52177 0.19294 0.45772 0.0
C710 C 0.55777 0.15782 0.43682 0.0
C711 C 0.57511 0.13705 0.4234 0.0
C712 C 0.53543 0.14773 0.4364 0.0
C713 C 0.56976 0.10554 0.4127 0.0
C714 C 0.54758 0.09526 0.41257 0.0
C715 C 0.50788 0.10672 0.41866 0.0
C716 C 0.49048 0.1282 0.42651 0.0
C717 C 0.53026 0.1163 0.4231 0.0
C718 C 0.4959 0.15909 0.44221 0.0
C719 C 0.51813 0.16875 0.44718 0.0
H720 H 0.48255 0.63619 0.20658 0.0
H721 H 0.4657 0.6391 0.02377 0.0
H722 H 0.50471 0.64815 0.99897 0.0
H723 H 0.54382 0.64958 0.02852 0.0
H724 H 0.56119 0.6443 0.21049 0.0
H725 H 0.52168 0.64244 0.23679 0.0
C726 C 0.48742 0.63881 0.16132 0.0
C727 C 0.47127 0.63642 0.11694 0.0
C728 C 0.50993 0.64362 0.14741 0.0
C729 C 0.47776 0.64082 0.05866 0.0
C730 C 0.50008 0.64584 0.04448 0.0
C731 C 0.53891 0.64832 0.07398 0.0
C732 C 0.55532 0.64657 0.11753 0.0
C733 C 0.51632 0.64647 0.08837 0.0
C734 C 0.54884 0.64572 0.17632 0.0
C735 C 0.52628 0.64433 0.1912 0.0
H736 H 0.0432 0.3308 0.54985 0.0
H737 H 0.06455 0.38714 0.69632 0.0
H738 H 0.0262 0.40145 0.71557 0.0
H739 H 0.98701 0.40097 0.68696 0.0
H740 H 0.96588 0.3477 0.53652 0.0
H741 H 1.00378 0.32921 0.52276 0.0
C742 C 0.03957 0.34635 0.58584 0.0
C743 C 0.05699 0.35812 0.62101 0.0
C744 C 1.01748 0.35518 0.59581 0.0
C745 C 0.05168 0.3775 0.66854 0.0
C746 C 0.02969 0.38595 0.67935 0.0
C747 C 0.99064 0.38551 0.65084 0.0
C748 C 0.97355 0.37611 0.61239 0.0
C749 C 1.01254 0.37545 0.64255 0.0
C750 C 0.97859 0.35526 0.56694 0.0
C751 C 1.00032 0.34481 0.55885 0.0
H752 H 0.48915 0.41777 0.94216 0.0
H753 H 0.47287 0.32116 0.97388 0.0
H754 H 0.51236 0.30955 0.98693 0.0
H755 H 0.55157 0.32566 0.97398 0.0
H756 H 0.56775 0.42214 0.94025 0.0
H757 H 0.52829 0.43534 0.94425 0.0
C758 C 0.49429 0.39433 0.95317 0.0
C759 C 0.47823 0.37023 0.95635 0.0
C760 C 0.51699 0.38786 0.95961 0.0
C761 C 0.48494 0.34003 0.97141 0.0
C762 C 0.50752 0.33339 0.97827 0.0
C763 C 0.54642 0.34965 0.96863 0.0
C764 C 0.56248 0.37286 0.95601 0.0
C765 C 0.5237 0.35689 0.97015 0.0
C766 C 0.55571 0.40395 0.95011 0.0
C767 C 0.53314 0.41141 0.95187 0.0
H768 H 0.99493 0.61853 0.32558 0.0
H769 H 0.97277 0.66718 0.47995 0.0
H770 H 1.01117 0.67583 0.50947 0.0
H771 H 0.05082 0.66722 0.49459 0.0
H772 H 0.07306 0.61513 0.34447 0.0
H773 H 0.03482 0.61052 0.31001 0.0
C774 C 0.99838 0.63083 0.36593 0.0
C775 C 0.98073 0.64193 0.40055 0.0
C776 C 1.02058 0.63516 0.38348 0.0
C777 C 0.98581 0.65854 0.45195 0.0
C778 C 1.00784 0.66335 0.46917 0.0
C779 C 0.04741 0.6546 0.45456 0.0
C780 C 0.06496 0.64118 0.42276 0.0
C781 C 0.02532 0.65135 0.43575 0.0
C782 C 0.06006 0.62582 0.36993 0.0
C783 C 0.03811 0.62297 0.35035 0.0
H784 H 0.15092 0.05589 1.00555 0.0
H785 H 0.15729 0.02399 0.18334 0.0
H786 H 0.15348 0.96977 0.14984 0.0
H787 H 0.14994 0.93203 0.06995 0.0
H788 H 0.14506 0.96406 0.8919 0.0
H789 H 0.14638 0.01829 0.92609 0.0
C790 C 0.15142 0.03715 0.03725 0.0
C791 C 0.15449 0.04392 0.09699 0.0
C792 C 0.1494 0.0063 0.01763 0.0
C793 C 0.15504 0.01935 0.13724 0.0
C794 C 0.15283 0.98844 0.11806 0.0
C795 C 0.14894 0.95082 0.03846 0.0
C796 C 0.1474 0.94407 0.97831 0.0
C797 C 0.1502 0.98172 0.05834 0.0
C798 C 0.1462 0.96868 0.93829 0.0
C799 C 0.14705 0.99961 0.95785 0.0
H800 H 0.38519 0.93348 0.48522 0.0
H801 H 0.39063 0.96516 0.66359 0.0
H802 H 0.3928 0.0194 0.62977 0.0
H803 H 0.3929 0.05751 0.54942 0.0
H804 H 0.3872 0.02528 0.37139 0.0
H805 H 0.38517 0.97126 0.40546 0.0
C806 C 0.38694 0.95219 0.5169 0.0
C807 C 0.38783 0.94527 0.57696 0.0
C808 C 0.38797 0.98313 0.49717 0.0
C809 C 0.38999 0.96984 0.61721 0.0
C810 C 0.39117 1.00083 0.59784 0.0
C811 C 0.39114 0.03869 0.518 0.0
C812 C 0.39015 0.04543 0.45783 0.0
C813 C 0.39009 0.00771 0.53793 0.0
C814 C 0.38792 0.02076 0.41782 0.0
C815 C 0.38683 0.98988 0.43731 0.0
H816 H 0.89548 0.95053 0.02135 0.0
H817 H 0.89062 0.98443 0.84457 0.0
H818 H 0.89321 0.03823 0.88019 0.0
H819 H 0.89622 0.07529 0.96102 0.0
H820 H 0.90074 0.04202 0.13822 0.0
H821 H 0.89918 0.98795 0.10267 0.0
C822 C 0.89497 0.96967 0.9905 0.0
C823 C 0.89275 0.96347 0.93024 0.0
C824 C 0.89652 1.0005 1.01134 0.0
C825 C 0.89223 0.98854 0.89103 0.0
C826 C 0.89375 0.01928 0.91141 0.0
C827 C 0.89699 0.05627 0.99211 0.0
C828 C 0.89859 0.0627 0.05236 0.0
C829 C 0.89585 0.02548 0.9714 0.0
C830 C 0.89957 0.03772 0.09174 0.0
C831 C 0.89859 0.00685 0.07138 0.0
H832 H 0.66023 0.07254 0.55146 0.0
H833 H 0.65482 0.04182 0.37245 0.0
H834 H 0.64908 0.98802 0.40535 0.0
H835 H 0.64627 0.94994 0.48459 0.0
H836 H 0.65232 0.98037 0.66361 0.0
H837 H 0.65705 0.03444 0.63089 0.0
C838 C 0.65777 0.05411 0.51953 0.0
C839 C 0.658 0.06114 0.4595 0.0
C840 C 0.65458 0.02333 0.53877 0.0
C841 C 0.65478 0.03699 0.41882 0.0
C842 C 0.65148 0.00627 0.43763 0.0
C843 C 0.64852 0.96838 0.5166 0.0
C844 C 0.64893 0.96118 0.57654 0.0
C845 C 0.65143 0.99921 0.49745 0.0
C846 C 0.65192 0.98534 0.61731 0.0
C847 C 0.65466 0.0162 0.59859 0.0
H848 H 0.65106 0.57341 0.98426 0.0
H849 H 0.654 0.54381 0.16397 0.0
H850 H 0.65097 0.48915 0.13274 0.0
H851 H 0.64743 0.45015 0.05438 0.0
H852 H 0.64374 0.48015 0.87496 0.0
H853 H 0.64666 0.53467 0.90639 0.0
C854 C 0.65124 0.55503 0.01674 0.0
C855 C 0.653 0.56264 0.07644 0.0
C856 C 0.64902 0.52389 0.99854 0.0
C857 C 0.65285 0.53855 0.11782 0.0
C858 C 0.651 0.50735 0.09996 0.0
C859 C 0.64708 0.46861 0.02208 0.0
C860 C 0.64533 0.46111 0.9623 0.0
C861 C 0.64897 0.4998 0.04046 0.0
C862 C 0.64493 0.4853 0.92115 0.0
C863 C 0.64675 0.51644 0.9391 0.0
H864 H 0.86807 0.45773 0.47895 0.0
H865 H 0.88036 0.49082 0.65401 0.0
H866 H 0.88157 0.54483 0.61805 0.0
H867 H 0.88203 0.5818 0.53528 0.0
H868 H 0.87094 0.5473 0.3604 0.0
H869 H 0.86646 0.49435 0.39807 0.0
C870 C 0.87086 0.47673 0.50953 0.0
C871 C 0.87432 0.47031 0.56906 0.0
C872 C 0.87195 0.50733 0.48841 0.0
C873 C 0.87762 0.4952 0.60806 0.0
C874 C 0.87845 0.526 0.58739 0.0
C875 C 0.87847 0.56272 0.50544 0.0
C876 C 0.87697 0.56845 0.44495 0.0
C877 C 0.87611 0.53224 0.52742 0.0
C878 C 0.87227 0.54352 0.40697 0.0
C879 C 0.86971 0.51325 0.42851 0.0
H880 H 0.37707 0.43526 0.05509 0.0
H881 H 0.3795 0.46456 0.8751 0.0
H882 H 0.37644 0.5191 0.90566 0.0
H883 H 0.37483 0.55835 0.98351 0.0
H884 H 0.37276 0.52923 0.16361 0.0
H885 H 0.37375 0.47449 0.13288 0.0
C886 C 0.37683 0.45356 0.02246 0.0
C887 C 0.37865 0.4459 0.96286 0.0
C888 C 0.37515 0.4848 0.04039 0.0
C889 C 0.37817 0.46985 0.92119 0.0
C890 C 0.37645 0.50102 0.93867 0.0
C891 C 0.37445 0.54005 0.01613 0.0
C892 C 0.37383 0.54784 0.07584 0.0
C893 C 0.37519 0.50875 0.99815 0.0
C894 C 0.37324 0.52385 0.11744 0.0
C895 C 0.37387 0.49257 0.09987 0.0
H896 H 0.1445 0.55675 0.57257 0.0
H897 H 0.14825 0.52907 0.39169 0.0
H898 H 0.14502 0.4742 0.41984 0.0
H899 H 0.14303 0.43425 0.49601 0.0
H900 H 0.13876 0.46174 0.67688 0.0
H901 H 0.14005 0.51676 0.64848 0.0
C902 C 0.14454 0.53869 0.53932 0.0
C903 C 0.14683 0.54683 0.48021 0.0
C904 C 0.14256 0.50729 0.55579 0.0
C905 C 0.14656 0.52331 0.43749 0.0
C906 C 0.14475 0.49197 0.45355 0.0
C907 C 0.14223 0.45228 0.52921 0.0
C908 C 0.14098 0.44403 0.58845 0.0
C909 C 0.14302 0.48372 0.51259 0.0
C910 C 0.13972 0.46757 0.63098 0.0
C911 C 0.14055 0.49899 0.61479 0.0
H912 H 0.18556 0.30121 0.80459 0.0
H913 H 0.11497 0.29813 0.77419 0.0
H914 H 0.10928 0.27109 0.86757 0.0
H915 H 0.12533 0.24263 0.9518 0.0
H916 H 0.19603 0.24674 0.98042 0.0
H917 H 0.20081 0.27987 0.89466 0.0
C918 C 0.16892 0.29481 0.81876 0.0
C919 C 0.15073 0.30086 0.78248 0.0
C920 C 0.16585 0.27971 0.87232 0.0
C921 C 0.12919 0.29331 0.80156 0.0
C922 C 0.12597 0.27788 0.85478 0.0
C923 C 0.14161 0.25176 0.94015 0.0
C924 C 0.16033 0.24246 0.972 0.0
C925 C 0.14426 0.27024 0.88985 0.0
C926 C 0.18145 0.25387 0.95639 0.0
C927 C 0.18419 0.2725 0.90714 0.0
H928 H 0.40721 0.76092 0.43109 0.0
H929 H 0.34049 0.72923 0.46599 0.0
H930 H 0.34199 0.69396 0.3812 0.0
H931 H 0.36134 0.67651 0.29133 0.0
H932 H 0.42786 0.71073 0.25724 0.0
H933 H 0.42745 0.74051 0.3474 0.0
C934 C 0.39323 0.74569 0.42068 0.0
C935 C 0.37386 0.74726 0.45429 0.0
C936 C 0.39409 0.72633 0.37155 0.0
C937 C 0.35564 0.72792 0.44066 0.0
C938 C 0.35646 0.70806 0.39203 0.0
C939 C 0.3758 0.69023 0.30407 0.0
C940 C 0.39446 0.69174 0.26708 0.0
C941 C 0.37542 0.70771 0.35617 0.0
C942 C 0.41312 0.7095 0.2843 0.0
C943 C 0.41298 0.72651 0.33603 0.0
H944 H 0.13827 0.73656 0.10762 0.0
H945 H 0.20836 0.75749 0.1027 0.0
H946 H 0.21418 0.72616 0.19047 0.0
H947 H 0.1985 0.6989 0.27496 0.0
H948 H 0.1282 0.67876 0.28203 0.0
H949 H 0.12313 0.70373 0.18704 0.0
C950 C 0.15485 0.73327 0.12494 0.0
C951 C 0.17294 0.74881 0.09906 0.0
C952 C 0.15789 0.71614 0.17639 0.0
C953 C 0.19434 0.74523 0.12199 0.0
C954 C 0.1976 0.72769 0.17237 0.0
C955 C 0.18209 0.69988 0.25555 0.0
C956 C 0.16367 0.68767 0.28573 0.0
C957 C 0.17936 0.7141 0.20112 0.0
C958 C 0.14258 0.68834 0.25965 0.0
C959 C 0.13969 0.70257 0.20542 0.0
H960 H 0.35329 0.29198 0.73817 0.0
H961 H 0.42209 0.30957 0.77998 0.0
H962 H 0.43358 0.28125 0.69223 0.0
H963 H 0.42394 0.24815 0.60705 0.0
H964 H 0.35511 0.23362 0.56213 0.0
H965 H 0.34369 0.26435 0.64692 0.0
C966 C 0.37078 0.28978 0.72767 0.0
C967 C 0.38684 0.30246 0.76567 0.0
C968 C 0.37723 0.27405 0.67654 0.0
C969 C 0.40944 0.29996 0.7513 0.0
C970 C 0.41601 0.28368 0.70127 0.0
C971 C 0.40648 0.25223 0.61546 0.0
C972 C 0.39037 0.23869 0.57856 0.0
C973 C 0.40005 0.27019 0.66403 0.0
C974 C 0.36778 0.2441 0.58966 0.0
C975 C 0.36125 0.26143 0.63838 0.0
H976 H 0.93527 0.70744 0.20366 0.0
H977 H 0.86496 0.69495 0.23379 0.0
H978 H 0.85676 0.72414 0.14529 0.0
H979 H 0.86946 0.75706 0.06391 0.0
H980 H 0.93959 0.76927 0.03237 0.0
H981 H 0.94799 0.73589 0.11597 0.0
C982 C 0.91817 0.71091 0.19055 0.0
C983 C 0.90077 0.69932 0.22568 0.0
C984 C 0.91354 0.72763 0.13926 0.0
C985 C 0.87868 0.70363 0.20768 0.0
C986 C 0.87396 0.72041 0.1571 0.0
C987 C 0.88657 0.75196 0.0749 0.0
C988 C 0.90389 0.76567 0.04232 0.0
C989 C 0.89123 0.73303 0.12321 0.0
C990 C 0.92599 0.75876 0.05656 0.0
C991 C 0.93079 0.73994 0.10469 0.0
H992 H 0.64345 0.26725 0.58928 0.0
H993 H 0.71421 0.25306 0.5825 0.0
H994 H 0.71935 0.28742 0.66689 0.0
H995 H 0.70325 0.3168 0.74854 0.0
H996 H 0.63235 0.33048 0.7557 0.0
H997 H 0.62772 0.30097 0.66521 0.0
C998 C 0.66 0.27201 0.60598 0.0
C999 C 0.6784 0.25747 0.58023 0.0
C1000 C 0.66276 0.29132 0.65493 0.0
C1001 C 0.69981 0.26414 0.60149 0.0
C1002 C 0.70273 0.28353 0.65003 0.0
C1003 C 0.6868 0.31347 0.73008 0.0
C1004 C 0.66814 0.3253 0.75928 0.0
C1005 C 0.68425 0.29648 0.67808 0.0
C1006 C 0.64698 0.32139 0.73429 0.0
C1007 C 0.6443 0.30448 0.6826 0.0
H1008 H 0.86996 0.22299 0.85535 0.0
H1009 H 0.87762 0.29392 0.98763 0.0
H1010 H 0.88084 0.3341 0.91165 0.0
H1011 H 0.88678 0.34766 0.8067 0.0
H1012 H 0.88405 0.27404 0.67814 0.0
H1013 H 0.87415 0.23624 0.75322 0.0
C1014 C 0.87221 0.24729 0.8677 0.0
C1015 C 0.874 0.25537 0.92699 0.0
C1016 C 0.87544 0.26969 0.82416 0.0
C1017 C 0.87621 0.28705 0.94227 0.0
C1018 C 0.87835 0.30996 0.89879 0.0
C1019 C 0.88383 0.32337 0.79549 0.0
C1020 C 0.88642 0.31343 0.73732 0.0
C1021 C 0.87887 0.30137 0.83951 0.0
C1022 C 0.88253 0.282 0.72287 0.0
C1023 C 0.87674 0.26043 0.76567 0.0
H1024 H 0.66334 0.77032 0.41134 0.0
H1025 H 0.60326 0.74087 0.49914 0.0
H1026 H 0.59861 0.69813 0.42898 0.0
H1027 H 0.61041 0.67117 0.33763 0.0
H1028 H 0.66847 0.70549 0.24666 0.0
H1029 H 0.67478 0.74454 0.32217 0.0
C1030 C 0.64901 0.7549 0.415 0.0
C1031 C 0.63354 0.75929 0.46028 0.0
C1032 C 0.64596 0.73125 0.37336 0.0
C1033 C 0.61557 0.73812 0.46512 0.0
C1034 C 0.61277 0.71377 0.42461 0.0
C1035 C 0.62445 0.68716 0.33478 0.0
C1036 C 0.63887 0.68559 0.28651 0.0
C1037 C 0.62768 0.71039 0.37787 0.0
C1038 C 0.65698 0.70647 0.28302 0.0
C1039 C 0.66066 0.72877 0.32629 0.0
H1040 H 0.67804 0.74039 0.91397 0.0
H1041 H 0.61981 0.7863 0.97911 0.0
H1042 H 0.62053 0.82216 0.89539 0.0
H1043 H 0.63563 0.83611 0.79808 0.0
H1044 H 0.69347 0.78799 0.73389 0.0
H1045 H 0.69508 0.75742 0.82282 0.0
C1046 C 0.66584 0.75877 0.91027 0.0
C1047 C 0.64895 0.76101 0.95199 0.0
C1048 C 0.66612 0.77851 0.86181 0.0
C1049 C 0.63306 0.78457 0.9473 0.0
C1050 C 0.63338 0.80477 0.89931 0.0
C1051 C 0.6487 0.81918 0.80395 0.0
C1052 C 0.66415 0.81397 0.75895 0.0
C1053 C 0.64947 0.80132 0.85535 0.0
C1054 C 0.68111 0.79212 0.76732 0.0
C1055 C 0.68213 0.77464 0.81828 0.0
H1056 H 0.8841 0.25608 0.20778 0.0
H1057 H 0.90044 0.17055 0.29554 0.0
H1058 H 0.89584 0.19642 0.3907 0.0
H1059 H 0.89036 0.2454 0.44827 0.0
H1060 H 0.87286 0.32961 0.35694 0.0
H1061 H 0.87439 0.30218 0.26402 0.0
C1062 C 0.88655 0.24305 0.24779 0.0
C1063 C 0.89302 0.21173 0.24492 0.0
C1064 C 0.88366 0.25791 0.3017 0.0
C1065 C 0.8956 0.19483 0.29689 0.0
C1066 C 0.89301 0.20963 0.35118 0.0
C1067 C 0.88649 0.25744 0.40803 0.0
C1068 C 0.88196 0.28964 0.40929 0.0
C1069 C 0.88748 0.24143 0.35414 0.0
C1070 C 0.87685 0.30499 0.35691 0.0
C1071 C 0.87771 0.28936 0.30374 0.0
H1072 H 0.7103 0.19989 0.21691 0.0
H1073 H 0.64156 0.19439 0.27025 0.0
H1074 H 0.63075 0.22499 0.18551 0.0
H1075 H 0.64134 0.25792 0.10188 0.0
H1076 H 0.7099 0.26406 0.04931 0.0
H1077 H 0.72035 0.22817 0.12763 0.0
C1078 C 0.69294 0.20519 0.2098 0.0
C1079 C 0.67683 0.19539 0.25042 0.0
C1080 C 0.68683 0.22281 0.16103 0.0
C1081 C 0.65434 0.20193 0.23999 0.0
C1082 C 0.64812 0.21944 0.19154 0.0
C1083 C 0.65844 0.25063 0.10697 0.0
C1084 C 0.67489 0.2631 0.07032 0.0
C1085 C 0.66427 0.23059 0.15257 0.0
C1086 C 0.69706 0.25421 0.0771 0.0
C1087 C 0.70301 0.23399 0.122 0.0
H1088 H 0.86349 0.75455 0.56237 0.0
H1089 H 0.9314 0.78198 0.53119 0.0
H1090 H 0.93077 0.81606 0.61758 0.0
H1091 H 0.91193 0.83307 0.70843 0.0
H1092 H 0.84499 0.80087 0.74224 0.0
H1093 H 0.84406 0.77388 0.64873 0.0
C1094 C 0.87788 0.76879 0.57372 0.0
C1095 C 0.89729 0.76645 0.54035 0.0
C1096 C 0.87765 0.78702 0.62459 0.0
C1097 C 0.91615 0.78408 0.55597 0.0
C1098 C 0.91584 0.80324 0.60559 0.0
C1099 C 0.89709 0.82047 0.69478 0.0
C1100 C 0.87864 0.81873 0.73238 0.0
C1101 C 0.89686 0.80416 0.64129 0.0
C1102 C 0.85953 0.80222 0.71442 0.0
C1103 C 0.85893 0.78684 0.66083 0.0
H1104 H 0.43343 0.25484 0.09816 0.0
H1105 H 0.36502 0.23084 0.06493 0.0
H1106 H 0.36508 0.19408 0.14689 0.0
H1107 H 0.3835 0.17375 0.23528 0.0
H1108 H 0.45152 0.20067 0.2703 0.0
H1109 H 0.45279 0.23099 0.18075 0.0
C1110 C 0.41882 0.24075 0.10795 0.0
C1111 C 0.39939 0.24495 0.07543 0.0
C1112 C 0.41879 0.22062 0.15624 0.0
C1113 C 0.38027 0.22739 0.08908 0.0
C1114 C 0.38025 0.20667 0.13623 0.0
C1115 C 0.39867 0.18588 0.22277 0.0
C1116 C 0.41727 0.18525 0.25991 0.0
C1117 C 0.39923 0.20382 0.17131 0.0
C1118 C 0.43683 0.2011 0.24306 0.0
C1119 C 0.43763 0.21843 0.19168 0.0
H1120 H 0.146 0.81286 0.76448 0.0
H1121 H 0.21575 0.79733 0.79543 0.0
H1122 H 0.21824 0.76708 0.70561 0.0
H1123 H 0.19996 0.74098 0.62332 0.0
H1124 H 0.12995 0.75435 0.59393 0.0
H1125 H 0.12835 0.79013 0.67695 0.0
C1126 C 0.16178 0.80317 0.75115 0.0
C1127 C 0.18056 0.80687 0.78707 0.0
C1128 C 0.16307 0.78539 0.69967 0.0
C1129 C 0.20094 0.79432 0.7691 0.0
C1130 C 0.20241 0.77708 0.71764 0.0
C1131 C 0.1844 0.75194 0.63484 0.0
C1132 C 0.16509 0.7448 0.60286 0.0
C1133 C 0.18347 0.77179 0.68344 0.0
C1134 C 0.14511 0.7596 0.61757 0.0
C1135 C 0.14412 0.77983 0.66542 0.0
H1136 H 0.39549 0.80992 0.78044 0.0
H1137 H 0.32421 0.79839 0.7784 0.0
H1138 H 0.32573 0.76897 0.86949 0.0
H1139 H 0.3476 0.74257 0.94511 0.0
H1140 H 0.41898 0.75022 0.94249 0.0
H1141 H 0.41724 0.78538 0.85839 0.0
C1142 C 0.38028 0.80129 0.80033 0.0
C1143 C 0.35978 0.80615 0.77256 0.0
C1144 C 0.38134 0.78365 0.85188 0.0
C1145 C 0.34022 0.79467 0.79866 0.0
C1146 C 0.34106 0.7779 0.85079 0.0
C1147 C 0.36269 0.75257 0.92674 0.0
C1148 C 0.38336 0.74426 0.94994 0.0
C1149 C 0.36155 0.77171 0.87717 0.0
C1150 C 0.4029 0.75663 0.9253 0.0
C1151 C 0.40189 0.77654 0.87716 0.0
H1152 H 0.1675 0.16409 0.32526 0.0
H1153 H 0.18444 0.24149 0.21272 0.0
H1154 H 0.18152 0.27752 0.29435 0.0
H1155 H 0.1733 0.2874 0.39574 0.0
H1156 H 0.15941 0.21079 0.51285 0.0
H1157 H 0.16138 0.17413 0.43089 0.0
C1158 C 0.17059 0.18884 0.31893 0.0
C1159 C 0.17621 0.20014 0.26319 0.0
C1160 C 0.16927 0.20954 0.36653 0.0
C1161 C 0.18029 0.23219 0.25534 0.0
C1162 C 0.17853 0.25285 0.3019 0.0
C1163 C 0.17128 0.26264 0.40416 0.0
C1164 C 0.16651 0.25197 0.46084 0.0
C1165 C 0.17305 0.24178 0.35753 0.0
C1166 C 0.16299 0.21979 0.46972 0.0
C1167 C 0.16424 0.19878 0.42291 0.0
loop_
_geom_bond_atom_site_label_1
_geom_bond_atom_site_label_2
_geom_bond_distance
_geom_bond_site_symmetry_2
_ccdc_geom_bond_type
Co0 N4 2.148 . S
Co0 N10 2.128 . S
Co0 N20 2.194 . S
Co0 O25 2.351 . S
Co0 O26 2.155 . S
Co0 O27 2.096 . S
C1 N4 1.301 . S
C1 N5 1.328 . S
C1 H6 0.930 . S
C2 C3 1.333 . S
C2 N4 1.317 . S
C2 H7 0.930 . S
C3 C2 1.333 . S
C3 N5 1.350 . S
C3 H29 0.931 . S
N4 Co0 2.148 . S
N4 C1 1.301 . S
N4 C2 1.317 . S
N5 C1 1.328 . S
N5 C3 1.350 . S
H6 C1 0.930 . S
H7 C2 0.930 . S
C8 O9 1.224 . S
C8 O27 1.247 . S
O9 C8 1.224 . S
N10 Co0 2.128 . S
N10 C11 1.355 . S
N10 C13 1.311 . S
C11 N10 1.355 . S
C11 C12 1.363 . S
C11 H23 0.929 . S
C12 C11 1.363 . S
C12 N14 1.375 . S
C12 H30 0.931 . S
C13 N10 1.311 . S
C13 N14 1.347 . S
C13 H24 0.929 . S
N14 C12 1.375 . S
N14 C13 1.347 . S
C15 C18 1.365 . S
C15 N20 1.328 1_556 S
C15 H21 0.929 . S
C16 C17 1.362 . S
C16 C19 1.378 1_556 S
C16 H31 0.929 . S
C17 C16 1.362 . S
C17 C18 1.366 . S
C18 C15 1.365 . S
C18 C17 1.366 . S
C18 H32 0.930 . S
C19 C16 1.378 1_554 S
C19 N20 1.315 . S
C19 H22 0.930 . S
N20 Co0 2.194 . S
N20 C15 1.328 1_554 S
N20 C19 1.315 . S
H21 C15 0.929 . S
H22 C19 0.930 . S
H23 C11 0.929 . S
H24 C13 0.929 . S
O25 Co0 2.351 . S
O25 C28 1.244 . S
O26 Co0 2.155 . S
O26 C28 1.240 . S
O27 Co0 2.096 . S
O27 C8 1.247 . S
C28 O25 1.244 . S
C28 O26 1.240 . S
H29 C3 0.931 . S
H30 C12 0.931 . S
H31 C16 0.929 . S
H32 C18 0.930 . S
Co33 N37 2.148 . S
Co33 N43 2.128 . S
Co33 N53 2.194 . S
Co33 O58 2.351 . S
Co33 O59 2.155 . S
Co33 O60 2.096 . S
C34 N37 1.301 . S
C34 N38 1.328 . S
C34 H39 0.930 . S
C35 C36 1.333 . S
C35 N37 1.317 . S
C35 H40 0.930 . S
C36 C35 1.333 . S
C36 N38 1.350 . S
C36 H62 0.931 . S
N37 Co33 2.148 . S
N37 C34 1.301 . S
N37 C35 1.317 . S
N38 C34 1.328 . S
N38 C36 1.350 . S
H39 C34 0.930 . S
H40 C35 0.930 . S
C41 O42 1.224 . S
C41 O60 1.247 . S
O42 C41 1.224 . S
N43 Co33 2.128 . S
N43 C44 1.355 . S
N43 C46 1.311 . S
C44 N43 1.355 . S
C44 C45 1.363 . S
C44 H56 0.929 . S
C45 C44 1.363 . S
C45 N47 1.375 . S
C45 H63 0.931 . S
C46 N43 1.311 . S
C46 N47 1.347 . S
C46 H57 0.929 . S
N47 C45 1.375 . S
N47 C46 1.347 . S
C48 C51 1.365 . S
C48 N53 1.328 . S
C48 H54 0.929 . S
C49 C50 1.362 . S
C49 C52 1.378 . S
C49 H64 0.929 . S
C50 C49 1.362 . S
C50 C51 1.366 . S
C51 C48 1.365 . S
C51 C50 1.366 . S
C51 H65 0.930 . S
C52 C49 1.378 . S
C52 N53 1.315 . S
C52 H55 0.930 . S
N53 Co33 2.194 . S
N53 C48 1.328 . S
N53 C52 1.315 . S
H54 C48 0.929 . S
H55 C52 0.930 . S
H56 C44 0.929 . S
H57 C46 0.929 . S
O58 Co33 2.351 . S
O58 C61 1.244 . S
O59 Co33 2.155 . S
O59 C61 1.240 . S
O60 Co33 2.096 . S
O60 C41 1.247 . S
C61 O58 1.244 . S
C61 O59 1.240 . S
H62 C36 0.931 . S
H63 C45 0.931 . S
H64 C49 0.929 . S
H65 C51 0.930 . S
Co66 N70 2.148 . S
Co66 N76 2.128 . S
Co66 N86 2.194 . S
Co66 O91 2.351 . S
Co66 O92 2.155 . S
Co66 O93 2.096 . S
C67 N70 1.301 . S
C67 N71 1.328 . S
C67 H72 0.930 . S
C68 C69 1.333 . S
C68 N70 1.317 . S
C68 H73 0.930 . S
C69 C68 1.333 . S
C69 N71 1.350 . S
C69 H95 0.931 . S
N70 Co66 2.148 . S
N70 C67 1.301 . S
N70 C68 1.317 . S
N71 C67 1.328 . S
N71 C69 1.350 . S
H72 C67 0.930 . S
H73 C68 0.930 . S
C74 O75 1.224 . S
C74 O93 1.247 . S
O75 C74 1.224 . S
N76 Co66 2.128 . S
N76 C77 1.355 . S
N76 C79 1.311 . S
C77 N76 1.355 . S
C77 C78 1.363 . S
C77 H89 0.929 . S
C78 C77 1.363 . S
C78 N80 1.375 . S
C78 H96 0.931 . S
C79 N76 1.311 . S
C79 N80 1.347 . S
C79 H90 0.929 . S
N80 C78 1.375 . S
N80 C79 1.347 . S
C81 C84 1.365 . S
C81 N86 1.328 1_554 S
C81 H87 0.929 . S
C82 C83 1.362 . S
C82 C85 1.378 1_554 S
C82 H97 0.929 . S
C83 C82 1.362 . S
C83 C84 1.366 . S
C84 C81 1.365 . S
C84 C83 1.366 . S
C84 H98 0.930 . S
C85 C82 1.378 1_556 S
C85 N86 1.315 . S
C85 H88 0.930 . S
N86 Co66 2.194 . S
N86 C81 1.328 1_556 S
N86 C85 1.315 . S
H87 C81 0.929 . S
H88 C85 0.930 . S
H89 C77 0.929 . S
H90 C79 0.929 . S
O91 Co66 2.351 . S
O91 C94 1.244 . S
O92 Co66 2.155 . S
O92 C94 1.240 . S
O93 Co66 2.096 . S
O93 C74 1.247 . S
C94 O91 1.244 . S
C94 O92 1.240 . S
H95 C69 0.931 . S
H96 C78 0.931 . S
H97 C82 0.929 . S
H98 C84 0.930 . S
Co99 N103 2.148 . S
Co99 N109 2.128 . S
Co99 N119 2.194 . S
Co99 O124 2.351 . S
Co99 O125 2.155 . S
Co99 O126 2.096 . S
C100 N103 1.301 . S
C100 N104 1.328 . S
C100 H105 0.930 . S
C101 C102 1.333 . S
C101 N103 1.317 . S
C101 H106 0.930 . S
C102 C101 1.333 . S
C102 N104 1.350 . S
C102 H128 0.931 . S
N103 Co99 2.148 . S
N103 C100 1.301 . S
N103 C101 1.317 . S
N104 C100 1.328 . S
N104 C102 1.350 . S
H105 C100 0.930 . S
H106 C101 0.930 . S
C107 O108 1.224 . S
C107 O126 1.247 . S
O108 C107 1.224 . S
N109 Co99 2.128 . S
N109 C110 1.355 . S
N109 C112 1.311 . S
C110 N109 1.355 . S
C110 C111 1.363 . S
C110 H122 0.929 . S
C111 C110 1.363 . S
C111 N113 1.375 . S
C111 H129 0.931 . S
C112 N109 1.311 . S
C112 N113 1.347 . S
C112 H123 0.929 . S
N113 C111 1.375 . S
N113 C112 1.347 . S
C114 C117 1.365 . S
C114 N119 1.328 . S
C114 H120 0.929 . S
C115 C116 1.362 . S
C115 C118 1.378 . S
C115 H130 0.929 . S
C116 C115 1.362 . S
C116 C117 1.366 . S
C117 C114 1.365 . S
C117 C116 1.366 . S
C117 H131 0.930 . S
C118 C115 1.378 . S
C118 N119 1.315 . S
C118 H121 0.930 . S
N119 Co99 2.194 . S
N119 C114 1.328 . S
N119 C118 1.315 . S
H120 C114 0.929 . S
H121 C118 0.930 . S
H122 C110 0.929 . S
H123 C112 0.929 . S
O124 Co99 2.351 . S
O124 C127 1.244 . S
O125 Co99 2.155 . S
O125 C127 1.240 . S
O126 Co99 2.096 . S
O126 C107 1.247 . S
C127 O124 1.244 . S
C127 O125 1.240 . S
H128 C102 0.931 . S
H129 C111 0.931 . S
H130 C115 0.929 . S
H131 C117 0.930 . S
Co132 N136 2.148 . S
Co132 N142 2.128 . S
Co132 N152 2.194 . S
Co132 O157 2.351 . S
Co132 O158 2.155 . S
Co132 O159 2.096 . S
C133 N136 1.301 . S
C133 N137 1.328 . S
C133 H138 0.930 . S
C134 C135 1.333 . S
C134 N136 1.317 . S
C134 H139 0.930 . S
C135 C134 1.333 . S
C135 N137 1.350 . S
C135 H161 0.931 . S
N136 Co132 2.148 . S
N136 C133 1.301 . S
N136 C134 1.317 . S
N137 C133 1.328 . S
N137 C135 1.350 . S
H138 C133 0.930 . S
H139 C134 0.930 . S
C140 O141 1.224 . S
C140 O159 1.247 . S
O141 C140 1.224 . S
N142 Co132 2.128 . S
N142 C143 1.355 . S
N142 C145 1.311 . S
C143 N142 1.355 . S
C143 C144 1.363 . S
C143 H155 0.929 . S
C144 C143 1.363 . S
C144 N146 1.375 . S
C144 H162 0.931 . S
C145 N142 1.311 . S
C145 N146 1.347 . S
C145 H156 0.929 . S
N146 C144 1.375 . S
N146 C145 1.347 . S
C147 C150 1.365 . S
C147 N152 1.328 1_554 S
C147 H153 0.929 . S
C148 C149 1.362 . S
C148 C151 1.378 1_554 S
C148 H163 0.929 . S
C149 C148 1.362 . S
C149 C150 1.366 . S
C150 C147 1.365 . S
C150 C149 1.366 . S
C150 H164 0.930 . S
C151 C148 1.378 1_556 S
C151 N152 1.315 . S
C151 H154 0.930 . S
N152 Co132 2.194 . S
N152 C147 1.328 1_556 S
N152 C151 1.315 . S
H153 C147 0.929 . S
H154 C151 0.930 . S
H155 C143 0.929 . S
H156 C145 0.929 . S
O157 Co132 2.351 . S
O157 C160 1.244 . S
O158 Co132 2.155 . S
O158 C160 1.240 . S
O159 Co132 2.096 . S
O159 C140 1.247 . S
C160 O157 1.244 . S
C160 O158 1.240 . S
H161 C135 0.931 . S
H162 C144 0.931 . S
H163 C148 0.929 . S
H164 C150 0.930 . S
Co165 N169 2.148 . S
Co165 N175 2.128 . S
Co165 N185 2.194 . S
Co165 O190 2.351 . S
Co165 O191 2.155 . S
Co165 O192 2.096 . S
C166 N169 1.301 . S
C166 N170 1.328 . S
C166 H171 0.930 . S
C167 C168 1.333 . S
C167 N169 1.317 . S
C167 H172 0.930 . S
C168 C167 1.333 . S
C168 N170 1.350 . S
C168 H194 0.931 . S
N169 Co165 2.148 . S
N169 C166 1.301 . S
N169 C167 1.317 . S
N170 C166 1.328 . S
N170 C168 1.350 . S
H171 C166 0.930 . S
H172 C167 0.930 . S
C173 O174 1.224 . S
C173 O192 1.247 . S
O174 C173 1.224 . S
N175 Co165 2.128 . S
N175 C176 1.355 . S
N175 C178 1.311 . S
C176 N175 1.355 . S
C176 C177 1.363 . S
C176 H188 0.929 . S
C177 C176 1.363 . S
C177 N179 1.375 . S
C177 H195 0.931 . S
C178 N175 1.311 . S
C178 N179 1.347 . S
C178 H189 0.929 . S
N179 C177 1.375 . S
N179 C178 1.347 . S
C180 C183 1.365 . S
C180 N185 1.328 . S
C180 H186 0.929 . S
C181 C182 1.362 . S
C181 C184 1.378 . S
C181 H196 0.929 . S
C182 C181 1.362 . S
C182 C183 1.366 . S
C183 C180 1.365 . S
C183 C182 1.366 . S
C183 H197 0.930 . S
C184 C181 1.378 . S
C184 N185 1.315 . S
C184 H187 0.930 . S
N185 Co165 2.194 . S
N185 C180 1.328 . S
N185 C184 1.315 . S
H186 C180 0.929 . S
H187 C184 0.930 . S
H188 C176 0.929 . S
H189 C178 0.929 . S
O190 Co165 2.351 . S
O190 C193 1.244 . S
O191 Co165 2.155 . S
O191 C193 1.240 . S
O192 Co165 2.096 . S
O192 C173 1.247 . S
C193 O190 1.244 . S
C193 O191 1.240 . S
H194 C168 0.931 . S
H195 C177 0.931 . S
H196 C181 0.929 . S
H197 C183 0.930 . S
Co198 N202 2.148 . S
Co198 N208 2.128 . S
Co198 N218 2.194 . S
Co198 O223 2.351 . S
Co198 O224 2.155 . S
Co198 O225 2.096 . S
C199 N202 1.301 . S
C199 N203 1.328 . S
C199 H204 0.930 . S
C200 C201 1.333 . S
C200 N202 1.317 . S
C200 H205 0.930 . S
C201 C200 1.333 . S
C201 N203 1.350 . S
C201 H227 0.931 . S
N202 Co198 2.148 . S
N202 C199 1.301 . S
N202 C200 1.317 . S
N203 C199 1.328 . S
N203 C201 1.350 . S
H204 C199 0.930 . S
H205 C200 0.930 . S
C206 O207 1.224 . S
C206 O225 1.247 . S
O207 C206 1.224 . S
N208 Co198 2.128 . S
N208 C209 1.355 . S
N208 C211 1.311 . S
C209 N208 1.355 . S
C209 C210 1.363 . S
C209 H221 0.929 . S
C210 C209 1.363 . S
C210 N212 1.375 . S
C210 H228 0.931 . S
C211 N208 1.311 . S
C211 N212 1.347 . S
C211 H222 0.929 . S
N212 C210 1.375 . S
N212 C211 1.347 . S
C213 C216 1.365 . S
C213 N218 1.328 1_556 S
C213 H219 0.929 . S
C214 C215 1.362 . S
C214 C217 1.378 1_556 S
C214 H229 0.929 . S
C215 C214 1.362 . S
C215 C216 1.366 . S
C216 C213 1.365 . S
C216 C215 1.366 . S
C216 H230 0.930 . S
C217 C214 1.378 1_554 S
C217 N218 1.315 . S
C217 H220 0.930 . S
N218 Co198 2.194 . S
N218 C213 1.328 1_554 S
N218 C217 1.315 . S
H219 C213 0.929 . S
H220 C217 0.930 . S
H221 C209 0.929 . S
H222 C211 0.929 . S
O223 Co198 2.351 . S
O223 C226 1.244 . S
O224 Co198 2.155 . S
O224 C226 1.240 . S
O225 Co198 2.096 . S
O225 C206 1.247 . S
C226 O223 1.244 . S
C226 O224 1.240 . S
H227 C201 0.931 . S
H228 C210 0.931 . S
H229 C214 0.929 . S
H230 C216 0.930 . S
Co231 N235 2.148 . S
Co231 N241 2.128 . S
Co231 N251 2.194 . S
Co231 O256 2.351 . S
Co231 O257 2.155 . S
Co231 O258 2.096 . S
C232 N235 1.301 . S
C232 N236 1.328 . S
C232 H237 0.930 . S
C233 C234 1.333 . S
C233 N235 1.317 . S
C233 H238 0.930 . S
C234 C233 1.333 . S
C234 N236 1.350 . S
C234 H260 0.931 . S
N235 Co231 2.148 . S
N235 C232 1.301 . S
N235 C233 1.317 . S
N236 C232 1.328 . S
N236 C234 1.350 . S
H237 C232 0.930 . S
H238 C233 0.930 . S
C239 O240 1.224 . S
C239 O258 1.247 . S
O240 C239 1.224 . S
N241 Co231 2.128 . S
N241 C242 1.355 . S
N241 C244 1.311 . S
C242 N241 1.355 . S
C242 C243 1.363 . S
C242 H254 0.929 . S
C243 C242 1.363 . S
C243 N245 1.375 . S
C243 H261 0.931 . S
C244 N241 1.311 . S
C244 N245 1.347 . S
C244 H255 0.929 . S
N245 C243 1.375 . S
N245 C244 1.347 . S
C246 C249 1.365 . S
C246 N251 1.328 . S
C246 H252 0.929 . S
C247 C248 1.362 . S
C247 C250 1.378 . S
C247 H262 0.929 . S
C248 C247 1.362 . S
C248 C249 1.366 . S
C249 C246 1.365 . S
C249 C248 1.366 . S
C249 H263 0.930 . S
C250 C247 1.378 . S
C250 N251 1.315 . S
C250 H253 0.930 . S
N251 Co231 2.194 . S
N251 C246 1.328 . S
N251 C250 1.315 . S
H252 C246 0.929 . S
H253 C250 0.930 . S
H254 C242 0.929 . S
H255 C244 0.929 . S
O256 Co231 2.351 . S
O256 C259 1.244 . S
O257 Co231 2.155 . S
O257 C259 1.240 . S
O258 Co231 2.096 . S
O258 C239 1.247 . S
C259 O256 1.244 . S
C259 O257 1.240 . S
H260 C234 0.931 . S
H261 C243 0.931 . S
H262 C247 0.929 . S
H263 C249 0.930 . S
Co264 N268 2.148 . S
Co264 N274 2.128 . S
Co264 N284 2.194 . S
Co264 O289 2.351 . S
Co264 O290 2.155 . S
Co264 O291 2.096 . S
C265 N268 1.301 . S
C265 N269 1.328 . S
C265 H270 0.930 . S
C266 C267 1.333 . S
C266 N268 1.317 . S
C266 H271 0.930 . S
C267 C266 1.333 . S
C267 N269 1.350 . S
C267 H293 0.931 . S
N268 Co264 2.148 . S
N268 C265 1.301 . S
N268 C266 1.317 . S
N269 C265 1.328 . S
N269 C267 1.350 . S
H270 C265 0.930 . S
H271 C266 0.930 . S
C272 O273 1.224 . S
C272 O291 1.247 . S
O273 C272 1.224 . S
N274 Co264 2.128 . S
N274 C275 1.355 . S
N274 C277 1.311 . S
C275 N274 1.355 . S
C275 C276 1.363 . S
C275 H287 0.929 . S
C276 C275 1.363 . S
C276 N278 1.375 . S
C276 H294 0.931 . S
C277 N274 1.311 . S
C277 N278 1.347 . S
C277 H288 0.929 . S
N278 C276 1.375 . S
N278 C277 1.347 . S
C279 C282 1.365 . S
C279 N284 1.328 1_556 S
C279 H285 0.929 . S
C280 C281 1.362 . S
C280 C283 1.378 1_556 S
C280 H295 0.929 . S
C281 C280 1.362 . S
C281 C282 1.366 . S
C282 C279 1.365 . S
C282 C281 1.366 . S
C282 H296 0.930 . S
C283 C280 1.378 1_554 S
C283 N284 1.315 . S
C283 H286 0.930 . S
N284 Co264 2.194 . S
N284 C279 1.328 1_554 S
N284 C283 1.315 . S
H285 C279 0.929 . S
H286 C283 0.930 . S
H287 C275 0.929 . S
H288 C277 0.929 . S
O289 Co264 2.351 . S
O289 C292 1.244 . S
O290 Co264 2.155 . S
O290 C292 1.240 . S
O291 Co264 2.096 . S
O291 C272 1.247 . S
C292 O289 1.244 . S
C292 O290 1.240 . S
H293 C267 0.931 . S
H294 C276 0.931 . S
H295 C280 0.929 . S
H296 C282 0.930 . S
Co297 N301 2.148 . S
Co297 N307 2.128 . S
Co297 N317 2.194 . S
Co297 O322 2.351 . S
Co297 O323 2.155 . S
Co297 O324 2.096 . S
C298 N301 1.301 . S
C298 N302 1.328 . S
C298 H303 0.930 . S
C299 C300 1.333 . S
C299 N301 1.317 . S
C299 H304 0.930 . S
C300 C299 1.333 . S
C300 N302 1.350 . S
C300 H326 0.931 . S
N301 Co297 2.148 . S
N301 C298 1.301 . S
N301 C299 1.317 . S
N302 C298 1.328 . S
N302 C300 1.350 . S
H303 C298 0.930 . S
H304 C299 0.930 . S
C305 O306 1.224 . S
C305 O324 1.247 . S
O306 C305 1.224 . S
N307 Co297 2.128 . S
N307 C308 1.355 . S
N307 C310 1.311 . S
C308 N307 1.355 . S
C308 C309 1.363 . S
C308 H320 0.929 . S
C309 C308 1.363 . S
C309 N311 1.375 . S
C309 H327 0.931 . S
C310 N307 1.311 . S
C310 N311 1.347 . S
C310 H321 0.929 . S
N311 C309 1.375 . S
N311 C310 1.347 . S
C312 C315 1.365 . S
C312 N317 1.328 . S
C312 H318 0.929 . S
C313 C314 1.362 . S
C313 C316 1.378 . S
C313 H328 0.929 . S
C314 C313 1.362 . S
C314 C315 1.366 . S
C315 C312 1.365 . S
C315 C314 1.366 . S
C315 H329 0.930 . S
C316 C313 1.378 . S
C316 N317 1.315 . S
C316 H319 0.930 . S
N317 Co297 2.194 . S
N317 C312 1.328 . S
N317 C316 1.315 . S
H318 C312 0.929 . S
H319 C316 0.930 . S
H320 C308 0.929 . S
H321 C310 0.929 . S
O322 Co297 2.351 . S
O322 C325 1.244 . S
O323 Co297 2.155 . S
O323 C325 1.240 . S
O324 Co297 2.096 . S
O324 C305 1.247 . S
C325 O322 1.244 . S
C325 O323 1.240 . S
H326 C300 0.931 . S
H327 C309 0.931 . S
H328 C313 0.929 . S
H329 C315 0.930 . S
Co330 N334 2.148 . S
Co330 N340 2.128 . S
Co330 N350 2.194 . S
Co330 O355 2.351 . S
Co330 O356 2.155 . S
Co330 O357 2.096 . S
C331 N334 1.301 . S
C331 N335 1.328 . S
C331 H336 0.930 . S
C332 C333 1.333 . S
C332 N334 1.317 . S
C332 H337 0.930 . S
C333 C332 1.333 . S
C333 N335 1.350 . S
C333 H359 0.931 . S
N334 Co330 2.148 . S
N334 C331 1.301 . S
N334 C332 1.317 . S
N335 C331 1.328 . S
N335 C333 1.350 . S
H336 C331 0.930 . S
H337 C332 0.930 . S
C338 O339 1.224 . S
C338 O357 1.247 . S
O339 C338 1.224 . S
N340 Co330 2.128 . S
N340 C341 1.355 . S
N340 C343 1.311 . S
C341 N340 1.355 . S
C341 C342 1.363 . S
C341 H353 0.929 . S
C342 C341 1.363 . S
C342 N344 1.375 . S
C342 H360 0.931 . S
C343 N340 1.311 . S
C343 N344 1.347 . S
C343 H354 0.929 . S
N344 C342 1.375 . S
N344 C343 1.347 . S
C345 C348 1.365 . S
C345 N350 1.328 1_554 S
C345 H351 0.929 . S
C346 C347 1.362 . S
C346 C349 1.378 1_554 S
C346 H361 0.929 . S
C347 C346 1.362 . S
C347 C348 1.366 . S
C348 C345 1.365 . S
C348 C347 1.366 . S
C348 H362 0.930 . S
C349 C346 1.378 1_556 S
C349 N350 1.315 . S
C349 H352 0.930 . S
N350 Co330 2.194 . S
N350 C345 1.328 1_556 S
N350 C349 1.315 . S
H351 C345 0.929 . S
H352 C349 0.930 . S
H353 C341 0.929 . S
H354 C343 0.929 . S
O355 Co330 2.351 . S
O355 C358 1.244 . S
O356 Co330 2.155 . S
O356 C358 1.240 . S
O357 Co330 2.096 . S
O357 C338 1.247 . S
C358 O355 1.244 . S
C358 O356 1.240 . S
H359 C333 0.931 . S
H360 C342 0.931 . S
H361 C346 0.929 . S
H362 C348 0.930 . S
Co363 N367 2.148 . S
Co363 N373 2.128 . S
Co363 N383 2.194 . S
Co363 O388 2.351 . S
Co363 O389 2.155 . S
Co363 O390 2.096 . S
C364 N367 1.301 . S
C364 N368 1.328 . S
C364 H369 0.930 . S
C365 C366 1.333 . S
C365 N367 1.317 . S
C365 H370 0.930 . S
C366 C365 1.333 . S
C366 N368 1.350 . S
C366 H392 0.931 . S
N367 Co363 2.148 . S
N367 C364 1.301 . S
N367 C365 1.317 . S
N368 C364 1.328 . S
N368 C366 1.350 . S
H369 C364 0.930 . S
H370 C365 0.930 . S
C371 O372 1.224 . S
C371 O390 1.247 . S
O372 C371 1.224 . S
N373 Co363 2.128 . S
N373 C374 1.355 . S
N373 C376 1.311 . S
C374 N373 1.355 . S
C374 C375 1.363 . S
C374 H386 0.929 . S
C375 C374 1.363 . S
C375 N377 1.375 . S
C375 H393 0.931 . S
C376 N373 1.311 . S
C376 N377 1.347 . S
C376 H387 0.929 . S
N377 C375 1.375 . S
N377 C376 1.347 . S
C378 C381 1.365 . S
C378 N383 1.328 . S
C378 H384 0.929 . S
C379 C380 1.362 . S
C379 C382 1.378 . S
C379 H394 0.929 . S
C380 C379 1.362 . S
C380 C381 1.366 . S
C381 C378 1.365 . S
C381 C380 1.366 . S
C381 H395 0.930 . S
C382 C379 1.378 . S
C382 N383 1.315 . S
C382 H385 0.930 . S
N383 Co363 2.194 . S
N383 C378 1.328 . S
N383 C382 1.315 . S
H384 C378 0.929 . S
H385 C382 0.930 . S
H386 C374 0.929 . S
H387 C376 0.929 . S
O388 Co363 2.351 . S
O388 C391 1.244 . S
O389 Co363 2.155 . S
O389 C391 1.240 . S
O390 Co363 2.096 . S
O390 C371 1.247 . S
C391 O388 1.244 . S
C391 O389 1.240 . S
H392 C366 0.931 . S
H393 C375 0.931 . S
H394 C379 0.929 . S
H395 C381 0.930 . S
Co396 N400 2.148 . S
Co396 N406 2.128 . S
Co396 N416 2.194 . S
Co396 O421 2.351 . S
Co396 O422 2.155 . S
Co396 O423 2.096 . S
C397 N400 1.301 . S
C397 N401 1.328 . S
C397 H402 0.930 . S
C398 C399 1.333 . S
C398 N400 1.317 . S
C398 H403 0.930 . S
C399 C398 1.333 . S
C399 N401 1.350 . S
C399 H425 0.931 . S
N400 Co396 2.148 . S
N400 C397 1.301 . S
N400 C398 1.317 . S
N401 C397 1.328 . S
N401 C399 1.350 . S
H402 C397 0.930 . S
H403 C398 0.930 . S
C404 O405 1.224 . S
C404 O423 1.247 . S
O405 C404 1.224 . S
N406 Co396 2.128 . S
N406 C407 1.355 . S
N406 C409 1.311 . S
C407 N406 1.355 . S
C407 C408 1.363 . S
C407 H419 0.929 . S
C408 C407 1.363 . S
C408 N410 1.375 . S
C408 H426 0.931 . S
C409 N406 1.311 . S
C409 N410 1.347 . S
C409 H420 0.929 . S
N410 C408 1.375 . S
N410 C409 1.347 . S
C411 C414 1.365 . S
C411 N416 1.328 1_554 S
C411 H417 0.929 . S
C412 C413 1.362 . S
C412 C415 1.378 1_554 S
C412 H427 0.929 . S
C413 C412 1.362 . S
C413 C414 1.366 . S
C414 C411 1.365 . S
C414 C413 1.366 . S
C414 H428 0.930 . S
C415 C412 1.378 1_556 S
C415 N416 1.315 . S
C415 H418 0.930 . S
N416 Co396 2.194 . S
N416 C411 1.328 1_556 S
N416 C415 1.315 . S
H417 C411 0.929 . S
H418 C415 0.930 . S
H419 C407 0.929 . S
H420 C409 0.929 . S
O421 Co396 2.351 . S
O421 C424 1.244 . S
O422 Co396 2.155 . S
O422 C424 1.240 . S
O423 Co396 2.096 . S
O423 C404 1.247 . S
C424 O421 1.244 . S
C424 O422 1.240 . S
H425 C399 0.931 . S
H426 C408 0.931 . S
H427 C412 0.929 . S
H428 C414 0.930 . S
Co429 N433 2.148 . S
Co429 N439 2.128 . S
Co429 N449 2.194 . S
Co429 O454 2.351 . S
Co429 O455 2.155 . S
Co429 O456 2.096 . S
C430 N433 1.301 . S
C430 N434 1.328 . S
C430 H435 0.930 . S
C431 C432 1.333 . S
C431 N433 1.317 . S
C431 H436 0.930 . S
C432 C431 1.333 . S
C432 N434 1.350 . S
C432 H458 0.931 . S
N433 Co429 2.148 . S
N433 C430 1.301 . S
N433 C431 1.317 . S
N434 C430 1.328 . S
N434 C432 1.350 . S
H435 C430 0.930 . S
H436 C431 0.930 . S
C437 O438 1.224 . S
C437 O456 1.247 . S
O438 C437 1.224 . S
N439 Co429 2.128 . S
N439 C440 1.355 . S
N439 C442 1.311 . S
C440 N439 1.355 . S
C440 C441 1.363 . S
C440 H452 0.929 . S
C441 C440 1.363 . S
C441 N443 1.375 . S
C441 H459 0.931 . S
C442 N439 1.311 . S
C442 N443 1.347 . S
C442 H453 0.929 . S
N443 C441 1.375 . S
N443 C442 1.347 . S
C444 C447 1.365 . S
C444 N449 1.328 . S
C444 H450 0.929 . S
C445 C446 1.362 . S
C445 C448 1.378 . S
C445 H460 0.929 . S
C446 C445 1.362 . S
C446 C447 1.366 . S
C447 C444 1.365 . S
C447 C446 1.366 . S
C447 H461 0.930 . S
C448 C445 1.378 . S
C448 N449 1.315 . S
C448 H451 0.930 . S
N449 Co429 2.194 . S
N449 C444 1.328 . S
N449 C448 1.315 . S
H450 C444 0.929 . S
H451 C448 0.930 . S
H452 C440 0.929 . S
H453 C442 0.929 . S
O454 Co429 2.351 . S
O454 C457 1.244 . S
O455 Co429 2.155 . S
O455 C457 1.240 . S
O456 Co429 2.096 . S
O456 C437 1.247 . S
C457 O454 1.244 . S
C457 O455 1.240 . S
H458 C432 0.931 . S
H459 C441 0.931 . S
H460 C445 0.929 . S
H461 C447 0.930 . S
Co462 N466 2.148 . S
Co462 N472 2.128 . S
Co462 N482 2.194 . S
Co462 O487 2.351 . S
Co462 O488 2.155 . S
Co462 O489 2.096 . S
C463 N466 1.301 . S
C463 N467 1.328 . S
C463 H468 0.930 . S
C464 C465 1.333 . S
C464 N466 1.317 . S
C464 H469 0.930 . S
C465 C464 1.333 . S
C465 N467 1.350 . S
C465 H491 0.931 . S
N466 Co462 2.148 . S
N466 C463 1.301 . S
N466 C464 1.317 . S
N467 C463 1.328 . S
N467 C465 1.350 . S
H468 C463 0.930 . S
H469 C464 0.930 . S
C470 O471 1.224 . S
C470 O489 1.247 . S
O471 C470 1.224 . S
N472 Co462 2.128 . S
N472 C473 1.355 . S
N472 C475 1.311 . S
C473 N472 1.355 . S
C473 C474 1.363 . S
C473 H485 0.929 . S
C474 C473 1.363 . S
C474 N476 1.375 . S
C474 H492 0.931 . S
C475 N472 1.311 . S
C475 N476 1.347 . S
C475 H486 0.929 . S
N476 C474 1.375 . S
N476 C475 1.347 . S
C477 C480 1.365 . S
C477 N482 1.328 1_556 S
C477 H483 0.929 . S
C478 C479 1.362 . S
C478 C481 1.378 1_556 S
C478 H493 0.929 . S
C479 C478 1.362 . S
C479 C480 1.366 . S
C480 C477 1.365 . S
C480 C479 1.366 . S
C480 H494 0.930 . S
C481 C478 1.378 1_554 S
C481 N482 1.315 . S
C481 H484 0.930 . S
N482 Co462 2.194 . S
N482 C477 1.328 1_554 S
N482 C481 1.315 . S
H483 C477 0.929 . S
H484 C481 0.930 . S
H485 C473 0.929 . S
H486 C475 0.929 . S
O487 Co462 2.351 . S
O487 C490 1.244 . S
O488 Co462 2.155 . S
O488 C490 1.240 . S
O489 Co462 2.096 . S
O489 C470 1.247 . S
C490 O487 1.244 . S
C490 O488 1.240 . S
H491 C465 0.931 . S
H492 C474 0.931 . S
H493 C478 0.929 . S
H494 C480 0.930 . S
Co495 N499 2.148 . S
Co495 N505 2.128 . S
Co495 N515 2.194 . S
Co495 O520 2.351 . S
Co495 O521 2.155 . S
Co495 O522 2.096 . S
C496 N499 1.301 . S
C496 N500 1.328 . S
C496 H501 0.930 . S
C497 C498 1.333 . S
C497 N499 1.317 . S
C497 H502 0.930 . S
C498 C497 1.333 . S
C498 N500 1.350 . S
C498 H524 0.931 . S
N499 Co495 2.148 . S
N499 C496 1.301 . S
N499 C497 1.317 . S
N500 C496 1.328 . S
N500 C498 1.350 . S
H501 C496 0.930 . S
H502 C497 0.930 . S
C503 O504 1.224 . S
C503 O522 1.247 . S
O504 C503 1.224 . S
N505 Co495 2.128 . S
N505 C506 1.355 . S
N505 C508 1.311 . S
C506 N505 1.355 . S
C506 C507 1.363 . S
C506 H518 0.929 . S
C507 C506 1.363 . S
C507 N509 1.375 . S
C507 H525 0.931 . S
C508 N505 1.311 . S
C508 N509 1.347 . S
C508 H519 0.929 . S
N509 C507 1.375 . S
N509 C508 1.347 . S
C510 C513 1.365 . S
C510 N515 1.328 . S
C510 H516 0.929 . S
C511 C512 1.362 . S
C511 C514 1.378 . S
C511 H526 0.929 . S
C512 C511 1.362 . S
C512 C513 1.366 . S
C513 C510 1.365 . S
C513 C512 1.366 . S
C513 H527 0.930 . S
C514 C511 1.378 . S
C514 N515 1.315 . S
C514 H517 0.930 . S
N515 Co495 2.194 . S
N515 C510 1.328 . S
N515 C514 1.315 . S
H516 C510 0.929 . S
H517 C514 0.930 . S
H518 C506 0.929 . S
H519 C508 0.929 . S
O520 Co495 2.351 . S
O520 C523 1.244 . S
O521 Co495 2.155 . S
O521 C523 1.240 . S
O522 Co495 2.096 . S
O522 C503 1.247 . S
C523 O520 1.244 . S
C523 O521 1.240 . S
H524 C498 0.931 . S
H525 C507 0.931 . S
H526 C511 0.929 . S
H527 C513 0.930 . S
H528 C534 0.930 . S
H529 C537 0.930 . S
H530 C538 0.930 . S
H531 C539 0.930 . S
H532 C542 0.930 . S
H533 C543 0.930 . S
C534 H528 0.930 . S
C534 C535 1.355 . S
C534 C536 1.415 . S
C535 C534 1.355 . S
C535 C537 1.419 . S
C536 C534 1.415 . S
C536 C541 1.425 . S
C536 C543 1.409 . S
C537 H529 0.930 . S
C537 C535 1.419 . S
C537 C538 1.362 . S
C538 H530 0.930 . S
C538 C537 1.362 . S
C538 C541 1.409 . S
C539 H531 0.930 . S
C539 C540 1.355 . S
C539 C541 1.415 . S
C540 C539 1.355 . S
C540 C542 1.419 . S
C541 C536 1.425 . S
C541 C538 1.409 . S
C541 C539 1.415 . S
C542 H532 0.930 . S
C542 C540 1.419 . S
C542 C543 1.362 . S
C543 H533 0.930 . S
C543 C536 1.409 . S
C543 C542 1.362 . S
H544 C550 0.930 . S
H545 C553 0.930 . S
H546 C554 0.930 . S
H547 C555 0.930 . S
H548 C558 0.930 . S
H549 C559 0.930 . S
C550 H544 0.930 . S
C550 C551 1.355 . S
C550 C552 1.415 . S
C551 C550 1.355 . S
C551 C553 1.419 . S
C552 C550 1.415 . S
C552 C557 1.425 . S
C552 C559 1.409 . S
C553 H545 0.930 . S
C553 C551 1.419 . S
C553 C554 1.362 . S
C554 H546 0.930 . S
C554 C553 1.362 . S
C554 C557 1.409 . S
C555 H547 0.930 . S
C555 C556 1.355 . S
C555 C557 1.415 . S
C556 C555 1.355 . S
C556 C558 1.419 . S
C557 C552 1.425 . S
C557 C554 1.409 . S
C557 C555 1.415 . S
C558 H548 0.930 . S
C558 C556 1.419 . S
C558 C559 1.362 . S
C559 H549 0.930 . S
C559 C552 1.409 . S
C559 C558 1.362 . S
H560 C566 0.930 . S
H561 C569 0.930 . S
H562 C570 0.930 . S
H563 C571 0.930 . S
H564 C574 0.930 . S
H565 C575 0.930 . S
C566 H560 0.930 . S
C566 C567 1.355 . S
C566 C568 1.415 . S
C567 C566 1.355 . S
C567 C569 1.419 . S
C568 C566 1.415 . S
C568 C573 1.425 . S
C568 C575 1.409 . S
C569 H561 0.930 . S
C569 C567 1.419 . S
C569 C570 1.362 . S
C570 H562 0.930 . S
C570 C569 1.362 . S
C570 C573 1.409 . S
C571 H563 0.930 . S
C571 C572 1.355 . S
C571 C573 1.415 . S
C572 C571 1.355 . S
C572 C574 1.419 . S
C573 C568 1.425 . S
C573 C570 1.409 . S
C573 C571 1.415 . S
C574 H564 0.930 . S
C574 C572 1.419 . S
C574 C575 1.362 . S
C575 H565 0.930 . S
C575 C568 1.409 . S
C575 C574 1.362 . S
H576 C582 0.930 . S
H577 C585 0.930 . S
H578 C586 0.930 . S
H579 C587 0.930 . S
H580 C590 0.930 . S
H581 C591 0.930 . S
C582 H576 0.930 . S
C582 C583 1.355 . S
C582 C584 1.415 . S
C583 C582 1.355 . S
C583 C585 1.419 . S
C584 C582 1.415 . S
C584 C589 1.425 . S
C584 C591 1.409 . S
C585 H577 0.930 . S
C585 C583 1.419 . S
C585 C586 1.362 . S
C586 H578 0.930 . S
C586 C585 1.362 . S
C586 C589 1.409 . S
C587 H579 0.930 . S
C587 C588 1.355 . S
C587 C589 1.415 . S
C588 C587 1.355 . S
C588 C590 1.419 . S
C589 C584 1.425 . S
C589 C586 1.409 . S
C589 C587 1.415 . S
C590 H580 0.930 . S
C590 C588 1.419 . S
C590 C591 1.362 . S
C591 H581 0.930 . S
C591 C584 1.409 . S
C591 C590 1.362 . S
H592 C598 0.930 . S
H593 C601 0.930 . S
H594 C602 0.930 . S
H595 C603 0.930 . S
H596 C606 0.930 . S
H597 C607 0.930 . S
C598 H592 0.930 . S
C598 C599 1.355 . S
C598 C600 1.415 . S
C599 C598 1.355 . S
C599 C601 1.419 . S
C600 C598 1.415 . S
C600 C605 1.425 . S
C600 C607 1.409 . S
C601 H593 0.930 . S
C601 C599 1.419 . S
C601 C602 1.362 . S
C602 H594 0.930 . S
C602 C601 1.362 . S
C602 C605 1.409 . S
C603 H595 0.930 . S
C603 C604 1.355 . S
C603 C605 1.415 . S
C604 C603 1.355 . S
C604 C606 1.419 . S
C605 C600 1.425 . S
C605 C602 1.409 . S
C605 C603 1.415 . S
C606 H596 0.930 . S
C606 C604 1.419 . S
C606 C607 1.362 . S
C607 H597 0.930 . S
C607 C600 1.409 . S
C607 C606 1.362 . S
H608 C614 0.930 . S
H609 C617 0.930 . S
H610 C618 0.930 . S
H611 C619 0.930 . S
H612 C622 0.930 . S
H613 C623 0.930 . S
C614 H608 0.930 . S
C614 C615 1.355 . S
C614 C616 1.415 . S
C615 C614 1.355 . S
C615 C617 1.419 . S
C616 C614 1.415 . S
C616 C621 1.425 . S
C616 C623 1.409 . S
C617 H609 0.930 . S
C617 C615 1.419 . S
C617 C618 1.362 . S
C618 H610 0.930 . S
C618 C617 1.362 . S
C618 C621 1.409 . S
C619 H611 0.930 . S
C619 C620 1.355 . S
C619 C621 1.415 . S
C620 C619 1.355 . S
C620 C622 1.419 . S
C621 C616 1.425 . S
C621 C618 1.409 . S
C621 C619 1.415 . S
C622 H612 0.930 . S
C622 C620 1.419 . S
C622 C623 1.362 . S
C623 H613 0.930 . S
C623 C616 1.409 . S
C623 C622 1.362 . S
H624 C630 0.930 . S
H625 C633 0.930 . S
H626 C634 0.930 . S
H627 C635 0.930 . S
H628 C638 0.930 . S
H629 C639 0.930 . S
C630 H624 0.930 . S
C630 C631 1.355 . S
C630 C632 1.415 . S
C631 C630 1.355 . S
C631 C633 1.419 . S
C632 C630 1.415 . S
C632 C637 1.425 . S
C632 C639 1.409 . S
C633 H625 0.930 . S
C633 C631 1.419 . S
C633 C634 1.362 . S
C634 H626 0.930 . S
C634 C633 1.362 . S
C634 C637 1.409 . S
C635 H627 0.930 . S
C635 C636 1.355 . S
C635 C637 1.415 . S
C636 C635 1.355 . S
C636 C638 1.419 . S
C637 C632 1.425 . S
C637 C634 1.409 . S
C637 C635 1.415 . S
C638 H628 0.930 . S
C638 C636 1.419 . S
C638 C639 1.362 . S
C639 H629 0.930 . S
C639 C632 1.409 . S
C639 C638 1.362 . S
H640 C646 0.930 . S
H641 C649 0.930 . S
H642 C650 0.930 . S
H643 C651 0.930 . S
H644 C654 0.930 . S
H645 C655 0.930 . S
C646 H640 0.930 . S
C646 C647 1.355 . S
C646 C648 1.415 . S
C647 C646 1.355 . S
C647 C649 1.419 . S
C648 C646 1.415 . S
C648 C653 1.425 . S
C648 C655 1.409 . S
C649 H641 0.930 . S
C649 C647 1.419 . S
C649 C650 1.362 . S
C650 H642 0.930 . S
C650 C649 1.362 . S
C650 C653 1.409 . S
C651 H643 0.930 . S
C651 C652 1.355 . S
C651 C653 1.415 . S
C652 C651 1.355 . S
C652 C654 1.419 . S
C653 C648 1.425 . S
C653 C650 1.409 . S
C653 C651 1.415 . S
C654 H644 0.930 . S
C654 C652 1.419 . S
C654 C655 1.362 . S
C655 H645 0.930 . S
C655 C648 1.409 . S
C655 C654 1.362 . S
H656 C662 0.930 . S
H657 C665 0.930 . S
H658 C666 0.930 . S
H659 C667 0.930 . S
H660 C670 0.930 . S
H661 C671 0.930 . S
C662 H656 0.930 . S
C662 C663 1.355 . S
C662 C664 1.415 . S
C663 C662 1.355 . S
C663 C665 1.419 . S
C664 C662 1.415 . S
C664 C669 1.425 1_655 S
C664 C671 1.409 1_655 S
C665 H657 0.930 . S
C665 C663 1.419 . S
C665 C666 1.362 . S
C666 H658 0.930 . S
C666 C665 1.362 . S
C666 C669 1.409 1_655 S
C667 H659 0.930 . S
C667 C668 1.355 . S
C667 C669 1.415 . S
C668 C667 1.355 . S
C668 C670 1.419 . S
C669 C664 1.425 1_455 S
C669 C666 1.409 1_455 S
C669 C667 1.415 . S
C670 H660 0.930 . S
C670 C668 1.419 . S
C670 C671 1.362 . S
C671 H661 0.930 . S
C671 C664 1.409 1_455 S
C671 C670 1.362 . S
H672 C678 0.930 . S
H673 C681 0.930 . S
H674 C682 0.930 . S
H675 C683 0.930 . S
H676 C686 0.930 . S
H677 C687 0.930 . S
C678 H672 0.930 . S
C678 C679 1.355 . S
C678 C680 1.415 . S
C679 C678 1.355 . S
C679 C681 1.419 . S
C680 C678 1.415 . S
C680 C685 1.425 . S
C680 C687 1.409 . S
C681 H673 0.930 . S
C681 C679 1.419 . S
C681 C682 1.362 . S
C682 H674 0.930 . S
C682 C681 1.362 . S
C682 C685 1.409 . S
C683 H675 0.930 . S
C683 C684 1.355 . S
C683 C685 1.415 . S
C684 C683 1.355 . S
C684 C686 1.419 . S
C685 C680 1.425 . S
C685 C682 1.409 . S
C685 C683 1.415 . S
C686 H676 0.930 . S
C686 C684 1.419 . S
C686 C687 1.362 . S
C687 H677 0.930 . S
C687 C680 1.409 . S
C687 C686 1.362 . S
H688 C694 0.930 . S
H689 C697 0.930 . S
H690 C698 0.930 . S
H691 C699 0.930 . S
H692 C702 0.930 . S
H693 C703 0.930 . S
C694 H688 0.930 . S
C694 C695 1.355 . S
C694 C696 1.415 . S
C695 C694 1.355 . S
C695 C697 1.419 . S
C696 C694 1.415 . S
C696 C701 1.425 1_655 S
C696 C703 1.409 1_655 S
C697 H689 0.930 . S
C697 C695 1.419 . S
C697 C698 1.362 . S
C698 H690 0.930 . S
C698 C697 1.362 . S
C698 C701 1.409 1_655 S
C699 H691 0.930 . S
C699 C700 1.355 . S
C699 C701 1.415 . S
C700 C699 1.355 . S
C700 C702 1.419 . S
C701 C696 1.425 1_455 S
C701 C698 1.409 1_455 S
C701 C699 1.415 . S
C702 H692 0.930 . S
C702 C700 1.419 . S
C702 C703 1.362 . S
C703 H693 0.930 . S
C703 C696 1.409 1_455 S
C703 C702 1.362 . S
H704 C710 0.930 . S
H705 C713 0.930 . S
H706 C714 0.930 . S
H707 C715 0.930 . S
H708 C718 0.930 . S
H709 C719 0.930 . S
C710 H704 0.930 . S
C710 C711 1.355 . S
C710 C712 1.415 . S
C711 C710 1.355 . S
C711 C713 1.419 . S
C712 C710 1.415 . S
C712 C717 1.425 . S
C712 C719 1.409 . S
C713 H705 0.930 . S
C713 C711 1.419 . S
C713 C714 1.362 . S
C714 H706 0.930 . S
C714 C713 1.362 . S
C714 C717 1.409 . S
C715 H707 0.930 . S
C715 C716 1.355 . S
C715 C717 1.415 . S
C716 C715 1.355 . S
C716 C718 1.419 . S
C717 C712 1.425 . S
C717 C714 1.409 . S
C717 C715 1.415 . S
C718 H708 0.930 . S
C718 C716 1.419 . S
C718 C719 1.362 . S
C719 H709 0.930 . S
C719 C712 1.409 . S
C719 C718 1.362 . S
H720 C726 0.930 1_556 S
H721 C729 0.930 . S
H722 C730 0.930 . S
H723 C731 0.930 . S
H724 C734 0.930 1_556 S
H725 C735 0.930 1_556 S
C726 H720 0.930 1_554 S
C726 C727 1.355 . S
C726 C728 1.415 . S
C727 C726 1.355 . S
C727 C729 1.419 . S
C728 C726 1.415 . S
C728 C733 1.425 . S
C728 C735 1.409 . S
C729 H721 0.930 . S
C729 C727 1.419 . S
C729 C730 1.362 . S
C730 H722 0.930 . S
C730 C729 1.362 . S
C730 C733 1.409 . S
C731 H723 0.930 . S
C731 C732 1.355 . S
C731 C733 1.415 . S
C732 C731 1.355 . S
C732 C734 1.419 . S
C733 C728 1.425 . S
C733 C730 1.409 . S
C733 C731 1.415 . S
C734 H724 0.930 1_554 S
C734 C732 1.419 . S
C734 C735 1.362 . S
C735 H725 0.930 1_554 S
C735 C728 1.409 . S
C735 C734 1.362 . S
H736 C742 0.930 . S
H737 C745 0.930 . S
H738 C746 0.930 . S
H739 C747 0.930 . S
H740 C750 0.930 . S
H741 C751 0.930 . S
C742 H736 0.930 . S
C742 C743 1.355 . S
C742 C744 1.415 . S
C743 C742 1.355 . S
C743 C745 1.419 . S
C744 C742 1.415 . S
C744 C749 1.425 1_455 S
C744 C751 1.409 1_455 S
C745 H737 0.930 . S
C745 C743 1.419 . S
C745 C746 1.362 . S
C746 H738 0.930 . S
C746 C745 1.362 . S
C746 C749 1.409 1_455 S
C747 H739 0.930 . S
C747 C748 1.355 . S
C747 C749 1.415 . S
C748 C747 1.355 . S
C748 C750 1.419 . S
C749 C744 1.425 1_655 S
C749 C746 1.409 1_655 S
C749 C747 1.415 . S
C750 H740 0.930 . S
C750 C748 1.419 . S
C750 C751 1.362 . S
C751 H741 0.930 . S
C751 C744 1.409 1_655 S
C751 C750 1.362 . S
H752 C758 0.930 . S
H753 C761 0.930 . S
H754 C762 0.930 . S
H755 C763 0.930 1_554 S
H756 C766 0.930 . S
H757 C767 0.930 . S
C758 H752 0.930 . S
C758 C759 1.355 . S
C758 C760 1.415 . S
C759 C758 1.355 . S
C759 C761 1.419 1_556 S
C760 C758 1.415 . S
C760 C765 1.425 . S
C760 C767 1.409 . S
C761 H753 0.930 . S
C761 C759 1.419 1_554 S
C761 C762 1.362 . S
C762 H754 0.930 . S
C762 C761 1.362 . S
C762 C765 1.409 1_554 S
C763 H755 0.930 1_556 S
C763 C764 1.355 . S
C763 C765 1.415 . S
C764 C763 1.355 . S
C764 C766 1.419 . S
C765 C760 1.425 . S
C765 C762 1.409 1_556 S
C765 C763 1.415 . S
C766 H756 0.930 . S
C766 C764 1.419 . S
C766 C767 1.362 . S
C767 H757 0.930 . S
C767 C760 1.409 . S
C767 C766 1.362 . S
H768 C774 0.930 . S
H769 C777 0.930 . S
H770 C778 0.930 . S
H771 C779 0.930 . S
H772 C782 0.930 . S
H773 C783 0.930 . S
C774 H768 0.930 . S
C774 C775 1.355 . S
C774 C776 1.415 . S
C775 C774 1.355 . S
C775 C777 1.419 . S
C776 C774 1.415 . S
C776 C781 1.425 1_655 S
C776 C783 1.409 1_655 S
C777 H769 0.930 . S
C777 C775 1.419 . S
C777 C778 1.362 . S
C778 H770 0.930 . S
C778 C777 1.362 . S
C778 C781 1.409 1_655 S
C779 H771 0.930 . S
C779 C780 1.355 . S
C779 C781 1.415 . S
C780 C779 1.355 . S
C780 C782 1.419 . S
C781 C776 1.425 1_455 S
C781 C778 1.409 1_455 S
C781 C779 1.415 . S
C782 H772 0.930 . S
C782 C780 1.419 . S
C782 C783 1.362 . S
C783 H773 0.930 . S
C783 C776 1.409 1_455 S
C783 C782 1.362 . S
H784 C790 0.930 . S
H785 C793 0.930 . S
H786 C794 0.930 . S
H787 C795 0.930 . S
H788 C798 0.930 . S
H789 C799 0.930 . S
C790 H784 0.930 . S
C790 C791 1.355 . S
C790 C792 1.436 . S
C791 C790 1.355 . S
C791 C793 1.419 . S
C792 C790 1.436 . S
C792 C797 1.424 1_544 S
C792 C799 1.389 1_545 S
C793 H785 0.930 . S
C793 C791 1.419 . S
C793 C794 1.362 1_554 S
C794 H786 0.930 . S
C794 C793 1.362 1_556 S
C794 C797 1.389 1_545 S
C795 H787 0.930 . S
C795 C796 1.355 . S
C795 C797 1.436 . S
C796 C795 1.355 . S
C796 C798 1.419 . S
C797 C792 1.424 1_566 S
C797 C794 1.389 1_565 S
C797 C795 1.436 . S
C798 H788 0.930 . S
C798 C796 1.419 . S
C798 C799 1.362 1_556 S
C799 H789 0.930 . S
C799 C792 1.389 1_565 S
C799 C798 1.362 1_554 S
H800 C806 0.930 . S
H801 C809 0.930 . S
H802 C810 0.930 . S
H803 C811 0.930 . S
H804 C814 0.930 . S
H805 C815 0.930 . S
C806 H800 0.930 . S
C806 C807 1.355 . S
C806 C808 1.415 1_565 S
C807 C806 1.355 . S
C807 C809 1.419 . S
C808 C806 1.415 1_545 S
C808 C813 1.425 1_545 S
C808 C815 1.409 . S
C809 H801 0.930 . S
C809 C807 1.419 . S
C809 C810 1.362 . S
C810 H802 0.930 . S
C810 C809 1.362 . S
C810 C813 1.409 . S
C811 H803 0.930 . S
C811 C812 1.355 . S
C811 C813 1.415 1_545 S
C812 C811 1.355 . S
C812 C814 1.419 . S
C813 C808 1.425 1_565 S
C813 C810 1.409 . S
C813 C811 1.415 1_565 S
C814 H804 0.930 . S
C814 C812 1.419 . S
C814 C815 1.362 . S
C815 H805 0.930 . S
C815 C808 1.409 . S
C815 C814 1.362 . S
H816 C822 0.939 . S
H817 C825 0.930 . S
H818 C826 0.930 . S
H819 C827 0.939 . S
H820 C830 0.930 . S
H821 C831 0.930 . S
C822 H816 0.939 . S
C822 C823 1.340 1_554 S
C822 C824 1.420 . S
C823 C822 1.340 1_556 S
C823 C825 1.419 . S
C824 C822 1.420 . S
C824 C829 1.425 1_564 S
C824 C831 1.409 . S
C825 H817 0.930 . S
C825 C823 1.419 . S
C825 C826 1.362 1_565 S
C826 H818 0.930 . S
C826 C825 1.362 1_545 S
C826 C829 1.409 . S
C827 H819 0.939 . S
C827 C828 1.340 1_556 S
C827 C829 1.420 . S
C828 C827 1.340 1_554 S
C828 C830 1.419 . S
C829 C824 1.425 1_546 S
C829 C826 1.409 . S
C829 C827 1.420 . S
C830 H820 0.930 . S
C830 C828 1.419 . S
C830 C831 1.362 1_545 S
C831 H821 0.930 . S
C831 C824 1.409 . S
C831 C830 1.362 1_565 S
H832 C838 0.930 . S
H833 C841 0.930 . S
H834 C842 0.930 . S
H835 C843 0.930 . S
H836 C846 0.930 . S
H837 C847 0.930 . S
C838 H832 0.930 . S
C838 C839 1.355 . S
C838 C840 1.432 . S
C839 C838 1.355 . S
C839 C841 1.419 . S
C840 C838 1.432 . S
C840 C845 1.424 1_545 S
C840 C847 1.393 1_545 S
C841 H833 0.930 . S
C841 C839 1.419 . S
C841 C842 1.362 . S
C842 H834 0.930 . S
C842 C841 1.362 . S
C842 C845 1.393 1_545 S
C843 H835 0.930 . S
C843 C844 1.355 . S
C843 C845 1.432 . S
C844 C843 1.355 . S
C844 C846 1.419 . S
C845 C840 1.424 1_565 S
C845 C842 1.393 1_565 S
C845 C843 1.432 . S
C846 H836 0.930 . S
C846 C844 1.419 . S
C846 C847 1.362 . S
C847 H837 0.930 . S
C847 C840 1.393 1_565 S
C847 C846 1.362 . S
H848 C854 0.930 1_556 S
H849 C857 0.930 . S
H850 C858 0.930 . S
H851 C859 0.930 1_554 S
H852 C862 0.930 . S
H853 C863 0.930 . S
C854 H848 0.930 1_554 S
C854 C855 1.355 . S
C854 C856 1.415 1_554 S
C855 C854 1.355 . S
C855 C857 1.419 . S
C856 C854 1.415 1_556 S
C856 C861 1.425 1_556 S
C856 C863 1.409 . S
C857 H849 0.930 . S
C857 C855 1.419 . S
C857 C858 1.362 . S
C858 H850 0.930 . S
C858 C857 1.362 . S
C858 C861 1.409 . S
C859 H851 0.930 1_556 S
C859 C860 1.355 . S
C859 C861 1.415 1_556 S
C860 C859 1.355 . S
C860 C862 1.419 . S
C861 C856 1.425 1_554 S
C861 C858 1.409 . S
C861 C859 1.415 1_554 S
C862 H852 0.930 . S
C862 C860 1.419 . S
C862 C863 1.362 . S
C863 H853 0.930 . S
C863 C856 1.409 . S
C863 C862 1.362 . S
H864 C870 0.930 . S
H865 C873 0.930 . S
H866 C874 0.930 . S
H867 C875 0.930 . S
H868 C878 0.930 . S
H869 C879 0.930 . S
C870 H864 0.930 . S
C870 C871 1.355 . S
C870 C872 1.415 . S
C871 C870 1.355 . S
C871 C873 1.419 . S
C872 C870 1.415 . S
C872 C877 1.425 . S
C872 C879 1.409 . S
C873 H865 0.930 . S
C873 C871 1.419 . S
C873 C874 1.362 . S
C874 H866 0.930 . S
C874 C873 1.362 . S
C874 C877 1.409 . S
C875 H867 0.930 . S
C875 C876 1.355 . S
C875 C877 1.415 . S
C876 C875 1.355 . S
C876 C878 1.419 . S
C877 C872 1.425 . S
C877 C874 1.409 . S
C877 C875 1.415 . S
C878 H868 0.930 . S
C878 C876 1.419 . S
C878 C879 1.362 . S
C879 H869 0.930 . S
C879 C872 1.409 . S
C879 C878 1.362 . S
H880 C886 0.930 . S
H881 C889 0.930 . S
H882 C890 0.930 . S
H883 C891 0.930 . S
H884 C894 0.930 . S
H885 C895 0.930 . S
C886 H880 0.930 . S
C886 C887 1.355 . S
C886 C888 1.421 . S
C887 C886 1.355 . S
C887 C889 1.419 . S
C888 C886 1.421 . S
C888 C893 1.425 1_556 S
C888 C895 1.403 1_556 S
C889 H881 0.930 . S
C889 C887 1.419 . S
C889 C890 1.362 . S
C890 H882 0.930 . S
C890 C889 1.362 . S
C890 C893 1.403 1_556 S
C891 H883 0.930 . S
C891 C892 1.355 . S
C891 C893 1.421 . S
C892 C891 1.355 . S
C892 C894 1.419 . S
C893 C888 1.425 1_554 S
C893 C890 1.403 1_554 S
C893 C891 1.421 . S
C894 H884 0.930 . S
C894 C892 1.419 . S
C894 C895 1.362 . S
C895 H885 0.930 . S
C895 C888 1.403 1_554 S
C895 C894 1.362 . S
H896 C902 0.930 . S
H897 C905 0.930 . S
H898 C906 0.930 . S
H899 C907 0.930 . S
H900 C910 0.930 . S
H901 C911 0.930 . S
C902 H896 0.930 . S
C902 C903 1.355 . S
C902 C904 1.415 . S
C903 C902 1.355 . S
C903 C905 1.419 . S
C904 C902 1.415 . S
C904 C909 1.425 . S
C904 C911 1.409 . S
C905 H897 0.930 . S
C905 C903 1.419 . S
C905 C906 1.362 . S
C906 H898 0.930 . S
C906 C905 1.362 . S
C906 C909 1.409 . S
C907 H899 0.930 . S
C907 C908 1.355 . S
C907 C909 1.415 . S
C908 C907 1.355 . S
C908 C910 1.419 . S
C909 C904 1.425 . S
C909 C906 1.409 . S
C909 C907 1.415 . S
C910 H900 0.930 . S
C910 C908 1.419 . S
C910 C911 1.362 . S
C911 H901 0.930 . S
C911 C904 1.409 . S
C911 C910 1.362 . S
H912 C918 0.930 . S
H913 C921 0.930 . S
H914 C922 0.930 . S
H915 C923 0.930 . S
H916 C926 0.930 . S
H917 C927 0.930 . S
C918 H912 0.930 . S
C918 C919 1.355 . S
C918 C920 1.415 . S
C919 C918 1.355 . S
C919 C921 1.419 . S
C920 C918 1.415 . S
C920 C925 1.425 . S
C920 C927 1.409 . S
C921 H913 0.930 . S
C921 C919 1.419 . S
C921 C922 1.362 . S
C922 H914 0.930 . S
C922 C921 1.362 . S
C922 C925 1.409 . S
C923 H915 0.930 . S
C923 C924 1.355 . S
C923 C925 1.415 . S
C924 C923 1.355 . S
C924 C926 1.419 . S
C925 C920 1.425 . S
C925 C922 1.409 . S
C925 C923 1.415 . S
C926 H916 0.930 . S
C926 C924 1.419 . S
C926 C927 1.362 . S
C927 H917 0.930 . S
C927 C920 1.409 . S
C927 C926 1.362 . S
H928 C934 0.930 . S
H929 C937 0.930 . S
H930 C938 0.930 . S
H931 C939 0.930 . S
H932 C942 0.930 . S
H933 C943 0.930 . S
C934 H928 0.930 . S
C934 C935 1.355 . S
C934 C936 1.415 . S
C935 C934 1.355 . S
C935 C937 1.419 . S
C936 C934 1.415 . S
C936 C941 1.425 . S
C936 C943 1.409 . S
C937 H929 0.930 . S
C937 C935 1.419 . S
C937 C938 1.362 . S
C938 H930 0.930 . S
C938 C937 1.362 . S
C938 C941 1.409 . S
C939 H931 0.930 . S
C939 C940 1.355 . S
C939 C941 1.415 . S
C940 C939 1.355 . S
C940 C942 1.419 . S
C941 C936 1.425 . S
C941 C938 1.409 . S
C941 C939 1.415 . S
C942 H932 0.930 . S
C942 C940 1.419 . S
C942 C943 1.362 . S
C943 H933 0.930 . S
C943 C936 1.409 . S
C943 C942 1.362 . S
H944 C950 0.930 . S
H945 C953 0.930 . S
H946 C954 0.930 . S
H947 C955 0.930 . S
H948 C958 0.930 . S
H949 C959 0.930 . S
C950 H944 0.930 . S
C950 C951 1.355 . S
C950 C952 1.415 . S
C951 C950 1.355 . S
C951 C953 1.419 . S
C952 C950 1.415 . S
C952 C957 1.425 . S
C952 C959 1.409 . S
C953 H945 0.930 . S
C953 C951 1.419 . S
C953 C954 1.362 . S
C954 H946 0.930 . S
C954 C953 1.362 . S
C954 C957 1.409 . S
C955 H947 0.930 . S
C955 C956 1.355 . S
C955 C957 1.415 . S
C956 C955 1.355 . S
C956 C958 1.419 . S
C957 C952 1.425 . S
C957 C954 1.409 . S
C957 C955 1.415 . S
C958 H948 0.930 . S
C958 C956 1.419 . S
C958 C959 1.362 . S
C959 H949 0.930 . S
C959 C952 1.409 . S
C959 C958 1.362 . S
H960 C966 0.930 . S
H961 C969 0.930 . S
H962 C970 0.930 . S
H963 C971 0.930 . S
H964 C974 0.930 . S
H965 C975 0.930 . S
C966 H960 0.930 . S
C966 C967 1.355 . S
C966 C968 1.415 . S
C967 C966 1.355 . S
C967 C969 1.419 . S
C968 C966 1.415 . S
C968 C973 1.425 . S
C968 C975 1.409 . S
C969 H961 0.930 . S
C969 C967 1.419 . S
C969 C970 1.362 . S
C970 H962 0.930 . S
C970 C969 1.362 . S
C970 C973 1.409 . S
C971 H963 0.930 . S
C971 C972 1.355 . S
C971 C973 1.415 . S
C972 C971 1.355 . S
C972 C974 1.419 . S
C973 C968 1.425 . S
C973 C970 1.409 . S
C973 C971 1.415 . S
C974 H964 0.930 . S
C974 C972 1.419 . S
C974 C975 1.362 . S
C975 H965 0.930 . S
C975 C968 1.409 . S
C975 C974 1.362 . S
H976 C982 0.930 . S
H977 C985 0.930 . S
H978 C986 0.930 . S
H979 C987 0.930 . S
H980 C990 0.930 . S
H981 C991 0.930 . S
C982 H976 0.930 . S
C982 C983 1.355 . S
C982 C984 1.415 . S
C983 C982 1.355 . S
C983 C985 1.419 . S
C984 C982 1.415 . S
C984 C989 1.425 . S
C984 C991 1.409 . S
C985 H977 0.930 . S
C985 C983 1.419 . S
C985 C986 1.362 . S
C986 H978 0.930 . S
C986 C985 1.362 . S
C986 C989 1.409 . S
C987 H979 0.930 . S
C987 C988 1.355 . S
C987 C989 1.415 . S
C988 C987 1.355 . S
C988 C990 1.419 . S
C989 C984 1.425 . S
C989 C986 1.409 . S
C989 C987 1.415 . S
C990 H980 0.930 . S
C990 C988 1.419 . S
C990 C991 1.362 . S
C991 H981 0.930 . S
C991 C984 1.409 . S
C991 C990 1.362 . S
H992 C998 0.930 . S
H993 C1001 0.930 . S
H994 C1002 0.930 . S
H995 C1003 0.930 . S
H996 C1006 0.930 . S
H997 C1007 0.930 . S
C998 H992 0.930 . S
C998 C999 1.355 . S
C998 C1000 1.415 . S
C999 C998 1.355 . S
C999 C1001 1.419 . S
C1000 C998 1.415 . S
C1000 C1005 1.425 . S
C1000 C1007 1.409 . S
C1001 H993 0.930 . S
C1001 C999 1.419 . S
C1001 C1002 1.362 . S
C1002 H994 0.930 . S
C1002 C1001 1.362 . S
C1002 C1005 1.409 . S
C1003 H995 0.930 . S
C1003 C1004 1.355 . S
C1003 C1005 1.415 . S
C1004 C1003 1.355 . S
C1004 C1006 1.419 . S
C1005 C1000 1.425 . S
C1005 C1002 1.409 . S
C1005 C1003 1.415 . S
C1006 H996 0.930 . S
C1006 C1004 1.419 . S
C1006 C1007 1.362 . S
C1007 H997 0.930 . S
C1007 C1000 1.409 . S
C1007 C1006 1.362 . S
H1008 C1014 0.930 . S
H1009 C1017 0.930 . S
H1010 C1018 0.930 . S
H1011 C1019 0.930 . S
H1012 C1022 0.930 . S
H1013 C1023 0.930 . S
C1014 H1008 0.930 . S
C1014 C1015 1.355 . S
C1014 C1016 1.415 . S
C1015 C1014 1.355 . S
C1015 C1017 1.419 . S
C1016 C1014 1.415 . S
C1016 C1021 1.425 . S
C1016 C1023 1.409 . S
C1017 H1009 0.930 . S
C1017 C1015 1.419 . S
C1017 C1018 1.362 . S
C1018 H1010 0.930 . S
C1018 C1017 1.362 . S
C1018 C1021 1.409 . S
C1019 H1011 0.930 . S
C1019 C1020 1.355 . S
C1019 C1021 1.415 . S
C1020 C1019 1.355 . S
C1020 C1022 1.419 . S
C1021 C1016 1.425 . S
C1021 C1018 1.409 . S
C1021 C1019 1.415 . S
C1022 H1012 0.930 . S
C1022 C1020 1.419 . S
C1022 C1023 1.362 . S
C1023 H1013 0.930 . S
C1023 C1016 1.409 . S
C1023 C1022 1.362 . S
H1024 C1030 0.930 . S
H1025 C1033 0.930 . S
H1026 C1034 0.930 . S
H1027 C1035 0.930 . S
H1028 C1038 0.930 . S
H1029 C1039 0.930 . S
C1030 H1024 0.930 . S
C1030 C1031 1.355 . S
C1030 C1032 1.415 . S
C1031 C1030 1.355 . S
C1031 C1033 1.419 . S
C1032 C1030 1.415 . S
C1032 C1037 1.425 . S
C1032 C1039 1.409 . S
C1033 H1025 0.930 . S
C1033 C1031 1.419 . S
C1033 C1034 1.362 . S
C1034 H1026 0.930 . S
C1034 C1033 1.362 . S
C1034 C1037 1.409 . S
C1035 H1027 0.930 . S
C1035 C1036 1.355 . S
C1035 C1037 1.415 . S
C1036 C1035 1.355 . S
C1036 C1038 1.419 . S
C1037 C1032 1.425 . S
C1037 C1034 1.409 . S
C1037 C1035 1.415 . S
C1038 H1028 0.930 . S
C1038 C1036 1.419 . S
C1038 C1039 1.362 . S
C1039 H1029 0.930 . S
C1039 C1032 1.409 . S
C1039 C1038 1.362 . S
H1040 C1046 0.930 . S
H1041 C1049 0.930 . S
H1042 C1050 0.930 . S
H1043 C1051 0.930 . S
H1044 C1054 0.930 . S
H1045 C1055 0.930 . S
C1046 H1040 0.930 . S
C1046 C1047 1.355 . S
C1046 C1048 1.415 . S
C1047 C1046 1.355 . S
C1047 C1049 1.419 . S
C1048 C1046 1.415 . S
C1048 C1053 1.425 . S
C1048 C1055 1.409 . S
C1049 H1041 0.930 . S
C1049 C1047 1.419 . S
C1049 C1050 1.362 . S
C1050 H1042 0.930 . S
C1050 C1049 1.362 . S
C1050 C1053 1.409 . S
C1051 H1043 0.930 . S
C1051 C1052 1.355 . S
C1051 C1053 1.415 . S
C1052 C1051 1.355 . S
C1052 C1054 1.419 . S
C1053 C1048 1.425 . S
C1053 C1050 1.409 . S
C1053 C1051 1.415 . S
C1054 H1044 0.930 . S
C1054 C1052 1.419 . S
C1054 C1055 1.362 . S
C1055 H1045 0.930 . S
C1055 C1048 1.409 . S
C1055 C1054 1.362 . S
H1056 C1062 0.930 . S
H1057 C1065 0.930 . S
H1058 C1066 0.930 . S
H1059 C1067 0.930 . S
H1060 C1070 0.930 . S
H1061 C1071 0.930 . S
C1062 H1056 0.930 . S
C1062 C1063 1.355 . S
C1062 C1064 1.415 . S
C1063 C1062 1.355 . S
C1063 C1065 1.419 . S
C1064 C1062 1.415 . S
C1064 C1069 1.425 . S
C1064 C1071 1.409 . S
C1065 H1057 0.930 . S
C1065 C1063 1.419 . S
C1065 C1066 1.362 . S
C1066 H1058 0.930 . S
C1066 C1065 1.362 . S
C1066 C1069 1.409 . S
C1067 H1059 0.930 . S
C1067 C1068 1.355 . S
C1067 C1069 1.415 . S
C1068 C1067 1.355 . S
C1068 C1070 1.419 . S
C1069 C1064 1.425 . S
C1069 C1066 1.409 . S
C1069 C1067 1.415 . S
C1070 H1060 0.930 . S
C1070 C1068 1.419 . S
C1070 C1071 1.362 . S
C1071 H1061 0.930 . S
C1071 C1064 1.409 . S
C1071 C1070 1.362 . S
H1072 C1078 0.930 . S
H1073 C1081 0.930 . S
H1074 C1082 0.930 . S
H1075 C1083 0.930 . S
H1076 C1086 0.930 . S
H1077 C1087 0.930 . S
C1078 H1072 0.930 . S
C1078 C1079 1.355 . S
C1078 C1080 1.415 . S
C1079 C1078 1.355 . S
C1079 C1081 1.419 . S
C1080 C1078 1.415 . S
C1080 C1085 1.425 . S
C1080 C1087 1.409 . S
C1081 H1073 0.930 . S
C1081 C1079 1.419 . S
C1081 C1082 1.362 . S
C1082 H1074 0.930 . S
C1082 C1081 1.362 . S
C1082 C1085 1.409 . S
C1083 H1075 0.930 . S
C1083 C1084 1.355 . S
C1083 C1085 1.415 . S
C1084 C1083 1.355 . S
C1084 C1086 1.419 . S
C1085 C1080 1.425 . S
C1085 C1082 1.409 . S
C1085 C1083 1.415 . S
C1086 H1076 0.930 . S
C1086 C1084 1.419 . S
C1086 C1087 1.362 . S
C1087 H1077 0.930 . S
C1087 C1080 1.409 . S
C1087 C1086 1.362 . S
H1088 C1094 0.930 . S
H1089 C1097 0.930 . S
H1090 C1098 0.930 . S
H1091 C1099 0.930 . S
H1092 C1102 0.930 . S
H1093 C1103 0.930 . S
C1094 H1088 0.930 . S
C1094 C1095 1.355 . S
C1094 C1096 1.415 . S
C1095 C1094 1.355 . S
C1095 C1097 1.419 . S
C1096 C1094 1.415 . S
C1096 C1101 1.425 . S
C1096 C1103 1.409 . S
C1097 H1089 0.930 . S
C1097 C1095 1.419 . S
C1097 C1098 1.362 . S
C1098 H1090 0.930 . S
C1098 C1097 1.362 . S
C1098 C1101 1.409 . S
C1099 H1091 0.930 . S
C1099 C1100 1.355 . S
C1099 C1101 1.415 . S
C1100 C1099 1.355 . S
C1100 C1102 1.419 . S
C1101 C1096 1.425 . S
C1101 C1098 1.409 . S
C1101 C1099 1.415 . S
C1102 H1092 0.930 . S
C1102 C1100 1.419 . S
C1102 C1103 1.362 . S
C1103 H1093 0.930 . S
C1103 C1096 1.409 . S
C1103 C1102 1.362 . S
H1104 C1110 0.930 . S
H1105 C1113 0.930 . S
H1106 C1114 0.930 . S
H1107 C1115 0.930 . S
H1108 C1118 0.930 . S
H1109 C1119 0.930 . S
C1110 H1104 0.930 . S
C1110 C1111 1.355 . S
C1110 C1112 1.415 . S
C1111 C1110 1.355 . S
C1111 C1113 1.419 . S
C1112 C1110 1.415 . S
C1112 C1117 1.425 . S
C1112 C1119 1.409 . S
C1113 H1105 0.930 . S
C1113 C1111 1.419 . S
C1113 C1114 1.362 . S
C1114 H1106 0.930 . S
C1114 C1113 1.362 . S
C1114 C1117 1.409 . S
C1115 H1107 0.930 . S
C1115 C1116 1.355 . S
C1115 C1117 1.415 . S
C1116 C1115 1.355 . S
C1116 C1118 1.419 . S
C1117 C1112 1.425 . S
C1117 C1114 1.409 . S
C1117 C1115 1.415 . S
C1118 H1108 0.930 . S
C1118 C1116 1.419 . S
C1118 C1119 1.362 . S
C1119 H1109 0.930 . S
C1119 C1112 1.409 . S
C1119 C1118 1.362 . S
H1120 C1126 0.930 . S
H1121 C1129 0.930 . S
H1122 C1130 0.930 . S
H1123 C1131 0.930 . S
H1124 C1134 0.930 . S
H1125 C1135 0.930 . S
C1126 H1120 0.930 . S
C1126 C1127 1.355 . S
C1126 C1128 1.415 . S
C1127 C1126 1.355 . S
C1127 C1129 1.419 . S
C1128 C1126 1.415 . S
C1128 C1133 1.425 . S
C1128 C1135 1.409 . S
C1129 H1121 0.930 . S
C1129 C1127 1.419 . S
C1129 C1130 1.362 . S
C1130 H1122 0.930 . S
C1130 C1129 1.362 . S
C1130 C1133 1.409 . S
C1131 H1123 0.930 . S
C1131 C1132 1.355 . S
C1131 C1133 1.415 . S
C1132 C1131 1.355 . S
C1132 C1134 1.419 . S
C1133 C1128 1.425 . S
C1133 C1130 1.409 . S
C1133 C1131 1.415 . S
C1134 H1124 0.930 . S
C1134 C1132 1.419 . S
C1134 C1135 1.362 . S
C1135 H1125 0.930 . S
C1135 C1128 1.409 . S
C1135 C1134 1.362 . S
H1136 C1142 0.930 . S
H1137 C1145 0.930 . S
H1138 C1146 0.930 . S
H1139 C1147 0.930 . S
H1140 C1150 0.930 . S
H1141 C1151 0.930 . S
C1142 H1136 0.930 . S
C1142 C1143 1.355 . S
C1142 C1144 1.415 . S
C1143 C1142 1.355 . S
C1143 C1145 1.419 . S
C1144 C1142 1.415 . S
C1144 C1149 1.425 . S
C1144 C1151 1.409 . S
C1145 H1137 0.930 . S
C1145 C1143 1.419 . S
C1145 C1146 1.362 . S
C1146 H1138 0.930 . S
C1146 C1145 1.362 . S
C1146 C1149 1.409 . S
C1147 H1139 0.930 . S
C1147 C1148 1.355 . S
C1147 C1149 1.415 . S
C1148 C1147 1.355 . S
C1148 C1150 1.419 . S
C1149 C1144 1.425 . S
C1149 C1146 1.409 . S
C1149 C1147 1.415 . S
C1150 H1140 0.930 . S
C1150 C1148 1.419 . S
C1150 C1151 1.362 . S
C1151 H1141 0.930 . S
C1151 C1144 1.409 . S
C1151 C1150 1.362 . S
H1152 C1158 0.930 . S
H1153 C1161 0.930 . S
H1154 C1162 0.930 . S
H1155 C1163 0.930 . S
H1156 C1166 0.930 . S
H1157 C1167 0.930 . S
C1158 H1152 0.930 . S
C1158 C1159 1.355 . S
C1158 C1160 1.415 . S
C1159 C1158 1.355 . S
C1159 C1161 1.419 . S
C1160 C1158 1.415 . S
C1160 C1165 1.425 . S
C1160 C1167 1.409 . S
C1161 H1153 0.930 . S
C1161 C1159 1.419 . S
C1161 C1162 1.362 . S
C1162 H1154 0.930 . S
C1162 C1161 1.362 . S
C1162 C1165 1.409 . S
C1163 H1155 0.930 . S
C1163 C1164 1.355 . S
C1163 C1165 1.415 . S
C1164 C1163 1.355 . S
C1164 C1166 1.419 . S
C1165 C1160 1.425 . S
C1165 C1162 1.409 . S
C1165 C1163 1.415 . S
C1166 H1156 0.930 . S
C1166 C1164 1.419 . S
C1166 C1167 1.362 . S
C1167 H1157 0.930 . S
C1167 C1160 1.409 . S
C1167 C1166 1.362 . S
C535 N14 1.894 . S
C540 N113 1.869 . S
C551 N80 1.880 . S
C556 N47 1.897 . S
C567 N245 1.881 . S
C572 N146 1.867 . S
C583 N179 1.896 . S
C588 N212 1.882 . S
C599 N278 1.868 . S
C604 N377 1.893 . S
C615 N311 1.888 . S
C620 N344 1.866 . S
C631 N509 1.867 . S
C636 N410 1.890 . S
C647 N443 1.871 . S
C652 N476 1.895 . S
C663 N203 1.645 . S
C668 N5 1.604 . S
C679 N236 1.599 . S
C684 N38 1.650 . S
C695 N137 1.610 . S
C700 N71 1.639 . S
C711 N170 1.627 . S
C716 N104 1.622 . S
C727 N467 1.626 . S
C732 N269 1.623 . S
C743 N500 1.613 . S
C748 N302 1.636 . S
C759 N401 1.636 . S
C764 N335 1.613 . S
C775 N368 1.604 . S
C780 N434 1.644 . S
C791 C28 1.594 . S
C796 C94 1.610 . S
C807 C61 1.587 . S
C812 C127 1.599 . S
C823 C160 1.621 . S
C828 C226 1.629 . S
C839 C193 1.609 . S
C844 C259 1.593 . S
C855 C292 1.624 . S
C860 C358 1.629 . S
C871 C325 1.601 . S
C876 C391 1.617 . S
C887 C424 1.624 . S
C892 C490 1.610 . S
C903 C457 1.585 . S
C908 C523 1.587 . S
C919 C503 1.125 . S
C924 C17 1.138 . S
C935 C50 1.131 . S
C940 C470 1.137 . S
C951 C83 1.135 . S
C956 C437 1.113 . S
C967 C404 1.108 . S
C972 C116 1.132 . S
C983 C371 1.076 . S
C988 C149 1.091 . S
C999 C182 1.129 . S
C1004 C338 1.138 . S
C1015 C215 1.081 . S
C1020 C305 1.082 . S
C1031 C248 1.089 . S
C1036 C272 1.076 . S
C1047 C281 1.090 . S
C1052 C239 1.114 . S
C1063 C206 1.129 . S
C1068 C314 1.138 . S
C1079 C173 1.123 . S
C1084 C347 1.138 . S
C1095 C380 1.089 . S
C1100 C140 1.112 . S
C1111 C413 1.137 . S
C1116 C107 1.132 . S
C1127 C74 1.119 . S
C1132 C446 1.094 . S
C1143 C41 1.116 . S
C1148 C479 1.091 . S
C1159 C8 1.088 . S
C1164 C512 1.117 . S
