# Generated by pormake.
# Topology twf-e, (6)-cn, num edge types: 1
# Building blocks:
#     Node 0, Type 0, BuildingBlock: UKALOJ_clean_sbu_0, # of connection points: 6
#     Node 1, Type 0, BuildingBlock: UKALOJ_clean_sbu_0, # of connection points: 6
#     Node 2, Type 0, BuildingBlock: UKALOJ_clean_sbu_0, # of connection points: 6
#     Node 3, Type 0, BuildingBlock: UKALOJ_clean_sbu_0, # of connection points: 6
#     Node 4, Type 0, BuildingBlock: UKALOJ_clean_sbu_0, # of connection points: 6
#     Node 5, Type 0, BuildingBlock: UKALOJ_clean_sbu_0, # of connection points: 6
#     Node 6, Type 0, BuildingBlock: UKALOJ_clean_sbu_0, # of connection points: 6
#     Node 7, Type 0, BuildingBlock: UKALOJ_clean_sbu_0, # of connection points: 6
#     Node 8, Type 0, BuildingBlock: UKALOJ_clean_sbu_0, # of connection points: 6
#     Node 9, Type 0, BuildingBlock: UKALOJ_clean_sbu_0, # of connection points: 6
#     Node 10, Type 0, BuildingBlock: UKALOJ_clean_sbu_0, # of connection points: 6
#     Node 11, Type 0, BuildingBlock: UKALOJ_clean_sbu_0, # of connection points: 6
#     Node 12, Type 0, BuildingBlock: UKALOJ_clean_sbu_0, # of connection points: 6
#     Node 13, Type 0, BuildingBlock: UKALOJ_clean_sbu_0, # of connection points: 6
#     Node 14, Type 0, BuildingBlock: UKALOJ_clean_sbu_0, # of connection points: 6
#     Node 15, Type 0, BuildingBlock: UKALOJ_clean_sbu_0, # of connection points: 6
#     Node 16, Type 0, BuildingBlock: UKALOJ_clean_sbu_0, # of connection points: 6
#     Node 17, Type 0, BuildingBlock: UKALOJ_clean_sbu_0, # of connection points: 6
#     Node 18, Type 0, BuildingBlock: UKALOJ_clean_sbu_0, # of connection points: 6
#     Node 19, Type 0, BuildingBlock: UKALOJ_clean_sbu_0, # of connection points: 6
#     Node 20, Type 0, BuildingBlock: UKALOJ_clean_sbu_0, # of connection points: 6
#     Node 21, Type 0, BuildingBlock: UKALOJ_clean_sbu_0, # of connection points: 6
#     Node 22, Type 0, BuildingBlock: UKALOJ_clean_sbu_0, # of connection points: 6
#     Node 23, Type 0, BuildingBlock: UKALOJ_clean_sbu_0, # of connection points: 6
#     Node 24, Type 0, BuildingBlock: UKALOJ_clean_sbu_0, # of connection points: 6
#     Node 25, Type 0, BuildingBlock: UKALOJ_clean_sbu_0, # of connection points: 6
#     Node 26, Type 0, BuildingBlock: UKALOJ_clean_sbu_0, # of connection points: 6
#     Node 27, Type 0, BuildingBlock: UKALOJ_clean_sbu_0, # of connection points: 6
#     Node 28, Type 0, BuildingBlock: UKALOJ_clean_sbu_0, # of connection points: 6
#     Node 29, Type 0, BuildingBlock: UKALOJ_clean_sbu_0, # of connection points: 6
#     Node 30, Type 0, BuildingBlock: UKALOJ_clean_sbu_0, # of connection points: 6
#     Node 31, Type 0, BuildingBlock: UKALOJ_clean_sbu_0, # of connection points: 6
#     Node 32, Type 0, BuildingBlock: UKALOJ_clean_sbu_0, # of connection points: 6
#     Node 33, Type 0, BuildingBlock: UKALOJ_clean_sbu_0, # of connection points: 6
#     Node 34, Type 0, BuildingBlock: UKALOJ_clean_sbu_0, # of connection points: 6
#     Node 35, Type 0, BuildingBlock: UKALOJ_clean_sbu_0, # of connection points: 6
#     Node 36, Type 0, BuildingBlock: UKALOJ_clean_sbu_0, # of connection points: 6
#     Node 37, Type 0, BuildingBlock: UKALOJ_clean_sbu_0, # of connection points: 6
#     Node 38, Type 0, BuildingBlock: UKALOJ_clean_sbu_0, # of connection points: 6
#     Node 39, Type 0, BuildingBlock: UKALOJ_clean_sbu_0, # of connection points: 6
#     Node 40, Type 0, BuildingBlock: UKALOJ_clean_sbu_0, # of connection points: 6
#     Node 41, Type 0, BuildingBlock: UKALOJ_clean_sbu_0, # of connection points: 6
#     Node 42, Type 0, BuildingBlock: UKALOJ_clean_sbu_0, # of connection points: 6
#     Node 43, Type 0, BuildingBlock: UKALOJ_clean_sbu_0, # of connection points: 6
#     Node 44, Type 0, BuildingBlock: UKALOJ_clean_sbu_0, # of connection points: 6
#     Node 45, Type 0, BuildingBlock: UKALOJ_clean_sbu_0, # of connection points: 6
#     Node 46, Type 0, BuildingBlock: UKALOJ_clean_sbu_0, # of connection points: 6
#     Node 47, Type 0, BuildingBlock: UKALOJ_clean_sbu_0, # of connection points: 6
#     Edge 48, Type (0, 0), None
#     Edge 49, Type (0, 0), None
#     Edge 50, Type (0, 0), None
#     Edge 51, Type (0, 0), None
#     Edge 52, Type (0, 0), None
#     Edge 53, Type (0, 0), None
#     Edge 54, Type (0, 0), None
#     Edge 55, Type (0, 0), None
#     Edge 56, Type (0, 0), None
#     Edge 57, Type (0, 0), None
#     Edge 58, Type (0, 0), None
#     Edge 59, Type (0, 0), None
#     Edge 60, Type (0, 0), None
#     Edge 61, Type (0, 0), None
#     Edge 62, Type (0, 0), None
#     Edge 63, Type (0, 0), None
#     Edge 64, Type (0, 0), None
#     Edge 65, Type (0, 0), None
#     Edge 66, Type (0, 0), None
#     Edge 67, Type (0, 0), None
#     Edge 68, Type (0, 0), None
#     Edge 69, Type (0, 0), None
#     Edge 70, Type (0, 0), None
#     Edge 71, Type (0, 0), None
#     Edge 72, Type (0, 0), None
#     Edge 73, Type (0, 0), None
#     Edge 74, Type (0, 0), None
#     Edge 75, Type (0, 0), None
#     Edge 76, Type (0, 0), None
#     Edge 77, Type (0, 0), None
#     Edge 78, Type (0, 0), None
#     Edge 79, Type (0, 0), None
#     Edge 80, Type (0, 0), None
#     Edge 81, Type (0, 0), None
#     Edge 82, Type (0, 0), None
#     Edge 83, Type (0, 0), None
#     Edge 84, Type (0, 0), None
#     Edge 85, Type (0, 0), None
#     Edge 86, Type (0, 0), None
#     Edge 87, Type (0, 0), None
#     Edge 88, Type (0, 0), None
#     Edge 89, Type (0, 0), None
#     Edge 90, Type (0, 0), None
#     Edge 91, Type (0, 0), None
#     Edge 92, Type (0, 0), None
#     Edge 93, Type (0, 0), None
#     Edge 94, Type (0, 0), None
#     Edge 95, Type (0, 0), None
#     Edge 96, Type (0, 0), None
#     Edge 97, Type (0, 0), None
#     Edge 98, Type (0, 0), None
#     Edge 99, Type (0, 0), None
#     Edge 100, Type (0, 0), None
#     Edge 101, Type (0, 0), None
#     Edge 102, Type (0, 0), None
#     Edge 103, Type (0, 0), None
#     Edge 104, Type (0, 0), None
#     Edge 105, Type (0, 0), None
#     Edge 106, Type (0, 0), None
#     Edge 107, Type (0, 0), None
#     Edge 108, Type (0, 0), None
#     Edge 109, Type (0, 0), None
#     Edge 110, Type (0, 0), None
#     Edge 111, Type (0, 0), None
#     Edge 112, Type (0, 0), None
#     Edge 113, Type (0, 0), None
#     Edge 114, Type (0, 0), None
#     Edge 115, Type (0, 0), None
#     Edge 116, Type (0, 0), None
#     Edge 117, Type (0, 0), None
#     Edge 118, Type (0, 0), None
#     Edge 119, Type (0, 0), None
#     Edge 120, Type (0, 0), None
#     Edge 121, Type (0, 0), None
#     Edge 122, Type (0, 0), None
#     Edge 123, Type (0, 0), None
#     Edge 124, Type (0, 0), None
#     Edge 125, Type (0, 0), None
#     Edge 126, Type (0, 0), None
#     Edge 127, Type (0, 0), None
#     Edge 128, Type (0, 0), None
#     Edge 129, Type (0, 0), None
#     Edge 130, Type (0, 0), None
#     Edge 131, Type (0, 0), None
#     Edge 132, Type (0, 0), None
#     Edge 133, Type (0, 0), None
#     Edge 134, Type (0, 0), None
#     Edge 135, Type (0, 0), None
#     Edge 136, Type (0, 0), None
#     Edge 137, Type (0, 0), None
#     Edge 138, Type (0, 0), None
#     Edge 139, Type (0, 0), None
#     Edge 140, Type (0, 0), None
#     Edge 141, Type (0, 0), None
#     Edge 142, Type (0, 0), None
#     Edge 143, Type (0, 0), None
#     Edge 144, Type (0, 0), None
#     Edge 145, Type (0, 0), None
#     Edge 146, Type (0, 0), None
#     Edge 147, Type (0, 0), None
#     Edge 148, Type (0, 0), None
#     Edge 149, Type (0, 0), None
#     Edge 150, Type (0, 0), None
#     Edge 151, Type (0, 0), None
#     Edge 152, Type (0, 0), None
#     Edge 153, Type (0, 0), None
#     Edge 154, Type (0, 0), None
#     Edge 155, Type (0, 0), None
#     Edge 156, Type (0, 0), None
#     Edge 157, Type (0, 0), None
#     Edge 158, Type (0, 0), None
#     Edge 159, Type (0, 0), None
#     Edge 160, Type (0, 0), None
#     Edge 161, Type (0, 0), None
#     Edge 162, Type (0, 0), None
#     Edge 163, Type (0, 0), None
#     Edge 164, Type (0, 0), None
#     Edge 165, Type (0, 0), None
#     Edge 166, Type (0, 0), None
#     Edge 167, Type (0, 0), None
#     Edge 168, Type (0, 0), None
#     Edge 169, Type (0, 0), None
#     Edge 170, Type (0, 0), None
#     Edge 171, Type (0, 0), None
#     Edge 172, Type (0, 0), None
#     Edge 173, Type (0, 0), None
#     Edge 174, Type (0, 0), None
#     Edge 175, Type (0, 0), None
#     Edge 176, Type (0, 0), None
#     Edge 177, Type (0, 0), None
#     Edge 178, Type (0, 0), None
#     Edge 179, Type (0, 0), None
#     Edge 180, Type (0, 0), None
#     Edge 181, Type (0, 0), None
#     Edge 182, Type (0, 0), None
#     Edge 183, Type (0, 0), None
#     Edge 184, Type (0, 0), None
#     Edge 185, Type (0, 0), None
#     Edge 186, Type (0, 0), None
#     Edge 187, Type (0, 0), None
#     Edge 188, Type (0, 0), None
#     Edge 189, Type (0, 0), None
#     Edge 190, Type (0, 0), None
#     Edge 191, Type (0, 0), None
# Relax obj value: 1.159
# Max RMSD: 0.156
# Mean RMSD: 0.156
data_MOF--net-twf-e--node1-UKALOJ_clean_sbu_0--edge1-none
_symmetry_space_group_name_H-M    P1
_symmetry_Int_Tables_number       1
_symmetry_cell_setting            triclinic
loop_
_symmetry_equiv_pos_as_xyz
'x, y, z'
_cell_length_a     30.121026
_cell_length_b     30.11211
_cell_length_c     30.463896
_cell_angle_alpha  89.998639
_cell_angle_beta   90.002815
_cell_angle_gamma 90.006779
loop_
_atom_site_label
_atom_site_type_symbol
_atom_site_fract_x
_atom_site_fract_y
_atom_site_fract_z
_atom_type_partial_charge
Zn0 Zn 0.08582 0.32403 0.45163 0.0
O1 O 1.0406 0.36591 0.475 0.0
C2 C 0.08109 0.27905 0.55039 0.0
Zn3 Zn 0.05614 0.26565 0.43865 0.0
C4 C 1.00492 0.34712 0.4636 0.0
O5 O 1.0064 0.31276 0.4408 0.0
C6 C 0.1334 0.23431 0.42161 0.0
O7 O 0.07432 0.28568 0.35841 0.0
O8 O 0.06765 0.34708 0.39081 0.0
N9 N 1.00399 0.22537 0.42008 0.0
C10 C 0.99724 0.18146 0.41559 0.0
C11 C 0.93499 0.21338 0.40387 0.0
N12 N 0.96556 0.24487 0.41102 0.0
N13 N 0.9537 0.17318 0.40768 0.0
C14 C 0.15376 0.37101 0.4708 0.0
C15 C 0.19031 0.35212 0.41386 0.0
N16 N 0.12698 0.37267 0.43732 0.0
N17 N 0.15091 0.36726 0.40126 0.0
N18 N 0.19145 0.34961 0.4578 0.0
H19 H 0.1695 0.44097 0.46772 0.0
H20 H 0.17042 0.41813 0.52197 0.0
H21 H 0.11961 0.42871 0.49541 0.0
C22 C 0.1542 0.41674 0.49043 0.0
C23 C 1.03371 0.14742 0.41622 0.0
H24 H 0.06169 0.15901 0.39567 0.0
H25 H 1.02342 0.11533 0.40181 0.0
H26 H 0.04536 0.14245 0.45043 0.0
O27 O 0.09872 0.21592 0.43499 0.0
O28 O 0.13573 0.27656 0.4231 0.0
C29 C 0.07683 0.32835 0.35543 0.0
O30 O 0.10152 0.30805 0.52668 0.0
O31 O 0.05403 0.25519 0.52548 0.0
Zn32 Zn 0.90448 0.05784 0.43812 0.0
O33 O 0.88067 0.07371 0.35851 0.0
C34 C 0.9311 0.1354 0.41624 0.0
Zn35 Zn 0.84419 0.08348 0.45171 0.0
C36 C 0.83796 0.07417 0.3559 0.0
O37 O 0.82003 0.06394 0.39137 0.0
C38 C 0.89221 0.08125 0.55033 0.0
O39 O 0.80552 1.03662 0.47551 0.0
O40 O 0.86212 1.00496 0.44407 0.0
N41 N 0.79326 0.12285 0.44015 0.0
C42 C 0.79452 0.15142 0.47229 0.0
C43 C 0.81092 0.18588 0.41353 0.0
N44 N 0.79638 0.1456 0.40309 0.0
N45 N 0.81519 0.18873 0.45724 0.0
C46 C 0.98805 0.99959 0.42874 0.0
C47 C 0.96147 0.94452 0.39275 0.0
N48 N 0.94591 1.00933 0.41874 0.0
N49 N 0.92977 0.97569 0.3956 0.0
N50 N 0.99832 0.95873 0.41318 0.0
H51 H 1.0413 0.04514 0.44016 0.0
H52 H 1.03293 1.00641 0.48412 0.0
H53 H 0.9951 0.05172 0.47718 0.0
C54 C 1.01577 1.02721 0.45942 0.0
C55 C 0.7484 0.15298 0.49121 0.0
H56 H 0.72496 0.16872 0.46799 0.0
H57 H 0.74698 0.16962 0.52262 0.0
H58 H 0.73553 0.11874 0.49654 0.0
O59 O 0.8611 0.09897 0.52702 0.0
O60 O 0.91839 0.05708 0.52483 0.0
C61 C 0.82704 1.00203 0.46565 0.0
O62 O 0.95181 0.10182 0.42901 0.0
O63 O 0.88898 0.13592 0.42147 0.0
Zn64 Zn 0.0822 0.84431 0.45161 0.0
O65 O 0.12742 0.80244 0.47499 0.0
C66 C 0.08693 0.8893 0.55037 0.0
Zn67 Zn 0.11189 0.90269 0.43863 0.0
C68 C 0.1631 0.82122 0.46359 0.0
O69 O 0.16162 0.85558 0.44078 0.0
C70 C 1.03463 0.93404 0.42157 0.0
O71 O 0.09371 0.88266 0.35838 0.0
O72 O 0.10037 0.82127 0.3908 0.0
N73 N 0.16404 0.94297 0.42006 0.0
C74 C 0.1708 0.98688 0.41556 0.0
C75 C 0.23304 0.95496 0.40385 0.0
N76 N 0.20247 0.92347 0.41101 0.0
N77 N 0.21433 0.99516 0.40766 0.0
C78 C 1.01426 0.79734 0.47078 0.0
C79 C 0.97771 0.81623 0.41383 0.0
N80 N 1.04104 0.79568 0.43729 0.0
N81 N 1.01711 0.80109 0.40124 0.0
N82 N 0.97657 0.81874 0.45777 0.0
H83 H 0.99852 0.72738 0.4677 0.0
H84 H 0.9976 0.75022 0.52195 0.0
H85 H 0.04841 0.73964 0.49539 0.0
C86 C 1.01382 0.75161 0.49041 0.0
C87 C 0.13433 1.02092 0.41619 0.0
H88 H 0.10635 1.00933 0.39563 0.0
H89 H 0.14461 0.05301 0.40178 0.0
H90 H 0.12267 1.02588 0.45039 0.0
O91 O 0.06931 0.95242 0.43495 0.0
O92 O 1.03229 0.89179 0.42307 0.0
C93 C 0.0912 0.83999 0.35541 0.0
O94 O 0.06649 0.8603 0.52666 0.0
O95 O 0.11399 0.91316 0.52546 0.0
Zn96 Zn 0.32383 0.08486 0.4517 0.0
O97 O 0.3625 0.13173 0.47551 0.0
C98 C 0.27582 0.08708 0.55031 0.0
Zn99 Zn 0.26354 0.11049 0.43811 0.0
C100 C 0.34097 0.16632 0.46564 0.0
O101 O 0.30589 0.16338 0.44405 0.0
C102 C 0.23693 1.03294 0.41623 0.0
O103 O 0.28735 0.09463 0.35849 0.0
O104 O 0.34799 0.10441 0.39136 0.0
N105 N 0.22211 0.159 0.41873 0.0
C106 C 0.17999 0.16875 0.42877 0.0
C107 C 0.20655 0.22383 0.39276 0.0
N108 N 0.23824 0.19263 0.39557 0.0
N109 N 0.16973 0.20964 0.41325 0.0
C110 C 0.37351 1.01693 0.47228 0.0
C111 C 0.35711 0.98247 0.41352 0.0
N112 N 0.37476 0.0455 0.44014 0.0
N113 N 0.37165 1.02276 0.40308 0.0
N114 N 0.35284 0.97962 0.45723 0.0
H115 H 0.44308 0.99963 0.46798 0.0
H116 H 0.42106 0.99872 0.52261 0.0
H117 H 0.4325 0.0496 0.49653 0.0
C118 C 0.41963 1.01537 0.49121 0.0
C119 C 0.15228 0.14114 0.45946 0.0
H120 H 0.12674 0.12321 0.4402 0.0
H121 H 0.13513 0.16193 0.48417 0.0
H122 H 0.17296 0.11661 0.4772 0.0
O123 O 0.21622 0.06651 0.42899 0.0
O124 O 0.27905 1.03242 0.42145 0.0
C125 C 0.33006 0.09418 0.35588 0.0
O126 O 0.30693 0.06937 0.527 0.0
O127 O 0.24964 0.11125 0.52482 0.0
Zn128 Zn 0.08579 0.8443 0.70423 0.0
O129 O 1.04056 0.80243 0.68086 0.0
C130 C 0.08104 0.88928 0.60546 0.0
Zn131 Zn 0.05613 0.90269 0.71721 0.0
C132 C 1.00488 0.82122 0.69226 0.0
O133 O 1.00638 0.85558 0.71505 0.0
C134 C 0.13339 0.93403 0.73425 0.0
O135 O 0.07432 0.88266 0.79745 0.0
O136 O 0.06763 0.82126 0.76505 0.0
N137 N 1.00398 0.94297 0.73578 0.0
C138 C 0.99724 0.98688 0.74028 0.0
C139 C 0.93499 0.95496 0.752 0.0
N140 N 0.96555 0.92347 0.74484 0.0
N141 N 0.95371 0.99516 0.74819 0.0
C142 C 0.15372 0.79733 0.68504 0.0
C143 C 0.19028 0.81623 0.74198 0.0
N144 N 0.12694 0.79567 0.71852 0.0
N145 N 0.15088 0.80107 0.75458 0.0
N146 N 0.19141 0.81874 0.69804 0.0
H147 H 0.16947 0.72738 0.68813 0.0
H148 H 0.17039 0.75022 0.63388 0.0
H149 H 0.11958 0.73961 0.66043 0.0
C150 C 0.15416 0.7516 0.66541 0.0
C151 C 1.03371 1.02092 0.73963 0.0
H152 H 0.0617 1.00934 0.76018 0.0
H153 H 1.02343 0.05301 0.75405 0.0
H154 H 0.04535 1.02589 0.70542 0.0
O155 O 0.09871 0.95242 0.72088 0.0
O156 O 0.13571 0.89178 0.73275 0.0
C157 C 0.07682 0.83999 0.80042 0.0
O158 O 0.10148 0.86029 0.62917 0.0
O159 O 0.05401 0.91317 0.63038 0.0
Zn160 Zn 0.26355 0.05784 0.71773 0.0
O161 O 0.28736 0.07371 0.79735 0.0
C162 C 0.23693 0.13541 0.73959 0.0
Zn163 Zn 0.32384 0.08348 0.70414 0.0
C164 C 0.33007 0.07416 0.79996 0.0
O165 O 0.348 0.06394 0.76448 0.0
C166 C 0.27584 0.08123 0.60553 0.0
O167 O 0.36251 1.03663 0.68035 0.0
O168 O 0.3059 1.00496 0.71179 0.0
N169 N 0.37478 0.12285 0.7157 0.0
C170 C 0.37352 0.15141 0.68356 0.0
C171 C 0.35712 0.18587 0.74232 0.0
N172 N 0.37167 0.1456 0.75276 0.0
N173 N 0.35284 0.18872 0.6986 0.0
C174 C 0.17999 0.99958 0.72708 0.0
C175 C 0.20654 0.94451 0.76309 0.0
N176 N 0.22212 1.00933 0.73711 0.0
N177 N 0.23825 0.9757 0.76027 0.0
N178 N 0.16973 0.9587 0.7426 0.0
H179 H 0.12674 0.04511 0.71564 0.0
H180 H 0.13513 1.0064 0.67168 0.0
H181 H 0.17296 0.05172 0.67864 0.0
C182 C 0.15228 1.02719 0.69639 0.0
C183 C 0.41963 0.15299 0.66463 0.0
H184 H 0.44308 0.16872 0.68785 0.0
H185 H 0.42105 0.16965 0.63323 0.0
H186 H 0.4325 0.11875 0.65928 0.0
O187 O 0.30694 0.09896 0.62883 0.0
O188 O 0.24964 0.05707 0.63102 0.0
C189 C 0.34098 1.00203 0.69021 0.0
O190 O 0.21623 0.10181 0.72683 0.0
O191 O 0.27905 0.13592 0.73437 0.0
Zn192 Zn 0.11189 0.26566 0.71724 0.0
O193 O 0.0937 0.28569 0.79747 0.0
C194 C 1.03463 0.23432 0.73427 0.0
Zn195 Zn 0.08223 0.32405 0.70425 0.0
C196 C 0.0912 0.32836 0.80044 0.0
O197 O 0.10039 0.34709 0.76507 0.0
C198 C 0.08698 0.27907 0.60549 0.0
O199 O 0.12746 0.36592 0.68089 0.0
O200 O 0.16165 0.31277 0.71508 0.0
N201 N 1.04108 0.37269 0.71854 0.0
C202 C 1.0143 0.37102 0.68505 0.0
C203 C 0.97775 0.35213 0.74199 0.0
N204 N 1.01714 0.36729 0.75459 0.0
N205 N 0.97662 0.34961 0.69805 0.0
C206 C 0.17079 0.18146 0.74021 0.0
C207 C 0.23303 0.21339 0.752 0.0
N208 N 0.16403 0.22538 0.73581 0.0
N209 N 0.20246 0.24488 0.74492 0.0
N210 N 0.21433 0.1732 0.74806 0.0
H211 H 0.10634 0.15895 0.76007 0.0
H212 H 0.1446 0.1153 0.75388 0.0
H213 H 0.12269 0.14249 0.70529 0.0
C214 C 0.13433 0.14741 0.73951 0.0
C215 C 1.01386 0.41675 0.66542 0.0
H216 H 0.99855 0.44097 0.68813 0.0
H217 H 0.99763 0.41813 0.63388 0.0
H218 H 0.04844 0.42874 0.66044 0.0
O219 O 0.06654 0.30807 0.62919 0.0
O220 O 0.11401 0.25518 0.63041 0.0
C221 C 0.16314 0.34713 0.69228 0.0
O222 O 0.0693 0.21594 0.72091 0.0
O223 O 1.03231 0.27658 0.73277 0.0
Zn224 Zn 0.8442 0.08484 0.70415 0.0
O225 O 0.80552 0.13169 0.68034 0.0
C226 C 0.8922 0.08709 0.60554 0.0
Zn227 Zn 0.90449 0.11049 0.71775 0.0
C228 C 0.82705 0.16629 0.69021 0.0
O229 O 0.86213 0.16336 0.7118 0.0
C230 C 0.93111 1.03293 0.73963 0.0
O231 O 0.88067 0.09463 0.79736 0.0
O232 O 0.82004 0.10439 0.76449 0.0
N233 N 0.94591 0.15901 0.73713 0.0
C234 C 0.98803 0.16877 0.7271 0.0
C235 C 0.96147 0.22384 0.7631 0.0
N236 N 0.92977 0.19264 0.76028 0.0
N237 N 0.99829 0.20965 0.74262 0.0
C238 C 0.79452 1.0169 0.68358 0.0
C239 C 0.81092 0.98244 0.74234 0.0
N240 N 0.79327 0.04547 0.71572 0.0
N241 N 0.79639 1.02272 0.75278 0.0
N242 N 0.81519 0.97959 0.69863 0.0
H243 H 0.72495 0.9996 0.68788 0.0
H244 H 0.74697 0.99869 0.63325 0.0
H245 H 0.73554 0.04957 0.65932 0.0
C246 C 0.7484 1.01534 0.66465 0.0
C247 C 1.01574 0.14115 0.69642 0.0
H248 H 1.04127 0.12322 0.71568 0.0
H249 H 1.03291 0.16195 0.67172 0.0
H250 H 0.99507 0.11664 0.67866 0.0
O251 O 0.95182 0.06652 0.72687 0.0
O252 O 0.88899 1.03241 0.7344 0.0
C253 C 0.83797 0.09417 0.79997 0.0
O254 O 0.8611 0.06935 0.62885 0.0
O255 O 0.91839 0.11125 0.63104 0.0
Zn256 Zn 0.46365 0.09823 0.30636 0.0
O257 O 0.49815 0.05689 0.34547 0.0
C258 C 0.55665 0.08538 0.26301 0.0
Zn259 Zn 0.44599 0.05469 0.26113 0.0
C260 C 0.48664 1.01852 0.33224 0.0
O261 O 0.45005 1.01357 0.31361 0.0
C262 C 0.42739 0.12665 0.21723 0.0
O263 O 0.36556 0.07013 0.27975 0.0
O264 O 0.40387 0.07621 0.33772 0.0
N265 N 0.42825 0.99894 0.22815 0.0
C266 C 0.41359 0.9924 0.18711 0.0
C267 C 0.41688 0.92897 0.21763 0.0
N268 N 0.42832 0.95959 0.24768 0.0
N269 N 0.40938 0.94867 0.17881 0.0
C270 C 0.45868 0.17647 0.37679 0.0
C271 C 0.39621 0.19984 0.35726 0.0
N272 N 0.44209 0.14541 0.35044 0.0
N273 N 0.40113 0.15903 0.34182 0.0
N274 N 0.43611 0.21509 0.36862 0.0
H275 H 0.44937 0.18498 0.44659 0.0
H276 H 0.50212 0.16108 0.43086 0.0
H277 H 0.45327 0.12808 0.42928 0.0
C278 C 0.46629 0.16215 0.42351 0.0
C279 C 0.39829 1.02836 0.15641 0.0
H280 H 0.37973 0.05414 0.1748 0.0
H281 H 0.37569 1.01479 0.13094 0.0
H282 H 0.42736 0.04346 0.13976 0.0
O283 O 0.4449 0.09095 0.20594 0.0
O284 O 0.42611 0.13632 0.2578 0.0
C285 C 0.36549 0.07733 0.32143 0.0
O286 O 0.53542 0.1184 0.28082 0.0
O287 O 0.53008 0.05258 0.25136 0.0
Zn288 Zn 0.11181 0.44534 0.26023 0.0
O289 O 0.09754 0.36423 0.27839 0.0
C290 C 1.03905 0.42798 0.21739 0.0
Zn291 Zn 0.06913 0.46235 0.30818 0.0
C292 C 0.0938 0.36334 0.3205 0.0
O293 O 0.09478 0.40161 0.33699 0.0
C294 C 0.08246 0.55675 0.26537 0.0
O295 O 0.11067 0.49493 0.3486 0.0
O296 O 0.15369 0.44972 0.31237 0.0
N297 N 1.01898 0.4364 0.35155 0.0
C298 C 0.97705 0.4495 0.35469 0.0
C299 C 0.97421 0.39137 0.3165 0.0
N300 N 1.01368 0.39563 0.3355 0.0
N301 N 0.95233 0.42884 0.32317 0.0
C302 C 0.17486 0.41439 0.18582 0.0
C303 C 0.23782 0.41727 0.21736 0.0
N304 N 0.16769 0.42835 0.22702 0.0
N305 N 0.20676 0.42819 0.24708 0.0
N306 N 0.21871 0.41029 0.17819 0.0
H307 H 0.11326 0.38089 0.17196 0.0
H308 H 0.15323 0.37736 0.12875 0.0
H309 H 0.12487 0.42914 0.13795 0.0
C310 C 0.13941 0.39967 0.15433 0.0
C311 C 0.95889 0.44543 0.40005 0.0
H312 H 0.92258 0.45042 0.39905 0.0
H313 H 0.97682 0.46812 0.42253 0.0
H314 H 0.96421 0.41124 0.41249 0.0
O315 O 0.05045 0.53584 0.28535 0.0
O316 O 0.11397 0.52977 0.25133 0.0
C317 C 0.14882 0.4849 0.33342 0.0
O318 O 0.07504 0.44352 0.20425 0.0
O319 O 1.03079 0.42875 0.25804 0.0
Zn320 Zn 0.70437 0.07012 0.30637 0.0
O321 O 0.66987 0.11147 0.34548 0.0
C322 C 0.61137 0.08298 0.26302 0.0
Zn323 Zn 0.72202 0.11366 0.26114 0.0
C324 C 0.68138 0.14984 0.33224 0.0
O325 O 0.71797 0.15479 0.31362 0.0
C326 C 0.74062 1.0417 0.21725 0.0
O327 O 0.80246 0.09822 0.27976 0.0
O328 O 0.76415 0.09214 0.33773 0.0
N329 N 0.73976 0.1694 0.22815 0.0
C330 C 0.75443 0.17594 0.18711 0.0
C331 C 0.75114 0.23938 0.21763 0.0
N332 N 0.7397 0.20875 0.24769 0.0
N333 N 0.75865 0.21968 0.17881 0.0
C334 C 0.70934 0.99188 0.37681 0.0
C335 C 0.77181 0.96852 0.35729 0.0
N336 N 0.72592 1.02294 0.35045 0.0
N337 N 0.76689 1.00932 0.34184 0.0
N338 N 0.73191 0.95327 0.36865 0.0
H339 H 0.71864 0.98338 0.44661 0.0
H340 H 0.6659 1.00727 0.43088 0.0
H341 H 0.71475 1.04027 0.42929 0.0
C342 C 0.70173 1.0062 0.42353 0.0
C343 C 0.76973 0.13998 0.15642 0.0
H344 H 0.78828 0.11421 0.17482 0.0
H345 H 0.79233 0.15355 0.13095 0.0
H346 H 0.74065 0.12489 0.13976 0.0
O347 O 0.72312 0.07739 0.20595 0.0
O348 O 0.7419 1.03202 0.25782 0.0
C349 C 0.80253 0.09101 0.32144 0.0
O350 O 0.63259 0.04996 0.28083 0.0
O351 O 0.63793 0.11577 0.25136 0.0
Zn352 Zn 0.05622 0.72299 0.26022 0.0
O353 O 0.07049 0.80411 0.27837 0.0
C354 C 0.12897 0.74036 0.21738 0.0
Zn355 Zn 0.09891 0.70598 0.30817 0.0
C356 C 0.07423 0.80499 0.32048 0.0
O357 O 0.07326 0.76673 0.33697 0.0
C358 C 0.08557 0.61159 0.26539 0.0
O359 O 0.05737 0.67341 0.34859 0.0
O360 O 1.01435 0.71861 0.31236 0.0
N361 N 0.14907 0.73195 0.35154 0.0
C362 C 0.191 0.71885 0.35468 0.0
C363 C 0.19383 0.77698 0.31647 0.0
N364 N 0.15436 0.77272 0.33548 0.0
N365 N 0.21571 0.73951 0.32315 0.0
C366 C 0.99316 0.75394 0.18581 0.0
C367 C 0.9302 0.75105 0.21736 0.0
N368 N 1.00034 0.73998 0.22701 0.0
N369 N 0.96127 0.74013 0.24707 0.0
N370 N 0.94931 0.75804 0.17819 0.0
H371 H 0.05476 0.78746 0.17196 0.0
H372 H 1.01477 0.79099 0.12876 0.0
H373 H 0.04314 0.73921 0.13794 0.0
C374 C 1.02861 0.76868 0.15433 0.0
C375 C 0.20917 0.72294 0.40004 0.0
H376 H 0.24547 0.71793 0.39903 0.0
H377 H 0.19123 0.70025 0.42252 0.0
H378 H 0.20385 0.75713 0.41247 0.0
O379 O 0.11759 0.63249 0.28534 0.0
O380 O 0.05406 0.63856 0.25133 0.0
C381 C 1.01923 0.68344 0.33341 0.0
O382 O 0.09298 0.72481 0.20424 0.0
O383 O 0.13724 0.73958 0.25802 0.0
Zn384 Zn 0.46365 0.0701 0.84949 0.0
O385 O 0.49816 0.11145 0.81038 0.0
C386 C 0.55665 0.08296 0.89285 0.0
Zn387 Zn 0.44601 0.11365 0.89472 0.0
C388 C 0.48665 0.14982 0.82361 0.0
O389 O 0.45007 0.15477 0.84224 0.0
C390 C 0.4274 1.04169 0.93862 0.0
O391 O 0.36557 0.0982 0.8761 0.0
O392 O 0.40388 0.09213 0.81813 0.0
N393 N 0.42826 0.16939 0.9277 0.0
C394 C 0.41359 0.17592 0.96873 0.0
C395 C 0.41686 0.23936 0.93821 0.0
N396 N 0.42832 0.20874 0.90816 0.0
N397 N 0.40935 0.21965 0.97703 0.0
C398 C 0.45867 0.99187 0.77906 0.0
C399 C 0.39621 0.96849 0.79859 0.0
N400 N 0.44209 1.02293 0.80541 0.0
N401 N 0.40112 1.0093 0.81403 0.0
N402 N 0.43611 0.95325 0.78723 0.0
H403 H 0.44936 0.98336 0.70927 0.0
H404 H 0.50212 1.00725 0.72499 0.0
H405 H 0.45327 1.04025 0.72658 0.0
C406 C 0.46628 1.00618 0.73234 0.0
C407 C 0.39828 0.13995 0.99943 0.0
H408 H 0.37973 0.11417 0.98103 0.0
H409 H 0.37568 0.15352 1.02489 0.0
H410 H 0.42735 0.12487 1.01609 0.0
O411 O 0.44491 0.07738 0.9499 0.0
O412 O 0.42612 1.03201 0.89804 0.0
C413 C 0.3655 0.091 0.83441 0.0
O414 O 0.53542 0.04994 0.87503 0.0
O415 O 0.5301 0.11576 0.90449 0.0
Zn416 Zn 0.09889 0.46236 0.84768 0.0
O417 O 0.05735 0.49494 0.80726 0.0
C418 C 0.08557 0.55676 0.89048 0.0
Zn419 Zn 0.05621 0.44535 0.89563 0.0
C420 C 1.0192 0.4849 0.82244 0.0
O421 O 1.01433 0.44973 0.84349 0.0
C422 C 0.12896 0.42799 0.93847 0.0
O423 O 0.07048 0.36424 0.87748 0.0
O424 O 0.07322 0.40162 0.81888 0.0
N425 N 1.00033 0.42836 0.92884 0.0
C426 C 0.99315 0.41441 0.97004 0.0
C427 C 0.93019 0.41729 0.9385 0.0
N428 N 0.96126 0.4282 0.90878 0.0
N429 N 0.9493 0.41032 0.97768 0.0
C430 C 0.19098 0.44952 0.80117 0.0
C431 C 0.1938 0.39139 0.83937 0.0
N432 N 0.14904 0.43642 0.80431 0.0
N433 N 0.15432 0.39565 0.82036 0.0
N434 N 0.21569 0.42886 0.8327 0.0
H435 H 0.24545 0.45044 0.75682 0.0
H436 H 0.19121 0.46812 0.73332 0.0
H437 H 0.20382 0.41124 0.74338 0.0
C438 C 0.20914 0.44543 0.75581 0.0
C439 C 1.0286 0.39969 1.00154 0.0
H440 H 0.05474 0.38091 0.98391 0.0
H441 H 1.01476 0.37739 1.02712 0.0
H442 H 0.04314 0.42916 1.01791 0.0
O443 O 0.09297 0.44354 0.95161 0.0
O444 O 0.13722 0.42876 0.89782 0.0
C445 C 0.07421 0.36335 0.83537 0.0
O446 O 0.11757 0.53586 0.87051 0.0
O447 O 0.05405 0.52978 0.90453 0.0
Zn448 Zn 0.70438 0.09824 0.84949 0.0
O449 O 0.66987 0.05689 0.81038 0.0
C450 C 0.61138 0.08537 0.89283 0.0
Zn451 Zn 0.72203 0.05469 0.89472 0.0
C452 C 0.68139 1.01851 0.82361 0.0
O453 O 0.71797 1.01357 0.84224 0.0
C454 C 0.74062 0.12666 0.93862 0.0
O455 O 0.80246 0.07014 0.87611 0.0
O456 O 0.76416 0.07622 0.81814 0.0
N457 N 0.73977 0.99896 0.92771 0.0
C458 C 0.75445 0.99243 0.96875 0.0
C459 C 0.75117 0.92899 0.93823 0.0
N460 N 0.73971 0.95961 0.90818 0.0
N461 N 0.75867 0.9487 0.97705 0.0
C462 C 0.70935 0.17647 0.77905 0.0
C463 C 0.77182 0.19985 0.79858 0.0
N464 N 0.72594 0.14541 0.80541 0.0
N465 N 0.76691 0.15904 0.81402 0.0
N466 N 0.73192 0.21509 0.78721 0.0
H467 H 0.71866 0.18497 0.70926 0.0
H468 H 0.66591 0.16108 0.72498 0.0
H469 H 0.71475 0.12808 0.72657 0.0
C470 C 0.70174 0.16215 0.73233 0.0
C471 C 0.76975 1.0284 0.99944 0.0
H472 H 0.7883 0.05418 0.98103 0.0
H473 H 0.79236 1.01483 1.0249 0.0
H474 H 0.74068 0.04349 1.01609 0.0
O475 O 0.72312 0.09096 0.9499 0.0
O476 O 0.74191 0.13634 0.89804 0.0
C477 C 0.80253 0.07735 0.83442 0.0
O478 O 0.6326 0.11839 0.87503 0.0
O479 O 0.63794 0.05258 0.90449 0.0
Zn480 Zn 0.06913 0.70599 0.84767 0.0
O481 O 0.11067 0.67341 0.80725 0.0
C482 C 0.08246 0.6116 0.89047 0.0
Zn483 Zn 0.11181 0.72301 0.89562 0.0
C484 C 0.14881 0.68345 0.82244 0.0
O485 O 0.15369 0.71863 0.84348 0.0
C486 C 1.03906 0.74037 0.93846 0.0
O487 O 0.09755 0.80412 0.87746 0.0
O488 O 0.09479 0.76674 0.81887 0.0
N489 N 0.1677 0.74 0.92883 0.0
C490 C 0.17488 0.75394 0.97004 0.0
C491 C 0.23784 0.75105 0.93849 0.0
N492 N 0.20676 0.74015 0.90877 0.0
N493 N 0.21873 0.75803 0.97767 0.0
C494 C 0.97703 0.71884 0.80116 0.0
C495 C 0.97422 0.77697 0.83937 0.0
N496 N 1.01897 0.73193 0.8043 0.0
N497 N 1.01369 0.7727 0.82036 0.0
N498 N 0.95232 0.7395 0.83269 0.0
H499 H 0.92256 0.71791 0.75682 0.0
H500 H 0.97679 0.70025 0.73332 0.0
H501 H 0.96417 0.75713 0.74338 0.0
C502 C 0.95886 0.72293 0.75581 0.0
C503 C 0.13943 0.76867 1.00153 0.0
H504 H 0.11329 0.78745 0.9839 0.0
H505 H 0.15327 0.79097 1.0271 0.0
H506 H 0.12489 0.7392 1.0179 0.0
O507 O 0.07505 0.72482 0.9516 0.0
O508 O 1.0308 0.73959 0.89782 0.0
C509 C 0.0938 0.805 0.83536 0.0
O510 O 0.05044 0.63249 0.87051 0.0
O511 O 0.11397 0.63858 0.90452 0.0
Zn512 Zn 0.25591 0.44111 0.05995 0.0
O513 O 0.2806 0.36056 0.07251 0.0
C514 C 0.23821 0.41857 0.13917 0.0
Zn515 Zn 0.31889 0.45572 0.08 0.0
C516 C 0.32311 0.357 0.07064 0.0
O517 O 0.34115 0.39341 0.06286 0.0
C518 C 0.26903 0.55608 0.07618 0.0
O519 O 0.35309 0.47714 1.03003 0.0
O520 O 0.29191 0.44904 1.0037 0.0
N521 N 0.3734 0.449 0.11598 0.0
C522 C 0.37519 0.48091 0.1451 0.0
C523 C 0.36245 0.42132 0.17967 0.0
N524 N 0.37311 0.41143 0.13849 0.0
N525 N 0.35709 0.46533 0.18305 0.0
C526 C 0.17067 0.43298 1.00613 0.0
C527 C 0.19455 0.38829 0.95675 0.0
N528 N 0.21109 0.41927 1.0181 0.0
N529 N 0.22528 0.39045 0.98839 0.0
N530 N 0.16025 0.41483 0.96697 0.0
H531 H 0.11341 0.45734 0.03994 0.0
H532 H 0.14016 0.49765 1.00565 0.0
H533 H 0.16487 0.48207 0.05756 0.0
C534 C 0.14611 0.46979 1.02872 0.0
C535 C 0.422 0.49877 0.14511 0.0
H536 H 0.44458 0.47552 0.16231 0.0
H537 H 0.42453 0.53153 0.15977 0.0
H538 H 0.43477 0.50204 0.11097 0.0
O539 O 0.30251 0.53358 0.09075 0.0
O540 O 0.2398 0.52879 0.05811 0.0
C541 C 0.32769 0.46919 0.99804 0.0
O542 O 0.21415 0.43009 0.10753 0.0
O543 O 0.27982 0.42634 0.13649 0.0
Zn544 Zn 0.3189 0.7126 0.07587 0.0
O545 O 0.3531 0.69119 0.12584 0.0
C546 C 0.26904 0.61223 0.07969 0.0
Zn547 Zn 0.25592 0.7272 0.0959 0.0
C548 C 0.3277 0.69913 0.15782 0.0
O549 O 0.29192 0.71927 0.15216 0.0
C550 C 0.23823 0.74974 1.01668 0.0
O551 O 0.28062 0.80775 0.08333 0.0
O552 O 0.34116 0.77492 0.09301 0.0
N553 N 0.2111 0.74905 0.13775 0.0
C554 C 0.17068 0.73534 0.14972 0.0
C555 C 0.19458 0.78005 0.19909 0.0
N556 N 0.22531 0.77787 0.16745 0.0
N557 N 0.16027 0.75351 0.18888 0.0
C558 C 0.3752 0.68742 1.01077 0.0
C559 C 0.36247 0.747 0.9762 0.0
N560 N 0.37341 0.71932 0.03989 0.0
N561 N 0.37313 0.7569 1.01738 0.0
N562 N 0.3571 0.70299 0.97282 0.0
H563 H 0.44459 0.69282 0.99356 0.0
H564 H 0.42454 0.63681 0.9961 0.0
H565 H 0.43479 0.6663 0.0449 0.0
C566 C 0.42201 0.66957 1.01076 0.0
C567 C 0.1461 0.69853 0.12714 0.0
H568 H 0.11341 0.71099 0.11591 0.0
H569 H 0.14015 0.67068 0.15021 0.0
H570 H 0.16485 0.68624 0.0983 0.0
O571 O 0.21416 0.73822 0.04832 0.0
O572 O 0.27983 0.74197 1.01937 0.0
C573 C 0.32313 0.81132 0.08521 0.0
O574 O 0.30252 0.63474 0.06512 0.0
O575 O 0.2398 0.63952 0.09774 0.0
Zn576 Zn 0.44209 0.25305 0.09585 0.0
O577 O 0.36175 0.2794 0.0834 0.0
C578 C 0.41808 0.2382 1.01644 0.0
Zn579 Zn 0.45576 0.31689 0.07851 0.0
C580 C 0.35766 0.32164 0.08825 0.0
O581 O 0.39361 0.33925 0.09871 0.0
C582 C 0.55607 0.26671 0.07986 0.0
O583 O 0.47828 0.34874 0.12901 0.0
O584 O 0.45104 0.28632 0.15394 0.0
N585 N 0.44909 0.37226 0.04391 0.0
C586 C 0.47976 0.37618 1.01369 0.0
C587 C 0.41927 0.36503 0.98049 0.0
N588 N 0.41087 0.37272 1.02261 0.0
N589 N 0.46308 0.36004 0.97537 0.0
C590 C 0.43616 0.16822 0.15025 0.0
C591 C 0.38116 0.18568 0.19129 0.0
N592 N 0.41911 0.20618 0.13507 0.0
N593 N 0.38425 0.21641 0.15957 0.0
N594 N 0.41376 0.15563 0.18652 0.0
H595 H 0.47632 0.11224 0.13156 0.0
H596 H 0.50586 0.15673 0.15797 0.0
H597 H 0.48765 0.16252 0.10154 0.0
C598 C 0.47903 0.14886 0.13423 0.0
C599 C 0.49674 0.42322 1.01515 0.0
H600 H 0.47312 0.44547 0.99801 0.0
H601 H 0.52969 0.42664 1.00106 0.0
H602 H 0.49942 0.43532 0.04958 0.0
O603 O 0.5336 0.30083 0.06669 0.0
O604 O 0.52903 0.2366 0.0967 0.0
C605 C 0.47159 0.32193 0.16016 0.0
O606 O 0.4309 0.21333 0.04695 0.0
O607 O 0.42513 0.27988 1.02043 0.0
Zn608 Zn 0.91211 0.44114 0.0959 0.0
O609 O 0.8874 0.36059 0.08333 0.0
C610 C 0.9298 0.4186 1.01669 0.0
Zn611 Zn 0.84912 0.45574 0.07586 0.0
C612 C 0.84489 0.35702 0.08521 0.0
O613 O 0.82686 0.39342 0.093 0.0
C614 C 0.89899 0.55612 0.07967 0.0
O615 O 0.81492 0.47715 0.12583 0.0
O616 O 0.8761 0.44906 0.15215 0.0
N617 N 0.79462 0.44901 0.03987 0.0
C618 C 0.79283 0.48092 1.01075 0.0
C619 C 0.80557 0.42134 0.97619 0.0
N620 N 0.79491 0.41144 1.01736 0.0
N621 N 0.81093 0.46535 0.97281 0.0
C622 C 0.99735 0.43299 0.14973 0.0
C623 C 0.97344 0.38829 0.1991 0.0
N624 N 0.95692 0.41929 0.13776 0.0
N625 N 0.94271 0.39047 0.16746 0.0
N626 N 1.00776 0.41483 0.18889 0.0
H627 H 0.0546 0.45735 0.11591 0.0
H628 H 1.02789 0.49765 0.15022 0.0
H629 H 1.00316 0.48211 0.09831 0.0
C630 C 1.02192 0.46981 0.12715 0.0
C631 C 0.74602 0.49877 1.01074 0.0
H632 H 0.72344 0.47551 0.99354 0.0
H633 H 0.74349 0.53153 0.99609 0.0
H634 H 0.73324 0.50203 0.04488 0.0
O635 O 0.86551 0.5336 0.0651 0.0
O636 O 0.92822 0.52883 0.09774 0.0
C637 C 0.84032 0.4692 0.15781 0.0
O638 O 0.95387 0.43013 0.04833 0.0
O639 O 0.8882 0.42637 1.01937 0.0
Zn640 Zn 0.71227 0.85147 0.07854 0.0
O641 O 0.68975 0.81961 0.12904 0.0
C642 C 0.61195 0.90164 0.07987 0.0
Zn643 Zn 0.72593 0.91531 0.09586 0.0
C644 C 0.69643 0.84643 0.16018 0.0
O645 O 0.71698 0.88204 0.15396 0.0
C646 C 0.74994 0.93015 1.01646 0.0
O647 O 0.80626 0.88895 0.0834 0.0
O648 O 0.77442 0.82912 0.09877 0.0
N649 N 0.74891 0.96218 0.13508 0.0
C650 C 0.73186 1.00013 0.15026 0.0
C651 C 0.78685 0.98266 0.19131 0.0
N652 N 0.78377 0.95194 0.15959 0.0
N653 N 0.75425 1.01272 0.18654 0.0
C654 C 0.68827 0.79218 1.01373 0.0
C655 C 0.74875 0.80333 0.98053 0.0
N656 N 0.71894 0.7961 0.04395 0.0
N657 N 0.75716 0.79565 1.02265 0.0
N658 N 0.70495 0.80831 0.9754 0.0
H659 H 0.69491 0.72288 0.99806 0.0
H660 H 0.63834 0.74171 1.0011 0.0
H661 H 0.66861 0.73304 0.04963 0.0
C662 C 0.67129 0.74513 1.01519 0.0
C663 C 0.68899 1.01949 0.13424 0.0
H664 H 0.69169 0.05611 0.13157 0.0
H665 H 0.66215 1.01162 0.15797 0.0
H666 H 0.68037 1.00584 0.10154 0.0
O667 O 0.73711 0.95503 0.04696 0.0
O668 O 0.74289 0.88848 1.02046 0.0
C669 C 0.81039 0.84672 0.08834 0.0
O670 O 0.63442 0.86752 0.06671 0.0
O671 O 0.63899 0.93175 0.0967 0.0
Zn672 Zn 0.84912 0.71263 0.07999 0.0
O673 O 0.81492 0.69123 1.03001 0.0
C674 C 0.89898 0.61226 0.07616 0.0
Zn675 Zn 0.91211 0.72725 0.05994 0.0
C676 C 0.84033 0.69916 0.99802 0.0
O677 O 0.87611 0.71931 1.00368 0.0
C678 C 0.9298 0.74977 0.13917 0.0
O679 O 0.88743 0.8078 0.07249 0.0
O680 O 0.82686 0.77494 0.0629 0.0
N681 N 0.95693 0.74908 1.01808 0.0
C682 C 0.99736 0.73537 1.00612 0.0
C683 C 0.97347 0.78006 0.95673 0.0
N684 N 0.94274 0.7779 0.98838 0.0
N685 N 1.00777 0.75352 0.96696 0.0
C686 C 0.79284 0.6874 0.14507 0.0
C687 C 0.80555 0.74698 0.17967 0.0
N688 N 0.79461 0.71933 0.11597 0.0
N689 N 0.79488 0.75689 0.13849 0.0
N690 N 0.81093 0.70297 0.18303 0.0
H691 H 0.72344 0.69279 0.16225 0.0
H692 H 0.74349 0.63678 0.15973 0.0
H693 H 0.73327 0.66626 0.11093 0.0
C694 C 0.74603 0.66954 0.14507 0.0
C695 C 1.02191 0.69856 1.02871 0.0
H696 H 0.05461 0.71101 0.03993 0.0
H697 H 1.02786 0.6707 1.00565 0.0
H698 H 1.00316 0.68628 0.05756 0.0
O699 O 0.95386 0.73826 0.10752 0.0
O700 O 0.8882 0.74198 0.13649 0.0
C701 C 0.84491 0.81133 0.07072 0.0
O702 O 0.8655 0.63476 0.09072 0.0
O703 O 0.92822 0.63956 0.0581 0.0
Zn704 Zn 0.45578 0.85144 0.07733 0.0
O705 O 0.47829 0.81959 1.02683 0.0
C706 C 0.5561 0.90163 0.07597 0.0
Zn707 Zn 0.44212 0.91529 0.05999 0.0
C708 C 0.47162 0.84641 0.99569 0.0
O709 O 0.45107 0.88202 1.0019 0.0
C710 C 0.41811 0.93012 0.1394 0.0
O711 O 0.36178 0.88893 0.07244 0.0
O712 O 0.39363 0.82907 0.05714 0.0
N713 N 0.41913 0.96215 1.02077 0.0
C714 C 0.43618 1.00011 1.00559 0.0
C715 C 0.38118 0.98264 0.96456 0.0
N716 N 0.38427 0.95191 0.99628 0.0
N717 N 0.41377 1.0127 0.96933 0.0
C718 C 0.4798 0.79217 0.14213 0.0
C719 C 0.41932 0.80328 0.17534 0.0
N720 N 0.44911 0.79607 0.11192 0.0
N721 N 0.4109 0.79559 0.13323 0.0
N722 N 0.46313 0.8083 0.18046 0.0
H723 H 0.47316 0.72286 0.15778 0.0
H724 H 0.52973 0.74172 0.15478 0.0
H725 H 0.4995 0.73305 0.10623 0.0
C726 C 0.49679 0.74513 0.14067 0.0
C727 C 0.47905 1.01949 1.02161 0.0
H728 H 0.47634 0.0561 1.02429 0.0
H729 H 0.50588 1.01163 0.99787 0.0
H730 H 0.48768 1.00582 0.0543 0.0
O731 O 0.43093 0.955 0.10889 0.0
O732 O 0.42516 0.88844 0.13541 0.0
C733 C 0.35768 0.84668 0.0676 0.0
O734 O 0.53363 0.86751 0.08915 0.0
O735 O 0.52906 0.93174 0.05915 0.0
Zn736 Zn 0.7259 0.25306 0.05999 0.0
O737 O 0.80624 0.27941 0.07244 0.0
C738 C 0.74991 0.23822 0.1394 0.0
Zn739 Zn 0.71224 0.3169 0.07733 0.0
C740 C 0.81034 0.32166 0.06759 0.0
O741 O 0.77439 0.33927 0.05713 0.0
C742 C 0.61192 0.26671 0.07597 0.0
O743 O 0.68973 0.34875 1.02682 0.0
O744 O 0.71695 0.28632 1.0019 0.0
N745 N 0.71891 0.37227 0.11191 0.0
C746 C 0.68823 0.37618 0.14212 0.0
C747 C 0.74871 0.36506 0.17534 0.0
N748 N 0.75712 0.37275 0.13323 0.0
N749 N 0.7049 0.36005 0.18045 0.0
C750 C 0.73184 0.16824 1.00559 0.0
C751 C 0.78684 0.18571 0.96457 0.0
N752 N 0.74888 0.20619 1.02077 0.0
N753 N 0.78375 0.21644 0.99628 0.0
N754 N 0.75425 0.15565 0.96933 0.0
H755 H 0.69168 0.11224 1.02428 0.0
H756 H 0.66214 0.15672 0.99785 0.0
H757 H 0.68033 0.16252 0.05429 0.0
C758 C 0.68897 0.14886 1.0216 0.0
C759 C 0.67124 0.42321 0.14065 0.0
H760 H 0.69487 0.44548 0.15776 0.0
H761 H 0.6383 0.42663 0.15476 0.0
H762 H 0.66854 0.4353 0.10622 0.0
O763 O 0.63439 0.30084 0.08914 0.0
O764 O 0.63896 0.2366 0.05915 0.0
C765 C 0.6964 0.32193 0.99568 0.0
O766 O 0.73709 0.21334 0.10889 0.0
O767 O 0.74286 0.2799 0.13541 0.0
Zn768 Zn 0.58584 0.82405 0.95162 0.0
O769 O 0.54063 0.86596 0.97496 0.0
C770 C 0.58109 0.77908 0.05039 0.0
Zn771 Zn 0.55614 0.76566 0.93866 0.0
C772 C 0.50495 0.84719 0.96351 0.0
O773 O 0.50639 0.81277 0.9408 0.0
C774 C 0.63341 0.73431 0.92163 0.0
O775 O 0.57431 0.78568 0.85841 0.0
O776 O 0.56771 0.84707 0.89081 0.0
N777 N 0.504 0.72536 0.9201 0.0
C778 C 0.49724 0.68145 0.91562 0.0
C779 C 0.435 0.71336 0.90389 0.0
N780 N 0.46557 0.74486 0.91103 0.0
N781 N 0.45371 0.67317 0.90771 0.0
C782 C 0.65375 0.87097 0.97082 0.0
C783 C 0.69034 0.85208 0.91385 0.0
N784 N 0.62701 0.87269 0.9373 0.0
N785 N 0.65096 0.86729 0.90125 0.0
N786 N 0.6914 0.84954 0.95779 0.0
H787 H 0.66953 0.94092 0.96774 0.0
H788 H 0.67045 0.91806 1.02199 0.0
H789 H 0.61964 0.92868 0.99544 0.0
C790 C 0.65422 0.91669 0.99045 0.0
C791 C 0.53371 0.64741 0.91627 0.0
H792 H 0.5617 0.65899 0.89572 0.0
H793 H 0.52343 0.61532 0.90186 0.0
H794 H 0.54536 0.64246 0.95048 0.0
O795 O 0.59873 0.71593 0.935 0.0
O796 O 0.63573 0.77657 0.92312 0.0
C797 C 0.57686 0.82834 0.85543 0.0
O798 O 0.60152 0.80807 1.02668 0.0
O799 O 0.55403 0.7552 1.02549 0.0
Zn800 Zn 0.40446 0.55783 0.93813 0.0
O801 O 0.38066 0.5737 0.85851 0.0
C802 C 0.4311 0.63539 0.91627 0.0
Zn803 Zn 0.34417 0.5835 0.9517 0.0
C804 C 0.33795 0.57419 0.85589 0.0
O805 O 0.32001 0.56398 0.89137 0.0
C806 C 0.39217 0.58125 0.05033 0.0
O807 O 0.30544 0.53666 0.97548 0.0
O808 O 0.36208 0.50495 0.94407 0.0
N809 N 0.29325 0.62289 0.94012 0.0
C810 C 0.29456 0.65142 0.97229 0.0
C811 C 0.31097 0.68592 0.91351 0.0
N812 N 0.29637 0.64566 0.90306 0.0
N813 N 0.31526 0.6887 0.95722 0.0
C814 C 0.48803 0.49958 0.92876 0.0
C815 C 0.46146 0.4445 0.89279 0.0
N816 N 0.44589 0.50931 0.91877 0.0
N817 N 0.42975 0.47567 0.89563 0.0
N818 N 0.4983 0.45871 0.91321 0.0
H819 H 0.54127 0.54514 0.94016 0.0
H820 H 0.53293 0.50642 0.98413 0.0
H821 H 0.49508 0.55171 0.9772 0.0
C822 C 0.51575 0.5272 0.95943 0.0
C823 C 0.24846 0.65301 0.99122 0.0
H824 H 0.22501 0.66875 0.968 0.0
H825 H 0.24704 0.66965 1.02263 0.0
H826 H 0.23557 0.61878 0.99656 0.0
O827 O 0.36108 0.59898 1.02701 0.0
O828 O 0.41835 0.55706 1.02484 0.0
C829 C 0.32695 0.50206 0.96557 0.0
O830 O 0.45181 0.6018 0.92903 0.0
O831 O 0.38899 0.63591 0.92148 0.0
Zn832 Zn 0.58218 0.3443 0.9516 0.0
O833 O 0.62739 0.30239 0.97495 0.0
C834 C 0.58694 0.38927 0.05037 0.0
Zn835 Zn 0.61189 0.40268 0.93863 0.0
C836 C 0.66307 0.32115 0.9635 0.0
O837 O 0.66163 0.35557 0.94078 0.0
C838 C 0.53463 0.43404 0.9216 0.0
O839 O 0.59372 0.38266 0.85838 0.0
O840 O 0.60031 0.32127 0.8908 0.0
N841 N 0.66404 0.44297 0.92008 0.0
C842 C 0.67079 0.48689 0.9156 0.0
C843 C 0.73303 0.45497 0.90387 0.0
N844 N 0.70247 0.42348 0.91101 0.0
N845 N 0.71432 0.49517 0.90769 0.0
C846 C 0.51427 0.29738 0.97079 0.0
C847 C 0.47768 0.31627 0.91382 0.0
N848 N 0.54101 0.29566 0.93727 0.0
N849 N 0.51705 0.30106 0.90123 0.0
N850 N 0.47661 0.31881 0.95776 0.0
H851 H 0.4985 0.22743 0.96772 0.0
H852 H 0.49757 0.25029 1.02197 0.0
H853 H 0.54838 0.23967 0.99542 0.0
C854 C 0.5138 0.25166 0.99043 0.0
C855 C 0.63432 0.52092 0.91624 0.0
H856 H 0.60634 0.50935 0.89567 0.0
H857 H 0.64461 0.55302 0.90184 0.0
H858 H 0.62266 0.52587 0.95044 0.0
O859 O 0.56931 0.45242 0.93496 0.0
O860 O 0.53229 0.39178 0.92308 0.0
C861 C 0.59117 0.33999 0.85542 0.0
O862 O 0.5665 0.36028 1.02665 0.0
O863 O 0.61399 0.41314 1.02546 0.0
Zn864 Zn 0.82386 0.58485 0.95169 0.0
O865 O 0.86258 0.6317 0.97547 0.0
C866 C 0.77586 0.58708 0.05031 0.0
Zn867 Zn 0.76356 0.61051 0.93812 0.0
C868 C 0.84107 0.66629 0.96556 0.0
O869 O 0.80593 0.66339 0.94405 0.0
C870 C 0.73693 0.53295 0.91625 0.0
O871 O 0.78736 0.59464 0.85849 0.0
O872 O 0.84801 0.60437 0.89136 0.0
N873 N 0.72213 0.65902 0.91876 0.0
C874 C 0.68001 0.66877 0.9288 0.0
C875 C 0.70656 0.72385 0.8928 0.0
N876 N 0.73826 0.69266 0.8956 0.0
N877 N 0.66975 0.70965 0.91328 0.0
C878 C 0.87347 0.51693 0.97228 0.0
C879 C 0.85706 0.48243 0.9135 0.0
N880 N 0.87478 0.54546 0.94011 0.0
N881 N 0.87166 0.5227 0.90306 0.0
N882 N 0.85277 0.47965 0.95721 0.0
H883 H 0.94303 0.49959 0.968 0.0
H884 H 0.921 0.49869 1.02262 0.0
H885 H 0.93247 0.54957 0.99655 0.0
C886 C 0.91958 0.51534 0.99122 0.0
C887 C 0.65229 0.64114 0.95947 0.0
H888 H 0.62677 0.6232 0.94021 0.0
H889 H 0.63512 0.66192 0.98417 0.0
H890 H 0.67297 0.61662 0.97723 0.0
O891 O 0.71622 0.56653 0.92902 0.0
O892 O 0.77904 0.53243 0.92146 0.0
C893 C 0.83007 0.59416 0.85588 0.0
O894 O 0.80695 0.56936 1.02699 0.0
O895 O 0.74968 0.61126 1.02483 0.0
Zn896 Zn 0.58581 0.34429 0.20423 0.0
O897 O 0.54059 0.30238 0.1809 0.0
C898 C 0.58104 0.38926 0.10546 0.0
Zn899 Zn 0.55612 0.40268 0.2172 0.0
C900 C 0.50492 0.32115 0.19234 0.0
O901 O 0.50637 0.35557 0.21505 0.0
C902 C 0.6334 0.43402 0.23422 0.0
O903 O 0.57431 0.38266 0.29745 0.0
O904 O 0.56769 0.32126 0.26504 0.0
N905 N 0.50399 0.44298 0.23576 0.0
C906 C 0.49724 0.48689 0.24024 0.0
C907 C 0.435 0.45497 0.25198 0.0
N908 N 0.46556 0.42348 0.24483 0.0
N909 N 0.45371 0.49517 0.24815 0.0
C910 C 0.65371 0.29738 0.18502 0.0
C911 C 0.69031 0.31626 0.24199 0.0
N912 N 0.62697 0.29565 0.21854 0.0
N913 N 0.65093 0.30105 0.25459 0.0
N914 N 0.69137 0.31881 0.19806 0.0
H915 H 0.6695 0.22743 0.18811 0.0
H916 H 0.67042 0.25029 0.13386 0.0
H917 H 0.61961 0.23965 0.16041 0.0
C918 C 0.65419 0.25165 0.16539 0.0
C919 C 0.53372 0.52093 0.23958 0.0
H920 H 0.5617 0.50936 0.26013 0.0
H921 H 0.52344 0.55302 0.25399 0.0
H922 H 0.54536 0.52589 0.20537 0.0
O923 O 0.59872 0.45241 0.22086 0.0
O924 O 0.63571 0.39177 0.23273 0.0
C925 C 0.57685 0.34 0.30042 0.0
O926 O 0.60148 0.36027 0.12917 0.0
O927 O 0.55401 0.41315 0.13037 0.0
Zn928 Zn 0.76357 0.55782 0.21773 0.0
O929 O 0.78737 0.57369 0.29735 0.0
C930 C 0.73693 0.63539 0.23957 0.0
Zn931 Zn 0.82387 0.58349 0.20415 0.0
C932 C 0.83007 0.57418 0.29996 0.0
O933 O 0.84801 0.56398 0.26448 0.0
C934 C 0.77587 0.58123 0.10553 0.0
O935 O 0.86258 0.53666 0.18039 0.0
O936 O 0.80594 0.50495 0.21179 0.0
N937 N 0.87479 0.62289 0.21573 0.0
C938 C 0.87347 0.65141 0.18356 0.0
C939 C 0.85707 0.68591 0.24234 0.0
N940 N 0.87168 0.64565 0.25279 0.0
N941 N 0.85277 0.68869 0.19863 0.0
C942 C 0.68001 0.49957 0.22705 0.0
C943 C 0.70656 0.44449 0.26305 0.0
N944 N 0.72214 0.50931 0.23708 0.0
N945 N 0.73826 0.47568 0.26024 0.0
N946 N 0.66974 0.45869 0.24257 0.0
H947 H 0.62677 0.54512 0.21563 0.0
H948 H 0.63513 0.5064 0.17167 0.0
H949 H 0.67298 0.55171 0.17862 0.0
C950 C 0.6523 0.52719 0.19637 0.0
C951 C 0.91958 0.65302 0.16462 0.0
H952 H 0.94303 0.66875 0.18784 0.0
H953 H 0.92099 0.66968 0.13322 0.0
H954 H 0.93246 0.61879 0.15927 0.0
O955 O 0.80696 0.59897 0.12884 0.0
O956 O 0.74968 0.55706 0.13102 0.0
C957 C 0.84107 0.50206 0.19029 0.0
O958 O 0.71624 0.6018 0.22681 0.0
O959 O 0.77905 0.63591 0.23436 0.0
Zn960 Zn 0.61189 0.76567 0.21723 0.0
O961 O 0.59371 0.78569 0.29747 0.0
C962 C 0.53462 0.73433 0.23425 0.0
Zn963 Zn 0.58221 0.82407 0.20425 0.0
C964 C 0.59117 0.82836 0.30044 0.0
O965 O 0.60033 0.84709 0.26506 0.0
C966 C 0.58698 0.77909 0.10549 0.0
O967 O 0.62744 0.86597 0.18092 0.0
O968 O 0.66166 0.81278 0.21508 0.0
N969 N 0.54105 0.87271 0.21855 0.0
C970 C 0.51431 0.87097 0.18503 0.0
C971 C 0.47771 0.85209 0.242 0.0
N972 N 0.51709 0.86731 0.2546 0.0
N973 N 0.47666 0.84954 0.19806 0.0
C974 C 0.67079 0.68145 0.24018 0.0
C975 C 0.73303 0.71338 0.25198 0.0
N976 N 0.66403 0.72538 0.23579 0.0
N977 N 0.70245 0.74487 0.24491 0.0
N978 N 0.71433 0.67319 0.24803 0.0
H979 H 0.60633 0.65894 0.26003 0.0
H980 H 0.6446 0.61529 0.25383 0.0
H981 H 0.62268 0.6425 0.20524 0.0
C982 C 0.63432 0.64741 0.23946 0.0
C983 C 0.51384 0.9167 0.16539 0.0
H984 H 0.49852 0.94092 0.1881 0.0
H985 H 0.4976 0.91806 0.13386 0.0
H986 H 0.54841 0.9287 0.16041 0.0
O987 O 0.56654 0.80809 0.12919 0.0
O988 O 0.61401 0.7552 0.1304 0.0
C989 C 0.66311 0.8472 0.19236 0.0
O990 O 0.5693 0.71595 0.22089 0.0
O991 O 0.53231 0.77659 0.23275 0.0
Zn992 Zn 0.34417 0.58483 0.20416 0.0
O993 O 0.30545 0.63166 0.18038 0.0
C994 C 0.39217 0.58709 0.10554 0.0
Zn995 Zn 0.40447 0.61051 0.21774 0.0
C996 C 0.32695 0.66626 0.1903 0.0
O997 O 0.36209 0.66337 0.2118 0.0
C998 C 0.43111 0.53295 0.2396 0.0
O999 O 0.38067 0.59464 0.29736 0.0
O1000 O 0.32002 0.60435 0.26449 0.0
N1001 N 0.44589 0.65903 0.2371 0.0
C1002 C 0.48802 0.66878 0.22707 0.0
C1003 C 0.46145 0.72386 0.26306 0.0
N1004 N 0.42976 0.69267 0.26025 0.0
N1005 N 0.49827 0.70967 0.24259 0.0
C1006 C 0.29456 0.5169 0.18358 0.0
C1007 C 0.31097 0.4824 0.24237 0.0
N1008 N 0.29325 0.54543 0.21575 0.0
N1009 N 0.29638 0.52267 0.25281 0.0
N1010 N 0.31526 0.47962 0.19865 0.0
H1011 H 0.225 0.49957 0.18786 0.0
H1012 H 0.24703 0.49866 0.13324 0.0
H1013 H 0.23557 0.54954 0.1593 0.0
C1014 C 0.24845 0.51531 0.16464 0.0
C1015 C 0.51573 0.64115 0.19641 0.0
H1016 H 0.54124 0.62321 0.21568 0.0
H1017 H 0.53292 0.66194 0.17171 0.0
H1018 H 0.49505 0.61665 0.17864 0.0
O1019 O 0.45181 0.56654 0.22685 0.0
O1020 O 0.38899 0.53242 0.23439 0.0
C1021 C 0.33796 0.59415 0.29997 0.0
O1022 O 0.36108 0.56935 0.12885 0.0
O1023 O 0.41835 0.61127 0.13103 0.0
Zn1024 Zn 0.96365 0.59825 0.80636 0.0
O1025 O 0.99815 0.55692 0.84548 0.0
C1026 C 0.05665 0.58539 0.76301 0.0
Zn1027 Zn 0.946 0.5547 0.76114 0.0
C1028 C 0.98662 0.51854 0.83229 0.0
O1029 O 0.95005 0.51357 0.81362 0.0
C1030 C 0.9274 0.62667 0.71724 0.0
O1031 O 0.86556 0.57013 0.77974 0.0
O1032 O 0.90387 0.57622 0.83771 0.0
N1033 N 0.92826 0.49896 0.72814 0.0
C1034 C 0.91361 0.49243 0.6871 0.0
C1035 C 0.91687 0.42899 0.71762 0.0
N1036 N 0.92831 0.45961 0.74768 0.0
N1037 N 0.90939 0.44869 0.6788 0.0
C1038 C 0.95869 0.67652 0.87676 0.0
C1039 C 0.89614 0.69986 0.8572 0.0
N1040 N 0.94209 0.64544 0.85043 0.0
N1041 N 0.9011 0.65904 0.8418 0.0
N1042 N 0.93603 0.71507 0.86859 0.0
H1043 H 0.94941 0.68507 0.94655 0.0
H1044 H 1.00214 0.66113 0.93083 0.0
H1045 H 0.95326 0.62817 0.92927 0.0
C1046 C 0.96631 0.66222 0.92348 0.0
C1047 C 0.89832 0.52839 0.65639 0.0
H1048 H 0.87976 0.55416 0.67478 0.0
H1049 H 0.87573 0.51482 0.63092 0.0
H1050 H 0.9274 0.54348 0.63975 0.0
O1051 O 0.94491 0.59097 0.70596 0.0
O1052 O 0.92612 0.63635 0.75781 0.0
C1053 C 0.86549 0.57734 0.82143 0.0
O1054 O 1.03543 0.61841 0.78082 0.0
O1055 O 1.03008 0.55259 0.75137 0.0
Zn1056 Zn 0.6118 0.94534 0.76023 0.0
O1057 O 0.59754 0.86422 0.77838 0.0
C1058 C 0.53903 0.92799 0.71742 0.0
Zn1059 Zn 0.56913 0.96234 0.8082 0.0
C1060 C 0.5938 0.86334 0.82049 0.0
O1061 O 0.59478 0.9016 0.83698 0.0
C1062 C 0.58245 0.05675 0.7654 0.0
O1063 O 0.61067 0.99491 0.84862 0.0
O1064 O 0.6537 0.94971 0.81236 0.0
N1065 N 0.51898 0.93636 0.85158 0.0
C1066 C 0.47707 0.94951 0.85466 0.0
C1067 C 0.47423 0.89133 0.81648 0.0
N1068 N 0.51368 0.89558 0.83555 0.0
N1069 N 0.45241 0.92883 0.82312 0.0
C1070 C 0.67483 0.91443 0.68579 0.0
C1071 C 0.7378 0.91726 0.71734 0.0
N1072 N 0.66766 0.92836 0.727 0.0
N1073 N 0.70673 0.92817 0.74706 0.0
N1074 N 0.71868 0.91032 0.67816 0.0
H1075 H 0.61322 0.88095 0.6719 0.0
H1076 H 0.65319 0.87745 0.62869 0.0
H1077 H 0.62485 0.92923 0.63794 0.0
C1078 C 0.63937 0.89974 0.65429 0.0
C1079 C 0.45883 0.94545 0.89999 0.0
H1080 H 0.42253 0.95049 0.89894 0.0
H1081 H 0.47676 0.96812 0.9225 0.0
H1082 H 0.46409 0.91125 0.91244 0.0
O1083 O 0.55045 1.03584 0.78537 0.0
O1084 O 0.61396 1.02977 0.75135 0.0
C1085 C 0.64882 0.98485 0.83346 0.0
O1086 O 0.57502 0.94353 0.70427 0.0
O1087 O 0.53078 0.92876 0.75806 0.0
Zn1088 Zn 0.20437 0.5701 0.80636 0.0
O1089 O 0.16987 0.61143 0.84548 0.0
C1090 C 0.11137 0.58297 0.76303 0.0
Zn1091 Zn 0.22202 0.61365 0.76114 0.0
C1092 C 0.1814 0.64981 0.83229 0.0
O1093 O 0.21796 0.65479 0.81362 0.0
C1094 C 0.24062 0.54169 0.71725 0.0
O1095 O 0.30246 0.59822 0.77975 0.0
O1096 O 0.26415 0.59214 0.83771 0.0
N1097 N 0.23976 0.66939 0.72815 0.0
C1098 C 0.25441 0.67592 0.6871 0.0
C1099 C 0.25115 0.73936 0.71763 0.0
N1100 N 0.23971 0.70874 0.74768 0.0
N1101 N 0.25863 0.71966 0.6788 0.0
C1102 C 0.20933 0.49184 0.87676 0.0
C1103 C 0.27188 0.4685 0.85721 0.0
N1104 N 0.22593 0.52292 0.85044 0.0
N1105 N 0.26692 0.50932 0.84182 0.0
N1106 N 0.23198 0.45328 0.86859 0.0
H1107 H 0.21861 0.48327 0.94655 0.0
H1108 H 0.16589 0.50722 0.93083 0.0
H1109 H 0.21477 0.54018 0.92928 0.0
C1110 C 0.20172 0.50613 0.92349 0.0
C1111 C 0.2697 0.63996 0.6564 0.0
H1112 H 0.28827 0.61419 0.6748 0.0
H1113 H 0.2923 0.65353 0.63093 0.0
H1114 H 0.24063 0.62487 0.63976 0.0
O1115 O 0.22311 0.57738 0.70596 0.0
O1116 O 0.24189 0.532 0.75781 0.0
C1117 C 0.30253 0.59102 0.82143 0.0
O1118 O 0.13259 0.54994 0.78082 0.0
O1119 O 0.13794 0.61577 0.75137 0.0
Zn1120 Zn 0.59891 0.20599 0.80819 0.0
O1121 O 0.55737 0.17343 0.84862 0.0
C1122 C 0.58557 0.11159 0.76541 0.0
Zn1123 Zn 0.55623 0.22299 0.76022 0.0
C1124 C 0.51923 0.18348 0.83346 0.0
O1125 O 0.51434 0.21862 0.81235 0.0
C1126 C 0.629 0.24034 0.71741 0.0
O1127 O 0.57049 0.30411 0.77836 0.0
O1128 O 0.57326 0.26673 0.83696 0.0
N1129 N 0.50036 0.23997 0.72699 0.0
C1130 C 0.49319 0.2539 0.68578 0.0
C1131 C 0.43022 0.25106 0.71733 0.0
N1132 N 0.46129 0.24015 0.74705 0.0
N1133 N 0.44934 0.25801 0.67815 0.0
C1134 C 0.69098 0.21884 0.85465 0.0
C1135 C 0.6938 0.27702 0.81645 0.0
N1136 N 0.64906 0.23198 0.85157 0.0
N1137 N 0.65436 0.27277 0.83553 0.0
N1138 N 0.71563 0.23951 0.8231 0.0
H1139 H 0.74552 0.21786 0.89892 0.0
H1140 H 0.69129 0.20026 0.9225 0.0
H1141 H 0.70398 0.25712 0.9124 0.0
C1142 C 0.70923 0.22291 0.89998 0.0
C1143 C 0.52864 0.2686 0.65428 0.0
H1144 H 0.55479 0.28739 0.67191 0.0
H1145 H 0.51482 0.2909 0.62869 0.0
H1146 H 0.54317 0.23912 0.63793 0.0
O1147 O 0.593 0.2248 0.70426 0.0
O1148 O 0.63725 0.23957 0.75805 0.0
C1149 C 0.57423 0.305 0.82047 0.0
O1150 O 0.61759 0.13249 0.78537 0.0
O1151 O 0.55407 0.13856 0.75134 0.0
Zn1152 Zn 0.96366 0.57008 0.3495 0.0
O1153 O 0.99816 0.61142 0.31037 0.0
C1154 C 0.05666 0.58295 0.39284 0.0
Zn1155 Zn 0.94601 0.61364 0.39471 0.0
C1156 C 0.98663 0.6498 0.32357 0.0
O1157 O 0.95007 0.65477 0.34224 0.0
C1158 C 0.92741 0.54167 0.43861 0.0
O1159 O 0.86557 0.5982 0.37611 0.0
O1160 O 0.90388 0.59212 0.31814 0.0
N1161 N 0.92827 0.66937 0.4277 0.0
C1162 C 0.91361 0.6759 0.46874 0.0
C1163 C 0.91686 0.73934 0.43822 0.0
N1164 N 0.92831 0.70872 0.40817 0.0
N1165 N 0.90937 0.71963 0.47704 0.0
C1166 C 0.95869 0.49182 0.2791 0.0
C1167 C 0.89613 0.46847 0.29866 0.0
N1168 N 0.94208 0.5229 0.30542 0.0
N1169 N 0.9011 0.50929 0.31405 0.0
N1170 N 0.93603 0.45326 0.28728 0.0
H1171 H 0.94939 0.48326 0.20932 0.0
H1172 H 1.00213 0.5072 0.22503 0.0
H1173 H 0.95326 0.54016 0.22658 0.0
C1174 C 0.9663 0.50611 0.23238 0.0
C1175 C 0.89831 0.63993 0.49944 0.0
H1176 H 0.87975 0.61415 0.48104 0.0
H1177 H 0.87571 0.65349 0.52491 0.0
H1178 H 0.92739 0.62484 0.51609 0.0
O1179 O 0.94492 0.57737 0.44989 0.0
O1180 O 0.92612 0.53199 0.39804 0.0
C1181 C 0.8655 0.591 0.33442 0.0
O1182 O 1.03543 0.54993 0.37504 0.0
O1183 O 1.0301 0.61575 0.40448 0.0
Zn1184 Zn 0.59889 0.96236 0.34766 0.0
O1185 O 0.55735 0.99492 0.30723 0.0
C1186 C 0.58557 0.05676 0.39046 0.0
Zn1187 Zn 0.55622 0.94535 0.39563 0.0
C1188 C 0.51921 0.98486 0.3224 0.0
O1189 O 0.51432 0.94972 0.3435 0.0
C1190 C 0.62898 0.92801 0.43844 0.0
O1191 O 0.57048 0.86424 0.37749 0.0
O1192 O 0.57323 0.90161 0.31888 0.0
N1193 N 0.50035 0.92837 0.42886 0.0
C1194 C 0.49318 0.91445 0.47007 0.0
C1195 C 0.43021 0.91728 0.43852 0.0
N1196 N 0.46128 0.92818 0.4088 0.0
N1197 N 0.44933 0.91034 0.47771 0.0
C1198 C 0.69097 0.94953 0.30121 0.0
C1199 C 0.69377 0.89134 0.3394 0.0
N1200 N 0.64904 0.93639 0.30428 0.0
N1201 N 0.65433 0.8956 0.32032 0.0
N1202 N 0.71561 0.92885 0.33276 0.0
H1203 H 0.74551 0.9505 0.25694 0.0
H1204 H 0.69128 0.96809 0.23335 0.0
H1205 H 0.70397 0.91124 0.24346 0.0
C1206 C 0.70921 0.94545 0.25588 0.0
C1207 C 0.52863 0.89976 0.50158 0.0
H1208 H 0.55478 0.88097 0.48396 0.0
H1209 H 0.5148 0.87747 0.52717 0.0
H1210 H 0.54316 0.92925 0.51792 0.0
O1211 O 0.593 0.94355 0.45159 0.0
O1212 O 0.63723 0.92878 0.3978 0.0
C1213 C 0.57421 0.86335 0.33538 0.0
O1214 O 0.61758 1.03586 0.37049 0.0
O1215 O 0.55406 1.02978 0.40451 0.0
Zn1216 Zn 0.20437 0.59826 0.3495 0.0
O1217 O 0.16988 0.55692 0.31038 0.0
C1218 C 0.11138 0.58538 0.39282 0.0
Zn1219 Zn 0.22203 0.5547 0.39471 0.0
C1220 C 0.18141 0.51854 0.32357 0.0
O1221 O 0.21797 0.51357 0.34224 0.0
C1222 C 0.24062 0.62668 0.43861 0.0
O1223 O 0.30246 0.57014 0.37612 0.0
O1224 O 0.26415 0.57623 0.31815 0.0
N1225 N 0.23977 0.49898 0.42771 0.0
C1226 C 0.25443 0.49245 0.46876 0.0
C1227 C 0.25117 0.42901 0.43824 0.0
N1228 N 0.23972 0.45963 0.40818 0.0
N1229 N 0.25866 0.44872 0.47706 0.0
C1230 C 0.20934 0.67652 0.27909 0.0
C1231 C 0.2719 0.69987 0.29865 0.0
N1232 N 0.22595 0.64544 0.30541 0.0
N1233 N 0.26693 0.65905 0.31404 0.0
N1234 N 0.232 0.71508 0.28726 0.0
H1235 H 0.21863 0.68507 0.2093 0.0
H1236 H 0.16589 0.66113 0.22502 0.0
H1237 H 0.21476 0.62817 0.22658 0.0
C1238 C 0.20172 0.66223 0.23237 0.0
C1239 C 0.26972 0.52842 0.49945 0.0
H1240 H 0.28828 0.5542 0.48105 0.0
H1241 H 0.29232 0.51486 0.52492 0.0
H1242 H 0.24065 0.54351 0.51609 0.0
O1243 O 0.22312 0.59098 0.44989 0.0
O1244 O 0.2419 0.63636 0.39805 0.0
C1245 C 0.30253 0.57734 0.33443 0.0
O1246 O 0.1326 0.61841 0.37503 0.0
O1247 O 0.13794 0.55258 0.40448 0.0
Zn1248 Zn 0.56912 0.206 0.34765 0.0
O1249 O 0.61067 0.17344 0.30723 0.0
C1250 C 0.58246 0.1116 0.39044 0.0
Zn1251 Zn 0.6118 0.22301 0.39562 0.0
C1252 C 0.64881 0.18349 0.32239 0.0
O1253 O 0.6537 0.21864 0.34349 0.0
C1254 C 0.53904 0.24035 0.43843 0.0
O1255 O 0.59755 0.30412 0.37747 0.0
O1256 O 0.59479 0.26674 0.31887 0.0
N1257 N 0.66767 0.23999 0.42885 0.0
C1258 C 0.67485 0.25391 0.47007 0.0
C1259 C 0.73781 0.25107 0.43852 0.0
N1260 N 0.70674 0.24017 0.4088 0.0
N1261 N 0.7187 0.25801 0.4777 0.0
C1262 C 0.47706 0.21882 0.30119 0.0
C1263 C 0.47424 0.27701 0.33938 0.0
N1264 N 0.51898 0.23197 0.30427 0.0
N1265 N 0.51369 0.27275 0.3203 0.0
N1266 N 0.45241 0.2395 0.33273 0.0
H1267 H 0.42251 0.21784 0.25692 0.0
H1268 H 0.47674 0.20024 0.23334 0.0
H1269 H 0.46407 0.2571 0.24343 0.0
C1270 C 0.45881 0.22289 0.25586 0.0
C1271 C 0.6394 0.26859 0.50157 0.0
H1272 H 0.61325 0.28739 0.48396 0.0
H1273 H 0.65323 0.29088 0.52717 0.0
H1274 H 0.62486 0.2391 0.51792 0.0
O1275 O 0.57502 0.22481 0.45158 0.0
O1276 O 0.53079 0.23958 0.39778 0.0
C1277 C 0.59381 0.30501 0.33536 0.0
O1278 O 0.55045 0.13249 0.37048 0.0
O1279 O 0.61396 0.13858 0.40451 0.0
Zn1280 Zn 0.81891 0.95571 0.58001 0.0
O1281 O 0.85316 0.9771 0.53006 0.0
C1282 C 0.76906 0.05608 0.57618 0.0
Zn1283 Zn 0.75593 0.94111 0.55993 0.0
C1284 C 0.82778 0.96911 0.49807 0.0
O1285 O 0.79196 0.94903 0.5037 0.0
C1286 C 0.7382 0.91859 0.63915 0.0
O1287 O 0.7806 0.86055 0.57248 0.0
O1288 O 0.84115 0.89341 0.56291 0.0
N1289 N 0.71112 0.91928 0.51806 0.0
C1290 C 0.6707 0.93299 0.5061 0.0
C1291 C 0.69459 0.88832 0.4567 0.0
N1292 N 0.72532 0.89048 0.48834 0.0
N1293 N 0.66028 0.91485 0.46693 0.0
C1294 C 0.87514 0.9809 0.64512 0.0
C1295 C 0.86241 0.92128 0.67972 0.0
N1296 N 0.8734 0.94897 0.61603 0.0
N1297 N 0.87312 0.91139 0.63855 0.0
N1298 N 0.85703 0.96529 0.68304 0.0
H1299 H 0.94453 0.97551 0.66237 0.0
H1300 H 0.92448 1.03152 0.65981 0.0
H1301 H 0.93474 1.00203 0.61103 0.0
C1302 C 0.92195 0.99876 0.64516 0.0
C1303 C 0.64613 0.96978 0.52871 0.0
H1304 H 0.61347 0.95729 0.53999 0.0
H1305 H 0.6401 0.99763 0.50565 0.0
H1306 H 0.66491 0.9821 0.55752 0.0
O1307 O 0.71415 0.9301 0.60749 0.0
O1308 O 0.7798 0.92636 0.63648 0.0
C1309 C 0.82311 0.857 0.57065 0.0
O1310 O 0.80253 1.03357 0.59077 0.0
O1311 O 0.73984 1.0288 0.55809 0.0
Zn1312 Zn 0.75594 0.2272 0.59593 0.0
O1313 O 0.78062 0.30776 0.58337 0.0
C1314 C 0.73821 0.24973 0.51671 0.0
Zn1315 Zn 0.81892 0.21261 0.57585 0.0
C1316 C 0.82313 0.31132 0.5852 0.0
O1317 O 0.84117 0.27492 0.59296 0.0
C1318 C 0.76907 0.11223 0.57969 0.0
O1319 O 0.85317 0.19122 0.6258 0.0
O1320 O 0.79197 0.21928 0.65216 0.0
N1321 N 0.87342 0.21936 0.53984 0.0
C1322 C 0.87515 0.18742 0.51075 0.0
C1323 C 0.86243 0.24704 0.47615 0.0
N1324 N 0.87313 0.25693 0.51732 0.0
N1325 N 0.85704 0.20304 0.47283 0.0
C1326 C 0.67071 0.23533 0.64975 0.0
C1327 C 0.69462 0.28001 0.69914 0.0
N1328 N 0.71114 0.24903 0.6378 0.0
N1329 N 0.72535 0.27784 0.6675 0.0
N1330 N 0.6603 0.25349 0.68891 0.0
H1331 H 0.61347 0.21104 0.61586 0.0
H1332 H 0.64009 0.17071 0.65022 0.0
H1333 H 0.6649 0.18621 0.59834 0.0
C1334 C 0.64612 0.19854 0.62715 0.0
C1335 C 0.92196 0.16958 0.51071 0.0
H1336 H 0.94454 0.19283 0.4935 0.0
H1337 H 0.92449 0.13681 0.49606 0.0
H1338 H 0.93476 0.16631 0.54484 0.0
O1339 O 0.80253 0.13474 0.56509 0.0
O1340 O 0.73984 0.13951 0.59777 0.0
C1341 C 0.82779 0.19921 0.65779 0.0
O1342 O 0.71416 0.2382 0.54836 0.0
O1343 O 0.77981 0.24196 0.51939 0.0
Zn1344 Zn 0.94208 0.75305 0.59586 0.0
O1345 O 0.86174 0.77939 0.5834 0.0
C1346 C 0.91809 0.73818 0.51645 0.0
Zn1347 Zn 0.95575 0.81689 0.57848 0.0
C1348 C 0.85766 0.82164 0.58823 0.0
O1349 O 0.89362 0.83925 0.59868 0.0
C1350 C 0.05607 0.76672 0.57985 0.0
O1351 O 0.97825 0.84878 0.62897 0.0
O1352 O 0.95102 0.78635 0.65394 0.0
N1353 N 0.94906 0.87226 0.54387 0.0
C1354 C 0.97975 0.87613 0.51366 0.0
C1355 C 0.91922 0.86499 0.48045 0.0
N1356 N 0.91083 0.87272 0.52256 0.0
N1357 N 0.96302 0.85997 0.47537 0.0
C1358 C 0.93617 0.66824 0.65026 0.0
C1359 C 0.88115 0.68568 0.69128 0.0
N1360 N 0.91911 0.70619 0.63508 0.0
N1361 N 0.88424 0.71641 0.65956 0.0
N1362 N 0.91376 0.65564 0.68652 0.0
H1363 H 0.97636 0.61227 0.6316 0.0
H1364 H 1.00588 0.65678 0.65798 0.0
H1365 H 0.98766 0.66254 0.60155 0.0
C1366 C 0.97905 0.64889 0.63425 0.0
C1367 C 0.99672 0.92318 0.51508 0.0
H1368 H 0.97311 0.94541 0.49791 0.0
H1369 H 1.02968 0.92659 0.50101 0.0
H1370 H 0.99939 0.93531 0.5495 0.0
O1371 O 1.0336 0.80084 0.56666 0.0
O1372 O 1.02903 0.73663 0.59671 0.0
C1373 C 0.97151 0.822 0.66013 0.0
O1374 O 0.93091 0.71332 0.54697 0.0
O1375 O 0.92514 0.77986 0.52043 0.0
Zn1376 Zn 0.41209 0.94114 0.59592 0.0
O1377 O 0.38741 0.86058 0.58336 0.0
C1378 C 0.42982 0.91862 0.51671 0.0
Zn1379 Zn 0.34911 0.95573 0.57584 0.0
C1380 C 0.34489 0.85702 0.5852 0.0
O1381 O 0.32686 0.89343 0.59296 0.0
C1382 C 0.39896 0.05612 0.57967 0.0
O1383 O 0.31486 0.97712 0.62579 0.0
O1384 O 0.37605 0.94905 0.65215 0.0
N1385 N 0.29462 0.94898 0.53982 0.0
C1386 C 0.29288 0.98092 0.51073 0.0
C1387 C 0.30561 0.9213 0.47613 0.0
N1388 N 0.2949 0.91141 0.5173 0.0
N1389 N 0.311 0.96531 0.47282 0.0
C1390 C 0.49731 0.93301 0.64976 0.0
C1391 C 0.4734 0.88833 0.69915 0.0
N1392 N 0.45689 0.91931 0.6378 0.0
N1393 N 0.44267 0.8905 0.66751 0.0
N1394 N 0.50772 0.91485 0.68892 0.0
H1395 H 0.55455 0.9573 0.61587 0.0
H1396 H 0.52794 0.99763 0.65023 0.0
H1397 H 0.50312 0.98214 0.59836 0.0
C1398 C 0.5219 0.9698 0.62716 0.0
C1399 C 0.24607 0.99876 0.51069 0.0
H1400 H 0.22349 0.97551 0.49348 0.0
H1401 H 0.24354 1.03152 0.49604 0.0
H1402 H 0.23327 1.00202 0.54482 0.0
O1403 O 0.36549 1.0336 0.56508 0.0
O1404 O 0.42818 1.02883 0.59776 0.0
C1405 C 0.34023 0.96912 0.65778 0.0
O1406 O 0.45387 0.93014 0.54837 0.0
O1407 O 0.38822 0.92638 0.51939 0.0
Zn1408 Zn 0.21227 0.35146 0.57852 0.0
O1409 O 0.18978 0.31956 0.629 0.0
C1410 C 0.11195 0.40163 0.57987 0.0
Zn1411 Zn 0.22593 0.4153 0.59586 0.0
C1412 C 0.19651 0.34636 0.66015 0.0
O1413 O 0.21699 0.38201 0.65395 0.0
C1414 C 0.24992 0.43017 0.51647 0.0
O1415 O 0.30626 0.38896 0.58339 0.0
O1416 O 0.27442 0.32912 0.59874 0.0
N1417 N 0.24891 0.46217 0.63509 0.0
C1418 C 0.23185 0.50011 0.65027 0.0
C1419 C 0.28686 0.48267 0.69129 0.0
N1420 N 0.28377 0.45194 0.65958 0.0
N1421 N 0.25426 0.51271 0.68653 0.0
C1422 C 0.18828 0.29223 0.5137 0.0
C1423 C 0.2488 0.30338 0.48048 0.0
N1424 N 0.21897 0.29611 0.54391 0.0
N1425 N 0.2572 0.29565 0.5226 0.0
N1426 N 0.205 0.30838 0.47541 0.0
H1427 H 0.19492 0.22295 0.49797 0.0
H1428 H 0.13835 0.24177 0.50105 0.0
H1429 H 0.16864 0.23305 0.54955 0.0
C1430 C 0.17131 0.24518 0.51512 0.0
C1431 C 0.18898 0.51947 0.63425 0.0
H1432 H 0.19167 0.55609 0.63159 0.0
H1433 H 0.16214 0.51158 0.65798 0.0
H1434 H 0.18036 0.50582 0.60155 0.0
O1435 O 0.2371 0.45505 0.54698 0.0
O1436 O 0.24288 0.3885 0.52046 0.0
C1437 C 0.31039 0.34672 0.58832 0.0
O1438 O 0.13442 0.36751 0.56668 0.0
O1439 O 0.13899 0.43173 0.59672 0.0
Zn1440 Zn 0.34911 0.21264 0.58001 0.0
O1441 O 0.31485 0.19126 0.53004 0.0
C1442 C 0.39895 0.11226 0.57616 0.0
Zn1443 Zn 0.41209 0.22725 0.55991 0.0
C1444 C 0.34023 0.19925 0.49805 0.0
O1445 O 0.37605 0.21933 0.50368 0.0
C1446 C 0.42982 0.24975 0.63914 0.0
O1447 O 0.38743 0.30781 0.57246 0.0
O1448 O 0.32685 0.27494 0.56294 0.0
N1449 N 0.4569 0.24907 0.51804 0.0
C1450 C 0.49732 0.23536 0.50609 0.0
C1451 C 0.47343 0.28003 0.45668 0.0
N1452 N 0.4427 0.27787 0.48832 0.0
N1453 N 0.50774 0.2535 0.46692 0.0
C1454 C 0.29288 0.18741 0.64509 0.0
C1455 C 0.3056 0.24702 0.67972 0.0
N1456 N 0.29461 0.21936 0.61602 0.0
N1457 N 0.29488 0.25692 0.63855 0.0
N1458 N 0.311 0.20301 0.68302 0.0
H1459 H 0.22349 0.1928 0.66231 0.0
H1460 H 0.24355 0.13679 0.65978 0.0
H1461 H 0.23329 0.16627 0.61098 0.0
C1462 C 0.24607 0.16955 0.64512 0.0
C1463 C 0.52189 0.19857 0.5287 0.0
H1464 H 0.55455 0.21106 0.53998 0.0
H1465 H 0.52791 0.17073 0.50564 0.0
H1466 H 0.50311 0.18625 0.55751 0.0
O1467 O 0.45387 0.23825 0.60748 0.0
O1468 O 0.38822 0.24197 0.63647 0.0
C1469 C 0.34491 0.31133 0.57073 0.0
O1470 O 0.36549 0.13477 0.59074 0.0
O1471 O 0.42818 0.13955 0.55808 0.0
Zn1472 Zn 0.94212 0.41528 0.55999 0.0
O1473 O 0.86177 0.38894 0.57244 0.0
C1474 C 0.91812 0.43014 0.63939 0.0
Zn1475 Zn 0.95577 0.35144 0.57736 0.0
C1476 C 0.85768 0.34669 0.56761 0.0
O1477 O 0.89364 0.32908 0.55717 0.0
C1478 C 0.0561 0.40162 0.57598 0.0
O1479 O 0.97826 0.31955 0.52687 0.0
O1480 O 0.95105 0.38199 0.5019 0.0
N1481 N 0.94908 0.29607 0.61196 0.0
C1482 C 0.97979 0.29222 0.64216 0.0
C1483 C 0.91927 0.30333 0.67539 0.0
N1484 N 0.91086 0.29559 0.63328 0.0
N1485 N 0.96307 0.30836 0.68045 0.0
C1486 C 0.93619 0.50009 0.50559 0.0
C1487 C 0.88117 0.48264 0.46457 0.0
N1488 N 0.91914 0.46214 0.52077 0.0
N1489 N 0.88427 0.45191 0.49628 0.0
N1490 N 0.91377 0.51269 0.46933 0.0
H1491 H 0.97637 0.55608 0.52426 0.0
H1492 H 1.00589 0.51159 0.49785 0.0
H1493 H 0.9877 0.50581 0.55429 0.0
C1494 C 0.97907 0.51946 0.5216 0.0
C1495 C 0.99677 0.24518 0.64074 0.0
H1496 H 0.97315 0.22293 0.65787 0.0
H1497 H 1.02972 0.24177 0.65482 0.0
H1498 H 0.99946 0.23306 0.60631 0.0
O1499 O 1.03363 0.36751 0.58918 0.0
O1500 O 1.02906 0.43172 0.55914 0.0
C1501 C 0.97154 0.34635 0.49572 0.0
O1502 O 0.93094 0.45501 0.60888 0.0
O1503 O 0.92517 0.38847 0.63541 0.0
Zn1504 Zn 0.2259 0.75306 0.55999 0.0
O1505 O 0.30625 0.77941 0.57245 0.0
C1506 C 0.2499 0.73821 0.6394 0.0
Zn1507 Zn 0.21225 0.81691 0.57735 0.0
C1508 C 0.31034 0.82166 0.56761 0.0
O1509 O 0.27439 0.83926 0.55716 0.0
C1510 C 0.11192 0.76672 0.57597 0.0
O1511 O 0.18976 0.84879 0.52686 0.0
O1512 O 0.21696 0.78635 0.5019 0.0
N1513 N 0.21894 0.87227 0.61195 0.0
C1514 C 0.18824 0.87613 0.64215 0.0
C1515 C 0.24876 0.86501 0.67538 0.0
N1516 N 0.25716 0.87275 0.63328 0.0
N1517 N 0.20496 0.85999 0.68045 0.0
C1518 C 0.23183 0.66825 0.50558 0.0
C1519 C 0.28686 0.68571 0.46458 0.0
N1520 N 0.24888 0.7062 0.52077 0.0
N1521 N 0.28375 0.71644 0.49629 0.0
N1522 N 0.25425 0.65566 0.46933 0.0
H1523 H 0.19165 0.61227 0.52425 0.0
H1524 H 0.16213 0.65676 0.49784 0.0
H1525 H 0.18032 0.66254 0.55428 0.0
C1526 C 0.18895 0.64888 0.52159 0.0
C1527 C 0.17126 0.92317 0.64072 0.0
H1528 H 0.19488 0.94542 0.65786 0.0
H1529 H 0.1383 0.92658 0.6548 0.0
H1530 H 0.16857 0.93529 0.60629 0.0
O1531 O 0.1344 0.80084 0.58917 0.0
O1532 O 0.13896 0.73662 0.55913 0.0
C1533 C 0.19648 0.822 0.49571 0.0
O1534 O 0.23708 0.71333 0.60888 0.0
O1535 O 0.24285 0.77988 0.63541 0.0
loop_
_geom_bond_atom_site_label_1
_geom_bond_atom_site_label_2
_geom_bond_distance
_geom_bond_site_symmetry_2
_ccdc_geom_bond_type
Zn0 O1 2.055 1_455 S
Zn0 O8 2.046 . S
Zn0 N16 2.036 . S
Zn0 O28 2.053 . S
Zn0 O30 2.066 . S
O1 Zn0 2.055 1_655 S
O1 C4 1.259 . S
C2 O30 1.256 . S
C2 O31 1.244 1_455 S
Zn3 O5 2.046 . S
Zn3 O7 2.055 . S
Zn3 N9 2.036 . S
Zn3 O27 2.066 1_655 S
Zn3 O31 2.053 . S
C4 O1 1.259 . S
C4 O5 1.254 . S
O5 Zn3 2.046 . S
O5 C4 1.254 . S
C6 O27 1.256 . S
C6 O28 1.244 . S
O7 Zn3 2.055 . S
O7 C29 1.259 1_655 S
O8 Zn0 2.046 . S
O8 C29 1.254 . S
N9 Zn3 2.036 . S
N9 C10 1.298 . S
N9 N12 1.398 . S
C10 N9 1.298 . S
C10 N13 1.367 . S
C10 C23 1.481 . S
C11 N12 1.299 . S
C11 N13 1.379 . S
N12 N9 1.398 . S
N12 C11 1.299 . S
N13 C10 1.367 . S
N13 C11 1.379 . S
C14 N16 1.298 . S
C14 N18 1.367 . S
C14 C22 1.481 . S
C15 N17 1.299 . S
C15 N18 1.379 . S
N16 Zn0 2.036 . S
N16 C14 1.298 . S
N16 N17 1.398 . S
N17 C15 1.299 . S
N17 N16 1.398 . S
N18 C14 1.367 . S
N18 C15 1.379 . S
H19 C22 0.980 . S
H20 C22 0.981 . S
H21 C22 0.981 . S
C22 C14 1.481 . S
C22 H19 0.980 . S
C22 H20 0.981 . S
C22 H21 0.981 . S
C23 C10 1.481 . S
C23 H24 0.980 . S
C23 H25 0.981 . S
C23 H26 0.981 . S
H24 C23 0.980 . S
H25 C23 0.981 . S
H26 C23 0.981 . S
O27 Zn3 2.066 1_455 S
O27 C6 1.256 . S
O28 Zn0 2.053 . S
O28 C6 1.244 . S
C29 O7 1.259 1_455 S
C29 O8 1.254 . S
O30 Zn0 2.066 . S
O30 C2 1.256 . S
O31 C2 1.244 1_655 S
O31 Zn3 2.053 . S
Zn32 O33 2.055 . S
Zn32 O40 2.046 . S
Zn32 N48 2.036 . S
Zn32 O60 2.053 . S
Zn32 O62 2.066 1_565 S
O33 Zn32 2.055 . S
O33 C36 1.259 1_565 S
C34 O62 1.256 . S
C34 O63 1.244 . S
Zn35 O37 2.046 . S
Zn35 O39 2.055 1_545 S
Zn35 N41 2.036 . S
Zn35 O59 2.066 . S
Zn35 O63 2.053 . S
C36 O33 1.259 1_545 S
C36 O37 1.254 . S
O37 Zn35 2.046 . S
O37 C36 1.254 . S
C38 O59 1.256 . S
C38 O60 1.244 1_545 S
O39 Zn35 2.055 1_565 S
O39 C61 1.259 . S
O40 Zn32 2.046 . S
O40 C61 1.254 . S
N41 Zn35 2.036 . S
N41 C42 1.298 . S
N41 N44 1.398 . S
C42 N41 1.298 . S
C42 N45 1.367 . S
C42 C55 1.481 . S
C43 N44 1.299 . S
C43 N45 1.379 . S
N44 N41 1.398 . S
N44 C43 1.299 . S
N45 C42 1.367 . S
N45 C43 1.379 . S
C46 N48 1.298 . S
C46 N50 1.367 . S
C46 C54 1.481 . S
C47 N49 1.299 . S
C47 N50 1.379 . S
N48 Zn32 2.036 . S
N48 C46 1.298 . S
N48 N49 1.398 . S
N49 C47 1.299 . S
N49 N48 1.398 . S
N50 C46 1.367 . S
N50 C47 1.379 . S
H51 C54 0.980 . S
H52 C54 0.981 . S
H53 C54 0.981 . S
C54 C46 1.481 . S
C54 H51 0.980 . S
C54 H52 0.981 . S
C54 H53 0.981 . S
C55 C42 1.481 . S
C55 H56 0.980 . S
C55 H57 0.981 . S
C55 H58 0.981 . S
H56 C55 0.980 . S
H57 C55 0.981 . S
H58 C55 0.981 . S
O59 Zn35 2.066 . S
O59 C38 1.256 . S
O60 Zn32 2.053 . S
O60 C38 1.244 1_565 S
C61 O39 1.259 . S
C61 O40 1.254 . S
O62 Zn32 2.066 1_545 S
O62 C34 1.256 . S
O63 C34 1.244 . S
O63 Zn35 2.053 . S
Zn64 O65 2.055 . S
Zn64 O72 2.046 . S
Zn64 N80 2.036 1_455 S
Zn64 O92 2.053 . S
Zn64 O94 2.066 . S
O65 Zn64 2.055 . S
O65 C68 1.259 . S
C66 O94 1.256 . S
C66 O95 1.244 . S
Zn67 O69 2.046 . S
Zn67 O71 2.055 . S
Zn67 N73 2.036 . S
Zn67 O91 2.066 . S
Zn67 O95 2.053 . S
C68 O65 1.259 . S
C68 O69 1.254 . S
O69 Zn67 2.046 . S
O69 C68 1.254 . S
C70 O91 1.256 . S
C70 O92 1.244 . S
O71 Zn67 2.055 . S
O71 C93 1.259 . S
O72 Zn64 2.046 . S
O72 C93 1.254 . S
N73 Zn67 2.036 . S
N73 C74 1.298 . S
N73 N76 1.398 . S
C74 N73 1.298 . S
C74 N77 1.367 . S
C74 C87 1.481 . S
C75 N76 1.299 . S
C75 N77 1.379 . S
N76 N73 1.398 . S
N76 C75 1.299 . S
N77 C74 1.367 . S
N77 C75 1.379 . S
C78 N80 1.298 . S
C78 N82 1.367 . S
C78 C86 1.481 1_655 S
C79 N81 1.299 . S
C79 N82 1.379 . S
N80 Zn64 2.036 1_655 S
N80 C78 1.298 . S
N80 N81 1.398 . S
N81 C79 1.299 . S
N81 N80 1.398 . S
N82 C78 1.367 . S
N82 C79 1.379 . S
H83 C86 0.980 . S
H84 C86 0.981 . S
H85 C86 0.981 . S
C86 C78 1.481 1_455 S
C86 H83 0.980 . S
C86 H84 0.981 . S
C86 H85 0.981 . S
C87 C74 1.481 . S
C87 H88 0.980 . S
C87 H89 0.981 . S
C87 H90 0.981 . S
H88 C87 0.980 . S
H89 C87 0.981 . S
H90 C87 0.981 . S
O91 Zn67 2.066 . S
O91 C70 1.256 . S
O92 Zn64 2.053 . S
O92 C70 1.244 . S
C93 O71 1.259 . S
C93 O72 1.254 . S
O94 Zn64 2.066 . S
O94 C66 1.256 . S
O95 C66 1.244 . S
O95 Zn67 2.053 . S
Zn96 O97 2.055 . S
Zn96 O104 2.046 . S
Zn96 N112 2.036 1_545 S
Zn96 O124 2.053 . S
Zn96 O126 2.066 . S
O97 Zn96 2.055 . S
O97 C100 1.259 . S
C98 O126 1.256 . S
C98 O127 1.244 . S
Zn99 O101 2.046 . S
Zn99 O103 2.055 . S
Zn99 N105 2.036 . S
Zn99 O123 2.066 . S
Zn99 O127 2.053 . S
C100 O97 1.259 . S
C100 O101 1.254 . S
O101 Zn99 2.046 . S
O101 C100 1.254 . S
C102 O123 1.256 . S
C102 O124 1.244 . S
O103 Zn99 2.055 . S
O103 C125 1.259 . S
O104 Zn96 2.046 . S
O104 C125 1.254 . S
N105 Zn99 2.036 . S
N105 C106 1.298 . S
N105 N108 1.398 . S
C106 N105 1.298 . S
C106 N109 1.367 . S
C106 C119 1.481 . S
C107 N108 1.299 . S
C107 N109 1.379 . S
N108 N105 1.398 . S
N108 C107 1.299 . S
N109 C106 1.367 . S
N109 C107 1.379 . S
C110 N112 1.298 . S
C110 N114 1.367 . S
C110 C118 1.481 1_565 S
C111 N113 1.299 . S
C111 N114 1.379 . S
N112 Zn96 2.036 1_565 S
N112 C110 1.298 . S
N112 N113 1.398 . S
N113 C111 1.299 . S
N113 N112 1.398 . S
N114 C110 1.367 . S
N114 C111 1.379 . S
H115 C118 0.980 . S
H116 C118 0.981 . S
H117 C118 0.981 . S
C118 C110 1.481 1_545 S
C118 H115 0.980 . S
C118 H116 0.981 . S
C118 H117 0.981 . S
C119 C106 1.481 . S
C119 H120 0.980 . S
C119 H121 0.981 . S
C119 H122 0.981 . S
H120 C119 0.980 . S
H121 C119 0.981 . S
H122 C119 0.981 . S
O123 Zn99 2.066 . S
O123 C102 1.256 . S
O124 Zn96 2.053 . S
O124 C102 1.244 . S
C125 O103 1.259 . S
C125 O104 1.254 . S
O126 Zn96 2.066 . S
O126 C98 1.256 . S
O127 C98 1.244 . S
O127 Zn99 2.053 . S
Zn128 O129 2.055 1_455 S
Zn128 O136 2.046 . S
Zn128 N144 2.036 . S
Zn128 O156 2.053 . S
Zn128 O158 2.066 . S
O129 Zn128 2.055 1_655 S
O129 C132 1.259 . S
C130 O158 1.256 . S
C130 O159 1.244 1_455 S
Zn131 O133 2.046 . S
Zn131 O135 2.055 . S
Zn131 N137 2.036 . S
Zn131 O155 2.066 1_655 S
Zn131 O159 2.053 . S
C132 O129 1.259 . S
C132 O133 1.254 . S
O133 Zn131 2.046 . S
O133 C132 1.254 . S
C134 O155 1.256 . S
C134 O156 1.244 . S
O135 Zn131 2.055 . S
O135 C157 1.259 1_655 S
O136 Zn128 2.046 . S
O136 C157 1.254 . S
N137 Zn131 2.036 . S
N137 C138 1.298 . S
N137 N140 1.398 . S
C138 N137 1.298 . S
C138 N141 1.367 . S
C138 C151 1.481 . S
C139 N140 1.299 . S
C139 N141 1.379 . S
N140 N137 1.398 . S
N140 C139 1.299 . S
N141 C138 1.367 . S
N141 C139 1.379 . S
C142 N144 1.298 . S
C142 N146 1.367 . S
C142 C150 1.481 . S
C143 N145 1.299 . S
C143 N146 1.379 . S
N144 Zn128 2.036 . S
N144 C142 1.298 . S
N144 N145 1.398 . S
N145 C143 1.299 . S
N145 N144 1.398 . S
N146 C142 1.367 . S
N146 C143 1.379 . S
H147 C150 0.980 . S
H148 C150 0.981 . S
H149 C150 0.981 . S
C150 C142 1.481 . S
C150 H147 0.980 . S
C150 H148 0.981 . S
C150 H149 0.981 . S
C151 C138 1.481 . S
C151 H152 0.980 . S
C151 H153 0.981 . S
C151 H154 0.981 . S
H152 C151 0.980 . S
H153 C151 0.981 . S
H154 C151 0.981 . S
O155 Zn131 2.066 1_455 S
O155 C134 1.256 . S
O156 Zn128 2.053 . S
O156 C134 1.244 . S
C157 O135 1.259 1_455 S
C157 O136 1.254 . S
O158 Zn128 2.066 . S
O158 C130 1.256 . S
O159 C130 1.244 1_655 S
O159 Zn131 2.053 . S
Zn160 O161 2.055 . S
Zn160 O168 2.046 . S
Zn160 N176 2.036 . S
Zn160 O188 2.053 . S
Zn160 O190 2.066 1_565 S
O161 Zn160 2.055 . S
O161 C164 1.259 1_565 S
C162 O190 1.256 . S
C162 O191 1.244 . S
Zn163 O165 2.046 . S
Zn163 O167 2.055 1_545 S
Zn163 N169 2.036 . S
Zn163 O187 2.066 . S
Zn163 O191 2.053 . S
C164 O161 1.259 1_545 S
C164 O165 1.254 . S
O165 Zn163 2.046 . S
O165 C164 1.254 . S
C166 O187 1.256 . S
C166 O188 1.244 1_545 S
O167 Zn163 2.055 1_565 S
O167 C189 1.259 . S
O168 Zn160 2.046 . S
O168 C189 1.254 . S
N169 Zn163 2.036 . S
N169 C170 1.298 . S
N169 N172 1.398 . S
C170 N169 1.298 . S
C170 N173 1.367 . S
C170 C183 1.481 . S
C171 N172 1.299 . S
C171 N173 1.379 . S
N172 N169 1.398 . S
N172 C171 1.299 . S
N173 C170 1.367 . S
N173 C171 1.379 . S
C174 N176 1.298 . S
C174 N178 1.367 . S
C174 C182 1.481 . S
C175 N177 1.299 . S
C175 N178 1.379 . S
N176 Zn160 2.036 . S
N176 C174 1.298 . S
N176 N177 1.398 . S
N177 C175 1.299 . S
N177 N176 1.398 . S
N178 C174 1.367 . S
N178 C175 1.379 . S
H179 C182 0.980 . S
H180 C182 0.981 . S
H181 C182 0.981 . S
C182 C174 1.481 . S
C182 H179 0.980 . S
C182 H180 0.981 . S
C182 H181 0.981 . S
C183 C170 1.481 . S
C183 H184 0.980 . S
C183 H185 0.981 . S
C183 H186 0.981 . S
H184 C183 0.980 . S
H185 C183 0.981 . S
H186 C183 0.981 . S
O187 Zn163 2.066 . S
O187 C166 1.256 . S
O188 Zn160 2.053 . S
O188 C166 1.244 1_565 S
C189 O167 1.259 . S
C189 O168 1.254 . S
O190 Zn160 2.066 1_545 S
O190 C162 1.256 . S
O191 C162 1.244 . S
O191 Zn163 2.053 . S
Zn192 O193 2.055 . S
Zn192 O200 2.046 . S
Zn192 N208 2.036 . S
Zn192 O220 2.053 . S
Zn192 O222 2.066 . S
O193 Zn192 2.055 . S
O193 C196 1.259 . S
C194 O222 1.256 . S
C194 O223 1.244 . S
Zn195 O197 2.046 . S
Zn195 O199 2.055 . S
Zn195 N201 2.036 1_455 S
Zn195 O219 2.066 . S
Zn195 O223 2.053 . S
C196 O193 1.259 . S
C196 O197 1.254 . S
O197 Zn195 2.046 . S
O197 C196 1.254 . S
C198 O219 1.256 . S
C198 O220 1.244 . S
O199 Zn195 2.055 . S
O199 C221 1.259 . S
O200 Zn192 2.046 . S
O200 C221 1.254 . S
N201 Zn195 2.036 1_655 S
N201 C202 1.298 . S
N201 N204 1.398 . S
C202 N201 1.298 . S
C202 N205 1.367 . S
C202 C215 1.481 1_655 S
C203 N204 1.299 . S
C203 N205 1.379 . S
N204 N201 1.398 . S
N204 C203 1.299 . S
N205 C202 1.367 . S
N205 C203 1.379 . S
C206 N208 1.298 . S
C206 N210 1.367 . S
C206 C214 1.481 . S
C207 N209 1.299 . S
C207 N210 1.379 . S
N208 Zn192 2.036 . S
N208 C206 1.298 . S
N208 N209 1.398 . S
N209 C207 1.299 . S
N209 N208 1.398 . S
N210 C206 1.367 . S
N210 C207 1.379 . S
H211 C214 0.980 . S
H212 C214 0.981 . S
H213 C214 0.981 . S
C214 C206 1.481 . S
C214 H211 0.980 . S
C214 H212 0.981 . S
C214 H213 0.981 . S
C215 C202 1.481 1_455 S
C215 H216 0.980 . S
C215 H217 0.981 . S
C215 H218 0.981 . S
H216 C215 0.980 . S
H217 C215 0.981 . S
H218 C215 0.981 . S
O219 Zn195 2.066 . S
O219 C198 1.256 . S
O220 Zn192 2.053 . S
O220 C198 1.244 . S
C221 O199 1.259 . S
C221 O200 1.254 . S
O222 Zn192 2.066 . S
O222 C194 1.256 . S
O223 C194 1.244 . S
O223 Zn195 2.053 . S
Zn224 O225 2.055 . S
Zn224 O232 2.046 . S
Zn224 N240 2.036 1_545 S
Zn224 O252 2.053 . S
Zn224 O254 2.066 . S
O225 Zn224 2.055 . S
O225 C228 1.259 . S
C226 O254 1.256 . S
C226 O255 1.244 . S
Zn227 O229 2.046 . S
Zn227 O231 2.055 . S
Zn227 N233 2.036 . S
Zn227 O251 2.066 . S
Zn227 O255 2.053 . S
C228 O225 1.259 . S
C228 O229 1.254 . S
O229 Zn227 2.046 . S
O229 C228 1.254 . S
C230 O251 1.256 . S
C230 O252 1.244 . S
O231 Zn227 2.055 . S
O231 C253 1.259 . S
O232 Zn224 2.046 . S
O232 C253 1.254 . S
N233 Zn227 2.036 . S
N233 C234 1.298 . S
N233 N236 1.398 . S
C234 N233 1.298 . S
C234 N237 1.367 . S
C234 C247 1.481 . S
C235 N236 1.299 . S
C235 N237 1.379 . S
N236 N233 1.398 . S
N236 C235 1.299 . S
N237 C234 1.367 . S
N237 C235 1.379 . S
C238 N240 1.298 . S
C238 N242 1.367 . S
C238 C246 1.481 1_565 S
C239 N241 1.299 . S
C239 N242 1.379 . S
N240 Zn224 2.036 1_565 S
N240 C238 1.298 . S
N240 N241 1.398 . S
N241 C239 1.299 . S
N241 N240 1.398 . S
N242 C238 1.367 . S
N242 C239 1.379 . S
H243 C246 0.980 . S
H244 C246 0.981 . S
H245 C246 0.981 . S
C246 C238 1.481 1_545 S
C246 H243 0.980 . S
C246 H244 0.981 . S
C246 H245 0.981 . S
C247 C234 1.481 . S
C247 H248 0.980 . S
C247 H249 0.981 . S
C247 H250 0.981 . S
H248 C247 0.980 . S
H249 C247 0.981 . S
H250 C247 0.981 . S
O251 Zn227 2.066 . S
O251 C230 1.256 . S
O252 Zn224 2.053 . S
O252 C230 1.244 . S
C253 O231 1.259 . S
C253 O232 1.254 . S
O254 Zn224 2.066 . S
O254 C226 1.256 . S
O255 C226 1.244 . S
O255 Zn227 2.053 . S
Zn256 O257 2.055 1_545 S
Zn256 O264 2.046 . S
Zn256 N272 2.036 . S
Zn256 O284 2.053 . S
Zn256 O286 2.066 . S
O257 Zn256 2.055 1_565 S
O257 C260 1.259 . S
C258 O286 1.256 . S
C258 O287 1.244 1_545 S
Zn259 O261 2.046 . S
Zn259 O263 2.055 . S
Zn259 N265 2.036 . S
Zn259 O283 2.066 1_565 S
Zn259 O287 2.053 . S
C260 O257 1.259 . S
C260 O261 1.254 . S
O261 Zn259 2.046 . S
O261 C260 1.254 . S
C262 O283 1.256 . S
C262 O284 1.244 . S
O263 Zn259 2.055 . S
O263 C285 1.259 1_565 S
O264 Zn256 2.046 . S
O264 C285 1.254 . S
N265 Zn259 2.036 . S
N265 C266 1.298 . S
N265 N268 1.398 . S
C266 N265 1.298 . S
C266 N269 1.367 . S
C266 C279 1.481 . S
C267 N268 1.299 . S
C267 N269 1.379 . S
N268 N265 1.398 . S
N268 C267 1.299 . S
N269 C266 1.367 . S
N269 C267 1.379 . S
C270 N272 1.298 . S
C270 N274 1.367 . S
C270 C278 1.481 . S
C271 N273 1.299 . S
C271 N274 1.379 . S
N272 Zn256 2.036 . S
N272 C270 1.298 . S
N272 N273 1.398 . S
N273 C271 1.299 . S
N273 N272 1.398 . S
N274 C270 1.367 . S
N274 C271 1.379 . S
H275 C278 0.980 . S
H276 C278 0.981 . S
H277 C278 0.981 . S
C278 C270 1.481 . S
C278 H275 0.980 . S
C278 H276 0.981 . S
C278 H277 0.981 . S
C279 C266 1.481 . S
C279 H280 0.980 . S
C279 H281 0.981 . S
C279 H282 0.981 . S
H280 C279 0.980 . S
H281 C279 0.981 . S
H282 C279 0.981 . S
O283 Zn259 2.066 1_545 S
O283 C262 1.256 . S
O284 Zn256 2.053 . S
O284 C262 1.244 . S
C285 O263 1.259 1_545 S
C285 O264 1.254 . S
O286 Zn256 2.066 . S
O286 C258 1.256 . S
O287 C258 1.244 1_565 S
O287 Zn259 2.053 . S
Zn288 O289 2.055 . S
Zn288 O296 2.046 . S
Zn288 N304 2.036 . S
Zn288 O316 2.053 . S
Zn288 O318 2.066 . S
O289 Zn288 2.055 . S
O289 C292 1.259 . S
C290 O318 1.256 . S
C290 O319 1.244 . S
Zn291 O293 2.046 . S
Zn291 O295 2.055 . S
Zn291 N297 2.036 1_455 S
Zn291 O315 2.066 . S
Zn291 O319 2.053 . S
C292 O289 1.259 . S
C292 O293 1.254 . S
O293 Zn291 2.046 . S
O293 C292 1.254 . S
C294 O315 1.256 . S
C294 O316 1.244 . S
O295 Zn291 2.055 . S
O295 C317 1.259 . S
O296 Zn288 2.046 . S
O296 C317 1.254 . S
N297 Zn291 2.036 1_655 S
N297 C298 1.298 . S
N297 N300 1.398 . S
C298 N297 1.298 . S
C298 N301 1.367 . S
C298 C311 1.481 1_655 S
C299 N300 1.299 . S
C299 N301 1.379 . S
N300 N297 1.398 . S
N300 C299 1.299 . S
N301 C298 1.367 . S
N301 C299 1.379 . S
C302 N304 1.298 . S
C302 N306 1.367 . S
C302 C310 1.481 . S
C303 N305 1.299 . S
C303 N306 1.379 . S
N304 Zn288 2.036 . S
N304 C302 1.298 . S
N304 N305 1.398 . S
N305 C303 1.299 . S
N305 N304 1.398 . S
N306 C302 1.367 . S
N306 C303 1.379 . S
H307 C310 0.980 . S
H308 C310 0.981 . S
H309 C310 0.981 . S
C310 C302 1.481 . S
C310 H307 0.980 . S
C310 H308 0.981 . S
C310 H309 0.981 . S
C311 C298 1.481 1_455 S
C311 H312 0.980 . S
C311 H313 0.981 . S
C311 H314 0.981 . S
H312 C311 0.980 . S
H313 C311 0.981 . S
H314 C311 0.981 . S
O315 Zn291 2.066 . S
O315 C294 1.256 . S
O316 Zn288 2.053 . S
O316 C294 1.244 . S
C317 O295 1.259 . S
C317 O296 1.254 . S
O318 Zn288 2.066 . S
O318 C290 1.256 . S
O319 C290 1.244 . S
O319 Zn291 2.053 . S
Zn320 O321 2.055 . S
Zn320 O328 2.046 . S
Zn320 N336 2.036 1_545 S
Zn320 O348 2.053 . S
Zn320 O350 2.066 . S
O321 Zn320 2.055 . S
O321 C324 1.259 . S
C322 O350 1.256 . S
C322 O351 1.244 . S
Zn323 O325 2.046 . S
Zn323 O327 2.055 . S
Zn323 N329 2.036 . S
Zn323 O347 2.066 . S
Zn323 O351 2.053 . S
C324 O321 1.259 . S
C324 O325 1.254 . S
O325 Zn323 2.046 . S
O325 C324 1.254 . S
C326 O347 1.256 . S
C326 O348 1.244 . S
O327 Zn323 2.055 . S
O327 C349 1.259 . S
O328 Zn320 2.046 . S
O328 C349 1.254 . S
N329 Zn323 2.036 . S
N329 C330 1.298 . S
N329 N332 1.398 . S
C330 N329 1.298 . S
C330 N333 1.367 . S
C330 C343 1.481 . S
C331 N332 1.299 . S
C331 N333 1.379 . S
N332 N329 1.398 . S
N332 C331 1.299 . S
N333 C330 1.367 . S
N333 C331 1.379 . S
C334 N336 1.298 . S
C334 N338 1.367 . S
C334 C342 1.481 1_565 S
C335 N337 1.299 . S
C335 N338 1.379 . S
N336 Zn320 2.036 1_565 S
N336 C334 1.298 . S
N336 N337 1.398 . S
N337 C335 1.299 . S
N337 N336 1.398 . S
N338 C334 1.367 . S
N338 C335 1.379 . S
H339 C342 0.980 . S
H340 C342 0.981 . S
H341 C342 0.981 . S
C342 C334 1.481 1_545 S
C342 H339 0.980 . S
C342 H340 0.981 . S
C342 H341 0.981 . S
C343 C330 1.481 . S
C343 H344 0.980 . S
C343 H345 0.981 . S
C343 H346 0.981 . S
H344 C343 0.980 . S
H345 C343 0.981 . S
H346 C343 0.981 . S
O347 Zn323 2.066 . S
O347 C326 1.256 . S
O348 Zn320 2.053 . S
O348 C326 1.244 . S
C349 O327 1.259 . S
C349 O328 1.254 . S
O350 Zn320 2.066 . S
O350 C322 1.256 . S
O351 C322 1.244 . S
O351 Zn323 2.053 . S
Zn352 O353 2.055 . S
Zn352 O360 2.046 . S
Zn352 N368 2.036 . S
Zn352 O380 2.053 . S
Zn352 O382 2.066 1_655 S
O353 Zn352 2.055 . S
O353 C356 1.259 1_655 S
C354 O382 1.256 . S
C354 O383 1.244 . S
Zn355 O357 2.046 . S
Zn355 O359 2.055 1_455 S
Zn355 N361 2.036 . S
Zn355 O379 2.066 . S
Zn355 O383 2.053 . S
C356 O353 1.259 1_455 S
C356 O357 1.254 . S
O357 Zn355 2.046 . S
O357 C356 1.254 . S
C358 O379 1.256 . S
C358 O380 1.244 1_455 S
O359 Zn355 2.055 1_655 S
O359 C381 1.259 . S
O360 Zn352 2.046 . S
O360 C381 1.254 . S
N361 Zn355 2.036 . S
N361 C362 1.298 . S
N361 N364 1.398 . S
C362 N361 1.298 . S
C362 N365 1.367 . S
C362 C375 1.481 . S
C363 N364 1.299 . S
C363 N365 1.379 . S
N364 N361 1.398 . S
N364 C363 1.299 . S
N365 C362 1.367 . S
N365 C363 1.379 . S
C366 N368 1.298 . S
C366 N370 1.367 . S
C366 C374 1.481 . S
C367 N369 1.299 . S
C367 N370 1.379 . S
N368 Zn352 2.036 . S
N368 C366 1.298 . S
N368 N369 1.398 . S
N369 C367 1.299 . S
N369 N368 1.398 . S
N370 C366 1.367 . S
N370 C367 1.379 . S
H371 C374 0.980 . S
H372 C374 0.981 . S
H373 C374 0.981 . S
C374 C366 1.481 . S
C374 H371 0.980 . S
C374 H372 0.981 . S
C374 H373 0.981 . S
C375 C362 1.481 . S
C375 H376 0.980 . S
C375 H377 0.981 . S
C375 H378 0.981 . S
H376 C375 0.980 . S
H377 C375 0.981 . S
H378 C375 0.981 . S
O379 Zn355 2.066 . S
O379 C358 1.256 . S
O380 Zn352 2.053 . S
O380 C358 1.244 1_655 S
C381 O359 1.259 . S
C381 O360 1.254 . S
O382 Zn352 2.066 1_455 S
O382 C354 1.256 . S
O383 C354 1.244 . S
O383 Zn355 2.053 . S
Zn384 O385 2.055 . S
Zn384 O392 2.046 . S
Zn384 N400 2.036 1_545 S
Zn384 O412 2.053 . S
Zn384 O414 2.066 . S
O385 Zn384 2.055 . S
O385 C388 1.259 . S
C386 O414 1.256 . S
C386 O415 1.244 . S
Zn387 O389 2.046 . S
Zn387 O391 2.055 . S
Zn387 N393 2.036 . S
Zn387 O411 2.066 . S
Zn387 O415 2.053 . S
C388 O385 1.259 . S
C388 O389 1.254 . S
O389 Zn387 2.046 . S
O389 C388 1.254 . S
C390 O411 1.256 . S
C390 O412 1.244 . S
O391 Zn387 2.055 . S
O391 C413 1.259 . S
O392 Zn384 2.046 . S
O392 C413 1.254 . S
N393 Zn387 2.036 . S
N393 C394 1.298 . S
N393 N396 1.398 . S
C394 N393 1.298 . S
C394 N397 1.367 . S
C394 C407 1.481 . S
C395 N396 1.299 . S
C395 N397 1.379 . S
N396 N393 1.398 . S
N396 C395 1.299 . S
N397 C394 1.367 . S
N397 C395 1.379 . S
C398 N400 1.298 . S
C398 N402 1.367 . S
C398 C406 1.481 1_565 S
C399 N401 1.299 . S
C399 N402 1.379 . S
N400 Zn384 2.036 1_565 S
N400 C398 1.298 . S
N400 N401 1.398 . S
N401 C399 1.299 . S
N401 N400 1.398 . S
N402 C398 1.367 . S
N402 C399 1.379 . S
H403 C406 0.980 . S
H404 C406 0.981 . S
H405 C406 0.981 . S
C406 C398 1.481 1_545 S
C406 H403 0.980 . S
C406 H404 0.981 . S
C406 H405 0.981 . S
C407 C394 1.481 . S
C407 H408 0.980 . S
C407 H409 0.981 . S
C407 H410 0.981 . S
H408 C407 0.980 . S
H409 C407 0.981 . S
H410 C407 0.981 . S
O411 Zn387 2.066 . S
O411 C390 1.256 . S
O412 Zn384 2.053 . S
O412 C390 1.244 . S
C413 O391 1.259 . S
C413 O392 1.254 . S
O414 Zn384 2.066 . S
O414 C386 1.256 . S
O415 C386 1.244 . S
O415 Zn387 2.053 . S
Zn416 O417 2.055 1_455 S
Zn416 O424 2.046 . S
Zn416 N432 2.036 . S
Zn416 O444 2.053 . S
Zn416 O446 2.066 . S
O417 Zn416 2.055 1_655 S
O417 C420 1.259 . S
C418 O446 1.256 . S
C418 O447 1.244 1_455 S
Zn419 O421 2.046 . S
Zn419 O423 2.055 . S
Zn419 N425 2.036 . S
Zn419 O443 2.066 1_655 S
Zn419 O447 2.053 . S
C420 O417 1.259 . S
C420 O421 1.254 . S
O421 Zn419 2.046 . S
O421 C420 1.254 . S
C422 O443 1.256 . S
C422 O444 1.244 . S
O423 Zn419 2.055 . S
O423 C445 1.259 1_655 S
O424 Zn416 2.046 . S
O424 C445 1.254 . S
N425 Zn419 2.036 . S
N425 C426 1.298 . S
N425 N428 1.398 . S
C426 N425 1.298 . S
C426 N429 1.367 . S
C426 C439 1.481 . S
C427 N428 1.299 . S
C427 N429 1.379 . S
N428 N425 1.398 . S
N428 C427 1.299 . S
N429 C426 1.367 . S
N429 C427 1.379 . S
C430 N432 1.298 . S
C430 N434 1.367 . S
C430 C438 1.481 . S
C431 N433 1.299 . S
C431 N434 1.379 . S
N432 Zn416 2.036 . S
N432 C430 1.298 . S
N432 N433 1.398 . S
N433 C431 1.299 . S
N433 N432 1.398 . S
N434 C430 1.367 . S
N434 C431 1.379 . S
H435 C438 0.980 . S
H436 C438 0.981 . S
H437 C438 0.981 . S
C438 C430 1.481 . S
C438 H435 0.980 . S
C438 H436 0.981 . S
C438 H437 0.981 . S
C439 C426 1.481 . S
C439 H440 0.980 . S
C439 H441 0.981 . S
C439 H442 0.981 . S
H440 C439 0.980 . S
H441 C439 0.981 . S
H442 C439 0.981 . S
O443 Zn419 2.066 1_455 S
O443 C422 1.256 . S
O444 Zn416 2.053 . S
O444 C422 1.244 . S
C445 O423 1.259 1_455 S
C445 O424 1.254 . S
O446 Zn416 2.066 . S
O446 C418 1.256 . S
O447 C418 1.244 1_655 S
O447 Zn419 2.053 . S
Zn448 O449 2.055 1_545 S
Zn448 O456 2.046 . S
Zn448 N464 2.036 . S
Zn448 O476 2.053 . S
Zn448 O478 2.066 . S
O449 Zn448 2.055 1_565 S
O449 C452 1.259 . S
C450 O478 1.256 . S
C450 O479 1.244 1_545 S
Zn451 O453 2.046 . S
Zn451 O455 2.055 . S
Zn451 N457 2.036 . S
Zn451 O475 2.066 1_565 S
Zn451 O479 2.053 . S
C452 O449 1.259 . S
C452 O453 1.254 . S
O453 Zn451 2.046 . S
O453 C452 1.254 . S
C454 O475 1.256 . S
C454 O476 1.244 . S
O455 Zn451 2.055 . S
O455 C477 1.259 1_565 S
O456 Zn448 2.046 . S
O456 C477 1.254 . S
N457 Zn451 2.036 . S
N457 C458 1.298 . S
N457 N460 1.398 . S
C458 N457 1.298 . S
C458 N461 1.367 . S
C458 C471 1.481 . S
C459 N460 1.299 . S
C459 N461 1.379 . S
N460 N457 1.398 . S
N460 C459 1.299 . S
N461 C458 1.367 . S
N461 C459 1.379 . S
C462 N464 1.298 . S
C462 N466 1.367 . S
C462 C470 1.481 . S
C463 N465 1.299 . S
C463 N466 1.379 . S
N464 Zn448 2.036 . S
N464 C462 1.298 . S
N464 N465 1.398 . S
N465 C463 1.299 . S
N465 N464 1.398 . S
N466 C462 1.367 . S
N466 C463 1.379 . S
H467 C470 0.980 . S
H468 C470 0.981 . S
H469 C470 0.981 . S
C470 C462 1.481 . S
C470 H467 0.980 . S
C470 H468 0.981 . S
C470 H469 0.981 . S
C471 C458 1.481 . S
C471 H472 0.980 . S
C471 H473 0.981 . S
C471 H474 0.981 . S
H472 C471 0.980 . S
H473 C471 0.981 . S
H474 C471 0.981 . S
O475 Zn451 2.066 1_545 S
O475 C454 1.256 . S
O476 Zn448 2.053 . S
O476 C454 1.244 . S
C477 O455 1.259 1_545 S
C477 O456 1.254 . S
O478 Zn448 2.066 . S
O478 C450 1.256 . S
O479 C450 1.244 1_565 S
O479 Zn451 2.053 . S
Zn480 O481 2.055 . S
Zn480 O488 2.046 . S
Zn480 N496 2.036 1_455 S
Zn480 O508 2.053 . S
Zn480 O510 2.066 . S
O481 Zn480 2.055 . S
O481 C484 1.259 . S
C482 O510 1.256 . S
C482 O511 1.244 . S
Zn483 O485 2.046 . S
Zn483 O487 2.055 . S
Zn483 N489 2.036 . S
Zn483 O507 2.066 . S
Zn483 O511 2.053 . S
C484 O481 1.259 . S
C484 O485 1.254 . S
O485 Zn483 2.046 . S
O485 C484 1.254 . S
C486 O507 1.256 . S
C486 O508 1.244 . S
O487 Zn483 2.055 . S
O487 C509 1.259 . S
O488 Zn480 2.046 . S
O488 C509 1.254 . S
N489 Zn483 2.036 . S
N489 C490 1.298 . S
N489 N492 1.398 . S
C490 N489 1.298 . S
C490 N493 1.367 . S
C490 C503 1.481 . S
C491 N492 1.299 . S
C491 N493 1.379 . S
N492 N489 1.398 . S
N492 C491 1.299 . S
N493 C490 1.367 . S
N493 C491 1.379 . S
C494 N496 1.298 . S
C494 N498 1.367 . S
C494 C502 1.481 1_655 S
C495 N497 1.299 . S
C495 N498 1.379 . S
N496 Zn480 2.036 1_655 S
N496 C494 1.298 . S
N496 N497 1.398 . S
N497 C495 1.299 . S
N497 N496 1.398 . S
N498 C494 1.367 . S
N498 C495 1.379 . S
H499 C502 0.980 . S
H500 C502 0.981 . S
H501 C502 0.981 . S
C502 C494 1.481 1_455 S
C502 H499 0.980 . S
C502 H500 0.981 . S
C502 H501 0.981 . S
C503 C490 1.481 . S
C503 H504 0.980 . S
C503 H505 0.981 . S
C503 H506 0.981 . S
H504 C503 0.980 . S
H505 C503 0.981 . S
H506 C503 0.981 . S
O507 Zn483 2.066 . S
O507 C486 1.256 . S
O508 Zn480 2.053 . S
O508 C486 1.244 . S
C509 O487 1.259 . S
C509 O488 1.254 . S
O510 Zn480 2.066 . S
O510 C482 1.256 . S
O511 C482 1.244 . S
O511 Zn483 2.053 . S
Zn512 O513 2.055 . S
Zn512 O520 2.046 . S
Zn512 N528 2.036 . S
Zn512 O540 2.053 . S
Zn512 O542 2.066 1_556 S
O513 Zn512 2.055 . S
O513 C516 1.259 1_556 S
C514 O542 1.256 . S
C514 O543 1.244 . S
Zn515 O517 2.046 . S
Zn515 O519 2.055 1_554 S
Zn515 N521 2.036 . S
Zn515 O539 2.066 . S
Zn515 O543 2.053 . S
C516 O513 1.259 1_554 S
C516 O517 1.254 . S
O517 Zn515 2.046 . S
O517 C516 1.254 . S
C518 O539 1.256 . S
C518 O540 1.244 1_554 S
O519 Zn515 2.055 1_556 S
O519 C541 1.259 . S
O520 Zn512 2.046 . S
O520 C541 1.254 . S
N521 Zn515 2.036 . S
N521 C522 1.298 . S
N521 N524 1.398 . S
C522 N521 1.298 . S
C522 N525 1.367 . S
C522 C535 1.481 . S
C523 N524 1.299 . S
C523 N525 1.379 . S
N524 N521 1.398 . S
N524 C523 1.299 . S
N525 C522 1.367 . S
N525 C523 1.379 . S
C526 N528 1.298 . S
C526 N530 1.367 . S
C526 C534 1.481 . S
C527 N529 1.299 . S
C527 N530 1.379 . S
N528 Zn512 2.036 . S
N528 C526 1.298 . S
N528 N529 1.398 . S
N529 C527 1.299 . S
N529 N528 1.398 . S
N530 C526 1.367 . S
N530 C527 1.379 . S
H531 C534 0.980 . S
H532 C534 0.981 . S
H533 C534 0.981 . S
C534 C526 1.481 . S
C534 H531 0.980 . S
C534 H532 0.981 . S
C534 H533 0.981 . S
C535 C522 1.481 . S
C535 H536 0.980 . S
C535 H537 0.981 . S
C535 H538 0.981 . S
H536 C535 0.980 . S
H537 C535 0.981 . S
H538 C535 0.981 . S
O539 Zn515 2.066 . S
O539 C518 1.256 . S
O540 Zn512 2.053 . S
O540 C518 1.244 1_556 S
C541 O519 1.259 . S
C541 O520 1.254 . S
O542 Zn512 2.066 1_554 S
O542 C514 1.256 . S
O543 C514 1.244 . S
O543 Zn515 2.053 . S
Zn544 O545 2.055 . S
Zn544 O552 2.046 . S
Zn544 N560 2.036 1_554 S
Zn544 O572 2.053 . S
Zn544 O574 2.066 . S
O545 Zn544 2.055 . S
O545 C548 1.259 . S
C546 O574 1.256 . S
C546 O575 1.244 . S
Zn547 O549 2.046 . S
Zn547 O551 2.055 . S
Zn547 N553 2.036 . S
Zn547 O571 2.066 . S
Zn547 O575 2.053 . S
C548 O545 1.259 . S
C548 O549 1.254 . S
O549 Zn547 2.046 . S
O549 C548 1.254 . S
C550 O571 1.256 . S
C550 O572 1.244 . S
O551 Zn547 2.055 . S
O551 C573 1.259 . S
O552 Zn544 2.046 . S
O552 C573 1.254 . S
N553 Zn547 2.036 . S
N553 C554 1.298 . S
N553 N556 1.398 . S
C554 N553 1.298 . S
C554 N557 1.367 . S
C554 C567 1.481 . S
C555 N556 1.299 . S
C555 N557 1.379 . S
N556 N553 1.398 . S
N556 C555 1.299 . S
N557 C554 1.367 . S
N557 C555 1.379 . S
C558 N560 1.298 . S
C558 N562 1.367 . S
C558 C566 1.481 1_556 S
C559 N561 1.299 . S
C559 N562 1.379 . S
N560 Zn544 2.036 1_556 S
N560 C558 1.298 . S
N560 N561 1.398 . S
N561 C559 1.299 . S
N561 N560 1.398 . S
N562 C558 1.367 . S
N562 C559 1.379 . S
H563 C566 0.980 . S
H564 C566 0.981 . S
H565 C566 0.981 . S
C566 C558 1.481 1_554 S
C566 H563 0.980 . S
C566 H564 0.981 . S
C566 H565 0.981 . S
C567 C554 1.481 . S
C567 H568 0.980 . S
C567 H569 0.981 . S
C567 H570 0.981 . S
H568 C567 0.980 . S
H569 C567 0.981 . S
H570 C567 0.981 . S
O571 Zn547 2.066 . S
O571 C550 1.256 . S
O572 Zn544 2.053 . S
O572 C550 1.244 . S
C573 O551 1.259 . S
C573 O552 1.254 . S
O574 Zn544 2.066 . S
O574 C546 1.256 . S
O575 C546 1.244 . S
O575 Zn547 2.053 . S
Zn576 O577 2.055 . S
Zn576 O584 2.046 . S
Zn576 N592 2.036 . S
Zn576 O604 2.053 . S
Zn576 O606 2.066 . S
O577 Zn576 2.055 . S
O577 C580 1.259 . S
C578 O606 1.256 . S
C578 O607 1.244 . S
Zn579 O581 2.046 . S
Zn579 O583 2.055 . S
Zn579 N585 2.036 1_554 S
Zn579 O603 2.066 . S
Zn579 O607 2.053 . S
C580 O577 1.259 . S
C580 O581 1.254 . S
O581 Zn579 2.046 . S
O581 C580 1.254 . S
C582 O603 1.256 . S
C582 O604 1.244 . S
O583 Zn579 2.055 . S
O583 C605 1.259 . S
O584 Zn576 2.046 . S
O584 C605 1.254 . S
N585 Zn579 2.036 1_556 S
N585 C586 1.298 . S
N585 N588 1.398 . S
C586 N585 1.298 . S
C586 N589 1.367 . S
C586 C599 1.481 1_556 S
C587 N588 1.299 . S
C587 N589 1.379 . S
N588 N585 1.398 . S
N588 C587 1.299 . S
N589 C586 1.367 . S
N589 C587 1.379 . S
C590 N592 1.298 . S
C590 N594 1.367 . S
C590 C598 1.481 . S
C591 N593 1.299 . S
C591 N594 1.379 . S
N592 Zn576 2.036 . S
N592 C590 1.298 . S
N592 N593 1.398 . S
N593 C591 1.299 . S
N593 N592 1.398 . S
N594 C590 1.367 . S
N594 C591 1.379 . S
H595 C598 0.980 . S
H596 C598 0.981 . S
H597 C598 0.981 . S
C598 C590 1.481 . S
C598 H595 0.980 . S
C598 H596 0.981 . S
C598 H597 0.981 . S
C599 C586 1.481 1_554 S
C599 H600 0.980 . S
C599 H601 0.981 . S
C599 H602 0.981 . S
H600 C599 0.980 . S
H601 C599 0.981 . S
H602 C599 0.981 . S
O603 Zn579 2.066 . S
O603 C582 1.256 . S
O604 Zn576 2.053 . S
O604 C582 1.244 . S
C605 O583 1.259 . S
C605 O584 1.254 . S
O606 Zn576 2.066 . S
O606 C578 1.256 . S
O607 C578 1.244 . S
O607 Zn579 2.053 . S
Zn608 O609 2.055 . S
Zn608 O616 2.046 . S
Zn608 N624 2.036 . S
Zn608 O636 2.053 . S
Zn608 O638 2.066 . S
O609 Zn608 2.055 . S
O609 C612 1.259 . S
C610 O638 1.256 . S
C610 O639 1.244 . S
Zn611 O613 2.046 . S
Zn611 O615 2.055 . S
Zn611 N617 2.036 1_554 S
Zn611 O635 2.066 . S
Zn611 O639 2.053 . S
C612 O609 1.259 . S
C612 O613 1.254 . S
O613 Zn611 2.046 . S
O613 C612 1.254 . S
C614 O635 1.256 . S
C614 O636 1.244 . S
O615 Zn611 2.055 . S
O615 C637 1.259 . S
O616 Zn608 2.046 . S
O616 C637 1.254 . S
N617 Zn611 2.036 1_556 S
N617 C618 1.298 . S
N617 N620 1.398 . S
C618 N617 1.298 . S
C618 N621 1.367 . S
C618 C631 1.481 1_556 S
C619 N620 1.299 . S
C619 N621 1.379 . S
N620 N617 1.398 . S
N620 C619 1.299 . S
N621 C618 1.367 . S
N621 C619 1.379 . S
C622 N624 1.298 . S
C622 N626 1.367 . S
C622 C630 1.481 . S
C623 N625 1.299 . S
C623 N626 1.379 . S
N624 Zn608 2.036 . S
N624 C622 1.298 . S
N624 N625 1.398 . S
N625 C623 1.299 . S
N625 N624 1.398 . S
N626 C622 1.367 . S
N626 C623 1.379 . S
H627 C630 0.980 . S
H628 C630 0.981 . S
H629 C630 0.981 . S
C630 C622 1.481 . S
C630 H627 0.980 . S
C630 H628 0.981 . S
C630 H629 0.981 . S
C631 C618 1.481 1_554 S
C631 H632 0.980 . S
C631 H633 0.981 . S
C631 H634 0.981 . S
H632 C631 0.980 . S
H633 C631 0.981 . S
H634 C631 0.981 . S
O635 Zn611 2.066 . S
O635 C614 1.256 . S
O636 Zn608 2.053 . S
O636 C614 1.244 . S
C637 O615 1.259 . S
C637 O616 1.254 . S
O638 Zn608 2.066 . S
O638 C610 1.256 . S
O639 C610 1.244 . S
O639 Zn611 2.053 . S
Zn640 O641 2.055 . S
Zn640 O648 2.046 . S
Zn640 N656 2.036 1_554 S
Zn640 O668 2.053 . S
Zn640 O670 2.066 . S
O641 Zn640 2.055 . S
O641 C644 1.259 . S
C642 O670 1.256 . S
C642 O671 1.244 . S
Zn643 O645 2.046 . S
Zn643 O647 2.055 . S
Zn643 N649 2.036 . S
Zn643 O667 2.066 . S
Zn643 O671 2.053 . S
C644 O641 1.259 . S
C644 O645 1.254 . S
O645 Zn643 2.046 . S
O645 C644 1.254 . S
C646 O667 1.256 . S
C646 O668 1.244 . S
O647 Zn643 2.055 . S
O647 C669 1.259 . S
O648 Zn640 2.046 . S
O648 C669 1.254 . S
N649 Zn643 2.036 . S
N649 C650 1.298 . S
N649 N652 1.398 . S
C650 N649 1.298 . S
C650 N653 1.367 . S
C650 C663 1.481 . S
C651 N652 1.299 . S
C651 N653 1.379 . S
N652 N649 1.398 . S
N652 C651 1.299 . S
N653 C650 1.367 . S
N653 C651 1.379 . S
C654 N656 1.298 . S
C654 N658 1.367 . S
C654 C662 1.481 1_556 S
C655 N657 1.299 . S
C655 N658 1.379 . S
N656 Zn640 2.036 1_556 S
N656 C654 1.298 . S
N656 N657 1.398 . S
N657 C655 1.299 . S
N657 N656 1.398 . S
N658 C654 1.367 . S
N658 C655 1.379 . S
H659 C662 0.980 . S
H660 C662 0.981 . S
H661 C662 0.981 . S
C662 C654 1.481 1_554 S
C662 H659 0.980 . S
C662 H660 0.981 . S
C662 H661 0.981 . S
C663 C650 1.481 . S
C663 H664 0.980 . S
C663 H665 0.981 . S
C663 H666 0.981 . S
H664 C663 0.980 . S
H665 C663 0.981 . S
H666 C663 0.981 . S
O667 Zn643 2.066 . S
O667 C646 1.256 . S
O668 Zn640 2.053 . S
O668 C646 1.244 . S
C669 O647 1.259 . S
C669 O648 1.254 . S
O670 Zn640 2.066 . S
O670 C642 1.256 . S
O671 C642 1.244 . S
O671 Zn643 2.053 . S
Zn672 O673 2.055 1_554 S
Zn672 O680 2.046 . S
Zn672 N688 2.036 . S
Zn672 O700 2.053 . S
Zn672 O702 2.066 . S
O673 Zn672 2.055 1_556 S
O673 C676 1.259 . S
C674 O702 1.256 . S
C674 O703 1.244 1_554 S
Zn675 O677 2.046 . S
Zn675 O679 2.055 . S
Zn675 N681 2.036 . S
Zn675 O699 2.066 1_556 S
Zn675 O703 2.053 . S
C676 O673 1.259 . S
C676 O677 1.254 . S
O677 Zn675 2.046 . S
O677 C676 1.254 . S
C678 O699 1.256 . S
C678 O700 1.244 . S
O679 Zn675 2.055 . S
O679 C701 1.259 1_556 S
O680 Zn672 2.046 . S
O680 C701 1.254 . S
N681 Zn675 2.036 . S
N681 C682 1.298 . S
N681 N684 1.398 . S
C682 N681 1.298 . S
C682 N685 1.367 . S
C682 C695 1.481 . S
C683 N684 1.299 . S
C683 N685 1.379 . S
N684 N681 1.398 . S
N684 C683 1.299 . S
N685 C682 1.367 . S
N685 C683 1.379 . S
C686 N688 1.298 . S
C686 N690 1.367 . S
C686 C694 1.481 . S
C687 N689 1.299 . S
C687 N690 1.379 . S
N688 Zn672 2.036 . S
N688 C686 1.298 . S
N688 N689 1.398 . S
N689 C687 1.299 . S
N689 N688 1.398 . S
N690 C686 1.367 . S
N690 C687 1.379 . S
H691 C694 0.980 . S
H692 C694 0.981 . S
H693 C694 0.981 . S
C694 C686 1.481 . S
C694 H691 0.980 . S
C694 H692 0.981 . S
C694 H693 0.981 . S
C695 C682 1.481 . S
C695 H696 0.980 . S
C695 H697 0.981 . S
C695 H698 0.981 . S
H696 C695 0.980 . S
H697 C695 0.981 . S
H698 C695 0.981 . S
O699 Zn675 2.066 1_554 S
O699 C678 1.256 . S
O700 Zn672 2.053 . S
O700 C678 1.244 . S
C701 O679 1.259 1_554 S
C701 O680 1.254 . S
O702 Zn672 2.066 . S
O702 C674 1.256 . S
O703 C674 1.244 1_556 S
O703 Zn675 2.053 . S
Zn704 O705 2.055 1_554 S
Zn704 O712 2.046 . S
Zn704 N720 2.036 . S
Zn704 O732 2.053 . S
Zn704 O734 2.066 . S
O705 Zn704 2.055 1_556 S
O705 C708 1.259 . S
C706 O734 1.256 . S
C706 O735 1.244 1_554 S
Zn707 O709 2.046 . S
Zn707 O711 2.055 . S
Zn707 N713 2.036 . S
Zn707 O731 2.066 1_556 S
Zn707 O735 2.053 . S
C708 O705 1.259 . S
C708 O709 1.254 . S
O709 Zn707 2.046 . S
O709 C708 1.254 . S
C710 O731 1.256 . S
C710 O732 1.244 . S
O711 Zn707 2.055 . S
O711 C733 1.259 1_556 S
O712 Zn704 2.046 . S
O712 C733 1.254 . S
N713 Zn707 2.036 . S
N713 C714 1.298 . S
N713 N716 1.398 . S
C714 N713 1.298 . S
C714 N717 1.367 . S
C714 C727 1.481 . S
C715 N716 1.299 . S
C715 N717 1.379 . S
N716 N713 1.398 . S
N716 C715 1.299 . S
N717 C714 1.367 . S
N717 C715 1.379 . S
C718 N720 1.298 . S
C718 N722 1.367 . S
C718 C726 1.481 . S
C719 N721 1.299 . S
C719 N722 1.379 . S
N720 Zn704 2.036 . S
N720 C718 1.298 . S
N720 N721 1.398 . S
N721 C719 1.299 . S
N721 N720 1.398 . S
N722 C718 1.367 . S
N722 C719 1.379 . S
H723 C726 0.980 . S
H724 C726 0.981 . S
H725 C726 0.981 . S
C726 C718 1.481 . S
C726 H723 0.980 . S
C726 H724 0.981 . S
C726 H725 0.981 . S
C727 C714 1.481 . S
C727 H728 0.980 . S
C727 H729 0.981 . S
C727 H730 0.981 . S
H728 C727 0.980 . S
H729 C727 0.981 . S
H730 C727 0.981 . S
O731 Zn707 2.066 1_554 S
O731 C710 1.256 . S
O732 Zn704 2.053 . S
O732 C710 1.244 . S
C733 O711 1.259 1_554 S
C733 O712 1.254 . S
O734 Zn704 2.066 . S
O734 C706 1.256 . S
O735 C706 1.244 1_556 S
O735 Zn707 2.053 . S
Zn736 O737 2.055 . S
Zn736 O744 2.046 . S
Zn736 N752 2.036 . S
Zn736 O764 2.053 . S
Zn736 O766 2.066 1_556 S
O737 Zn736 2.055 . S
O737 C740 1.259 1_556 S
C738 O766 1.256 . S
C738 O767 1.244 . S
Zn739 O741 2.046 . S
Zn739 O743 2.055 1_554 S
Zn739 N745 2.036 . S
Zn739 O763 2.066 . S
Zn739 O767 2.053 . S
C740 O737 1.259 1_554 S
C740 O741 1.254 . S
O741 Zn739 2.046 . S
O741 C740 1.254 . S
C742 O763 1.256 . S
C742 O764 1.244 1_554 S
O743 Zn739 2.055 1_556 S
O743 C765 1.259 . S
O744 Zn736 2.046 . S
O744 C765 1.254 . S
N745 Zn739 2.036 . S
N745 C746 1.298 . S
N745 N748 1.398 . S
C746 N745 1.298 . S
C746 N749 1.367 . S
C746 C759 1.481 . S
C747 N748 1.299 . S
C747 N749 1.379 . S
N748 N745 1.398 . S
N748 C747 1.299 . S
N749 C746 1.367 . S
N749 C747 1.379 . S
C750 N752 1.298 . S
C750 N754 1.367 . S
C750 C758 1.481 . S
C751 N753 1.299 . S
C751 N754 1.379 . S
N752 Zn736 2.036 . S
N752 C750 1.298 . S
N752 N753 1.398 . S
N753 C751 1.299 . S
N753 N752 1.398 . S
N754 C750 1.367 . S
N754 C751 1.379 . S
H755 C758 0.980 . S
H756 C758 0.981 . S
H757 C758 0.981 . S
C758 C750 1.481 . S
C758 H755 0.980 . S
C758 H756 0.981 . S
C758 H757 0.981 . S
C759 C746 1.481 . S
C759 H760 0.980 . S
C759 H761 0.981 . S
C759 H762 0.981 . S
H760 C759 0.980 . S
H761 C759 0.981 . S
H762 C759 0.981 . S
O763 Zn739 2.066 . S
O763 C742 1.256 . S
O764 Zn736 2.053 . S
O764 C742 1.244 1_556 S
C765 O743 1.259 . S
C765 O744 1.254 . S
O766 Zn736 2.066 1_554 S
O766 C738 1.256 . S
O767 C738 1.244 . S
O767 Zn739 2.053 . S
Zn768 O769 2.055 . S
Zn768 O776 2.046 . S
Zn768 N784 2.036 . S
Zn768 O796 2.053 . S
Zn768 O798 2.066 . S
O769 Zn768 2.055 . S
O769 C772 1.259 . S
C770 O798 1.256 . S
C770 O799 1.244 . S
Zn771 O773 2.046 . S
Zn771 O775 2.055 . S
Zn771 N777 2.036 . S
Zn771 O795 2.066 . S
Zn771 O799 2.053 . S
C772 O769 1.259 . S
C772 O773 1.254 . S
O773 Zn771 2.046 . S
O773 C772 1.254 . S
C774 O795 1.256 . S
C774 O796 1.244 . S
O775 Zn771 2.055 . S
O775 C797 1.259 . S
O776 Zn768 2.046 . S
O776 C797 1.254 . S
N777 Zn771 2.036 . S
N777 C778 1.298 . S
N777 N780 1.398 . S
C778 N777 1.298 . S
C778 N781 1.367 . S
C778 C791 1.481 . S
C779 N780 1.299 . S
C779 N781 1.379 . S
N780 N777 1.398 . S
N780 C779 1.299 . S
N781 C778 1.367 . S
N781 C779 1.379 . S
C782 N784 1.298 . S
C782 N786 1.367 . S
C782 C790 1.481 . S
C783 N785 1.299 . S
C783 N786 1.379 . S
N784 Zn768 2.036 . S
N784 C782 1.298 . S
N784 N785 1.398 . S
N785 C783 1.299 . S
N785 N784 1.398 . S
N786 C782 1.367 . S
N786 C783 1.379 . S
H787 C790 0.980 . S
H788 C790 0.981 . S
H789 C790 0.981 1_554 S
C790 C782 1.481 . S
C790 H787 0.980 . S
C790 H788 0.981 . S
C790 H789 0.981 1_556 S
C791 C778 1.481 . S
C791 H792 0.980 . S
C791 H793 0.981 . S
C791 H794 0.981 . S
H792 C791 0.980 . S
H793 C791 0.981 . S
H794 C791 0.981 . S
O795 Zn771 2.066 . S
O795 C774 1.256 . S
O796 Zn768 2.053 . S
O796 C774 1.244 . S
C797 O775 1.259 . S
C797 O776 1.254 . S
O798 Zn768 2.066 . S
O798 C770 1.256 . S
O799 C770 1.244 . S
O799 Zn771 2.053 . S
Zn800 O801 2.055 . S
Zn800 O808 2.046 . S
Zn800 N816 2.036 . S
Zn800 O828 2.053 . S
Zn800 O830 2.066 . S
O801 Zn800 2.055 . S
O801 C804 1.259 . S
C802 O830 1.256 . S
C802 O831 1.244 . S
Zn803 O805 2.046 . S
Zn803 O807 2.055 . S
Zn803 N809 2.036 . S
Zn803 O827 2.066 . S
Zn803 O831 2.053 . S
C804 O801 1.259 . S
C804 O805 1.254 . S
O805 Zn803 2.046 . S
O805 C804 1.254 . S
C806 O827 1.256 . S
C806 O828 1.244 . S
O807 Zn803 2.055 . S
O807 C829 1.259 . S
O808 Zn800 2.046 . S
O808 C829 1.254 . S
N809 Zn803 2.036 . S
N809 C810 1.298 . S
N809 N812 1.398 . S
C810 N809 1.298 . S
C810 N813 1.367 . S
C810 C823 1.481 . S
C811 N812 1.299 . S
C811 N813 1.379 . S
N812 N809 1.398 . S
N812 C811 1.299 . S
N813 C810 1.367 . S
N813 C811 1.379 . S
C814 N816 1.298 . S
C814 N818 1.367 . S
C814 C822 1.481 . S
C815 N817 1.299 . S
C815 N818 1.379 . S
N816 Zn800 2.036 . S
N816 C814 1.298 . S
N816 N817 1.398 . S
N817 C815 1.299 . S
N817 N816 1.398 . S
N818 C814 1.367 . S
N818 C815 1.379 . S
H819 C822 0.980 . S
H820 C822 0.981 . S
H821 C822 0.981 . S
C822 C814 1.481 . S
C822 H819 0.980 . S
C822 H820 0.981 . S
C822 H821 0.981 . S
C823 C810 1.481 . S
C823 H824 0.980 . S
C823 H825 0.981 . S
C823 H826 0.981 1_556 S
H824 C823 0.980 . S
H825 C823 0.981 . S
H826 C823 0.981 1_554 S
O827 Zn803 2.066 . S
O827 C806 1.256 . S
O828 Zn800 2.053 . S
O828 C806 1.244 . S
C829 O807 1.259 . S
C829 O808 1.254 . S
O830 Zn800 2.066 . S
O830 C802 1.256 . S
O831 C802 1.244 . S
O831 Zn803 2.053 . S
Zn832 O833 2.055 . S
Zn832 O840 2.046 . S
Zn832 N848 2.036 . S
Zn832 O860 2.053 . S
Zn832 O862 2.066 . S
O833 Zn832 2.055 . S
O833 C836 1.259 . S
C834 O862 1.256 . S
C834 O863 1.244 . S
Zn835 O837 2.046 . S
Zn835 O839 2.055 . S
Zn835 N841 2.036 . S
Zn835 O859 2.066 . S
Zn835 O863 2.053 . S
C836 O833 1.259 . S
C836 O837 1.254 . S
O837 Zn835 2.046 . S
O837 C836 1.254 . S
C838 O859 1.256 . S
C838 O860 1.244 . S
O839 Zn835 2.055 . S
O839 C861 1.259 . S
O840 Zn832 2.046 . S
O840 C861 1.254 . S
N841 Zn835 2.036 . S
N841 C842 1.298 . S
N841 N844 1.398 . S
C842 N841 1.298 . S
C842 N845 1.367 . S
C842 C855 1.481 . S
C843 N844 1.299 . S
C843 N845 1.379 . S
N844 N841 1.398 . S
N844 C843 1.299 . S
N845 C842 1.367 . S
N845 C843 1.379 . S
C846 N848 1.298 . S
C846 N850 1.367 . S
C846 C854 1.481 . S
C847 N849 1.299 . S
C847 N850 1.379 . S
N848 Zn832 2.036 . S
N848 C846 1.298 . S
N848 N849 1.398 . S
N849 C847 1.299 . S
N849 N848 1.398 . S
N850 C846 1.367 . S
N850 C847 1.379 . S
H851 C854 0.980 . S
H852 C854 0.981 . S
H853 C854 0.981 1_554 S
C854 C846 1.481 . S
C854 H851 0.980 . S
C854 H852 0.981 . S
C854 H853 0.981 1_556 S
C855 C842 1.481 . S
C855 H856 0.980 . S
C855 H857 0.981 . S
C855 H858 0.981 . S
H856 C855 0.980 . S
H857 C855 0.981 . S
H858 C855 0.981 . S
O859 Zn835 2.066 . S
O859 C838 1.256 . S
O860 Zn832 2.053 . S
O860 C838 1.244 . S
C861 O839 1.259 . S
C861 O840 1.254 . S
O862 Zn832 2.066 . S
O862 C834 1.256 . S
O863 C834 1.244 . S
O863 Zn835 2.053 . S
Zn864 O865 2.055 . S
Zn864 O872 2.046 . S
Zn864 N880 2.036 . S
Zn864 O892 2.053 . S
Zn864 O894 2.066 . S
O865 Zn864 2.055 . S
O865 C868 1.259 . S
C866 O894 1.256 . S
C866 O895 1.244 . S
Zn867 O869 2.046 . S
Zn867 O871 2.055 . S
Zn867 N873 2.036 . S
Zn867 O891 2.066 . S
Zn867 O895 2.053 . S
C868 O865 1.259 . S
C868 O869 1.254 . S
O869 Zn867 2.046 . S
O869 C868 1.254 . S
C870 O891 1.256 . S
C870 O892 1.244 . S
O871 Zn867 2.055 . S
O871 C893 1.259 . S
O872 Zn864 2.046 . S
O872 C893 1.254 . S
N873 Zn867 2.036 . S
N873 C874 1.298 . S
N873 N876 1.398 . S
C874 N873 1.298 . S
C874 N877 1.367 . S
C874 C887 1.481 . S
C875 N876 1.299 . S
C875 N877 1.379 . S
N876 N873 1.398 . S
N876 C875 1.299 . S
N877 C874 1.367 . S
N877 C875 1.379 . S
C878 N880 1.298 . S
C878 N882 1.367 . S
C878 C886 1.481 . S
C879 N881 1.299 . S
C879 N882 1.379 . S
N880 Zn864 2.036 . S
N880 C878 1.298 . S
N880 N881 1.398 . S
N881 C879 1.299 . S
N881 N880 1.398 . S
N882 C878 1.367 . S
N882 C879 1.379 . S
H883 C886 0.980 . S
H884 C886 0.981 . S
H885 C886 0.981 1_554 S
C886 C878 1.481 . S
C886 H883 0.980 . S
C886 H884 0.981 . S
C886 H885 0.981 1_556 S
C887 C874 1.481 . S
C887 H888 0.980 . S
C887 H889 0.981 . S
C887 H890 0.981 . S
H888 C887 0.980 . S
H889 C887 0.981 . S
H890 C887 0.981 . S
O891 Zn867 2.066 . S
O891 C870 1.256 . S
O892 Zn864 2.053 . S
O892 C870 1.244 . S
C893 O871 1.259 . S
C893 O872 1.254 . S
O894 Zn864 2.066 . S
O894 C866 1.256 . S
O895 C866 1.244 . S
O895 Zn867 2.053 . S
Zn896 O897 2.055 . S
Zn896 O904 2.046 . S
Zn896 N912 2.036 . S
Zn896 O924 2.053 . S
Zn896 O926 2.066 . S
O897 Zn896 2.055 . S
O897 C900 1.259 . S
C898 O926 1.256 . S
C898 O927 1.244 . S
Zn899 O901 2.046 . S
Zn899 O903 2.055 . S
Zn899 N905 2.036 . S
Zn899 O923 2.066 . S
Zn899 O927 2.053 . S
C900 O897 1.259 . S
C900 O901 1.254 . S
O901 Zn899 2.046 . S
O901 C900 1.254 . S
C902 O923 1.256 . S
C902 O924 1.244 . S
O903 Zn899 2.055 . S
O903 C925 1.259 . S
O904 Zn896 2.046 . S
O904 C925 1.254 . S
N905 Zn899 2.036 . S
N905 C906 1.298 . S
N905 N908 1.398 . S
C906 N905 1.298 . S
C906 N909 1.367 . S
C906 C919 1.481 . S
C907 N908 1.299 . S
C907 N909 1.379 . S
N908 N905 1.398 . S
N908 C907 1.299 . S
N909 C906 1.367 . S
N909 C907 1.379 . S
C910 N912 1.298 . S
C910 N914 1.367 . S
C910 C918 1.481 . S
C911 N913 1.299 . S
C911 N914 1.379 . S
N912 Zn896 2.036 . S
N912 C910 1.298 . S
N912 N913 1.398 . S
N913 C911 1.299 . S
N913 N912 1.398 . S
N914 C910 1.367 . S
N914 C911 1.379 . S
H915 C918 0.980 . S
H916 C918 0.981 . S
H917 C918 0.981 . S
C918 C910 1.481 . S
C918 H915 0.980 . S
C918 H916 0.981 . S
C918 H917 0.981 . S
C919 C906 1.481 . S
C919 H920 0.980 . S
C919 H921 0.981 . S
C919 H922 0.981 . S
H920 C919 0.980 . S
H921 C919 0.981 . S
H922 C919 0.981 . S
O923 Zn899 2.066 . S
O923 C902 1.256 . S
O924 Zn896 2.053 . S
O924 C902 1.244 . S
C925 O903 1.259 . S
C925 O904 1.254 . S
O926 Zn896 2.066 . S
O926 C898 1.256 . S
O927 C898 1.244 . S
O927 Zn899 2.053 . S
Zn928 O929 2.055 . S
Zn928 O936 2.046 . S
Zn928 N944 2.036 . S
Zn928 O956 2.053 . S
Zn928 O958 2.066 . S
O929 Zn928 2.055 . S
O929 C932 1.259 . S
C930 O958 1.256 . S
C930 O959 1.244 . S
Zn931 O933 2.046 . S
Zn931 O935 2.055 . S
Zn931 N937 2.036 . S
Zn931 O955 2.066 . S
Zn931 O959 2.053 . S
C932 O929 1.259 . S
C932 O933 1.254 . S
O933 Zn931 2.046 . S
O933 C932 1.254 . S
C934 O955 1.256 . S
C934 O956 1.244 . S
O935 Zn931 2.055 . S
O935 C957 1.259 . S
O936 Zn928 2.046 . S
O936 C957 1.254 . S
N937 Zn931 2.036 . S
N937 C938 1.298 . S
N937 N940 1.398 . S
C938 N937 1.298 . S
C938 N941 1.367 . S
C938 C951 1.481 . S
C939 N940 1.299 . S
C939 N941 1.379 . S
N940 N937 1.398 . S
N940 C939 1.299 . S
N941 C938 1.367 . S
N941 C939 1.379 . S
C942 N944 1.298 . S
C942 N946 1.367 . S
C942 C950 1.481 . S
C943 N945 1.299 . S
C943 N946 1.379 . S
N944 Zn928 2.036 . S
N944 C942 1.298 . S
N944 N945 1.398 . S
N945 C943 1.299 . S
N945 N944 1.398 . S
N946 C942 1.367 . S
N946 C943 1.379 . S
H947 C950 0.980 . S
H948 C950 0.981 . S
H949 C950 0.981 . S
C950 C942 1.481 . S
C950 H947 0.980 . S
C950 H948 0.981 . S
C950 H949 0.981 . S
C951 C938 1.481 . S
C951 H952 0.980 . S
C951 H953 0.981 . S
C951 H954 0.981 . S
H952 C951 0.980 . S
H953 C951 0.981 . S
H954 C951 0.981 . S
O955 Zn931 2.066 . S
O955 C934 1.256 . S
O956 Zn928 2.053 . S
O956 C934 1.244 . S
C957 O935 1.259 . S
C957 O936 1.254 . S
O958 Zn928 2.066 . S
O958 C930 1.256 . S
O959 C930 1.244 . S
O959 Zn931 2.053 . S
Zn960 O961 2.055 . S
Zn960 O968 2.046 . S
Zn960 N976 2.036 . S
Zn960 O988 2.053 . S
Zn960 O990 2.066 . S
O961 Zn960 2.055 . S
O961 C964 1.259 . S
C962 O990 1.256 . S
C962 O991 1.244 . S
Zn963 O965 2.046 . S
Zn963 O967 2.055 . S
Zn963 N969 2.036 . S
Zn963 O987 2.066 . S
Zn963 O991 2.053 . S
C964 O961 1.259 . S
C964 O965 1.254 . S
O965 Zn963 2.046 . S
O965 C964 1.254 . S
C966 O987 1.256 . S
C966 O988 1.244 . S
O967 Zn963 2.055 . S
O967 C989 1.259 . S
O968 Zn960 2.046 . S
O968 C989 1.254 . S
N969 Zn963 2.036 . S
N969 C970 1.298 . S
N969 N972 1.398 . S
C970 N969 1.298 . S
C970 N973 1.367 . S
C970 C983 1.481 . S
C971 N972 1.299 . S
C971 N973 1.379 . S
N972 N969 1.398 . S
N972 C971 1.299 . S
N973 C970 1.367 . S
N973 C971 1.379 . S
C974 N976 1.298 . S
C974 N978 1.367 . S
C974 C982 1.481 . S
C975 N977 1.299 . S
C975 N978 1.379 . S
N976 Zn960 2.036 . S
N976 C974 1.298 . S
N976 N977 1.398 . S
N977 C975 1.299 . S
N977 N976 1.398 . S
N978 C974 1.367 . S
N978 C975 1.379 . S
H979 C982 0.980 . S
H980 C982 0.981 . S
H981 C982 0.981 . S
C982 C974 1.481 . S
C982 H979 0.980 . S
C982 H980 0.981 . S
C982 H981 0.981 . S
C983 C970 1.481 . S
C983 H984 0.980 . S
C983 H985 0.981 . S
C983 H986 0.981 . S
H984 C983 0.980 . S
H985 C983 0.981 . S
H986 C983 0.981 . S
O987 Zn963 2.066 . S
O987 C966 1.256 . S
O988 Zn960 2.053 . S
O988 C966 1.244 . S
C989 O967 1.259 . S
C989 O968 1.254 . S
O990 Zn960 2.066 . S
O990 C962 1.256 . S
O991 C962 1.244 . S
O991 Zn963 2.053 . S
Zn992 O993 2.055 . S
Zn992 O1000 2.046 . S
Zn992 N1008 2.036 . S
Zn992 O1020 2.053 . S
Zn992 O1022 2.066 . S
O993 Zn992 2.055 . S
O993 C996 1.259 . S
C994 O1022 1.256 . S
C994 O1023 1.244 . S
Zn995 O997 2.046 . S
Zn995 O999 2.055 . S
Zn995 N1001 2.036 . S
Zn995 O1019 2.066 . S
Zn995 O1023 2.053 . S
C996 O993 1.259 . S
C996 O997 1.254 . S
O997 Zn995 2.046 . S
O997 C996 1.254 . S
C998 O1019 1.256 . S
C998 O1020 1.244 . S
O999 Zn995 2.055 . S
O999 C1021 1.259 . S
O1000 Zn992 2.046 . S
O1000 C1021 1.254 . S
N1001 Zn995 2.036 . S
N1001 C1002 1.298 . S
N1001 N1004 1.398 . S
C1002 N1001 1.298 . S
C1002 N1005 1.367 . S
C1002 C1015 1.481 . S
C1003 N1004 1.299 . S
C1003 N1005 1.379 . S
N1004 N1001 1.398 . S
N1004 C1003 1.299 . S
N1005 C1002 1.367 . S
N1005 C1003 1.379 . S
C1006 N1008 1.298 . S
C1006 N1010 1.367 . S
C1006 C1014 1.481 . S
C1007 N1009 1.299 . S
C1007 N1010 1.379 . S
N1008 Zn992 2.036 . S
N1008 C1006 1.298 . S
N1008 N1009 1.398 . S
N1009 C1007 1.299 . S
N1009 N1008 1.398 . S
N1010 C1006 1.367 . S
N1010 C1007 1.379 . S
H1011 C1014 0.980 . S
H1012 C1014 0.981 . S
H1013 C1014 0.981 . S
C1014 C1006 1.481 . S
C1014 H1011 0.980 . S
C1014 H1012 0.981 . S
C1014 H1013 0.981 . S
C1015 C1002 1.481 . S
C1015 H1016 0.980 . S
C1015 H1017 0.981 . S
C1015 H1018 0.981 . S
H1016 C1015 0.980 . S
H1017 C1015 0.981 . S
H1018 C1015 0.981 . S
O1019 Zn995 2.066 . S
O1019 C998 1.256 . S
O1020 Zn992 2.053 . S
O1020 C998 1.244 . S
C1021 O999 1.259 . S
C1021 O1000 1.254 . S
O1022 Zn992 2.066 . S
O1022 C994 1.256 . S
O1023 C994 1.244 . S
O1023 Zn995 2.053 . S
Zn1024 O1025 2.055 . S
Zn1024 O1032 2.046 . S
Zn1024 N1040 2.036 . S
Zn1024 O1052 2.053 . S
Zn1024 O1054 2.066 . S
O1025 Zn1024 2.055 . S
O1025 C1028 1.259 . S
C1026 O1054 1.256 . S
C1026 O1055 1.244 . S
Zn1027 O1029 2.046 . S
Zn1027 O1031 2.055 . S
Zn1027 N1033 2.036 . S
Zn1027 O1051 2.066 . S
Zn1027 O1055 2.053 . S
C1028 O1025 1.259 . S
C1028 O1029 1.254 . S
O1029 Zn1027 2.046 . S
O1029 C1028 1.254 . S
C1030 O1051 1.256 . S
C1030 O1052 1.244 . S
O1031 Zn1027 2.055 . S
O1031 C1053 1.259 . S
O1032 Zn1024 2.046 . S
O1032 C1053 1.254 . S
N1033 Zn1027 2.036 . S
N1033 C1034 1.298 . S
N1033 N1036 1.398 . S
C1034 N1033 1.298 . S
C1034 N1037 1.367 . S
C1034 C1047 1.481 . S
C1035 N1036 1.299 . S
C1035 N1037 1.379 . S
N1036 N1033 1.398 . S
N1036 C1035 1.299 . S
N1037 C1034 1.367 . S
N1037 C1035 1.379 . S
C1038 N1040 1.298 . S
C1038 N1042 1.367 . S
C1038 C1046 1.481 . S
C1039 N1041 1.299 . S
C1039 N1042 1.379 . S
N1040 Zn1024 2.036 . S
N1040 C1038 1.298 . S
N1040 N1041 1.398 . S
N1041 C1039 1.299 . S
N1041 N1040 1.398 . S
N1042 C1038 1.367 . S
N1042 C1039 1.379 . S
H1043 C1046 0.980 . S
H1044 C1046 0.981 . S
H1045 C1046 0.981 1_455 S
C1046 C1038 1.481 . S
C1046 H1043 0.980 . S
C1046 H1044 0.981 . S
C1046 H1045 0.981 1_655 S
C1047 C1034 1.481 . S
C1047 H1048 0.980 . S
C1047 H1049 0.981 . S
C1047 H1050 0.981 . S
H1048 C1047 0.980 . S
H1049 C1047 0.981 . S
H1050 C1047 0.981 . S
O1051 Zn1027 2.066 . S
O1051 C1030 1.256 . S
O1052 Zn1024 2.053 . S
O1052 C1030 1.244 . S
C1053 O1031 1.259 . S
C1053 O1032 1.254 . S
O1054 Zn1024 2.066 . S
O1054 C1026 1.256 . S
O1055 C1026 1.244 . S
O1055 Zn1027 2.053 . S
Zn1056 O1057 2.055 . S
Zn1056 O1064 2.046 . S
Zn1056 N1072 2.036 . S
Zn1056 O1084 2.053 . S
Zn1056 O1086 2.066 . S
O1057 Zn1056 2.055 . S
O1057 C1060 1.259 . S
C1058 O1086 1.256 . S
C1058 O1087 1.244 . S
Zn1059 O1061 2.046 . S
Zn1059 O1063 2.055 . S
Zn1059 N1065 2.036 . S
Zn1059 O1083 2.066 . S
Zn1059 O1087 2.053 . S
C1060 O1057 1.259 . S
C1060 O1061 1.254 . S
O1061 Zn1059 2.046 . S
O1061 C1060 1.254 . S
C1062 O1083 1.256 . S
C1062 O1084 1.244 . S
O1063 Zn1059 2.055 . S
O1063 C1085 1.259 . S
O1064 Zn1056 2.046 . S
O1064 C1085 1.254 . S
N1065 Zn1059 2.036 . S
N1065 C1066 1.298 . S
N1065 N1068 1.398 . S
C1066 N1065 1.298 . S
C1066 N1069 1.367 . S
C1066 C1079 1.481 . S
C1067 N1068 1.299 . S
C1067 N1069 1.379 . S
N1068 N1065 1.398 . S
N1068 C1067 1.299 . S
N1069 C1066 1.367 . S
N1069 C1067 1.379 . S
C1070 N1072 1.298 . S
C1070 N1074 1.367 . S
C1070 C1078 1.481 . S
C1071 N1073 1.299 . S
C1071 N1074 1.379 . S
N1072 Zn1056 2.036 . S
N1072 C1070 1.298 . S
N1072 N1073 1.398 . S
N1073 C1071 1.299 . S
N1073 N1072 1.398 . S
N1074 C1070 1.367 . S
N1074 C1071 1.379 . S
H1075 C1078 0.980 . S
H1076 C1078 0.981 . S
H1077 C1078 0.981 . S
C1078 C1070 1.481 . S
C1078 H1075 0.980 . S
C1078 H1076 0.981 . S
C1078 H1077 0.981 . S
C1079 C1066 1.481 . S
C1079 H1080 0.980 . S
C1079 H1081 0.981 . S
C1079 H1082 0.981 1_565 S
H1080 C1079 0.980 . S
H1081 C1079 0.981 . S
H1082 C1079 0.981 1_545 S
O1083 Zn1059 2.066 . S
O1083 C1062 1.256 . S
O1084 Zn1056 2.053 . S
O1084 C1062 1.244 . S
C1085 O1063 1.259 . S
C1085 O1064 1.254 . S
O1086 Zn1056 2.066 . S
O1086 C1058 1.256 . S
O1087 C1058 1.244 . S
O1087 Zn1059 2.053 . S
Zn1088 O1089 2.055 . S
Zn1088 O1096 2.046 . S
Zn1088 N1104 2.036 . S
Zn1088 O1116 2.053 . S
Zn1088 O1118 2.066 . S
O1089 Zn1088 2.055 . S
O1089 C1092 1.259 . S
C1090 O1118 1.256 . S
C1090 O1119 1.244 . S
Zn1091 O1093 2.046 . S
Zn1091 O1095 2.055 . S
Zn1091 N1097 2.036 . S
Zn1091 O1115 2.066 . S
Zn1091 O1119 2.053 . S
C1092 O1089 1.259 . S
C1092 O1093 1.254 . S
O1093 Zn1091 2.046 . S
O1093 C1092 1.254 . S
C1094 O1115 1.256 . S
C1094 O1116 1.244 . S
O1095 Zn1091 2.055 . S
O1095 C1117 1.259 . S
O1096 Zn1088 2.046 . S
O1096 C1117 1.254 . S
N1097 Zn1091 2.036 . S
N1097 C1098 1.298 . S
N1097 N1100 1.398 . S
C1098 N1097 1.298 . S
C1098 N1101 1.367 . S
C1098 C1111 1.481 . S
C1099 N1100 1.299 . S
C1099 N1101 1.379 . S
N1100 N1097 1.398 . S
N1100 C1099 1.299 . S
N1101 C1098 1.367 . S
N1101 C1099 1.379 . S
C1102 N1104 1.298 . S
C1102 N1106 1.367 . S
C1102 C1110 1.481 . S
C1103 N1105 1.299 . S
C1103 N1106 1.379 . S
N1104 Zn1088 2.036 . S
N1104 C1102 1.298 . S
N1104 N1105 1.398 . S
N1105 C1103 1.299 . S
N1105 N1104 1.398 . S
N1106 C1102 1.367 . S
N1106 C1103 1.379 . S
H1107 C1110 0.980 . S
H1108 C1110 0.981 . S
H1109 C1110 0.981 . S
C1110 C1102 1.481 . S
C1110 H1107 0.980 . S
C1110 H1108 0.981 . S
C1110 H1109 0.981 . S
C1111 C1098 1.481 . S
C1111 H1112 0.980 . S
C1111 H1113 0.981 . S
C1111 H1114 0.981 . S
H1112 C1111 0.980 . S
H1113 C1111 0.981 . S
H1114 C1111 0.981 . S
O1115 Zn1091 2.066 . S
O1115 C1094 1.256 . S
O1116 Zn1088 2.053 . S
O1116 C1094 1.244 . S
C1117 O1095 1.259 . S
C1117 O1096 1.254 . S
O1118 Zn1088 2.066 . S
O1118 C1090 1.256 . S
O1119 C1090 1.244 . S
O1119 Zn1091 2.053 . S
Zn1120 O1121 2.055 . S
Zn1120 O1128 2.046 . S
Zn1120 N1136 2.036 . S
Zn1120 O1148 2.053 . S
Zn1120 O1150 2.066 . S
O1121 Zn1120 2.055 . S
O1121 C1124 1.259 . S
C1122 O1150 1.256 . S
C1122 O1151 1.244 . S
Zn1123 O1125 2.046 . S
Zn1123 O1127 2.055 . S
Zn1123 N1129 2.036 . S
Zn1123 O1147 2.066 . S
Zn1123 O1151 2.053 . S
C1124 O1121 1.259 . S
C1124 O1125 1.254 . S
O1125 Zn1123 2.046 . S
O1125 C1124 1.254 . S
C1126 O1147 1.256 . S
C1126 O1148 1.244 . S
O1127 Zn1123 2.055 . S
O1127 C1149 1.259 . S
O1128 Zn1120 2.046 . S
O1128 C1149 1.254 . S
N1129 Zn1123 2.036 . S
N1129 C1130 1.298 . S
N1129 N1132 1.398 . S
C1130 N1129 1.298 . S
C1130 N1133 1.367 . S
C1130 C1143 1.481 . S
C1131 N1132 1.299 . S
C1131 N1133 1.379 . S
N1132 N1129 1.398 . S
N1132 C1131 1.299 . S
N1133 C1130 1.367 . S
N1133 C1131 1.379 . S
C1134 N1136 1.298 . S
C1134 N1138 1.367 . S
C1134 C1142 1.481 . S
C1135 N1137 1.299 . S
C1135 N1138 1.379 . S
N1136 Zn1120 2.036 . S
N1136 C1134 1.298 . S
N1136 N1137 1.398 . S
N1137 C1135 1.299 . S
N1137 N1136 1.398 . S
N1138 C1134 1.367 . S
N1138 C1135 1.379 . S
H1139 C1142 0.980 . S
H1140 C1142 0.981 . S
H1141 C1142 0.981 . S
C1142 C1134 1.481 . S
C1142 H1139 0.980 . S
C1142 H1140 0.981 . S
C1142 H1141 0.981 . S
C1143 C1130 1.481 . S
C1143 H1144 0.980 . S
C1143 H1145 0.981 . S
C1143 H1146 0.981 . S
H1144 C1143 0.980 . S
H1145 C1143 0.981 . S
H1146 C1143 0.981 . S
O1147 Zn1123 2.066 . S
O1147 C1126 1.256 . S
O1148 Zn1120 2.053 . S
O1148 C1126 1.244 . S
C1149 O1127 1.259 . S
C1149 O1128 1.254 . S
O1150 Zn1120 2.066 . S
O1150 C1122 1.256 . S
O1151 C1122 1.244 . S
O1151 Zn1123 2.053 . S
Zn1152 O1153 2.055 . S
Zn1152 O1160 2.046 . S
Zn1152 N1168 2.036 . S
Zn1152 O1180 2.053 . S
Zn1152 O1182 2.066 . S
O1153 Zn1152 2.055 . S
O1153 C1156 1.259 . S
C1154 O1182 1.256 . S
C1154 O1183 1.244 . S
Zn1155 O1157 2.046 . S
Zn1155 O1159 2.055 . S
Zn1155 N1161 2.036 . S
Zn1155 O1179 2.066 . S
Zn1155 O1183 2.053 . S
C1156 O1153 1.259 . S
C1156 O1157 1.254 . S
O1157 Zn1155 2.046 . S
O1157 C1156 1.254 . S
C1158 O1179 1.256 . S
C1158 O1180 1.244 . S
O1159 Zn1155 2.055 . S
O1159 C1181 1.259 . S
O1160 Zn1152 2.046 . S
O1160 C1181 1.254 . S
N1161 Zn1155 2.036 . S
N1161 C1162 1.298 . S
N1161 N1164 1.398 . S
C1162 N1161 1.298 . S
C1162 N1165 1.367 . S
C1162 C1175 1.481 . S
C1163 N1164 1.299 . S
C1163 N1165 1.379 . S
N1164 N1161 1.398 . S
N1164 C1163 1.299 . S
N1165 C1162 1.367 . S
N1165 C1163 1.379 . S
C1166 N1168 1.298 . S
C1166 N1170 1.367 . S
C1166 C1174 1.481 . S
C1167 N1169 1.299 . S
C1167 N1170 1.379 . S
N1168 Zn1152 2.036 . S
N1168 C1166 1.298 . S
N1168 N1169 1.398 . S
N1169 C1167 1.299 . S
N1169 N1168 1.398 . S
N1170 C1166 1.367 . S
N1170 C1167 1.379 . S
H1171 C1174 0.980 . S
H1172 C1174 0.981 . S
H1173 C1174 0.981 1_455 S
C1174 C1166 1.481 . S
C1174 H1171 0.980 . S
C1174 H1172 0.981 . S
C1174 H1173 0.981 1_655 S
C1175 C1162 1.481 . S
C1175 H1176 0.980 . S
C1175 H1177 0.981 . S
C1175 H1178 0.981 . S
H1176 C1175 0.980 . S
H1177 C1175 0.981 . S
H1178 C1175 0.981 . S
O1179 Zn1155 2.066 . S
O1179 C1158 1.256 . S
O1180 Zn1152 2.053 . S
O1180 C1158 1.244 . S
C1181 O1159 1.259 . S
C1181 O1160 1.254 . S
O1182 Zn1152 2.066 . S
O1182 C1154 1.256 . S
O1183 C1154 1.244 . S
O1183 Zn1155 2.053 . S
Zn1184 O1185 2.055 . S
Zn1184 O1192 2.046 . S
Zn1184 N1200 2.036 . S
Zn1184 O1212 2.053 . S
Zn1184 O1214 2.066 . S
O1185 Zn1184 2.055 . S
O1185 C1188 1.259 . S
C1186 O1214 1.256 . S
C1186 O1215 1.244 . S
Zn1187 O1189 2.046 . S
Zn1187 O1191 2.055 . S
Zn1187 N1193 2.036 . S
Zn1187 O1211 2.066 . S
Zn1187 O1215 2.053 . S
C1188 O1185 1.259 . S
C1188 O1189 1.254 . S
O1189 Zn1187 2.046 . S
O1189 C1188 1.254 . S
C1190 O1211 1.256 . S
C1190 O1212 1.244 . S
O1191 Zn1187 2.055 . S
O1191 C1213 1.259 . S
O1192 Zn1184 2.046 . S
O1192 C1213 1.254 . S
N1193 Zn1187 2.036 . S
N1193 C1194 1.298 . S
N1193 N1196 1.398 . S
C1194 N1193 1.298 . S
C1194 N1197 1.367 . S
C1194 C1207 1.481 . S
C1195 N1196 1.299 . S
C1195 N1197 1.379 . S
N1196 N1193 1.398 . S
N1196 C1195 1.299 . S
N1197 C1194 1.367 . S
N1197 C1195 1.379 . S
C1198 N1200 1.298 . S
C1198 N1202 1.367 . S
C1198 C1206 1.481 . S
C1199 N1201 1.299 . S
C1199 N1202 1.379 . S
N1200 Zn1184 2.036 . S
N1200 C1198 1.298 . S
N1200 N1201 1.398 . S
N1201 C1199 1.299 . S
N1201 N1200 1.398 . S
N1202 C1198 1.367 . S
N1202 C1199 1.379 . S
H1203 C1206 0.980 . S
H1204 C1206 0.981 . S
H1205 C1206 0.981 1_545 S
C1206 C1198 1.481 . S
C1206 H1203 0.980 . S
C1206 H1204 0.981 . S
C1206 H1205 0.981 1_565 S
C1207 C1194 1.481 . S
C1207 H1208 0.980 . S
C1207 H1209 0.981 . S
C1207 H1210 0.981 . S
H1208 C1207 0.980 . S
H1209 C1207 0.981 . S
H1210 C1207 0.981 . S
O1211 Zn1187 2.066 . S
O1211 C1190 1.256 . S
O1212 Zn1184 2.053 . S
O1212 C1190 1.244 . S
C1213 O1191 1.259 . S
C1213 O1192 1.254 . S
O1214 Zn1184 2.066 . S
O1214 C1186 1.256 . S
O1215 C1186 1.244 . S
O1215 Zn1187 2.053 . S
Zn1216 O1217 2.055 . S
Zn1216 O1224 2.046 . S
Zn1216 N1232 2.036 . S
Zn1216 O1244 2.053 . S
Zn1216 O1246 2.066 . S
O1217 Zn1216 2.055 . S
O1217 C1220 1.259 . S
C1218 O1246 1.256 . S
C1218 O1247 1.244 . S
Zn1219 O1221 2.046 . S
Zn1219 O1223 2.055 . S
Zn1219 N1225 2.036 . S
Zn1219 O1243 2.066 . S
Zn1219 O1247 2.053 . S
C1220 O1217 1.259 . S
C1220 O1221 1.254 . S
O1221 Zn1219 2.046 . S
O1221 C1220 1.254 . S
C1222 O1243 1.256 . S
C1222 O1244 1.244 . S
O1223 Zn1219 2.055 . S
O1223 C1245 1.259 . S
O1224 Zn1216 2.046 . S
O1224 C1245 1.254 . S
N1225 Zn1219 2.036 . S
N1225 C1226 1.298 . S
N1225 N1228 1.398 . S
C1226 N1225 1.298 . S
C1226 N1229 1.367 . S
C1226 C1239 1.481 . S
C1227 N1228 1.299 . S
C1227 N1229 1.379 . S
N1228 N1225 1.398 . S
N1228 C1227 1.299 . S
N1229 C1226 1.367 . S
N1229 C1227 1.379 . S
C1230 N1232 1.298 . S
C1230 N1234 1.367 . S
C1230 C1238 1.481 . S
C1231 N1233 1.299 . S
C1231 N1234 1.379 . S
N1232 Zn1216 2.036 . S
N1232 C1230 1.298 . S
N1232 N1233 1.398 . S
N1233 C1231 1.299 . S
N1233 N1232 1.398 . S
N1234 C1230 1.367 . S
N1234 C1231 1.379 . S
H1235 C1238 0.980 . S
H1236 C1238 0.981 . S
H1237 C1238 0.981 . S
C1238 C1230 1.481 . S
C1238 H1235 0.980 . S
C1238 H1236 0.981 . S
C1238 H1237 0.981 . S
C1239 C1226 1.481 . S
C1239 H1240 0.980 . S
C1239 H1241 0.981 . S
C1239 H1242 0.981 . S
H1240 C1239 0.980 . S
H1241 C1239 0.981 . S
H1242 C1239 0.981 . S
O1243 Zn1219 2.066 . S
O1243 C1222 1.256 . S
O1244 Zn1216 2.053 . S
O1244 C1222 1.244 . S
C1245 O1223 1.259 . S
C1245 O1224 1.254 . S
O1246 Zn1216 2.066 . S
O1246 C1218 1.256 . S
O1247 C1218 1.244 . S
O1247 Zn1219 2.053 . S
Zn1248 O1249 2.055 . S
Zn1248 O1256 2.046 . S
Zn1248 N1264 2.036 . S
Zn1248 O1276 2.053 . S
Zn1248 O1278 2.066 . S
O1249 Zn1248 2.055 . S
O1249 C1252 1.259 . S
C1250 O1278 1.256 . S
C1250 O1279 1.244 . S
Zn1251 O1253 2.046 . S
Zn1251 O1255 2.055 . S
Zn1251 N1257 2.036 . S
Zn1251 O1275 2.066 . S
Zn1251 O1279 2.053 . S
C1252 O1249 1.259 . S
C1252 O1253 1.254 . S
O1253 Zn1251 2.046 . S
O1253 C1252 1.254 . S
C1254 O1275 1.256 . S
C1254 O1276 1.244 . S
O1255 Zn1251 2.055 . S
O1255 C1277 1.259 . S
O1256 Zn1248 2.046 . S
O1256 C1277 1.254 . S
N1257 Zn1251 2.036 . S
N1257 C1258 1.298 . S
N1257 N1260 1.398 . S
C1258 N1257 1.298 . S
C1258 N1261 1.367 . S
C1258 C1271 1.481 . S
C1259 N1260 1.299 . S
C1259 N1261 1.379 . S
N1260 N1257 1.398 . S
N1260 C1259 1.299 . S
N1261 C1258 1.367 . S
N1261 C1259 1.379 . S
C1262 N1264 1.298 . S
C1262 N1266 1.367 . S
C1262 C1270 1.481 . S
C1263 N1265 1.299 . S
C1263 N1266 1.379 . S
N1264 Zn1248 2.036 . S
N1264 C1262 1.298 . S
N1264 N1265 1.398 . S
N1265 C1263 1.299 . S
N1265 N1264 1.398 . S
N1266 C1262 1.367 . S
N1266 C1263 1.379 . S
H1267 C1270 0.980 . S
H1268 C1270 0.981 . S
H1269 C1270 0.981 . S
C1270 C1262 1.481 . S
C1270 H1267 0.980 . S
C1270 H1268 0.981 . S
C1270 H1269 0.981 . S
C1271 C1258 1.481 . S
C1271 H1272 0.980 . S
C1271 H1273 0.981 . S
C1271 H1274 0.981 . S
H1272 C1271 0.980 . S
H1273 C1271 0.981 . S
H1274 C1271 0.981 . S
O1275 Zn1251 2.066 . S
O1275 C1254 1.256 . S
O1276 Zn1248 2.053 . S
O1276 C1254 1.244 . S
C1277 O1255 1.259 . S
C1277 O1256 1.254 . S
O1278 Zn1248 2.066 . S
O1278 C1250 1.256 . S
O1279 C1250 1.244 . S
O1279 Zn1251 2.053 . S
Zn1280 O1281 2.055 . S
Zn1280 O1288 2.046 . S
Zn1280 N1296 2.036 . S
Zn1280 O1308 2.053 . S
Zn1280 O1310 2.066 . S
O1281 Zn1280 2.055 . S
O1281 C1284 1.259 . S
C1282 O1310 1.256 . S
C1282 O1311 1.244 . S
Zn1283 O1285 2.046 . S
Zn1283 O1287 2.055 . S
Zn1283 N1289 2.036 . S
Zn1283 O1307 2.066 . S
Zn1283 O1311 2.053 . S
C1284 O1281 1.259 . S
C1284 O1285 1.254 . S
O1285 Zn1283 2.046 . S
O1285 C1284 1.254 . S
C1286 O1307 1.256 . S
C1286 O1308 1.244 . S
O1287 Zn1283 2.055 . S
O1287 C1309 1.259 . S
O1288 Zn1280 2.046 . S
O1288 C1309 1.254 . S
N1289 Zn1283 2.036 . S
N1289 C1290 1.298 . S
N1289 N1292 1.398 . S
C1290 N1289 1.298 . S
C1290 N1293 1.367 . S
C1290 C1303 1.481 . S
C1291 N1292 1.299 . S
C1291 N1293 1.379 . S
N1292 N1289 1.398 . S
N1292 C1291 1.299 . S
N1293 C1290 1.367 . S
N1293 C1291 1.379 . S
C1294 N1296 1.298 . S
C1294 N1298 1.367 . S
C1294 C1302 1.481 . S
C1295 N1297 1.299 . S
C1295 N1298 1.379 . S
N1296 Zn1280 2.036 . S
N1296 C1294 1.298 . S
N1296 N1297 1.398 . S
N1297 C1295 1.299 . S
N1297 N1296 1.398 . S
N1298 C1294 1.367 . S
N1298 C1295 1.379 . S
H1299 C1302 0.980 . S
H1300 C1302 0.981 . S
H1301 C1302 0.981 1_545 S
C1302 C1294 1.481 . S
C1302 H1299 0.980 . S
C1302 H1300 0.981 . S
C1302 H1301 0.981 1_565 S
C1303 C1290 1.481 . S
C1303 H1304 0.980 . S
C1303 H1305 0.981 . S
C1303 H1306 0.981 . S
H1304 C1303 0.980 . S
H1305 C1303 0.981 . S
H1306 C1303 0.981 . S
O1307 Zn1283 2.066 . S
O1307 C1286 1.256 . S
O1308 Zn1280 2.053 . S
O1308 C1286 1.244 . S
C1309 O1287 1.259 . S
C1309 O1288 1.254 . S
O1310 Zn1280 2.066 . S
O1310 C1282 1.256 . S
O1311 C1282 1.244 . S
O1311 Zn1283 2.053 . S
Zn1312 O1313 2.055 . S
Zn1312 O1320 2.046 . S
Zn1312 N1328 2.036 . S
Zn1312 O1340 2.053 . S
Zn1312 O1342 2.066 . S
O1313 Zn1312 2.055 . S
O1313 C1316 1.259 . S
C1314 O1342 1.256 . S
C1314 O1343 1.244 . S
Zn1315 O1317 2.046 . S
Zn1315 O1319 2.055 . S
Zn1315 N1321 2.036 . S
Zn1315 O1339 2.066 . S
Zn1315 O1343 2.053 . S
C1316 O1313 1.259 . S
C1316 O1317 1.254 . S
O1317 Zn1315 2.046 . S
O1317 C1316 1.254 . S
C1318 O1339 1.256 . S
C1318 O1340 1.244 . S
O1319 Zn1315 2.055 . S
O1319 C1341 1.259 . S
O1320 Zn1312 2.046 . S
O1320 C1341 1.254 . S
N1321 Zn1315 2.036 . S
N1321 C1322 1.298 . S
N1321 N1324 1.398 . S
C1322 N1321 1.298 . S
C1322 N1325 1.367 . S
C1322 C1335 1.481 . S
C1323 N1324 1.299 . S
C1323 N1325 1.379 . S
N1324 N1321 1.398 . S
N1324 C1323 1.299 . S
N1325 C1322 1.367 . S
N1325 C1323 1.379 . S
C1326 N1328 1.298 . S
C1326 N1330 1.367 . S
C1326 C1334 1.481 . S
C1327 N1329 1.299 . S
C1327 N1330 1.379 . S
N1328 Zn1312 2.036 . S
N1328 C1326 1.298 . S
N1328 N1329 1.398 . S
N1329 C1327 1.299 . S
N1329 N1328 1.398 . S
N1330 C1326 1.367 . S
N1330 C1327 1.379 . S
H1331 C1334 0.980 . S
H1332 C1334 0.981 . S
H1333 C1334 0.981 . S
C1334 C1326 1.481 . S
C1334 H1331 0.980 . S
C1334 H1332 0.981 . S
C1334 H1333 0.981 . S
C1335 C1322 1.481 . S
C1335 H1336 0.980 . S
C1335 H1337 0.981 . S
C1335 H1338 0.981 . S
H1336 C1335 0.980 . S
H1337 C1335 0.981 . S
H1338 C1335 0.981 . S
O1339 Zn1315 2.066 . S
O1339 C1318 1.256 . S
O1340 Zn1312 2.053 . S
O1340 C1318 1.244 . S
C1341 O1319 1.259 . S
C1341 O1320 1.254 . S
O1342 Zn1312 2.066 . S
O1342 C1314 1.256 . S
O1343 C1314 1.244 . S
O1343 Zn1315 2.053 . S
Zn1344 O1345 2.055 . S
Zn1344 O1352 2.046 . S
Zn1344 N1360 2.036 . S
Zn1344 O1372 2.053 . S
Zn1344 O1374 2.066 . S
O1345 Zn1344 2.055 . S
O1345 C1348 1.259 . S
C1346 O1374 1.256 . S
C1346 O1375 1.244 . S
Zn1347 O1349 2.046 . S
Zn1347 O1351 2.055 . S
Zn1347 N1353 2.036 . S
Zn1347 O1371 2.066 . S
Zn1347 O1375 2.053 . S
C1348 O1345 1.259 . S
C1348 O1349 1.254 . S
O1349 Zn1347 2.046 . S
O1349 C1348 1.254 . S
C1350 O1371 1.256 . S
C1350 O1372 1.244 . S
O1351 Zn1347 2.055 . S
O1351 C1373 1.259 . S
O1352 Zn1344 2.046 . S
O1352 C1373 1.254 . S
N1353 Zn1347 2.036 . S
N1353 C1354 1.298 . S
N1353 N1356 1.398 . S
C1354 N1353 1.298 . S
C1354 N1357 1.367 . S
C1354 C1367 1.481 . S
C1355 N1356 1.299 . S
C1355 N1357 1.379 . S
N1356 N1353 1.398 . S
N1356 C1355 1.299 . S
N1357 C1354 1.367 . S
N1357 C1355 1.379 . S
C1358 N1360 1.298 . S
C1358 N1362 1.367 . S
C1358 C1366 1.481 . S
C1359 N1361 1.299 . S
C1359 N1362 1.379 . S
N1360 Zn1344 2.036 . S
N1360 C1358 1.298 . S
N1360 N1361 1.398 . S
N1361 C1359 1.299 . S
N1361 N1360 1.398 . S
N1362 C1358 1.367 . S
N1362 C1359 1.379 . S
H1363 C1366 0.980 . S
H1364 C1366 0.981 . S
H1365 C1366 0.981 . S
C1366 C1358 1.481 . S
C1366 H1363 0.980 . S
C1366 H1364 0.981 . S
C1366 H1365 0.981 . S
C1367 C1354 1.481 . S
C1367 H1368 0.980 . S
C1367 H1369 0.981 . S
C1367 H1370 0.981 1_655 S
H1368 C1367 0.980 . S
H1369 C1367 0.981 . S
H1370 C1367 0.981 1_455 S
O1371 Zn1347 2.066 . S
O1371 C1350 1.256 . S
O1372 Zn1344 2.053 . S
O1372 C1350 1.244 . S
C1373 O1351 1.259 . S
C1373 O1352 1.254 . S
O1374 Zn1344 2.066 . S
O1374 C1346 1.256 . S
O1375 C1346 1.244 . S
O1375 Zn1347 2.053 . S
Zn1376 O1377 2.055 . S
Zn1376 O1384 2.046 . S
Zn1376 N1392 2.036 . S
Zn1376 O1404 2.053 . S
Zn1376 O1406 2.066 . S
O1377 Zn1376 2.055 . S
O1377 C1380 1.259 . S
C1378 O1406 1.256 . S
C1378 O1407 1.244 . S
Zn1379 O1381 2.046 . S
Zn1379 O1383 2.055 . S
Zn1379 N1385 2.036 . S
Zn1379 O1403 2.066 . S
Zn1379 O1407 2.053 . S
C1380 O1377 1.259 . S
C1380 O1381 1.254 . S
O1381 Zn1379 2.046 . S
O1381 C1380 1.254 . S
C1382 O1403 1.256 . S
C1382 O1404 1.244 . S
O1383 Zn1379 2.055 . S
O1383 C1405 1.259 . S
O1384 Zn1376 2.046 . S
O1384 C1405 1.254 . S
N1385 Zn1379 2.036 . S
N1385 C1386 1.298 . S
N1385 N1388 1.398 . S
C1386 N1385 1.298 . S
C1386 N1389 1.367 . S
C1386 C1399 1.481 . S
C1387 N1388 1.299 . S
C1387 N1389 1.379 . S
N1388 N1385 1.398 . S
N1388 C1387 1.299 . S
N1389 C1386 1.367 . S
N1389 C1387 1.379 . S
C1390 N1392 1.298 . S
C1390 N1394 1.367 . S
C1390 C1398 1.481 . S
C1391 N1393 1.299 . S
C1391 N1394 1.379 . S
N1392 Zn1376 2.036 . S
N1392 C1390 1.298 . S
N1392 N1393 1.398 . S
N1393 C1391 1.299 . S
N1393 N1392 1.398 . S
N1394 C1390 1.367 . S
N1394 C1391 1.379 . S
H1395 C1398 0.980 . S
H1396 C1398 0.981 . S
H1397 C1398 0.981 . S
C1398 C1390 1.481 . S
C1398 H1395 0.980 . S
C1398 H1396 0.981 . S
C1398 H1397 0.981 . S
C1399 C1386 1.481 . S
C1399 H1400 0.980 . S
C1399 H1401 0.981 . S
C1399 H1402 0.981 1_565 S
H1400 C1399 0.980 . S
H1401 C1399 0.981 . S
H1402 C1399 0.981 1_545 S
O1403 Zn1379 2.066 . S
O1403 C1382 1.256 . S
O1404 Zn1376 2.053 . S
O1404 C1382 1.244 . S
C1405 O1383 1.259 . S
C1405 O1384 1.254 . S
O1406 Zn1376 2.066 . S
O1406 C1378 1.256 . S
O1407 C1378 1.244 . S
O1407 Zn1379 2.053 . S
Zn1408 O1409 2.055 . S
Zn1408 O1416 2.046 . S
Zn1408 N1424 2.036 . S
Zn1408 O1436 2.053 . S
Zn1408 O1438 2.066 . S
O1409 Zn1408 2.055 . S
O1409 C1412 1.259 . S
C1410 O1438 1.256 . S
C1410 O1439 1.244 . S
Zn1411 O1413 2.046 . S
Zn1411 O1415 2.055 . S
Zn1411 N1417 2.036 . S
Zn1411 O1435 2.066 . S
Zn1411 O1439 2.053 . S
C1412 O1409 1.259 . S
C1412 O1413 1.254 . S
O1413 Zn1411 2.046 . S
O1413 C1412 1.254 . S
C1414 O1435 1.256 . S
C1414 O1436 1.244 . S
O1415 Zn1411 2.055 . S
O1415 C1437 1.259 . S
O1416 Zn1408 2.046 . S
O1416 C1437 1.254 . S
N1417 Zn1411 2.036 . S
N1417 C1418 1.298 . S
N1417 N1420 1.398 . S
C1418 N1417 1.298 . S
C1418 N1421 1.367 . S
C1418 C1431 1.481 . S
C1419 N1420 1.299 . S
C1419 N1421 1.379 . S
N1420 N1417 1.398 . S
N1420 C1419 1.299 . S
N1421 C1418 1.367 . S
N1421 C1419 1.379 . S
C1422 N1424 1.298 . S
C1422 N1426 1.367 . S
C1422 C1430 1.481 . S
C1423 N1425 1.299 . S
C1423 N1426 1.379 . S
N1424 Zn1408 2.036 . S
N1424 C1422 1.298 . S
N1424 N1425 1.398 . S
N1425 C1423 1.299 . S
N1425 N1424 1.398 . S
N1426 C1422 1.367 . S
N1426 C1423 1.379 . S
H1427 C1430 0.980 . S
H1428 C1430 0.981 . S
H1429 C1430 0.981 . S
C1430 C1422 1.481 . S
C1430 H1427 0.980 . S
C1430 H1428 0.981 . S
C1430 H1429 0.981 . S
C1431 C1418 1.481 . S
C1431 H1432 0.980 . S
C1431 H1433 0.981 . S
C1431 H1434 0.981 . S
H1432 C1431 0.980 . S
H1433 C1431 0.981 . S
H1434 C1431 0.981 . S
O1435 Zn1411 2.066 . S
O1435 C1414 1.256 . S
O1436 Zn1408 2.053 . S
O1436 C1414 1.244 . S
C1437 O1415 1.259 . S
C1437 O1416 1.254 . S
O1438 Zn1408 2.066 . S
O1438 C1410 1.256 . S
O1439 C1410 1.244 . S
O1439 Zn1411 2.053 . S
Zn1440 O1441 2.055 . S
Zn1440 O1448 2.046 . S
Zn1440 N1456 2.036 . S
Zn1440 O1468 2.053 . S
Zn1440 O1470 2.066 . S
O1441 Zn1440 2.055 . S
O1441 C1444 1.259 . S
C1442 O1470 1.256 . S
C1442 O1471 1.244 . S
Zn1443 O1445 2.046 . S
Zn1443 O1447 2.055 . S
Zn1443 N1449 2.036 . S
Zn1443 O1467 2.066 . S
Zn1443 O1471 2.053 . S
C1444 O1441 1.259 . S
C1444 O1445 1.254 . S
O1445 Zn1443 2.046 . S
O1445 C1444 1.254 . S
C1446 O1467 1.256 . S
C1446 O1468 1.244 . S
O1447 Zn1443 2.055 . S
O1447 C1469 1.259 . S
O1448 Zn1440 2.046 . S
O1448 C1469 1.254 . S
N1449 Zn1443 2.036 . S
N1449 C1450 1.298 . S
N1449 N1452 1.398 . S
C1450 N1449 1.298 . S
C1450 N1453 1.367 . S
C1450 C1463 1.481 . S
C1451 N1452 1.299 . S
C1451 N1453 1.379 . S
N1452 N1449 1.398 . S
N1452 C1451 1.299 . S
N1453 C1450 1.367 . S
N1453 C1451 1.379 . S
C1454 N1456 1.298 . S
C1454 N1458 1.367 . S
C1454 C1462 1.481 . S
C1455 N1457 1.299 . S
C1455 N1458 1.379 . S
N1456 Zn1440 2.036 . S
N1456 C1454 1.298 . S
N1456 N1457 1.398 . S
N1457 C1455 1.299 . S
N1457 N1456 1.398 . S
N1458 C1454 1.367 . S
N1458 C1455 1.379 . S
H1459 C1462 0.980 . S
H1460 C1462 0.981 . S
H1461 C1462 0.981 . S
C1462 C1454 1.481 . S
C1462 H1459 0.980 . S
C1462 H1460 0.981 . S
C1462 H1461 0.981 . S
C1463 C1450 1.481 . S
C1463 H1464 0.980 . S
C1463 H1465 0.981 . S
C1463 H1466 0.981 . S
H1464 C1463 0.980 . S
H1465 C1463 0.981 . S
H1466 C1463 0.981 . S
O1467 Zn1443 2.066 . S
O1467 C1446 1.256 . S
O1468 Zn1440 2.053 . S
O1468 C1446 1.244 . S
C1469 O1447 1.259 . S
C1469 O1448 1.254 . S
O1470 Zn1440 2.066 . S
O1470 C1442 1.256 . S
O1471 C1442 1.244 . S
O1471 Zn1443 2.053 . S
Zn1472 O1473 2.055 . S
Zn1472 O1480 2.046 . S
Zn1472 N1488 2.036 . S
Zn1472 O1500 2.053 . S
Zn1472 O1502 2.066 . S
O1473 Zn1472 2.055 . S
O1473 C1476 1.259 . S
C1474 O1502 1.256 . S
C1474 O1503 1.244 . S
Zn1475 O1477 2.046 . S
Zn1475 O1479 2.055 . S
Zn1475 N1481 2.036 . S
Zn1475 O1499 2.066 . S
Zn1475 O1503 2.053 . S
C1476 O1473 1.259 . S
C1476 O1477 1.254 . S
O1477 Zn1475 2.046 . S
O1477 C1476 1.254 . S
C1478 O1499 1.256 . S
C1478 O1500 1.244 . S
O1479 Zn1475 2.055 . S
O1479 C1501 1.259 . S
O1480 Zn1472 2.046 . S
O1480 C1501 1.254 . S
N1481 Zn1475 2.036 . S
N1481 C1482 1.298 . S
N1481 N1484 1.398 . S
C1482 N1481 1.298 . S
C1482 N1485 1.367 . S
C1482 C1495 1.481 . S
C1483 N1484 1.299 . S
C1483 N1485 1.379 . S
N1484 N1481 1.398 . S
N1484 C1483 1.299 . S
N1485 C1482 1.367 . S
N1485 C1483 1.379 . S
C1486 N1488 1.298 . S
C1486 N1490 1.367 . S
C1486 C1494 1.481 . S
C1487 N1489 1.299 . S
C1487 N1490 1.379 . S
N1488 Zn1472 2.036 . S
N1488 C1486 1.298 . S
N1488 N1489 1.398 . S
N1489 C1487 1.299 . S
N1489 N1488 1.398 . S
N1490 C1486 1.367 . S
N1490 C1487 1.379 . S
H1491 C1494 0.980 . S
H1492 C1494 0.981 . S
H1493 C1494 0.981 . S
C1494 C1486 1.481 . S
C1494 H1491 0.980 . S
C1494 H1492 0.981 . S
C1494 H1493 0.981 . S
C1495 C1482 1.481 . S
C1495 H1496 0.980 . S
C1495 H1497 0.981 . S
C1495 H1498 0.981 1_655 S
H1496 C1495 0.980 . S
H1497 C1495 0.981 . S
H1498 C1495 0.981 1_455 S
O1499 Zn1475 2.066 . S
O1499 C1478 1.256 . S
O1500 Zn1472 2.053 . S
O1500 C1478 1.244 . S
C1501 O1479 1.259 . S
C1501 O1480 1.254 . S
O1502 Zn1472 2.066 . S
O1502 C1474 1.256 . S
O1503 C1474 1.244 . S
O1503 Zn1475 2.053 . S
Zn1504 O1505 2.055 . S
Zn1504 O1512 2.046 . S
Zn1504 N1520 2.036 . S
Zn1504 O1532 2.053 . S
Zn1504 O1534 2.066 . S
O1505 Zn1504 2.055 . S
O1505 C1508 1.259 . S
C1506 O1534 1.256 . S
C1506 O1535 1.244 . S
Zn1507 O1509 2.046 . S
Zn1507 O1511 2.055 . S
Zn1507 N1513 2.036 . S
Zn1507 O1531 2.066 . S
Zn1507 O1535 2.053 . S
C1508 O1505 1.259 . S
C1508 O1509 1.254 . S
O1509 Zn1507 2.046 . S
O1509 C1508 1.254 . S
C1510 O1531 1.256 . S
C1510 O1532 1.244 . S
O1511 Zn1507 2.055 . S
O1511 C1533 1.259 . S
O1512 Zn1504 2.046 . S
O1512 C1533 1.254 . S
N1513 Zn1507 2.036 . S
N1513 C1514 1.298 . S
N1513 N1516 1.398 . S
C1514 N1513 1.298 . S
C1514 N1517 1.367 . S
C1514 C1527 1.481 . S
C1515 N1516 1.299 . S
C1515 N1517 1.379 . S
N1516 N1513 1.398 . S
N1516 C1515 1.299 . S
N1517 C1514 1.367 . S
N1517 C1515 1.379 . S
C1518 N1520 1.298 . S
C1518 N1522 1.367 . S
C1518 C1526 1.481 . S
C1519 N1521 1.299 . S
C1519 N1522 1.379 . S
N1520 Zn1504 2.036 . S
N1520 C1518 1.298 . S
N1520 N1521 1.398 . S
N1521 C1519 1.299 . S
N1521 N1520 1.398 . S
N1522 C1518 1.367 . S
N1522 C1519 1.379 . S
H1523 C1526 0.980 . S
H1524 C1526 0.981 . S
H1525 C1526 0.981 . S
C1526 C1518 1.481 . S
C1526 H1523 0.980 . S
C1526 H1524 0.981 . S
C1526 H1525 0.981 . S
C1527 C1514 1.481 . S
C1527 H1528 0.980 . S
C1527 H1529 0.981 . S
C1527 H1530 0.981 . S
H1528 C1527 0.980 . S
H1529 C1527 0.981 . S
H1530 C1527 0.981 . S
O1531 Zn1507 2.066 . S
O1531 C1510 1.256 . S
O1532 Zn1504 2.053 . S
O1532 C1510 1.244 . S
C1533 O1511 1.259 . S
C1533 O1512 1.254 . S
O1534 Zn1504 2.066 . S
O1534 C1506 1.256 . S
O1535 C1506 1.244 . S
O1535 Zn1507 2.053 . S
C198 C2 4.859 . S
C226 C38 4.859 . S
C130 C66 4.859 . S
C166 C98 4.859 . S
C322 C258 4.859 . S
C358 C294 4.859 . S
C450 C386 4.859 . S
C482 C418 4.859 . S
C546 C518 4.859 . S
C742 C582 4.859 . S
C674 C614 4.859 . S
C642 C706 4.859 . S
C770 C966 4.859 1_556 S
C806 C994 4.859 1_556 S
C834 C898 4.859 1_556 S
C866 C934 4.859 1_556 S
C1026 C1090 4.859 1_655 S
C1062 C1122 4.859 1_565 S
C1154 C1218 4.859 1_655 S
C1250 C1186 4.859 1_545 S
C1282 C1318 4.859 1_565 S
C1510 C1350 4.859 1_455 S
C1382 C1442 4.859 1_565 S
C1410 C1478 4.859 1_455 S
C29 C292 3.577 . S
C36 C349 3.577 . S
C93 C356 3.577 . S
C285 C125 3.577 . S
C509 C157 3.577 . S
C413 C164 3.577 . S
C445 C196 3.577 . S
C253 C477 3.577 . S
C580 C516 3.577 . S
C733 C573 3.577 . S
C612 C740 3.577 . S
C701 C669 3.577 . S
C797 C1060 3.577 . S
C1117 C804 3.577 . S
C1149 C861 3.577 . S
C893 C1053 3.577 . S
C1277 C925 3.577 . S
C932 C1181 3.577 . S
C964 C1213 3.577 . S
C1021 C1245 3.577 . S
C1309 C1348 3.577 . S
C1476 C1316 3.577 . S
C1508 C1380 3.577 . S
C1437 C1469 3.577 . S
C6 N109 1.260 . S
N13 C34 1.260 . S
C70 N50 1.260 1_455 S
C102 N77 1.260 1_545 S
N178 C134 1.260 . S
N210 C162 1.260 . S
C194 N237 1.260 1_455 S
N141 C230 1.260 1_565 S
C262 N594 1.260 . S
C290 N626 1.260 1_455 S
C326 N653 1.260 1_545 S
C354 N557 1.260 . S
C390 N717 1.260 1_545 S
N530 C422 1.260 . S
N754 C454 1.260 . S
C486 N685 1.260 1_455 S
C514 N306 1.260 . S
C550 N493 1.260 1_554 S
C578 N397 1.260 1_554 S
N429 C610 1.260 1_556 S
N461 C646 1.260 1_556 S
N370 C678 1.260 . S
N269 C710 1.260 . S
C738 N333 1.260 . S
C774 N877 1.260 . S
C802 N781 1.260 . S
N818 C838 1.260 . S
N845 C870 1.260 . S
C902 N946 1.260 . S
N978 C930 1.260 . S
N1005 C962 1.260 . S
C998 N909 1.260 . S
C1030 N1362 1.260 . S
N1394 C1058 1.260 . S
N1421 C1094 1.260 . S
C1126 N1330 1.260 . S
N1490 C1158 1.260 . S
C1190 N1293 1.260 . S
C1222 N1522 1.260 . S
C1254 N1453 1.260 . S
N1074 C1286 1.260 . S
N1261 C1314 1.260 . S
N1165 C1346 1.260 . S
C1378 N1197 1.260 . S
N1229 C1414 1.260 . S
C1446 N1133 1.260 . S
C1474 N1037 1.260 . S
N1101 C1506 1.260 . S
N18 N1426 2.711 . S
N1325 N45 2.711 . S
N82 N1357 2.711 . S
N114 N1389 2.711 . S
N146 N1517 2.711 . S
N173 N1458 2.711 . S
N205 N1485 2.711 . S
N242 N1298 2.711 . S
N274 N1266 2.711 . S
N301 N1170 2.711 . S
N338 N1202 2.711 . S
N365 N1234 2.711 . S
N402 N1069 2.711 . S
N434 N1106 2.711 . S
N466 N1138 2.711 . S
N498 N1042 2.711 . S
N525 N1010 2.711 . S
N562 N813 2.711 . S
N589 N850 2.711 . S
N621 N882 2.711 . S
N658 N786 2.711 . S
N690 N941 2.711 . S
N722 N973 2.711 . S
N749 N914 2.711 . S
C132 C1373 1.961 . S
C189 C1405 1.961 . S
C221 C1412 1.961 . S
C228 C1341 1.961 . S
C4 C1501 1.961 . S
C61 C1284 1.961 . S
C68 C1533 1.961 . S
C1444 C100 1.961 . S
C452 C1085 1.961 . S
C484 C1092 1.961 . S
C388 C1124 1.961 . S
C420 C1028 1.961 . S
C324 C1252 1.961 . S
C381 C1156 1.961 . S
C260 C1188 1.961 . S
C317 C1220 1.961 . S
C676 C868 1.961 . S
C637 C957 1.961 . S
C644 C989 1.961 . S
C548 C996 1.961 . S
C605 C900 1.961 . S
C541 C829 1.961 . S
C765 C836 1.961 . S
C708 C772 1.961 . S
